# Generated by pormake.
# Topology tbo, (3,4)-cn, num edge types: 1
# Building blocks:
#     Node 0, Type 0, BuildingBlock: WUSLED_clean_sbu_0, # of connection points: 3
#     Node 1, Type 0, BuildingBlock: WUSLED_clean_sbu_0, # of connection points: 3
#     Node 2, Type 0, BuildingBlock: WUSLED_clean_sbu_0, # of connection points: 3
#     Node 3, Type 0, BuildingBlock: WUSLED_clean_sbu_0, # of connection points: 3
#     Node 4, Type 0, BuildingBlock: WUSLED_clean_sbu_0, # of connection points: 3
#     Node 5, Type 0, BuildingBlock: WUSLED_clean_sbu_0, # of connection points: 3
#     Node 6, Type 0, BuildingBlock: WUSLED_clean_sbu_0, # of connection points: 3
#     Node 7, Type 0, BuildingBlock: WUSLED_clean_sbu_0, # of connection points: 3
#     Node 8, Type 0, BuildingBlock: WUSLED_clean_sbu_0, # of connection points: 3
#     Node 9, Type 0, BuildingBlock: WUSLED_clean_sbu_0, # of connection points: 3
#     Node 10, Type 0, BuildingBlock: WUSLED_clean_sbu_0, # of connection points: 3
#     Node 11, Type 0, BuildingBlock: WUSLED_clean_sbu_0, # of connection points: 3
#     Node 12, Type 0, BuildingBlock: WUSLED_clean_sbu_0, # of connection points: 3
#     Node 13, Type 0, BuildingBlock: WUSLED_clean_sbu_0, # of connection points: 3
#     Node 14, Type 0, BuildingBlock: WUSLED_clean_sbu_0, # of connection points: 3
#     Node 15, Type 0, BuildingBlock: WUSLED_clean_sbu_0, # of connection points: 3
#     Node 16, Type 0, BuildingBlock: WUSLED_clean_sbu_0, # of connection points: 3
#     Node 17, Type 0, BuildingBlock: WUSLED_clean_sbu_0, # of connection points: 3
#     Node 18, Type 0, BuildingBlock: WUSLED_clean_sbu_0, # of connection points: 3
#     Node 19, Type 0, BuildingBlock: WUSLED_clean_sbu_0, # of connection points: 3
#     Node 20, Type 0, BuildingBlock: WUSLED_clean_sbu_0, # of connection points: 3
#     Node 21, Type 0, BuildingBlock: WUSLED_clean_sbu_0, # of connection points: 3
#     Node 22, Type 0, BuildingBlock: WUSLED_clean_sbu_0, # of connection points: 3
#     Node 23, Type 0, BuildingBlock: WUSLED_clean_sbu_0, # of connection points: 3
#     Node 24, Type 0, BuildingBlock: WUSLED_clean_sbu_0, # of connection points: 3
#     Node 25, Type 0, BuildingBlock: WUSLED_clean_sbu_0, # of connection points: 3
#     Node 26, Type 0, BuildingBlock: WUSLED_clean_sbu_0, # of connection points: 3
#     Node 27, Type 0, BuildingBlock: WUSLED_clean_sbu_0, # of connection points: 3
#     Node 28, Type 0, BuildingBlock: WUSLED_clean_sbu_0, # of connection points: 3
#     Node 29, Type 0, BuildingBlock: WUSLED_clean_sbu_0, # of connection points: 3
#     Node 30, Type 0, BuildingBlock: WUSLED_clean_sbu_0, # of connection points: 3
#     Node 31, Type 0, BuildingBlock: WUSLED_clean_sbu_0, # of connection points: 3
#     Node 32, Type 1, BuildingBlock: NAWXER_clean_linker_0, # of connection points: 4
#     Node 33, Type 1, BuildingBlock: NAWXER_clean_linker_0, # of connection points: 4
#     Node 34, Type 1, BuildingBlock: NAWXER_clean_linker_0, # of connection points: 4
#     Node 35, Type 1, BuildingBlock: NAWXER_clean_linker_0, # of connection points: 4
#     Node 36, Type 1, BuildingBlock: NAWXER_clean_linker_0, # of connection points: 4
#     Node 37, Type 1, BuildingBlock: NAWXER_clean_linker_0, # of connection points: 4
#     Node 38, Type 1, BuildingBlock: NAWXER_clean_linker_0, # of connection points: 4
#     Node 39, Type 1, BuildingBlock: NAWXER_clean_linker_0, # of connection points: 4
#     Node 40, Type 1, BuildingBlock: NAWXER_clean_linker_0, # of connection points: 4
#     Node 41, Type 1, BuildingBlock: NAWXER_clean_linker_0, # of connection points: 4
#     Node 42, Type 1, BuildingBlock: NAWXER_clean_linker_0, # of connection points: 4
#     Node 43, Type 1, BuildingBlock: NAWXER_clean_linker_0, # of connection points: 4
#     Node 44, Type 1, BuildingBlock: NAWXER_clean_linker_0, # of connection points: 4
#     Node 45, Type 1, BuildingBlock: NAWXER_clean_linker_0, # of connection points: 4
#     Node 46, Type 1, BuildingBlock: NAWXER_clean_linker_0, # of connection points: 4
#     Node 47, Type 1, BuildingBlock: NAWXER_clean_linker_0, # of connection points: 4
#     Node 48, Type 1, BuildingBlock: NAWXER_clean_linker_0, # of connection points: 4
#     Node 49, Type 1, BuildingBlock: NAWXER_clean_linker_0, # of connection points: 4
#     Node 50, Type 1, BuildingBlock: NAWXER_clean_linker_0, # of connection points: 4
#     Node 51, Type 1, BuildingBlock: NAWXER_clean_linker_0, # of connection points: 4
#     Node 52, Type 1, BuildingBlock: NAWXER_clean_linker_0, # of connection points: 4
#     Node 53, Type 1, BuildingBlock: NAWXER_clean_linker_0, # of connection points: 4
#     Node 54, Type 1, BuildingBlock: NAWXER_clean_linker_0, # of connection points: 4
#     Node 55, Type 1, BuildingBlock: NAWXER_clean_linker_0, # of connection points: 4
#     Edge 56, Type (0, 1), BuildingBlock: AJUNOK_clean_linker_0, # of connection points: 2
#     Edge 57, Type (0, 1), BuildingBlock: AJUNOK_clean_linker_0, # of connection points: 2
#     Edge 58, Type (0, 1), BuildingBlock: AJUNOK_clean_linker_0, # of connection points: 2
#     Edge 59, Type (0, 1), BuildingBlock: AJUNOK_clean_linker_0, # of connection points: 2
#     Edge 60, Type (0, 1), BuildingBlock: AJUNOK_clean_linker_0, # of connection points: 2
#     Edge 61, Type (0, 1), BuildingBlock: AJUNOK_clean_linker_0, # of connection points: 2
#     Edge 62, Type (0, 1), BuildingBlock: AJUNOK_clean_linker_0, # of connection points: 2
#     Edge 63, Type (0, 1), BuildingBlock: AJUNOK_clean_linker_0, # of connection points: 2
#     Edge 64, Type (0, 1), BuildingBlock: AJUNOK_clean_linker_0, # of connection points: 2
#     Edge 65, Type (0, 1), BuildingBlock: AJUNOK_clean_linker_0, # of connection points: 2
#     Edge 66, Type (0, 1), BuildingBlock: AJUNOK_clean_linker_0, # of connection points: 2
#     Edge 67, Type (0, 1), BuildingBlock: AJUNOK_clean_linker_0, # of connection points: 2
#     Edge 68, Type (0, 1), BuildingBlock: AJUNOK_clean_linker_0, # of connection points: 2
#     Edge 69, Type (0, 1), BuildingBlock: AJUNOK_clean_linker_0, # of connection points: 2
#     Edge 70, Type (0, 1), BuildingBlock: AJUNOK_clean_linker_0, # of connection points: 2
#     Edge 71, Type (0, 1), BuildingBlock: AJUNOK_clean_linker_0, # of connection points: 2
#     Edge 72, Type (0, 1), BuildingBlock: AJUNOK_clean_linker_0, # of connection points: 2
#     Edge 73, Type (0, 1), BuildingBlock: AJUNOK_clean_linker_0, # of connection points: 2
#     Edge 74, Type (0, 1), BuildingBlock: AJUNOK_clean_linker_0, # of connection points: 2
#     Edge 75, Type (0, 1), BuildingBlock: AJUNOK_clean_linker_0, # of connection points: 2
#     Edge 76, Type (0, 1), BuildingBlock: AJUNOK_clean_linker_0, # of connection points: 2
#     Edge 77, Type (0, 1), BuildingBlock: AJUNOK_clean_linker_0, # of connection points: 2
#     Edge 78, Type (0, 1), BuildingBlock: AJUNOK_clean_linker_0, # of connection points: 2
#     Edge 79, Type (0, 1), BuildingBlock: AJUNOK_clean_linker_0, # of connection points: 2
#     Edge 80, Type (0, 1), BuildingBlock: AJUNOK_clean_linker_0, # of connection points: 2
#     Edge 81, Type (0, 1), BuildingBlock: AJUNOK_clean_linker_0, # of connection points: 2
#     Edge 82, Type (0, 1), BuildingBlock: AJUNOK_clean_linker_0, # of connection points: 2
#     Edge 83, Type (0, 1), BuildingBlock: AJUNOK_clean_linker_0, # of connection points: 2
#     Edge 84, Type (0, 1), BuildingBlock: AJUNOK_clean_linker_0, # of connection points: 2
#     Edge 85, Type (0, 1), BuildingBlock: AJUNOK_clean_linker_0, # of connection points: 2
#     Edge 86, Type (0, 1), BuildingBlock: AJUNOK_clean_linker_0, # of connection points: 2
#     Edge 87, Type (0, 1), BuildingBlock: AJUNOK_clean_linker_0, # of connection points: 2
#     Edge 88, Type (0, 1), BuildingBlock: AJUNOK_clean_linker_0, # of connection points: 2
#     Edge 89, Type (0, 1), BuildingBlock: AJUNOK_clean_linker_0, # of connection points: 2
#     Edge 90, Type (0, 1), BuildingBlock: AJUNOK_clean_linker_0, # of connection points: 2
#     Edge 91, Type (0, 1), BuildingBlock: AJUNOK_clean_linker_0, # of connection points: 2
#     Edge 92, Type (0, 1), BuildingBlock: AJUNOK_clean_linker_0, # of connection points: 2
#     Edge 93, Type (0, 1), BuildingBlock: AJUNOK_clean_linker_0, # of connection points: 2
#     Edge 94, Type (0, 1), BuildingBlock: AJUNOK_clean_linker_0, # of connection points: 2
#     Edge 95, Type (0, 1), BuildingBlock: AJUNOK_clean_linker_0, # of connection points: 2
#     Edge 96, Type (0, 1), BuildingBlock: AJUNOK_clean_linker_0, # of connection points: 2
#     Edge 97, Type (0, 1), BuildingBlock: AJUNOK_clean_linker_0, # of connection points: 2
#     Edge 98, Type (0, 1), BuildingBlock: AJUNOK_clean_linker_0, # of connection points: 2
#     Edge 99, Type (0, 1), BuildingBlock: AJUNOK_clean_linker_0, # of connection points: 2
#     Edge 100, Type (0, 1), BuildingBlock: AJUNOK_clean_linker_0, # of connection points: 2
#     Edge 101, Type (0, 1), BuildingBlock: AJUNOK_clean_linker_0, # of connection points: 2
#     Edge 102, Type (0, 1), BuildingBlock: AJUNOK_clean_linker_0, # of connection points: 2
#     Edge 103, Type (0, 1), BuildingBlock: AJUNOK_clean_linker_0, # of connection points: 2
#     Edge 104, Type (0, 1), BuildingBlock: AJUNOK_clean_linker_0, # of connection points: 2
#     Edge 105, Type (0, 1), BuildingBlock: AJUNOK_clean_linker_0, # of connection points: 2
#     Edge 106, Type (0, 1), BuildingBlock: AJUNOK_clean_linker_0, # of connection points: 2
#     Edge 107, Type (0, 1), BuildingBlock: AJUNOK_clean_linker_0, # of connection points: 2
#     Edge 108, Type (0, 1), BuildingBlock: AJUNOK_clean_linker_0, # of connection points: 2
#     Edge 109, Type (0, 1), BuildingBlock: AJUNOK_clean_linker_0, # of connection points: 2
#     Edge 110, Type (0, 1), BuildingBlock: AJUNOK_clean_linker_0, # of connection points: 2
#     Edge 111, Type (0, 1), BuildingBlock: AJUNOK_clean_linker_0, # of connection points: 2
#     Edge 112, Type (0, 1), BuildingBlock: AJUNOK_clean_linker_0, # of connection points: 2
#     Edge 113, Type (0, 1), BuildingBlock: AJUNOK_clean_linker_0, # of connection points: 2
#     Edge 114, Type (0, 1), BuildingBlock: AJUNOK_clean_linker_0, # of connection points: 2
#     Edge 115, Type (0, 1), BuildingBlock: AJUNOK_clean_linker_0, # of connection points: 2
#     Edge 116, Type (0, 1), BuildingBlock: AJUNOK_clean_linker_0, # of connection points: 2
#     Edge 117, Type (0, 1), BuildingBlock: AJUNOK_clean_linker_0, # of connection points: 2
#     Edge 118, Type (0, 1), BuildingBlock: AJUNOK_clean_linker_0, # of connection points: 2
#     Edge 119, Type (0, 1), BuildingBlock: AJUNOK_clean_linker_0, # of connection points: 2
#     Edge 120, Type (0, 1), BuildingBlock: AJUNOK_clean_linker_0, # of connection points: 2
#     Edge 121, Type (0, 1), BuildingBlock: AJUNOK_clean_linker_0, # of connection points: 2
#     Edge 122, Type (0, 1), BuildingBlock: AJUNOK_clean_linker_0, # of connection points: 2
#     Edge 123, Type (0, 1), BuildingBlock: AJUNOK_clean_linker_0, # of connection points: 2
#     Edge 124, Type (0, 1), BuildingBlock: AJUNOK_clean_linker_0, # of connection points: 2
#     Edge 125, Type (0, 1), BuildingBlock: AJUNOK_clean_linker_0, # of connection points: 2
#     Edge 126, Type (0, 1), BuildingBlock: AJUNOK_clean_linker_0, # of connection points: 2
#     Edge 127, Type (0, 1), BuildingBlock: AJUNOK_clean_linker_0, # of connection points: 2
#     Edge 128, Type (0, 1), BuildingBlock: AJUNOK_clean_linker_0, # of connection points: 2
#     Edge 129, Type (0, 1), BuildingBlock: AJUNOK_clean_linker_0, # of connection points: 2
#     Edge 130, Type (0, 1), BuildingBlock: AJUNOK_clean_linker_0, # of connection points: 2
#     Edge 131, Type (0, 1), BuildingBlock: AJUNOK_clean_linker_0, # of connection points: 2
#     Edge 132, Type (0, 1), BuildingBlock: AJUNOK_clean_linker_0, # of connection points: 2
#     Edge 133, Type (0, 1), BuildingBlock: AJUNOK_clean_linker_0, # of connection points: 2
#     Edge 134, Type (0, 1), BuildingBlock: AJUNOK_clean_linker_0, # of connection points: 2
#     Edge 135, Type (0, 1), BuildingBlock: AJUNOK_clean_linker_0, # of connection points: 2
#     Edge 136, Type (0, 1), BuildingBlock: AJUNOK_clean_linker_0, # of connection points: 2
#     Edge 137, Type (0, 1), BuildingBlock: AJUNOK_clean_linker_0, # of connection points: 2
#     Edge 138, Type (0, 1), BuildingBlock: AJUNOK_clean_linker_0, # of connection points: 2
#     Edge 139, Type (0, 1), BuildingBlock: AJUNOK_clean_linker_0, # of connection points: 2
#     Edge 140, Type (0, 1), BuildingBlock: AJUNOK_clean_linker_0, # of connection points: 2
#     Edge 141, Type (0, 1), BuildingBlock: AJUNOK_clean_linker_0, # of connection points: 2
#     Edge 142, Type (0, 1), BuildingBlock: AJUNOK_clean_linker_0, # of connection points: 2
#     Edge 143, Type (0, 1), BuildingBlock: AJUNOK_clean_linker_0, # of connection points: 2
#     Edge 144, Type (0, 1), BuildingBlock: AJUNOK_clean_linker_0, # of connection points: 2
#     Edge 145, Type (0, 1), BuildingBlock: AJUNOK_clean_linker_0, # of connection points: 2
#     Edge 146, Type (0, 1), BuildingBlock: AJUNOK_clean_linker_0, # of connection points: 2
#     Edge 147, Type (0, 1), BuildingBlock: AJUNOK_clean_linker_0, # of connection points: 2
#     Edge 148, Type (0, 1), BuildingBlock: AJUNOK_clean_linker_0, # of connection points: 2
#     Edge 149, Type (0, 1), BuildingBlock: AJUNOK_clean_linker_0, # of connection points: 2
#     Edge 150, Type (0, 1), BuildingBlock: AJUNOK_clean_linker_0, # of connection points: 2
#     Edge 151, Type (0, 1), BuildingBlock: AJUNOK_clean_linker_0, # of connection points: 2
# Relax obj value: 0.000
# Max RMSD: 0.011
# Mean RMSD: 0.006
data_MOF--net-tbo--node1-WUSLED_clean_sbu_0--node2-NAWXER_clean_linker_0--edge1-AJUNOK_clean_linker_0
_symmetry_space_group_name_H-M    P1
_symmetry_Int_Tables_number       1
_symmetry_cell_setting            triclinic
loop_
_symmetry_equiv_pos_as_xyz
'x, y, z'
_cell_length_a     88.185117
_cell_length_b     88.420953
_cell_length_c     88.26313
_cell_angle_alpha  89.710188
_cell_angle_beta   90.28223
_cell_angle_gamma 90.624448
loop_
_atom_site_label
_atom_site_type_symbol
_atom_site_fract_x
_atom_site_fract_y
_atom_site_fract_z
_atom_type_partial_charge
C0 C 0.19227 0.14937 0.21114 0.0
C1 C 0.20815 0.14874 0.20996 0.0
C2 C 0.20791 0.12299 0.22004 0.0
C3 C 0.2159 0.13568 0.21445 0.0
C4 C 0.19203 0.12365 0.22109 0.0
C5 C 0.18431 0.1367 0.21668 0.0
U6 U 0.18471 0.18491 0.18679 0.0
O7 O 0.16299 0.1943 0.17906 0.0
O8 O 0.17783 0.20764 0.19403 0.0
C9 C 0.16452 0.20656 0.18734 0.0
C10 C 0.18376 0.16315 0.20719 0.0
C11 C 0.15124 0.2112 0.19641 0.0
C12 C 0.1253 0.20737 0.20521 0.0
C13 C 0.13813 0.20206 0.19767 0.0
C14 C 0.13856 0.23081 0.21075 0.0
C15 C 0.12527 0.22192 0.21159 0.0
C16 C 0.15135 0.22555 0.20317 0.0
C17 C 0.21071 0.19442 0.15285 0.0
C18 C 0.20516 0.20887 0.12995 0.0
C19 C 0.23123 0.20475 0.13749 0.0
C20 C 0.22625 0.19657 0.15017 0.0
C21 C 0.22075 0.21095 0.12721 0.0
C22 C 0.20017 0.20074 0.1427 0.0
C23 C 0.20591 0.18505 0.16594 0.0
O24 O 0.19081 0.17615 0.20934 0.0
O25 O 0.17599 0.16269 0.19445 0.0
O26 O 0.19296 0.17764 0.16454 0.0
O27 O 0.20782 0.19112 0.17938 0.0
H28 H 0.21456 0.15835 0.20568 0.0
H29 H 0.22814 0.13547 0.21351 0.0
H30 H 0.18559 0.11417 0.2256 0.0
H31 H 0.17208 0.13697 0.21777 0.0
H32 H 0.11524 0.20025 0.20569 0.0
H33 H 0.13766 0.19094 0.1926 0.0
H34 H 0.13906 0.24191 0.21587 0.0
H35 H 0.16128 0.23282 0.20238 0.0
H36 H 0.19683 0.21354 0.12222 0.0
H37 H 0.2433 0.20592 0.13555 0.0
H38 H 0.23457 0.19172 0.15779 0.0
H39 H 0.1881 0.19928 0.14452 0.0
C40 C 0.82031 0.19345 0.15235 0.0
C41 C 0.83083 0.20082 0.14288 0.0
C42 C 0.81032 0.20977 0.12662 0.0
C43 C 0.82589 0.20884 0.13008 0.0
C44 C 0.79985 0.20252 0.13627 0.0
C45 C 0.8048 0.19445 0.14899 0.0
U46 U 0.84734 0.18518 0.18556 0.0
O47 O 0.84227 0.17719 0.20864 0.0
O48 O 0.85622 0.16337 0.19366 0.0
C49 C 0.84902 0.16417 0.20663 0.0
C50 C 0.8252 0.18441 0.16555 0.0
C51 C 0.84041 0.15047 0.2111 0.0
C52 C 0.81667 0.13654 0.21438 0.0
C53 C 0.82453 0.14963 0.20978 0.0
C54 C 0.84046 0.12493 0.22142 0.0
C55 C 0.82458 0.12404 0.22018 0.0
C56 C 0.84828 0.13802 0.21692 0.0
C57 C 0.88162 0.21143 0.19285 0.0
C58 C 0.89592 0.2138 0.2164 0.0
C59 C 0.90643 0.22368 0.19301 0.0
C60 C 0.89347 0.2188 0.18517 0.0
C61 C 0.9078 0.22129 0.20872 0.0
C62 C 0.88297 0.20885 0.20852 0.0
C63 C 0.8679 0.20686 0.18433 0.0
O64 O 0.8379 0.17692 0.16401 0.0
O65 O 0.824 0.19098 0.17881 0.0
O66 O 0.85493 0.20817 0.19146 0.0
O67 O 0.86889 0.19426 0.17658 0.0
H68 H 0.84288 0.20021 0.14525 0.0
H69 H 0.83427 0.21404 0.12273 0.0
H70 H 0.78779 0.20311 0.13397 0.0
H71 H 0.7965 0.18887 0.15617 0.0
H72 H 0.80444 0.13613 0.2133 0.0
H73 H 0.81821 0.15907 0.20524 0.0
H74 H 0.84681 0.11557 0.2261 0.0
H75 H 0.86052 0.13846 0.21808 0.0
H76 H 0.89649 0.21203 0.22853 0.0
H77 H 0.91542 0.22931 0.18676 0.0
H78 H 0.89266 0.22088 0.17308 0.0
H79 H 0.87395 0.20317 0.21469 0.0
C80 C 0.82147 0.83912 0.15131 0.0
C81 C 0.83226 0.83257 0.14176 0.0
C82 C 0.81211 0.82297 0.12523 0.0
C83 C 0.82762 0.82462 0.1288 0.0
C84 C 0.80138 0.82938 0.13496 0.0
C85 C 0.80603 0.83736 0.14785 0.0
U86 U 0.84745 0.84879 0.18537 0.0
O87 O 0.85495 0.87104 0.19373 0.0
O88 O 0.84107 0.85625 0.20827 0.0
C89 C 0.84739 0.86967 0.20648 0.0
C90 C 0.82593 0.84821 0.16464 0.0
C91 C 0.83817 0.88274 0.21102 0.0
C92 C 0.82377 0.90539 0.20503 0.0
C93 C 0.83171 0.89261 0.2003 0.0
C94 C 0.82832 0.89843 0.23121 0.0
C95 C 0.82203 0.90848 0.22056 0.0
C96 C 0.8363 0.88572 0.22648 0.0
C97 C 0.88271 0.8246 0.19388 0.0
C98 C 0.89624 0.82132 0.2178 0.0
C99 C 0.90842 0.81489 0.1942 0.0
C100 C 0.89543 0.8192 0.1862 0.0
C101 C 0.90899 0.81589 0.21009 0.0
C102 C 0.88324 0.82572 0.20976 0.0
C103 C 0.869 0.82849 0.18505 0.0
O104 O 0.82464 0.84147 0.17789 0.0
O105 O 0.8384 0.85641 0.16339 0.0
O106 O 0.86969 0.84117 0.17724 0.0
O107 O 0.85588 0.82632 0.19178 0.0
H108 H 0.84427 0.83379 0.1442 0.0
H109 H 0.83618 0.82005 0.12141 0.0
H110 H 0.78936 0.82823 0.1326 0.0
H111 H 0.79751 0.84229 0.15507 0.0
H112 H 0.81931 0.91303 0.19653 0.0
H113 H 0.83301 0.89058 0.18829 0.0
H114 H 0.8271 0.90042 0.24324 0.0
H115 H 0.84118 0.87828 0.23494 0.0
H116 H 0.89637 0.82222 0.23003 0.0
H117 H 0.91794 0.81048 0.18796 0.0
H118 H 0.89524 0.81815 0.17397 0.0
H119 H 0.87358 0.82988 0.21596 0.0
C120 C 0.14988 0.82251 0.19364 0.0
C121 C 0.14951 0.8237 0.20951 0.0
C122 C 0.12361 0.81374 0.2098 0.0
C123 C 0.1365 0.81926 0.21753 0.0
C124 C 0.12405 0.81261 0.19393 0.0
C125 C 0.13706 0.81695 0.18595 0.0
U126 U 0.18452 0.84803 0.18513 0.0
O127 O 0.20734 0.84205 0.17736 0.0
O128 O 0.19283 0.85628 0.16304 0.0
C129 C 0.20547 0.8486 0.16407 0.0
C130 C 0.16346 0.82678 0.1848 0.0
C131 C 0.20959 0.83973 0.15054 0.0
C132 C 0.21618 0.81604 0.13834 0.0
C133 C 0.21155 0.82398 0.15119 0.0
C134 C 0.21667 0.8394 0.12392 0.0
C135 C 0.21881 0.82367 0.12455 0.0
C136 C 0.21214 0.84733 0.13677 0.0
C137 C 0.19292 0.88262 0.21039 0.0
C138 C 0.21676 0.89652 0.21324 0.0
C139 C 0.19321 0.90795 0.22098 0.0
C140 C 0.18525 0.89494 0.21653 0.0
C141 C 0.20904 0.9089 0.21936 0.0
C142 C 0.20875 0.88351 0.2087 0.0
C143 C 0.18413 0.86898 0.20613 0.0
O144 O 0.16245 0.83939 0.17693 0.0
O145 O 0.17668 0.82519 0.19155 0.0
O146 O 0.19091 0.85591 0.20791 0.0
O147 O 0.17634 0.86993 0.19344 0.0
H148 H 0.15925 0.82802 0.21571 0.0
H149 H 0.13645 0.82025 0.22976 0.0
H150 H 0.1144 0.80815 0.18769 0.0
H151 H 0.13712 0.81587 0.17372 0.0
H152 H 0.21804 0.80399 0.13931 0.0
H153 H 0.20972 0.8178 0.16166 0.0
H154 H 0.21853 0.8456 0.11346 0.0
H155 H 0.21074 0.85947 0.13599 0.0
H156 H 0.22895 0.89696 0.21187 0.0
H157 H 0.187 0.91719 0.22592 0.0
H158 H 0.17306 0.89447 0.21799 0.0
H159 H 0.21493 0.87414 0.20394 0.0
C160 C 0.1514 0.82029 0.83992 0.0
C161 C 0.14176 0.83109 0.83338 0.0
C162 C 0.12501 0.81105 0.82408 0.0
C163 C 0.12864 0.82651 0.82556 0.0
C164 C 0.13488 0.80029 0.83031 0.0
C165 C 0.14792 0.80488 0.83821 0.0
U166 U 0.18564 0.84633 0.84787 0.0
O167 O 0.19457 0.85494 0.8695 0.0
O168 O 0.20873 0.84046 0.85538 0.0
C169 C 0.20726 0.84735 0.86844 0.0
C170 C 0.16493 0.82478 0.8488 0.0
C171 C 0.21176 0.83858 0.88196 0.0
C172 C 0.20556 0.82318 0.90405 0.0
C173 C 0.201 0.83096 0.89096 0.0
C174 C 0.23169 0.83022 0.89908 0.0
C175 C 0.22095 0.82285 0.90831 0.0
C176 C 0.22712 0.83805 0.88606 0.0
C177 C 0.1937 0.88028 0.82165 0.0
C178 C 0.20894 0.90255 0.82775 0.0
C179 C 0.20242 0.89717 0.80162 0.0
C180 C 0.19453 0.88416 0.80626 0.0
C181 C 0.20954 0.90661 0.81233 0.0
C182 C 0.20111 0.88947 0.83238 0.0
C183 C 0.18481 0.8668 0.82622 0.0
O184 O 0.17803 0.82325 0.84197 0.0
O185 O 0.16395 0.83744 0.85647 0.0
O186 O 0.17716 0.86789 0.83892 0.0
O187 O 0.19163 0.85375 0.82476 0.0
H188 H 0.14429 0.84306 0.8344 0.0
H189 H 0.12136 0.83503 0.82064 0.0
H190 H 0.13234 0.78832 0.82935 0.0
H191 H 0.15522 0.79637 0.84314 0.0
H192 H 0.19707 0.81738 0.91082 0.0
H193 H 0.18908 0.8311 0.88793 0.0
H194 H 0.24361 0.83016 0.9021 0.0
H195 H 0.2356 0.84383 0.87925 0.0
H196 H 0.21454 0.90949 0.83622 0.0
H197 H 0.20269 0.90004 0.78968 0.0
H198 H 0.18891 0.8772 0.79781 0.0
H199 H 0.20075 0.8866 0.84432 0.0
C200 C 0.14948 0.19308 0.82238 0.0
C201 C 0.14008 0.19981 0.83319 0.0
C202 C 0.12397 0.20995 0.81309 0.0
C203 C 0.12737 0.2081 0.82858 0.0
C204 C 0.13345 0.20321 0.80234 0.0
C205 C 0.14606 0.19488 0.80695 0.0
U206 U 0.1834 0.18359 0.84837 0.0
O207 O 0.19201 0.16145 0.85567 0.0
O208 O 0.20645 0.17659 0.84206 0.0
C209 C 0.20476 0.16307 0.84814 0.0
C210 C 0.16276 0.18398 0.82678 0.0
C211 C 0.20968 0.15012 0.83883 0.0
C212 C 0.20554 0.12498 0.82821 0.0
C213 C 0.20009 0.13763 0.8359 0.0
C214 C 0.23008 0.13724 0.8258 0.0
C215 C 0.2207 0.12453 0.82333 0.0
C216 C 0.22466 0.14984 0.83353 0.0
C217 C 0.19133 0.20823 0.88375 0.0
C218 C 0.21507 0.21281 0.89729 0.0
C219 C 0.1912 0.219 0.90905 0.0
C220 C 0.1834 0.2138 0.89623 0.0
C221 C 0.20714 0.21886 0.90962 0.0
C222 C 0.20724 0.20755 0.88445 0.0
C223 C 0.18271 0.20391 0.87 0.0
O224 O 0.17602 0.1908 0.82558 0.0
O225 O 0.16147 0.17576 0.83917 0.0
O226 O 0.17515 0.19103 0.87065 0.0
O227 O 0.1895 0.20616 0.85693 0.0
H228 H 0.14252 0.19861 0.84517 0.0
H229 H 0.12027 0.21317 0.8371 0.0
H230 H 0.13096 0.20419 0.79035 0.0
H231 H 0.15312 0.18974 0.79842 0.0
H232 H 0.19803 0.11538 0.82645 0.0
H233 H 0.18846 0.13749 0.83981 0.0
H234 H 0.24169 0.13741 0.82184 0.0
H235 H 0.23229 0.1593 0.8356 0.0
H236 H 0.22735 0.2125 0.89743 0.0
H237 H 0.18473 0.22321 0.91851 0.0
H238 H 0.17113 0.21433 0.89598 0.0
H239 H 0.21362 0.20322 0.87499 0.0
C240 C 0.82167 0.15026 0.84225 0.0
C241 C 0.81805 0.15084 0.82671 0.0
C242 C 0.81124 0.12402 0.82697 0.0
C243 C 0.8129 0.13784 0.81916 0.0
C244 C 0.81533 0.12339 0.84238 0.0
C245 C 0.82039 0.13637 0.84994 0.0
U246 U 0.84682 0.18551 0.84994 0.0
O247 O 0.84035 0.20818 0.8575 0.0
O248 O 0.85522 0.19431 0.87179 0.0
C249 C 0.84726 0.20675 0.87066 0.0
C250 C 0.82607 0.16397 0.85088 0.0
C251 C 0.83846 0.21092 0.88419 0.0
C252 C 0.81455 0.21378 0.89752 0.0
C253 C 0.82262 0.20908 0.88476 0.0
C254 C 0.83806 0.22183 0.90942 0.0
C255 C 0.82219 0.22032 0.90993 0.0
C256 C 0.8461 0.21723 0.89666 0.0
C257 C 0.88042 0.19485 0.82356 0.0
C258 C 0.90288 0.2101 0.82924 0.0
C259 C 0.89662 0.20406 0.80321 0.0
C260 C 0.88379 0.19601 0.80809 0.0
C261 C 0.90637 0.21114 0.81372 0.0
C262 C 0.88999 0.20208 0.83412 0.0
C263 C 0.86722 0.18562 0.82833 0.0
O264 O 0.83894 0.1633 0.85841 0.0
O265 O 0.82393 0.17713 0.84422 0.0
O266 O 0.85389 0.19198 0.82684 0.0
O267 O 0.86872 0.178 0.84108 0.0
H268 H 0.81895 0.16137 0.82043 0.0
H269 H 0.80987 0.13868 0.80728 0.0
H270 H 0.81458 0.11284 0.84863 0.0
H271 H 0.82315 0.1356 0.86189 0.0
H272 H 0.80235 0.21224 0.89771 0.0
H273 H 0.81648 0.20411 0.87533 0.0
H274 H 0.84424 0.22686 0.9188 0.0
H275 H 0.85831 0.21874 0.89646 0.0
H276 H 0.9103 0.21519 0.83765 0.0
H277 H 0.89893 0.20473 0.79118 0.0
H278 H 0.87656 0.19053 0.79976 0.0
H279 H 0.88762 0.20134 0.84614 0.0
C280 C 0.84038 0.88372 0.82338 0.0
C281 C 0.82461 0.88431 0.8255 0.0
C282 C 0.82395 0.9094 0.81386 0.0
C283 C 0.81646 0.89703 0.82075 0.0
C284 C 0.83976 0.90885 0.81205 0.0
C285 C 0.84787 0.89613 0.81672 0.0
U286 U 0.84902 0.84917 0.84878 0.0
O287 O 0.8566 0.82646 0.84241 0.0
O288 O 0.87116 0.8408 0.85672 0.0
C289 C 0.86988 0.82813 0.84909 0.0
C290 C 0.84927 0.87026 0.82767 0.0
C291 C 0.8833 0.82369 0.84027 0.0
C292 C 0.89691 0.8212 0.81647 0.0
C293 C 0.88424 0.82615 0.82455 0.0
C294 C 0.90795 0.81162 0.83973 0.0
C295 C 0.90885 0.81377 0.82397 0.0
C296 C 0.89529 0.81649 0.84777 0.0
C297 C 0.82368 0.8405 0.8836 0.0
C298 C 0.81476 0.81729 0.89585 0.0
C299 C 0.81686 0.8404 0.91031 0.0
C300 C 0.82214 0.84807 0.89744 0.0
C301 C 0.81281 0.825 0.9096 0.0
C302 C 0.82011 0.82496 0.88296 0.0
C303 C 0.82814 0.8493 0.86994 0.0
O304 O 0.85713 0.87131 0.84032 0.0
O305 O 0.8425 0.85704 0.82601 0.0
O306 O 0.82622 0.84275 0.85671 0.0
O307 O 0.84089 0.85708 0.87092 0.0
H308 H 0.81859 0.87492 0.83073 0.0
H309 H 0.80432 0.89724 0.82253 0.0
H310 H 0.84583 0.91817 0.80676 0.0
H311 H 0.86002 0.89591 0.815 0.0
H312 H 0.8974 0.82327 0.80438 0.0
H313 H 0.87517 0.83179 0.81853 0.0
H314 H 0.91693 0.80589 0.84582 0.0
H315 H 0.8948 0.81449 0.85989 0.0
H316 H 0.81177 0.80542 0.89495 0.0
H317 H 0.81588 0.84657 0.92082 0.0
H318 H 0.82483 0.86003 0.89826 0.0
H319 H 0.82119 0.81878 0.87247 0.0
C320 C 0.19272 0.6504 0.71204 0.0
C321 C 0.19622 0.6388 0.70183 0.0
C322 C 0.2091 0.62474 0.7219 0.0
C323 C 0.20426 0.62608 0.70673 0.0
C324 C 0.20574 0.63647 0.73202 0.0
C325 C 0.19763 0.64913 0.72714 0.0
U326 U 0.18308 0.68396 0.68572 0.0
O327 O 0.16081 0.69181 0.67762 0.0
O328 O 0.17524 0.70676 0.69144 0.0
C329 C 0.16199 0.70476 0.68481 0.0
C330 C 0.18344 0.66355 0.70747 0.0
C331 C 0.14851 0.70949 0.69336 0.0
C332 C 0.13483 0.7132 0.71696 0.0
C333 C 0.14749 0.70777 0.70917 0.0
C334 C 0.12394 0.72173 0.69322 0.0
C335 C 0.12304 0.72047 0.70908 0.0
C336 C 0.13656 0.71634 0.68547 0.0
C337 C 0.20832 0.69198 0.65068 0.0
C338 C 0.2168 0.71504 0.63787 0.0
C339 C 0.21569 0.69144 0.62413 0.0
C340 C 0.21036 0.68403 0.63713 0.0
C341 C 0.21928 0.70698 0.62442 0.0
C342 C 0.2114 0.70763 0.65088 0.0
C343 C 0.20393 0.68349 0.66454 0.0
O344 O 0.18998 0.67692 0.70874 0.0
O345 O 0.1753 0.66213 0.69502 0.0
O346 O 0.19127 0.67554 0.66377 0.0
O347 O 0.20578 0.69042 0.67758 0.0
H348 H 0.19255 0.63941 0.69012 0.0
H349 H 0.20635 0.61711 0.69872 0.0
H350 H 0.20935 0.63583 0.74375 0.0
H351 H 0.19504 0.6579 0.73523 0.0
H352 H 0.13442 0.71201 0.72917 0.0
H353 H 0.15655 0.70243 0.7155 0.0
H354 H 0.11488 0.72691 0.68677 0.0
H355 H 0.13706 0.71768 0.67327 0.0
H356 H 0.21942 0.72703 0.63844 0.0
H357 H 0.21708 0.68498 0.61385 0.0
H358 H 0.20805 0.67198 0.63665 0.0
H359 H 0.20992 0.7141 0.66114 0.0
C360 C 0.82033 0.69199 0.65174 0.0
C361 C 0.82298 0.70765 0.65058 0.0
C362 C 0.81036 0.70816 0.62594 0.0
C363 C 0.81799 0.71568 0.6378 0.0
C364 C 0.80797 0.69246 0.62707 0.0
C365 C 0.81287 0.68447 0.63986 0.0
U366 U 0.84695 0.68456 0.68551 0.0
O367 O 0.84166 0.67702 0.70868 0.0
O368 O 0.85571 0.66288 0.69412 0.0
C369 C 0.84837 0.66393 0.70698 0.0
C370 C 0.82512 0.68326 0.66518 0.0
C371 C 0.83957 0.65038 0.71157 0.0
C372 C 0.81564 0.63677 0.71474 0.0
C373 C 0.82373 0.6496 0.70985 0.0
C374 C 0.83913 0.62518 0.72275 0.0
C375 C 0.82326 0.62447 0.72134 0.0
C376 C 0.8472 0.63804 0.71796 0.0
C377 C 0.88106 0.71131 0.69248 0.0
C378 C 0.89539 0.71446 0.71592 0.0
C379 C 0.9055 0.72429 0.69234 0.0
C380 C 0.89269 0.71886 0.68463 0.0
C381 C 0.90689 0.72238 0.70811 0.0
C382 C 0.88257 0.70897 0.70817 0.0
C383 C 0.86743 0.70632 0.68405 0.0
O384 O 0.83793 0.67592 0.66386 0.0
O385 O 0.82371 0.68999 0.67834 0.0
O386 O 0.8544 0.70769 0.69106 0.0
O387 O 0.86859 0.69353 0.67665 0.0
H388 H 0.82886 0.71367 0.65956 0.0
H389 H 0.82021 0.72774 0.63711 0.0
H390 H 0.8021 0.68638 0.61812 0.0
H391 H 0.81075 0.67239 0.64052 0.0
H392 H 0.80344 0.63641 0.71327 0.0
H393 H 0.81761 0.65893 0.7048 0.0
H394 H 0.84529 0.61588 0.7278 0.0
H395 H 0.85941 0.63839 0.71935 0.0
H396 H 0.89618 0.71277 0.72806 0.0
H397 H 0.91434 0.72997 0.68593 0.0
H398 H 0.8918 0.72066 0.6725 0.0
H399 H 0.87377 0.70307 0.71444 0.0
C400 C 0.82087 0.33817 0.6522 0.0
C401 C 0.83186 0.33191 0.64267 0.0
C402 C 0.81201 0.32203 0.62597 0.0
C403 C 0.82746 0.32393 0.62965 0.0
C404 C 0.80107 0.32797 0.63575 0.0
C405 C 0.80547 0.336 0.6487 0.0
U406 U 0.84631 0.34765 0.6866 0.0
O407 O 0.85416 0.36977 0.69502 0.0
O408 O 0.83978 0.35529 0.70939 0.0
C409 C 0.84647 0.36854 0.70771 0.0
C410 C 0.82512 0.34735 0.66555 0.0
C411 C 0.83764 0.38185 0.71234 0.0
C412 C 0.82407 0.40507 0.70663 0.0
C413 C 0.83147 0.39202 0.70174 0.0
C414 C 0.82849 0.39771 0.73272 0.0
C415 C 0.82274 0.40819 0.72219 0.0
C416 C 0.8359 0.38473 0.72784 0.0
C417 C 0.88074 0.32259 0.6959 0.0
C418 C 0.90342 0.32919 0.7104 0.0
C419 C 0.89715 0.30288 0.70579 0.0
C420 C 0.88418 0.30724 0.69777 0.0
C421 C 0.90703 0.31379 0.71203 0.0
C422 C 0.89037 0.33356 0.70243 0.0
C423 C 0.86733 0.32679 0.68675 0.0
O424 O 0.82347 0.34073 0.67882 0.0
O425 O 0.83771 0.35539 0.66449 0.0
O426 O 0.86839 0.33941 0.67886 0.0
O427 O 0.85411 0.32497 0.69334 0.0
H428 H 0.84382 0.3333 0.6452 0.0
H429 H 0.83613 0.31925 0.62247 0.0
H430 H 0.7891 0.3267 0.63319 0.0
H431 H 0.79681 0.34071 0.65589 0.0
H432 H 0.8197 0.41291 0.69825 0.0
H433 H 0.83259 0.39001 0.6897 0.0
H434 H 0.8273 0.39957 0.74477 0.0
H435 H 0.84048 0.377 0.73621 0.0
H436 H 0.91067 0.33784 0.71532 0.0
H437 H 0.89964 0.29095 0.70683 0.0
H438 H 0.8769 0.2986 0.69284 0.0
H439 H 0.88789 0.34548 0.70126 0.0
C440 C 0.15093 0.322 0.69536 0.0
C441 C 0.14136 0.3327 0.70198 0.0
C442 C 0.12542 0.31248 0.71232 0.0
C443 C 0.12866 0.32797 0.71031 0.0
C444 C 0.13512 0.30183 0.7058 0.0
C445 C 0.14774 0.30655 0.69741 0.0
U446 U 0.18462 0.34826 0.68557 0.0
O447 O 0.20737 0.34264 0.67739 0.0
O448 O 0.19232 0.35647 0.66324 0.0
C449 C 0.20514 0.34906 0.6641 0.0
C450 C 0.16401 0.32658 0.68594 0.0
C451 C 0.20922 0.34017 0.65058 0.0
C452 C 0.21539 0.31639 0.63835 0.0
C453 C 0.21073 0.32436 0.65116 0.0
C454 C 0.21677 0.33982 0.6241 0.0
C455 C 0.21849 0.32404 0.62466 0.0
C456 C 0.2122 0.34779 0.63692 0.0
C457 C 0.19342 0.38275 0.71084 0.0
C458 C 0.21736 0.39652 0.71332 0.0
C459 C 0.19416 0.40766 0.72238 0.0
C460 C 0.18599 0.39486 0.71769 0.0
C461 C 0.20995 0.40856 0.72042 0.0
C462 C 0.20916 0.38372 0.70854 0.0
C463 C 0.18453 0.36914 0.70665 0.0
O464 O 0.16255 0.33915 0.67807 0.0
O465 O 0.17744 0.32523 0.6923 0.0
O466 O 0.19138 0.3561 0.70824 0.0
O467 O 0.1765 0.37012 0.69411 0.0
H468 H 0.14362 0.34469 0.7006 0.0
H469 H 0.12138 0.33641 0.71522 0.0
H470 H 0.13276 0.28983 0.70692 0.0
H471 H 0.15492 0.29812 0.69235 0.0
H472 H 0.21691 0.30428 0.63927 0.0
H473 H 0.20854 0.31817 0.66156 0.0
H474 H 0.21899 0.34604 0.61372 0.0
H475 H 0.21114 0.35997 0.6362 0.0
H476 H 0.22948 0.39702 0.71143 0.0
H477 H 0.18815 0.41674 0.72784 0.0
H478 H 0.17386 0.39434 0.71956 0.0
H479 H 0.21512 0.37455 0.70317 0.0
C480 C 0.15243 0.32002 0.34043 0.0
C481 C 0.13974 0.32938 0.33861 0.0
C482 C 0.12619 0.30937 0.32508 0.0
C483 C 0.12677 0.3241 0.331 0.0
C484 C 0.13905 0.3002 0.32654 0.0
C485 C 0.15197 0.30543 0.33422 0.0
U486 U 0.18665 0.34642 0.34831 0.0
O487 O 0.19575 0.35491 0.36993 0.0
O488 O 0.20981 0.34057 0.35557 0.0
C489 C 0.20844 0.34735 0.3687 0.0
C490 C 0.16595 0.32486 0.34927 0.0
C491 C 0.21312 0.33846 0.38209 0.0
C492 C 0.20726 0.32319 0.40437 0.0
C493 C 0.20246 0.33122 0.39152 0.0
C494 C 0.2334 0.32929 0.39835 0.0
C495 C 0.22279 0.32211 0.40789 0.0
C496 C 0.2286 0.33739 0.38558 0.0
C497 C 0.19478 0.38014 0.32178 0.0
C498 C 0.21011 0.40251 0.32738 0.0
C499 C 0.20421 0.39614 0.30134 0.0
C500 C 0.19601 0.38343 0.30628 0.0
C501 C 0.21134 0.40581 0.31183 0.0
C502 C 0.20197 0.38972 0.33233 0.0
C503 C 0.18579 0.36681 0.32659 0.0
O504 O 0.17911 0.3233 0.34256 0.0
O505 O 0.16494 0.33754 0.35692 0.0
O506 O 0.1783 0.36805 0.33937 0.0
O507 O 0.19244 0.35368 0.32511 0.0
H508 H 0.13972 0.3407 0.34324 0.0
H509 H 0.11705 0.33143 0.33003 0.0
H510 H 0.13912 0.28894 0.32177 0.0
H511 H 0.16159 0.298 0.33543 0.0
H512 H 0.19886 0.31774 0.41152 0.0
H513 H 0.19045 0.33183 0.389 0.0
H514 H 0.24541 0.32888 0.40093 0.0
H515 H 0.23699 0.34293 0.37848 0.0
H516 H 0.21551 0.40977 0.3357 0.0
H517 H 0.20474 0.39855 0.28931 0.0
H518 H 0.19051 0.37622 0.29797 0.0
H519 H 0.20124 0.38736 0.34436 0.0
C520 C 0.14837 0.69166 0.3242 0.0
C521 C 0.14903 0.70717 0.32053 0.0
C522 C 0.12206 0.70694 0.31417 0.0
C523 C 0.13599 0.71472 0.31559 0.0
C524 C 0.12134 0.69158 0.31836 0.0
C525 C 0.13436 0.68403 0.32322 0.0
U526 U 0.18421 0.68325 0.34826 0.0
O527 O 0.19326 0.66133 0.35568 0.0
O528 O 0.20679 0.67601 0.34071 0.0
C529 C 0.20551 0.6627 0.34731 0.0
C530 C 0.16216 0.68297 0.3281 0.0
C531 C 0.20976 0.64948 0.33805 0.0
C532 C 0.20424 0.62473 0.32712 0.0
C533 C 0.19951 0.63754 0.33505 0.0
C534 C 0.22939 0.63571 0.32478 0.0
C535 C 0.21926 0.62364 0.32194 0.0
C536 C 0.22469 0.64845 0.33274 0.0
C537 C 0.19447 0.70863 0.38241 0.0
C538 C 0.20959 0.70241 0.40471 0.0
C539 C 0.20425 0.72858 0.39877 0.0
C540 C 0.19608 0.72402 0.38592 0.0
C541 C 0.2109 0.71783 0.40844 0.0
C542 C 0.20146 0.69784 0.39179 0.0
C543 C 0.18494 0.70419 0.36931 0.0
O544 O 0.17534 0.68969 0.32583 0.0
O545 O 0.1617 0.67507 0.34075 0.0
O546 O 0.17727 0.69142 0.37063 0.0
O547 O 0.19102 0.70609 0.35585 0.0
H548 H 0.15964 0.71341 0.32118 0.0
H549 H 0.1369 0.72656 0.31248 0.0
H550 H 0.11071 0.68536 0.31777 0.0
H551 H 0.13352 0.67209 0.32599 0.0
H552 H 0.19624 0.61552 0.32542 0.0
H553 H 0.18794 0.63796 0.33905 0.0
H554 H 0.241 0.63526 0.32088 0.0
H555 H 0.23281 0.65747 0.33495 0.0
H556 H 0.21483 0.69388 0.41179 0.0
H557 H 0.20505 0.74053 0.40136 0.0
H558 H 0.19078 0.73253 0.37884 0.0
H559 H 0.20049 0.6859 0.38925 0.0
C560 C 0.82206 0.6496 0.34186 0.0
C561 C 0.81948 0.6503 0.32613 0.0
C562 C 0.81273 0.62347 0.32572 0.0
C563 C 0.8148 0.63739 0.31816 0.0
C564 C 0.81548 0.62278 0.34141 0.0
C565 C 0.82007 0.6357 0.34938 0.0
U566 U 0.84716 0.68451 0.35051 0.0
O567 O 0.84055 0.70746 0.35736 0.0
O568 O 0.85476 0.69366 0.3724 0.0
C569 C 0.84711 0.70625 0.37071 0.0
C570 C 0.82612 0.66324 0.35076 0.0
C571 C 0.83812 0.71115 0.38383 0.0
C572 C 0.82322 0.70581 0.40643 0.0
C573 C 0.83082 0.70075 0.39351 0.0
C574 C 0.82973 0.73169 0.39986 0.0
C575 C 0.82284 0.72132 0.40988 0.0
C576 C 0.83734 0.72664 0.38701 0.0
C577 C 0.88211 0.69313 0.32561 0.0
C578 C 0.89426 0.71689 0.31817 0.0
C579 C 0.90878 0.69382 0.31863 0.0
C580 C 0.89592 0.68575 0.32342 0.0
C581 C 0.9081 0.70947 0.31586 0.0
C582 C 0.88141 0.70882 0.32306 0.0
C583 C 0.86855 0.68407 0.3299 0.0
O584 O 0.83863 0.66248 0.35888 0.0
O585 O 0.8244 0.67641 0.344 0.0
O586 O 0.85525 0.69031 0.32765 0.0
O587 O 0.86946 0.67664 0.3428 0.0
H588 H 0.82085 0.66086 0.31998 0.0
H589 H 0.81244 0.63841 0.30615 0.0
H590 H 0.81404 0.61223 0.34756 0.0
H591 H 0.82191 0.63487 0.3615 0.0
H592 H 0.81796 0.69757 0.41392 0.0
H593 H 0.8312 0.68874 0.39123 0.0
H594 H 0.8293 0.74373 0.40199 0.0
H595 H 0.8428 0.73486 0.37963 0.0
H596 H 0.89325 0.72887 0.31584 0.0
H597 H 0.91927 0.68778 0.31703 0.0
H598 H 0.89674 0.67366 0.32527 0.0
H599 H 0.8709 0.71483 0.3246 0.0
C600 C 0.83795 0.38157 0.32166 0.0
C601 C 0.83206 0.39166 0.33233 0.0
C602 C 0.82123 0.40703 0.31205 0.0
C603 C 0.82385 0.40433 0.32755 0.0
C604 C 0.82699 0.39681 0.30143 0.0
C605 C 0.83527 0.38423 0.3062 0.0
U606 U 0.84775 0.34767 0.3475 0.0
O607 O 0.85625 0.32524 0.3414 0.0
O608 O 0.87009 0.34017 0.3558 0.0
C609 C 0.86936 0.32741 0.34824 0.0
C610 C 0.8474 0.36858 0.32622 0.0
C611 C 0.88302 0.32338 0.3396 0.0
C612 C 0.89685 0.32106 0.31592 0.0
C613 C 0.88403 0.32579 0.32388 0.0
C614 C 0.90792 0.31183 0.33931 0.0
C615 C 0.90887 0.31388 0.32354 0.0
C616 C 0.89512 0.31649 0.34723 0.0
C617 C 0.822 0.33759 0.3815 0.0
C618 C 0.82744 0.32671 0.40635 0.0
C619 C 0.80229 0.32413 0.39551 0.0
C620 C 0.80704 0.33216 0.38265 0.0
C621 C 0.81239 0.32138 0.40756 0.0
C622 C 0.83222 0.33468 0.39342 0.0
C623 C 0.82635 0.34684 0.36813 0.0
O624 O 0.85509 0.36996 0.33895 0.0
O625 O 0.84121 0.3551 0.3245 0.0
O626 O 0.82501 0.3402 0.35489 0.0
O627 O 0.8387 0.35523 0.36934 0.0
H628 H 0.83393 0.38987 0.34434 0.0
H629 H 0.81952 0.41201 0.33598 0.0
H630 H 0.82541 0.39874 0.2894 0.0
H631 H 0.83978 0.37665 0.29776 0.0
H632 H 0.89738 0.32304 0.30381 0.0
H633 H 0.87488 0.33119 0.31776 0.0
H634 H 0.91697 0.3063 0.34548 0.0
H635 H 0.89456 0.31452 0.35935 0.0
H636 H 0.83543 0.32507 0.41555 0.0
H637 H 0.79065 0.32013 0.39606 0.0
H638 H 0.79893 0.33429 0.37365 0.0
H639 H 0.84383 0.33877 0.39291 0.0
C640 C 0.69328 0.15084 0.71212 0.0
C641 C 0.69989 0.1415 0.70119 0.0
C642 C 0.70919 0.12464 0.72106 0.0
C643 C 0.70776 0.1285 0.70563 0.0
C644 C 0.70285 0.13422 0.73194 0.0
C645 C 0.69494 0.14715 0.7275 0.0
U646 U 0.68449 0.18547 0.68689 0.0
O647 O 0.6625 0.19407 0.67902 0.0
O648 O 0.67697 0.20815 0.69368 0.0
C649 C 0.66372 0.20658 0.68695 0.0
C650 C 0.68428 0.16422 0.70784 0.0
C651 C 0.65036 0.21088 0.69594 0.0
C652 C 0.6275 0.2045 0.7101 0.0
C653 C 0.6405 0.2 0.70229 0.0
C654 C 0.63427 0.23076 0.70567 0.0
C655 C 0.62417 0.21994 0.71173 0.0
C656 C 0.64719 0.22627 0.69782 0.0
C657 C 0.71031 0.19508 0.65283 0.0
C658 C 0.70454 0.20871 0.62947 0.0
C659 C 0.73063 0.20608 0.63764 0.0
C660 C 0.72579 0.19796 0.6504 0.0
C661 C 0.72007 0.21152 0.627 0.0
C662 C 0.69969 0.20063 0.64231 0.0
C663 C 0.70572 0.18582 0.66607 0.0
O664 O 0.691 0.17742 0.70968 0.0
O665 O 0.67646 0.1633 0.69515 0.0
O666 O 0.69299 0.17802 0.66479 0.0
O667 O 0.70743 0.1922 0.67939 0.0
H668 H 0.69889 0.14419 0.68924 0.0
H669 H 0.71276 0.12148 0.697 0.0
H670 H 0.70375 0.13152 0.7439 0.0
H671 H 0.68995 0.15419 0.73612 0.0
H672 H 0.62006 0.19592 0.71488 0.0
H673 H 0.64276 0.18805 0.70111 0.0
H674 H 0.63199 0.24272 0.70671 0.0
H675 H 0.65464 0.23484 0.69302 0.0
H676 H 0.69616 0.21277 0.62146 0.0
H677 H 0.74268 0.2078 0.63591 0.0
H678 H 0.73419 0.1937 0.6583 0.0
H679 H 0.68766 0.19861 0.64392 0.0
C680 C 0.31915 0.19246 0.65312 0.0
C681 C 0.32952 0.19951 0.64325 0.0
C682 C 0.30877 0.20754 0.62681 0.0
C683 C 0.32437 0.20698 0.6302 0.0
C684 C 0.29844 0.20083 0.63698 0.0
C685 C 0.3036 0.19331 0.64996 0.0
U686 U 0.34653 0.18516 0.68639 0.0
O687 O 0.34131 0.17813 0.70982 0.0
O688 O 0.35517 0.16368 0.69537 0.0
C689 C 0.34801 0.16502 0.70832 0.0
C690 C 0.32421 0.18393 0.6666 0.0
C691 C 0.33929 0.15163 0.71346 0.0
C692 C 0.32415 0.12903 0.70835 0.0
C693 C 0.33162 0.14213 0.70319 0.0
C694 C 0.3315 0.13505 0.73411 0.0
C695 C 0.32422 0.12522 0.72385 0.0
C696 C 0.33902 0.14808 0.72895 0.0
C697 C 0.38127 0.21094 0.69275 0.0
C698 C 0.39552 0.21394 0.71626 0.0
C699 C 0.40674 0.22175 0.69243 0.0
C700 C 0.39356 0.21717 0.68477 0.0
C701 C 0.40786 0.22018 0.70825 0.0
C702 C 0.38236 0.20927 0.70856 0.0
C703 C 0.36743 0.20645 0.68435 0.0
O704 O 0.33683 0.17628 0.6652 0.0
O705 O 0.32324 0.19104 0.6796 0.0
O706 O 0.35449 0.20825 0.69143 0.0
O707 O 0.36815 0.1936 0.67699 0.0
H708 H 0.34159 0.19909 0.64553 0.0
H709 H 0.33259 0.21208 0.6226 0.0
H710 H 0.28634 0.20141 0.63492 0.0
H711 H 0.29541 0.18807 0.65751 0.0
H712 H 0.31859 0.12171 0.70018 0.0
H713 H 0.33159 0.14471 0.69118 0.0
H714 H 0.33141 0.13266 0.74616 0.0
H715 H 0.34476 0.15533 0.73706 0.0
H716 H 0.39611 0.21259 0.72845 0.0
H717 H 0.41597 0.22674 0.68601 0.0
H718 H 0.39293 0.2186 0.67258 0.0
H719 H 0.37304 0.20441 0.71497 0.0
C720 C 0.32186 0.83928 0.65144 0.0
C721 C 0.33267 0.83311 0.64166 0.0
C722 C 0.31251 0.82311 0.62536 0.0
C723 C 0.32803 0.82514 0.62871 0.0
C724 C 0.30177 0.82915 0.63531 0.0
C725 C 0.30641 0.83714 0.6482 0.0
U726 U 0.34779 0.84926 0.6855 0.0
O727 O 0.3548 0.87163 0.69398 0.0
O728 O 0.34126 0.85646 0.70844 0.0
C729 C 0.34725 0.87003 0.70671 0.0
C730 C 0.32626 0.84837 0.66479 0.0
C731 C 0.33768 0.88285 0.71128 0.0
C732 C 0.3227 0.90513 0.70536 0.0
C733 C 0.33107 0.89264 0.70058 0.0
C734 C 0.32716 0.89803 0.73152 0.0
C735 C 0.32065 0.90796 0.72088 0.0
C736 C 0.33557 0.88563 0.72675 0.0
C737 C 0.38348 0.82556 0.69398 0.0
C738 C 0.39665 0.82121 0.71793 0.0
C739 C 0.4095 0.81665 0.69424 0.0
C740 C 0.39653 0.82107 0.68625 0.0
C741 C 0.40971 0.81663 0.71017 0.0
C742 C 0.38367 0.82572 0.70991 0.0
C743 C 0.36972 0.82935 0.68514 0.0
O744 O 0.32511 0.84157 0.67801 0.0
O745 O 0.33861 0.85676 0.66354 0.0
O746 O 0.37023 0.8421 0.67743 0.0
O747 O 0.3566 0.82691 0.69178 0.0
H748 H 0.34467 0.83462 0.64392 0.0
H749 H 0.33659 0.82087 0.62114 0.0
H750 H 0.28975 0.8277 0.63313 0.0
H751 H 0.29788 0.84179 0.65559 0.0
H752 H 0.3178 0.91258 0.69691 0.0
H753 H 0.33249 0.89073 0.68856 0.0
H754 H 0.32603 0.90006 0.74355 0.0
H755 H 0.34064 0.87829 0.73519 0.0
H756 H 0.39649 0.82132 0.7302 0.0
H757 H 0.41927 0.81291 0.68794 0.0
H758 H 0.39661 0.82075 0.67398 0.0
H759 H 0.37376 0.82916 0.71617 0.0
C760 C 0.65132 0.82053 0.69598 0.0
C761 C 0.64244 0.83128 0.70342 0.0
C762 C 0.62578 0.81126 0.71302 0.0
C763 C 0.62972 0.82668 0.7118 0.0
C764 C 0.63478 0.80056 0.70563 0.0
C765 C 0.64741 0.80516 0.69721 0.0
U766 U 0.68544 0.84634 0.68645 0.0
O767 O 0.70807 0.84033 0.67823 0.0
O768 O 0.69334 0.85462 0.66421 0.0
C769 C 0.70608 0.84708 0.66507 0.0
C770 C 0.66445 0.82501 0.6866 0.0
C771 C 0.71017 0.83832 0.65152 0.0
C772 C 0.71242 0.81455 0.63794 0.0
C773 C 0.70776 0.82261 0.65072 0.0
C774 C 0.72158 0.83785 0.62651 0.0
C775 C 0.7195 0.82208 0.62575 0.0
C776 C 0.717 0.84586 0.63928 0.0
C777 C 0.69522 0.88035 0.7121 0.0
C778 C 0.70604 0.90526 0.70666 0.0
C779 C 0.70886 0.89431 0.73168 0.0
C780 C 0.70079 0.88145 0.72698 0.0
C781 C 0.71152 0.90642 0.72162 0.0
C782 C 0.69803 0.89234 0.70192 0.0
C783 C 0.68596 0.86696 0.70779 0.0
O784 O 0.66319 0.83772 0.67891 0.0
O785 O 0.67786 0.82336 0.69292 0.0
O786 O 0.69256 0.85377 0.70923 0.0
O787 O 0.67771 0.86809 0.69538 0.0
H788 H 0.64526 0.84321 0.70268 0.0
H789 H 0.62299 0.83515 0.71739 0.0
H790 H 0.63187 0.78864 0.70613 0.0
H791 H 0.65407 0.7967 0.6915 0.0
H792 H 0.71043 0.80245 0.63756 0.0
H793 H 0.7024 0.81656 0.65999 0.0
H794 H 0.72702 0.84395 0.61732 0.0
H795 H 0.71895 0.85798 0.63967 0.0
H796 H 0.70759 0.91451 0.69871 0.0
H797 H 0.71297 0.89482 0.74326 0.0
H798 H 0.69873 0.87239 0.73505 0.0
H799 H 0.69384 0.89187 0.69038 0.0
C800 C 0.6505 0.82157 0.34298 0.0
C801 C 0.64907 0.8241 0.32731 0.0
C802 C 0.62481 0.81058 0.32707 0.0
C803 C 0.63632 0.81864 0.31942 0.0
C804 C 0.62613 0.80847 0.34283 0.0
C805 C 0.63888 0.81386 0.35067 0.0
U806 U 0.68426 0.84859 0.35007 0.0
O807 O 0.69309 0.85741 0.37173 0.0
O808 O 0.70754 0.84349 0.35735 0.0
C809 C 0.70597 0.85019 0.37051 0.0
C810 C 0.66402 0.82662 0.35153 0.0
C811 C 0.7107 0.84148 0.38398 0.0
C812 C 0.71341 0.81772 0.39773 0.0
C813 C 0.70849 0.82574 0.38492 0.0
C814 C 0.72252 0.84109 0.40891 0.0
C815 C 0.72046 0.82532 0.40989 0.0
C816 C 0.71769 0.84907 0.39609 0.0
C817 C 0.69112 0.88282 0.32365 0.0
C818 C 0.71424 0.89559 0.31526 0.0
C819 C 0.69065 0.9093 0.31602 0.0
C820 C 0.68318 0.89632 0.32137 0.0
C821 C 0.70621 0.90902 0.31263 0.0
C822 C 0.70678 0.88261 0.32071 0.0
C823 C 0.68267 0.86908 0.3285 0.0
O824 O 0.67711 0.82534 0.34461 0.0
O825 O 0.66269 0.83941 0.3589 0.0
O826 O 0.67525 0.8701 0.34133 0.0
O827 O 0.68952 0.85605 0.32687 0.0
H828 H 0.65787 0.83014 0.32116 0.0
H829 H 0.63559 0.82049 0.3073 0.0
H830 H 0.61728 0.80268 0.34912 0.0
H831 H 0.6397 0.81192 0.36278 0.0
H832 H 0.71192 0.80555 0.398 0.0
H833 H 0.7031 0.81964 0.37571 0.0
H834 H 0.72781 0.84728 0.41812 0.0
H835 H 0.71945 0.86121 0.3956 0.0
H836 H 0.72624 0.89504 0.31279 0.0
H837 H 0.68422 0.91957 0.31452 0.0
H838 H 0.67113 0.89679 0.32362 0.0
H839 H 0.71324 0.87239 0.32242 0.0
C840 C 0.65066 0.19367 0.32199 0.0
C841 C 0.64138 0.2002 0.33303 0.0
C842 C 0.62447 0.20981 0.31333 0.0
C843 C 0.62838 0.20818 0.32873 0.0
C844 C 0.634 0.20357 0.30234 0.0
C845 C 0.64692 0.19554 0.30664 0.0
U846 U 0.6852 0.18433 0.3472 0.0
O847 O 0.69369 0.16224 0.35478 0.0
O848 O 0.70795 0.17684 0.34041 0.0
C849 C 0.70628 0.16352 0.34691 0.0
C850 C 0.66402 0.18456 0.32613 0.0
C851 C 0.71051 0.15032 0.33771 0.0
C852 C 0.70395 0.12782 0.32315 0.0
C853 C 0.69954 0.14072 0.33111 0.0
C854 C 0.73032 0.13416 0.32789 0.0
C855 C 0.7194 0.12431 0.32161 0.0
C856 C 0.72591 0.147 0.3359 0.0
C857 C 0.69447 0.2095 0.3818 0.0
C858 C 0.70946 0.20322 0.40417 0.0
C859 C 0.70364 0.22936 0.39859 0.0
C860 C 0.6957 0.22485 0.3856 0.0
C861 C 0.71047 0.2186 0.40813 0.0
C862 C 0.70155 0.1987 0.3911 0.0
C863 C 0.68538 0.20514 0.36838 0.0
O864 O 0.67729 0.19126 0.32449 0.0
O865 O 0.66301 0.17651 0.33866 0.0
O866 O 0.67757 0.19242 0.36939 0.0
O867 O 0.69196 0.20703 0.35517 0.0
H868 H 0.64411 0.19904 0.34495 0.0
H869 H 0.6214 0.21311 0.33744 0.0
H870 H 0.63126 0.20462 0.2904 0.0
H871 H 0.65393 0.19062 0.29794 0.0
H872 H 0.69529 0.12059 0.3182 0.0
H873 H 0.68758 0.14311 0.33223 0.0
H874 H 0.7423 0.13175 0.32692 0.0
H875 H 0.73456 0.15424 0.34088 0.0
H876 H 0.71483 0.19469 0.41116 0.0
H877 H 0.70418 0.24128 0.40136 0.0
H878 H 0.69032 0.23336 0.37859 0.0
H879 H 0.70086 0.18679 0.38834 0.0
C880 C 0.3193 0.15189 0.34 0.0
C881 C 0.33009 0.1429 0.33273 0.0
C882 C 0.31 0.12627 0.3232 0.0
C883 C 0.32547 0.13014 0.32448 0.0
C884 C 0.29927 0.13536 0.33043 0.0
C885 C 0.30389 0.14804 0.33873 0.0
U886 U 0.34516 0.18607 0.34909 0.0
O887 O 0.33887 0.20882 0.35681 0.0
O888 O 0.3533 0.1945 0.3711 0.0
C889 C 0.3456 0.20712 0.37002 0.0
C890 C 0.32378 0.16514 0.34918 0.0
C891 C 0.33665 0.21138 0.3834 0.0
C892 C 0.32182 0.20487 0.40573 0.0
C893 C 0.32963 0.20047 0.39271 0.0
C894 C 0.32758 0.23113 0.40004 0.0
C895 C 0.32085 0.22025 0.40961 0.0
C896 C 0.33544 0.22672 0.3871 0.0
C897 C 0.37945 0.19544 0.32359 0.0
C898 C 0.40428 0.2065 0.32918 0.0
C899 C 0.39367 0.20869 0.30393 0.0
C900 C 0.38075 0.20067 0.30861 0.0
C901 C 0.40563 0.21164 0.31412 0.0
C902 C 0.3913 0.19854 0.33389 0.0
C903 C 0.36601 0.18624 0.32792 0.0
O904 O 0.33647 0.16401 0.35697 0.0
O905 O 0.32218 0.17839 0.3426 0.0
O906 O 0.35278 0.19278 0.32625 0.0
O907 O 0.36705 0.17823 0.34047 0.0
H908 H 0.34206 0.14569 0.33351 0.0
H909 H 0.33398 0.12334 0.31901 0.0
H910 H 0.28731 0.13251 0.32989 0.0
H911 H 0.2954 0.15479 0.3443 0.0
H912 H 0.31651 0.19626 0.41275 0.0
H913 H 0.33029 0.18856 0.39 0.0
H914 H 0.32704 0.24304 0.40276 0.0
H915 H 0.34076 0.23532 0.38005 0.0
H916 H 0.41342 0.20828 0.33723 0.0
H917 H 0.39434 0.21254 0.29228 0.0
H918 H 0.37181 0.19838 0.30045 0.0
H919 H 0.39067 0.19462 0.34552 0.0
C920 C 0.34071 0.88334 0.32348 0.0
C921 C 0.32492 0.88404 0.32536 0.0
C922 C 0.3246 0.90921 0.31386 0.0
C923 C 0.31693 0.89684 0.32054 0.0
C924 C 0.34043 0.90848 0.31217 0.0
C925 C 0.34838 0.89569 0.31693 0.0
U926 U 0.34845 0.84832 0.34853 0.0
O927 O 0.35621 0.82574 0.34197 0.0
O928 O 0.37034 0.83977 0.35699 0.0
C929 C 0.36931 0.8273 0.349 0.0
C930 C 0.34943 0.86982 0.32785 0.0
C931 C 0.38294 0.8232 0.34032 0.0
C932 C 0.3968 0.82107 0.31663 0.0
C933 C 0.38399 0.82576 0.32463 0.0
C934 C 0.40781 0.81157 0.33994 0.0
C935 C 0.4088 0.81379 0.32419 0.0
C936 C 0.395 0.81618 0.3479 0.0
C937 C 0.32161 0.83891 0.38195 0.0
C938 C 0.32669 0.82478 0.40516 0.0
C939 C 0.30078 0.82963 0.39754 0.0
C940 C 0.30602 0.83727 0.38464 0.0
C941 C 0.31105 0.82355 0.40812 0.0
C942 C 0.33193 0.83241 0.3922 0.0
C943 C 0.32667 0.84801 0.36878 0.0
O944 O 0.35681 0.87064 0.3408 0.0
O945 O 0.34274 0.85663 0.32569 0.0
O946 O 0.32532 0.84158 0.35543 0.0
O947 O 0.3394 0.85572 0.37041 0.0
H948 H 0.31874 0.87463 0.33038 0.0
H949 H 0.30472 0.89692 0.32176 0.0
H950 H 0.34669 0.91785 0.30718 0.0
H951 H 0.36056 0.8954 0.31539 0.0
H952 H 0.39736 0.82318 0.30454 0.0
H953 H 0.37487 0.83127 0.31855 0.0
H954 H 0.41684 0.80596 0.34606 0.0
H955 H 0.39443 0.8141 0.35999 0.0
H956 H 0.33488 0.82017 0.41308 0.0
H957 H 0.28867 0.82854 0.39926 0.0
H958 H 0.29785 0.84211 0.37684 0.0
H959 H 0.34403 0.83345 0.39033 0.0
C960 C 0.69373 0.65076 0.2121 0.0
C961 C 0.7002 0.64135 0.20115 0.0
C962 C 0.70969 0.62458 0.221 0.0
C963 C 0.70808 0.62835 0.20557 0.0
C964 C 0.70352 0.63424 0.23191 0.0
C965 C 0.69558 0.64716 0.22748 0.0
U966 U 0.68483 0.68541 0.18693 0.0
O967 O 0.66281 0.69404 0.17915 0.0
O968 O 0.67735 0.70807 0.19378 0.0
C969 C 0.66402 0.70647 0.18721 0.0
C970 C 0.68471 0.66413 0.20785 0.0
C971 C 0.65068 0.71079 0.19635 0.0
C972 C 0.62536 0.70574 0.2063 0.0
C973 C 0.63823 0.70093 0.19849 0.0
C974 C 0.63725 0.73021 0.21024 0.0
C975 C 0.6247 0.72047 0.21224 0.0
C976 C 0.65006 0.72543 0.20238 0.0
C977 C 0.71069 0.69495 0.15283 0.0
C978 C 0.70499 0.70928 0.12989 0.0
C979 C 0.7311 0.7052 0.13729 0.0
C980 C 0.72621 0.69708 0.15003 0.0
C981 C 0.72056 0.71138 0.12706 0.0
C982 C 0.70008 0.7012 0.14271 0.0
C983 C 0.70601 0.68573 0.16606 0.0
O984 O 0.69142 0.67734 0.20968 0.0
O985 O 0.67684 0.66321 0.19518 0.0
O986 O 0.69324 0.67801 0.16477 0.0
O987 O 0.70775 0.69211 0.17938 0.0
H988 H 0.69905 0.64396 0.18919 0.0
H989 H 0.71296 0.62126 0.19693 0.0
H990 H 0.70454 0.63162 0.24387 0.0
H991 H 0.6907 0.65427 0.23611 0.0
H992 H 0.61578 0.69806 0.20733 0.0
H993 H 0.63829 0.6896 0.1939 0.0
H994 H 0.63712 0.7416 0.21472 0.0
H995 H 0.65945 0.73329 0.20082 0.0
H996 H 0.69661 0.71393 0.12221 0.0
H997 H 0.74317 0.70636 0.13526 0.0
H998 H 0.73459 0.69227 0.15762 0.0
H999 H 0.68803 0.69974 0.14463 0.0
C1000 C 0.32007 0.69379 0.15269 0.0
C1001 C 0.33061 0.70126 0.1433 0.0
C1002 C 0.31013 0.71003 0.1269 0.0
C1003 C 0.32568 0.70925 0.13048 0.0
C1004 C 0.29965 0.7027 0.13647 0.0
C1005 C 0.30458 0.69467 0.14923 0.0
U1006 U 0.34684 0.68536 0.18612 0.0
O1007 O 0.34158 0.67692 0.20899 0.0
O1008 O 0.35585 0.6635 0.19395 0.0
C1009 C 0.34849 0.664 0.20684 0.0
C1010 C 0.32495 0.68466 0.16584 0.0
C1011 C 0.33992 0.65018 0.21101 0.0
C1012 C 0.31621 0.63619 0.21417 0.0
C1013 C 0.32405 0.64931 0.20967 0.0
C1014 C 0.34001 0.62454 0.22109 0.0
C1015 C 0.32413 0.62366 0.21988 0.0
C1016 C 0.34782 0.63768 0.2167 0.0
C1017 C 0.38066 0.71192 0.19466 0.0
C1018 C 0.40563 0.70683 0.20531 0.0
C1019 C 0.3947 0.73166 0.20799 0.0
C1020 C 0.3818 0.7268 0.20005 0.0
C1021 C 0.4068 0.72175 0.21069 0.0
C1022 C 0.39266 0.70193 0.19745 0.0
C1023 C 0.36711 0.70734 0.18577 0.0
O1024 O 0.33777 0.67737 0.16432 0.0
O1025 O 0.32351 0.69101 0.17917 0.0
O1026 O 0.35403 0.70835 0.19277 0.0
O1027 O 0.36823 0.69503 0.17756 0.0
H1028 H 0.34264 0.70074 0.14575 0.0
H1029 H 0.33407 0.71451 0.12318 0.0
H1030 H 0.2876 0.70318 0.13409 0.0
H1031 H 0.29628 0.689 0.15634 0.0
H1032 H 0.30397 0.63578 0.2131 0.0
H1033 H 0.3177 0.6588 0.20524 0.0
H1034 H 0.34638 0.61516 0.2257 0.0
H1035 H 0.36005 0.63814 0.21788 0.0
H1036 H 0.41488 0.69901 0.20688 0.0
H1037 H 0.39523 0.7432 0.21203 0.0
H1038 H 0.37271 0.73472 0.19801 0.0
H1039 H 0.39215 0.6904 0.1934 0.0
C1040 C 0.32195 0.33927 0.15125 0.0
C1041 C 0.33242 0.33289 0.14123 0.0
C1042 C 0.31175 0.32388 0.12501 0.0
C1043 C 0.32735 0.32524 0.12823 0.0
C1044 C 0.30134 0.32983 0.13536 0.0
C1045 C 0.30639 0.3375 0.14828 0.0
U1046 U 0.34787 0.34842 0.18562 0.0
O1047 O 0.35639 0.37063 0.19339 0.0
O1048 O 0.34155 0.35695 0.20806 0.0
C1049 C 0.34851 0.37002 0.20598 0.0
C1050 C 0.3268 0.34841 0.16443 0.0
C1051 C 0.33985 0.38373 0.20974 0.0
C1052 C 0.31606 0.39707 0.21299 0.0
C1053 C 0.32395 0.38412 0.20864 0.0
C1054 C 0.33985 0.4095 0.21929 0.0
C1055 C 0.32394 0.40991 0.21834 0.0
C1056 C 0.3477 0.39655 0.21504 0.0
C1057 C 0.38125 0.32226 0.19587 0.0
C1058 C 0.40375 0.32818 0.21094 0.0
C1059 C 0.39684 0.30207 0.20611 0.0
C1060 C 0.38423 0.30682 0.19775 0.0
C1061 C 0.40675 0.31268 0.2128 0.0
C1062 C 0.39106 0.33294 0.20261 0.0
C1063 C 0.36811 0.32681 0.18652 0.0
O1064 O 0.32484 0.34217 0.17784 0.0
O1065 O 0.33976 0.3558 0.16321 0.0
O1066 O 0.36973 0.33922 0.17837 0.0
O1067 O 0.35477 0.32564 0.19302 0.0
H1068 H 0.34449 0.33403 0.14329 0.0
H1069 H 0.33564 0.32073 0.1205 0.0
H1070 H 0.28925 0.32863 0.13342 0.0
H1071 H 0.29812 0.34224 0.1559 0.0
H1072 H 0.3038 0.39708 0.21213 0.0
H1073 H 0.31761 0.37439 0.20456 0.0
H1074 H 0.34621 0.4191 0.22365 0.0
H1075 H 0.35995 0.39647 0.21607 0.0
H1076 H 0.41119 0.33661 0.21598 0.0
H1077 H 0.399 0.29007 0.20708 0.0
H1078 H 0.37687 0.2984 0.19258 0.0
H1079 H 0.38898 0.34494 0.20135 0.0
C1080 C 0.65046 0.32094 0.19435 0.0
C1081 C 0.64169 0.33172 0.20187 0.0
C1082 C 0.62433 0.31189 0.21059 0.0
C1083 C 0.62871 0.32723 0.2099 0.0
C1084 C 0.63334 0.30113 0.20331 0.0
C1085 C 0.64624 0.30563 0.19523 0.0
U1086 U 0.68452 0.34701 0.18552 0.0
O1087 O 0.70759 0.341 0.17831 0.0
O1088 O 0.69324 0.35495 0.16356 0.0
C1089 C 0.70598 0.34747 0.16496 0.0
C1090 C 0.66388 0.32535 0.18537 0.0
C1091 C 0.71058 0.3384 0.15178 0.0
C1092 C 0.7046 0.32367 0.12924 0.0
C1093 C 0.69986 0.33154 0.1421 0.0
C1094 C 0.73079 0.32911 0.13577 0.0
C1095 C 0.72013 0.3224 0.1259 0.0
C1096 C 0.72605 0.33702 0.14856 0.0
C1097 C 0.69239 0.38184 0.21062 0.0
C1098 C 0.71619 0.39576 0.21355 0.0
C1099 C 0.69273 0.4068 0.22203 0.0
C1100 C 0.68475 0.39393 0.21723 0.0
C1101 C 0.70855 0.40786 0.22032 0.0
C1102 C 0.70817 0.38288 0.20868 0.0
C1103 C 0.68366 0.36817 0.20629 0.0
O1104 O 0.66273 0.33783 0.1773 0.0
O1105 O 0.67704 0.3241 0.19228 0.0
O1106 O 0.69044 0.35514 0.20831 0.0
O1107 O 0.67611 0.36898 0.19344 0.0
H1108 H 0.64482 0.3436 0.20146 0.0
H1109 H 0.62213 0.33573 0.21562 0.0
H1110 H 0.63023 0.28925 0.20363 0.0
H1111 H 0.65287 0.29714 0.18954 0.0
H1112 H 0.69608 0.31889 0.12173 0.0
H1113 H 0.68784 0.33246 0.14434 0.0
H1114 H 0.74282 0.32825 0.13359 0.0
H1115 H 0.73451 0.34221 0.15588 0.0
H1116 H 0.7284 0.3961 0.2123 0.0
H1117 H 0.6865 0.41596 0.2271 0.0
H1118 H 0.67257 0.39337 0.21881 0.0
H1119 H 0.71432 0.37367 0.2036 0.0
C1120 C 0.65108 0.3201 0.84103 0.0
C1121 C 0.64143 0.33044 0.83378 0.0
C1122 C 0.62469 0.3098 0.82581 0.0
C1123 C 0.62834 0.32532 0.82623 0.0
C1124 C 0.63466 0.29949 0.83267 0.0
C1125 C 0.64768 0.3046 0.84026 0.0
U1126 U 0.68476 0.34709 0.84876 0.0
O1127 O 0.69322 0.35594 0.87057 0.0
O1128 O 0.70788 0.34192 0.85649 0.0
C1129 C 0.70609 0.34865 0.8696 0.0
C1130 C 0.66447 0.32514 0.84981 0.0
C1131 C 0.71059 0.33994 0.88317 0.0
C1132 C 0.71372 0.3161 0.89669 0.0
C1133 C 0.70884 0.32413 0.88387 0.0
C1134 C 0.72176 0.33958 0.90841 0.0
C1135 C 0.72034 0.32374 0.90904 0.0
C1136 C 0.71698 0.34758 0.89557 0.0
C1137 C 0.69255 0.3808 0.82209 0.0
C1138 C 0.70735 0.4035 0.82775 0.0
C1139 C 0.70174 0.39697 0.80168 0.0
C1140 C 0.69381 0.38409 0.8066 0.0
C1141 C 0.70858 0.40686 0.81219 0.0
C1142 C 0.69946 0.39054 0.83266 0.0
C1143 C 0.68378 0.36731 0.82688 0.0
O1144 O 0.67765 0.3238 0.84308 0.0
O1145 O 0.66312 0.33793 0.85721 0.0
O1146 O 0.67608 0.36848 0.83954 0.0
O1147 O 0.69075 0.35432 0.8256 0.0
H1148 H 0.64389 0.34246 0.83413 0.0
H1149 H 0.62091 0.33353 0.82101 0.0
H1150 H 0.63239 0.28743 0.83219 0.0
H1151 H 0.65504 0.29643 0.84567 0.0
H1152 H 0.71224 0.30392 0.89699 0.0
H1153 H 0.70379 0.31799 0.87449 0.0
H1154 H 0.72682 0.34575 0.91776 0.0
H1155 H 0.7184 0.35977 0.89527 0.0
H1156 H 0.71223 0.41102 0.83614 0.0
H1157 H 0.70257 0.39918 0.78963 0.0
H1158 H 0.68859 0.37671 0.79826 0.0
H1159 H 0.69865 0.38822 0.84469 0.0
C1160 C 0.6489 0.69179 0.82331 0.0
C1161 C 0.64841 0.70752 0.82548 0.0
C1162 C 0.6232 0.70836 0.814 0.0
C1163 C 0.63567 0.71573 0.82084 0.0
C1164 C 0.62364 0.69259 0.81214 0.0
C1165 C 0.63638 0.68442 0.8167 0.0
U1166 U 0.68343 0.6828 0.84868 0.0
O1167 O 0.69159 0.66061 0.85653 0.0
O1168 O 0.70615 0.67508 0.84234 0.0
C1169 C 0.70431 0.6618 0.8489 0.0
C1170 C 0.66233 0.68284 0.82753 0.0
C1171 C 0.70861 0.64841 0.84 0.0
C1172 C 0.71226 0.63544 0.81602 0.0
C1173 C 0.70738 0.64809 0.82411 0.0
C1174 C 0.71933 0.62319 0.83957 0.0
C1175 C 0.71834 0.62285 0.82366 0.0
C1176 C 0.71452 0.63582 0.84762 0.0
C1177 C 0.69219 0.70757 0.88366 0.0
C1178 C 0.71613 0.71138 0.8971 0.0
C1179 C 0.69244 0.71705 0.90949 0.0
C1180 C 0.68446 0.71265 0.89649 0.0
C1181 C 0.70836 0.71647 0.90996 0.0
C1182 C 0.70812 0.70688 0.88408 0.0
C1183 C 0.68334 0.70348 0.86998 0.0
O1184 O 0.67563 0.68953 0.82594 0.0
O1185 O 0.66121 0.6749 0.84011 0.0
O1186 O 0.67543 0.69083 0.87082 0.0
O1187 O 0.69007 0.70541 0.85684 0.0
H1188 H 0.65788 0.71345 0.83069 0.0
H1189 H 0.63554 0.72783 0.82266 0.0
H1190 H 0.61423 0.68661 0.80688 0.0
H1191 H 0.63651 0.6723 0.81493 0.0
H1192 H 0.71158 0.63565 0.80377 0.0
H1193 H 0.70286 0.65767 0.81796 0.0
H1194 H 0.72384 0.61365 0.8458 0.0
H1195 H 0.71555 0.63582 0.85986 0.0
H1196 H 0.72839 0.71081 0.89716 0.0
H1197 H 0.68615 0.72119 0.9191 0.0
H1198 H 0.6722 0.71336 0.89639 0.0
H1199 H 0.71436 0.70297 0.87435 0.0
C1200 C 0.32009 0.65175 0.84107 0.0
C1201 C 0.33072 0.64272 0.83362 0.0
C1202 C 0.31042 0.62626 0.82427 0.0
C1203 C 0.32592 0.63003 0.82537 0.0
C1204 C 0.29983 0.6354 0.83165 0.0
C1205 C 0.30463 0.64802 0.83996 0.0
U1206 U 0.34678 0.68522 0.85006 0.0
O1207 O 0.34142 0.70813 0.85782 0.0
O1208 O 0.35528 0.69329 0.87214 0.0
C1209 C 0.34805 0.70617 0.87105 0.0
C1210 C 0.32481 0.6649 0.85026 0.0
C1211 C 0.33933 0.71063 0.88451 0.0
C1212 C 0.31549 0.71389 0.89787 0.0
C1213 C 0.32347 0.70902 0.88512 0.0
C1214 C 0.33913 0.72174 0.90966 0.0
C1215 C 0.32324 0.72033 0.91028 0.0
C1216 C 0.34707 0.71694 0.89691 0.0
C1217 C 0.38124 0.69292 0.82419 0.0
C1218 C 0.39526 0.71652 0.82044 0.0
C1219 C 0.40595 0.69288 0.81211 0.0
C1220 C 0.39316 0.68509 0.81746 0.0
C1221 C 0.40703 0.70871 0.81327 0.0
C1222 C 0.38246 0.70869 0.82585 0.0
C1223 C 0.36752 0.6844 0.8288 0.0
O1224 O 0.33746 0.66346 0.85806 0.0
O1225 O 0.32356 0.67819 0.84367 0.0
O1226 O 0.35452 0.6914 0.8272 0.0
O1227 O 0.36852 0.67668 0.84153 0.0
H1228 H 0.34272 0.64543 0.83426 0.0
H1229 H 0.33431 0.62319 0.81977 0.0
H1230 H 0.28784 0.63263 0.83124 0.0
H1231 H 0.29626 0.6548 0.84566 0.0
H1232 H 0.30324 0.7129 0.89787 0.0
H1233 H 0.31724 0.70417 0.87568 0.0
H1234 H 0.34544 0.72654 0.91906 0.0
H1235 H 0.3593 0.71825 0.89669 0.0
H1236 H 0.39581 0.72871 0.82154 0.0
H1237 H 0.415 0.68649 0.80703 0.0
H1238 H 0.3925 0.67292 0.81617 0.0
H1239 H 0.37343 0.71498 0.8311 0.0
C1240 C 0.34049 0.38355 0.82391 0.0
C1241 C 0.32462 0.38411 0.8252 0.0
C1242 C 0.32466 0.40985 0.81507 0.0
C1243 C 0.31677 0.39712 0.82074 0.0
C1244 C 0.34054 0.40922 0.81386 0.0
C1245 C 0.34835 0.39622 0.81824 0.0
U1246 U 0.34828 0.34811 0.84841 0.0
O1247 O 0.35592 0.32559 0.8415 0.0
O1248 O 0.37021 0.33939 0.85658 0.0
C1249 C 0.36909 0.32703 0.84843 0.0
C1250 C 0.34914 0.36988 0.82801 0.0
C1251 C 0.38267 0.32294 0.83964 0.0
C1252 C 0.39594 0.31969 0.81574 0.0
C1253 C 0.3832 0.32448 0.82379 0.0
C1254 C 0.40795 0.31216 0.83928 0.0
C1255 C 0.4084 0.31332 0.8234 0.0
C1256 C 0.39521 0.31687 0.8473 0.0
C1257 C 0.32161 0.33847 0.88196 0.0
C1258 C 0.32668 0.32413 0.90506 0.0
C1259 C 0.30079 0.32929 0.89761 0.0
C1260 C 0.30603 0.33697 0.88473 0.0
C1261 C 0.31105 0.32304 0.90809 0.0
C1262 C 0.33193 0.3318 0.89211 0.0
C1263 C 0.32667 0.34766 0.86885 0.0
O1264 O 0.35668 0.37047 0.84087 0.0
O1265 O 0.34236 0.35676 0.82574 0.0
O1266 O 0.32519 0.34138 0.85545 0.0
O1267 O 0.33947 0.35527 0.87047 0.0
H1268 H 0.3183 0.37448 0.82958 0.0
H1269 H 0.30455 0.39729 0.82181 0.0
H1270 H 0.34691 0.41871 0.80927 0.0
H1271 H 0.36057 0.39601 0.81706 0.0
H1272 H 0.39608 0.32099 0.80354 0.0
H1273 H 0.37373 0.32925 0.81761 0.0
H1274 H 0.41735 0.30729 0.84549 0.0
H1275 H 0.39505 0.31557 0.85951 0.0
H1276 H 0.33486 0.31938 0.91289 0.0
H1277 H 0.28868 0.32831 0.8994 0.0
H1278 H 0.29786 0.34194 0.87701 0.0
H1279 H 0.34403 0.33274 0.89019 0.0
C1280 C 0.25905 0.24133 0.06966 0.0
C1281 C 0.24332 0.24004 0.07204 0.0
C1282 C 0.26471 0.24769 0.05626 0.0
C1283 C 0.25479 0.253 0.04496 0.0
C1284 C 0.23341 0.24497 0.06055 0.0
C1285 C 0.23909 0.25134 0.04714 0.0
C1286 C 0.26068 0.25988 0.03071 0.0
C1287 C 0.27381 0.29174 0.06808 0.0
C1288 C 0.28951 0.29349 0.07043 0.0
C1289 C 0.26822 0.28445 0.05515 0.0
C1290 C 0.2782 0.27852 0.04437 0.0
C1291 C 0.2995 0.28758 0.05965 0.0
C1292 C 0.29389 0.2803 0.04667 0.0
C1293 C 0.27227 0.27108 0.03044 0.0
C1294 C 0.27277 0.29156 0.96537 0.0
C1295 C 0.28845 0.29283 0.96274 0.0
C1296 C 0.26728 0.28443 0.97846 0.0
C1297 C 0.27735 0.27818 0.98912 0.0
C1298 C 0.29851 0.28658 0.97341 0.0
C1299 C 0.29302 0.27945 0.98653 0.0
C1300 C 0.27167 0.27103 1.00332 0.0
C1301 C 0.25424 0.24253 0.96458 0.0
C1302 C 0.23833 0.24225 0.96334 0.0
C1303 C 0.26134 0.2482 0.97765 0.0
C1304 C 0.25266 0.25372 0.98971 0.0
C1305 C 0.22969 0.24732 0.97562 0.0
C1306 C 0.23678 0.25294 0.98867 0.0
C1307 C 0.25989 0.26002 1.0036 0.0
H1308 H 0.26699 0.2372 0.07807 0.0
H1309 H 0.27688 0.24834 0.05468 0.0
H1310 H 0.22124 0.24407 0.06202 0.0
H1311 H 0.23119 0.25519 0.03854 0.0
H1312 H 0.26583 0.296 0.07626 0.0
H1313 H 0.25606 0.28358 0.05351 0.0
H1314 H 0.31165 0.28883 0.06113 0.0
H1315 H 0.30181 0.27597 0.03846 0.0
H1316 H 0.26471 0.29608 0.95727 0.0
H1317 H 0.25516 0.28397 0.98033 0.0
H1318 H 0.31065 0.28746 0.97174 0.0
H1319 H 0.30102 0.27487 0.99465 0.0
H1320 H 0.26118 0.23858 0.95534 0.0
H1321 H 0.2736 0.24826 0.97832 0.0
H1322 H 0.21742 0.2469 0.97514 0.0
H1323 H 0.22982 0.2569 0.99789 0.0
N1324 N 0.25486 0.25493 0.01729 0.0
N1325 N 0.27741 0.27608 0.01676 0.0
C1326 C 0.7759 0.24307 0.96547 0.0
C1327 C 0.79176 0.24288 0.96381 0.0
C1328 C 0.76936 0.24897 0.97857 0.0
C1329 C 0.77853 0.25488 0.99024 0.0
C1330 C 0.8009 0.24845 0.97568 0.0
C1331 C 0.79436 0.25431 0.98877 0.0
C1332 C 0.77182 0.26133 1.00415 0.0
C1333 C 0.75865 0.29162 0.96536 0.0
C1334 C 0.74294 0.29292 0.96304 0.0
C1335 C 0.76431 0.285 0.97863 0.0
C1336 C 0.75437 0.27929 0.98973 0.0
C1337 C 0.73301 0.28762 0.97433 0.0
C1338 C 0.73867 0.28087 0.98755 0.0
C1339 C 0.76021 0.27227 1.00391 0.0
C1340 C 0.75779 0.29171 0.06912 0.0
C1341 C 0.74206 0.29269 0.07134 0.0
C1342 C 0.76355 0.28499 0.05607 0.0
C1343 C 0.7537 0.27904 0.04499 0.0
C1344 C 0.73221 0.28696 0.06013 0.0
C1345 C 0.73798 0.28028 0.04704 0.0
C1346 C 0.75975 0.27207 0.03101 0.0
C1347 C 0.77258 0.24113 0.06943 0.0
C1348 C 0.78827 0.24023 0.07207 0.0
C1349 C 0.76701 0.24795 0.05622 0.0
C1350 C 0.77704 0.25404 0.04541 0.0
C1351 C 0.79829 0.24613 0.06115 0.0
C1352 C 0.79272 0.25288 0.0479 0.0
C1353 C 0.77126 0.26105 0.03123 0.0
H1354 H 0.76855 0.23849 0.95672 0.0
H1355 H 0.75712 0.24885 0.97961 0.0
H1356 H 0.81314 0.24847 0.97475 0.0
H1357 H 0.80168 0.25866 0.99767 0.0
H1358 H 0.76657 0.29599 0.95704 0.0
H1359 H 0.77647 0.2845 0.98026 0.0
H1360 H 0.72085 0.28857 0.97287 0.0
H1361 H 0.73078 0.27677 0.99603 0.0
H1362 H 0.76566 0.29609 0.07752 0.0
H1363 H 0.77572 0.28456 0.0546 0.0
H1364 H 0.72004 0.28785 0.06139 0.0
H1365 H 0.73016 0.27598 0.03855 0.0
H1366 H 0.7646 0.23661 0.07762 0.0
H1367 H 0.75487 0.24833 0.0544 0.0
H1368 H 0.81044 0.2453 0.06274 0.0
H1369 H 0.80067 0.25731 0.03963 0.0
N1370 N 0.77692 0.25623 0.0178 0.0
N1371 N 0.75459 0.27714 0.01736 0.0
C1372 C 0.77433 0.79148 0.06813 0.0
C1373 C 0.79007 0.79265 0.07051 0.0
C1374 C 0.76849 0.78458 0.05509 0.0
C1375 C 0.77827 0.77859 0.04416 0.0
C1376 C 0.79986 0.78691 0.05944 0.0
C1377 C 0.794 0.78002 0.04636 0.0
C1378 C 0.77213 0.77134 0.03023 0.0
C1379 C 0.75881 0.74156 0.06942 0.0
C1380 C 0.74308 0.74039 0.07182 0.0
C1381 C 0.7645 0.7479 0.05603 0.0
C1382 C 0.7546 0.75332 0.04476 0.0
C1383 C 0.73319 0.74542 0.06036 0.0
C1384 C 0.7389 0.75177 0.04695 0.0
C1385 C 0.76052 0.76016 0.03051 0.0
C1386 C 0.75502 0.7415 0.96481 0.0
C1387 C 0.73915 0.74012 0.96373 0.0
C1388 C 0.76184 0.74798 0.97764 0.0
C1389 C 0.7529 0.75346 0.98953 0.0
C1390 C 0.73026 0.74554 0.97568 0.0
C1391 C 0.73706 0.75202 0.98847 0.0
C1392 C 0.75984 0.76016 1.00339 0.0
C1393 C 0.77282 0.79137 0.96489 0.0
C1394 C 0.78851 0.79336 0.96274 0.0
C1395 C 0.76726 0.78414 0.9779 0.0
C1396 C 0.77728 0.77843 0.98892 0.0
C1397 C 0.79852 0.78765 0.97377 0.0
C1398 C 0.79296 0.78036 0.98676 0.0
C1399 C 0.77155 0.77127 1.0031 0.0
H1400 H 0.76651 0.79586 0.07641 0.0
H1401 H 0.75631 0.78401 0.0535 0.0
H1402 H 0.81204 0.78793 0.0608 0.0
H1403 H 0.80177 0.7757 0.038 0.0
H1404 H 0.76673 0.73736 0.07782 0.0
H1405 H 0.77667 0.74844 0.05443 0.0
H1406 H 0.72102 0.74461 0.06185 0.0
H1407 H 0.73102 0.7557 0.03837 0.0
H1408 H 0.76216 0.73734 0.95583 0.0
H1409 H 0.7741 0.74857 0.97832 0.0
H1410 H 0.718 0.74491 0.97507 0.0
H1411 H 0.72991 0.7561 0.99748 0.0
H1412 H 0.76481 0.79542 0.95651 0.0
H1413 H 0.75511 0.7832 0.97942 0.0
H1414 H 0.81066 0.78909 0.97248 0.0
H1415 H 0.80093 0.77623 0.99515 0.0
N1416 N 0.77725 0.77634 0.01654 0.0
N1417 N 0.75478 0.75512 0.01709 0.0
C1418 C 0.27667 0.74343 0.96529 0.0
C1419 C 0.29255 0.74322 0.9639 0.0
C1420 C 0.26993 0.74928 0.97832 0.0
C1421 C 0.27894 0.75517 0.99014 0.0
C1422 C 0.30152 0.74895 0.97581 0.0
C1423 C 0.29478 0.75475 0.98883 0.0
C1424 C 0.27203 0.76135 1.00408 0.0
C1425 C 0.25835 0.79258 0.96602 0.0
C1426 C 0.24263 0.79294 0.9633 0.0
C1427 C 0.26411 0.78575 0.97914 0.0
C1428 C 0.25428 0.779 0.98974 0.0
C1429 C 0.23282 0.78619 0.97394 0.0
C1430 C 0.23859 0.77941 0.98709 0.0
C1431 C 0.26022 0.77206 1.00388 0.0
C1432 C 0.25744 0.79091 0.06939 0.0
C1433 C 0.24171 0.79263 0.07111 0.0
C1434 C 0.26331 0.78414 0.05642 0.0
C1435 C 0.25358 0.77874 0.04495 0.0
C1436 C 0.232 0.78754 0.05946 0.0
C1437 C 0.23789 0.7807 0.04651 0.0
C1438 C 0.25974 0.77181 0.03097 0.0
C1439 C 0.27257 0.74075 0.06925 0.0
C1440 C 0.28826 0.74002 0.07203 0.0
C1441 C 0.26704 0.74753 0.05601 0.0
C1442 C 0.27709 0.75376 0.0453 0.0
C1443 C 0.29831 0.74603 0.06118 0.0
C1444 C 0.29277 0.75275 0.0479 0.0
C1445 C 0.27135 0.76088 0.03116 0.0
H1446 H 0.26947 0.73923 0.95624 0.0
H1447 H 0.25768 0.74914 0.97917 0.0
H1448 H 0.31378 0.74883 0.97509 0.0
H1449 H 0.30197 0.75908 0.99784 0.0
H1450 H 0.26619 0.79781 0.95812 0.0
H1451 H 0.27625 0.78593 0.98109 0.0
H1452 H 0.22068 0.78602 0.97204 0.0
H1453 H 0.23078 0.77434 0.99513 0.0
H1454 H 0.26522 0.7948 0.0781 0.0
H1455 H 0.2755 0.78331 0.05531 0.0
H1456 H 0.21986 0.78909 0.06023 0.0
H1457 H 0.23015 0.7769 0.03771 0.0
H1458 H 0.26458 0.73614 0.07738 0.0
H1459 H 0.25491 0.74782 0.05411 0.0
H1460 H 0.31045 0.74534 0.06288 0.0
H1461 H 0.30074 0.75729 0.03971 0.0
N1462 N 0.27714 0.75622 0.01773 0.0
N1463 N 0.25453 0.77683 0.01732 0.0
C1464 C 0.96387 0.24361 0.25534 0.0
C1465 C 0.96195 0.24445 0.23954 0.0
C1466 C 0.97702 0.2494 0.26221 0.0
C1467 C 0.98845 0.2563 0.25342 0.0
C1468 C 0.97343 0.25125 0.23077 0.0
C1469 C 0.9866 0.257 0.23763 0.0
C1470 C 1.0026 0.26223 0.26049 0.0
C1471 C 0.96467 0.29113 0.27762 0.0
C1472 C 0.96251 0.29037 0.29339 0.0
C1473 C 0.97769 0.28512 0.27104 0.0
C1474 C 0.98879 0.27811 0.28008 0.0
C1475 C 0.97381 0.28368 0.30243 0.0
C1476 C 0.98682 0.27768 0.29585 0.0
C1477 C 1.00275 0.2718 0.27329 0.0
C1478 C 0.06916 0.28867 0.27956 0.0
C1479 C 0.07079 0.28762 0.29538 0.0
C1480 C 0.05587 0.28352 0.27242 0.0
C1481 C 0.04402 0.27704 0.28096 0.0
C1482 C 0.05868 0.28169 0.30394 0.0
C1483 C 0.04545 0.27646 0.2968 0.0
C1484 C 0.02989 0.27134 0.27364 0.0
C1485 C 0.0682 0.24334 0.25575 0.0
C1486 C 0.07019 0.24448 0.23999 0.0
C1487 C 0.05505 0.24882 0.26257 0.0
C1488 C 0.04368 0.2557 0.25377 0.0
C1489 C 0.05853 0.25082 0.23116 0.0
C1490 C 0.04543 0.25635 0.23798 0.0
C1491 C 0.02974 0.26182 0.26077 0.0
H1492 H 0.95514 0.23857 0.2624 0.0
H1493 H 0.97831 0.24838 0.27438 0.0
H1494 H 0.9723 0.25195 0.21856 0.0
H1495 H 0.99531 0.26212 0.2306 0.0
H1496 H 0.9564 0.29658 0.27038 0.0
H1497 H 0.97915 0.2861 0.2589 0.0
H1498 H 0.97249 0.28293 0.3146 0.0
H1499 H 0.99528 0.2725 0.30308 0.0
H1500 H 0.07823 0.29332 0.27267 0.0
H1501 H 0.05487 0.28462 0.26024 0.0
H1502 H 0.05939 0.28117 0.31618 0.0
H1503 H 0.03637 0.27181 0.30367 0.0
H1504 H 0.07692 0.23839 0.26284 0.0
H1505 H 0.0538 0.24769 0.27472 0.0
H1506 H 0.0595 0.25145 0.21895 0.0
H1507 H 0.03671 0.26132 0.2309 0.0
N1508 N 0.01609 0.25775 0.25468 0.0
N1509 N 0.01639 0.27585 0.27941 0.0
C1510 C 0.73987 0.96445 0.27294 0.0
C1511 C 0.73751 0.96248 0.28858 0.0
C1512 C 0.74716 0.97745 0.2674 0.0
C1513 C 0.75259 0.98862 0.2774 0.0
C1514 C 0.7429 0.97367 0.29856 0.0
C1515 C 0.75028 0.98665 0.29302 0.0
C1516 C 0.75992 1.00272 0.27164 0.0
C1517 C 0.79066 0.96483 0.25832 0.0
C1518 C 0.79201 0.96273 0.24261 0.0
C1519 C 0.78385 0.97781 0.26406 0.0
C1520 C 0.77817 0.98896 0.25421 0.0
C1521 C 0.78656 0.97401 0.23277 0.0
C1522 C 0.77979 0.98703 0.23852 0.0
C1523 C 0.77113 1.00289 0.26021 0.0
C1524 C 0.79164 0.06811 0.2583 0.0
C1525 C 0.79303 0.07014 0.24256 0.0
C1526 C 0.7846 0.05512 0.26421 0.0
C1527 C 0.77853 0.04404 0.25448 0.0
C1528 C 0.78702 0.05902 0.23285 0.0
C1529 C 0.77992 0.04606 0.23876 0.0
C1530 C 0.77142 0.02997 0.26052 0.0
C1531 C 0.7426 0.06862 0.27646 0.0
C1532 C 0.74136 0.06971 0.2923 0.0
C1533 C 0.74867 0.05568 0.26982 0.0
C1534 C 0.75395 0.04369 0.2789 0.0
C1535 C 0.74645 0.05763 0.30134 0.0
C1536 C 0.75259 0.04474 0.2947 0.0
C1537 C 0.76038 0.02979 0.27214 0.0
H1538 H 0.73607 0.95593 0.26497 0.0
H1539 H 0.74839 0.97883 0.25527 0.0
H1540 H 0.74118 0.97251 0.31066 0.0
H1541 H 0.7542 0.99515 0.30096 0.0
H1542 H 0.79482 0.95637 0.26619 0.0
H1543 H 0.78315 0.97918 0.27623 0.0
H1544 H 0.78774 0.97287 0.22062 0.0
H1545 H 0.77572 0.99556 0.23069 0.0
H1546 H 0.79631 0.07644 0.26604 0.0
H1547 H 0.78411 0.05365 0.27639 0.0
H1548 H 0.78774 0.06037 0.22067 0.0
H1549 H 0.77542 0.03764 0.23102 0.0
H1550 H 0.73866 0.0777 0.26922 0.0
H1551 H 0.74914 0.05501 0.25758 0.0
H1552 H 0.74588 0.05824 0.31357 0.0
H1553 H 0.75648 0.03565 0.30197 0.0
N1554 N 0.75514 0.01616 0.27723 0.0
N1555 N 0.77629 0.01651 0.25502 0.0
C1556 C 0.06846 0.78994 0.25644 0.0
C1557 C 0.06955 0.79094 0.24057 0.0
C1558 C 0.05548 0.78373 0.26324 0.0
C1559 C 0.04343 0.77816 0.25429 0.0
C1560 C 0.05749 0.78537 0.23167 0.0
C1561 C 0.04454 0.77917 0.23846 0.0
C1562 C 0.02935 0.7719 0.26119 0.0
C1563 C 0.06666 0.74017 0.27469 0.0
C1564 C 0.06893 0.73846 0.29039 0.0
C1565 C 0.05386 0.74755 0.26905 0.0
C1566 C 0.04317 0.75372 0.27898 0.0
C1567 C 0.05823 0.7446 0.30032 0.0
C1568 C 0.04543 0.75205 0.29467 0.0
C1569 C 0.02924 0.76112 0.27311 0.0
C1570 C 0.96345 0.7422 0.27607 0.0
C1571 C 0.96158 0.74089 0.29184 0.0
C1572 C 0.97652 0.74895 0.27002 0.0
C1573 C 0.98793 0.75477 0.2796 0.0
C1574 C 0.97316 0.74641 0.30141 0.0
C1575 C 0.9862 0.75325 0.29535 0.0
C1576 C 1.00207 0.76158 0.27333 0.0
C1577 C 0.96383 0.7913 0.25677 0.0
C1578 C 0.96254 0.79226 0.24091 0.0
C1579 C 0.97665 0.78481 0.26353 0.0
C1580 C 0.9883 0.77892 0.25455 0.0
C1581 C 0.97422 0.78639 0.23197 0.0
C1582 C 0.98698 0.7799 0.23871 0.0
C1583 C 1.00221 0.77231 0.26137 0.0
H1584 H 0.07755 0.79422 0.26358 0.0
H1585 H 0.05478 0.78345 0.27549 0.0
H1586 H 0.05811 0.78568 0.21942 0.0
H1587 H 0.03541 0.775 0.2313 0.0
H1588 H 0.0748 0.73578 0.26673 0.0
H1589 H 0.05223 0.74827 0.2569 0.0
H1590 H 0.05962 0.74339 0.31246 0.0
H1591 H 0.03728 0.75653 0.30257 0.0
H1592 H 0.9548 0.73797 0.26839 0.0
H1593 H 0.97777 0.74944 0.25783 0.0
H1594 H 0.97229 0.74518 0.31359 0.0
H1595 H 0.99495 0.75735 0.30298 0.0
H1596 H 0.95505 0.7958 0.26395 0.0
H1597 H 0.97753 0.78458 0.27577 0.0
H1598 H 0.97342 0.78668 0.21972 0.0
H1599 H 0.9958 0.77549 0.23151 0.0
N1600 N 0.01584 0.77694 0.25577 0.0
N1601 N 0.0156 0.7565 0.27876 0.0
C1602 C 0.25558 0.96435 0.24338 0.0
C1603 C 0.23971 0.9626 0.24312 0.0
C1604 C 0.26232 0.97728 0.24975 0.0
C1605 C 0.25332 0.98856 0.25623 0.0
C1606 C 0.23076 0.97389 0.24962 0.0
C1607 C 0.23749 0.98676 0.256 0.0
C1608 C 0.26009 1.00267 0.26251 0.0
C1609 C 0.27776 0.96443 0.29134 0.0
C1610 C 0.29362 0.96294 0.29103 0.0
C1611 C 0.27086 0.97741 0.28546 0.0
C1612 C 0.27966 0.98908 0.27895 0.0
C1613 C 0.30241 0.97473 0.2847 0.0
C1614 C 0.29551 0.9877 0.27884 0.0
C1615 C 0.27255 1.00296 0.2727 0.0
C1616 C 0.27313 0.06792 0.29308 0.0
C1617 C 0.28876 0.07122 0.29325 0.0
C1618 C 0.26761 0.05454 0.28661 0.0
C1619 C 0.27759 0.0442 0.28004 0.0
C1620 C 0.29879 0.06064 0.2871 0.0
C1621 C 0.29325 0.04723 0.2806 0.0
C1622 C 0.27176 0.03003 0.27304 0.0
C1623 C 0.25424 0.06834 0.24416 0.0
C1624 C 0.23835 0.06933 0.24349 0.0
C1625 C 0.26118 0.05554 0.25038 0.0
C1626 C 0.25235 0.04357 0.25632 0.0
C1627 C 0.22956 0.05733 0.24937 0.0
C1628 C 0.23649 0.04455 0.25561 0.0
C1629 C 0.25947 0.02972 0.26267 0.0
H1630 H 0.26274 0.95587 0.23838 0.0
H1631 H 0.27454 0.97855 0.24939 0.0
H1632 H 0.21852 0.97273 0.24985 0.0
H1633 H 0.23029 0.9953 0.26086 0.0
H1634 H 0.27067 0.95549 0.29599 0.0
H1635 H 0.25865 0.97833 0.28604 0.0
H1636 H 0.31465 0.97396 0.2844 0.0
H1637 H 0.30256 0.9966 0.27404 0.0
H1638 H 0.26516 0.07561 0.29816 0.0
H1639 H 0.25553 0.05224 0.28684 0.0
H1640 H 0.31089 0.06282 0.28716 0.0
H1641 H 0.30119 0.03934 0.2758 0.0
H1642 H 0.26131 0.07736 0.23962 0.0
H1643 H 0.27343 0.05492 0.25038 0.0
H1644 H 0.2173 0.05787 0.24929 0.0
H1645 H 0.22942 0.03547 0.26004 0.0
N1646 N 0.25407 0.01606 0.25797 0.0
N1647 N 0.27791 0.01664 0.2775 0.0
C1648 C 0.96305 0.74388 0.75468 0.0
C1649 C 0.9611 0.74533 0.73892 0.0
C1650 C 0.97634 0.74919 0.7617 0.0
C1651 C 0.9879 0.75609 0.75309 0.0
C1652 C 0.97283 0.75189 0.73031 0.0
C1653 C 0.98612 0.75715 0.73731 0.0
C1654 C 1.00208 0.76176 0.76031 0.0
C1655 C 0.9643 0.79079 0.77769 0.0
C1656 C 0.96215 0.78991 0.79346 0.0
C1657 C 0.97727 0.78475 0.77104 0.0
C1658 C 0.98833 0.77758 0.77999 0.0
C1659 C 0.9734 0.78304 0.80242 0.0
C1660 C 0.98637 0.777 0.79576 0.0
C1661 C 1.00227 0.77128 0.77315 0.0
C1662 C 0.06842 0.78909 0.77852 0.0
C1663 C 0.06991 0.78905 0.79438 0.0
C1664 C 0.0553 0.78327 0.77162 0.0
C1665 C 0.04357 0.77691 0.78042 0.0
C1666 C 0.05809 0.78294 0.80318 0.0
C1667 C 0.04504 0.77698 0.79627 0.0
C1668 C 0.02942 0.77091 0.77335 0.0
C1669 C 0.06761 0.74273 0.75532 0.0
C1670 C 0.06954 0.74392 0.73956 0.0
C1671 C 0.05452 0.74829 0.76221 0.0
C1672 C 0.04315 0.75523 0.75346 0.0
C1673 C 0.05792 0.75041 0.7308 0.0
C1674 C 0.04486 0.75595 0.73767 0.0
C1675 C 0.02922 0.76134 0.76052 0.0
H1676 H 0.95423 0.73877 0.76157 0.0
H1677 H 0.97759 0.74785 0.77384 0.0
H1678 H 0.97178 0.75285 0.71811 0.0
H1679 H 0.99496 0.7622 0.73041 0.0
H1680 H 0.95606 0.79638 0.77052 0.0
H1681 H 0.97873 0.78584 0.75891 0.0
H1682 H 0.9721 0.78219 0.81459 0.0
H1683 H 0.9948 0.77171 0.80294 0.0
H1684 H 0.07731 0.79387 0.77149 0.0
H1685 H 0.05427 0.7839 0.7594 0.0
H1686 H 0.05901 0.78261 0.81542 0.0
H1687 H 0.03612 0.7723 0.80334 0.0
H1688 H 0.07631 0.73767 0.76235 0.0
H1689 H 0.0533 0.74716 0.77437 0.0
H1690 H 0.0589 0.75114 0.71859 0.0
H1691 H 0.03616 0.76101 0.73064 0.0
N1692 N 0.01555 0.75727 0.75447 0.0
N1693 N 0.01593 0.77537 0.77919 0.0
C1694 C 0.24002 0.96437 0.77478 0.0
C1695 C 0.23927 0.96181 0.7905 0.0
C1696 C 0.24681 0.97755 0.76902 0.0
C1697 C 0.25314 0.98838 0.77886 0.0
C1698 C 0.24561 0.97268 0.80032 0.0
C1699 C 0.25234 0.98589 0.79455 0.0
C1700 C 0.26018 1.00251 0.77292 0.0
C1701 C 0.29001 0.96435 0.75898 0.0
C1702 C 0.29087 0.96212 0.74324 0.0
C1703 C 0.28367 0.97751 0.76482 0.0
C1704 C 0.27792 0.98871 0.75508 0.0
C1705 C 0.28552 0.97353 0.73349 0.0
C1706 C 0.27916 0.98672 0.73935 0.0
C1707 C 0.27113 1.00271 0.76125 0.0
C1708 C 0.29328 0.06715 0.76126 0.0
C1709 C 0.29404 0.07024 0.74564 0.0
C1710 C 0.28601 0.05404 0.76658 0.0
C1711 C 0.27918 0.04384 0.75639 0.0
C1712 C 0.28723 0.06002 0.73546 0.0
C1713 C 0.27999 0.04687 0.74079 0.0
C1714 C 0.27174 0.02975 0.76193 0.0
C1715 C 0.2441 0.06876 0.77865 0.0
C1716 C 0.24348 0.06988 0.79452 0.0
C1717 C 0.24962 0.05568 0.77179 0.0
C1718 C 0.25474 0.04348 0.78067 0.0
C1719 C 0.2481 0.05746 0.80335 0.0
C1720 C 0.25363 0.04441 0.7965 0.0
C1721 C 0.26084 0.02955 0.77366 0.0
H1722 H 0.23511 0.95629 0.76693 0.0
H1723 H 0.24696 0.97936 0.75687 0.0
H1724 H 0.24549 0.97091 0.81247 0.0
H1725 H 0.25712 0.99409 0.80236 0.0
H1726 H 0.29447 0.95601 0.76679 0.0
H1727 H 0.28339 0.97898 0.77699 0.0
H1728 H 0.28611 0.97218 0.72132 0.0
H1729 H 0.275 0.99528 0.7316 0.0
H1730 H 0.29828 0.0749 0.76938 0.0
H1731 H 0.28584 0.05182 0.77866 0.0
H1732 H 0.28772 0.06209 0.72336 0.0
H1733 H 0.27494 0.03909 0.73272 0.0
H1734 H 0.2405 0.07809 0.77154 0.0
H1735 H 0.24985 0.0551 0.75954 0.0
H1736 H 0.24736 0.0578 0.81559 0.0
H1737 H 0.25724 0.03508 0.80362 0.0
N1738 N 0.25557 0.01592 0.77872 0.0
N1739 N 0.27639 0.01633 0.75614 0.0
C1740 C 0.06882 0.29014 0.75818 0.0
C1741 C 0.07043 0.2909 0.74236 0.0
C1742 C 0.05547 0.28437 0.76464 0.0
C1743 C 0.04354 0.27906 0.75539 0.0
C1744 C 0.0583 0.28605 0.73314 0.0
C1745 C 0.04499 0.28023 0.73959 0.0
C1746 C 0.02938 0.27265 0.762 0.0
C1747 C 0.06706 0.24161 0.77561 0.0
C1748 C 0.06977 0.24082 0.79131 0.0
C1749 C 0.0539 0.24832 0.76993 0.0
C1750 C 0.0432 0.25453 0.7798 0.0
C1751 C 0.05882 0.24661 0.8012 0.0
C1752 C 0.04565 0.25336 0.7955 0.0
C1753 C 0.02922 0.26175 0.77382 0.0
C1754 C 0.96387 0.2418 0.7757 0.0
C1755 C 0.96127 0.24125 0.79139 0.0
C1756 C 0.97707 0.24855 0.76994 0.0
C1757 C 0.98792 0.25498 0.77976 0.0
C1758 C 0.97226 0.24746 0.80122 0.0
C1759 C 0.9855 0.25418 0.79545 0.0
C1760 C 1.00208 0.26196 0.77376 0.0
C1761 C 0.96334 0.29075 0.75741 0.0
C1762 C 0.96207 0.29196 0.74157 0.0
C1763 C 0.97637 0.28465 0.7641 0.0
C1764 C 0.98826 0.27932 0.75507 0.0
C1765 C 0.97406 0.28685 0.73257 0.0
C1766 C 0.98703 0.28068 0.73925 0.0
C1767 C 1.00223 0.2728 0.76189 0.0
H1768 H 0.07782 0.29416 0.76558 0.0
H1769 H 0.05447 0.28412 0.77686 0.0
H1770 H 0.05921 0.28653 0.72091 0.0
H1771 H 0.03591 0.27638 0.7322 0.0
H1772 H 0.07503 0.23684 0.76771 0.0
H1773 H 0.05205 0.24855 0.75779 0.0
H1774 H 0.06055 0.24608 0.81335 0.0
H1775 H 0.03747 0.25786 0.80335 0.0
H1776 H 0.95564 0.23704 0.76785 0.0
H1777 H 0.97884 0.24863 0.7578 0.0
H1778 H 0.97074 0.2469 0.81338 0.0
H1779 H 0.99381 0.25885 0.80326 0.0
H1780 H 0.95432 0.2947 0.76462 0.0
H1781 H 0.97717 0.28421 0.77634 0.0
H1782 H 0.97332 0.28741 0.72033 0.0
H1783 H 0.99605 0.27675 0.73201 0.0
N1784 N 0.01588 0.27762 0.75646 0.0
N1785 N 0.01558 0.25695 0.77931 0.0
C1786 C 0.7564 0.96393 0.74417 0.0
C1787 C 0.74056 0.96192 0.74366 0.0
C1788 C 0.76283 0.97726 0.74996 0.0
C1789 C 0.75357 0.98873 0.75571 0.0
C1790 C 0.73132 0.97354 0.74911 0.0
C1791 C 0.73776 0.98681 0.75499 0.0
C1792 C 0.76011 1.00292 0.76207 0.0
C1793 C 0.7771 0.96481 0.79152 0.0
C1794 C 0.79295 0.96313 0.79114 0.0
C1795 C 0.77032 0.97783 0.7856 0.0
C1796 C 0.77923 0.98942 0.77909 0.0
C1797 C 0.80184 0.97494 0.785 0.0
C1798 C 0.79506 0.98796 0.77911 0.0
C1799 C 0.77222 1.00326 0.77265 0.0
C1800 C 0.77221 0.06793 0.79371 0.0
C1801 C 0.78787 0.07052 0.79551 0.0
C1802 C 0.7668 0.05494 0.78639 0.0
C1803 C 0.77694 0.04442 0.78036 0.0
C1804 C 0.79801 0.05997 0.78951 0.0
C1805 C 0.79259 0.04701 0.78211 0.0
C1806 C 0.77132 0.03032 0.77301 0.0
C1807 C 0.7546 0.06897 0.74429 0.0
C1808 C 0.73874 0.06986 0.74298 0.0
C1809 C 0.76138 0.05603 0.7504 0.0
C1810 C 0.75242 0.04384 0.75565 0.0
C1811 C 0.72981 0.05756 0.74798 0.0
C1812 C 0.73658 0.04467 0.75416 0.0
C1813 C 0.75939 0.03 0.76221 0.0
H1814 H 0.76385 0.95512 0.74027 0.0
H1815 H 0.77505 0.97859 0.74995 0.0
H1816 H 0.71909 0.9724 0.74875 0.0
H1817 H 0.73034 0.99553 0.75917 0.0
H1818 H 0.76995 0.95613 0.79656 0.0
H1819 H 0.75811 0.97888 0.78618 0.0
H1820 H 0.81407 0.97401 0.78455 0.0
H1821 H 0.80219 0.9968 0.77431 0.0
H1822 H 0.7641 0.07595 0.79798 0.0
H1823 H 0.75467 0.05307 0.78561 0.0
H1824 H 0.81014 0.06161 0.79079 0.0
H1825 H 0.80065 0.03899 0.77772 0.0
H1826 H 0.76176 0.07822 0.74041 0.0
H1827 H 0.77364 0.05554 0.75093 0.0
H1828 H 0.71756 0.05801 0.74732 0.0
H1829 H 0.72941 0.03542 0.75802 0.0
N1830 N 0.75418 0.0163 0.75733 0.0
N1831 N 0.77736 0.01694 0.77764 0.0
C1832 C 0.25964 0.74021 0.56917 0.0
C1833 C 0.24396 0.73779 0.57099 0.0
C1834 C 0.26529 0.74736 0.55615 0.0
C1835 C 0.25537 0.75253 0.54478 0.0
C1836 C 0.23405 0.74294 0.5596 0.0
C1837 C 0.2397 0.75014 0.5466 0.0
C1838 C 0.26121 0.75973 0.53065 0.0
C1839 C 0.27471 0.79095 0.56858 0.0
C1840 C 0.29045 0.79251 0.57079 0.0
C1841 C 0.2689 0.78397 0.55556 0.0
C1842 C 0.27871 0.77832 0.54448 0.0
C1843 C 0.30025 0.78709 0.55958 0.0
C1844 C 0.29443 0.78015 0.54652 0.0
C1845 C 0.27264 0.77111 0.5305 0.0
C1846 C 0.27297 0.79183 0.46541 0.0
C1847 C 0.28864 0.7934 0.46287 0.0
C1848 C 0.26756 0.78464 0.4785 0.0
C1849 C 0.2777 0.77865 0.48924 0.0
C1850 C 0.29877 0.78744 0.47364 0.0
C1851 C 0.29335 0.78026 0.48675 0.0
C1852 C 0.27209 0.7713 0.50336 0.0
C1853 C 0.25622 0.74216 0.46449 0.0
C1854 C 0.24039 0.74037 0.46338 0.0
C1855 C 0.26287 0.74841 0.47751 0.0
C1856 C 0.25379 0.75333 0.48956 0.0
C1857 C 0.23136 0.74508 0.47552 0.0
C1858 C 0.23799 0.75141 0.48849 0.0
C1859 C 0.26058 0.75999 0.50352 0.0
H1860 H 0.26757 0.73659 0.57783 0.0
H1861 H 0.27745 0.74866 0.55491 0.0
H1862 H 0.22193 0.74117 0.56063 0.0
H1863 H 0.23181 0.75388 0.53795 0.0
H1864 H 0.26687 0.79507 0.57698 0.0
H1865 H 0.25672 0.78311 0.55409 0.0
H1866 H 0.31242 0.78844 0.56079 0.0
H1867 H 0.30223 0.7761 0.53804 0.0
H1868 H 0.26487 0.79614 0.45724 0.0
H1869 H 0.25543 0.78388 0.48028 0.0
H1870 H 0.31091 0.78856 0.47203 0.0
H1871 H 0.3014 0.77587 0.49493 0.0
H1872 H 0.26346 0.73852 0.45536 0.0
H1873 H 0.27511 0.7493 0.47819 0.0
H1874 H 0.21912 0.74408 0.4749 0.0
H1875 H 0.23073 0.75501 0.49763 0.0
N1876 N 0.25558 0.75474 0.51716 0.0
N1877 N 0.27769 0.77633 0.51686 0.0
C1878 C 0.78879 0.75465 0.56975 0.0
C1879 C 0.78776 0.73889 0.57179 0.0
C1880 C 0.78313 0.76145 0.55657 0.0
C1881 C 0.77624 0.75263 0.54519 0.0
C1882 C 0.78119 0.73007 0.56022 0.0
C1883 C 0.77555 0.73687 0.54703 0.0
C1884 C 0.77019 0.75968 0.53115 0.0
C1885 C 0.74148 0.77612 0.56972 0.0
C1886 C 0.74215 0.79187 0.57184 0.0
C1887 C 0.74731 0.76964 0.55655 0.0
C1888 C 0.75404 0.77876 0.5453 0.0
C1889 C 0.74859 0.80098 0.56041 0.0
C1890 C 0.75441 0.79451 0.54727 0.0
C1891 C 0.76026 0.77214 0.53122 0.0
C1892 C 0.74272 0.77826 0.46528 0.0
C1893 C 0.74304 0.7941 0.46378 0.0
C1894 C 0.74846 0.77131 0.47835 0.0
C1895 C 0.75476 0.78006 0.49012 0.0
C1896 C 0.74922 0.80282 0.47561 0.0
C1897 C 0.7549 0.79588 0.4887 0.0
C1898 C 0.76073 0.77289 0.50414 0.0
C1899 C 0.79205 0.75917 0.46676 0.0
C1900 C 0.79261 0.74353 0.46404 0.0
C1901 C 0.78491 0.76471 0.47967 0.0
C1902 C 0.77792 0.75475 0.49004 0.0
C1903 C 0.78562 0.73357 0.47439 0.0
C1904 C 0.77846 0.73913 0.48734 0.0
C1905 C 0.77081 0.76054 0.50407 0.0
H1906 H 0.79418 0.76171 0.57824 0.0
H1907 H 0.78424 0.77359 0.55521 0.0
H1908 H 0.78024 0.7179 0.56145 0.0
H1909 H 0.77045 0.72982 0.53835 0.0
H1910 H 0.73623 0.76883 0.57813 0.0
H1911 H 0.74641 0.7575 0.55511 0.0
H1912 H 0.74928 0.81315 0.56171 0.0
H1913 H 0.75941 0.80181 0.5387 0.0
H1914 H 0.73815 0.77125 0.45629 0.0
H1915 H 0.7479 0.7591 0.4793 0.0
H1916 H 0.74952 0.81505 0.4748 0.0
H1917 H 0.75956 0.80287 0.49766 0.0
H1918 H 0.79717 0.76713 0.4589 0.0
H1919 H 0.78503 0.77679 0.48164 0.0
H1920 H 0.78594 0.72146 0.47262 0.0
H1921 H 0.77331 0.73121 0.49524 0.0
N1922 N 0.77502 0.75434 0.51758 0.0
N1923 N 0.75598 0.77827 0.51771 0.0
C1924 C 0.78917 0.27617 0.46436 0.0
C1925 C 0.78996 0.292 0.46276 0.0
C1926 C 0.78326 0.26955 0.47755 0.0
C1927 C 0.77769 0.27861 0.4893 0.0
C1928 C 0.78465 0.30103 0.47464 0.0
C1929 C 0.77867 0.29441 0.48778 0.0
C1930 C 0.77134 0.27183 0.5034 0.0
C1931 C 0.74049 0.25671 0.46549 0.0
C1932 C 0.7401 0.24099 0.46315 0.0
C1933 C 0.74718 0.26279 0.47855 0.0
C1934 C 0.75384 0.2533 0.48947 0.0
C1935 C 0.74667 0.23149 0.47415 0.0
C1936 C 0.75336 0.23759 0.48723 0.0
C1937 C 0.7608 0.25962 0.50348 0.0
C1938 C 0.74226 0.25608 0.56925 0.0
C1939 C 0.74225 0.24034 0.57157 0.0
C1940 C 0.74817 0.26239 0.55592 0.0
C1941 C 0.75438 0.25309 0.54471 0.0
C1942 C 0.74796 0.23103 0.56011 0.0
C1943 C 0.75393 0.23734 0.5468 0.0
C1944 C 0.76096 0.25963 0.53061 0.0
C1945 C 0.78965 0.2766 0.56953 0.0
C1946 C 0.79031 0.29243 0.57084 0.0
C1947 C 0.7837 0.26984 0.55644 0.0
C1948 C 0.77792 0.27877 0.54454 0.0
C1949 C 0.78479 0.30134 0.55884 0.0
C1950 C 0.77873 0.29459 0.54581 0.0
C1951 C 0.77147 0.27186 0.53054 0.0
H1952 H 0.79295 0.26888 0.45535 0.0
H1953 H 0.78307 0.25734 0.47855 0.0
H1954 H 0.78521 0.31325 0.47381 0.0
H1955 H 0.77463 0.30167 0.49672 0.0
H1956 H 0.73537 0.26431 0.45732 0.0
H1957 H 0.74702 0.27492 0.48017 0.0
H1958 H 0.74679 0.21936 0.47258 0.0
H1959 H 0.75833 0.23002 0.49552 0.0
H1960 H 0.73756 0.26352 0.57769 0.0
H1961 H 0.74786 0.27454 0.55437 0.0
H1962 H 0.74805 0.21886 0.56155 0.0
H1963 H 0.75845 0.22992 0.53825 0.0
H1964 H 0.79394 0.26946 0.57856 0.0
H1965 H 0.78369 0.25762 0.5556 0.0
H1966 H 0.78495 0.31357 0.55961 0.0
H1967 H 0.77446 0.30175 0.53679 0.0
N1968 N 0.77614 0.27749 0.51693 0.0
N1969 N 0.75615 0.25395 0.51708 0.0
C1970 C 0.25986 0.29201 0.4662 0.0
C1971 C 0.24421 0.29257 0.46313 0.0
C1972 C 0.26521 0.28545 0.47963 0.0
C1973 C 0.25503 0.27924 0.49022 0.0
C1974 C 0.23403 0.28675 0.47395 0.0
C1975 C 0.23939 0.2802 0.48739 0.0
C1976 C 0.26058 0.27209 0.50441 0.0
C1977 C 0.27613 0.24331 0.46566 0.0
C1978 C 0.29195 0.24191 0.46461 0.0
C1979 C 0.26955 0.24932 0.47869 0.0
C1980 C 0.27869 0.25439 0.49079 0.0
C1981 C 0.30105 0.24673 0.47683 0.0
C1982 C 0.29448 0.25282 0.4898 0.0
C1983 C 0.27196 0.26091 0.50469 0.0
C1984 C 0.27135 0.23975 0.56956 0.0
C1985 C 0.28698 0.23818 0.57227 0.0
C1986 C 0.26614 0.24706 0.55648 0.0
C1987 C 0.27646 0.25309 0.54591 0.0
C1988 C 0.29729 0.24423 0.56171 0.0
C1989 C 0.29207 0.25149 0.54858 0.0
C1990 C 0.27106 0.26046 0.53177 0.0
C1991 C 0.25735 0.2906 0.57004 0.0
C1992 C 0.24165 0.29276 0.57147 0.0
C1993 C 0.26327 0.28377 0.55712 0.0
C1994 C 0.25361 0.27874 0.54542 0.0
C1995 C 0.23202 0.28804 0.5596 0.0
C1996 C 0.23796 0.28114 0.54671 0.0
C1997 C 0.2598 0.27175 0.5315 0.0
H1998 H 0.26797 0.29682 0.45831 0.0
H1999 H 0.27731 0.2853 0.48176 0.0
H2000 H 0.22191 0.28708 0.47192 0.0
H2001 H 0.23132 0.27564 0.49547 0.0
H2002 H 0.26884 0.23957 0.45647 0.0
H2003 H 0.25731 0.24992 0.47932 0.0
H2004 H 0.31329 0.24599 0.47625 0.0
H2005 H 0.30178 0.25655 0.49899 0.0
H2006 H 0.26315 0.23532 0.57759 0.0
H2007 H 0.25403 0.24786 0.55455 0.0
H2008 H 0.30939 0.24311 0.56348 0.0
H2009 H 0.30024 0.25593 0.54053 0.0
H2010 H 0.26507 0.29421 0.57893 0.0
H2011 H 0.27544 0.28259 0.55623 0.0
H2012 H 0.21993 0.28993 0.56015 0.0
H2013 H 0.23029 0.27763 0.53774 0.0
N2014 N 0.25492 0.27701 0.51781 0.0
N2015 N 0.27677 0.2556 0.51837 0.0
C2016 C 0.74017 0.46392 0.77411 0.0
C2017 C 0.739 0.46151 0.78982 0.0
C2018 C 0.74702 0.4771 0.76842 0.0
C2019 C 0.75287 0.48813 0.77834 0.0
C2020 C 0.74465 0.47265 0.79972 0.0
C2021 C 0.75144 0.48587 0.79403 0.0
C2022 C 0.75991 0.5023 0.77244 0.0
C2023 C 0.79127 0.4648 0.75969 0.0
C2024 C 0.793 0.46265 0.74402 0.0
C2025 C 0.78412 0.47768 0.76521 0.0
C2026 C 0.77832 0.48861 0.75518 0.0
C2027 C 0.7872 0.47357 0.73398 0.0
C2028 C 0.78006 0.4865 0.73952 0.0
C2029 C 0.77109 0.50253 0.761 0.0
C2030 C 0.79078 0.56811 0.75967 0.0
C2031 C 0.79218 0.57042 0.74398 0.0
C2032 C 0.78405 0.55487 0.76535 0.0
C2033 C 0.77832 0.54376 0.75543 0.0
C2034 C 0.78688 0.55912 0.73407 0.0
C2035 C 0.78003 0.54592 0.73975 0.0
C2036 C 0.77121 0.5296 0.76129 0.0
C2037 C 0.74202 0.56801 0.7771 0.0
C2038 C 0.74146 0.56944 0.79296 0.0
C2039 C 0.74797 0.55499 0.77049 0.0
C2040 C 0.75364 0.54322 0.7796 0.0
C2041 C 0.74692 0.55754 0.80202 0.0
C2042 C 0.75283 0.54454 0.79542 0.0
C2043 C 0.76013 0.52935 0.77286 0.0
H2044 H 0.73584 0.45556 0.76622 0.0
H2045 H 0.74761 0.47874 0.75627 0.0
H2046 H 0.74362 0.47123 0.81187 0.0
H2047 H 0.75568 0.4943 0.80189 0.0
H2048 H 0.79546 0.4565 0.7677 0.0
H2049 H 0.78328 0.47916 0.77734 0.0
H2050 H 0.78844 0.47224 0.72186 0.0
H2051 H 0.77583 0.49483 0.73156 0.0
H2052 H 0.79515 0.57644 0.76757 0.0
H2053 H 0.78346 0.55326 0.7775 0.0
H2054 H 0.78791 0.56057 0.72193 0.0
H2055 H 0.77592 0.53744 0.73187 0.0
H2056 H 0.73804 0.57704 0.76982 0.0
H2057 H 0.74815 0.55413 0.75825 0.0
H2058 H 0.74652 0.55826 0.81426 0.0
H2059 H 0.75699 0.53557 0.80269 0.0
N2060 N 0.75498 0.5157 0.77799 0.0
N2061 N 0.77619 0.51618 0.75579 0.0
C2062 C 0.25646 0.4647 0.74373 0.0
C2063 C 0.24065 0.46241 0.744 0.0
C2064 C 0.26298 0.47785 0.74984 0.0
C2065 C 0.25382 0.48892 0.75644 0.0
C2066 C 0.23152 0.47365 0.75034 0.0
C2067 C 0.23803 0.48678 0.75643 0.0
C2068 C 0.26044 0.50304 0.76282 0.0
C2069 C 0.2781 0.4647 0.79171 0.0
C2070 C 0.29399 0.4636 0.79207 0.0
C2071 C 0.27113 0.47754 0.78559 0.0
C2072 C 0.2799 0.48943 0.77942 0.0
C2073 C 0.30274 0.47554 0.78598 0.0
C2074 C 0.29577 0.48834 0.77983 0.0
C2075 C 0.27277 0.50331 0.77316 0.0
C2076 C 0.2732 0.56812 0.79393 0.0
C2077 C 0.28883 0.57141 0.79416 0.0
C2078 C 0.2677 0.55478 0.78735 0.0
C2079 C 0.2777 0.54448 0.78074 0.0
C2080 C 0.29887 0.56088 0.78796 0.0
C2081 C 0.29336 0.54752 0.78137 0.0
C2082 C 0.27192 0.53036 0.77361 0.0
C2083 C 0.25494 0.5692 0.74544 0.0
C2084 C 0.23906 0.57026 0.74445 0.0
C2085 C 0.26171 0.55616 0.75131 0.0
C2086 C 0.25277 0.54402 0.75668 0.0
C2087 C 0.23014 0.55798 0.74955 0.0
C2088 C 0.23692 0.54499 0.75552 0.0
C2089 C 0.25977 0.5301 0.76307 0.0
H2090 H 0.26377 0.45644 0.73857 0.0
H2091 H 0.27516 0.47943 0.74926 0.0
H2092 H 0.21931 0.47222 0.75074 0.0
H2093 H 0.23071 0.49521 0.76131 0.0
H2094 H 0.27106 0.45574 0.79641 0.0
H2095 H 0.25888 0.47824 0.78585 0.0
H2096 H 0.315 0.47493 0.78584 0.0
H2097 H 0.30281 0.49736 0.77524 0.0
H2098 H 0.26521 0.57577 0.79903 0.0
H2099 H 0.25561 0.55247 0.7875 0.0
H2100 H 0.31098 0.56307 0.78805 0.0
H2101 H 0.30131 0.53966 0.77653 0.0
H2102 H 0.26215 0.57852 0.74185 0.0
H2103 H 0.27397 0.55559 0.75163 0.0
H2104 H 0.21788 0.55839 0.74884 0.0
H2105 H 0.22974 0.53575 0.7594 0.0
N2106 N 0.25443 0.51644 0.75825 0.0
N2107 N 0.27803 0.51697 0.77809 0.0
C2108 C 0.24138 0.46351 0.27369 0.0
C2109 C 0.24088 0.4608 0.28939 0.0
C2110 C 0.24775 0.47691 0.26798 0.0
C2111 C 0.25383 0.48785 0.27785 0.0
C2112 C 0.2466 0.47193 0.29927 0.0
C2113 C 0.25296 0.48535 0.29355 0.0
C2114 C 0.26065 0.50208 0.2719 0.0
C2115 C 0.29113 0.46447 0.25699 0.0
C2116 C 0.29256 0.46295 0.24121 0.0
C2117 C 0.28426 0.47722 0.26317 0.0
C2118 C 0.2784 0.48861 0.2537 0.0
C2119 C 0.28674 0.47436 0.23175 0.0
C2120 C 0.27983 0.4871 0.23793 0.0
C2121 C 0.27147 0.50243 0.26011 0.0
C2122 C 0.2914 0.56777 0.25814 0.0
C2123 C 0.29264 0.5698 0.24239 0.0
C2124 C 0.28446 0.55475 0.26411 0.0
C2125 C 0.27833 0.54365 0.25444 0.0
C2126 C 0.28655 0.55868 0.23273 0.0
C2127 C 0.27955 0.5457 0.2387 0.0
C2128 C 0.27145 0.5295 0.26054 0.0
C2129 C 0.24251 0.56777 0.27678 0.0
C2130 C 0.24169 0.56907 0.29264 0.0
C2131 C 0.24853 0.5548 0.27015 0.0
C2132 C 0.25415 0.54298 0.27922 0.0
C2133 C 0.24705 0.5571 0.30168 0.0
C2134 C 0.25311 0.54417 0.29504 0.0
C2135 C 0.2607 0.52915 0.27241 0.0
H2136 H 0.23664 0.45537 0.26581 0.0
H2137 H 0.24781 0.47877 0.25584 0.0
H2138 H 0.2463 0.47019 0.31142 0.0
H2139 H 0.25741 0.4937 0.30139 0.0
H2140 H 0.29565 0.45594 0.26456 0.0
H2141 H 0.28376 0.47827 0.27537 0.0
H2142 H 0.28746 0.47341 0.21954 0.0
H2143 H 0.27549 0.49574 0.23038 0.0
H2144 H 0.29614 0.57609 0.26585 0.0
H2145 H 0.28412 0.55326 0.27629 0.0
H2146 H 0.28716 0.56004 0.22055 0.0
H2147 H 0.27501 0.53727 0.231 0.0
H2148 H 0.2387 0.57686 0.26949 0.0
H2149 H 0.2488 0.55404 0.25791 0.0
H2150 H 0.24647 0.5577 0.31391 0.0
H2151 H 0.25719 0.53516 0.3023 0.0
N2152 N 0.2558 0.51544 0.27765 0.0
N2153 N 0.27633 0.51613 0.25484 0.0
C2154 C 0.75506 0.46408 0.2432 0.0
C2155 C 0.73923 0.462 0.24341 0.0
C2156 C 0.76171 0.47726 0.24912 0.0
C2157 C 0.75266 0.48852 0.25555 0.0
C2158 C 0.73021 0.4734 0.24963 0.0
C2159 C 0.73685 0.48655 0.25553 0.0
C2160 C 0.75945 0.50257 0.26197 0.0
C2161 C 0.77579 0.4637 0.29052 0.0
C2162 C 0.79161 0.46192 0.29048 0.0
C2163 C 0.76926 0.47694 0.28483 0.0
C2164 C 0.77841 0.4886 0.27878 0.0
C2165 C 0.80077 0.47381 0.28494 0.0
C2166 C 0.79423 0.48702 0.27918 0.0
C2167 C 0.77165 0.50263 0.27244 0.0
C2168 C 0.77364 0.56761 0.293 0.0
C2169 C 0.78941 0.56989 0.29428 0.0
C2170 C 0.76772 0.55462 0.28607 0.0
C2171 C 0.77743 0.54371 0.28001 0.0
C2172 C 0.7991 0.55877 0.28858 0.0
C2173 C 0.79317 0.54582 0.28154 0.0
C2174 C 0.77131 0.52971 0.27286 0.0
C2175 C 0.75484 0.56862 0.24418 0.0
C2176 C 0.73899 0.56974 0.24306 0.0
C2177 C 0.7615 0.55562 0.2503 0.0
C2178 C 0.75242 0.54361 0.25576 0.0
C2179 C 0.72993 0.55763 0.24829 0.0
C2180 C 0.73658 0.54469 0.2545 0.0
C2181 C 0.75922 0.52964 0.26221 0.0
H2182 H 0.76232 0.45544 0.23862 0.0
H2183 H 0.77392 0.47863 0.24867 0.0
H2184 H 0.71797 0.47217 0.24984 0.0
H2185 H 0.72962 0.49513 0.26028 0.0
H2186 H 0.76846 0.45492 0.29509 0.0
H2187 H 0.75705 0.47808 0.2852 0.0
H2188 H 0.813 0.47277 0.28482 0.0
H2189 H 0.80155 0.49591 0.27479 0.0
H2190 H 0.76586 0.57591 0.29737 0.0
H2191 H 0.75553 0.55307 0.28557 0.0
H2192 H 0.81128 0.55993 0.28979 0.0
H2193 H 0.80091 0.53744 0.27726 0.0
H2194 H 0.76209 0.57772 0.24013 0.0
H2195 H 0.77375 0.55492 0.25066 0.0
H2196 H 0.71768 0.55826 0.24779 0.0
H2197 H 0.72931 0.53558 0.25851 0.0
N2198 N 0.75371 0.51606 0.25734 0.0
N2199 N 0.77712 0.5162 0.2774 0.0
C2200 C 0.56777 0.25774 0.74271 0.0
C2201 C 0.56952 0.24202 0.74126 0.0
C2202 C 0.55478 0.26368 0.74941 0.0
C2203 C 0.5433 0.25401 0.75496 0.0
C2204 C 0.55801 0.23238 0.74682 0.0
C2205 C 0.54499 0.23832 0.75347 0.0
C2206 C 0.52927 0.26018 0.76174 0.0
C2207 C 0.56711 0.27236 0.79386 0.0
C2208 C 0.56986 0.28798 0.79525 0.0
C2209 C 0.55403 0.267 0.78655 0.0
C2210 C 0.5435 0.27715 0.78034 0.0
C2211 C 0.55935 0.29813 0.78903 0.0
C2212 C 0.54622 0.29276 0.78177 0.0
C2213 C 0.52939 0.27155 0.77296 0.0
C2214 C 0.46351 0.27418 0.79122 0.0
C2215 C 0.46184 0.28988 0.79287 0.0
C2216 C 0.4766 0.26827 0.78469 0.0
C2217 C 0.48822 0.27795 0.77946 0.0
C2218 C 0.47365 0.29953 0.78803 0.0
C2219 C 0.48671 0.29362 0.78142 0.0
C2220 C 0.50225 0.27183 0.77258 0.0
C2221 C 0.46384 0.25829 0.74143 0.0
C2222 C 0.46193 0.24261 0.73957 0.0
C2223 C 0.47684 0.26416 0.74851 0.0
C2224 C 0.48807 0.25443 0.75416 0.0
C2225 C 0.47319 0.2329 0.74515 0.0
C2226 C 0.48616 0.23876 0.75229 0.0
C2227 C 0.50214 0.26044 0.76135 0.0
H2228 H 0.57635 0.26548 0.73841 0.0
H2229 H 0.55361 0.27584 0.75003 0.0
H2230 H 0.55912 0.22021 0.74615 0.0
H2231 H 0.53629 0.23063 0.75761 0.0
H2232 H 0.57509 0.26428 0.79842 0.0
H2233 H 0.55206 0.25491 0.7859 0.0
H2234 H 0.56117 0.31022 0.79001 0.0
H2235 H 0.5382 0.3008 0.77719 0.0
H2236 H 0.45481 0.26643 0.79525 0.0
H2237 H 0.47768 0.25612 0.78388 0.0
H2238 H 0.47271 0.31167 0.78924 0.0
H2239 H 0.49558 0.30133 0.77768 0.0
H2240 H 0.4554 0.26604 0.7371 0.0
H2241 H 0.47821 0.27631 0.74937 0.0
H2242 H 0.47193 0.22075 0.74407 0.0
H2243 H 0.49468 0.23102 0.75647 0.0
N2244 N 0.51565 0.25502 0.75647 0.0
N2245 N 0.51589 0.27699 0.77785 0.0
C2246 C 0.46441 0.77689 0.74233 0.0
C2247 C 0.46273 0.79267 0.74176 0.0
C2248 C 0.47717 0.77046 0.74921 0.0
C2249 C 0.48839 0.77967 0.75595 0.0
C2250 C 0.474 0.80188 0.74844 0.0
C2251 C 0.48673 0.79545 0.75537 0.0
C2252 C 0.50227 0.77303 0.76282 0.0
C2253 C 0.46283 0.75545 0.79051 0.0
C2254 C 0.46093 0.73965 0.78986 0.0
C2255 C 0.47611 0.76236 0.78506 0.0
C2256 C 0.48773 0.7536 0.77884 0.0
C2257 C 0.47273 0.73091 0.78399 0.0
C2258 C 0.48599 0.7378 0.7786 0.0
C2259 C 0.50194 0.76062 0.77302 0.0
C2260 C 0.56781 0.75538 0.79185 0.0
C2261 C 0.56938 0.73956 0.79159 0.0
C2262 C 0.55474 0.76218 0.78603 0.0
C2263 C 0.54298 0.75332 0.77975 0.0
C2264 C 0.55743 0.73072 0.78565 0.0
C2265 C 0.54435 0.73752 0.77986 0.0
C2266 C 0.52907 0.76035 0.77338 0.0
C2267 C 0.56755 0.7743 0.74331 0.0
C2268 C 0.5708 0.7899 0.74326 0.0
C2269 C 0.55413 0.76871 0.74968 0.0
C2270 C 0.54368 0.77857 0.75627 0.0
C2271 C 0.56014 0.79982 0.74945 0.0
C2272 C 0.54668 0.7942 0.75585 0.0
C2273 C 0.52941 0.77264 0.76306 0.0
H2274 H 0.45601 0.76951 0.73714 0.0
H2275 H 0.47836 0.75829 0.74903 0.0
H2276 H 0.47293 0.81407 0.74837 0.0
H2277 H 0.49527 0.80281 0.76036 0.0
H2278 H 0.45396 0.76245 0.79509 0.0
H2279 H 0.47732 0.77454 0.78577 0.0
H2280 H 0.47174 0.71869 0.78367 0.0
H2281 H 0.49487 0.73078 0.77407 0.0
H2282 H 0.57661 0.7625 0.79674 0.0
H2283 H 0.55378 0.77437 0.78653 0.0
H2284 H 0.55828 0.71851 0.78528 0.0
H2285 H 0.5354 0.73042 0.77521 0.0
H2286 H 0.5753 0.76642 0.73819 0.0
H2287 H 0.55185 0.75665 0.74933 0.0
H2288 H 0.56228 0.8119 0.74949 0.0
H2289 H 0.5387 0.80205 0.76066 0.0
N2290 N 0.51601 0.77858 0.75831 0.0
N2291 N 0.51536 0.75476 0.77783 0.0
C2292 C 0.46475 0.79156 0.27809 0.0
C2293 C 0.46258 0.79079 0.29386 0.0
C2294 C 0.47778 0.78557 0.27151 0.0
C2295 C 0.48888 0.77858 0.28055 0.0
C2296 C 0.4739 0.78414 0.3029 0.0
C2297 C 0.48692 0.77816 0.29632 0.0
C2298 C 0.5028 0.77215 0.27379 0.0
C2299 C 0.46346 0.74447 0.25632 0.0
C2300 C 0.46188 0.74428 0.24046 0.0
C2301 C 0.47668 0.75022 0.26309 0.0
C2302 C 0.48845 0.7563 0.25415 0.0
C2303 C 0.47377 0.75011 0.23154 0.0
C2304 C 0.48693 0.75599 0.23832 0.0
C2305 C 0.50262 0.76236 0.26113 0.0
C2306 C 0.56811 0.74298 0.25708 0.0
C2307 C 0.56996 0.7432 0.24125 0.0
C2308 C 0.55507 0.74892 0.26368 0.0
C2309 C 0.54373 0.75556 0.25464 0.0
C2310 C 0.55848 0.74959 0.23222 0.0
C2311 C 0.54549 0.75561 0.23884 0.0
C2312 C 0.52977 0.76191 0.26144 0.0
C2313 C 0.5689 0.78952 0.28001 0.0
C2314 C 0.57078 0.78798 0.29576 0.0
C2315 C 0.55564 0.78423 0.2729 0.0
C2316 C 0.54405 0.77729 0.28144 0.0
C2317 C 0.55901 0.78138 0.3043 0.0
C2318 C 0.54576 0.77617 0.29722 0.0
C2319 C 0.52993 0.7716 0.27416 0.0
H2320 H 0.45646 0.79699 0.27085 0.0
H2321 H 0.47923 0.78649 0.25936 0.0
H2322 H 0.47258 0.78337 0.31507 0.0
H2323 H 0.49538 0.77299 0.30356 0.0
H2324 H 0.45443 0.7403 0.26354 0.0
H2325 H 0.4777 0.74985 0.27531 0.0
H2326 H 0.47295 0.75001 0.2193 0.0
H2327 H 0.49591 0.7604 0.23116 0.0
H2328 H 0.57681 0.73836 0.26439 0.0
H2329 H 0.55385 0.74828 0.27587 0.0
H2330 H 0.5595 0.74982 0.22 0.0
H2331 H 0.53685 0.76047 0.23158 0.0
H2332 H 0.57775 0.79465 0.27318 0.0
H2333 H 0.55444 0.78559 0.26076 0.0
H2334 H 0.56002 0.78036 0.3165 0.0
H2335 H 0.53689 0.77107 0.30406 0.0
N2336 N 0.51645 0.77625 0.27985 0.0
N2337 N 0.51612 0.75777 0.25541 0.0
C2338 C 0.46389 0.27467 0.24314 0.0
C2339 C 0.46144 0.29036 0.24266 0.0
C2340 C 0.47714 0.26886 0.24959 0.0
C2341 C 0.48819 0.27859 0.25585 0.0
C2342 C 0.47273 0.30011 0.24847 0.0
C2343 C 0.48599 0.29428 0.25496 0.0
C2344 C 0.50224 0.27248 0.26284 0.0
C2345 C 0.46302 0.25656 0.29136 0.0
C2346 C 0.46128 0.24074 0.29224 0.0
C2347 C 0.47633 0.26306 0.28553 0.0
C2348 C 0.48804 0.25389 0.28011 0.0
C2349 C 0.47315 0.23161 0.28714 0.0
C2350 C 0.4864 0.23811 0.28122 0.0
C2351 C 0.50215 0.26054 0.27361 0.0
C2352 C 0.5686 0.25549 0.29087 0.0
C2353 C 0.56955 0.23966 0.29195 0.0
C2354 C 0.55555 0.2623 0.28496 0.0
C2355 C 0.54332 0.25339 0.27968 0.0
C2356 C 0.55723 0.23079 0.28688 0.0
C2357 C 0.54424 0.23758 0.28089 0.0
C2358 C 0.5293 0.26033 0.27342 0.0
C2359 C 0.56692 0.27449 0.24186 0.0
C2360 C 0.56972 0.29018 0.24139 0.0
C2361 C 0.55388 0.26866 0.24882 0.0
C2362 C 0.54344 0.27837 0.25564 0.0
C2363 C 0.55923 0.29988 0.24818 0.0
C2364 C 0.54616 0.29404 0.25511 0.0
C2365 C 0.52938 0.27233 0.26272 0.0
H2366 H 0.45564 0.26688 0.23834 0.0
H2367 H 0.47878 0.25674 0.24961 0.0
H2368 H 0.47121 0.31225 0.24817 0.0
H2369 H 0.49444 0.30203 0.25951 0.0
H2370 H 0.45402 0.26392 0.29498 0.0
H2371 H 0.47742 0.27527 0.28521 0.0
H2372 H 0.47221 0.2194 0.28778 0.0
H2373 H 0.49531 0.23078 0.27729 0.0
H2374 H 0.57787 0.26261 0.2948 0.0
H2375 H 0.555 0.27452 0.28465 0.0
H2376 H 0.55772 0.21856 0.28735 0.0
H2377 H 0.53497 0.23044 0.277 0.0
H2378 H 0.57469 0.26673 0.23659 0.0
H2379 H 0.55186 0.25655 0.24872 0.0
H2380 H 0.56119 0.31199 0.24826 0.0
H2381 H 0.53824 0.30176 0.26022 0.0
N2382 N 0.51585 0.27797 0.25795 0.0
N2383 N 0.51568 0.25491 0.27835 0.0
C2384 C 0.22042 0.21502 0.09902 0.0
C2385 C 0.22612 0.21908 0.11338 0.0
C2386 C 0.22591 0.22196 0.08575 0.0
C2387 C 0.23728 0.23324 0.08631 0.0
H2388 H 0.21192 0.20614 0.098 0.0
H2389 H 0.22143 0.2182 0.07493 0.0
S2390 S 0.25473 0.24915 0.1212 0.0
N2391 N 0.24296 0.23588 0.12743 0.0
N2392 N 0.25318 0.24897 0.10255 0.0
C2393 C 0.24275 0.23771 0.10063 0.0
C2394 C 0.23719 0.23063 0.11413 0.0
C2395 C 0.79407 0.21098 0.10324 0.0
C2396 C 0.80495 0.21786 0.11277 0.0
C2397 C 0.78874 0.2183 0.09015 0.0
C2398 C 0.79412 0.23276 0.08603 0.0
H2399 H 0.78974 0.19975 0.10582 0.0
H2400 H 0.78046 0.2125 0.0831 0.0
S2401 S 0.82182 0.25617 0.10759 0.0
N2402 N 0.82036 0.24034 0.11752 0.0
N2403 N 0.81044 0.254 0.09283 0.0
C2404 C 0.80491 0.23983 0.09548 0.0
C2405 C 0.8103 0.23241 0.10886 0.0
C2406 C 0.79593 0.82168 0.10177 0.0
C2407 C 0.80699 0.81505 0.11118 0.0
C2408 C 0.79062 0.8144 0.08865 0.0
C2409 C 0.79617 0.8002 0.08435 0.0
H2410 H 0.79139 0.83266 0.1045 0.0
H2411 H 0.78216 0.82001 0.08175 0.0
S2412 S 0.82453 0.77755 0.10546 0.0
N2413 N 0.82288 0.79314 0.11553 0.0
N2414 N 0.81296 0.77952 0.09083 0.0
C2415 C 0.80721 0.79342 0.09363 0.0
C2416 C 0.8126 0.80082 0.10704 0.0
C2417 C 0.23662 0.82137 0.10261 0.0
C2418 C 0.22432 0.81545 0.11096 0.0
C2419 C 0.24215 0.8139 0.08983 0.0
C2420 C 0.23558 0.80023 0.08479 0.0
H2421 H 0.24214 0.8318 0.10608 0.0
H2422 H 0.25157 0.81897 0.08374 0.0
S2423 S 0.20313 0.77995 0.10259 0.0
N2424 N 0.20561 0.79516 0.11313 0.0
N2425 N 0.21624 0.78095 0.08931 0.0
C2426 C 0.22329 0.79417 0.09302 0.0
C2427 C 0.21764 0.80179 0.10606 0.0
C2428 C 0.23791 0.80465 0.92197 0.0
C2429 C 0.22588 0.81497 0.92239 0.0
C2430 C 0.24313 0.79749 0.93519 0.0
C2431 C 0.23658 0.8004 0.94938 0.0
H2432 H 0.24329 0.80206 0.9113 0.0
H2433 H 0.25235 0.78955 0.93428 0.0
S2434 S 0.20545 0.82727 0.95675 0.0
N2435 N 0.20793 0.82817 0.93824 0.0
N2436 N 0.21782 0.81485 0.96311 0.0
C2437 C 0.22458 0.81076 0.94997 0.0
C2438 C 0.21922 0.818 0.93648 0.0
C2439 C 0.22703 0.217 0.93012 0.0
C2440 C 0.21539 0.22522 0.92298 0.0
C2441 C 0.23455 0.22264 0.94304 0.0
C2442 C 0.2307 0.23669 0.9493 0.0
H2443 H 0.23014 0.20599 0.92588 0.0
H2444 H 0.24322 0.2158 0.94835 0.0
S2445 S 0.20235 0.26342 0.93384 0.0
N2446 N 0.20131 0.24871 0.92242 0.0
N2447 N 0.21535 0.25921 0.94666 0.0
C2448 C 0.21941 0.2452 0.942 0.0
C2449 C 0.21179 0.2395 0.92887 0.0
C2450 C 0.81844 0.22136 0.93806 0.0
C2451 C 0.81374 0.22567 0.92342 0.0
C2452 C 0.81114 0.2268 0.951 0.0
C2453 C 0.79887 0.23681 0.94984 0.0
H2454 H 0.82785 0.21371 0.93953 0.0
H2455 H 0.81513 0.22311 0.96203 0.0
S2456 S 0.78271 0.2522 0.91411 0.0
N2457 N 0.79632 0.24087 0.9085 0.0
N2458 N 0.78268 0.2512 0.9328 0.0
C2459 C 0.79404 0.24119 0.93525 0.0
C2460 C 0.80145 0.2356 0.92206 0.0
C2461 C 0.81206 0.80293 0.92774 0.0
C2462 C 0.80637 0.81705 0.9231 0.0
C2463 C 0.80627 0.79538 0.94056 0.0
C2464 C 0.79446 0.80157 0.94916 0.0
H2465 H 0.82119 0.79776 0.92153 0.0
H2466 H 0.81101 0.78455 0.94369 0.0
S2467 S 0.77546 0.83813 0.94171 0.0
N2468 N 0.78802 0.83674 0.92799 0.0
N2469 N 0.77741 0.82275 0.95219 0.0
C2470 C 0.78864 0.81564 0.94461 0.0
C2471 C 0.79453 0.82333 0.93159 0.0
C2472 C 0.10319 0.21911 0.22941 0.0
C2473 C 0.11132 0.22792 0.2188 0.0
C2474 C 0.09002 0.22458 0.23631 0.0
C2475 C 0.08435 0.23901 0.23276 0.0
H2476 H 0.10712 0.20795 0.2325 0.0
H2477 H 0.08411 0.21736 0.24434 0.0
S2478 S 0.10135 0.26654 0.20569 0.0
N2479 N 0.11258 0.25175 0.20495 0.0
N2480 N 0.08808 0.2621 0.21812 0.0
C2481 C 0.09238 0.24793 0.22219 0.0
C2482 C 0.10579 0.24239 0.21519 0.0
C2483 C 0.80435 0.11128 0.2357 0.0
C2484 C 0.81629 0.11019 0.22526 0.0
C2485 C 0.79688 0.09829 0.24123 0.0
C2486 C 0.80092 0.08375 0.23635 0.0
H2487 H 0.80097 0.12223 0.23988 0.0
H2488 H 0.78783 0.09963 0.24935 0.0
S2489 S 0.83114 0.07483 0.2088 0.0
N2490 N 0.83156 0.09346 0.20997 0.0
N2491 N 0.81758 0.06907 0.22038 0.0
C2492 C 0.81269 0.08254 0.22573 0.0
C2493 C 0.82037 0.09575 0.22021 0.0
C2494 C 0.92138 0.80048 0.23063 0.0
C2495 C 0.92272 0.81085 0.21853 0.0
C2496 C 0.93427 0.79476 0.23803 0.0
C2497 C 0.94899 0.7992 0.23362 0.0
H2498 H 0.91029 0.79641 0.23411 0.0
H2499 H 0.93271 0.78647 0.24698 0.0
S2500 S 0.95857 0.82758 0.20395 0.0
N2501 N 0.93988 0.82633 0.20341 0.0
N2502 N 0.96405 0.81566 0.21731 0.0
C2503 C 0.95044 0.81001 0.22194 0.0
C2504 C 0.93734 0.8158 0.21441 0.0
C2505 C 0.22989 0.92147 0.23437 0.0
C2506 C 0.21743 0.92269 0.22442 0.0
C2507 C 0.23726 0.93442 0.24013 0.0
C2508 C 0.23243 0.94904 0.23614 0.0
H2509 H 0.2337 0.91045 0.23808 0.0
H2510 H 0.24652 0.93296 0.24809 0.0
S2511 S 0.20166 0.95831 0.20892 0.0
N2512 N 0.20149 0.93965 0.20978 0.0
N2513 N 0.21532 0.96392 0.22053 0.0
C2514 C 0.22037 0.95037 0.22574 0.0
C2515 C 0.21288 0.93723 0.2199 0.0
C2516 C 0.11144 0.79519 0.80468 0.0
C2517 C 0.11086 0.80607 0.81625 0.0
C2518 C 0.09818 0.78997 0.79746 0.0
C2519 C 0.08383 0.79524 0.80172 0.0
H2520 H 0.12225 0.79071 0.80117 0.0
H2521 H 0.09913 0.78151 0.78869 0.0
S2522 S 0.07613 0.82382 0.83124 0.0
N2523 N 0.09475 0.82202 0.83153 0.0
N2524 N 0.06985 0.81218 0.81798 0.0
C2525 C 0.0831 0.80618 0.81319 0.0
C2526 C 0.0966 0.81162 0.82043 0.0
C2527 C 0.21873 0.10361 0.80413 0.0
C2528 C 0.22678 0.11069 0.81601 0.0
C2529 C 0.22427 0.09055 0.79713 0.0
C2530 C 0.23798 0.08394 0.80185 0.0
H2531 H 0.20813 0.10828 0.80012 0.0
H2532 H 0.21765 0.08545 0.78809 0.0
S2533 S 0.26335 0.09802 0.83246 0.0
N2534 N 0.2491 0.10997 0.83227 0.0
N2535 N 0.2596 0.08566 0.81896 0.0
C2536 C 0.24614 0.09093 0.81368 0.0
C2537 C 0.24053 0.10423 0.82077 0.0
C2538 C 0.92982 0.21213 0.79772 0.0
C2539 C 0.92039 0.21908 0.8084 0.0
C2540 C 0.94298 0.21935 0.79233 0.0
C2541 C 0.9473 0.23383 0.79744 0.0
H2542 H 0.92708 0.20091 0.79357 0.0
H2543 H 0.94992 0.21349 0.7842 0.0
S2544 S 0.92612 0.25738 0.82463 0.0
N2545 N 0.91601 0.24159 0.82341 0.0
N2546 N 0.9408 0.25513 0.81335 0.0
C2547 C 0.93797 0.24096 0.80807 0.0
C2548 C 0.92453 0.23361 0.81354 0.0
C2549 C 0.82046 0.93752 0.8123 0.0
C2550 C 0.81541 0.92287 0.80845 0.0
C2551 C 0.81304 0.95042 0.80681 0.0
C2552 C 0.80027 0.94922 0.79722 0.0
H2553 H 0.83023 0.93903 0.81963 0.0
H2554 H 0.81732 0.96144 0.81015 0.0
S2555 S 0.78305 0.91347 0.78304 0.0
N2556 N 0.79714 0.90792 0.79407 0.0
N2557 N 0.78326 0.93213 0.78368 0.0
C2558 C 0.7951 0.93463 0.79329 0.0
C2559 C 0.80264 0.92148 0.79891 0.0
C2560 C 0.22827 0.11045 0.2355 0.0
C2561 C 0.21609 0.10922 0.2252 0.0
C2562 C 0.23555 0.09753 0.24119 0.0
C2563 C 0.23094 0.0829 0.23679 0.0
H2564 H 0.23196 0.12146 0.2395 0.0
H2565 H 0.24463 0.09901 0.24939 0.0
S2566 S 0.20084 0.07364 0.20868 0.0
N2567 N 0.20055 0.09227 0.2099 0.0
N2568 N 0.21425 0.06805 0.22051 0.0
C2569 C 0.2191 0.08156 0.22611 0.0
C2570 C 0.21168 0.09469 0.22034 0.0
C2571 C 0.228 0.92038 0.79551 0.0
C2572 C 0.21737 0.92075 0.80734 0.0
C2573 C 0.23512 0.93366 0.79025 0.0
C2574 C 0.23184 0.94785 0.79656 0.0
H2575 H 0.23087 0.90972 0.79032 0.0
H2576 H 0.24331 0.9328 0.7812 0.0
S2577 S 0.20404 0.95503 0.82708 0.0
N2578 N 0.20348 0.93651 0.82483 0.0
N2579 N 0.2167 0.96148 0.81485 0.0
C2580 C 0.22116 0.94836 0.80835 0.0
C2581 C 0.21397 0.93483 0.81375 0.0
C2582 C 0.09605 0.21531 0.81418 0.0
C2583 C 0.11043 0.21861 0.80806 0.0
C2584 C 0.083 0.2227 0.80889 0.0
C2585 C 0.08384 0.23369 0.79731 0.0
H2586 H 0.09481 0.20665 0.82282 0.0
H2587 H 0.07212 0.2195 0.81365 0.0
S2588 S 0.11904 0.24777 0.77891 0.0
N2589 N 0.12489 0.2345 0.79073 0.0
N2590 N 0.10044 0.24842 0.78086 0.0
C2591 C 0.09823 0.23746 0.7915 0.0
C2592 C 0.11148 0.22993 0.79685 0.0
C2593 C 0.81082 0.10608 0.80493 0.0
C2594 C 0.80509 0.11036 0.81912 0.0
C2595 C 0.80527 0.09318 0.79742 0.0
C2596 C 0.79366 0.08411 0.80373 0.0
H2597 H 0.8198 0.11267 0.79966 0.0
H2598 H 0.81 0.09035 0.7865 0.0
S2599 S 0.77469 0.09045 0.84057 0.0
N2600 N 0.78694 0.10462 0.83905 0.0
N2601 N 0.77679 0.08023 0.82514 0.0
C2602 C 0.78782 0.08828 0.8179 0.0
C2603 C 0.79348 0.1014 0.82555 0.0
C2604 C 0.937 0.81125 0.82087 0.0
C2605 C 0.92224 0.80813 0.81552 0.0
C2606 C 0.9498 0.80547 0.81359 0.0
C2607 C 0.94837 0.7963 0.80065 0.0
H2608 H 0.93869 0.81825 0.8308 0.0
H2609 H 0.96092 0.80825 0.81811 0.0
S2610 S 0.91222 0.78408 0.78255 0.0
N2611 N 0.90692 0.79489 0.79674 0.0
N2612 N 0.93094 0.78398 0.78309 0.0
C2613 C 0.93367 0.79311 0.79515 0.0
C2614 C 0.92063 0.79903 0.80256 0.0
C2615 C 0.82075 0.93141 0.23717 0.0
C2616 C 0.81414 0.92236 0.22577 0.0
C2617 C 0.81355 0.94441 0.24249 0.0
C2618 C 0.79945 0.94895 0.2366 0.0
H2619 H 0.83168 0.9285 0.24196 0.0
H2620 H 0.81915 0.95105 0.2512 0.0
S2621 S 0.77684 0.92877 0.2073 0.0
N2622 N 0.79232 0.91857 0.20922 0.0
N2623 N 0.77885 0.94306 0.21914 0.0
C2624 C 0.79267 0.94001 0.22524 0.0
C2625 C 0.79999 0.92673 0.21984 0.0
C2626 C 0.11088 0.79845 0.23026 0.0
C2627 C 0.1098 0.80886 0.2182 0.0
C2628 C 0.09786 0.79293 0.23765 0.0
C2629 C 0.08327 0.79764 0.23326 0.0
H2630 H 0.12185 0.79422 0.23374 0.0
H2631 H 0.09919 0.7846 0.24659 0.0
S2632 S 0.07446 0.82621 0.20365 0.0
N2633 N 0.09309 0.82464 0.20309 0.0
N2634 N 0.06866 0.81438 0.217 0.0
C2635 C 0.0821 0.80848 0.2216 0.0
C2636 C 0.09534 0.81406 0.21407 0.0
C2637 C 0.92696 0.24173 0.21429 0.0
C2638 C 0.92147 0.22695 0.21702 0.0
C2639 C 0.93997 0.24729 0.22167 0.0
C2640 C 0.948 0.23834 0.23213 0.0
H2641 H 0.92109 0.24911 0.20644 0.0
H2642 H 0.94373 0.25876 0.21925 0.0
S2643 S 0.93893 0.1986 0.24268 0.0
N2644 N 0.92547 0.20326 0.2305 0.0
N2645 N 0.94985 0.21379 0.24446 0.0
C2646 C 0.94267 0.22355 0.23497 0.0
C2647 C 0.92943 0.21785 0.22741 0.0
C2648 C 0.21983 0.7285 0.60565 0.0
C2649 C 0.2258 0.71469 0.61082 0.0
C2650 C 0.22572 0.73586 0.59277 0.0
C2651 C 0.23791 0.72978 0.58463 0.0
H2652 H 0.21041 0.73359 0.6115 0.0
H2653 H 0.22076 0.74647 0.58923 0.0
S2654 S 0.25773 0.69399 0.59356 0.0
N2655 N 0.24481 0.69539 0.60693 0.0
N2656 N 0.25562 0.70902 0.58261 0.0
C2657 C 0.24401 0.71601 0.58972 0.0
C2658 C 0.23801 0.70851 0.6028 0.0
C2659 C 0.80831 0.71128 0.59776 0.0
C2660 C 0.8049 0.71656 0.61236 0.0
C2661 C 0.80285 0.71864 0.58475 0.0
C2662 C 0.79372 0.73155 0.5858 0.0
H2663 H 0.81531 0.7014 0.59639 0.0
H2664 H 0.80588 0.71422 0.57376 0.0
S2665 S 0.78075 0.74936 0.62139 0.0
N2666 N 0.79141 0.73518 0.62712 0.0
N2667 N 0.78103 0.74895 0.60269 0.0
C2668 C 0.79019 0.73693 0.60034 0.0
C2669 C 0.7958 0.72945 0.6136 0.0
C2670 C 0.79614 0.30254 0.61238 0.0
C2671 C 0.8072 0.31414 0.61183 0.0
C2672 C 0.79099 0.29535 0.59913 0.0
C2673 C 0.79653 0.29965 0.58479 0.0
H2674 H 0.79142 0.299 0.62315 0.0
H2675 H 0.78235 0.2866 0.60007 0.0
S2676 S 0.82571 0.32922 0.57717 0.0
N2677 N 0.82362 0.32947 0.59575 0.0
N2678 N 0.81398 0.31595 0.57089 0.0
C2679 C 0.80769 0.31112 0.5841 0.0
C2680 C 0.81303 0.31834 0.59759 0.0
C2681 C 0.23668 0.3214 0.60309 0.0
C2682 C 0.22407 0.31576 0.61114 0.0
C2683 C 0.24228 0.31387 0.59037 0.0
C2684 C 0.23547 0.30041 0.5851 0.0
H2685 H 0.2424 0.33167 0.60674 0.0
H2686 H 0.25195 0.31874 0.58451 0.0
S2687 S 0.20214 0.28087 0.60208 0.0
N2688 N 0.2048 0.29595 0.61277 0.0
N2689 N 0.21554 0.28162 0.58908 0.0
C2690 C 0.22285 0.29462 0.59303 0.0
C2691 C 0.21714 0.3023 0.606 0.0
C2692 C 0.22158 0.31722 0.43588 0.0
C2693 C 0.22793 0.3139 0.4217 0.0
C2694 C 0.22678 0.31017 0.44918 0.0
C2695 C 0.23851 0.2995 0.44881 0.0
H2696 H 0.21276 0.3256 0.43675 0.0
H2697 H 0.2218 0.31334 0.45988 0.0
S2698 S 0.25772 0.2856 0.41433 0.0
N2699 N 0.24579 0.29845 0.40794 0.0
N2700 N 0.25548 0.2851 0.43289 0.0
C2701 C 0.24464 0.29576 0.43464 0.0
C2702 C 0.23938 0.30297 0.42111 0.0
C2703 C 0.22986 0.73445 0.42191 0.0
C2704 C 0.21886 0.7228 0.42251 0.0
C2705 C 0.23701 0.73982 0.43512 0.0
C2706 C 0.23328 0.7339 0.44947 0.0
H2707 H 0.23295 0.73949 0.41113 0.0
H2708 H 0.24526 0.74894 0.43412 0.0
S2709 S 0.20545 0.70308 0.45724 0.0
N2710 N 0.20473 0.7054 0.43867 0.0
N2711 N 0.21821 0.71541 0.46345 0.0
C2712 C 0.22245 0.72212 0.45022 0.0
C2713 C 0.21526 0.71658 0.43676 0.0
C2714 C 0.80077 0.72172 0.42786 0.0
C2715 C 0.81546 0.72673 0.42398 0.0
C2716 C 0.79349 0.72707 0.44089 0.0
C2717 C 0.80064 0.73765 0.45052 0.0
H2718 H 0.79473 0.71382 0.42062 0.0
H2719 H 0.78208 0.72312 0.44329 0.0
S2720 S 0.83973 0.753 0.44638 0.0
N2721 N 0.83732 0.74196 0.43151 0.0
N2722 N 0.82367 0.75202 0.45589 0.0
C2723 C 0.81548 0.74242 0.44698 0.0
C2724 C 0.82287 0.73697 0.43376 0.0
C2725 C 0.79327 0.31793 0.42831 0.0
C2726 C 0.80697 0.31354 0.42157 0.0
C2727 C 0.78791 0.31092 0.44157 0.0
C2728 C 0.79599 0.29918 0.44865 0.0
H2729 H 0.78668 0.327 0.42338 0.0
H2730 H 0.77727 0.31467 0.44625 0.0
S2731 S 0.83247 0.28337 0.4356 0.0
N2732 N 0.8284 0.29651 0.4229 0.0
N2733 N 0.81852 0.28359 0.44801 0.0
C2734 C 0.8097 0.29465 0.44204 0.0
C2735 C 0.81516 0.30179 0.42851 0.0
C2736 C 0.10188 0.71809 0.72806 0.0
C2737 C 0.10984 0.72686 0.71729 0.0
C2738 C 0.089 0.72373 0.73538 0.0
C2739 C 0.08359 0.73835 0.7322 0.0
H2740 H 0.10543 0.70666 0.73059 0.0
H2741 H 0.08304 0.71647 0.74333 0.0
S2742 S 0.10142 0.76649 0.70634 0.0
N2743 N 0.11209 0.75135 0.70481 0.0
N2744 N 0.08795 0.76189 0.7185 0.0
C2745 C 0.09173 0.74738 0.72182 0.0
C2746 C 0.10482 0.74166 0.7144 0.0
C2747 C 0.81916 0.59636 0.72228 0.0
C2748 C 0.81477 0.6109 0.72683 0.0
C2749 C 0.81162 0.58336 0.72765 0.0
C2750 C 0.79955 0.58439 0.73796 0.0
H2751 H 0.82849 0.59504 0.71448 0.0
H2752 H 0.81546 0.57239 0.72395 0.0
S2753 S 0.78358 0.61977 0.75329 0.0
N2754 N 0.7975 0.62556 0.74216 0.0
N2755 N 0.78334 0.60112 0.75224 0.0
C2756 C 0.79499 0.59885 0.74252 0.0
C2757 C 0.80257 0.6121 0.73694 0.0
C2758 C 0.92053 0.29773 0.73128 0.0
C2759 C 0.92115 0.309 0.71996 0.0
C2760 C 0.93376 0.29254 0.73844 0.0
C2761 C 0.94815 0.29826 0.73442 0.0
H2762 H 0.90972 0.29285 0.7346 0.0
H2763 H 0.93275 0.28371 0.74695 0.0
S2764 S 0.95597 0.32808 0.70569 0.0
N2765 N 0.93736 0.32584 0.70521 0.0
N2766 N 0.96218 0.31615 0.71871 0.0
C2767 C 0.94891 0.30966 0.72326 0.0
C2768 C 0.93544 0.31503 0.71605 0.0
C2769 C 0.21347 0.43668 0.72221 0.0
C2770 C 0.21853 0.42207 0.7259 0.0
C2771 C 0.22084 0.44961 0.7279 0.0
C2772 C 0.23354 0.44848 0.73755 0.0
H2773 H 0.2037 0.43813 0.71488 0.0
H2774 H 0.21652 0.46061 0.72472 0.0
S2775 S 0.25088 0.41284 0.75122 0.0
N2776 N 0.23683 0.40721 0.74008 0.0
N2777 N 0.25062 0.43151 0.75085 0.0
C2778 C 0.23878 0.43394 0.74126 0.0
C2779 C 0.2313 0.42075 0.73542 0.0
C2780 C 0.10468 0.31234 0.30653 0.0
C2781 C 0.11215 0.30354 0.31756 0.0
C2782 C 0.09142 0.30707 0.29932 0.0
C2783 C 0.08503 0.29285 0.30295 0.0
H2784 H 0.1092 0.32334 0.30335 0.0
H2785 H 0.08602 0.31428 0.29099 0.0
S2786 S 0.10015 0.26544 0.33104 0.0
N2787 N 0.11202 0.27997 0.33188 0.0
N2788 N 0.08737 0.26994 0.3181 0.0
C2789 C 0.09241 0.28393 0.31392 0.0
C2790 C 0.1059 0.28929 0.32125 0.0
C2791 C 0.23837 0.60307 0.31872 0.0
C2792 C 0.22465 0.60975 0.31417 0.0
C2793 C 0.24372 0.58995 0.31174 0.0
C2794 C 0.23563 0.58298 0.29984 0.0
H2795 H 0.24499 0.60793 0.32789 0.0
H2796 H 0.25439 0.58531 0.31561 0.0
S2797 S 0.19907 0.59593 0.28359 0.0
N2798 N 0.20315 0.60847 0.29684 0.0
N2799 N 0.21304 0.58365 0.28394 0.0
C2800 C 0.22189 0.58953 0.29516 0.0
C2801 C 0.21642 0.6029 0.30228 0.0
C2802 C 0.93005 0.71177 0.29799 0.0
C2803 C 0.92167 0.71781 0.31003 0.0
C2804 C 0.94284 0.71933 0.29218 0.0
C2805 C 0.94784 0.73324 0.29818 0.0
H2806 H 0.92662 0.70114 0.2929 0.0
H2807 H 0.94896 0.71413 0.28299 0.0
S2808 S 0.92993 0.75397 0.32976 0.0
N2809 N 0.91942 0.73851 0.32788 0.0
N2810 N 0.94323 0.7529 0.31672 0.0
C2811 C 0.93956 0.73945 0.31021 0.0
C2812 C 0.92652 0.73173 0.31614 0.0
C2813 C 0.81761 0.43516 0.3121 0.0
C2814 C 0.81303 0.42079 0.30689 0.0
C2815 C 0.81061 0.44838 0.30678 0.0
C2816 C 0.79861 0.44772 0.29621 0.0
H2817 H 0.82691 0.43623 0.3201 0.0
H2818 H 0.8146 0.4592 0.31101 0.0
S2819 S 0.78205 0.41287 0.27936 0.0
N2820 N 0.79549 0.40669 0.29084 0.0
N2821 N 0.7824 0.43149 0.28081 0.0
C2822 C 0.79377 0.43341 0.2911 0.0
C2823 C 0.80097 0.41997 0.29642 0.0
C2824 C 0.21246 0.60379 0.74091 0.0
C2825 C 0.2171 0.61095 0.72739 0.0
C2826 C 0.21959 0.59069 0.74628 0.0
C2827 C 0.23172 0.58419 0.73841 0.0
H2828 H 0.20309 0.60825 0.74734 0.0
H2829 H 0.21563 0.58567 0.75679 0.0
S2830 S 0.24832 0.59853 0.70245 0.0
N2831 N 0.2348 0.61066 0.70636 0.0
N2832 N 0.24794 0.58584 0.71624 0.0
C2833 C 0.2365 0.59123 0.72487 0.0
C2834 C 0.22924 0.6046 0.7194 0.0
C2835 C 0.21623 0.4338 0.31262 0.0
C2836 C 0.21963 0.41956 0.30653 0.0
C2837 C 0.22329 0.44704 0.30717 0.0
C2838 C 0.23405 0.44654 0.29545 0.0
H2839 H 0.20775 0.43475 0.32139 0.0
H2840 H 0.22003 0.45779 0.31193 0.0
S2841 S 0.24823 0.4119 0.27693 0.0
N2842 N 0.2353 0.40563 0.28897 0.0
N2843 N 0.24866 0.43047 0.27882 0.0
C2844 C 0.2379 0.43232 0.28962 0.0
C2845 C 0.23068 0.41886 0.29513 0.0
C2846 C 0.10422 0.72899 0.31362 0.0
C2847 C 0.10841 0.71475 0.30803 0.0
C2848 C 0.0914 0.73651 0.30797 0.0
C2849 C 0.08235 0.73017 0.29639 0.0
H2850 H 0.11083 0.73431 0.32253 0.0
H2851 H 0.08866 0.74748 0.31257 0.0
S2852 S 0.08842 0.69317 0.27782 0.0
N2853 N 0.10254 0.69471 0.29009 0.0
N2854 N 0.07834 0.70866 0.27974 0.0
C2855 C 0.0864 0.71593 0.29072 0.0
C2856 C 0.09942 0.70827 0.29648 0.0
C2857 C 0.79524 0.60098 0.32353 0.0
C2858 C 0.80714 0.60981 0.31744 0.0
C2859 C 0.78958 0.58818 0.31596 0.0
C2860 C 0.79563 0.58361 0.302 0.0
H2861 H 0.7901 0.60408 0.33418 0.0
H2862 H 0.78048 0.58172 0.32117 0.0
S2863 S 0.82693 0.60276 0.28118 0.0
N2864 N 0.82495 0.61291 0.29668 0.0
N2865 N 0.81407 0.58909 0.28227 0.0
C2866 C 0.80753 0.59232 0.29577 0.0
C2867 C 0.81331 0.60537 0.3035 0.0
C2868 C 0.93706 0.3117 0.32053 0.0
C2869 C 0.92235 0.30834 0.31518 0.0
C2870 C 0.94994 0.306 0.31333 0.0
C2871 C 0.94865 0.29667 0.30049 0.0
H2872 H 0.93864 0.31881 0.33038 0.0
H2873 H 0.96103 0.30895 0.31784 0.0
S2874 S 0.91269 0.28379 0.28247 0.0
N2875 N 0.90723 0.29469 0.29653 0.0
N2876 N 0.93141 0.28393 0.28304 0.0
C2877 C 0.934 0.29324 0.29501 0.0
C2878 C 0.92088 0.29907 0.30233 0.0
C2879 C 0.80142 0.42694 0.7216 0.0
C2880 C 0.81554 0.4224 0.72749 0.0
C2881 C 0.79427 0.44004 0.72686 0.0
C2882 C 0.80096 0.44909 0.73821 0.0
H2883 H 0.79571 0.42016 0.71309 0.0
H2884 H 0.78328 0.44295 0.72222 0.0
S2885 S 0.83863 0.44316 0.75605 0.0
N2886 N 0.83649 0.42873 0.7444 0.0
N2887 N 0.82305 0.45322 0.75429 0.0
C2888 C 0.81526 0.4449 0.74387 0.0
C2889 C 0.82254 0.43162 0.73851 0.0
C2890 C 0.09736 0.31311 0.71675 0.0
C2891 C 0.11168 0.3074 0.72072 0.0
C2892 C 0.08411 0.30781 0.72387 0.0
C2893 C 0.08469 0.29673 0.73537 0.0
H2894 H 0.09634 0.32149 0.70782 0.0
H2895 H 0.07331 0.31241 0.72034 0.0
S2896 S 0.11945 0.27853 0.75029 0.0
N2897 N 0.12571 0.29041 0.73719 0.0
N2898 N 0.10083 0.28037 0.75051 0.0
C2899 C 0.09897 0.29114 0.73964 0.0
C2900 C 0.11244 0.29647 0.73232 0.0
C2901 C 0.92842 0.71956 0.72669 0.0
C2902 C 0.92034 0.72863 0.71633 0.0
C2903 C 0.94146 0.72509 0.73412 0.0
C2904 C 0.94693 0.73987 0.73143 0.0
H2905 H 0.92481 0.708 0.72884 0.0
H2906 H 0.94749 0.71763 0.74177 0.0
S2907 S 0.92899 0.76872 0.70675 0.0
N2908 N 0.91811 0.75353 0.70477 0.0
N2909 N 0.94263 0.76383 0.71861 0.0
C2910 C 0.93873 0.74918 0.72144 0.0
C2911 C 0.92545 0.74358 0.71393 0.0
C2912 C 0.72031 0.2147 0.59872 0.0
C2913 C 0.72533 0.21956 0.61308 0.0
C2914 C 0.72577 0.22151 0.58538 0.0
C2915 C 0.73632 0.23357 0.58588 0.0
H2916 H 0.71235 0.20533 0.59778 0.0
H2917 H 0.72169 0.21731 0.57458 0.0
S2918 S 0.7527 0.25083 0.62061 0.0
N2919 N 0.74116 0.23743 0.62699 0.0
N2920 N 0.75148 0.25015 0.60195 0.0
C2921 C 0.74124 0.2387 0.60017 0.0
C2922 C 0.73575 0.2317 0.61374 0.0
C2923 C 0.30875 0.22952 0.60861 0.0
C2924 C 0.30326 0.21506 0.6127 0.0
C2925 C 0.3035 0.2369 0.59549 0.0
C2926 C 0.29253 0.23011 0.58601 0.0
H2927 H 0.31699 0.23529 0.61572 0.0
H2928 H 0.30788 0.2481 0.59288 0.0
S2929 S 0.27566 0.19179 0.5908 0.0
N2930 N 0.28704 0.19381 0.60557 0.0
N2931 N 0.2771 0.20774 0.58106 0.0
C2932 C 0.28717 0.21556 0.5898 0.0
C2933 C 0.29255 0.20802 0.6031 0.0
C2934 C 0.29598 0.8215 0.60216 0.0
C2935 C 0.30738 0.81513 0.61134 0.0
C2936 C 0.29065 0.81415 0.58909 0.0
C2937 C 0.29652 0.80014 0.58461 0.0
H2938 H 0.29118 0.83233 0.60503 0.0
H2939 H 0.28193 0.81956 0.58235 0.0
S2940 S 0.32586 0.77818 0.60511 0.0
N2941 N 0.32395 0.79366 0.6153 0.0
N2942 N 0.314 0.77991 0.59068 0.0
C2943 C 0.30791 0.79362 0.59367 0.0
C2944 C 0.31332 0.80109 0.60703 0.0
C2945 C 0.72108 0.81883 0.59759 0.0
C2946 C 0.7248 0.81366 0.61224 0.0
C2947 C 0.72655 0.81159 0.58464 0.0
C2948 C 0.73601 0.79891 0.5858 0.0
H2949 H 0.71386 0.82857 0.59613 0.0
H2950 H 0.72334 0.81598 0.57362 0.0
S2951 S 0.74974 0.78135 0.62152 0.0
N2952 N 0.73886 0.79531 0.62715 0.0
N2953 N 0.74922 0.78176 0.60282 0.0
C2954 C 0.73978 0.79358 0.60038 0.0
C2955 C 0.73417 0.80094 0.61358 0.0
C2956 C 0.74059 0.81997 0.42933 0.0
C2957 C 0.726 0.8169 0.42347 0.0
C2958 C 0.74601 0.81249 0.44229 0.0
C2959 C 0.7371 0.8016 0.44989 0.0
H2960 H 0.74795 0.82816 0.4238 0.0
H2961 H 0.75734 0.81519 0.44634 0.0
S2962 S 0.6978 0.79001 0.43976 0.0
N2963 N 0.7025 0.80261 0.42669 0.0
N2964 N 0.71278 0.78847 0.45095 0.0
C2965 C 0.72249 0.79841 0.44419 0.0
C2966 C 0.71693 0.80607 0.43101 0.0
C2967 C 0.729 0.23559 0.42172 0.0
C2968 C 0.71842 0.22356 0.42223 0.0
C2969 C 0.73607 0.24099 0.43494 0.0
C2970 C 0.73284 0.23462 0.44923 0.0
H2971 H 0.73183 0.24088 0.41099 0.0
H2972 H 0.74416 0.25025 0.43395 0.0
S2973 S 0.70535 0.20344 0.45685 0.0
N2974 N 0.70472 0.20573 0.43828 0.0
N2975 N 0.71792 0.21592 0.46312 0.0
C2976 C 0.7223 0.22256 0.4499 0.0
C2977 C 0.71512 0.21703 0.43642 0.0
C2978 C 0.30219 0.23656 0.42316 0.0
C2979 C 0.31309 0.22505 0.42371 0.0
C2980 C 0.29518 0.24172 0.43639 0.0
C2981 C 0.29896 0.23571 0.45069 0.0
H2982 H 0.29907 0.24164 0.41241 0.0
H2983 H 0.28699 0.25072 0.43545 0.0
S2984 S 0.3266 0.20523 0.45829 0.0
N2985 N 0.32721 0.2077 0.43975 0.0
N2986 N 0.31399 0.21734 0.46457 0.0
C2987 C 0.30972 0.22409 0.45138 0.0
C2988 C 0.31676 0.21876 0.43791 0.0
C2989 C 0.31098 0.80197 0.42686 0.0
C2990 C 0.30542 0.81615 0.42227 0.0
C2991 C 0.30558 0.79472 0.44002 0.0
C2992 C 0.2944 0.80137 0.44909 0.0
H2993 H 0.31939 0.7963 0.42009 0.0
H2994 H 0.31001 0.78371 0.44297 0.0
S2995 S 0.27734 0.8391 0.44298 0.0
N2996 N 0.28893 0.83705 0.42852 0.0
N2997 N 0.27878 0.82344 0.45313 0.0
C2998 C 0.28902 0.81569 0.44482 0.0
C2999 C 0.29452 0.82307 0.43146 0.0
C3000 C 0.61093 0.23611 0.73078 0.0
C3001 C 0.61013 0.22488 0.71955 0.0
C3002 C 0.5978 0.24144 0.73784 0.0
C3003 C 0.58332 0.2358 0.73391 0.0
H3004 H 0.62182 0.24081 0.73417 0.0
H3005 H 0.59902 0.25003 0.74648 0.0
S3006 S 0.57496 0.20702 0.70447 0.0
N3007 N 0.59362 0.20869 0.70444 0.0
N3008 N 0.56896 0.21876 0.71757 0.0
C3009 C 0.58236 0.22459 0.72266 0.0
C3010 C 0.59574 0.21913 0.71552 0.0
C3011 C 0.30205 0.10708 0.72446 0.0
C3012 C 0.31681 0.11099 0.7293 0.0
C3013 C 0.2948 0.09384 0.72969 0.0
C3014 C 0.30202 0.08404 0.73999 0.0
H3015 H 0.29596 0.11443 0.71676 0.0
H3016 H 0.28335 0.09139 0.72585 0.0
S3017 S 0.34121 0.08827 0.75493 0.0
N3018 N 0.33878 0.10337 0.74413 0.0
N3019 N 0.32511 0.07862 0.75403 0.0
C3020 C 0.31688 0.08765 0.74467 0.0
C3021 C 0.32428 0.10108 0.73931 0.0
C3022 C 0.42184 0.80002 0.72985 0.0
C3023 C 0.42332 0.81129 0.71862 0.0
C3024 C 0.4346 0.79414 0.73733 0.0
C3025 C 0.44934 0.79943 0.73401 0.0
H3026 H 0.41075 0.79545 0.73264 0.0
H3027 H 0.43292 0.78536 0.74579 0.0
S3028 S 0.45934 0.82917 0.70585 0.0
N3029 N 0.44067 0.82782 0.70485 0.0
N3030 N 0.46463 0.81672 0.71879 0.0
C3031 C 0.45095 0.81088 0.72298 0.0
C3032 C 0.43797 0.81679 0.71531 0.0
C3033 C 0.71503 0.92704 0.74078 0.0
C3034 C 0.71936 0.92044 0.72699 0.0
C3035 C 0.72196 0.94038 0.74604 0.0
C3036 C 0.73356 0.94767 0.73779 0.0
H3037 H 0.70604 0.92197 0.74748 0.0
H3038 H 0.71824 0.94497 0.75674 0.0
S3039 S 0.74923 0.93497 0.70108 0.0
N3040 N 0.73624 0.92206 0.70533 0.0
N3041 N 0.749 0.94733 0.71504 0.0
C3042 C 0.73806 0.94117 0.72401 0.0
C3043 C 0.731 0.92756 0.71865 0.0
C3044 C 0.6034 0.8136 0.30841 0.0
C3045 C 0.61142 0.80442 0.31871 0.0
C3046 C 0.5904 0.80815 0.30086 0.0
C3047 C 0.58493 0.79334 0.30334 0.0
H3048 H 0.607 0.82519 0.30642 0.0
H3049 H 0.5844 0.8157 0.29327 0.0
S3050 S 0.60275 0.76422 0.32778 0.0
N3051 N 0.61362 0.77938 0.32999 0.0
N3052 N 0.58916 0.76924 0.31591 0.0
C3053 C 0.59307 0.78392 0.31326 0.0
C3054 C 0.60631 0.78943 0.32091 0.0
C3055 C 0.73552 0.11104 0.30251 0.0
C3056 C 0.72424 0.1103 0.31374 0.0
C3057 C 0.74074 0.09792 0.29541 0.0
C3058 C 0.73504 0.08352 0.2994 0.0
H3059 H 0.74037 0.12187 0.29921 0.0
H3060 H 0.74957 0.09902 0.28696 0.0
S3061 S 0.70523 0.0754 0.32792 0.0
N3062 N 0.70743 0.09397 0.32839 0.0
N3063 N 0.71717 0.06935 0.31499 0.0
C3064 C 0.72364 0.08264 0.31048 0.0
C3065 C 0.71824 0.096 0.31763 0.0
C3066 C 0.42659 0.21491 0.29522 0.0
C3067 C 0.41972 0.21946 0.3088 0.0
C3068 C 0.43997 0.22185 0.29 0.0
C3069 C 0.44703 0.23368 0.2981 0.0
H3070 H 0.4217 0.20576 0.28864 0.0
H3071 H 0.44477 0.21797 0.27945 0.0
S3072 S 0.43359 0.24995 0.33425 0.0
N3073 N 0.42085 0.23676 0.33011 0.0
N3074 N 0.4462 0.24955 0.32049 0.0
C3075 C 0.44027 0.23839 0.31167 0.0
C3076 C 0.42661 0.23132 0.31699 0.0
C3077 C 0.31942 0.92877 0.29381 0.0
C3078 C 0.31623 0.92273 0.30826 0.0
C3079 C 0.31202 0.94168 0.28834 0.0
C3080 C 0.30107 0.94909 0.29706 0.0
H3081 H 0.32766 0.92341 0.2866 0.0
H3082 H 0.31482 0.94583 0.27712 0.0
S3083 S 0.28915 0.93843 0.33597 0.0
N3084 N 0.30173 0.92555 0.33142 0.0
N3085 N 0.28777 0.94975 0.3211 0.0
C3086 C 0.29776 0.9432 0.31153 0.0
C3087 C 0.30533 0.93006 0.31713 0.0
C3088 C 0.72828 0.11119 0.73733 0.0
C3089 C 0.71707 0.11059 0.72592 0.0
C3090 C 0.73544 0.09803 0.74254 0.0
C3091 C 0.73152 0.08371 0.73671 0.0
H3092 H 0.73154 0.12194 0.74227 0.0
H3093 H 0.74388 0.09902 0.75145 0.0
S3094 S 0.70306 0.07597 0.70656 0.0
N3095 N 0.7025 0.09448 0.70886 0.0
N3096 N 0.71599 0.06978 0.71861 0.0
C3097 C 0.72044 0.08297 0.7252 0.0
C3098 C 0.71324 0.09638 0.7198 0.0
C3099 C 0.72793 0.92766 0.31244 0.0
C3100 C 0.71402 0.92264 0.30627 0.0
C3101 C 0.73542 0.94056 0.30671 0.0
C3102 C 0.72935 0.94886 0.29449 0.0
H3103 H 0.733 0.92167 0.32189 0.0
H3104 H 0.74611 0.94397 0.31179 0.0
S3105 S 0.6933 0.94041 0.27421 0.0
N3106 N 0.69463 0.92686 0.28707 0.0
N3107 N 0.70848 0.95125 0.27657 0.0
C3108 C 0.71546 0.94395 0.28821 0.0
C3109 C 0.70785 0.93084 0.29404 0.0
C3110 C 0.611 0.22911 0.29735 0.0
C3111 C 0.6104 0.21779 0.30862 0.0
C3112 C 0.5978 0.23635 0.29227 0.0
C3113 C 0.58346 0.23239 0.2981 0.0
H3114 H 0.62177 0.2324 0.29241 0.0
H3115 H 0.59878 0.24488 0.28346 0.0
S3116 S 0.57572 0.20365 0.32793 0.0
N3117 N 0.59427 0.20309 0.32555 0.0
N3118 N 0.56951 0.21672 0.31607 0.0
C3119 C 0.58272 0.22121 0.30948 0.0
C3120 C 0.59617 0.21393 0.31474 0.0
C3121 C 0.31171 0.09846 0.31787 0.0
C3122 C 0.30504 0.11253 0.31475 0.0
C3123 C 0.30657 0.0852 0.3107 0.0
C3124 C 0.29457 0.08552 0.30012 0.0
H3125 H 0.32072 0.09762 0.32622 0.0
H3126 H 0.31178 0.07457 0.31374 0.0
S3127 S 0.27452 0.11976 0.28664 0.0
N3128 N 0.28664 0.12616 0.29948 0.0
N3129 N 0.27704 0.1013 0.28596 0.0
C3130 C 0.28816 0.0996 0.29653 0.0
C3131 C 0.29337 0.11307 0.30385 0.0
C3132 C 0.437 0.81178 0.32116 0.0
C3133 C 0.42231 0.80838 0.31579 0.0
C3134 C 0.44992 0.80623 0.3139 0.0
C3135 C 0.44868 0.79701 0.30098 0.0
H3136 H 0.43854 0.81881 0.33108 0.0
H3137 H 0.46098 0.80921 0.31844 0.0
S3138 S 0.41277 0.78408 0.28286 0.0
N3139 N 0.40726 0.79483 0.29702 0.0
N3140 N 0.4315 0.78432 0.28342 0.0
C3141 C 0.43405 0.79354 0.29547 0.0
C3142 C 0.42089 0.79923 0.30285 0.0
C3143 C 0.31591 0.93594 0.72027 0.0
C3144 C 0.31222 0.92149 0.72605 0.0
C3145 C 0.30879 0.94897 0.72568 0.0
C3146 C 0.29767 0.94807 0.73707 0.0
H3147 H 0.32468 0.93722 0.7118 0.0
H3148 H 0.31229 0.95988 0.72119 0.0
S3149 S 0.2826 0.9128 0.75461 0.0
N3150 N 0.29584 0.90698 0.7429 0.0
N3151 N 0.28241 0.93141 0.75299 0.0
C3152 C 0.29351 0.93365 0.74256 0.0
C3153 C 0.30078 0.9204 0.73707 0.0
C3154 C 0.59796 0.81301 0.71865 0.0
C3155 C 0.61208 0.80631 0.72159 0.0
C3156 C 0.58472 0.80785 0.7259 0.0
C3157 C 0.58511 0.7958 0.73639 0.0
H3158 H 0.59706 0.82205 0.71037 0.0
H3159 H 0.57404 0.81307 0.72297 0.0
S3160 S 0.61953 0.77567 0.74941 0.0
N3161 N 0.62585 0.78784 0.73661 0.0
N3162 N 0.60103 0.7782 0.75029 0.0
C3163 C 0.59925 0.78937 0.73982 0.0
C3164 C 0.6127 0.7946 0.73241 0.0
C3165 C 0.42067 0.23543 0.72861 0.0
C3166 C 0.42177 0.22534 0.71639 0.0
C3167 C 0.4337 0.24096 0.73604 0.0
C3168 C 0.44829 0.23644 0.73166 0.0
H3169 H 0.40967 0.23929 0.73227 0.0
H3170 H 0.43234 0.24879 0.74533 0.0
S3171 S 0.45728 0.20994 0.70059 0.0
N3172 N 0.43858 0.2108 0.70047 0.0
N3173 N 0.46304 0.22124 0.71436 0.0
C3174 C 0.44952 0.22621 0.71959 0.0
C3175 C 0.43627 0.22067 0.71196 0.0
C3176 C 0.7201 0.7155 0.09887 0.0
C3177 C 0.72587 0.71953 0.11321 0.0
C3178 C 0.72558 0.72242 0.08558 0.0
C3179 C 0.73702 0.73365 0.08611 0.0
H3180 H 0.71156 0.70666 0.09787 0.0
H3181 H 0.72106 0.71869 0.07478 0.0
S3182 S 0.75463 0.74948 0.12094 0.0
N3183 N 0.74282 0.73627 0.12721 0.0
N3184 N 0.75303 0.74931 0.1023 0.0
C3185 C 0.74253 0.7381 0.10042 0.0
C3186 C 0.73698 0.73104 0.11393 0.0
C3187 C 0.29408 0.71096 0.10337 0.0
C3188 C 0.3048 0.718 0.11297 0.0
C3189 C 0.2888 0.71817 0.0902 0.0
C3190 C 0.29407 0.73267 0.08606 0.0
H3191 H 0.28985 0.6997 0.10595 0.0
H3192 H 0.28065 0.71225 0.0831 0.0
S3193 S 0.32131 0.75646 0.10778 0.0
N3194 N 0.31992 0.74066 0.11776 0.0
N3195 N 0.31009 0.75411 0.09292 0.0
C3196 C 0.30469 0.7399 0.09558 0.0
C3197 C 0.31003 0.73259 0.10904 0.0
C3198 C 0.31197 0.30233 0.10643 0.0
C3199 C 0.30629 0.31648 0.11081 0.0
C3200 C 0.30663 0.29503 0.09329 0.0
C3201 C 0.2954 0.30159 0.08404 0.0
H3202 H 0.3204 0.29673 0.11336 0.0
H3203 H 0.31112 0.28404 0.09051 0.0
S3204 S 0.27808 0.33921 0.08953 0.0
N3205 N 0.28968 0.33727 0.10413 0.0
N3206 N 0.27964 0.32355 0.07957 0.0
C3207 C 0.28993 0.31589 0.08808 0.0
C3208 C 0.29537 0.32332 0.10141 0.0
C3209 C 0.73639 0.32145 0.10268 0.0
C3210 C 0.7253 0.31458 0.11195 0.0
C3211 C 0.74167 0.31433 0.08959 0.0
C3212 C 0.73605 0.30005 0.08518 0.0
H3213 H 0.74095 0.33252 0.10549 0.0
H3214 H 0.75015 0.32011 0.08278 0.0
S3215 S 0.70763 0.27679 0.10592 0.0
N3216 N 0.70935 0.29235 0.11607 0.0
N3217 N 0.7192 0.27903 0.0914 0.0
C3218 C 0.725 0.29302 0.09433 0.0
C3219 C 0.71965 0.30026 0.10771 0.0
C3220 C 0.72126 0.31968 0.93717 0.0
C3221 C 0.72583 0.31532 0.92259 0.0
C3222 C 0.72663 0.3122 0.95016 0.0
C3223 C 0.73693 0.30022 0.94907 0.0
H3224 H 0.71346 0.32894 0.93854 0.0
H3225 H 0.72292 0.31602 0.96117 0.0
S3226 S 0.75229 0.28434 0.91357 0.0
N3227 N 0.74116 0.29816 0.90783 0.0
N3228 N 0.75123 0.28411 0.93224 0.0
C3229 C 0.74151 0.29568 0.93457 0.0
C3230 C 0.73594 0.3032 0.92133 0.0
C3231 C 0.72865 0.73228 0.92252 0.0
C3232 C 0.71677 0.72157 0.92373 0.0
C3233 C 0.73602 0.738 0.93546 0.0
C3234 C 0.73182 0.73323 0.95012 0.0
H3235 H 0.73198 0.73658 0.9115 0.0
H3236 H 0.74481 0.74654 0.934 0.0
S3237 S 0.70276 0.70397 0.95932 0.0
N3238 N 0.70206 0.70547 0.94068 0.0
N3239 N 0.71593 0.71615 0.96495 0.0
C3240 C 0.72035 0.72212 0.95143 0.0
C3241 C 0.71284 0.71631 0.93827 0.0
C3242 C 0.31853 0.74029 0.92978 0.0
C3243 C 0.31489 0.72598 0.92374 0.0
C3244 C 0.31118 0.74578 0.94266 0.0
C3245 C 0.29985 0.73722 0.95002 0.0
H3246 H 0.32709 0.74737 0.92445 0.0
H3247 H 0.31435 0.75688 0.94684 0.0
S3248 S 0.28662 0.69874 0.93933 0.0
N3249 N 0.29953 0.70313 0.9265 0.0
N3250 N 0.28565 0.71352 0.95064 0.0
C3251 C 0.29606 0.72291 0.94413 0.0
C3252 C 0.30359 0.71728 0.93102 0.0
C3253 C 0.31077 0.30133 0.92669 0.0
C3254 C 0.30542 0.31563 0.92224 0.0
C3255 C 0.30532 0.29406 0.93982 0.0
C3256 C 0.29429 0.30081 0.949 0.0
H3257 H 0.31906 0.29559 0.91984 0.0
H3258 H 0.30959 0.28296 0.94267 0.0
S3259 S 0.27781 0.33886 0.94327 0.0
N3260 N 0.28929 0.33674 0.92873 0.0
N3261 N 0.27906 0.32311 0.9533 0.0
C3262 C 0.28912 0.31526 0.94487 0.0
C3263 C 0.29467 0.32265 0.93154 0.0
C3264 C 0.60472 0.74011 0.21601 0.0
C3265 C 0.61077 0.72595 0.21995 0.0
C3266 C 0.59156 0.74554 0.22291 0.0
C3267 C 0.58391 0.73707 0.23412 0.0
H3268 H 0.6101 0.74703 0.20737 0.0
H3269 H 0.58742 0.75654 0.21953 0.0
S3270 S 0.59507 0.69927 0.2486 0.0
N3271 N 0.60819 0.70363 0.23598 0.0
N3272 N 0.58327 0.71365 0.24869 0.0
C3273 C 0.58983 0.72288 0.23818 0.0
C3274 C 0.60326 0.71735 0.23115 0.0
C3275 C 0.30395 0.61092 0.23547 0.0
C3276 C 0.31584 0.60982 0.22497 0.0
C3277 C 0.29649 0.59794 0.24102 0.0
C3278 C 0.30049 0.5834 0.23612 0.0
H3279 H 0.30061 0.62187 0.23966 0.0
H3280 H 0.28748 0.59929 0.24919 0.0
S3281 S 0.33057 0.57444 0.20843 0.0
N3282 N 0.33103 0.59307 0.20961 0.0
N3283 N 0.31706 0.5687 0.22007 0.0
C3284 C 0.3122 0.58218 0.22545 0.0
C3285 C 0.31988 0.59537 0.21989 0.0
C3286 C 0.43484 0.31359 0.21781 0.0
C3287 C 0.42044 0.30752 0.22127 0.0
C3288 C 0.44801 0.30818 0.22495 0.0
C3289 C 0.44728 0.29649 0.23582 0.0
H3290 H 0.436 0.32231 0.20921 0.0
H3291 H 0.45888 0.31292 0.22163 0.0
S3292 S 0.41217 0.27808 0.25027 0.0
N3293 N 0.40614 0.29007 0.23722 0.0
N3294 N 0.43082 0.27995 0.25063 0.0
C3295 C 0.4329 0.2907 0.23976 0.0
C3296 C 0.41951 0.29619 0.23249 0.0
C3297 C 0.7138 0.42709 0.24054 0.0
C3298 C 0.71696 0.42142 0.22603 0.0
C3299 C 0.72115 0.44009 0.24609 0.0
C3300 C 0.73201 0.44795 0.23737 0.0
H3301 H 0.70559 0.42139 0.24773 0.0
H3302 H 0.71835 0.44399 0.25734 0.0
S3303 S 0.74394 0.43827 0.19839 0.0
N3304 N 0.73141 0.42498 0.20287 0.0
N3305 N 0.74529 0.44937 0.21334 0.0
C3306 C 0.73535 0.4424 0.22287 0.0
C3307 C 0.72783 0.42916 0.2172 0.0
C3308 C 0.60648 0.30962 0.80377 0.0
C3309 C 0.61048 0.30435 0.81832 0.0
C3310 C 0.59328 0.30438 0.79642 0.0
C3311 C 0.58361 0.29365 0.80334 0.0
H3312 H 0.61374 0.31766 0.79791 0.0
H3313 H 0.59075 0.30856 0.78514 0.0
S3314 S 0.58806 0.27749 0.84194 0.0
N3315 N 0.60303 0.28866 0.8398 0.0
N3316 N 0.57837 0.27874 0.82593 0.0
C3317 C 0.58729 0.28855 0.81799 0.0
C3318 C 0.60067 0.29392 0.82549 0.0
C3319 C 0.73828 0.60337 0.81906 0.0
C3320 C 0.7241 0.60952 0.81522 0.0
C3321 C 0.74383 0.59055 0.81171 0.0
C3322 C 0.73545 0.58334 0.80016 0.0
H3323 H 0.74521 0.60855 0.82783 0.0
H3324 H 0.75481 0.58627 0.81508 0.0
S3325 S 0.69739 0.59446 0.78623 0.0
N3326 N 0.7016 0.60711 0.79934 0.0
N3327 N 0.71208 0.58306 0.78546 0.0
C3328 C 0.72129 0.58939 0.79612 0.0
C3329 C 0.71561 0.60245 0.80365 0.0
C3330 C 0.42821 0.72791 0.81557 0.0
C3331 C 0.42037 0.717 0.80688 0.0
C3332 C 0.44116 0.73539 0.80992 0.0
C3333 C 0.44677 0.73222 0.79538 0.0
H3334 H 0.42451 0.73043 0.82696 0.0
H3335 H 0.44704 0.74344 0.81712 0.0
S3336 S 0.42935 0.70603 0.76742 0.0
N3337 N 0.41844 0.70442 0.7825 0.0
N3338 N 0.44277 0.71837 0.77197 0.0
C3339 C 0.43876 0.72171 0.78642 0.0
C3340 C 0.42558 0.71413 0.79214 0.0
C3341 C 0.30406 0.42244 0.79994 0.0
C3342 C 0.31641 0.42364 0.81005 0.0
C3343 C 0.29672 0.43538 0.79436 0.0
C3344 C 0.30145 0.45001 0.79868 0.0
H3345 H 0.30028 0.41144 0.796 0.0
H3346 H 0.28752 0.43392 0.78631 0.0
S3347 S 0.33198 0.45919 0.82633 0.0
N3348 N 0.3322 0.44057 0.82512 0.0
N3349 N 0.31842 0.46482 0.81469 0.0
C3350 C 0.31345 0.45131 0.80918 0.0
C3351 C 0.32091 0.43816 0.81484 0.0
C3352 C 0.7289 0.61113 0.23713 0.0
C3353 C 0.71755 0.61052 0.22586 0.0
C3354 C 0.736 0.59794 0.24238 0.0
C3355 C 0.73188 0.58362 0.23671 0.0
H3356 H 0.73229 0.62189 0.24196 0.0
H3357 H 0.74454 0.59893 0.25119 0.0
S3358 S 0.70303 0.57586 0.20693 0.0
N3359 N 0.70267 0.5944 0.20909 0.0
N3360 N 0.71605 0.56966 0.21889 0.0
C3361 C 0.72068 0.58287 0.22532 0.0
C3362 C 0.71354 0.5963 0.21989 0.0
C3363 C 0.70983 0.43005 0.79571 0.0
C3364 C 0.7166 0.4208 0.80682 0.0
C3365 C 0.71715 0.44315 0.79029 0.0
C3366 C 0.73151 0.44757 0.7958 0.0
H3367 H 0.6987 0.42722 0.79125 0.0
H3368 H 0.71144 0.44996 0.78182 0.0
S3369 S 0.75461 0.42684 0.82415 0.0
N3370 N 0.73886 0.41666 0.82261 0.0
N3371 N 0.75253 0.44137 0.81252 0.0
C3372 C 0.73846 0.43841 0.80684 0.0
C3373 C 0.73104 0.42503 0.81232 0.0
C3374 C 0.59503 0.71203 0.81265 0.0
C3375 C 0.60972 0.71697 0.8087 0.0
C3376 C 0.58211 0.71951 0.80725 0.0
C3377 C 0.58334 0.7322 0.79761 0.0
H3378 H 0.5935 0.7023 0.82002 0.0
H3379 H 0.57105 0.71531 0.81067 0.0
S3380 S 0.6192 0.74914 0.78321 0.0
N3381 N 0.62474 0.73508 0.79422 0.0
N3382 N 0.60049 0.74905 0.78394 0.0
C3383 C 0.59797 0.73727 0.79358 0.0
C3384 C 0.61113 0.72967 0.79914 0.0
C3385 C 0.31192 0.59846 0.81886 0.0
C3386 C 0.30528 0.61257 0.81585 0.0
C3387 C 0.3067 0.58525 0.81166 0.0
C3388 C 0.29465 0.58566 0.80114 0.0
H3389 H 0.32098 0.59756 0.82714 0.0
H3390 H 0.3119 0.57459 0.81461 0.0
S3391 S 0.2746 0.62003 0.78797 0.0
N3392 N 0.28682 0.62632 0.80078 0.0
N3393 N 0.27707 0.60156 0.78717 0.0
C3394 C 0.28824 0.59977 0.79767 0.0
C3395 C 0.29353 0.6132 0.80503 0.0
C3396 C 0.43655 0.31207 0.81945 0.0
C3397 C 0.4218 0.30771 0.81496 0.0
C3398 C 0.4494 0.30648 0.81208 0.0
C3399 C 0.44801 0.29615 0.80005 0.0
H3400 H 0.43818 0.31987 0.82876 0.0
H3401 H 0.46052 0.31003 0.81604 0.0
S3402 S 0.41197 0.28132 0.78377 0.0
N3403 N 0.40658 0.29254 0.7976 0.0
N3404 N 0.43069 0.28212 0.78371 0.0
C3405 C 0.43333 0.29182 0.79535 0.0
C3406 C 0.42025 0.2976 0.80278 0.0
C3407 C 0.30373 0.42209 0.23396 0.0
C3408 C 0.3156 0.42354 0.22342 0.0
C3409 C 0.2963 0.43485 0.23958 0.0
C3410 C 0.30031 0.44956 0.23474 0.0
H3411 H 0.3004 0.41102 0.23816 0.0
H3412 H 0.28733 0.4332 0.24779 0.0
S3413 S 0.33028 0.45946 0.20692 0.0
N3414 N 0.3307 0.44082 0.20803 0.0
N3415 N 0.31685 0.46477 0.21866 0.0
C3416 C 0.31198 0.45114 0.22401 0.0
C3417 C 0.3196 0.43815 0.21836 0.0
C3418 C 0.6109 0.29495 0.22921 0.0
C3419 C 0.61036 0.307 0.21875 0.0
C3420 C 0.59777 0.28972 0.23659 0.0
C3421 C 0.58356 0.2963 0.23377 0.0
H3422 H 0.62158 0.28952 0.23174 0.0
H3423 H 0.59878 0.28046 0.2446 0.0
S3424 S 0.57588 0.32756 0.20666 0.0
N3425 N 0.59437 0.32504 0.20556 0.0
N3426 N 0.56968 0.31515 0.2193 0.0
C3427 C 0.58286 0.30835 0.2233 0.0
C3428 C 0.59625 0.31371 0.21584 0.0
C3429 C 0.42749 0.74111 0.21437 0.0
C3430 C 0.42077 0.72722 0.21862 0.0
C3431 C 0.44074 0.74649 0.22147 0.0
C3432 C 0.44781 0.73823 0.23316 0.0
H3433 H 0.42257 0.74784 0.20535 0.0
H3434 H 0.44542 0.75729 0.21785 0.0
S3435 S 0.43476 0.70121 0.24858 0.0
N3436 N 0.42205 0.70542 0.23547 0.0
N3437 N 0.44718 0.71531 0.24851 0.0
C3438 C 0.44121 0.72432 0.23753 0.0
C3439 C 0.42768 0.71885 0.23031 0.0
loop_
_geom_bond_atom_site_label_1
_geom_bond_atom_site_label_2
_geom_bond_distance
_geom_bond_site_symmetry_2
_ccdc_geom_bond_type
C0 C1 1.264 . S
C0 C5 1.479 . S
C0 C10 1.465 . S
C1 C0 1.264 . S
C1 C3 1.339 . S
C1 H28 0.931 . S
C2 C3 1.395 . S
C2 C4 1.320 . S
C3 C1 1.339 . S
C3 C2 1.395 . S
C3 H29 0.929 . S
C4 C2 1.320 . S
C4 C5 1.405 . S
C4 H30 0.930 . S
C5 C0 1.479 . S
C5 C4 1.405 . S
C5 H31 0.931 . S
U6 O7 2.454 . S
U6 O8 2.458 . S
U6 C9 2.984 . S
U6 C10 2.847 . S
U6 C23 2.882 . S
U6 O24 2.441 . S
U6 O25 2.420 . S
U6 O26 2.455 . S
U6 O27 2.449 . S
O7 U6 2.454 . S
O7 C9 1.353 . S
O8 U6 2.458 . S
O8 C9 1.286 . S
C9 U6 2.984 . S
C9 O7 1.353 . S
C9 O8 1.286 . S
C9 C11 1.363 . S
C10 C0 1.465 . S
C10 U6 2.847 . S
C10 O24 1.249 . S
C10 O25 1.202 . S
C11 C9 1.363 . S
C11 C13 1.408 . S
C11 C16 1.342 . S
C12 C13 1.310 . S
C12 C15 1.461 . S
C12 H32 0.932 . S
C13 C11 1.408 . S
C13 C12 1.310 . S
C13 H33 0.930 . S
C14 C15 1.474 . S
C14 C16 1.285 . S
C14 H34 0.929 . S
C15 C12 1.461 . S
C15 C14 1.474 . S
C16 C11 1.342 . S
C16 C14 1.285 . S
C16 H35 0.930 . S
C17 C20 1.424 . S
C17 C22 1.245 . S
C17 C23 1.428 . S
C18 C21 1.260 . S
C18 C22 1.477 . S
C18 H36 0.932 . S
C19 C20 1.384 . S
C19 C21 1.479 . S
C19 H37 0.929 . S
C20 C17 1.424 . S
C20 C19 1.384 . S
C20 H38 0.928 . S
C21 C18 1.260 . S
C21 C19 1.479 . S
C22 C17 1.245 . S
C22 C18 1.477 . S
C22 H39 0.932 . S
C23 U6 2.882 . S
C23 C17 1.428 . S
C23 O26 1.301 . S
C23 O27 1.282 . S
O24 U6 2.441 . S
O24 C10 1.249 . S
O25 U6 2.420 . S
O25 C10 1.202 . S
O26 U6 2.455 . S
O26 C23 1.301 . S
O27 U6 2.449 . S
O27 C23 1.282 . S
H28 C1 0.931 . S
H29 C3 0.929 . S
H30 C4 0.930 . S
H31 C5 0.931 . S
H32 C12 0.932 . S
H33 C13 0.930 . S
H34 C14 0.929 . S
H35 C16 0.930 . S
H36 C18 0.932 . S
H37 C19 0.929 . S
H38 C20 0.928 . S
H39 C22 0.932 . S
C40 C41 1.264 . S
C40 C45 1.479 . S
C40 C50 1.465 . S
C41 C40 1.264 . S
C41 C43 1.339 . S
C41 H68 0.931 . S
C42 C43 1.395 . S
C42 C44 1.320 . S
C43 C41 1.339 . S
C43 C42 1.395 . S
C43 H69 0.929 . S
C44 C42 1.320 . S
C44 C45 1.405 . S
C44 H70 0.930 . S
C45 C40 1.479 . S
C45 C44 1.405 . S
C45 H71 0.931 . S
U46 O47 2.454 . S
U46 O48 2.458 . S
U46 C49 2.984 . S
U46 C50 2.847 . S
U46 C63 2.882 . S
U46 O64 2.441 . S
U46 O65 2.420 . S
U46 O66 2.455 . S
U46 O67 2.449 . S
O47 U46 2.454 . S
O47 C49 1.353 . S
O48 U46 2.458 . S
O48 C49 1.286 . S
C49 U46 2.984 . S
C49 O47 1.353 . S
C49 O48 1.286 . S
C49 C51 1.363 . S
C50 C40 1.465 . S
C50 U46 2.847 . S
C50 O64 1.249 . S
C50 O65 1.202 . S
C51 C49 1.363 . S
C51 C53 1.408 . S
C51 C56 1.342 . S
C52 C53 1.310 . S
C52 C55 1.461 . S
C52 H72 0.932 . S
C53 C51 1.408 . S
C53 C52 1.310 . S
C53 H73 0.930 . S
C54 C55 1.474 . S
C54 C56 1.285 . S
C54 H74 0.929 . S
C55 C52 1.461 . S
C55 C54 1.474 . S
C56 C51 1.342 . S
C56 C54 1.285 . S
C56 H75 0.930 . S
C57 C60 1.424 . S
C57 C62 1.245 . S
C57 C63 1.428 . S
C58 C61 1.260 . S
C58 C62 1.477 . S
C58 H76 0.932 . S
C59 C60 1.384 . S
C59 C61 1.479 . S
C59 H77 0.929 . S
C60 C57 1.424 . S
C60 C59 1.384 . S
C60 H78 0.928 . S
C61 C58 1.260 . S
C61 C59 1.479 . S
C62 C57 1.245 . S
C62 C58 1.477 . S
C62 H79 0.932 . S
C63 U46 2.882 . S
C63 C57 1.428 . S
C63 O66 1.301 . S
C63 O67 1.282 . S
O64 U46 2.441 . S
O64 C50 1.249 . S
O65 U46 2.420 . S
O65 C50 1.202 . S
O66 U46 2.455 . S
O66 C63 1.301 . S
O67 U46 2.449 . S
O67 C63 1.282 . S
H68 C41 0.931 . S
H69 C43 0.929 . S
H70 C44 0.930 . S
H71 C45 0.931 . S
H72 C52 0.932 . S
H73 C53 0.930 . S
H74 C54 0.929 . S
H75 C56 0.930 . S
H76 C58 0.932 . S
H77 C59 0.929 . S
H78 C60 0.928 . S
H79 C62 0.932 . S
C80 C81 1.264 . S
C80 C85 1.479 . S
C80 C90 1.465 . S
C81 C80 1.264 . S
C81 C83 1.339 . S
C81 H108 0.931 . S
C82 C83 1.395 . S
C82 C84 1.320 . S
C83 C81 1.339 . S
C83 C82 1.395 . S
C83 H109 0.929 . S
C84 C82 1.320 . S
C84 C85 1.405 . S
C84 H110 0.930 . S
C85 C80 1.479 . S
C85 C84 1.405 . S
C85 H111 0.931 . S
U86 O87 2.454 . S
U86 O88 2.458 . S
U86 C89 2.984 . S
U86 C90 2.847 . S
U86 C103 2.882 . S
U86 O104 2.441 . S
U86 O105 2.420 . S
U86 O106 2.455 . S
U86 O107 2.449 . S
O87 U86 2.454 . S
O87 C89 1.353 . S
O88 U86 2.458 . S
O88 C89 1.286 . S
C89 U86 2.984 . S
C89 O87 1.353 . S
C89 O88 1.286 . S
C89 C91 1.363 . S
C90 C80 1.465 . S
C90 U86 2.847 . S
C90 O104 1.249 . S
C90 O105 1.202 . S
C91 C89 1.363 . S
C91 C93 1.408 . S
C91 C96 1.342 . S
C92 C93 1.310 . S
C92 C95 1.461 . S
C92 H112 0.932 . S
C93 C91 1.408 . S
C93 C92 1.310 . S
C93 H113 0.930 . S
C94 C95 1.474 . S
C94 C96 1.285 . S
C94 H114 0.929 . S
C95 C92 1.461 . S
C95 C94 1.474 . S
C96 C91 1.342 . S
C96 C94 1.285 . S
C96 H115 0.930 . S
C97 C100 1.424 . S
C97 C102 1.245 . S
C97 C103 1.428 . S
C98 C101 1.260 . S
C98 C102 1.477 . S
C98 H116 0.932 . S
C99 C100 1.384 . S
C99 C101 1.479 . S
C99 H117 0.929 . S
C100 C97 1.424 . S
C100 C99 1.384 . S
C100 H118 0.928 . S
C101 C98 1.260 . S
C101 C99 1.479 . S
C102 C97 1.245 . S
C102 C98 1.477 . S
C102 H119 0.932 . S
C103 U86 2.882 . S
C103 C97 1.428 . S
C103 O106 1.301 . S
C103 O107 1.282 . S
O104 U86 2.441 . S
O104 C90 1.249 . S
O105 U86 2.420 . S
O105 C90 1.202 . S
O106 U86 2.455 . S
O106 C103 1.301 . S
O107 U86 2.449 . S
O107 C103 1.282 . S
H108 C81 0.931 . S
H109 C83 0.929 . S
H110 C84 0.930 . S
H111 C85 0.931 . S
H112 C92 0.932 . S
H113 C93 0.930 . S
H114 C94 0.929 . S
H115 C96 0.930 . S
H116 C98 0.932 . S
H117 C99 0.929 . S
H118 C100 0.928 . S
H119 C102 0.932 . S
C120 C121 1.264 . S
C120 C125 1.479 . S
C120 C130 1.465 . S
C121 C120 1.264 . S
C121 C123 1.339 . S
C121 H148 0.931 . S
C122 C123 1.395 . S
C122 C124 1.320 . S
C123 C121 1.339 . S
C123 C122 1.395 . S
C123 H149 0.929 . S
C124 C122 1.320 . S
C124 C125 1.405 . S
C124 H150 0.930 . S
C125 C120 1.479 . S
C125 C124 1.405 . S
C125 H151 0.931 . S
U126 O127 2.454 . S
U126 O128 2.458 . S
U126 C129 2.984 . S
U126 C130 2.847 . S
U126 C143 2.882 . S
U126 O144 2.441 . S
U126 O145 2.420 . S
U126 O146 2.455 . S
U126 O147 2.449 . S
O127 U126 2.454 . S
O127 C129 1.353 . S
O128 U126 2.458 . S
O128 C129 1.286 . S
C129 U126 2.984 . S
C129 O127 1.353 . S
C129 O128 1.286 . S
C129 C131 1.363 . S
C130 C120 1.465 . S
C130 U126 2.847 . S
C130 O144 1.249 . S
C130 O145 1.202 . S
C131 C129 1.363 . S
C131 C133 1.408 . S
C131 C136 1.342 . S
C132 C133 1.310 . S
C132 C135 1.461 . S
C132 H152 0.932 . S
C133 C131 1.408 . S
C133 C132 1.310 . S
C133 H153 0.930 . S
C134 C135 1.474 . S
C134 C136 1.285 . S
C134 H154 0.929 . S
C135 C132 1.461 . S
C135 C134 1.474 . S
C136 C131 1.342 . S
C136 C134 1.285 . S
C136 H155 0.930 . S
C137 C140 1.424 . S
C137 C142 1.245 . S
C137 C143 1.428 . S
C138 C141 1.260 . S
C138 C142 1.477 . S
C138 H156 0.932 . S
C139 C140 1.384 . S
C139 C141 1.479 . S
C139 H157 0.929 . S
C140 C137 1.424 . S
C140 C139 1.384 . S
C140 H158 0.928 . S
C141 C138 1.260 . S
C141 C139 1.479 . S
C142 C137 1.245 . S
C142 C138 1.477 . S
C142 H159 0.932 . S
C143 U126 2.882 . S
C143 C137 1.428 . S
C143 O146 1.301 . S
C143 O147 1.282 . S
O144 U126 2.441 . S
O144 C130 1.249 . S
O145 U126 2.420 . S
O145 C130 1.202 . S
O146 U126 2.455 . S
O146 C143 1.301 . S
O147 U126 2.449 . S
O147 C143 1.282 . S
H148 C121 0.931 . S
H149 C123 0.929 . S
H150 C124 0.930 . S
H151 C125 0.931 . S
H152 C132 0.932 . S
H153 C133 0.930 . S
H154 C134 0.929 . S
H155 C136 0.930 . S
H156 C138 0.932 . S
H157 C139 0.929 . S
H158 C140 0.928 . S
H159 C142 0.932 . S
C160 C161 1.264 . S
C160 C165 1.479 . S
C160 C170 1.465 . S
C161 C160 1.264 . S
C161 C163 1.339 . S
C161 H188 0.931 . S
C162 C163 1.395 . S
C162 C164 1.320 . S
C163 C161 1.339 . S
C163 C162 1.395 . S
C163 H189 0.929 . S
C164 C162 1.320 . S
C164 C165 1.405 . S
C164 H190 0.930 . S
C165 C160 1.479 . S
C165 C164 1.405 . S
C165 H191 0.931 . S
U166 O167 2.454 . S
U166 O168 2.458 . S
U166 C169 2.984 . S
U166 C170 2.847 . S
U166 C183 2.882 . S
U166 O184 2.441 . S
U166 O185 2.420 . S
U166 O186 2.455 . S
U166 O187 2.449 . S
O167 U166 2.454 . S
O167 C169 1.353 . S
O168 U166 2.458 . S
O168 C169 1.286 . S
C169 U166 2.984 . S
C169 O167 1.353 . S
C169 O168 1.286 . S
C169 C171 1.363 . S
C170 C160 1.465 . S
C170 U166 2.847 . S
C170 O184 1.249 . S
C170 O185 1.202 . S
C171 C169 1.363 . S
C171 C173 1.408 . S
C171 C176 1.342 . S
C172 C173 1.310 . S
C172 C175 1.461 . S
C172 H192 0.932 . S
C173 C171 1.408 . S
C173 C172 1.310 . S
C173 H193 0.930 . S
C174 C175 1.474 . S
C174 C176 1.285 . S
C174 H194 0.929 . S
C175 C172 1.461 . S
C175 C174 1.474 . S
C176 C171 1.342 . S
C176 C174 1.285 . S
C176 H195 0.930 . S
C177 C180 1.424 . S
C177 C182 1.245 . S
C177 C183 1.428 . S
C178 C181 1.260 . S
C178 C182 1.477 . S
C178 H196 0.932 . S
C179 C180 1.384 . S
C179 C181 1.479 . S
C179 H197 0.929 . S
C180 C177 1.424 . S
C180 C179 1.384 . S
C180 H198 0.928 . S
C181 C178 1.260 . S
C181 C179 1.479 . S
C182 C177 1.245 . S
C182 C178 1.477 . S
C182 H199 0.932 . S
C183 U166 2.882 . S
C183 C177 1.428 . S
C183 O186 1.301 . S
C183 O187 1.282 . S
O184 U166 2.441 . S
O184 C170 1.249 . S
O185 U166 2.420 . S
O185 C170 1.202 . S
O186 U166 2.455 . S
O186 C183 1.301 . S
O187 U166 2.449 . S
O187 C183 1.282 . S
H188 C161 0.931 . S
H189 C163 0.929 . S
H190 C164 0.930 . S
H191 C165 0.931 . S
H192 C172 0.932 . S
H193 C173 0.930 . S
H194 C174 0.929 . S
H195 C176 0.930 . S
H196 C178 0.932 . S
H197 C179 0.929 . S
H198 C180 0.928 . S
H199 C182 0.932 . S
C200 C201 1.264 . S
C200 C205 1.479 . S
C200 C210 1.465 . S
C201 C200 1.264 . S
C201 C203 1.339 . S
C201 H228 0.931 . S
C202 C203 1.395 . S
C202 C204 1.320 . S
C203 C201 1.339 . S
C203 C202 1.395 . S
C203 H229 0.929 . S
C204 C202 1.320 . S
C204 C205 1.405 . S
C204 H230 0.930 . S
C205 C200 1.479 . S
C205 C204 1.405 . S
C205 H231 0.931 . S
U206 O207 2.454 . S
U206 O208 2.458 . S
U206 C209 2.984 . S
U206 C210 2.847 . S
U206 C223 2.882 . S
U206 O224 2.441 . S
U206 O225 2.420 . S
U206 O226 2.455 . S
U206 O227 2.449 . S
O207 U206 2.454 . S
O207 C209 1.353 . S
O208 U206 2.458 . S
O208 C209 1.286 . S
C209 U206 2.984 . S
C209 O207 1.353 . S
C209 O208 1.286 . S
C209 C211 1.363 . S
C210 C200 1.465 . S
C210 U206 2.847 . S
C210 O224 1.249 . S
C210 O225 1.202 . S
C211 C209 1.363 . S
C211 C213 1.408 . S
C211 C216 1.342 . S
C212 C213 1.310 . S
C212 C215 1.461 . S
C212 H232 0.932 . S
C213 C211 1.408 . S
C213 C212 1.310 . S
C213 H233 0.930 . S
C214 C215 1.474 . S
C214 C216 1.285 . S
C214 H234 0.929 . S
C215 C212 1.461 . S
C215 C214 1.474 . S
C216 C211 1.342 . S
C216 C214 1.285 . S
C216 H235 0.930 . S
C217 C220 1.424 . S
C217 C222 1.245 . S
C217 C223 1.428 . S
C218 C221 1.260 . S
C218 C222 1.477 . S
C218 H236 0.932 . S
C219 C220 1.384 . S
C219 C221 1.479 . S
C219 H237 0.929 . S
C220 C217 1.424 . S
C220 C219 1.384 . S
C220 H238 0.928 . S
C221 C218 1.260 . S
C221 C219 1.479 . S
C222 C217 1.245 . S
C222 C218 1.477 . S
C222 H239 0.932 . S
C223 U206 2.882 . S
C223 C217 1.428 . S
C223 O226 1.301 . S
C223 O227 1.282 . S
O224 U206 2.441 . S
O224 C210 1.249 . S
O225 U206 2.420 . S
O225 C210 1.202 . S
O226 U206 2.455 . S
O226 C223 1.301 . S
O227 U206 2.449 . S
O227 C223 1.282 . S
H228 C201 0.931 . S
H229 C203 0.929 . S
H230 C204 0.930 . S
H231 C205 0.931 . S
H232 C212 0.932 . S
H233 C213 0.930 . S
H234 C214 0.929 . S
H235 C216 0.930 . S
H236 C218 0.932 . S
H237 C219 0.929 . S
H238 C220 0.928 . S
H239 C222 0.932 . S
C240 C241 1.264 . S
C240 C245 1.479 . S
C240 C250 1.465 . S
C241 C240 1.264 . S
C241 C243 1.339 . S
C241 H268 0.931 . S
C242 C243 1.395 . S
C242 C244 1.320 . S
C243 C241 1.339 . S
C243 C242 1.395 . S
C243 H269 0.929 . S
C244 C242 1.320 . S
C244 C245 1.405 . S
C244 H270 0.930 . S
C245 C240 1.479 . S
C245 C244 1.405 . S
C245 H271 0.931 . S
U246 O247 2.454 . S
U246 O248 2.458 . S
U246 C249 2.984 . S
U246 C250 2.847 . S
U246 C263 2.882 . S
U246 O264 2.441 . S
U246 O265 2.420 . S
U246 O266 2.455 . S
U246 O267 2.449 . S
O247 U246 2.454 . S
O247 C249 1.353 . S
O248 U246 2.458 . S
O248 C249 1.286 . S
C249 U246 2.984 . S
C249 O247 1.353 . S
C249 O248 1.286 . S
C249 C251 1.363 . S
C250 C240 1.465 . S
C250 U246 2.847 . S
C250 O264 1.249 . S
C250 O265 1.202 . S
C251 C249 1.363 . S
C251 C253 1.408 . S
C251 C256 1.342 . S
C252 C253 1.310 . S
C252 C255 1.461 . S
C252 H272 0.932 . S
C253 C251 1.408 . S
C253 C252 1.310 . S
C253 H273 0.930 . S
C254 C255 1.474 . S
C254 C256 1.285 . S
C254 H274 0.929 . S
C255 C252 1.461 . S
C255 C254 1.474 . S
C256 C251 1.342 . S
C256 C254 1.285 . S
C256 H275 0.930 . S
C257 C260 1.424 . S
C257 C262 1.245 . S
C257 C263 1.428 . S
C258 C261 1.260 . S
C258 C262 1.477 . S
C258 H276 0.932 . S
C259 C260 1.384 . S
C259 C261 1.479 . S
C259 H277 0.929 . S
C260 C257 1.424 . S
C260 C259 1.384 . S
C260 H278 0.928 . S
C261 C258 1.260 . S
C261 C259 1.479 . S
C262 C257 1.245 . S
C262 C258 1.477 . S
C262 H279 0.932 . S
C263 U246 2.882 . S
C263 C257 1.428 . S
C263 O266 1.301 . S
C263 O267 1.282 . S
O264 U246 2.441 . S
O264 C250 1.249 . S
O265 U246 2.420 . S
O265 C250 1.202 . S
O266 U246 2.455 . S
O266 C263 1.301 . S
O267 U246 2.449 . S
O267 C263 1.282 . S
H268 C241 0.931 . S
H269 C243 0.929 . S
H270 C244 0.930 . S
H271 C245 0.931 . S
H272 C252 0.932 . S
H273 C253 0.930 . S
H274 C254 0.929 . S
H275 C256 0.930 . S
H276 C258 0.932 . S
H277 C259 0.929 . S
H278 C260 0.928 . S
H279 C262 0.932 . S
C280 C281 1.264 . S
C280 C285 1.479 . S
C280 C290 1.465 . S
C281 C280 1.264 . S
C281 C283 1.339 . S
C281 H308 0.931 . S
C282 C283 1.395 . S
C282 C284 1.320 . S
C283 C281 1.339 . S
C283 C282 1.395 . S
C283 H309 0.929 . S
C284 C282 1.320 . S
C284 C285 1.405 . S
C284 H310 0.930 . S
C285 C280 1.479 . S
C285 C284 1.405 . S
C285 H311 0.931 . S
U286 O287 2.454 . S
U286 O288 2.458 . S
U286 C289 2.984 . S
U286 C290 2.847 . S
U286 C303 2.882 . S
U286 O304 2.441 . S
U286 O305 2.420 . S
U286 O306 2.455 . S
U286 O307 2.449 . S
O287 U286 2.454 . S
O287 C289 1.353 . S
O288 U286 2.458 . S
O288 C289 1.286 . S
C289 U286 2.984 . S
C289 O287 1.353 . S
C289 O288 1.286 . S
C289 C291 1.363 . S
C290 C280 1.465 . S
C290 U286 2.847 . S
C290 O304 1.249 . S
C290 O305 1.202 . S
C291 C289 1.363 . S
C291 C293 1.408 . S
C291 C296 1.342 . S
C292 C293 1.310 . S
C292 C295 1.461 . S
C292 H312 0.932 . S
C293 C291 1.408 . S
C293 C292 1.310 . S
C293 H313 0.930 . S
C294 C295 1.474 . S
C294 C296 1.285 . S
C294 H314 0.929 . S
C295 C292 1.461 . S
C295 C294 1.474 . S
C296 C291 1.342 . S
C296 C294 1.285 . S
C296 H315 0.930 . S
C297 C300 1.424 . S
C297 C302 1.245 . S
C297 C303 1.428 . S
C298 C301 1.260 . S
C298 C302 1.477 . S
C298 H316 0.932 . S
C299 C300 1.384 . S
C299 C301 1.479 . S
C299 H317 0.929 . S
C300 C297 1.424 . S
C300 C299 1.384 . S
C300 H318 0.928 . S
C301 C298 1.260 . S
C301 C299 1.479 . S
C302 C297 1.245 . S
C302 C298 1.477 . S
C302 H319 0.932 . S
C303 U286 2.882 . S
C303 C297 1.428 . S
C303 O306 1.301 . S
C303 O307 1.282 . S
O304 U286 2.441 . S
O304 C290 1.249 . S
O305 U286 2.420 . S
O305 C290 1.202 . S
O306 U286 2.455 . S
O306 C303 1.301 . S
O307 U286 2.449 . S
O307 C303 1.282 . S
H308 C281 0.931 . S
H309 C283 0.929 . S
H310 C284 0.930 . S
H311 C285 0.931 . S
H312 C292 0.932 . S
H313 C293 0.930 . S
H314 C294 0.929 . S
H315 C296 0.930 . S
H316 C298 0.932 . S
H317 C299 0.929 . S
H318 C300 0.928 . S
H319 C302 0.932 . S
C320 C321 1.264 . S
C320 C325 1.479 . S
C320 C330 1.465 . S
C321 C320 1.264 . S
C321 C323 1.339 . S
C321 H348 0.931 . S
C322 C323 1.395 . S
C322 C324 1.320 . S
C323 C321 1.339 . S
C323 C322 1.395 . S
C323 H349 0.929 . S
C324 C322 1.320 . S
C324 C325 1.405 . S
C324 H350 0.930 . S
C325 C320 1.479 . S
C325 C324 1.405 . S
C325 H351 0.931 . S
U326 O327 2.454 . S
U326 O328 2.458 . S
U326 C329 2.984 . S
U326 C330 2.847 . S
U326 C343 2.882 . S
U326 O344 2.441 . S
U326 O345 2.420 . S
U326 O346 2.455 . S
U326 O347 2.449 . S
O327 U326 2.454 . S
O327 C329 1.353 . S
O328 U326 2.458 . S
O328 C329 1.286 . S
C329 U326 2.984 . S
C329 O327 1.353 . S
C329 O328 1.286 . S
C329 C331 1.363 . S
C330 C320 1.465 . S
C330 U326 2.847 . S
C330 O344 1.249 . S
C330 O345 1.202 . S
C331 C329 1.363 . S
C331 C333 1.408 . S
C331 C336 1.342 . S
C332 C333 1.310 . S
C332 C335 1.461 . S
C332 H352 0.932 . S
C333 C331 1.408 . S
C333 C332 1.310 . S
C333 H353 0.930 . S
C334 C335 1.474 . S
C334 C336 1.285 . S
C334 H354 0.929 . S
C335 C332 1.461 . S
C335 C334 1.474 . S
C336 C331 1.342 . S
C336 C334 1.285 . S
C336 H355 0.930 . S
C337 C340 1.424 . S
C337 C342 1.245 . S
C337 C343 1.428 . S
C338 C341 1.260 . S
C338 C342 1.477 . S
C338 H356 0.932 . S
C339 C340 1.384 . S
C339 C341 1.479 . S
C339 H357 0.929 . S
C340 C337 1.424 . S
C340 C339 1.384 . S
C340 H358 0.928 . S
C341 C338 1.260 . S
C341 C339 1.479 . S
C342 C337 1.245 . S
C342 C338 1.477 . S
C342 H359 0.932 . S
C343 U326 2.882 . S
C343 C337 1.428 . S
C343 O346 1.301 . S
C343 O347 1.282 . S
O344 U326 2.441 . S
O344 C330 1.249 . S
O345 U326 2.420 . S
O345 C330 1.202 . S
O346 U326 2.455 . S
O346 C343 1.301 . S
O347 U326 2.449 . S
O347 C343 1.282 . S
H348 C321 0.931 . S
H349 C323 0.929 . S
H350 C324 0.930 . S
H351 C325 0.931 . S
H352 C332 0.932 . S
H353 C333 0.930 . S
H354 C334 0.929 . S
H355 C336 0.930 . S
H356 C338 0.932 . S
H357 C339 0.929 . S
H358 C340 0.928 . S
H359 C342 0.932 . S
C360 C361 1.264 . S
C360 C365 1.479 . S
C360 C370 1.465 . S
C361 C360 1.264 . S
C361 C363 1.339 . S
C361 H388 0.931 . S
C362 C363 1.395 . S
C362 C364 1.320 . S
C363 C361 1.339 . S
C363 C362 1.395 . S
C363 H389 0.929 . S
C364 C362 1.320 . S
C364 C365 1.405 . S
C364 H390 0.930 . S
C365 C360 1.479 . S
C365 C364 1.405 . S
C365 H391 0.931 . S
U366 O367 2.454 . S
U366 O368 2.458 . S
U366 C369 2.984 . S
U366 C370 2.847 . S
U366 C383 2.882 . S
U366 O384 2.441 . S
U366 O385 2.420 . S
U366 O386 2.455 . S
U366 O387 2.449 . S
O367 U366 2.454 . S
O367 C369 1.353 . S
O368 U366 2.458 . S
O368 C369 1.286 . S
C369 U366 2.984 . S
C369 O367 1.353 . S
C369 O368 1.286 . S
C369 C371 1.363 . S
C370 C360 1.465 . S
C370 U366 2.847 . S
C370 O384 1.249 . S
C370 O385 1.202 . S
C371 C369 1.363 . S
C371 C373 1.408 . S
C371 C376 1.342 . S
C372 C373 1.310 . S
C372 C375 1.461 . S
C372 H392 0.932 . S
C373 C371 1.408 . S
C373 C372 1.310 . S
C373 H393 0.930 . S
C374 C375 1.474 . S
C374 C376 1.285 . S
C374 H394 0.929 . S
C375 C372 1.461 . S
C375 C374 1.474 . S
C376 C371 1.342 . S
C376 C374 1.285 . S
C376 H395 0.930 . S
C377 C380 1.424 . S
C377 C382 1.245 . S
C377 C383 1.428 . S
C378 C381 1.260 . S
C378 C382 1.477 . S
C378 H396 0.932 . S
C379 C380 1.384 . S
C379 C381 1.479 . S
C379 H397 0.929 . S
C380 C377 1.424 . S
C380 C379 1.384 . S
C380 H398 0.928 . S
C381 C378 1.260 . S
C381 C379 1.479 . S
C382 C377 1.245 . S
C382 C378 1.477 . S
C382 H399 0.932 . S
C383 U366 2.882 . S
C383 C377 1.428 . S
C383 O386 1.301 . S
C383 O387 1.282 . S
O384 U366 2.441 . S
O384 C370 1.249 . S
O385 U366 2.420 . S
O385 C370 1.202 . S
O386 U366 2.455 . S
O386 C383 1.301 . S
O387 U366 2.449 . S
O387 C383 1.282 . S
H388 C361 0.931 . S
H389 C363 0.929 . S
H390 C364 0.930 . S
H391 C365 0.931 . S
H392 C372 0.932 . S
H393 C373 0.930 . S
H394 C374 0.929 . S
H395 C376 0.930 . S
H396 C378 0.932 . S
H397 C379 0.929 . S
H398 C380 0.928 . S
H399 C382 0.932 . S
C400 C401 1.264 . S
C400 C405 1.479 . S
C400 C410 1.465 . S
C401 C400 1.264 . S
C401 C403 1.339 . S
C401 H428 0.931 . S
C402 C403 1.395 . S
C402 C404 1.320 . S
C403 C401 1.339 . S
C403 C402 1.395 . S
C403 H429 0.929 . S
C404 C402 1.320 . S
C404 C405 1.405 . S
C404 H430 0.930 . S
C405 C400 1.479 . S
C405 C404 1.405 . S
C405 H431 0.931 . S
U406 O407 2.454 . S
U406 O408 2.458 . S
U406 C409 2.984 . S
U406 C410 2.847 . S
U406 C423 2.882 . S
U406 O424 2.441 . S
U406 O425 2.420 . S
U406 O426 2.455 . S
U406 O427 2.449 . S
O407 U406 2.454 . S
O407 C409 1.353 . S
O408 U406 2.458 . S
O408 C409 1.286 . S
C409 U406 2.984 . S
C409 O407 1.353 . S
C409 O408 1.286 . S
C409 C411 1.363 . S
C410 C400 1.465 . S
C410 U406 2.847 . S
C410 O424 1.249 . S
C410 O425 1.202 . S
C411 C409 1.363 . S
C411 C413 1.408 . S
C411 C416 1.342 . S
C412 C413 1.310 . S
C412 C415 1.461 . S
C412 H432 0.932 . S
C413 C411 1.408 . S
C413 C412 1.310 . S
C413 H433 0.930 . S
C414 C415 1.474 . S
C414 C416 1.285 . S
C414 H434 0.929 . S
C415 C412 1.461 . S
C415 C414 1.474 . S
C416 C411 1.342 . S
C416 C414 1.285 . S
C416 H435 0.930 . S
C417 C420 1.424 . S
C417 C422 1.245 . S
C417 C423 1.428 . S
C418 C421 1.260 . S
C418 C422 1.477 . S
C418 H436 0.932 . S
C419 C420 1.384 . S
C419 C421 1.479 . S
C419 H437 0.929 . S
C420 C417 1.424 . S
C420 C419 1.384 . S
C420 H438 0.928 . S
C421 C418 1.260 . S
C421 C419 1.479 . S
C422 C417 1.245 . S
C422 C418 1.477 . S
C422 H439 0.932 . S
C423 U406 2.882 . S
C423 C417 1.428 . S
C423 O426 1.301 . S
C423 O427 1.282 . S
O424 U406 2.441 . S
O424 C410 1.249 . S
O425 U406 2.420 . S
O425 C410 1.202 . S
O426 U406 2.455 . S
O426 C423 1.301 . S
O427 U406 2.449 . S
O427 C423 1.282 . S
H428 C401 0.931 . S
H429 C403 0.929 . S
H430 C404 0.930 . S
H431 C405 0.931 . S
H432 C412 0.932 . S
H433 C413 0.930 . S
H434 C414 0.929 . S
H435 C416 0.930 . S
H436 C418 0.932 . S
H437 C419 0.929 . S
H438 C420 0.928 . S
H439 C422 0.932 . S
C440 C441 1.264 . S
C440 C445 1.479 . S
C440 C450 1.465 . S
C441 C440 1.264 . S
C441 C443 1.339 . S
C441 H468 0.931 . S
C442 C443 1.395 . S
C442 C444 1.320 . S
C443 C441 1.339 . S
C443 C442 1.395 . S
C443 H469 0.929 . S
C444 C442 1.320 . S
C444 C445 1.405 . S
C444 H470 0.930 . S
C445 C440 1.479 . S
C445 C444 1.405 . S
C445 H471 0.931 . S
U446 O447 2.454 . S
U446 O448 2.458 . S
U446 C449 2.984 . S
U446 C450 2.847 . S
U446 C463 2.882 . S
U446 O464 2.441 . S
U446 O465 2.420 . S
U446 O466 2.455 . S
U446 O467 2.449 . S
O447 U446 2.454 . S
O447 C449 1.353 . S
O448 U446 2.458 . S
O448 C449 1.286 . S
C449 U446 2.984 . S
C449 O447 1.353 . S
C449 O448 1.286 . S
C449 C451 1.363 . S
C450 C440 1.465 . S
C450 U446 2.847 . S
C450 O464 1.249 . S
C450 O465 1.202 . S
C451 C449 1.363 . S
C451 C453 1.408 . S
C451 C456 1.342 . S
C452 C453 1.310 . S
C452 C455 1.461 . S
C452 H472 0.932 . S
C453 C451 1.408 . S
C453 C452 1.310 . S
C453 H473 0.930 . S
C454 C455 1.474 . S
C454 C456 1.285 . S
C454 H474 0.929 . S
C455 C452 1.461 . S
C455 C454 1.474 . S
C456 C451 1.342 . S
C456 C454 1.285 . S
C456 H475 0.930 . S
C457 C460 1.424 . S
C457 C462 1.245 . S
C457 C463 1.428 . S
C458 C461 1.260 . S
C458 C462 1.477 . S
C458 H476 0.932 . S
C459 C460 1.384 . S
C459 C461 1.479 . S
C459 H477 0.929 . S
C460 C457 1.424 . S
C460 C459 1.384 . S
C460 H478 0.928 . S
C461 C458 1.260 . S
C461 C459 1.479 . S
C462 C457 1.245 . S
C462 C458 1.477 . S
C462 H479 0.932 . S
C463 U446 2.882 . S
C463 C457 1.428 . S
C463 O466 1.301 . S
C463 O467 1.282 . S
O464 U446 2.441 . S
O464 C450 1.249 . S
O465 U446 2.420 . S
O465 C450 1.202 . S
O466 U446 2.455 . S
O466 C463 1.301 . S
O467 U446 2.449 . S
O467 C463 1.282 . S
H468 C441 0.931 . S
H469 C443 0.929 . S
H470 C444 0.930 . S
H471 C445 0.931 . S
H472 C452 0.932 . S
H473 C453 0.930 . S
H474 C454 0.929 . S
H475 C456 0.930 . S
H476 C458 0.932 . S
H477 C459 0.929 . S
H478 C460 0.928 . S
H479 C462 0.932 . S
C480 C481 1.264 . S
C480 C485 1.479 . S
C480 C490 1.465 . S
C481 C480 1.264 . S
C481 C483 1.339 . S
C481 H508 0.931 . S
C482 C483 1.395 . S
C482 C484 1.320 . S
C483 C481 1.339 . S
C483 C482 1.395 . S
C483 H509 0.929 . S
C484 C482 1.320 . S
C484 C485 1.405 . S
C484 H510 0.930 . S
C485 C480 1.479 . S
C485 C484 1.405 . S
C485 H511 0.931 . S
U486 O487 2.454 . S
U486 O488 2.458 . S
U486 C489 2.984 . S
U486 C490 2.847 . S
U486 C503 2.882 . S
U486 O504 2.441 . S
U486 O505 2.420 . S
U486 O506 2.455 . S
U486 O507 2.449 . S
O487 U486 2.454 . S
O487 C489 1.353 . S
O488 U486 2.458 . S
O488 C489 1.286 . S
C489 U486 2.984 . S
C489 O487 1.353 . S
C489 O488 1.286 . S
C489 C491 1.363 . S
C490 C480 1.465 . S
C490 U486 2.847 . S
C490 O504 1.249 . S
C490 O505 1.202 . S
C491 C489 1.363 . S
C491 C493 1.408 . S
C491 C496 1.342 . S
C492 C493 1.310 . S
C492 C495 1.461 . S
C492 H512 0.932 . S
C493 C491 1.408 . S
C493 C492 1.310 . S
C493 H513 0.930 . S
C494 C495 1.474 . S
C494 C496 1.285 . S
C494 H514 0.929 . S
C495 C492 1.461 . S
C495 C494 1.474 . S
C496 C491 1.342 . S
C496 C494 1.285 . S
C496 H515 0.930 . S
C497 C500 1.424 . S
C497 C502 1.245 . S
C497 C503 1.428 . S
C498 C501 1.260 . S
C498 C502 1.477 . S
C498 H516 0.932 . S
C499 C500 1.384 . S
C499 C501 1.479 . S
C499 H517 0.929 . S
C500 C497 1.424 . S
C500 C499 1.384 . S
C500 H518 0.928 . S
C501 C498 1.260 . S
C501 C499 1.479 . S
C502 C497 1.245 . S
C502 C498 1.477 . S
C502 H519 0.932 . S
C503 U486 2.882 . S
C503 C497 1.428 . S
C503 O506 1.301 . S
C503 O507 1.282 . S
O504 U486 2.441 . S
O504 C490 1.249 . S
O505 U486 2.420 . S
O505 C490 1.202 . S
O506 U486 2.455 . S
O506 C503 1.301 . S
O507 U486 2.449 . S
O507 C503 1.282 . S
H508 C481 0.931 . S
H509 C483 0.929 . S
H510 C484 0.930 . S
H511 C485 0.931 . S
H512 C492 0.932 . S
H513 C493 0.930 . S
H514 C494 0.929 . S
H515 C496 0.930 . S
H516 C498 0.932 . S
H517 C499 0.929 . S
H518 C500 0.928 . S
H519 C502 0.932 . S
C520 C521 1.264 . S
C520 C525 1.479 . S
C520 C530 1.465 . S
C521 C520 1.264 . S
C521 C523 1.339 . S
C521 H548 0.931 . S
C522 C523 1.395 . S
C522 C524 1.320 . S
C523 C521 1.339 . S
C523 C522 1.395 . S
C523 H549 0.929 . S
C524 C522 1.320 . S
C524 C525 1.405 . S
C524 H550 0.930 . S
C525 C520 1.479 . S
C525 C524 1.405 . S
C525 H551 0.931 . S
U526 O527 2.454 . S
U526 O528 2.458 . S
U526 C529 2.984 . S
U526 C530 2.847 . S
U526 C543 2.882 . S
U526 O544 2.441 . S
U526 O545 2.420 . S
U526 O546 2.455 . S
U526 O547 2.449 . S
O527 U526 2.454 . S
O527 C529 1.353 . S
O528 U526 2.458 . S
O528 C529 1.286 . S
C529 U526 2.984 . S
C529 O527 1.353 . S
C529 O528 1.286 . S
C529 C531 1.363 . S
C530 C520 1.465 . S
C530 U526 2.847 . S
C530 O544 1.249 . S
C530 O545 1.202 . S
C531 C529 1.363 . S
C531 C533 1.408 . S
C531 C536 1.342 . S
C532 C533 1.310 . S
C532 C535 1.461 . S
C532 H552 0.932 . S
C533 C531 1.408 . S
C533 C532 1.310 . S
C533 H553 0.930 . S
C534 C535 1.474 . S
C534 C536 1.285 . S
C534 H554 0.929 . S
C535 C532 1.461 . S
C535 C534 1.474 . S
C536 C531 1.342 . S
C536 C534 1.285 . S
C536 H555 0.930 . S
C537 C540 1.424 . S
C537 C542 1.245 . S
C537 C543 1.428 . S
C538 C541 1.260 . S
C538 C542 1.477 . S
C538 H556 0.932 . S
C539 C540 1.384 . S
C539 C541 1.479 . S
C539 H557 0.929 . S
C540 C537 1.424 . S
C540 C539 1.384 . S
C540 H558 0.928 . S
C541 C538 1.260 . S
C541 C539 1.479 . S
C542 C537 1.245 . S
C542 C538 1.477 . S
C542 H559 0.932 . S
C543 U526 2.882 . S
C543 C537 1.428 . S
C543 O546 1.301 . S
C543 O547 1.282 . S
O544 U526 2.441 . S
O544 C530 1.249 . S
O545 U526 2.420 . S
O545 C530 1.202 . S
O546 U526 2.455 . S
O546 C543 1.301 . S
O547 U526 2.449 . S
O547 C543 1.282 . S
H548 C521 0.931 . S
H549 C523 0.929 . S
H550 C524 0.930 . S
H551 C525 0.931 . S
H552 C532 0.932 . S
H553 C533 0.930 . S
H554 C534 0.929 . S
H555 C536 0.930 . S
H556 C538 0.932 . S
H557 C539 0.929 . S
H558 C540 0.928 . S
H559 C542 0.932 . S
C560 C561 1.264 . S
C560 C565 1.479 . S
C560 C570 1.465 . S
C561 C560 1.264 . S
C561 C563 1.339 . S
C561 H588 0.931 . S
C562 C563 1.395 . S
C562 C564 1.320 . S
C563 C561 1.339 . S
C563 C562 1.395 . S
C563 H589 0.929 . S
C564 C562 1.320 . S
C564 C565 1.405 . S
C564 H590 0.930 . S
C565 C560 1.479 . S
C565 C564 1.405 . S
C565 H591 0.931 . S
U566 O567 2.454 . S
U566 O568 2.458 . S
U566 C569 2.984 . S
U566 C570 2.847 . S
U566 C583 2.882 . S
U566 O584 2.441 . S
U566 O585 2.420 . S
U566 O586 2.455 . S
U566 O587 2.449 . S
O567 U566 2.454 . S
O567 C569 1.353 . S
O568 U566 2.458 . S
O568 C569 1.286 . S
C569 U566 2.984 . S
C569 O567 1.353 . S
C569 O568 1.286 . S
C569 C571 1.363 . S
C570 C560 1.465 . S
C570 U566 2.847 . S
C570 O584 1.249 . S
C570 O585 1.202 . S
C571 C569 1.363 . S
C571 C573 1.408 . S
C571 C576 1.342 . S
C572 C573 1.310 . S
C572 C575 1.461 . S
C572 H592 0.932 . S
C573 C571 1.408 . S
C573 C572 1.310 . S
C573 H593 0.930 . S
C574 C575 1.474 . S
C574 C576 1.285 . S
C574 H594 0.929 . S
C575 C572 1.461 . S
C575 C574 1.474 . S
C576 C571 1.342 . S
C576 C574 1.285 . S
C576 H595 0.930 . S
C577 C580 1.424 . S
C577 C582 1.245 . S
C577 C583 1.428 . S
C578 C581 1.260 . S
C578 C582 1.477 . S
C578 H596 0.932 . S
C579 C580 1.384 . S
C579 C581 1.479 . S
C579 H597 0.929 . S
C580 C577 1.424 . S
C580 C579 1.384 . S
C580 H598 0.928 . S
C581 C578 1.260 . S
C581 C579 1.479 . S
C582 C577 1.245 . S
C582 C578 1.477 . S
C582 H599 0.932 . S
C583 U566 2.882 . S
C583 C577 1.428 . S
C583 O586 1.301 . S
C583 O587 1.282 . S
O584 U566 2.441 . S
O584 C570 1.249 . S
O585 U566 2.420 . S
O585 C570 1.202 . S
O586 U566 2.455 . S
O586 C583 1.301 . S
O587 U566 2.449 . S
O587 C583 1.282 . S
H588 C561 0.931 . S
H589 C563 0.929 . S
H590 C564 0.930 . S
H591 C565 0.931 . S
H592 C572 0.932 . S
H593 C573 0.930 . S
H594 C574 0.929 . S
H595 C576 0.930 . S
H596 C578 0.932 . S
H597 C579 0.929 . S
H598 C580 0.928 . S
H599 C582 0.932 . S
C600 C601 1.264 . S
C600 C605 1.479 . S
C600 C610 1.465 . S
C601 C600 1.264 . S
C601 C603 1.339 . S
C601 H628 0.931 . S
C602 C603 1.395 . S
C602 C604 1.320 . S
C603 C601 1.339 . S
C603 C602 1.395 . S
C603 H629 0.929 . S
C604 C602 1.320 . S
C604 C605 1.405 . S
C604 H630 0.930 . S
C605 C600 1.479 . S
C605 C604 1.405 . S
C605 H631 0.931 . S
U606 O607 2.454 . S
U606 O608 2.458 . S
U606 C609 2.984 . S
U606 C610 2.847 . S
U606 C623 2.882 . S
U606 O624 2.441 . S
U606 O625 2.420 . S
U606 O626 2.455 . S
U606 O627 2.449 . S
O607 U606 2.454 . S
O607 C609 1.353 . S
O608 U606 2.458 . S
O608 C609 1.286 . S
C609 U606 2.984 . S
C609 O607 1.353 . S
C609 O608 1.286 . S
C609 C611 1.363 . S
C610 C600 1.465 . S
C610 U606 2.847 . S
C610 O624 1.249 . S
C610 O625 1.202 . S
C611 C609 1.363 . S
C611 C613 1.408 . S
C611 C616 1.342 . S
C612 C613 1.310 . S
C612 C615 1.461 . S
C612 H632 0.932 . S
C613 C611 1.408 . S
C613 C612 1.310 . S
C613 H633 0.930 . S
C614 C615 1.474 . S
C614 C616 1.285 . S
C614 H634 0.929 . S
C615 C612 1.461 . S
C615 C614 1.474 . S
C616 C611 1.342 . S
C616 C614 1.285 . S
C616 H635 0.930 . S
C617 C620 1.424 . S
C617 C622 1.245 . S
C617 C623 1.428 . S
C618 C621 1.260 . S
C618 C622 1.477 . S
C618 H636 0.932 . S
C619 C620 1.384 . S
C619 C621 1.479 . S
C619 H637 0.929 . S
C620 C617 1.424 . S
C620 C619 1.384 . S
C620 H638 0.928 . S
C621 C618 1.260 . S
C621 C619 1.479 . S
C622 C617 1.245 . S
C622 C618 1.477 . S
C622 H639 0.932 . S
C623 U606 2.882 . S
C623 C617 1.428 . S
C623 O626 1.301 . S
C623 O627 1.282 . S
O624 U606 2.441 . S
O624 C610 1.249 . S
O625 U606 2.420 . S
O625 C610 1.202 . S
O626 U606 2.455 . S
O626 C623 1.301 . S
O627 U606 2.449 . S
O627 C623 1.282 . S
H628 C601 0.931 . S
H629 C603 0.929 . S
H630 C604 0.930 . S
H631 C605 0.931 . S
H632 C612 0.932 . S
H633 C613 0.930 . S
H634 C614 0.929 . S
H635 C616 0.930 . S
H636 C618 0.932 . S
H637 C619 0.929 . S
H638 C620 0.928 . S
H639 C622 0.932 . S
C640 C641 1.264 . S
C640 C645 1.479 . S
C640 C650 1.465 . S
C641 C640 1.264 . S
C641 C643 1.339 . S
C641 H668 0.931 . S
C642 C643 1.395 . S
C642 C644 1.320 . S
C643 C641 1.339 . S
C643 C642 1.395 . S
C643 H669 0.929 . S
C644 C642 1.320 . S
C644 C645 1.405 . S
C644 H670 0.930 . S
C645 C640 1.479 . S
C645 C644 1.405 . S
C645 H671 0.931 . S
U646 O647 2.454 . S
U646 O648 2.458 . S
U646 C649 2.984 . S
U646 C650 2.847 . S
U646 C663 2.882 . S
U646 O664 2.441 . S
U646 O665 2.420 . S
U646 O666 2.455 . S
U646 O667 2.449 . S
O647 U646 2.454 . S
O647 C649 1.353 . S
O648 U646 2.458 . S
O648 C649 1.286 . S
C649 U646 2.984 . S
C649 O647 1.353 . S
C649 O648 1.286 . S
C649 C651 1.363 . S
C650 C640 1.465 . S
C650 U646 2.847 . S
C650 O664 1.249 . S
C650 O665 1.202 . S
C651 C649 1.363 . S
C651 C653 1.408 . S
C651 C656 1.342 . S
C652 C653 1.310 . S
C652 C655 1.461 . S
C652 H672 0.932 . S
C653 C651 1.408 . S
C653 C652 1.310 . S
C653 H673 0.930 . S
C654 C655 1.474 . S
C654 C656 1.285 . S
C654 H674 0.929 . S
C655 C652 1.461 . S
C655 C654 1.474 . S
C656 C651 1.342 . S
C656 C654 1.285 . S
C656 H675 0.930 . S
C657 C660 1.424 . S
C657 C662 1.245 . S
C657 C663 1.428 . S
C658 C661 1.260 . S
C658 C662 1.477 . S
C658 H676 0.932 . S
C659 C660 1.384 . S
C659 C661 1.479 . S
C659 H677 0.929 . S
C660 C657 1.424 . S
C660 C659 1.384 . S
C660 H678 0.928 . S
C661 C658 1.260 . S
C661 C659 1.479 . S
C662 C657 1.245 . S
C662 C658 1.477 . S
C662 H679 0.932 . S
C663 U646 2.882 . S
C663 C657 1.428 . S
C663 O666 1.301 . S
C663 O667 1.282 . S
O664 U646 2.441 . S
O664 C650 1.249 . S
O665 U646 2.420 . S
O665 C650 1.202 . S
O666 U646 2.455 . S
O666 C663 1.301 . S
O667 U646 2.449 . S
O667 C663 1.282 . S
H668 C641 0.931 . S
H669 C643 0.929 . S
H670 C644 0.930 . S
H671 C645 0.931 . S
H672 C652 0.932 . S
H673 C653 0.930 . S
H674 C654 0.929 . S
H675 C656 0.930 . S
H676 C658 0.932 . S
H677 C659 0.929 . S
H678 C660 0.928 . S
H679 C662 0.932 . S
C680 C681 1.264 . S
C680 C685 1.479 . S
C680 C690 1.465 . S
C681 C680 1.264 . S
C681 C683 1.339 . S
C681 H708 0.931 . S
C682 C683 1.395 . S
C682 C684 1.320 . S
C683 C681 1.339 . S
C683 C682 1.395 . S
C683 H709 0.929 . S
C684 C682 1.320 . S
C684 C685 1.405 . S
C684 H710 0.930 . S
C685 C680 1.479 . S
C685 C684 1.405 . S
C685 H711 0.931 . S
U686 O687 2.454 . S
U686 O688 2.458 . S
U686 C689 2.984 . S
U686 C690 2.847 . S
U686 C703 2.882 . S
U686 O704 2.441 . S
U686 O705 2.420 . S
U686 O706 2.455 . S
U686 O707 2.449 . S
O687 U686 2.454 . S
O687 C689 1.353 . S
O688 U686 2.458 . S
O688 C689 1.286 . S
C689 U686 2.984 . S
C689 O687 1.353 . S
C689 O688 1.286 . S
C689 C691 1.363 . S
C690 C680 1.465 . S
C690 U686 2.847 . S
C690 O704 1.249 . S
C690 O705 1.202 . S
C691 C689 1.363 . S
C691 C693 1.408 . S
C691 C696 1.342 . S
C692 C693 1.310 . S
C692 C695 1.461 . S
C692 H712 0.932 . S
C693 C691 1.408 . S
C693 C692 1.310 . S
C693 H713 0.930 . S
C694 C695 1.474 . S
C694 C696 1.285 . S
C694 H714 0.929 . S
C695 C692 1.461 . S
C695 C694 1.474 . S
C696 C691 1.342 . S
C696 C694 1.285 . S
C696 H715 0.930 . S
C697 C700 1.424 . S
C697 C702 1.245 . S
C697 C703 1.428 . S
C698 C701 1.260 . S
C698 C702 1.477 . S
C698 H716 0.932 . S
C699 C700 1.384 . S
C699 C701 1.479 . S
C699 H717 0.929 . S
C700 C697 1.424 . S
C700 C699 1.384 . S
C700 H718 0.928 . S
C701 C698 1.260 . S
C701 C699 1.479 . S
C702 C697 1.245 . S
C702 C698 1.477 . S
C702 H719 0.932 . S
C703 U686 2.882 . S
C703 C697 1.428 . S
C703 O706 1.301 . S
C703 O707 1.282 . S
O704 U686 2.441 . S
O704 C690 1.249 . S
O705 U686 2.420 . S
O705 C690 1.202 . S
O706 U686 2.455 . S
O706 C703 1.301 . S
O707 U686 2.449 . S
O707 C703 1.282 . S
H708 C681 0.931 . S
H709 C683 0.929 . S
H710 C684 0.930 . S
H711 C685 0.931 . S
H712 C692 0.932 . S
H713 C693 0.930 . S
H714 C694 0.929 . S
H715 C696 0.930 . S
H716 C698 0.932 . S
H717 C699 0.929 . S
H718 C700 0.928 . S
H719 C702 0.932 . S
C720 C721 1.264 . S
C720 C725 1.479 . S
C720 C730 1.465 . S
C721 C720 1.264 . S
C721 C723 1.339 . S
C721 H748 0.931 . S
C722 C723 1.395 . S
C722 C724 1.320 . S
C723 C721 1.339 . S
C723 C722 1.395 . S
C723 H749 0.929 . S
C724 C722 1.320 . S
C724 C725 1.405 . S
C724 H750 0.930 . S
C725 C720 1.479 . S
C725 C724 1.405 . S
C725 H751 0.931 . S
U726 O727 2.454 . S
U726 O728 2.458 . S
U726 C729 2.984 . S
U726 C730 2.847 . S
U726 C743 2.882 . S
U726 O744 2.441 . S
U726 O745 2.420 . S
U726 O746 2.455 . S
U726 O747 2.449 . S
O727 U726 2.454 . S
O727 C729 1.353 . S
O728 U726 2.458 . S
O728 C729 1.286 . S
C729 U726 2.984 . S
C729 O727 1.353 . S
C729 O728 1.286 . S
C729 C731 1.363 . S
C730 C720 1.465 . S
C730 U726 2.847 . S
C730 O744 1.249 . S
C730 O745 1.202 . S
C731 C729 1.363 . S
C731 C733 1.408 . S
C731 C736 1.342 . S
C732 C733 1.310 . S
C732 C735 1.461 . S
C732 H752 0.932 . S
C733 C731 1.408 . S
C733 C732 1.310 . S
C733 H753 0.930 . S
C734 C735 1.474 . S
C734 C736 1.285 . S
C734 H754 0.929 . S
C735 C732 1.461 . S
C735 C734 1.474 . S
C736 C731 1.342 . S
C736 C734 1.285 . S
C736 H755 0.930 . S
C737 C740 1.424 . S
C737 C742 1.245 . S
C737 C743 1.428 . S
C738 C741 1.260 . S
C738 C742 1.477 . S
C738 H756 0.932 . S
C739 C740 1.384 . S
C739 C741 1.479 . S
C739 H757 0.929 . S
C740 C737 1.424 . S
C740 C739 1.384 . S
C740 H758 0.928 . S
C741 C738 1.260 . S
C741 C739 1.479 . S
C742 C737 1.245 . S
C742 C738 1.477 . S
C742 H759 0.932 . S
C743 U726 2.882 . S
C743 C737 1.428 . S
C743 O746 1.301 . S
C743 O747 1.282 . S
O744 U726 2.441 . S
O744 C730 1.249 . S
O745 U726 2.420 . S
O745 C730 1.202 . S
O746 U726 2.455 . S
O746 C743 1.301 . S
O747 U726 2.449 . S
O747 C743 1.282 . S
H748 C721 0.931 . S
H749 C723 0.929 . S
H750 C724 0.930 . S
H751 C725 0.931 . S
H752 C732 0.932 . S
H753 C733 0.930 . S
H754 C734 0.929 . S
H755 C736 0.930 . S
H756 C738 0.932 . S
H757 C739 0.929 . S
H758 C740 0.928 . S
H759 C742 0.932 . S
C760 C761 1.264 . S
C760 C765 1.479 . S
C760 C770 1.465 . S
C761 C760 1.264 . S
C761 C763 1.339 . S
C761 H788 0.931 . S
C762 C763 1.395 . S
C762 C764 1.320 . S
C763 C761 1.339 . S
C763 C762 1.395 . S
C763 H789 0.929 . S
C764 C762 1.320 . S
C764 C765 1.405 . S
C764 H790 0.930 . S
C765 C760 1.479 . S
C765 C764 1.405 . S
C765 H791 0.931 . S
U766 O767 2.454 . S
U766 O768 2.458 . S
U766 C769 2.984 . S
U766 C770 2.847 . S
U766 C783 2.882 . S
U766 O784 2.441 . S
U766 O785 2.420 . S
U766 O786 2.455 . S
U766 O787 2.449 . S
O767 U766 2.454 . S
O767 C769 1.353 . S
O768 U766 2.458 . S
O768 C769 1.286 . S
C769 U766 2.984 . S
C769 O767 1.353 . S
C769 O768 1.286 . S
C769 C771 1.363 . S
C770 C760 1.465 . S
C770 U766 2.847 . S
C770 O784 1.249 . S
C770 O785 1.202 . S
C771 C769 1.363 . S
C771 C773 1.408 . S
C771 C776 1.342 . S
C772 C773 1.310 . S
C772 C775 1.461 . S
C772 H792 0.932 . S
C773 C771 1.408 . S
C773 C772 1.310 . S
C773 H793 0.930 . S
C774 C775 1.474 . S
C774 C776 1.285 . S
C774 H794 0.929 . S
C775 C772 1.461 . S
C775 C774 1.474 . S
C776 C771 1.342 . S
C776 C774 1.285 . S
C776 H795 0.930 . S
C777 C780 1.424 . S
C777 C782 1.245 . S
C777 C783 1.428 . S
C778 C781 1.260 . S
C778 C782 1.477 . S
C778 H796 0.932 . S
C779 C780 1.384 . S
C779 C781 1.479 . S
C779 H797 0.929 . S
C780 C777 1.424 . S
C780 C779 1.384 . S
C780 H798 0.928 . S
C781 C778 1.260 . S
C781 C779 1.479 . S
C782 C777 1.245 . S
C782 C778 1.477 . S
C782 H799 0.932 . S
C783 U766 2.882 . S
C783 C777 1.428 . S
C783 O786 1.301 . S
C783 O787 1.282 . S
O784 U766 2.441 . S
O784 C770 1.249 . S
O785 U766 2.420 . S
O785 C770 1.202 . S
O786 U766 2.455 . S
O786 C783 1.301 . S
O787 U766 2.449 . S
O787 C783 1.282 . S
H788 C761 0.931 . S
H789 C763 0.929 . S
H790 C764 0.930 . S
H791 C765 0.931 . S
H792 C772 0.932 . S
H793 C773 0.930 . S
H794 C774 0.929 . S
H795 C776 0.930 . S
H796 C778 0.932 . S
H797 C779 0.929 . S
H798 C780 0.928 . S
H799 C782 0.932 . S
C800 C801 1.264 . S
C800 C805 1.479 . S
C800 C810 1.465 . S
C801 C800 1.264 . S
C801 C803 1.339 . S
C801 H828 0.931 . S
C802 C803 1.395 . S
C802 C804 1.320 . S
C803 C801 1.339 . S
C803 C802 1.395 . S
C803 H829 0.929 . S
C804 C802 1.320 . S
C804 C805 1.405 . S
C804 H830 0.930 . S
C805 C800 1.479 . S
C805 C804 1.405 . S
C805 H831 0.931 . S
U806 O807 2.454 . S
U806 O808 2.458 . S
U806 C809 2.984 . S
U806 C810 2.847 . S
U806 C823 2.882 . S
U806 O824 2.441 . S
U806 O825 2.420 . S
U806 O826 2.455 . S
U806 O827 2.449 . S
O807 U806 2.454 . S
O807 C809 1.353 . S
O808 U806 2.458 . S
O808 C809 1.286 . S
C809 U806 2.984 . S
C809 O807 1.353 . S
C809 O808 1.286 . S
C809 C811 1.363 . S
C810 C800 1.465 . S
C810 U806 2.847 . S
C810 O824 1.249 . S
C810 O825 1.202 . S
C811 C809 1.363 . S
C811 C813 1.408 . S
C811 C816 1.342 . S
C812 C813 1.310 . S
C812 C815 1.461 . S
C812 H832 0.932 . S
C813 C811 1.408 . S
C813 C812 1.310 . S
C813 H833 0.930 . S
C814 C815 1.474 . S
C814 C816 1.285 . S
C814 H834 0.929 . S
C815 C812 1.461 . S
C815 C814 1.474 . S
C816 C811 1.342 . S
C816 C814 1.285 . S
C816 H835 0.930 . S
C817 C820 1.424 . S
C817 C822 1.245 . S
C817 C823 1.428 . S
C818 C821 1.260 . S
C818 C822 1.477 . S
C818 H836 0.932 . S
C819 C820 1.384 . S
C819 C821 1.479 . S
C819 H837 0.929 . S
C820 C817 1.424 . S
C820 C819 1.384 . S
C820 H838 0.928 . S
C821 C818 1.260 . S
C821 C819 1.479 . S
C822 C817 1.245 . S
C822 C818 1.477 . S
C822 H839 0.932 . S
C823 U806 2.882 . S
C823 C817 1.428 . S
C823 O826 1.301 . S
C823 O827 1.282 . S
O824 U806 2.441 . S
O824 C810 1.249 . S
O825 U806 2.420 . S
O825 C810 1.202 . S
O826 U806 2.455 . S
O826 C823 1.301 . S
O827 U806 2.449 . S
O827 C823 1.282 . S
H828 C801 0.931 . S
H829 C803 0.929 . S
H830 C804 0.930 . S
H831 C805 0.931 . S
H832 C812 0.932 . S
H833 C813 0.930 . S
H834 C814 0.929 . S
H835 C816 0.930 . S
H836 C818 0.932 . S
H837 C819 0.929 . S
H838 C820 0.928 . S
H839 C822 0.932 . S
C840 C841 1.264 . S
C840 C845 1.479 . S
C840 C850 1.465 . S
C841 C840 1.264 . S
C841 C843 1.339 . S
C841 H868 0.931 . S
C842 C843 1.395 . S
C842 C844 1.320 . S
C843 C841 1.339 . S
C843 C842 1.395 . S
C843 H869 0.929 . S
C844 C842 1.320 . S
C844 C845 1.405 . S
C844 H870 0.930 . S
C845 C840 1.479 . S
C845 C844 1.405 . S
C845 H871 0.931 . S
U846 O847 2.454 . S
U846 O848 2.458 . S
U846 C849 2.984 . S
U846 C850 2.847 . S
U846 C863 2.882 . S
U846 O864 2.441 . S
U846 O865 2.420 . S
U846 O866 2.455 . S
U846 O867 2.449 . S
O847 U846 2.454 . S
O847 C849 1.353 . S
O848 U846 2.458 . S
O848 C849 1.286 . S
C849 U846 2.984 . S
C849 O847 1.353 . S
C849 O848 1.286 . S
C849 C851 1.363 . S
C850 C840 1.465 . S
C850 U846 2.847 . S
C850 O864 1.249 . S
C850 O865 1.202 . S
C851 C849 1.363 . S
C851 C853 1.408 . S
C851 C856 1.342 . S
C852 C853 1.310 . S
C852 C855 1.461 . S
C852 H872 0.932 . S
C853 C851 1.408 . S
C853 C852 1.310 . S
C853 H873 0.930 . S
C854 C855 1.474 . S
C854 C856 1.285 . S
C854 H874 0.929 . S
C855 C852 1.461 . S
C855 C854 1.474 . S
C856 C851 1.342 . S
C856 C854 1.285 . S
C856 H875 0.930 . S
C857 C860 1.424 . S
C857 C862 1.245 . S
C857 C863 1.428 . S
C858 C861 1.260 . S
C858 C862 1.477 . S
C858 H876 0.932 . S
C859 C860 1.384 . S
C859 C861 1.479 . S
C859 H877 0.929 . S
C860 C857 1.424 . S
C860 C859 1.384 . S
C860 H878 0.928 . S
C861 C858 1.260 . S
C861 C859 1.479 . S
C862 C857 1.245 . S
C862 C858 1.477 . S
C862 H879 0.932 . S
C863 U846 2.882 . S
C863 C857 1.428 . S
C863 O866 1.301 . S
C863 O867 1.282 . S
O864 U846 2.441 . S
O864 C850 1.249 . S
O865 U846 2.420 . S
O865 C850 1.202 . S
O866 U846 2.455 . S
O866 C863 1.301 . S
O867 U846 2.449 . S
O867 C863 1.282 . S
H868 C841 0.931 . S
H869 C843 0.929 . S
H870 C844 0.930 . S
H871 C845 0.931 . S
H872 C852 0.932 . S
H873 C853 0.930 . S
H874 C854 0.929 . S
H875 C856 0.930 . S
H876 C858 0.932 . S
H877 C859 0.929 . S
H878 C860 0.928 . S
H879 C862 0.932 . S
C880 C881 1.264 . S
C880 C885 1.479 . S
C880 C890 1.465 . S
C881 C880 1.264 . S
C881 C883 1.339 . S
C881 H908 0.931 . S
C882 C883 1.395 . S
C882 C884 1.320 . S
C883 C881 1.339 . S
C883 C882 1.395 . S
C883 H909 0.929 . S
C884 C882 1.320 . S
C884 C885 1.405 . S
C884 H910 0.930 . S
C885 C880 1.479 . S
C885 C884 1.405 . S
C885 H911 0.931 . S
U886 O887 2.454 . S
U886 O888 2.458 . S
U886 C889 2.984 . S
U886 C890 2.847 . S
U886 C903 2.882 . S
U886 O904 2.441 . S
U886 O905 2.420 . S
U886 O906 2.455 . S
U886 O907 2.449 . S
O887 U886 2.454 . S
O887 C889 1.353 . S
O888 U886 2.458 . S
O888 C889 1.286 . S
C889 U886 2.984 . S
C889 O887 1.353 . S
C889 O888 1.286 . S
C889 C891 1.363 . S
C890 C880 1.465 . S
C890 U886 2.847 . S
C890 O904 1.249 . S
C890 O905 1.202 . S
C891 C889 1.363 . S
C891 C893 1.408 . S
C891 C896 1.342 . S
C892 C893 1.310 . S
C892 C895 1.461 . S
C892 H912 0.932 . S
C893 C891 1.408 . S
C893 C892 1.310 . S
C893 H913 0.930 . S
C894 C895 1.474 . S
C894 C896 1.285 . S
C894 H914 0.929 . S
C895 C892 1.461 . S
C895 C894 1.474 . S
C896 C891 1.342 . S
C896 C894 1.285 . S
C896 H915 0.930 . S
C897 C900 1.424 . S
C897 C902 1.245 . S
C897 C903 1.428 . S
C898 C901 1.260 . S
C898 C902 1.477 . S
C898 H916 0.932 . S
C899 C900 1.384 . S
C899 C901 1.479 . S
C899 H917 0.929 . S
C900 C897 1.424 . S
C900 C899 1.384 . S
C900 H918 0.928 . S
C901 C898 1.260 . S
C901 C899 1.479 . S
C902 C897 1.245 . S
C902 C898 1.477 . S
C902 H919 0.932 . S
C903 U886 2.882 . S
C903 C897 1.428 . S
C903 O906 1.301 . S
C903 O907 1.282 . S
O904 U886 2.441 . S
O904 C890 1.249 . S
O905 U886 2.420 . S
O905 C890 1.202 . S
O906 U886 2.455 . S
O906 C903 1.301 . S
O907 U886 2.449 . S
O907 C903 1.282 . S
H908 C881 0.931 . S
H909 C883 0.929 . S
H910 C884 0.930 . S
H911 C885 0.931 . S
H912 C892 0.932 . S
H913 C893 0.930 . S
H914 C894 0.929 . S
H915 C896 0.930 . S
H916 C898 0.932 . S
H917 C899 0.929 . S
H918 C900 0.928 . S
H919 C902 0.932 . S
C920 C921 1.264 . S
C920 C925 1.479 . S
C920 C930 1.465 . S
C921 C920 1.264 . S
C921 C923 1.339 . S
C921 H948 0.931 . S
C922 C923 1.395 . S
C922 C924 1.320 . S
C923 C921 1.339 . S
C923 C922 1.395 . S
C923 H949 0.929 . S
C924 C922 1.320 . S
C924 C925 1.405 . S
C924 H950 0.930 . S
C925 C920 1.479 . S
C925 C924 1.405 . S
C925 H951 0.931 . S
U926 O927 2.454 . S
U926 O928 2.458 . S
U926 C929 2.984 . S
U926 C930 2.847 . S
U926 C943 2.882 . S
U926 O944 2.441 . S
U926 O945 2.420 . S
U926 O946 2.455 . S
U926 O947 2.449 . S
O927 U926 2.454 . S
O927 C929 1.353 . S
O928 U926 2.458 . S
O928 C929 1.286 . S
C929 U926 2.984 . S
C929 O927 1.353 . S
C929 O928 1.286 . S
C929 C931 1.363 . S
C930 C920 1.465 . S
C930 U926 2.847 . S
C930 O944 1.249 . S
C930 O945 1.202 . S
C931 C929 1.363 . S
C931 C933 1.408 . S
C931 C936 1.342 . S
C932 C933 1.310 . S
C932 C935 1.461 . S
C932 H952 0.932 . S
C933 C931 1.408 . S
C933 C932 1.310 . S
C933 H953 0.930 . S
C934 C935 1.474 . S
C934 C936 1.285 . S
C934 H954 0.929 . S
C935 C932 1.461 . S
C935 C934 1.474 . S
C936 C931 1.342 . S
C936 C934 1.285 . S
C936 H955 0.930 . S
C937 C940 1.424 . S
C937 C942 1.245 . S
C937 C943 1.428 . S
C938 C941 1.260 . S
C938 C942 1.477 . S
C938 H956 0.932 . S
C939 C940 1.384 . S
C939 C941 1.479 . S
C939 H957 0.929 . S
C940 C937 1.424 . S
C940 C939 1.384 . S
C940 H958 0.928 . S
C941 C938 1.260 . S
C941 C939 1.479 . S
C942 C937 1.245 . S
C942 C938 1.477 . S
C942 H959 0.932 . S
C943 U926 2.882 . S
C943 C937 1.428 . S
C943 O946 1.301 . S
C943 O947 1.282 . S
O944 U926 2.441 . S
O944 C930 1.249 . S
O945 U926 2.420 . S
O945 C930 1.202 . S
O946 U926 2.455 . S
O946 C943 1.301 . S
O947 U926 2.449 . S
O947 C943 1.282 . S
H948 C921 0.931 . S
H949 C923 0.929 . S
H950 C924 0.930 . S
H951 C925 0.931 . S
H952 C932 0.932 . S
H953 C933 0.930 . S
H954 C934 0.929 . S
H955 C936 0.930 . S
H956 C938 0.932 . S
H957 C939 0.929 . S
H958 C940 0.928 . S
H959 C942 0.932 . S
C960 C961 1.264 . S
C960 C965 1.479 . S
C960 C970 1.465 . S
C961 C960 1.264 . S
C961 C963 1.339 . S
C961 H988 0.931 . S
C962 C963 1.395 . S
C962 C964 1.320 . S
C963 C961 1.339 . S
C963 C962 1.395 . S
C963 H989 0.929 . S
C964 C962 1.320 . S
C964 C965 1.405 . S
C964 H990 0.930 . S
C965 C960 1.479 . S
C965 C964 1.405 . S
C965 H991 0.931 . S
U966 O967 2.454 . S
U966 O968 2.458 . S
U966 C969 2.984 . S
U966 C970 2.847 . S
U966 C983 2.882 . S
U966 O984 2.441 . S
U966 O985 2.420 . S
U966 O986 2.455 . S
U966 O987 2.449 . S
O967 U966 2.454 . S
O967 C969 1.353 . S
O968 U966 2.458 . S
O968 C969 1.286 . S
C969 U966 2.984 . S
C969 O967 1.353 . S
C969 O968 1.286 . S
C969 C971 1.363 . S
C970 C960 1.465 . S
C970 U966 2.847 . S
C970 O984 1.249 . S
C970 O985 1.202 . S
C971 C969 1.363 . S
C971 C973 1.408 . S
C971 C976 1.342 . S
C972 C973 1.310 . S
C972 C975 1.461 . S
C972 H992 0.932 . S
C973 C971 1.408 . S
C973 C972 1.310 . S
C973 H993 0.930 . S
C974 C975 1.474 . S
C974 C976 1.285 . S
C974 H994 0.929 . S
C975 C972 1.461 . S
C975 C974 1.474 . S
C976 C971 1.342 . S
C976 C974 1.285 . S
C976 H995 0.930 . S
C977 C980 1.424 . S
C977 C982 1.245 . S
C977 C983 1.428 . S
C978 C981 1.260 . S
C978 C982 1.477 . S
C978 H996 0.932 . S
C979 C980 1.384 . S
C979 C981 1.479 . S
C979 H997 0.929 . S
C980 C977 1.424 . S
C980 C979 1.384 . S
C980 H998 0.928 . S
C981 C978 1.260 . S
C981 C979 1.479 . S
C982 C977 1.245 . S
C982 C978 1.477 . S
C982 H999 0.932 . S
C983 U966 2.882 . S
C983 C977 1.428 . S
C983 O986 1.301 . S
C983 O987 1.282 . S
O984 U966 2.441 . S
O984 C970 1.249 . S
O985 U966 2.420 . S
O985 C970 1.202 . S
O986 U966 2.455 . S
O986 C983 1.301 . S
O987 U966 2.449 . S
O987 C983 1.282 . S
H988 C961 0.931 . S
H989 C963 0.929 . S
H990 C964 0.930 . S
H991 C965 0.931 . S
H992 C972 0.932 . S
H993 C973 0.930 . S
H994 C974 0.929 . S
H995 C976 0.930 . S
H996 C978 0.932 . S
H997 C979 0.929 . S
H998 C980 0.928 . S
H999 C982 0.932 . S
C1000 C1001 1.264 . S
C1000 C1005 1.479 . S
C1000 C1010 1.465 . S
C1001 C1000 1.264 . S
C1001 C1003 1.339 . S
C1001 H1028 0.931 . S
C1002 C1003 1.395 . S
C1002 C1004 1.320 . S
C1003 C1001 1.339 . S
C1003 C1002 1.395 . S
C1003 H1029 0.929 . S
C1004 C1002 1.320 . S
C1004 C1005 1.405 . S
C1004 H1030 0.930 . S
C1005 C1000 1.479 . S
C1005 C1004 1.405 . S
C1005 H1031 0.931 . S
U1006 O1007 2.454 . S
U1006 O1008 2.458 . S
U1006 C1009 2.984 . S
U1006 C1010 2.847 . S
U1006 C1023 2.882 . S
U1006 O1024 2.441 . S
U1006 O1025 2.420 . S
U1006 O1026 2.455 . S
U1006 O1027 2.449 . S
O1007 U1006 2.454 . S
O1007 C1009 1.353 . S
O1008 U1006 2.458 . S
O1008 C1009 1.286 . S
C1009 U1006 2.984 . S
C1009 O1007 1.353 . S
C1009 O1008 1.286 . S
C1009 C1011 1.363 . S
C1010 C1000 1.465 . S
C1010 U1006 2.847 . S
C1010 O1024 1.249 . S
C1010 O1025 1.202 . S
C1011 C1009 1.363 . S
C1011 C1013 1.408 . S
C1011 C1016 1.342 . S
C1012 C1013 1.310 . S
C1012 C1015 1.461 . S
C1012 H1032 0.932 . S
C1013 C1011 1.408 . S
C1013 C1012 1.310 . S
C1013 H1033 0.930 . S
C1014 C1015 1.474 . S
C1014 C1016 1.285 . S
C1014 H1034 0.929 . S
C1015 C1012 1.461 . S
C1015 C1014 1.474 . S
C1016 C1011 1.342 . S
C1016 C1014 1.285 . S
C1016 H1035 0.930 . S
C1017 C1020 1.424 . S
C1017 C1022 1.245 . S
C1017 C1023 1.428 . S
C1018 C1021 1.260 . S
C1018 C1022 1.477 . S
C1018 H1036 0.932 . S
C1019 C1020 1.384 . S
C1019 C1021 1.479 . S
C1019 H1037 0.929 . S
C1020 C1017 1.424 . S
C1020 C1019 1.384 . S
C1020 H1038 0.928 . S
C1021 C1018 1.260 . S
C1021 C1019 1.479 . S
C1022 C1017 1.245 . S
C1022 C1018 1.477 . S
C1022 H1039 0.932 . S
C1023 U1006 2.882 . S
C1023 C1017 1.428 . S
C1023 O1026 1.301 . S
C1023 O1027 1.282 . S
O1024 U1006 2.441 . S
O1024 C1010 1.249 . S
O1025 U1006 2.420 . S
O1025 C1010 1.202 . S
O1026 U1006 2.455 . S
O1026 C1023 1.301 . S
O1027 U1006 2.449 . S
O1027 C1023 1.282 . S
H1028 C1001 0.931 . S
H1029 C1003 0.929 . S
H1030 C1004 0.930 . S
H1031 C1005 0.931 . S
H1032 C1012 0.932 . S
H1033 C1013 0.930 . S
H1034 C1014 0.929 . S
H1035 C1016 0.930 . S
H1036 C1018 0.932 . S
H1037 C1019 0.929 . S
H1038 C1020 0.928 . S
H1039 C1022 0.932 . S
C1040 C1041 1.264 . S
C1040 C1045 1.479 . S
C1040 C1050 1.465 . S
C1041 C1040 1.264 . S
C1041 C1043 1.339 . S
C1041 H1068 0.931 . S
C1042 C1043 1.395 . S
C1042 C1044 1.320 . S
C1043 C1041 1.339 . S
C1043 C1042 1.395 . S
C1043 H1069 0.929 . S
C1044 C1042 1.320 . S
C1044 C1045 1.405 . S
C1044 H1070 0.930 . S
C1045 C1040 1.479 . S
C1045 C1044 1.405 . S
C1045 H1071 0.931 . S
U1046 O1047 2.454 . S
U1046 O1048 2.458 . S
U1046 C1049 2.984 . S
U1046 C1050 2.847 . S
U1046 C1063 2.882 . S
U1046 O1064 2.441 . S
U1046 O1065 2.420 . S
U1046 O1066 2.455 . S
U1046 O1067 2.449 . S
O1047 U1046 2.454 . S
O1047 C1049 1.353 . S
O1048 U1046 2.458 . S
O1048 C1049 1.286 . S
C1049 U1046 2.984 . S
C1049 O1047 1.353 . S
C1049 O1048 1.286 . S
C1049 C1051 1.363 . S
C1050 C1040 1.465 . S
C1050 U1046 2.847 . S
C1050 O1064 1.249 . S
C1050 O1065 1.202 . S
C1051 C1049 1.363 . S
C1051 C1053 1.408 . S
C1051 C1056 1.342 . S
C1052 C1053 1.310 . S
C1052 C1055 1.461 . S
C1052 H1072 0.932 . S
C1053 C1051 1.408 . S
C1053 C1052 1.310 . S
C1053 H1073 0.930 . S
C1054 C1055 1.474 . S
C1054 C1056 1.285 . S
C1054 H1074 0.929 . S
C1055 C1052 1.461 . S
C1055 C1054 1.474 . S
C1056 C1051 1.342 . S
C1056 C1054 1.285 . S
C1056 H1075 0.930 . S
C1057 C1060 1.424 . S
C1057 C1062 1.245 . S
C1057 C1063 1.428 . S
C1058 C1061 1.260 . S
C1058 C1062 1.477 . S
C1058 H1076 0.932 . S
C1059 C1060 1.384 . S
C1059 C1061 1.479 . S
C1059 H1077 0.929 . S
C1060 C1057 1.424 . S
C1060 C1059 1.384 . S
C1060 H1078 0.928 . S
C1061 C1058 1.260 . S
C1061 C1059 1.479 . S
C1062 C1057 1.245 . S
C1062 C1058 1.477 . S
C1062 H1079 0.932 . S
C1063 U1046 2.882 . S
C1063 C1057 1.428 . S
C1063 O1066 1.301 . S
C1063 O1067 1.282 . S
O1064 U1046 2.441 . S
O1064 C1050 1.249 . S
O1065 U1046 2.420 . S
O1065 C1050 1.202 . S
O1066 U1046 2.455 . S
O1066 C1063 1.301 . S
O1067 U1046 2.449 . S
O1067 C1063 1.282 . S
H1068 C1041 0.931 . S
H1069 C1043 0.929 . S
H1070 C1044 0.930 . S
H1071 C1045 0.931 . S
H1072 C1052 0.932 . S
H1073 C1053 0.930 . S
H1074 C1054 0.929 . S
H1075 C1056 0.930 . S
H1076 C1058 0.932 . S
H1077 C1059 0.929 . S
H1078 C1060 0.928 . S
H1079 C1062 0.932 . S
C1080 C1081 1.264 . S
C1080 C1085 1.479 . S
C1080 C1090 1.465 . S
C1081 C1080 1.264 . S
C1081 C1083 1.339 . S
C1081 H1108 0.931 . S
C1082 C1083 1.395 . S
C1082 C1084 1.320 . S
C1083 C1081 1.339 . S
C1083 C1082 1.395 . S
C1083 H1109 0.929 . S
C1084 C1082 1.320 . S
C1084 C1085 1.405 . S
C1084 H1110 0.930 . S
C1085 C1080 1.479 . S
C1085 C1084 1.405 . S
C1085 H1111 0.931 . S
U1086 O1087 2.454 . S
U1086 O1088 2.458 . S
U1086 C1089 2.984 . S
U1086 C1090 2.847 . S
U1086 C1103 2.882 . S
U1086 O1104 2.441 . S
U1086 O1105 2.420 . S
U1086 O1106 2.455 . S
U1086 O1107 2.449 . S
O1087 U1086 2.454 . S
O1087 C1089 1.353 . S
O1088 U1086 2.458 . S
O1088 C1089 1.286 . S
C1089 U1086 2.984 . S
C1089 O1087 1.353 . S
C1089 O1088 1.286 . S
C1089 C1091 1.363 . S
C1090 C1080 1.465 . S
C1090 U1086 2.847 . S
C1090 O1104 1.249 . S
C1090 O1105 1.202 . S
C1091 C1089 1.363 . S
C1091 C1093 1.408 . S
C1091 C1096 1.342 . S
C1092 C1093 1.310 . S
C1092 C1095 1.461 . S
C1092 H1112 0.932 . S
C1093 C1091 1.408 . S
C1093 C1092 1.310 . S
C1093 H1113 0.930 . S
C1094 C1095 1.474 . S
C1094 C1096 1.285 . S
C1094 H1114 0.929 . S
C1095 C1092 1.461 . S
C1095 C1094 1.474 . S
C1096 C1091 1.342 . S
C1096 C1094 1.285 . S
C1096 H1115 0.930 . S
C1097 C1100 1.424 . S
C1097 C1102 1.245 . S
C1097 C1103 1.428 . S
C1098 C1101 1.260 . S
C1098 C1102 1.477 . S
C1098 H1116 0.932 . S
C1099 C1100 1.384 . S
C1099 C1101 1.479 . S
C1099 H1117 0.929 . S
C1100 C1097 1.424 . S
C1100 C1099 1.384 . S
C1100 H1118 0.928 . S
C1101 C1098 1.260 . S
C1101 C1099 1.479 . S
C1102 C1097 1.245 . S
C1102 C1098 1.477 . S
C1102 H1119 0.932 . S
C1103 U1086 2.882 . S
C1103 C1097 1.428 . S
C1103 O1106 1.301 . S
C1103 O1107 1.282 . S
O1104 U1086 2.441 . S
O1104 C1090 1.249 . S
O1105 U1086 2.420 . S
O1105 C1090 1.202 . S
O1106 U1086 2.455 . S
O1106 C1103 1.301 . S
O1107 U1086 2.449 . S
O1107 C1103 1.282 . S
H1108 C1081 0.931 . S
H1109 C1083 0.929 . S
H1110 C1084 0.930 . S
H1111 C1085 0.931 . S
H1112 C1092 0.932 . S
H1113 C1093 0.930 . S
H1114 C1094 0.929 . S
H1115 C1096 0.930 . S
H1116 C1098 0.932 . S
H1117 C1099 0.929 . S
H1118 C1100 0.928 . S
H1119 C1102 0.932 . S
C1120 C1121 1.264 . S
C1120 C1125 1.479 . S
C1120 C1130 1.465 . S
C1121 C1120 1.264 . S
C1121 C1123 1.339 . S
C1121 H1148 0.931 . S
C1122 C1123 1.395 . S
C1122 C1124 1.320 . S
C1123 C1121 1.339 . S
C1123 C1122 1.395 . S
C1123 H1149 0.929 . S
C1124 C1122 1.320 . S
C1124 C1125 1.405 . S
C1124 H1150 0.930 . S
C1125 C1120 1.479 . S
C1125 C1124 1.405 . S
C1125 H1151 0.931 . S
U1126 O1127 2.454 . S
U1126 O1128 2.458 . S
U1126 C1129 2.984 . S
U1126 C1130 2.847 . S
U1126 C1143 2.882 . S
U1126 O1144 2.441 . S
U1126 O1145 2.420 . S
U1126 O1146 2.455 . S
U1126 O1147 2.449 . S
O1127 U1126 2.454 . S
O1127 C1129 1.353 . S
O1128 U1126 2.458 . S
O1128 C1129 1.286 . S
C1129 U1126 2.984 . S
C1129 O1127 1.353 . S
C1129 O1128 1.286 . S
C1129 C1131 1.363 . S
C1130 C1120 1.465 . S
C1130 U1126 2.847 . S
C1130 O1144 1.249 . S
C1130 O1145 1.202 . S
C1131 C1129 1.363 . S
C1131 C1133 1.408 . S
C1131 C1136 1.342 . S
C1132 C1133 1.310 . S
C1132 C1135 1.461 . S
C1132 H1152 0.932 . S
C1133 C1131 1.408 . S
C1133 C1132 1.310 . S
C1133 H1153 0.930 . S
C1134 C1135 1.474 . S
C1134 C1136 1.285 . S
C1134 H1154 0.929 . S
C1135 C1132 1.461 . S
C1135 C1134 1.474 . S
C1136 C1131 1.342 . S
C1136 C1134 1.285 . S
C1136 H1155 0.930 . S
C1137 C1140 1.424 . S
C1137 C1142 1.245 . S
C1137 C1143 1.428 . S
C1138 C1141 1.260 . S
C1138 C1142 1.477 . S
C1138 H1156 0.932 . S
C1139 C1140 1.384 . S
C1139 C1141 1.479 . S
C1139 H1157 0.929 . S
C1140 C1137 1.424 . S
C1140 C1139 1.384 . S
C1140 H1158 0.928 . S
C1141 C1138 1.260 . S
C1141 C1139 1.479 . S
C1142 C1137 1.245 . S
C1142 C1138 1.477 . S
C1142 H1159 0.932 . S
C1143 U1126 2.882 . S
C1143 C1137 1.428 . S
C1143 O1146 1.301 . S
C1143 O1147 1.282 . S
O1144 U1126 2.441 . S
O1144 C1130 1.249 . S
O1145 U1126 2.420 . S
O1145 C1130 1.202 . S
O1146 U1126 2.455 . S
O1146 C1143 1.301 . S
O1147 U1126 2.449 . S
O1147 C1143 1.282 . S
H1148 C1121 0.931 . S
H1149 C1123 0.929 . S
H1150 C1124 0.930 . S
H1151 C1125 0.931 . S
H1152 C1132 0.932 . S
H1153 C1133 0.930 . S
H1154 C1134 0.929 . S
H1155 C1136 0.930 . S
H1156 C1138 0.932 . S
H1157 C1139 0.929 . S
H1158 C1140 0.928 . S
H1159 C1142 0.932 . S
C1160 C1161 1.264 . S
C1160 C1165 1.479 . S
C1160 C1170 1.465 . S
C1161 C1160 1.264 . S
C1161 C1163 1.339 . S
C1161 H1188 0.931 . S
C1162 C1163 1.395 . S
C1162 C1164 1.320 . S
C1163 C1161 1.339 . S
C1163 C1162 1.395 . S
C1163 H1189 0.929 . S
C1164 C1162 1.320 . S
C1164 C1165 1.405 . S
C1164 H1190 0.930 . S
C1165 C1160 1.479 . S
C1165 C1164 1.405 . S
C1165 H1191 0.931 . S
U1166 O1167 2.454 . S
U1166 O1168 2.458 . S
U1166 C1169 2.984 . S
U1166 C1170 2.847 . S
U1166 C1183 2.882 . S
U1166 O1184 2.441 . S
U1166 O1185 2.420 . S
U1166 O1186 2.455 . S
U1166 O1187 2.449 . S
O1167 U1166 2.454 . S
O1167 C1169 1.353 . S
O1168 U1166 2.458 . S
O1168 C1169 1.286 . S
C1169 U1166 2.984 . S
C1169 O1167 1.353 . S
C1169 O1168 1.286 . S
C1169 C1171 1.363 . S
C1170 C1160 1.465 . S
C1170 U1166 2.847 . S
C1170 O1184 1.249 . S
C1170 O1185 1.202 . S
C1171 C1169 1.363 . S
C1171 C1173 1.408 . S
C1171 C1176 1.342 . S
C1172 C1173 1.310 . S
C1172 C1175 1.461 . S
C1172 H1192 0.932 . S
C1173 C1171 1.408 . S
C1173 C1172 1.310 . S
C1173 H1193 0.930 . S
C1174 C1175 1.474 . S
C1174 C1176 1.285 . S
C1174 H1194 0.929 . S
C1175 C1172 1.461 . S
C1175 C1174 1.474 . S
C1176 C1171 1.342 . S
C1176 C1174 1.285 . S
C1176 H1195 0.930 . S
C1177 C1180 1.424 . S
C1177 C1182 1.245 . S
C1177 C1183 1.428 . S
C1178 C1181 1.260 . S
C1178 C1182 1.477 . S
C1178 H1196 0.932 . S
C1179 C1180 1.384 . S
C1179 C1181 1.479 . S
C1179 H1197 0.929 . S
C1180 C1177 1.424 . S
C1180 C1179 1.384 . S
C1180 H1198 0.928 . S
C1181 C1178 1.260 . S
C1181 C1179 1.479 . S
C1182 C1177 1.245 . S
C1182 C1178 1.477 . S
C1182 H1199 0.932 . S
C1183 U1166 2.882 . S
C1183 C1177 1.428 . S
C1183 O1186 1.301 . S
C1183 O1187 1.282 . S
O1184 U1166 2.441 . S
O1184 C1170 1.249 . S
O1185 U1166 2.420 . S
O1185 C1170 1.202 . S
O1186 U1166 2.455 . S
O1186 C1183 1.301 . S
O1187 U1166 2.449 . S
O1187 C1183 1.282 . S
H1188 C1161 0.931 . S
H1189 C1163 0.929 . S
H1190 C1164 0.930 . S
H1191 C1165 0.931 . S
H1192 C1172 0.932 . S
H1193 C1173 0.930 . S
H1194 C1174 0.929 . S
H1195 C1176 0.930 . S
H1196 C1178 0.932 . S
H1197 C1179 0.929 . S
H1198 C1180 0.928 . S
H1199 C1182 0.932 . S
C1200 C1201 1.264 . S
C1200 C1205 1.479 . S
C1200 C1210 1.465 . S
C1201 C1200 1.264 . S
C1201 C1203 1.339 . S
C1201 H1228 0.931 . S
C1202 C1203 1.395 . S
C1202 C1204 1.320 . S
C1203 C1201 1.339 . S
C1203 C1202 1.395 . S
C1203 H1229 0.929 . S
C1204 C1202 1.320 . S
C1204 C1205 1.405 . S
C1204 H1230 0.930 . S
C1205 C1200 1.479 . S
C1205 C1204 1.405 . S
C1205 H1231 0.931 . S
U1206 O1207 2.454 . S
U1206 O1208 2.458 . S
U1206 C1209 2.984 . S
U1206 C1210 2.847 . S
U1206 C1223 2.882 . S
U1206 O1224 2.441 . S
U1206 O1225 2.420 . S
U1206 O1226 2.455 . S
U1206 O1227 2.449 . S
O1207 U1206 2.454 . S
O1207 C1209 1.353 . S
O1208 U1206 2.458 . S
O1208 C1209 1.286 . S
C1209 U1206 2.984 . S
C1209 O1207 1.353 . S
C1209 O1208 1.286 . S
C1209 C1211 1.363 . S
C1210 C1200 1.465 . S
C1210 U1206 2.847 . S
C1210 O1224 1.249 . S
C1210 O1225 1.202 . S
C1211 C1209 1.363 . S
C1211 C1213 1.408 . S
C1211 C1216 1.342 . S
C1212 C1213 1.310 . S
C1212 C1215 1.461 . S
C1212 H1232 0.932 . S
C1213 C1211 1.408 . S
C1213 C1212 1.310 . S
C1213 H1233 0.930 . S
C1214 C1215 1.474 . S
C1214 C1216 1.285 . S
C1214 H1234 0.929 . S
C1215 C1212 1.461 . S
C1215 C1214 1.474 . S
C1216 C1211 1.342 . S
C1216 C1214 1.285 . S
C1216 H1235 0.930 . S
C1217 C1220 1.424 . S
C1217 C1222 1.245 . S
C1217 C1223 1.428 . S
C1218 C1221 1.260 . S
C1218 C1222 1.477 . S
C1218 H1236 0.932 . S
C1219 C1220 1.384 . S
C1219 C1221 1.479 . S
C1219 H1237 0.929 . S
C1220 C1217 1.424 . S
C1220 C1219 1.384 . S
C1220 H1238 0.928 . S
C1221 C1218 1.260 . S
C1221 C1219 1.479 . S
C1222 C1217 1.245 . S
C1222 C1218 1.477 . S
C1222 H1239 0.932 . S
C1223 U1206 2.882 . S
C1223 C1217 1.428 . S
C1223 O1226 1.301 . S
C1223 O1227 1.282 . S
O1224 U1206 2.441 . S
O1224 C1210 1.249 . S
O1225 U1206 2.420 . S
O1225 C1210 1.202 . S
O1226 U1206 2.455 . S
O1226 C1223 1.301 . S
O1227 U1206 2.449 . S
O1227 C1223 1.282 . S
H1228 C1201 0.931 . S
H1229 C1203 0.929 . S
H1230 C1204 0.930 . S
H1231 C1205 0.931 . S
H1232 C1212 0.932 . S
H1233 C1213 0.930 . S
H1234 C1214 0.929 . S
H1235 C1216 0.930 . S
H1236 C1218 0.932 . S
H1237 C1219 0.929 . S
H1238 C1220 0.928 . S
H1239 C1222 0.932 . S
C1240 C1241 1.264 . S
C1240 C1245 1.479 . S
C1240 C1250 1.465 . S
C1241 C1240 1.264 . S
C1241 C1243 1.339 . S
C1241 H1268 0.931 . S
C1242 C1243 1.395 . S
C1242 C1244 1.320 . S
C1243 C1241 1.339 . S
C1243 C1242 1.395 . S
C1243 H1269 0.929 . S
C1244 C1242 1.320 . S
C1244 C1245 1.405 . S
C1244 H1270 0.930 . S
C1245 C1240 1.479 . S
C1245 C1244 1.405 . S
C1245 H1271 0.931 . S
U1246 O1247 2.454 . S
U1246 O1248 2.458 . S
U1246 C1249 2.984 . S
U1246 C1250 2.847 . S
U1246 C1263 2.882 . S
U1246 O1264 2.441 . S
U1246 O1265 2.420 . S
U1246 O1266 2.455 . S
U1246 O1267 2.449 . S
O1247 U1246 2.454 . S
O1247 C1249 1.353 . S
O1248 U1246 2.458 . S
O1248 C1249 1.286 . S
C1249 U1246 2.984 . S
C1249 O1247 1.353 . S
C1249 O1248 1.286 . S
C1249 C1251 1.363 . S
C1250 C1240 1.465 . S
C1250 U1246 2.847 . S
C1250 O1264 1.249 . S
C1250 O1265 1.202 . S
C1251 C1249 1.363 . S
C1251 C1253 1.408 . S
C1251 C1256 1.342 . S
C1252 C1253 1.310 . S
C1252 C1255 1.461 . S
C1252 H1272 0.932 . S
C1253 C1251 1.408 . S
C1253 C1252 1.310 . S
C1253 H1273 0.930 . S
C1254 C1255 1.474 . S
C1254 C1256 1.285 . S
C1254 H1274 0.929 . S
C1255 C1252 1.461 . S
C1255 C1254 1.474 . S
C1256 C1251 1.342 . S
C1256 C1254 1.285 . S
C1256 H1275 0.930 . S
C1257 C1260 1.424 . S
C1257 C1262 1.245 . S
C1257 C1263 1.428 . S
C1258 C1261 1.260 . S
C1258 C1262 1.477 . S
C1258 H1276 0.932 . S
C1259 C1260 1.384 . S
C1259 C1261 1.479 . S
C1259 H1277 0.929 . S
C1260 C1257 1.424 . S
C1260 C1259 1.384 . S
C1260 H1278 0.928 . S
C1261 C1258 1.260 . S
C1261 C1259 1.479 . S
C1262 C1257 1.245 . S
C1262 C1258 1.477 . S
C1262 H1279 0.932 . S
C1263 U1246 2.882 . S
C1263 C1257 1.428 . S
C1263 O1266 1.301 . S
C1263 O1267 1.282 . S
O1264 U1246 2.441 . S
O1264 C1250 1.249 . S
O1265 U1246 2.420 . S
O1265 C1250 1.202 . S
O1266 U1246 2.455 . S
O1266 C1263 1.301 . S
O1267 U1246 2.449 . S
O1267 C1263 1.282 . S
H1268 C1241 0.931 . S
H1269 C1243 0.929 . S
H1270 C1244 0.930 . S
H1271 C1245 0.931 . S
H1272 C1252 0.932 . S
H1273 C1253 0.930 . S
H1274 C1254 0.929 . S
H1275 C1256 0.930 . S
H1276 C1258 0.932 . S
H1277 C1259 0.929 . S
H1278 C1260 0.928 . S
H1279 C1262 0.932 . S
C1280 C1281 1.384 . S
C1280 C1282 1.384 . S
C1280 H1308 0.931 . S
C1281 C1280 1.384 . S
C1281 C1284 1.382 . S
C1282 C1280 1.384 . S
C1282 C1283 1.381 . S
C1282 H1309 0.930 . S
C1283 C1282 1.381 . S
C1283 C1285 1.381 . S
C1283 C1286 1.487 . S
C1284 C1281 1.382 . S
C1284 C1285 1.387 . S
C1284 H1310 0.930 . S
C1285 C1283 1.381 . S
C1285 C1284 1.387 . S
C1285 H1311 0.931 . S
C1286 C1283 1.487 . S
C1286 C1293 1.399 . S
C1286 N1324 1.343 . S
C1287 C1288 1.384 . S
C1287 C1289 1.384 . S
C1287 H1312 0.931 . S
C1288 C1287 1.384 . S
C1288 C1291 1.382 . S
C1289 C1287 1.384 . S
C1289 C1290 1.381 . S
C1289 H1313 0.930 . S
C1290 C1289 1.381 . S
C1290 C1292 1.381 . S
C1290 C1293 1.487 . S
C1291 C1288 1.382 . S
C1291 C1292 1.387 . S
C1291 H1314 0.930 . S
C1292 C1290 1.381 . S
C1292 C1291 1.387 . S
C1292 H1315 0.931 . S
C1293 C1286 1.399 . S
C1293 C1290 1.487 . S
C1293 N1325 1.343 . S
C1294 C1295 1.384 . S
C1294 C1296 1.384 . S
C1294 H1316 0.931 . S
C1295 C1294 1.384 . S
C1295 C1298 1.382 . S
C1296 C1294 1.384 . S
C1296 C1297 1.381 . S
C1296 H1317 0.930 . S
C1297 C1296 1.381 . S
C1297 C1299 1.381 . S
C1297 C1300 1.487 . S
C1298 C1295 1.382 . S
C1298 C1299 1.387 . S
C1298 H1318 0.930 . S
C1299 C1297 1.381 . S
C1299 C1298 1.387 . S
C1299 H1319 0.931 . S
C1300 C1297 1.487 . S
C1300 C1307 1.399 . S
C1300 N1325 1.343 1_556 S
C1301 C1302 1.384 . S
C1301 C1303 1.384 . S
C1301 H1320 0.931 . S
C1302 C1301 1.384 . S
C1302 C1305 1.382 . S
C1303 C1301 1.384 . S
C1303 C1304 1.381 . S
C1303 H1321 0.930 . S
C1304 C1303 1.381 . S
C1304 C1306 1.381 . S
C1304 C1307 1.487 . S
C1305 C1302 1.382 . S
C1305 C1306 1.387 . S
C1305 H1322 0.930 . S
C1306 C1304 1.381 . S
C1306 C1305 1.387 . S
C1306 H1323 0.931 . S
C1307 C1300 1.399 . S
C1307 C1304 1.487 . S
C1307 N1324 1.343 1_556 S
H1308 C1280 0.931 . S
H1309 C1282 0.930 . S
H1310 C1284 0.930 . S
H1311 C1285 0.931 . S
H1312 C1287 0.931 . S
H1313 C1289 0.930 . S
H1314 C1291 0.930 . S
H1315 C1292 0.931 . S
H1316 C1294 0.931 . S
H1317 C1296 0.930 . S
H1318 C1298 0.930 . S
H1319 C1299 0.931 . S
H1320 C1301 0.931 . S
H1321 C1303 0.930 . S
H1322 C1305 0.930 . S
H1323 C1306 0.931 . S
N1324 C1286 1.343 . S
N1324 C1307 1.343 1_554 S
N1325 C1293 1.343 . S
N1325 C1300 1.343 1_554 S
C1326 C1327 1.384 . S
C1326 C1328 1.384 . S
C1326 H1354 0.931 . S
C1327 C1326 1.384 . S
C1327 C1330 1.382 . S
C1328 C1326 1.384 . S
C1328 C1329 1.381 . S
C1328 H1355 0.930 . S
C1329 C1328 1.381 . S
C1329 C1331 1.381 . S
C1329 C1332 1.487 . S
C1330 C1327 1.382 . S
C1330 C1331 1.387 . S
C1330 H1356 0.930 . S
C1331 C1329 1.381 . S
C1331 C1330 1.387 . S
C1331 H1357 0.931 . S
C1332 C1329 1.487 . S
C1332 C1339 1.399 . S
C1332 N1370 1.343 1_556 S
C1333 C1334 1.384 . S
C1333 C1335 1.384 . S
C1333 H1358 0.931 . S
C1334 C1333 1.384 . S
C1334 C1337 1.382 . S
C1335 C1333 1.384 . S
C1335 C1336 1.381 . S
C1335 H1359 0.930 . S
C1336 C1335 1.381 . S
C1336 C1338 1.381 . S
C1336 C1339 1.487 . S
C1337 C1334 1.382 . S
C1337 C1338 1.387 . S
C1337 H1360 0.930 . S
C1338 C1336 1.381 . S
C1338 C1337 1.387 . S
C1338 H1361 0.931 . S
C1339 C1332 1.399 . S
C1339 C1336 1.487 . S
C1339 N1371 1.343 1_556 S
C1340 C1341 1.384 . S
C1340 C1342 1.384 . S
C1340 H1362 0.931 . S
C1341 C1340 1.384 . S
C1341 C1344 1.382 . S
C1342 C1340 1.384 . S
C1342 C1343 1.381 . S
C1342 H1363 0.930 . S
C1343 C1342 1.381 . S
C1343 C1345 1.381 . S
C1343 C1346 1.487 . S
C1344 C1341 1.382 . S
C1344 C1345 1.387 . S
C1344 H1364 0.930 . S
C1345 C1343 1.381 . S
C1345 C1344 1.387 . S
C1345 H1365 0.931 . S
C1346 C1343 1.487 . S
C1346 C1353 1.399 . S
C1346 N1371 1.343 . S
C1347 C1348 1.384 . S
C1347 C1349 1.384 . S
C1347 H1366 0.931 . S
C1348 C1347 1.384 . S
C1348 C1351 1.382 . S
C1349 C1347 1.384 . S
C1349 C1350 1.381 . S
C1349 H1367 0.930 . S
C1350 C1349 1.381 . S
C1350 C1352 1.381 . S
C1350 C1353 1.487 . S
C1351 C1348 1.382 . S
C1351 C1352 1.387 . S
C1351 H1368 0.930 . S
C1352 C1350 1.381 . S
C1352 C1351 1.387 . S
C1352 H1369 0.931 . S
C1353 C1346 1.399 . S
C1353 C1350 1.487 . S
C1353 N1370 1.343 . S
H1354 C1326 0.931 . S
H1355 C1328 0.930 . S
H1356 C1330 0.930 . S
H1357 C1331 0.931 . S
H1358 C1333 0.931 . S
H1359 C1335 0.930 . S
H1360 C1337 0.930 . S
H1361 C1338 0.931 . S
H1362 C1340 0.931 . S
H1363 C1342 0.930 . S
H1364 C1344 0.930 . S
H1365 C1345 0.931 . S
H1366 C1347 0.931 . S
H1367 C1349 0.930 . S
H1368 C1351 0.930 . S
H1369 C1352 0.931 . S
N1370 C1332 1.343 1_554 S
N1370 C1353 1.343 . S
N1371 C1339 1.343 1_554 S
N1371 C1346 1.343 . S
C1372 C1373 1.384 . S
C1372 C1374 1.384 . S
C1372 H1400 0.931 . S
C1373 C1372 1.384 . S
C1373 C1376 1.382 . S
C1374 C1372 1.384 . S
C1374 C1375 1.381 . S
C1374 H1401 0.930 . S
C1375 C1374 1.381 . S
C1375 C1377 1.381 . S
C1375 C1378 1.487 . S
C1376 C1373 1.382 . S
C1376 C1377 1.387 . S
C1376 H1402 0.930 . S
C1377 C1375 1.381 . S
C1377 C1376 1.387 . S
C1377 H1403 0.931 . S
C1378 C1375 1.487 . S
C1378 C1385 1.399 . S
C1378 N1416 1.343 . S
C1379 C1380 1.384 . S
C1379 C1381 1.384 . S
C1379 H1404 0.931 . S
C1380 C1379 1.384 . S
C1380 C1383 1.382 . S
C1381 C1379 1.384 . S
C1381 C1382 1.381 . S
C1381 H1405 0.930 . S
C1382 C1381 1.381 . S
C1382 C1384 1.381 . S
C1382 C1385 1.487 . S
C1383 C1380 1.382 . S
C1383 C1384 1.387 . S
C1383 H1406 0.930 . S
C1384 C1382 1.381 . S
C1384 C1383 1.387 . S
C1384 H1407 0.931 . S
C1385 C1378 1.399 . S
C1385 C1382 1.487 . S
C1385 N1417 1.343 . S
C1386 C1387 1.384 . S
C1386 C1388 1.384 . S
C1386 H1408 0.931 . S
C1387 C1386 1.384 . S
C1387 C1390 1.382 . S
C1388 C1386 1.384 . S
C1388 C1389 1.381 . S
C1388 H1409 0.930 . S
C1389 C1388 1.381 . S
C1389 C1391 1.381 . S
C1389 C1392 1.487 . S
C1390 C1387 1.382 . S
C1390 C1391 1.387 . S
C1390 H1410 0.930 . S
C1391 C1389 1.381 . S
C1391 C1390 1.387 . S
C1391 H1411 0.931 . S
C1392 C1389 1.487 . S
C1392 C1399 1.399 . S
C1392 N1417 1.343 1_556 S
C1393 C1394 1.384 . S
C1393 C1395 1.384 . S
C1393 H1412 0.931 . S
C1394 C1393 1.384 . S
C1394 C1397 1.382 . S
C1395 C1393 1.384 . S
C1395 C1396 1.381 . S
C1395 H1413 0.930 . S
C1396 C1395 1.381 . S
C1396 C1398 1.381 . S
C1396 C1399 1.487 . S
C1397 C1394 1.382 . S
C1397 C1398 1.387 . S
C1397 H1414 0.930 . S
C1398 C1396 1.381 . S
C1398 C1397 1.387 . S
C1398 H1415 0.931 . S
C1399 C1392 1.399 . S
C1399 C1396 1.487 . S
C1399 N1416 1.343 1_556 S
H1400 C1372 0.931 . S
H1401 C1374 0.930 . S
H1402 C1376 0.930 . S
H1403 C1377 0.931 . S
H1404 C1379 0.931 . S
H1405 C1381 0.930 . S
H1406 C1383 0.930 . S
H1407 C1384 0.931 . S
H1408 C1386 0.931 . S
H1409 C1388 0.930 . S
H1410 C1390 0.930 . S
H1411 C1391 0.931 . S
H1412 C1393 0.931 . S
H1413 C1395 0.930 . S
H1414 C1397 0.930 . S
H1415 C1398 0.931 . S
N1416 C1378 1.343 . S
N1416 C1399 1.343 1_554 S
N1417 C1385 1.343 . S
N1417 C1392 1.343 1_554 S
C1418 C1419 1.384 . S
C1418 C1420 1.384 . S
C1418 H1446 0.931 . S
C1419 C1418 1.384 . S
C1419 C1422 1.382 . S
C1420 C1418 1.384 . S
C1420 C1421 1.381 . S
C1420 H1447 0.930 . S
C1421 C1420 1.381 . S
C1421 C1423 1.381 . S
C1421 C1424 1.487 . S
C1422 C1419 1.382 . S
C1422 C1423 1.387 . S
C1422 H1448 0.930 . S
C1423 C1421 1.381 . S
C1423 C1422 1.387 . S
C1423 H1449 0.931 . S
C1424 C1421 1.487 . S
C1424 C1431 1.399 . S
C1424 N1462 1.343 1_556 S
C1425 C1426 1.384 . S
C1425 C1427 1.384 . S
C1425 H1450 0.931 . S
C1426 C1425 1.384 . S
C1426 C1429 1.382 . S
C1427 C1425 1.384 . S
C1427 C1428 1.381 . S
C1427 H1451 0.930 . S
C1428 C1427 1.381 . S
C1428 C1430 1.381 . S
C1428 C1431 1.487 . S
C1429 C1426 1.382 . S
C1429 C1430 1.387 . S
C1429 H1452 0.930 . S
C1430 C1428 1.381 . S
C1430 C1429 1.387 . S
C1430 H1453 0.931 . S
C1431 C1424 1.399 . S
C1431 C1428 1.487 . S
C1431 N1463 1.343 1_556 S
C1432 C1433 1.384 . S
C1432 C1434 1.384 . S
C1432 H1454 0.931 . S
C1433 C1432 1.384 . S
C1433 C1436 1.382 . S
C1434 C1432 1.384 . S
C1434 C1435 1.381 . S
C1434 H1455 0.930 . S
C1435 C1434 1.381 . S
C1435 C1437 1.381 . S
C1435 C1438 1.487 . S
C1436 C1433 1.382 . S
C1436 C1437 1.387 . S
C1436 H1456 0.930 . S
C1437 C1435 1.381 . S
C1437 C1436 1.387 . S
C1437 H1457 0.931 . S
C1438 C1435 1.487 . S
C1438 C1445 1.399 . S
C1438 N1463 1.343 . S
C1439 C1440 1.384 . S
C1439 C1441 1.384 . S
C1439 H1458 0.931 . S
C1440 C1439 1.384 . S
C1440 C1443 1.382 . S
C1441 C1439 1.384 . S
C1441 C1442 1.381 . S
C1441 H1459 0.930 . S
C1442 C1441 1.381 . S
C1442 C1444 1.381 . S
C1442 C1445 1.487 . S
C1443 C1440 1.382 . S
C1443 C1444 1.387 . S
C1443 H1460 0.930 . S
C1444 C1442 1.381 . S
C1444 C1443 1.387 . S
C1444 H1461 0.931 . S
C1445 C1438 1.399 . S
C1445 C1442 1.487 . S
C1445 N1462 1.343 . S
H1446 C1418 0.931 . S
H1447 C1420 0.930 . S
H1448 C1422 0.930 . S
H1449 C1423 0.931 . S
H1450 C1425 0.931 . S
H1451 C1427 0.930 . S
H1452 C1429 0.930 . S
H1453 C1430 0.931 . S
H1454 C1432 0.931 . S
H1455 C1434 0.930 . S
H1456 C1436 0.930 . S
H1457 C1437 0.931 . S
H1458 C1439 0.931 . S
H1459 C1441 0.930 . S
H1460 C1443 0.930 . S
H1461 C1444 0.931 . S
N1462 C1424 1.343 1_554 S
N1462 C1445 1.343 . S
N1463 C1431 1.343 1_554 S
N1463 C1438 1.343 . S
C1464 C1465 1.384 . S
C1464 C1466 1.384 . S
C1464 H1492 0.931 . S
C1465 C1464 1.384 . S
C1465 C1468 1.382 . S
C1466 C1464 1.384 . S
C1466 C1467 1.381 . S
C1466 H1493 0.930 . S
C1467 C1466 1.381 . S
C1467 C1469 1.381 . S
C1467 C1470 1.487 . S
C1468 C1465 1.382 . S
C1468 C1469 1.387 . S
C1468 H1494 0.930 . S
C1469 C1467 1.381 . S
C1469 C1468 1.387 . S
C1469 H1495 0.931 . S
C1470 C1467 1.487 . S
C1470 C1477 1.399 . S
C1470 N1508 1.343 1_655 S
C1471 C1472 1.384 . S
C1471 C1473 1.384 . S
C1471 H1496 0.931 . S
C1472 C1471 1.384 . S
C1472 C1475 1.382 . S
C1473 C1471 1.384 . S
C1473 C1474 1.381 . S
C1473 H1497 0.930 . S
C1474 C1473 1.381 . S
C1474 C1476 1.381 . S
C1474 C1477 1.487 . S
C1475 C1472 1.382 . S
C1475 C1476 1.387 . S
C1475 H1498 0.930 . S
C1476 C1474 1.381 . S
C1476 C1475 1.387 . S
C1476 H1499 0.931 . S
C1477 C1470 1.399 . S
C1477 C1474 1.487 . S
C1477 N1509 1.343 1_655 S
C1478 C1479 1.384 . S
C1478 C1480 1.384 . S
C1478 H1500 0.931 . S
C1479 C1478 1.384 . S
C1479 C1482 1.382 . S
C1480 C1478 1.384 . S
C1480 C1481 1.381 . S
C1480 H1501 0.930 . S
C1481 C1480 1.381 . S
C1481 C1483 1.381 . S
C1481 C1484 1.487 . S
C1482 C1479 1.382 . S
C1482 C1483 1.387 . S
C1482 H1502 0.930 . S
C1483 C1481 1.381 . S
C1483 C1482 1.387 . S
C1483 H1503 0.931 . S
C1484 C1481 1.487 . S
C1484 C1491 1.399 . S
C1484 N1509 1.343 . S
C1485 C1486 1.384 . S
C1485 C1487 1.384 . S
C1485 H1504 0.931 . S
C1486 C1485 1.384 . S
C1486 C1489 1.382 . S
C1487 C1485 1.384 . S
C1487 C1488 1.381 . S
C1487 H1505 0.930 . S
C1488 C1487 1.381 . S
C1488 C1490 1.381 . S
C1488 C1491 1.487 . S
C1489 C1486 1.382 . S
C1489 C1490 1.387 . S
C1489 H1506 0.930 . S
C1490 C1488 1.381 . S
C1490 C1489 1.387 . S
C1490 H1507 0.931 . S
C1491 C1484 1.399 . S
C1491 C1488 1.487 . S
C1491 N1508 1.343 . S
H1492 C1464 0.931 . S
H1493 C1466 0.930 . S
H1494 C1468 0.930 . S
H1495 C1469 0.931 . S
H1496 C1471 0.931 . S
H1497 C1473 0.930 . S
H1498 C1475 0.930 . S
H1499 C1476 0.931 . S
H1500 C1478 0.931 . S
H1501 C1480 0.930 . S
H1502 C1482 0.930 . S
H1503 C1483 0.931 . S
H1504 C1485 0.931 . S
H1505 C1487 0.930 . S
H1506 C1489 0.930 . S
H1507 C1490 0.931 . S
N1508 C1470 1.343 1_455 S
N1508 C1491 1.343 . S
N1509 C1477 1.343 1_455 S
N1509 C1484 1.343 . S
C1510 C1511 1.384 . S
C1510 C1512 1.384 . S
C1510 H1538 0.931 . S
C1511 C1510 1.384 . S
C1511 C1514 1.382 . S
C1512 C1510 1.384 . S
C1512 C1513 1.381 . S
C1512 H1539 0.930 . S
C1513 C1512 1.381 . S
C1513 C1515 1.381 . S
C1513 C1516 1.487 . S
C1514 C1511 1.382 . S
C1514 C1515 1.387 . S
C1514 H1540 0.930 . S
C1515 C1513 1.381 . S
C1515 C1514 1.387 . S
C1515 H1541 0.931 . S
C1516 C1513 1.487 . S
C1516 C1523 1.399 . S
C1516 N1554 1.304 1_565 S
C1517 C1518 1.384 . S
C1517 C1519 1.384 . S
C1517 H1542 0.931 . S
C1518 C1517 1.384 . S
C1518 C1521 1.382 . S
C1519 C1517 1.384 . S
C1519 C1520 1.381 . S
C1519 H1543 0.930 . S
C1520 C1519 1.381 . S
C1520 C1522 1.381 . S
C1520 C1523 1.487 . S
C1521 C1518 1.382 . S
C1521 C1522 1.387 . S
C1521 H1544 0.930 . S
C1522 C1520 1.381 . S
C1522 C1521 1.387 . S
C1522 H1545 0.931 . S
C1523 C1516 1.399 . S
C1523 C1520 1.487 . S
C1523 N1555 1.343 1_565 S
C1524 C1525 1.384 . S
C1524 C1526 1.384 . S
C1524 H1546 0.931 . S
C1525 C1524 1.384 . S
C1525 C1528 1.382 . S
C1526 C1524 1.384 . S
C1526 C1527 1.381 . S
C1526 H1547 0.930 . S
C1527 C1526 1.381 . S
C1527 C1529 1.381 . S
C1527 C1530 1.487 . S
C1528 C1525 1.382 . S
C1528 C1529 1.387 . S
C1528 H1548 0.930 . S
C1529 C1527 1.381 . S
C1529 C1528 1.387 . S
C1529 H1549 0.931 . S
C1530 C1527 1.487 . S
C1530 C1537 1.399 . S
C1530 N1555 1.343 . S
C1531 C1532 1.384 . S
C1531 C1533 1.384 . S
C1531 H1550 0.931 . S
C1532 C1531 1.384 . S
C1532 C1535 1.382 . S
C1533 C1531 1.384 . S
C1533 C1534 1.381 . S
C1533 H1551 0.930 . S
C1534 C1533 1.381 . S
C1534 C1536 1.381 . S
C1534 C1537 1.487 . S
C1535 C1532 1.382 . S
C1535 C1536 1.387 . S
C1535 H1552 0.930 . S
C1536 C1534 1.381 . S
C1536 C1535 1.387 . S
C1536 H1553 0.931 . S
C1537 C1530 1.399 . S
C1537 C1534 1.487 . S
C1537 N1554 1.383 . S
H1538 C1510 0.931 . S
H1539 C1512 0.930 . S
H1540 C1514 0.930 . S
H1541 C1515 0.931 . S
H1542 C1517 0.931 . S
H1543 C1519 0.930 . S
H1544 C1521 0.930 . S
H1545 C1522 0.931 . S
H1546 C1524 0.931 . S
H1547 C1526 0.930 . S
H1548 C1528 0.930 . S
H1549 C1529 0.931 . S
H1550 C1531 0.931 . S
H1551 C1533 0.930 . S
H1552 C1535 0.930 . S
H1553 C1536 0.931 . S
N1554 C1516 1.304 1_545 S
N1554 C1537 1.383 . S
N1555 C1523 1.343 1_545 S
N1555 C1530 1.343 . S
C1556 C1557 1.384 . S
C1556 C1558 1.384 . S
C1556 H1584 0.931 . S
C1557 C1556 1.384 . S
C1557 C1560 1.382 . S
C1558 C1556 1.384 . S
C1558 C1559 1.381 . S
C1558 H1585 0.930 . S
C1559 C1558 1.381 . S
C1559 C1561 1.381 . S
C1559 C1562 1.487 . S
C1560 C1557 1.382 . S
C1560 C1561 1.387 . S
C1560 H1586 0.930 . S
C1561 C1559 1.381 . S
C1561 C1560 1.387 . S
C1561 H1587 0.931 . S
C1562 C1559 1.487 . S
C1562 C1569 1.399 . S
C1562 N1600 1.343 . S
C1563 C1564 1.384 . S
C1563 C1565 1.384 . S
C1563 H1588 0.931 . S
C1564 C1563 1.384 . S
C1564 C1567 1.382 . S
C1565 C1563 1.384 . S
C1565 C1566 1.381 . S
C1565 H1589 0.930 . S
C1566 C1565 1.381 . S
C1566 C1568 1.381 . S
C1566 C1569 1.487 . S
C1567 C1564 1.382 . S
C1567 C1568 1.387 . S
C1567 H1590 0.930 . S
C1568 C1566 1.381 . S
C1568 C1567 1.387 . S
C1568 H1591 0.931 . S
C1569 C1562 1.399 . S
C1569 C1566 1.487 . S
C1569 N1601 1.404 . S
C1570 C1571 1.384 . S
C1570 C1572 1.384 . S
C1570 H1592 0.931 . S
C1571 C1570 1.384 . S
C1571 C1574 1.382 . S
C1572 C1570 1.384 . S
C1572 C1573 1.381 . S
C1572 H1593 0.930 . S
C1573 C1572 1.381 . S
C1573 C1575 1.381 . S
C1573 C1576 1.487 . S
C1574 C1571 1.382 . S
C1574 C1575 1.387 . S
C1574 H1594 0.930 . S
C1575 C1573 1.381 . S
C1575 C1574 1.387 . S
C1575 H1595 0.931 . S
C1576 C1573 1.487 . S
C1576 C1583 1.399 . S
C1576 N1601 1.283 1_655 S
C1577 C1578 1.384 . S
C1577 C1579 1.384 . S
C1577 H1596 0.931 . S
C1578 C1577 1.384 . S
C1578 C1581 1.382 . S
C1579 C1577 1.384 . S
C1579 C1580 1.381 . S
C1579 H1597 0.930 . S
C1580 C1579 1.381 . S
C1580 C1582 1.381 . S
C1580 C1583 1.487 . S
C1581 C1578 1.382 . S
C1581 C1582 1.387 . S
C1581 H1598 0.930 . S
C1582 C1580 1.381 . S
C1582 C1581 1.387 . S
C1582 H1599 0.931 . S
C1583 C1576 1.399 . S
C1583 C1580 1.487 . S
C1583 N1600 1.343 1_655 S
H1584 C1556 0.931 . S
H1585 C1558 0.930 . S
H1586 C1560 0.930 . S
H1587 C1561 0.931 . S
H1588 C1563 0.931 . S
H1589 C1565 0.930 . S
H1590 C1567 0.930 . S
H1591 C1568 0.931 . S
H1592 C1570 0.931 . S
H1593 C1572 0.930 . S
H1594 C1574 0.930 . S
H1595 C1575 0.931 . S
H1596 C1577 0.931 . S
H1597 C1579 0.930 . S
H1598 C1581 0.930 . S
H1599 C1582 0.931 . S
N1600 C1562 1.343 . S
N1600 C1583 1.343 1_455 S
N1601 C1569 1.404 . S
N1601 C1576 1.283 1_455 S
C1602 C1603 1.384 . S
C1602 C1604 1.384 . S
C1602 H1630 0.931 . S
C1603 C1602 1.384 . S
C1603 C1606 1.382 . S
C1604 C1602 1.384 . S
C1604 C1605 1.381 . S
C1604 H1631 0.930 . S
C1605 C1604 1.381 . S
C1605 C1607 1.381 . S
C1605 C1608 1.487 . S
C1606 C1603 1.382 . S
C1606 C1607 1.387 . S
C1606 H1632 0.930 . S
C1607 C1605 1.381 . S
C1607 C1606 1.387 . S
C1607 H1633 0.931 . S
C1608 C1605 1.487 . S
C1608 C1615 1.399 . S
C1608 N1646 1.343 1_565 S
C1609 C1610 1.384 . S
C1609 C1611 1.384 . S
C1609 H1634 0.931 . S
C1610 C1609 1.384 . S
C1610 C1613 1.382 . S
C1611 C1609 1.384 . S
C1611 C1612 1.381 . S
C1611 H1635 0.930 . S
C1612 C1611 1.381 . S
C1612 C1614 1.381 . S
C1612 C1615 1.487 . S
C1613 C1610 1.382 . S
C1613 C1614 1.387 . S
C1613 H1636 0.930 . S
C1614 C1612 1.381 . S
C1614 C1613 1.387 . S
C1614 H1637 0.931 . S
C1615 C1608 1.399 . S
C1615 C1612 1.487 . S
C1615 N1647 1.343 1_565 S
C1616 C1617 1.384 . S
C1616 C1618 1.384 . S
C1616 H1638 0.931 . S
C1617 C1616 1.384 . S
C1617 C1620 1.382 . S
C1618 C1616 1.384 . S
C1618 C1619 1.381 . S
C1618 H1639 0.930 . S
C1619 C1618 1.381 . S
C1619 C1621 1.381 . S
C1619 C1622 1.487 . S
C1620 C1617 1.382 . S
C1620 C1621 1.387 . S
C1620 H1640 0.930 . S
C1621 C1619 1.381 . S
C1621 C1620 1.387 . S
C1621 H1641 0.931 . S
C1622 C1619 1.487 . S
C1622 C1629 1.399 . S
C1622 N1647 1.343 . S
C1623 C1624 1.384 . S
C1623 C1625 1.384 . S
C1623 H1642 0.931 . S
C1624 C1623 1.384 . S
C1624 C1627 1.382 . S
C1625 C1623 1.384 . S
C1625 C1626 1.381 . S
C1625 H1643 0.930 . S
C1626 C1625 1.381 . S
C1626 C1628 1.381 . S
C1626 C1629 1.487 . S
C1627 C1624 1.382 . S
C1627 C1628 1.387 . S
C1627 H1644 0.930 . S
C1628 C1626 1.381 . S
C1628 C1627 1.387 . S
C1628 H1645 0.931 . S
C1629 C1622 1.399 . S
C1629 C1626 1.487 . S
C1629 N1646 1.343 . S
H1630 C1602 0.931 . S
H1631 C1604 0.930 . S
H1632 C1606 0.930 . S
H1633 C1607 0.931 . S
H1634 C1609 0.931 . S
H1635 C1611 0.930 . S
H1636 C1613 0.930 . S
H1637 C1614 0.931 . S
H1638 C1616 0.931 . S
H1639 C1618 0.930 . S
H1640 C1620 0.930 . S
H1641 C1621 0.931 . S
H1642 C1623 0.931 . S
H1643 C1625 0.930 . S
H1644 C1627 0.930 . S
H1645 C1628 0.931 . S
N1646 C1608 1.343 1_545 S
N1646 C1629 1.343 . S
N1647 C1615 1.343 1_545 S
N1647 C1622 1.343 . S
C1648 C1649 1.384 . S
C1648 C1650 1.384 . S
C1648 H1676 0.931 . S
C1649 C1648 1.384 . S
C1649 C1652 1.382 . S
C1650 C1648 1.384 . S
C1650 C1651 1.381 . S
C1650 H1677 0.930 . S
C1651 C1650 1.381 . S
C1651 C1653 1.381 . S
C1651 C1654 1.487 . S
C1652 C1649 1.382 . S
C1652 C1653 1.387 . S
C1652 H1678 0.930 . S
C1653 C1651 1.381 . S
C1653 C1652 1.387 . S
C1653 H1679 0.931 . S
C1654 C1651 1.487 . S
C1654 C1661 1.399 . S
C1654 N1692 1.343 1_655 S
C1655 C1656 1.384 . S
C1655 C1657 1.384 . S
C1655 H1680 0.931 . S
C1656 C1655 1.384 . S
C1656 C1659 1.382 . S
C1657 C1655 1.384 . S
C1657 C1658 1.381 . S
C1657 H1681 0.930 . S
C1658 C1657 1.381 . S
C1658 C1660 1.381 . S
C1658 C1661 1.487 . S
C1659 C1656 1.382 . S
C1659 C1660 1.387 . S
C1659 H1682 0.930 . S
C1660 C1658 1.381 . S
C1660 C1659 1.387 . S
C1660 H1683 0.931 . S
C1661 C1654 1.399 . S
C1661 C1658 1.487 . S
C1661 N1693 1.343 1_655 S
C1662 C1663 1.384 . S
C1662 C1664 1.384 . S
C1662 H1684 0.931 . S
C1663 C1662 1.384 . S
C1663 C1666 1.382 . S
C1664 C1662 1.384 . S
C1664 C1665 1.381 . S
C1664 H1685 0.930 . S
C1665 C1664 1.381 . S
C1665 C1667 1.381 . S
C1665 C1668 1.487 . S
C1666 C1663 1.382 . S
C1666 C1667 1.387 . S
C1666 H1686 0.930 . S
C1667 C1665 1.381 . S
C1667 C1666 1.387 . S
C1667 H1687 0.931 . S
C1668 C1665 1.487 . S
C1668 C1675 1.399 . S
C1668 N1693 1.343 . S
C1669 C1670 1.384 . S
C1669 C1671 1.384 . S
C1669 H1688 0.931 . S
C1670 C1669 1.384 . S
C1670 C1673 1.382 . S
C1671 C1669 1.384 . S
C1671 C1672 1.381 . S
C1671 H1689 0.930 . S
C1672 C1671 1.381 . S
C1672 C1674 1.381 . S
C1672 C1675 1.487 . S
C1673 C1670 1.382 . S
C1673 C1674 1.387 . S
C1673 H1690 0.930 . S
C1674 C1672 1.381 . S
C1674 C1673 1.387 . S
C1674 H1691 0.931 . S
C1675 C1668 1.399 . S
C1675 C1672 1.487 . S
C1675 N1692 1.343 . S
H1676 C1648 0.931 . S
H1677 C1650 0.930 . S
H1678 C1652 0.930 . S
H1679 C1653 0.931 . S
H1680 C1655 0.931 . S
H1681 C1657 0.930 . S
H1682 C1659 0.930 . S
H1683 C1660 0.931 . S
H1684 C1662 0.931 . S
H1685 C1664 0.930 . S
H1686 C1666 0.930 . S
H1687 C1667 0.931 . S
H1688 C1669 0.931 . S
H1689 C1671 0.930 . S
H1690 C1673 0.930 . S
H1691 C1674 0.931 . S
N1692 C1654 1.343 1_455 S
N1692 C1675 1.343 . S
N1693 C1661 1.343 1_455 S
N1693 C1668 1.343 . S
C1694 C1695 1.384 . S
C1694 C1696 1.384 . S
C1694 H1722 0.931 . S
C1695 C1694 1.384 . S
C1695 C1698 1.382 . S
C1696 C1694 1.384 . S
C1696 C1697 1.381 . S
C1696 H1723 0.930 . S
C1697 C1696 1.381 . S
C1697 C1699 1.381 . S
C1697 C1700 1.487 . S
C1698 C1695 1.382 . S
C1698 C1699 1.387 . S
C1698 H1724 0.930 . S
C1699 C1697 1.381 . S
C1699 C1698 1.387 . S
C1699 H1725 0.931 . S
C1700 C1697 1.487 . S
C1700 C1707 1.399 . S
C1700 N1738 1.304 1_565 S
C1701 C1702 1.384 . S
C1701 C1703 1.384 . S
C1701 H1726 0.931 . S
C1702 C1701 1.384 . S
C1702 C1705 1.382 . S
C1703 C1701 1.384 . S
C1703 C1704 1.381 . S
C1703 H1727 0.930 . S
C1704 C1703 1.381 . S
C1704 C1706 1.381 . S
C1704 C1707 1.487 . S
C1705 C1702 1.382 . S
C1705 C1706 1.387 . S
C1705 H1728 0.930 . S
C1706 C1704 1.381 . S
C1706 C1705 1.387 . S
C1706 H1729 0.931 . S
C1707 C1700 1.399 . S
C1707 C1704 1.487 . S
C1707 N1739 1.343 1_565 S
C1708 C1709 1.384 . S
C1708 C1710 1.384 . S
C1708 H1730 0.931 . S
C1709 C1708 1.384 . S
C1709 C1712 1.382 . S
C1710 C1708 1.384 . S
C1710 C1711 1.381 . S
C1710 H1731 0.930 . S
C1711 C1710 1.381 . S
C1711 C1713 1.381 . S
C1711 C1714 1.487 . S
C1712 C1709 1.382 . S
C1712 C1713 1.387 . S
C1712 H1732 0.930 . S
C1713 C1711 1.381 . S
C1713 C1712 1.387 . S
C1713 H1733 0.931 . S
C1714 C1711 1.487 . S
C1714 C1721 1.399 . S
C1714 N1739 1.343 . S
C1715 C1716 1.384 . S
C1715 C1717 1.384 . S
C1715 H1734 0.931 . S
C1716 C1715 1.384 . S
C1716 C1719 1.382 . S
C1717 C1715 1.384 . S
C1717 C1718 1.381 . S
C1717 H1735 0.930 . S
C1718 C1717 1.381 . S
C1718 C1720 1.381 . S
C1718 C1721 1.487 . S
C1719 C1716 1.382 . S
C1719 C1720 1.387 . S
C1719 H1736 0.930 . S
C1720 C1718 1.381 . S
C1720 C1719 1.387 . S
C1720 H1737 0.931 . S
C1721 C1714 1.399 . S
C1721 C1718 1.487 . S
C1721 N1738 1.383 . S
H1722 C1694 0.931 . S
H1723 C1696 0.930 . S
H1724 C1698 0.930 . S
H1725 C1699 0.931 . S
H1726 C1701 0.931 . S
H1727 C1703 0.930 . S
H1728 C1705 0.930 . S
H1729 C1706 0.931 . S
H1730 C1708 0.931 . S
H1731 C1710 0.930 . S
H1732 C1712 0.930 . S
H1733 C1713 0.931 . S
H1734 C1715 0.931 . S
H1735 C1717 0.930 . S
H1736 C1719 0.930 . S
H1737 C1720 0.931 . S
N1738 C1700 1.304 1_545 S
N1738 C1721 1.383 . S
N1739 C1707 1.343 1_545 S
N1739 C1714 1.343 . S
C1740 C1741 1.384 . S
C1740 C1742 1.384 . S
C1740 H1768 0.931 . S
C1741 C1740 1.384 . S
C1741 C1744 1.382 . S
C1742 C1740 1.384 . S
C1742 C1743 1.381 . S
C1742 H1769 0.930 . S
C1743 C1742 1.381 . S
C1743 C1745 1.381 . S
C1743 C1746 1.487 . S
C1744 C1741 1.382 . S
C1744 C1745 1.387 . S
C1744 H1770 0.930 . S
C1745 C1743 1.381 . S
C1745 C1744 1.387 . S
C1745 H1771 0.931 . S
C1746 C1743 1.487 . S
C1746 C1753 1.399 . S
C1746 N1784 1.343 . S
C1747 C1748 1.384 . S
C1747 C1749 1.384 . S
C1747 H1772 0.931 . S
C1748 C1747 1.384 . S
C1748 C1751 1.382 . S
C1749 C1747 1.384 . S
C1749 C1750 1.381 . S
C1749 H1773 0.930 . S
C1750 C1749 1.381 . S
C1750 C1752 1.381 . S
C1750 C1753 1.487 . S
C1751 C1748 1.382 . S
C1751 C1752 1.387 . S
C1751 H1774 0.930 . S
C1752 C1750 1.381 . S
C1752 C1751 1.387 . S
C1752 H1775 0.931 . S
C1753 C1746 1.399 . S
C1753 C1750 1.487 . S
C1753 N1785 1.404 . S
C1754 C1755 1.384 . S
C1754 C1756 1.384 . S
C1754 H1776 0.931 . S
C1755 C1754 1.384 . S
C1755 C1758 1.382 . S
C1756 C1754 1.384 . S
C1756 C1757 1.381 . S
C1756 H1777 0.930 . S
C1757 C1756 1.381 . S
C1757 C1759 1.381 . S
C1757 C1760 1.487 . S
C1758 C1755 1.382 . S
C1758 C1759 1.387 . S
C1758 H1778 0.930 . S
C1759 C1757 1.381 . S
C1759 C1758 1.387 . S
C1759 H1779 0.931 . S
C1760 C1757 1.487 . S
C1760 C1767 1.399 . S
C1760 N1785 1.283 1_655 S
C1761 C1762 1.384 . S
C1761 C1763 1.384 . S
C1761 H1780 0.931 . S
C1762 C1761 1.384 . S
C1762 C1765 1.382 . S
C1763 C1761 1.384 . S
C1763 C1764 1.381 . S
C1763 H1781 0.930 . S
C1764 C1763 1.381 . S
C1764 C1766 1.381 . S
C1764 C1767 1.487 . S
C1765 C1762 1.382 . S
C1765 C1766 1.387 . S
C1765 H1782 0.930 . S
C1766 C1764 1.381 . S
C1766 C1765 1.387 . S
C1766 H1783 0.931 . S
C1767 C1760 1.399 . S
C1767 C1764 1.487 . S
C1767 N1784 1.343 1_655 S
H1768 C1740 0.931 . S
H1769 C1742 0.930 . S
H1770 C1744 0.930 . S
H1771 C1745 0.931 . S
H1772 C1747 0.931 . S
H1773 C1749 0.930 . S
H1774 C1751 0.930 . S
H1775 C1752 0.931 . S
H1776 C1754 0.931 . S
H1777 C1756 0.930 . S
H1778 C1758 0.930 . S
H1779 C1759 0.931 . S
H1780 C1761 0.931 . S
H1781 C1763 0.930 . S
H1782 C1765 0.930 . S
H1783 C1766 0.931 . S
N1784 C1746 1.343 . S
N1784 C1767 1.343 1_455 S
N1785 C1753 1.404 . S
N1785 C1760 1.283 1_455 S
C1786 C1787 1.384 . S
C1786 C1788 1.384 . S
C1786 H1814 0.931 . S
C1787 C1786 1.384 . S
C1787 C1790 1.382 . S
C1788 C1786 1.384 . S
C1788 C1789 1.381 . S
C1788 H1815 0.930 . S
C1789 C1788 1.381 . S
C1789 C1791 1.381 . S
C1789 C1792 1.487 . S
C1790 C1787 1.382 . S
C1790 C1791 1.387 . S
C1790 H1816 0.930 . S
C1791 C1789 1.381 . S
C1791 C1790 1.387 . S
C1791 H1817 0.931 . S
C1792 C1789 1.487 . S
C1792 C1799 1.399 . S
C1792 N1830 1.343 1_565 S
C1793 C1794 1.384 . S
C1793 C1795 1.384 . S
C1793 H1818 0.931 . S
C1794 C1793 1.384 . S
C1794 C1797 1.382 . S
C1795 C1793 1.384 . S
C1795 C1796 1.381 . S
C1795 H1819 0.930 . S
C1796 C1795 1.381 . S
C1796 C1798 1.381 . S
C1796 C1799 1.487 . S
C1797 C1794 1.382 . S
C1797 C1798 1.387 . S
C1797 H1820 0.930 . S
C1798 C1796 1.381 . S
C1798 C1797 1.387 . S
C1798 H1821 0.931 . S
C1799 C1792 1.399 . S
C1799 C1796 1.487 . S
C1799 N1831 1.343 1_565 S
C1800 C1801 1.384 . S
C1800 C1802 1.384 . S
C1800 H1822 0.931 . S
C1801 C1800 1.384 . S
C1801 C1804 1.382 . S
C1802 C1800 1.384 . S
C1802 C1803 1.381 . S
C1802 H1823 0.930 . S
C1803 C1802 1.381 . S
C1803 C1805 1.381 . S
C1803 C1806 1.487 . S
C1804 C1801 1.382 . S
C1804 C1805 1.387 . S
C1804 H1824 0.930 . S
C1805 C1803 1.381 . S
C1805 C1804 1.387 . S
C1805 H1825 0.931 . S
C1806 C1803 1.487 . S
C1806 C1813 1.399 . S
C1806 N1831 1.343 . S
C1807 C1808 1.384 . S
C1807 C1809 1.384 . S
C1807 H1826 0.931 . S
C1808 C1807 1.384 . S
C1808 C1811 1.382 . S
C1809 C1807 1.384 . S
C1809 C1810 1.381 . S
C1809 H1827 0.930 . S
C1810 C1809 1.381 . S
C1810 C1812 1.381 . S
C1810 C1813 1.487 . S
C1811 C1808 1.382 . S
C1811 C1812 1.387 . S
C1811 H1828 0.930 . S
C1812 C1810 1.381 . S
C1812 C1811 1.387 . S
C1812 H1829 0.931 . S
C1813 C1806 1.399 . S
C1813 C1810 1.487 . S
C1813 N1830 1.343 . S
H1814 C1786 0.931 . S
H1815 C1788 0.930 . S
H1816 C1790 0.930 . S
H1817 C1791 0.931 . S
H1818 C1793 0.931 . S
H1819 C1795 0.930 . S
H1820 C1797 0.930 . S
H1821 C1798 0.931 . S
H1822 C1800 0.931 . S
H1823 C1802 0.930 . S
H1824 C1804 0.930 . S
H1825 C1805 0.931 . S
H1826 C1807 0.931 . S
H1827 C1809 0.930 . S
H1828 C1811 0.930 . S
H1829 C1812 0.931 . S
N1830 C1792 1.343 1_545 S
N1830 C1813 1.343 . S
N1831 C1799 1.343 1_545 S
N1831 C1806 1.343 . S
C1832 C1833 1.384 . S
C1832 C1834 1.384 . S
C1832 H1860 0.931 . S
C1833 C1832 1.384 . S
C1833 C1836 1.382 . S
C1834 C1832 1.384 . S
C1834 C1835 1.381 . S
C1834 H1861 0.930 . S
C1835 C1834 1.381 . S
C1835 C1837 1.381 . S
C1835 C1838 1.487 . S
C1836 C1833 1.382 . S
C1836 C1837 1.387 . S
C1836 H1862 0.930 . S
C1837 C1835 1.381 . S
C1837 C1836 1.387 . S
C1837 H1863 0.931 . S
C1838 C1835 1.487 . S
C1838 C1845 1.399 . S
C1838 N1876 1.343 . S
C1839 C1840 1.384 . S
C1839 C1841 1.384 . S
C1839 H1864 0.931 . S
C1840 C1839 1.384 . S
C1840 C1843 1.382 . S
C1841 C1839 1.384 . S
C1841 C1842 1.381 . S
C1841 H1865 0.930 . S
C1842 C1841 1.381 . S
C1842 C1844 1.381 . S
C1842 C1845 1.487 . S
C1843 C1840 1.382 . S
C1843 C1844 1.387 . S
C1843 H1866 0.930 . S
C1844 C1842 1.381 . S
C1844 C1843 1.387 . S
C1844 H1867 0.931 . S
C1845 C1838 1.399 . S
C1845 C1842 1.487 . S
C1845 N1877 1.343 . S
C1846 C1847 1.384 . S
C1846 C1848 1.384 . S
C1846 H1868 0.931 . S
C1847 C1846 1.384 . S
C1847 C1850 1.382 . S
C1848 C1846 1.384 . S
C1848 C1849 1.381 . S
C1848 H1869 0.930 . S
C1849 C1848 1.381 . S
C1849 C1851 1.381 . S
C1849 C1852 1.487 . S
C1850 C1847 1.382 . S
C1850 C1851 1.387 . S
C1850 H1870 0.930 . S
C1851 C1849 1.381 . S
C1851 C1850 1.387 . S
C1851 H1871 0.931 . S
C1852 C1849 1.487 . S
C1852 C1859 1.399 . S
C1852 N1877 1.343 . S
C1853 C1854 1.384 . S
C1853 C1855 1.384 . S
C1853 H1872 0.931 . S
C1854 C1853 1.384 . S
C1854 C1857 1.382 . S
C1855 C1853 1.384 . S
C1855 C1856 1.381 . S
C1855 H1873 0.930 . S
C1856 C1855 1.381 . S
C1856 C1858 1.381 . S
C1856 C1859 1.487 . S
C1857 C1854 1.382 . S
C1857 C1858 1.387 . S
C1857 H1874 0.930 . S
C1858 C1856 1.381 . S
C1858 C1857 1.387 . S
C1858 H1875 0.931 . S
C1859 C1852 1.399 . S
C1859 C1856 1.487 . S
C1859 N1876 1.343 . S
H1860 C1832 0.931 . S
H1861 C1834 0.930 . S
H1862 C1836 0.930 . S
H1863 C1837 0.931 . S
H1864 C1839 0.931 . S
H1865 C1841 0.930 . S
H1866 C1843 0.930 . S
H1867 C1844 0.931 . S
H1868 C1846 0.931 . S
H1869 C1848 0.930 . S
H1870 C1850 0.930 . S
H1871 C1851 0.931 . S
H1872 C1853 0.931 . S
H1873 C1855 0.930 . S
H1874 C1857 0.930 . S
H1875 C1858 0.931 . S
N1876 C1838 1.343 . S
N1876 C1859 1.343 . S
N1877 C1845 1.343 . S
N1877 C1852 1.343 . S
C1878 C1879 1.384 . S
C1878 C1880 1.384 . S
C1878 H1906 0.931 . S
C1879 C1878 1.384 . S
C1879 C1882 1.382 . S
C1880 C1878 1.384 . S
C1880 C1881 1.381 . S
C1880 H1907 0.930 . S
C1881 C1880 1.381 . S
C1881 C1883 1.381 . S
C1881 C1884 1.487 . S
C1882 C1879 1.382 . S
C1882 C1883 1.387 . S
C1882 H1908 0.930 . S
C1883 C1881 1.381 . S
C1883 C1882 1.387 . S
C1883 H1909 0.931 . S
C1884 C1881 1.487 . S
C1884 C1891 1.399 . S
C1884 N1922 1.343 . S
C1885 C1886 1.384 . S
C1885 C1887 1.384 . S
C1885 H1910 0.931 . S
C1886 C1885 1.384 . S
C1886 C1889 1.382 . S
C1887 C1885 1.384 . S
C1887 C1888 1.381 . S
C1887 H1911 0.930 . S
C1888 C1887 1.381 . S
C1888 C1890 1.381 . S
C1888 C1891 1.487 . S
C1889 C1886 1.382 . S
C1889 C1890 1.387 . S
C1889 H1912 0.930 . S
C1890 C1888 1.381 . S
C1890 C1889 1.387 . S
C1890 H1913 0.931 . S
C1891 C1884 1.399 . S
C1891 C1888 1.487 . S
C1891 N1923 1.343 . S
C1892 C1893 1.384 . S
C1892 C1894 1.384 . S
C1892 H1914 0.931 . S
C1893 C1892 1.384 . S
C1893 C1896 1.382 . S
C1894 C1892 1.384 . S
C1894 C1895 1.381 . S
C1894 H1915 0.930 . S
C1895 C1894 1.381 . S
C1895 C1897 1.381 . S
C1895 C1898 1.487 . S
C1896 C1893 1.382 . S
C1896 C1897 1.387 . S
C1896 H1916 0.930 . S
C1897 C1895 1.381 . S
C1897 C1896 1.387 . S
C1897 H1917 0.931 . S
C1898 C1895 1.487 . S
C1898 C1905 1.399 . S
C1898 N1923 1.343 . S
C1899 C1900 1.384 . S
C1899 C1901 1.384 . S
C1899 H1918 0.931 . S
C1900 C1899 1.384 . S
C1900 C1903 1.382 . S
C1901 C1899 1.384 . S
C1901 C1902 1.381 . S
C1901 H1919 0.930 . S
C1902 C1901 1.381 . S
C1902 C1904 1.381 . S
C1902 C1905 1.487 . S
C1903 C1900 1.382 . S
C1903 C1904 1.387 . S
C1903 H1920 0.930 . S
C1904 C1902 1.381 . S
C1904 C1903 1.387 . S
C1904 H1921 0.931 . S
C1905 C1898 1.399 . S
C1905 C1902 1.487 . S
C1905 N1922 1.343 . S
H1906 C1878 0.931 . S
H1907 C1880 0.930 . S
H1908 C1882 0.930 . S
H1909 C1883 0.931 . S
H1910 C1885 0.931 . S
H1911 C1887 0.930 . S
H1912 C1889 0.930 . S
H1913 C1890 0.931 . S
H1914 C1892 0.931 . S
H1915 C1894 0.930 . S
H1916 C1896 0.930 . S
H1917 C1897 0.931 . S
H1918 C1899 0.931 . S
H1919 C1901 0.930 . S
H1920 C1903 0.930 . S
H1921 C1904 0.931 . S
N1922 C1884 1.343 . S
N1922 C1905 1.343 . S
N1923 C1891 1.343 . S
N1923 C1898 1.343 . S
C1924 C1925 1.384 . S
C1924 C1926 1.384 . S
C1924 H1952 0.931 . S
C1925 C1924 1.384 . S
C1925 C1928 1.382 . S
C1926 C1924 1.384 . S
C1926 C1927 1.381 . S
C1926 H1953 0.930 . S
C1927 C1926 1.381 . S
C1927 C1929 1.381 . S
C1927 C1930 1.487 . S
C1928 C1925 1.382 . S
C1928 C1929 1.387 . S
C1928 H1954 0.930 . S
C1929 C1927 1.381 . S
C1929 C1928 1.387 . S
C1929 H1955 0.931 . S
C1930 C1927 1.487 . S
C1930 C1937 1.399 . S
C1930 N1968 1.343 . S
C1931 C1932 1.384 . S
C1931 C1933 1.384 . S
C1931 H1956 0.931 . S
C1932 C1931 1.384 . S
C1932 C1935 1.382 . S
C1933 C1931 1.384 . S
C1933 C1934 1.381 . S
C1933 H1957 0.930 . S
C1934 C1933 1.381 . S
C1934 C1936 1.381 . S
C1934 C1937 1.487 . S
C1935 C1932 1.382 . S
C1935 C1936 1.387 . S
C1935 H1958 0.930 . S
C1936 C1934 1.381 . S
C1936 C1935 1.387 . S
C1936 H1959 0.931 . S
C1937 C1930 1.399 . S
C1937 C1934 1.487 . S
C1937 N1969 1.343 . S
C1938 C1939 1.384 . S
C1938 C1940 1.384 . S
C1938 H1960 0.931 . S
C1939 C1938 1.384 . S
C1939 C1942 1.382 . S
C1940 C1938 1.384 . S
C1940 C1941 1.381 . S
C1940 H1961 0.930 . S
C1941 C1940 1.381 . S
C1941 C1943 1.381 . S
C1941 C1944 1.487 . S
C1942 C1939 1.382 . S
C1942 C1943 1.387 . S
C1942 H1962 0.930 . S
C1943 C1941 1.381 . S
C1943 C1942 1.387 . S
C1943 H1963 0.931 . S
C1944 C1941 1.487 . S
C1944 C1951 1.399 . S
C1944 N1969 1.343 . S
C1945 C1946 1.384 . S
C1945 C1947 1.384 . S
C1945 H1964 0.931 . S
C1946 C1945 1.384 . S
C1946 C1949 1.382 . S
C1947 C1945 1.384 . S
C1947 C1948 1.381 . S
C1947 H1965 0.930 . S
C1948 C1947 1.381 . S
C1948 C1950 1.381 . S
C1948 C1951 1.487 . S
C1949 C1946 1.382 . S
C1949 C1950 1.387 . S
C1949 H1966 0.930 . S
C1950 C1948 1.381 . S
C1950 C1949 1.387 . S
C1950 H1967 0.931 . S
C1951 C1944 1.399 . S
C1951 C1948 1.487 . S
C1951 N1968 1.343 . S
H1952 C1924 0.931 . S
H1953 C1926 0.930 . S
H1954 C1928 0.930 . S
H1955 C1929 0.931 . S
H1956 C1931 0.931 . S
H1957 C1933 0.930 . S
H1958 C1935 0.930 . S
H1959 C1936 0.931 . S
H1960 C1938 0.931 . S
H1961 C1940 0.930 . S
H1962 C1942 0.930 . S
H1963 C1943 0.931 . S
H1964 C1945 0.931 . S
H1965 C1947 0.930 . S
H1966 C1949 0.930 . S
H1967 C1950 0.931 . S
N1968 C1930 1.343 . S
N1968 C1951 1.343 . S
N1969 C1937 1.343 . S
N1969 C1944 1.343 . S
C1970 C1971 1.384 . S
C1970 C1972 1.384 . S
C1970 H1998 0.931 . S
C1971 C1970 1.384 . S
C1971 C1974 1.382 . S
C1972 C1970 1.384 . S
C1972 C1973 1.381 . S
C1972 H1999 0.930 . S
C1973 C1972 1.381 . S
C1973 C1975 1.381 . S
C1973 C1976 1.487 . S
C1974 C1971 1.382 . S
C1974 C1975 1.387 . S
C1974 H2000 0.930 . S
C1975 C1973 1.381 . S
C1975 C1974 1.387 . S
C1975 H2001 0.931 . S
C1976 C1973 1.487 . S
C1976 C1983 1.399 . S
C1976 N2014 1.343 . S
C1977 C1978 1.384 . S
C1977 C1979 1.384 . S
C1977 H2002 0.931 . S
C1978 C1977 1.384 . S
C1978 C1981 1.382 . S
C1979 C1977 1.384 . S
C1979 C1980 1.381 . S
C1979 H2003 0.930 . S
C1980 C1979 1.381 . S
C1980 C1982 1.381 . S
C1980 C1983 1.487 . S
C1981 C1978 1.382 . S
C1981 C1982 1.387 . S
C1981 H2004 0.930 . S
C1982 C1980 1.381 . S
C1982 C1981 1.387 . S
C1982 H2005 0.931 . S
C1983 C1976 1.399 . S
C1983 C1980 1.487 . S
C1983 N2015 1.343 . S
C1984 C1985 1.384 . S
C1984 C1986 1.384 . S
C1984 H2006 0.931 . S
C1985 C1984 1.384 . S
C1985 C1988 1.382 . S
C1986 C1984 1.384 . S
C1986 C1987 1.381 . S
C1986 H2007 0.930 . S
C1987 C1986 1.381 . S
C1987 C1989 1.381 . S
C1987 C1990 1.487 . S
C1988 C1985 1.382 . S
C1988 C1989 1.387 . S
C1988 H2008 0.930 . S
C1989 C1987 1.381 . S
C1989 C1988 1.387 . S
C1989 H2009 0.931 . S
C1990 C1987 1.487 . S
C1990 C1997 1.399 . S
C1990 N2015 1.343 . S
C1991 C1992 1.384 . S
C1991 C1993 1.384 . S
C1991 H2010 0.931 . S
C1992 C1991 1.384 . S
C1992 C1995 1.382 . S
C1993 C1991 1.384 . S
C1993 C1994 1.381 . S
C1993 H2011 0.930 . S
C1994 C1993 1.381 . S
C1994 C1996 1.381 . S
C1994 C1997 1.487 . S
C1995 C1992 1.382 . S
C1995 C1996 1.387 . S
C1995 H2012 0.930 . S
C1996 C1994 1.381 . S
C1996 C1995 1.387 . S
C1996 H2013 0.931 . S
C1997 C1990 1.399 . S
C1997 C1994 1.487 . S
C1997 N2014 1.343 . S
H1998 C1970 0.931 . S
H1999 C1972 0.930 . S
H2000 C1974 0.930 . S
H2001 C1975 0.931 . S
H2002 C1977 0.931 . S
H2003 C1979 0.930 . S
H2004 C1981 0.930 . S
H2005 C1982 0.931 . S
H2006 C1984 0.931 . S
H2007 C1986 0.930 . S
H2008 C1988 0.930 . S
H2009 C1989 0.931 . S
H2010 C1991 0.931 . S
H2011 C1993 0.930 . S
H2012 C1995 0.930 . S
H2013 C1996 0.931 . S
N2014 C1976 1.343 . S
N2014 C1997 1.343 . S
N2015 C1983 1.343 . S
N2015 C1990 1.343 . S
C2016 C2017 1.384 . S
C2016 C2018 1.384 . S
C2016 H2044 0.931 . S
C2017 C2016 1.384 . S
C2017 C2020 1.382 . S
C2018 C2016 1.384 . S
C2018 C2019 1.381 . S
C2018 H2045 0.930 . S
C2019 C2018 1.381 . S
C2019 C2021 1.381 . S
C2019 C2022 1.487 . S
C2020 C2017 1.382 . S
C2020 C2021 1.387 . S
C2020 H2046 0.930 . S
C2021 C2019 1.381 . S
C2021 C2020 1.387 . S
C2021 H2047 0.931 . S
C2022 C2019 1.487 . S
C2022 C2029 1.399 . S
C2022 N2060 1.343 . S
C2023 C2024 1.384 . S
C2023 C2025 1.384 . S
C2023 H2048 0.931 . S
C2024 C2023 1.384 . S
C2024 C2027 1.382 . S
C2025 C2023 1.384 . S
C2025 C2026 1.381 . S
C2025 H2049 0.930 . S
C2026 C2025 1.381 . S
C2026 C2028 1.381 . S
C2026 C2029 1.487 . S
C2027 C2024 1.382 . S
C2027 C2028 1.387 . S
C2027 H2050 0.930 . S
C2028 C2026 1.381 . S
C2028 C2027 1.387 . S
C2028 H2051 0.931 . S
C2029 C2022 1.399 . S
C2029 C2026 1.487 . S
C2029 N2061 1.343 . S
C2030 C2031 1.384 . S
C2030 C2032 1.384 . S
C2030 H2052 0.931 . S
C2031 C2030 1.384 . S
C2031 C2034 1.382 . S
C2032 C2030 1.384 . S
C2032 C2033 1.381 . S
C2032 H2053 0.930 . S
C2033 C2032 1.381 . S
C2033 C2035 1.381 . S
C2033 C2036 1.487 . S
C2034 C2031 1.382 . S
C2034 C2035 1.387 . S
C2034 H2054 0.930 . S
C2035 C2033 1.381 . S
C2035 C2034 1.387 . S
C2035 H2055 0.931 . S
C2036 C2033 1.487 . S
C2036 C2043 1.399 . S
C2036 N2061 1.343 . S
C2037 C2038 1.384 . S
C2037 C2039 1.384 . S
C2037 H2056 0.931 . S
C2038 C2037 1.384 . S
C2038 C2041 1.382 . S
C2039 C2037 1.384 . S
C2039 C2040 1.381 . S
C2039 H2057 0.930 . S
C2040 C2039 1.381 . S
C2040 C2042 1.381 . S
C2040 C2043 1.487 . S
C2041 C2038 1.382 . S
C2041 C2042 1.387 . S
C2041 H2058 0.930 . S
C2042 C2040 1.381 . S
C2042 C2041 1.387 . S
C2042 H2059 0.931 . S
C2043 C2036 1.399 . S
C2043 C2040 1.487 . S
C2043 N2060 1.343 . S
H2044 C2016 0.931 . S
H2045 C2018 0.930 . S
H2046 C2020 0.930 . S
H2047 C2021 0.931 . S
H2048 C2023 0.931 . S
H2049 C2025 0.930 . S
H2050 C2027 0.930 . S
H2051 C2028 0.931 . S
H2052 C2030 0.931 . S
H2053 C2032 0.930 . S
H2054 C2034 0.930 . S
H2055 C2035 0.931 . S
H2056 C2037 0.931 . S
H2057 C2039 0.930 . S
H2058 C2041 0.930 . S
H2059 C2042 0.931 . S
N2060 C2022 1.343 . S
N2060 C2043 1.343 . S
N2061 C2029 1.343 . S
N2061 C2036 1.343 . S
C2062 C2063 1.384 . S
C2062 C2064 1.384 . S
C2062 H2090 0.931 . S
C2063 C2062 1.384 . S
C2063 C2066 1.382 . S
C2064 C2062 1.384 . S
C2064 C2065 1.381 . S
C2064 H2091 0.930 . S
C2065 C2064 1.381 . S
C2065 C2067 1.381 . S
C2065 C2068 1.487 . S
C2066 C2063 1.382 . S
C2066 C2067 1.387 . S
C2066 H2092 0.930 . S
C2067 C2065 1.381 . S
C2067 C2066 1.387 . S
C2067 H2093 0.931 . S
C2068 C2065 1.487 . S
C2068 C2075 1.399 . S
C2068 N2106 1.343 . S
C2069 C2070 1.384 . S
C2069 C2071 1.384 . S
C2069 H2094 0.931 . S
C2070 C2069 1.384 . S
C2070 C2073 1.382 . S
C2071 C2069 1.384 . S
C2071 C2072 1.381 . S
C2071 H2095 0.930 . S
C2072 C2071 1.381 . S
C2072 C2074 1.381 . S
C2072 C2075 1.487 . S
C2073 C2070 1.382 . S
C2073 C2074 1.387 . S
C2073 H2096 0.930 . S
C2074 C2072 1.381 . S
C2074 C2073 1.387 . S
C2074 H2097 0.931 . S
C2075 C2068 1.399 . S
C2075 C2072 1.487 . S
C2075 N2107 1.343 . S
C2076 C2077 1.384 . S
C2076 C2078 1.384 . S
C2076 H2098 0.931 . S
C2077 C2076 1.384 . S
C2077 C2080 1.382 . S
C2078 C2076 1.384 . S
C2078 C2079 1.381 . S
C2078 H2099 0.930 . S
C2079 C2078 1.381 . S
C2079 C2081 1.381 . S
C2079 C2082 1.487 . S
C2080 C2077 1.382 . S
C2080 C2081 1.387 . S
C2080 H2100 0.930 . S
C2081 C2079 1.381 . S
C2081 C2080 1.387 . S
C2081 H2101 0.931 . S
C2082 C2079 1.487 . S
C2082 C2089 1.399 . S
C2082 N2107 1.343 . S
C2083 C2084 1.384 . S
C2083 C2085 1.384 . S
C2083 H2102 0.931 . S
C2084 C2083 1.384 . S
C2084 C2087 1.382 . S
C2085 C2083 1.384 . S
C2085 C2086 1.381 . S
C2085 H2103 0.930 . S
C2086 C2085 1.381 . S
C2086 C2088 1.381 . S
C2086 C2089 1.487 . S
C2087 C2084 1.382 . S
C2087 C2088 1.387 . S
C2087 H2104 0.930 . S
C2088 C2086 1.381 . S
C2088 C2087 1.387 . S
C2088 H2105 0.931 . S
C2089 C2082 1.399 . S
C2089 C2086 1.487 . S
C2089 N2106 1.343 . S
H2090 C2062 0.931 . S
H2091 C2064 0.930 . S
H2092 C2066 0.930 . S
H2093 C2067 0.931 . S
H2094 C2069 0.931 . S
H2095 C2071 0.930 . S
H2096 C2073 0.930 . S
H2097 C2074 0.931 . S
H2098 C2076 0.931 . S
H2099 C2078 0.930 . S
H2100 C2080 0.930 . S
H2101 C2081 0.931 . S
H2102 C2083 0.931 . S
H2103 C2085 0.930 . S
H2104 C2087 0.930 . S
H2105 C2088 0.931 . S
N2106 C2068 1.343 . S
N2106 C2089 1.343 . S
N2107 C2075 1.343 . S
N2107 C2082 1.343 . S
C2108 C2109 1.384 . S
C2108 C2110 1.384 . S
C2108 H2136 0.931 . S
C2109 C2108 1.384 . S
C2109 C2112 1.382 . S
C2110 C2108 1.384 . S
C2110 C2111 1.381 . S
C2110 H2137 0.930 . S
C2111 C2110 1.381 . S
C2111 C2113 1.381 . S
C2111 C2114 1.487 . S
C2112 C2109 1.382 . S
C2112 C2113 1.387 . S
C2112 H2138 0.930 . S
C2113 C2111 1.381 . S
C2113 C2112 1.387 . S
C2113 H2139 0.931 . S
C2114 C2111 1.487 . S
C2114 C2121 1.399 . S
C2114 N2152 1.343 . S
C2115 C2116 1.384 . S
C2115 C2117 1.384 . S
C2115 H2140 0.931 . S
C2116 C2115 1.384 . S
C2116 C2119 1.382 . S
C2117 C2115 1.384 . S
C2117 C2118 1.381 . S
C2117 H2141 0.930 . S
C2118 C2117 1.381 . S
C2118 C2120 1.381 . S
C2118 C2121 1.487 . S
C2119 C2116 1.382 . S
C2119 C2120 1.387 . S
C2119 H2142 0.930 . S
C2120 C2118 1.381 . S
C2120 C2119 1.387 . S
C2120 H2143 0.931 . S
C2121 C2114 1.399 . S
C2121 C2118 1.487 . S
C2121 N2153 1.343 . S
C2122 C2123 1.384 . S
C2122 C2124 1.384 . S
C2122 H2144 0.931 . S
C2123 C2122 1.384 . S
C2123 C2126 1.382 . S
C2124 C2122 1.384 . S
C2124 C2125 1.381 . S
C2124 H2145 0.930 . S
C2125 C2124 1.381 . S
C2125 C2127 1.381 . S
C2125 C2128 1.487 . S
C2126 C2123 1.382 . S
C2126 C2127 1.387 . S
C2126 H2146 0.930 . S
C2127 C2125 1.381 . S
C2127 C2126 1.387 . S
C2127 H2147 0.931 . S
C2128 C2125 1.487 . S
C2128 C2135 1.399 . S
C2128 N2153 1.343 . S
C2129 C2130 1.384 . S
C2129 C2131 1.384 . S
C2129 H2148 0.931 . S
C2130 C2129 1.384 . S
C2130 C2133 1.382 . S
C2131 C2129 1.384 . S
C2131 C2132 1.381 . S
C2131 H2149 0.930 . S
C2132 C2131 1.381 . S
C2132 C2134 1.381 . S
C2132 C2135 1.487 . S
C2133 C2130 1.382 . S
C2133 C2134 1.387 . S
C2133 H2150 0.930 . S
C2134 C2132 1.381 . S
C2134 C2133 1.387 . S
C2134 H2151 0.931 . S
C2135 C2128 1.399 . S
C2135 C2132 1.487 . S
C2135 N2152 1.343 . S
H2136 C2108 0.931 . S
H2137 C2110 0.930 . S
H2138 C2112 0.930 . S
H2139 C2113 0.931 . S
H2140 C2115 0.931 . S
H2141 C2117 0.930 . S
H2142 C2119 0.930 . S
H2143 C2120 0.931 . S
H2144 C2122 0.931 . S
H2145 C2124 0.930 . S
H2146 C2126 0.930 . S
H2147 C2127 0.931 . S
H2148 C2129 0.931 . S
H2149 C2131 0.930 . S
H2150 C2133 0.930 . S
H2151 C2134 0.931 . S
N2152 C2114 1.343 . S
N2152 C2135 1.343 . S
N2153 C2121 1.343 . S
N2153 C2128 1.343 . S
C2154 C2155 1.384 . S
C2154 C2156 1.384 . S
C2154 H2182 0.931 . S
C2155 C2154 1.384 . S
C2155 C2158 1.382 . S
C2156 C2154 1.384 . S
C2156 C2157 1.381 . S
C2156 H2183 0.930 . S
C2157 C2156 1.381 . S
C2157 C2159 1.381 . S
C2157 C2160 1.487 . S
C2158 C2155 1.382 . S
C2158 C2159 1.387 . S
C2158 H2184 0.930 . S
C2159 C2157 1.381 . S
C2159 C2158 1.387 . S
C2159 H2185 0.931 . S
C2160 C2157 1.487 . S
C2160 C2167 1.399 . S
C2160 N2198 1.343 . S
C2161 C2162 1.384 . S
C2161 C2163 1.384 . S
C2161 H2186 0.931 . S
C2162 C2161 1.384 . S
C2162 C2165 1.382 . S
C2163 C2161 1.384 . S
C2163 C2164 1.381 . S
C2163 H2187 0.930 . S
C2164 C2163 1.381 . S
C2164 C2166 1.381 . S
C2164 C2167 1.487 . S
C2165 C2162 1.382 . S
C2165 C2166 1.387 . S
C2165 H2188 0.930 . S
C2166 C2164 1.381 . S
C2166 C2165 1.387 . S
C2166 H2189 0.931 . S
C2167 C2160 1.399 . S
C2167 C2164 1.487 . S
C2167 N2199 1.343 . S
C2168 C2169 1.384 . S
C2168 C2170 1.384 . S
C2168 H2190 0.931 . S
C2169 C2168 1.384 . S
C2169 C2172 1.382 . S
C2170 C2168 1.384 . S
C2170 C2171 1.381 . S
C2170 H2191 0.930 . S
C2171 C2170 1.381 . S
C2171 C2173 1.381 . S
C2171 C2174 1.487 . S
C2172 C2169 1.382 . S
C2172 C2173 1.387 . S
C2172 H2192 0.930 . S
C2173 C2171 1.381 . S
C2173 C2172 1.387 . S
C2173 H2193 0.931 . S
C2174 C2171 1.487 . S
C2174 C2181 1.399 . S
C2174 N2199 1.343 . S
C2175 C2176 1.384 . S
C2175 C2177 1.384 . S
C2175 H2194 0.931 . S
C2176 C2175 1.384 . S
C2176 C2179 1.382 . S
C2177 C2175 1.384 . S
C2177 C2178 1.381 . S
C2177 H2195 0.930 . S
C2178 C2177 1.381 . S
C2178 C2180 1.381 . S
C2178 C2181 1.487 . S
C2179 C2176 1.382 . S
C2179 C2180 1.387 . S
C2179 H2196 0.930 . S
C2180 C2178 1.381 . S
C2180 C2179 1.387 . S
C2180 H2197 0.931 . S
C2181 C2174 1.399 . S
C2181 C2178 1.487 . S
C2181 N2198 1.343 . S
H2182 C2154 0.931 . S
H2183 C2156 0.930 . S
H2184 C2158 0.930 . S
H2185 C2159 0.931 . S
H2186 C2161 0.931 . S
H2187 C2163 0.930 . S
H2188 C2165 0.930 . S
H2189 C2166 0.931 . S
H2190 C2168 0.931 . S
H2191 C2170 0.930 . S
H2192 C2172 0.930 . S
H2193 C2173 0.931 . S
H2194 C2175 0.931 . S
H2195 C2177 0.930 . S
H2196 C2179 0.930 . S
H2197 C2180 0.931 . S
N2198 C2160 1.343 . S
N2198 C2181 1.343 . S
N2199 C2167 1.343 . S
N2199 C2174 1.343 . S
C2200 C2201 1.384 . S
C2200 C2202 1.384 . S
C2200 H2228 0.931 . S
C2201 C2200 1.384 . S
C2201 C2204 1.382 . S
C2202 C2200 1.384 . S
C2202 C2203 1.381 . S
C2202 H2229 0.930 . S
C2203 C2202 1.381 . S
C2203 C2205 1.381 . S
C2203 C2206 1.487 . S
C2204 C2201 1.382 . S
C2204 C2205 1.387 . S
C2204 H2230 0.930 . S
C2205 C2203 1.381 . S
C2205 C2204 1.387 . S
C2205 H2231 0.931 . S
C2206 C2203 1.487 . S
C2206 C2213 1.399 . S
C2206 N2244 1.343 . S
C2207 C2208 1.384 . S
C2207 C2209 1.384 . S
C2207 H2232 0.931 . S
C2208 C2207 1.384 . S
C2208 C2211 1.382 . S
C2209 C2207 1.384 . S
C2209 C2210 1.381 . S
C2209 H2233 0.930 . S
C2210 C2209 1.381 . S
C2210 C2212 1.381 . S
C2210 C2213 1.487 . S
C2211 C2208 1.382 . S
C2211 C2212 1.387 . S
C2211 H2234 0.930 . S
C2212 C2210 1.381 . S
C2212 C2211 1.387 . S
C2212 H2235 0.931 . S
C2213 C2206 1.399 . S
C2213 C2210 1.487 . S
C2213 N2245 1.343 . S
C2214 C2215 1.384 . S
C2214 C2216 1.384 . S
C2214 H2236 0.931 . S
C2215 C2214 1.384 . S
C2215 C2218 1.382 . S
C2216 C2214 1.384 . S
C2216 C2217 1.381 . S
C2216 H2237 0.930 . S
C2217 C2216 1.381 . S
C2217 C2219 1.381 . S
C2217 C2220 1.487 . S
C2218 C2215 1.382 . S
C2218 C2219 1.387 . S
C2218 H2238 0.930 . S
C2219 C2217 1.381 . S
C2219 C2218 1.387 . S
C2219 H2239 0.931 . S
C2220 C2217 1.487 . S
C2220 C2227 1.399 . S
C2220 N2245 1.343 . S
C2221 C2222 1.384 . S
C2221 C2223 1.384 . S
C2221 H2240 0.931 . S
C2222 C2221 1.384 . S
C2222 C2225 1.382 . S
C2223 C2221 1.384 . S
C2223 C2224 1.381 . S
C2223 H2241 0.930 . S
C2224 C2223 1.381 . S
C2224 C2226 1.381 . S
C2224 C2227 1.487 . S
C2225 C2222 1.382 . S
C2225 C2226 1.387 . S
C2225 H2242 0.930 . S
C2226 C2224 1.381 . S
C2226 C2225 1.387 . S
C2226 H2243 0.931 . S
C2227 C2220 1.399 . S
C2227 C2224 1.487 . S
C2227 N2244 1.343 . S
H2228 C2200 0.931 . S
H2229 C2202 0.930 . S
H2230 C2204 0.930 . S
H2231 C2205 0.931 . S
H2232 C2207 0.931 . S
H2233 C2209 0.930 . S
H2234 C2211 0.930 . S
H2235 C2212 0.931 . S
H2236 C2214 0.931 . S
H2237 C2216 0.930 . S
H2238 C2218 0.930 . S
H2239 C2219 0.931 . S
H2240 C2221 0.931 . S
H2241 C2223 0.930 . S
H2242 C2225 0.930 . S
H2243 C2226 0.931 . S
N2244 C2206 1.343 . S
N2244 C2227 1.343 . S
N2245 C2213 1.343 . S
N2245 C2220 1.343 . S
C2246 C2247 1.384 . S
C2246 C2248 1.384 . S
C2246 H2274 0.931 . S
C2247 C2246 1.384 . S
C2247 C2250 1.382 . S
C2248 C2246 1.384 . S
C2248 C2249 1.381 . S
C2248 H2275 0.930 . S
C2249 C2248 1.381 . S
C2249 C2251 1.381 . S
C2249 C2252 1.487 . S
C2250 C2247 1.382 . S
C2250 C2251 1.387 . S
C2250 H2276 0.930 . S
C2251 C2249 1.381 . S
C2251 C2250 1.387 . S
C2251 H2277 0.931 . S
C2252 C2249 1.487 . S
C2252 C2259 1.399 . S
C2252 N2290 1.343 . S
C2253 C2254 1.384 . S
C2253 C2255 1.384 . S
C2253 H2278 0.931 . S
C2254 C2253 1.384 . S
C2254 C2257 1.382 . S
C2255 C2253 1.384 . S
C2255 C2256 1.381 . S
C2255 H2279 0.930 . S
C2256 C2255 1.381 . S
C2256 C2258 1.381 . S
C2256 C2259 1.487 . S
C2257 C2254 1.382 . S
C2257 C2258 1.387 . S
C2257 H2280 0.930 . S
C2258 C2256 1.381 . S
C2258 C2257 1.387 . S
C2258 H2281 0.931 . S
C2259 C2252 1.399 . S
C2259 C2256 1.487 . S
C2259 N2291 1.343 . S
C2260 C2261 1.384 . S
C2260 C2262 1.384 . S
C2260 H2282 0.931 . S
C2261 C2260 1.384 . S
C2261 C2264 1.382 . S
C2262 C2260 1.384 . S
C2262 C2263 1.381 . S
C2262 H2283 0.930 . S
C2263 C2262 1.381 . S
C2263 C2265 1.381 . S
C2263 C2266 1.487 . S
C2264 C2261 1.382 . S
C2264 C2265 1.387 . S
C2264 H2284 0.930 . S
C2265 C2263 1.381 . S
C2265 C2264 1.387 . S
C2265 H2285 0.931 . S
C2266 C2263 1.487 . S
C2266 C2273 1.399 . S
C2266 N2291 1.343 . S
C2267 C2268 1.384 . S
C2267 C2269 1.384 . S
C2267 H2286 0.931 . S
C2268 C2267 1.384 . S
C2268 C2271 1.382 . S
C2269 C2267 1.384 . S
C2269 C2270 1.381 . S
C2269 H2287 0.930 . S
C2270 C2269 1.381 . S
C2270 C2272 1.381 . S
C2270 C2273 1.487 . S
C2271 C2268 1.382 . S
C2271 C2272 1.387 . S
C2271 H2288 0.930 . S
C2272 C2270 1.381 . S
C2272 C2271 1.387 . S
C2272 H2289 0.931 . S
C2273 C2266 1.399 . S
C2273 C2270 1.487 . S
C2273 N2290 1.343 . S
H2274 C2246 0.931 . S
H2275 C2248 0.930 . S
H2276 C2250 0.930 . S
H2277 C2251 0.931 . S
H2278 C2253 0.931 . S
H2279 C2255 0.930 . S
H2280 C2257 0.930 . S
H2281 C2258 0.931 . S
H2282 C2260 0.931 . S
H2283 C2262 0.930 . S
H2284 C2264 0.930 . S
H2285 C2265 0.931 . S
H2286 C2267 0.931 . S
H2287 C2269 0.930 . S
H2288 C2271 0.930 . S
H2289 C2272 0.931 . S
N2290 C2252 1.343 . S
N2290 C2273 1.343 . S
N2291 C2259 1.343 . S
N2291 C2266 1.343 . S
C2292 C2293 1.384 . S
C2292 C2294 1.384 . S
C2292 H2320 0.931 . S
C2293 C2292 1.384 . S
C2293 C2296 1.382 . S
C2294 C2292 1.384 . S
C2294 C2295 1.381 . S
C2294 H2321 0.930 . S
C2295 C2294 1.381 . S
C2295 C2297 1.381 . S
C2295 C2298 1.487 . S
C2296 C2293 1.382 . S
C2296 C2297 1.387 . S
C2296 H2322 0.930 . S
C2297 C2295 1.381 . S
C2297 C2296 1.387 . S
C2297 H2323 0.931 . S
C2298 C2295 1.487 . S
C2298 C2305 1.399 . S
C2298 N2336 1.343 . S
C2299 C2300 1.384 . S
C2299 C2301 1.384 . S
C2299 H2324 0.931 . S
C2300 C2299 1.384 . S
C2300 C2303 1.382 . S
C2301 C2299 1.384 . S
C2301 C2302 1.381 . S
C2301 H2325 0.930 . S
C2302 C2301 1.381 . S
C2302 C2304 1.381 . S
C2302 C2305 1.487 . S
C2303 C2300 1.382 . S
C2303 C2304 1.387 . S
C2303 H2326 0.930 . S
C2304 C2302 1.381 . S
C2304 C2303 1.387 . S
C2304 H2327 0.931 . S
C2305 C2298 1.399 . S
C2305 C2302 1.487 . S
C2305 N2337 1.343 . S
C2306 C2307 1.384 . S
C2306 C2308 1.384 . S
C2306 H2328 0.931 . S
C2307 C2306 1.384 . S
C2307 C2310 1.382 . S
C2308 C2306 1.384 . S
C2308 C2309 1.381 . S
C2308 H2329 0.930 . S
C2309 C2308 1.381 . S
C2309 C2311 1.381 . S
C2309 C2312 1.487 . S
C2310 C2307 1.382 . S
C2310 C2311 1.387 . S
C2310 H2330 0.930 . S
C2311 C2309 1.381 . S
C2311 C2310 1.387 . S
C2311 H2331 0.931 . S
C2312 C2309 1.487 . S
C2312 C2319 1.399 . S
C2312 N2337 1.343 . S
C2313 C2314 1.384 . S
C2313 C2315 1.384 . S
C2313 H2332 0.931 . S
C2314 C2313 1.384 . S
C2314 C2317 1.382 . S
C2315 C2313 1.384 . S
C2315 C2316 1.381 . S
C2315 H2333 0.930 . S
C2316 C2315 1.381 . S
C2316 C2318 1.381 . S
C2316 C2319 1.487 . S
C2317 C2314 1.382 . S
C2317 C2318 1.387 . S
C2317 H2334 0.930 . S
C2318 C2316 1.381 . S
C2318 C2317 1.387 . S
C2318 H2335 0.931 . S
C2319 C2312 1.399 . S
C2319 C2316 1.487 . S
C2319 N2336 1.343 . S
H2320 C2292 0.931 . S
H2321 C2294 0.930 . S
H2322 C2296 0.930 . S
H2323 C2297 0.931 . S
H2324 C2299 0.931 . S
H2325 C2301 0.930 . S
H2326 C2303 0.930 . S
H2327 C2304 0.931 . S
H2328 C2306 0.931 . S
H2329 C2308 0.930 . S
H2330 C2310 0.930 . S
H2331 C2311 0.931 . S
H2332 C2313 0.931 . S
H2333 C2315 0.930 . S
H2334 C2317 0.930 . S
H2335 C2318 0.931 . S
N2336 C2298 1.343 . S
N2336 C2319 1.343 . S
N2337 C2305 1.343 . S
N2337 C2312 1.343 . S
C2338 C2339 1.384 . S
C2338 C2340 1.384 . S
C2338 H2366 0.931 . S
C2339 C2338 1.384 . S
C2339 C2342 1.382 . S
C2340 C2338 1.384 . S
C2340 C2341 1.381 . S
C2340 H2367 0.930 . S
C2341 C2340 1.381 . S
C2341 C2343 1.381 . S
C2341 C2344 1.487 . S
C2342 C2339 1.382 . S
C2342 C2343 1.387 . S
C2342 H2368 0.930 . S
C2343 C2341 1.381 . S
C2343 C2342 1.387 . S
C2343 H2369 0.931 . S
C2344 C2341 1.487 . S
C2344 C2351 1.399 . S
C2344 N2382 1.343 . S
C2345 C2346 1.384 . S
C2345 C2347 1.384 . S
C2345 H2370 0.931 . S
C2346 C2345 1.384 . S
C2346 C2349 1.382 . S
C2347 C2345 1.384 . S
C2347 C2348 1.381 . S
C2347 H2371 0.930 . S
C2348 C2347 1.381 . S
C2348 C2350 1.381 . S
C2348 C2351 1.487 . S
C2349 C2346 1.382 . S
C2349 C2350 1.387 . S
C2349 H2372 0.930 . S
C2350 C2348 1.381 . S
C2350 C2349 1.387 . S
C2350 H2373 0.931 . S
C2351 C2344 1.399 . S
C2351 C2348 1.487 . S
C2351 N2383 1.343 . S
C2352 C2353 1.384 . S
C2352 C2354 1.384 . S
C2352 H2374 0.931 . S
C2353 C2352 1.384 . S
C2353 C2356 1.382 . S
C2354 C2352 1.384 . S
C2354 C2355 1.381 . S
C2354 H2375 0.930 . S
C2355 C2354 1.381 . S
C2355 C2357 1.381 . S
C2355 C2358 1.487 . S
C2356 C2353 1.382 . S
C2356 C2357 1.387 . S
C2356 H2376 0.930 . S
C2357 C2355 1.381 . S
C2357 C2356 1.387 . S
C2357 H2377 0.931 . S
C2358 C2355 1.487 . S
C2358 C2365 1.399 . S
C2358 N2383 1.343 . S
C2359 C2360 1.384 . S
C2359 C2361 1.384 . S
C2359 H2378 0.931 . S
C2360 C2359 1.384 . S
C2360 C2363 1.382 . S
C2361 C2359 1.384 . S
C2361 C2362 1.381 . S
C2361 H2379 0.930 . S
C2362 C2361 1.381 . S
C2362 C2364 1.381 . S
C2362 C2365 1.487 . S
C2363 C2360 1.382 . S
C2363 C2364 1.387 . S
C2363 H2380 0.930 . S
C2364 C2362 1.381 . S
C2364 C2363 1.387 . S
C2364 H2381 0.931 . S
C2365 C2358 1.399 . S
C2365 C2362 1.487 . S
C2365 N2382 1.343 . S
H2366 C2338 0.931 . S
H2367 C2340 0.930 . S
H2368 C2342 0.930 . S
H2369 C2343 0.931 . S
H2370 C2345 0.931 . S
H2371 C2347 0.930 . S
H2372 C2349 0.930 . S
H2373 C2350 0.931 . S
H2374 C2352 0.931 . S
H2375 C2354 0.930 . S
H2376 C2356 0.930 . S
H2377 C2357 0.931 . S
H2378 C2359 0.931 . S
H2379 C2361 0.930 . S
H2380 C2363 0.930 . S
H2381 C2364 0.931 . S
N2382 C2344 1.343 . S
N2382 C2365 1.343 . S
N2383 C2351 1.343 . S
N2383 C2358 1.343 . S
C2384 C2385 1.369 . S
C2384 C2386 1.419 . S
C2384 H2388 0.930 . S
C2385 C2384 1.369 . S
C2385 C2394 1.429 . S
C2386 C2384 1.419 . S
C2386 C2387 1.363 . S
C2386 H2389 0.929 . S
C2387 C2386 1.363 . S
C2387 C2393 1.428 . S
H2388 C2384 0.930 . S
H2389 C2386 0.929 . S
S2390 N2391 1.613 . S
S2390 N2392 1.610 . S
N2391 S2390 1.613 . S
N2391 C2394 1.350 . S
N2392 S2390 1.610 . S
N2392 C2393 1.351 . S
C2393 C2387 1.428 . S
C2393 N2392 1.351 . S
C2393 C2394 1.434 . S
C2394 C2385 1.429 . S
C2394 N2391 1.350 . S
C2394 C2393 1.434 . S
C2395 C2396 1.369 . S
C2395 C2397 1.419 . S
C2395 H2399 0.930 . S
C2396 C2395 1.369 . S
C2396 C2405 1.429 . S
C2397 C2395 1.419 . S
C2397 C2398 1.363 . S
C2397 H2400 0.929 . S
C2398 C2397 1.363 . S
C2398 C2404 1.428 . S
H2399 C2395 0.930 . S
H2400 C2397 0.929 . S
S2401 N2402 1.613 . S
S2401 N2403 1.610 . S
N2402 S2401 1.613 . S
N2402 C2405 1.350 . S
N2403 S2401 1.610 . S
N2403 C2404 1.351 . S
C2404 C2398 1.428 . S
C2404 N2403 1.351 . S
C2404 C2405 1.434 . S
C2405 C2396 1.429 . S
C2405 N2402 1.350 . S
C2405 C2404 1.434 . S
C2406 C2407 1.369 . S
C2406 C2408 1.419 . S
C2406 H2410 0.930 . S
C2407 C2406 1.369 . S
C2407 C2416 1.429 . S
C2408 C2406 1.419 . S
C2408 C2409 1.363 . S
C2408 H2411 0.929 . S
C2409 C2408 1.363 . S
C2409 C2415 1.428 . S
H2410 C2406 0.930 . S
H2411 C2408 0.929 . S
S2412 N2413 1.613 . S
S2412 N2414 1.610 . S
N2413 S2412 1.613 . S
N2413 C2416 1.350 . S
N2414 S2412 1.610 . S
N2414 C2415 1.351 . S
C2415 C2409 1.428 . S
C2415 N2414 1.351 . S
C2415 C2416 1.434 . S
C2416 C2407 1.429 . S
C2416 N2413 1.350 . S
C2416 C2415 1.434 . S
C2417 C2418 1.369 . S
C2417 C2419 1.419 . S
C2417 H2421 0.930 . S
C2418 C2417 1.369 . S
C2418 C2427 1.429 . S
C2419 C2417 1.419 . S
C2419 C2420 1.363 . S
C2419 H2422 0.929 . S
C2420 C2419 1.363 . S
C2420 C2426 1.428 . S
H2421 C2417 0.930 . S
H2422 C2419 0.929 . S
S2423 N2424 1.613 . S
S2423 N2425 1.610 . S
N2424 S2423 1.613 . S
N2424 C2427 1.350 . S
N2425 S2423 1.610 . S
N2425 C2426 1.351 . S
C2426 C2420 1.428 . S
C2426 N2425 1.351 . S
C2426 C2427 1.434 . S
C2427 C2418 1.429 . S
C2427 N2424 1.350 . S
C2427 C2426 1.434 . S
C2428 C2429 1.369 . S
C2428 C2430 1.419 . S
C2428 H2432 0.930 . S
C2429 C2428 1.369 . S
C2429 C2438 1.429 . S
C2430 C2428 1.419 . S
C2430 C2431 1.363 . S
C2430 H2433 0.929 . S
C2431 C2430 1.363 . S
C2431 C2437 1.428 . S
H2432 C2428 0.930 . S
H2433 C2430 0.929 . S
S2434 N2435 1.613 . S
S2434 N2436 1.610 . S
N2435 S2434 1.613 . S
N2435 C2438 1.350 . S
N2436 S2434 1.610 . S
N2436 C2437 1.351 . S
C2437 C2431 1.428 . S
C2437 N2436 1.351 . S
C2437 C2438 1.434 . S
C2438 C2429 1.429 . S
C2438 N2435 1.350 . S
C2438 C2437 1.434 . S
C2439 C2440 1.369 . S
C2439 C2441 1.419 . S
C2439 H2443 0.930 . S
C2440 C2439 1.369 . S
C2440 C2449 1.429 . S
C2441 C2439 1.419 . S
C2441 C2442 1.363 . S
C2441 H2444 0.929 . S
C2442 C2441 1.363 . S
C2442 C2448 1.428 . S
H2443 C2439 0.930 . S
H2444 C2441 0.929 . S
S2445 N2446 1.613 . S
S2445 N2447 1.610 . S
N2446 S2445 1.613 . S
N2446 C2449 1.350 . S
N2447 S2445 1.610 . S
N2447 C2448 1.351 . S
C2448 C2442 1.428 . S
C2448 N2447 1.351 . S
C2448 C2449 1.434 . S
C2449 C2440 1.429 . S
C2449 N2446 1.350 . S
C2449 C2448 1.434 . S
C2450 C2451 1.369 . S
C2450 C2452 1.419 . S
C2450 H2454 0.930 . S
C2451 C2450 1.369 . S
C2451 C2460 1.429 . S
C2452 C2450 1.419 . S
C2452 C2453 1.363 . S
C2452 H2455 0.929 . S
C2453 C2452 1.363 . S
C2453 C2459 1.428 . S
H2454 C2450 0.930 . S
H2455 C2452 0.929 . S
S2456 N2457 1.613 . S
S2456 N2458 1.610 . S
N2457 S2456 1.613 . S
N2457 C2460 1.350 . S
N2458 S2456 1.610 . S
N2458 C2459 1.351 . S
C2459 C2453 1.428 . S
C2459 N2458 1.351 . S
C2459 C2460 1.434 . S
C2460 C2451 1.429 . S
C2460 N2457 1.350 . S
C2460 C2459 1.434 . S
C2461 C2462 1.369 . S
C2461 C2463 1.419 . S
C2461 H2465 0.930 . S
C2462 C2461 1.369 . S
C2462 C2471 1.429 . S
C2463 C2461 1.419 . S
C2463 C2464 1.363 . S
C2463 H2466 0.929 . S
C2464 C2463 1.363 . S
C2464 C2470 1.428 . S
H2465 C2461 0.930 . S
H2466 C2463 0.929 . S
S2467 N2468 1.613 . S
S2467 N2469 1.610 . S
N2468 S2467 1.613 . S
N2468 C2471 1.350 . S
N2469 S2467 1.610 . S
N2469 C2470 1.351 . S
C2470 C2464 1.428 . S
C2470 N2469 1.351 . S
C2470 C2471 1.434 . S
C2471 C2462 1.429 . S
C2471 N2468 1.350 . S
C2471 C2470 1.434 . S
C2472 C2473 1.369 . S
C2472 C2474 1.419 . S
C2472 H2476 0.930 . S
C2473 C2472 1.369 . S
C2473 C2482 1.429 . S
C2474 C2472 1.419 . S
C2474 C2475 1.363 . S
C2474 H2477 0.929 . S
C2475 C2474 1.363 . S
C2475 C2481 1.428 . S
H2476 C2472 0.930 . S
H2477 C2474 0.929 . S
S2478 N2479 1.613 . S
S2478 N2480 1.610 . S
N2479 S2478 1.613 . S
N2479 C2482 1.350 . S
N2480 S2478 1.610 . S
N2480 C2481 1.351 . S
C2481 C2475 1.428 . S
C2481 N2480 1.351 . S
C2481 C2482 1.434 . S
C2482 C2473 1.429 . S
C2482 N2479 1.350 . S
C2482 C2481 1.434 . S
C2483 C2484 1.369 . S
C2483 C2485 1.419 . S
C2483 H2487 0.930 . S
C2484 C2483 1.369 . S
C2484 C2493 1.429 . S
C2485 C2483 1.419 . S
C2485 C2486 1.363 . S
C2485 H2488 0.929 . S
C2486 C2485 1.363 . S
C2486 C2492 1.428 . S
H2487 C2483 0.930 . S
H2488 C2485 0.929 . S
S2489 N2490 1.613 . S
S2489 N2491 1.610 . S
N2490 S2489 1.613 . S
N2490 C2493 1.350 . S
N2491 S2489 1.610 . S
N2491 C2492 1.351 . S
C2492 C2486 1.428 . S
C2492 N2491 1.351 . S
C2492 C2493 1.434 . S
C2493 C2484 1.429 . S
C2493 N2490 1.350 . S
C2493 C2492 1.434 . S
C2494 C2495 1.369 . S
C2494 C2496 1.419 . S
C2494 H2498 0.930 . S
C2495 C2494 1.369 . S
C2495 C2504 1.429 . S
C2496 C2494 1.419 . S
C2496 C2497 1.363 . S
C2496 H2499 0.929 . S
C2497 C2496 1.363 . S
C2497 C2503 1.428 . S
H2498 C2494 0.930 . S
H2499 C2496 0.929 . S
S2500 N2501 1.613 . S
S2500 N2502 1.610 . S
N2501 S2500 1.613 . S
N2501 C2504 1.350 . S
N2502 S2500 1.610 . S
N2502 C2503 1.351 . S
C2503 C2497 1.428 . S
C2503 N2502 1.351 . S
C2503 C2504 1.434 . S
C2504 C2495 1.429 . S
C2504 N2501 1.350 . S
C2504 C2503 1.434 . S
C2505 C2506 1.369 . S
C2505 C2507 1.419 . S
C2505 H2509 0.930 . S
C2506 C2505 1.369 . S
C2506 C2515 1.429 . S
C2507 C2505 1.419 . S
C2507 C2508 1.363 . S
C2507 H2510 0.929 . S
C2508 C2507 1.363 . S
C2508 C2514 1.428 . S
H2509 C2505 0.930 . S
H2510 C2507 0.929 . S
S2511 N2512 1.613 . S
S2511 N2513 1.610 . S
N2512 S2511 1.613 . S
N2512 C2515 1.350 . S
N2513 S2511 1.610 . S
N2513 C2514 1.351 . S
C2514 C2508 1.428 . S
C2514 N2513 1.351 . S
C2514 C2515 1.434 . S
C2515 C2506 1.429 . S
C2515 N2512 1.350 . S
C2515 C2514 1.434 . S
C2516 C2517 1.369 . S
C2516 C2518 1.419 . S
C2516 H2520 0.930 . S
C2517 C2516 1.369 . S
C2517 C2526 1.429 . S
C2518 C2516 1.419 . S
C2518 C2519 1.363 . S
C2518 H2521 0.929 . S
C2519 C2518 1.363 . S
C2519 C2525 1.428 . S
H2520 C2516 0.930 . S
H2521 C2518 0.929 . S
S2522 N2523 1.613 . S
S2522 N2524 1.610 . S
N2523 S2522 1.613 . S
N2523 C2526 1.350 . S
N2524 S2522 1.610 . S
N2524 C2525 1.351 . S
C2525 C2519 1.428 . S
C2525 N2524 1.351 . S
C2525 C2526 1.434 . S
C2526 C2517 1.429 . S
C2526 N2523 1.350 . S
C2526 C2525 1.434 . S
C2527 C2528 1.369 . S
C2527 C2529 1.419 . S
C2527 H2531 0.930 . S
C2528 C2527 1.369 . S
C2528 C2537 1.429 . S
C2529 C2527 1.419 . S
C2529 C2530 1.363 . S
C2529 H2532 0.929 . S
C2530 C2529 1.363 . S
C2530 C2536 1.428 . S
H2531 C2527 0.930 . S
H2532 C2529 0.929 . S
S2533 N2534 1.613 . S
S2533 N2535 1.610 . S
N2534 S2533 1.613 . S
N2534 C2537 1.350 . S
N2535 S2533 1.610 . S
N2535 C2536 1.351 . S
C2536 C2530 1.428 . S
C2536 N2535 1.351 . S
C2536 C2537 1.434 . S
C2537 C2528 1.429 . S
C2537 N2534 1.350 . S
C2537 C2536 1.434 . S
C2538 C2539 1.369 . S
C2538 C2540 1.419 . S
C2538 H2542 0.930 . S
C2539 C2538 1.369 . S
C2539 C2548 1.429 . S
C2540 C2538 1.419 . S
C2540 C2541 1.363 . S
C2540 H2543 0.929 . S
C2541 C2540 1.363 . S
C2541 C2547 1.428 . S
H2542 C2538 0.930 . S
H2543 C2540 0.929 . S
S2544 N2545 1.613 . S
S2544 N2546 1.610 . S
N2545 S2544 1.613 . S
N2545 C2548 1.350 . S
N2546 S2544 1.610 . S
N2546 C2547 1.351 . S
C2547 C2541 1.428 . S
C2547 N2546 1.351 . S
C2547 C2548 1.434 . S
C2548 C2539 1.429 . S
C2548 N2545 1.350 . S
C2548 C2547 1.434 . S
C2549 C2550 1.369 . S
C2549 C2551 1.419 . S
C2549 H2553 0.930 . S
C2550 C2549 1.369 . S
C2550 C2559 1.429 . S
C2551 C2549 1.419 . S
C2551 C2552 1.363 . S
C2551 H2554 0.929 . S
C2552 C2551 1.363 . S
C2552 C2558 1.428 . S
H2553 C2549 0.930 . S
H2554 C2551 0.929 . S
S2555 N2556 1.613 . S
S2555 N2557 1.610 . S
N2556 S2555 1.613 . S
N2556 C2559 1.350 . S
N2557 S2555 1.610 . S
N2557 C2558 1.351 . S
C2558 C2552 1.428 . S
C2558 N2557 1.351 . S
C2558 C2559 1.434 . S
C2559 C2550 1.429 . S
C2559 N2556 1.350 . S
C2559 C2558 1.434 . S
C2560 C2561 1.369 . S
C2560 C2562 1.419 . S
C2560 H2564 0.930 . S
C2561 C2560 1.369 . S
C2561 C2570 1.429 . S
C2562 C2560 1.419 . S
C2562 C2563 1.363 . S
C2562 H2565 0.929 . S
C2563 C2562 1.363 . S
C2563 C2569 1.428 . S
H2564 C2560 0.930 . S
H2565 C2562 0.929 . S
S2566 N2567 1.613 . S
S2566 N2568 1.610 . S
N2567 S2566 1.613 . S
N2567 C2570 1.350 . S
N2568 S2566 1.610 . S
N2568 C2569 1.351 . S
C2569 C2563 1.428 . S
C2569 N2568 1.351 . S
C2569 C2570 1.434 . S
C2570 C2561 1.429 . S
C2570 N2567 1.350 . S
C2570 C2569 1.434 . S
C2571 C2572 1.369 . S
C2571 C2573 1.419 . S
C2571 H2575 0.930 . S
C2572 C2571 1.369 . S
C2572 C2581 1.429 . S
C2573 C2571 1.419 . S
C2573 C2574 1.363 . S
C2573 H2576 0.929 . S
C2574 C2573 1.363 . S
C2574 C2580 1.428 . S
H2575 C2571 0.930 . S
H2576 C2573 0.929 . S
S2577 N2578 1.613 . S
S2577 N2579 1.610 . S
N2578 S2577 1.613 . S
N2578 C2581 1.350 . S
N2579 S2577 1.610 . S
N2579 C2580 1.351 . S
C2580 C2574 1.428 . S
C2580 N2579 1.351 . S
C2580 C2581 1.434 . S
C2581 C2572 1.429 . S
C2581 N2578 1.350 . S
C2581 C2580 1.434 . S
C2582 C2583 1.369 . S
C2582 C2584 1.419 . S
C2582 H2586 0.930 . S
C2583 C2582 1.369 . S
C2583 C2592 1.429 . S
C2584 C2582 1.419 . S
C2584 C2585 1.363 . S
C2584 H2587 0.929 . S
C2585 C2584 1.363 . S
C2585 C2591 1.428 . S
H2586 C2582 0.930 . S
H2587 C2584 0.929 . S
S2588 N2589 1.613 . S
S2588 N2590 1.610 . S
N2589 S2588 1.613 . S
N2589 C2592 1.350 . S
N2590 S2588 1.610 . S
N2590 C2591 1.351 . S
C2591 C2585 1.428 . S
C2591 N2590 1.351 . S
C2591 C2592 1.434 . S
C2592 C2583 1.429 . S
C2592 N2589 1.350 . S
C2592 C2591 1.434 . S
C2593 C2594 1.369 . S
C2593 C2595 1.419 . S
C2593 H2597 0.930 . S
C2594 C2593 1.369 . S
C2594 C2603 1.429 . S
C2595 C2593 1.419 . S
C2595 C2596 1.363 . S
C2595 H2598 0.929 . S
C2596 C2595 1.363 . S
C2596 C2602 1.428 . S
H2597 C2593 0.930 . S
H2598 C2595 0.929 . S
S2599 N2600 1.613 . S
S2599 N2601 1.610 . S
N2600 S2599 1.613 . S
N2600 C2603 1.350 . S
N2601 S2599 1.610 . S
N2601 C2602 1.351 . S
C2602 C2596 1.428 . S
C2602 N2601 1.351 . S
C2602 C2603 1.434 . S
C2603 C2594 1.429 . S
C2603 N2600 1.350 . S
C2603 C2602 1.434 . S
C2604 C2605 1.369 . S
C2604 C2606 1.419 . S
C2604 H2608 0.930 . S
C2605 C2604 1.369 . S
C2605 C2614 1.429 . S
C2606 C2604 1.419 . S
C2606 C2607 1.363 . S
C2606 H2609 0.929 . S
C2607 C2606 1.363 . S
C2607 C2613 1.428 . S
H2608 C2604 0.930 . S
H2609 C2606 0.929 . S
S2610 N2611 1.613 . S
S2610 N2612 1.610 . S
N2611 S2610 1.613 . S
N2611 C2614 1.350 . S
N2612 S2610 1.610 . S
N2612 C2613 1.351 . S
C2613 C2607 1.428 . S
C2613 N2612 1.351 . S
C2613 C2614 1.434 . S
C2614 C2605 1.429 . S
C2614 N2611 1.350 . S
C2614 C2613 1.434 . S
C2615 C2616 1.369 . S
C2615 C2617 1.419 . S
C2615 H2619 0.930 . S
C2616 C2615 1.369 . S
C2616 C2625 1.429 . S
C2617 C2615 1.419 . S
C2617 C2618 1.363 . S
C2617 H2620 0.929 . S
C2618 C2617 1.363 . S
C2618 C2624 1.428 . S
H2619 C2615 0.930 . S
H2620 C2617 0.929 . S
S2621 N2622 1.613 . S
S2621 N2623 1.610 . S
N2622 S2621 1.613 . S
N2622 C2625 1.350 . S
N2623 S2621 1.610 . S
N2623 C2624 1.351 . S
C2624 C2618 1.428 . S
C2624 N2623 1.351 . S
C2624 C2625 1.434 . S
C2625 C2616 1.429 . S
C2625 N2622 1.350 . S
C2625 C2624 1.434 . S
C2626 C2627 1.369 . S
C2626 C2628 1.419 . S
C2626 H2630 0.930 . S
C2627 C2626 1.369 . S
C2627 C2636 1.429 . S
C2628 C2626 1.419 . S
C2628 C2629 1.363 . S
C2628 H2631 0.929 . S
C2629 C2628 1.363 . S
C2629 C2635 1.428 . S
H2630 C2626 0.930 . S
H2631 C2628 0.929 . S
S2632 N2633 1.613 . S
S2632 N2634 1.610 . S
N2633 S2632 1.613 . S
N2633 C2636 1.350 . S
N2634 S2632 1.610 . S
N2634 C2635 1.351 . S
C2635 C2629 1.428 . S
C2635 N2634 1.351 . S
C2635 C2636 1.434 . S
C2636 C2627 1.429 . S
C2636 N2633 1.350 . S
C2636 C2635 1.434 . S
C2637 C2638 1.369 . S
C2637 C2639 1.419 . S
C2637 H2641 0.930 . S
C2638 C2637 1.369 . S
C2638 C2647 1.429 . S
C2639 C2637 1.419 . S
C2639 C2640 1.363 . S
C2639 H2642 0.929 . S
C2640 C2639 1.363 . S
C2640 C2646 1.428 . S
H2641 C2637 0.930 . S
H2642 C2639 0.929 . S
S2643 N2644 1.613 . S
S2643 N2645 1.610 . S
N2644 S2643 1.613 . S
N2644 C2647 1.350 . S
N2645 S2643 1.610 . S
N2645 C2646 1.351 . S
C2646 C2640 1.428 . S
C2646 N2645 1.351 . S
C2646 C2647 1.434 . S
C2647 C2638 1.429 . S
C2647 N2644 1.350 . S
C2647 C2646 1.434 . S
C2648 C2649 1.369 . S
C2648 C2650 1.419 . S
C2648 H2652 0.930 . S
C2649 C2648 1.369 . S
C2649 C2658 1.429 . S
C2650 C2648 1.419 . S
C2650 C2651 1.363 . S
C2650 H2653 0.929 . S
C2651 C2650 1.363 . S
C2651 C2657 1.428 . S
H2652 C2648 0.930 . S
H2653 C2650 0.929 . S
S2654 N2655 1.613 . S
S2654 N2656 1.610 . S
N2655 S2654 1.613 . S
N2655 C2658 1.350 . S
N2656 S2654 1.610 . S
N2656 C2657 1.351 . S
C2657 C2651 1.428 . S
C2657 N2656 1.351 . S
C2657 C2658 1.434 . S
C2658 C2649 1.429 . S
C2658 N2655 1.350 . S
C2658 C2657 1.434 . S
C2659 C2660 1.369 . S
C2659 C2661 1.419 . S
C2659 H2663 0.930 . S
C2660 C2659 1.369 . S
C2660 C2669 1.429 . S
C2661 C2659 1.419 . S
C2661 C2662 1.363 . S
C2661 H2664 0.929 . S
C2662 C2661 1.363 . S
C2662 C2668 1.428 . S
H2663 C2659 0.930 . S
H2664 C2661 0.929 . S
S2665 N2666 1.613 . S
S2665 N2667 1.610 . S
N2666 S2665 1.613 . S
N2666 C2669 1.350 . S
N2667 S2665 1.610 . S
N2667 C2668 1.351 . S
C2668 C2662 1.428 . S
C2668 N2667 1.351 . S
C2668 C2669 1.434 . S
C2669 C2660 1.429 . S
C2669 N2666 1.350 . S
C2669 C2668 1.434 . S
C2670 C2671 1.369 . S
C2670 C2672 1.419 . S
C2670 H2674 0.930 . S
C2671 C2670 1.369 . S
C2671 C2680 1.429 . S
C2672 C2670 1.419 . S
C2672 C2673 1.363 . S
C2672 H2675 0.929 . S
C2673 C2672 1.363 . S
C2673 C2679 1.428 . S
H2674 C2670 0.930 . S
H2675 C2672 0.929 . S
S2676 N2677 1.613 . S
S2676 N2678 1.610 . S
N2677 S2676 1.613 . S
N2677 C2680 1.350 . S
N2678 S2676 1.610 . S
N2678 C2679 1.351 . S
C2679 C2673 1.428 . S
C2679 N2678 1.351 . S
C2679 C2680 1.434 . S
C2680 C2671 1.429 . S
C2680 N2677 1.350 . S
C2680 C2679 1.434 . S
C2681 C2682 1.369 . S
C2681 C2683 1.419 . S
C2681 H2685 0.930 . S
C2682 C2681 1.369 . S
C2682 C2691 1.429 . S
C2683 C2681 1.419 . S
C2683 C2684 1.363 . S
C2683 H2686 0.929 . S
C2684 C2683 1.363 . S
C2684 C2690 1.428 . S
H2685 C2681 0.930 . S
H2686 C2683 0.929 . S
S2687 N2688 1.613 . S
S2687 N2689 1.610 . S
N2688 S2687 1.613 . S
N2688 C2691 1.350 . S
N2689 S2687 1.610 . S
N2689 C2690 1.351 . S
C2690 C2684 1.428 . S
C2690 N2689 1.351 . S
C2690 C2691 1.434 . S
C2691 C2682 1.429 . S
C2691 N2688 1.350 . S
C2691 C2690 1.434 . S
C2692 C2693 1.369 . S
C2692 C2694 1.419 . S
C2692 H2696 0.930 . S
C2693 C2692 1.369 . S
C2693 C2702 1.429 . S
C2694 C2692 1.419 . S
C2694 C2695 1.363 . S
C2694 H2697 0.929 . S
C2695 C2694 1.363 . S
C2695 C2701 1.428 . S
H2696 C2692 0.930 . S
H2697 C2694 0.929 . S
S2698 N2699 1.613 . S
S2698 N2700 1.610 . S
N2699 S2698 1.613 . S
N2699 C2702 1.350 . S
N2700 S2698 1.610 . S
N2700 C2701 1.351 . S
C2701 C2695 1.428 . S
C2701 N2700 1.351 . S
C2701 C2702 1.434 . S
C2702 C2693 1.429 . S
C2702 N2699 1.350 . S
C2702 C2701 1.434 . S
C2703 C2704 1.369 . S
C2703 C2705 1.419 . S
C2703 H2707 0.930 . S
C2704 C2703 1.369 . S
C2704 C2713 1.429 . S
C2705 C2703 1.419 . S
C2705 C2706 1.363 . S
C2705 H2708 0.929 . S
C2706 C2705 1.363 . S
C2706 C2712 1.428 . S
H2707 C2703 0.930 . S
H2708 C2705 0.929 . S
S2709 N2710 1.613 . S
S2709 N2711 1.610 . S
N2710 S2709 1.613 . S
N2710 C2713 1.350 . S
N2711 S2709 1.610 . S
N2711 C2712 1.351 . S
C2712 C2706 1.428 . S
C2712 N2711 1.351 . S
C2712 C2713 1.434 . S
C2713 C2704 1.429 . S
C2713 N2710 1.350 . S
C2713 C2712 1.434 . S
C2714 C2715 1.369 . S
C2714 C2716 1.419 . S
C2714 H2718 0.930 . S
C2715 C2714 1.369 . S
C2715 C2724 1.429 . S
C2716 C2714 1.419 . S
C2716 C2717 1.363 . S
C2716 H2719 0.929 . S
C2717 C2716 1.363 . S
C2717 C2723 1.428 . S
H2718 C2714 0.930 . S
H2719 C2716 0.929 . S
S2720 N2721 1.613 . S
S2720 N2722 1.610 . S
N2721 S2720 1.613 . S
N2721 C2724 1.350 . S
N2722 S2720 1.610 . S
N2722 C2723 1.351 . S
C2723 C2717 1.428 . S
C2723 N2722 1.351 . S
C2723 C2724 1.434 . S
C2724 C2715 1.429 . S
C2724 N2721 1.350 . S
C2724 C2723 1.434 . S
C2725 C2726 1.369 . S
C2725 C2727 1.419 . S
C2725 H2729 0.930 . S
C2726 C2725 1.369 . S
C2726 C2735 1.429 . S
C2727 C2725 1.419 . S
C2727 C2728 1.363 . S
C2727 H2730 0.929 . S
C2728 C2727 1.363 . S
C2728 C2734 1.428 . S
H2729 C2725 0.930 . S
H2730 C2727 0.929 . S
S2731 N2732 1.613 . S
S2731 N2733 1.610 . S
N2732 S2731 1.613 . S
N2732 C2735 1.350 . S
N2733 S2731 1.610 . S
N2733 C2734 1.351 . S
C2734 C2728 1.428 . S
C2734 N2733 1.351 . S
C2734 C2735 1.434 . S
C2735 C2726 1.429 . S
C2735 N2732 1.350 . S
C2735 C2734 1.434 . S
C2736 C2737 1.369 . S
C2736 C2738 1.419 . S
C2736 H2740 0.930 . S
C2737 C2736 1.369 . S
C2737 C2746 1.429 . S
C2738 C2736 1.419 . S
C2738 C2739 1.363 . S
C2738 H2741 0.929 . S
C2739 C2738 1.363 . S
C2739 C2745 1.428 . S
H2740 C2736 0.930 . S
H2741 C2738 0.929 . S
S2742 N2743 1.613 . S
S2742 N2744 1.610 . S
N2743 S2742 1.613 . S
N2743 C2746 1.350 . S
N2744 S2742 1.610 . S
N2744 C2745 1.351 . S
C2745 C2739 1.428 . S
C2745 N2744 1.351 . S
C2745 C2746 1.434 . S
C2746 C2737 1.429 . S
C2746 N2743 1.350 . S
C2746 C2745 1.434 . S
C2747 C2748 1.369 . S
C2747 C2749 1.419 . S
C2747 H2751 0.930 . S
C2748 C2747 1.369 . S
C2748 C2757 1.429 . S
C2749 C2747 1.419 . S
C2749 C2750 1.363 . S
C2749 H2752 0.929 . S
C2750 C2749 1.363 . S
C2750 C2756 1.428 . S
H2751 C2747 0.930 . S
H2752 C2749 0.929 . S
S2753 N2754 1.613 . S
S2753 N2755 1.610 . S
N2754 S2753 1.613 . S
N2754 C2757 1.350 . S
N2755 S2753 1.610 . S
N2755 C2756 1.351 . S
C2756 C2750 1.428 . S
C2756 N2755 1.351 . S
C2756 C2757 1.434 . S
C2757 C2748 1.429 . S
C2757 N2754 1.350 . S
C2757 C2756 1.434 . S
C2758 C2759 1.369 . S
C2758 C2760 1.419 . S
C2758 H2762 0.930 . S
C2759 C2758 1.369 . S
C2759 C2768 1.429 . S
C2760 C2758 1.419 . S
C2760 C2761 1.363 . S
C2760 H2763 0.929 . S
C2761 C2760 1.363 . S
C2761 C2767 1.428 . S
H2762 C2758 0.930 . S
H2763 C2760 0.929 . S
S2764 N2765 1.613 . S
S2764 N2766 1.610 . S
N2765 S2764 1.613 . S
N2765 C2768 1.350 . S
N2766 S2764 1.610 . S
N2766 C2767 1.351 . S
C2767 C2761 1.428 . S
C2767 N2766 1.351 . S
C2767 C2768 1.434 . S
C2768 C2759 1.429 . S
C2768 N2765 1.350 . S
C2768 C2767 1.434 . S
C2769 C2770 1.369 . S
C2769 C2771 1.419 . S
C2769 H2773 0.930 . S
C2770 C2769 1.369 . S
C2770 C2779 1.429 . S
C2771 C2769 1.419 . S
C2771 C2772 1.363 . S
C2771 H2774 0.929 . S
C2772 C2771 1.363 . S
C2772 C2778 1.428 . S
H2773 C2769 0.930 . S
H2774 C2771 0.929 . S
S2775 N2776 1.613 . S
S2775 N2777 1.610 . S
N2776 S2775 1.613 . S
N2776 C2779 1.350 . S
N2777 S2775 1.610 . S
N2777 C2778 1.351 . S
C2778 C2772 1.428 . S
C2778 N2777 1.351 . S
C2778 C2779 1.434 . S
C2779 C2770 1.429 . S
C2779 N2776 1.350 . S
C2779 C2778 1.434 . S
C2780 C2781 1.369 . S
C2780 C2782 1.419 . S
C2780 H2784 0.930 . S
C2781 C2780 1.369 . S
C2781 C2790 1.429 . S
C2782 C2780 1.419 . S
C2782 C2783 1.363 . S
C2782 H2785 0.929 . S
C2783 C2782 1.363 . S
C2783 C2789 1.428 . S
H2784 C2780 0.930 . S
H2785 C2782 0.929 . S
S2786 N2787 1.613 . S
S2786 N2788 1.610 . S
N2787 S2786 1.613 . S
N2787 C2790 1.350 . S
N2788 S2786 1.610 . S
N2788 C2789 1.351 . S
C2789 C2783 1.428 . S
C2789 N2788 1.351 . S
C2789 C2790 1.434 . S
C2790 C2781 1.429 . S
C2790 N2787 1.350 . S
C2790 C2789 1.434 . S
C2791 C2792 1.369 . S
C2791 C2793 1.419 . S
C2791 H2795 0.930 . S
C2792 C2791 1.369 . S
C2792 C2801 1.429 . S
C2793 C2791 1.419 . S
C2793 C2794 1.363 . S
C2793 H2796 0.929 . S
C2794 C2793 1.363 . S
C2794 C2800 1.428 . S
H2795 C2791 0.930 . S
H2796 C2793 0.929 . S
S2797 N2798 1.613 . S
S2797 N2799 1.610 . S
N2798 S2797 1.613 . S
N2798 C2801 1.350 . S
N2799 S2797 1.610 . S
N2799 C2800 1.351 . S
C2800 C2794 1.428 . S
C2800 N2799 1.351 . S
C2800 C2801 1.434 . S
C2801 C2792 1.429 . S
C2801 N2798 1.350 . S
C2801 C2800 1.434 . S
C2802 C2803 1.369 . S
C2802 C2804 1.419 . S
C2802 H2806 0.930 . S
C2803 C2802 1.369 . S
C2803 C2812 1.429 . S
C2804 C2802 1.419 . S
C2804 C2805 1.363 . S
C2804 H2807 0.929 . S
C2805 C2804 1.363 . S
C2805 C2811 1.428 . S
H2806 C2802 0.930 . S
H2807 C2804 0.929 . S
S2808 N2809 1.613 . S
S2808 N2810 1.610 . S
N2809 S2808 1.613 . S
N2809 C2812 1.350 . S
N2810 S2808 1.610 . S
N2810 C2811 1.351 . S
C2811 C2805 1.428 . S
C2811 N2810 1.351 . S
C2811 C2812 1.434 . S
C2812 C2803 1.429 . S
C2812 N2809 1.350 . S
C2812 C2811 1.434 . S
C2813 C2814 1.369 . S
C2813 C2815 1.419 . S
C2813 H2817 0.930 . S
C2814 C2813 1.369 . S
C2814 C2823 1.429 . S
C2815 C2813 1.419 . S
C2815 C2816 1.363 . S
C2815 H2818 0.929 . S
C2816 C2815 1.363 . S
C2816 C2822 1.428 . S
H2817 C2813 0.930 . S
H2818 C2815 0.929 . S
S2819 N2820 1.613 . S
S2819 N2821 1.610 . S
N2820 S2819 1.613 . S
N2820 C2823 1.350 . S
N2821 S2819 1.610 . S
N2821 C2822 1.351 . S
C2822 C2816 1.428 . S
C2822 N2821 1.351 . S
C2822 C2823 1.434 . S
C2823 C2814 1.429 . S
C2823 N2820 1.350 . S
C2823 C2822 1.434 . S
C2824 C2825 1.369 . S
C2824 C2826 1.419 . S
C2824 H2828 0.930 . S
C2825 C2824 1.369 . S
C2825 C2834 1.429 . S
C2826 C2824 1.419 . S
C2826 C2827 1.363 . S
C2826 H2829 0.929 . S
C2827 C2826 1.363 . S
C2827 C2833 1.428 . S
H2828 C2824 0.930 . S
H2829 C2826 0.929 . S
S2830 N2831 1.613 . S
S2830 N2832 1.610 . S
N2831 S2830 1.613 . S
N2831 C2834 1.350 . S
N2832 S2830 1.610 . S
N2832 C2833 1.351 . S
C2833 C2827 1.428 . S
C2833 N2832 1.351 . S
C2833 C2834 1.434 . S
C2834 C2825 1.429 . S
C2834 N2831 1.350 . S
C2834 C2833 1.434 . S
C2835 C2836 1.369 . S
C2835 C2837 1.419 . S
C2835 H2839 0.930 . S
C2836 C2835 1.369 . S
C2836 C2845 1.429 . S
C2837 C2835 1.419 . S
C2837 C2838 1.363 . S
C2837 H2840 0.929 . S
C2838 C2837 1.363 . S
C2838 C2844 1.428 . S
H2839 C2835 0.930 . S
H2840 C2837 0.929 . S
S2841 N2842 1.613 . S
S2841 N2843 1.610 . S
N2842 S2841 1.613 . S
N2842 C2845 1.350 . S
N2843 S2841 1.610 . S
N2843 C2844 1.351 . S
C2844 C2838 1.428 . S
C2844 N2843 1.351 . S
C2844 C2845 1.434 . S
C2845 C2836 1.429 . S
C2845 N2842 1.350 . S
C2845 C2844 1.434 . S
C2846 C2847 1.369 . S
C2846 C2848 1.419 . S
C2846 H2850 0.930 . S
C2847 C2846 1.369 . S
C2847 C2856 1.429 . S
C2848 C2846 1.419 . S
C2848 C2849 1.363 . S
C2848 H2851 0.929 . S
C2849 C2848 1.363 . S
C2849 C2855 1.428 . S
H2850 C2846 0.930 . S
H2851 C2848 0.929 . S
S2852 N2853 1.613 . S
S2852 N2854 1.610 . S
N2853 S2852 1.613 . S
N2853 C2856 1.350 . S
N2854 S2852 1.610 . S
N2854 C2855 1.351 . S
C2855 C2849 1.428 . S
C2855 N2854 1.351 . S
C2855 C2856 1.434 . S
C2856 C2847 1.429 . S
C2856 N2853 1.350 . S
C2856 C2855 1.434 . S
C2857 C2858 1.369 . S
C2857 C2859 1.419 . S
C2857 H2861 0.930 . S
C2858 C2857 1.369 . S
C2858 C2867 1.429 . S
C2859 C2857 1.419 . S
C2859 C2860 1.363 . S
C2859 H2862 0.929 . S
C2860 C2859 1.363 . S
C2860 C2866 1.428 . S
H2861 C2857 0.930 . S
H2862 C2859 0.929 . S
S2863 N2864 1.613 . S
S2863 N2865 1.610 . S
N2864 S2863 1.613 . S
N2864 C2867 1.350 . S
N2865 S2863 1.610 . S
N2865 C2866 1.351 . S
C2866 C2860 1.428 . S
C2866 N2865 1.351 . S
C2866 C2867 1.434 . S
C2867 C2858 1.429 . S
C2867 N2864 1.350 . S
C2867 C2866 1.434 . S
C2868 C2869 1.369 . S
C2868 C2870 1.419 . S
C2868 H2872 0.930 . S
C2869 C2868 1.369 . S
C2869 C2878 1.429 . S
C2870 C2868 1.419 . S
C2870 C2871 1.363 . S
C2870 H2873 0.929 . S
C2871 C2870 1.363 . S
C2871 C2877 1.428 . S
H2872 C2868 0.930 . S
H2873 C2870 0.929 . S
S2874 N2875 1.613 . S
S2874 N2876 1.610 . S
N2875 S2874 1.613 . S
N2875 C2878 1.350 . S
N2876 S2874 1.610 . S
N2876 C2877 1.351 . S
C2877 C2871 1.428 . S
C2877 N2876 1.351 . S
C2877 C2878 1.434 . S
C2878 C2869 1.429 . S
C2878 N2875 1.350 . S
C2878 C2877 1.434 . S
C2879 C2880 1.369 . S
C2879 C2881 1.419 . S
C2879 H2883 0.930 . S
C2880 C2879 1.369 . S
C2880 C2889 1.429 . S
C2881 C2879 1.419 . S
C2881 C2882 1.363 . S
C2881 H2884 0.929 . S
C2882 C2881 1.363 . S
C2882 C2888 1.428 . S
H2883 C2879 0.930 . S
H2884 C2881 0.929 . S
S2885 N2886 1.613 . S
S2885 N2887 1.610 . S
N2886 S2885 1.613 . S
N2886 C2889 1.350 . S
N2887 S2885 1.610 . S
N2887 C2888 1.351 . S
C2888 C2882 1.428 . S
C2888 N2887 1.351 . S
C2888 C2889 1.434 . S
C2889 C2880 1.429 . S
C2889 N2886 1.350 . S
C2889 C2888 1.434 . S
C2890 C2891 1.369 . S
C2890 C2892 1.419 . S
C2890 H2894 0.930 . S
C2891 C2890 1.369 . S
C2891 C2900 1.429 . S
C2892 C2890 1.419 . S
C2892 C2893 1.363 . S
C2892 H2895 0.929 . S
C2893 C2892 1.363 . S
C2893 C2899 1.428 . S
H2894 C2890 0.930 . S
H2895 C2892 0.929 . S
S2896 N2897 1.613 . S
S2896 N2898 1.610 . S
N2897 S2896 1.613 . S
N2897 C2900 1.350 . S
N2898 S2896 1.610 . S
N2898 C2899 1.351 . S
C2899 C2893 1.428 . S
C2899 N2898 1.351 . S
C2899 C2900 1.434 . S
C2900 C2891 1.429 . S
C2900 N2897 1.350 . S
C2900 C2899 1.434 . S
C2901 C2902 1.369 . S
C2901 C2903 1.419 . S
C2901 H2905 0.930 . S
C2902 C2901 1.369 . S
C2902 C2911 1.429 . S
C2903 C2901 1.419 . S
C2903 C2904 1.363 . S
C2903 H2906 0.929 . S
C2904 C2903 1.363 . S
C2904 C2910 1.428 . S
H2905 C2901 0.930 . S
H2906 C2903 0.929 . S
S2907 N2908 1.613 . S
S2907 N2909 1.610 . S
N2908 S2907 1.613 . S
N2908 C2911 1.350 . S
N2909 S2907 1.610 . S
N2909 C2910 1.351 . S
C2910 C2904 1.428 . S
C2910 N2909 1.351 . S
C2910 C2911 1.434 . S
C2911 C2902 1.429 . S
C2911 N2908 1.350 . S
C2911 C2910 1.434 . S
C2912 C2913 1.369 . S
C2912 C2914 1.419 . S
C2912 H2916 0.930 . S
C2913 C2912 1.369 . S
C2913 C2922 1.429 . S
C2914 C2912 1.419 . S
C2914 C2915 1.363 . S
C2914 H2917 0.929 . S
C2915 C2914 1.363 . S
C2915 C2921 1.428 . S
H2916 C2912 0.930 . S
H2917 C2914 0.929 . S
S2918 N2919 1.613 . S
S2918 N2920 1.610 . S
N2919 S2918 1.613 . S
N2919 C2922 1.350 . S
N2920 S2918 1.610 . S
N2920 C2921 1.351 . S
C2921 C2915 1.428 . S
C2921 N2920 1.351 . S
C2921 C2922 1.434 . S
C2922 C2913 1.429 . S
C2922 N2919 1.350 . S
C2922 C2921 1.434 . S
C2923 C2924 1.369 . S
C2923 C2925 1.419 . S
C2923 H2927 0.930 . S
C2924 C2923 1.369 . S
C2924 C2933 1.429 . S
C2925 C2923 1.419 . S
C2925 C2926 1.363 . S
C2925 H2928 0.929 . S
C2926 C2925 1.363 . S
C2926 C2932 1.428 . S
H2927 C2923 0.930 . S
H2928 C2925 0.929 . S
S2929 N2930 1.613 . S
S2929 N2931 1.610 . S
N2930 S2929 1.613 . S
N2930 C2933 1.350 . S
N2931 S2929 1.610 . S
N2931 C2932 1.351 . S
C2932 C2926 1.428 . S
C2932 N2931 1.351 . S
C2932 C2933 1.434 . S
C2933 C2924 1.429 . S
C2933 N2930 1.350 . S
C2933 C2932 1.434 . S
C2934 C2935 1.369 . S
C2934 C2936 1.419 . S
C2934 H2938 0.930 . S
C2935 C2934 1.369 . S
C2935 C2944 1.429 . S
C2936 C2934 1.419 . S
C2936 C2937 1.363 . S
C2936 H2939 0.929 . S
C2937 C2936 1.363 . S
C2937 C2943 1.428 . S
H2938 C2934 0.930 . S
H2939 C2936 0.929 . S
S2940 N2941 1.613 . S
S2940 N2942 1.610 . S
N2941 S2940 1.613 . S
N2941 C2944 1.350 . S
N2942 S2940 1.610 . S
N2942 C2943 1.351 . S
C2943 C2937 1.428 . S
C2943 N2942 1.351 . S
C2943 C2944 1.434 . S
C2944 C2935 1.429 . S
C2944 N2941 1.350 . S
C2944 C2943 1.434 . S
C2945 C2946 1.369 . S
C2945 C2947 1.419 . S
C2945 H2949 0.930 . S
C2946 C2945 1.369 . S
C2946 C2955 1.429 . S
C2947 C2945 1.419 . S
C2947 C2948 1.363 . S
C2947 H2950 0.929 . S
C2948 C2947 1.363 . S
C2948 C2954 1.428 . S
H2949 C2945 0.930 . S
H2950 C2947 0.929 . S
S2951 N2952 1.613 . S
S2951 N2953 1.610 . S
N2952 S2951 1.613 . S
N2952 C2955 1.350 . S
N2953 S2951 1.610 . S
N2953 C2954 1.351 . S
C2954 C2948 1.428 . S
C2954 N2953 1.351 . S
C2954 C2955 1.434 . S
C2955 C2946 1.429 . S
C2955 N2952 1.350 . S
C2955 C2954 1.434 . S
C2956 C2957 1.369 . S
C2956 C2958 1.419 . S
C2956 H2960 0.930 . S
C2957 C2956 1.369 . S
C2957 C2966 1.429 . S
C2958 C2956 1.419 . S
C2958 C2959 1.363 . S
C2958 H2961 0.929 . S
C2959 C2958 1.363 . S
C2959 C2965 1.428 . S
H2960 C2956 0.930 . S
H2961 C2958 0.929 . S
S2962 N2963 1.613 . S
S2962 N2964 1.610 . S
N2963 S2962 1.613 . S
N2963 C2966 1.350 . S
N2964 S2962 1.610 . S
N2964 C2965 1.351 . S
C2965 C2959 1.428 . S
C2965 N2964 1.351 . S
C2965 C2966 1.434 . S
C2966 C2957 1.429 . S
C2966 N2963 1.350 . S
C2966 C2965 1.434 . S
C2967 C2968 1.369 . S
C2967 C2969 1.419 . S
C2967 H2971 0.930 . S
C2968 C2967 1.369 . S
C2968 C2977 1.429 . S
C2969 C2967 1.419 . S
C2969 C2970 1.363 . S
C2969 H2972 0.929 . S
C2970 C2969 1.363 . S
C2970 C2976 1.428 . S
H2971 C2967 0.930 . S
H2972 C2969 0.929 . S
S2973 N2974 1.613 . S
S2973 N2975 1.610 . S
N2974 S2973 1.613 . S
N2974 C2977 1.350 . S
N2975 S2973 1.610 . S
N2975 C2976 1.351 . S
C2976 C2970 1.428 . S
C2976 N2975 1.351 . S
C2976 C2977 1.434 . S
C2977 C2968 1.429 . S
C2977 N2974 1.350 . S
C2977 C2976 1.434 . S
C2978 C2979 1.369 . S
C2978 C2980 1.419 . S
C2978 H2982 0.930 . S
C2979 C2978 1.369 . S
C2979 C2988 1.429 . S
C2980 C2978 1.419 . S
C2980 C2981 1.363 . S
C2980 H2983 0.929 . S
C2981 C2980 1.363 . S
C2981 C2987 1.428 . S
H2982 C2978 0.930 . S
H2983 C2980 0.929 . S
S2984 N2985 1.613 . S
S2984 N2986 1.610 . S
N2985 S2984 1.613 . S
N2985 C2988 1.350 . S
N2986 S2984 1.610 . S
N2986 C2987 1.351 . S
C2987 C2981 1.428 . S
C2987 N2986 1.351 . S
C2987 C2988 1.434 . S
C2988 C2979 1.429 . S
C2988 N2985 1.350 . S
C2988 C2987 1.434 . S
C2989 C2990 1.369 . S
C2989 C2991 1.419 . S
C2989 H2993 0.930 . S
C2990 C2989 1.369 . S
C2990 C2999 1.429 . S
C2991 C2989 1.419 . S
C2991 C2992 1.363 . S
C2991 H2994 0.929 . S
C2992 C2991 1.363 . S
C2992 C2998 1.428 . S
H2993 C2989 0.930 . S
H2994 C2991 0.929 . S
S2995 N2996 1.613 . S
S2995 N2997 1.610 . S
N2996 S2995 1.613 . S
N2996 C2999 1.350 . S
N2997 S2995 1.610 . S
N2997 C2998 1.351 . S
C2998 C2992 1.428 . S
C2998 N2997 1.351 . S
C2998 C2999 1.434 . S
C2999 C2990 1.429 . S
C2999 N2996 1.350 . S
C2999 C2998 1.434 . S
C3000 C3001 1.369 . S
C3000 C3002 1.419 . S
C3000 H3004 0.930 . S
C3001 C3000 1.369 . S
C3001 C3010 1.429 . S
C3002 C3000 1.419 . S
C3002 C3003 1.363 . S
C3002 H3005 0.929 . S
C3003 C3002 1.363 . S
C3003 C3009 1.428 . S
H3004 C3000 0.930 . S
H3005 C3002 0.929 . S
S3006 N3007 1.613 . S
S3006 N3008 1.610 . S
N3007 S3006 1.613 . S
N3007 C3010 1.350 . S
N3008 S3006 1.610 . S
N3008 C3009 1.351 . S
C3009 C3003 1.428 . S
C3009 N3008 1.351 . S
C3009 C3010 1.434 . S
C3010 C3001 1.429 . S
C3010 N3007 1.350 . S
C3010 C3009 1.434 . S
C3011 C3012 1.369 . S
C3011 C3013 1.419 . S
C3011 H3015 0.930 . S
C3012 C3011 1.369 . S
C3012 C3021 1.429 . S
C3013 C3011 1.419 . S
C3013 C3014 1.363 . S
C3013 H3016 0.929 . S
C3014 C3013 1.363 . S
C3014 C3020 1.428 . S
H3015 C3011 0.930 . S
H3016 C3013 0.929 . S
S3017 N3018 1.613 . S
S3017 N3019 1.610 . S
N3018 S3017 1.613 . S
N3018 C3021 1.350 . S
N3019 S3017 1.610 . S
N3019 C3020 1.351 . S
C3020 C3014 1.428 . S
C3020 N3019 1.351 . S
C3020 C3021 1.434 . S
C3021 C3012 1.429 . S
C3021 N3018 1.350 . S
C3021 C3020 1.434 . S
C3022 C3023 1.369 . S
C3022 C3024 1.419 . S
C3022 H3026 0.930 . S
C3023 C3022 1.369 . S
C3023 C3032 1.429 . S
C3024 C3022 1.419 . S
C3024 C3025 1.363 . S
C3024 H3027 0.929 . S
C3025 C3024 1.363 . S
C3025 C3031 1.428 . S
H3026 C3022 0.930 . S
H3027 C3024 0.929 . S
S3028 N3029 1.613 . S
S3028 N3030 1.610 . S
N3029 S3028 1.613 . S
N3029 C3032 1.350 . S
N3030 S3028 1.610 . S
N3030 C3031 1.351 . S
C3031 C3025 1.428 . S
C3031 N3030 1.351 . S
C3031 C3032 1.434 . S
C3032 C3023 1.429 . S
C3032 N3029 1.350 . S
C3032 C3031 1.434 . S
C3033 C3034 1.369 . S
C3033 C3035 1.419 . S
C3033 H3037 0.930 . S
C3034 C3033 1.369 . S
C3034 C3043 1.429 . S
C3035 C3033 1.419 . S
C3035 C3036 1.363 . S
C3035 H3038 0.929 . S
C3036 C3035 1.363 . S
C3036 C3042 1.428 . S
H3037 C3033 0.930 . S
H3038 C3035 0.929 . S
S3039 N3040 1.613 . S
S3039 N3041 1.610 . S
N3040 S3039 1.613 . S
N3040 C3043 1.350 . S
N3041 S3039 1.610 . S
N3041 C3042 1.351 . S
C3042 C3036 1.428 . S
C3042 N3041 1.351 . S
C3042 C3043 1.434 . S
C3043 C3034 1.429 . S
C3043 N3040 1.350 . S
C3043 C3042 1.434 . S
C3044 C3045 1.369 . S
C3044 C3046 1.419 . S
C3044 H3048 0.930 . S
C3045 C3044 1.369 . S
C3045 C3054 1.429 . S
C3046 C3044 1.419 . S
C3046 C3047 1.363 . S
C3046 H3049 0.929 . S
C3047 C3046 1.363 . S
C3047 C3053 1.428 . S
H3048 C3044 0.930 . S
H3049 C3046 0.929 . S
S3050 N3051 1.613 . S
S3050 N3052 1.610 . S
N3051 S3050 1.613 . S
N3051 C3054 1.350 . S
N3052 S3050 1.610 . S
N3052 C3053 1.351 . S
C3053 C3047 1.428 . S
C3053 N3052 1.351 . S
C3053 C3054 1.434 . S
C3054 C3045 1.429 . S
C3054 N3051 1.350 . S
C3054 C3053 1.434 . S
C3055 C3056 1.369 . S
C3055 C3057 1.419 . S
C3055 H3059 0.930 . S
C3056 C3055 1.369 . S
C3056 C3065 1.429 . S
C3057 C3055 1.419 . S
C3057 C3058 1.363 . S
C3057 H3060 0.929 . S
C3058 C3057 1.363 . S
C3058 C3064 1.428 . S
H3059 C3055 0.930 . S
H3060 C3057 0.929 . S
S3061 N3062 1.613 . S
S3061 N3063 1.610 . S
N3062 S3061 1.613 . S
N3062 C3065 1.350 . S
N3063 S3061 1.610 . S
N3063 C3064 1.351 . S
C3064 C3058 1.428 . S
C3064 N3063 1.351 . S
C3064 C3065 1.434 . S
C3065 C3056 1.429 . S
C3065 N3062 1.350 . S
C3065 C3064 1.434 . S
C3066 C3067 1.369 . S
C3066 C3068 1.419 . S
C3066 H3070 0.930 . S
C3067 C3066 1.369 . S
C3067 C3076 1.429 . S
C3068 C3066 1.419 . S
C3068 C3069 1.363 . S
C3068 H3071 0.929 . S
C3069 C3068 1.363 . S
C3069 C3075 1.428 . S
H3070 C3066 0.930 . S
H3071 C3068 0.929 . S
S3072 N3073 1.613 . S
S3072 N3074 1.610 . S
N3073 S3072 1.613 . S
N3073 C3076 1.350 . S
N3074 S3072 1.610 . S
N3074 C3075 1.351 . S
C3075 C3069 1.428 . S
C3075 N3074 1.351 . S
C3075 C3076 1.434 . S
C3076 C3067 1.429 . S
C3076 N3073 1.350 . S
C3076 C3075 1.434 . S
C3077 C3078 1.369 . S
C3077 C3079 1.419 . S
C3077 H3081 0.930 . S
C3078 C3077 1.369 . S
C3078 C3087 1.429 . S
C3079 C3077 1.419 . S
C3079 C3080 1.363 . S
C3079 H3082 0.929 . S
C3080 C3079 1.363 . S
C3080 C3086 1.428 . S
H3081 C3077 0.930 . S
H3082 C3079 0.929 . S
S3083 N3084 1.613 . S
S3083 N3085 1.610 . S
N3084 S3083 1.613 . S
N3084 C3087 1.350 . S
N3085 S3083 1.610 . S
N3085 C3086 1.351 . S
C3086 C3080 1.428 . S
C3086 N3085 1.351 . S
C3086 C3087 1.434 . S
C3087 C3078 1.429 . S
C3087 N3084 1.350 . S
C3087 C3086 1.434 . S
C3088 C3089 1.369 . S
C3088 C3090 1.419 . S
C3088 H3092 0.930 . S
C3089 C3088 1.369 . S
C3089 C3098 1.429 . S
C3090 C3088 1.419 . S
C3090 C3091 1.363 . S
C3090 H3093 0.929 . S
C3091 C3090 1.363 . S
C3091 C3097 1.428 . S
H3092 C3088 0.930 . S
H3093 C3090 0.929 . S
S3094 N3095 1.613 . S
S3094 N3096 1.610 . S
N3095 S3094 1.613 . S
N3095 C3098 1.350 . S
N3096 S3094 1.610 . S
N3096 C3097 1.351 . S
C3097 C3091 1.428 . S
C3097 N3096 1.351 . S
C3097 C3098 1.434 . S
C3098 C3089 1.429 . S
C3098 N3095 1.350 . S
C3098 C3097 1.434 . S
C3099 C3100 1.369 . S
C3099 C3101 1.419 . S
C3099 H3103 0.930 . S
C3100 C3099 1.369 . S
C3100 C3109 1.429 . S
C3101 C3099 1.419 . S
C3101 C3102 1.363 . S
C3101 H3104 0.929 . S
C3102 C3101 1.363 . S
C3102 C3108 1.428 . S
H3103 C3099 0.930 . S
H3104 C3101 0.929 . S
S3105 N3106 1.613 . S
S3105 N3107 1.610 . S
N3106 S3105 1.613 . S
N3106 C3109 1.350 . S
N3107 S3105 1.610 . S
N3107 C3108 1.351 . S
C3108 C3102 1.428 . S
C3108 N3107 1.351 . S
C3108 C3109 1.434 . S
C3109 C3100 1.429 . S
C3109 N3106 1.350 . S
C3109 C3108 1.434 . S
C3110 C3111 1.369 . S
C3110 C3112 1.419 . S
C3110 H3114 0.930 . S
C3111 C3110 1.369 . S
C3111 C3120 1.429 . S
C3112 C3110 1.419 . S
C3112 C3113 1.363 . S
C3112 H3115 0.929 . S
C3113 C3112 1.363 . S
C3113 C3119 1.428 . S
H3114 C3110 0.930 . S
H3115 C3112 0.929 . S
S3116 N3117 1.613 . S
S3116 N3118 1.610 . S
N3117 S3116 1.613 . S
N3117 C3120 1.350 . S
N3118 S3116 1.610 . S
N3118 C3119 1.351 . S
C3119 C3113 1.428 . S
C3119 N3118 1.351 . S
C3119 C3120 1.434 . S
C3120 C3111 1.429 . S
C3120 N3117 1.350 . S
C3120 C3119 1.434 . S
C3121 C3122 1.369 . S
C3121 C3123 1.419 . S
C3121 H3125 0.930 . S
C3122 C3121 1.369 . S
C3122 C3131 1.429 . S
C3123 C3121 1.419 . S
C3123 C3124 1.363 . S
C3123 H3126 0.929 . S
C3124 C3123 1.363 . S
C3124 C3130 1.428 . S
H3125 C3121 0.930 . S
H3126 C3123 0.929 . S
S3127 N3128 1.613 . S
S3127 N3129 1.610 . S
N3128 S3127 1.613 . S
N3128 C3131 1.350 . S
N3129 S3127 1.610 . S
N3129 C3130 1.351 . S
C3130 C3124 1.428 . S
C3130 N3129 1.351 . S
C3130 C3131 1.434 . S
C3131 C3122 1.429 . S
C3131 N3128 1.350 . S
C3131 C3130 1.434 . S
C3132 C3133 1.369 . S
C3132 C3134 1.419 . S
C3132 H3136 0.930 . S
C3133 C3132 1.369 . S
C3133 C3142 1.429 . S
C3134 C3132 1.419 . S
C3134 C3135 1.363 . S
C3134 H3137 0.929 . S
C3135 C3134 1.363 . S
C3135 C3141 1.428 . S
H3136 C3132 0.930 . S
H3137 C3134 0.929 . S
S3138 N3139 1.613 . S
S3138 N3140 1.610 . S
N3139 S3138 1.613 . S
N3139 C3142 1.350 . S
N3140 S3138 1.610 . S
N3140 C3141 1.351 . S
C3141 C3135 1.428 . S
C3141 N3140 1.351 . S
C3141 C3142 1.434 . S
C3142 C3133 1.429 . S
C3142 N3139 1.350 . S
C3142 C3141 1.434 . S
C3143 C3144 1.369 . S
C3143 C3145 1.419 . S
C3143 H3147 0.930 . S
C3144 C3143 1.369 . S
C3144 C3153 1.429 . S
C3145 C3143 1.419 . S
C3145 C3146 1.363 . S
C3145 H3148 0.929 . S
C3146 C3145 1.363 . S
C3146 C3152 1.428 . S
H3147 C3143 0.930 . S
H3148 C3145 0.929 . S
S3149 N3150 1.613 . S
S3149 N3151 1.610 . S
N3150 S3149 1.613 . S
N3150 C3153 1.350 . S
N3151 S3149 1.610 . S
N3151 C3152 1.351 . S
C3152 C3146 1.428 . S
C3152 N3151 1.351 . S
C3152 C3153 1.434 . S
C3153 C3144 1.429 . S
C3153 N3150 1.350 . S
C3153 C3152 1.434 . S
C3154 C3155 1.369 . S
C3154 C3156 1.419 . S
C3154 H3158 0.930 . S
C3155 C3154 1.369 . S
C3155 C3164 1.429 . S
C3156 C3154 1.419 . S
C3156 C3157 1.363 . S
C3156 H3159 0.929 . S
C3157 C3156 1.363 . S
C3157 C3163 1.428 . S
H3158 C3154 0.930 . S
H3159 C3156 0.929 . S
S3160 N3161 1.613 . S
S3160 N3162 1.610 . S
N3161 S3160 1.613 . S
N3161 C3164 1.350 . S
N3162 S3160 1.610 . S
N3162 C3163 1.351 . S
C3163 C3157 1.428 . S
C3163 N3162 1.351 . S
C3163 C3164 1.434 . S
C3164 C3155 1.429 . S
C3164 N3161 1.350 . S
C3164 C3163 1.434 . S
C3165 C3166 1.369 . S
C3165 C3167 1.419 . S
C3165 H3169 0.930 . S
C3166 C3165 1.369 . S
C3166 C3175 1.429 . S
C3167 C3165 1.419 . S
C3167 C3168 1.363 . S
C3167 H3170 0.929 . S
C3168 C3167 1.363 . S
C3168 C3174 1.428 . S
H3169 C3165 0.930 . S
H3170 C3167 0.929 . S
S3171 N3172 1.613 . S
S3171 N3173 1.610 . S
N3172 S3171 1.613 . S
N3172 C3175 1.350 . S
N3173 S3171 1.610 . S
N3173 C3174 1.351 . S
C3174 C3168 1.428 . S
C3174 N3173 1.351 . S
C3174 C3175 1.434 . S
C3175 C3166 1.429 . S
C3175 N3172 1.350 . S
C3175 C3174 1.434 . S
C3176 C3177 1.369 . S
C3176 C3178 1.419 . S
C3176 H3180 0.930 . S
C3177 C3176 1.369 . S
C3177 C3186 1.429 . S
C3178 C3176 1.419 . S
C3178 C3179 1.363 . S
C3178 H3181 0.929 . S
C3179 C3178 1.363 . S
C3179 C3185 1.428 . S
H3180 C3176 0.930 . S
H3181 C3178 0.929 . S
S3182 N3183 1.613 . S
S3182 N3184 1.610 . S
N3183 S3182 1.613 . S
N3183 C3186 1.350 . S
N3184 S3182 1.610 . S
N3184 C3185 1.351 . S
C3185 C3179 1.428 . S
C3185 N3184 1.351 . S
C3185 C3186 1.434 . S
C3186 C3177 1.429 . S
C3186 N3183 1.350 . S
C3186 C3185 1.434 . S
C3187 C3188 1.369 . S
C3187 C3189 1.419 . S
C3187 H3191 0.930 . S
C3188 C3187 1.369 . S
C3188 C3197 1.429 . S
C3189 C3187 1.419 . S
C3189 C3190 1.363 . S
C3189 H3192 0.929 . S
C3190 C3189 1.363 . S
C3190 C3196 1.428 . S
H3191 C3187 0.930 . S
H3192 C3189 0.929 . S
S3193 N3194 1.613 . S
S3193 N3195 1.610 . S
N3194 S3193 1.613 . S
N3194 C3197 1.350 . S
N3195 S3193 1.610 . S
N3195 C3196 1.351 . S
C3196 C3190 1.428 . S
C3196 N3195 1.351 . S
C3196 C3197 1.434 . S
C3197 C3188 1.429 . S
C3197 N3194 1.350 . S
C3197 C3196 1.434 . S
C3198 C3199 1.369 . S
C3198 C3200 1.419 . S
C3198 H3202 0.930 . S
C3199 C3198 1.369 . S
C3199 C3208 1.429 . S
C3200 C3198 1.419 . S
C3200 C3201 1.363 . S
C3200 H3203 0.929 . S
C3201 C3200 1.363 . S
C3201 C3207 1.428 . S
H3202 C3198 0.930 . S
H3203 C3200 0.929 . S
S3204 N3205 1.613 . S
S3204 N3206 1.610 . S
N3205 S3204 1.613 . S
N3205 C3208 1.350 . S
N3206 S3204 1.610 . S
N3206 C3207 1.351 . S
C3207 C3201 1.428 . S
C3207 N3206 1.351 . S
C3207 C3208 1.434 . S
C3208 C3199 1.429 . S
C3208 N3205 1.350 . S
C3208 C3207 1.434 . S
C3209 C3210 1.369 . S
C3209 C3211 1.419 . S
C3209 H3213 0.930 . S
C3210 C3209 1.369 . S
C3210 C3219 1.429 . S
C3211 C3209 1.419 . S
C3211 C3212 1.363 . S
C3211 H3214 0.929 . S
C3212 C3211 1.363 . S
C3212 C3218 1.428 . S
H3213 C3209 0.930 . S
H3214 C3211 0.929 . S
S3215 N3216 1.613 . S
S3215 N3217 1.610 . S
N3216 S3215 1.613 . S
N3216 C3219 1.350 . S
N3217 S3215 1.610 . S
N3217 C3218 1.351 . S
C3218 C3212 1.428 . S
C3218 N3217 1.351 . S
C3218 C3219 1.434 . S
C3219 C3210 1.429 . S
C3219 N3216 1.350 . S
C3219 C3218 1.434 . S
C3220 C3221 1.369 . S
C3220 C3222 1.419 . S
C3220 H3224 0.930 . S
C3221 C3220 1.369 . S
C3221 C3230 1.429 . S
C3222 C3220 1.419 . S
C3222 C3223 1.363 . S
C3222 H3225 0.929 . S
C3223 C3222 1.363 . S
C3223 C3229 1.428 . S
H3224 C3220 0.930 . S
H3225 C3222 0.929 . S
S3226 N3227 1.613 . S
S3226 N3228 1.610 . S
N3227 S3226 1.613 . S
N3227 C3230 1.350 . S
N3228 S3226 1.610 . S
N3228 C3229 1.351 . S
C3229 C3223 1.428 . S
C3229 N3228 1.351 . S
C3229 C3230 1.434 . S
C3230 C3221 1.429 . S
C3230 N3227 1.350 . S
C3230 C3229 1.434 . S
C3231 C3232 1.369 . S
C3231 C3233 1.419 . S
C3231 H3235 0.930 . S
C3232 C3231 1.369 . S
C3232 C3241 1.429 . S
C3233 C3231 1.419 . S
C3233 C3234 1.363 . S
C3233 H3236 0.929 . S
C3234 C3233 1.363 . S
C3234 C3240 1.428 . S
H3235 C3231 0.930 . S
H3236 C3233 0.929 . S
S3237 N3238 1.613 . S
S3237 N3239 1.610 . S
N3238 S3237 1.613 . S
N3238 C3241 1.350 . S
N3239 S3237 1.610 . S
N3239 C3240 1.351 . S
C3240 C3234 1.428 . S
C3240 N3239 1.351 . S
C3240 C3241 1.434 . S
C3241 C3232 1.429 . S
C3241 N3238 1.350 . S
C3241 C3240 1.434 . S
C3242 C3243 1.369 . S
C3242 C3244 1.419 . S
C3242 H3246 0.930 . S
C3243 C3242 1.369 . S
C3243 C3252 1.429 . S
C3244 C3242 1.419 . S
C3244 C3245 1.363 . S
C3244 H3247 0.929 . S
C3245 C3244 1.363 . S
C3245 C3251 1.428 . S
H3246 C3242 0.930 . S
H3247 C3244 0.929 . S
S3248 N3249 1.613 . S
S3248 N3250 1.610 . S
N3249 S3248 1.613 . S
N3249 C3252 1.350 . S
N3250 S3248 1.610 . S
N3250 C3251 1.351 . S
C3251 C3245 1.428 . S
C3251 N3250 1.351 . S
C3251 C3252 1.434 . S
C3252 C3243 1.429 . S
C3252 N3249 1.350 . S
C3252 C3251 1.434 . S
C3253 C3254 1.369 . S
C3253 C3255 1.419 . S
C3253 H3257 0.930 . S
C3254 C3253 1.369 . S
C3254 C3263 1.429 . S
C3255 C3253 1.419 . S
C3255 C3256 1.363 . S
C3255 H3258 0.929 . S
C3256 C3255 1.363 . S
C3256 C3262 1.428 . S
H3257 C3253 0.930 . S
H3258 C3255 0.929 . S
S3259 N3260 1.613 . S
S3259 N3261 1.610 . S
N3260 S3259 1.613 . S
N3260 C3263 1.350 . S
N3261 S3259 1.610 . S
N3261 C3262 1.351 . S
C3262 C3256 1.428 . S
C3262 N3261 1.351 . S
C3262 C3263 1.434 . S
C3263 C3254 1.429 . S
C3263 N3260 1.350 . S
C3263 C3262 1.434 . S
C3264 C3265 1.369 . S
C3264 C3266 1.419 . S
C3264 H3268 0.930 . S
C3265 C3264 1.369 . S
C3265 C3274 1.429 . S
C3266 C3264 1.419 . S
C3266 C3267 1.363 . S
C3266 H3269 0.929 . S
C3267 C3266 1.363 . S
C3267 C3273 1.428 . S
H3268 C3264 0.930 . S
H3269 C3266 0.929 . S
S3270 N3271 1.613 . S
S3270 N3272 1.610 . S
N3271 S3270 1.613 . S
N3271 C3274 1.350 . S
N3272 S3270 1.610 . S
N3272 C3273 1.351 . S
C3273 C3267 1.428 . S
C3273 N3272 1.351 . S
C3273 C3274 1.434 . S
C3274 C3265 1.429 . S
C3274 N3271 1.350 . S
C3274 C3273 1.434 . S
C3275 C3276 1.369 . S
C3275 C3277 1.419 . S
C3275 H3279 0.930 . S
C3276 C3275 1.369 . S
C3276 C3285 1.429 . S
C3277 C3275 1.419 . S
C3277 C3278 1.363 . S
C3277 H3280 0.929 . S
C3278 C3277 1.363 . S
C3278 C3284 1.428 . S
H3279 C3275 0.930 . S
H3280 C3277 0.929 . S
S3281 N3282 1.613 . S
S3281 N3283 1.610 . S
N3282 S3281 1.613 . S
N3282 C3285 1.350 . S
N3283 S3281 1.610 . S
N3283 C3284 1.351 . S
C3284 C3278 1.428 . S
C3284 N3283 1.351 . S
C3284 C3285 1.434 . S
C3285 C3276 1.429 . S
C3285 N3282 1.350 . S
C3285 C3284 1.434 . S
C3286 C3287 1.369 . S
C3286 C3288 1.419 . S
C3286 H3290 0.930 . S
C3287 C3286 1.369 . S
C3287 C3296 1.429 . S
C3288 C3286 1.419 . S
C3288 C3289 1.363 . S
C3288 H3291 0.929 . S
C3289 C3288 1.363 . S
C3289 C3295 1.428 . S
H3290 C3286 0.930 . S
H3291 C3288 0.929 . S
S3292 N3293 1.613 . S
S3292 N3294 1.610 . S
N3293 S3292 1.613 . S
N3293 C3296 1.350 . S
N3294 S3292 1.610 . S
N3294 C3295 1.351 . S
C3295 C3289 1.428 . S
C3295 N3294 1.351 . S
C3295 C3296 1.434 . S
C3296 C3287 1.429 . S
C3296 N3293 1.350 . S
C3296 C3295 1.434 . S
C3297 C3298 1.369 . S
C3297 C3299 1.419 . S
C3297 H3301 0.930 . S
C3298 C3297 1.369 . S
C3298 C3307 1.429 . S
C3299 C3297 1.419 . S
C3299 C3300 1.363 . S
C3299 H3302 0.929 . S
C3300 C3299 1.363 . S
C3300 C3306 1.428 . S
H3301 C3297 0.930 . S
H3302 C3299 0.929 . S
S3303 N3304 1.613 . S
S3303 N3305 1.610 . S
N3304 S3303 1.613 . S
N3304 C3307 1.350 . S
N3305 S3303 1.610 . S
N3305 C3306 1.351 . S
C3306 C3300 1.428 . S
C3306 N3305 1.351 . S
C3306 C3307 1.434 . S
C3307 C3298 1.429 . S
C3307 N3304 1.350 . S
C3307 C3306 1.434 . S
C3308 C3309 1.369 . S
C3308 C3310 1.419 . S
C3308 H3312 0.930 . S
C3309 C3308 1.369 . S
C3309 C3318 1.429 . S
C3310 C3308 1.419 . S
C3310 C3311 1.363 . S
C3310 H3313 0.929 . S
C3311 C3310 1.363 . S
C3311 C3317 1.428 . S
H3312 C3308 0.930 . S
H3313 C3310 0.929 . S
S3314 N3315 1.613 . S
S3314 N3316 1.610 . S
N3315 S3314 1.613 . S
N3315 C3318 1.350 . S
N3316 S3314 1.610 . S
N3316 C3317 1.351 . S
C3317 C3311 1.428 . S
C3317 N3316 1.351 . S
C3317 C3318 1.434 . S
C3318 C3309 1.429 . S
C3318 N3315 1.350 . S
C3318 C3317 1.434 . S
C3319 C3320 1.369 . S
C3319 C3321 1.419 . S
C3319 H3323 0.930 . S
C3320 C3319 1.369 . S
C3320 C3329 1.429 . S
C3321 C3319 1.419 . S
C3321 C3322 1.363 . S
C3321 H3324 0.929 . S
C3322 C3321 1.363 . S
C3322 C3328 1.428 . S
H3323 C3319 0.930 . S
H3324 C3321 0.929 . S
S3325 N3326 1.613 . S
S3325 N3327 1.610 . S
N3326 S3325 1.613 . S
N3326 C3329 1.350 . S
N3327 S3325 1.610 . S
N3327 C3328 1.351 . S
C3328 C3322 1.428 . S
C3328 N3327 1.351 . S
C3328 C3329 1.434 . S
C3329 C3320 1.429 . S
C3329 N3326 1.350 . S
C3329 C3328 1.434 . S
C3330 C3331 1.369 . S
C3330 C3332 1.419 . S
C3330 H3334 0.930 . S
C3331 C3330 1.369 . S
C3331 C3340 1.429 . S
C3332 C3330 1.419 . S
C3332 C3333 1.363 . S
C3332 H3335 0.929 . S
C3333 C3332 1.363 . S
C3333 C3339 1.428 . S
H3334 C3330 0.930 . S
H3335 C3332 0.929 . S
S3336 N3337 1.613 . S
S3336 N3338 1.610 . S
N3337 S3336 1.613 . S
N3337 C3340 1.350 . S
N3338 S3336 1.610 . S
N3338 C3339 1.351 . S
C3339 C3333 1.428 . S
C3339 N3338 1.351 . S
C3339 C3340 1.434 . S
C3340 C3331 1.429 . S
C3340 N3337 1.350 . S
C3340 C3339 1.434 . S
C3341 C3342 1.369 . S
C3341 C3343 1.419 . S
C3341 H3345 0.930 . S
C3342 C3341 1.369 . S
C3342 C3351 1.429 . S
C3343 C3341 1.419 . S
C3343 C3344 1.363 . S
C3343 H3346 0.929 . S
C3344 C3343 1.363 . S
C3344 C3350 1.428 . S
H3345 C3341 0.930 . S
H3346 C3343 0.929 . S
S3347 N3348 1.613 . S
S3347 N3349 1.610 . S
N3348 S3347 1.613 . S
N3348 C3351 1.350 . S
N3349 S3347 1.610 . S
N3349 C3350 1.351 . S
C3350 C3344 1.428 . S
C3350 N3349 1.351 . S
C3350 C3351 1.434 . S
C3351 C3342 1.429 . S
C3351 N3348 1.350 . S
C3351 C3350 1.434 . S
C3352 C3353 1.369 . S
C3352 C3354 1.419 . S
C3352 H3356 0.930 . S
C3353 C3352 1.369 . S
C3353 C3362 1.429 . S
C3354 C3352 1.419 . S
C3354 C3355 1.363 . S
C3354 H3357 0.929 . S
C3355 C3354 1.363 . S
C3355 C3361 1.428 . S
H3356 C3352 0.930 . S
H3357 C3354 0.929 . S
S3358 N3359 1.613 . S
S3358 N3360 1.610 . S
N3359 S3358 1.613 . S
N3359 C3362 1.350 . S
N3360 S3358 1.610 . S
N3360 C3361 1.351 . S
C3361 C3355 1.428 . S
C3361 N3360 1.351 . S
C3361 C3362 1.434 . S
C3362 C3353 1.429 . S
C3362 N3359 1.350 . S
C3362 C3361 1.434 . S
C3363 C3364 1.369 . S
C3363 C3365 1.419 . S
C3363 H3367 0.930 . S
C3364 C3363 1.369 . S
C3364 C3373 1.429 . S
C3365 C3363 1.419 . S
C3365 C3366 1.363 . S
C3365 H3368 0.929 . S
C3366 C3365 1.363 . S
C3366 C3372 1.428 . S
H3367 C3363 0.930 . S
H3368 C3365 0.929 . S
S3369 N3370 1.613 . S
S3369 N3371 1.610 . S
N3370 S3369 1.613 . S
N3370 C3373 1.350 . S
N3371 S3369 1.610 . S
N3371 C3372 1.351 . S
C3372 C3366 1.428 . S
C3372 N3371 1.351 . S
C3372 C3373 1.434 . S
C3373 C3364 1.429 . S
C3373 N3370 1.350 . S
C3373 C3372 1.434 . S
C3374 C3375 1.369 . S
C3374 C3376 1.419 . S
C3374 H3378 0.930 . S
C3375 C3374 1.369 . S
C3375 C3384 1.429 . S
C3376 C3374 1.419 . S
C3376 C3377 1.363 . S
C3376 H3379 0.929 . S
C3377 C3376 1.363 . S
C3377 C3383 1.428 . S
H3378 C3374 0.930 . S
H3379 C3376 0.929 . S
S3380 N3381 1.613 . S
S3380 N3382 1.610 . S
N3381 S3380 1.613 . S
N3381 C3384 1.350 . S
N3382 S3380 1.610 . S
N3382 C3383 1.351 . S
C3383 C3377 1.428 . S
C3383 N3382 1.351 . S
C3383 C3384 1.434 . S
C3384 C3375 1.429 . S
C3384 N3381 1.350 . S
C3384 C3383 1.434 . S
C3385 C3386 1.369 . S
C3385 C3387 1.419 . S
C3385 H3389 0.930 . S
C3386 C3385 1.369 . S
C3386 C3395 1.429 . S
C3387 C3385 1.419 . S
C3387 C3388 1.363 . S
C3387 H3390 0.929 . S
C3388 C3387 1.363 . S
C3388 C3394 1.428 . S
H3389 C3385 0.930 . S
H3390 C3387 0.929 . S
S3391 N3392 1.613 . S
S3391 N3393 1.610 . S
N3392 S3391 1.613 . S
N3392 C3395 1.350 . S
N3393 S3391 1.610 . S
N3393 C3394 1.351 . S
C3394 C3388 1.428 . S
C3394 N3393 1.351 . S
C3394 C3395 1.434 . S
C3395 C3386 1.429 . S
C3395 N3392 1.350 . S
C3395 C3394 1.434 . S
C3396 C3397 1.369 . S
C3396 C3398 1.419 . S
C3396 H3400 0.930 . S
C3397 C3396 1.369 . S
C3397 C3406 1.429 . S
C3398 C3396 1.419 . S
C3398 C3399 1.363 . S
C3398 H3401 0.929 . S
C3399 C3398 1.363 . S
C3399 C3405 1.428 . S
H3400 C3396 0.930 . S
H3401 C3398 0.929 . S
S3402 N3403 1.613 . S
S3402 N3404 1.610 . S
N3403 S3402 1.613 . S
N3403 C3406 1.350 . S
N3404 S3402 1.610 . S
N3404 C3405 1.351 . S
C3405 C3399 1.428 . S
C3405 N3404 1.351 . S
C3405 C3406 1.434 . S
C3406 C3397 1.429 . S
C3406 N3403 1.350 . S
C3406 C3405 1.434 . S
C3407 C3408 1.369 . S
C3407 C3409 1.419 . S
C3407 H3411 0.930 . S
C3408 C3407 1.369 . S
C3408 C3417 1.429 . S
C3409 C3407 1.419 . S
C3409 C3410 1.363 . S
C3409 H3412 0.929 . S
C3410 C3409 1.363 . S
C3410 C3416 1.428 . S
H3411 C3407 0.930 . S
H3412 C3409 0.929 . S
S3413 N3414 1.613 . S
S3413 N3415 1.610 . S
N3414 S3413 1.613 . S
N3414 C3417 1.350 . S
N3415 S3413 1.610 . S
N3415 C3416 1.351 . S
C3416 C3410 1.428 . S
C3416 N3415 1.351 . S
C3416 C3417 1.434 . S
C3417 C3408 1.429 . S
C3417 N3414 1.350 . S
C3417 C3416 1.434 . S
C3418 C3419 1.369 . S
C3418 C3420 1.419 . S
C3418 H3422 0.930 . S
C3419 C3418 1.369 . S
C3419 C3428 1.429 . S
C3420 C3418 1.419 . S
C3420 C3421 1.363 . S
C3420 H3423 0.929 . S
C3421 C3420 1.363 . S
C3421 C3427 1.428 . S
H3422 C3418 0.930 . S
H3423 C3420 0.929 . S
S3424 N3425 1.613 . S
S3424 N3426 1.610 . S
N3425 S3424 1.613 . S
N3425 C3428 1.350 . S
N3426 S3424 1.610 . S
N3426 C3427 1.351 . S
C3427 C3421 1.428 . S
C3427 N3426 1.351 . S
C3427 C3428 1.434 . S
C3428 C3419 1.429 . S
C3428 N3425 1.350 . S
C3428 C3427 1.434 . S
C3429 C3430 1.369 . S
C3429 C3431 1.419 . S
C3429 H3433 0.930 . S
C3430 C3429 1.369 . S
C3430 C3439 1.429 . S
C3431 C3429 1.419 . S
C3431 C3432 1.363 . S
C3431 H3434 0.929 . S
C3432 C3431 1.363 . S
C3432 C3438 1.428 . S
H3433 C3429 0.930 . S
H3434 C3431 0.929 . S
S3435 N3436 1.613 . S
S3435 N3437 1.610 . S
N3436 S3435 1.613 . S
N3436 C3439 1.350 . S
N3437 S3435 1.610 . S
N3437 C3438 1.351 . S
C3438 C3432 1.428 . S
C3438 N3437 1.351 . S
C3438 C3439 1.434 . S
C3439 C3430 1.429 . S
C3439 N3436 1.350 . S
C3439 C3438 1.434 . S
C2387 C1281 1.544 . S
C2385 C21 1.539 . S
C2398 C1348 1.442 . S
C2396 C42 1.428 . S
C2407 C82 1.519 . S
C2409 C1373 1.527 . S
C2420 C1433 1.494 . S
C2418 C135 1.495 . S
C2429 C175 1.432 . S
C2431 C1426 1.431 . S
C2440 C221 1.536 . S
C2442 C1302 1.539 . S
C2451 C255 1.485 . S
C2453 C1327 1.485 . S
C2464 C1394 1.557 . S
C2462 C301 1.540 . S
C2475 C1486 1.517 . S
C2473 C15 1.517 . S
C2484 C55 1.441 . S
C2486 C1525 1.441 . S
C2495 C101 1.541 . S
C2497 C1578 1.548 . S
C2508 C1603 1.503 . S
C2506 C141 1.490 . S
C2517 C162 1.448 . S
C2519 C1663 1.459 . S
C2530 C1716 1.515 . S
C2528 C215 1.516 . S
C2539 C261 1.487 . S
C2541 C1755 1.505 . S
C2552 C1794 1.523 . S
C2550 C282 1.502 . S
C2561 C2 1.516 . S
C2563 C1624 1.530 . S
C2572 C181 1.433 . S
C2574 C1695 1.445 . S
C2585 C1748 1.541 . S
C2583 C202 1.534 . S
C2594 C242 1.489 . S
C2596 C1801 1.508 . S
C2607 C1656 1.512 . S
C2605 C295 1.512 . S
C2618 C1518 1.520 . S
C2616 C95 1.520 . S
C2627 C122 1.484 . S
C2629 C1557 1.500 . S
C2640 C1465 1.454 . S
C2638 C61 1.443 . S
C2651 C1833 1.544 . S
C2649 C341 1.539 . S
C2660 C362 1.427 . S
C2662 C1879 1.440 . S
C2671 C402 1.517 . S
C2673 C1946 1.527 . S
C2684 C1992 1.494 . S
C2682 C455 1.496 . S
C2693 C495 1.433 . S
C2695 C1971 1.430 . S
C2704 C541 1.533 . S
C2706 C1854 1.540 . S
C2715 C575 1.486 . S
C2717 C1900 1.484 . S
C2726 C621 1.537 . S
C2728 C1925 1.556 . S
C2739 C1670 1.517 . S
C2737 C335 1.517 . S
C2748 C375 1.441 . S
C2750 C2031 1.440 . S
C2761 C1762 1.548 . S
C2759 C421 1.541 . S
C2770 C461 1.485 . S
C2772 C2063 1.502 . S
C2781 C482 1.450 . S
C2783 C1479 1.459 . S
C2794 C2130 1.516 . S
C2792 C535 1.516 . S
C2803 C581 1.490 . S
C2805 C1571 1.506 . S
C2816 C2162 1.522 . S
C2814 C602 1.500 . S
C2825 C322 1.519 . S
C2827 C2084 1.530 . S
C2838 C2109 1.444 . S
C2836 C501 1.438 . S
C2847 C522 1.532 . S
C2849 C1564 1.541 . S
C2860 C2169 1.508 . S
C2858 C562 1.492 . S
C2869 C615 1.511 . S
C2871 C1472 1.512 . S
C2880 C415 1.521 . S
C2882 C2024 1.521 . S
C2891 C442 1.479 . S
C2893 C1741 1.499 . S
C2902 C381 1.442 . S
C2904 C1649 1.454 . S
C2913 C661 1.539 . S
C2915 C1939 1.544 . S
C2926 C1985 1.442 . S
C2924 C682 1.431 . S
C2935 C722 1.520 . S
C2937 C1840 1.527 . S
C2946 C775 1.495 . S
C2948 C1886 1.496 . S
C2957 C815 1.433 . S
C2959 C1893 1.432 . S
C2968 C861 1.533 . S
C2970 C1932 1.541 . S
C2981 C1978 1.486 . S
C2979 C895 1.486 . S
C2990 C941 1.539 . S
C2992 C1847 1.557 . S
C3003 C2201 1.517 . S
C3001 C655 1.518 . S
C3012 C695 1.441 . S
C3014 C1709 1.440 . S
C3025 C2247 1.549 . S
C3023 C741 1.541 . S
C3034 C781 1.486 . S
C3036 C1787 1.502 . S
C3045 C802 1.451 . S
C3047 C2314 1.459 . S
C3056 C855 1.516 . S
C3058 C1532 1.516 . S
C3069 C2346 1.506 . S
C3067 C901 1.488 . S
C3078 C922 1.505 . S
C3080 C1610 1.523 . S
C3091 C1808 1.530 . S
C3089 C642 1.516 . S
C3102 C1511 1.444 . S
C3100 C821 1.437 . S
C3111 C842 1.531 . S
C3113 C2353 1.541 . S
C3122 C882 1.488 . S
C3124 C1617 1.508 . S
C3135 C2293 1.512 . S
C3133 C935 1.511 . S
C3146 C1702 1.520 . S
C3144 C735 1.520 . S
C3157 C2268 1.499 . S
C3155 C762 1.480 . S
C3168 C2222 1.453 . S
C3166 C701 1.444 . S
C3177 C981 1.539 . S
C3179 C1380 1.544 . S
C3188 C1002 1.427 . S
C3190 C1440 1.442 . S
C3201 C1288 1.528 . S
C3199 C1042 1.518 . S
C3212 C1341 1.494 . S
C3210 C1095 1.495 . S
C3223 C1334 1.429 . S
C3221 C1135 1.433 . S
C3234 C1387 1.540 . S
C3232 C1181 1.534 . S
C3245 C1419 1.486 . S
C3243 C1215 1.485 . S
C3254 C1261 1.540 . S
C3256 C1295 1.557 . S
C3265 C975 1.518 . S
C3267 C2307 1.518 . S
C3278 C2123 1.441 . S
C3276 C1015 1.441 . S
C3289 C2339 1.549 . S
C3287 C1061 1.544 . S
C3300 C2155 1.503 . S
C3298 C1101 1.487 . S
C3309 C1122 1.449 . S
C3311 C2208 1.461 . S
C3322 C2038 1.516 . S
C3320 C1175 1.516 . S
C3333 C2254 1.505 . S
C3331 C1221 1.490 . S
C3342 C1242 1.506 . S
C3344 C2070 1.523 . S
C3355 C2176 1.530 . S
C3353 C962 1.517 . S
C3366 C2017 1.444 . S
C3364 C1141 1.435 . S
C3377 C2261 1.541 . S
C3375 C1162 1.534 . S
C3386 C1202 1.488 . S
C3388 C2077 1.508 . S
C3397 C1255 1.512 . S
C3399 C2215 1.513 . S
C3408 C1055 1.521 . S
C3410 C2116 1.521 . S
C3419 C1082 1.485 . S
C3421 C2360 1.499 . S
C3432 C2300 1.454 . S
C3430 C1021 1.441 . S
