# Generated by pormake.
# Topology pyr, (3,6)-cn, num edge types: 1
# Building blocks:
#     Node 0, Type 0, BuildingBlock: CUQRIR_clean_linker_1, # of connection points: 3
#     Node 1, Type 0, BuildingBlock: CUQRIR_clean_linker_1, # of connection points: 3
#     Node 2, Type 0, BuildingBlock: CUQRIR_clean_linker_1, # of connection points: 3
#     Node 3, Type 0, BuildingBlock: CUQRIR_clean_linker_1, # of connection points: 3
#     Node 4, Type 0, BuildingBlock: CUQRIR_clean_linker_1, # of connection points: 3
#     Node 5, Type 0, BuildingBlock: CUQRIR_clean_linker_1, # of connection points: 3
#     Node 6, Type 0, BuildingBlock: CUQRIR_clean_linker_1, # of connection points: 3
#     Node 7, Type 0, BuildingBlock: CUQRIR_clean_linker_1, # of connection points: 3
#     Node 8, Type 1, BuildingBlock: INOVEN_clean_sbu_0, # of connection points: 6
#     Node 9, Type 1, BuildingBlock: INOVEN_clean_sbu_0, # of connection points: 6
#     Node 10, Type 1, BuildingBlock: INOVEN_clean_sbu_0, # of connection points: 6
#     Node 11, Type 1, BuildingBlock: INOVEN_clean_sbu_0, # of connection points: 6
#     Edge 12, Type (0, 1), BuildingBlock: AJUNOK_clean_linker_0, # of connection points: 2
#     Edge 13, Type (0, 1), BuildingBlock: AJUNOK_clean_linker_0, # of connection points: 2
#     Edge 14, Type (0, 1), BuildingBlock: AJUNOK_clean_linker_0, # of connection points: 2
#     Edge 15, Type (0, 1), BuildingBlock: AJUNOK_clean_linker_0, # of connection points: 2
#     Edge 16, Type (0, 1), BuildingBlock: AJUNOK_clean_linker_0, # of connection points: 2
#     Edge 17, Type (0, 1), BuildingBlock: AJUNOK_clean_linker_0, # of connection points: 2
#     Edge 18, Type (0, 1), BuildingBlock: AJUNOK_clean_linker_0, # of connection points: 2
#     Edge 19, Type (0, 1), BuildingBlock: AJUNOK_clean_linker_0, # of connection points: 2
#     Edge 20, Type (0, 1), BuildingBlock: AJUNOK_clean_linker_0, # of connection points: 2
#     Edge 21, Type (0, 1), BuildingBlock: AJUNOK_clean_linker_0, # of connection points: 2
#     Edge 22, Type (0, 1), BuildingBlock: AJUNOK_clean_linker_0, # of connection points: 2
#     Edge 23, Type (0, 1), BuildingBlock: AJUNOK_clean_linker_0, # of connection points: 2
#     Edge 24, Type (0, 1), BuildingBlock: AJUNOK_clean_linker_0, # of connection points: 2
#     Edge 25, Type (0, 1), BuildingBlock: AJUNOK_clean_linker_0, # of connection points: 2
#     Edge 26, Type (0, 1), BuildingBlock: AJUNOK_clean_linker_0, # of connection points: 2
#     Edge 27, Type (0, 1), BuildingBlock: AJUNOK_clean_linker_0, # of connection points: 2
#     Edge 28, Type (0, 1), BuildingBlock: AJUNOK_clean_linker_0, # of connection points: 2
#     Edge 29, Type (0, 1), BuildingBlock: AJUNOK_clean_linker_0, # of connection points: 2
#     Edge 30, Type (0, 1), BuildingBlock: AJUNOK_clean_linker_0, # of connection points: 2
#     Edge 31, Type (0, 1), BuildingBlock: AJUNOK_clean_linker_0, # of connection points: 2
#     Edge 32, Type (0, 1), BuildingBlock: AJUNOK_clean_linker_0, # of connection points: 2
#     Edge 33, Type (0, 1), BuildingBlock: AJUNOK_clean_linker_0, # of connection points: 2
#     Edge 34, Type (0, 1), BuildingBlock: AJUNOK_clean_linker_0, # of connection points: 2
#     Edge 35, Type (0, 1), BuildingBlock: AJUNOK_clean_linker_0, # of connection points: 2
# Relax obj value: 0.291
# Max RMSD: 0.272
# Mean RMSD: 0.176
data_MOF--net-pyr--node1-INOVEN_clean_sbu_0--node2-CUQRIR_clean_linker_1--edge1-AJUNOK_clean_linker_0
_symmetry_space_group_name_H-M    P1
_symmetry_Int_Tables_number       1
_symmetry_cell_setting            triclinic
loop_
_symmetry_equiv_pos_as_xyz
'x, y, z'
_cell_length_a     25.412696
_cell_length_b     26.007081
_cell_length_c     23.580791
_cell_angle_alpha  89.507922
_cell_angle_beta   89.359692
_cell_angle_gamma 107.92235
loop_
_atom_site_label
_atom_site_type_symbol
_atom_site_fract_x
_atom_site_fract_y
_atom_site_fract_z
_atom_type_partial_charge
C0 C 0.41481 0.46048 0.27352 0.0
N1 N 0.44263 0.42449 0.28341 0.0
N2 N 0.41273 0.47076 0.21735 0.0
C3 C 0.37875 0.47594 0.31743 0.0
C4 C 0.44367 0.44219 0.19369 0.0
N5 N 0.4611 0.41316 0.23347 0.0
C6 C 0.45453 0.44162 0.13095 0.0
H7 H 0.34242 0.44036 0.32772 0.0
H8 H 0.36396 0.50947 0.30238 0.0
H9 H 0.40213 0.48893 0.35691 0.0
H10 H 0.46736 0.48371 0.11413 0.0
H11 H 0.41581 0.41952 0.10917 0.0
H12 H 0.48721 0.42275 0.1212 0.0
C13 C 0.24087 0.93897 0.62607 0.0
N14 N 0.22739 0.95684 0.67607 0.0
N15 N 0.27189 0.90593 0.63428 0.0
C16 C 0.23181 0.96088 0.56888 0.0
C17 C 0.27295 0.90142 0.69162 0.0
N18 N 0.24823 0.93439 0.71726 0.0
C19 C 0.30485 0.86981 0.72238 0.0
H20 H 0.18685 0.95289 0.56233 0.0
H21 H 0.24876 0.9419 0.5341 0.0
H22 H 0.25157 1.00534 0.56727 0.0
H23 H 0.34984 0.89007 0.7166 0.0
H24 H 0.2954 0.8289 0.70398 0.0
H25 H 0.29441 0.86591 0.76836 0.0
C26 C 0.63927 0.45528 0.91568 0.0
N27 N 0.67117 0.45016 0.96048 0.0
N28 N 0.65989 0.50408 0.88872 0.0
C29 C 0.58626 0.41309 0.90022 0.0
C30 C 0.70608 0.5284 0.91882 0.0
N31 N 0.71274 0.49678 0.9632 0.0
C32 C 0.74754 0.58147 0.90124 0.0
H33 H 0.59517 0.37521 0.88906 0.0
H34 H 0.56555 0.42619 0.86426 0.0
H35 H 0.55768 0.40398 0.93745 0.0
H36 H 0.73673 0.61525 0.92149 0.0
H37 H 0.74713 0.58741 0.8546 0.0
H38 H 0.78989 0.5832 0.91418 0.0
C39 C 0.85256 0.77198 0.41138 0.0
N40 N 0.90272 0.80849 0.39718 0.0
N41 N 0.82407 0.79222 0.44952 0.0
C42 C 0.83241 0.7149 0.39009 0.0
C43 C 0.85788 0.843 0.45778 0.0
N44 N 0.90611 0.85388 0.42703 0.0
C45 C 0.8443 0.88171 0.49855 0.0
H46 H 0.84039 0.71413 0.34379 0.0
H47 H 0.78762 0.69594 0.39879 0.0
H48 H 0.85538 0.69048 0.41161 0.0
H49 H 0.86579 0.88111 0.53914 0.0
H50 H 0.79919 0.87028 0.50748 0.0
H51 H 0.85845 0.92356 0.48124 0.0
C52 C 0.65147 0.89051 0.9525 0.0
N53 N 0.6763 0.86753 0.91378 0.0
N54 N 0.61388 0.91017 0.92738 0.0
C55 C 0.67046 0.9015 1.013 0.0
C56 C 0.61724 0.89834 0.87193 0.0
N57 N 0.65603 0.87315 0.8631 0.0
C58 C 0.58369 0.91298 0.82609 0.0
H59 H 0.64191 0.87105 1.04142 0.0
H60 H 0.67016 0.94223 1.02625 0.0
H61 H 0.71262 0.89862 1.0192 0.0
H62 H 0.60079 0.95649 0.81499 0.0
H63 H 0.54046 0.90551 0.84131 0.0
H64 H 0.5845 0.88915 0.78755 0.0
C65 C 0.8926 0.39456 0.58372 0.0
N66 N 0.90925 0.3605 0.54978 0.0
N67 N 0.86814 0.42497 0.55314 0.0
C68 C 0.89879 0.39815 0.64699 0.0
C69 C 0.87318 0.40995 0.49902 0.0
N70 N 0.89735 0.37045 0.49699 0.0
C71 C 0.84296 0.42484 0.4499 0.0
H72 H 0.85818 0.37893 0.66811 0.0
H73 H 0.91234 0.44127 0.6594 0.0
H74 H 0.92922 0.37845 0.66193 0.0
H75 H 0.86266 0.42033 0.40883 0.0
H76 H 0.84233 0.46712 0.45344 0.0
H77 H 0.79962 0.39772 0.45032 0.0
C78 C 0.36044 0.78512 0.31952 0.0
N79 N 0.40959 0.82144 0.33461 0.0
N80 N 0.32264 0.80961 0.30488 0.0
C81 C 0.34706 0.72451 0.32405 0.0
C82 C 0.3498 0.86252 0.31296 0.0
N83 N 0.40415 0.87109 0.32622 0.0
C84 C 0.32486 0.90716 0.30063 0.0
H85 H 0.37307 0.71082 0.29323 0.0
H86 H 0.30289 0.70346 0.31546 0.0
H87 H 0.35617 0.71249 0.36719 0.0
H88 H 0.29134 0.90482 0.33189 0.0
H89 H 0.30641 0.90214 0.2578 0.0
H90 H 0.35542 0.94792 0.30408 0.0
C91 C 0.14697 0.46624 0.84121 0.0
N92 N 0.17815 0.45836 0.79598 0.0
N93 N 0.1653 0.51803 0.86106 0.0
C94 C 0.09781 0.4233 0.86591 0.0
C95 C 0.20877 0.5415 0.82503 0.0
N96 N 0.21738 0.50595 0.78626 0.0
C97 C 0.24004 0.60099 0.82364 0.0
H98 H 0.05999 0.42554 0.84432 0.0
H99 H 0.09319 0.42973 0.91191 0.0
H100 H 0.10109 0.38225 0.85967 0.0
H101 H 0.28009 0.6079 0.84534 0.0
H102 H 0.21624 0.62494 0.84466 0.0
H103 H 0.24931 0.61553 0.77915 0.0
Gd104 Gd 0.08978 0.18054 0.5594 0.0
Gd105 Gd 1.03691 0.12164 0.66148 0.0
C106 C 0.10222 0.248 0.67769 0.0
C107 C 0.14242 0.25233 0.48637 0.0
C108 C 0.20229 0.27925 0.48314 0.0
C109 C 0.23932 0.25147 0.49958 0.0
C110 C 0.223 0.33294 0.46434 0.0
C111 C 0.31623 0.326 0.46521 0.0
C112 C 0.27986 0.35643 0.45588 0.0
C113 C 0.29603 0.27469 0.49055 0.0
C114 C 0.15364 0.13109 0.61638 0.0
C115 C 1.01902 1.05789 0.5363 0.0
C116 C 0.99833 1.04713 0.73732 0.0
C117 C 0.94983 0.99912 0.73225 0.0
C118 C 0.91516 0.99501 0.68542 0.0
C119 C 0.93496 0.95997 0.77553 0.0
C120 C 0.84554 0.92075 0.73152 0.0
C121 C 0.8831 0.92051 0.77487 0.0
C122 C 0.86341 0.95593 0.68494 0.0
C123 C 0.97451 0.17576 0.61315 0.0
O124 O 0.09562 0.24902 0.62211 0.0
O125 O 0.08979 0.20006 0.70411 0.0
O126 O 0.12604 0.20069 0.47543 0.0
O127 O 0.11781 0.26422 0.53079 0.0
O128 O 0.14955 0.13194 0.56212 0.0
O129 O 0.12376 0.15619 0.63786 0.0
O130 O 1.01867 1.05517 0.59272 0.0
O131 O 1.03703 0.10632 0.51136 0.0
O132 O 0.98729 1.09304 0.73735 0.0
O133 O 1.03993 1.04834 0.70398 0.0
O134 O 0.97559 0.16671 0.66702 0.0
O135 O 1.00242 0.15122 0.5857 0.0
H136 H 0.22435 0.21053 0.5159 0.0
H137 H 0.19514 0.35551 0.45309 0.0
H138 H 0.2946 0.39586 0.43545 0.0
H139 H 0.32322 0.25029 0.49715 0.0
H140 H 0.9261 1.02478 0.6514 0.0
H141 H 0.96156 0.96216 0.8116 0.0
H142 H 0.87013 0.89381 0.81133 0.0
H143 H 0.83512 0.957 0.65123 0.0
Gd144 Gd 0.60205 0.15889 0.15323 0.0
Gd145 Gd 0.49492 0.14496 0.10943 0.0
C146 C 0.526 0.21942 0.21191 0.0
C147 C 0.70722 0.18078 0.1707 0.0
C148 C 0.74835 0.20191 0.21505 0.0
C149 C 0.76182 0.16675 0.25386 0.0
C150 C 0.77496 0.25776 0.21859 0.0
C151 C 0.82123 0.24355 0.30385 0.0
C152 C 0.8109 0.27839 0.26273 0.0
C153 C 0.798 0.18747 0.29805 0.0
C154 C 0.52426 1.07739 0.21205 0.0
C155 C 0.56522 1.08026 1.04666 0.0
C156 C 0.39474 0.11921 1.0718 0.0
C157 C 0.35936 1.07888 1.0342 0.0
C158 C 0.31516 1.09049 1.00763 0.0
C159 C 0.37498 1.03417 1.01686 0.0
C160 C 0.3085 1.01862 0.94057 0.0
C161 C 0.34957 1.00412 0.97034 0.0
C162 C 0.28965 1.06036 0.96114 0.0
C163 C 0.56921 0.24379 0.07773 0.0
O164 O 0.57777 0.22596 0.19671 0.0
O165 O 0.48829 0.17492 0.19673 0.0
O166 O 0.67162 0.13296 0.17915 0.0
O167 O 0.6847 0.2149 0.1483 0.0
O168 O 0.56397 0.11521 0.23514 0.0
O169 O 0.52614 1.08624 0.15864 0.0
O170 O 0.51627 1.08686 1.0512 0.0
O171 O 0.60623 0.1061 0.0793 0.0
O172 O 0.4373 0.15322 1.04631 0.0
O173 O 0.40705 0.10257 0.12097 0.0
O174 O 0.51905 0.23566 0.09499 0.0
O175 O 0.57849 0.19834 0.07748 0.0
H176 H 0.74318 0.12339 0.25114 0.0
H177 H 0.7666 0.28581 0.1884 0.0
H178 H 0.82811 0.32184 0.26651 0.0
H179 H 0.80604 0.1599 0.32902 0.0
H180 H 0.30295 0.12518 1.0203 0.0
H181 H 0.4091 1.02467 1.03683 0.0
H182 H 0.36444 0.97176 0.95531 0.0
H183 H 0.25828 1.07237 0.93866 0.0
Gd184 Gd 0.51017 0.60607 0.57941 0.0
Gd185 Gd 0.52991 0.69459 0.64659 0.0
C186 C 0.5651 0.60256 0.70444 0.0
C187 C 0.52344 0.52419 0.5268 0.0
C188 C 0.56868 0.50014 0.53388 0.0
C189 C 0.5739 0.47338 0.58467 0.0
C190 C 0.61182 0.51144 0.4934 0.0
C191 C 0.66673 0.47519 0.55681 0.0
C192 C 0.66049 0.49938 0.50491 0.0
C193 C 0.62255 0.46107 0.59603 0.0
C194 C 0.41549 0.59846 0.64108 0.0
C195 C 0.48404 0.70654 0.51851 0.0
C196 C 0.53106 0.7808 0.70027 0.0
C197 C 0.52792 0.83183 0.67676 0.0
C198 C 0.53861 0.84271 0.61849 0.0
C199 C 0.49982 0.86104 0.70764 0.0
C200 C 0.47823 0.89833 0.6198 0.0
C201 C 0.47645 0.89561 0.67936 0.0
C202 C 0.5129 0.87529 0.58978 0.0
C203 C 0.62319 0.69671 0.58582 0.0
O204 O 0.56509 0.58793 0.65056 0.0
O205 O 0.54343 0.64101 0.71631 0.0
O206 O 0.48896 0.51908 0.56939 0.0
O207 O 0.53858 0.57296 0.5053 0.0
O208 O 0.41749 0.59015 0.58696 0.0
O209 O 0.46477 0.61408 0.65968 0.0
O210 O 0.48994 0.72503 0.57102 0.0
O211 O 0.49167 0.65922 0.50907 0.0
O212 O 0.57592 0.76869 0.68797 0.0
O213 O 0.48608 0.7403 0.69317 0.0
O214 O 0.62183 0.70568 0.63959 0.0
O215 O 0.57451 0.68509 0.5672 0.0
H216 H 0.54149 0.46407 0.61685 0.0
H217 H 0.60892 0.53188 0.45387 0.0
H218 H 0.69361 0.50957 0.47346 0.0
H219 H 0.62635 0.44219 0.63626 0.0
H220 H 0.5608 0.82075 0.59404 0.0
H221 H 0.49033 0.85243 0.75228 0.0
H222 H 0.44974 0.91326 0.70316 0.0
H223 H 0.51475 0.87718 0.54387 0.0
Gd224 Gd 1.02078 0.61268 0.16419 0.0
Gd225 Gd 1.02846 0.69905 0.08723 0.0
C226 C 0.12738 0.71516 0.16944 0.0
C227 C 0.04776 0.53241 0.20683 0.0
C228 C 0.09792 0.51667 0.1961 0.0
C229 C 0.11177 0.48009 0.23242 0.0
C230 C 0.13541 0.54286 0.15292 0.0
C231 C 0.20102 0.49775 0.18378 0.0
C232 C 0.1866 0.53372 0.147 0.0
C233 C 0.16287 0.47057 0.22622 0.0
C234 C 0.98379 0.68464 0.22893 0.0
C235 C 0.91221 0.59764 0.09215 0.0
C236 C 1.01636 0.77461 1.0211 0.0
C237 C 0.96853 0.79116 1.00479 0.0
C238 C 0.96924 0.81828 0.95308 0.0
C239 C 0.92066 0.777 1.03908 0.0
C240 C 0.87446 0.8174 0.97017 0.0
C241 C 0.87406 0.79022 1.02201 0.0
C242 C 0.92241 0.83123 0.93574 0.0
C243 C 0.08335 0.63064 1.04501 0.0
O244 O 0.1111 0.66228 0.1667 0.0
O245 O 0.09664 0.74193 0.14663 0.0
O246 O 0.0568 0.57865 0.23207 0.0
O247 O 1.01367 0.52714 0.16461 0.0
O248 O 0.98287 0.63638 0.24415 0.0
O249 O 1.00009 0.69178 0.17714 0.0
O250 O 0.93718 0.6488 0.07722 0.0
O251 O 0.93713 0.57224 0.12615 0.0
O252 O 1.01581 0.72721 1.00326 0.0
O253 O 1.03125 0.78241 1.07389 0.0
O254 O 0.10351 0.68282 1.04643 0.0
O255 O 1.03612 0.61729 1.06969 0.0
H256 H 0.08384 0.46014 0.26654 0.0
H257 H 0.12573 0.5716 0.1248 0.0
H258 H 0.21526 0.55519 0.11418 0.0
H259 H 0.17337 0.44337 0.25591 0.0
H260 H 1.00566 0.82866 0.92578 0.0
H261 H 0.91917 0.75531 0.0788 0.0
H262 H 0.83772 0.77929 1.04943 0.0
H263 H 0.92338 0.85116 0.89504 0.0
C264 C 0.44287 0.40824 0.38628 0.0
C265 C 0.42866 0.38799 0.33146 0.0
C266 C 0.41005 0.38423 0.43357 0.0
C267 C 0.36472 0.33749 0.42724 0.0
H268 H 0.47447 0.44679 0.39131 0.0
H269 H 0.4168 0.405 0.47374 0.0
S270 S 0.31529 0.26428 0.29509 0.0
N271 N 0.36742 0.3171 0.2755 0.0
N272 N 0.31254 0.26727 0.36473 0.0
C273 C 0.35593 0.31231 0.37446 0.0
C274 C 0.38633 0.33871 0.32621 0.0
C275 C 0.22174 0.95242 0.81472 0.0
C276 C 0.26242 0.95722 0.77251 0.0
C277 C 0.23652 0.97217 0.8696 0.0
C278 C 0.29238 0.99672 0.88348 0.0
H279 H 0.17866 0.9327 0.80534 0.0
H280 H 0.20434 0.9677 0.90147 0.0
S281 S 0.41311 1.02498 0.78518 0.0
N282 N 0.35968 0.99277 0.74642 0.0
N283 N 0.38756 1.02897 0.84908 0.0
C284 C 0.33294 1.00316 0.84083 0.0
C285 C 0.31792 0.98364 0.78541 0.0
C286 C 0.6272 0.50566 0.78821 0.0
C287 C 0.63569 0.528 0.84307 0.0
C288 C 0.60511 0.52983 0.74371 0.0
C289 C 0.59011 0.57742 0.75175 0.0
H290 H 0.63811 0.46938 0.77955 0.0
H291 H 0.59943 0.51076 0.70274 0.0
S292 S 0.60499 0.65234 0.88768 0.0
N293 N 0.6273 0.60055 0.90253 0.0
N294 N 0.58712 0.64601 0.82038 0.0
C295 C 0.59888 0.60006 0.80664 0.0
C296 C 0.62128 0.5755 0.85163 0.0
C297 C 0.96487 0.75423 0.37057 0.0
C298 C 0.94067 0.79483 0.35594 0.0
C299 C 0.97978 0.72089 0.32952 0.0
C300 C 0.97247 0.726 0.27039 0.0
H301 H 0.96778 0.74481 0.41501 0.0
H302 H 0.99563 0.68923 0.34479 0.0
S303 S 0.91358 0.82729 0.20716 0.0
N304 N 0.91156 0.8382 0.27603 0.0
N305 N 0.9419 0.77835 0.19968 0.0
C306 C 0.95161 0.76859 0.25457 0.0
C307 C 0.93532 0.80194 0.29671 0.0
C308 C 0.52574 0.36094 0.25404 0.0
C309 C 0.48052 0.36706 0.22379 0.0
C310 C 0.54041 0.31293 0.25095 0.0
C311 C 0.50809 0.26821 0.22051 0.0
H312 H 0.54976 0.39358 0.28019 0.0
H313 H 0.57667 0.31048 0.27314 0.0
S314 S 0.38349 0.26308 0.13618 0.0
N315 N 0.40488 0.32501 0.16087 0.0
N316 N 0.42697 0.23313 0.16128 0.0
C317 C 0.46178 0.27369 0.1914 0.0
C318 C 0.44972 0.32362 0.191 0.0
C319 C 0.15136 0.99246 0.6626 0.0
C320 C 0.2054 1.00094 0.6809 0.0
C321 C 0.1346 1.03554 0.64341 0.0
C322 C 0.16968 1.08876 0.64579 0.0
H323 H 0.12425 0.95165 0.65679 0.0
H324 H 0.09522 1.02664 0.62331 0.0
S325 S 0.31474 0.13271 0.69288 0.0
N326 N 0.29455 1.06625 0.7004 0.0
N327 N 0.26034 0.1484 0.66981 0.0
C328 C 0.22261 1.09843 0.66794 0.0
C329 C 0.24089 1.05413 0.68497 0.0
C330 C 0.79721 0.49003 1.01334 0.0
C331 C 0.75534 0.5147 1.00654 0.0
C332 C 0.84631 0.51557 1.04373 0.0
C333 C 0.85657 0.56766 1.06726 0.0
H334 H 0.79344 0.45222 0.99241 0.0
H335 H 0.87793 0.49566 1.04595 0.0
S336 S 0.75766 0.64694 1.06691 0.0
N337 N 0.72527 0.59153 1.0322 0.0
N338 N 0.818 0.64055 0.08487 0.0
C339 C 0.81398 0.59146 1.06272 0.0
C340 C 0.76345 0.56474 1.03378 0.0
C341 C 0.72166 0.74854 0.45782 0.0
C342 C 0.77447 0.76388 0.48239 0.0
C343 C 0.67303 0.72528 0.49088 0.0
C344 C 0.67518 0.71683 0.55003 0.0
H345 H 0.71793 0.75574 0.41298 0.0
H346 H 0.63338 0.71521 0.47016 0.0
S347 S 0.80397 0.74716 0.63376 0.0
N348 N 0.82607 0.7664 0.56853 0.0
N349 N 0.73583 0.7238 0.63059 0.0
C350 C 0.72809 0.73089 0.5745 0.0
C351 C 0.77729 0.75414 0.54082 0.0
C352 C 0.35741 0.52972 0.18934 0.0
C353 C 0.36383 0.47804 0.19262 0.0
C354 C 0.30474 0.53605 0.18288 0.0
C355 C 0.25688 0.49079 0.18027 0.0
H356 H 0.39269 0.56508 0.19601 0.0
H357 H 0.30106 0.57645 0.18373 0.0
S358 S 0.25289 0.34718 0.1808 0.0
N359 N 0.31889 0.38135 0.18808 0.0
N360 N 0.22032 0.393 0.17558 0.0
C361 C 0.26347 0.43918 0.17959 0.0
C362 C 0.31687 0.43288 0.18569 0.0
C363 C 0.61667 0.39625 1.04119 0.0
C364 C 0.65784 0.40299 0.99878 0.0
C365 C 0.59069 0.34541 1.06766 0.0
C366 C 0.60425 0.29814 1.05333 0.0
H367 H 0.60203 0.43002 1.05156 0.0
H368 H 0.55797 0.34281 0.09846 0.0
S369 S 0.7103 0.29369 0.94558 0.0
N370 N 0.71128 0.35756 0.94417 0.0
N371 N 0.66397 0.26295 0.99457 0.0
C372 C 0.64708 0.30479 1.01267 0.0
C373 C 0.67319 0.35667 0.98525 0.0
C374 C 0.95569 0.95319 0.41667 0.0
C375 C 0.95292 0.90201 0.44051 0.0
C376 C 0.97913 1.00309 0.44585 0.0
C377 C 0.99955 1.00502 0.50185 0.0
H378 H 0.93518 0.95434 0.3769 0.0
H379 H 0.97791 1.0402 0.42556 0.0
S380 S 1.00506 0.88328 0.58321 0.0
N381 N 0.97701 0.85833 0.52263 0.0
N382 N 1.01769 0.94931 0.57787 0.0
C383 C 0.99939 0.95434 0.52488 0.0
C384 C 0.97751 0.90417 0.49428 0.0
C385 C 0.33025 0.85985 0.58846 0.0
C386 C 0.31979 0.90825 0.60061 0.0
C387 C 0.38455 0.85835 0.5852 0.0
C388 C 0.42954 0.9055 0.59235 0.0
H389 H 0.29681 0.82211 0.59082 0.0
H390 H 0.39059 0.81905 0.58704 0.0
S391 S 0.42305 1.0442 0.61024 0.0
N392 N 0.35783 1.00595 0.60849 0.0
N393 N 0.46032 1.00283 0.60108 0.0
C394 C 0.41948 0.95523 0.59493 0.0
C395 C 0.36419 0.95676 0.59881 0.0
C396 C 0.70922 0.92626 0.78389 0.0
C397 C 0.68735 0.8758 0.81116 0.0
C398 C 0.75716 0.93773 0.75066 0.0
C399 C 0.78579 0.89963 0.7448 0.0
H400 H 0.69375 0.95948 0.79404 0.0
H401 H 0.77556 0.979 0.73574 0.0
S402 S 0.73669 0.75692 0.7937 0.0
N403 N 0.68935 0.78321 0.81774 0.0
N404 N 0.78317 0.80627 0.75914 0.0
C405 C 0.76054 0.84689 0.76538 0.0
C406 C 0.71011 0.83456 0.79736 0.0
C407 C 0.91681 0.34189 0.40205 0.0
C408 C 0.88631 0.33106 0.45299 0.0
C409 C 0.89812 0.31012 0.35431 0.0
C410 C 0.84858 0.26674 0.35666 0.0
H411 H 0.95307 0.37709 0.39833 0.0
H412 H 0.92058 0.32149 0.3145 0.0
S413 S 0.7561 0.2213 0.48216 0.0
N414 N 0.80656 0.27357 0.50439 0.0
N415 N 0.77134 0.2132 0.41525 0.0
C416 C 0.82001 0.25356 0.40875 0.0
C417 C 0.83891 0.28604 0.45689 0.0
C418 C 0.43142 0.81224 0.43709 0.0
C419 C 0.44219 0.80543 0.37908 0.0
C420 C 0.44614 0.78131 0.48099 0.0
C421 C 0.47118 0.74071 0.47005 0.0
H422 H 0.40823 0.83936 0.44848 0.0
H423 H 0.43573 0.78756 0.52414 0.0
S424 S 0.51288 0.70928 0.32596 0.0
N425 N 0.48394 0.75713 0.31406 0.0
N426 N 0.50982 0.69894 0.39532 0.0
C427 C 0.48432 0.73512 0.4124 0.0
C428 C 0.47049 0.76738 0.36774 0.0
C429 C 0.08739 0.53771 0.91674 0.0
C430 C 0.14431 0.54281 0.90941 0.0
C431 C 0.06744 0.56371 0.96166 0.0
C432 C 0.10335 0.59741 1.00113 0.0
H433 H 0.05794 0.51445 0.88665 0.0
H434 H 1.02361 0.55896 0.96409 0.0
S435 S 0.2551 0.62132 1.00491 0.0
N436 N 0.23507 0.58064 0.95056 0.0
N437 N 0.19873 0.63223 1.03042 0.0
C438 C 0.15999 0.60217 0.99474 0.0
C439 C 0.18003 0.57438 0.9504 0.0
C440 C 0.61008 1.00376 0.92972 0.0
C441 C 0.59209 0.95028 0.951 0.0
C442 C 0.59943 1.04598 0.95971 0.0
C443 C 0.57147 1.03584 1.01218 0.0
H444 H 0.63541 1.01354 0.89159 0.0
H445 H 0.615 1.08688 0.94299 0.0
S446 S 0.52006 0.9039 0.08746 0.0
N447 N 0.54491 0.88978 1.02669 0.0
N448 N 0.52911 0.96958 0.08546 0.0
C449 C 0.55319 0.98271 1.03352 0.0
C450 C 0.56231 0.93973 1.00219 0.0
C451 C 0.96855 0.30215 0.53738 0.0
C452 C 0.92471 0.3136 0.56609 0.0
C453 C 0.98193 0.25473 0.54914 0.0
C454 C 0.95288 0.21819 0.59117 0.0
H455 H 0.99257 0.33022 0.50561 0.0
H456 H 1.01623 0.24763 0.52671 0.0
S457 S 0.82789 0.22374 0.67008 0.0
N458 N 0.84632 0.27946 0.63088 0.0
N459 N 0.87432 0.19276 0.65644 0.0
C460 C 0.90732 0.22776 0.6181 0.0
C461 C 0.89265 0.27503 0.60492 0.0
C462 C 0.27624 0.75941 0.2208 0.0
C463 C 0.27321 0.78687 0.27151 0.0
C464 C 0.22922 0.73709 0.18737 0.0
C465 C 0.17763 0.74292 0.20227 0.0
H466 H 0.3154 0.75495 0.2071 0.0
H467 H 0.23327 0.71519 0.14952 0.0
S468 S 0.14606 0.80734 0.3325 0.0
N469 N 0.21286 0.8147 0.33677 0.0
N470 N 0.12559 0.77599 0.27223 0.0
C471 C 0.17395 0.77036 0.25258 0.0
C472 C 0.22144 0.79166 0.28752 0.0
C473 C 0.31965 0.53402 0.76926 0.0
C474 C 0.26545 0.51891 0.74727 0.0
C475 C 0.36738 0.55953 0.73536 0.0
C476 C 0.36382 0.57159 0.67723 0.0
H477 H 0.32497 0.52786 0.81404 0.0
H478 H 0.40747 0.57036 0.75522 0.0
S479 S 0.23197 0.54276 0.59855 0.0
N480 N 0.21178 0.52038 0.66348 0.0
N481 N 0.30023 0.56593 0.59958 0.0
C482 C 0.30987 0.556 0.6545 0.0
C483 C 0.26128 0.5305 0.68932 0.0
C484 C 0.72394 0.80289 0.94289 0.0
C485 C 0.72642 0.85463 0.92355 0.0
C486 C 0.77229 0.79076 0.95647 0.0
C487 C 0.82443 0.83048 0.95218 0.0
H488 H 0.68431 0.77192 0.94766 0.0
H489 H 0.76882 0.75016 0.97087 0.0
S490 S 0.85109 0.97346 0.9073 0.0
N491 N 0.78347 0.94615 0.90214 0.0
N492 N 0.87482 0.92442 0.92943 0.0
C493 C 0.82705 0.88263 0.93309 0.0
C494 C 0.77783 0.89453 0.91856 0.0
C495 C 0.47999 0.96077 0.3256 0.0
C496 C 0.44499 0.91652 0.29605 0.0
C497 C 0.50621 1.01178 0.29834 0.0
C498 C 0.49672 1.02236 0.2407 0.0
H499 H 0.48529 0.9567 0.37072 0.0
H500 H 0.53271 1.0439 0.32342 0.0
S501 S 0.4026 0.92292 0.14611 0.0
N502 N 0.40348 0.88788 0.20454 0.0
N503 N 0.44423 0.98442 0.15771 0.0
C504 C 0.46108 0.97878 0.21123 0.0
C505 C 0.43798 0.92606 0.23744 0.0
C506 C 0.1368 0.40098 0.71249 0.0
C507 C 0.16688 0.40794 0.76337 0.0
C508 C 0.11708 0.34995 0.68544 0.0
C509 C 0.12433 0.30204 0.70862 0.0
H510 H 0.12661 0.43498 0.69431 0.0
H511 H 0.0943 0.34782 0.64652 0.0
S512 S 0.19971 0.29741 0.84185 0.0
N513 N 0.20313 0.36171 0.83552 0.0
N514 N 0.16498 0.26652 0.78653 0.0
C515 C 0.15424 0.30849 0.75969 0.0
C516 C 0.17549 0.36083 0.78645 0.0
C517 C 0.82033 0.4934 0.5622 0.0
C518 C 0.82119 0.44038 0.5718 0.0
C519 C 0.77008 0.50516 0.56073 0.0
C520 C 0.71927 0.46417 0.56898 0.0
H521 H 0.85832 0.52484 0.55124 0.0
H522 H 0.77076 0.54599 0.55019 0.0
S523 S 0.70018 0.31956 0.59961 0.0
N524 N 0.76776 0.34741 0.59314 0.0
N525 N 0.67335 0.36935 0.59089 0.0
C526 C 0.72001 0.41183 0.58282 0.0
C527 C 0.77106 0.39999 0.58422 0.0
loop_
_geom_bond_atom_site_label_1
_geom_bond_atom_site_label_2
_geom_bond_distance
_geom_bond_site_symmetry_2
_ccdc_geom_bond_type
C0 N1 1.317 . S
C0 N2 1.348 . S
C0 C3 1.485 . S
N1 C0 1.317 . S
N1 N5 1.370 . S
N2 C0 1.348 . S
N2 C4 1.346 . S
C3 C0 1.485 . S
C3 H7 0.960 . S
C3 H8 0.961 . S
C3 H9 0.960 . S
C4 N2 1.346 . S
C4 N5 1.307 . S
C4 C6 1.486 . S
N5 N1 1.370 . S
N5 C4 1.307 . S
C6 C4 1.486 . S
C6 H10 0.960 . S
C6 H11 0.960 . S
C6 H12 0.959 . S
H7 C3 0.960 . S
H8 C3 0.961 . S
H9 C3 0.960 . S
H10 C6 0.960 . S
H11 C6 0.960 . S
H12 C6 0.959 . S
C13 N14 1.317 . S
C13 N15 1.348 . S
C13 C16 1.485 . S
N14 C13 1.317 . S
N14 N18 1.370 . S
N15 C13 1.348 . S
N15 C17 1.346 . S
C16 C13 1.485 . S
C16 H20 0.960 . S
C16 H21 0.961 . S
C16 H22 0.960 . S
C17 N15 1.346 . S
C17 N18 1.307 . S
C17 C19 1.486 . S
N18 N14 1.370 . S
N18 C17 1.307 . S
C19 C17 1.486 . S
C19 H23 0.960 . S
C19 H24 0.960 . S
C19 H25 0.959 . S
H20 C16 0.960 . S
H21 C16 0.961 . S
H22 C16 0.960 . S
H23 C19 0.960 . S
H24 C19 0.960 . S
H25 C19 0.959 . S
C26 N27 1.317 . S
C26 N28 1.348 . S
C26 C29 1.485 . S
N27 C26 1.317 . S
N27 N31 1.370 . S
N28 C26 1.348 . S
N28 C30 1.346 . S
C29 C26 1.485 . S
C29 H33 0.960 . S
C29 H34 0.961 . S
C29 H35 0.960 . S
C30 N28 1.346 . S
C30 N31 1.307 . S
C30 C32 1.486 . S
N31 N27 1.370 . S
N31 C30 1.307 . S
C32 C30 1.486 . S
C32 H36 0.960 . S
C32 H37 0.960 . S
C32 H38 0.959 . S
H33 C29 0.960 . S
H34 C29 0.961 . S
H35 C29 0.960 . S
H36 C32 0.960 . S
H37 C32 0.960 . S
H38 C32 0.959 . S
C39 N40 1.317 . S
C39 N41 1.348 . S
C39 C42 1.485 . S
N40 C39 1.317 . S
N40 N44 1.370 . S
N41 C39 1.348 . S
N41 C43 1.346 . S
C42 C39 1.485 . S
C42 H46 0.960 . S
C42 H47 0.961 . S
C42 H48 0.960 . S
C43 N41 1.346 . S
C43 N44 1.307 . S
C43 C45 1.486 . S
N44 N40 1.370 . S
N44 C43 1.307 . S
C45 C43 1.486 . S
C45 H49 0.960 . S
C45 H50 0.960 . S
C45 H51 0.959 . S
H46 C42 0.960 . S
H47 C42 0.961 . S
H48 C42 0.960 . S
H49 C45 0.960 . S
H50 C45 0.960 . S
H51 C45 0.959 . S
C52 N53 1.317 . S
C52 N54 1.348 . S
C52 C55 1.485 . S
N53 C52 1.317 . S
N53 N57 1.370 . S
N54 C52 1.348 . S
N54 C56 1.346 . S
C55 C52 1.485 . S
C55 H59 0.960 . S
C55 H60 0.961 . S
C55 H61 0.960 . S
C56 N54 1.346 . S
C56 N57 1.307 . S
C56 C58 1.486 . S
N57 N53 1.370 . S
N57 C56 1.307 . S
C58 C56 1.486 . S
C58 H62 0.960 . S
C58 H63 0.960 . S
C58 H64 0.959 . S
H59 C55 0.960 . S
H60 C55 0.961 . S
H61 C55 0.960 . S
H62 C58 0.960 . S
H63 C58 0.960 . S
H64 C58 0.959 . S
C65 N66 1.317 . S
C65 N67 1.348 . S
C65 C68 1.485 . S
N66 C65 1.317 . S
N66 N70 1.370 . S
N67 C65 1.348 . S
N67 C69 1.346 . S
C68 C65 1.485 . S
C68 H72 0.960 . S
C68 H73 0.961 . S
C68 H74 0.960 . S
C69 N67 1.346 . S
C69 N70 1.307 . S
C69 C71 1.486 . S
N70 N66 1.370 . S
N70 C69 1.307 . S
C71 C69 1.486 . S
C71 H75 0.960 . S
C71 H76 0.960 . S
C71 H77 0.959 . S
H72 C68 0.960 . S
H73 C68 0.961 . S
H74 C68 0.960 . S
H75 C71 0.960 . S
H76 C71 0.960 . S
H77 C71 0.959 . S
C78 N79 1.317 . S
C78 N80 1.348 . S
C78 C81 1.485 . S
N79 C78 1.317 . S
N79 N83 1.370 . S
N80 C78 1.348 . S
N80 C82 1.346 . S
C81 C78 1.485 . S
C81 H85 0.960 . S
C81 H86 0.961 . S
C81 H87 0.960 . S
C82 N80 1.346 . S
C82 N83 1.307 . S
C82 C84 1.486 . S
N83 N79 1.370 . S
N83 C82 1.307 . S
C84 C82 1.486 . S
C84 H88 0.960 . S
C84 H89 0.960 . S
C84 H90 0.959 . S
H85 C81 0.960 . S
H86 C81 0.961 . S
H87 C81 0.960 . S
H88 C84 0.960 . S
H89 C84 0.960 . S
H90 C84 0.959 . S
C91 N92 1.317 . S
C91 N93 1.348 . S
C91 C94 1.485 . S
N92 C91 1.317 . S
N92 N96 1.370 . S
N93 C91 1.348 . S
N93 C95 1.346 . S
C94 C91 1.485 . S
C94 H98 0.960 . S
C94 H99 0.961 . S
C94 H100 0.960 . S
C95 N93 1.346 . S
C95 N96 1.307 . S
C95 C97 1.486 . S
N96 N92 1.370 . S
N96 C95 1.307 . S
C97 C95 1.486 . S
C97 H101 0.960 . S
C97 H102 0.960 . S
C97 H103 0.959 . S
H98 C94 0.960 . S
H99 C94 0.961 . S
H100 C94 0.960 . S
H101 C97 0.960 . S
H102 C97 0.960 . S
H103 C97 0.959 . S
Gd104 C107 2.818 . S
Gd104 O124 2.377 . S
Gd104 O126 2.448 . S
Gd104 O127 2.506 . S
Gd104 O128 2.435 . S
Gd104 O129 2.717 . S
Gd104 O131 2.395 1_545 S
Gd104 O135 2.327 . S
Gd105 C116 2.818 1_545 S
Gd105 O125 2.395 1_655 S
Gd105 O129 2.327 1_655 S
Gd105 O130 2.377 1_545 S
Gd105 O132 2.448 1_545 S
Gd105 O133 2.506 1_545 S
Gd105 O134 2.435 . S
Gd105 O135 2.717 1_655 S
C106 O124 1.240 . S
C106 O125 1.240 . S
C107 Gd104 2.818 . S
C107 C108 1.510 . S
C107 O126 1.249 . S
C107 O127 1.252 . S
C108 C107 1.510 . S
C108 C109 1.404 . S
C108 C110 1.352 . S
C109 C108 1.404 . S
C109 C113 1.389 . S
C109 H136 0.930 . S
C110 C108 1.352 . S
C110 C112 1.374 . S
C110 H137 0.931 . S
C111 C112 1.359 . S
C111 C113 1.364 . S
C112 C110 1.374 . S
C112 C111 1.359 . S
C112 H138 0.931 . S
C113 C109 1.389 . S
C113 C111 1.364 . S
C113 H139 0.931 . S
C114 O128 1.256 1_565 S
C114 O129 1.257 1_565 S
C115 O130 1.240 . S
C115 O131 1.240 1_655 S
C116 Gd105 2.818 1_565 S
C116 C117 1.510 . S
C116 O132 1.249 . S
C116 O133 1.252 . S
C117 C116 1.510 . S
C117 C118 1.404 . S
C117 C119 1.352 . S
C118 C117 1.404 . S
C118 C122 1.389 . S
C118 H140 0.930 . S
C119 C117 1.352 . S
C119 C121 1.374 . S
C119 H141 0.931 . S
C120 C121 1.359 . S
C120 C122 1.364 . S
C121 C119 1.374 . S
C121 C120 1.359 . S
C121 H142 0.931 . S
C122 C118 1.389 . S
C122 C120 1.364 . S
C122 H143 0.931 . S
C123 O134 1.256 . S
C123 O135 1.257 1_655 S
O124 Gd104 2.377 . S
O124 C106 1.240 . S
O125 Gd105 2.395 1_455 S
O125 C106 1.240 . S
O126 Gd104 2.448 . S
O126 C107 1.249 . S
O127 Gd104 2.506 . S
O127 C107 1.252 . S
O128 Gd104 2.435 . S
O128 C114 1.256 1_545 S
O129 Gd104 2.717 . S
O129 Gd105 2.327 1_455 S
O129 C114 1.257 1_545 S
O130 Gd105 2.377 1_565 S
O130 C115 1.240 . S
O131 Gd104 2.395 1_565 S
O131 C115 1.240 1_455 S
O132 Gd105 2.448 1_565 S
O132 C116 1.249 . S
O133 Gd105 2.506 1_565 S
O133 C116 1.252 . S
O134 Gd105 2.435 . S
O134 C123 1.256 . S
O135 Gd104 2.327 . S
O135 Gd105 2.717 1_455 S
O135 C123 1.257 1_455 S
H136 C109 0.930 . S
H137 C110 0.931 . S
H138 C112 0.931 . S
H139 C113 0.931 . S
H140 C118 0.930 . S
H141 C119 0.931 . S
H142 C121 0.931 . S
H143 C122 0.931 . S
Gd144 C147 2.818 . S
Gd144 O164 2.377 . S
Gd144 O166 2.448 . S
Gd144 O167 2.506 . S
Gd144 O168 2.435 1_545 S
Gd144 O169 2.717 . S
Gd144 O171 2.395 . S
Gd144 O175 2.327 . S
Gd145 C156 2.818 1_554 S
Gd145 O165 2.395 . S
Gd145 O169 2.327 . S
Gd145 O170 2.377 1_554 S
Gd145 O172 2.448 1_554 S
Gd145 O173 2.506 1_544 S
Gd145 O174 2.435 1_554 S
Gd145 O175 2.717 . S
C146 O164 1.240 . S
C146 O165 1.240 . S
C147 Gd144 2.818 . S
C147 C148 1.510 . S
C147 O166 1.249 . S
C147 O167 1.252 . S
C148 C147 1.510 . S
C148 C149 1.404 . S
C148 C150 1.352 . S
C149 C148 1.404 . S
C149 C153 1.389 . S
C149 H176 0.930 . S
C150 C148 1.352 . S
C150 C152 1.374 . S
C150 H177 0.931 . S
C151 C152 1.359 . S
C151 C153 1.364 . S
C152 C150 1.374 . S
C152 C151 1.359 . S
C152 H178 0.931 . S
C153 C149 1.389 . S
C153 C151 1.364 . S
C153 H179 0.931 . S
C154 O168 1.256 . S
C154 O169 1.257 1_565 S
C155 O170 1.252 . S
C155 O171 1.241 1_556 S
C156 Gd145 2.818 1_556 S
C156 C157 1.510 1_545 S
C156 O172 1.249 . S
C156 O173 1.252 1_545 S
C157 C156 1.510 1_565 S
C157 C158 1.404 . S
C157 C159 1.352 . S
C158 C157 1.404 . S
C158 C162 1.389 . S
C158 H180 0.930 1_565 S
C159 C157 1.352 . S
C159 C161 1.374 . S
C159 H181 0.931 . S
C160 C161 1.359 . S
C160 C162 1.364 . S
C161 C159 1.374 . S
C161 C160 1.359 . S
C161 H182 0.931 . S
C162 C158 1.389 . S
C162 C160 1.364 . S
C162 H183 0.931 . S
C163 O174 1.256 1_554 S
C163 O175 1.257 . S
O164 Gd144 2.377 . S
O164 C146 1.240 . S
O165 Gd145 2.395 . S
O165 C146 1.240 . S
O166 Gd144 2.448 . S
O166 C147 1.249 . S
O167 Gd144 2.506 . S
O167 C147 1.252 . S
O168 Gd144 2.435 1_565 S
O168 C154 1.256 . S
O169 Gd144 2.717 . S
O169 Gd145 2.327 . S
O169 C154 1.257 1_545 S
O170 Gd145 2.377 1_556 S
O170 C155 1.252 . S
O171 Gd144 2.395 . S
O171 C155 1.241 1_554 S
O172 Gd145 2.448 1_556 S
O172 C156 1.249 . S
O173 Gd145 2.506 1_566 S
O173 C156 1.252 1_565 S
O174 Gd145 2.435 1_556 S
O174 C163 1.256 1_556 S
O175 Gd144 2.327 . S
O175 Gd145 2.717 . S
O175 C163 1.257 . S
H176 C149 0.930 . S
H177 C150 0.931 . S
H178 C152 0.931 . S
H179 C153 0.931 . S
H180 C158 0.930 1_545 S
H181 C159 0.931 . S
H182 C161 0.931 . S
H183 C162 0.931 . S
Gd184 C187 2.818 . S
Gd184 O204 2.377 . S
Gd184 O206 2.448 . S
Gd184 O207 2.506 . S
Gd184 O208 2.435 . S
Gd184 O209 2.717 . S
Gd184 O211 2.395 . S
Gd184 O215 2.327 . S
Gd185 C196 2.818 . S
Gd185 O205 2.395 . S
Gd185 O209 2.327 . S
Gd185 O210 2.377 . S
Gd185 O212 2.448 . S
Gd185 O213 2.506 . S
Gd185 O214 2.435 . S
Gd185 O215 2.717 . S
C186 O204 1.240 . S
C186 O205 1.240 . S
C187 Gd184 2.818 . S
C187 C188 1.510 . S
C187 O206 1.249 . S
C187 O207 1.252 . S
C188 C187 1.510 . S
C188 C189 1.404 . S
C188 C190 1.352 . S
C189 C188 1.404 . S
C189 C193 1.389 . S
C189 H216 0.930 . S
C190 C188 1.352 . S
C190 C192 1.374 . S
C190 H217 0.931 . S
C191 C192 1.359 . S
C191 C193 1.364 . S
C192 C190 1.374 . S
C192 C191 1.359 . S
C192 H218 0.931 . S
C193 C189 1.389 . S
C193 C191 1.364 . S
C193 H219 0.931 . S
C194 O208 1.256 . S
C194 O209 1.257 . S
C195 O210 1.240 . S
C195 O211 1.240 . S
C196 Gd185 2.818 . S
C196 C197 1.510 . S
C196 O212 1.249 . S
C196 O213 1.252 . S
C197 C196 1.510 . S
C197 C198 1.404 . S
C197 C199 1.352 . S
C198 C197 1.404 . S
C198 C202 1.389 . S
C198 H220 0.930 . S
C199 C197 1.352 . S
C199 C201 1.374 . S
C199 H221 0.931 . S
C200 C201 1.359 . S
C200 C202 1.364 . S
C201 C199 1.374 . S
C201 C200 1.359 . S
C201 H222 0.931 . S
C202 C198 1.389 . S
C202 C200 1.364 . S
C202 H223 0.931 . S
C203 O214 1.256 . S
C203 O215 1.257 . S
O204 Gd184 2.377 . S
O204 C186 1.240 . S
O205 Gd185 2.395 . S
O205 C186 1.240 . S
O206 Gd184 2.448 . S
O206 C187 1.249 . S
O207 Gd184 2.506 . S
O207 C187 1.252 . S
O208 Gd184 2.435 . S
O208 C194 1.256 . S
O209 Gd184 2.717 . S
O209 Gd185 2.327 . S
O209 C194 1.257 . S
O210 Gd185 2.377 . S
O210 C195 1.240 . S
O211 Gd184 2.395 . S
O211 C195 1.240 . S
O212 Gd185 2.448 . S
O212 C196 1.249 . S
O213 Gd185 2.506 . S
O213 C196 1.252 . S
O214 Gd185 2.435 . S
O214 C203 1.256 . S
O215 Gd184 2.327 . S
O215 Gd185 2.717 . S
O215 C203 1.257 . S
H216 C189 0.930 . S
H217 C190 0.931 . S
H218 C192 0.931 . S
H219 C193 0.931 . S
H220 C198 0.930 . S
H221 C199 0.931 . S
H222 C201 0.931 . S
H223 C202 0.931 . S
Gd224 C227 2.818 . S
Gd224 O244 2.377 . S
Gd224 O246 2.448 . S
Gd224 O247 2.506 . S
Gd224 O248 2.435 1_455 S
Gd224 O249 2.717 1_455 S
Gd224 O251 2.395 1_455 S
Gd224 O255 2.327 1_554 S
Gd225 C236 2.818 1_455 S
Gd225 O245 2.395 1_556 S
Gd225 O249 2.327 1_456 S
Gd225 O250 2.377 1_455 S
Gd225 O252 2.448 1_455 S
Gd225 O253 2.506 1_455 S
Gd225 O254 2.435 . S
Gd225 O255 2.717 . S
C226 O244 1.240 . S
C226 O245 1.240 . S
C227 Gd224 2.818 . S
C227 C228 1.510 . S
C227 O246 1.249 . S
C227 O247 1.252 . S
C228 C227 1.510 . S
C228 C229 1.404 . S
C228 C230 1.352 . S
C229 C228 1.404 . S
C229 C233 1.389 . S
C229 H256 0.930 . S
C230 C228 1.352 . S
C230 C232 1.374 . S
C230 H257 0.931 . S
C231 C232 1.359 . S
C231 C233 1.364 . S
C232 C230 1.374 . S
C232 C231 1.359 . S
C232 H258 0.931 . S
C233 C229 1.389 . S
C233 C231 1.364 . S
C233 H259 0.931 . S
C234 O248 1.256 . S
C234 O249 1.257 . S
C235 O250 1.240 . S
C235 O251 1.240 1_556 S
C236 Gd225 2.818 1_655 S
C236 C237 1.510 . S
C236 O252 1.249 . S
C236 O253 1.252 . S
C237 C236 1.510 . S
C237 C238 1.404 . S
C237 C239 1.352 . S
C238 C237 1.404 . S
C238 C242 1.389 . S
C238 H260 0.930 . S
C239 C237 1.352 . S
C239 C241 1.374 . S
C239 H261 0.931 . S
C240 C241 1.359 . S
C240 C242 1.364 . S
C241 C239 1.374 . S
C241 C240 1.359 . S
C241 H262 0.931 . S
C242 C238 1.389 . S
C242 C240 1.364 . S
C242 H263 0.931 . S
C243 O254 1.256 . S
C243 O255 1.257 . S
O244 Gd224 2.377 . S
O244 C226 1.240 . S
O245 Gd225 2.395 1_554 S
O245 C226 1.240 . S
O246 Gd224 2.448 . S
O246 C227 1.249 . S
O247 Gd224 2.506 . S
O247 C227 1.252 . S
O248 Gd224 2.435 1_655 S
O248 C234 1.256 . S
O249 Gd224 2.717 1_655 S
O249 Gd225 2.327 1_654 S
O249 C234 1.257 . S
O250 Gd225 2.377 1_655 S
O250 C235 1.240 . S
O251 Gd224 2.395 1_655 S
O251 C235 1.240 1_554 S
O252 Gd225 2.448 1_655 S
O252 C236 1.249 . S
O253 Gd225 2.506 1_655 S
O253 C236 1.252 . S
O254 Gd225 2.435 . S
O254 C243 1.256 . S
O255 Gd224 2.327 1_556 S
O255 Gd225 2.717 . S
O255 C243 1.257 . S
H256 C229 0.930 . S
H257 C230 0.931 . S
H258 C232 0.931 . S
H259 C233 0.931 . S
H260 C238 0.930 . S
H261 C239 0.931 . S
H262 C241 0.931 . S
H263 C242 0.931 . S
C264 C265 1.369 . S
C264 C266 1.419 . S
C264 H268 0.930 . S
C265 C264 1.369 . S
C265 C274 1.429 . S
C266 C264 1.419 . S
C266 C267 1.363 . S
C266 H269 0.929 . S
C267 C266 1.363 . S
C267 C273 1.428 . S
H268 C264 0.930 . S
H269 C266 0.929 . S
S270 N271 1.613 . S
S270 N272 1.610 . S
N271 S270 1.613 . S
N271 C274 1.350 . S
N272 S270 1.610 . S
N272 C273 1.351 . S
C273 C267 1.428 . S
C273 N272 1.351 . S
C273 C274 1.434 . S
C274 C265 1.429 . S
C274 N271 1.350 . S
C274 C273 1.434 . S
C275 C276 1.369 . S
C275 C277 1.419 . S
C275 H279 0.930 . S
C276 C275 1.369 . S
C276 C285 1.429 . S
C277 C275 1.419 . S
C277 C278 1.363 . S
C277 H280 0.929 . S
C278 C277 1.363 . S
C278 C284 1.428 . S
H279 C275 0.930 . S
H280 C277 0.929 . S
S281 N282 1.613 . S
S281 N283 1.610 . S
N282 S281 1.613 . S
N282 C285 1.350 . S
N283 S281 1.610 . S
N283 C284 1.351 . S
C284 C278 1.428 . S
C284 N283 1.351 . S
C284 C285 1.434 . S
C285 C276 1.429 . S
C285 N282 1.350 . S
C285 C284 1.434 . S
C286 C287 1.369 . S
C286 C288 1.419 . S
C286 H290 0.930 . S
C287 C286 1.369 . S
C287 C296 1.429 . S
C288 C286 1.419 . S
C288 C289 1.363 . S
C288 H291 0.929 . S
C289 C288 1.363 . S
C289 C295 1.428 . S
H290 C286 0.930 . S
H291 C288 0.929 . S
S292 N293 1.613 . S
S292 N294 1.610 . S
N293 S292 1.613 . S
N293 C296 1.350 . S
N294 S292 1.610 . S
N294 C295 1.351 . S
C295 C289 1.428 . S
C295 N294 1.351 . S
C295 C296 1.434 . S
C296 C287 1.429 . S
C296 N293 1.350 . S
C296 C295 1.434 . S
C297 C298 1.369 . S
C297 C299 1.419 . S
C297 H301 0.930 . S
C298 C297 1.369 . S
C298 C307 1.429 . S
C299 C297 1.419 . S
C299 C300 1.363 . S
C299 H302 0.929 . S
C300 C299 1.363 . S
C300 C306 1.428 . S
H301 C297 0.930 . S
H302 C299 0.929 . S
S303 N304 1.613 . S
S303 N305 1.610 . S
N304 S303 1.613 . S
N304 C307 1.350 . S
N305 S303 1.610 . S
N305 C306 1.351 . S
C306 C300 1.428 . S
C306 N305 1.351 . S
C306 C307 1.434 . S
C307 C298 1.429 . S
C307 N304 1.350 . S
C307 C306 1.434 . S
C308 C309 1.369 . S
C308 C310 1.419 . S
C308 H312 0.930 . S
C309 C308 1.369 . S
C309 C318 1.429 . S
C310 C308 1.419 . S
C310 C311 1.363 . S
C310 H313 0.929 . S
C311 C310 1.363 . S
C311 C317 1.428 . S
H312 C308 0.930 . S
H313 C310 0.929 . S
S314 N315 1.613 . S
S314 N316 1.610 . S
N315 S314 1.613 . S
N315 C318 1.350 . S
N316 S314 1.610 . S
N316 C317 1.351 . S
C317 C311 1.428 . S
C317 N316 1.351 . S
C317 C318 1.434 . S
C318 C309 1.429 . S
C318 N315 1.350 . S
C318 C317 1.434 . S
C319 C320 1.369 . S
C319 C321 1.419 . S
C319 H323 0.930 . S
C320 C319 1.369 . S
C320 C329 1.429 . S
C321 C319 1.419 . S
C321 C322 1.363 . S
C321 H324 0.929 . S
C322 C321 1.363 . S
C322 C328 1.428 . S
H323 C319 0.930 . S
H324 C321 0.929 . S
S325 N326 1.613 1_545 S
S325 N327 1.610 . S
N326 S325 1.613 1_565 S
N326 C329 1.350 . S
N327 S325 1.610 . S
N327 C328 1.351 1_545 S
C328 C322 1.428 . S
C328 N327 1.351 1_565 S
C328 C329 1.434 . S
C329 C320 1.429 . S
C329 N326 1.350 . S
C329 C328 1.434 . S
C330 C331 1.369 . S
C330 C332 1.419 . S
C330 H334 0.930 . S
C331 C330 1.369 . S
C331 C340 1.429 . S
C332 C330 1.419 . S
C332 C333 1.363 . S
C332 H335 0.929 . S
C333 C332 1.363 . S
C333 C339 1.428 . S
H334 C330 0.930 . S
H335 C332 0.929 . S
S336 N337 1.613 1_554 S
S336 N338 1.610 . S
N337 S336 1.613 1_556 S
N337 C340 1.350 . S
N338 S336 1.610 . S
N338 C339 1.351 1_554 S
C339 C333 1.428 . S
C339 N338 1.351 1_556 S
C339 C340 1.434 . S
C340 C331 1.429 . S
C340 N337 1.350 . S
C340 C339 1.434 . S
C341 C342 1.369 . S
C341 C343 1.419 . S
C341 H345 0.930 . S
C342 C341 1.369 . S
C342 C351 1.429 . S
C343 C341 1.419 . S
C343 C344 1.363 . S
C343 H346 0.929 . S
C344 C343 1.363 . S
C344 C350 1.428 . S
H345 C341 0.930 . S
H346 C343 0.929 . S
S347 N348 1.613 . S
S347 N349 1.610 . S
N348 S347 1.613 . S
N348 C351 1.350 . S
N349 S347 1.610 . S
N349 C350 1.351 . S
C350 C344 1.428 . S
C350 N349 1.351 . S
C350 C351 1.434 . S
C351 C342 1.429 . S
C351 N348 1.350 . S
C351 C350 1.434 . S
C352 C353 1.369 . S
C352 C354 1.419 . S
C352 H356 0.930 . S
C353 C352 1.369 . S
C353 C362 1.429 . S
C354 C352 1.419 . S
C354 C355 1.363 . S
C354 H357 0.929 . S
C355 C354 1.363 . S
C355 C361 1.428 . S
H356 C352 0.930 . S
H357 C354 0.929 . S
S358 N359 1.613 . S
S358 N360 1.610 . S
N359 S358 1.613 . S
N359 C362 1.350 . S
N360 S358 1.610 . S
N360 C361 1.351 . S
C361 C355 1.428 . S
C361 N360 1.351 . S
C361 C362 1.434 . S
C362 C353 1.429 . S
C362 N359 1.350 . S
C362 C361 1.434 . S
C363 C364 1.369 . S
C363 C365 1.419 . S
C363 H367 0.930 . S
C364 C363 1.369 . S
C364 C373 1.429 . S
C365 C363 1.419 . S
C365 C366 1.363 . S
C365 H368 0.929 . S
C366 C365 1.363 . S
C366 C372 1.428 . S
H367 C363 0.930 . S
H368 C365 0.929 . S
S369 N370 1.613 . S
S369 N371 1.610 . S
N370 S369 1.613 . S
N370 C373 1.350 . S
N371 S369 1.610 . S
N371 C372 1.351 . S
C372 C366 1.428 . S
C372 N371 1.351 . S
C372 C373 1.434 . S
C373 C364 1.429 . S
C373 N370 1.350 . S
C373 C372 1.434 . S
C374 C375 1.369 . S
C374 C376 1.419 . S
C374 H378 0.930 . S
C375 C374 1.369 . S
C375 C384 1.429 . S
C376 C374 1.419 . S
C376 C377 1.363 . S
C376 H379 0.929 . S
C377 C376 1.363 . S
C377 C383 1.428 . S
H378 C374 0.930 . S
H379 C376 0.929 . S
S380 N381 1.613 . S
S380 N382 1.610 . S
N381 S380 1.613 . S
N381 C384 1.350 . S
N382 S380 1.610 . S
N382 C383 1.351 . S
C383 C377 1.428 . S
C383 N382 1.351 . S
C383 C384 1.434 . S
C384 C375 1.429 . S
C384 N381 1.350 . S
C384 C383 1.434 . S
C385 C386 1.369 . S
C385 C387 1.419 . S
C385 H389 0.930 . S
C386 C385 1.369 . S
C386 C395 1.429 . S
C387 C385 1.419 . S
C387 C388 1.363 . S
C387 H390 0.929 . S
C388 C387 1.363 . S
C388 C394 1.428 . S
H389 C385 0.930 . S
H390 C387 0.929 . S
S391 N392 1.613 . S
S391 N393 1.610 . S
N392 S391 1.613 . S
N392 C395 1.350 . S
N393 S391 1.610 . S
N393 C394 1.351 . S
C394 C388 1.428 . S
C394 N393 1.351 . S
C394 C395 1.434 . S
C395 C386 1.429 . S
C395 N392 1.350 . S
C395 C394 1.434 . S
C396 C397 1.369 . S
C396 C398 1.419 . S
C396 H400 0.930 . S
C397 C396 1.369 . S
C397 C406 1.429 . S
C398 C396 1.419 . S
C398 C399 1.363 . S
C398 H401 0.929 . S
C399 C398 1.363 . S
C399 C405 1.428 . S
H400 C396 0.930 . S
H401 C398 0.929 . S
S402 N403 1.613 . S
S402 N404 1.610 . S
N403 S402 1.613 . S
N403 C406 1.350 . S
N404 S402 1.610 . S
N404 C405 1.351 . S
C405 C399 1.428 . S
C405 N404 1.351 . S
C405 C406 1.434 . S
C406 C397 1.429 . S
C406 N403 1.350 . S
C406 C405 1.434 . S
C407 C408 1.369 . S
C407 C409 1.419 . S
C407 H411 0.930 . S
C408 C407 1.369 . S
C408 C417 1.429 . S
C409 C407 1.419 . S
C409 C410 1.363 . S
C409 H412 0.929 . S
C410 C409 1.363 . S
C410 C416 1.428 . S
H411 C407 0.930 . S
H412 C409 0.929 . S
S413 N414 1.613 . S
S413 N415 1.610 . S
N414 S413 1.613 . S
N414 C417 1.350 . S
N415 S413 1.610 . S
N415 C416 1.351 . S
C416 C410 1.428 . S
C416 N415 1.351 . S
C416 C417 1.434 . S
C417 C408 1.429 . S
C417 N414 1.350 . S
C417 C416 1.434 . S
C418 C419 1.369 . S
C418 C420 1.419 . S
C418 H422 0.930 . S
C419 C418 1.369 . S
C419 C428 1.429 . S
C420 C418 1.419 . S
C420 C421 1.363 . S
C420 H423 0.929 . S
C421 C420 1.363 . S
C421 C427 1.428 . S
H422 C418 0.930 . S
H423 C420 0.929 . S
S424 N425 1.613 . S
S424 N426 1.610 . S
N425 S424 1.613 . S
N425 C428 1.350 . S
N426 S424 1.610 . S
N426 C427 1.351 . S
C427 C421 1.428 . S
C427 N426 1.351 . S
C427 C428 1.434 . S
C428 C419 1.429 . S
C428 N425 1.350 . S
C428 C427 1.434 . S
C429 C430 1.369 . S
C429 C431 1.419 . S
C429 H433 0.930 . S
C430 C429 1.369 . S
C430 C439 1.429 . S
C431 C429 1.419 . S
C431 C432 1.363 . S
C431 H434 0.929 . S
C432 C431 1.363 . S
C432 C438 1.428 . S
H433 C429 0.930 . S
H434 C431 0.929 . S
S435 N436 1.613 . S
S435 N437 1.610 . S
N436 S435 1.613 . S
N436 C439 1.350 . S
N437 S435 1.610 . S
N437 C438 1.351 . S
C438 C432 1.428 . S
C438 N437 1.351 . S
C438 C439 1.434 . S
C439 C430 1.429 . S
C439 N436 1.350 . S
C439 C438 1.434 . S
C440 C441 1.369 . S
C440 C442 1.419 . S
C440 H444 0.930 . S
C441 C440 1.369 . S
C441 C450 1.429 . S
C442 C440 1.419 . S
C442 C443 1.363 . S
C442 H445 0.929 . S
C443 C442 1.363 . S
C443 C449 1.428 . S
H444 C440 0.930 . S
H445 C442 0.929 . S
S446 N447 1.613 1_554 S
S446 N448 1.610 . S
N447 S446 1.613 1_556 S
N447 C450 1.350 . S
N448 S446 1.610 . S
N448 C449 1.351 1_554 S
C449 C443 1.428 . S
C449 N448 1.351 1_556 S
C449 C450 1.434 . S
C450 C441 1.429 . S
C450 N447 1.350 . S
C450 C449 1.434 . S
C451 C452 1.369 . S
C451 C453 1.419 . S
C451 H455 0.930 . S
C452 C451 1.369 . S
C452 C461 1.429 . S
C453 C451 1.419 . S
C453 C454 1.363 . S
C453 H456 0.929 . S
C454 C453 1.363 . S
C454 C460 1.428 . S
H455 C451 0.930 . S
H456 C453 0.929 . S
S457 N458 1.613 . S
S457 N459 1.610 . S
N458 S457 1.613 . S
N458 C461 1.350 . S
N459 S457 1.610 . S
N459 C460 1.351 . S
C460 C454 1.428 . S
C460 N459 1.351 . S
C460 C461 1.434 . S
C461 C452 1.429 . S
C461 N458 1.350 . S
C461 C460 1.434 . S
C462 C463 1.369 . S
C462 C464 1.419 . S
C462 H466 0.930 . S
C463 C462 1.369 . S
C463 C472 1.429 . S
C464 C462 1.419 . S
C464 C465 1.363 . S
C464 H467 0.929 . S
C465 C464 1.363 . S
C465 C471 1.428 . S
H466 C462 0.930 . S
H467 C464 0.929 . S
S468 N469 1.613 . S
S468 N470 1.610 . S
N469 S468 1.613 . S
N469 C472 1.350 . S
N470 S468 1.610 . S
N470 C471 1.351 . S
C471 C465 1.428 . S
C471 N470 1.351 . S
C471 C472 1.434 . S
C472 C463 1.429 . S
C472 N469 1.350 . S
C472 C471 1.434 . S
C473 C474 1.369 . S
C473 C475 1.419 . S
C473 H477 0.930 . S
C474 C473 1.369 . S
C474 C483 1.429 . S
C475 C473 1.419 . S
C475 C476 1.363 . S
C475 H478 0.929 . S
C476 C475 1.363 . S
C476 C482 1.428 . S
H477 C473 0.930 . S
H478 C475 0.929 . S
S479 N480 1.613 . S
S479 N481 1.610 . S
N480 S479 1.613 . S
N480 C483 1.350 . S
N481 S479 1.610 . S
N481 C482 1.351 . S
C482 C476 1.428 . S
C482 N481 1.351 . S
C482 C483 1.434 . S
C483 C474 1.429 . S
C483 N480 1.350 . S
C483 C482 1.434 . S
C484 C485 1.369 . S
C484 C486 1.419 . S
C484 H488 0.930 . S
C485 C484 1.369 . S
C485 C494 1.429 . S
C486 C484 1.419 . S
C486 C487 1.363 . S
C486 H489 0.929 . S
C487 C486 1.363 . S
C487 C493 1.428 . S
H488 C484 0.930 . S
H489 C486 0.929 . S
S490 N491 1.613 . S
S490 N492 1.610 . S
N491 S490 1.613 . S
N491 C494 1.350 . S
N492 S490 1.610 . S
N492 C493 1.351 . S
C493 C487 1.428 . S
C493 N492 1.351 . S
C493 C494 1.434 . S
C494 C485 1.429 . S
C494 N491 1.350 . S
C494 C493 1.434 . S
C495 C496 1.369 . S
C495 C497 1.419 . S
C495 H499 0.930 . S
C496 C495 1.369 . S
C496 C505 1.429 . S
C497 C495 1.419 . S
C497 C498 1.363 . S
C497 H500 0.929 . S
C498 C497 1.363 . S
C498 C504 1.428 . S
H499 C495 0.930 . S
H500 C497 0.929 . S
S501 N502 1.613 . S
S501 N503 1.610 . S
N502 S501 1.613 . S
N502 C505 1.350 . S
N503 S501 1.610 . S
N503 C504 1.351 . S
C504 C498 1.428 . S
C504 N503 1.351 . S
C504 C505 1.434 . S
C505 C496 1.429 . S
C505 N502 1.350 . S
C505 C504 1.434 . S
C506 C507 1.369 . S
C506 C508 1.419 . S
C506 H510 0.930 . S
C507 C506 1.369 . S
C507 C516 1.429 . S
C508 C506 1.419 . S
C508 C509 1.363 . S
C508 H511 0.929 . S
C509 C508 1.363 . S
C509 C515 1.428 . S
H510 C506 0.930 . S
H511 C508 0.929 . S
S512 N513 1.613 . S
S512 N514 1.610 . S
N513 S512 1.613 . S
N513 C516 1.350 . S
N514 S512 1.610 . S
N514 C515 1.351 . S
C515 C509 1.428 . S
C515 N514 1.351 . S
C515 C516 1.434 . S
C516 C507 1.429 . S
C516 N513 1.350 . S
C516 C515 1.434 . S
C517 C518 1.369 . S
C517 C519 1.419 . S
C517 H521 0.930 . S
C518 C517 1.369 . S
C518 C527 1.429 . S
C519 C517 1.419 . S
C519 C520 1.363 . S
C519 H522 0.929 . S
C520 C519 1.363 . S
C520 C526 1.428 . S
H521 C517 0.930 . S
H522 C519 0.929 . S
S523 N524 1.613 . S
S523 N525 1.610 . S
N524 S523 1.613 . S
N524 C527 1.350 . S
N525 S523 1.610 . S
N525 C526 1.351 . S
C526 C520 1.428 . S
C526 N525 1.351 . S
C526 C527 1.434 . S
C527 C518 1.429 . S
C527 N524 1.350 . S
C527 C526 1.434 . S
C265 N1 0.967 . S
C267 C111 1.003 . S
C276 N18 1.105 . S
C278 C160 1.183 . S
C289 C186 2.178 . S
C287 N28 2.221 . S
C298 N40 2.662 . S
C300 C234 2.675 . S
C311 C146 2.258 . S
C309 N5 2.174 . S
C322 C114 0.645 . S
C320 N14 0.629 . S
C333 C235 2.058 . S
C331 N31 2.048 . S
C344 C203 1.574 . S
C342 N41 1.588 . S
C353 N2 1.319 . S
C355 C231 1.367 . S
C366 C163 2.477 1_556 S
C364 N27 2.538 . S
C375 N44 2.426 . S
C377 C115 2.496 . S
C386 N15 0.985 . S
C388 C200 1.000 . S
C399 C120 1.494 . S
C397 N57 1.546 . S
C408 N70 1.001 . S
C410 C151 1.086 . S
C419 N79 2.355 . S
C421 C195 2.406 . S
C430 N93 2.495 . S
C432 C243 2.475 . S
C441 N54 1.862 . S
C443 C155 2.021 1_565 S
C454 C123 1.393 . S
C452 N66 1.478 . S
C465 C226 1.594 . S
C463 N80 1.655 . S
C476 C194 1.806 . S
C474 N96 1.816 . S
C485 N53 1.527 . S
C487 C240 1.540 . S
C498 C154 2.199 . S
C496 N83 2.191 . S
C509 C106 2.638 . S
C507 N92 2.643 . S
C518 N67 1.183 . S
C520 C191 1.235 . S
