# Generated by pormake.
# Topology pyr, (3,6)-cn, num edge types: 1
# Building blocks:
#     Node 0, Type 0, BuildingBlock: KAKCAD_clean_linker_0, # of connection points: 3
#     Node 1, Type 0, BuildingBlock: KAKCAD_clean_linker_0, # of connection points: 3
#     Node 2, Type 0, BuildingBlock: KAKCAD_clean_linker_0, # of connection points: 3
#     Node 3, Type 0, BuildingBlock: KAKCAD_clean_linker_0, # of connection points: 3
#     Node 4, Type 0, BuildingBlock: KAKCAD_clean_linker_0, # of connection points: 3
#     Node 5, Type 0, BuildingBlock: KAKCAD_clean_linker_0, # of connection points: 3
#     Node 6, Type 0, BuildingBlock: KAKCAD_clean_linker_0, # of connection points: 3
#     Node 7, Type 0, BuildingBlock: KAKCAD_clean_linker_0, # of connection points: 3
#     Node 8, Type 1, BuildingBlock: BETFAJ_clean_sbu_0, # of connection points: 6
#     Node 9, Type 1, BuildingBlock: BETFAJ_clean_sbu_0, # of connection points: 6
#     Node 10, Type 1, BuildingBlock: BETFAJ_clean_sbu_0, # of connection points: 6
#     Node 11, Type 1, BuildingBlock: BETFAJ_clean_sbu_0, # of connection points: 6
#     Edge 12, Type (0, 1), BuildingBlock: MIFKUJ_clean_linker_0, # of connection points: 2
#     Edge 13, Type (0, 1), BuildingBlock: MIFKUJ_clean_linker_0, # of connection points: 2
#     Edge 14, Type (0, 1), BuildingBlock: MIFKUJ_clean_linker_0, # of connection points: 2
#     Edge 15, Type (0, 1), BuildingBlock: MIFKUJ_clean_linker_0, # of connection points: 2
#     Edge 16, Type (0, 1), BuildingBlock: MIFKUJ_clean_linker_0, # of connection points: 2
#     Edge 17, Type (0, 1), BuildingBlock: MIFKUJ_clean_linker_0, # of connection points: 2
#     Edge 18, Type (0, 1), BuildingBlock: MIFKUJ_clean_linker_0, # of connection points: 2
#     Edge 19, Type (0, 1), BuildingBlock: MIFKUJ_clean_linker_0, # of connection points: 2
#     Edge 20, Type (0, 1), BuildingBlock: MIFKUJ_clean_linker_0, # of connection points: 2
#     Edge 21, Type (0, 1), BuildingBlock: MIFKUJ_clean_linker_0, # of connection points: 2
#     Edge 22, Type (0, 1), BuildingBlock: MIFKUJ_clean_linker_0, # of connection points: 2
#     Edge 23, Type (0, 1), BuildingBlock: MIFKUJ_clean_linker_0, # of connection points: 2
#     Edge 24, Type (0, 1), BuildingBlock: MIFKUJ_clean_linker_0, # of connection points: 2
#     Edge 25, Type (0, 1), BuildingBlock: MIFKUJ_clean_linker_0, # of connection points: 2
#     Edge 26, Type (0, 1), BuildingBlock: MIFKUJ_clean_linker_0, # of connection points: 2
#     Edge 27, Type (0, 1), BuildingBlock: MIFKUJ_clean_linker_0, # of connection points: 2
#     Edge 28, Type (0, 1), BuildingBlock: MIFKUJ_clean_linker_0, # of connection points: 2
#     Edge 29, Type (0, 1), BuildingBlock: MIFKUJ_clean_linker_0, # of connection points: 2
#     Edge 30, Type (0, 1), BuildingBlock: MIFKUJ_clean_linker_0, # of connection points: 2
#     Edge 31, Type (0, 1), BuildingBlock: MIFKUJ_clean_linker_0, # of connection points: 2
#     Edge 32, Type (0, 1), BuildingBlock: MIFKUJ_clean_linker_0, # of connection points: 2
#     Edge 33, Type (0, 1), BuildingBlock: MIFKUJ_clean_linker_0, # of connection points: 2
#     Edge 34, Type (0, 1), BuildingBlock: MIFKUJ_clean_linker_0, # of connection points: 2
#     Edge 35, Type (0, 1), BuildingBlock: MIFKUJ_clean_linker_0, # of connection points: 2
# Relax obj value: 0.071
# Max RMSD: 0.114
# Mean RMSD: 0.053
data_MOF--net-pyr--node1-BETFAJ_clean_sbu_0--node2-KAKCAD_clean_linker_0--edge1-MIFKUJ_clean_linker_0
_symmetry_space_group_name_H-M    P1
_symmetry_Int_Tables_number       1
_symmetry_cell_setting            triclinic
loop_
_symmetry_equiv_pos_as_xyz
'x, y, z'
_cell_length_a     57.937566
_cell_length_b     60.693511
_cell_length_c     55.098746
_cell_angle_alpha  91.123715
_cell_angle_beta   88.308461
_cell_angle_gamma 99.021913
loop_
_atom_site_label
_atom_site_type_symbol
_atom_site_fract_x
_atom_site_fract_y
_atom_site_fract_z
_atom_type_partial_charge
C0 C 0.23453 0.24317 0.26747 0.0
C1 C 0.24356 0.23438 0.28793 0.0
C2 C 0.24936 0.25268 0.24887 0.0
C3 C 0.27375 0.25415 0.25035 0.0
C4 C 0.2829 0.24582 0.27105 0.0
C5 C 0.26795 0.23599 0.28963 0.0
C6 C 0.28924 0.26366 0.22984 0.0
C7 C 0.28328 0.28128 0.21646 0.0
C8 C 0.29561 0.28837 0.19504 0.0
C9 C 0.31517 0.27871 0.18769 0.0
C10 C 0.32171 0.26116 0.20096 0.0
C11 C 0.30862 0.25381 0.22204 0.0
C12 C 0.34048 0.24883 0.19158 0.0
C13 C 0.34261 0.24399 0.16661 0.0
C14 C 0.35529 0.24037 0.20762 0.0
C15 C 0.37114 0.22669 0.19902 0.0
C16 C 0.37272 0.22138 0.17417 0.0
C17 C 0.28591 0.3037 0.179 0.0
C18 C 0.26245 0.2985 0.17238 0.0
C19 C 0.29947 0.32339 0.17045 0.0
C20 C 0.28942 0.33796 0.15604 0.0
C21 C 0.26585 0.33272 0.14958 0.0
C22 C 0.25257 0.31278 0.15778 0.0
C23 C 0.35861 0.23051 0.15801 0.0
H24 H 0.21589 0.24266 0.2657 0.0
H25 H 0.24155 0.25846 0.23305 0.0
H26 H 0.30159 0.24683 0.27289 0.0
H27 H 0.2755 0.22926 0.30506 0.0
H28 H 0.26841 0.28913 0.2222 0.0
H29 H 0.3126 0.23945 0.23152 0.0
H30 H 0.3246 0.28419 0.17105 0.0
H31 H 0.33123 0.24981 0.15375 0.0
H32 H 0.35437 0.24404 0.22691 0.0
H33 H 0.38202 0.2201 0.21185 0.0
H34 H 0.2517 0.2833 0.17856 0.0
H35 H 0.31761 0.3277 0.17534 0.0
H36 H 0.35922 0.22646 0.13879 0.0
H37 H 0.2343 0.30846 0.15338 0.0
H38 H 0.30001 0.35325 0.14991 0.0
C39 C 0.35746 0.89324 0.67985 0.0
C40 C 0.38188 0.89671 0.68208 0.0
C41 C 0.3475 0.89122 0.65704 0.0
C42 C 0.36166 0.89285 0.63579 0.0
C43 C 0.38609 0.89612 0.63794 0.0
C44 C 0.39609 0.89803 0.66085 0.0
C45 C 0.35078 0.89103 0.61159 0.0
C46 C 0.33066 0.90066 0.60783 0.0
C47 C 0.31919 0.89772 0.58568 0.0
C48 C 0.32802 0.88516 0.56699 0.0
C49 C 0.34816 0.87558 0.57037 0.0
C50 C 0.35962 0.87875 0.59256 0.0
C51 C 0.35584 0.86028 0.55178 0.0
C52 C 0.34053 0.84115 0.5448 0.0
C53 C 0.37885 0.8637 0.54239 0.0
C54 C 0.38667 0.84778 0.52684 0.0
C55 C 0.37179 0.82785 0.52096 0.0
C56 C 0.29736 0.90694 0.58251 0.0
C57 C 0.27903 0.9029 0.5999 0.0
C58 C 0.29465 0.91966 0.56208 0.0
C59 C 0.274 0.92838 0.55921 0.0
C60 C 0.25561 0.9242 0.5765 0.0
C61 C 0.25824 0.91132 0.59682 0.0
C62 C 0.34844 0.825 0.52976 0.0
H63 H 0.34594 0.89249 0.69575 0.0
H64 H 0.32862 0.88829 0.65609 0.0
H65 H 0.39749 0.89754 0.62193 0.0
H66 H 0.41496 0.90049 0.66191 0.0
H67 H 0.32385 0.91054 0.62216 0.0
H68 H 0.37466 0.87059 0.59541 0.0
H69 H 0.31888 0.88231 0.55004 0.0
H70 H 0.32274 0.83811 0.55207 0.0
H71 H 0.39088 0.87848 0.54746 0.0
H72 H 0.4046 0.85081 0.52006 0.0
H73 H 0.28068 0.89298 0.61571 0.0
H74 H 0.30859 0.92301 0.54849 0.0
H75 H 0.33652 0.80976 0.52622 0.0
H76 H 0.24431 0.90794 0.61042 0.0
H77 H 0.27226 0.93814 0.54329 0.0
C78 C 0.73671 0.4138 0.88144 0.0
C79 C 0.75305 0.40142 0.8908 0.0
C80 C 0.71597 0.40317 0.87081 0.0
C81 C 0.71079 0.3797 0.8689 0.0
C82 C 0.72728 0.36735 0.87799 0.0
C83 C 0.74785 0.37796 0.88885 0.0
C84 C 0.68833 0.36812 0.85783 0.0
C85 C 0.67774 0.37787 0.83875 0.0
C86 C 0.65684 0.36711 0.82823 0.0
C87 C 0.64643 0.34607 0.83728 0.0
C88 C 0.65654 0.33585 0.85632 0.0
C89 C 0.67735 0.34712 0.86635 0.0
C90 C 0.64555 0.31343 0.86605 0.0
C91 C 0.62149 0.30867 0.87194 0.0
C92 C 0.65931 0.2968 0.87034 0.0
C93 C 0.64943 0.27616 0.88031 0.0
C94 C 0.62542 0.27143 0.88683 0.0
C95 C 0.64612 0.37786 0.80769 0.0
C96 C 0.64452 0.40079 0.80839 0.0
C97 C 0.6377 0.36546 0.78702 0.0
C98 C 0.62833 0.37569 0.7676 0.0
C99 C 0.62665 0.3987 0.76821 0.0
C100 C 0.63483 0.41096 0.78917 0.0
C101 C 0.61164 0.28814 0.88233 0.0
H102 H 0.73993 0.43185 0.88207 0.0
H103 H 0.70384 0.41347 0.8644 0.0
H104 H 0.72447 0.34932 0.87663 0.0
H105 H 0.75952 0.36756 0.89601 0.0
H106 H 0.68613 0.39365 0.83147 0.0
H107 H 0.68466 0.33963 0.88143 0.0
H108 H 0.63043 0.3376 0.82948 0.0
H109 H 0.61035 0.3211 0.86918 0.0
H110 H 0.67784 0.29967 0.86577 0.0
H111 H 0.66079 0.26387 0.88267 0.0
H112 H 0.65048 0.41092 0.82406 0.0
H113 H 0.63885 0.34785 0.78556 0.0
H114 H 0.59323 0.28569 0.88731 0.0
H115 H 0.63352 0.4285 0.79105 0.0
H116 H 0.62282 0.36547 0.75188 0.0
C117 C 0.86881 0.64725 0.27088 0.0
C118 C 0.89307 0.64706 0.26896 0.0
C119 C 0.85889 0.65741 0.29089 0.0
C120 C 0.87291 0.66783 0.30961 0.0
C121 C 0.89721 0.66782 0.30759 0.0
C122 C 0.90712 0.65754 0.28763 0.0
C123 C 0.86216 0.67839 0.33117 0.0
C124 C 0.84081 0.66798 0.34175 0.0
C125 C 0.8304 0.6776 0.36195 0.0
C126 C 0.8415 0.69818 0.37133 0.0
C127 C 0.86276 0.70904 0.36117 0.0
C128 C 0.87308 0.69887 0.34126 0.0
C129 C 0.87387 0.73111 0.37144 0.0
C130 C 0.86025 0.74787 0.37722 0.0
C131 C 0.89789 0.73542 0.37627 0.0
C132 C 0.9079 0.75575 0.38704 0.0
C133 C 0.89422 0.77246 0.39292 0.0
C134 C 0.80803 0.66619 0.37349 0.0
C135 C 0.78937 0.65604 0.35929 0.0
C136 C 0.80506 0.66564 0.39892 0.0
C137 C 0.78399 0.65551 0.40985 0.0
C138 C 0.76513 0.64567 0.39571 0.0
C139 C 0.76821 0.64599 0.37023 0.0
C140 C 0.87029 0.76827 0.38766 0.0
H141 H 0.85733 0.63922 0.25707 0.0
H142 H 0.84017 0.65724 0.29157 0.0
H143 H 0.9086 0.67549 0.32166 0.0
H144 H 0.92588 0.65799 0.28675 0.0
H145 H 0.83257 0.65197 0.33468 0.0
H146 H 0.88925 0.70729 0.33312 0.0
H147 H 0.83354 0.70583 0.38669 0.0
H148 H 0.84174 0.74524 0.37359 0.0
H149 H 0.90888 0.72286 0.3722 0.0
H150 H 0.92641 0.75844 0.39063 0.0
H151 H 0.79091 0.65632 0.33966 0.0
H152 H 0.81915 0.67288 0.41048 0.0
H153 H 0.85915 0.78062 0.39208 0.0
H154 H 0.75409 0.6389 0.35865 0.0
H155 H 0.78263 0.65522 0.42948 0.0
C156 C 0.75469 0.78387 0.73826 0.0
C157 C 0.76293 0.80658 0.73413 0.0
C158 C 0.741 0.77728 0.75899 0.0
C159 C 0.73521 0.79328 0.77596 0.0
C160 C 0.74271 0.81599 0.77133 0.0
C161 C 0.75641 0.82255 0.75073 0.0
C162 C 0.7233 0.78653 0.7995 0.0
C163 C 0.7308 0.76986 0.81316 0.0
C164 C 0.72243 0.76571 0.8371 0.0
C165 C 0.70605 0.77834 0.84725 0.0
C166 C 0.69825 0.79506 0.83376 0.0
C167 C 0.70661 0.79864 0.80973 0.0
C168 C 0.68324 0.81029 0.84532 0.0
C169 C 0.6644 0.80223 0.86107 0.0
C170 C 0.68822 0.83334 0.84108 0.0
C171 C 0.67481 0.84799 0.85232 0.0
C172 C 0.65614 0.84003 0.86827 0.0
C173 C 0.73313 0.7501 0.8521 0.0
C174 C 0.73809 0.7298 0.84213 0.0
C175 C 0.74074 0.75647 0.87557 0.0
C176 C 0.75411 0.74346 0.88819 0.0
C177 C 0.76019 0.7238 0.87764 0.0
C178 C 0.75145 0.71678 0.85476 0.0
C179 C 0.65093 0.81695 0.87238 0.0
H180 H 0.75915 0.77116 0.72568 0.0
H181 H 0.7353 0.75966 0.76199 0.0
H182 H 0.73898 0.82873 0.78426 0.0
H183 H 0.76282 0.84015 0.74849 0.0
H184 H 0.74449 0.7612 0.80575 0.0
H185 H 0.70063 0.81141 0.79913 0.0
H186 H 0.70012 0.77576 0.86597 0.0
H187 H 0.66005 0.78456 0.86463 0.0
H188 H 0.70283 0.84021 0.82938 0.0
H189 H 0.67913 0.86561 0.84849 0.0
H190 H 0.73228 0.72436 0.82417 0.0
H191 H 0.7374 0.77209 0.8837 0.0
H192 H 0.63676 0.81032 0.88473 0.0
H193 H 0.75589 0.70179 0.84605 0.0
H194 H 0.76029 0.74914 0.90595 0.0
C195 C 0.64584 0.132 0.39405 0.0
C196 C 0.64535 0.14945 0.3778 0.0
C197 C 0.65505 0.13643 0.4171 0.0
C198 C 0.66359 0.15842 0.42441 0.0
C199 C 0.6626 0.17592 0.40835 0.0
C200 C 0.65372 0.17146 0.38518 0.0
C201 C 0.67425 0.16303 0.44841 0.0
C202 C 0.69171 0.15115 0.45566 0.0
C203 C 0.7029 0.15616 0.47784 0.0
C204 C 0.69595 0.17295 0.49304 0.0
C205 C 0.67874 0.18516 0.48585 0.0
C206 C 0.66791 0.18004 0.46353 0.0
C207 C 0.67315 0.20425 0.50083 0.0
C208 C 0.6694 0.20246 0.5261 0.0
C209 C 0.67183 0.22461 0.48975 0.0
C210 C 0.66665 0.24275 0.50353 0.0
C211 C 0.66266 0.241 0.52875 0.0
C212 C 0.72295 0.14502 0.48417 0.0
C213 C 0.72295 0.12232 0.47856 0.0
C214 C 0.74279 0.15734 0.49481 0.0
C215 C 0.76226 0.14731 0.49939 0.0
C216 C 0.76252 0.12478 0.49318 0.0
C217 C 0.74254 0.11234 0.4829 0.0
C218 C 0.66402 0.22066 0.53995 0.0
H219 H 0.63966 0.11487 0.3887 0.0
H220 H 0.65555 0.12267 0.42921 0.0
H221 H 0.66925 0.19301 0.41352 0.0
H222 H 0.65343 0.1852 0.37298 0.0
H223 H 0.69735 0.13874 0.44339 0.0
H224 H 0.65447 0.1893 0.45792 0.0
H225 H 0.70445 0.17703 0.51017 0.0
H226 H 0.67024 0.18689 0.53507 0.0
H227 H 0.67493 0.22656 0.47036 0.0
H228 H 0.66525 0.25806 0.49428 0.0
H229 H 0.70786 0.11228 0.4706 0.0
H230 H 0.74358 0.17493 0.49906 0.0
H231 H 0.66094 0.21886 0.55934 0.0
H232 H 0.74219 0.095 0.47768 0.0
H233 H 0.77717 0.1573 0.50772 0.0
C234 C 0.27218 0.65815 0.18637 0.0
C235 C 0.27111 0.65466 0.16103 0.0
C236 C 0.29299 0.66832 0.19719 0.0
C237 C 0.31319 0.67581 0.18295 0.0
C238 C 0.31207 0.67241 0.15762 0.0
C239 C 0.29145 0.66178 0.14685 0.0
C240 C 0.33515 0.6876 0.19432 0.0
C241 C 0.34487 0.67844 0.21426 0.0
C242 C 0.36549 0.68941 0.22525 0.0
C243 C 0.37628 0.71011 0.21537 0.0
C244 C 0.36707 0.71968 0.19516 0.0
C245 C 0.34636 0.70812 0.18508 0.0
C246 C 0.37876 0.7417 0.18447 0.0
C247 C 0.39144 0.75867 0.19889 0.0
C248 C 0.37703 0.74618 0.15954 0.0
C249 C 0.38696 0.76682 0.14965 0.0
C250 C 0.39951 0.78368 0.1641 0.0
C251 C 0.37569 0.6791 0.24677 0.0
C252 C 0.36144 0.66427 0.26258 0.0
C253 C 0.39981 0.6837 0.25179 0.0
C254 C 0.40913 0.67404 0.27165 0.0
C255 C 0.39486 0.65896 0.28693 0.0
C256 C 0.37089 0.65418 0.28201 0.0
C257 C 0.4018 0.77919 0.18884 0.0
H258 H 0.25694 0.65279 0.19788 0.0
H259 H 0.29315 0.67075 0.21672 0.0
H260 H 0.32728 0.67788 0.14608 0.0
H261 H 0.29128 0.6595 0.12731 0.0
H262 H 0.3365 0.66233 0.22064 0.0
H263 H 0.33837 0.71532 0.17027 0.0
H264 H 0.39197 0.71886 0.22339 0.0
H265 H 0.39306 0.7564 0.21816 0.0
H266 H 0.36817 0.73364 0.14737 0.0
H267 H 0.38512 0.76945 0.13046 0.0
H268 H 0.34276 0.6605 0.26028 0.0
H269 H 0.41182 0.69447 0.24017 0.0
H270 H 0.41118 0.7918 0.20061 0.0
H271 H 0.35929 0.64287 0.29353 0.0
H272 H 0.42771 0.67799 0.27474 0.0
C273 C 0.15441 0.28619 0.66209 0.0
C274 C 0.13017 0.27899 0.66361 0.0
C275 C 0.16439 0.30657 0.67258 0.0
C276 C 0.15041 0.32077 0.6845 0.0
C277 C 0.12608 0.3134 0.68614 0.0
C278 C 0.11614 0.29273 0.67602 0.0
C279 C 0.16131 0.34313 0.69474 0.0
C280 C 0.18148 0.3551 0.68341 0.0
C281 C 0.19303 0.37538 0.69316 0.0
C282 C 0.18321 0.38435 0.71417 0.0
C283 C 0.16254 0.37331 0.72557 0.0
C284 C 0.15197 0.35255 0.71581 0.0
C285 C 0.15204 0.38355 0.74759 0.0
C286 C 0.16629 0.3956 0.7652 0.0
C287 C 0.12762 0.38188 0.75094 0.0
C288 C 0.11782 0.39215 0.77098 0.0
C289 C 0.13209 0.40453 0.78838 0.0
C290 C 0.21548 0.38684 0.68148 0.0
C291 C 0.23138 0.37429 0.67013 0.0
C292 C 0.22141 0.41028 0.68155 0.0
C293 C 0.2425 0.42072 0.67077 0.0
C294 C 0.2583 0.40813 0.65926 0.0
C295 C 0.25222 0.38471 0.65903 0.0
C296 C 0.1565 0.40594 0.78518 0.0
H297 H 0.16578 0.27586 0.65302 0.0
H298 H 0.18322 0.31105 0.67144 0.0
H299 H 0.11454 0.32376 0.69481 0.0
H300 H 0.09737 0.28772 0.6774 0.0
H301 H 0.18808 0.34875 0.66654 0.0
H302 H 0.13678 0.34346 0.72505 0.0
H303 H 0.19169 0.40004 0.7217 0.0
H304 H 0.18513 0.39706 0.76364 0.0
H305 H 0.11596 0.37298 0.7378 0.0
H306 H 0.09897 0.39029 0.77282 0.0
H307 H 0.22793 0.35624 0.66995 0.0
H308 H 0.20968 0.4207 0.68974 0.0
H309 H 0.16821 0.41544 0.79788 0.0
H310 H 0.26344 0.37423 0.65006 0.0
H311 H 0.24646 0.43874 0.67177 0.0
Sm312 Sm 0.01354 0.03429 0.50581 0.0
Sm313 Sm 0.00835 1.01564 0.55526 0.0
C314 C 0.01543 0.05832 0.46605 0.0
C315 C 0.0317 0.0769 0.45543 0.0
C316 C 0.04197 0.09499 0.46977 0.0
C317 C 0.05884 0.11153 0.45966 0.0
C318 C 0.06581 0.1102 0.43507 0.0
C319 C 0.05519 0.09218 0.42075 0.0
C320 C 0.03827 0.07574 0.43084 0.0
C321 C 0.05006 1.01379 0.519 0.0
C322 C 0.03298 0.06665 0.55286 0.0
C323 C 1.00589 0.99032 0.59404 0.0
C324 C 0.98948 0.97067 0.60239 0.0
C325 C 0.9846 0.9513 0.5878 0.0
C326 C 0.96696 0.93396 0.59479 0.0
C327 C 0.95375 0.93583 0.61631 0.0
C328 C 0.95917 0.95486 0.63124 0.0
C329 C 0.97695 0.97206 0.62439 0.0
C330 C 0.97153 0.03603 0.54216 0.0
C331 C 0.98891 0.98347 0.50846 0.0
O332 O 1.00358 0.0626 0.48574 0.0
O333 O 0.02338 0.03937 0.46689 0.0
O334 O 0.04043 0.02695 0.53225 0.0
O335 O 0.04102 1.01127 0.49774 0.0
O336 O 0.02535 0.06573 0.53035 0.0
O337 O 0.03162 0.04835 0.5657 0.0
O338 O 0.01933 0.98761 0.57504 0.0
O339 O 0.99725 1.00894 0.59363 0.0
O340 O 0.98142 0.02311 0.5288 0.0
O341 O 0.98024 0.03787 0.5636 0.0
O342 O 0.99805 0.98426 0.53026 0.0
O343 O 0.98886 1.00202 0.49641 0.0
H344 H 0.03723 0.09619 0.48885 0.0
H345 H 0.06645 0.12531 0.47112 0.0
H346 H 0.0604 0.09038 0.40187 0.0
H347 H 0.03071 0.0618 0.41955 0.0
H348 H 0.99388 0.94978 0.57065 0.0
H349 H 0.96305 0.91949 0.58293 0.0
H350 H 0.94942 0.95656 0.64807 0.0
H351 H 0.98041 0.9868 0.63594 0.0
Sm352 Sm 0.53571 0.03316 0.03941 0.0
Sm353 Sm 0.4921 1.02203 1.01508 0.0
C354 C 0.57291 0.05319 0.06247 0.0
C355 C 0.57779 0.06177 0.08725 0.0
C356 C 0.59088 0.08302 0.09059 0.0
C357 C 0.59496 0.09182 0.11397 0.0
C358 C 0.58611 0.07946 0.13447 0.0
C359 C 0.57307 0.05809 0.131 0.0
C360 C 0.56883 0.04939 0.10763 0.0
C361 C 0.51001 0.99343 0.05607 0.0
C362 C 0.48971 0.05342 0.06114 0.0
C363 C 0.45553 1.00149 0.99141 0.0
C364 C 0.45212 0.99029 0.96744 0.0
C365 C 0.44604 0.96697 0.96599 0.0
C366 C 0.44352 0.95607 0.94342 0.0
C367 C 0.44688 0.96829 0.92184 0.0
C368 C 0.45282 0.99163 0.92335 0.0
C369 C 0.45545 1.00251 0.94588 0.0
C370 C 0.51757 0.06201 0.99896 0.0
C371 C 0.53787 1.00183 0.99336 0.0
O372 O 0.55963 0.06395 0.04991 0.0
O373 O 0.56793 0.03156 0.05964 0.0
O374 O 0.50163 1.01103 0.05195 0.0
O375 O 0.53243 0.9968 0.05219 0.0
O376 O 0.51267 0.05629 0.05877 0.0
O377 O 0.47675 0.03787 0.04844 0.0
O378 O 0.46664 0.99157 1.00717 0.0
O379 O 0.46176 0.02314 0.9917 0.0
O380 O 0.5261 0.04437 1.00264 0.0
O381 O 0.49518 0.05856 1.00317 0.0
O382 O 0.51499 0.99847 0.9964 0.0
O383 O 0.55071 1.01795 1.00538 0.0
H384 H 0.59773 0.09291 0.07508 0.0
H385 H 0.60476 0.10845 0.11594 0.0
H386 H 0.5663 0.04796 0.14635 0.0
H387 H 0.5585 0.033 0.10553 0.0
H388 H 0.4434 0.95714 0.98233 0.0
H389 H 0.43912 0.93806 0.9429 0.0
H390 H 0.45509 1.00159 0.90711 0.0
H391 H 0.4601 1.0205 0.94632 0.0
Sm392 Sm 0.51746 0.50979 0.50874 0.0
Sm393 Sm 0.50455 0.54988 0.54663 0.0
C394 C 0.54308 0.4858 0.48244 0.0
C395 C 0.55155 0.46469 0.48734 0.0
C396 C 0.57546 0.46505 0.49103 0.0
C397 C 0.58343 0.4465 0.50035 0.0
C398 C 0.56768 0.42704 0.50581 0.0
C399 C 0.54391 0.42626 0.50069 0.0
C400 C 0.53589 0.44495 0.49169 0.0
C401 C 0.47587 0.49699 0.53474 0.0
C402 C 0.53014 0.50915 0.56819 0.0
C403 C 0.47951 0.57539 0.5716 0.0
C404 C 0.47178 0.59603 0.56411 0.0
C405 C 0.44996 0.60096 0.5721 0.0
C406 C 0.44082 0.6185 0.56177 0.0
C407 C 0.4534 0.6313 0.54331 0.0
C408 C 0.47549 0.62658 0.53576 0.0
C409 C 0.48454 0.60903 0.54598 0.0
C410 C 0.54645 0.56218 0.52082 0.0
C411 C 0.49151 0.55032 0.48727 0.0
O412 O 0.55207 0.50266 0.49622 0.0
O413 O 0.52054 0.48491 0.47921 0.0
O414 O 0.48946 0.51533 0.53539 0.0
O415 O 0.48447 0.48386 0.5191 0.0
O416 O 0.53218 0.50092 0.54574 0.0
O417 O 0.51964 0.5268 0.57328 0.0
O418 O 0.47017 0.55768 0.55936 0.0
O419 O 0.50207 0.57633 0.57458 0.0
O420 O 0.53194 0.54451 0.51938 0.0
O421 O 0.53877 0.5748 0.53762 0.0
O422 O 0.48984 0.55872 0.50967 0.0
O423 O 0.50181 0.53255 0.48223 0.0
H424 H 0.58786 0.48011 0.4879 0.0
H425 H 0.6018 0.44785 0.50426 0.0
H426 H 0.53139 0.41136 0.5041 0.0
H427 H 0.51733 0.44413 0.48903 0.0
H428 H 0.43969 0.59081 0.58573 0.0
H429 H 0.42383 0.62193 0.56806 0.0
H430 H 0.48542 0.63596 0.52135 0.0
H431 H 0.50114 0.60509 0.53906 0.0
Sm432 Sm 0.01729 0.50821 0.03392 0.0
Sm433 Sm 1.00726 0.55123 1.01649 0.0
C434 C 0.02765 0.46758 0.03909 0.0
C435 C 0.04948 0.45897 0.04317 0.0
C436 C 0.07087 0.47347 0.04276 0.0
C437 C 0.09152 0.46562 0.04809 0.0
C438 C 0.09113 0.44309 0.05383 0.0
C439 C 0.0697 0.42849 0.05356 0.0
C440 C 0.04902 0.43641 0.04833 0.0
C441 C 0.99684 0.53242 0.06926 0.0
C442 C 0.05645 0.55047 0.04543 0.0
C443 C 0.99811 0.59194 1.00892 0.0
C444 C 0.9792 0.60141 0.99771 0.0
C445 C 0.97277 0.62121 1.00719 0.0
C446 C 0.95437 0.63009 0.99725 0.0
C447 C 0.94209 0.61936 0.97753 0.0
C448 C 0.94862 0.59943 0.96812 0.0
C449 C 0.96692 0.59048 0.9782 0.0
C450 C 0.02789 0.52642 0.98179 0.0
C451 C 0.96743 0.50911 1.00536 0.0
O452 O 0.02615 0.47661 1.01797 0.0
O453 O 0.02025 0.47927 0.05703 0.0
O454 O 0.99069 0.53007 0.04739 0.0
O455 O 0.01353 0.5211 0.07324 0.0
O456 O 0.05349 0.52886 0.04057 0.0
O457 O 0.03976 0.56223 0.04062 0.0
O458 O 0.99248 0.58126 0.02912 0.0
O459 O 0.01145 0.58184 0.99437 0.0
O460 O 0.0341 0.5296 1.00352 0.0
O461 O 0.01045 0.53675 0.9776 0.0
O462 O 0.97131 0.53104 1.00785 0.0
O463 O 0.98321 0.49702 1.01218 0.0
H464 H 0.07157 0.49093 0.03863 0.0
H465 H 0.10778 0.47719 0.04782 0.0
H466 H 0.06882 0.41109 0.0581 0.0
H467 H 0.03263 0.42502 0.04869 0.0
H468 H 0.98186 0.62971 1.02245 0.0
H469 H 0.94956 0.64522 1.00527 0.0
H470 H 0.93977 0.59084 0.9528 0.0
H471 H 0.97146 0.57501 0.97076 0.0
H472 H 0.24856 0.23572 0.33758 0.0
H473 H 0.22061 0.21813 0.36848 0.0
H474 H 0.1738 0.19088 0.31224 0.0
H475 H 0.20179 0.20738 0.28136 0.0
H476 H 0.15322 0.21483 0.35137 0.0
H477 H 0.2032 0.15772 0.33679 0.0
H478 H 0.24114 0.14409 0.33615 0.0
H479 H 0.24849 0.15996 0.4121 0.0
H480 H 0.2107 0.17398 0.41309 0.0
H481 H 0.06778 0.1283 0.38985 0.0
H482 H 0.09991 0.15336 0.37101 0.0
H483 H 0.13808 0.15634 0.43739 0.0
H484 H 0.1064 0.13014 0.45601 0.0
H485 H 0.16607 0.15062 0.40082 0.0
H486 H 0.11406 0.20182 0.4181 0.0
H487 H 0.07672 0.21651 0.42031 0.0
H488 H 0.07393 0.21462 0.3425 0.0
H489 H 0.11108 0.1996 0.3398 0.0
C490 C 0.23247 0.22571 0.33178 0.0
C491 C 0.22732 0.2232 0.30695 0.0
C492 C 0.21649 0.21583 0.34946 0.0
C493 C 0.19512 0.20344 0.34256 0.0
C494 C 0.1901 0.20065 0.31789 0.0
C495 C 0.2061 0.21022 0.30027 0.0
C496 C 0.17762 0.19329 0.36077 0.0
C497 C 0.15593 0.20077 0.36221 0.0
C498 C 0.18165 0.17562 0.37558 0.0
C499 C 0.20431 0.16717 0.37494 0.0
C500 C 0.21302 0.15851 0.35329 0.0
C501 C 0.23447 0.15067 0.35287 0.0
C502 C 0.24726 0.15123 0.37405 0.0
C503 C 0.23859 0.15958 0.3957 0.0
C504 C 0.21716 0.16747 0.3962 0.0
C505 C 0.08301 0.1342 0.40047 0.0
C506 C 0.08452 0.1271 0.42441 0.0
C507 C 0.10127 0.14882 0.38977 0.0
C508 C 0.1213 0.15704 0.4029 0.0
C509 C 0.12274 0.15032 0.42696 0.0
C510 C 0.10451 0.1355 0.43764 0.0
C511 C 0.14115 0.17157 0.39079 0.0
C512 C 0.16336 0.16499 0.39049 0.0
C513 C 0.1377 0.19035 0.3773 0.0
C514 C 0.11534 0.19946 0.37877 0.0
C515 C 0.10542 0.20439 0.40145 0.0
C516 C 0.08429 0.2128 0.40279 0.0
C517 C 0.07294 0.21647 0.38156 0.0
C518 C 0.08274 0.21178 0.35893 0.0
C519 C 0.10386 0.20335 0.35749 0.0
H520 H 0.05658 0.22298 0.38263 0.0
H521 H 0.26386 0.14514 0.37369 0.0
H522 H 0.4204 0.92601 0.69594 0.0
H523 H 0.43479 0.93347 0.73704 0.0
H524 H 0.38073 0.88247 0.76477 0.0
H525 H 0.36669 0.87433 0.7237 0.0
H526 H 0.38185 0.92437 0.78752 0.0
H527 H 0.43454 0.87323 0.76533 0.0
H528 H 0.46442 0.85844 0.73978 0.0
H529 H 0.5121 0.91933 0.75037 0.0
H530 H 0.48237 0.93463 0.7757 0.0
H531 H 0.413 0.93356 0.90939 0.0
H532 H 0.4053 0.91711 0.86911 0.0
H533 H 0.46445 0.96143 0.83937 0.0
H534 H 0.47293 0.97728 0.87986 0.0
H535 H 0.46114 0.92137 0.81771 0.0
H536 H 0.40941 0.97397 0.83636 0.0
H537 H 0.38012 0.99097 0.86053 0.0
H538 H 0.33128 0.93023 0.8547 0.0
H539 H 0.36042 0.91275 0.83077 0.0
C540 C 0.41193 0.91597 0.71066 0.0
C541 C 0.39223 0.89971 0.70652 0.0
C542 C 0.42014 0.92031 0.73414 0.0
C543 C 0.40878 0.90853 0.75388 0.0
C544 C 0.38966 0.89179 0.74974 0.0
C545 C 0.38157 0.88729 0.72628 0.0
C546 C 0.41552 0.91496 0.77902 0.0
C547 C 0.39904 0.92333 0.79429 0.0
C548 C 0.43822 0.91432 0.78744 0.0
C549 C 0.45613 0.90516 0.77222 0.0
C550 C 0.45132 0.88356 0.76202 0.0
C551 C 0.46824 0.87506 0.74762 0.0
C552 C 0.49012 0.88796 0.7434 0.0
C553 C 0.49513 0.90937 0.75363 0.0
C554 C 0.47826 0.91795 0.76803 0.0
C555 C 0.4247 0.93948 0.89441 0.0
C556 C 0.44342 0.95694 0.8978 0.0
C557 C 0.42014 0.9302 0.87134 0.0
C558 C 0.434 0.93838 0.85116 0.0
C559 C 0.45341 0.95499 0.85466 0.0
C560 C 0.45808 0.9642 0.87776 0.0
C561 C 0.42737 0.93062 0.82628 0.0
C562 C 0.44387 0.92219 0.81102 0.0
C563 C 0.40477 0.93151 0.81764 0.0
C564 C 0.38719 0.94197 0.83201 0.0
C565 C 0.39249 0.96418 0.8404 0.0
C566 C 0.37591 0.97391 0.85403 0.0
C567 C 0.35388 0.96167 0.85921 0.0
C568 C 0.34837 0.93968 0.85071 0.0
C569 C 0.36491 0.92985 0.83711 0.0
H570 H 0.34106 0.96923 0.86976 0.0
H571 H 0.50321 0.88135 0.73225 0.0
H572 H 0.59318 0.38034 0.73513 0.0
H573 H 0.57746 0.39827 0.70138 0.0
H574 H 0.62006 0.46062 0.71989 0.0
H575 H 0.63684 0.44274 0.75295 0.0
H576 H 0.57184 0.46427 0.71093 0.0
H577 H 0.63643 0.43378 0.66882 0.0
H578 H 0.65755 0.40226 0.65911 0.0
H579 H 0.59447 0.36384 0.63258 0.0
H580 H 0.57309 0.39527 0.64185 0.0
H581 H 0.55066 0.52779 0.60977 0.0
H582 H 0.56754 0.5093 0.64239 0.0
H583 H 0.54737 0.44563 0.60647 0.0
H584 H 0.53239 0.46451 0.57282 0.0
H585 H 0.58344 0.4412 0.62517 0.0
H586 H 0.51828 0.46833 0.66246 0.0
H587 H 0.49227 0.49533 0.67472 0.0
H588 H 0.5479 0.53407 0.71402 0.0
H589 H 0.57433 0.50743 0.70174 0.0
C590 C 0.59967 0.39778 0.73198 0.0
C591 C 0.61656 0.40982 0.74727 0.0
C592 C 0.59043 0.40811 0.71256 0.0
C593 C 0.59751 0.4309 0.70782 0.0
C594 C 0.61411 0.44306 0.72308 0.0
C595 C 0.62363 0.4327 0.74228 0.0
C596 C 0.58758 0.44209 0.68712 0.0
C597 C 0.57464 0.45946 0.69214 0.0
C598 C 0.59017 0.43527 0.66258 0.0
C599 C 0.6032 0.4168 0.65607 0.0
C600 C 0.62711 0.41861 0.66087 0.0
C601 C 0.63912 0.40078 0.65544 0.0
C602 C 0.62733 0.38102 0.64533 0.0
C603 C 0.60355 0.37911 0.64051 0.0
C604 C 0.59153 0.39699 0.64564 0.0
C605 C 0.5498 0.50984 0.60884 0.0
C606 C 0.53996 0.49771 0.58863 0.0
C607 C 0.5593 0.4991 0.62777 0.0
C608 C 0.55832 0.47568 0.6278 0.0
C609 C 0.54855 0.46361 0.6074 0.0
C610 C 0.53979 0.47446 0.58806 0.0
C611 C 0.56761 0.46387 0.64873 0.0
C612 C 0.58048 0.44625 0.64384 0.0
C613 C 0.56414 0.46992 0.67355 0.0
C614 C 0.54835 0.48601 0.68096 0.0
C615 C 0.525 0.48268 0.67358 0.0
C616 C 0.51018 0.49791 0.68055 0.0
C617 C 0.51845 0.51643 0.69508 0.0
C618 C 0.54154 0.51973 0.70273 0.0
C619 C 0.55644 0.50457 0.69579 0.0
H620 H 0.50695 0.5282 0.70046 0.0
H621 H 0.63664 0.36724 0.64112 0.0
H622 H 0.92844 0.62155 0.26874 0.0
H623 H 0.94538 0.60321 0.23421 0.0
H624 H 0.89866 0.62861 0.18622 0.0
H625 H 0.88153 0.64691 0.22074 0.0
H626 H 0.90093 0.58686 0.17412 0.0
H627 H 0.95836 0.6511 0.18952 0.0
H628 H 0.98572 0.677 0.21413 0.0
H629 H 0.0239 0.62399 0.22973 0.0
H630 H 0.99658 0.59769 0.20548 0.0
H631 H 0.96117 0.55731 0.06533 0.0
H632 H 0.94326 0.57783 0.0978 0.0
H633 H 0.98859 0.5555 0.14966 0.0
H634 H 1.00685 0.53563 0.11728 0.0
H635 H 0.98664 0.59728 0.15846 0.0
H636 H 0.92836 0.53276 0.14437 0.0
H637 H 0.90106 0.50682 0.11975 0.0
H638 H 0.86462 0.56039 0.10154 0.0
H639 H 0.8919 0.58671 0.12583 0.0
C640 C 0.92189 0.62347 0.25083 0.0
C641 C 0.90361 0.63589 0.24768 0.0
C642 C 0.93163 0.61292 0.231 0.0
C643 C 0.92363 0.61469 0.20734 0.0
C644 C 0.90523 0.62689 0.20417 0.0
C645 C 0.89539 0.63736 0.22403 0.0
C646 C 0.93429 0.6037 0.18602 0.0
C647 C 0.91966 0.58943 0.17053 0.0
C648 C 0.95878 0.60659 0.18135 0.0
C649 C 0.97529 0.62239 0.19586 0.0
C650 C 0.97249 0.64493 0.19834 0.0
C651 C 0.98801 0.65969 0.2122 0.0
C652 C 1.0065 0.65213 0.22353 0.0
C653 C 0.00955 0.62981 0.22097 0.0
C654 C 0.99407 0.61498 0.20715 0.0
C655 C 0.96728 0.5568 0.08366 0.0
C656 C 0.98541 0.54475 0.08869 0.0
C657 C 0.95694 0.56845 0.1023 0.0
C658 C 0.96428 0.56811 0.12645 0.0
C659 C 0.9825 0.55615 0.13132 0.0
C660 C 0.9929 0.54467 0.11274 0.0
C661 C 0.95332 0.58022 0.14671 0.0
C662 C 0.9679 0.59475 0.16199 0.0
C663 C 0.9288 0.57756 0.15118 0.0
C664 C 0.91231 0.56174 0.13671 0.0
C665 C 0.91462 0.53903 0.13498 0.0
C666 C 0.89914 0.52426 0.12111 0.0
C667 C 0.88116 0.53196 0.10903 0.0
C668 C 0.87858 0.55445 0.11087 0.0
C669 C 0.89403 0.5693 0.1247 0.0
H670 H 0.86919 0.5205 0.09829 0.0
H671 H 0.01849 0.66358 0.23426 0.0
H672 H 0.37721 0.18126 0.19347 0.0
H673 H 0.39953 0.15327 0.17666 0.0
H674 H 0.42487 0.19717 0.11772 0.0
H675 H 0.40219 0.22505 0.13427 0.0
H676 H 0.41058 0.1578 0.10031 0.0
H677 H 0.46063 0.18631 0.16448 0.0
H678 H 0.47137 0.19766 0.20638 0.0
H679 H 0.44955 0.13045 0.23007 0.0
H680 H 0.43837 0.11875 0.18835 0.0
H681 H 0.51131 0.08844 0.08824 0.0
H682 H 0.49315 0.11698 0.10993 0.0
H683 H 0.4249 0.08238 0.09167 0.0
H684 H 0.44293 0.05392 0.06947 0.0
H685 H 0.46325 0.1187 0.14729 0.0
H686 H 0.39069 0.12042 0.07742 0.0
H687 H 0.3841 0.11207 0.03393 0.0
H688 H 0.45813 0.12478 1.01907 0.0
H689 H 0.46512 0.13353 0.06238 0.0
C690 C 0.38786 0.18508 0.17716 0.0
C691 C 0.38798 0.20534 0.16517 0.0
C692 C 0.40063 0.16908 0.16756 0.0
C693 C 0.41404 0.17315 0.146 0.0
C694 C 0.41459 0.1936 0.13432 0.0
C695 C 0.40164 0.20952 0.14378 0.0
C696 C 0.42645 0.15564 0.13492 0.0
C697 C 0.42211 0.1493 0.11063 0.0
C698 C 0.4418 0.14473 0.14819 0.0
C699 C 0.44846 0.1517 0.17332 0.0
C700 C 0.45794 0.17399 0.17866 0.0
C701 C 0.46414 0.18048 0.20237 0.0
C702 C 0.46109 0.1648 0.22089 0.0
C703 C 0.45187 0.14258 0.21572 0.0
C704 C 0.44563 0.13601 0.19203 0.0
C705 C 0.49241 0.08673 0.08902 0.0
C706 C 0.47857 0.06903 0.07685 0.0
C707 C 0.48207 0.10305 0.10152 0.0
C708 C 0.45771 0.10201 0.10209 0.0
C709 C 0.44377 0.08371 0.09109 0.0
C710 C 0.4541 0.06741 0.07849 0.0
C711 C 0.447 0.1207 0.11292 0.0
C712 C 0.45166 0.12722 0.13709 0.0
C713 C 0.43247 0.13226 0.09935 0.0
C714 C 0.42841 0.12739 0.07319 0.0
C715 C 0.40554 0.12152 0.06485 0.0
C716 C 0.40174 0.11671 0.04023 0.0
C717 C 0.42069 0.11782 1.02376 0.0
C718 C 0.44347 0.12385 0.03185 0.0
C719 C 0.44736 0.12872 0.05644 0.0
H720 H 0.41771 0.11406 1.00472 0.0
H721 H 0.4659 0.16985 0.23924 0.0
H722 H 0.21124 0.90133 0.57847 0.0
H723 H 0.17485 0.91584 0.57126 0.0
H724 H 0.21412 0.98151 0.56024 0.0
H725 H 0.25059 0.96703 0.56711 0.0
H726 H 0.17083 0.97827 0.59184 0.0
H727 H 0.20001 0.95489 0.51283 0.0
H728 H 0.21353 0.9272 0.48468 0.0
H729 H 0.14833 0.88347 0.49525 0.0
H730 H 0.13456 0.91079 0.52375 0.0
H731 H 0.09004 0.03559 0.53756 0.0
H732 H 0.12429 1.01956 0.54886 0.0
H733 H 0.08851 0.95376 0.52992 0.0
H734 H 0.05523 0.9703 0.51634 0.0
H735 H 0.1292 0.95496 0.5159 0.0
H736 H 0.09763 0.97617 0.59231 0.0
H737 H 0.08217 1.00147 0.622 0.0
H738 H 0.14801 0.04526 0.62018 0.0
H739 H 0.16381 1.02034 0.59027 0.0
C740 C 0.21203 0.91889 0.57472 0.0
C741 C 0.23362 0.93309 0.57322 0.0
C742 C 0.19132 0.92712 0.5706 0.0
C743 C 0.19194 0.9497 0.56524 0.0
C744 C 0.2134 0.96405 0.56443 0.0
C745 C 0.23414 0.95576 0.56816 0.0
C746 C 0.17032 0.95816 0.55922 0.0
C747 C 0.16171 0.97337 0.5752 0.0
C748 C 0.15815 0.95105 0.53794 0.0
C749 C 0.16636 0.93477 0.52061 0.0
C750 C 0.18864 0.93929 0.50931 0.0
C751 C 0.19633 0.92368 0.49326 0.0
C752 C 0.18183 0.90356 0.48823 0.0
C753 C 0.15956 0.89904 0.49918 0.0
C754 C 0.1518 0.91459 0.51527 0.0
C755 C 0.08969 1.01772 0.53578 0.0
C756 C 0.07028 1.00406 0.52615 0.0
C757 C 0.10909 1.0085 0.54251 0.0
C758 C 0.10885 0.9853 0.54095 0.0
C759 C 0.08921 0.97167 0.53137 0.0
C760 C 0.07021 0.98105 0.52367 0.0
C761 C 0.12935 0.97535 0.54849 0.0
C762 C 0.13792 0.95982 0.53277 0.0
C763 C 0.14108 0.98172 0.5704 0.0
C764 C 0.13185 0.99644 0.58891 0.0
C765 C 0.1088 0.99122 0.59819 0.0
C766 C 0.09998 1.0055 0.61506 0.0
C767 C 0.11409 0.02498 0.62294 0.0
C768 C 0.13711 0.03016 0.61406 0.0
C769 C 0.14602 1.01594 0.59719 0.0
H770 H 0.10721 0.03604 0.63594 0.0
H771 H 0.18781 0.89149 0.4758 0.0
H772 H 0.76068 0.44143 0.91691 0.0
H773 H 0.79653 0.45962 0.93569 0.0
H774 H 0.83183 0.40543 0.91161 0.0
H775 H 0.79646 0.38751 0.89184 0.0
H776 H 0.84063 0.41732 0.96 0.0
H777 H 0.84295 0.45453 0.88339 0.0
H778 H 0.82757 0.47584 0.85159 0.0
H779 H 0.82254 0.5295 0.90246 0.0
H780 H 0.83758 0.50836 0.93468 0.0
H781 H 0.95695 0.46608 0.9876 0.0
H782 H 0.92119 0.44821 0.96834 0.0
H783 H 0.89112 0.50845 0.97915 0.0
H784 H 0.92731 0.52669 0.99743 0.0
H785 H 0.87895 0.49335 0.93769 0.0
H786 H 0.87535 0.45761 1.01447 0.0
H787 H 0.8891 0.43693 0.04784 0.0
H788 H 0.89436 0.3815 0.99946 0.0
H789 H 0.88092 0.40197 0.96572 0.0
C790 C 0.77607 0.43342 0.91513 0.0
C791 C 0.77524 0.41279 0.90258 0.0
C792 C 0.79667 0.44387 0.92613 0.0
C793 C 0.81712 0.43403 0.92512 0.0
C794 C 0.81637 0.41341 0.91285 0.0
C795 C 0.79589 0.40306 0.90161 0.0
C796 C 0.83921 0.44515 0.93684 0.0
C797 C 0.84916 0.43384 0.95489 0.0
C798 C 0.85015 0.46702 0.93087 0.0
C799 C 0.84116 0.47976 0.91151 0.0
C800 C 0.83837 0.4708 0.88785 0.0
C801 C 0.82975 0.48286 0.86974 0.0
C802 C 0.82402 0.50398 0.87501 0.0
C803 C 0.82695 0.51312 0.8984 0.0
C804 C 0.83554 0.50111 0.91659 0.0
C805 C 0.9427 0.47554 0.98601 0.0
C806 C 0.94514 0.49787 0.9943 0.0
C807 C 0.92205 0.4652 0.97505 0.0
C808 C 0.90289 0.47666 0.97253 0.0
C809 C 0.90539 0.49902 0.98075 0.0
C810 C 0.92618 0.50948 0.99136 0.0
C811 C 0.88054 0.46556 0.96102 0.0
C812 C 0.87049 0.47686 0.94296 0.0
C813 C 0.86929 0.44379 0.96727 0.0
C814 C 0.87735 0.43142 0.98752 0.0
C815 C 0.87959 0.44107 1.01091 0.0
C816 C 0.88731 0.42938 0.0299 0.0
C817 C 0.89266 0.40794 0.02576 0.0
C818 C 0.89025 0.39812 1.00263 0.0
C819 C 0.88256 0.40975 0.98357 0.0
H820 H 0.89863 0.39891 0.04048 0.0
H821 H 0.81735 0.5133 0.86096 0.0
H822 H 0.73497 0.60802 0.38158 0.0
H823 H 0.69801 0.59147 0.40118 0.0
H824 H 0.70672 0.64305 0.45653 0.0
H825 H 0.74336 0.65994 0.43687 0.0
H826 H 0.69352 0.60254 0.4764 0.0
H827 H 0.66801 0.64341 0.41063 0.0
H828 H 0.66543 0.65365 0.36781 0.0
H829 H 0.63575 0.58616 0.34993 0.0
H830 H 0.63846 0.57545 0.39262 0.0
H831 H 0.58157 0.59573 0.53107 0.0
H832 H 0.61835 0.60682 0.50864 0.0
H833 H 0.5994 0.55334 0.4568 0.0
H834 H 0.56194 0.5426 0.47901 0.0
H835 H 0.61821 0.59076 0.43384 0.0
H836 H 0.64105 0.55007 0.49955 0.0
H837 H 0.64356 0.53924 0.54217 0.0
H838 H 0.67857 0.60503 0.55991 0.0
H839 H 0.67598 0.61636 0.51745 0.0
C840 C 0.72894 0.61605 0.39775 0.0
C841 C 0.74237 0.6354 0.40755 0.0
C842 C 0.70776 0.60648 0.40902 0.0
C843 C 0.6994 0.61603 0.43034 0.0
C844 C 0.71278 0.63525 0.4402 0.0
C845 C 0.73387 0.64486 0.42893 0.0
C846 C 0.67687 0.60602 0.44259 0.0
C847 C 0.67704 0.60018 0.46713 0.0
C848 C 0.65537 0.60215 0.43038 0.0
C849 C 0.65369 0.60858 0.40475 0.0
C850 C 0.66112 0.63071 0.39753 0.0
C851 C 0.6596 0.63661 0.37329 0.0
C852 C 0.6505 0.62055 0.35615 0.0
C853 C 0.64284 0.59857 0.36322 0.0
C854 C 0.64435 0.59258 0.38743 0.0
C855 C 0.58525 0.5862 0.51497 0.0
C856 C 0.56903 0.56795 0.50713 0.0
C857 C 0.6064 0.59252 0.50219 0.0
C858 C 0.61203 0.5807 0.48121 0.0
C859 C 0.59566 0.56262 0.47306 0.0
C860 C 0.57437 0.55629 0.48592 0.0
C861 C 0.63481 0.58768 0.4678 0.0
C862 C 0.63471 0.59292 0.44307 0.0
C863 C 0.65644 0.59087 0.47978 0.0
C864 C 0.65815 0.58411 0.50533 0.0
C865 C 0.64914 0.56228 0.51257 0.0
C866 C 0.6506 0.55604 0.5367 0.0
C867 C 0.66118 0.57145 0.55375 0.0
C868 C 0.67037 0.59311 0.54668 0.0
C869 C 0.66893 0.59945 0.52258 0.0
H870 H 0.66229 0.56659 0.57242 0.0
H871 H 0.64932 0.62514 0.3374 0.0
H872 H 0.26699 0.37756 0.15688 0.0
H873 H 0.24267 0.40143 0.13744 0.0
H874 H 0.21415 0.34627 0.09119 0.0
H875 H 0.23857 0.32252 0.1103 0.0
H876 H 0.22075 0.38608 0.06696 0.0
H877 H 0.18628 0.35622 0.14295 0.0
H878 H 0.18573 0.34981 0.18704 0.0
H879 H 0.19508 0.42049 0.20082 0.0
H880 H 0.19603 0.42732 0.15675 0.0
H881 H 0.10667 0.40434 0.0398 0.0
H882 H 0.14138 0.39033 0.0535 0.0
H883 H 0.1594 0.44974 0.09757 0.0
H884 H 0.12443 0.4636 0.0844 0.0
H885 H 0.16183 0.41272 0.12275 0.0
H886 H 0.1909 0.44229 0.04643 0.0
H887 H 0.19063 0.44824 1.00232 0.0
H888 H 0.19104 0.37838 0.98888 0.0
H889 H 0.19095 0.37193 0.03295 0.0
C890 C 0.25598 0.37075 0.14213 0.0
C891 C 0.25445 0.34816 0.13523 0.0
C892 C 0.24201 0.38433 0.13115 0.0
C893 C 0.22638 0.37551 0.11312 0.0
C894 C 0.22604 0.35339 0.1051 0.0
C895 C 0.23988 0.33981 0.11612 0.0
C896 C 0.20877 0.38844 0.10414 0.0
C897 C 0.20782 0.39188 0.07911 0.0
C898 C 0.19221 0.39637 0.12009 0.0
C899 C 0.19152 0.39228 0.14657 0.0
C900 C 0.18841 0.37039 0.15538 0.0
C901 C 0.188 0.36669 0.18036 0.0
C902 C 0.19045 0.38473 0.19672 0.0
C903 C 0.19325 0.40653 0.18812 0.0
C904 C 0.19372 0.41033 0.16315 0.0
C905 C 0.11804 0.41441 0.0524 0.0
C906 C 0.11282 0.43506 0.06102 0.0
C907 C 0.13798 0.4065 0.06003 0.0
C908 C 0.15311 0.41911 0.07637 0.0
C909 C 0.14803 0.4398 0.08487 0.0
C910 C 0.12813 0.44775 0.07719 0.0
C911 C 0.17357 0.41015 0.08547 0.0
C912 C 0.175 0.40735 0.11057 0.0
C913 C 0.19052 0.4028 0.06956 0.0
C914 C 0.19074 0.4066 0.04302 0.0
C915 C 0.19075 0.42816 0.03408 0.0
C916 C 0.1907 0.43163 1.00908 0.0
C917 C 0.19077 0.41369 0.99281 0.0
C918 C 0.19097 0.39226 1.00151 0.0
C919 C 0.191 0.38869 0.0265 0.0
H920 H 0.19072 0.41642 0.97345 0.0
H921 H 0.19011 0.38183 0.21605 0.0
H922 H 0.58005 0.24821 0.88448 0.0
H923 H 0.56331 0.21329 0.90388 0.0
H924 H 0.62997 0.20836 0.93401 0.0
H925 H 0.64672 0.24384 0.91584 0.0
H926 H 0.60762 0.16724 0.91326 0.0
H927 H 0.58936 0.2236 0.97019 0.0
H928 H 0.57323 0.25741 0.98288 0.0
H929 H 0.505 0.22675 0.96093 0.0
H930 H 0.52081 0.19285 0.94777 0.0
H931 H 0.56519 0.07628 0.99274 0.0
H932 H 0.58474 0.11124 0.97462 0.0
H933 H 0.51751 0.12935 0.95973 0.0
H934 H 0.49819 0.09523 0.97885 0.0
H935 H 0.54185 0.16443 0.97332 0.0
H936 H 0.55832 0.10926 0.9146 0.0
H937 H 0.57304 0.07536 0.89961 0.0
H938 H 0.64224 0.10296 0.92153 0.0
H939 H 0.62786 0.13692 0.93693 0.0
C940 C 0.59126 0.24007 0.8955 0.0
C941 C 0.61498 0.2494 0.89837 0.0
C942 C 0.58158 0.21982 0.9065 0.0
C943 C 0.59527 0.20799 0.92054 0.0
C944 C 0.61897 0.21695 0.92318 0.0
C945 C 0.62859 0.23737 0.91251 0.0
C946 C 0.58481 0.18654 0.93275 0.0
C947 C 0.59342 0.16667 0.92662 0.0
C948 C 0.56587 0.18546 0.94979 0.0
C949 C 0.55632 0.20578 0.95777 0.0
C950 C 0.57096 0.22414 0.96788 0.0
C951 C 0.56186 0.2433 0.97519 0.0
C952 C 0.53812 0.24425 0.97265 0.0
C953 C 0.5234 0.226 0.96285 0.0
C954 C 0.53242 0.20681 0.95548 0.0
C955 C 0.55463 0.08772 0.98553 0.0
C956 C 0.53008 0.08279 0.98721 0.0
C957 C 0.56583 0.10775 0.97495 0.0
C958 C 0.55279 0.12319 0.96523 0.0
C959 C 0.52824 0.11808 0.96699 0.0
C960 C 0.51712 0.09836 0.97789 0.0
C961 C 0.56435 0.14476 0.95366 0.0
C962 C 0.55601 0.16479 0.95995 0.0
C963 C 0.58326 0.14587 0.93643 0.0
C964 C 0.59196 0.12552 0.92716 0.0
C965 C 0.57664 0.10803 0.91638 0.0
C966 C 0.58493 0.08882 0.90778 0.0
C967 C 0.60854 0.08698 0.90968 0.0
C968 C 0.62394 0.10439 0.92011 0.0
C969 C 0.61574 0.12362 0.92876 0.0
H970 H 0.61492 0.07209 0.90302 0.0
H971 H 0.53111 0.2591 0.97833 0.0
H972 H 0.9251 0.77917 0.43033 0.0
H973 H 0.94127 0.8145 0.45022 0.0
H974 H 0.90316 0.85009 0.40229 0.0
H975 H 0.88702 0.81486 0.38228 0.0
H976 H 0.94886 0.87089 0.40741 0.0
H977 H 0.88398 0.84086 0.45969 0.0
H978 H 0.86066 0.8124 0.48548 0.0
H979 H 0.91871 0.81359 0.53242 0.0
H980 H 0.94251 0.84183 0.50669 0.0
H981 H 0.96242 0.9759 0.46779 0.0
H982 H 0.9466 0.94018 0.44895 0.0
H983 H 0.97688 0.90551 0.50452 0.0
H984 H 0.99214 0.94126 0.52391 0.0
H985 H 0.93594 0.88359 0.49564 0.0
H986 H 1.00115 0.91286 0.44458 0.0
H987 H 0.02575 0.94069 0.41907 0.0
H988 H 0.96936 0.94002 0.37007 0.0
H989 H 0.9443 0.9124 0.39548 0.0
C990 C 0.92029 0.79452 0.42389 0.0
C991 C 0.90467 0.79409 0.40469 0.0
C992 C 0.92942 0.81473 0.43542 0.0
C993 C 0.92333 0.83504 0.42795 0.0
C994 C 0.90812 0.8347 0.40849 0.0
C995 C 0.89877 0.81449 0.39714 0.0
C996 C 0.93274 0.85664 0.44037 0.0
C997 C 0.94579 0.87376 0.42664 0.0
C998 C 0.92939 0.86027 0.46563 0.0
C999 C 0.91511 0.84328 0.48111 0.0
C1000 C 0.89185 0.8349 0.47538 0.0
C1001 C 0.87853 0.81884 0.49002 0.0
C1002 C 0.88822 0.81114 0.51054 0.0
C1003 C 0.91124 0.81954 0.5165 0.0
C1004 C 0.92465 0.83558 0.5019 0.0
C1005 C 0.96571 0.96069 0.47607 0.0
C1006 C 0.9787 0.96156 0.49736 0.0
C1007 C 0.95674 0.94018 0.46515 0.0
C1008 C 0.96086 0.91993 0.47491 0.0
C1009 C 0.97344 0.92076 0.49646 0.0
C1010 C 0.98222 0.94129 0.50756 0.0
C1011 C 0.95206 0.898 0.46267 0.0
C1012 C 0.93912 0.88077 0.47641 0.0
C1013 C 0.95574 0.89416 0.43744 0.0
C1014 C 0.97078 0.91072 0.42207 0.0
C1015 C 0.99394 0.91877 0.42846 0.0
C1016 C 0.00797 0.93449 0.414 0.0
C1017 C 0.9991 0.94216 0.39299 0.0
C1018 C 0.97619 0.93408 0.38637 0.0
C1019 C 0.96207 0.91838 0.40078 0.0
H1020 H 0.00999 0.95434 0.38182 0.0
H1021 H 0.87787 0.79872 0.52185 0.0
H1022 H 0.34927 0.79619 0.48947 0.0
H1023 H 0.36105 0.76024 0.47863 0.0
H1024 H 0.42733 0.78089 0.51222 0.0
H1025 H 0.41539 0.81612 0.52447 0.0
H1026 H 0.42701 0.7503 0.4677 0.0
H1027 H 0.38857 0.75998 0.5485 0.0
H1028 H 0.35521 0.76993 0.57291 0.0
H1029 H 0.30824 0.72082 0.53395 0.0
H1030 H 0.34134 0.7109 0.50902 0.0
H1031 H 0.47543 0.67321 0.53299 0.0
H1032 H 0.45886 0.7034 0.51501 0.0
H1033 H 0.39246 0.66031 0.50889 0.0
H1034 H 0.40899 0.63002 0.52725 0.0
H1035 H 0.38577 0.69762 0.52835 0.0
H1036 H 0.42501 0.67894 0.45755 0.0
H1037 H 0.45658 0.66833 0.43106 0.0
H1038 H 0.49915 0.73138 0.44597 0.0
H1039 H 0.46799 0.74225 0.47292 0.0
C1040 C 0.3665 0.79326 0.49429 0.0
C1041 C 0.38108 0.80894 0.50848 0.0
C1042 C 0.3733 0.77282 0.48772 0.0
C1043 C 0.39497 0.76797 0.49479 0.0
C1044 C 0.4106 0.78447 0.50645 0.0
C1045 C 0.40367 0.8047 0.51344 0.0
C1046 C 0.3995 0.74472 0.49497 0.0
C1047 C 0.418 0.73861 0.48077 0.0
C1048 C 0.38706 0.72931 0.51139 0.0
C1049 C 0.36732 0.73489 0.52676 0.0
C1050 C 0.3711 0.75143 0.54506 0.0
C1051 C 0.35225 0.75705 0.55898 0.0
C1052 C 0.32961 0.74606 0.55494 0.0
C1053 C 0.32578 0.72936 0.53702 0.0
C1054 C 0.34457 0.72374 0.52299 0.0
C1055 C 0.4574 0.67007 0.52749 0.0
C1056 C 0.44345 0.64933 0.53163 0.0
C1057 C 0.44797 0.68729 0.51703 0.0
C1058 C 0.4245 0.68404 0.5102 0.0
C1059 C 0.41064 0.66318 0.51392 0.0
C1060 C 0.42003 0.64596 0.52457 0.0
C1061 C 0.41405 0.7032 0.50169 0.0
C1062 C 0.39442 0.70871 0.51451 0.0
C1063 C 0.42518 0.71774 0.48357 0.0
C1064 C 0.44413 0.71138 0.46739 0.0
C1065 C 0.44116 0.6905 0.45535 0.0
C1066 C 0.45899 0.68444 0.44021 0.0
C1067 C 0.47987 0.69917 0.43683 0.0
C1068 C 0.48295 0.72 0.44859 0.0
C1069 C 0.46518 0.72613 0.46378 0.0
H1070 H 0.49366 0.69447 0.4251 0.0
H1071 H 0.31504 0.75043 0.56573 0.0
H1072 H 0.76498 0.84333 0.70557 0.0
H1073 H 0.79678 0.85876 0.67807 0.0
H1074 H 0.83062 0.80128 0.68842 0.0
H1075 H 0.7995 0.78638 0.7172 0.0
H1076 H 0.86025 0.83658 0.69538 0.0
H1077 H 0.80825 0.81329 0.63195 0.0
H1078 H 0.7714 0.80808 0.60979 0.0
H1079 H 0.77566 0.87906 0.60409 0.0
H1080 H 0.81236 0.88474 0.62654 0.0
H1081 H 0.95246 0.89057 0.61732 0.0
H1082 H 0.91928 0.86235 0.62986 0.0
H1083 H 0.87673 0.91404 0.64188 0.0
H1084 H 0.90971 0.94219 0.6295 0.0
H1085 H 0.85336 0.87509 0.61794 0.0
H1086 H 0.90138 0.89672 0.68834 0.0
H1087 H 0.9383 0.90144 0.71039 0.0
H1088 H 0.94127 0.83147 0.7015 0.0
H1089 H 0.90448 0.82642 0.67909 0.0
C1090 C 0.77908 0.83386 0.70187 0.0
C1091 C 0.77981 0.81375 0.71388 0.0
C1092 C 0.79714 0.84255 0.68581 0.0
C1093 C 0.8161 0.83113 0.68097 0.0
C1094 C 0.81618 0.8104 0.69183 0.0
C1095 C 0.79823 0.80179 0.70814 0.0
C1096 C 0.83696 0.84215 0.66705 0.0
C1097 C 0.85877 0.84444 0.67809 0.0
C1098 C 0.83512 0.85273 0.64464 0.0
C1099 C 0.81304 0.84944 0.63106 0.0
C1100 C 0.80126 0.82781 0.62613 0.0
C1101 C 0.7804 0.82477 0.61348 0.0
C1102 C 0.77118 0.84323 0.60556 0.0
C1103 C 0.78283 0.86477 0.61023 0.0
C1104 C 0.80369 0.86791 0.62288 0.0
C1105 C 0.93594 0.89581 0.62243 0.0
C1106 C 0.93366 0.91853 0.62273 0.0
C1107 C 0.91706 0.87974 0.62957 0.0
C1108 C 0.89562 0.88617 0.63682 0.0
C1109 C 0.89312 0.90876 0.63628 0.0
C1110 C 0.912 0.92481 0.62945 0.0
C1111 C 0.87617 0.86977 0.64663 0.0
C1112 C 0.85474 0.86661 0.63487 0.0
C1113 C 0.87834 0.85821 0.66825 0.0
C1114 C 0.90038 0.86125 0.68178 0.0
C1115 C 0.91002 0.88238 0.6909 0.0
C1116 C 0.9309 0.88511 0.7035 0.0
C1117 C 0.94217 0.86678 0.70727 0.0
C1118 C 0.93255 0.84567 0.69851 0.0
C1119 C 0.91169 0.84286 0.68587 0.0
H1120 H 0.95832 0.86892 0.71704 0.0
H1121 H 0.75503 0.84084 0.59578 0.0
H1122 H 0.66713 0.16408 0.33535 0.0
H1123 H 0.65454 0.15417 0.29409 0.0
H1124 H 0.59183 0.11419 0.32285 0.0
H1125 H 0.60485 0.12351 0.36421 0.0
H1126 H 0.60955 0.09191 0.28905 0.0
H1127 H 0.59193 0.16604 0.2946 0.0
H1128 H 0.59914 0.20661 0.30263 0.0
H1129 H 0.65332 0.21461 0.24719 0.0
H1130 H 0.64666 0.17403 0.23904 0.0
H1131 H 0.55602 0.07558 0.17406 0.0
H1132 H 0.56407 0.08921 0.21545 0.0
H1133 H 0.63377 0.11853 0.19266 0.0
H1134 H 0.62622 0.10436 0.15136 0.0
H1135 H 0.61001 0.14672 0.22332 0.0
H1136 H 0.62784 0.07142 0.22007 0.0
H1137 H 0.61891 0.03092 0.21198 0.0
H1138 H 0.56147 0.02573 0.2637 0.0
H1139 H 0.56987 0.06629 0.27183 0.0
C1140 C 0.65053 0.1534 0.33282 0.0
C1141 C 0.63692 0.14457 0.35289 0.0
C1142 C 0.64329 0.14781 0.30924 0.0
C1143 C 0.62205 0.13368 0.30531 0.0
C1144 C 0.60827 0.12512 0.32541 0.0
C1145 C 0.6157 0.13043 0.349 0.0
C1146 C 0.61487 0.12686 0.28027 0.0
C1147 C 0.60924 0.10398 0.27483 0.0
C1148 C 0.61486 0.14252 0.26152 0.0
C1149 C 0.61892 0.16695 0.26636 0.0
C1150 C 0.6055 0.17642 0.28424 0.0
C1151 C 0.60947 0.19943 0.2888 0.0
C1152 C 0.62672 0.21317 0.27547 0.0
C1153 C 0.63999 0.20394 0.25751 0.0
C1154 C 0.6361 0.18094 0.2529 0.0
C1155 C 0.57314 0.08476 0.17784 0.0
C1156 C 0.59054 0.0887 0.15938 0.0
C1157 C 0.57763 0.09267 0.20147 0.0
C1158 C 0.59953 0.10475 0.20705 0.0
C1159 C 0.61672 0.1093 0.18862 0.0
C1160 C 0.61233 0.10124 0.16502 0.0
C1161 C 0.60484 0.11194 0.23234 0.0
C1162 C 0.61015 0.13481 0.23772 0.0
C1163 C 0.60428 0.09632 0.25112 0.0
C1164 C 0.59933 0.07192 0.24636 0.0
C1165 C 0.61319 0.06167 0.22956 0.0
C1166 C 0.60824 0.0387 0.225 0.0
C1167 C 0.58959 0.02577 0.23727 0.0
C1168 C 0.57589 0.03578 0.25418 0.0
C1169 C 0.58074 0.05875 0.25879 0.0
H1170 H 0.58579 1.00799 0.23371 0.0
H1171 H 0.62976 0.23098 0.27902 0.0
H1172 H 0.42179 0.67907 0.32395 0.0
H1173 H 0.43728 0.66162 0.35833 0.0
H1174 H 0.40722 0.59668 0.33087 0.0
H1175 H 0.39035 0.61437 0.29749 0.0
H1176 H 0.40271 0.59351 0.37516 0.0
H1177 H 0.4708 0.62302 0.3277 0.0
H1178 H 0.49844 0.6516 0.30611 0.0
H1179 H 0.5107 0.68924 0.37256 0.0
H1180 H 0.48297 0.66097 0.39447 0.0
H1181 H 0.47796 0.53321 0.44217 0.0
H1182 H 0.46132 0.55188 0.40923 0.0
H1183 H 0.46633 0.61217 0.4526 0.0
H1184 H 0.48233 0.59346 0.48587 0.0
H1185 H 0.48399 0.61772 0.40143 0.0
H1186 H 0.41582 0.58559 0.44821 0.0
H1187 H 0.39008 0.5548 0.46855 0.0
H1188 H 0.38047 0.51924 0.40055 0.0
H1189 H 0.40648 0.54968 0.37986 0.0
C1190 C 0.41852 0.66106 0.32524 0.0
C1191 C 0.40488 0.64817 0.30779 0.0
C1192 C 0.42761 0.65096 0.34491 0.0
C1193 C 0.42416 0.62753 0.34732 0.0
C1194 C 0.41038 0.6147 0.32983 0.0
C1195 C 0.40073 0.62485 0.31056 0.0
C1196 C 0.43452 0.6164 0.36801 0.0
C1197 C 0.42063 0.59874 0.38047 0.0
C1198 C 0.45785 0.62307 0.37581 0.0
C1199 C 0.47459 0.64003 0.36267 0.0
C1200 C 0.47928 0.63747 0.33767 0.0
C1201 C 0.49499 0.65359 0.32538 0.0
C1202 C 0.50626 0.67226 0.33794 0.0
C1203 C 0.50192 0.6748 0.36284 0.0
C1204 C 0.48622 0.65873 0.3752 0.0
C1205 C 0.47554 0.55044 0.44477 0.0
C1206 C 0.48154 0.56171 0.46686 0.0
C1207 C 0.46594 0.56112 0.42586 0.0
C1208 C 0.46249 0.58353 0.42826 0.0
C1209 C 0.4688 0.59493 0.45014 0.0
C1210 C 0.4779 0.58412 0.46926 0.0
C1211 C 0.45222 0.59497 0.40806 0.0
C1212 C 0.46612 0.61262 0.39585 0.0
C1213 C 0.42912 0.58801 0.40017 0.0
C1214 C 0.4133 0.56981 0.41253 0.0
C1215 C 0.40839 0.57112 0.43763 0.0
C1216 C 0.39372 0.55375 0.44922 0.0
C1217 C 0.3837 0.53505 0.43586 0.0
C1218 C 0.38828 0.53372 0.41088 0.0
C1219 C 0.40297 0.55103 0.39921 0.0
H1220 H 0.37235 0.52162 0.44486 0.0
H1221 H 0.51841 0.68472 0.32839 0.0
H1222 H 0.09268 0.42491 0.78941 0.0
H1223 H 0.07607 0.4443 0.82319 0.0
H1224 H 0.13141 0.43134 0.86888 0.0
H1225 H 0.14753 0.41086 0.83545 0.0
H1226 H 0.09231 0.42679 0.89496 0.0
H1227 H 0.13102 0.48349 0.84283 0.0
H1228 H 0.14113 0.50331 0.8044 0.0
H1229 H 0.06993 0.51371 0.79834 0.0
H1230 H 0.05931 0.49368 0.83659 0.0
H1231 H 0.06751 0.50714 0.98581 0.0
H1232 H 0.08662 0.48654 0.95437 0.0
H1233 H 0.03316 0.4955 0.90422 0.0
H1234 H 0.01454 0.51663 0.93529 0.0
H1235 H 0.07381 0.50262 0.88162 0.0
H1236 H 0.03585 0.44448 0.93499 0.0
H1237 H 0.02806 0.42714 0.97514 0.0
H1238 H 0.10069 0.42154 0.98037 0.0
H1239 H 0.10898 0.43912 0.94036 0.0
C1240 C 0.10122 0.42582 0.80668 0.0
C1241 C 0.12163 0.41624 0.8094 0.0
C1242 C 0.0918 0.43724 0.82604 0.0
C1243 C 0.10262 0.43977 0.84868 0.0
C1244 C 0.1227 0.42984 0.85166 0.0
C1245 C 0.13208 0.41828 0.83233 0.0
C1246 C 0.09317 0.45302 0.86898 0.0
C1247 C 0.08854 0.44347 0.89205 0.0
C1248 C 0.08803 0.47482 0.86547 0.0
C1249 C 0.09433 0.48689 0.84246 0.0
C1250 C 0.11748 0.48986 0.83321 0.0
C1251 C 0.12331 0.50115 0.81147 0.0
C1252 C 0.10617 0.50971 0.7989 0.0
C1253 C 0.08318 0.50704 0.80808 0.0
C1254 C 0.07725 0.49574 0.8298 0.0
C1255 C 0.05987 0.50471 0.96806 0.0
C1256 C 0.03951 0.51356 0.96305 0.0
C1257 C 0.07074 0.49279 0.95008 0.0
C1258 C 0.06126 0.4891 0.92681 0.0
C1259 C 0.04093 0.49803 0.9219 0.0
C1260 C 0.03022 0.51009 0.93975 0.0
C1261 C 0.07245 0.47622 0.9074 0.0
C1262 C 0.07752 0.48591 0.8845 0.0
C1263 C 0.07821 0.45469 0.9112 0.0
C1264 C 0.07306 0.44325 0.93476 0.0
C1265 C 0.05017 0.43958 0.94472 0.0
C1266 C 0.04566 0.42973 0.96745 0.0
C1267 C 0.06388 0.42327 0.9803 0.0
C1268 C 0.08661 0.42655 0.97038 0.0
C1269 C 0.09121 0.43643 0.94767 0.0
H1270 H 0.06037 0.41569 0.99791 0.0
H1271 H 0.11072 0.51846 0.78208 0.0
H1272 H 0.67315 0.88046 0.88863 0.0
H1273 H 0.65124 0.90725 0.90838 0.0
H1274 H 0.58678 0.86246 0.89712 0.0
H1275 H 0.60864 0.83573 0.87645 0.0
H1276 H 0.58238 0.90515 0.88674 0.0
H1277 H 0.61003 0.86766 0.95258 0.0
H1278 H 0.63894 0.85237 0.97657 0.0
H1279 H 0.67756 0.91818 0.98643 0.0
H1280 H 0.64905 0.93384 0.9622 0.0
H1281 H 0.51669 0.96411 0.97031 0.0
H1282 H 0.53536 0.93648 0.94772 0.0
H1283 H 0.60287 0.97654 0.95791 0.0
H1284 H 0.58434 1.00408 0.98115 0.0
H1285 H 0.60369 0.93445 0.96912 0.0
H1286 H 0.57525 0.97152 0.90193 0.0
H1287 H 0.54515 0.98593 0.8788 0.0
H1288 H 0.50637 0.9198 0.87264 0.0
H1289 H 0.53613 0.90502 0.89599 0.0
C1290 C 0.65429 0.87635 0.89012 0.0
C1291 C 0.64264 0.85596 0.8809 0.0
C1292 C 0.6418 0.89161 0.90163 0.0
C1293 C 0.61739 0.88676 0.90446 0.0
C1294 C 0.60562 0.8665 0.89518 0.0
C1295 C 0.61814 0.85118 0.88359 0.0
C1296 C 0.60437 0.90296 0.91718 0.0
C1297 C 0.58679 0.91134 0.90489 0.0
C1298 C 0.61033 0.91124 0.94074 0.0
C1299 C 0.6275 0.9019 0.95538 0.0
C1300 C 0.62479 0.87886 0.9597 0.0
C1301 C 0.64109 0.87013 0.97337 0.0
C1302 C 0.6601 0.88429 0.98297 0.0
C1303 C 0.66283 0.90723 0.97896 0.0
C1304 C 0.64659 0.91604 0.96528 0.0
C1305 C 0.5355 0.96722 0.96754 0.0
C1306 C 0.54906 0.9863 0.9776 0.0
C1307 C 0.54614 0.9514 0.9545 0.0
C1308 C 0.57051 0.9545 0.95093 0.0
C1309 C 0.58403 0.9738 0.96045 0.0
C1310 C 0.57342 0.98956 0.97367 0.0
C1311 C 0.58205 0.93706 0.9385 0.0
C1312 C 0.59928 0.92831 0.95095 0.0
C1313 C 0.57559 0.92837 0.91519 0.0
C1314 C 0.55784 0.9372 0.90089 0.0
C1315 C 0.56024 0.96007 0.89578 0.0
C1316 C 0.54325 0.9683 0.8826 0.0
C1317 C 0.52384 0.95379 0.8743 0.0
C1318 C 0.52141 0.93101 0.8791 0.0
C1319 C 0.53836 0.9227 0.89227 0.0
H1320 H 0.51073 0.96019 0.86407 0.0
H1321 H 0.6727 0.8775 0.99355 0.0
H1322 H 0.80832 0.1438 0.48665 0.0
H1323 H 0.84311 0.1272 0.4937 0.0
H1324 H 0.79981 0.06542 0.51377 0.0
H1325 H 0.76483 0.08239 0.50827 0.0
H1326 H 0.83326 0.07416 0.54389 0.0
H1327 H 0.82942 0.0722 0.45761 0.0
H1328 H 0.82629 0.087 0.41668 0.0
H1329 H 0.89034 0.13226 0.426 0.0
H1330 H 0.89368 0.11794 0.46713 0.0
H1331 H 0.94562 0.02599 0.50184 0.0
H1332 H 0.9093 0.03935 0.4921 0.0
H1333 H 0.91421 0.08011 0.55742 0.0
H1334 H 0.95005 0.06618 0.56761 0.0
H1335 H 0.89831 0.07815 0.48271 0.0
H1336 H 0.86103 0.08325 0.58134 0.0
H1337 H 0.86241 0.06445 0.62045 0.0
H1338 H 0.87699 1.0053 0.58289 0.0
H1339 H 0.87538 0.02364 0.54356 0.0
C1340 C 0.80614 0.12677 0.49288 0.0
C1341 C 0.78373 0.11446 0.49696 0.0
C1342 C 0.82609 0.11719 0.49654 0.0
C1343 C 0.82408 0.09495 0.50389 0.0
C1344 C 0.80177 0.08259 0.50799 0.0
C1345 C 0.78178 0.09225 0.5046 0.0
C1346 C 0.84528 0.08481 0.50799 0.0
C1347 C 0.84744 0.07497 0.53047 0.0
C1348 C 0.86361 0.08547 0.4903 0.0
C1349 C 0.86169 0.09412 0.46555 0.0
C1350 C 0.84275 0.08542 0.45101 0.0
C1351 C 0.84095 0.09371 0.42776 0.0
C1352 C 0.85808 0.11059 0.41877 0.0
C1353 C 0.87707 0.11919 0.433 0.0
C1354 C 0.87894 0.11098 0.45627 0.0
C1355 C 0.9389 0.03779 0.51409 0.0
C1356 C 0.9504 0.0449 0.5356 0.0
C1357 C 0.91822 0.04545 0.50849 0.0
C1358 C 0.90883 0.06043 0.52423 0.0
C1359 C 0.92083 0.06814 0.5453 0.0
C1360 C 0.94133 0.06027 0.55105 0.0
C1361 C 0.88641 0.06788 0.51876 0.0
C1362 C 0.88406 0.07725 0.49606 0.0
C1363 C 0.86761 0.0662 0.53596 0.0
C1364 C 0.86829 0.05491 0.55953 0.0
C1365 C 0.86442 0.0662 0.58143 0.0
C1366 C 0.86527 0.05563 0.60364 0.0
C1367 C 0.86985 0.03372 0.60416 0.0
C1368 C 0.87352 1.0223 0.58247 0.0
C1369 C 0.87267 0.03278 0.56022 0.0
H1370 H 0.87052 0.02557 0.62137 0.0
H1371 H 0.85666 0.11698 0.40076 0.0
H1372 H 0.22665 0.66448 0.16825 0.0
H1373 H 0.19069 0.6476 0.14858 0.0
H1374 H 0.229 0.6027 0.10841 0.0
H1375 H 0.26519 0.62052 0.1271 0.0
H1376 H 0.20047 0.61284 0.0796 0.0
H1377 H 0.18869 0.58797 0.16134 0.0
H1378 H 0.18636 0.5912 0.20601 0.0
H1379 H 0.13145 0.63079 0.20122 0.0
H1380 H 0.13366 0.62803 0.1565 0.0
H1381 H 0.0983 0.53468 0.0482 0.0
H1382 H 0.1343 0.55252 0.06737 0.0
H1383 H 0.10092 0.60883 0.08849 0.0
H1384 H 0.06496 0.59129 0.06893 0.0
H1385 H 0.12621 0.59247 0.12676 0.0
H1386 H 0.13882 0.61498 0.04326 0.0
H1387 H 0.14116 0.60834 0.99902 0.0
H1388 H 0.19506 0.56834 1.00839 0.0
H1389 H 0.19282 0.57448 0.05275 0.0
C1390 C 0.22739 0.65094 0.1553 0.0
C1391 C 0.24889 0.64384 0.1494 0.0
C1392 C 0.20668 0.64111 0.14409 0.0
C1393 C 0.20662 0.62332 0.12719 0.0
C1394 C 0.2282 0.6163 0.12127 0.0
C1395 C 0.24901 0.62649 0.13206 0.0
C1396 C 0.18432 0.61234 0.11541 0.0
C1397 C 0.18441 0.60814 0.09015 0.0
C1398 C 0.16289 0.60628 0.12869 0.0
C1399 C 0.16151 0.60798 0.15557 0.0
C1400 C 0.17623 0.59749 0.16981 0.0
C1401 C 0.17492 0.59922 0.19514 0.0
C1402 C 0.15881 0.61124 0.20644 0.0
C1403 C 0.14394 0.62151 0.19244 0.0
C1404 C 0.1452 0.61986 0.1671 0.0
C1405 C 0.09858 0.55091 0.05683 0.0
C1406 C 0.07861 0.56153 0.05685 0.0
C1407 C 0.11927 0.56113 0.06779 0.0
C1408 C 0.12051 0.58213 0.07941 0.0
C1409 C 0.10053 0.59266 0.0797 0.0
C1410 C 0.07995 0.58262 0.06837 0.0
C1411 C 0.1426 0.59305 0.09123 0.0
C1412 C 0.14239 0.5972 0.11641 0.0
C1413 C 0.16401 0.59858 0.078 0.0
C1414 C 0.16549 0.59501 0.05134 0.0
C1415 C 0.15104 0.60462 0.0359 0.0
C1416 C 0.15238 0.60097 1.0108 0.0
C1417 C 0.16821 0.58788 1.0009 0.0
C1418 C 0.18279 0.57845 1.01609 0.0
C1419 C 0.18151 0.58203 0.0412 0.0
H1420 H 0.16921 0.58508 0.98147 0.0
H1421 H 0.15782 0.61256 0.22605 0.0
H1422 H 0.30053 0.39237 0.65502 0.0
H1423 H 0.33656 0.40938 0.63489 0.0
H1424 H 0.305 0.46696 0.6185 0.0
H1425 H 0.26806 0.44914 0.63674 0.0
H1426 H 0.32986 0.45954 0.58178 0.0
H1427 H 0.34708 0.46568 0.66563 0.0
H1428 H 0.34977 0.4534 0.70771 0.0
H1429 H 0.39661 0.40865 0.68378 0.0
H1430 H 0.39395 0.42044 0.64149 0.0
H1431 H 0.44259 0.52243 0.54965 0.0
H1432 H 0.40595 0.5101 0.57262 0.0
H1433 H 0.42334 0.4437 0.57547 0.0
H1434 H 0.45986 0.45603 0.5526 0.0
H1435 H 0.406 0.45926 0.62057 0.0
H1436 H 0.38597 0.45401 0.53538 0.0
H1437 H 0.38411 0.46963 0.49462 0.0
H1438 H 0.34308 0.5175 0.5238 0.0
H1439 H 0.34496 0.50234 0.56481 0.0
C1440 C 0.30092 0.40849 0.64684 0.0
C1441 C 0.28097 0.41918 0.64766 0.0
C1442 C 0.32189 0.41847 0.63564 0.0
C1443 C 0.32396 0.43981 0.62552 0.0
C1444 C 0.30412 0.45057 0.62624 0.0
C1445 C 0.28295 0.4404 0.63705 0.0
C1446 C 0.3466 0.45058 0.61382 0.0
C1447 C 0.34641 0.45977 0.59056 0.0
C1448 C 0.36848 0.45096 0.62494 0.0
C1449 C 0.37015 0.44381 0.65035 0.0
C1450 C 0.35783 0.4531 0.66931 0.0
C1451 C 0.35936 0.44625 0.69321 0.0
C1452 C 0.37331 0.43022 0.69841 0.0
C1453 C 0.38579 0.42105 0.67972 0.0
C1454 C 0.3843 0.42783 0.65579 0.0
C1455 C 0.43885 0.5054 0.55573 0.0
C1456 C 0.4543 0.49033 0.54976 0.0
C1457 C 0.41776 0.49826 0.56857 0.0
C1458 C 0.41183 0.47593 0.57581 0.0
C1459 C 0.42751 0.461 0.5702 0.0
C1460 C 0.44835 0.46805 0.55708 0.0
C1461 C 0.38909 0.46779 0.58864 0.0
C1462 C 0.38933 0.45913 0.61204 0.0
C1463 C 0.36729 0.46835 0.5779 0.0
C1464 C 0.36581 0.47719 0.55319 0.0
C1465 C 0.37669 0.46796 0.53313 0.0
C1466 C 0.37561 0.47672 0.50998 0.0
C1467 C 0.36355 0.4946 0.50663 0.0
C1468 C 0.35244 0.50368 0.52642 0.0
C1469 C 0.35349 0.495 0.54962 0.0
H1470 H 0.36276 0.50137 0.48871 0.0
H1471 H 0.37448 0.42494 0.71692 0.0
H1472 H 0.75883 0.67851 0.8813 0.0
H1473 H 0.78862 0.65901 0.89805 0.0
H1474 H 0.82952 0.72222 0.91736 0.0
H1475 H 0.80024 0.74177 0.90017 0.0
H1476 H 0.85575 0.6948 0.89379 0.0
H1477 H 0.7989 0.68937 0.96032 0.0
H1478 H 0.75967 0.67917 0.97926 0.0
H1479 H 0.76011 0.61042 0.9596 0.0
H1480 H 0.79923 0.62026 0.94025 0.0
H1481 H 0.93934 0.66342 0.97035 0.0
H1482 H 0.90723 0.67918 0.95347 0.0
H1483 H 0.86901 0.61298 0.94242 0.0
H1484 H 0.90057 0.59707 0.96057 0.0
H1485 H 0.84052 0.63948 0.95972 0.0
H1486 H 0.89714 0.64361 0.89472 0.0
H1487 H 0.93597 0.65282 0.87466 0.0
H1488 H 0.93555 0.72249 0.8894 0.0
H1489 H 0.89683 0.71368 0.90985 0.0
C1490 C 0.77415 0.68823 0.88917 0.0
C1491 C 0.77711 0.71169 0.88949 0.0
C1492 C 0.79107 0.67707 0.89887 0.0
C1493 C 0.81123 0.68918 0.90906 0.0
C1494 C 0.81409 0.71256 0.90962 0.0
C1495 C 0.7972 0.7237 0.9 0.0
C1496 C 0.82981 0.67765 0.91847 0.0
C1497 C 0.85249 0.68289 0.9084 0.0
C1498 C 0.82535 0.66151 0.9369 0.0
C1499 C 0.80188 0.65559 0.94862 0.0
C1500 C 0.79055 0.6721 0.95986 0.0
C1501 C 0.76835 0.66638 0.97071 0.0
C1502 C 0.75738 0.64417 0.97057 0.0
C1503 C 0.76861 0.62762 0.95966 0.0
C1504 C 0.79081 0.63326 0.94877 0.0
C1505 C 0.92401 0.65217 0.96462 0.0
C1506 C 0.92261 0.62894 0.96683 0.0
C1507 C 0.90576 0.66122 0.95466 0.0
C1508 C 0.88584 0.64726 0.94628 0.0
C1509 C 0.88426 0.62408 0.94862 0.0
C1510 C 0.90245 0.61501 0.95879 0.0
C1511 C 0.86662 0.65695 0.93535 0.0
C1512 C 0.8438 0.65131 0.94503 0.0
C1513 C 0.87089 0.67258 0.91636 0.0
C1514 C 0.89416 0.67796 0.90401 0.0
C1515 C 0.9054 0.66088 0.89384 0.0
C1516 C 0.92738 0.66603 0.88237 0.0
C1517 C 0.93824 0.68822 0.8808 0.0
C1518 C 0.92712 0.70531 0.89065 0.0
C1519 C 0.90514 0.70025 0.90216 0.0
H1520 H 0.95526 0.69217 0.87191 0.0
H1521 H 0.74019 0.63978 0.97898 0.0
H1522 H 0.44388 0.807 0.16946 0.0
H1523 H 0.46127 0.84241 0.15129 0.0
H1524 H 0.39621 0.84649 0.11682 0.0
H1525 H 0.37924 0.81044 0.13398 0.0
H1526 H 0.42724 0.86153 0.08661 0.0
H1527 H 0.41883 0.87948 0.17059 0.0
H1528 H 0.4228 0.87631 0.21477 0.0
H1529 H 0.49758 0.88871 0.20605 0.0
H1530 H 0.49407 0.89167 0.16176 0.0
H1531 H 0.4623 0.97928 0.06075 0.0
H1532 H 0.4421 0.94454 0.07913 0.0
H1533 H 0.50858 0.92643 0.09664 0.0
H1534 H 0.52872 0.96064 0.07794 0.0
H1535 H 0.475 0.92009 0.13571 0.0
H1536 H 0.48084 0.90206 0.0499 0.0
H1537 H 0.47433 0.90835 1.00672 0.0
H1538 H 0.40018 0.89925 1.02076 0.0
H1539 H 0.40628 0.89326 0.06414 0.0
C1540 C 0.43323 0.81549 0.1581 0.0
C1541 C 0.41006 0.80579 0.15336 0.0
C1542 C 0.44318 0.83595 0.14774 0.0
C1543 C 0.43008 0.84782 0.13291 0.0
C1544 C 0.40693 0.83801 0.12809 0.0
C1545 C 0.39715 0.81729 0.13801 0.0
C1546 C 0.4405 0.87019 0.12232 0.0
C1547 C 0.43735 0.87436 0.09761 0.0
C1548 C 0.45397 0.88733 0.13621 0.0
C1549 C 0.45618 0.88558 0.16283 0.0
C1550 C 0.43613 0.88138 0.17807 0.0
C1551 C 0.43829 0.87964 0.20314 0.0
C1552 C 0.46043 0.88225 0.2132 0.0
C1553 C 0.48045 0.88666 0.19822 0.0
C1554 C 0.47838 0.88839 0.17314 0.0
C1555 C 0.47258 0.96791 0.06857 0.0
C1556 C 0.49717 0.97283 0.06783 0.0
C1557 C 0.46101 0.94799 0.07904 0.0
C1558 C 0.47375 0.93267 0.08934 0.0
C1559 C 0.49826 0.93784 0.08895 0.0
C1560 C 0.50979 0.95747 0.07814 0.0
C1561 C 0.46181 0.91113 0.10023 0.0
C1562 C 0.46473 0.90719 0.12492 0.0
C1563 C 0.44773 0.89447 0.08649 0.0
C1564 C 0.44403 0.89743 0.06031 0.0
C1565 C 0.46315 0.90153 0.04381 0.0
C1566 C 0.45954 0.90504 1.0193 0.0
C1567 C 0.43686 0.90427 1.01102 0.0
C1568 C 0.41774 0.89987 0.02721 0.0
C1569 C 0.42126 0.8964 0.05176 0.0
H1570 H 0.43411 0.90705 0.99204 0.0
H1571 H 0.46207 0.8809 0.23261 0.0
H1572 H 0.13792 0.26371 0.61744 0.0
H1573 H 0.12131 0.22794 0.59865 0.0
H1574 H 0.08271 0.20908 0.66502 0.0
H1575 H 0.0989 0.2451 0.68376 0.0
H1576 H 0.1093 0.17517 0.64211 0.0
H1577 H 0.05294 0.22307 0.62331 0.0
H1578 H 0.04099 0.25691 0.60682 0.0
H1579 H 0.0685 0.24144 0.5364 0.0
H1580 H 0.08094 0.20766 0.55258 0.0
H1581 H 0.03669 0.07775 0.60107 0.0
H1582 H 0.05278 0.11358 0.61945 0.0
H1583 H 0.06971 0.1408 0.5482 0.0
H1584 H 0.05246 0.10519 0.52975 0.0
H1585 H 0.05519 0.17106 0.57348 0.0
H1586 H 0.11182 0.1246 0.58905 0.0
H1587 H 0.12667 0.09126 0.60314 0.0
H1588 H 0.10371 0.10437 0.67605 0.0
H1589 H 0.08839 0.1376 0.66234 0.0
C1590 C 0.12588 0.25195 0.62804 0.0
C1591 C 0.11972 0.25729 0.65211 0.0
C1592 C 0.11636 0.23152 0.61725 0.0
C1593 C 0.10076 0.21576 0.6304 0.0
C1594 C 0.09473 0.22094 0.65451 0.0
C1595 C 0.10388 0.24158 0.66516 0.0
C1596 C 0.0907 0.19397 0.6189 0.0
C1597 C 0.09721 0.17419 0.62732 0.0
C1598 C 0.07565 0.19273 0.59897 0.0
C1599 C 0.06809 0.21297 0.58922 0.0
C1600 C 0.05664 0.22699 0.60437 0.0
C1601 C 0.04974 0.24614 0.59507 0.0
C1602 C 0.05404 0.25136 0.57059 0.0
C1603 C 0.06521 0.2374 0.55536 0.0
C1604 C 0.07217 0.21824 0.56458 0.0
C1605 C 0.0439 0.09134 0.58929 0.0
C1606 C 0.04334 0.0885 0.56389 0.0
C1607 C 0.05329 0.11188 0.59986 0.0
C1608 C 0.06306 0.13003 0.58537 0.0
C1609 C 0.06238 0.12722 0.55994 0.0
C1610 C 0.05253 0.10677 0.54935 0.0
C1611 C 0.07361 0.15193 0.59671 0.0
C1612 C 0.06727 0.17183 0.58824 0.0
C1613 C 0.08932 0.15332 0.61622 0.0
C1614 C 0.09875 0.13349 0.62462 0.0
C1615 C 0.10981 0.1203 0.60806 0.0
C1616 C 0.11831 0.10142 0.61598 0.0
C1617 C 0.11608 0.09567 0.64046 0.0
C1618 C 0.1054 0.10883 0.65709 0.0
C1619 C 0.09681 0.1277 0.64926 0.0
H1620 H 0.12267 0.08104 0.64655 0.0
H1621 H 0.04868 0.26618 0.56342 0.0
H1622 H 0.6271 0.24053 0.5627 0.0
H1623 H 0.60961 0.27278 0.57703 0.0
H1624 H 0.66426 0.31666 0.53931 0.0
H1625 H 0.68224 0.28471 0.52587 0.0
H1626 H 0.64791 0.33805 0.57771 0.0
H1627 H 0.61525 0.29087 0.50941 0.0
H1628 H 0.59682 0.25498 0.49165 0.0
H1629 H 0.53996 0.25215 0.54389 0.0
H1630 H 0.55827 0.28792 0.56213 0.0
H1631 H 0.60915 0.41141 0.49769 0.0
H1632 H 0.62313 0.38096 0.51808 0.0
H1633 H 0.55876 0.36836 0.56036 0.0
H1634 H 0.54497 0.39964 0.54099 0.0
H1635 H 0.57284 0.33049 0.53489 0.0
H1636 H 0.60179 0.38877 0.58804 0.0
H1637 H 0.62167 0.42559 0.60144 0.0
H1638 H 0.68737 0.40953 0.57449 0.0
H1639 H 0.66784 0.37282 0.56019 0.0
C1640 C 0.63589 0.25712 0.55834 0.0
C1641 C 0.65565 0.26014 0.54262 0.0
C1642 C 0.62585 0.27553 0.56648 0.0
C1643 C 0.63528 0.29705 0.55867 0.0
C1644 C 0.65655 0.30021 0.54541 0.0
C1645 C 0.66667 0.28191 0.53748 0.0
C1646 C 0.62121 0.31545 0.55973 0.0
C1647 C 0.63141 0.33649 0.56856 0.0
C1648 C 0.59933 0.31317 0.54835 0.0
C1649 C 0.58823 0.29184 0.53729 0.0
C1650 C 0.59887 0.28251 0.51715 0.0
C1651 C 0.58846 0.26221 0.50701 0.0
C1652 C 0.56726 0.25126 0.51668 0.0
C1653 C 0.55641 0.26062 0.53647 0.0
C1654 C 0.56679 0.28089 0.54672 0.0
C1655 C 0.59808 0.40251 0.51163 0.0
C1656 C 0.57592 0.40803 0.51766 0.0
C1657 C 0.60611 0.38508 0.52324 0.0
C1658 C 0.59205 0.37269 0.54088 0.0
C1659 C 0.56985 0.37788 0.54684 0.0
C1660 C 0.56193 0.39558 0.53553 0.0
C1661 C 0.60021 0.35332 0.55162 0.0
C1662 C 0.58886 0.33208 0.54495 0.0
C1663 C 0.62125 0.35562 0.5645 0.0
C1664 C 0.63322 0.37787 0.57296 0.0
C1665 C 0.62043 0.39311 0.58464 0.0
C1666 C 0.63166 0.41401 0.59244 0.0
C1667 C 0.65577 0.41989 0.58885 0.0
C1668 C 0.66869 0.40492 0.57733 0.0
C1669 C 0.65752 0.38403 0.56938 0.0
H1670 H 0.66445 0.43604 0.59501 0.0
H1671 H 0.55922 0.23554 0.50881 0.0
loop_
_geom_bond_atom_site_label_1
_geom_bond_atom_site_label_2
_geom_bond_distance
_geom_bond_site_symmetry_2
_ccdc_geom_bond_type
C0 C1 1.386 . S
C0 C2 1.397 . S
C0 H24 0.931 . S
C1 C0 1.386 . S
C1 C5 1.397 . S
C2 C0 1.397 . S
C2 C3 1.384 . S
C2 H25 0.930 . S
C3 C2 1.384 . S
C3 C4 1.377 . S
C3 C6 1.481 . S
C4 C3 1.377 . S
C4 C5 1.389 . S
C4 H26 0.929 . S
C5 C1 1.397 . S
C5 C4 1.389 . S
C5 H27 0.931 . S
C6 C3 1.481 . S
C6 C7 1.387 . S
C6 C11 1.390 . S
C7 C6 1.387 . S
C7 C8 1.401 . S
C7 H28 0.930 . S
C8 C7 1.401 . S
C8 C9 1.376 . S
C8 C17 1.511 . S
C9 C8 1.376 . S
C9 C10 1.392 . S
C9 H30 0.931 . S
C10 C9 1.392 . S
C10 C11 1.361 . S
C10 C12 1.500 . S
C11 C6 1.390 . S
C11 C10 1.361 . S
C11 H29 0.931 . S
C12 C10 1.500 . S
C12 C13 1.371 . S
C12 C14 1.365 . S
C13 C12 1.371 . S
C13 C23 1.386 . S
C13 H31 0.931 . S
C14 C12 1.365 . S
C14 C15 1.409 . S
C14 H32 0.929 . S
C15 C14 1.409 . S
C15 C16 1.380 . S
C15 H33 0.930 . S
C16 C15 1.380 . S
C16 C23 1.357 . S
C17 C8 1.511 . S
C17 C18 1.341 . S
C17 C19 1.371 . S
C18 C17 1.341 . S
C18 C22 1.394 . S
C18 H34 0.930 . S
C19 C17 1.371 . S
C19 C20 1.392 . S
C19 H35 0.931 . S
C20 C19 1.392 . S
C20 C21 1.331 . S
C20 H38 0.932 . S
C21 C20 1.331 . S
C21 C22 1.336 . S
C22 C18 1.394 . S
C22 C21 1.336 . S
C22 H37 0.929 . S
C23 C13 1.386 . S
C23 C16 1.357 . S
C23 H36 0.928 . S
H24 C0 0.931 . S
H25 C2 0.930 . S
H26 C4 0.929 . S
H27 C5 0.931 . S
H28 C7 0.930 . S
H29 C11 0.931 . S
H30 C9 0.931 . S
H31 C13 0.931 . S
H32 C14 0.929 . S
H33 C15 0.930 . S
H34 C18 0.930 . S
H35 C19 0.931 . S
H36 C23 0.928 . S
H37 C22 0.929 . S
H38 C20 0.932 . S
C39 C40 1.386 . S
C39 C41 1.397 . S
C39 H63 0.931 . S
C40 C39 1.386 . S
C40 C44 1.397 . S
C41 C39 1.397 . S
C41 C42 1.384 . S
C41 H64 0.930 . S
C42 C41 1.384 . S
C42 C43 1.377 . S
C42 C45 1.481 . S
C43 C42 1.377 . S
C43 C44 1.389 . S
C43 H65 0.929 . S
C44 C40 1.397 . S
C44 C43 1.389 . S
C44 H66 0.931 . S
C45 C42 1.481 . S
C45 C46 1.387 . S
C45 C50 1.390 . S
C46 C45 1.387 . S
C46 C47 1.401 . S
C46 H67 0.930 . S
C47 C46 1.401 . S
C47 C48 1.376 . S
C47 C56 1.511 . S
C48 C47 1.376 . S
C48 C49 1.392 . S
C48 H69 0.931 . S
C49 C48 1.392 . S
C49 C50 1.361 . S
C49 C51 1.500 . S
C50 C45 1.390 . S
C50 C49 1.361 . S
C50 H68 0.931 . S
C51 C49 1.500 . S
C51 C52 1.371 . S
C51 C53 1.365 . S
C52 C51 1.371 . S
C52 C62 1.386 . S
C52 H70 0.931 . S
C53 C51 1.365 . S
C53 C54 1.409 . S
C53 H71 0.929 . S
C54 C53 1.409 . S
C54 C55 1.380 . S
C54 H72 0.930 . S
C55 C54 1.380 . S
C55 C62 1.357 . S
C56 C47 1.511 . S
C56 C57 1.341 . S
C56 C58 1.371 . S
C57 C56 1.341 . S
C57 C61 1.394 . S
C57 H73 0.930 . S
C58 C56 1.371 . S
C58 C59 1.392 . S
C58 H74 0.931 . S
C59 C58 1.392 . S
C59 C60 1.331 . S
C59 H77 0.932 . S
C60 C59 1.331 . S
C60 C61 1.336 . S
C61 C57 1.394 . S
C61 C60 1.336 . S
C61 H76 0.929 . S
C62 C52 1.386 . S
C62 C55 1.357 . S
C62 H75 0.928 . S
H63 C39 0.931 . S
H64 C41 0.930 . S
H65 C43 0.929 . S
H66 C44 0.931 . S
H67 C46 0.930 . S
H68 C50 0.931 . S
H69 C48 0.931 . S
H70 C52 0.931 . S
H71 C53 0.929 . S
H72 C54 0.930 . S
H73 C57 0.930 . S
H74 C58 0.931 . S
H75 C62 0.928 . S
H76 C61 0.929 . S
H77 C59 0.932 . S
C78 C79 1.386 . S
C78 C80 1.397 . S
C78 H102 0.931 . S
C79 C78 1.386 . S
C79 C83 1.397 . S
C80 C78 1.397 . S
C80 C81 1.384 . S
C80 H103 0.930 . S
C81 C80 1.384 . S
C81 C82 1.377 . S
C81 C84 1.481 . S
C82 C81 1.377 . S
C82 C83 1.389 . S
C82 H104 0.929 . S
C83 C79 1.397 . S
C83 C82 1.389 . S
C83 H105 0.931 . S
C84 C81 1.481 . S
C84 C85 1.387 . S
C84 C89 1.390 . S
C85 C84 1.387 . S
C85 C86 1.401 . S
C85 H106 0.930 . S
C86 C85 1.401 . S
C86 C87 1.376 . S
C86 C95 1.511 . S
C87 C86 1.376 . S
C87 C88 1.392 . S
C87 H108 0.931 . S
C88 C87 1.392 . S
C88 C89 1.361 . S
C88 C90 1.500 . S
C89 C84 1.390 . S
C89 C88 1.361 . S
C89 H107 0.931 . S
C90 C88 1.500 . S
C90 C91 1.371 . S
C90 C92 1.365 . S
C91 C90 1.371 . S
C91 C101 1.386 . S
C91 H109 0.931 . S
C92 C90 1.365 . S
C92 C93 1.409 . S
C92 H110 0.929 . S
C93 C92 1.409 . S
C93 C94 1.380 . S
C93 H111 0.930 . S
C94 C93 1.380 . S
C94 C101 1.357 . S
C95 C86 1.511 . S
C95 C96 1.341 . S
C95 C97 1.371 . S
C96 C95 1.341 . S
C96 C100 1.394 . S
C96 H112 0.930 . S
C97 C95 1.371 . S
C97 C98 1.392 . S
C97 H113 0.931 . S
C98 C97 1.392 . S
C98 C99 1.331 . S
C98 H116 0.932 . S
C99 C98 1.331 . S
C99 C100 1.336 . S
C100 C96 1.394 . S
C100 C99 1.336 . S
C100 H115 0.929 . S
C101 C91 1.386 . S
C101 C94 1.357 . S
C101 H114 0.928 . S
H102 C78 0.931 . S
H103 C80 0.930 . S
H104 C82 0.929 . S
H105 C83 0.931 . S
H106 C85 0.930 . S
H107 C89 0.931 . S
H108 C87 0.931 . S
H109 C91 0.931 . S
H110 C92 0.929 . S
H111 C93 0.930 . S
H112 C96 0.930 . S
H113 C97 0.931 . S
H114 C101 0.928 . S
H115 C100 0.929 . S
H116 C98 0.932 . S
C117 C118 1.386 . S
C117 C119 1.397 . S
C117 H141 0.931 . S
C118 C117 1.386 . S
C118 C122 1.397 . S
C119 C117 1.397 . S
C119 C120 1.384 . S
C119 H142 0.930 . S
C120 C119 1.384 . S
C120 C121 1.377 . S
C120 C123 1.481 . S
C121 C120 1.377 . S
C121 C122 1.389 . S
C121 H143 0.929 . S
C122 C118 1.397 . S
C122 C121 1.389 . S
C122 H144 0.931 . S
C123 C120 1.481 . S
C123 C124 1.387 . S
C123 C128 1.390 . S
C124 C123 1.387 . S
C124 C125 1.401 . S
C124 H145 0.930 . S
C125 C124 1.401 . S
C125 C126 1.376 . S
C125 C134 1.511 . S
C126 C125 1.376 . S
C126 C127 1.392 . S
C126 H147 0.931 . S
C127 C126 1.392 . S
C127 C128 1.361 . S
C127 C129 1.500 . S
C128 C123 1.390 . S
C128 C127 1.361 . S
C128 H146 0.931 . S
C129 C127 1.500 . S
C129 C130 1.371 . S
C129 C131 1.365 . S
C130 C129 1.371 . S
C130 C140 1.386 . S
C130 H148 0.931 . S
C131 C129 1.365 . S
C131 C132 1.409 . S
C131 H149 0.929 . S
C132 C131 1.409 . S
C132 C133 1.380 . S
C132 H150 0.930 . S
C133 C132 1.380 . S
C133 C140 1.357 . S
C134 C125 1.511 . S
C134 C135 1.341 . S
C134 C136 1.371 . S
C135 C134 1.341 . S
C135 C139 1.394 . S
C135 H151 0.930 . S
C136 C134 1.371 . S
C136 C137 1.392 . S
C136 H152 0.931 . S
C137 C136 1.392 . S
C137 C138 1.331 . S
C137 H155 0.932 . S
C138 C137 1.331 . S
C138 C139 1.336 . S
C139 C135 1.394 . S
C139 C138 1.336 . S
C139 H154 0.929 . S
C140 C130 1.386 . S
C140 C133 1.357 . S
C140 H153 0.928 . S
H141 C117 0.931 . S
H142 C119 0.930 . S
H143 C121 0.929 . S
H144 C122 0.931 . S
H145 C124 0.930 . S
H146 C128 0.931 . S
H147 C126 0.931 . S
H148 C130 0.931 . S
H149 C131 0.929 . S
H150 C132 0.930 . S
H151 C135 0.930 . S
H152 C136 0.931 . S
H153 C140 0.928 . S
H154 C139 0.929 . S
H155 C137 0.932 . S
C156 C157 1.386 . S
C156 C158 1.397 . S
C156 H180 0.931 . S
C157 C156 1.386 . S
C157 C161 1.397 . S
C158 C156 1.397 . S
C158 C159 1.384 . S
C158 H181 0.930 . S
C159 C158 1.384 . S
C159 C160 1.377 . S
C159 C162 1.481 . S
C160 C159 1.377 . S
C160 C161 1.389 . S
C160 H182 0.929 . S
C161 C157 1.397 . S
C161 C160 1.389 . S
C161 H183 0.931 . S
C162 C159 1.481 . S
C162 C163 1.387 . S
C162 C167 1.390 . S
C163 C162 1.387 . S
C163 C164 1.401 . S
C163 H184 0.930 . S
C164 C163 1.401 . S
C164 C165 1.376 . S
C164 C173 1.511 . S
C165 C164 1.376 . S
C165 C166 1.392 . S
C165 H186 0.931 . S
C166 C165 1.392 . S
C166 C167 1.361 . S
C166 C168 1.500 . S
C167 C162 1.390 . S
C167 C166 1.361 . S
C167 H185 0.931 . S
C168 C166 1.500 . S
C168 C169 1.371 . S
C168 C170 1.365 . S
C169 C168 1.371 . S
C169 C179 1.386 . S
C169 H187 0.931 . S
C170 C168 1.365 . S
C170 C171 1.409 . S
C170 H188 0.929 . S
C171 C170 1.409 . S
C171 C172 1.380 . S
C171 H189 0.930 . S
C172 C171 1.380 . S
C172 C179 1.357 . S
C173 C164 1.511 . S
C173 C174 1.341 . S
C173 C175 1.371 . S
C174 C173 1.341 . S
C174 C178 1.394 . S
C174 H190 0.930 . S
C175 C173 1.371 . S
C175 C176 1.392 . S
C175 H191 0.931 . S
C176 C175 1.392 . S
C176 C177 1.331 . S
C176 H194 0.932 . S
C177 C176 1.331 . S
C177 C178 1.336 . S
C178 C174 1.394 . S
C178 C177 1.336 . S
C178 H193 0.929 . S
C179 C169 1.386 . S
C179 C172 1.357 . S
C179 H192 0.928 . S
H180 C156 0.931 . S
H181 C158 0.930 . S
H182 C160 0.929 . S
H183 C161 0.931 . S
H184 C163 0.930 . S
H185 C167 0.931 . S
H186 C165 0.931 . S
H187 C169 0.931 . S
H188 C170 0.929 . S
H189 C171 0.930 . S
H190 C174 0.930 . S
H191 C175 0.931 . S
H192 C179 0.928 . S
H193 C178 0.929 . S
H194 C176 0.932 . S
C195 C196 1.386 . S
C195 C197 1.397 . S
C195 H219 0.931 . S
C196 C195 1.386 . S
C196 C200 1.397 . S
C197 C195 1.397 . S
C197 C198 1.384 . S
C197 H220 0.930 . S
C198 C197 1.384 . S
C198 C199 1.377 . S
C198 C201 1.481 . S
C199 C198 1.377 . S
C199 C200 1.389 . S
C199 H221 0.929 . S
C200 C196 1.397 . S
C200 C199 1.389 . S
C200 H222 0.931 . S
C201 C198 1.481 . S
C201 C202 1.387 . S
C201 C206 1.390 . S
C202 C201 1.387 . S
C202 C203 1.401 . S
C202 H223 0.930 . S
C203 C202 1.401 . S
C203 C204 1.376 . S
C203 C212 1.511 . S
C204 C203 1.376 . S
C204 C205 1.392 . S
C204 H225 0.931 . S
C205 C204 1.392 . S
C205 C206 1.361 . S
C205 C207 1.500 . S
C206 C201 1.390 . S
C206 C205 1.361 . S
C206 H224 0.931 . S
C207 C205 1.500 . S
C207 C208 1.371 . S
C207 C209 1.365 . S
C208 C207 1.371 . S
C208 C218 1.386 . S
C208 H226 0.931 . S
C209 C207 1.365 . S
C209 C210 1.409 . S
C209 H227 0.929 . S
C210 C209 1.409 . S
C210 C211 1.380 . S
C210 H228 0.930 . S
C211 C210 1.380 . S
C211 C218 1.357 . S
C212 C203 1.511 . S
C212 C213 1.341 . S
C212 C214 1.371 . S
C213 C212 1.341 . S
C213 C217 1.394 . S
C213 H229 0.930 . S
C214 C212 1.371 . S
C214 C215 1.392 . S
C214 H230 0.931 . S
C215 C214 1.392 . S
C215 C216 1.331 . S
C215 H233 0.932 . S
C216 C215 1.331 . S
C216 C217 1.336 . S
C217 C213 1.394 . S
C217 C216 1.336 . S
C217 H232 0.929 . S
C218 C208 1.386 . S
C218 C211 1.357 . S
C218 H231 0.928 . S
H219 C195 0.931 . S
H220 C197 0.930 . S
H221 C199 0.929 . S
H222 C200 0.931 . S
H223 C202 0.930 . S
H224 C206 0.931 . S
H225 C204 0.931 . S
H226 C208 0.931 . S
H227 C209 0.929 . S
H228 C210 0.930 . S
H229 C213 0.930 . S
H230 C214 0.931 . S
H231 C218 0.928 . S
H232 C217 0.929 . S
H233 C215 0.932 . S
C234 C235 1.386 . S
C234 C236 1.397 . S
C234 H258 0.931 . S
C235 C234 1.386 . S
C235 C239 1.397 . S
C236 C234 1.397 . S
C236 C237 1.384 . S
C236 H259 0.930 . S
C237 C236 1.384 . S
C237 C238 1.377 . S
C237 C240 1.481 . S
C238 C237 1.377 . S
C238 C239 1.389 . S
C238 H260 0.929 . S
C239 C235 1.397 . S
C239 C238 1.389 . S
C239 H261 0.931 . S
C240 C237 1.481 . S
C240 C241 1.387 . S
C240 C245 1.390 . S
C241 C240 1.387 . S
C241 C242 1.401 . S
C241 H262 0.930 . S
C242 C241 1.401 . S
C242 C243 1.376 . S
C242 C251 1.511 . S
C243 C242 1.376 . S
C243 C244 1.392 . S
C243 H264 0.931 . S
C244 C243 1.392 . S
C244 C245 1.361 . S
C244 C246 1.500 . S
C245 C240 1.390 . S
C245 C244 1.361 . S
C245 H263 0.931 . S
C246 C244 1.500 . S
C246 C247 1.371 . S
C246 C248 1.365 . S
C247 C246 1.371 . S
C247 C257 1.386 . S
C247 H265 0.931 . S
C248 C246 1.365 . S
C248 C249 1.409 . S
C248 H266 0.929 . S
C249 C248 1.409 . S
C249 C250 1.380 . S
C249 H267 0.930 . S
C250 C249 1.380 . S
C250 C257 1.357 . S
C251 C242 1.511 . S
C251 C252 1.341 . S
C251 C253 1.371 . S
C252 C251 1.341 . S
C252 C256 1.394 . S
C252 H268 0.930 . S
C253 C251 1.371 . S
C253 C254 1.392 . S
C253 H269 0.931 . S
C254 C253 1.392 . S
C254 C255 1.331 . S
C254 H272 0.932 . S
C255 C254 1.331 . S
C255 C256 1.336 . S
C256 C252 1.394 . S
C256 C255 1.336 . S
C256 H271 0.929 . S
C257 C247 1.386 . S
C257 C250 1.357 . S
C257 H270 0.928 . S
H258 C234 0.931 . S
H259 C236 0.930 . S
H260 C238 0.929 . S
H261 C239 0.931 . S
H262 C241 0.930 . S
H263 C245 0.931 . S
H264 C243 0.931 . S
H265 C247 0.931 . S
H266 C248 0.929 . S
H267 C249 0.930 . S
H268 C252 0.930 . S
H269 C253 0.931 . S
H270 C257 0.928 . S
H271 C256 0.929 . S
H272 C254 0.932 . S
C273 C274 1.386 . S
C273 C275 1.397 . S
C273 H297 0.931 . S
C274 C273 1.386 . S
C274 C278 1.397 . S
C275 C273 1.397 . S
C275 C276 1.384 . S
C275 H298 0.930 . S
C276 C275 1.384 . S
C276 C277 1.377 . S
C276 C279 1.481 . S
C277 C276 1.377 . S
C277 C278 1.389 . S
C277 H299 0.929 . S
C278 C274 1.397 . S
C278 C277 1.389 . S
C278 H300 0.931 . S
C279 C276 1.481 . S
C279 C280 1.387 . S
C279 C284 1.390 . S
C280 C279 1.387 . S
C280 C281 1.401 . S
C280 H301 0.930 . S
C281 C280 1.401 . S
C281 C282 1.376 . S
C281 C290 1.511 . S
C282 C281 1.376 . S
C282 C283 1.392 . S
C282 H303 0.931 . S
C283 C282 1.392 . S
C283 C284 1.361 . S
C283 C285 1.500 . S
C284 C279 1.390 . S
C284 C283 1.361 . S
C284 H302 0.931 . S
C285 C283 1.500 . S
C285 C286 1.371 . S
C285 C287 1.365 . S
C286 C285 1.371 . S
C286 C296 1.386 . S
C286 H304 0.931 . S
C287 C285 1.365 . S
C287 C288 1.409 . S
C287 H305 0.929 . S
C288 C287 1.409 . S
C288 C289 1.380 . S
C288 H306 0.930 . S
C289 C288 1.380 . S
C289 C296 1.357 . S
C290 C281 1.511 . S
C290 C291 1.341 . S
C290 C292 1.371 . S
C291 C290 1.341 . S
C291 C295 1.394 . S
C291 H307 0.930 . S
C292 C290 1.371 . S
C292 C293 1.392 . S
C292 H308 0.931 . S
C293 C292 1.392 . S
C293 C294 1.331 . S
C293 H311 0.932 . S
C294 C293 1.331 . S
C294 C295 1.336 . S
C295 C291 1.394 . S
C295 C294 1.336 . S
C295 H310 0.929 . S
C296 C286 1.386 . S
C296 C289 1.357 . S
C296 H309 0.928 . S
H297 C273 0.931 . S
H298 C275 0.930 . S
H299 C277 0.929 . S
H300 C278 0.931 . S
H301 C280 0.930 . S
H302 C284 0.931 . S
H303 C282 0.931 . S
H304 C286 0.931 . S
H305 C287 0.929 . S
H306 C288 0.930 . S
H307 C291 0.930 . S
H308 C292 0.931 . S
H309 C296 0.928 . S
H310 C295 0.929 . S
H311 C293 0.932 . S
Sm312 C314 2.846 . S
Sm312 O332 2.543 . S
Sm312 O333 2.450 . S
Sm312 O334 2.681 1_545 S
Sm312 O335 2.464 1_545 S
Sm312 O336 2.396 . S
Sm312 O340 2.386 1_455 S
Sm312 O343 2.408 1_445 S
Sm313 C323 2.813 1_545 S
Sm313 O334 2.369 1_645 S
Sm313 O337 2.444 1_655 S
Sm313 O338 2.501 1_545 S
Sm313 O339 2.433 1_545 S
Sm313 O340 2.702 . S
Sm313 O341 2.488 . S
Sm313 O342 2.368 1_545 S
C314 Sm312 2.846 . S
C314 C315 1.506 . S
C314 O332 1.261 . S
C314 O333 1.242 . S
C315 C314 1.506 . S
C315 C316 1.358 . S
C315 C320 1.382 . S
C316 C315 1.358 . S
C316 C317 1.385 . S
C316 H344 0.930 . S
C317 C316 1.385 . S
C317 C318 1.395 . S
C317 H345 0.929 . S
C318 C317 1.395 . S
C318 C319 1.335 . S
C319 C318 1.335 . S
C319 C320 1.398 . S
C319 H346 0.930 . S
C320 C315 1.382 . S
C320 C319 1.398 . S
C320 H347 0.929 . S
C321 O334 1.271 . S
C321 O335 1.251 . S
C322 O336 1.252 . S
C322 O337 1.272 . S
C323 Sm313 2.813 1_565 S
C323 C324 1.506 . S
C323 O338 1.261 . S
C323 O339 1.242 . S
C324 C323 1.506 . S
C324 C325 1.358 . S
C324 C329 1.382 . S
C325 C324 1.358 . S
C325 C326 1.385 . S
C325 H348 0.930 . S
C326 C325 1.385 . S
C326 C327 1.395 . S
C326 H349 0.929 . S
C327 C326 1.395 . S
C327 C328 1.335 . S
C328 C327 1.335 . S
C328 C329 1.398 . S
C328 H350 0.930 . S
C329 C324 1.382 . S
C329 C328 1.398 . S
C329 H351 0.929 . S
C330 O340 1.271 . S
C330 O341 1.251 . S
C331 O342 1.252 . S
C331 O343 1.272 . S
O332 Sm312 2.543 . S
O332 C314 1.261 . S
O333 Sm312 2.450 . S
O333 C314 1.242 . S
O334 Sm312 2.681 1_565 S
O334 Sm313 2.369 1_465 S
O334 C321 1.271 . S
O335 Sm312 2.464 1_565 S
O335 C321 1.251 . S
O336 Sm312 2.396 . S
O336 C322 1.252 . S
O337 Sm313 2.444 1_455 S
O337 C322 1.272 . S
O338 Sm313 2.501 1_565 S
O338 C323 1.261 . S
O339 Sm313 2.433 1_565 S
O339 C323 1.242 . S
O340 Sm312 2.386 1_655 S
O340 Sm313 2.702 . S
O340 C330 1.271 . S
O341 Sm313 2.488 . S
O341 C330 1.251 . S
O342 Sm313 2.368 1_565 S
O342 C331 1.252 . S
O343 Sm312 2.408 1_665 S
O343 C331 1.272 . S
H344 C316 0.930 . S
H345 C317 0.929 . S
H346 C319 0.930 . S
H347 C320 0.929 . S
H348 C325 0.930 . S
H349 C326 0.929 . S
H350 C328 0.930 . S
H351 C329 0.929 . S
Sm352 C354 2.846 . S
Sm352 O372 2.543 . S
Sm352 O373 2.450 . S
Sm352 O374 2.681 1_545 S
Sm352 O375 2.464 1_545 S
Sm352 O376 2.396 . S
Sm352 O380 2.386 1_554 S
Sm352 O383 2.408 1_544 S
Sm353 C363 2.846 1_545 S
Sm353 O374 2.386 1_546 S
Sm353 O377 2.408 1_556 S
Sm353 O378 2.543 1_545 S
Sm353 O379 2.448 1_545 S
Sm353 O380 2.681 . S
Sm353 O381 2.464 . S
Sm353 O382 2.396 1_545 S
C354 Sm352 2.846 . S
C354 C355 1.506 . S
C354 O372 1.261 . S
C354 O373 1.242 . S
C355 C354 1.506 . S
C355 C356 1.358 . S
C355 C360 1.382 . S
C356 C355 1.358 . S
C356 C357 1.385 . S
C356 H384 0.930 . S
C357 C356 1.385 . S
C357 C358 1.395 . S
C357 H385 0.929 . S
C358 C357 1.395 . S
C358 C359 1.335 . S
C359 C358 1.335 . S
C359 C360 1.398 . S
C359 H386 0.930 . S
C360 C355 1.382 . S
C360 C359 1.398 . S
C360 H387 0.929 . S
C361 O374 1.271 . S
C361 O375 1.251 . S
C362 O376 1.252 . S
C362 O377 1.272 . S
C363 Sm353 2.846 1_565 S
C363 C364 1.506 . S
C363 O378 1.261 . S
C363 O379 1.264 . S
C364 C363 1.506 . S
C364 C365 1.358 . S
C364 C369 1.382 . S
C365 C364 1.358 . S
C365 C366 1.385 . S
C365 H388 0.930 . S
C366 C365 1.385 . S
C366 C367 1.395 . S
C366 H389 0.929 . S
C367 C366 1.395 . S
C367 C368 1.335 . S
C368 C367 1.335 . S
C368 C369 1.398 . S
C368 H390 0.930 . S
C369 C364 1.382 . S
C369 C368 1.398 . S
C369 H391 0.929 . S
C370 O380 1.271 . S
C370 O381 1.251 . S
C371 O382 1.252 . S
C371 O383 1.272 . S
O372 Sm352 2.543 . S
O372 C354 1.261 . S
O373 Sm352 2.450 . S
O373 C354 1.242 . S
O374 Sm352 2.681 1_565 S
O374 Sm353 2.386 1_564 S
O374 C361 1.271 . S
O375 Sm352 2.464 1_565 S
O375 C361 1.251 . S
O376 Sm352 2.396 . S
O376 C362 1.252 . S
O377 Sm353 2.408 1_554 S
O377 C362 1.272 . S
O378 Sm353 2.543 1_565 S
O378 C363 1.261 . S
O379 Sm353 2.448 1_565 S
O379 C363 1.264 . S
O380 Sm352 2.386 1_556 S
O380 Sm353 2.681 . S
O380 C370 1.271 . S
O381 Sm353 2.464 . S
O381 C370 1.251 . S
O382 Sm353 2.396 1_565 S
O382 C371 1.252 . S
O383 Sm352 2.408 1_566 S
O383 C371 1.272 . S
H384 C356 0.930 . S
H385 C357 0.929 . S
H386 C359 0.930 . S
H387 C360 0.929 . S
H388 C365 0.930 . S
H389 C366 0.929 . S
H390 C368 0.930 . S
H391 C369 0.929 . S
Sm392 C394 2.846 . S
Sm392 O412 2.543 . S
Sm392 O413 2.450 . S
Sm392 O414 2.681 . S
Sm392 O415 2.464 . S
Sm392 O416 2.396 . S
Sm392 O420 2.386 . S
Sm392 O423 2.408 . S
Sm393 C403 2.846 . S
Sm393 O414 2.386 . S
Sm393 O417 2.408 . S
Sm393 O418 2.543 . S
Sm393 O419 2.450 . S
Sm393 O420 2.681 . S
Sm393 O421 2.464 . S
Sm393 O422 2.396 . S
C394 Sm392 2.846 . S
C394 C395 1.506 . S
C394 O412 1.261 . S
C394 O413 1.242 . S
C395 C394 1.506 . S
C395 C396 1.358 . S
C395 C400 1.382 . S
C396 C395 1.358 . S
C396 C397 1.385 . S
C396 H424 0.930 . S
C397 C396 1.385 . S
C397 C398 1.395 . S
C397 H425 0.929 . S
C398 C397 1.395 . S
C398 C399 1.335 . S
C399 C398 1.335 . S
C399 C400 1.398 . S
C399 H426 0.930 . S
C400 C395 1.382 . S
C400 C399 1.398 . S
C400 H427 0.929 . S
C401 O414 1.271 . S
C401 O415 1.251 . S
C402 O416 1.252 . S
C402 O417 1.272 . S
C403 Sm393 2.846 . S
C403 C404 1.506 . S
C403 O418 1.261 . S
C403 O419 1.242 . S
C404 C403 1.506 . S
C404 C405 1.358 . S
C404 C409 1.382 . S
C405 C404 1.358 . S
C405 C406 1.385 . S
C405 H428 0.930 . S
C406 C405 1.385 . S
C406 C407 1.395 . S
C406 H429 0.929 . S
C407 C406 1.395 . S
C407 C408 1.335 . S
C408 C407 1.335 . S
C408 C409 1.398 . S
C408 H430 0.930 . S
C409 C404 1.382 . S
C409 C408 1.398 . S
C409 H431 0.929 . S
C410 O420 1.271 . S
C410 O421 1.251 . S
C411 O422 1.252 . S
C411 O423 1.272 . S
O412 Sm392 2.543 . S
O412 C394 1.261 . S
O413 Sm392 2.450 . S
O413 C394 1.242 . S
O414 Sm392 2.681 . S
O414 Sm393 2.386 . S
O414 C401 1.271 . S
O415 Sm392 2.464 . S
O415 C401 1.251 . S
O416 Sm392 2.396 . S
O416 C402 1.252 . S
O417 Sm393 2.408 . S
O417 C402 1.272 . S
O418 Sm393 2.543 . S
O418 C403 1.261 . S
O419 Sm393 2.450 . S
O419 C403 1.242 . S
O420 Sm392 2.386 . S
O420 Sm393 2.681 . S
O420 C410 1.271 . S
O421 Sm393 2.464 . S
O421 C410 1.251 . S
O422 Sm393 2.396 . S
O422 C411 1.252 . S
O423 Sm392 2.408 . S
O423 C411 1.272 . S
H424 C396 0.930 . S
H425 C397 0.929 . S
H426 C399 0.930 . S
H427 C400 0.929 . S
H428 C405 0.930 . S
H429 C406 0.929 . S
H430 C408 0.930 . S
H431 C409 0.929 . S
Sm432 C434 2.846 . S
Sm432 O452 2.543 . S
Sm432 O453 2.450 . S
Sm432 O454 2.681 1_455 S
Sm432 O455 2.464 1_455 S
Sm432 O456 2.396 . S
Sm432 O460 2.386 1_554 S
Sm432 O463 2.408 1_454 S
Sm433 C443 2.846 1_455 S
Sm433 O454 2.386 1_456 S
Sm433 O457 2.408 1_556 S
Sm433 O458 2.543 1_455 S
Sm433 O459 2.450 1_455 S
Sm433 O460 2.681 . S
Sm433 O461 2.464 . S
Sm433 O462 2.396 1_455 S
C434 Sm432 2.846 . S
C434 C435 1.506 . S
C434 O452 1.261 . S
C434 O453 1.242 . S
C435 C434 1.506 . S
C435 C436 1.358 . S
C435 C440 1.382 . S
C436 C435 1.358 . S
C436 C437 1.385 . S
C436 H464 0.930 . S
C437 C436 1.385 . S
C437 C438 1.395 . S
C437 H465 0.929 . S
C438 C437 1.395 . S
C438 C439 1.335 . S
C439 C438 1.335 . S
C439 C440 1.398 . S
C439 H466 0.930 . S
C440 C435 1.382 . S
C440 C439 1.398 . S
C440 H467 0.929 . S
C441 O454 1.271 . S
C441 O455 1.251 . S
C442 O456 1.252 . S
C442 O457 1.272 . S
C443 Sm433 2.846 1_655 S
C443 C444 1.506 . S
C443 O458 1.261 . S
C443 O459 1.242 . S
C444 C443 1.506 . S
C444 C445 1.358 . S
C444 C449 1.382 . S
C445 C444 1.358 . S
C445 C446 1.385 . S
C445 H468 0.930 . S
C446 C445 1.385 . S
C446 C447 1.395 . S
C446 H469 0.929 . S
C447 C446 1.395 . S
C447 C448 1.335 . S
C448 C447 1.335 . S
C448 C449 1.398 . S
C448 H470 0.930 . S
C449 C444 1.382 . S
C449 C448 1.398 . S
C449 H471 0.929 . S
C450 O460 1.271 . S
C450 O461 1.251 . S
C451 O462 1.252 . S
C451 O463 1.272 . S
O452 Sm432 2.543 . S
O452 C434 1.261 . S
O453 Sm432 2.450 . S
O453 C434 1.242 . S
O454 Sm432 2.681 1_655 S
O454 Sm433 2.386 1_654 S
O454 C441 1.271 . S
O455 Sm432 2.464 1_655 S
O455 C441 1.251 . S
O456 Sm432 2.396 . S
O456 C442 1.252 . S
O457 Sm433 2.408 1_554 S
O457 C442 1.272 . S
O458 Sm433 2.543 1_655 S
O458 C443 1.261 . S
O459 Sm433 2.450 1_655 S
O459 C443 1.242 . S
O460 Sm432 2.386 1_556 S
O460 Sm433 2.681 . S
O460 C450 1.271 . S
O461 Sm433 2.464 . S
O461 C450 1.251 . S
O462 Sm433 2.396 1_655 S
O462 C451 1.252 . S
O463 Sm432 2.408 1_656 S
O463 C451 1.272 . S
H464 C436 0.930 . S
H465 C437 0.929 . S
H466 C439 0.930 . S
H467 C440 0.929 . S
H468 C445 0.930 . S
H469 C446 0.929 . S
H470 C448 0.930 . S
H471 C449 0.929 . S
H472 C490 0.951 . S
H473 C492 0.951 . S
H474 C494 0.950 . S
H475 C495 0.950 . S
H476 C497 0.950 . S
H477 C500 0.950 . S
H478 C501 0.950 . S
H479 C503 0.950 . S
H480 C504 0.950 . S
H481 C505 0.951 . S
H482 C507 0.951 . S
H483 C509 0.950 . S
H484 C510 0.950 . S
H485 C512 0.950 . S
H486 C515 0.950 . S
H487 C516 0.950 . S
H488 C518 0.950 . S
H489 C519 0.950 . S
C490 H472 0.951 . S
C490 C491 1.366 . S
C490 C492 1.388 . S
C491 C490 1.366 . S
C491 C495 1.385 . S
C492 H473 0.951 . S
C492 C490 1.388 . S
C492 C493 1.366 . S
C493 C492 1.366 . S
C493 C494 1.414 . S
C493 C496 1.499 . S
C494 H474 0.950 . S
C494 C493 1.414 . S
C494 C495 1.374 . S
C495 H475 0.950 . S
C495 C491 1.385 . S
C495 C494 1.374 . S
C496 C493 1.499 . S
C496 C497 1.373 . S
C496 C498 1.389 . S
C497 H476 0.950 . S
C497 C496 1.373 . S
C497 C513 1.377 . S
C498 C496 1.389 . S
C498 C499 1.524 . S
C498 C512 1.377 . S
C499 C498 1.524 . S
C499 C500 1.397 . S
C499 C504 1.363 . S
C500 H477 0.950 . S
C500 C499 1.397 . S
C500 C501 1.334 . S
C501 H478 0.950 . S
C501 C500 1.334 . S
C501 C502 1.287 . S
C502 C501 1.287 . S
C502 C503 1.524 . S
C502 H521 0.913 . S
C503 H479 0.950 . S
C503 C502 1.524 . S
C503 C504 1.415 . S
C504 H480 0.950 . S
C504 C499 1.363 . S
C504 C503 1.415 . S
C505 H481 0.951 . S
C505 C506 1.366 . S
C505 C507 1.388 . S
C506 C505 1.366 . S
C506 C510 1.385 . S
C507 H482 0.951 . S
C507 C505 1.388 . S
C507 C508 1.366 . S
C508 C507 1.366 . S
C508 C509 1.414 . S
C508 C511 1.499 . S
C509 H483 0.950 . S
C509 C508 1.414 . S
C509 C510 1.374 . S
C510 H484 0.950 . S
C510 C506 1.385 . S
C510 C509 1.374 . S
C511 C508 1.499 . S
C511 C512 1.373 . S
C511 C513 1.389 . S
C512 H485 0.950 . S
C512 C498 1.377 . S
C512 C511 1.373 . S
C513 C497 1.377 . S
C513 C511 1.389 . S
C513 C514 1.524 . S
C514 C513 1.524 . S
C514 C515 1.397 . S
C514 C519 1.363 . S
C515 H486 0.950 . S
C515 C514 1.397 . S
C515 C516 1.334 . S
C516 H487 0.950 . S
C516 C515 1.334 . S
C516 C517 1.287 . S
C517 C516 1.287 . S
C517 C518 1.524 . S
C517 H520 0.999 . S
C518 H488 0.950 . S
C518 C517 1.524 . S
C518 C519 1.415 . S
C519 H489 0.950 . S
C519 C514 1.363 . S
C519 C518 1.415 . S
H520 C517 0.999 . S
H521 C502 0.913 . S
H522 C540 0.951 . S
H523 C542 0.951 . S
H524 C544 0.950 . S
H525 C545 0.950 . S
H526 C547 0.950 . S
H527 C550 0.950 . S
H528 C551 0.950 . S
H529 C553 0.950 . S
H530 C554 0.950 . S
H531 C555 0.951 . S
H532 C557 0.951 . S
H533 C559 0.950 . S
H534 C560 0.950 . S
H535 C562 0.950 . S
H536 C565 0.950 . S
H537 C566 0.947 . S
H538 C568 0.950 . S
H539 C569 0.950 . S
C540 H522 0.951 . S
C540 C541 1.366 . S
C540 C542 1.388 . S
C541 C540 1.366 . S
C541 C545 1.385 . S
C542 H523 0.951 . S
C542 C540 1.388 . S
C542 C543 1.366 . S
C543 C542 1.366 . S
C543 C544 1.414 . S
C543 C546 1.499 . S
C544 H524 0.950 . S
C544 C543 1.414 . S
C544 C545 1.374 . S
C545 H525 0.950 . S
C545 C541 1.385 . S
C545 C544 1.374 . S
C546 C543 1.499 . S
C546 C547 1.373 . S
C546 C548 1.389 . S
C547 H526 0.950 . S
C547 C546 1.373 . S
C547 C563 1.377 . S
C548 C546 1.389 . S
C548 C549 1.524 . S
C548 C562 1.377 . S
C549 C548 1.524 . S
C549 C550 1.397 . S
C549 C554 1.363 . S
C550 H527 0.950 . S
C550 C549 1.397 . S
C550 C551 1.334 . S
C551 H528 0.950 . S
C551 C550 1.334 . S
C551 C552 1.287 . S
C552 C551 1.287 . S
C552 C553 1.524 . S
C552 H571 0.913 . S
C553 H529 0.950 . S
C553 C552 1.524 . S
C553 C554 1.415 . S
C554 H530 0.950 . S
C554 C549 1.363 . S
C554 C553 1.415 . S
C555 H531 0.951 . S
C555 C556 1.366 . S
C555 C557 1.388 . S
C556 C555 1.366 . S
C556 C560 1.385 . S
C557 H532 0.951 . S
C557 C555 1.388 . S
C557 C558 1.366 . S
C558 C557 1.366 . S
C558 C559 1.414 . S
C558 C561 1.499 . S
C559 H533 0.950 . S
C559 C558 1.414 . S
C559 C560 1.374 . S
C560 H534 0.950 . S
C560 C556 1.385 . S
C560 C559 1.374 . S
C561 C558 1.499 . S
C561 C562 1.373 . S
C561 C563 1.389 . S
C562 H535 0.950 . S
C562 C548 1.377 . S
C562 C561 1.373 . S
C563 C547 1.377 . S
C563 C561 1.389 . S
C563 C564 1.524 . S
C564 C563 1.524 . S
C564 C565 1.397 . S
C564 C569 1.363 . S
C565 H536 0.950 . S
C565 C564 1.397 . S
C565 C566 1.334 . S
C566 H537 0.947 . S
C566 C565 1.334 . S
C566 C567 1.287 . S
C567 C566 1.287 . S
C567 C568 1.524 . S
C567 H570 0.999 1_565 S
C568 H538 0.950 . S
C568 C567 1.524 . S
C568 C569 1.415 . S
C569 H539 0.950 . S
C569 C564 1.363 . S
C569 C568 1.415 . S
H570 C567 0.999 1_545 S
H571 C552 0.913 . S
H572 C590 0.951 . S
H573 C592 0.951 . S
H574 C594 0.950 . S
H575 C595 0.950 . S
H576 C597 0.950 . S
H577 C600 0.950 . S
H578 C601 0.950 . S
H579 C603 0.950 . S
H580 C604 0.950 . S
H581 C605 0.951 . S
H582 C607 0.951 . S
H583 C609 0.950 . S
H584 C610 0.950 . S
H585 C612 0.950 . S
H586 C615 0.950 . S
H587 C616 0.950 . S
H588 C618 0.950 . S
H589 C619 0.950 . S
C590 H572 0.951 . S
C590 C591 1.366 . S
C590 C592 1.388 . S
C591 C590 1.366 . S
C591 C595 1.385 . S
C592 H573 0.951 . S
C592 C590 1.388 . S
C592 C593 1.366 . S
C593 C592 1.366 . S
C593 C594 1.414 . S
C593 C596 1.499 . S
C594 H574 0.950 . S
C594 C593 1.414 . S
C594 C595 1.374 . S
C595 H575 0.950 . S
C595 C591 1.385 . S
C595 C594 1.374 . S
C596 C593 1.499 . S
C596 C597 1.373 . S
C596 C598 1.389 . S
C597 H576 0.950 . S
C597 C596 1.373 . S
C597 C613 1.377 . S
C598 C596 1.389 . S
C598 C599 1.524 . S
C598 C612 1.377 . S
C599 C598 1.524 . S
C599 C600 1.397 . S
C599 C604 1.363 . S
C600 H577 0.950 . S
C600 C599 1.397 . S
C600 C601 1.334 . S
C601 H578 0.950 . S
C601 C600 1.334 . S
C601 C602 1.287 . S
C602 C601 1.287 . S
C602 C603 1.524 . S
C602 H621 0.913 . S
C603 H579 0.950 . S
C603 C602 1.524 . S
C603 C604 1.415 . S
C604 H580 0.950 . S
C604 C599 1.363 . S
C604 C603 1.415 . S
C605 H581 0.951 . S
C605 C606 1.366 . S
C605 C607 1.388 . S
C606 C605 1.366 . S
C606 C610 1.385 . S
C607 H582 0.951 . S
C607 C605 1.388 . S
C607 C608 1.366 . S
C608 C607 1.366 . S
C608 C609 1.414 . S
C608 C611 1.499 . S
C609 H583 0.950 . S
C609 C608 1.414 . S
C609 C610 1.374 . S
C610 H584 0.950 . S
C610 C606 1.385 . S
C610 C609 1.374 . S
C611 C608 1.499 . S
C611 C612 1.373 . S
C611 C613 1.389 . S
C612 H585 0.950 . S
C612 C598 1.377 . S
C612 C611 1.373 . S
C613 C597 1.377 . S
C613 C611 1.389 . S
C613 C614 1.524 . S
C614 C613 1.524 . S
C614 C615 1.397 . S
C614 C619 1.363 . S
C615 H586 0.950 . S
C615 C614 1.397 . S
C615 C616 1.334 . S
C616 H587 0.950 . S
C616 C615 1.334 . S
C616 C617 1.287 . S
C617 C616 1.287 . S
C617 C618 1.524 . S
C617 H620 0.999 . S
C618 H588 0.950 . S
C618 C617 1.524 . S
C618 C619 1.415 . S
C619 H589 0.950 . S
C619 C614 1.363 . S
C619 C618 1.415 . S
H620 C617 0.999 . S
H621 C602 0.913 . S
H622 C640 0.951 . S
H623 C642 0.951 . S
H624 C644 0.950 . S
H625 C645 0.950 . S
H626 C647 0.950 . S
H627 C650 0.950 . S
H628 C651 0.950 . S
H629 C653 0.950 . S
H630 C654 0.950 . S
H631 C655 0.951 . S
H632 C657 0.951 . S
H633 C659 0.950 . S
H634 C660 0.950 . S
H635 C662 0.950 . S
H636 C665 0.950 . S
H637 C666 0.950 . S
H638 C668 0.950 . S
H639 C669 0.950 . S
C640 H622 0.951 . S
C640 C641 1.366 . S
C640 C642 1.388 . S
C641 C640 1.366 . S
C641 C645 1.385 . S
C642 H623 0.951 . S
C642 C640 1.388 . S
C642 C643 1.366 . S
C643 C642 1.366 . S
C643 C644 1.414 . S
C643 C646 1.499 . S
C644 H624 0.950 . S
C644 C643 1.414 . S
C644 C645 1.374 . S
C645 H625 0.950 . S
C645 C641 1.385 . S
C645 C644 1.374 . S
C646 C643 1.499 . S
C646 C647 1.373 . S
C646 C648 1.389 . S
C647 H626 0.950 . S
C647 C646 1.373 . S
C647 C663 1.377 . S
C648 C646 1.389 . S
C648 C649 1.524 . S
C648 C662 1.377 . S
C649 C648 1.524 . S
C649 C650 1.397 . S
C649 C654 1.363 . S
C650 H627 0.950 . S
C650 C649 1.397 . S
C650 C651 1.334 . S
C651 H628 0.950 . S
C651 C650 1.334 . S
C651 C652 1.287 . S
C652 C651 1.287 . S
C652 C653 1.524 1_655 S
C652 H671 0.913 1_655 S
C653 H629 0.950 . S
C653 C652 1.524 1_455 S
C653 C654 1.415 1_455 S
C654 H630 0.950 . S
C654 C649 1.363 . S
C654 C653 1.415 1_655 S
C655 H631 0.951 . S
C655 C656 1.366 . S
C655 C657 1.388 . S
C656 C655 1.366 . S
C656 C660 1.385 . S
C657 H632 0.951 . S
C657 C655 1.388 . S
C657 C658 1.366 . S
C658 C657 1.366 . S
C658 C659 1.414 . S
C658 C661 1.499 . S
C659 H633 0.950 . S
C659 C658 1.414 . S
C659 C660 1.374 . S
C660 H634 0.950 . S
C660 C656 1.385 . S
C660 C659 1.374 . S
C661 C658 1.499 . S
C661 C662 1.373 . S
C661 C663 1.389 . S
C662 H635 0.950 . S
C662 C648 1.377 . S
C662 C661 1.373 . S
C663 C647 1.377 . S
C663 C661 1.389 . S
C663 C664 1.524 . S
C664 C663 1.524 . S
C664 C665 1.397 . S
C664 C669 1.363 . S
C665 H636 0.950 . S
C665 C664 1.397 . S
C665 C666 1.334 . S
C666 H637 0.950 . S
C666 C665 1.334 . S
C666 C667 1.287 . S
C667 C666 1.287 . S
C667 C668 1.524 . S
C667 H670 0.999 . S
C668 H638 0.950 . S
C668 C667 1.524 . S
C668 C669 1.415 . S
C669 H639 0.950 . S
C669 C664 1.363 . S
C669 C668 1.415 . S
H670 C667 0.999 . S
H671 C652 0.913 1_455 S
H672 C690 0.951 . S
H673 C692 0.951 . S
H674 C694 0.950 . S
H675 C695 0.950 . S
H676 C697 0.950 . S
H677 C700 0.950 . S
H678 C701 0.950 . S
H679 C703 0.950 . S
H680 C704 0.950 . S
H681 C705 0.951 . S
H682 C707 0.951 . S
H683 C709 0.950 . S
H684 C710 0.950 . S
H685 C712 0.950 . S
H686 C715 0.950 . S
H687 C716 0.950 . S
H688 C718 0.950 . S
H689 C719 0.950 . S
C690 H672 0.951 . S
C690 C691 1.366 . S
C690 C692 1.388 . S
C691 C690 1.366 . S
C691 C695 1.385 . S
C692 H673 0.951 . S
C692 C690 1.388 . S
C692 C693 1.366 . S
C693 C692 1.366 . S
C693 C694 1.414 . S
C693 C696 1.499 . S
C694 H674 0.950 . S
C694 C693 1.414 . S
C694 C695 1.374 . S
C695 H675 0.950 . S
C695 C691 1.385 . S
C695 C694 1.374 . S
C696 C693 1.499 . S
C696 C697 1.373 . S
C696 C698 1.389 . S
C697 H676 0.950 . S
C697 C696 1.373 . S
C697 C713 1.377 . S
C698 C696 1.389 . S
C698 C699 1.524 . S
C698 C712 1.377 . S
C699 C698 1.524 . S
C699 C700 1.397 . S
C699 C704 1.363 . S
C700 H677 0.950 . S
C700 C699 1.397 . S
C700 C701 1.334 . S
C701 H678 0.950 . S
C701 C700 1.334 . S
C701 C702 1.287 . S
C702 C701 1.287 . S
C702 C703 1.524 . S
C702 H721 0.913 . S
C703 H679 0.950 . S
C703 C702 1.524 . S
C703 C704 1.415 . S
C704 H680 0.950 . S
C704 C699 1.363 . S
C704 C703 1.415 . S
C705 H681 0.951 . S
C705 C706 1.366 . S
C705 C707 1.388 . S
C706 C705 1.366 . S
C706 C710 1.385 . S
C707 H682 0.951 . S
C707 C705 1.388 . S
C707 C708 1.366 . S
C708 C707 1.366 . S
C708 C709 1.414 . S
C708 C711 1.499 . S
C709 H683 0.950 . S
C709 C708 1.414 . S
C709 C710 1.374 . S
C710 H684 0.950 . S
C710 C706 1.385 . S
C710 C709 1.374 . S
C711 C708 1.499 . S
C711 C712 1.373 . S
C711 C713 1.389 . S
C712 H685 0.950 . S
C712 C698 1.377 . S
C712 C711 1.373 . S
C713 C697 1.377 . S
C713 C711 1.389 . S
C713 C714 1.524 . S
C714 C713 1.524 . S
C714 C715 1.397 . S
C714 C719 1.363 . S
C715 H686 0.950 . S
C715 C714 1.397 . S
C715 C716 1.334 . S
C716 H687 0.950 . S
C716 C715 1.334 . S
C716 C717 1.287 . S
C717 C716 1.287 . S
C717 C718 1.524 . S
C717 H720 0.999 . S
C718 H688 0.950 . S
C718 C717 1.524 . S
C718 C719 1.415 . S
C719 H689 0.950 . S
C719 C714 1.363 . S
C719 C718 1.415 . S
H720 C717 0.999 . S
H721 C702 0.913 . S
H722 C740 0.951 . S
H723 C742 0.951 . S
H724 C744 0.950 . S
H725 C745 0.950 . S
H726 C747 0.950 . S
H727 C750 0.950 . S
H728 C751 0.950 . S
H729 C753 0.950 . S
H730 C754 0.950 . S
H731 C755 0.948 1_545 S
H732 C757 0.951 . S
H733 C759 0.950 . S
H734 C760 0.950 . S
H735 C762 0.950 . S
H736 C765 0.950 . S
H737 C766 0.950 . S
H738 C768 0.950 . S
H739 C769 0.950 . S
C740 H722 0.951 . S
C740 C741 1.366 . S
C740 C742 1.388 . S
C741 C740 1.366 . S
C741 C745 1.385 . S
C742 H723 0.951 . S
C742 C740 1.388 . S
C742 C743 1.366 . S
C743 C742 1.366 . S
C743 C744 1.414 . S
C743 C746 1.499 . S
C744 H724 0.950 . S
C744 C743 1.414 . S
C744 C745 1.374 . S
C745 H725 0.950 . S
C745 C741 1.385 . S
C745 C744 1.374 . S
C746 C743 1.499 . S
C746 C747 1.373 . S
C746 C748 1.389 . S
C747 H726 0.950 . S
C747 C746 1.373 . S
C747 C763 1.377 . S
C748 C746 1.389 . S
C748 C749 1.524 . S
C748 C762 1.377 . S
C749 C748 1.524 . S
C749 C750 1.397 . S
C749 C754 1.363 . S
C750 H727 0.950 . S
C750 C749 1.397 . S
C750 C751 1.334 . S
C751 H728 0.950 . S
C751 C750 1.334 . S
C751 C752 1.287 . S
C752 C751 1.287 . S
C752 C753 1.524 . S
C752 H771 0.913 . S
C753 H729 0.950 . S
C753 C752 1.524 . S
C753 C754 1.415 . S
C754 H730 0.950 . S
C754 C749 1.363 . S
C754 C753 1.415 . S
C755 H731 0.948 1_565 S
C755 C756 1.366 . S
C755 C757 1.388 . S
C756 C755 1.366 . S
C756 C760 1.385 . S
C757 H732 0.951 . S
C757 C755 1.388 . S
C757 C758 1.366 . S
C758 C757 1.366 . S
C758 C759 1.414 . S
C758 C761 1.499 . S
C759 H733 0.950 . S
C759 C758 1.414 . S
C759 C760 1.374 . S
C760 H734 0.950 . S
C760 C756 1.385 . S
C760 C759 1.374 . S
C761 C758 1.499 . S
C761 C762 1.373 . S
C761 C763 1.389 . S
C762 H735 0.950 . S
C762 C748 1.377 . S
C762 C761 1.373 . S
C763 C747 1.377 . S
C763 C761 1.389 . S
C763 C764 1.524 . S
C764 C763 1.524 . S
C764 C765 1.397 . S
C764 C769 1.363 . S
C765 H736 0.950 . S
C765 C764 1.397 . S
C765 C766 1.334 1_565 S
C766 H737 0.950 . S
C766 C765 1.334 1_545 S
C766 C767 1.287 . S
C767 C766 1.287 . S
C767 C768 1.524 . S
C767 H770 0.999 . S
C768 H738 0.950 . S
C768 C767 1.524 . S
C768 C769 1.415 1_545 S
C769 H739 0.950 . S
C769 C764 1.363 . S
C769 C768 1.415 1_565 S
H770 C767 0.999 . S
H771 C752 0.913 . S
H772 C790 0.951 . S
H773 C792 0.951 . S
H774 C794 0.950 . S
H775 C795 0.950 . S
H776 C797 0.950 . S
H777 C800 0.950 . S
H778 C801 0.950 . S
H779 C803 0.950 . S
H780 C804 0.950 . S
H781 C805 0.951 . S
H782 C807 0.951 . S
H783 C809 0.950 . S
H784 C810 0.958 . S
H785 C812 0.950 . S
H786 C815 0.950 . S
H787 C816 0.950 . S
H788 C818 0.950 . S
H789 C819 0.950 . S
C790 H772 0.951 . S
C790 C791 1.366 . S
C790 C792 1.388 . S
C791 C790 1.366 . S
C791 C795 1.385 . S
C792 H773 0.951 . S
C792 C790 1.388 . S
C792 C793 1.366 . S
C793 C792 1.366 . S
C793 C794 1.414 . S
C793 C796 1.499 . S
C794 H774 0.950 . S
C794 C793 1.414 . S
C794 C795 1.374 . S
C795 H775 0.950 . S
C795 C791 1.385 . S
C795 C794 1.374 . S
C796 C793 1.499 . S
C796 C797 1.373 . S
C796 C798 1.389 . S
C797 H776 0.950 . S
C797 C796 1.373 . S
C797 C813 1.377 . S
C798 C796 1.389 . S
C798 C799 1.524 . S
C798 C812 1.377 . S
C799 C798 1.524 . S
C799 C800 1.397 . S
C799 C804 1.363 . S
C800 H777 0.950 . S
C800 C799 1.397 . S
C800 C801 1.334 . S
C801 H778 0.950 . S
C801 C800 1.334 . S
C801 C802 1.287 . S
C802 C801 1.287 . S
C802 C803 1.524 . S
C802 H821 0.913 . S
C803 H779 0.950 . S
C803 C802 1.524 . S
C803 C804 1.415 . S
C804 H780 0.950 . S
C804 C799 1.363 . S
C804 C803 1.415 . S
C805 H781 0.951 . S
C805 C806 1.366 . S
C805 C807 1.388 . S
C806 C805 1.366 . S
C806 C810 1.385 . S
C807 H782 0.951 . S
C807 C805 1.388 . S
C807 C808 1.366 . S
C808 C807 1.366 . S
C808 C809 1.414 . S
C808 C811 1.499 . S
C809 H783 0.950 . S
C809 C808 1.414 . S
C809 C810 1.374 . S
C810 H784 0.958 . S
C810 C806 1.385 . S
C810 C809 1.374 . S
C811 C808 1.499 . S
C811 C812 1.373 . S
C811 C813 1.389 . S
C812 H785 0.950 . S
C812 C798 1.377 . S
C812 C811 1.373 . S
C813 C797 1.377 . S
C813 C811 1.389 . S
C813 C814 1.524 . S
C814 C813 1.524 . S
C814 C815 1.397 . S
C814 C819 1.363 . S
C815 H786 0.950 . S
C815 C814 1.397 . S
C815 C816 1.334 . S
C816 H787 0.950 . S
C816 C815 1.334 . S
C816 C817 1.287 . S
C817 C816 1.287 . S
C817 C818 1.524 . S
C817 H820 0.999 . S
C818 H788 0.950 . S
C818 C817 1.524 . S
C818 C819 1.415 . S
C819 H789 0.950 . S
C819 C814 1.363 . S
C819 C818 1.415 . S
H820 C817 0.999 . S
H821 C802 0.913 . S
H822 C840 0.951 . S
H823 C842 0.951 . S
H824 C844 0.950 . S
H825 C845 0.950 . S
H826 C847 0.950 . S
H827 C850 0.950 . S
H828 C851 0.950 . S
H829 C853 0.950 . S
H830 C854 0.950 . S
H831 C855 0.951 . S
H832 C857 0.951 . S
H833 C859 0.950 . S
H834 C860 0.950 . S
H835 C862 0.950 . S
H836 C865 0.950 . S
H837 C866 0.950 . S
H838 C868 0.950 . S
H839 C869 0.950 . S
C840 H822 0.951 . S
C840 C841 1.366 . S
C840 C842 1.388 . S
C841 C840 1.366 . S
C841 C845 1.385 . S
C842 H823 0.951 . S
C842 C840 1.388 . S
C842 C843 1.366 . S
C843 C842 1.366 . S
C843 C844 1.414 . S
C843 C846 1.499 . S
C844 H824 0.950 . S
C844 C843 1.414 . S
C844 C845 1.374 . S
C845 H825 0.950 . S
C845 C841 1.385 . S
C845 C844 1.374 . S
C846 C843 1.499 . S
C846 C847 1.373 . S
C846 C848 1.389 . S
C847 H826 0.950 . S
C847 C846 1.373 . S
C847 C863 1.377 . S
C848 C846 1.389 . S
C848 C849 1.524 . S
C848 C862 1.377 . S
C849 C848 1.524 . S
C849 C850 1.397 . S
C849 C854 1.363 . S
C850 H827 0.950 . S
C850 C849 1.397 . S
C850 C851 1.334 . S
C851 H828 0.950 . S
C851 C850 1.334 . S
C851 C852 1.287 . S
C852 C851 1.287 . S
C852 C853 1.524 . S
C852 H871 0.913 . S
C853 H829 0.950 . S
C853 C852 1.524 . S
C853 C854 1.415 . S
C854 H830 0.950 . S
C854 C849 1.363 . S
C854 C853 1.415 . S
C855 H831 0.951 . S
C855 C856 1.366 . S
C855 C857 1.388 . S
C856 C855 1.366 . S
C856 C860 1.385 . S
C857 H832 0.951 . S
C857 C855 1.388 . S
C857 C858 1.366 . S
C858 C857 1.366 . S
C858 C859 1.414 . S
C858 C861 1.499 . S
C859 H833 0.950 . S
C859 C858 1.414 . S
C859 C860 1.374 . S
C860 H834 0.950 . S
C860 C856 1.385 . S
C860 C859 1.374 . S
C861 C858 1.499 . S
C861 C862 1.373 . S
C861 C863 1.389 . S
C862 H835 0.950 . S
C862 C848 1.377 . S
C862 C861 1.373 . S
C863 C847 1.377 . S
C863 C861 1.389 . S
C863 C864 1.524 . S
C864 C863 1.524 . S
C864 C865 1.397 . S
C864 C869 1.363 . S
C865 H836 0.950 . S
C865 C864 1.397 . S
C865 C866 1.334 . S
C866 H837 0.950 . S
C866 C865 1.334 . S
C866 C867 1.287 . S
C867 C866 1.287 . S
C867 C868 1.524 . S
C867 H870 0.999 . S
C868 H838 0.950 . S
C868 C867 1.524 . S
C868 C869 1.415 . S
C869 H839 0.950 . S
C869 C864 1.363 . S
C869 C868 1.415 . S
H870 C867 0.999 . S
H871 C852 0.913 . S
H872 C890 0.951 . S
H873 C892 0.951 . S
H874 C894 0.950 . S
H875 C895 0.950 . S
H876 C897 0.950 . S
H877 C900 0.950 . S
H878 C901 0.950 . S
H879 C903 0.950 . S
H880 C904 0.950 . S
H881 C905 0.951 . S
H882 C907 0.951 . S
H883 C909 0.950 . S
H884 C910 0.950 . S
H885 C912 0.950 . S
H886 C915 0.950 . S
H887 C916 0.950 . S
H888 C918 0.950 . S
H889 C919 0.950 . S
C890 H872 0.951 . S
C890 C891 1.366 . S
C890 C892 1.388 . S
C891 C890 1.366 . S
C891 C895 1.385 . S
C892 H873 0.951 . S
C892 C890 1.388 . S
C892 C893 1.366 . S
C893 C892 1.366 . S
C893 C894 1.414 . S
C893 C896 1.499 . S
C894 H874 0.950 . S
C894 C893 1.414 . S
C894 C895 1.374 . S
C895 H875 0.950 . S
C895 C891 1.385 . S
C895 C894 1.374 . S
C896 C893 1.499 . S
C896 C897 1.373 . S
C896 C898 1.389 . S
C897 H876 0.950 . S
C897 C896 1.373 . S
C897 C913 1.377 . S
C898 C896 1.389 . S
C898 C899 1.524 . S
C898 C912 1.377 . S
C899 C898 1.524 . S
C899 C900 1.397 . S
C899 C904 1.363 . S
C900 H877 0.950 . S
C900 C899 1.397 . S
C900 C901 1.334 . S
C901 H878 0.950 . S
C901 C900 1.334 . S
C901 C902 1.287 . S
C902 C901 1.287 . S
C902 C903 1.524 . S
C902 H921 0.913 . S
C903 H879 0.950 . S
C903 C902 1.524 . S
C903 C904 1.415 . S
C904 H880 0.950 . S
C904 C899 1.363 . S
C904 C903 1.415 . S
C905 H881 0.951 . S
C905 C906 1.366 . S
C905 C907 1.388 . S
C906 C905 1.366 . S
C906 C910 1.385 . S
C907 H882 0.951 . S
C907 C905 1.388 . S
C907 C908 1.366 . S
C908 C907 1.366 . S
C908 C909 1.414 . S
C908 C911 1.499 . S
C909 H883 0.950 . S
C909 C908 1.414 . S
C909 C910 1.374 . S
C910 H884 0.950 . S
C910 C906 1.385 . S
C910 C909 1.374 . S
C911 C908 1.499 . S
C911 C912 1.373 . S
C911 C913 1.389 . S
C912 H885 0.950 . S
C912 C898 1.377 . S
C912 C911 1.373 . S
C913 C897 1.377 . S
C913 C911 1.389 . S
C913 C914 1.524 . S
C914 C913 1.524 . S
C914 C915 1.397 . S
C914 C919 1.363 . S
C915 H886 0.950 . S
C915 C914 1.397 . S
C915 C916 1.334 . S
C916 H887 0.950 . S
C916 C915 1.334 . S
C916 C917 1.287 . S
C917 C916 1.287 . S
C917 C918 1.524 . S
C917 H920 0.999 . S
C918 H888 0.950 . S
C918 C917 1.524 . S
C918 C919 1.415 . S
C919 H889 0.950 . S
C919 C914 1.363 . S
C919 C918 1.415 . S
H920 C917 0.999 . S
H921 C902 0.913 . S
H922 C940 0.951 . S
H923 C942 0.951 . S
H924 C944 0.950 . S
H925 C945 0.950 . S
H926 C947 0.950 . S
H927 C950 0.950 . S
H928 C951 0.950 . S
H929 C953 0.950 . S
H930 C954 0.950 . S
H931 C955 0.951 . S
H932 C957 0.951 . S
H933 C959 0.950 . S
H934 C960 0.950 . S
H935 C962 0.950 . S
H936 C965 0.950 . S
H937 C966 0.950 . S
H938 C968 0.950 . S
H939 C969 0.950 . S
C940 H922 0.951 . S
C940 C941 1.366 . S
C940 C942 1.388 . S
C941 C940 1.366 . S
C941 C945 1.385 . S
C942 H923 0.951 . S
C942 C940 1.388 . S
C942 C943 1.366 . S
C943 C942 1.366 . S
C943 C944 1.414 . S
C943 C946 1.499 . S
C944 H924 0.950 . S
C944 C943 1.414 . S
C944 C945 1.374 . S
C945 H925 0.950 . S
C945 C941 1.385 . S
C945 C944 1.374 . S
C946 C943 1.499 . S
C946 C947 1.373 . S
C946 C948 1.389 . S
C947 H926 0.950 . S
C947 C946 1.373 . S
C947 C963 1.377 . S
C948 C946 1.389 . S
C948 C949 1.524 . S
C948 C962 1.377 . S
C949 C948 1.524 . S
C949 C950 1.397 . S
C949 C954 1.363 . S
C950 H927 0.950 . S
C950 C949 1.397 . S
C950 C951 1.334 . S
C951 H928 0.950 . S
C951 C950 1.334 . S
C951 C952 1.287 . S
C952 C951 1.287 . S
C952 C953 1.524 . S
C952 H971 0.913 . S
C953 H929 0.950 . S
C953 C952 1.524 . S
C953 C954 1.415 . S
C954 H930 0.950 . S
C954 C949 1.363 . S
C954 C953 1.415 . S
C955 H931 0.951 . S
C955 C956 1.366 . S
C955 C957 1.388 . S
C956 C955 1.366 . S
C956 C960 1.385 . S
C957 H932 0.951 . S
C957 C955 1.388 . S
C957 C958 1.366 . S
C958 C957 1.366 . S
C958 C959 1.414 . S
C958 C961 1.499 . S
C959 H933 0.950 . S
C959 C958 1.414 . S
C959 C960 1.374 . S
C960 H934 0.950 . S
C960 C956 1.385 . S
C960 C959 1.374 . S
C961 C958 1.499 . S
C961 C962 1.373 . S
C961 C963 1.389 . S
C962 H935 0.950 . S
C962 C948 1.377 . S
C962 C961 1.373 . S
C963 C947 1.377 . S
C963 C961 1.389 . S
C963 C964 1.524 . S
C964 C963 1.524 . S
C964 C965 1.397 . S
C964 C969 1.363 . S
C965 H936 0.950 . S
C965 C964 1.397 . S
C965 C966 1.334 . S
C966 H937 0.950 . S
C966 C965 1.334 . S
C966 C967 1.287 . S
C967 C966 1.287 . S
C967 C968 1.524 . S
C967 H970 0.999 . S
C968 H938 0.950 . S
C968 C967 1.524 . S
C968 C969 1.415 . S
C969 H939 0.950 . S
C969 C964 1.363 . S
C969 C968 1.415 . S
H970 C967 0.999 . S
H971 C952 0.913 . S
H972 C990 0.951 . S
H973 C992 0.951 . S
H974 C994 0.950 . S
H975 C995 0.950 . S
H976 C997 0.950 . S
H977 C1000 0.950 . S
H978 C1001 0.950 . S
H979 C1003 0.950 . S
H980 C1004 0.950 . S
H981 C1005 0.951 . S
H982 C1007 0.951 . S
H983 C1009 0.950 . S
H984 C1010 0.950 . S
H985 C1012 0.950 . S
H986 C1015 0.950 . S
H987 C1016 0.950 . S
H988 C1018 0.950 . S
H989 C1019 0.950 . S
C990 H972 0.951 . S
C990 C991 1.366 . S
C990 C992 1.388 . S
C991 C990 1.366 . S
C991 C995 1.385 . S
C992 H973 0.951 . S
C992 C990 1.388 . S
C992 C993 1.366 . S
C993 C992 1.366 . S
C993 C994 1.414 . S
C993 C996 1.499 . S
C994 H974 0.950 . S
C994 C993 1.414 . S
C994 C995 1.374 . S
C995 H975 0.950 . S
C995 C991 1.385 . S
C995 C994 1.374 . S
C996 C993 1.499 . S
C996 C997 1.373 . S
C996 C998 1.389 . S
C997 H976 0.950 . S
C997 C996 1.373 . S
C997 C1013 1.377 . S
C998 C996 1.389 . S
C998 C999 1.524 . S
C998 C1012 1.377 . S
C999 C998 1.524 . S
C999 C1000 1.397 . S
C999 C1004 1.363 . S
C1000 H977 0.950 . S
C1000 C999 1.397 . S
C1000 C1001 1.334 . S
C1001 H978 0.950 . S
C1001 C1000 1.334 . S
C1001 C1002 1.287 . S
C1002 C1001 1.287 . S
C1002 C1003 1.524 . S
C1002 H1021 0.913 . S
C1003 H979 0.950 . S
C1003 C1002 1.524 . S
C1003 C1004 1.415 . S
C1004 H980 0.950 . S
C1004 C999 1.363 . S
C1004 C1003 1.415 . S
C1005 H981 0.951 . S
C1005 C1006 1.366 . S
C1005 C1007 1.388 . S
C1006 C1005 1.366 . S
C1006 C1010 1.385 . S
C1007 H982 0.951 . S
C1007 C1005 1.388 . S
C1007 C1008 1.366 . S
C1008 C1007 1.366 . S
C1008 C1009 1.414 . S
C1008 C1011 1.499 . S
C1009 H983 0.950 . S
C1009 C1008 1.414 . S
C1009 C1010 1.374 . S
C1010 H984 0.950 . S
C1010 C1006 1.385 . S
C1010 C1009 1.374 . S
C1011 C1008 1.499 . S
C1011 C1012 1.373 . S
C1011 C1013 1.389 . S
C1012 H985 0.950 . S
C1012 C998 1.377 . S
C1012 C1011 1.373 . S
C1013 C997 1.377 . S
C1013 C1011 1.389 . S
C1013 C1014 1.524 . S
C1014 C1013 1.524 . S
C1014 C1015 1.397 . S
C1014 C1019 1.363 . S
C1015 H986 0.950 . S
C1015 C1014 1.397 . S
C1015 C1016 1.334 . S
C1016 H987 0.950 . S
C1016 C1015 1.334 . S
C1016 C1017 1.287 . S
C1017 C1016 1.287 . S
C1017 C1018 1.524 . S
C1017 H1020 0.999 . S
C1018 H988 0.950 . S
C1018 C1017 1.524 . S
C1018 C1019 1.415 . S
C1019 H989 0.950 . S
C1019 C1014 1.363 . S
C1019 C1018 1.415 . S
H1020 C1017 0.999 . S
H1021 C1002 0.913 . S
H1022 C1040 0.951 . S
H1023 C1042 0.951 . S
H1024 C1044 0.950 . S
H1025 C1045 0.950 . S
H1026 C1047 0.950 . S
H1027 C1050 0.950 . S
H1028 C1051 0.950 . S
H1029 C1053 0.950 . S
H1030 C1054 0.950 . S
H1031 C1055 0.951 . S
H1032 C1057 0.951 . S
H1033 C1059 0.950 . S
H1034 C1060 0.950 . S
H1035 C1062 0.950 . S
H1036 C1065 0.950 . S
H1037 C1066 0.950 . S
H1038 C1068 0.950 . S
H1039 C1069 0.950 . S
C1040 H1022 0.951 . S
C1040 C1041 1.366 . S
C1040 C1042 1.388 . S
C1041 C1040 1.366 . S
C1041 C1045 1.385 . S
C1042 H1023 0.951 . S
C1042 C1040 1.388 . S
C1042 C1043 1.366 . S
C1043 C1042 1.366 . S
C1043 C1044 1.414 . S
C1043 C1046 1.499 . S
C1044 H1024 0.950 . S
C1044 C1043 1.414 . S
C1044 C1045 1.374 . S
C1045 H1025 0.950 . S
C1045 C1041 1.385 . S
C1045 C1044 1.374 . S
C1046 C1043 1.499 . S
C1046 C1047 1.373 . S
C1046 C1048 1.389 . S
C1047 H1026 0.950 . S
C1047 C1046 1.373 . S
C1047 C1063 1.377 . S
C1048 C1046 1.389 . S
C1048 C1049 1.524 . S
C1048 C1062 1.377 . S
C1049 C1048 1.524 . S
C1049 C1050 1.397 . S
C1049 C1054 1.363 . S
C1050 H1027 0.950 . S
C1050 C1049 1.397 . S
C1050 C1051 1.334 . S
C1051 H1028 0.950 . S
C1051 C1050 1.334 . S
C1051 C1052 1.287 . S
C1052 C1051 1.287 . S
C1052 C1053 1.524 . S
C1052 H1071 0.913 . S
C1053 H1029 0.950 . S
C1053 C1052 1.524 . S
C1053 C1054 1.415 . S
C1054 H1030 0.950 . S
C1054 C1049 1.363 . S
C1054 C1053 1.415 . S
C1055 H1031 0.951 . S
C1055 C1056 1.366 . S
C1055 C1057 1.388 . S
C1056 C1055 1.366 . S
C1056 C1060 1.385 . S
C1057 H1032 0.951 . S
C1057 C1055 1.388 . S
C1057 C1058 1.366 . S
C1058 C1057 1.366 . S
C1058 C1059 1.414 . S
C1058 C1061 1.499 . S
C1059 H1033 0.950 . S
C1059 C1058 1.414 . S
C1059 C1060 1.374 . S
C1060 H1034 0.950 . S
C1060 C1056 1.385 . S
C1060 C1059 1.374 . S
C1061 C1058 1.499 . S
C1061 C1062 1.373 . S
C1061 C1063 1.389 . S
C1062 H1035 0.950 . S
C1062 C1048 1.377 . S
C1062 C1061 1.373 . S
C1063 C1047 1.377 . S
C1063 C1061 1.389 . S
C1063 C1064 1.524 . S
C1064 C1063 1.524 . S
C1064 C1065 1.397 . S
C1064 C1069 1.363 . S
C1065 H1036 0.950 . S
C1065 C1064 1.397 . S
C1065 C1066 1.334 . S
C1066 H1037 0.950 . S
C1066 C1065 1.334 . S
C1066 C1067 1.287 . S
C1067 C1066 1.287 . S
C1067 C1068 1.524 . S
C1067 H1070 0.999 . S
C1068 H1038 0.950 . S
C1068 C1067 1.524 . S
C1068 C1069 1.415 . S
C1069 H1039 0.950 . S
C1069 C1064 1.363 . S
C1069 C1068 1.415 . S
H1070 C1067 0.999 . S
H1071 C1052 0.913 . S
H1072 C1090 0.951 . S
H1073 C1092 0.951 . S
H1074 C1094 0.950 . S
H1075 C1095 0.950 . S
H1076 C1097 0.950 . S
H1077 C1100 0.950 . S
H1078 C1101 0.950 . S
H1079 C1103 0.950 . S
H1080 C1104 0.950 . S
H1081 C1105 0.951 . S
H1082 C1107 0.951 . S
H1083 C1109 0.950 . S
H1084 C1110 0.950 . S
H1085 C1112 0.950 . S
H1086 C1115 0.950 . S
H1087 C1116 0.950 . S
H1088 C1118 0.950 . S
H1089 C1119 0.950 . S
C1090 H1072 0.951 . S
C1090 C1091 1.366 . S
C1090 C1092 1.388 . S
C1091 C1090 1.366 . S
C1091 C1095 1.385 . S
C1092 H1073 0.951 . S
C1092 C1090 1.388 . S
C1092 C1093 1.366 . S
C1093 C1092 1.366 . S
C1093 C1094 1.414 . S
C1093 C1096 1.499 . S
C1094 H1074 0.950 . S
C1094 C1093 1.414 . S
C1094 C1095 1.374 . S
C1095 H1075 0.950 . S
C1095 C1091 1.385 . S
C1095 C1094 1.374 . S
C1096 C1093 1.499 . S
C1096 C1097 1.373 . S
C1096 C1098 1.389 . S
C1097 H1076 0.950 . S
C1097 C1096 1.373 . S
C1097 C1113 1.377 . S
C1098 C1096 1.389 . S
C1098 C1099 1.524 . S
C1098 C1112 1.377 . S
C1099 C1098 1.524 . S
C1099 C1100 1.397 . S
C1099 C1104 1.363 . S
C1100 H1077 0.950 . S
C1100 C1099 1.397 . S
C1100 C1101 1.334 . S
C1101 H1078 0.950 . S
C1101 C1100 1.334 . S
C1101 C1102 1.287 . S
C1102 C1101 1.287 . S
C1102 C1103 1.524 . S
C1102 H1121 0.913 . S
C1103 H1079 0.950 . S
C1103 C1102 1.524 . S
C1103 C1104 1.415 . S
C1104 H1080 0.950 . S
C1104 C1099 1.363 . S
C1104 C1103 1.415 . S
C1105 H1081 0.951 . S
C1105 C1106 1.366 . S
C1105 C1107 1.388 . S
C1106 C1105 1.366 . S
C1106 C1110 1.385 . S
C1107 H1082 0.951 . S
C1107 C1105 1.388 . S
C1107 C1108 1.366 . S
C1108 C1107 1.366 . S
C1108 C1109 1.414 . S
C1108 C1111 1.499 . S
C1109 H1083 0.950 . S
C1109 C1108 1.414 . S
C1109 C1110 1.374 . S
C1110 H1084 0.950 . S
C1110 C1106 1.385 . S
C1110 C1109 1.374 . S
C1111 C1108 1.499 . S
C1111 C1112 1.373 . S
C1111 C1113 1.389 . S
C1112 H1085 0.950 . S
C1112 C1098 1.377 . S
C1112 C1111 1.373 . S
C1113 C1097 1.377 . S
C1113 C1111 1.389 . S
C1113 C1114 1.524 . S
C1114 C1113 1.524 . S
C1114 C1115 1.397 . S
C1114 C1119 1.363 . S
C1115 H1086 0.950 . S
C1115 C1114 1.397 . S
C1115 C1116 1.334 . S
C1116 H1087 0.950 . S
C1116 C1115 1.334 . S
C1116 C1117 1.287 . S
C1117 C1116 1.287 . S
C1117 C1118 1.524 . S
C1117 H1120 0.999 . S
C1118 H1088 0.950 . S
C1118 C1117 1.524 . S
C1118 C1119 1.415 . S
C1119 H1089 0.950 . S
C1119 C1114 1.363 . S
C1119 C1118 1.415 . S
H1120 C1117 0.999 . S
H1121 C1102 0.913 . S
H1122 C1140 0.951 . S
H1123 C1142 0.951 . S
H1124 C1144 0.950 . S
H1125 C1145 0.950 . S
H1126 C1147 0.950 . S
H1127 C1150 0.950 . S
H1128 C1151 0.950 . S
H1129 C1153 0.950 . S
H1130 C1154 0.950 . S
H1131 C1155 0.951 . S
H1132 C1157 0.951 . S
H1133 C1159 0.950 . S
H1134 C1160 0.950 . S
H1135 C1162 0.950 . S
H1136 C1165 0.950 . S
H1137 C1166 0.950 . S
H1138 C1168 0.950 . S
H1139 C1169 0.950 . S
C1140 H1122 0.951 . S
C1140 C1141 1.366 . S
C1140 C1142 1.388 . S
C1141 C1140 1.366 . S
C1141 C1145 1.385 . S
C1142 H1123 0.951 . S
C1142 C1140 1.388 . S
C1142 C1143 1.366 . S
C1143 C1142 1.366 . S
C1143 C1144 1.414 . S
C1143 C1146 1.499 . S
C1144 H1124 0.950 . S
C1144 C1143 1.414 . S
C1144 C1145 1.374 . S
C1145 H1125 0.950 . S
C1145 C1141 1.385 . S
C1145 C1144 1.374 . S
C1146 C1143 1.499 . S
C1146 C1147 1.373 . S
C1146 C1148 1.389 . S
C1147 H1126 0.950 . S
C1147 C1146 1.373 . S
C1147 C1163 1.377 . S
C1148 C1146 1.389 . S
C1148 C1149 1.524 . S
C1148 C1162 1.377 . S
C1149 C1148 1.524 . S
C1149 C1150 1.397 . S
C1149 C1154 1.363 . S
C1150 H1127 0.950 . S
C1150 C1149 1.397 . S
C1150 C1151 1.334 . S
C1151 H1128 0.950 . S
C1151 C1150 1.334 . S
C1151 C1152 1.287 . S
C1152 C1151 1.287 . S
C1152 C1153 1.524 . S
C1152 H1171 0.913 . S
C1153 H1129 0.950 . S
C1153 C1152 1.524 . S
C1153 C1154 1.415 . S
C1154 H1130 0.950 . S
C1154 C1149 1.363 . S
C1154 C1153 1.415 . S
C1155 H1131 0.951 . S
C1155 C1156 1.366 . S
C1155 C1157 1.388 . S
C1156 C1155 1.366 . S
C1156 C1160 1.385 . S
C1157 H1132 0.951 . S
C1157 C1155 1.388 . S
C1157 C1158 1.366 . S
C1158 C1157 1.366 . S
C1158 C1159 1.414 . S
C1158 C1161 1.499 . S
C1159 H1133 0.950 . S
C1159 C1158 1.414 . S
C1159 C1160 1.374 . S
C1160 H1134 0.950 . S
C1160 C1156 1.385 . S
C1160 C1159 1.374 . S
C1161 C1158 1.499 . S
C1161 C1162 1.373 . S
C1161 C1163 1.389 . S
C1162 H1135 0.950 . S
C1162 C1148 1.377 . S
C1162 C1161 1.373 . S
C1163 C1147 1.377 . S
C1163 C1161 1.389 . S
C1163 C1164 1.524 . S
C1164 C1163 1.524 . S
C1164 C1165 1.397 . S
C1164 C1169 1.363 . S
C1165 H1136 0.950 . S
C1165 C1164 1.397 . S
C1165 C1166 1.334 . S
C1166 H1137 0.950 . S
C1166 C1165 1.334 . S
C1166 C1167 1.287 . S
C1167 C1166 1.287 . S
C1167 C1168 1.524 . S
C1167 H1170 0.999 1_545 S
C1168 H1138 0.950 . S
C1168 C1167 1.524 . S
C1168 C1169 1.415 . S
C1169 H1139 0.950 . S
C1169 C1164 1.363 . S
C1169 C1168 1.415 . S
H1170 C1167 0.999 1_565 S
H1171 C1152 0.913 . S
H1172 C1190 0.951 . S
H1173 C1192 0.951 . S
H1174 C1194 0.950 . S
H1175 C1195 0.950 . S
H1176 C1197 0.950 . S
H1177 C1200 0.950 . S
H1178 C1201 0.950 . S
H1179 C1203 0.950 . S
H1180 C1204 0.950 . S
H1181 C1205 0.951 . S
H1182 C1207 0.951 . S
H1183 C1209 0.950 . S
H1184 C1210 0.950 . S
H1185 C1212 0.950 . S
H1186 C1215 0.950 . S
H1187 C1216 0.950 . S
H1188 C1218 0.950 . S
H1189 C1219 0.950 . S
C1190 H1172 0.951 . S
C1190 C1191 1.366 . S
C1190 C1192 1.388 . S
C1191 C1190 1.366 . S
C1191 C1195 1.385 . S
C1192 H1173 0.951 . S
C1192 C1190 1.388 . S
C1192 C1193 1.366 . S
C1193 C1192 1.366 . S
C1193 C1194 1.414 . S
C1193 C1196 1.499 . S
C1194 H1174 0.950 . S
C1194 C1193 1.414 . S
C1194 C1195 1.374 . S
C1195 H1175 0.950 . S
C1195 C1191 1.385 . S
C1195 C1194 1.374 . S
C1196 C1193 1.499 . S
C1196 C1197 1.373 . S
C1196 C1198 1.389 . S
C1197 H1176 0.950 . S
C1197 C1196 1.373 . S
C1197 C1213 1.377 . S
C1198 C1196 1.389 . S
C1198 C1199 1.524 . S
C1198 C1212 1.377 . S
C1199 C1198 1.524 . S
C1199 C1200 1.397 . S
C1199 C1204 1.363 . S
C1200 H1177 0.950 . S
C1200 C1199 1.397 . S
C1200 C1201 1.334 . S
C1201 H1178 0.950 . S
C1201 C1200 1.334 . S
C1201 C1202 1.287 . S
C1202 C1201 1.287 . S
C1202 C1203 1.524 . S
C1202 H1221 0.913 . S
C1203 H1179 0.950 . S
C1203 C1202 1.524 . S
C1203 C1204 1.415 . S
C1204 H1180 0.950 . S
C1204 C1199 1.363 . S
C1204 C1203 1.415 . S
C1205 H1181 0.951 . S
C1205 C1206 1.366 . S
C1205 C1207 1.388 . S
C1206 C1205 1.366 . S
C1206 C1210 1.385 . S
C1207 H1182 0.951 . S
C1207 C1205 1.388 . S
C1207 C1208 1.366 . S
C1208 C1207 1.366 . S
C1208 C1209 1.414 . S
C1208 C1211 1.499 . S
C1209 H1183 0.950 . S
C1209 C1208 1.414 . S
C1209 C1210 1.374 . S
C1210 H1184 0.950 . S
C1210 C1206 1.385 . S
C1210 C1209 1.374 . S
C1211 C1208 1.499 . S
C1211 C1212 1.373 . S
C1211 C1213 1.389 . S
C1212 H1185 0.950 . S
C1212 C1198 1.377 . S
C1212 C1211 1.373 . S
C1213 C1197 1.377 . S
C1213 C1211 1.389 . S
C1213 C1214 1.524 . S
C1214 C1213 1.524 . S
C1214 C1215 1.397 . S
C1214 C1219 1.363 . S
C1215 H1186 0.950 . S
C1215 C1214 1.397 . S
C1215 C1216 1.334 . S
C1216 H1187 0.950 . S
C1216 C1215 1.334 . S
C1216 C1217 1.287 . S
C1217 C1216 1.287 . S
C1217 C1218 1.524 . S
C1217 H1220 0.999 . S
C1218 H1188 0.950 . S
C1218 C1217 1.524 . S
C1218 C1219 1.415 . S
C1219 H1189 0.950 . S
C1219 C1214 1.363 . S
C1219 C1218 1.415 . S
H1220 C1217 0.999 . S
H1221 C1202 0.913 . S
H1222 C1240 0.951 . S
H1223 C1242 0.951 . S
H1224 C1244 0.950 . S
H1225 C1245 0.950 . S
H1226 C1247 0.950 . S
H1227 C1250 0.950 . S
H1228 C1251 0.950 . S
H1229 C1253 0.950 . S
H1230 C1254 0.950 . S
H1231 C1255 0.951 . S
H1232 C1257 0.951 . S
H1233 C1259 0.950 . S
H1234 C1260 0.950 . S
H1235 C1262 0.950 . S
H1236 C1265 0.950 . S
H1237 C1266 0.950 . S
H1238 C1268 0.950 . S
H1239 C1269 0.950 . S
C1240 H1222 0.951 . S
C1240 C1241 1.366 . S
C1240 C1242 1.388 . S
C1241 C1240 1.366 . S
C1241 C1245 1.385 . S
C1242 H1223 0.951 . S
C1242 C1240 1.388 . S
C1242 C1243 1.366 . S
C1243 C1242 1.366 . S
C1243 C1244 1.414 . S
C1243 C1246 1.499 . S
C1244 H1224 0.950 . S
C1244 C1243 1.414 . S
C1244 C1245 1.374 . S
C1245 H1225 0.950 . S
C1245 C1241 1.385 . S
C1245 C1244 1.374 . S
C1246 C1243 1.499 . S
C1246 C1247 1.373 . S
C1246 C1248 1.389 . S
C1247 H1226 0.950 . S
C1247 C1246 1.373 . S
C1247 C1263 1.377 . S
C1248 C1246 1.389 . S
C1248 C1249 1.524 . S
C1248 C1262 1.377 . S
C1249 C1248 1.524 . S
C1249 C1250 1.397 . S
C1249 C1254 1.363 . S
C1250 H1227 0.950 . S
C1250 C1249 1.397 . S
C1250 C1251 1.334 . S
C1251 H1228 0.950 . S
C1251 C1250 1.334 . S
C1251 C1252 1.287 . S
C1252 C1251 1.287 . S
C1252 C1253 1.524 . S
C1252 H1271 0.913 . S
C1253 H1229 0.950 . S
C1253 C1252 1.524 . S
C1253 C1254 1.415 . S
C1254 H1230 0.950 . S
C1254 C1249 1.363 . S
C1254 C1253 1.415 . S
C1255 H1231 0.951 . S
C1255 C1256 1.366 . S
C1255 C1257 1.388 . S
C1256 C1255 1.366 . S
C1256 C1260 1.385 . S
C1257 H1232 0.951 . S
C1257 C1255 1.388 . S
C1257 C1258 1.366 . S
C1258 C1257 1.366 . S
C1258 C1259 1.414 . S
C1258 C1261 1.499 . S
C1259 H1233 0.950 . S
C1259 C1258 1.414 . S
C1259 C1260 1.374 . S
C1260 H1234 0.950 . S
C1260 C1256 1.385 . S
C1260 C1259 1.374 . S
C1261 C1258 1.499 . S
C1261 C1262 1.373 . S
C1261 C1263 1.389 . S
C1262 H1235 0.950 . S
C1262 C1248 1.377 . S
C1262 C1261 1.373 . S
C1263 C1247 1.377 . S
C1263 C1261 1.389 . S
C1263 C1264 1.524 . S
C1264 C1263 1.524 . S
C1264 C1265 1.397 . S
C1264 C1269 1.363 . S
C1265 H1236 0.950 . S
C1265 C1264 1.397 . S
C1265 C1266 1.334 . S
C1266 H1237 0.950 . S
C1266 C1265 1.334 . S
C1266 C1267 1.287 . S
C1267 C1266 1.287 . S
C1267 C1268 1.524 . S
C1267 H1270 0.999 . S
C1268 H1238 0.950 . S
C1268 C1267 1.524 . S
C1268 C1269 1.415 . S
C1269 H1239 0.950 . S
C1269 C1264 1.363 . S
C1269 C1268 1.415 . S
H1270 C1267 0.999 . S
H1271 C1252 0.913 . S
H1272 C1290 0.951 . S
H1273 C1292 0.951 . S
H1274 C1294 0.950 . S
H1275 C1295 0.950 . S
H1276 C1297 0.950 . S
H1277 C1300 0.950 . S
H1278 C1301 0.950 . S
H1279 C1303 0.950 . S
H1280 C1304 0.950 . S
H1281 C1305 0.951 . S
H1282 C1307 0.951 . S
H1283 C1309 0.950 . S
H1284 C1310 0.950 . S
H1285 C1312 0.950 . S
H1286 C1315 0.950 . S
H1287 C1316 0.950 . S
H1288 C1318 0.950 . S
H1289 C1319 0.950 . S
C1290 H1272 0.951 . S
C1290 C1291 1.366 . S
C1290 C1292 1.388 . S
C1291 C1290 1.366 . S
C1291 C1295 1.385 . S
C1292 H1273 0.951 . S
C1292 C1290 1.388 . S
C1292 C1293 1.366 . S
C1293 C1292 1.366 . S
C1293 C1294 1.414 . S
C1293 C1296 1.499 . S
C1294 H1274 0.950 . S
C1294 C1293 1.414 . S
C1294 C1295 1.374 . S
C1295 H1275 0.950 . S
C1295 C1291 1.385 . S
C1295 C1294 1.374 . S
C1296 C1293 1.499 . S
C1296 C1297 1.373 . S
C1296 C1298 1.389 . S
C1297 H1276 0.950 . S
C1297 C1296 1.373 . S
C1297 C1313 1.377 . S
C1298 C1296 1.389 . S
C1298 C1299 1.524 . S
C1298 C1312 1.377 . S
C1299 C1298 1.524 . S
C1299 C1300 1.397 . S
C1299 C1304 1.363 . S
C1300 H1277 0.950 . S
C1300 C1299 1.397 . S
C1300 C1301 1.334 . S
C1301 H1278 0.950 . S
C1301 C1300 1.334 . S
C1301 C1302 1.287 . S
C1302 C1301 1.287 . S
C1302 C1303 1.524 . S
C1302 H1321 0.913 . S
C1303 H1279 0.950 . S
C1303 C1302 1.524 . S
C1303 C1304 1.415 . S
C1304 H1280 0.950 . S
C1304 C1299 1.363 . S
C1304 C1303 1.415 . S
C1305 H1281 0.951 . S
C1305 C1306 1.366 . S
C1305 C1307 1.388 . S
C1306 C1305 1.366 . S
C1306 C1310 1.385 . S
C1307 H1282 0.951 . S
C1307 C1305 1.388 . S
C1307 C1308 1.366 . S
C1308 C1307 1.366 . S
C1308 C1309 1.414 . S
C1308 C1311 1.499 . S
C1309 H1283 0.950 . S
C1309 C1308 1.414 . S
C1309 C1310 1.374 . S
C1310 H1284 0.950 . S
C1310 C1306 1.385 . S
C1310 C1309 1.374 . S
C1311 C1308 1.499 . S
C1311 C1312 1.373 . S
C1311 C1313 1.389 . S
C1312 H1285 0.950 . S
C1312 C1298 1.377 . S
C1312 C1311 1.373 . S
C1313 C1297 1.377 . S
C1313 C1311 1.389 . S
C1313 C1314 1.524 . S
C1314 C1313 1.524 . S
C1314 C1315 1.397 . S
C1314 C1319 1.363 . S
C1315 H1286 0.950 . S
C1315 C1314 1.397 . S
C1315 C1316 1.334 . S
C1316 H1287 0.950 . S
C1316 C1315 1.334 . S
C1316 C1317 1.287 . S
C1317 C1316 1.287 . S
C1317 C1318 1.524 . S
C1317 H1320 0.999 . S
C1318 H1288 0.950 . S
C1318 C1317 1.524 . S
C1318 C1319 1.415 . S
C1319 H1289 0.950 . S
C1319 C1314 1.363 . S
C1319 C1318 1.415 . S
H1320 C1317 0.999 . S
H1321 C1302 0.913 . S
H1322 C1340 0.951 . S
H1323 C1342 0.951 . S
H1324 C1344 0.950 . S
H1325 C1345 0.950 . S
H1326 C1347 0.950 . S
H1327 C1350 0.950 . S
H1328 C1351 0.950 . S
H1329 C1353 0.950 . S
H1330 C1354 0.950 . S
H1331 C1355 0.951 . S
H1332 C1357 0.951 . S
H1333 C1359 0.950 . S
H1334 C1360 0.950 . S
H1335 C1362 0.950 . S
H1336 C1365 0.950 . S
H1337 C1366 0.950 . S
H1338 C1368 0.950 . S
H1339 C1369 0.950 . S
C1340 H1322 0.951 . S
C1340 C1341 1.366 . S
C1340 C1342 1.388 . S
C1341 C1340 1.366 . S
C1341 C1345 1.385 . S
C1342 H1323 0.951 . S
C1342 C1340 1.388 . S
C1342 C1343 1.366 . S
C1343 C1342 1.366 . S
C1343 C1344 1.414 . S
C1343 C1346 1.499 . S
C1344 H1324 0.950 . S
C1344 C1343 1.414 . S
C1344 C1345 1.374 . S
C1345 H1325 0.950 . S
C1345 C1341 1.385 . S
C1345 C1344 1.374 . S
C1346 C1343 1.499 . S
C1346 C1347 1.373 . S
C1346 C1348 1.389 . S
C1347 H1326 0.950 . S
C1347 C1346 1.373 . S
C1347 C1363 1.377 . S
C1348 C1346 1.389 . S
C1348 C1349 1.524 . S
C1348 C1362 1.377 . S
C1349 C1348 1.524 . S
C1349 C1350 1.397 . S
C1349 C1354 1.363 . S
C1350 H1327 0.950 . S
C1350 C1349 1.397 . S
C1350 C1351 1.334 . S
C1351 H1328 0.950 . S
C1351 C1350 1.334 . S
C1351 C1352 1.287 . S
C1352 C1351 1.287 . S
C1352 C1353 1.524 . S
C1352 H1371 0.913 . S
C1353 H1329 0.950 . S
C1353 C1352 1.524 . S
C1353 C1354 1.415 . S
C1354 H1330 0.950 . S
C1354 C1349 1.363 . S
C1354 C1353 1.415 . S
C1355 H1331 0.951 . S
C1355 C1356 1.366 . S
C1355 C1357 1.388 . S
C1356 C1355 1.366 . S
C1356 C1360 1.385 . S
C1357 H1332 0.951 . S
C1357 C1355 1.388 . S
C1357 C1358 1.366 . S
C1358 C1357 1.366 . S
C1358 C1359 1.414 . S
C1358 C1361 1.499 . S
C1359 H1333 0.950 . S
C1359 C1358 1.414 . S
C1359 C1360 1.374 . S
C1360 H1334 0.950 . S
C1360 C1356 1.385 . S
C1360 C1359 1.374 . S
C1361 C1358 1.499 . S
C1361 C1362 1.373 . S
C1361 C1363 1.389 . S
C1362 H1335 0.950 . S
C1362 C1348 1.377 . S
C1362 C1361 1.373 . S
C1363 C1347 1.377 . S
C1363 C1361 1.389 . S
C1363 C1364 1.524 . S
C1364 C1363 1.524 . S
C1364 C1365 1.397 . S
C1364 C1369 1.363 . S
C1365 H1336 0.950 . S
C1365 C1364 1.397 . S
C1365 C1366 1.334 . S
C1366 H1337 0.950 . S
C1366 C1365 1.334 . S
C1366 C1367 1.287 . S
C1367 C1366 1.287 . S
C1367 C1368 1.524 . S
C1367 H1370 0.999 . S
C1368 H1338 0.950 . S
C1368 C1367 1.524 . S
C1368 C1369 1.415 . S
C1369 H1339 0.950 . S
C1369 C1364 1.363 . S
C1369 C1368 1.415 . S
H1370 C1367 0.999 . S
H1371 C1352 0.913 . S
H1372 C1390 0.951 . S
H1373 C1392 0.951 . S
H1374 C1394 0.950 . S
H1375 C1395 0.950 . S
H1376 C1397 0.950 . S
H1377 C1400 0.950 . S
H1378 C1401 0.950 . S
H1379 C1403 0.950 . S
H1380 C1404 0.950 . S
H1381 C1405 0.951 . S
H1382 C1407 0.951 . S
H1383 C1409 0.950 . S
H1384 C1410 0.950 . S
H1385 C1412 0.950 . S
H1386 C1415 0.950 . S
H1387 C1416 0.950 . S
H1388 C1418 0.950 . S
H1389 C1419 0.950 . S
C1390 H1372 0.951 . S
C1390 C1391 1.366 . S
C1390 C1392 1.388 . S
C1391 C1390 1.366 . S
C1391 C1395 1.385 . S
C1392 H1373 0.951 . S
C1392 C1390 1.388 . S
C1392 C1393 1.366 . S
C1393 C1392 1.366 . S
C1393 C1394 1.414 . S
C1393 C1396 1.499 . S
C1394 H1374 0.950 . S
C1394 C1393 1.414 . S
C1394 C1395 1.374 . S
C1395 H1375 0.950 . S
C1395 C1391 1.385 . S
C1395 C1394 1.374 . S
C1396 C1393 1.499 . S
C1396 C1397 1.373 . S
C1396 C1398 1.389 . S
C1397 H1376 0.950 . S
C1397 C1396 1.373 . S
C1397 C1413 1.377 . S
C1398 C1396 1.389 . S
C1398 C1399 1.524 . S
C1398 C1412 1.377 . S
C1399 C1398 1.524 . S
C1399 C1400 1.397 . S
C1399 C1404 1.363 . S
C1400 H1377 0.950 . S
C1400 C1399 1.397 . S
C1400 C1401 1.334 . S
C1401 H1378 0.950 . S
C1401 C1400 1.334 . S
C1401 C1402 1.287 . S
C1402 C1401 1.287 . S
C1402 C1403 1.524 . S
C1402 H1421 0.913 . S
C1403 H1379 0.950 . S
C1403 C1402 1.524 . S
C1403 C1404 1.415 . S
C1404 H1380 0.950 . S
C1404 C1399 1.363 . S
C1404 C1403 1.415 . S
C1405 H1381 0.951 . S
C1405 C1406 1.366 . S
C1405 C1407 1.388 . S
C1406 C1405 1.366 . S
C1406 C1410 1.385 . S
C1407 H1382 0.951 . S
C1407 C1405 1.388 . S
C1407 C1408 1.366 . S
C1408 C1407 1.366 . S
C1408 C1409 1.414 . S
C1408 C1411 1.499 . S
C1409 H1383 0.950 . S
C1409 C1408 1.414 . S
C1409 C1410 1.374 . S
C1410 H1384 0.950 . S
C1410 C1406 1.385 . S
C1410 C1409 1.374 . S
C1411 C1408 1.499 . S
C1411 C1412 1.373 . S
C1411 C1413 1.389 . S
C1412 H1385 0.950 . S
C1412 C1398 1.377 . S
C1412 C1411 1.373 . S
C1413 C1397 1.377 . S
C1413 C1411 1.389 . S
C1413 C1414 1.524 . S
C1414 C1413 1.524 . S
C1414 C1415 1.397 . S
C1414 C1419 1.363 . S
C1415 H1386 0.950 . S
C1415 C1414 1.397 . S
C1415 C1416 1.334 1_554 S
C1416 H1387 0.950 . S
C1416 C1415 1.334 1_556 S
C1416 C1417 1.287 . S
C1417 C1416 1.287 . S
C1417 C1418 1.524 1_556 S
C1417 H1420 0.999 . S
C1418 H1388 0.950 . S
C1418 C1417 1.524 1_554 S
C1418 C1419 1.415 . S
C1419 H1389 0.950 . S
C1419 C1414 1.363 . S
C1419 C1418 1.415 . S
H1420 C1417 0.999 . S
H1421 C1402 0.913 . S
H1422 C1440 0.951 . S
H1423 C1442 0.951 . S
H1424 C1444 0.950 . S
H1425 C1445 0.950 . S
H1426 C1447 0.950 . S
H1427 C1450 0.950 . S
H1428 C1451 0.950 . S
H1429 C1453 0.950 . S
H1430 C1454 0.950 . S
H1431 C1455 0.951 . S
H1432 C1457 0.951 . S
H1433 C1459 0.950 . S
H1434 C1460 0.950 . S
H1435 C1462 0.950 . S
H1436 C1465 0.950 . S
H1437 C1466 0.950 . S
H1438 C1468 0.950 . S
H1439 C1469 0.950 . S
C1440 H1422 0.951 . S
C1440 C1441 1.366 . S
C1440 C1442 1.388 . S
C1441 C1440 1.366 . S
C1441 C1445 1.385 . S
C1442 H1423 0.951 . S
C1442 C1440 1.388 . S
C1442 C1443 1.366 . S
C1443 C1442 1.366 . S
C1443 C1444 1.414 . S
C1443 C1446 1.499 . S
C1444 H1424 0.950 . S
C1444 C1443 1.414 . S
C1444 C1445 1.374 . S
C1445 H1425 0.950 . S
C1445 C1441 1.385 . S
C1445 C1444 1.374 . S
C1446 C1443 1.499 . S
C1446 C1447 1.373 . S
C1446 C1448 1.389 . S
C1447 H1426 0.950 . S
C1447 C1446 1.373 . S
C1447 C1463 1.377 . S
C1448 C1446 1.389 . S
C1448 C1449 1.524 . S
C1448 C1462 1.377 . S
C1449 C1448 1.524 . S
C1449 C1450 1.397 . S
C1449 C1454 1.363 . S
C1450 H1427 0.950 . S
C1450 C1449 1.397 . S
C1450 C1451 1.334 . S
C1451 H1428 0.950 . S
C1451 C1450 1.334 . S
C1451 C1452 1.287 . S
C1452 C1451 1.287 . S
C1452 C1453 1.524 . S
C1452 H1471 0.913 . S
C1453 H1429 0.950 . S
C1453 C1452 1.524 . S
C1453 C1454 1.415 . S
C1454 H1430 0.950 . S
C1454 C1449 1.363 . S
C1454 C1453 1.415 . S
C1455 H1431 0.951 . S
C1455 C1456 1.366 . S
C1455 C1457 1.388 . S
C1456 C1455 1.366 . S
C1456 C1460 1.385 . S
C1457 H1432 0.951 . S
C1457 C1455 1.388 . S
C1457 C1458 1.366 . S
C1458 C1457 1.366 . S
C1458 C1459 1.414 . S
C1458 C1461 1.499 . S
C1459 H1433 0.950 . S
C1459 C1458 1.414 . S
C1459 C1460 1.374 . S
C1460 H1434 0.950 . S
C1460 C1456 1.385 . S
C1460 C1459 1.374 . S
C1461 C1458 1.499 . S
C1461 C1462 1.373 . S
C1461 C1463 1.389 . S
C1462 H1435 0.950 . S
C1462 C1448 1.377 . S
C1462 C1461 1.373 . S
C1463 C1447 1.377 . S
C1463 C1461 1.389 . S
C1463 C1464 1.524 . S
C1464 C1463 1.524 . S
C1464 C1465 1.397 . S
C1464 C1469 1.363 . S
C1465 H1436 0.950 . S
C1465 C1464 1.397 . S
C1465 C1466 1.334 . S
C1466 H1437 0.950 . S
C1466 C1465 1.334 . S
C1466 C1467 1.287 . S
C1467 C1466 1.287 . S
C1467 C1468 1.524 . S
C1467 H1470 0.999 . S
C1468 H1438 0.950 . S
C1468 C1467 1.524 . S
C1468 C1469 1.415 . S
C1469 H1439 0.950 . S
C1469 C1464 1.363 . S
C1469 C1468 1.415 . S
H1470 C1467 0.999 . S
H1471 C1452 0.913 . S
H1472 C1490 0.951 . S
H1473 C1492 0.951 . S
H1474 C1494 0.950 . S
H1475 C1495 0.950 . S
H1476 C1497 0.950 . S
H1477 C1500 0.950 . S
H1478 C1501 0.950 . S
H1479 C1503 0.950 . S
H1480 C1504 0.950 . S
H1481 C1505 0.951 . S
H1482 C1507 0.951 . S
H1483 C1509 0.950 . S
H1484 C1510 0.950 . S
H1485 C1512 0.950 . S
H1486 C1515 0.950 . S
H1487 C1516 0.950 . S
H1488 C1518 0.950 . S
H1489 C1519 0.950 . S
C1490 H1472 0.951 . S
C1490 C1491 1.366 . S
C1490 C1492 1.388 . S
C1491 C1490 1.366 . S
C1491 C1495 1.385 . S
C1492 H1473 0.951 . S
C1492 C1490 1.388 . S
C1492 C1493 1.366 . S
C1493 C1492 1.366 . S
C1493 C1494 1.414 . S
C1493 C1496 1.499 . S
C1494 H1474 0.950 . S
C1494 C1493 1.414 . S
C1494 C1495 1.374 . S
C1495 H1475 0.950 . S
C1495 C1491 1.385 . S
C1495 C1494 1.374 . S
C1496 C1493 1.499 . S
C1496 C1497 1.373 . S
C1496 C1498 1.389 . S
C1497 H1476 0.950 . S
C1497 C1496 1.373 . S
C1497 C1513 1.377 . S
C1498 C1496 1.389 . S
C1498 C1499 1.524 . S
C1498 C1512 1.377 . S
C1499 C1498 1.524 . S
C1499 C1500 1.397 . S
C1499 C1504 1.363 . S
C1500 H1477 0.950 . S
C1500 C1499 1.397 . S
C1500 C1501 1.334 . S
C1501 H1478 0.950 . S
C1501 C1500 1.334 . S
C1501 C1502 1.287 . S
C1502 C1501 1.287 . S
C1502 C1503 1.524 . S
C1502 H1521 0.913 . S
C1503 H1479 0.950 . S
C1503 C1502 1.524 . S
C1503 C1504 1.415 . S
C1504 H1480 0.950 . S
C1504 C1499 1.363 . S
C1504 C1503 1.415 . S
C1505 H1481 0.951 . S
C1505 C1506 1.366 . S
C1505 C1507 1.388 . S
C1506 C1505 1.366 . S
C1506 C1510 1.385 . S
C1507 H1482 0.951 . S
C1507 C1505 1.388 . S
C1507 C1508 1.366 . S
C1508 C1507 1.366 . S
C1508 C1509 1.414 . S
C1508 C1511 1.499 . S
C1509 H1483 0.950 . S
C1509 C1508 1.414 . S
C1509 C1510 1.374 . S
C1510 H1484 0.950 . S
C1510 C1506 1.385 . S
C1510 C1509 1.374 . S
C1511 C1508 1.499 . S
C1511 C1512 1.373 . S
C1511 C1513 1.389 . S
C1512 H1485 0.950 . S
C1512 C1498 1.377 . S
C1512 C1511 1.373 . S
C1513 C1497 1.377 . S
C1513 C1511 1.389 . S
C1513 C1514 1.524 . S
C1514 C1513 1.524 . S
C1514 C1515 1.397 . S
C1514 C1519 1.363 . S
C1515 H1486 0.950 . S
C1515 C1514 1.397 . S
C1515 C1516 1.334 . S
C1516 H1487 0.950 . S
C1516 C1515 1.334 . S
C1516 C1517 1.287 . S
C1517 C1516 1.287 . S
C1517 C1518 1.524 . S
C1517 H1520 0.999 . S
C1518 H1488 0.950 . S
C1518 C1517 1.524 . S
C1518 C1519 1.415 . S
C1519 H1489 0.950 . S
C1519 C1514 1.363 . S
C1519 C1518 1.415 . S
H1520 C1517 0.999 . S
H1521 C1502 0.913 . S
H1522 C1540 0.951 . S
H1523 C1542 0.951 . S
H1524 C1544 0.950 . S
H1525 C1545 0.950 . S
H1526 C1547 0.950 . S
H1527 C1550 0.950 . S
H1528 C1551 0.950 . S
H1529 C1553 0.950 . S
H1530 C1554 0.950 . S
H1531 C1555 0.951 . S
H1532 C1557 0.951 . S
H1533 C1559 0.950 . S
H1534 C1560 0.950 . S
H1535 C1562 0.950 . S
H1536 C1565 0.950 . S
H1537 C1566 0.950 . S
H1538 C1568 0.950 . S
H1539 C1569 0.950 . S
C1540 H1522 0.951 . S
C1540 C1541 1.366 . S
C1540 C1542 1.388 . S
C1541 C1540 1.366 . S
C1541 C1545 1.385 . S
C1542 H1523 0.951 . S
C1542 C1540 1.388 . S
C1542 C1543 1.366 . S
C1543 C1542 1.366 . S
C1543 C1544 1.414 . S
C1543 C1546 1.499 . S
C1544 H1524 0.950 . S
C1544 C1543 1.414 . S
C1544 C1545 1.374 . S
C1545 H1525 0.950 . S
C1545 C1541 1.385 . S
C1545 C1544 1.374 . S
C1546 C1543 1.499 . S
C1546 C1547 1.373 . S
C1546 C1548 1.389 . S
C1547 H1526 0.950 . S
C1547 C1546 1.373 . S
C1547 C1563 1.377 . S
C1548 C1546 1.389 . S
C1548 C1549 1.524 . S
C1548 C1562 1.377 . S
C1549 C1548 1.524 . S
C1549 C1550 1.397 . S
C1549 C1554 1.363 . S
C1550 H1527 0.950 . S
C1550 C1549 1.397 . S
C1550 C1551 1.334 . S
C1551 H1528 0.950 . S
C1551 C1550 1.334 . S
C1551 C1552 1.287 . S
C1552 C1551 1.287 . S
C1552 C1553 1.524 . S
C1552 H1571 0.913 . S
C1553 H1529 0.950 . S
C1553 C1552 1.524 . S
C1553 C1554 1.415 . S
C1554 H1530 0.950 . S
C1554 C1549 1.363 . S
C1554 C1553 1.415 . S
C1555 H1531 0.951 . S
C1555 C1556 1.366 . S
C1555 C1557 1.388 . S
C1556 C1555 1.366 . S
C1556 C1560 1.385 . S
C1557 H1532 0.951 . S
C1557 C1555 1.388 . S
C1557 C1558 1.366 . S
C1558 C1557 1.366 . S
C1558 C1559 1.414 . S
C1558 C1561 1.499 . S
C1559 H1533 0.950 . S
C1559 C1558 1.414 . S
C1559 C1560 1.374 . S
C1560 H1534 0.950 . S
C1560 C1556 1.385 . S
C1560 C1559 1.374 . S
C1561 C1558 1.499 . S
C1561 C1562 1.373 . S
C1561 C1563 1.389 . S
C1562 H1535 0.950 . S
C1562 C1548 1.377 . S
C1562 C1561 1.373 . S
C1563 C1547 1.377 . S
C1563 C1561 1.389 . S
C1563 C1564 1.524 . S
C1564 C1563 1.524 . S
C1564 C1565 1.397 . S
C1564 C1569 1.363 . S
C1565 H1536 0.950 . S
C1565 C1564 1.397 . S
C1565 C1566 1.334 1_554 S
C1566 H1537 0.950 . S
C1566 C1565 1.334 1_556 S
C1566 C1567 1.287 . S
C1567 C1566 1.287 . S
C1567 C1568 1.524 . S
C1567 H1570 0.999 . S
C1568 H1538 0.950 . S
C1568 C1567 1.524 . S
C1568 C1569 1.415 1_556 S
C1569 H1539 0.950 . S
C1569 C1564 1.363 . S
C1569 C1568 1.415 1_554 S
H1570 C1567 0.999 . S
H1571 C1552 0.913 . S
H1572 C1590 0.951 . S
H1573 C1592 0.951 . S
H1574 C1594 0.950 . S
H1575 C1595 0.950 . S
H1576 C1597 0.950 . S
H1577 C1600 0.950 . S
H1578 C1601 0.950 . S
H1579 C1603 0.950 . S
H1580 C1604 0.950 . S
H1581 C1605 0.951 . S
H1582 C1607 0.951 . S
H1583 C1609 0.950 . S
H1584 C1610 0.950 . S
H1585 C1612 0.950 . S
H1586 C1615 0.950 . S
H1587 C1616 0.950 . S
H1588 C1618 0.950 . S
H1589 C1619 0.950 . S
C1590 H1572 0.951 . S
C1590 C1591 1.366 . S
C1590 C1592 1.388 . S
C1591 C1590 1.366 . S
C1591 C1595 1.385 . S
C1592 H1573 0.951 . S
C1592 C1590 1.388 . S
C1592 C1593 1.366 . S
C1593 C1592 1.366 . S
C1593 C1594 1.414 . S
C1593 C1596 1.499 . S
C1594 H1574 0.950 . S
C1594 C1593 1.414 . S
C1594 C1595 1.374 . S
C1595 H1575 0.950 . S
C1595 C1591 1.385 . S
C1595 C1594 1.374 . S
C1596 C1593 1.499 . S
C1596 C1597 1.373 . S
C1596 C1598 1.389 . S
C1597 H1576 0.950 . S
C1597 C1596 1.373 . S
C1597 C1613 1.377 . S
C1598 C1596 1.389 . S
C1598 C1599 1.524 . S
C1598 C1612 1.377 . S
C1599 C1598 1.524 . S
C1599 C1600 1.397 . S
C1599 C1604 1.363 . S
C1600 H1577 0.950 . S
C1600 C1599 1.397 . S
C1600 C1601 1.334 . S
C1601 H1578 0.950 . S
C1601 C1600 1.334 . S
C1601 C1602 1.287 . S
C1602 C1601 1.287 . S
C1602 C1603 1.524 . S
C1602 H1621 0.913 . S
C1603 H1579 0.950 . S
C1603 C1602 1.524 . S
C1603 C1604 1.415 . S
C1604 H1580 0.950 . S
C1604 C1599 1.363 . S
C1604 C1603 1.415 . S
C1605 H1581 0.951 . S
C1605 C1606 1.366 . S
C1605 C1607 1.388 . S
C1606 C1605 1.366 . S
C1606 C1610 1.385 . S
C1607 H1582 0.951 . S
C1607 C1605 1.388 . S
C1607 C1608 1.366 . S
C1608 C1607 1.366 . S
C1608 C1609 1.414 . S
C1608 C1611 1.499 . S
C1609 H1583 0.950 . S
C1609 C1608 1.414 . S
C1609 C1610 1.374 . S
C1610 H1584 0.950 . S
C1610 C1606 1.385 . S
C1610 C1609 1.374 . S
C1611 C1608 1.499 . S
C1611 C1612 1.373 . S
C1611 C1613 1.389 . S
C1612 H1585 0.950 . S
C1612 C1598 1.377 . S
C1612 C1611 1.373 . S
C1613 C1597 1.377 . S
C1613 C1611 1.389 . S
C1613 C1614 1.524 . S
C1614 C1613 1.524 . S
C1614 C1615 1.397 . S
C1614 C1619 1.363 . S
C1615 H1586 0.950 . S
C1615 C1614 1.397 . S
C1615 C1616 1.334 . S
C1616 H1587 0.950 . S
C1616 C1615 1.334 . S
C1616 C1617 1.287 . S
C1617 C1616 1.287 . S
C1617 C1618 1.524 . S
C1617 H1620 0.999 . S
C1618 H1588 0.950 . S
C1618 C1617 1.524 . S
C1618 C1619 1.415 . S
C1619 H1589 0.950 . S
C1619 C1614 1.363 . S
C1619 C1618 1.415 . S
H1620 C1617 0.999 . S
H1621 C1602 0.913 . S
H1622 C1640 0.951 . S
H1623 C1642 0.951 . S
H1624 C1644 0.950 . S
H1625 C1645 0.950 . S
H1626 C1647 0.950 . S
H1627 C1650 0.950 . S
H1628 C1651 0.950 . S
H1629 C1653 0.950 . S
H1630 C1654 0.950 . S
H1631 C1655 0.951 . S
H1632 C1657 0.951 . S
H1633 C1659 0.950 . S
H1634 C1660 0.950 . S
H1635 C1662 0.950 . S
H1636 C1665 0.950 . S
H1637 C1666 0.950 . S
H1638 C1668 0.950 . S
H1639 C1669 0.950 . S
C1640 H1622 0.951 . S
C1640 C1641 1.366 . S
C1640 C1642 1.388 . S
C1641 C1640 1.366 . S
C1641 C1645 1.385 . S
C1642 H1623 0.951 . S
C1642 C1640 1.388 . S
C1642 C1643 1.366 . S
C1643 C1642 1.366 . S
C1643 C1644 1.414 . S
C1643 C1646 1.499 . S
C1644 H1624 0.950 . S
C1644 C1643 1.414 . S
C1644 C1645 1.374 . S
C1645 H1625 0.950 . S
C1645 C1641 1.385 . S
C1645 C1644 1.374 . S
C1646 C1643 1.499 . S
C1646 C1647 1.373 . S
C1646 C1648 1.389 . S
C1647 H1626 0.950 . S
C1647 C1646 1.373 . S
C1647 C1663 1.377 . S
C1648 C1646 1.389 . S
C1648 C1649 1.524 . S
C1648 C1662 1.377 . S
C1649 C1648 1.524 . S
C1649 C1650 1.397 . S
C1649 C1654 1.363 . S
C1650 H1627 0.950 . S
C1650 C1649 1.397 . S
C1650 C1651 1.334 . S
C1651 H1628 0.950 . S
C1651 C1650 1.334 . S
C1651 C1652 1.287 . S
C1652 C1651 1.287 . S
C1652 C1653 1.524 . S
C1652 H1671 0.913 . S
C1653 H1629 0.950 . S
C1653 C1652 1.524 . S
C1653 C1654 1.415 . S
C1654 H1630 0.950 . S
C1654 C1649 1.363 . S
C1654 C1653 1.415 . S
C1655 H1631 0.951 . S
C1655 C1656 1.366 . S
C1655 C1657 1.388 . S
C1656 C1655 1.366 . S
C1656 C1660 1.385 . S
C1657 H1632 0.951 . S
C1657 C1655 1.388 . S
C1657 C1658 1.366 . S
C1658 C1657 1.366 . S
C1658 C1659 1.414 . S
C1658 C1661 1.499 . S
C1659 H1633 0.950 . S
C1659 C1658 1.414 . S
C1659 C1660 1.374 . S
C1660 H1634 0.950 . S
C1660 C1656 1.385 . S
C1660 C1659 1.374 . S
C1661 C1658 1.499 . S
C1661 C1662 1.373 . S
C1661 C1663 1.389 . S
C1662 H1635 0.950 . S
C1662 C1648 1.377 . S
C1662 C1661 1.373 . S
C1663 C1647 1.377 . S
C1663 C1661 1.389 . S
C1663 C1664 1.524 . S
C1664 C1663 1.524 . S
C1664 C1665 1.397 . S
C1664 C1669 1.363 . S
C1665 H1636 0.950 . S
C1665 C1664 1.397 . S
C1665 C1666 1.334 . S
C1666 H1637 0.950 . S
C1666 C1665 1.334 . S
C1666 C1667 1.287 . S
C1667 C1666 1.287 . S
C1667 C1668 1.524 . S
C1667 H1670 0.999 . S
C1668 H1638 0.950 . S
C1668 C1667 1.524 . S
C1668 C1669 1.415 . S
C1669 H1639 0.950 . S
C1669 C1664 1.363 . S
C1669 C1668 1.415 . S
H1670 C1667 0.999 . S
H1671 C1652 0.913 . S
C491 C1 1.221 . S
C506 C318 1.256 . S
C541 C40 0.945 . S
C556 C367 0.941 . S
C606 C402 2.446 . S
C591 C99 2.485 . S
C641 C118 2.318 . S
C656 C441 2.259 . S
C706 C362 2.507 . S
C691 C16 2.425 . S
C756 C321 0.894 . S
C741 C60 0.919 . S
C806 C451 1.882 . S
C791 C79 1.921 . S
C856 C410 1.489 . S
C841 C138 1.518 . S
C891 C21 1.710 . S
C906 C438 1.767 . S
C956 C370 2.326 . S
C941 C94 2.405 . S
C991 C133 2.317 . S
C1006 C331 2.306 . S
C1041 C55 0.714 . S
C1056 C407 0.712 . S
C1106 C327 1.261 . S
C1091 C157 1.231 . S
C1141 C196 0.946 . S
C1156 C358 0.942 . S
C1191 C255 2.483 . S
C1206 C411 2.443 . S
C1241 C289 2.314 . S
C1256 C450 2.253 . S
C1291 C172 2.416 . S
C1306 C371 2.504 . S
C1356 C330 0.896 . S
C1341 C216 0.921 . S
C1406 C442 1.882 . S
C1391 C235 1.923 . S
C1456 C401 1.489 . S
C1441 C294 1.518 . S
C1491 C177 1.724 . S
C1506 C447 1.766 . S
C1556 C361 2.328 . S
C1541 C250 2.406 . S
C1606 C322 2.312 . S
C1591 C274 2.321 . S
C1641 C211 0.712 . S
C1656 C398 0.709 . S
