# Generated by pormake.
# Topology zzz, (3,6)-cn, num edge types: 1
# Building blocks:
#     Node 0, Type 0, BuildingBlock: QEWDON_clean_linker_0, # of connection points: 3
#     Node 1, Type 0, BuildingBlock: QEWDON_clean_linker_0, # of connection points: 3
#     Node 2, Type 0, BuildingBlock: QEWDON_clean_linker_0, # of connection points: 3
#     Node 3, Type 0, BuildingBlock: QEWDON_clean_linker_0, # of connection points: 3
#     Node 4, Type 0, BuildingBlock: QEWDON_clean_linker_0, # of connection points: 3
#     Node 5, Type 0, BuildingBlock: QEWDON_clean_linker_0, # of connection points: 3
#     Node 6, Type 0, BuildingBlock: QEWDON_clean_linker_0, # of connection points: 3
#     Node 7, Type 0, BuildingBlock: QEWDON_clean_linker_0, # of connection points: 3
#     Node 8, Type 1, BuildingBlock: HISSIN_clean_sbu_0, # of connection points: 6
#     Node 9, Type 1, BuildingBlock: HISSIN_clean_sbu_0, # of connection points: 6
#     Node 10, Type 1, BuildingBlock: HISSIN_clean_sbu_0, # of connection points: 6
#     Node 11, Type 1, BuildingBlock: HISSIN_clean_sbu_0, # of connection points: 6
#     Edge 12, Type (0, 1), BuildingBlock: OJICUG_clean_linker_0, # of connection points: 2
#     Edge 13, Type (0, 1), BuildingBlock: OJICUG_clean_linker_0, # of connection points: 2
#     Edge 14, Type (0, 1), BuildingBlock: OJICUG_clean_linker_0, # of connection points: 2
#     Edge 15, Type (0, 1), BuildingBlock: OJICUG_clean_linker_0, # of connection points: 2
#     Edge 16, Type (0, 1), BuildingBlock: OJICUG_clean_linker_0, # of connection points: 2
#     Edge 17, Type (0, 1), BuildingBlock: OJICUG_clean_linker_0, # of connection points: 2
#     Edge 18, Type (0, 1), BuildingBlock: OJICUG_clean_linker_0, # of connection points: 2
#     Edge 19, Type (0, 1), BuildingBlock: OJICUG_clean_linker_0, # of connection points: 2
#     Edge 20, Type (0, 1), BuildingBlock: OJICUG_clean_linker_0, # of connection points: 2
#     Edge 21, Type (0, 1), BuildingBlock: OJICUG_clean_linker_0, # of connection points: 2
#     Edge 22, Type (0, 1), BuildingBlock: OJICUG_clean_linker_0, # of connection points: 2
#     Edge 23, Type (0, 1), BuildingBlock: OJICUG_clean_linker_0, # of connection points: 2
#     Edge 24, Type (0, 1), BuildingBlock: OJICUG_clean_linker_0, # of connection points: 2
#     Edge 25, Type (0, 1), BuildingBlock: OJICUG_clean_linker_0, # of connection points: 2
#     Edge 26, Type (0, 1), BuildingBlock: OJICUG_clean_linker_0, # of connection points: 2
#     Edge 27, Type (0, 1), BuildingBlock: OJICUG_clean_linker_0, # of connection points: 2
#     Edge 28, Type (0, 1), BuildingBlock: OJICUG_clean_linker_0, # of connection points: 2
#     Edge 29, Type (0, 1), BuildingBlock: OJICUG_clean_linker_0, # of connection points: 2
#     Edge 30, Type (0, 1), BuildingBlock: OJICUG_clean_linker_0, # of connection points: 2
#     Edge 31, Type (0, 1), BuildingBlock: OJICUG_clean_linker_0, # of connection points: 2
#     Edge 32, Type (0, 1), BuildingBlock: OJICUG_clean_linker_0, # of connection points: 2
#     Edge 33, Type (0, 1), BuildingBlock: OJICUG_clean_linker_0, # of connection points: 2
#     Edge 34, Type (0, 1), BuildingBlock: OJICUG_clean_linker_0, # of connection points: 2
#     Edge 35, Type (0, 1), BuildingBlock: OJICUG_clean_linker_0, # of connection points: 2
# Relax obj value: 0.258
# Max RMSD: 0.210
# Mean RMSD: 0.072
data_MOF--net-zzz--node1-HISSIN_clean_sbu_0--node2-QEWDON_clean_linker_0--edge1-OJICUG_clean_linker_0
_symmetry_space_group_name_H-M    P1
_symmetry_Int_Tables_number       1
_symmetry_cell_setting            triclinic
loop_
_symmetry_equiv_pos_as_xyz
'x, y, z'
_cell_length_a     39.34959
_cell_length_b     39.334214
_cell_length_c     11.887051
_cell_angle_alpha  89.911492
_cell_angle_beta   91.055659
_cell_angle_gamma 90.402131
loop_
_atom_site_label
_atom_site_type_symbol
_atom_site_fract_x
_atom_site_fract_y
_atom_site_fract_z
_atom_type_partial_charge
H0 H 0.77599 0.49621 0.26804 0.0
C1 C 0.79455 0.50578 0.32866 0.0
C2 C 0.82647 0.49028 0.33483 0.0
C3 C 0.78655 0.53282 0.40114 0.0
H4 H 0.87583 0.48996 0.41589 0.0
C5 C 0.85082 0.50147 0.41396 0.0
C6 C 0.84455 0.52882 0.48503 0.0
C7 C 0.81237 0.54472 0.47827 0.0
C8 C 0.75091 0.54696 0.39948 0.0
H9 H 0.80767 0.56623 0.53234 0.0
C10 C 0.72971 0.5472 0.30042 0.0
C11 C 0.69528 0.55804 0.30354 0.0
C12 C 0.73689 0.5582 0.50066 0.0
H13 H 0.75146 0.55759 0.57874 0.0
C14 C 0.70333 0.56909 0.50429 0.0
H15 H 0.74001 0.53936 0.22088 0.0
C16 C 0.68275 0.56886 0.40767 0.0
H17 H 0.65654 0.57641 0.41606 0.0
H18 H 0.69291 0.57715 0.5835 0.0
H19 H 0.09947 0.77609 0.27586 0.0
C20 C 0.08954 0.7944 0.33437 0.0
C21 C 0.10633 0.82578 0.34526 0.0
C22 C 0.06081 0.78666 0.39913 0.0
H23 H 0.10757 0.8744 0.42822 0.0
C24 C 0.09493 0.84982 0.42243 0.0
C25 C 0.06608 0.84397 0.48632 0.0
C26 C 0.0487 0.81239 0.47376 0.0
C27 C 0.04513 0.7513 0.39263 0.0
H28 H 1.02602 0.80811 0.52202 0.0
C29 C 0.04746 0.72987 0.2955 0.0
C30 C 0.03569 0.69555 0.29722 0.0
C31 C 1.02979 0.73757 0.48878 0.0
H32 H 1.02823 0.75206 0.56574 0.0
C33 C 1.01727 0.70435 0.48949 0.0
H34 H 0.0589 0.73937 0.21951 0.0
C35 C 1.02024 0.68358 0.39546 0.0
H36 H 1.01036 0.65785 0.39992 0.0
H37 H 1.00566 0.69435 0.56462 0.0
H38 H 0.81128 0.08339 0.24624 0.0
C39 C 0.79271 0.07395 0.30486 0.0
C40 C 0.76101 0.08966 0.30643 0.0
C41 C 0.80075 0.04741 0.38005 0.0
H42 H 0.71172 0.09119 0.38108 0.0
C43 C 0.73646 0.07912 0.38293 0.0
C44 C 0.7424 0.05238 0.45798 0.0
C45 C 0.77477 0.03623 0.45612 0.0
C46 C 0.83701 0.03416 0.38355 0.0
H47 H 0.77965 1.01551 0.51402 0.0
C48 C 0.85894 0.03494 0.28793 0.0
C49 C 0.89408 1.02609 0.2974 0.0
C50 C 0.85112 1.02367 0.48718 0.0
H51 H 0.83616 1.02346 0.56264 0.0
C52 C 0.88529 1.01494 0.4972 0.0
H53 H 0.84876 0.04212 0.20627 0.0
C54 C 0.90648 1.01641 0.40461 0.0
H55 H 0.93305 1.01061 0.41871 0.0
H56 H 0.89572 1.00766 0.57858 0.0
H57 H 0.49877 0.81142 0.25068 0.0
C58 C 0.5085 0.79295 0.31048 0.0
C59 C 0.49223 0.76125 0.31666 0.0
C60 C 0.53636 0.80095 0.38217 0.0
H61 H 0.49125 0.71216 0.39678 0.0
C62 C 0.50351 0.73696 0.39479 0.0
C63 C 0.53156 0.74307 0.46554 0.0
C64 C 0.54822 0.77518 0.45887 0.0
C65 C 0.55108 0.83671 0.38076 0.0
H66 H 0.57014 0.7799 0.51307 0.0
C67 C 0.55038 0.85798 0.28263 0.0
C68 C 0.56158 0.89257 0.28677 0.0
C69 C 0.56367 0.85087 0.48181 0.0
H70 H 0.56386 0.83637 0.55923 0.0
C71 C 0.57483 0.88453 0.4865 0.0
H72 H 0.54148 0.84765 0.20307 0.0
C73 C 0.57361 0.90515 0.39109 0.0
H74 H 0.58133 0.93145 0.40075 0.0
H75 H 0.58384 0.89504 0.56581 0.0
H76 H 0.31924 0.59187 0.23201 0.0
C77 C 0.29993 0.58126 0.176 0.0
C78 C 0.26822 0.59727 0.16821 0.0
C79 C 0.30684 0.55219 0.11104 0.0
H80 H 0.21823 0.59583 0.09067 0.0
C81 C 0.24321 0.58432 0.0942 0.0
C82 C 0.24868 0.5555 0.02918 0.0
C83 C 0.28052 0.53911 0.03819 0.0
C84 C 0.34202 0.53715 0.11522 0.0
H85 H 0.28469 0.51651 0.98861 0.0
C86 C 0.36298 0.5376 0.21464 0.0
C87 C 0.39702 0.52558 0.2139 0.0
C88 C 0.35581 0.52418 1.01603 0.0
H89 H 0.34131 0.52416 0.93776 0.0
C90 C 0.38905 0.51229 1.01462 0.0
H91 H 0.35275 0.54691 0.29256 0.0
C92 C 0.40945 0.51313 0.11164 0.0
H93 H 0.43547 0.50474 0.10499 0.0
H94 H 0.39937 0.50294 0.93684 0.0
H95 H 1.00178 0.31338 0.27377 0.0
C96 C 1.01144 0.29486 0.21537 0.0
C97 C 0.99556 0.26294 0.20956 0.0
C98 C 0.03873 0.30303 0.14474 0.0
H99 H 0.99474 0.21361 0.13154 0.0
C100 C 1.00672 0.23856 0.13322 0.0
C101 C 0.03423 0.24483 0.06367 0.0
C102 C 0.05048 0.27719 0.06979 0.0
C103 C 0.05289 0.33903 0.14504 0.0
H104 H 0.07197 0.28205 1.01644 0.0
C105 C 0.05236 0.36072 0.24192 0.0
C106 C 0.06303 0.39544 0.23646 0.0
C107 C 0.0647 0.35297 0.04394 0.0
H108 H 0.0647 0.33815 0.96734 0.0
C109 C 0.07529 0.38678 0.03801 0.0
H110 H 0.04404 0.35063 0.32156 0.0
C111 C 0.0743 0.40776 0.13219 0.0
H112 H 0.08162 0.43413 0.12168 0.0
H113 H 0.08372 0.39708 0.95866 0.0
H114 H 0.27668 0.99098 0.26439 0.0
C115 C 0.29476 1.00015 0.20363 0.0
C116 C 0.32494 0.98202 0.19038 0.0
C117 C 0.28776 1.02932 0.13867 0.0
H118 H 0.37228 0.97885 0.10309 0.0
C119 C 0.34855 0.99252 0.11025 0.0
C120 C 0.34364 1.02186 0.04582 0.0
C121 C 0.31317 0.04056 0.06097 0.0
C122 C 0.25319 0.0461 0.14773 0.0
H123 H 0.30939 0.06354 1.01236 0.0
C124 C 0.23318 0.04521 0.24792 0.0
C125 C 0.19948 0.05866 0.24946 0.0
C126 C 0.23861 0.06091 0.05084 0.0
H127 H 0.25198 0.06137 0.97212 0.0
C128 C 0.20583 0.07396 0.0515 0.0
H129 H 0.24379 0.03449 0.32455 0.0
C130 C 0.1865 0.07265 0.14839 0.0
H131 H 0.16073 0.08196 0.1422 0.0
H132 H 0.19494 0.08459 0.97502 0.0
H133 H 0.58788 0.27095 0.25405 0.0
C134 C 0.5784 0.28971 0.19495 0.0
C135 C 0.59511 0.32124 0.19072 0.0
C136 C 0.55037 0.28246 0.12283 0.0
H137 H 0.59704 0.37059 0.11263 0.0
C138 C 0.58439 0.34596 0.11337 0.0
C139 C 0.55632 0.34063 0.04227 0.0
C140 C 0.53896 0.3089 0.04778 0.0
C141 C 0.53454 0.24705 0.12296 0.0
H142 H 0.5168 0.30511 0.99398 0.0
C143 C 0.53654 0.22445 0.21783 0.0
C144 C 0.52397 0.19039 0.21137 0.0
C145 C 0.51905 0.2346 0.02348 0.0
H146 H 0.51779 0.24986 0.9478 0.0
C147 C 0.50573 0.20173 0.01787 0.0
H148 H 0.54821 0.23291 0.296 0.0
C149 C 0.50807 0.17996 0.11011 0.0
H150 H 0.49719 0.15471 0.10162 0.0
H151 H 0.49383 0.19283 0.94041 0.0
Eu152 Eu 1.01976 0.05349 0.68412 0.0
Eu153 Eu 0.07757 0.03394 0.87173 0.0
C154 C 0.0508 0.11386 0.84478 0.0
C155 C 0.95215 0.0987 0.51546 0.0
C156 C 0.94172 0.10639 0.40547 0.0
C157 C 0.94031 0.15664 0.5717 0.0
C158 C 0.9327 0.13956 0.37705 0.0
C159 C 0.94956 0.12343 0.59986 0.0
C160 C 0.93427 0.16563 0.45848 0.0
C161 C 0.97224 0.06805 0.53576 0.0
O162 O 1.02756 1.0237 0.96148 0.0
O163 O 0.9906 0.05325 0.84784 0.0
C164 C 0.99731 0.037 0.94225 0.0
O165 O 1.02723 0.99638 0.65946 0.0
O166 O 0.09352 1.01571 0.03725 0.0
O167 O 0.13105 0.03625 0.92473 0.0
O168 O 0.06719 0.98211 0.79482 0.0
C169 C 0.0468 0.97369 0.71013 0.0
O170 O 0.07029 0.06524 0.59952 0.0
O171 O 0.10531 0.03141 0.70538 0.0
O172 O 0.07149 0.09146 0.89182 0.0
O173 O 1.0046 0.07185 0.51795 0.0
O174 O 0.96651 0.05144 0.62845 0.0
O175 O 1.02902 0.10505 0.76443 0.0
C176 C 0.14648 0.98971 0.04016 0.0
C177 C 0.15606 0.98231 0.15112 0.0
C178 C 0.16137 0.93237 0.9853 0.0
C179 C 0.16645 0.94966 0.18046 0.0
C180 C 0.1509 0.96518 0.95613 0.0
C181 C 0.16688 0.92361 0.09905 0.0
C182 C 0.12577 1.01988 0.01823 0.0
C183 C 0.09956 0.0496 0.61436 0.0
H184 H 0.94375 0.08762 0.33937 0.0
H185 H 0.94107 0.17587 0.63684 0.0
H186 H 0.9284 0.14523 0.28881 0.0
H187 H 0.9575 0.11786 0.68565 0.0
H188 H 0.15226 1.00076 0.21699 0.0
H189 H 0.16204 0.91316 0.92025 0.0
H190 H 0.17014 0.94417 0.2691 0.0
H191 H 0.14354 0.97047 0.86961 0.0
Eu192 Eu 0.55077 0.07083 0.82921 0.0
Eu193 Eu 0.53272 1.0097 0.65707 0.0
C194 C 0.54985 0.99228 0.91675 0.0
C195 C 0.60084 0.1399 0.97602 0.0
C196 C 0.62622 0.1395 0.89449 0.0
C197 C 0.64229 0.15898 0.1148 0.0
C198 C 0.65985 0.14716 0.92465 0.0
C199 C 0.60868 0.15181 0.08406 0.0
C200 C 0.66863 0.15436 0.03742 0.0
C201 C 0.5681 0.12292 0.9546 0.0
O202 O 0.4805 1.02515 0.7241 0.0
O203 O 0.49658 0.05781 0.87651 0.0
C204 C 0.47295 0.04139 0.81793 0.0
O205 O 0.52556 0.0956 0.67709 0.0
O206 O 0.53498 0.95616 0.6085 0.0
O207 O 0.5105 0.9928 0.49799 0.0
O208 O 0.54169 0.05667 0.54886 0.0
C209 C 0.53236 0.08779 0.57285 0.0
O210 O 0.59992 0.06392 0.73248 0.0
O211 O 0.59087 1.01118 0.65547 0.0
O212 O 0.53066 0.98495 0.82865 0.0
O213 O 0.55575 0.1256 0.85281 0.0
O214 O 0.56576 0.09194 0.99285 0.0
O215 O 0.56551 1.02205 0.92388 0.0
C216 C 0.48681 0.93852 0.5013 0.0
C217 C 0.4625 0.9353 0.58558 0.0
C218 C 0.44627 0.91621 0.3648 0.0
C219 C 0.42951 0.92439 0.55784 0.0
C220 C 0.4792 0.92676 0.3929 0.0
C221 C 0.42029 0.91763 0.44492 0.0
C222 C 0.51646 0.96074 0.51768 0.0
C223 C 0.61123 0.0372 0.67791 0.0
H224 H 0.62057 0.13082 0.80971 0.0
H225 H 0.64769 0.16446 0.20254 0.0
H226 H 0.67929 0.14431 0.86209 0.0
H227 H 0.58937 0.15277 0.1475 0.0
H228 H 0.46806 0.94418 0.67024 0.0
H229 H 0.44065 0.91119 0.2769 0.0
H230 H 0.41048 0.92477 0.62248 0.0
H231 H 0.49765 0.92922 0.32687 0.0
Eu232 Eu 0.51621 0.55262 0.84664 0.0
Eu233 Eu 0.57515 0.53237 0.66991 0.0
C234 C 0.59534 0.54932 0.93051 0.0
C235 C 0.44747 0.59809 1.00211 0.0
C236 C 0.44469 0.62314 0.91826 0.0
C237 C 0.4285 0.63847 0.1401 0.0
C238 C 0.43552 0.65626 0.94665 0.0
C239 C 0.43745 0.60544 0.11145 0.0
C240 C 0.42978 0.66484 0.05964 0.0
C241 C 0.46703 0.56717 0.98275 0.0
O242 O 0.56396 0.48073 0.74585 0.0
O243 O 0.52217 0.49514 0.86964 0.0
C244 C 0.54217 0.47234 0.8241 0.0
O245 O 0.49049 0.55486 0.67465 0.0
O246 O 0.62906 0.53101 0.62926 0.0
O247 O 0.5913 0.5164 0.5039 0.0
O248 O 0.52526 0.51911 0.58003 0.0
C249 C 0.49634 0.53543 0.58771 0.0
O250 O 0.52758 0.60435 0.77132 0.0
O251 O 0.56834 0.58969 0.64396 0.0
O252 O 0.60206 0.53166 0.84015 0.0
O253 O 0.4622 0.55195 0.88648 0.0
O254 O 0.49915 0.56967 1.01021 0.0
O255 O 0.56569 0.56408 0.94188 0.0
C256 C 0.64125 0.48493 0.51019 0.0
C257 C 0.65077 0.47746 0.40039 0.0
C258 C 0.65085 0.42612 0.56362 0.0
C259 C 0.65845 0.44416 0.37066 0.0
C260 C 0.64298 0.45949 0.59309 0.0
C261 C 0.65645 0.41767 0.4505 0.0
C262 C 0.62347 0.51682 0.53169 0.0
C263 C 0.54864 0.61259 0.69065 0.0
H264 H 0.45234 0.61788 0.83296 0.0
H265 H 0.42449 0.64378 0.22818 0.0
H266 H 0.43607 0.67573 0.88215 0.0
H267 H 0.4398 0.58651 0.17722 0.0
H268 H 0.64927 0.49671 0.33532 0.0
H269 H 0.64967 0.40652 0.62755 0.0
H270 H 0.6623 0.43888 0.28247 0.0
H271 H 0.63566 0.46481 0.67869 0.0
Eu272 Eu 0.05441 0.57581 0.67962 0.0
Eu273 Eu 0.03715 0.51566 0.85564 0.0
C274 C 0.11559 0.53906 0.82526 0.0
C275 C 0.10886 0.6333 0.5142 0.0
C276 C 0.13401 0.60875 0.53079 0.0
C277 C 0.15105 0.67165 0.43683 0.0
C278 C 0.16719 0.6152 0.49902 0.0
C279 C 0.11754 0.6651 0.46931 0.0
C280 C 0.17619 0.64648 0.44967 0.0
C281 C 0.07433 0.6255 0.55039 0.0
O282 O 0.05018 0.56299 0.95885 0.0
O283 O 1.03162 0.60169 0.83088 0.0
C284 C 0.04048 0.59413 0.93477 0.0
O285 O 0.99903 0.56489 0.63843 0.0
O286 O 1.01791 0.50043 0.01846 0.0
O287 O 0.03649 0.46208 0.90487 0.0
O288 O 0.98484 0.5335 0.79434 0.0
C289 C 0.97615 0.54961 0.70063 0.0
O290 O 0.06892 0.52628 0.59193 0.0
O291 O 1.03257 0.49096 0.68397 0.0
O292 O 0.09486 0.51401 0.85168 0.0
O293 O 0.06123 0.59714 0.51175 0.0
O294 O 0.07006 0.62867 0.6581 0.0
O295 O 0.10433 0.56633 0.77271 0.0
C296 C 0.98918 0.44862 1.01644 0.0
C297 C 0.96344 0.44744 0.93321 0.0
C298 C 0.94918 0.42886 0.15429 0.0
C299 C 0.93023 0.43862 0.96192 0.0
C300 C 0.9823 0.43744 0.12527 0.0
C301 C 0.92229 0.43162 0.07468 0.0
C302 C 1.02044 0.46802 0.99774 0.0
C303 C 0.05229 0.49709 0.59837 0.0
H304 H 0.12781 0.58415 0.56634 0.0
H305 H 0.15707 0.696 0.39926 0.0
H306 H 0.18527 0.5947 0.50774 0.0
H307 H 0.09845 0.68457 0.45816 0.0
H308 H 0.96837 0.45607 0.8484 0.0
H309 H 0.94439 0.42388 0.24219 0.0
H310 H 0.91034 0.44032 0.89799 0.0
H311 H 1.00181 0.43854 0.19058 0.0
C312 C 0.15141 0.08277 0.36645 0.0
C313 C 0.17654 0.05762 0.35172 0.0
H314 H 0.10781 0.09973 0.4563 0.0
C315 C 0.1771 1.03058 0.4301 0.0
H316 H 0.15033 0.1048 0.31191 0.0
C317 C 0.15277 1.02826 0.51635 0.0
C318 C 0.12673 0.05262 0.52644 0.0
H319 H 0.19554 1.01045 0.42256 0.0
H320 H 0.15375 1.00673 0.57319 0.0
C321 C 0.12682 0.08006 0.45057 0.0
C322 C 0.53356 0.1302 0.28299 0.0
C323 C 0.52757 0.16485 0.30658 0.0
H324 H 0.53975 0.07944 0.34558 0.0
C325 C 0.52357 0.17391 0.42028 0.0
H326 H 0.53726 0.12183 0.19745 0.0
C327 C 0.52482 0.14909 0.50645 0.0
C328 C 0.53044 0.11446 0.48183 0.0
H329 H 0.51864 0.20006 0.44265 0.0
H330 H 0.52136 0.1571 0.59258 0.0
C331 C 0.53508 0.1056 0.36865 0.0
C332 C 0.41921 0.55352 0.39511 0.0
C333 C 0.42049 0.52684 0.31621 0.0
H334 H 0.44179 0.57722 0.54157 0.0
C335 C 0.44626 0.50231 0.33167 0.0
H336 H 0.40026 0.57321 0.38632 0.0
C337 C 0.47063 0.50513 0.41901 0.0
C338 C 0.46977 0.53214 0.49606 0.0
H339 H 0.44789 0.48074 0.27563 0.0
H340 H 0.49016 0.48594 0.42628 0.0
C341 C 0.44334 0.55601 0.48396 0.0
C342 C 0.08515 0.44702 0.34649 0.0
C343 C 0.06159 0.41978 0.33548 0.0
H344 H 0.10056 0.49245 0.43442 0.0
C345 C 0.03556 0.41788 0.41525 0.0
H346 H 0.1062 0.44933 0.28964 0.0
C347 C 1.03278 0.44262 0.50054 0.0
C348 C 0.05572 0.47035 0.50861 0.0
H349 H 1.01658 0.39785 0.40997 0.0
H350 H 1.0121 0.44033 0.559 0.0
C351 C 0.08206 0.47194 0.43048 0.0
C352 C 0.94712 1.0056 0.19691 0.0
C353 C 0.91875 1.02755 0.19973 0.0
H354 H 0.99363 0.99158 0.11777 0.0
C355 C 0.91601 0.05194 0.11274 0.0
H356 H 0.95021 0.98564 0.25892 0.0
C357 C 0.941 0.05471 0.02877 0.0
C358 C 0.9699 0.03352 0.02937 0.0
H359 H 0.89507 0.06964 0.11106 0.0
H360 H 0.93803 0.07411 0.96466 0.0
C361 C 0.97228 1.0088 0.11468 0.0
C362 C 0.58334 0.94375 0.1757 0.0
C363 C 0.55984 0.91653 0.18627 0.0
H364 H 0.5985 0.98876 0.0861 0.0
C365 C 0.53362 0.91419 0.10408 0.0
H366 H 0.60456 0.94638 0.23429 0.0
C367 C 0.53067 0.93843 1.01678 0.0
C368 C 0.55357 0.96615 1.00902 0.0
H369 H 0.51466 0.8942 0.10879 0.0
H370 H 0.50987 0.93579 0.95643 0.0
C371 C 0.58004 0.96824 0.08971 0.0
C372 C 0.67358 0.53167 0.11898 0.0
C373 C 0.67153 0.55721 0.2017 0.0
H374 H 0.65155 0.50911 0.96966 0.0
C375 C 0.64478 0.58087 0.19039 0.0
H376 H 0.69328 0.51264 0.12443 0.0
C377 C 0.62028 0.57826 0.10328 0.0
C378 C 0.62197 0.55238 0.02225 0.0
H379 H 0.64248 0.6016 0.24944 0.0
H380 H 0.60001 0.59674 0.09926 0.0
C381 C 0.64933 0.52944 0.03035 0.0
C382 C 1.03085 0.67968 0.08873 0.0
C383 C 0.03976 0.67108 0.2005 0.0
H384 H 1.02359 0.66243 0.91792 0.0
C385 C 0.05012 0.63738 0.22193 0.0
H386 H 1.02258 0.70521 0.06864 0.0
C387 C 0.05046 0.61284 0.13628 0.0
C388 C 0.0405 0.62096 0.02523 0.0
H389 H 0.05772 0.62975 0.30608 0.0
H390 H 0.05831 0.58727 0.1578 0.0
C391 C 1.03112 0.65495 1.00241 0.0
C392 C 0.98155 0.24605 0.40297 0.0
C393 C 0.97028 0.25208 0.29239 0.0
H394 H 0.9784 0.21341 0.54509 0.0
C395 C 0.93953 0.23742 0.25451 0.0
H396 H 1.00519 0.2572 0.43387 0.0
C397 C 0.92361 0.21248 0.31905 0.0
C398 C 0.93889 0.20141 0.42046 0.0
H399 H 0.93024 0.24209 0.16956 0.0
H400 H 0.90199 0.19895 0.28287 0.0
C401 C 0.966 0.22075 0.4668 0.0
C402 C 0.3408 0.9653 0.38443 0.0
C403 C 0.33548 0.95565 0.27207 0.0
H404 H 0.37216 0.96014 0.53045 0.0
C405 C 0.34966 0.92521 0.23401 0.0
H406 H 0.32985 0.98854 0.41604 0.0
C407 C 0.37365 0.90816 0.3009 0.0
C408 C 0.38451 0.9222 0.4045 0.0
H409 H 0.3453 0.91693 0.14803 0.0
H410 H 0.38681 0.88677 0.26509 0.0
C411 C 0.36525 0.94874 0.45038 0.0
C412 C 0.60896 0.33748 0.38632 0.0
C413 C 0.6204 0.33165 0.2772 0.0
H414 H 0.61186 0.36988 0.52924 0.0
C415 C 0.65118 0.34644 0.24378 0.0
H416 H 0.58528 0.32627 0.41384 0.0
C417 C 0.66692 0.37133 0.3107 0.0
C418 C 0.65152 0.38213 0.41025 0.0
H419 H 0.66061 0.34196 0.16005 0.0
H420 H 0.68859 0.38495 0.27769 0.0
C421 C 0.62436 0.36269 0.45255 0.0
C422 C 0.26158 0.6179 0.36391 0.0
C423 C 0.25815 0.62414 0.24806 0.0
H424 H 0.23836 0.62256 0.52412 0.0
C425 C 0.23561 0.64962 0.21117 0.0
H426 H 0.27938 0.59914 0.39563 0.0
C427 C 0.21104 0.66181 0.28366 0.0
C428 C 0.2097 0.6494 0.3944 0.0
H429 H 0.23343 0.65593 0.12257 0.0
H430 H 0.19056 0.67684 0.24798 0.0
C431 C 0.23768 0.631 0.43731 0.0
C432 C 0.12202 0.84189 0.15246 0.0
C433 C 0.13227 0.83681 0.26468 0.0
H434 H 0.12564 0.87392 1.00897 0.0
C435 C 0.16233 0.8524 0.30468 0.0
H436 H 0.09901 0.82996 0.1196 0.0
C437 C 0.1782 0.87744 0.24036 0.0
C438 C 0.16349 0.88769 0.13706 0.0
H439 H 0.17096 0.8484 0.39075 0.0
H440 H 0.19907 0.89176 0.27802 0.0
C441 C 0.13749 0.86729 0.08885 0.0
C442 C 0.74491 0.10288 0.11015 0.0
C443 C 0.75097 0.11454 0.21987 0.0
H444 H 0.7137 0.10691 0.96331 0.0
C445 C 0.73816 0.14616 0.25226 0.0
H446 H 0.75473 0.07855 0.08363 0.0
C447 C 0.71506 0.16314 0.18206 0.0
C448 C 0.70367 0.1479 0.08107 0.0
H449 H 0.743 0.15573 0.33651 0.0
H450 H 0.70303 0.18584 0.21336 0.0
C451 C 0.72129 0.1194 0.04096 0.0
C452 C 0.43604 0.73557 0.26719 0.0
C453 C 0.46658 0.75044 0.23191 0.0
H454 H 0.39828 0.69734 0.23449 0.0
C455 C 0.47723 0.74502 0.12168 0.0
H456 H 0.42718 0.73983 0.35175 0.0
C457 C 0.46134 0.72006 0.05565 0.0
C458 C 0.43449 0.70047 0.09938 0.0
H459 H 0.50067 0.75637 0.09266 0.0
H460 H 0.47332 0.71315 0.97777 0.0
C461 C 0.41974 0.71102 0.20035 0.0
C462 C 0.85244 0.43524 0.28259 0.0
C463 C 0.83743 0.46596 0.24885 0.0
H464 H 0.89041 0.39826 0.24825 0.0
C465 C 0.84276 0.47814 0.13978 0.0
H466 H 0.84834 0.42526 0.36631 0.0
C467 C 0.86753 0.46338 0.07345 0.0
C468 C 0.88705 0.43608 0.11552 0.0
H469 H 0.83138 0.5018 0.11209 0.0
H470 H 0.87428 0.47639 0.99664 0.0
C471 C 0.87678 0.42006 0.21537 0.0
C472 C 0.06994 0.19302 0.02629 0.0
C473 C 0.0448 0.21598 0.98931 0.0
H474 H 0.09176 0.14329 1.01064 0.0
C475 C 1.02364 0.20603 0.89811 0.0
H476 H 0.08591 0.19929 0.09861 0.0
C477 C 1.02667 0.17375 0.848 0.0
C478 C 0.0507 0.14999 0.88845 0.0
H479 H 1.00332 0.22257 0.86967 0.0
H480 H 1.00899 0.16688 0.78077 0.0
C481 C 0.07292 0.16059 0.97652 0.0
C482 C 0.39532 0.0582 1.00285 0.0
C483 C 0.37234 0.03232 0.96997 0.0
H484 H 0.44451 0.08134 0.98209 0.0
C485 C 0.38177 1.01118 0.87995 0.0
H486 H 0.38955 0.07431 0.07372 0.0
C487 C 0.41341 1.01516 0.82672 0.0
C488 C 0.43719 0.03995 0.86343 0.0
H489 H 0.36524 0.99036 0.8542 0.0
H490 H 0.41991 0.99758 0.76056 0.0
C491 C 0.42718 0.06188 0.95086 0.0
C492 C 0.52175 0.39337 1.00304 0.0
C493 C 0.54615 0.36987 0.9676 0.0
H494 H 0.50115 0.44368 0.98645 0.0
C495 C 0.56715 0.37944 0.87805 0.0
H496 H 0.50594 0.38735 0.07411 0.0
C497 C 0.56474 0.41188 0.82817 0.0
C498 C 0.54152 0.43616 0.86725 0.0
H499 H 0.58691 0.36243 0.85087 0.0
H500 H 0.58229 0.41842 0.7623 0.0
C501 C 0.51939 0.42596 0.9535 0.0
C502 C 0.19734 0.51816 0.99151 0.0
C503 C 0.21957 0.544 0.95544 0.0
H504 H 0.14723 0.49602 0.97874 0.0
C505 C 0.2085 0.56539 0.86736 0.0
H506 H 0.20467 0.50195 0.06146 0.0
C507 C 0.17548 0.56251 0.8214 0.0
C508 C 0.15233 0.53813 0.86215 0.0
H509 H 0.22464 0.58607 0.83955 0.0
H510 H 0.16761 0.58059 0.75742 0.0
C511 C 0.16419 0.5151 0.94491 0.0
C512 C 1.02958 0.89522 0.52399 0.0
C513 C 0.055 0.87256 0.56077 0.0
H514 H 1.0069 0.94449 0.54131 0.0
C515 C 0.07562 0.88236 0.65349 0.0
H516 H 1.01397 0.88901 0.45079 0.0
C517 C 0.0718 0.91427 0.70534 0.0
C518 C 0.04755 0.9378 0.66502 0.0
H519 H 0.09607 0.866 0.68206 0.0
H520 H 0.0891 0.92109 0.7737 0.0
C521 C 1.02588 0.92732 0.5753 0.0
C522 C 0.70201 0.06752 0.61241 0.0
C523 C 0.71347 0.04321 0.53489 0.0
H524 H 0.66191 0.08473 0.71792 0.0
C525 C 0.69191 1.01517 0.512 0.0
H526 H 0.71735 0.08992 0.6301 0.0
C527 C 0.6595 1.01231 0.56169 0.0
C528 C 0.64741 0.03758 0.63525 0.0
H529 H 0.6992 0.99651 0.45024 0.0
H530 H 0.64329 0.99102 0.53822 0.0
C531 C 0.66978 0.06472 0.66188 0.0
C532 C 0.52184 0.7048 0.63222 0.0
C533 C 0.54238 0.71428 0.54137 0.0
H534 H 0.5078 0.66617 0.75085 0.0
C535 C 0.56705 0.691 0.50639 0.0
H536 H 0.50187 0.72159 0.65914 0.0
C537 C 0.57017 0.65872 0.55778 0.0
C538 C 0.54857 0.64859 0.64557 0.0
H539 H 0.58252 0.69691 0.43441 0.0
H540 H 0.5886 0.64114 0.52514 0.0
C541 C 0.52503 0.67267 0.68401 0.0
C542 C 0.89642 0.56523 0.51846 0.0
C543 C 0.87356 0.54065 0.5588 0.0
H544 H 0.94632 0.58747 0.531 0.0
C545 C 0.88358 0.52129 0.65338 0.0
H546 H 0.88994 0.57979 0.44378 0.0
C547 C 0.91605 0.52553 0.70368 0.0
C548 C 0.93975 0.54878 0.65925 0.0
H549 H 0.86699 0.50142 0.68437 0.0
H550 H 0.92322 0.50917 0.77342 0.0
C551 C 0.92901 0.56924 0.56783 0.0
loop_
_geom_bond_atom_site_label_1
_geom_bond_atom_site_label_2
_geom_bond_distance
_geom_bond_site_symmetry_2
_ccdc_geom_bond_type
H0 C1 0.949 . S
C1 H0 0.949 . S
C1 C2 1.395 . S
C1 C3 1.391 . S
C2 C1 1.395 . S
C2 C5 1.390 . S
C3 C1 1.391 . S
C3 C7 1.387 . S
C3 C8 1.491 . S
H4 C5 0.950 . S
C5 C2 1.390 . S
C5 H4 0.950 . S
C5 C6 1.378 . S
C6 C5 1.378 . S
C6 C7 1.409 . S
C7 C3 1.387 . S
C7 C6 1.409 . S
C7 H9 0.951 . S
C8 C3 1.491 . S
C8 C10 1.382 . S
C8 C12 1.404 . S
H9 C7 0.951 . S
C10 C8 1.382 . S
C10 C11 1.390 . S
C10 H15 0.949 . S
C11 C10 1.390 . S
C11 C16 1.399 . S
C12 C8 1.404 . S
C12 H13 0.950 . S
C12 C14 1.375 . S
H13 C12 0.950 . S
C14 C12 1.375 . S
C14 C16 1.382 . S
C14 H18 0.950 . S
H15 C10 0.949 . S
C16 C11 1.399 . S
C16 C14 1.382 . S
C16 H17 0.952 . S
H17 C16 0.952 . S
H18 C14 0.950 . S
H19 C20 0.949 . S
C20 H19 0.949 . S
C20 C21 1.395 . S
C20 C22 1.391 . S
C21 C20 1.395 . S
C21 C24 1.390 . S
C22 C20 1.391 . S
C22 C26 1.387 . S
C22 C27 1.491 . S
H23 C24 0.950 . S
C24 C21 1.390 . S
C24 H23 0.950 . S
C24 C25 1.378 . S
C25 C24 1.378 . S
C25 C26 1.409 . S
C26 C22 1.387 . S
C26 C25 1.409 . S
C26 H28 0.951 . S
C27 C22 1.491 . S
C27 C29 1.382 . S
C27 C31 1.404 . S
H28 C26 0.951 . S
C29 C27 1.382 . S
C29 C30 1.390 . S
C29 H34 0.949 . S
C30 C29 1.390 . S
C30 C35 1.399 . S
C31 C27 1.404 . S
C31 H32 0.950 . S
C31 C33 1.375 . S
H32 C31 0.950 . S
C33 C31 1.375 . S
C33 C35 1.382 . S
C33 H37 0.950 . S
H34 C29 0.949 . S
C35 C30 1.399 . S
C35 C33 1.382 . S
C35 H36 0.952 . S
H36 C35 0.952 . S
H37 C33 0.950 . S
H38 C39 0.949 . S
C39 H38 0.949 . S
C39 C40 1.395 . S
C39 C41 1.391 . S
C40 C39 1.395 . S
C40 C43 1.390 . S
C41 C39 1.391 . S
C41 C45 1.387 . S
C41 C46 1.491 . S
H42 C43 0.950 . S
C43 C40 1.390 . S
C43 H42 0.950 . S
C43 C44 1.378 . S
C44 C43 1.378 . S
C44 C45 1.409 . S
C45 C41 1.387 . S
C45 C44 1.409 . S
C45 H47 0.951 . S
C46 C41 1.491 . S
C46 C48 1.382 . S
C46 C50 1.404 . S
H47 C45 0.951 . S
C48 C46 1.382 . S
C48 C49 1.390 . S
C48 H53 0.935 1_565 S
C49 C48 1.390 . S
C49 C54 1.399 . S
C50 C46 1.404 . S
C50 H51 0.950 . S
C50 C52 1.375 . S
H51 C50 0.950 . S
C52 C50 1.375 . S
C52 C54 1.382 . S
C52 H56 0.950 . S
H53 C48 0.935 1_545 S
C54 C49 1.399 . S
C54 C52 1.382 . S
C54 H55 0.952 . S
H55 C54 0.952 . S
H56 C52 0.950 . S
H57 C58 0.949 . S
C58 H57 0.949 . S
C58 C59 1.395 . S
C58 C60 1.391 . S
C59 C58 1.395 . S
C59 C62 1.390 . S
C60 C58 1.391 . S
C60 C64 1.387 . S
C60 C65 1.491 . S
H61 C62 0.950 . S
C62 C59 1.390 . S
C62 H61 0.950 . S
C62 C63 1.378 . S
C63 C62 1.378 . S
C63 C64 1.409 . S
C64 C60 1.387 . S
C64 C63 1.409 . S
C64 H66 0.951 . S
C65 C60 1.491 . S
C65 C67 1.382 . S
C65 C69 1.404 . S
H66 C64 0.951 . S
C67 C65 1.382 . S
C67 C68 1.390 . S
C67 H72 0.949 . S
C68 C67 1.390 . S
C68 C73 1.399 . S
C69 C65 1.404 . S
C69 H70 0.950 . S
C69 C71 1.375 . S
H70 C69 0.950 . S
C71 C69 1.375 . S
C71 C73 1.382 . S
C71 H75 0.950 . S
H72 C67 0.949 . S
C73 C68 1.399 . S
C73 C71 1.382 . S
C73 H74 0.952 . S
H74 C73 0.952 . S
H75 C71 0.950 . S
H76 C77 0.949 . S
C77 H76 0.949 . S
C77 C78 1.395 . S
C77 C79 1.391 . S
C78 C77 1.395 . S
C78 C81 1.390 . S
C79 C77 1.391 . S
C79 C83 1.387 1_554 S
C79 C84 1.491 . S
H80 C81 0.950 . S
C81 C78 1.390 . S
C81 H80 0.950 . S
C81 C82 1.378 1_554 S
C82 C81 1.378 1_556 S
C82 C83 1.409 . S
C83 C79 1.387 1_556 S
C83 C82 1.409 . S
C83 H85 0.951 . S
C84 C79 1.491 . S
C84 C86 1.382 . S
C84 C88 1.404 1_554 S
H85 C83 0.951 . S
C86 C84 1.382 . S
C86 C87 1.390 . S
C86 H91 0.949 . S
C87 C86 1.390 . S
C87 C92 1.399 . S
C88 C84 1.404 1_556 S
C88 H89 0.950 . S
C88 C90 1.375 1_556 S
H89 C88 0.950 . S
C90 C88 1.375 1_554 S
C90 C92 1.382 . S
C90 H94 0.950 1_554 S
H91 C86 0.949 . S
C92 C87 1.399 . S
C92 C90 1.382 . S
C92 H93 0.952 . S
H93 C92 0.952 . S
H94 C90 0.950 1_556 S
H95 C96 0.949 . S
C96 H95 0.949 . S
C96 C97 1.395 . S
C96 C98 1.391 . S
C97 C96 1.395 . S
C97 C100 1.390 . S
C98 C96 1.391 . S
C98 C102 1.387 1_554 S
C98 C103 1.491 . S
H99 C100 0.950 . S
C100 C97 1.390 . S
C100 H99 0.950 . S
C100 C101 1.378 1_554 S
C101 C100 1.378 1_556 S
C101 C102 1.409 . S
C102 C98 1.387 1_556 S
C102 C101 1.409 . S
C102 H104 0.951 . S
C103 C98 1.491 . S
C103 C105 1.382 . S
C103 C107 1.404 1_554 S
H104 C102 0.951 . S
C105 C103 1.382 . S
C105 C106 1.390 . S
C105 H110 0.949 . S
C106 C105 1.390 . S
C106 C111 1.399 . S
C107 C103 1.404 1_556 S
C107 H108 0.950 . S
C107 C109 1.375 . S
H108 C107 0.950 . S
C109 C107 1.375 . S
C109 C111 1.382 1_556 S
C109 H113 0.950 1_455 S
H110 C105 0.949 . S
C111 C106 1.399 . S
C111 C109 1.382 1_554 S
C111 H112 0.952 . S
H112 C111 0.952 . S
H113 C109 0.950 1_655 S
H114 C115 0.949 . S
C115 H114 0.949 . S
C115 C116 1.395 . S
C115 C117 1.391 1_554 S
C116 C115 1.395 . S
C116 C119 1.390 1_554 S
C117 C115 1.391 1_556 S
C117 C121 1.387 . S
C117 C122 1.491 . S
H118 C119 0.950 . S
C119 C116 1.390 1_556 S
C119 H118 0.950 . S
C119 C120 1.378 . S
C120 C119 1.378 . S
C120 C121 1.409 . S
C121 C117 1.387 . S
C121 C120 1.409 . S
C121 H123 0.951 . S
C122 C117 1.491 . S
C122 C124 1.382 1_556 S
C122 C126 1.404 1_545 S
H123 C121 0.951 . S
C124 C122 1.382 1_554 S
C124 C125 1.390 . S
C124 H129 0.949 . S
C125 C124 1.390 . S
C125 C130 1.399 1_554 S
C126 C122 1.404 1_565 S
C126 H127 0.950 . S
C126 C128 1.375 . S
H127 C126 0.950 . S
C128 C126 1.375 . S
C128 C130 1.382 1_565 S
C128 H132 0.950 . S
H129 C124 0.949 . S
C130 C125 1.399 1_556 S
C130 C128 1.382 1_545 S
C130 H131 0.948 1_546 S
H131 C130 0.948 1_564 S
H132 C128 0.950 . S
H133 C134 0.949 . S
C134 H133 0.949 . S
C134 C135 1.395 . S
C134 C136 1.391 . S
C135 C134 1.395 . S
C135 C138 1.390 . S
C136 C134 1.391 . S
C136 C140 1.387 1_554 S
C136 C141 1.491 . S
H137 C138 0.950 . S
C138 C135 1.390 . S
C138 H137 0.950 . S
C138 C139 1.378 1_554 S
C139 C138 1.378 1_556 S
C139 C140 1.409 . S
C140 C136 1.387 1_556 S
C140 C139 1.409 . S
C140 H142 0.951 . S
C141 C136 1.491 . S
C141 C143 1.382 . S
C141 C145 1.404 1_554 S
H142 C140 0.951 . S
C143 C141 1.382 . S
C143 C144 1.390 . S
C143 H148 0.949 . S
C144 C143 1.390 . S
C144 C149 1.399 . S
C145 C141 1.404 1_556 S
C145 H146 0.950 . S
C145 C147 1.375 1_556 S
H146 C145 0.950 . S
C147 C145 1.375 1_554 S
C147 C149 1.382 . S
C147 H151 0.950 1_554 S
H148 C143 0.949 . S
C149 C144 1.399 . S
C149 C147 1.382 . S
C149 H150 0.952 . S
H150 C149 0.952 . S
H151 C147 0.950 1_556 S
Eu152 C161 2.828 . S
Eu152 O163 2.392 . S
Eu152 O165 2.418 1_545 S
Eu152 O170 2.373 1_655 S
Eu152 O173 2.488 . S
Eu152 O174 2.471 . S
Eu152 O175 2.349 1_655 S
Eu153 O162 2.373 1_455 S
Eu153 O166 2.488 1_556 S
Eu153 O167 2.471 . S
Eu153 O168 2.349 . S
Eu153 O171 2.392 1_565 S
Eu153 O172 2.418 1_565 S
Eu153 C182 2.828 1_556 S
C154 O172 1.244 . S
C154 O175 1.265 . S
C155 C156 1.379 1_655 S
C155 C159 1.373 . S
C155 C161 1.505 . S
C156 C155 1.379 1_455 S
C156 C158 1.369 . S
C156 H184 0.930 . S
C157 C159 1.383 . S
C157 C160 1.382 1_655 S
C157 H185 0.930 . S
C158 C156 1.369 . S
C158 C160 1.392 . S
C158 H186 0.930 . S
C159 C155 1.373 . S
C159 C157 1.383 . S
C159 H187 0.931 . S
C160 C157 1.382 1_455 S
C160 C158 1.392 . S
C161 Eu152 2.828 . S
C161 C155 1.505 . S
C161 O173 1.249 . S
C161 O174 1.244 . S
O162 Eu153 2.373 1_655 S
O162 C164 1.258 1_565 S
O163 Eu152 2.392 . S
O163 C164 1.242 . S
C164 O162 1.258 1_545 S
C164 O163 1.242 . S
O165 Eu152 2.418 1_565 S
O165 C169 1.244 . S
O166 Eu153 2.488 1_554 S
O166 C182 1.249 . S
O167 Eu153 2.471 . S
O167 C182 1.244 1_556 S
O168 Eu153 2.349 . S
O168 C169 1.265 1_455 S
C169 O165 1.244 . S
C169 O168 1.265 1_655 S
O170 Eu152 2.373 1_455 S
O170 C183 1.258 . S
O171 Eu153 2.392 1_545 S
O171 C183 1.242 . S
O172 Eu153 2.418 1_545 S
O172 C154 1.244 . S
O173 Eu152 2.488 . S
O173 C161 1.249 . S
O174 Eu152 2.471 . S
O174 C161 1.244 . S
O175 Eu152 2.349 1_455 S
O175 C154 1.265 . S
C176 C177 1.379 . S
C176 C180 1.373 . S
C176 C182 1.505 . S
C177 C176 1.379 . S
C177 C179 1.369 . S
C177 H188 0.930 1_455 S
C178 C180 1.383 . S
C178 C181 1.382 . S
C178 H189 0.930 . S
C179 C177 1.369 . S
C179 C181 1.392 . S
C179 H190 0.930 1_455 S
C180 C176 1.373 . S
C180 C178 1.383 . S
C180 H191 0.931 . S
C181 C178 1.382 . S
C181 C179 1.392 . S
C182 Eu153 2.828 1_554 S
C182 O166 1.249 . S
C182 O167 1.244 1_554 S
C182 C176 1.505 . S
C183 O170 1.258 . S
C183 O171 1.242 . S
H184 C156 0.930 . S
H185 C157 0.930 . S
H186 C158 0.930 . S
H187 C159 0.931 . S
H188 C177 0.930 1_655 S
H189 C178 0.930 . S
H190 C179 0.930 1_655 S
H191 C180 0.931 . S
Eu192 C201 2.828 . S
Eu192 O203 2.392 . S
Eu192 O205 2.418 . S
Eu192 O210 2.373 . S
Eu192 O213 2.488 . S
Eu192 O214 2.471 . S
Eu192 O215 2.349 1_545 S
Eu193 O202 2.373 1_565 S
Eu193 O206 2.488 . S
Eu193 O207 2.471 1_565 S
Eu193 O208 2.349 1_565 S
Eu193 O211 2.392 . S
Eu193 O212 2.418 . S
Eu193 C222 2.828 . S
C194 O212 1.244 . S
C194 O215 1.265 . S
C195 C196 1.379 . S
C195 C199 1.373 . S
C195 C201 1.505 1_554 S
C196 C195 1.379 . S
C196 C198 1.369 . S
C196 H224 0.930 1_545 S
C197 C199 1.383 . S
C197 C200 1.382 . S
C197 H225 0.930 . S
C198 C196 1.369 . S
C198 C200 1.392 . S
C198 H226 0.930 1_545 S
C199 C195 1.373 . S
C199 C197 1.383 . S
C199 H227 0.931 . S
C200 C197 1.382 . S
C200 C198 1.392 . S
C201 Eu192 2.828 . S
C201 C195 1.505 1_556 S
C201 O213 1.249 . S
C201 O214 1.244 . S
O202 Eu193 2.373 1_545 S
O202 C204 1.258 . S
O203 Eu192 2.392 . S
O203 C204 1.242 . S
C204 O202 1.258 . S
C204 O203 1.242 . S
O205 Eu192 2.418 . S
O205 C209 1.244 . S
O206 Eu193 2.488 . S
O206 C222 1.249 . S
O207 Eu193 2.471 1_545 S
O207 C222 1.244 1_545 S
O208 Eu193 2.349 1_545 S
O208 C209 1.265 . S
C209 O205 1.244 . S
C209 O208 1.265 . S
O210 Eu192 2.373 . S
O210 C223 1.258 1_545 S
O211 Eu193 2.392 . S
O211 C223 1.242 . S
O212 Eu193 2.418 . S
O212 C194 1.244 . S
O213 Eu192 2.488 . S
O213 C201 1.249 . S
O214 Eu192 2.471 . S
O214 C201 1.244 . S
O215 Eu192 2.349 1_565 S
O215 C194 1.265 . S
C216 C217 1.379 1_565 S
C216 C220 1.373 . S
C216 C222 1.505 . S
C217 C216 1.379 1_545 S
C217 C219 1.369 . S
C217 H228 0.930 . S
C218 C220 1.383 . S
C218 C221 1.382 . S
C218 H229 0.930 . S
C219 C217 1.369 . S
C219 C221 1.392 1_545 S
C219 H230 0.930 . S
C220 C216 1.373 . S
C220 C218 1.383 . S
C220 H231 0.931 . S
C221 C218 1.382 . S
C221 C219 1.392 1_565 S
C222 Eu193 2.828 . S
C222 O206 1.249 . S
C222 O207 1.244 1_565 S
C222 C216 1.505 . S
C223 O210 1.258 1_565 S
C223 O211 1.242 . S
H224 C196 0.930 1_565 S
H225 C197 0.930 . S
H226 C198 0.930 1_565 S
H227 C199 0.931 . S
H228 C217 0.930 . S
H229 C218 0.930 . S
H230 C219 0.930 . S
H231 C220 0.931 . S
Eu232 C241 2.828 . S
Eu232 O243 2.392 . S
Eu232 O245 2.418 . S
Eu232 O250 2.373 . S
Eu232 O253 2.488 . S
Eu232 O254 2.471 . S
Eu232 O255 2.349 . S
Eu233 O242 2.373 . S
Eu233 O246 2.488 . S
Eu233 O247 2.471 . S
Eu233 O248 2.349 . S
Eu233 O251 2.392 . S
Eu233 O252 2.418 . S
Eu233 C262 2.828 . S
C234 O252 1.244 . S
C234 O255 1.265 . S
C235 C236 1.379 . S
C235 C239 1.373 . S
C235 C241 1.505 1_554 S
C236 C235 1.379 . S
C236 C238 1.369 . S
C236 H264 0.930 . S
C237 C239 1.383 . S
C237 C240 1.382 . S
C237 H265 0.930 . S
C238 C236 1.369 . S
C238 C240 1.392 . S
C238 H266 0.930 . S
C239 C235 1.373 . S
C239 C237 1.383 . S
C239 H267 0.931 . S
C240 C237 1.382 . S
C240 C238 1.392 . S
C241 Eu232 2.828 . S
C241 C235 1.505 1_556 S
C241 O253 1.249 . S
C241 O254 1.244 . S
O242 Eu233 2.373 . S
O242 C244 1.258 . S
O243 Eu232 2.392 . S
O243 C244 1.242 . S
C244 O242 1.258 . S
C244 O243 1.242 . S
O245 Eu232 2.418 . S
O245 C249 1.244 . S
O246 Eu233 2.488 . S
O246 C262 1.249 . S
O247 Eu233 2.471 . S
O247 C262 1.244 . S
O248 Eu233 2.349 . S
O248 C249 1.265 . S
C249 O245 1.244 . S
C249 O248 1.265 . S
O250 Eu232 2.373 . S
O250 C263 1.258 . S
O251 Eu233 2.392 . S
O251 C263 1.242 . S
O252 Eu233 2.418 . S
O252 C234 1.244 . S
O253 Eu232 2.488 . S
O253 C241 1.249 . S
O254 Eu232 2.471 . S
O254 C241 1.244 . S
O255 Eu232 2.349 . S
O255 C234 1.265 . S
C256 C257 1.379 . S
C256 C260 1.373 . S
C256 C262 1.505 . S
C257 C256 1.379 . S
C257 C259 1.369 . S
C257 H268 0.930 . S
C258 C260 1.383 . S
C258 C261 1.382 . S
C258 H269 0.930 . S
C259 C257 1.369 . S
C259 C261 1.392 . S
C259 H270 0.930 . S
C260 C256 1.373 . S
C260 C258 1.383 . S
C260 H271 0.931 . S
C261 C258 1.382 . S
C261 C259 1.392 . S
C262 Eu233 2.828 . S
C262 O246 1.249 . S
C262 O247 1.244 . S
C262 C256 1.505 . S
C263 O250 1.258 . S
C263 O251 1.242 . S
H264 C236 0.930 . S
H265 C237 0.930 . S
H266 C238 0.930 . S
H267 C239 0.931 . S
H268 C257 0.930 . S
H269 C258 0.930 . S
H270 C259 0.930 . S
H271 C260 0.931 . S
Eu272 C281 2.828 . S
Eu272 O283 2.392 . S
Eu272 O285 2.418 1_455 S
Eu272 O290 2.373 . S
Eu272 O293 2.488 . S
Eu272 O294 2.471 . S
Eu272 O295 2.349 . S
Eu273 O282 2.373 . S
Eu273 O286 2.488 1_556 S
Eu273 O287 2.471 . S
Eu273 O288 2.349 . S
Eu273 O291 2.392 1_655 S
Eu273 O292 2.418 1_655 S
Eu273 C302 2.828 1_556 S
C274 O292 1.244 . S
C274 O295 1.265 . S
C275 C276 1.379 . S
C275 C279 1.373 . S
C275 C281 1.505 . S
C276 C275 1.379 . S
C276 C278 1.369 . S
C276 H304 0.930 . S
C277 C279 1.383 . S
C277 C280 1.382 . S
C277 H305 0.930 . S
C278 C276 1.369 . S
C278 C280 1.392 . S
C278 H306 0.930 . S
C279 C275 1.373 . S
C279 C277 1.383 . S
C279 H307 0.931 . S
C280 C277 1.382 . S
C280 C278 1.392 . S
C281 Eu272 2.828 . S
C281 C275 1.505 . S
C281 O293 1.249 . S
C281 O294 1.244 . S
O282 Eu273 2.373 . S
O282 C284 1.258 1_655 S
O283 Eu272 2.392 . S
O283 C284 1.242 . S
C284 O282 1.258 1_455 S
C284 O283 1.242 . S
O285 Eu272 2.418 1_655 S
O285 C289 1.244 . S
O286 Eu273 2.488 1_554 S
O286 C302 1.249 . S
O287 Eu273 2.471 . S
O287 C302 1.244 1_556 S
O288 Eu273 2.349 . S
O288 C289 1.265 . S
C289 O285 1.244 . S
C289 O288 1.265 . S
O290 Eu272 2.373 . S
O290 C303 1.258 . S
O291 Eu273 2.392 1_455 S
O291 C303 1.242 . S
O292 Eu273 2.418 1_455 S
O292 C274 1.244 . S
O293 Eu272 2.488 . S
O293 C281 1.249 . S
O294 Eu272 2.471 . S
O294 C281 1.244 . S
O295 Eu272 2.349 . S
O295 C274 1.265 . S
C296 C297 1.379 . S
C296 C300 1.373 . S
C296 C302 1.505 . S
C297 C296 1.379 . S
C297 C299 1.369 . S
C297 H308 0.930 . S
C298 C300 1.383 . S
C298 C301 1.382 . S
C298 H309 0.930 . S
C299 C297 1.369 . S
C299 C301 1.392 . S
C299 H310 0.930 . S
C300 C296 1.373 . S
C300 C298 1.383 . S
C300 H311 0.931 . S
C301 C298 1.382 . S
C301 C299 1.392 . S
C302 Eu273 2.828 1_554 S
C302 O286 1.249 . S
C302 O287 1.244 1_554 S
C302 C296 1.505 . S
C303 O290 1.258 . S
C303 O291 1.242 . S
H304 C276 0.930 . S
H305 C277 0.930 . S
H306 C278 0.930 . S
H307 C279 0.931 . S
H308 C297 0.930 . S
H309 C298 0.930 . S
H310 C299 0.930 . S
H311 C300 0.931 . S
C312 C313 1.387 . S
C312 H316 0.950 . S
C312 C321 1.390 . S
C313 C312 1.387 . S
C313 C315 1.387 . S
H314 C321 0.950 . S
C315 C313 1.387 . S
C315 C317 1.388 1_545 S
C315 H319 0.950 1_545 S
H316 C312 0.950 . S
C317 C315 1.388 1_565 S
C317 C318 1.360 1_565 S
C317 H320 0.979 . S
C318 C317 1.360 1_545 S
C318 C321 1.387 . S
H319 C315 0.950 1_565 S
H320 C317 0.979 . S
C321 C312 1.390 . S
C321 H314 0.950 . S
C321 C318 1.387 . S
C322 C323 1.387 . S
C322 H326 0.950 . S
C322 C331 1.390 . S
C323 C322 1.387 . S
C323 C325 1.387 . S
H324 C331 0.950 . S
C325 C323 1.387 . S
C325 C327 1.390 . S
C325 H329 0.950 . S
H326 C322 0.950 . S
C327 C325 1.390 . S
C327 C328 1.387 . S
C327 H330 0.950 . S
C328 C327 1.387 . S
C328 C331 1.387 . S
H329 C325 0.950 . S
H330 C327 0.950 . S
C331 C322 1.390 . S
C331 H324 0.950 . S
C331 C328 1.387 . S
C332 C333 1.387 . S
C332 H336 0.950 . S
C332 C341 1.390 . S
C333 C332 1.387 . S
C333 C335 1.387 . S
H334 C341 0.950 . S
C335 C333 1.387 . S
C335 C337 1.390 . S
C335 H339 0.950 . S
H336 C332 0.950 . S
C337 C335 1.390 . S
C337 C338 1.387 . S
C337 H340 0.950 . S
C338 C337 1.387 . S
C338 C341 1.387 . S
H339 C335 0.950 . S
H340 C337 0.950 . S
C341 C332 1.390 . S
C341 H334 0.950 . S
C341 C338 1.387 . S
C342 C343 1.387 . S
C342 H346 0.950 . S
C342 C351 1.390 . S
C343 C342 1.387 . S
C343 C345 1.387 . S
H344 C351 0.950 1_655 S
C345 C343 1.387 . S
C345 C347 1.390 . S
C345 H349 0.950 . S
H346 C342 0.950 . S
C347 C345 1.390 . S
C347 C348 1.387 . S
C347 H350 0.950 . S
C348 C347 1.387 . S
C348 C351 1.387 . S
H349 C345 0.950 . S
H350 C347 0.950 . S
C351 C342 1.390 . S
C351 H344 0.950 1_455 S
C351 C348 1.387 . S
C352 C353 1.387 . S
C352 H356 0.950 . S
C352 C361 1.390 . S
C353 C352 1.387 . S
C353 C355 1.387 1_565 S
H354 C361 0.950 . S
C355 C353 1.387 1_545 S
C355 C357 1.390 . S
C355 H359 0.950 . S
H356 C352 0.950 . S
C357 C355 1.390 . S
C357 C358 1.387 1_545 S
C357 H360 0.950 . S
C358 C357 1.387 1_565 S
C358 C361 1.387 . S
H359 C355 0.950 . S
H360 C357 0.950 . S
C361 C352 1.390 . S
C361 H354 0.950 . S
C361 C358 1.387 . S
C362 C363 1.387 . S
C362 H366 0.950 . S
C362 C371 1.390 . S
C363 C362 1.387 . S
C363 C365 1.387 . S
H364 C371 0.950 . S
C365 C363 1.387 . S
C365 C367 1.390 . S
C365 H369 0.950 . S
H366 C362 0.950 . S
C367 C365 1.390 . S
C367 C368 1.387 1_554 S
C367 H370 0.950 1_554 S
C368 C367 1.387 1_556 S
C368 C371 1.387 1_556 S
H369 C365 0.950 . S
H370 C367 0.950 1_556 S
C371 C362 1.390 . S
C371 H364 0.950 . S
C371 C368 1.387 1_554 S
C372 C373 1.387 . S
C372 H376 0.950 . S
C372 C381 1.390 . S
C373 C372 1.387 . S
C373 C375 1.387 . S
H374 C381 0.950 . S
C375 C373 1.387 . S
C375 C377 1.390 . S
C375 H379 0.950 . S
H376 C372 0.950 . S
C377 C375 1.390 . S
C377 C378 1.387 1_554 S
C377 H380 0.950 1_554 S
C378 C377 1.387 1_556 S
C378 C381 1.387 1_556 S
H379 C375 0.950 . S
H380 C377 0.950 1_556 S
C381 C372 1.390 . S
C381 H374 0.950 . S
C381 C378 1.387 1_554 S
C382 C383 1.387 . S
C382 H386 0.950 . S
C382 C391 1.390 . S
C383 C382 1.387 . S
C383 C385 1.387 1_655 S
H384 C391 0.950 1_556 S
C385 C383 1.387 1_455 S
C385 C387 1.390 . S
C385 H389 0.950 . S
H386 C382 0.950 . S
C387 C385 1.390 . S
C387 C388 1.387 1_455 S
C387 H390 0.950 . S
C388 C387 1.387 1_655 S
C388 C391 1.387 . S
H389 C385 0.950 . S
H390 C387 0.950 . S
C391 C382 1.390 . S
C391 H384 0.950 1_554 S
C391 C388 1.387 . S
C392 C393 1.387 . S
C392 H396 0.950 . S
C392 C401 1.390 . S
C393 C392 1.387 . S
C393 C395 1.387 . S
H394 C401 0.950 . S
C395 C393 1.387 . S
C395 C397 1.390 . S
C395 H399 0.950 1_554 S
H396 C392 0.950 . S
C397 C395 1.390 . S
C397 C398 1.387 . S
C397 H400 0.950 1_554 S
C398 C397 1.387 . S
C398 C401 1.387 . S
H399 C395 0.950 1_556 S
H400 C397 0.950 1_556 S
C401 C392 1.390 . S
C401 H394 0.950 . S
C401 C398 1.387 . S
C402 C403 1.387 . S
C402 H406 0.950 . S
C402 C411 1.390 . S
C403 C402 1.387 . S
C403 C405 1.387 . S
H404 C411 0.949 1_565 S
C405 C403 1.387 . S
C405 C407 1.390 1_545 S
C405 H409 0.950 . S
H406 C402 0.950 . S
C407 C405 1.390 1_565 S
C407 C408 1.387 . S
C407 H410 0.950 . S
C408 C407 1.387 . S
C408 C411 1.387 1_565 S
H409 C405 0.950 . S
H410 C407 0.950 . S
C411 C402 1.390 . S
C411 H404 0.949 1_545 S
C411 C408 1.387 1_545 S
C412 C413 1.387 . S
C412 H416 0.950 . S
C412 C421 1.390 . S
C413 C412 1.387 . S
C413 C415 1.387 . S
H414 C421 0.950 . S
C415 C413 1.387 . S
C415 C417 1.390 . S
C415 H419 0.950 . S
H416 C412 0.950 . S
C417 C415 1.390 . S
C417 C418 1.387 . S
C417 H420 0.950 . S
C418 C417 1.387 . S
C418 C421 1.387 . S
H419 C415 0.950 . S
H420 C417 0.950 . S
C421 C412 1.390 . S
C421 H414 0.950 . S
C421 C418 1.387 . S
C422 C423 1.387 . S
C422 H426 0.950 . S
C422 C431 1.390 . S
C423 C422 1.387 . S
C423 C425 1.387 . S
H424 C431 0.950 . S
C425 C423 1.387 . S
C425 C427 1.390 . S
C425 H429 0.950 . S
H426 C422 0.950 . S
C427 C425 1.390 . S
C427 C428 1.387 . S
C427 H430 0.950 . S
C428 C427 1.387 . S
C428 C431 1.387 . S
H429 C425 0.950 . S
H430 C427 0.950 . S
C431 C422 1.390 . S
C431 H424 0.950 . S
C431 C428 1.387 . S
C432 C433 1.387 . S
C432 H436 0.950 . S
C432 C441 1.390 1_655 S
C433 C432 1.387 . S
C433 C435 1.387 . S
H434 C441 0.950 . S
C435 C433 1.387 . S
C435 C437 1.390 1_655 S
C435 H439 0.950 . S
H436 C432 0.950 . S
C437 C435 1.390 1_455 S
C437 C438 1.387 . S
C437 H440 0.950 . S
C438 C437 1.387 . S
C438 C441 1.387 . S
H439 C435 0.950 . S
H440 C437 0.950 . S
C441 C432 1.390 1_455 S
C441 H434 0.950 . S
C441 C438 1.387 . S
C442 C443 1.387 . S
C442 H446 0.950 . S
C442 C451 1.390 1_565 S
C443 C442 1.387 . S
C443 C445 1.387 1_565 S
H444 C451 0.951 . S
C445 C443 1.387 1_545 S
C445 C447 1.390 . S
C445 H449 0.950 . S
H446 C442 0.950 . S
C447 C445 1.390 . S
C447 C448 1.387 . S
C447 H450 0.950 . S
C448 C447 1.387 . S
C448 C451 1.387 . S
H449 C445 0.950 . S
H450 C447 0.950 . S
C451 C442 1.390 1_545 S
C451 H444 0.951 . S
C451 C448 1.387 . S
C452 C453 1.387 . S
C452 H456 0.950 . S
C452 C461 1.390 . S
C453 C452 1.387 . S
C453 C455 1.387 . S
H454 C461 0.950 . S
C455 C453 1.387 . S
C455 C457 1.390 . S
C455 H459 0.950 . S
H456 C452 0.950 . S
C457 C455 1.390 . S
C457 C458 1.387 . S
C457 H460 0.950 . S
C458 C457 1.387 . S
C458 C461 1.387 . S
H459 C455 0.950 . S
H460 C457 0.950 . S
C461 C452 1.390 . S
C461 H454 0.950 . S
C461 C458 1.387 . S
C462 C463 1.387 . S
C462 H466 0.950 . S
C462 C471 1.390 . S
C463 C462 1.387 . S
C463 C465 1.387 . S
H464 C471 0.950 . S
C465 C463 1.387 . S
C465 C467 1.390 . S
C465 H469 0.950 . S
H466 C462 0.950 . S
C467 C465 1.390 . S
C467 C468 1.387 . S
C467 H470 0.950 . S
C468 C467 1.387 . S
C468 C471 1.387 . S
H469 C465 0.950 . S
H470 C467 0.950 . S
C471 C462 1.390 . S
C471 H464 0.950 . S
C471 C468 1.387 . S
C472 C473 1.387 . S
C472 H476 0.950 . S
C472 C481 1.390 . S
C473 C472 1.387 . S
C473 C475 1.387 . S
H474 C481 0.950 . S
C475 C473 1.387 . S
C475 C477 1.390 . S
C475 H479 0.950 1_556 S
H476 C472 0.950 . S
C477 C475 1.390 . S
C477 C478 1.387 . S
C477 H480 0.950 1_556 S
C478 C477 1.387 . S
C478 C481 1.387 . S
H479 C475 0.950 1_554 S
H480 C477 0.950 1_554 S
C481 C472 1.390 . S
C481 H474 0.950 . S
C481 C478 1.387 . S
C482 C483 1.387 . S
C482 H486 0.950 . S
C482 C491 1.390 . S
C483 C482 1.387 . S
C483 C485 1.387 . S
H484 C491 0.950 . S
C485 C483 1.387 . S
C485 C487 1.390 . S
C485 H489 0.950 1_545 S
H486 C482 0.950 . S
C487 C485 1.390 . S
C487 C488 1.387 . S
C487 H490 0.950 1_545 S
C488 C487 1.387 . S
C488 C491 1.387 . S
H489 C485 0.950 1_565 S
H490 C487 0.950 1_565 S
C491 C482 1.390 . S
C491 H484 0.950 . S
C491 C488 1.387 . S
C492 C493 1.387 . S
C492 H496 0.950 . S
C492 C501 1.390 . S
C493 C492 1.387 . S
C493 C495 1.387 . S
H494 C501 0.950 . S
C495 C493 1.387 . S
C495 C497 1.390 . S
C495 H499 0.950 1_556 S
H496 C492 0.950 . S
C497 C495 1.390 . S
C497 C498 1.387 . S
C497 H500 0.950 1_556 S
C498 C497 1.387 . S
C498 C501 1.387 . S
H499 C495 0.950 1_554 S
H500 C497 0.950 1_554 S
C501 C492 1.390 . S
C501 H494 0.950 . S
C501 C498 1.387 . S
C502 C503 1.387 . S
C502 H506 0.950 1_556 S
C502 C511 1.390 . S
C503 C502 1.387 . S
C503 C505 1.387 . S
H504 C511 0.950 1_554 S
C505 C503 1.387 . S
C505 C507 1.390 . S
C505 H509 0.950 . S
H506 C502 0.950 1_554 S
C507 C505 1.390 . S
C507 C508 1.387 . S
C507 H510 0.950 . S
C508 C507 1.387 . S
C508 C511 1.387 . S
H509 C505 0.950 . S
H510 C507 0.950 . S
C511 C502 1.390 . S
C511 H504 0.950 1_556 S
C511 C508 1.387 . S
C512 C513 1.387 . S
C512 H516 0.950 . S
C512 C521 1.390 . S
C513 C512 1.387 . S
C513 C515 1.387 . S
H514 C521 0.950 . S
C515 C513 1.387 . S
C515 C517 1.390 . S
C515 H519 0.950 . S
H516 C512 0.950 . S
C517 C515 1.390 . S
C517 C518 1.387 . S
C517 H520 0.950 . S
C518 C517 1.387 . S
C518 C521 1.387 . S
H519 C515 0.950 . S
H520 C517 0.950 . S
C521 C512 1.390 . S
C521 H514 0.950 . S
C521 C518 1.387 . S
C522 C523 1.387 1_545 S
C522 H526 0.950 . S
C522 C531 1.390 . S
C523 C522 1.387 1_565 S
C523 C525 1.387 . S
H524 C531 0.950 . S
C525 C523 1.387 . S
C525 C527 1.390 . S
C525 H529 0.950 . S
H526 C522 0.950 . S
C527 C525 1.390 . S
C527 C528 1.387 . S
C527 H530 0.950 . S
C528 C527 1.387 . S
C528 C531 1.387 1_565 S
H529 C525 0.950 . S
H530 C527 0.950 . S
C531 C522 1.390 . S
C531 H524 0.950 . S
C531 C528 1.387 1_545 S
C532 C533 1.387 . S
C532 H536 0.950 . S
C532 C541 1.390 . S
C533 C532 1.387 . S
C533 C535 1.387 . S
H534 C541 0.950 . S
C535 C533 1.387 . S
C535 C537 1.390 . S
C535 H539 0.950 . S
H536 C532 0.950 . S
C537 C535 1.390 . S
C537 C538 1.387 . S
C537 H540 0.950 . S
C538 C537 1.387 . S
C538 C541 1.387 . S
H539 C535 0.950 . S
H540 C537 0.950 . S
C541 C532 1.390 . S
C541 H534 0.950 . S
C541 C538 1.387 . S
C542 C543 1.387 . S
C542 H546 0.950 . S
C542 C551 1.390 . S
C543 C542 1.387 . S
C543 C545 1.387 . S
H544 C551 0.950 . S
C545 C543 1.387 . S
C545 C547 1.390 . S
C545 H549 0.950 . S
H546 C542 0.950 . S
C547 C545 1.390 . S
C547 C548 1.387 . S
C547 H550 0.950 . S
C548 C547 1.387 . S
C548 C551 1.387 . S
H549 C545 0.950 . S
H550 C547 0.950 . S
C551 C542 1.390 . S
C551 H544 0.950 . S
C551 C548 1.387 . S
C313 C125 2.409 . S
C318 C183 2.446 . S
C328 C209 2.159 . S
C323 C144 2.138 . S
C338 C249 2.154 . S
C333 C87 2.075 . S
C348 C303 2.440 . S
C343 C106 2.370 . S
C358 C164 2.447 1_564 S
C353 C49 2.450 . S
C363 C68 2.082 . S
C368 C194 2.160 . S
C373 C11 2.117 . S
C378 C234 2.153 . S
C383 C30 2.444 . S
C388 C284 2.441 1_654 S
C398 C160 0.923 . S
C393 C97 0.892 . S
C408 C221 0.920 . S
C403 C116 0.925 . S
C418 C261 0.768 . S
C413 C135 0.768 . S
C423 C78 0.816 . S
C428 C280 0.835 . S
C433 C21 0.892 . S
C438 C181 0.922 . S
C448 C200 0.917 . S
C443 C40 0.926 . S
C458 C240 0.767 . S
C453 C59 0.764 . S
C463 C2 0.817 . S
C468 C301 0.835 . S
C473 C101 2.094 . S
C478 C154 2.410 . S
C483 C120 2.435 . S
C488 C204 2.699 . S
C498 C244 2.505 . S
C493 C139 2.266 . S
C508 C274 2.192 . S
C503 C82 1.908 . S
C513 C25 2.098 . S
C518 C169 2.411 . S
C528 C223 2.699 . S
C523 C44 2.436 . S
C538 C263 2.504 . S
C533 C63 2.260 . S
C543 C6 1.909 . S
C548 C289 2.191 . S
