# Generated by pormake.
# Topology zzz, (3,6)-cn, num edge types: 1
# Building blocks:
#     Node 0, Type 0, BuildingBlock: BETDAH_clean_linker_0, # of connection points: 3
#     Node 1, Type 0, BuildingBlock: BETDAH_clean_linker_0, # of connection points: 3
#     Node 2, Type 0, BuildingBlock: BETDAH_clean_linker_0, # of connection points: 3
#     Node 3, Type 0, BuildingBlock: BETDAH_clean_linker_0, # of connection points: 3
#     Node 4, Type 0, BuildingBlock: BETDAH_clean_linker_0, # of connection points: 3
#     Node 5, Type 0, BuildingBlock: BETDAH_clean_linker_0, # of connection points: 3
#     Node 6, Type 0, BuildingBlock: BETDAH_clean_linker_0, # of connection points: 3
#     Node 7, Type 0, BuildingBlock: BETDAH_clean_linker_0, # of connection points: 3
#     Node 8, Type 1, BuildingBlock: VOLQOD_clean_sbu_1, # of connection points: 6
#     Node 9, Type 1, BuildingBlock: VOLQOD_clean_sbu_1, # of connection points: 6
#     Node 10, Type 1, BuildingBlock: VOLQOD_clean_sbu_1, # of connection points: 6
#     Node 11, Type 1, BuildingBlock: VOLQOD_clean_sbu_1, # of connection points: 6
#     Edge 12, Type (0, 1), BuildingBlock: XIVTED_clean_linker_0, # of connection points: 2
#     Edge 13, Type (0, 1), BuildingBlock: XIVTED_clean_linker_0, # of connection points: 2
#     Edge 14, Type (0, 1), BuildingBlock: XIVTED_clean_linker_0, # of connection points: 2
#     Edge 15, Type (0, 1), BuildingBlock: XIVTED_clean_linker_0, # of connection points: 2
#     Edge 16, Type (0, 1), BuildingBlock: XIVTED_clean_linker_0, # of connection points: 2
#     Edge 17, Type (0, 1), BuildingBlock: XIVTED_clean_linker_0, # of connection points: 2
#     Edge 18, Type (0, 1), BuildingBlock: XIVTED_clean_linker_0, # of connection points: 2
#     Edge 19, Type (0, 1), BuildingBlock: XIVTED_clean_linker_0, # of connection points: 2
#     Edge 20, Type (0, 1), BuildingBlock: XIVTED_clean_linker_0, # of connection points: 2
#     Edge 21, Type (0, 1), BuildingBlock: XIVTED_clean_linker_0, # of connection points: 2
#     Edge 22, Type (0, 1), BuildingBlock: XIVTED_clean_linker_0, # of connection points: 2
#     Edge 23, Type (0, 1), BuildingBlock: XIVTED_clean_linker_0, # of connection points: 2
#     Edge 24, Type (0, 1), BuildingBlock: XIVTED_clean_linker_0, # of connection points: 2
#     Edge 25, Type (0, 1), BuildingBlock: XIVTED_clean_linker_0, # of connection points: 2
#     Edge 26, Type (0, 1), BuildingBlock: XIVTED_clean_linker_0, # of connection points: 2
#     Edge 27, Type (0, 1), BuildingBlock: XIVTED_clean_linker_0, # of connection points: 2
#     Edge 28, Type (0, 1), BuildingBlock: XIVTED_clean_linker_0, # of connection points: 2
#     Edge 29, Type (0, 1), BuildingBlock: XIVTED_clean_linker_0, # of connection points: 2
#     Edge 30, Type (0, 1), BuildingBlock: XIVTED_clean_linker_0, # of connection points: 2
#     Edge 31, Type (0, 1), BuildingBlock: XIVTED_clean_linker_0, # of connection points: 2
#     Edge 32, Type (0, 1), BuildingBlock: XIVTED_clean_linker_0, # of connection points: 2
#     Edge 33, Type (0, 1), BuildingBlock: XIVTED_clean_linker_0, # of connection points: 2
#     Edge 34, Type (0, 1), BuildingBlock: XIVTED_clean_linker_0, # of connection points: 2
#     Edge 35, Type (0, 1), BuildingBlock: XIVTED_clean_linker_0, # of connection points: 2
# Relax obj value: 0.197
# Max RMSD: 0.236
# Mean RMSD: 0.111
data_MOF--net-zzz--node1-VOLQOD_clean_sbu_1--node2-BETDAH_clean_linker_0--edge1-XIVTED_clean_linker_0
_symmetry_space_group_name_H-M    P1
_symmetry_Int_Tables_number       1
_symmetry_cell_setting            triclinic
loop_
_symmetry_equiv_pos_as_xyz
'x, y, z'
_cell_length_a     51.165759
_cell_length_b     50.778396
_cell_length_c     17.882796
_cell_angle_alpha  90.154125
_cell_angle_beta   89.675425
_cell_angle_gamma 90.854757
loop_
_atom_site_label
_atom_site_type_symbol
_atom_site_fract_x
_atom_site_fract_y
_atom_site_fract_z
_atom_type_partial_charge
H0 H 0.85251 0.50676 0.13795 0.0
H1 H 0.77485 0.50261 0.04922 0.0
H2 H 0.79125 0.5507 0.24331 0.0
C3 C 0.8323 0.51292 0.1401 0.0
C4 C 0.82425 0.53042 0.19594 0.0
C5 C 0.81459 0.5027 0.0878 0.0
C6 C 0.78842 0.51046 0.0902 0.0
C7 C 0.7799 0.52778 0.14693 0.0
C8 C 0.79787 0.53751 0.19963 0.0
N9 N 0.75344 0.53554 0.15352 0.0
C10 C 0.73409 0.52865 0.10264 0.0
H11 H 0.01983 0.83562 0.10854 0.0
H12 H 0.0144 0.75704 0.02174 0.0
H13 H 0.98433 0.77453 0.24206 0.0
C14 C 0.01485 0.81501 0.11712 0.0
C15 C 1.0021 0.80729 0.18311 0.0
C16 C 0.01957 0.79709 0.05926 0.0
C17 C 0.01133 0.77075 0.06729 0.0
C18 C 0.99882 0.76252 0.13409 0.0
C19 C 0.9942 0.78089 0.19131 0.0
N20 N 0.99008 0.73618 0.14552 0.0
C21 C 0.99324 0.71578 0.09454 0.0
H22 H 0.67082 0.03944 0.12028 0.0
H23 H 0.74863 0.03997 0.03046 0.0
H24 H 0.73412 0.01234 0.25522 0.0
C25 C 0.69159 0.03661 0.12839 0.0
C26 C 0.70033 0.02574 0.1954 0.0
C27 C 0.70879 0.04196 0.06913 0.0
C28 C 0.73542 0.03638 0.07698 0.0
C29 C 0.74468 0.02603 0.14501 0.0
C30 C 0.72702 0.02071 0.20362 0.0
N31 N 0.77141 0.0202 0.15621 0.0
C32 C 0.79034 0.0212 0.10034 0.0
H33 H 0.4866 0.66852 0.1262 0.0
H34 H 0.4888 0.74777 0.04497 0.0
H35 H 0.51849 0.73021 0.26454 0.0
C36 C 0.49052 0.68928 0.13631 0.0
C37 C 0.50262 0.69711 0.20286 0.0
C38 C 0.48531 0.70735 0.07967 0.0
C39 C 0.49226 0.73394 0.08971 0.0
C40 C 0.50395 0.74232 0.15732 0.0
C41 C 0.50913 0.7238 0.2133 0.0
N42 N 0.51132 0.769 0.17032 0.0
C43 C 0.50947 0.78869 0.117 0.0
H44 H 0.17949 0.52373 0.2398 0.0
H45 H 0.25965 0.5286 0.30676 0.0
H46 H 0.23941 0.49589 0.09143 0.0
C47 C 0.19999 0.52131 0.22612 0.0
C48 C 0.207 0.50935 0.15851 0.0
C49 C 0.21877 0.5287 0.27902 0.0
C50 C 0.2452 0.52348 0.26499 0.0
C51 C 0.25265 0.51174 0.19658 0.0
C52 C 0.23353 0.50496 0.14369 0.0
N53 N 0.27906 0.50613 0.17909 0.0
C54 C 0.29918 0.5064 0.23083 0.0
H55 H 0.04922 0.16652 0.16867 0.0
H56 H 0.04404 0.24442 0.25986 0.0
H57 H 0.09426 0.22962 0.06994 0.0
C58 C 0.05534 0.18706 0.16798 0.0
C59 C 0.07343 0.19575 0.11414 0.0
C60 C 0.04444 0.20451 0.21978 0.0
C61 C 0.05237 0.23105 0.21925 0.0
C62 C 0.07042 0.24023 0.16488 0.0
C63 C 0.08066 0.22251 0.11224 0.0
N64 N 0.07832 0.26712 0.16086 0.0
C65 C 0.07041 0.28605 0.21211 0.0
H66 H 0.34451 0.02845 0.19291 0.0
H67 H 0.26863 0.02794 0.29625 0.0
H68 H 0.28619 0.08177 0.11566 0.0
C69 C 0.32492 0.03626 0.19675 0.0
C70 C 0.31766 0.05659 0.14891 0.0
C71 C 0.30732 0.0257 0.24924 0.0
C72 C 0.28205 0.03588 0.25472 0.0
C73 C 0.2743 0.05612 0.20597 0.0
C74 C 0.29218 0.0663 0.15325 0.0
N75 N 0.24877 0.06663 0.20815 0.0
C76 C 0.22848 0.05623 0.25131 0.0
H77 H 0.48115 0.33946 0.2069 0.0
H78 H 0.4747 0.2633 0.30906 0.0
H79 H 0.42623 0.28244 0.12042 0.0
C80 C 0.47203 0.32005 0.20934 0.0
C81 C 0.45246 0.31332 0.15815 0.0
C82 C 0.48029 0.30205 0.26309 0.0
C83 C 0.46848 0.277 0.26665 0.0
C84 C 0.44893 0.26979 0.21472 0.0
C85 C 0.44111 0.28802 0.16062 0.0
N86 N 0.43688 0.24442 0.21493 0.0
C87 C 0.44533 0.22365 0.25856 0.0
O88 O 0.06819 1.00311 0.60732 0.0
Zn89 Zn 0.04011 1.00097 0.68783 0.0
O90 O 0.0054 0.00814 0.64393 0.0
Zn91 Zn 0.99094 0.03988 0.68692 0.0
Zn92 Zn 0.00831 0.01292 0.53645 0.0
Zn93 Zn 0.98107 0.97907 0.66288 0.0
O94 O 0.95832 0.03245 0.7472 0.0
O95 O 0.95018 0.99004 0.72574 0.0
O96 O 0.05068 0.02951 0.76302 0.0
O97 O 0.01771 0.05721 0.75083 0.0
O98 O 0.9829 0.06695 0.60936 0.0
O99 O 0.99368 0.04745 0.50279 0.0
O100 O 0.99132 0.98302 0.48147 0.0
O101 O 0.04084 0.96411 0.73369 0.0
O102 O 0.96914 0.96106 0.56852 0.0
O103 O 0.99981 0.95062 0.71545 0.0
C104 C 0.06744 0.00865 0.53789 0.0
C105 C 0.94413 0.01186 0.75613 0.0
C106 C 0.98497 0.06721 0.53851 0.0
C107 C 0.03993 0.05149 0.77721 0.0
C108 C 0.97621 0.96408 0.50074 0.0
C109 C 0.02285 0.94647 0.73855 0.0
O110 O 0.04592 0.01313 0.50534 0.0
O111 O 0.50127 0.06564 0.61487 0.0
Zn112 Zn 0.50651 0.03827 0.6958 0.0
O113 O 0.50143 1.00243 0.65394 0.0
Zn114 Zn 0.47111 0.98536 0.69898 0.0
Zn115 Zn 0.49602 0.00403 0.54678 0.0
Zn116 Zn 0.53193 0.98096 0.67208 0.0
O117 O 0.48105 0.95373 0.75965 0.0
O118 O 0.52336 0.94911 0.73537 0.0
O119 O 0.47871 0.04629 0.7744 0.0
O120 O 0.45272 0.01096 0.76414 0.0
O121 O 0.4447 0.97393 0.62263 0.0
O122 O 0.46374 0.98401 0.51453 0.0
O123 O 0.5275 0.9914 0.49161 0.0
O124 O 0.54323 0.04301 0.73856 0.0
O125 O 0.55064 0.97084 0.57731 0.0
O126 O 0.5589 1.0027 0.72425 0.0
C127 C 0.4945 0.06378 0.54652 0.0
C128 C 0.50233 0.94134 0.76747 0.0
C129 C 0.44464 0.97418 0.55155 0.0
C130 C 0.45767 0.03374 0.79065 0.0
C131 C 0.54742 0.97827 0.51016 0.0
C132 C 0.56168 0.02654 0.74506 0.0
O133 O 0.49127 0.04145 0.51517 0.0
O134 O 0.45485 0.50143 0.62825 0.0
Zn135 Zn 0.48258 0.504 0.70845 0.0
O136 O 0.51767 0.49879 0.66392 0.0
Zn137 Zn 0.53495 0.46914 0.71069 0.0
Zn138 Zn 0.51496 0.49224 0.55699 0.0
Zn139 Zn 0.53925 0.53013 0.67782 0.0
O140 O 0.56764 0.48048 0.7671 0.0
O141 O 0.57115 0.52287 0.73796 0.0
O142 O 0.47389 0.47526 0.78439 0.0
O143 O 0.50982 0.45112 0.77981 0.0
O144 O 0.54407 0.44113 0.63539 0.0
O145 O 0.5313 0.45804 0.52743 0.0
O146 O 0.53021 0.5221 0.49708 0.0
O147 O 0.47945 0.54057 0.75459 0.0
O148 O 0.5494 0.5476 0.58163 0.0
O149 O 0.51875 0.55766 0.72983 0.0
C150 C 0.45577 0.49542 0.55907 0.0
C151 C 0.57973 0.50259 0.77092 0.0
C152 C 0.54149 0.43955 0.56479 0.0
C153 C 0.48677 0.45511 0.8039 0.0
C154 C 0.54325 0.54275 0.51421 0.0
C155 C 0.49573 0.55984 0.75601 0.0
O156 O 0.47737 0.49057 0.52659 0.0
O157 O 0.98831 0.53052 0.56261 0.0
Zn158 Zn 0.01674 0.52462 0.64031 0.0
O159 O 0.01333 0.48902 0.68496 0.0
Zn160 Zn 0.00557 0.49154 0.79128 0.0
Zn161 Zn 0.98569 0.46862 0.63611 0.0
Zn162 Zn 0.04576 0.47016 0.67353 0.0
O163 O 0.03504 0.47821 0.85338 0.0
O164 O 0.06174 0.46007 0.77089 0.0
O165 O 0.01141 0.55247 0.72007 0.0
O166 O 1.0014 0.52931 0.82165 0.0
O167 O 0.97242 0.47206 0.81768 0.0
O168 O 0.95818 0.45599 0.70941 0.0
O169 O 0.99982 0.43783 0.57601 0.0
O170 O 0.05333 0.53109 0.59734 0.0
O171 O 0.04168 0.43844 0.60802 0.0
O172 O 0.07257 0.49368 0.62721 0.0
C173 C 0.96903 0.51574 0.54398 0.0
C174 C 0.05588 0.46592 0.83797 0.0
C175 C 0.95557 0.45919 0.77965 0.0
C176 C 0.00494 0.55132 0.78892 0.0
C177 C 0.02268 0.42822 0.57201 0.0
C178 C 0.07359 0.51676 0.59995 0.0
O179 O 0.96639 0.49239 0.56871 0.0
H180 H 0.22675 0.04409 0.39855 0.0
H181 H 0.07287 0.01372 0.38658 0.0
H182 H 0.18051 0.04558 0.19818 0.0
H183 H 0.11805 0.01016 0.58947 0.0
H184 H 0.11287 0.02231 0.31609 0.0
H185 H 0.18801 0.02889 0.46922 0.0
C186 C 0.20839 0.04103 0.36967 0.0
C187 C 0.20647 0.04607 0.29307 0.0
C188 C 0.11413 0.01951 0.37596 0.0
C189 C 0.1624 0.0289 0.37249 0.0
C190 C 0.09124 0.01459 0.41638 0.0
C191 C 0.09202 0.01143 0.4943 0.0
C192 C 0.1381 0.02148 0.41352 0.0
C193 C 0.11649 0.01255 0.52954 0.0
C194 C 0.18635 0.03237 0.40974 0.0
C195 C 0.18253 0.0419 0.25749 0.0
N196 N 0.13855 0.01771 0.48895 0.0
N197 N 0.16135 0.03364 0.29758 0.0
H198 H 0.46095 0.22317 0.40288 0.0
H199 H 0.48229 0.06714 0.39823 0.0
H200 H 0.449 0.17377 0.20957 0.0
H201 H 0.49475 0.11538 0.5945 0.0
H202 H 0.47164 0.10643 0.32779 0.0
H203 H 0.47479 0.18442 0.47389 0.0
C204 C 0.46133 0.20409 0.37564 0.0
C205 C 0.45388 0.20134 0.30087 0.0
C206 C 0.47678 0.10849 0.3862 0.0
C207 C 0.46952 0.15724 0.38074 0.0
C208 C 0.48289 0.08601 0.42661 0.0
C209 C 0.48935 0.08788 0.50269 0.0
C210 C 0.47701 0.13315 0.42187 0.0
C211 C 0.48986 0.11296 0.53605 0.0
C212 C 0.4692 0.18204 0.41592 0.0
C213 C 0.45462 0.17647 0.26743 0.0
N214 N 0.48366 0.13461 0.49549 0.0
N215 N 0.46227 0.15531 0.30766 0.0
H216 H 0.34795 0.49448 0.1896 0.0
H217 H 0.40576 0.50746 0.60394 0.0
H218 H 0.30066 0.51454 0.38085 0.0
H219 H 0.45066 0.48368 0.41058 0.0
H220 H 0.3669 0.50992 0.52504 0.0
H221 H 0.38592 0.49067 0.27116 0.0
C222 C 0.34572 0.49815 0.24901 0.0
C223 C 0.32147 0.5049 0.27908 0.0
C224 C 0.38526 0.50407 0.5001 0.0
C225 C 0.3645 0.50051 0.3728 0.0
C226 C 0.40745 0.5026 0.54512 0.0
C227 C 0.43158 0.49542 0.51391 0.0
C228 C 0.38725 0.49837 0.42337 0.0
C229 C 0.43255 0.48938 0.43727 0.0
C230 C 0.3673 0.49592 0.2956 0.0
C231 C 0.31925 0.50939 0.35606 0.0
N232 N 0.41077 0.49108 0.39476 0.0
N233 N 0.34059 0.50713 0.40057 0.0
H234 H 0.09946 0.30451 0.32594 0.0
H235 H 0.99 0.40471 0.46871 0.0
H236 H 0.02425 0.31117 0.22135 0.0
H237 H 0.06746 0.39982 0.56191 0.0
H238 H 1.00072 0.36879 0.38247 0.0
H239 H 0.0868 0.33794 0.4177 0.0
C240 C 0.08024 0.31312 0.32266 0.0
C241 C 0.06284 0.30543 0.26656 0.0
C242 C 0.01529 0.37555 0.42208 0.0
C243 C 0.04811 0.34349 0.3706 0.0
C244 C 0.00916 0.39599 0.47148 0.0
C245 C 0.02788 0.40541 0.52249 0.0
C246 C 0.04027 0.36442 0.42394 0.0
C247 C 0.05242 0.39337 0.52337 0.0
C248 C 0.07298 0.33214 0.37485 0.0
C249 C 0.03815 0.31686 0.26413 0.0
N250 N 0.05788 0.37361 0.47481 0.0
N251 N 0.03147 0.33544 0.31549 0.0
H252 H 0.82137 0.0621 0.05859 0.0
H253 H 0.90899 0.97224 0.78972 0.0
H254 H 0.80614 0.9796 0.01929 0.0
H255 H 0.92482 0.05482 0.83026 0.0
H256 H 0.87028 0.97497 0.8696 0.0
H257 H 0.85832 0.06042 0.97053 0.0
C258 C 0.8258 0.04371 0.03073 0.0
C259 C 0.81097 0.02095 0.0454 0.0
C260 C 0.88219 0.99251 0.86088 0.0
C261 C 0.85298 0.0187 0.94579 0.0
C262 C 0.90433 0.99097 0.81524 0.0
C263 C 0.92029 0.01332 0.8033 0.0
C264 C 0.8759 0.01656 0.89501 0.0
C265 C 0.91317 0.03705 0.8379 0.0
C266 C 0.84685 0.0427 0.98076 0.0
C267 C 0.81728 0.99752 0.0088 0.0
N268 N 0.89156 0.03803 0.88226 0.0
N269 N 0.83792 0.99695 0.9607 0.0
H270 H 0.54902 0.80718 0.03124 0.0
H271 H 0.46163 0.91915 0.84676 0.0
H272 H 0.46734 0.81728 0.08111 0.0
H273 H 0.54383 0.9097 0.79929 0.0
H274 H 0.46292 0.88101 0.92925 0.0
H275 H 0.54718 0.84379 0.94225 0.0
C276 C 0.53069 0.81716 0.02293 0.0
C277 C 0.5083 0.80952 0.06288 0.0
C278 C 0.48067 0.88723 0.90065 0.0
C279 C 0.50593 0.8512 0.96218 0.0
C280 C 0.47995 0.90904 0.85344 0.0
C281 C 0.50268 0.91775 0.81602 0.0
C282 C 0.50427 0.87398 0.91071 0.0
C283 C 0.52583 0.90377 0.82698 0.0
C284 C 0.52961 0.838 0.97239 0.0
C285 C 0.48497 0.82281 0.05089 0.0
N286 N 0.52603 0.88264 0.87341 0.0
N287 N 0.48437 0.84312 0.00158 0.0
H288 H 0.70465 0.48406 0.09326 0.0
H289 H 0.61284 0.54515 0.77902 0.0
H290 H 0.71653 0.56079 -0.00431 0.0
H291 H 0.60189 0.46629 0.86472 0.0
H292 H 0.65157 0.55037 0.856 0.0
H293 H 0.6677 0.47621 0.00818 0.0
C294 C 0.69948 0.49912 0.05339 0.0
C295 C 0.71335 0.52305 0.05078 0.0
C296 C 0.6408 0.53186 0.85792 0.0
C297 C 0.67143 0.51446 0.95433 0.0
C298 C 0.61859 0.52885 0.81393 0.0
C299 C 0.60394 0.50525 0.81553 0.0
C300 C 0.64852 0.5112 0.90445 0.0
C301 C 0.61255 0.48483 0.86171 0.0
C302 C 0.67847 0.49469 0.00503 0.0
C303 C 0.70614 0.54208 -0.0011 0.0
N304 N 0.63422 0.48832 0.90467 0.0
N305 N 0.68558 0.53742 0.95278 0.0
H306 H 0.0053 0.71369 0.94655 0.0
H307 H 0.99113 0.55626 0.93619 0.0
H308 H 0.98542 0.66582 0.13763 0.0
H309 H 0.01275 0.60251 0.74252 0.0
H310 H 0.98821 0.59654 0.00945 0.0
H311 H 0.00774 0.67358 0.86939 0.0
C312 C 1.00152 0.69466 0.97198 0.0
C313 C 0.99522 0.69273 0.048 0.0
C314 C 0.99356 0.59795 0.95091 0.0
C315 C 0.99781 0.64714 0.96114 0.0
C316 C 0.9952 0.57489 0.90886 0.0
C317 C 1.00224 0.57592 0.83292 0.0
C318 C 0.99899 0.62236 0.91707 0.0
C319 C 0.00726 0.60074 0.80086 0.0
C320 C 1.00287 0.67184 0.92818 0.0
C321 C 0.99038 0.66789 0.07895 0.0
N322 N 0.00559 0.62298 0.84314 0.0
N323 N 0.99177 0.64602 0.03539 0.0
H324 H 0.04529 0.20872 0.37232 0.0
H325 H 0.98374 0.11715 0.59693 0.0
H326 H 1.00053 0.1756 0.1906 0.0
H327 H 0.97883 0.07449 0.38821 0.0
H328 H 0.98892 0.15824 0.52704 0.0
H329 H 0.02092 0.18052 0.45961 0.0
C330 C 0.0296 0.19625 0.35134 0.0
C331 C 0.02517 0.19403 0.27435 0.0
C332 C 0.98646 0.13992 0.49663 0.0
C333 C 0.99727 0.16169 0.37314 0.0
C334 C 0.98319 0.11646 0.53641 0.0
C335 C 0.98151 0.09227 0.4982 0.0
C336 C 0.98798 0.13907 0.41827 0.0
C337 C 0.98064 0.09261 0.4199 0.0
C338 C 0.01561 0.18012 0.40114 0.0
C339 C 0.0048 0.17744 0.24965 0.0
N340 N 0.98421 0.11562 0.38254 0.0
N341 N 0.99206 0.16141 0.29865 0.0
H342 H 0.32806 0.97841 0.21156 0.0
H343 H 0.43895 0.96105 0.40418 0.0
H344 H 0.3091 0.02696 0.40164 0.0
H345 H 0.39483 0.97275 0.60762 0.0
H346 H 0.39848 0.96168 0.33367 0.0
H347 H 0.35694 0.95256 0.29041 0.0
C348 C 0.32947 0.98309 0.27057 0.0
C349 C 0.31677 0.00513 0.30011 0.0
C350 C 0.39738 0.96305 0.39399 0.0
C351 C 0.35051 0.97661 0.38938 0.0
C352 C 0.42062 0.96291 0.43424 0.0
C353 C 0.42029 0.96727 0.51163 0.0
C354 C 0.37368 0.96807 0.43135 0.0
C355 C 0.39598 0.9695 0.54785 0.0
C356 C 0.34618 0.96859 0.31523 0.0
C357 C 0.31884 0.01026 0.37682 0.0
N358 N 0.37369 0.97068 0.50711 0.0
N359 N 0.33598 0.99646 0.41865 0.0
H360 H 0.52966 0.31909 0.23093 0.0
H361 H 0.55481 0.43148 0.41884 0.0
H362 H 0.47636 0.30604 0.41493 0.0
H363 H 0.53715 0.39012 0.62375 0.0
H364 H 0.55054 0.3902 0.35035 0.0
H365 H 0.55682 0.34714 0.31152 0.0
C366 C 0.52415 0.32158 0.2891 0.0
C367 C 0.50058 0.31079 0.31631 0.0
C368 C 0.54862 0.3898 0.41063 0.0
C369 C 0.53068 0.34366 0.40732 0.0
C370 C 0.55089 0.41349 0.44966 0.0
C371 C 0.5461 0.41422 0.5268 0.0
C372 C 0.54094 0.36675 0.44889 0.0
C373 C 0.54099 0.39038 0.56415 0.0
C374 C 0.53943 0.33782 0.3347 0.0
C375 C 0.49432 0.31427 0.39197 0.0
N376 N 0.53774 0.36769 0.52447 0.0
N377 N 0.50901 0.33096 0.43464 0.0
H378 H 0.2245 0.50698 0.4168 0.0
H379 H 0.08437 0.56037 0.51258 0.0
H380 H 0.18941 0.57216 0.30335 0.0
H381 H 0.12142 0.4959 0.62543 0.0
H382 H 0.12678 0.57273 0.45743 0.0
H383 H 0.19277 0.51176 0.51839 0.0
C384 C 0.21088 0.5231 0.41508 0.0
C385 C 0.20913 0.53887 0.35132 0.0
C386 C 0.12566 0.55613 0.49523 0.0
C387 C 0.17205 0.54371 0.46492 0.0
C388 C 0.10142 0.54901 0.52641 0.0
C389 C 0.09918 0.52663 0.5719 0.0
C390 C 0.1477 0.54071 0.50972 0.0
C391 C 0.12202 0.51288 0.58894 0.0
C392 C 0.19245 0.5256 0.47247 0.0
C393 C 0.19104 0.55939 0.35146 0.0
N394 N 0.14518 0.51992 0.55711 0.0
N395 N 0.17264 0.56074 0.40627 0.0
H396 H 0.06526 0.82423 0.03679 0.0
H397 H 0.99514 0.90126 0.71386 0.0
H398 H 0.99613 0.79648 0.92312 0.0
H399 H 0.06347 0.93096 0.82882 0.0
H400 H 1.00163 0.85831 0.7695 0.0
H401 H 0.07217 0.85727 0.93915 0.0
C402 C 0.0522 0.82438 -0.01068 0.0
C403 C 0.0299 0.80792 -0.01176 0.0
C404 C 0.01541 0.87407 0.7822 0.0
C405 C 0.03709 0.84615 0.87806 0.0
C406 C 0.01161 0.89874 0.75086 0.0
C407 C 0.02843 0.91997 0.76823 0.0
C408 C 0.03599 0.87049 0.8324 0.0
C409 C 0.04981 0.91525 0.81483 0.0
C410 C 0.05594 0.84346 0.93413 0.0
C411 C 0.01349 0.80888 0.926 0.0
N412 N 0.05273 0.89109 0.84641 0.0
N413 N 0.01705 0.82818 0.87425 0.0
H414 H 0.67849 0.08453 0.04218 0.0
H415 H 0.6081 1.00204 0.72514 0.0
H416 H 0.71104 0.01616 0.93575 0.0
H417 H 0.57433 0.07022 0.83056 0.0
H418 H 0.64993 0.01315 0.78148 0.0
H419 H 0.64574 0.08679 0.94342 0.0
C420 C 0.67937 0.07066 -0.00391 0.0
C421 C 0.6972 0.04991 -0.00267 0.0
C422 C 0.63351 0.02589 0.79188 0.0
C423 C 0.65937 0.05179 0.88589 0.0
C424 C 0.60949 0.01945 0.76013 0.0
C425 C 0.58747 0.03488 0.77468 0.0
C426 C 0.63562 0.04777 0.83963 0.0
C427 C 0.5907 0.05757 0.81878 0.0
C428 C 0.6605 0.07176 0.94024 0.0
C429 C 0.69757 0.0324 0.9368 0.0
N430 N 0.61425 0.06309 0.85081 0.0
N431 N 0.67847 0.03333 0.88439 0.0
H432 H 0.44136 0.67792 0.05303 0.0
H433 H 0.51998 0.60711 0.73155 0.0
H434 H 0.50988 0.71053 0.94474 0.0
H435 H 0.45351 0.57212 0.84557 0.0
H436 H 0.50956 0.64947 0.78668 0.0
H437 H 0.43753 0.64512 0.95321 0.0
C438 C 0.4549 0.67886 0.00626 0.0
C439 C 0.47622 0.69659 0.00742 0.0
C440 C 0.49705 0.63265 0.79922 0.0
C441 C 0.47256 0.6587 0.89487 0.0
C442 C 0.50311 0.60832 0.76822 0.0
C443 C 0.48798 0.58583 0.78559 0.0
C444 C 0.47588 0.63459 0.84898 0.0
C445 C 0.46596 0.58885 0.83171 0.0
C446 C 0.45293 0.65994 0.94984 0.0
C447 C 0.49327 0.69708 0.94596 0.0
N448 N 0.46082 0.61272 0.86289 0.0
N449 N 0.49148 0.6779 0.89304 0.0
H450 H 0.83431 0.45419 0.11133 0.0
H451 H 0.94801 0.44338 0.92353 0.0
H452 H 0.8189 0.5102 0.93722 0.0
H453 H 0.90662 0.45988 0.72001 0.0
H454 H 0.90666 0.44292 -0.00848 0.0
H455 H 0.86419 0.43119 0.027 0.0
C456 C 0.83665 0.46108 0.05436 0.0
C457 C 0.82456 0.48423 0.0311 0.0
C458 C 0.90634 0.44558 0.93151 0.0
C459 C 0.85949 0.459 0.93608 0.0
C460 C 0.93005 0.44602 0.89282 0.0
C461 C 0.93068 0.45179 0.81633 0.0
C462 C 0.88316 0.45161 0.89367 0.0
C463 C 0.90689 0.45526 0.77907 0.0
C464 C 0.85392 0.44822 0.0067 0.0
C465 C 0.82805 0.49245 0.95701 0.0
N466 N 0.88411 0.45593 0.81858 0.0
N467 N 0.84571 0.48015 0.91237 0.0
H468 H 0.07349 0.20204 0.96261 0.0
H469 H 0.07424 0.04659 0.89506 0.0
H470 H 0.09218 0.14607 0.13444 0.0
H471 H 0.03803 0.10378 0.75258 0.0
H472 H 0.09332 0.08302 0.96927 0.0
H473 H 0.07476 0.16658 0.87007 0.0
C474 C 0.07871 0.18245 0.98045 0.0
C475 C 0.08213 0.17681 0.05634 0.0
C476 C 0.0815 0.08747 0.921 0.0
C477 C 0.08287 0.13606 0.9515 0.0
C478 C 0.07063 0.06675 0.87893 0.0
C479 C 0.05405 0.07227 0.81902 0.0
C480 C 0.07603 0.11368 0.90175 0.0
C481 C 0.05015 0.09868 0.79968 0.0
C482 C 0.07916 0.16213 0.92781 0.0
C483 C 0.08881 0.15104 0.07647 0.0
N484 N 0.06089 0.11834 0.84114 0.0
N485 N 0.08842 0.13145 0.02459 0.0
H486 H 0.3101 0.06049 -0.00148 0.0
H487 H 0.4636 0.06681 0.9121 0.0
H488 H 0.36836 0.07259 0.16894 0.0
H489 H 0.40546 0.02887 0.77333 0.0
H490 H 0.42834 0.08257 -0.00532 0.0
H491 H 0.34445 0.06395 0.90299 0.0
C492 C 0.33001 0.0647 0.01561 0.0
C493 C 0.33657 0.06579 0.09147 0.0
C494 C 0.42341 0.07114 0.94539 0.0
C495 C 0.37587 0.06928 -0.01681 0.0
C496 C 0.44344 0.06218 0.89852 0.0
C497 C 0.43735 0.0461 0.83703 0.0
C498 C 0.39728 0.06433 0.92931 0.0
C499 C 0.41098 0.04074 0.82127 0.0
C500 C 0.34963 0.06644 0.96125 0.0
C501 C 0.36268 0.07117 0.11082 0.0
N502 N 0.39195 0.04971 0.86729 0.0
N503 N 0.38151 0.07228 0.05703 0.0
H504 H 0.45307 0.30586 0.00718 0.0
H505 H 0.45071 0.46027 0.91812 0.0
H506 H 0.43824 0.36459 0.17609 0.0
H507 H 0.49431 0.40268 0.7933 0.0
H508 H 0.43337 0.4246 -0.00149 0.0
H509 H 0.45398 0.34059 0.91224 0.0
C510 C 0.44917 0.32596 0.02382 0.0
C511 C 0.44593 0.33252 0.09937 0.0
C512 C 0.44648 0.41988 0.95281 0.0
C513 C 0.44735 0.37222 -0.00808 0.0
C514 C 0.45636 0.44015 0.90723 0.0
C515 C 0.47434 0.43439 0.85021 0.0
C516 C 0.45422 0.3938 0.93969 0.0
C517 C 0.48093 0.40801 0.83779 0.0
C518 C 0.44994 0.34578 0.9699 0.0
C519 C 0.44114 0.35889 0.11827 0.0
N520 N 0.47094 0.38874 0.88222 0.0
N521 N 0.44236 0.3779 0.06499 0.0
H522 H 0.2041 0.46347 0.07558 0.0
H523 H 0.0545 0.48497 0.98093 0.0
H524 H 0.16189 0.53463 0.12414 0.0
H525 H 0.10384 0.44242 0.82696 0.0
H526 H 0.09212 0.49241 0.06153 0.0
H527 H 0.1663 0.44715 0.00372 0.0
C528 C 0.1871 0.47577 0.07059 0.0
C529 C 0.18607 0.50035 0.10679 0.0
C530 C 0.09455 0.48107 0.01061 0.0
C531 C 0.14276 0.48132 0.02801 0.0
C532 C 0.07305 0.47658 0.96485 0.0
C533 C 0.07613 0.46359 0.89609 0.0
C534 C 0.11921 0.47228 -0.01203 0.0
C535 C 0.10069 0.45294 0.87887 0.0
C536 C 0.16551 0.46629 0.03045 0.0
C537 C 0.16338 0.51529 0.09899 0.0
N538 N 0.12148 0.45784 0.92411 0.0
N539 N 0.14256 0.50541 0.06126 0.0
H540 H 0.95654 0.81352 0.26448 0.0
H541 H 0.99282 0.96132 0.35573 0.0
H542 H 0.03339 0.84789 0.23014 0.0
H543 H 0.94987 0.91696 0.52319 0.0
H544 H 0.99626 0.92143 0.28071 0.0
H545 H 0.94479 0.85225 0.34027 0.0
C546 C 0.97104 0.82891 0.27374 0.0
C547 C 0.99586 0.82769 0.2398 0.0
C548 C 0.98571 0.92062 0.33339 0.0
C549 C 0.98216 0.87201 0.32287 0.0
C550 C 0.98352 0.94339 0.37606 0.0
C551 C 0.97156 0.94239 0.44681 0.0
C552 C 0.97557 0.89676 0.36096 0.0
C553 C 0.9596 0.91854 0.46945 0.0
C554 C 0.96421 0.85102 0.31616 0.0
C555 C 0.01381 0.8483 0.25335 0.0
N556 N 0.96219 0.89644 0.42694 0.0
N557 N 0.00645 0.86978 0.29266 0.0
H558 H 0.65866 0.05398 0.24371 0.0
H559 H 0.5957 0.95604 0.53094 0.0
H560 H 0.69697 0.97976 0.27666 0.0
H561 H 0.55041 0.99885 0.3696 0.0
H562 H 0.63526 0.96579 0.45688 0.0
H563 H 0.62139 0.03761 0.31617 0.0
C564 C 0.65934 0.03432 0.26694 0.0
C565 C 0.6807 0.018 0.25286 0.0
C566 C 0.6165 0.97252 0.43743 0.0
C567 C 0.6382 0.9993 0.33626 0.0
C568 C 0.59391 0.96688 0.47919 0.0
C569 C 0.5697 0.97705 0.45721 0.0
C570 C 0.61475 0.98879 0.37456 0.0
C571 C 0.5686 0.9909 0.38951 0.0
C572 C 0.63804 0.02497 0.30782 0.0
C573 C 0.68084 0.99294 0.28612 0.0
N574 N 0.59089 0.99687 0.35156 0.0
N575 N 0.65974 0.98421 0.32628 0.0
H576 H 0.47316 0.65499 0.24874 0.0
H577 H 0.56956 0.59019 0.5278 0.0
H578 H 0.54884 0.69205 0.27963 0.0
H579 H 0.52148 0.54477 0.37541 0.0
H580 H 0.56191 0.62952 0.45196 0.0
H581 H 0.48813 0.61667 0.31695 0.0
C582 C 0.49289 0.65515 0.27045 0.0
C583 C 0.50994 0.67655 0.25727 0.0
C584 C 0.55357 0.61076 0.43465 0.0
C585 C 0.52707 0.6328 0.33594 0.0
C586 C 0.55799 0.58829 0.47748 0.0
C587 C 0.54574 0.56419 0.45874 0.0
C588 C 0.53643 0.60906 0.37396 0.0
C589 C 0.53108 0.56291 0.39272 0.0
C590 C 0.50144 0.63322 0.3089 0.0
C591 C 0.53508 0.67597 0.28858 0.0
N592 N 0.52633 0.58516 0.35374 0.0
N593 N 0.54298 0.6543 0.32658 0.0
H594 H 0.81831 0.53031 0.34781 0.0
H595 H 0.97153 0.54943 0.42305 0.0
H596 H 0.87391 0.54981 0.17365 0.0
H597 H 0.91761 0.50568 0.56328 0.0
H598 H 0.93458 0.56194 0.34307 0.0
H599 H 0.85316 0.53495 0.44015 0.0
C600 C 0.8377 0.53627 0.32927 0.0
C601 C 0.84338 0.5392 0.25301 0.0
C602 C 0.93093 0.54991 0.39205 0.0
C603 C 0.88338 0.54407 0.35785 0.0
C604 C 0.95192 0.54282 0.43746 0.0
C605 C 0.94756 0.5261 0.49866 0.0
C606 C 0.90556 0.54062 0.40943 0.0
C607 C 0.92184 0.51814 0.51553 0.0
C608 C 0.85763 0.53869 0.38183 0.0
C609 C 0.8689 0.54684 0.23196 0.0
N610 N 0.90187 0.52537 0.47105 0.0
N611 N 0.8881 0.54863 0.284 0.0
loop_
_geom_bond_atom_site_label_1
_geom_bond_atom_site_label_2
_geom_bond_distance
_geom_bond_site_symmetry_2
_ccdc_geom_bond_type
H0 C3 0.929 . S
H1 C6 0.929 . S
H2 C8 0.930 . S
C3 H0 0.929 . S
C3 C4 1.398 . S
C3 C5 1.396 1_554 S
C4 C3 1.398 . S
C4 C8 1.407 . S
C5 C3 1.396 1_556 S
C5 C6 1.394 . S
C6 H1 0.929 . S
C6 C5 1.394 . S
C6 C7 1.382 1_556 S
C7 C6 1.382 1_554 S
C7 C8 1.392 . S
C7 N9 1.420 . S
C8 H2 0.930 . S
C8 C4 1.407 . S
C8 C7 1.392 . S
N9 C7 1.420 . S
N9 C10 1.244 1_554 S
C10 N9 1.244 1_556 S
H11 C14 0.937 . S
H12 C17 0.929 . S
H13 C19 0.930 . S
C14 H11 0.937 . S
C14 C15 1.395 1_655 S
C14 C16 1.393 1_655 S
C15 C14 1.395 1_455 S
C15 C19 1.407 . S
C16 C14 1.393 1_455 S
C16 C17 1.394 . S
C17 H12 0.929 . S
C17 C16 1.394 . S
C17 C18 1.382 . S
C18 C17 1.382 . S
C18 C19 1.392 . S
C18 N20 1.420 . S
C19 H13 0.930 . S
C19 C15 1.407 . S
C19 C18 1.392 . S
N20 C18 1.420 . S
N20 C21 1.244 1_455 S
C21 N20 1.244 1_655 S
H22 C25 0.929 . S
H23 C28 0.929 1_556 S
H24 C30 0.930 . S
C25 H22 0.929 . S
C25 C26 1.398 1_565 S
C25 C27 1.393 1_565 S
C26 C25 1.398 1_545 S
C26 C30 1.407 . S
C27 C25 1.393 1_545 S
C27 C28 1.399 . S
C28 H23 0.929 1_554 S
C28 C27 1.399 . S
C28 C29 1.382 . S
C29 C28 1.382 . S
C29 C30 1.392 . S
C29 N31 1.420 . S
C30 H24 0.930 . S
C30 C26 1.407 . S
C30 C29 1.392 . S
N31 C29 1.420 . S
N31 C32 1.244 1_545 S
C32 N31 1.244 1_565 S
H33 C36 0.929 . S
H34 C39 0.929 . S
H35 C41 0.930 . S
C36 H33 0.929 . S
C36 C37 1.398 . S
C36 C38 1.396 1_554 S
C37 C36 1.398 . S
C37 C41 1.407 . S
C38 C36 1.396 1_556 S
C38 C39 1.394 . S
C39 H34 0.929 . S
C39 C38 1.394 . S
C39 C40 1.382 1_556 S
C40 C39 1.382 1_554 S
C40 C41 1.392 . S
C40 N42 1.420 . S
C41 H35 0.930 . S
C41 C37 1.407 . S
C41 C40 1.392 . S
N42 C40 1.420 . S
N42 C43 1.244 1_554 S
C43 N42 1.244 1_556 S
H44 C47 0.929 . S
H45 C50 0.929 . S
H46 C52 0.930 . S
C47 H44 0.929 . S
C47 C48 1.398 . S
C47 C49 1.396 . S
C48 C47 1.398 . S
C48 C52 1.407 . S
C49 C47 1.396 . S
C49 C50 1.394 . S
C50 H45 0.929 . S
C50 C49 1.394 . S
C50 C51 1.382 . S
C51 C50 1.382 . S
C51 C52 1.392 . S
C51 N53 1.420 . S
C52 H46 0.930 . S
C52 C48 1.407 . S
C52 C51 1.392 . S
N53 C51 1.420 . S
N53 C54 1.244 . S
C54 N53 1.244 . S
H55 C58 0.929 . S
H56 C61 0.929 . S
H57 C63 0.930 . S
C58 H55 0.929 . S
C58 C59 1.398 . S
C58 C60 1.396 . S
C59 C58 1.398 . S
C59 C63 1.407 . S
C60 C58 1.396 . S
C60 C61 1.394 . S
C61 H56 0.929 . S
C61 C60 1.394 . S
C61 C62 1.382 . S
C62 C61 1.382 . S
C62 C63 1.392 . S
C62 N64 1.420 . S
C63 H57 0.930 . S
C63 C59 1.407 . S
C63 C62 1.392 . S
N64 C62 1.420 . S
N64 C65 1.244 . S
C65 N64 1.244 . S
H66 C69 0.929 . S
H67 C72 0.929 . S
H68 C74 0.930 . S
C69 H66 0.929 . S
C69 C70 1.398 . S
C69 C71 1.396 . S
C70 C69 1.398 . S
C70 C74 1.407 . S
C71 C69 1.396 . S
C71 C72 1.394 . S
C72 H67 0.929 . S
C72 C71 1.394 . S
C72 C73 1.382 . S
C73 C72 1.382 . S
C73 C74 1.392 . S
C73 N75 1.420 . S
C74 H68 0.930 . S
C74 C70 1.407 . S
C74 C73 1.392 . S
N75 C73 1.420 . S
N75 C76 1.244 . S
C76 N75 1.244 . S
H77 C80 0.929 . S
H78 C83 0.929 . S
H79 C85 0.930 . S
C80 H77 0.929 . S
C80 C81 1.398 . S
C80 C82 1.396 . S
C81 C80 1.398 . S
C81 C85 1.407 . S
C82 C80 1.396 . S
C82 C83 1.394 . S
C83 H78 0.929 . S
C83 C82 1.394 . S
C83 C84 1.382 . S
C84 C83 1.382 . S
C84 C85 1.392 . S
C84 N86 1.420 . S
C85 H79 0.930 . S
C85 C81 1.407 . S
C85 C84 1.392 . S
N86 C84 1.420 . S
N86 C87 1.244 . S
C87 N86 1.244 . S
O88 Zn89 1.956 . S
O88 C104 1.225 1_545 S
Zn89 O88 1.956 . S
Zn89 O90 1.948 1_545 S
Zn89 O96 1.947 . S
Zn89 O101 1.891 1_545 S
O90 Zn89 1.948 1_565 S
O90 Zn91 1.901 1_465 S
O90 Zn92 1.952 . S
O90 Zn93 1.965 1_455 S
Zn91 O90 1.901 1_645 S
Zn91 O94 1.933 . S
Zn91 O97 1.941 1_655 S
Zn91 O98 1.965 . S
Zn92 O90 1.952 . S
Zn92 O99 1.938 1_565 S
Zn92 O100 1.906 . S
Zn92 O110 1.953 . S
Zn93 O90 1.965 1_655 S
Zn93 O95 1.932 . S
Zn93 O102 1.977 . S
Zn93 O103 1.910 1_655 S
O94 Zn91 1.933 . S
O94 C105 1.226 . S
O95 Zn93 1.932 . S
O95 C105 1.307 1_565 S
O96 Zn89 1.947 . S
O96 C107 1.253 . S
O97 Zn91 1.941 1_455 S
O97 C107 1.283 . S
O98 Zn91 1.965 . S
O98 C106 1.303 1_655 S
O99 Zn92 1.938 1_545 S
O99 C106 1.247 . S
O100 Zn92 1.906 . S
O100 C108 1.304 1_455 S
O101 Zn89 1.891 1_565 S
O101 C109 1.311 . S
O102 Zn93 1.977 . S
O102 C108 1.272 . S
O103 Zn93 1.910 1_455 S
O103 C109 1.231 . S
C104 O88 1.225 1_565 S
C104 O110 1.298 . S
C105 O94 1.226 . S
C105 O95 1.307 1_545 S
C106 O98 1.303 1_455 S
C106 O99 1.247 . S
C107 O96 1.253 . S
C107 O97 1.283 . S
C108 O100 1.304 1_655 S
C108 O102 1.272 . S
C109 O101 1.311 . S
C109 O103 1.231 . S
O110 Zn92 1.953 . S
O110 C104 1.298 . S
O111 Zn112 1.953 . S
O111 C127 1.225 . S
Zn112 O111 1.953 . S
Zn112 O113 1.949 . S
Zn112 O119 1.919 . S
Zn112 O124 1.924 . S
O113 Zn112 1.949 . S
O113 Zn114 1.923 1_545 S
O113 Zn115 1.950 . S
O113 Zn116 1.945 1_545 S
Zn114 O113 1.923 1_565 S
Zn114 O117 1.933 . S
Zn114 O120 1.941 . S
Zn114 O121 1.965 . S
Zn115 O113 1.950 . S
Zn115 O122 1.938 . S
Zn115 O123 1.906 . S
Zn115 O133 1.953 . S
Zn116 O113 1.945 1_565 S
Zn116 O118 1.932 . S
Zn116 O125 1.977 . S
Zn116 O126 1.910 1_565 S
O117 Zn114 1.933 . S
O117 C128 1.226 . S
O118 Zn116 1.932 . S
O118 C128 1.307 . S
O119 Zn112 1.919 . S
O119 C130 1.253 . S
O120 Zn114 1.941 . S
O120 C130 1.283 1_565 S
O121 Zn114 1.965 . S
O121 C129 1.303 1_565 S
O122 Zn115 1.938 . S
O122 C129 1.247 . S
O123 Zn115 1.906 . S
O123 C131 1.304 1_545 S
O124 Zn112 1.924 . S
O124 C132 1.311 . S
O125 Zn116 1.977 . S
O125 C131 1.272 . S
O126 Zn116 1.910 1_545 S
O126 C132 1.231 . S
C127 O111 1.225 . S
C127 O133 1.298 . S
C128 O117 1.226 . S
C128 O118 1.307 . S
C129 O121 1.303 1_545 S
C129 O122 1.247 . S
C130 O119 1.253 . S
C130 O120 1.283 1_545 S
C131 O123 1.304 1_565 S
C131 O125 1.272 . S
C132 O124 1.311 . S
C132 O126 1.231 . S
O133 Zn115 1.953 . S
O133 C127 1.298 . S
O134 Zn135 1.953 . S
O134 C150 1.225 . S
Zn135 O134 1.953 . S
Zn135 O136 1.949 . S
Zn135 O142 1.919 . S
Zn135 O147 1.924 . S
O136 Zn135 1.949 . S
O136 Zn137 1.923 . S
O136 Zn138 1.950 . S
O136 Zn139 1.945 . S
Zn137 O136 1.923 . S
Zn137 O140 1.933 . S
Zn137 O143 1.941 . S
Zn137 O144 1.965 . S
Zn138 O136 1.950 . S
Zn138 O145 1.938 . S
Zn138 O146 1.906 . S
Zn138 O156 1.953 . S
Zn139 O136 1.945 . S
Zn139 O141 1.932 . S
Zn139 O148 1.977 . S
Zn139 O149 1.910 . S
O140 Zn137 1.933 . S
O140 C151 1.226 . S
O141 Zn139 1.932 . S
O141 C151 1.307 . S
O142 Zn135 1.919 . S
O142 C153 1.253 . S
O143 Zn137 1.941 . S
O143 C153 1.283 . S
O144 Zn137 1.965 . S
O144 C152 1.303 . S
O145 Zn138 1.938 . S
O145 C152 1.247 . S
O146 Zn138 1.906 . S
O146 C154 1.304 . S
O147 Zn135 1.924 . S
O147 C155 1.311 . S
O148 Zn139 1.977 . S
O148 C154 1.272 . S
O149 Zn139 1.910 . S
O149 C155 1.231 . S
C150 O134 1.225 . S
C150 O156 1.298 . S
C151 O140 1.226 . S
C151 O141 1.307 . S
C152 O144 1.303 . S
C152 O145 1.247 . S
C153 O142 1.253 . S
C153 O143 1.283 . S
C154 O146 1.304 . S
C154 O148 1.272 . S
C155 O147 1.311 . S
C155 O149 1.231 . S
O156 Zn138 1.953 . S
O156 C150 1.298 . S
O157 Zn158 1.921 1_655 S
O157 C173 1.225 . S
Zn158 O157 1.921 1_455 S
Zn158 O159 1.949 . S
Zn158 O165 1.919 . S
Zn158 O170 1.958 . S
O159 Zn158 1.949 . S
O159 Zn160 1.918 1_455 S
O159 Zn161 1.929 1_455 S
O159 Zn162 1.973 . S
Zn160 O159 1.918 1_655 S
Zn160 O163 1.933 1_655 S
Zn160 O166 1.941 . S
Zn160 O167 1.965 . S
Zn161 O159 1.929 1_655 S
Zn161 O168 1.938 . S
Zn161 O169 1.906 . S
Zn161 O179 1.953 . S
Zn162 O159 1.973 . S
Zn162 O164 1.932 . S
Zn162 O171 1.977 . S
Zn162 O172 1.910 . S
O163 Zn160 1.933 1_455 S
O163 C174 1.226 . S
O164 Zn162 1.932 . S
O164 C174 1.307 . S
O165 Zn158 1.919 . S
O165 C176 1.253 . S
O166 Zn160 1.941 . S
O166 C176 1.284 1_655 S
O167 Zn160 1.965 . S
O167 C175 1.303 . S
O168 Zn161 1.938 . S
O168 C175 1.247 . S
O169 Zn161 1.906 . S
O169 C177 1.304 1_655 S
O170 Zn158 1.958 . S
O170 C178 1.311 . S
O171 Zn162 1.977 . S
O171 C177 1.272 . S
O172 Zn162 1.910 . S
O172 C178 1.231 . S
C173 O157 1.225 . S
C173 O179 1.298 . S
C174 O163 1.226 . S
C174 O164 1.307 . S
C175 O167 1.303 . S
C175 O168 1.247 . S
C176 O165 1.253 . S
C176 O166 1.284 1_455 S
C177 O169 1.304 1_455 S
C177 O171 1.272 . S
C178 O170 1.311 . S
C178 O172 1.231 . S
O179 Zn161 1.953 . S
O179 C173 1.298 . S
H180 C186 0.930 . S
H181 C190 0.930 . S
H182 C195 0.929 . S
H183 C193 0.929 . S
H184 C188 0.929 . S
H185 C194 0.929 . S
C186 H180 0.930 . S
C186 C187 1.367 . S
C186 C194 1.378 . S
C187 C186 1.367 . S
C187 C195 1.433 1_545 S
C188 H184 0.929 . S
C188 C190 1.378 . S
C188 C192 1.350 1_565 S
C189 C192 1.463 . S
C189 C194 1.350 . S
C189 N197 1.427 1_545 S
C190 H181 0.930 . S
C190 C188 1.378 . S
C190 C191 1.367 . S
C191 C190 1.367 . S
C191 C193 1.433 1_565 S
C192 C188 1.350 1_545 S
C192 C189 1.463 . S
C192 N196 1.427 . S
C193 H183 0.929 . S
C193 C191 1.433 1_545 S
C193 N196 1.384 . S
C194 H185 0.929 . S
C194 C186 1.378 . S
C194 C189 1.350 . S
C195 H182 0.929 . S
C195 C187 1.433 1_565 S
C195 N197 1.384 . S
N196 C192 1.427 . S
N196 C193 1.384 . S
N197 C189 1.427 1_565 S
N197 C195 1.384 . S
H198 C204 0.930 . S
H199 C208 0.930 . S
H200 C213 0.929 . S
H201 C211 0.929 . S
H202 C206 0.929 . S
H203 C212 0.929 . S
C204 H198 0.930 . S
C204 C205 1.367 . S
C204 C212 1.378 . S
C205 C204 1.367 . S
C205 C213 1.433 . S
C206 H202 0.929 . S
C206 C208 1.378 . S
C206 C210 1.350 . S
C207 C210 1.463 . S
C207 C212 1.350 . S
C207 N215 1.427 . S
C208 H199 0.930 . S
C208 C206 1.378 . S
C208 C209 1.367 . S
C209 C208 1.367 . S
C209 C211 1.433 . S
C210 C206 1.350 . S
C210 C207 1.463 . S
C210 N214 1.427 . S
C211 H201 0.929 . S
C211 C209 1.433 . S
C211 N214 1.384 . S
C212 H203 0.929 . S
C212 C204 1.378 . S
C212 C207 1.350 . S
C213 H200 0.929 . S
C213 C205 1.433 . S
C213 N215 1.384 . S
N214 C210 1.427 . S
N214 C211 1.384 . S
N215 C207 1.427 . S
N215 C213 1.384 . S
H216 C222 0.930 . S
H217 C226 0.930 . S
H218 C231 0.929 . S
H219 C229 0.929 . S
H220 C224 0.929 . S
H221 C230 0.929 . S
C222 H216 0.930 . S
C222 C223 1.367 . S
C222 C230 1.378 . S
C223 C222 1.367 . S
C223 C231 1.433 . S
C224 H220 0.929 . S
C224 C226 1.378 . S
C224 C228 1.350 . S
C225 C228 1.463 . S
C225 C230 1.350 . S
C225 N233 1.427 . S
C226 H217 0.930 . S
C226 C224 1.378 . S
C226 C227 1.367 . S
C227 C226 1.367 . S
C227 C229 1.433 . S
C228 C224 1.350 . S
C228 C225 1.463 . S
C228 N232 1.427 . S
C229 H219 0.929 . S
C229 C227 1.433 . S
C229 N232 1.384 . S
C230 H221 0.929 . S
C230 C222 1.378 . S
C230 C225 1.350 . S
C231 H218 0.929 . S
C231 C223 1.433 . S
C231 N233 1.384 . S
N232 C228 1.427 . S
N232 C229 1.384 . S
N233 C225 1.427 . S
N233 C231 1.384 . S
H234 C240 0.930 . S
H235 C244 0.930 . S
H236 C249 0.929 1_655 S
H237 C247 0.929 . S
H238 C242 0.929 . S
H239 C248 0.929 . S
C240 H234 0.930 . S
C240 C241 1.367 . S
C240 C248 1.378 . S
C241 C240 1.367 . S
C241 C249 1.433 . S
C242 H238 0.929 . S
C242 C244 1.378 . S
C242 C246 1.350 1_655 S
C243 C246 1.463 . S
C243 C248 1.350 . S
C243 N251 1.427 . S
C244 H235 0.930 . S
C244 C242 1.378 . S
C244 C245 1.367 1_655 S
C245 C244 1.367 1_455 S
C245 C247 1.433 . S
C246 C242 1.350 1_455 S
C246 C243 1.463 . S
C246 N250 1.427 . S
C247 H237 0.929 . S
C247 C245 1.433 . S
C247 N250 1.384 . S
C248 H239 0.929 . S
C248 C240 1.378 . S
C248 C243 1.350 . S
C249 H236 0.929 1_455 S
C249 C241 1.433 . S
C249 N251 1.384 . S
N250 C246 1.427 . S
N250 C247 1.384 . S
N251 C243 1.427 . S
N251 C249 1.384 . S
H252 C258 0.930 . S
H253 C262 0.930 . S
H254 C267 0.929 . S
H255 C265 0.929 . S
H256 C260 0.929 . S
H257 C266 0.929 . S
C258 H252 0.930 . S
C258 C259 1.367 1_545 S
C258 C266 1.378 . S
C259 C258 1.367 1_565 S
C259 C267 1.433 1_556 S
C260 H256 0.929 . S
C260 C262 1.378 . S
C260 C264 1.336 1_565 S
C261 C264 1.464 . S
C261 C266 1.350 . S
C261 N269 1.427 1_545 S
C262 H253 0.930 . S
C262 C260 1.378 . S
C262 C263 1.367 1_565 S
C263 C262 1.367 1_545 S
C263 C265 1.433 . S
C264 C260 1.336 1_545 S
C264 C261 1.464 . S
C264 N268 1.442 . S
C265 H255 0.929 . S
C265 C263 1.433 . S
C265 N268 1.384 . S
C266 H257 0.929 . S
C266 C258 1.378 . S
C266 C261 1.350 . S
C267 H254 0.929 . S
C267 C259 1.433 1_554 S
C267 N269 1.384 1_554 S
N268 C264 1.442 . S
N268 C265 1.384 . S
N269 C261 1.427 1_565 S
N269 C267 1.384 1_556 S
H270 C276 0.930 1_554 S
H271 C280 0.930 . S
H272 C285 0.929 . S
H273 C283 0.929 . S
H274 C278 0.929 . S
H275 C284 0.929 . S
C276 H270 0.930 1_556 S
C276 C277 1.367 . S
C276 C284 1.378 . S
C277 C276 1.367 . S
C277 C285 1.433 . S
C278 H274 0.929 . S
C278 C280 1.378 . S
C278 C282 1.350 . S
C279 C282 1.463 . S
C279 C284 1.350 . S
C279 N287 1.427 . S
C280 H271 0.930 . S
C280 C278 1.378 . S
C280 C281 1.367 . S
C281 C280 1.367 . S
C281 C283 1.433 . S
C282 C278 1.350 . S
C282 C279 1.463 . S
C282 N286 1.427 . S
C283 H273 0.929 . S
C283 C281 1.433 . S
C283 N286 1.384 . S
C284 H275 0.929 . S
C284 C276 1.378 . S
C284 C279 1.350 . S
C285 H272 0.929 . S
C285 C277 1.433 . S
C285 N287 1.384 . S
N286 C282 1.427 . S
N286 C283 1.384 . S
N287 C279 1.427 . S
N287 C285 1.384 . S
H288 C294 0.930 . S
H289 C298 0.930 . S
H290 C303 0.929 . S
H291 C301 0.929 . S
H292 C296 0.929 . S
H293 C302 0.929 . S
C294 H288 0.930 . S
C294 C295 1.367 . S
C294 C302 1.378 . S
C295 C294 1.367 . S
C295 C303 1.433 . S
C296 H292 0.929 . S
C296 C298 1.378 . S
C296 C300 1.350 . S
C297 C300 1.463 . S
C297 C302 1.350 . S
C297 N305 1.427 . S
C298 H289 0.930 . S
C298 C296 1.378 . S
C298 C299 1.367 . S
C299 C298 1.367 . S
C299 C301 1.433 . S
C300 C296 1.350 . S
C300 C297 1.463 . S
C300 N304 1.427 . S
C301 H291 0.929 . S
C301 C299 1.433 . S
C301 N304 1.384 . S
C302 H293 0.929 . S
C302 C294 1.378 . S
C302 C297 1.350 . S
C303 H290 0.929 . S
C303 C295 1.433 . S
C303 N305 1.384 . S
N304 C300 1.427 . S
N304 C301 1.384 . S
N305 C297 1.427 . S
N305 C303 1.384 . S
H306 C312 0.930 . S
H307 C316 0.930 . S
H308 C321 0.929 . S
H309 C319 0.929 . S
H310 C314 0.929 . S
H311 C320 0.929 . S
C312 H306 0.930 . S
C312 C313 1.367 1_456 S
C312 C320 1.378 . S
C313 C312 1.367 1_654 S
C313 C321 1.433 . S
C314 H310 0.929 . S
C314 C316 1.378 . S
C314 C318 1.350 1_655 S
C315 C318 1.463 . S
C315 C320 1.350 . S
C315 N323 1.429 1_456 S
C316 H307 0.930 . S
C316 C314 1.378 . S
C316 C317 1.367 1_655 S
C317 C316 1.367 1_455 S
C317 C319 1.433 . S
C318 C314 1.350 1_455 S
C318 C315 1.463 . S
C318 N322 1.427 . S
C319 H309 0.929 . S
C319 C317 1.433 . S
C319 N322 1.384 . S
C320 H311 0.929 . S
C320 C312 1.378 . S
C320 C315 1.350 . S
C321 H308 0.929 . S
C321 C313 1.433 . S
C321 N323 1.383 . S
N322 C318 1.427 . S
N322 C319 1.384 . S
N323 C315 1.429 1_654 S
N323 C321 1.383 . S
H324 C330 0.930 . S
H325 C334 0.930 . S
H326 C339 0.929 . S
H327 C337 0.929 . S
H328 C332 0.929 . S
H329 C338 0.929 . S
C330 H324 0.930 . S
C330 C331 1.367 . S
C330 C338 1.378 . S
C331 C330 1.367 . S
C331 C339 1.433 . S
C332 H328 0.929 . S
C332 C334 1.378 . S
C332 C336 1.350 . S
C333 C336 1.463 . S
C333 C338 1.350 . S
C333 N341 1.427 . S
C334 H325 0.930 . S
C334 C332 1.378 . S
C334 C335 1.367 . S
C335 C334 1.367 . S
C335 C337 1.433 . S
C336 C332 1.350 . S
C336 C333 1.463 . S
C336 N340 1.427 . S
C337 H327 0.929 . S
C337 C335 1.433 . S
C337 N340 1.384 . S
C338 H329 0.929 . S
C338 C330 1.378 . S
C338 C333 1.350 . S
C339 H326 0.929 . S
C339 C331 1.433 . S
C339 N341 1.384 . S
N340 C336 1.427 . S
N340 C337 1.384 . S
N341 C333 1.427 . S
N341 C339 1.384 . S
H342 C348 0.930 . S
H343 C352 0.930 . S
H344 C357 0.929 . S
H345 C355 0.929 . S
H346 C350 0.929 . S
H347 C356 0.929 . S
C348 H342 0.930 . S
C348 C349 1.367 1_565 S
C348 C356 1.378 . S
C349 C348 1.367 1_545 S
C349 C357 1.433 . S
C350 H346 0.929 . S
C350 C352 1.378 . S
C350 C354 1.350 . S
C351 C354 1.463 . S
C351 C356 1.350 1_545 S
C351 N359 1.427 . S
C352 H343 0.930 . S
C352 C350 1.378 . S
C352 C353 1.367 . S
C353 C352 1.367 . S
C353 C355 1.433 1_545 S
C354 C350 1.350 . S
C354 C351 1.463 . S
C354 N358 1.427 1_545 S
C355 H345 0.929 . S
C355 C353 1.433 1_565 S
C355 N358 1.384 . S
C356 H347 0.929 . S
C356 C348 1.378 . S
C356 C351 1.350 1_565 S
C357 H344 0.929 . S
C357 C349 1.433 . S
C357 N359 1.384 . S
N358 C354 1.427 1_565 S
N358 C355 1.384 . S
N359 C351 1.427 . S
N359 C357 1.384 . S
H360 C366 0.930 . S
H361 C370 0.930 . S
H362 C375 0.929 . S
H363 C373 0.929 . S
H364 C368 0.929 . S
H365 C374 0.929 . S
C366 H360 0.930 . S
C366 C367 1.367 . S
C366 C374 1.378 . S
C367 C366 1.367 . S
C367 C375 1.433 . S
C368 H364 0.929 . S
C368 C370 1.378 . S
C368 C372 1.350 . S
C369 C372 1.463 . S
C369 C374 1.350 . S
C369 N377 1.427 . S
C370 H361 0.930 . S
C370 C368 1.378 . S
C370 C371 1.367 . S
C371 C370 1.367 . S
C371 C373 1.433 . S
C372 C368 1.350 . S
C372 C369 1.463 . S
C372 N376 1.427 . S
C373 H363 0.929 . S
C373 C371 1.433 . S
C373 N376 1.384 . S
C374 H365 0.929 . S
C374 C366 1.378 . S
C374 C369 1.350 . S
C375 H362 0.929 . S
C375 C367 1.433 . S
C375 N377 1.384 . S
N376 C372 1.427 . S
N376 C373 1.384 . S
N377 C369 1.427 . S
N377 C375 1.384 . S
H378 C384 0.930 . S
H379 C388 0.930 . S
H380 C393 0.929 . S
H381 C391 0.929 . S
H382 C386 0.929 . S
H383 C392 0.929 . S
C384 H378 0.930 . S
C384 C385 1.367 . S
C384 C392 1.378 . S
C385 C384 1.367 . S
C385 C393 1.433 . S
C386 H382 0.929 . S
C386 C388 1.378 . S
C386 C390 1.350 . S
C387 C390 1.463 . S
C387 C392 1.350 . S
C387 N395 1.427 . S
C388 H379 0.930 . S
C388 C386 1.378 . S
C388 C389 1.367 . S
C389 C388 1.367 . S
C389 C391 1.433 . S
C390 C386 1.350 . S
C390 C387 1.463 . S
C390 N394 1.427 . S
C391 H381 0.929 . S
C391 C389 1.433 . S
C391 N394 1.384 . S
C392 H383 0.929 . S
C392 C384 1.378 . S
C392 C387 1.350 . S
C393 H380 0.929 . S
C393 C385 1.433 . S
C393 N395 1.384 . S
N394 C390 1.427 . S
N394 C391 1.384 . S
N395 C387 1.427 . S
N395 C393 1.384 . S
H396 C402 0.930 . S
H397 C406 0.930 . S
H398 C411 0.929 . S
H399 C409 0.929 . S
H400 C404 0.929 1_655 S
H401 C410 0.929 . S
C402 H396 0.930 . S
C402 C403 1.367 . S
C402 C410 1.378 . S
C403 C402 1.367 . S
C403 C411 1.433 1_454 S
C404 H400 0.929 1_455 S
C404 C406 1.378 . S
C404 C408 1.350 . S
C405 C408 1.463 . S
C405 C410 1.350 1_556 S
C405 N413 1.427 1_455 S
C406 H397 0.930 . S
C406 C404 1.378 . S
C406 C407 1.367 . S
C407 C406 1.367 . S
C407 C409 1.433 . S
C408 C404 1.350 . S
C408 C405 1.463 . S
C408 N412 1.427 . S
C409 H399 0.929 . S
C409 C407 1.433 . S
C409 N412 1.384 . S
C410 H401 0.929 . S
C410 C402 1.378 . S
C410 C405 1.350 1_554 S
C411 H398 0.929 . S
C411 C403 1.433 1_656 S
C411 N413 1.384 . S
N412 C408 1.427 . S
N412 C409 1.384 . S
N413 C405 1.427 1_655 S
N413 C411 1.384 . S
H414 C420 0.930 . S
H415 C424 0.930 1_565 S
H416 C429 0.929 . S
H417 C427 0.929 . S
H418 C422 0.914 1_565 S
H419 C428 0.929 . S
C420 H414 0.930 . S
C420 C421 1.388 . S
C420 C428 1.378 . S
C421 C420 1.388 . S
C421 C429 1.417 1_545 S
C422 H418 0.914 1_545 S
C422 C424 1.382 . S
C422 C426 1.361 . S
C423 C426 1.463 . S
C423 C428 1.350 . S
C423 N431 1.427 1_545 S
C424 H415 0.930 1_545 S
C424 C422 1.382 . S
C424 C425 1.367 . S
C425 C424 1.367 . S
C425 C427 1.433 . S
C426 C422 1.361 . S
C426 C423 1.463 . S
C426 N430 1.427 . S
C427 H417 0.929 . S
C427 C425 1.433 . S
C427 N430 1.384 . S
C428 H419 0.929 . S
C428 C420 1.378 . S
C428 C423 1.350 . S
C429 H416 0.929 . S
C429 C421 1.417 1_565 S
C429 N431 1.384 . S
N430 C426 1.427 . S
N430 C427 1.384 . S
N431 C423 1.427 1_565 S
N431 C429 1.384 . S
H432 C438 0.930 1_554 S
H433 C442 0.930 . S
H434 C447 0.929 . S
H435 C445 0.929 . S
H436 C440 0.929 . S
H437 C446 0.929 . S
C438 H432 0.930 1_556 S
C438 C439 1.367 . S
C438 C446 1.378 . S
C439 C438 1.367 . S
C439 C447 1.433 . S
C440 H436 0.929 . S
C440 C442 1.378 . S
C440 C444 1.350 . S
C441 C444 1.463 . S
C441 C446 1.350 . S
C441 N449 1.427 . S
C442 H433 0.930 . S
C442 C440 1.378 . S
C442 C443 1.367 . S
C443 C442 1.367 . S
C443 C445 1.433 . S
C444 C440 1.350 . S
C444 C441 1.463 . S
C444 N448 1.427 . S
C445 H435 0.929 . S
C445 C443 1.433 . S
C445 N448 1.384 . S
C446 H437 0.929 . S
C446 C438 1.378 . S
C446 C441 1.350 . S
C447 H434 0.929 . S
C447 C439 1.433 . S
C447 N449 1.384 . S
N448 C444 1.427 . S
N448 C445 1.384 . S
N449 C441 1.427 . S
N449 C447 1.384 . S
H450 C456 0.930 . S
H451 C460 0.930 . S
H452 C465 0.929 . S
H453 C463 0.929 . S
H454 C458 0.929 . S
H455 C464 0.929 . S
C456 H450 0.930 . S
C456 C457 1.367 . S
C456 C464 1.378 . S
C457 C456 1.367 . S
C457 C465 1.433 . S
C458 H454 0.929 . S
C458 C460 1.378 . S
C458 C462 1.350 . S
C459 C462 1.463 . S
C459 C464 1.350 . S
C459 N467 1.427 . S
C460 H451 0.930 . S
C460 C458 1.378 . S
C460 C461 1.367 . S
C461 C460 1.367 . S
C461 C463 1.433 . S
C462 C458 1.350 . S
C462 C459 1.463 . S
C462 N466 1.427 . S
C463 H453 0.929 . S
C463 C461 1.433 . S
C463 N466 1.384 . S
C464 H455 0.929 . S
C464 C456 1.378 . S
C464 C459 1.350 . S
C465 H452 0.929 . S
C465 C457 1.433 . S
C465 N467 1.384 . S
N466 C462 1.427 . S
N466 C463 1.384 . S
N467 C459 1.427 . S
N467 C465 1.384 . S
H468 C474 0.930 . S
H469 C478 0.930 . S
H470 C483 0.929 . S
H471 C481 0.929 1_655 S
H472 C476 0.929 . S
H473 C482 0.929 . S
C474 H468 0.930 . S
C474 C475 1.367 . S
C474 C482 1.378 . S
C475 C474 1.367 . S
C475 C483 1.433 . S
C476 H472 0.929 . S
C476 C478 1.378 . S
C476 C480 1.350 1_556 S
C477 C480 1.463 . S
C477 C482 1.350 . S
C477 N485 1.427 . S
C478 H469 0.930 . S
C478 C476 1.378 . S
C478 C479 1.367 . S
C479 C478 1.367 . S
C479 C481 1.433 1_556 S
C480 C476 1.350 1_554 S
C480 C477 1.463 . S
C480 N484 1.427 . S
C481 H471 0.929 1_455 S
C481 C479 1.433 1_554 S
C481 N484 1.384 . S
C482 H473 0.929 . S
C482 C474 1.378 . S
C482 C477 1.350 . S
C483 H470 0.929 . S
C483 C475 1.433 . S
C483 N485 1.384 . S
N484 C480 1.427 . S
N484 C481 1.384 . S
N485 C477 1.427 . S
N485 C483 1.384 . S
H486 C492 0.930 . S
H487 C496 0.930 . S
H488 C501 0.929 . S
H489 C499 0.929 . S
H490 C494 0.929 . S
H491 C500 0.929 1_556 S
C492 H486 0.930 . S
C492 C493 1.367 1_565 S
C492 C500 1.378 . S
C493 C492 1.367 1_545 S
C493 C501 1.433 . S
C494 H490 0.929 . S
C494 C496 1.378 1_554 S
C494 C498 1.350 1_554 S
C495 C498 1.463 1_554 S
C495 C500 1.350 1_545 S
C495 N503 1.427 . S
C496 H487 0.930 . S
C496 C494 1.378 1_556 S
C496 C497 1.367 . S
C497 C496 1.367 . S
C497 C499 1.433 1_545 S
C498 C494 1.350 1_556 S
C498 C495 1.463 1_556 S
C498 N502 1.427 1_545 S
C499 H489 0.929 . S
C499 C497 1.433 1_565 S
C499 N502 1.384 . S
C500 H491 0.929 1_554 S
C500 C492 1.378 . S
C500 C495 1.350 1_565 S
C501 H488 0.929 . S
C501 C493 1.433 . S
C501 N503 1.384 . S
N502 C498 1.427 1_565 S
N502 C499 1.384 . S
N503 C495 1.427 . S
N503 C501 1.384 . S
H504 C510 0.930 . S
H505 C514 0.930 . S
H506 C519 0.929 . S
H507 C517 0.929 . S
H508 C512 0.929 . S
H509 C518 0.929 . S
C510 H504 0.930 . S
C510 C511 1.367 . S
C510 C518 1.378 . S
C511 C510 1.367 . S
C511 C519 1.433 . S
C512 H508 0.929 . S
C512 C514 1.378 . S
C512 C516 1.350 . S
C513 C516 1.463 1_554 S
C513 C518 1.350 . S
C513 N521 1.427 . S
C514 H505 0.930 . S
C514 C512 1.378 . S
C514 C515 1.367 . S
C515 C514 1.367 . S
C515 C517 1.433 . S
C516 C512 1.350 . S
C516 C513 1.463 1_556 S
C516 N520 1.427 . S
C517 H507 0.929 . S
C517 C515 1.433 . S
C517 N520 1.384 . S
C518 H509 0.929 . S
C518 C510 1.378 . S
C518 C513 1.350 . S
C519 H506 0.929 . S
C519 C511 1.433 . S
C519 N521 1.384 . S
N520 C516 1.427 . S
N520 C517 1.384 . S
N521 C513 1.427 . S
N521 C519 1.384 . S
H522 C528 0.930 . S
H523 C532 0.930 . S
H524 C537 0.929 . S
H525 C535 0.929 . S
H526 C530 0.929 . S
H527 C536 0.929 . S
C528 H522 0.930 . S
C528 C529 1.367 . S
C528 C536 1.378 . S
C529 C528 1.367 . S
C529 C537 1.433 . S
C530 H526 0.929 . S
C530 C532 1.378 . S
C530 C534 1.350 . S
C531 C534 1.463 1_554 S
C531 C536 1.350 . S
C531 N539 1.427 . S
C532 H523 0.930 . S
C532 C530 1.378 . S
C532 C533 1.367 . S
C533 C532 1.367 . S
C533 C535 1.433 . S
C534 C530 1.350 . S
C534 C531 1.463 1_556 S
C534 N538 1.427 . S
C535 H525 0.929 . S
C535 C533 1.433 . S
C535 N538 1.384 . S
C536 H527 0.929 . S
C536 C528 1.378 . S
C536 C531 1.350 . S
C537 H524 0.929 . S
C537 C529 1.433 . S
C537 N539 1.384 . S
N538 C534 1.427 . S
N538 C535 1.384 . S
N539 C531 1.427 . S
N539 C537 1.384 . S
H540 C546 0.930 . S
H541 C550 0.930 . S
H542 C555 0.929 . S
H543 C553 0.929 . S
H544 C548 0.922 1_455 S
H545 C554 0.929 . S
C546 H540 0.930 . S
C546 C547 1.367 . S
C546 C554 1.378 . S
C547 C546 1.367 . S
C547 C555 1.433 1_655 S
C548 H544 0.922 1_655 S
C548 C550 1.378 . S
C548 C552 1.350 . S
C549 C552 1.463 . S
C549 C554 1.350 . S
C549 N557 1.427 1_655 S
C550 H541 0.930 . S
C550 C548 1.378 . S
C550 C551 1.367 . S
C551 C550 1.367 . S
C551 C553 1.433 . S
C552 C548 1.350 . S
C552 C549 1.463 . S
C552 N556 1.427 . S
C553 H543 0.929 . S
C553 C551 1.433 . S
C553 N556 1.384 . S
C554 H545 0.929 . S
C554 C546 1.378 . S
C554 C549 1.350 . S
C555 H542 0.929 . S
C555 C547 1.433 1_455 S
C555 N557 1.384 . S
N556 C552 1.427 . S
N556 C553 1.384 . S
N557 C549 1.427 1_455 S
N557 C555 1.384 . S
H558 C564 0.930 . S
H559 C568 0.930 . S
H560 C573 0.929 . S
H561 C571 0.929 . S
H562 C566 0.929 . S
H563 C572 0.929 . S
C564 H558 0.930 . S
C564 C565 1.367 1_545 S
C564 C572 1.378 . S
C565 C564 1.367 1_565 S
C565 C573 1.433 . S
C566 H562 0.929 . S
C566 C568 1.378 . S
C566 C570 1.350 . S
C567 C570 1.463 . S
C567 C572 1.350 1_565 S
C567 N575 1.427 . S
C568 H559 0.930 . S
C568 C566 1.378 . S
C568 C569 1.367 . S
C569 C568 1.367 . S
C569 C571 1.433 1_565 S
C570 C566 1.350 . S
C570 C567 1.463 . S
C570 N574 1.427 1_565 S
C571 H561 0.929 . S
C571 C569 1.433 1_545 S
C571 N574 1.384 . S
C572 H563 0.929 . S
C572 C564 1.378 . S
C572 C567 1.350 1_545 S
C573 H560 0.929 . S
C573 C565 1.433 . S
C573 N575 1.384 . S
N574 C570 1.427 1_545 S
N574 C571 1.384 . S
N575 C567 1.427 . S
N575 C573 1.384 . S
H576 C582 0.930 . S
H577 C586 0.930 . S
H578 C591 0.929 . S
H579 C589 0.929 . S
H580 C584 0.929 . S
H581 C590 0.929 . S
C582 H576 0.930 . S
C582 C583 1.367 . S
C582 C590 1.378 . S
C583 C582 1.367 . S
C583 C591 1.433 . S
C584 H580 0.929 . S
C584 C586 1.378 . S
C584 C588 1.350 . S
C585 C588 1.463 . S
C585 C590 1.350 . S
C585 N593 1.427 . S
C586 H577 0.930 . S
C586 C584 1.378 . S
C586 C587 1.367 . S
C587 C586 1.367 . S
C587 C589 1.433 . S
C588 C584 1.350 . S
C588 C585 1.463 . S
C588 N592 1.427 . S
C589 H579 0.929 . S
C589 C587 1.433 . S
C589 N592 1.384 . S
C590 H581 0.929 . S
C590 C582 1.378 . S
C590 C585 1.350 . S
C591 H578 0.929 . S
C591 C583 1.433 . S
C591 N593 1.384 . S
N592 C588 1.427 . S
N592 C589 1.384 . S
N593 C585 1.427 . S
N593 C591 1.384 . S
H594 C600 0.930 . S
H595 C604 0.930 . S
H596 C609 0.929 . S
H597 C607 0.929 . S
H598 C602 0.929 . S
H599 C608 0.929 . S
C600 H594 0.930 . S
C600 C601 1.367 . S
C600 C608 1.378 . S
C601 C600 1.367 . S
C601 C609 1.433 . S
C602 H598 0.929 . S
C602 C604 1.378 . S
C602 C606 1.350 . S
C603 C606 1.463 . S
C603 C608 1.350 . S
C603 N611 1.427 . S
C604 H595 0.930 . S
C604 C602 1.378 . S
C604 C605 1.367 . S
C605 C604 1.367 . S
C605 C607 1.433 . S
C606 C602 1.350 . S
C606 C603 1.463 . S
C606 N610 1.427 . S
C607 H597 0.929 . S
C607 C605 1.433 . S
C607 N610 1.384 . S
C608 H599 0.929 . S
C608 C600 1.378 . S
C608 C603 1.350 . S
C609 H596 0.929 . S
C609 C601 1.433 . S
C609 N611 1.384 . S
N610 C606 1.427 . S
N610 C607 1.384 . S
N611 C603 1.427 . S
N611 C609 1.384 . S
C187 C76 1.565 . S
C191 C104 1.589 . S
C209 C127 1.617 . S
C205 C87 1.588 . S
C227 C150 1.632 . S
C223 C54 1.606 . S
C245 C177 1.510 . S
C241 C65 1.562 . S
C263 C105 1.560 . S
C259 C32 1.534 1_556 S
C277 C43 1.485 . S
C281 C128 1.507 . S
C295 C10 1.472 . S
C299 C151 1.491 . S
C313 C21 1.566 . S
C317 C176 1.580 . S
C335 C106 0.400 . S
C331 C60 0.471 . S
C353 C129 0.419 . S
C349 C71 0.463 . S
C371 C152 0.447 . S
C367 C82 0.467 . S
C385 C49 0.569 . S
C389 C178 0.593 . S
C403 C16 0.678 . S
C407 C109 0.686 . S
C425 C132 0.668 . S
C421 C27 0.667 1_556 S
C443 C155 0.645 . S
C439 C38 0.620 . S
C457 C5 0.445 . S
C461 C175 0.408 . S
C475 C59 1.567 . S
C479 C107 1.548 . S
C493 C70 1.529 . S
C497 C130 1.530 . S
C515 C153 1.536 . S
C511 C81 1.537 . S
C533 C174 1.386 . S
C529 C48 1.342 . S
C547 C15 1.607 1_655 S
C551 C108 1.547 . S
C569 C131 1.501 . S
C565 C26 1.556 1_565 S
C587 C154 1.485 . S
C583 C37 1.533 . S
C601 C4 1.678 . S
C605 C173 1.728 . S
