# Generated by pormake.
# Topology eea, (3,6)-cn, num edge types: 1
# Building blocks:
#     Node 0, Type 0, BuildingBlock: BELTOD_clean_linker_0, # of connection points: 3
#     Node 1, Type 0, BuildingBlock: BELTOD_clean_linker_0, # of connection points: 3
#     Node 2, Type 0, BuildingBlock: BELTOD_clean_linker_0, # of connection points: 3
#     Node 3, Type 0, BuildingBlock: BELTOD_clean_linker_0, # of connection points: 3
#     Node 4, Type 0, BuildingBlock: BELTOD_clean_linker_0, # of connection points: 3
#     Node 5, Type 0, BuildingBlock: BELTOD_clean_linker_0, # of connection points: 3
#     Node 6, Type 0, BuildingBlock: BELTOD_clean_linker_0, # of connection points: 3
#     Node 7, Type 0, BuildingBlock: BELTOD_clean_linker_0, # of connection points: 3
#     Node 8, Type 0, BuildingBlock: BELTOD_clean_linker_0, # of connection points: 3
#     Node 9, Type 0, BuildingBlock: BELTOD_clean_linker_0, # of connection points: 3
#     Node 10, Type 0, BuildingBlock: BELTOD_clean_linker_0, # of connection points: 3
#     Node 11, Type 0, BuildingBlock: BELTOD_clean_linker_0, # of connection points: 3
#     Node 12, Type 0, BuildingBlock: BELTOD_clean_linker_0, # of connection points: 3
#     Node 13, Type 0, BuildingBlock: BELTOD_clean_linker_0, # of connection points: 3
#     Node 14, Type 0, BuildingBlock: BELTOD_clean_linker_0, # of connection points: 3
#     Node 15, Type 0, BuildingBlock: BELTOD_clean_linker_0, # of connection points: 3
#     Node 16, Type 0, BuildingBlock: BELTOD_clean_linker_0, # of connection points: 3
#     Node 17, Type 0, BuildingBlock: BELTOD_clean_linker_0, # of connection points: 3
#     Node 18, Type 1, BuildingBlock: KUMJIN_clean_sbu_0, # of connection points: 6
#     Node 19, Type 1, BuildingBlock: KUMJIN_clean_sbu_0, # of connection points: 6
#     Node 20, Type 1, BuildingBlock: KUMJIN_clean_sbu_0, # of connection points: 6
#     Node 21, Type 1, BuildingBlock: KUMJIN_clean_sbu_0, # of connection points: 6
#     Node 22, Type 1, BuildingBlock: KUMJIN_clean_sbu_0, # of connection points: 6
#     Node 23, Type 1, BuildingBlock: KUMJIN_clean_sbu_0, # of connection points: 6
#     Node 24, Type 1, BuildingBlock: KUMJIN_clean_sbu_0, # of connection points: 6
#     Node 25, Type 1, BuildingBlock: KUMJIN_clean_sbu_0, # of connection points: 6
#     Node 26, Type 1, BuildingBlock: KUMJIN_clean_sbu_0, # of connection points: 6
#     Edge 27, Type (0, 1), BuildingBlock: MIFKUJ_clean_linker_0, # of connection points: 2
#     Edge 28, Type (0, 1), BuildingBlock: MIFKUJ_clean_linker_0, # of connection points: 2
#     Edge 29, Type (0, 1), BuildingBlock: MIFKUJ_clean_linker_0, # of connection points: 2
#     Edge 30, Type (0, 1), BuildingBlock: MIFKUJ_clean_linker_0, # of connection points: 2
#     Edge 31, Type (0, 1), BuildingBlock: MIFKUJ_clean_linker_0, # of connection points: 2
#     Edge 32, Type (0, 1), BuildingBlock: MIFKUJ_clean_linker_0, # of connection points: 2
#     Edge 33, Type (0, 1), BuildingBlock: MIFKUJ_clean_linker_0, # of connection points: 2
#     Edge 34, Type (0, 1), BuildingBlock: MIFKUJ_clean_linker_0, # of connection points: 2
#     Edge 35, Type (0, 1), BuildingBlock: MIFKUJ_clean_linker_0, # of connection points: 2
#     Edge 36, Type (0, 1), BuildingBlock: MIFKUJ_clean_linker_0, # of connection points: 2
#     Edge 37, Type (0, 1), BuildingBlock: MIFKUJ_clean_linker_0, # of connection points: 2
#     Edge 38, Type (0, 1), BuildingBlock: MIFKUJ_clean_linker_0, # of connection points: 2
#     Edge 39, Type (0, 1), BuildingBlock: MIFKUJ_clean_linker_0, # of connection points: 2
#     Edge 40, Type (0, 1), BuildingBlock: MIFKUJ_clean_linker_0, # of connection points: 2
#     Edge 41, Type (0, 1), BuildingBlock: MIFKUJ_clean_linker_0, # of connection points: 2
#     Edge 42, Type (0, 1), BuildingBlock: MIFKUJ_clean_linker_0, # of connection points: 2
#     Edge 43, Type (0, 1), BuildingBlock: MIFKUJ_clean_linker_0, # of connection points: 2
#     Edge 44, Type (0, 1), BuildingBlock: MIFKUJ_clean_linker_0, # of connection points: 2
#     Edge 45, Type (0, 1), BuildingBlock: MIFKUJ_clean_linker_0, # of connection points: 2
#     Edge 46, Type (0, 1), BuildingBlock: MIFKUJ_clean_linker_0, # of connection points: 2
#     Edge 47, Type (0, 1), BuildingBlock: MIFKUJ_clean_linker_0, # of connection points: 2
#     Edge 48, Type (0, 1), BuildingBlock: MIFKUJ_clean_linker_0, # of connection points: 2
#     Edge 49, Type (0, 1), BuildingBlock: MIFKUJ_clean_linker_0, # of connection points: 2
#     Edge 50, Type (0, 1), BuildingBlock: MIFKUJ_clean_linker_0, # of connection points: 2
#     Edge 51, Type (0, 1), BuildingBlock: MIFKUJ_clean_linker_0, # of connection points: 2
#     Edge 52, Type (0, 1), BuildingBlock: MIFKUJ_clean_linker_0, # of connection points: 2
#     Edge 53, Type (0, 1), BuildingBlock: MIFKUJ_clean_linker_0, # of connection points: 2
#     Edge 54, Type (0, 1), BuildingBlock: MIFKUJ_clean_linker_0, # of connection points: 2
#     Edge 55, Type (0, 1), BuildingBlock: MIFKUJ_clean_linker_0, # of connection points: 2
#     Edge 56, Type (0, 1), BuildingBlock: MIFKUJ_clean_linker_0, # of connection points: 2
#     Edge 57, Type (0, 1), BuildingBlock: MIFKUJ_clean_linker_0, # of connection points: 2
#     Edge 58, Type (0, 1), BuildingBlock: MIFKUJ_clean_linker_0, # of connection points: 2
#     Edge 59, Type (0, 1), BuildingBlock: MIFKUJ_clean_linker_0, # of connection points: 2
#     Edge 60, Type (0, 1), BuildingBlock: MIFKUJ_clean_linker_0, # of connection points: 2
#     Edge 61, Type (0, 1), BuildingBlock: MIFKUJ_clean_linker_0, # of connection points: 2
#     Edge 62, Type (0, 1), BuildingBlock: MIFKUJ_clean_linker_0, # of connection points: 2
#     Edge 63, Type (0, 1), BuildingBlock: MIFKUJ_clean_linker_0, # of connection points: 2
#     Edge 64, Type (0, 1), BuildingBlock: MIFKUJ_clean_linker_0, # of connection points: 2
#     Edge 65, Type (0, 1), BuildingBlock: MIFKUJ_clean_linker_0, # of connection points: 2
#     Edge 66, Type (0, 1), BuildingBlock: MIFKUJ_clean_linker_0, # of connection points: 2
#     Edge 67, Type (0, 1), BuildingBlock: MIFKUJ_clean_linker_0, # of connection points: 2
#     Edge 68, Type (0, 1), BuildingBlock: MIFKUJ_clean_linker_0, # of connection points: 2
#     Edge 69, Type (0, 1), BuildingBlock: MIFKUJ_clean_linker_0, # of connection points: 2
#     Edge 70, Type (0, 1), BuildingBlock: MIFKUJ_clean_linker_0, # of connection points: 2
#     Edge 71, Type (0, 1), BuildingBlock: MIFKUJ_clean_linker_0, # of connection points: 2
#     Edge 72, Type (0, 1), BuildingBlock: MIFKUJ_clean_linker_0, # of connection points: 2
#     Edge 73, Type (0, 1), BuildingBlock: MIFKUJ_clean_linker_0, # of connection points: 2
#     Edge 74, Type (0, 1), BuildingBlock: MIFKUJ_clean_linker_0, # of connection points: 2
#     Edge 75, Type (0, 1), BuildingBlock: MIFKUJ_clean_linker_0, # of connection points: 2
#     Edge 76, Type (0, 1), BuildingBlock: MIFKUJ_clean_linker_0, # of connection points: 2
#     Edge 77, Type (0, 1), BuildingBlock: MIFKUJ_clean_linker_0, # of connection points: 2
#     Edge 78, Type (0, 1), BuildingBlock: MIFKUJ_clean_linker_0, # of connection points: 2
#     Edge 79, Type (0, 1), BuildingBlock: MIFKUJ_clean_linker_0, # of connection points: 2
#     Edge 80, Type (0, 1), BuildingBlock: MIFKUJ_clean_linker_0, # of connection points: 2
# Relax obj value: 0.009
# Max RMSD: 0.092
# Mean RMSD: 0.060
data_MOF--net-eea--node1-KUMJIN_clean_sbu_0--node2-BELTOD_clean_linker_0--edge1-MIFKUJ_clean_linker_0
_symmetry_space_group_name_H-M    P1
_symmetry_Int_Tables_number       1
_symmetry_cell_setting            triclinic
loop_
_symmetry_equiv_pos_as_xyz
'x, y, z'
_cell_length_a     74.704786
_cell_length_b     75.621106
_cell_length_c     100.56728
_cell_angle_alpha  90.770814
_cell_angle_beta   90.31347
_cell_angle_gamma 120.07714
loop_
_atom_site_label
_atom_site_type_symbol
_atom_site_fract_x
_atom_site_fract_y
_atom_site_fract_z
_atom_type_partial_charge
P0 P 0.28485 0.14577 0.41241 0.0
H1 H 0.28979 0.12839 0.38759 0.0
H2 H 0.27243 0.09357 0.37822 0.0
H3 H 0.23242 0.07245 0.41223 0.0
H4 H 0.24962 0.10741 0.42144 0.0
H5 H 0.293 0.1745 0.39111 0.0
H6 H 0.27491 0.19179 0.38322 0.0
H7 H 0.22865 0.16204 0.41333 0.0
H8 H 0.24704 0.14482 0.42125 0.0
H9 H 0.28932 0.11832 0.43053 0.0
H10 H 0.28665 0.17388 0.43349 0.0
O11 O 0.30894 0.15787 0.40666 0.0
H12 H 0.29423 0.11902 0.45455 0.0
H13 H 0.2923 0.17512 0.45752 0.0
C14 C 0.27142 0.12029 0.4054 0.0
C15 C 0.27728 0.11626 0.39303 0.0
C16 C 0.26727 0.09642 0.38764 0.0
C17 C 0.25126 0.08032 0.39459 0.0
C18 C 0.24495 0.08455 0.40678 0.0
C19 C 0.25478 0.10447 0.41206 0.0
C20 C 0.2716 0.15877 0.40695 0.0
C21 C 0.27905 0.17179 0.39608 0.0
C22 C 0.26858 0.18152 0.3915 0.0
C23 C 0.25036 0.17829 0.39766 0.0
C24 C 0.24279 0.16503 0.40849 0.0
C25 C 0.25325 0.15518 0.41301 0.0
C26 C 0.28683 0.14562 0.43026 0.0
C27 C 0.28945 0.13051 0.43638 0.0
C28 C 0.29255 0.13108 0.45012 0.0
C29 C 0.2936 0.1471 0.458 0.0
C30 C 0.29113 0.16233 0.4518 0.0
C31 C 0.28791 0.16166 0.43804 0.0
P32 P 0.91109 0.09949 0.43774 0.0
H33 H 0.90568 0.08681 0.40965 0.0
H34 H 0.87614 0.06056 0.39686 0.0
H35 H 0.83812 0.04628 0.43174 0.0
H36 H 0.86756 0.07274 0.44436 0.0
H37 H 0.95605 0.12126 0.43901 0.0
H38 H 0.98269 0.14926 0.42636 0.0
H39 H 0.9353 0.1524 0.40339 0.0
H40 H 0.90866 0.12466 0.41648 0.0
H41 H 0.92294 0.10388 0.46584 0.0
H42 H 0.88421 0.11715 0.44088 0.0
O43 O 0.92143 0.08573 0.4431 0.0
H44 H 0.9121 0.11529 0.4854 0.0
H45 H 0.87274 0.12812 0.46051 0.0
C46 C 0.88868 0.08228 0.42784 0.0
C47 C 0.89085 0.07841 0.41444 0.0
C48 C 0.87399 0.06321 0.40718 0.0
C49 C 0.85471 0.05134 0.41325 0.0
C50 C 0.8526 0.05539 0.42667 0.0
C51 C 0.86947 0.07058 0.43391 0.0
C52 C 0.9304 0.12052 0.42842 0.0
C53 C 0.95138 0.12792 0.43122 0.0
C54 C 0.96662 0.14389 0.42391 0.0
C55 C 0.96119 0.1529 0.41367 0.0
C56 C 0.94007 0.14587 0.4112 0.0
C57 C 0.9248 0.1299 0.4186 0.0
C58 C 0.90403 0.10928 0.45196 0.0
C59 C 0.91202 0.10919 0.46457 0.0
C60 C 0.9057 0.11562 0.47578 0.0
C61 C 0.89127 0.12232 0.47458 0.0
C62 C 0.88391 0.12312 0.46181 0.0
C63 C 0.89035 0.11675 0.45058 0.0
P64 P 0.87499 0.7571 0.41887 0.0
H65 H 0.87345 0.7727 0.39277 0.0
H66 H 0.85239 0.78631 0.38364 0.0
H67 H 0.82861 0.78569 0.42273 0.0
H68 H 0.85009 0.77279 0.4319 0.0
H69 H 0.90062 0.73852 0.41645 0.0
H70 H 0.93543 0.75054 0.40824 0.0
H71 H 0.94297 0.8104 0.4023 0.0
H72 H 0.90782 0.79805 0.41044 0.0
H73 H 0.83881 0.73371 0.43506 0.0
H74 H 0.90468 0.77036 0.4416 0.0
O75 O 0.86151 0.73418 0.41144 0.0
H76 H 0.83397 0.72572 0.45858 0.0
H77 H 0.90019 0.76141 0.46509 0.0
C78 C 0.86345 0.77171 0.41303 0.0
C79 C 0.86419 0.77608 0.39946 0.0
C80 C 0.85211 0.78381 0.39423 0.0
C81 C 0.83873 0.78688 0.40247 0.0
C82 C 0.83864 0.78328 0.41614 0.0
C83 C 0.85098 0.77589 0.42139 0.0
C84 C 0.90149 0.76726 0.41383 0.0
C85 C 0.90979 0.75426 0.41344 0.0
C86 C 0.9298 0.76123 0.40882 0.0
C87 C 0.94205 0.78145 0.40454 0.0
C88 C 0.93386 0.79465 0.40533 0.0
C89 C 0.91379 0.78764 0.41001 0.0
C90 C 0.87206 0.75262 0.43654 0.0
C91 C 0.85227 0.74001 0.44159 0.0
C92 C 0.84957 0.73525 0.45507 0.0
C93 C 0.8667 0.74262 0.46383 0.0
C94 C 0.88658 0.75557 0.45874 0.0
C95 C 0.88921 0.7606 0.44524 0.0
P96 P 0.12229 0.25027 0.59181 0.0
H97 H 0.11065 0.2567 0.61815 0.0
H98 H 0.07734 0.24631 0.62842 0.0
H99 H 0.04581 0.21052 0.59323 0.0
H100 H 0.07937 0.22092 0.58302 0.0
H101 H 0.16418 0.26008 0.58605 0.0
H102 H 0.1868 0.24835 0.59485 0.0
H103 H 0.13743 0.20586 0.61986 0.0
H104 H 0.11456 0.21721 0.61053 0.0
H105 H 0.1066 0.26941 0.57397 0.0
H106 H 0.13312 0.23043 0.57012 0.0
O107 O 0.13557 0.27494 0.59629 0.0
H108 H 0.10853 0.27406 0.5499 0.0
H109 H 0.13533 0.23523 0.54606 0.0
C110 C 0.09748 0.23987 0.59975 0.0
C111 C 0.09657 0.24647 0.61268 0.0
C112 C 0.07751 0.24061 0.61851 0.0
C113 C 0.0589 0.22786 0.61156 0.0
C114 C 0.05986 0.22036 0.59884 0.0
C115 C 0.07902 0.22634 0.59297 0.0
C116 C 0.13764 0.23944 0.59754 0.0
C117 C 0.15811 0.24801 0.59328 0.0
C118 C 0.17112 0.24143 0.59846 0.0
C119 C 0.16409 0.22631 0.60823 0.0
C120 C 0.14335 0.21741 0.61229 0.0
C121 C 0.13025 0.22394 0.60699 0.0
C122 C 0.12 0.24985 0.57389 0.0
C123 C 0.1125 0.26156 0.56792 0.0
C124 C 0.11357 0.26416 0.55414 0.0
C125 C 0.1223 0.25519 0.54607 0.0
C126 C 0.12881 0.24259 0.55203 0.0
C127 C 0.12754 0.23983 0.56581 0.0
P128 P 0.80973 0.90359 0.57262 0.0
H129 H 0.82804 0.9237 0.59804 0.0
H130 H 0.82672 0.95059 0.61095 0.0
H131 H 0.78732 0.95398 0.58063 0.0
H132 H 0.78803 0.92661 0.56813 0.0
H133 H 0.81466 0.8688 0.56642 0.0
H134 H 0.80972 0.83945 0.57929 0.0
H135 H 0.78759 0.85999 0.61226 0.0
H136 H 0.7919 0.88894 0.59922 0.0
H137 H 0.81746 0.91037 0.54413 0.0
H138 H 0.76477 0.87958 0.56965 0.0
O139 O 0.83415 0.91411 0.56757 0.0
H140 H 0.79454 0.90041 0.52474 0.0
H141 H 0.74153 0.8701 0.55028 0.0
C142 C 0.80772 0.92274 0.5823 0.0
C143 C 0.81884 0.93003 0.5943 0.0
C144 C 0.81824 0.94557 0.6016 0.0
C145 C 0.80685 0.95447 0.59687 0.0
C146 C 0.79587 0.94721 0.58475 0.0
C147 C 0.79633 0.93153 0.57753 0.0
C148 C 0.80417 0.88133 0.58197 0.0
C149 C 0.80856 0.86688 0.57637 0.0
C150 C 0.80564 0.85009 0.58369 0.0
C151 C 0.79844 0.8476 0.59679 0.0
C152 C 0.79341 0.86174 0.60224 0.0
C153 C 0.79599 0.87835 0.5948 0.0
C154 C 0.79278 0.89558 0.55829 0.0
C155 C 0.80092 0.90144 0.54556 0.0
C156 C 0.78775 0.89589 0.53447 0.0
C157 C 0.76614 0.88454 0.53593 0.0
C158 C 0.75807 0.87861 0.54876 0.0
C159 C 0.7713 0.88407 0.55985 0.0
P160 P 0.11633 0.86572 0.59336 0.0
H161 H 0.14098 0.88357 0.61751 0.0
H162 H 0.16076 0.91858 0.62618 0.0
H163 H 0.1387 0.93924 0.59341 0.0
H164 H 0.11901 0.90403 0.58472 0.0
H165 H 0.09014 0.82196 0.59655 0.0
H166 H 0.05572 0.80075 0.60568 0.0
H167 H 0.05114 0.85472 0.61322 0.0
H168 H 0.08575 0.87593 0.60402 0.0
H169 H 0.14768 0.89192 0.57452 0.0
H170 H 0.0865 0.83885 0.57271 0.0
O171 O 0.12999 0.85489 0.59813 0.0
H172 H 0.15059 0.8896 0.55045 0.0
H173 H 0.08947 0.83634 0.54867 0.0
C174 C 0.12898 0.89132 0.6003 0.0
C175 C 0.1403 0.89561 0.61222 0.0
C176 C 0.15149 0.91564 0.61723 0.0
C177 C 0.15146 0.93175 0.61043 0.0
C178 C 0.13933 0.92722 0.59876 0.0
C179 C 0.12804 0.90712 0.5938 0.0
C180 C 0.09059 0.85051 0.59975 0.0
C181 C 0.08173 0.82924 0.60015 0.0
C182 C 0.06198 0.81712 0.60528 0.0
C183 C 0.0507 0.82606 0.61018 0.0
C184 C 0.05955 0.84742 0.60964 0.0
C185 C 0.07929 0.85954 0.60436 0.0
C186 C 0.1167 0.86585 0.57543 0.0
C187 C 0.13465 0.88009 0.56892 0.0
C188 C 0.13632 0.87874 0.55515 0.0
C189 C 0.12023 0.86282 0.54767 0.0
C190 C 0.10213 0.84874 0.55419 0.0
C191 C 0.10039 0.85025 0.56795 0.0
P192 P 0.9491 0.47788 0.74732 0.0
H193 H 0.95166 0.45901 0.72257 0.0
H194 H 0.93426 0.42354 0.71433 0.0
H195 H 0.89907 0.40404 0.75043 0.0
H196 H 0.91598 0.43963 0.75846 0.0
H197 H 0.96064 0.50913 0.72712 0.0
H198 H 0.94331 0.52663 0.71826 0.0
H199 H 0.89127 0.49133 0.74371 0.0
H200 H 0.90892 0.474 0.75266 0.0
H201 H 0.95475 0.45369 0.76764 0.0
H202 H 0.94873 0.50748 0.76632 0.0
O203 O 0.97331 0.48915 0.74179 0.0
H204 H 0.95886 0.45741 0.79184 0.0
H205 H 0.95303 0.51136 0.7905 0.0
C206 C 0.93565 0.45182 0.74132 0.0
C207 C 0.94019 0.4471 0.72871 0.0
C208 C 0.93018 0.4269 0.72398 0.0
C209 C 0.91555 0.41111 0.73184 0.0
C210 C 0.91054 0.41595 0.7443 0.0
C211 C 0.92027 0.43623 0.7489 0.0
C212 C 0.93614 0.49048 0.74065 0.0
C213 C 0.94552 0.50516 0.73081 0.0
C214 C 0.93552 0.51505 0.72568 0.0
C215 C 0.91593 0.51039 0.7303 0.0
C216 C 0.90647 0.49544 0.74008 0.0
C217 C 0.91647 0.48549 0.74515 0.0
C218 C 0.95062 0.47984 0.76521 0.0
C219 C 0.95384 0.46603 0.77257 0.0
C220 C 0.95622 0.46818 0.7864 0.0
C221 C 0.95601 0.48453 0.79305 0.0
C222 C 0.95316 0.49856 0.78562 0.0
C223 C 0.95055 0.49626 0.77181 0.0
P224 P 0.57643 0.43301 0.773 0.0
H225 H 0.56917 0.39399 0.76196 0.0
H226 H 0.54054 0.36678 0.74916 0.0
H227 H 0.51044 0.40287 0.74787 0.0
H228 H 0.53916 0.43002 0.76089 0.0
H229 H 0.61843 0.44486 0.76505 0.0
H230 H 0.64358 0.4719 0.75115 0.0
H231 H 0.6001 0.49277 0.74407 0.0
H232 H 0.57502 0.46572 0.75837 0.0
H233 H 0.53822 0.41189 0.78788 0.0
H234 H 0.59186 0.47231 0.78733 0.0
O235 O 0.58837 0.4223 0.78071 0.0
H236 H 0.52517 0.42169 0.80707 0.0
H237 H 0.57873 0.48236 0.80656 0.0
C238 C 0.55609 0.41385 0.76256 0.0
C239 C 0.55645 0.3961 0.7589 0.0
C240 C 0.5401 0.38058 0.7515 0.0
C241 C 0.5231 0.38257 0.74757 0.0
C242 C 0.52312 0.40071 0.75093 0.0
C243 C 0.53957 0.41628 0.7583 0.0
C244 C 0.59493 0.45342 0.76287 0.0
C245 C 0.61429 0.45529 0.76059 0.0
C246 C 0.62863 0.47069 0.7525 0.0
C247 C 0.62387 0.4845 0.74641 0.0
C248 C 0.60437 0.48254 0.74871 0.0
C249 C 0.58999 0.46706 0.75683 0.0
C250 C 0.5657 0.44155 0.7859 0.0
C251 C 0.54694 0.42746 0.79167 0.0
C252 C 0.53948 0.43309 0.80268 0.0
C253 C 0.55082 0.45286 0.80831 0.0
C254 C 0.56965 0.46699 0.80249 0.0
C255 C 0.57707 0.46133 0.79141 0.0
P256 P 0.54029 0.08765 0.75166 0.0
H257 H 0.51894 0.0796 0.72609 0.0
H258 H 0.497 0.09141 0.71615 0.0
H259 H 0.50949 0.13222 0.74984 0.0
H260 H 0.53182 0.12052 0.75963 0.0
H261 H 0.57044 0.07451 0.75491 0.0
H262 H 0.60455 0.08597 0.74579 0.0
H263 H 0.60131 0.13421 0.72528 0.0
H264 H 0.56751 0.12322 0.73513 0.0
H265 H 0.50555 0.07786 0.76887 0.0
H266 H 0.5701 0.09689 0.774 0.0
O267 O 0.52793 0.063 0.7471 0.0
H268 H 0.5005 0.07254 0.79271 0.0
H269 H 0.56495 0.09037 0.7977 0.0
C270 C 0.5266 0.09881 0.74375 0.0
C271 C 0.51709 0.09121 0.7313 0.0
C272 C 0.50444 0.0979 0.72566 0.0
C273 C 0.50111 0.11247 0.73231 0.0
C274 C 0.51167 0.12096 0.74445 0.0
C275 C 0.52436 0.11422 0.7501 0.0
C276 C 0.56647 0.09807 0.74582 0.0
C277 C 0.57724 0.0878 0.74865 0.0
C278 C 0.59668 0.09423 0.74324 0.0
C279 C 0.60571 0.11088 0.73458 0.0
C280 C 0.59501 0.12145 0.73197 0.0
C281 C 0.57558 0.11512 0.73757 0.0
C282 C 0.5382 0.08787 0.76957 0.0
C283 C 0.51873 0.08116 0.77515 0.0
C284 C 0.5158 0.07782 0.7888 0.0
C285 C 0.53222 0.08066 0.79721 0.0
C286 C 0.55193 0.08814 0.79163 0.0
C287 C 0.55489 0.09174 0.77797 0.0
P288 P 0.7895 0.58425 0.92813 0.0
H289 H 0.76996 0.56446 0.95298 0.0
H290 H 0.73492 0.55129 0.9614 0.0
H291 H 0.71563 0.56255 0.92345 0.0
H292 H 0.75048 0.57527 0.91499 0.0
H293 H 0.83315 0.59936 0.92525 0.0
H294 H 0.85603 0.58667 0.93185 0.0
H295 H 0.80346 0.53159 0.94624 0.0
H296 H 0.7805 0.54402 0.9389 0.0
H297 H 0.80445 0.6226 0.91398 0.0
H298 H 0.77996 0.55893 0.90382 0.0
O299 O 0.80006 0.60625 0.93677 0.0
H300 H 0.8093 0.63111 0.89052 0.0
H301 H 0.78491 0.56742 0.8801 0.0
C302 C 0.76279 0.57023 0.9332 0.0
C303 C 0.75801 0.56333 0.94629 0.0
C304 C 0.738 0.55593 0.95113 0.0
C305 C 0.72253 0.55588 0.94308 0.0
C306 C 0.72725 0.56244 0.92989 0.0
C307 C 0.74717 0.56954 0.92501 0.0
C308 C 0.80517 0.57288 0.93183 0.0
C309 C 0.8265 0.58444 0.9297 0.0
C310 C 0.83961 0.57722 0.93361 0.0
C311 C 0.83172 0.55827 0.93988 0.0
C312 C 0.81014 0.54626 0.94146 0.0
C313 C 0.79696 0.55346 0.9374 0.0
C314 C 0.79195 0.59013 0.91066 0.0
C315 C 0.80009 0.61041 0.9067 0.0
C316 C 0.80297 0.61529 0.89325 0.0
C317 C 0.79769 0.59998 0.88343 0.0
C318 C 0.78906 0.57955 0.88741 0.0
C319 C 0.78629 0.57469 0.90094 0.0
P320 P 0.48397 0.24537 0.90241 0.0
H321 H 0.5025 0.26401 0.92806 0.0
H322 H 0.50051 0.28942 0.94222 0.0
H323 H 0.45806 0.29201 0.91395 0.0
H324 H 0.45916 0.26581 0.90037 0.0
H325 H 0.49852 0.21695 0.89677 0.0
H326 H 0.49617 0.18801 0.90872 0.0
H327 H 0.4619 0.19759 0.93976 0.0
H328 H 0.46347 0.22587 0.92737 0.0
H329 H 0.48264 0.26565 0.87842 0.0
H330 H 0.44572 0.20656 0.896 0.0
O331 O 0.50786 0.25807 0.89638 0.0
H332 H 0.45841 0.25486 0.85952 0.0
H333 H 0.42169 0.19556 0.87695 0.0
C334 C 0.48088 0.26284 0.91321 0.0
C335 C 0.4925 0.26983 0.92505 0.0
C336 C 0.49152 0.28456 0.93306 0.0
C337 C 0.47922 0.29295 0.92923 0.0
C338 C 0.46745 0.28572 0.91737 0.0
C339 C 0.46822 0.27077 0.90948 0.0
C340 C 0.48169 0.22388 0.91137 0.0
C341 C 0.49053 0.2128 0.90616 0.0
C342 C 0.48926 0.19632 0.91306 0.0
C343 C 0.47914 0.19062 0.92535 0.0
C344 C 0.46975 0.20146 0.93033 0.0
C345 C 0.47085 0.21782 0.92332 0.0
C346 C 0.46609 0.23686 0.88853 0.0
C347 C 0.46939 0.25032 0.87817 0.0
C348 C 0.4555 0.2442 0.86743 0.0
C349 C 0.43823 0.22439 0.86681 0.0
C350 C 0.43499 0.21087 0.87718 0.0
C351 C 0.44871 0.21715 0.88805 0.0
P352 P 0.79021 0.19253 0.92901 0.0
H353 H 0.80122 0.20873 0.956 0.0
H354 H 0.82097 0.24342 0.9653 0.0
H355 H 0.82774 0.26771 0.92581 0.0
H356 H 0.80752 0.233 0.91665 0.0
H357 H 0.75946 0.1497 0.92581 0.0
H358 H 0.72413 0.12898 0.93377 0.0
H359 H 0.72674 0.18326 0.95035 0.0
H360 H 0.76193 0.20395 0.94209 0.0
H361 H 0.82205 0.1922 0.91271 0.0
H362 H 0.76516 0.19263 0.90636 0.0
O363 O 0.80171 0.18073 0.93584 0.0
H364 H 0.82643 0.19136 0.88876 0.0
H365 H 0.76968 0.19235 0.88224 0.0
C366 C 0.8031 0.21828 0.93565 0.0
C367 C 0.80682 0.22155 0.94937 0.0
C368 C 0.81822 0.24139 0.95466 0.0
C369 C 0.82616 0.25837 0.94628 0.0
C370 C 0.82175 0.25501 0.93255 0.0
C371 C 0.81028 0.23512 0.92728 0.0
C372 C 0.76338 0.17828 0.9335 0.0
C373 C 0.75232 0.15715 0.93103 0.0
C374 C 0.73219 0.14533 0.93566 0.0
C375 C 0.72272 0.15443 0.94287 0.0
C376 C 0.73356 0.17579 0.9448 0.0
C377 C 0.75375 0.18763 0.94015 0.0
C378 C 0.79308 0.19205 0.91128 0.0
C379 C 0.81048 0.1921 0.90613 0.0
C380 C 0.81306 0.19184 0.89241 0.0
C381 C 0.7984 0.19179 0.88353 0.0
C382 C 0.7811 0.19207 0.88877 0.0
C383 C 0.77851 0.19229 0.90255 0.0
P384 P 0.60818 0.8086 0.08065 0.0
H385 H 0.60602 0.79115 0.05436 0.0
H386 H 0.58685 0.75617 0.0453 0.0
H387 H 0.55697 0.73503 0.08306 0.0
H388 H 0.57574 0.77012 0.09197 0.0
H389 H 0.62297 0.84481 0.06428 0.0
H390 H 0.6069 0.86411 0.05663 0.0
H391 H 0.55135 0.82375 0.07788 0.0
H392 H 0.56775 0.80452 0.08565 0.0
H393 H 0.61736 0.78367 0.09804 0.0
H394 H 0.60679 0.83452 0.10231 0.0
O395 O 0.63182 0.8187 0.07429 0.0
H396 H 0.62312 0.78436 0.12198 0.0
H397 H 0.61329 0.83583 0.12623 0.0
C398 C 0.59281 0.78307 0.07395 0.0
C399 C 0.59524 0.779 0.06066 0.0
C400 C 0.5842 0.75907 0.05547 0.0
C401 C 0.57062 0.74293 0.06354 0.0
C402 C 0.56757 0.7472 0.0767 0.0
C403 C 0.57837 0.76721 0.08181 0.0
C404 C 0.59652 0.82326 0.07553 0.0
C405 C 0.60737 0.84012 0.06734 0.0
C406 C 0.5981 0.85107 0.0629 0.0
C407 C 0.57779 0.84536 0.06657 0.0
C408 C 0.56706 0.82858 0.07495 0.0
C409 C 0.57635 0.81756 0.07936 0.0
C410 C 0.61108 0.80866 0.09844 0.0
C411 C 0.61608 0.79487 0.10417 0.0
C412 C 0.61961 0.79544 0.11785 0.0
C413 C 0.61867 0.81016 0.12607 0.0
C414 C 0.61376 0.82405 0.12025 0.0
C415 C 0.61008 0.82335 0.10655 0.0
P416 P 0.24638 0.76524 0.10277 0.0
H417 H 0.23994 0.7525 0.07469 0.0
H418 H 0.20992 0.72637 0.06222 0.0
H419 H 0.17319 0.71218 0.09771 0.0
H420 H 0.20309 0.73863 0.11 0.0
H421 H 0.29136 0.78727 0.10318 0.0
H422 H 0.31727 0.81506 0.09003 0.0
H423 H 0.26863 0.81773 0.06825 0.0
H424 H 0.24276 0.79022 0.08185 0.0
H425 H 0.25707 0.76707 0.13096 0.0
H426 H 0.2213 0.78474 0.10648 0.0
O427 O 0.25707 0.75157 0.10767 0.0
H428 H 0.24641 0.77796 0.15084 0.0
H429 H 0.2101 0.79533 0.12644 0.0
C430 C 0.22361 0.74803 0.09317 0.0
C431 C 0.22529 0.74415 0.0797 0.0
C432 C 0.20815 0.729 0.07261 0.0
C433 C 0.18909 0.71719 0.07895 0.0
C434 C 0.18748 0.72125 0.09244 0.0
C435 C 0.20461 0.73642 0.09949 0.0
C436 C 0.26515 0.78632 0.09324 0.0
C437 C 0.28626 0.7938 0.09556 0.0
C438 C 0.30107 0.80965 0.08796 0.0
C439 C 0.29507 0.81843 0.07789 0.0
C440 C 0.27383 0.81136 0.07592 0.0
C441 C 0.259 0.79552 0.08361 0.0
C442 C 0.23971 0.77482 0.11728 0.0
C443 C 0.24689 0.77329 0.12986 0.0
C444 C 0.24068 0.77943 0.14125 0.0
C445 C 0.22716 0.78726 0.14027 0.0
C446 C 0.22059 0.78945 0.12756 0.0
C447 C 0.22688 0.78333 0.11615 0.0
P448 P 0.20789 0.42174 0.08603 0.0
H449 H 0.20374 0.43428 0.05953 0.0
H450 H 0.18321 0.44866 0.05071 0.0
H451 H 0.1676 0.45687 0.09069 0.0
H452 H 0.1887 0.44324 0.09949 0.0
H453 H 0.22943 0.40099 0.07655 0.0
H454 H 0.26423 0.41292 0.0686 0.0
H455 H 0.2797 0.47541 0.07642 0.0
H456 H 0.24423 0.46316 0.08398 0.0
H457 H 0.17172 0.40412 0.10279 0.0
H458 H 0.23734 0.42881 0.10814 0.0
O459 O 0.19336 0.39885 0.07874 0.0
H460 H 0.16642 0.39595 0.12625 0.0
H461 H 0.2321 0.41943 0.13153 0.0
C462 C 0.19752 0.43733 0.08015 0.0
C463 C 0.1964 0.43973 0.06642 0.0
C464 C 0.18465 0.44793 0.06139 0.0
C465 C 0.17358 0.4536 0.07002 0.0
C466 C 0.17575 0.45234 0.08381 0.0
C467 C 0.1878 0.44447 0.08884 0.0
C468 C 0.23413 0.4312 0.08066 0.0
C469 C 0.24024 0.41728 0.07651 0.0
C470 C 0.26032 0.42416 0.07208 0.0
C471 C 0.27494 0.44518 0.07186 0.0
C472 C 0.26882 0.45914 0.07625 0.0
C473 C 0.24859 0.45218 0.08065 0.0
C474 C 0.20493 0.41739 0.10372 0.0
C475 C 0.18504 0.40787 0.10906 0.0
C476 C 0.18201 0.40292 0.1225 0.0
C477 C 0.19878 0.40678 0.1309 0.0
C478 C 0.2188 0.41645 0.1255 0.0
C479 C 0.22184 0.42175 0.11204 0.0
P480 P 0.45553 0.91553 0.2592 0.0
H481 H 0.43867 0.90337 0.28579 0.0
H482 H 0.40442 0.89211 0.29502 0.0
H483 H 0.38103 0.89257 0.25577 0.0
H484 H 0.41511 0.90333 0.24653 0.0
H485 H 0.49754 0.92536 0.25392 0.0
H486 H 0.51887 0.91138 0.26171 0.0
H487 H 0.46601 0.86333 0.2815 0.0
H488 H 0.44465 0.87723 0.27348 0.0
H489 H 0.45975 0.94977 0.24382 0.0
H490 H 0.45248 0.8904 0.23571 0.0
O491 O 0.46848 0.93843 0.26673 0.0
H492 H 0.46202 0.9565 0.22009 0.0
H493 H 0.4542 0.89677 0.21176 0.0
C494 C 0.42944 0.90377 0.26543 0.0
C495 C 0.42603 0.90044 0.2791 0.0
C496 C 0.40646 0.89408 0.28438 0.0
C497 C 0.39005 0.89147 0.27611 0.0
C498 C 0.39341 0.89454 0.26238 0.0
C499 C 0.41291 0.90057 0.25708 0.0
C500 C 0.46956 0.90253 0.26323 0.0
C501 C 0.49043 0.91159 0.25973 0.0
C502 C 0.50261 0.90354 0.26417 0.0
C503 C 0.49419 0.88632 0.27233 0.0
C504 C 0.47302 0.87678 0.27539 0.0
C505 C 0.46078 0.88474 0.2708 0.0
C506 C 0.45635 0.91976 0.24153 0.0
C507 C 0.45859 0.93813 0.2369 0.0
C508 C 0.45967 0.94188 0.22328 0.0
C509 C 0.45831 0.9272 0.21395 0.0
C510 C 0.45562 0.90855 0.21865 0.0
C511 C 0.45455 0.90484 0.23233 0.0
P512 P 0.15655 0.57963 0.23812 0.0
H513 H 0.1718 0.59641 0.26468 0.0
H514 H 0.16817 0.62102 0.27873 0.0
H515 H 0.12863 0.62488 0.24874 0.0
H516 H 0.13168 0.5998 0.23506 0.0
H517 H 0.17806 0.55652 0.23577 0.0
H518 H 0.17581 0.5278 0.24798 0.0
H519 H 0.12721 0.52617 0.272 0.0
H520 H 0.12989 0.55525 0.25987 0.0
H521 H 0.15722 0.59926 0.21335 0.0
H522 H 0.11772 0.54145 0.23174 0.0
O523 O 0.18075 0.59334 0.23272 0.0
H524 H 0.13362 0.58882 0.19425 0.0
H525 H 0.09448 0.53044 0.21242 0.0
C526 C 0.15189 0.5961 0.24888 0.0
C527 C 0.16208 0.60233 0.26125 0.0
C528 C 0.16014 0.61655 0.26921 0.0
C529 C 0.14817 0.62504 0.26486 0.0
C530 C 0.13772 0.61847 0.25252 0.0
C531 C 0.13958 0.60415 0.24461 0.0
C532 C 0.15446 0.55826 0.24712 0.0
C533 C 0.167 0.55005 0.24372 0.0
C534 C 0.16557 0.53351 0.25064 0.0
C535 C 0.15139 0.52473 0.26103 0.0
C536 C 0.13855 0.53281 0.26423 0.0
C537 C 0.14002 0.54938 0.25728 0.0
C538 C 0.1394 0.57104 0.22386 0.0
C539 C 0.14361 0.58417 0.21317 0.0
C540 C 0.13012 0.57811 0.20221 0.0
C541 C 0.11217 0.55869 0.2017 0.0
C542 C 0.10801 0.54558 0.2125 0.0
C543 C 0.12142 0.55178 0.22353 0.0
P544 P 0.45414 0.5279 0.26181 0.0
H545 H 0.49294 0.54898 0.27693 0.0
H546 H 0.51438 0.58417 0.28477 0.0
H547 H 0.47069 0.59944 0.26777 0.0
H548 H 0.44899 0.56381 0.26009 0.0
H549 H 0.41687 0.49368 0.25001 0.0
H550 H 0.38131 0.47403 0.25768 0.0
H551 H 0.39701 0.51521 0.29153 0.0
H552 H 0.43246 0.53506 0.28361 0.0
H553 H 0.48542 0.52495 0.24652 0.0
H554 H 0.43292 0.5325 0.23843 0.0
O555 O 0.46284 0.51373 0.26886 0.0
H556 H 0.49205 0.52561 0.22275 0.0
H557 H 0.43951 0.53322 0.21448 0.0
C558 C 0.46922 0.55374 0.2681 0.0
C559 C 0.48783 0.55981 0.27497 0.0
C560 C 0.5002 0.58002 0.27935 0.0
C561 C 0.4943 0.59466 0.27685 0.0
C562 C 0.47556 0.5885 0.26997 0.0
C563 C 0.46318 0.56819 0.26556 0.0
C564 C 0.4272 0.51619 0.26601 0.0
C565 C 0.41252 0.49887 0.25885 0.0
C566 C 0.39223 0.48748 0.26336 0.0
C567 C 0.38631 0.49299 0.27526 0.0
C568 C 0.40095 0.51071 0.28223 0.0
C569 C 0.42125 0.52211 0.27769 0.0
C570 C 0.45836 0.52812 0.24419 0.0
C571 C 0.47522 0.52662 0.2396 0.0
C572 C 0.47911 0.52719 0.226 0.0
C573 C 0.46626 0.5294 0.21672 0.0
C574 C 0.4495 0.5312 0.22138 0.0
C575 C 0.44572 0.53079 0.23504 0.0
Eu576 Eu 0.48769 0.98762 0.98916 0.0
C577 C 0.52549 0.06414 0.02808 0.0
C578 C 0.56175 0.07511 0.03145 0.0
C579 C 0.54986 0.09957 0.03407 0.0
C580 C 0.5414 0.05975 0.02809 0.0
C581 C 0.52953 0.08409 0.03109 0.0
C582 C 0.56587 0.09502 0.03442 0.0
C583 C 0.49277 0.07149 0.02944 0.0
N584 N 0.50588 0.04865 0.02579 0.0
C585 C 0.48948 0.05187 0.02683 0.0
C586 C 0.5129 0.08771 0.03151 0.0
Eu587 Eu 0.50164 0.01591 0.02161 0.0
N588 N 0.5368 0.04021 0.02563 0.0
C589 C 0.55163 0.03483 0.02684 0.0
C590 C 0.57719 0.06982 0.03221 0.0
C591 C 0.5721 0.04958 0.02991 0.0
H592 H 0.47388 0.03936 0.02532 0.0
H593 H 0.58387 0.04528 0.03066 0.0
H594 H 0.58127 0.10691 0.03733 0.0
H595 H 0.47978 0.07405 0.02997 0.0
H596 H 0.54778 0.01915 0.02533 0.0
H597 H 0.40493 0.96157 0.98607 0.0
H598 H 0.59297 0.08109 0.03489 0.0
H599 H 0.51131 0.9621 0.97965 0.0
H600 H 0.44215 0.9868 0.98711 0.0
H601 H 0.50284 0.92636 0.97548 0.0
H602 H 0.55327 0.11496 0.03651 0.0
H603 H 0.39312 0.92461 0.98501 0.0
H604 H 0.40228 0.89687 0.98302 0.0
H605 H 0.51538 0.10285 0.03371 0.0
H606 H 0.42901 0.88722 0.9801 0.0
N607 N 0.45154 0.96446 0.98699 0.0
C608 C 0.43732 0.97077 0.98658 0.0
C609 C 0.40953 0.93564 0.98545 0.0
C610 C 0.42421 0.92933 0.98497 0.0
C611 C 0.41614 0.95649 0.98601 0.0
C612 C 0.44537 0.94434 0.98564 0.0
H613 H 0.46659 0.89816 0.97701 0.0
N614 N 0.48034 0.95398 0.98396 0.0
C615 C 0.49072 0.92965 0.97798 0.0
C616 C 0.4603 0.9389 0.98409 0.0
C617 C 0.49547 0.94983 0.98032 0.0
C618 C 0.47026 0.91377 0.9789 0.0
C619 C 0.45466 0.91833 0.98171 0.0
O620 O 0.50487 0.99357 0.97066 0.0
O621 O 0.51165 0.01381 1.00117 0.0
O622 O 0.50143 0.03671 0.00583 0.0
O623 O 0.47826 0.0121 0.99081 0.0
O624 O 0.52222 0.99917 0.98881 0.0
O625 O 0.47826 0.99758 0.97146 0.0
O626 O 0.48357 0.00983 0.03967 0.0
O627 O 0.47832 0.98894 0.00994 0.0
O628 O 0.49382 0.96845 0.00352 0.0
O629 O 0.51159 0.99183 0.02106 0.0
O630 O 0.46697 0.0036 0.02151 0.0
O631 O 0.51142 0.00766 0.03991 0.0
C632 C 0.52775 0.01396 0.99733 0.0
C633 C 0.48574 0.98791 0.95076 0.0
C634 C 0.48517 0.9907 0.92655 0.0
C635 C 0.49147 -8e-05 0.9393 0.0
C636 C 0.47316 0.96924 0.92554 0.0
C637 C 0.47361 0.9666 0.94949 0.0
C638 C 0.46742 0.95734 0.93693 0.0
C639 C 0.48854 0.03114 0.99554 0.0
C640 C 0.49251 0.99775 0.96397 0.0
C641 C 0.43366 0.90315 0.98174 0.0
C642 C 0.41845 0.90865 0.98339 0.0
C643 C 0.46188 0.98799 0.0138 0.0
C644 C 0.50166 0.01661 0.06012 0.0
C645 C 0.49662 0.00453 0.07151 0.0
C646 C 0.5004 0.01362 0.08429 0.0
C647 C 0.50975 0.035 0.0855 0.0
C648 C 0.51105 0.0379 0.06154 0.0
C649 C 0.51515 0.04703 0.07418 0.0
C650 C 0.50506 0.97412 0.01465 0.0
C651 C 0.49629 0.00672 0.04687 0.0
H652 H 0.50058 0.01641 0.94037 0.0
H653 H 0.46838 0.96156 0.91593 0.0
H654 H 0.46896 0.95713 0.95818 0.0
H655 H 0.45817 0.94087 0.93601 0.0
H656 H 0.48929 0.98808 0.07042 0.0
H657 H 0.51301 0.04241 0.09521 0.0
H658 H 0.51502 0.04743 0.05292 0.0
H659 H 0.52237 0.06347 0.07521 0.0
Eu660 Eu 0.01127 0.5039 0.99138 0.0
C661 C 0.93246 0.46907 0.0278 0.0
C662 C 0.92147 0.49424 0.02847 0.0
C663 C 0.8969 0.45874 0.03324 0.0
C664 C 0.93688 0.489 0.02622 0.0
C665 C 0.9124 0.45369 0.0313 0.0
C666 C 0.90155 0.47902 0.03207 0.0
C667 C 0.92514 0.43004 0.03249 0.0
N668 N 0.94811 0.46496 0.02677 0.0
C669 C 0.94487 0.44589 0.02938 0.0
C670 C 0.90878 0.43391 0.03338 0.0
Eu671 Eu 0.98134 0.49282 0.0223 0.0
N672 N 0.95662 0.50355 0.02359 0.0
C673 C 0.96212 0.5237 0.02341 0.0
C674 C 0.92683 0.51477 0.02767 0.0
C675 C 0.94725 0.52956 0.02514 0.0
H676 H 0.95745 0.44277 0.02887 0.0
H677 H 0.95164 0.54553 0.02474 0.0
H678 H 0.88977 0.48286 0.0344 0.0
H679 H 0.92265 0.41494 0.0344 0.0
H680 H 0.97798 0.53533 0.02183 0.0
H681 H 0.04005 0.45049 0.98876 0.0
H682 H 0.91547 0.51943 0.02935 0.0
H683 H 0.03616 0.55398 0.98482 0.0
H684 H 0.01377 0.46085 0.99051 0.0
H685 H 0.07187 0.58206 0.9815 0.0
H686 H 0.88149 0.44722 0.03612 0.0
H687 H 0.07714 0.47675 0.98721 0.0
H688 H 0.10432 0.51383 0.98611 0.0
H689 H 0.89358 0.42167 0.03604 0.0
H690 H 0.11301 0.54969 0.9843 0.0
N691 N 0.03561 0.49268 0.99028 0.0
C692 C 0.02985 0.47247 0.98992 0.0
C693 C 0.06564 0.48138 0.98815 0.0
C694 C 0.07139 0.50206 0.9881 0.0
C695 C 0.04475 0.46653 0.98896 0.0
C696 C 0.05578 0.50729 0.98905 0.0
H697 H 0.10102 0.5753 0.98243 0.0
N698 N 0.04502 0.53163 0.98788 0.0
C699 C 0.06898 0.56681 0.98339 0.0
C700 C 0.06065 0.52741 0.98786 0.0
C701 C 0.04875 0.55085 0.98521 0.0
C702 C 0.08537 0.56291 0.98392 0.0
C703 C 0.08129 0.54295 0.98594 0.0
O704 O 0.00694 0.51404 0.97199 0.0
O705 O 0.98355 0.50177 1.00114 0.0
O706 O 0.96119 0.46892 0.0069 0.0
O707 O 0.98667 0.47004 0.99303 0.0
O708 O 0.9995 0.52624 0.98892 0.0
O709 O 0.00361 0.48404 0.97379 0.0
O710 O 0.98635 0.48377 0.04188 0.0
O711 O 0.00875 0.49447 0.01246 0.0
O712 O 0.03126 0.52721 0.00704 0.0
O713 O 0.00577 0.52676 0.02049 0.0
O714 O 0.99305 0.47056 0.0251 0.0
O715 O 0.9903 0.51393 0.0393 0.0
C716 C 0.98355 0.51708 0.99638 0.0
C717 C 0.01654 0.50126 0.95359 0.0
C718 C 0.01965 0.50508 0.92953 0.0
C719 C 0.00778 0.50081 0.94112 0.0
C720 C 0.04034 0.50971 0.93059 0.0
C721 C 0.03713 0.50569 0.9544 0.0
C722 C 0.04896 0.50991 0.94297 0.0
C723 C 0.96746 0.46081 0.99757 0.0
C724 C 0.00431 0.49771 0.96569 0.0
C725 C 0.09704 0.53796 0.98567 0.0
C726 C 0.09209 0.51754 0.98671 0.0
C727 C 0.00882 0.47931 0.01748 0.0
C728 C 0.97989 0.49912 0.06041 0.0
C729 C 0.99147 0.5039 0.07227 0.0
C730 C 0.98212 0.50258 0.08461 0.0
C731 C 0.96095 0.49634 0.08488 0.0
C732 C 0.9588 0.49292 0.06087 0.0
C733 C 0.94939 0.49153 0.07307 0.0
C734 C 0.02516 0.53549 0.01633 0.0
C735 C 0.99016 0.50085 0.04769 0.0
H736 H 0.99189 0.49747 0.94045 0.0
H737 H 0.04974 0.51285 0.92182 0.0
H738 H 0.04409 0.5059 0.96384 0.0
H739 H 0.06485 0.51334 0.9437 0.0
H740 H 0.00784 0.50895 0.07184 0.0
H741 H 0.95326 0.49497 0.09423 0.0
H742 H 0.94965 0.48921 0.05187 0.0
H743 H 0.93309 0.48669 0.07336 0.0
Eu744 Eu 0.51261 0.50136 0.02226 0.0
C745 C 0.45584 0.52284 0.98732 0.0
C746 C 0.42094 0.49652 0.99238 0.0
C747 C 0.42769 0.53015 0.9859 0.0
C748 C 0.44221 0.50322 0.99128 0.0
C749 C 0.44869 0.53639 0.98424 0.0
C750 C 0.41384 0.51025 0.98999 0.0
C751 C 0.48318 0.56056 0.97701 0.0
N752 N 0.47596 0.52832 0.98576 0.0
C753 C 0.48952 0.54657 0.98023 0.0
C754 C 0.46274 0.55557 0.97921 0.0
Eu755 Eu 0.48584 0.50425 0.99178 0.0
N756 N 0.44958 0.49034 0.99342 0.0
C757 C 0.43627 0.47011 0.99566 0.0
C758 C 0.40739 0.4761 0.99549 0.0
C759 C 0.41506 0.46277 0.99694 0.0
H760 H 0.50538 0.55055 0.97861 0.0
H761 H 0.40467 0.44685 0.99909 0.0
H762 H 0.3976 0.50547 0.99094 0.0
H763 H 0.49407 0.57519 0.9729 0.0
H764 H 0.44198 0.45965 0.99686 0.0
H765 H 0.5936 0.56067 0.01686 0.0
H766 H 0.39095 0.47037 0.99647 0.0
H767 H 0.49318 0.45341 0.03266 0.0
H768 H 0.55609 0.54695 0.01863 0.0
H769 H 0.50494 0.42862 0.03674 0.0
H770 H 0.42193 0.54041 0.98373 0.0
H771 H 0.60796 0.53757 0.01861 0.0
H772 H 0.60189 0.50228 0.02269 0.0
H773 H 0.45785 0.56642 0.97671 0.0
H774 H 0.57781 0.46638 0.02811 0.0
N775 N 0.54901 0.51619 0.02107 0.0
C776 C 0.56206 0.53665 0.01948 0.0
C777 C 0.59144 0.53144 0.01943 0.0
C778 C 0.57811 0.51067 0.02177 0.0
C779 C 0.58339 0.54452 0.01847 0.0
C780 C 0.5567 0.50345 0.02265 0.0
H781 H 0.54168 0.43884 0.03352 0.0
N782 N 0.52285 0.47712 0.02695 0.0
C783 C 0.51585 0.44392 0.03358 0.0
C784 C 0.5432 0.48328 0.02567 0.0
C785 C 0.50925 0.45798 0.03131 0.0
C786 C 0.53659 0.44974 0.03173 0.0
C787 C 0.55063 0.46971 0.02791 0.0
O788 O 0.50156 0.49373 0.0426 0.0
O789 O 0.48425 0.49964 0.01367 0.0
O790 O 0.49251 0.53157 0.00478 0.0
O791 O 0.51914 0.53378 0.01837 0.0
O792 O 0.4796 0.47809 0.02765 0.0
O793 O 0.5259 0.52444 0.03816 0.0
O794 O 0.49722 0.50967 0.97144 0.0
O795 O 0.51429 0.50661 1.00055 0.0
O796 O 0.50759 0.47574 0.00817 0.0
O797 O 0.479 0.47186 0.99625 0.0
O798 O 0.51887 0.52728 0.98599 0.0
O799 O 0.4713 0.48021 0.97652 0.0
C800 C 0.47056 0.48511 0.02022 0.0
C801 C 0.52549 0.51236 0.05977 0.0
C802 C 0.52774 0.51528 0.08401 0.0
C803 C 0.51785 0.51482 0.07195 0.0
C804 C 0.54544 0.5132 0.08364 0.0
C805 C 0.54311 0.51028 0.05959 0.0
C806 C 0.55302 0.51072 0.0715 0.0
C807 C 0.50797 0.54145 0.01345 0.0
C808 C 0.51472 0.51182 0.04739 0.0
C809 C 0.57182 0.47662 0.02655 0.0
C810 C 0.58553 0.49706 0.02347 0.0
C811 C 0.52802 0.52095 0.99391 0.0
C812 C 0.47298 0.49122 0.95445 0.0
C813 C 0.48058 0.48771 0.94259 0.0
C814 C 0.4717 0.48779 0.93023 0.0
C815 C 0.45492 0.49136 0.93 0.0
C816 C 0.45627 0.49474 0.95403 0.0
C817 C 0.44728 0.49476 0.94183 0.0
C818 C 0.49169 0.46527 0.99996 0.0
C819 C 0.48313 0.49168 0.96707 0.0
H820 H 0.50432 0.5166 0.07199 0.0
H821 H 0.55326 0.5132 0.09273 0.0
H822 H 0.54916 0.50833 0.05029 0.0
H823 H 0.56659 0.50905 0.07133 0.0
H824 H 0.49337 0.48479 0.94307 0.0
H825 H 0.44789 0.49186 0.92067 0.0
H826 H 0.45026 0.49753 0.96309 0.0
H827 H 0.43443 0.49758 0.94153 0.0
Eu828 Eu 0.15209 0.31672 0.32311 0.0
C829 C 0.20294 0.39548 0.35871 0.0
C830 C 0.23805 0.40229 0.35649 0.0
C831 C 0.23159 0.43049 0.35983 0.0
C832 C 0.21656 0.38845 0.35668 0.0
C833 C 0.2103 0.41652 0.36071 0.0
C834 C 0.24546 0.42338 0.3577 0.0
C835 C 0.17532 0.40813 0.36563 0.0
N836 N 0.18254 0.38158 0.35954 0.0
C837 C 0.16881 0.38743 0.36356 0.0
C838 C 0.19611 0.42279 0.36396 0.0
Eu839 Eu 0.17221 0.34699 0.35483 0.0
N840 N 0.20884 0.36799 0.35552 0.0
C841 C 0.22191 0.36026 0.35529 0.0
C842 C 0.25146 0.39448 0.3554 0.0
C843 C 0.24336 0.37336 0.35504 0.0
H844 H 0.15267 0.3761 0.36468 0.0
H845 H 0.2536 0.36714 0.35447 0.0
H846 H 0.26189 0.43426 0.35738 0.0
H847 H 0.16428 0.41277 0.36843 0.0
H848 H 0.21598 0.34401 0.35486 0.0
H849 H 0.07011 0.29393 0.32525 0.0
H850 H 0.26807 0.40459 0.35515 0.0
H851 H 0.17243 0.28925 0.31148 0.0
H852 H 0.10755 0.31802 0.3242 0.0
H853 H 0.16184 0.25299 0.30701 0.0
H854 H 0.23754 0.44674 0.36115 0.0
H855 H 0.05679 0.25667 0.32443 0.0
H856 H 0.06408 0.22782 0.3213 0.0
H857 H 0.20112 0.43882 0.36557 0.0
H858 H 0.08912 0.2166 0.31626 0.0
N859 N 0.11563 0.29474 0.32314 0.0
C860 C 0.10205 0.30184 0.32374 0.0
C861 C 0.07329 0.26719 0.32395 0.0
C862 C 0.08718 0.26004 0.32237 0.0
C863 C 0.08074 0.28821 0.32436 0.0
C864 C 0.10851 0.2744 0.32187 0.0
H865 H 0.12559 0.22592 0.31061 0.0
N866 N 0.14268 0.28252 0.31793 0.0
C867 C 0.15064 0.25699 0.31052 0.0
C868 C 0.12252 0.26808 0.31916 0.0
C869 C 0.15658 0.27747 0.31303 0.0
C870 C 0.13018 0.24176 0.31261 0.0
C871 C 0.11571 0.24724 0.31671 0.0
O872 O 0.16775 0.3223 0.30403 0.0
O873 O 0.17797 0.3436 0.33352 0.0
O874 O 0.16662 0.3666 0.3405 0.0
O875 O 0.14433 0.34226 0.32472 0.0
O876 O 0.18608 0.32713 0.32081 0.0
O877 O 0.14011 0.32448 0.30561 0.0
O878 O 0.15818 0.34494 0.37422 0.0
O879 O 0.14641 0.32022 0.34444 0.0
O880 O 0.15901 0.29727 0.33671 0.0
O881 O 0.17944 0.32102 0.35344 0.0
O882 O 0.13811 0.3365 0.35707 0.0
O883 O 0.18141 0.33605 0.37204 0.0
C884 C 0.19312 0.34304 0.32855 0.0
C885 C 0.14737 0.3153 0.28462 0.0
C886 C 0.14769 0.31778 0.26039 0.0
C887 C 0.15397 0.3271 0.27309 0.0
C888 C 0.13482 0.29639 0.25949 0.0
C889 C 0.13442 0.29408 0.28349 0.0
C890 C 0.12825 0.28469 0.27096 0.0
C891 C 0.15363 0.36084 0.33021 0.0
C892 C 0.15431 0.32537 0.29773 0.0
C893 C 0.09463 0.23272 0.31793 0.0
C894 C 0.08038 0.23911 0.32079 0.0
C895 C 0.13113 0.32048 0.34945 0.0
C896 C 0.17862 0.34827 0.39312 0.0
C897 C 0.17138 0.33682 0.40475 0.0
C898 C 0.18062 0.34542 0.41718 0.0
C899 C 0.19708 0.36575 0.41779 0.0
C900 C 0.19498 0.36851 0.39392 0.0
C901 C 0.20412 0.3772 0.40623 0.0
C902 C 0.17151 0.30296 0.34726 0.0
C903 C 0.16938 0.3386 0.38022 0.0
H904 H 0.16375 0.34355 0.27406 0.0
H905 H 0.12999 0.28862 0.24991 0.0
H906 H 0.12914 0.28479 0.29226 0.0
H907 H 0.11835 0.26827 0.27013 0.0
H908 H 0.1589 0.3211 0.40407 0.0
H909 H 0.20437 0.37285 0.42722 0.0
H910 H 0.20077 0.37749 0.38505 0.0
H911 H 0.21676 0.39283 0.40681 0.0
Eu912 Eu 0.67952 0.83859 0.32381 0.0
C913 C 0.59806 0.80547 0.35688 0.0
C914 C 0.58809 0.83137 0.35654 0.0
C915 C 0.56185 0.79568 0.35895 0.0
C916 C 0.60338 0.82571 0.35567 0.0
C917 C 0.57727 0.79025 0.35874 0.0
C918 C 0.56726 0.81622 0.35791 0.0
C919 C 0.58876 0.76576 0.36137 0.0
N920 N 0.61339 0.80083 0.35702 0.0
C921 C 0.60918 0.78144 0.3597 0.0
C922 C 0.57271 0.77013 0.36075 0.0
Eu923 Eu 0.64749 0.82814 0.35391 0.0
N924 N 0.62365 0.84 0.35442 0.0
C925 C 0.62982 0.86031 0.35463 0.0
C926 C 0.59428 0.85214 0.35647 0.0
C927 C 0.61524 0.86668 0.35555 0.0
H928 H 0.62153 0.77797 0.36018 0.0
H929 H 0.62027 0.88281 0.35569 0.0
H930 H 0.55528 0.82028 0.35847 0.0
H931 H 0.58544 0.75033 0.36316 0.0
H932 H 0.64598 0.8717 0.35402 0.0
H933 H 0.7072 0.78405 0.32507 0.0
H934 H 0.58303 0.85707 0.35754 0.0
H935 H 0.70578 0.88839 0.31658 0.0
H936 H 0.68117 0.79495 0.32422 0.0
H937 H 0.742 0.91601 0.31428 0.0
H938 H 0.54577 0.78419 0.36028 0.0
H939 H 0.74449 0.80987 0.32507 0.0
H940 H 0.77223 0.8468 0.32368 0.0
H941 H 0.55692 0.75799 0.36217 0.0
H942 H 0.78173 0.88275 0.32085 0.0
N943 N 0.70343 0.82669 0.32403 0.0
C944 C 0.69737 0.80639 0.32414 0.0
C945 C 0.73312 0.81476 0.32466 0.0
C946 C 0.73922 0.83548 0.32386 0.0
C947 C 0.71209 0.80014 0.32463 0.0
C948 C 0.72379 0.84102 0.32345 0.0
H949 H 0.77058 0.90872 0.3172 0.0
N950 N 0.71379 0.86574 0.3209 0.0
C951 C 0.73864 0.90072 0.31653 0.0
C952 C 0.72915 0.86121 0.32189 0.0
C953 C 0.71814 0.88502 0.31777 0.0
C954 C 0.75471 0.89652 0.31819 0.0
C955 C 0.75006 0.87649 0.32068 0.0
O956 O 0.6763 0.84832 0.30404 0.0
O957 O 0.65171 0.83743 0.33274 0.0
O958 O 0.62828 0.80463 0.33806 0.0
O959 O 0.65451 0.80489 0.32545 0.0
O960 O 0.6685 0.86129 0.32018 0.0
O961 O 0.67229 0.81816 0.30656 0.0
O962 O 0.65073 0.81808 0.37355 0.0
O963 O 0.6752 0.82944 0.34496 0.0
O964 O 0.69862 0.86223 0.33953 0.0
O965 O 0.67268 0.86192 0.35251 0.0
O966 O 0.65883 0.80569 0.35763 0.0
O967 O 0.6553 0.84854 0.37123 0.0
C968 C 0.65229 0.85275 0.32748 0.0
C969 C 0.68581 0.83445 0.28621 0.0
C970 C 0.68799 0.83336 0.26202 0.0
C971 C 0.67628 0.83014 0.2736 0.0
C972 C 0.70942 0.84094 0.26334 0.0
C973 C 0.70712 0.8418 0.28729 0.0
C974 C 0.71884 0.84503 0.2759 0.0
C975 C 0.63494 0.79618 0.32924 0.0
C976 C 0.67345 0.83164 0.29812 0.0
C977 C 0.76556 0.8712 0.32163 0.0
C978 C 0.76014 0.85073 0.32323 0.0
C979 C 0.67506 0.81445 0.35036 0.0
C980 C 0.64287 0.83262 0.39184 0.0
C981 C 0.65357 0.83751 0.40404 0.0
C982 C 0.64303 0.83483 0.41605 0.0
C983 C 0.62156 0.82721 0.41566 0.0
C984 C 0.62149 0.82515 0.39161 0.0
C985 C 0.61091 0.82248 0.40349 0.0
C986 C 0.69222 0.87048 0.34866 0.0
C987 C 0.65424 0.83495 0.37953 0.0
H988 H 0.65974 0.82416 0.27286 0.0
H989 H 0.71901 0.84403 0.25467 0.0
H990 H 0.7147 0.84514 0.29689 0.0
H991 H 0.73532 0.85087 0.2768 0.0
H992 H 0.67007 0.84304 0.40418 0.0
H993 H 0.61308 0.82513 0.42476 0.0
H994 H 0.613 0.82131 0.3823 0.0
H995 H 0.5944 0.8167 0.40326 0.0
Eu996 Eu 0.17489 0.83272 0.35447 0.0
C997 C 0.12656 0.85997 0.31577 0.0
C998 C 0.09079 0.83343 0.3176 0.0
C999 C 0.09915 0.86774 0.31166 0.0
C1000 C 0.11206 0.84004 0.31857 0.0
C1001 C 0.12029 0.87392 0.3119 0.0
C1002 C 0.0844 0.8475 0.3145 0.0
C1003 C 0.15602 0.89819 0.30727 0.0
N1004 N 0.14677 0.86526 0.31583 0.0
C1005 C 0.16144 0.88378 0.31117 0.0
C1006 C 0.13538 0.89337 0.30785 0.0
Eu1007 Eu 0.15493 0.84023 0.32256 0.0
N1008 N 0.11872 0.82674 0.32127 0.0
C1009 C 0.10492 0.80631 0.32209 0.0
C1010 C 0.07658 0.81269 0.31919 0.0
C1011 C 0.08366 0.79902 0.32129 0.0
H1012 H 0.17743 0.88765 0.31073 0.0
H1013 H 0.07279 0.78286 0.32222 0.0
H1014 H 0.06811 0.84273 0.31386 0.0
H1015 H 0.16775 0.91301 0.30385 0.0
H1016 H 0.1102 0.79558 0.32367 0.0
H1017 H 0.25546 0.89389 0.35817 0.0
H1018 H 0.06021 0.80707 0.31831 0.0
H1019 H 0.15438 0.78316 0.36146 0.0
H1020 H 0.21798 0.87914 0.35542 0.0
H1021 H 0.16608 0.75834 0.36563 0.0
H1022 H 0.09402 0.87829 0.30885 0.0
H1023 H 0.27025 0.87126 0.3611 0.0
H1024 H 0.26448 0.83573 0.36289 0.0
H1025 H 0.1312 0.90452 0.30478 0.0
H1026 H 0.24018 0.79882 0.36468 0.0
N1027 N 0.21129 0.84829 0.3564 0.0
C1028 C 0.22409 0.869 0.35656 0.0
C1029 C 0.25372 0.86466 0.35968 0.0
C1030 C 0.2405 0.84348 0.35983 0.0
C1031 C 0.24545 0.87747 0.3581 0.0
C1032 C 0.21904 0.83565 0.3583 0.0
H1033 H 0.20348 0.76985 0.36583 0.0
N1034 N 0.1848 0.80812 0.35881 0.0
C1035 C 0.17729 0.77418 0.36384 0.0
C1036 C 0.20538 0.81491 0.3594 0.0
C1037 C 0.17072 0.78824 0.36151 0.0
C1038 C 0.19841 0.78073 0.3639 0.0
C1039 C 0.21278 0.80138 0.36193 0.0
O1040 O 0.16012 0.8214 0.3736 0.0
O1041 O 0.14829 0.83248 0.34402 0.0
O1042 O 0.15916 0.86625 0.33614 0.0
O1043 O 0.18135 0.8654 0.35236 0.0
O1044 O 0.14112 0.80853 0.35659 0.0
O1045 O 0.18482 0.8528 0.37207 0.0
O1046 O 0.17029 0.84796 0.30332 0.0
O1047 O 0.18164 0.84131 0.33329 0.0
O1048 O 0.17334 0.80958 0.33946 0.0
O1049 O 0.14704 0.80714 0.32573 0.0
O1050 O 0.18867 0.86442 0.32014 0.0
O1051 O 0.14341 0.81817 0.30598 0.0
C1052 C 0.13344 0.81676 0.34901 0.0
C1053 C 0.18099 0.8367 0.39267 0.0
C1054 C 0.18076 0.83682 0.41693 0.0
C1055 C 0.17318 0.83945 0.40471 0.0
C1056 C 0.19638 0.83162 0.41694 0.0
C1057 C 0.1967 0.8317 0.39289 0.0
C1058 C 0.20435 0.8292 0.40497 0.0
C1059 C 0.17213 0.87436 0.34642 0.0
C1060 C 0.1722 0.83849 0.37999 0.0
C1061 C 0.23419 0.80898 0.36284 0.0
C1062 C 0.24802 0.83 0.36183 0.0
C1063 C 0.19647 0.85701 0.32829 0.0
C1064 C 0.14899 0.83214 0.28451 0.0
C1065 C 0.15786 0.82941 0.27296 0.0
C1066 C 0.15077 0.83109 0.26028 0.0
C1067 C 0.13463 0.83554 0.2594 0.0
C1068 C 0.13289 0.8365 0.28341 0.0
C1069 C 0.12578 0.8382 0.2709 0.0
C1070 C 0.15871 0.79988 0.33033 0.0
C1071 C 0.15694 0.83072 0.29762 0.0
H1072 H 0.16094 0.84319 0.40457 0.0
H1073 H 0.20256 0.82964 0.42621 0.0
H1074 H 0.20298 0.82965 0.38377 0.0
H1075 H 0.21646 0.8253 0.40506 0.0
H1076 H 0.17044 0.82623 0.27386 0.0
H1077 H 0.12861 0.83664 0.24982 0.0
H1078 H 0.12581 0.83855 0.29219 0.0
H1079 H 0.11331 0.84153 0.27012 0.0
Eu1080 Eu 0.81743 0.64889 0.656 0.0
C1081 C 0.8648 0.72556 0.69292 0.0
C1082 C 0.90035 0.73311 0.69226 0.0
C1083 C 0.89289 0.76071 0.6953 0.0
C1084 C 0.87894 0.71897 0.69154 0.0
C1085 C 0.8716 0.74643 0.69521 0.0
C1086 C 0.90724 0.75406 0.6938 0.0
C1087 C 0.83593 0.73726 0.69843 0.0
N1088 N 0.84438 0.71137 0.6929 0.0
C1089 C 0.82996 0.71673 0.69614 0.0
C1090 C 0.85682 0.75222 0.69776 0.0
Eu1091 Eu 0.83541 0.67711 0.68842 0.0
N1092 N 0.87176 0.69861 0.6902 0.0
C1093 C 0.88513 0.69124 0.69056 0.0
C1094 C 0.91418 0.72572 0.6918 0.0
C1095 C 0.90651 0.70467 0.69118 0.0
H1096 H 0.81379 0.70517 0.69655 0.0
H1097 H 0.91705 0.69877 0.6911 0.0
H1098 H 0.92363 0.76518 0.69423 0.0
H1099 H 0.82443 0.74152 0.70066 0.0
H1100 H 0.87944 0.67503 0.68998 0.0
H1101 H 0.73495 0.62399 0.65474 0.0
H1102 H 0.93074 0.73609 0.69227 0.0
H1103 H 0.84047 0.6238 0.64456 0.0
H1104 H 0.77219 0.64863 0.65662 0.0
H1105 H 0.83145 0.58858 0.63816 0.0
H1106 H 0.89842 0.77684 0.69688 0.0
H1107 H 0.72272 0.58726 0.65073 0.0
H1108 H 0.73126 0.55954 0.64671 0.0
H1109 H 0.86141 0.7681 0.69957 0.0
H1110 H 0.7576 0.5498 0.64235 0.0
N1111 N 0.7812 0.62615 0.65432 0.0
C1112 C 0.76718 0.63269 0.65501 0.0
C1113 C 0.73912 0.59802 0.6518 0.0
C1114 C 0.75357 0.59153 0.65048 0.0
C1115 C 0.74597 0.61873 0.65396 0.0
C1116 C 0.77478 0.60619 0.65168 0.0
H1117 H 0.79501 0.56059 0.63891 0.0
N1118 N 0.80967 0.61558 0.6495 0.0
C1119 C 0.8195 0.59173 0.64136 0.0
C1120 C 0.78952 0.6007 0.64926 0.0
C1121 C 0.82456 0.61164 0.645 0.0
C1122 C 0.79894 0.57597 0.64184 0.0
C1123 C 0.78357 0.58042 0.64553 0.0
O1124 O 0.83466 0.65727 0.63744 0.0
O1125 O 0.84283 0.67477 0.66737 0.0
O1126 O 0.83268 0.69786 0.67361 0.0
O1127 O 0.80857 0.67359 0.65876 0.0
O1128 O 0.85156 0.65914 0.65445 0.0
O1129 O 0.80623 0.65796 0.63868 0.0
O1130 O 0.81997 0.67372 0.70739 0.0
O1131 O 0.81005 0.65059 0.67734 0.0
O1132 O 0.82307 0.62835 0.66943 0.0
O1133 O 0.84258 0.65113 0.68686 0.0
O1134 O 0.80124 0.66654 0.68993 0.0
O1135 O 0.84542 0.6678 0.70615 0.0
C1136 C 0.85826 0.67433 0.66276 0.0
C1137 C 0.8153 0.65071 0.61764 0.0
C1138 C 0.81677 0.65415 0.59343 0.0
C1139 C 0.82176 0.66306 0.60633 0.0
C1140 C 0.80545 0.63266 0.59217 0.0
C1141 C 0.80368 0.62942 0.61607 0.0
C1142 C 0.79889 0.62047 0.6034 0.0
C1143 C 0.81905 0.69247 0.66374 0.0
C1144 C 0.82119 0.66012 0.63102 0.0
C1145 C 0.76248 0.56551 0.64505 0.0
C1146 C 0.74749 0.57106 0.64752 0.0
C1147 C 0.79454 0.65078 0.68209 0.0
C1148 C 0.84052 0.6801 0.72672 0.0
C1149 C 0.83517 0.66916 0.73864 0.0
C1150 C 0.84278 0.67943 0.75099 0.0
C1151 C 0.8557 0.70084 0.75113 0.0
C1152 C 0.8536 0.70135 0.72715 0.0
C1153 C 0.8611 0.71164 0.7393 0.0
C1154 C 0.83494 0.63341 0.68028 0.0
C1155 C 0.83226 0.66924 0.71393 0.0
H1156 H 0.83045 0.67954 0.60762 0.0
H1157 H 0.8018 0.62516 0.58248 0.0
H1158 H 0.79843 0.6197 0.62462 0.0
H1159 H 0.79013 0.60399 0.60227 0.0
H1160 H 0.82529 0.65269 0.73824 0.0
H1161 H 0.86147 0.70935 0.76041 0.0
H1162 H 0.85796 0.70999 0.71812 0.0
H1163 H 0.87106 0.72808 0.73955 0.0
Eu1164 Eu 0.3482 0.17225 0.65599 0.0
C1165 C 0.26583 0.14556 0.68729 0.0
C1166 C 0.25854 0.17276 0.68318 0.0
C1167 C 0.2302 0.13822 0.68654 0.0
C1168 C 0.27273 0.16573 0.68457 0.0
C1169 C 0.24452 0.13165 0.68873 0.0
C1170 C 0.23721 0.15878 0.68377 0.0
C1171 C 0.25336 0.10655 0.69583 0.0
N1172 N 0.28009 0.13985 0.68946 0.0
C1173 C 0.27431 0.12098 0.69432 0.0
C1174 C 0.23836 0.11179 0.69279 0.0
Eu1175 Eu 0.31519 0.16419 0.68554 0.0
N1176 N 0.29343 0.17874 0.68407 0.0
C1177 C 0.30101 0.19933 0.68343 0.0
C1178 C 0.26624 0.1937 0.68165 0.0
C1179 C 0.28758 0.20707 0.68204 0.0
H1180 H 0.28589 0.11685 0.69657 0.0
H1181 H 0.29372 0.22335 0.68116 0.0
H1182 H 0.22606 0.16382 0.6825 0.0
H1183 H 0.24881 0.0914 0.6993 0.0
H1184 H 0.31743 0.20992 0.68359 0.0
H1185 H 0.37114 0.11419 0.659 0.0
H1186 H 0.25588 0.19972 0.68053 0.0
H1187 H 0.37717 0.22149 0.64811 0.0
H1188 H 0.34678 0.12707 0.65711 0.0
H1189 H 0.41422 0.24764 0.64633 0.0
H1190 H 0.21375 0.12771 0.68739 0.0
H1191 H 0.40883 0.13844 0.66012 0.0
H1192 H 0.43812 0.1747 0.6592 0.0
H1193 H 0.22215 0.10063 0.69402 0.0
H1194 H 0.44988 0.21106 0.65573 0.0
N1195 N 0.37037 0.15838 0.65746 0.0
C1196 C 0.36317 0.13785 0.65754 0.0
C1197 C 0.3982 0.1442 0.6593 0.0
C1198 C 0.40551 0.16518 0.65847 0.0
C1199 C 0.37694 0.13046 0.65862 0.0
C1200 C 0.39101 0.17187 0.65741 0.0
H1201 H 0.44108 0.23834 0.65065 0.0
N1202 N 0.38321 0.19795 0.65368 0.0
C1203 C 0.40977 0.23216 0.64897 0.0
C1204 C 0.39765 0.19231 0.65547 0.0
C1205 C 0.38885 0.21735 0.64994 0.0
C1206 C 0.42489 0.22686 0.65146 0.0
C1207 C 0.41892 0.20665 0.65453 0.0
O1208 O 0.34687 0.18275 0.63609 0.0
O1209 O 0.32013 0.17155 0.66402 0.0
O1210 O 0.29648 0.13748 0.67141 0.0
O1211 O 0.32178 0.13911 0.65684 0.0
O1212 O 0.33802 0.19529 0.65148 0.0
O1213 O 0.34185 0.15217 0.63866 0.0
O1214 O 0.3173 0.15504 0.70574 0.0
O1215 O 0.34228 0.16362 0.67716 0.0
O1216 O 0.36731 0.19617 0.67162 0.0
O1217 O 0.34115 0.19739 0.68334 0.0
O1218 O 0.32504 0.14089 0.69034 0.0
O1219 O 0.32597 0.18643 0.70193 0.0
C1220 C 0.32122 0.18673 0.65824 0.0
C1221 C 0.3568 0.1687 0.6186 0.0
C1222 C 0.36026 0.16877 0.59447 0.0
C1223 C 0.34813 0.16583 0.6058 0.0
C1224 C 0.38126 0.1747 0.59623 0.0
C1225 C 0.37769 0.17445 0.62014 0.0
C1226 C 0.38985 0.17745 0.60898 0.0
C1227 C 0.3029 0.12972 0.6619 0.0
C1228 C 0.34393 0.16601 0.63021 0.0
C1229 C 0.43346 0.20023 0.65627 0.0
C1230 C 0.42676 0.17953 0.65824 0.0
C1231 C 0.34125 0.14854 0.68302 0.0
C1232 C 0.31355 0.1739 0.72321 0.0
C1233 C 0.32431 0.17715 0.73527 0.0
C1234 C 0.31549 0.17833 0.74731 0.0
C1235 C 0.29571 0.17629 0.74709 0.0
C1236 C 0.29378 0.17173 0.72311 0.0
C1237 C 0.28493 0.17295 0.73504 0.0
C1238 C 0.36087 0.20516 0.68017 0.0
C1239 C 0.32345 0.17311 0.71088 0.0
H1240 H 0.33188 0.16108 0.6047 0.0
H1241 H 0.39113 0.17743 0.58775 0.0
H1242 H 0.3846 0.17665 0.62991 0.0
H1243 H 0.40601 0.18202 0.61023 0.0
H1244 H 0.3397 0.17905 0.73524 0.0
H1245 H 0.28848 0.177 0.75623 0.0
H1246 H 0.2853 0.16919 0.71385 0.0
H1247 H 0.26967 0.17128 0.73496 0.0
Eu1248 Eu 0.84139 0.16346 0.68753 0.0
C1249 C 0.79389 0.19577 0.65288 0.0
C1250 C 0.75805 0.16909 0.65435 0.0
C1251 C 0.7666 0.20426 0.65117 0.0
C1252 C 0.77933 0.17548 0.65458 0.0
C1253 C 0.7877 0.21033 0.65076 0.0
C1254 C 0.75179 0.18367 0.653 0.0
C1255 C 0.82346 0.23529 0.64674 0.0
N1256 N 0.81408 0.20104 0.65246 0.0
C1257 C 0.82882 0.22029 0.64896 0.0
C1258 C 0.80285 0.23038 0.64786 0.0
Eu1259 Eu 0.82223 0.17516 0.6567 0.0
N1260 N 0.78594 0.16181 0.65568 0.0
C1261 C 0.77202 0.14132 0.65545 0.0
C1262 C 0.74373 0.14819 0.65504 0.0
C1263 C 0.75075 0.13422 0.65536 0.0
H1264 H 0.8448 0.2242 0.64821 0.0
H1265 H 0.73981 0.11799 0.65559 0.0
H1266 H 0.73553 0.1791 0.65296 0.0
H1267 H 0.83525 0.25064 0.64425 0.0
H1268 H 0.7772 0.13034 0.65578 0.0
H1269 H 0.92359 0.21967 0.69264 0.0
H1270 H 0.72725 0.14266 0.65496 0.0
H1271 H 0.8172 0.11283 0.69212 0.0
H1272 H 0.88645 0.20781 0.69017 0.0
H1273 H 0.82602 0.08564 0.69473 0.0
H1274 H 0.76153 0.21527 0.64973 0.0
H1275 H 0.9354 0.19443 0.69399 0.0
H1276 H 0.92679 0.15794 0.6942 0.0
H1277 H 0.79873 0.24202 0.64614 0.0
H1278 H 0.90029 0.12147 0.69466 0.0
N1279 N 0.87737 0.17625 0.68963 0.0
C1280 C 0.8914 0.19667 0.69063 0.0
C1281 C 0.91916 0.18924 0.69267 0.0
C1282 C 0.90468 0.16836 0.69209 0.0
C1283 C 0.91251 0.20347 0.69201 0.0
C1284 C 0.88357 0.16225 0.6907 0.0
H1285 H 0.86269 0.09439 0.69499 0.0
N1286 N 0.84851 0.13658 0.69052 0.0
C1287 C 0.83818 0.10136 0.69368 0.0
C1288 C 0.8687 0.14178 0.69109 0.0
C1289 C 0.83324 0.11679 0.69224 0.0
C1290 C 0.85889 0.10635 0.69379 0.0
C1291 C 0.87447 0.1268 0.6927 0.0
O1292 O 0.82663 0.15131 0.70655 0.0
O1293 O 0.81554 0.16511 0.67768 0.0
O1294 O 0.82691 0.19934 0.67204 0.0
O1295 O 0.85001 0.19702 0.68675 0.0
O1296 O 0.80726 0.13998 0.68926 0.0
O1297 O 0.85148 0.18275 0.70545 0.0
O1298 O 0.83745 0.18596 0.63764 0.0
O1299 O 0.84843 0.17435 0.66677 0.0
O1300 O 0.8395 0.14182 0.6712 0.0
O1301 O 0.81387 0.14162 0.65783 0.0
O1302 O 0.85632 0.19887 0.65468 0.0
O1303 O 0.81124 0.15531 0.63903 0.0
C1304 C 0.80027 0.14929 0.68214 0.0
C1305 C 0.84751 0.16599 0.72573 0.0
C1306 C 0.84888 0.16791 0.74999 0.0
C1307 C 0.84033 0.16938 0.73783 0.0
C1308 C 0.86459 0.16281 0.74984 0.0
C1309 C 0.86313 0.16087 0.72578 0.0
C1310 C 0.87159 0.15927 0.7378 0.0
C1311 C 0.84056 0.20658 0.68201 0.0
C1312 C 0.83876 0.16816 0.71317 0.0
C1313 C 0.89553 0.13275 0.69351 0.0
C1314 C 0.91061 0.15351 0.69325 0.0
C1315 C 0.86359 0.19025 0.66223 0.0
C1316 C 0.81669 0.17169 0.61842 0.0
C1317 C 0.82515 0.16909 0.60666 0.0
C1318 C 0.81771 0.17093 0.59415 0.0
C1319 C 0.80183 0.1758 0.59369 0.0
C1320 C 0.8009 0.17653 0.61778 0.0
C1321 C 0.79357 0.17863 0.60544 0.0
C1322 C 0.82513 0.1335 0.66175 0.0
C1323 C 0.82462 0.16921 0.63121 0.0
H1324 H 0.82837 0.17351 0.73776 0.0
H1325 H 0.87131 0.16134 0.75903 0.0
H1326 H 0.86881 0.15818 0.71658 0.0
H1327 H 0.88364 0.15529 0.73777 0.0
H1328 H 0.83761 0.1657 0.60731 0.0
H1329 H 0.79547 0.17701 0.58427 0.0
H1330 H 0.79422 0.17859 0.62677 0.0
H1331 H 0.7813 0.18228 0.60497 0.0
H1332 H 0.29606 0.85301 0.06871 0.0
H1333 H 0.32288 0.88007 0.05538 0.0
H1334 H 0.35703 0.848 0.05481 0.0
H1335 H 0.33018 0.82074 0.06788 0.0
H1336 H 0.38154 0.88814 0.06156 0.0
H1337 H 0.33156 0.84888 0.02735 0.0
H1338 H 0.29709 0.83154 0.01654 0.0
H1339 H 0.29773 0.88856 0.01488 0.0
H1340 H 0.3321 0.90621 0.02587 0.0
H1341 H 0.45708 0.94982 0.01571 0.0
H1342 H 0.42695 0.91923 0.02407 0.0
H1343 H 0.39372 0.9521 0.02707 0.0
H1344 H 0.42392 0.98281 0.01866 0.0
H1345 H 0.3686 0.91104 0.01836 0.0
H1346 H 0.41678 0.94998 0.05336 0.0
H1347 H 0.45079 0.9681 0.06468 0.0
H1348 H 0.45301 0.9125 0.06555 0.0
H1349 H 0.41905 0.89405 0.05403 0.0
C1350 C 0.30912 0.85155 0.06559 0.0
C1351 C 0.31098 0.83471 0.06944 0.0
C1352 C 0.32446 0.86706 0.05799 0.0
C1353 C 0.34192 0.86601 0.05405 0.0
C1354 C 0.34374 0.84917 0.05778 0.0
C1355 C 0.3284 0.83365 0.06533 0.0
C1356 C 0.3587 0.8828 0.04647 0.0
C1357 C 0.37875 0.8929 0.05201 0.0
C1358 C 0.35496 0.8894 0.03418 0.0
C1359 C 0.33432 0.87883 0.02756 0.0
C1360 C 0.32428 0.8577 0.02479 0.0
C1361 C 0.30477 0.84782 0.01861 0.0
C1362 C 0.2952 0.85893 0.01506 0.0
C1363 C 0.30515 0.87997 0.01765 0.0
C1364 C 0.32465 0.88992 0.02385 0.0
C1365 C 0.44318 0.95038 0.0178 0.0
C1366 C 0.44273 0.96862 0.01645 0.0
C1367 C 0.42602 0.93293 0.02265 0.0
C1368 C 0.4082 0.93349 0.02632 0.0
C1369 C 0.40732 0.95136 0.02428 0.0
C1370 C 0.42454 0.96887 0.01952 0.0
C1371 C 0.39135 0.91618 0.03344 0.0
C1372 C 0.37134 0.9061 0.02786 0.0
C1373 C 0.39505 0.90966 0.04576 0.0
C1374 C 0.4155 0.92069 0.05265 0.0
C1375 C 0.42462 0.94165 0.05582 0.0
C1376 C 0.44387 0.95197 0.0623 0.0
C1377 C 0.45412 0.94147 0.06577 0.0
C1378 C 0.44509 0.92061 0.06279 0.0
C1379 C 0.42583 0.91021 0.05629 0.0
H1380 H 0.469 0.94945 0.07082 0.0
H1381 H 0.28011 0.85125 0.01027 0.0
H1382 H 0.17914 0.48134 0.05084 0.0
H1383 H 0.15267 0.48766 0.04096 0.0
H1384 H 0.10685 0.44298 0.06671 0.0
H1385 H 0.13321 0.43697 0.0768 0.0
H1386 H 0.09811 0.43882 0.03702 0.0
H1387 H 0.11903 0.48633 0.07462 0.0
H1388 H 0.14453 0.51547 0.08837 0.0
H1389 H 0.16049 0.5547 0.05473 0.0
H1390 H 0.13528 0.52568 0.04072 0.0
H1391 H 0.00882 0.44544 0.02547 0.0
H1392 H 0.03794 0.44237 0.0333 0.0
H1393 H 0.07973 0.50508 0.02285 0.0
H1394 H 0.05011 0.50881 0.01678 0.0
H1395 H 0.09305 0.50125 0.04359 0.0
H1396 H 0.0768 0.45625 0.00522 0.0
H1397 H 0.05509 0.42796 0.98948 0.0
H1398 H 0.03393 0.3857 0.02163 0.0
H1399 H 0.05572 0.41373 0.03745 0.0
C1400 C 0.16346 0.47308 0.05447 0.0
C1401 C 0.15824 0.45876 0.06463 0.0
C1402 C 0.1484 0.47671 0.04886 0.0
C1403 C 0.12784 0.46579 0.05314 0.0
C1404 C 0.12265 0.4516 0.06331 0.0
C1405 C 0.13773 0.44828 0.06911 0.0
C1406 C 0.11145 0.46836 0.04662 0.0
C1407 C 0.09684 0.4524 0.03849 0.0
C1408 C 0.11034 0.48636 0.04817 0.0
C1409 C 0.12547 0.50378 0.05659 0.0
C1410 C 0.12814 0.50111 0.07012 0.0
C1411 C 0.1425 0.51762 0.07797 0.0
C1412 C 0.15418 0.53691 0.07242 0.0
C1413 C 0.15147 0.53974 0.05901 0.0
C1414 C 0.13714 0.52327 0.05112 0.0
C1415 C 0.02428 0.45849 0.02467 0.0
C1416 C 0.0272 0.47716 0.02002 0.0
C1417 C 0.04108 0.45664 0.02897 0.0
C1418 C 0.06143 0.47323 0.0283 0.0
C1419 C 0.06435 0.49189 0.02345 0.0
C1420 C 0.04739 0.49396 0.01969 0.0
C1421 C 0.0793 0.47161 0.03375 0.0
C1422 C 0.09426 0.48772 0.04181 0.0
C1423 C 0.08108 0.4539 0.03185 0.0
C1424 C 0.06756 0.43711 0.02248 0.0
C1425 C 0.06729 0.44096 0.0089 0.0
C1426 C 0.05508 0.42497 0.99998 0.0
C1427 C 0.04297 0.40509 0.00458 0.0
C1428 C 0.04323 0.40112 0.01808 0.0
C1429 C 0.05559 0.41703 0.02701 0.0
H1430 H 0.03349 0.39274 0.99766 0.0
H1431 H 0.16528 0.54968 0.07851 0.0
H1432 H 0.57079 0.71087 0.07526 0.0
H1433 H 0.55774 0.67639 0.06595 0.0
H1434 H 0.53538 0.69236 0.03113 0.0
H1435 H 0.54878 0.72712 0.0403 0.0
H1436 H 0.50729 0.65029 0.04437 0.0
H1437 H 0.57499 0.69426 0.02548 0.0
H1438 H 0.61207 0.72012 0.0271 0.0
H1439 H 0.62268 0.68093 0.05244 0.0
H1440 H 0.58556 0.65497 0.05115 0.0
H1441 H 0.49053 0.56416 0.00547 0.0
H1442 H 0.4998 0.59856 0.01285 0.0
H1443 H 0.54515 0.5995 0.04009 0.0
H1444 H 0.5371 0.56583 0.03204 0.0
H1445 H 0.56091 0.63421 0.02956 0.0
H1446 H 0.49528 0.59068 0.04959 0.0
H1447 H 0.45838 0.56414 0.04973 0.0
H1448 H 0.4436 0.60092 0.02487 0.0
H1449 H 0.48047 0.62756 0.02442 0.0
C1450 C 0.56278 0.70692 0.06573 0.0
C1451 C 0.56078 0.72159 0.05848 0.0
C1452 C 0.5554 0.68728 0.06042 0.0
C1453 C 0.54565 0.68194 0.04788 0.0
C1454 C 0.54282 0.69626 0.04085 0.0
C1455 C 0.55054 0.71606 0.04605 0.0
C1456 C 0.53985 0.66187 0.04178 0.0
C1457 C 0.51891 0.64676 0.04093 0.0
C1458 C 0.55513 0.65728 0.03767 0.0
C1459 C 0.57747 0.67278 0.03833 0.0
C1460 C 0.58519 0.69124 0.0315 0.0
C1461 C 0.60622 0.7059 0.03234 0.0
C1462 C 0.61971 0.70219 0.0399 0.0
C1463 C 0.6122 0.68379 0.0466 0.0
C1464 C 0.59118 0.6691 0.04581 0.0
C1465 C 0.50274 0.5718 0.01284 0.0
C1466 C 0.51325 0.56226 0.01798 0.0
C1467 C 0.50782 0.59141 0.01722 0.0
C1468 C 0.523 0.60159 0.02718 0.0
C1469 C 0.53344 0.59204 0.03236 0.0
C1470 C 0.52872 0.57268 0.02777 0.0
C1471 C 0.52821 0.62222 0.03223 0.0
C1472 C 0.54913 0.63757 0.0329 0.0
C1473 C 0.51288 0.62685 0.03642 0.0
C1474 C 0.49066 0.61103 0.03687 0.0
C1475 C 0.48417 0.59306 0.0441 0.0
C1476 C 0.46326 0.578 0.04423 0.0
C1477 C 0.44866 0.58082 0.03728 0.0
C1478 C 0.45493 0.59874 0.03023 0.0
C1479 C 0.47583 0.61384 0.03004 0.0
H1480 H 0.43248 0.56913 0.03739 0.0
H1481 H 0.63599 0.71356 0.04053 0.0
H1482 H 0.82654 0.29371 0.93974 0.0
H1483 H 0.8498 0.32835 0.9484 0.0
H1484 H 0.87965 0.30515 0.9739 0.0
H1485 H 0.85664 0.27062 0.96525 0.0
H1486 H 0.87305 0.33215 0.98712 0.0
H1487 H 0.90186 0.32888 0.94517 0.0
H1488 H 0.90149 0.32305 0.92096 0.0
H1489 H 0.88672 0.37023 0.91404 0.0
H1490 H 0.88672 0.37615 0.93824 0.0
H1491 H 0.97514 0.43623 0.98119 0.0
H1492 H 0.95041 0.4021 0.97261 0.0
H1493 H 0.90099 0.40487 0.99273 0.0
H1494 H 0.92561 0.43894 0.00144 0.0
H1495 H 0.91736 0.38806 0.95671 0.0
H1496 H 0.86568 0.35703 0.0029 0.0
H1497 H 0.86827 0.36157 0.02732 0.0
H1498 H 0.93309 0.38149 0.02607 0.0
H1499 H 0.93084 0.37683 0.00168 0.0
C1500 C 0.83811 0.29601 0.94715 0.0
C1501 C 0.83971 0.27938 0.9518 0.0
C1502 C 0.85137 0.3158 0.95211 0.0
C1503 C 0.86656 0.31936 0.96173 0.0
C1504 C 0.86798 0.30276 0.96653 0.0
C1505 C 0.85475 0.283 0.9616 0.0
C1506 C 0.88125 0.34038 0.96672 0.0
C1507 C 0.88266 0.3444 0.98047 0.0
C1508 C 0.89403 0.3563 0.95806 0.0
C1509 C 0.89407 0.3528 0.94351 0.0
C1510 C 0.89837 0.3379 0.93849 0.0
C1511 C 0.89826 0.3346 0.92477 0.0
C1512 C 0.89403 0.34622 0.91597 0.0
C1513 C 0.88996 0.36121 0.92087 0.0
C1514 C 0.89002 0.36456 0.93459 0.0
C1515 C 0.95901 0.42962 0.9838 0.0
C1516 C 0.95242 0.44027 0.99214 0.0
C1517 C 0.94488 0.41011 0.97885 0.0
C1518 C 0.92388 0.40083 0.98213 0.0
C1519 C 0.91718 0.41157 0.99024 0.0
C1520 C 0.9313 0.43107 0.99522 0.0
C1521 C 0.90908 0.37986 0.97712 0.0
C1522 C 0.90762 0.37586 0.96336 0.0
C1523 C 0.89654 0.36386 0.98579 0.0
C1524 C 0.8981 0.36675 1.00046 0.0
C1525 C 0.88047 0.36232 0.00785 0.0
C1526 C 0.88188 0.36491 0.02168 0.0
C1527 C 0.90082 0.37178 0.02824 0.0
C1528 C 0.91842 0.37615 0.02098 0.0
C1529 C 0.9171 0.37359 0.00714 0.0
H1530 H 0.90188 0.37377 0.03894 0.0
H1531 H 0.89395 0.34365 0.90535 0.0
H1532 H 0.70239 0.57747 0.94126 0.0
H1533 H 0.66955 0.56979 0.95133 0.0
H1534 H 0.66359 0.51475 0.96775 0.0
H1535 H 0.69671 0.52251 0.95781 0.0
H1536 H 0.62626 0.51072 0.95458 0.0
H1537 H 0.67726 0.55101 0.98817 0.0
H1538 H 0.70944 0.58079 0.99665 0.0
H1539 H 0.6866 0.62063 0.98564 0.0
H1540 H 0.65439 0.5911 0.9769 0.0
H1541 H 0.54054 0.49246 0.99432 0.0
H1542 H 0.5738 0.49691 0.9873 0.0
H1543 H 0.5943 0.55963 0.97771 0.0
H1544 H 0.56131 0.55539 0.98532 0.0
H1545 H 0.62485 0.55787 0.98882 0.0
H1546 H 0.57618 0.52025 0.95361 0.0
H1547 H 0.54451 0.49203 0.94325 0.0
H1548 H 0.56279 0.44907 0.95534 0.0
H1549 H 0.59448 0.47701 0.9659 0.0
C1550 C 0.694 0.56363 0.94692 0.0
C1551 C 0.70209 0.55055 0.94872 0.0
C1552 C 0.67531 0.55933 0.95272 0.0
C1553 C 0.66419 0.54176 0.96033 0.0
C1554 C 0.67196 0.5284 0.96192 0.0
C1555 C 0.69087 0.53288 0.95629 0.0
C1556 C 0.64461 0.53761 0.96672 0.0
C1557 C 0.62593 0.52079 0.96223 0.0
C1558 C 0.64419 0.55109 0.97644 0.0
C1559 C 0.66349 0.56886 0.98177 0.0
C1560 C 0.67917 0.56614 0.98745 0.0
C1561 C 0.6974 0.58297 0.99233 0.0
C1562 C 0.70008 0.6026 0.99166 0.0
C1563 C 0.68451 0.60542 0.98614 0.0
C1564 C 0.66625 0.58864 0.98124 0.0
C1565 C 0.5523 0.50731 0.99102 0.0
C1566 C 0.54856 0.52375 0.9907 0.0
C1567 C 0.57124 0.50977 0.98681 0.0
C1568 C 0.58656 0.52856 0.98181 0.0
C1569 C 0.58282 0.54501 0.98157 0.0
C1570 C 0.56396 0.54258 0.98588 0.0
C1571 C 0.60631 0.53108 0.97655 0.0
C1572 C 0.62509 0.54763 0.98125 0.0
C1573 C 0.60677 0.51754 0.96684 0.0
C1574 C 0.5876 0.50069 0.96066 0.0
C1575 C 0.57336 0.50476 0.95416 0.0
C1576 C 0.55543 0.48883 0.94823 0.0
C1577 C 0.55166 0.4688 0.94866 0.0
C1578 C 0.56575 0.46462 0.95503 0.0
C1579 C 0.5837 0.48048 0.96098 0.0
H1580 H 0.53787 0.45652 0.944 0.0
H1581 H 0.71421 0.61561 0.99543 0.0
H1582 H 0.50993 0.18118 0.92796 0.0
H1583 H 0.50895 0.15294 0.94002 0.0
H1584 H 0.44687 0.13376 0.95258 0.0
H1585 H 0.44736 0.1616 0.94015 0.0
H1586 H 0.47311 0.13461 0.97327 0.0
H1587 H 0.45221 0.10769 0.92881 0.0
H1588 H 0.45514 0.10737 0.90441 0.0
H1589 H 0.51271 0.10801 0.90841 0.0
H1590 H 0.5103 0.10867 0.93285 0.0
H1591 H 0.46013 0.02546 0.9762 0.0
H1592 H 0.45621 0.05166 0.96479 0.0
H1593 H 0.50675 0.09859 0.98814 0.0
H1594 H 0.51066 0.07255 0.99971 0.0
H1595 H 0.48262 0.08204 0.94944 0.0
H1596 H 0.4988 0.13831 0.99326 0.0
H1597 H 0.49551 0.13734 0.01768 0.0
H1598 H 0.44461 0.07576 0.01481 0.0
H1599 H 0.44739 0.07646 0.99037 0.0
C1600 C 0.49592 0.17083 0.93312 0.0
C1601 C 0.47865 0.17362 0.93297 0.0
C1602 C 0.49547 0.15477 0.94009 0.0
C1603 C 0.4778 0.14122 0.94712 0.0
C1604 C 0.46067 0.14412 0.94724 0.0
C1605 C 0.46103 0.16009 0.94016 0.0
C1606 C 0.47722 0.1239 0.9542 0.0
C1607 C 0.47512 0.12307 0.96807 0.0
C1608 C 0.47965 0.10877 0.94737 0.0
C1609 C 0.48117 0.10843 0.93267 0.0
C1610 C 0.4656 0.10796 0.92449 0.0
C1611 C 0.46714 0.10768 0.91065 0.0
C1612 C 0.48412 0.10772 0.90486 0.0
C1613 C 0.49958 0.10801 0.91291 0.0
C1614 C 0.49812 0.10832 0.92676 0.0
C1615 C 0.47034 0.04135 0.97898 0.0
C1616 C 0.48561 0.04689 0.98894 0.0
C1617 C 0.46811 0.0563 0.97241 0.0
C1618 C 0.48105 0.07706 0.9757 0.0
C1619 C 0.49635 0.08264 0.98561 0.0
C1620 C 0.49855 0.06771 0.99221 0.0
C1621 C 0.47884 0.09289 0.96854 0.0
C1622 C 0.48048 0.0935 0.95465 0.0
C1623 C 0.47584 0.1077 0.97534 0.0
C1624 C 0.4734 0.10742 0.98999 0.0
C1625 C 0.48679 0.12463 0.99784 0.0
C1626 C 0.48504 0.12411 0.01168 0.0
C1627 C 0.46989 0.10649 0.01779 0.0
C1628 C 0.45636 0.08939 0.01006 0.0
C1629 C 0.45802 0.08984 0.99622 0.0
H1630 H 0.46862 0.10609 0.02851 0.0
H1631 H 0.48528 0.10748 0.89415 0.0
H1632 H 0.70905 0.11846 0.95572 0.0
H1633 H 0.67549 0.09716 0.96583 0.0
H1634 H 0.65619 0.13982 0.95416 0.0
H1635 H 0.68996 0.16136 0.94397 0.0
H1636 H 0.64502 0.12788 0.97918 0.0
H1637 H 0.63764 0.0943 0.93754 0.0
H1638 H 0.64706 0.07874 0.91917 0.0
H1639 H 0.64506 0.03367 0.94559 0.0
H1640 H 0.6359 0.04913 0.96417 0.0
H1641 H 0.53829 0.05382 0.99366 0.0
H1642 H 0.57183 0.08107 0.98617 0.0
H1643 H 0.59774 0.04189 0.99196 0.0
H1644 H 0.5639 0.01432 0.99865 0.0
H1645 H 0.60378 0.05387 0.96811 0.0
H1646 H 0.6225 0.09665 0.01048 0.0
H1647 H 0.61713 0.11624 0.02832 0.0
H1648 H 0.59602 0.1433 0.99947 0.0
H1649 H 0.60226 0.12462 0.98143 0.0
C1650 C 0.69759 0.12322 0.95513 0.0
C1651 C 0.70211 0.14151 0.9489 0.0
C1652 C 0.6784 0.11103 0.96095 0.0
C1653 C 0.66318 0.11671 0.96057 0.0
C1654 C 0.66768 0.1351 0.95453 0.0
C1655 C 0.68698 0.1474 0.94873 0.0
C1656 C 0.64273 0.10345 0.96668 0.0
C1657 C 0.63585 0.11173 0.97664 0.0
C1658 C 0.63077 0.08238 0.96344 0.0
C1659 C 0.63623 0.07298 0.95228 0.0
C1660 C 0.63935 0.08116 0.93946 0.0
C1661 C 0.64462 0.07235 0.929 0.0
C1662 C 0.6467 0.05526 0.93122 0.0
C1663 C 0.64346 0.04692 0.94389 0.0
C1664 C 0.6382 0.05569 0.95438 0.0
C1665 C 0.55136 0.05134 0.99379 0.0
C1666 C 0.54861 0.03203 0.99676 0.0
C1667 C 0.57062 0.06699 0.98954 0.0
C1668 C 0.58748 0.06364 0.98845 0.0
C1669 C 0.58501 0.04486 0.99258 0.0
C1670 C 0.56571 0.02913 0.99648 0.0
C1671 C 0.6065 0.07803 0.98114 0.0
C1672 C 0.61296 0.06998 0.97074 0.0
C1673 C 0.61793 0.0993 0.98388 0.0
C1674 C 0.61251 0.10906 0.9947 0.0
C1675 C 0.61652 0.10663 0.00799 0.0
C1676 C 0.61354 0.11772 0.0181 0.0
C1677 C 0.60606 0.13085 0.01504 0.0
C1678 C 0.60174 0.13308 0.00184 0.0
C1679 C 0.60518 0.12241 0.99166 0.0
H1680 H 0.60368 0.13935 0.0229 0.0
H1681 H 0.65078 0.04845 0.92311 0.0
H1682 H 0.86955 0.58211 0.95192 0.0
H1683 H 0.89324 0.57174 0.96073 0.0
H1684 H 0.85032 0.50913 0.94945 0.0
H1685 H 0.82654 0.51946 0.94025 0.0
H1686 H 0.86511 0.51237 0.97467 0.0
H1687 H 0.89403 0.53526 0.93217 0.0
H1688 H 0.9073 0.5585 0.91319 0.0
H1689 H 0.95553 0.60445 0.93808 0.0
H1690 H 0.94238 0.58158 0.95726 0.0
H1691 H 0.94345 0.48626 0.99225 0.0
H1692 H 0.91511 0.48972 0.98288 0.0
H1693 H 0.95352 0.55542 0.98516 0.0
H1694 H 0.98222 0.55184 0.99364 0.0
H1695 H 0.93882 0.54599 0.96194 0.0
H1696 H 0.8951 0.52609 0.00477 0.0
H1697 H 0.87586 0.50301 0.02306 0.0
H1698 H 0.85556 0.451 0.99679 0.0
H1699 H 0.87389 0.47393 0.97821 0.0
C1700 C 0.86522 0.56616 0.95104 0.0
C1701 C 0.84614 0.55168 0.94521 0.0
C1702 C 0.87882 0.56025 0.95614 0.0
C1703 C 0.87373 0.53969 0.95559 0.0
C1704 C 0.85462 0.52509 0.94994 0.0
C1705 C 0.84099 0.53103 0.94474 0.0
C1706 C 0.88814 0.53357 0.96142 0.0
C1707 C 0.88118 0.5195 0.97175 0.0
C1708 C 0.90913 0.54291 0.95769 0.0
C1709 C 0.91712 0.55674 0.94618 0.0
C1710 C 0.90737 0.55038 0.93362 0.0
C1711 C 0.91489 0.56348 0.92283 0.0
C1712 C 0.93222 0.58296 0.92444 0.0
C1713 C 0.9421 0.58936 0.93685 0.0
C1714 C 0.93463 0.57632 0.94769 0.0
C1715 C 0.9456 0.50141 0.99108 0.0
C1716 C 0.96499 0.51881 0.99372 0.0
C1717 C 0.92928 0.50341 0.98579 0.0
C1718 C 0.93191 0.52287 0.98333 0.0
C1719 C 0.95098 0.54021 0.98682 0.0
C1720 C 0.96739 0.5382 0.99174 0.0
C1721 C 0.9161 0.52549 0.97574 0.0
C1722 C 0.92278 0.53881 0.9649 0.0
C1723 C 0.89483 0.51537 0.97893 0.0
C1724 C 0.88625 0.5016 0.99027 0.0
C1725 C 0.88678 0.50971 0.00299 0.0
C1726 C 0.87579 0.49669 0.01333 0.0
C1727 C 0.8646 0.47554 0.01111 0.0
C1728 C 0.86429 0.46737 0.99851 0.0
C1729 C 0.87484 0.48037 0.98806 0.0
H1730 H 0.85615 0.46548 0.01915 0.0
H1731 H 0.93802 0.59307 0.91606 0.0
H1732 H 0.51175 0.32442 0.9429 0.0
H1733 H 0.51184 0.35201 0.95581 0.0
H1734 H 0.44733 0.32787 0.94621 0.0
H1735 H 0.44672 0.29958 0.93376 0.0
H1736 H 0.47401 0.37136 0.94207 0.0
H1737 H 0.4573 0.32072 0.9756 0.0
H1738 H 0.46237 0.29596 0.98841 0.0
H1739 H 0.52201 0.34396 0.00182 0.0
H1740 H 0.51743 0.36898 0.98892 0.0
H1741 H 0.45827 0.43647 0.98557 0.0
H1742 H 0.45463 0.40602 0.97428 0.0
H1743 H 0.51474 0.42022 0.98923 0.0
H1744 H 0.51831 0.4504 1.0008 0.0
H1745 H 0.48897 0.3808 0.9906 0.0
H1746 H 0.50691 0.43152 0.95745 0.0
H1747 H 0.50367 0.45697 0.94415 0.0
H1748 H 0.44437 0.41029 0.92933 0.0
H1749 H 0.44707 0.3846 0.94271 0.0
C1750 C 0.49743 0.32466 0.94371 0.0
C1751 C 0.4792 0.30963 0.93729 0.0
C1752 C 0.49758 0.34057 0.95102 0.0
C1753 C 0.47959 0.34192 0.95196 0.0
C1754 C 0.46139 0.32711 0.94553 0.0
C1755 C 0.46113 0.31101 0.93837 0.0
C1756 C 0.47989 0.35893 0.95959 0.0
C1757 C 0.47694 0.37331 0.95272 0.0
C1758 C 0.48434 0.36169 0.97338 0.0
C1759 C 0.4871 0.34668 0.98118 0.0
C1760 C 0.47158 0.32597 0.98118 0.0
C1761 C 0.47434 0.31189 0.98848 0.0
C1762 C 0.49252 0.31837 0.99589 0.0
C1763 C 0.50795 0.33896 0.99605 0.0
C1764 C 0.50527 0.35309 0.98876 0.0
C1765 C 0.47064 0.43303 0.98656 0.0
C1766 C 0.4886 0.4459 0.99406 0.0
C1767 C 0.46859 0.41567 0.98003 0.0
C1768 C 0.48457 0.41103 0.98071 0.0
C1769 C 0.50222 0.42351 0.98854 0.0
C1770 C 0.50422 0.44077 0.99516 0.0
C1771 C 0.48309 0.39338 0.97311 0.0
C1772 C 0.48591 0.37888 0.97996 0.0
C1773 C 0.47879 0.39069 0.95925 0.0
C1774 C 0.47711 0.40616 0.95121 0.0
C1775 C 0.49309 0.42671 0.95145 0.0
C1776 C 0.49135 0.44118 0.9439 0.0
C1777 C 0.47379 0.43526 0.93595 0.0
C1778 C 0.45794 0.41486 0.93553 0.0
C1779 C 0.45957 0.40034 0.94309 0.0
H1780 H 0.47252 0.44643 0.93004 0.0
H1781 H 0.49463 0.30745 0.00154 0.0
H1782 H 0.14793 0.70558 0.08021 0.0
H1783 H 0.11868 0.67604 0.06924 0.0
H1784 H 0.16074 0.66026 0.05051 0.0
H1785 H 0.18997 0.68956 0.0615 0.0
H1786 H 0.13164 0.65689 0.03317 0.0
H1787 H 0.13343 0.63515 0.07771 0.0
H1788 H 0.13314 0.63678 0.10221 0.0
H1789 H 0.07357 0.63237 0.10084 0.0
H1790 H 0.07363 0.63099 0.0763 0.0
H1791 H 0.06709 0.55388 0.01437 0.0
H1792 H 0.09317 0.58607 0.02448 0.0
H1793 H 0.04527 0.59431 0.04212 0.0
H1794 H 0.01888 0.56171 0.03216 0.0
H1795 H 0.07539 0.60309 0.05972 0.0
H1796 H 0.07283 0.62257 0.01493 0.0
H1797 H 0.07314 0.61992 0.99047 0.0
H1798 H 0.13417 0.62781 0.99233 0.0
H1799 H 0.13416 0.63033 0.01682 0.0
C1800 C 0.15094 0.69578 0.07379 0.0
C1801 C 0.17131 0.69994 0.07175 0.0
C1802 C 0.13421 0.67892 0.06752 0.0
C1803 C 0.13751 0.66583 0.05916 0.0
C1804 C 0.15783 0.67019 0.05689 0.0
C1805 C 0.17454 0.68702 0.06314 0.0
C1806 C 0.11985 0.64741 0.05286 0.0
C1807 C 0.11942 0.64505 0.03898 0.0
C1808 C 0.10362 0.63221 0.06042 0.0
C1809 C 0.10365 0.63322 0.07517 0.0
C1810 C 0.12036 0.63473 0.08263 0.0
C1811 C 0.12022 0.63557 0.09652 0.0
C1812 C 0.10338 0.63474 0.10308 0.0
C1813 C 0.08663 0.63305 0.09575 0.0
C1814 C 0.0867 0.63223 0.08185 0.0
C1815 C 0.06201 0.56259 0.02028 0.0
C1816 C 0.04085 0.5553 0.02234 0.0
C1817 C 0.07699 0.58106 0.02604 0.0
C1818 C 0.0712 0.59283 0.03387 0.0
C1819 C 0.0501 0.58553 0.03606 0.0
C1820 C 0.03504 0.56692 0.03035 0.0
C1821 C 0.0873 0.61244 0.04003 0.0
C1822 C 0.08746 0.61504 0.05388 0.0
C1823 C 0.10331 0.62785 0.03245 0.0
C1824 C 0.10345 0.62655 0.01772 0.0
C1825 C 0.08628 0.62366 0.01013 0.0
C1826 C 0.08643 0.62222 0.99626 0.0
C1827 C 0.10368 0.62373 0.98986 0.0
C1828 C 0.12084 0.62669 0.99731 0.0
C1829 C 0.12079 0.62817 0.01118 0.0
H1830 H 0.10373 0.62256 0.97912 0.0
H1831 H 0.10328 0.63535 0.11383 0.0
H1832 H 0.2997 0.47897 0.0569 0.0
H1833 H 0.33402 0.48936 0.04815 0.0
H1834 H 0.33247 0.43733 0.06642 0.0
H1835 H 0.29887 0.42756 0.07579 0.0
H1836 H 0.36909 0.46826 0.06944 0.0
H1837 H 0.32165 0.43939 0.03222 0.0
H1838 H 0.29504 0.43622 0.0162 0.0
H1839 H 0.33566 0.49733 0.00312 0.0
H1840 H 0.36241 0.50096 0.01921 0.0
H1841 H 0.43819 0.45184 0.03073 0.0
H1842 H 0.4061 0.44865 0.03934 0.0
H1843 H 0.42572 0.51025 0.02749 0.0
H1844 H 0.45819 0.51373 0.01925 0.0
H1845 H 0.38212 0.47902 0.02109 0.0
H1846 H 0.43081 0.50579 0.05751 0.0
H1847 H 0.45721 0.50694 0.0729 0.0
H1848 H 0.41352 0.44734 0.08692 0.0
H1849 H 0.38696 0.44564 0.07143 0.0
C1850 C 0.30679 0.46991 0.05924 0.0
C1851 C 0.29631 0.45227 0.06697 0.0
C1852 C 0.32635 0.47574 0.05408 0.0
C1853 C 0.33577 0.46394 0.05639 0.0
C1854 C 0.32557 0.44667 0.06439 0.0
C1855 C 0.30617 0.44096 0.06965 0.0
C1856 C 0.35612 0.46928 0.05046 0.0
C1857 C 0.37181 0.47045 0.05885 0.0
C1858 C 0.36002 0.47268 0.03666 0.0
C1859 C 0.34391 0.47055 0.02705 0.0
C1860 C 0.32482 0.45222 0.02602 0.0
C1861 C 0.30973 0.45033 0.01691 0.0
C1862 C 0.31362 0.46659 0.00868 0.0
C1863 C 0.33264 0.48476 0.00953 0.0
C1864 C 0.34777 0.48675 0.01864 0.0
C1865 C 0.43556 0.46462 0.02986 0.0
C1866 C 0.45047 0.48287 0.02408 0.0
C1867 C 0.41727 0.4628 0.03478 0.0
C1868 C 0.41357 0.47922 0.03406 0.0
C1869 C 0.42825 0.49737 0.02808 0.0
C1870 C 0.44673 0.4993 0.02331 0.0
C1871 C 0.39466 0.47747 0.04005 0.0
C1872 C 0.37935 0.47703 0.03169 0.0
C1873 C 0.39099 0.4745 0.05384 0.0
C1874 C 0.40693 0.47552 0.06321 0.0
C1875 C 0.42688 0.49284 0.06378 0.0
C1876 C 0.44187 0.4936 0.07254 0.0
C1877 C 0.43705 0.47721 0.08087 0.0
C1878 C 0.41723 0.46002 0.08046 0.0
C1879 C 0.4022 0.45915 0.07169 0.0
H1880 H 0.44863 0.47783 0.08767 0.0
H1881 H 0.30192 0.46509 0.00163 0.0
H1882 H 0.57867 0.85845 0.04132 0.0
H1883 H 0.56455 0.87932 0.03322 0.0
H1884 H 0.54047 0.87912 0.07214 0.0
H1885 H 0.55459 0.85813 0.08034 0.0
H1886 H 0.513 0.87447 0.05241 0.0
H1887 H 0.58449 0.92007 0.06269 0.0
H1888 H 0.62198 0.93275 0.06213 0.0
H1889 H 0.62144 0.93898 0.01977 0.0
H1890 H 0.58386 0.92604 0.02005 0.0
H1891 H 0.50305 0.96322 0.04046 0.0
H1892 H 0.51343 0.93981 0.04986 0.0
H1893 H 0.5316 0.93052 0.01091 0.0
H1894 H 0.52115 0.95375 0.00153 0.0
H1895 H 0.56174 0.9405 0.03176 0.0
H1896 H 0.4899 0.89497 0.02176 0.0
H1897 H 0.45252 0.88267 0.02261 0.0
H1898 H 0.45377 0.87674 0.06495 0.0
H1899 H 0.49132 0.88958 0.06441 0.0
C1900 C 0.57041 0.86288 0.04817 0.0
C1901 C 0.56797 0.85688 0.06152 0.0
C1902 C 0.56231 0.87476 0.04352 0.0
C1903 C 0.55177 0.88106 0.05214 0.0
C1904 C 0.5486 0.87446 0.06534 0.0
C1905 C 0.55665 0.86247 0.07 0.0
C1906 C 0.54476 0.89511 0.04739 0.0
C1907 C 0.52369 0.88905 0.04809 0.0
C1908 C 0.55869 0.91401 0.04158 0.0
C1909 C 0.58132 0.92191 0.04138 0.0
C1910 C 0.59233 0.924 0.05324 0.0
C1911 C 0.61361 0.93125 0.05298 0.0
C1912 C 0.62408 0.93662 0.04092 0.0
C1913 C 0.6133 0.93479 0.0291 0.0
C1914 C 0.59202 0.92752 0.02931 0.0
C1915 C 0.5092 0.95609 0.03394 0.0
C1916 C 0.51109 0.95999 0.02026 0.0
C1917 C 0.51503 0.94271 0.03929 0.0
C1918 C 0.52315 0.93339 0.03104 0.0
C1919 C 0.52524 0.9375 0.0174 0.0
C1920 C 0.51909 0.95057 0.01203 0.0
C1921 C 0.53 0.91976 0.03666 0.0
C1922 C 0.55107 0.92596 0.03615 0.0
C1923 C 0.51608 0.9011 0.0427 0.0
C1924 C 0.49351 0.8935 0.04306 0.0
C1925 C 0.48228 0.89132 0.03128 0.0
C1926 C 0.46105 0.88422 0.0317 0.0
C1927 C 0.45079 0.87897 0.04383 0.0
C1928 C 0.46175 0.88084 0.05556 0.0
C1929 C 0.48302 0.88807 0.05521 0.0
H1930 H 0.43433 0.87338 0.04412 0.0
H1931 H 0.64055 0.94223 0.04074 0.0
H1932 H 0.96268 0.18768 0.40444 0.0
H1933 H 0.99018 0.21503 0.39167 0.0
H1934 H 0.02444 0.18307 0.39204 0.0
H1935 H 0.99693 0.15553 0.40457 0.0
H1936 H 0.04879 0.22312 0.39888 0.0
H1937 H 0.9999 0.18408 0.36409 0.0
H1938 H 0.96583 0.16681 0.35276 0.0
H1939 H 0.9666 0.22387 0.35071 0.0
H1940 H 1.00057 0.24144 0.36221 0.0
H1941 H 0.12438 0.28165 0.35164 0.0
H1942 H 0.09388 0.25219 0.36077 0.0
H1943 H 0.06401 0.28812 0.36492 0.0
H1944 H 0.09468 0.3178 0.35589 0.0
H1945 H 0.03734 0.24613 0.35527 0.0
H1946 H 0.08449 0.28479 0.39094 0.0
H1947 H 0.11823 0.30267 0.40266 0.0
H1948 H 0.12043 0.24709 0.4032 0.0
H1949 H 0.0867 0.22883 0.39136 0.0
C1950 C 0.97592 0.18632 0.40165 0.0
C1951 C 0.97759 0.1694 0.4056 0.0
C1952 C 0.99166 0.202 0.39437 0.0
C1953 C 0.00934 0.20106 0.39085 0.0
C1954 C 0.01099 0.18417 0.3947 0.0
C1955 C 0.99527 0.16848 0.40193 0.0
C1956 C 0.02641 0.21791 0.38346 0.0
C1957 C 0.0463 0.22793 0.38926 0.0
C1958 C 0.0231 0.22456 0.37106 0.0
C1959 C 0.00268 0.21403 0.36414 0.0
C1960 C 0.99273 0.19291 0.36133 0.0
C1961 C 0.97345 0.18308 0.35486 0.0
C1962 C 0.96403 0.19423 0.35105 0.0
C1963 C 0.9739 0.21525 0.35369 0.0
C1964 C 0.99317 0.22515 0.36018 0.0
C1965 C 0.11114 0.28314 0.35421 0.0
C1966 C 0.11173 0.30191 0.35294 0.0
C1967 C 0.09379 0.26634 0.35948 0.0
C1968 C 0.07678 0.26806 0.36356 0.0
C1969 C 0.07697 0.28652 0.36177 0.0
C1970 C 0.09446 0.30341 0.35666 0.0
C1971 C 0.05956 0.25113 0.37068 0.0
C1972 C 0.03972 0.24119 0.36487 0.0
C1973 C 0.06285 0.2446 0.38311 0.0
C1974 C 0.08319 0.2555 0.39014 0.0
C1975 C 0.09226 0.27641 0.39344 0.0
C1976 C 0.11135 0.28659 0.40013 0.0
C1977 C 0.12149 0.276 0.40364 0.0
C1978 C 0.11257 0.25523 0.40043 0.0
C1979 C 0.09344 0.24495 0.39376 0.0
H1980 H 0.1362 0.28384 0.4089 0.0
H1981 H 0.94911 0.18658 0.34604 0.0
H1982 H 0.79716 0.7673 0.40615 0.0
H1983 H 0.77175 0.77437 0.3957 0.0
H1984 H 0.82066 0.82524 0.37527 0.0
H1985 H 0.84623 0.81791 0.38549 0.0
H1986 H 0.78672 0.83068 0.38996 0.0
H1987 H 0.7981 0.79073 0.35659 0.0
H1988 H 0.80111 0.76127 0.34883 0.0
H1989 H 0.73881 0.72026 0.36087 0.0
H1990 H 0.73555 0.74948 0.3689 0.0
H1991 H 0.71576 0.84504 0.35136 0.0
H1992 H 0.74573 0.84232 0.35791 0.0
H1993 H 0.70564 0.77816 0.3655 0.0
H1994 H 0.67587 0.78058 0.35773 0.0
H1995 H 0.73829 0.78186 0.35584 0.0
H1996 H 0.72645 0.81899 0.39083 0.0
H1997 H 0.72173 0.84687 0.39985 0.0
H1998 H 0.7824 0.89117 0.38683 0.0
H1999 H 0.78738 0.86354 0.37761 0.0
C2000 C 0.80253 0.78011 0.39953 0.0
C2001 C 0.82367 0.79211 0.39666 0.0
C2002 C 0.788 0.78408 0.39354 0.0
C2003 C 0.79435 0.80031 0.38472 0.0
C2004 C 0.81549 0.81266 0.38207 0.0
C2005 C 0.83003 0.80844 0.38786 0.0
C2006 C 0.77866 0.80381 0.37806 0.0
C2007 C 0.77632 0.82025 0.38233 0.0
C2008 C 0.76479 0.78985 0.36839 0.0
C2009 C 0.76666 0.77228 0.36347 0.0
C2010 C 0.78511 0.77542 0.3577 0.0
C2011 C 0.78685 0.75877 0.35323 0.0
C2012 C 0.77018 0.7389 0.35439 0.0
C2013 C 0.75172 0.73565 0.35999 0.0
C2014 C 0.74991 0.75226 0.3645 0.0
C2015 C 0.71341 0.83025 0.35404 0.0
C2016 C 0.69354 0.81288 0.35363 0.0
C2017 C 0.73055 0.82876 0.35806 0.0
C2018 C 0.72805 0.81009 0.36249 0.0
C2019 C 0.70813 0.79274 0.3621 0.0
C2020 C 0.69108 0.79413 0.35771 0.0
C2021 C 0.74593 0.80862 0.36786 0.0
C2022 C 0.74872 0.79249 0.36337 0.0
C2023 C 0.75994 0.82265 0.37755 0.0
C2024 C 0.75721 0.83922 0.38344 0.0
C2025 C 0.73876 0.83469 0.38987 0.0
C2026 C 0.73603 0.85044 0.39501 0.0
C2027 C 0.75174 0.87078 0.39388 0.0
C2028 C 0.77024 0.87541 0.38768 0.0
C2029 C 0.77304 0.85971 0.38251 0.0
H2030 H 0.74958 0.88296 0.39783 0.0
H2031 H 0.77155 0.72602 0.35091 0.0
H2032 H 0.23641 0.0663 0.36943 0.0
H2033 H 0.22159 0.03119 0.36067 0.0
H2034 H 0.23018 0.01156 0.39905 0.0
H2035 H 0.24482 0.04654 0.40788 0.0
H2036 H 0.24518 0.99855 0.37649 0.0
H2037 H 0.18418 0.00028 0.39114 0.0
H2038 H 0.16062 0.01425 0.39154 0.0
H2039 H 0.15025 0.00356 0.34942 0.0
H2040 H 0.174 0.98978 0.34875 0.0
H2041 H 0.19174 0.8927 0.3698 0.0
H2042 H 0.20316 0.92735 0.37751 0.0
H2043 H 0.17717 0.93795 0.34214 0.0
H2044 H 0.1642 0.90261 0.33489 0.0
H2045 H 0.1719 0.95685 0.36159 0.0
H2046 H 0.23068 0.95432 0.34594 0.0
H2047 H 0.25429 0.94049 0.34419 0.0
H2048 H 0.27041 0.95411 0.38558 0.0
H2049 H 0.24665 0.96773 0.38765 0.0
C2050 C 0.23508 0.05446 0.37598 0.0
C2051 C 0.24168 0.05907 0.38933 0.0
C2052 C 0.22659 0.03446 0.37099 0.0
C2053 C 0.2248 0.01885 0.37924 0.0
C2054 C 0.23146 0.02344 0.39255 0.0
C2055 C 0.23966 0.04335 0.39759 0.0
C2056 C 0.21613 0.99771 0.374 0.0
C2057 C 0.22912 0.98932 0.37334 0.0
C2058 C 0.19541 0.98605 0.36944 0.0
C2059 C 0.18103 0.99421 0.36987 0.0
C2060 C 0.17702 0.00107 0.38195 0.0
C2061 C 0.1636 0.00892 0.38223 0.0
C2062 C 0.15399 0.00985 0.37051 0.0
C2063 C 0.15773 0.00286 0.35849 0.0
C2064 C 0.17115 0.99502 0.35815 0.0
C2065 C 0.18832 0.9023 0.36365 0.0
C2066 C 0.1776 0.895 0.35145 0.0
C2067 C 0.19501 0.92223 0.36805 0.0
C2068 C 0.19178 0.93558 0.36017 0.0
C2069 C 0.18019 0.92807 0.34831 0.0
C2070 C 0.17296 0.90788 0.34407 0.0
C2071 C 0.20084 0.9574 0.36425 0.0
C2072 C 0.18801 0.96603 0.36464 0.0
C2073 C 0.22189 0.96946 0.36828 0.0
C2074 C 0.23676 0.96193 0.36697 0.0
C2075 C 0.23922 0.95432 0.35468 0.0
C2076 C 0.25261 0.94649 0.35363 0.0
C2077 C 0.2638 0.94637 0.36477 0.0
C2078 C 0.26172 0.9542 0.37697 0.0
C2079 C 0.24831 0.962 0.37808 0.0
H2080 H 0.27409 0.94022 0.36396 0.0
H2081 H 0.1436 0.01593 0.37075 0.0
H2082 H 0.53638 0.61762 0.27533 0.0
H2083 H 0.55899 0.6522 0.28405 0.0
H2084 H 0.50578 0.65536 0.29717 0.0
H2085 H 0.48295 0.62058 0.28848 0.0
H2086 H 0.53468 0.69121 0.28618 0.0
H2087 H 0.53352 0.64592 0.31925 0.0
H2088 H 0.53625 0.61705 0.32802 0.0
H2089 H 0.59975 0.64581 0.3162 0.0
H2090 H 0.59731 0.67472 0.30717 0.0
H2091 H 0.59268 0.77639 0.33048 0.0
H2092 H 0.56793 0.7426 0.32136 0.0
H2093 H 0.61818 0.73618 0.30594 0.0
H2094 H 0.64309 0.76986 0.31515 0.0
H2095 H 0.58943 0.70189 0.31884 0.0
H2096 H 0.58994 0.74715 0.28544 0.0
H2097 H 0.58691 0.77615 0.27727 0.0
H2098 H 0.52411 0.74755 0.29051 0.0
H2099 H 0.52687 0.7185 0.29895 0.0
C2100 C 0.52945 0.62562 0.28012 0.0
C2101 C 0.50786 0.61624 0.28137 0.0
C2102 C 0.54241 0.64541 0.28507 0.0
C2103 C 0.53409 0.65624 0.29146 0.0
C2104 C 0.51252 0.64726 0.2923 0.0
C2105 C 0.4995 0.62741 0.28731 0.0
C2106 C 0.54806 0.67668 0.29758 0.0
C2107 C 0.54646 0.69351 0.29346 0.0
C2108 C 0.56361 0.67973 0.30695 0.0
C2109 C 0.56517 0.6624 0.31242 0.0
C2110 C 0.54802 0.64601 0.31842 0.0
C2111 C 0.54952 0.62965 0.32346 0.0
C2112 C 0.56814 0.62958 0.32264 0.0
C2113 C 0.58532 0.64588 0.31681 0.0
C2114 C 0.5839 0.66227 0.31174 0.0
C2115 C 0.59851 0.76778 0.3252 0.0
C2116 C 0.6199 0.77581 0.3236 0.0
C2117 C 0.58431 0.74852 0.31992 0.0
C2118 C 0.59122 0.73695 0.31289 0.0
C2119 C 0.61254 0.74488 0.31132 0.0
C2120 C 0.62675 0.76417 0.31655 0.0
C2121 C 0.57625 0.71645 0.30731 0.0
C2122 C 0.57763 0.69958 0.31157 0.0
C2123 C 0.56045 0.7134 0.29815 0.0
C2124 C 0.55868 0.73074 0.29295 0.0
C2125 C 0.57554 0.74711 0.2867 0.0
C2126 C 0.57386 0.76355 0.28201 0.0
C2127 C 0.55535 0.76372 0.2834 0.0
C2128 C 0.53845 0.74741 0.28946 0.0
C2129 C 0.54006 0.73095 0.29419 0.0
H2130 H 0.55408 0.77647 0.27977 0.0
H2131 H 0.56927 0.6169 0.32654 0.0
H2132 H 0.3667 0.86194 0.29404 0.0
H2133 H 0.33416 0.85541 0.30422 0.0
H2134 H 0.33581 0.90437 0.28178 0.0
H2135 H 0.36813 0.91079 0.27148 0.0
H2136 H 0.32851 0.90549 0.30977 0.0
H2137 H 0.30339 0.85876 0.27206 0.0
H2138 H 0.30055 0.8306 0.25786 0.0
H2139 H 0.27764 0.7899 0.29081 0.0
H2140 H 0.28064 0.81792 0.30527 0.0
H2141 H 0.22934 0.89212 0.32037 0.0
H2142 H 0.2626 0.89757 0.31296 0.0
H2143 H 0.24541 0.83627 0.32444 0.0
H2144 H 0.21108 0.83011 0.33029 0.0
H2145 H 0.26192 0.84089 0.30307 0.0
H2146 H 0.28923 0.88629 0.34141 0.0
H2147 H 0.29385 0.914 0.35691 0.0
H2148 H 0.31375 0.95606 0.32467 0.0
H2149 H 0.30942 0.92864 0.30908 0.0
C2150 C 0.36005 0.87123 0.29125 0.0
C2151 C 0.3699 0.88681 0.28192 0.0
C2152 C 0.34146 0.86746 0.29704 0.0
C2153 C 0.33256 0.87939 0.29374 0.0
C2154 C 0.3424 0.89498 0.28446 0.0
C2155 C 0.36078 0.89854 0.27852 0.0
C2156 C 0.31318 0.87591 0.30011 0.0
C2157 C 0.31387 0.89143 0.30825 0.0
C2158 C 0.29428 0.85733 0.29847 0.0
C2159 C 0.29248 0.8405 0.28978 0.0
C2160 C 0.29795 0.84386 0.27631 0.0
C2161 C 0.29626 0.82791 0.26821 0.0
C2162 C 0.28898 0.80849 0.27344 0.0
C2163 C 0.28331 0.80497 0.28678 0.0
C2164 C 0.28499 0.82087 0.29493 0.0
C2165 C 0.23281 0.87992 0.32151 0.0
C2166 C 0.21777 0.86088 0.32631 0.0
C2167 C 0.25205 0.88313 0.31743 0.0
C2168 C 0.25711 0.8676 0.31844 0.0
C2169 C 0.24217 0.84866 0.32358 0.0
C2170 C 0.22258 0.8452 0.32718 0.0
C2171 C 0.27702 0.87047 0.31297 0.0
C2172 C 0.2765 0.85488 0.30486 0.0
C2173 C 0.29621 0.88888 0.31485 0.0
C2174 C 0.29869 0.90537 0.32412 0.0
C2175 C 0.29437 0.90141 0.33767 0.0
C2176 C 0.29703 0.91707 0.34645 0.0
C2177 C 0.30389 0.93672 0.34175 0.0
C2178 C 0.30835 0.94082 0.32829 0.0
C2179 C 0.30591 0.92525 0.3195 0.0
H2180 H 0.30589 0.94881 0.34855 0.0
H2181 H 0.28767 0.79617 0.26714 0.0
H2182 H 0.15309 0.4917 0.25111 0.0
H2183 H 0.15202 0.46361 0.26346 0.0
H2184 H 0.14518 0.48978 0.30012 0.0
H2185 H 0.14699 0.51837 0.28787 0.0
H2186 H 0.17328 0.47729 0.30277 0.0
H2187 H 0.10372 0.44838 0.28512 0.0
H2188 H 0.07731 0.43917 0.26746 0.0
H2189 H 0.09873 0.40274 0.24759 0.0
H2190 H 0.12543 0.41194 0.26505 0.0
H2191 H 0.14911 0.39127 0.34183 0.0
H2192 H 0.14651 0.41843 0.33064 0.0
H2193 H 0.14871 0.39263 0.29255 0.0
H2194 H 0.15084 0.36528 0.30374 0.0
H2195 H 0.12204 0.4051 0.29127 0.0
H2196 H 0.19189 0.43403 0.30733 0.0
H2197 H 0.21854 0.44185 0.3246 0.0
H2198 H 0.19836 0.4778 0.34636 0.0
H2199 H 0.1713 0.46986 0.32934 0.0
C2200 C 0.15152 0.49158 0.26181 0.0
C2201 C 0.15011 0.50729 0.2685 0.0
C2202 C 0.1507 0.4754 0.26885 0.0
C2203 C 0.14828 0.47446 0.2827 0.0
C2204 C 0.14698 0.49015 0.28942 0.0
C2205 C 0.14782 0.50638 0.28239 0.0
C2206 C 0.1473 0.4572 0.29016 0.0
C2207 C 0.16188 0.46151 0.30039 0.0
C2208 C 0.1328 0.4366 0.28682 0.0
C2209 C 0.11668 0.43099 0.27634 0.0
C2210 C 0.10288 0.43852 0.27694 0.0
C2211 C 0.08784 0.43328 0.26697 0.0
C2212 C 0.08636 0.42041 0.2564 0.0
C2213 C 0.09989 0.41272 0.25578 0.0
C2214 C 0.11496 0.41792 0.26572 0.0
C2215 C 0.14912 0.39148 0.3311 0.0
C2216 C 0.15046 0.37637 0.32367 0.0
C2217 C 0.14757 0.40695 0.3247 0.0
C2218 C 0.14783 0.40782 0.31074 0.0
C2219 C 0.1485 0.39232 0.30331 0.0
C2220 C 0.1497 0.37669 0.30972 0.0
C2221 C 0.14805 0.42515 0.30383 0.0
C2222 C 0.13338 0.42088 0.2937 0.0
C2223 C 0.16268 0.44576 0.30712 0.0
C2224 C 0.17946 0.45122 0.3171 0.0
C2225 C 0.19309 0.44356 0.31581 0.0
C2226 C 0.20826 0.44799 0.32556 0.0
C2227 C 0.21013 0.4603 0.33657 0.0
C2228 C 0.19688 0.46826 0.33782 0.0
C2229 C 0.18163 0.4638 0.32813 0.0
H2230 H 0.22186 0.4637 0.34411 0.0
H2231 H 0.07471 0.41637 0.24869 0.0
H2232 H 0.3603 0.50398 0.28742 0.0
H2233 H 0.32664 0.48136 0.29737 0.0
H2234 H 0.33184 0.42894 0.28595 0.0
H2235 H 0.36531 0.45132 0.27606 0.0
H2236 H 0.29409 0.42196 0.28059 0.0
H2237 H 0.34172 0.44891 0.318 0.0
H2238 H 0.36782 0.47601 0.33275 0.0
H2239 H 0.32518 0.49675 0.34182 0.0
H2240 H 0.29891 0.46994 0.32697 0.0
H2241 H 0.22816 0.34321 0.32209 0.0
H2242 H 0.26039 0.37201 0.31414 0.0
H2243 H 0.23575 0.41223 0.32034 0.0
H2244 H 0.20318 0.38327 0.32796 0.0
H2245 H 0.28083 0.42818 0.32827 0.0
H2246 H 0.23229 0.39916 0.29182 0.0
H2247 H 0.20601 0.37048 0.27811 0.0
H2248 H 0.25067 0.35289 0.26774 0.0
H2249 H 0.27712 0.38123 0.28161 0.0
C2250 C 0.35427 0.48763 0.28706 0.0
C2251 C 0.36548 0.47946 0.28089 0.0
C2252 C 0.33503 0.47473 0.29275 0.0
C2253 C 0.32675 0.45344 0.2925 0.0
C2254 C 0.33783 0.44529 0.28622 0.0
C2255 C 0.35696 0.45813 0.2805 0.0
C2256 C 0.30663 0.43946 0.29878 0.0
C2257 C 0.29128 0.42333 0.29102 0.0
C2258 C 0.30267 0.44148 0.31233 0.0
C2259 C 0.31846 0.45761 0.32123 0.0
C2260 C 0.33798 0.45938 0.32304 0.0
C2261 C 0.35279 0.47466 0.33144 0.0
C2262 C 0.34819 0.48814 0.33818 0.0
C2263 C 0.32874 0.48633 0.33656 0.0
C2264 C 0.31389 0.4711 0.32816 0.0
C2265 C 0.22977 0.35827 0.32197 0.0
C2266 C 0.21336 0.36111 0.32584 0.0
C2267 C 0.24814 0.37467 0.31746 0.0
C2268 C 0.25037 0.39417 0.31665 0.0
C2269 C 0.23433 0.39729 0.32098 0.0
C2270 C 0.21579 0.38077 0.32537 0.0
C2271 C 0.26874 0.41065 0.31011 0.0
C2272 C 0.28364 0.42713 0.31779 0.0
C2273 C 0.27236 0.40898 0.29649 0.0
C2274 C 0.25665 0.39223 0.28785 0.0
C2275 C 0.23647 0.38909 0.28669 0.0
C2276 C 0.22155 0.3729 0.27889 0.0
C2277 C 0.22666 0.35985 0.27208 0.0
C2278 C 0.24673 0.36301 0.27303 0.0
C2279 C 0.2617 0.37914 0.28086 0.0
H2280 H 0.21508 0.34729 0.26606 0.0
H2281 H 0.35967 0.49996 0.34468 0.0
H2282 H 0.52447 0.88164 0.26024 0.0
H2283 H 0.54911 0.87354 0.27078 0.0
H2284 H 0.51968 0.86757 0.30853 0.0
H2285 H 0.49513 0.87578 0.29809 0.0
H2286 H 0.56159 0.89266 0.31022 0.0
H2287 H 0.51367 0.82603 0.29252 0.0
H2288 H 0.49266 0.8004 0.27522 0.0
H2289 H 0.54771 0.81403 0.25399 0.0
H2290 H 0.56904 0.83999 0.27106 0.0
H2291 H 0.61088 0.82381 0.32701 0.0
H2292 H 0.58208 0.82835 0.31991 0.0
H2293 H 0.625 0.89193 0.31251 0.0
H2294 H 0.65347 0.8877 0.32056 0.0
H2295 H 0.57446 0.83672 0.29674 0.0
H2296 H 0.61038 0.91847 0.31194 0.0
H2297 H 0.62829 0.94289 0.33056 0.0
H2298 H 0.59207 0.89628 0.35853 0.0
H2299 H 0.57415 0.87163 0.33997 0.0
C2300 C 0.52316 0.87843 0.27077 0.0
C2301 C 0.50783 0.87936 0.27833 0.0
C2302 C 0.53717 0.8737 0.27676 0.0
C2303 C 0.53622 0.8699 0.29045 0.0
C2304 C 0.52069 0.87042 0.29795 0.0
C2305 C 0.50656 0.87496 0.29195 0.0
C2306 C 0.55213 0.86663 0.29711 0.0
C2307 C 0.56435 0.88038 0.30726 0.0
C2308 C 0.55575 0.85059 0.29335 0.0
C2309 C 0.54293 0.83513 0.283 0.0
C2310 C 0.52128 0.82372 0.28409 0.0
C2311 C 0.50932 0.8091 0.27434 0.0
C2312 C 0.51884 0.80563 0.26349 0.0
C2313 C 0.54035 0.81676 0.26238 0.0
C2314 C 0.55238 0.83143 0.2721 0.0
C2315 C 0.61403 0.83892 0.3244 0.0
C2316 C 0.63437 0.85556 0.32476 0.0
C2317 C 0.59757 0.84148 0.32017 0.0
C2318 C 0.60114 0.86063 0.3159 0.0
C2319 C 0.62152 0.87721 0.31625 0.0
C2320 C 0.63789 0.87473 0.32071 0.0
C2321 C 0.58399 0.86278 0.30989 0.0
C2322 C 0.57165 0.84894 0.29974 0.0
C2323 C 0.58012 0.87866 0.31366 0.0
C2324 C 0.59145 0.89314 0.3247 0.0
C2325 C 0.60646 0.91344 0.32208 0.0
C2326 C 0.61658 0.9273 0.3326 0.0
C2327 C 0.61147 0.92108 0.34573 0.0
C2328 C 0.59618 0.90102 0.34836 0.0
C2329 C 0.58621 0.88706 0.33787 0.0
H2330 H 0.61924 0.93184 0.35386 0.0
H2331 H 0.50954 0.79429 0.25596 0.0
H2332 H 0.17967 0.65674 0.27892 0.0
H2333 H 0.17867 0.68418 0.29132 0.0
H2334 H 0.11415 0.65834 0.28092 0.0
H2335 H 0.11484 0.63047 0.26872 0.0
H2336 H 0.13738 0.7001 0.27655 0.0
H2337 H 0.12695 0.65369 0.31178 0.0
H2338 H 0.13503 0.63147 0.32522 0.0
H2339 H 0.19407 0.68296 0.33613 0.0
H2340 H 0.18647 0.70545 0.3226 0.0
H2341 H 0.12446 0.76978 0.31732 0.0
H2342 H 0.11987 0.73788 0.30769 0.0
H2343 H 0.18129 0.75406 0.32114 0.0
H2344 H 0.18562 0.7855 0.33124 0.0
H2345 H 0.15696 0.71534 0.32431 0.0
H2346 H 0.16928 0.76153 0.28871 0.0
H2347 H 0.16256 0.78475 0.27543 0.0
H2348 H 0.10248 0.73499 0.26436 0.0
H2349 H 0.10861 0.71156 0.27796 0.0
C2350 C 0.16514 0.65662 0.27946 0.0
C2351 C 0.14731 0.64131 0.27284 0.0
C2352 C 0.16463 0.67239 0.28651 0.0
C2353 C 0.1463 0.67321 0.2871 0.0
C2354 C 0.12846 0.65799 0.28055 0.0
C2355 C 0.12892 0.64212 0.27355 0.0
C2356 C 0.14599 0.69031 0.29427 0.0
C2357 C 0.14131 0.70326 0.28705 0.0
C2358 C 0.15166 0.69469 0.30787 0.0
C2359 C 0.1562 0.68122 0.31609 0.0
C2360 C 0.14172 0.66025 0.31697 0.0
C2361 C 0.14621 0.64761 0.32461 0.0
C2362 C 0.16507 0.65579 0.3315 0.0
C2363 C 0.17947 0.67664 0.33078 0.0
C2364 C 0.17507 0.68934 0.32314 0.0
C2365 C 0.13693 0.76647 0.31828 0.0
C2366 C 0.15545 0.7802 0.32495 0.0
C2367 C 0.13432 0.74826 0.31274 0.0
C2368 C 0.15039 0.74372 0.31345 0.0
C2369 C 0.16867 0.7572 0.32043 0.0
C2370 C 0.17115 0.77521 0.32617 0.0
C2371 C 0.14853 0.72533 0.30659 0.0
C2372 C 0.15285 0.71214 0.31384 0.0
C2373 C 0.14282 0.72089 0.29296 0.0
C2374 C 0.13931 0.73484 0.28449 0.0
C2375 C 0.15458 0.75556 0.28352 0.0
C2376 C 0.15086 0.76877 0.27593 0.0
C2377 C 0.13208 0.76136 0.26905 0.0
C2378 C 0.117 0.74071 0.26972 0.0
C2379 C 0.12057 0.72747 0.27739 0.0
H2380 H 0.12918 0.7716 0.26319 0.0
H2381 H 0.16852 0.64598 0.33741 0.0
H2382 H 0.81355 0.03988 0.41362 0.0
H2383 H 0.78472 0.01034 0.40236 0.0
H2384 H 0.82742 0.99413 0.38511 0.0
H2385 H 0.85624 0.02351 0.39634 0.0
H2386 H 0.79944 0.99055 0.36705 0.0
H2387 H 0.79828 0.96941 0.41212 0.0
H2388 H 0.79658 0.97144 0.43653 0.0
H2389 H 0.73732 0.9674 0.43309 0.0
H2390 H 0.73882 0.96568 0.40863 0.0
H2391 H 0.73416 0.88777 0.348 0.0
H2392 H 0.76019 0.91957 0.35856 0.0
H2393 H 0.71221 0.92943 0.3743 0.0
H2394 H 0.68585 0.89719 0.36391 0.0
H2395 H 0.74115 0.93761 0.39278 0.0
H2396 H 0.74173 0.95697 0.3475 0.0
H2397 H 0.74345 0.954 0.32315 0.0
H2398 H 0.80374 0.96052 0.32705 0.0
H2399 H 0.80231 0.96334 0.35145 0.0
C2400 C 0.81679 0.02999 0.40745 0.0
C2401 C 0.83722 0.03406 0.4059 0.0
C2402 C 0.80029 0.01311 0.40103 0.0
C2403 C 0.80388 0.99988 0.393 0.0
C2404 C 0.82428 0.00415 0.39122 0.0
C2405 C 0.84076 0.02102 0.39761 0.0
C2406 C 0.78644 0.98147 0.38652 0.0
C2407 C 0.78678 0.9789 0.37269 0.0
C2408 C 0.76963 0.96649 0.39383 0.0
C2409 C 0.76879 0.96768 0.40853 0.0
C2410 C 0.78499 0.96917 0.41656 0.0
C2411 C 0.78404 0.97022 0.43041 0.0
C2412 C 0.76689 0.96962 0.43636 0.0
C2413 C 0.75062 0.96792 0.42847 0.0
C2414 C 0.75151 0.96691 0.41461 0.0
C2415 C 0.72906 0.89675 0.35359 0.0
C2416 C 0.70789 0.89005 0.35496 0.0
C2417 C 0.74402 0.91499 0.35962 0.0
C2418 C 0.7382 0.92713 0.36701 0.0
C2419 C 0.71706 0.92037 0.36857 0.0
C2420 C 0.70202 0.90198 0.3626 0.0
C2421 C 0.75426 0.94661 0.37333 0.0
C2422 C 0.75368 0.94938 0.38711 0.0
C2423 C 0.77088 0.96177 0.36599 0.0
C2424 C 0.77187 0.96027 0.35131 0.0
C2425 C 0.75532 0.95769 0.34317 0.0
C2426 C 0.75626 0.95607 0.32936 0.0
C2427 C 0.77371 0.95712 0.32356 0.0
C2428 C 0.79026 0.95977 0.33156 0.0
C2429 C 0.78941 0.96142 0.34538 0.0
H2430 H 0.77439 0.95582 0.31287 0.0
H2431 H 0.76617 0.9704 0.44708 0.0
H2432 H 0.97162 0.7727 0.41318 0.0
H2433 H 0.00413 0.781 0.40253 0.0
H2434 H 0.99255 0.81429 0.37244 0.0
H2435 H 0.95957 0.80541 0.3828 0.0
H2436 H 0.0037 0.78914 0.3614 0.0
H2437 H 0.0319 0.8403 0.39651 0.0
H2438 H 0.03586 0.85233 0.41985 0.0
H2439 H 0.05721 0.81132 0.43091 0.0
H2440 H 0.05364 0.79924 0.4076 0.0
H2441 H 0.11995 0.84461 0.34759 0.0
H2442 H 0.08624 0.83959 0.35457 0.0
H2443 H 0.06719 0.77765 0.36512 0.0
H2444 H 0.10018 0.78214 0.35739 0.0
H2445 H 0.07166 0.81944 0.38472 0.0
H2446 H 0.03872 0.76522 0.34995 0.0
H2447 H 0.02963 0.75009 0.32738 0.0
H2448 H 0.01317 0.79472 0.31614 0.0
H2449 H 0.02305 0.81068 0.33853 0.0
C2450 C 0.97598 0.78182 0.40431 0.0
C2451 C 0.96288 0.7883 0.39883 0.0
C2452 C 0.99473 0.78676 0.3983 0.0
C2453 C 0.00096 0.79846 0.38673 0.0
C2454 C 0.98814 0.80531 0.38139 0.0
C2455 C 0.96935 0.80036 0.38739 0.0
C2456 C 0.02018 0.80243 0.37979 0.0
C2457 C 0.01864 0.79609 0.36645 0.0
C2458 C 0.03961 0.81112 0.38641 0.0
C2459 C 0.04243 0.81882 0.40034 0.0
C2460 C 0.03747 0.83388 0.40393 0.0
C2461 C 0.03971 0.84075 0.41714 0.0
C2462 C 0.04683 0.83263 0.42685 0.0
C2463 C 0.05183 0.81769 0.42336 0.0
C2464 C 0.04981 0.81091 0.41014 0.0
C2465 C 0.10824 0.82969 0.35088 0.0
C2466 C 0.1125 0.81359 0.3516 0.0
C2467 C 0.08902 0.82685 0.35491 0.0
C2468 C 0.07392 0.80803 0.35998 0.0
C2469 C 0.07823 0.79202 0.36075 0.0
C2470 C 0.09719 0.79469 0.35646 0.0
C2471 C 0.05511 0.80601 0.36635 0.0
C2472 C 0.05678 0.81277 0.37962 0.0
C2473 C 0.03575 0.79758 0.35967 0.0
C2474 C 0.03236 0.7896 0.3458 0.0
C2475 C 0.03396 0.77232 0.34255 0.0
C2476 C 0.0284 0.76342 0.32982 0.0
C2477 C 0.02089 0.77147 0.32031 0.0
C2478 C 0.01904 0.78852 0.32349 0.0
C2479 C 0.02481 0.79761 0.33616 0.0
H2480 H 0.01648 0.76449 0.31048 0.0
H2481 H 0.04849 0.83791 0.43708 0.0
H2482 H 0.24207 0.18308 0.37191 0.0
H2483 H 0.2265 0.20268 0.36377 0.0
H2484 H 0.21852 0.21714 0.40416 0.0
H2485 H 0.23404 0.19743 0.41239 0.0
H2486 H 0.18513 0.20855 0.38876 0.0
H2487 H 0.25862 0.25168 0.38615 0.0
H2488 H 0.29406 0.26082 0.37988 0.0
H2489 H 0.27651 0.25336 0.33856 0.0
H2490 H 0.24087 0.24388 0.3446 0.0
H2491 H 0.17622 0.29634 0.37323 0.0
H2492 H 0.18704 0.27306 0.38211 0.0
H2493 H 0.19101 0.25385 0.34218 0.0
H2494 H 0.18041 0.2772 0.33332 0.0
H2495 H 0.22606 0.26486 0.35774 0.0
H2496 H 0.15252 0.22244 0.36054 0.0
H2497 H 0.11705 0.21281 0.36703 0.0
H2498 H 0.13485 0.21946 0.40827 0.0
H2499 H 0.17057 0.22949 0.40203 0.0
C2500 C 0.23701 0.19044 0.37906 0.0
C2501 C 0.23949 0.18892 0.39279 0.0
C2502 C 0.22809 0.20161 0.3744 0.0
C2503 C 0.22168 0.21167 0.38335 0.0
C2504 C 0.2234 0.20954 0.39707 0.0
C2505 C 0.23224 0.19826 0.40176 0.0
C2506 C 0.21389 0.22498 0.37835 0.0
C2507 C 0.19418 0.22105 0.38213 0.0
C2508 C 0.22557 0.24106 0.36951 0.0
C2509 C 0.24703 0.24688 0.36584 0.0
C2510 C 0.26228 0.25184 0.37573 0.0
C2511 C 0.28241 0.2571 0.37222 0.0
C2512 C 0.28752 0.25762 0.35883 0.0
C2513 C 0.27252 0.25293 0.34893 0.0
C2514 C 0.25236 0.24762 0.35239 0.0
C2515 C 0.17933 0.28708 0.36637 0.0
C2516 C 0.17727 0.28839 0.35257 0.0
C2517 C 0.18536 0.27371 0.37144 0.0
C2518 C 0.18966 0.26163 0.36279 0.0
C2519 C 0.18762 0.26294 0.34902 0.0
C2520 C 0.18135 0.27612 0.34396 0.0
C2521 C 0.19725 0.24835 0.36806 0.0
C2522 C 0.217 0.25236 0.36437 0.0
C2523 C 0.18563 0.23246 0.37703 0.0
C2524 C 0.16429 0.22691 0.38081 0.0
C2525 C 0.14896 0.22209 0.371 0.0
C2526 C 0.12878 0.2165 0.37463 0.0
C2527 C 0.1237 0.21547 0.38805 0.0
C2528 C 0.13881 0.2202 0.39787 0.0
C2529 C 0.15902 0.22586 0.39429 0.0
H2530 H 0.10804 0.21098 0.39084 0.0
H2531 H 0.30311 0.2617 0.35613 0.0
H2532 H 0.64942 0.4815 0.72821 0.0
H2533 H 0.67645 0.50876 0.71522 0.0
H2534 H 0.66037 0.55175 0.73184 0.0
H2535 H 0.63338 0.52455 0.74503 0.0
H2536 H 0.66781 0.55716 0.70511 0.0
H2537 H 0.70161 0.55031 0.7438 0.0
H2538 H 0.71111 0.53199 0.7599 0.0
H2539 H 0.73874 0.51476 0.72874 0.0
H2540 H 0.72912 0.53274 0.7124 0.0
H2541 H 0.75988 0.64968 0.6909 0.0
H2542 H 0.72881 0.62035 0.69935 0.0
H2543 H 0.75245 0.58081 0.68772 0.0
H2544 H 0.7843 0.6105 0.68026 0.0
H2545 H 0.74021 0.57264 0.7112 0.0
H2546 H 0.70554 0.57865 0.67229 0.0
H2547 H 0.69533 0.59645 0.65609 0.0
H2548 H 0.66956 0.61525 0.68754 0.0
H2549 H 0.67954 0.59752 0.70386 0.0
C2550 C 0.65167 0.49677 0.72917 0.0
C2551 C 0.63935 0.50086 0.7378 0.0
C2552 C 0.6671 0.51233 0.7217 0.0
C2553 C 0.67064 0.53237 0.72269 0.0
C2554 C 0.65792 0.5364 0.73092 0.0
C2555 C 0.64246 0.52082 0.73843 0.0
C2556 C 0.68799 0.54917 0.71544 0.0
C2557 C 0.68368 0.56069 0.7065 0.0
C2558 C 0.70864 0.5535 0.71705 0.0
C2559 C 0.71444 0.54268 0.72685 0.0
C2560 C 0.70955 0.54246 0.74036 0.0
C2561 C 0.71498 0.53217 0.74953 0.0
C2562 C 0.72546 0.52216 0.74534 0.0
C2563 C 0.73058 0.52248 0.73197 0.0
C2564 C 0.72515 0.53273 0.72275 0.0
C2565 C 0.75825 0.63465 0.68993 0.0
C2566 C 0.77438 0.63235 0.68471 0.0
C2567 C 0.74033 0.6178 0.69464 0.0
C2568 C 0.73794 0.59814 0.69402 0.0
C2569 C 0.75378 0.59574 0.68831 0.0
C2570 C 0.77193 0.6127 0.68389 0.0
C2571 C 0.72013 0.58062 0.70062 0.0
C2572 C 0.72435 0.56902 0.70958 0.0
C2573 C 0.69941 0.57621 0.69901 0.0
C2574 C 0.69351 0.58699 0.68926 0.0
C2575 C 0.69787 0.58675 0.67572 0.0
C2576 C 0.69206 0.59675 0.66654 0.0
C2577 C 0.68195 0.60708 0.6708 0.0
C2578 C 0.67745 0.60729 0.68425 0.0
C2579 C 0.6831 0.5972 0.69346 0.0
H2580 H 0.67752 0.61485 0.66368 0.0
H2581 H 0.72967 0.51421 0.75246 0.0
H2582 H 0.46307 0.08674 0.72129 0.0
H2583 H 0.43805 0.09523 0.71222 0.0
H2584 H 0.47924 0.15889 0.72203 0.0
H2585 H 0.50448 0.15042 0.73123 0.0
H2586 H 0.44047 0.1482 0.72827 0.0
H2587 H 0.47316 0.14099 0.68975 0.0
H2588 H 0.48652 0.12465 0.6745 0.0
H2589 H 0.42512 0.07367 0.6686 0.0
H2590 H 0.41142 0.08957 0.68398 0.0
H2591 H 0.38142 0.1786 0.68735 0.0
H2592 H 0.41022 0.17444 0.69513 0.0
H2593 H 0.36986 0.10906 0.69533 0.0
H2594 H 0.34089 0.11321 0.68772 0.0
H2595 H 0.41044 0.12373 0.68306 0.0
H2596 H 0.37876 0.13048 0.72307 0.0
H2597 H 0.3657 0.14738 0.73809 0.0
H2598 H 0.42618 0.20072 0.74039 0.0
H2599 H 0.43955 0.18421 0.72521 0.0
C2600 C 0.46697 0.1026 0.72139 0.0
C2601 C 0.48594 0.11793 0.72685 0.0
C2602 C 0.4526 0.10744 0.71621 0.0
C2603 C 0.45687 0.12776 0.7162 0.0
C2604 C 0.47561 0.1431 0.72186 0.0
C2605 C 0.49002 0.13824 0.72714 0.0
C2606 C 0.44157 0.13277 0.71038 0.0
C2607 C 0.43422 0.14318 0.71829 0.0
C2608 C 0.43313 0.12602 0.6974 0.0
C2609 C 0.44129 0.1164 0.68812 0.0
C2610 C 0.46253 0.12622 0.68529 0.0
C2611 C 0.47016 0.11705 0.6766 0.0
C2612 C 0.45669 0.09811 0.67061 0.0
C2613 C 0.43554 0.08833 0.67326 0.0
C2614 C 0.42783 0.09743 0.68195 0.0
C2615 C 0.37878 0.16334 0.68883 0.0
C2616 C 0.35909 0.14616 0.6866 0.0
C2617 C 0.39519 0.161 0.69338 0.0
C2618 C 0.39215 0.14144 0.69578 0.0
C2619 C 0.37252 0.12427 0.69347 0.0
C2620 C 0.35603 0.12664 0.68914 0.0
C2621 C 0.40928 0.13885 0.70101 0.0
C2622 C 0.41694 0.12893 0.69297 0.0
C2623 C 0.4181 0.1462 0.7138 0.0
C2624 C 0.41011 0.15619 0.72289 0.0
C2625 C 0.38923 0.14589 0.72667 0.0
C2626 C 0.38179 0.15537 0.73524 0.0
C2627 C 0.3951 0.1751 0.74019 0.0
C2628 C 0.41589 0.18542 0.73655 0.0
C2629 C 0.42341 0.17601 0.72797 0.0
H2630 H 0.38931 0.18237 0.74687 0.0
H2631 H 0.46263 0.09104 0.66389 0.0
H2632 H 0.89577 0.39456 0.70817 0.0
H2633 H 0.88135 0.35906 0.70021 0.0
H2634 H 0.90038 0.34407 0.7369 0.0
H2635 H 0.91439 0.3794 0.74502 0.0
H2636 H 0.91241 0.33228 0.71103 0.0
H2637 H 0.85393 0.32751 0.735 0.0
H2638 H 0.82815 0.33784 0.74004 0.0
H2639 H 0.80564 0.32423 0.69968 0.0
H2640 H 0.83151 0.31411 0.69435 0.0
H2641 H 0.86704 0.2263 0.70296 0.0
H2642 H 0.87782 0.2602 0.71202 0.0
H2643 H 0.83891 0.26727 0.68322 0.0
H2644 H 0.82666 0.23262 0.67489 0.0
H2645 H 0.83722 0.28394 0.70476 0.0
H2646 H 0.89361 0.28889 0.67978 0.0
H2647 H 0.91939 0.27941 0.67296 0.0
H2648 H 0.94671 0.2945 0.71212 0.0
H2649 H 0.92088 0.30377 0.71925 0.0
C2650 C 0.89673 0.38361 0.71454 0.0
C2651 C 0.90609 0.3896 0.7272 0.0
C2652 C 0.8885 0.36342 0.71001 0.0
C2653 C 0.88984 0.34905 0.718 0.0
C2654 C 0.89922 0.355 0.73063 0.0
C2655 C 0.90709 0.37508 0.73527 0.0
C2656 C 0.8818 0.32787 0.71306 0.0
C2657 C 0.89598 0.32157 0.7098 0.0
C2658 C 0.86041 0.3143 0.71102 0.0
C2659 C 0.8448 0.32028 0.71424 0.0
C2660 C 0.84362 0.32692 0.72717 0.0
C2661 C 0.82896 0.33269 0.73008 0.0
C2662 C 0.81531 0.33175 0.72018 0.0
C2663 C 0.81624 0.32498 0.70734 0.0
C2664 C 0.83089 0.31921 0.70437 0.0
C2665 C 0.86065 0.23497 0.69856 0.0
C2666 C 0.84644 0.2269 0.68786 0.0
C2667 C 0.86699 0.25449 0.70371 0.0
C2668 C 0.85978 0.26666 0.69801 0.0
C2669 C 0.84497 0.25835 0.68767 0.0
C2670 C 0.83819 0.23858 0.68276 0.0
C2671 C 0.86783 0.28808 0.70276 0.0
C2672 C 0.85368 0.29454 0.70595 0.0
C2673 C 0.88933 0.302 0.70441 0.0
C2674 C 0.90519 0.29687 0.70008 0.0
C2675 C 0.90506 0.2901 0.68696 0.0
C2676 C 0.91968 0.28475 0.68303 0.0
C2677 C 0.93465 0.2863 0.69211 0.0
C2678 C 0.93509 0.29328 0.70511 0.0
C2679 C 0.92047 0.2986 0.70909 0.0
H2680 H 0.94594 0.28213 0.68905 0.0
H2681 H 0.80396 0.33622 0.72246 0.0
H2682 H 0.17563 0.96535 0.59554 0.0
H2683 H 0.20018 -1e-05 0.6035 0.0
H2684 H 0.18292 0.98132 0.64396 0.0
H2685 H 0.15793 0.94674 0.63605 0.0
H2686 H 0.18841 0.01952 0.63963 0.0
H2687 H 0.22543 0.98343 0.63133 0.0
H2688 H 0.23672 0.96348 0.61776 0.0
H2689 H 0.26416 0.01211 0.58977 0.0
H2690 H 0.25276 0.03224 0.60308 0.0
H2691 H 0.27442 0.09616 0.67504 0.0
H2692 H 0.24808 0.06347 0.66548 0.0
H2693 H 0.27136 0.08471 0.62624 0.0
H2694 H 0.29795 0.11751 0.6359 0.0
H2695 H 0.26227 0.04628 0.62885 0.0
H2696 H 0.2273 0.08349 0.63766 0.0
H2697 H 0.2174 0.10417 0.65164 0.0
H2698 H 0.18657 0.05434 0.67848 0.0
H2699 H 0.1966 0.03346 0.66479 0.0
C2700 C 0.17674 0.9687 0.60611 0.0
C2701 C 0.16491 0.95324 0.61517 0.0
C2702 C 0.19092 0.98847 0.61066 0.0
C2703 C 0.19359 0.99316 0.62434 0.0
C2704 C 0.18117 0.97801 0.63337 0.0
C2705 C 0.16702 0.95823 0.62883 0.0
C2706 C 0.21006 0.01352 0.6293 0.0
C2707 C 0.20457 0.02532 0.63736 0.0
C2708 C 0.23111 0.02129 0.6261 0.0
C2709 C 0.23804 0.00924 0.61812 0.0
C2710 C 0.23372 0.9898 0.62222 0.0
C2711 C 0.24017 0.97847 0.61459 0.0
C2712 C 0.2511 0.9865 0.60289 0.0
C2713 C 0.25566 0.0059 0.59882 0.0
C2714 C 0.24922 0.01728 0.60641 0.0
C2715 C 0.27373 0.09398 0.66439 0.0
C2716 C 0.28786 0.10952 0.6562 0.0
C2717 C 0.25874 0.07524 0.65892 0.0
C2718 C 0.25739 0.07179 0.6451 0.0
C2719 C 0.272 0.08707 0.63692 0.0
C2720 C 0.28717 0.10577 0.64244 0.0
C2721 C 0.24067 0.05228 0.63924 0.0
C2722 C 0.24609 0.04061 0.63102 0.0
C2723 C 0.21957 0.04471 0.64224 0.0
C2724 C 0.21281 0.05693 0.65023 0.0
C2725 C 0.21845 0.07695 0.64657 0.0
C2726 C 0.21284 0.08872 0.65444 0.0
C2727 C 0.20136 0.08057 0.66594 0.0
C2728 C 0.19544 0.06062 0.66956 0.0
C2729 C 0.20107 0.04879 0.66174 0.0
H2730 H 0.19706 0.08972 0.67203 0.0
H2731 H 0.25608 0.97771 0.59699 0.0
H2732 H 0.02245 0.19105 0.61212 0.0
H2733 H 0.98966 0.18397 0.62209 0.0
H2734 H 0.01703 0.2475 0.63379 0.0
H2735 H 0.04975 0.25451 0.62409 0.0
H2736 H 0.99605 0.22542 0.65341 0.0
H2737 H 0.98223 0.22528 0.60675 0.0
H2738 H 0.97948 0.21457 0.58321 0.0
H2739 H 0.93464 0.15301 0.59322 0.0
H2740 H 0.93735 0.1633 0.61687 0.0
H2741 H 0.89751 0.2264 0.65711 0.0
H2742 H 0.93141 0.23255 0.65016 0.0
H2743 H 0.91196 0.16915 0.65605 0.0
H2744 H 0.87733 0.16255 0.66194 0.0
H2745 H 0.92904 0.19046 0.62885 0.0
H2746 H 0.97386 0.20098 0.67598 0.0
H2747 H 0.98066 0.21548 0.69882 0.0
H2748 H 0.96585 0.26089 0.68661 0.0
H2749 H 0.96018 0.2474 0.66362 0.0
C2750 C 0.0214 0.2035 0.61677 0.0
C2751 C 0.03875 0.22332 0.61738 0.0
C2752 C 0.00264 0.19946 0.62244 0.0
C2753 C 1.00074 0.21523 0.62864 0.0
C2754 C 0.01806 0.23502 0.62917 0.0
C2755 C 0.03681 0.23901 0.62363 0.0
C2756 C 0.98095 0.21126 0.63478 0.0
C2757 C 0.98144 0.21786 0.64797 0.0
C2758 C 0.96176 0.20127 0.6278 0.0
C2759 C 0.96018 0.19502 0.6136 0.0
C2760 C 0.97192 0.20942 0.60395 0.0
C2761 C 0.97034 0.20343 0.59058 0.0
C2762 C 0.95694 0.18311 0.58673 0.0
C2763 C 0.94505 0.16874 0.59623 0.0
C2764 C 0.94659 0.17464 0.60961 0.0
C2765 C 0.90063 0.21387 0.65726 0.0
C2766 C 0.88494 0.19412 0.6605 0.0
C2767 C 0.92015 0.21748 0.65349 0.0
C2768 C 0.92464 0.20155 0.65321 0.0
C2769 C 0.90907 0.18181 0.6566 0.0
C2770 C 0.88931 0.17807 0.66007 0.0
C2771 C 0.94429 0.20487 0.64736 0.0
C2772 C 0.94369 0.19794 0.63425 0.0
C2773 C 0.96348 0.21502 0.6543 0.0
C2774 C 0.96555 0.22252 0.66821 0.0
C2775 C 0.97185 0.21393 0.67822 0.0
C2776 C 0.97584 0.22217 0.69115 0.0
C2777 C 0.97339 0.23891 0.69421 0.0
C2778 C 0.96737 0.24769 0.68428 0.0
C2779 C 0.96373 0.23972 0.67129 0.0
H2780 H 0.97633 0.24518 0.70424 0.0
H2781 H 0.95573 0.17851 0.57637 0.0
H2782 H 0.81484 0.85085 0.62153 0.0
H2783 H 0.81628 0.824 0.63408 0.0
H2784 H 0.78125 0.78008 0.60296 0.0
H2785 H 0.78002 0.80698 0.59025 0.0
H2786 H 0.76926 0.76653 0.6308 0.0
H2787 H 0.82838 0.79725 0.60173 0.0
H2788 H 0.85953 0.82626 0.59235 0.0
H2789 H 0.88784 0.84274 0.63122 0.0
H2790 H 0.85668 0.814 0.64086 0.0
H2791 H 0.79032 0.68722 0.64474 0.0
H2792 H 0.7852 0.71345 0.63455 0.0
H2793 H 0.83384 0.7596 0.65949 0.0
H2794 H 0.83982 0.73362 0.66921 0.0
H2795 H 0.83835 0.77269 0.63552 0.0
H2796 H 0.78127 0.74211 0.66495 0.0
H2797 H 0.75041 0.71401 0.67525 0.0
H2798 H 0.7184 0.6984 0.63755 0.0
H2799 H 0.74919 0.72624 0.62697 0.0
C2800 C 0.80717 0.8354 0.61748 0.0
C2801 C 0.79736 0.83094 0.60493 0.0
C2802 C 0.80805 0.82013 0.62462 0.0
C2803 C 0.79893 0.80014 0.61939 0.0
C2804 C 0.78834 0.79544 0.60714 0.0
C2805 C 0.78774 0.81079 0.59988 0.0
C2806 C 0.80161 0.78448 0.62631 0.0
C2807 C 0.78429 0.76769 0.63175 0.0
C2808 C 0.82134 0.78641 0.62783 0.0
C2809 C 0.84011 0.80363 0.62203 0.0
C2810 C 0.84116 0.80718 0.60829 0.0
C2811 C 0.85884 0.82355 0.60293 0.0
C2812 C 0.87563 0.83638 0.61119 0.0
C2813 C 0.8748 0.83282 0.62484 0.0
C2814 C 0.85714 0.81649 0.63025 0.0
C2815 C 0.79989 0.70293 0.64812 0.0
C2816 C 0.81528 0.70824 0.65797 0.0
C2817 C 0.79683 0.71792 0.64234 0.0
C2818 C 0.80886 0.73848 0.64642 0.0
C2819 C 0.82426 0.74382 0.65623 0.0
C2820 C 0.82751 0.72888 0.6619 0.0
C2821 C 0.80595 0.75452 0.64009 0.0
C2822 C 0.82327 0.77145 0.63471 0.0
C2823 C 0.78623 0.75282 0.6388 0.0
C2824 C 0.76761 0.73616 0.64514 0.0
C2825 C 0.7677 0.7326 0.65883 0.0
C2826 C 0.75022 0.71673 0.66473 0.0
C2827 C 0.73248 0.7044 0.65705 0.0
C2828 C 0.73217 0.70795 0.64348 0.0
C2829 C 0.74962 0.72379 0.63753 0.0
H2830 H 0.71895 0.69211 0.66163 0.0
H2831 H 0.8893 0.84904 0.60702 0.0
H2832 H 0.03551 0.8328 0.63325 0.0
H2833 H 0.00242 0.80984 0.64374 0.0
H2834 H 0.98631 0.76682 0.61103 0.0
H2835 H 0.01915 0.78978 0.60042 0.0
H2836 H 0.95322 0.77027 0.61876 0.0
H2837 H 0.006 0.76017 0.63918 0.0
H2838 H 0.03888 0.77099 0.65117 0.0
H2839 H 0.01776 0.79166 0.68433 0.0
H2840 H 0.98485 0.78121 0.67245 0.0
H2841 H 0.89427 0.67474 0.65929 0.0
H2842 H 0.92746 0.70366 0.65256 0.0
H2843 H 0.90134 0.74318 0.65444 0.0
H2844 H 0.86817 0.71431 0.66114 0.0
H2845 H 0.95522 0.74316 0.6631 0.0
H2846 H 0.91737 0.77122 0.62548 0.0
H2847 H 0.88435 0.75802 0.61311 0.0
H2848 H 0.87588 0.69751 0.61324 0.0
H2849 H 0.909 0.71042 0.62542 0.0
C2850 C 0.02476 0.8186 0.6282 0.0
C2851 C 0.02999 0.81303 0.61605 0.0
C2852 C 0.00593 0.80545 0.63424 0.0
C2853 C 0.99199 0.78653 0.62823 0.0
C2854 C 0.99684 0.78132 0.61586 0.0
C2855 C 0.01568 0.79438 0.60986 0.0
C2856 C 0.97279 0.77165 0.63504 0.0
C2857 C 0.95366 0.7645 0.62851 0.0
C2858 C 0.97335 0.76392 0.6477 0.0
C2859 C 0.99308 0.77014 0.65486 0.0
C2860 C 0.00844 0.76718 0.64898 0.0
C2861 C 0.02707 0.77322 0.65577 0.0
C2862 C 0.03043 0.78207 0.66849 0.0
C2863 C 0.01515 0.78485 0.67447 0.0
C2864 C 0.99651 0.77887 0.66771 0.0
C2865 C 0.89581 0.68972 0.65854 0.0
C2866 C 0.87882 0.6924 0.66092 0.0
C2867 C 0.91474 0.70621 0.65476 0.0
C2868 C 0.91679 0.72551 0.65295 0.0
C2869 C 0.90003 0.72839 0.65577 0.0
C2870 C 0.88114 0.71192 0.65967 0.0
C2871 C 0.93576 0.74193 0.64684 0.0
C2872 C 0.9548 0.74927 0.65348 0.0
C2873 C 0.93517 0.74961 0.63419 0.0
C2874 C 0.91555 0.74177 0.62649 0.0
C2875 C 0.90851 0.75513 0.62281 0.0
C2876 C 0.88977 0.74769 0.61583 0.0
C2877 C 0.878 0.72693 0.61243 0.0
C2878 C 0.88499 0.71358 0.61592 0.0
C2879 C 0.90373 0.72095 0.62287 0.0
H2880 H 0.86348 0.7212 0.60706 0.0
H2881 H 0.04486 0.78673 0.67373 0.0
H2882 H 0.15633 0.18811 0.61565 0.0
H2883 H 0.18089 0.17894 0.62507 0.0
H2884 H 0.2293 0.24204 0.62394 0.0
H2885 H 0.20493 0.2514 0.61488 0.0
H2886 H 0.24129 0.21644 0.61301 0.0
H2887 H 0.20714 0.22008 0.65274 0.0
H2888 H 0.17737 0.21078 0.66729 0.0
H2889 H 0.16388 0.1485 0.66734 0.0
H2890 H 0.1934 0.15737 0.65261 0.0
H2891 H 0.32225 0.22165 0.65143 0.0
H2892 H 0.29351 0.2258 0.64359 0.0
H2893 H 0.25155 0.16119 0.64804 0.0
H2894 H 0.28037 0.15705 0.65599 0.0
H2895 H 0.23425 0.18376 0.65661 0.0
H2896 H 0.26819 0.17935 0.61787 0.0
H2897 H 0.29784 0.18767 0.60341 0.0
H2898 H 0.31096 0.24969 0.60107 0.0
H2899 H 0.28157 0.24183 0.61569 0.0
C2900 C 0.17213 0.20008 0.61757 0.0
C2901 C 0.17863 0.22049 0.61436 0.0
C2902 C 0.18617 0.19479 0.62293 0.0
C2903 C 0.20697 0.2098 0.6252 0.0
C2904 C 0.21339 0.23017 0.62217 0.0
C2905 C 0.19941 0.23546 0.61691 0.0
C2906 C 0.22236 0.20445 0.63032 0.0
C2907 C 0.23982 0.20947 0.6226 0.0
C2908 C 0.22011 0.19467 0.64262 0.0
C2909 C 0.2023 0.18933 0.65141 0.0
C2910 C 0.19769 0.20435 0.65573 0.0
C2911 C 0.18089 0.19917 0.66404 0.0
C2912 C 0.16869 0.17904 0.6682 0.0
C2913 C 0.1733 0.16407 0.66408 0.0
C2914 C 0.19007 0.16917 0.65575 0.0
C2915 C 0.30685 0.20839 0.65083 0.0
C2916 C 0.30343 0.18913 0.65452 0.0
C2917 C 0.29046 0.21074 0.64632 0.0
C2918 C 0.27039 0.19377 0.6451 0.0
C2919 C 0.26689 0.17449 0.64892 0.0
C2920 C 0.28332 0.17216 0.65348 0.0
C2921 C 0.25336 0.19623 0.63942 0.0
C2922 C 0.23561 0.1906 0.64698 0.0
C2923 C 0.25519 0.20527 0.62689 0.0
C2924 C 0.27276 0.21003 0.61797 0.0
C2925 C 0.27748 0.1948 0.61435 0.0
C2926 C 0.29423 0.19943 0.60611 0.0
C2927 C 0.3063 0.21921 0.60134 0.0
C2928 C 0.3016 0.23438 0.60477 0.0
C2929 C 0.28489 0.22984 0.61303 0.0
H2930 H 0.31926 0.22276 0.59497 0.0
H2931 H 0.1557 0.17507 0.67464 0.0
H2932 H 0.8392 0.98615 0.61047 0.0
H2933 H 0.83949 0.01472 0.62225 0.0
H2934 H 0.77542 0.99104 0.61152 0.0
H2935 H 0.7747 0.96194 0.60006 0.0
H2936 H 0.80125 0.03297 0.60638 0.0
H2937 H 0.78615 0.98652 0.64226 0.0
H2938 H 0.79163 0.96324 0.65642 0.0
H2939 H 0.85166 0.01249 0.66805 0.0
H2940 H 0.84667 0.03601 0.6538 0.0
H2941 H 0.79183 0.10628 0.6465 0.0
H2942 H 0.78637 0.07464 0.63588 0.0
H2943 H 0.84534 0.08617 0.65139 0.0
H2944 H 0.85056 0.11735 0.66235 0.0
H2945 H 0.81901 0.04839 0.65432 0.0
H2946 H 0.83642 0.09428 0.61786 0.0
H2947 H 0.83373 0.11779 0.60235 0.0
H2948 H 0.7725 0.07085 0.59071 0.0
H2949 H 0.77473 0.04711 0.60633 0.0
C2950 C 0.82503 0.98674 0.6108 0.0
C2951 C 0.8069 0.97165 0.60432 0.0
C2952 C 0.82527 0.00316 0.61749 0.0
C2953 C 0.80745 0.0049 0.6178 0.0
C2954 C 0.78934 0.98996 0.61136 0.0
C2955 C 0.78901 0.97341 0.60476 0.0
C2956 C 0.80797 0.02267 0.62457 0.0
C2957 C 0.80475 0.03622 0.61691 0.0
C2958 C 0.81312 0.02708 0.63821 0.0
C2959 C 0.8161 0.01299 0.64687 0.0
C2960 C 0.80059 0.99235 0.64775 0.0
C2961 C 0.80359 0.97912 0.65581 0.0
C2962 C 0.822 0.98637 0.6631 0.0
C2963 C 0.83742 0.00689 0.66238 0.0
C2964 C 0.8345 0.02018 0.65433 0.0
C2965 C 0.80362 0.10206 0.64764 0.0
C2966 C 0.82161 0.11431 0.65529 0.0
C2967 C 0.80053 0.08401 0.6415 0.0
C2968 C 0.81556 0.0781 0.64266 0.0
C2969 C 0.83348 0.09033 0.65034 0.0
C2970 C 0.83645 0.10819 0.65661 0.0
C2971 C 0.81263 0.05906 0.6361 0.0
C2972 C 0.81533 0.04518 0.6438 0.0
C2973 C 0.8073 0.05451 0.62243 0.0
C2974 C 0.80564 0.069 0.6134 0.0
C2975 C 0.82227 0.08905 0.61213 0.0
C2976 C 0.82084 0.10241 0.60328 0.0
C2977 C 0.80291 0.09585 0.59557 0.0
C2978 C 0.78636 0.07593 0.59672 0.0
C2979 C 0.78769 0.06252 0.60557 0.0
H2980 H 0.80184 0.10613 0.58866 0.0
H2981 H 0.8243 0.97609 0.66934 0.0
H2982 H 0.52422 0.35869 0.72727 0.0
H2983 H 0.49505 0.32978 0.71592 0.0
H2984 H 0.4525 0.33914 0.73968 0.0
H2985 H 0.48171 0.3678 0.75138 0.0
H2986 H 0.44091 0.29897 0.73803 0.0
H2987 H 0.45976 0.35316 0.70759 0.0
H2988 H 0.4831 0.3822 0.69373 0.0
H2989 H 0.49849 0.34322 0.6711 0.0
H2990 H 0.47546 0.31398 0.68496 0.0
H2991 H 0.35426 0.23022 0.69693 0.0
H2992 H 0.38035 0.26156 0.70827 0.0
H2993 H 0.42878 0.25551 0.68945 0.0
H2994 H 0.40298 0.22403 0.67834 0.0
H2995 H 0.43516 0.29523 0.68876 0.0
H2996 H 0.41705 0.24135 0.72007 0.0
H2997 H 0.39244 0.21218 0.73332 0.0
H2998 H 0.37476 0.2508 0.75424 0.0
H2999 H 0.39891 0.28016 0.74082 0.0
C3000 C 0.50867 0.35457 0.73013 0.0
C3001 C 0.50531 0.36558 0.74023 0.0
C3002 C 0.49199 0.33813 0.72356 0.0
C3003 C 0.47157 0.3324 0.72686 0.0
C3004 C 0.46812 0.34332 0.73695 0.0
C3005 C 0.48483 0.35982 0.74353 0.0
C3006 C 0.45392 0.31488 0.71982 0.0
C3007 C 0.43944 0.29831 0.72727 0.0
C3008 C 0.45214 0.31387 0.70577 0.0
C3009 C 0.46601 0.33141 0.6974 0.0
C3010 C 0.46824 0.35081 0.69973 0.0
C3011 C 0.4814 0.3673 0.69186 0.0
C3012 C 0.4923 0.36457 0.68156 0.0
C3013 C 0.49005 0.34532 0.67909 0.0
C3014 C 0.47693 0.32878 0.68694 0.0
C3015 C 0.37045 0.23557 0.69515 0.0
C3016 C 0.37649 0.22466 0.6866 0.0
C3017 C 0.38533 0.25348 0.70165 0.0
C3018 C 0.40648 0.26081 0.6997 0.0
C3019 C 0.41253 0.25017 0.69102 0.0
C3020 C 0.39771 0.23219 0.68462 0.0
C3021 C 0.42242 0.27929 0.70694 0.0
C3022 C 0.43655 0.29601 0.69952 0.0
C3023 C 0.42379 0.28044 0.721 0.0
C3024 C 0.40964 0.26292 0.72932 0.0
C3025 C 0.40781 0.24361 0.72742 0.0
C3026 C 0.39395 0.22703 0.73497 0.0
C3027 C 0.38203 0.22961 0.74463 0.0
C3028 C 0.38399 0.24881 0.74675 0.0
C3029 C 0.39775 0.26543 0.73916 0.0
H3030 H 0.37131 0.21675 0.75047 0.0
H3031 H 0.50247 0.37735 0.67547 0.0
H3032 H 0.63771 0.14938 0.72855 0.0
H3033 H 0.6708 0.15829 0.71827 0.0
H3034 H 0.6527 0.09452 0.7159 0.0
H3035 H 0.61944 0.08538 0.72561 0.0
H3036 H 0.69215 0.11944 0.7273 0.0
H3037 H 0.65219 0.11792 0.68877 0.0
H3038 H 0.63131 0.12844 0.67557 0.0
H3039 H 0.68158 0.19046 0.6763 0.0
H3040 H 0.70266 0.18035 0.68969 0.0
H3041 H 0.76499 0.11419 0.68711 0.0
H3042 H 0.73213 0.11015 0.69475 0.0
H3043 H 0.75683 0.17517 0.69195 0.0
H3044 H 0.7898 0.17924 0.68427 0.0
H3045 H 0.7158 0.15331 0.68384 0.0
H3046 H 0.75634 0.15632 0.72127 0.0
H3047 H 0.77832 0.14756 0.7348 0.0
H3048 H 0.72847 0.08558 0.73719 0.0
H3049 H 0.70628 0.09389 0.72347 0.0
C3050 C 0.6406 0.1372 0.72567 0.0
C3051 C 0.62584 0.11663 0.72807 0.0
C3052 C 0.65959 0.14235 0.71984 0.0
C3053 C 0.66424 0.12707 0.71634 0.0
C3054 C 0.64952 0.10658 0.71861 0.0
C3055 C 0.63052 0.10141 0.72428 0.0
C3056 C 0.6846 0.13222 0.71066 0.0
C3057 C 0.69722 0.12668 0.71774 0.0
C3058 C 0.69158 0.14236 0.69842 0.0
C3059 C 0.6789 0.14842 0.69039 0.0
C3060 C 0.65871 0.13384 0.68624 0.0
C3061 C 0.64686 0.13972 0.6787 0.0
C3062 C 0.65508 0.16012 0.67514 0.0
C3063 C 0.67521 0.17467 0.67909 0.0
C3064 C 0.68712 0.16887 0.68665 0.0
C3065 C 0.76328 0.12756 0.68795 0.0
C3066 C 0.77983 0.14697 0.68498 0.0
C3067 C 0.74455 0.12527 0.69234 0.0
C3068 C 0.7421 0.1424 0.6941 0.0
C3069 C 0.75837 0.16175 0.69067 0.0
C3070 C 0.77717 0.16405 0.68625 0.0
C3071 C 0.72305 0.14006 0.70035 0.0
C3072 C 0.71076 0.14619 0.69343 0.0
C3073 C 0.71647 0.13076 0.71288 0.0
C3074 C 0.72969 0.1257 0.72124 0.0
C3075 C 0.7501 0.14078 0.72459 0.0
C3076 C 0.7626 0.13591 0.73231 0.0
C3077 C 0.75481 0.11602 0.73683 0.0
C3078 C 0.73449 0.10098 0.73367 0.0
C3079 C 0.72194 0.10577 0.72593 0.0
H3080 H 0.7645 0.11227 0.74281 0.0
H3081 H 0.64588 0.16464 0.66929 0.0
H3082 H 0.89553 0.52602 0.7443 0.0
H3083 H 0.87974 0.5452 0.73571 0.0
H3084 H 0.8973 0.53877 0.69591 0.0
H3085 H 0.91319 0.51965 0.70445 0.0
H3086 H 0.90655 0.57693 0.70063 0.0
H3087 H 0.84695 0.51093 0.70618 0.0
H3088 H 0.82301 0.47965 0.71806 0.0
H3089 H 0.81084 0.51533 0.74627 0.0
H3090 H 0.83495 0.54687 0.73467 0.0
H3091 H 0.84492 0.60861 0.6661 0.0
H3092 H 0.85636 0.58582 0.67478 0.0
H3093 H 0.84982 0.60263 0.71485 0.0
H3094 H 0.83829 0.62548 0.70615 0.0
H3095 H 0.83423 0.55896 0.70994 0.0
H3096 H 0.89463 0.62506 0.70408 0.0
H3097 H 0.91733 0.65574 0.69127 0.0
H3098 H 0.92712 0.61878 0.66273 0.0
H3099 H 0.9041 0.5878 0.67524 0.0
C3100 C 0.89579 0.52846 0.73369 0.0
C3101 C 0.90559 0.52131 0.72505 0.0
C3102 C 0.88677 0.53944 0.7288 0.0
C3103 C 0.88717 0.54328 0.71515 0.0
C3104 C 0.89685 0.53604 0.70649 0.0
C3105 C 0.90595 0.52515 0.71138 0.0
C3106 C 0.87806 0.55535 0.70993 0.0
C3107 C 0.89065 0.5728 0.70252 0.0
C3108 C 0.85742 0.55022 0.71261 0.0
C3109 C 0.84293 0.53129 0.71963 0.0
C3110 C 0.83931 0.51213 0.71498 0.0
C3111 C 0.82568 0.49435 0.72166 0.0
C3112 C 0.81545 0.49551 0.73294 0.0
C3113 C 0.8188 0.51446 0.73755 0.0
C3114 C 0.83243 0.53229 0.73092 0.0
C3115 C 0.84541 0.60708 0.67672 0.0
C3116 C 0.84053 0.61864 0.68543 0.0
C3117 C 0.85213 0.5942 0.68168 0.0
C3118 C 0.85393 0.5926 0.69544 0.0
C3119 C 0.84844 0.60364 0.7042 0.0
C3120 C 0.842 0.61674 0.69922 0.0
C3121 C 0.86272 0.58034 0.70066 0.0
C3122 C 0.8501 0.56296 0.70807 0.0
C3123 C 0.88327 0.58543 0.69791 0.0
C3124 C 0.89746 0.60408 0.69052 0.0
C3125 C 0.90148 0.62345 0.69501 0.0
C3126 C 0.91442 0.6409 0.68782 0.0
C3127 C 0.92362 0.6392 0.67618 0.0
C3128 C 0.91995 0.62006 0.67174 0.0
C3129 C 0.90696 0.60255 0.67888 0.0
H3130 H 0.93364 0.65273 0.67062 0.0
H3131 H 0.8049 0.48172 0.73808 0.0
H3132 H 0.47867 0.91757 0.19503 0.0
H3133 H 0.48366 0.92711 0.17163 0.0
H3134 H 0.44802 0.95723 0.17672 0.0
H3135 H 0.44218 0.94698 0.19992 0.0
H3136 H 0.43903 0.93801 0.15331 0.0
H3137 H 0.50186 0.98372 0.1777 0.0
H3138 H 0.53197 0.99246 0.19225 0.0
H3139 H 0.55296 0.96326 0.16457 0.0
H3140 H 0.52282 0.95412 0.14993 0.0
H3141 H 0.47888 0.01587 0.10538 0.0
H3142 H 0.46992 0.99615 0.1258 0.0
H3143 H 0.49921 0.96318 0.11111 0.0
H3144 H 0.50807 0.98282 0.0905 0.0
H3145 H 0.51119 0.97957 0.13776 0.0
H3146 H 0.45037 0.93819 0.11188 0.0
H3147 H 0.42099 0.93125 0.09716 0.0
H3148 H 0.39653 0.95339 0.12749 0.0
H3149 H 0.426 0.96086 0.14232 0.0
C3150 C 0.47156 0.92589 0.19112 0.0
C3151 C 0.46019 0.93168 0.19944 0.0
C3152 C 0.47461 0.93152 0.17775 0.0
C3153 C 0.46653 0.94322 0.17244 0.0
C3154 C 0.45451 0.94831 0.18058 0.0
C3155 C 0.45137 0.94261 0.19391 0.0
C3156 C 0.47125 0.95095 0.1586 0.0
C3157 C 0.45482 0.94718 0.14995 0.0
C3158 C 0.49183 0.96251 0.15403 0.0
C3159 C 0.50997 0.96803 0.16281 0.0
C3160 C 0.51282 0.97903 0.17477 0.0
C3161 C 0.5299 0.98408 0.18302 0.0
C3162 C 0.54433 0.97836 0.17936 0.0
C3163 C 0.54175 0.96764 0.16741 0.0
C3164 C 0.52467 0.96253 0.15913 0.0
C3165 C 0.48337 0.00439 0.10649 0.0
C3166 C 0.49426 0.00094 0.09639 0.0
C3167 C 0.47815 0.99307 0.11812 0.0
C3168 C 0.48386 0.97817 0.11995 0.0
C3169 C 0.49466 0.9746 0.10987 0.0
C3170 C 0.49961 0.98573 0.09811 0.0
C3171 C 0.47901 0.96693 0.13263 0.0
C3172 C 0.49541 0.9701 0.14106 0.0
C3173 C 0.45843 0.95493 0.137 0.0
C3174 C 0.44051 0.95023 0.12819 0.0
C3175 C 0.43882 0.94174 0.11538 0.0
C3176 C 0.42214 0.93769 0.10702 0.0
C3177 C 0.40691 0.9419 0.11138 0.0
C3178 C 0.40834 0.95014 0.12413 0.0
C3179 C 0.42503 0.95427 0.13252 0.0
H3180 H 0.394 0.93875 0.10489 0.0
H3181 H 0.55755 0.98229 0.18576 0.0
H3182 H 0.12209 0.5668 0.17539 0.0
H3183 H 0.09853 0.55723 0.15629 0.0
H3184 H 0.04631 0.52587 0.18209 0.0
H3185 H 0.06968 0.53597 0.20137 0.0
H3186 H 0.04363 0.50313 0.15926 0.0
H3187 H 0.05676 0.57018 0.17119 0.0
H3188 H 0.07808 0.60701 0.17643 0.0
H3189 H 0.10467 0.61736 0.13757 0.0
H3190 H 0.08376 0.58051 0.13218 0.0
H3191 H 0.98131 0.52507 0.10589 0.0
H3192 H 0.00173 0.53372 0.12653 0.0
H3193 H 0.03166 0.50117 0.11215 0.0
H3194 H 0.01095 0.49204 0.09163 0.0
H3195 H 0.04316 0.55569 0.13046 0.0
H3196 H 0.04174 0.47948 0.13866 0.0
H3197 H 0.01894 0.44266 0.13387 0.0
H3198 H 0.96595 0.45066 0.13365 0.0
H3199 H 0.98839 0.48746 0.13862 0.0
C3200 C 0.10559 0.55809 0.17707 0.0
C3201 C 0.09783 0.55227 0.18998 0.0
C3202 C 0.09216 0.55254 0.16611 0.0
C3203 C 0.0707 0.54097 0.1678 0.0
C3204 C 0.06285 0.53478 0.18059 0.0
C3205 C 0.07626 0.54049 0.19159 0.0
C3206 C 0.05647 0.53537 0.1562 0.0
C3207 C 0.0435 0.5146 0.15296 0.0
C3208 C 0.05616 0.55037 0.1481 0.0
C3209 C 0.06885 0.57253 0.15134 0.0
C3210 C 0.06731 0.58027 0.16381 0.0
C3211 C 0.07929 0.60116 0.1668 0.0
C3212 C 0.09276 0.61451 0.15735 0.0
C3213 C 0.09425 0.60699 0.14489 0.0
C3214 C 0.08234 0.58611 0.14186 0.0
C3215 C 0.99208 0.51956 0.10719 0.0
C3216 C 0.99447 0.50781 0.09715 0.0
C3217 C 0.00384 0.52465 0.11893 0.0
C3218 C 0.01809 0.51796 0.12091 0.0
C3219 C 0.02058 0.5063 0.11089 0.0
C3220 C 0.00887 0.50125 0.09913 0.0
C3221 C 0.03058 0.52345 0.13337 0.0
C3222 C 0.04326 0.5442 0.13676 0.0
C3223 C 0.03048 0.50843 0.14167 0.0
C3224 C 0.01679 0.48626 0.1389 0.0
C3225 C 0.02521 0.47336 0.13765 0.0
C3226 C 0.01235 0.4525 0.13489 0.0
C3227 C 0.99101 0.44434 0.13342 0.0
C3228 C 0.98248 0.45701 0.13475 0.0
C3229 C 0.99527 0.47788 0.13752 0.0
H3230 H 0.98109 0.42819 0.13127 0.0
H3231 H 0.10201 0.63068 0.15968 0.0
H3232 H 0.50357 0.54987 0.20441 0.0
H3233 H 0.51088 0.54844 0.18091 0.0
H3234 H 0.44582 0.50838 0.17272 0.0
H3235 H 0.43843 0.50943 0.19636 0.0
H3236 H 0.46896 0.49409 0.16137 0.0
H3237 H 0.46936 0.55717 0.16251 0.0
H3238 H 0.4787 0.59162 0.17077 0.0
H3239 H 0.54265 0.61299 0.16268 0.0
H3240 H 0.53374 0.57857 0.15455 0.0
H3241 H 0.4873 0.49763 0.09168 0.0
H3242 H 0.47406 0.50129 0.11313 0.0
H3243 H 0.53649 0.54181 0.12714 0.0
H3244 H 0.54976 0.53875 0.10559 0.0
H3245 H 0.5109 0.55572 0.13452 0.0
H3246 H 0.51052 0.49161 0.13569 0.0
H3247 H 0.5011 0.45712 0.12745 0.0
H3248 H 0.43665 0.43782 0.13113 0.0
H3249 H 0.4457 0.47231 0.13924 0.0
C3250 C 0.4908 0.54077 0.19761 0.0
C3251 C 0.47043 0.5297 0.20226 0.0
C3252 C 0.49498 0.54011 0.18415 0.0
C3253 C 0.47888 0.52843 0.17502 0.0
C3254 C 0.45847 0.51754 0.17958 0.0
C3255 C 0.45426 0.51827 0.19307 0.0
C3256 C 0.48363 0.52691 0.16086 0.0
C3257 C 0.47777 0.50754 0.15541 0.0
C3258 C 0.49543 0.54448 0.15315 0.0
C3259 C 0.50089 0.56523 0.15802 0.0
C3260 C 0.48544 0.56917 0.16259 0.0
C3261 C 0.49065 0.5887 0.16723 0.0
C3262 C 0.51126 0.60447 0.16727 0.0
C3263 C 0.52669 0.60075 0.16265 0.0
C3264 C 0.52156 0.58123 0.15801 0.0
C3265 C 0.49819 0.50753 0.09927 0.0
C3266 C 0.5196 0.5178 0.09694 0.0
C3267 C 0.49061 0.50947 0.11157 0.0
C3268 C 0.5043 0.52164 0.1218 0.0
C3269 C 0.52564 0.53229 0.1194 0.0
C3270 C 0.53322 0.53036 0.10712 0.0
C3271 C 0.49656 0.52295 0.13515 0.0
C3272 C 0.50187 0.54227 0.14044 0.0
C3273 C 0.48423 0.50534 0.14271 0.0
C3274 C 0.47878 0.48458 0.13794 0.0
C3275 C 0.49434 0.48005 0.13465 0.0
C3276 C 0.48907 0.4605 0.13002 0.0
C3277 C 0.46829 0.4453 0.12873 0.0
C3278 C 0.45274 0.44962 0.13211 0.0
C3279 C 0.45793 0.46916 0.13674 0.0
H3280 H 0.46424 0.43018 0.12514 0.0
H3281 H 0.51527 0.61959 0.17087 0.0
H3282 H 0.98256 0.51971 0.80653 0.0
H3283 H 0.9908 0.52406 0.83037 0.0
H3284 H 0.94652 0.46043 0.83627 0.0
H3285 H 0.9382 0.45595 0.81237 0.0
H3286 H 0.94629 0.48868 0.85629 0.0
H3287 H 0.99306 0.4714 0.83435 0.0
H3288 H 0.01854 0.47551 0.81741 0.0
H3289 H 0.0596 0.53674 0.83166 0.0
H3290 H 0.0342 0.53309 0.84856 0.0
H3291 H 0.98294 0.47518 0.91892 0.0
H3292 H 0.96974 0.47288 0.89625 0.0
H3293 H 0.02271 0.53161 0.88772 0.0
H3294 H 0.03616 0.53366 0.91025 0.0
H3295 H 0.01767 0.50605 0.86888 0.0
H3296 H 0.97257 0.52404 0.89121 0.0
H3297 H 0.94737 0.52134 0.90795 0.0
H3298 H 0.9037 0.46118 0.89318 0.0
H3299 H 0.92874 0.4634 0.87645 0.0
C3300 C 0.97435 0.50673 0.81294 0.0
C3301 C 0.9598 0.48747 0.80761 0.0
C3302 C 0.97912 0.50922 0.82652 0.0
C3303 C 0.96932 0.49254 0.83502 0.0
C3304 C 0.9542 0.47347 0.82984 0.0
C3305 C 0.9496 0.47091 0.81621 0.0
C3306 C 0.9759 0.49473 0.84914 0.0
C3307 C 0.96181 0.49227 0.85911 0.0
C3308 C 0.99629 0.49989 0.85272 0.0
C3309 C 0.01164 0.50205 0.84262 0.0
C3310 C 0.00744 0.4858 0.83379 0.0
C3311 C 0.02188 0.48803 0.82421 0.0
C3312 C 0.04065 0.50639 0.82343 0.0
C3313 C 0.04504 0.52254 0.83226 0.0
C3314 C 0.03063 0.52039 0.84185 0.0
C3315 C 0.99157 0.48772 0.91225 0.0
C3316 C 0.0106 0.50455 0.91629 0.0
C3317 C 0.984 0.48643 0.89931 0.0
C3318 C 0.99516 0.50215 0.89027 0.0
C3319 C 0.01387 0.51925 0.89448 0.0
C3320 C 0.02154 0.52042 0.90734 0.0
C3321 C 0.98813 0.50019 0.8762 0.0
C3322 C 0.00215 0.5026 0.86617 0.0
C3323 C 0.96774 0.4952 0.87261 0.0
C3324 C 0.95262 0.49381 0.88265 0.0
C3325 C 0.95765 0.51016 0.8916 0.0
C3326 C 0.94339 0.50874 0.90107 0.0
C3327 C 0.92397 0.49108 0.90165 0.0
C3328 C 0.91876 0.47484 0.89273 0.0
C3329 C 0.93297 0.47618 0.88324 0.0
H3330 H 0.91294 0.49001 0.90899 0.0
H3331 H 0.05182 0.50809 0.81601 0.0
H3332 H 0.51119 0.44319 0.81411 0.0
H3333 H 0.49855 0.44997 0.83482 0.0
H3334 H 0.56077 0.48172 0.85088 0.0
H3335 H 0.57346 0.47445 0.83031 0.0
H3336 H 0.53391 0.45567 0.86871 0.0
H3337 H 0.53739 0.50804 0.84072 0.0
H3338 H 0.53077 0.5222 0.82056 0.0
H3339 H 0.46533 0.48624 0.82675 0.0
H3340 H 0.47154 0.47164 0.84686 0.0
H3341 H 0.51227 0.5014 0.92405 0.0
H3342 H 0.52585 0.49548 0.9035 0.0
H3343 H 0.46396 0.46093 0.88718 0.0
H3344 H 0.45011 0.46628 0.90786 0.0
H3345 H 0.49133 0.48917 0.86967 0.0
H3346 H 0.48739 0.4351 0.89642 0.0
H3347 H 0.49336 0.42001 0.91637 0.0
H3348 H 0.55894 0.45934 0.91274 0.0
H3349 H 0.55338 0.47451 0.89265 0.0
C3350 C 0.5222 0.4516 0.82205 0.0
C3351 C 0.54335 0.45828 0.82054 0.0
C3352 C 0.51497 0.45561 0.83385 0.0
C3353 C 0.52873 0.4665 0.84438 0.0
C3354 C 0.54988 0.47332 0.84288 0.0
C3355 C 0.55713 0.46933 0.83107 0.0
C3356 C 0.52094 0.47033 0.85703 0.0
C3357 C 0.52489 0.46329 0.86893 0.0
C3358 C 0.50872 0.47983 0.85731 0.0
C3359 C 0.50493 0.48861 0.84523 0.0
C3360 C 0.52158 0.50303 0.83773 0.0
C3361 C 0.5179 0.51116 0.82632 0.0
C3362 C 0.49764 0.50509 0.82236 0.0
C3363 C 0.48101 0.49091 0.82982 0.0
C3364 C 0.48461 0.48272 0.84123 0.0
C3365 C 0.50147 0.4923 0.91618 0.0
C3366 C 0.48005 0.48433 0.91765 0.0
C3367 C 0.50929 0.48899 0.90441 0.0
C3368 C 0.4959 0.47768 0.89384 0.0
C3369 C 0.47456 0.46978 0.89521 0.0
C3370 C 0.46669 0.47296 0.90702 0.0
C3371 C 0.50424 0.47443 0.88127 0.0
C3372 C 0.50041 0.4816 0.86941 0.0
C3373 C 0.51652 0.46503 0.88102 0.0
C3374 C 0.51996 0.45602 0.8931 0.0
C3375 C 0.50308 0.4406 0.89992 0.0
C3376 C 0.50639 0.432 0.91122 0.0
C3377 C 0.5265 0.43877 0.91585 0.0
C3378 C 0.54337 0.45411 0.90914 0.0
C3379 C 0.54016 0.46264 0.89775 0.0
H3380 H 0.52901 0.43206 0.92459 0.0
H3381 H 0.49483 0.5114 0.81353 0.0
H3382 H 0.49793 0.04825 0.80789 0.0
H3383 H 0.49193 0.03772 0.83096 0.0
H3384 H 0.55211 0.08781 0.8421 0.0
H3385 H 0.55808 0.09901 0.81898 0.0
H3386 H 0.54408 0.0505 0.85258 0.0
H3387 H 0.51135 0.09076 0.85093 0.0
H3388 H 0.48837 0.10244 0.8419 0.0
H3389 H 0.43575 0.04266 0.8471 0.0
H3390 H 0.45846 0.03053 0.85599 0.0
H3391 H 0.52216 0.02524 0.92101 0.0
H3392 H 0.53187 0.04472 0.90046 0.0
H3393 H 0.47148 0.00358 0.88362 0.0
H3394 H 0.46136 0.98469 0.90428 0.0
H3395 H 0.48265 0.04118 0.87721 0.0
H3396 H 0.51541 -8e-05 0.87629 0.0
H3397 H 0.53805 0.9875 0.88487 0.0
H3398 H 0.59021 0.04844 0.88412 0.0
H3399 H 0.5678 0.06126 0.87569 0.0
C3400 C 0.50979 0.05739 0.81522 0.0
C3401 C 0.52846 0.07466 0.81148 0.0
C3402 C 0.50634 0.05123 0.82845 0.0
C3403 C 0.52149 0.06207 0.83829 0.0
C3404 C 0.5402 0.07922 0.83466 0.0
C3405 C 0.54361 0.08554 0.82141 0.0
C3406 C 0.5178 0.05498 0.85226 0.0
C3407 C 0.53088 0.04884 0.85809 0.0
C3408 C 0.50038 0.05246 0.85935 0.0
C3409 C 0.48664 0.0597 0.85403 0.0
C3410 C 0.4949 0.08006 0.85005 0.0
C3411 C 0.48192 0.08677 0.84498 0.0
C3412 C 0.46062 0.07329 0.8439 0.0
C3413 C 0.45225 0.05308 0.84793 0.0
C3414 C 0.46517 0.04629 0.853 0.0
C3415 C 0.51083 0.02052 0.91301 0.0
C3416 C 0.49102 0.00323 0.91429 0.0
C3417 C 0.51649 0.03155 0.9012 0.0
C3418 C 0.50254 0.02544 0.89037 0.0
C3419 C 0.48258 0.00857 0.89178 0.0
C3420 C 0.47689 0.99763 0.90358 0.0
C3421 C 0.50864 0.03622 0.87744 0.0
C3422 C 0.49601 0.04307 0.8718 0.0
C3423 C 0.52641 0.03928 0.8705 0.0
C3424 C 0.53989 0.03158 0.87551 0.0
C3425 C 0.53168 0.01069 0.87805 0.0
C3426 C 0.54447 0.00358 0.88287 0.0
C3427 C 0.56554 0.01719 0.88508 0.0
C3428 C 0.57388 0.03793 0.88243 0.0
C3429 C 0.56114 0.04512 0.87762 0.0
H3430 H 0.57542 0.01165 0.88881 0.0
H3431 H 0.45059 0.07852 0.83997 0.0
H3432 H 0.15747 0.26566 0.53224 0.0
H3433 H 0.16535 0.27784 0.50944 0.0
H3434 H 0.10411 0.2693 0.50472 0.0
H3435 H 0.09605 0.25699 0.52759 0.0
H3436 H 0.11897 0.25695 0.48171 0.0
H3437 H 0.13994 0.31453 0.51167 0.0
H3438 H 0.15796 0.33609 0.53137 0.0
H3439 H 0.21621 0.34694 0.51628 0.0
H3440 H 0.19848 0.32516 0.49657 0.0
H3441 H 0.14072 0.32148 0.42546 0.0
H3442 H 0.12907 0.30328 0.44643 0.0
H3443 H 0.19242 0.32326 0.45745 0.0
H3444 H 0.20408 0.34196 0.43672 0.0
H3445 H 0.17498 0.32898 0.47737 0.0
H3446 H 0.15514 0.27209 0.44735 0.0
H3447 H 0.13774 0.24952 0.4279 0.0
H3448 H 0.07865 0.23649 0.44274 0.0
H3449 H 0.09571 0.2592 0.46219 0.0
C3450 C 0.14551 0.26596 0.52628 0.0
C3451 C 0.12614 0.2604 0.53175 0.0
C3452 C 0.15008 0.27303 0.51327 0.0
C3453 C 0.13536 0.27461 0.50542 0.0
C3454 C 0.11568 0.2682 0.51061 0.0
C3455 C 0.11115 0.26131 0.52369 0.0
C3456 C 0.14112 0.28433 0.4922 0.0
C3457 C 0.13104 0.27276 0.48071 0.0
C3458 C 0.15715 0.30482 0.49093 0.0
C3459 C 0.16786 0.31806 0.50271 0.0
C3460 C 0.15657 0.32138 0.5126 0.0
C3461 C 0.16673 0.33366 0.52376 0.0
C3462 C 0.18821 0.34284 0.52509 0.0
C3463 C 0.19957 0.3398 0.51525 0.0
C3464 C 0.18948 0.3275 0.50408 0.0
C3465 C 0.15211 0.32181 0.43232 0.0
C3466 C 0.17332 0.33326 0.42949 0.0
C3467 C 0.14544 0.31132 0.44429 0.0
C3468 C 0.15983 0.3117 0.45355 0.0
C3469 C 0.18098 0.32278 0.45055 0.0
C3470 C 0.18766 0.33349 0.4387 0.0
C3471 C 0.15311 0.30156 0.46667 0.0
C3472 C 0.16294 0.31312 0.47823 0.0
C3473 C 0.13699 0.28101 0.46794 0.0
C3474 C 0.12672 0.26749 0.45618 0.0
C3475 C 0.13845 0.26455 0.44641 0.0
C3476 C 0.12864 0.2517 0.4354 0.0
C3477 C 0.10711 0.24158 0.4341 0.0
C3478 C 0.09533 0.24433 0.44377 0.0
C3479 C 0.10506 0.25717 0.45479 0.0
H3480 H 0.09952 0.23154 0.42561 0.0
H3481 H 0.19605 0.35235 0.53374 0.0
H3482 H 0.72991 0.84871 0.53064 0.0
H3483 H 0.70734 0.83997 0.51106 0.0
H3484 H 0.7486 0.899 0.49464 0.0
H3485 H 0.77063 0.90826 0.51447 0.0
H3486 H 0.71036 0.89 0.49064 0.0
H3487 H 0.74818 0.85484 0.48408 0.0
H3488 H 0.76133 0.83175 0.48978 0.0
H3489 H 0.69912 0.78136 0.49171 0.0
H3490 H 0.68558 0.80422 0.48619 0.0
H3491 H 0.67987 0.86881 0.42258 0.0
H3492 H 0.69912 0.87664 0.44365 0.0
H3493 H 0.65126 0.82005 0.45968 0.0
H3494 H 0.63201 0.812 0.43854 0.0
H3495 H 0.6911 0.82682 0.46433 0.0
H3496 H 0.65398 0.86317 0.46958 0.0
H3497 H 0.64225 0.887 0.46285 0.0
H3498 H 0.70523 0.93616 0.46221 0.0
H3499 H 0.71736 0.91256 0.46878 0.0
C3500 C 0.73405 0.85994 0.52295 0.0
C3501 C 0.75219 0.87915 0.52411 0.0
C3502 C 0.72124 0.85483 0.51168 0.0
C3503 C 0.72644 0.8687 0.50127 0.0
C3504 C 0.74431 0.888 0.50251 0.0
C3505 C 0.75703 0.89319 0.5138 0.0
C3506 C 0.71337 0.86315 0.48903 0.0
C3507 C 0.70634 0.87628 0.48483 0.0
C3508 C 0.70777 0.84506 0.48155 0.0
C3509 C 0.71587 0.83128 0.48487 0.0
C3510 C 0.7373 0.83887 0.48583 0.0
C3511 C 0.74482 0.82582 0.48901 0.0
C3512 C 0.73107 0.80511 0.49114 0.0
C3513 C 0.70975 0.79741 0.49007 0.0
C3514 C 0.70215 0.8104 0.48692 0.0
C3515 C 0.67348 0.85802 0.43059 0.0
C3516 C 0.65443 0.83981 0.42894 0.0
C3517 C 0.68441 0.86257 0.44263 0.0
C3518 C 0.67652 0.84899 0.45324 0.0
C3519 C 0.65756 0.83074 0.45161 0.0
C3520 C 0.64653 0.82625 0.43959 0.0
C3521 C 0.68827 0.85372 0.46595 0.0
C3522 C 0.69504 0.84045 0.47023 0.0
C3523 C 0.69385 0.8718 0.47339 0.0
C3524 C 0.68658 0.88606 0.46957 0.0
C3525 C 0.66534 0.87903 0.46792 0.0
C3526 C 0.65862 0.8925 0.46415 0.0
C3527 C 0.67299 0.91307 0.46208 0.0
C3528 C 0.69412 0.92023 0.46381 0.0
C3529 C 0.70092 0.90682 0.46758 0.0
H3530 H 0.66775 0.92347 0.45916 0.0
H3531 H 0.73693 0.79503 0.49359 0.0
H3532 H 0.11205 0.82759 0.53474 0.0
H3533 H 0.12 0.82349 0.51172 0.0
H3534 H 0.14315 0.88756 0.50524 0.0
H3535 H 0.13526 0.89181 0.52834 0.0
H3536 H 0.11782 0.85972 0.48339 0.0
H3537 H 0.17703 0.87587 0.51141 0.0
H3538 H 0.19452 0.87127 0.5308 0.0
H3539 H 0.17498 0.8099 0.51767 0.0
H3540 H 0.15707 0.81403 0.49829 0.0
H3541 H 0.17579 0.86871 0.42506 0.0
H3542 H 0.16361 0.87344 0.44667 0.0
H3543 H 0.1541 0.81489 0.45895 0.0
H3544 H 0.16698 0.81053 0.43757 0.0
H3545 H 0.17221 0.84091 0.47795 0.0
H3546 H 0.11417 0.82425 0.44952 0.0
H3547 H 0.09649 0.82798 0.42993 0.0
H3548 H 0.11156 0.88796 0.44363 0.0
H3549 H 0.13 0.88488 0.46309 0.0
C3550 C 0.11846 0.84073 0.52835 0.0
C3551 C 0.12308 0.86004 0.53334 0.0
C3552 C 0.12306 0.83838 0.51522 0.0
C3553 C 0.13224 0.85524 0.50683 0.0
C3554 C 0.13604 0.87436 0.51158 0.0
C3555 C 0.13166 0.87679 0.52478 0.0
C3556 C 0.13925 0.85314 0.49345 0.0
C3557 C 0.12987 0.85584 0.48214 0.0
C3558 C 0.15464 0.84765 0.49189 0.0
C3559 C 0.16553 0.84519 0.50348 0.0
C3560 C 0.17631 0.86133 0.51272 0.0
C3561 C 0.18632 0.85882 0.5237 0.0
C3562 C 0.18582 0.84029 0.52549 0.0
C3563 C 0.17533 0.82424 0.51628 0.0
C3564 C 0.16526 0.82666 0.50529 0.0
C3565 C 0.17093 0.85682 0.43236 0.0
C3566 C 0.17233 0.83927 0.42969 0.0
C3567 C 0.16391 0.85949 0.44469 0.0
C3568 C 0.1577 0.84442 0.45443 0.0
C3569 C 0.15886 0.82677 0.45165 0.0
C3570 C 0.16619 0.82427 0.43943 0.0
C3571 C 0.15065 0.84724 0.46771 0.0
C3572 C 0.1601 0.84474 0.47908 0.0
C3573 C 0.13515 0.85269 0.46926 0.0
C3574 C 0.12369 0.85442 0.4577 0.0
C3575 C 0.11387 0.83831 0.44831 0.0
C3576 C 0.10371 0.84031 0.43723 0.0
C3577 C 0.10288 0.85819 0.43554 0.0
C3578 C 0.11223 0.87412 0.44494 0.0
C3579 C 0.12259 0.87228 0.45599 0.0
H3580 H 0.095 0.85971 0.42695 0.0
H3581 H 0.19359 0.83838 0.53399 0.0
H3582 H 0.64862 0.80507 0.13822 0.0
H3583 H 0.6565 0.80694 0.16193 0.0
H3584 H 0.60813 0.82055 0.17051 0.0
H3585 H 0.59975 0.81822 0.14674 0.0
H3586 H 0.64497 0.84635 0.18389 0.0
H3587 H 0.60012 0.77441 0.17713 0.0
H3588 H 0.5876 0.74084 0.16611 0.0
H3589 H 0.64495 0.74337 0.17563 0.0
H3590 H 0.65794 0.7771 0.18653 0.0
H3591 H 0.65686 0.83998 0.25343 0.0
H3592 H 0.64139 0.83385 0.23119 0.0
H3593 H 0.68184 0.81213 0.21775 0.0
H3594 H 0.69646 0.81699 0.24012 0.0
H3595 H 0.64507 0.78911 0.20739 0.0
H3596 H 0.6914 0.86188 0.21194 0.0
H3597 H 0.70514 0.896 0.22242 0.0
H3598 H 0.64646 0.8925 0.21656 0.0
H3599 H 0.63229 0.85822 0.20619 0.0
C3600 C 0.63939 0.80814 0.14513 0.0
C3601 C 0.62343 0.81134 0.14055 0.0
C3602 C 0.64399 0.80928 0.15869 0.0
C3603 C 0.63275 0.81366 0.16798 0.0
C3604 C 0.61697 0.81712 0.16349 0.0
C3605 C 0.61227 0.81587 0.1499 0.0
C3606 C 0.63791 0.81507 0.18235 0.0
C3607 C 0.64463 0.83373 0.18912 0.0
C3608 C 0.63787 0.79872 0.18905 0.0
C3609 C 0.63006 0.77837 0.18256 0.0
C3610 C 0.61012 0.76788 0.17679 0.0
C3611 C 0.60293 0.74881 0.17058 0.0
C3612 C 0.61549 0.73999 0.17015 0.0
C3613 C 0.63525 0.75022 0.17596 0.0
C3614 C 0.64252 0.7693 0.18217 0.0
C3615 C 0.66223 0.83356 0.24582 0.0
C3616 C 0.67806 0.82913 0.24858 0.0
C3617 C 0.65353 0.8303 0.23305 0.0
C3618 C 0.6607 0.82288 0.22272 0.0
C3619 C 0.67611 0.81797 0.22552 0.0
C3620 C 0.68465 0.821 0.23831 0.0
C3621 C 0.65253 0.82054 0.20891 0.0
C3622 C 0.64522 0.80169 0.20223 0.0
C3623 C 0.6522 0.83678 0.20225 0.0
C3624 C 0.66073 0.85741 0.20843 0.0
C3625 C 0.68139 0.86833 0.21297 0.0
C3626 C 0.68926 0.8877 0.21888 0.0
C3627 C 0.67666 0.89639 0.22019 0.0
C3628 C 0.65618 0.88574 0.21556 0.0
C3629 C 0.64823 0.86635 0.20966 0.0
H3630 H 0.68278 0.91139 0.22477 0.0
H3631 H 0.6099 0.72523 0.16533 0.0
H3632 H 0.22167 0.82015 0.14479 0.0
H3633 H 0.20891 0.82837 0.16496 0.0
H3634 H 0.20314 0.77479 0.18367 0.0
H3635 H 0.21513 0.76608 0.16343 0.0
H3636 H 0.17012 0.77795 0.18847 0.0
H3637 H 0.24343 0.82278 0.19132 0.0
H3638 H 0.2778 0.84909 0.18371 0.0
H3639 H 0.25668 0.89233 0.18115 0.0
H3640 H 0.22207 0.86617 0.18857 0.0
H3641 H 0.1616 0.80201 0.25545 0.0
H3642 H 0.17514 0.79575 0.23498 0.0
H3643 H 0.17402 0.84647 0.21673 0.0
H3644 H 0.16072 0.85301 0.2373 0.0
H3645 H 0.21011 0.8454 0.21147 0.0
H3646 H 0.13648 0.79955 0.20934 0.0
H3647 H 0.10303 0.773 0.21803 0.0
H3648 H 0.126 0.7312 0.22019 0.0
H3649 H 0.1597 0.75761 0.21167 0.0
C3650 C 0.21753 0.81003 0.15316 0.0
C3651 C 0.21956 0.79252 0.15251 0.0
C3652 C 0.21042 0.81486 0.16473 0.0
C3653 C 0.2053 0.80233 0.1759 0.0
C3654 C 0.20707 0.78473 0.17521 0.0
C3655 C 0.21413 0.77989 0.16366 0.0
C3656 C 0.19794 0.80741 0.1883 0.0
C3657 C 0.17899 0.79262 0.19356 0.0
C3658 C 0.20932 0.82669 0.19485 0.0
C3659 C 0.23009 0.84245 0.19036 0.0
C3660 C 0.24606 0.83784 0.18902 0.0
C3661 C 0.26559 0.85274 0.18476 0.0
C3662 C 0.2694 0.87235 0.18191 0.0
C3663 C 0.2537 0.87712 0.18334 0.0
C3664 C 0.23412 0.86227 0.18758 0.0
C3665 C 0.1644 0.81195 0.24715 0.0
C3666 C 0.15989 0.82788 0.248 0.0
C3667 C 0.17203 0.80829 0.23542 0.0
C3668 C 0.17534 0.8205 0.22428 0.0
C3669 C 0.17147 0.83681 0.22519 0.0
C3670 C 0.16371 0.84041 0.23692 0.0
C3671 C 0.1824 0.81591 0.21161 0.0
C3672 C 0.20125 0.83078 0.20632 0.0
C3673 C 0.17104 0.79664 0.20509 0.0
C3674 C 0.15066 0.78061 0.20997 0.0
C3675 C 0.13443 0.78473 0.21174 0.0
C3676 C 0.11543 0.76971 0.21663 0.0
C3677 C 0.11241 0.75044 0.21969 0.0
C3678 C 0.12837 0.74613 0.21783 0.0
C3679 C 0.14742 0.76112 0.21295 0.0
H3680 H 0.09769 0.73883 0.22349 0.0
H3681 H 0.28454 0.88386 0.17862 0.0
H3682 H 0.22383 0.42556 0.15297 0.0
H3683 H 0.21765 0.41408 0.17602 0.0
H3684 H 0.15921 0.36204 0.16419 0.0
H3685 H 0.16558 0.37264 0.14113 0.0
H3686 H 0.15787 0.38464 0.18734 0.0
H3687 H 0.19694 0.35428 0.16934 0.0
H3688 H 0.22731 0.35577 0.15868 0.0
H3689 H 0.26655 0.39491 0.19034 0.0
H3690 H 0.23642 0.39388 0.2011 0.0
H3691 H 0.12475 0.31265 0.23783 0.0
H3692 H 0.1359 0.3317 0.2173 0.0
H3693 H 0.19659 0.37064 0.23449 0.0
H3694 H 0.18573 0.35101 0.25498 0.0
H3695 H 0.20022 0.36008 0.21008 0.0
H3696 H 0.16277 0.38852 0.22962 0.0
H3697 H 0.13396 0.38945 0.24082 0.0
H3698 H 0.09384 0.35789 0.20747 0.0
H3699 H 0.12233 0.35654 0.19612 0.0
C3700 C 0.20976 0.41153 0.1552 0.0
C3701 C 0.19518 0.40014 0.14507 0.0
C3702 C 0.20621 0.40508 0.16842 0.0
C3703 C 0.18793 0.38726 0.17181 0.0
C3704 C 0.17332 0.37596 0.1618 0.0
C3705 C 0.17697 0.38218 0.1486 0.0
C3706 C 0.18395 0.38004 0.18572 0.0
C3707 C 0.16702 0.37914 0.19231 0.0
C3708 C 0.19642 0.37366 0.19238 0.0
C3709 C 0.21449 0.37421 0.18593 0.0
C3710 C 0.21208 0.36336 0.17396 0.0
C3711 C 0.22923 0.36409 0.16792 0.0
C3712 C 0.24886 0.37548 0.17381 0.0
C3713 C 0.25135 0.38613 0.18578 0.0
C3714 C 0.23424 0.38547 0.19185 0.0
C3715 C 0.14053 0.32517 0.23726 0.0
C3716 C 0.15436 0.33018 0.24808 0.0
C3717 C 0.14682 0.33625 0.22554 0.0
C3718 C 0.16703 0.35283 0.22436 0.0
C3719 C 0.18089 0.35798 0.23516 0.0
C3720 C 0.1746 0.34683 0.24691 0.0
C3721 C 0.17371 0.36412 0.21165 0.0
C3722 C 0.19117 0.36582 0.20526 0.0
C3723 C 0.16194 0.37162 0.20527 0.0
C3724 C 0.14468 0.3723 0.21206 0.0
C3725 C 0.14776 0.38163 0.22471 0.0
C3726 C 0.13149 0.38226 0.23108 0.0
C3727 C 0.11208 0.3737 0.22487 0.0
C3728 C 0.10889 0.36451 0.21227 0.0
C3729 C 0.12511 0.36384 0.20585 0.0
H3730 H 0.0995 0.37421 0.22981 0.0
H3731 H 0.26212 0.37602 0.16911 0.0
H3732 H 0.77208 0.58098 0.86183 0.0
H3733 H 0.77811 0.59168 0.8386 0.0
H3734 H 0.83818 0.6422 0.84965 0.0
H3735 H 0.83217 0.63171 0.87279 0.0
H3736 H 0.81883 0.65514 0.83446 0.0
H3737 H 0.83141 0.59872 0.83254 0.0
H3738 H 0.82316 0.56308 0.83535 0.0
H3739 H 0.77119 0.54224 0.80859 0.0
H3740 H 0.77896 0.57775 0.80576 0.0
H3741 H 0.86767 0.68657 0.77287 0.0
H3742 H 0.85793 0.67041 0.79449 0.0
H3743 H 0.79597 0.63004 0.77978 0.0
H3744 H 0.80537 0.64659 0.75812 0.0
H3745 H 0.81314 0.61062 0.79607 0.0
H3746 H 0.8021 0.66788 0.79748 0.0
H3747 H 0.81162 0.70384 0.79443 0.0
H3748 H 0.86209 0.72325 0.82227 0.0
H3749 H 0.85306 0.68741 0.82533 0.0
C3750 C 0.78666 0.59422 0.85926 0.0
C3751 C 0.80159 0.60558 0.86917 0.0
C3752 C 0.7901 0.60033 0.84597 0.0
C3753 C 0.80865 0.61773 0.84232 0.0
C3754 C 0.82369 0.62881 0.85219 0.0
C3755 C 0.82021 0.62282 0.86544 0.0
C3756 C 0.81227 0.62502 0.82837 0.0
C3757 C 0.81778 0.64541 0.82611 0.0
C3758 C 0.81035 0.61223 0.81736 0.0
C3759 C 0.80562 0.59087 0.81907 0.0
C3760 C 0.81811 0.58652 0.82735 0.0
C3761 C 0.81354 0.56635 0.82892 0.0
C3762 C 0.79662 0.5504 0.82218 0.0
C3763 C 0.78426 0.5546 0.81382 0.0
C3764 C 0.78875 0.57475 0.81223 0.0
C3765 C 0.85191 0.67434 0.7742 0.0
C3766 C 0.83723 0.66814 0.76376 0.0
C3767 C 0.84642 0.66502 0.78656 0.0
C3768 C 0.82618 0.64918 0.78878 0.0
C3769 C 0.81169 0.64224 0.77826 0.0
C3770 C 0.81713 0.6517 0.76587 0.0
C3771 C 0.82008 0.64075 0.80232 0.0
C3772 C 0.81405 0.62022 0.80446 0.0
C3773 C 0.82163 0.6534 0.81327 0.0
C3774 C 0.82701 0.67497 0.81154 0.0
C3775 C 0.81533 0.67983 0.80287 0.0
C3776 C 0.82062 0.70019 0.80115 0.0
C3777 C 0.83748 0.71582 0.80813 0.0
C3778 C 0.84905 0.71113 0.81686 0.0
C3779 C 0.84384 0.69079 0.8186 0.0
H3780 H 0.84156 0.73158 0.80679 0.0
H3781 H 0.79312 0.53479 0.82341 0.0
H3782 H 0.42457 0.19009 0.85123 0.0
H3783 H 0.40229 0.18052 0.83129 0.0
H3784 H 0.39705 0.23444 0.83658 0.0
H3785 H 0.41953 0.2442 0.85639 0.0
H3786 H 0.35847 0.19662 0.8304 0.0
H3787 H 0.42893 0.23722 0.81519 0.0
H3788 H 0.46522 0.24567 0.81307 0.0
H3789 H 0.44531 0.18724 0.79433 0.0
H3790 H 0.40885 0.17832 0.79653 0.0
H3791 H 0.32051 0.20486 0.76762 0.0
H3792 H 0.34009 0.21089 0.78838 0.0
H3793 H 0.35606 0.16554 0.77644 0.0
H3794 H 0.33678 0.15972 0.75557 0.0
H3795 H 0.38857 0.19716 0.78644 0.0
H3796 H 0.31902 0.15601 0.80043 0.0
H3797 H 0.28218 0.14544 0.80283 0.0
H3798 H 0.29899 0.20131 0.82415 0.0
H3799 H 0.33596 0.21236 0.82171 0.0
C3800 C 0.41848 0.19976 0.84818 0.0
C3801 C 0.42379 0.21791 0.85528 0.0
C3802 C 0.40585 0.19434 0.83681 0.0
C3803 C 0.39814 0.20684 0.83248 0.0
C3804 C 0.40288 0.22461 0.83979 0.0
C3805 C 0.41577 0.23022 0.85103 0.0
C3806 C 0.38576 0.20182 0.82003 0.0
C3807 C 0.36504 0.19691 0.82076 0.0
C3808 C 0.39425 0.20161 0.80755 0.0
C3809 C 0.41616 0.20701 0.80617 0.0
C3810 C 0.43228 0.22609 0.81074 0.0
C3811 C 0.45288 0.23098 0.8095 0.0
C3812 C 0.45757 0.21697 0.80361 0.0
C3813 C 0.44165 0.19806 0.79891 0.0
C3814 C 0.42102 0.19308 0.80015 0.0
C3815 C 0.32803 0.19604 0.7695 0.0
C3816 C 0.32701 0.18173 0.76003 0.0
C3817 C 0.3392 0.19948 0.78137 0.0
C3818 C 0.34928 0.18843 0.78409 0.0
C3819 C 0.34838 0.17422 0.77459 0.0
C3820 C 0.33738 0.17092 0.76267 0.0
C3821 C 0.36115 0.19202 0.79671 0.0
C3822 C 0.38184 0.1967 0.79605 0.0
C3823 C 0.3525 0.19167 0.80928 0.0
C3824 C 0.33028 0.1851 0.81077 0.0
C3825 C 0.31487 0.16612 0.80554 0.0
C3826 C 0.29396 0.16003 0.80692 0.0
C3827 C 0.28825 0.17272 0.81361 0.0
C3828 C 0.30344 0.19151 0.81895 0.0
C3829 C 0.32437 0.19769 0.81759 0.0
H3830 H 0.27205 0.16797 0.81467 0.0
H3831 H 0.47353 0.22079 0.80265 0.0
H3832 H 0.83435 0.21216 0.86962 0.0
H3833 H 0.83948 0.20913 0.84599 0.0
H3834 H 0.77399 0.16777 0.84047 0.0
H3835 H 0.76885 0.16997 0.86433 0.0
H3836 H 0.79476 0.15316 0.82815 0.0
H3837 H 0.7978 0.21741 0.8289 0.0
H3838 H 0.8088 0.25253 0.8366 0.0
H3839 H 0.8716 0.27153 0.8265 0.0
H3840 H 0.86103 0.23645 0.81891 0.0
H3841 H 0.80895 0.15395 0.75774 0.0
H3842 H 0.79718 0.1594 0.77933 0.0
H3843 H 0.86059 0.19593 0.79276 0.0
H3844 H 0.87243 0.19076 0.7712 0.0
H3845 H 0.83656 0.21299 0.79982 0.0
H3846 H 0.83301 0.14721 0.80154 0.0
H3847 H 0.82137 0.11202 0.79364 0.0
H3848 H 0.75804 0.09618 0.79875 0.0
H3849 H 0.76933 0.13138 0.80651 0.0
C3850 C 0.82101 0.20235 0.86341 0.0
C3851 C 0.80119 0.19121 0.86891 0.0
C3852 C 0.82394 0.20085 0.84984 0.0
C3853 C 0.80709 0.18842 0.84138 0.0
C3854 C 0.78721 0.17752 0.84678 0.0
C3855 C 0.78428 0.17894 0.86041 0.0
C3856 C 0.81052 0.18602 0.82707 0.0
C3857 C 0.80352 0.16625 0.82188 0.0
C3858 C 0.82218 0.20307 0.8189 0.0
C3859 C 0.82863 0.22424 0.82342 0.0
C3860 C 0.81398 0.22904 0.82841 0.0
C3861 C 0.82014 0.24895 0.83274 0.0
C3862 C 0.84089 0.26424 0.83206 0.0
C3863 C 0.85553 0.25967 0.82702 0.0
C3864 C 0.84946 0.23977 0.82269 0.0
C3865 C 0.82036 0.16332 0.76526 0.0
C3866 C 0.84162 0.17181 0.76283 0.0
C3867 C 0.81362 0.16633 0.77759 0.0
C3868 C 0.82802 0.17794 0.78767 0.0
C3869 C 0.84923 0.18691 0.78512 0.0
C3870 C 0.85596 0.18379 0.77285 0.0
C3871 C 0.82114 0.18023 0.80108 0.0
C3872 C 0.82752 0.19995 0.80607 0.0
C3873 C 0.80877 0.16314 0.80903 0.0
C3874 C 0.802 0.14197 0.80446 0.0
C3875 C 0.8166 0.13626 0.80088 0.0
C3876 C 0.81007 0.11631 0.79644 0.0
C3877 C 0.78898 0.10189 0.79565 0.0
C3878 C 0.77437 0.10737 0.79934 0.0
C3879 C 0.78083 0.12731 0.80376 0.0
H3880 H 0.78395 0.08645 0.79222 0.0
H3881 H 0.84563 0.27965 0.83542 0.0
H3882 H 0.27684 0.15871 0.47821 0.0
H3883 H 0.28512 0.16148 0.50202 0.0
H3884 H 0.32848 0.14079 0.49446 0.0
H3885 H 0.32064 0.13835 0.4707 0.0
H3886 H 0.30372 0.12177 0.51582 0.0
H3887 H 0.34531 0.19069 0.49963 0.0
H3888 H 0.3507 0.22186 0.48856 0.0
H3889 H 0.31161 0.22842 0.51697 0.0
H3890 H 0.30576 0.1971 0.5281 0.0
H3891 H 0.3675 0.1511 0.57279 0.0
H3892 H 0.35314 0.14665 0.55037 0.0
H3893 H 0.31712 0.17389 0.56297 0.0
H3894 H 0.33224 0.17935 0.58532 0.0
H3895 H 0.33404 0.18855 0.53986 0.0
H3896 H 0.29448 0.12187 0.55735 0.0
H3897 H 0.28822 0.09057 0.56864 0.0
H3898 H 0.32152 0.07913 0.53827 0.0
H3899 H 0.32825 0.11053 0.52689 0.0
C3900 C 0.28824 0.15488 0.48161 0.0
C3901 C 0.29807 0.1483 0.47253 0.0
C3902 C 0.29288 0.1564 0.49521 0.0
C3903 C 0.30748 0.15142 0.49998 0.0
C3904 C 0.31708 0.14459 0.49099 0.0
C3905 C 0.31251 0.14313 0.47741 0.0
C3906 C 0.31314 0.15363 0.51431 0.0
C3907 C 0.3105 0.13639 0.52107 0.0
C3908 C 0.32131 0.17256 0.52125 0.0
C3909 C 0.32491 0.19143 0.5146 0.0
C3910 C 0.33773 0.19868 0.50344 0.0
C3911 C 0.34089 0.21639 0.49717 0.0
C3912 C 0.33146 0.22708 0.50203 0.0
C3913 C 0.31888 0.2201 0.5132 0.0
C3914 C 0.31565 0.20238 0.5195 0.0
C3915 C 0.35668 0.15634 0.57079 0.0
C3916 C 0.35106 0.1656 0.58088 0.0
C3917 C 0.34825 0.15352 0.55799 0.0
C3918 C 0.33378 0.15962 0.55502 0.0
C3919 C 0.32816 0.16895 0.56504 0.0
C3920 C 0.33669 0.17189 0.57785 0.0
C3921 C 0.32503 0.15675 0.54135 0.0
C3922 C 0.32705 0.17385 0.5347 0.0
C3923 C 0.31609 0.13763 0.53454 0.0
C3924 C 0.312 0.11866 0.54132 0.0
C3925 C 0.3006 0.11277 0.55312 0.0
C3926 C 0.29695 0.09499 0.55953 0.0
C3927 C 0.3045 0.08289 0.55419 0.0
C3928 C 0.31569 0.08853 0.5424 0.0
C3929 C 0.31941 0.1063 0.53596 0.0
H3930 H 0.30166 0.06914 0.55917 0.0
H3931 H 0.33393 0.24079 0.49716 0.0
H3932 H 0.88333 0.15387 0.47796 0.0
H3933 H 0.87057 0.16267 0.49788 0.0
H3934 H 0.86973 0.11265 0.51856 0.0
H3935 H 0.88159 0.10324 0.49856 0.0
H3936 H 0.836 0.11375 0.52386 0.0
H3937 H 0.90836 0.16257 0.52403 0.0
H3938 H 0.94135 0.18952 0.51507 0.0
H3939 H 0.91581 0.22897 0.51096 0.0
H3940 H 0.88254 0.20213 0.51973 0.0
H3941 H 0.82952 0.14252 0.5897 0.0
H3942 H 0.84251 0.1356 0.5693 0.0
H3943 H 0.83738 0.18329 0.5497 0.0
H3944 H 0.82507 0.19086 0.57034 0.0
H3945 H 0.87343 0.18384 0.54355 0.0
H3946 H 0.80056 0.13336 0.54441 0.0
H3947 H 0.76947 0.10653 0.55534 0.0
H3948 H 0.79829 0.06995 0.55925 0.0
H3949 H 0.82964 0.09665 0.54843 0.0
C3950 C 0.88024 0.14463 0.48671 0.0
C3951 C 0.88363 0.12792 0.48667 0.0
C3952 C 0.87314 0.1498 0.49814 0.0
C3953 C 0.86944 0.13849 0.50979 0.0
C3954 C 0.87254 0.12166 0.50971 0.0
C3955 C 0.87955 0.11643 0.4983 0.0
C3956 C 0.86228 0.14409 0.52208 0.0
C3957 C 0.84432 0.12904 0.52821 0.0
C3958 C 0.87293 0.1641 0.52771 0.0
C3959 C 0.89288 0.18025 0.52238 0.0
C3960 C 0.90971 0.17693 0.5211 0.0
C3961 C 0.92848 0.19219 0.51608 0.0
C3962 C 0.93066 0.21092 0.5124 0.0
C3963 C 0.91409 0.21444 0.51378 0.0
C3964 C 0.89528 0.19921 0.51878 0.0
C3965 C 0.83136 0.15172 0.58113 0.0
C3966 C 0.82607 0.16714 0.58169 0.0
C3967 C 0.83864 0.14763 0.56942 0.0
C3968 C 0.84059 0.1587 0.55791 0.0
C3969 C 0.83584 0.17445 0.55845 0.0
C3970 C 0.82861 0.17861 0.57022 0.0
C3971 C 0.84723 0.15352 0.54527 0.0
C3972 C 0.86507 0.16862 0.5391 0.0
C3973 C 0.83665 0.1335 0.5397 0.0
C3974 C 0.81747 0.11704 0.54566 0.0
C3975 C 0.80026 0.11959 0.5476 0.0
C3976 C 0.7826 0.10442 0.55378 0.0
C3977 C 0.78192 0.08656 0.558 0.0
C3978 C 0.79884 0.08378 0.55597 0.0
C3979 C 0.81654 0.09891 0.54978 0.0
H3980 H 0.76826 0.07486 0.56283 0.0
H3981 H 0.9452 0.22272 0.50853 0.0
H3982 H 0.83821 0.70561 0.474 0.0
H3983 H 0.83219 0.69567 0.4972 0.0
H3984 H 0.88292 0.75451 0.50935 0.0
H3985 H 0.88854 0.76514 0.4861 0.0
H3986 H 0.88138 0.71815 0.5216 0.0
H3987 H 0.83976 0.74929 0.51492 0.0
H3988 H 0.8143 0.75517 0.50305 0.0
H3989 H 0.76787 0.69223 0.50776 0.0
H3990 H 0.79315 0.6859 0.51949 0.0
H3991 H 0.85292 0.69053 0.58915 0.0
H3992 H 0.86353 0.71034 0.56877 0.0
H3993 H 0.8064 0.66587 0.54951 0.0
H3994 H 0.79509 0.64697 0.57001 0.0
H3995 H 0.81439 0.70093 0.54204 0.0
H3996 H 0.85552 0.668 0.54556 0.0
H3997 H 0.88033 0.66007 0.55638 0.0
H3998 H 0.92671 0.72369 0.55668 0.0
H3999 H 0.90208 0.73201 0.546 0.0
C4000 C 0.84794 0.71667 0.48155 0.0
C4001 C 0.86371 0.73635 0.47807 0.0
C4002 C 0.84457 0.71084 0.49483 0.0
C4003 C 0.85701 0.72439 0.50499 0.0
C4004 C 0.87315 0.74382 0.50164 0.0
C4005 C 0.87638 0.74982 0.48832 0.0
C4006 C 0.85274 0.71809 0.51907 0.0
C4007 C 0.86693 0.71475 0.52621 0.0
C4008 C 0.83371 0.7133 0.52494 0.0
C4009 C 0.81841 0.71709 0.518 0.0
C4010 C 0.82417 0.73666 0.51333 0.0
C4011 C 0.80975 0.74008 0.50665 0.0
C4012 C 0.78949 0.72407 0.50463 0.0
C4013 C 0.78358 0.70462 0.50933 0.0
C4014 C 0.79794 0.70111 0.51601 0.0
C4015 C 0.84244 0.68516 0.58067 0.0
C4016 C 0.82321 0.66693 0.58125 0.0
C4017 C 0.84867 0.69639 0.56892 0.0
C4018 C 0.83599 0.68943 0.55744 0.0
C4019 C 0.81659 0.67158 0.55815 0.0
C4020 C 0.81023 0.66058 0.56989 0.0
C4021 C 0.84276 0.70032 0.54455 0.0
C4022 C 0.82901 0.70457 0.53759 0.0
C4023 C 0.86207 0.70564 0.53877 0.0
C4024 C 0.8769 0.70065 0.54513 0.0
C4025 C 0.87097 0.6803 0.54802 0.0
C4026 C 0.885 0.67574 0.55411 0.0
C4027 C 0.90506 0.69138 0.55725 0.0
C4028 C 0.91116 0.7116 0.55427 0.0
C4029 C 0.89717 0.71625 0.54819 0.0
H4030 H 0.9159 0.68782 0.56197 0.0
H4031 H 0.77835 0.72675 0.49945 0.0
loop_
_geom_bond_atom_site_label_1
_geom_bond_atom_site_label_2
_geom_bond_distance
_geom_bond_site_symmetry_2
_ccdc_geom_bond_type
P0 O11 1.490 . S
P0 C14 1.812 . S
P0 C20 1.803 . S
P0 C26 1.819 . S
H1 C15 0.941 . S
H2 C16 0.939 . S
H3 C18 0.940 . S
H4 C19 0.940 . S
H5 C21 0.939 . S
H6 C22 0.942 . S
H7 C24 0.940 . S
H8 C25 0.939 . S
H9 C27 0.941 . S
H10 C31 0.939 . S
O11 P0 1.490 . S
H12 C28 0.939 . S
H13 C30 0.940 . S
C14 P0 1.812 . S
C14 C15 1.389 . S
C14 C19 1.391 . S
C15 H1 0.941 . S
C15 C14 1.389 . S
C15 C16 1.397 . S
C16 H2 0.939 . S
C16 C15 1.397 . S
C16 C17 1.378 . S
C17 C16 1.378 . S
C17 C18 1.378 . S
C18 H3 0.940 . S
C18 C17 1.378 . S
C18 C19 1.396 . S
C19 H4 0.940 . S
C19 C14 1.391 . S
C19 C18 1.396 . S
C20 P0 1.803 . S
C20 C21 1.378 . S
C20 C25 1.400 . S
C21 H5 0.939 . S
C21 C20 1.378 . S
C21 C22 1.361 . S
C22 H6 0.942 . S
C22 C21 1.361 . S
C22 C23 1.369 . S
C23 C22 1.369 . S
C23 C24 1.404 . S
C24 H7 0.940 . S
C24 C23 1.404 . S
C24 C25 1.389 . S
C25 H8 0.939 . S
C25 C20 1.400 . S
C25 C24 1.389 . S
C26 P0 1.819 . S
C26 C27 1.391 . S
C26 C31 1.391 . S
C27 H9 0.941 . S
C27 C26 1.391 . S
C27 C28 1.396 . S
C28 H12 0.939 . S
C28 C27 1.396 . S
C28 C29 1.397 . S
C29 C28 1.397 . S
C29 C30 1.385 . S
C30 H13 0.940 . S
C30 C29 1.385 . S
C30 C31 1.388 . S
C31 H10 0.939 . S
C31 C26 1.391 . S
C31 C30 1.388 . S
P32 O43 1.490 . S
P32 C46 1.812 . S
P32 C52 1.803 . S
P32 C58 1.819 . S
H33 C47 0.941 . S
H34 C48 0.939 . S
H35 C50 0.940 . S
H36 C51 0.940 . S
H37 C53 0.939 . S
H38 C54 0.942 . S
H39 C56 0.940 . S
H40 C57 0.939 . S
H41 C59 0.941 . S
H42 C63 0.939 . S
O43 P32 1.490 . S
H44 C60 0.939 . S
H45 C62 0.940 . S
C46 P32 1.812 . S
C46 C47 1.389 . S
C46 C51 1.391 . S
C47 H33 0.941 . S
C47 C46 1.389 . S
C47 C48 1.397 . S
C48 H34 0.939 . S
C48 C47 1.397 . S
C48 C49 1.378 . S
C49 C48 1.378 . S
C49 C50 1.378 . S
C50 H35 0.940 . S
C50 C49 1.378 . S
C50 C51 1.396 . S
C51 H36 0.940 . S
C51 C46 1.391 . S
C51 C50 1.396 . S
C52 P32 1.803 . S
C52 C53 1.378 . S
C52 C57 1.400 . S
C53 H37 0.939 . S
C53 C52 1.378 . S
C53 C54 1.361 . S
C54 H38 0.942 . S
C54 C53 1.361 . S
C54 C55 1.369 . S
C55 C54 1.369 . S
C55 C56 1.404 . S
C56 H39 0.940 . S
C56 C55 1.404 . S
C56 C57 1.389 . S
C57 H40 0.939 . S
C57 C52 1.400 . S
C57 C56 1.389 . S
C58 P32 1.819 . S
C58 C59 1.391 . S
C58 C63 1.391 . S
C59 H41 0.941 . S
C59 C58 1.391 . S
C59 C60 1.396 . S
C60 H44 0.939 . S
C60 C59 1.396 . S
C60 C61 1.397 . S
C61 C60 1.397 . S
C61 C62 1.385 . S
C62 H45 0.940 . S
C62 C61 1.385 . S
C62 C63 1.388 . S
C63 H42 0.939 . S
C63 C58 1.391 . S
C63 C62 1.388 . S
P64 O75 1.490 . S
P64 C78 1.812 . S
P64 C84 1.803 . S
P64 C90 1.819 . S
H65 C79 0.941 . S
H66 C80 0.939 . S
H67 C82 0.940 . S
H68 C83 0.940 . S
H69 C85 0.939 . S
H70 C86 0.942 . S
H71 C88 0.940 . S
H72 C89 0.939 . S
H73 C91 0.941 . S
H74 C95 0.939 . S
O75 P64 1.490 . S
H76 C92 0.939 . S
H77 C94 0.940 . S
C78 P64 1.812 . S
C78 C79 1.389 . S
C78 C83 1.391 . S
C79 H65 0.941 . S
C79 C78 1.389 . S
C79 C80 1.397 . S
C80 H66 0.939 . S
C80 C79 1.397 . S
C80 C81 1.378 . S
C81 C80 1.378 . S
C81 C82 1.378 . S
C82 H67 0.940 . S
C82 C81 1.378 . S
C82 C83 1.396 . S
C83 H68 0.940 . S
C83 C78 1.391 . S
C83 C82 1.396 . S
C84 P64 1.803 . S
C84 C85 1.378 . S
C84 C89 1.400 . S
C85 H69 0.939 . S
C85 C84 1.378 . S
C85 C86 1.361 . S
C86 H70 0.942 . S
C86 C85 1.361 . S
C86 C87 1.369 . S
C87 C86 1.369 . S
C87 C88 1.404 . S
C88 H71 0.940 . S
C88 C87 1.404 . S
C88 C89 1.389 . S
C89 H72 0.939 . S
C89 C84 1.400 . S
C89 C88 1.389 . S
C90 P64 1.819 . S
C90 C91 1.391 . S
C90 C95 1.391 . S
C91 H73 0.941 . S
C91 C90 1.391 . S
C91 C92 1.396 . S
C92 H76 0.939 . S
C92 C91 1.396 . S
C92 C93 1.397 . S
C93 C92 1.397 . S
C93 C94 1.385 . S
C94 H77 0.940 . S
C94 C93 1.385 . S
C94 C95 1.388 . S
C95 H74 0.939 . S
C95 C90 1.391 . S
C95 C94 1.388 . S
P96 O107 1.490 . S
P96 C110 1.812 . S
P96 C116 1.803 . S
P96 C122 1.819 . S
H97 C111 0.941 . S
H98 C112 0.939 . S
H99 C114 0.940 . S
H100 C115 0.940 . S
H101 C117 0.939 . S
H102 C118 0.942 . S
H103 C120 0.940 . S
H104 C121 0.939 . S
H105 C123 0.941 . S
H106 C127 0.939 . S
O107 P96 1.490 . S
H108 C124 0.939 . S
H109 C126 0.940 . S
C110 P96 1.812 . S
C110 C111 1.389 . S
C110 C115 1.391 . S
C111 H97 0.941 . S
C111 C110 1.389 . S
C111 C112 1.397 . S
C112 H98 0.939 . S
C112 C111 1.397 . S
C112 C113 1.378 . S
C113 C112 1.378 . S
C113 C114 1.378 . S
C114 H99 0.940 . S
C114 C113 1.378 . S
C114 C115 1.396 . S
C115 H100 0.940 . S
C115 C110 1.391 . S
C115 C114 1.396 . S
C116 P96 1.803 . S
C116 C117 1.378 . S
C116 C121 1.400 . S
C117 H101 0.939 . S
C117 C116 1.378 . S
C117 C118 1.361 . S
C118 H102 0.942 . S
C118 C117 1.361 . S
C118 C119 1.369 . S
C119 C118 1.369 . S
C119 C120 1.404 . S
C120 H103 0.940 . S
C120 C119 1.404 . S
C120 C121 1.389 . S
C121 H104 0.939 . S
C121 C116 1.400 . S
C121 C120 1.389 . S
C122 P96 1.819 . S
C122 C123 1.391 . S
C122 C127 1.391 . S
C123 H105 0.941 . S
C123 C122 1.391 . S
C123 C124 1.396 . S
C124 H108 0.939 . S
C124 C123 1.396 . S
C124 C125 1.397 . S
C125 C124 1.397 . S
C125 C126 1.385 . S
C126 H109 0.940 . S
C126 C125 1.385 . S
C126 C127 1.388 . S
C127 H106 0.939 . S
C127 C122 1.391 . S
C127 C126 1.388 . S
P128 O139 1.490 . S
P128 C142 1.812 . S
P128 C148 1.803 . S
P128 C154 1.819 . S
H129 C143 0.941 . S
H130 C144 0.939 . S
H131 C146 0.940 . S
H132 C147 0.940 . S
H133 C149 0.939 . S
H134 C150 0.942 . S
H135 C152 0.940 . S
H136 C153 0.939 . S
H137 C155 0.941 . S
H138 C159 0.939 . S
O139 P128 1.490 . S
H140 C156 0.939 . S
H141 C158 0.940 . S
C142 P128 1.812 . S
C142 C143 1.389 . S
C142 C147 1.391 . S
C143 H129 0.941 . S
C143 C142 1.389 . S
C143 C144 1.397 . S
C144 H130 0.939 . S
C144 C143 1.397 . S
C144 C145 1.378 . S
C145 C144 1.378 . S
C145 C146 1.378 . S
C146 H131 0.940 . S
C146 C145 1.378 . S
C146 C147 1.396 . S
C147 H132 0.940 . S
C147 C142 1.391 . S
C147 C146 1.396 . S
C148 P128 1.803 . S
C148 C149 1.378 . S
C148 C153 1.400 . S
C149 H133 0.939 . S
C149 C148 1.378 . S
C149 C150 1.361 . S
C150 H134 0.942 . S
C150 C149 1.361 . S
C150 C151 1.369 . S
C151 C150 1.369 . S
C151 C152 1.404 . S
C152 H135 0.940 . S
C152 C151 1.404 . S
C152 C153 1.389 . S
C153 H136 0.939 . S
C153 C148 1.400 . S
C153 C152 1.389 . S
C154 P128 1.819 . S
C154 C155 1.391 . S
C154 C159 1.391 . S
C155 H137 0.941 . S
C155 C154 1.391 . S
C155 C156 1.396 . S
C156 H140 0.939 . S
C156 C155 1.396 . S
C156 C157 1.397 . S
C157 C156 1.397 . S
C157 C158 1.385 . S
C158 H141 0.940 . S
C158 C157 1.385 . S
C158 C159 1.388 . S
C159 H138 0.939 . S
C159 C154 1.391 . S
C159 C158 1.388 . S
P160 O171 1.490 . S
P160 C174 1.812 . S
P160 C180 1.803 . S
P160 C186 1.819 . S
H161 C175 0.941 . S
H162 C176 0.939 . S
H163 C178 0.940 . S
H164 C179 0.940 . S
H165 C181 0.939 . S
H166 C182 0.942 . S
H167 C184 0.940 . S
H168 C185 0.939 . S
H169 C187 0.941 . S
H170 C191 0.939 . S
O171 P160 1.490 . S
H172 C188 0.939 . S
H173 C190 0.940 . S
C174 P160 1.812 . S
C174 C175 1.389 . S
C174 C179 1.391 . S
C175 H161 0.941 . S
C175 C174 1.389 . S
C175 C176 1.397 . S
C176 H162 0.939 . S
C176 C175 1.397 . S
C176 C177 1.378 . S
C177 C176 1.378 . S
C177 C178 1.378 . S
C178 H163 0.940 . S
C178 C177 1.378 . S
C178 C179 1.396 . S
C179 H164 0.940 . S
C179 C174 1.391 . S
C179 C178 1.396 . S
C180 P160 1.803 . S
C180 C181 1.378 . S
C180 C185 1.400 . S
C181 H165 0.939 . S
C181 C180 1.378 . S
C181 C182 1.361 . S
C182 H166 0.942 . S
C182 C181 1.361 . S
C182 C183 1.369 . S
C183 C182 1.369 . S
C183 C184 1.404 . S
C184 H167 0.940 . S
C184 C183 1.404 . S
C184 C185 1.389 . S
C185 H168 0.939 . S
C185 C180 1.400 . S
C185 C184 1.389 . S
C186 P160 1.819 . S
C186 C187 1.391 . S
C186 C191 1.391 . S
C187 H169 0.941 . S
C187 C186 1.391 . S
C187 C188 1.396 . S
C188 H172 0.939 . S
C188 C187 1.396 . S
C188 C189 1.397 . S
C189 C188 1.397 . S
C189 C190 1.385 . S
C190 H173 0.940 . S
C190 C189 1.385 . S
C190 C191 1.388 . S
C191 H170 0.939 . S
C191 C186 1.391 . S
C191 C190 1.388 . S
P192 O203 1.490 . S
P192 C206 1.812 . S
P192 C212 1.803 . S
P192 C218 1.819 . S
H193 C207 0.941 . S
H194 C208 0.939 . S
H195 C210 0.940 . S
H196 C211 0.940 . S
H197 C213 0.939 . S
H198 C214 0.942 . S
H199 C216 0.940 . S
H200 C217 0.939 . S
H201 C219 0.941 . S
H202 C223 0.939 . S
O203 P192 1.490 . S
H204 C220 0.939 . S
H205 C222 0.940 . S
C206 P192 1.812 . S
C206 C207 1.389 . S
C206 C211 1.391 . S
C207 H193 0.941 . S
C207 C206 1.389 . S
C207 C208 1.397 . S
C208 H194 0.939 . S
C208 C207 1.397 . S
C208 C209 1.378 . S
C209 C208 1.378 . S
C209 C210 1.378 . S
C210 H195 0.940 . S
C210 C209 1.378 . S
C210 C211 1.396 . S
C211 H196 0.940 . S
C211 C206 1.391 . S
C211 C210 1.396 . S
C212 P192 1.803 . S
C212 C213 1.378 . S
C212 C217 1.400 . S
C213 H197 0.939 . S
C213 C212 1.378 . S
C213 C214 1.361 . S
C214 H198 0.942 . S
C214 C213 1.361 . S
C214 C215 1.369 . S
C215 C214 1.369 . S
C215 C216 1.404 . S
C216 H199 0.940 . S
C216 C215 1.404 . S
C216 C217 1.389 . S
C217 H200 0.939 . S
C217 C212 1.400 . S
C217 C216 1.389 . S
C218 P192 1.819 . S
C218 C219 1.391 . S
C218 C223 1.391 . S
C219 H201 0.941 . S
C219 C218 1.391 . S
C219 C220 1.396 . S
C220 H204 0.939 . S
C220 C219 1.396 . S
C220 C221 1.397 . S
C221 C220 1.397 . S
C221 C222 1.385 . S
C222 H205 0.940 . S
C222 C221 1.385 . S
C222 C223 1.388 . S
C223 H202 0.939 . S
C223 C218 1.391 . S
C223 C222 1.388 . S
P224 O235 1.490 . S
P224 C238 1.812 . S
P224 C244 1.803 . S
P224 C250 1.819 . S
H225 C239 0.941 . S
H226 C240 0.939 . S
H227 C242 0.940 . S
H228 C243 0.940 . S
H229 C245 0.939 . S
H230 C246 0.942 . S
H231 C248 0.940 . S
H232 C249 0.939 . S
H233 C251 0.941 . S
H234 C255 0.939 . S
O235 P224 1.490 . S
H236 C252 0.939 . S
H237 C254 0.940 . S
C238 P224 1.812 . S
C238 C239 1.389 . S
C238 C243 1.391 . S
C239 H225 0.941 . S
C239 C238 1.389 . S
C239 C240 1.397 . S
C240 H226 0.939 . S
C240 C239 1.397 . S
C240 C241 1.378 . S
C241 C240 1.378 . S
C241 C242 1.378 . S
C242 H227 0.940 . S
C242 C241 1.378 . S
C242 C243 1.396 . S
C243 H228 0.940 . S
C243 C238 1.391 . S
C243 C242 1.396 . S
C244 P224 1.803 . S
C244 C245 1.378 . S
C244 C249 1.400 . S
C245 H229 0.939 . S
C245 C244 1.378 . S
C245 C246 1.361 . S
C246 H230 0.942 . S
C246 C245 1.361 . S
C246 C247 1.369 . S
C247 C246 1.369 . S
C247 C248 1.404 . S
C248 H231 0.940 . S
C248 C247 1.404 . S
C248 C249 1.389 . S
C249 H232 0.939 . S
C249 C244 1.400 . S
C249 C248 1.389 . S
C250 P224 1.819 . S
C250 C251 1.391 . S
C250 C255 1.391 . S
C251 H233 0.941 . S
C251 C250 1.391 . S
C251 C252 1.396 . S
C252 H236 0.939 . S
C252 C251 1.396 . S
C252 C253 1.397 . S
C253 C252 1.397 . S
C253 C254 1.385 . S
C254 H237 0.940 . S
C254 C253 1.385 . S
C254 C255 1.388 . S
C255 H234 0.939 . S
C255 C250 1.391 . S
C255 C254 1.388 . S
P256 O267 1.490 . S
P256 C270 1.812 . S
P256 C276 1.803 . S
P256 C282 1.819 . S
H257 C271 0.941 . S
H258 C272 0.939 . S
H259 C274 0.940 . S
H260 C275 0.940 . S
H261 C277 0.939 . S
H262 C278 0.942 . S
H263 C280 0.940 . S
H264 C281 0.939 . S
H265 C283 0.941 . S
H266 C287 0.939 . S
O267 P256 1.490 . S
H268 C284 0.939 . S
H269 C286 0.940 . S
C270 P256 1.812 . S
C270 C271 1.389 . S
C270 C275 1.391 . S
C271 H257 0.941 . S
C271 C270 1.389 . S
C271 C272 1.397 . S
C272 H258 0.939 . S
C272 C271 1.397 . S
C272 C273 1.378 . S
C273 C272 1.378 . S
C273 C274 1.378 . S
C274 H259 0.940 . S
C274 C273 1.378 . S
C274 C275 1.396 . S
C275 H260 0.940 . S
C275 C270 1.391 . S
C275 C274 1.396 . S
C276 P256 1.803 . S
C276 C277 1.378 . S
C276 C281 1.400 . S
C277 H261 0.939 . S
C277 C276 1.378 . S
C277 C278 1.361 . S
C278 H262 0.942 . S
C278 C277 1.361 . S
C278 C279 1.369 . S
C279 C278 1.369 . S
C279 C280 1.404 . S
C280 H263 0.940 . S
C280 C279 1.404 . S
C280 C281 1.389 . S
C281 H264 0.939 . S
C281 C276 1.400 . S
C281 C280 1.389 . S
C282 P256 1.819 . S
C282 C283 1.391 . S
C282 C287 1.391 . S
C283 H265 0.941 . S
C283 C282 1.391 . S
C283 C284 1.396 . S
C284 H268 0.939 . S
C284 C283 1.396 . S
C284 C285 1.397 . S
C285 C284 1.397 . S
C285 C286 1.385 . S
C286 H269 0.940 . S
C286 C285 1.385 . S
C286 C287 1.388 . S
C287 H266 0.939 . S
C287 C282 1.391 . S
C287 C286 1.388 . S
P288 O299 1.490 . S
P288 C302 1.812 . S
P288 C308 1.803 . S
P288 C314 1.819 . S
H289 C303 0.941 . S
H290 C304 0.939 . S
H291 C306 0.940 . S
H292 C307 0.940 . S
H293 C309 0.939 . S
H294 C310 0.942 . S
H295 C312 0.940 . S
H296 C313 0.939 . S
H297 C315 0.941 . S
H298 C319 0.939 . S
O299 P288 1.490 . S
H300 C316 0.939 . S
H301 C318 0.940 . S
C302 P288 1.812 . S
C302 C303 1.389 . S
C302 C307 1.391 . S
C303 H289 0.941 . S
C303 C302 1.389 . S
C303 C304 1.397 . S
C304 H290 0.939 . S
C304 C303 1.397 . S
C304 C305 1.378 . S
C305 C304 1.378 . S
C305 C306 1.378 . S
C306 H291 0.940 . S
C306 C305 1.378 . S
C306 C307 1.396 . S
C307 H292 0.940 . S
C307 C302 1.391 . S
C307 C306 1.396 . S
C308 P288 1.803 . S
C308 C309 1.378 . S
C308 C313 1.400 . S
C309 H293 0.939 . S
C309 C308 1.378 . S
C309 C310 1.361 . S
C310 H294 0.942 . S
C310 C309 1.361 . S
C310 C311 1.369 . S
C311 C310 1.369 . S
C311 C312 1.404 . S
C312 H295 0.940 . S
C312 C311 1.404 . S
C312 C313 1.389 . S
C313 H296 0.939 . S
C313 C308 1.400 . S
C313 C312 1.389 . S
C314 P288 1.819 . S
C314 C315 1.391 . S
C314 C319 1.391 . S
C315 H297 0.941 . S
C315 C314 1.391 . S
C315 C316 1.396 . S
C316 H300 0.939 . S
C316 C315 1.396 . S
C316 C317 1.397 . S
C317 C316 1.397 . S
C317 C318 1.385 . S
C318 H301 0.940 . S
C318 C317 1.385 . S
C318 C319 1.388 . S
C319 H298 0.939 . S
C319 C314 1.391 . S
C319 C318 1.388 . S
P320 O331 1.490 . S
P320 C334 1.812 . S
P320 C340 1.803 . S
P320 C346 1.819 . S
H321 C335 0.941 . S
H322 C336 0.939 . S
H323 C338 0.940 . S
H324 C339 0.940 . S
H325 C341 0.939 . S
H326 C342 0.942 . S
H327 C344 0.940 . S
H328 C345 0.939 . S
H329 C347 0.941 . S
H330 C351 0.939 . S
O331 P320 1.490 . S
H332 C348 0.939 . S
H333 C350 0.940 . S
C334 P320 1.812 . S
C334 C335 1.389 . S
C334 C339 1.391 . S
C335 H321 0.941 . S
C335 C334 1.389 . S
C335 C336 1.397 . S
C336 H322 0.939 . S
C336 C335 1.397 . S
C336 C337 1.378 . S
C337 C336 1.378 . S
C337 C338 1.378 . S
C338 H323 0.940 . S
C338 C337 1.378 . S
C338 C339 1.396 . S
C339 H324 0.940 . S
C339 C334 1.391 . S
C339 C338 1.396 . S
C340 P320 1.803 . S
C340 C341 1.378 . S
C340 C345 1.400 . S
C341 H325 0.939 . S
C341 C340 1.378 . S
C341 C342 1.361 . S
C342 H326 0.942 . S
C342 C341 1.361 . S
C342 C343 1.369 . S
C343 C342 1.369 . S
C343 C344 1.404 . S
C344 H327 0.940 . S
C344 C343 1.404 . S
C344 C345 1.389 . S
C345 H328 0.939 . S
C345 C340 1.400 . S
C345 C344 1.389 . S
C346 P320 1.819 . S
C346 C347 1.391 . S
C346 C351 1.391 . S
C347 H329 0.941 . S
C347 C346 1.391 . S
C347 C348 1.396 . S
C348 H332 0.939 . S
C348 C347 1.396 . S
C348 C349 1.397 . S
C349 C348 1.397 . S
C349 C350 1.385 . S
C350 H333 0.940 . S
C350 C349 1.385 . S
C350 C351 1.388 . S
C351 H330 0.939 . S
C351 C346 1.391 . S
C351 C350 1.388 . S
P352 O363 1.490 . S
P352 C366 1.812 . S
P352 C372 1.803 . S
P352 C378 1.819 . S
H353 C367 0.941 . S
H354 C368 0.939 . S
H355 C370 0.940 . S
H356 C371 0.940 . S
H357 C373 0.939 . S
H358 C374 0.942 . S
H359 C376 0.940 . S
H360 C377 0.939 . S
H361 C379 0.941 . S
H362 C383 0.939 . S
O363 P352 1.490 . S
H364 C380 0.939 . S
H365 C382 0.940 . S
C366 P352 1.812 . S
C366 C367 1.389 . S
C366 C371 1.391 . S
C367 H353 0.941 . S
C367 C366 1.389 . S
C367 C368 1.397 . S
C368 H354 0.939 . S
C368 C367 1.397 . S
C368 C369 1.378 . S
C369 C368 1.378 . S
C369 C370 1.378 . S
C370 H355 0.940 . S
C370 C369 1.378 . S
C370 C371 1.396 . S
C371 H356 0.940 . S
C371 C366 1.391 . S
C371 C370 1.396 . S
C372 P352 1.803 . S
C372 C373 1.378 . S
C372 C377 1.400 . S
C373 H357 0.939 . S
C373 C372 1.378 . S
C373 C374 1.361 . S
C374 H358 0.942 . S
C374 C373 1.361 . S
C374 C375 1.369 . S
C375 C374 1.369 . S
C375 C376 1.404 . S
C376 H359 0.940 . S
C376 C375 1.404 . S
C376 C377 1.389 . S
C377 H360 0.939 . S
C377 C372 1.400 . S
C377 C376 1.389 . S
C378 P352 1.819 . S
C378 C379 1.391 . S
C378 C383 1.391 . S
C379 H361 0.941 . S
C379 C378 1.391 . S
C379 C380 1.396 . S
C380 H364 0.939 . S
C380 C379 1.396 . S
C380 C381 1.397 . S
C381 C380 1.397 . S
C381 C382 1.385 . S
C382 H365 0.940 . S
C382 C381 1.385 . S
C382 C383 1.388 . S
C383 H362 0.939 . S
C383 C378 1.391 . S
C383 C382 1.388 . S
P384 O395 1.490 . S
P384 C398 1.812 . S
P384 C404 1.803 . S
P384 C410 1.819 . S
H385 C399 0.941 . S
H386 C400 0.939 . S
H387 C402 0.940 . S
H388 C403 0.940 . S
H389 C405 0.939 . S
H390 C406 0.942 . S
H391 C408 0.940 . S
H392 C409 0.939 . S
H393 C411 0.941 . S
H394 C415 0.939 . S
O395 P384 1.490 . S
H396 C412 0.939 . S
H397 C414 0.940 . S
C398 P384 1.812 . S
C398 C399 1.389 . S
C398 C403 1.391 . S
C399 H385 0.941 . S
C399 C398 1.389 . S
C399 C400 1.397 . S
C400 H386 0.939 . S
C400 C399 1.397 . S
C400 C401 1.378 . S
C401 C400 1.378 . S
C401 C402 1.378 . S
C402 H387 0.940 . S
C402 C401 1.378 . S
C402 C403 1.396 . S
C403 H388 0.940 . S
C403 C398 1.391 . S
C403 C402 1.396 . S
C404 P384 1.803 . S
C404 C405 1.378 . S
C404 C409 1.400 . S
C405 H389 0.939 . S
C405 C404 1.378 . S
C405 C406 1.361 . S
C406 H390 0.942 . S
C406 C405 1.361 . S
C406 C407 1.369 . S
C407 C406 1.369 . S
C407 C408 1.404 . S
C408 H391 0.940 . S
C408 C407 1.404 . S
C408 C409 1.389 . S
C409 H392 0.939 . S
C409 C404 1.400 . S
C409 C408 1.389 . S
C410 P384 1.819 . S
C410 C411 1.391 . S
C410 C415 1.391 . S
C411 H393 0.941 . S
C411 C410 1.391 . S
C411 C412 1.396 . S
C412 H396 0.939 . S
C412 C411 1.396 . S
C412 C413 1.397 . S
C413 C412 1.397 . S
C413 C414 1.385 . S
C414 H397 0.940 . S
C414 C413 1.385 . S
C414 C415 1.388 . S
C415 H394 0.939 . S
C415 C410 1.391 . S
C415 C414 1.388 . S
P416 O427 1.490 . S
P416 C430 1.812 . S
P416 C436 1.803 . S
P416 C442 1.819 . S
H417 C431 0.941 . S
H418 C432 0.939 . S
H419 C434 0.940 . S
H420 C435 0.940 . S
H421 C437 0.939 . S
H422 C438 0.942 . S
H423 C440 0.940 . S
H424 C441 0.939 . S
H425 C443 0.941 . S
H426 C447 0.939 . S
O427 P416 1.490 . S
H428 C444 0.939 . S
H429 C446 0.940 . S
C430 P416 1.812 . S
C430 C431 1.389 . S
C430 C435 1.391 . S
C431 H417 0.941 . S
C431 C430 1.389 . S
C431 C432 1.397 . S
C432 H418 0.939 . S
C432 C431 1.397 . S
C432 C433 1.378 . S
C433 C432 1.378 . S
C433 C434 1.378 . S
C434 H419 0.940 . S
C434 C433 1.378 . S
C434 C435 1.396 . S
C435 H420 0.940 . S
C435 C430 1.391 . S
C435 C434 1.396 . S
C436 P416 1.803 . S
C436 C437 1.378 . S
C436 C441 1.400 . S
C437 H421 0.939 . S
C437 C436 1.378 . S
C437 C438 1.361 . S
C438 H422 0.942 . S
C438 C437 1.361 . S
C438 C439 1.369 . S
C439 C438 1.369 . S
C439 C440 1.404 . S
C440 H423 0.940 . S
C440 C439 1.404 . S
C440 C441 1.389 . S
C441 H424 0.939 . S
C441 C436 1.400 . S
C441 C440 1.389 . S
C442 P416 1.819 . S
C442 C443 1.391 . S
C442 C447 1.391 . S
C443 H425 0.941 . S
C443 C442 1.391 . S
C443 C444 1.396 . S
C444 H428 0.939 . S
C444 C443 1.396 . S
C444 C445 1.397 . S
C445 C444 1.397 . S
C445 C446 1.385 . S
C446 H429 0.940 . S
C446 C445 1.385 . S
C446 C447 1.388 . S
C447 H426 0.939 . S
C447 C442 1.391 . S
C447 C446 1.388 . S
P448 O459 1.490 . S
P448 C462 1.812 . S
P448 C468 1.803 . S
P448 C474 1.819 . S
H449 C463 0.941 . S
H450 C464 0.939 . S
H451 C466 0.940 . S
H452 C467 0.940 . S
H453 C469 0.939 . S
H454 C470 0.942 . S
H455 C472 0.940 . S
H456 C473 0.939 . S
H457 C475 0.941 . S
H458 C479 0.939 . S
O459 P448 1.490 . S
H460 C476 0.939 . S
H461 C478 0.940 . S
C462 P448 1.812 . S
C462 C463 1.389 . S
C462 C467 1.391 . S
C463 H449 0.941 . S
C463 C462 1.389 . S
C463 C464 1.397 . S
C464 H450 0.939 . S
C464 C463 1.397 . S
C464 C465 1.378 . S
C465 C464 1.378 . S
C465 C466 1.378 . S
C466 H451 0.940 . S
C466 C465 1.378 . S
C466 C467 1.396 . S
C467 H452 0.940 . S
C467 C462 1.391 . S
C467 C466 1.396 . S
C468 P448 1.803 . S
C468 C469 1.378 . S
C468 C473 1.400 . S
C469 H453 0.939 . S
C469 C468 1.378 . S
C469 C470 1.361 . S
C470 H454 0.942 . S
C470 C469 1.361 . S
C470 C471 1.369 . S
C471 C470 1.369 . S
C471 C472 1.404 . S
C472 H455 0.940 . S
C472 C471 1.404 . S
C472 C473 1.389 . S
C473 H456 0.939 . S
C473 C468 1.400 . S
C473 C472 1.389 . S
C474 P448 1.819 . S
C474 C475 1.391 . S
C474 C479 1.391 . S
C475 H457 0.941 . S
C475 C474 1.391 . S
C475 C476 1.396 . S
C476 H460 0.939 . S
C476 C475 1.396 . S
C476 C477 1.397 . S
C477 C476 1.397 . S
C477 C478 1.385 . S
C478 H461 0.940 . S
C478 C477 1.385 . S
C478 C479 1.388 . S
C479 H458 0.939 . S
C479 C474 1.391 . S
C479 C478 1.388 . S
P480 O491 1.490 . S
P480 C494 1.812 . S
P480 C500 1.803 . S
P480 C506 1.819 . S
H481 C495 0.941 . S
H482 C496 0.939 . S
H483 C498 0.940 . S
H484 C499 0.940 . S
H485 C501 0.939 . S
H486 C502 0.942 . S
H487 C504 0.940 . S
H488 C505 0.939 . S
H489 C507 0.941 . S
H490 C511 0.939 . S
O491 P480 1.490 . S
H492 C508 0.939 . S
H493 C510 0.940 . S
C494 P480 1.812 . S
C494 C495 1.389 . S
C494 C499 1.391 . S
C495 H481 0.941 . S
C495 C494 1.389 . S
C495 C496 1.397 . S
C496 H482 0.939 . S
C496 C495 1.397 . S
C496 C497 1.378 . S
C497 C496 1.378 . S
C497 C498 1.378 . S
C498 H483 0.940 . S
C498 C497 1.378 . S
C498 C499 1.396 . S
C499 H484 0.940 . S
C499 C494 1.391 . S
C499 C498 1.396 . S
C500 P480 1.803 . S
C500 C501 1.378 . S
C500 C505 1.400 . S
C501 H485 0.939 . S
C501 C500 1.378 . S
C501 C502 1.361 . S
C502 H486 0.942 . S
C502 C501 1.361 . S
C502 C503 1.369 . S
C503 C502 1.369 . S
C503 C504 1.404 . S
C504 H487 0.940 . S
C504 C503 1.404 . S
C504 C505 1.389 . S
C505 H488 0.939 . S
C505 C500 1.400 . S
C505 C504 1.389 . S
C506 P480 1.819 . S
C506 C507 1.391 . S
C506 C511 1.391 . S
C507 H489 0.941 . S
C507 C506 1.391 . S
C507 C508 1.396 . S
C508 H492 0.939 . S
C508 C507 1.396 . S
C508 C509 1.397 . S
C509 C508 1.397 . S
C509 C510 1.385 . S
C510 H493 0.940 . S
C510 C509 1.385 . S
C510 C511 1.388 . S
C511 H490 0.939 . S
C511 C506 1.391 . S
C511 C510 1.388 . S
P512 O523 1.490 . S
P512 C526 1.812 . S
P512 C532 1.803 . S
P512 C538 1.819 . S
H513 C527 0.941 . S
H514 C528 0.939 . S
H515 C530 0.940 . S
H516 C531 0.940 . S
H517 C533 0.939 . S
H518 C534 0.942 . S
H519 C536 0.940 . S
H520 C537 0.939 . S
H521 C539 0.941 . S
H522 C543 0.939 . S
O523 P512 1.490 . S
H524 C540 0.939 . S
H525 C542 0.940 . S
C526 P512 1.812 . S
C526 C527 1.389 . S
C526 C531 1.391 . S
C527 H513 0.941 . S
C527 C526 1.389 . S
C527 C528 1.397 . S
C528 H514 0.939 . S
C528 C527 1.397 . S
C528 C529 1.378 . S
C529 C528 1.378 . S
C529 C530 1.378 . S
C530 H515 0.940 . S
C530 C529 1.378 . S
C530 C531 1.396 . S
C531 H516 0.940 . S
C531 C526 1.391 . S
C531 C530 1.396 . S
C532 P512 1.803 . S
C532 C533 1.378 . S
C532 C537 1.400 . S
C533 H517 0.939 . S
C533 C532 1.378 . S
C533 C534 1.361 . S
C534 H518 0.942 . S
C534 C533 1.361 . S
C534 C535 1.369 . S
C535 C534 1.369 . S
C535 C536 1.404 . S
C536 H519 0.940 . S
C536 C535 1.404 . S
C536 C537 1.389 . S
C537 H520 0.939 . S
C537 C532 1.400 . S
C537 C536 1.389 . S
C538 P512 1.819 . S
C538 C539 1.391 . S
C538 C543 1.391 . S
C539 H521 0.941 . S
C539 C538 1.391 . S
C539 C540 1.396 . S
C540 H524 0.939 . S
C540 C539 1.396 . S
C540 C541 1.397 . S
C541 C540 1.397 . S
C541 C542 1.385 . S
C542 H525 0.940 . S
C542 C541 1.385 . S
C542 C543 1.388 . S
C543 H522 0.939 . S
C543 C538 1.391 . S
C543 C542 1.388 . S
P544 O555 1.490 . S
P544 C558 1.812 . S
P544 C564 1.803 . S
P544 C570 1.819 . S
H545 C559 0.941 . S
H546 C560 0.939 . S
H547 C562 0.940 . S
H548 C563 0.940 . S
H549 C565 0.939 . S
H550 C566 0.942 . S
H551 C568 0.940 . S
H552 C569 0.939 . S
H553 C571 0.941 . S
H554 C575 0.939 . S
O555 P544 1.490 . S
H556 C572 0.939 . S
H557 C574 0.940 . S
C558 P544 1.812 . S
C558 C559 1.389 . S
C558 C563 1.391 . S
C559 H545 0.941 . S
C559 C558 1.389 . S
C559 C560 1.397 . S
C560 H546 0.939 . S
C560 C559 1.397 . S
C560 C561 1.378 . S
C561 C560 1.378 . S
C561 C562 1.378 . S
C562 H547 0.940 . S
C562 C561 1.378 . S
C562 C563 1.396 . S
C563 H548 0.940 . S
C563 C558 1.391 . S
C563 C562 1.396 . S
C564 P544 1.803 . S
C564 C565 1.378 . S
C564 C569 1.400 . S
C565 H549 0.939 . S
C565 C564 1.378 . S
C565 C566 1.361 . S
C566 H550 0.942 . S
C566 C565 1.361 . S
C566 C567 1.369 . S
C567 C566 1.369 . S
C567 C568 1.404 . S
C568 H551 0.940 . S
C568 C567 1.404 . S
C568 C569 1.389 . S
C569 H552 0.939 . S
C569 C564 1.400 . S
C569 C568 1.389 . S
C570 P544 1.819 . S
C570 C571 1.391 . S
C570 C575 1.391 . S
C571 H553 0.941 . S
C571 C570 1.391 . S
C571 C572 1.396 . S
C572 H556 0.939 . S
C572 C571 1.396 . S
C572 C573 1.397 . S
C573 C572 1.397 . S
C573 C574 1.385 . S
C574 H557 0.940 . S
C574 C573 1.385 . S
C574 C575 1.388 . S
C575 H554 0.939 . S
C575 C570 1.391 . S
C575 C574 1.388 . S
Eu576 N607 2.657 . S
Eu576 N614 2.609 . S
Eu576 O620 2.558 . S
Eu576 O621 2.582 1_566 S
Eu576 O623 2.339 1_565 S
Eu576 O624 2.563 1_565 S
Eu576 O625 2.419 . S
Eu576 O627 2.380 1_556 S
Eu576 O628 2.479 . S
Eu576 C640 2.848 . S
C577 C580 1.429 . S
C577 C581 1.411 . S
C577 N584 1.377 . S
C578 C580 1.420 . S
C578 C582 1.423 . S
C578 C590 1.392 . S
C579 C581 1.420 . S
C579 C582 1.351 . S
C579 H602 0.931 . S
C580 C577 1.429 . S
C580 C578 1.420 . S
C580 N588 1.362 . S
C581 C577 1.411 . S
C581 C579 1.420 . S
C581 C586 1.395 . S
C582 C578 1.423 . S
C582 C579 1.351 . S
C582 H594 0.930 . S
C583 C585 1.400 . S
C583 C586 1.386 . S
C583 H595 0.930 . S
N584 C577 1.377 . S
N584 C585 1.321 . S
N584 Eu587 2.609 . S
C585 C583 1.400 . S
C585 N584 1.321 . S
C585 H592 0.930 . S
C586 C581 1.395 . S
C586 C583 1.386 . S
C586 H605 0.930 . S
Eu587 N584 2.609 . S
Eu587 N588 2.657 . S
Eu587 O621 2.431 . S
Eu587 O622 2.432 . S
Eu587 O626 2.558 . S
Eu587 O627 2.612 1_545 S
Eu587 O629 2.339 1_545 S
Eu587 O630 2.563 1_545 S
Eu587 O631 2.419 . S
Eu587 C651 2.848 . S
N588 C580 1.362 . S
N588 Eu587 2.657 . S
N588 C589 1.334 . S
C589 N588 1.334 . S
C589 C591 1.413 . S
C589 H596 0.929 . S
C590 C578 1.392 . S
C590 C591 1.367 . S
C590 H598 0.930 . S
C591 C589 1.413 . S
C591 C590 1.367 . S
C591 H593 0.930 . S
H592 C585 0.930 . S
H593 C591 0.930 . S
H594 C582 0.930 . S
H595 C583 0.930 . S
H596 C589 0.929 . S
H597 C611 0.930 . S
H598 C590 0.930 . S
H599 C617 0.930 . S
H600 C608 0.929 . S
H601 C615 0.930 . S
H602 C579 0.931 . S
H603 C609 0.930 . S
H604 C642 0.930 . S
H605 C586 0.930 . S
H606 C641 0.931 . S
N607 Eu576 2.657 . S
N607 C608 1.334 . S
N607 C612 1.362 . S
C608 H600 0.929 . S
C608 N607 1.334 . S
C608 C611 1.413 . S
C609 H603 0.930 . S
C609 C610 1.392 . S
C609 C611 1.367 . S
C610 C609 1.392 . S
C610 C612 1.420 . S
C610 C642 1.423 . S
C611 H597 0.930 . S
C611 C608 1.413 . S
C611 C609 1.367 . S
C612 N607 1.362 . S
C612 C610 1.420 . S
C612 C616 1.429 . S
H613 C618 0.930 . S
N614 Eu576 2.609 . S
N614 C616 1.377 . S
N614 C617 1.321 . S
C615 H601 0.930 . S
C615 C617 1.400 . S
C615 C618 1.386 . S
C616 C612 1.429 . S
C616 N614 1.377 . S
C616 C619 1.411 . S
C617 H599 0.930 . S
C617 N614 1.321 . S
C617 C615 1.400 . S
C618 H613 0.930 . S
C618 C615 1.386 . S
C618 C619 1.395 . S
C619 C616 1.411 . S
C619 C618 1.395 . S
C619 C641 1.420 . S
O620 Eu576 2.558 . S
O620 C640 1.257 . S
O621 Eu576 2.582 1_544 S
O621 Eu587 2.431 . S
O621 C632 1.236 1_554 S
O622 Eu587 2.432 . S
O622 C639 1.264 1_554 S
O623 Eu576 2.339 1_545 S
O623 C639 1.254 . S
O624 Eu576 2.563 1_545 S
O624 C632 1.235 . S
O625 Eu576 2.419 . S
O625 C640 1.249 . S
O626 Eu587 2.558 . S
O626 C651 1.257 . S
O627 Eu576 2.380 1_554 S
O627 Eu587 2.612 1_565 S
O627 C643 1.276 . S
O628 Eu576 2.479 . S
O628 C650 1.182 1_556 S
O629 Eu587 2.339 1_565 S
O629 C650 1.254 . S
O630 Eu587 2.563 1_565 S
O630 C643 1.235 . S
O631 Eu587 2.419 . S
O631 C651 1.249 . S
C632 O621 1.236 1_556 S
C632 O624 1.235 . S
C633 C635 1.393 1_565 S
C633 C637 1.395 . S
C633 C640 1.492 . S
C634 C635 1.392 . S
C634 C636 1.386 1_545 S
C635 C633 1.393 1_545 S
C635 C634 1.392 . S
C635 H652 0.930 . S
C636 C634 1.386 1_565 S
C636 C638 1.395 . S
C636 H653 0.932 . S
C637 C633 1.395 . S
C637 C638 1.379 . S
C637 H654 0.930 . S
C638 C636 1.395 . S
C638 C637 1.379 . S
C638 H655 0.930 . S
C639 O622 1.264 1_556 S
C639 O623 1.254 . S
C640 Eu576 2.848 . S
C640 O620 1.257 . S
C640 O625 1.249 . S
C640 C633 1.492 . S
C641 H606 0.931 . S
C641 C619 1.420 . S
C641 C642 1.351 . S
C642 H604 0.930 . S
C642 C610 1.423 . S
C642 C641 1.351 . S
C643 O627 1.276 . S
C643 O630 1.235 . S
C644 C645 1.393 1_545 S
C644 C648 1.395 . S
C644 C651 1.492 . S
C645 C644 1.393 1_565 S
C645 C646 1.392 . S
C645 H656 0.930 . S
C646 C645 1.392 . S
C646 C647 1.386 1_565 S
C647 C646 1.386 1_545 S
C647 C649 1.395 . S
C647 H657 0.930 . S
C648 C644 1.395 . S
C648 C649 1.379 . S
C648 H658 0.930 . S
C649 C647 1.395 . S
C649 C648 1.379 . S
C649 H659 0.930 . S
C650 O628 1.182 1_554 S
C650 O629 1.254 . S
C651 Eu587 2.848 . S
C651 O626 1.257 . S
C651 O631 1.249 . S
C651 C644 1.492 . S
H652 C635 0.930 . S
H653 C636 0.932 . S
H654 C637 0.930 . S
H655 C638 0.930 . S
H656 C645 0.930 . S
H657 C647 0.930 . S
H658 C648 0.930 . S
H659 C649 0.930 . S
Eu660 N691 2.657 . S
Eu660 N698 2.609 . S
Eu660 O704 2.558 . S
Eu660 O705 2.581 1_456 S
Eu660 O707 2.339 1_455 S
Eu660 O708 2.563 1_455 S
Eu660 O709 2.419 . S
Eu660 O711 2.380 1_556 S
Eu660 O712 2.418 1_556 S
Eu660 C724 2.848 . S
C661 C664 1.429 . S
C661 C665 1.411 . S
C661 N668 1.377 . S
C662 C664 1.420 . S
C662 C666 1.423 . S
C662 C674 1.392 . S
C663 C665 1.420 . S
C663 C666 1.351 . S
C663 H686 0.931 . S
C664 C661 1.429 . S
C664 C662 1.420 . S
C664 N672 1.362 . S
C665 C661 1.411 . S
C665 C663 1.420 . S
C665 C670 1.395 . S
C666 C662 1.423 . S
C666 C663 1.351 . S
C666 H678 0.930 . S
C667 C669 1.400 . S
C667 C670 1.386 . S
C667 H679 0.930 . S
N668 C661 1.377 . S
N668 C669 1.321 . S
N668 Eu671 2.609 . S
C669 C667 1.400 . S
C669 N668 1.321 . S
C669 H676 0.930 . S
C670 C665 1.395 . S
C670 C667 1.386 . S
C670 H689 0.930 . S
Eu671 N668 2.609 . S
Eu671 N672 2.657 . S
Eu671 O705 2.433 . S
Eu671 O706 2.432 . S
Eu671 O710 2.558 . S
Eu671 O711 2.612 1_655 S
Eu671 O713 2.339 1_655 S
Eu671 O714 2.563 1_655 S
Eu671 O715 2.419 . S
Eu671 C735 2.848 . S
N672 C664 1.362 . S
N672 Eu671 2.657 . S
N672 C673 1.334 . S
C673 N672 1.334 . S
C673 C675 1.413 . S
C673 H680 0.929 . S
C674 C662 1.392 . S
C674 C675 1.367 . S
C674 H682 0.930 . S
C675 C673 1.413 . S
C675 C674 1.367 . S
C675 H677 0.930 . S
H676 C669 0.930 . S
H677 C675 0.930 . S
H678 C666 0.930 . S
H679 C667 0.930 . S
H680 C673 0.929 . S
H681 C695 0.930 . S
H682 C674 0.930 . S
H683 C701 0.930 . S
H684 C692 0.929 . S
H685 C699 0.930 . S
H686 C663 0.931 . S
H687 C693 0.930 . S
H688 C726 0.930 . S
H689 C670 0.930 . S
H690 C725 0.931 . S
N691 Eu660 2.657 . S
N691 C692 1.334 . S
N691 C696 1.362 . S
C692 H684 0.929 . S
C692 N691 1.334 . S
C692 C695 1.413 . S
C693 H687 0.930 . S
C693 C694 1.392 . S
C693 C695 1.367 . S
C694 C693 1.392 . S
C694 C696 1.420 . S
C694 C726 1.423 . S
C695 H681 0.930 . S
C695 C692 1.413 . S
C695 C693 1.367 . S
C696 N691 1.362 . S
C696 C694 1.420 . S
C696 C700 1.429 . S
H697 C702 0.930 . S
N698 Eu660 2.609 . S
N698 C700 1.377 . S
N698 C701 1.321 . S
C699 H685 0.930 . S
C699 C701 1.400 . S
C699 C702 1.386 . S
C700 C696 1.429 . S
C700 N698 1.377 . S
C700 C703 1.411 . S
C701 H683 0.930 . S
C701 N698 1.321 . S
C701 C699 1.400 . S
C702 H697 0.930 . S
C702 C699 1.386 . S
C702 C703 1.395 . S
C703 C700 1.411 . S
C703 C702 1.395 . S
C703 C725 1.420 . S
O704 Eu660 2.558 . S
O704 C724 1.257 . S
O705 Eu660 2.581 1_654 S
O705 Eu671 2.433 . S
O705 C716 1.234 1_554 S
O706 Eu671 2.432 . S
O706 C723 1.264 1_554 S
O707 Eu660 2.339 1_655 S
O707 C723 1.254 . S
O708 Eu660 2.563 1_655 S
O708 C716 1.235 . S
O709 Eu660 2.419 . S
O709 C724 1.249 . S
O710 Eu671 2.558 . S
O710 C735 1.257 . S
O711 Eu660 2.380 1_554 S
O711 Eu671 2.612 1_455 S
O711 C727 1.276 . S
O712 Eu660 2.418 1_554 S
O712 C734 1.290 . S
O713 Eu671 2.339 1_455 S
O713 C734 1.254 . S
O714 Eu671 2.563 1_455 S
O714 C727 1.235 . S
O715 Eu671 2.419 . S
O715 C735 1.249 . S
C716 O705 1.234 1_556 S
C716 O708 1.235 . S
C717 C719 1.393 1_455 S
C717 C721 1.395 . S
C717 C724 1.492 . S
C718 C719 1.392 . S
C718 C720 1.386 1_655 S
C719 C717 1.393 1_655 S
C719 C718 1.392 . S
C719 H736 0.930 . S
C720 C718 1.386 1_455 S
C720 C722 1.395 . S
C720 H737 0.930 . S
C721 C717 1.395 . S
C721 C722 1.379 . S
C721 H738 0.930 . S
C722 C720 1.395 . S
C722 C721 1.379 . S
C722 H739 0.930 . S
C723 O706 1.264 1_556 S
C723 O707 1.254 . S
C724 Eu660 2.848 . S
C724 O704 1.257 . S
C724 O709 1.249 . S
C724 C717 1.492 . S
C725 H690 0.931 . S
C725 C703 1.420 . S
C725 C726 1.351 . S
C726 H688 0.930 . S
C726 C694 1.423 . S
C726 C725 1.351 . S
C727 O711 1.276 . S
C727 O714 1.235 . S
C728 C729 1.393 1_655 S
C728 C732 1.395 . S
C728 C735 1.492 . S
C729 C728 1.393 1_455 S
C729 C730 1.392 . S
C729 H740 0.930 . S
C730 C729 1.392 . S
C730 C731 1.386 1_455 S
C731 C730 1.386 1_655 S
C731 C733 1.395 . S
C731 H741 0.930 . S
C732 C728 1.395 . S
C732 C733 1.379 . S
C732 H742 0.930 . S
C733 C731 1.395 . S
C733 C732 1.379 . S
C733 H743 0.930 . S
C734 O712 1.290 . S
C734 O713 1.254 . S
C735 Eu671 2.848 . S
C735 O710 1.257 . S
C735 O715 1.249 . S
C735 C728 1.492 . S
H736 C719 0.930 . S
H737 C720 0.930 . S
H738 C721 0.930 . S
H739 C722 0.930 . S
H740 C729 0.930 . S
H741 C731 0.930 . S
H742 C732 0.930 . S
H743 C733 0.930 . S
Eu744 N775 2.657 . S
Eu744 N782 2.609 . S
Eu744 O788 2.558 . S
Eu744 O789 2.612 . S
Eu744 O791 2.339 . S
Eu744 O792 2.563 . S
Eu744 O793 2.419 . S
Eu744 O795 2.386 1_554 S
Eu744 O796 2.432 . S
Eu744 C808 2.848 . S
C745 C748 1.429 . S
C745 C749 1.411 . S
C745 N752 1.377 . S
C746 C748 1.420 . S
C746 C750 1.423 . S
C746 C758 1.392 . S
C747 C749 1.420 . S
C747 C750 1.351 . S
C747 H770 0.931 . S
C748 C745 1.429 . S
C748 C746 1.420 . S
C748 N756 1.362 . S
C749 C745 1.411 . S
C749 C747 1.420 . S
C749 C754 1.395 . S
C750 C746 1.423 . S
C750 C747 1.351 . S
C750 H762 0.930 . S
C751 C753 1.400 . S
C751 C754 1.386 . S
C751 H763 0.930 . S
N752 C745 1.377 . S
N752 C753 1.321 . S
N752 Eu755 2.609 . S
C753 C751 1.400 . S
C753 N752 1.321 . S
C753 H760 0.930 . S
C754 C749 1.395 . S
C754 C751 1.386 . S
C754 H773 0.930 . S
Eu755 N752 2.609 . S
Eu755 N756 2.657 . S
Eu755 O789 2.380 1_556 S
Eu755 O790 2.478 . S
Eu755 O794 2.558 . S
Eu755 O795 2.609 . S
Eu755 O797 2.339 . S
Eu755 O798 2.563 . S
Eu755 O799 2.419 . S
Eu755 C819 2.848 . S
N756 C748 1.362 . S
N756 Eu755 2.657 . S
N756 C757 1.334 . S
C757 N756 1.334 . S
C757 C759 1.413 . S
C757 H764 0.929 . S
C758 C746 1.392 . S
C758 C759 1.367 . S
C758 H766 0.930 . S
C759 C757 1.413 . S
C759 C758 1.367 . S
C759 H761 0.930 . S
H760 C753 0.930 . S
H761 C759 0.930 . S
H762 C750 0.930 . S
H763 C751 0.930 . S
H764 C757 0.929 . S
H765 C779 0.930 . S
H766 C758 0.930 . S
H767 C785 0.930 . S
H768 C776 0.929 . S
H769 C783 0.930 . S
H770 C747 0.931 . S
H771 C777 0.930 . S
H772 C810 0.930 . S
H773 C754 0.930 . S
H774 C809 0.931 . S
N775 Eu744 2.657 . S
N775 C776 1.334 . S
N775 C780 1.362 . S
C776 H768 0.929 . S
C776 N775 1.334 . S
C776 C779 1.413 . S
C777 H771 0.930 . S
C777 C778 1.392 . S
C777 C779 1.367 . S
C778 C777 1.392 . S
C778 C780 1.420 . S
C778 C810 1.423 . S
C779 H765 0.930 . S
C779 C776 1.413 . S
C779 C777 1.367 . S
C780 N775 1.362 . S
C780 C778 1.420 . S
C780 C784 1.429 . S
H781 C786 0.930 . S
N782 Eu744 2.609 . S
N782 C784 1.377 . S
N782 C785 1.321 . S
C783 H769 0.930 . S
C783 C785 1.400 . S
C783 C786 1.386 . S
C784 C780 1.429 . S
C784 N782 1.377 . S
C784 C787 1.411 . S
C785 H767 0.930 . S
C785 N782 1.321 . S
C785 C783 1.400 . S
C786 H781 0.930 . S
C786 C783 1.386 . S
C786 C787 1.395 . S
C787 C784 1.411 . S
C787 C786 1.395 . S
C787 C809 1.420 . S
O788 Eu744 2.558 . S
O788 C808 1.257 . S
O789 Eu744 2.612 . S
O789 Eu755 2.380 1_554 S
O789 C800 1.276 . S
O790 Eu755 2.478 . S
O790 C807 1.182 1_556 S
O791 Eu744 2.339 . S
O791 C807 1.254 . S
O792 Eu744 2.563 . S
O792 C800 1.235 . S
O793 Eu744 2.419 . S
O793 C808 1.249 . S
O794 Eu755 2.558 . S
O794 C819 1.257 . S
O795 Eu744 2.386 1_556 S
O795 Eu755 2.609 . S
O795 C811 1.271 . S
O796 Eu744 2.432 . S
O796 C818 1.264 1_554 S
O797 Eu755 2.339 . S
O797 C818 1.254 . S
O798 Eu755 2.563 . S
O798 C811 1.235 . S
O799 Eu755 2.419 . S
O799 C819 1.249 . S
C800 O789 1.276 . S
C800 O792 1.235 . S
C801 C803 1.393 . S
C801 C805 1.395 . S
C801 C808 1.492 . S
C802 C803 1.392 . S
C802 C804 1.386 . S
C803 C801 1.393 . S
C803 C802 1.392 . S
C803 H820 0.930 . S
C804 C802 1.386 . S
C804 C806 1.395 . S
C804 H821 0.930 . S
C805 C801 1.395 . S
C805 C806 1.379 . S
C805 H822 0.930 . S
C806 C804 1.395 . S
C806 C805 1.379 . S
C806 H823 0.930 . S
C807 O790 1.182 1_554 S
C807 O791 1.254 . S
C808 Eu744 2.848 . S
C808 O788 1.257 . S
C808 O793 1.249 . S
C808 C801 1.492 . S
C809 H774 0.931 . S
C809 C787 1.420 . S
C809 C810 1.351 . S
C810 H772 0.930 . S
C810 C778 1.423 . S
C810 C809 1.351 . S
C811 O795 1.271 . S
C811 O798 1.235 . S
C812 C813 1.393 . S
C812 C816 1.395 . S
C812 C819 1.492 . S
C813 C812 1.393 . S
C813 C814 1.392 . S
C813 H824 0.930 . S
C814 C813 1.392 . S
C814 C815 1.386 . S
C815 C814 1.386 . S
C815 C817 1.395 . S
C815 H825 0.930 . S
C816 C812 1.395 . S
C816 C817 1.379 . S
C816 H826 0.930 . S
C817 C815 1.395 . S
C817 C816 1.379 . S
C817 H827 0.930 . S
C818 O796 1.264 1_556 S
C818 O797 1.254 . S
C819 Eu755 2.848 . S
C819 O794 1.257 . S
C819 O799 1.249 . S
C819 C812 1.492 . S
H820 C803 0.930 . S
H821 C804 0.930 . S
H822 C805 0.930 . S
H823 C806 0.930 . S
H824 C813 0.930 . S
H825 C815 0.930 . S
H826 C816 0.930 . S
H827 C817 0.930 . S
Eu828 N859 2.657 . S
Eu828 N866 2.609 . S
Eu828 O872 2.558 . S
Eu828 O873 2.612 . S
Eu828 O875 2.339 . S
Eu828 O876 2.563 . S
Eu828 O877 2.419 . S
Eu828 O879 2.380 . S
Eu828 O880 2.432 . S
Eu828 C892 2.848 . S
C829 C832 1.429 . S
C829 C833 1.411 . S
C829 N836 1.377 . S
C830 C832 1.420 . S
C830 C834 1.423 . S
C830 C842 1.392 . S
C831 C833 1.420 . S
C831 C834 1.351 . S
C831 H854 0.931 . S
C832 C829 1.429 . S
C832 C830 1.420 . S
C832 N840 1.362 . S
C833 C829 1.411 . S
C833 C831 1.420 . S
C833 C838 1.395 . S
C834 C830 1.423 . S
C834 C831 1.351 . S
C834 H846 0.930 . S
C835 C837 1.400 . S
C835 C838 1.386 . S
C835 H847 0.930 . S
N836 C829 1.377 . S
N836 C837 1.321 . S
N836 Eu839 2.609 . S
C837 C835 1.400 . S
C837 N836 1.321 . S
C837 H844 0.930 . S
C838 C833 1.395 . S
C838 C835 1.386 . S
C838 H857 0.930 . S
Eu839 N836 2.609 . S
Eu839 N840 2.657 . S
Eu839 O873 2.380 . S
Eu839 O874 2.432 . S
Eu839 O878 2.558 . S
Eu839 O879 2.612 . S
Eu839 O881 2.339 . S
Eu839 O882 2.563 . S
Eu839 O883 2.419 . S
Eu839 C903 2.848 . S
N840 C832 1.362 . S
N840 Eu839 2.657 . S
N840 C841 1.334 . S
C841 N840 1.334 . S
C841 C843 1.413 . S
C841 H848 0.929 . S
C842 C830 1.392 . S
C842 C843 1.367 . S
C842 H850 0.930 . S
C843 C841 1.413 . S
C843 C842 1.367 . S
C843 H845 0.930 . S
H844 C837 0.930 . S
H845 C843 0.930 . S
H846 C834 0.930 . S
H847 C835 0.930 . S
H848 C841 0.929 . S
H849 C863 0.930 . S
H850 C842 0.930 . S
H851 C869 0.930 . S
H852 C860 0.929 . S
H853 C867 0.930 . S
H854 C831 0.931 . S
H855 C861 0.930 . S
H856 C894 0.930 . S
H857 C838 0.930 . S
H858 C893 0.931 . S
N859 Eu828 2.657 . S
N859 C860 1.334 . S
N859 C864 1.362 . S
C860 H852 0.929 . S
C860 N859 1.334 . S
C860 C863 1.413 . S
C861 H855 0.930 . S
C861 C862 1.392 . S
C861 C863 1.367 . S
C862 C861 1.392 . S
C862 C864 1.420 . S
C862 C894 1.423 . S
C863 H849 0.930 . S
C863 C860 1.413 . S
C863 C861 1.367 . S
C864 N859 1.362 . S
C864 C862 1.420 . S
C864 C868 1.429 . S
H865 C870 0.930 . S
N866 Eu828 2.609 . S
N866 C868 1.377 . S
N866 C869 1.321 . S
C867 H853 0.930 . S
C867 C869 1.400 . S
C867 C870 1.386 . S
C868 C864 1.429 . S
C868 N866 1.377 . S
C868 C871 1.411 . S
C869 H851 0.930 . S
C869 N866 1.321 . S
C869 C867 1.400 . S
C870 H865 0.930 . S
C870 C867 1.386 . S
C870 C871 1.395 . S
C871 C868 1.411 . S
C871 C870 1.395 . S
C871 C893 1.420 . S
O872 Eu828 2.558 . S
O872 C892 1.257 . S
O873 Eu828 2.612 . S
O873 Eu839 2.380 . S
O873 C884 1.276 . S
O874 Eu839 2.432 . S
O874 C891 1.264 . S
O875 Eu828 2.339 . S
O875 C891 1.254 . S
O876 Eu828 2.563 . S
O876 C884 1.235 . S
O877 Eu828 2.419 . S
O877 C892 1.249 . S
O878 Eu839 2.558 . S
O878 C903 1.257 . S
O879 Eu828 2.380 . S
O879 Eu839 2.612 . S
O879 C895 1.276 . S
O880 Eu828 2.432 . S
O880 C902 1.264 . S
O881 Eu839 2.339 . S
O881 C902 1.254 . S
O882 Eu839 2.563 . S
O882 C895 1.235 . S
O883 Eu839 2.419 . S
O883 C903 1.249 . S
C884 O873 1.276 . S
C884 O876 1.235 . S
C885 C887 1.393 . S
C885 C889 1.395 . S
C885 C892 1.492 . S
C886 C887 1.392 . S
C886 C888 1.386 . S
C887 C885 1.393 . S
C887 C886 1.392 . S
C887 H904 0.930 . S
C888 C886 1.386 . S
C888 C890 1.395 . S
C888 H905 0.930 . S
C889 C885 1.395 . S
C889 C890 1.379 . S
C889 H906 0.930 . S
C890 C888 1.395 . S
C890 C889 1.379 . S
C890 H907 0.930 . S
C891 O874 1.264 . S
C891 O875 1.254 . S
C892 Eu828 2.848 . S
C892 O872 1.257 . S
C892 O877 1.249 . S
C892 C885 1.492 . S
C893 H858 0.931 . S
C893 C871 1.420 . S
C893 C894 1.351 . S
C894 H856 0.930 . S
C894 C862 1.423 . S
C894 C893 1.351 . S
C895 O879 1.276 . S
C895 O882 1.235 . S
C896 C897 1.393 . S
C896 C900 1.395 . S
C896 C903 1.492 . S
C897 C896 1.393 . S
C897 C898 1.392 . S
C897 H908 0.930 . S
C898 C897 1.392 . S
C898 C899 1.386 . S
C899 C898 1.386 . S
C899 C901 1.395 . S
C899 H909 0.930 . S
C900 C896 1.395 . S
C900 C901 1.379 . S
C900 H910 0.930 . S
C901 C899 1.395 . S
C901 C900 1.379 . S
C901 H911 0.930 . S
C902 O880 1.264 . S
C902 O881 1.254 . S
C903 Eu839 2.848 . S
C903 O878 1.257 . S
C903 O883 1.249 . S
C903 C896 1.492 . S
H904 C887 0.930 . S
H905 C888 0.930 . S
H906 C889 0.930 . S
H907 C890 0.930 . S
H908 C897 0.930 . S
H909 C899 0.930 . S
H910 C900 0.930 . S
H911 C901 0.930 . S
Eu912 N943 2.657 . S
Eu912 N950 2.609 . S
Eu912 O956 2.558 . S
Eu912 O957 2.612 . S
Eu912 O959 2.339 . S
Eu912 O960 2.563 . S
Eu912 O961 2.419 . S
Eu912 O963 2.380 . S
Eu912 O964 2.432 . S
Eu912 C976 2.848 . S
C913 C916 1.429 . S
C913 C917 1.411 . S
C913 N920 1.377 . S
C914 C916 1.420 . S
C914 C918 1.423 . S
C914 C926 1.392 . S
C915 C917 1.420 . S
C915 C918 1.351 . S
C915 H938 0.931 . S
C916 C913 1.429 . S
C916 C914 1.420 . S
C916 N924 1.362 . S
C917 C913 1.411 . S
C917 C915 1.420 . S
C917 C922 1.395 . S
C918 C914 1.423 . S
C918 C915 1.351 . S
C918 H930 0.930 . S
C919 C921 1.400 . S
C919 C922 1.386 . S
C919 H931 0.930 . S
N920 C913 1.377 . S
N920 C921 1.321 . S
N920 Eu923 2.609 . S
C921 C919 1.400 . S
C921 N920 1.321 . S
C921 H928 0.930 . S
C922 C917 1.395 . S
C922 C919 1.386 . S
C922 H941 0.930 . S
Eu923 N920 2.609 . S
Eu923 N924 2.657 . S
Eu923 O957 2.380 . S
Eu923 O958 2.432 . S
Eu923 O962 2.558 . S
Eu923 O963 2.612 . S
Eu923 O965 2.339 . S
Eu923 O966 2.563 . S
Eu923 O967 2.419 . S
Eu923 C987 2.848 . S
N924 C916 1.362 . S
N924 Eu923 2.657 . S
N924 C925 1.334 . S
C925 N924 1.334 . S
C925 C927 1.413 . S
C925 H932 0.929 . S
C926 C914 1.392 . S
C926 C927 1.367 . S
C926 H934 0.930 . S
C927 C925 1.413 . S
C927 C926 1.367 . S
C927 H929 0.930 . S
H928 C921 0.930 . S
H929 C927 0.930 . S
H930 C918 0.930 . S
H931 C919 0.930 . S
H932 C925 0.929 . S
H933 C947 0.930 . S
H934 C926 0.930 . S
H935 C953 0.930 . S
H936 C944 0.929 . S
H937 C951 0.930 . S
H938 C915 0.931 . S
H939 C945 0.930 . S
H940 C978 0.930 . S
H941 C922 0.930 . S
H942 C977 0.931 . S
N943 Eu912 2.657 . S
N943 C944 1.334 . S
N943 C948 1.362 . S
C944 H936 0.929 . S
C944 N943 1.334 . S
C944 C947 1.413 . S
C945 H939 0.930 . S
C945 C946 1.392 . S
C945 C947 1.367 . S
C946 C945 1.392 . S
C946 C948 1.420 . S
C946 C978 1.423 . S
C947 H933 0.930 . S
C947 C944 1.413 . S
C947 C945 1.367 . S
C948 N943 1.362 . S
C948 C946 1.420 . S
C948 C952 1.429 . S
H949 C954 0.930 . S
N950 Eu912 2.609 . S
N950 C952 1.377 . S
N950 C953 1.321 . S
C951 H937 0.930 . S
C951 C953 1.400 . S
C951 C954 1.386 . S
C952 C948 1.429 . S
C952 N950 1.377 . S
C952 C955 1.411 . S
C953 H935 0.930 . S
C953 N950 1.321 . S
C953 C951 1.400 . S
C954 H949 0.930 . S
C954 C951 1.386 . S
C954 C955 1.395 . S
C955 C952 1.411 . S
C955 C954 1.395 . S
C955 C977 1.420 . S
O956 Eu912 2.558 . S
O956 C976 1.257 . S
O957 Eu912 2.612 . S
O957 Eu923 2.380 . S
O957 C968 1.276 . S
O958 Eu923 2.432 . S
O958 C975 1.264 . S
O959 Eu912 2.339 . S
O959 C975 1.254 . S
O960 Eu912 2.563 . S
O960 C968 1.235 . S
O961 Eu912 2.419 . S
O961 C976 1.249 . S
O962 Eu923 2.558 . S
O962 C987 1.257 . S
O963 Eu912 2.380 . S
O963 Eu923 2.612 . S
O963 C979 1.276 . S
O964 Eu912 2.432 . S
O964 C986 1.264 . S
O965 Eu923 2.339 . S
O965 C986 1.254 . S
O966 Eu923 2.563 . S
O966 C979 1.235 . S
O967 Eu923 2.419 . S
O967 C987 1.249 . S
C968 O957 1.276 . S
C968 O960 1.235 . S
C969 C971 1.393 . S
C969 C973 1.395 . S
C969 C976 1.492 . S
C970 C971 1.392 . S
C970 C972 1.386 . S
C971 C969 1.393 . S
C971 C970 1.392 . S
C971 H988 0.930 . S
C972 C970 1.386 . S
C972 C974 1.395 . S
C972 H989 0.930 . S
C973 C969 1.395 . S
C973 C974 1.379 . S
C973 H990 0.930 . S
C974 C972 1.395 . S
C974 C973 1.379 . S
C974 H991 0.930 . S
C975 O958 1.264 . S
C975 O959 1.254 . S
C976 Eu912 2.848 . S
C976 O956 1.257 . S
C976 O961 1.249 . S
C976 C969 1.492 . S
C977 H942 0.931 . S
C977 C955 1.420 . S
C977 C978 1.351 . S
C978 H940 0.930 . S
C978 C946 1.423 . S
C978 C977 1.351 . S
C979 O963 1.276 . S
C979 O966 1.235 . S
C980 C981 1.393 . S
C980 C984 1.395 . S
C980 C987 1.492 . S
C981 C980 1.393 . S
C981 C982 1.392 . S
C981 H992 0.930 . S
C982 C981 1.392 . S
C982 C983 1.386 . S
C983 C982 1.386 . S
C983 C985 1.395 . S
C983 H993 0.930 . S
C984 C980 1.395 . S
C984 C985 1.379 . S
C984 H994 0.930 . S
C985 C983 1.395 . S
C985 C984 1.379 . S
C985 H995 0.930 . S
C986 O964 1.264 . S
C986 O965 1.254 . S
C987 Eu923 2.848 . S
C987 O962 1.257 . S
C987 O967 1.249 . S
C987 C980 1.492 . S
H988 C971 0.930 . S
H989 C972 0.930 . S
H990 C973 0.930 . S
H991 C974 0.930 . S
H992 C981 0.930 . S
H993 C983 0.930 . S
H994 C984 0.930 . S
H995 C985 0.930 . S
Eu996 N1027 2.657 . S
Eu996 N1034 2.609 . S
Eu996 O1040 2.558 . S
Eu996 O1041 2.612 . S
Eu996 O1043 2.339 . S
Eu996 O1044 2.563 . S
Eu996 O1045 2.419 . S
Eu996 O1047 2.380 . S
Eu996 O1048 2.432 . S
Eu996 C1060 2.848 . S
C997 C1000 1.429 . S
C997 C1001 1.411 . S
C997 N1004 1.377 . S
C998 C1000 1.420 . S
C998 C1002 1.423 . S
C998 C1010 1.392 . S
C999 C1001 1.420 . S
C999 C1002 1.351 . S
C999 H1022 0.931 . S
C1000 C997 1.429 . S
C1000 C998 1.420 . S
C1000 N1008 1.362 . S
C1001 C997 1.411 . S
C1001 C999 1.420 . S
C1001 C1006 1.395 . S
C1002 C998 1.423 . S
C1002 C999 1.351 . S
C1002 H1014 0.930 . S
C1003 C1005 1.400 . S
C1003 C1006 1.386 . S
C1003 H1015 0.930 . S
N1004 C997 1.377 . S
N1004 C1005 1.321 . S
N1004 Eu1007 2.609 . S
C1005 C1003 1.400 . S
C1005 N1004 1.321 . S
C1005 H1012 0.930 . S
C1006 C1001 1.395 . S
C1006 C1003 1.386 . S
C1006 H1025 0.930 . S
Eu1007 N1004 2.609 . S
Eu1007 N1008 2.657 . S
Eu1007 O1041 2.380 . S
Eu1007 O1042 2.432 . S
Eu1007 O1046 2.558 . S
Eu1007 O1047 2.612 . S
Eu1007 O1049 2.339 . S
Eu1007 O1050 2.563 . S
Eu1007 O1051 2.419 . S
Eu1007 C1071 2.848 . S
N1008 C1000 1.362 . S
N1008 Eu1007 2.657 . S
N1008 C1009 1.334 . S
C1009 N1008 1.334 . S
C1009 C1011 1.413 . S
C1009 H1016 0.929 . S
C1010 C998 1.392 . S
C1010 C1011 1.367 . S
C1010 H1018 0.930 . S
C1011 C1009 1.413 . S
C1011 C1010 1.367 . S
C1011 H1013 0.930 . S
H1012 C1005 0.930 . S
H1013 C1011 0.930 . S
H1014 C1002 0.930 . S
H1015 C1003 0.930 . S
H1016 C1009 0.929 . S
H1017 C1031 0.930 . S
H1018 C1010 0.930 . S
H1019 C1037 0.930 . S
H1020 C1028 0.929 . S
H1021 C1035 0.930 . S
H1022 C999 0.931 . S
H1023 C1029 0.930 . S
H1024 C1062 0.930 . S
H1025 C1006 0.930 . S
H1026 C1061 0.931 . S
N1027 Eu996 2.657 . S
N1027 C1028 1.334 . S
N1027 C1032 1.362 . S
C1028 H1020 0.929 . S
C1028 N1027 1.334 . S
C1028 C1031 1.413 . S
C1029 H1023 0.930 . S
C1029 C1030 1.392 . S
C1029 C1031 1.367 . S
C1030 C1029 1.392 . S
C1030 C1032 1.420 . S
C1030 C1062 1.423 . S
C1031 H1017 0.930 . S
C1031 C1028 1.413 . S
C1031 C1029 1.367 . S
C1032 N1027 1.362 . S
C1032 C1030 1.420 . S
C1032 C1036 1.429 . S
H1033 C1038 0.930 . S
N1034 Eu996 2.609 . S
N1034 C1036 1.377 . S
N1034 C1037 1.321 . S
C1035 H1021 0.930 . S
C1035 C1037 1.400 . S
C1035 C1038 1.386 . S
C1036 C1032 1.429 . S
C1036 N1034 1.377 . S
C1036 C1039 1.411 . S
C1037 H1019 0.930 . S
C1037 N1034 1.321 . S
C1037 C1035 1.400 . S
C1038 H1033 0.930 . S
C1038 C1035 1.386 . S
C1038 C1039 1.395 . S
C1039 C1036 1.411 . S
C1039 C1038 1.395 . S
C1039 C1061 1.420 . S
O1040 Eu996 2.558 . S
O1040 C1060 1.257 . S
O1041 Eu996 2.612 . S
O1041 Eu1007 2.380 . S
O1041 C1052 1.276 . S
O1042 Eu1007 2.432 . S
O1042 C1059 1.264 . S
O1043 Eu996 2.339 . S
O1043 C1059 1.254 . S
O1044 Eu996 2.563 . S
O1044 C1052 1.235 . S
O1045 Eu996 2.419 . S
O1045 C1060 1.249 . S
O1046 Eu1007 2.558 . S
O1046 C1071 1.257 . S
O1047 Eu996 2.380 . S
O1047 Eu1007 2.612 . S
O1047 C1063 1.276 . S
O1048 Eu996 2.432 . S
O1048 C1070 1.264 . S
O1049 Eu1007 2.339 . S
O1049 C1070 1.254 . S
O1050 Eu1007 2.563 . S
O1050 C1063 1.235 . S
O1051 Eu1007 2.419 . S
O1051 C1071 1.249 . S
C1052 O1041 1.276 . S
C1052 O1044 1.235 . S
C1053 C1055 1.393 . S
C1053 C1057 1.395 . S
C1053 C1060 1.492 . S
C1054 C1055 1.392 . S
C1054 C1056 1.386 . S
C1055 C1053 1.393 . S
C1055 C1054 1.392 . S
C1055 H1072 0.930 . S
C1056 C1054 1.386 . S
C1056 C1058 1.395 . S
C1056 H1073 0.930 . S
C1057 C1053 1.395 . S
C1057 C1058 1.379 . S
C1057 H1074 0.930 . S
C1058 C1056 1.395 . S
C1058 C1057 1.379 . S
C1058 H1075 0.930 . S
C1059 O1042 1.264 . S
C1059 O1043 1.254 . S
C1060 Eu996 2.848 . S
C1060 O1040 1.257 . S
C1060 O1045 1.249 . S
C1060 C1053 1.492 . S
C1061 H1026 0.931 . S
C1061 C1039 1.420 . S
C1061 C1062 1.351 . S
C1062 H1024 0.930 . S
C1062 C1030 1.423 . S
C1062 C1061 1.351 . S
C1063 O1047 1.276 . S
C1063 O1050 1.235 . S
C1064 C1065 1.393 . S
C1064 C1068 1.395 . S
C1064 C1071 1.492 . S
C1065 C1064 1.393 . S
C1065 C1066 1.392 . S
C1065 H1076 0.930 . S
C1066 C1065 1.392 . S
C1066 C1067 1.386 . S
C1067 C1066 1.386 . S
C1067 C1069 1.395 . S
C1067 H1077 0.930 . S
C1068 C1064 1.395 . S
C1068 C1069 1.379 . S
C1068 H1078 0.930 . S
C1069 C1067 1.395 . S
C1069 C1068 1.379 . S
C1069 H1079 0.930 . S
C1070 O1048 1.264 . S
C1070 O1049 1.254 . S
C1071 Eu1007 2.848 . S
C1071 O1046 1.257 . S
C1071 O1051 1.249 . S
C1071 C1064 1.492 . S
H1072 C1055 0.930 . S
H1073 C1056 0.930 . S
H1074 C1057 0.930 . S
H1075 C1058 0.930 . S
H1076 C1065 0.930 . S
H1077 C1067 0.930 . S
H1078 C1068 0.930 . S
H1079 C1069 0.930 . S
Eu1080 N1111 2.657 . S
Eu1080 N1118 2.609 . S
Eu1080 O1124 2.558 . S
Eu1080 O1125 2.612 . S
Eu1080 O1127 2.339 . S
Eu1080 O1128 2.563 . S
Eu1080 O1129 2.419 . S
Eu1080 O1131 2.380 . S
Eu1080 O1132 2.432 . S
Eu1080 C1144 2.848 . S
C1081 C1084 1.429 . S
C1081 C1085 1.411 . S
C1081 N1088 1.377 . S
C1082 C1084 1.420 . S
C1082 C1086 1.423 . S
C1082 C1094 1.392 . S
C1083 C1085 1.420 . S
C1083 C1086 1.351 . S
C1083 H1106 0.931 . S
C1084 C1081 1.429 . S
C1084 C1082 1.420 . S
C1084 N1092 1.362 . S
C1085 C1081 1.411 . S
C1085 C1083 1.420 . S
C1085 C1090 1.395 . S
C1086 C1082 1.423 . S
C1086 C1083 1.351 . S
C1086 H1098 0.930 . S
C1087 C1089 1.400 . S
C1087 C1090 1.386 . S
C1087 H1099 0.930 . S
N1088 C1081 1.377 . S
N1088 C1089 1.321 . S
N1088 Eu1091 2.609 . S
C1089 C1087 1.400 . S
C1089 N1088 1.321 . S
C1089 H1096 0.930 . S
C1090 C1085 1.395 . S
C1090 C1087 1.386 . S
C1090 H1109 0.930 . S
Eu1091 N1088 2.609 . S
Eu1091 N1092 2.657 . S
Eu1091 O1125 2.380 . S
Eu1091 O1126 2.432 . S
Eu1091 O1130 2.558 . S
Eu1091 O1131 2.612 . S
Eu1091 O1133 2.339 . S
Eu1091 O1134 2.563 . S
Eu1091 O1135 2.419 . S
Eu1091 C1155 2.848 . S
N1092 C1084 1.362 . S
N1092 Eu1091 2.657 . S
N1092 C1093 1.334 . S
C1093 N1092 1.334 . S
C1093 C1095 1.413 . S
C1093 H1100 0.929 . S
C1094 C1082 1.392 . S
C1094 C1095 1.367 . S
C1094 H1102 0.930 . S
C1095 C1093 1.413 . S
C1095 C1094 1.367 . S
C1095 H1097 0.930 . S
H1096 C1089 0.930 . S
H1097 C1095 0.930 . S
H1098 C1086 0.930 . S
H1099 C1087 0.930 . S
H1100 C1093 0.929 . S
H1101 C1115 0.930 . S
H1102 C1094 0.930 . S
H1103 C1121 0.930 . S
H1104 C1112 0.929 . S
H1105 C1119 0.930 . S
H1106 C1083 0.931 . S
H1107 C1113 0.930 . S
H1108 C1146 0.930 . S
H1109 C1090 0.930 . S
H1110 C1145 0.931 . S
N1111 Eu1080 2.657 . S
N1111 C1112 1.334 . S
N1111 C1116 1.362 . S
C1112 H1104 0.929 . S
C1112 N1111 1.334 . S
C1112 C1115 1.413 . S
C1113 H1107 0.930 . S
C1113 C1114 1.392 . S
C1113 C1115 1.367 . S
C1114 C1113 1.392 . S
C1114 C1116 1.420 . S
C1114 C1146 1.423 . S
C1115 H1101 0.930 . S
C1115 C1112 1.413 . S
C1115 C1113 1.367 . S
C1116 N1111 1.362 . S
C1116 C1114 1.420 . S
C1116 C1120 1.429 . S
H1117 C1122 0.930 . S
N1118 Eu1080 2.609 . S
N1118 C1120 1.377 . S
N1118 C1121 1.321 . S
C1119 H1105 0.930 . S
C1119 C1121 1.400 . S
C1119 C1122 1.386 . S
C1120 C1116 1.429 . S
C1120 N1118 1.377 . S
C1120 C1123 1.411 . S
C1121 H1103 0.930 . S
C1121 N1118 1.321 . S
C1121 C1119 1.400 . S
C1122 H1117 0.930 . S
C1122 C1119 1.386 . S
C1122 C1123 1.395 . S
C1123 C1120 1.411 . S
C1123 C1122 1.395 . S
C1123 C1145 1.420 . S
O1124 Eu1080 2.558 . S
O1124 C1144 1.257 . S
O1125 Eu1080 2.612 . S
O1125 Eu1091 2.380 . S
O1125 C1136 1.276 . S
O1126 Eu1091 2.432 . S
O1126 C1143 1.264 . S
O1127 Eu1080 2.339 . S
O1127 C1143 1.254 . S
O1128 Eu1080 2.563 . S
O1128 C1136 1.235 . S
O1129 Eu1080 2.419 . S
O1129 C1144 1.249 . S
O1130 Eu1091 2.558 . S
O1130 C1155 1.257 . S
O1131 Eu1080 2.380 . S
O1131 Eu1091 2.612 . S
O1131 C1147 1.276 . S
O1132 Eu1080 2.432 . S
O1132 C1154 1.264 . S
O1133 Eu1091 2.339 . S
O1133 C1154 1.254 . S
O1134 Eu1091 2.563 . S
O1134 C1147 1.235 . S
O1135 Eu1091 2.419 . S
O1135 C1155 1.249 . S
C1136 O1125 1.276 . S
C1136 O1128 1.235 . S
C1137 C1139 1.393 . S
C1137 C1141 1.395 . S
C1137 C1144 1.492 . S
C1138 C1139 1.392 . S
C1138 C1140 1.386 . S
C1139 C1137 1.393 . S
C1139 C1138 1.392 . S
C1139 H1156 0.930 . S
C1140 C1138 1.386 . S
C1140 C1142 1.395 . S
C1140 H1157 0.930 . S
C1141 C1137 1.395 . S
C1141 C1142 1.379 . S
C1141 H1158 0.930 . S
C1142 C1140 1.395 . S
C1142 C1141 1.379 . S
C1142 H1159 0.930 . S
C1143 O1126 1.264 . S
C1143 O1127 1.254 . S
C1144 Eu1080 2.848 . S
C1144 O1124 1.257 . S
C1144 O1129 1.249 . S
C1144 C1137 1.492 . S
C1145 H1110 0.931 . S
C1145 C1123 1.420 . S
C1145 C1146 1.351 . S
C1146 H1108 0.930 . S
C1146 C1114 1.423 . S
C1146 C1145 1.351 . S
C1147 O1131 1.276 . S
C1147 O1134 1.235 . S
C1148 C1149 1.393 . S
C1148 C1152 1.395 . S
C1148 C1155 1.492 . S
C1149 C1148 1.393 . S
C1149 C1150 1.392 . S
C1149 H1160 0.930 . S
C1150 C1149 1.392 . S
C1150 C1151 1.386 . S
C1151 C1150 1.386 . S
C1151 C1153 1.395 . S
C1151 H1161 0.930 . S
C1152 C1148 1.395 . S
C1152 C1153 1.379 . S
C1152 H1162 0.930 . S
C1153 C1151 1.395 . S
C1153 C1152 1.379 . S
C1153 H1163 0.930 . S
C1154 O1132 1.264 . S
C1154 O1133 1.254 . S
C1155 Eu1091 2.848 . S
C1155 O1130 1.257 . S
C1155 O1135 1.249 . S
C1155 C1148 1.492 . S
H1156 C1139 0.930 . S
H1157 C1140 0.930 . S
H1158 C1141 0.930 . S
H1159 C1142 0.930 . S
H1160 C1149 0.930 . S
H1161 C1151 0.930 . S
H1162 C1152 0.930 . S
H1163 C1153 0.930 . S
Eu1164 N1195 2.657 . S
Eu1164 N1202 2.609 . S
Eu1164 O1208 2.558 . S
Eu1164 O1209 2.612 . S
Eu1164 O1211 2.339 . S
Eu1164 O1212 2.563 . S
Eu1164 O1213 2.419 . S
Eu1164 O1215 2.380 . S
Eu1164 O1216 2.432 . S
Eu1164 C1228 2.848 . S
C1165 C1168 1.429 . S
C1165 C1169 1.411 . S
C1165 N1172 1.377 . S
C1166 C1168 1.420 . S
C1166 C1170 1.423 . S
C1166 C1178 1.392 . S
C1167 C1169 1.420 . S
C1167 C1170 1.351 . S
C1167 H1190 0.931 . S
C1168 C1165 1.429 . S
C1168 C1166 1.420 . S
C1168 N1176 1.362 . S
C1169 C1165 1.411 . S
C1169 C1167 1.420 . S
C1169 C1174 1.395 . S
C1170 C1166 1.423 . S
C1170 C1167 1.351 . S
C1170 H1182 0.930 . S
C1171 C1173 1.400 . S
C1171 C1174 1.386 . S
C1171 H1183 0.930 . S
N1172 C1165 1.377 . S
N1172 C1173 1.321 . S
N1172 Eu1175 2.609 . S
C1173 C1171 1.400 . S
C1173 N1172 1.321 . S
C1173 H1180 0.930 . S
C1174 C1169 1.395 . S
C1174 C1171 1.386 . S
C1174 H1193 0.930 . S
Eu1175 N1172 2.609 . S
Eu1175 N1176 2.657 . S
Eu1175 O1209 2.380 . S
Eu1175 O1210 2.432 . S
Eu1175 O1214 2.558 . S
Eu1175 O1215 2.612 . S
Eu1175 O1217 2.339 . S
Eu1175 O1218 2.563 . S
Eu1175 O1219 2.419 . S
Eu1175 C1239 2.848 . S
N1176 C1168 1.362 . S
N1176 Eu1175 2.657 . S
N1176 C1177 1.334 . S
C1177 N1176 1.334 . S
C1177 C1179 1.413 . S
C1177 H1184 0.929 . S
C1178 C1166 1.392 . S
C1178 C1179 1.367 . S
C1178 H1186 0.930 . S
C1179 C1177 1.413 . S
C1179 C1178 1.367 . S
C1179 H1181 0.930 . S
H1180 C1173 0.930 . S
H1181 C1179 0.930 . S
H1182 C1170 0.930 . S
H1183 C1171 0.930 . S
H1184 C1177 0.929 . S
H1185 C1199 0.930 . S
H1186 C1178 0.930 . S
H1187 C1205 0.930 . S
H1188 C1196 0.929 . S
H1189 C1203 0.930 . S
H1190 C1167 0.931 . S
H1191 C1197 0.930 . S
H1192 C1230 0.930 . S
H1193 C1174 0.930 . S
H1194 C1229 0.931 . S
N1195 Eu1164 2.657 . S
N1195 C1196 1.334 . S
N1195 C1200 1.362 . S
C1196 H1188 0.929 . S
C1196 N1195 1.334 . S
C1196 C1199 1.413 . S
C1197 H1191 0.930 . S
C1197 C1198 1.392 . S
C1197 C1199 1.367 . S
C1198 C1197 1.392 . S
C1198 C1200 1.420 . S
C1198 C1230 1.423 . S
C1199 H1185 0.930 . S
C1199 C1196 1.413 . S
C1199 C1197 1.367 . S
C1200 N1195 1.362 . S
C1200 C1198 1.420 . S
C1200 C1204 1.429 . S
H1201 C1206 0.930 . S
N1202 Eu1164 2.609 . S
N1202 C1204 1.377 . S
N1202 C1205 1.321 . S
C1203 H1189 0.930 . S
C1203 C1205 1.400 . S
C1203 C1206 1.386 . S
C1204 C1200 1.429 . S
C1204 N1202 1.377 . S
C1204 C1207 1.411 . S
C1205 H1187 0.930 . S
C1205 N1202 1.321 . S
C1205 C1203 1.400 . S
C1206 H1201 0.930 . S
C1206 C1203 1.386 . S
C1206 C1207 1.395 . S
C1207 C1204 1.411 . S
C1207 C1206 1.395 . S
C1207 C1229 1.420 . S
O1208 Eu1164 2.558 . S
O1208 C1228 1.257 . S
O1209 Eu1164 2.612 . S
O1209 Eu1175 2.380 . S
O1209 C1220 1.276 . S
O1210 Eu1175 2.432 . S
O1210 C1227 1.264 . S
O1211 Eu1164 2.339 . S
O1211 C1227 1.254 . S
O1212 Eu1164 2.563 . S
O1212 C1220 1.235 . S
O1213 Eu1164 2.419 . S
O1213 C1228 1.249 . S
O1214 Eu1175 2.558 . S
O1214 C1239 1.257 . S
O1215 Eu1164 2.380 . S
O1215 Eu1175 2.612 . S
O1215 C1231 1.276 . S
O1216 Eu1164 2.432 . S
O1216 C1238 1.264 . S
O1217 Eu1175 2.339 . S
O1217 C1238 1.254 . S
O1218 Eu1175 2.563 . S
O1218 C1231 1.235 . S
O1219 Eu1175 2.419 . S
O1219 C1239 1.249 . S
C1220 O1209 1.276 . S
C1220 O1212 1.235 . S
C1221 C1223 1.393 . S
C1221 C1225 1.395 . S
C1221 C1228 1.492 . S
C1222 C1223 1.392 . S
C1222 C1224 1.386 . S
C1223 C1221 1.393 . S
C1223 C1222 1.392 . S
C1223 H1240 0.930 . S
C1224 C1222 1.386 . S
C1224 C1226 1.395 . S
C1224 H1241 0.930 . S
C1225 C1221 1.395 . S
C1225 C1226 1.379 . S
C1225 H1242 0.930 . S
C1226 C1224 1.395 . S
C1226 C1225 1.379 . S
C1226 H1243 0.930 . S
C1227 O1210 1.264 . S
C1227 O1211 1.254 . S
C1228 Eu1164 2.848 . S
C1228 O1208 1.257 . S
C1228 O1213 1.249 . S
C1228 C1221 1.492 . S
C1229 H1194 0.931 . S
C1229 C1207 1.420 . S
C1229 C1230 1.351 . S
C1230 H1192 0.930 . S
C1230 C1198 1.423 . S
C1230 C1229 1.351 . S
C1231 O1215 1.276 . S
C1231 O1218 1.235 . S
C1232 C1233 1.393 . S
C1232 C1236 1.395 . S
C1232 C1239 1.492 . S
C1233 C1232 1.393 . S
C1233 C1234 1.392 . S
C1233 H1244 0.930 . S
C1234 C1233 1.392 . S
C1234 C1235 1.386 . S
C1235 C1234 1.386 . S
C1235 C1237 1.395 . S
C1235 H1245 0.930 . S
C1236 C1232 1.395 . S
C1236 C1237 1.379 . S
C1236 H1246 0.930 . S
C1237 C1235 1.395 . S
C1237 C1236 1.379 . S
C1237 H1247 0.930 . S
C1238 O1216 1.264 . S
C1238 O1217 1.254 . S
C1239 Eu1175 2.848 . S
C1239 O1214 1.257 . S
C1239 O1219 1.249 . S
C1239 C1232 1.492 . S
H1240 C1223 0.930 . S
H1241 C1224 0.930 . S
H1242 C1225 0.930 . S
H1243 C1226 0.930 . S
H1244 C1233 0.930 . S
H1245 C1235 0.930 . S
H1246 C1236 0.930 . S
H1247 C1237 0.930 . S
Eu1248 N1279 2.657 . S
Eu1248 N1286 2.609 . S
Eu1248 O1292 2.558 . S
Eu1248 O1293 2.612 . S
Eu1248 O1295 2.339 . S
Eu1248 O1296 2.563 . S
Eu1248 O1297 2.419 . S
Eu1248 O1299 2.380 . S
Eu1248 O1300 2.432 . S
Eu1248 C1312 2.848 . S
C1249 C1252 1.429 . S
C1249 C1253 1.411 . S
C1249 N1256 1.377 . S
C1250 C1252 1.420 . S
C1250 C1254 1.423 . S
C1250 C1262 1.392 . S
C1251 C1253 1.420 . S
C1251 C1254 1.351 . S
C1251 H1274 0.931 . S
C1252 C1249 1.429 . S
C1252 C1250 1.420 . S
C1252 N1260 1.362 . S
C1253 C1249 1.411 . S
C1253 C1251 1.420 . S
C1253 C1258 1.395 . S
C1254 C1250 1.423 . S
C1254 C1251 1.351 . S
C1254 H1266 0.930 . S
C1255 C1257 1.400 . S
C1255 C1258 1.386 . S
C1255 H1267 0.930 . S
N1256 C1249 1.377 . S
N1256 C1257 1.321 . S
N1256 Eu1259 2.609 . S
C1257 C1255 1.400 . S
C1257 N1256 1.321 . S
C1257 H1264 0.930 . S
C1258 C1253 1.395 . S
C1258 C1255 1.386 . S
C1258 H1277 0.930 . S
Eu1259 N1256 2.609 . S
Eu1259 N1260 2.657 . S
Eu1259 O1293 2.380 . S
Eu1259 O1294 2.432 . S
Eu1259 O1298 2.558 . S
Eu1259 O1299 2.612 . S
Eu1259 O1301 2.339 . S
Eu1259 O1302 2.563 . S
Eu1259 O1303 2.419 . S
Eu1259 C1323 2.848 . S
N1260 C1252 1.362 . S
N1260 Eu1259 2.657 . S
N1260 C1261 1.334 . S
C1261 N1260 1.334 . S
C1261 C1263 1.413 . S
C1261 H1268 0.929 . S
C1262 C1250 1.392 . S
C1262 C1263 1.367 . S
C1262 H1270 0.930 . S
C1263 C1261 1.413 . S
C1263 C1262 1.367 . S
C1263 H1265 0.930 . S
H1264 C1257 0.930 . S
H1265 C1263 0.930 . S
H1266 C1254 0.930 . S
H1267 C1255 0.930 . S
H1268 C1261 0.929 . S
H1269 C1283 0.930 . S
H1270 C1262 0.930 . S
H1271 C1289 0.930 . S
H1272 C1280 0.929 . S
H1273 C1287 0.930 . S
H1274 C1251 0.931 . S
H1275 C1281 0.930 . S
H1276 C1314 0.930 . S
H1277 C1258 0.930 . S
H1278 C1313 0.931 . S
N1279 Eu1248 2.657 . S
N1279 C1280 1.334 . S
N1279 C1284 1.362 . S
C1280 H1272 0.929 . S
C1280 N1279 1.334 . S
C1280 C1283 1.413 . S
C1281 H1275 0.930 . S
C1281 C1282 1.392 . S
C1281 C1283 1.367 . S
C1282 C1281 1.392 . S
C1282 C1284 1.420 . S
C1282 C1314 1.423 . S
C1283 H1269 0.930 . S
C1283 C1280 1.413 . S
C1283 C1281 1.367 . S
C1284 N1279 1.362 . S
C1284 C1282 1.420 . S
C1284 C1288 1.429 . S
H1285 C1290 0.930 . S
N1286 Eu1248 2.609 . S
N1286 C1288 1.377 . S
N1286 C1289 1.321 . S
C1287 H1273 0.930 . S
C1287 C1289 1.400 . S
C1287 C1290 1.386 . S
C1288 C1284 1.429 . S
C1288 N1286 1.377 . S
C1288 C1291 1.411 . S
C1289 H1271 0.930 . S
C1289 N1286 1.321 . S
C1289 C1287 1.400 . S
C1290 H1285 0.930 . S
C1290 C1287 1.386 . S
C1290 C1291 1.395 . S
C1291 C1288 1.411 . S
C1291 C1290 1.395 . S
C1291 C1313 1.420 . S
O1292 Eu1248 2.558 . S
O1292 C1312 1.257 . S
O1293 Eu1248 2.612 . S
O1293 Eu1259 2.380 . S
O1293 C1304 1.276 . S
O1294 Eu1259 2.432 . S
O1294 C1311 1.264 . S
O1295 Eu1248 2.339 . S
O1295 C1311 1.254 . S
O1296 Eu1248 2.563 . S
O1296 C1304 1.235 . S
O1297 Eu1248 2.419 . S
O1297 C1312 1.249 . S
O1298 Eu1259 2.558 . S
O1298 C1323 1.257 . S
O1299 Eu1248 2.380 . S
O1299 Eu1259 2.612 . S
O1299 C1315 1.276 . S
O1300 Eu1248 2.432 . S
O1300 C1322 1.264 . S
O1301 Eu1259 2.339 . S
O1301 C1322 1.254 . S
O1302 Eu1259 2.563 . S
O1302 C1315 1.235 . S
O1303 Eu1259 2.419 . S
O1303 C1323 1.249 . S
C1304 O1293 1.276 . S
C1304 O1296 1.235 . S
C1305 C1307 1.393 . S
C1305 C1309 1.395 . S
C1305 C1312 1.492 . S
C1306 C1307 1.392 . S
C1306 C1308 1.386 . S
C1307 C1305 1.393 . S
C1307 C1306 1.392 . S
C1307 H1324 0.930 . S
C1308 C1306 1.386 . S
C1308 C1310 1.395 . S
C1308 H1325 0.930 . S
C1309 C1305 1.395 . S
C1309 C1310 1.379 . S
C1309 H1326 0.930 . S
C1310 C1308 1.395 . S
C1310 C1309 1.379 . S
C1310 H1327 0.930 . S
C1311 O1294 1.264 . S
C1311 O1295 1.254 . S
C1312 Eu1248 2.848 . S
C1312 O1292 1.257 . S
C1312 O1297 1.249 . S
C1312 C1305 1.492 . S
C1313 H1278 0.931 . S
C1313 C1291 1.420 . S
C1313 C1314 1.351 . S
C1314 H1276 0.930 . S
C1314 C1282 1.423 . S
C1314 C1313 1.351 . S
C1315 O1299 1.276 . S
C1315 O1302 1.235 . S
C1316 C1317 1.393 . S
C1316 C1320 1.395 . S
C1316 C1323 1.492 . S
C1317 C1316 1.393 . S
C1317 C1318 1.392 . S
C1317 H1328 0.930 . S
C1318 C1317 1.392 . S
C1318 C1319 1.386 . S
C1319 C1318 1.386 . S
C1319 C1321 1.395 . S
C1319 H1329 0.930 . S
C1320 C1316 1.395 . S
C1320 C1321 1.379 . S
C1320 H1330 0.930 . S
C1321 C1319 1.395 . S
C1321 C1320 1.379 . S
C1321 H1331 0.930 . S
C1322 O1300 1.264 . S
C1322 O1301 1.254 . S
C1323 Eu1259 2.848 . S
C1323 O1298 1.257 . S
C1323 O1303 1.249 . S
C1323 C1316 1.492 . S
H1324 C1307 0.930 . S
H1325 C1308 0.930 . S
H1326 C1309 0.930 . S
H1327 C1310 0.930 . S
H1328 C1317 0.930 . S
H1329 C1319 0.930 . S
H1330 C1320 0.930 . S
H1331 C1321 0.930 . S
H1332 C1350 0.951 . S
H1333 C1352 0.951 . S
H1334 C1354 0.950 . S
H1335 C1355 0.950 . S
H1336 C1357 0.950 . S
H1337 C1360 0.950 . S
H1338 C1361 0.950 . S
H1339 C1363 0.950 . S
H1340 C1364 0.950 . S
H1341 C1365 0.951 . S
H1342 C1367 0.951 . S
H1343 C1369 0.950 . S
H1344 C1370 0.950 . S
H1345 C1372 0.950 . S
H1346 C1375 0.950 . S
H1347 C1376 0.950 . S
H1348 C1378 0.950 . S
H1349 C1379 0.950 . S
C1350 H1332 0.951 . S
C1350 C1351 1.366 . S
C1350 C1352 1.388 . S
C1351 C1350 1.366 . S
C1351 C1355 1.385 . S
C1352 H1333 0.951 . S
C1352 C1350 1.388 . S
C1352 C1353 1.366 . S
C1353 C1352 1.366 . S
C1353 C1354 1.414 . S
C1353 C1356 1.499 . S
C1354 H1334 0.950 . S
C1354 C1353 1.414 . S
C1354 C1355 1.374 . S
C1355 H1335 0.950 . S
C1355 C1351 1.385 . S
C1355 C1354 1.374 . S
C1356 C1353 1.499 . S
C1356 C1357 1.373 . S
C1356 C1358 1.389 . S
C1357 H1336 0.950 . S
C1357 C1356 1.373 . S
C1357 C1373 1.377 . S
C1358 C1356 1.389 . S
C1358 C1359 1.524 . S
C1358 C1372 1.377 . S
C1359 C1358 1.524 . S
C1359 C1360 1.397 . S
C1359 C1364 1.363 . S
C1360 H1337 0.950 . S
C1360 C1359 1.397 . S
C1360 C1361 1.334 . S
C1361 H1338 0.950 . S
C1361 C1360 1.334 . S
C1361 C1362 1.287 . S
C1362 C1361 1.287 . S
C1362 C1363 1.524 . S
C1362 H1381 0.913 . S
C1363 H1339 0.950 . S
C1363 C1362 1.524 . S
C1363 C1364 1.415 . S
C1364 H1340 0.950 . S
C1364 C1359 1.363 . S
C1364 C1363 1.415 . S
C1365 H1341 0.951 . S
C1365 C1366 1.366 . S
C1365 C1367 1.388 . S
C1366 C1365 1.366 . S
C1366 C1370 1.385 . S
C1367 H1342 0.951 . S
C1367 C1365 1.388 . S
C1367 C1368 1.366 . S
C1368 C1367 1.366 . S
C1368 C1369 1.414 . S
C1368 C1371 1.499 . S
C1369 H1343 0.950 . S
C1369 C1368 1.414 . S
C1369 C1370 1.374 . S
C1370 H1344 0.950 . S
C1370 C1366 1.385 . S
C1370 C1369 1.374 . S
C1371 C1368 1.499 . S
C1371 C1372 1.373 . S
C1371 C1373 1.389 . S
C1372 H1345 0.950 . S
C1372 C1358 1.377 . S
C1372 C1371 1.373 . S
C1373 C1357 1.377 . S
C1373 C1371 1.389 . S
C1373 C1374 1.524 . S
C1374 C1373 1.524 . S
C1374 C1375 1.397 . S
C1374 C1379 1.363 . S
C1375 H1346 0.950 . S
C1375 C1374 1.397 . S
C1375 C1376 1.334 . S
C1376 H1347 0.950 . S
C1376 C1375 1.334 . S
C1376 C1377 1.287 . S
C1377 C1376 1.287 . S
C1377 C1378 1.524 . S
C1377 H1380 0.999 . S
C1378 H1348 0.950 . S
C1378 C1377 1.524 . S
C1378 C1379 1.415 . S
C1379 H1349 0.950 . S
C1379 C1374 1.363 . S
C1379 C1378 1.415 . S
H1380 C1377 0.999 . S
H1381 C1362 0.913 . S
H1382 C1400 0.951 . S
H1383 C1402 0.951 . S
H1384 C1404 0.950 . S
H1385 C1405 0.950 . S
H1386 C1407 0.950 . S
H1387 C1410 0.950 . S
H1388 C1411 0.950 . S
H1389 C1413 0.950 . S
H1390 C1414 0.950 . S
H1391 C1415 0.951 . S
H1392 C1417 0.951 . S
H1393 C1419 0.950 . S
H1394 C1420 0.950 . S
H1395 C1422 0.950 . S
H1396 C1425 0.950 . S
H1397 C1426 0.950 . S
H1398 C1428 0.950 . S
H1399 C1429 0.950 . S
C1400 H1382 0.951 . S
C1400 C1401 1.366 . S
C1400 C1402 1.388 . S
C1401 C1400 1.366 . S
C1401 C1405 1.385 . S
C1402 H1383 0.951 . S
C1402 C1400 1.388 . S
C1402 C1403 1.366 . S
C1403 C1402 1.366 . S
C1403 C1404 1.414 . S
C1403 C1406 1.499 . S
C1404 H1384 0.950 . S
C1404 C1403 1.414 . S
C1404 C1405 1.374 . S
C1405 H1385 0.950 . S
C1405 C1401 1.385 . S
C1405 C1404 1.374 . S
C1406 C1403 1.499 . S
C1406 C1407 1.373 . S
C1406 C1408 1.389 . S
C1407 H1386 0.950 . S
C1407 C1406 1.373 . S
C1407 C1423 1.377 . S
C1408 C1406 1.389 . S
C1408 C1409 1.524 . S
C1408 C1422 1.377 . S
C1409 C1408 1.524 . S
C1409 C1410 1.397 . S
C1409 C1414 1.363 . S
C1410 H1387 0.950 . S
C1410 C1409 1.397 . S
C1410 C1411 1.334 . S
C1411 H1388 0.950 . S
C1411 C1410 1.334 . S
C1411 C1412 1.287 . S
C1412 C1411 1.287 . S
C1412 C1413 1.524 . S
C1412 H1431 0.913 . S
C1413 H1389 0.950 . S
C1413 C1412 1.524 . S
C1413 C1414 1.415 . S
C1414 H1390 0.950 . S
C1414 C1409 1.363 . S
C1414 C1413 1.415 . S
C1415 H1391 0.951 . S
C1415 C1416 1.366 . S
C1415 C1417 1.388 . S
C1416 C1415 1.366 . S
C1416 C1420 1.385 . S
C1417 H1392 0.951 . S
C1417 C1415 1.388 . S
C1417 C1418 1.366 . S
C1418 C1417 1.366 . S
C1418 C1419 1.414 . S
C1418 C1421 1.499 . S
C1419 H1393 0.950 . S
C1419 C1418 1.414 . S
C1419 C1420 1.374 . S
C1420 H1394 0.950 . S
C1420 C1416 1.385 . S
C1420 C1419 1.374 . S
C1421 C1418 1.499 . S
C1421 C1422 1.373 . S
C1421 C1423 1.389 . S
C1422 H1395 0.950 . S
C1422 C1408 1.377 . S
C1422 C1421 1.373 . S
C1423 C1407 1.377 . S
C1423 C1421 1.389 . S
C1423 C1424 1.524 . S
C1424 C1423 1.524 . S
C1424 C1425 1.397 . S
C1424 C1429 1.363 . S
C1425 H1396 0.950 . S
C1425 C1424 1.397 . S
C1425 C1426 1.334 . S
C1426 H1397 0.950 . S
C1426 C1425 1.334 . S
C1426 C1427 1.287 . S
C1427 C1426 1.287 . S
C1427 C1428 1.524 . S
C1427 H1430 0.999 . S
C1428 H1398 0.950 . S
C1428 C1427 1.524 . S
C1428 C1429 1.415 . S
C1429 H1399 0.950 . S
C1429 C1424 1.363 . S
C1429 C1428 1.415 . S
H1430 C1427 0.999 . S
H1431 C1412 0.913 . S
H1432 C1450 0.951 . S
H1433 C1452 0.951 . S
H1434 C1454 0.950 . S
H1435 C1455 0.950 . S
H1436 C1457 0.950 . S
H1437 C1460 0.950 . S
H1438 C1461 0.950 . S
H1439 C1463 0.950 . S
H1440 C1464 0.950 . S
H1441 C1465 1.009 . S
H1442 C1467 0.951 . S
H1443 C1469 0.950 . S
H1444 C1470 0.950 . S
H1445 C1472 0.950 . S
H1446 C1475 0.950 . S
H1447 C1476 0.950 . S
H1448 C1478 0.950 . S
H1449 C1479 0.950 . S
C1450 H1432 0.951 . S
C1450 C1451 1.366 . S
C1450 C1452 1.388 . S
C1451 C1450 1.366 . S
C1451 C1455 1.385 . S
C1452 H1433 0.951 . S
C1452 C1450 1.388 . S
C1452 C1453 1.366 . S
C1453 C1452 1.366 . S
C1453 C1454 1.414 . S
C1453 C1456 1.499 . S
C1454 H1434 0.950 . S
C1454 C1453 1.414 . S
C1454 C1455 1.374 . S
C1455 H1435 0.950 . S
C1455 C1451 1.385 . S
C1455 C1454 1.374 . S
C1456 C1453 1.499 . S
C1456 C1457 1.373 . S
C1456 C1458 1.389 . S
C1457 H1436 0.950 . S
C1457 C1456 1.373 . S
C1457 C1473 1.377 . S
C1458 C1456 1.389 . S
C1458 C1459 1.524 . S
C1458 C1472 1.377 . S
C1459 C1458 1.524 . S
C1459 C1460 1.397 . S
C1459 C1464 1.363 . S
C1460 H1437 0.950 . S
C1460 C1459 1.397 . S
C1460 C1461 1.334 . S
C1461 H1438 0.950 . S
C1461 C1460 1.334 . S
C1461 C1462 1.287 . S
C1462 C1461 1.287 . S
C1462 C1463 1.524 . S
C1462 H1481 0.913 . S
C1463 H1439 0.950 . S
C1463 C1462 1.524 . S
C1463 C1464 1.415 . S
C1464 H1440 0.950 . S
C1464 C1459 1.363 . S
C1464 C1463 1.415 . S
C1465 H1441 1.009 . S
C1465 C1466 1.366 . S
C1465 C1467 1.388 . S
C1466 C1465 1.366 . S
C1466 C1470 1.385 . S
C1467 H1442 0.951 . S
C1467 C1465 1.388 . S
C1467 C1468 1.366 . S
C1468 C1467 1.366 . S
C1468 C1469 1.414 . S
C1468 C1471 1.499 . S
C1469 H1443 0.950 . S
C1469 C1468 1.414 . S
C1469 C1470 1.374 . S
C1470 H1444 0.950 . S
C1470 C1466 1.385 . S
C1470 C1469 1.374 . S
C1471 C1468 1.499 . S
C1471 C1472 1.373 . S
C1471 C1473 1.389 . S
C1472 H1445 0.950 . S
C1472 C1458 1.377 . S
C1472 C1471 1.373 . S
C1473 C1457 1.377 . S
C1473 C1471 1.389 . S
C1473 C1474 1.524 . S
C1474 C1473 1.524 . S
C1474 C1475 1.397 . S
C1474 C1479 1.363 . S
C1475 H1446 0.950 . S
C1475 C1474 1.397 . S
C1475 C1476 1.334 . S
C1476 H1447 0.950 . S
C1476 C1475 1.334 . S
C1476 C1477 1.287 . S
C1477 C1476 1.287 . S
C1477 C1478 1.524 . S
C1477 H1480 0.999 . S
C1478 H1448 0.950 . S
C1478 C1477 1.524 . S
C1478 C1479 1.415 . S
C1479 H1449 0.950 . S
C1479 C1474 1.363 . S
C1479 C1478 1.415 . S
H1480 C1477 0.999 . S
H1481 C1462 0.913 . S
H1482 C1500 0.951 . S
H1483 C1502 0.951 . S
H1484 C1504 0.950 . S
H1485 C1505 0.950 . S
H1486 C1507 0.950 . S
H1487 C1510 0.950 . S
H1488 C1511 0.950 . S
H1489 C1513 0.950 . S
H1490 C1514 0.950 . S
H1491 C1515 0.951 . S
H1492 C1517 0.951 . S
H1493 C1519 0.950 . S
H1494 C1520 0.950 . S
H1495 C1522 0.950 . S
H1496 C1525 0.948 . S
H1497 C1526 0.950 . S
H1498 C1528 0.950 . S
H1499 C1529 0.950 1_556 S
C1500 H1482 0.951 . S
C1500 C1501 1.366 . S
C1500 C1502 1.388 . S
C1501 C1500 1.366 . S
C1501 C1505 1.385 . S
C1502 H1483 0.951 . S
C1502 C1500 1.388 . S
C1502 C1503 1.366 . S
C1503 C1502 1.366 . S
C1503 C1504 1.414 . S
C1503 C1506 1.499 . S
C1504 H1484 0.950 . S
C1504 C1503 1.414 . S
C1504 C1505 1.374 . S
C1505 H1485 0.950 . S
C1505 C1501 1.385 . S
C1505 C1504 1.374 . S
C1506 C1503 1.499 . S
C1506 C1507 1.373 . S
C1506 C1508 1.389 . S
C1507 H1486 0.950 . S
C1507 C1506 1.373 . S
C1507 C1523 1.377 . S
C1508 C1506 1.389 . S
C1508 C1509 1.524 . S
C1508 C1522 1.377 . S
C1509 C1508 1.524 . S
C1509 C1510 1.397 . S
C1509 C1514 1.363 . S
C1510 H1487 0.950 . S
C1510 C1509 1.397 . S
C1510 C1511 1.334 . S
C1511 H1488 0.950 . S
C1511 C1510 1.334 . S
C1511 C1512 1.287 . S
C1512 C1511 1.287 . S
C1512 C1513 1.524 . S
C1512 H1531 0.913 . S
C1513 H1489 0.950 . S
C1513 C1512 1.524 . S
C1513 C1514 1.415 . S
C1514 H1490 0.950 . S
C1514 C1509 1.363 . S
C1514 C1513 1.415 . S
C1515 H1491 0.951 . S
C1515 C1516 1.366 . S
C1515 C1517 1.388 . S
C1516 C1515 1.366 . S
C1516 C1520 1.385 . S
C1517 H1492 0.951 . S
C1517 C1515 1.388 . S
C1517 C1518 1.366 . S
C1518 C1517 1.366 . S
C1518 C1519 1.414 . S
C1518 C1521 1.499 . S
C1519 H1493 0.950 . S
C1519 C1518 1.414 . S
C1519 C1520 1.374 . S
C1520 H1494 0.950 . S
C1520 C1516 1.385 . S
C1520 C1519 1.374 . S
C1521 C1518 1.499 . S
C1521 C1522 1.373 . S
C1521 C1523 1.389 . S
C1522 H1495 0.950 . S
C1522 C1508 1.377 . S
C1522 C1521 1.373 . S
C1523 C1507 1.377 . S
C1523 C1521 1.389 . S
C1523 C1524 1.524 . S
C1524 C1523 1.524 . S
C1524 C1525 1.397 1_556 S
C1524 C1529 1.363 1_556 S
C1525 H1496 0.948 . S
C1525 C1524 1.397 1_554 S
C1525 C1526 1.334 . S
C1526 H1497 0.950 . S
C1526 C1525 1.334 . S
C1526 C1527 1.287 . S
C1527 C1526 1.287 . S
C1527 C1528 1.524 . S
C1527 H1530 0.999 . S
C1528 H1498 0.950 . S
C1528 C1527 1.524 . S
C1528 C1529 1.415 . S
C1529 H1499 0.950 1_554 S
C1529 C1524 1.363 1_554 S
C1529 C1528 1.415 . S
H1530 C1527 0.999 . S
H1531 C1512 0.913 . S
H1532 C1550 0.951 . S
H1533 C1552 0.951 . S
H1534 C1554 0.950 . S
H1535 C1555 0.950 . S
H1536 C1557 0.950 . S
H1537 C1560 0.950 . S
H1538 C1561 0.950 . S
H1539 C1563 0.950 . S
H1540 C1564 0.950 . S
H1541 C1565 0.951 1_554 S
H1542 C1567 0.951 . S
H1543 C1569 0.950 . S
H1544 C1570 0.950 . S
H1545 C1572 0.950 . S
H1546 C1575 0.950 . S
H1547 C1576 0.950 . S
H1548 C1578 0.950 . S
H1549 C1579 0.950 . S
C1550 H1532 0.951 . S
C1550 C1551 1.366 . S
C1550 C1552 1.388 . S
C1551 C1550 1.366 . S
C1551 C1555 1.385 . S
C1552 H1533 0.951 . S
C1552 C1550 1.388 . S
C1552 C1553 1.366 . S
C1553 C1552 1.366 . S
C1553 C1554 1.414 . S
C1553 C1556 1.499 . S
C1554 H1534 0.950 . S
C1554 C1553 1.414 . S
C1554 C1555 1.374 . S
C1555 H1535 0.950 . S
C1555 C1551 1.385 . S
C1555 C1554 1.374 . S
C1556 C1553 1.499 . S
C1556 C1557 1.373 . S
C1556 C1558 1.389 . S
C1557 H1536 0.950 . S
C1557 C1556 1.373 . S
C1557 C1573 1.377 . S
C1558 C1556 1.389 . S
C1558 C1559 1.524 . S
C1558 C1572 1.377 . S
C1559 C1558 1.524 . S
C1559 C1560 1.397 . S
C1559 C1564 1.363 . S
C1560 H1537 0.950 . S
C1560 C1559 1.397 . S
C1560 C1561 1.334 . S
C1561 H1538 0.950 . S
C1561 C1560 1.334 . S
C1561 C1562 1.287 . S
C1562 C1561 1.287 . S
C1562 C1563 1.524 . S
C1562 H1581 0.913 . S
C1563 H1539 0.950 . S
C1563 C1562 1.524 . S
C1563 C1564 1.415 . S
C1564 H1540 0.950 . S
C1564 C1559 1.363 . S
C1564 C1563 1.415 . S
C1565 H1541 0.951 1_556 S
C1565 C1566 1.366 . S
C1565 C1567 1.388 . S
C1566 C1565 1.366 . S
C1566 C1570 1.385 . S
C1567 H1542 0.951 . S
C1567 C1565 1.388 . S
C1567 C1568 1.366 . S
C1568 C1567 1.366 . S
C1568 C1569 1.414 . S
C1568 C1571 1.499 . S
C1569 H1543 0.950 . S
C1569 C1568 1.414 . S
C1569 C1570 1.374 . S
C1570 H1544 0.950 . S
C1570 C1566 1.385 . S
C1570 C1569 1.374 . S
C1571 C1568 1.499 . S
C1571 C1572 1.373 . S
C1571 C1573 1.389 . S
C1572 H1545 0.950 . S
C1572 C1558 1.377 . S
C1572 C1571 1.373 . S
C1573 C1557 1.377 . S
C1573 C1571 1.389 . S
C1573 C1574 1.524 . S
C1574 C1573 1.524 . S
C1574 C1575 1.397 . S
C1574 C1579 1.363 . S
C1575 H1546 0.950 . S
C1575 C1574 1.397 . S
C1575 C1576 1.334 . S
C1576 H1547 0.950 . S
C1576 C1575 1.334 . S
C1576 C1577 1.287 . S
C1577 C1576 1.287 . S
C1577 C1578 1.524 . S
C1577 H1580 0.999 . S
C1578 H1548 0.950 . S
C1578 C1577 1.524 . S
C1578 C1579 1.415 . S
C1579 H1549 0.950 . S
C1579 C1574 1.363 . S
C1579 C1578 1.415 . S
H1580 C1577 0.999 . S
H1581 C1562 0.913 . S
H1582 C1600 0.951 . S
H1583 C1602 0.951 . S
H1584 C1604 0.950 . S
H1585 C1605 0.950 . S
H1586 C1607 0.950 . S
H1587 C1610 0.950 . S
H1588 C1611 0.950 . S
H1589 C1613 0.950 . S
H1590 C1614 0.950 . S
H1591 C1615 0.951 . S
H1592 C1617 0.951 . S
H1593 C1619 0.950 . S
H1594 C1620 0.950 . S
H1595 C1622 0.950 . S
H1596 C1625 0.950 . S
H1597 C1626 0.950 . S
H1598 C1628 0.950 . S
H1599 C1629 0.950 1_556 S
C1600 H1582 0.951 . S
C1600 C1601 1.366 . S
C1600 C1602 1.388 . S
C1601 C1600 1.366 . S
C1601 C1605 1.385 . S
C1602 H1583 0.951 . S
C1602 C1600 1.388 . S
C1602 C1603 1.366 . S
C1603 C1602 1.366 . S
C1603 C1604 1.414 . S
C1603 C1606 1.499 . S
C1604 H1584 0.950 . S
C1604 C1603 1.414 . S
C1604 C1605 1.374 . S
C1605 H1585 0.950 . S
C1605 C1601 1.385 . S
C1605 C1604 1.374 . S
C1606 C1603 1.499 . S
C1606 C1607 1.373 . S
C1606 C1608 1.389 . S
C1607 H1586 0.950 . S
C1607 C1606 1.373 . S
C1607 C1623 1.377 . S
C1608 C1606 1.389 . S
C1608 C1609 1.524 . S
C1608 C1622 1.377 . S
C1609 C1608 1.524 . S
C1609 C1610 1.397 . S
C1609 C1614 1.363 . S
C1610 H1587 0.950 . S
C1610 C1609 1.397 . S
C1610 C1611 1.334 . S
C1611 H1588 0.950 . S
C1611 C1610 1.334 . S
C1611 C1612 1.287 . S
C1612 C1611 1.287 . S
C1612 C1613 1.524 . S
C1612 H1631 0.913 . S
C1613 H1589 0.950 . S
C1613 C1612 1.524 . S
C1613 C1614 1.415 . S
C1614 H1590 0.950 . S
C1614 C1609 1.363 . S
C1614 C1613 1.415 . S
C1615 H1591 0.951 . S
C1615 C1616 1.366 . S
C1615 C1617 1.388 . S
C1616 C1615 1.366 . S
C1616 C1620 1.385 . S
C1617 H1592 0.951 . S
C1617 C1615 1.388 . S
C1617 C1618 1.366 . S
C1618 C1617 1.366 . S
C1618 C1619 1.414 . S
C1618 C1621 1.499 . S
C1619 H1593 0.950 . S
C1619 C1618 1.414 . S
C1619 C1620 1.374 . S
C1620 H1594 0.950 . S
C1620 C1616 1.385 . S
C1620 C1619 1.374 . S
C1621 C1618 1.499 . S
C1621 C1622 1.373 . S
C1621 C1623 1.389 . S
C1622 H1595 0.950 . S
C1622 C1608 1.377 . S
C1622 C1621 1.373 . S
C1623 C1607 1.377 . S
C1623 C1621 1.389 . S
C1623 C1624 1.524 . S
C1624 C1623 1.524 . S
C1624 C1625 1.397 1_556 S
C1624 C1629 1.363 1_556 S
C1625 H1596 0.950 . S
C1625 C1624 1.397 1_554 S
C1625 C1626 1.334 . S
C1626 H1597 0.950 . S
C1626 C1625 1.334 . S
C1626 C1627 1.287 . S
C1627 C1626 1.287 . S
C1627 C1628 1.524 . S
C1627 H1630 0.999 . S
C1628 H1598 0.950 . S
C1628 C1627 1.524 . S
C1628 C1629 1.415 . S
C1629 H1599 0.950 1_554 S
C1629 C1624 1.363 1_554 S
C1629 C1628 1.415 . S
H1630 C1627 0.999 . S
H1631 C1612 0.913 . S
H1632 C1650 0.951 . S
H1633 C1652 0.951 . S
H1634 C1654 0.950 . S
H1635 C1655 0.950 . S
H1636 C1657 0.950 . S
H1637 C1660 0.950 . S
H1638 C1661 0.950 . S
H1639 C1663 0.950 . S
H1640 C1664 0.950 . S
H1641 C1665 0.951 . S
H1642 C1667 0.951 . S
H1643 C1669 0.950 . S
H1644 C1670 0.950 1_554 S
H1645 C1672 0.950 . S
H1646 C1675 0.950 . S
H1647 C1676 0.950 1_554 S
H1648 C1678 0.950 . S
H1649 C1679 0.950 . S
C1650 H1632 0.951 . S
C1650 C1651 1.366 . S
C1650 C1652 1.388 . S
C1651 C1650 1.366 . S
C1651 C1655 1.385 . S
C1652 H1633 0.951 . S
C1652 C1650 1.388 . S
C1652 C1653 1.366 . S
C1653 C1652 1.366 . S
C1653 C1654 1.414 . S
C1653 C1656 1.499 . S
C1654 H1634 0.950 . S
C1654 C1653 1.414 . S
C1654 C1655 1.374 . S
C1655 H1635 0.950 . S
C1655 C1651 1.385 . S
C1655 C1654 1.374 . S
C1656 C1653 1.499 . S
C1656 C1657 1.373 . S
C1656 C1658 1.389 . S
C1657 H1636 0.950 . S
C1657 C1656 1.373 . S
C1657 C1673 1.377 . S
C1658 C1656 1.389 . S
C1658 C1659 1.524 . S
C1658 C1672 1.377 . S
C1659 C1658 1.524 . S
C1659 C1660 1.397 . S
C1659 C1664 1.363 . S
C1660 H1637 0.950 . S
C1660 C1659 1.397 . S
C1660 C1661 1.334 . S
C1661 H1638 0.950 . S
C1661 C1660 1.334 . S
C1661 C1662 1.287 . S
C1662 C1661 1.287 . S
C1662 C1663 1.524 . S
C1662 H1681 0.913 . S
C1663 H1639 0.950 . S
C1663 C1662 1.524 . S
C1663 C1664 1.415 . S
C1664 H1640 0.950 . S
C1664 C1659 1.363 . S
C1664 C1663 1.415 . S
C1665 H1641 0.951 . S
C1665 C1666 1.366 . S
C1665 C1667 1.388 . S
C1666 C1665 1.366 . S
C1666 C1670 1.385 . S
C1667 H1642 0.951 . S
C1667 C1665 1.388 . S
C1667 C1668 1.366 . S
C1668 C1667 1.366 . S
C1668 C1669 1.414 . S
C1668 C1671 1.499 . S
C1669 H1643 0.950 . S
C1669 C1668 1.414 . S
C1669 C1670 1.374 . S
C1670 H1644 0.950 1_556 S
C1670 C1666 1.385 . S
C1670 C1669 1.374 . S
C1671 C1668 1.499 . S
C1671 C1672 1.373 . S
C1671 C1673 1.389 . S
C1672 H1645 0.950 . S
C1672 C1658 1.377 . S
C1672 C1671 1.373 . S
C1673 C1657 1.377 . S
C1673 C1671 1.389 . S
C1673 C1674 1.524 . S
C1674 C1673 1.524 . S
C1674 C1675 1.397 . S
C1674 C1679 1.363 . S
C1675 H1646 0.950 . S
C1675 C1674 1.397 . S
C1675 C1676 1.334 . S
C1676 H1647 0.950 1_556 S
C1676 C1675 1.334 . S
C1676 C1677 1.287 . S
C1677 C1676 1.287 . S
C1677 C1678 1.524 . S
C1677 H1680 0.999 . S
C1678 H1648 0.950 . S
C1678 C1677 1.524 . S
C1678 C1679 1.415 . S
C1679 H1649 0.950 . S
C1679 C1674 1.363 . S
C1679 C1678 1.415 . S
H1680 C1677 0.999 . S
H1681 C1662 0.913 . S
H1682 C1700 0.951 . S
H1683 C1702 0.951 . S
H1684 C1704 0.950 . S
H1685 C1705 0.950 . S
H1686 C1707 0.950 . S
H1687 C1710 0.950 . S
H1688 C1711 0.950 . S
H1689 C1713 0.950 . S
H1690 C1714 0.950 . S
H1691 C1715 0.951 . S
H1692 C1717 0.951 . S
H1693 C1719 0.950 . S
H1694 C1720 0.950 . S
H1695 C1722 0.950 . S
H1696 C1725 0.950 . S
H1697 C1726 0.950 . S
H1698 C1728 0.950 . S
H1699 C1729 0.950 . S
C1700 H1682 0.951 . S
C1700 C1701 1.366 . S
C1700 C1702 1.388 . S
C1701 C1700 1.366 . S
C1701 C1705 1.385 . S
C1702 H1683 0.951 . S
C1702 C1700 1.388 . S
C1702 C1703 1.366 . S
C1703 C1702 1.366 . S
C1703 C1704 1.414 . S
C1703 C1706 1.499 . S
C1704 H1684 0.950 . S
C1704 C1703 1.414 . S
C1704 C1705 1.374 . S
C1705 H1685 0.950 . S
C1705 C1701 1.385 . S
C1705 C1704 1.374 . S
C1706 C1703 1.499 . S
C1706 C1707 1.373 . S
C1706 C1708 1.389 . S
C1707 H1686 0.950 . S
C1707 C1706 1.373 . S
C1707 C1723 1.377 . S
C1708 C1706 1.389 . S
C1708 C1709 1.524 . S
C1708 C1722 1.377 . S
C1709 C1708 1.524 . S
C1709 C1710 1.397 . S
C1709 C1714 1.363 . S
C1710 H1687 0.950 . S
C1710 C1709 1.397 . S
C1710 C1711 1.334 . S
C1711 H1688 0.950 . S
C1711 C1710 1.334 . S
C1711 C1712 1.287 . S
C1712 C1711 1.287 . S
C1712 C1713 1.524 . S
C1712 H1731 0.913 . S
C1713 H1689 0.950 . S
C1713 C1712 1.524 . S
C1713 C1714 1.415 . S
C1714 H1690 0.950 . S
C1714 C1709 1.363 . S
C1714 C1713 1.415 . S
C1715 H1691 0.951 . S
C1715 C1716 1.366 . S
C1715 C1717 1.388 . S
C1716 C1715 1.366 . S
C1716 C1720 1.385 . S
C1717 H1692 0.951 . S
C1717 C1715 1.388 . S
C1717 C1718 1.366 . S
C1718 C1717 1.366 . S
C1718 C1719 1.414 . S
C1718 C1721 1.499 . S
C1719 H1693 0.950 . S
C1719 C1718 1.414 . S
C1719 C1720 1.374 . S
C1720 H1694 0.950 . S
C1720 C1716 1.385 . S
C1720 C1719 1.374 . S
C1721 C1718 1.499 . S
C1721 C1722 1.373 . S
C1721 C1723 1.389 . S
C1722 H1695 0.950 . S
C1722 C1708 1.377 . S
C1722 C1721 1.373 . S
C1723 C1707 1.377 . S
C1723 C1721 1.389 . S
C1723 C1724 1.524 . S
C1724 C1723 1.524 . S
C1724 C1725 1.397 1_556 S
C1724 C1729 1.363 . S
C1725 H1696 0.950 . S
C1725 C1724 1.397 1_554 S
C1725 C1726 1.334 . S
C1726 H1697 0.950 . S
C1726 C1725 1.334 . S
C1726 C1727 1.287 . S
C1727 C1726 1.287 . S
C1727 C1728 1.524 . S
C1727 H1730 0.999 . S
C1728 H1698 0.950 . S
C1728 C1727 1.524 . S
C1728 C1729 1.415 1_554 S
C1729 H1699 0.950 . S
C1729 C1724 1.363 . S
C1729 C1728 1.415 1_556 S
H1730 C1727 0.999 . S
H1731 C1712 0.913 . S
H1732 C1750 0.951 . S
H1733 C1752 0.951 . S
H1734 C1754 0.950 . S
H1735 C1755 0.950 . S
H1736 C1757 0.950 . S
H1737 C1760 0.950 . S
H1738 C1761 0.987 . S
H1739 C1763 0.950 . S
H1740 C1764 0.950 . S
H1741 C1765 0.951 . S
H1742 C1767 0.951 . S
H1743 C1769 0.950 . S
H1744 C1770 0.950 . S
H1745 C1772 0.950 . S
H1746 C1775 0.950 . S
H1747 C1776 0.950 . S
H1748 C1778 0.950 . S
H1749 C1779 0.950 . S
C1750 H1732 0.951 . S
C1750 C1751 1.366 . S
C1750 C1752 1.388 . S
C1751 C1750 1.366 . S
C1751 C1755 1.385 . S
C1752 H1733 0.951 . S
C1752 C1750 1.388 . S
C1752 C1753 1.366 . S
C1753 C1752 1.366 . S
C1753 C1754 1.414 . S
C1753 C1756 1.499 . S
C1754 H1734 0.950 . S
C1754 C1753 1.414 . S
C1754 C1755 1.374 . S
C1755 H1735 0.950 . S
C1755 C1751 1.385 . S
C1755 C1754 1.374 . S
C1756 C1753 1.499 . S
C1756 C1757 1.373 . S
C1756 C1758 1.389 . S
C1757 H1736 0.950 . S
C1757 C1756 1.373 . S
C1757 C1773 1.377 . S
C1758 C1756 1.389 . S
C1758 C1759 1.524 . S
C1758 C1772 1.377 . S
C1759 C1758 1.524 . S
C1759 C1760 1.397 . S
C1759 C1764 1.363 . S
C1760 H1737 0.950 . S
C1760 C1759 1.397 . S
C1760 C1761 1.334 . S
C1761 H1738 0.987 . S
C1761 C1760 1.334 . S
C1761 C1762 1.287 . S
C1762 C1761 1.287 . S
C1762 C1763 1.524 . S
C1762 H1781 0.913 1_556 S
C1763 H1739 0.950 . S
C1763 C1762 1.524 . S
C1763 C1764 1.415 . S
C1764 H1740 0.950 . S
C1764 C1759 1.363 . S
C1764 C1763 1.415 . S
C1765 H1741 0.951 . S
C1765 C1766 1.366 . S
C1765 C1767 1.388 . S
C1766 C1765 1.366 . S
C1766 C1770 1.385 . S
C1767 H1742 0.951 . S
C1767 C1765 1.388 . S
C1767 C1768 1.366 . S
C1768 C1767 1.366 . S
C1768 C1769 1.414 . S
C1768 C1771 1.499 . S
C1769 H1743 0.950 . S
C1769 C1768 1.414 . S
C1769 C1770 1.374 . S
C1770 H1744 0.950 . S
C1770 C1766 1.385 . S
C1770 C1769 1.374 . S
C1771 C1768 1.499 . S
C1771 C1772 1.373 . S
C1771 C1773 1.389 . S
C1772 H1745 0.950 . S
C1772 C1758 1.377 . S
C1772 C1771 1.373 . S
C1773 C1757 1.377 . S
C1773 C1771 1.389 . S
C1773 C1774 1.524 . S
C1774 C1773 1.524 . S
C1774 C1775 1.397 . S
C1774 C1779 1.363 . S
C1775 H1746 0.950 . S
C1775 C1774 1.397 . S
C1775 C1776 1.334 . S
C1776 H1747 0.950 . S
C1776 C1775 1.334 . S
C1776 C1777 1.287 . S
C1777 C1776 1.287 . S
C1777 C1778 1.524 . S
C1777 H1780 0.999 . S
C1778 H1748 0.950 . S
C1778 C1777 1.524 . S
C1778 C1779 1.415 . S
C1779 H1749 0.950 . S
C1779 C1774 1.363 . S
C1779 C1778 1.415 . S
H1780 C1777 0.999 . S
H1781 C1762 0.913 1_554 S
H1782 C1800 0.951 . S
H1783 C1802 0.951 . S
H1784 C1804 0.950 . S
H1785 C1805 0.950 . S
H1786 C1807 0.950 . S
H1787 C1810 0.950 . S
H1788 C1811 0.950 . S
H1789 C1813 0.950 . S
H1790 C1814 0.950 . S
H1791 C1815 0.951 . S
H1792 C1817 0.951 . S
H1793 C1819 0.950 . S
H1794 C1820 0.950 . S
H1795 C1822 0.950 . S
H1796 C1825 0.950 . S
H1797 C1826 0.950 . S
H1798 C1828 0.950 . S
H1799 C1829 0.950 . S
C1800 H1782 0.951 . S
C1800 C1801 1.366 . S
C1800 C1802 1.388 . S
C1801 C1800 1.366 . S
C1801 C1805 1.385 . S
C1802 H1783 0.951 . S
C1802 C1800 1.388 . S
C1802 C1803 1.366 . S
C1803 C1802 1.366 . S
C1803 C1804 1.414 . S
C1803 C1806 1.499 . S
C1804 H1784 0.950 . S
C1804 C1803 1.414 . S
C1804 C1805 1.374 . S
C1805 H1785 0.950 . S
C1805 C1801 1.385 . S
C1805 C1804 1.374 . S
C1806 C1803 1.499 . S
C1806 C1807 1.373 . S
C1806 C1808 1.389 . S
C1807 H1786 0.950 . S
C1807 C1806 1.373 . S
C1807 C1823 1.377 . S
C1808 C1806 1.389 . S
C1808 C1809 1.524 . S
C1808 C1822 1.377 . S
C1809 C1808 1.524 . S
C1809 C1810 1.397 . S
C1809 C1814 1.363 . S
C1810 H1787 0.950 . S
C1810 C1809 1.397 . S
C1810 C1811 1.334 . S
C1811 H1788 0.950 . S
C1811 C1810 1.334 . S
C1811 C1812 1.287 . S
C1812 C1811 1.287 . S
C1812 C1813 1.524 . S
C1812 H1831 0.913 . S
C1813 H1789 0.950 . S
C1813 C1812 1.524 . S
C1813 C1814 1.415 . S
C1814 H1790 0.950 . S
C1814 C1809 1.363 . S
C1814 C1813 1.415 . S
C1815 H1791 0.951 . S
C1815 C1816 1.366 . S
C1815 C1817 1.388 . S
C1816 C1815 1.366 . S
C1816 C1820 1.385 . S
C1817 H1792 0.951 . S
C1817 C1815 1.388 . S
C1817 C1818 1.366 . S
C1818 C1817 1.366 . S
C1818 C1819 1.414 . S
C1818 C1821 1.499 . S
C1819 H1793 0.950 . S
C1819 C1818 1.414 . S
C1819 C1820 1.374 . S
C1820 H1794 0.950 . S
C1820 C1816 1.385 . S
C1820 C1819 1.374 . S
C1821 C1818 1.499 . S
C1821 C1822 1.373 . S
C1821 C1823 1.389 . S
C1822 H1795 0.950 . S
C1822 C1808 1.377 . S
C1822 C1821 1.373 . S
C1823 C1807 1.377 . S
C1823 C1821 1.389 . S
C1823 C1824 1.524 . S
C1824 C1823 1.524 . S
C1824 C1825 1.397 . S
C1824 C1829 1.363 . S
C1825 H1796 0.950 . S
C1825 C1824 1.397 . S
C1825 C1826 1.334 1_554 S
C1826 H1797 0.950 . S
C1826 C1825 1.334 1_556 S
C1826 C1827 1.287 . S
C1827 C1826 1.287 . S
C1827 C1828 1.524 1_556 S
C1827 H1830 0.999 . S
C1828 H1798 0.950 . S
C1828 C1827 1.524 1_554 S
C1828 C1829 1.415 . S
C1829 H1799 0.950 . S
C1829 C1824 1.363 . S
C1829 C1828 1.415 . S
H1830 C1827 0.999 . S
H1831 C1812 0.913 . S
H1832 C1850 0.951 . S
H1833 C1852 0.951 . S
H1834 C1854 0.950 . S
H1835 C1855 0.950 . S
H1836 C1857 0.950 . S
H1837 C1860 0.950 . S
H1838 C1861 0.950 . S
H1839 C1863 0.950 . S
H1840 C1864 0.950 . S
H1841 C1865 0.951 . S
H1842 C1867 0.951 . S
H1843 C1869 0.950 . S
H1844 C1870 0.950 . S
H1845 C1872 0.950 . S
H1846 C1875 0.950 . S
H1847 C1876 0.950 . S
H1848 C1878 0.950 . S
H1849 C1879 0.950 . S
C1850 H1832 0.951 . S
C1850 C1851 1.366 . S
C1850 C1852 1.388 . S
C1851 C1850 1.366 . S
C1851 C1855 1.385 . S
C1852 H1833 0.951 . S
C1852 C1850 1.388 . S
C1852 C1853 1.366 . S
C1853 C1852 1.366 . S
C1853 C1854 1.414 . S
C1853 C1856 1.499 . S
C1854 H1834 0.950 . S
C1854 C1853 1.414 . S
C1854 C1855 1.374 . S
C1855 H1835 0.950 . S
C1855 C1851 1.385 . S
C1855 C1854 1.374 . S
C1856 C1853 1.499 . S
C1856 C1857 1.373 . S
C1856 C1858 1.389 . S
C1857 H1836 0.950 . S
C1857 C1856 1.373 . S
C1857 C1873 1.377 . S
C1858 C1856 1.389 . S
C1858 C1859 1.524 . S
C1858 C1872 1.377 . S
C1859 C1858 1.524 . S
C1859 C1860 1.397 . S
C1859 C1864 1.363 . S
C1860 H1837 0.950 . S
C1860 C1859 1.397 . S
C1860 C1861 1.334 . S
C1861 H1838 0.950 . S
C1861 C1860 1.334 . S
C1861 C1862 1.287 . S
C1862 C1861 1.287 . S
C1862 C1863 1.524 . S
C1862 H1881 0.907 1_554 S
C1863 H1839 0.950 . S
C1863 C1862 1.524 . S
C1863 C1864 1.415 . S
C1864 H1840 0.950 . S
C1864 C1859 1.363 . S
C1864 C1863 1.415 . S
C1865 H1841 0.951 . S
C1865 C1866 1.366 . S
C1865 C1867 1.388 . S
C1866 C1865 1.366 . S
C1866 C1870 1.385 . S
C1867 H1842 0.951 . S
C1867 C1865 1.388 . S
C1867 C1868 1.366 . S
C1868 C1867 1.366 . S
C1868 C1869 1.414 . S
C1868 C1871 1.499 . S
C1869 H1843 0.950 . S
C1869 C1868 1.414 . S
C1869 C1870 1.374 . S
C1870 H1844 0.950 . S
C1870 C1866 1.385 . S
C1870 C1869 1.374 . S
C1871 C1868 1.499 . S
C1871 C1872 1.373 . S
C1871 C1873 1.389 . S
C1872 H1845 0.950 . S
C1872 C1858 1.377 . S
C1872 C1871 1.373 . S
C1873 C1857 1.377 . S
C1873 C1871 1.389 . S
C1873 C1874 1.524 . S
C1874 C1873 1.524 . S
C1874 C1875 1.397 . S
C1874 C1879 1.363 . S
C1875 H1846 0.950 . S
C1875 C1874 1.397 . S
C1875 C1876 1.334 . S
C1876 H1847 0.950 . S
C1876 C1875 1.334 . S
C1876 C1877 1.287 . S
C1877 C1876 1.287 . S
C1877 C1878 1.524 . S
C1877 H1880 0.999 . S
C1878 H1848 0.950 . S
C1878 C1877 1.524 . S
C1878 C1879 1.415 . S
C1879 H1849 0.950 . S
C1879 C1874 1.363 . S
C1879 C1878 1.415 . S
H1880 C1877 0.999 . S
H1881 C1862 0.907 1_556 S
H1882 C1900 0.951 . S
H1883 C1902 0.951 . S
H1884 C1904 0.950 . S
H1885 C1905 0.950 . S
H1886 C1907 0.950 . S
H1887 C1910 0.950 . S
H1888 C1911 0.950 . S
H1889 C1913 0.950 . S
H1890 C1914 0.950 . S
H1891 C1915 0.951 . S
H1892 C1917 0.951 . S
H1893 C1919 0.950 . S
H1894 C1920 0.950 . S
H1895 C1922 0.950 . S
H1896 C1925 0.950 . S
H1897 C1926 0.926 1_556 S
H1898 C1928 0.950 . S
H1899 C1929 0.950 . S
C1900 H1882 0.951 . S
C1900 C1901 1.366 . S
C1900 C1902 1.388 . S
C1901 C1900 1.366 . S
C1901 C1905 1.385 . S
C1902 H1883 0.951 . S
C1902 C1900 1.388 . S
C1902 C1903 1.366 . S
C1903 C1902 1.366 . S
C1903 C1904 1.414 . S
C1903 C1906 1.499 . S
C1904 H1884 0.950 . S
C1904 C1903 1.414 . S
C1904 C1905 1.374 . S
C1905 H1885 0.950 . S
C1905 C1901 1.385 . S
C1905 C1904 1.374 . S
C1906 C1903 1.499 . S
C1906 C1907 1.373 . S
C1906 C1908 1.389 . S
C1907 H1886 0.950 . S
C1907 C1906 1.373 . S
C1907 C1923 1.377 . S
C1908 C1906 1.389 . S
C1908 C1909 1.524 . S
C1908 C1922 1.377 . S
C1909 C1908 1.524 . S
C1909 C1910 1.397 . S
C1909 C1914 1.363 . S
C1910 H1887 0.950 . S
C1910 C1909 1.397 . S
C1910 C1911 1.334 . S
C1911 H1888 0.950 . S
C1911 C1910 1.334 . S
C1911 C1912 1.287 . S
C1912 C1911 1.287 . S
C1912 C1913 1.524 . S
C1912 H1931 0.913 . S
C1913 H1889 0.950 . S
C1913 C1912 1.524 . S
C1913 C1914 1.415 . S
C1914 H1890 0.950 . S
C1914 C1909 1.363 . S
C1914 C1913 1.415 . S
C1915 H1891 0.951 . S
C1915 C1916 1.366 . S
C1915 C1917 1.388 . S
C1916 C1915 1.366 . S
C1916 C1920 1.385 . S
C1917 H1892 0.951 . S
C1917 C1915 1.388 . S
C1917 C1918 1.366 . S
C1918 C1917 1.366 . S
C1918 C1919 1.414 . S
C1918 C1921 1.499 . S
C1919 H1893 0.950 . S
C1919 C1918 1.414 . S
C1919 C1920 1.374 . S
C1920 H1894 0.950 . S
C1920 C1916 1.385 . S
C1920 C1919 1.374 . S
C1921 C1918 1.499 . S
C1921 C1922 1.373 . S
C1921 C1923 1.389 . S
C1922 H1895 0.950 . S
C1922 C1908 1.377 . S
C1922 C1921 1.373 . S
C1923 C1907 1.377 . S
C1923 C1921 1.389 . S
C1923 C1924 1.524 . S
C1924 C1923 1.524 . S
C1924 C1925 1.397 . S
C1924 C1929 1.363 . S
C1925 H1896 0.950 . S
C1925 C1924 1.397 . S
C1925 C1926 1.334 . S
C1926 H1897 0.926 1_554 S
C1926 C1925 1.334 . S
C1926 C1927 1.287 . S
C1927 C1926 1.287 . S
C1927 C1928 1.524 . S
C1927 H1930 0.999 . S
C1928 H1898 0.950 . S
C1928 C1927 1.524 . S
C1928 C1929 1.415 . S
C1929 H1899 0.950 . S
C1929 C1924 1.363 . S
C1929 C1928 1.415 . S
H1930 C1927 0.999 . S
H1931 C1912 0.913 . S
H1932 C1950 0.951 . S
H1933 C1952 0.951 . S
H1934 C1954 0.950 1_455 S
H1935 C1955 0.950 . S
H1936 C1957 0.950 . S
H1937 C1960 0.950 . S
H1938 C1961 0.950 . S
H1939 C1963 0.950 . S
H1940 C1964 0.949 1_455 S
H1941 C1965 0.951 . S
H1942 C1967 0.951 . S
H1943 C1969 0.950 . S
H1944 C1970 0.950 . S
H1945 C1972 0.950 . S
H1946 C1975 0.950 . S
H1947 C1976 0.950 . S
H1948 C1978 0.950 . S
H1949 C1979 0.950 . S
C1950 H1932 0.951 . S
C1950 C1951 1.366 . S
C1950 C1952 1.388 . S
C1951 C1950 1.366 . S
C1951 C1955 1.385 . S
C1952 H1933 0.951 . S
C1952 C1950 1.388 . S
C1952 C1953 1.366 . S
C1953 C1952 1.366 . S
C1953 C1954 1.414 . S
C1953 C1956 1.499 1_655 S
C1954 H1934 0.950 1_655 S
C1954 C1953 1.414 . S
C1954 C1955 1.374 . S
C1955 H1935 0.950 . S
C1955 C1951 1.385 . S
C1955 C1954 1.374 . S
C1956 C1953 1.499 1_455 S
C1956 C1957 1.373 . S
C1956 C1958 1.389 . S
C1957 H1936 0.950 . S
C1957 C1956 1.373 . S
C1957 C1973 1.377 . S
C1958 C1956 1.389 . S
C1958 C1959 1.524 . S
C1958 C1972 1.377 . S
C1959 C1958 1.524 . S
C1959 C1960 1.397 1_455 S
C1959 C1964 1.336 1_455 S
C1960 H1937 0.950 . S
C1960 C1959 1.397 1_655 S
C1960 C1961 1.334 . S
C1961 H1938 0.950 . S
C1961 C1960 1.334 . S
C1961 C1962 1.287 . S
C1962 C1961 1.287 . S
C1962 C1963 1.524 . S
C1962 H1981 0.913 . S
C1963 H1939 0.950 . S
C1963 C1962 1.524 . S
C1963 C1964 1.445 . S
C1964 H1940 0.949 1_655 S
C1964 C1959 1.336 1_655 S
C1964 C1963 1.445 . S
C1965 H1941 0.951 . S
C1965 C1966 1.366 . S
C1965 C1967 1.388 . S
C1966 C1965 1.366 . S
C1966 C1970 1.385 . S
C1967 H1942 0.951 . S
C1967 C1965 1.388 . S
C1967 C1968 1.366 . S
C1968 C1967 1.366 . S
C1968 C1969 1.414 . S
C1968 C1971 1.499 . S
C1969 H1943 0.950 . S
C1969 C1968 1.414 . S
C1969 C1970 1.374 . S
C1970 H1944 0.950 . S
C1970 C1966 1.385 . S
C1970 C1969 1.374 . S
C1971 C1968 1.499 . S
C1971 C1972 1.373 . S
C1971 C1973 1.389 . S
C1972 H1945 0.950 . S
C1972 C1958 1.377 . S
C1972 C1971 1.373 . S
C1973 C1957 1.377 . S
C1973 C1971 1.389 . S
C1973 C1974 1.524 . S
C1974 C1973 1.524 . S
C1974 C1975 1.397 . S
C1974 C1979 1.363 . S
C1975 H1946 0.950 . S
C1975 C1974 1.397 . S
C1975 C1976 1.334 . S
C1976 H1947 0.950 . S
C1976 C1975 1.334 . S
C1976 C1977 1.287 . S
C1977 C1976 1.287 . S
C1977 C1978 1.524 . S
C1977 H1980 0.999 . S
C1978 H1948 0.950 . S
C1978 C1977 1.524 . S
C1978 C1979 1.415 . S
C1979 H1949 0.950 . S
C1979 C1974 1.363 . S
C1979 C1978 1.415 . S
H1980 C1977 0.999 . S
H1981 C1962 0.913 . S
H1982 C2000 0.951 . S
H1983 C2002 0.951 . S
H1984 C2004 0.950 . S
H1985 C2005 0.950 . S
H1986 C2007 0.950 . S
H1987 C2010 0.950 . S
H1988 C2011 0.950 . S
H1989 C2013 0.950 . S
H1990 C2014 0.950 . S
H1991 C2015 0.951 . S
H1992 C2017 0.951 . S
H1993 C2019 0.950 . S
H1994 C2020 0.950 . S
H1995 C2022 0.950 . S
H1996 C2025 0.950 . S
H1997 C2026 0.950 . S
H1998 C2028 0.950 . S
H1999 C2029 0.950 . S
C2000 H1982 0.951 . S
C2000 C2001 1.366 . S
C2000 C2002 1.388 . S
C2001 C2000 1.366 . S
C2001 C2005 1.385 . S
C2002 H1983 0.951 . S
C2002 C2000 1.388 . S
C2002 C2003 1.366 . S
C2003 C2002 1.366 . S
C2003 C2004 1.414 . S
C2003 C2006 1.499 . S
C2004 H1984 0.950 . S
C2004 C2003 1.414 . S
C2004 C2005 1.374 . S
C2005 H1985 0.950 . S
C2005 C2001 1.385 . S
C2005 C2004 1.374 . S
C2006 C2003 1.499 . S
C2006 C2007 1.373 . S
C2006 C2008 1.389 . S
C2007 H1986 0.950 . S
C2007 C2006 1.373 . S
C2007 C2023 1.377 . S
C2008 C2006 1.389 . S
C2008 C2009 1.524 . S
C2008 C2022 1.377 . S
C2009 C2008 1.524 . S
C2009 C2010 1.397 . S
C2009 C2014 1.363 . S
C2010 H1987 0.950 . S
C2010 C2009 1.397 . S
C2010 C2011 1.334 . S
C2011 H1988 0.950 . S
C2011 C2010 1.334 . S
C2011 C2012 1.287 . S
C2012 C2011 1.287 . S
C2012 C2013 1.524 . S
C2012 H2031 0.913 . S
C2013 H1989 0.950 . S
C2013 C2012 1.524 . S
C2013 C2014 1.415 . S
C2014 H1990 0.950 . S
C2014 C2009 1.363 . S
C2014 C2013 1.415 . S
C2015 H1991 0.951 . S
C2015 C2016 1.366 . S
C2015 C2017 1.388 . S
C2016 C2015 1.366 . S
C2016 C2020 1.385 . S
C2017 H1992 0.951 . S
C2017 C2015 1.388 . S
C2017 C2018 1.366 . S
C2018 C2017 1.366 . S
C2018 C2019 1.414 . S
C2018 C2021 1.499 . S
C2019 H1993 0.950 . S
C2019 C2018 1.414 . S
C2019 C2020 1.374 . S
C2020 H1994 0.950 . S
C2020 C2016 1.385 . S
C2020 C2019 1.374 . S
C2021 C2018 1.499 . S
C2021 C2022 1.373 . S
C2021 C2023 1.389 . S
C2022 H1995 0.950 . S
C2022 C2008 1.377 . S
C2022 C2021 1.373 . S
C2023 C2007 1.377 . S
C2023 C2021 1.389 . S
C2023 C2024 1.524 . S
C2024 C2023 1.524 . S
C2024 C2025 1.397 . S
C2024 C2029 1.363 . S
C2025 H1996 0.950 . S
C2025 C2024 1.397 . S
C2025 C2026 1.334 . S
C2026 H1997 0.950 . S
C2026 C2025 1.334 . S
C2026 C2027 1.287 . S
C2027 C2026 1.287 . S
C2027 C2028 1.524 . S
C2027 H2030 0.999 . S
C2028 H1998 0.950 . S
C2028 C2027 1.524 . S
C2028 C2029 1.415 . S
C2029 H1999 0.950 . S
C2029 C2024 1.363 . S
C2029 C2028 1.415 . S
H2030 C2027 0.999 . S
H2031 C2012 0.913 . S
H2032 C2050 0.951 . S
H2033 C2052 0.951 . S
H2034 C2054 0.950 . S
H2035 C2055 0.950 . S
H2036 C2057 0.950 . S
H2037 C2060 0.950 1_565 S
H2038 C2061 0.950 . S
H2039 C2063 0.950 . S
H2040 C2064 0.950 . S
H2041 C2065 0.951 . S
H2042 C2067 0.951 . S
H2043 C2069 0.950 . S
H2044 C2070 0.950 . S
H2045 C2072 0.950 . S
H2046 C2075 0.950 . S
H2047 C2076 0.950 . S
H2048 C2078 0.950 . S
H2049 C2079 0.950 . S
C2050 H2032 0.951 . S
C2050 C2051 1.366 . S
C2050 C2052 1.388 . S
C2051 C2050 1.366 . S
C2051 C2055 1.385 . S
C2052 H2033 0.951 . S
C2052 C2050 1.388 . S
C2052 C2053 1.366 . S
C2053 C2052 1.366 . S
C2053 C2054 1.414 . S
C2053 C2056 1.499 1_545 S
C2054 H2034 0.950 . S
C2054 C2053 1.414 . S
C2054 C2055 1.374 . S
C2055 H2035 0.950 . S
C2055 C2051 1.385 . S
C2055 C2054 1.374 . S
C2056 C2053 1.499 1_565 S
C2056 C2057 1.373 . S
C2056 C2058 1.389 . S
C2057 H2036 0.950 . S
C2057 C2056 1.373 . S
C2057 C2073 1.377 . S
C2058 C2056 1.389 . S
C2058 C2059 1.524 . S
C2058 C2072 1.377 . S
C2059 C2058 1.524 . S
C2059 C2060 1.397 1_565 S
C2059 C2064 1.363 . S
C2060 H2037 0.950 1_545 S
C2060 C2059 1.397 1_545 S
C2060 C2061 1.334 . S
C2061 H2038 0.950 . S
C2061 C2060 1.334 . S
C2061 C2062 1.287 . S
C2062 C2061 1.287 . S
C2062 C2063 1.524 . S
C2062 H2081 0.913 . S
C2063 H2039 0.950 . S
C2063 C2062 1.524 . S
C2063 C2064 1.415 1_545 S
C2064 H2040 0.950 . S
C2064 C2059 1.363 . S
C2064 C2063 1.415 1_565 S
C2065 H2041 0.951 . S
C2065 C2066 1.366 . S
C2065 C2067 1.388 . S
C2066 C2065 1.366 . S
C2066 C2070 1.385 . S
C2067 H2042 0.951 . S
C2067 C2065 1.388 . S
C2067 C2068 1.366 . S
C2068 C2067 1.366 . S
C2068 C2069 1.414 . S
C2068 C2071 1.499 . S
C2069 H2043 0.950 . S
C2069 C2068 1.414 . S
C2069 C2070 1.374 . S
C2070 H2044 0.950 . S
C2070 C2066 1.385 . S
C2070 C2069 1.374 . S
C2071 C2068 1.499 . S
C2071 C2072 1.373 . S
C2071 C2073 1.389 . S
C2072 H2045 0.950 . S
C2072 C2058 1.377 . S
C2072 C2071 1.373 . S
C2073 C2057 1.377 . S
C2073 C2071 1.389 . S
C2073 C2074 1.524 . S
C2074 C2073 1.524 . S
C2074 C2075 1.397 . S
C2074 C2079 1.363 . S
C2075 H2046 0.950 . S
C2075 C2074 1.397 . S
C2075 C2076 1.334 . S
C2076 H2047 0.950 . S
C2076 C2075 1.334 . S
C2076 C2077 1.287 . S
C2077 C2076 1.287 . S
C2077 C2078 1.524 . S
C2077 H2080 0.999 . S
C2078 H2048 0.950 . S
C2078 C2077 1.524 . S
C2078 C2079 1.415 . S
C2079 H2049 0.950 . S
C2079 C2074 1.363 . S
C2079 C2078 1.415 . S
H2080 C2077 0.999 . S
H2081 C2062 0.913 . S
H2082 C2100 0.951 . S
H2083 C2102 0.951 . S
H2084 C2104 0.950 . S
H2085 C2105 0.950 . S
H2086 C2107 0.950 . S
H2087 C2110 0.950 . S
H2088 C2111 0.950 . S
H2089 C2113 0.950 . S
H2090 C2114 0.950 . S
H2091 C2115 0.951 . S
H2092 C2117 0.951 . S
H2093 C2119 0.950 . S
H2094 C2120 0.950 . S
H2095 C2122 0.950 . S
H2096 C2125 0.950 . S
H2097 C2126 0.950 . S
H2098 C2128 0.950 . S
H2099 C2129 0.950 . S
C2100 H2082 0.951 . S
C2100 C2101 1.366 . S
C2100 C2102 1.388 . S
C2101 C2100 1.366 . S
C2101 C2105 1.385 . S
C2102 H2083 0.951 . S
C2102 C2100 1.388 . S
C2102 C2103 1.366 . S
C2103 C2102 1.366 . S
C2103 C2104 1.414 . S
C2103 C2106 1.499 . S
C2104 H2084 0.950 . S
C2104 C2103 1.414 . S
C2104 C2105 1.374 . S
C2105 H2085 0.950 . S
C2105 C2101 1.385 . S
C2105 C2104 1.374 . S
C2106 C2103 1.499 . S
C2106 C2107 1.373 . S
C2106 C2108 1.389 . S
C2107 H2086 0.950 . S
C2107 C2106 1.373 . S
C2107 C2123 1.377 . S
C2108 C2106 1.389 . S
C2108 C2109 1.524 . S
C2108 C2122 1.377 . S
C2109 C2108 1.524 . S
C2109 C2110 1.397 . S
C2109 C2114 1.363 . S
C2110 H2087 0.950 . S
C2110 C2109 1.397 . S
C2110 C2111 1.334 . S
C2111 H2088 0.950 . S
C2111 C2110 1.334 . S
C2111 C2112 1.287 . S
C2112 C2111 1.287 . S
C2112 C2113 1.524 . S
C2112 H2131 0.913 . S
C2113 H2089 0.950 . S
C2113 C2112 1.524 . S
C2113 C2114 1.415 . S
C2114 H2090 0.950 . S
C2114 C2109 1.363 . S
C2114 C2113 1.415 . S
C2115 H2091 0.951 . S
C2115 C2116 1.366 . S
C2115 C2117 1.388 . S
C2116 C2115 1.366 . S
C2116 C2120 1.385 . S
C2117 H2092 0.951 . S
C2117 C2115 1.388 . S
C2117 C2118 1.366 . S
C2118 C2117 1.366 . S
C2118 C2119 1.414 . S
C2118 C2121 1.499 . S
C2119 H2093 0.950 . S
C2119 C2118 1.414 . S
C2119 C2120 1.374 . S
C2120 H2094 0.950 . S
C2120 C2116 1.385 . S
C2120 C2119 1.374 . S
C2121 C2118 1.499 . S
C2121 C2122 1.373 . S
C2121 C2123 1.389 . S
C2122 H2095 0.950 . S
C2122 C2108 1.377 . S
C2122 C2121 1.373 . S
C2123 C2107 1.377 . S
C2123 C2121 1.389 . S
C2123 C2124 1.524 . S
C2124 C2123 1.524 . S
C2124 C2125 1.397 . S
C2124 C2129 1.363 . S
C2125 H2096 0.950 . S
C2125 C2124 1.397 . S
C2125 C2126 1.334 . S
C2126 H2097 0.950 . S
C2126 C2125 1.334 . S
C2126 C2127 1.287 . S
C2127 C2126 1.287 . S
C2127 C2128 1.524 . S
C2127 H2130 0.999 . S
C2128 H2098 0.950 . S
C2128 C2127 1.524 . S
C2128 C2129 1.415 . S
C2129 H2099 0.950 . S
C2129 C2124 1.363 . S
C2129 C2128 1.415 . S
H2130 C2127 0.999 . S
H2131 C2112 0.913 . S
H2132 C2150 0.951 . S
H2133 C2152 0.951 . S
H2134 C2154 0.950 . S
H2135 C2155 0.950 . S
H2136 C2157 0.950 . S
H2137 C2160 0.950 . S
H2138 C2161 0.950 . S
H2139 C2163 0.950 . S
H2140 C2164 0.950 . S
H2141 C2165 0.951 . S
H2142 C2167 0.951 . S
H2143 C2169 0.950 . S
H2144 C2170 0.950 . S
H2145 C2172 0.950 . S
H2146 C2175 0.950 . S
H2147 C2176 0.950 . S
H2148 C2178 0.950 . S
H2149 C2179 0.950 . S
C2150 H2132 0.951 . S
C2150 C2151 1.366 . S
C2150 C2152 1.388 . S
C2151 C2150 1.366 . S
C2151 C2155 1.385 . S
C2152 H2133 0.951 . S
C2152 C2150 1.388 . S
C2152 C2153 1.366 . S
C2153 C2152 1.366 . S
C2153 C2154 1.414 . S
C2153 C2156 1.499 . S
C2154 H2134 0.950 . S
C2154 C2153 1.414 . S
C2154 C2155 1.374 . S
C2155 H2135 0.950 . S
C2155 C2151 1.385 . S
C2155 C2154 1.374 . S
C2156 C2153 1.499 . S
C2156 C2157 1.373 . S
C2156 C2158 1.389 . S
C2157 H2136 0.950 . S
C2157 C2156 1.373 . S
C2157 C2173 1.377 . S
C2158 C2156 1.389 . S
C2158 C2159 1.524 . S
C2158 C2172 1.377 . S
C2159 C2158 1.524 . S
C2159 C2160 1.397 . S
C2159 C2164 1.363 . S
C2160 H2137 0.950 . S
C2160 C2159 1.397 . S
C2160 C2161 1.334 . S
C2161 H2138 0.950 . S
C2161 C2160 1.334 . S
C2161 C2162 1.287 . S
C2162 C2161 1.287 . S
C2162 C2163 1.524 . S
C2162 H2181 0.913 . S
C2163 H2139 0.950 . S
C2163 C2162 1.524 . S
C2163 C2164 1.415 . S
C2164 H2140 0.950 . S
C2164 C2159 1.363 . S
C2164 C2163 1.415 . S
C2165 H2141 0.951 . S
C2165 C2166 1.366 . S
C2165 C2167 1.388 . S
C2166 C2165 1.366 . S
C2166 C2170 1.385 . S
C2167 H2142 0.951 . S
C2167 C2165 1.388 . S
C2167 C2168 1.366 . S
C2168 C2167 1.366 . S
C2168 C2169 1.414 . S
C2168 C2171 1.499 . S
C2169 H2143 0.950 . S
C2169 C2168 1.414 . S
C2169 C2170 1.374 . S
C2170 H2144 0.950 . S
C2170 C2166 1.385 . S
C2170 C2169 1.374 . S
C2171 C2168 1.499 . S
C2171 C2172 1.373 . S
C2171 C2173 1.389 . S
C2172 H2145 0.950 . S
C2172 C2158 1.377 . S
C2172 C2171 1.373 . S
C2173 C2157 1.377 . S
C2173 C2171 1.389 . S
C2173 C2174 1.524 . S
C2174 C2173 1.524 . S
C2174 C2175 1.397 . S
C2174 C2179 1.363 . S
C2175 H2146 0.950 . S
C2175 C2174 1.397 . S
C2175 C2176 1.334 . S
C2176 H2147 0.950 . S
C2176 C2175 1.334 . S
C2176 C2177 1.287 . S
C2177 C2176 1.287 . S
C2177 C2178 1.524 . S
C2177 H2180 0.999 . S
C2178 H2148 0.950 . S
C2178 C2177 1.524 . S
C2178 C2179 1.415 . S
C2179 H2149 0.950 . S
C2179 C2174 1.363 . S
C2179 C2178 1.415 . S
H2180 C2177 0.999 . S
H2181 C2162 0.913 . S
H2182 C2200 0.951 . S
H2183 C2202 0.951 . S
H2184 C2204 0.950 . S
H2185 C2205 0.950 . S
H2186 C2207 0.950 . S
H2187 C2210 0.950 . S
H2188 C2211 0.950 . S
H2189 C2213 0.950 . S
H2190 C2214 0.950 . S
H2191 C2215 0.951 . S
H2192 C2217 0.951 . S
H2193 C2219 0.950 . S
H2194 C2220 0.950 . S
H2195 C2222 0.950 . S
H2196 C2225 0.950 . S
H2197 C2226 0.950 . S
H2198 C2228 0.950 . S
H2199 C2229 0.950 . S
C2200 H2182 0.951 . S
C2200 C2201 1.366 . S
C2200 C2202 1.388 . S
C2201 C2200 1.366 . S
C2201 C2205 1.385 . S
C2202 H2183 0.951 . S
C2202 C2200 1.388 . S
C2202 C2203 1.366 . S
C2203 C2202 1.366 . S
C2203 C2204 1.414 . S
C2203 C2206 1.499 . S
C2204 H2184 0.950 . S
C2204 C2203 1.414 . S
C2204 C2205 1.374 . S
C2205 H2185 0.950 . S
C2205 C2201 1.385 . S
C2205 C2204 1.374 . S
C2206 C2203 1.499 . S
C2206 C2207 1.373 . S
C2206 C2208 1.389 . S
C2207 H2186 0.950 . S
C2207 C2206 1.373 . S
C2207 C2223 1.377 . S
C2208 C2206 1.389 . S
C2208 C2209 1.524 . S
C2208 C2222 1.377 . S
C2209 C2208 1.524 . S
C2209 C2210 1.397 . S
C2209 C2214 1.363 . S
C2210 H2187 0.950 . S
C2210 C2209 1.397 . S
C2210 C2211 1.334 . S
C2211 H2188 0.950 . S
C2211 C2210 1.334 . S
C2211 C2212 1.287 . S
C2212 C2211 1.287 . S
C2212 C2213 1.524 . S
C2212 H2231 0.913 . S
C2213 H2189 0.950 . S
C2213 C2212 1.524 . S
C2213 C2214 1.415 . S
C2214 H2190 0.950 . S
C2214 C2209 1.363 . S
C2214 C2213 1.415 . S
C2215 H2191 0.951 . S
C2215 C2216 1.366 . S
C2215 C2217 1.388 . S
C2216 C2215 1.366 . S
C2216 C2220 1.385 . S
C2217 H2192 0.951 . S
C2217 C2215 1.388 . S
C2217 C2218 1.366 . S
C2218 C2217 1.366 . S
C2218 C2219 1.414 . S
C2218 C2221 1.499 . S
C2219 H2193 0.950 . S
C2219 C2218 1.414 . S
C2219 C2220 1.374 . S
C2220 H2194 0.950 . S
C2220 C2216 1.385 . S
C2220 C2219 1.374 . S
C2221 C2218 1.499 . S
C2221 C2222 1.373 . S
C2221 C2223 1.389 . S
C2222 H2195 0.950 . S
C2222 C2208 1.377 . S
C2222 C2221 1.373 . S
C2223 C2207 1.377 . S
C2223 C2221 1.389 . S
C2223 C2224 1.524 . S
C2224 C2223 1.524 . S
C2224 C2225 1.397 . S
C2224 C2229 1.363 . S
C2225 H2196 0.950 . S
C2225 C2224 1.397 . S
C2225 C2226 1.334 . S
C2226 H2197 0.950 . S
C2226 C2225 1.334 . S
C2226 C2227 1.287 . S
C2227 C2226 1.287 . S
C2227 C2228 1.524 . S
C2227 H2230 0.999 . S
C2228 H2198 0.950 . S
C2228 C2227 1.524 . S
C2228 C2229 1.415 . S
C2229 H2199 0.950 . S
C2229 C2224 1.363 . S
C2229 C2228 1.415 . S
H2230 C2227 0.999 . S
H2231 C2212 0.913 . S
H2232 C2250 0.951 . S
H2233 C2252 0.951 . S
H2234 C2254 0.950 . S
H2235 C2255 0.950 . S
H2236 C2257 0.950 . S
H2237 C2260 0.950 . S
H2238 C2261 0.950 . S
H2239 C2263 0.950 . S
H2240 C2264 0.950 . S
H2241 C2265 0.951 . S
H2242 C2267 0.951 . S
H2243 C2269 0.950 . S
H2244 C2270 0.950 . S
H2245 C2272 0.950 . S
H2246 C2275 0.950 . S
H2247 C2276 0.950 . S
H2248 C2278 0.950 . S
H2249 C2279 0.950 . S
C2250 H2232 0.951 . S
C2250 C2251 1.366 . S
C2250 C2252 1.388 . S
C2251 C2250 1.366 . S
C2251 C2255 1.385 . S
C2252 H2233 0.951 . S
C2252 C2250 1.388 . S
C2252 C2253 1.366 . S
C2253 C2252 1.366 . S
C2253 C2254 1.414 . S
C2253 C2256 1.499 . S
C2254 H2234 0.950 . S
C2254 C2253 1.414 . S
C2254 C2255 1.374 . S
C2255 H2235 0.950 . S
C2255 C2251 1.385 . S
C2255 C2254 1.374 . S
C2256 C2253 1.499 . S
C2256 C2257 1.373 . S
C2256 C2258 1.389 . S
C2257 H2236 0.950 . S
C2257 C2256 1.373 . S
C2257 C2273 1.377 . S
C2258 C2256 1.389 . S
C2258 C2259 1.524 . S
C2258 C2272 1.377 . S
C2259 C2258 1.524 . S
C2259 C2260 1.397 . S
C2259 C2264 1.363 . S
C2260 H2237 0.950 . S
C2260 C2259 1.397 . S
C2260 C2261 1.334 . S
C2261 H2238 0.950 . S
C2261 C2260 1.334 . S
C2261 C2262 1.287 . S
C2262 C2261 1.287 . S
C2262 C2263 1.524 . S
C2262 H2281 0.913 . S
C2263 H2239 0.950 . S
C2263 C2262 1.524 . S
C2263 C2264 1.415 . S
C2264 H2240 0.950 . S
C2264 C2259 1.363 . S
C2264 C2263 1.415 . S
C2265 H2241 0.951 . S
C2265 C2266 1.366 . S
C2265 C2267 1.388 . S
C2266 C2265 1.366 . S
C2266 C2270 1.385 . S
C2267 H2242 0.951 . S
C2267 C2265 1.388 . S
C2267 C2268 1.366 . S
C2268 C2267 1.366 . S
C2268 C2269 1.414 . S
C2268 C2271 1.499 . S
C2269 H2243 0.950 . S
C2269 C2268 1.414 . S
C2269 C2270 1.374 . S
C2270 H2244 0.950 . S
C2270 C2266 1.385 . S
C2270 C2269 1.374 . S
C2271 C2268 1.499 . S
C2271 C2272 1.373 . S
C2271 C2273 1.389 . S
C2272 H2245 0.950 . S
C2272 C2258 1.377 . S
C2272 C2271 1.373 . S
C2273 C2257 1.377 . S
C2273 C2271 1.389 . S
C2273 C2274 1.524 . S
C2274 C2273 1.524 . S
C2274 C2275 1.397 . S
C2274 C2279 1.363 . S
C2275 H2246 0.950 . S
C2275 C2274 1.397 . S
C2275 C2276 1.334 . S
C2276 H2247 0.950 . S
C2276 C2275 1.334 . S
C2276 C2277 1.287 . S
C2277 C2276 1.287 . S
C2277 C2278 1.524 . S
C2277 H2280 0.999 . S
C2278 H2248 0.950 . S
C2278 C2277 1.524 . S
C2278 C2279 1.415 . S
C2279 H2249 0.950 . S
C2279 C2274 1.363 . S
C2279 C2278 1.415 . S
H2280 C2277 0.999 . S
H2281 C2262 0.913 . S
H2282 C2300 0.951 . S
H2283 C2302 0.951 . S
H2284 C2304 0.950 . S
H2285 C2305 0.950 . S
H2286 C2307 0.950 . S
H2287 C2310 0.950 . S
H2288 C2311 0.950 . S
H2289 C2313 0.950 . S
H2290 C2314 0.950 . S
H2291 C2315 0.951 . S
H2292 C2317 0.951 . S
H2293 C2319 0.950 . S
H2294 C2320 0.950 . S
H2295 C2322 0.950 . S
H2296 C2325 0.950 . S
H2297 C2326 0.950 . S
H2298 C2328 0.950 . S
H2299 C2329 0.950 . S
C2300 H2282 0.951 . S
C2300 C2301 1.366 . S
C2300 C2302 1.388 . S
C2301 C2300 1.366 . S
C2301 C2305 1.385 . S
C2302 H2283 0.951 . S
C2302 C2300 1.388 . S
C2302 C2303 1.366 . S
C2303 C2302 1.366 . S
C2303 C2304 1.414 . S
C2303 C2306 1.499 . S
C2304 H2284 0.950 . S
C2304 C2303 1.414 . S
C2304 C2305 1.374 . S
C2305 H2285 0.950 . S
C2305 C2301 1.385 . S
C2305 C2304 1.374 . S
C2306 C2303 1.499 . S
C2306 C2307 1.373 . S
C2306 C2308 1.389 . S
C2307 H2286 0.950 . S
C2307 C2306 1.373 . S
C2307 C2323 1.377 . S
C2308 C2306 1.389 . S
C2308 C2309 1.524 . S
C2308 C2322 1.377 . S
C2309 C2308 1.524 . S
C2309 C2310 1.397 . S
C2309 C2314 1.363 . S
C2310 H2287 0.950 . S
C2310 C2309 1.397 . S
C2310 C2311 1.334 . S
C2311 H2288 0.950 . S
C2311 C2310 1.334 . S
C2311 C2312 1.287 . S
C2312 C2311 1.287 . S
C2312 C2313 1.524 . S
C2312 H2331 0.913 . S
C2313 H2289 0.950 . S
C2313 C2312 1.524 . S
C2313 C2314 1.415 . S
C2314 H2290 0.950 . S
C2314 C2309 1.363 . S
C2314 C2313 1.415 . S
C2315 H2291 0.951 . S
C2315 C2316 1.366 . S
C2315 C2317 1.388 . S
C2316 C2315 1.366 . S
C2316 C2320 1.385 . S
C2317 H2292 0.951 . S
C2317 C2315 1.388 . S
C2317 C2318 1.366 . S
C2318 C2317 1.366 . S
C2318 C2319 1.414 . S
C2318 C2321 1.499 . S
C2319 H2293 0.950 . S
C2319 C2318 1.414 . S
C2319 C2320 1.374 . S
C2320 H2294 0.950 . S
C2320 C2316 1.385 . S
C2320 C2319 1.374 . S
C2321 C2318 1.499 . S
C2321 C2322 1.373 . S
C2321 C2323 1.389 . S
C2322 H2295 0.950 . S
C2322 C2308 1.377 . S
C2322 C2321 1.373 . S
C2323 C2307 1.377 . S
C2323 C2321 1.389 . S
C2323 C2324 1.524 . S
C2324 C2323 1.524 . S
C2324 C2325 1.397 . S
C2324 C2329 1.363 . S
C2325 H2296 0.950 . S
C2325 C2324 1.397 . S
C2325 C2326 1.334 . S
C2326 H2297 0.950 . S
C2326 C2325 1.334 . S
C2326 C2327 1.287 . S
C2327 C2326 1.287 . S
C2327 C2328 1.524 . S
C2327 H2330 0.999 . S
C2328 H2298 0.950 . S
C2328 C2327 1.524 . S
C2328 C2329 1.415 . S
C2329 H2299 0.950 . S
C2329 C2324 1.363 . S
C2329 C2328 1.415 . S
H2330 C2327 0.999 . S
H2331 C2312 0.913 . S
H2332 C2350 0.951 . S
H2333 C2352 0.951 . S
H2334 C2354 0.950 . S
H2335 C2355 0.950 . S
H2336 C2357 0.950 . S
H2337 C2360 0.950 . S
H2338 C2361 0.950 . S
H2339 C2363 0.950 . S
H2340 C2364 0.950 . S
H2341 C2365 0.951 . S
H2342 C2367 0.951 . S
H2343 C2369 0.950 . S
H2344 C2370 0.950 . S
H2345 C2372 0.950 . S
H2346 C2375 0.950 . S
H2347 C2376 0.950 . S
H2348 C2378 0.950 . S
H2349 C2379 0.950 . S
C2350 H2332 0.951 . S
C2350 C2351 1.366 . S
C2350 C2352 1.388 . S
C2351 C2350 1.366 . S
C2351 C2355 1.385 . S
C2352 H2333 0.951 . S
C2352 C2350 1.388 . S
C2352 C2353 1.366 . S
C2353 C2352 1.366 . S
C2353 C2354 1.414 . S
C2353 C2356 1.499 . S
C2354 H2334 0.950 . S
C2354 C2353 1.414 . S
C2354 C2355 1.374 . S
C2355 H2335 0.950 . S
C2355 C2351 1.385 . S
C2355 C2354 1.374 . S
C2356 C2353 1.499 . S
C2356 C2357 1.373 . S
C2356 C2358 1.389 . S
C2357 H2336 0.950 . S
C2357 C2356 1.373 . S
C2357 C2373 1.377 . S
C2358 C2356 1.389 . S
C2358 C2359 1.524 . S
C2358 C2372 1.377 . S
C2359 C2358 1.524 . S
C2359 C2360 1.397 . S
C2359 C2364 1.363 . S
C2360 H2337 0.950 . S
C2360 C2359 1.397 . S
C2360 C2361 1.334 . S
C2361 H2338 0.950 . S
C2361 C2360 1.334 . S
C2361 C2362 1.287 . S
C2362 C2361 1.287 . S
C2362 C2363 1.524 . S
C2362 H2381 0.913 . S
C2363 H2339 0.950 . S
C2363 C2362 1.524 . S
C2363 C2364 1.415 . S
C2364 H2340 0.950 . S
C2364 C2359 1.363 . S
C2364 C2363 1.415 . S
C2365 H2341 0.951 . S
C2365 C2366 1.366 . S
C2365 C2367 1.388 . S
C2366 C2365 1.366 . S
C2366 C2370 1.385 . S
C2367 H2342 0.951 . S
C2367 C2365 1.388 . S
C2367 C2368 1.366 . S
C2368 C2367 1.366 . S
C2368 C2369 1.414 . S
C2368 C2371 1.499 . S
C2369 H2343 0.950 . S
C2369 C2368 1.414 . S
C2369 C2370 1.374 . S
C2370 H2344 0.950 . S
C2370 C2366 1.385 . S
C2370 C2369 1.374 . S
C2371 C2368 1.499 . S
C2371 C2372 1.373 . S
C2371 C2373 1.389 . S
C2372 H2345 0.950 . S
C2372 C2358 1.377 . S
C2372 C2371 1.373 . S
C2373 C2357 1.377 . S
C2373 C2371 1.389 . S
C2373 C2374 1.524 . S
C2374 C2373 1.524 . S
C2374 C2375 1.397 . S
C2374 C2379 1.363 . S
C2375 H2346 0.950 . S
C2375 C2374 1.397 . S
C2375 C2376 1.334 . S
C2376 H2347 0.950 . S
C2376 C2375 1.334 . S
C2376 C2377 1.287 . S
C2377 C2376 1.287 . S
C2377 C2378 1.524 . S
C2377 H2380 0.999 . S
C2378 H2348 0.950 . S
C2378 C2377 1.524 . S
C2378 C2379 1.415 . S
C2379 H2349 0.950 . S
C2379 C2374 1.363 . S
C2379 C2378 1.415 . S
H2380 C2377 0.999 . S
H2381 C2362 0.913 . S
H2382 C2400 0.951 . S
H2383 C2402 0.951 . S
H2384 C2404 0.950 . S
H2385 C2405 0.950 . S
H2386 C2407 0.950 . S
H2387 C2410 0.950 . S
H2388 C2411 0.950 . S
H2389 C2413 0.950 . S
H2390 C2414 0.950 . S
H2391 C2415 0.951 . S
H2392 C2417 0.951 . S
H2393 C2419 0.950 . S
H2394 C2420 0.950 . S
H2395 C2422 0.950 . S
H2396 C2425 0.950 . S
H2397 C2426 0.950 . S
H2398 C2428 0.950 . S
H2399 C2429 0.950 . S
C2400 H2382 0.951 . S
C2400 C2401 1.366 . S
C2400 C2402 1.388 . S
C2401 C2400 1.366 . S
C2401 C2405 1.385 . S
C2402 H2383 0.951 . S
C2402 C2400 1.388 . S
C2402 C2403 1.366 . S
C2403 C2402 1.366 . S
C2403 C2404 1.414 . S
C2403 C2406 1.499 1_545 S
C2404 H2384 0.950 . S
C2404 C2403 1.414 . S
C2404 C2405 1.374 . S
C2405 H2385 0.950 . S
C2405 C2401 1.385 . S
C2405 C2404 1.374 . S
C2406 C2403 1.499 1_565 S
C2406 C2407 1.373 . S
C2406 C2408 1.389 . S
C2407 H2386 0.950 . S
C2407 C2406 1.373 . S
C2407 C2423 1.377 . S
C2408 C2406 1.389 . S
C2408 C2409 1.524 . S
C2408 C2422 1.377 . S
C2409 C2408 1.524 . S
C2409 C2410 1.397 . S
C2409 C2414 1.363 . S
C2410 H2387 0.950 . S
C2410 C2409 1.397 . S
C2410 C2411 1.334 . S
C2411 H2388 0.950 . S
C2411 C2410 1.334 . S
C2411 C2412 1.287 . S
C2412 C2411 1.287 . S
C2412 C2413 1.524 . S
C2412 H2431 0.913 . S
C2413 H2389 0.950 . S
C2413 C2412 1.524 . S
C2413 C2414 1.415 . S
C2414 H2390 0.950 . S
C2414 C2409 1.363 . S
C2414 C2413 1.415 . S
C2415 H2391 0.951 . S
C2415 C2416 1.366 . S
C2415 C2417 1.388 . S
C2416 C2415 1.366 . S
C2416 C2420 1.385 . S
C2417 H2392 0.951 . S
C2417 C2415 1.388 . S
C2417 C2418 1.366 . S
C2418 C2417 1.366 . S
C2418 C2419 1.414 . S
C2418 C2421 1.499 . S
C2419 H2393 0.950 . S
C2419 C2418 1.414 . S
C2419 C2420 1.374 . S
C2420 H2394 0.950 . S
C2420 C2416 1.385 . S
C2420 C2419 1.374 . S
C2421 C2418 1.499 . S
C2421 C2422 1.373 . S
C2421 C2423 1.389 . S
C2422 H2395 0.950 . S
C2422 C2408 1.377 . S
C2422 C2421 1.373 . S
C2423 C2407 1.377 . S
C2423 C2421 1.389 . S
C2423 C2424 1.524 . S
C2424 C2423 1.524 . S
C2424 C2425 1.397 . S
C2424 C2429 1.363 . S
C2425 H2396 0.950 . S
C2425 C2424 1.397 . S
C2425 C2426 1.334 . S
C2426 H2397 0.950 . S
C2426 C2425 1.334 . S
C2426 C2427 1.287 . S
C2427 C2426 1.287 . S
C2427 C2428 1.524 . S
C2427 H2430 0.999 . S
C2428 H2398 0.950 . S
C2428 C2427 1.524 . S
C2428 C2429 1.415 . S
C2429 H2399 0.950 . S
C2429 C2424 1.363 . S
C2429 C2428 1.415 . S
H2430 C2427 0.999 . S
H2431 C2412 0.913 . S
H2432 C2450 0.951 . S
H2433 C2452 0.951 . S
H2434 C2454 0.950 . S
H2435 C2455 0.950 . S
H2436 C2457 0.950 . S
H2437 C2460 0.950 . S
H2438 C2461 0.950 . S
H2439 C2463 0.950 . S
H2440 C2464 0.950 . S
H2441 C2465 0.951 . S
H2442 C2467 0.951 . S
H2443 C2469 0.950 . S
H2444 C2470 0.950 . S
H2445 C2472 0.950 . S
H2446 C2475 0.950 . S
H2447 C2476 0.950 . S
H2448 C2478 0.950 . S
H2449 C2479 0.950 . S
C2450 H2432 0.951 . S
C2450 C2451 1.366 . S
C2450 C2452 1.388 . S
C2451 C2450 1.366 . S
C2451 C2455 1.385 . S
C2452 H2433 0.951 . S
C2452 C2450 1.388 . S
C2452 C2453 1.366 1_655 S
C2453 C2452 1.366 1_455 S
C2453 C2454 1.414 1_455 S
C2453 C2456 1.499 . S
C2454 H2434 0.950 . S
C2454 C2453 1.414 1_655 S
C2454 C2455 1.374 . S
C2455 H2435 0.950 . S
C2455 C2451 1.385 . S
C2455 C2454 1.374 . S
C2456 C2453 1.499 . S
C2456 C2457 1.373 . S
C2456 C2458 1.389 . S
C2457 H2436 0.950 . S
C2457 C2456 1.373 . S
C2457 C2473 1.377 . S
C2458 C2456 1.389 . S
C2458 C2459 1.524 . S
C2458 C2472 1.377 . S
C2459 C2458 1.524 . S
C2459 C2460 1.397 . S
C2459 C2464 1.363 . S
C2460 H2437 0.950 . S
C2460 C2459 1.397 . S
C2460 C2461 1.334 . S
C2461 H2438 0.950 . S
C2461 C2460 1.334 . S
C2461 C2462 1.287 . S
C2462 C2461 1.287 . S
C2462 C2463 1.524 . S
C2462 H2481 0.913 . S
C2463 H2439 0.950 . S
C2463 C2462 1.524 . S
C2463 C2464 1.415 . S
C2464 H2440 0.950 . S
C2464 C2459 1.363 . S
C2464 C2463 1.415 . S
C2465 H2441 0.951 . S
C2465 C2466 1.366 . S
C2465 C2467 1.388 . S
C2466 C2465 1.366 . S
C2466 C2470 1.385 . S
C2467 H2442 0.951 . S
C2467 C2465 1.388 . S
C2467 C2468 1.366 . S
C2468 C2467 1.366 . S
C2468 C2469 1.414 . S
C2468 C2471 1.499 . S
C2469 H2443 0.950 . S
C2469 C2468 1.414 . S
C2469 C2470 1.374 . S
C2470 H2444 0.950 . S
C2470 C2466 1.385 . S
C2470 C2469 1.374 . S
C2471 C2468 1.499 . S
C2471 C2472 1.373 . S
C2471 C2473 1.389 . S
C2472 H2445 0.950 . S
C2472 C2458 1.377 . S
C2472 C2471 1.373 . S
C2473 C2457 1.377 . S
C2473 C2471 1.389 . S
C2473 C2474 1.524 . S
C2474 C2473 1.524 . S
C2474 C2475 1.397 . S
C2474 C2479 1.363 . S
C2475 H2446 0.950 . S
C2475 C2474 1.397 . S
C2475 C2476 1.334 . S
C2476 H2447 0.950 . S
C2476 C2475 1.334 . S
C2476 C2477 1.287 . S
C2477 C2476 1.287 . S
C2477 C2478 1.524 . S
C2477 H2480 0.999 . S
C2478 H2448 0.950 . S
C2478 C2477 1.524 . S
C2478 C2479 1.415 . S
C2479 H2449 0.950 . S
C2479 C2474 1.363 . S
C2479 C2478 1.415 . S
H2480 C2477 0.999 . S
H2481 C2462 0.913 . S
H2482 C2500 0.951 . S
H2483 C2502 0.951 . S
H2484 C2504 0.950 . S
H2485 C2505 0.950 . S
H2486 C2507 0.950 . S
H2487 C2510 0.950 . S
H2488 C2511 0.950 . S
H2489 C2513 0.950 . S
H2490 C2514 0.950 . S
H2491 C2515 0.951 . S
H2492 C2517 0.951 . S
H2493 C2519 0.950 . S
H2494 C2520 0.950 . S
H2495 C2522 0.950 . S
H2496 C2525 0.950 . S
H2497 C2526 0.950 . S
H2498 C2528 0.950 . S
H2499 C2529 0.950 . S
C2500 H2482 0.951 . S
C2500 C2501 1.366 . S
C2500 C2502 1.388 . S
C2501 C2500 1.366 . S
C2501 C2505 1.385 . S
C2502 H2483 0.951 . S
C2502 C2500 1.388 . S
C2502 C2503 1.366 . S
C2503 C2502 1.366 . S
C2503 C2504 1.414 . S
C2503 C2506 1.499 . S
C2504 H2484 0.950 . S
C2504 C2503 1.414 . S
C2504 C2505 1.374 . S
C2505 H2485 0.950 . S
C2505 C2501 1.385 . S
C2505 C2504 1.374 . S
C2506 C2503 1.499 . S
C2506 C2507 1.373 . S
C2506 C2508 1.389 . S
C2507 H2486 0.950 . S
C2507 C2506 1.373 . S
C2507 C2523 1.377 . S
C2508 C2506 1.389 . S
C2508 C2509 1.524 . S
C2508 C2522 1.377 . S
C2509 C2508 1.524 . S
C2509 C2510 1.397 . S
C2509 C2514 1.363 . S
C2510 H2487 0.950 . S
C2510 C2509 1.397 . S
C2510 C2511 1.334 . S
C2511 H2488 0.950 . S
C2511 C2510 1.334 . S
C2511 C2512 1.287 . S
C2512 C2511 1.287 . S
C2512 C2513 1.524 . S
C2512 H2531 0.913 . S
C2513 H2489 0.950 . S
C2513 C2512 1.524 . S
C2513 C2514 1.415 . S
C2514 H2490 0.950 . S
C2514 C2509 1.363 . S
C2514 C2513 1.415 . S
C2515 H2491 0.951 . S
C2515 C2516 1.366 . S
C2515 C2517 1.388 . S
C2516 C2515 1.366 . S
C2516 C2520 1.385 . S
C2517 H2492 0.951 . S
C2517 C2515 1.388 . S
C2517 C2518 1.366 . S
C2518 C2517 1.366 . S
C2518 C2519 1.414 . S
C2518 C2521 1.499 . S
C2519 H2493 0.950 . S
C2519 C2518 1.414 . S
C2519 C2520 1.374 . S
C2520 H2494 0.950 . S
C2520 C2516 1.385 . S
C2520 C2519 1.374 . S
C2521 C2518 1.499 . S
C2521 C2522 1.373 . S
C2521 C2523 1.389 . S
C2522 H2495 0.950 . S
C2522 C2508 1.377 . S
C2522 C2521 1.373 . S
C2523 C2507 1.377 . S
C2523 C2521 1.389 . S
C2523 C2524 1.524 . S
C2524 C2523 1.524 . S
C2524 C2525 1.397 . S
C2524 C2529 1.363 . S
C2525 H2496 0.950 . S
C2525 C2524 1.397 . S
C2525 C2526 1.334 . S
C2526 H2497 0.950 . S
C2526 C2525 1.334 . S
C2526 C2527 1.287 . S
C2527 C2526 1.287 . S
C2527 C2528 1.524 . S
C2527 H2530 0.999 . S
C2528 H2498 0.950 . S
C2528 C2527 1.524 . S
C2528 C2529 1.415 . S
C2529 H2499 0.950 . S
C2529 C2524 1.363 . S
C2529 C2528 1.415 . S
H2530 C2527 0.999 . S
H2531 C2512 0.913 . S
H2532 C2550 0.951 . S
H2533 C2552 0.951 . S
H2534 C2554 0.950 . S
H2535 C2555 0.950 . S
H2536 C2557 0.950 . S
H2537 C2560 0.950 . S
H2538 C2561 0.950 . S
H2539 C2563 0.950 . S
H2540 C2564 0.950 . S
H2541 C2565 0.951 . S
H2542 C2567 0.951 . S
H2543 C2569 0.950 . S
H2544 C2570 0.950 . S
H2545 C2572 0.950 . S
H2546 C2575 0.950 . S
H2547 C2576 0.950 . S
H2548 C2578 0.950 . S
H2549 C2579 0.950 . S
C2550 H2532 0.951 . S
C2550 C2551 1.366 . S
C2550 C2552 1.388 . S
C2551 C2550 1.366 . S
C2551 C2555 1.385 . S
C2552 H2533 0.951 . S
C2552 C2550 1.388 . S
C2552 C2553 1.366 . S
C2553 C2552 1.366 . S
C2553 C2554 1.414 . S
C2553 C2556 1.499 . S
C2554 H2534 0.950 . S
C2554 C2553 1.414 . S
C2554 C2555 1.374 . S
C2555 H2535 0.950 . S
C2555 C2551 1.385 . S
C2555 C2554 1.374 . S
C2556 C2553 1.499 . S
C2556 C2557 1.373 . S
C2556 C2558 1.389 . S
C2557 H2536 0.950 . S
C2557 C2556 1.373 . S
C2557 C2573 1.377 . S
C2558 C2556 1.389 . S
C2558 C2559 1.524 . S
C2558 C2572 1.377 . S
C2559 C2558 1.524 . S
C2559 C2560 1.397 . S
C2559 C2564 1.363 . S
C2560 H2537 0.950 . S
C2560 C2559 1.397 . S
C2560 C2561 1.334 . S
C2561 H2538 0.950 . S
C2561 C2560 1.334 . S
C2561 C2562 1.287 . S
C2562 C2561 1.287 . S
C2562 C2563 1.524 . S
C2562 H2581 0.913 . S
C2563 H2539 0.950 . S
C2563 C2562 1.524 . S
C2563 C2564 1.415 . S
C2564 H2540 0.950 . S
C2564 C2559 1.363 . S
C2564 C2563 1.415 . S
C2565 H2541 0.951 . S
C2565 C2566 1.366 . S
C2565 C2567 1.388 . S
C2566 C2565 1.366 . S
C2566 C2570 1.385 . S
C2567 H2542 0.951 . S
C2567 C2565 1.388 . S
C2567 C2568 1.366 . S
C2568 C2567 1.366 . S
C2568 C2569 1.414 . S
C2568 C2571 1.499 . S
C2569 H2543 0.950 . S
C2569 C2568 1.414 . S
C2569 C2570 1.374 . S
C2570 H2544 0.950 . S
C2570 C2566 1.385 . S
C2570 C2569 1.374 . S
C2571 C2568 1.499 . S
C2571 C2572 1.373 . S
C2571 C2573 1.389 . S
C2572 H2545 0.950 . S
C2572 C2558 1.377 . S
C2572 C2571 1.373 . S
C2573 C2557 1.377 . S
C2573 C2571 1.389 . S
C2573 C2574 1.524 . S
C2574 C2573 1.524 . S
C2574 C2575 1.397 . S
C2574 C2579 1.363 . S
C2575 H2546 0.950 . S
C2575 C2574 1.397 . S
C2575 C2576 1.334 . S
C2576 H2547 0.950 . S
C2576 C2575 1.334 . S
C2576 C2577 1.287 . S
C2577 C2576 1.287 . S
C2577 C2578 1.524 . S
C2577 H2580 0.999 . S
C2578 H2548 0.950 . S
C2578 C2577 1.524 . S
C2578 C2579 1.415 . S
C2579 H2549 0.950 . S
C2579 C2574 1.363 . S
C2579 C2578 1.415 . S
H2580 C2577 0.999 . S
H2581 C2562 0.913 . S
H2582 C2600 0.951 . S
H2583 C2602 0.951 . S
H2584 C2604 0.950 . S
H2585 C2605 0.950 . S
H2586 C2607 0.950 . S
H2587 C2610 0.950 . S
H2588 C2611 0.950 . S
H2589 C2613 0.950 . S
H2590 C2614 0.950 . S
H2591 C2615 0.951 . S
H2592 C2617 0.951 . S
H2593 C2619 0.950 . S
H2594 C2620 0.950 . S
H2595 C2622 0.950 . S
H2596 C2625 0.950 . S
H2597 C2626 0.950 . S
H2598 C2628 0.950 . S
H2599 C2629 0.950 . S
C2600 H2582 0.951 . S
C2600 C2601 1.366 . S
C2600 C2602 1.388 . S
C2601 C2600 1.366 . S
C2601 C2605 1.385 . S
C2602 H2583 0.951 . S
C2602 C2600 1.388 . S
C2602 C2603 1.366 . S
C2603 C2602 1.366 . S
C2603 C2604 1.414 . S
C2603 C2606 1.499 . S
C2604 H2584 0.950 . S
C2604 C2603 1.414 . S
C2604 C2605 1.374 . S
C2605 H2585 0.950 . S
C2605 C2601 1.385 . S
C2605 C2604 1.374 . S
C2606 C2603 1.499 . S
C2606 C2607 1.373 . S
C2606 C2608 1.389 . S
C2607 H2586 0.950 . S
C2607 C2606 1.373 . S
C2607 C2623 1.377 . S
C2608 C2606 1.389 . S
C2608 C2609 1.524 . S
C2608 C2622 1.377 . S
C2609 C2608 1.524 . S
C2609 C2610 1.397 . S
C2609 C2614 1.363 . S
C2610 H2587 0.950 . S
C2610 C2609 1.397 . S
C2610 C2611 1.334 . S
C2611 H2588 0.950 . S
C2611 C2610 1.334 . S
C2611 C2612 1.287 . S
C2612 C2611 1.287 . S
C2612 C2613 1.524 . S
C2612 H2631 0.913 . S
C2613 H2589 0.950 . S
C2613 C2612 1.524 . S
C2613 C2614 1.415 . S
C2614 H2590 0.950 . S
C2614 C2609 1.363 . S
C2614 C2613 1.415 . S
C2615 H2591 0.951 . S
C2615 C2616 1.366 . S
C2615 C2617 1.388 . S
C2616 C2615 1.366 . S
C2616 C2620 1.385 . S
C2617 H2592 0.951 . S
C2617 C2615 1.388 . S
C2617 C2618 1.366 . S
C2618 C2617 1.366 . S
C2618 C2619 1.414 . S
C2618 C2621 1.499 . S
C2619 H2593 0.950 . S
C2619 C2618 1.414 . S
C2619 C2620 1.374 . S
C2620 H2594 0.950 . S
C2620 C2616 1.385 . S
C2620 C2619 1.374 . S
C2621 C2618 1.499 . S
C2621 C2622 1.373 . S
C2621 C2623 1.389 . S
C2622 H2595 0.950 . S
C2622 C2608 1.377 . S
C2622 C2621 1.373 . S
C2623 C2607 1.377 . S
C2623 C2621 1.389 . S
C2623 C2624 1.524 . S
C2624 C2623 1.524 . S
C2624 C2625 1.397 . S
C2624 C2629 1.363 . S
C2625 H2596 0.950 . S
C2625 C2624 1.397 . S
C2625 C2626 1.334 . S
C2626 H2597 0.950 . S
C2626 C2625 1.334 . S
C2626 C2627 1.287 . S
C2627 C2626 1.287 . S
C2627 C2628 1.524 . S
C2627 H2630 0.999 . S
C2628 H2598 0.950 . S
C2628 C2627 1.524 . S
C2628 C2629 1.415 . S
C2629 H2599 0.950 . S
C2629 C2624 1.363 . S
C2629 C2628 1.415 . S
H2630 C2627 0.999 . S
H2631 C2612 0.913 . S
H2632 C2650 0.951 . S
H2633 C2652 0.951 . S
H2634 C2654 0.950 . S
H2635 C2655 0.950 . S
H2636 C2657 0.950 . S
H2637 C2660 0.950 . S
H2638 C2661 0.950 . S
H2639 C2663 0.950 . S
H2640 C2664 0.950 . S
H2641 C2665 0.951 . S
H2642 C2667 0.951 . S
H2643 C2669 0.950 . S
H2644 C2670 0.950 . S
H2645 C2672 0.950 . S
H2646 C2675 0.950 . S
H2647 C2676 0.950 . S
H2648 C2678 0.950 . S
H2649 C2679 0.950 . S
C2650 H2632 0.951 . S
C2650 C2651 1.366 . S
C2650 C2652 1.388 . S
C2651 C2650 1.366 . S
C2651 C2655 1.385 . S
C2652 H2633 0.951 . S
C2652 C2650 1.388 . S
C2652 C2653 1.366 . S
C2653 C2652 1.366 . S
C2653 C2654 1.414 . S
C2653 C2656 1.499 . S
C2654 H2634 0.950 . S
C2654 C2653 1.414 . S
C2654 C2655 1.374 . S
C2655 H2635 0.950 . S
C2655 C2651 1.385 . S
C2655 C2654 1.374 . S
C2656 C2653 1.499 . S
C2656 C2657 1.373 . S
C2656 C2658 1.389 . S
C2657 H2636 0.950 . S
C2657 C2656 1.373 . S
C2657 C2673 1.377 . S
C2658 C2656 1.389 . S
C2658 C2659 1.524 . S
C2658 C2672 1.377 . S
C2659 C2658 1.524 . S
C2659 C2660 1.397 . S
C2659 C2664 1.363 . S
C2660 H2637 0.950 . S
C2660 C2659 1.397 . S
C2660 C2661 1.334 . S
C2661 H2638 0.950 . S
C2661 C2660 1.334 . S
C2661 C2662 1.287 . S
C2662 C2661 1.287 . S
C2662 C2663 1.524 . S
C2662 H2681 0.913 . S
C2663 H2639 0.950 . S
C2663 C2662 1.524 . S
C2663 C2664 1.415 . S
C2664 H2640 0.950 . S
C2664 C2659 1.363 . S
C2664 C2663 1.415 . S
C2665 H2641 0.951 . S
C2665 C2666 1.366 . S
C2665 C2667 1.388 . S
C2666 C2665 1.366 . S
C2666 C2670 1.385 . S
C2667 H2642 0.951 . S
C2667 C2665 1.388 . S
C2667 C2668 1.366 . S
C2668 C2667 1.366 . S
C2668 C2669 1.414 . S
C2668 C2671 1.499 . S
C2669 H2643 0.950 . S
C2669 C2668 1.414 . S
C2669 C2670 1.374 . S
C2670 H2644 0.950 . S
C2670 C2666 1.385 . S
C2670 C2669 1.374 . S
C2671 C2668 1.499 . S
C2671 C2672 1.373 . S
C2671 C2673 1.389 . S
C2672 H2645 0.950 . S
C2672 C2658 1.377 . S
C2672 C2671 1.373 . S
C2673 C2657 1.377 . S
C2673 C2671 1.389 . S
C2673 C2674 1.524 . S
C2674 C2673 1.524 . S
C2674 C2675 1.397 . S
C2674 C2679 1.363 . S
C2675 H2646 0.950 . S
C2675 C2674 1.397 . S
C2675 C2676 1.334 . S
C2676 H2647 0.950 . S
C2676 C2675 1.334 . S
C2676 C2677 1.287 . S
C2677 C2676 1.287 . S
C2677 C2678 1.524 . S
C2677 H2680 0.999 . S
C2678 H2648 0.950 . S
C2678 C2677 1.524 . S
C2678 C2679 1.415 . S
C2679 H2649 0.950 . S
C2679 C2674 1.363 . S
C2679 C2678 1.415 . S
H2680 C2677 0.999 . S
H2681 C2662 0.913 . S
H2682 C2700 0.951 . S
H2683 C2702 0.951 1_545 S
H2684 C2704 0.950 . S
H2685 C2705 0.950 . S
H2686 C2707 0.950 . S
H2687 C2710 0.950 1_565 S
H2688 C2711 0.916 1_565 S
H2689 C2713 0.950 . S
H2690 C2714 0.950 . S
H2691 C2715 0.951 . S
H2692 C2717 0.951 . S
H2693 C2719 0.950 . S
H2694 C2720 0.950 . S
H2695 C2722 0.950 . S
H2696 C2725 0.950 . S
H2697 C2726 0.950 . S
H2698 C2728 0.950 . S
H2699 C2729 0.950 . S
C2700 H2682 0.951 . S
C2700 C2701 1.366 . S
C2700 C2702 1.388 . S
C2701 C2700 1.366 . S
C2701 C2705 1.385 . S
C2702 H2683 0.951 1_565 S
C2702 C2700 1.388 . S
C2702 C2703 1.366 . S
C2703 C2702 1.366 . S
C2703 C2704 1.414 . S
C2703 C2706 1.499 1_565 S
C2704 H2684 0.950 . S
C2704 C2703 1.414 . S
C2704 C2705 1.374 . S
C2705 H2685 0.950 . S
C2705 C2701 1.385 . S
C2705 C2704 1.374 . S
C2706 C2703 1.499 1_545 S
C2706 C2707 1.373 . S
C2706 C2708 1.389 . S
C2707 H2686 0.950 . S
C2707 C2706 1.373 . S
C2707 C2723 1.377 . S
C2708 C2706 1.389 . S
C2708 C2709 1.524 . S
C2708 C2722 1.377 . S
C2709 C2708 1.524 . S
C2709 C2710 1.397 . S
C2709 C2714 1.363 . S
C2710 H2687 0.950 1_545 S
C2710 C2709 1.397 . S
C2710 C2711 1.351 . S
C2711 H2688 0.916 1_545 S
C2711 C2710 1.351 . S
C2711 C2712 1.306 . S
C2712 C2711 1.306 . S
C2712 C2713 1.524 . S
C2712 H2731 0.913 . S
C2713 H2689 0.950 . S
C2713 C2712 1.524 . S
C2713 C2714 1.415 . S
C2714 H2690 0.950 . S
C2714 C2709 1.363 . S
C2714 C2713 1.415 . S
C2715 H2691 0.951 . S
C2715 C2716 1.366 . S
C2715 C2717 1.388 . S
C2716 C2715 1.366 . S
C2716 C2720 1.385 . S
C2717 H2692 0.951 . S
C2717 C2715 1.388 . S
C2717 C2718 1.366 . S
C2718 C2717 1.366 . S
C2718 C2719 1.414 . S
C2718 C2721 1.499 . S
C2719 H2693 0.950 . S
C2719 C2718 1.414 . S
C2719 C2720 1.374 . S
C2720 H2694 0.950 . S
C2720 C2716 1.385 . S
C2720 C2719 1.374 . S
C2721 C2718 1.499 . S
C2721 C2722 1.373 . S
C2721 C2723 1.389 . S
C2722 H2695 0.950 . S
C2722 C2708 1.377 . S
C2722 C2721 1.373 . S
C2723 C2707 1.377 . S
C2723 C2721 1.389 . S
C2723 C2724 1.524 . S
C2724 C2723 1.524 . S
C2724 C2725 1.397 . S
C2724 C2729 1.363 . S
C2725 H2696 0.950 . S
C2725 C2724 1.397 . S
C2725 C2726 1.334 . S
C2726 H2697 0.950 . S
C2726 C2725 1.334 . S
C2726 C2727 1.287 . S
C2727 C2726 1.287 . S
C2727 C2728 1.524 . S
C2727 H2730 0.999 . S
C2728 H2698 0.950 . S
C2728 C2727 1.524 . S
C2728 C2729 1.415 . S
C2729 H2699 0.950 . S
C2729 C2724 1.363 . S
C2729 C2728 1.415 . S
H2730 C2727 0.999 . S
H2731 C2712 0.913 . S
H2732 C2750 0.951 . S
H2733 C2752 0.951 1_655 S
H2734 C2754 0.950 . S
H2735 C2755 0.950 . S
H2736 C2757 0.950 . S
H2737 C2760 0.950 . S
H2738 C2761 0.950 . S
H2739 C2763 0.950 . S
H2740 C2764 0.950 . S
H2741 C2765 0.951 . S
H2742 C2767 0.951 . S
H2743 C2769 0.950 . S
H2744 C2770 0.950 . S
H2745 C2772 0.950 . S
H2746 C2775 0.950 . S
H2747 C2776 0.950 . S
H2748 C2778 0.950 . S
H2749 C2779 0.950 . S
C2750 H2732 0.951 . S
C2750 C2751 1.366 . S
C2750 C2752 1.388 . S
C2751 C2750 1.366 . S
C2751 C2755 1.385 . S
C2752 H2733 0.951 1_455 S
C2752 C2750 1.388 . S
C2752 C2753 1.366 . S
C2753 C2752 1.366 . S
C2753 C2754 1.414 . S
C2753 C2756 1.499 1_455 S
C2754 H2734 0.950 . S
C2754 C2753 1.414 . S
C2754 C2755 1.374 . S
C2755 H2735 0.950 . S
C2755 C2751 1.385 . S
C2755 C2754 1.374 . S
C2756 C2753 1.499 1_655 S
C2756 C2757 1.373 . S
C2756 C2758 1.389 . S
C2757 H2736 0.950 . S
C2757 C2756 1.373 . S
C2757 C2773 1.377 . S
C2758 C2756 1.389 . S
C2758 C2759 1.524 . S
C2758 C2772 1.377 . S
C2759 C2758 1.524 . S
C2759 C2760 1.397 . S
C2759 C2764 1.363 . S
C2760 H2737 0.950 . S
C2760 C2759 1.397 . S
C2760 C2761 1.334 . S
C2761 H2738 0.950 . S
C2761 C2760 1.334 . S
C2761 C2762 1.287 . S
C2762 C2761 1.287 . S
C2762 C2763 1.524 . S
C2762 H2781 0.913 . S
C2763 H2739 0.950 . S
C2763 C2762 1.524 . S
C2763 C2764 1.415 . S
C2764 H2740 0.950 . S
C2764 C2759 1.363 . S
C2764 C2763 1.415 . S
C2765 H2741 0.951 . S
C2765 C2766 1.366 . S
C2765 C2767 1.388 . S
C2766 C2765 1.366 . S
C2766 C2770 1.385 . S
C2767 H2742 0.951 . S
C2767 C2765 1.388 . S
C2767 C2768 1.366 . S
C2768 C2767 1.366 . S
C2768 C2769 1.414 . S
C2768 C2771 1.499 . S
C2769 H2743 0.950 . S
C2769 C2768 1.414 . S
C2769 C2770 1.374 . S
C2770 H2744 0.950 . S
C2770 C2766 1.385 . S
C2770 C2769 1.374 . S
C2771 C2768 1.499 . S
C2771 C2772 1.373 . S
C2771 C2773 1.389 . S
C2772 H2745 0.950 . S
C2772 C2758 1.377 . S
C2772 C2771 1.373 . S
C2773 C2757 1.377 . S
C2773 C2771 1.389 . S
C2773 C2774 1.524 . S
C2774 C2773 1.524 . S
C2774 C2775 1.397 . S
C2774 C2779 1.363 . S
C2775 H2746 0.950 . S
C2775 C2774 1.397 . S
C2775 C2776 1.334 . S
C2776 H2747 0.950 . S
C2776 C2775 1.334 . S
C2776 C2777 1.287 . S
C2777 C2776 1.287 . S
C2777 C2778 1.524 . S
C2777 H2780 0.999 . S
C2778 H2748 0.950 . S
C2778 C2777 1.524 . S
C2778 C2779 1.415 . S
C2779 H2749 0.950 . S
C2779 C2774 1.363 . S
C2779 C2778 1.415 . S
H2780 C2777 0.999 . S
H2781 C2762 0.913 . S
H2782 C2800 0.951 . S
H2783 C2802 0.951 . S
H2784 C2804 0.950 . S
H2785 C2805 0.950 . S
H2786 C2807 0.950 . S
H2787 C2810 0.950 . S
H2788 C2811 0.950 . S
H2789 C2813 0.950 . S
H2790 C2814 0.950 . S
H2791 C2815 0.951 . S
H2792 C2817 0.951 . S
H2793 C2819 0.950 . S
H2794 C2820 0.950 . S
H2795 C2822 0.950 . S
H2796 C2825 0.950 . S
H2797 C2826 0.950 . S
H2798 C2828 0.950 . S
H2799 C2829 0.950 . S
C2800 H2782 0.951 . S
C2800 C2801 1.366 . S
C2800 C2802 1.388 . S
C2801 C2800 1.366 . S
C2801 C2805 1.385 . S
C2802 H2783 0.951 . S
C2802 C2800 1.388 . S
C2802 C2803 1.366 . S
C2803 C2802 1.366 . S
C2803 C2804 1.414 . S
C2803 C2806 1.499 . S
C2804 H2784 0.950 . S
C2804 C2803 1.414 . S
C2804 C2805 1.374 . S
C2805 H2785 0.950 . S
C2805 C2801 1.385 . S
C2805 C2804 1.374 . S
C2806 C2803 1.499 . S
C2806 C2807 1.373 . S
C2806 C2808 1.389 . S
C2807 H2786 0.950 . S
C2807 C2806 1.373 . S
C2807 C2823 1.377 . S
C2808 C2806 1.389 . S
C2808 C2809 1.524 . S
C2808 C2822 1.377 . S
C2809 C2808 1.524 . S
C2809 C2810 1.397 . S
C2809 C2814 1.363 . S
C2810 H2787 0.950 . S
C2810 C2809 1.397 . S
C2810 C2811 1.334 . S
C2811 H2788 0.950 . S
C2811 C2810 1.334 . S
C2811 C2812 1.287 . S
C2812 C2811 1.287 . S
C2812 C2813 1.524 . S
C2812 H2831 0.913 . S
C2813 H2789 0.950 . S
C2813 C2812 1.524 . S
C2813 C2814 1.415 . S
C2814 H2790 0.950 . S
C2814 C2809 1.363 . S
C2814 C2813 1.415 . S
C2815 H2791 0.951 . S
C2815 C2816 1.366 . S
C2815 C2817 1.388 . S
C2816 C2815 1.366 . S
C2816 C2820 1.385 . S
C2817 H2792 0.951 . S
C2817 C2815 1.388 . S
C2817 C2818 1.366 . S
C2818 C2817 1.366 . S
C2818 C2819 1.414 . S
C2818 C2821 1.499 . S
C2819 H2793 0.950 . S
C2819 C2818 1.414 . S
C2819 C2820 1.374 . S
C2820 H2794 0.950 . S
C2820 C2816 1.385 . S
C2820 C2819 1.374 . S
C2821 C2818 1.499 . S
C2821 C2822 1.373 . S
C2821 C2823 1.389 . S
C2822 H2795 0.950 . S
C2822 C2808 1.377 . S
C2822 C2821 1.373 . S
C2823 C2807 1.377 . S
C2823 C2821 1.389 . S
C2823 C2824 1.524 . S
C2824 C2823 1.524 . S
C2824 C2825 1.397 . S
C2824 C2829 1.363 . S
C2825 H2796 0.950 . S
C2825 C2824 1.397 . S
C2825 C2826 1.334 . S
C2826 H2797 0.950 . S
C2826 C2825 1.334 . S
C2826 C2827 1.287 . S
C2827 C2826 1.287 . S
C2827 C2828 1.524 . S
C2827 H2830 0.999 . S
C2828 H2798 0.950 . S
C2828 C2827 1.524 . S
C2828 C2829 1.415 . S
C2829 H2799 0.950 . S
C2829 C2824 1.363 . S
C2829 C2828 1.415 . S
H2830 C2827 0.999 . S
H2831 C2812 0.913 . S
H2832 C2850 0.951 . S
H2833 C2852 0.951 . S
H2834 C2854 0.950 1_655 S
H2835 C2855 0.950 . S
H2836 C2857 0.950 . S
H2837 C2860 0.950 . S
H2838 C2861 0.950 . S
H2839 C2863 0.950 . S
H2840 C2864 0.950 1_655 S
H2841 C2865 0.951 . S
H2842 C2867 0.951 . S
H2843 C2869 0.950 . S
H2844 C2870 0.950 . S
H2845 C2872 0.950 . S
H2846 C2875 0.950 . S
H2847 C2876 0.950 . S
H2848 C2878 0.950 . S
H2849 C2879 0.950 . S
C2850 H2832 0.951 . S
C2850 C2851 1.366 . S
C2850 C2852 1.388 . S
C2851 C2850 1.366 . S
C2851 C2855 1.385 . S
C2852 H2833 0.951 . S
C2852 C2850 1.388 . S
C2852 C2853 1.366 . S
C2853 C2852 1.366 . S
C2853 C2854 1.414 . S
C2853 C2856 1.499 1_455 S
C2854 H2834 0.950 1_455 S
C2854 C2853 1.414 . S
C2854 C2855 1.374 . S
C2855 H2835 0.950 . S
C2855 C2851 1.385 . S
C2855 C2854 1.374 . S
C2856 C2853 1.499 1_655 S
C2856 C2857 1.373 . S
C2856 C2858 1.389 . S
C2857 H2836 0.950 . S
C2857 C2856 1.373 . S
C2857 C2873 1.377 . S
C2858 C2856 1.389 . S
C2858 C2859 1.524 . S
C2858 C2872 1.377 . S
C2859 C2858 1.524 . S
C2859 C2860 1.397 1_655 S
C2859 C2864 1.363 1_655 S
C2860 H2837 0.950 . S
C2860 C2859 1.397 1_455 S
C2860 C2861 1.334 . S
C2861 H2838 0.950 . S
C2861 C2860 1.334 . S
C2861 C2862 1.287 . S
C2862 C2861 1.287 . S
C2862 C2863 1.524 . S
C2862 H2881 0.913 . S
C2863 H2839 0.950 . S
C2863 C2862 1.524 . S
C2863 C2864 1.415 . S
C2864 H2840 0.950 1_455 S
C2864 C2859 1.363 1_455 S
C2864 C2863 1.415 . S
C2865 H2841 0.951 . S
C2865 C2866 1.366 . S
C2865 C2867 1.388 . S
C2866 C2865 1.366 . S
C2866 C2870 1.385 . S
C2867 H2842 0.951 . S
C2867 C2865 1.388 . S
C2867 C2868 1.366 . S
C2868 C2867 1.366 . S
C2868 C2869 1.414 . S
C2868 C2871 1.499 . S
C2869 H2843 0.950 . S
C2869 C2868 1.414 . S
C2869 C2870 1.374 . S
C2870 H2844 0.950 . S
C2870 C2866 1.385 . S
C2870 C2869 1.374 . S
C2871 C2868 1.499 . S
C2871 C2872 1.373 . S
C2871 C2873 1.389 . S
C2872 H2845 0.950 . S
C2872 C2858 1.377 . S
C2872 C2871 1.373 . S
C2873 C2857 1.377 . S
C2873 C2871 1.389 . S
C2873 C2874 1.524 . S
C2874 C2873 1.524 . S
C2874 C2875 1.397 . S
C2874 C2879 1.363 . S
C2875 H2846 0.950 . S
C2875 C2874 1.397 . S
C2875 C2876 1.334 . S
C2876 H2847 0.950 . S
C2876 C2875 1.334 . S
C2876 C2877 1.287 . S
C2877 C2876 1.287 . S
C2877 C2878 1.524 . S
C2877 H2880 0.999 . S
C2878 H2848 0.950 . S
C2878 C2877 1.524 . S
C2878 C2879 1.415 . S
C2879 H2849 0.950 . S
C2879 C2874 1.363 . S
C2879 C2878 1.415 . S
H2880 C2877 0.999 . S
H2881 C2862 0.913 . S
H2882 C2900 0.951 . S
H2883 C2902 0.951 . S
H2884 C2904 0.950 . S
H2885 C2905 0.950 . S
H2886 C2907 0.950 . S
H2887 C2910 0.950 . S
H2888 C2911 0.950 . S
H2889 C2913 0.950 . S
H2890 C2914 0.950 . S
H2891 C2915 0.951 . S
H2892 C2917 0.951 . S
H2893 C2919 0.950 . S
H2894 C2920 0.950 . S
H2895 C2922 0.950 . S
H2896 C2925 0.950 . S
H2897 C2926 0.950 . S
H2898 C2928 0.950 . S
H2899 C2929 0.950 . S
C2900 H2882 0.951 . S
C2900 C2901 1.366 . S
C2900 C2902 1.388 . S
C2901 C2900 1.366 . S
C2901 C2905 1.385 . S
C2902 H2883 0.951 . S
C2902 C2900 1.388 . S
C2902 C2903 1.366 . S
C2903 C2902 1.366 . S
C2903 C2904 1.414 . S
C2903 C2906 1.499 . S
C2904 H2884 0.950 . S
C2904 C2903 1.414 . S
C2904 C2905 1.374 . S
C2905 H2885 0.950 . S
C2905 C2901 1.385 . S
C2905 C2904 1.374 . S
C2906 C2903 1.499 . S
C2906 C2907 1.373 . S
C2906 C2908 1.389 . S
C2907 H2886 0.950 . S
C2907 C2906 1.373 . S
C2907 C2923 1.377 . S
C2908 C2906 1.389 . S
C2908 C2909 1.524 . S
C2908 C2922 1.377 . S
C2909 C2908 1.524 . S
C2909 C2910 1.397 . S
C2909 C2914 1.363 . S
C2910 H2887 0.950 . S
C2910 C2909 1.397 . S
C2910 C2911 1.334 . S
C2911 H2888 0.950 . S
C2911 C2910 1.334 . S
C2911 C2912 1.287 . S
C2912 C2911 1.287 . S
C2912 C2913 1.524 . S
C2912 H2931 0.913 . S
C2913 H2889 0.950 . S
C2913 C2912 1.524 . S
C2913 C2914 1.415 . S
C2914 H2890 0.950 . S
C2914 C2909 1.363 . S
C2914 C2913 1.415 . S
C2915 H2891 0.951 . S
C2915 C2916 1.366 . S
C2915 C2917 1.388 . S
C2916 C2915 1.366 . S
C2916 C2920 1.385 . S
C2917 H2892 0.951 . S
C2917 C2915 1.388 . S
C2917 C2918 1.366 . S
C2918 C2917 1.366 . S
C2918 C2919 1.414 . S
C2918 C2921 1.499 . S
C2919 H2893 0.950 . S
C2919 C2918 1.414 . S
C2919 C2920 1.374 . S
C2920 H2894 0.950 . S
C2920 C2916 1.385 . S
C2920 C2919 1.374 . S
C2921 C2918 1.499 . S
C2921 C2922 1.373 . S
C2921 C2923 1.389 . S
C2922 H2895 0.950 . S
C2922 C2908 1.377 . S
C2922 C2921 1.373 . S
C2923 C2907 1.377 . S
C2923 C2921 1.389 . S
C2923 C2924 1.524 . S
C2924 C2923 1.524 . S
C2924 C2925 1.397 . S
C2924 C2929 1.363 . S
C2925 H2896 0.950 . S
C2925 C2924 1.397 . S
C2925 C2926 1.334 . S
C2926 H2897 0.950 . S
C2926 C2925 1.334 . S
C2926 C2927 1.287 . S
C2927 C2926 1.287 . S
C2927 C2928 1.524 . S
C2927 H2930 0.999 . S
C2928 H2898 0.950 . S
C2928 C2927 1.524 . S
C2928 C2929 1.415 . S
C2929 H2899 0.950 . S
C2929 C2924 1.363 . S
C2929 C2928 1.415 . S
H2930 C2927 0.999 . S
H2931 C2912 0.913 . S
H2932 C2950 0.951 . S
H2933 C2952 0.936 1_545 S
H2934 C2954 0.950 . S
H2935 C2955 0.950 . S
H2936 C2957 0.950 . S
H2937 C2960 0.950 1_565 S
H2938 C2961 0.950 . S
H2939 C2963 0.950 . S
H2940 C2964 0.950 . S
H2941 C2965 0.951 . S
H2942 C2967 0.951 . S
H2943 C2969 0.950 . S
H2944 C2970 0.950 . S
H2945 C2972 0.950 . S
H2946 C2975 0.950 . S
H2947 C2976 0.950 . S
H2948 C2978 0.950 . S
H2949 C2979 0.950 . S
C2950 H2932 0.951 . S
C2950 C2951 1.366 . S
C2950 C2952 1.388 . S
C2951 C2950 1.366 . S
C2951 C2955 1.385 . S
C2952 H2933 0.936 1_565 S
C2952 C2950 1.388 . S
C2952 C2953 1.366 . S
C2953 C2952 1.366 . S
C2953 C2954 1.414 . S
C2953 C2956 1.499 1_565 S
C2954 H2934 0.950 . S
C2954 C2953 1.414 . S
C2954 C2955 1.374 . S
C2955 H2935 0.950 . S
C2955 C2951 1.385 . S
C2955 C2954 1.374 . S
C2956 C2953 1.499 1_545 S
C2956 C2957 1.373 . S
C2956 C2958 1.389 . S
C2957 H2936 0.950 . S
C2957 C2956 1.373 . S
C2957 C2973 1.377 . S
C2958 C2956 1.389 . S
C2958 C2959 1.524 . S
C2958 C2972 1.377 . S
C2959 C2958 1.524 . S
C2959 C2960 1.397 . S
C2959 C2964 1.363 . S
C2960 H2937 0.950 1_545 S
C2960 C2959 1.397 . S
C2960 C2961 1.334 1_545 S
C2961 H2938 0.950 . S
C2961 C2960 1.334 1_565 S
C2961 C2962 1.287 1_565 S
C2962 C2961 1.287 1_545 S
C2962 C2963 1.524 . S
C2962 H2981 0.913 . S
C2963 H2939 0.950 . S
C2963 C2962 1.524 . S
C2963 C2964 1.415 . S
C2964 H2940 0.950 . S
C2964 C2959 1.363 . S
C2964 C2963 1.415 . S
C2965 H2941 0.951 . S
C2965 C2966 1.366 . S
C2965 C2967 1.388 . S
C2966 C2965 1.366 . S
C2966 C2970 1.385 . S
C2967 H2942 0.951 . S
C2967 C2965 1.388 . S
C2967 C2968 1.366 . S
C2968 C2967 1.366 . S
C2968 C2969 1.414 . S
C2968 C2971 1.499 . S
C2969 H2943 0.950 . S
C2969 C2968 1.414 . S
C2969 C2970 1.374 . S
C2970 H2944 0.950 . S
C2970 C2966 1.385 . S
C2970 C2969 1.374 . S
C2971 C2968 1.499 . S
C2971 C2972 1.373 . S
C2971 C2973 1.389 . S
C2972 H2945 0.950 . S
C2972 C2958 1.377 . S
C2972 C2971 1.373 . S
C2973 C2957 1.377 . S
C2973 C2971 1.389 . S
C2973 C2974 1.524 . S
C2974 C2973 1.524 . S
C2974 C2975 1.397 . S
C2974 C2979 1.363 . S
C2975 H2946 0.950 . S
C2975 C2974 1.397 . S
C2975 C2976 1.334 . S
C2976 H2947 0.950 . S
C2976 C2975 1.334 . S
C2976 C2977 1.287 . S
C2977 C2976 1.287 . S
C2977 C2978 1.524 . S
C2977 H2980 0.999 . S
C2978 H2948 0.950 . S
C2978 C2977 1.524 . S
C2978 C2979 1.415 . S
C2979 H2949 0.950 . S
C2979 C2974 1.363 . S
C2979 C2978 1.415 . S
H2980 C2977 0.999 . S
H2981 C2962 0.913 . S
H2982 C3000 0.951 . S
H2983 C3002 0.951 . S
H2984 C3004 0.950 . S
H2985 C3005 0.950 . S
H2986 C3007 0.950 . S
H2987 C3010 0.950 . S
H2988 C3011 0.950 . S
H2989 C3013 0.950 . S
H2990 C3014 0.950 . S
H2991 C3015 0.951 . S
H2992 C3017 0.951 . S
H2993 C3019 0.950 . S
H2994 C3020 0.950 . S
H2995 C3022 0.950 . S
H2996 C3025 0.950 . S
H2997 C3026 0.950 . S
H2998 C3028 0.950 . S
H2999 C3029 0.950 . S
C3000 H2982 0.951 . S
C3000 C3001 1.366 . S
C3000 C3002 1.388 . S
C3001 C3000 1.366 . S
C3001 C3005 1.385 . S
C3002 H2983 0.951 . S
C3002 C3000 1.388 . S
C3002 C3003 1.366 . S
C3003 C3002 1.366 . S
C3003 C3004 1.414 . S
C3003 C3006 1.499 . S
C3004 H2984 0.950 . S
C3004 C3003 1.414 . S
C3004 C3005 1.374 . S
C3005 H2985 0.950 . S
C3005 C3001 1.385 . S
C3005 C3004 1.374 . S
C3006 C3003 1.499 . S
C3006 C3007 1.373 . S
C3006 C3008 1.389 . S
C3007 H2986 0.950 . S
C3007 C3006 1.373 . S
C3007 C3023 1.377 . S
C3008 C3006 1.389 . S
C3008 C3009 1.524 . S
C3008 C3022 1.377 . S
C3009 C3008 1.524 . S
C3009 C3010 1.397 . S
C3009 C3014 1.363 . S
C3010 H2987 0.950 . S
C3010 C3009 1.397 . S
C3010 C3011 1.334 . S
C3011 H2988 0.950 . S
C3011 C3010 1.334 . S
C3011 C3012 1.287 . S
C3012 C3011 1.287 . S
C3012 C3013 1.524 . S
C3012 H3031 0.913 . S
C3013 H2989 0.950 . S
C3013 C3012 1.524 . S
C3013 C3014 1.415 . S
C3014 H2990 0.950 . S
C3014 C3009 1.363 . S
C3014 C3013 1.415 . S
C3015 H2991 0.951 . S
C3015 C3016 1.366 . S
C3015 C3017 1.388 . S
C3016 C3015 1.366 . S
C3016 C3020 1.385 . S
C3017 H2992 0.951 . S
C3017 C3015 1.388 . S
C3017 C3018 1.366 . S
C3018 C3017 1.366 . S
C3018 C3019 1.414 . S
C3018 C3021 1.499 . S
C3019 H2993 0.950 . S
C3019 C3018 1.414 . S
C3019 C3020 1.374 . S
C3020 H2994 0.950 . S
C3020 C3016 1.385 . S
C3020 C3019 1.374 . S
C3021 C3018 1.499 . S
C3021 C3022 1.373 . S
C3021 C3023 1.389 . S
C3022 H2995 0.950 . S
C3022 C3008 1.377 . S
C3022 C3021 1.373 . S
C3023 C3007 1.377 . S
C3023 C3021 1.389 . S
C3023 C3024 1.524 . S
C3024 C3023 1.524 . S
C3024 C3025 1.397 . S
C3024 C3029 1.363 . S
C3025 H2996 0.950 . S
C3025 C3024 1.397 . S
C3025 C3026 1.334 . S
C3026 H2997 0.950 . S
C3026 C3025 1.334 . S
C3026 C3027 1.287 . S
C3027 C3026 1.287 . S
C3027 C3028 1.524 . S
C3027 H3030 0.999 . S
C3028 H2998 0.950 . S
C3028 C3027 1.524 . S
C3028 C3029 1.415 . S
C3029 H2999 0.950 . S
C3029 C3024 1.363 . S
C3029 C3028 1.415 . S
H3030 C3027 0.999 . S
H3031 C3012 0.913 . S
H3032 C3050 0.951 . S
H3033 C3052 0.951 . S
H3034 C3054 0.950 . S
H3035 C3055 0.950 . S
H3036 C3057 0.950 . S
H3037 C3060 0.950 . S
H3038 C3061 0.950 . S
H3039 C3063 0.950 . S
H3040 C3064 0.950 . S
H3041 C3065 0.951 . S
H3042 C3067 0.951 . S
H3043 C3069 0.950 . S
H3044 C3070 0.950 . S
H3045 C3072 0.950 . S
H3046 C3075 0.950 . S
H3047 C3076 0.950 . S
H3048 C3078 0.950 . S
H3049 C3079 0.950 . S
C3050 H3032 0.951 . S
C3050 C3051 1.366 . S
C3050 C3052 1.388 . S
C3051 C3050 1.366 . S
C3051 C3055 1.385 . S
C3052 H3033 0.951 . S
C3052 C3050 1.388 . S
C3052 C3053 1.366 . S
C3053 C3052 1.366 . S
C3053 C3054 1.414 . S
C3053 C3056 1.499 . S
C3054 H3034 0.950 . S
C3054 C3053 1.414 . S
C3054 C3055 1.374 . S
C3055 H3035 0.950 . S
C3055 C3051 1.385 . S
C3055 C3054 1.374 . S
C3056 C3053 1.499 . S
C3056 C3057 1.373 . S
C3056 C3058 1.389 . S
C3057 H3036 0.950 . S
C3057 C3056 1.373 . S
C3057 C3073 1.377 . S
C3058 C3056 1.389 . S
C3058 C3059 1.524 . S
C3058 C3072 1.377 . S
C3059 C3058 1.524 . S
C3059 C3060 1.397 . S
C3059 C3064 1.363 . S
C3060 H3037 0.950 . S
C3060 C3059 1.397 . S
C3060 C3061 1.334 . S
C3061 H3038 0.950 . S
C3061 C3060 1.334 . S
C3061 C3062 1.287 . S
C3062 C3061 1.287 . S
C3062 C3063 1.524 . S
C3062 H3081 0.913 . S
C3063 H3039 0.950 . S
C3063 C3062 1.524 . S
C3063 C3064 1.415 . S
C3064 H3040 0.950 . S
C3064 C3059 1.363 . S
C3064 C3063 1.415 . S
C3065 H3041 0.951 . S
C3065 C3066 1.366 . S
C3065 C3067 1.388 . S
C3066 C3065 1.366 . S
C3066 C3070 1.385 . S
C3067 H3042 0.951 . S
C3067 C3065 1.388 . S
C3067 C3068 1.366 . S
C3068 C3067 1.366 . S
C3068 C3069 1.414 . S
C3068 C3071 1.499 . S
C3069 H3043 0.950 . S
C3069 C3068 1.414 . S
C3069 C3070 1.374 . S
C3070 H3044 0.950 . S
C3070 C3066 1.385 . S
C3070 C3069 1.374 . S
C3071 C3068 1.499 . S
C3071 C3072 1.373 . S
C3071 C3073 1.389 . S
C3072 H3045 0.950 . S
C3072 C3058 1.377 . S
C3072 C3071 1.373 . S
C3073 C3057 1.377 . S
C3073 C3071 1.389 . S
C3073 C3074 1.524 . S
C3074 C3073 1.524 . S
C3074 C3075 1.397 . S
C3074 C3079 1.363 . S
C3075 H3046 0.950 . S
C3075 C3074 1.397 . S
C3075 C3076 1.334 . S
C3076 H3047 0.950 . S
C3076 C3075 1.334 . S
C3076 C3077 1.287 . S
C3077 C3076 1.287 . S
C3077 C3078 1.524 . S
C3077 H3080 0.999 . S
C3078 H3048 0.950 . S
C3078 C3077 1.524 . S
C3078 C3079 1.415 . S
C3079 H3049 0.950 . S
C3079 C3074 1.363 . S
C3079 C3078 1.415 . S
H3080 C3077 0.999 . S
H3081 C3062 0.913 . S
H3082 C3100 0.951 . S
H3083 C3102 0.951 . S
H3084 C3104 0.950 . S
H3085 C3105 0.950 . S
H3086 C3107 0.950 . S
H3087 C3110 0.950 . S
H3088 C3111 0.950 . S
H3089 C3113 0.950 . S
H3090 C3114 0.950 . S
H3091 C3115 0.951 . S
H3092 C3117 0.951 . S
H3093 C3119 0.950 . S
H3094 C3120 0.950 . S
H3095 C3122 0.950 . S
H3096 C3125 0.950 . S
H3097 C3126 0.950 . S
H3098 C3128 0.950 . S
H3099 C3129 0.950 . S
C3100 H3082 0.951 . S
C3100 C3101 1.366 . S
C3100 C3102 1.388 . S
C3101 C3100 1.366 . S
C3101 C3105 1.385 . S
C3102 H3083 0.951 . S
C3102 C3100 1.388 . S
C3102 C3103 1.366 . S
C3103 C3102 1.366 . S
C3103 C3104 1.414 . S
C3103 C3106 1.499 . S
C3104 H3084 0.950 . S
C3104 C3103 1.414 . S
C3104 C3105 1.374 . S
C3105 H3085 0.950 . S
C3105 C3101 1.385 . S
C3105 C3104 1.374 . S
C3106 C3103 1.499 . S
C3106 C3107 1.373 . S
C3106 C3108 1.389 . S
C3107 H3086 0.950 . S
C3107 C3106 1.373 . S
C3107 C3123 1.377 . S
C3108 C3106 1.389 . S
C3108 C3109 1.524 . S
C3108 C3122 1.377 . S
C3109 C3108 1.524 . S
C3109 C3110 1.397 . S
C3109 C3114 1.363 . S
C3110 H3087 0.950 . S
C3110 C3109 1.397 . S
C3110 C3111 1.334 . S
C3111 H3088 0.950 . S
C3111 C3110 1.334 . S
C3111 C3112 1.287 . S
C3112 C3111 1.287 . S
C3112 C3113 1.524 . S
C3112 H3131 0.913 . S
C3113 H3089 0.950 . S
C3113 C3112 1.524 . S
C3113 C3114 1.415 . S
C3114 H3090 0.950 . S
C3114 C3109 1.363 . S
C3114 C3113 1.415 . S
C3115 H3091 0.951 . S
C3115 C3116 1.366 . S
C3115 C3117 1.388 . S
C3116 C3115 1.366 . S
C3116 C3120 1.385 . S
C3117 H3092 0.951 . S
C3117 C3115 1.388 . S
C3117 C3118 1.366 . S
C3118 C3117 1.366 . S
C3118 C3119 1.414 . S
C3118 C3121 1.499 . S
C3119 H3093 0.950 . S
C3119 C3118 1.414 . S
C3119 C3120 1.374 . S
C3120 H3094 0.950 . S
C3120 C3116 1.385 . S
C3120 C3119 1.374 . S
C3121 C3118 1.499 . S
C3121 C3122 1.373 . S
C3121 C3123 1.389 . S
C3122 H3095 0.950 . S
C3122 C3108 1.377 . S
C3122 C3121 1.373 . S
C3123 C3107 1.377 . S
C3123 C3121 1.389 . S
C3123 C3124 1.524 . S
C3124 C3123 1.524 . S
C3124 C3125 1.397 . S
C3124 C3129 1.363 . S
C3125 H3096 0.950 . S
C3125 C3124 1.397 . S
C3125 C3126 1.334 . S
C3126 H3097 0.950 . S
C3126 C3125 1.334 . S
C3126 C3127 1.287 . S
C3127 C3126 1.287 . S
C3127 C3128 1.524 . S
C3127 H3130 0.999 . S
C3128 H3098 0.950 . S
C3128 C3127 1.524 . S
C3128 C3129 1.415 . S
C3129 H3099 0.950 . S
C3129 C3124 1.363 . S
C3129 C3128 1.415 . S
H3130 C3127 0.999 . S
H3131 C3112 0.913 . S
H3132 C3150 0.951 . S
H3133 C3152 0.951 . S
H3134 C3154 0.950 . S
H3135 C3155 0.950 . S
H3136 C3157 0.950 . S
H3137 C3160 0.950 . S
H3138 C3161 0.950 . S
H3139 C3163 0.950 . S
H3140 C3164 0.950 . S
H3141 C3165 0.951 . S
H3142 C3167 0.951 . S
H3143 C3169 0.950 . S
H3144 C3170 0.950 . S
H3145 C3172 0.950 . S
H3146 C3175 0.950 . S
H3147 C3176 0.950 . S
H3148 C3178 0.950 . S
H3149 C3179 0.950 . S
C3150 H3132 0.951 . S
C3150 C3151 1.366 . S
C3150 C3152 1.388 . S
C3151 C3150 1.366 . S
C3151 C3155 1.385 . S
C3152 H3133 0.951 . S
C3152 C3150 1.388 . S
C3152 C3153 1.366 . S
C3153 C3152 1.366 . S
C3153 C3154 1.414 . S
C3153 C3156 1.499 . S
C3154 H3134 0.950 . S
C3154 C3153 1.414 . S
C3154 C3155 1.374 . S
C3155 H3135 0.950 . S
C3155 C3151 1.385 . S
C3155 C3154 1.374 . S
C3156 C3153 1.499 . S
C3156 C3157 1.373 . S
C3156 C3158 1.389 . S
C3157 H3136 0.950 . S
C3157 C3156 1.373 . S
C3157 C3173 1.377 . S
C3158 C3156 1.389 . S
C3158 C3159 1.524 . S
C3158 C3172 1.377 . S
C3159 C3158 1.524 . S
C3159 C3160 1.397 . S
C3159 C3164 1.363 . S
C3160 H3137 0.950 . S
C3160 C3159 1.397 . S
C3160 C3161 1.334 . S
C3161 H3138 0.950 . S
C3161 C3160 1.334 . S
C3161 C3162 1.287 . S
C3162 C3161 1.287 . S
C3162 C3163 1.524 . S
C3162 H3181 0.913 . S
C3163 H3139 0.950 . S
C3163 C3162 1.524 . S
C3163 C3164 1.415 . S
C3164 H3140 0.950 . S
C3164 C3159 1.363 . S
C3164 C3163 1.415 . S
C3165 H3141 0.951 . S
C3165 C3166 1.366 . S
C3165 C3167 1.388 . S
C3166 C3165 1.366 . S
C3166 C3170 1.385 . S
C3167 H3142 0.951 . S
C3167 C3165 1.388 . S
C3167 C3168 1.366 . S
C3168 C3167 1.366 . S
C3168 C3169 1.414 . S
C3168 C3171 1.499 . S
C3169 H3143 0.950 . S
C3169 C3168 1.414 . S
C3169 C3170 1.374 . S
C3170 H3144 0.950 . S
C3170 C3166 1.385 . S
C3170 C3169 1.374 . S
C3171 C3168 1.499 . S
C3171 C3172 1.373 . S
C3171 C3173 1.389 . S
C3172 H3145 0.950 . S
C3172 C3158 1.377 . S
C3172 C3171 1.373 . S
C3173 C3157 1.377 . S
C3173 C3171 1.389 . S
C3173 C3174 1.524 . S
C3174 C3173 1.524 . S
C3174 C3175 1.397 . S
C3174 C3179 1.363 . S
C3175 H3146 0.950 . S
C3175 C3174 1.397 . S
C3175 C3176 1.334 . S
C3176 H3147 0.950 . S
C3176 C3175 1.334 . S
C3176 C3177 1.287 . S
C3177 C3176 1.287 . S
C3177 C3178 1.524 . S
C3177 H3180 0.999 . S
C3178 H3148 0.950 . S
C3178 C3177 1.524 . S
C3178 C3179 1.415 . S
C3179 H3149 0.950 . S
C3179 C3174 1.363 . S
C3179 C3178 1.415 . S
H3180 C3177 0.999 . S
H3181 C3162 0.913 . S
H3182 C3200 0.951 . S
H3183 C3202 0.951 . S
H3184 C3204 0.950 . S
H3185 C3205 0.950 . S
H3186 C3207 0.950 . S
H3187 C3210 0.950 . S
H3188 C3211 0.950 . S
H3189 C3213 0.950 . S
H3190 C3214 0.950 . S
H3191 C3215 0.951 1_655 S
H3192 C3217 0.951 . S
H3193 C3219 0.950 . S
H3194 C3220 0.950 . S
H3195 C3222 0.950 . S
H3196 C3225 0.950 . S
H3197 C3226 0.950 . S
H3198 C3228 0.950 . S
H3199 C3229 0.950 . S
C3200 H3182 0.951 . S
C3200 C3201 1.366 . S
C3200 C3202 1.388 . S
C3201 C3200 1.366 . S
C3201 C3205 1.385 . S
C3202 H3183 0.951 . S
C3202 C3200 1.388 . S
C3202 C3203 1.366 . S
C3203 C3202 1.366 . S
C3203 C3204 1.414 . S
C3203 C3206 1.499 . S
C3204 H3184 0.950 . S
C3204 C3203 1.414 . S
C3204 C3205 1.374 . S
C3205 H3185 0.950 . S
C3205 C3201 1.385 . S
C3205 C3204 1.374 . S
C3206 C3203 1.499 . S
C3206 C3207 1.373 . S
C3206 C3208 1.389 . S
C3207 H3186 0.950 . S
C3207 C3206 1.373 . S
C3207 C3223 1.377 . S
C3208 C3206 1.389 . S
C3208 C3209 1.524 . S
C3208 C3222 1.377 . S
C3209 C3208 1.524 . S
C3209 C3210 1.397 . S
C3209 C3214 1.363 . S
C3210 H3187 0.950 . S
C3210 C3209 1.397 . S
C3210 C3211 1.334 . S
C3211 H3188 0.950 . S
C3211 C3210 1.334 . S
C3211 C3212 1.287 . S
C3212 C3211 1.287 . S
C3212 C3213 1.524 . S
C3212 H3231 0.913 . S
C3213 H3189 0.950 . S
C3213 C3212 1.524 . S
C3213 C3214 1.415 . S
C3214 H3190 0.950 . S
C3214 C3209 1.363 . S
C3214 C3213 1.415 . S
C3215 H3191 0.951 1_455 S
C3215 C3216 1.366 . S
C3215 C3217 1.388 . S
C3216 C3215 1.366 . S
C3216 C3220 1.385 . S
C3217 H3192 0.951 . S
C3217 C3215 1.388 . S
C3217 C3218 1.366 . S
C3218 C3217 1.366 . S
C3218 C3219 1.414 . S
C3218 C3221 1.499 . S
C3219 H3193 0.950 . S
C3219 C3218 1.414 . S
C3219 C3220 1.374 . S
C3220 H3194 0.950 . S
C3220 C3216 1.385 . S
C3220 C3219 1.374 . S
C3221 C3218 1.499 . S
C3221 C3222 1.373 . S
C3221 C3223 1.389 . S
C3222 H3195 0.950 . S
C3222 C3208 1.377 . S
C3222 C3221 1.373 . S
C3223 C3207 1.377 . S
C3223 C3221 1.389 . S
C3223 C3224 1.524 . S
C3224 C3223 1.524 . S
C3224 C3225 1.397 . S
C3224 C3229 1.363 . S
C3225 H3196 0.950 . S
C3225 C3224 1.397 . S
C3225 C3226 1.334 . S
C3226 H3197 0.950 . S
C3226 C3225 1.334 . S
C3226 C3227 1.287 . S
C3227 C3226 1.287 . S
C3227 C3228 1.524 . S
C3227 H3230 0.999 . S
C3228 H3198 0.950 . S
C3228 C3227 1.524 . S
C3228 C3229 1.415 . S
C3229 H3199 0.950 . S
C3229 C3224 1.363 . S
C3229 C3228 1.415 . S
H3230 C3227 0.999 . S
H3231 C3212 0.913 . S
H3232 C3250 0.951 . S
H3233 C3252 0.951 . S
H3234 C3254 0.950 . S
H3235 C3255 0.950 . S
H3236 C3257 0.950 . S
H3237 C3260 0.950 . S
H3238 C3261 0.950 . S
H3239 C3263 0.950 . S
H3240 C3264 0.950 . S
H3241 C3265 0.951 . S
H3242 C3267 0.951 . S
H3243 C3269 0.950 . S
H3244 C3270 0.950 . S
H3245 C3272 0.950 . S
H3246 C3275 0.950 . S
H3247 C3276 0.950 . S
H3248 C3278 0.950 . S
H3249 C3279 0.950 . S
C3250 H3232 0.951 . S
C3250 C3251 1.366 . S
C3250 C3252 1.388 . S
C3251 C3250 1.366 . S
C3251 C3255 1.385 . S
C3252 H3233 0.951 . S
C3252 C3250 1.388 . S
C3252 C3253 1.366 . S
C3253 C3252 1.366 . S
C3253 C3254 1.414 . S
C3253 C3256 1.499 . S
C3254 H3234 0.950 . S
C3254 C3253 1.414 . S
C3254 C3255 1.374 . S
C3255 H3235 0.950 . S
C3255 C3251 1.385 . S
C3255 C3254 1.374 . S
C3256 C3253 1.499 . S
C3256 C3257 1.373 . S
C3256 C3258 1.389 . S
C3257 H3236 0.950 . S
C3257 C3256 1.373 . S
C3257 C3273 1.377 . S
C3258 C3256 1.389 . S
C3258 C3259 1.524 . S
C3258 C3272 1.377 . S
C3259 C3258 1.524 . S
C3259 C3260 1.397 . S
C3259 C3264 1.363 . S
C3260 H3237 0.950 . S
C3260 C3259 1.397 . S
C3260 C3261 1.334 . S
C3261 H3238 0.950 . S
C3261 C3260 1.334 . S
C3261 C3262 1.287 . S
C3262 C3261 1.287 . S
C3262 C3263 1.524 . S
C3262 H3281 0.913 . S
C3263 H3239 0.950 . S
C3263 C3262 1.524 . S
C3263 C3264 1.415 . S
C3264 H3240 0.950 . S
C3264 C3259 1.363 . S
C3264 C3263 1.415 . S
C3265 H3241 0.951 . S
C3265 C3266 1.366 . S
C3265 C3267 1.388 . S
C3266 C3265 1.366 . S
C3266 C3270 1.385 . S
C3267 H3242 0.951 . S
C3267 C3265 1.388 . S
C3267 C3268 1.366 . S
C3268 C3267 1.366 . S
C3268 C3269 1.414 . S
C3268 C3271 1.499 . S
C3269 H3243 0.950 . S
C3269 C3268 1.414 . S
C3269 C3270 1.374 . S
C3270 H3244 0.950 . S
C3270 C3266 1.385 . S
C3270 C3269 1.374 . S
C3271 C3268 1.499 . S
C3271 C3272 1.373 . S
C3271 C3273 1.389 . S
C3272 H3245 0.950 . S
C3272 C3258 1.377 . S
C3272 C3271 1.373 . S
C3273 C3257 1.377 . S
C3273 C3271 1.389 . S
C3273 C3274 1.524 . S
C3274 C3273 1.524 . S
C3274 C3275 1.397 . S
C3274 C3279 1.363 . S
C3275 H3246 0.950 . S
C3275 C3274 1.397 . S
C3275 C3276 1.334 . S
C3276 H3247 0.950 . S
C3276 C3275 1.334 . S
C3276 C3277 1.287 . S
C3277 C3276 1.287 . S
C3277 C3278 1.524 . S
C3277 H3280 0.999 . S
C3278 H3248 0.950 . S
C3278 C3277 1.524 . S
C3278 C3279 1.415 . S
C3279 H3249 0.950 . S
C3279 C3274 1.363 . S
C3279 C3278 1.415 . S
H3280 C3277 0.999 . S
H3281 C3262 0.913 . S
H3282 C3300 0.951 . S
H3283 C3302 0.951 . S
H3284 C3304 0.950 . S
H3285 C3305 0.950 . S
H3286 C3307 0.950 . S
H3287 C3310 0.950 . S
H3288 C3311 0.949 . S
H3289 C3313 0.950 . S
H3290 C3314 0.950 . S
H3291 C3315 0.951 . S
H3292 C3317 0.951 . S
H3293 C3319 0.950 . S
H3294 C3320 0.950 1_455 S
H3295 C3322 0.950 . S
H3296 C3325 0.950 . S
H3297 C3326 0.950 . S
H3298 C3328 0.950 . S
H3299 C3329 0.950 . S
C3300 H3282 0.951 . S
C3300 C3301 1.366 . S
C3300 C3302 1.388 . S
C3301 C3300 1.366 . S
C3301 C3305 1.385 . S
C3302 H3283 0.951 . S
C3302 C3300 1.388 . S
C3302 C3303 1.366 . S
C3303 C3302 1.366 . S
C3303 C3304 1.414 . S
C3303 C3306 1.499 . S
C3304 H3284 0.950 . S
C3304 C3303 1.414 . S
C3304 C3305 1.374 . S
C3305 H3285 0.950 . S
C3305 C3301 1.385 . S
C3305 C3304 1.374 . S
C3306 C3303 1.499 . S
C3306 C3307 1.373 . S
C3306 C3308 1.389 . S
C3307 H3286 0.950 . S
C3307 C3306 1.373 . S
C3307 C3323 1.377 . S
C3308 C3306 1.389 . S
C3308 C3309 1.524 . S
C3308 C3322 1.377 . S
C3309 C3308 1.524 . S
C3309 C3310 1.397 . S
C3309 C3314 1.363 1_655 S
C3310 H3287 0.950 . S
C3310 C3309 1.397 . S
C3310 C3311 1.334 1_655 S
C3311 H3288 0.949 . S
C3311 C3310 1.334 1_455 S
C3311 C3312 1.287 . S
C3312 C3311 1.287 . S
C3312 C3313 1.524 . S
C3312 H3331 0.913 . S
C3313 H3289 0.950 . S
C3313 C3312 1.524 . S
C3313 C3314 1.415 . S
C3314 H3290 0.950 . S
C3314 C3309 1.363 1_455 S
C3314 C3313 1.415 . S
C3315 H3291 0.951 . S
C3315 C3316 1.366 . S
C3315 C3317 1.388 . S
C3316 C3315 1.366 . S
C3316 C3320 1.385 . S
C3317 H3292 0.951 . S
C3317 C3315 1.388 . S
C3317 C3318 1.366 . S
C3318 C3317 1.366 . S
C3318 C3319 1.414 . S
C3318 C3321 1.499 . S
C3319 H3293 0.950 . S
C3319 C3318 1.414 . S
C3319 C3320 1.374 . S
C3320 H3294 0.950 1_655 S
C3320 C3316 1.385 . S
C3320 C3319 1.374 . S
C3321 C3318 1.499 . S
C3321 C3322 1.373 . S
C3321 C3323 1.389 . S
C3322 H3295 0.950 . S
C3322 C3308 1.377 . S
C3322 C3321 1.373 . S
C3323 C3307 1.377 . S
C3323 C3321 1.389 . S
C3323 C3324 1.524 . S
C3324 C3323 1.524 . S
C3324 C3325 1.397 . S
C3324 C3329 1.363 . S
C3325 H3296 0.950 . S
C3325 C3324 1.397 . S
C3325 C3326 1.334 . S
C3326 H3297 0.950 . S
C3326 C3325 1.334 . S
C3326 C3327 1.287 . S
C3327 C3326 1.287 . S
C3327 C3328 1.524 . S
C3327 H3330 0.999 . S
C3328 H3298 0.950 . S
C3328 C3327 1.524 . S
C3328 C3329 1.415 . S
C3329 H3299 0.950 . S
C3329 C3324 1.363 . S
C3329 C3328 1.415 . S
H3330 C3327 0.999 . S
H3331 C3312 0.913 . S
H3332 C3350 0.951 . S
H3333 C3352 0.951 . S
H3334 C3354 0.950 . S
H3335 C3355 0.950 . S
H3336 C3357 0.950 . S
H3337 C3360 0.950 . S
H3338 C3361 0.950 . S
H3339 C3363 0.950 . S
H3340 C3364 0.950 . S
H3341 C3365 0.951 . S
H3342 C3367 0.951 . S
H3343 C3369 0.950 . S
H3344 C3370 0.950 . S
H3345 C3372 0.950 . S
H3346 C3375 0.950 . S
H3347 C3376 0.950 . S
H3348 C3378 0.950 . S
H3349 C3379 0.950 . S
C3350 H3332 0.951 . S
C3350 C3351 1.366 . S
C3350 C3352 1.388 . S
C3351 C3350 1.366 . S
C3351 C3355 1.385 . S
C3352 H3333 0.951 . S
C3352 C3350 1.388 . S
C3352 C3353 1.366 . S
C3353 C3352 1.366 . S
C3353 C3354 1.414 . S
C3353 C3356 1.499 . S
C3354 H3334 0.950 . S
C3354 C3353 1.414 . S
C3354 C3355 1.374 . S
C3355 H3335 0.950 . S
C3355 C3351 1.385 . S
C3355 C3354 1.374 . S
C3356 C3353 1.499 . S
C3356 C3357 1.373 . S
C3356 C3358 1.389 . S
C3357 H3336 0.950 . S
C3357 C3356 1.373 . S
C3357 C3373 1.377 . S
C3358 C3356 1.389 . S
C3358 C3359 1.524 . S
C3358 C3372 1.377 . S
C3359 C3358 1.524 . S
C3359 C3360 1.397 . S
C3359 C3364 1.363 . S
C3360 H3337 0.950 . S
C3360 C3359 1.397 . S
C3360 C3361 1.334 . S
C3361 H3338 0.950 . S
C3361 C3360 1.334 . S
C3361 C3362 1.287 . S
C3362 C3361 1.287 . S
C3362 C3363 1.524 . S
C3362 H3381 0.913 . S
C3363 H3339 0.950 . S
C3363 C3362 1.524 . S
C3363 C3364 1.415 . S
C3364 H3340 0.950 . S
C3364 C3359 1.363 . S
C3364 C3363 1.415 . S
C3365 H3341 0.951 . S
C3365 C3366 1.366 . S
C3365 C3367 1.388 . S
C3366 C3365 1.366 . S
C3366 C3370 1.385 . S
C3367 H3342 0.951 . S
C3367 C3365 1.388 . S
C3367 C3368 1.366 . S
C3368 C3367 1.366 . S
C3368 C3369 1.414 . S
C3368 C3371 1.499 . S
C3369 H3343 0.950 . S
C3369 C3368 1.414 . S
C3369 C3370 1.374 . S
C3370 H3344 0.950 . S
C3370 C3366 1.385 . S
C3370 C3369 1.374 . S
C3371 C3368 1.499 . S
C3371 C3372 1.373 . S
C3371 C3373 1.389 . S
C3372 H3345 0.950 . S
C3372 C3358 1.377 . S
C3372 C3371 1.373 . S
C3373 C3357 1.377 . S
C3373 C3371 1.389 . S
C3373 C3374 1.524 . S
C3374 C3373 1.524 . S
C3374 C3375 1.397 . S
C3374 C3379 1.363 . S
C3375 H3346 0.950 . S
C3375 C3374 1.397 . S
C3375 C3376 1.334 . S
C3376 H3347 0.950 . S
C3376 C3375 1.334 . S
C3376 C3377 1.287 . S
C3377 C3376 1.287 . S
C3377 C3378 1.524 . S
C3377 H3380 0.999 . S
C3378 H3348 0.950 . S
C3378 C3377 1.524 . S
C3378 C3379 1.415 . S
C3379 H3349 0.950 . S
C3379 C3374 1.363 . S
C3379 C3378 1.415 . S
H3380 C3377 0.999 . S
H3381 C3362 0.913 . S
H3382 C3400 0.951 . S
H3383 C3402 0.951 . S
H3384 C3404 0.950 . S
H3385 C3405 0.950 . S
H3386 C3407 0.950 . S
H3387 C3410 0.950 . S
H3388 C3411 0.950 . S
H3389 C3413 0.950 . S
H3390 C3414 0.950 . S
H3391 C3415 0.951 . S
H3392 C3417 0.951 . S
H3393 C3419 0.950 . S
H3394 C3420 0.950 . S
H3395 C3422 0.950 . S
H3396 C3425 0.950 . S
H3397 C3426 0.950 . S
H3398 C3428 0.950 . S
H3399 C3429 0.950 . S
C3400 H3382 0.951 . S
C3400 C3401 1.366 . S
C3400 C3402 1.388 . S
C3401 C3400 1.366 . S
C3401 C3405 1.385 . S
C3402 H3383 0.951 . S
C3402 C3400 1.388 . S
C3402 C3403 1.366 . S
C3403 C3402 1.366 . S
C3403 C3404 1.414 . S
C3403 C3406 1.499 . S
C3404 H3384 0.950 . S
C3404 C3403 1.414 . S
C3404 C3405 1.374 . S
C3405 H3385 0.950 . S
C3405 C3401 1.385 . S
C3405 C3404 1.374 . S
C3406 C3403 1.499 . S
C3406 C3407 1.373 . S
C3406 C3408 1.389 . S
C3407 H3386 0.950 . S
C3407 C3406 1.373 . S
C3407 C3423 1.377 . S
C3408 C3406 1.389 . S
C3408 C3409 1.524 . S
C3408 C3422 1.377 . S
C3409 C3408 1.524 . S
C3409 C3410 1.397 . S
C3409 C3414 1.363 . S
C3410 H3387 0.950 . S
C3410 C3409 1.397 . S
C3410 C3411 1.334 . S
C3411 H3388 0.950 . S
C3411 C3410 1.334 . S
C3411 C3412 1.287 . S
C3412 C3411 1.287 . S
C3412 C3413 1.524 . S
C3412 H3431 0.913 . S
C3413 H3389 0.950 . S
C3413 C3412 1.524 . S
C3413 C3414 1.415 . S
C3414 H3390 0.950 . S
C3414 C3409 1.363 . S
C3414 C3413 1.415 . S
C3415 H3391 0.951 . S
C3415 C3416 1.366 . S
C3415 C3417 1.388 . S
C3416 C3415 1.366 . S
C3416 C3420 1.385 . S
C3417 H3392 0.951 . S
C3417 C3415 1.388 . S
C3417 C3418 1.366 . S
C3418 C3417 1.366 . S
C3418 C3419 1.414 . S
C3418 C3421 1.499 . S
C3419 H3393 0.950 . S
C3419 C3418 1.414 . S
C3419 C3420 1.374 . S
C3420 H3394 0.950 . S
C3420 C3416 1.385 . S
C3420 C3419 1.374 . S
C3421 C3418 1.499 . S
C3421 C3422 1.373 . S
C3421 C3423 1.389 . S
C3422 H3395 0.950 . S
C3422 C3408 1.377 . S
C3422 C3421 1.373 . S
C3423 C3407 1.377 . S
C3423 C3421 1.389 . S
C3423 C3424 1.524 . S
C3424 C3423 1.524 . S
C3424 C3425 1.397 . S
C3424 C3429 1.363 . S
C3425 H3396 0.950 . S
C3425 C3424 1.397 . S
C3425 C3426 1.334 . S
C3426 H3397 0.950 . S
C3426 C3425 1.334 . S
C3426 C3427 1.287 . S
C3427 C3426 1.287 . S
C3427 C3428 1.524 . S
C3427 H3430 0.999 . S
C3428 H3398 0.950 . S
C3428 C3427 1.524 . S
C3428 C3429 1.415 . S
C3429 H3399 0.950 . S
C3429 C3424 1.363 . S
C3429 C3428 1.415 . S
H3430 C3427 0.999 . S
H3431 C3412 0.913 . S
H3432 C3450 0.951 . S
H3433 C3452 0.951 . S
H3434 C3454 0.950 . S
H3435 C3455 0.950 . S
H3436 C3457 0.950 . S
H3437 C3460 0.950 . S
H3438 C3461 0.950 . S
H3439 C3463 0.950 . S
H3440 C3464 0.950 . S
H3441 C3465 0.951 . S
H3442 C3467 0.951 . S
H3443 C3469 0.950 . S
H3444 C3470 0.950 . S
H3445 C3472 0.950 . S
H3446 C3475 0.950 . S
H3447 C3476 0.950 . S
H3448 C3478 0.950 . S
H3449 C3479 0.950 . S
C3450 H3432 0.951 . S
C3450 C3451 1.366 . S
C3450 C3452 1.388 . S
C3451 C3450 1.366 . S
C3451 C3455 1.385 . S
C3452 H3433 0.951 . S
C3452 C3450 1.388 . S
C3452 C3453 1.366 . S
C3453 C3452 1.366 . S
C3453 C3454 1.414 . S
C3453 C3456 1.499 . S
C3454 H3434 0.950 . S
C3454 C3453 1.414 . S
C3454 C3455 1.374 . S
C3455 H3435 0.950 . S
C3455 C3451 1.385 . S
C3455 C3454 1.374 . S
C3456 C3453 1.499 . S
C3456 C3457 1.373 . S
C3456 C3458 1.389 . S
C3457 H3436 0.950 . S
C3457 C3456 1.373 . S
C3457 C3473 1.377 . S
C3458 C3456 1.389 . S
C3458 C3459 1.524 . S
C3458 C3472 1.377 . S
C3459 C3458 1.524 . S
C3459 C3460 1.397 . S
C3459 C3464 1.363 . S
C3460 H3437 0.950 . S
C3460 C3459 1.397 . S
C3460 C3461 1.334 . S
C3461 H3438 0.950 . S
C3461 C3460 1.334 . S
C3461 C3462 1.287 . S
C3462 C3461 1.287 . S
C3462 C3463 1.524 . S
C3462 H3481 0.913 . S
C3463 H3439 0.950 . S
C3463 C3462 1.524 . S
C3463 C3464 1.415 . S
C3464 H3440 0.950 . S
C3464 C3459 1.363 . S
C3464 C3463 1.415 . S
C3465 H3441 0.951 . S
C3465 C3466 1.366 . S
C3465 C3467 1.388 . S
C3466 C3465 1.366 . S
C3466 C3470 1.385 . S
C3467 H3442 0.951 . S
C3467 C3465 1.388 . S
C3467 C3468 1.366 . S
C3468 C3467 1.366 . S
C3468 C3469 1.414 . S
C3468 C3471 1.499 . S
C3469 H3443 0.950 . S
C3469 C3468 1.414 . S
C3469 C3470 1.374 . S
C3470 H3444 0.950 . S
C3470 C3466 1.385 . S
C3470 C3469 1.374 . S
C3471 C3468 1.499 . S
C3471 C3472 1.373 . S
C3471 C3473 1.389 . S
C3472 H3445 0.950 . S
C3472 C3458 1.377 . S
C3472 C3471 1.373 . S
C3473 C3457 1.377 . S
C3473 C3471 1.389 . S
C3473 C3474 1.524 . S
C3474 C3473 1.524 . S
C3474 C3475 1.397 . S
C3474 C3479 1.363 . S
C3475 H3446 0.950 . S
C3475 C3474 1.397 . S
C3475 C3476 1.334 . S
C3476 H3447 0.950 . S
C3476 C3475 1.334 . S
C3476 C3477 1.287 . S
C3477 C3476 1.287 . S
C3477 C3478 1.524 . S
C3477 H3480 0.999 . S
C3478 H3448 0.950 . S
C3478 C3477 1.524 . S
C3478 C3479 1.415 . S
C3479 H3449 0.950 . S
C3479 C3474 1.363 . S
C3479 C3478 1.415 . S
H3480 C3477 0.999 . S
H3481 C3462 0.913 . S
H3482 C3500 0.951 . S
H3483 C3502 0.951 . S
H3484 C3504 0.950 . S
H3485 C3505 0.950 . S
H3486 C3507 0.950 . S
H3487 C3510 0.950 . S
H3488 C3511 0.950 . S
H3489 C3513 0.950 . S
H3490 C3514 0.950 . S
H3491 C3515 0.951 . S
H3492 C3517 0.951 . S
H3493 C3519 0.950 . S
H3494 C3520 0.950 . S
H3495 C3522 0.950 . S
H3496 C3525 0.950 . S
H3497 C3526 0.950 . S
H3498 C3528 0.950 . S
H3499 C3529 0.950 . S
C3500 H3482 0.951 . S
C3500 C3501 1.366 . S
C3500 C3502 1.388 . S
C3501 C3500 1.366 . S
C3501 C3505 1.385 . S
C3502 H3483 0.951 . S
C3502 C3500 1.388 . S
C3502 C3503 1.366 . S
C3503 C3502 1.366 . S
C3503 C3504 1.414 . S
C3503 C3506 1.499 . S
C3504 H3484 0.950 . S
C3504 C3503 1.414 . S
C3504 C3505 1.374 . S
C3505 H3485 0.950 . S
C3505 C3501 1.385 . S
C3505 C3504 1.374 . S
C3506 C3503 1.499 . S
C3506 C3507 1.373 . S
C3506 C3508 1.389 . S
C3507 H3486 0.950 . S
C3507 C3506 1.373 . S
C3507 C3523 1.377 . S
C3508 C3506 1.389 . S
C3508 C3509 1.524 . S
C3508 C3522 1.377 . S
C3509 C3508 1.524 . S
C3509 C3510 1.397 . S
C3509 C3514 1.363 . S
C3510 H3487 0.950 . S
C3510 C3509 1.397 . S
C3510 C3511 1.334 . S
C3511 H3488 0.950 . S
C3511 C3510 1.334 . S
C3511 C3512 1.287 . S
C3512 C3511 1.287 . S
C3512 C3513 1.524 . S
C3512 H3531 0.913 . S
C3513 H3489 0.950 . S
C3513 C3512 1.524 . S
C3513 C3514 1.415 . S
C3514 H3490 0.950 . S
C3514 C3509 1.363 . S
C3514 C3513 1.415 . S
C3515 H3491 0.951 . S
C3515 C3516 1.366 . S
C3515 C3517 1.388 . S
C3516 C3515 1.366 . S
C3516 C3520 1.385 . S
C3517 H3492 0.951 . S
C3517 C3515 1.388 . S
C3517 C3518 1.366 . S
C3518 C3517 1.366 . S
C3518 C3519 1.414 . S
C3518 C3521 1.499 . S
C3519 H3493 0.950 . S
C3519 C3518 1.414 . S
C3519 C3520 1.374 . S
C3520 H3494 0.950 . S
C3520 C3516 1.385 . S
C3520 C3519 1.374 . S
C3521 C3518 1.499 . S
C3521 C3522 1.373 . S
C3521 C3523 1.389 . S
C3522 H3495 0.950 . S
C3522 C3508 1.377 . S
C3522 C3521 1.373 . S
C3523 C3507 1.377 . S
C3523 C3521 1.389 . S
C3523 C3524 1.524 . S
C3524 C3523 1.524 . S
C3524 C3525 1.397 . S
C3524 C3529 1.363 . S
C3525 H3496 0.950 . S
C3525 C3524 1.397 . S
C3525 C3526 1.334 . S
C3526 H3497 0.950 . S
C3526 C3525 1.334 . S
C3526 C3527 1.287 . S
C3527 C3526 1.287 . S
C3527 C3528 1.524 . S
C3527 H3530 0.999 . S
C3528 H3498 0.950 . S
C3528 C3527 1.524 . S
C3528 C3529 1.415 . S
C3529 H3499 0.950 . S
C3529 C3524 1.363 . S
C3529 C3528 1.415 . S
H3530 C3527 0.999 . S
H3531 C3512 0.913 . S
H3532 C3550 0.951 . S
H3533 C3552 0.951 . S
H3534 C3554 0.950 . S
H3535 C3555 0.950 . S
H3536 C3557 0.950 . S
H3537 C3560 0.950 . S
H3538 C3561 0.950 . S
H3539 C3563 0.950 . S
H3540 C3564 0.950 . S
H3541 C3565 0.951 . S
H3542 C3567 0.951 . S
H3543 C3569 0.950 . S
H3544 C3570 0.950 . S
H3545 C3572 0.950 . S
H3546 C3575 0.950 . S
H3547 C3576 0.950 . S
H3548 C3578 0.950 . S
H3549 C3579 0.950 . S
C3550 H3532 0.951 . S
C3550 C3551 1.366 . S
C3550 C3552 1.388 . S
C3551 C3550 1.366 . S
C3551 C3555 1.385 . S
C3552 H3533 0.951 . S
C3552 C3550 1.388 . S
C3552 C3553 1.366 . S
C3553 C3552 1.366 . S
C3553 C3554 1.414 . S
C3553 C3556 1.499 . S
C3554 H3534 0.950 . S
C3554 C3553 1.414 . S
C3554 C3555 1.374 . S
C3555 H3535 0.950 . S
C3555 C3551 1.385 . S
C3555 C3554 1.374 . S
C3556 C3553 1.499 . S
C3556 C3557 1.373 . S
C3556 C3558 1.389 . S
C3557 H3536 0.950 . S
C3557 C3556 1.373 . S
C3557 C3573 1.377 . S
C3558 C3556 1.389 . S
C3558 C3559 1.524 . S
C3558 C3572 1.377 . S
C3559 C3558 1.524 . S
C3559 C3560 1.397 . S
C3559 C3564 1.363 . S
C3560 H3537 0.950 . S
C3560 C3559 1.397 . S
C3560 C3561 1.334 . S
C3561 H3538 0.950 . S
C3561 C3560 1.334 . S
C3561 C3562 1.287 . S
C3562 C3561 1.287 . S
C3562 C3563 1.524 . S
C3562 H3581 0.913 . S
C3563 H3539 0.950 . S
C3563 C3562 1.524 . S
C3563 C3564 1.415 . S
C3564 H3540 0.950 . S
C3564 C3559 1.363 . S
C3564 C3563 1.415 . S
C3565 H3541 0.951 . S
C3565 C3566 1.366 . S
C3565 C3567 1.388 . S
C3566 C3565 1.366 . S
C3566 C3570 1.385 . S
C3567 H3542 0.951 . S
C3567 C3565 1.388 . S
C3567 C3568 1.366 . S
C3568 C3567 1.366 . S
C3568 C3569 1.414 . S
C3568 C3571 1.499 . S
C3569 H3543 0.950 . S
C3569 C3568 1.414 . S
C3569 C3570 1.374 . S
C3570 H3544 0.950 . S
C3570 C3566 1.385 . S
C3570 C3569 1.374 . S
C3571 C3568 1.499 . S
C3571 C3572 1.373 . S
C3571 C3573 1.389 . S
C3572 H3545 0.950 . S
C3572 C3558 1.377 . S
C3572 C3571 1.373 . S
C3573 C3557 1.377 . S
C3573 C3571 1.389 . S
C3573 C3574 1.524 . S
C3574 C3573 1.524 . S
C3574 C3575 1.397 . S
C3574 C3579 1.363 . S
C3575 H3546 0.950 . S
C3575 C3574 1.397 . S
C3575 C3576 1.334 . S
C3576 H3547 0.950 . S
C3576 C3575 1.334 . S
C3576 C3577 1.287 . S
C3577 C3576 1.287 . S
C3577 C3578 1.524 . S
C3577 H3580 0.999 . S
C3578 H3548 0.950 . S
C3578 C3577 1.524 . S
C3578 C3579 1.415 . S
C3579 H3549 0.950 . S
C3579 C3574 1.363 . S
C3579 C3578 1.415 . S
H3580 C3577 0.999 . S
H3581 C3562 0.913 . S
H3582 C3600 0.951 . S
H3583 C3602 0.951 . S
H3584 C3604 0.950 . S
H3585 C3605 0.950 . S
H3586 C3607 0.950 . S
H3587 C3610 0.950 . S
H3588 C3611 0.950 . S
H3589 C3613 0.950 . S
H3590 C3614 0.950 . S
H3591 C3615 0.951 . S
H3592 C3617 0.951 . S
H3593 C3619 0.950 . S
H3594 C3620 0.950 . S
H3595 C3622 0.950 . S
H3596 C3625 0.950 . S
H3597 C3626 0.950 . S
H3598 C3628 0.950 . S
H3599 C3629 0.950 . S
C3600 H3582 0.951 . S
C3600 C3601 1.366 . S
C3600 C3602 1.388 . S
C3601 C3600 1.366 . S
C3601 C3605 1.385 . S
C3602 H3583 0.951 . S
C3602 C3600 1.388 . S
C3602 C3603 1.366 . S
C3603 C3602 1.366 . S
C3603 C3604 1.414 . S
C3603 C3606 1.499 . S
C3604 H3584 0.950 . S
C3604 C3603 1.414 . S
C3604 C3605 1.374 . S
C3605 H3585 0.950 . S
C3605 C3601 1.385 . S
C3605 C3604 1.374 . S
C3606 C3603 1.499 . S
C3606 C3607 1.373 . S
C3606 C3608 1.389 . S
C3607 H3586 0.950 . S
C3607 C3606 1.373 . S
C3607 C3623 1.377 . S
C3608 C3606 1.389 . S
C3608 C3609 1.524 . S
C3608 C3622 1.377 . S
C3609 C3608 1.524 . S
C3609 C3610 1.397 . S
C3609 C3614 1.363 . S
C3610 H3587 0.950 . S
C3610 C3609 1.397 . S
C3610 C3611 1.334 . S
C3611 H3588 0.950 . S
C3611 C3610 1.334 . S
C3611 C3612 1.287 . S
C3612 C3611 1.287 . S
C3612 C3613 1.524 . S
C3612 H3631 0.913 . S
C3613 H3589 0.950 . S
C3613 C3612 1.524 . S
C3613 C3614 1.415 . S
C3614 H3590 0.950 . S
C3614 C3609 1.363 . S
C3614 C3613 1.415 . S
C3615 H3591 0.951 . S
C3615 C3616 1.366 . S
C3615 C3617 1.388 . S
C3616 C3615 1.366 . S
C3616 C3620 1.385 . S
C3617 H3592 0.951 . S
C3617 C3615 1.388 . S
C3617 C3618 1.366 . S
C3618 C3617 1.366 . S
C3618 C3619 1.414 . S
C3618 C3621 1.499 . S
C3619 H3593 0.950 . S
C3619 C3618 1.414 . S
C3619 C3620 1.374 . S
C3620 H3594 0.950 . S
C3620 C3616 1.385 . S
C3620 C3619 1.374 . S
C3621 C3618 1.499 . S
C3621 C3622 1.373 . S
C3621 C3623 1.389 . S
C3622 H3595 0.950 . S
C3622 C3608 1.377 . S
C3622 C3621 1.373 . S
C3623 C3607 1.377 . S
C3623 C3621 1.389 . S
C3623 C3624 1.524 . S
C3624 C3623 1.524 . S
C3624 C3625 1.397 . S
C3624 C3629 1.363 . S
C3625 H3596 0.950 . S
C3625 C3624 1.397 . S
C3625 C3626 1.334 . S
C3626 H3597 0.950 . S
C3626 C3625 1.334 . S
C3626 C3627 1.287 . S
C3627 C3626 1.287 . S
C3627 C3628 1.524 . S
C3627 H3630 0.999 . S
C3628 H3598 0.950 . S
C3628 C3627 1.524 . S
C3628 C3629 1.415 . S
C3629 H3599 0.950 . S
C3629 C3624 1.363 . S
C3629 C3628 1.415 . S
H3630 C3627 0.999 . S
H3631 C3612 0.913 . S
H3632 C3650 0.951 . S
H3633 C3652 0.951 . S
H3634 C3654 0.950 . S
H3635 C3655 0.950 . S
H3636 C3657 0.950 . S
H3637 C3660 0.950 . S
H3638 C3661 0.950 . S
H3639 C3663 0.950 . S
H3640 C3664 0.950 . S
H3641 C3665 0.951 . S
H3642 C3667 0.951 . S
H3643 C3669 0.950 . S
H3644 C3670 0.950 . S
H3645 C3672 0.950 . S
H3646 C3675 0.950 . S
H3647 C3676 0.950 . S
H3648 C3678 0.950 . S
H3649 C3679 0.950 . S
C3650 H3632 0.951 . S
C3650 C3651 1.366 . S
C3650 C3652 1.388 . S
C3651 C3650 1.366 . S
C3651 C3655 1.385 . S
C3652 H3633 0.951 . S
C3652 C3650 1.388 . S
C3652 C3653 1.366 . S
C3653 C3652 1.366 . S
C3653 C3654 1.414 . S
C3653 C3656 1.499 . S
C3654 H3634 0.950 . S
C3654 C3653 1.414 . S
C3654 C3655 1.374 . S
C3655 H3635 0.950 . S
C3655 C3651 1.385 . S
C3655 C3654 1.374 . S
C3656 C3653 1.499 . S
C3656 C3657 1.373 . S
C3656 C3658 1.389 . S
C3657 H3636 0.950 . S
C3657 C3656 1.373 . S
C3657 C3673 1.377 . S
C3658 C3656 1.389 . S
C3658 C3659 1.524 . S
C3658 C3672 1.377 . S
C3659 C3658 1.524 . S
C3659 C3660 1.397 . S
C3659 C3664 1.363 . S
C3660 H3637 0.950 . S
C3660 C3659 1.397 . S
C3660 C3661 1.334 . S
C3661 H3638 0.950 . S
C3661 C3660 1.334 . S
C3661 C3662 1.287 . S
C3662 C3661 1.287 . S
C3662 C3663 1.524 . S
C3662 H3681 0.913 . S
C3663 H3639 0.950 . S
C3663 C3662 1.524 . S
C3663 C3664 1.415 . S
C3664 H3640 0.950 . S
C3664 C3659 1.363 . S
C3664 C3663 1.415 . S
C3665 H3641 0.951 . S
C3665 C3666 1.366 . S
C3665 C3667 1.388 . S
C3666 C3665 1.366 . S
C3666 C3670 1.385 . S
C3667 H3642 0.951 . S
C3667 C3665 1.388 . S
C3667 C3668 1.366 . S
C3668 C3667 1.366 . S
C3668 C3669 1.414 . S
C3668 C3671 1.499 . S
C3669 H3643 0.950 . S
C3669 C3668 1.414 . S
C3669 C3670 1.374 . S
C3670 H3644 0.950 . S
C3670 C3666 1.385 . S
C3670 C3669 1.374 . S
C3671 C3668 1.499 . S
C3671 C3672 1.373 . S
C3671 C3673 1.389 . S
C3672 H3645 0.950 . S
C3672 C3658 1.377 . S
C3672 C3671 1.373 . S
C3673 C3657 1.377 . S
C3673 C3671 1.389 . S
C3673 C3674 1.524 . S
C3674 C3673 1.524 . S
C3674 C3675 1.397 . S
C3674 C3679 1.363 . S
C3675 H3646 0.950 . S
C3675 C3674 1.397 . S
C3675 C3676 1.334 . S
C3676 H3647 0.950 . S
C3676 C3675 1.334 . S
C3676 C3677 1.287 . S
C3677 C3676 1.287 . S
C3677 C3678 1.524 . S
C3677 H3680 0.999 . S
C3678 H3648 0.950 . S
C3678 C3677 1.524 . S
C3678 C3679 1.415 . S
C3679 H3649 0.950 . S
C3679 C3674 1.363 . S
C3679 C3678 1.415 . S
H3680 C3677 0.999 . S
H3681 C3662 0.913 . S
H3682 C3700 0.951 . S
H3683 C3702 0.951 . S
H3684 C3704 0.950 . S
H3685 C3705 0.950 . S
H3686 C3707 0.950 . S
H3687 C3710 0.950 . S
H3688 C3711 0.950 . S
H3689 C3713 0.950 . S
H3690 C3714 0.950 . S
H3691 C3715 0.951 . S
H3692 C3717 0.951 . S
H3693 C3719 0.950 . S
H3694 C3720 0.950 . S
H3695 C3722 0.950 . S
H3696 C3725 0.950 . S
H3697 C3726 0.950 . S
H3698 C3728 0.950 . S
H3699 C3729 0.950 . S
C3700 H3682 0.951 . S
C3700 C3701 1.366 . S
C3700 C3702 1.388 . S
C3701 C3700 1.366 . S
C3701 C3705 1.385 . S
C3702 H3683 0.951 . S
C3702 C3700 1.388 . S
C3702 C3703 1.366 . S
C3703 C3702 1.366 . S
C3703 C3704 1.414 . S
C3703 C3706 1.499 . S
C3704 H3684 0.950 . S
C3704 C3703 1.414 . S
C3704 C3705 1.374 . S
C3705 H3685 0.950 . S
C3705 C3701 1.385 . S
C3705 C3704 1.374 . S
C3706 C3703 1.499 . S
C3706 C3707 1.373 . S
C3706 C3708 1.389 . S
C3707 H3686 0.950 . S
C3707 C3706 1.373 . S
C3707 C3723 1.377 . S
C3708 C3706 1.389 . S
C3708 C3709 1.524 . S
C3708 C3722 1.377 . S
C3709 C3708 1.524 . S
C3709 C3710 1.397 . S
C3709 C3714 1.363 . S
C3710 H3687 0.950 . S
C3710 C3709 1.397 . S
C3710 C3711 1.334 . S
C3711 H3688 0.950 . S
C3711 C3710 1.334 . S
C3711 C3712 1.287 . S
C3712 C3711 1.287 . S
C3712 C3713 1.524 . S
C3712 H3731 0.913 . S
C3713 H3689 0.950 . S
C3713 C3712 1.524 . S
C3713 C3714 1.415 . S
C3714 H3690 0.950 . S
C3714 C3709 1.363 . S
C3714 C3713 1.415 . S
C3715 H3691 0.951 . S
C3715 C3716 1.366 . S
C3715 C3717 1.388 . S
C3716 C3715 1.366 . S
C3716 C3720 1.385 . S
C3717 H3692 0.951 . S
C3717 C3715 1.388 . S
C3717 C3718 1.366 . S
C3718 C3717 1.366 . S
C3718 C3719 1.414 . S
C3718 C3721 1.499 . S
C3719 H3693 0.950 . S
C3719 C3718 1.414 . S
C3719 C3720 1.374 . S
C3720 H3694 0.950 . S
C3720 C3716 1.385 . S
C3720 C3719 1.374 . S
C3721 C3718 1.499 . S
C3721 C3722 1.373 . S
C3721 C3723 1.389 . S
C3722 H3695 0.950 . S
C3722 C3708 1.377 . S
C3722 C3721 1.373 . S
C3723 C3707 1.377 . S
C3723 C3721 1.389 . S
C3723 C3724 1.524 . S
C3724 C3723 1.524 . S
C3724 C3725 1.397 . S
C3724 C3729 1.363 . S
C3725 H3696 0.950 . S
C3725 C3724 1.397 . S
C3725 C3726 1.334 . S
C3726 H3697 0.950 . S
C3726 C3725 1.334 . S
C3726 C3727 1.287 . S
C3727 C3726 1.287 . S
C3727 C3728 1.524 . S
C3727 H3730 0.999 . S
C3728 H3698 0.950 . S
C3728 C3727 1.524 . S
C3728 C3729 1.415 . S
C3729 H3699 0.950 . S
C3729 C3724 1.363 . S
C3729 C3728 1.415 . S
H3730 C3727 0.999 . S
H3731 C3712 0.913 . S
H3732 C3750 0.951 . S
H3733 C3752 0.951 . S
H3734 C3754 0.950 . S
H3735 C3755 0.950 . S
H3736 C3757 0.950 . S
H3737 C3760 0.950 . S
H3738 C3761 0.950 . S
H3739 C3763 0.950 . S
H3740 C3764 0.950 . S
H3741 C3765 0.951 . S
H3742 C3767 0.951 . S
H3743 C3769 0.950 . S
H3744 C3770 0.950 . S
H3745 C3772 0.950 . S
H3746 C3775 0.950 . S
H3747 C3776 0.950 . S
H3748 C3778 0.950 . S
H3749 C3779 0.950 . S
C3750 H3732 0.951 . S
C3750 C3751 1.366 . S
C3750 C3752 1.388 . S
C3751 C3750 1.366 . S
C3751 C3755 1.385 . S
C3752 H3733 0.951 . S
C3752 C3750 1.388 . S
C3752 C3753 1.366 . S
C3753 C3752 1.366 . S
C3753 C3754 1.414 . S
C3753 C3756 1.499 . S
C3754 H3734 0.950 . S
C3754 C3753 1.414 . S
C3754 C3755 1.374 . S
C3755 H3735 0.950 . S
C3755 C3751 1.385 . S
C3755 C3754 1.374 . S
C3756 C3753 1.499 . S
C3756 C3757 1.373 . S
C3756 C3758 1.389 . S
C3757 H3736 0.950 . S
C3757 C3756 1.373 . S
C3757 C3773 1.377 . S
C3758 C3756 1.389 . S
C3758 C3759 1.524 . S
C3758 C3772 1.377 . S
C3759 C3758 1.524 . S
C3759 C3760 1.397 . S
C3759 C3764 1.363 . S
C3760 H3737 0.950 . S
C3760 C3759 1.397 . S
C3760 C3761 1.334 . S
C3761 H3738 0.950 . S
C3761 C3760 1.334 . S
C3761 C3762 1.287 . S
C3762 C3761 1.287 . S
C3762 C3763 1.524 . S
C3762 H3781 0.913 . S
C3763 H3739 0.950 . S
C3763 C3762 1.524 . S
C3763 C3764 1.415 . S
C3764 H3740 0.950 . S
C3764 C3759 1.363 . S
C3764 C3763 1.415 . S
C3765 H3741 0.951 . S
C3765 C3766 1.366 . S
C3765 C3767 1.388 . S
C3766 C3765 1.366 . S
C3766 C3770 1.385 . S
C3767 H3742 0.951 . S
C3767 C3765 1.388 . S
C3767 C3768 1.366 . S
C3768 C3767 1.366 . S
C3768 C3769 1.414 . S
C3768 C3771 1.499 . S
C3769 H3743 0.950 . S
C3769 C3768 1.414 . S
C3769 C3770 1.374 . S
C3770 H3744 0.950 . S
C3770 C3766 1.385 . S
C3770 C3769 1.374 . S
C3771 C3768 1.499 . S
C3771 C3772 1.373 . S
C3771 C3773 1.389 . S
C3772 H3745 0.950 . S
C3772 C3758 1.377 . S
C3772 C3771 1.373 . S
C3773 C3757 1.377 . S
C3773 C3771 1.389 . S
C3773 C3774 1.524 . S
C3774 C3773 1.524 . S
C3774 C3775 1.397 . S
C3774 C3779 1.363 . S
C3775 H3746 0.950 . S
C3775 C3774 1.397 . S
C3775 C3776 1.334 . S
C3776 H3747 0.950 . S
C3776 C3775 1.334 . S
C3776 C3777 1.287 . S
C3777 C3776 1.287 . S
C3777 C3778 1.524 . S
C3777 H3780 0.999 . S
C3778 H3748 0.950 . S
C3778 C3777 1.524 . S
C3778 C3779 1.415 . S
C3779 H3749 0.950 . S
C3779 C3774 1.363 . S
C3779 C3778 1.415 . S
H3780 C3777 0.999 . S
H3781 C3762 0.913 . S
H3782 C3800 0.951 . S
H3783 C3802 0.951 . S
H3784 C3804 0.950 . S
H3785 C3805 0.950 . S
H3786 C3807 0.950 . S
H3787 C3810 0.950 . S
H3788 C3811 0.950 . S
H3789 C3813 0.950 . S
H3790 C3814 0.950 . S
H3791 C3815 0.951 . S
H3792 C3817 0.951 . S
H3793 C3819 0.950 . S
H3794 C3820 0.950 . S
H3795 C3822 0.950 . S
H3796 C3825 0.950 . S
H3797 C3826 0.950 . S
H3798 C3828 0.950 . S
H3799 C3829 0.950 . S
C3800 H3782 0.951 . S
C3800 C3801 1.366 . S
C3800 C3802 1.388 . S
C3801 C3800 1.366 . S
C3801 C3805 1.385 . S
C3802 H3783 0.951 . S
C3802 C3800 1.388 . S
C3802 C3803 1.366 . S
C3803 C3802 1.366 . S
C3803 C3804 1.414 . S
C3803 C3806 1.499 . S
C3804 H3784 0.950 . S
C3804 C3803 1.414 . S
C3804 C3805 1.374 . S
C3805 H3785 0.950 . S
C3805 C3801 1.385 . S
C3805 C3804 1.374 . S
C3806 C3803 1.499 . S
C3806 C3807 1.373 . S
C3806 C3808 1.389 . S
C3807 H3786 0.950 . S
C3807 C3806 1.373 . S
C3807 C3823 1.377 . S
C3808 C3806 1.389 . S
C3808 C3809 1.524 . S
C3808 C3822 1.377 . S
C3809 C3808 1.524 . S
C3809 C3810 1.397 . S
C3809 C3814 1.363 . S
C3810 H3787 0.950 . S
C3810 C3809 1.397 . S
C3810 C3811 1.334 . S
C3811 H3788 0.950 . S
C3811 C3810 1.334 . S
C3811 C3812 1.287 . S
C3812 C3811 1.287 . S
C3812 C3813 1.524 . S
C3812 H3831 0.913 . S
C3813 H3789 0.950 . S
C3813 C3812 1.524 . S
C3813 C3814 1.415 . S
C3814 H3790 0.950 . S
C3814 C3809 1.363 . S
C3814 C3813 1.415 . S
C3815 H3791 0.951 . S
C3815 C3816 1.366 . S
C3815 C3817 1.388 . S
C3816 C3815 1.366 . S
C3816 C3820 1.385 . S
C3817 H3792 0.951 . S
C3817 C3815 1.388 . S
C3817 C3818 1.366 . S
C3818 C3817 1.366 . S
C3818 C3819 1.414 . S
C3818 C3821 1.499 . S
C3819 H3793 0.950 . S
C3819 C3818 1.414 . S
C3819 C3820 1.374 . S
C3820 H3794 0.950 . S
C3820 C3816 1.385 . S
C3820 C3819 1.374 . S
C3821 C3818 1.499 . S
C3821 C3822 1.373 . S
C3821 C3823 1.389 . S
C3822 H3795 0.950 . S
C3822 C3808 1.377 . S
C3822 C3821 1.373 . S
C3823 C3807 1.377 . S
C3823 C3821 1.389 . S
C3823 C3824 1.524 . S
C3824 C3823 1.524 . S
C3824 C3825 1.397 . S
C3824 C3829 1.363 . S
C3825 H3796 0.950 . S
C3825 C3824 1.397 . S
C3825 C3826 1.334 . S
C3826 H3797 0.950 . S
C3826 C3825 1.334 . S
C3826 C3827 1.287 . S
C3827 C3826 1.287 . S
C3827 C3828 1.524 . S
C3827 H3830 0.999 . S
C3828 H3798 0.950 . S
C3828 C3827 1.524 . S
C3828 C3829 1.415 . S
C3829 H3799 0.950 . S
C3829 C3824 1.363 . S
C3829 C3828 1.415 . S
H3830 C3827 0.999 . S
H3831 C3812 0.913 . S
H3832 C3850 0.951 . S
H3833 C3852 0.951 . S
H3834 C3854 0.950 . S
H3835 C3855 0.950 . S
H3836 C3857 0.950 . S
H3837 C3860 0.950 . S
H3838 C3861 0.950 . S
H3839 C3863 0.950 . S
H3840 C3864 0.950 . S
H3841 C3865 0.951 . S
H3842 C3867 0.951 . S
H3843 C3869 0.950 . S
H3844 C3870 0.950 . S
H3845 C3872 0.950 . S
H3846 C3875 0.950 . S
H3847 C3876 0.950 . S
H3848 C3878 0.950 . S
H3849 C3879 0.950 . S
C3850 H3832 0.951 . S
C3850 C3851 1.366 . S
C3850 C3852 1.388 . S
C3851 C3850 1.366 . S
C3851 C3855 1.385 . S
C3852 H3833 0.951 . S
C3852 C3850 1.388 . S
C3852 C3853 1.366 . S
C3853 C3852 1.366 . S
C3853 C3854 1.414 . S
C3853 C3856 1.499 . S
C3854 H3834 0.950 . S
C3854 C3853 1.414 . S
C3854 C3855 1.374 . S
C3855 H3835 0.950 . S
C3855 C3851 1.385 . S
C3855 C3854 1.374 . S
C3856 C3853 1.499 . S
C3856 C3857 1.373 . S
C3856 C3858 1.389 . S
C3857 H3836 0.950 . S
C3857 C3856 1.373 . S
C3857 C3873 1.377 . S
C3858 C3856 1.389 . S
C3858 C3859 1.524 . S
C3858 C3872 1.377 . S
C3859 C3858 1.524 . S
C3859 C3860 1.397 . S
C3859 C3864 1.363 . S
C3860 H3837 0.950 . S
C3860 C3859 1.397 . S
C3860 C3861 1.334 . S
C3861 H3838 0.950 . S
C3861 C3860 1.334 . S
C3861 C3862 1.287 . S
C3862 C3861 1.287 . S
C3862 C3863 1.524 . S
C3862 H3881 0.913 . S
C3863 H3839 0.950 . S
C3863 C3862 1.524 . S
C3863 C3864 1.415 . S
C3864 H3840 0.950 . S
C3864 C3859 1.363 . S
C3864 C3863 1.415 . S
C3865 H3841 0.951 . S
C3865 C3866 1.366 . S
C3865 C3867 1.388 . S
C3866 C3865 1.366 . S
C3866 C3870 1.385 . S
C3867 H3842 0.951 . S
C3867 C3865 1.388 . S
C3867 C3868 1.366 . S
C3868 C3867 1.366 . S
C3868 C3869 1.414 . S
C3868 C3871 1.499 . S
C3869 H3843 0.950 . S
C3869 C3868 1.414 . S
C3869 C3870 1.374 . S
C3870 H3844 0.950 . S
C3870 C3866 1.385 . S
C3870 C3869 1.374 . S
C3871 C3868 1.499 . S
C3871 C3872 1.373 . S
C3871 C3873 1.389 . S
C3872 H3845 0.950 . S
C3872 C3858 1.377 . S
C3872 C3871 1.373 . S
C3873 C3857 1.377 . S
C3873 C3871 1.389 . S
C3873 C3874 1.524 . S
C3874 C3873 1.524 . S
C3874 C3875 1.397 . S
C3874 C3879 1.363 . S
C3875 H3846 0.950 . S
C3875 C3874 1.397 . S
C3875 C3876 1.334 . S
C3876 H3847 0.950 . S
C3876 C3875 1.334 . S
C3876 C3877 1.287 . S
C3877 C3876 1.287 . S
C3877 C3878 1.524 . S
C3877 H3880 0.999 . S
C3878 H3848 0.950 . S
C3878 C3877 1.524 . S
C3878 C3879 1.415 . S
C3879 H3849 0.950 . S
C3879 C3874 1.363 . S
C3879 C3878 1.415 . S
H3880 C3877 0.999 . S
H3881 C3862 0.913 . S
H3882 C3900 0.951 . S
H3883 C3902 0.951 . S
H3884 C3904 0.950 . S
H3885 C3905 0.950 . S
H3886 C3907 0.950 . S
H3887 C3910 0.950 . S
H3888 C3911 0.950 . S
H3889 C3913 0.950 . S
H3890 C3914 0.950 . S
H3891 C3915 0.951 . S
H3892 C3917 0.951 . S
H3893 C3919 0.950 . S
H3894 C3920 0.950 . S
H3895 C3922 0.950 . S
H3896 C3925 0.950 . S
H3897 C3926 0.950 . S
H3898 C3928 0.950 . S
H3899 C3929 0.950 . S
C3900 H3882 0.951 . S
C3900 C3901 1.366 . S
C3900 C3902 1.388 . S
C3901 C3900 1.366 . S
C3901 C3905 1.385 . S
C3902 H3883 0.951 . S
C3902 C3900 1.388 . S
C3902 C3903 1.366 . S
C3903 C3902 1.366 . S
C3903 C3904 1.414 . S
C3903 C3906 1.499 . S
C3904 H3884 0.950 . S
C3904 C3903 1.414 . S
C3904 C3905 1.374 . S
C3905 H3885 0.950 . S
C3905 C3901 1.385 . S
C3905 C3904 1.374 . S
C3906 C3903 1.499 . S
C3906 C3907 1.373 . S
C3906 C3908 1.389 . S
C3907 H3886 0.950 . S
C3907 C3906 1.373 . S
C3907 C3923 1.377 . S
C3908 C3906 1.389 . S
C3908 C3909 1.524 . S
C3908 C3922 1.377 . S
C3909 C3908 1.524 . S
C3909 C3910 1.397 . S
C3909 C3914 1.363 . S
C3910 H3887 0.950 . S
C3910 C3909 1.397 . S
C3910 C3911 1.334 . S
C3911 H3888 0.950 . S
C3911 C3910 1.334 . S
C3911 C3912 1.287 . S
C3912 C3911 1.287 . S
C3912 C3913 1.524 . S
C3912 H3931 0.913 . S
C3913 H3889 0.950 . S
C3913 C3912 1.524 . S
C3913 C3914 1.415 . S
C3914 H3890 0.950 . S
C3914 C3909 1.363 . S
C3914 C3913 1.415 . S
C3915 H3891 0.951 . S
C3915 C3916 1.366 . S
C3915 C3917 1.388 . S
C3916 C3915 1.366 . S
C3916 C3920 1.385 . S
C3917 H3892 0.951 . S
C3917 C3915 1.388 . S
C3917 C3918 1.366 . S
C3918 C3917 1.366 . S
C3918 C3919 1.414 . S
C3918 C3921 1.499 . S
C3919 H3893 0.950 . S
C3919 C3918 1.414 . S
C3919 C3920 1.374 . S
C3920 H3894 0.950 . S
C3920 C3916 1.385 . S
C3920 C3919 1.374 . S
C3921 C3918 1.499 . S
C3921 C3922 1.373 . S
C3921 C3923 1.389 . S
C3922 H3895 0.950 . S
C3922 C3908 1.377 . S
C3922 C3921 1.373 . S
C3923 C3907 1.377 . S
C3923 C3921 1.389 . S
C3923 C3924 1.524 . S
C3924 C3923 1.524 . S
C3924 C3925 1.397 . S
C3924 C3929 1.363 . S
C3925 H3896 0.950 . S
C3925 C3924 1.397 . S
C3925 C3926 1.334 . S
C3926 H3897 0.950 . S
C3926 C3925 1.334 . S
C3926 C3927 1.287 . S
C3927 C3926 1.287 . S
C3927 C3928 1.524 . S
C3927 H3930 0.999 . S
C3928 H3898 0.950 . S
C3928 C3927 1.524 . S
C3928 C3929 1.415 . S
C3929 H3899 0.950 . S
C3929 C3924 1.363 . S
C3929 C3928 1.415 . S
H3930 C3927 0.999 . S
H3931 C3912 0.913 . S
H3932 C3950 0.951 . S
H3933 C3952 0.951 . S
H3934 C3954 0.950 . S
H3935 C3955 0.950 . S
H3936 C3957 0.950 . S
H3937 C3960 0.950 . S
H3938 C3961 0.950 . S
H3939 C3963 0.950 . S
H3940 C3964 0.950 . S
H3941 C3965 0.951 . S
H3942 C3967 0.951 . S
H3943 C3969 0.950 . S
H3944 C3970 0.950 . S
H3945 C3972 0.950 . S
H3946 C3975 0.950 . S
H3947 C3976 0.950 . S
H3948 C3978 0.950 . S
H3949 C3979 0.950 . S
C3950 H3932 0.951 . S
C3950 C3951 1.366 . S
C3950 C3952 1.388 . S
C3951 C3950 1.366 . S
C3951 C3955 1.385 . S
C3952 H3933 0.951 . S
C3952 C3950 1.388 . S
C3952 C3953 1.366 . S
C3953 C3952 1.366 . S
C3953 C3954 1.414 . S
C3953 C3956 1.499 . S
C3954 H3934 0.950 . S
C3954 C3953 1.414 . S
C3954 C3955 1.374 . S
C3955 H3935 0.950 . S
C3955 C3951 1.385 . S
C3955 C3954 1.374 . S
C3956 C3953 1.499 . S
C3956 C3957 1.373 . S
C3956 C3958 1.389 . S
C3957 H3936 0.950 . S
C3957 C3956 1.373 . S
C3957 C3973 1.377 . S
C3958 C3956 1.389 . S
C3958 C3959 1.524 . S
C3958 C3972 1.377 . S
C3959 C3958 1.524 . S
C3959 C3960 1.397 . S
C3959 C3964 1.363 . S
C3960 H3937 0.950 . S
C3960 C3959 1.397 . S
C3960 C3961 1.334 . S
C3961 H3938 0.950 . S
C3961 C3960 1.334 . S
C3961 C3962 1.287 . S
C3962 C3961 1.287 . S
C3962 C3963 1.524 . S
C3962 H3981 0.913 . S
C3963 H3939 0.950 . S
C3963 C3962 1.524 . S
C3963 C3964 1.415 . S
C3964 H3940 0.950 . S
C3964 C3959 1.363 . S
C3964 C3963 1.415 . S
C3965 H3941 0.951 . S
C3965 C3966 1.366 . S
C3965 C3967 1.388 . S
C3966 C3965 1.366 . S
C3966 C3970 1.385 . S
C3967 H3942 0.951 . S
C3967 C3965 1.388 . S
C3967 C3968 1.366 . S
C3968 C3967 1.366 . S
C3968 C3969 1.414 . S
C3968 C3971 1.499 . S
C3969 H3943 0.950 . S
C3969 C3968 1.414 . S
C3969 C3970 1.374 . S
C3970 H3944 0.950 . S
C3970 C3966 1.385 . S
C3970 C3969 1.374 . S
C3971 C3968 1.499 . S
C3971 C3972 1.373 . S
C3971 C3973 1.389 . S
C3972 H3945 0.950 . S
C3972 C3958 1.377 . S
C3972 C3971 1.373 . S
C3973 C3957 1.377 . S
C3973 C3971 1.389 . S
C3973 C3974 1.524 . S
C3974 C3973 1.524 . S
C3974 C3975 1.397 . S
C3974 C3979 1.363 . S
C3975 H3946 0.950 . S
C3975 C3974 1.397 . S
C3975 C3976 1.334 . S
C3976 H3947 0.950 . S
C3976 C3975 1.334 . S
C3976 C3977 1.287 . S
C3977 C3976 1.287 . S
C3977 C3978 1.524 . S
C3977 H3980 0.999 . S
C3978 H3948 0.950 . S
C3978 C3977 1.524 . S
C3978 C3979 1.415 . S
C3979 H3949 0.950 . S
C3979 C3974 1.363 . S
C3979 C3978 1.415 . S
H3980 C3977 0.999 . S
H3981 C3962 0.913 . S
H3982 C4000 0.951 . S
H3983 C4002 0.951 . S
H3984 C4004 0.950 . S
H3985 C4005 0.950 . S
H3986 C4007 0.950 . S
H3987 C4010 0.950 . S
H3988 C4011 0.950 . S
H3989 C4013 0.950 . S
H3990 C4014 0.950 . S
H3991 C4015 0.951 . S
H3992 C4017 0.951 . S
H3993 C4019 0.950 . S
H3994 C4020 0.950 . S
H3995 C4022 0.950 . S
H3996 C4025 0.950 . S
H3997 C4026 0.950 . S
H3998 C4028 0.950 . S
H3999 C4029 0.950 . S
C4000 H3982 0.951 . S
C4000 C4001 1.366 . S
C4000 C4002 1.388 . S
C4001 C4000 1.366 . S
C4001 C4005 1.385 . S
C4002 H3983 0.951 . S
C4002 C4000 1.388 . S
C4002 C4003 1.366 . S
C4003 C4002 1.366 . S
C4003 C4004 1.414 . S
C4003 C4006 1.499 . S
C4004 H3984 0.950 . S
C4004 C4003 1.414 . S
C4004 C4005 1.374 . S
C4005 H3985 0.950 . S
C4005 C4001 1.385 . S
C4005 C4004 1.374 . S
C4006 C4003 1.499 . S
C4006 C4007 1.373 . S
C4006 C4008 1.389 . S
C4007 H3986 0.950 . S
C4007 C4006 1.373 . S
C4007 C4023 1.377 . S
C4008 C4006 1.389 . S
C4008 C4009 1.524 . S
C4008 C4022 1.377 . S
C4009 C4008 1.524 . S
C4009 C4010 1.397 . S
C4009 C4014 1.363 . S
C4010 H3987 0.950 . S
C4010 C4009 1.397 . S
C4010 C4011 1.334 . S
C4011 H3988 0.950 . S
C4011 C4010 1.334 . S
C4011 C4012 1.287 . S
C4012 C4011 1.287 . S
C4012 C4013 1.524 . S
C4012 H4031 0.913 . S
C4013 H3989 0.950 . S
C4013 C4012 1.524 . S
C4013 C4014 1.415 . S
C4014 H3990 0.950 . S
C4014 C4009 1.363 . S
C4014 C4013 1.415 . S
C4015 H3991 0.951 . S
C4015 C4016 1.366 . S
C4015 C4017 1.388 . S
C4016 C4015 1.366 . S
C4016 C4020 1.385 . S
C4017 H3992 0.951 . S
C4017 C4015 1.388 . S
C4017 C4018 1.366 . S
C4018 C4017 1.366 . S
C4018 C4019 1.414 . S
C4018 C4021 1.499 . S
C4019 H3993 0.950 . S
C4019 C4018 1.414 . S
C4019 C4020 1.374 . S
C4020 H3994 0.950 . S
C4020 C4016 1.385 . S
C4020 C4019 1.374 . S
C4021 C4018 1.499 . S
C4021 C4022 1.373 . S
C4021 C4023 1.389 . S
C4022 H3995 0.950 . S
C4022 C4008 1.377 . S
C4022 C4021 1.373 . S
C4023 C4007 1.377 . S
C4023 C4021 1.389 . S
C4023 C4024 1.524 . S
C4024 C4023 1.524 . S
C4024 C4025 1.397 . S
C4024 C4029 1.363 . S
C4025 H3996 0.950 . S
C4025 C4024 1.397 . S
C4025 C4026 1.334 . S
C4026 H3997 0.950 . S
C4026 C4025 1.334 . S
C4026 C4027 1.287 . S
C4027 C4026 1.287 . S
C4027 C4028 1.524 . S
C4027 H4030 0.999 . S
C4028 H3998 0.950 . S
C4028 C4027 1.524 . S
C4028 C4029 1.415 . S
C4029 H3999 0.950 . S
C4029 C4024 1.363 . S
C4029 C4028 1.415 . S
H4030 C4027 0.999 . S
H4031 C4012 0.913 . S
C1351 C439 1.329 . S
C1366 C643 1.300 . S
C1401 C465 1.491 . S
C1416 C727 1.431 . S
C1451 C401 1.443 . S
C1466 C807 1.407 . S
C1501 C369 1.396 . S
C1516 C723 1.369 . S
C1566 C811 1.361 . S
C1551 C305 1.425 . S
C1601 C343 1.289 . S
C1616 C639 1.298 . S
C1666 C632 1.339 . S
C1651 C375 1.405 . S
C1716 C716 1.394 . S
C1701 C311 1.454 . S
C1751 C337 1.402 . S
C1766 C818 1.407 . S
C1801 C433 1.366 . S
C1816 C734 1.368 . S
C1851 C471 1.386 . S
C1866 C800 1.326 . S
C1916 C650 1.338 . S
C1901 C407 1.371 . S
C1966 C895 1.301 . S
C1951 C55 1.329 . S
C2001 C81 1.492 . S
C2016 C979 1.431 . S
C2051 C17 1.442 . S
C2066 C1059 1.408 . S
C2101 C561 1.396 . S
C2116 C975 1.369 . S
C2151 C497 1.424 . S
C2166 C1063 1.361 . S
C2201 C535 1.288 . S
C2216 C891 1.298 . S
C2251 C567 1.405 . S
C2266 C884 1.341 . S
C2301 C503 1.453 . S
C2316 C968 1.395 . S
C2366 C1070 1.408 . S
C2351 C529 1.403 . S
C2401 C49 1.366 . S
C2416 C986 1.368 . S
C2466 C1052 1.324 . S
C2451 C87 1.385 . S
C2501 C23 1.371 . S
C2516 C902 1.338 . S
C2566 C1147 1.300 . S
C2551 C247 1.330 . S
C2601 C273 1.492 . S
C2616 C1231 1.431 . S
C2666 C1311 1.408 . S
C2651 C209 1.442 . S
C2716 C1227 1.369 . S
C2701 C177 1.397 . S
C2766 C1315 1.360 . S
C2751 C113 1.424 . S
C2801 C151 1.289 . S
C2816 C1143 1.298 . S
C2851 C183 1.405 . S
C2866 C1136 1.340 . S
C2901 C119 1.453 . S
C2916 C1220 1.396 . S
C2966 C1322 1.407 . S
C2951 C145 1.403 . S
C3001 C241 1.366 . S
C3016 C1238 1.367 . S
C3051 C279 1.386 . S
C3066 C1304 1.325 . S
C3101 C215 1.371 . S
C3116 C1154 1.339 . S
C3151 C509 1.427 . S
C3166 C646 1.336 . S
C3216 C730 1.335 . S
C3201 C541 1.432 . S
C3251 C573 1.440 . S
C3266 C802 1.333 . S
C3301 C221 1.485 . S
C3316 C718 1.360 . S
C3351 C253 1.399 . S
C3366 C814 1.305 . S
C3416 C634 1.336 . S
C3401 C285 1.425 . S
C3451 C125 1.427 . S
C3466 C898 1.336 . S
C3501 C157 1.433 . S
C3516 C982 1.335 . S
C3551 C189 1.441 . S
C3566 C1054 1.331 . S
C3601 C413 1.485 . S
C3616 C970 1.361 . S
C3666 C1066 1.306 . S
C3651 C445 1.400 . S
C3701 C477 1.426 . S
C3716 C886 1.335 . S
C3751 C317 1.426 . S
C3766 C1150 1.338 . S
C3801 C349 1.433 . S
C3816 C1234 1.335 . S
C3866 C1306 1.333 . S
C3851 C381 1.440 . S
C3901 C29 1.485 . S
C3916 C1222 1.361 . S
C3951 C61 1.400 . S
C3966 C1318 1.306 . S
C4001 C93 1.425 . S
C4016 C1138 1.336 . S
