# Generated by pormake.
# Topology rtl, (3,6)-cn, num edge types: 1
# Building blocks:
#     Node 0, Type 0, BuildingBlock: ESEHIV_clean_linker_0, # of connection points: 3
#     Node 1, Type 0, BuildingBlock: ESEHIV_clean_linker_0, # of connection points: 3
#     Node 2, Type 0, BuildingBlock: ESEHIV_clean_linker_0, # of connection points: 3
#     Node 3, Type 0, BuildingBlock: ESEHIV_clean_linker_0, # of connection points: 3
#     Node 4, Type 1, BuildingBlock: KUMBUR_clean_sbu_1, # of connection points: 6
#     Node 5, Type 1, BuildingBlock: KUMBUR_clean_sbu_1, # of connection points: 6
#     Edge 6, Type (0, 1), BuildingBlock: EZIPEK_clean_linker_0, # of connection points: 2
#     Edge 7, Type (0, 1), BuildingBlock: EZIPEK_clean_linker_0, # of connection points: 2
#     Edge 8, Type (0, 1), BuildingBlock: EZIPEK_clean_linker_0, # of connection points: 2
#     Edge 9, Type (0, 1), BuildingBlock: EZIPEK_clean_linker_0, # of connection points: 2
#     Edge 10, Type (0, 1), BuildingBlock: EZIPEK_clean_linker_0, # of connection points: 2
#     Edge 11, Type (0, 1), BuildingBlock: EZIPEK_clean_linker_0, # of connection points: 2
#     Edge 12, Type (0, 1), BuildingBlock: EZIPEK_clean_linker_0, # of connection points: 2
#     Edge 13, Type (0, 1), BuildingBlock: EZIPEK_clean_linker_0, # of connection points: 2
#     Edge 14, Type (0, 1), BuildingBlock: EZIPEK_clean_linker_0, # of connection points: 2
#     Edge 15, Type (0, 1), BuildingBlock: EZIPEK_clean_linker_0, # of connection points: 2
#     Edge 16, Type (0, 1), BuildingBlock: EZIPEK_clean_linker_0, # of connection points: 2
#     Edge 17, Type (0, 1), BuildingBlock: EZIPEK_clean_linker_0, # of connection points: 2
# Relax obj value: 0.019
# Max RMSD: 0.146
# Mean RMSD: 0.088
data_MOF--net-rtl--node1-KUMBUR_clean_sbu_1--node2-ESEHIV_clean_linker_0--edge1-EZIPEK_clean_linker_0
_symmetry_space_group_name_H-M    P1
_symmetry_Int_Tables_number       1
_symmetry_cell_setting            triclinic
loop_
_symmetry_equiv_pos_as_xyz
'x, y, z'
_cell_length_a     21.982473
_cell_length_b     22.870443
_cell_length_c     20.875376
_cell_angle_alpha  72.747545
_cell_angle_beta   98.98136
_cell_angle_gamma 91.865832
loop_
_atom_site_label
_atom_site_type_symbol
_atom_site_fract_x
_atom_site_fract_y
_atom_site_fract_z
_atom_type_partial_charge
H0 H 0.15086 0.90253 0.03252 0.0
H1 H 0.27258 0.75209 0.14751 0.0
H2 H 0.2689 0.82646 0.93121 0.0
C3 C 0.18698 0.87044 0.03484 0.0
C4 C 0.20635 0.86791 0.97499 0.0
C5 C 0.21235 0.82996 0.09736 0.0
C6 C 0.25553 0.7853 0.09939 0.0
C7 C 0.27696 0.78387 0.03959 0.0
C8 C 0.25351 0.82716 0.97789 0.0
H9 H 0.60468 0.64087 0.6696 0.0
H10 H 0.71741 0.76821 0.54598 0.0
H11 H 0.73137 0.75261 0.75921 0.0
C12 C 0.63819 0.67721 0.66434 0.0
C13 C 0.66248 0.69659 0.72086 0.0
C14 C 0.65936 0.70183 0.60209 0.0
C15 C 0.70233 0.74887 0.59489 0.0
C16 C 0.73008 0.76722 0.65122 0.0
C17 C 0.70993 0.74028 0.71473 0.0
H18 H 0.88031 0.0767 0.15008 0.0
H19 H 0.78946 0.19498 0.23317 0.0
H20 H 0.74686 0.21094 0.02042 0.0
C21 C 0.84709 0.11285 0.14343 0.0
C22 C 0.8145 0.14148 0.07875 0.0
C23 C 0.83762 0.13173 0.19931 0.0
C24 C 0.79591 0.17959 0.19025 0.0
C25 C 0.76293 0.20805 0.12589 0.0
C26 C 0.77191 0.18853 0.07039 0.0
H27 H 0.38569 0.41012 0.431 0.0
H28 H 0.25409 0.29698 0.54276 0.0
H29 H 0.28423 0.27861 0.35172 0.0
C30 C 0.34819 0.37838 0.43504 0.0
C31 C 0.33661 0.34865 0.3846 0.0
C32 C 0.31242 0.36746 0.48819 0.0
C33 C 0.27504 0.31463 0.49744 0.0
C34 C 0.2645 0.28266 0.44859 0.0
C35 C 0.29361 0.30157 0.39073 0.0
Tb36 Tb 0.0767 0.93101 0.57036 0.0
C37 C 0.99179 0.21644 0.54624 0.0
N38 N 0.03013 0.17216 0.58994 0.0
C39 C 0.10422 0.24802 0.60587 0.0
C40 C 0.00875 0.27847 0.52904 0.0
C41 C 0.08492 0.18717 0.62178 0.0
C42 C 0.06616 0.29387 0.55888 0.0
C43 C 0.89203 0.24399 0.47699 0.0
C44 C 0.93452 0.19945 0.52068 0.0
C45 C 0.90935 0.3057 0.45739 0.0
C46 C 0.96762 0.32293 0.48343 0.0
Tb47 Tb 0.99537 0.07409 0.61166 0.0
N48 N 0.91944 0.13953 0.54152 0.0
C49 C 0.83294 0.22536 0.45594 0.0
C50 C 0.86049 0.12183 0.52464 0.0
C51 C 0.81689 0.16408 0.48058 0.0
H52 H 0.11396 0.15197 0.65914 0.0
H53 H 0.77092 0.14936 0.46583 0.0
H54 H 1.00087 0.80239 0.62826 0.0
H55 H 0.30225 0.00586 0.66363 0.0
H56 H 0.84764 0.07456 0.54334 0.0
H57 H 0.79897 0.25811 0.42219 0.0
H58 H 0.19855 0.02068 0.60038 0.0
H59 H 0.14824 0.25957 0.63008 0.0
H60 H 0.87757 0.34058 0.42338 0.0
H61 H 0.97999 0.3708 0.46894 0.0
H62 H 0.02395 0.70093 0.71064 0.0
H63 H 0.08107 0.34098 0.54677 0.0
H64 H 0.33647 0.90369 0.74007 0.0
N65 N 0.09077 0.83704 0.64891 0.0
C66 C 0.14809 0.82484 0.68522 0.0
C67 C 0.05928 0.73538 0.7041 0.0
C68 C 0.1634 0.76688 0.73232 0.0
C69 C 0.04627 0.79337 0.65778 0.0
C70 C 0.11822 0.7219 0.74127 0.0
N71 N 0.17354 0.92736 0.63273 0.0
C72 C 0.21265 0.97538 0.62938 0.0
C73 C 0.24995 0.861 0.71658 0.0
C74 C 0.19087 0.87135 0.6769 0.0
C75 C 0.29082 0.90968 0.71039 0.0
C76 C 0.27179 0.96726 0.66709 0.0
H77 H 0.12822 0.67687 0.77705 0.0
H78 H 0.2359 0.71107 0.80426 0.0
H79 H 0.31137 0.79392 0.79224 0.0
O80 O 0.13487 0.90649 0.51036 0.0
O81 O 0.06884 0.92954 0.67304 0.0
O82 O 0.08316 0.03009 0.66253 0.0
O83 O 0.04671 0.86498 0.52161 0.0
O84 O 0.10404 0.02349 0.51565 0.0
O85 O 0.08847 0.08226 0.58365 0.0
O86 O 0.97444 0.02559 0.7078 0.0
O87 O 0.95952 0.06601 0.51109 0.0
O88 O 0.01292 0.98982 0.4868 0.0
O89 O 0.97146 0.12348 0.67496 0.0
O90 O 0.93329 0.99575 0.61051 0.0
O91 O 0.98391 0.91298 0.59503 0.0
C92 C 0.08652 0.97302 0.70031 0.0
C93 C 0.07672 0.88543 0.41405 0.0
C94 C 0.09949 0.87912 0.30558 0.0
C95 C 0.04389 0.90996 0.27291 0.0
C96 C 0.02049 0.91517 0.3802 0.0
C97 C 1.00468 0.92793 0.31013 0.0
C98 C 0.11622 0.86726 0.37625 0.0
C99 C 0.10542 0.07691 0.52772 0.0
C100 C 0.0931 0.87223 0.48853 0.0
C101 C 0.22296 0.75578 0.7694 0.0
C102 C 0.26601 0.80282 0.76201 0.0
C103 C 0.97263 0.03528 0.47055 0.0
C104 C 0.90103 0.07451 0.74625 0.0
C105 C 0.8429 0.08661 0.83181 0.0
C106 C 0.78784 0.07993 0.79056 0.0
C107 C 0.8456 0.06818 0.70552 0.0
C108 C 0.89958 0.08329 0.80971 0.0
C109 C 0.78933 0.07043 0.72781 0.0
C110 C 0.93599 0.93846 0.60798 0.0
C111 C 0.96028 0.07454 0.72198 0.0
H112 H 0.03063 0.91951 0.21854 0.0
H113 H 0.98801 0.92789 0.40772 0.0
H114 H 0.96152 0.95119 0.28474 0.0
H115 H 0.15921 0.84349 0.40154 0.0
H116 H 0.74382 0.08239 0.80689 0.0
H117 H 0.84588 0.06082 0.65692 0.0
H118 H 0.9422 0.08873 0.84128 0.0
H119 H 0.74679 0.06517 0.69619 0.0
Tb120 Tb 0.45852 0.4626 1.00721 0.0
C121 C 0.71032 0.58258 0.06456 0.0
N122 N 0.68816 0.53089 0.10479 0.0
C123 C 0.78571 0.48018 0.12163 0.0
C124 C 0.7701 0.58389 0.04776 0.0
C125 C 0.72581 0.48104 0.13628 0.0
C126 C 0.80748 0.53134 0.07594 0.0
C127 C 0.69609 0.6904 1.0033 0.0
C128 C 0.6738 0.6351 0.04288 0.0
C129 C 0.7542 0.69116 0.98302 0.0
C130 C 0.7912 0.63803 1.00534 0.0
Tb131 Tb 0.58916 0.53645 0.1225 0.0
N132 N 0.61781 0.63251 0.06357 0.0
C133 C 0.66029 0.74367 0.98734 0.0
C134 C 0.58488 0.68537 0.0522 0.0
C135 C 0.6052 0.74137 0.01331 0.0
H136 H 0.70972 0.44146 0.17219 0.0
H137 H 0.57829 0.78277 1.00344 0.0
H138 H 0.33053 0.5507 0.9464 0.0
H139 H 0.47283 0.21837 0.12398 0.0
H140 H 0.5432 0.68548 0.07331 0.0
H141 H 0.6758 0.78712 0.95717 0.0
H142 H 0.50505 0.31816 0.05264 0.0
H143 H 0.81488 0.43996 0.14533 0.0
H144 H 0.77174 0.73305 0.95187 0.0
H145 H 0.83671 0.63976 0.99109 0.0
H146 H 0.22641 0.55202 0.97634 0.0
H147 H 0.8538 0.53049 0.06452 0.0
H148 H 0.3768 0.21195 0.1739 0.0
N149 N 0.35753 0.46679 0.02207 0.0
C150 C 0.33718 0.41557 0.06517 0.0
C151 C 0.25753 0.5138 1.0028 0.0
C152 C 0.27737 0.41293 0.0822 0.0
C153 C 0.3171 0.51371 0.98705 0.0
C154 C 0.23805 0.46379 0.05189 0.0
N155 N 0.4304 0.36753 0.06632 0.0
C156 C 0.46364 0.31569 0.07509 0.0
C157 C 0.35403 0.30827 0.12794 0.0
C158 C 0.37467 0.36388 0.08751 0.0
C159 C 0.39097 0.25573 0.14308 0.0
C160 C 0.44521 0.25917 0.11497 0.0
H161 H 0.19173 0.46369 0.06359 0.0
H162 H 0.21272 0.35631 0.14142 0.0
H163 H 0.28004 0.26453 0.18163 0.0
O164 O 0.48739 0.44429 0.92311 0.0
O165 O 0.48018 0.4234 0.11769 0.0
O166 O 0.50173 0.50482 0.15909 0.0
O167 O 0.39242 0.44086 0.93375 0.0
O168 O 0.5531 0.42375 0.03071 0.0
O169 O 0.59765 0.43833 0.13382 0.0
O170 O 0.61473 0.59142 0.18741 0.0
O171 O 0.59665 0.53732 0.01785 0.0
O172 O 0.4986 0.55079 0.95805 0.0
O173 O 0.62971 0.4942 0.22334 0.0
O174 O 0.50249 0.5875 0.09025 0.0
O175 O 0.43279 0.55394 0.01187 0.0
C176 C 0.47278 0.45345 0.1605 0.0
C177 C 0.41438 0.47513 0.8231 0.0
C178 C 0.37551 0.48078 0.70516 0.0
C179 C 0.369 0.54463 0.69007 0.0
C180 C 0.40807 0.53897 0.80666 0.0
C181 C 0.38577 0.57347 0.74037 0.0
C182 C 0.39895 0.44612 0.77201 0.0
C183 C 0.59498 0.41079 0.08609 0.0
C184 C 0.43165 0.43855 0.89436 0.0
C185 C 0.25806 0.35887 0.1266 0.0
C186 C 0.29637 0.30657 0.14947 0.0
C187 C 0.55778 0.56311 0.96243 0.0
C188 C 0.59979 0.54194 0.30018 0.0
C189 C 0.59076 0.57658 0.39837 0.0
C190 C 0.54215 0.53599 0.41306 0.0
C191 C 0.55128 0.50142 0.31644 0.0
C192 C 0.61914 0.58013 0.34122 0.0
C193 C 0.52237 0.49879 0.37205 0.0
C194 C 0.45034 0.59225 0.04811 0.0
C195 C 0.62956 0.54455 0.24043 0.0
H196 H 0.35098 0.57218 0.63907 0.0
H197 H 0.41905 0.56196 0.8454 0.0
H198 H 0.3806 0.62264 0.72813 0.0
H199 H 0.40345 0.3968 0.78445 0.0
H200 H 0.51994 0.53286 0.45668 0.0
H201 H 0.53598 0.47141 0.28645 0.0
H202 H 0.65669 0.61149 0.32971 0.0
H203 H 0.48497 0.46736 0.38374 0.0
C204 C 0.24716 0.16888 0.47839 0.0
C205 C 0.22231 0.2292 0.45802 0.0
C206 C 0.11795 0.18697 0.45988 0.0
C207 C 0.14376 0.12725 0.48932 0.0
N208 N 0.22747 0.06334 0.48392 0.0
N209 N 0.13382 0.29703 0.42234 0.0
C210 C 0.20679 0.11828 0.486 0.0
C211 C 0.15741 0.23865 0.44577 0.0
N212 N 0.3095 0.15943 0.49333 0.0
N213 N 0.0558 0.19321 0.44 0.0
H214 H 0.16125 0.3355 0.40889 0.0
H215 H 0.08751 0.3079 0.41807 0.0
H216 H 0.02686 0.15557 0.44744 0.0
H217 H 0.03343 0.23409 0.4112 0.0
H218 H 0.32965 0.11614 0.51628 0.0
H219 H 0.34096 0.19504 0.48823 0.0
H220 H 0.27179 0.05661 0.47532 0.0
H221 H 0.19866 0.02685 0.48163 0.0
C222 C 0.31299 0.70307 0.99221 0.0
C223 C 0.32225 0.73596 0.04087 0.0
C224 C 0.40871 0.66736 0.10084 0.0
C225 C 0.40692 0.64278 0.04497 0.0
N226 N 0.36734 0.66013 0.9253 0.0
N227 N 0.39459 0.76032 0.12904 0.0
C228 C 0.36213 0.66731 0.98676 0.0
C229 C 0.37524 0.72189 0.09114 0.0
N230 N 0.25703 0.70281 0.95349 0.0
N231 N 0.4378 0.63752 0.16445 0.0
H232 H 0.3739 0.80295 0.12028 0.0
H233 H 0.43563 0.75263 0.16325 0.0
H234 H 0.45403 0.59269 0.17848 0.0
H235 H 0.43656 0.65385 0.2059 0.0
H236 H 0.2485 0.67431 0.92235 0.0
H237 H 0.2179 0.72398 0.9595 0.0
H238 H 0.33645 0.68094 0.88165 0.0
H239 H 0.4056 0.63979 0.91643 0.0
C240 C 0.82991 0.80356 0.60638 0.0
C241 C 0.78281 0.81145 0.64282 0.0
C242 C 0.8398 0.89933 0.66468 0.0
C243 C 0.87996 0.89818 0.61744 0.0
N244 N 0.89402 0.85795 0.5253 0.0
N245 N 0.73627 0.88019 0.69053 0.0
C246 C 0.86918 0.85302 0.58264 0.0
C247 C 0.78546 0.8635 0.66696 0.0
N248 N 0.83921 0.74841 0.59635 0.0
N249 N 0.85507 0.93005 0.71139 0.0
H250 H 0.6943 0.8577 0.68931 0.0
H251 H 0.73537 0.92064 0.70384 0.0
H252 H 0.8976 0.94999 0.71766 0.0
H253 H 0.82909 0.92784 0.7498 0.0
H254 H 0.87595 0.74041 0.57372 0.0
H255 H 0.81531 0.70922 0.61812 0.0
H256 H 0.88393 0.82721 0.49697 0.0
H257 H 0.91734 0.89669 0.5013 0.0
C258 C 0.7351 0.31976 0.07866 0.0
C259 C 0.72025 0.25994 0.11622 0.0
C260 C 0.62806 0.30033 0.14163 0.0
C261 C 0.63879 0.35898 0.09746 0.0
N262 N 0.70011 0.42315 0.01845 0.0
N263 N 0.64746 0.19105 0.17409 0.0
C264 C 0.69138 0.36809 0.06396 0.0
C265 C 0.6654 0.24959 0.14538 0.0
N266 N 0.79235 0.33115 0.06017 0.0
N267 N 0.58262 0.29299 0.18077 0.0
H268 H 0.67311 0.15253 0.17697 0.0
H269 H 0.60451 0.18049 0.18937 0.0
H270 H 0.55171 0.3279 0.17589 0.0
H271 H 0.57772 0.25351 0.22023 0.0
H272 H 0.80834 0.37502 0.03942 0.0
H273 H 0.82631 0.29727 0.07153 0.0
H274 H 0.73248 0.43014 0.98551 0.0
H275 H 0.67351 0.46161 0.01247 0.0
C276 C 0.14477 0.79613 0.18798 0.0
C277 C 0.19211 0.83443 0.16035 0.0
C278 C 0.18642 0.89627 0.23726 0.0
C279 C 0.13852 0.85846 0.26423 0.0
N280 N 0.08222 0.76462 0.27823 0.0
N281 N 0.26827 0.91108 0.16836 0.0
C282 C 0.12121 0.8056 0.24387 0.0
C283 C 0.21639 0.88127 0.18841 0.0
N284 N 0.12029 0.7528 0.15861 0.0
N285 N 0.20113 0.94805 0.25595 0.0
H286 H 0.29101 0.90119 0.13242 0.0
H287 H 0.29178 0.94169 0.19125 0.0
H288 H 0.1815 0.95931 0.29322 0.0
H289 H 0.23018 0.98157 0.23217 0.0
H290 H 0.08088 0.72834 0.17106 0.0
H291 H 0.13723 0.74375 0.1185 0.0
H292 H 0.07209 0.72231 0.27026 0.0
H293 H 0.06418 0.77063 0.31926 0.0
C294 C 0.65742 0.60441 0.82131 0.0
C295 C 0.64034 0.66626 0.78709 0.0
C296 C 0.56893 0.66203 0.86864 0.0
C297 C 0.58297 0.59859 0.89941 0.0
N298 N 0.6247 0.50683 0.88797 0.0
N299 N 0.57455 0.75279 0.77256 0.0
C300 C 0.62317 0.56911 0.87134 0.0
C301 C 0.5947 0.69491 0.80939 0.0
N302 N 0.70677 0.57918 0.80613 0.0
N303 N 0.53143 0.69097 0.89634 0.0
H304 H 0.59374 0.77859 0.73053 0.0
H305 H 0.53666 0.77405 0.78094 0.0
H306 H 0.5105 0.66802 0.93805 0.0
H307 H 0.52409 0.73813 0.88108 0.0
H308 H 0.72492 0.53602 0.8342 0.0
H309 H 0.73325 0.60383 0.77 0.0
H310 H 0.64816 0.48285 0.86377 0.0
H311 H 0.59692 0.47951 0.92064 0.0
C312 C 0.93637 0.11551 0.28082 0.0
C313 C 0.873 0.10293 0.2675 0.0
C314 C 0.87468 0.04433 0.38695 0.0
C315 C 0.93909 0.05415 0.39967 0.0
N316 N 0.03349 0.08527 0.35329 0.0
N317 N 0.78416 0.04567 0.30335 0.0
C318 C 0.97069 0.08526 0.34495 0.0
C319 C 0.84278 0.06443 0.31931 0.0
N320 N 0.96337 0.15852 0.23329 0.0
N321 N 0.84382 0.01599 0.43943 0.0
H322 H 0.7596 0.05935 0.25423 0.0
H323 H 0.76177 0.01249 0.33721 0.0
H324 H 0.86602 0.99688 0.48872 0.0
H325 H 0.796 0.0145 0.43497 0.0
H326 H 1.00746 0.175 0.24341 0.0
H327 H 0.93989 0.18206 0.18558 0.0
H328 H 0.05846 0.10147 0.3132 0.0
H329 H 0.06085 0.06341 0.39868 0.0
C330 C 0.36192 0.45481 0.53253 0.0
C331 C 0.31839 0.40706 0.53671 0.0
C332 C 0.3027 0.41668 0.64763 0.0
C333 C 0.35725 0.45182 0.64963 0.0
N334 N 0.4425 0.49958 0.59407 0.0
N335 N 0.22013 0.38443 0.57497 0.0
C336 C 0.38813 0.46911 0.59224 0.0
C337 C 0.28067 0.39865 0.58826 0.0
N338 N 0.36866 0.49482 0.47108 0.0
N339 N 0.27127 0.40117 0.70164 0.0
H340 H 0.19977 0.38356 0.52662 0.0
H341 H 0.18843 0.38287 0.60764 0.0
H342 H 0.28289 0.41705 0.74382 0.0
H343 H 0.23584 0.3695 0.70618 0.0
H344 H 0.39629 0.53341 0.46606 0.0
H345 H 0.33905 0.49447 0.42689 0.0
H346 H 0.4681 0.50917 0.5542 0.0
H347 H 0.46446 0.50983 0.63741 0.0
C348 C 0.67756 0.61953 0.54999 0.0
C349 C 0.64351 0.6723 0.54712 0.0
C350 C 0.57813 0.66565 0.44288 0.0
C351 C 0.61257 0.61326 0.44541 0.0
N352 N 0.69951 0.54447 0.49492 0.0
N353 N 0.56764 0.75106 0.48765 0.0
C354 C 0.66381 0.59161 0.49699 0.0
C355 C 0.59565 0.69707 0.49244 0.0
N356 N 0.72206 0.59523 0.60455 0.0
N357 N 0.52779 0.68428 0.39388 0.0
H358 H 0.57798 0.77394 0.52436 0.0
H359 H 0.53685 0.77529 0.44577 0.0
H360 H 0.51586 0.66458 0.35459 0.0
H361 H 0.49617 0.71735 0.39336 0.0
H362 H 0.74331 0.55281 0.61462 0.0
H363 H 0.73596 0.61598 0.64256 0.0
H364 H 0.74146 0.53078 0.52605 0.0
H365 H 0.68938 0.52098 0.45881 0.0
C366 C 0.80684 0.06773 1.00914 0.0
C367 C 0.82684 0.12465 0.0185 0.0
C368 C 0.85687 0.15707 0.90518 0.0
C369 C 0.84063 0.09868 0.89751 0.0
N370 N 0.81308 0.99392 0.94759 0.0
N371 N 0.88459 0.21709 0.9831 0.0
C372 C 0.81956 0.05254 0.95126 0.0
C373 C 0.85616 0.16737 0.96883 0.0
N374 N 0.77347 0.02933 0.05394 0.0
N375 N 0.8702 0.2036 0.85093 0.0
H376 H 0.88607 0.22544 0.0298 0.0
H377 H 0.91188 0.24652 0.95137 0.0
H378 H 0.87037 0.1984 0.80299 0.0
H379 H 0.87565 0.24878 0.85181 0.0
H380 H 0.75187 0.99044 0.04564 0.0
H381 H 0.76303 0.03889 0.09688 0.0
H382 H 0.80383 0.95708 0.98803 0.0
H383 H 0.82268 0.98104 0.90622 0.0
C384 C 0.34585 0.4265 0.27287 0.0
C385 C 0.36733 0.37125 0.32307 0.0
C386 C 0.45992 0.37332 0.27051 0.0
C387 C 0.43644 0.4257 0.2169 0.0
N388 N 0.35506 0.50065 0.16466 0.0
N389 N 0.43934 0.28641 0.36397 0.0
C390 C 0.37884 0.45196 0.21758 0.0
C391 C 0.42239 0.34263 0.31963 0.0
N392 N 0.29427 0.45517 0.27891 0.0
N393 N 0.52026 0.35642 0.27838 0.0
H394 H 0.41405 0.26353 0.40207 0.0
H395 H 0.47542 0.26031 0.35924 0.0
H396 H 0.55078 0.38214 0.24794 0.0
H397 H 0.54191 0.32213 0.31985 0.0
H398 H 0.28035 0.49938 0.24988 0.0
H399 H 0.26639 0.43574 0.31566 0.0
H400 H 0.31088 0.51862 0.15796 0.0
H401 H 0.37811 0.52057 0.12404 0.0
C402 C 0.19277 0.95726 0.86941 0.0
C403 C 0.17127 0.90103 0.90827 0.0
C404 C 0.08479 0.90492 0.81817 0.0
C405 C 0.1121 0.95511 0.77406 0.0
N406 N 0.1966 0.027 0.75797 0.0
N407 N 0.10047 0.81705 0.91789 0.0
C408 C 0.16681 0.98156 0.79983 0.0
C409 C 0.11813 0.8738 0.88232 0.0
N410 N 0.23797 0.98746 0.8992 0.0
N411 N 0.026 0.88793 0.79976 0.0
H412 H 0.12233 0.79308 0.96625 0.0
H413 H 0.06705 0.79166 0.89717 0.0
H414 H 0.99874 0.9105 0.75419 0.0
H415 H 1.00179 0.85588 0.83278 0.0
H416 H 0.25096 0.03199 0.87599 0.0
H417 H 0.25861 0.97004 0.94971 0.0
H418 H 0.24064 0.04132 0.77262 0.0
H419 H 0.18055 0.04778 0.70704 0.0
loop_
_geom_bond_atom_site_label_1
_geom_bond_atom_site_label_2
_geom_bond_distance
_geom_bond_site_symmetry_2
_ccdc_geom_bond_type
H0 C3 0.931 . S
H1 C6 0.928 . S
H2 C8 0.930 . S
C3 H0 0.931 . S
C3 C4 1.413 . S
C3 C5 1.360 1_556 S
C4 C3 1.413 . S
C4 C8 1.429 . S
C5 C3 1.360 1_554 S
C5 C6 1.372 . S
C6 H1 0.928 . S
C6 C5 1.372 . S
C6 C7 1.404 . S
C7 C6 1.404 . S
C7 C8 1.391 1_554 S
C8 H2 0.930 . S
C8 C4 1.429 . S
C8 C7 1.391 1_556 S
H9 C12 0.931 . S
H10 C15 0.928 . S
H11 C17 0.930 . S
C12 H9 0.931 . S
C12 C13 1.413 . S
C12 C14 1.360 . S
C13 C12 1.413 . S
C13 C17 1.429 . S
C14 C12 1.360 . S
C14 C15 1.372 . S
C15 H10 0.928 . S
C15 C14 1.372 . S
C15 C16 1.404 . S
C16 C15 1.404 . S
C16 C17 1.391 . S
C17 H11 0.930 . S
C17 C13 1.429 . S
C17 C16 1.391 . S
H18 C21 0.931 . S
H19 C24 0.928 . S
H20 C26 0.930 . S
C21 H18 0.931 . S
C21 C22 1.413 . S
C21 C23 1.360 . S
C22 C21 1.413 . S
C22 C26 1.429 . S
C23 C21 1.360 . S
C23 C24 1.372 . S
C24 H19 0.928 . S
C24 C23 1.372 . S
C24 C25 1.404 . S
C25 C24 1.404 . S
C25 C26 1.391 . S
C26 H20 0.930 . S
C26 C22 1.429 . S
C26 C25 1.391 . S
H27 C30 0.931 . S
H28 C33 0.928 . S
H29 C35 0.930 . S
C30 H27 0.931 . S
C30 C31 1.413 . S
C30 C32 1.360 . S
C31 C30 1.413 . S
C31 C35 1.429 . S
C32 C30 1.360 . S
C32 C33 1.372 . S
C33 H28 0.928 . S
C33 C32 1.372 . S
C33 C34 1.404 . S
C34 C33 1.404 . S
C34 C35 1.391 . S
C35 H29 0.930 . S
C35 C31 1.429 . S
C35 C34 1.391 . S
Tb36 N65 2.617 . S
Tb36 N71 2.572 . S
Tb36 O80 2.465 . S
Tb36 O81 2.387 . S
Tb36 O83 2.428 . S
Tb36 O84 2.308 1_565 S
Tb36 O88 2.349 1_465 S
Tb36 O91 2.393 1_455 S
Tb36 C100 2.802 . S
C37 N38 1.379 . S
C37 C40 1.416 . S
C37 C44 1.424 . S
N38 C37 1.379 . S
N38 C41 1.334 . S
N38 Tb47 2.617 . S
C39 C41 1.390 . S
C39 C42 1.339 . S
C39 H59 0.930 1_655 S
C40 C37 1.416 . S
C40 C42 1.416 . S
C40 C46 1.448 . S
C41 N38 1.334 . S
C41 C39 1.390 . S
C41 H52 0.930 1_655 S
C42 C39 1.339 . S
C42 C40 1.416 . S
C42 H63 0.930 . S
C43 C44 1.413 . S
C43 C45 1.427 . S
C43 C49 1.416 . S
C44 C37 1.424 . S
C44 C43 1.413 . S
C44 N48 1.361 . S
C45 C43 1.427 . S
C45 C46 1.328 . S
C45 H60 0.929 . S
C46 C40 1.448 . S
C46 C45 1.328 . S
C46 H61 0.930 . S
Tb47 N38 2.617 . S
Tb47 N48 2.572 . S
Tb47 O82 2.349 1_655 S
Tb47 O85 2.393 1_655 S
Tb47 O86 2.465 . S
Tb47 O87 2.387 . S
Tb47 O89 2.428 . S
Tb47 O90 2.308 1_545 S
Tb47 C111 2.802 . S
N48 C44 1.361 . S
N48 Tb47 2.572 . S
N48 C50 1.340 . S
C49 C43 1.416 . S
C49 C51 1.332 . S
C49 H57 0.931 . S
C50 N48 1.340 . S
C50 C51 1.407 . S
C50 H56 0.930 . S
C51 C49 1.332 . S
C51 C50 1.407 . S
C51 H53 0.929 . S
H52 C41 0.930 1_455 S
H53 C51 0.929 . S
H54 C69 0.930 1_655 S
H55 C76 0.929 . S
H56 C50 0.930 . S
H57 C49 0.931 . S
H58 C72 0.930 . S
H59 C39 0.930 1_455 S
H60 C45 0.929 . S
H61 C46 0.930 . S
H62 C67 0.930 1_655 S
H63 C42 0.930 . S
H64 C75 0.931 . S
N65 Tb36 2.617 . S
N65 C66 1.379 . S
N65 C69 1.334 . S
C66 N65 1.379 . S
C66 C68 1.416 . S
C66 C74 1.424 . S
C67 H62 0.930 1_455 S
C67 C69 1.390 . S
C67 C70 1.339 . S
C68 C66 1.416 . S
C68 C70 1.416 . S
C68 C101 1.448 . S
C69 H54 0.930 1_455 S
C69 N65 1.334 . S
C69 C67 1.390 . S
C70 C67 1.339 . S
C70 C68 1.416 . S
C70 H77 0.930 . S
N71 Tb36 2.572 . S
N71 C72 1.340 . S
N71 C74 1.361 . S
C72 H58 0.930 . S
C72 N71 1.340 . S
C72 C76 1.407 . S
C73 C74 1.413 . S
C73 C75 1.416 . S
C73 C102 1.427 . S
C74 C66 1.424 . S
C74 N71 1.361 . S
C74 C73 1.413 . S
C75 H64 0.931 . S
C75 C73 1.416 . S
C75 C76 1.332 . S
C76 H55 0.929 . S
C76 C72 1.407 . S
C76 C75 1.332 . S
H77 C70 0.930 . S
H78 C101 0.930 . S
H79 C102 0.929 . S
O80 Tb36 2.465 . S
O80 C100 1.264 . S
O81 Tb36 2.387 . S
O81 C92 1.264 . S
O82 Tb47 2.349 1_455 S
O82 C92 1.243 1_545 S
O83 Tb36 2.428 . S
O83 C100 1.256 . S
O84 Tb36 2.308 1_545 S
O84 C99 1.266 . S
O85 Tb47 2.393 1_455 S
O85 C99 1.248 . S
O86 Tb47 2.465 . S
O86 C111 1.264 . S
O87 Tb47 2.387 . S
O87 C103 1.264 . S
O88 Tb36 2.349 1_645 S
O88 C103 1.243 . S
O89 Tb47 2.428 . S
O89 C111 1.256 . S
O90 Tb47 2.308 1_565 S
O90 C110 1.266 . S
O91 Tb36 2.393 1_655 S
O91 C110 1.248 . S
C92 O81 1.264 . S
C92 O82 1.243 1_565 S
C93 C96 1.399 . S
C93 C98 1.383 . S
C93 C100 1.496 . S
C94 C95 1.399 . S
C94 C98 1.389 . S
C95 C94 1.399 . S
C95 C97 1.380 . S
C95 H112 0.929 . S
C96 C93 1.399 . S
C96 C97 1.392 . S
C96 H113 0.929 . S
C97 C95 1.380 . S
C97 C96 1.392 . S
C97 H114 0.929 . S
C98 C93 1.383 . S
C98 C94 1.389 . S
C98 H115 0.931 . S
C99 O84 1.266 . S
C99 O85 1.248 . S
C100 Tb36 2.802 . S
C100 O80 1.264 . S
C100 O83 1.256 . S
C100 C93 1.496 . S
C101 C68 1.448 . S
C101 H78 0.930 . S
C101 C102 1.328 . S
C102 C73 1.427 . S
C102 H79 0.929 . S
C102 C101 1.328 . S
C103 O87 1.264 . S
C103 O88 1.243 . S
C104 C107 1.399 . S
C104 C108 1.383 . S
C104 C111 1.496 . S
C105 C106 1.399 . S
C105 C108 1.389 . S
C106 C105 1.399 . S
C106 C109 1.380 . S
C106 H116 0.929 . S
C107 C104 1.399 . S
C107 C109 1.392 . S
C107 H117 0.929 . S
C108 C104 1.383 . S
C108 C105 1.389 . S
C108 H118 0.931 . S
C109 C106 1.380 . S
C109 C107 1.392 . S
C109 H119 0.929 . S
C110 O90 1.266 . S
C110 O91 1.248 . S
C111 Tb47 2.802 . S
C111 O86 1.264 . S
C111 O89 1.256 . S
C111 C104 1.496 . S
H112 C95 0.929 . S
H113 C96 0.929 . S
H114 C97 0.929 . S
H115 C98 0.931 . S
H116 C106 0.929 . S
H117 C107 0.929 . S
H118 C108 0.931 . S
H119 C109 0.929 . S
Tb120 N149 2.617 1_556 S
Tb120 N155 2.572 1_556 S
Tb120 O164 2.465 . S
Tb120 O165 2.387 1_556 S
Tb120 O167 2.428 . S
Tb120 O168 2.308 1_556 S
Tb120 O172 2.349 . S
Tb120 O175 2.394 . S
Tb120 C184 2.802 . S
C121 N122 1.379 . S
C121 C124 1.416 . S
C121 C128 1.424 . S
N122 C121 1.379 . S
N122 C125 1.334 . S
N122 Tb131 2.617 . S
C123 C125 1.390 . S
C123 C126 1.339 . S
C123 H143 0.930 . S
C124 C121 1.416 . S
C124 C126 1.416 . S
C124 C130 1.448 . S
C125 N122 1.334 . S
C125 C123 1.390 . S
C125 H136 0.930 . S
C126 C123 1.339 . S
C126 C124 1.416 . S
C126 H147 0.930 . S
C127 C128 1.413 . S
C127 C129 1.427 . S
C127 C133 1.416 . S
C128 C121 1.424 . S
C128 C127 1.413 . S
C128 N132 1.361 . S
C129 C127 1.427 . S
C129 C130 1.328 . S
C129 H144 0.929 . S
C130 C124 1.448 . S
C130 C129 1.328 . S
C130 H145 0.930 . S
Tb131 N122 2.617 . S
Tb131 N132 2.572 . S
Tb131 O166 2.349 . S
Tb131 O169 2.393 . S
Tb131 O170 2.465 . S
Tb131 O171 2.387 . S
Tb131 O173 2.428 . S
Tb131 O174 2.308 . S
Tb131 C195 2.802 . S
N132 C128 1.361 . S
N132 Tb131 2.572 . S
N132 C134 1.340 . S
C133 C127 1.416 . S
C133 C135 1.332 . S
C133 H141 0.931 . S
C134 N132 1.340 . S
C134 C135 1.407 . S
C134 H140 0.930 . S
C135 C133 1.332 . S
C135 C134 1.407 . S
C135 H137 0.929 . S
H136 C125 0.930 . S
H137 C135 0.929 . S
H138 C153 0.930 . S
H139 C160 0.929 . S
H140 C134 0.930 . S
H141 C133 0.931 . S
H142 C156 0.930 . S
H143 C123 0.930 . S
H144 C129 0.929 . S
H145 C130 0.930 . S
H146 C151 0.930 . S
H147 C126 0.930 . S
H148 C159 0.931 . S
N149 Tb120 2.617 1_554 S
N149 C150 1.379 . S
N149 C153 1.334 1_554 S
C150 N149 1.379 . S
C150 C152 1.416 . S
C150 C158 1.424 . S
C151 H146 0.930 . S
C151 C153 1.390 . S
C151 C154 1.339 1_556 S
C152 C150 1.416 . S
C152 C154 1.416 . S
C152 C185 1.448 . S
C153 H138 0.930 . S
C153 N149 1.334 1_556 S
C153 C151 1.390 . S
C154 C151 1.339 1_554 S
C154 C152 1.416 . S
C154 H161 0.930 . S
N155 Tb120 2.572 1_554 S
N155 C156 1.340 . S
N155 C158 1.361 . S
C156 H142 0.930 . S
C156 N155 1.340 . S
C156 C160 1.407 . S
C157 C158 1.413 . S
C157 C159 1.416 . S
C157 C186 1.427 . S
C158 C150 1.424 . S
C158 N155 1.361 . S
C158 C157 1.413 . S
C159 H148 0.931 . S
C159 C157 1.416 . S
C159 C160 1.332 . S
C160 H139 0.929 . S
C160 C156 1.407 . S
C160 C159 1.332 . S
H161 C154 0.930 . S
H162 C185 0.930 . S
H163 C186 0.929 . S
O164 Tb120 2.465 . S
O164 C184 1.264 . S
O165 Tb120 2.387 1_554 S
O165 C176 1.264 . S
O166 Tb131 2.349 . S
O166 C176 1.243 . S
O167 Tb120 2.428 . S
O167 C184 1.256 . S
O168 Tb120 2.308 1_554 S
O168 C183 1.266 . S
O169 Tb131 2.393 . S
O169 C183 1.248 . S
O170 Tb131 2.465 . S
O170 C195 1.264 . S
O171 Tb131 2.387 . S
O171 C187 1.264 1_554 S
O172 Tb120 2.349 . S
O172 C187 1.243 . S
O173 Tb131 2.428 . S
O173 C195 1.256 . S
O174 Tb131 2.308 . S
O174 C194 1.266 . S
O175 Tb120 2.394 . S
O175 C194 1.246 1_556 S
C176 O165 1.264 . S
C176 O166 1.243 . S
C177 C180 1.399 . S
C177 C182 1.383 . S
C177 C184 1.496 . S
C178 C179 1.399 . S
C178 C182 1.389 . S
C179 C178 1.399 . S
C179 C181 1.380 . S
C179 H196 0.929 . S
C180 C177 1.399 . S
C180 C181 1.392 . S
C180 H197 0.929 . S
C181 C179 1.380 . S
C181 C180 1.392 . S
C181 H198 0.929 . S
C182 C177 1.383 . S
C182 C178 1.389 . S
C182 H199 0.931 . S
C183 O168 1.266 . S
C183 O169 1.248 . S
C184 Tb120 2.802 . S
C184 O164 1.264 . S
C184 O167 1.256 . S
C184 C177 1.496 . S
C185 C152 1.448 . S
C185 H162 0.930 . S
C185 C186 1.328 . S
C186 C157 1.427 . S
C186 H163 0.929 . S
C186 C185 1.328 . S
C187 O171 1.264 1_556 S
C187 O172 1.243 . S
C188 C191 1.399 . S
C188 C192 1.383 . S
C188 C195 1.496 . S
C189 C190 1.399 . S
C189 C192 1.389 . S
C190 C189 1.399 . S
C190 C193 1.380 . S
C190 H200 0.929 . S
C191 C188 1.399 . S
C191 C193 1.392 . S
C191 H201 0.929 . S
C192 C188 1.383 . S
C192 C189 1.389 . S
C192 H202 0.931 . S
C193 C190 1.380 . S
C193 C191 1.392 . S
C193 H203 0.929 . S
C194 O174 1.266 . S
C194 O175 1.246 1_554 S
C195 Tb131 2.802 . S
C195 O170 1.264 . S
C195 O173 1.256 . S
C195 C188 1.496 . S
H196 C179 0.929 . S
H197 C180 0.929 . S
H198 C181 0.929 . S
H199 C182 0.931 . S
H200 C190 0.929 . S
H201 C191 0.929 . S
H202 C192 0.931 . S
H203 C193 0.929 . S
C204 C205 1.363 . S
C204 C210 1.379 . S
C204 N212 1.356 . S
C205 C204 1.363 . S
C205 C211 1.363 . S
C206 C207 1.363 . S
C206 C211 1.379 . S
C206 N213 1.356 . S
C207 C206 1.363 . S
C207 C210 1.363 . S
N208 C210 1.356 . S
N208 H220 0.984 . S
N208 H221 0.985 . S
N209 C211 1.356 . S
N209 H214 0.984 . S
N209 H215 0.985 . S
C210 C204 1.379 . S
C210 C207 1.363 . S
C210 N208 1.356 . S
C211 C205 1.363 . S
C211 C206 1.379 . S
C211 N209 1.356 . S
N212 C204 1.356 . S
N212 H218 0.984 . S
N212 H219 0.984 . S
N213 C206 1.356 . S
N213 H216 0.984 . S
N213 H217 0.985 . S
H214 N209 0.984 . S
H215 N209 0.985 . S
H216 N213 0.984 . S
H217 N213 0.985 . S
H218 N212 0.984 . S
H219 N212 0.984 . S
H220 N208 0.984 . S
H221 N208 0.985 . S
C222 C223 1.363 1_556 S
C222 C228 1.379 . S
C222 N230 1.356 . S
C223 C222 1.363 1_554 S
C223 C229 1.363 . S
C224 C225 1.363 . S
C224 C229 1.379 . S
C224 N231 1.356 . S
C225 C224 1.363 . S
C225 C228 1.363 1_554 S
N226 C228 1.356 . S
N226 H238 0.984 . S
N226 H239 0.985 . S
N227 C229 1.356 . S
N227 H232 0.984 . S
N227 H233 0.985 . S
C228 C222 1.379 . S
C228 C225 1.363 1_556 S
C228 N226 1.356 . S
C229 C223 1.363 . S
C229 C224 1.379 . S
C229 N227 1.356 . S
N230 C222 1.356 . S
N230 H236 0.984 . S
N230 H237 0.984 . S
N231 C224 1.356 . S
N231 H234 0.984 . S
N231 H235 0.985 . S
H232 N227 0.984 . S
H233 N227 0.985 . S
H234 N231 0.984 . S
H235 N231 0.985 . S
H236 N230 0.984 . S
H237 N230 0.984 . S
H238 N226 0.984 . S
H239 N226 0.985 . S
C240 C241 1.363 . S
C240 C246 1.379 . S
C240 N248 1.356 . S
C241 C240 1.363 . S
C241 C247 1.363 . S
C242 C243 1.363 . S
C242 C247 1.379 . S
C242 N249 1.356 . S
C243 C242 1.363 . S
C243 C246 1.363 . S
N244 C246 1.356 . S
N244 H256 0.984 . S
N244 H257 0.985 . S
N245 C247 1.356 . S
N245 H250 0.984 . S
N245 H251 0.985 . S
C246 C240 1.379 . S
C246 C243 1.363 . S
C246 N244 1.356 . S
C247 C241 1.363 . S
C247 C242 1.379 . S
C247 N245 1.356 . S
N248 C240 1.356 . S
N248 H254 0.984 . S
N248 H255 0.984 . S
N249 C242 1.356 . S
N249 H252 0.984 . S
N249 H253 0.985 . S
H250 N245 0.984 . S
H251 N245 0.985 . S
H252 N249 0.984 . S
H253 N249 0.985 . S
H254 N248 0.984 . S
H255 N248 0.984 . S
H256 N244 0.984 . S
H257 N244 0.985 . S
C258 C259 1.363 . S
C258 C264 1.379 . S
C258 N266 1.371 . S
C259 C258 1.363 . S
C259 C265 1.363 . S
C260 C261 1.363 . S
C260 C265 1.379 . S
C260 N267 1.356 . S
C261 C260 1.363 . S
C261 C264 1.363 . S
N262 C264 1.356 1_556 S
N262 H274 0.984 . S
N262 H275 0.985 . S
N263 C265 1.356 . S
N263 H268 0.984 . S
N263 H269 0.985 . S
C264 C258 1.379 . S
C264 C261 1.363 . S
C264 N262 1.356 1_554 S
C265 C259 1.363 . S
C265 C260 1.379 . S
C265 N263 1.356 . S
N266 C258 1.371 . S
N266 H272 0.970 1_554 S
N266 H273 0.985 . S
N267 C260 1.356 . S
N267 H270 0.984 . S
N267 H271 0.985 . S
H268 N263 0.984 . S
H269 N263 0.985 . S
H270 N267 0.984 . S
H271 N267 0.985 . S
H272 N266 0.970 1_556 S
H273 N266 0.985 . S
H274 N262 0.984 . S
H275 N262 0.985 . S
C276 C277 1.363 . S
C276 C282 1.379 . S
C276 N284 1.356 . S
C277 C276 1.363 . S
C277 C283 1.363 . S
C278 C279 1.363 . S
C278 C283 1.379 . S
C278 N285 1.356 1_565 S
C279 C278 1.363 . S
C279 C282 1.363 . S
N280 C282 1.356 . S
N280 H292 0.984 . S
N280 H293 0.985 . S
N281 C283 1.356 . S
N281 H286 0.984 . S
N281 H287 0.985 1_565 S
C282 C276 1.379 . S
C282 C279 1.363 . S
C282 N280 1.356 . S
C283 C277 1.363 . S
C283 C278 1.379 . S
C283 N281 1.356 . S
N284 C276 1.356 . S
N284 H290 0.984 . S
N284 H291 0.984 . S
N285 C278 1.356 1_545 S
N285 H288 0.984 . S
N285 H289 0.985 . S
H286 N281 0.984 . S
H287 N281 0.985 1_545 S
H288 N285 0.984 . S
H289 N285 0.985 . S
H290 N284 0.984 . S
H291 N284 0.984 . S
H292 N280 0.984 . S
H293 N280 0.985 . S
C294 C295 1.363 . S
C294 C300 1.379 . S
C294 N302 1.356 . S
C295 C294 1.363 . S
C295 C301 1.363 . S
C296 C297 1.363 . S
C296 C301 1.379 . S
C296 N303 1.356 . S
C297 C296 1.363 . S
C297 C300 1.363 . S
N298 C300 1.356 . S
N298 H310 0.984 . S
N298 H311 0.985 . S
N299 C301 1.356 . S
N299 H304 0.984 . S
N299 H305 0.985 . S
C300 C294 1.379 . S
C300 C297 1.363 . S
C300 N298 1.356 . S
C301 C295 1.363 . S
C301 C296 1.379 . S
C301 N299 1.356 . S
N302 C294 1.356 . S
N302 H308 0.984 . S
N302 H309 0.984 . S
N303 C296 1.356 . S
N303 H306 0.984 . S
N303 H307 0.985 . S
H304 N299 0.984 . S
H305 N299 0.985 . S
H306 N303 0.984 . S
H307 N303 0.985 . S
H308 N302 0.984 . S
H309 N302 0.984 . S
H310 N298 0.984 . S
H311 N298 0.985 . S
C312 C313 1.363 . S
C312 C318 1.379 . S
C312 N320 1.356 . S
C313 C312 1.363 . S
C313 C319 1.363 . S
C314 C315 1.363 . S
C314 C319 1.379 . S
C314 N321 1.356 1_545 S
C315 C314 1.363 . S
C315 C318 1.363 . S
N316 C318 1.356 . S
N316 H328 0.984 . S
N316 H329 0.985 . S
N317 C319 1.356 . S
N317 H322 0.984 . S
N317 H323 0.985 1_545 S
C318 C312 1.379 . S
C318 C315 1.363 . S
C318 N316 1.356 . S
C319 C313 1.363 . S
C319 C314 1.379 . S
C319 N317 1.356 . S
N320 C312 1.356 . S
N320 H326 0.984 . S
N320 H327 0.984 . S
N321 C314 1.356 1_565 S
N321 H324 0.984 . S
N321 H325 0.985 . S
H322 N317 0.984 . S
H323 N317 0.985 1_565 S
H324 N321 0.984 . S
H325 N321 0.985 . S
H326 N320 0.984 . S
H327 N320 0.984 . S
H328 N316 0.984 . S
H329 N316 0.985 . S
C330 C331 1.363 . S
C330 C336 1.379 . S
C330 N338 1.356 . S
C331 C330 1.363 . S
C331 C337 1.363 . S
C332 C333 1.363 . S
C332 C337 1.379 . S
C332 N339 1.356 . S
C333 C332 1.363 . S
C333 C336 1.363 . S
N334 C336 1.356 . S
N334 H346 0.984 . S
N334 H347 0.985 . S
N335 C337 1.356 . S
N335 H340 0.984 . S
N335 H341 0.985 . S
C336 C330 1.379 . S
C336 C333 1.363 . S
C336 N334 1.356 . S
C337 C331 1.363 . S
C337 C332 1.379 . S
C337 N335 1.356 . S
N338 C330 1.356 . S
N338 H344 0.984 . S
N338 H345 0.984 . S
N339 C332 1.356 . S
N339 H342 0.984 . S
N339 H343 0.985 . S
H340 N335 0.984 . S
H341 N335 0.985 . S
H342 N339 0.984 . S
H343 N339 0.985 . S
H344 N338 0.984 . S
H345 N338 0.984 . S
H346 N334 0.984 . S
H347 N334 0.985 . S
C348 C349 1.363 . S
C348 C354 1.379 . S
C348 N356 1.356 . S
C349 C348 1.363 . S
C349 C355 1.363 . S
C350 C351 1.363 . S
C350 C355 1.379 . S
C350 N357 1.356 . S
C351 C350 1.363 . S
C351 C354 1.363 . S
N352 C354 1.356 . S
N352 H364 0.984 . S
N352 H365 0.985 . S
N353 C355 1.356 . S
N353 H358 0.984 . S
N353 H359 0.985 . S
C354 C348 1.379 . S
C354 C351 1.363 . S
C354 N352 1.356 . S
C355 C349 1.363 . S
C355 C350 1.379 . S
C355 N353 1.356 . S
N356 C348 1.356 . S
N356 H362 0.984 . S
N356 H363 0.984 . S
N357 C350 1.356 . S
N357 H360 0.984 . S
N357 H361 0.985 . S
H358 N353 0.984 . S
H359 N353 0.985 . S
H360 N357 0.984 . S
H361 N357 0.985 . S
H362 N356 0.984 . S
H363 N356 0.984 . S
H364 N352 0.984 . S
H365 N352 0.985 . S
C366 C367 1.363 1_556 S
C366 C372 1.379 . S
C366 N374 1.356 . S
C367 C366 1.363 1_554 S
C367 C373 1.363 . S
C368 C369 1.363 . S
C368 C373 1.379 1_556 S
C368 N375 1.356 . S
C369 C368 1.363 . S
C369 C372 1.363 . S
N370 C372 1.356 . S
N370 H382 0.984 . S
N370 H383 0.985 . S
N371 C373 1.356 . S
N371 H376 0.984 . S
N371 H377 0.985 . S
C372 C366 1.379 . S
C372 C369 1.363 . S
C372 N370 1.356 . S
C373 C367 1.363 . S
C373 C368 1.379 1_554 S
C373 N371 1.356 . S
N374 C366 1.356 . S
N374 H380 0.984 . S
N374 H381 0.984 . S
N375 C368 1.356 . S
N375 H378 0.984 . S
N375 H379 0.985 . S
H376 N371 0.984 . S
H377 N371 0.985 . S
H378 N375 0.984 . S
H379 N375 0.985 . S
H380 N374 0.984 . S
H381 N374 0.984 . S
H382 N370 0.984 . S
H383 N370 0.985 . S
C384 C385 1.363 . S
C384 C390 1.379 . S
C384 N392 1.356 . S
C385 C384 1.363 . S
C385 C391 1.363 . S
C386 C387 1.363 . S
C386 C391 1.379 . S
C386 N393 1.356 . S
C387 C386 1.363 . S
C387 C390 1.363 . S
N388 C390 1.356 . S
N388 H400 0.984 . S
N388 H401 0.985 . S
N389 C391 1.356 . S
N389 H394 0.984 . S
N389 H395 0.985 . S
C390 C384 1.379 . S
C390 C387 1.363 . S
C390 N388 1.356 . S
C391 C385 1.363 . S
C391 C386 1.379 . S
C391 N389 1.356 . S
N392 C384 1.356 . S
N392 H398 0.984 . S
N392 H399 0.984 . S
N393 C386 1.356 . S
N393 H396 0.984 . S
N393 H397 0.985 . S
H394 N389 0.984 . S
H395 N389 0.985 . S
H396 N393 0.984 . S
H397 N393 0.985 . S
H398 N392 0.984 . S
H399 N392 0.984 . S
H400 N388 0.984 . S
H401 N388 0.985 . S
C402 C403 1.363 . S
C402 C408 1.379 . S
C402 N410 1.356 . S
C403 C402 1.363 . S
C403 C409 1.363 . S
C404 C405 1.363 . S
C404 C409 1.379 . S
C404 N411 1.356 . S
C405 C404 1.363 . S
C405 C408 1.363 . S
N406 C408 1.356 1_545 S
N406 H418 0.984 . S
N406 H419 0.985 . S
N407 C409 1.356 . S
N407 H412 0.984 . S
N407 H413 0.985 . S
C408 C402 1.379 . S
C408 C405 1.363 . S
C408 N406 1.356 1_565 S
C409 C403 1.363 . S
C409 C404 1.379 . S
C409 N407 1.356 . S
N410 C402 1.356 . S
N410 H416 0.984 1_565 S
N410 H417 0.984 . S
N411 C404 1.356 . S
N411 H414 0.984 . S
N411 H415 0.985 . S
H412 N407 0.984 . S
H413 N407 0.985 . S
H414 N411 0.984 . S
H415 N411 0.985 . S
H416 N410 0.984 1_545 S
H417 N410 0.984 . S
H418 N406 0.984 . S
H419 N406 0.985 . S
C207 C99 1.556 . S
C205 C34 1.571 . S
C223 C7 1.547 . S
C225 C194 1.540 . S
C241 C16 1.569 . S
C243 C110 1.556 . S
C259 C25 1.545 . S
C261 C183 1.540 . S
C279 C94 1.356 . S
C277 C5 1.523 . S
C297 C187 1.569 . S
C295 C13 1.560 . S
C313 C23 1.546 . S
C315 C103 1.566 . S
C331 C32 1.514 . S
C333 C178 1.362 . S
C351 C189 1.361 . S
C349 C14 1.512 . S
C369 C105 1.355 . S
C367 C22 1.521 . S
C387 C176 1.567 . S
C385 C31 1.560 . S
C403 C4 1.543 . S
C405 C92 1.564 . S
