# Generated by pormake.
# Topology rtl, (3,6)-cn, num edge types: 1
# Building blocks:
#     Node 0, Type 0, BuildingBlock: MIDCAF_clean_linker_0, # of connection points: 3
#     Node 1, Type 0, BuildingBlock: MIDCAF_clean_linker_0, # of connection points: 3
#     Node 2, Type 0, BuildingBlock: MIDCAF_clean_linker_0, # of connection points: 3
#     Node 3, Type 0, BuildingBlock: MIDCAF_clean_linker_0, # of connection points: 3
#     Node 4, Type 1, BuildingBlock: LEVNOQ01_clean_sbu_1, # of connection points: 6
#     Node 5, Type 1, BuildingBlock: LEVNOQ01_clean_sbu_1, # of connection points: 6
#     Edge 6, Type (0, 1), BuildingBlock: EZIPEK_clean_linker_0, # of connection points: 2
#     Edge 7, Type (0, 1), BuildingBlock: EZIPEK_clean_linker_0, # of connection points: 2
#     Edge 8, Type (0, 1), BuildingBlock: EZIPEK_clean_linker_0, # of connection points: 2
#     Edge 9, Type (0, 1), BuildingBlock: EZIPEK_clean_linker_0, # of connection points: 2
#     Edge 10, Type (0, 1), BuildingBlock: EZIPEK_clean_linker_0, # of connection points: 2
#     Edge 11, Type (0, 1), BuildingBlock: EZIPEK_clean_linker_0, # of connection points: 2
#     Edge 12, Type (0, 1), BuildingBlock: EZIPEK_clean_linker_0, # of connection points: 2
#     Edge 13, Type (0, 1), BuildingBlock: EZIPEK_clean_linker_0, # of connection points: 2
#     Edge 14, Type (0, 1), BuildingBlock: EZIPEK_clean_linker_0, # of connection points: 2
#     Edge 15, Type (0, 1), BuildingBlock: EZIPEK_clean_linker_0, # of connection points: 2
#     Edge 16, Type (0, 1), BuildingBlock: EZIPEK_clean_linker_0, # of connection points: 2
#     Edge 17, Type (0, 1), BuildingBlock: EZIPEK_clean_linker_0, # of connection points: 2
# Relax obj value: 0.027
# Max RMSD: 0.061
# Mean RMSD: 0.047
data_MOF--net-rtl--node1-LEVNOQ01_clean_sbu_1--node2-MIDCAF_clean_linker_0--edge1-EZIPEK_clean_linker_0
_symmetry_space_group_name_H-M    P1
_symmetry_Int_Tables_number       1
_symmetry_cell_setting            triclinic
loop_
_symmetry_equiv_pos_as_xyz
'x, y, z'
_cell_length_a     28.895001
_cell_length_b     32.821638
_cell_length_c     23.108785
_cell_angle_alpha  89.722798
_cell_angle_beta   97.966512
_cell_angle_gamma 89.841419
loop_
_atom_site_label
_atom_site_type_symbol
_atom_site_fract_x
_atom_site_fract_y
_atom_site_fract_z
_atom_type_partial_charge
C0 C 0.194 0.96118 0.2345 0.0
C1 C 0.21908 0.95808 0.29087 0.0
C2 C 0.2659 0.94525 0.29763 0.0
C3 C 0.28621 0.93281 0.249 0.0
H4 H 0.35485 0.82626 0.206 0.0
H5 H 0.39346 0.75955 0.21604 0.0
H6 H 0.4131 0.76402 0.03468 0.0
H7 H 0.37471 0.83044 0.02383 0.0
H8 H 0.32042 0.92511 0.9426 0.0
H9 H 0.28189 0.94709 0.84538 0.0
H10 H 0.14762 0.9368 0.90578 0.0
H11 H 0.18586 0.91771 0.00291 0.0
H12 H 0.19369 0.95097 0.14309 0.0
H13 H 0.15788 0.97121 0.2284 0.0
H14 H 0.2859 0.94299 0.34079 0.0
H15 H 0.32179 0.92146 0.25565 0.0
N16 N 0.31354 0.88759 0.15047 0.0
N17 N 0.31206 0.88139 0.04907 0.0
N18 N 0.26184 0.9276 0.08661 0.0
C19 C 0.32969 0.86956 0.10432 0.0
C20 C 0.27824 0.91041 0.04001 0.0
C21 C 0.27998 0.9169 0.14203 0.0
C22 C 0.36095 0.8335 0.11375 0.0
C23 C 0.36838 0.81359 0.16851 0.0
C24 C 0.39048 0.77549 0.17453 0.0
C25 C 0.40566 0.75695 0.12599 0.0
C26 C 0.40142 0.77797 0.07255 0.0
C27 C 0.37929 0.81589 0.06642 0.0
C28 C 0.256 0.92038 0.98021 0.0
C29 C 0.28266 0.92737 0.93462 0.0
C30 C 0.26074 0.93952 0.8791 0.0
C31 C 0.21181 0.9432 0.86811 0.0
C32 C 0.18536 0.93395 0.91309 0.0
C33 C 0.20721 0.92339 0.96871 0.0
C34 C 0.2604 0.93407 0.19268 0.0
C35 C 0.21453 0.94956 0.1858 0.0
C36 C 0.67166 0.57825 0.40618 0.0
C37 C 0.68209 0.60063 0.35787 0.0
C38 C 0.71491 0.63216 0.36615 0.0
C39 C 0.73715 0.64114 0.42234 0.0
H40 H 0.82258 0.72302 0.51146 0.0
H41 H 0.87339 0.78216 0.52478 0.0
H42 H 0.90451 0.7558 0.70892 0.0
H43 H 0.85302 0.69604 0.69642 0.0
H44 H 0.8003 0.61276 0.74599 0.0
H45 H 0.76656 0.58842 0.8317 0.0
H46 H 0.63849 0.5589 0.72107 0.0
H47 H 0.67219 0.58159 0.63546 0.0
H48 H 0.68473 0.56933 0.4986 0.0
H49 H 0.64636 0.55379 0.40039 0.0
H50 H 0.72326 0.64972 0.32918 0.0
H51 H 0.76228 0.66572 0.42742 0.0
N52 N 0.78127 0.65919 0.53969 0.0
N53 N 0.78825 0.64923 0.64113 0.0
N54 N 0.73661 0.60908 0.57813 0.0
C55 C 0.80099 0.66959 0.59446 0.0
C56 C 0.75605 0.61889 0.63321 0.0
C57 C 0.74926 0.62887 0.53105 0.0
C58 C 0.83358 0.70461 0.60288 0.0
C59 C 0.84018 0.72943 0.55492 0.0
C60 C 0.8691 0.76342 0.56241 0.0
C61 C 0.8923 0.77334 0.61779 0.0
C62 C 0.88654 0.74861 0.66591 0.0
C63 C 0.85721 0.71451 0.65855 0.0
C64 C 0.73869 0.59961 0.68407 0.0
C65 C 0.76525 0.60041 0.7399 0.0
C66 C 0.74617 0.5864 0.78879 0.0
C67 C 0.6998 0.57259 0.78269 0.0
C68 C 0.67423 0.56973 0.72669 0.0
C69 C 0.69358 0.58278 0.67779 0.0
C70 C 0.72672 0.61881 0.47115 0.0
C71 C 0.69373 0.5872 0.46227 0.0
C72 C 0.80339 0.04065 0.84331 0.0
C73 C 0.81506 0.06594 0.79827 0.0
C74 C 0.80309 0.10742 0.79811 0.0
C75 C 0.78247 0.1239 0.84396 0.0
H76 H 0.66256 0.19873 0.8886 0.0
H77 H 0.61187 0.25938 0.88074 0.0
H78 H 0.66058 0.2884 0.06049 0.0
H79 H 0.71075 0.22824 0.06916 0.0
H80 H 0.74615 0.15223 0.15182 0.0
H81 H 0.78086 0.1306 0.2497 0.0
H82 H 0.86776 0.04413 0.17491 0.0
H83 H 0.83316 0.06517 0.07653 0.0
H84 H 0.77779 0.0378 0.92616 0.0
H85 H 0.81194 0.00848 0.84389 0.0
H86 H 0.81155 0.12742 0.76366 0.0
H87 H 0.7753 0.15632 0.84372 0.0
N88 N 0.73151 0.15196 0.9379 0.0
N89 N 0.73809 0.15747 0.03978 0.0
N90 N 0.77669 0.10455 0.9981 0.0
C91 C 0.72043 0.17151 0.9858 0.0
C92 C 0.7662 0.12407 0.04647 0.0
C93 C 0.7594 0.11835 0.94374 0.0
C94 C 0.69056 0.20849 0.97963 0.0
C95 C 0.66268 0.21818 0.92634 0.0
C96 C 0.63378 0.25275 0.92164 0.0
C97 C 0.63282 0.27823 0.96999 0.0
C98 C 0.66107 0.26903 0.02273 0.0
C99 C 0.68953 0.23448 0.02763 0.0
C100 C 0.78674 0.11041 0.106 0.0
C101 C 0.77267 0.12861 0.1559 0.0
C102 C 0.79251 0.11643 0.21198 0.0
C103 C 0.82706 0.08608 0.21934 0.0
C104 C 0.84132 0.06783 0.16992 0.0
C105 C 0.8213 0.07979 0.11376 0.0
C106 C 0.77445 0.09938 0.89154 0.0
C107 C 0.78415 0.05743 0.89028 0.0
C108 C 0.33186 0.44593 0.65781 0.0
C109 C 0.30847 0.44125 0.70749 0.0
C110 C 0.26693 0.41789 0.69931 0.0
C111 C 0.24603 0.40682 0.64321 0.0
H112 H 0.1357 0.3363 0.54451 0.0
H113 H 0.10216 0.26795 0.53939 0.0
H114 H 0.14779 0.24981 0.37149 0.0
H115 H 0.18064 0.31867 0.37554 0.0
H116 H 0.19336 0.42197 0.31836 0.0
H117 H 0.22811 0.44381 0.2324 0.0
H118 H 0.35208 0.48226 0.34411 0.0
H119 H 0.3175 0.46157 0.43011 0.0
H120 H 0.32891 0.44232 0.56507 0.0
H121 H 0.36645 0.45907 0.66139 0.0
H122 H 0.24933 0.4074 0.73429 0.0
H123 H 0.2132 0.39049 0.63864 0.0
N124 N 0.21034 0.37909 0.52505 0.0
N125 N 0.20385 0.38961 0.42375 0.0
N126 N 0.2559 0.42893 0.48722 0.0
C127 C 0.19074 0.36923 0.47004 0.0
C128 C 0.23598 0.4199 0.43201 0.0
C129 C 0.24305 0.40881 0.53399 0.0
C130 C 0.16126 0.33257 0.46081 0.0
C131 C 0.13734 0.31827 0.50569 0.0
C132 C 0.11801 0.27936 0.50269 0.0
C133 C 0.12272 0.254 0.45513 0.0
C134 C 0.1435 0.26919 0.40819 0.0
C135 C 0.16226 0.30848 0.41073 0.0
C136 C 0.25307 0.43928 0.38103 0.0
C137 C 0.22766 0.43583 0.3247 0.0
C138 C 0.24726 0.44846 0.27557 0.0
C139 C 0.29292 0.46387 0.28207 0.0
C140 C 0.31692 0.4701 0.33832 0.0
C141 C 0.29709 0.45816 0.38743 0.0
C142 C 0.26651 0.41758 0.59373 0.0
C143 C 0.31059 0.43581 0.60191 0.0
O144 O 0.9651 0.07972 0.64605 0.0
Mg145 Mg 0.03244 0.08187 0.62285 0.0
O146 O 0.95644 0.02028 0.6022 0.0
Mg147 Mg 0.0158 0.01075 0.5432 0.0
O148 O 0.04265 0.07801 0.53825 0.0
O149 O 0.05134 0.1354 0.59139 0.0
O150 O 0.07605 -0.00088 0.48599 0.0
O151 O 0.95854 0.03127 0.4641 0.0
Mg152 Mg 0.99058 0.94513 0.4554 0.0
O153 O 0.99122 0.94289 0.5447 0.0
O154 O 0.05568 0.94796 0.42622 0.0
O155 O 0.93554 0.97847 0.40966 0.0
O156 O 0.97295 0.89004 0.48442 0.0
C157 C 0.0929 0.0126 0.66904 0.0
C158 C 0.94199 0.04753 0.63457 0.0
C159 C 0.05531 0.11604 0.5438 0.0
C160 C 0.08481 0.97486 0.44583 0.0
C161 C 0.93101 0.01561 0.42201 0.0
C162 C 0.97778 0.90526 0.53628 0.0
O163 O 0.08632 0.05051 0.67398 0.0
O164 O 0.0702 0.99274 0.62665 0.0
O165 O 0.57898 0.4895 0.17486 0.0
Mg166 Mg 0.52818 0.45198 0.12969 0.0
O167 O 0.55011 0.53922 0.11599 0.0
Mg168 Mg 0.5001 0.51417 0.03528 0.0
O169 O 0.52879 0.44715 0.04098 0.0
O170 O 0.55022 0.39706 0.10609 0.0
O171 O 0.4506 0.49127 0.95057 0.0
O172 O 0.5603 0.52778 0.97997 0.0
Mg173 Mg 0.46979 0.58425 0.94525 0.0
O174 O 0.47352 0.58062 0.0327 0.0
O175 O 0.41674 0.54631 0.90771 0.0
O176 O 0.53627 0.57837 0.91877 0.0
O177 O 0.45106 0.63706 0.98176 0.0
C178 C 0.43072 0.47814 0.1315 0.0
C179 C 0.57696 0.52679 0.16113 0.0
C180 C 0.54455 0.41036 0.05292 0.0
C181 C 0.42063 0.50796 0.91149 0.0
C182 C 0.56693 0.55241 0.93896 0.0
C183 C 0.45857 0.61799 0.03112 0.0
O184 O 0.46168 0.45375 0.15523 0.0
O185 O 0.43837 0.50121 0.08921 0.0
C186 C 0.14412 0.18696 0.50183 0.0
C187 C 0.11345 0.20991 0.46071 0.0
C188 C 0.0587 0.15301 0.45037 0.0
C189 C 0.08239 0.13642 0.50244 0.0
N190 N 0.15226 0.13073 0.57138 0.0
N191 N 0.04371 0.21362 0.39021 0.0
C192 C 0.12736 0.15072 0.52515 0.0
C193 C 0.07184 0.19218 0.43203 0.0
N194 N 0.18853 0.20056 0.51918 0.0
N195 N 0.02421 0.13107 0.4189 0.0
H196 H 0.05293 0.24216 0.37542 0.0
H197 H 0.01055 0.20387 0.37229 0.0
H198 H 0.01634 0.10165 0.43179 0.0
H199 H 0.00799 0.13988 0.37765 0.0
H200 H 0.21369 0.18423 0.54652 0.0
H201 H 0.20145 0.22708 0.50223 0.0
H202 H 0.18285 0.14176 0.59514 0.0
H203 H 0.14115 0.10289 0.5866 0.0
C204 C 0.38656 0.68339 0.10986 0.0
C205 C 0.42058 0.71363 0.1275 0.0
C206 C 0.48327 0.66688 0.1104 0.0
C207 C 0.44884 0.63996 0.08346 0.0
N208 N 0.37082 0.61434 0.07434 0.0
N209 N 0.50036 0.73129 0.16091 0.0
C210 C 0.40142 0.6453 0.09 0.0
C211 C 0.46887 0.70406 0.13407 0.0
N212 N 0.34016 0.69242 0.10801 0.0
N213 N 0.52927 0.65761 0.10954 0.0
H214 H 0.48983 0.7585 0.17841 0.0
H215 H 0.53621 0.72621 0.16898 0.0
H216 H 0.53953 0.62974 0.09368 0.0
H217 H 0.55693 0.67675 0.12444 0.0
H218 H 0.3132 0.67358 0.08974 0.0
H219 H 0.32842 0.7197 0.1239 0.0
H220 H 0.33589 0.61464 0.08077 0.0
H221 H 0.38197 0.5866 0.05902 0.0
C222 C 0.96904 0.80608 0.60919 0.0
C223 C 0.92301 0.80965 0.62319 0.0
C224 C 0.92351 0.88325 0.60573 0.0
C225 C 0.96677 0.87854 0.58411 0.0
N226 N 0.03777 0.84078 0.58358 0.0
N227 N 0.86271 0.85164 0.65367 0.0
C228 C 0.99213 0.84161 0.5929 0.0
C229 C 0.90264 0.84852 0.62853 0.0
N230 N 0.9891 0.76842 0.60778 0.0
N231 N 0.90097 0.91998 0.60011 0.0
H232 H 0.847 0.82627 0.67005 0.0
H233 H 0.84746 0.87921 0.66275 0.0
H234 H 0.91625 0.94597 0.58505 0.0
H235 H 0.86698 0.92464 0.6088 0.0
H236 H 0.0203 0.76289 0.59144 0.0
H237 H 0.97342 0.74219 0.62169 0.0
H238 H 0.05965 0.81561 0.59226 0.0
H239 H 0.05472 0.86699 0.57172 0.0
C240 C 0.61876 0.35316 0.95909 0.0
C241 C 0.60092 0.31383 0.968 0.0
C242 C 0.53271 0.34427 0.00292 0.0
C243 C 0.55618 0.38214 0.00745 0.0
N244 N 0.61983 0.42446 0.98663 0.0
N245 N 0.53934 0.27096 0.99374 0.0
C246 C 0.59804 0.3875 0.98285 0.0
C247 C 0.55671 0.30913 0.98713 0.0
N248 N 0.65612 0.35723 0.92926 0.0
N249 N 0.48793 0.34219 0.01545 0.0
H250 H 0.55542 0.24476 0.9805 0.0
H251 H 0.5102 0.26505 0.01431 0.0
H252 H 0.47008 0.36801 0.02688 0.0
H253 H 0.46731 0.31618 0.00948 0.0
H254 H 0.66863 0.38524 0.91698 0.0
H255 H 0.67184 0.33219 0.91212 0.0
H256 H 0.65317 0.4293 0.97579 0.0
H257 H 0.60497 0.45027 0.00276 0.0
C258 C 0.1834 0.93208 0.37738 0.0
C259 C 0.1945 0.96542 0.3424 0.0
C260 C 0.14187 0.00981 0.38862 0.0
C261 C 0.12978 0.97597 0.42185 0.0
N262 N 0.15104 0.91026 0.46375 0.0
N263 N 0.1957 0.03797 0.32701 0.0
C264 C 0.15497 0.93896 0.42169 0.0
C265 C 0.17759 0.00507 0.35237 0.0
N266 N 0.19689 0.89336 0.36567 0.0
N267 N 0.11746 0.04552 0.38876 0.0
H268 H 0.22204 0.03514 0.30059 0.0
H269 H 0.18793 0.068 0.3365 0.0
H270 H 0.09193 0.05046 0.41568 0.0
H271 H 0.12087 0.06957 0.36013 0.0
H272 H 0.18504 0.86759 0.38553 0.0
H273 H 0.2168 0.88641 0.33274 0.0
H274 H 0.1716 0.88403 0.46913 0.0
H275 H 0.13068 0.91505 0.49711 0.0
C276 C 0.65841 0.52453 0.84275 0.0
C277 C 0.67582 0.56422 0.83444 0.0
C278 C 0.63639 0.58906 0.91457 0.0
C279 C 0.61112 0.55218 0.91352 0.0
N280 N 0.59636 0.4845 0.87507 0.0
N281 N 0.67772 0.63585 0.85946 0.0
C282 C 0.62229 0.51937 0.87816 0.0
C283 C 0.66467 0.59686 0.87034 0.0
N284 N 0.67618 0.49203 0.81632 0.0
N285 N 0.63251 0.61688 0.95745 0.0
H286 H 0.6972 0.6436 0.82638 0.0
H287 H 0.66573 0.66116 0.88008 0.0
H288 H 0.61205 0.61157 0.99057 0.0
H289 H 0.65319 0.64288 0.96359 0.0
H290 H 0.66783 0.46191 0.82468 0.0
H291 H 0.70282 0.49514 0.79039 0.0
H292 H 0.59946 0.46146 0.84501 0.0
H293 H 0.56959 0.47962 0.90022 0.0
C294 C 0.8811 0.09589 0.31365 0.0
C295 C 0.847 0.07206 0.27894 0.0
C296 C 0.85495 0.01905 0.35485 0.0
C297 C 0.89432 0.03987 0.38414 0.0
N298 N 0.92298 0.10704 0.41028 0.0
N299 N 0.79715 0.01301 0.26833 0.0
C300 C 0.90117 0.08111 0.36948 0.0
C301 C 0.83208 0.03446 0.3006 0.0
N302 N 0.89608 0.13168 0.2923 0.0
N303 N 0.8381 0.98597 0.38128 0.0
H304 H 0.77788 0.02453 0.23021 0.0
H305 H 0.78818 0.98329 0.27782 0.0
H306 H 0.85219 0.97664 0.42333 0.0
H307 H 0.80767 0.97057 0.36508 0.0
H308 H 0.9247 0.14773 0.31305 0.0
H309 H 0.88215 0.14375 0.25176 0.0
H310 H 0.92464 0.13838 0.40344 0.0
H311 H 0.93304 0.09837 0.45361 0.0
C312 C 0.35947 0.49501 0.76103 0.0
C313 C 0.3297 0.46119 0.76476 0.0
C314 C 0.36127 0.45518 0.86969 0.0
C315 C 0.39534 0.4849 0.86172 0.0
N316 N 0.43449 0.52413 0.79458 0.0
N317 N 0.28414 0.43087 0.8336 0.0
C318 C 0.39683 0.50177 0.80562 0.0
C319 C 0.32576 0.44584 0.82194 0.0
N320 N 0.34931 0.52306 0.71725 0.0
N321 N 0.36184 0.43688 0.92296 0.0
H322 H 0.25318 0.44055 0.80883 0.0
H323 H 0.27867 0.41885 0.87384 0.0
H324 H 0.38619 0.44423 0.95897 0.0
H325 H 0.34096 0.41202 0.92998 0.0
H326 H 0.36794 0.55012 0.7155 0.0
H327 H 0.31875 0.52142 0.68737 0.0
H328 H 0.43831 0.53459 0.75281 0.0
H329 H 0.46396 0.52806 0.82572 0.0
C330 C 0.61088 0.6026 0.28278 0.0
C331 C 0.65807 0.59047 0.29877 0.0
C332 C 0.65438 0.55023 0.20939 0.0
C333 C 0.60529 0.55566 0.20005 0.0
N334 N 0.53577 0.5875 0.22639 0.0
N335 N 0.7258 0.55311 0.27794 0.0
C336 C 0.58327 0.58277 0.23548 0.0
C337 C 0.68046 0.56498 0.26166 0.0
N338 N 0.59264 0.63293 0.31316 0.0
N339 N 0.67578 0.53098 0.16792 0.0
H340 H 0.74631 0.56394 0.31536 0.0
H341 H 0.74233 0.53077 0.2563 0.0
H342 H 0.65717 0.52043 0.12893 0.0
H343 H 0.7119 0.52905 0.16937 0.0
H344 H 0.55986 0.64592 0.30057 0.0
H345 H 0.61216 0.64773 0.34823 0.0
H346 H 0.51707 0.60282 0.25501 0.0
H347 H 0.51441 0.5743 0.19149 0.0
C348 C 0.8263 0.05309 0.69367 0.0
C349 C 0.84391 0.05062 0.75421 0.0
C350 C 0.91907 0.02708 0.72927 0.0
C351 C 0.90477 0.03854 0.67052 0.0
N352 N 0.8447 0.06071 0.59455 0.0
N353 N 0.90998 0.03966 0.82971 0.0
C354 C 0.85803 0.05046 0.65177 0.0
C355 C 0.89083 0.03794 0.77224 0.0
N356 N 0.77941 0.05786 0.67663 0.0
N357 N 0.96037 0.00677 0.74402 0.0
H358 H 0.89186 0.04958 0.86296 0.0
H359 H 0.94545 0.03506 0.8438 0.0
H360 H 0.98159 0.99842 0.71293 0.0
H361 H 0.97088 0.99455 0.78548 0.0
H362 H 0.76389 0.05677 0.63323 0.0
H363 H 0.75554 0.05923 0.70658 0.0
H364 H 0.8126 0.07404 0.57902 0.0
H365 H 0.86697 0.05719 0.56297 0.0
C366 C 0.33278 0.50899 0.21649 0.0
C367 C 0.31824 0.46943 0.23088 0.0
C368 C 0.3628 0.44041 0.15839 0.0
C369 C 0.38528 0.47834 0.15417 0.0
N370 N 0.39303 0.54934 0.18072 0.0
N371 N 0.32272 0.39633 0.2188 0.0
C372 C 0.36998 0.51317 0.18251 0.0
C373 C 0.33335 0.43478 0.2019 0.0
N374 N 0.31129 0.54237 0.23589 0.0
N375 N 0.37038 0.40963 0.12119 0.0
H376 H 0.30217 0.39034 0.25147 0.0
H377 H 0.3376 0.37017 0.20375 0.0
H378 H 0.39158 0.41332 0.08843 0.0
H379 H 0.35194 0.38231 0.11883 0.0
H380 H 0.31743 0.572 0.2226 0.0
H381 H 0.28393 0.5399 0.26084 0.0
H382 H 0.38677 0.57442 0.206 0.0
H383 H 0.42056 0.55366 0.15664 0.0
C384 C 0.16107 0.99775 0.819 0.0
C385 C 0.1874 0.96209 0.81333 0.0
C386 C 0.15644 0.96081 0.70854 0.0
C387 C 0.12396 0.9921 0.71779 0.0
N388 N 0.08674 0.02939 0.78942 0.0
N389 N 0.20702 0.90654 0.75301 0.0
C390 C 0.12383 0.0075 0.77521 0.0
C391 C 0.18441 0.94265 0.75805 0.0
N392 N 0.17148 0.02241 0.86645 0.0
N393 N 0.16206 0.94946 0.65316 0.0
H394 H 0.2279 0.89268 0.78806 0.0
H395 H 0.20226 0.889 0.7152 0.0
H396 H 0.14367 0.96283 0.6159 0.0
H397 H 0.1882 0.92949 0.64416 0.0
H398 H 0.15514 0.05051 0.86982 0.0
H399 H 0.19987 0.01688 0.89871 0.0
H400 H 0.08431 0.03851 0.83208 0.0
H401 H 0.05586 0.03354 0.76082 0.0
loop_
_geom_bond_atom_site_label_1
_geom_bond_atom_site_label_2
_geom_bond_distance
_geom_bond_site_symmetry_2
_ccdc_geom_bond_type
C0 C1 1.384 . S
C0 H13 0.947 . S
C0 C35 1.382 . S
C1 C0 1.384 . S
C1 C2 1.378 . S
C2 C1 1.378 . S
C2 C3 1.378 . S
C2 H14 0.952 . S
C3 C2 1.378 . S
C3 H15 0.950 . S
C3 C34 1.383 . S
H4 C23 0.947 . S
H5 C24 0.946 . S
H6 C26 0.953 . S
H7 C27 0.945 . S
H8 C29 0.952 . S
H9 C30 0.949 . S
H10 C32 0.950 1_545 S
H11 C33 0.948 1_554 S
H12 C35 0.951 . S
H13 C0 0.947 . S
H14 C2 0.952 . S
H15 C3 0.950 . S
N16 C19 1.382 . S
N16 C21 1.363 . S
N17 C19 1.371 . S
N17 C20 1.372 . S
N18 C20 1.361 . S
N18 C21 1.377 . S
C19 N16 1.382 . S
C19 N17 1.371 . S
C19 C22 1.480 . S
C20 N17 1.372 . S
C20 N18 1.361 . S
C20 C28 1.457 1_554 S
C21 N16 1.363 . S
C21 N18 1.377 . S
C21 C34 1.479 . S
C22 C19 1.480 . S
C22 C23 1.383 . S
C22 C27 1.385 . S
C23 H4 0.947 . S
C23 C22 1.383 . S
C23 C24 1.388 . S
C24 H5 0.946 . S
C24 C23 1.388 . S
C24 C25 1.384 . S
C25 C24 1.384 . S
C25 C26 1.377 . S
C26 H6 0.953 . S
C26 C25 1.377 . S
C26 C27 1.369 . S
C27 H7 0.945 . S
C27 C22 1.385 . S
C27 C26 1.369 . S
C28 C20 1.457 1_556 S
C28 C29 1.372 . S
C28 C33 1.364 . S
C29 H8 0.952 . S
C29 C28 1.372 . S
C29 C30 1.389 . S
C30 H9 0.949 . S
C30 C29 1.389 . S
C30 C31 1.387 . S
C31 C30 1.387 . S
C31 C32 1.372 . S
C32 H10 0.950 1_565 S
C32 C31 1.372 . S
C32 C33 1.379 . S
C33 H11 0.948 1_556 S
C33 C28 1.364 . S
C33 C32 1.379 . S
C34 C3 1.383 . S
C34 C21 1.479 . S
C34 C35 1.398 . S
C35 C0 1.382 . S
C35 H12 0.951 . S
C35 C34 1.398 . S
C36 C37 1.384 . S
C36 H49 0.947 . S
C36 C71 1.382 . S
C37 C36 1.384 . S
C37 C38 1.378 . S
C38 C37 1.378 . S
C38 C39 1.378 . S
C38 H50 0.952 . S
C39 C38 1.378 . S
C39 H51 0.950 . S
C39 C70 1.383 . S
H40 C59 0.947 . S
H41 C60 0.946 . S
H42 C62 0.953 . S
H43 C63 0.945 . S
H44 C65 0.952 . S
H45 C66 0.949 . S
H46 C68 0.950 . S
H47 C69 0.948 . S
H48 C71 0.951 . S
H49 C36 0.947 . S
H50 C38 0.952 . S
H51 C39 0.950 . S
N52 C55 1.382 . S
N52 C57 1.363 . S
N53 C55 1.371 . S
N53 C56 1.372 . S
N54 C56 1.361 . S
N54 C57 1.377 . S
C55 N52 1.382 . S
C55 N53 1.371 . S
C55 C58 1.480 . S
C56 N53 1.372 . S
C56 N54 1.361 . S
C56 C64 1.457 . S
C57 N52 1.363 . S
C57 N54 1.377 . S
C57 C70 1.479 . S
C58 C55 1.480 . S
C58 C59 1.383 . S
C58 C63 1.385 . S
C59 H40 0.947 . S
C59 C58 1.383 . S
C59 C60 1.388 . S
C60 H41 0.946 . S
C60 C59 1.388 . S
C60 C61 1.384 . S
C61 C60 1.384 . S
C61 C62 1.377 . S
C62 H42 0.953 . S
C62 C61 1.377 . S
C62 C63 1.369 . S
C63 H43 0.945 . S
C63 C58 1.385 . S
C63 C62 1.369 . S
C64 C56 1.457 . S
C64 C65 1.372 . S
C64 C69 1.364 . S
C65 H44 0.952 . S
C65 C64 1.372 . S
C65 C66 1.389 . S
C66 H45 0.949 . S
C66 C65 1.389 . S
C66 C67 1.387 . S
C67 C66 1.387 . S
C67 C68 1.372 . S
C68 H46 0.950 . S
C68 C67 1.372 . S
C68 C69 1.379 . S
C69 H47 0.948 . S
C69 C64 1.364 . S
C69 C68 1.379 . S
C70 C39 1.383 . S
C70 C57 1.479 . S
C70 C71 1.398 . S
C71 C36 1.382 . S
C71 H48 0.951 . S
C71 C70 1.398 . S
C72 C73 1.384 . S
C72 H85 0.947 . S
C72 C107 1.382 . S
C73 C72 1.384 . S
C73 C74 1.378 . S
C74 C73 1.378 . S
C74 C75 1.378 . S
C74 H86 0.952 . S
C75 C74 1.378 . S
C75 H87 0.950 . S
C75 C106 1.383 . S
H76 C95 0.947 . S
H77 C96 0.946 . S
H78 C98 0.953 . S
H79 C99 0.945 . S
H80 C101 0.952 . S
H81 C102 0.949 . S
H82 C104 0.950 . S
H83 C105 0.948 . S
H84 C107 0.951 . S
H85 C72 0.947 . S
H86 C74 0.952 . S
H87 C75 0.950 . S
N88 C91 1.365 1_556 S
N88 C93 1.363 . S
N89 C91 1.388 . S
N89 C92 1.372 . S
N90 C92 1.361 . S
N90 C93 1.377 1_554 S
C91 N88 1.365 1_554 S
C91 N89 1.388 . S
C91 C94 1.482 1_554 S
C92 N89 1.372 . S
C92 N90 1.361 . S
C92 C100 1.457 . S
C93 N88 1.363 . S
C93 N90 1.377 1_556 S
C93 C106 1.479 . S
C94 C91 1.482 1_556 S
C94 C95 1.393 . S
C94 C99 1.375 1_556 S
C95 H76 0.947 . S
C95 C94 1.393 . S
C95 C96 1.388 . S
C96 H77 0.946 . S
C96 C95 1.388 . S
C96 C97 1.384 . S
C97 C96 1.384 . S
C97 C98 1.377 1_556 S
C98 H78 0.953 . S
C98 C97 1.377 1_554 S
C98 C99 1.369 . S
C99 H79 0.945 . S
C99 C94 1.375 1_554 S
C99 C98 1.369 . S
C100 C92 1.457 . S
C100 C101 1.372 . S
C100 C105 1.364 . S
C101 H80 0.952 . S
C101 C100 1.372 . S
C101 C102 1.389 . S
C102 H81 0.949 . S
C102 C101 1.389 . S
C102 C103 1.387 . S
C103 C102 1.387 . S
C103 C104 1.372 . S
C104 H82 0.950 . S
C104 C103 1.372 . S
C104 C105 1.379 . S
C105 H83 0.948 . S
C105 C100 1.364 . S
C105 C104 1.379 . S
C106 C75 1.383 . S
C106 C93 1.479 . S
C106 C107 1.398 . S
C107 C72 1.382 . S
C107 H84 0.951 . S
C107 C106 1.398 . S
C108 C109 1.384 . S
C108 H121 0.947 . S
C108 C143 1.382 . S
C109 C108 1.384 . S
C109 C110 1.378 . S
C110 C109 1.378 . S
C110 C111 1.378 . S
C110 H122 0.952 . S
C111 C110 1.378 . S
C111 H123 0.950 . S
C111 C142 1.383 . S
H112 C131 0.947 . S
H113 C132 0.946 . S
H114 C134 0.953 . S
H115 C135 0.945 . S
H116 C137 0.952 . S
H117 C138 0.949 . S
H118 C140 0.950 . S
H119 C141 0.948 . S
H120 C143 0.951 . S
H121 C108 0.947 . S
H122 C110 0.952 . S
H123 C111 0.950 . S
N124 C127 1.382 . S
N124 C129 1.363 . S
N125 C127 1.371 . S
N125 C128 1.372 . S
N126 C128 1.361 . S
N126 C129 1.377 . S
C127 N124 1.382 . S
C127 N125 1.371 . S
C127 C130 1.480 . S
C128 N125 1.372 . S
C128 N126 1.361 . S
C128 C136 1.457 . S
C129 N124 1.363 . S
C129 N126 1.377 . S
C129 C142 1.479 . S
C130 C127 1.480 . S
C130 C131 1.383 . S
C130 C135 1.385 . S
C131 H112 0.947 . S
C131 C130 1.383 . S
C131 C132 1.388 . S
C132 H113 0.946 . S
C132 C131 1.388 . S
C132 C133 1.384 . S
C133 C132 1.384 . S
C133 C134 1.377 . S
C134 H114 0.953 . S
C134 C133 1.377 . S
C134 C135 1.369 . S
C135 H115 0.945 . S
C135 C130 1.385 . S
C135 C134 1.369 . S
C136 C128 1.457 . S
C136 C137 1.372 . S
C136 C141 1.364 . S
C137 H116 0.952 . S
C137 C136 1.372 . S
C137 C138 1.389 . S
C138 H117 0.949 . S
C138 C137 1.389 . S
C138 C139 1.387 . S
C139 C138 1.387 . S
C139 C140 1.372 . S
C140 H118 0.950 . S
C140 C139 1.372 . S
C140 C141 1.379 . S
C141 H119 0.948 . S
C141 C136 1.364 . S
C141 C140 1.379 . S
C142 C111 1.383 . S
C142 C129 1.479 . S
C142 C143 1.398 . S
C143 C108 1.382 . S
C143 H120 0.951 . S
C143 C142 1.398 . S
O144 Mg145 1.990 1_655 S
O144 C158 1.253 . S
Mg145 O144 1.990 1_455 S
Mg145 O148 2.180 . S
Mg145 O149 2.117 . S
Mg145 O163 2.030 . S
O146 Mg147 2.072 1_655 S
O146 C158 1.260 . S
Mg147 O146 2.072 1_455 S
Mg147 O148 2.099 . S
Mg147 O150 2.079 1_545 S
Mg147 O151 2.072 1_455 S
Mg147 O153 2.099 1_445 S
Mg147 O164 2.079 1_545 S
O148 Mg145 2.180 . S
O148 Mg147 2.099 . S
O148 C159 1.279 . S
O149 Mg145 2.117 . S
O149 C159 1.250 . S
O150 Mg147 2.079 1_565 S
O150 C160 1.264 . S
O151 Mg147 2.072 1_655 S
O151 C161 1.260 . S
Mg152 O153 2.180 . S
Mg152 O154 2.030 1_655 S
Mg152 O155 2.010 . S
Mg152 O156 2.117 . S
O153 Mg147 2.099 1_665 S
O153 Mg152 2.180 . S
O153 C162 1.279 . S
O154 Mg152 2.030 1_455 S
O154 C160 1.248 . S
O155 Mg152 2.010 . S
O155 C161 1.233 1_565 S
O156 Mg152 2.117 . S
O156 C162 1.250 . S
C157 O163 1.248 1_565 S
C157 O164 1.264 . S
C158 O144 1.253 . S
C158 O146 1.260 . S
C159 O148 1.279 . S
C159 O149 1.250 . S
C160 O150 1.264 . S
C160 O154 1.248 . S
C161 O151 1.260 . S
C161 O155 1.233 1_545 S
C162 O153 1.279 . S
C162 O156 1.250 . S
O163 Mg145 2.030 . S
O163 C157 1.248 1_545 S
O164 Mg147 2.079 1_565 S
O164 C157 1.264 . S
O165 Mg166 1.990 . S
O165 C179 1.253 . S
Mg166 O165 1.990 . S
Mg166 O169 2.180 . S
Mg166 O170 2.117 . S
Mg166 O184 2.030 . S
O167 Mg168 2.072 . S
O167 C179 1.260 . S
Mg168 O167 2.072 . S
Mg168 O169 2.099 . S
Mg168 O171 2.079 1_554 S
Mg168 O172 2.072 1_554 S
Mg168 O174 2.099 . S
Mg168 O185 2.079 . S
O169 Mg166 2.180 . S
O169 Mg168 2.099 . S
O169 C180 1.279 . S
O170 Mg166 2.117 . S
O170 C180 1.250 . S
O171 Mg168 2.079 1_556 S
O171 C181 1.264 . S
O172 Mg168 2.072 1_556 S
O172 C182 1.260 . S
Mg173 O174 2.180 1_556 S
Mg173 O175 2.030 . S
Mg173 O176 1.990 . S
Mg173 O177 2.117 . S
O174 Mg168 2.099 . S
O174 Mg173 2.180 1_554 S
O174 C183 1.279 . S
O175 Mg173 2.030 . S
O175 C181 1.248 . S
O176 Mg173 1.990 . S
O176 C182 1.253 . S
O177 Mg173 2.117 . S
O177 C183 1.250 1_556 S
C178 O184 1.248 . S
C178 O185 1.264 . S
C179 O165 1.253 . S
C179 O167 1.260 . S
C180 O169 1.279 . S
C180 O170 1.250 . S
C181 O171 1.264 . S
C181 O175 1.248 . S
C182 O172 1.260 . S
C182 O176 1.253 . S
C183 O174 1.279 . S
C183 O177 1.250 1_554 S
O184 Mg166 2.030 . S
O184 C178 1.248 . S
O185 Mg168 2.079 . S
O185 C178 1.264 . S
C186 C187 1.363 . S
C186 C192 1.379 . S
C186 N194 1.356 . S
C187 C186 1.363 . S
C187 C193 1.363 . S
C188 C189 1.363 . S
C188 C193 1.379 . S
C188 N195 1.356 . S
C189 C188 1.363 . S
C189 C192 1.363 . S
N190 C192 1.356 . S
N190 H202 0.984 . S
N190 H203 0.985 . S
N191 C193 1.356 . S
N191 H196 0.984 . S
N191 H197 0.985 . S
C192 C186 1.379 . S
C192 C189 1.363 . S
C192 N190 1.356 . S
C193 C187 1.363 . S
C193 C188 1.379 . S
C193 N191 1.356 . S
N194 C186 1.356 . S
N194 H200 0.984 . S
N194 H201 0.984 . S
N195 C188 1.356 . S
N195 H198 0.984 . S
N195 H199 0.985 . S
H196 N191 0.984 . S
H197 N191 0.985 . S
H198 N195 0.984 . S
H199 N195 0.985 . S
H200 N194 0.984 . S
H201 N194 0.984 . S
H202 N190 0.984 . S
H203 N190 0.985 . S
C204 C205 1.363 . S
C204 C210 1.379 . S
C204 N212 1.356 . S
C205 C204 1.363 . S
C205 C211 1.363 . S
C206 C207 1.363 . S
C206 C211 1.379 . S
C206 N213 1.356 . S
C207 C206 1.363 . S
C207 C210 1.363 . S
N208 C210 1.356 . S
N208 H220 0.984 1_554 S
N208 H221 0.985 . S
N209 C211 1.356 . S
N209 H214 0.984 . S
N209 H215 0.985 . S
C210 C204 1.379 . S
C210 C207 1.363 . S
C210 N208 1.356 . S
C211 C205 1.363 . S
C211 C206 1.379 . S
C211 N209 1.356 . S
N212 C204 1.356 . S
N212 H218 0.984 . S
N212 H219 0.984 . S
N213 C206 1.356 . S
N213 H216 0.984 . S
N213 H217 0.985 . S
H214 N209 0.984 . S
H215 N209 0.985 . S
H216 N213 0.984 . S
H217 N213 0.985 . S
H218 N212 0.984 . S
H219 N212 0.984 . S
H220 N208 0.984 1_556 S
H221 N208 0.985 . S
C222 C223 1.363 . S
C222 C228 1.379 . S
C222 N230 1.356 . S
C223 C222 1.363 . S
C223 C229 1.363 . S
C224 C225 1.363 . S
C224 C229 1.379 . S
C224 N231 1.356 . S
C225 C224 1.363 . S
C225 C228 1.363 . S
N226 C228 1.356 . S
N226 H238 0.984 . S
N226 H239 0.985 . S
N227 C229 1.356 . S
N227 H232 0.984 . S
N227 H233 0.985 . S
C228 C222 1.379 . S
C228 C225 1.363 . S
C228 N226 1.356 . S
C229 C223 1.363 . S
C229 C224 1.379 . S
C229 N227 1.356 . S
N230 C222 1.356 . S
N230 H236 0.984 . S
N230 H237 0.984 . S
N231 C224 1.356 . S
N231 H234 0.984 . S
N231 H235 0.985 . S
H232 N227 0.984 . S
H233 N227 0.985 . S
H234 N231 0.984 . S
H235 N231 0.985 . S
H236 N230 0.984 . S
H237 N230 0.984 . S
H238 N226 0.984 . S
H239 N226 0.985 . S
C240 C241 1.363 . S
C240 C246 1.379 . S
C240 N248 1.356 . S
C241 C240 1.363 . S
C241 C247 1.363 1_556 S
C242 C243 1.363 . S
C242 C247 1.379 . S
C242 N249 1.356 . S
C243 C242 1.363 . S
C243 C246 1.363 1_554 S
N244 C246 1.356 . S
N244 H256 0.984 . S
N244 H257 0.985 . S
N245 C247 1.356 . S
N245 H250 0.984 . S
N245 H251 0.985 . S
C246 C240 1.379 . S
C246 C243 1.363 1_556 S
C246 N244 1.356 . S
C247 C241 1.363 1_554 S
C247 C242 1.379 . S
C247 N245 1.356 . S
N248 C240 1.356 . S
N248 H254 0.984 . S
N248 H255 0.984 . S
N249 C242 1.356 . S
N249 H252 0.984 . S
N249 H253 0.985 . S
H250 N245 0.984 . S
H251 N245 0.985 . S
H252 N249 0.984 . S
H253 N249 0.985 . S
H254 N248 0.984 . S
H255 N248 0.984 . S
H256 N244 0.984 . S
H257 N244 0.985 . S
C258 C259 1.363 . S
C258 C264 1.379 . S
C258 N266 1.356 . S
C259 C258 1.363 . S
C259 C265 1.363 . S
C260 C261 1.363 1_545 S
C260 C265 1.379 1_545 S
C260 N267 1.356 . S
C261 C260 1.363 1_565 S
C261 C264 1.363 . S
N262 C264 1.356 . S
N262 H274 0.984 . S
N262 H275 0.985 . S
N263 C265 1.356 1_545 S
N263 H268 0.984 . S
N263 H269 0.985 . S
C264 C258 1.379 . S
C264 C261 1.363 . S
C264 N262 1.356 . S
C265 C259 1.363 . S
C265 C260 1.379 1_565 S
C265 N263 1.356 1_565 S
N266 C258 1.356 . S
N266 H272 0.984 . S
N266 H273 0.984 . S
N267 C260 1.356 . S
N267 H270 0.984 . S
N267 H271 0.985 . S
H268 N263 0.984 . S
H269 N263 0.985 . S
H270 N267 0.984 . S
H271 N267 0.985 . S
H272 N266 0.984 . S
H273 N266 0.984 . S
H274 N262 0.984 . S
H275 N262 0.985 . S
C276 C277 1.363 . S
C276 C282 1.379 . S
C276 N284 1.356 . S
C277 C276 1.363 . S
C277 C283 1.363 . S
C278 C279 1.363 . S
C278 C283 1.379 . S
C278 N285 1.356 . S
C279 C278 1.363 . S
C279 C282 1.363 . S
N280 C282 1.356 . S
N280 H292 0.984 . S
N280 H293 0.985 . S
N281 C283 1.356 . S
N281 H286 0.984 . S
N281 H287 0.985 . S
C282 C276 1.379 . S
C282 C279 1.363 . S
C282 N280 1.356 . S
C283 C277 1.363 . S
C283 C278 1.379 . S
C283 N281 1.356 . S
N284 C276 1.356 . S
N284 H290 0.984 . S
N284 H291 0.984 . S
N285 C278 1.356 . S
N285 H288 0.984 . S
N285 H289 0.985 . S
H286 N281 0.984 . S
H287 N281 0.985 . S
H288 N285 0.984 . S
H289 N285 0.985 . S
H290 N284 0.984 . S
H291 N284 0.984 . S
H292 N280 0.984 . S
H293 N280 0.985 . S
C294 C295 1.363 . S
C294 C300 1.379 . S
C294 N302 1.356 . S
C295 C294 1.363 . S
C295 C301 1.363 . S
C296 C297 1.363 . S
C296 C301 1.379 . S
C296 N303 1.366 . S
C297 C296 1.363 . S
C297 C300 1.363 . S
N298 C300 1.356 . S
N298 H310 0.984 . S
N298 H311 0.985 . S
N299 C301 1.356 . S
N299 H304 0.984 . S
N299 H305 0.985 1_545 S
C300 C294 1.379 . S
C300 C297 1.363 . S
C300 N298 1.356 . S
C301 C295 1.363 . S
C301 C296 1.379 . S
C301 N299 1.356 . S
N302 C294 1.356 . S
N302 H308 0.984 . S
N302 H309 0.984 . S
N303 C296 1.366 . S
N303 H306 0.987 . S
N303 H307 0.972 1_545 S
H304 N299 0.984 . S
H305 N299 0.985 1_565 S
H306 N303 0.987 . S
H307 N303 0.972 1_565 S
H308 N302 0.984 . S
H309 N302 0.984 . S
H310 N298 0.984 . S
H311 N298 0.985 . S
C312 C313 1.363 . S
C312 C318 1.379 . S
C312 N320 1.356 . S
C313 C312 1.363 . S
C313 C319 1.363 . S
C314 C315 1.363 . S
C314 C319 1.379 . S
C314 N321 1.356 . S
C315 C314 1.363 . S
C315 C318 1.363 . S
N316 C318 1.356 . S
N316 H328 0.984 . S
N316 H329 0.985 . S
N317 C319 1.356 . S
N317 H322 0.984 . S
N317 H323 0.985 . S
C318 C312 1.379 . S
C318 C315 1.363 . S
C318 N316 1.356 . S
C319 C313 1.363 . S
C319 C314 1.379 . S
C319 N317 1.356 . S
N320 C312 1.356 . S
N320 H326 0.984 . S
N320 H327 0.984 . S
N321 C314 1.356 . S
N321 H324 0.984 . S
N321 H325 0.985 . S
H322 N317 0.984 . S
H323 N317 0.985 . S
H324 N321 0.984 . S
H325 N321 0.985 . S
H326 N320 0.984 . S
H327 N320 0.984 . S
H328 N316 0.984 . S
H329 N316 0.985 . S
C330 C331 1.363 . S
C330 C336 1.379 . S
C330 N338 1.356 . S
C331 C330 1.363 . S
C331 C337 1.363 . S
C332 C333 1.363 . S
C332 C337 1.379 . S
C332 N339 1.356 . S
C333 C332 1.363 . S
C333 C336 1.363 . S
N334 C336 1.356 . S
N334 H346 0.984 . S
N334 H347 0.985 . S
N335 C337 1.356 . S
N335 H340 0.984 . S
N335 H341 0.985 . S
C336 C330 1.379 . S
C336 C333 1.363 . S
C336 N334 1.356 . S
C337 C331 1.363 . S
C337 C332 1.379 . S
C337 N335 1.356 . S
N338 C330 1.356 . S
N338 H344 0.984 . S
N338 H345 0.984 . S
N339 C332 1.356 . S
N339 H342 0.984 . S
N339 H343 0.985 . S
H340 N335 0.984 . S
H341 N335 0.985 . S
H342 N339 0.984 . S
H343 N339 0.985 . S
H344 N338 0.984 . S
H345 N338 0.984 . S
H346 N334 0.984 . S
H347 N334 0.985 . S
C348 C349 1.363 . S
C348 C354 1.379 . S
C348 N356 1.356 . S
C349 C348 1.363 . S
C349 C355 1.363 . S
C350 C351 1.363 . S
C350 C355 1.379 . S
C350 N357 1.356 . S
C351 C350 1.363 . S
C351 C354 1.363 . S
N352 C354 1.356 . S
N352 H364 0.984 . S
N352 H365 0.985 . S
N353 C355 1.356 . S
N353 H358 0.984 . S
N353 H359 0.985 . S
C354 C348 1.379 . S
C354 C351 1.363 . S
C354 N352 1.356 . S
C355 C349 1.363 . S
C355 C350 1.379 . S
C355 N353 1.356 . S
N356 C348 1.356 . S
N356 H362 0.984 . S
N356 H363 0.984 . S
N357 C350 1.356 . S
N357 H360 0.984 . S
N357 H361 0.985 . S
H358 N353 0.984 . S
H359 N353 0.985 . S
H360 N357 0.984 . S
H361 N357 0.985 . S
H362 N356 0.984 . S
H363 N356 0.984 . S
H364 N352 0.984 . S
H365 N352 0.985 . S
C366 C367 1.363 . S
C366 C372 1.379 . S
C366 N374 1.356 . S
C367 C366 1.363 . S
C367 C373 1.363 . S
C368 C369 1.363 . S
C368 C373 1.379 . S
C368 N375 1.356 . S
C369 C368 1.363 . S
C369 C372 1.363 . S
N370 C372 1.356 . S
N370 H382 0.984 . S
N370 H383 0.985 . S
N371 C373 1.356 . S
N371 H376 0.984 . S
N371 H377 0.985 . S
C372 C366 1.379 . S
C372 C369 1.363 . S
C372 N370 1.356 . S
C373 C367 1.363 . S
C373 C368 1.379 . S
C373 N371 1.356 . S
N374 C366 1.356 . S
N374 H380 0.984 . S
N374 H381 0.984 . S
N375 C368 1.356 . S
N375 H378 0.984 . S
N375 H379 0.985 . S
H376 N371 0.984 . S
H377 N371 0.985 . S
H378 N375 0.984 . S
H379 N375 0.985 . S
H380 N374 0.984 . S
H381 N374 0.984 . S
H382 N370 0.984 . S
H383 N370 0.985 . S
C384 C385 1.381 . S
C384 C390 1.378 1_565 S
C384 N392 1.344 1_565 S
C385 C384 1.381 . S
C385 C391 1.363 . S
C386 C387 1.363 . S
C386 C391 1.379 . S
C386 N393 1.356 . S
C387 C386 1.363 . S
C387 C390 1.349 1_565 S
N388 C390 1.369 . S
N388 H400 0.984 . S
N388 H401 0.985 . S
N389 C391 1.356 . S
N389 H394 0.984 . S
N389 H395 0.985 . S
C390 C384 1.378 1_545 S
C390 C387 1.349 1_545 S
C390 N388 1.369 . S
C391 C385 1.363 . S
C391 C386 1.379 . S
C391 N389 1.356 . S
N392 C384 1.344 1_545 S
N392 H398 0.984 . S
N392 H399 0.984 . S
N393 C386 1.356 . S
N393 H396 0.984 . S
N393 H397 0.985 . S
H394 N389 0.984 . S
H395 N389 0.985 . S
H396 N393 0.984 . S
H397 N393 0.985 . S
H398 N392 0.984 . S
H399 N392 0.984 . S
H400 N388 0.984 . S
H401 N388 0.985 . S
C189 C159 1.432 . S
C187 C133 1.540 . S
C205 C25 1.585 . S
C207 C183 1.427 . S
C223 C61 1.696 . S
C225 C162 1.505 . S
C241 C97 1.632 . S
C243 C180 1.501 . S
C261 C160 1.685 . S
C259 C1 1.655 . S
C279 C182 1.625 . S
C277 C67 1.634 . S
C295 C103 1.580 . S
C297 C161 1.523 . S
C313 C109 1.591 . S
C315 C181 1.545 . S
C333 C179 1.523 . S
C331 C37 1.623 . S
C351 C158 1.623 . S
C349 C73 1.611 . S
C369 C178 1.687 . S
C367 C139 1.593 . S
C385 C31 1.642 . S
C387 C157 1.546 . S
