# Generated by pormake.
# Topology zzz, (3,6)-cn, num edge types: 1
# Building blocks:
#     Node 0, Type 0, BuildingBlock: CUQRIR_clean_linker_1, # of connection points: 3
#     Node 1, Type 0, BuildingBlock: CUQRIR_clean_linker_1, # of connection points: 3
#     Node 2, Type 0, BuildingBlock: CUQRIR_clean_linker_1, # of connection points: 3
#     Node 3, Type 0, BuildingBlock: CUQRIR_clean_linker_1, # of connection points: 3
#     Node 4, Type 0, BuildingBlock: CUQRIR_clean_linker_1, # of connection points: 3
#     Node 5, Type 0, BuildingBlock: CUQRIR_clean_linker_1, # of connection points: 3
#     Node 6, Type 0, BuildingBlock: CUQRIR_clean_linker_1, # of connection points: 3
#     Node 7, Type 0, BuildingBlock: CUQRIR_clean_linker_1, # of connection points: 3
#     Node 8, Type 1, BuildingBlock: CUKXOW_clean_sbu_0, # of connection points: 6
#     Node 9, Type 1, BuildingBlock: CUKXOW_clean_sbu_0, # of connection points: 6
#     Node 10, Type 1, BuildingBlock: CUKXOW_clean_sbu_0, # of connection points: 6
#     Node 11, Type 1, BuildingBlock: CUKXOW_clean_sbu_0, # of connection points: 6
#     Edge 12, Type (0, 1), BuildingBlock: KIFKEQ_clean_linker_1, # of connection points: 2
#     Edge 13, Type (0, 1), BuildingBlock: KIFKEQ_clean_linker_1, # of connection points: 2
#     Edge 14, Type (0, 1), BuildingBlock: KIFKEQ_clean_linker_1, # of connection points: 2
#     Edge 15, Type (0, 1), BuildingBlock: KIFKEQ_clean_linker_1, # of connection points: 2
#     Edge 16, Type (0, 1), BuildingBlock: KIFKEQ_clean_linker_1, # of connection points: 2
#     Edge 17, Type (0, 1), BuildingBlock: KIFKEQ_clean_linker_1, # of connection points: 2
#     Edge 18, Type (0, 1), BuildingBlock: KIFKEQ_clean_linker_1, # of connection points: 2
#     Edge 19, Type (0, 1), BuildingBlock: KIFKEQ_clean_linker_1, # of connection points: 2
#     Edge 20, Type (0, 1), BuildingBlock: KIFKEQ_clean_linker_1, # of connection points: 2
#     Edge 21, Type (0, 1), BuildingBlock: KIFKEQ_clean_linker_1, # of connection points: 2
#     Edge 22, Type (0, 1), BuildingBlock: KIFKEQ_clean_linker_1, # of connection points: 2
#     Edge 23, Type (0, 1), BuildingBlock: KIFKEQ_clean_linker_1, # of connection points: 2
#     Edge 24, Type (0, 1), BuildingBlock: KIFKEQ_clean_linker_1, # of connection points: 2
#     Edge 25, Type (0, 1), BuildingBlock: KIFKEQ_clean_linker_1, # of connection points: 2
#     Edge 26, Type (0, 1), BuildingBlock: KIFKEQ_clean_linker_1, # of connection points: 2
#     Edge 27, Type (0, 1), BuildingBlock: KIFKEQ_clean_linker_1, # of connection points: 2
#     Edge 28, Type (0, 1), BuildingBlock: KIFKEQ_clean_linker_1, # of connection points: 2
#     Edge 29, Type (0, 1), BuildingBlock: KIFKEQ_clean_linker_1, # of connection points: 2
#     Edge 30, Type (0, 1), BuildingBlock: KIFKEQ_clean_linker_1, # of connection points: 2
#     Edge 31, Type (0, 1), BuildingBlock: KIFKEQ_clean_linker_1, # of connection points: 2
#     Edge 32, Type (0, 1), BuildingBlock: KIFKEQ_clean_linker_1, # of connection points: 2
#     Edge 33, Type (0, 1), BuildingBlock: KIFKEQ_clean_linker_1, # of connection points: 2
#     Edge 34, Type (0, 1), BuildingBlock: KIFKEQ_clean_linker_1, # of connection points: 2
#     Edge 35, Type (0, 1), BuildingBlock: KIFKEQ_clean_linker_1, # of connection points: 2
# Relax obj value: 0.065
# Max RMSD: 0.109
# Mean RMSD: 0.083
data_MOF--net-zzz--node1-CUKXOW_clean_sbu_0--node2-CUQRIR_clean_linker_1--edge1-KIFKEQ_clean_linker_1
_symmetry_space_group_name_H-M    P1
_symmetry_Int_Tables_number       1
_symmetry_cell_setting            triclinic
loop_
_symmetry_equiv_pos_as_xyz
'x, y, z'
_cell_length_a     48.460678
_cell_length_b     50.441926
_cell_length_c     14.387563
_cell_angle_alpha  93.413473
_cell_angle_beta   86.393063
_cell_angle_gamma 93.528132
loop_
_atom_site_label
_atom_site_type_symbol
_atom_site_fract_x
_atom_site_fract_y
_atom_site_fract_z
_atom_type_partial_charge
C0 C 0.74463 0.50682 0.1568 0.0
N1 N 0.77235 0.50486 0.14509 0.0
N2 N 0.7329 0.50263 0.07378 0.0
C3 C 0.72923 0.51291 0.24873 0.0
C4 C 0.75442 0.49824 0.01139 0.0
N5 N 0.77836 0.49955 0.05485 0.0
C6 C 0.75184 0.49285 0.90826 0.0
H7 H 0.72746 0.49477 0.28918 0.0
H8 H 0.7081 0.51919 0.23956 0.0
H9 H 0.74095 0.52868 0.28964 0.0
H10 H 0.77211 0.49517 0.8685 0.0
H11 H 0.7372 0.50641 0.88244 0.0
H12 H 0.74321 0.47217 0.89541 0.0
C13 C 0.98678 0.76176 0.05823 0.0
N14 N 0.98828 0.78863 0.0637 0.0
N15 N 0.99397 0.7525 0.97026 0.0
C16 C 0.98032 0.74467 0.13983 0.0
C17 C -6e-05 0.77471 0.92269 0.0
N18 N 0.9966 0.79666 0.97976 0.0
C19 C 0.00746 0.77492 0.81971 0.0
H20 H 0.99136 0.72598 0.13026 0.0
H21 H 0.95772 0.73944 0.14514 0.0
H22 H 0.98604 0.75543 0.206 0.0
H23 H -0.00133 0.75674 0.7825 0.0
H24 H 0.03034 0.77552 0.80828 0.0
H25 H -0.0001 0.79274 0.79001 0.0
C26 C 0.74667 0.98977 0.14984 0.0
N27 N 0.71935 0.99286 0.1432 0.0
N28 N 0.76017 0.99077 0.06472 0.0
C29 C 0.76041 0.9878 0.23973 0.0
C30 C 0.74013 0.9946 0.00636 0.0
N31 N 0.7153 0.99597 0.05411 0.0
C32 C 0.74484 0.99599 0.90237 0.0
H33 H 0.74898 0.9985 0.29826 0.0
H34 H 0.78221 0.99593 0.23416 0.0
H35 H 0.76034 0.96654 0.2555 0.0
H36 H 0.72613 0.98833 0.86641 0.0
H37 H 0.7627 0.98435 0.87609 0.0
H38 H 0.74955 0.01701 0.88539 0.0
C39 C 0.55848 0.7506 0.13548 0.0
N40 N 0.55346 0.7239 0.13237 0.0
N41 N 0.55458 0.76023 0.05164 0.0
C42 C 0.56507 0.76742 0.22175 0.0
C43 C 0.5467 0.73847 0.99791 0.0
N44 N 0.54588 0.71642 0.0472 0.0
C45 C 0.5383 0.73903 0.89916 0.0
H46 H 0.54558 0.77036 0.2649 0.0
H47 H 0.57462 0.78716 0.20385 0.0
H48 H 0.5792 0.75725 0.2638 0.0
H49 H 0.55094 0.75439 0.86094 0.0
H50 H 0.51631 0.7441 0.90042 0.0
H51 H 0.54049 0.71942 0.8611 0.0
C52 C 0.26768 0.50173 0.21291 0.0
N53 N 0.24007 0.50462 0.22113 0.0
N54 N 0.27798 0.50227 0.2984 0.0
C55 C 0.28476 0.5 0.12221 0.0
C56 C 0.2557 0.50555 0.35862 0.0
N57 N 0.23267 0.50698 0.31159 0.0
C58 C 0.25637 0.50627 0.46311 0.0
H59 H 0.2858 0.47876 0.09812 0.0
H60 H 0.30618 0.50844 0.13108 0.0
H61 H 0.27521 0.51054 0.06795 0.0
H62 H 0.25956 0.52723 0.49 0.0
H63 H 0.27366 0.49496 0.48428 0.0
H64 H 0.23652 0.49792 0.49504 0.0
C65 C 0.02919 0.25629 0.31829 0.0
N66 N 0.02699 0.22942 0.31293 0.0
N67 N 0.02214 0.26572 0.40613 0.0
C68 C 0.03605 0.27329 0.23667 0.0
C69 C 0.01549 0.24365 0.45374 0.0
N70 N 0.01834 0.22159 0.39687 0.0
C71 C 0.00739 0.24368 0.55635 0.0
H72 H 0.05864 0.27858 0.2327 0.0
H73 H 0.02499 0.29197 0.24546 0.0
H74 H 0.03067 0.2625 0.17018 0.0
H75 H 0.9845 0.24359 0.56642 0.0
H76 H 0.01639 0.26174 0.59375 0.0
H77 H 0.01433 0.2257 0.58682 0.0
C78 C 0.26072 0.02638 0.23521 0.0
N79 N 0.28793 0.02287 0.24225 0.0
N80 N 0.24704 0.02534 0.32002 0.0
C81 C 0.24718 0.02881 0.1452 0.0
C82 C 0.26687 0.02103 0.37864 0.0
N83 N 0.29174 0.01944 0.3313 0.0
C84 C 0.26197 0.01944 0.48249 0.0
H85 H 0.22563 0.01996 0.14919 0.0
H86 H 0.2591 0.01904 0.08574 0.0
H87 H 0.24646 0.05021 0.13226 0.0
H88 H 0.25712 0.99839 0.49885 0.0
H89 H 0.24414 0.03113 0.50878 0.0
H90 H 0.28066 0.02691 0.51893 0.0
C91 C 0.44544 0.26264 0.24504 0.0
N92 N 0.45087 0.28934 0.24625 0.0
N93 N 0.4516 0.25307 0.32672 0.0
C94 C 0.43321 0.24598 0.16611 0.0
C95 C 0.46126 0.27474 0.37733 0.0
N96 N 0.46072 0.29682 0.3287 0.0
C97 C 0.47368 0.27384 0.47038 0.0
H98 H 0.42087 0.22846 0.19268 0.0
H99 H 0.45025 0.23868 0.11806 0.0
H100 H 0.41993 0.25784 0.12648 0.0
H101 H 0.48244 0.25433 0.47798 0.0
H102 H 0.45722 0.27677 0.52657 0.0
H103 H 0.49026 0.28979 0.47943 0.0
Tb104 Tb 0.9947 0.98498 0.62244 0.0
C105 C 0.05172 0.01568 0.57896 0.0
Tb106 Tb 0.01158 0.03355 0.75207 0.0
O107 O 0.99198 0.01077 0.50657 0.0
O108 O 0.98421 0.02495 0.64441 0.0
O109 O 0.03712 0.99263 0.56938 0.0
C110 C 0.02449 0.08159 0.8303 0.0
O111 O 0.04398 0.03534 0.63887 0.0
C112 C 0.01944 0.98693 0.81267 0.0
C113 C 0.95446 0.00296 0.79532 0.0
O114 O 0.03775 0.06039 0.83922 0.0
O115 O 0.00409 0.07571 0.77725 0.0
O116 O 0.01425 0.0076 0.86767 0.0
O117 O 0.02215 0.99368 0.72974 0.0
O118 O 0.96914 0.02596 0.8053 0.0
O119 O 0.96211 0.98334 0.73504 0.0
C120 C 0.98275 0.93661 0.54514 0.0
O121 O 0.96948 0.95765 0.53359 0.0
O122 O 0.00252 0.94285 0.60038 0.0
C123 C 0.98691 0.03155 0.56126 0.0
Tb124 Tb 0.49985 0.03576 0.65845 0.0
C125 C 0.55042 0.00422 0.57692 0.0
Tb126 Tb 0.50714 0.97879 0.72609 0.0
O127 O 0.53675 0.05275 0.72601 0.0
O128 O 0.51543 0.01877 0.77403 0.0
O129 O 0.53283 0.02237 0.56071 0.0
C130 C 0.5227 0.93554 0.80269 0.0
O131 O 0.54596 0.98749 0.64496 0.0
C132 C 0.46971 0.98113 0.60296 0.0
C133 C 0.45673 0.01049 0.80839 0.0
O134 O 0.52351 0.93913 0.7139 0.0
O135 O 0.51317 0.95632 0.84846 0.0
O136 O 0.47033 0.96168 0.65772 0.0
O137 O 0.49151 0.99578 0.61098 0.0
O138 O 0.47427 0.99225 0.82423 0.0
O139 O 0.46119 0.02726 0.74055 0.0
C140 C 0.4841 0.07899 0.58239 0.0
O141 O 0.48457 0.07583 0.67118 0.0
O142 O 0.49253 0.0578 0.53621 0.0
C143 C 0.53726 0.03343 0.78138 0.0
Tb144 Tb 0.5181 0.52909 0.62914 0.0
C145 C 0.46005 0.50277 0.58125 0.0
Tb146 Tb 0.4927 0.48249 0.74532 0.0
O147 O 0.52163 0.50243 0.50353 0.0
O148 O 0.52324 0.48794 0.63555 0.0
O149 O 0.47666 0.5247 0.57949 0.0
C150 C 0.47426 0.43607 0.81329 0.0
O151 O 0.46419 0.48257 0.63316 0.0
C152 C 0.48856 0.53044 0.82385 0.0
C153 C 0.55136 0.50806 0.79093 0.0
O154 O 0.46068 0.45759 0.81947 0.0
O155 O 0.4979 0.44073 0.76826 0.0
O156 O 0.48934 0.5093 0.87063 0.0
O157 O 0.48753 0.52356 0.73864 0.0
O158 O 0.53413 0.48658 0.7949 0.0
O159 O 0.5477 0.52813 0.73771 0.0
C160 C 0.53531 0.57613 0.5634 0.0
O161 O 0.51374 0.57169 0.61943 0.0
O162 O 0.54756 0.55405 0.54521 0.0
C163 C 0.52238 0.48122 0.55007 0.0
Tb164 Tb 0.98496 0.51317 0.61116 0.0
C165 C 0.00679 0.45575 0.63813 0.0
Tb166 Tb 0.02847 0.50636 0.75662 0.0
O167 O 0.0156 0.53031 0.5089 0.0
O168 O 0.02733 0.5066 0.61032 0.0
O169 O 0.98781 0.4699 0.60416 0.0
C170 C 0.07501 0.50667 0.84612 0.0
O171 O 0.02604 0.46629 0.69324 0.0
C172 C 0.97638 0.4968 0.81219 0.0
C173 C 0.00703 0.56284 0.73026 0.0
O174 O 0.07185 0.49726 0.76144 0.0
O175 O 0.05185 0.51578 0.88105 0.0
O176 O 0.9967 0.48632 0.84905 0.0
O177 O 0.98619 0.51371 0.75697 0.0
O178 O 0.02879 0.54954 0.74772 0.0
O179 O 0.98484 0.55083 0.69298 0.0
C180 C 0.93763 0.5124 0.52605 0.0
O181 O 0.95631 0.53194 0.52759 0.0
O182 O 0.94571 0.49309 0.57142 0.0
C183 C 0.03642 0.52274 0.5512 0.0
H184 H 0.21229 0.06407 0.30057 0.0
H185 H 0.21633 0.98433 0.38807 0.0
H186 H 0.1626 0.06315 0.3492 0.0
H187 H 0.16715 0.98318 0.43749 0.0
H188 H 0.07502 0.97989 0.45225 0.0
H189 H 0.12098 0.98325 0.3742 0.0
H190 H 0.13519 0.06198 0.50345 0.0
H191 H 0.08896 0.05888 0.58104 0.0
C192 C 0.20231 0.04632 0.32938 0.0
C193 C 0.21773 0.02431 0.34147 0.0
C194 C 0.17411 0.04579 0.35754 0.0
C195 C 0.16103 0.02307 0.397 0.0
C196 C 0.17653 0.00082 0.40623 0.0
C197 C 0.20462 0.00149 0.37884 0.0
C198 C 0.08776 0.99807 0.46344 0.0
C199 C 0.07845 0.01896 0.52418 0.0
C200 C 0.11412 -6e-05 0.41875 0.0
C201 C 0.13176 0.02274 0.43359 0.0
C202 C 0.12197 0.04421 0.49033 0.0
C203 C 0.09556 0.04234 0.5353 0.0
H204 H 0.48013 0.21374 0.24051 0.0
H205 H 0.42239 0.23197 0.47157 0.0
H206 H 0.4852 0.16977 0.2986 0.0
H207 H 0.42636 0.18774 0.52907 0.0
H208 H 0.47191 0.12604 0.67237 0.0
H209 H 0.46058 0.16668 0.60382 0.0
H210 H 0.46529 0.12651 0.32969 0.0
H211 H 0.47765 0.08606 0.3988 0.0
C212 C 0.46794 0.20785 0.30236 0.0
C213 C 0.45093 0.22592 0.35199 0.0
C214 C 0.47075 0.18274 0.33578 0.0
C215 C 0.45641 0.17526 0.41925 0.0
C216 C 0.43819 0.19302 0.46579 0.0
C217 C 0.43564 0.21817 0.43272 0.0
C218 C 0.47039 0.12591 0.59754 0.0
C219 C 0.4758 0.10304 0.54075 0.0
C220 C 0.46365 0.14913 0.55814 0.0
C221 C 0.46192 0.14993 0.46103 0.0
C222 C 0.46679 0.12674 0.40451 0.0
C223 C 0.47375 0.10355 0.44401 0.0
H224 H 0.30633 0.54207 0.38706 0.0
H225 H 0.31266 0.46272 0.26315 0.0
H226 H 0.35281 0.54121 0.44309 0.0
H227 H 0.35961 0.46156 0.31858 0.0
H228 H 0.42083 0.46153 0.56201 0.0
H229 H 0.37856 0.46089 0.4779 0.0
H230 H 0.40199 0.53955 0.38633 0.0
H231 H 0.44394 0.54048 0.47084 0.0
C232 C 0.31806 0.52462 0.37095 0.0
C233 C 0.3063 0.50246 0.32146 0.0
C234 C 0.3446 0.5241 0.40232 0.0
C235 C 0.35981 0.5013 0.38512 0.0
C236 C 0.34825 0.47931 0.33322 0.0
C237 C 0.32165 0.47998 0.30107 0.0
C238 C 0.41708 0.47861 0.5234 0.0
C239 C 0.43555 0.50123 0.5245 0.0
C240 C 0.39299 0.47813 0.47458 0.0
C241 C 0.38693 0.50026 0.42625 0.0
C242 C 0.40597 0.52237 0.42412 0.0
C243 C 0.43003 0.52284 0.47256 0.0
H244 H 0.06218 0.30496 0.40271 0.0
H245 H 0.9762 0.28727 0.48278 0.0
H246 H 0.05786 0.35139 0.46034 0.0
H247 H 0.97167 0.33348 0.5419 0.0
H248 H 0.04653 0.42199 0.67145 0.0
H249 H 0.0498 0.37581 0.61502 0.0
H250 H 0.9732 0.37879 0.47899 0.0
H251 H 0.96966 0.42508 0.53597 0.0
C252 C 0.04241 0.31119 0.43274 0.0
C253 C 0.01955 0.29288 0.43914 0.0
C254 C 0.03992 0.33754 0.46618 0.0
C255 C 0.01443 0.34596 0.50586 0.0
C256 C 0.99149 0.32757 0.51112 0.0
C257 C 0.99408 0.30121 0.47821 0.0
C258 C 0.03024 0.41283 0.63002 0.0
C259 C 0.00784 0.42728 0.60808 0.0
C260 C 0.03227 0.38642 0.59714 0.0
C261 C 0.01187 0.37381 0.54217 0.0
C262 C 0.98916 0.38801 0.52173 0.0
C263 C 0.9872 0.41454 0.5541 0.0
H264 H 0.79579 0.9526 0.08152 0.0
H265 H 0.78991 0.03243 0.99733 0.0
H266 H 0.84527 0.95432 0.02984 0.0
H267 H 0.83887 0.03438 0.94486 0.0
H268 H 0.93117 0.03867 0.92249 0.0
H269 H 0.8856 0.03484 0.00322 0.0
H270 H 0.87164 0.95601 0.87446 0.0
H271 H 0.91747 0.95957 0.79429 0.0
C272 C 0.80534 0.97055 0.05288 0.0
C273 C 0.78945 0.99235 0.04255 0.0
C274 C 0.83341 0.97153 0.02294 0.0
C275 C 0.84591 0.99449 0.98336 0.0
C276 C 0.82997 0.01655 0.97613 0.0
C277 C 0.802 0.01544 0.00533 0.0
C278 C 0.91857 0.02038 0.91191 0.0
C279 C 0.92784 -0.00042 0.85074 0.0
C280 C 0.89242 0.01824 0.95814 0.0
C281 C 0.87497 0.99524 0.94443 0.0
C282 C 0.88472 0.97391 0.88685 0.0
C283 C 0.9109 0.97606 0.84036 0.0
H284 H 0.58947 0.786 0.93078 0.0
H285 H 0.51775 0.79512 0.11925 0.0
H286 H 0.58481 0.83052 0.87579 0.0
H287 H 0.51247 0.83949 0.0642 0.0
H288 H 0.52121 0.92585 0.9873 0.0
H289 H 0.53231 0.88494 0.05636 0.0
H290 H 0.55237 0.84977 0.78096 0.0
H291 H 0.54178 0.89079 0.7126 0.0
C292 C 0.57293 0.79785 0.96093 0.0
C293 C 0.5539 0.78746 0.02858 0.0
C294 C 0.57009 0.82315 0.92932 0.0
C295 C 0.5481 0.83847 0.96495 0.0
C296 C 0.52978 0.82836 0.03591 0.0
C297 C 0.53269 0.80304 0.0674 0.0
C298 C 0.52819 0.90939 0.94182 0.0
C299 C 0.53055 0.91136 0.8447 0.0
C300 C 0.53443 0.88595 0.98125 0.0
C301 C 0.54321 0.86406 0.92423 0.0
C302 C 0.54607 0.86636 0.82705 0.0
C303 C 0.53981 0.88977 0.78774 0.0
H304 H 0.70303 0.54594 0.08597 0.0
H305 H 0.69981 0.46196 0.01155 0.0
H306 H 0.65646 0.54887 0.03024 0.0
H307 H 0.65369 0.46456 0.95396 0.0
H308 H 0.59467 0.54572 0.79227 0.0
H309 H 0.63689 0.54521 0.87575 0.0
H310 H 0.60569 0.47277 0.0013 0.0
H311 H 0.56382 0.4729 0.91691 0.0
C312 C 0.69194 0.52809 0.05922 0.0
C313 C 0.70447 0.50369 0.05337 0.0
C314 C 0.66558 0.52974 0.02655 0.0
C315 C 0.65144 0.50696 0.98756 0.0
C316 C 0.66383 0.4824 0.98479 0.0
C317 C 0.69015 0.48083 0.01724 0.0
C318 C 0.59672 0.52978 0.83817 0.0
C319 C 0.57605 0.50914 0.8467 0.0
C320 C 0.62083 0.52961 0.88657 0.0
C321 C 0.62468 0.50882 0.94455 0.0
C322 C 0.60351 0.4888 0.95591 0.0
C323 C 0.57949 0.48894 0.90754 0.0
H324 H 0.03904 0.73126 0.8851 0.0
H325 H 0.95426 0.71301 0.97936 0.0
H326 H 0.04294 0.68529 0.82295 0.0
H327 H 0.95809 0.66676 0.91998 0.0
H328 H 0.04654 0.59404 0.81987 0.0
H329 H 0.04362 0.64019 0.87878 0.0
H330 H 0.96296 0.64207 0.76821 0.0
H331 H 0.96558 0.59594 0.71064 0.0
C332 C 0.0213 0.71725 0.8923 0.0
C333 C 0.99633 0.72539 0.93617 0.0
C334 C 0.02355 0.69099 0.8577 0.0
C335 C 0.0008 0.67246 0.86642 0.0
C336 C 0.97585 0.68068 0.91118 0.0
C337 C 0.97368 0.70695 0.94584 0.0
C338 C 0.02824 0.60433 0.80772 0.0
C339 C 0.00624 0.59126 0.76096 0.0
C340 C 0.02662 0.63079 0.8412 0.0
C341 C 0.00298 0.64466 0.82862 0.0
C342 C 0.98124 0.63174 0.78034 0.0
C343 C 0.98285 0.60534 0.74681 0.0
H344 H 0.97075 0.19953 0.4723 0.0
H345 H 0.05379 0.18263 0.37249 0.0
H346 H 0.96123 0.15289 0.50839 0.0
H347 H 0.04477 0.13603 0.40913 0.0
H348 H 0.01181 0.05001 0.40135 0.0
H349 H 0.01821 0.09623 0.35867 0.0
H350 H 0.9738 0.1213 0.61587 0.0
H351 H 0.96631 0.07492 0.65571 0.0
C352 C 0.98699 0.18574 0.4593 0.0
C353 C 0.013 0.1944 0.42051 0.0
C354 C 0.98163 0.15912 0.4797 0.0
C355 C 0.00224 0.14072 0.46156 0.0
C356 C 0.0283 0.14957 0.42257 0.0
C357 C 0.03357 0.17616 0.40209 0.0
C358 C 0.00316 0.06543 0.44799 0.0
C359 C 0.98901 0.05911 0.53252 0.0
C360 C 0.00706 0.0919 0.42414 0.0
C361 C 0.99681 0.11249 0.4844 0.0
C362 C 0.98185 0.10594 0.56766 0.0
C363 C 0.97788 0.07946 0.59117 0.0
H364 H 0.34039 0.04765 0.30733 0.0
H365 H 0.30145 0.97886 0.43603 0.0
H366 H 0.38497 0.03741 0.36225 0.0
H367 H 0.34534 0.96954 0.49796 0.0
H368 H 0.43183 0.94519 0.53113 0.0
H369 H 0.38938 0.95399 0.45845 0.0
H370 H 0.40912 0.03856 0.49838 0.0
H371 H 0.45161 0.02933 0.56716 0.0
C372 C 0.34147 0.03044 0.34815 0.0
C373 C 0.31765 0.0141 0.36808 0.0
C374 C 0.36687 0.02467 0.38051 0.0
C375 C 0.36885 0.00265 0.43494 0.0
C376 C 0.3448 0.98641 0.4551 0.0
C377 C 0.31953 0.99197 0.42129 0.0
C378 C 0.42717 0.96561 0.52276 0.0
C379 C 0.4453 0.98667 0.55291 0.0
C380 C 0.40275 0.9707 0.48199 0.0
C381 C 0.39567 0.99703 0.47249 0.0
C382 C 0.41407 0.01803 0.50222 0.0
C383 C 0.43865 0.01283 0.54142 0.0
H384 H 0.49867 0.32841 0.23527 0.0
H385 H 0.44603 0.32457 0.48762 0.0
H386 H 0.51551 0.3737 0.2843 0.0
H387 H 0.46394 0.36923 0.53922 0.0
H388 H 0.53126 0.43519 0.62954 0.0
H389 H 0.51638 0.38991 0.57495 0.0
H390 H 0.48881 0.42023 0.3245 0.0
H391 H 0.5021 0.46568 0.3819 0.0
C392 C 0.49072 0.33735 0.30102 0.0
C393 C 0.47097 0.32325 0.35764 0.0
C394 C 0.5004 0.36307 0.32915 0.0
C395 C 0.49105 0.37472 0.41552 0.0
C396 C 0.47159 0.36048 0.47267 0.0
C397 C 0.46143 0.33506 0.44347 0.0
C398 C 0.5215 0.43216 0.56386 0.0
C399 C 0.5169 0.45386 0.51148 0.0
C400 C 0.51333 0.40634 0.53221 0.0
C401 C 0.50126 0.40179 0.44614 0.0
C402 C 0.49808 0.42335 0.39116 0.0
C403 C 0.50571 0.44925 0.42387 0.0
H404 H 0.21516 0.54627 0.43193 0.0
H405 H 0.18786 0.47492 0.2761 0.0
H406 H 0.16721 0.55303 0.48962 0.0
H407 H 0.13991 0.48172 0.33164 0.0
H408 H 0.05566 0.51692 0.37044 0.0
H409 H 0.1041 0.51464 0.31199 0.0
H410 H 0.13029 0.53042 0.59261 0.0
H411 H 0.08188 0.53351 0.64972 0.0
C412 C 0.19883 0.53194 0.41115 0.0
C413 C 0.2049 0.51007 0.35017 0.0
C414 C 0.1715 0.53583 0.44346 0.0
C415 C 0.14987 0.51802 0.41435 0.0
C416 C 0.15612 0.49601 0.3539 0.0
C417 C 0.18343 0.49201 0.32254 0.0
C418 C 0.07188 0.52026 0.41902 0.0
C419 C 0.06532 0.52469 0.5147 0.0
C420 C 0.09949 0.51873 0.38593 0.0
C421 C 0.12087 0.52193 0.44808 0.0
C422 C 0.11423 0.52777 0.54324 0.0
C423 C 0.08662 0.52912 0.57619 0.0
H424 H 0.04315 0.82042 0.90344 0.0
H425 H 0.95935 0.83403 0.00384 0.0
H426 H 0.05051 0.86721 0.86638 0.0
H427 H 0.96622 0.88073 0.9663 0.0
H428 H 0.9955 0.9678 0.97278 0.0
H429 H 0.99119 0.92156 0.01609 0.0
H430 H 0.03618 0.89789 0.75839 0.0
H431 H 0.04156 0.94434 0.71789 0.0
C432 C 0.02629 0.83352 0.9165 0.0
C433 C 0.00071 0.82392 0.95582 0.0
C434 C 0.03042 0.86021 0.8955 0.0
C435 C 0.00895 0.87771 0.91354 0.0
C436 C 0.98332 0.86791 0.95298 0.0
C437 C 0.97928 0.84125 0.97402 0.0
C438 C 0.00469 0.95268 0.92613 0.0
C439 C 0.0184 0.95939 0.84129 0.0
C440 C 0.00201 0.92621 0.95035 0.0
C441 C 0.01306 0.906 0.89017 0.0
C442 C 0.02754 0.91297 0.80653 0.0
C443 C 0.0303 0.93946 0.78264 0.0
H444 H 0.66663 0.96784 0.08023 0.0
H445 H 0.70534 0.03618 0.9481 0.0
H446 H 0.62195 0.97788 0.02565 0.0
H447 H 0.66142 0.04516 0.88609 0.0
H448 H 0.57544 0.06951 0.85044 0.0
H449 H 0.61773 0.06091 0.92411 0.0
H450 H 0.59715 0.97629 0.89152 0.0
H451 H 0.55461 0.98538 0.82238 0.0
C452 C 0.66548 0.9849 0.03872 0.0
C453 C 0.68928 0.00118 0.01773 0.0
C454 C 0.64002 0.99054 0.00649 0.0
C455 C 0.63795 0.01233 0.95105 0.0
C456 C 0.66199 0.02849 0.92981 0.0
C457 C 0.6873 0.0231 0.96363 0.0
C458 C 0.57987 0.04913 0.86063 0.0
C459 C 0.56155 0.02804 0.83221 0.0
C460 C 0.60422 0.04413 0.90194 0.0
C461 C 0.61107 0.01785 0.91358 0.0
C462 C 0.59241 0.99681 0.88586 0.0
C463 C 0.56786 0.00193 0.8463 0.0
H464 H 0.57495 0.67277 0.04522 0.0
H465 H 0.49619 0.70041 0.9834 0.0
H466 H 0.55967 0.62732 0.99443 0.0
H467 H 0.48045 0.65503 0.93316 0.0
H468 H 0.47543 0.57647 0.75267 0.0
H469 H 0.48927 0.62185 0.8076 0.0
H470 H 0.5274 0.59105 0.03937 0.0
H471 H 0.51462 0.54574 0.98147 0.0
C472 C 0.55431 0.66891 0.02089 0.0
C473 C 0.53679 0.68982 0.01686 0.0
C474 C 0.54546 0.643 0.99234 0.0
C475 C 0.51883 0.63755 0.95956 0.0
C476 C 0.50123 0.65861 0.95655 0.0
C477 C 0.51014 0.68451 0.98513 0.0
C478 C 0.48701 0.57952 0.81476 0.0
C479 C 0.49451 0.55776 0.86179 0.0
C480 C 0.49461 0.60546 0.847 0.0
C481 C 0.50964 0.61007 0.92753 0.0
C482 C 0.51628 0.58817 0.97622 0.0
C483 C 0.50873 0.56226 0.94372 0.0
H484 H 0.80767 0.5351 0.95297 0.0
H485 H 0.81036 0.45842 0.06632 0.0
H486 H 0.85573 0.53298 0.89346 0.0
H487 H 0.85809 0.45484 0.00147 0.0
H488 H 0.95245 0.47102 0.96177 0.0
H489 H 0.90379 0.47035 0.01825 0.0
H490 H 0.88525 0.51418 0.78222 0.0
H491 H 0.93389 0.51697 0.73252 0.0
C492 C 0.81863 0.51749 0.96264 0.0
C493 C 0.80569 0.49681 0.01267 0.0
C494 C 0.84607 0.51606 0.92834 0.0
C495 C 0.86095 0.49356 0.94153 0.0
C496 C 0.84755 0.47262 0.99081 0.0
C497 C 0.82022 0.47441 0.02695 0.0
C498 C 0.93781 0.48039 0.92229 0.0
C499 C 0.94683 0.49391 0.84254 0.0
C500 C 0.90987 0.47987 0.95405 0.0
C501 C 0.89039 0.4924 0.90538 0.0
C502 C 0.89954 0.50491 0.8233 0.0
C503 C 0.92745 0.50609 0.79346 0.0
H504 H 0.07251 0.21859 0.20359 0.0
H505 H 0.98449 0.20152 0.23833 0.0
H506 H 0.07509 0.18562 0.0703 0.0
H507 H 0.98665 0.16877 0.10602 0.0
H508 H 0.99467 0.12532 0.82757 0.0
H509 H 0.99752 0.16514 0.93264 0.0
H510 H 0.06713 0.13511 0.0581 0.0
H511 H 0.06433 0.09528 0.95267 0.0
C512 C 0.05376 0.208 0.18118 0.0
C513 C 0.02832 0.21228 0.22984 0.0
C514 C 0.05517 0.18917 0.10581 0.0
C515 C 0.03104 0.17476 0.07771 0.0
C516 C 0.0055 0.17986 0.12514 0.0
C517 C 0.00421 0.19838 0.20081 0.0
C518 C 0.01088 0.12748 0.87649 0.0
C519 C 0.02909 0.10718 0.88306 0.0
C520 C 0.01246 0.1502 0.93665 0.0
C521 C 0.03237 0.15305 0.00398 0.0
C522 C 0.0517 0.13349 0.00644 0.0
C523 C 0.05002 0.11067 0.94653 0.0
H524 H 0.30857 0.0604 0.1281 0.0
H525 H 0.31421 0.97869 0.19134 0.0
H526 H 0.349 0.05717 0.01747 0.0
H527 H 0.35401 0.97475 0.07916 0.0
H528 H 0.44415 0.98801 0.97503 0.0
H529 H 0.40148 0.9905 0.07276 0.0
H530 H 0.36742 0.03782 0.87181 0.0
H531 H 0.41049 0.03602 0.7753 0.0
C532 C 0.31819 0.0416 0.11602 0.0
C533 C 0.30868 0.01981 0.16741 0.0
C534 C 0.34125 0.03965 0.05304 0.0
C535 C 0.35497 0.01576 0.04023 0.0
C536 C 0.34437 0.9936 0.08882 0.0
C537 C 0.3215 0.99568 0.1521 0.0
C538 C 0.42756 0.99893 0.95161 0.0
C539 C 0.43077 0.01191 0.86763 0.0
C540 C 0.40298 0.0002 0.00733 0.0
C541 C 0.38092 0.01424 0.97989 0.0
C542 C 0.38411 0.02712 0.89559 0.0
C543 C 0.40879 0.02603 0.84018 0.0
H544 H 0.42438 0.33495 0.25878 0.0
H545 H 0.47105 0.28333 0.06772 0.0
H546 H 0.4266 0.36853 0.14302 0.0
H547 H 0.47152 0.31577 0.94834 0.0
H548 H 0.50556 0.39395 0.82609 0.0
H549 H 0.49565 0.35608 0.92154 0.0
H550 H 0.41447 0.38409 0.00178 0.0
H551 H 0.42526 0.42292 0.90918 0.0
C552 C 0.43448 0.33061 0.19077 0.0
C553 C 0.44778 0.30678 0.17221 0.0
C554 C 0.43555 0.34969 0.12389 0.0
C555 C 0.44954 0.34511 0.03614 0.0
C556 C 0.46113 0.32033 0.01569 0.0
C557 C 0.46048 0.3015 0.08335 0.0
C558 C 0.48547 0.39184 0.86331 0.0
C559 C 0.46626 0.41144 0.86102 0.0
C560 C 0.47963 0.36994 0.91763 0.0
C561 C 0.45422 0.3669 0.97009 0.0
C562 C 0.43444 0.38597 0.96389 0.0
C563 C 0.44049 0.40812 0.9103 0.0
H564 H 0.22601 0.46773 0.08691 0.0
H565 H 0.21228 0.54751 0.19523 0.0
H566 H 0.18702 0.46915 0.98654 0.0
H567 H 0.17354 0.54936 0.09517 0.0
H568 H 0.08401 0.52572 0.02306 0.0
H569 H 0.12713 0.52672 0.10252 0.0
H570 H 0.16795 0.49058 0.85525 0.0
H571 H 0.12458 0.48927 0.77625 0.0
C572 C 0.21511 0.48582 0.08653 0.0
C573 C 0.22179 0.50748 0.14813 0.0
C574 C 0.19281 0.48667 0.02978 0.0
C575 C 0.17695 0.50923 0.03423 0.0
C576 C 0.18501 0.53153 0.0916 0.0
C577 C 0.20725 0.53064 0.14794 0.0
C578 C 0.10222 0.51805 0.98579 0.0
C579 C 0.10104 0.50738 0.89384 0.0
C580 C 0.12696 0.5188 0.03088 0.0
C581 C 0.15099 0.50891 0.98476 0.0
C582 C 0.14974 0.4982 0.89263 0.0
C583 C 0.12497 0.4975 0.84747 0.0
H584 H 0.02925 0.81838 0.14029 0.0
H585 H 0.94179 0.79767 0.17032 0.0
H586 H 0.02504 0.85113 0.27218 0.0
H587 H 0.93714 0.83072 0.30279 0.0
H588 H 0.01341 0.89364 0.55196 0.0
H589 H 0.0126 0.85382 0.44664 0.0
H590 H 0.94348 0.88195 0.31302 0.0
H591 H 0.94432 0.92188 0.41847 0.0
C592 C 0.00922 0.82072 0.17667 0.0
C593 C 0.98585 0.80577 0.14656 0.0
C594 C 0.00676 0.83926 0.25203 0.0
C595 C 0.98076 0.84334 0.29784 0.0
C596 C 0.95739 0.82793 0.26855 0.0
C597 C 0.95999 0.80905 0.19367 0.0
C598 C 0.99773 0.89107 0.50121 0.0
C599 C 0.97912 0.91089 0.49235 0.0
C600 C 0.99732 0.86835 0.44093 0.0
C601 C 0.97815 0.86498 0.37131 0.0
C602 C 0.95836 0.884 0.36649 0.0
C603 C 0.95891 0.90686 0.42643 0.0
H604 H 0.69924 0.95533 0.25822 0.0
H605 H 0.69276 0.03686 0.19411 0.0
H606 H 0.65885 0.95833 0.36916 0.0
H607 H 0.65301 0.04057 0.30663 0.0
H608 H 0.56297 0.02664 0.41026 0.0
H609 H 0.60572 0.02446 0.31298 0.0
H610 H 0.64005 0.97752 0.5145 0.0
H611 H 0.59686 0.97901 0.61061 0.0
C612 C 0.68944 0.97406 0.2702 0.0
C613 C 0.69869 0.99585 0.21841 0.0
C614 C 0.66641 0.97587 0.33336 0.0
C615 C 0.65245 -0.00037 0.34599 0.0
C616 C 0.66283 0.02181 0.29712 0.0
C617 C 0.68567 0.01987 0.23364 0.0
C618 C 0.57963 0.01587 0.43392 0.0
C619 C 0.57646 0.00292 0.51796 0.0
C620 C 0.60426 0.01478 0.37845 0.0
C621 C 0.62644 0.00096 0.40617 0.0
C622 C 0.62328 0.98808 0.49051 0.0
C623 C 0.59853 0.98898 0.54569 0.0
H624 H 0.59663 0.70797 0.21909 0.0
H625 H 0.50783 0.70065 0.21383 0.0
H626 H 0.59494 0.67449 0.33723 0.0
H627 H 0.50574 0.66717 0.3309 0.0
H628 H 0.5766 0.58657 0.43035 0.0
H629 H 0.58274 0.62562 0.33648 0.0
H630 H 0.51444 0.66089 0.49577 0.0
H631 H 0.50822 0.6218 0.58891 0.0
C632 C 0.57678 0.69946 0.24501 0.0
C633 C 0.55233 0.7068 0.20902 0.0
C634 C 0.57576 0.68023 0.31162 0.0
C635 C 0.5502 0.66823 0.34355 0.0
C636 C 0.52571 0.67631 0.30894 0.0
C637 C 0.52681 0.69533 0.242 0.0
C638 C 0.56327 0.6029 0.44624 0.0
C639 C 0.54181 0.60112 0.51622 0.0
C640 C 0.56682 0.62529 0.39279 0.0
C641 C 0.5489 0.64623 0.40821 0.0
C642 C 0.52831 0.64492 0.48138 0.0
C643 C 0.52484 0.62261 0.53497 0.0
H644 H 0.77557 0.47705 0.29786 0.0
H645 H 0.81447 0.5418 0.14681 0.0
H646 H 0.81336 0.48055 0.40417 0.0
H647 H 0.85327 0.54426 0.24683 0.0
H648 H 0.91329 0.55512 0.46927 0.0
H649 H 0.86997 0.55548 0.39239 0.0
H650 H 0.85989 0.46982 0.40181 0.0
H651 H 0.90243 0.4699 0.48384 0.0
C652 C 0.79215 0.49221 0.28848 0.0
C653 C 0.79247 0.50904 0.21441 0.0
C654 C 0.81399 0.494 0.34809 0.0
C655 C 0.83665 0.51249 0.33369 0.0
C656 C 0.83616 0.52999 0.26126 0.0
C657 C 0.81415 0.52843 0.20301 0.0
C658 C 0.90163 0.53644 0.4553 0.0
C659 C 0.91119 0.51246 0.48146 0.0
C660 C 0.87687 0.53658 0.41086 0.0
C661 C 0.86144 0.51265 0.38983 0.0
C662 C 0.8709 0.48869 0.41796 0.0
C663 C 0.89542 0.48865 0.46411 0.0
loop_
_geom_bond_atom_site_label_1
_geom_bond_atom_site_label_2
_geom_bond_distance
_geom_bond_site_symmetry_2
_ccdc_geom_bond_type
C0 N1 1.317 . S
C0 N2 1.348 . S
C0 C3 1.485 . S
N1 C0 1.317 . S
N1 N5 1.370 . S
N2 C0 1.348 . S
N2 C4 1.346 1_554 S
C3 C0 1.485 . S
C3 H7 0.960 . S
C3 H8 0.961 . S
C3 H9 0.960 . S
C4 N2 1.346 1_556 S
C4 N5 1.307 1_556 S
C4 C6 1.486 . S
N5 N1 1.370 . S
N5 C4 1.307 1_554 S
C6 C4 1.486 . S
C6 H10 0.960 . S
C6 H11 0.960 . S
C6 H12 0.959 . S
H7 C3 0.960 . S
H8 C3 0.961 . S
H9 C3 0.960 . S
H10 C6 0.960 . S
H11 C6 0.960 . S
H12 C6 0.959 . S
C13 N14 1.317 . S
C13 N15 1.348 1_554 S
C13 C16 1.485 . S
N14 C13 1.317 . S
N14 N18 1.370 1_554 S
N15 C13 1.348 1_556 S
N15 C17 1.346 . S
C16 C13 1.485 . S
C16 H20 0.960 . S
C16 H21 0.961 . S
C16 H22 0.960 . S
C17 N15 1.346 . S
C17 N18 1.307 . S
C17 C19 1.486 . S
N18 N14 1.370 1_556 S
N18 C17 1.307 . S
C19 C17 1.486 . S
C19 H23 0.960 . S
C19 H24 0.960 . S
C19 H25 0.959 . S
H20 C16 0.960 . S
H21 C16 0.961 . S
H22 C16 0.960 . S
H23 C19 0.960 . S
H24 C19 0.960 . S
H25 C19 0.959 . S
C26 N27 1.317 . S
C26 N28 1.348 . S
C26 C29 1.485 . S
N27 C26 1.317 . S
N27 N31 1.370 . S
N28 C26 1.348 . S
N28 C30 1.346 1_554 S
C29 C26 1.485 . S
C29 H33 0.960 . S
C29 H34 0.961 . S
C29 H35 0.960 . S
C30 N28 1.346 1_556 S
C30 N31 1.307 1_556 S
C30 C32 1.486 . S
N31 N27 1.370 . S
N31 C30 1.307 1_554 S
C32 C30 1.486 . S
C32 H36 0.960 . S
C32 H37 0.960 . S
C32 H38 0.959 . S
H33 C29 0.960 . S
H34 C29 0.961 . S
H35 C29 0.960 . S
H36 C32 0.960 . S
H37 C32 0.960 . S
H38 C32 0.959 . S
C39 N40 1.317 . S
C39 N41 1.348 . S
C39 C42 1.485 . S
N40 C39 1.317 . S
N40 N44 1.370 . S
N41 C39 1.348 . S
N41 C43 1.346 1_554 S
C42 C39 1.485 . S
C42 H46 0.960 . S
C42 H47 0.961 . S
C42 H48 0.960 . S
C43 N41 1.346 1_556 S
C43 N44 1.307 1_556 S
C43 C45 1.486 . S
N44 N40 1.370 . S
N44 C43 1.307 1_554 S
C45 C43 1.486 . S
C45 H49 0.960 . S
C45 H50 0.960 . S
C45 H51 0.959 . S
H46 C42 0.960 . S
H47 C42 0.961 . S
H48 C42 0.960 . S
H49 C45 0.960 . S
H50 C45 0.960 . S
H51 C45 0.959 . S
C52 N53 1.317 . S
C52 N54 1.348 . S
C52 C55 1.485 . S
N53 C52 1.317 . S
N53 N57 1.370 . S
N54 C52 1.348 . S
N54 C56 1.346 . S
C55 C52 1.485 . S
C55 H59 0.960 . S
C55 H60 0.961 . S
C55 H61 0.960 . S
C56 N54 1.346 . S
C56 N57 1.307 . S
C56 C58 1.486 . S
N57 N53 1.370 . S
N57 C56 1.307 . S
C58 C56 1.486 . S
C58 H62 0.960 . S
C58 H63 0.960 . S
C58 H64 0.959 . S
H59 C55 0.960 . S
H60 C55 0.961 . S
H61 C55 0.960 . S
H62 C58 0.960 . S
H63 C58 0.960 . S
H64 C58 0.959 . S
C65 N66 1.317 . S
C65 N67 1.348 . S
C65 C68 1.485 . S
N66 C65 1.317 . S
N66 N70 1.370 . S
N67 C65 1.348 . S
N67 C69 1.346 . S
C68 C65 1.485 . S
C68 H72 0.960 . S
C68 H73 0.961 . S
C68 H74 0.960 . S
C69 N67 1.346 . S
C69 N70 1.307 . S
C69 C71 1.486 . S
N70 N66 1.370 . S
N70 C69 1.307 . S
C71 C69 1.486 . S
C71 H75 0.960 . S
C71 H76 0.960 . S
C71 H77 0.959 . S
H72 C68 0.960 . S
H73 C68 0.961 . S
H74 C68 0.960 . S
H75 C71 0.960 . S
H76 C71 0.960 . S
H77 C71 0.959 . S
C78 N79 1.317 . S
C78 N80 1.348 . S
C78 C81 1.485 . S
N79 C78 1.317 . S
N79 N83 1.370 . S
N80 C78 1.348 . S
N80 C82 1.346 . S
C81 C78 1.485 . S
C81 H85 0.960 . S
C81 H86 0.961 . S
C81 H87 0.960 . S
C82 N80 1.346 . S
C82 N83 1.307 . S
C82 C84 1.486 . S
N83 N79 1.370 . S
N83 C82 1.307 . S
C84 C82 1.486 . S
C84 H88 0.960 . S
C84 H89 0.960 . S
C84 H90 0.959 . S
H85 C81 0.960 . S
H86 C81 0.961 . S
H87 C81 0.960 . S
H88 C84 0.960 . S
H89 C84 0.960 . S
H90 C84 0.959 . S
C91 N92 1.317 . S
C91 N93 1.348 . S
C91 C94 1.485 . S
N92 C91 1.317 . S
N92 N96 1.370 . S
N93 C91 1.348 . S
N93 C95 1.346 . S
C94 C91 1.485 . S
C94 H98 0.960 . S
C94 H99 0.961 . S
C94 H100 0.960 . S
C95 N93 1.346 . S
C95 N96 1.307 . S
C95 C97 1.486 . S
N96 N92 1.370 . S
N96 C95 1.307 . S
C97 C95 1.486 . S
C97 H101 0.960 . S
C97 H102 0.960 . S
C97 H103 0.959 . S
H98 C94 0.960 . S
H99 C94 0.961 . S
H100 C94 0.960 . S
H101 C97 0.960 . S
H102 C97 0.960 . S
H103 C97 0.959 . S
Tb104 O107 2.411 1_565 S
Tb104 O108 2.566 1_665 S
Tb104 O109 2.374 1_665 S
Tb104 O117 2.364 1_655 S
Tb104 O119 2.348 1_565 S
Tb104 O121 2.461 . S
Tb104 O122 2.551 1_655 S
C105 O109 1.251 . S
C105 O111 1.263 . S
Tb106 O108 2.343 . S
Tb106 O111 2.353 . S
Tb106 O114 2.427 . S
Tb106 O115 2.512 . S
Tb106 O116 2.453 1_545 S
Tb106 O117 2.596 1_545 S
Tb106 O118 2.374 1_455 S
O107 Tb104 2.411 1_545 S
O107 C123 1.245 1_655 S
O108 Tb104 2.566 1_445 S
O108 Tb106 2.343 . S
O108 C123 1.259 . S
O109 Tb104 2.374 1_445 S
O109 C105 1.251 . S
C110 O114 1.275 . S
C110 O115 1.245 . S
O111 C105 1.263 . S
O111 Tb106 2.353 . S
C112 O116 1.245 . S
C112 O117 1.259 . S
C113 O118 1.250 . S
C113 O119 1.263 . S
O114 Tb106 2.427 . S
O114 C110 1.275 . S
O115 Tb106 2.512 . S
O115 C110 1.245 . S
O116 Tb106 2.453 1_565 S
O116 C112 1.245 . S
O117 Tb104 2.364 1_455 S
O117 Tb106 2.596 1_565 S
O117 C112 1.259 . S
O118 Tb106 2.374 1_655 S
O118 C113 1.250 . S
O119 Tb104 2.348 1_545 S
O119 C113 1.263 . S
C120 O121 1.275 . S
C120 O122 1.246 1_655 S
O121 Tb104 2.461 . S
O121 C120 1.275 . S
O122 Tb104 2.551 1_455 S
O122 C120 1.246 1_455 S
C123 O107 1.245 1_455 S
C123 O108 1.259 . S
Tb124 O127 2.453 . S
Tb124 O128 2.596 1_545 S
Tb124 O129 2.374 . S
Tb124 O137 2.343 . S
Tb124 O139 2.353 . S
Tb124 O141 2.427 . S
Tb124 O142 2.513 . S
C125 O129 1.255 . S
C125 O131 1.259 1_545 S
Tb126 O128 2.343 . S
Tb126 O131 2.353 . S
Tb126 O134 2.427 . S
Tb126 O135 2.513 . S
Tb126 O136 2.453 . S
Tb126 O137 2.596 1_565 S
Tb126 O138 2.374 . S
O127 Tb124 2.453 . S
O127 C143 1.245 . S
O128 Tb124 2.596 1_565 S
O128 Tb126 2.343 . S
O128 C143 1.259 1_565 S
O129 Tb124 2.374 . S
O129 C125 1.255 . S
C130 O134 1.275 . S
C130 O135 1.246 . S
O131 C125 1.259 1_565 S
O131 Tb126 2.353 . S
C132 O136 1.245 1_545 S
C132 O137 1.259 . S
C133 O138 1.250 1_545 S
C133 O139 1.263 . S
O134 Tb126 2.427 . S
O134 C130 1.275 . S
O135 Tb126 2.513 . S
O135 C130 1.246 . S
O136 Tb126 2.453 . S
O136 C132 1.245 1_565 S
O137 Tb124 2.343 . S
O137 Tb126 2.596 1_545 S
O137 C132 1.259 . S
O138 Tb126 2.374 . S
O138 C133 1.250 1_565 S
O139 Tb124 2.353 . S
O139 C133 1.263 . S
C140 O141 1.275 . S
C140 O142 1.246 . S
O141 Tb124 2.427 . S
O141 C140 1.275 . S
O142 Tb124 2.513 . S
O142 C140 1.246 . S
C143 O127 1.245 . S
C143 O128 1.259 1_545 S
Tb144 O147 2.453 . S
Tb144 O148 2.596 . S
Tb144 O149 2.374 . S
Tb144 O157 2.343 . S
Tb144 O159 2.353 . S
Tb144 O161 2.427 . S
Tb144 O162 2.513 . S
C145 O149 1.251 . S
C145 O151 1.263 . S
Tb146 O148 2.343 . S
Tb146 O151 2.353 . S
Tb146 O154 2.427 . S
Tb146 O155 2.513 . S
Tb146 O156 2.453 . S
Tb146 O157 2.596 . S
Tb146 O158 2.374 . S
O147 Tb144 2.453 . S
O147 C163 1.245 . S
O148 Tb144 2.596 . S
O148 Tb146 2.343 . S
O148 C163 1.259 . S
O149 Tb144 2.374 . S
O149 C145 1.251 . S
C150 O154 1.275 . S
C150 O155 1.246 . S
O151 C145 1.263 . S
O151 Tb146 2.353 . S
C152 O156 1.245 . S
C152 O157 1.259 . S
C153 O158 1.250 . S
C153 O159 1.263 . S
O154 Tb146 2.427 . S
O154 C150 1.275 . S
O155 Tb146 2.513 . S
O155 C150 1.246 . S
O156 Tb146 2.453 . S
O156 C152 1.245 . S
O157 Tb144 2.343 . S
O157 Tb146 2.596 . S
O157 C152 1.259 . S
O158 Tb146 2.374 . S
O158 C153 1.250 . S
O159 Tb144 2.353 . S
O159 C153 1.263 . S
C160 O161 1.275 . S
C160 O162 1.246 . S
O161 Tb144 2.427 . S
O161 C160 1.275 . S
O162 Tb144 2.513 . S
O162 C160 1.246 . S
C163 O147 1.245 . S
C163 O148 1.259 . S
Tb164 O167 2.453 1_655 S
Tb164 O168 2.596 1_655 S
Tb164 O169 2.374 1_655 S
Tb164 O177 2.343 . S
Tb164 O179 2.353 1_655 S
Tb164 O181 2.427 . S
Tb164 O182 2.513 . S
C165 O169 1.251 . S
C165 O171 1.263 . S
Tb166 O168 2.343 . S
Tb166 O171 2.353 . S
Tb166 O174 2.427 . S
Tb166 O175 2.513 . S
Tb166 O176 2.453 1_455 S
Tb166 O177 2.596 1_455 S
Tb166 O178 2.374 . S
O167 Tb164 2.453 1_455 S
O167 C183 1.245 . S
O168 Tb164 2.596 1_455 S
O168 Tb166 2.343 . S
O168 C183 1.259 . S
O169 Tb164 2.374 1_455 S
O169 C165 1.251 . S
C170 O174 1.275 . S
C170 O175 1.246 . S
O171 C165 1.263 . S
O171 Tb166 2.353 . S
C172 O176 1.245 . S
C172 O177 1.259 . S
C173 O178 1.250 . S
C173 O179 1.263 . S
O174 Tb166 2.427 . S
O174 C170 1.275 . S
O175 Tb166 2.513 . S
O175 C170 1.246 . S
O176 Tb166 2.453 1_655 S
O176 C172 1.245 . S
O177 Tb164 2.343 . S
O177 Tb166 2.596 1_655 S
O177 C172 1.259 . S
O178 Tb166 2.374 . S
O178 C173 1.250 . S
O179 Tb164 2.353 1_455 S
O179 C173 1.263 . S
C180 O181 1.275 . S
C180 O182 1.246 . S
O181 Tb164 2.427 . S
O181 C180 1.275 . S
O182 Tb164 2.513 . S
O182 C180 1.246 . S
C183 O167 1.245 . S
C183 O168 1.259 . S
H184 C192 0.950 . S
H185 C197 0.950 . S
H186 C194 0.950 . S
H187 C196 0.950 . S
H188 C198 0.950 . S
H189 C200 0.950 . S
H190 C202 0.950 . S
H191 C203 0.950 . S
C192 H184 0.950 . S
C192 C193 1.386 . S
C192 C194 1.391 . S
C193 C192 1.386 . S
C193 C197 1.393 . S
C194 H186 0.950 . S
C194 C192 1.391 . S
C194 C195 1.400 . S
C195 C194 1.400 . S
C195 C196 1.398 . S
C195 C201 1.491 . S
C196 H187 0.950 . S
C196 C195 1.398 . S
C196 C197 1.391 . S
C197 H185 0.950 . S
C197 C193 1.393 . S
C197 C196 1.391 . S
C198 H188 0.950 . S
C198 C199 1.386 . S
C198 C200 1.391 . S
C199 C198 1.386 . S
C199 C203 1.393 . S
C200 H189 0.950 . S
C200 C198 1.391 . S
C200 C201 1.400 . S
C201 C195 1.491 . S
C201 C200 1.400 . S
C201 C202 1.398 . S
C202 H190 0.950 . S
C202 C201 1.398 . S
C202 C203 1.391 . S
C203 H191 0.950 . S
C203 C199 1.393 . S
C203 C202 1.391 . S
H204 C212 0.950 . S
H205 C217 0.950 . S
H206 C214 0.950 . S
H207 C216 0.950 . S
H208 C218 0.950 . S
H209 C220 0.950 . S
H210 C222 0.950 . S
H211 C223 0.950 . S
C212 H204 0.950 . S
C212 C213 1.386 . S
C212 C214 1.391 . S
C213 C212 1.386 . S
C213 C217 1.393 . S
C214 H206 0.950 . S
C214 C212 1.391 . S
C214 C215 1.400 . S
C215 C214 1.400 . S
C215 C216 1.398 . S
C215 C221 1.491 . S
C216 H207 0.950 . S
C216 C215 1.398 . S
C216 C217 1.391 . S
C217 H205 0.950 . S
C217 C213 1.393 . S
C217 C216 1.391 . S
C218 H208 0.950 . S
C218 C219 1.386 . S
C218 C220 1.391 . S
C219 C218 1.386 . S
C219 C223 1.393 . S
C220 H209 0.950 . S
C220 C218 1.391 . S
C220 C221 1.400 . S
C221 C215 1.491 . S
C221 C220 1.400 . S
C221 C222 1.398 . S
C222 H210 0.950 . S
C222 C221 1.398 . S
C222 C223 1.391 . S
C223 H211 0.950 . S
C223 C219 1.393 . S
C223 C222 1.391 . S
H224 C232 0.950 . S
H225 C237 0.950 . S
H226 C234 0.950 . S
H227 C236 0.950 . S
H228 C238 0.950 . S
H229 C240 0.950 . S
H230 C242 0.950 . S
H231 C243 0.950 . S
C232 H224 0.950 . S
C232 C233 1.386 . S
C232 C234 1.391 . S
C233 C232 1.386 . S
C233 C237 1.393 . S
C234 H226 0.950 . S
C234 C232 1.391 . S
C234 C235 1.400 . S
C235 C234 1.400 . S
C235 C236 1.398 . S
C235 C241 1.491 . S
C236 H227 0.950 . S
C236 C235 1.398 . S
C236 C237 1.391 . S
C237 H225 0.950 . S
C237 C233 1.393 . S
C237 C236 1.391 . S
C238 H228 0.950 . S
C238 C239 1.386 . S
C238 C240 1.391 . S
C239 C238 1.386 . S
C239 C243 1.393 . S
C240 H229 0.950 . S
C240 C238 1.391 . S
C240 C241 1.400 . S
C241 C235 1.491 . S
C241 C240 1.400 . S
C241 C242 1.398 . S
C242 H230 0.950 . S
C242 C241 1.398 . S
C242 C243 1.391 . S
C243 H231 0.950 . S
C243 C239 1.393 . S
C243 C242 1.391 . S
H244 C252 0.950 . S
H245 C257 0.950 . S
H246 C254 0.950 . S
H247 C256 0.950 . S
H248 C258 0.950 . S
H249 C260 0.950 . S
H250 C262 0.950 . S
H251 C263 0.950 . S
C252 H244 0.950 . S
C252 C253 1.386 . S
C252 C254 1.391 . S
C253 C252 1.386 . S
C253 C257 1.393 . S
C254 H246 0.950 . S
C254 C252 1.391 . S
C254 C255 1.400 . S
C255 C254 1.400 . S
C255 C256 1.398 . S
C255 C261 1.491 . S
C256 H247 0.950 . S
C256 C255 1.398 . S
C256 C257 1.391 . S
C257 H245 0.950 . S
C257 C253 1.393 . S
C257 C256 1.391 . S
C258 H248 0.950 . S
C258 C259 1.386 . S
C258 C260 1.391 . S
C259 C258 1.386 . S
C259 C263 1.393 . S
C260 H249 0.950 . S
C260 C258 1.391 . S
C260 C261 1.400 . S
C261 C255 1.491 . S
C261 C260 1.400 . S
C261 C262 1.398 . S
C262 H250 0.950 . S
C262 C261 1.398 . S
C262 C263 1.391 . S
C263 H251 0.950 . S
C263 C259 1.393 . S
C263 C262 1.391 . S
H264 C272 0.950 . S
H265 C277 0.950 1_545 S
H266 C274 0.950 . S
H267 C276 0.947 1_545 S
H268 C278 0.950 . S
H269 C280 0.950 . S
H270 C282 0.950 . S
H271 C283 0.950 . S
C272 H264 0.950 . S
C272 C273 1.386 . S
C272 C274 1.391 . S
C273 C272 1.386 . S
C273 C277 1.393 1_556 S
C274 H266 0.950 . S
C274 C272 1.391 . S
C274 C275 1.400 . S
C275 C274 1.400 . S
C275 C276 1.400 . S
C275 C281 1.491 . S
C276 H267 0.947 1_565 S
C276 C275 1.400 . S
C276 C277 1.391 1_556 S
C277 H265 0.950 1_565 S
C277 C273 1.393 1_554 S
C277 C276 1.391 1_554 S
C278 H268 0.950 . S
C278 C279 1.386 1_545 S
C278 C280 1.391 . S
C279 C278 1.386 1_565 S
C279 C283 1.393 . S
C280 H269 0.950 . S
C280 C278 1.391 . S
C280 C281 1.400 1_545 S
C281 C275 1.491 . S
C281 C280 1.400 1_565 S
C281 C282 1.398 . S
C282 H270 0.950 . S
C282 C281 1.398 . S
C282 C283 1.391 . S
C283 H271 0.950 . S
C283 C279 1.393 . S
C283 C282 1.391 . S
H284 C292 0.950 . S
H285 C297 0.950 . S
H286 C294 0.950 . S
H287 C296 0.950 . S
H288 C298 0.950 . S
H289 C300 0.950 1_554 S
H290 C302 0.950 . S
H291 C303 0.950 . S
C292 H284 0.950 . S
C292 C293 1.386 1_556 S
C292 C294 1.391 . S
C293 C292 1.386 1_554 S
C293 C297 1.393 . S
C294 H286 0.950 . S
C294 C292 1.391 . S
C294 C295 1.400 . S
C295 C294 1.400 . S
C295 C296 1.398 1_556 S
C295 C301 1.491 . S
C296 H287 0.950 . S
C296 C295 1.398 1_554 S
C296 C297 1.391 . S
C297 H285 0.950 . S
C297 C293 1.393 . S
C297 C296 1.391 . S
C298 H288 0.950 . S
C298 C299 1.386 . S
C298 C300 1.391 . S
C299 C298 1.386 . S
C299 C303 1.393 . S
C300 H289 0.950 1_556 S
C300 C298 1.391 . S
C300 C301 1.400 . S
C301 C295 1.491 . S
C301 C300 1.400 . S
C301 C302 1.398 . S
C302 H290 0.950 . S
C302 C301 1.398 . S
C302 C303 1.391 . S
C303 H291 0.950 . S
C303 C299 1.393 . S
C303 C302 1.391 . S
H304 C312 0.950 . S
H305 C317 0.950 . S
H306 C314 0.950 1_554 S
H307 C316 0.950 . S
H308 C318 0.950 . S
H309 C320 0.950 . S
H310 C322 0.950 . S
H311 C323 0.950 . S
C312 H304 0.950 . S
C312 C313 1.386 . S
C312 C314 1.391 1_554 S
C313 C312 1.386 . S
C313 C317 1.392 1_554 S
C314 H306 0.950 1_556 S
C314 C312 1.391 1_556 S
C314 C315 1.400 . S
C315 C314 1.400 . S
C315 C316 1.398 . S
C315 C321 1.491 . S
C316 H307 0.950 . S
C316 C315 1.398 . S
C316 C317 1.391 . S
C317 H305 0.950 . S
C317 C313 1.392 1_556 S
C317 C316 1.391 . S
C318 H308 0.950 . S
C318 C319 1.386 . S
C318 C320 1.391 . S
C319 C318 1.386 . S
C319 C323 1.393 . S
C320 H309 0.950 . S
C320 C318 1.391 . S
C320 C321 1.400 . S
C321 C315 1.491 . S
C321 C320 1.400 . S
C321 C322 1.398 . S
C322 H310 0.950 . S
C322 C321 1.398 . S
C322 C323 1.391 . S
C323 H311 0.950 . S
C323 C319 1.393 . S
C323 C322 1.391 . S
H324 C332 0.950 . S
H325 C337 0.950 . S
H326 C334 0.950 . S
H327 C336 0.950 1_554 S
H328 C338 0.950 . S
H329 C340 0.950 . S
H330 C342 0.950 . S
H331 C343 0.950 . S
C332 H324 0.950 . S
C332 C333 1.386 . S
C332 C334 1.391 . S
C333 C332 1.386 . S
C333 C337 1.393 1_556 S
C334 H326 0.950 . S
C334 C332 1.391 . S
C334 C335 1.400 . S
C335 C334 1.400 . S
C335 C336 1.398 . S
C335 C341 1.491 . S
C336 H327 0.950 1_556 S
C336 C335 1.398 . S
C336 C337 1.391 1_556 S
C337 H325 0.950 . S
C337 C333 1.393 1_554 S
C337 C336 1.391 1_554 S
C338 H328 0.950 . S
C338 C339 1.386 . S
C338 C340 1.391 . S
C339 C338 1.386 . S
C339 C343 1.393 . S
C340 H329 0.950 . S
C340 C338 1.391 . S
C340 C341 1.400 . S
C341 C335 1.491 . S
C341 C340 1.400 . S
C341 C342 1.398 . S
C342 H330 0.950 . S
C342 C341 1.398 . S
C342 C343 1.391 . S
C343 H331 0.950 . S
C343 C339 1.393 . S
C343 C342 1.391 . S
H344 C352 0.950 . S
H345 C357 0.950 . S
H346 C354 0.950 . S
H347 C356 0.950 . S
H348 C358 0.950 . S
H349 C360 0.950 . S
H350 C362 0.950 1_655 S
H351 C363 0.950 1_655 S
C352 H344 0.950 . S
C352 C353 1.386 . S
C352 C354 1.391 . S
C353 C352 1.386 . S
C353 C357 1.393 . S
C354 H346 0.950 . S
C354 C352 1.391 . S
C354 C355 1.400 . S
C355 C354 1.400 . S
C355 C356 1.398 . S
C355 C361 1.491 . S
C356 H347 0.950 . S
C356 C355 1.398 . S
C356 C357 1.391 . S
C357 H345 0.950 . S
C357 C353 1.393 . S
C357 C356 1.391 . S
C358 H348 0.950 . S
C358 C359 1.386 . S
C358 C360 1.391 . S
C359 C358 1.386 . S
C359 C363 1.393 . S
C360 H349 0.950 . S
C360 C358 1.391 . S
C360 C361 1.400 . S
C361 C355 1.491 . S
C361 C360 1.400 . S
C361 C362 1.398 . S
C362 H350 0.950 1_455 S
C362 C361 1.398 . S
C362 C363 1.391 . S
C363 H351 0.950 1_455 S
C363 C359 1.393 . S
C363 C362 1.391 . S
H364 C372 0.950 . S
H365 C377 0.950 . S
H366 C374 0.950 . S
H367 C376 0.933 1_565 S
H368 C378 0.950 . S
H369 C380 0.950 1_565 S
H370 C382 0.950 . S
H371 C383 0.950 . S
C372 H364 0.950 . S
C372 C373 1.386 . S
C372 C374 1.391 . S
C373 C372 1.386 . S
C373 C377 1.393 . S
C374 H366 0.950 . S
C374 C372 1.391 . S
C374 C375 1.400 . S
C375 C374 1.400 . S
C375 C376 1.398 . S
C375 C381 1.491 . S
C376 H367 0.933 1_545 S
C376 C375 1.398 . S
C376 C377 1.391 . S
C377 H365 0.950 . S
C377 C373 1.393 . S
C377 C376 1.391 . S
C378 H368 0.950 . S
C378 C379 1.386 1_565 S
C378 C380 1.391 1_565 S
C379 C378 1.386 1_545 S
C379 C383 1.393 . S
C380 H369 0.950 1_545 S
C380 C378 1.391 1_545 S
C380 C381 1.400 . S
C381 C375 1.491 . S
C381 C380 1.400 . S
C381 C382 1.398 . S
C382 H370 0.950 . S
C382 C381 1.398 . S
C382 C383 1.391 . S
C383 H371 0.950 . S
C383 C379 1.393 . S
C383 C382 1.391 . S
H384 C392 0.950 . S
H385 C397 0.950 . S
H386 C394 0.950 . S
H387 C396 0.950 . S
H388 C398 0.950 . S
H389 C400 0.950 . S
H390 C402 0.950 . S
H391 C403 0.950 . S
C392 H384 0.950 . S
C392 C393 1.386 . S
C392 C394 1.391 . S
C393 C392 1.386 . S
C393 C397 1.393 . S
C394 H386 0.950 . S
C394 C392 1.391 . S
C394 C395 1.400 . S
C395 C394 1.400 . S
C395 C396 1.398 . S
C395 C401 1.491 . S
C396 H387 0.950 . S
C396 C395 1.398 . S
C396 C397 1.391 . S
C397 H385 0.950 . S
C397 C393 1.393 . S
C397 C396 1.391 . S
C398 H388 0.950 . S
C398 C399 1.386 . S
C398 C400 1.391 . S
C399 C398 1.386 . S
C399 C403 1.393 . S
C400 H389 0.950 . S
C400 C398 1.391 . S
C400 C401 1.400 . S
C401 C395 1.491 . S
C401 C400 1.400 . S
C401 C402 1.398 . S
C402 H390 0.950 . S
C402 C401 1.398 . S
C402 C403 1.391 . S
C403 H391 0.950 . S
C403 C399 1.393 . S
C403 C402 1.391 . S
H404 C412 0.950 . S
H405 C417 0.950 . S
H406 C414 0.950 . S
H407 C416 0.950 . S
H408 C418 0.950 . S
H409 C420 0.950 . S
H410 C422 0.950 . S
H411 C423 0.950 . S
C412 H404 0.950 . S
C412 C413 1.386 . S
C412 C414 1.391 . S
C413 C412 1.386 . S
C413 C417 1.393 . S
C414 H406 0.950 . S
C414 C412 1.391 . S
C414 C415 1.400 . S
C415 C414 1.400 . S
C415 C416 1.398 . S
C415 C421 1.491 . S
C416 H407 0.950 . S
C416 C415 1.398 . S
C416 C417 1.391 . S
C417 H405 0.950 . S
C417 C413 1.393 . S
C417 C416 1.391 . S
C418 H408 0.950 . S
C418 C419 1.386 . S
C418 C420 1.391 . S
C419 C418 1.386 . S
C419 C423 1.393 . S
C420 H409 0.950 . S
C420 C418 1.391 . S
C420 C421 1.400 . S
C421 C415 1.491 . S
C421 C420 1.400 . S
C421 C422 1.398 . S
C422 H410 0.950 . S
C422 C421 1.398 . S
C422 C423 1.391 . S
C423 H411 0.950 . S
C423 C419 1.393 . S
C423 C422 1.391 . S
H424 C432 0.950 . S
H425 C437 0.950 1_554 S
H426 C434 0.964 . S
H427 C436 0.950 . S
H428 C438 0.950 . S
H429 C440 0.950 . S
H430 C442 0.950 . S
H431 C443 0.950 . S
C432 H424 0.950 . S
C432 C433 1.386 . S
C432 C434 1.391 . S
C433 C432 1.386 . S
C433 C437 1.393 . S
C434 H426 0.964 . S
C434 C432 1.391 . S
C434 C435 1.400 . S
C435 C434 1.400 . S
C435 C436 1.398 . S
C435 C441 1.491 . S
C436 H427 0.950 . S
C436 C435 1.398 . S
C436 C437 1.391 . S
C437 H425 0.950 1_556 S
C437 C433 1.393 . S
C437 C436 1.391 . S
C438 H428 0.950 . S
C438 C439 1.386 . S
C438 C440 1.391 . S
C439 C438 1.386 . S
C439 C443 1.393 1_655 S
C440 H429 0.950 . S
C440 C438 1.391 . S
C440 C441 1.400 . S
C441 C435 1.491 . S
C441 C440 1.400 . S
C441 C442 1.398 1_655 S
C442 H430 0.950 . S
C442 C441 1.398 1_455 S
C442 C443 1.391 . S
C443 H431 0.950 . S
C443 C439 1.393 1_455 S
C443 C442 1.391 . S
H444 C452 0.950 . S
H445 C457 0.950 . S
H446 C454 0.950 . S
H447 C456 0.950 . S
H448 C458 0.950 . S
H449 C460 0.950 . S
H450 C462 0.949 1_554 S
H451 C463 0.951 . S
C452 H444 0.950 . S
C452 C453 1.386 1_554 S
C452 C454 1.391 . S
C453 C452 1.386 1_556 S
C453 C457 1.393 . S
C454 H446 0.950 . S
C454 C452 1.391 . S
C454 C455 1.400 1_554 S
C455 C454 1.400 1_556 S
C455 C456 1.398 . S
C455 C461 1.491 . S
C456 H447 0.950 . S
C456 C455 1.398 . S
C456 C457 1.391 . S
C457 H445 0.950 . S
C457 C453 1.393 . S
C457 C456 1.391 . S
C458 H448 0.950 . S
C458 C459 1.386 . S
C458 C460 1.391 . S
C459 C458 1.386 . S
C459 C463 1.393 . S
C460 H449 0.950 . S
C460 C458 1.391 . S
C460 C461 1.400 . S
C461 C455 1.491 . S
C461 C460 1.400 . S
C461 C462 1.398 . S
C462 H450 0.949 1_556 S
C462 C461 1.398 . S
C462 C463 1.391 . S
C463 H451 0.951 . S
C463 C459 1.393 . S
C463 C462 1.391 . S
H464 C472 0.950 . S
H465 C477 0.950 . S
H466 C474 0.950 . S
H467 C476 0.950 . S
H468 C478 0.950 . S
H469 C480 0.950 . S
H470 C482 0.950 . S
H471 C483 0.950 . S
C472 H464 0.950 . S
C472 C473 1.386 1_554 S
C472 C474 1.391 1_554 S
C473 C472 1.386 1_556 S
C473 C477 1.393 . S
C474 H466 0.950 . S
C474 C472 1.391 1_556 S
C474 C475 1.400 . S
C475 C474 1.400 . S
C475 C476 1.398 . S
C475 C481 1.491 . S
C476 H467 0.950 . S
C476 C475 1.398 . S
C476 C477 1.391 . S
C477 H465 0.950 . S
C477 C473 1.393 . S
C477 C476 1.391 . S
C478 H468 0.950 . S
C478 C479 1.386 . S
C478 C480 1.391 . S
C479 C478 1.386 . S
C479 C483 1.393 . S
C480 H469 0.950 . S
C480 C478 1.391 . S
C480 C481 1.400 . S
C481 C475 1.491 . S
C481 C480 1.400 . S
C481 C482 1.398 . S
C482 H470 0.950 . S
C482 C481 1.398 . S
C482 C483 1.391 . S
C483 H471 0.950 . S
C483 C479 1.393 . S
C483 C482 1.391 . S
H484 C492 0.950 . S
H485 C497 0.950 . S
H486 C494 0.950 . S
H487 C496 0.950 1_554 S
H488 C498 0.950 . S
H489 C500 0.950 . S
H490 C502 0.950 . S
H491 C503 0.950 . S
C492 H484 0.950 . S
C492 C493 1.386 . S
C492 C494 1.391 . S
C493 C492 1.386 . S
C493 C497 1.393 1_556 S
C494 H486 0.950 . S
C494 C492 1.391 . S
C494 C495 1.400 . S
C495 C494 1.400 . S
C495 C496 1.398 . S
C495 C501 1.491 . S
C496 H487 0.950 1_556 S
C496 C495 1.398 . S
C496 C497 1.391 1_556 S
C497 H485 0.950 . S
C497 C493 1.393 1_554 S
C497 C496 1.391 1_554 S
C498 H488 0.950 . S
C498 C499 1.386 . S
C498 C500 1.391 . S
C499 C498 1.386 . S
C499 C503 1.393 . S
C500 H489 0.950 . S
C500 C498 1.391 . S
C500 C501 1.400 . S
C501 C495 1.491 . S
C501 C500 1.400 . S
C501 C502 1.398 . S
C502 H490 0.950 . S
C502 C501 1.398 . S
C502 C503 1.391 . S
C503 H491 0.950 . S
C503 C499 1.393 . S
C503 C502 1.391 . S
H504 C512 0.950 . S
H505 C517 0.950 . S
H506 C514 0.950 . S
H507 C516 0.950 . S
H508 C518 0.950 . S
H509 C520 0.950 . S
H510 C522 0.950 . S
H511 C523 0.950 . S
C512 H504 0.950 . S
C512 C513 1.386 . S
C512 C514 1.391 . S
C513 C512 1.386 . S
C513 C517 1.393 . S
C514 H506 0.950 . S
C514 C512 1.391 . S
C514 C515 1.400 . S
C515 C514 1.400 . S
C515 C516 1.398 . S
C515 C521 1.491 . S
C516 H507 0.950 . S
C516 C515 1.398 . S
C516 C517 1.391 . S
C517 H505 0.950 . S
C517 C513 1.393 . S
C517 C516 1.391 . S
C518 H508 0.950 . S
C518 C519 1.386 . S
C518 C520 1.391 . S
C519 C518 1.386 . S
C519 C523 1.393 1_556 S
C520 H509 0.950 . S
C520 C518 1.391 . S
C520 C521 1.400 1_556 S
C521 C515 1.491 . S
C521 C520 1.400 1_554 S
C521 C522 1.398 . S
C522 H510 0.950 . S
C522 C521 1.398 . S
C522 C523 1.391 . S
C523 H511 0.950 . S
C523 C519 1.393 1_554 S
C523 C522 1.391 . S
H524 C532 0.950 . S
H525 C537 0.950 . S
H526 C534 0.950 . S
H527 C536 0.950 . S
H528 C538 0.950 1_565 S
H529 C540 0.950 . S
H530 C542 0.950 . S
H531 C543 0.950 . S
C532 H524 0.950 . S
C532 C533 1.386 . S
C532 C534 1.391 . S
C533 C532 1.386 . S
C533 C537 1.393 . S
C534 H526 0.950 . S
C534 C532 1.391 . S
C534 C535 1.400 . S
C535 C534 1.400 . S
C535 C536 1.398 . S
C535 C541 1.491 . S
C536 H527 0.950 . S
C536 C535 1.398 . S
C536 C537 1.391 . S
C537 H525 0.950 . S
C537 C533 1.393 . S
C537 C536 1.391 . S
C538 H528 0.950 1_545 S
C538 C539 1.386 . S
C538 C540 1.391 1_556 S
C539 C538 1.386 . S
C539 C543 1.393 . S
C540 H529 0.950 . S
C540 C538 1.391 1_554 S
C540 C541 1.400 . S
C541 C535 1.491 . S
C541 C540 1.400 . S
C541 C542 1.398 1_554 S
C542 H530 0.950 . S
C542 C541 1.398 1_556 S
C542 C543 1.391 . S
C543 H531 0.950 . S
C543 C539 1.393 . S
C543 C542 1.391 . S
H544 C552 0.950 . S
H545 C557 0.950 . S
H546 C554 0.950 . S
H547 C556 0.950 . S
H548 C558 0.950 . S
H549 C560 0.950 . S
H550 C562 0.950 . S
H551 C563 0.950 . S
C552 H544 0.950 . S
C552 C553 1.386 . S
C552 C554 1.391 . S
C553 C552 1.386 . S
C553 C557 1.393 . S
C554 H546 0.950 . S
C554 C552 1.391 . S
C554 C555 1.400 . S
C555 C554 1.400 . S
C555 C556 1.398 . S
C555 C561 1.491 . S
C556 H547 0.950 . S
C556 C555 1.398 . S
C556 C557 1.391 . S
C557 H545 0.950 . S
C557 C553 1.393 . S
C557 C556 1.391 . S
C558 H548 0.950 . S
C558 C559 1.386 . S
C558 C560 1.391 1_556 S
C559 C558 1.386 . S
C559 C563 1.393 . S
C560 H549 0.950 . S
C560 C558 1.391 1_554 S
C560 C561 1.400 . S
C561 C555 1.491 . S
C561 C560 1.400 . S
C561 C562 1.398 1_554 S
C562 H550 0.950 . S
C562 C561 1.398 1_556 S
C562 C563 1.391 . S
C563 H551 0.950 . S
C563 C559 1.393 . S
C563 C562 1.391 . S
H564 C572 0.950 . S
H565 C577 0.950 . S
H566 C574 0.950 1_556 S
H567 C576 0.950 . S
H568 C578 0.950 . S
H569 C580 0.950 . S
H570 C582 0.950 . S
H571 C583 0.950 . S
C572 H564 0.950 . S
C572 C573 1.386 . S
C572 C574 1.391 . S
C573 C572 1.386 . S
C573 C577 1.393 . S
C574 H566 0.950 1_554 S
C574 C572 1.391 . S
C574 C575 1.400 . S
C575 C574 1.400 . S
C575 C576 1.398 . S
C575 C581 1.491 . S
C576 H567 0.950 . S
C576 C575 1.398 . S
C576 C577 1.391 . S
C577 H565 0.950 . S
C577 C573 1.393 . S
C577 C576 1.391 . S
C578 H568 0.950 . S
C578 C579 1.386 1_554 S
C578 C580 1.391 . S
C579 C578 1.386 1_556 S
C579 C583 1.393 . S
C580 H569 0.950 . S
C580 C578 1.391 . S
C580 C581 1.400 . S
C581 C575 1.491 . S
C581 C580 1.400 . S
C581 C582 1.398 1_554 S
C582 H570 0.950 . S
C582 C581 1.398 1_556 S
C582 C583 1.391 . S
C583 H571 0.950 . S
C583 C579 1.393 . S
C583 C582 1.391 . S
H584 C592 0.950 . S
H585 C597 0.950 . S
H586 C594 0.950 . S
H587 C596 0.950 . S
H588 C598 0.950 . S
H589 C600 0.950 . S
H590 C602 0.950 . S
H591 C603 0.950 . S
C592 H584 0.950 . S
C592 C593 1.386 . S
C592 C594 1.391 . S
C593 C592 1.386 . S
C593 C597 1.393 . S
C594 H586 0.950 . S
C594 C592 1.391 . S
C594 C595 1.400 . S
C595 C594 1.400 . S
C595 C596 1.398 . S
C595 C601 1.491 . S
C596 H587 0.950 . S
C596 C595 1.398 . S
C596 C597 1.391 . S
C597 H585 0.950 . S
C597 C593 1.393 . S
C597 C596 1.391 . S
C598 H588 0.950 . S
C598 C599 1.386 . S
C598 C600 1.391 . S
C599 C598 1.386 . S
C599 C603 1.393 . S
C600 H589 0.950 . S
C600 C598 1.391 . S
C600 C601 1.400 . S
C601 C595 1.491 . S
C601 C600 1.400 . S
C601 C602 1.398 . S
C602 H590 0.950 . S
C602 C601 1.398 . S
C602 C603 1.391 . S
C603 H591 0.950 . S
C603 C599 1.393 . S
C603 C602 1.391 . S
H604 C612 0.950 . S
H605 C617 0.950 . S
H606 C614 0.950 . S
H607 C616 0.950 1_545 S
H608 C618 0.950 . S
H609 C620 0.950 . S
H610 C622 0.950 . S
H611 C623 0.950 . S
C612 H604 0.950 . S
C612 C613 1.386 . S
C612 C614 1.391 . S
C613 C612 1.386 . S
C613 C617 1.393 . S
C614 H606 0.950 . S
C614 C612 1.391 . S
C614 C615 1.400 . S
C615 C614 1.400 . S
C615 C616 1.398 . S
C615 C621 1.491 . S
C616 H607 0.950 1_565 S
C616 C615 1.398 . S
C616 C617 1.391 . S
C617 H605 0.950 . S
C617 C613 1.393 . S
C617 C616 1.391 . S
C618 H608 0.950 . S
C618 C619 1.386 1_545 S
C618 C620 1.391 . S
C619 C618 1.386 1_565 S
C619 C623 1.393 . S
C620 H609 0.950 . S
C620 C618 1.391 . S
C620 C621 1.400 1_545 S
C621 C615 1.491 . S
C621 C620 1.400 1_565 S
C621 C622 1.398 . S
C622 H610 0.950 . S
C622 C621 1.398 . S
C622 C623 1.391 . S
C623 H611 0.950 . S
C623 C619 1.393 . S
C623 C622 1.391 . S
H624 C632 0.950 . S
H625 C637 0.950 . S
H626 C634 0.950 . S
H627 C636 0.950 . S
H628 C638 0.950 . S
H629 C640 0.950 . S
H630 C642 0.950 . S
H631 C643 0.950 . S
C632 H624 0.950 . S
C632 C633 1.386 . S
C632 C634 1.391 . S
C633 C632 1.386 . S
C633 C637 1.393 . S
C634 H626 0.950 . S
C634 C632 1.391 . S
C634 C635 1.400 . S
C635 C634 1.400 . S
C635 C636 1.398 . S
C635 C641 1.491 . S
C636 H627 0.950 . S
C636 C635 1.398 . S
C636 C637 1.391 . S
C637 H625 0.950 . S
C637 C633 1.393 . S
C637 C636 1.391 . S
C638 H628 0.950 . S
C638 C639 1.386 . S
C638 C640 1.391 . S
C639 C638 1.386 . S
C639 C643 1.393 . S
C640 H629 0.950 . S
C640 C638 1.391 . S
C640 C641 1.400 . S
C641 C635 1.491 . S
C641 C640 1.400 . S
C641 C642 1.398 . S
C642 H630 0.950 . S
C642 C641 1.398 . S
C642 C643 1.391 . S
C643 H631 0.950 . S
C643 C639 1.393 . S
C643 C642 1.391 . S
H644 C652 0.950 . S
H645 C657 0.950 . S
H646 C654 0.950 . S
H647 C656 0.950 . S
H648 C658 0.950 . S
H649 C660 0.950 . S
H650 C662 0.950 . S
H651 C663 0.950 . S
C652 H644 0.950 . S
C652 C653 1.386 . S
C652 C654 1.391 . S
C653 C652 1.386 . S
C653 C657 1.393 . S
C654 H646 0.950 . S
C654 C652 1.391 . S
C654 C655 1.400 . S
C655 C654 1.400 . S
C655 C656 1.398 . S
C655 C661 1.491 . S
C656 H647 0.950 . S
C656 C655 1.398 . S
C656 C657 1.391 . S
C657 H645 0.950 . S
C657 C653 1.393 . S
C657 C656 1.391 . S
C658 H648 0.950 . S
C658 C659 1.386 . S
C658 C660 1.391 . S
C659 C658 1.386 . S
C659 C663 1.393 . S
C660 H649 0.950 . S
C660 C658 1.391 . S
C660 C661 1.400 . S
C661 C655 1.491 . S
C661 C660 1.400 . S
C661 C662 1.398 . S
C662 H650 0.950 . S
C662 C661 1.398 . S
C662 C663 1.391 . S
C663 H651 0.950 . S
C663 C659 1.393 . S
C663 C662 1.391 . S
C193 N80 1.594 . S
C199 C105 1.596 . S
C219 C140 1.572 . S
C213 N93 1.539 . S
C239 C145 1.350 . S
C233 N54 1.339 . S
C259 C165 1.468 . S
C253 N67 1.446 . S
C279 C113 1.599 1_565 S
C273 N28 1.590 1_556 S
C293 N41 1.554 . S
C299 C130 1.573 . S
C313 N2 1.348 . S
C319 C153 1.346 . S
C333 N15 1.458 . S
C339 C173 1.468 1_655 S
C359 C123 1.209 . S
C353 N70 1.218 . S
C379 C132 0.961 . S
C373 N83 0.970 . S
C399 C163 1.243 . S
C393 N96 1.264 . S
C413 N57 0.979 . S
C419 C183 0.971 . S
C433 N18 1.233 . S
C439 C112 1.181 1_655 S
C459 C143 0.975 1_565 S
C453 N31 0.965 1_556 S
C479 C152 1.254 . S
C473 N44 1.251 1_556 S
C493 N5 0.988 1_556 S
C499 C172 0.956 . S
C513 N66 1.463 . S
C519 C110 1.460 . S
C533 N79 1.475 . S
C539 C133 1.496 . S
C559 C150 1.545 . S
C553 N92 1.531 . S
C579 C170 1.565 . S
C573 N53 1.582 . S
C593 N14 1.483 . S
C599 C120 1.454 . S
C619 C125 1.493 1_565 S
C613 N27 1.490 . S
C639 C160 1.531 . S
C633 N40 1.556 . S
C653 N1 1.580 . S
C659 C180 1.572 . S
