# Generated by pormake.
# Topology csq, (4,8)-cn, num edge types: 1
# Building blocks:
#     Node 0, Type 0, BuildingBlock: GIZVER_clean_linker_0, # of connection points: 4
#     Node 1, Type 0, BuildingBlock: GIZVER_clean_linker_0, # of connection points: 4
#     Node 2, Type 0, BuildingBlock: GIZVER_clean_linker_0, # of connection points: 4
#     Node 3, Type 0, BuildingBlock: GIZVER_clean_linker_0, # of connection points: 4
#     Node 4, Type 0, BuildingBlock: GIZVER_clean_linker_0, # of connection points: 4
#     Node 5, Type 0, BuildingBlock: GIZVER_clean_linker_0, # of connection points: 4
#     Node 6, Type 1, BuildingBlock: TAGTUT_clean_sbu_1, # of connection points: 8
#     Node 7, Type 1, BuildingBlock: TAGTUT_clean_sbu_1, # of connection points: 8
#     Node 8, Type 1, BuildingBlock: TAGTUT_clean_sbu_1, # of connection points: 8
#     Edge 9, Type (0, 1), BuildingBlock: OJICUG_clean_linker_0, # of connection points: 2
#     Edge 10, Type (0, 1), BuildingBlock: OJICUG_clean_linker_0, # of connection points: 2
#     Edge 11, Type (0, 1), BuildingBlock: OJICUG_clean_linker_0, # of connection points: 2
#     Edge 12, Type (0, 1), BuildingBlock: OJICUG_clean_linker_0, # of connection points: 2
#     Edge 13, Type (0, 1), BuildingBlock: OJICUG_clean_linker_0, # of connection points: 2
#     Edge 14, Type (0, 1), BuildingBlock: OJICUG_clean_linker_0, # of connection points: 2
#     Edge 15, Type (0, 1), BuildingBlock: OJICUG_clean_linker_0, # of connection points: 2
#     Edge 16, Type (0, 1), BuildingBlock: OJICUG_clean_linker_0, # of connection points: 2
#     Edge 17, Type (0, 1), BuildingBlock: OJICUG_clean_linker_0, # of connection points: 2
#     Edge 18, Type (0, 1), BuildingBlock: OJICUG_clean_linker_0, # of connection points: 2
#     Edge 19, Type (0, 1), BuildingBlock: OJICUG_clean_linker_0, # of connection points: 2
#     Edge 20, Type (0, 1), BuildingBlock: OJICUG_clean_linker_0, # of connection points: 2
#     Edge 21, Type (0, 1), BuildingBlock: OJICUG_clean_linker_0, # of connection points: 2
#     Edge 22, Type (0, 1), BuildingBlock: OJICUG_clean_linker_0, # of connection points: 2
#     Edge 23, Type (0, 1), BuildingBlock: OJICUG_clean_linker_0, # of connection points: 2
#     Edge 24, Type (0, 1), BuildingBlock: OJICUG_clean_linker_0, # of connection points: 2
#     Edge 25, Type (0, 1), BuildingBlock: OJICUG_clean_linker_0, # of connection points: 2
#     Edge 26, Type (0, 1), BuildingBlock: OJICUG_clean_linker_0, # of connection points: 2
#     Edge 27, Type (0, 1), BuildingBlock: OJICUG_clean_linker_0, # of connection points: 2
#     Edge 28, Type (0, 1), BuildingBlock: OJICUG_clean_linker_0, # of connection points: 2
#     Edge 29, Type (0, 1), BuildingBlock: OJICUG_clean_linker_0, # of connection points: 2
#     Edge 30, Type (0, 1), BuildingBlock: OJICUG_clean_linker_0, # of connection points: 2
#     Edge 31, Type (0, 1), BuildingBlock: OJICUG_clean_linker_0, # of connection points: 2
#     Edge 32, Type (0, 1), BuildingBlock: OJICUG_clean_linker_0, # of connection points: 2
# Relax obj value: 0.048
# Max RMSD: 0.131
# Mean RMSD: 0.096
data_MOF--net-csq--node1-TAGTUT_clean_sbu_1--node2-GIZVER_clean_linker_0--edge1-OJICUG_clean_linker_0
_symmetry_space_group_name_H-M    P1
_symmetry_Int_Tables_number       1
_symmetry_cell_setting            triclinic
loop_
_symmetry_equiv_pos_as_xyz
'x, y, z'
_cell_length_a     40.876523
_cell_length_b     40.599149
_cell_length_c     14.390737
_cell_angle_alpha  94.340304
_cell_angle_beta   92.046901
_cell_angle_gamma 119.77023
loop_
_atom_site_label
_atom_site_type_symbol
_atom_site_fract_x
_atom_site_fract_y
_atom_site_fract_z
_atom_type_partial_charge
H0 H 0.25057 0.53797 0.04179 0.0
H1 H 0.24606 0.54699 0.34075 0.0
H2 H 0.14339 0.48419 0.15836 0.0
H3 H 0.30473 0.5888 0.14736 0.0
H4 H 0.30549 0.58613 0.27087 0.0
H5 H 0.31975 0.54786 0.0419 0.0
H6 H 0.36334 0.48376 0.16992 0.0
H7 H 0.31296 0.53628 0.33689 0.0
C8 C 0.23442 0.53054 0.10261 0.0
C9 C 0.19507 0.50864 0.09044 0.0
C10 C 0.25306 0.544 0.19239 0.0
C11 C 0.23174 0.53575 0.27129 0.0
C12 C 0.1919 0.51353 0.26011 0.0
C13 C 0.17402 0.49967 0.16893 0.0
C14 C 0.29553 0.56859 0.20173 0.0
C15 C 0.31353 0.54401 0.19041 0.0
C16 C 0.32419 0.53601 0.10289 0.0
C17 C 0.34138 0.51338 0.09484 0.0
C18 C 0.34803 0.49921 0.17502 0.0
C19 C 0.33847 0.50792 0.26291 0.0
C20 C 0.32038 0.52946 0.26936 0.0
H21 H 0.82608 0.25458 -0.01817 0.0
H22 H 0.83062 0.26434 0.28265 0.0
H23 H 0.87837 0.36471 0.14005 0.0
H24 H 0.80676 0.19878 0.06208 0.0
H25 H 0.81594 0.20384 0.18616 0.0
H26 H 0.7449 0.18314 -0.00758 0.0
H27 H 0.65406 0.14771 0.17237 0.0
H28 H 0.76895 0.20307 0.29162 0.0
C29 C 0.83204 0.27188 0.04812 0.0
C30 C 0.85239 0.31181 0.05139 0.0
C31 C 0.82219 0.25444 0.13149 0.0
C32 C 0.83454 0.27741 0.21797 0.0
C33 C 0.85464 0.31733 0.22063 0.0
C34 C 0.8607 0.33394 0.1372 0.0
C35 C 0.80293 0.21165 0.1289 0.0
C36 C 0.76138 0.19515 0.14066 0.0
C37 C 0.73503 0.18131 0.06177 0.0
C38 C 0.69608 0.16432 0.07219 0.0
C39 C 0.68405 0.16246 0.1631 0.0
C40 C 0.71005 0.17653 0.24269 0.0
C41 C 0.74872 0.19285 0.23078 0.0
H42 H 0.56464 0.81693 0.87788 0.0
H43 H 0.58139 0.84692 0.17466 0.0
H44 H 0.50936 0.87238 0.00926 0.0
H45 H 0.61321 0.8126 -0.0195 0.0
H46 H 0.61494 0.81982 0.10466 0.0
H47 H 0.57076 0.75172 0.89475 0.0
H48 H 0.51863 0.65432 0.04688 0.0
H49 H 0.57417 0.76661 0.19536 0.0
C50 C 0.55665 0.82679 0.94045 0.0
C51 C 0.53526 0.84523 0.93271 0.0
C52 C 0.57045 0.82426 0.02965 0.0
C53 C 0.56623 0.84396 0.10842 0.0
C54 C 0.54621 0.86343 0.09902 0.0
C55 C 0.52589 0.85827 0.01429 0.0
C56 C 0.59522 0.80671 0.04024 0.0
C57 C 0.57172 0.76417 0.04382 0.0
C58 C 0.5615 0.73988 0.96024 0.0
C59 C 0.54282 0.70033 0.9622 0.0
C60 C 0.53139 0.68498 0.04624 0.0
C61 C 0.54364 0.70821 0.13109 0.0
C62 C 0.56349 0.7482 0.13001 0.0
H63 H 0.76036 0.56638 0.88907 0.0
H64 H 0.76555 0.57848 0.1901 0.0
H65 H 0.65799 0.51602 0.02727 0.0
H66 H 0.81798 0.61501 -0.02013 0.0
H67 H 0.82083 0.62054 0.10489 0.0
H68 H 0.83678 0.57288 0.89807 0.0
H69 H 0.88005 0.51671 0.06292 0.0
H70 H 0.82526 0.5726 0.19446 0.0
C71 C 0.7463 0.55997 0.95323 0.0
C72 C 0.7069 0.53842 0.9488 0.0
C73 C 0.76761 0.57427 0.03997 0.0
C74 C 0.74901 0.56689 0.12326 0.0
C75 C 0.70919 0.54522 0.12006 0.0
C76 C 0.68864 0.53091 0.03192 0.0
C77 C 0.81 0.59898 0.0424 0.0
C78 C 0.82853 0.5749 0.04583 0.0
C79 C 0.84082 0.56405 0.96468 0.0
C80 C 0.85882 0.54227 0.97 0.0
C81 C 0.86435 0.53164 0.05746 0.0
C82 C 0.85271 0.54275 0.139 0.0
C83 C 0.83429 0.56383 0.13207 0.0
H84 H 0.29548 0.76864 0.96445 0.0
H85 H 0.31414 0.79112 0.2647 0.0
H86 H 0.36174 0.88381 0.09225 0.0
H87 H 0.28554 0.7173 0.06684 0.0
H88 H 0.28633 0.7261 0.19093 0.0
H89 H 0.23119 0.70641 0.96177 0.0
H90 H 0.13066 0.688 0.08658 0.0
H91 H 0.23211 0.72371 0.26118 0.0
C92 C 0.30731 0.7887 0.02705 0.0
C93 C 0.32801 0.8278 0.01892 0.0
C94 C 0.30191 0.77536 0.11557 0.0
C95 C 0.31822 0.80156 0.19655 0.0
C96 C 0.3399 0.84102 0.18957 0.0
C97 C 0.34413 0.85373 0.09993 0.0
C98 C 0.27903 0.73313 0.12277 0.0
C99 C 0.23749 0.72035 0.1122 0.0
C100 C 0.21739 0.70842 0.02309 0.0
C101 C 0.17883 0.69713 0.01421 0.0
C102 C 0.16103 0.69919 0.09334 0.0
C103 C 0.17934 0.70654 0.18226 0.0
C104 C 0.21799 0.7185 0.19199 0.0
H105 H 0.51656 0.28537 0.03942 0.0
H106 H 0.49874 0.28927 0.3323 0.0
H107 H 0.44696 0.32934 0.14181 0.0
H108 H 0.54801 0.26475 0.14768 0.0
H109 H 0.55051 0.27925 0.26961 0.0
H110 H 0.49193 0.20238 0.07585 0.0
H111 H 0.44203 0.11509 0.25898 0.0
H112 H 0.52052 0.23026 0.3734 0.0
C113 C 0.50193 0.28999 0.09581 0.0
C114 C 0.47987 0.30711 0.07996 0.0
C115 C 0.50658 0.28085 0.18645 0.0
C116 C 0.49166 0.29198 0.26101 0.0
C117 C 0.47042 0.3097 0.24441 0.0
C118 C 0.46191 0.3139 0.15326 0.0
C119 C 0.53061 0.26314 0.20673 0.0
C120 C 0.50582 0.22192 0.22346 0.0
C121 C 0.4869 0.19433 0.14632 0.0
C122 C 0.46415 0.1559 0.15999 0.0
C123 C 0.45827 0.1453 0.25003 0.0
C124 C 0.47982 0.17133 0.32674 0.0
C125 C 0.50333 0.21002 0.31415 0.0
C126 C 0.97409 0.4132 0.85756 0.0
C127 C 0.09161 0.48113 0.78967 0.0
C128 C 0.0586 0.59127 0.7459 0.0
Mg129 Mg 0.01556 0.43343 0.67946 0.0
O130 O 1.00295 0.47187 0.70328 0.0
Mg131 Mg 0.02467 0.5063 0.82123 0.0
Mg132 Mg 0.01629 0.50968 0.61389 0.0
O133 O 0.02944 0.54734 0.52451 0.0
Mg134 Mg 0.0157 0.58489 0.55052 0.0
Mg135 Mg 0.00688 0.51219 0.40713 0.0
C136 C 0.97442 0.42769 0.48295 0.0
C137 C 0.07747 0.50356 0.48165 0.0
O138 O 0.98861 0.449 0.88553 0.0
O139 O 0.98184 0.40081 0.78212 0.0
O140 O 0.07675 0.49944 0.82724 0.0
O141 O 0.07397 0.45415 0.72396 0.0
O142 O 0.98917 0.41417 0.53798 0.0
O143 O 0.97924 0.46149 0.49953 0.0
C144 C 0.95515 0.51625 0.74552 0.0
O145 O 0.96479 0.5161 0.66154 0.0
O146 O 0.97361 0.51305 0.81393 0.0
O147 O 0.04171 0.56935 0.34226 0.0
O148 O 0.0477 0.61742 0.44502 0.0
O149 O 0.95473 0.51876 0.40136 0.0
C150 C 0.05536 0.60511 0.36925 0.0
O151 O 0.95647 0.56242 0.50787 0.0
O152 O 0.044 0.60516 0.69143 0.0
C153 C 0.93928 0.53632 0.43977 0.0
O154 O 0.053 0.55723 0.72883 0.0
O155 O 0.06844 0.50447 0.56609 0.0
O156 O 0.05814 0.50551 0.41315 0.0
C157 C 0.44381 0.02929 0.91641 0.0
C158 C 0.40142 0.92182 0.74954 0.0
C159 C 0.54639 0.96196 0.72077 0.0
Mg160 Mg 0.43149 1.00371 0.70562 0.0
O161 O 0.48183 0.01643 0.73723 0.0
Mg162 Mg 0.49156 0.98766 0.82954 0.0
Mg163 Mg 0.50985 0.01081 0.63565 0.0
O164 O 0.53764 0.00536 0.53456 0.0
Mg165 Mg 0.58785 0.01853 0.56925 0.0
Mg166 Mg 0.52855 0.03458 0.44189 0.0
C167 C 0.47407 0.06051 0.55242 0.0
C168 C 0.44728 0.95954 0.46025 0.0
O169 O 0.46584 0.0154 0.92766 0.0
O170 O 0.42683 0.02678 0.83765 0.0
O171 O 0.43348 0.93512 0.79525 0.0
O172 O 0.39381 0.94253 0.70058 0.0
O173 O 0.44415 0.04195 0.59564 0.0
O174 O 0.50221 0.05465 0.55989 0.0
C175 C 0.57178 0.06342 0.81032 0.0
O176 O 0.56471 0.05884 0.72132 0.0
O177 O 0.54867 0.04037 0.86298 0.0
O178 O 0.55327 0.00517 0.34472 0.0
O179 O 0.59097 0.99355 0.43955 0.0
O180 O 0.58788 0.08631 0.47351 0.0
C181 C 0.57412 0.99018 0.35994 0.0
O182 O 0.6267 0.07915 0.57133 0.0
O183 O 0.57666 0.98115 0.6796 0.0
C184 C 0.62009 0.09948 0.5186 0.0
O185 O 0.51809 0.96751 0.71194 0.0
O186 O 0.45515 0.96234 0.54865 0.0
O187 O 0.47023 0.98353 0.40895 0.0
C188 C 0.55529 0.60535 0.35747 0.0
C189 C 0.6115 0.53961 0.4042 0.0
C190 C 0.46826 0.42796 0.47818 0.0
Mg191 Mg 0.58587 0.58521 0.52999 0.0
O192 O 0.53494 0.54605 0.5141 0.0
Mg193 Mg 0.51701 0.51172 0.39596 0.0
Mg194 Mg 0.51543 0.50854 0.60593 0.0
O195 O 0.49529 0.47121 0.69889 0.0
Mg196 Mg 0.44335 0.4348 0.68559 0.0
Mg197 Mg 0.51474 0.50624 0.8166 0.0
C198 C 0.56034 0.59041 0.73387 0.0
C199 C 0.58697 0.51181 0.71827 0.0
O200 O 0.53334 0.56937 0.3309 0.0
O201 O 0.57837 0.61768 0.43082 0.0
O202 O 0.57665 0.51971 0.37279 0.0
O203 O 0.62219 0.56557 0.47283 0.0
O204 O 0.58552 0.60443 0.67498 0.0
O205 O 0.53229 0.55611 0.72102 0.0
C206 C 0.44223 0.50068 0.49083 0.0
O207 O 0.45687 0.50299 0.57288 0.0
O208 O 0.4599 0.50351 0.41803 0.0
O209 O 0.49633 0.44914 0.88415 0.0
O210 O 0.45034 0.40164 0.78453 0.0
O211 O 0.4581 0.50353 0.84203 0.0
C212 C 0.47365 0.41336 0.85754 0.0
O213 O 0.41002 0.45855 0.74646 0.0
O214 O 0.44324 0.41595 0.53833 0.0
C215 C 0.42313 0.48585 0.81268 0.0
O216 O 0.49874 0.46081 0.49058 0.0
O217 O 0.57371 0.51332 0.63784 0.0
O218 O 0.56963 0.50935 0.79146 0.0
C219 C 0.17443 0.53924 0.40349 0.0
C220 C 0.16801 0.50795 0.34039 0.0
H221 H 0.15032 0.56192 0.50177 0.0
C222 C 0.13481 0.47272 0.34449 0.0
H223 H 0.19948 0.56686 0.40168 0.0
C224 C 0.10686 0.46993 0.40219 0.0
C225 C 0.11163 0.50213 0.45804 0.0
H226 H 0.12913 0.44797 0.2976 0.0
H227 H 0.08003 0.44346 0.3965 0.0
C228 C 0.14638 0.53636 0.46155 0.0
C229 C 0.6654 0.17465 0.35973 0.0
C230 C 0.69572 0.16937 0.33685 0.0
H231 H 0.61811 0.15784 0.4417 0.0
C232 C 0.70745 0.15075 0.39696 0.0
H233 H 0.6563 0.18967 0.31591 0.0
C234 C 0.68572 0.13275 0.46991 0.0
C235 C 0.65183 0.13287 0.48288 0.0
H236 H 0.7309 0.14647 0.38154 0.0
H237 H 0.69283 0.1147 0.50744 0.0
C238 C 0.64379 0.15678 0.43258 0.0
C239 C 0.57928 0.69776 0.25772 0.0
C240 C 0.54416 0.68889 0.21417 0.0
H241 H 0.61048 0.67772 0.33519 0.0
C242 C 0.51202 0.65383 0.22717 0.0
H243 H 0.60463 0.72418 0.24787 0.0
C244 C 0.51573 0.62641 0.27223 0.0
C245 C 0.55139 0.63409 0.30863 0.0
H246 H 0.48458 0.6462 0.19412 0.0
H247 H 0.49078 0.59899 0.27729 0.0
C248 C 0.58279 0.67069 0.30523 0.0
C249 C 0.8638 0.5023 0.24476 0.0
C250 C 0.86438 0.53652 0.23199 0.0
H251 H 0.88621 0.47474 0.32515 0.0
C252 C 0.88148 0.56687 0.30407 0.0
H253 H 0.85001 0.47809 0.19161 0.0
C254 C 0.90185 0.5648 0.38138 0.0
C255 C 0.90567 0.53249 0.38712 0.0
H256 H 0.88234 0.59363 0.29658 0.0
H257 H 0.91808 0.5901 0.43043 0.0
C258 C 0.88419 0.50026 0.32182 0.0
C259 C 0.37921 0.86072 0.34499 0.0
C260 C 0.36064 0.86905 0.27377 0.0
H261 H 0.42092 0.88317 0.4629 0.0
C262 C 0.36569 0.90604 0.2782 0.0
H263 H 0.37622 0.83266 0.34384 0.0
C264 C 0.39153 0.93484 0.34555 0.0
C265 C 0.41233 0.92723 0.41165 0.0
H266 H 0.35117 0.91335 0.22638 0.0
H267 H 0.39699 0.96371 0.34245 0.0
C268 C 0.40475 0.88959 0.41363 0.0
C269 C 0.50273 0.36895 0.3499 0.0
C270 C 0.46868 0.33588 0.31711 0.0
H271 H 0.52922 0.425 0.42177 0.0
C272 C 0.43415 0.33394 0.33304 0.0
H273 H 0.52968 0.37155 0.335 0.0
C274 C 0.43378 0.36475 0.38207 0.0
C275 C 0.46796 0.39821 0.41319 0.0
H276 H 0.40766 0.30913 0.305 0.0
H277 H 0.40688 0.36252 0.39555 0.0
C278 C 0.50241 0.39999 0.3966 0.0
C279 C 0.57009 0.89221 0.82304 0.0
C280 C 0.53495 0.86483 0.85018 0.0
H281 H 0.60155 0.94511 0.76525 0.0
C282 C 0.50276 0.86749 0.82527 0.0
H283 H 0.59554 0.89147 0.84264 0.0
C284 C 0.5064 0.89919 0.78423 0.0
C285 C 0.54218 0.92843 0.76526 0.0
H286 H 0.47536 0.847 0.84622 0.0
H287 H 0.4813 0.90119 0.76961 0.0
C288 C 0.57368 0.92368 0.78133 0.0
C289 C 0.68652 0.55688 0.80612 0.0
C290 C 0.68383 0.52797 0.85879 0.0
H291 H 0.6565 0.57359 0.71323 0.0
C292 C 0.6535 0.49066 0.83715 0.0
H293 H 0.7097 0.58592 0.82193 0.0
C294 C 0.62355 0.48356 0.77386 0.0
C295 C 0.62348 0.51377 0.73259 0.0
H296 H 0.65104 0.46794 0.87659 0.0
H297 H 0.59825 0.45566 0.76741 0.0
C298 C 0.6563 0.54979 0.74314 0.0
C299 C 0.14841 0.63718 0.90771 0.0
C300 C 0.15369 0.6738 0.93091 0.0
H301 H 0.11333 0.58172 0.83405 0.0
C302 C 0.12744 0.683 0.89352 0.0
H303 H 0.16763 0.62905 0.93836 0.0
C304 C 0.09585 0.65572 0.83605 0.0
C305 C 0.08977 0.61859 0.81501 0.0
H306 H 0.13041 0.71073 0.91289 0.0
H307 H 0.07599 0.66368 0.80886 0.0
C308 C 0.11668 0.60976 0.85049 0.0
C309 C 0.48861 0.11889 0.07849 0.0
C310 C 0.45844 0.12572 0.0883 0.0
H311 H 0.50683 0.08139 0.0208 0.0
C312 C 0.42213 0.09859 0.04877 0.0
H313 H 0.51654 0.13897 0.11191 0.0
C314 C 0.41646 0.06545 -0.00342 0.0
C315 C 0.44676 0.05859 -0.01281 0.0
H316 H 0.39834 0.10287 0.05921 0.0
H317 H 0.38864 0.04541 0.96276 0.0
C318 C 0.48276 0.08542 0.02934 0.0
C319 C 0.3908 0.53817 -0.0191 0.0
C320 C 0.35707 0.50801 0.00691 0.0
H321 H 0.4381 0.55478 0.89831 0.0
C322 C 0.34247 0.47148 0.95836 0.0
H323 H 0.40297 0.56644 0.01823 0.0
C324 C 0.36217 0.46488 0.88803 0.0
C325 C 0.39743 0.49448 0.86694 0.0
H326 H 0.31678 0.44766 0.97815 0.0
H327 H 0.35128 0.43603 0.85554 0.0
C328 C 0.41093 0.53142 0.91235 0.0
C329 C 0.90214 0.32166 0.94577 0.0
C330 C 0.87546 0.33151 0.97569 0.0
H331 H 0.95537 0.34065 0.88723 0.0
C332 C 0.88004 0.36714 0.9587 0.0
H333 H 0.89959 0.29461 0.95911 0.0
C334 C 0.91296 0.39414 0.92349 0.0
C335 C 0.94108 0.38539 0.90106 0.0
H336 H 0.85982 0.37535 -0.01883 0.0
H337 H 0.91649 0.42195 0.91422 0.0
C338 C 0.93461 0.34837 0.90776 0.0
C339 C 0.90117 0.56213 0.83743 0.0
C340 C 0.87525 0.53307 0.88785 0.0
H341 H 0.947 0.57919 0.74866 0.0
C342 C 0.87022 0.49625 0.87027 0.0
H343 H 0.90588 0.59087 0.85007 0.0
C344 C 0.89336 0.48958 0.81176 0.0
C345 C 0.92194 0.51949 0.76906 0.0
H346 H 0.85035 0.47324 0.90758 0.0
H347 H 0.8913 0.46182 0.80698 0.0
C348 C 0.92452 0.55542 0.77871 0.0
C349 C 0.36107 0.83536 0.87341 0.0
C350 C 0.33635 0.84201 0.92623 0.0
H351 H 0.40097 0.85558 0.76977 0.0
C352 C 0.32526 0.86765 0.89834 0.0
H353 H 0.37001 0.81572 0.89399 0.0
C354 C 0.34191 0.88945 0.82495 0.0
C355 C 0.37082 0.8868 0.78111 0.0
H356 H 0.30612 0.87306 0.93825 0.0
H357 H 0.33596 0.91197 0.81181 0.0
C358 C 0.37841 0.8578 0.80155 0.0
C359 C 0.44994 0.31855 0.94311 0.0
C360 C 0.48291 0.32842 -0.00068 0.0
H361 H 0.42086 0.33789 0.85577 0.0
C362 C 0.51386 0.36569 0.00309 0.0
H363 H 0.4253 0.29038 0.94176 0.0
C364 C 0.51084 0.39341 0.95759 0.0
C365 C 0.47697 0.38418 0.9062 0.0
H366 H 0.53914 0.37428 0.04846 0.0
H367 H 0.53472 0.42224 0.96443 0.0
C368 C 0.44712 0.34608 0.89624 0.0
C369 C 0.18024 0.53031 0.94638 0.0
C370 C 0.1755 0.50005 -0.00368 0.0
H371 H 0.15682 0.54765 0.83775 0.0
C372 C 0.14826 0.46252 0.96212 0.0
H373 H 0.20099 0.55952 0.97207 0.0
C374 C 0.1239 0.45564 0.88324 0.0
C375 C 0.12591 0.48636 0.83984 0.0
H376 H 0.14427 0.43886 -0.00011 0.0
H377 H 0.1009 0.42682 0.86296 0.0
C378 C 0.15528 0.52355 0.86921 0.0
C379 C 0.63326 0.14564 -0.01113 0.0
C380 C 0.66742 0.1451 -0.0099 0.0
H381 H 0.57609 0.12003 0.92921 0.0
C382 C 0.67177 0.12222 0.91843 0.0
H383 H 0.62914 0.16345 0.04157 0.0
C384 C 0.64148 0.09802 0.85226 0.0
C385 C 0.60648 0.0963 0.8571 0.0
H386 H 0.69753 0.12082 0.91748 0.0
H387 H 0.64448 0.0785 0.80242 0.0
C388 C 0.60301 0.12117 0.92382 0.0
C389 C 0.58169 0.68362 0.86383 0.0
C390 C 0.54557 0.67525 0.88784 0.0
H391 H 0.6151 0.66251 0.80033 0.0
C392 C 0.51457 0.63859 0.86237 0.0
H393 H 0.60623 0.71137 0.88535 0.0
C394 C 0.51987 0.61025 0.81751 0.0
C395 C 0.5562 0.61826 0.79582 0.0
H396 H 0.48659 0.6314 0.88181 0.0
H397 H 0.49532 0.5823 0.79825 0.0
C398 C 0.58695 0.65536 0.8181 0.0
C399 C 0.51451 0.14802 0.41936 0.0
C400 C 0.48363 0.15411 0.40996 0.0
H401 H 0.53539 0.11289 0.4688 0.0
C402 C 0.451 0.13139 0.45432 0.0
H403 H 0.53956 0.16442 0.38327 0.0
C404 C 0.44808 0.10118 0.50073 0.0
C405 C 0.47779 0.09303 0.50389 0.0
H406 H 0.42646 0.13484 0.4457 0.0
H407 H 0.42187 0.08338 0.53107 0.0
C408 C 0.51162 0.11771 0.46576 0.0
C409 C 0.35292 0.46554 0.35222 0.0
C410 C 0.35353 0.50028 0.34872 0.0
H411 H 0.38079 0.43776 0.40833 0.0
C412 C 0.37548 0.53054 0.41873 0.0
H413 H 0.33581 0.44162 0.30003 0.0
C414 C 0.40088 0.52811 0.48152 0.0
C415 C 0.40442 0.49546 0.47461 0.0
H416 H 0.37653 0.5577 0.41782 0.0
H417 H 0.42129 0.55355 0.52573 0.0
C418 C 0.37817 0.46312 0.41524 0.0
C419 C 0.88338 0.3782 0.32618 0.0
C420 C 0.87958 0.34211 0.30303 0.0
H421 H 0.91728 0.43429 0.3978 0.0
C422 C 0.90718 0.33457 0.33936 0.0
H423 H 0.86278 0.38488 0.29729 0.0
C424 C 0.93881 0.36303 0.39435 0.0
C425 C 0.94345 0.39962 0.41479 0.0
H426 H 0.9056 0.30746 0.3202 0.0
H427 H 0.95983 0.35637 0.42025 0.0
C428 C 0.91511 0.40677 0.38122 0.0
C429 C 0.55923 0.93034 0.13401 0.0
C430 C 0.5539 0.89615 0.16676 0.0
H431 H 0.56952 0.98711 0.16982 0.0
C432 C 0.55832 0.89471 0.26283 0.0
H433 H 0.55775 0.93315 0.05995 0.0
C434 C 0.567 0.92642 0.32491 0.0
C435 C 0.57075 0.95986 0.29204 0.0
H436 H 0.55452 0.869 0.29011 0.0
H437 H 0.56918 0.92412 0.39915 0.0
C438 C 0.56679 0.96165 0.1963 0.0
C439 C 0.70029 0.57091 0.2772 0.0
C440 C 0.68824 0.54047 0.20613 0.0
H441 H 0.68584 0.59421 0.397 0.0
C442 C 0.65335 0.50706 0.21228 0.0
H443 H 0.7268 0.59717 0.27507 0.0
C444 C 0.62956 0.50559 0.28151 0.0
C445 C 0.64025 0.53724 0.34768 0.0
H446 H 0.64348 0.48257 0.16059 0.0
H447 H 0.60191 0.48032 0.28016 0.0
C448 C 0.67667 0.56922 0.34741 0.0
C449 C 0.12678 0.69656 0.27935 0.0
C450 C 0.15449 0.68738 0.25494 0.0
H451 H 0.07267 0.67694 0.33393 0.0
C452 C 0.1499 0.65184 0.27206 0.0
H453 H 0.1294 0.72346 0.26412 0.0
C454 C 0.11677 0.62468 0.30576 0.0
C455 C 0.08815 0.633 0.32547 0.0
H456 H 0.17044 0.64378 0.25145 0.0
H457 H 0.11353 0.59709 0.31636 0.0
C458 C 0.09399 0.66966 0.31608 0.0
loop_
_geom_bond_atom_site_label_1
_geom_bond_atom_site_label_2
_geom_bond_distance
_geom_bond_site_symmetry_2
_ccdc_geom_bond_type
H0 C8 0.930 . S
H1 C11 0.930 . S
H2 C13 0.930 . S
H3 C14 0.970 . S
H4 C14 0.970 . S
H5 C16 0.930 . S
H6 C18 0.930 . S
H7 C20 0.930 . S
C8 H0 0.930 . S
C8 C9 1.382 . S
C8 C10 1.426 . S
C9 C8 1.382 . S
C9 C13 1.389 . S
C10 C8 1.426 . S
C10 C11 1.375 . S
C10 C14 1.532 . S
C11 H1 0.930 . S
C11 C10 1.375 . S
C11 C12 1.416 . S
C12 C11 1.416 . S
C12 C13 1.371 . S
C13 H2 0.930 . S
C13 C9 1.389 . S
C13 C12 1.371 . S
C14 H3 0.970 . S
C14 H4 0.970 . S
C14 C10 1.532 . S
C14 C15 1.499 . S
C15 C14 1.499 . S
C15 C16 1.370 . S
C15 C20 1.415 . S
C16 H5 0.930 . S
C16 C15 1.370 . S
C16 C17 1.407 . S
C17 C16 1.407 . S
C17 C18 1.365 . S
C18 H6 0.930 . S
C18 C17 1.365 . S
C18 C19 1.393 . S
C19 C18 1.393 . S
C19 C20 1.387 . S
C20 H7 0.930 . S
C20 C15 1.415 . S
C20 C19 1.387 . S
H21 C29 0.930 . S
H22 C32 0.930 . S
H23 C34 0.930 . S
H24 C35 0.970 . S
H25 C35 0.970 . S
H26 C37 0.930 . S
H27 C39 0.930 . S
H28 C41 0.930 . S
C29 H21 0.930 . S
C29 C30 1.382 . S
C29 C31 1.426 . S
C30 C29 1.382 . S
C30 C34 1.389 . S
C31 C29 1.426 . S
C31 C32 1.375 . S
C31 C35 1.532 . S
C32 H22 0.930 . S
C32 C31 1.375 . S
C32 C33 1.416 . S
C33 C32 1.416 . S
C33 C34 1.371 . S
C34 H23 0.930 . S
C34 C30 1.389 . S
C34 C33 1.371 . S
C35 H24 0.970 . S
C35 H25 0.970 . S
C35 C31 1.532 . S
C35 C36 1.499 . S
C36 C35 1.499 . S
C36 C37 1.370 . S
C36 C41 1.415 . S
C37 H26 0.930 . S
C37 C36 1.370 . S
C37 C38 1.407 . S
C38 C37 1.407 . S
C38 C39 1.365 . S
C39 H27 0.930 . S
C39 C38 1.365 . S
C39 C40 1.393 . S
C40 C39 1.393 . S
C40 C41 1.387 . S
C41 H28 0.930 . S
C41 C36 1.415 . S
C41 C40 1.387 . S
H42 C50 0.930 . S
H43 C53 0.930 . S
H44 C55 0.930 . S
H45 C56 0.970 1_556 S
H46 C56 0.970 . S
H47 C58 0.930 . S
H48 C60 0.930 . S
H49 C62 0.930 . S
C50 H42 0.930 . S
C50 C51 1.382 . S
C50 C52 1.426 1_556 S
C51 C50 1.382 . S
C51 C55 1.389 1_556 S
C52 C50 1.426 1_554 S
C52 C53 1.375 . S
C52 C56 1.532 . S
C53 H43 0.930 . S
C53 C52 1.375 . S
C53 C54 1.416 . S
C54 C53 1.416 . S
C54 C55 1.371 . S
C55 H44 0.930 . S
C55 C51 1.389 1_554 S
C55 C54 1.371 . S
C56 H45 0.970 1_554 S
C56 H46 0.970 . S
C56 C52 1.532 . S
C56 C57 1.499 . S
C57 C56 1.499 . S
C57 C58 1.370 1_554 S
C57 C62 1.415 . S
C58 H47 0.930 . S
C58 C57 1.370 1_556 S
C58 C59 1.407 . S
C59 C58 1.407 . S
C59 C60 1.365 1_556 S
C60 H48 0.930 . S
C60 C59 1.365 1_554 S
C60 C61 1.393 . S
C61 C60 1.393 . S
C61 C62 1.387 . S
C62 H49 0.930 . S
C62 C57 1.415 . S
C62 C61 1.387 . S
H63 C71 0.930 . S
H64 C74 0.930 . S
H65 C76 0.930 . S
H66 C77 0.970 . S
H67 C77 0.970 . S
H68 C79 0.933 . S
H69 C81 0.930 . S
H70 C83 0.930 . S
C71 H63 0.930 . S
C71 C72 1.382 . S
C71 C73 1.426 1_556 S
C72 C71 1.382 . S
C72 C76 1.389 1_556 S
C73 C71 1.426 1_554 S
C73 C74 1.375 . S
C73 C77 1.532 . S
C74 H64 0.930 . S
C74 C73 1.375 . S
C74 C75 1.416 . S
C75 C74 1.416 . S
C75 C76 1.371 . S
C76 H65 0.930 . S
C76 C72 1.389 1_554 S
C76 C75 1.371 . S
C77 H66 0.970 . S
C77 H67 0.970 . S
C77 C73 1.532 . S
C77 C78 1.499 . S
C78 C77 1.499 . S
C78 C79 1.368 1_554 S
C78 C83 1.415 . S
C79 H68 0.933 . S
C79 C78 1.368 1_556 S
C79 C80 1.407 . S
C80 C79 1.407 . S
C80 C81 1.365 1_556 S
C81 H69 0.930 . S
C81 C80 1.365 1_554 S
C81 C82 1.393 . S
C82 C81 1.393 . S
C82 C83 1.387 . S
C83 H70 0.930 . S
C83 C78 1.415 . S
C83 C82 1.387 . S
H84 C92 0.930 1_556 S
H85 C95 0.930 . S
H86 C97 0.930 . S
H87 C98 0.970 . S
H88 C98 0.970 . S
H89 C100 0.930 1_556 S
H90 C102 0.930 . S
H91 C104 0.930 . S
C92 H84 0.930 1_554 S
C92 C93 1.382 . S
C92 C94 1.426 . S
C93 C92 1.382 . S
C93 C97 1.389 . S
C94 C92 1.426 . S
C94 C95 1.375 . S
C94 C98 1.532 . S
C95 H85 0.930 . S
C95 C94 1.375 . S
C95 C96 1.416 . S
C96 C95 1.416 . S
C96 C97 1.371 . S
C97 H86 0.930 . S
C97 C93 1.389 . S
C97 C96 1.371 . S
C98 H87 0.970 . S
C98 H88 0.970 . S
C98 C94 1.532 . S
C98 C99 1.499 . S
C99 C98 1.499 . S
C99 C100 1.370 . S
C99 C104 1.415 . S
C100 H89 0.930 1_554 S
C100 C99 1.370 . S
C100 C101 1.407 . S
C101 C100 1.407 . S
C101 C102 1.365 . S
C102 H90 0.930 . S
C102 C101 1.365 . S
C102 C103 1.393 . S
C103 C102 1.393 . S
C103 C104 1.387 . S
C104 H91 0.930 . S
C104 C99 1.415 . S
C104 C103 1.387 . S
H105 C113 0.930 . S
H106 C116 0.930 . S
H107 C118 0.930 . S
H108 C119 0.970 . S
H109 C119 0.970 . S
H110 C121 0.930 . S
H111 C123 0.930 . S
H112 C125 0.930 . S
C113 H105 0.930 . S
C113 C114 1.382 . S
C113 C115 1.426 . S
C114 C113 1.382 . S
C114 C118 1.389 . S
C115 C113 1.426 . S
C115 C116 1.375 . S
C115 C119 1.532 . S
C116 H106 0.930 . S
C116 C115 1.375 . S
C116 C117 1.416 . S
C117 C116 1.416 . S
C117 C118 1.371 . S
C118 H107 0.930 . S
C118 C114 1.389 . S
C118 C117 1.371 . S
C119 H108 0.970 . S
C119 H109 0.970 . S
C119 C115 1.532 . S
C119 C120 1.499 . S
C120 C119 1.499 . S
C120 C121 1.370 . S
C120 C125 1.415 . S
C121 H110 0.930 . S
C121 C120 1.370 . S
C121 C122 1.407 . S
C122 C121 1.407 . S
C122 C123 1.365 . S
C123 H111 0.930 . S
C123 C122 1.365 . S
C123 C124 1.393 . S
C124 C123 1.393 . S
C124 C125 1.387 . S
C125 H112 0.930 . S
C125 C120 1.415 . S
C125 C124 1.387 . S
C126 O138 1.241 . S
C126 O139 1.280 . S
C127 O140 1.277 . S
C127 O141 1.245 . S
C128 O152 1.247 . S
C128 O154 1.289 . S
Mg129 O130 1.926 . S
Mg129 O139 1.984 . S
Mg129 O141 1.988 1_655 S
Mg129 O142 2.061 . S
O130 Mg129 1.926 . S
O130 Mg131 1.986 1_655 S
O130 Mg132 1.917 1_655 S
Mg131 O130 1.986 1_455 S
Mg131 O138 2.042 1_455 S
Mg131 O140 2.041 . S
Mg131 O146 2.038 1_455 S
Mg131 O154 2.238 . S
Mg132 O130 1.917 1_455 S
Mg132 O133 1.917 . S
Mg132 O143 2.106 1_455 S
Mg132 O145 2.079 1_455 S
Mg132 O154 2.106 . S
Mg132 O155 2.079 . S
O133 Mg132 1.917 . S
O133 Mg134 1.926 . S
O133 Mg135 1.986 . S
Mg134 O133 1.926 . S
Mg134 O148 1.984 . S
Mg134 O151 1.988 1_455 S
Mg134 O152 2.061 . S
Mg135 O133 1.986 . S
Mg135 O143 2.238 1_455 S
Mg135 O147 2.042 . S
Mg135 O149 2.041 1_455 S
Mg135 O156 2.038 . S
C136 O142 1.247 . S
C136 O143 1.289 . S
C137 O155 1.245 . S
C137 O156 1.274 . S
O138 C126 1.241 . S
O138 Mg131 2.042 1_655 S
O139 C126 1.280 . S
O139 Mg129 1.984 . S
O140 C127 1.277 . S
O140 Mg131 2.041 . S
O141 C127 1.245 . S
O141 Mg129 1.988 1_455 S
O142 Mg129 2.061 . S
O142 C136 1.247 . S
O143 Mg132 2.106 1_655 S
O143 Mg135 2.238 1_655 S
O143 C136 1.289 . S
C144 O145 1.245 . S
C144 O146 1.274 . S
O145 Mg132 2.079 1_655 S
O145 C144 1.245 . S
O146 Mg131 2.038 1_655 S
O146 C144 1.274 . S
O147 Mg135 2.042 . S
O147 C150 1.241 . S
O148 Mg134 1.984 . S
O148 C150 1.280 . S
O149 Mg135 2.041 1_655 S
O149 C153 1.277 . S
C150 O147 1.241 . S
C150 O148 1.280 . S
O151 Mg134 1.988 1_655 S
O151 C153 1.245 . S
O152 C128 1.247 . S
O152 Mg134 2.061 . S
C153 O149 1.277 . S
C153 O151 1.245 . S
O154 C128 1.289 . S
O154 Mg131 2.238 . S
O154 Mg132 2.106 . S
O155 Mg132 2.079 . S
O155 C137 1.245 . S
O156 Mg135 2.038 . S
O156 C137 1.274 . S
C157 O169 1.241 . S
C157 O170 1.280 . S
C158 O171 1.277 . S
C158 O172 1.245 . S
C159 O183 1.247 . S
C159 O185 1.289 . S
Mg160 O161 1.926 . S
Mg160 O170 1.984 . S
Mg160 O172 1.988 1_545 S
Mg160 O173 2.061 . S
O161 Mg160 1.926 . S
O161 Mg162 1.986 . S
O161 Mg163 1.917 . S
Mg162 O161 1.986 . S
Mg162 O169 2.042 . S
Mg162 O171 2.041 1_545 S
Mg162 O177 2.038 . S
Mg162 O185 2.238 1_545 S
Mg163 O161 1.917 . S
Mg163 O164 1.917 1_545 S
Mg163 O174 2.106 . S
Mg163 O176 2.079 . S
Mg163 O185 2.106 1_545 S
Mg163 O186 2.079 1_545 S
O164 Mg163 1.917 1_565 S
O164 Mg165 1.926 . S
O164 Mg166 1.986 1_565 S
Mg165 O164 1.926 . S
Mg165 O179 1.984 . S
Mg165 O182 1.988 1_565 S
Mg165 O183 2.061 . S
Mg166 O164 1.986 1_545 S
Mg166 O174 2.238 . S
Mg166 O178 2.042 1_545 S
Mg166 O180 2.041 . S
Mg166 O187 2.038 1_545 S
C167 O173 1.247 . S
C167 O174 1.289 . S
C168 O186 1.245 . S
C168 O187 1.274 . S
O169 C157 1.241 . S
O169 Mg162 2.042 . S
O170 C157 1.280 . S
O170 Mg160 1.984 . S
O171 C158 1.277 . S
O171 Mg162 2.041 1_565 S
O172 C158 1.245 . S
O172 Mg160 1.988 1_565 S
O173 Mg160 2.061 . S
O173 C167 1.247 . S
O174 Mg163 2.106 . S
O174 Mg166 2.238 . S
O174 C167 1.289 . S
C175 O176 1.245 . S
C175 O177 1.274 . S
O176 Mg163 2.079 . S
O176 C175 1.245 . S
O177 Mg162 2.038 . S
O177 C175 1.274 . S
O178 Mg166 2.042 1_565 S
O178 C181 1.241 . S
O179 Mg165 1.984 . S
O179 C181 1.280 . S
O180 Mg166 2.041 . S
O180 C184 1.277 . S
C181 O178 1.241 . S
C181 O179 1.280 . S
O182 Mg165 1.988 1_545 S
O182 C184 1.245 . S
O183 C159 1.247 . S
O183 Mg165 2.061 . S
C184 O180 1.277 . S
C184 O182 1.245 . S
O185 C159 1.289 . S
O185 Mg162 2.238 1_565 S
O185 Mg163 2.106 1_565 S
O186 Mg163 2.079 1_565 S
O186 C168 1.245 . S
O187 Mg166 2.038 1_565 S
O187 C168 1.274 . S
C188 O200 1.241 . S
C188 O201 1.280 . S
C189 O202 1.277 . S
C189 O203 1.245 . S
C190 O214 1.247 . S
C190 O216 1.289 . S
Mg191 O192 1.926 . S
Mg191 O201 1.984 . S
Mg191 O203 1.988 . S
Mg191 O204 2.061 . S
O192 Mg191 1.926 . S
O192 Mg193 1.986 . S
O192 Mg194 1.917 . S
Mg193 O192 1.986 . S
Mg193 O200 2.042 . S
Mg193 O202 2.041 . S
Mg193 O208 2.038 . S
Mg193 O216 2.238 . S
Mg194 O192 1.917 . S
Mg194 O195 1.917 . S
Mg194 O205 2.106 . S
Mg194 O207 2.079 . S
Mg194 O216 2.106 . S
Mg194 O217 2.079 . S
O195 Mg194 1.917 . S
O195 Mg196 1.926 . S
O195 Mg197 1.986 . S
Mg196 O195 1.926 . S
Mg196 O210 1.984 . S
Mg196 O213 1.988 . S
Mg196 O214 2.061 . S
Mg197 O195 1.986 . S
Mg197 O205 2.238 . S
Mg197 O209 2.042 . S
Mg197 O211 2.041 . S
Mg197 O218 2.038 . S
C198 O204 1.247 . S
C198 O205 1.289 . S
C199 O217 1.245 . S
C199 O218 1.274 . S
O200 C188 1.241 . S
O200 Mg193 2.042 . S
O201 C188 1.280 . S
O201 Mg191 1.984 . S
O202 C189 1.277 . S
O202 Mg193 2.041 . S
O203 C189 1.245 . S
O203 Mg191 1.988 . S
O204 Mg191 2.061 . S
O204 C198 1.247 . S
O205 Mg194 2.106 . S
O205 Mg197 2.238 . S
O205 C198 1.289 . S
C206 O207 1.245 . S
C206 O208 1.274 . S
O207 Mg194 2.079 . S
O207 C206 1.245 . S
O208 Mg193 2.038 . S
O208 C206 1.274 . S
O209 Mg197 2.042 . S
O209 C212 1.241 . S
O210 Mg196 1.984 . S
O210 C212 1.280 . S
O211 Mg197 2.041 . S
O211 C215 1.277 . S
C212 O209 1.241 . S
C212 O210 1.280 . S
O213 Mg196 1.988 . S
O213 C215 1.245 . S
O214 C190 1.247 . S
O214 Mg196 2.061 . S
C215 O211 1.277 . S
C215 O213 1.245 . S
O216 C190 1.289 . S
O216 Mg193 2.238 . S
O216 Mg194 2.106 . S
O217 Mg194 2.079 . S
O217 C199 1.245 . S
O218 Mg197 2.038 . S
O218 C199 1.274 . S
C219 C220 1.387 . S
C219 H223 0.950 . S
C219 C228 1.390 . S
C220 C219 1.387 . S
C220 C222 1.387 . S
H221 C228 0.950 . S
C222 C220 1.387 . S
C222 C224 1.390 . S
C222 H226 0.950 . S
H223 C219 0.950 . S
C224 C222 1.390 . S
C224 C225 1.387 . S
C224 H227 0.950 . S
C225 C224 1.387 . S
C225 C228 1.387 . S
H226 C222 0.950 . S
H227 C224 0.950 . S
C228 C219 1.390 . S
C228 H221 0.950 . S
C228 C225 1.387 . S
C229 C230 1.387 . S
C229 H233 0.950 . S
C229 C238 1.390 . S
C230 C229 1.387 . S
C230 C232 1.387 . S
H231 C238 0.950 . S
C232 C230 1.387 . S
C232 C234 1.390 . S
C232 H236 0.950 . S
H233 C229 0.950 . S
C234 C232 1.390 . S
C234 C235 1.387 . S
C234 H237 0.950 . S
C235 C234 1.387 . S
C235 C238 1.387 . S
H236 C232 0.950 . S
H237 C234 0.950 . S
C238 C229 1.390 . S
C238 H231 0.950 . S
C238 C235 1.387 . S
C239 C240 1.387 . S
C239 H243 0.950 . S
C239 C248 1.390 . S
C240 C239 1.387 . S
C240 C242 1.387 . S
H241 C248 0.950 . S
C242 C240 1.387 . S
C242 C244 1.390 . S
C242 H246 0.950 . S
H243 C239 0.950 . S
C244 C242 1.390 . S
C244 C245 1.387 . S
C244 H247 0.950 . S
C245 C244 1.387 . S
C245 C248 1.387 . S
H246 C242 0.950 . S
H247 C244 0.950 . S
C248 C239 1.390 . S
C248 H241 0.950 . S
C248 C245 1.387 . S
C249 C250 1.387 . S
C249 H253 0.950 . S
C249 C258 1.390 . S
C250 C249 1.387 . S
C250 C252 1.387 . S
H251 C258 0.950 . S
C252 C250 1.387 . S
C252 C254 1.390 . S
C252 H256 0.950 . S
H253 C249 0.950 . S
C254 C252 1.390 . S
C254 C255 1.387 . S
C254 H257 0.950 . S
C255 C254 1.387 . S
C255 C258 1.387 . S
H256 C252 0.950 . S
H257 C254 0.950 . S
C258 C249 1.390 . S
C258 H251 0.950 . S
C258 C255 1.387 . S
C259 C260 1.387 . S
C259 H263 0.950 . S
C259 C268 1.390 . S
C260 C259 1.387 . S
C260 C262 1.387 . S
H261 C268 0.950 . S
C262 C260 1.387 . S
C262 C264 1.390 . S
C262 H266 0.950 . S
H263 C259 0.950 . S
C264 C262 1.390 . S
C264 C265 1.387 . S
C264 H267 0.950 . S
C265 C264 1.387 . S
C265 C268 1.387 . S
H266 C262 0.950 . S
H267 C264 0.950 . S
C268 C259 1.390 . S
C268 H261 0.950 . S
C268 C265 1.387 . S
C269 C270 1.387 . S
C269 H273 0.950 . S
C269 C278 1.390 . S
C270 C269 1.387 . S
C270 C272 1.387 . S
H271 C278 0.950 . S
C272 C270 1.387 . S
C272 C274 1.390 . S
C272 H276 0.950 . S
H273 C269 0.950 . S
C274 C272 1.390 . S
C274 C275 1.387 . S
C274 H277 0.950 . S
C275 C274 1.387 . S
C275 C278 1.387 . S
H276 C272 0.950 . S
H277 C274 0.950 . S
C278 C269 1.390 . S
C278 H271 0.950 . S
C278 C275 1.387 . S
C279 C280 1.387 . S
C279 H283 0.950 . S
C279 C288 1.390 . S
C280 C279 1.387 . S
C280 C282 1.387 . S
H281 C288 0.950 . S
C282 C280 1.387 . S
C282 C284 1.390 . S
C282 H286 0.950 . S
H283 C279 0.950 . S
C284 C282 1.390 . S
C284 C285 1.387 . S
C284 H287 0.950 . S
C285 C284 1.387 . S
C285 C288 1.387 . S
H286 C282 0.950 . S
H287 C284 0.950 . S
C288 C279 1.390 . S
C288 H281 0.950 . S
C288 C285 1.387 . S
C289 C290 1.387 . S
C289 H293 0.950 . S
C289 C298 1.390 . S
C290 C289 1.387 . S
C290 C292 1.387 . S
H291 C298 0.950 . S
C292 C290 1.387 . S
C292 C294 1.390 . S
C292 H296 0.950 . S
H293 C289 0.950 . S
C294 C292 1.390 . S
C294 C295 1.387 . S
C294 H297 0.950 . S
C295 C294 1.387 . S
C295 C298 1.387 . S
H296 C292 0.950 . S
H297 C294 0.950 . S
C298 C289 1.390 . S
C298 H291 0.950 . S
C298 C295 1.387 . S
C299 C300 1.387 . S
C299 H303 0.950 . S
C299 C308 1.390 . S
C300 C299 1.387 . S
C300 C302 1.387 . S
H301 C308 0.950 . S
C302 C300 1.387 . S
C302 C304 1.390 . S
C302 H306 0.950 . S
H303 C299 0.950 . S
C304 C302 1.390 . S
C304 C305 1.387 . S
C304 H307 0.950 . S
C305 C304 1.387 . S
C305 C308 1.387 . S
H306 C302 0.950 . S
H307 C304 0.950 . S
C308 C299 1.390 . S
C308 H301 0.950 . S
C308 C305 1.387 . S
C309 C310 1.387 . S
C309 H313 0.950 . S
C309 C318 1.390 1_554 S
C310 C309 1.387 . S
C310 C312 1.387 . S
H311 C318 0.950 . S
C312 C310 1.387 . S
C312 C314 1.390 . S
C312 H316 0.950 . S
H313 C309 0.950 . S
C314 C312 1.390 . S
C314 C315 1.387 1_554 S
C314 H317 0.950 . S
C315 C314 1.387 1_556 S
C315 C318 1.387 . S
H316 C312 0.950 . S
H317 C314 0.950 . S
C318 C309 1.390 1_556 S
C318 H311 0.950 . S
C318 C315 1.387 . S
C319 C320 1.387 . S
C319 H323 0.950 . S
C319 C328 1.390 1_554 S
C320 C319 1.387 . S
C320 C322 1.387 1_554 S
H321 C328 0.950 . S
C322 C320 1.387 1_556 S
C322 C324 1.390 . S
C322 H326 0.950 . S
H323 C319 0.950 . S
C324 C322 1.390 . S
C324 C325 1.387 . S
C324 H327 0.950 . S
C325 C324 1.387 . S
C325 C328 1.387 . S
H326 C322 0.950 . S
H327 C324 0.950 . S
C328 C319 1.390 1_556 S
C328 H321 0.950 . S
C328 C325 1.387 . S
C329 C330 1.387 1_556 S
C329 H333 0.950 . S
C329 C338 1.390 . S
C330 C329 1.387 1_554 S
C330 C332 1.387 . S
H331 C338 0.950 . S
C332 C330 1.387 . S
C332 C334 1.390 1_554 S
C332 H336 0.950 . S
H333 C329 0.950 . S
C334 C332 1.390 1_556 S
C334 C335 1.387 . S
C334 H337 0.950 . S
C335 C334 1.387 . S
C335 C338 1.387 . S
H336 C332 0.950 . S
H337 C334 0.950 . S
C338 C329 1.390 . S
C338 H331 0.950 . S
C338 C335 1.387 . S
C339 C340 1.387 . S
C339 H343 0.950 . S
C339 C348 1.390 . S
C340 C339 1.387 . S
C340 C342 1.387 . S
H341 C348 0.950 . S
C342 C340 1.387 . S
C342 C344 1.390 . S
C342 H346 0.950 . S
H343 C339 0.950 . S
C344 C342 1.390 . S
C344 C345 1.387 . S
C344 H347 0.950 . S
C345 C344 1.387 . S
C345 C348 1.387 . S
H346 C342 0.950 . S
H347 C344 0.950 . S
C348 C339 1.390 . S
C348 H341 0.950 . S
C348 C345 1.387 . S
C349 C350 1.387 . S
C349 H353 0.950 . S
C349 C358 1.390 . S
C350 C349 1.387 . S
C350 C352 1.387 . S
H351 C358 0.950 . S
C352 C350 1.387 . S
C352 C354 1.390 . S
C352 H356 0.950 1_556 S
H353 C349 0.950 . S
C354 C352 1.390 . S
C354 C355 1.387 . S
C354 H357 0.950 . S
C355 C354 1.387 . S
C355 C358 1.387 . S
H356 C352 0.950 1_554 S
H357 C354 0.950 . S
C358 C349 1.390 . S
C358 H351 0.950 . S
C358 C355 1.387 . S
C359 C360 1.387 . S
C359 H363 0.950 . S
C359 C368 1.390 . S
C360 C359 1.387 . S
C360 C362 1.387 . S
H361 C368 0.950 . S
C362 C360 1.387 . S
C362 C364 1.390 1_554 S
C362 H366 0.950 . S
H363 C359 0.950 . S
C364 C362 1.390 1_556 S
C364 C365 1.387 . S
C364 H367 0.950 . S
C365 C364 1.387 . S
C365 C368 1.387 1_556 S
H366 C362 0.950 . S
H367 C364 0.950 . S
C368 C359 1.390 . S
C368 H361 0.950 . S
C368 C365 1.387 1_554 S
C369 C370 1.387 . S
C369 H373 0.950 . S
C369 C378 1.390 1_554 S
C370 C369 1.387 . S
C370 C372 1.387 1_554 S
H371 C378 0.950 . S
C372 C370 1.387 1_556 S
C372 C374 1.390 . S
C372 H376 0.950 . S
H373 C369 0.950 . S
C374 C372 1.390 . S
C374 C375 1.387 . S
C374 H377 0.950 . S
C375 C374 1.387 . S
C375 C378 1.387 . S
H376 C372 0.950 . S
H377 C374 0.950 . S
C378 C369 1.390 1_556 S
C378 H371 0.950 . S
C378 C375 1.387 . S
C379 C380 1.387 . S
C379 H383 0.950 . S
C379 C388 1.390 . S
C380 C379 1.387 . S
C380 C382 1.387 . S
H381 C388 0.950 . S
C382 C380 1.387 . S
C382 C384 1.390 . S
C382 H386 0.950 1_556 S
H383 C379 0.950 . S
C384 C382 1.390 . S
C384 C385 1.387 . S
C384 H387 0.950 . S
C385 C384 1.387 . S
C385 C388 1.387 . S
H386 C382 0.950 1_554 S
H387 C384 0.950 . S
C388 C379 1.390 . S
C388 H381 0.950 . S
C388 C385 1.387 . S
C389 C390 1.387 . S
C389 H393 0.950 . S
C389 C398 1.390 . S
C390 C389 1.387 . S
C390 C392 1.387 . S
H391 C398 0.950 . S
C392 C390 1.387 . S
C392 C394 1.390 . S
C392 H396 0.950 . S
H393 C389 0.950 . S
C394 C392 1.390 . S
C394 C395 1.387 . S
C394 H397 0.950 . S
C395 C394 1.387 . S
C395 C398 1.387 . S
H396 C392 0.950 . S
H397 C394 0.950 . S
C398 C389 1.390 . S
C398 H391 0.950 . S
C398 C395 1.387 . S
C399 C400 1.387 . S
C399 H403 0.950 . S
C399 C408 1.390 . S
C400 C399 1.387 . S
C400 C402 1.387 . S
H401 C408 0.950 . S
C402 C400 1.387 . S
C402 C404 1.390 . S
C402 H406 0.950 . S
H403 C399 0.950 . S
C404 C402 1.390 . S
C404 C405 1.387 . S
C404 H407 0.950 . S
C405 C404 1.387 . S
C405 C408 1.387 . S
H406 C402 0.950 . S
H407 C404 0.950 . S
C408 C399 1.390 . S
C408 H401 0.950 . S
C408 C405 1.387 . S
C409 C410 1.387 . S
C409 H413 0.950 . S
C409 C418 1.390 . S
C410 C409 1.387 . S
C410 C412 1.387 . S
H411 C418 0.950 . S
C412 C410 1.387 . S
C412 C414 1.390 . S
C412 H416 0.950 . S
H413 C409 0.950 . S
C414 C412 1.390 . S
C414 C415 1.387 . S
C414 H417 0.950 . S
C415 C414 1.387 . S
C415 C418 1.387 . S
H416 C412 0.950 . S
H417 C414 0.950 . S
C418 C409 1.390 . S
C418 H411 0.950 . S
C418 C415 1.387 . S
C419 C420 1.387 . S
C419 H423 0.950 . S
C419 C428 1.390 . S
C420 C419 1.387 . S
C420 C422 1.387 . S
H421 C428 0.950 . S
C422 C420 1.387 . S
C422 C424 1.390 . S
C422 H426 0.950 . S
H423 C419 0.950 . S
C424 C422 1.390 . S
C424 C425 1.387 . S
C424 H427 0.950 . S
C425 C424 1.387 . S
C425 C428 1.387 . S
H426 C422 0.950 . S
H427 C424 0.950 . S
C428 C419 1.390 . S
C428 H421 0.950 . S
C428 C425 1.387 . S
C429 C430 1.387 . S
C429 H433 0.950 . S
C429 C438 1.390 . S
C430 C429 1.387 . S
C430 C432 1.387 . S
H431 C438 0.950 . S
C432 C430 1.387 . S
C432 C434 1.390 . S
C432 H436 0.950 . S
H433 C429 0.950 . S
C434 C432 1.390 . S
C434 C435 1.387 . S
C434 H437 0.950 . S
C435 C434 1.387 . S
C435 C438 1.387 . S
H436 C432 0.950 . S
H437 C434 0.950 . S
C438 C429 1.390 . S
C438 H431 0.950 . S
C438 C435 1.387 . S
C439 C440 1.387 . S
C439 H443 0.950 . S
C439 C448 1.390 . S
C440 C439 1.387 . S
C440 C442 1.387 . S
H441 C448 0.950 . S
C442 C440 1.387 . S
C442 C444 1.390 . S
C442 H446 0.950 . S
H443 C439 0.950 . S
C444 C442 1.390 . S
C444 C445 1.387 . S
C444 H447 0.950 . S
C445 C444 1.387 . S
C445 C448 1.387 . S
H446 C442 0.950 . S
H447 C444 0.950 . S
C448 C439 1.390 . S
C448 H441 0.950 . S
C448 C445 1.387 . S
C449 C450 1.387 . S
C449 H453 0.950 . S
C449 C458 1.390 . S
C450 C449 1.387 . S
C450 C452 1.387 . S
H451 C458 0.950 . S
C452 C450 1.387 . S
C452 C454 1.390 . S
C452 H456 0.950 . S
H453 C449 0.950 . S
C454 C452 1.390 . S
C454 C455 1.387 . S
C454 H457 0.950 . S
C455 C454 1.387 . S
C455 C458 1.387 . S
H456 C452 0.950 . S
H457 C454 0.950 . S
C458 C449 1.390 . S
C458 H451 0.950 . S
C458 C455 1.387 . S
C220 C12 1.734 . S
C225 C137 1.851 . S
C230 C40 1.544 . S
C235 C184 1.557 . S
C245 C188 1.703 . S
C240 C61 1.752 . S
C255 C153 1.458 . S
C250 C82 1.491 . S
C260 C96 1.699 . S
C265 C168 1.765 . S
C275 C190 1.248 . S
C270 C117 1.144 . S
C285 C159 1.604 . S
C280 C51 1.607 . S
C290 C72 1.492 . S
C295 C199 1.490 . S
C305 C128 1.494 . S
C300 C101 1.437 1_556 S
C310 C122 1.365 . S
C315 C157 1.409 . S
C320 C17 1.775 . S
C325 C215 1.803 . S
C335 C126 1.491 . S
C330 C30 1.486 . S
C345 C144 1.830 . S
C340 C80 1.842 . S
C355 C158 1.557 . S
C350 C93 1.489 1_556 S
C365 C212 1.700 . S
C360 C114 1.676 . S
C375 C127 1.458 . S
C370 C9 1.440 . S
C385 C175 1.736 . S
C380 C38 1.807 1_556 S
C390 C59 1.206 . S
C395 C198 1.238 . S
C405 C167 1.576 . S
C400 C124 1.515 . S
C415 C206 1.443 . S
C410 C19 1.382 . S
C425 C136 1.463 . S
C420 C33 1.502 . S
C435 C181 1.392 . S
C430 C54 1.392 . S
C440 C75 1.800 . S
C445 C189 1.788 . S
C450 C103 1.407 . S
C455 C150 1.462 . S
