# Generated by pormake.
# Topology ssa, (4,4)-cn, num edge types: 1
# Building blocks:
#     Node 0, Type 0, BuildingBlock: ESEHIV_clean_sbu_0, # of connection points: 4
#     Node 1, Type 0, BuildingBlock: ESEHIV_clean_sbu_0, # of connection points: 4
#     Node 2, Type 0, BuildingBlock: ESEHIV_clean_sbu_0, # of connection points: 4
#     Node 3, Type 0, BuildingBlock: ESEHIV_clean_sbu_0, # of connection points: 4
#     Node 4, Type 0, BuildingBlock: ESEHIV_clean_sbu_0, # of connection points: 4
#     Node 5, Type 0, BuildingBlock: ESEHIV_clean_sbu_0, # of connection points: 4
#     Node 6, Type 1, BuildingBlock: NAHDIM_clean_linker_0, # of connection points: 4
#     Node 7, Type 1, BuildingBlock: NAHDIM_clean_linker_0, # of connection points: 4
#     Node 8, Type 1, BuildingBlock: NAHDIM_clean_linker_0, # of connection points: 4
#     Node 9, Type 1, BuildingBlock: NAHDIM_clean_linker_0, # of connection points: 4
#     Node 10, Type 1, BuildingBlock: NAHDIM_clean_linker_0, # of connection points: 4
#     Node 11, Type 1, BuildingBlock: NAHDIM_clean_linker_0, # of connection points: 4
#     Edge 12, Type (0, 1), BuildingBlock: TEMPAE_clean_linker_10, # of connection points: 2
#     Edge 13, Type (0, 1), BuildingBlock: TEMPAE_clean_linker_10, # of connection points: 2
#     Edge 14, Type (0, 1), BuildingBlock: TEMPAE_clean_linker_10, # of connection points: 2
#     Edge 15, Type (0, 1), BuildingBlock: TEMPAE_clean_linker_10, # of connection points: 2
#     Edge 16, Type (0, 1), BuildingBlock: TEMPAE_clean_linker_10, # of connection points: 2
#     Edge 17, Type (0, 1), BuildingBlock: TEMPAE_clean_linker_10, # of connection points: 2
#     Edge 18, Type (0, 1), BuildingBlock: TEMPAE_clean_linker_10, # of connection points: 2
#     Edge 19, Type (0, 1), BuildingBlock: TEMPAE_clean_linker_10, # of connection points: 2
#     Edge 20, Type (0, 1), BuildingBlock: TEMPAE_clean_linker_10, # of connection points: 2
#     Edge 21, Type (0, 1), BuildingBlock: TEMPAE_clean_linker_10, # of connection points: 2
#     Edge 22, Type (0, 1), BuildingBlock: TEMPAE_clean_linker_10, # of connection points: 2
#     Edge 23, Type (0, 1), BuildingBlock: TEMPAE_clean_linker_10, # of connection points: 2
#     Edge 24, Type (0, 1), BuildingBlock: TEMPAE_clean_linker_10, # of connection points: 2
#     Edge 25, Type (0, 1), BuildingBlock: TEMPAE_clean_linker_10, # of connection points: 2
#     Edge 26, Type (0, 1), BuildingBlock: TEMPAE_clean_linker_10, # of connection points: 2
#     Edge 27, Type (0, 1), BuildingBlock: TEMPAE_clean_linker_10, # of connection points: 2
#     Edge 28, Type (0, 1), BuildingBlock: TEMPAE_clean_linker_10, # of connection points: 2
#     Edge 29, Type (0, 1), BuildingBlock: TEMPAE_clean_linker_10, # of connection points: 2
#     Edge 30, Type (0, 1), BuildingBlock: TEMPAE_clean_linker_10, # of connection points: 2
#     Edge 31, Type (0, 1), BuildingBlock: TEMPAE_clean_linker_10, # of connection points: 2
#     Edge 32, Type (0, 1), BuildingBlock: TEMPAE_clean_linker_10, # of connection points: 2
#     Edge 33, Type (0, 1), BuildingBlock: TEMPAE_clean_linker_10, # of connection points: 2
#     Edge 34, Type (0, 1), BuildingBlock: TEMPAE_clean_linker_10, # of connection points: 2
#     Edge 35, Type (0, 1), BuildingBlock: TEMPAE_clean_linker_10, # of connection points: 2
# Relax obj value: 0.017
# Max RMSD: 0.106
# Mean RMSD: 0.070
data_MOF--net-ssa--node1-ESEHIV_clean_sbu_0--node2-NAHDIM_clean_linker_0--edge1-TEMPAE_clean_linker_10
_symmetry_space_group_name_H-M    P1
_symmetry_Int_Tables_number       1
_symmetry_cell_setting            triclinic
loop_
_symmetry_equiv_pos_as_xyz
'x, y, z'
_cell_length_a     62.416896
_cell_length_b     65.849257
_cell_length_c     55.285111
_cell_angle_alpha  88.52332
_cell_angle_beta   91.119462
_cell_angle_gamma 121.88187
loop_
_atom_site_label
_atom_site_type_symbol
_atom_site_fract_x
_atom_site_fract_y
_atom_site_fract_z
_atom_type_partial_charge
Cu0 Cu 0.03891 0.51999 0.99063 0.0
N1 N 0.03878 0.50189 0.96522 0.0
N2 N 0.02209 0.47073 0.94052 0.0
C3 C 0.0192 0.47975 0.96097 0.0
C4 C 0.04477 0.48795 0.93173 0.0
C5 C 0.05503 0.50723 0.94703 0.0
O6 O 0.00964 0.52297 0.98617 0.0
C7 C 0.05833 0.50167 0.02258 0.0
O8 O 0.07453 0.50944 0.0047 0.0
H9 H 0.00301 0.47065 0.97274 0.0
H10 H 0.07268 0.5241 0.94471 0.0
N11 N 0.06737 0.55073 0.99175 0.0
N12 N 0.09483 0.5853 0.00927 0.0
C13 C 0.07682 0.56209 0.0127 0.0
C14 C 0.0798 0.56728 0.97421 0.0
C15 C 0.09681 0.58874 0.98502 0.0
C16 C 0.00643 0.52869 0.96479 0.0
O17 O 0.02273 0.53224 0.94801 0.0
H18 H 0.06927 0.5538 0.03018 0.0
H19 H 0.07589 0.5643 0.95506 0.0
O20 O 0.03931 0.50393 0.0205 0.0
H21 H 0.05302 0.48706 0.91506 0.0
H22 H 0.10895 0.60568 0.9758 0.0
Cu23 Cu 0.52121 0.01124 0.51203 0.0
N24 N 0.54352 0.01543 0.4875 0.0
N25 N 0.56521 0.00644 0.46292 0.0
C26 C 0.54489 0.99778 0.47729 0.0
C27 C 0.57722 0.03045 0.46419 0.0
C28 C 0.56375 0.03596 0.47934 0.0
O29 O 0.48915 0.98144 0.50745 0.0
C30 C 0.55605 0.03411 0.54816 0.0
O31 O 0.56042 0.05222 0.53399 0.0
H32 H 0.53197 0.97896 0.4813 0.0
H33 H 0.56894 0.05364 0.48483 0.0
N34 N 0.51353 0.03506 0.5122 0.0
N35 N 0.49901 0.05684 0.52685 0.0
C36 C 0.5014 0.03779 0.53046 0.0
C37 C 0.51893 0.0529 0.49625 0.0
C38 C 0.51008 0.06648 0.50533 0.0
C39 C 0.48056 0.97675 0.48589 0.0
O40 O 0.49407 0.99133 0.46815 0.0
H41 H 0.49512 0.02635 0.54647 0.0
H42 H 0.5288 0.05596 0.47941 0.0
O43 O 0.53842 0.01312 0.54239 0.0
H44 H 0.59476 0.04305 0.45525 0.0
H45 H 0.5116 0.08214 0.49674 0.0
Cu46 Cu 0.51903 0.49735 0.03123 0.0
N47 N 0.51326 0.46642 0.03125 0.0
N48 N 0.50214 0.43052 0.01723 0.0
C49 C 0.50386 0.45155 0.01239 0.0
C50 C 0.5107 0.43228 0.04021 0.0
C51 C 0.5175 0.45442 0.0488 0.0
O52 O 0.53586 0.51354 0.0013 0.0
C53 C 0.47719 0.48592 0.05675 0.0
O54 O 0.4896 0.48026 0.07214 0.0
H55 H 0.49823 0.45615 0.99551 0.0
H56 H 0.52504 0.46126 0.06656 0.0
N57 N 0.54017 0.51583 0.05648 0.0
N58 N 0.55759 0.54496 0.08372 0.0
C59 C 0.53997 0.53427 0.06614 0.0
C60 C 0.5587 0.5148 0.06811 0.0
C61 C 0.56943 0.5327 0.08499 0.0
C62 C 0.55387 0.51099 0.99519 0.0
O63 O 0.5592 0.49762 0.00889 0.0
H64 H 0.52735 0.53994 0.05993 0.0
H65 H 0.56417 0.50211 0.06446 0.0
O66 O 0.48669 0.49423 0.03597 0.0
H67 H 0.5123 0.41873 0.05007 0.0
H68 H 0.58464 0.53621 0.09732 0.0
Cu69 Cu 0.99059 0.48773 0.50619 0.0
N70 N 0.98545 0.47338 0.47642 0.0
N71 N 0.99491 0.45854 0.44538 0.0
C72 C 0.00349 0.4718 0.46549 0.0
C73 C 0.97029 0.45145 0.44365 0.0
C74 C 0.96447 0.46062 0.46292 0.0
O75 O 0.0241 0.51644 0.50344 0.0
C76 C 0.98888 0.46396 0.55237 0.0
O77 O 0.99617 0.4839 0.56371 0.0
H78 H 0.02227 0.47924 0.47301 0.0
H79 H 0.94612 0.45749 0.46722 0.0
N80 N 0.96651 0.49579 0.5115 0.0
N81 N 0.94449 0.50832 0.53067 0.0
C82 C 0.96056 0.50055 0.53301 0.0
C83 C 0.95357 0.50055 0.49493 0.0
C84 C 0.93982 0.50815 0.50673 0.0
C85 C 0.03006 0.53705 0.51047 0.0
O86 O 0.01474 0.53899 0.52482 0.0
H87 H 0.96849 0.4991 0.55001 0.0
H88 H 0.95482 0.49948 0.47557 0.0
O89 O 0.987 0.46345 0.52942 0.0
H90 H 0.95727 0.44008 0.42978 0.0
H91 H 0.92828 0.51417 0.4983 0.0
Cu92 Cu 0.52939 0.01887 0.02967 0.0
N93 N 0.52063 0.04184 0.02982 0.0
N94 N 0.5076 0.06511 0.01393 0.0
C95 C 0.5158 0.05029 0.00945 0.0
C96 C 0.50728 0.06597 0.03832 0.0
C97 C 0.51528 0.05151 0.04809 0.0
O98 O 0.54581 0.0231 0.99891 0.0
C99 C 0.47707 0.98227 0.034 0.0
O100 O 0.47228 0.99701 0.02217 0.0
H101 H 0.517 0.04447 0.99168 0.0
H102 H 0.51623 0.04769 0.06708 0.0
N103 N 0.55226 0.02317 0.05413 0.0
N104 N 0.57398 0.01291 0.07863 0.0
C105 C 0.56036 0.00808 0.05807 0.0
C106 C 0.56113 0.03823 0.07288 0.0
C107 C 0.5745 0.03182 0.08816 0.0
C108 C 0.55243 0.00982 0.98955 0.0
O109 O 0.5458 0.98915 0.9999 0.0
H110 H 0.55506 0.99291 0.04682 0.0
H111 H 0.5574 0.05225 0.07574 0.0
O112 O 0.49978 0.98754 0.03624 0.0
H113 H 0.50125 0.07589 0.04847 0.0
H114 H 0.58343 0.04007 0.10513 0.0
Cu115 Cu 0.51757 0.4998 0.4954 0.0
N116 N 0.53755 0.51567 0.46866 0.0
N117 N 0.55896 0.54604 0.44253 0.0
C118 C 0.53906 0.53478 0.45753 0.0
C119 C 0.57039 0.53345 0.44418 0.0
C120 C 0.55704 0.51462 0.4603 0.0
O121 O 0.48436 0.49444 0.48897 0.0
C122 C 0.52881 0.51597 0.5448 0.0
O123 O 0.50536 0.49955 0.55011 0.0
H124 H 0.52723 0.54159 0.46203 0.0
H125 H 0.56222 0.50214 0.46682 0.0
N126 N 0.51433 0.47022 0.50025 0.0
N127 N 0.51204 0.43906 0.51989 0.0
C128 C 0.51803 0.4619 0.52137 0.0
C129 C 0.50582 0.45212 0.48471 0.0
C130 C 0.50436 0.4328 0.49679 0.0
C131 C 0.47807 0.50981 0.49079 0.0
O132 O 0.49416 0.53078 0.50001 0.0
H133 H 0.52407 0.47209 0.53778 0.0
H134 H 0.50049 0.45275 0.4661 0.0
O135 O 0.5359 0.51943 0.52289 0.0
H136 H 0.58789 0.53832 0.43545 0.0
H137 H 0.49795 0.4155 0.4892 0.0
C138 C 0.08627 0.39111 0.33894 0.0
C139 C 0.09965 0.40713 0.36079 0.0
C140 C 0.14383 0.4306 0.34688 0.0
C141 C 0.16289 0.45325 0.33885 0.0
C142 C 0.18543 0.45703 0.32943 0.0
C143 C 0.18871 0.43745 0.32758 0.0
C144 C 0.17016 0.41475 0.337 0.0
C145 C 0.14801 0.4116 0.34685 0.0
C146 C 0.20517 0.48169 0.32033 0.0
C147 C 0.17329 0.39359 0.33571 0.0
C148 C 0.3544 0.47012 0.41326 0.0
C149 C 0.33074 0.46289 0.39944 0.0
C150 C 0.31505 0.46198 0.3589 0.0
C151 C 0.2942 0.43854 0.35743 0.0
C152 C 0.27411 0.43295 0.34146 0.0
C153 C 0.2747 0.45132 0.32698 0.0
C154 C 0.29608 0.47494 0.32811 0.0
C155 C 0.31625 0.4798 0.34368 0.0
C156 C 0.25202 0.40747 0.34048 0.0
C157 C 0.29734 0.49524 0.31353 0.0
C158 C 0.30795 0.45471 0.16386 0.0
C159 C 0.28551 0.43225 0.16644 0.0
C160 C 0.2664 0.42901 0.18202 0.0
C161 C 0.26938 0.44876 0.1947 0.0
C162 C 0.29175 0.47151 0.19177 0.0
C163 C 0.31091 0.47402 0.17674 0.0
C164 C 0.24289 0.40444 0.18469 0.0
C165 C 0.29534 0.49326 0.20419 0.0
C166 C 0.08833 0.43087 0.19053 0.0
C167 C 0.11003 0.44713 0.17342 0.0
C168 C 0.14297 0.43749 0.17578 0.0
C169 C 0.14436 0.41704 0.1782 0.0
C170 C 0.16545 0.41805 0.18901 0.0
C171 C 0.18582 0.4402 0.19719 0.0
C172 C 0.18512 0.46121 0.19358 0.0
C173 C 0.16374 0.45966 0.18282 0.0
C174 C 0.16569 0.39536 0.19231 0.0
C175 C 0.20681 0.48523 0.20152 0.0
C176 C 0.2099 0.44005 0.31321 0.0
C177 C 0.2315 0.44375 0.3253 0.0
C178 C 0.25203 0.44634 0.3126 0.0
C179 C 0.25093 0.44512 0.28698 0.0
C180 C 0.27064 0.44667 0.27351 0.0
C181 C 0.26972 0.44645 0.24827 0.0
C182 C 0.24917 0.44491 0.23553 0.0
C183 C 0.24849 0.44584 0.20989 0.0
C184 C 0.22764 0.44419 0.19796 0.0
C185 C 0.20713 0.44124 0.21085 0.0
C186 C 0.20735 0.43999 0.23641 0.0
C187 C 0.18678 0.43653 0.24987 0.0
C188 C 0.18738 0.43604 0.27497 0.0
C189 C 0.20874 0.43938 0.28767 0.0
C190 C 0.22941 0.44219 0.2745 0.0
C191 C 0.22863 0.4423 0.24879 0.0
C192 C 0.35118 0.45213 0.12054 0.0
C193 C 0.32651 0.44306 0.13244 0.0
O194 O 0.12168 0.42794 0.35381 0.0
O195 O 0.12162 0.43522 0.16612 0.0
O196 O 0.32718 0.45857 0.14938 0.0
O197 O 0.33422 0.46777 0.37476 0.0
H198 H 0.10417 0.39706 0.37427 0.0
H199 H 0.09761 0.3843 0.33149 0.0
H200 H 0.08317 0.40114 0.32425 0.0
H201 H 0.06774 0.3754 0.34449 0.0
H202 H 0.15973 0.46792 0.33937 0.0
H203 H 0.13387 0.39413 0.35382 0.0
H204 H 0.22429 0.4862 0.32624 0.0
H205 H 0.20185 0.49562 0.32681 0.0
H206 H 0.20484 0.48207 0.30025 0.0
H207 H 0.15717 0.3771 0.34387 0.0
H208 H 0.19088 0.39767 0.3453 0.0
H209 H 0.17512 0.39013 0.31653 0.0
H210 H 0.3144 0.44471 0.40405 0.0
H211 H 0.35158 0.45289 0.42098 0.0
H212 H 0.35907 0.4977 0.43509 0.0
H213 H 0.36882 0.47271 0.39957 0.0
H214 H 0.29367 0.42459 0.3687 0.0
H215 H 0.33263 0.4978 0.34479 0.0
H216 H 0.24568 0.40229 0.3215 0.0
H217 H 0.23604 0.40591 0.35064 0.0
H218 H 0.25669 0.39469 0.34869 0.0
H219 H 0.31353 0.51294 0.31904 0.0
H220 H 0.27966 0.49521 0.31556 0.0
H221 H 0.2994 0.49294 0.29408 0.0
H222 H 0.31734 0.42416 0.13902 0.0
H223 H 0.28268 0.41707 0.15654 0.0
H224 H 0.32822 0.49129 0.17459 0.0
H225 H 0.23761 0.40007 0.20404 0.0
H226 H 0.2453 0.39031 0.17713 0.0
H227 H 0.22703 0.40419 0.17496 0.0
H228 H 0.31186 0.5101 0.19705 0.0
H229 H 0.29835 0.49188 0.22386 0.0
H230 H 0.27824 0.49433 0.20195 0.0
H231 H 0.1233 0.46334 0.1838 0.0
H232 H 0.0785 0.43995 0.19614 0.0
H233 H 0.09588 0.4267 0.20701 0.0
H234 H 0.07451 0.41377 0.18174 0.0
H235 H 0.12848 0.4001 0.17221 0.0
H236 H 0.16348 0.47582 0.17978 0.0
H237 H 0.16716 0.39197 0.21187 0.0
H238 H 0.18249 0.39743 0.1833 0.0
H239 H 0.14848 0.37957 0.18476 0.0
H240 H 0.20425 0.50012 0.1958 0.0
H241 H 0.22475 0.48856 0.19391 0.0
H242 H 0.20859 0.48522 0.22154 0.0
H243 H 0.23241 0.4448 0.34489 0.0
H244 H 0.28705 0.44821 0.28236 0.0
H245 H 0.28548 0.4478 0.23884 0.0
H246 H 0.22739 0.44527 0.17835 0.0
H247 H 0.16996 0.43421 0.24117 0.0
H248 H 0.17092 0.43329 0.28426 0.0
H249 H 0.35679 0.43902 0.12619 0.0
H250 H 0.36583 0.46701 0.13212 0.0
H251 H 0.34443 0.45744 0.08442 0.0
C252 C 0.8671 0.30025 0.90208 0.0
C253 C 0.88763 0.30764 0.88306 0.0
C254 C 0.86151 0.28743 0.8477 0.0
C255 C 0.86483 0.26804 0.84604 0.0
C256 C 0.84792 0.24789 0.83256 0.0
C257 C 0.82714 0.24704 0.82075 0.0
C258 C 0.82368 0.26654 0.82256 0.0
C259 C 0.84125 0.2867 0.83565 0.0
C260 C 0.85244 0.22762 0.83068 0.0
C261 C 0.80153 0.26614 0.81058 0.0
C262 C 0.69524 0.06805 0.85288 0.0
C263 C 0.69549 0.08675 0.8691 0.0
C264 C 0.71454 0.1236 0.84379 0.0
C265 C 0.70971 0.13963 0.8316 0.0
C266 C 0.72888 0.15985 0.81925 0.0
C267 C 0.75353 0.16395 0.81878 0.0
C268 C 0.75866 0.14788 0.83114 0.0
C269 C 0.73919 0.12796 0.84363 0.0
C270 C 0.72273 0.17677 0.8066 0.0
C271 C 0.7847 0.15166 0.83098 0.0
C272 C 0.73275 0.11803 0.66885 0.0
C273 C 0.72331 0.13223 0.67551 0.0
C274 C 0.73943 0.15506 0.68507 0.0
C275 C 0.76534 0.16345 0.6887 0.0
C276 C 0.77505 0.14961 0.68074 0.0
C277 C 0.75862 0.1272 0.67051 0.0
C278 C 0.72855 0.16977 0.69214 0.0
C279 C 0.80258 0.15804 0.68391 0.0
C280 C 0.92319 0.34655 0.63685 0.0
C281 C 0.91058 0.32328 0.65051 0.0
C282 C 0.86906 0.29312 0.6667 0.0
C283 C 0.84488 0.288 0.67199 0.0
C284 C 0.82709 0.26638 0.68347 0.0
C285 C 0.83369 0.2494 0.68981 0.0
C286 C 0.85796 0.25421 0.68407 0.0
C287 C 0.87541 0.276 0.67257 0.0
C288 C 0.80139 0.26187 0.68927 0.0
C289 C 0.86559 0.23648 0.69053 0.0
C290 C 0.8095 0.22606 0.80596 0.0
C291 C 0.79053 0.20552 0.81786 0.0
C292 C 0.77381 0.18489 0.80509 0.0
C293 C 0.77619 0.18462 0.7797 0.0
C294 C 0.76057 0.16387 0.76642 0.0
C295 C 0.76268 0.16391 0.74142 0.0
C296 C 0.7801 0.18486 0.72859 0.0
C297 C 0.78166 0.18531 0.70303 0.0
C298 C 0.79921 0.20651 0.69091 0.0
C299 C 0.81569 0.22728 0.70369 0.0
C300 C 0.81466 0.22696 0.72927 0.0
C301 C 0.83139 0.24725 0.74275 0.0
C302 C 0.83005 0.24688 0.76786 0.0
C303 C 0.81156 0.22637 0.78048 0.0
C304 C 0.79475 0.2056 0.76732 0.0
C305 C 0.7965 0.20581 0.7417 0.0
C306 C 0.69599 0.05653 0.67883 0.0
C307 C 0.69465 0.07836 0.6714 0.0
O308 O 0.87777 0.30731 0.86026 0.0
O309 O 0.88559 0.31469 0.65614 0.0
O310 O 0.71737 0.09542 0.66088 0.0
O311 O 0.69487 0.10425 0.85514 0.0
H312 H 0.89422 0.29493 0.88413 0.0
H313 H 0.85087 0.28195 0.89845 0.0
H314 H 0.8603 0.31282 0.90161 0.0
H315 H 0.87443 0.30007 0.92051 0.0
H316 H 0.88093 0.26879 0.85465 0.0
H317 H 0.83899 0.30186 0.83692 0.0
H318 H 0.83682 0.21136 0.83966 0.0
H319 H 0.87054 0.23182 0.83928 0.0
H320 H 0.85257 0.22339 0.81139 0.0
H321 H 0.79973 0.28121 0.81634 0.0
H322 H 0.78375 0.24903 0.81486 0.0
H323 H 0.80388 0.26738 0.79065 0.0
H324 H 0.71301 0.09506 0.8803 0.0
H325 H 0.69483 0.05363 0.86415 0.0
H326 H 0.71242 0.07635 0.84156 0.0
H327 H 0.67855 0.06001 0.84061 0.0
H328 H 0.69072 0.13624 0.83181 0.0
H329 H 0.74346 0.11588 0.85298 0.0
H330 H 0.72441 0.17595 0.78674 0.0
H331 H 0.73642 0.19544 0.8121 0.0
H332 H 0.70334 0.17235 0.81062 0.0
H333 H 0.78521 0.13655 0.83974 0.0
H334 H 0.79801 0.16829 0.84073 0.0
H335 H 0.79147 0.15395 0.81209 0.0
H336 H 0.69147 0.08534 0.68824 0.0
H337 H 0.70334 0.12539 0.67336 0.0
H338 H 0.76573 0.11623 0.66481 0.0
H339 H 0.72595 0.16849 0.71204 0.0
H340 H 0.70994 0.16338 0.68337 0.0
H341 H 0.7416 0.18891 0.68718 0.0
H342 H 0.80685 0.14456 0.67798 0.0
H343 H 0.80822 0.16211 0.7032 0.0
H344 H 0.81425 0.17478 0.6732 0.0
H345 H 0.92161 0.32237 0.66617 0.0
H346 H 0.93864 0.3596 0.64926 0.0
H347 H 0.91108 0.35437 0.63904 0.0
H348 H 0.93055 0.33785 0.60314 0.0
H349 H 0.84007 0.30121 0.66732 0.0
H350 H 0.89398 0.27957 0.6684 0.0
H351 H 0.79895 0.26072 0.7092 0.0
H352 H 0.78647 0.24448 0.68176 0.0
H353 H 0.79865 0.27621 0.68191 0.0
H354 H 0.88502 0.24266 0.68452 0.0
H355 H 0.85224 0.21905 0.68208 0.0
H356 H 0.86455 0.23343 0.71043 0.0
H357 H 0.78877 0.20558 0.83735 0.0
H358 H 0.74656 0.14731 0.77522 0.0
H359 H 0.75022 0.14729 0.73231 0.0
H360 H 0.80014 0.20683 0.67132 0.0
H361 H 0.8458 0.26367 0.73405 0.0
H362 H 0.84353 0.26302 0.77721 0.0
H363 H 0.69928 0.04871 0.66279 0.0
H364 H 0.67814 0.0427 0.68766 0.0
H365 H 0.71174 0.06187 0.69191 0.0
C366 C 0.65213 0.73156 0.41473 0.0
C367 C 0.62714 0.7187 0.40073 0.0
C368 C 0.6246 0.73962 0.36485 0.0
C369 C 0.5998 0.73447 0.36613 0.0
C370 C 0.59249 0.74853 0.35318 0.0
C371 C 0.6105 0.76826 0.33899 0.0
C372 C 0.63562 0.77356 0.33796 0.0
C373 C 0.64216 0.75879 0.3505 0.0
C374 C 0.56549 0.74212 0.35442 0.0
C375 C 0.65559 0.79474 0.32354 0.0
C376 C 0.59085 0.9224 0.38439 0.0
C377 C 0.59843 0.90898 0.369 0.0
C378 C 0.58874 0.86845 0.36227 0.0
C379 C 0.61105 0.87521 0.34982 0.0
C380 C 0.61393 0.85815 0.33801 0.0
C381 C 0.59374 0.83395 0.33788 0.0
C382 C 0.57138 0.82706 0.35066 0.0
C383 C 0.56937 0.84437 0.363 0.0
C384 C 0.6385 0.86611 0.32549 0.0
C385 C 0.54946 0.80146 0.35104 0.0
C386 C 0.58878 0.86945 0.18303 0.0
C387 C 0.61127 0.87012 0.18836 0.0
C388 C 0.6108 0.85087 0.20038 0.0
C389 C 0.58738 0.83037 0.20698 0.0
C390 C 0.56467 0.82926 0.20089 0.0
C391 C 0.5657 0.8489 0.18907 0.0
C392 C 0.6354 0.85266 0.20656 0.0
C393 C 0.53941 0.8076 0.20749 0.0
C394 C 0.62083 0.69344 0.19814 0.0
C395 C 0.5949 0.68488 0.18677 0.0
C396 C 0.59363 0.72093 0.18512 0.0
C397 C 0.61397 0.74457 0.1842 0.0
C398 C 0.61316 0.76264 0.19632 0.0
C399 C 0.59104 0.75694 0.20894 0.0
C400 C 0.56992 0.73315 0.20883 0.0
C401 C 0.5716 0.71532 0.19718 0.0
C402 C 0.63607 0.78771 0.19585 0.0
C403 C 0.54563 0.72647 0.22118 0.0
C404 C 0.60305 0.78302 0.32467 0.0
C405 C 0.60113 0.80047 0.33664 0.0
C406 C 0.59573 0.81594 0.32396 0.0
C407 C 0.59263 0.81429 0.29848 0.0
C408 C 0.58797 0.82997 0.28499 0.0
C409 C 0.58622 0.829 0.25988 0.0
C410 C 0.58811 0.81172 0.24729 0.0
C411 C 0.58696 0.81098 0.22173 0.0
C412 C 0.58753 0.79277 0.20982 0.0
C413 C 0.59024 0.77568 0.22274 0.0
C414 C 0.59291 0.77703 0.24827 0.0
C415 C 0.59719 0.76111 0.26179 0.0
C416 C 0.60015 0.76281 0.28681 0.0
C417 C 0.59913 0.78061 0.29934 0.0
C418 C 0.59434 0.79656 0.28616 0.0
C419 C 0.59158 0.79498 0.26057 0.0
C420 C 0.60353 0.92638 0.15254 0.0
C421 C 0.60963 0.90981 0.1652 0.0
O422 O 0.63194 0.72596 0.37666 0.0
O423 O 0.59556 0.70373 0.17425 0.0
O424 O 0.58856 0.88821 0.17239 0.0
O425 O 0.58522 0.88452 0.37372 0.0
H426 H 0.61453 0.72392 0.40877 0.0
H427 H 0.66102 0.75122 0.4126 0.0
H428 H 0.66532 0.7266 0.40777 0.0
H429 H 0.64899 0.7269 0.43433 0.0
H430 H 0.58606 0.71918 0.37679 0.0
H431 H 0.66121 0.76244 0.34955 0.0
H432 H 0.56478 0.75643 0.36385 0.0
H433 H 0.55325 0.7249 0.36426 0.0
H434 H 0.55774 0.74088 0.33589 0.0
H435 H 0.67487 0.7987 0.32788 0.0
H436 H 0.65487 0.81091 0.32702 0.0
H437 H 0.65203 0.79097 0.30394 0.0
H438 H 0.59975 0.91338 0.34924 0.0
H439 H 0.62342 0.94453 0.40461 0.0
H440 H 0.57235 0.90872 0.39298 0.0
H441 H 0.58225 0.92965 0.37143 0.0
H442 H 0.62639 0.89373 0.3494 0.0
H443 H 0.55231 0.83925 0.37279 0.0
H444 H 0.64477 0.85344 0.32966 0.0
H445 H 0.6537 0.88434 0.33088 0.0
H446 H 0.63575 0.86628 0.30562 0.0
H447 H 0.53255 0.79944 0.35978 0.0
H448 H 0.555 0.79013 0.36113 0.0
H449 H 0.54439 0.79468 0.33231 0.0
H450 H 0.62428 0.91823 0.17971 0.0
H451 H 0.6293 0.88572 0.18351 0.0
H452 H 0.54843 0.84842 0.18473 0.0
H453 H 0.63721 0.85151 0.2265 0.0
H454 H 0.65203 0.86962 0.19979 0.0
H455 H 0.63561 0.83744 0.19866 0.0
H456 H 0.52344 0.8088 0.20006 0.0
H457 H 0.53771 0.8057 0.22749 0.0
H458 H 0.53794 0.79121 0.20062 0.0
H459 H 0.58076 0.6784 0.20156 0.0
H460 H 0.62062 0.67855 0.20829 0.0
H461 H 0.62585 0.70799 0.21103 0.0
H462 H 0.63554 0.70035 0.18394 0.0
H463 H 0.63079 0.74867 0.17456 0.0
H464 H 0.55569 0.69702 0.19732 0.0
H465 H 0.64066 0.79516 0.21434 0.0
H466 H 0.63198 0.79933 0.18434 0.0
H467 H 0.65287 0.78841 0.18844 0.0
H468 H 0.52981 0.70849 0.21589 0.0
H469 H 0.54038 0.73984 0.21674 0.0
H470 H 0.54825 0.72634 0.24108 0.0
H471 H 0.60416 0.80221 0.35606 0.0
H472 H 0.58607 0.8435 0.29364 0.0
H473 H 0.58319 0.84191 0.25048 0.0
H474 H 0.58637 0.79221 0.19022 0.0
H475 H 0.59853 0.74724 0.25318 0.0
H476 H 0.60338 0.75002 0.29621 0.0
H477 H 0.61136 0.94231 0.16462 0.0
H478 H 0.5832 0.91963 0.15668 0.0
H479 H 0.61657 0.92883 0.11733 0.0
C480 C 0.72042 0.63269 0.89497 0.0
C481 C 0.70085 0.60774 0.8854 0.0
C482 C 0.72422 0.58991 0.87049 0.0
C483 C 0.73821 0.60709 0.85242 0.0
C484 C 0.75442 0.60448 0.83733 0.0
C485 C 0.75538 0.58344 0.83927 0.0
C486 C 0.74031 0.56558 0.85672 0.0
C487 C 0.72545 0.56937 0.87246 0.0
C488 C 0.77086 0.62458 0.81979 0.0
C489 C 0.74005 0.54255 0.85911 0.0
C490 C 0.86989 0.57821 0.92718 0.0
C491 C 0.87337 0.56335 0.90859 0.0
C492 C 0.86522 0.57635 0.86969 0.0
C493 C 0.84331 0.55536 0.86207 0.0
C494 C 0.82639 0.55638 0.84572 0.0
C495 C 0.83156 0.57884 0.8367 0.0
C496 C 0.85434 0.59992 0.84332 0.0
C497 C 0.87105 0.59835 0.85957 0.0
C498 C 0.80259 0.53347 0.83859 0.0
C499 C 0.86058 0.62411 0.83385 0.0
C500 C 0.86241 0.57786 0.67824 0.0
C501 C 0.84234 0.55565 0.68654 0.0
C502 C 0.82268 0.55418 0.69996 0.0
C503 C 0.82309 0.57534 0.70502 0.0
C504 C 0.84279 0.59762 0.69584 0.0
C505 C 0.86211 0.59853 0.68234 0.0
C506 C 0.8016 0.53008 0.70894 0.0
C507 C 0.84365 0.62048 0.70067 0.0
C508 C 0.65522 0.57294 0.69851 0.0
C509 C 0.66569 0.57344 0.67349 0.0
C510 C 0.69711 0.56284 0.68487 0.0
C511 C 0.70017 0.54341 0.68817 0.0
C512 C 0.72136 0.54584 0.70031 0.0
C513 C 0.74036 0.56852 0.70886 0.0
C514 C 0.73788 0.58852 0.7048 0.0
C515 C 0.71614 0.58543 0.69316 0.0
C516 C 0.72329 0.52409 0.70419 0.0
C517 C 0.75816 0.61317 0.71284 0.0
C518 C 0.77312 0.58072 0.82408 0.0
C519 C 0.79401 0.58208 0.83554 0.0
C520 C 0.81187 0.58026 0.82253 0.0
C521 C 0.80983 0.57856 0.79704 0.0
C522 C 0.82832 0.57834 0.78316 0.0
C523 C 0.82631 0.57712 0.75803 0.0
C524 C 0.80543 0.57547 0.74587 0.0
C525 C 0.80322 0.57425 0.72035 0.0
C526 C 0.782 0.57221 0.7089 0.0
C527 C 0.76263 0.5712 0.72225 0.0
C528 C 0.76463 0.57263 0.74779 0.0
C529 C 0.7455 0.57152 0.76187 0.0
C530 C 0.74809 0.57388 0.78688 0.0
C531 C 0.7698 0.57726 0.79881 0.0
C532 C 0.78865 0.57699 0.78516 0.0
C533 C 0.78623 0.57502 0.75958 0.0
C534 C 0.91943 0.58495 0.68404 0.0
C535 C 0.89431 0.56787 0.67147 0.0
O536 O 0.71009 0.59269 0.88693 0.0
O537 O 0.67561 0.55888 0.67367 0.0
O538 O 0.88207 0.57991 0.66588 0.0
O539 O 0.88101 0.57589 0.88669 0.0
H540 H 0.69657 0.60992 0.86619 0.0
H541 H 0.73592 0.64283 0.88187 0.0
H542 H 0.72901 0.63136 0.91224 0.0
H543 H 0.71149 0.64323 0.8978 0.0
H544 H 0.73721 0.62292 0.85035 0.0
H545 H 0.7145 0.55614 0.88637 0.0
H546 H 0.78997 0.62734 0.81867 0.0
H547 H 0.7729 0.64171 0.82502 0.0
H548 H 0.76215 0.62011 0.8015 0.0
H549 H 0.72316 0.52847 0.86901 0.0
H550 H 0.75706 0.5459 0.86933 0.0
H551 H 0.74042 0.53574 0.84105 0.0
H552 H 0.85488 0.54635 0.90649 0.0
H553 H 0.86419 0.56854 0.94491 0.0
H554 H 0.85484 0.58137 0.92094 0.0
H555 H 0.88763 0.59582 0.9296 0.0
H556 H 0.83933 0.53816 0.8689 0.0
H557 H 0.88827 0.61442 0.86519 0.0
H558 H 0.80082 0.53245 0.81857 0.0
H559 H 0.78595 0.53332 0.84557 0.0
H560 H 0.80217 0.51735 0.84578 0.0
H561 H 0.87975 0.63864 0.83943 0.0
H562 H 0.84657 0.62805 0.84069 0.0
H563 H 0.85931 0.62402 0.81378 0.0
H564 H 0.88317 0.55281 0.68446 0.0
H565 H 0.84184 0.53943 0.68237 0.0
H566 H 0.87746 0.61552 0.67545 0.0
H567 H 0.80148 0.5297 0.72903 0.0
H568 H 0.80346 0.5152 0.70265 0.0
H569 H 0.78315 0.52707 0.70264 0.0
H570 H 0.86027 0.63638 0.69227 0.0
H571 H 0.84428 0.62314 0.72049 0.0
H572 H 0.82623 0.61919 0.69351 0.0
H573 H 0.68067 0.5921 0.6686 0.0
H574 H 0.64722 0.58453 0.6985 0.0
H575 H 0.67046 0.5797 0.71237 0.0
H576 H 0.64023 0.55438 0.70368 0.0
H577 H 0.68553 0.5261 0.6816 0.0
H578 H 0.71433 0.60078 0.69055 0.0
H579 H 0.72721 0.5223 0.72355 0.0
H580 H 0.73926 0.52623 0.69351 0.0
H581 H 0.7058 0.50736 0.69862 0.0
H582 H 0.75529 0.62732 0.70514 0.0
H583 H 0.77705 0.61712 0.70741 0.0
H584 H 0.75808 0.61392 0.73287 0.0
H585 H 0.79622 0.58424 0.855 0.0
H586 H 0.84474 0.57951 0.79158 0.0
H587 H 0.84132 0.57738 0.74825 0.0
H588 H 0.78049 0.57129 0.68932 0.0
H589 H 0.7284 0.56906 0.75371 0.0
H590 H 0.73283 0.57306 0.79675 0.0
H591 H 0.92968 0.57572 0.68843 0.0
H592 H 0.91589 0.5911 0.7012 0.0
H593 H 0.93151 0.6009 0.67238 0.0
C594 C 0.13912 0.70585 0.42534 0.0
C595 C 0.13159 0.68543 0.40771 0.0
C596 C 0.16601 0.70612 0.37805 0.0
C597 C 0.15818 0.72094 0.36768 0.0
C598 C 0.1737 0.73956 0.35138 0.0
C599 C 0.19736 0.74327 0.345 0.0
C600 C 0.20472 0.72764 0.35442 0.0
C601 C 0.18892 0.70928 0.3708 0.0
C602 C 0.16519 0.75579 0.34155 0.0
C603 C 0.22968 0.73087 0.34778 0.0
C604 C 0.2907 0.89393 0.42409 0.0
C605 C 0.30572 0.88259 0.41719 0.0
C606 C 0.29583 0.86637 0.37716 0.0
C607 C 0.30521 0.85245 0.36966 0.0
C608 C 0.29085 0.83296 0.3544 0.0
C609 C 0.26678 0.82767 0.34631 0.0
C610 C 0.25759 0.84218 0.35348 0.0
C611 C 0.2723 0.86144 0.36884 0.0
C612 C 0.30118 0.81783 0.34722 0.0
C613 C 0.23205 0.83709 0.34522 0.0
C614 C 0.32252 0.85826 0.18688 0.0
C615 C 0.32272 0.83936 0.19919 0.0
C616 C 0.30244 0.82301 0.21378 0.0
C617 C 0.28129 0.82531 0.21602 0.0
C618 C 0.28104 0.84438 0.20394 0.0
C619 C 0.30175 0.86069 0.18963 0.0
C620 C 0.30341 0.80291 0.22646 0.0
C621 C 0.25874 0.84728 0.2059 0.0
C622 C 0.10945 0.67729 0.17015 0.0
C623 C 0.13252 0.68925 0.15337 0.0
C624 C 0.16864 0.71015 0.18149 0.0
C625 C 0.18966 0.71044 0.19111 0.0
C626 C 0.20659 0.72854 0.20673 0.0
C627 C 0.20223 0.74674 0.21297 0.0
C628 C 0.18082 0.74643 0.2036 0.0
C629 C 0.16423 0.72816 0.18795 0.0
C630 C 0.22932 0.72841 0.21629 0.0
C631 C 0.17565 0.7656 0.20995 0.0
C632 C 0.21551 0.76485 0.33057 0.0
C633 C 0.23239 0.78541 0.34333 0.0
C634 C 0.2506 0.80631 0.33138 0.0
C635 C 0.25259 0.8067 0.30592 0.0
C636 C 0.27137 0.82709 0.29336 0.0
C637 C 0.27358 0.82705 0.26834 0.0
C638 C 0.25657 0.80691 0.25486 0.0
C639 C 0.25881 0.80655 0.22948 0.0
C640 C 0.24063 0.7868 0.2165 0.0
C641 C 0.22075 0.76683 0.22822 0.0
C642 C 0.21908 0.7662 0.25374 0.0
C643 C 0.20022 0.74584 0.26626 0.0
C644 C 0.19913 0.74524 0.29144 0.0
C645 C 0.21645 0.7652 0.305 0.0
C646 C 0.23529 0.78613 0.29268 0.0
C647 C 0.2369 0.78646 0.26707 0.0
C648 C 0.38285 0.88456 0.18658 0.0
C649 C 0.36306 0.87406 0.16614 0.0
O650 O 0.15254 0.68906 0.39537 0.0
O651 O 0.15321 0.69214 0.1663 0.0
O652 O 0.34175 0.87435 0.17227 0.0
O653 O 0.30959 0.88462 0.39244 0.0
H654 H 0.1176 0.68476 0.39446 0.0
H655 H 0.14649 0.72313 0.41547 0.0
H656 H 0.15399 0.70772 0.43813 0.0
H657 H 0.12245 0.70232 0.43585 0.0
H658 H 0.14025 0.7185 0.37252 0.0
H659 H 0.19475 0.69765 0.37858 0.0
H660 H 0.17823 0.77424 0.34801 0.0
H661 H 0.14573 0.74985 0.34721 0.0
H662 H 0.16594 0.75648 0.32148 0.0
H663 H 0.23175 0.71609 0.35501 0.0
H664 H 0.24529 0.74801 0.3551 0.0
H665 H 0.23167 0.73187 0.3278 0.0
H666 H 0.29435 0.86334 0.42285 0.0
H667 H 0.28948 0.89426 0.44409 0.0
H668 H 0.2712 0.88326 0.41676 0.0
H669 H 0.29961 0.91247 0.41669 0.0
H670 H 0.32359 0.85666 0.37614 0.0
H671 H 0.26544 0.87261 0.37449 0.0
H672 H 0.30354 0.81887 0.32729 0.0
H673 H 0.28763 0.79881 0.35222 0.0
H674 H 0.31969 0.82365 0.35596 0.0
H675 H 0.22869 0.85136 0.35045 0.0
H676 H 0.21711 0.81988 0.35342 0.0
H677 H 0.23024 0.83523 0.32526 0.0
H678 H 0.35782 0.85532 0.1633 0.0
H679 H 0.33848 0.837 0.1975 0.0
H680 H 0.30165 0.87528 0.1802 0.0
H681 H 0.30089 0.80338 0.24622 0.0
H682 H 0.32149 0.80392 0.22343 0.0
H683 H 0.2877 0.78545 0.21988 0.0
H684 H 0.262 0.86382 0.19657 0.0
H685 H 0.25457 0.84777 0.22524 0.0
H686 H 0.24182 0.83162 0.1978 0.0
H687 H 0.13605 0.7069 0.14699 0.0
H688 H 0.09386 0.6788 0.16222 0.0
H689 H 0.11424 0.68624 0.1879 0.0
H690 H 0.10289 0.65816 0.17349 0.0
H691 H 0.1929 0.69647 0.18612 0.0
H692 H 0.14792 0.72814 0.18096 0.0
H693 H 0.22981 0.72898 0.23636 0.0
H694 H 0.24678 0.74463 0.20957 0.0
H695 H 0.22939 0.71236 0.21067 0.0
H696 H 0.15775 0.76246 0.2018 0.0
H697 H 0.19141 0.7833 0.20353 0.0
H698 H 0.17464 0.76638 0.22991 0.0
H699 H 0.23127 0.78516 0.36291 0.0
H700 H 0.28482 0.84319 0.3028 0.0
H701 H 0.28862 0.84309 0.25963 0.0
H702 H 0.24232 0.78672 0.19701 0.0
H703 H 0.18631 0.73002 0.25672 0.0
H704 H 0.18443 0.729 0.30018 0.0
H705 H 0.38769 0.90288 0.191 0.0
H706 H 0.40028 0.88526 0.18117 0.0
H707 H 0.37569 0.87338 0.20329 0.0
C708 C 0.40539 0.08832 0.6652 0.0
C709 C 0.42331 0.11097 0.65047 0.0
C710 C 0.43949 0.14395 0.67948 0.0
C711 C 0.46098 0.1609 0.69207 0.0
C712 C 0.46074 0.1782 0.70619 0.0
C713 C 0.43825 0.17838 0.70796 0.0
C714 C 0.41619 0.1609 0.6958 0.0
C715 C 0.41701 0.14388 0.68165 0.0
C716 C 0.48469 0.19662 0.71877 0.0
C717 C 0.39185 0.16045 0.69748 0.0
C718 C 0.49405 0.34149 0.61768 0.0
C719 C 0.49301 0.32435 0.63638 0.0
C720 C 0.46501 0.29542 0.66677 0.0
C721 C 0.4399 0.28033 0.67379 0.0
C722 C 0.43307 0.26195 0.69111 0.0
C723 C 0.45198 0.25895 0.70192 0.0
C724 C 0.47757 0.27489 0.69575 0.0
C725 C 0.48381 0.29286 0.67818 0.0
C726 C 0.40563 0.24525 0.69731 0.0
C727 C 0.49829 0.27243 0.70715 0.0
C728 C 0.45168 0.29853 0.8632 0.0
C729 C 0.42711 0.27907 0.85877 0.0
C730 C 0.42295 0.26039 0.84379 0.0
C731 C 0.44376 0.26092 0.8333 0.0
C732 C 0.46848 0.28065 0.83747 0.0
C733 C 0.47204 0.29935 0.85209 0.0
C734 C 0.3963 0.23976 0.83965 0.0
C735 C 0.49123 0.28167 0.82711 0.0
C736 C 0.41536 0.0878 0.86048 0.0
C737 C 0.43358 0.10993 0.87519 0.0
C738 C 0.42531 0.14172 0.8671 0.0
C739 C 0.40422 0.14317 0.8616 0.0
C740 C 0.40643 0.16212 0.84732 0.0
C741 C 0.43044 0.18021 0.83878 0.0
C742 C 0.45204 0.17943 0.84527 0.0
C743 C 0.44925 0.16021 0.85943 0.0
C744 C 0.38309 0.16263 0.841 0.0
C745 C 0.47803 0.19883 0.83709 0.0
C746 C 0.43842 0.19803 0.72087 0.0
C747 C 0.44263 0.21785 0.70707 0.0
C748 C 0.44503 0.23791 0.71787 0.0
C749 C 0.44288 0.23827 0.74325 0.0
C750 C 0.4453 0.2582 0.75475 0.0
C751 C 0.44387 0.25861 0.77984 0.0
C752 C 0.44031 0.23925 0.7944 0.0
C753 C 0.43983 0.23983 0.81998 0.0
C754 C 0.43621 0.22018 0.83378 0.0
C755 C 0.43305 0.19988 0.82287 0.0
C756 C 0.43347 0.19893 0.79737 0.0
C757 C 0.43041 0.17875 0.78582 0.0
C758 C 0.43171 0.17828 0.76075 0.0
C759 C 0.43612 0.19796 0.74628 0.0
C760 C 0.43855 0.21825 0.75751 0.0
C761 C 0.4373 0.21876 0.7831 0.0
C762 C 0.45154 0.3355 0.91272 0.0
C763 C 0.4396 0.31629 0.89438 0.0
O764 O 0.44149 0.12826 0.66555 0.0
O765 O 0.422 0.12246 0.88001 0.0
O766 O 0.45655 0.31653 0.87831 0.0
O767 O 0.47034 0.31184 0.64874 0.0
H768 H 0.4123 0.1179 0.6414 0.0
H769 H 0.39562 0.09228 0.67914 0.0
H770 H 0.41599 0.08107 0.67446 0.0
H771 H 0.39083 0.07444 0.65316 0.0
H772 H 0.47818 0.16077 0.69045 0.0
H773 H 0.40005 0.13076 0.67232 0.0
H774 H 0.48983 0.21486 0.71278 0.0
H775 H 0.50077 0.19439 0.71509 0.0
H776 H 0.48164 0.19524 0.73861 0.0
H777 H 0.37573 0.14436 0.68903 0.0
H778 H 0.39406 0.17662 0.68825 0.0
H779 H 0.38737 0.16091 0.71673 0.0
H780 H 0.49962 0.31256 0.63023 0.0
H781 H 0.49575 0.33438 0.59998 0.0
H782 H 0.52216 0.37489 0.63074 0.0
H783 H 0.47401 0.33656 0.61433 0.0
H784 H 0.42552 0.28254 0.66509 0.0
H785 H 0.5034 0.30464 0.67327 0.0
H786 H 0.40304 0.2451 0.71714 0.0
H787 H 0.39954 0.22675 0.69219 0.0
H788 H 0.39326 0.25042 0.68792 0.0
H789 H 0.51737 0.28791 0.70268 0.0
H790 H 0.49678 0.25593 0.70059 0.0
H791 H 0.49623 0.27072 0.72713 0.0
H792 H 0.4225 0.31428 0.88527 0.0
H793 H 0.4111 0.27824 0.86706 0.0
H794 H 0.49091 0.31443 0.85555 0.0
H795 H 0.39306 0.23525 0.82017 0.0
H796 H 0.38207 0.24374 0.84575 0.0
H797 H 0.3934 0.22376 0.84985 0.0
H798 H 0.50925 0.2973 0.83363 0.0
H799 H 0.49068 0.28281 0.80708 0.0
H800 H 0.49096 0.26507 0.83205 0.0
H801 H 0.45038 0.12058 0.86348 0.0
H802 H 0.42356 0.07664 0.85754 0.0
H803 H 0.41193 0.09352 0.84249 0.0
H804 H 0.39688 0.07697 0.8697 0.0
H805 H 0.38589 0.12903 0.86799 0.0
H806 H 0.46583 0.1598 0.86463 0.0
H807 H 0.38094 0.16292 0.82103 0.0
H808 H 0.38509 0.17923 0.84794 0.0
H809 H 0.36572 0.14697 0.84869 0.0
H810 H 0.49305 0.19625 0.84469 0.0
H811 H 0.48189 0.21657 0.8426 0.0
H812 H 0.47893 0.19908 0.81704 0.0
H813 H 0.44483 0.21796 0.68763 0.0
H814 H 0.44839 0.27372 0.74444 0.0
H815 H 0.44587 0.27441 0.78774 0.0
H816 H 0.43617 0.22082 0.85338 0.0
H817 H 0.42714 0.16313 0.79604 0.0
H818 H 0.4294 0.16236 0.75284 0.0
H819 H 0.44351 0.34706 0.90882 0.0
H820 H 0.47094 0.34911 0.9058 0.0
H821 H 0.44557 0.31668 0.94552 0.0
C822 C 0.04748 0.48449 0.06499 0.0
C823 C 0.06347 0.49192 0.04491 0.0
C824 C 0.05324 0.47623 0.08641 0.0
C825 C 0.07554 0.47551 0.08773 0.0
C826 C 0.09151 0.48268 0.0674 0.0
C827 C 0.08526 0.49071 0.0463 0.0
C828 C 0.03568 0.46856 0.1077 0.0
C829 C 0.11551 0.48228 0.06805 0.0
C830 C 0.10688 0.47807 0.14814 0.0
C831 C 0.10043 0.45431 0.15145 0.0
C832 C 0.09833 0.48508 0.12781 0.0
C833 C 0.08274 0.46786 0.11046 0.0
C834 C 0.07567 0.44372 0.11399 0.0
C835 C 0.0847 0.43726 0.13437 0.0
C836 C 0.10652 0.51104 0.12458 0.0
C837 C 0.059 0.42482 0.09597 0.0
H838 H 0.03061 0.48535 0.06407 0.0
H839 H 0.09776 0.49635 0.0309 0.0
H840 H 0.02967 0.45005 0.11351 0.0
H841 H 0.04571 0.48031 0.12325 0.0
H842 H 0.01862 0.46927 0.10347 0.0
H843 H 0.12567 0.48808 0.05054 0.0
H844 H 0.12831 0.49425 0.0824 0.0
H845 H 0.11116 0.46398 0.07257 0.0
H846 H 0.1189 0.49128 0.16135 0.0
H847 H 0.07961 0.41886 0.13693 0.0
H848 H 0.0898 0.51266 0.12202 0.0
H849 H 0.1182 0.51862 0.10807 0.0
H850 H 0.11766 0.52197 0.14027 0.0
H851 H 0.0415 0.42497 0.09261 0.0
H852 H 0.05374 0.4066 0.10224 0.0
H853 H 0.06891 0.42877 0.07844 0.0
C854 C 0.58888 0.06209 0.57705 0.0
C855 C 0.57299 0.03858 0.56912 0.0
C856 C 0.6073 0.06762 0.59489 0.0
C857 C 0.61002 0.04919 0.6051 0.0
C858 C 0.59337 0.02522 0.59796 0.0
C859 C 0.57495 0.02016 0.58004 0.0
C860 C 0.62451 0.09337 0.60212 0.0
C861 C 0.59565 0.00508 0.60855 0.0
C862 C 0.67552 0.06913 0.62918 0.0
C863 C 0.67283 0.0711 0.65399 0.0
C864 C 0.65507 0.06157 0.61315 0.0
C865 C 0.63126 0.05542 0.62219 0.0
C866 C 0.62825 0.05671 0.6473 0.0
C867 C 0.64908 0.06451 0.6629 0.0
C868 C 0.65906 0.06051 0.58646 0.0
C869 C 0.60312 0.05012 0.65765 0.0
H870 H 0.5873 0.0764 0.56889 0.0
H871 H 0.56275 0.00197 0.57397 0.0
H872 H 0.6244 0.09493 0.62204 0.0
H873 H 0.64418 0.09975 0.59685 0.0
H874 H 0.61896 0.10536 0.59348 0.0
H875 H 0.57994 0.98727 0.6027 0.0
H876 H 0.61373 0.00732 0.60283 0.0
H877 H 0.59594 0.00554 0.6286 0.0
H878 H 0.69367 0.07358 0.6223 0.0
H879 H 0.64683 0.06547 0.68215 0.0
H880 H 0.65544 0.07315 0.57626 0.0
H881 H 0.6455 0.04233 0.57968 0.0
H882 H 0.67852 0.06511 0.58246 0.0
H883 H 0.59751 0.06251 0.65031 0.0
H884 H 0.6036 0.05089 0.67772 0.0
H885 H 0.5883 0.03181 0.65217 0.0
C886 C 0.58617 0.57956 0.10931 0.0
C887 C 0.56267 0.56526 0.09788 0.0
C888 C 0.59126 0.59924 0.12319 0.0
C889 C 0.57251 0.60498 0.12557 0.0
C890 C 0.54887 0.59082 0.11393 0.0
C891 C 0.54419 0.5711 0.10039 0.0
C892 C 0.61668 0.61381 0.13545 0.0
C893 C 0.52841 0.59641 0.11592 0.0
C894 C 0.57633 0.64093 0.17998 0.0
C895 C 0.58761 0.66417 0.17013 0.0
C896 C 0.57121 0.62153 0.16567 0.0
C897 C 0.5774 0.62539 0.1408 0.0
C898 C 0.58862 0.64877 0.13064 0.0
C899 C 0.59392 0.66794 0.14549 0.0
C900 C 0.55959 0.59697 0.1773 0.0
C901 C 0.59528 0.65358 0.10415 0.0
H902 H 0.60075 0.57553 0.10728 0.0
H903 H 0.52583 0.56007 0.09205 0.0
H904 H 0.62618 0.63274 0.12919 0.0
H905 H 0.6142 0.61354 0.1553 0.0
H906 H 0.62924 0.60703 0.1318 0.0
H907 H 0.5114 0.58422 0.10502 0.0
H908 H 0.52276 0.5949 0.1351 0.0
H909 H 0.53563 0.6151 0.10978 0.0
H910 H 0.57195 0.63804 0.19911 0.0
H911 H 0.60318 0.6859 0.13784 0.0
H912 H 0.57245 0.59026 0.17539 0.0
H913 H 0.54165 0.58423 0.16799 0.0
H914 H 0.55571 0.59695 0.19683 0.0
H915 H 0.60955 0.64902 0.09995 0.0
H916 H 0.60291 0.67256 0.09883 0.0
H917 H 0.57834 0.64205 0.0929 0.0
C918 C 0.95188 0.52847 0.56962 0.0
C919 C 0.93615 0.5171 0.54965 0.0
C920 C 0.94405 0.53688 0.58844 0.0
C921 C 0.91981 0.53375 0.58738 0.0
C922 C 0.9039 0.52251 0.56716 0.0
C923 C 0.91233 0.51441 0.54845 0.0
C924 C 0.96171 0.54902 0.60955 0.0
C925 C 0.87788 0.51875 0.56547 0.0
C926 C 0.89329 0.53485 0.64818 0.0
C927 C 0.89872 0.55839 0.64865 0.0
C928 C 0.89919 0.52632 0.62795 0.0
C929 C 0.91106 0.5418 0.6078 0.0
C930 C 0.91607 0.56543 0.60792 0.0
C931 C 0.90982 0.57344 0.62835 0.0
C932 C 0.89347 0.50099 0.62847 0.0
C933 C 0.92887 0.58251 0.58686 0.0
H934 H 0.97052 0.53107 0.57039 0.0
H935 H 0.90009 0.50553 0.5331 0.0
H936 H 0.96513 0.56722 0.61168 0.0
H937 H 0.95297 0.53882 0.62653 0.0
H938 H 0.98017 0.55056 0.60733 0.0
H939 H 0.86806 0.5102 0.5483 0.0
H940 H 0.86625 0.50729 0.58084 0.0
H941 H 0.87912 0.53612 0.56681 0.0
H942 H 0.88485 0.52321 0.66388 0.0
H943 H 0.91417 0.59169 0.62874 0.0
H944 H 0.91137 0.50121 0.6284 0.0
H945 H 0.88264 0.49146 0.61206 0.0
H946 H 0.88253 0.49072 0.64471 0.0
H947 H 0.94833 0.5863 0.585 0.0
H948 H 0.92991 0.59973 0.5891 0.0
H949 H 0.91866 0.57433 0.56976 0.0
C950 C 0.46431 0.9542 0.06953 0.0
C951 C 0.45729 0.96275 0.04929 0.0
C952 C 0.44643 0.93867 0.08656 0.0
C953 C 0.42069 0.9309 0.08302 0.0
C954 C 0.41323 0.93837 0.06196 0.0
C955 C 0.43168 0.9545 0.04549 0.0
C956 C 0.45529 0.93144 0.10894 0.0
C957 C 0.38589 0.92992 0.05717 0.0
C958 C 0.37765 0.87725 0.12298 0.0
C959 C 0.37418 0.88817 0.14275 0.0
C960 C 0.39119 0.89071 0.10254 0.0
C961 C 0.40204 0.91578 0.10205 0.0
C962 C 0.39735 0.9267 0.12131 0.0
C963 C 0.38316 0.9127 0.14126 0.0
C964 C 0.39504 0.87826 0.08206 0.0
C965 C 0.40875 0.95341 0.12163 0.0
H966 H 0.48406 0.9606 0.07276 0.0
H967 H 0.4261 0.96098 0.02987 0.0
H968 H 0.45069 0.93779 0.1253 0.0
H969 H 0.44536 0.91168 0.11049 0.0
H970 H 0.47594 0.93887 0.10886 0.0
H971 H 0.38284 0.93488 0.03863 0.0
H972 H 0.37388 0.91021 0.05957 0.0
H973 H 0.37948 0.93797 0.07038 0.0
H974 H 0.37049 0.85825 0.12384 0.0
H975 H 0.38019 0.92115 0.15629 0.0
H976 H 0.41481 0.88262 0.08235 0.0
H977 H 0.3918 0.88456 0.06435 0.0
H978 H 0.38227 0.85851 0.08341 0.0
H979 H 0.42958 0.96259 0.1233 0.0
H980 H 0.40167 0.95887 0.1369 0.0
H981 H 0.40457 0.95974 0.10444 0.0
C982 C 0.49562 0.3994 0.53959 0.0
C983 C 0.51232 0.42431 0.53951 0.0
C984 C 0.49506 0.38509 0.55917 0.0
C985 C 0.51155 0.39594 0.57904 0.0
C986 C 0.52851 0.42097 0.57905 0.0
C987 C 0.52876 0.43485 0.55927 0.0
C988 C 0.47677 0.3584 0.55867 0.0
C989 C 0.54638 0.43313 0.6 0.0
C990 C 0.49327 0.36053 0.65198 0.0
C991 C 0.5111 0.3454 0.6479 0.0
C992 C 0.49222 0.37665 0.62558 0.0
C993 C 0.51156 0.38128 0.5996 0.0
C994 C 0.53383 0.37166 0.59946 0.0
C995 C 0.53627 0.3554 0.62494 0.0
C996 C 0.47539 0.38635 0.62525 0.0
C997 C 0.55024 0.37711 0.57803 0.0
H998 H 0.48263 0.39112 0.5246 0.0
H999 H 0.542 0.454 0.55924 0.0
H1000 H 0.48735 0.34915 0.55964 0.0
H1001 H 0.46432 0.35256 0.57472 0.0
H1002 H 0.46483 0.35272 0.54207 0.0
H1003 H 0.55809 0.45287 0.59745 0.0
H1004 H 0.53553 0.42899 0.617 0.0
H1005 H 0.55908 0.42617 0.60228 0.0
H1006 H 0.4805 0.35606 0.66693 0.0
H1007 H 0.54789 0.34774 0.6242 0.0
H1008 H 0.46255 0.37935 0.60935 0.0
H1009 H 0.48699 0.40611 0.62319 0.0
H1010 H 0.46429 0.3813 0.64216 0.0
H1011 H 0.53827 0.37011 0.56156 0.0
H1012 H 0.56191 0.36904 0.58037 0.0
H1013 H 0.56261 0.39678 0.57562 0.0
C1014 C 0.55634 0.97249 0.43766 0.0
C1015 C 0.57353 0.99281 0.45071 0.0
C1016 C 0.56436 0.9592 0.42544 0.0
C1017 C 0.58996 0.96605 0.42693 0.0
C1018 C 0.6072 0.98613 0.4407 0.0
C1019 C 0.59887 0.99953 0.45207 0.0
C1020 C 0.54561 0.93823 0.41048 0.0
C1021 C 0.63439 0.99327 0.44373 0.0
C1022 C 0.60991 0.91139 0.41382 0.0
C1023 C 0.62101 0.92169 0.38226 0.0
C1024 C 0.59657 0.92659 0.428 0.0
C1025 C 0.59903 0.9528 0.41377 0.0
C1026 C 0.61624 0.96579 0.38596 0.0
C1027 C 0.63027 0.95195 0.37046 0.0
C1028 C 0.5842 0.91789 0.45201 0.0
C1029 C 0.61866 0.98799 0.37545 0.0
H1030 H 0.53676 0.96738 0.43661 0.0
H1031 H 0.61202 0.01499 0.46254 0.0
H1032 H 0.55186 0.94139 0.39135 0.0
H1033 H 0.54482 0.92177 0.41699 0.0
H1034 H 0.52634 0.93517 0.41118 0.0
H1035 H 0.64468 0.00774 0.45706 0.0
H1036 H 0.63537 0.97756 0.44975 0.0
H1037 H 0.64417 0.99959 0.42611 0.0
H1038 H 0.60718 0.89482 0.42123 0.0
H1039 H 0.63863 0.95834 0.35279 0.0
H1040 H 0.56359 0.90989 0.44978 0.0
H1041 H 0.59135 0.93319 0.46438 0.0
H1042 H 0.58778 0.90425 0.45982 0.0
H1043 H 0.60164 0.98852 0.37956 0.0
H1044 H 0.62149 0.98883 0.35561 0.0
H1045 H 0.6353 0.00378 0.38362 0.0
C1046 C 0.58448 0.51587 0.96414 0.0
C1047 C 0.57037 0.5243 0.97449 0.0
C1048 C 0.60331 0.52974 0.94718 0.0
C1049 C 0.60841 0.55279 0.94064 0.0
C1050 C 0.59323 0.56086 0.94994 0.0
C1051 C 0.5742 0.54639 0.9667 0.0
C1052 C 0.61877 0.52027 0.93744 0.0
C1053 C 0.59818 0.58536 0.94344 0.0
C1054 C 0.67714 0.59546 0.92517 0.0
C1055 C 0.67655 0.59604 0.89977 0.0
C1056 C 0.65489 0.58264 0.93861 0.0
C1057 C 0.63144 0.56924 0.92642 0.0
C1058 C 0.63058 0.56979 0.90082 0.0
C1059 C 0.65316 0.58321 0.8878 0.0
C1060 C 0.65664 0.5826 0.96591 0.0
C1061 C 0.606 0.55531 0.88719 0.0
H1062 H 0.58135 0.49864 0.9699 0.0
H1063 H 0.56335 0.55298 0.97473 0.0
H1064 H 0.62041 0.52262 0.91749 0.0
H1065 H 0.63814 0.5305 0.94514 0.0
H1066 H 0.61049 0.50102 0.94205 0.0
H1067 H 0.58282 0.58774 0.94961 0.0
H1068 H 0.61612 0.59915 0.95204 0.0
H1069 H 0.60036 0.5886 0.9236 0.0
H1070 H 0.69505 0.60454 0.93468 0.0
H1071 H 0.6526 0.58306 0.8682 0.0
H1072 H 0.65155 0.56459 0.97267 0.0
H1073 H 0.64311 0.58663 0.9738 0.0
H1074 H 0.6759 0.59586 0.97259 0.0
H1075 H 0.59878 0.53598 0.88978 0.0
H1076 H 0.60817 0.55959 0.86748 0.0
H1077 H 0.59156 0.55848 0.89435 0.0
C1078 C 0.05744 0.58159 0.50552 0.0
C1079 C 0.05072 0.55874 0.49809 0.0
C1080 C 0.07336 0.60205 0.49139 0.0
C1081 C 0.08262 0.59961 0.46914 0.0
C1082 C 0.07719 0.57678 0.46229 0.0
C1083 C 0.06143 0.55664 0.47691 0.0
C1084 C 0.07905 0.62612 0.49958 0.0
C1085 C 0.08661 0.57335 0.43872 0.0
C1086 C 0.09319 0.64608 0.42087 0.0
C1087 C 0.11943 0.66183 0.42175 0.0
C1088 C 0.08116 0.62541 0.43564 0.0
C1089 C 0.09565 0.62047 0.45202 0.0
C1090 C 0.12222 0.636 0.45265 0.0
C1091 C 0.1338 0.65647 0.43747 0.0
C1092 C 0.0528 0.60921 0.43418 0.0
C1093 C 0.13831 0.63146 0.46994 0.0
H1094 H 0.04943 0.58343 0.52193 0.0
H1095 H 0.05639 0.53908 0.47095 0.0
H1096 H 0.09956 0.63956 0.49833 0.0
H1097 H 0.06918 0.63238 0.48753 0.0
H1098 H 0.0729 0.62543 0.51847 0.0
H1099 H 0.08329 0.55509 0.43737 0.0
H1100 H 0.07673 0.57628 0.42341 0.0
H1101 H 0.10707 0.58662 0.43664 0.0
H1102 H 0.08195 0.65022 0.40894 0.0
H1103 H 0.15407 0.66872 0.43837 0.0
H1104 H 0.04433 0.60925 0.45162 0.0
H1105 H 0.04749 0.59054 0.43098 0.0
H1106 H 0.04446 0.6148 0.41952 0.0
H1107 H 0.13376 0.63305 0.48883 0.0
H1108 H 0.1588 0.64426 0.46702 0.0
H1109 H 0.13418 0.613 0.46797 0.0
C1110 C 0.50562 0.07737 0.97175 0.0
C1111 C 0.49863 0.07543 0.9961 0.0
C1112 C 0.49484 0.0845 0.95363 0.0
C1113 C 0.47712 0.09061 0.95998 0.0
C1114 C 0.47109 0.09018 0.98462 0.0
C1115 C 0.48172 0.08237 0.00237 0.0
C1116 C 0.50171 0.08459 0.92755 0.0
C1117 C 0.45278 0.09719 0.99214 0.0
C1118 C 0.46459 0.12343 0.90975 0.0
C1119 C 0.4429 0.10467 0.89874 0.0
C1120 C 0.4752 0.11945 0.93057 0.0
C1121 C 0.46398 0.09604 0.94052 0.0
C1122 C 0.44134 0.07724 0.93034 0.0
C1123 C 0.43084 0.08183 0.90982 0.0
C1124 C 0.49896 0.14011 0.94132 0.0
C1125 C 0.42885 0.05197 0.94036 0.0
H1126 H 0.51925 0.07287 0.96667 0.0
H1127 H 0.47612 0.081 0.02103 0.0
H1128 H 0.48462 0.07167 0.91719 0.0
H1129 H 0.50904 0.10252 0.91912 0.0
H1130 H 0.51615 0.07974 0.92569 0.0
H1131 H 0.45262 0.0989 0.01206 0.0
H1132 H 0.45757 0.11442 0.98336 0.0
H1133 H 0.43345 0.08348 0.98613 0.0
H1134 H 0.47364 0.14122 0.90167 0.0
H1135 H 0.41365 0.0672 0.90219 0.0
H1136 H 0.51511 0.13796 0.93789 0.0
H1137 H 0.49716 0.14035 0.96122 0.0
H1138 H 0.5034 0.15761 0.93348 0.0
H1139 H 0.44151 0.0451 0.93794 0.0
H1140 H 0.41053 0.03966 0.93131 0.0
H1141 H 0.42557 0.05162 0.96005 0.0
C1142 C 0.44483 0.51996 0.48406 0.0
C1143 C 0.4539 0.5049 0.47989 0.0
C1144 C 0.42265 0.51606 0.47264 0.0
C1145 C 0.40955 0.49697 0.45636 0.0
C1146 C 0.41846 0.48161 0.45224 0.0
C1147 C 0.44039 0.48562 0.46418 0.0
C1148 C 0.41316 0.5323 0.47807 0.0
C1149 C 0.40514 0.46122 0.43484 0.0
C1150 C 0.32781 0.46828 0.44307 0.0
C1151 C 0.33209 0.48171 0.41218 0.0
C1152 C 0.35627 0.47287 0.45715 0.0
C1153 C 0.38667 0.49314 0.44369 0.0
C1154 C 0.39016 0.51086 0.41681 0.0
C1155 C 0.36282 0.50762 0.40139 0.0
C1156 C 0.35469 0.46007 0.4803 0.0
C1157 C 0.41579 0.52798 0.407 0.0
H1158 H 0.45506 0.53481 0.49623 0.0
H1159 H 0.44728 0.47394 0.4607 0.0
H1160 H 0.41327 0.54199 0.46132 0.0
H1161 H 0.39335 0.52148 0.48442 0.0
H1162 H 0.42479 0.54562 0.49205 0.0
H1163 H 0.41471 0.45109 0.43334 0.0
H1164 H 0.38548 0.44869 0.44089 0.0
H1165 H 0.40428 0.46826 0.41663 0.0
H1166 H 0.30941 0.45476 0.44983 0.0
H1167 H 0.36448 0.51666 0.38427 0.0
H1168 H 0.36722 0.47324 0.494 0.0
H1169 H 0.36156 0.44786 0.47739 0.0
H1170 H 0.33498 0.44969 0.48691 0.0
H1171 H 0.42555 0.54381 0.41877 0.0
H1172 H 0.4144 0.53385 0.38835 0.0
H1173 H 0.42705 0.51942 0.40718 0.0
C1174 C 0.97842 0.4362 0.93641 0.0
C1175 C 0.00401 0.44793 0.93008 0.0
C1176 C 0.9607 0.41363 0.92741 0.0
C1177 C 0.96852 0.40257 0.91119 0.0
C1178 C 0.99411 0.41449 0.90411 0.0
C1179 C 0.0116 0.43697 0.91376 0.0
C1180 C 0.9336 0.40147 0.93556 0.0
C1181 C 0.00303 0.40338 0.88652 0.0
C1182 C 0.926 0.33509 0.9081 0.0
C1183 C 0.91013 0.33237 0.8885 0.0
C1184 C 0.94559 0.35779 0.91524 0.0
C1185 C 0.94979 0.37833 0.90215 0.0
C1186 C 0.93454 0.37571 0.88173 0.0
C1187 C 0.91462 0.35282 0.8754 0.0
C1188 C 0.96101 0.35986 0.93747 0.0
C1189 C 0.93875 0.39716 0.86705 0.0
H1190 H 0.97207 0.44465 0.94841 0.0
H1191 H 0.03127 0.44574 0.90881 0.0
H1192 H 0.92101 0.39796 0.91972 0.0
H1193 H 0.92773 0.38393 0.94428 0.0
H1194 H 0.93069 0.41235 0.94859 0.0
H1195 H 0.02327 0.41546 0.88189 0.0
H1196 H 1.0003 0.3865 0.89437 0.0
H1197 H 0.99165 0.39875 0.86961 0.0
H1198 H 0.9225 0.31937 0.91834 0.0
H1199 H 0.90241 0.35107 0.86035 0.0
H1200 H 0.9576 0.36935 0.95176 0.0
H1201 H 0.98143 0.37057 0.93327 0.0
H1202 H 0.9563 0.34211 0.94483 0.0
H1203 H 0.93364 0.40788 0.87794 0.0
H1204 H 0.92732 0.39194 0.85013 0.0
H1205 H 0.95897 0.40887 0.86228 0.0
C1206 C 0.97353 0.53789 0.9756 0.0
C1207 C 0.98515 0.53171 0.95831 0.0
C1208 C 0.95484 0.54278 0.96871 0.0
C1209 C 0.94736 0.541 0.94407 0.0
C1210 C 0.95847 0.53394 0.92676 0.0
C1211 C 0.97733 0.52959 0.93406 0.0
C1212 C 0.9436 0.55051 0.98762 0.0
C1213 C 0.95073 0.53137 0.90041 0.0
C1214 C 0.8849 0.53452 0.92637 0.0
C1215 C 0.89271 0.5576 0.91767 0.0
C1216 C 0.90241 0.52895 0.93543 0.0
C1217 C 0.92836 0.54698 0.93607 0.0
C1218 C 0.93633 0.57045 0.92775 0.0
C1219 C 0.91842 0.57547 0.91862 0.0
C1220 C 0.89318 0.50368 0.94393 0.0
C1221 C 0.96383 0.59021 0.92825 0.0
H1222 H 0.97963 0.53967 0.99433 0.0
H1223 H 0.98607 0.52458 0.92064 0.0
H1224 H 0.94813 0.56891 0.98332 0.0
H1225 H 0.92275 0.53866 0.98755 0.0
H1226 H 0.95078 0.55024 0.0061 0.0
H1227 H 0.96035 0.52462 0.88946 0.0
H1228 H 0.93004 0.51891 0.8986 0.0
H1229 H 0.9553 0.54893 0.89273 0.0
H1230 H 0.86501 0.52073 0.92599 0.0
H1231 H 0.92448 0.59341 0.91221 0.0
H1232 H 0.89933 0.50363 0.96288 0.0
H1233 H 0.90158 0.49596 0.93267 0.0
H1234 H 0.8723 0.49191 0.94294 0.0
H1235 H 0.97163 0.59196 0.94681 0.0
H1236 H 0.96678 0.60774 0.92227 0.0
H1237 H 0.97475 0.58575 0.91624 0.0
C1238 C 0.43455 0.95427 0.49484 0.0
C1239 C 0.45447 0.95745 0.48065 0.0
C1240 C 0.40944 0.94001 0.48676 0.0
C1241 C 0.40431 0.9283 0.46432 0.0
C1242 C 0.42433 0.92993 0.45101 0.0
C1243 C 0.44922 0.94482 0.45915 0.0
C1244 C 0.38869 0.93906 0.50128 0.0
C1245 C 0.41964 0.91722 0.42734 0.0
C1246 C 0.33704 0.8814 0.44614 0.0
C1247 C 0.33103 0.89455 0.43008 0.0
C1248 C 0.36069 0.89217 0.45774 0.0
C1249 C 0.37864 0.9167 0.45332 0.0
C1250 C 0.37253 0.93013 0.43737 0.0
C1251 C 0.34892 0.91884 0.42576 0.0
C1252 C 0.36668 0.8772 0.47429 0.0
C1253 C 0.39107 0.95639 0.4323 0.0
H1254 H 0.43869 0.96432 0.51132 0.0
H1255 H 0.4647 0.9473 0.44823 0.0
H1256 H 0.38181 0.94956 0.49165 0.0
H1257 H 0.37243 0.92041 0.50313 0.0
H1258 H 0.39525 0.94652 0.51962 0.0
H1259 H 0.43659 0.91747 0.42112 0.0
H1260 H 0.40377 0.89836 0.42908 0.0
H1261 H 0.4143 0.92606 0.41321 0.0
H1262 H 0.32332 0.86259 0.44943 0.0
H1263 H 0.34445 0.92899 0.41318 0.0
H1264 H 0.37259 0.88541 0.49237 0.0
H1265 H 0.3827 0.87655 0.46688 0.0
H1266 H 0.35032 0.85859 0.47655 0.0
H1267 H 0.39754 0.96626 0.44952 0.0
H1268 H 0.38283 0.96458 0.42062 0.0
H1269 H 0.40794 0.95878 0.42317 0.0
C1270 C 0.49295 0.41377 0.97602 0.0
C1271 C 0.49296 0.41047 0.00125 0.0
C1272 C 0.48338 0.39434 0.96034 0.0
C1273 C 0.47375 0.37106 0.97002 0.0
C1274 C 0.47409 0.36758 0.99533 0.0
C1275 C 0.48362 0.38727 0.01064 0.0
C1276 C 0.48333 0.39866 0.93342 0.0
C1277 C 0.46399 0.34294 0.00627 0.0
C1278 C 0.4135 0.3078 0.93063 0.0
C1279 C 0.43534 0.30152 0.91479 0.0
C1280 C 0.42882 0.33443 0.94847 0.0
C1281 C 0.46245 0.35027 0.95395 0.0
C1282 C 0.48181 0.33942 0.94345 0.0
C1283 C 0.46826 0.31288 0.92545 0.0
C1284 C 0.41356 0.34338 0.95891 0.0
C1285 C 0.5092 0.35251 0.94966 0.0
H1286 H 0.50053 0.43157 0.96843 0.0
H1287 H 0.48324 0.38436 0.03002 0.0
H1288 H 0.49354 0.39153 0.92411 0.0
H1289 H 0.46361 0.38895 0.92652 0.0
H1290 H 0.49228 0.41795 0.92863 0.0
H1291 H 0.46632 0.34328 0.02625 0.0
H1292 H 0.44364 0.33127 0.00178 0.0
H1293 H 0.47387 0.33476 0.99842 0.0
H1294 H 0.39382 0.29934 0.92552 0.0
H1295 H 0.47992 0.30722 0.91748 0.0
H1296 H 0.42116 0.36208 0.95258 0.0
H1297 H 0.41533 0.34354 0.97891 0.0
H1298 H 0.39345 0.33193 0.95351 0.0
H1299 H 0.51803 0.3716 0.94417 0.0
H1300 H 0.51862 0.34451 0.94051 0.0
H1301 H 0.51149 0.35178 0.96955 0.0
C1302 C 0.03534 0.46585 0.43017 0.0
C1303 C 0.00888 0.45167 0.43073 0.0
C1304 C 0.04949 0.45842 0.4181 0.0
C1305 C 0.03691 0.43643 0.40585 0.0
C1306 C 0.01021 0.42244 0.40547 0.0
C1307 C 0.99649 0.43017 0.41802 0.0
C1308 C 0.07796 0.47384 0.41898 0.0
C1309 C 0.99616 0.39905 0.39229 0.0
C1310 C 0.07549 0.42819 0.35937 0.0
C1311 C 0.08259 0.414 0.37229 0.0
C1312 C 0.06001 0.43504 0.36981 0.0
C1313 C 0.05184 0.42793 0.39395 0.0
C1314 C 0.05889 0.41358 0.4071 0.0
C1315 C 0.07407 0.40666 0.39605 0.0
C1316 C 0.05269 0.45015 0.35515 0.0
C1317 C 0.05086 0.40597 0.43301 0.0
H1318 H 0.04508 0.48275 0.43942 0.0
H1319 H 0.97612 0.41901 0.41844 0.0
H1320 H 0.08571 0.46373 0.42784 0.0
H1321 H 0.08564 0.4786 0.40038 0.0
H1322 H 0.08482 0.49061 0.42904 0.0
H1323 H 0.97541 0.39102 0.39247 0.0
H1324 H 0.00248 0.40177 0.37321 0.0
H1325 H 1.00042 0.38613 0.40081 0.0
H1326 H 0.08222 0.43407 0.34107 0.0
H1327 H 0.07957 0.39576 0.40612 0.0
H1328 H 0.06079 0.46787 0.36357 0.0
H1329 H 0.03187 0.44156 0.35497 0.0
H1330 H 0.05936 0.45295 0.33617 0.0
H1331 H 0.05852 0.422 0.44443 0.0
H1332 H 0.05747 0.39439 0.44053 0.0
H1333 H 0.03 0.39611 0.4343 0.0
C1334 C 0.57904 0.00578 0.95877 0.0
C1335 C 0.5704 0.01941 0.96903 0.0
C1336 C 0.59807 0.01577 0.94113 0.0
C1337 C 0.60889 0.04002 0.9338 0.0
C1338 C 0.59965 0.0536 0.9435 0.0
C1339 C 0.58045 0.04311 0.96084 0.0
C1340 C 0.60715 1.0006 0.93091 0.0
C1341 C 0.61077 0.07956 0.93634 0.0
C1342 C 0.67638 0.07387 0.9109 0.0
C1343 C 0.67289 0.07487 0.88586 0.0
C1344 C 0.65571 0.06258 0.92665 0.0
C1345 C 0.63088 0.05167 0.91712 0.0
C1346 C 0.6272 0.05249 0.89184 0.0
C1347 C 0.64825 0.06425 0.87654 0.0
C1348 C 0.66048 0.06246 0.95353 0.0
C1349 C 0.60104 0.0409 0.88097 0.0
H1350 H 0.57135 0.98745 0.96488 0.0
H1351 H 0.57393 0.05385 0.96858 0.0
H1352 H 0.60697 0.00148 0.91084 0.0
H1353 H 0.62693 0.00762 0.93675 0.0
H1354 H 0.5954 0.98158 0.93691 0.0
H1355 H 0.60055 0.08725 0.94453 0.0
H1356 H 0.63082 0.09018 0.94219 0.0
H1357 H 0.61038 0.08154 0.91638 0.0
H1358 H 0.69534 0.08201 0.91822 0.0
H1359 H 0.64546 0.06503 0.85721 0.0
H1360 H 0.65124 0.04378 0.96054 0.0
H1361 H 0.65208 0.07119 0.96313 0.0
H1362 H 0.68092 0.07189 0.95804 0.0
H1363 H 0.58992 0.02164 0.88617 0.0
H1364 H 0.60138 0.04254 0.86091 0.0
H1365 H 0.59105 0.04922 0.88816 0.0
C1366 C 0.59437 0.58697 0.434 0.0
C1367 C 0.5687 0.5694 0.43181 0.0
C1368 C 0.60351 0.61078 0.42687 0.0
C1369 C 0.58661 0.61699 0.41683 0.0
C1370 C 0.56091 0.59901 0.41338 0.0
C1371 C 0.55221 0.57547 0.42121 0.0
C1372 C 0.63094 0.62948 0.43132 0.0
C1373 C 0.54244 0.60479 0.40223 0.0
C1374 C 0.60323 0.68071 0.42554 0.0
C1375 C 0.61486 0.69181 0.40357 0.0
C1376 C 0.59375 0.65635 0.42996 0.0
C1377 C 0.59548 0.64255 0.41176 0.0
C1378 C 0.60653 0.65343 0.38925 0.0
C1379 C 0.61648 0.67802 0.38554 0.0
C1380 C 0.58255 0.64555 0.4544 0.0
C1381 C 0.60823 0.63917 0.36924 0.0
H1382 H 0.60704 0.58234 0.44253 0.0
H1383 H 0.53238 0.56179 0.41947 0.0
H1384 H 0.63978 0.63983 0.41445 0.0
H1385 H 0.63239 0.6423 0.44488 0.0
H1386 H 0.64185 0.62153 0.43807 0.0
H1387 H 0.52383 0.58843 0.39841 0.0
H1388 H 0.53952 0.61605 0.41469 0.0
H1389 H 0.55006 0.61519 0.38511 0.0
H1390 H 0.6022 0.69136 0.43958 0.0
H1391 H 0.6257 0.68642 0.36859 0.0
H1392 H 0.59348 0.63851 0.46331 0.0
H1393 H 0.56288 0.63027 0.45223 0.0
H1394 H 0.58249 0.65871 0.46654 0.0
H1395 H 0.62092 0.63285 0.37487 0.0
H1396 H 0.6155 0.64981 0.35217 0.0
H1397 H 0.58938 0.62308 0.36563 0.0
C1398 C 0.49693 0.08984 0.54469 0.0
C1399 C 0.48782 0.06534 0.54322 0.0
C1400 C 0.48701 0.09834 0.56151 0.0
C1401 C 0.46736 0.08194 0.5771 0.0
C1402 C 0.45776 0.05716 0.57536 0.0
C1403 C 0.46813 0.04919 0.55851 0.0
C1404 C 0.49783 0.12491 0.5629 0.0
C1405 C 0.43666 0.03904 0.59146 0.0
C1406 C 0.4566 0.10274 0.63672 0.0
C1407 C 0.43591 0.10499 0.63107 0.0
C1408 C 0.46737 0.0958 0.61918 0.0
C1409 C 0.45701 0.09063 0.59549 0.0
C1410 C 0.43613 0.09285 0.58968 0.0
C1411 C 0.42579 0.09991 0.60755 0.0
C1412 C 0.48957 0.09357 0.62614 0.0
C1413 C 0.42438 0.0873 0.56471 0.0
H1414 H 0.5123 0.10242 0.53313 0.0
H1415 H 0.46072 0.03022 0.55721 0.0
H1416 H 0.48265 0.12876 0.56017 0.0
H1417 H 0.50603 0.13127 0.58116 0.0
H1418 H 0.51272 0.13527 0.5492 0.0
H1419 H 0.43098 0.02039 0.5875 0.0
H1420 H 0.44261 0.04258 0.61071 0.0
H1421 H 0.41992 0.04067 0.58919 0.0
H1422 H 0.46417 0.10615 0.65499 0.0
H1423 H 0.40952 0.10119 0.60322 0.0
H1424 H 0.5055 0.10453 0.61364 0.0
H1425 H 0.48428 0.07471 0.62449 0.0
H1426 H 0.49614 0.09932 0.64497 0.0
H1427 H 0.43888 0.09822 0.5509 0.0
H1428 H 0.40883 0.09076 0.56285 0.0
H1429 H 0.41679 0.06824 0.5607 0.0
C1430 C 0.44539 0.47716 0.08828 0.0
C1431 C 0.45267 0.48231 0.06396 0.0
C1432 C 0.42181 0.47233 0.09575 0.0
C1433 C 0.40492 0.47248 0.07847 0.0
C1434 C 0.41231 0.47826 0.05397 0.0
C1435 C 0.43621 0.48322 0.04696 0.0
C1436 C 0.4149 0.4666 0.12209 0.0
C1437 C 0.39473 0.47865 0.03512 0.0
C1438 C 0.3229 0.424 0.09349 0.0
C1439 C 0.31956 0.44682 0.10921 0.0
C1440 C 0.35454 0.43407 0.08414 0.0
C1441 C 0.3792 0.4653 0.0858 0.0
C1442 C 0.37307 0.48789 0.09504 0.0
C1443 C 0.342 0.47963 0.10475 0.0
C1444 C 0.3605 0.4164 0.07539 0.0
C1445 C 0.39395 0.51349 0.09512 0.0
H1446 H 0.45809 0.47669 0.10161 0.0
H1447 H 0.44173 0.48725 0.02814 0.0
H1448 H 0.40892 0.47849 0.12904 0.0
H1449 H 0.3989 0.44783 0.12404 0.0
H1450 H 0.43084 0.46877 0.13345 0.0
H1451 H 0.40366 0.48451 0.01703 0.0
H1452 H 0.37756 0.4605 0.03364 0.0
H1453 H 0.38858 0.49086 0.04069 0.0
H1454 H 0.30859 0.40514 0.09467 0.0
H1455 H 0.33853 0.49266 0.11219 0.0
H1456 H 0.3752 0.41672 0.08727 0.0
H1457 H 0.36836 0.42165 0.05687 0.0
H1458 H 0.34335 0.39815 0.07537 0.0
H1459 H 0.40934 0.5155 0.10719 0.0
H1460 H 0.38708 0.52493 0.10136 0.0
H1461 H 0.40177 0.51911 0.07663 0.0
C1462 C 0.9735 0.43883 0.59054 0.0
C1463 C 0.98001 0.44118 0.56601 0.0
C1464 C 0.96233 0.41647 0.60264 0.0
C1465 C 0.95785 0.39617 0.59 0.0
C1466 C 0.96529 0.39862 0.56559 0.0
C1467 C 0.97615 0.42103 0.55387 0.0
C1468 C 0.95465 0.41438 0.62871 0.0
C1469 C 0.96133 0.37745 0.55169 0.0
C1470 C 0.9484 0.33154 0.62833 0.0
C1471 C 0.9133 0.31474 0.62851 0.0
C1472 C 0.96323 0.36174 0.61653 0.0
C1473 C 0.94466 0.37222 0.60174 0.0
C1474 C 0.91109 0.35276 0.5966 0.0
C1475 C 0.8945 0.32222 0.60768 0.0
C1476 C 0.99112 0.37803 0.61856 0.0
C1477 C 0.897 0.36196 0.58299 0.0
H1478 H 0.97632 0.45425 0.60006 0.0
H1479 H 0.98129 0.42267 0.53498 0.0
H1480 H 0.9339 0.40207 0.6302 0.0
H1481 H 0.96363 0.40657 0.63982 0.0
H1482 H 0.95999 0.43194 0.63626 0.0
H1483 H 0.96942 0.38258 0.53321 0.0
H1484 H 0.97012 0.36876 0.56161 0.0
H1485 H 0.94084 0.36398 0.5501 0.0
H1486 H 0.95895 0.32564 0.63891 0.0
H1487 H 0.87418 0.31092 0.60632 0.0
H1488 H 0.99551 0.39443 0.6281 0.0
H1489 H 0.99926 0.38354 0.60017 0.0
H1490 H 0.99956 0.36903 0.62845 0.0
H1491 H 0.90122 0.37898 0.59099 0.0
H1492 H 0.87642 0.34862 0.58343 0.0
H1493 H 0.90353 0.36587 0.56397 0.0
C1494 C 0.59327 0.98898 0.07394 0.0
C1495 C 0.58339 0.99883 0.08899 0.0
C1496 C 0.60062 0.97356 0.08331 0.0
C1497 C 0.59751 0.96747 0.10823 0.0
C1498 C 0.588 0.97767 0.12363 0.0
C1499 C 0.58124 0.99346 0.11385 0.0
C1500 C 0.61159 0.9637 0.06651 0.0
C1501 C 0.58424 0.97134 0.15025 0.0
C1502 C 0.58861 0.89666 0.12399 0.0
C1503 C 0.61823 0.90895 0.14221 0.0
C1504 C 0.58111 0.91854 0.1142 0.0
C1505 C 0.60379 0.95014 0.11787 0.0
C1506 C 0.63518 0.96122 0.12973 0.0
C1507 C 0.64445 0.94078 0.14011 0.0
C1508 C 0.55587 0.91042 0.10329 0.0
C1509 C 0.65375 0.98748 0.13052 0.0
H1510 H 0.59517 0.99336 0.05476 0.0
H1511 H 0.57333 0.00086 0.12544 0.0
H1512 H 0.63007 0.96747 0.07367 0.0
H1513 H 0.5989 0.94399 0.06556 0.0
H1514 H 0.61429 0.97142 0.0479 0.0
H1515 H 0.57666 0.98084 0.15982 0.0
H1516 H 0.57096 0.95177 0.15267 0.0
H1517 H 0.60245 0.97591 0.1588 0.0
H1518 H 0.5746 0.87771 0.12367 0.0
H1519 H 0.66242 0.94712 0.14904 0.0
H1520 H 0.55789 0.91381 0.08347 0.0
H1521 H 0.54828 0.92083 0.11077 0.0
H1522 H 0.54271 0.89101 0.10685 0.0
H1523 H 0.65538 0.99548 0.11223 0.0
H1524 H 0.67244 0.99119 0.13688 0.0
H1525 H 0.64678 0.99571 0.14286 0.0
C1526 C 0.54145 0.5246 0.58861 0.0
C1527 C 0.54826 0.52693 0.5642 0.0
C1528 C 0.55985 0.53282 0.60709 0.0
C1529 C 0.58558 0.54317 0.60103 0.0
C1530 C 0.59258 0.54597 0.57641 0.0
C1531 C 0.57391 0.53806 0.55835 0.0
C1532 C 0.55172 0.52999 0.63312 0.0
C1533 C 0.61973 0.55658 0.56915 0.0
C1534 C 0.63852 0.58145 0.64531 0.0
C1535 C 0.64479 0.56519 0.65461 0.0
C1536 C 0.61887 0.57439 0.62837 0.0
C1537 C 0.60524 0.55051 0.62031 0.0
C1538 C 0.61118 0.53388 0.62988 0.0
C1539 C 0.6306 0.54131 0.64718 0.0
C1540 C 0.61282 0.59255 0.61897 0.0
C1541 C 0.59729 0.5083 0.62153 0.0
H1542 H 0.52171 0.51606 0.5933 0.0
H1543 H 0.57944 0.53983 0.53957 0.0
H1544 H 0.55572 0.51738 0.64281 0.0
H1545 H 0.56265 0.5474 0.64237 0.0
H1546 H 0.53129 0.52317 0.63476 0.0
H1547 H 0.6221 0.55786 0.5492 0.0
H1548 H 0.63173 0.57473 0.57667 0.0
H1549 H 0.62681 0.54542 0.57676 0.0
H1550 H 0.64905 0.59977 0.6514 0.0
H1551 H 0.63482 0.52844 0.65469 0.0
H1552 H 0.59254 0.58576 0.62168 0.0
H1553 H 0.61639 0.59547 0.59923 0.0
H1554 H 0.62425 0.61004 0.62804 0.0
H1555 H 0.57679 0.49963 0.6249 0.0
H1556 H 0.6041 0.49756 0.63082 0.0
H1557 H 0.59969 0.50794 0.60174 0.0
C1558 C 0.10929 0.59608 0.05133 0.0
C1559 C 0.10595 0.60288 0.028 0.0
C1560 C 0.11607 0.61155 0.07084 0.0
C1561 C 0.1198 0.63452 0.0669 0.0
C1562 C 0.11807 0.64211 0.04312 0.0
C1563 C 0.11112 0.62616 0.02391 0.0
C1564 C 0.11785 0.60279 0.09587 0.0
C1565 C 0.12213 0.66654 0.03815 0.0
C1566 C 0.10485 0.65995 0.12027 0.0
C1567 C 0.12885 0.67502 0.13061 0.0
C1568 C 0.10176 0.64696 0.0994 0.0
C1569 C 0.1232 0.64956 0.088 0.0
C1570 C 0.14754 0.66565 0.0974 0.0
C1571 C 0.15007 0.67829 0.11844 0.0
C1572 C 0.07544 0.63006 0.08982 0.0
C1573 C 0.17087 0.66925 0.08545 0.0
H1574 H 0.10579 0.57827 0.05447 0.0
H1575 H 0.10846 0.63149 0.00597 0.0
H1576 H 0.136 0.61593 0.10463 0.0
H1577 H 0.10248 0.60098 0.10728 0.0
H1578 H 0.11632 0.5852 0.0956 0.0
H1579 H 0.12343 0.67087 0.01847 0.0
H1580 H 0.10617 0.66724 0.04563 0.0
H1581 H 0.1396 0.68054 0.04721 0.0
H1582 H 0.08823 0.6579 0.1285 0.0
H1583 H 0.1688 0.69066 0.12548 0.0
H1584 H 0.07138 0.61149 0.09032 0.0
H1585 H 0.07395 0.63464 0.07066 0.0
H1586 H 0.06076 0.63052 0.10041 0.0
H1587 H 0.17065 0.65228 0.08624 0.0
H1588 H 0.18851 0.6834 0.09423 0.0
H1589 H 0.17114 0.67414 0.06606 0.0
loop_
_geom_bond_atom_site_label_1
_geom_bond_atom_site_label_2
_geom_bond_distance
_geom_bond_site_symmetry_2
_ccdc_geom_bond_type
Cu0 N1 1.999 1_554 S
Cu0 O6 1.974 1_554 S
Cu0 N11 1.985 . S
Cu0 O20 1.959 . S
N1 Cu0 1.999 1_556 S
N1 C3 1.263 . S
N1 C5 1.386 1_556 S
N2 C3 1.358 1_655 S
N2 C4 1.400 . S
C3 N1 1.263 . S
C3 N2 1.358 1_455 S
C3 H9 0.930 . S
C4 N2 1.400 . S
C4 C5 1.350 1_656 S
C4 H21 0.930 . S
C5 N1 1.386 1_554 S
C5 C4 1.350 1_454 S
C5 H10 0.934 . S
O6 Cu0 1.974 1_556 S
O6 C16 1.282 . S
C7 O8 1.261 . S
C7 O20 1.251 . S
O8 C7 1.261 . S
H9 C3 0.930 . S
H10 C5 0.934 . S
N11 Cu0 1.985 . S
N11 C13 1.335 . S
N11 C14 1.390 . S
N12 C13 1.345 . S
N12 C15 1.336 . S
C13 N11 1.335 . S
C13 N12 1.345 . S
C13 H18 0.930 . S
C14 N11 1.390 . S
C14 C15 1.346 . S
C14 H19 0.930 1_554 S
C15 N12 1.336 . S
C15 C14 1.346 . S
C15 H22 0.929 . S
C16 O6 1.282 . S
C16 O17 1.216 . S
O17 C16 1.216 . S
H18 C13 0.930 . S
H19 C14 0.930 1_556 S
O20 Cu0 1.959 . S
O20 C7 1.251 . S
H21 C4 0.930 . S
H22 C15 0.929 . S
Cu23 N24 1.999 . S
Cu23 O29 1.974 . S
Cu23 N34 1.985 1_565 S
Cu23 O43 1.959 1_565 S
N24 Cu23 1.999 . S
N24 C26 1.263 . S
N24 C28 1.389 . S
N25 C26 1.358 . S
N25 C27 1.400 . S
C26 N24 1.263 . S
C26 N25 1.358 . S
C26 H32 0.930 . S
C27 N25 1.400 . S
C27 C28 1.351 . S
C27 H44 0.930 . S
C28 N24 1.389 . S
C28 C27 1.351 . S
C28 H33 0.930 . S
O29 Cu23 1.974 . S
O29 C39 1.282 . S
C30 O31 1.261 . S
C30 O43 1.251 . S
O31 C30 1.261 . S
H32 C26 0.930 . S
H33 C28 0.930 . S
N34 Cu23 1.985 1_545 S
N34 C36 1.335 . S
N34 C37 1.390 . S
N35 C36 1.345 . S
N35 C38 1.336 . S
C36 N34 1.335 . S
C36 N35 1.345 . S
C36 H41 0.930 . S
C37 N34 1.390 . S
C37 C38 1.346 . S
C37 H42 0.930 . S
C38 N35 1.336 . S
C38 C37 1.346 . S
C38 H45 0.929 . S
C39 O29 1.282 . S
C39 O40 1.216 1_565 S
O40 C39 1.216 1_545 S
H41 C36 0.930 . S
H42 C37 0.930 . S
O43 Cu23 1.959 1_545 S
O43 C30 1.251 . S
H44 C27 0.930 . S
H45 C38 0.929 . S
Cu46 N47 1.999 1_554 S
Cu46 O52 1.974 1_554 S
Cu46 N57 1.985 . S
Cu46 O66 1.959 . S
N47 Cu46 1.999 1_556 S
N47 C49 1.263 . S
N47 C51 1.389 . S
N48 C49 1.358 . S
N48 C50 1.400 . S
C49 N47 1.263 . S
C49 N48 1.358 . S
C49 H55 0.930 . S
C50 N48 1.400 . S
C50 C51 1.351 . S
C50 H67 0.930 . S
C51 N47 1.389 . S
C51 C50 1.351 . S
C51 H56 0.930 . S
O52 Cu46 1.974 1_556 S
O52 C62 1.282 . S
C53 O54 1.261 . S
C53 O66 1.251 . S
O54 C53 1.261 . S
H55 C49 0.930 . S
H56 C51 0.930 . S
N57 Cu46 1.985 . S
N57 C59 1.335 . S
N57 C60 1.390 . S
N58 C59 1.345 . S
N58 C61 1.336 . S
C59 N57 1.335 . S
C59 N58 1.345 . S
C59 H64 0.930 . S
C60 N57 1.390 . S
C60 C61 1.346 . S
C60 H65 0.930 . S
C61 N58 1.336 . S
C61 C60 1.346 . S
C61 H68 0.929 . S
C62 O52 1.282 . S
C62 O63 1.216 1_556 S
O63 C62 1.216 1_554 S
H64 C59 0.930 . S
H65 C60 0.930 . S
O66 Cu46 1.959 . S
O66 C53 1.251 . S
H67 C50 0.930 . S
H68 C61 0.929 . S
Cu69 N70 1.999 1_655 S
Cu69 O75 1.974 1_655 S
Cu69 N80 1.985 . S
Cu69 O89 1.959 . S
N70 Cu69 1.999 1_455 S
N70 C72 1.263 . S
N70 C74 1.389 1_455 S
N71 C72 1.358 . S
N71 C73 1.400 . S
C72 N70 1.263 . S
C72 N71 1.358 . S
C72 H78 0.930 . S
C73 N71 1.400 . S
C73 C74 1.351 1_455 S
C73 H90 0.930 1_455 S
C74 N70 1.389 1_655 S
C74 C73 1.351 1_655 S
C74 H79 0.930 . S
O75 Cu69 1.974 1_455 S
O75 C85 1.282 . S
C76 O77 1.261 1_655 S
C76 O89 1.251 . S
O77 C76 1.261 1_455 S
H78 C72 0.930 . S
H79 C74 0.930 . S
N80 Cu69 1.985 . S
N80 C82 1.335 . S
N80 C83 1.390 . S
N81 C82 1.345 . S
N81 C84 1.336 . S
C82 N80 1.335 . S
C82 N81 1.345 . S
C82 H87 0.930 . S
C83 N80 1.390 . S
C83 C84 1.346 . S
C83 H88 0.930 1_655 S
C84 N81 1.336 . S
C84 C83 1.346 . S
C84 H91 0.929 . S
C85 O75 1.282 . S
C85 O86 1.216 . S
O86 C85 1.216 . S
H87 C82 0.930 . S
H88 C83 0.930 1_455 S
O89 Cu69 1.959 . S
O89 C76 1.251 . S
H90 C73 0.930 1_655 S
H91 C84 0.929 . S
Cu92 N93 1.999 . S
Cu92 O98 1.974 . S
Cu92 N103 2.000 . S
Cu92 O112 1.959 . S
N93 Cu92 1.999 . S
N93 C95 1.263 1_554 S
N93 C97 1.389 . S
N94 C95 1.358 . S
N94 C96 1.400 1_556 S
C95 N93 1.263 1_556 S
C95 N94 1.358 . S
C95 H101 0.930 . S
C96 N94 1.400 1_554 S
C96 C97 1.351 . S
C96 H113 0.930 . S
C97 N93 1.389 . S
C97 C96 1.351 . S
C97 H102 0.930 . S
O98 Cu92 1.974 . S
O98 C108 1.282 1_554 S
C99 O100 1.261 . S
C99 O112 1.251 1_565 S
O100 C99 1.261 . S
H101 C95 0.930 . S
H102 C97 0.930 . S
N103 Cu92 2.000 . S
N103 C105 1.329 1_545 S
N103 C106 1.379 1_545 S
N104 C105 1.345 . S
N104 C107 1.336 . S
C105 N103 1.329 1_565 S
C105 N104 1.345 . S
C105 H110 0.930 . S
C106 N103 1.379 1_565 S
C106 C107 1.346 . S
C106 H111 0.930 1_565 S
C107 N104 1.336 . S
C107 C106 1.346 . S
C107 H114 0.929 . S
C108 O98 1.282 1_556 S
C108 O109 1.216 . S
O109 C108 1.216 . S
H110 C105 0.930 . S
H111 C106 0.930 1_545 S
O112 Cu92 1.959 . S
O112 C99 1.251 1_545 S
H113 C96 0.930 . S
H114 C107 0.929 . S
Cu115 N116 1.999 . S
Cu115 O121 1.974 . S
Cu115 N126 1.985 . S
Cu115 O135 1.959 . S
N116 Cu115 1.999 . S
N116 C118 1.263 . S
N116 C120 1.389 . S
N117 C118 1.358 . S
N117 C119 1.400 . S
C118 N116 1.263 . S
C118 N117 1.358 . S
C118 H124 0.930 . S
C119 N117 1.400 . S
C119 C120 1.351 . S
C119 H136 0.930 . S
C120 N116 1.389 . S
C120 C119 1.351 . S
C120 H125 0.930 . S
O121 Cu115 1.974 . S
O121 C131 1.282 . S
C122 O123 1.261 . S
C122 O135 1.251 . S
O123 C122 1.261 . S
H124 C118 0.930 . S
H125 C120 0.930 . S
N126 Cu115 1.985 . S
N126 C128 1.335 . S
N126 C129 1.390 . S
N127 C128 1.345 . S
N127 C130 1.336 . S
C128 N126 1.335 . S
C128 N127 1.345 . S
C128 H133 0.930 . S
C129 N126 1.390 . S
C129 C130 1.346 . S
C129 H134 0.930 . S
C130 N127 1.336 . S
C130 C129 1.346 . S
C130 H137 0.929 . S
C131 O121 1.282 . S
C131 O132 1.216 . S
O132 C131 1.216 . S
H133 C128 0.930 . S
H134 C129 0.930 . S
O135 Cu115 1.959 . S
O135 C122 1.251 . S
H136 C119 0.930 . S
H137 C130 0.929 . S
C138 C139 1.560 . S
C138 H199 0.959 . S
C138 H200 0.959 . S
C138 H201 0.960 . S
C139 C138 1.560 . S
C139 O194 1.426 . S
C139 H198 0.980 . S
C140 C141 1.407 . S
C140 C145 1.418 . S
C140 O194 1.334 . S
C141 C140 1.407 . S
C141 C142 1.360 . S
C141 H202 0.929 . S
C142 C141 1.360 . S
C142 C143 1.401 . S
C142 C146 1.527 . S
C143 C142 1.401 . S
C143 C144 1.405 . S
C143 C176 1.587 . S
C144 C143 1.405 . S
C144 C145 1.332 . S
C144 C147 1.496 . S
C145 C140 1.418 . S
C145 C144 1.332 . S
C145 H203 0.929 . S
C146 C142 1.527 . S
C146 H204 0.959 . S
C146 H205 0.961 . S
C146 H206 0.961 . S
C147 C144 1.496 . S
C147 H207 0.960 . S
C147 H208 0.960 . S
C147 H209 0.961 . S
C148 C149 1.517 . S
C148 H211 0.961 . S
C148 H212 0.960 . S
C148 H213 0.959 . S
C149 C148 1.517 . S
C149 O197 1.468 . S
C149 H210 0.980 . S
C150 C151 1.349 . S
C150 C155 1.367 . S
C150 O197 1.408 . S
C151 C150 1.349 . S
C151 C152 1.407 . S
C151 H214 0.930 . S
C152 C151 1.407 . S
C152 C153 1.449 . S
C152 C156 1.535 . S
C153 C152 1.449 . S
C153 C154 1.384 . S
C153 C178 1.553 . S
C154 C153 1.384 . S
C154 C155 1.364 . S
C154 C157 1.450 . S
C155 C150 1.367 . S
C155 C154 1.364 . S
C155 H215 0.931 . S
C156 C152 1.535 . S
C156 H216 0.959 . S
C156 H217 0.961 . S
C156 H218 0.959 . S
C157 C154 1.450 . S
C157 H219 0.960 . S
C157 H220 0.960 . S
C157 H221 0.960 . S
C158 C159 1.309 . S
C158 C163 1.304 . S
C158 O196 1.435 . S
C159 C158 1.309 . S
C159 C160 1.476 . S
C159 H223 0.930 . S
C160 C159 1.476 . S
C160 C161 1.400 . S
C160 C164 1.567 . S
C161 C160 1.400 . S
C161 C162 1.373 . S
C161 C183 1.432 . S
C162 C161 1.373 . S
C162 C163 1.339 . S
C162 C165 1.530 . S
C163 C158 1.304 . S
C163 C162 1.339 . S
C163 H224 0.930 . S
C164 C160 1.567 . S
C164 H225 0.961 . S
C164 H226 0.960 . S
C164 H227 0.958 . S
C165 C162 1.530 . S
C165 H228 0.961 . S
C165 H229 0.960 . S
C165 H230 0.960 . S
C166 C167 1.530 . S
C166 H232 0.961 . S
C166 H233 0.961 . S
C166 H234 0.959 . S
C167 C166 1.530 . S
C167 O195 1.412 . S
C167 H231 0.980 . S
C168 C169 1.288 . S
C168 C173 1.377 . S
C168 O195 1.393 . S
C169 C168 1.288 . S
C169 C170 1.369 . S
C169 H235 0.932 . S
C170 C169 1.369 . S
C170 C171 1.398 . S
C170 C174 1.527 . S
C171 C170 1.398 . S
C171 C172 1.380 . S
C171 C185 1.497 . S
C172 C171 1.380 . S
C172 C173 1.383 . S
C172 C175 1.603 . S
C173 C168 1.377 . S
C173 C172 1.383 . S
C173 H236 0.929 . S
C174 C170 1.527 . S
C174 H237 0.961 . S
C174 H238 0.959 . S
C174 H239 0.959 . S
C175 C172 1.603 . S
C175 H240 0.960 . S
C175 H241 0.962 . S
C175 H242 0.961 . S
C176 C143 1.587 . S
C176 C177 1.360 . S
C176 C189 1.412 . S
C177 C176 1.360 . S
C177 C178 1.365 . S
C177 H243 0.929 . S
C178 C153 1.553 . S
C178 C177 1.365 . S
C178 C179 1.404 . S
C179 C178 1.404 . S
C179 C180 1.395 . S
C179 C190 1.451 . S
C180 C179 1.395 . S
C180 C181 1.322 . S
C180 H244 0.930 . S
C181 C180 1.322 . S
C181 C182 1.459 . S
C181 H245 0.929 . S
C182 C181 1.459 . S
C182 C183 1.445 . S
C182 C191 1.395 . S
C183 C161 1.432 . S
C183 C182 1.445 . S
C183 C184 1.370 . S
C184 C183 1.370 . S
C184 C185 1.438 . S
C184 H246 0.930 . S
C185 C171 1.497 . S
C185 C184 1.438 . S
C185 C186 1.360 . S
C186 C185 1.360 . S
C186 C187 1.401 . S
C186 C191 1.446 . S
C187 C186 1.401 . S
C187 C188 1.347 . S
C187 H247 0.929 . S
C188 C187 1.347 . S
C188 C189 1.455 . S
C188 H248 0.930 . S
C189 C176 1.412 . S
C189 C188 1.455 . S
C189 C190 1.331 . S
C190 C179 1.451 . S
C190 C189 1.331 . S
C190 C191 1.497 . S
C191 C182 1.395 . S
C191 C186 1.446 . S
C191 C190 1.497 . S
C192 C193 1.582 . S
C192 H249 0.962 . S
C192 H250 0.959 . S
C192 H251 0.958 . S
C193 C192 1.582 . S
C193 O196 1.458 . S
C193 H222 0.980 . S
O194 C139 1.426 . S
O194 C140 1.334 . S
O195 C167 1.412 . S
O195 C168 1.393 . S
O196 C158 1.435 . S
O196 C193 1.458 . S
O197 C149 1.468 . S
O197 C150 1.408 . S
H198 C139 0.980 . S
H199 C138 0.959 . S
H200 C138 0.959 . S
H201 C138 0.960 . S
H202 C141 0.929 . S
H203 C145 0.929 . S
H204 C146 0.959 . S
H205 C146 0.961 . S
H206 C146 0.961 . S
H207 C147 0.960 . S
H208 C147 0.960 . S
H209 C147 0.961 . S
H210 C149 0.980 . S
H211 C148 0.961 . S
H212 C148 0.960 . S
H213 C148 0.959 . S
H214 C151 0.930 . S
H215 C155 0.931 . S
H216 C156 0.959 . S
H217 C156 0.961 . S
H218 C156 0.959 . S
H219 C157 0.960 . S
H220 C157 0.960 . S
H221 C157 0.960 . S
H222 C193 0.980 . S
H223 C159 0.930 . S
H224 C163 0.930 . S
H225 C164 0.961 . S
H226 C164 0.960 . S
H227 C164 0.958 . S
H228 C165 0.961 . S
H229 C165 0.960 . S
H230 C165 0.960 . S
H231 C167 0.980 . S
H232 C166 0.961 . S
H233 C166 0.961 . S
H234 C166 0.959 . S
H235 C169 0.932 . S
H236 C173 0.929 . S
H237 C174 0.961 . S
H238 C174 0.959 . S
H239 C174 0.959 . S
H240 C175 0.960 . S
H241 C175 0.962 . S
H242 C175 0.961 . S
H243 C177 0.929 . S
H244 C180 0.930 . S
H245 C181 0.929 . S
H246 C184 0.930 . S
H247 C187 0.929 . S
H248 C188 0.930 . S
H249 C192 0.962 . S
H250 C192 0.959 . S
H251 C192 0.958 . S
C252 C253 1.560 . S
C252 H313 0.959 . S
C252 H314 0.959 . S
C252 H315 0.960 . S
C253 C252 1.560 . S
C253 O308 1.426 . S
C253 H312 0.980 . S
C254 C255 1.407 . S
C254 C259 1.418 . S
C254 O308 1.334 . S
C255 C254 1.407 . S
C255 C256 1.360 . S
C255 H316 0.929 . S
C256 C255 1.360 . S
C256 C257 1.401 . S
C256 C260 1.527 . S
C257 C256 1.401 . S
C257 C258 1.405 . S
C257 C290 1.587 . S
C258 C257 1.405 . S
C258 C259 1.332 . S
C258 C261 1.496 . S
C259 C254 1.418 . S
C259 C258 1.332 . S
C259 H317 0.929 . S
C260 C256 1.527 . S
C260 H318 0.959 . S
C260 H319 0.961 . S
C260 H320 0.961 . S
C261 C258 1.496 . S
C261 H321 0.960 . S
C261 H322 0.960 . S
C261 H323 0.961 . S
C262 C263 1.517 . S
C262 H325 0.961 . S
C262 H326 0.960 . S
C262 H327 0.959 . S
C263 C262 1.517 . S
C263 O311 1.468 . S
C263 H324 0.980 . S
C264 C265 1.349 . S
C264 C269 1.367 . S
C264 O311 1.408 . S
C265 C264 1.349 . S
C265 C266 1.407 . S
C265 H328 0.930 . S
C266 C265 1.407 . S
C266 C267 1.449 . S
C266 C270 1.535 . S
C267 C266 1.449 . S
C267 C268 1.384 . S
C267 C292 1.553 . S
C268 C267 1.384 . S
C268 C269 1.364 . S
C268 C271 1.450 . S
C269 C264 1.367 . S
C269 C268 1.364 . S
C269 H329 0.931 . S
C270 C266 1.535 . S
C270 H330 0.959 . S
C270 H331 0.961 . S
C270 H332 0.959 . S
C271 C268 1.450 . S
C271 H333 0.960 . S
C271 H334 0.960 . S
C271 H335 0.960 . S
C272 C273 1.309 . S
C272 C277 1.304 . S
C272 O310 1.435 . S
C273 C272 1.309 . S
C273 C274 1.476 . S
C273 H337 0.930 . S
C274 C273 1.476 . S
C274 C275 1.400 . S
C274 C278 1.567 . S
C275 C274 1.400 . S
C275 C276 1.373 . S
C275 C297 1.432 . S
C276 C275 1.373 . S
C276 C277 1.339 . S
C276 C279 1.530 . S
C277 C272 1.304 . S
C277 C276 1.339 . S
C277 H338 0.930 . S
C278 C274 1.567 . S
C278 H339 0.961 . S
C278 H340 0.960 . S
C278 H341 0.958 . S
C279 C276 1.530 . S
C279 H342 0.961 . S
C279 H343 0.960 . S
C279 H344 0.960 . S
C280 C281 1.530 . S
C280 H346 0.961 . S
C280 H347 0.961 . S
C280 H348 0.959 . S
C281 C280 1.530 . S
C281 O309 1.412 . S
C281 H345 0.980 . S
C282 C283 1.288 . S
C282 C287 1.377 . S
C282 O309 1.393 . S
C283 C282 1.288 . S
C283 C284 1.369 . S
C283 H349 0.932 . S
C284 C283 1.369 . S
C284 C285 1.398 . S
C284 C288 1.527 . S
C285 C284 1.398 . S
C285 C286 1.380 . S
C285 C299 1.497 . S
C286 C285 1.380 . S
C286 C287 1.383 . S
C286 C289 1.603 . S
C287 C282 1.377 . S
C287 C286 1.383 . S
C287 H350 0.929 . S
C288 C284 1.527 . S
C288 H351 0.961 . S
C288 H352 0.959 . S
C288 H353 0.959 . S
C289 C286 1.603 . S
C289 H354 0.960 . S
C289 H355 0.962 . S
C289 H356 0.961 . S
C290 C257 1.587 . S
C290 C291 1.360 . S
C290 C303 1.412 . S
C291 C290 1.360 . S
C291 C292 1.365 . S
C291 H357 0.929 . S
C292 C267 1.553 . S
C292 C291 1.365 . S
C292 C293 1.404 . S
C293 C292 1.404 . S
C293 C294 1.395 . S
C293 C304 1.451 . S
C294 C293 1.395 . S
C294 C295 1.322 . S
C294 H358 0.930 . S
C295 C294 1.322 . S
C295 C296 1.459 . S
C295 H359 0.929 . S
C296 C295 1.459 . S
C296 C297 1.445 . S
C296 C305 1.395 . S
C297 C275 1.432 . S
C297 C296 1.445 . S
C297 C298 1.370 . S
C298 C297 1.370 . S
C298 C299 1.438 . S
C298 H360 0.930 . S
C299 C285 1.497 . S
C299 C298 1.438 . S
C299 C300 1.360 . S
C300 C299 1.360 . S
C300 C301 1.401 . S
C300 C305 1.446 . S
C301 C300 1.401 . S
C301 C302 1.347 . S
C301 H361 0.929 . S
C302 C301 1.347 . S
C302 C303 1.455 . S
C302 H362 0.930 . S
C303 C290 1.412 . S
C303 C302 1.455 . S
C303 C304 1.331 . S
C304 C293 1.451 . S
C304 C303 1.331 . S
C304 C305 1.497 . S
C305 C296 1.395 . S
C305 C300 1.446 . S
C305 C304 1.497 . S
C306 C307 1.582 . S
C306 H363 0.962 . S
C306 H364 0.959 . S
C306 H365 0.958 . S
C307 C306 1.582 . S
C307 O310 1.458 . S
C307 H336 0.980 . S
O308 C253 1.426 . S
O308 C254 1.334 . S
O309 C281 1.412 . S
O309 C282 1.393 . S
O310 C272 1.435 . S
O310 C307 1.458 . S
O311 C263 1.468 . S
O311 C264 1.408 . S
H312 C253 0.980 . S
H313 C252 0.959 . S
H314 C252 0.959 . S
H315 C252 0.960 . S
H316 C255 0.929 . S
H317 C259 0.929 . S
H318 C260 0.959 . S
H319 C260 0.961 . S
H320 C260 0.961 . S
H321 C261 0.960 . S
H322 C261 0.960 . S
H323 C261 0.961 . S
H324 C263 0.980 . S
H325 C262 0.961 . S
H326 C262 0.960 . S
H327 C262 0.959 . S
H328 C265 0.930 . S
H329 C269 0.931 . S
H330 C270 0.959 . S
H331 C270 0.961 . S
H332 C270 0.959 . S
H333 C271 0.960 . S
H334 C271 0.960 . S
H335 C271 0.960 . S
H336 C307 0.980 . S
H337 C273 0.930 . S
H338 C277 0.930 . S
H339 C278 0.961 . S
H340 C278 0.960 . S
H341 C278 0.958 . S
H342 C279 0.961 . S
H343 C279 0.960 . S
H344 C279 0.960 . S
H345 C281 0.980 . S
H346 C280 0.961 . S
H347 C280 0.961 . S
H348 C280 0.959 . S
H349 C283 0.932 . S
H350 C287 0.929 . S
H351 C288 0.961 . S
H352 C288 0.959 . S
H353 C288 0.959 . S
H354 C289 0.960 . S
H355 C289 0.962 . S
H356 C289 0.961 . S
H357 C291 0.929 . S
H358 C294 0.930 . S
H359 C295 0.929 . S
H360 C298 0.930 . S
H361 C301 0.929 . S
H362 C302 0.930 . S
H363 C306 0.962 . S
H364 C306 0.959 . S
H365 C306 0.958 . S
C366 C367 1.560 . S
C366 H427 0.959 . S
C366 H428 0.959 . S
C366 H429 0.960 . S
C367 C366 1.560 . S
C367 O422 1.426 . S
C367 H426 0.980 . S
C368 C369 1.407 . S
C368 C373 1.418 . S
C368 O422 1.334 . S
C369 C368 1.407 . S
C369 C370 1.360 . S
C369 H430 0.929 . S
C370 C369 1.360 . S
C370 C371 1.401 . S
C370 C374 1.527 . S
C371 C370 1.401 . S
C371 C372 1.405 . S
C371 C404 1.587 . S
C372 C371 1.405 . S
C372 C373 1.332 . S
C372 C375 1.496 . S
C373 C368 1.418 . S
C373 C372 1.332 . S
C373 H431 0.929 . S
C374 C370 1.527 . S
C374 H432 0.959 . S
C374 H433 0.961 . S
C374 H434 0.961 . S
C375 C372 1.496 . S
C375 H435 0.960 . S
C375 H436 0.960 . S
C375 H437 0.961 . S
C376 C377 1.517 . S
C376 H439 0.961 . S
C376 H440 0.960 . S
C376 H441 0.959 . S
C377 C376 1.517 . S
C377 O425 1.468 . S
C377 H438 0.980 . S
C378 C379 1.349 . S
C378 C383 1.367 . S
C378 O425 1.408 . S
C379 C378 1.349 . S
C379 C380 1.407 . S
C379 H442 0.930 . S
C380 C379 1.407 . S
C380 C381 1.449 . S
C380 C384 1.535 . S
C381 C380 1.449 . S
C381 C382 1.384 . S
C381 C406 1.553 . S
C382 C381 1.384 . S
C382 C383 1.364 . S
C382 C385 1.450 . S
C383 C378 1.367 . S
C383 C382 1.364 . S
C383 H443 0.931 . S
C384 C380 1.535 . S
C384 H444 0.959 . S
C384 H445 0.961 . S
C384 H446 0.959 . S
C385 C382 1.450 . S
C385 H447 0.960 . S
C385 H448 0.960 . S
C385 H449 0.960 . S
C386 C387 1.309 . S
C386 C391 1.304 . S
C386 O424 1.435 . S
C387 C386 1.309 . S
C387 C388 1.476 . S
C387 H451 0.930 . S
C388 C387 1.476 . S
C388 C389 1.400 . S
C388 C392 1.567 . S
C389 C388 1.400 . S
C389 C390 1.373 . S
C389 C411 1.432 . S
C390 C389 1.373 . S
C390 C391 1.339 . S
C390 C393 1.530 . S
C391 C386 1.304 . S
C391 C390 1.339 . S
C391 H452 0.930 . S
C392 C388 1.567 . S
C392 H453 0.961 . S
C392 H454 0.960 . S
C392 H455 0.958 . S
C393 C390 1.530 . S
C393 H456 0.961 . S
C393 H457 0.960 . S
C393 H458 0.960 . S
C394 C395 1.530 . S
C394 H460 0.961 . S
C394 H461 0.961 . S
C394 H462 0.959 . S
C395 C394 1.530 . S
C395 O423 1.412 . S
C395 H459 0.980 . S
C396 C397 1.288 . S
C396 C401 1.377 . S
C396 O423 1.393 . S
C397 C396 1.288 . S
C397 C398 1.369 . S
C397 H463 0.932 . S
C398 C397 1.369 . S
C398 C399 1.398 . S
C398 C402 1.527 . S
C399 C398 1.398 . S
C399 C400 1.380 . S
C399 C413 1.497 . S
C400 C399 1.380 . S
C400 C401 1.383 . S
C400 C403 1.603 . S
C401 C396 1.377 . S
C401 C400 1.383 . S
C401 H464 0.929 . S
C402 C398 1.527 . S
C402 H465 0.961 . S
C402 H466 0.959 . S
C402 H467 0.959 . S
C403 C400 1.603 . S
C403 H468 0.960 . S
C403 H469 0.962 . S
C403 H470 0.961 . S
C404 C371 1.587 . S
C404 C405 1.360 . S
C404 C417 1.412 . S
C405 C404 1.360 . S
C405 C406 1.365 . S
C405 H471 0.929 . S
C406 C381 1.553 . S
C406 C405 1.365 . S
C406 C407 1.404 . S
C407 C406 1.404 . S
C407 C408 1.395 . S
C407 C418 1.451 . S
C408 C407 1.395 . S
C408 C409 1.322 . S
C408 H472 0.930 . S
C409 C408 1.322 . S
C409 C410 1.459 . S
C409 H473 0.929 . S
C410 C409 1.459 . S
C410 C411 1.445 . S
C410 C419 1.395 . S
C411 C389 1.432 . S
C411 C410 1.445 . S
C411 C412 1.370 . S
C412 C411 1.370 . S
C412 C413 1.438 . S
C412 H474 0.930 . S
C413 C399 1.497 . S
C413 C412 1.438 . S
C413 C414 1.360 . S
C414 C413 1.360 . S
C414 C415 1.401 . S
C414 C419 1.446 . S
C415 C414 1.401 . S
C415 C416 1.347 . S
C415 H475 0.929 . S
C416 C415 1.347 . S
C416 C417 1.455 . S
C416 H476 0.930 . S
C417 C404 1.412 . S
C417 C416 1.455 . S
C417 C418 1.331 . S
C418 C407 1.451 . S
C418 C417 1.331 . S
C418 C419 1.497 . S
C419 C410 1.395 . S
C419 C414 1.446 . S
C419 C418 1.497 . S
C420 C421 1.582 . S
C420 H477 0.962 . S
C420 H478 0.959 . S
C420 H479 0.958 . S
C421 C420 1.582 . S
C421 O424 1.458 . S
C421 H450 0.980 . S
O422 C367 1.426 . S
O422 C368 1.334 . S
O423 C395 1.412 . S
O423 C396 1.393 . S
O424 C386 1.435 . S
O424 C421 1.458 . S
O425 C377 1.468 . S
O425 C378 1.408 . S
H426 C367 0.980 . S
H427 C366 0.959 . S
H428 C366 0.959 . S
H429 C366 0.960 . S
H430 C369 0.929 . S
H431 C373 0.929 . S
H432 C374 0.959 . S
H433 C374 0.961 . S
H434 C374 0.961 . S
H435 C375 0.960 . S
H436 C375 0.960 . S
H437 C375 0.961 . S
H438 C377 0.980 . S
H439 C376 0.961 . S
H440 C376 0.960 . S
H441 C376 0.959 . S
H442 C379 0.930 . S
H443 C383 0.931 . S
H444 C384 0.959 . S
H445 C384 0.961 . S
H446 C384 0.959 . S
H447 C385 0.960 . S
H448 C385 0.960 . S
H449 C385 0.960 . S
H450 C421 0.980 . S
H451 C387 0.930 . S
H452 C391 0.930 . S
H453 C392 0.961 . S
H454 C392 0.960 . S
H455 C392 0.958 . S
H456 C393 0.961 . S
H457 C393 0.960 . S
H458 C393 0.960 . S
H459 C395 0.980 . S
H460 C394 0.961 . S
H461 C394 0.961 . S
H462 C394 0.959 . S
H463 C397 0.932 . S
H464 C401 0.929 . S
H465 C402 0.961 . S
H466 C402 0.959 . S
H467 C402 0.959 . S
H468 C403 0.960 . S
H469 C403 0.962 . S
H470 C403 0.961 . S
H471 C405 0.929 . S
H472 C408 0.930 . S
H473 C409 0.929 . S
H474 C412 0.930 . S
H475 C415 0.929 . S
H476 C416 0.930 . S
H477 C420 0.962 . S
H478 C420 0.959 . S
H479 C420 0.958 . S
C480 C481 1.560 . S
C480 H541 0.959 . S
C480 H542 0.959 . S
C480 H543 0.960 . S
C481 C480 1.560 . S
C481 O536 1.426 . S
C481 H540 0.980 . S
C482 C483 1.407 . S
C482 C487 1.418 . S
C482 O536 1.334 . S
C483 C482 1.407 . S
C483 C484 1.360 . S
C483 H544 0.929 . S
C484 C483 1.360 . S
C484 C485 1.401 . S
C484 C488 1.527 . S
C485 C484 1.401 . S
C485 C486 1.405 . S
C485 C518 1.587 . S
C486 C485 1.405 . S
C486 C487 1.332 . S
C486 C489 1.496 . S
C487 C482 1.418 . S
C487 C486 1.332 . S
C487 H545 0.929 . S
C488 C484 1.527 . S
C488 H546 0.959 . S
C488 H547 0.961 . S
C488 H548 0.961 . S
C489 C486 1.496 . S
C489 H549 0.960 . S
C489 H550 0.960 . S
C489 H551 0.961 . S
C490 C491 1.517 . S
C490 H553 0.961 . S
C490 H554 0.960 . S
C490 H555 0.959 . S
C491 C490 1.517 . S
C491 O539 1.468 . S
C491 H552 0.980 . S
C492 C493 1.349 . S
C492 C497 1.367 . S
C492 O539 1.408 . S
C493 C492 1.349 . S
C493 C494 1.407 . S
C493 H556 0.930 . S
C494 C493 1.407 . S
C494 C495 1.449 . S
C494 C498 1.535 . S
C495 C494 1.449 . S
C495 C496 1.384 . S
C495 C520 1.553 . S
C496 C495 1.384 . S
C496 C497 1.364 . S
C496 C499 1.450 . S
C497 C492 1.367 . S
C497 C496 1.364 . S
C497 H557 0.931 . S
C498 C494 1.535 . S
C498 H558 0.959 . S
C498 H559 0.961 . S
C498 H560 0.959 . S
C499 C496 1.450 . S
C499 H561 0.960 . S
C499 H562 0.960 . S
C499 H563 0.960 . S
C500 C501 1.309 . S
C500 C505 1.304 . S
C500 O538 1.435 . S
C501 C500 1.309 . S
C501 C502 1.476 . S
C501 H565 0.930 . S
C502 C501 1.476 . S
C502 C503 1.400 . S
C502 C506 1.567 . S
C503 C502 1.400 . S
C503 C504 1.373 . S
C503 C525 1.432 . S
C504 C503 1.373 . S
C504 C505 1.339 . S
C504 C507 1.530 . S
C505 C500 1.304 . S
C505 C504 1.339 . S
C505 H566 0.930 . S
C506 C502 1.567 . S
C506 H567 0.961 . S
C506 H568 0.960 . S
C506 H569 0.958 . S
C507 C504 1.530 . S
C507 H570 0.961 . S
C507 H571 0.960 . S
C507 H572 0.960 . S
C508 C509 1.530 . S
C508 H574 0.961 . S
C508 H575 0.961 . S
C508 H576 0.959 . S
C509 C508 1.530 . S
C509 O537 1.412 . S
C509 H573 0.980 . S
C510 C511 1.288 . S
C510 C515 1.377 . S
C510 O537 1.393 . S
C511 C510 1.288 . S
C511 C512 1.369 . S
C511 H577 0.932 . S
C512 C511 1.369 . S
C512 C513 1.398 . S
C512 C516 1.527 . S
C513 C512 1.398 . S
C513 C514 1.380 . S
C513 C527 1.497 . S
C514 C513 1.380 . S
C514 C515 1.383 . S
C514 C517 1.603 . S
C515 C510 1.377 . S
C515 C514 1.383 . S
C515 H578 0.929 . S
C516 C512 1.527 . S
C516 H579 0.961 . S
C516 H580 0.959 . S
C516 H581 0.959 . S
C517 C514 1.603 . S
C517 H582 0.960 . S
C517 H583 0.962 . S
C517 H584 0.961 . S
C518 C485 1.587 . S
C518 C519 1.360 . S
C518 C531 1.412 . S
C519 C518 1.360 . S
C519 C520 1.365 . S
C519 H585 0.929 . S
C520 C495 1.553 . S
C520 C519 1.365 . S
C520 C521 1.404 . S
C521 C520 1.404 . S
C521 C522 1.395 . S
C521 C532 1.451 . S
C522 C521 1.395 . S
C522 C523 1.322 . S
C522 H586 0.930 . S
C523 C522 1.322 . S
C523 C524 1.459 . S
C523 H587 0.929 . S
C524 C523 1.459 . S
C524 C525 1.445 . S
C524 C533 1.395 . S
C525 C503 1.432 . S
C525 C524 1.445 . S
C525 C526 1.370 . S
C526 C525 1.370 . S
C526 C527 1.438 . S
C526 H588 0.930 . S
C527 C513 1.497 . S
C527 C526 1.438 . S
C527 C528 1.360 . S
C528 C527 1.360 . S
C528 C529 1.401 . S
C528 C533 1.446 . S
C529 C528 1.401 . S
C529 C530 1.347 . S
C529 H589 0.929 . S
C530 C529 1.347 . S
C530 C531 1.455 . S
C530 H590 0.930 . S
C531 C518 1.412 . S
C531 C530 1.455 . S
C531 C532 1.331 . S
C532 C521 1.451 . S
C532 C531 1.331 . S
C532 C533 1.497 . S
C533 C524 1.395 . S
C533 C528 1.446 . S
C533 C532 1.497 . S
C534 C535 1.582 . S
C534 H591 0.962 . S
C534 H592 0.959 . S
C534 H593 0.958 . S
C535 C534 1.582 . S
C535 O538 1.458 . S
C535 H564 0.980 . S
O536 C481 1.426 . S
O536 C482 1.334 . S
O537 C509 1.412 . S
O537 C510 1.393 . S
O538 C500 1.435 . S
O538 C535 1.458 . S
O539 C491 1.468 . S
O539 C492 1.408 . S
H540 C481 0.980 . S
H541 C480 0.959 . S
H542 C480 0.959 . S
H543 C480 0.960 . S
H544 C483 0.929 . S
H545 C487 0.929 . S
H546 C488 0.959 . S
H547 C488 0.961 . S
H548 C488 0.961 . S
H549 C489 0.960 . S
H550 C489 0.960 . S
H551 C489 0.961 . S
H552 C491 0.980 . S
H553 C490 0.961 . S
H554 C490 0.960 . S
H555 C490 0.959 . S
H556 C493 0.930 . S
H557 C497 0.931 . S
H558 C498 0.959 . S
H559 C498 0.961 . S
H560 C498 0.959 . S
H561 C499 0.960 . S
H562 C499 0.960 . S
H563 C499 0.960 . S
H564 C535 0.980 . S
H565 C501 0.930 . S
H566 C505 0.930 . S
H567 C506 0.961 . S
H568 C506 0.960 . S
H569 C506 0.958 . S
H570 C507 0.961 . S
H571 C507 0.960 . S
H572 C507 0.960 . S
H573 C509 0.980 . S
H574 C508 0.961 . S
H575 C508 0.961 . S
H576 C508 0.959 . S
H577 C511 0.932 . S
H578 C515 0.929 . S
H579 C516 0.961 . S
H580 C516 0.959 . S
H581 C516 0.959 . S
H582 C517 0.960 . S
H583 C517 0.962 . S
H584 C517 0.961 . S
H585 C519 0.929 . S
H586 C522 0.930 . S
H587 C523 0.929 . S
H588 C526 0.930 . S
H589 C529 0.929 . S
H590 C530 0.930 . S
H591 C534 0.962 . S
H592 C534 0.959 . S
H593 C534 0.958 . S
C594 C595 1.560 . S
C594 H655 0.959 . S
C594 H656 0.959 . S
C594 H657 0.960 . S
C595 C594 1.560 . S
C595 O650 1.426 . S
C595 H654 0.980 . S
C596 C597 1.407 . S
C596 C601 1.418 . S
C596 O650 1.334 . S
C597 C596 1.407 . S
C597 C598 1.360 . S
C597 H658 0.929 . S
C598 C597 1.360 . S
C598 C599 1.401 . S
C598 C602 1.527 . S
C599 C598 1.401 . S
C599 C600 1.405 . S
C599 C632 1.587 . S
C600 C599 1.405 . S
C600 C601 1.332 . S
C600 C603 1.496 . S
C601 C596 1.418 . S
C601 C600 1.332 . S
C601 H659 0.929 . S
C602 C598 1.527 . S
C602 H660 0.959 . S
C602 H661 0.961 . S
C602 H662 0.961 . S
C603 C600 1.496 . S
C603 H663 0.960 . S
C603 H664 0.960 . S
C603 H665 0.961 . S
C604 C605 1.517 . S
C604 H667 0.961 . S
C604 H668 0.960 . S
C604 H669 0.959 . S
C605 C604 1.517 . S
C605 O653 1.468 . S
C605 H666 0.980 . S
C606 C607 1.349 . S
C606 C611 1.367 . S
C606 O653 1.408 . S
C607 C606 1.349 . S
C607 C608 1.407 . S
C607 H670 0.930 . S
C608 C607 1.407 . S
C608 C609 1.449 . S
C608 C612 1.535 . S
C609 C608 1.449 . S
C609 C610 1.384 . S
C609 C634 1.553 . S
C610 C609 1.384 . S
C610 C611 1.364 . S
C610 C613 1.450 . S
C611 C606 1.367 . S
C611 C610 1.364 . S
C611 H671 0.931 . S
C612 C608 1.535 . S
C612 H672 0.959 . S
C612 H673 0.961 . S
C612 H674 0.959 . S
C613 C610 1.450 . S
C613 H675 0.960 . S
C613 H676 0.960 . S
C613 H677 0.960 . S
C614 C615 1.309 . S
C614 C619 1.304 . S
C614 O652 1.435 . S
C615 C614 1.309 . S
C615 C616 1.476 . S
C615 H679 0.930 . S
C616 C615 1.476 . S
C616 C617 1.400 . S
C616 C620 1.567 . S
C617 C616 1.400 . S
C617 C618 1.373 . S
C617 C639 1.432 . S
C618 C617 1.373 . S
C618 C619 1.339 . S
C618 C621 1.530 . S
C619 C614 1.304 . S
C619 C618 1.339 . S
C619 H680 0.930 . S
C620 C616 1.567 . S
C620 H681 0.961 . S
C620 H682 0.960 . S
C620 H683 0.958 . S
C621 C618 1.530 . S
C621 H684 0.961 . S
C621 H685 0.960 . S
C621 H686 0.960 . S
C622 C623 1.530 . S
C622 H688 0.961 . S
C622 H689 0.961 . S
C622 H690 0.959 . S
C623 C622 1.530 . S
C623 O651 1.412 . S
C623 H687 0.980 . S
C624 C625 1.288 . S
C624 C629 1.377 . S
C624 O651 1.393 . S
C625 C624 1.288 . S
C625 C626 1.369 . S
C625 H691 0.932 . S
C626 C625 1.369 . S
C626 C627 1.398 . S
C626 C630 1.527 . S
C627 C626 1.398 . S
C627 C628 1.380 . S
C627 C641 1.497 . S
C628 C627 1.380 . S
C628 C629 1.383 . S
C628 C631 1.603 . S
C629 C624 1.377 . S
C629 C628 1.383 . S
C629 H692 0.929 . S
C630 C626 1.527 . S
C630 H693 0.961 . S
C630 H694 0.959 . S
C630 H695 0.959 . S
C631 C628 1.603 . S
C631 H696 0.960 . S
C631 H697 0.962 . S
C631 H698 0.961 . S
C632 C599 1.587 . S
C632 C633 1.360 . S
C632 C645 1.412 . S
C633 C632 1.360 . S
C633 C634 1.365 . S
C633 H699 0.929 . S
C634 C609 1.553 . S
C634 C633 1.365 . S
C634 C635 1.404 . S
C635 C634 1.404 . S
C635 C636 1.395 . S
C635 C646 1.451 . S
C636 C635 1.395 . S
C636 C637 1.322 . S
C636 H700 0.930 . S
C637 C636 1.322 . S
C637 C638 1.459 . S
C637 H701 0.929 . S
C638 C637 1.459 . S
C638 C639 1.445 . S
C638 C647 1.395 . S
C639 C617 1.432 . S
C639 C638 1.445 . S
C639 C640 1.370 . S
C640 C639 1.370 . S
C640 C641 1.438 . S
C640 H702 0.930 . S
C641 C627 1.497 . S
C641 C640 1.438 . S
C641 C642 1.360 . S
C642 C641 1.360 . S
C642 C643 1.401 . S
C642 C647 1.446 . S
C643 C642 1.401 . S
C643 C644 1.347 . S
C643 H703 0.929 . S
C644 C643 1.347 . S
C644 C645 1.455 . S
C644 H704 0.930 . S
C645 C632 1.412 . S
C645 C644 1.455 . S
C645 C646 1.331 . S
C646 C635 1.451 . S
C646 C645 1.331 . S
C646 C647 1.497 . S
C647 C638 1.395 . S
C647 C642 1.446 . S
C647 C646 1.497 . S
C648 C649 1.582 . S
C648 H705 0.962 . S
C648 H706 0.959 . S
C648 H707 0.958 . S
C649 C648 1.582 . S
C649 O652 1.458 . S
C649 H678 0.980 . S
O650 C595 1.426 . S
O650 C596 1.334 . S
O651 C623 1.412 . S
O651 C624 1.393 . S
O652 C614 1.435 . S
O652 C649 1.458 . S
O653 C605 1.468 . S
O653 C606 1.408 . S
H654 C595 0.980 . S
H655 C594 0.959 . S
H656 C594 0.959 . S
H657 C594 0.960 . S
H658 C597 0.929 . S
H659 C601 0.929 . S
H660 C602 0.959 . S
H661 C602 0.961 . S
H662 C602 0.961 . S
H663 C603 0.960 . S
H664 C603 0.960 . S
H665 C603 0.961 . S
H666 C605 0.980 . S
H667 C604 0.961 . S
H668 C604 0.960 . S
H669 C604 0.959 . S
H670 C607 0.930 . S
H671 C611 0.931 . S
H672 C612 0.959 . S
H673 C612 0.961 . S
H674 C612 0.959 . S
H675 C613 0.960 . S
H676 C613 0.960 . S
H677 C613 0.960 . S
H678 C649 0.980 . S
H679 C615 0.930 . S
H680 C619 0.930 . S
H681 C620 0.961 . S
H682 C620 0.960 . S
H683 C620 0.958 . S
H684 C621 0.961 . S
H685 C621 0.960 . S
H686 C621 0.960 . S
H687 C623 0.980 . S
H688 C622 0.961 . S
H689 C622 0.961 . S
H690 C622 0.959 . S
H691 C625 0.932 . S
H692 C629 0.929 . S
H693 C630 0.961 . S
H694 C630 0.959 . S
H695 C630 0.959 . S
H696 C631 0.960 . S
H697 C631 0.962 . S
H698 C631 0.961 . S
H699 C633 0.929 . S
H700 C636 0.930 . S
H701 C637 0.929 . S
H702 C640 0.930 . S
H703 C643 0.929 . S
H704 C644 0.930 . S
H705 C648 0.962 . S
H706 C648 0.959 . S
H707 C648 0.958 . S
C708 C709 1.560 . S
C708 H769 0.959 . S
C708 H770 0.959 . S
C708 H771 0.960 . S
C709 C708 1.560 . S
C709 O764 1.426 . S
C709 H768 0.980 . S
C710 C711 1.407 . S
C710 C715 1.418 . S
C710 O764 1.334 . S
C711 C710 1.407 . S
C711 C712 1.360 . S
C711 H772 0.929 . S
C712 C711 1.360 . S
C712 C713 1.401 . S
C712 C716 1.527 . S
C713 C712 1.401 . S
C713 C714 1.405 . S
C713 C746 1.587 . S
C714 C713 1.405 . S
C714 C715 1.332 . S
C714 C717 1.496 . S
C715 C710 1.418 . S
C715 C714 1.332 . S
C715 H773 0.929 . S
C716 C712 1.527 . S
C716 H774 0.959 . S
C716 H775 0.961 . S
C716 H776 0.961 . S
C717 C714 1.496 . S
C717 H777 0.960 . S
C717 H778 0.960 . S
C717 H779 0.961 . S
C718 C719 1.517 . S
C718 H781 0.961 . S
C718 H782 0.960 . S
C718 H783 0.959 . S
C719 C718 1.517 . S
C719 O767 1.468 . S
C719 H780 0.980 . S
C720 C721 1.349 . S
C720 C725 1.367 . S
C720 O767 1.408 . S
C721 C720 1.349 . S
C721 C722 1.407 . S
C721 H784 0.930 . S
C722 C721 1.407 . S
C722 C723 1.449 . S
C722 C726 1.535 . S
C723 C722 1.449 . S
C723 C724 1.384 . S
C723 C748 1.553 . S
C724 C723 1.384 . S
C724 C725 1.364 . S
C724 C727 1.450 . S
C725 C720 1.367 . S
C725 C724 1.364 . S
C725 H785 0.931 . S
C726 C722 1.535 . S
C726 H786 0.959 . S
C726 H787 0.961 . S
C726 H788 0.959 . S
C727 C724 1.450 . S
C727 H789 0.960 . S
C727 H790 0.960 . S
C727 H791 0.960 . S
C728 C729 1.309 . S
C728 C733 1.304 . S
C728 O766 1.435 . S
C729 C728 1.309 . S
C729 C730 1.476 . S
C729 H793 0.930 . S
C730 C729 1.476 . S
C730 C731 1.400 . S
C730 C734 1.567 . S
C731 C730 1.400 . S
C731 C732 1.373 . S
C731 C753 1.432 . S
C732 C731 1.373 . S
C732 C733 1.339 . S
C732 C735 1.530 . S
C733 C728 1.304 . S
C733 C732 1.339 . S
C733 H794 0.930 . S
C734 C730 1.567 . S
C734 H795 0.961 . S
C734 H796 0.960 . S
C734 H797 0.958 . S
C735 C732 1.530 . S
C735 H798 0.961 . S
C735 H799 0.960 . S
C735 H800 0.960 . S
C736 C737 1.530 . S
C736 H802 0.961 . S
C736 H803 0.961 . S
C736 H804 0.959 . S
C737 C736 1.530 . S
C737 O765 1.412 . S
C737 H801 0.980 . S
C738 C739 1.288 . S
C738 C743 1.377 . S
C738 O765 1.393 . S
C739 C738 1.288 . S
C739 C740 1.369 . S
C739 H805 0.932 . S
C740 C739 1.369 . S
C740 C741 1.398 . S
C740 C744 1.527 . S
C741 C740 1.398 . S
C741 C742 1.380 . S
C741 C755 1.497 . S
C742 C741 1.380 . S
C742 C743 1.383 . S
C742 C745 1.603 . S
C743 C738 1.377 . S
C743 C742 1.383 . S
C743 H806 0.929 . S
C744 C740 1.527 . S
C744 H807 0.961 . S
C744 H808 0.959 . S
C744 H809 0.959 . S
C745 C742 1.603 . S
C745 H810 0.960 . S
C745 H811 0.962 . S
C745 H812 0.961 . S
C746 C713 1.587 . S
C746 C747 1.360 . S
C746 C759 1.412 . S
C747 C746 1.360 . S
C747 C748 1.365 . S
C747 H813 0.929 . S
C748 C723 1.553 . S
C748 C747 1.365 . S
C748 C749 1.404 . S
C749 C748 1.404 . S
C749 C750 1.395 . S
C749 C760 1.451 . S
C750 C749 1.395 . S
C750 C751 1.322 . S
C750 H814 0.930 . S
C751 C750 1.322 . S
C751 C752 1.459 . S
C751 H815 0.929 . S
C752 C751 1.459 . S
C752 C753 1.445 . S
C752 C761 1.395 . S
C753 C731 1.432 . S
C753 C752 1.445 . S
C753 C754 1.370 . S
C754 C753 1.370 . S
C754 C755 1.438 . S
C754 H816 0.930 . S
C755 C741 1.497 . S
C755 C754 1.438 . S
C755 C756 1.360 . S
C756 C755 1.360 . S
C756 C757 1.401 . S
C756 C761 1.446 . S
C757 C756 1.401 . S
C757 C758 1.347 . S
C757 H817 0.929 . S
C758 C757 1.347 . S
C758 C759 1.455 . S
C758 H818 0.930 . S
C759 C746 1.412 . S
C759 C758 1.455 . S
C759 C760 1.331 . S
C760 C749 1.451 . S
C760 C759 1.331 . S
C760 C761 1.497 . S
C761 C752 1.395 . S
C761 C756 1.446 . S
C761 C760 1.497 . S
C762 C763 1.582 . S
C762 H819 0.962 . S
C762 H820 0.959 . S
C762 H821 0.958 . S
C763 C762 1.582 . S
C763 O766 1.458 . S
C763 H792 0.980 . S
O764 C709 1.426 . S
O764 C710 1.334 . S
O765 C737 1.412 . S
O765 C738 1.393 . S
O766 C728 1.435 . S
O766 C763 1.458 . S
O767 C719 1.468 . S
O767 C720 1.408 . S
H768 C709 0.980 . S
H769 C708 0.959 . S
H770 C708 0.959 . S
H771 C708 0.960 . S
H772 C711 0.929 . S
H773 C715 0.929 . S
H774 C716 0.959 . S
H775 C716 0.961 . S
H776 C716 0.961 . S
H777 C717 0.960 . S
H778 C717 0.960 . S
H779 C717 0.961 . S
H780 C719 0.980 . S
H781 C718 0.961 . S
H782 C718 0.960 . S
H783 C718 0.959 . S
H784 C721 0.930 . S
H785 C725 0.931 . S
H786 C726 0.959 . S
H787 C726 0.961 . S
H788 C726 0.959 . S
H789 C727 0.960 . S
H790 C727 0.960 . S
H791 C727 0.960 . S
H792 C763 0.980 . S
H793 C729 0.930 . S
H794 C733 0.930 . S
H795 C734 0.961 . S
H796 C734 0.960 . S
H797 C734 0.958 . S
H798 C735 0.961 . S
H799 C735 0.960 . S
H800 C735 0.960 . S
H801 C737 0.980 . S
H802 C736 0.961 . S
H803 C736 0.961 . S
H804 C736 0.959 . S
H805 C739 0.932 . S
H806 C743 0.929 . S
H807 C744 0.961 . S
H808 C744 0.959 . S
H809 C744 0.959 . S
H810 C745 0.960 . S
H811 C745 0.962 . S
H812 C745 0.961 . S
H813 C747 0.929 . S
H814 C750 0.930 . S
H815 C751 0.929 . S
H816 C754 0.930 . S
H817 C757 0.929 . S
H818 C758 0.930 . S
H819 C762 0.962 . S
H820 C762 0.959 . S
H821 C762 0.958 . S
C822 C823 1.391 . S
C822 C824 1.394 . S
C822 H838 0.931 . S
C823 C822 1.391 . S
C823 C827 1.376 . S
C824 C822 1.394 . S
C824 C825 1.369 . S
C824 C828 1.531 . S
C825 C824 1.369 . S
C825 C826 1.410 . S
C825 C833 1.503 . S
C826 C825 1.410 . S
C826 C827 1.392 . S
C826 C829 1.511 . S
C827 C823 1.376 . S
C827 C826 1.392 . S
C827 H839 0.929 . S
C828 C824 1.531 . S
C828 H840 0.960 . S
C828 H841 0.962 . S
C828 H842 0.960 . S
C829 C826 1.511 . S
C829 H843 0.961 . S
C829 H844 0.961 . S
C829 H845 0.961 . S
C830 C831 1.370 . S
C830 C832 1.363 . S
C830 H846 0.931 . S
C831 C830 1.370 . S
C831 C835 1.408 . S
C832 C830 1.363 . S
C832 C833 1.370 . S
C832 C836 1.524 . S
C833 C825 1.503 . S
C833 C832 1.370 . S
C833 C834 1.403 . S
C834 C833 1.403 . S
C834 C835 1.404 . S
C834 C837 1.539 . S
C835 C831 1.408 . S
C835 C834 1.404 . S
C835 H847 0.930 . S
C836 C832 1.524 . S
C836 H848 0.956 . S
C836 H849 0.961 . S
C836 H850 0.961 . S
C837 C834 1.539 . S
C837 H851 0.958 . S
C837 H852 0.961 . S
C837 H853 0.960 . S
H838 C822 0.931 . S
H839 C827 0.929 . S
H840 C828 0.960 . S
H841 C828 0.962 . S
H842 C828 0.960 . S
H843 C829 0.961 . S
H844 C829 0.961 . S
H845 C829 0.961 . S
H846 C830 0.931 . S
H847 C835 0.930 . S
H848 C836 0.956 . S
H849 C836 0.961 . S
H850 C836 0.961 . S
H851 C837 0.958 . S
H852 C837 0.961 . S
H853 C837 0.960 . S
C854 C855 1.391 . S
C854 C856 1.394 . S
C854 H870 0.931 . S
C855 C854 1.391 . S
C855 C859 1.376 . S
C856 C854 1.394 . S
C856 C857 1.369 . S
C856 C860 1.531 . S
C857 C856 1.369 . S
C857 C858 1.410 . S
C857 C865 1.503 . S
C858 C857 1.410 . S
C858 C859 1.392 . S
C858 C861 1.511 . S
C859 C855 1.376 . S
C859 C858 1.392 . S
C859 H871 0.929 . S
C860 C856 1.531 . S
C860 H872 0.960 . S
C860 H873 0.962 . S
C860 H874 0.960 . S
C861 C858 1.511 . S
C861 H875 0.961 . S
C861 H876 0.961 . S
C861 H877 0.961 . S
C862 C863 1.370 . S
C862 C864 1.363 . S
C862 H878 0.931 . S
C863 C862 1.370 . S
C863 C867 1.408 . S
C864 C862 1.363 . S
C864 C865 1.370 . S
C864 C868 1.524 . S
C865 C857 1.503 . S
C865 C864 1.370 . S
C865 C866 1.403 . S
C866 C865 1.403 . S
C866 C867 1.404 . S
C866 C869 1.539 . S
C867 C863 1.408 . S
C867 C866 1.404 . S
C867 H879 0.930 . S
C868 C864 1.524 . S
C868 H880 0.956 . S
C868 H881 0.961 . S
C868 H882 0.961 . S
C869 C866 1.539 . S
C869 H883 0.958 . S
C869 H884 0.961 . S
C869 H885 0.960 . S
H870 C854 0.931 . S
H871 C859 0.929 . S
H872 C860 0.960 . S
H873 C860 0.962 . S
H874 C860 0.960 . S
H875 C861 0.961 . S
H876 C861 0.961 . S
H877 C861 0.961 . S
H878 C862 0.931 . S
H879 C867 0.930 . S
H880 C868 0.956 . S
H881 C868 0.961 . S
H882 C868 0.961 . S
H883 C869 0.958 . S
H884 C869 0.961 . S
H885 C869 0.960 . S
C886 C887 1.391 . S
C886 C888 1.394 . S
C886 H902 0.931 . S
C887 C886 1.391 . S
C887 C891 1.376 . S
C888 C886 1.394 . S
C888 C889 1.369 . S
C888 C892 1.531 . S
C889 C888 1.369 . S
C889 C890 1.410 . S
C889 C897 1.503 . S
C890 C889 1.410 . S
C890 C891 1.392 . S
C890 C893 1.511 . S
C891 C887 1.376 . S
C891 C890 1.392 . S
C891 H903 0.929 . S
C892 C888 1.531 . S
C892 H904 0.960 . S
C892 H905 0.962 . S
C892 H906 0.960 . S
C893 C890 1.511 . S
C893 H907 0.961 . S
C893 H908 0.961 . S
C893 H909 0.961 . S
C894 C895 1.370 . S
C894 C896 1.363 . S
C894 H910 0.931 . S
C895 C894 1.370 . S
C895 C899 1.408 . S
C896 C894 1.363 . S
C896 C897 1.370 . S
C896 C900 1.524 . S
C897 C889 1.503 . S
C897 C896 1.370 . S
C897 C898 1.403 . S
C898 C897 1.403 . S
C898 C899 1.404 . S
C898 C901 1.539 . S
C899 C895 1.408 . S
C899 C898 1.404 . S
C899 H911 0.930 . S
C900 C896 1.524 . S
C900 H912 0.956 . S
C900 H913 0.961 . S
C900 H914 0.961 . S
C901 C898 1.539 . S
C901 H915 0.958 . S
C901 H916 0.961 . S
C901 H917 0.960 . S
H902 C886 0.931 . S
H903 C891 0.929 . S
H904 C892 0.960 . S
H905 C892 0.962 . S
H906 C892 0.960 . S
H907 C893 0.961 . S
H908 C893 0.961 . S
H909 C893 0.961 . S
H910 C894 0.931 . S
H911 C899 0.930 . S
H912 C900 0.956 . S
H913 C900 0.961 . S
H914 C900 0.961 . S
H915 C901 0.958 . S
H916 C901 0.961 . S
H917 C901 0.960 . S
C918 C919 1.391 . S
C918 C920 1.394 . S
C918 H934 0.931 . S
C919 C918 1.391 . S
C919 C923 1.376 . S
C920 C918 1.394 . S
C920 C921 1.369 . S
C920 C924 1.531 . S
C921 C920 1.369 . S
C921 C922 1.410 . S
C921 C929 1.503 . S
C922 C921 1.410 . S
C922 C923 1.392 . S
C922 C925 1.511 . S
C923 C919 1.376 . S
C923 C922 1.392 . S
C923 H935 0.929 . S
C924 C920 1.531 . S
C924 H936 0.960 . S
C924 H937 0.962 . S
C924 H938 0.960 . S
C925 C922 1.511 . S
C925 H939 0.961 . S
C925 H940 0.961 . S
C925 H941 0.961 . S
C926 C927 1.370 . S
C926 C928 1.363 . S
C926 H942 0.931 . S
C927 C926 1.370 . S
C927 C931 1.408 . S
C928 C926 1.363 . S
C928 C929 1.370 . S
C928 C932 1.524 . S
C929 C921 1.503 . S
C929 C928 1.370 . S
C929 C930 1.403 . S
C930 C929 1.403 . S
C930 C931 1.404 . S
C930 C933 1.539 . S
C931 C927 1.408 . S
C931 C930 1.404 . S
C931 H943 0.930 . S
C932 C928 1.524 . S
C932 H944 0.956 . S
C932 H945 0.961 . S
C932 H946 0.961 . S
C933 C930 1.539 . S
C933 H947 0.958 . S
C933 H948 0.961 . S
C933 H949 0.960 . S
H934 C918 0.931 . S
H935 C923 0.929 . S
H936 C924 0.960 . S
H937 C924 0.962 . S
H938 C924 0.960 . S
H939 C925 0.961 . S
H940 C925 0.961 . S
H941 C925 0.961 . S
H942 C926 0.931 . S
H943 C931 0.930 . S
H944 C932 0.956 . S
H945 C932 0.961 . S
H946 C932 0.961 . S
H947 C933 0.958 . S
H948 C933 0.961 . S
H949 C933 0.960 . S
C950 C951 1.391 . S
C950 C952 1.394 . S
C950 H966 0.931 . S
C951 C950 1.391 . S
C951 C955 1.376 . S
C952 C950 1.394 . S
C952 C953 1.369 . S
C952 C956 1.531 . S
C953 C952 1.369 . S
C953 C954 1.410 . S
C953 C961 1.503 . S
C954 C953 1.410 . S
C954 C955 1.392 . S
C954 C957 1.511 . S
C955 C951 1.376 . S
C955 C954 1.392 . S
C955 H967 0.929 . S
C956 C952 1.531 . S
C956 H968 0.960 . S
C956 H969 0.962 . S
C956 H970 0.960 . S
C957 C954 1.511 . S
C957 H971 0.961 . S
C957 H972 0.961 . S
C957 H973 0.961 . S
C958 C959 1.370 . S
C958 C960 1.363 . S
C958 H974 0.931 . S
C959 C958 1.370 . S
C959 C963 1.408 . S
C960 C958 1.363 . S
C960 C961 1.370 . S
C960 C964 1.524 . S
C961 C953 1.503 . S
C961 C960 1.370 . S
C961 C962 1.403 . S
C962 C961 1.403 . S
C962 C963 1.404 . S
C962 C965 1.539 . S
C963 C959 1.408 . S
C963 C962 1.404 . S
C963 H975 0.930 . S
C964 C960 1.524 . S
C964 H976 0.956 . S
C964 H977 0.961 . S
C964 H978 0.961 . S
C965 C962 1.539 . S
C965 H979 0.958 . S
C965 H980 0.961 . S
C965 H981 0.960 . S
H966 C950 0.931 . S
H967 C955 0.929 . S
H968 C956 0.960 . S
H969 C956 0.962 . S
H970 C956 0.960 . S
H971 C957 0.961 . S
H972 C957 0.961 . S
H973 C957 0.961 . S
H974 C958 0.931 . S
H975 C963 0.930 . S
H976 C964 0.956 . S
H977 C964 0.961 . S
H978 C964 0.961 . S
H979 C965 0.958 . S
H980 C965 0.961 . S
H981 C965 0.960 . S
C982 C983 1.391 . S
C982 C984 1.394 . S
C982 H998 0.931 . S
C983 C982 1.391 . S
C983 C987 1.376 . S
C984 C982 1.394 . S
C984 C985 1.369 . S
C984 C988 1.531 . S
C985 C984 1.369 . S
C985 C986 1.410 . S
C985 C993 1.503 . S
C986 C985 1.410 . S
C986 C987 1.392 . S
C986 C989 1.511 . S
C987 C983 1.376 . S
C987 C986 1.392 . S
C987 H999 0.929 . S
C988 C984 1.531 . S
C988 H1000 0.960 . S
C988 H1001 0.962 . S
C988 H1002 0.960 . S
C989 C986 1.511 . S
C989 H1003 0.961 . S
C989 H1004 0.961 . S
C989 H1005 0.961 . S
C990 C991 1.370 . S
C990 C992 1.363 . S
C990 H1006 0.931 . S
C991 C990 1.370 . S
C991 C995 1.408 . S
C992 C990 1.363 . S
C992 C993 1.370 . S
C992 C996 1.524 . S
C993 C985 1.503 . S
C993 C992 1.370 . S
C993 C994 1.403 . S
C994 C993 1.403 . S
C994 C995 1.404 . S
C994 C997 1.539 . S
C995 C991 1.408 . S
C995 C994 1.404 . S
C995 H1007 0.930 . S
C996 C992 1.524 . S
C996 H1008 0.956 . S
C996 H1009 0.961 . S
C996 H1010 0.961 . S
C997 C994 1.539 . S
C997 H1011 0.958 . S
C997 H1012 0.961 . S
C997 H1013 0.960 . S
H998 C982 0.931 . S
H999 C987 0.929 . S
H1000 C988 0.960 . S
H1001 C988 0.962 . S
H1002 C988 0.960 . S
H1003 C989 0.961 . S
H1004 C989 0.961 . S
H1005 C989 0.961 . S
H1006 C990 0.931 . S
H1007 C995 0.930 . S
H1008 C996 0.956 . S
H1009 C996 0.961 . S
H1010 C996 0.961 . S
H1011 C997 0.958 . S
H1012 C997 0.961 . S
H1013 C997 0.960 . S
C1014 C1015 1.391 . S
C1014 C1016 1.394 . S
C1014 H1030 0.931 . S
C1015 C1014 1.391 . S
C1015 C1019 1.376 . S
C1016 C1014 1.394 . S
C1016 C1017 1.369 . S
C1016 C1020 1.531 . S
C1017 C1016 1.369 . S
C1017 C1018 1.410 . S
C1017 C1025 1.503 . S
C1018 C1017 1.410 . S
C1018 C1019 1.392 . S
C1018 C1021 1.511 . S
C1019 C1015 1.376 . S
C1019 C1018 1.392 . S
C1019 H1031 0.929 . S
C1020 C1016 1.531 . S
C1020 H1032 0.960 . S
C1020 H1033 0.962 . S
C1020 H1034 0.960 . S
C1021 C1018 1.511 . S
C1021 H1035 0.961 . S
C1021 H1036 0.961 . S
C1021 H1037 0.961 . S
C1022 C1023 1.370 . S
C1022 C1024 1.363 . S
C1022 H1038 0.931 . S
C1023 C1022 1.370 . S
C1023 C1027 1.408 . S
C1024 C1022 1.363 . S
C1024 C1025 1.370 . S
C1024 C1028 1.524 . S
C1025 C1017 1.503 . S
C1025 C1024 1.370 . S
C1025 C1026 1.403 . S
C1026 C1025 1.403 . S
C1026 C1027 1.404 . S
C1026 C1029 1.539 . S
C1027 C1023 1.408 . S
C1027 C1026 1.404 . S
C1027 H1039 0.930 . S
C1028 C1024 1.524 . S
C1028 H1040 0.956 . S
C1028 H1041 0.961 . S
C1028 H1042 0.961 . S
C1029 C1026 1.539 . S
C1029 H1043 0.958 . S
C1029 H1044 0.961 . S
C1029 H1045 0.960 . S
H1030 C1014 0.931 . S
H1031 C1019 0.929 . S
H1032 C1020 0.960 . S
H1033 C1020 0.962 . S
H1034 C1020 0.960 . S
H1035 C1021 0.961 . S
H1036 C1021 0.961 . S
H1037 C1021 0.961 . S
H1038 C1022 0.931 . S
H1039 C1027 0.930 . S
H1040 C1028 0.956 . S
H1041 C1028 0.961 . S
H1042 C1028 0.961 . S
H1043 C1029 0.958 . S
H1044 C1029 0.961 . S
H1045 C1029 0.960 . S
C1046 C1047 1.391 . S
C1046 C1048 1.394 . S
C1046 H1062 0.931 . S
C1047 C1046 1.391 . S
C1047 C1051 1.376 . S
C1048 C1046 1.394 . S
C1048 C1049 1.369 . S
C1048 C1052 1.531 . S
C1049 C1048 1.369 . S
C1049 C1050 1.410 . S
C1049 C1057 1.503 . S
C1050 C1049 1.410 . S
C1050 C1051 1.392 . S
C1050 C1053 1.511 . S
C1051 C1047 1.376 . S
C1051 C1050 1.392 . S
C1051 H1063 0.929 . S
C1052 C1048 1.531 . S
C1052 H1064 0.960 . S
C1052 H1065 0.962 . S
C1052 H1066 0.960 . S
C1053 C1050 1.511 . S
C1053 H1067 0.961 . S
C1053 H1068 0.961 . S
C1053 H1069 0.961 . S
C1054 C1055 1.370 . S
C1054 C1056 1.363 . S
C1054 H1070 0.931 . S
C1055 C1054 1.370 . S
C1055 C1059 1.408 . S
C1056 C1054 1.363 . S
C1056 C1057 1.370 . S
C1056 C1060 1.524 . S
C1057 C1049 1.503 . S
C1057 C1056 1.370 . S
C1057 C1058 1.403 . S
C1058 C1057 1.403 . S
C1058 C1059 1.404 . S
C1058 C1061 1.539 . S
C1059 C1055 1.408 . S
C1059 C1058 1.404 . S
C1059 H1071 0.930 . S
C1060 C1056 1.524 . S
C1060 H1072 0.956 . S
C1060 H1073 0.961 . S
C1060 H1074 0.961 . S
C1061 C1058 1.539 . S
C1061 H1075 0.958 . S
C1061 H1076 0.961 . S
C1061 H1077 0.960 . S
H1062 C1046 0.931 . S
H1063 C1051 0.929 . S
H1064 C1052 0.960 . S
H1065 C1052 0.962 . S
H1066 C1052 0.960 . S
H1067 C1053 0.961 . S
H1068 C1053 0.961 . S
H1069 C1053 0.961 . S
H1070 C1054 0.931 . S
H1071 C1059 0.930 . S
H1072 C1060 0.956 . S
H1073 C1060 0.961 . S
H1074 C1060 0.961 . S
H1075 C1061 0.958 . S
H1076 C1061 0.961 . S
H1077 C1061 0.960 . S
C1078 C1079 1.391 . S
C1078 C1080 1.394 . S
C1078 H1094 0.931 . S
C1079 C1078 1.391 . S
C1079 C1083 1.376 . S
C1080 C1078 1.394 . S
C1080 C1081 1.369 . S
C1080 C1084 1.531 . S
C1081 C1080 1.369 . S
C1081 C1082 1.410 . S
C1081 C1089 1.503 . S
C1082 C1081 1.410 . S
C1082 C1083 1.392 . S
C1082 C1085 1.511 . S
C1083 C1079 1.376 . S
C1083 C1082 1.392 . S
C1083 H1095 0.929 . S
C1084 C1080 1.531 . S
C1084 H1096 0.960 . S
C1084 H1097 0.962 . S
C1084 H1098 0.960 . S
C1085 C1082 1.511 . S
C1085 H1099 0.961 . S
C1085 H1100 0.961 . S
C1085 H1101 0.961 . S
C1086 C1087 1.370 . S
C1086 C1088 1.363 . S
C1086 H1102 0.931 . S
C1087 C1086 1.370 . S
C1087 C1091 1.408 . S
C1088 C1086 1.363 . S
C1088 C1089 1.370 . S
C1088 C1092 1.524 . S
C1089 C1081 1.503 . S
C1089 C1088 1.370 . S
C1089 C1090 1.403 . S
C1090 C1089 1.403 . S
C1090 C1091 1.404 . S
C1090 C1093 1.539 . S
C1091 C1087 1.408 . S
C1091 C1090 1.404 . S
C1091 H1103 0.930 . S
C1092 C1088 1.524 . S
C1092 H1104 0.956 . S
C1092 H1105 0.961 . S
C1092 H1106 0.961 . S
C1093 C1090 1.539 . S
C1093 H1107 0.958 . S
C1093 H1108 0.961 . S
C1093 H1109 0.960 . S
H1094 C1078 0.931 . S
H1095 C1083 0.929 . S
H1096 C1084 0.960 . S
H1097 C1084 0.962 . S
H1098 C1084 0.960 . S
H1099 C1085 0.961 . S
H1100 C1085 0.961 . S
H1101 C1085 0.961 . S
H1102 C1086 0.931 . S
H1103 C1091 0.930 . S
H1104 C1092 0.956 . S
H1105 C1092 0.961 . S
H1106 C1092 0.961 . S
H1107 C1093 0.958 . S
H1108 C1093 0.961 . S
H1109 C1093 0.960 . S
C1110 C1111 1.391 . S
C1110 C1112 1.394 . S
C1110 H1126 0.931 . S
C1111 C1110 1.391 . S
C1111 C1115 1.376 . S
C1112 C1110 1.394 . S
C1112 C1113 1.369 . S
C1112 C1116 1.531 . S
C1113 C1112 1.369 . S
C1113 C1114 1.410 . S
C1113 C1121 1.503 . S
C1114 C1113 1.410 . S
C1114 C1115 1.392 . S
C1114 C1117 1.511 . S
C1115 C1111 1.376 . S
C1115 C1114 1.392 . S
C1115 H1127 0.929 . S
C1116 C1112 1.531 . S
C1116 H1128 0.960 . S
C1116 H1129 0.962 . S
C1116 H1130 0.960 . S
C1117 C1114 1.511 . S
C1117 H1131 0.961 . S
C1117 H1132 0.961 . S
C1117 H1133 0.961 . S
C1118 C1119 1.370 . S
C1118 C1120 1.363 . S
C1118 H1134 0.931 . S
C1119 C1118 1.370 . S
C1119 C1123 1.408 . S
C1120 C1118 1.363 . S
C1120 C1121 1.370 . S
C1120 C1124 1.524 . S
C1121 C1113 1.503 . S
C1121 C1120 1.370 . S
C1121 C1122 1.403 . S
C1122 C1121 1.403 . S
C1122 C1123 1.404 . S
C1122 C1125 1.539 . S
C1123 C1119 1.408 . S
C1123 C1122 1.404 . S
C1123 H1135 0.930 . S
C1124 C1120 1.524 . S
C1124 H1136 0.956 . S
C1124 H1137 0.961 . S
C1124 H1138 0.961 . S
C1125 C1122 1.539 . S
C1125 H1139 0.958 . S
C1125 H1140 0.961 . S
C1125 H1141 0.960 . S
H1126 C1110 0.931 . S
H1127 C1115 0.929 . S
H1128 C1116 0.960 . S
H1129 C1116 0.962 . S
H1130 C1116 0.960 . S
H1131 C1117 0.961 . S
H1132 C1117 0.961 . S
H1133 C1117 0.961 . S
H1134 C1118 0.931 . S
H1135 C1123 0.930 . S
H1136 C1124 0.956 . S
H1137 C1124 0.961 . S
H1138 C1124 0.961 . S
H1139 C1125 0.958 . S
H1140 C1125 0.961 . S
H1141 C1125 0.960 . S
C1142 C1143 1.391 . S
C1142 C1144 1.394 . S
C1142 H1158 0.931 . S
C1143 C1142 1.391 . S
C1143 C1147 1.376 . S
C1144 C1142 1.394 . S
C1144 C1145 1.369 . S
C1144 C1148 1.531 . S
C1145 C1144 1.369 . S
C1145 C1146 1.410 . S
C1145 C1153 1.503 . S
C1146 C1145 1.410 . S
C1146 C1147 1.392 . S
C1146 C1149 1.511 . S
C1147 C1143 1.376 . S
C1147 C1146 1.392 . S
C1147 H1159 0.929 . S
C1148 C1144 1.531 . S
C1148 H1160 0.960 . S
C1148 H1161 0.962 . S
C1148 H1162 0.960 . S
C1149 C1146 1.511 . S
C1149 H1163 0.961 . S
C1149 H1164 0.961 . S
C1149 H1165 0.961 . S
C1150 C1151 1.370 . S
C1150 C1152 1.363 . S
C1150 H1166 0.931 . S
C1151 C1150 1.370 . S
C1151 C1155 1.408 . S
C1152 C1150 1.363 . S
C1152 C1153 1.370 . S
C1152 C1156 1.524 . S
C1153 C1145 1.503 . S
C1153 C1152 1.370 . S
C1153 C1154 1.403 . S
C1154 C1153 1.403 . S
C1154 C1155 1.404 . S
C1154 C1157 1.539 . S
C1155 C1151 1.408 . S
C1155 C1154 1.404 . S
C1155 H1167 0.930 . S
C1156 C1152 1.524 . S
C1156 H1168 0.956 . S
C1156 H1169 0.961 . S
C1156 H1170 0.961 . S
C1157 C1154 1.539 . S
C1157 H1171 0.958 . S
C1157 H1172 0.961 . S
C1157 H1173 0.960 . S
H1158 C1142 0.931 . S
H1159 C1147 0.929 . S
H1160 C1148 0.960 . S
H1161 C1148 0.962 . S
H1162 C1148 0.960 . S
H1163 C1149 0.961 . S
H1164 C1149 0.961 . S
H1165 C1149 0.961 . S
H1166 C1150 0.931 . S
H1167 C1155 0.930 . S
H1168 C1156 0.956 . S
H1169 C1156 0.961 . S
H1170 C1156 0.961 . S
H1171 C1157 0.958 . S
H1172 C1157 0.961 . S
H1173 C1157 0.960 . S
C1174 C1175 1.391 . S
C1174 C1176 1.394 . S
C1174 H1190 0.931 . S
C1175 C1174 1.391 . S
C1175 C1179 1.376 . S
C1176 C1174 1.394 . S
C1176 C1177 1.369 . S
C1176 C1180 1.531 . S
C1177 C1176 1.369 . S
C1177 C1178 1.410 . S
C1177 C1185 1.503 . S
C1178 C1177 1.410 . S
C1178 C1179 1.392 . S
C1178 C1181 1.511 . S
C1179 C1175 1.376 . S
C1179 C1178 1.392 . S
C1179 H1191 0.929 . S
C1180 C1176 1.531 . S
C1180 H1192 0.960 . S
C1180 H1193 0.962 . S
C1180 H1194 0.960 . S
C1181 C1178 1.511 . S
C1181 H1195 0.961 . S
C1181 H1196 0.961 . S
C1181 H1197 0.961 . S
C1182 C1183 1.370 . S
C1182 C1184 1.363 . S
C1182 H1198 0.931 . S
C1183 C1182 1.370 . S
C1183 C1187 1.408 . S
C1184 C1182 1.363 . S
C1184 C1185 1.370 . S
C1184 C1188 1.524 . S
C1185 C1177 1.503 . S
C1185 C1184 1.370 . S
C1185 C1186 1.403 . S
C1186 C1185 1.403 . S
C1186 C1187 1.404 . S
C1186 C1189 1.539 . S
C1187 C1183 1.408 . S
C1187 C1186 1.404 . S
C1187 H1199 0.930 . S
C1188 C1184 1.524 . S
C1188 H1200 0.956 . S
C1188 H1201 0.961 . S
C1188 H1202 0.961 . S
C1189 C1186 1.539 . S
C1189 H1203 0.958 . S
C1189 H1204 0.961 1_655 S
C1189 H1205 0.960 1_655 S
H1190 C1174 0.931 . S
H1191 C1179 0.929 . S
H1192 C1180 0.960 . S
H1193 C1180 0.962 . S
H1194 C1180 0.960 . S
H1195 C1181 0.961 . S
H1196 C1181 0.961 . S
H1197 C1181 0.961 . S
H1198 C1182 0.931 . S
H1199 C1187 0.930 . S
H1200 C1188 0.956 . S
H1201 C1188 0.961 . S
H1202 C1188 0.961 . S
H1203 C1189 0.958 . S
H1204 C1189 0.961 1_455 S
H1205 C1189 0.960 1_455 S
C1206 C1207 1.391 1_455 S
C1206 C1208 1.394 1_455 S
C1206 H1222 0.931 . S
C1207 C1206 1.391 1_655 S
C1207 C1211 1.376 . S
C1208 C1206 1.394 1_655 S
C1208 C1209 1.369 . S
C1208 C1212 1.531 . S
C1209 C1208 1.369 . S
C1209 C1210 1.410 . S
C1209 C1217 1.503 . S
C1210 C1209 1.410 . S
C1210 C1211 1.392 . S
C1210 C1213 1.511 . S
C1211 C1207 1.376 . S
C1211 C1210 1.392 . S
C1211 H1223 0.929 . S
C1212 C1208 1.531 . S
C1212 H1224 0.960 . S
C1212 H1225 0.962 . S
C1212 H1226 0.960 1_655 S
C1213 C1210 1.511 . S
C1213 H1227 0.961 . S
C1213 H1228 0.961 . S
C1213 H1229 0.961 . S
C1214 C1215 1.370 . S
C1214 C1216 1.363 . S
C1214 H1230 0.931 . S
C1215 C1214 1.370 . S
C1215 C1219 1.408 . S
C1216 C1214 1.363 . S
C1216 C1217 1.370 . S
C1216 C1220 1.524 . S
C1217 C1209 1.503 . S
C1217 C1216 1.370 . S
C1217 C1218 1.403 . S
C1218 C1217 1.403 . S
C1218 C1219 1.404 . S
C1218 C1221 1.539 1_655 S
C1219 C1215 1.408 . S
C1219 C1218 1.404 . S
C1219 H1231 0.930 . S
C1220 C1216 1.524 . S
C1220 H1232 0.956 . S
C1220 H1233 0.961 . S
C1220 H1234 0.961 . S
C1221 C1218 1.539 1_455 S
C1221 H1235 0.958 . S
C1221 H1236 0.961 . S
C1221 H1237 0.960 . S
H1222 C1206 0.931 . S
H1223 C1211 0.929 . S
H1224 C1212 0.960 . S
H1225 C1212 0.962 . S
H1226 C1212 0.960 1_455 S
H1227 C1213 0.961 . S
H1228 C1213 0.961 . S
H1229 C1213 0.961 . S
H1230 C1214 0.931 . S
H1231 C1219 0.930 . S
H1232 C1220 0.956 . S
H1233 C1220 0.961 . S
H1234 C1220 0.961 . S
H1235 C1221 0.958 . S
H1236 C1221 0.961 . S
H1237 C1221 0.960 . S
C1238 C1239 1.391 . S
C1238 C1240 1.394 . S
C1238 H1254 0.931 . S
C1239 C1238 1.391 . S
C1239 C1243 1.376 . S
C1240 C1238 1.394 . S
C1240 C1241 1.369 . S
C1240 C1244 1.531 . S
C1241 C1240 1.369 . S
C1241 C1242 1.410 . S
C1241 C1249 1.503 . S
C1242 C1241 1.410 . S
C1242 C1243 1.392 . S
C1242 C1245 1.511 . S
C1243 C1239 1.376 . S
C1243 C1242 1.392 . S
C1243 H1255 0.929 . S
C1244 C1240 1.531 . S
C1244 H1256 0.960 . S
C1244 H1257 0.962 . S
C1244 H1258 0.960 . S
C1245 C1242 1.511 . S
C1245 H1259 0.961 . S
C1245 H1260 0.961 . S
C1245 H1261 0.961 . S
C1246 C1247 1.370 . S
C1246 C1248 1.363 . S
C1246 H1262 0.931 . S
C1247 C1246 1.370 . S
C1247 C1251 1.408 . S
C1248 C1246 1.363 . S
C1248 C1249 1.370 . S
C1248 C1252 1.524 . S
C1249 C1241 1.503 . S
C1249 C1248 1.370 . S
C1249 C1250 1.403 . S
C1250 C1249 1.403 . S
C1250 C1251 1.404 . S
C1250 C1253 1.539 . S
C1251 C1247 1.408 . S
C1251 C1250 1.404 . S
C1251 H1263 0.930 . S
C1252 C1248 1.524 . S
C1252 H1264 0.956 . S
C1252 H1265 0.961 . S
C1252 H1266 0.961 . S
C1253 C1250 1.539 . S
C1253 H1267 0.958 . S
C1253 H1268 0.961 . S
C1253 H1269 0.960 . S
H1254 C1238 0.931 . S
H1255 C1243 0.929 . S
H1256 C1244 0.960 . S
H1257 C1244 0.962 . S
H1258 C1244 0.960 . S
H1259 C1245 0.961 . S
H1260 C1245 0.961 . S
H1261 C1245 0.961 . S
H1262 C1246 0.931 . S
H1263 C1251 0.930 . S
H1264 C1252 0.956 . S
H1265 C1252 0.961 . S
H1266 C1252 0.961 . S
H1267 C1253 0.958 . S
H1268 C1253 0.961 . S
H1269 C1253 0.960 . S
C1270 C1271 1.391 . S
C1270 C1272 1.394 . S
C1270 H1286 0.931 . S
C1271 C1270 1.391 . S
C1271 C1275 1.376 . S
C1272 C1270 1.394 . S
C1272 C1273 1.369 . S
C1272 C1276 1.531 . S
C1273 C1272 1.369 . S
C1273 C1274 1.410 . S
C1273 C1281 1.503 . S
C1274 C1273 1.410 . S
C1274 C1275 1.392 . S
C1274 C1277 1.511 . S
C1275 C1271 1.376 . S
C1275 C1274 1.392 . S
C1275 H1287 0.929 . S
C1276 C1272 1.531 . S
C1276 H1288 0.960 . S
C1276 H1289 0.962 . S
C1276 H1290 0.960 . S
C1277 C1274 1.511 . S
C1277 H1291 0.961 . S
C1277 H1292 0.961 . S
C1277 H1293 0.961 . S
C1278 C1279 1.370 . S
C1278 C1280 1.363 . S
C1278 H1294 0.931 . S
C1279 C1278 1.370 . S
C1279 C1283 1.408 . S
C1280 C1278 1.363 . S
C1280 C1281 1.370 . S
C1280 C1284 1.524 . S
C1281 C1273 1.503 . S
C1281 C1280 1.370 . S
C1281 C1282 1.403 . S
C1282 C1281 1.403 . S
C1282 C1283 1.404 . S
C1282 C1285 1.539 . S
C1283 C1279 1.408 . S
C1283 C1282 1.404 . S
C1283 H1295 0.930 . S
C1284 C1280 1.524 . S
C1284 H1296 0.956 . S
C1284 H1297 0.961 . S
C1284 H1298 0.961 . S
C1285 C1282 1.539 . S
C1285 H1299 0.958 . S
C1285 H1300 0.961 . S
C1285 H1301 0.960 . S
H1286 C1270 0.931 . S
H1287 C1275 0.929 . S
H1288 C1276 0.960 . S
H1289 C1276 0.962 . S
H1290 C1276 0.960 . S
H1291 C1277 0.961 . S
H1292 C1277 0.961 . S
H1293 C1277 0.961 . S
H1294 C1278 0.931 . S
H1295 C1283 0.930 . S
H1296 C1284 0.956 . S
H1297 C1284 0.961 . S
H1298 C1284 0.961 . S
H1299 C1285 0.958 . S
H1300 C1285 0.961 . S
H1301 C1285 0.960 . S
C1302 C1303 1.391 . S
C1302 C1304 1.394 . S
C1302 H1318 0.931 . S
C1303 C1302 1.391 . S
C1303 C1307 1.376 . S
C1304 C1302 1.394 . S
C1304 C1305 1.369 . S
C1304 C1308 1.531 . S
C1305 C1304 1.369 . S
C1305 C1306 1.410 . S
C1305 C1313 1.503 . S
C1306 C1305 1.410 . S
C1306 C1307 1.392 . S
C1306 C1309 1.511 . S
C1307 C1303 1.376 . S
C1307 C1306 1.392 . S
C1307 H1319 0.929 . S
C1308 C1304 1.531 . S
C1308 H1320 0.960 . S
C1308 H1321 0.962 . S
C1308 H1322 0.960 . S
C1309 C1306 1.511 . S
C1309 H1323 0.961 . S
C1309 H1324 0.961 . S
C1309 H1325 0.961 . S
C1310 C1311 1.370 . S
C1310 C1312 1.363 . S
C1310 H1326 0.931 . S
C1311 C1310 1.370 . S
C1311 C1315 1.408 . S
C1312 C1310 1.363 . S
C1312 C1313 1.370 . S
C1312 C1316 1.524 . S
C1313 C1305 1.503 . S
C1313 C1312 1.370 . S
C1313 C1314 1.403 . S
C1314 C1313 1.403 . S
C1314 C1315 1.404 . S
C1314 C1317 1.539 . S
C1315 C1311 1.408 . S
C1315 C1314 1.404 . S
C1315 H1327 0.930 . S
C1316 C1312 1.524 . S
C1316 H1328 0.956 . S
C1316 H1329 0.961 . S
C1316 H1330 0.961 . S
C1317 C1314 1.539 . S
C1317 H1331 0.958 . S
C1317 H1332 0.961 . S
C1317 H1333 0.960 . S
H1318 C1302 0.931 . S
H1319 C1307 0.929 . S
H1320 C1308 0.960 . S
H1321 C1308 0.962 . S
H1322 C1308 0.960 . S
H1323 C1309 0.961 . S
H1324 C1309 0.961 . S
H1325 C1309 0.961 . S
H1326 C1310 0.931 . S
H1327 C1315 0.930 . S
H1328 C1316 0.956 . S
H1329 C1316 0.961 . S
H1330 C1316 0.961 . S
H1331 C1317 0.958 . S
H1332 C1317 0.961 . S
H1333 C1317 0.960 . S
C1334 C1335 1.391 . S
C1334 C1336 1.394 . S
C1334 H1350 0.931 . S
C1335 C1334 1.391 . S
C1335 C1339 1.376 . S
C1336 C1334 1.394 . S
C1336 C1337 1.369 . S
C1336 C1340 1.531 . S
C1337 C1336 1.369 . S
C1337 C1338 1.410 . S
C1337 C1345 1.503 . S
C1338 C1337 1.410 . S
C1338 C1339 1.392 . S
C1338 C1341 1.511 . S
C1339 C1335 1.376 . S
C1339 C1338 1.392 . S
C1339 H1351 0.929 . S
C1340 C1336 1.531 . S
C1340 H1352 0.960 . S
C1340 H1353 0.962 . S
C1340 H1354 0.960 . S
C1341 C1338 1.511 . S
C1341 H1355 0.961 . S
C1341 H1356 0.961 . S
C1341 H1357 0.961 . S
C1342 C1343 1.370 . S
C1342 C1344 1.363 . S
C1342 H1358 0.931 . S
C1343 C1342 1.370 . S
C1343 C1347 1.408 . S
C1344 C1342 1.363 . S
C1344 C1345 1.370 . S
C1344 C1348 1.524 . S
C1345 C1337 1.503 . S
C1345 C1344 1.370 . S
C1345 C1346 1.403 . S
C1346 C1345 1.403 . S
C1346 C1347 1.404 . S
C1346 C1349 1.539 . S
C1347 C1343 1.408 . S
C1347 C1346 1.404 . S
C1347 H1359 0.930 . S
C1348 C1344 1.524 . S
C1348 H1360 0.956 . S
C1348 H1361 0.961 . S
C1348 H1362 0.961 . S
C1349 C1346 1.539 . S
C1349 H1363 0.958 . S
C1349 H1364 0.961 . S
C1349 H1365 0.960 . S
H1350 C1334 0.931 . S
H1351 C1339 0.929 . S
H1352 C1340 0.960 . S
H1353 C1340 0.962 . S
H1354 C1340 0.960 . S
H1355 C1341 0.961 . S
H1356 C1341 0.961 . S
H1357 C1341 0.961 . S
H1358 C1342 0.931 . S
H1359 C1347 0.930 . S
H1360 C1348 0.956 . S
H1361 C1348 0.961 . S
H1362 C1348 0.961 . S
H1363 C1349 0.958 . S
H1364 C1349 0.961 . S
H1365 C1349 0.960 . S
C1366 C1367 1.391 . S
C1366 C1368 1.394 . S
C1366 H1382 0.931 . S
C1367 C1366 1.391 . S
C1367 C1371 1.376 . S
C1368 C1366 1.394 . S
C1368 C1369 1.369 . S
C1368 C1372 1.531 . S
C1369 C1368 1.369 . S
C1369 C1370 1.410 . S
C1369 C1377 1.503 . S
C1370 C1369 1.410 . S
C1370 C1371 1.392 . S
C1370 C1373 1.511 . S
C1371 C1367 1.376 . S
C1371 C1370 1.392 . S
C1371 H1383 0.929 . S
C1372 C1368 1.531 . S
C1372 H1384 0.960 . S
C1372 H1385 0.962 . S
C1372 H1386 0.960 . S
C1373 C1370 1.511 . S
C1373 H1387 0.961 . S
C1373 H1388 0.961 . S
C1373 H1389 0.961 . S
C1374 C1375 1.370 . S
C1374 C1376 1.363 . S
C1374 H1390 0.931 . S
C1375 C1374 1.370 . S
C1375 C1379 1.408 . S
C1376 C1374 1.363 . S
C1376 C1377 1.370 . S
C1376 C1380 1.524 . S
C1377 C1369 1.503 . S
C1377 C1376 1.370 . S
C1377 C1378 1.403 . S
C1378 C1377 1.403 . S
C1378 C1379 1.404 . S
C1378 C1381 1.539 . S
C1379 C1375 1.408 . S
C1379 C1378 1.404 . S
C1379 H1391 0.930 . S
C1380 C1376 1.524 . S
C1380 H1392 0.956 . S
C1380 H1393 0.961 . S
C1380 H1394 0.961 . S
C1381 C1378 1.539 . S
C1381 H1395 0.958 . S
C1381 H1396 0.961 . S
C1381 H1397 0.960 . S
H1382 C1366 0.931 . S
H1383 C1371 0.929 . S
H1384 C1372 0.960 . S
H1385 C1372 0.962 . S
H1386 C1372 0.960 . S
H1387 C1373 0.961 . S
H1388 C1373 0.961 . S
H1389 C1373 0.961 . S
H1390 C1374 0.931 . S
H1391 C1379 0.930 . S
H1392 C1380 0.956 . S
H1393 C1380 0.961 . S
H1394 C1380 0.961 . S
H1395 C1381 0.958 . S
H1396 C1381 0.961 . S
H1397 C1381 0.960 . S
C1398 C1399 1.391 . S
C1398 C1400 1.394 . S
C1398 H1414 0.931 . S
C1399 C1398 1.391 . S
C1399 C1403 1.376 . S
C1400 C1398 1.394 . S
C1400 C1401 1.369 . S
C1400 C1404 1.531 . S
C1401 C1400 1.369 . S
C1401 C1402 1.410 . S
C1401 C1409 1.503 . S
C1402 C1401 1.410 . S
C1402 C1403 1.392 . S
C1402 C1405 1.511 . S
C1403 C1399 1.376 . S
C1403 C1402 1.392 . S
C1403 H1415 0.929 . S
C1404 C1400 1.531 . S
C1404 H1416 0.960 . S
C1404 H1417 0.962 . S
C1404 H1418 0.960 . S
C1405 C1402 1.511 . S
C1405 H1419 0.961 . S
C1405 H1420 0.961 . S
C1405 H1421 0.961 . S
C1406 C1407 1.370 . S
C1406 C1408 1.363 . S
C1406 H1422 0.931 . S
C1407 C1406 1.370 . S
C1407 C1411 1.408 . S
C1408 C1406 1.363 . S
C1408 C1409 1.370 . S
C1408 C1412 1.524 . S
C1409 C1401 1.503 . S
C1409 C1408 1.370 . S
C1409 C1410 1.403 . S
C1410 C1409 1.403 . S
C1410 C1411 1.404 . S
C1410 C1413 1.539 . S
C1411 C1407 1.408 . S
C1411 C1410 1.404 . S
C1411 H1423 0.930 . S
C1412 C1408 1.524 . S
C1412 H1424 0.956 . S
C1412 H1425 0.961 . S
C1412 H1426 0.961 . S
C1413 C1410 1.539 . S
C1413 H1427 0.958 . S
C1413 H1428 0.961 . S
C1413 H1429 0.960 . S
H1414 C1398 0.931 . S
H1415 C1403 0.929 . S
H1416 C1404 0.960 . S
H1417 C1404 0.962 . S
H1418 C1404 0.960 . S
H1419 C1405 0.961 . S
H1420 C1405 0.961 . S
H1421 C1405 0.961 . S
H1422 C1406 0.931 . S
H1423 C1411 0.930 . S
H1424 C1412 0.956 . S
H1425 C1412 0.961 . S
H1426 C1412 0.961 . S
H1427 C1413 0.958 . S
H1428 C1413 0.961 . S
H1429 C1413 0.960 . S
C1430 C1431 1.391 . S
C1430 C1432 1.394 . S
C1430 H1446 0.931 . S
C1431 C1430 1.391 . S
C1431 C1435 1.376 . S
C1432 C1430 1.394 . S
C1432 C1433 1.369 . S
C1432 C1436 1.531 . S
C1433 C1432 1.369 . S
C1433 C1434 1.410 . S
C1433 C1441 1.503 . S
C1434 C1433 1.410 . S
C1434 C1435 1.392 . S
C1434 C1437 1.511 . S
C1435 C1431 1.376 . S
C1435 C1434 1.392 . S
C1435 H1447 0.929 . S
C1436 C1432 1.531 . S
C1436 H1448 0.960 . S
C1436 H1449 0.962 . S
C1436 H1450 0.960 . S
C1437 C1434 1.511 . S
C1437 H1451 0.961 . S
C1437 H1452 0.961 . S
C1437 H1453 0.961 . S
C1438 C1439 1.370 . S
C1438 C1440 1.363 . S
C1438 H1454 0.931 . S
C1439 C1438 1.370 . S
C1439 C1443 1.408 . S
C1440 C1438 1.363 . S
C1440 C1441 1.370 . S
C1440 C1444 1.524 . S
C1441 C1433 1.503 . S
C1441 C1440 1.370 . S
C1441 C1442 1.403 . S
C1442 C1441 1.403 . S
C1442 C1443 1.404 . S
C1442 C1445 1.539 . S
C1443 C1439 1.408 . S
C1443 C1442 1.404 . S
C1443 H1455 0.930 . S
C1444 C1440 1.524 . S
C1444 H1456 0.956 . S
C1444 H1457 0.961 . S
C1444 H1458 0.961 . S
C1445 C1442 1.539 . S
C1445 H1459 0.958 . S
C1445 H1460 0.961 . S
C1445 H1461 0.960 . S
H1446 C1430 0.931 . S
H1447 C1435 0.929 . S
H1448 C1436 0.960 . S
H1449 C1436 0.962 . S
H1450 C1436 0.960 . S
H1451 C1437 0.961 . S
H1452 C1437 0.961 . S
H1453 C1437 0.961 . S
H1454 C1438 0.931 . S
H1455 C1443 0.930 . S
H1456 C1444 0.956 . S
H1457 C1444 0.961 . S
H1458 C1444 0.961 . S
H1459 C1445 0.958 . S
H1460 C1445 0.961 . S
H1461 C1445 0.960 . S
C1462 C1463 1.391 . S
C1462 C1464 1.394 . S
C1462 H1478 0.931 . S
C1463 C1462 1.391 . S
C1463 C1467 1.376 . S
C1464 C1462 1.394 . S
C1464 C1465 1.369 . S
C1464 C1468 1.531 . S
C1465 C1464 1.369 . S
C1465 C1466 1.410 . S
C1465 C1473 1.503 . S
C1466 C1465 1.410 . S
C1466 C1467 1.392 . S
C1466 C1469 1.511 . S
C1467 C1463 1.376 . S
C1467 C1466 1.392 . S
C1467 H1479 0.929 . S
C1468 C1464 1.531 . S
C1468 H1480 0.960 . S
C1468 H1481 0.962 . S
C1468 H1482 0.960 . S
C1469 C1466 1.511 . S
C1469 H1483 0.961 . S
C1469 H1484 0.961 . S
C1469 H1485 0.961 . S
C1470 C1471 1.370 . S
C1470 C1472 1.363 . S
C1470 H1486 0.931 . S
C1471 C1470 1.370 . S
C1471 C1475 1.408 . S
C1472 C1470 1.363 . S
C1472 C1473 1.370 . S
C1472 C1476 1.524 . S
C1473 C1465 1.503 . S
C1473 C1472 1.370 . S
C1473 C1474 1.403 . S
C1474 C1473 1.403 . S
C1474 C1475 1.404 . S
C1474 C1477 1.539 . S
C1475 C1471 1.408 . S
C1475 C1474 1.404 . S
C1475 H1487 0.930 . S
C1476 C1472 1.524 . S
C1476 H1488 0.956 . S
C1476 H1489 0.961 . S
C1476 H1490 0.961 . S
C1477 C1474 1.539 . S
C1477 H1491 0.958 . S
C1477 H1492 0.961 . S
C1477 H1493 0.960 . S
H1478 C1462 0.931 . S
H1479 C1467 0.929 . S
H1480 C1468 0.960 . S
H1481 C1468 0.962 . S
H1482 C1468 0.960 . S
H1483 C1469 0.961 . S
H1484 C1469 0.961 . S
H1485 C1469 0.961 . S
H1486 C1470 0.931 . S
H1487 C1475 0.930 . S
H1488 C1476 0.956 . S
H1489 C1476 0.961 . S
H1490 C1476 0.961 . S
H1491 C1477 0.958 . S
H1492 C1477 0.961 . S
H1493 C1477 0.960 . S
C1494 C1495 1.391 . S
C1494 C1496 1.394 . S
C1494 H1510 0.931 . S
C1495 C1494 1.391 . S
C1495 C1499 1.376 . S
C1496 C1494 1.394 . S
C1496 C1497 1.369 . S
C1496 C1500 1.531 . S
C1497 C1496 1.369 . S
C1497 C1498 1.410 . S
C1497 C1505 1.503 . S
C1498 C1497 1.410 . S
C1498 C1499 1.392 . S
C1498 C1501 1.511 . S
C1499 C1495 1.376 . S
C1499 C1498 1.392 . S
C1499 H1511 0.929 . S
C1500 C1496 1.531 . S
C1500 H1512 0.960 . S
C1500 H1513 0.962 . S
C1500 H1514 0.960 . S
C1501 C1498 1.511 . S
C1501 H1515 0.961 . S
C1501 H1516 0.961 . S
C1501 H1517 0.961 . S
C1502 C1503 1.370 . S
C1502 C1504 1.363 . S
C1502 H1518 0.931 . S
C1503 C1502 1.370 . S
C1503 C1507 1.408 . S
C1504 C1502 1.363 . S
C1504 C1505 1.370 . S
C1504 C1508 1.524 . S
C1505 C1497 1.503 . S
C1505 C1504 1.370 . S
C1505 C1506 1.403 . S
C1506 C1505 1.403 . S
C1506 C1507 1.404 . S
C1506 C1509 1.539 . S
C1507 C1503 1.408 . S
C1507 C1506 1.404 . S
C1507 H1519 0.930 . S
C1508 C1504 1.524 . S
C1508 H1520 0.956 . S
C1508 H1521 0.961 . S
C1508 H1522 0.961 . S
C1509 C1506 1.539 . S
C1509 H1523 0.958 . S
C1509 H1524 0.961 . S
C1509 H1525 0.960 . S
H1510 C1494 0.931 . S
H1511 C1499 0.929 . S
H1512 C1500 0.960 . S
H1513 C1500 0.962 . S
H1514 C1500 0.960 . S
H1515 C1501 0.961 . S
H1516 C1501 0.961 . S
H1517 C1501 0.961 . S
H1518 C1502 0.931 . S
H1519 C1507 0.930 . S
H1520 C1508 0.956 . S
H1521 C1508 0.961 . S
H1522 C1508 0.961 . S
H1523 C1509 0.958 . S
H1524 C1509 0.961 . S
H1525 C1509 0.960 . S
C1526 C1527 1.391 . S
C1526 C1528 1.394 . S
C1526 H1542 0.931 . S
C1527 C1526 1.391 . S
C1527 C1531 1.376 . S
C1528 C1526 1.394 . S
C1528 C1529 1.369 . S
C1528 C1532 1.531 . S
C1529 C1528 1.369 . S
C1529 C1530 1.410 . S
C1529 C1537 1.503 . S
C1530 C1529 1.410 . S
C1530 C1531 1.392 . S
C1530 C1533 1.511 . S
C1531 C1527 1.376 . S
C1531 C1530 1.392 . S
C1531 H1543 0.929 . S
C1532 C1528 1.531 . S
C1532 H1544 0.960 . S
C1532 H1545 0.962 . S
C1532 H1546 0.960 . S
C1533 C1530 1.511 . S
C1533 H1547 0.961 . S
C1533 H1548 0.961 . S
C1533 H1549 0.961 . S
C1534 C1535 1.370 . S
C1534 C1536 1.363 . S
C1534 H1550 0.931 . S
C1535 C1534 1.370 . S
C1535 C1539 1.408 . S
C1536 C1534 1.363 . S
C1536 C1537 1.370 . S
C1536 C1540 1.524 . S
C1537 C1529 1.503 . S
C1537 C1536 1.370 . S
C1537 C1538 1.403 . S
C1538 C1537 1.403 . S
C1538 C1539 1.404 . S
C1538 C1541 1.539 . S
C1539 C1535 1.408 . S
C1539 C1538 1.404 . S
C1539 H1551 0.930 . S
C1540 C1536 1.524 . S
C1540 H1552 0.956 . S
C1540 H1553 0.961 . S
C1540 H1554 0.961 . S
C1541 C1538 1.539 . S
C1541 H1555 0.958 . S
C1541 H1556 0.961 . S
C1541 H1557 0.960 . S
H1542 C1526 0.931 . S
H1543 C1531 0.929 . S
H1544 C1532 0.960 . S
H1545 C1532 0.962 . S
H1546 C1532 0.960 . S
H1547 C1533 0.961 . S
H1548 C1533 0.961 . S
H1549 C1533 0.961 . S
H1550 C1534 0.931 . S
H1551 C1539 0.930 . S
H1552 C1540 0.956 . S
H1553 C1540 0.961 . S
H1554 C1540 0.961 . S
H1555 C1541 0.958 . S
H1556 C1541 0.961 . S
H1557 C1541 0.960 . S
C1558 C1559 1.391 . S
C1558 C1560 1.394 . S
C1558 H1574 0.931 . S
C1559 C1558 1.391 . S
C1559 C1563 1.376 . S
C1560 C1558 1.394 . S
C1560 C1561 1.369 . S
C1560 C1564 1.531 . S
C1561 C1560 1.369 . S
C1561 C1562 1.410 . S
C1561 C1569 1.503 . S
C1562 C1561 1.410 . S
C1562 C1563 1.392 . S
C1562 C1565 1.511 . S
C1563 C1559 1.376 . S
C1563 C1562 1.392 . S
C1563 H1575 0.929 . S
C1564 C1560 1.531 . S
C1564 H1576 0.960 . S
C1564 H1577 0.962 . S
C1564 H1578 0.960 . S
C1565 C1562 1.511 . S
C1565 H1579 0.961 . S
C1565 H1580 0.961 . S
C1565 H1581 0.961 . S
C1566 C1567 1.370 . S
C1566 C1568 1.363 . S
C1566 H1582 0.931 . S
C1567 C1566 1.370 . S
C1567 C1571 1.408 . S
C1568 C1566 1.363 . S
C1568 C1569 1.370 . S
C1568 C1572 1.524 . S
C1569 C1561 1.503 . S
C1569 C1568 1.370 . S
C1569 C1570 1.403 . S
C1570 C1569 1.403 . S
C1570 C1571 1.404 . S
C1570 C1573 1.539 . S
C1571 C1567 1.408 . S
C1571 C1570 1.404 . S
C1571 H1583 0.930 . S
C1572 C1568 1.524 . S
C1572 H1584 0.956 . S
C1572 H1585 0.961 . S
C1572 H1586 0.961 . S
C1573 C1570 1.539 . S
C1573 H1587 0.958 . S
C1573 H1588 0.961 . S
C1573 H1589 0.960 . S
H1574 C1558 0.931 . S
H1575 C1563 0.929 . S
H1576 C1564 0.960 . S
H1577 C1564 0.962 . S
H1578 C1564 0.960 . S
H1579 C1565 0.961 . S
H1580 C1565 0.961 . S
H1581 C1565 0.961 . S
H1582 C1566 0.931 . S
H1583 C1571 0.930 . S
H1584 C1572 0.956 . S
H1585 C1572 0.961 . S
H1586 C1572 0.961 . S
H1587 C1573 0.958 . S
H1588 C1573 0.961 . S
H1589 C1573 0.960 . S
C823 C7 2.002 . S
C831 C167 1.844 . S
C855 C30 1.819 . S
C863 C307 1.590 . S
C895 C395 1.690 . S
C887 N58 1.791 . S
C927 C535 1.469 . S
C919 N81 1.573 . S
C959 C649 1.687 . S
C951 C99 1.928 . S
C991 C719 0.806 . S
C983 N127 1.623 . S
C1015 N25 1.870 . S
C1023 C377 1.039 . S
C1047 C62 1.680 . S
C1055 C481 1.181 . S
C1087 C595 1.346 . S
C1079 C85 1.870 . S
C1119 C737 1.494 . S
C1111 N94 1.590 . S
C1143 C131 2.095 . S
C1151 C149 1.123 . S
C1183 C253 1.102 . S
C1175 N2 1.460 . S
C1215 C491 1.606 . S
C1207 C16 2.028 1_655 S
C1239 C39 1.829 . S
C1247 C605 1.443 . S
C1279 C763 1.258 . S
C1271 N48 2.002 . S
C1303 N71 1.559 . S
C1311 C139 1.399 . S
C1335 C108 2.152 . S
C1343 C263 1.665 . S
C1367 N117 1.572 . S
C1375 C367 1.506 . S
C1399 N35 1.829 . S
C1407 C709 1.687 . S
C1439 C193 1.159 . S
C1431 C53 1.905 . S
C1463 C76 2.051 . S
C1471 C281 1.407 . S
C1495 N104 1.703 . S
C1503 C421 1.061 . S
C1527 C122 1.930 . S
C1535 C509 1.382 . S
C1559 N12 1.608 . S
C1567 C623 1.213 . S
