# Generated by pormake.
# Topology pth, (4,4)-cn, num edge types: 1
# Building blocks:
#     Node 0, Type 0, BuildingBlock: NAHDIM_clean_sbu_0, # of connection points: 4
#     Node 1, Type 0, BuildingBlock: NAHDIM_clean_sbu_0, # of connection points: 4
#     Node 2, Type 0, BuildingBlock: NAHDIM_clean_sbu_0, # of connection points: 4
#     Node 3, Type 1, BuildingBlock: MIFKUJ_clean_linker_1, # of connection points: 4
#     Node 4, Type 1, BuildingBlock: MIFKUJ_clean_linker_1, # of connection points: 4
#     Node 5, Type 1, BuildingBlock: MIFKUJ_clean_linker_1, # of connection points: 4
#     Edge 6, Type (0, 1), BuildingBlock: ZUJKAS_clean_linker_0, # of connection points: 2
#     Edge 7, Type (0, 1), BuildingBlock: ZUJKAS_clean_linker_0, # of connection points: 2
#     Edge 8, Type (0, 1), BuildingBlock: ZUJKAS_clean_linker_0, # of connection points: 2
#     Edge 9, Type (0, 1), BuildingBlock: ZUJKAS_clean_linker_0, # of connection points: 2
#     Edge 10, Type (0, 1), BuildingBlock: ZUJKAS_clean_linker_0, # of connection points: 2
#     Edge 11, Type (0, 1), BuildingBlock: ZUJKAS_clean_linker_0, # of connection points: 2
#     Edge 12, Type (0, 1), BuildingBlock: ZUJKAS_clean_linker_0, # of connection points: 2
#     Edge 13, Type (0, 1), BuildingBlock: ZUJKAS_clean_linker_0, # of connection points: 2
#     Edge 14, Type (0, 1), BuildingBlock: ZUJKAS_clean_linker_0, # of connection points: 2
#     Edge 15, Type (0, 1), BuildingBlock: ZUJKAS_clean_linker_0, # of connection points: 2
#     Edge 16, Type (0, 1), BuildingBlock: ZUJKAS_clean_linker_0, # of connection points: 2
#     Edge 17, Type (0, 1), BuildingBlock: ZUJKAS_clean_linker_0, # of connection points: 2
# Relax obj value: 0.043
# Max RMSD: 0.165
# Mean RMSD: 0.094
data_MOF--net-pth--node1-NAHDIM_clean_sbu_0--node2-MIFKUJ_clean_linker_1--edge1-ZUJKAS_clean_linker_0
_symmetry_space_group_name_H-M    P1
_symmetry_Int_Tables_number       1
_symmetry_cell_setting            triclinic
loop_
_symmetry_equiv_pos_as_xyz
'x, y, z'
_cell_length_a     36.90256
_cell_length_b     37.137993
_cell_length_c     78.379496
_cell_angle_alpha  91.810807
_cell_angle_beta   89.96599
_cell_angle_gamma 120.51791
loop_
_atom_site_label
_atom_site_type_symbol
_atom_site_fract_x
_atom_site_fract_y
_atom_site_fract_z
_atom_type_partial_charge
C0 C 0.01974 0.97871 0.06573 0.0
O1 O 0.99167 0.98917 0.06978 0.0
O2 O 0.01714 0.06684 0.05435 0.0
Zn3 Zn 0.02648 0.02891 0.03846 0.0
O4 O 0.97451 0.99133 0.02435 0.0
C5 C 0.06386 0.08915 0.01409 0.0
O6 O 0.02667 0.08539 0.01577 0.0
O7 O 0.0408 0.99282 0.05224 0.0
C8 C 0.97855 0.97561 0.01036 0.0
O9 O 0.0163 0.98446 0.00566 0.0
C10 C 0.98239 0.06576 0.05612 0.0
O11 O 0.94911 0.03774 0.04731 0.0
O12 O 0.07274 0.06632 0.02285 0.0
C13 C 0.02669 0.10167 0.34792 0.0
O14 O 0.99156 0.06534 0.3483 0.0
O15 O 0.03235 0.00965 0.35076 0.0
Zn16 Zn 0.04773 0.05566 0.36857 0.0
O17 O -0.0012 0.041 0.38396 0.0
C18 C 0.10304 0.03419 0.38475 0.0
O19 O 0.07525 -0.00252 0.37802 0.0
O20 O 0.05865 0.10666 0.35618 0.0
C21 C -0.00432 0.02851 0.39909 0.0
O22 O 0.02568 0.02364 0.40555 0.0
C23 C 0.00247 0.97228 0.35237 0.0
O24 O 0.97993 0.96242 0.36626 0.0
O25 O 0.09847 0.06538 0.38235 0.0
C26 C 0.08154 0.01314 0.67972 0.0
O27 O 0.07841 0.04658 0.67814 0.0
O28 O 0.98462 0.00832 0.68526 0.0
Zn29 Zn 0.0186 -0.00075 0.70287 0.0
O30 O 0.05326 0.05162 0.71745 0.0
C31 C 0.94209 0.94655 0.71959 0.0
O32 O 0.93227 0.97171 0.71213 0.0
O33 O 0.05811 0.98601 0.69029 0.0
C34 C 0.04046 0.05951 0.73135 0.0
O35 O 0.00267 0.03274 0.73667 0.0
C36 C 0.98658 0.04294 0.6829 0.0
O37 O 0.01306 0.07625 0.69213 0.0
O38 O 0.97864 0.95178 0.71752 0.0
H39 H 0.05317 0.49117 0.17174 0.0
H40 H 0.04808 0.43231 0.1548 0.0
H41 H 0.93388 0.34785 0.18069 0.0
H42 H 0.93842 0.40699 0.19719 0.0
H43 H 0.0034 0.52205 0.17245 0.0
H44 H 0.05666 0.47018 0.21301 0.0
H45 H 0.06315 0.42108 0.23094 0.0
H46 H 0.94819 0.39355 0.25622 0.0
H47 H 0.94118 0.44181 0.23784 0.0
H48 H 0.92909 0.54732 0.23154 0.0
H49 H 0.92439 0.60248 0.24741 0.0
H50 H 0.04878 0.69337 0.23075 0.0
H51 H 0.05276 0.63808 0.21463 0.0
H52 H 0.98957 0.52314 0.23541 0.0
H53 H 0.94135 0.58023 0.19113 0.0
H54 H 0.94739 0.63716 0.17419 0.0
H55 H 0.07042 0.66426 0.15785 0.0
H56 H 0.06375 0.60685 0.17459 0.0
C57 C -0.00365 0.45345 0.1858 0.0
C58 C 0.02709 0.45996 0.17377 0.0
C59 C 0.02431 0.42626 0.16421 0.0
C60 C 0.99059 0.38543 0.16644 0.0
C61 C 0.96001 0.37898 0.17858 0.0
C62 C 0.96282 0.41269 0.18814 0.0
C63 C -0.00178 0.48939 0.19541 0.0
C64 C 0.00093 0.52248 0.18624 0.0
C65 C -0.00487 0.49012 0.21339 0.0
C66 C -0.00182 0.45933 0.22396 0.0
C67 C 0.03253 0.45313 0.22225 0.0
C68 C 0.03647 0.42542 0.23264 0.0
C69 C 0.00624 0.40352 0.24502 0.0
C70 C 0.97175 0.40962 0.24667 0.0
C71 C 0.96785 0.43738 0.23627 0.0
C72 C 0.99114 0.58872 0.22186 0.0
C73 C 0.95527 0.57918 0.23131 0.0
C74 C 0.95272 0.61071 0.24041 0.0
C75 C 0.98622 0.65236 0.24036 0.0
C76 C 0.02214 0.66177 0.23084 0.0
C77 C 0.02458 0.63021 0.22168 0.0
C78 C 0.99367 0.55501 0.2124 0.0
C79 C 0.99191 0.52244 0.22161 0.0
C80 C -0.00097 0.55545 0.19453 0.0
C81 C 0.00223 0.58957 0.18419 0.0
C82 C 0.96965 0.59858 0.18394 0.0
C83 C 0.97325 0.63122 0.1743 0.0
C84 C 0.00948 0.65537 0.16471 0.0
C85 C 0.04189 0.64597 0.16491 0.0
C86 C 0.03821 0.61327 0.17451 0.0
H87 H 0.61474 0.07142 0.5033 0.0
H88 H 0.67083 0.06995 0.48718 0.0
H89 H 0.6415 0.95458 0.51059 0.0
H90 H 0.58569 0.95631 0.52667 0.0
H91 H 0.53241 0.02107 0.50407 0.0
H92 H 0.64327 0.07492 0.54387 0.0
H93 H 0.70268 0.08145 0.56025 0.0
H94 H 0.61946 0.9651 0.58428 0.0
H95 H 0.56021 0.95811 0.56743 0.0
H96 H 0.44065 0.94579 0.5637 0.0
H97 H 0.38362 0.94077 0.58131 0.0
H98 H 0.4119 0.06267 0.56549 0.0
H99 H 0.4695 0.06783 0.54816 0.0
H100 H 0.52561 0.0059 0.56685 0.0
H101 H 0.41258 0.96017 0.52381 0.0
H102 H 0.36028 0.96692 0.5072 0.0
H103 H 0.45806 0.08709 0.4904 0.0
H104 H 0.50984 0.08063 0.50736 0.0
C105 C 0.59635 0.01423 0.51631 0.0
C106 C 0.6203 0.04573 0.50488 0.0
C107 C 0.65227 0.0448 0.49566 0.0
C108 C 0.66072 0.01224 0.49768 0.0
C109 C 0.63627 0.98047 0.50898 0.0
C110 C 0.60432 0.98138 0.51815 0.0
C111 C 0.56296 0.01547 0.52639 0.0
C112 C 0.53117 0.01823 0.51782 0.0
C113 C 0.56156 0.01224 0.54433 0.0
C114 C 0.5974 0.01579 0.5543 0.0
C115 C 0.63788 0.05058 0.55253 0.0
C116 C 0.67174 0.05449 0.56202 0.0
C117 C 0.66574 0.0238 0.57356 0.0
C118 C 0.62514 0.98899 0.57534 0.0
C119 C 0.59123 0.98512 0.56583 0.0
C120 C 0.45904 0.00703 0.55455 0.0
C121 C 0.43445 0.97137 0.56401 0.0
C122 C 0.40174 0.96842 0.57396 0.0
C123 C 0.39326 0.00129 0.57475 0.0
C124 C 0.41793 0.037 0.56523 0.0
C125 C 0.45057 0.03985 0.55523 0.0
C126 C 0.4944 0.01022 0.54446 0.0
C127 C 0.52676 0.00852 0.55308 0.0
C128 C 0.49712 0.01615 0.52667 0.0
C129 C 0.46502 0.02004 0.5169 0.0
C130 C 0.42259 0.98814 0.5167 0.0
C131 C 0.39284 0.9919 0.5071 0.0
C132 C 0.40505 0.02758 0.49751 0.0
C133 C 0.44754 0.05951 0.49784 0.0
C134 C 0.47723 0.0557 0.5074 0.0
H135 H 0.45569 0.45749 0.83745 0.0
H136 H 0.39748 0.40026 0.82112 0.0
H137 H 0.31089 0.43146 0.84508 0.0
H138 H 0.36928 0.48834 0.86154 0.0
H139 H 0.48736 0.53921 0.83806 0.0
H140 H 0.43151 0.43361 0.87781 0.0
H141 H 0.37988 0.37712 0.89499 0.0
H142 H 0.3492 0.46318 0.9202 0.0
H143 H 0.40038 0.51954 0.90262 0.0
H144 H 0.51923 0.63932 0.89952 0.0
H145 H 0.57839 0.69536 0.91604 0.0
H146 H 0.65909 0.65086 0.89686 0.0
H147 H 0.60006 0.59555 0.88019 0.0
H148 H 0.48488 0.55199 0.90121 0.0
H149 H 0.55405 0.66008 0.85901 0.0
H150 H 0.61462 0.70929 0.84252 0.0
H151 H 0.62907 0.60722 0.82301 0.0
H152 H 0.56916 0.55844 0.83977 0.0
C153 C 0.41678 0.477 0.85077 0.0
C154 C 0.42418 0.45207 0.83913 0.0
C155 C 0.39088 0.41947 0.82977 0.0
C156 C 0.34954 0.41134 0.83178 0.0
C157 C 0.34226 0.43651 0.84341 0.0
C158 C 0.37559 0.46908 0.85279 0.0
C159 C 0.45222 0.51155 0.86068 0.0
C160 C 0.48689 0.54182 0.85188 0.0
C161 C 0.45176 0.51492 0.87869 0.0
C162 C 0.41941 0.48065 0.88881 0.0
C163 C 0.41327 0.44021 0.88687 0.0
C164 C 0.38408 0.40806 0.89682 0.0
C165 C 0.36058 0.41576 0.90897 0.0
C166 C 0.36656 0.45624 0.91082 0.0
C167 C 0.39592 0.48848 0.90088 0.0
C168 C 0.55545 0.61366 0.88852 0.0
C169 C 0.54974 0.64179 0.89889 0.0
C170 C 0.58352 0.67366 0.90836 0.0
C171 C 0.62352 0.67769 0.90772 0.0
C172 C 0.62894 0.64917 0.89738 0.0
C173 C 0.59521 0.61743 0.8879 0.0
C174 C 0.51965 0.57984 0.87855 0.0
C175 C 0.48493 0.54965 0.88738 0.0
C176 C 0.52085 0.57564 0.86061 0.0
C177 C 0.55729 0.60568 0.85065 0.0
C178 C 0.5705 0.64843 0.85127 0.0
C179 C 0.6049 0.67642 0.84177 0.0
C180 C 0.62664 0.66209 0.83152 0.0
C181 C 0.61333 0.61927 0.83098 0.0
C182 C 0.57888 0.59132 0.8404 0.0
H183 H 0.9134 0.07254 0.06352 0.0
H184 H 0.91094 0.12539 0.08226 0.0
H185 H 0.04334 0.18103 0.09377 0.0
H186 H 0.04628 0.12881 0.07511 0.0
H187 H 0.9347 0.14499 0.11804 0.0
H188 H 0.03081 0.27878 0.0768 0.0
H189 H 0.00612 0.225 0.06907 0.0
H190 H 0.05419 0.24788 0.08146 0.0
C191 C 0.94198 0.09604 0.07004 0.0
C192 C 0.98009 0.09665 0.06774 0.0
C193 C 0.94049 0.12612 0.08073 0.0
C194 C 0.9771 0.15736 0.08915 0.0
C195 C 0.01493 0.15756 0.08713 0.0
H196 H 0.05307 0.36962 0.15771 0.0
H197 H 0.04725 0.31258 0.13919 0.0
C198 C 0.01646 0.12756 0.07651 0.0
C199 C 0.97607 0.18984 0.10015 0.0
H200 H 0.01846 0.29538 0.10495 0.0
C201 C 0.95264 0.17786 0.11515 0.0
C202 C -0.00046 0.23259 0.09626 0.0
C203 C 0.02381 0.24693 0.07995 0.0
C204 C 0.95326 0.20784 0.12671 0.0
C205 C 0.97744 0.25067 0.12297 0.0
C206 C 0.00018 0.2625 0.1078 0.0
C207 C 0.98021 0.28395 0.1347 0.0
C208 C 0.9292 0.19359 0.14306 0.0
C209 C 0.94443 0.28672 0.13822 0.0
C210 C 0.94768 0.31934 0.14874 0.0
C211 C 0.98685 0.34989 0.15582 0.0
C212 C 0.02257 0.34684 0.15231 0.0
C213 C 0.01927 0.3142 0.14181 0.0
H214 H 0.92033 0.16097 0.14581 0.0
H215 H 0.94799 0.21443 0.15404 0.0
H216 H 0.89987 0.19482 0.14195 0.0
H217 H 0.91416 0.26416 0.13256 0.0
H218 H 0.91972 0.32125 0.15098 0.0
H219 H 0.98013 0.00472 0.43227 0.0
H220 H 0.92127 -0.00394 0.44969 0.0
H221 H 0.87097 0.02838 0.40702 0.0
H222 H 0.92913 0.03659 0.38948 0.0
H223 H 0.90098 0.05743 0.45764 0.0
H224 H 0.76861 0.92161 0.42316 0.0
H225 H 0.82282 0.93597 0.42025 0.0
H226 H 0.80154 0.96347 0.40952 0.0
C227 C 0.9563 0.00956 0.42654 0.0
C228 C 0.95928 0.02129 0.40948 0.0
C229 C 0.92275 0.00462 0.43652 0.0
C230 C 0.89151 0.011 0.42956 0.0
C231 C 0.89426 0.02242 0.41252 0.0
H232 H 0.68029 0.02948 0.46413 0.0
H233 H 0.73705 0.02847 0.44836 0.0
C234 C 0.92772 0.02736 0.40255 0.0
C235 C 0.85729 0.00817 0.44033 0.0
H236 H 0.75043 0.96 0.4429 0.0
C237 C 0.86805 0.03581 0.45456 0.0
C238 C 0.81442 0.97998 0.43622 0.0
C239 C 0.80107 0.94829 0.42155 0.0
C240 C 0.837 0.03703 0.46447 0.0
C241 C 0.79414 0.00942 0.46014 0.0
C242 C 0.78337 0.98124 0.44611 0.0
C243 C 0.75998 0.00994 0.4698 0.0
C244 C 0.85028 0.06879 0.47912 0.0
C245 C 0.75396 -0.0005 0.48702 0.0
C246 C 0.72177 0.00031 0.49609 0.0
C247 C 0.69491 0.01138 0.48805 0.0
C248 C 0.70083 0.02143 0.47074 0.0
C249 C 0.73301 0.02057 0.46169 0.0
H250 H 0.88388 0.09368 0.47836 0.0
H251 H 0.83067 0.08364 0.4794 0.0
H252 H 0.84599 0.05285 0.49132 0.0
H253 H 0.77411 0.99063 0.49343 0.0
H254 H 0.71822 0.99271 0.50944 0.0
H255 H 0.95279 0.89184 0.73874 0.0
H256 H 0.90164 0.83939 0.75775 0.0
H257 H 0.81178 0.87639 0.74502 0.0
H258 H 0.86211 0.92822 0.72597 0.0
H259 H 0.86263 0.85295 0.78625 0.0
H260 H 0.74478 0.74929 0.73702 0.0
H261 H 0.79808 0.78796 0.73187 0.0
H262 H 0.75943 0.80312 0.7355 0.0
C263 C 0.92201 0.88853 0.73989 0.0
C264 C 0.91143 0.91404 0.73078 0.0
C265 C 0.8929 0.85865 0.75077 0.0
C266 C 0.85277 0.85363 0.75255 0.0
C267 C 0.84228 0.87916 0.74353 0.0
H268 H 0.63145 0.72388 0.81198 0.0
H269 H 0.68897 0.77003 0.79354 0.0
C270 C 0.87123 0.90895 0.73271 0.0
C271 C 0.82203 0.82287 0.76429 0.0
H272 H 0.72138 0.74063 0.76589 0.0
C273 C 0.83195 0.82798 0.78182 0.0
C274 C 0.78211 0.79036 0.75841 0.0
C275 C 0.77055 0.78202 0.73965 0.0
C276 C 0.80218 0.80249 0.79372 0.0
C277 C 0.7618 0.77099 0.78786 0.0
C278 C 0.75233 0.7651 0.77031 0.0
C279 C 0.72835 0.74447 0.79973 0.0
C280 C 0.81349 0.81036 0.8125 0.0
C281 C 0.73165 0.71497 0.8093 0.0
C282 C 0.69889 0.68863 0.81986 0.0
C283 C 0.66233 0.69139 0.821 0.0
C284 C 0.65943 0.72138 0.81154 0.0
C285 C 0.69209 0.74755 0.80093 0.0
H286 H 0.84322 0.84045 0.81508 0.0
H287 H 0.78789 0.81065 0.81984 0.0
H288 H 0.81751 0.78474 0.81725 0.0
H289 H 0.75923 0.71187 0.80837 0.0
H290 H 0.70211 0.66601 0.82711 0.0
H291 H 0.98747 0.95227 0.09713 0.0
H292 H 0.99109 0.89992 0.11388 0.0
H293 H 0.06518 0.88462 0.07487 0.0
H294 H 0.06251 0.93785 0.05813 0.0
H295 H 0.95988 0.81843 0.10408 0.0
H296 H 0.13134 0.89505 0.11801 0.0
H297 H 0.10723 0.92327 0.11013 0.0
H298 H 0.11797 0.8913 0.09574 0.0
C299 C 0.00497 0.93815 0.09217 0.0
C300 C 0.02468 0.94916 0.07629 0.0
C301 C 0.007 0.90824 0.10178 0.0
C302 C 0.02872 0.88866 0.09571 0.0
C303 C 0.04899 0.89997 0.07996 0.0
H304 H 0.04179 0.67704 0.1327 0.0
H305 H 0.04751 0.73403 0.11585 0.0
C306 C 0.04725 0.93022 0.07037 0.0
C307 C 0.0276 0.85457 0.10543 0.0
H308 H 0.08916 0.8242 0.12567 0.0
C309 C 0.98816 0.81978 0.10885 0.0
C310 C 0.06455 0.85635 0.11156 0.0
C311 C 0.10768 0.89364 0.10883 0.0
C312 C 0.98462 0.78666 0.11822 0.0
C313 C 0.02149 0.78858 0.12444 0.0
C314 C 0.061 0.82301 0.12085 0.0
C315 C 0.01944 0.75522 0.13489 0.0
C316 C 0.94151 0.74964 0.12127 0.0
C317 C 0.00231 0.74883 0.15125 0.0
C318 C -0.00071 0.71658 0.16097 0.0
C319 C 0.01337 0.69014 0.15449 0.0
C320 C 0.03107 0.69709 0.13815 0.0
C321 C 0.03422 0.72949 0.12847 0.0
H322 H 0.91722 0.74883 0.11263 0.0
H323 H 0.94154 0.71988 0.11943 0.0
H324 H 0.93249 0.75155 0.13463 0.0
H325 H 0.99131 0.76885 0.1565 0.0
H326 H 0.98626 0.7126 0.17362 0.0
H327 H 0.16186 0.1032 0.40343 0.0
H328 H 0.21717 0.10795 0.42236 0.0
H329 H 0.17684 0.97887 0.41 0.0
H330 H 0.12203 0.97389 0.39104 0.0
H331 H 0.20593 0.0588 0.45104 0.0
H332 H 0.30411 0.03947 0.40223 0.0
H333 H 0.26509 0.05314 0.39692 0.0
H334 H 0.24952 -0.00032 0.40064 0.0
C335 C 0.16506 0.07597 0.40462 0.0
C336 C 0.13765 0.03821 0.39569 0.0
C337 C 0.19659 0.07873 0.41545 0.0
C338 C 0.20141 0.04393 0.41736 0.0
C339 C 0.17417 0.00632 0.40843 0.0
H340 H 0.34304 0.96678 0.47693 0.0
H341 H 0.29385 0.9733 0.45819 0.0
C342 C 0.14269 0.00349 0.39767 0.0
C343 C 0.23364 0.04601 0.42922 0.0
H344 H 0.31682 0.0301 0.43119 0.0
C345 C 0.23055 0.05308 0.44672 0.0
C346 C 0.26563 0.03849 0.4235 0.0
C347 C 0.27164 0.03266 0.40478 0.0
C348 C 0.25764 0.05114 0.45874 0.0
C349 C 0.28887 0.04246 0.45303 0.0
C350 C 0.29261 0.03646 0.43551 0.0
C351 C 0.31742 0.03845 0.46504 0.0
C352 C 0.25171 0.05685 0.47748 0.0
C353 C 0.34687 0.07295 0.47509 0.0
C354 C 0.37486 0.06927 0.48588 0.0
C355 C 0.37396 0.03103 0.48674 0.0
C356 C 0.34413 -0.00354 0.47674 0.0
C357 C 0.31623 0.00021 0.46594 0.0
H358 H 0.2209 0.05443 0.47994 0.0
H359 H 0.25392 0.03319 0.48501 0.0
H360 H 0.27693 0.08828 0.48212 0.0
H361 H 0.34864 0.10288 0.47439 0.0
H362 H 0.39728 0.09637 0.49352 0.0
H363 H 0.02619 0.08232 0.76304 0.0
H364 H 0.07403 0.14454 0.78053 0.0
H365 H 0.1658 0.18516 0.74069 0.0
H366 H 0.11827 0.12331 0.72308 0.0
H367 H 0.15672 0.1664 0.7913 0.0
H368 H 0.15732 0.28973 0.7529 0.0
H369 H 0.11689 0.23525 0.75054 0.0
H370 H 0.16723 0.25367 0.74091 0.0
C371 C 0.05639 0.10468 0.75793 0.0
C372 C 0.06845 0.09788 0.74167 0.0
C373 C 0.08364 0.14016 0.76794 0.0
C374 C 0.12313 0.1696 0.76179 0.0
C375 C 0.13511 0.16314 0.74552 0.0
H376 H 0.3487 0.38877 0.79816 0.0
H377 H 0.29162 0.32991 0.78201 0.0
C378 C 0.108 0.12763 0.73553 0.0
C379 C 0.15295 0.20589 0.77273 0.0
H380 H 0.2104 0.31254 0.77461 0.0
C381 C 0.16817 0.19839 0.78779 0.0
C382 C 0.16777 0.24746 0.76803 0.0
C383 C 0.15123 0.25718 0.75229 0.0
C384 C 0.19909 0.23147 0.798 0.0
C385 C 0.21445 0.27309 0.79316 0.0
C386 C 0.19856 0.28058 0.77827 0.0
C387 C 0.24829 0.30924 0.80299 0.0
C388 C 0.21621 0.22151 0.81351 0.0
C389 C 0.24256 0.31743 0.82007 0.0
C390 C 0.2753 0.35077 0.82941 0.0
C391 C 0.31423 0.37668 0.82177 0.0
C392 C 0.31941 0.36894 0.80452 0.0
C393 C 0.28672 0.33556 0.79522 0.0
H394 H 0.20845 0.18841 0.81313 0.0
H395 H 0.25091 0.24209 0.81461 0.0
H396 H 0.20218 0.22682 0.82515 0.0
H397 H 0.21285 0.29791 0.8262 0.0
H398 H 0.27037 0.35574 0.84269 0.0
H399 H 0.98049 0.11101 0.67492 0.0
H400 H 0.93006 0.11274 0.65515 0.0
H401 H 0.87666 0.9811 0.64314 0.0
H402 H 0.92709 0.97909 0.66263 0.0
H403 H 0.89029 0.02987 0.61436 0.0
H404 H 0.80421 0.06235 0.66513 0.0
H405 H 0.85994 0.09839 0.66473 0.0
H406 H 0.84059 0.04487 0.6698 0.0
C407 C 0.95811 0.08247 0.66802 0.0
C408 C 0.95762 0.04486 0.67043 0.0
C409 C 0.92922 0.08348 0.65681 0.0
C410 C 0.8993 0.0469 0.64791 0.0
C411 C 0.89944 0.00962 0.64995 0.0
H412 H 0.68486 0.96356 0.58055 0.0
H413 H 0.74346 0.97126 0.59805 0.0
C414 C 0.92826 0.00856 0.66113 0.0
C415 C 0.86732 0.04701 0.6366 0.0
H416 H 0.78169 0.05922 0.63669 0.0
C417 C 0.8666 0.03639 0.61921 0.0
C418 C 0.83652 0.05555 0.64301 0.0
C419 C 0.83494 0.06561 0.6617 0.0
C420 C 0.83576 0.03405 0.60801 0.0
C421 C 0.80456 0.04189 0.61448 0.0
C422 C 0.80573 0.05323 0.63181 0.0
C423 C 0.76971 0.03745 0.6036 0.0
C424 C 0.837 0.0235 0.58935 0.0
C425 C 0.76463 0.07191 0.60127 0.0
C426 C 0.73099 0.06752 0.59144 0.0
C427 C 0.70167 0.02847 0.58386 0.0
C428 C 0.70677 0.99395 0.58631 0.0
C429 C 0.74047 -0.0016 0.59613 0.0
H430 H 0.86859 0.02937 0.58569 0.0
H431 H 0.81398 0.98984 0.58675 0.0
H432 H 0.8284 0.04198 0.58116 0.0
H433 H 0.78669 0.1022 0.60709 0.0
H434 H 0.72756 0.09455 0.58999 0.0
H435 H 0.97737 0.94313 0.97851 0.0
H436 H 0.9159 0.89539 0.96086 0.0
H437 H 0.83422 0.89538 0.00026 0.0
H438 H 0.89557 0.94391 0.01786 0.0
H439 H 0.85371 0.81676 0.9682 0.0
H440 H 0.78613 0.91835 0.9582 0.0
H441 H 0.83885 0.93846 0.96647 0.0
H442 H 0.79451 0.9125 0.98025 0.0
C443 C 0.94634 0.93323 0.98338 0.0
C444 C 0.94133 0.94737 -0.00043 0.0
C445 C 0.91126 0.90596 0.97328 0.0
C446 C 0.87053 0.89234 0.97914 0.0
C447 C 0.86538 0.90629 0.99531 0.0
H448 H 0.62267 0.70529 0.94048 0.0
H449 H 0.68246 0.75843 0.95767 0.0
C450 C 0.90048 0.93379 0.00541 0.0
C451 C 0.83357 0.862 0.96862 0.0
H452 H 0.74388 0.84686 0.94912 0.0
C453 C 0.82982 0.82344 0.96395 0.0
C454 C 0.80242 0.8708 0.96314 0.0
C455 C 0.80576 0.91241 0.96712 0.0
C456 C 0.79551 0.79321 0.95408 0.0
C457 C 0.7644 0.80199 0.94865 0.0
C458 C 0.76791 0.84038 0.95337 0.0
C459 C 0.72811 0.77157 0.93795 0.0
C460 C 0.79241 0.75186 0.94971 0.0
C461 C 0.73408 0.76216 0.9211 0.0
C462 C 0.70002 0.73216 0.91119 0.0
C463 C 0.65937 0.71101 0.91799 0.0
C464 C 0.65345 0.72128 0.9348 0.0
C465 C 0.68755 0.75145 0.94467 0.0
H466 H 0.81435 0.74686 0.95762 0.0
H467 H 0.75984 0.72559 0.9515 0.0
H468 H 0.80036 0.75107 0.9361 0.0
H469 H 0.76516 0.7779 0.91565 0.0
H470 H 0.70553 0.72559 0.8982 0.0
H471 H 0.03722 0.98356 0.32082 0.0
H472 H 0.0292 0.92972 0.2999 0.0
H473 H 0.94539 0.83384 0.33358 0.0
H474 H 0.9524 0.88749 0.3544 0.0
H475 H 0.05174 0.87216 0.30445 0.0
H476 H 0.88129 0.79203 0.28871 0.0
H477 H 0.90876 0.84229 0.29991 0.0
H478 H 0.89193 0.79503 0.3112 0.0
C479 C 0.01664 0.95101 0.32369 0.0
C480 C -0.00457 0.93976 0.33927 0.0
C481 C 0.01209 0.9203 0.31172 0.0
C482 C 0.98627 0.87779 0.31508 0.0
C483 C 0.96465 0.86645 0.33053 0.0
H484 H 0.95466 0.64731 0.27237 0.0
H485 H 0.95334 0.70279 0.28949 0.0
C486 C 0.96892 0.89717 0.34247 0.0
C487 C 0.98453 0.84546 0.30299 0.0
H488 H 0.91737 0.75643 0.27986 0.0
C489 C 0.02241 0.84713 0.29892 0.0
C490 C 0.9462 0.81282 0.29581 0.0
C491 C 0.90479 0.81058 0.29899 0.0
C492 C 0.02289 0.81644 0.28821 0.0
C493 C 0.98454 0.78342 0.28134 0.0
C494 C 0.94668 0.78186 0.28523 0.0
C495 C 0.98319 0.74958 0.27047 0.0
C496 C 0.06425 0.81882 0.28467 0.0
C497 C -0.00018 0.75756 0.25403 0.0
C498 C 0.00029 0.72586 0.24413 0.0
C499 C 0.98417 0.68566 0.25054 0.0
C500 C 0.96683 0.67772 0.26694 0.0
C501 C 0.96621 0.70938 0.27679 0.0
H502 H 0.09008 0.84241 0.29316 0.0
H503 H 0.06139 0.78789 0.28632 0.0
H504 H 0.07301 0.82757 0.27125 0.0
H505 H 0.01265 0.78838 0.24891 0.0
H506 H 0.0132 0.73281 0.23144 0.0
H507 H 0.13068 0.06265 0.65449 0.0
H508 H 0.18018 0.05349 0.63691 0.0
H509 H 0.15019 0.94175 0.66327 0.0
H510 H 0.10038 0.95067 0.68107 0.0
H511 H 0.23878 0.0008 0.65962 0.0
H512 H 0.14962 0.96292 0.5983 0.0
H513 H 0.15659 0.00917 0.60939 0.0
H514 H 0.1256 0.95911 0.61877 0.0
C515 C 0.13444 0.03602 0.65656 0.0
C516 C 0.11148 0.00729 0.66915 0.0
C517 C 0.16259 0.03074 0.64642 0.0
C518 C 0.1683 -0.00336 0.64865 0.0
C519 C 0.14589 0.9681 0.66131 0.0
H520 H 0.31384 0.93438 0.57822 0.0
H521 H 0.25845 0.92982 0.59687 0.0
C522 C 0.11749 0.97324 0.67144 0.0
C523 C 0.19871 0.99177 0.638 0.0
H524 H 0.22142 0.9808 0.59662 0.0
C525 C 0.23485 -0.00401 0.64587 0.0
C526 C 0.19315 0.98502 0.6201 0.0
C527 C 0.15397 0.97839 0.61112 0.0
C528 C 0.26651 0.9953 0.63619 0.0
C529 C 0.26191 0.9907 0.61821 0.0
C530 C 0.22499 0.98477 0.61041 0.0
C531 C 0.29562 0.99318 0.60722 0.0
C532 C 0.30469 -0.00028 0.64525 0.0
C533 C 0.33455 0.0305 0.60673 0.0
C534 C 0.36617 0.03321 0.59611 0.0
C535 C 0.35935 -0.00137 0.58576 0.0
C536 C 0.32016 0.96136 0.58619 0.0
C537 C 0.28848 0.95875 0.59677 0.0
H538 H 0.29855 0.99206 0.65893 0.0
H539 H 0.31493 0.9791 0.63908 0.0
H540 H 0.33095 0.03254 0.64461 0.0
H541 H 0.34037 0.05763 0.6145 0.0
H542 H 0.39613 0.06221 0.59616 0.0
H543 H 0.05414 0.14355 0.99483 0.0
H544 H 0.106 0.19741 0.97678 0.0
H545 H 0.19598 0.1606 0.98954 0.0
H546 H 0.14406 0.1062 0.00763 0.0
H547 H 0.18684 0.26421 0.98795 0.0
H548 H 0.19689 0.16294 0.93657 0.0
H549 H 0.15356 0.14386 0.95115 0.0
H550 H 0.20335 0.15133 0.95807 0.0
C551 C 0.08483 0.14661 0.99374 0.0
C552 C 0.09498 0.12056 0.00267 0.0
C553 C 0.11442 0.17746 0.98342 0.0
C554 C 0.1546 0.18268 0.98174 0.0
C555 C 0.16487 0.15659 0.9905 0.0
H556 H 0.37255 0.35845 0.92515 0.0
H557 H 0.32309 0.30236 0.94315 0.0
C558 C 0.13525 0.12569 0.00088 0.0
C559 C 0.18609 0.21661 0.9713 0.0
H560 H 0.24355 0.23577 0.9351 0.0
C561 C 0.19927 0.25807 0.97638 0.0
C562 C 0.20225 0.20833 0.95629 0.0
C563 C 0.18816 0.16423 0.95005 0.0
C564 C 0.2285 0.29168 0.96688 0.0
C565 C 0.24419 0.28343 0.9517 0.0
C566 C 0.23133 0.24194 0.94672 0.0
C567 C 0.27391 0.31742 0.94079 0.0
C568 C 0.24281 0.33569 0.97333 0.0
C569 C 0.26239 0.34413 0.93333 0.0
C570 C 0.29057 0.37621 0.92305 0.0
C571 C 0.33057 0.3818 0.91989 0.0
C572 C 0.34179 0.35465 0.92721 0.0
C573 C 0.31367 0.32272 0.93754 0.0
H574 H 0.23702 0.33691 0.98719 0.0
H575 H 0.27685 0.35689 0.97107 0.0
H576 H 0.225 0.34761 0.96644 0.0
H577 H 0.23145 0.33993 0.93535 0.0
H578 H 0.28082 0.39622 0.91736 0.0
H579 H 0.96254 0.10027 0.3302 0.0
H580 H 0.96462 0.15596 0.31378 0.0
H581 H 0.09608 0.23604 0.32687 0.0
H582 H 0.09446 0.18016 0.34334 0.0
H583 H 0.9879 0.23848 0.326 0.0
H584 H 0.09062 0.23832 0.27397 0.0
H585 H 0.06397 0.1954 0.28814 0.0
H586 H 0.10991 0.24298 0.29547 0.0
C587 C 0.992 0.12964 0.32958 0.0
C588 C 0.0284 0.13575 0.33803 0.0
C589 C 0.99307 0.16144 0.3202 0.0
C590 C 0.03056 0.19987 0.31899 0.0
C591 C 0.06699 0.20632 0.32747 0.0
H592 H 0.07803 0.41607 0.26086 0.0
H593 H 0.08566 0.36872 0.27959 0.0
C594 C 0.06595 0.17446 0.33692 0.0
C595 C 0.0309 0.23313 0.309 0.0
H596 H 0.06787 0.28707 0.27248 0.0
C597 C 0.00551 0.24929 0.31434 0.0
C598 C 0.05408 0.24718 0.29385 0.0
C599 C 0.08101 0.22999 0.28737 0.0
C600 C 0.00236 0.27896 0.30483 0.0
C601 C 0.02454 0.2921 0.28941 0.0
C602 C 0.0508 0.27676 0.28429 0.0
C603 C 0.01985 0.32074 0.27813 0.0
C604 C 0.97546 0.2961 0.31141 0.0
C605 C 0.98043 0.30909 0.27092 0.0
C606 C 0.97598 0.33596 0.26018 0.0
C607 C 0.01098 0.37483 0.25635 0.0
C608 C 0.05055 0.38616 0.26343 0.0
C609 C 0.05494 0.35928 0.27419 0.0
H610 H 0.97058 0.29222 0.32538 0.0
H611 H 0.98985 0.32979 0.30873 0.0
H612 H 0.94413 0.27886 0.30495 0.0
H613 H 0.95314 0.27902 0.27348 0.0
H614 H 0.94525 0.32603 0.25469 0.0
loop_
_geom_bond_atom_site_label_1
_geom_bond_atom_site_label_2
_geom_bond_distance
_geom_bond_site_symmetry_2
_ccdc_geom_bond_type
C0 O1 1.160 . S
C0 O7 1.185 . S
O1 C0 1.160 . S
O2 Zn3 1.899 . S
O2 C10 1.284 . S
Zn3 O2 1.899 . S
Zn3 O4 2.032 1_445 S
Zn3 O7 2.086 1_545 S
Zn3 O12 1.977 . S
O4 Zn3 2.032 1_665 S
O4 C8 1.278 . S
C5 O6 1.203 . S
C5 O12 1.267 . S
O6 C5 1.203 . S
O7 C0 1.185 . S
O7 Zn3 2.086 1_565 S
C8 O4 1.278 . S
C8 O9 1.211 1_565 S
O9 C8 1.211 1_545 S
C10 O2 1.284 . S
C10 O11 1.273 1_455 S
O11 C10 1.273 1_655 S
O12 Zn3 1.977 . S
O12 C5 1.267 . S
C13 O14 1.160 . S
C13 O20 1.185 . S
O14 C13 1.160 . S
O15 Zn16 1.899 . S
O15 C23 1.284 1_545 S
Zn16 O15 1.899 . S
Zn16 O17 2.032 1_455 S
Zn16 O20 2.086 . S
Zn16 O25 1.977 . S
O17 Zn16 2.032 1_655 S
O17 C21 1.278 . S
C18 O19 1.203 . S
C18 O25 1.267 . S
O19 C18 1.203 . S
O20 C13 1.185 . S
O20 Zn16 2.086 . S
C21 O17 1.278 . S
C21 O22 1.211 . S
O22 C21 1.211 . S
C23 O15 1.284 1_565 S
C23 O24 1.273 1_455 S
O24 C23 1.273 1_655 S
O25 Zn16 1.977 . S
O25 C18 1.267 . S
C26 O27 1.168 . S
C26 O33 1.183 1_545 S
O27 C26 1.168 . S
O28 Zn29 1.899 1_655 S
O28 C36 1.284 . S
Zn29 O28 1.899 1_455 S
Zn29 O30 2.032 . S
Zn29 O33 2.086 1_545 S
Zn29 O38 1.977 1_445 S
O30 Zn29 2.032 . S
O30 C34 1.278 . S
C31 O32 1.203 . S
C31 O38 1.267 . S
O32 C31 1.203 . S
O33 C26 1.183 1_565 S
O33 Zn29 2.086 1_565 S
C34 O30 1.278 . S
C34 O35 1.211 . S
O35 C34 1.211 . S
C36 O28 1.284 . S
C36 O37 1.273 . S
O37 C36 1.273 . S
O38 Zn29 1.977 1_665 S
O38 C31 1.267 . S
H39 C58 0.949 . S
H40 C59 0.950 . S
H41 C61 0.950 . S
H42 C62 0.950 . S
H43 C64 0.950 . S
H44 C67 0.950 . S
H45 C68 0.950 . S
H46 C70 0.951 . S
H47 C71 0.949 . S
H48 C73 0.949 . S
H49 C74 0.950 . S
H50 C76 0.950 . S
H51 C77 0.950 . S
H52 C79 0.950 1_655 S
H53 C82 0.950 . S
H54 C83 0.950 . S
H55 C85 0.951 . S
H56 C86 0.949 . S
C57 C58 1.376 . S
C57 C62 1.386 1_455 S
C57 C63 1.483 . S
C58 H39 0.949 . S
C58 C57 1.376 . S
C58 C59 1.397 . S
C59 H40 0.950 . S
C59 C58 1.397 . S
C59 C60 1.391 . S
C60 C59 1.391 . S
C60 C61 1.405 1_455 S
C61 H41 0.950 . S
C61 C60 1.405 1_655 S
C61 C62 1.367 . S
C62 H42 0.950 . S
C62 C57 1.386 1_655 S
C62 C61 1.367 . S
C63 C57 1.483 . S
C63 C64 1.382 . S
C63 C65 1.403 . S
C64 H43 0.950 . S
C64 C63 1.382 . S
C64 C80 1.411 . S
C65 C63 1.403 . S
C65 C66 1.489 . S
C65 C79 1.411 . S
C66 C65 1.489 . S
C66 C67 1.383 . S
C66 C71 1.382 1_455 S
C67 H44 0.950 . S
C67 C66 1.383 . S
C67 C68 1.395 . S
C68 H45 0.950 . S
C68 C67 1.395 . S
C68 C69 1.288 . S
C69 C68 1.288 . S
C69 C70 1.392 1_455 S
C70 H46 0.951 . S
C70 C69 1.392 1_655 S
C70 C71 1.392 . S
C71 H47 0.949 . S
C71 C66 1.382 1_655 S
C71 C70 1.392 . S
C72 C73 1.376 1_455 S
C72 C77 1.386 . S
C72 C78 1.483 . S
C73 H48 0.949 . S
C73 C72 1.376 1_655 S
C73 C74 1.397 . S
C74 H49 0.950 . S
C74 C73 1.397 . S
C74 C75 1.391 1_655 S
C75 C74 1.391 1_455 S
C75 C76 1.405 . S
C76 H50 0.950 . S
C76 C75 1.405 . S
C76 C77 1.367 . S
C77 H51 0.950 . S
C77 C72 1.386 . S
C77 C76 1.367 . S
C78 C72 1.483 . S
C78 C79 1.382 . S
C78 C80 1.403 . S
C79 H52 0.950 1_455 S
C79 C65 1.411 . S
C79 C78 1.382 . S
C80 C64 1.411 . S
C80 C78 1.403 . S
C80 C81 1.489 . S
C81 C80 1.489 . S
C81 C82 1.383 1_455 S
C81 C86 1.382 . S
C82 H53 0.950 . S
C82 C81 1.383 1_655 S
C82 C83 1.395 . S
C83 H54 0.950 . S
C83 C82 1.395 . S
C83 C84 1.288 1_655 S
C84 C83 1.288 1_455 S
C84 C85 1.392 . S
C85 H55 0.951 . S
C85 C84 1.392 . S
C85 C86 1.392 . S
C86 H56 0.949 . S
C86 C81 1.382 . S
C86 C85 1.392 . S
H87 C106 0.949 . S
H88 C107 0.950 . S
H89 C109 0.950 . S
H90 C110 0.950 . S
H91 C112 0.950 . S
H92 C115 0.950 . S
H93 C116 0.950 . S
H94 C118 0.951 . S
H95 C119 0.949 . S
H96 C121 0.949 . S
H97 C122 0.950 . S
H98 C124 0.950 . S
H99 C125 0.950 . S
H100 C127 0.950 . S
H101 C130 0.950 . S
H102 C131 0.950 . S
H103 C133 0.951 . S
H104 C134 0.949 . S
C105 C106 1.376 . S
C105 C110 1.386 1_545 S
C105 C111 1.483 . S
C106 H87 0.949 . S
C106 C105 1.376 . S
C106 C107 1.397 . S
C107 H88 0.950 . S
C107 C106 1.397 . S
C107 C108 1.391 . S
C108 C107 1.391 . S
C108 C109 1.405 1_545 S
C109 H89 0.950 . S
C109 C108 1.405 1_565 S
C109 C110 1.367 . S
C110 H90 0.950 . S
C110 C105 1.386 1_565 S
C110 C109 1.367 . S
C111 C105 1.483 . S
C111 C112 1.382 . S
C111 C113 1.403 . S
C112 H91 0.950 . S
C112 C111 1.382 . S
C112 C128 1.411 . S
C113 C111 1.403 . S
C113 C114 1.489 . S
C113 C127 1.411 . S
C114 C113 1.489 . S
C114 C115 1.383 . S
C114 C119 1.382 1_545 S
C115 H92 0.950 . S
C115 C114 1.383 . S
C115 C116 1.395 . S
C116 H93 0.950 . S
C116 C115 1.395 . S
C116 C117 1.288 . S
C117 C116 1.288 . S
C117 C118 1.392 1_545 S
C118 H94 0.951 . S
C118 C117 1.392 1_565 S
C118 C119 1.392 . S
C119 H95 0.949 . S
C119 C114 1.382 1_565 S
C119 C118 1.392 . S
C120 C121 1.376 1_545 S
C120 C125 1.386 . S
C120 C126 1.483 . S
C121 H96 0.949 . S
C121 C120 1.376 1_565 S
C121 C122 1.397 . S
C122 H97 0.950 . S
C122 C121 1.397 . S
C122 C123 1.391 1_565 S
C123 C122 1.391 1_545 S
C123 C124 1.405 . S
C124 H98 0.950 . S
C124 C123 1.405 . S
C124 C125 1.367 . S
C125 H99 0.950 . S
C125 C120 1.386 . S
C125 C124 1.367 . S
C126 C120 1.483 . S
C126 C127 1.382 . S
C126 C128 1.403 . S
C127 H100 0.950 . S
C127 C113 1.411 . S
C127 C126 1.382 . S
C128 C112 1.411 . S
C128 C126 1.403 . S
C128 C129 1.489 . S
C129 C128 1.489 . S
C129 C130 1.383 1_545 S
C129 C134 1.382 . S
C130 H101 0.950 . S
C130 C129 1.383 1_565 S
C130 C131 1.395 . S
C131 H102 0.950 . S
C131 C130 1.395 . S
C131 C132 1.288 1_565 S
C132 C131 1.288 1_545 S
C132 C133 1.392 . S
C133 H103 0.951 . S
C133 C132 1.392 . S
C133 C134 1.392 . S
C134 H104 0.949 . S
C134 C129 1.382 . S
C134 C133 1.392 . S
H135 C154 0.949 . S
H136 C155 0.950 . S
H137 C157 0.950 . S
H138 C158 0.950 . S
H139 C160 0.950 . S
H140 C163 0.950 . S
H141 C164 0.950 . S
H142 C166 0.951 . S
H143 C167 0.949 . S
H144 C169 0.949 . S
H145 C170 0.950 . S
H146 C172 0.950 . S
H147 C173 0.950 . S
H148 C175 0.950 . S
H149 C178 0.950 . S
H150 C179 0.950 . S
H151 C181 0.951 . S
H152 C182 0.949 . S
C153 C154 1.376 . S
C153 C158 1.386 . S
C153 C159 1.483 . S
C154 H135 0.949 . S
C154 C153 1.376 . S
C154 C155 1.397 . S
C155 H136 0.950 . S
C155 C154 1.397 . S
C155 C156 1.391 . S
C156 C155 1.391 . S
C156 C157 1.405 . S
C157 H137 0.950 . S
C157 C156 1.405 . S
C157 C158 1.367 . S
C158 H138 0.950 . S
C158 C153 1.386 . S
C158 C157 1.367 . S
C159 C153 1.483 . S
C159 C160 1.382 . S
C159 C161 1.403 . S
C160 H139 0.950 . S
C160 C159 1.382 . S
C160 C176 1.411 . S
C161 C159 1.403 . S
C161 C162 1.489 . S
C161 C175 1.411 . S
C162 C161 1.489 . S
C162 C163 1.383 . S
C162 C167 1.382 . S
C163 H140 0.950 . S
C163 C162 1.383 . S
C163 C164 1.395 . S
C164 H141 0.950 . S
C164 C163 1.395 . S
C164 C165 1.288 . S
C165 C164 1.288 . S
C165 C166 1.392 . S
C166 H142 0.951 . S
C166 C165 1.392 . S
C166 C167 1.392 . S
C167 H143 0.949 . S
C167 C162 1.382 . S
C167 C166 1.392 . S
C168 C169 1.376 . S
C168 C173 1.386 . S
C168 C174 1.483 . S
C169 H144 0.949 . S
C169 C168 1.376 . S
C169 C170 1.397 . S
C170 H145 0.950 . S
C170 C169 1.397 . S
C170 C171 1.391 . S
C171 C170 1.391 . S
C171 C172 1.405 . S
C172 H146 0.950 . S
C172 C171 1.405 . S
C172 C173 1.367 . S
C173 H147 0.950 . S
C173 C168 1.386 . S
C173 C172 1.367 . S
C174 C168 1.483 . S
C174 C175 1.382 . S
C174 C176 1.403 . S
C175 H148 0.950 . S
C175 C161 1.411 . S
C175 C174 1.382 . S
C176 C160 1.411 . S
C176 C174 1.403 . S
C176 C177 1.489 . S
C177 C176 1.489 . S
C177 C178 1.383 . S
C177 C182 1.382 . S
C178 H149 0.950 . S
C178 C177 1.383 . S
C178 C179 1.395 . S
C179 H150 0.950 . S
C179 C178 1.395 . S
C179 C180 1.288 . S
C180 C179 1.288 . S
C180 C181 1.392 . S
C181 H151 0.951 . S
C181 C180 1.392 . S
C181 C182 1.392 . S
C182 H152 0.949 . S
C182 C177 1.382 . S
C182 C181 1.392 . S
H183 C191 0.929 . S
H184 C193 0.930 . S
H185 C195 0.930 . S
H186 C198 0.929 . S
H187 C201 0.930 . S
H188 C203 0.960 . S
H189 C203 0.960 1_655 S
H190 C203 0.960 . S
C191 H183 0.929 . S
C191 C192 1.377 1_655 S
C191 C193 1.384 . S
C192 C191 1.377 1_455 S
C192 C198 1.390 . S
C193 H184 0.930 . S
C193 C191 1.384 . S
C193 C194 1.372 1_655 S
C194 C193 1.372 1_455 S
C194 C195 1.400 . S
C194 C199 1.490 . S
C195 H185 0.930 . S
C195 C194 1.400 . S
C195 C198 1.386 . S
H196 C212 0.930 . S
H197 C213 0.931 . S
C198 H186 0.929 . S
C198 C192 1.390 . S
C198 C195 1.386 . S
C199 C194 1.490 . S
C199 C201 1.395 1_455 S
C199 C202 1.403 . S
H200 C206 0.930 . S
C201 H187 0.930 . S
C201 C199 1.395 1_655 S
C201 C204 1.403 . S
C202 C199 1.403 . S
C202 C203 1.524 . S
C202 C206 1.400 . S
C203 H188 0.960 . S
C203 H189 0.960 1_455 S
C203 H190 0.960 . S
C203 C202 1.524 . S
C204 C201 1.403 . S
C204 C205 1.392 1_655 S
C204 C208 1.495 . S
C205 C204 1.392 1_455 S
C205 C206 1.385 . S
C205 C207 1.478 . S
C206 H200 0.930 . S
C206 C202 1.400 . S
C206 C205 1.385 . S
C207 C205 1.478 . S
C207 C209 1.381 1_455 S
C207 C213 1.383 . S
C208 C204 1.495 . S
C208 H214 0.959 . S
C208 H215 0.961 1_655 S
C208 H216 0.960 . S
C209 C207 1.381 1_655 S
C209 C210 1.394 . S
C209 H217 0.930 . S
C210 C209 1.394 . S
C210 C211 1.383 1_655 S
C210 H218 0.929 . S
C211 C210 1.383 1_455 S
C211 C212 1.377 . S
C212 H196 0.930 . S
C212 C211 1.377 . S
C212 C213 1.379 . S
C213 H197 0.931 . S
C213 C207 1.383 . S
C213 C212 1.379 . S
H214 C208 0.959 . S
H215 C208 0.961 1_455 S
H216 C208 0.960 . S
H217 C209 0.930 . S
H218 C210 0.929 . S
H219 C227 0.929 1_565 S
H220 C229 0.930 1_565 S
H221 C231 0.930 . S
H222 C234 0.929 . S
H223 C237 0.930 . S
H224 C239 0.960 . S
H225 C239 0.960 . S
H226 C239 0.960 1_545 S
C227 H219 0.929 1_545 S
C227 C228 1.377 . S
C227 C229 1.384 . S
C228 C227 1.377 . S
C228 C234 1.390 . S
C229 H220 0.930 1_545 S
C229 C227 1.384 . S
C229 C230 1.372 . S
C230 C229 1.372 . S
C230 C231 1.400 . S
C230 C235 1.490 . S
C231 H221 0.930 . S
C231 C230 1.400 . S
C231 C234 1.386 . S
H232 C248 0.930 . S
H233 C249 0.931 . S
C234 H222 0.929 . S
C234 C228 1.390 . S
C234 C231 1.386 . S
C235 C230 1.490 . S
C235 C237 1.395 . S
C235 C238 1.403 . S
H236 C242 0.930 . S
C237 H223 0.930 . S
C237 C235 1.395 . S
C237 C240 1.403 . S
C238 C235 1.403 . S
C238 C239 1.524 1_545 S
C238 C242 1.400 . S
C239 H224 0.960 . S
C239 H225 0.960 . S
C239 H226 0.960 1_565 S
C239 C238 1.524 1_565 S
C240 C237 1.403 . S
C240 C241 1.392 . S
C240 C244 1.495 . S
C241 C240 1.392 . S
C241 C242 1.385 . S
C241 C243 1.478 . S
C242 H236 0.930 . S
C242 C238 1.400 . S
C242 C241 1.385 . S
C243 C241 1.478 . S
C243 C245 1.381 . S
C243 C249 1.383 . S
C244 C240 1.495 . S
C244 H250 0.959 . S
C244 H251 0.961 . S
C244 H252 0.960 . S
C245 C243 1.381 . S
C245 C246 1.399 1_545 S
C245 H253 0.930 1_545 S
C246 C245 1.399 1_565 S
C246 C247 1.373 1_565 S
C246 H254 0.935 . S
C247 C246 1.373 1_545 S
C247 C248 1.377 . S
C248 H232 0.930 . S
C248 C247 1.377 . S
C248 C249 1.379 . S
C249 H233 0.931 . S
C249 C243 1.383 . S
C249 C248 1.379 . S
H250 C244 0.959 . S
H251 C244 0.961 . S
H252 C244 0.960 . S
H253 C245 0.930 1_565 S
H254 C246 0.935 . S
H255 C263 0.929 . S
H256 C265 0.930 . S
H257 C267 0.930 . S
H258 C270 0.929 . S
H259 C273 0.930 . S
H260 C275 0.960 . S
H261 C275 0.960 . S
H262 C275 0.960 . S
C263 H255 0.929 . S
C263 C264 1.377 . S
C263 C265 1.384 . S
C264 C263 1.377 . S
C264 C270 1.390 . S
C265 H256 0.930 . S
C265 C263 1.384 . S
C265 C266 1.372 . S
C266 C265 1.372 . S
C266 C267 1.400 . S
C266 C271 1.490 . S
C267 H257 0.930 . S
C267 C266 1.400 . S
C267 C270 1.386 . S
H268 C284 0.930 . S
H269 C285 0.931 . S
C270 H258 0.929 . S
C270 C264 1.390 . S
C270 C267 1.386 . S
C271 C266 1.490 . S
C271 C273 1.395 . S
C271 C274 1.403 . S
H272 C278 0.930 . S
C273 H259 0.930 . S
C273 C271 1.395 . S
C273 C276 1.403 . S
C274 C271 1.403 . S
C274 C275 1.524 . S
C274 C278 1.400 . S
C275 H260 0.960 . S
C275 H261 0.960 . S
C275 H262 0.960 . S
C275 C274 1.524 . S
C276 C273 1.403 . S
C276 C277 1.392 . S
C276 C280 1.495 . S
C277 C276 1.392 . S
C277 C278 1.385 . S
C277 C279 1.478 . S
C278 H272 0.930 . S
C278 C274 1.400 . S
C278 C277 1.385 . S
C279 C277 1.478 . S
C279 C281 1.381 . S
C279 C285 1.383 . S
C280 C276 1.495 . S
C280 H286 0.959 . S
C280 H287 0.961 . S
C280 H288 0.960 . S
C281 C279 1.381 . S
C281 C282 1.394 . S
C281 H289 0.930 . S
C282 C281 1.394 . S
C282 C283 1.383 . S
C282 H290 0.929 . S
C283 C282 1.383 . S
C283 C284 1.377 . S
C284 H268 0.930 . S
C284 C283 1.377 . S
C284 C285 1.379 . S
C285 H269 0.931 . S
C285 C279 1.383 . S
C285 C284 1.379 . S
H286 C280 0.959 . S
H287 C280 0.961 . S
H288 C280 0.960 . S
H289 C281 0.930 . S
H290 C282 0.929 . S
H291 C299 0.929 . S
H292 C301 0.930 1_655 S
H293 C303 0.930 . S
H294 C306 0.929 . S
H295 C309 0.930 . S
H296 C311 0.960 . S
H297 C311 0.960 . S
H298 C311 0.960 . S
C299 H291 0.929 . S
C299 C300 1.377 . S
C299 C301 1.384 . S
C300 C299 1.377 . S
C300 C306 1.390 . S
C301 H292 0.930 1_455 S
C301 C299 1.384 . S
C301 C302 1.372 . S
C302 C301 1.372 . S
C302 C303 1.400 . S
C302 C307 1.490 . S
C303 H293 0.930 . S
C303 C302 1.400 . S
C303 C306 1.386 . S
H304 C320 0.930 . S
H305 C321 0.931 . S
C306 H294 0.929 . S
C306 C300 1.390 . S
C306 C303 1.386 . S
C307 C302 1.490 . S
C307 C309 1.395 1_455 S
C307 C310 1.403 . S
H308 C314 0.930 . S
C309 H295 0.930 . S
C309 C307 1.395 1_655 S
C309 C312 1.403 . S
C310 C307 1.403 . S
C310 C311 1.524 . S
C310 C314 1.400 . S
C311 H296 0.960 . S
C311 H297 0.960 . S
C311 H298 0.960 . S
C311 C310 1.524 . S
C312 C309 1.403 . S
C312 C313 1.392 1_655 S
C312 C316 1.495 . S
C313 C312 1.392 1_455 S
C313 C314 1.385 . S
C313 C315 1.478 . S
C314 H308 0.930 . S
C314 C310 1.400 . S
C314 C313 1.385 . S
C315 C313 1.478 . S
C315 C317 1.381 1_455 S
C315 C321 1.383 . S
C316 C312 1.495 . S
C316 H322 0.959 . S
C316 H323 0.961 . S
C316 H324 0.960 . S
C317 C315 1.381 1_655 S
C317 C318 1.394 . S
C317 H325 0.930 . S
C318 C317 1.394 . S
C318 C319 1.383 1_655 S
C318 H326 0.929 . S
C319 C318 1.383 1_455 S
C319 C320 1.377 . S
C320 H304 0.930 . S
C320 C319 1.377 . S
C320 C321 1.379 . S
C321 H305 0.931 . S
C321 C315 1.383 . S
C321 C320 1.379 . S
H322 C316 0.959 . S
H323 C316 0.961 . S
H324 C316 0.960 . S
H325 C317 0.930 . S
H326 C318 0.929 . S
H327 C335 0.929 . S
H328 C337 0.930 . S
H329 C339 0.930 1_565 S
H330 C342 0.929 . S
H331 C345 0.930 . S
H332 C347 0.960 . S
H333 C347 0.960 . S
H334 C347 0.960 . S
C335 H327 0.929 . S
C335 C336 1.377 . S
C335 C337 1.384 . S
C336 C335 1.377 . S
C336 C342 1.390 . S
C337 H328 0.930 . S
C337 C335 1.384 . S
C337 C338 1.372 . S
C338 C337 1.372 . S
C338 C339 1.400 . S
C338 C343 1.490 . S
C339 H329 0.930 1_545 S
C339 C338 1.400 . S
C339 C342 1.386 . S
H340 C356 0.930 . S
H341 C357 0.931 . S
C342 H330 0.929 . S
C342 C336 1.390 . S
C342 C339 1.386 . S
C343 C338 1.490 . S
C343 C345 1.395 . S
C343 C346 1.403 . S
H344 C350 0.930 . S
C345 H331 0.930 . S
C345 C343 1.395 . S
C345 C348 1.403 . S
C346 C343 1.403 . S
C346 C347 1.524 . S
C346 C350 1.400 . S
C347 H332 0.960 . S
C347 H333 0.960 . S
C347 H334 0.960 . S
C347 C346 1.524 . S
C348 C345 1.403 . S
C348 C349 1.392 . S
C348 C352 1.495 . S
C349 C348 1.392 . S
C349 C350 1.385 . S
C349 C351 1.478 . S
C350 H344 0.930 . S
C350 C346 1.400 . S
C350 C349 1.385 . S
C351 C349 1.478 . S
C351 C353 1.381 . S
C351 C357 1.383 1_545 S
C352 C348 1.495 . S
C352 H358 0.959 . S
C352 H359 0.961 . S
C352 H360 0.960 . S
C353 C351 1.381 . S
C353 C354 1.394 . S
C353 H361 0.930 . S
C354 C353 1.394 . S
C354 C355 1.383 . S
C354 H362 0.929 . S
C355 C354 1.383 . S
C355 C356 1.377 1_545 S
C356 H340 0.930 . S
C356 C355 1.377 1_565 S
C356 C357 1.379 . S
C357 H341 0.931 . S
C357 C351 1.383 1_565 S
C357 C356 1.379 . S
H358 C352 0.959 . S
H359 C352 0.961 . S
H360 C352 0.960 . S
H361 C353 0.930 . S
H362 C354 0.929 . S
H363 C371 0.929 . S
H364 C373 0.930 . S
H365 C375 0.930 . S
H366 C378 0.929 . S
H367 C381 0.930 . S
H368 C383 0.960 . S
H369 C383 0.960 . S
H370 C383 0.960 . S
C371 H363 0.929 . S
C371 C372 1.377 . S
C371 C373 1.384 . S
C372 C371 1.377 . S
C372 C378 1.390 . S
C373 H364 0.930 . S
C373 C371 1.384 . S
C373 C374 1.372 . S
C374 C373 1.372 . S
C374 C375 1.400 . S
C374 C379 1.490 . S
C375 H365 0.930 . S
C375 C374 1.400 . S
C375 C378 1.386 . S
H376 C392 0.930 . S
H377 C393 0.931 . S
C378 H366 0.929 . S
C378 C372 1.390 . S
C378 C375 1.386 . S
C379 C374 1.490 . S
C379 C381 1.395 . S
C379 C382 1.403 . S
H380 C386 0.930 . S
C381 H367 0.930 . S
C381 C379 1.395 . S
C381 C384 1.403 . S
C382 C379 1.403 . S
C382 C383 1.524 . S
C382 C386 1.400 . S
C383 H368 0.960 . S
C383 H369 0.960 . S
C383 H370 0.960 . S
C383 C382 1.524 . S
C384 C381 1.403 . S
C384 C385 1.392 . S
C384 C388 1.495 . S
C385 C384 1.392 . S
C385 C386 1.385 . S
C385 C387 1.478 . S
C386 H380 0.930 . S
C386 C382 1.400 . S
C386 C385 1.385 . S
C387 C385 1.478 . S
C387 C389 1.381 . S
C387 C393 1.383 . S
C388 C384 1.495 . S
C388 H394 0.959 . S
C388 H395 0.961 . S
C388 H396 0.960 . S
C389 C387 1.381 . S
C389 C390 1.394 . S
C389 H397 0.930 . S
C390 C389 1.394 . S
C390 C391 1.383 . S
C390 H398 0.929 . S
C391 C390 1.383 . S
C391 C392 1.377 . S
C392 H376 0.930 . S
C392 C391 1.377 . S
C392 C393 1.379 . S
C393 H377 0.931 . S
C393 C387 1.383 . S
C393 C392 1.379 . S
H394 C388 0.959 . S
H395 C388 0.961 . S
H396 C388 0.960 . S
H397 C389 0.930 . S
H398 C390 0.929 . S
H399 C407 0.929 . S
H400 C409 0.930 . S
H401 C411 0.930 . S
H402 C414 0.929 . S
H403 C417 0.930 . S
H404 C419 0.960 . S
H405 C419 0.960 . S
H406 C419 0.960 . S
C407 H399 0.929 . S
C407 C408 1.377 . S
C407 C409 1.384 . S
C408 C407 1.377 . S
C408 C414 1.390 1_545 S
C409 H400 0.930 . S
C409 C407 1.384 . S
C409 C410 1.372 . S
C410 C409 1.372 . S
C410 C411 1.400 1_545 S
C410 C415 1.490 . S
C411 H401 0.930 . S
C411 C410 1.400 1_565 S
C411 C414 1.386 . S
H412 C428 0.930 . S
H413 C429 0.931 . S
C414 H402 0.929 . S
C414 C408 1.390 1_565 S
C414 C411 1.386 . S
C415 C410 1.490 . S
C415 C417 1.395 . S
C415 C418 1.403 . S
H416 C422 0.930 . S
C417 H403 0.930 . S
C417 C415 1.395 . S
C417 C420 1.403 . S
C418 C415 1.403 . S
C418 C419 1.524 . S
C418 C422 1.400 . S
C419 H404 0.960 . S
C419 H405 0.960 . S
C419 H406 0.960 . S
C419 C418 1.524 . S
C420 C417 1.403 . S
C420 C421 1.392 . S
C420 C424 1.495 . S
C421 C420 1.392 . S
C421 C422 1.385 . S
C421 C423 1.478 . S
C422 H416 0.930 . S
C422 C418 1.400 . S
C422 C421 1.385 . S
C423 C421 1.478 . S
C423 C425 1.381 . S
C423 C429 1.383 1_545 S
C424 C420 1.495 . S
C424 H430 0.959 . S
C424 H431 0.961 . S
C424 H432 0.960 . S
C425 C423 1.381 . S
C425 C426 1.394 . S
C425 H433 0.930 . S
C426 C425 1.394 . S
C426 C427 1.383 . S
C426 H434 0.929 . S
C427 C426 1.383 . S
C427 C428 1.377 1_545 S
C428 H412 0.930 . S
C428 C427 1.377 1_565 S
C428 C429 1.379 . S
C429 H413 0.931 . S
C429 C423 1.383 1_565 S
C429 C428 1.379 . S
H430 C424 0.959 . S
H431 C424 0.961 . S
H432 C424 0.960 . S
H433 C425 0.930 . S
H434 C426 0.929 . S
H435 C443 0.929 . S
H436 C445 0.930 . S
H437 C447 0.930 . S
H438 C450 0.929 . S
H439 C453 0.930 . S
H440 C455 0.960 . S
H441 C455 0.960 . S
H442 C455 1.008 . S
C443 H435 0.929 . S
C443 C444 1.377 1_556 S
C443 C445 1.384 . S
C444 C443 1.377 1_554 S
C444 C450 1.390 . S
C445 H436 0.930 . S
C445 C443 1.384 . S
C445 C446 1.372 . S
C446 C445 1.372 . S
C446 C447 1.400 1_556 S
C446 C451 1.490 . S
C447 H437 0.930 . S
C447 C446 1.400 1_554 S
C447 C450 1.386 . S
H448 C464 0.930 . S
H449 C465 0.931 . S
C450 H438 0.929 . S
C450 C444 1.390 . S
C450 C447 1.386 . S
C451 C446 1.490 . S
C451 C453 1.395 . S
C451 C454 1.403 . S
H452 C458 0.930 . S
C453 H439 0.930 . S
C453 C451 1.395 . S
C453 C456 1.403 . S
C454 C451 1.403 . S
C454 C455 1.524 . S
C454 C458 1.400 . S
C455 H440 0.960 . S
C455 H441 0.960 . S
C455 H442 1.008 . S
C455 C454 1.524 . S
C456 C453 1.403 . S
C456 C457 1.392 . S
C456 C460 1.495 . S
C457 C456 1.392 . S
C457 C458 1.385 . S
C457 C459 1.478 . S
C458 H452 0.930 . S
C458 C454 1.400 . S
C458 C457 1.385 . S
C459 C457 1.478 . S
C459 C461 1.381 . S
C459 C465 1.383 . S
C460 C456 1.495 . S
C460 H466 0.959 . S
C460 H467 0.961 . S
C460 H468 0.960 . S
C461 C459 1.381 . S
C461 C462 1.394 . S
C461 H469 0.930 . S
C462 C461 1.394 . S
C462 C463 1.383 . S
C462 H470 0.929 . S
C463 C462 1.383 . S
C463 C464 1.377 . S
C464 H448 0.930 . S
C464 C463 1.377 . S
C464 C465 1.379 . S
C465 H449 0.931 . S
C465 C459 1.383 . S
C465 C464 1.379 . S
H466 C460 0.959 . S
H467 C460 0.961 . S
H468 C460 0.960 . S
H469 C461 0.930 . S
H470 C462 0.929 . S
H471 C479 0.929 . S
H472 C481 0.930 . S
H473 C483 0.930 . S
H474 C486 0.929 . S
H475 C489 0.930 . S
H476 C491 0.960 . S
H477 C491 0.960 . S
H478 C491 0.960 . S
C479 H471 0.929 . S
C479 C480 1.377 . S
C479 C481 1.384 . S
C480 C479 1.377 . S
C480 C486 1.390 1_455 S
C481 H472 0.930 . S
C481 C479 1.384 . S
C481 C482 1.372 . S
C482 C481 1.372 . S
C482 C483 1.400 1_455 S
C482 C487 1.490 . S
C483 H473 0.930 . S
C483 C482 1.400 1_655 S
C483 C486 1.386 . S
H484 C500 0.928 . S
H485 C501 0.931 1_655 S
C486 H474 0.929 . S
C486 C480 1.390 1_655 S
C486 C483 1.386 . S
C487 C482 1.490 . S
C487 C489 1.395 . S
C487 C490 1.403 1_455 S
H488 C494 0.930 . S
C489 H475 0.930 . S
C489 C487 1.395 . S
C489 C492 1.403 . S
C490 C487 1.403 1_655 S
C490 C491 1.524 . S
C490 C494 1.400 . S
C491 H476 0.960 . S
C491 H477 0.960 . S
C491 H478 0.960 . S
C491 C490 1.524 . S
C492 C489 1.403 . S
C492 C493 1.392 . S
C492 C496 1.495 . S
C493 C492 1.392 . S
C493 C494 1.385 1_455 S
C493 C495 1.478 . S
C494 H488 0.930 . S
C494 C490 1.400 . S
C494 C493 1.385 1_655 S
C495 C493 1.478 . S
C495 C497 1.381 . S
C495 C501 1.383 . S
C496 C492 1.495 . S
C496 H502 0.959 . S
C496 H503 0.961 . S
C496 H504 0.960 . S
C497 C495 1.381 . S
C497 C498 1.394 . S
C497 H505 0.930 . S
C498 C497 1.394 . S
C498 C499 1.383 . S
C498 H506 0.929 . S
C499 C498 1.383 . S
C499 C500 1.369 1_455 S
C500 H484 0.928 . S
C500 C499 1.369 1_655 S
C500 C501 1.390 1_655 S
C501 H485 0.931 1_455 S
C501 C495 1.383 . S
C501 C500 1.390 1_455 S
H502 C496 0.959 . S
H503 C496 0.961 . S
H504 C496 0.960 . S
H505 C497 0.930 . S
H506 C498 0.929 . S
H507 C515 0.929 . S
H508 C517 0.930 . S
H509 C519 0.930 . S
H510 C522 0.929 . S
H511 C525 0.930 . S
H512 C527 0.960 . S
H513 C527 0.960 1_545 S
H514 C527 0.960 . S
C515 H507 0.929 . S
C515 C516 1.377 1_545 S
C515 C517 1.384 . S
C516 C515 1.377 1_565 S
C516 C522 1.390 . S
C517 H508 0.930 . S
C517 C515 1.384 . S
C517 C518 1.372 . S
C518 C517 1.372 . S
C518 C519 1.400 1_545 S
C518 C523 1.490 . S
C519 H509 0.930 . S
C519 C518 1.400 1_565 S
C519 C522 1.386 . S
H520 C536 0.930 . S
H521 C537 0.931 . S
C522 H510 0.929 . S
C522 C516 1.390 . S
C522 C519 1.386 . S
C523 C518 1.490 . S
C523 C525 1.395 . S
C523 C526 1.403 1_545 S
H524 C530 0.933 . S
C525 H511 0.930 . S
C525 C523 1.395 . S
C525 C528 1.403 . S
C526 C523 1.403 1_565 S
C526 C527 1.524 . S
C526 C530 1.393 . S
C527 H512 0.960 . S
C527 H513 0.960 1_565 S
C527 H514 0.960 . S
C527 C526 1.524 . S
C528 C525 1.403 . S
C528 C529 1.392 . S
C528 C532 1.495 . S
C529 C528 1.392 . S
C529 C530 1.389 1_545 S
C529 C531 1.478 . S
C530 H524 0.933 . S
C530 C526 1.393 . S
C530 C529 1.389 1_565 S
C531 C529 1.478 . S
C531 C533 1.381 . S
C531 C537 1.383 1_545 S
C532 C528 1.495 . S
C532 H538 0.959 . S
C532 H539 0.961 . S
C532 H540 0.960 . S
C533 C531 1.381 . S
C533 C534 1.394 . S
C533 H541 0.930 . S
C534 C533 1.394 . S
C534 C535 1.383 . S
C534 H542 0.929 . S
C535 C534 1.383 . S
C535 C536 1.377 1_545 S
C536 H520 0.930 . S
C536 C535 1.377 1_565 S
C536 C537 1.379 . S
C537 H521 0.931 . S
C537 C531 1.383 1_565 S
C537 C536 1.379 . S
H538 C532 0.959 . S
H539 C532 0.961 . S
H540 C532 0.960 . S
H541 C533 0.930 . S
H542 C534 0.929 . S
H543 C551 0.929 . S
H544 C553 0.930 . S
H545 C555 0.928 1_554 S
H546 C558 0.929 . S
H547 C561 0.930 . S
H548 C563 0.960 . S
H549 C563 0.960 . S
H550 C563 0.960 . S
C551 H543 0.929 . S
C551 C552 1.377 1_556 S
C551 C553 1.384 . S
C552 C551 1.377 1_554 S
C552 C558 1.390 . S
C553 H544 0.930 . S
C553 C551 1.384 . S
C553 C554 1.372 . S
C554 C553 1.372 . S
C554 C555 1.415 . S
C554 C559 1.490 . S
C555 H545 0.928 1_556 S
C555 C554 1.415 . S
C555 C558 1.372 1_556 S
H556 C572 0.930 . S
H557 C573 0.931 . S
C558 H546 0.929 . S
C558 C552 1.390 . S
C558 C555 1.372 1_554 S
C559 C554 1.490 . S
C559 C561 1.395 . S
C559 C562 1.403 . S
H560 C566 0.930 . S
C561 H547 0.930 . S
C561 C559 1.395 . S
C561 C564 1.403 . S
C562 C559 1.403 . S
C562 C563 1.524 . S
C562 C566 1.400 . S
C563 H548 0.960 . S
C563 H549 0.960 . S
C563 H550 0.960 . S
C563 C562 1.524 . S
C564 C561 1.403 . S
C564 C565 1.392 . S
C564 C568 1.495 . S
C565 C564 1.392 . S
C565 C566 1.385 . S
C565 C567 1.478 . S
C566 H560 0.930 . S
C566 C562 1.400 . S
C566 C565 1.385 . S
C567 C565 1.478 . S
C567 C569 1.381 . S
C567 C573 1.383 . S
C568 C564 1.495 . S
C568 H574 0.959 . S
C568 H575 0.961 . S
C568 H576 0.960 . S
C569 C567 1.381 . S
C569 C570 1.394 . S
C569 H577 0.930 . S
C570 C569 1.394 . S
C570 C571 1.383 . S
C570 H578 0.929 . S
C571 C570 1.383 . S
C571 C572 1.377 . S
C572 H556 0.930 . S
C572 C571 1.377 . S
C572 C573 1.379 . S
C573 H557 0.931 . S
C573 C567 1.383 . S
C573 C572 1.379 . S
H574 C568 0.959 . S
H575 C568 0.961 . S
H576 C568 0.960 . S
H577 C569 0.930 . S
H578 C570 0.929 . S
H579 C587 0.929 1_655 S
H580 C589 0.930 1_655 S
H581 C591 0.930 . S
H582 C594 0.929 . S
H583 C597 0.930 . S
H584 C599 0.960 . S
H585 C599 0.960 . S
H586 C599 0.960 . S
C587 H579 0.929 1_455 S
C587 C588 1.377 . S
C587 C589 1.384 . S
C588 C587 1.377 . S
C588 C594 1.390 . S
C589 H580 0.930 1_455 S
C589 C587 1.384 . S
C589 C590 1.372 . S
C590 C589 1.372 . S
C590 C591 1.400 . S
C590 C595 1.490 . S
C591 H581 0.930 . S
C591 C590 1.400 . S
C591 C594 1.386 . S
H592 C608 0.930 . S
H593 C609 0.931 . S
C594 H582 0.929 . S
C594 C588 1.390 . S
C594 C591 1.386 . S
C595 C590 1.490 . S
C595 C597 1.395 . S
C595 C598 1.403 . S
H596 C602 0.930 . S
C597 H583 0.930 . S
C597 C595 1.395 . S
C597 C600 1.403 . S
C598 C595 1.403 . S
C598 C599 1.524 . S
C598 C602 1.400 . S
C599 H584 0.960 . S
C599 H585 0.960 . S
C599 H586 0.960 . S
C599 C598 1.524 . S
C600 C597 1.403 . S
C600 C601 1.392 . S
C600 C604 1.495 1_455 S
C601 C600 1.392 . S
C601 C602 1.385 . S
C601 C603 1.478 . S
C602 H596 0.930 . S
C602 C598 1.400 . S
C602 C601 1.385 . S
C603 C601 1.478 . S
C603 C605 1.381 1_455 S
C603 C609 1.383 . S
C604 C600 1.495 1_655 S
C604 H610 0.959 . S
C604 H611 0.961 1_655 S
C604 H612 0.960 . S
C605 C603 1.381 1_655 S
C605 C606 1.394 . S
C605 H613 0.930 . S
C606 C605 1.394 . S
C606 C607 1.383 1_655 S
C606 H614 0.929 . S
C607 C606 1.383 1_455 S
C607 C608 1.377 . S
C608 H592 0.930 . S
C608 C607 1.377 . S
C608 C609 1.379 . S
C609 H593 0.931 . S
C609 C603 1.383 . S
C609 C608 1.379 . S
H610 C604 0.959 . S
H611 C604 0.961 1_455 S
H612 C604 0.960 . S
H613 C605 0.930 . S
H614 C606 0.929 . S
C211 C60 1.383 . S
C192 C10 1.385 . S
C228 C21 1.423 . S
C247 C108 1.443 . S
C264 C31 1.376 . S
C283 C180 1.423 . S
C300 C0 1.364 . S
C319 C84 1.406 . S
C355 C132 1.430 . S
C336 C18 1.383 . S
C372 C34 1.387 . S
C391 C156 1.403 . S
C427 C117 1.364 . S
C408 C36 1.364 . S
C444 C8 1.387 . S
C463 C171 1.413 . S
C499 C75 1.391 . S
C480 C23 1.390 . S
C535 C123 1.354 . S
C516 C26 1.307 1_565 S
C571 C165 1.431 . S
C552 C5 1.372 . S
C588 C13 1.365 . S
C607 C69 1.403 . S
