# Generated by pormake.
# Topology dag, (6,3)-cn, num edge types: 1
# Building blocks:
#     Node 0, Type 0, BuildingBlock: IZENUY_clean_sbu_0, # of connection points: 6
#     Node 1, Type 0, BuildingBlock: IZENUY_clean_sbu_0, # of connection points: 6
#     Node 2, Type 0, BuildingBlock: IZENUY_clean_sbu_0, # of connection points: 6
#     Node 3, Type 0, BuildingBlock: IZENUY_clean_sbu_0, # of connection points: 6
#     Node 4, Type 1, BuildingBlock: CUQRIR_clean_linker_1, # of connection points: 3
#     Node 5, Type 1, BuildingBlock: CUQRIR_clean_linker_1, # of connection points: 3
#     Node 6, Type 1, BuildingBlock: CUQRIR_clean_linker_1, # of connection points: 3
#     Node 7, Type 1, BuildingBlock: CUQRIR_clean_linker_1, # of connection points: 3
#     Node 8, Type 1, BuildingBlock: CUQRIR_clean_linker_1, # of connection points: 3
#     Node 9, Type 1, BuildingBlock: CUQRIR_clean_linker_1, # of connection points: 3
#     Node 10, Type 1, BuildingBlock: CUQRIR_clean_linker_1, # of connection points: 3
#     Node 11, Type 1, BuildingBlock: CUQRIR_clean_linker_1, # of connection points: 3
#     Edge 12, Type (0, 1), BuildingBlock: AJUNOK_clean_linker_0, # of connection points: 2
#     Edge 13, Type (0, 1), BuildingBlock: AJUNOK_clean_linker_0, # of connection points: 2
#     Edge 14, Type (0, 1), BuildingBlock: AJUNOK_clean_linker_0, # of connection points: 2
#     Edge 15, Type (0, 1), BuildingBlock: AJUNOK_clean_linker_0, # of connection points: 2
#     Edge 16, Type (0, 1), BuildingBlock: AJUNOK_clean_linker_0, # of connection points: 2
#     Edge 17, Type (0, 1), BuildingBlock: AJUNOK_clean_linker_0, # of connection points: 2
#     Edge 18, Type (0, 1), BuildingBlock: AJUNOK_clean_linker_0, # of connection points: 2
#     Edge 19, Type (0, 1), BuildingBlock: AJUNOK_clean_linker_0, # of connection points: 2
#     Edge 20, Type (0, 1), BuildingBlock: AJUNOK_clean_linker_0, # of connection points: 2
#     Edge 21, Type (0, 1), BuildingBlock: AJUNOK_clean_linker_0, # of connection points: 2
#     Edge 22, Type (0, 1), BuildingBlock: AJUNOK_clean_linker_0, # of connection points: 2
#     Edge 23, Type (0, 1), BuildingBlock: AJUNOK_clean_linker_0, # of connection points: 2
#     Edge 24, Type (0, 1), BuildingBlock: AJUNOK_clean_linker_0, # of connection points: 2
#     Edge 25, Type (0, 1), BuildingBlock: AJUNOK_clean_linker_0, # of connection points: 2
#     Edge 26, Type (0, 1), BuildingBlock: AJUNOK_clean_linker_0, # of connection points: 2
#     Edge 27, Type (0, 1), BuildingBlock: AJUNOK_clean_linker_0, # of connection points: 2
#     Edge 28, Type (0, 1), BuildingBlock: AJUNOK_clean_linker_0, # of connection points: 2
#     Edge 29, Type (0, 1), BuildingBlock: AJUNOK_clean_linker_0, # of connection points: 2
#     Edge 30, Type (0, 1), BuildingBlock: AJUNOK_clean_linker_0, # of connection points: 2
#     Edge 31, Type (0, 1), BuildingBlock: AJUNOK_clean_linker_0, # of connection points: 2
#     Edge 32, Type (0, 1), BuildingBlock: AJUNOK_clean_linker_0, # of connection points: 2
#     Edge 33, Type (0, 1), BuildingBlock: AJUNOK_clean_linker_0, # of connection points: 2
#     Edge 34, Type (0, 1), BuildingBlock: AJUNOK_clean_linker_0, # of connection points: 2
#     Edge 35, Type (0, 1), BuildingBlock: AJUNOK_clean_linker_0, # of connection points: 2
# Relax obj value: 0.079
# Max RMSD: 0.083
# Mean RMSD: 0.075
data_MOF--net-dag--node1-IZENUY_clean_sbu_0--node2-CUQRIR_clean_linker_1--edge1-AJUNOK_clean_linker_0
_symmetry_space_group_name_H-M    P1
_symmetry_Int_Tables_number       1
_symmetry_cell_setting            triclinic
loop_
_symmetry_equiv_pos_as_xyz
'x, y, z'
_cell_length_a     26.322692
_cell_length_b     26.552452
_cell_length_c     24.122786
_cell_angle_alpha  91.18397
_cell_angle_beta   90.006858
_cell_angle_gamma 90.129128
loop_
_atom_site_label
_atom_site_type_symbol
_atom_site_fract_x
_atom_site_fract_y
_atom_site_fract_z
_atom_type_partial_charge
Fe0 Fe 0.19448 0.90485 0.03454 0.0
Fe1 Fe 0.08208 0.93265 0.02671 0.0
O2 O 0.12996 0.88628 0.0313 0.0
Fe3 Fe 0.11295 0.82176 0.03211 0.0
O4 O 0.1432 0.81299 0.09857 0.0
O5 O 0.21425 0.85273 0.07878 0.0
O6 O 0.18377 0.94154 0.09775 0.0
C7 C 0.15243 0.97723 0.10093 0.0
C8 C 0.20115 0.823 0.96443 0.0
O9 O 0.1173 0.98125 0.06565 0.0
C10 C 0.0461 0.85555 0.95533 0.0
O11 O 0.18615 0.96019 0.99026 0.0
O12 O 0.10718 0.95417 0.96134 0.0
O13 O 0.16983 0.79979 0.99462 0.0
O14 O 0.20937 0.86943 0.97179 0.0
C15 C 0.03838 0.86967 0.10068 0.0
O16 O 0.03759 0.89305 0.98691 0.0
O17 O 0.08188 0.82566 0.96507 0.0
C18 C 0.15187 0.97046 0.95517 0.0
O19 O 0.05443 0.9136 0.09173 0.0
O20 O 0.05303 0.83267 0.07044 0.0
C21 C 0.18905 0.82318 0.10891 0.0
Fe22 Fe 0.6955 0.61184 0.51238 0.0
Fe23 Fe 0.61297 0.69409 0.52322 0.0
O24 O 0.63073 0.62941 0.5197 0.0
Fe25 Fe 0.58331 0.58225 0.52359 0.0
O26 O 0.61161 0.55657 0.58543 0.0
O27 O 0.69006 0.55475 0.55403 0.0
O28 O 0.7129 0.64576 0.57586 0.0
C29 C 0.70507 0.6921 0.58441 0.0
C30 C 0.6505 0.54222 0.44287 0.0
O31 O 0.67142 0.7154 0.55778 0.0
C32 C 0.53663 0.64935 0.45621 0.0
O33 O 0.71225 0.66556 0.46913 0.0
O34 O 0.64015 0.70583 0.45565 0.0
O35 O 0.61594 0.53664 0.47849 0.0
O36 O 0.68334 0.57656 0.44837 0.0
C37 C 0.55047 0.65549 0.60231 0.0
O38 O 0.5513 0.68457 0.48857 0.0
O39 O 0.55238 0.60496 0.46177 0.0
C40 C 0.68536 0.69593 0.44191 0.0
O41 O 0.58451 0.68734 0.59144 0.0
O42 O 0.54143 0.61876 0.5696 0.0
C43 C 0.6568 0.54114 0.58864 0.0
Fe44 Fe 0.89929 0.19262 0.02099 0.0
Fe45 Fe 0.92961 0.08152 0.02092 0.0
O46 O 0.88192 0.12822 0.01694 0.0
Fe47 Fe 0.81732 0.1106 0.00917 0.0
O48 O 0.81123 0.14502 0.94509 0.0
O49 O 0.84801 0.21439 0.97607 0.0
O50 O 0.93891 0.18644 0.95945 0.0
C51 C 0.9758 0.15628 0.95623 0.0
C52 C 0.8142 0.19309 0.08591 0.0
O53 O 0.97904 0.11942 0.98833 0.0
C54 C 0.84817 0.03857 0.08057 0.0
O55 O 0.95353 0.18299 0.06734 0.0
O56 O 0.94841 0.10356 0.08994 0.0
O57 O 0.79261 0.16397 0.05081 0.0
O58 O 0.86105 0.20261 0.08252 0.0
C59 C 0.87005 0.04045 0.93905 0.0
O60 O 0.88926 0.0347 0.05385 0.0
O61 O 0.81818 0.07466 0.07269 0.0
C62 C 0.96371 0.14792 0.10032 0.0
O63 O 0.91368 0.05659 0.95238 0.0
O64 O 0.83102 0.05421 0.96621 0.0
C65 C 0.82106 0.19122 0.94047 0.0
Fe66 Fe 0.43008 0.43403 0.52537 0.0
Fe67 Fe 0.31795 0.4049 0.53368 0.0
O68 O 0.38262 0.38709 0.52952 0.0
Fe69 Fe 0.40021 0.32274 0.52955 0.0
O70 O 0.45993 0.33389 0.56732 0.0
O71 O 0.45787 0.41457 0.59046 0.0
O72 O 0.39489 0.48193 0.56458 0.0
C73 C 0.3593 0.47854 0.59933 0.0
C74 C 0.46834 0.35706 0.45444 0.0
O75 O 0.32875 0.44185 0.59723 0.0
C76 C 0.31108 0.32325 0.46316 0.0
O77 O 0.40435 0.45597 0.46011 0.0
O78 O 0.32553 0.46061 0.4904 0.0
O79 O 0.43177 0.32732 0.46252 0.0
O80 O 0.47491 0.39536 0.48547 0.0
C81 C 0.32416 0.32225 0.60664 0.0
O82 O 0.30267 0.36964 0.47067 0.0
O83 O 0.34338 0.30045 0.4923 0.0
C84 C 0.35929 0.47175 0.45521 0.0
O85 O 0.29887 0.3521 0.5771 0.0
O86 O 0.37027 0.31334 0.59633 0.0
C87 C 0.47356 0.3704 0.59858 0.0
C88 C 0.13635 0.2098 0.29948 0.0
N89 N 0.12311 0.17328 0.26221 0.0
N90 N 0.18453 0.20265 0.31749 0.0
C91 C 0.10137 0.25045 0.3208 0.0
C92 C 0.19995 0.16031 0.29023 0.0
N93 N 0.16257 0.14243 0.25683 0.0
C94 C 0.2529 0.13922 0.2926 0.0
H95 H 0.10593 0.28451 0.29544 0.0
H96 H 0.11073 0.26082 0.36442 0.0
H97 H 0.06117 0.23798 0.31793 0.0
H98 H 0.25569 0.11394 0.32852 0.0
H99 H 0.28118 0.16993 0.29847 0.0
H100 H 0.26222 0.11722 0.25437 0.0
C101 C 0.30894 0.66594 0.78219 0.0
N102 N 0.34659 0.64873 0.74888 0.0
N103 N 0.32438 0.70741 0.8111 0.0
C104 C 0.25604 0.64443 0.78366 0.0
C105 C 0.37294 0.71474 0.79432 0.0
N106 N 0.38657 0.67899 0.75638 0.0
C107 C 0.40789 0.75481 0.81739 0.0
H108 H 0.24588 0.62632 0.74329 0.0
H109 H 0.2278 0.67413 0.79399 0.0
H110 H 0.25429 0.61543 0.81606 0.0
H111 H 0.39597 0.76697 0.8597 0.0
H112 H 0.40679 0.78795 0.79018 0.0
H113 H 0.44758 0.74086 0.81856 0.0
C114 C 0.7795 0.85409 0.25418 0.0
N115 N 0.81839 0.87237 0.22394 0.0
N116 N 0.79517 0.81467 0.28469 0.0
C117 C 0.7257 0.87269 0.25125 0.0
C118 C 0.84527 0.81015 0.27217 0.0
N119 N 0.85929 0.84507 0.23513 0.0
C120 C 0.88154 0.77451 0.29919 0.0
H121 H 0.72023 0.90275 0.28331 0.0
H122 H 0.69838 0.8418 0.25927 0.0
H123 H 0.71763 0.88883 0.21011 0.0
H124 H 0.88668 0.74079 0.27187 0.0
H125 H 0.86706 0.76238 0.34 0.0
H126 H 0.91928 0.79264 0.30481 0.0
C127 C 0.72224 0.35878 0.76867 0.0
N128 N 0.68399 0.3776 0.73793 0.0
N129 N 0.7074 0.31546 0.79279 0.0
C130 C 0.77342 0.38299 0.77619 0.0
C131 C 0.65894 0.30856 0.7752 0.0
N132 N 0.64473 0.34654 0.74234 0.0
C133 C 0.62628 0.26374 0.78778 0.0
H134 H 0.80054 0.36506 0.74668 0.0
H135 H 0.78773 0.37712 0.81884 0.0
H136 H 0.77177 0.4239 0.76786 0.0
H137 H 0.5986 0.27465 0.82055 0.0
H138 H 0.64935 0.23173 0.8024 0.0
H139 H 0.60438 0.25172 0.75047 0.0
C140 C 0.65001 0.29459 0.26816 0.0
N141 N 0.63267 0.33297 0.30063 0.0
N142 N 0.69116 0.30938 0.23901 0.0
C143 C 0.62965 0.24162 0.26827 0.0
C144 C 0.69817 0.35817 0.25472 0.0
N145 N 0.66284 0.37252 0.29253 0.0
C146 C 0.73728 0.39267 0.23036 0.0
H147 H 0.66095 0.21405 0.26263 0.0
H148 H 0.60283 0.23647 0.23312 0.0
H149 H 0.60917 0.23382 0.30737 0.0
H150 H 0.74815 0.37973 0.18797 0.0
H151 H 0.77176 0.39294 0.25678 0.0
H152 H 0.72257 0.43176 0.2289 0.0
C153 C 0.16948 0.21505 0.78732 0.0
N154 N 0.15105 0.17686 0.81758 0.0
N155 N 0.21313 0.20114 0.76156 0.0
C156 C 0.14724 0.26718 0.78632 0.0
C157 C 0.22061 0.15299 0.77748 0.0
N158 N 0.18286 0.1383 0.81168 0.0
C159 C 0.26275 0.11932 0.75715 0.0
H160 H 0.1214 0.26988 0.75018 0.0
H161 H 0.17768 0.29581 0.78194 0.0
H162 H 0.12513 0.27557 0.82455 0.0
H163 H 0.29429 0.12072 0.78767 0.0
H164 H 0.27741 0.13167 0.7165 0.0
H165 H 0.24936 0.07973 0.75344 0.0
C166 C 0.29114 0.65594 0.28091 0.0
N167 N 0.32979 0.63917 0.31233 0.0
N168 N 0.30368 0.70054 0.25785 0.0
C169 C 0.24055 0.62998 0.27545 0.0
C170 C 0.35117 0.71027 0.2773 0.0
N171 N 0.36685 0.67291 0.31029 0.0
C172 C 0.3824 0.75581 0.26385 0.0
H173 H 0.24402 0.59815 0.24517 0.0
H174 H 0.21069 0.65614 0.26119 0.0
H175 H 0.22903 0.61409 0.31573 0.0
H176 H 0.37326 0.78657 0.29401 0.0
H177 H 0.37364 0.76891 0.22153 0.0
H178 H 0.42358 0.74748 0.26707 0.0
C179 C 0.82629 0.85847 0.74472 0.0
N180 N 0.8615 0.87308 0.78269 0.0
N181 N 0.83744 0.81201 0.72377 0.0
C182 C 0.77889 0.88743 0.73145 0.0
C183 C 0.88051 0.79889 0.75053 0.0
N184 N 0.89531 0.83621 0.78596 0.0
C185 C 0.90534 0.7481 0.7455 0.0
H186 H 0.74572 0.8682 0.75003 0.0
H187 H 0.7726 0.88809 0.68611 0.0
H188 H 0.78084 0.92677 0.74766 0.0
H189 H 0.89913 0.73131 0.70353 0.0
H190 H 0.8881 0.7228 0.77638 0.0
H191 H 0.94663 0.75064 0.75408 0.0
C192 C 0.15542 0.06867 0.12338 0.0
C193 C 0.16048 0.0188 0.14101 0.0
C194 C 0.1587 0.10912 0.16118 0.0
C195 C 0.1657 0.10088 0.21792 0.0
H196 H 0.14845 0.07643 0.0801 0.0
H197 H 0.15439 0.14707 0.14633 0.0
S198 S 0.18116 0.97775 0.28498 0.0
N199 N 0.17441 0.96337 0.21839 0.0
N200 N 0.17823 0.03985 0.29008 0.0
C201 C 0.17187 0.05141 0.23597 0.0
C202 C 0.16971 0.01016 0.19728 0.0
C203 C 0.49123 0.71087 0.65699 0.0
C204 C 0.51534 0.66408 0.64919 0.0
C205 C 0.45077 0.71643 0.69463 0.0
C206 C 0.43391 0.67564 0.72623 0.0
H207 H 0.50143 0.74235 0.63134 0.0
H208 H 0.43055 0.75186 0.69656 0.0
S209 S 0.49003 0.54795 0.72724 0.0
N210 N 0.5225 0.57772 0.67932 0.0
N211 N 0.44902 0.58933 0.75273 0.0
C212 C 0.46058 0.63006 0.72198 0.0
C213 C 0.50057 0.62395 0.68265 0.0
C214 C 0.81518 1.00363 0.16931 0.0
C215 C 0.83258 0.99589 0.11472 0.0
C216 C 0.80765 0.96261 0.20435 0.0
C217 C 0.81677 0.913 0.18539 0.0
H218 H 0.81009 0.04153 0.18583 0.0
H219 H 0.79732 0.9697 0.24725 0.0
S220 S 0.85365 0.87264 0.04335 0.0
N221 N 0.85317 0.93478 0.04169 0.0
N222 N 0.83689 0.85807 0.10703 0.0
C223 C 0.83013 0.90478 0.12979 0.0
C224 C 0.83872 0.94622 0.09457 0.0
C225 C 0.55901 0.33619 0.61926 0.0
C226 C 0.51571 0.36273 0.63742 0.0
C227 C 0.60071 0.32996 0.65443 0.0
C228 C 0.59972 0.34889 0.70906 0.0
H229 H 0.56124 0.32144 0.57711 0.0
H230 H 0.63434 0.31102 0.6388 0.0
S231 S 0.49433 0.41738 0.77793 0.0
N232 N 0.4737 0.40644 0.71405 0.0
N233 N 0.55184 0.39268 0.7809 0.0
C234 C 0.55625 0.37392 0.72836 0.0
C235 C 0.51422 0.38143 0.69223 0.0
C236 C 0.7015 0.47871 0.38924 0.0
C237 C 0.65522 0.5038 0.39827 0.0
C238 C 0.70423 0.43679 0.35293 0.0
C239 C 0.66119 0.41973 0.32331 0.0
H240 H 0.73496 0.48966 0.41276 0.0
H241 H 0.73957 0.41618 0.34994 0.0
S242 S 0.53299 0.47646 0.32772 0.0
N243 N 0.5662 0.51018 0.3732 0.0
N244 N 0.57281 0.43475 0.30074 0.0
C245 C 0.61581 0.44686 0.32914 0.0
C246 C 0.61243 0.48802 0.36778 0.0
C247 C 0.06901 0.16169 0.94274 0.0
C248 C 0.0198 0.1676 0.92108 0.0
C249 C 0.11188 0.16724 0.90922 0.0
C250 C 0.10692 0.17774 0.85275 0.0
H251 H 0.07437 0.15209 0.9858 0.0
H252 H 0.14918 0.16192 0.92707 0.0
S253 S 0.98678 0.19612 0.77595 0.0
N254 N 0.96852 0.18559 0.84023 0.0
N255 N 0.04953 0.19396 0.77645 0.0
C256 C 0.05812 0.18479 0.83081 0.0
C257 C 0.01437 0.18012 0.86521 0.0
C258 C 0.31805 0.55321 0.4325 0.0
C259 C 0.34828 0.51192 0.41558 0.0
C260 C 0.31039 0.59409 0.39766 0.0
C261 C 0.33156 0.59428 0.34441 0.0
H262 H 0.30177 0.55485 0.47373 0.0
H263 H 0.28913 0.6264 0.41282 0.0
S264 S 0.40709 0.49293 0.27726 0.0
N265 N 0.39588 0.47225 0.34028 0.0
N266 N 0.37964 0.5487 0.27418 0.0
C267 C 0.35952 0.55242 0.32589 0.0
C268 C 0.36832 0.51123 0.36164 0.0
C269 C 0.95767 0.83901 0.92512 0.0
C270 C 0.00931 0.84355 0.91142 0.0
C271 C 0.92075 0.83373 0.8837 0.0
C272 C 0.93432 0.83388 0.82744 0.0
H273 H 0.94577 0.84056 0.96811 0.0
H274 H 0.88114 0.83133 0.89547 0.0
S275 S 0.06405 0.84622 0.77024 0.0
N276 N 0.07234 0.84752 0.83819 0.0
N277 N 1.00227 0.83953 0.75998 0.0
C278 C 0.98579 0.83763 0.81322 0.0
C279 C 0.02355 0.84204 0.85542 0.0
C280 C 0.90407 0.99155 0.85696 0.0
C281 C 0.86536 0.9994 0.89655 0.0
C282 C 0.90174 0.95112 0.81859 0.0
C283 C 0.86074 0.9172 0.81849 0.0
H284 H 0.93665 0.01652 0.85593 0.0
H285 H 0.93255 0.94569 0.78934 0.0
S286 S 0.75197 0.91785 0.91562 0.0
N287 N 0.7856 0.968 0.93409 0.0
N288 N 0.78249 0.89173 0.86266 0.0
C289 C 0.82212 0.92419 0.85778 0.0
C290 C 0.82408 0.96541 0.89657 0.0
C291 C 0.5602 0.3497 0.43304 0.0
C292 C 0.50948 0.34332 0.41566 0.0
C293 C 0.60055 0.34316 0.39591 0.0
C294 C 0.59153 0.33112 0.33991 0.0
H295 H 0.56871 0.36097 0.47547 0.0
H296 H 0.639 0.34957 0.41042 0.0
S297 S 0.4661 0.30975 0.27372 0.0
N298 N 0.45253 0.32244 0.33942 0.0
N299 N 0.52871 0.31186 0.26885 0.0
C300 C 0.54124 0.32279 0.32235 0.0
C301 C 0.50005 0.32866 0.36045 0.0
C302 C 0.20743 0.03726 0.91447 0.0
C303 C 0.16212 1.00877 0.9123 0.0
C304 C 0.21537 0.07783 0.87908 0.0
C305 C 0.17852 0.09122 0.84008 0.0
H306 H 0.23616 0.02968 0.94532 0.0
H307 H 0.24932 0.10056 0.88414 0.0
S308 S 0.05676 0.02558 0.81176 0.0
N309 N 0.08203 0.9945 0.86353 0.0
N310 N 0.0978 0.07049 0.79702 0.0
C311 C 0.13467 0.06143 0.8349 0.0
C312 C 0.12626 0.02028 0.87099 0.0
C313 C 0.45115 0.68411 0.43483 0.0
C314 C 0.49515 0.65865 0.41683 0.0
C315 C 0.40972 0.69013 0.39905 0.0
C316 C 0.41167 0.67194 0.34408 0.0
H317 H 0.44809 0.69783 0.47731 0.0
H318 H 0.37545 0.70795 0.41458 0.0
S319 S 0.51958 0.60752 0.2753 0.0
N320 N 0.53921 0.61795 0.33962 0.0
N321 N 0.46144 0.63064 0.27214 0.0
C322 C 0.45594 0.64831 0.32499 0.0
C323 C 0.49775 0.64132 0.36152 0.0
C324 C 0.33695 0.51615 0.69222 0.0
C325 C 0.34969 0.52239 0.63623 0.0
C326 C 0.33417 0.55797 0.72874 0.0
C327 C 0.34344 0.60698 0.71 0.0
H328 H 0.3315 0.47874 0.70834 0.0
H329 H 0.32681 0.55195 0.77226 0.0
S330 S 0.37035 0.64382 0.56587 0.0
N331 N 0.36715 0.58172 0.56294 0.0
N332 N 0.35934 0.65994 0.63124 0.0
C333 C 0.35273 0.61384 0.65357 0.0
C334 C 0.35663 0.57155 0.61675 0.0
C335 C 0.97015 0.8161 0.14229 0.0
C336 C 0.99614 0.86258 0.14088 0.0
C337 C 0.92694 0.80985 0.17548 0.0
C338 C 0.90809 0.84973 0.20849 0.0
H339 H 0.98205 0.78471 0.11605 0.0
H340 H 0.90657 0.7744 0.17328 0.0
S341 S 0.9648 0.9767 0.22596 0.0
N342 N 1.00169 0.94791 0.17995 0.0
N343 N 0.92077 0.93525 0.24253 0.0
C344 C 0.93498 0.89532 0.21009 0.0
C345 C 0.97888 0.90199 0.17622 0.0
C346 C 0.64264 0.50046 0.67986 0.0
C347 C 0.66915 0.50189 0.62926 0.0
C348 C 0.65016 0.46121 0.7169 0.0
C349 C 0.68403 0.42184 0.70449 0.0
H350 H 0.61535 0.52948 0.69057 0.0
H351 H 0.62825 0.4607 0.75484 0.0
S352 S 0.7627 0.40733 0.57822 0.0
N353 N 0.7316 0.46056 0.56943 0.0
N354 N 0.74452 0.38632 0.63909 0.0
C355 C 0.7118 0.42331 0.65507 0.0
C356 C 0.70464 0.46349 0.61741 0.0
C357 C 0.01021 0.12042 0.18562 0.0
C358 C 1.00057 0.15764 0.14616 0.0
C359 C 0.04834 0.127 0.22588 0.0
C360 C 0.07816 0.17095 0.22811 0.0
H361 H 0.98912 0.08538 0.18453 0.0
H362 H 0.05602 0.0968 0.25416 0.0
S363 S 0.06901 0.27983 0.13537 0.0
N364 N 0.02396 0.24094 0.11346 0.0
N365 N 0.09614 0.25192 0.18815 0.0
C366 C 0.06815 0.20896 0.19029 0.0
C367 C 0.02926 0.20263 0.14954 0.0
C368 C 0.23654 0.8119 0.19748 0.0
C369 C 0.21655 0.79138 0.14797 0.0
C370 C 0.26436 0.78179 0.23382 0.0
C371 C 0.27383 0.73068 0.22106 0.0
H372 H 0.23042 0.85125 0.2082 0.0
H373 H 0.27865 0.79846 0.27208 0.0
S374 S 0.23285 0.66074 0.09428 0.0
N375 N 0.20901 0.71775 0.08723 0.0
N376 N 0.26341 0.66195 0.15412 0.0
C377 C 0.25469 0.71022 0.17119 0.0
C378 C 0.22555 0.74045 0.13491 0.0
C379 C 0.75181 0.70713 0.67355 0.0
C380 C 0.74079 0.72157 0.61915 0.0
C381 C 0.78383 0.73673 0.70763 0.0
C382 C 0.80641 0.78093 0.68783 0.0
H383 H 0.73453 0.67362 0.69025 0.0
H384 H 0.79044 0.72558 0.74994 0.0
S385 S 0.79499 0.83095 0.54635 0.0
N386 N 0.75768 0.78083 0.54588 0.0
N387 N 0.81966 0.83488 0.60929 0.0
C388 C 0.79745 0.79438 0.63289 0.0
C389 C 0.76415 0.76504 0.59865 0.0
C390 C 0.73031 0.22661 0.11868 0.0
C391 C 0.78298 0.22114 0.12721 0.0
C392 C 0.70046 0.2554 0.15546 0.0
C393 C 0.72209 0.2792 0.20225 0.0
H394 H 0.71206 0.20938 0.08279 0.0
H395 H 0.66033 0.25975 0.14697 0.0
S396 S 0.85624 0.27206 0.24748 0.0
N397 N 0.85453 0.23935 0.18853 0.0
N398 N 0.79768 0.29224 0.25817 0.0
C399 C 0.77404 0.27265 0.21253 0.0
C400 C 0.80466 0.24387 0.1749 0.0
C401 C 0.24498 0.28091 0.63994 0.0
C402 C 0.29697 0.29154 0.64777 0.0
C403 C 0.21826 0.25066 0.6768 0.0
C404 C 0.24224 0.23034 0.72319 0.0
H405 H 0.22485 0.29537 0.60449 0.0
H406 H 0.17848 0.24287 0.66897 0.0
S407 S 0.37659 0.24885 0.76461 0.0
N408 N 0.37112 0.28007 0.70636 0.0
N409 N 0.32 0.22432 0.77663 0.0
C410 C 0.2939 0.24092 0.73205 0.0
C411 C 0.32146 0.27128 0.6941 0.0
C412 C 0.70986 0.77866 0.40261 0.0
C413 C 0.71012 0.72575 0.39875 0.0
C414 C 0.73748 0.80759 0.36494 0.0
C415 C 0.7654 0.78454 0.32172 0.0
H416 H 0.68971 0.79768 0.43611 0.0
H417 H 0.73796 0.84817 0.37025 0.0
S418 S 0.77329 0.64755 0.29035 0.0
N419 N 0.73825 0.65156 0.34709 0.0
N420 N 0.78776 0.70608 0.2744 0.0
C421 C 0.7641 0.73178 0.31618 0.0
C422 C 0.73704 0.70234 0.35523 0.0
C423 C 0.80737 0.22822 0.84715 0.0
C424 C 0.791 0.22119 0.9019 0.0
C425 C 0.78013 0.25959 0.8115 0.0
C426 C 0.73584 0.28441 0.82973 0.0
H427 H 0.84156 0.20986 0.83212 0.0
H428 H 0.79338 0.26429 0.76943 0.0
S429 S 0.67874 0.27946 0.96968 0.0
N430 N 0.72888 0.24232 0.97293 0.0
N431 N 0.67776 0.30093 0.90588 0.0
C432 C 0.71946 0.27773 0.88433 0.0
C433 C 0.74712 0.24617 0.92051 0.0
C434 C 0.26764 0.24272 0.43653 0.0
C435 C 0.27811 0.29352 0.42514 0.0
C436 C 0.2361 0.21362 0.40178 0.0
C437 C 0.21427 0.23411 0.35428 0.0
H438 H 0.2835 0.22539 0.47292 0.0
H439 H 0.22876 0.17472 0.41186 0.0
S440 S 0.23236 0.36361 0.30355 0.0
N441 N 0.26524 0.36249 0.36185 0.0
N442 N 0.20706 0.30691 0.29569 0.0
C443 C 0.22471 0.28449 0.34194 0.0
C444 C 0.25638 0.31442 0.37761 0.0
C445 C 0.24236 0.74275 0.93273 0.0
C446 C 0.23273 0.79418 0.92429 0.0
C447 C 0.27311 0.71486 0.89607 0.0
C448 C 0.29489 0.73727 0.84955 0.0
H449 H 0.22656 0.72397 0.96825 0.0
H450 H 0.27998 0.67546 0.90396 0.0
S451 S 0.27847 0.8691 0.80601 0.0
N452 N 0.24601 0.86572 0.86441 0.0
N453 N 0.30284 0.8125 0.79494 0.0
C454 C 0.28509 0.78822 0.84002 0.0
C455 C 0.25421 0.81687 0.87754 0.0
loop_
_geom_bond_atom_site_label_1
_geom_bond_atom_site_label_2
_geom_bond_distance
_geom_bond_site_symmetry_2
_ccdc_geom_bond_type
Fe0 O2 1.918 . S
Fe0 O5 1.997 . S
Fe0 O6 2.002 . S
Fe0 O11 1.976 1_554 S
Fe0 O14 1.996 1_554 S
Fe1 O2 1.918 . S
Fe1 O9 1.997 . S
Fe1 O12 1.996 1_554 S
Fe1 O16 1.976 1_554 S
Fe1 O19 2.002 . S
O2 Fe0 1.918 . S
O2 Fe1 1.918 . S
O2 Fe3 1.918 . S
Fe3 O2 1.918 . S
Fe3 O4 2.002 . S
Fe3 O13 1.976 1_554 S
Fe3 O17 1.996 1_554 S
Fe3 O20 1.997 . S
O4 Fe3 2.002 . S
O4 C21 1.295 . S
O5 Fe0 1.997 . S
O5 C21 1.235 . S
O6 Fe0 2.002 . S
O6 C7 1.295 . S
C7 O6 1.295 . S
C7 O9 1.235 . S
C8 O13 1.287 . S
C8 O14 1.255 . S
O9 Fe1 1.997 . S
O9 C7 1.235 . S
C10 O16 1.287 . S
C10 O17 1.255 . S
O11 Fe0 1.976 1_556 S
O11 C18 1.287 . S
O12 Fe1 1.996 1_556 S
O12 C18 1.255 . S
O13 Fe3 1.976 1_556 S
O13 C8 1.287 . S
O14 Fe0 1.996 1_556 S
O14 C8 1.255 . S
C15 O19 1.295 . S
C15 O20 1.235 . S
O16 Fe1 1.976 1_556 S
O16 C10 1.287 . S
O17 Fe3 1.996 1_556 S
O17 C10 1.255 . S
C18 O11 1.287 . S
C18 O12 1.255 . S
O19 Fe1 2.002 . S
O19 C15 1.295 . S
O20 Fe3 1.997 . S
O20 C15 1.235 . S
C21 O4 1.295 . S
C21 O5 1.235 . S
Fe22 O24 1.918 . S
Fe22 O27 1.997 . S
Fe22 O28 2.002 . S
Fe22 O33 1.976 . S
Fe22 O36 1.996 . S
Fe23 O24 1.918 . S
Fe23 O31 1.997 . S
Fe23 O34 1.996 . S
Fe23 O38 1.976 . S
Fe23 O41 2.002 . S
O24 Fe22 1.918 . S
O24 Fe23 1.918 . S
O24 Fe25 1.918 . S
Fe25 O24 1.918 . S
Fe25 O26 2.002 . S
Fe25 O35 1.976 . S
Fe25 O39 1.996 . S
Fe25 O42 1.997 . S
O26 Fe25 2.002 . S
O26 C43 1.295 . S
O27 Fe22 1.997 . S
O27 C43 1.235 . S
O28 Fe22 2.002 . S
O28 C29 1.295 . S
C29 O28 1.295 . S
C29 O31 1.235 . S
C30 O35 1.287 . S
C30 O36 1.255 . S
O31 Fe23 1.997 . S
O31 C29 1.235 . S
C32 O38 1.287 . S
C32 O39 1.255 . S
O33 Fe22 1.976 . S
O33 C40 1.287 . S
O34 Fe23 1.996 . S
O34 C40 1.255 . S
O35 Fe25 1.976 . S
O35 C30 1.287 . S
O36 Fe22 1.996 . S
O36 C30 1.255 . S
C37 O41 1.295 . S
C37 O42 1.235 . S
O38 Fe23 1.976 . S
O38 C32 1.287 . S
O39 Fe25 1.996 . S
O39 C32 1.255 . S
C40 O33 1.287 . S
C40 O34 1.255 . S
O41 Fe23 2.002 . S
O41 C37 1.295 . S
O42 Fe25 1.997 . S
O42 C37 1.235 . S
C43 O26 1.295 . S
C43 O27 1.235 . S
Fe44 O46 1.918 . S
Fe44 O49 1.997 1_554 S
Fe44 O50 2.002 1_554 S
Fe44 O55 1.976 . S
Fe44 O58 1.996 . S
Fe45 O46 1.918 . S
Fe45 O53 1.997 1_554 S
Fe45 O56 1.996 . S
Fe45 O60 1.976 . S
Fe45 O63 2.002 1_554 S
O46 Fe44 1.918 . S
O46 Fe45 1.918 . S
O46 Fe47 1.918 1_554 S
Fe47 O46 1.918 1_556 S
Fe47 O48 2.002 . S
Fe47 O57 1.976 1_556 S
Fe47 O61 1.996 1_556 S
Fe47 O64 1.997 . S
O48 Fe47 2.002 . S
O48 C65 1.295 . S
O49 Fe44 1.997 1_556 S
O49 C65 1.235 . S
O50 Fe44 2.002 1_556 S
O50 C51 1.295 . S
C51 O50 1.295 . S
C51 O53 1.235 . S
C52 O57 1.287 . S
C52 O58 1.255 . S
O53 Fe45 1.997 1_556 S
O53 C51 1.235 . S
C54 O60 1.287 . S
C54 O61 1.255 . S
O55 Fe44 1.976 . S
O55 C62 1.287 . S
O56 Fe45 1.996 . S
O56 C62 1.255 . S
O57 Fe47 1.976 1_554 S
O57 C52 1.287 . S
O58 Fe44 1.996 . S
O58 C52 1.255 . S
C59 O63 1.295 . S
C59 O64 1.235 . S
O60 Fe45 1.976 . S
O60 C54 1.287 . S
O61 Fe47 1.996 1_554 S
O61 C54 1.255 . S
C62 O55 1.287 . S
C62 O56 1.255 . S
O63 Fe45 2.002 1_556 S
O63 C59 1.295 . S
O64 Fe47 1.997 . S
O64 C59 1.235 . S
C65 O48 1.295 . S
C65 O49 1.235 . S
Fe66 O68 1.918 . S
Fe66 O71 1.997 . S
Fe66 O72 2.002 . S
Fe66 O77 1.976 . S
Fe66 O80 1.996 . S
Fe67 O68 1.918 . S
Fe67 O75 1.997 . S
Fe67 O78 1.996 . S
Fe67 O82 1.976 . S
Fe67 O85 2.002 . S
O68 Fe66 1.918 . S
O68 Fe67 1.918 . S
O68 Fe69 1.918 . S
Fe69 O68 1.918 . S
Fe69 O70 2.002 . S
Fe69 O79 1.976 . S
Fe69 O83 1.996 . S
Fe69 O86 1.997 . S
O70 Fe69 2.002 . S
O70 C87 1.295 . S
O71 Fe66 1.997 . S
O71 C87 1.235 . S
O72 Fe66 2.002 . S
O72 C73 1.295 . S
C73 O72 1.295 . S
C73 O75 1.235 . S
C74 O79 1.287 . S
C74 O80 1.255 . S
O75 Fe67 1.997 . S
O75 C73 1.235 . S
C76 O82 1.287 . S
C76 O83 1.255 . S
O77 Fe66 1.976 . S
O77 C84 1.287 . S
O78 Fe67 1.996 . S
O78 C84 1.255 . S
O79 Fe69 1.976 . S
O79 C74 1.287 . S
O80 Fe66 1.996 . S
O80 C74 1.255 . S
C81 O85 1.295 . S
C81 O86 1.235 . S
O82 Fe67 1.976 . S
O82 C76 1.287 . S
O83 Fe69 1.996 . S
O83 C76 1.255 . S
C84 O77 1.287 . S
C84 O78 1.255 . S
O85 Fe67 2.002 . S
O85 C81 1.295 . S
O86 Fe69 1.997 . S
O86 C81 1.235 . S
C87 O70 1.295 . S
C87 O71 1.235 . S
C88 N89 1.317 . S
C88 N90 1.348 . S
C88 C91 1.485 . S
N89 C88 1.317 . S
N89 N93 1.370 . S
N90 C88 1.348 . S
N90 C92 1.346 . S
C91 C88 1.485 . S
C91 H95 0.960 . S
C91 H96 0.961 . S
C91 H97 0.960 . S
C92 N90 1.346 . S
C92 N93 1.307 . S
C92 C94 1.486 . S
N93 N89 1.370 . S
N93 C92 1.307 . S
C94 C92 1.486 . S
C94 H98 0.960 . S
C94 H99 0.960 . S
C94 H100 0.959 . S
H95 C91 0.960 . S
H96 C91 0.961 . S
H97 C91 0.960 . S
H98 C94 0.960 . S
H99 C94 0.960 . S
H100 C94 0.959 . S
C101 N102 1.317 . S
C101 N103 1.348 . S
C101 C104 1.485 . S
N102 C101 1.317 . S
N102 N106 1.370 . S
N103 C101 1.348 . S
N103 C105 1.346 . S
C104 C101 1.485 . S
C104 H108 0.960 . S
C104 H109 0.961 . S
C104 H110 0.960 . S
C105 N103 1.346 . S
C105 N106 1.307 . S
C105 C107 1.486 . S
N106 N102 1.370 . S
N106 C105 1.307 . S
C107 C105 1.486 . S
C107 H111 0.960 . S
C107 H112 0.960 . S
C107 H113 0.959 . S
H108 C104 0.960 . S
H109 C104 0.961 . S
H110 C104 0.960 . S
H111 C107 0.960 . S
H112 C107 0.960 . S
H113 C107 0.959 . S
C114 N115 1.317 . S
C114 N116 1.348 . S
C114 C117 1.485 . S
N115 C114 1.317 . S
N115 N119 1.370 . S
N116 C114 1.348 . S
N116 C118 1.346 . S
C117 C114 1.485 . S
C117 H121 0.960 . S
C117 H122 0.961 . S
C117 H123 0.960 . S
C118 N116 1.346 . S
C118 N119 1.307 . S
C118 C120 1.486 . S
N119 N115 1.370 . S
N119 C118 1.307 . S
C120 C118 1.486 . S
C120 H124 0.960 . S
C120 H125 0.960 . S
C120 H126 0.959 . S
H121 C117 0.960 . S
H122 C117 0.961 . S
H123 C117 0.960 . S
H124 C120 0.960 . S
H125 C120 0.960 . S
H126 C120 0.959 . S
C127 N128 1.317 . S
C127 N129 1.348 . S
C127 C130 1.485 . S
N128 C127 1.317 . S
N128 N132 1.370 . S
N129 C127 1.348 . S
N129 C131 1.346 . S
C130 C127 1.485 . S
C130 H134 0.960 . S
C130 H135 0.961 . S
C130 H136 0.960 . S
C131 N129 1.346 . S
C131 N132 1.307 . S
C131 C133 1.486 . S
N132 N128 1.370 . S
N132 C131 1.307 . S
C133 C131 1.486 . S
C133 H137 0.960 . S
C133 H138 0.960 . S
C133 H139 0.959 . S
H134 C130 0.960 . S
H135 C130 0.961 . S
H136 C130 0.960 . S
H137 C133 0.960 . S
H138 C133 0.960 . S
H139 C133 0.959 . S
C140 N141 1.317 . S
C140 N142 1.348 . S
C140 C143 1.485 . S
N141 C140 1.317 . S
N141 N145 1.370 . S
N142 C140 1.348 . S
N142 C144 1.346 . S
C143 C140 1.485 . S
C143 H147 0.960 . S
C143 H148 0.961 . S
C143 H149 0.960 . S
C144 N142 1.346 . S
C144 N145 1.307 . S
C144 C146 1.486 . S
N145 N141 1.370 . S
N145 C144 1.307 . S
C146 C144 1.486 . S
C146 H150 0.960 . S
C146 H151 0.960 . S
C146 H152 0.959 . S
H147 C143 0.960 . S
H148 C143 0.961 . S
H149 C143 0.960 . S
H150 C146 0.960 . S
H151 C146 0.960 . S
H152 C146 0.959 . S
C153 N154 1.317 . S
C153 N155 1.348 . S
C153 C156 1.485 . S
N154 C153 1.317 . S
N154 N158 1.370 . S
N155 C153 1.348 . S
N155 C157 1.346 . S
C156 C153 1.485 . S
C156 H160 0.960 . S
C156 H161 0.961 . S
C156 H162 0.960 . S
C157 N155 1.346 . S
C157 N158 1.307 . S
C157 C159 1.486 . S
N158 N154 1.370 . S
N158 C157 1.307 . S
C159 C157 1.486 . S
C159 H163 0.960 . S
C159 H164 0.960 . S
C159 H165 0.959 . S
H160 C156 0.960 . S
H161 C156 0.961 . S
H162 C156 0.960 . S
H163 C159 0.960 . S
H164 C159 0.960 . S
H165 C159 0.959 . S
C166 N167 1.317 . S
C166 N168 1.348 . S
C166 C169 1.485 . S
N167 C166 1.317 . S
N167 N171 1.370 . S
N168 C166 1.348 . S
N168 C170 1.346 . S
C169 C166 1.485 . S
C169 H173 0.960 . S
C169 H174 0.961 . S
C169 H175 0.960 . S
C170 N168 1.346 . S
C170 N171 1.307 . S
C170 C172 1.486 . S
N171 N167 1.370 . S
N171 C170 1.307 . S
C172 C170 1.486 . S
C172 H176 0.960 . S
C172 H177 0.960 . S
C172 H178 0.959 . S
H173 C169 0.960 . S
H174 C169 0.961 . S
H175 C169 0.960 . S
H176 C172 0.960 . S
H177 C172 0.960 . S
H178 C172 0.959 . S
C179 N180 1.317 . S
C179 N181 1.348 . S
C179 C182 1.485 . S
N180 C179 1.317 . S
N180 N184 1.370 . S
N181 C179 1.348 . S
N181 C183 1.346 . S
C182 C179 1.485 . S
C182 H186 0.960 . S
C182 H187 0.961 . S
C182 H188 0.960 . S
C183 N181 1.346 . S
C183 N184 1.307 . S
C183 C185 1.486 . S
N184 N180 1.370 . S
N184 C183 1.307 . S
C185 C183 1.486 . S
C185 H189 0.960 . S
C185 H190 0.960 . S
C185 H191 0.959 . S
H186 C182 0.960 . S
H187 C182 0.961 . S
H188 C182 0.960 . S
H189 C185 0.960 . S
H190 C185 0.960 . S
H191 C185 0.959 . S
C192 C193 1.369 1_545 S
C192 C194 1.419 . S
C192 H196 0.930 . S
C193 C192 1.369 1_565 S
C193 C202 1.429 . S
C194 C192 1.419 . S
C194 C195 1.363 . S
C194 H197 0.929 . S
C195 C194 1.363 . S
C195 C201 1.428 . S
H196 C192 0.930 . S
H197 C194 0.929 . S
S198 N199 1.613 . S
S198 N200 1.610 1_565 S
N199 S198 1.613 . S
N199 C202 1.350 . S
N200 S198 1.610 1_545 S
N200 C201 1.351 . S
C201 C195 1.428 . S
C201 N200 1.351 . S
C201 C202 1.434 1_545 S
C202 C193 1.429 . S
C202 N199 1.350 . S
C202 C201 1.434 1_565 S
C203 C204 1.369 . S
C203 C205 1.419 . S
C203 H207 0.930 . S
C204 C203 1.369 . S
C204 C213 1.429 . S
C205 C203 1.419 . S
C205 C206 1.363 . S
C205 H208 0.929 . S
C206 C205 1.363 . S
C206 C212 1.428 . S
H207 C203 0.930 . S
H208 C205 0.929 . S
S209 N210 1.613 . S
S209 N211 1.610 . S
N210 S209 1.613 . S
N210 C213 1.350 . S
N211 S209 1.610 . S
N211 C212 1.351 . S
C212 C206 1.428 . S
C212 N211 1.351 . S
C212 C213 1.434 . S
C213 C204 1.429 . S
C213 N210 1.350 . S
C213 C212 1.434 . S
C214 C215 1.369 . S
C214 C216 1.419 . S
C214 H218 0.930 . S
C215 C214 1.369 . S
C215 C224 1.429 . S
C216 C214 1.419 . S
C216 C217 1.363 . S
C216 H219 0.929 . S
C217 C216 1.363 . S
C217 C223 1.428 . S
H218 C214 0.930 . S
H219 C216 0.929 . S
S220 N221 1.613 1_565 S
S220 N222 1.610 . S
N221 S220 1.613 1_545 S
N221 C224 1.350 1_545 S
N222 S220 1.610 . S
N222 C223 1.351 . S
C223 C217 1.428 . S
C223 N222 1.351 . S
C223 C224 1.434 . S
C224 C215 1.429 . S
C224 N221 1.350 1_565 S
C224 C223 1.434 . S
C225 C226 1.369 . S
C225 C227 1.419 . S
C225 H229 0.930 . S
C226 C225 1.369 . S
C226 C235 1.429 . S
C227 C225 1.419 . S
C227 C228 1.363 . S
C227 H230 0.929 . S
C228 C227 1.363 . S
C228 C234 1.428 . S
H229 C225 0.930 . S
H230 C227 0.929 . S
S231 N232 1.613 . S
S231 N233 1.610 . S
N232 S231 1.613 . S
N232 C235 1.350 . S
N233 S231 1.610 . S
N233 C234 1.351 . S
C234 C228 1.428 . S
C234 N233 1.351 . S
C234 C235 1.434 . S
C235 C226 1.429 . S
C235 N232 1.350 . S
C235 C234 1.434 . S
C236 C237 1.369 . S
C236 C238 1.419 . S
C236 H240 0.930 . S
C237 C236 1.369 . S
C237 C246 1.429 . S
C238 C236 1.419 . S
C238 C239 1.363 . S
C238 H241 0.929 . S
C239 C238 1.363 . S
C239 C245 1.428 . S
H240 C236 0.930 . S
H241 C238 0.929 . S
S242 N243 1.613 . S
S242 N244 1.610 . S
N243 S242 1.613 . S
N243 C246 1.350 . S
N244 S242 1.610 . S
N244 C245 1.351 . S
C245 C239 1.428 . S
C245 N244 1.351 . S
C245 C246 1.434 . S
C246 C237 1.429 . S
C246 N243 1.350 . S
C246 C245 1.434 . S
C247 C248 1.369 . S
C247 C249 1.419 . S
C247 H251 0.930 . S
C248 C247 1.369 . S
C248 C257 1.429 . S
C249 C247 1.419 . S
C249 C250 1.363 . S
C249 H252 0.929 . S
C250 C249 1.363 . S
C250 C256 1.428 . S
H251 C247 0.930 . S
H252 C249 0.929 . S
S253 N254 1.622 . S
S253 N255 1.610 . S
N254 S253 1.622 . S
N254 C257 1.359 . S
N255 S253 1.610 . S
N255 C256 1.351 . S
C256 C250 1.428 . S
C256 N255 1.351 . S
C256 C257 1.434 . S
C257 C248 1.429 . S
C257 N254 1.359 . S
C257 C256 1.434 . S
C258 C259 1.369 . S
C258 C260 1.419 . S
C258 H262 0.930 . S
C259 C258 1.369 . S
C259 C268 1.429 . S
C260 C258 1.419 . S
C260 C261 1.363 . S
C260 H263 0.929 . S
C261 C260 1.363 . S
C261 C267 1.428 . S
H262 C258 0.930 . S
H263 C260 0.929 . S
S264 N265 1.613 . S
S264 N266 1.610 . S
N265 S264 1.613 . S
N265 C268 1.350 . S
N266 S264 1.610 . S
N266 C267 1.351 . S
C267 C261 1.428 . S
C267 N266 1.351 . S
C267 C268 1.434 . S
C268 C259 1.429 . S
C268 N265 1.350 . S
C268 C267 1.434 . S
C269 C270 1.369 1_655 S
C269 C271 1.419 . S
C269 H273 0.930 . S
C270 C269 1.369 1_455 S
C270 C279 1.429 . S
C271 C269 1.419 . S
C271 C272 1.363 . S
C271 H274 0.929 . S
C272 C271 1.363 . S
C272 C278 1.428 . S
H273 C269 0.930 . S
H274 C271 0.929 . S
S275 N276 1.613 . S
S275 N277 1.610 . S
N276 S275 1.613 . S
N276 C279 1.350 . S
N277 S275 1.610 . S
N277 C278 1.351 1_455 S
C278 C272 1.428 . S
C278 N277 1.351 1_655 S
C278 C279 1.434 1_655 S
C279 C270 1.429 . S
C279 N276 1.350 . S
C279 C278 1.434 1_455 S
C280 C281 1.369 . S
C280 C282 1.405 1_545 S
C280 H284 0.944 . S
C281 C280 1.369 . S
C281 C290 1.429 1_545 S
C282 C280 1.405 1_565 S
C282 C283 1.363 . S
C282 H285 0.929 . S
C283 C282 1.363 . S
C283 C289 1.428 . S
H284 C280 0.944 . S
H285 C282 0.929 . S
S286 N287 1.613 . S
S286 N288 1.610 . S
N287 S286 1.613 . S
N287 C290 1.350 . S
N288 S286 1.610 . S
N288 C289 1.351 . S
C289 C283 1.428 . S
C289 N288 1.351 . S
C289 C290 1.434 . S
C290 C281 1.429 1_565 S
C290 N287 1.350 . S
C290 C289 1.434 . S
C291 C292 1.369 . S
C291 C293 1.419 . S
C291 H295 0.930 . S
C292 C291 1.369 . S
C292 C301 1.429 . S
C293 C291 1.419 . S
C293 C294 1.363 . S
C293 H296 0.929 . S
C294 C293 1.363 . S
C294 C300 1.428 . S
H295 C291 0.930 . S
H296 C293 0.929 . S
S297 N298 1.613 . S
S297 N299 1.610 . S
N298 S297 1.613 . S
N298 C301 1.350 . S
N299 S297 1.610 . S
N299 C300 1.351 . S
C300 C294 1.428 . S
C300 N299 1.351 . S
C300 C301 1.434 . S
C301 C292 1.429 . S
C301 N298 1.350 . S
C301 C300 1.434 . S
C302 C303 1.369 . S
C302 C304 1.419 . S
C302 H306 0.930 . S
C303 C302 1.369 . S
C303 C312 1.429 . S
C304 C302 1.419 . S
C304 C305 1.363 . S
C304 H307 0.929 . S
C305 C304 1.363 . S
C305 C311 1.428 . S
H306 C302 0.930 . S
H307 C304 0.929 . S
S308 N309 1.613 . S
S308 N310 1.610 . S
N309 S308 1.613 . S
N309 C312 1.350 . S
N310 S308 1.610 . S
N310 C311 1.351 . S
C311 C305 1.428 . S
C311 N310 1.351 . S
C311 C312 1.434 . S
C312 C303 1.429 . S
C312 N309 1.350 . S
C312 C311 1.434 . S
C313 C314 1.369 . S
C313 C315 1.419 . S
C313 H317 0.930 . S
C314 C313 1.369 . S
C314 C323 1.429 . S
C315 C313 1.419 . S
C315 C316 1.363 . S
C315 H318 0.929 . S
C316 C315 1.363 . S
C316 C322 1.428 . S
H317 C313 0.930 . S
H318 C315 0.929 . S
S319 N320 1.613 . S
S319 N321 1.610 . S
N320 S319 1.613 . S
N320 C323 1.350 . S
N321 S319 1.610 . S
N321 C322 1.351 . S
C322 C316 1.428 . S
C322 N321 1.351 . S
C322 C323 1.434 . S
C323 C314 1.429 . S
C323 N320 1.350 . S
C323 C322 1.434 . S
C324 C325 1.369 . S
C324 C326 1.419 . S
C324 H328 0.930 . S
C325 C324 1.369 . S
C325 C334 1.429 . S
C326 C324 1.419 . S
C326 C327 1.363 . S
C326 H329 0.929 . S
C327 C326 1.363 . S
C327 C333 1.428 . S
H328 C324 0.930 . S
H329 C326 0.929 . S
S330 N331 1.613 . S
S330 N332 1.610 . S
N331 S330 1.613 . S
N331 C334 1.350 . S
N332 S330 1.610 . S
N332 C333 1.351 . S
C333 C327 1.428 . S
C333 N332 1.351 . S
C333 C334 1.434 . S
C334 C325 1.429 . S
C334 N331 1.350 . S
C334 C333 1.434 . S
C335 C336 1.369 . S
C335 C337 1.419 . S
C335 H339 0.930 . S
C336 C335 1.369 . S
C336 C345 1.429 . S
C337 C335 1.419 . S
C337 C338 1.363 . S
C337 H340 0.929 . S
C338 C337 1.363 . S
C338 C344 1.428 . S
H339 C335 0.930 . S
H340 C337 0.929 . S
S341 N342 1.613 1_655 S
S341 N343 1.610 . S
N342 S341 1.613 1_455 S
N342 C345 1.350 1_455 S
N343 S341 1.610 . S
N343 C344 1.351 . S
C344 C338 1.428 . S
C344 N343 1.351 . S
C344 C345 1.434 . S
C345 C336 1.429 . S
C345 N342 1.350 1_655 S
C345 C344 1.434 . S
C346 C347 1.369 . S
C346 C348 1.419 . S
C346 H350 0.930 . S
C347 C346 1.369 . S
C347 C356 1.429 . S
C348 C346 1.419 . S
C348 C349 1.363 . S
C348 H351 0.929 . S
C349 C348 1.363 . S
C349 C355 1.428 . S
H350 C346 0.930 . S
H351 C348 0.929 . S
S352 N353 1.613 . S
S352 N354 1.610 . S
N353 S352 1.613 . S
N353 C356 1.350 . S
N354 S352 1.610 . S
N354 C355 1.351 . S
C355 C349 1.428 . S
C355 N354 1.351 . S
C355 C356 1.434 . S
C356 C347 1.429 . S
C356 N353 1.350 . S
C356 C355 1.434 . S
C357 C358 1.369 1_455 S
C357 C359 1.419 . S
C357 H361 0.930 . S
C358 C357 1.369 1_655 S
C358 C367 1.429 . S
C359 C357 1.419 . S
C359 C360 1.363 . S
C359 H362 0.929 . S
C360 C359 1.363 . S
C360 C366 1.428 . S
H361 C357 0.930 . S
H362 C359 0.929 . S
S363 N364 1.613 1_455 S
S363 N365 1.610 . S
N364 S363 1.613 1_655 S
N364 C367 1.350 . S
N365 S363 1.610 . S
N365 C366 1.351 . S
C366 C360 1.428 . S
C366 N365 1.351 . S
C366 C367 1.434 1_455 S
C367 C358 1.429 . S
C367 N364 1.350 . S
C367 C366 1.434 1_655 S
C368 C369 1.369 . S
C368 C370 1.419 . S
C368 H372 0.930 . S
C369 C368 1.369 . S
C369 C378 1.429 . S
C370 C368 1.419 . S
C370 C371 1.363 . S
C370 H373 0.929 . S
C371 C370 1.363 . S
C371 C377 1.428 . S
H372 C368 0.930 . S
H373 C370 0.929 . S
S374 N375 1.613 . S
S374 N376 1.610 . S
N375 S374 1.613 . S
N375 C378 1.350 . S
N376 S374 1.610 . S
N376 C377 1.351 . S
C377 C371 1.428 . S
C377 N376 1.351 . S
C377 C378 1.434 . S
C378 C369 1.429 . S
C378 N375 1.350 . S
C378 C377 1.434 . S
C379 C380 1.369 . S
C379 C381 1.419 . S
C379 H383 0.930 . S
C380 C379 1.369 . S
C380 C389 1.429 . S
C381 C379 1.419 . S
C381 C382 1.363 . S
C381 H384 0.929 . S
C382 C381 1.363 . S
C382 C388 1.428 . S
H383 C379 0.930 . S
H384 C381 0.929 . S
S385 N386 1.613 . S
S385 N387 1.610 . S
N386 S385 1.613 . S
N386 C389 1.350 . S
N387 S385 1.610 . S
N387 C388 1.351 . S
C388 C382 1.428 . S
C388 N387 1.351 . S
C388 C389 1.434 . S
C389 C380 1.429 . S
C389 N386 1.350 . S
C389 C388 1.434 . S
C390 C391 1.369 . S
C390 C392 1.419 . S
C390 H394 0.930 . S
C391 C390 1.369 . S
C391 C400 1.429 . S
C392 C390 1.419 . S
C392 C393 1.363 . S
C392 H395 0.929 . S
C393 C392 1.363 . S
C393 C399 1.428 . S
H394 C390 0.930 . S
H395 C392 0.929 . S
S396 N397 1.613 . S
S396 N398 1.610 . S
N397 S396 1.613 . S
N397 C400 1.350 . S
N398 S396 1.610 . S
N398 C399 1.351 . S
C399 C393 1.428 . S
C399 N398 1.351 . S
C399 C400 1.434 . S
C400 C391 1.429 . S
C400 N397 1.350 . S
C400 C399 1.434 . S
C401 C402 1.369 . S
C401 C403 1.419 . S
C401 H405 0.930 . S
C402 C401 1.369 . S
C402 C411 1.429 . S
C403 C401 1.419 . S
C403 C404 1.363 . S
C403 H406 0.929 . S
C404 C403 1.363 . S
C404 C410 1.428 . S
H405 C401 0.930 . S
H406 C403 0.929 . S
S407 N408 1.613 . S
S407 N409 1.610 . S
N408 S407 1.613 . S
N408 C411 1.350 . S
N409 S407 1.610 . S
N409 C410 1.351 . S
C410 C404 1.428 . S
C410 N409 1.351 . S
C410 C411 1.434 . S
C411 C402 1.429 . S
C411 N408 1.350 . S
C411 C410 1.434 . S
C412 C413 1.369 . S
C412 C414 1.419 . S
C412 H416 0.930 . S
C413 C412 1.369 . S
C413 C422 1.429 . S
C414 C412 1.419 . S
C414 C415 1.363 . S
C414 H417 0.929 . S
C415 C414 1.363 . S
C415 C421 1.428 . S
H416 C412 0.930 . S
H417 C414 0.929 . S
S418 N419 1.613 . S
S418 N420 1.610 . S
N419 S418 1.613 . S
N419 C422 1.350 . S
N420 S418 1.610 . S
N420 C421 1.351 . S
C421 C415 1.428 . S
C421 N420 1.351 . S
C421 C422 1.434 . S
C422 C413 1.429 . S
C422 N419 1.350 . S
C422 C421 1.434 . S
C423 C424 1.369 . S
C423 C425 1.419 . S
C423 H427 0.930 . S
C424 C423 1.369 . S
C424 C433 1.429 . S
C425 C423 1.419 . S
C425 C426 1.363 . S
C425 H428 0.929 . S
C426 C425 1.363 . S
C426 C432 1.428 . S
H427 C423 0.930 . S
H428 C425 0.929 . S
S429 N430 1.613 . S
S429 N431 1.610 . S
N430 S429 1.613 . S
N430 C433 1.350 . S
N431 S429 1.610 . S
N431 C432 1.351 . S
C432 C426 1.428 . S
C432 N431 1.351 . S
C432 C433 1.434 . S
C433 C424 1.429 . S
C433 N430 1.350 . S
C433 C432 1.434 . S
C434 C435 1.369 . S
C434 C436 1.419 . S
C434 H438 0.930 . S
C435 C434 1.369 . S
C435 C444 1.429 . S
C436 C434 1.419 . S
C436 C437 1.363 . S
C436 H439 0.929 . S
C437 C436 1.363 . S
C437 C443 1.428 . S
H438 C434 0.930 . S
H439 C436 0.929 . S
S440 N441 1.613 . S
S440 N442 1.610 . S
N441 S440 1.613 . S
N441 C444 1.350 . S
N442 S440 1.610 . S
N442 C443 1.351 . S
C443 C437 1.428 . S
C443 N442 1.351 . S
C443 C444 1.434 . S
C444 C435 1.429 . S
C444 N441 1.350 . S
C444 C443 1.434 . S
C445 C446 1.369 . S
C445 C447 1.419 . S
C445 H449 0.930 . S
C446 C445 1.369 . S
C446 C455 1.429 . S
C447 C445 1.419 . S
C447 C448 1.363 . S
C447 H450 0.929 . S
C448 C447 1.363 . S
C448 C454 1.428 . S
H449 C445 0.930 . S
H450 C447 0.929 . S
S451 N452 1.613 . S
S451 N453 1.610 . S
N452 S451 1.613 . S
N452 C455 1.350 . S
N453 S451 1.610 . S
N453 C454 1.351 . S
C454 C448 1.428 . S
C454 N453 1.351 . S
C454 C455 1.434 . S
C455 C446 1.429 . S
C455 N452 1.350 . S
C455 C454 1.434 . S
C193 C7 1.415 . S
C195 N93 1.421 . S
C204 C37 1.370 . S
C206 N106 1.377 . S
C215 C54 1.358 1_565 S
C217 N115 1.362 . S
C228 N132 1.433 . S
C226 C87 1.417 . S
C239 N145 1.392 . S
C237 C30 1.392 . S
C248 C51 1.419 1_455 S
C250 N154 1.443 . S
C259 C84 1.387 . S
C261 N167 1.389 . S
C270 C10 1.354 . S
C272 N184 1.354 . S
C281 C59 1.420 . S
C283 N180 1.440 . S
C294 N141 1.354 . S
C292 C74 1.350 . S
C305 N158 1.385 . S
C303 C18 1.380 1_545 S
C314 C32 1.414 . S
C316 N171 1.420 . S
C327 N102 1.434 . S
C325 C73 1.416 . S
C336 C15 1.415 1_655 S
C338 N119 1.435 . S
C349 N128 1.408 . S
C347 C43 1.394 . S
C360 N89 1.353 . S
C358 C62 1.349 . S
C371 N168 1.442 . S
C369 C21 1.449 . S
C382 N181 1.423 . S
C380 C29 1.412 . S
C391 C52 1.400 . S
C393 N142 1.398 . S
C404 N155 1.434 . S
C402 C81 1.439 . S
C415 N116 1.422 . S
C413 C40 1.427 . S
C424 C65 1.442 . S
C426 N129 1.430 . S
C437 N90 1.401 . S
C435 C76 1.403 . S
C448 N103 1.425 . S
C446 C8 1.428 . S
