# Generated by pormake.
# Topology zzz, (3,6)-cn, num edge types: 1
# Building blocks:
#     Node 0, Type 0, BuildingBlock: CUQRIR_clean_linker_1, # of connection points: 3
#     Node 1, Type 0, BuildingBlock: CUQRIR_clean_linker_1, # of connection points: 3
#     Node 2, Type 0, BuildingBlock: CUQRIR_clean_linker_1, # of connection points: 3
#     Node 3, Type 0, BuildingBlock: CUQRIR_clean_linker_1, # of connection points: 3
#     Node 4, Type 0, BuildingBlock: CUQRIR_clean_linker_1, # of connection points: 3
#     Node 5, Type 0, BuildingBlock: CUQRIR_clean_linker_1, # of connection points: 3
#     Node 6, Type 0, BuildingBlock: CUQRIR_clean_linker_1, # of connection points: 3
#     Node 7, Type 0, BuildingBlock: CUQRIR_clean_linker_1, # of connection points: 3
#     Node 8, Type 1, BuildingBlock: NUHQIS_clean_sbu_0, # of connection points: 6
#     Node 9, Type 1, BuildingBlock: NUHQIS_clean_sbu_0, # of connection points: 6
#     Node 10, Type 1, BuildingBlock: NUHQIS_clean_sbu_0, # of connection points: 6
#     Node 11, Type 1, BuildingBlock: NUHQIS_clean_sbu_0, # of connection points: 6
#     Edge 12, Type (0, 1), BuildingBlock: TEMPAE_clean_linker_10, # of connection points: 2
#     Edge 13, Type (0, 1), BuildingBlock: TEMPAE_clean_linker_10, # of connection points: 2
#     Edge 14, Type (0, 1), BuildingBlock: TEMPAE_clean_linker_10, # of connection points: 2
#     Edge 15, Type (0, 1), BuildingBlock: TEMPAE_clean_linker_10, # of connection points: 2
#     Edge 16, Type (0, 1), BuildingBlock: TEMPAE_clean_linker_10, # of connection points: 2
#     Edge 17, Type (0, 1), BuildingBlock: TEMPAE_clean_linker_10, # of connection points: 2
#     Edge 18, Type (0, 1), BuildingBlock: TEMPAE_clean_linker_10, # of connection points: 2
#     Edge 19, Type (0, 1), BuildingBlock: TEMPAE_clean_linker_10, # of connection points: 2
#     Edge 20, Type (0, 1), BuildingBlock: TEMPAE_clean_linker_10, # of connection points: 2
#     Edge 21, Type (0, 1), BuildingBlock: TEMPAE_clean_linker_10, # of connection points: 2
#     Edge 22, Type (0, 1), BuildingBlock: TEMPAE_clean_linker_10, # of connection points: 2
#     Edge 23, Type (0, 1), BuildingBlock: TEMPAE_clean_linker_10, # of connection points: 2
#     Edge 24, Type (0, 1), BuildingBlock: TEMPAE_clean_linker_10, # of connection points: 2
#     Edge 25, Type (0, 1), BuildingBlock: TEMPAE_clean_linker_10, # of connection points: 2
#     Edge 26, Type (0, 1), BuildingBlock: TEMPAE_clean_linker_10, # of connection points: 2
#     Edge 27, Type (0, 1), BuildingBlock: TEMPAE_clean_linker_10, # of connection points: 2
#     Edge 28, Type (0, 1), BuildingBlock: TEMPAE_clean_linker_10, # of connection points: 2
#     Edge 29, Type (0, 1), BuildingBlock: TEMPAE_clean_linker_10, # of connection points: 2
#     Edge 30, Type (0, 1), BuildingBlock: TEMPAE_clean_linker_10, # of connection points: 2
#     Edge 31, Type (0, 1), BuildingBlock: TEMPAE_clean_linker_10, # of connection points: 2
#     Edge 32, Type (0, 1), BuildingBlock: TEMPAE_clean_linker_10, # of connection points: 2
#     Edge 33, Type (0, 1), BuildingBlock: TEMPAE_clean_linker_10, # of connection points: 2
#     Edge 34, Type (0, 1), BuildingBlock: TEMPAE_clean_linker_10, # of connection points: 2
#     Edge 35, Type (0, 1), BuildingBlock: TEMPAE_clean_linker_10, # of connection points: 2
# Relax obj value: 0.290
# Max RMSD: 0.162
# Mean RMSD: 0.136
data_MOF--net-zzz--node1-NUHQIS_clean_sbu_0--node2-CUQRIR_clean_linker_1--edge1-TEMPAE_clean_linker_10
_symmetry_space_group_name_H-M    P1
_symmetry_Int_Tables_number       1
_symmetry_cell_setting            triclinic
loop_
_symmetry_equiv_pos_as_xyz
'x, y, z'
_cell_length_a     49.588391
_cell_length_b     49.619517
_cell_length_c     12.812216
_cell_angle_alpha  89.576156
_cell_angle_beta   89.731781
_cell_angle_gamma 89.970011
loop_
_atom_site_label
_atom_site_type_symbol
_atom_site_fract_x
_atom_site_fract_y
_atom_site_fract_z
_atom_type_partial_charge
C0 C 0.75373 0.51624 0.38259 0.0
N1 N 0.77648 0.50101 0.39631 0.0
N2 N 0.73709 0.50503 0.30987 0.0
C3 C 0.74723 0.54126 0.44243 0.0
C4 C 0.7507 0.48277 0.27937 0.0
N5 N 0.77409 0.48019 0.33207 0.0
C6 C 0.74224 0.46482 0.1908 0.0
H7 H 0.7563 0.54037 0.52141 0.0
H8 H 0.72508 0.54408 0.44883 0.0
H9 H 0.75581 0.55889 0.40014 0.0
H10 H 0.72925 0.47582 0.13447 0.0
H11 H 0.73068 0.4475 0.22303 0.0
H12 H 0.76003 0.45684 0.14825 0.0
C13 C 1.00294 0.74909 0.40366 0.0
N14 N 1.00429 0.77592 0.37908 0.0
N15 N 0.99404 0.73431 0.32084 0.0
C16 C 1.01239 0.73719 0.5048 0.0
C17 C 0.98975 0.75323 0.24643 0.0
N18 N 0.99697 0.77806 0.27936 0.0
C19 C 0.98069 0.74697 0.13688 0.0
H20 H 0.03462 0.73933 0.50957 0.0
H21 H 1.00694 0.71555 0.51107 0.0
H22 H 1.00345 0.74841 0.57108 0.0
H23 H 0.9773 0.76555 0.09003 0.0
H24 H 0.96153 0.73548 0.13978 0.0
H25 H 0.99598 0.73415 0.0977 0.0
C26 C 0.78195 1.01246 0.38623 0.0
N27 N 0.75791 0.02573 0.39852 0.0
N28 N 0.79816 0.02521 0.31391 0.0
C29 C 0.78927 0.98685 0.44204 0.0
C30 C 0.7828 0.04641 0.28253 0.0
N31 N 0.75913 0.04692 0.33463 0.0
C32 C 0.78972 0.06553 0.19415 0.0
H33 H 0.77874 0.98526 0.51831 0.0
H34 H 0.81139 0.98569 0.45404 0.0
H35 H 0.78304 0.96951 0.39361 0.0
H36 H 0.80264 0.0556 0.13486 0.0
H37 H 0.80056 0.0832 0.22586 0.0
H38 H 0.77135 0.07315 0.15478 0.0
C39 C 0.51981 0.78193 0.42066 0.0
N40 N 0.51261 0.75592 0.39862 0.0
N41 N 0.52339 0.79683 0.3312 0.0
C42 C 0.52179 0.7932 0.5285 0.0
C43 C 0.51812 0.77909 0.25485 0.0
N44 N 0.51123 0.75476 0.29471 0.0
C45 C 0.51867 0.7861 0.14005 0.0
H46 H 0.50767 0.78263 0.58233 0.0
H47 H 0.51747 0.81515 0.52798 0.0
H48 H 0.54262 0.79014 0.55749 0.0
H49 H 0.53626 0.79912 0.12165 0.0
H50 H 0.50019 0.79763 0.12001 0.0
H51 H 0.51973 0.76779 0.09106 0.0
C52 C 0.27812 0.52204 0.2004 0.0
N53 N 0.25442 0.53596 0.19121 0.0
N54 N 0.29483 0.53391 0.2713 0.0
C55 C 0.28543 0.49775 0.13745 0.0
C56 C 0.28022 0.55518 0.30565 0.0
N57 N 0.25617 0.55657 0.25675 0.0
C58 C 0.2883 0.57305 0.39492 0.0
H59 H 0.27859 0.47941 0.17995 0.0
H60 H 0.30761 0.49644 0.12651 0.0
H61 H 0.27534 0.49836 0.06035 0.0
H62 H 0.29905 0.59096 0.36328 0.0
H63 H 0.30189 0.5623 0.44975 0.0
H64 H 0.27037 0.58016 0.43895 0.0
C65 C 0.01871 0.27377 0.21732 0.0
N66 N 1.00316 0.25123 0.20596 0.0
N67 N 1.00657 0.29193 0.28245 0.0
C68 C 0.0455 0.27792 0.16524 0.0
C69 C 0.98324 0.27959 0.30971 0.0
N70 N 0.98115 0.25533 0.26349 0.0
C71 C 0.96284 0.29092 0.38514 0.0
H72 H 0.05774 0.25926 0.17174 0.0
H73 H 0.05654 0.2951 0.19973 0.0
H74 H 0.04224 0.28205 0.08101 0.0
H75 H 0.94924 0.30483 0.34219 0.0
H76 H 0.97298 0.30253 0.44738 0.0
H77 H 0.95037 0.27483 0.42161 0.0
C78 C 0.24779 1.01105 0.13744 0.0
N79 N 0.27148 0.99694 0.13346 0.0
N80 N 0.23045 1.00009 0.2096 0.0
C81 C 0.24116 0.03472 0.06894 0.0
C82 C 0.24466 0.97921 0.25008 0.0
N83 N 0.26907 0.97716 0.20362 0.0
C84 C 0.23571 0.96238 0.34245 0.0
H85 H 0.21907 0.03624 0.05686 0.0
H86 H 0.25165 0.0331 0.99254 0.0
H87 H 0.2481 0.05339 0.10761 0.0
H88 H 0.22517 0.94418 0.31375 0.0
H89 H 0.22166 0.97375 0.39343 0.0
H90 H 0.25319 0.95572 0.38983 0.0
C91 C 0.51864 0.24629 0.16844 0.0
N92 N 0.53246 0.27016 0.16224 0.0
N93 N 0.52888 0.22988 0.24537 0.0
C94 C 0.4962 0.23852 0.09682 0.0
C95 C 0.54891 0.24498 0.28648 0.0
N96 N 0.55138 0.2687 0.23529 0.0
C97 C 0.56412 0.238 0.38487 0.0
H98 H 0.49593 0.21638 0.08521 0.0
H99 H 0.49827 0.249 0.02038 0.0
H100 H 0.47673 0.24456 0.13265 0.0
H101 H 0.58325 0.22774 0.36378 0.0
H102 H 0.55214 0.22451 0.43658 0.0
H103 H 0.56926 0.25643 0.42907 0.0
Tb104 Tb 0.0334 1.01246 0.8464 0.0
Eu105 Eu 0.99242 0.02584 0.66055 0.0
C106 C 0.057 0.02009 0.61821 0.0
C107 C 1.01198 0.07187 0.81905 0.0
C108 C 0.08727 0.98359 1.00326 0.0
C109 C 0.10406 0.94311 0.92165 0.0
C110 C 0.09707 0.97023 0.91452 0.0
C111 C 0.08965 0.97142 0.1015 0.0
C112 C 0.09677 0.94435 0.10865 0.0
C113 C 0.10086 0.92948 0.01716 0.0
C114 C 0.06696 1.00457 0.99031 0.0
O115 O 0.99397 0.01679 0.92553 0.0
O116 O 0.96641 1.00815 0.78803 0.0
O117 O 1.00399 0.98254 0.62766 0.0
O118 O 0.02554 0.97161 0.78137 0.0
C119 C 0.96997 1.01079 0.88856 0.0
O120 O 0.95417 0.01857 0.58123 0.0
O121 O 0.98101 0.05009 0.52589 0.0
O122 O 0.03445 0.03217 0.58997 0.0
O123 O 0.05854 1.00726 0.70798 0.0
O124 O 0.03332 0.05658 0.83173 0.0
O125 O 0.9911 0.06227 0.76874 0.0
C126 C 0.01522 0.96455 0.68992 0.0
O127 O 0.07085 0.02151 0.91364 0.0
O128 O 0.04228 0.99546 0.99214 0.0
C129 C 0.93445 0.05902 0.52239 0.0
C130 C 0.89788 0.10093 0.48503 0.0
C131 C 0.8931 0.07523 0.44428 0.0
C132 C 0.91141 0.05433 0.46234 0.0
C133 C 0.93686 0.08338 0.57657 0.0
C134 C 0.91862 0.10423 0.55813 0.0
C135 C 0.95687 0.03968 0.52127 0.0
H136 H 0.10733 0.93193 0.85034 0.0
H137 H 0.0955 0.97937 0.83777 0.0
H138 H 0.08203 0.98146 0.17045 0.0
H139 H 0.09429 0.9342 0.18329 0.0
H140 H 0.87686 0.07225 0.38992 0.0
H141 H 0.90855 0.03525 0.42366 0.0
H142 H 0.95406 0.08713 0.62626 0.0
H143 H 0.92281 0.12384 0.59098 0.0
Tb144 Tb 0.52027 0.03171 0.8654 0.0
Eu145 Eu 0.5108 0.99074 0.67676 0.0
C146 C 0.50948 0.05384 0.64163 0.0
C147 C 0.46085 1.00924 0.8252 0.0
C148 C 0.54713 0.07952 0.06572 0.0
C149 C 0.5729 0.11856 0.12022 0.0
C150 C 0.55211 0.10738 0.06157 0.0
C151 C 0.56279 0.063 0.13048 0.0
C152 C 0.58345 0.07412 0.18891 0.0
C153 C 0.58886 0.10196 0.18391 0.0
C154 C 0.52591 0.06813 1.00036 0.0
O155 O 0.53233 0.99266 0.93437 0.0
O156 O 0.50852 0.96535 0.82443 0.0
O157 O 0.55617 0.99155 0.69205 0.0
O158 O 0.56113 0.02904 0.79401 0.0
C159 C 0.52174 0.96894 0.91216 0.0
O160 O 0.51515 0.95102 0.60632 0.0
O161 O 0.49738 0.98389 0.51799 0.0
O162 O 0.51999 0.03164 0.60482 0.0
O163 O 0.50067 0.05395 0.73823 0.0
O164 O 0.47891 0.01755 0.89265 0.0
O165 O 0.4681 1.00184 0.73038 0.0
C166 C 0.57153 1.01023 0.73299 0.0
O167 O 0.52898 0.07196 0.90051 0.0
O168 O 0.51777 0.04373 0.02188 0.0
C169 C 0.48126 0.94051 0.48238 0.0
C170 C 0.43579 0.91193 0.41395 0.0
C171 C 0.44869 0.90439 0.50715 0.0
C172 C 0.47128 0.91864 0.54138 0.0
C173 C 0.46937 0.94691 0.38655 0.0
C174 C 0.44672 0.93304 0.35328 0.0
C175 C 0.50274 0.95816 0.52093 0.0
H176 H 0.57661 0.14005 0.1153 0.0
H177 H 0.54004 0.12043 0.0122 0.0
H178 H 0.55949 0.04144 0.13449 0.0
H179 H 0.59587 0.06065 0.23516 0.0
H180 H 0.44068 0.88824 0.5554 0.0
H181 H 0.48024 0.91317 0.6155 0.0
H182 H 0.47689 0.96354 0.3394 0.0
H183 H 0.43703 0.93984 0.2822 0.0
Tb184 Tb 0.50075 0.51791 0.87807 0.0
Eu185 Eu 0.53622 0.50618 0.67301 0.0
C186 C 0.47139 0.51085 0.65692 0.0
C187 C 0.52107 0.45798 0.83406 0.0
C188 C 0.44776 0.54201 0.05117 0.0
C189 C 0.42231 0.57802 0.96984 0.0
C190 C 0.43481 0.55294 0.96329 0.0
C191 C 0.44409 0.5539 0.14875 0.0
C192 C 0.43156 0.57894 0.15533 0.0
C193 C 0.4232 0.59228 0.0639 0.0
C194 C 0.47111 0.52459 0.03597 0.0
O195 O 0.54205 0.52849 0.92519 0.0
O196 O 0.5655 0.50307 0.80788 0.0
O197 O 0.5331 0.55184 0.68012 0.0
O198 O 0.4973 0.55675 0.79215 0.0
C199 C 0.56468 0.51697 0.89473 0.0
O200 O 0.57351 0.51322 0.58612 0.0
O201 O 0.54178 0.48883 0.51909 0.0
O202 O 0.49455 0.51343 0.60796 0.0
O203 O 0.4703 0.50854 0.75933 0.0
O204 O 0.51687 0.47708 0.9029 0.0
O205 O 0.52466 0.46428 0.7348 0.0
C206 C 0.51409 0.56694 0.72165 0.0
O207 O 0.46815 0.50479 0.97088 0.0
O208 O 0.4934 0.53783 0.01865 0.0
C209 C 0.58617 0.47718 0.47577 0.0
C210 C 0.61806 0.43287 0.41822 0.0
C211 C 0.62382 0.44706 0.50995 0.0
C212 C 0.60788 0.46906 0.53889 0.0
C213 C 0.58145 0.46403 0.38155 0.0
C214 C 0.59697 0.44192 0.35361 0.0
C215 C 0.56655 0.49741 0.50995 0.0
H216 H 0.41585 0.58793 0.89855 0.0
H217 H 0.43755 0.54402 0.8871 0.0
H218 H 0.45408 0.54576 0.21712 0.0
H219 H 0.43259 0.58957 0.22878 0.0
H220 H 0.63984 0.44045 0.56128 0.0
H221 H 0.61185 0.47893 0.61236 0.0
H222 H 0.5648 0.47002 0.33193 0.0
H223 H 0.5915 0.43116 0.28359 0.0
Tb224 Tb 1.00798 0.4967 0.89659 0.0
Eu225 Eu 0.02285 0.5318 0.68975 0.0
C226 C 0.02034 0.46675 0.68219 0.0
C227 C 0.06951 0.51739 0.85748 0.0
C228 C 0.97804 0.44694 0.08515 0.0
C229 C 0.94906 0.40874 0.04821 0.0
C230 C 0.9701 0.42601 0.01862 0.0
C231 C 0.96564 0.44972 0.18251 0.0
C232 C 0.94451 0.43287 0.21129 0.0
C233 C 0.93563 0.41241 0.144 0.0
C234 C 0.99767 0.46746 0.0534 0.0
O235 O 1.0133 0.53682 0.96224 0.0
O236 O 1.01255 0.56307 0.8142 0.0
O237 O 0.9809 0.51538 0.66339 0.0
O238 O 0.968 0.508 0.83257 0.0
C239 C 1.01205 0.56061 0.91682 0.0
O240 O 1.01255 0.56587 0.58849 0.0
O241 O 0.04393 0.53789 0.54226 0.0
O242 O 0.03277 0.48848 0.64771 0.0
O243 O 1.00579 0.46758 0.76833 0.0
O244 O 0.05213 0.50147 0.90611 0.0
O245 O 0.0626 0.5322 0.77624 0.0
C246 C 0.96187 0.51106 0.73291 0.0
O247 O 0.01512 0.46105 0.9813 0.0
O248 O 0.98784 0.49157 0.03928 0.0
C249 C 0.04827 0.5823 0.48161 0.0
C250 C 0.08788 0.61917 0.41451 0.0
C251 C 0.07388 0.62335 0.50887 0.0
C252 C 0.05427 0.60491 0.5426 0.0
C253 C 0.06063 0.57929 0.3842 0.0
C254 C 0.08017 0.59748 0.35084 0.0
C255 C 0.03126 0.56022 0.52021 0.0
H256 H 0.9426 0.39328 0.99463 0.0
H257 H 0.97945 0.4236 0.94267 0.0
H258 H 0.97151 0.46577 0.23467 0.0
H259 H 0.93433 0.43686 0.28455 0.0
H260 H 0.07921 0.6399 0.55938 0.0
H261 H 0.04483 0.6076 0.61823 0.0
H262 H 0.05616 0.562 0.33601 0.0
H263 H 0.09068 0.5931 0.27865 0.0
C264 C 0.19758 0.03245 0.28649 0.0
C265 C 0.20315 1.00749 0.24034 0.0
C266 C 0.17284 0.03713 0.33943 0.0
C267 C 0.15327 0.01625 0.34791 0.0
C268 C 0.15844 0.99152 0.2967 0.0
C269 C 0.18297 0.98765 0.24279 0.0
C270 C 0.16837 0.06386 0.39191 0.0
C271 C 0.13913 0.96813 0.30573 0.0
C272 C 0.10653 1.01125 0.58676 0.0
C273 C 0.08156 0.02036 0.54829 0.0
C274 C 0.1299 1.01061 0.52356 0.0
C275 C 0.12869 0.01907 0.4177 0.0
C276 C 0.10362 0.02848 0.37814 0.0
C277 C 0.08052 0.02924 0.44381 0.0
C278 C 0.15594 1.00042 0.57017 0.0
C279 C 0.10114 0.03761 0.26602 0.0
H280 H 0.21318 0.04774 0.28634 0.0
H281 H 0.18721 0.96827 0.20786 0.0
H282 H 0.14818 0.07199 0.37191 0.0
H283 H 0.16892 0.06103 0.47787 0.0
H284 H 0.18394 0.07893 0.36929 0.0
H285 H 0.14281 0.95295 0.24403 0.0
H286 H 0.14191 0.95807 0.38255 0.0
H287 H 0.1179 0.97502 0.30163 0.0
H288 H 0.10792 1.0045 0.66717 0.0
H289 H 0.06152 0.0364 0.41263 0.0
H290 H 0.1721 0.01564 0.5593 0.0
H291 H 0.1625 0.98188 0.52936 0.0
H292 H 0.15396 0.99576 0.65481 0.0
H293 H 0.11042 0.02264 0.21285 0.0
H294 H 0.11221 0.05685 0.25499 0.0
H295 H 0.0798 0.04077 0.24284 0.0
C296 C 0.54327 0.18392 0.29666 0.0
C297 C 0.52228 0.20235 0.27763 0.0
C298 C 0.53904 0.15985 0.35326 0.0
C299 C 0.51267 0.15241 0.38517 0.0
C300 C 0.49088 0.1697 0.35757 0.0
C301 C 0.49597 0.1947 0.30634 0.0
C302 C 0.56319 0.14331 0.38535 0.0
C303 C 0.46227 0.16231 0.38577 0.0
C304 C 0.50721 0.07774 0.46624 0.0
C305 C 0.50809 0.07899 0.57572 0.0
C306 C 0.50703 0.1014 0.40378 0.0
C307 C 0.50861 0.12718 0.45096 0.0
C308 C 0.50923 0.12849 0.56164 0.0
C309 C 0.50852 0.10456 0.62227 0.0
C310 C 0.50544 0.09882 0.28685 0.0
C311 C 0.51181 0.1552 0.61629 0.0
H312 H 0.56357 0.18931 0.27294 0.0
H313 H 0.47956 0.20868 0.29257 0.0
H314 H 0.56511 0.14356 0.47159 0.0
H315 H 0.56048 0.12201 0.36232 0.0
H316 H 0.58222 0.15117 0.35085 0.0
H317 H 0.44741 0.17528 0.34453 0.0
H318 H 0.45822 0.14092 0.3665 0.0
H319 H 0.45919 0.16463 0.47101 0.0
H320 H 0.50659 0.05819 0.42918 0.0
H321 H 0.50937 0.10586 0.70661 0.0
H322 H 0.48677 0.10873 0.25837 0.0
H323 H 0.50546 0.07748 0.26122 0.0
H324 H 0.52267 0.10939 0.24969 0.0
H325 H 0.53097 0.16512 0.59264 0.0
H326 H 0.51154 0.15298 0.70264 0.0
H327 H 0.49513 0.16882 0.59287 0.0
C328 C 0.34204 0.54665 0.30818 0.0
C329 C 0.32189 0.52678 0.30566 0.0
C330 C 0.36661 0.54245 0.3608 0.0
C331 C 0.37178 0.5174 0.41094 0.0
C332 C 0.35221 0.49658 0.4028 0.0
C333 C 0.32745 0.50157 0.35114 0.0
C334 C 0.38634 0.5655 0.36771 0.0
C335 C 0.35697 0.46934 0.45221 0.0
C336 C 0.44564 0.50468 0.48819 0.0
C337 C 0.44568 0.51107 0.59501 0.0
C338 C 0.42171 0.50562 0.4285 0.0
C339 C 0.39704 0.51374 0.4755 0.0
C340 C 0.39697 0.52007 0.58343 0.0
C341 C 0.42105 0.51833 0.64176 0.0
C342 C 0.42282 0.49783 0.31494 0.0
C343 C 0.3715 0.52944 0.637 0.0
H344 H 0.33794 0.56612 0.27282 0.0
H345 H 0.31195 0.48619 0.35041 0.0
H346 H 0.38572 0.57388 0.44775 0.0
H347 H 0.40723 0.55844 0.35311 0.0
H348 H 0.38158 0.58196 0.31148 0.0
H349 H 0.34126 0.4545 0.43026 0.0
H350 H 0.37702 0.46142 0.42867 0.0
H351 H 0.35701 0.47126 0.53841 0.0
H352 H 0.46438 0.49874 0.45103 0.0
H353 H 0.42069 0.52343 0.7238 0.0
H354 H 0.41289 0.51336 0.26566 0.0
H355 H 0.41159 0.47873 0.30411 0.0
H356 H 0.44383 0.49495 0.28667 0.0
H357 H 0.36428 0.54835 0.59966 0.0
H358 H 0.37454 0.53318 0.72153 0.0
H359 H 0.35536 0.51418 0.62812 0.0
C360 C 0.99867 0.34075 0.29919 0.0
C361 C 0.01502 0.31827 0.31928 0.0
C362 C 1.00155 0.36496 0.35516 0.0
C363 C 0.02166 0.36731 0.43282 0.0
C364 C 0.03929 0.34507 0.44954 0.0
C365 C 0.03562 0.3208 0.39341 0.0
C366 C 0.98209 0.38761 0.33425 0.0
C367 C 0.06121 0.34645 0.53044 0.0
C368 C 0.03725 0.43916 0.52836 0.0
C369 C 0.02174 0.44096 0.62042 0.0
C370 C 0.03805 0.41528 0.46844 0.0
C371 C 0.02289 0.39233 0.50012 0.0
C372 C 1.00744 0.39394 0.59353 0.0
C373 C 1.00711 0.418 0.65219 0.0
C374 C 0.05483 0.41477 0.36995 0.0
C375 C 0.99059 0.37036 0.63042 0.0
H376 H 0.98247 0.33873 0.2433 0.0
H377 H 0.04791 0.30333 0.41129 0.0
H378 H 0.97142 0.39332 0.40713 0.0
H379 H 0.99325 0.4056 0.30585 0.0
H380 H 0.96688 0.38191 0.27533 0.0
H381 H 0.075 0.32883 0.52665 0.0
H382 H 0.07319 0.36517 0.51999 0.0
H383 H 0.05199 0.3471 0.60946 0.0
H384 H 0.04871 0.45657 0.50232 0.0
H385 H 0.99499 0.41887 0.72269 0.0
H386 H 0.04144 0.413 0.30122 0.0
H387 H 0.06831 0.39691 0.37023 0.0
H388 H 0.0673 0.43322 0.36037 0.0
H389 H 0.97496 0.36576 0.57145 0.0
H390 H 0.98044 0.37432 0.70625 0.0
H391 H 1.0034 0.35215 0.63891 0.0
C392 C 0.83243 0.99313 0.24018 0.0
C393 C 0.82524 0.01898 0.27506 0.0
C394 C 0.85717 0.98858 0.18671 0.0
C395 C 0.87465 1.01053 0.16272 0.0
C396 C 0.8677 0.03639 0.20018 0.0
C397 C 0.8439 0.03996 0.25899 0.0
C398 C 0.8643 0.9604 0.1533 0.0
C399 C 0.88481 0.06069 0.17395 0.0
C400 C 0.94843 1.00567 0.06824 0.0
C401 C 0.9458 1.00862 0.95962 0.0
C402 C 0.92558 1.00462 0.13489 0.0
C403 C 0.89918 1.00728 0.0929 0.0
C404 C 0.89648 1.00992 0.98303 0.0
C405 C 0.9196 1.01024 0.91828 0.0
C406 C 0.93031 1.00163 0.25049 0.0
C407 C 0.86913 1.01389 0.93381 0.0
H408 H 0.81837 0.97667 0.25122 0.0
H409 H 0.83903 0.05981 0.28792 0.0
H410 H 0.86325 0.95895 0.06708 0.0
H411 H 0.88532 0.95557 0.17645 0.0
H412 H 0.85051 0.94512 0.18808 0.0
H413 H 0.87466 0.0798 0.19562 0.0
H414 H 0.90431 0.0592 0.21568 0.0
H415 H 0.88935 0.06151 0.0891 0.0
H416 H 0.96842 1.00426 0.10173 0.0
H417 H 0.91709 1.01271 0.83477 0.0
H418 H 0.91202 0.99515 0.29403 0.0
H419 H 0.93723 0.02126 0.28141 0.0
H420 H 0.94665 0.98679 0.26543 0.0
H421 H 0.85538 0.99726 0.95696 0.0
H422 H 0.87024 0.01479 0.84723 0.0
H423 H 0.86004 0.03294 0.96224 0.0
C424 C 0.55007 0.83668 0.27738 0.0
C425 C 0.52557 0.82569 0.31283 0.0
C426 C 0.55105 0.86157 0.22245 0.0
C427 C 0.52688 0.87595 0.20113 0.0
C428 C 0.50231 0.86558 0.24235 0.0
C429 C 0.50198 0.84078 0.29738 0.0
C430 C 0.57774 0.8713 0.17977 0.0
C431 C 0.47585 0.8794 0.22098 0.0
C432 C 0.52963 0.94898 0.09367 0.0
C433 C 0.52431 0.9454 0.98685 0.0
C434 C 0.53053 0.92679 0.1642 0.0
C435 C 0.5268 0.90008 0.12741 0.0
C436 C 0.52207 0.89639 0.01924 0.0
C437 C 0.52059 0.91891 0.95121 0.0
C438 C 0.53539 0.93203 0.27836 0.0
C439 C 0.51843 0.86852 0.97492 0.0
H440 H 0.56823 0.82471 0.28554 0.0
H441 H 0.48288 0.83198 0.3209 0.0
H442 H 0.57776 0.86962 0.09343 0.0
H443 H 0.5808 0.89284 0.19878 0.0
H444 H 0.59495 0.85944 0.21102 0.0
H445 H 0.46019 0.87317 0.27845 0.0
H446 H 0.47811 0.90161 0.22226 0.0
H447 H 0.4687 0.87376 0.14222 0.0
H448 H 0.53248 0.96922 0.12285 0.0
H449 H 0.51664 0.91565 0.86913 0.0
H450 H 0.5564 0.92634 0.29811 0.0
H451 H 0.52176 0.91957 0.32782 0.0
H452 H 0.53244 0.95359 0.29819 0.0
H453 H 0.53575 0.85551 0.99674 0.0
H454 H 0.51663 0.8688 0.88853 0.0
H455 H 0.5 0.85911 0.00834 0.0
C456 C 0.70624 0.53628 0.21442 0.0
C457 C 0.71041 0.51266 0.27323 0.0
C458 C 0.6821 0.54028 0.15706 0.0
C459 C 0.66185 0.51997 0.15663 0.0
C460 C 0.66576 0.49671 0.21944 0.0
C461 C 0.68956 0.49361 0.2779 0.0
C462 C 0.67888 0.56561 0.09267 0.0
C463 C 0.64551 0.47416 0.22006 0.0
C464 C 0.58915 0.53092 0.05996 0.0
C465 C 0.58981 0.51934 0.96001 0.0
C466 C 0.61249 0.53218 0.12313 0.0
C467 C 0.63742 0.52176 0.08611 0.0
C468 C 0.63831 0.51059 0.98441 0.0
C469 C 0.61469 0.50948 0.92321 0.0
C470 C 0.61024 0.54394 0.23108 0.0
C471 C 0.66417 0.49902 0.94105 0.0
H472 H 0.7224 0.55092 0.20896 0.0
H473 H 0.69278 0.47526 0.32252 0.0
H474 H 0.68013 0.56058 0.00856 0.0
H475 H 0.65875 0.57471 0.10674 0.0
H476 H 0.69467 0.58076 0.11031 0.0
H477 H 0.65118 0.45801 0.27591 0.0
H478 H 0.62529 0.48206 0.24062 0.0
H479 H 0.6441 0.46526 0.14109 0.0
H480 H 0.5702 0.5386 0.09003 0.0
H481 H 0.61573 0.50056 0.84634 0.0
H482 H 0.59052 0.55403 0.24417 0.0
H483 H 0.62664 0.55874 0.24413 0.0
H484 H 0.61253 0.52766 0.29023 0.0
H485 H 0.68055 0.51419 0.94494 0.0
H486 H 0.66204 0.49242 0.85883 0.0
H487 H 0.6705 0.48144 0.98903 0.0
C488 C 0.02201 0.69435 0.2803 0.0
C489 C 0.99649 0.70573 0.29788 0.0
C490 C 0.02508 0.66977 0.22592 0.0
C491 C 1.0021 0.65625 0.18589 0.0
C492 C 0.97619 0.66696 0.20881 0.0
C493 C 0.97375 0.6913 0.26482 0.0
C494 C 0.05311 0.65923 0.20595 0.0
C495 C 0.95101 0.65368 0.16819 0.0
C496 C 1.01024 0.6115 0.94258 0.0
C497 C 1.00989 0.58527 0.98507 0.0
C498 C 1.00794 0.63459 1.00664 0.0
C499 C 1.00512 0.63172 0.11666 0.0
C500 C 1.0048 0.60533 0.15995 0.0
C501 C 1.00724 0.58263 0.09431 0.0
C502 C 1.00831 0.66216 0.95626 0.0
C503 C 1.00144 0.60102 0.27597 0.0
H504 H 0.03971 0.70564 0.30307 0.0
H505 H 0.95401 0.70019 0.27647 0.0
H506 H 0.05382 0.63702 0.21578 0.0
H507 H 0.05908 0.66396 0.12429 0.0
H508 H 0.0681 0.66848 0.25898 0.0
H509 H 0.93237 0.66315 0.19936 0.0
H510 H 0.95071 0.6552 0.08174 0.0
H511 H 0.95083 0.63194 0.1889 0.0
H512 H 1.01229 0.61407 0.85886 0.0
H513 H 1.00682 0.56267 0.12915 0.0
H514 H 0.02531 0.67412 0.98763 0.0
H515 H 0.98944 0.67312 0.97548 0.0
H516 H 1.01041 0.66118 0.87001 0.0
H517 H 0.01586 0.61381 0.3193 0.0
H518 H 1.00443 0.57963 0.29921 0.0
H519 H 0.98086 0.60719 0.30016 0.0
C520 C 0.96366 0.21728 0.36328 0.0
C521 C 0.96026 0.23609 0.28338 0.0
C522 C 0.94413 0.19768 0.38307 0.0
C523 C 0.91952 0.19839 0.32666 0.0
C524 C 0.91511 0.21897 0.25137 0.0
C525 C 0.93591 0.23737 0.22907 0.0
C526 C 0.95049 0.17569 0.46169 0.0
C527 C 0.88895 0.22162 0.19265 0.0
C528 C 0.89816 0.12732 0.32288 0.0
C529 C 0.8891 0.12503 0.42634 0.0
C530 C 0.90417 0.15253 0.27961 0.0
C531 C 0.90037 0.17574 0.3412 0.0
C532 C 0.88553 0.17379 0.43556 0.0
C533 C 0.88062 0.1482 0.47904 0.0
C534 C 0.91922 0.1537 0.17708 0.0
C535 C 0.87865 0.19852 0.49778 0.0
H536 H 0.98212 0.21757 0.40819 0.0
H537 H 0.93316 0.25285 0.16994 0.0
H538 H 0.93663 0.17711 0.52954 0.0
H539 H 0.94773 0.15555 0.42619 0.0
H540 H 0.9715 0.17698 0.491 0.0
H541 H 0.88277 0.24313 0.18853 0.0
H542 H 0.892 0.21478 0.11118 0.0
H543 H 0.87231 0.2098 0.22867 0.0
H544 H 0.90486 0.10949 0.28199 0.0
H545 H 0.87309 0.14646 0.55838 0.0
H546 H 0.94084 0.15795 0.19199 0.0
H547 H 0.91124 0.17014 0.12706 0.0
H548 H 0.9178 0.13445 0.13374 0.0
H549 H 0.89593 0.20387 0.54823 0.0
H550 H 0.86085 0.19485 0.54893 0.0
H551 H 0.87446 0.21593 0.44533 0.0
C552 C 0.3144 0.97007 0.2719 0.0
C553 C 0.29029 0.95933 0.23554 0.0
C554 C 0.33544 0.95321 0.30315 0.0
C555 C 0.33199 0.92482 0.29908 0.0
C556 C 0.30723 0.91386 0.26518 0.0
C557 C 0.28666 0.93137 0.23261 0.0
C558 C 0.36126 0.96595 0.34142 0.0
C559 C 0.30236 0.88387 0.26154 0.0
C560 C 0.40173 0.8989 0.28146 0.0
C561 C 0.40881 0.90145 0.38679 0.0
C562 C 0.37493 0.90222 0.25042 0.0
C563 C 0.3551 0.90741 0.32726 0.0
C564 C 0.36135 0.90376 0.43394 0.0
C565 C 0.38842 0.90115 0.46302 0.0
C566 C 0.36886 0.90504 0.13565 0.0
C567 C 0.34016 0.90701 0.51771 0.0
H568 H 0.31666 0.99177 0.27578 0.0
H569 H 0.26775 0.92333 0.20453 0.0
H570 H 0.37901 0.95724 0.30091 0.0
H571 H 0.36148 0.98814 0.32934 0.0
H572 H 0.36361 0.96181 0.42608 0.0
H573 H 0.30809 0.87632 0.18325 0.0
H574 H 0.31437 0.87279 0.32078 0.0
H575 H 0.28067 0.87917 0.27396 0.0
H576 H 0.41743 0.89798 0.22243 0.0
H577 H 0.3936 0.90237 0.54495 0.0
H578 H 0.36741 0.92677 0.11542 0.0
H579 H 0.34929 0.89553 0.11673 0.0
H580 H 0.38491 0.8959 0.0865 0.0
H581 H 0.3375 0.92875 0.53485 0.0
H582 H 0.34618 0.89661 0.59109 0.0
H583 H 0.32045 0.89893 0.49168 0.0
C584 C 0.56035 0.3146 0.29277 0.0
C585 C 0.57002 0.28961 0.26122 0.0
C586 C 0.57816 0.335 0.3212 0.0
C587 C 0.60639 0.32999 0.31871 0.0
C588 C 0.61622 0.30442 0.28892 0.0
C589 C 0.59779 0.28452 0.2594 0.0
C590 C 0.56658 0.36177 0.35518 0.0
C591 C 0.64594 0.2979 0.28675 0.0
C592 C 0.63421 0.39834 0.2929 0.0
C593 C 0.63035 0.40631 0.39673 0.0
C594 C 0.63112 0.37131 0.26541 0.0
C595 C 0.62486 0.35231 0.34449 0.0
C596 C 0.62793 0.35936 0.45041 0.0
C597 C 0.63032 0.38664 0.47589 0.0
C598 C 0.62926 0.36425 0.15141 0.0
C599 C 0.62377 0.33894 0.53666 0.0
H600 H 0.53876 0.31798 0.29583 0.0
H601 H 0.60498 0.26491 0.23506 0.0
H602 H 0.57599 0.37856 0.31056 0.0
H603 H 0.54439 0.36285 0.34443 0.0
H604 H 0.57093 0.365 0.43899 0.0
H605 H 0.65393 0.30168 0.20696 0.0
H606 H 0.65759 0.31034 0.34225 0.0
H607 H 0.64942 0.27628 0.30542 0.0
H608 H 0.63548 0.41347 0.23166 0.0
H609 H 0.62829 0.39253 0.55686 0.0
H610 H 0.6077 0.36346 0.12879 0.0
H611 H 0.63824 0.34417 0.13655 0.0
H612 H 0.63954 0.37947 0.10116 0.0
H613 H 0.60187 0.33698 0.55348 0.0
H614 H 0.63395 0.3453 0.60949 0.0
H615 H 0.6315 0.31885 0.5134 0.0
C616 C 0.23858 0.60282 0.27193 0.0
C617 C 0.23472 0.57495 0.28121 0.0
C618 C 0.21754 0.62084 0.29447 0.0
C619 C 0.19221 0.61048 0.32631 0.0
C620 C 0.18853 0.5822 0.33731 0.0
C621 C 0.20995 0.56486 0.31528 0.0
C622 C 0.22275 0.65075 0.28674 0.0
C623 C 0.16206 0.57007 0.37337 0.0
C624 C 0.13307 0.63469 0.47264 0.0
C625 C 0.114 0.63276 0.39232 0.0
C626 C 0.16068 0.63293 0.44986 0.0
C627 C 0.16881 0.62838 0.34564 0.0
C628 C 0.1502 0.63266 0.26386 0.0
C629 C 0.12283 0.63551 0.28856 0.0
C630 C 0.18048 0.63103 0.53853 0.0
C631 C 0.15805 0.62874 0.15118 0.0
H632 H 0.25804 0.61039 0.24653 0.0
H633 H 0.20746 0.54326 0.32438 0.0
H634 H 0.205 0.66181 0.25612 0.0
H635 H 0.22696 0.65856 0.36592 0.0
H636 H 0.24048 0.65528 0.23623 0.0
H637 H 0.14504 0.57834 0.32736 0.0
H638 H 0.16186 0.54776 0.36664 0.0
H639 H 0.15843 0.57522 0.45633 0.0
H640 H 0.12668 0.63366 0.55355 0.0
H641 H 0.10819 0.63549 0.22601 0.0
H642 H 0.17307 0.64215 0.60793 0.0
H643 H 0.20046 0.63914 0.51486 0.0
H644 H 0.18315 0.60957 0.56132 0.0
H645 H 0.17877 0.6361 0.13518 0.0
H646 H 0.1438 0.63918 0.09778 0.0
H647 H 0.15746 0.60688 0.13379 0.0
C648 C 0.02697 0.79091 0.13559 0.0
C649 C 1.00748 0.79831 0.20982 0.0
C650 C 0.04133 0.81031 0.07956 0.0
C651 C 0.03786 0.83764 0.10547 0.0
C652 C 0.01705 0.84541 0.17593 0.0
C653 C 1.00131 0.82545 0.22421 0.0
C654 C 0.06144 0.80135 0.99805 0.0
C655 C 1.01183 0.87438 0.20584 0.0
C656 C 0.09909 0.8827 0.08709 0.0
C657 C 0.08979 0.9021 0.01669 0.0
C658 C 0.08311 0.86032 0.11242 0.0
C659 C 0.05731 0.85768 0.06559 0.0
C660 C 0.0491 0.8759 0.98702 0.0
C661 C 0.06531 0.89815 0.96469 0.0
C662 C 0.09398 0.84056 0.1921 0.0
C663 C 0.02244 0.87278 0.93166 0.0
H664 H 0.03189 0.76985 0.12465 0.0
H665 H 0.9859 0.83098 0.28042 0.0
H666 H 0.0625 0.81596 0.93208 0.0
H667 H 0.08174 0.7999 0.03362 0.0
H668 H 0.05619 0.78119 0.9669 0.0
H669 H 1.00892 0.87588 0.2914 0.0
H670 H 0.02824 0.8884 0.18292 0.0
H671 H 0.99277 0.88127 0.16924 0.0
H672 H 0.11797 0.88597 0.12749 0.0
H673 H 0.0577 0.91369 0.91301 0.0
H674 H 0.10964 0.82793 0.15427 0.0
H675 H 0.07843 0.82705 0.22594 0.0
H676 H 0.10399 0.85146 0.25669 0.0
H677 H 0.02103 0.85233 0.89756 0.0
H678 H 0.01962 0.88805 0.86915 0.0
H679 H 1.0055 0.87494 0.98753 0.0
C680 C 0.73491 0.08784 0.38682 0.0
C681 C 0.73802 0.06614 0.31903 0.0
C682 C 0.71288 0.10541 0.37656 0.0
C683 C 0.69309 0.10002 0.30009 0.0
C684 C 0.69704 0.07848 0.22891 0.0
C685 C 0.72007 0.06251 0.23727 0.0
C686 C 0.71055 0.12871 0.4509 0.0
C687 C 0.67614 0.07076 0.14873 0.0
C688 C 0.61955 0.1018 0.33592 0.0
C689 C 0.61283 0.11245 0.23803 0.0
C690 C 0.64632 0.10161 0.3688 0.0
C691 C 0.66629 0.11315 0.30325 0.0
C692 C 0.6584 0.12974 0.21865 0.0
C693 C 0.63159 0.12866 0.18461 0.0
C694 C 0.65345 0.08622 0.46659 0.0
C695 C 0.67886 0.14549 0.15591 0.0
H696 H 0.74948 0.09076 0.44852 0.0
H697 H 0.72328 0.04586 0.18433 0.0
H698 H 0.69507 0.14363 0.42678 0.0
H699 H 0.7055 0.12092 0.53002 0.0
H700 H 0.7303 0.13913 0.45693 0.0
H701 H 0.6813 0.05171 0.10819 0.0
H702 H 0.65609 0.06814 0.18627 0.0
H703 H 0.67435 0.08686 0.08881 0.0
H704 H 0.60445 0.09091 0.38086 0.0
H705 H 0.62625 0.13809 0.11097 0.0
H706 H 0.66129 0.10055 0.52503 0.0
H707 H 0.66944 0.07115 0.45103 0.0
H708 H 0.63576 0.07561 0.501 0.0
H709 H 0.69619 0.15149 0.20517 0.0
H710 H 0.66954 0.16381 0.12112 0.0
H711 H 0.6866 0.13292 0.0911 0.0
C712 C 0.47432 0.74064 0.1817 0.0
C713 C 0.49782 0.73417 0.23681 0.0
C714 C 0.45906 0.72061 0.13412 0.0
C715 C 0.46638 0.6934 0.14961 0.0
C716 C 0.49046 0.68678 0.20401 0.0
C717 C 0.50658 0.7075 0.24272 0.0
C718 C 0.43474 0.72854 0.07046 0.0
C719 C 0.49904 0.65793 0.22384 0.0
C720 C 0.41496 0.63762 0.13902 0.0
C721 C 0.42639 0.62174 0.06085 0.0
C722 C 0.42617 0.66266 0.16347 0.0
C723 C 0.44939 0.67165 0.10795 0.0
C724 C 0.45885 0.65717 0.0207 0.0
C725 C 0.44713 0.63233 0.99803 0.0
C726 C 0.41378 0.67796 0.25318 0.0
C727 C 0.4823 0.66714 0.95475 0.0
H728 H 0.46758 0.76139 0.17791 0.0
H729 H 0.52497 0.70281 0.28455 0.0
H730 H 0.43352 0.71627 0.9985 0.0
H731 H 0.41614 0.72487 0.11681 0.0
H732 H 0.43524 0.75021 0.04801 0.0
H733 H 0.51029 0.65032 0.15511 0.0
H734 H 0.51254 0.65633 0.2925 0.0
H735 H 0.48143 0.64453 0.23738 0.0
H736 H 0.39878 0.62943 0.18692 0.0
H737 H 0.45615 0.61996 0.93795 0.0
H738 H 0.39324 0.68466 0.23054 0.0
H739 H 0.42543 0.6959 0.27703 0.0
H740 H 0.41133 0.66437 0.32188 0.0
H741 H 0.4752 0.68394 0.9043 0.0
H742 H 0.49087 0.65099 0.90512 0.0
H743 H 0.49899 0.67527 1.00205 0.0
C744 C 0.78908 0.43307 0.31719 0.0
C745 C 0.79469 0.46069 0.31046 0.0
C746 C 0.80877 0.41394 0.29091 0.0
C747 C 0.83453 0.42292 0.25812 0.0
C748 C 0.84018 0.45098 0.2523 0.0
C749 C 0.82004 0.46945 0.27782 0.0
C750 C 0.80144 0.38444 0.29431 0.0
C751 C 0.86728 0.46172 0.2168 0.0
C752 C 0.90256 0.39405 0.27268 0.0
C753 C 0.90975 0.39874 0.16802 0.0
C754 C 0.87575 0.39719 0.30479 0.0
C755 C 0.85615 0.40378 0.22906 0.0
C756 C 0.86237 0.40077 0.12203 0.0
C757 C 0.88948 0.39871 0.09204 0.0
C758 C 0.8697 0.399 0.42 0.0
C759 C 0.84129 0.40512 0.03925 0.0
H760 H 0.76918 0.42655 0.34186 0.0
H761 H 0.82389 0.49089 0.27089 0.0
H762 H 0.79388 0.37847 0.21645 0.0
H763 H 0.81901 0.37146 0.31307 0.0
H764 H 0.78517 0.38045 0.35228 0.0
H765 H 0.86886 0.48392 0.22558 0.0
H766 H 0.88376 0.45218 0.2621 0.0
H767 H 0.87057 0.4569 0.13332 0.0
H768 H 0.9182 0.39246 0.33128 0.0
H769 H 0.8947 0.40117 0.01027 0.0
H770 H 0.88443 0.38718 0.46671 0.0
H771 H 0.84904 0.39175 0.43812 0.0
H772 H 0.87104 0.4204 0.44417 0.0
H773 H 0.84711 0.39513 0.96517 0.0
H774 H 0.83915 0.42705 0.02336 0.0
H775 H 0.82141 0.3973 0.06559 0.0
C776 C 1.00982 0.20157 0.19486 0.0
C777 C 1.00837 0.22687 0.14525 0.0
C778 C 1.0099 0.17725 0.13799 0.0
C779 C 1.01041 0.17783 0.02715 0.0
C780 C 1.01043 0.20344 0.9763 0.0
C781 C 1.00899 0.22751 0.03561 0.0
C782 C 1.00842 0.15086 0.19708 0.0
C783 C 1.01131 0.20542 0.85892 0.0
C784 C 0.03547 0.11205 0.90036 0.0
C785 C 1.01156 0.09989 0.86507 0.0
C786 C 0.03543 0.13765 0.94864 0.0
C787 C 1.0108 0.15161 0.96587 0.0
C788 C 0.9866 0.13964 0.92881 0.0
C789 C 0.98734 0.1143 0.87812 0.0
C790 C 0.06195 0.1498 0.98132 0.0
C791 C 0.95965 0.15338 0.94144 0.0
H792 H 1.01042 0.20074 0.27906 0.0
H793 H 1.00771 0.24686 0.99621 0.0
H794 H 0.02715 0.13912 0.18424 0.0
H795 H 1.00563 0.1538 0.28235 0.0
H796 H 0.99136 0.13862 0.16768 0.0
H797 H 0.01447 0.22646 0.83125 0.0
H798 H 0.02771 0.19254 0.82747 0.0
H799 H 0.99202 0.19795 0.82659 0.0
H800 H 0.05443 0.10151 0.89016 0.0
H801 H 0.96867 0.10547 0.85098 0.0
H802 H 0.06289 0.15085 0.06764 0.0
H803 H 0.06368 0.17072 0.95068 0.0
H804 H 0.0795 0.13795 0.95313 0.0
H805 H 0.95909 0.16705 0.00944 0.0
H806 H 0.94317 0.13835 0.94996 0.0
H807 H 0.95547 0.16551 0.87024 0.0
C808 C 0.30938 0.02558 0.06572 0.0
C809 C 0.29537 1.00099 0.06751 0.0
C810 C 0.33515 0.02797 0.01759 0.0
C811 C 0.34774 1.00512 0.97154 0.0
C812 C 0.33315 0.9805 0.97022 0.0
C813 C 0.30721 0.97893 0.01622 0.0
C814 C 0.34935 0.05481 0.0193 0.0
C815 C 0.34515 0.95543 0.9228 0.0
C816 C 0.41023 1.01142 0.79032 0.0
C817 C 0.43176 1.00771 0.86013 0.0
C818 C 0.38298 1.01125 0.82519 0.0
C819 C 0.37674 1.00636 0.93219 0.0
C820 C 0.39846 1.00186 1.00209 0.0
C821 C 0.42543 1.00308 0.96593 0.0
C822 C 0.36084 0.01649 0.74739 0.0
C823 C 0.39317 0.99513 0.11534 0.0
H824 H 0.30072 0.04267 0.10595 0.0
H825 H 0.29649 0.95991 0.01615 0.0
H826 H 0.36694 0.05363 0.07233 0.0
H827 H 0.35711 0.06 0.94026 0.0
H828 H 0.33588 0.07127 0.04631 0.0
H829 H 0.33379 0.93699 0.94569 0.0
H830 H 0.34475 0.95724 0.83652 0.0
H831 H 0.3665 0.95285 0.94638 0.0
H832 H 0.41471 0.01513 0.70859 0.0
H833 H 0.44171 0.99985 0.02081 0.0
H834 H 0.34723 0.0326 0.77625 0.0
H835 H 0.34851 0.99804 0.73805 0.0
H836 H 0.36888 0.02254 0.66961 0.0
H837 H 0.41199 0.99071 0.15896 0.0
H838 H 0.37972 0.97731 0.12092 0.0
H839 H 0.38263 1.01214 0.15366 0.0
C840 C 0.55083 0.30492 0.0399 0.0
C841 C 0.52864 0.29354 0.09313 0.0
C842 C 0.54944 0.3306 0.99118 0.0
C843 C 0.52497 0.3455 0.99238 0.0
C844 C 0.50204 0.33341 0.04106 0.0
C845 C 0.50418 0.30783 0.09114 0.0
C846 C 0.57458 0.3421 0.94119 0.0
C847 C 0.4754 0.34803 0.04398 0.0
C848 C 0.52811 0.42321 0.97759 0.0
C849 C 0.52259 0.429 0.87203 0.0
C850 C 0.52921 0.39644 0.01654 0.0
C851 C 0.52395 0.37432 0.9499 0.0
C852 C 0.51832 0.37998 0.84312 0.0
C853 C 0.51802 0.40703 0.80544 0.0
C854 C 0.53654 0.3918 0.12938 0.0
C855 C 0.51239 0.35741 0.76854 0.0
H856 H 0.56979 0.29407 0.04041 0.0
H857 H 0.48702 0.29956 0.13302 0.0
H858 H 0.57197 0.34301 0.85533 0.0
H859 H 0.57815 0.36299 0.96823 0.0
H860 H 0.59275 0.3298 0.95865 0.0
H861 H 0.45886 0.33506 0.07458 0.0
H862 H 0.4771 0.36601 0.09452 0.0
H863 H 0.46996 0.35525 0.96462 0.0
H864 H 0.532 0.43974 0.03027 0.0
H865 H 0.51365 0.41099 0.72397 0.0
H866 H 0.55462 0.37868 0.13392 0.0
H867 H 0.51988 0.38117 0.17047 0.0
H868 H 0.54084 0.41088 0.17098 0.0
H869 H 0.53027 0.34411 0.76148 0.0
H870 H 0.50698 0.36497 0.68953 0.0
H871 H 0.49555 0.34489 0.79922 0.0
C872 C 0.21752 0.50599 0.12731 0.0
C873 C 0.2311 0.53081 0.12457 0.0
C874 C 0.19231 0.50254 0.07703 0.0
C875 C 0.17982 0.52458 0.02435 0.0
C876 C 0.19399 0.54942 0.01871 0.0
C877 C 0.21944 0.552 0.06685 0.0
C878 C 0.17866 0.47543 0.0828 0.0
C879 C 0.18211 0.57365 0.96381 0.0
C880 C 0.12033 0.51548 0.83368 0.0
C881 C 0.09776 0.51909 0.89885 0.0
C882 C 0.14696 0.51633 0.87353 0.0
C883 C 0.15146 0.52217 0.98057 0.0
C884 C 0.12861 0.52658 0.04571 0.0
C885 C 0.10224 0.52435 1.00492 0.0
C886 C 0.17031 0.51091 0.80081 0.0
C887 C 0.13206 0.53465 0.15808 0.0
H888 H 0.22608 0.48955 0.17232 0.0
H889 H 0.22989 0.57116 0.06306 0.0
H890 H 0.16035 0.4768 0.13256 0.0
H891 H 0.17209 0.46917 1.00388 0.0
H892 H 0.19209 0.45961 0.11572 0.0
H893 H 0.19253 0.5926 0.98555 0.0
H894 H 0.18416 0.57112 0.87825 0.0
H895 H 0.16031 0.57577 0.98188 0.0
H896 H 0.11712 0.51134 0.75171 0.0
H897 H 0.08499 0.52752 0.0557 0.0
H898 H 0.18437 0.49612 0.83654 0.0
H899 H 0.18174 0.52981 0.7869 0.0
H900 H 0.16354 0.50309 0.72426 0.0
H901 H 0.14435 0.5533 0.16148 0.0
H902 H 0.14311 0.51872 0.20148 0.0
H903 H 0.11248 0.53836 0.19799 0.0
C904 C 0.99318 0.80711 0.52528 0.0
C905 C 1.01097 0.7989 0.44597 0.0
C906 C 0.99588 0.83247 0.57513 0.0
C907 C 0.01604 0.85117 0.54181 0.0
C908 C 0.03497 0.84223 0.46543 0.0
C909 C 0.0327 0.81611 0.42174 0.0
C910 C 0.97628 0.8396 0.66087 0.0
C911 C 0.05709 0.86027 0.42375 0.0
C912 C 0.99653 0.92612 0.58212 0.0
C913 C 0.01569 0.93539 0.6542 0.0
C914 C 0.99639 0.89924 0.54533 0.0
C915 C 0.01593 0.88028 0.5812 0.0
C916 C 0.03556 0.8896 0.65351 0.0
C917 C 0.03532 0.91684 0.68806 0.0
C918 C 0.97494 0.89198 0.46714 0.0
C919 C 0.05694 0.87074 0.69479 0.0
H920 H 0.97639 0.79409 0.54556 0.0
H921 H 0.04694 0.80992 0.36219 0.0
H922 H 0.98641 0.85122 0.72321 0.0
H923 H 0.9599 0.85229 0.62816 0.0
H924 H 0.96697 0.82131 0.6962 0.0
H925 H 0.05632 0.86087 0.33748 0.0
H926 H 0.05598 0.8813 0.45181 0.0
H927 H 0.07695 0.8516 0.44523 0.0
H928 H 0.98126 0.93998 0.55389 0.0
H929 H 0.05083 0.92376 0.7405 0.0
H930 H 0.97715 0.87153 0.43414 0.0
H931 H 0.97514 0.90683 0.40182 0.0
H932 H 0.95482 0.89346 0.50511 0.0
H933 H 0.04765 0.85162 0.72255 0.0
H934 H 0.06862 0.87978 0.75925 0.0
H935 H 0.07137 0.86569 0.63171 0.0
C936 C 0.73296 0.01759 0.56706 0.0
C937 C 0.73361 0.01808 0.4574 0.0
C938 C 0.70834 0.01431 0.6234 0.0
C939 C 0.68317 1.01348 0.56958 0.0
C940 C 0.68404 1.01396 0.45842 0.0
C941 C 0.70902 0.0149 0.40507 0.0
C942 C 0.70978 1.01229 0.74067 0.0
C943 C 0.65873 0.01433 0.39317 0.0
C944 C 0.613 0.9878 0.65559 0.0
C945 C 0.60121 1.01037 0.70375 0.0
C946 C 0.64003 0.9879 0.6195 0.0
C947 C 0.65606 1.0116 0.62675 0.0
C948 C 0.64476 0.03397 0.68137 0.0
C949 C 0.61775 0.033 0.71904 0.0
C950 C 0.65096 0.96217 0.57342 0.0
C951 C 0.66085 0.05911 0.70277 0.0
H952 H 0.75167 0.02019 0.60916 0.0
H953 H 0.70921 0.01419 0.32074 0.0
H954 H 0.71239 0.03277 0.77325 0.0
H955 H 0.69149 1.00299 0.7757 0.0
H956 H 0.72765 1.00025 0.7645 0.0
H957 H 0.65408 0.99354 0.36787 0.0
H958 H 0.64106 0.02253 0.4358 0.0
H959 H 0.66176 0.02667 0.32134 0.0
H960 H 0.60103 0.96975 0.64539 0.0
H961 H 0.60939 0.05042 0.75825 0.0
H962 H 0.67331 0.96173 0.56999 0.0
H963 H 0.64285 0.95968 0.49354 0.0
H964 H 0.64398 0.94453 0.62008 0.0
H965 H 0.66902 0.05775 0.78311 0.0
H966 H 0.64774 0.07726 0.6999 0.0
H967 H 0.67796 0.06198 0.6479 0.0
C968 C 0.48551 0.71589 0.45785 0.0
C969 C 0.508 0.73289 0.46981 0.0
C970 C 0.48491 0.68935 0.49952 0.0
C971 C 0.50554 0.68028 0.56848 0.0
C972 C 0.52613 0.69926 0.59412 0.0
C973 C 0.52772 0.72459 0.5416 0.0
C974 C 0.46275 0.67105 0.46227 0.0
C975 C 0.54735 0.69285 0.67449 0.0
C976 C 0.48983 0.61265 0.71417 0.0
C977 C 0.51149 0.59602 0.68432 0.0
C978 C 0.48723 0.63963 0.67674 0.0
C979 C 0.50694 0.65093 0.6072 0.0
C980 C 0.52815 0.63359 0.57339 0.0
C981 C 0.53033 0.60697 0.61323 0.0
C982 C 0.46243 0.65522 0.70863 0.0
C983 C 0.54859 0.64224 0.49199 0.0
H984 H 0.46923 0.72241 0.40752 0.0
H985 H 0.54497 0.73751 0.55449 0.0
H986 H 0.45988 0.67377 0.37747 0.0
H987 H 0.46673 0.64938 0.47682 0.0
H988 H 0.44345 0.677 0.49972 0.0
H989 H 0.55242 0.71117 0.71968 0.0
H990 H 0.54082 0.67683 0.72995 0.0
H991 H 0.56608 0.68629 0.63443 0.0
H992 H 0.47451 0.60446 0.76595 0.0
H993 H 0.54693 0.59452 0.58662 0.0
H994 H 0.44612 0.65132 0.65207 0.0
H995 H 0.46623 0.67723 0.712 0.0
H996 H 0.45434 0.64814 0.78454 0.0
H997 H 0.55196 0.62575 0.43522 0.0
H998 H 0.56821 0.64601 0.53051 0.0
H999 H 0.54257 0.66053 0.44775 0.0
C1000 C 0.81472 0.52891 0.46269 0.0
C1001 C 0.79949 0.50506 0.4658 0.0
C1002 C 0.83988 0.53088 0.51472 0.0
C1003 C 0.85055 0.50835 0.57033 0.0
C1004 C 0.83468 0.48458 0.57653 0.0
C1005 C 0.80941 0.48341 0.52596 0.0
C1006 C 0.85562 0.5568 0.50628 0.0
C1007 C 0.84494 0.4598 0.63272 0.0
C1008 C 0.92781 0.50234 0.59092 0.0
C1009 C 0.93309 0.50947 0.69502 0.0
C1010 C 0.90132 0.50158 0.55068 0.0
C1011 C 0.87901 0.50883 0.61444 0.0
C1012 C 0.88413 0.51601 0.71987 0.0
C1013 C 0.91092 0.51593 0.75908 0.0
C1014 C 0.89719 0.49271 0.43949 0.0
C1015 C 0.8613 0.5242 0.79101 0.0
H1016 H 0.80759 0.54562 0.41544 0.0
H1017 H 0.7978 0.46494 0.52941 0.0
H1018 H 0.8626 0.56314 0.58452 0.0
H1019 H 0.87381 0.55358 0.45716 0.0
H1020 H 0.84352 0.57335 0.47114 0.0
H1021 H 0.83066 0.44262 0.62795 0.0
H1022 H 0.86457 0.45349 0.59889 0.0
H1023 H 0.84845 0.46443 0.7161 0.0
H1024 H 0.94455 0.49702 0.54038 0.0
H1025 H 0.91455 0.52163 0.83928 0.0
H1026 H 0.88778 0.50923 0.39358 0.0
H1027 H 0.88318 0.4753 0.43799 0.0
H1028 H 0.91636 0.4868 0.40066 0.0
H1029 H 0.86844 0.5298 0.86997 0.0
H1030 H 0.84663 0.50744 0.79903 0.0
H1031 H 0.85036 0.5416 0.75649 0.0
loop_
_geom_bond_atom_site_label_1
_geom_bond_atom_site_label_2
_geom_bond_distance
_geom_bond_site_symmetry_2
_ccdc_geom_bond_type
C0 N1 1.317 . S
C0 N2 1.348 . S
C0 C3 1.485 . S
N1 C0 1.317 . S
N1 N5 1.370 . S
N2 C0 1.348 . S
N2 C4 1.346 . S
C3 C0 1.485 . S
C3 H7 0.960 . S
C3 H8 0.961 . S
C3 H9 0.960 . S
C4 N2 1.346 . S
C4 N5 1.307 . S
C4 C6 1.486 . S
N5 N1 1.370 . S
N5 C4 1.307 . S
C6 C4 1.486 . S
C6 H10 0.960 . S
C6 H11 0.960 . S
C6 H12 0.959 . S
H7 C3 0.960 . S
H8 C3 0.961 . S
H9 C3 0.960 . S
H10 C6 0.960 . S
H11 C6 0.960 . S
H12 C6 0.959 . S
C13 N14 1.317 . S
C13 N15 1.350 . S
C13 C16 1.485 . S
N14 C13 1.317 . S
N14 N18 1.371 . S
N15 C13 1.350 . S
N15 C17 1.345 1_655 S
C16 C13 1.485 . S
C16 H20 0.960 1_655 S
C16 H21 0.961 . S
C16 H22 0.960 . S
C17 N15 1.345 1_455 S
C17 N18 1.307 1_455 S
C17 C19 1.486 . S
N18 N14 1.371 . S
N18 C17 1.307 1_655 S
C19 C17 1.486 . S
C19 H23 0.922 1_455 S
C19 H24 0.991 . S
C19 H25 0.967 . S
H20 C16 0.960 1_455 S
H21 C16 0.961 . S
H22 C16 0.960 . S
H23 C19 0.922 1_655 S
H24 C19 0.991 . S
H25 C19 0.967 . S
C26 N27 1.317 . S
C26 N28 1.350 . S
C26 C29 1.485 . S
N27 C26 1.317 . S
N27 N31 1.371 . S
N28 C26 1.350 . S
N28 C30 1.345 1_565 S
C29 C26 1.485 . S
C29 H33 0.960 1_565 S
C29 H34 0.961 . S
C29 H35 0.960 . S
C30 N28 1.345 1_545 S
C30 N31 1.307 1_545 S
C30 C32 1.486 . S
N31 N27 1.371 . S
N31 C30 1.307 1_565 S
C32 C30 1.486 . S
C32 H36 0.922 1_545 S
C32 H37 0.991 . S
C32 H38 0.967 . S
H33 C29 0.960 1_545 S
H34 C29 0.961 . S
H35 C29 0.960 . S
H36 C32 0.922 1_565 S
H37 C32 0.991 . S
H38 C32 0.967 . S
C39 N40 1.317 . S
C39 N41 1.348 . S
C39 C42 1.485 . S
N40 C39 1.317 . S
N40 N44 1.370 . S
N41 C39 1.348 . S
N41 C43 1.346 . S
C42 C39 1.485 . S
C42 H46 0.960 . S
C42 H47 0.961 . S
C42 H48 0.960 . S
C43 N41 1.346 . S
C43 N44 1.307 . S
C43 C45 1.486 . S
N44 N40 1.370 . S
N44 C43 1.307 . S
C45 C43 1.486 . S
C45 H49 0.960 . S
C45 H50 0.960 . S
C45 H51 0.959 . S
H46 C42 0.960 . S
H47 C42 0.961 . S
H48 C42 0.960 . S
H49 C45 0.960 . S
H50 C45 0.960 . S
H51 C45 0.959 . S
C52 N53 1.317 . S
C52 N54 1.348 1_556 S
C52 C55 1.485 . S
N53 C52 1.317 . S
N53 N57 1.370 1_556 S
N54 C52 1.348 1_554 S
N54 C56 1.346 . S
C55 C52 1.485 . S
C55 H59 0.960 . S
C55 H60 0.961 . S
C55 H61 0.960 . S
C56 N54 1.346 . S
C56 N57 1.307 . S
C56 C58 1.486 . S
N57 N53 1.370 1_554 S
N57 C56 1.307 . S
C58 C56 1.486 . S
C58 H62 0.960 . S
C58 H63 0.960 . S
C58 H64 0.959 . S
H59 C55 0.960 . S
H60 C55 0.961 . S
H61 C55 0.960 . S
H62 C58 0.960 . S
H63 C58 0.960 . S
H64 C58 0.959 . S
C65 N66 1.317 . S
C65 N67 1.350 1_556 S
C65 C68 1.485 . S
N66 C65 1.317 . S
N66 N70 1.370 1_556 S
N67 C65 1.350 1_554 S
N67 C69 1.345 1_655 S
C68 C65 1.485 . S
C68 H72 0.960 1_655 S
C68 H73 0.961 . S
C68 H74 0.960 . S
C69 N67 1.345 1_455 S
C69 N70 1.307 1_455 S
C69 C71 1.486 . S
N70 N66 1.370 1_554 S
N70 C69 1.307 1_655 S
C71 C69 1.486 . S
C71 H75 0.960 1_455 S
C71 H76 0.960 . S
C71 H77 0.959 . S
H72 C68 0.960 1_455 S
H73 C68 0.961 . S
H74 C68 0.960 . S
H75 C71 0.960 1_655 S
H76 C71 0.960 . S
H77 C71 0.959 . S
C78 N79 1.317 . S
C78 N80 1.350 1_556 S
C78 C81 1.485 . S
N79 C78 1.317 . S
N79 N83 1.370 1_556 S
N80 C78 1.350 1_554 S
N80 C82 1.345 1_565 S
C81 C78 1.485 . S
C81 H85 0.960 1_565 S
C81 H86 0.961 . S
C81 H87 0.960 . S
C82 N80 1.345 1_545 S
C82 N83 1.307 1_545 S
C82 C84 1.487 . S
N83 N79 1.370 1_554 S
N83 C82 1.307 1_565 S
C84 C82 1.487 . S
C84 H88 0.960 1_545 S
C84 H89 0.960 . S
C84 H90 0.959 . S
H85 C81 0.960 1_545 S
H86 C81 0.961 . S
H87 C81 0.960 . S
H88 C84 0.960 1_565 S
H89 C84 0.960 . S
H90 C84 0.959 . S
C91 N92 1.317 . S
C91 N93 1.348 1_556 S
C91 C94 1.485 . S
N92 C91 1.317 . S
N92 N96 1.370 1_556 S
N93 C91 1.348 1_554 S
N93 C95 1.346 . S
C94 C91 1.485 . S
C94 H98 0.960 . S
C94 H99 0.961 . S
C94 H100 0.960 . S
C95 N93 1.346 . S
C95 N96 1.307 . S
C95 C97 1.486 . S
N96 N92 1.370 1_554 S
N96 C95 1.307 . S
C97 C95 1.486 . S
C97 H101 0.960 . S
C97 H102 0.960 . S
C97 H103 0.959 . S
H98 C94 0.960 . S
H99 C94 0.961 . S
H100 C94 0.960 . S
H101 C97 0.960 . S
H102 C97 0.960 . S
H103 C97 0.959 . S
Tb104 C114 2.825 . S
Tb104 O115 2.347 1_455 S
Tb104 O118 2.366 . S
Tb104 O123 2.418 . S
Tb104 O124 2.384 1_565 S
Tb104 O127 2.479 . S
Tb104 O128 2.471 1_556 S
Eu105 O116 2.418 . S
Eu105 O117 2.384 1_545 S
Eu105 O120 2.479 . S
Eu105 O121 2.471 . S
Eu105 O122 2.347 1_655 S
Eu105 O125 2.366 . S
Eu105 C135 2.825 . S
C106 O122 1.259 1_565 S
C106 O123 1.265 . S
C107 O124 1.255 . S
C107 O125 1.265 1_455 S
C108 C110 1.380 . S
C108 C111 1.374 . S
C108 C114 1.507 1_554 S
C109 C110 1.384 . S
C109 C113 1.387 . S
C109 H136 0.930 . S
C110 C108 1.380 . S
C110 C109 1.384 . S
C110 H137 0.931 . S
C111 C108 1.374 . S
C111 C112 1.390 . S
C111 H138 0.930 1_455 S
C112 C111 1.390 . S
C112 C113 1.391 . S
C112 H139 0.930 1_455 S
C113 C109 1.387 . S
C113 C112 1.391 . S
C114 Tb104 2.825 . S
C114 C108 1.507 1_556 S
C114 O127 1.238 . S
C114 O128 1.247 1_556 S
O115 Tb104 2.347 1_655 S
O115 C119 1.259 1_565 S
O116 Eu105 2.418 . S
O116 C119 1.265 . S
O117 Eu105 2.384 1_565 S
O117 C126 1.255 . S
O118 Tb104 2.366 . S
O118 C126 1.265 1_455 S
C119 O115 1.259 1_545 S
C119 O116 1.265 . S
O120 Eu105 2.479 . S
O120 C135 1.238 . S
O121 Eu105 2.471 . S
O121 C135 1.247 . S
O122 Eu105 2.347 1_455 S
O122 C106 1.259 1_545 S
O123 Tb104 2.418 . S
O123 C106 1.265 . S
O124 Tb104 2.384 1_545 S
O124 C107 1.255 . S
O125 Eu105 2.366 . S
O125 C107 1.265 1_655 S
C126 O117 1.255 . S
C126 O118 1.265 1_655 S
O127 Tb104 2.479 . S
O127 C114 1.238 . S
O128 Tb104 2.471 1_554 S
O128 C114 1.247 1_554 S
C129 C132 1.380 . S
C129 C133 1.374 . S
C129 C135 1.507 . S
C130 C131 1.387 . S
C130 C134 1.391 . S
C131 C130 1.387 . S
C131 C132 1.384 . S
C131 H140 0.930 . S
C132 C129 1.380 . S
C132 C131 1.384 . S
C132 H141 0.931 . S
C133 C129 1.374 . S
C133 C134 1.390 . S
C133 H142 0.930 1_655 S
C134 C130 1.391 . S
C134 C133 1.390 . S
C134 H143 0.930 1_655 S
C135 Eu105 2.825 . S
C135 O120 1.238 . S
C135 O121 1.247 . S
C135 C129 1.507 . S
H136 C109 0.930 . S
H137 C110 0.931 . S
H138 C111 0.930 1_655 S
H139 C112 0.930 1_655 S
H140 C131 0.930 . S
H141 C132 0.931 . S
H142 C133 0.930 1_455 S
H143 C134 0.930 1_455 S
Tb144 C154 2.825 . S
Tb144 O155 2.347 1_545 S
Tb144 O158 2.366 . S
Tb144 O163 2.418 . S
Tb144 O164 2.384 . S
Tb144 O167 2.479 . S
Tb144 O168 2.471 1_556 S
Eu145 O156 2.418 . S
Eu145 O157 2.384 . S
Eu145 O160 2.479 . S
Eu145 O161 2.471 . S
Eu145 O162 2.347 1_565 S
Eu145 O165 2.366 . S
Eu145 C175 2.825 . S
C146 O162 1.259 . S
C146 O163 1.265 . S
C147 O164 1.255 . S
C147 O165 1.265 1_545 S
C148 C150 1.380 . S
C148 C151 1.374 . S
C148 C154 1.507 1_554 S
C149 C150 1.384 . S
C149 C153 1.387 . S
C149 H176 0.930 . S
C150 C148 1.380 . S
C150 C149 1.384 . S
C150 H177 0.931 . S
C151 C148 1.374 . S
C151 C152 1.390 . S
C151 H178 0.930 1_545 S
C152 C151 1.390 . S
C152 C153 1.391 . S
C152 H179 0.930 1_545 S
C153 C149 1.387 . S
C153 C152 1.391 . S
C154 Tb144 2.825 . S
C154 C148 1.507 1_556 S
C154 O167 1.238 . S
C154 O168 1.247 1_556 S
O155 Tb144 2.347 1_565 S
O155 C159 1.259 . S
O156 Eu145 2.418 . S
O156 C159 1.265 . S
O157 Eu145 2.384 . S
O157 C166 1.255 . S
O158 Tb144 2.366 . S
O158 C166 1.265 1_545 S
C159 O155 1.259 . S
C159 O156 1.265 . S
O160 Eu145 2.479 . S
O160 C175 1.238 . S
O161 Eu145 2.471 . S
O161 C175 1.247 . S
O162 Eu145 2.347 1_545 S
O162 C146 1.259 . S
O163 Tb144 2.418 . S
O163 C146 1.265 . S
O164 Tb144 2.384 . S
O164 C147 1.255 . S
O165 Eu145 2.366 . S
O165 C147 1.265 1_565 S
C166 O157 1.255 . S
C166 O158 1.265 1_565 S
O167 Tb144 2.479 . S
O167 C154 1.238 . S
O168 Tb144 2.471 1_554 S
O168 C154 1.247 1_554 S
C169 C172 1.380 . S
C169 C173 1.374 . S
C169 C175 1.507 . S
C170 C171 1.387 . S
C170 C174 1.391 . S
C171 C170 1.387 . S
C171 C172 1.384 . S
C171 H180 0.930 . S
C172 C169 1.380 . S
C172 C171 1.384 . S
C172 H181 0.931 . S
C173 C169 1.374 . S
C173 C174 1.390 . S
C173 H182 0.930 1_565 S
C174 C170 1.391 . S
C174 C173 1.390 . S
C174 H183 0.930 1_565 S
C175 Eu145 2.825 . S
C175 O160 1.238 . S
C175 O161 1.247 . S
C175 C169 1.507 . S
H176 C149 0.930 . S
H177 C150 0.931 . S
H178 C151 0.930 1_565 S
H179 C152 0.930 1_565 S
H180 C171 0.930 . S
H181 C172 0.931 . S
H182 C173 0.930 1_545 S
H183 C174 0.930 1_545 S
Tb184 C194 2.826 . S
Tb184 O195 2.347 . S
Tb184 O198 2.366 . S
Tb184 O203 2.418 . S
Tb184 O204 2.384 . S
Tb184 O207 2.479 . S
Tb184 O208 2.471 1_556 S
Eu185 O196 2.418 . S
Eu185 O197 2.384 . S
Eu185 O200 2.479 . S
Eu185 O201 2.471 . S
Eu185 O202 2.347 . S
Eu185 O205 2.366 . S
Eu185 C215 2.825 . S
C186 O202 1.259 . S
C186 O203 1.265 . S
C187 O204 1.255 . S
C187 O205 1.265 . S
C188 C190 1.380 . S
C188 C191 1.374 . S
C188 C194 1.506 1_554 S
C189 C190 1.384 . S
C189 C193 1.387 . S
C189 H216 0.930 . S
C190 C188 1.380 . S
C190 C189 1.384 . S
C190 H217 0.931 . S
C191 C188 1.374 . S
C191 C192 1.390 . S
C191 H218 0.930 . S
C192 C191 1.390 . S
C192 C193 1.391 . S
C192 H219 0.930 . S
C193 C189 1.387 . S
C193 C192 1.391 . S
C194 Tb184 2.826 . S
C194 C188 1.506 1_556 S
C194 O207 1.239 . S
C194 O208 1.247 1_556 S
O195 Tb184 2.347 . S
O195 C199 1.259 . S
O196 Eu185 2.418 . S
O196 C199 1.265 . S
O197 Eu185 2.384 . S
O197 C206 1.255 . S
O198 Tb184 2.366 . S
O198 C206 1.265 . S
C199 O195 1.259 . S
C199 O196 1.265 . S
O200 Eu185 2.479 . S
O200 C215 1.238 . S
O201 Eu185 2.471 . S
O201 C215 1.247 . S
O202 Eu185 2.347 . S
O202 C186 1.259 . S
O203 Tb184 2.418 . S
O203 C186 1.265 . S
O204 Tb184 2.384 . S
O204 C187 1.255 . S
O205 Eu185 2.366 . S
O205 C187 1.265 . S
C206 O197 1.255 . S
C206 O198 1.265 . S
O207 Tb184 2.479 . S
O207 C194 1.239 . S
O208 Tb184 2.471 1_554 S
O208 C194 1.247 1_554 S
C209 C212 1.380 . S
C209 C213 1.374 . S
C209 C215 1.507 . S
C210 C211 1.387 . S
C210 C214 1.391 . S
C211 C210 1.387 . S
C211 C212 1.384 . S
C211 H220 0.930 . S
C212 C209 1.380 . S
C212 C211 1.384 . S
C212 H221 0.931 . S
C213 C209 1.374 . S
C213 C214 1.390 . S
C213 H222 0.930 . S
C214 C210 1.391 . S
C214 C213 1.390 . S
C214 H223 0.930 . S
C215 Eu185 2.825 . S
C215 O200 1.238 . S
C215 O201 1.247 . S
C215 C209 1.507 . S
H216 C189 0.930 . S
H217 C190 0.931 . S
H218 C191 0.930 . S
H219 C192 0.930 . S
H220 C211 0.930 . S
H221 C212 0.931 . S
H222 C213 0.930 . S
H223 C214 0.930 . S
Tb224 C234 2.829 . S
Tb224 O235 2.347 . S
Tb224 O238 2.366 . S
Tb224 O243 2.418 . S
Tb224 O244 2.384 1_655 S
Tb224 O247 2.479 . S
Tb224 O248 2.471 1_556 S
Eu225 O236 2.418 . S
Eu225 O237 2.384 1_455 S
Eu225 O240 2.479 . S
Eu225 O241 2.471 . S
Eu225 O242 2.347 . S
Eu225 O245 2.366 . S
Eu225 C255 2.825 . S
C226 O242 1.259 1_655 S
C226 O243 1.265 . S
C227 O244 1.255 . S
C227 O245 1.265 . S
C228 C230 1.380 . S
C228 C231 1.374 . S
C228 C234 1.503 1_554 S
C229 C230 1.384 . S
C229 C233 1.387 . S
C229 H256 0.930 . S
C230 C228 1.380 . S
C230 C229 1.384 . S
C230 H257 0.931 . S
C231 C228 1.374 . S
C231 C232 1.390 . S
C231 H258 0.930 . S
C232 C231 1.390 . S
C232 C233 1.391 . S
C232 H259 0.930 . S
C233 C229 1.387 . S
C233 C232 1.391 . S
C234 Tb224 2.829 . S
C234 C228 1.503 1_556 S
C234 O247 1.241 . S
C234 O248 1.247 1_556 S
O235 Tb224 2.347 . S
O235 C239 1.259 1_655 S
O236 Eu225 2.418 . S
O236 C239 1.265 . S
O237 Eu225 2.384 1_655 S
O237 C246 1.255 . S
O238 Tb224 2.366 . S
O238 C246 1.265 . S
C239 O235 1.259 1_455 S
C239 O236 1.265 . S
O240 Eu225 2.479 . S
O240 C255 1.238 . S
O241 Eu225 2.471 . S
O241 C255 1.247 . S
O242 Eu225 2.347 . S
O242 C226 1.259 1_455 S
O243 Tb224 2.418 . S
O243 C226 1.265 . S
O244 Tb224 2.384 1_455 S
O244 C227 1.255 . S
O245 Eu225 2.366 . S
O245 C227 1.265 . S
C246 O237 1.255 . S
C246 O238 1.265 . S
O247 Tb224 2.479 . S
O247 C234 1.241 . S
O248 Tb224 2.471 1_554 S
O248 C234 1.247 1_554 S
C249 C252 1.380 . S
C249 C253 1.374 . S
C249 C255 1.507 . S
C250 C251 1.387 . S
C250 C254 1.391 . S
C251 C250 1.387 . S
C251 C252 1.384 . S
C251 H260 0.930 . S
C252 C249 1.380 . S
C252 C251 1.384 . S
C252 H261 0.931 . S
C253 C249 1.374 . S
C253 C254 1.390 . S
C253 H262 0.930 . S
C254 C250 1.391 . S
C254 C253 1.390 . S
C254 H263 0.930 . S
C255 Eu225 2.825 . S
C255 O240 1.238 . S
C255 O241 1.247 . S
C255 C249 1.507 . S
H256 C229 0.930 . S
H257 C230 0.931 . S
H258 C231 0.930 . S
H259 C232 0.930 . S
H260 C251 0.930 . S
H261 C252 0.931 . S
H262 C253 0.930 . S
H263 C254 0.930 . S
C264 C265 1.391 1_545 S
C264 C266 1.394 . S
C264 H280 0.931 . S
C265 C264 1.391 1_565 S
C265 C269 1.376 . S
C266 C264 1.394 . S
C266 C267 1.369 1_545 S
C266 C270 1.531 . S
C267 C266 1.369 1_565 S
C267 C268 1.410 . S
C267 C275 1.503 . S
C268 C267 1.410 . S
C268 C269 1.392 . S
C268 C271 1.511 . S
C269 C265 1.376 . S
C269 C268 1.392 . S
C269 H281 0.929 . S
C270 C266 1.531 . S
C270 H282 0.938 1_545 S
C270 H283 0.962 . S
C270 H284 0.960 . S
C271 C268 1.511 . S
C271 H285 0.961 . S
C271 H286 0.961 . S
C271 H287 0.961 . S
C272 C273 1.340 1_545 S
C272 C274 1.363 . S
C272 H288 0.931 . S
C273 C272 1.340 1_565 S
C273 C277 1.442 . S
C274 C272 1.363 . S
C274 C275 1.370 1_545 S
C274 C278 1.524 . S
C275 C267 1.503 . S
C275 C274 1.370 1_565 S
C275 C276 1.403 . S
C276 C275 1.403 . S
C276 C277 1.404 . S
C276 C279 1.539 . S
C277 C273 1.442 . S
C277 C276 1.404 . S
C277 H289 0.930 . S
C278 C274 1.524 . S
C278 H290 0.956 . S
C278 H291 0.961 . S
C278 H292 0.961 . S
C279 C276 1.539 . S
C279 H293 0.958 . S
C279 H294 0.961 . S
C279 H295 0.960 . S
H280 C264 0.931 . S
H281 C269 0.929 . S
H282 C270 0.938 1_565 S
H283 C270 0.962 . S
H284 C270 0.960 . S
H285 C271 0.961 . S
H286 C271 0.961 . S
H287 C271 0.961 . S
H288 C272 0.931 . S
H289 C277 0.930 . S
H290 C278 0.956 . S
H291 C278 0.961 . S
H292 C278 0.961 . S
H293 C279 0.958 . S
H294 C279 0.961 . S
H295 C279 0.960 . S
C296 C297 1.391 . S
C296 C298 1.394 . S
C296 H312 0.931 . S
C297 C296 1.391 . S
C297 C301 1.376 . S
C298 C296 1.394 . S
C298 C299 1.369 . S
C298 C302 1.531 . S
C299 C298 1.369 . S
C299 C300 1.410 . S
C299 C307 1.503 . S
C300 C299 1.410 . S
C300 C301 1.392 . S
C300 C303 1.511 . S
C301 C297 1.376 . S
C301 C300 1.392 . S
C301 H313 0.929 . S
C302 C298 1.531 . S
C302 H314 0.960 . S
C302 H315 0.962 . S
C302 H316 0.960 . S
C303 C300 1.511 . S
C303 H317 0.961 . S
C303 H318 0.961 . S
C303 H319 0.961 . S
C304 C305 1.370 . S
C304 C306 1.363 . S
C304 H320 0.931 . S
C305 C304 1.370 . S
C305 C309 1.408 . S
C306 C304 1.363 . S
C306 C307 1.370 . S
C306 C310 1.524 . S
C307 C299 1.503 . S
C307 C306 1.370 . S
C307 C308 1.403 . S
C308 C307 1.403 . S
C308 C309 1.404 . S
C308 C311 1.539 . S
C309 C305 1.408 . S
C309 C308 1.404 . S
C309 H321 0.930 . S
C310 C306 1.524 . S
C310 H322 0.956 . S
C310 H323 0.961 . S
C310 H324 0.961 . S
C311 C308 1.539 . S
C311 H325 0.958 . S
C311 H326 0.961 . S
C311 H327 0.960 . S
H312 C296 0.931 . S
H313 C301 0.929 . S
H314 C302 0.960 . S
H315 C302 0.962 . S
H316 C302 0.960 . S
H317 C303 0.961 . S
H318 C303 0.961 . S
H319 C303 0.961 . S
H320 C304 0.931 . S
H321 C309 0.930 . S
H322 C310 0.956 . S
H323 C310 0.961 . S
H324 C310 0.961 . S
H325 C311 0.958 . S
H326 C311 0.961 . S
H327 C311 0.960 . S
C328 C329 1.391 . S
C328 C330 1.394 . S
C328 H344 0.931 . S
C329 C328 1.391 . S
C329 C333 1.376 . S
C330 C328 1.394 . S
C330 C331 1.369 . S
C330 C334 1.531 . S
C331 C330 1.369 . S
C331 C332 1.410 . S
C331 C339 1.503 . S
C332 C331 1.410 . S
C332 C333 1.392 . S
C332 C335 1.511 . S
C333 C329 1.376 . S
C333 C332 1.392 . S
C333 H345 0.929 . S
C334 C330 1.531 . S
C334 H346 0.960 . S
C334 H347 0.962 . S
C334 H348 0.960 . S
C335 C332 1.511 . S
C335 H349 0.961 . S
C335 H350 0.961 . S
C335 H351 0.961 . S
C336 C337 1.370 . S
C336 C338 1.363 . S
C336 H352 0.931 . S
C337 C336 1.370 . S
C337 C341 1.408 . S
C338 C336 1.363 . S
C338 C339 1.370 . S
C338 C342 1.524 . S
C339 C331 1.503 . S
C339 C338 1.370 . S
C339 C340 1.403 . S
C340 C339 1.403 . S
C340 C341 1.404 . S
C340 C343 1.539 . S
C341 C337 1.408 . S
C341 C340 1.404 . S
C341 H353 0.930 . S
C342 C338 1.524 . S
C342 H354 0.956 . S
C342 H355 0.961 . S
C342 H356 0.961 . S
C343 C340 1.539 . S
C343 H357 0.958 . S
C343 H358 0.961 . S
C343 H359 0.960 . S
H344 C328 0.931 . S
H345 C333 0.929 . S
H346 C334 0.960 . S
H347 C334 0.962 . S
H348 C334 0.960 . S
H349 C335 0.961 . S
H350 C335 0.961 . S
H351 C335 0.961 . S
H352 C336 0.931 . S
H353 C341 0.930 . S
H354 C342 0.956 . S
H355 C342 0.961 . S
H356 C342 0.961 . S
H357 C343 0.958 . S
H358 C343 0.961 . S
H359 C343 0.960 . S
C360 C361 1.391 1_655 S
C360 C362 1.394 . S
C360 H376 0.931 . S
C361 C360 1.391 1_455 S
C361 C365 1.376 . S
C362 C360 1.394 . S
C362 C363 1.369 1_655 S
C362 C366 1.531 . S
C363 C362 1.369 1_455 S
C363 C364 1.410 . S
C363 C371 1.503 . S
C364 C363 1.410 . S
C364 C365 1.392 . S
C364 C367 1.511 . S
C365 C361 1.376 . S
C365 C364 1.392 . S
C365 H377 0.929 . S
C366 C362 1.531 . S
C366 H378 0.960 . S
C366 H379 0.962 . S
C366 H380 0.960 . S
C367 C364 1.511 . S
C367 H381 0.961 . S
C367 H382 0.961 . S
C367 H383 0.961 . S
C368 C369 1.370 1_655 S
C368 C370 1.363 . S
C368 H384 0.931 . S
C369 C368 1.370 1_455 S
C369 C373 1.408 . S
C370 C368 1.363 . S
C370 C371 1.370 1_655 S
C370 C374 1.524 . S
C371 C363 1.503 . S
C371 C370 1.370 1_455 S
C371 C372 1.403 . S
C372 C371 1.403 . S
C372 C373 1.404 . S
C372 C375 1.539 . S
C373 C369 1.408 . S
C373 C372 1.404 . S
C373 H385 0.930 . S
C374 C370 1.524 . S
C374 H386 0.956 . S
C374 H387 0.961 . S
C374 H388 0.961 . S
C375 C372 1.539 . S
C375 H389 0.958 . S
C375 H390 0.961 . S
C375 H391 0.960 . S
H376 C360 0.931 . S
H377 C365 0.929 . S
H378 C366 0.960 . S
H379 C366 0.962 . S
H380 C366 0.960 . S
H381 C367 0.961 . S
H382 C367 0.961 . S
H383 C367 0.961 . S
H384 C368 0.931 . S
H385 C373 0.930 . S
H386 C374 0.956 . S
H387 C374 0.961 . S
H388 C374 0.961 . S
H389 C375 0.958 . S
H390 C375 0.961 . S
H391 C375 0.960 . S
C392 C393 1.391 . S
C392 C394 1.394 . S
C392 H408 0.931 . S
C393 C392 1.391 . S
C393 C397 1.376 1_565 S
C394 C392 1.394 . S
C394 C395 1.369 . S
C394 C398 1.531 . S
C395 C394 1.369 . S
C395 C396 1.410 1_565 S
C395 C403 1.503 . S
C396 C395 1.410 1_545 S
C396 C397 1.392 . S
C396 C399 1.511 . S
C397 C393 1.376 1_545 S
C397 C396 1.392 . S
C397 H409 0.929 . S
C398 C394 1.531 . S
C398 H410 0.960 . S
C398 H411 0.962 . S
C398 H412 0.960 . S
C399 C396 1.511 . S
C399 H413 0.961 . S
C399 H414 0.961 . S
C399 H415 0.961 1_545 S
C400 C401 1.347 1_544 S
C400 C402 1.363 . S
C400 H416 0.931 . S
C401 C400 1.347 1_566 S
C401 C405 1.434 . S
C402 C400 1.363 . S
C402 C403 1.370 1_545 S
C402 C406 1.524 . S
C403 C395 1.503 . S
C403 C402 1.370 1_565 S
C403 C404 1.403 . S
C404 C403 1.403 . S
C404 C405 1.404 1_554 S
C404 C407 1.539 . S
C405 C401 1.434 . S
C405 C404 1.404 1_556 S
C405 H417 0.930 . S
C406 C402 1.524 . S
C406 H418 0.956 . S
C406 H419 0.961 . S
C406 H420 0.961 . S
C407 C404 1.539 . S
C407 H421 0.958 . S
C407 H422 0.961 1_554 S
C407 H423 0.960 . S
H408 C392 0.931 . S
H409 C397 0.929 . S
H410 C398 0.960 . S
H411 C398 0.962 . S
H412 C398 0.960 . S
H413 C399 0.961 . S
H414 C399 0.961 . S
H415 C399 0.961 1_565 S
H416 C400 0.931 . S
H417 C405 0.930 . S
H418 C406 0.956 . S
H419 C406 0.961 . S
H420 C406 0.961 . S
H421 C407 0.958 . S
H422 C407 0.961 1_556 S
H423 C407 0.960 . S
C424 C425 1.391 . S
C424 C426 1.394 . S
C424 H440 0.931 . S
C425 C424 1.391 . S
C425 C429 1.376 . S
C426 C424 1.394 . S
C426 C427 1.369 . S
C426 C430 1.531 . S
C427 C426 1.369 . S
C427 C428 1.410 . S
C427 C435 1.503 . S
C428 C427 1.410 . S
C428 C429 1.392 . S
C428 C431 1.511 . S
C429 C425 1.376 . S
C429 C428 1.392 . S
C429 H441 0.929 . S
C430 C426 1.531 . S
C430 H442 0.960 . S
C430 H443 0.962 . S
C430 H444 0.960 . S
C431 C428 1.511 . S
C431 H445 0.961 . S
C431 H446 0.961 . S
C431 H447 0.961 . S
C432 C433 1.370 1_554 S
C432 C434 1.363 . S
C432 H448 0.931 . S
C433 C432 1.370 1_556 S
C433 C437 1.408 . S
C434 C432 1.363 . S
C434 C435 1.370 . S
C434 C438 1.524 . S
C435 C427 1.503 . S
C435 C434 1.370 . S
C435 C436 1.403 . S
C436 C435 1.403 . S
C436 C437 1.404 1_554 S
C436 C439 1.539 . S
C437 C433 1.408 . S
C437 C436 1.404 1_556 S
C437 H449 0.930 . S
C438 C434 1.524 . S
C438 H450 0.956 . S
C438 H451 0.961 . S
C438 H452 0.961 . S
C439 C436 1.539 . S
C439 H453 0.958 . S
C439 H454 0.961 1_554 S
C439 H455 0.960 . S
H440 C424 0.931 . S
H441 C429 0.929 . S
H442 C430 0.960 . S
H443 C430 0.962 . S
H444 C430 0.960 . S
H445 C431 0.961 . S
H446 C431 0.961 . S
H447 C431 0.961 . S
H448 C432 0.931 . S
H449 C437 0.930 . S
H450 C438 0.956 . S
H451 C438 0.961 . S
H452 C438 0.961 . S
H453 C439 0.958 . S
H454 C439 0.961 1_556 S
H455 C439 0.960 . S
C456 C457 1.391 . S
C456 C458 1.394 . S
C456 H472 0.931 . S
C457 C456 1.391 . S
C457 C461 1.376 . S
C458 C456 1.394 . S
C458 C459 1.369 . S
C458 C462 1.531 . S
C459 C458 1.369 . S
C459 C460 1.410 . S
C459 C467 1.503 . S
C460 C459 1.410 . S
C460 C461 1.392 . S
C460 C463 1.511 . S
C461 C457 1.376 . S
C461 C460 1.392 . S
C461 H473 0.929 . S
C462 C458 1.531 . S
C462 H474 0.960 . S
C462 H475 0.962 . S
C462 H476 0.960 . S
C463 C460 1.511 . S
C463 H477 0.961 . S
C463 H478 0.961 . S
C463 H479 0.961 . S
C464 C465 1.370 1_554 S
C464 C466 1.363 . S
C464 H480 0.931 . S
C465 C464 1.370 1_556 S
C465 C469 1.408 . S
C466 C464 1.363 . S
C466 C467 1.370 . S
C466 C470 1.524 . S
C467 C459 1.503 . S
C467 C466 1.370 . S
C467 C468 1.403 . S
C468 C467 1.403 . S
C468 C469 1.404 1_554 S
C468 C471 1.539 . S
C469 C465 1.408 . S
C469 C468 1.404 1_556 S
C469 H481 0.930 . S
C470 C466 1.524 . S
C470 H482 0.956 . S
C470 H483 0.961 . S
C470 H484 0.961 . S
C471 C468 1.539 . S
C471 H485 0.958 . S
C471 H486 0.961 . S
C471 H487 0.960 . S
H472 C456 0.931 . S
H473 C461 0.929 . S
H474 C462 0.960 . S
H475 C462 0.962 . S
H476 C462 0.960 . S
H477 C463 0.961 . S
H478 C463 0.961 . S
H479 C463 0.961 . S
H480 C464 0.931 . S
H481 C469 0.930 . S
H482 C470 0.956 . S
H483 C470 0.961 . S
H484 C470 0.961 . S
H485 C471 0.958 . S
H486 C471 0.961 . S
H487 C471 0.960 . S
C488 C489 1.391 1_455 S
C488 C490 1.394 . S
C488 H504 0.931 . S
C489 C488 1.391 1_655 S
C489 C493 1.376 . S
C490 C488 1.394 . S
C490 C491 1.369 1_455 S
C490 C494 1.531 . S
C491 C490 1.369 1_655 S
C491 C492 1.410 . S
C491 C499 1.503 . S
C492 C491 1.410 . S
C492 C493 1.392 . S
C492 C495 1.511 . S
C493 C489 1.376 . S
C493 C492 1.392 . S
C493 H505 0.929 . S
C494 C490 1.531 . S
C494 H506 0.960 . S
C494 H507 0.962 . S
C494 H508 0.960 . S
C495 C492 1.511 . S
C495 H509 0.961 . S
C495 H510 0.961 . S
C495 H511 0.961 . S
C496 C497 1.370 1_455 S
C496 C498 1.363 1_556 S
C496 H512 0.931 . S
C497 C496 1.370 1_655 S
C497 C501 1.408 1_556 S
C498 C496 1.363 1_554 S
C498 C499 1.370 1_455 S
C498 C502 1.524 . S
C499 C491 1.503 . S
C499 C498 1.370 1_655 S
C499 C500 1.403 . S
C500 C499 1.403 . S
C500 C501 1.404 . S
C500 C503 1.539 . S
C501 C497 1.408 1_554 S
C501 C500 1.404 . S
C501 H513 0.930 . S
C502 C498 1.524 . S
C502 H514 0.956 . S
C502 H515 0.961 . S
C502 H516 0.961 . S
C503 C500 1.539 . S
C503 H517 0.958 . S
C503 H518 0.961 . S
C503 H519 0.960 . S
H504 C488 0.931 . S
H505 C493 0.929 . S
H506 C494 0.960 . S
H507 C494 0.962 . S
H508 C494 0.960 . S
H509 C495 0.961 . S
H510 C495 0.961 . S
H511 C495 0.961 . S
H512 C496 0.931 . S
H513 C501 0.930 . S
H514 C502 0.956 . S
H515 C502 0.961 . S
H516 C502 0.961 . S
H517 C503 0.958 . S
H518 C503 0.961 . S
H519 C503 0.960 . S
C520 C521 1.391 . S
C520 C522 1.403 . S
C520 H536 0.923 1_655 S
C521 C520 1.391 . S
C521 C525 1.376 . S
C522 C520 1.403 . S
C522 C523 1.369 . S
C522 C526 1.531 . S
C523 C522 1.369 . S
C523 C524 1.410 . S
C523 C531 1.503 . S
C524 C523 1.410 . S
C524 C525 1.392 . S
C524 C527 1.511 . S
C525 C521 1.376 . S
C525 C524 1.392 . S
C525 H537 0.929 1_554 S
C526 C522 1.531 . S
C526 H538 0.960 . S
C526 H539 0.962 1_655 S
C526 H540 0.960 . S
C527 C524 1.511 . S
C527 H541 0.961 1_554 S
C527 H542 0.961 . S
C527 H543 0.961 . S
C528 C529 1.370 . S
C528 C530 1.363 . S
C528 H544 0.931 1_655 S
C529 C528 1.370 . S
C529 C533 1.408 . S
C530 C528 1.363 . S
C530 C531 1.370 . S
C530 C534 1.524 1_655 S
C531 C523 1.503 . S
C531 C530 1.370 . S
C531 C532 1.403 . S
C532 C531 1.403 . S
C532 C533 1.404 . S
C532 C535 1.539 . S
C533 C529 1.408 . S
C533 C532 1.404 . S
C533 H545 0.930 . S
C534 C530 1.524 1_455 S
C534 H546 0.956 . S
C534 H547 0.961 . S
C534 H548 0.961 . S
C535 C532 1.539 . S
C535 H549 0.958 . S
C535 H550 0.961 . S
C535 H551 0.960 . S
H536 C520 0.923 1_455 S
H537 C525 0.929 1_556 S
H538 C526 0.960 . S
H539 C526 0.962 1_455 S
H540 C526 0.960 . S
H541 C527 0.961 1_556 S
H542 C527 0.961 . S
H543 C527 0.961 . S
H544 C528 0.931 1_455 S
H545 C533 0.930 . S
H546 C534 0.956 . S
H547 C534 0.961 . S
H548 C534 0.961 . S
H549 C535 0.958 . S
H550 C535 0.961 . S
H551 C535 0.960 . S
C552 C553 1.391 . S
C552 C554 1.394 . S
C552 H568 0.931 . S
C553 C552 1.391 . S
C553 C557 1.376 1_545 S
C554 C552 1.394 . S
C554 C555 1.369 1_545 S
C554 C558 1.531 . S
C555 C554 1.369 1_565 S
C555 C556 1.410 . S
C555 C563 1.503 . S
C556 C555 1.410 . S
C556 C557 1.392 . S
C556 C559 1.511 . S
C557 C553 1.376 1_565 S
C557 C556 1.392 . S
C557 H569 0.929 . S
C558 C554 1.531 . S
C558 H570 0.960 . S
C558 H571 0.962 . S
C558 H572 0.960 . S
C559 C556 1.511 . S
C559 H573 0.961 . S
C559 H574 0.961 . S
C559 H575 0.961 . S
C560 C561 1.370 . S
C560 C562 1.363 . S
C560 H576 0.931 . S
C561 C560 1.370 . S
C561 C565 1.408 . S
C562 C560 1.363 . S
C562 C563 1.370 . S
C562 C566 1.524 . S
C563 C555 1.503 . S
C563 C562 1.370 . S
C563 C564 1.403 . S
C564 C563 1.403 . S
C564 C565 1.404 . S
C564 C567 1.539 1_565 S
C565 C561 1.408 . S
C565 C564 1.404 . S
C565 H577 0.930 . S
C566 C562 1.524 . S
C566 H578 0.956 . S
C566 H579 0.961 . S
C566 H580 0.961 . S
C567 C564 1.539 1_545 S
C567 H581 0.958 . S
C567 H582 0.961 . S
C567 H583 0.960 . S
H568 C552 0.931 . S
H569 C557 0.929 . S
H570 C558 0.960 . S
H571 C558 0.962 . S
H572 C558 0.960 . S
H573 C559 0.961 . S
H574 C559 0.961 . S
H575 C559 0.961 . S
H576 C560 0.931 . S
H577 C565 0.930 . S
H578 C566 0.956 . S
H579 C566 0.961 . S
H580 C566 0.961 . S
H581 C567 0.958 . S
H582 C567 0.961 . S
H583 C567 0.960 . S
C584 C585 1.391 . S
C584 C586 1.394 . S
C584 H600 0.931 . S
C585 C584 1.391 . S
C585 C589 1.376 . S
C586 C584 1.394 . S
C586 C587 1.369 . S
C586 C590 1.531 . S
C587 C586 1.369 . S
C587 C588 1.410 . S
C587 C595 1.503 . S
C588 C587 1.410 . S
C588 C589 1.392 . S
C588 C591 1.511 . S
C589 C585 1.376 . S
C589 C588 1.392 . S
C589 H601 0.929 . S
C590 C586 1.531 . S
C590 H602 0.960 . S
C590 H603 0.962 . S
C590 H604 0.960 . S
C591 C588 1.511 . S
C591 H605 0.961 . S
C591 H606 0.961 . S
C591 H607 0.961 . S
C592 C593 1.370 . S
C592 C594 1.363 . S
C592 H608 0.931 . S
C593 C592 1.370 . S
C593 C597 1.408 . S
C594 C592 1.363 . S
C594 C595 1.370 . S
C594 C598 1.524 . S
C595 C587 1.503 . S
C595 C594 1.370 . S
C595 C596 1.403 . S
C596 C595 1.403 . S
C596 C597 1.404 . S
C596 C599 1.539 . S
C597 C593 1.408 . S
C597 C596 1.404 . S
C597 H609 0.930 . S
C598 C594 1.524 . S
C598 H610 0.956 . S
C598 H611 0.961 . S
C598 H612 0.961 . S
C599 C596 1.539 . S
C599 H613 0.958 . S
C599 H614 0.961 . S
C599 H615 0.960 . S
H600 C584 0.931 . S
H601 C589 0.929 . S
H602 C590 0.960 . S
H603 C590 0.962 . S
H604 C590 0.960 . S
H605 C591 0.961 . S
H606 C591 0.961 . S
H607 C591 0.961 . S
H608 C592 0.931 . S
H609 C597 0.930 . S
H610 C598 0.956 . S
H611 C598 0.961 . S
H612 C598 0.961 . S
H613 C599 0.958 . S
H614 C599 0.961 . S
H615 C599 0.960 . S
C616 C617 1.391 . S
C616 C618 1.394 . S
C616 H632 0.931 . S
C617 C616 1.391 . S
C617 C621 1.376 . S
C618 C616 1.394 . S
C618 C619 1.369 . S
C618 C622 1.531 . S
C619 C618 1.369 . S
C619 C620 1.410 . S
C619 C627 1.503 . S
C620 C619 1.410 . S
C620 C621 1.392 . S
C620 C623 1.511 . S
C621 C617 1.376 . S
C621 C620 1.392 . S
C621 H633 0.929 1_554 S
C622 C618 1.531 . S
C622 H634 0.960 . S
C622 H635 0.962 . S
C622 H636 0.960 . S
C623 C620 1.511 . S
C623 H637 0.961 1_554 S
C623 H638 0.961 . S
C623 H639 0.961 . S
C624 C625 1.370 . S
C624 C626 1.363 . S
C624 H640 0.931 . S
C625 C624 1.370 . S
C625 C629 1.408 . S
C626 C624 1.363 . S
C626 C627 1.370 . S
C626 C630 1.524 . S
C627 C619 1.503 . S
C627 C626 1.370 . S
C627 C628 1.403 . S
C628 C627 1.403 . S
C628 C629 1.404 . S
C628 C631 1.539 . S
C629 C625 1.408 . S
C629 C628 1.404 . S
C629 H641 0.930 . S
C630 C626 1.524 . S
C630 H642 0.956 . S
C630 H643 0.961 . S
C630 H644 0.961 . S
C631 C628 1.539 . S
C631 H645 0.958 . S
C631 H646 0.961 . S
C631 H647 0.960 . S
H632 C616 0.931 . S
H633 C621 0.929 1_556 S
H634 C622 0.960 . S
H635 C622 0.962 . S
H636 C622 0.960 . S
H637 C623 0.961 1_556 S
H638 C623 0.961 . S
H639 C623 0.961 . S
H640 C624 0.931 . S
H641 C629 0.930 . S
H642 C630 0.956 . S
H643 C630 0.961 . S
H644 C630 0.961 . S
H645 C631 0.958 . S
H646 C631 0.961 . S
H647 C631 0.960 . S
C648 C649 1.396 . S
C648 C650 1.387 1_655 S
C648 H664 0.934 . S
C649 C648 1.396 . S
C649 C653 1.376 . S
C650 C648 1.387 1_455 S
C650 C651 1.369 . S
C650 C654 1.531 . S
C651 C650 1.369 . S
C651 C652 1.410 . S
C651 C659 1.503 . S
C652 C651 1.410 . S
C652 C653 1.392 1_455 S
C652 C655 1.511 . S
C653 C649 1.376 . S
C653 C652 1.392 1_655 S
C653 H665 0.929 . S
C654 C650 1.531 . S
C654 H666 0.960 . S
C654 H667 0.962 . S
C654 H668 0.960 1_455 S
C655 C652 1.511 . S
C655 H669 0.961 . S
C655 H670 0.961 . S
C655 H671 0.961 1_455 S
C656 C657 1.370 . S
C656 C658 1.363 . S
C656 H672 0.931 . S
C657 C656 1.370 . S
C657 C661 1.408 . S
C658 C656 1.363 . S
C658 C659 1.370 . S
C658 C662 1.524 . S
C659 C651 1.503 . S
C659 C658 1.370 . S
C659 C660 1.403 1_455 S
C660 C659 1.403 1_655 S
C660 C661 1.404 1_655 S
C660 C663 1.539 . S
C661 C657 1.408 . S
C661 C660 1.404 1_455 S
C661 H673 0.930 1_455 S
C662 C658 1.524 . S
C662 H674 0.956 . S
C662 H675 0.961 . S
C662 H676 0.961 . S
C663 C660 1.539 . S
C663 H677 0.958 . S
C663 H678 0.961 . S
C663 H679 0.960 . S
H664 C648 0.934 . S
H665 C653 0.929 . S
H666 C654 0.960 . S
H667 C654 0.962 . S
H668 C654 0.960 1_655 S
H669 C655 0.961 . S
H670 C655 0.961 . S
H671 C655 0.961 1_655 S
H672 C656 0.931 . S
H673 C661 0.930 1_655 S
H674 C662 0.956 . S
H675 C662 0.961 . S
H676 C662 0.961 . S
H677 C663 0.958 . S
H678 C663 0.961 . S
H679 C663 0.960 . S
C680 C681 1.391 1_545 S
C680 C682 1.394 . S
C680 H696 0.931 . S
C681 C680 1.391 1_565 S
C681 C685 1.376 . S
C682 C680 1.394 . S
C682 C683 1.369 . S
C682 C686 1.531 . S
C683 C682 1.369 . S
C683 C684 1.410 1_545 S
C683 C691 1.503 . S
C684 C683 1.410 1_565 S
C684 C685 1.392 . S
C684 C687 1.511 . S
C685 C681 1.376 . S
C685 C684 1.392 . S
C685 H697 0.929 . S
C686 C682 1.531 . S
C686 H698 0.960 . S
C686 H699 0.962 . S
C686 H700 0.960 . S
C687 C684 1.511 . S
C687 H701 0.961 . S
C687 H702 0.961 . S
C687 H703 0.961 . S
C688 C689 1.370 . S
C688 C690 1.363 . S
C688 H704 0.931 . S
C689 C688 1.370 . S
C689 C693 1.408 . S
C690 C688 1.363 . S
C690 C691 1.370 . S
C690 C694 1.524 . S
C691 C683 1.503 . S
C691 C690 1.370 . S
C691 C692 1.403 . S
C692 C691 1.403 . S
C692 C693 1.404 . S
C692 C695 1.539 . S
C693 C689 1.408 . S
C693 C692 1.404 . S
C693 H705 0.930 . S
C694 C690 1.524 . S
C694 H706 0.956 . S
C694 H707 0.961 1_545 S
C694 H708 0.961 . S
C695 C692 1.539 . S
C695 H709 0.958 . S
C695 H710 0.961 . S
C695 H711 0.960 . S
H696 C680 0.931 . S
H697 C685 0.929 . S
H698 C686 0.960 . S
H699 C686 0.962 . S
H700 C686 0.960 . S
H701 C687 0.961 . S
H702 C687 0.961 . S
H703 C687 0.961 . S
H704 C688 0.931 . S
H705 C693 0.930 . S
H706 C694 0.956 . S
H707 C694 0.961 1_565 S
H708 C694 0.961 . S
H709 C695 0.958 . S
H710 C695 0.961 . S
H711 C695 0.960 . S
C712 C713 1.391 . S
C712 C714 1.394 . S
C712 H728 0.931 . S
C713 C712 1.391 . S
C713 C717 1.376 . S
C714 C712 1.394 . S
C714 C715 1.369 . S
C714 C718 1.531 . S
C715 C714 1.369 . S
C715 C716 1.410 . S
C715 C723 1.503 . S
C716 C715 1.410 . S
C716 C717 1.392 . S
C716 C719 1.511 . S
C717 C713 1.376 . S
C717 C716 1.392 . S
C717 H729 0.929 . S
C718 C714 1.531 . S
C718 H730 0.960 . S
C718 H731 0.962 . S
C718 H732 0.960 . S
C719 C716 1.511 . S
C719 H733 0.961 . S
C719 H734 0.961 . S
C719 H735 0.961 . S
C720 C721 1.370 . S
C720 C722 1.363 . S
C720 H736 0.931 . S
C721 C720 1.370 . S
C721 C725 1.408 . S
C722 C720 1.363 . S
C722 C723 1.370 . S
C722 C726 1.524 . S
C723 C715 1.503 . S
C723 C722 1.370 . S
C723 C724 1.403 . S
C724 C723 1.403 . S
C724 C725 1.404 . S
C724 C727 1.539 . S
C725 C721 1.408 . S
C725 C724 1.404 . S
C725 H737 0.930 . S
C726 C722 1.524 . S
C726 H738 0.956 . S
C726 H739 0.961 . S
C726 H740 0.961 . S
C727 C724 1.539 . S
C727 H741 0.958 . S
C727 H742 0.961 . S
C727 H743 0.960 . S
H728 C712 0.931 . S
H729 C717 0.929 . S
H730 C718 0.960 . S
H731 C718 0.962 . S
H732 C718 0.960 . S
H733 C719 0.961 . S
H734 C719 0.961 . S
H735 C719 0.961 . S
H736 C720 0.931 . S
H737 C725 0.930 . S
H738 C726 0.956 . S
H739 C726 0.961 . S
H740 C726 0.961 . S
H741 C727 0.958 . S
H742 C727 0.961 . S
H743 C727 0.960 . S
C744 C745 1.391 . S
C744 C746 1.394 . S
C744 H760 0.931 . S
C745 C744 1.391 . S
C745 C749 1.376 . S
C746 C744 1.394 . S
C746 C747 1.369 . S
C746 C750 1.531 . S
C747 C746 1.369 . S
C747 C748 1.410 . S
C747 C755 1.503 . S
C748 C747 1.410 . S
C748 C749 1.392 . S
C748 C751 1.511 . S
C749 C745 1.376 . S
C749 C748 1.392 . S
C749 H761 0.929 . S
C750 C746 1.531 . S
C750 H762 0.960 . S
C750 H763 0.962 . S
C750 H764 0.960 . S
C751 C748 1.511 . S
C751 H765 0.961 . S
C751 H766 0.961 . S
C751 H767 0.961 . S
C752 C753 1.370 . S
C752 C754 1.363 . S
C752 H768 0.931 . S
C753 C752 1.370 . S
C753 C757 1.408 . S
C754 C752 1.363 . S
C754 C755 1.370 . S
C754 C758 1.524 . S
C755 C747 1.503 . S
C755 C754 1.370 . S
C755 C756 1.403 . S
C756 C755 1.403 . S
C756 C757 1.404 . S
C756 C759 1.539 . S
C757 C753 1.408 . S
C757 C756 1.404 . S
C757 H769 0.930 . S
C758 C754 1.524 . S
C758 H770 0.956 . S
C758 H771 0.961 . S
C758 H772 0.961 . S
C759 C756 1.539 . S
C759 H773 0.958 . S
C759 H774 0.961 . S
C759 H775 0.960 . S
H760 C744 0.931 . S
H761 C749 0.929 . S
H762 C750 0.960 . S
H763 C750 0.962 . S
H764 C750 0.960 . S
H765 C751 0.961 . S
H766 C751 0.961 . S
H767 C751 0.961 . S
H768 C752 0.931 . S
H769 C757 0.930 . S
H770 C758 0.956 . S
H771 C758 0.961 . S
H772 C758 0.961 . S
H773 C759 0.958 . S
H774 C759 0.961 . S
H775 C759 0.960 . S
C776 C777 1.389 1_454 S
C776 C778 1.394 . S
C776 H792 0.931 . S
C777 C776 1.389 1_656 S
C777 C781 1.380 . S
C778 C776 1.394 . S
C778 C779 1.369 1_454 S
C778 C782 1.531 . S
C779 C778 1.369 1_656 S
C779 C780 1.410 . S
C779 C787 1.503 1_655 S
C780 C779 1.410 . S
C780 C781 1.392 . S
C780 C783 1.511 . S
C781 C777 1.380 . S
C781 C780 1.392 . S
C781 H793 0.929 . S
C782 C778 1.531 . S
C782 H794 0.960 1_455 S
C782 H795 0.962 . S
C782 H796 0.960 1_455 S
C783 C780 1.511 . S
C783 H797 0.961 . S
C783 H798 0.963 1_655 S
C783 H799 0.961 . S
C784 C785 1.370 . S
C784 C786 1.363 . S
C784 H800 0.931 . S
C785 C784 1.370 . S
C785 C789 1.408 1_455 S
C786 C784 1.363 . S
C786 C787 1.370 . S
C786 C790 1.524 . S
C787 C779 1.503 1_455 S
C787 C786 1.370 . S
C787 C788 1.403 1_455 S
C788 C787 1.403 1_655 S
C788 C789 1.404 . S
C788 C791 1.539 . S
C789 C785 1.408 1_655 S
C789 C788 1.404 . S
C789 H801 0.930 . S
C790 C786 1.524 . S
C790 H802 0.956 . S
C790 H803 0.961 . S
C790 H804 0.961 . S
C791 C788 1.539 . S
C791 H805 0.958 . S
C791 H806 0.961 . S
C791 H807 0.960 . S
H792 C776 0.931 . S
H793 C781 0.929 . S
H794 C782 0.960 1_655 S
H795 C782 0.962 . S
H796 C782 0.960 1_655 S
H797 C783 0.961 . S
H798 C783 0.963 1_455 S
H799 C783 0.961 . S
H800 C784 0.931 . S
H801 C789 0.930 . S
H802 C790 0.956 . S
H803 C790 0.961 . S
H804 C790 0.961 . S
H805 C791 0.958 . S
H806 C791 0.961 . S
H807 C791 0.960 . S
C808 C809 1.428 . S
C808 C810 1.394 . S
C808 H824 0.931 . S
C809 C808 1.428 . S
C809 C813 1.340 1_545 S
C810 C808 1.394 . S
C810 C811 1.369 . S
C810 C814 1.531 . S
C811 C810 1.369 . S
C811 C812 1.410 1_545 S
C811 C819 1.503 . S
C812 C811 1.410 1_565 S
C812 C813 1.392 . S
C812 C815 1.511 . S
C813 C809 1.340 1_565 S
C813 C812 1.392 . S
C813 H825 0.929 . S
C814 C810 1.531 . S
C814 H826 0.960 1_556 S
C814 H827 0.962 . S
C814 H828 0.960 1_556 S
C815 C812 1.511 . S
C815 H829 0.961 . S
C815 H830 0.961 . S
C815 H831 0.961 . S
C816 C817 1.370 . S
C816 C818 1.363 . S
C816 H832 0.931 . S
C817 C816 1.370 . S
C817 C821 1.412 . S
C818 C816 1.363 . S
C818 C819 1.370 . S
C818 C822 1.524 . S
C819 C811 1.503 . S
C819 C818 1.370 . S
C819 C820 1.403 1_545 S
C820 C819 1.403 1_565 S
C820 C821 1.403 1_565 S
C820 C823 1.539 1_556 S
C821 C817 1.412 . S
C821 C820 1.403 1_545 S
C821 H833 0.927 1_546 S
C822 C818 1.524 . S
C822 H834 0.956 . S
C822 H835 0.961 . S
C822 H836 0.961 . S
C823 C820 1.539 1_554 S
C823 H837 0.958 1_565 S
C823 H838 0.961 . S
C823 H839 0.960 . S
H824 C808 0.931 . S
H825 C813 0.929 . S
H826 C814 0.960 1_554 S
H827 C814 0.962 . S
H828 C814 0.960 1_554 S
H829 C815 0.961 . S
H830 C815 0.961 . S
H831 C815 0.961 . S
H832 C816 0.931 . S
H833 C821 0.927 1_564 S
H834 C822 0.956 . S
H835 C822 0.961 . S
H836 C822 0.961 . S
H837 C823 0.958 1_545 S
H838 C823 0.961 . S
H839 C823 0.960 . S
C840 C841 1.391 . S
C840 C842 1.394 . S
C840 H856 0.931 . S
C841 C840 1.391 . S
C841 C845 1.376 . S
C842 C840 1.394 . S
C842 C843 1.369 . S
C842 C846 1.531 . S
C843 C842 1.369 . S
C843 C844 1.410 . S
C843 C851 1.503 . S
C844 C843 1.410 . S
C844 C845 1.392 . S
C844 C847 1.511 . S
C845 C841 1.376 . S
C845 C844 1.392 . S
C845 H857 0.929 . S
C846 C842 1.531 . S
C846 H858 0.960 . S
C846 H859 0.962 . S
C846 H860 0.960 . S
C847 C844 1.511 . S
C847 H861 0.961 . S
C847 H862 0.961 . S
C847 H863 0.961 . S
C848 C849 1.370 . S
C848 C850 1.363 . S
C848 H864 0.931 1_556 S
C849 C848 1.370 . S
C849 C853 1.408 . S
C850 C848 1.363 . S
C850 C851 1.370 . S
C850 C854 1.524 1_556 S
C851 C843 1.503 . S
C851 C850 1.370 . S
C851 C852 1.403 . S
C852 C851 1.403 . S
C852 C853 1.404 . S
C852 C855 1.539 . S
C853 C849 1.408 . S
C853 C852 1.404 . S
C853 H865 0.930 . S
C854 C850 1.524 1_554 S
C854 H866 0.956 . S
C854 H867 0.961 . S
C854 H868 0.961 . S
C855 C852 1.539 . S
C855 H869 0.958 . S
C855 H870 0.961 . S
C855 H871 0.960 . S
H856 C840 0.931 . S
H857 C845 0.929 . S
H858 C846 0.960 . S
H859 C846 0.962 . S
H860 C846 0.960 . S
H861 C847 0.961 . S
H862 C847 0.961 . S
H863 C847 0.961 . S
H864 C848 0.931 1_554 S
H865 C853 0.930 . S
H866 C854 0.956 . S
H867 C854 0.961 . S
H868 C854 0.961 . S
H869 C855 0.958 . S
H870 C855 0.961 . S
H871 C855 0.960 . S
C872 C873 1.391 . S
C872 C874 1.394 . S
C872 H888 0.931 . S
C873 C872 1.391 . S
C873 C877 1.376 . S
C874 C872 1.394 . S
C874 C875 1.369 . S
C874 C878 1.531 . S
C875 C874 1.369 . S
C875 C876 1.410 . S
C875 C883 1.503 . S
C876 C875 1.410 . S
C876 C877 1.392 . S
C876 C879 1.511 . S
C877 C873 1.376 . S
C877 C876 1.392 . S
C877 H889 0.929 . S
C878 C874 1.531 . S
C878 H890 0.960 1_556 S
C878 H891 0.962 . S
C878 H892 0.960 1_556 S
C879 C876 1.511 . S
C879 H893 0.961 . S
C879 H894 0.961 . S
C879 H895 0.961 . S
C880 C881 1.370 . S
C880 C882 1.363 . S
C880 H896 0.931 . S
C881 C880 1.370 . S
C881 C885 1.408 . S
C882 C880 1.363 . S
C882 C883 1.370 . S
C882 C886 1.524 . S
C883 C875 1.503 . S
C883 C882 1.370 . S
C883 C884 1.403 . S
C884 C883 1.403 . S
C884 C885 1.404 . S
C884 C887 1.539 1_556 S
C885 C881 1.408 . S
C885 C884 1.404 . S
C885 H897 0.930 1_556 S
C886 C882 1.524 . S
C886 H898 0.956 . S
C886 H899 0.961 . S
C886 H900 0.961 . S
C887 C884 1.539 1_554 S
C887 H901 0.958 . S
C887 H902 0.961 . S
C887 H903 0.960 . S
H888 C872 0.931 . S
H889 C877 0.929 . S
H890 C878 0.960 1_554 S
H891 C878 0.962 . S
H892 C878 0.960 1_554 S
H893 C879 0.961 . S
H894 C879 0.961 . S
H895 C879 0.961 . S
H896 C880 0.931 . S
H897 C885 0.930 1_554 S
H898 C886 0.956 . S
H899 C886 0.961 . S
H900 C886 0.961 . S
H901 C887 0.958 . S
H902 C887 0.961 . S
H903 C887 0.960 . S
C904 C905 1.420 . S
C904 C906 1.394 . S
C904 H920 0.931 . S
C905 C904 1.420 . S
C905 C909 1.348 1_655 S
C906 C904 1.394 . S
C906 C907 1.369 . S
C906 C910 1.531 . S
C907 C906 1.369 . S
C907 C908 1.410 1_655 S
C907 C915 1.503 . S
C908 C907 1.410 1_455 S
C908 C909 1.392 . S
C908 C911 1.511 . S
C909 C905 1.348 1_455 S
C909 C908 1.392 . S
C909 H921 0.929 . S
C910 C906 1.531 . S
C910 H922 0.960 . S
C910 H923 0.962 . S
C910 H924 0.960 . S
C911 C908 1.511 . S
C911 H925 0.961 . S
C911 H926 0.961 . S
C911 H927 0.961 . S
C912 C913 1.370 . S
C912 C914 1.363 . S
C912 H928 0.931 . S
C913 C912 1.370 . S
C913 C917 1.408 1_655 S
C914 C912 1.363 . S
C914 C915 1.370 . S
C914 C918 1.524 . S
C915 C907 1.503 . S
C915 C914 1.370 . S
C915 C916 1.403 1_655 S
C916 C915 1.403 1_455 S
C916 C917 1.404 . S
C916 C919 1.539 . S
C917 C913 1.408 1_455 S
C917 C916 1.404 . S
C917 H929 0.930 . S
C918 C914 1.524 . S
C918 H930 0.956 . S
C918 H931 0.961 . S
C918 H932 0.961 . S
C919 C916 1.539 . S
C919 H933 0.958 . S
C919 H934 0.961 . S
C919 H935 0.960 . S
H920 C904 0.931 . S
H921 C909 0.929 . S
H922 C910 0.960 . S
H923 C910 0.962 . S
H924 C910 0.960 . S
H925 C911 0.961 . S
H926 C911 0.961 . S
H927 C911 0.961 . S
H928 C912 0.931 . S
H929 C917 0.930 . S
H930 C918 0.956 . S
H931 C918 0.961 . S
H932 C918 0.961 . S
H933 C919 0.958 . S
H934 C919 0.961 . S
H935 C919 0.960 . S
C936 C937 1.390 1_545 S
C936 C938 1.394 . S
C936 H952 0.931 . S
C937 C936 1.390 1_565 S
C937 C941 1.377 . S
C938 C936 1.394 . S
C938 C939 1.356 1_545 S
C938 C942 1.531 . S
C939 C938 1.356 1_565 S
C939 C940 1.422 . S
C939 C947 1.505 . S
C940 C939 1.422 . S
C940 C941 1.392 . S
C940 C943 1.511 . S
C941 C937 1.377 . S
C941 C940 1.392 . S
C941 H953 0.929 . S
C942 C938 1.531 . S
C942 H954 0.960 . S
C942 H955 0.962 . S
C942 H956 0.960 . S
C943 C940 1.511 . S
C943 H957 0.961 . S
C943 H958 0.961 . S
C943 H959 0.961 . S
C944 C945 1.370 . S
C944 C946 1.363 . S
C944 H960 0.931 . S
C945 C944 1.370 . S
C945 C949 1.408 1_565 S
C946 C944 1.363 . S
C946 C947 1.370 . S
C946 C950 1.524 . S
C947 C939 1.505 . S
C947 C946 1.370 . S
C947 C948 1.403 1_565 S
C948 C947 1.403 1_545 S
C948 C949 1.404 . S
C948 C951 1.539 . S
C949 C945 1.408 1_545 S
C949 C948 1.404 . S
C949 H961 0.930 . S
C950 C946 1.524 . S
C950 H962 0.956 . S
C950 H963 0.961 . S
C950 H964 0.961 . S
C951 C948 1.539 . S
C951 H965 0.958 . S
C951 H966 0.961 . S
C951 H967 0.960 . S
H952 C936 0.931 . S
H953 C941 0.929 . S
H954 C942 0.960 . S
H955 C942 0.962 . S
H956 C942 0.960 . S
H957 C943 0.961 . S
H958 C943 0.961 . S
H959 C943 0.961 . S
H960 C944 0.931 . S
H961 C949 0.930 . S
H962 C950 0.956 . S
H963 C950 0.961 . S
H964 C950 0.961 . S
H965 C951 0.958 . S
H966 C951 0.961 . S
H967 C951 0.960 . S
C968 C969 1.391 . S
C968 C970 1.394 . S
C968 H984 0.931 . S
C969 C968 1.391 . S
C969 C973 1.376 . S
C970 C968 1.394 . S
C970 C971 1.369 . S
C970 C974 1.531 . S
C971 C970 1.369 . S
C971 C972 1.410 . S
C971 C979 1.503 . S
C972 C971 1.410 . S
C972 C973 1.392 . S
C972 C975 1.511 . S
C973 C969 1.376 . S
C973 C972 1.392 . S
C973 H985 0.929 . S
C974 C970 1.531 . S
C974 H986 0.960 . S
C974 H987 0.962 . S
C974 H988 0.960 . S
C975 C972 1.511 . S
C975 H989 0.961 . S
C975 H990 0.961 . S
C975 H991 0.961 . S
C976 C977 1.370 . S
C976 C978 1.363 . S
C976 H992 0.931 . S
C977 C976 1.370 . S
C977 C981 1.408 . S
C978 C976 1.363 . S
C978 C979 1.370 . S
C978 C982 1.524 . S
C979 C971 1.503 . S
C979 C978 1.370 . S
C979 C980 1.403 . S
C980 C979 1.403 . S
C980 C981 1.404 . S
C980 C983 1.539 . S
C981 C977 1.408 . S
C981 C980 1.404 . S
C981 H993 0.930 . S
C982 C978 1.524 . S
C982 H994 0.956 . S
C982 H995 0.961 . S
C982 H996 0.961 . S
C983 C980 1.539 . S
C983 H997 0.958 . S
C983 H998 0.961 . S
C983 H999 0.960 . S
H984 C968 0.931 . S
H985 C973 0.929 . S
H986 C974 0.960 . S
H987 C974 0.962 . S
H988 C974 0.960 . S
H989 C975 0.961 . S
H990 C975 0.961 . S
H991 C975 0.961 . S
H992 C976 0.931 . S
H993 C981 0.930 . S
H994 C982 0.956 . S
H995 C982 0.961 . S
H996 C982 0.961 . S
H997 C983 0.958 . S
H998 C983 0.961 . S
H999 C983 0.960 . S
C1000 C1001 1.391 . S
C1000 C1002 1.394 . S
C1000 H1016 0.931 . S
C1001 C1000 1.391 . S
C1001 C1005 1.376 . S
C1002 C1000 1.394 . S
C1002 C1003 1.369 . S
C1002 C1006 1.531 . S
C1003 C1002 1.369 . S
C1003 C1004 1.410 . S
C1003 C1011 1.503 . S
C1004 C1003 1.410 . S
C1004 C1005 1.392 . S
C1004 C1007 1.511 . S
C1005 C1001 1.376 . S
C1005 C1004 1.392 . S
C1005 H1017 0.929 . S
C1006 C1002 1.531 . S
C1006 H1018 0.960 . S
C1006 H1019 0.962 . S
C1006 H1020 0.960 . S
C1007 C1004 1.511 . S
C1007 H1021 0.961 . S
C1007 H1022 0.961 . S
C1007 H1023 0.961 . S
C1008 C1009 1.370 . S
C1008 C1010 1.363 . S
C1008 H1024 0.931 . S
C1009 C1008 1.370 . S
C1009 C1013 1.408 . S
C1010 C1008 1.363 . S
C1010 C1011 1.370 . S
C1010 C1014 1.524 . S
C1011 C1003 1.503 . S
C1011 C1010 1.370 . S
C1011 C1012 1.403 . S
C1012 C1011 1.403 . S
C1012 C1013 1.404 . S
C1012 C1015 1.539 . S
C1013 C1009 1.408 . S
C1013 C1012 1.404 . S
C1013 H1025 0.930 . S
C1014 C1010 1.524 . S
C1014 H1026 0.956 . S
C1014 H1027 0.961 . S
C1014 H1028 0.961 . S
C1015 C1012 1.539 . S
C1015 H1029 0.958 . S
C1015 H1030 0.961 . S
C1015 H1031 0.960 . S
H1016 C1000 0.931 . S
H1017 C1005 0.929 . S
H1018 C1006 0.960 . S
H1019 C1006 0.962 . S
H1020 C1006 0.960 . S
H1021 C1007 0.961 . S
H1022 C1007 0.961 . S
H1023 C1007 0.961 . S
H1024 C1008 0.931 . S
H1025 C1013 0.930 . S
H1026 C1014 0.956 . S
H1027 C1014 0.961 . S
H1028 C1014 0.961 . S
H1029 C1015 0.958 . S
H1030 C1015 0.961 . S
H1031 C1015 0.960 . S
C265 N80 1.891 . S
C273 C106 1.967 . S
C305 C146 1.987 . S
C297 N93 1.887 . S
C337 C186 1.994 . S
C329 N54 1.883 . S
C369 C226 1.982 1_455 S
C361 N67 1.869 1_455 S
C401 C119 1.971 1_565 S
C393 N28 1.875 . S
C425 N41 1.871 . S
C433 C159 1.988 . S
C457 N2 1.894 . S
C465 C199 1.995 . S
C489 N15 1.908 . S
C497 C239 1.986 1_655 S
C529 C130 0.444 . S
C521 N70 0.347 . S
C561 C170 0.417 . S
C553 N83 0.456 1_545 S
C593 C210 0.427 . S
C585 N96 0.458 . S
C617 N57 0.373 . S
C625 C250 0.444 . S
C649 N18 0.468 . S
C657 C113 0.390 . S
C689 C153 0.430 . S
C681 N31 0.406 . S
C721 C193 0.428 . S
C713 N44 0.435 . S
C745 N5 0.399 . S
C753 C233 0.430 . S
C777 N66 2.170 . S
C785 C107 2.275 . S
C809 N79 2.113 1_545 S
C817 C147 2.247 . S
C849 C187 2.231 . S
C841 N92 2.151 . S
C881 C227 2.266 . S
C873 N53 2.130 . S
C905 N14 2.197 . S
C913 C126 2.286 . S
C945 C166 2.248 . S
C937 N27 2.118 . S
C977 C206 2.235 . S
C969 N40 2.092 . S
C1001 N1 2.166 . S
C1009 C246 2.268 . S
