# Generated by pormake.
# Topology ctn, (3,4)-cn, num edge types: 1
# Building blocks:
#     Node 0, Type 0, BuildingBlock: BETDAH_clean_linker_0, # of connection points: 3
#     Node 1, Type 0, BuildingBlock: BETDAH_clean_linker_0, # of connection points: 3
#     Node 2, Type 0, BuildingBlock: BETDAH_clean_linker_0, # of connection points: 3
#     Node 3, Type 0, BuildingBlock: BETDAH_clean_linker_0, # of connection points: 3
#     Node 4, Type 0, BuildingBlock: BETDAH_clean_linker_0, # of connection points: 3
#     Node 5, Type 0, BuildingBlock: BETDAH_clean_linker_0, # of connection points: 3
#     Node 6, Type 0, BuildingBlock: BETDAH_clean_linker_0, # of connection points: 3
#     Node 7, Type 0, BuildingBlock: BETDAH_clean_linker_0, # of connection points: 3
#     Node 8, Type 0, BuildingBlock: BETDAH_clean_linker_0, # of connection points: 3
#     Node 9, Type 0, BuildingBlock: BETDAH_clean_linker_0, # of connection points: 3
#     Node 10, Type 0, BuildingBlock: BETDAH_clean_linker_0, # of connection points: 3
#     Node 11, Type 0, BuildingBlock: BETDAH_clean_linker_0, # of connection points: 3
#     Node 12, Type 0, BuildingBlock: BETDAH_clean_linker_0, # of connection points: 3
#     Node 13, Type 0, BuildingBlock: BETDAH_clean_linker_0, # of connection points: 3
#     Node 14, Type 0, BuildingBlock: BETDAH_clean_linker_0, # of connection points: 3
#     Node 15, Type 0, BuildingBlock: BETDAH_clean_linker_0, # of connection points: 3
#     Node 16, Type 1, BuildingBlock: QUQFOY_clean_sbu_1, # of connection points: 4
#     Node 17, Type 1, BuildingBlock: QUQFOY_clean_sbu_1, # of connection points: 4
#     Node 18, Type 1, BuildingBlock: QUQFOY_clean_sbu_1, # of connection points: 4
#     Node 19, Type 1, BuildingBlock: QUQFOY_clean_sbu_1, # of connection points: 4
#     Node 20, Type 1, BuildingBlock: QUQFOY_clean_sbu_1, # of connection points: 4
#     Node 21, Type 1, BuildingBlock: QUQFOY_clean_sbu_1, # of connection points: 4
#     Node 22, Type 1, BuildingBlock: QUQFOY_clean_sbu_1, # of connection points: 4
#     Node 23, Type 1, BuildingBlock: QUQFOY_clean_sbu_1, # of connection points: 4
#     Node 24, Type 1, BuildingBlock: QUQFOY_clean_sbu_1, # of connection points: 4
#     Node 25, Type 1, BuildingBlock: QUQFOY_clean_sbu_1, # of connection points: 4
#     Node 26, Type 1, BuildingBlock: QUQFOY_clean_sbu_1, # of connection points: 4
#     Node 27, Type 1, BuildingBlock: QUQFOY_clean_sbu_1, # of connection points: 4
#     Edge 28, Type (0, 1), BuildingBlock: MIFKUJ_clean_linker_0, # of connection points: 2
#     Edge 29, Type (0, 1), BuildingBlock: MIFKUJ_clean_linker_0, # of connection points: 2
#     Edge 30, Type (0, 1), BuildingBlock: MIFKUJ_clean_linker_0, # of connection points: 2
#     Edge 31, Type (0, 1), BuildingBlock: MIFKUJ_clean_linker_0, # of connection points: 2
#     Edge 32, Type (0, 1), BuildingBlock: MIFKUJ_clean_linker_0, # of connection points: 2
#     Edge 33, Type (0, 1), BuildingBlock: MIFKUJ_clean_linker_0, # of connection points: 2
#     Edge 34, Type (0, 1), BuildingBlock: MIFKUJ_clean_linker_0, # of connection points: 2
#     Edge 35, Type (0, 1), BuildingBlock: MIFKUJ_clean_linker_0, # of connection points: 2
#     Edge 36, Type (0, 1), BuildingBlock: MIFKUJ_clean_linker_0, # of connection points: 2
#     Edge 37, Type (0, 1), BuildingBlock: MIFKUJ_clean_linker_0, # of connection points: 2
#     Edge 38, Type (0, 1), BuildingBlock: MIFKUJ_clean_linker_0, # of connection points: 2
#     Edge 39, Type (0, 1), BuildingBlock: MIFKUJ_clean_linker_0, # of connection points: 2
#     Edge 40, Type (0, 1), BuildingBlock: MIFKUJ_clean_linker_0, # of connection points: 2
#     Edge 41, Type (0, 1), BuildingBlock: MIFKUJ_clean_linker_0, # of connection points: 2
#     Edge 42, Type (0, 1), BuildingBlock: MIFKUJ_clean_linker_0, # of connection points: 2
#     Edge 43, Type (0, 1), BuildingBlock: MIFKUJ_clean_linker_0, # of connection points: 2
#     Edge 44, Type (0, 1), BuildingBlock: MIFKUJ_clean_linker_0, # of connection points: 2
#     Edge 45, Type (0, 1), BuildingBlock: MIFKUJ_clean_linker_0, # of connection points: 2
#     Edge 46, Type (0, 1), BuildingBlock: MIFKUJ_clean_linker_0, # of connection points: 2
#     Edge 47, Type (0, 1), BuildingBlock: MIFKUJ_clean_linker_0, # of connection points: 2
#     Edge 48, Type (0, 1), BuildingBlock: MIFKUJ_clean_linker_0, # of connection points: 2
#     Edge 49, Type (0, 1), BuildingBlock: MIFKUJ_clean_linker_0, # of connection points: 2
#     Edge 50, Type (0, 1), BuildingBlock: MIFKUJ_clean_linker_0, # of connection points: 2
#     Edge 51, Type (0, 1), BuildingBlock: MIFKUJ_clean_linker_0, # of connection points: 2
#     Edge 52, Type (0, 1), BuildingBlock: MIFKUJ_clean_linker_0, # of connection points: 2
#     Edge 53, Type (0, 1), BuildingBlock: MIFKUJ_clean_linker_0, # of connection points: 2
#     Edge 54, Type (0, 1), BuildingBlock: MIFKUJ_clean_linker_0, # of connection points: 2
#     Edge 55, Type (0, 1), BuildingBlock: MIFKUJ_clean_linker_0, # of connection points: 2
#     Edge 56, Type (0, 1), BuildingBlock: MIFKUJ_clean_linker_0, # of connection points: 2
#     Edge 57, Type (0, 1), BuildingBlock: MIFKUJ_clean_linker_0, # of connection points: 2
#     Edge 58, Type (0, 1), BuildingBlock: MIFKUJ_clean_linker_0, # of connection points: 2
#     Edge 59, Type (0, 1), BuildingBlock: MIFKUJ_clean_linker_0, # of connection points: 2
#     Edge 60, Type (0, 1), BuildingBlock: MIFKUJ_clean_linker_0, # of connection points: 2
#     Edge 61, Type (0, 1), BuildingBlock: MIFKUJ_clean_linker_0, # of connection points: 2
#     Edge 62, Type (0, 1), BuildingBlock: MIFKUJ_clean_linker_0, # of connection points: 2
#     Edge 63, Type (0, 1), BuildingBlock: MIFKUJ_clean_linker_0, # of connection points: 2
#     Edge 64, Type (0, 1), BuildingBlock: MIFKUJ_clean_linker_0, # of connection points: 2
#     Edge 65, Type (0, 1), BuildingBlock: MIFKUJ_clean_linker_0, # of connection points: 2
#     Edge 66, Type (0, 1), BuildingBlock: MIFKUJ_clean_linker_0, # of connection points: 2
#     Edge 67, Type (0, 1), BuildingBlock: MIFKUJ_clean_linker_0, # of connection points: 2
#     Edge 68, Type (0, 1), BuildingBlock: MIFKUJ_clean_linker_0, # of connection points: 2
#     Edge 69, Type (0, 1), BuildingBlock: MIFKUJ_clean_linker_0, # of connection points: 2
#     Edge 70, Type (0, 1), BuildingBlock: MIFKUJ_clean_linker_0, # of connection points: 2
#     Edge 71, Type (0, 1), BuildingBlock: MIFKUJ_clean_linker_0, # of connection points: 2
#     Edge 72, Type (0, 1), BuildingBlock: MIFKUJ_clean_linker_0, # of connection points: 2
#     Edge 73, Type (0, 1), BuildingBlock: MIFKUJ_clean_linker_0, # of connection points: 2
#     Edge 74, Type (0, 1), BuildingBlock: MIFKUJ_clean_linker_0, # of connection points: 2
#     Edge 75, Type (0, 1), BuildingBlock: MIFKUJ_clean_linker_0, # of connection points: 2
# Relax obj value: 0.074
# Max RMSD: 0.180
# Mean RMSD: 0.125
data_MOF--net-ctn--node1-QUQFOY_clean_sbu_1--node2-BETDAH_clean_linker_0--edge1-MIFKUJ_clean_linker_0
_symmetry_space_group_name_H-M    P1
_symmetry_Int_Tables_number       1
_symmetry_cell_setting            triclinic
loop_
_symmetry_equiv_pos_as_xyz
'x, y, z'
_cell_length_a     70.13963
_cell_length_b     69.909823
_cell_length_c     71.475913
_cell_angle_alpha  101.42234
_cell_angle_beta   90.166156
_cell_angle_gamma 99.491948
loop_
_atom_site_label
_atom_site_type_symbol
_atom_site_fract_x
_atom_site_fract_y
_atom_site_fract_z
_atom_type_partial_charge
H0 H 0.08376 0.08921 0.10031 0.0
H1 H 0.1204 0.11081 0.05835 0.0
H2 H 0.07237 0.13941 0.07813 0.0
C3 C 0.08738 0.09963 0.09095 0.0
C4 C 0.0761 0.11449 0.09071 0.0
C5 C 0.10322 0.09798 0.07918 0.0
C6 C 0.10801 0.11167 0.06732 0.0
C7 C 0.09695 0.12649 0.06673 0.0
C8 C 0.08093 0.12792 0.07846 0.0
N9 N 0.10277 0.13985 0.05443 0.0
C10 C 0.09093 0.15105 0.04732 0.0
H11 H 0.31677 0.71179 0.25499 0.0
H12 H 0.32105 0.76591 0.23397 0.0
H13 H 0.26965 0.72164 0.22169 0.0
C14 C 0.31058 0.72103 0.24692 0.0
C15 C 0.29211 0.71443 0.23834 0.0
C16 C 0.32099 0.73962 0.24559 0.0
C17 C 0.31301 0.75157 0.23504 0.0
C18 C 0.29431 0.74502 0.22647 0.0
C19 C 0.28402 0.72658 0.2283 0.0
N20 N 0.28499 0.75644 0.21616 0.0
C21 C 0.29293 0.77459 0.21198 0.0
H22 H 0.97115 0.45711 0.0821 0.0
H23 H 0.94355 0.49235 0.12679 0.0
H24 H 0.91842 0.47673 0.06971 0.0
C25 C 0.95969 0.46544 0.0868 0.0
C26 C 0.94497 0.46599 0.07369 0.0
C27 C 0.95933 0.47479 0.10601 0.0
C28 C 0.94396 0.48481 0.11205 0.0
C29 C 0.92945 0.48598 0.09902 0.0
C30 C 0.92985 0.47636 0.07979 0.0
N31 N 0.91461 0.49682 0.10577 0.0
C32 C 0.9051 0.50662 0.09452 0.0
H33 H 0.79258 0.83462 0.20929 0.0
H34 H 0.755 0.79673 0.23925 0.0
H35 H 0.78088 0.85516 0.26827 0.0
C36 C 0.78553 0.83216 0.22229 0.0
C37 C 0.78785 0.84738 0.2386 0.0
C38 C 0.7738 0.81386 0.22244 0.0
C39 C 0.76395 0.81087 0.23901 0.0
C40 C 0.7667 0.82584 0.2556 0.0
C41 C 0.77872 0.84384 0.25532 0.0
N42 N 0.75845 0.82298 0.27311 0.0
C43 C 0.7403 0.81208 0.2746 0.0
H44 H 0.07572 0.0108 0.44659 0.0
H45 H 0.07468 0.9686 0.48288 0.0
H46 H 0.02461 0.96731 0.44752 0.0
C47 C 0.06784 0.99849 0.45204 0.0
C48 C 0.04885 0.99025 0.44528 0.0
C49 C 0.07707 0.99083 0.46562 0.0
C50 C 0.06744 0.97451 0.47244 0.0
C51 C 0.04847 0.96596 0.46571 0.0
C52 C 0.03937 0.97381 0.45218 0.0
N53 N 0.03802 0.94948 0.47217 0.0
C54 C 0.0423 0.94387 0.48909 0.0
H55 H 0.26916 0.7473 0.8492 0.0
H56 H 0.2325 0.77744 0.82081 0.0
H57 H 0.26357 0.73503 0.78802 0.0
C58 C 0.26315 0.75021 0.83626 0.0
C59 C 0.26798 0.73976 0.81858 0.0
C60 C 0.25034 0.7639 0.83736 0.0
C61 C 0.24208 0.76671 0.8203 0.0
C62 C 0.24684 0.75621 0.8025 0.0
C63 C 0.25982 0.74292 0.80178 0.0
N64 N 0.23927 0.75894 0.78496 0.0
C65 C 0.22274 0.76705 0.78312 0.0
H66 H 0.93926 0.59154 0.50411 0.0
H67 H 0.9716 0.60769 0.45687 0.0
H68 H 0.92046 0.56326 0.44648 0.0
C69 C 0.94148 0.58946 0.48888 0.0
C70 C 0.92816 0.57577 0.4762 0.0
C71 C 0.95704 0.60123 0.48206 0.0
C72 C 0.9596 0.59872 0.46228 0.0
C73 C 0.94638 0.58493 0.44948 0.0
C74 C 0.93054 0.57387 0.45648 0.0
N75 N 0.94856 0.58201 0.42948 0.0
C76 C 0.96651 0.58226 0.42133 0.0
H77 H 0.82573 0.78678 0.81048 0.0
H78 H 0.79005 0.80567 0.7708 0.0
H79 H 0.76386 0.77793 0.81497 0.0
C80 C 0.81161 0.78849 0.80554 0.0
C81 C 0.7951 0.7818 0.81507 0.0
C82 C 0.80997 0.79695 0.78942 0.0
C83 C 0.79156 0.79918 0.78318 0.0
C84 C 0.77499 0.7924 0.79254 0.0
C85 C 0.77682 0.78351 0.80818 0.0
N86 N 0.75621 0.79347 0.78596 0.0
C87 C 0.75145 0.81047 0.78124 0.0
H88 H 0.32744 0.28172 0.30542 0.0
H89 H 0.28962 0.30071 0.26792 0.0
H90 H 0.26566 0.26945 0.3107 0.0
C91 C 0.31296 0.28311 0.30115 0.0
C92 C 0.29695 0.27468 0.31028 0.0
C93 C 0.31046 0.2924 0.28581 0.0
C94 C 0.2917 0.29368 0.27982 0.0
C95 C 0.27559 0.28536 0.28888 0.0
C96 C 0.27826 0.27569 0.30382 0.0
N97 N 0.2565 0.286 0.28287 0.0
C98 C 0.25091 0.3033 0.27979 0.0
H99 H 0.47454 0.93812 0.5633 0.0
H100 H 0.43763 0.97998 0.58594 0.0
H101 H 0.41796 0.93324 0.53766 0.0
C102 C 0.46095 0.94354 0.56282 0.0
C103 C 0.44673 0.93378 0.54882 0.0
C104 C 0.45781 0.96015 0.57629 0.0
C105 C 0.44023 0.9672 0.57556 0.0
C106 C 0.4259 0.95749 0.56153 0.0
C107 C 0.42912 0.94073 0.54836 0.0
N108 N 0.4079 0.96398 0.56069 0.0
C109 C 0.40651 0.98366 0.56125 0.0
H110 H 0.27293 0.32478 0.71181 0.0
H111 H 0.23713 0.27342 0.72473 0.0
H112 H 0.23942 0.32981 0.76257 0.0
C113 C 0.26279 0.31818 0.72109 0.0
C114 C 0.25703 0.32997 0.73776 0.0
C115 C 0.25543 0.2979 0.71613 0.0
C116 C 0.24269 0.28917 0.72829 0.0
C117 C 0.23697 0.30047 0.74504 0.0
C118 C 0.24402 0.32096 0.74973 0.0
N119 N 0.22428 0.29052 0.75678 0.0
C120 C 0.21455 0.29962 0.77201 0.0
H121 H 0.81232 0.21576 0.75233 0.0
H122 H 0.81587 0.26891 0.72963 0.0
H123 H 0.76831 0.22093 0.71271 0.0
C124 C 0.80649 0.22425 0.74321 0.0
C125 C 0.7892 0.21611 0.7327 0.0
C126 C 0.81615 0.24334 0.74238 0.0
C127 C 0.80853 0.25419 0.73037 0.0
C128 C 0.79114 0.24601 0.71968 0.0
C129 C 0.78166 0.2271 0.72098 0.0
N130 N 0.78242 0.2561 0.70751 0.0
C131 C 0.78873 0.27531 0.70506 0.0
H132 H 0.57166 0.58664 0.61584 0.0
H133 H 0.59611 0.61839 0.57331 0.0
H134 H 0.55291 0.64075 0.60981 0.0
C135 C 0.57248 0.59912 0.6088 0.0
C136 C 0.56048 0.61329 0.61453 0.0
C137 C 0.58551 0.60083 0.59407 0.0
C138 C 0.58611 0.61679 0.58464 0.0
C139 C 0.57447 0.63128 0.59054 0.0
C140 C 0.562 0.62961 0.6056 0.0
N141 N 0.57545 0.6481 0.58209 0.0
C142 C 0.57672 0.64737 0.56258 0.0
H143 H 0.5761 0.49276 0.93903 0.0
H144 H 0.58017 0.45958 0.98305 0.0
H145 H 0.52761 0.4499 0.94878 0.0
C146 C 0.56975 0.48126 0.94644 0.0
C147 C 0.55056 0.4719 0.94208 0.0
C148 C 0.58044 0.47689 0.96121 0.0
C149 C 0.57192 0.46281 0.97156 0.0
C150 C 0.55287 0.45284 0.96686 0.0
C151 C 0.54237 0.45742 0.95214 0.0
N152 N 0.5437 0.43831 0.97671 0.0
C153 C 0.55053 0.43535 0.99399 0.0
H154 H 0.77158 0.25341 0.34802 0.0
H155 H 0.73588 0.2851 0.32046 0.0
H156 H 0.77341 0.25017 0.28736 0.0
C157 C 0.76659 0.25752 0.33526 0.0
C158 C 0.7743 0.25033 0.31763 0.0
C159 C 0.75279 0.27024 0.33658 0.0
C160 C 0.74621 0.27508 0.31974 0.0
C161 C 0.75368 0.26778 0.30201 0.0
C162 C 0.76783 0.25573 0.30114 0.0
N163 N 0.74767 0.27261 0.28482 0.0
C164 C 0.72997 0.27828 0.28209 0.0
H165 H 0.43833 0.10046 0.99605 0.0
H166 H 0.46841 0.12068 0.94922 0.0
H167 H 0.42269 0.07029 0.93828 0.0
C168 C 0.4406 0.09895 0.98086 0.0
C169 C 0.42907 0.08368 0.968 0.0
C170 C 0.45487 0.11238 0.97427 0.0
C171 C 0.45754 0.11036 0.95454 0.0
C172 C 0.44591 0.09514 0.9416 0.0
C173 C 0.43168 0.08194 0.94836 0.0
N174 N 0.44791 0.09327 0.9217 0.0
C175 C 0.46509 0.08987 0.91318 0.0
O176 O 0.26101 0.88756 0.0303 0.0
Cd177 Cd 0.27342 0.90853 0.05331 0.0
Cd178 Cd 0.24534 0.92956 0.04122 0.0
O179 O 0.23826 0.90293 0.02188 0.0
O180 O 0.28976 0.89407 0.06643 0.0
O181 O 0.26551 0.90725 0.08023 0.0
C182 C 0.27938 0.89735 0.08118 0.0
C183 C 0.22007 0.94704 0.05099 0.0
C184 C 0.24682 0.88798 0.01938 0.0
C185 C 0.28828 0.94648 0.04082 0.0
O186 O 0.27078 0.94791 0.03773 0.0
O187 O 0.2925 0.93196 0.04725 0.0
O188 O 0.22593 0.94476 0.03379 0.0
O189 O 0.22823 0.93887 0.06283 0.0
O190 O 0.17866 0.53205 0.29129 0.0
Cd191 Cd 0.15846 0.50948 0.29762 0.0
Cd192 Cd 0.13772 0.5166 0.26833 0.0
O193 O 0.16475 0.53083 0.26331 0.0
O194 O 0.17232 0.49181 0.30907 0.0
O195 O 0.15656 0.48256 0.28092 0.0
C196 C 0.1672 0.4784 0.29388 0.0
C197 C 0.11692 0.50474 0.24136 0.0
C198 C 0.1789 0.53727 0.27525 0.0
C199 C 0.12358 0.52622 0.30888 0.0
O200 O 0.1231 0.52849 0.29169 0.0
O201 O 0.13606 0.51714 0.31447 0.0
O202 O 0.12254 0.52333 0.24782 0.0
O203 O 0.12355 0.49248 0.24995 0.0
O204 O 0.77484 0.68411 0.98406 0.0
Cd205 Cd 0.76686 0.66952 0.00613 0.0
Cd206 Cd 0.78889 0.64402 0.98716 0.0
O207 O 0.7953 0.66513 0.97067 0.0
O208 O 0.75506 0.68834 0.02544 0.0
O209 O 0.78196 0.67754 0.03124 0.0
C210 C 0.76893 0.68815 0.03723 0.0
C211 C 0.81261 0.63216 0.00208 0.0
C212 C 0.7871 0.68016 0.97138 0.0
C213 C 0.74738 0.62763 0.99021 0.0
O214 O 0.76301 0.62483 0.98203 0.0
O215 O 0.74625 0.64416 0.001 0.0
O216 O 0.80921 0.627 0.98387 0.0
O217 O 0.80316 0.64499 0.01172 0.0
O218 O 0.95708 0.06604 0.2908 0.0
Cd219 Cd 0.94168 0.06644 0.26623 0.0
Cd220 Cd 0.91448 0.07738 0.29138 0.0
O221 O 0.9345 0.07373 0.311 0.0
O222 O 0.96042 0.06384 0.24543 0.0
O223 O 0.94598 0.08997 0.2533 0.0
C224 C 0.95764 0.08076 0.24242 0.0
C225 C 0.90009 0.1057 0.29728 0.0
C226 C 0.95106 0.06894 0.30773 0.0
C227 C 0.90305 0.03946 0.26302 0.0
O228 O 0.89771 0.05192 0.27657 0.0
O229 O 0.92001 0.04253 0.25683 0.0
O230 O 0.89571 0.09177 0.30671 0.0
O231 O 0.91308 0.10375 0.28458 0.0
O232 O 0.28504 0.17763 0.47845 0.0
Cd233 Cd 0.27745 0.16374 0.50085 0.0
Cd234 Cd 0.29865 0.13754 0.48262 0.0
O235 O 0.30437 0.15755 0.46471 0.0
O236 O 0.26574 0.18308 0.51957 0.0
O237 O 0.29254 0.17239 0.526 0.0
C238 C 0.27953 0.18318 0.53155 0.0
C239 C 0.32342 0.12797 0.49836 0.0
C240 C 0.29657 0.17284 0.46534 0.0
C241 C 0.25701 0.12188 0.48644 0.0
O242 O 0.27272 0.11802 0.47901 0.0
O243 O 0.25619 0.13907 0.49601 0.0
O244 O 0.31954 0.12125 0.48036 0.0
O245 O 0.3136 0.14082 0.50734 0.0
O246 O 0.43286 0.53998 0.80027 0.0
Cd247 Cd 0.41476 0.54402 0.77897 0.0
Cd248 Cd 0.39483 0.55738 0.80931 0.0
O249 O 0.41798 0.55384 0.8252 0.0
O250 O 0.43008 0.54003 0.75556 0.0
O251 O 0.42122 0.56866 0.76792 0.0
C252 C 0.43022 0.55834 0.75494 0.0
C253 C 0.38346 0.58729 0.81337 0.0
C254 C 0.43184 0.54541 0.81825 0.0
C255 C 0.37543 0.52087 0.78271 0.0
O256 O 0.37515 0.53225 0.79889 0.0
O257 O 0.38946 0.52377 0.77183 0.0
O258 O 0.37994 0.57581 0.82548 0.0
O259 O 0.39413 0.58205 0.79916 0.0
O260 O 0.74395 0.38954 0.52889 0.0
Cd261 Cd 0.75438 0.41104 0.55252 0.0
Cd262 Cd 0.72731 0.43032 0.53564 0.0
O263 O 0.72068 0.40272 0.51807 0.0
O264 O 0.77167 0.39722 0.56533 0.0
O265 O 0.74649 0.40829 0.57925 0.0
C266 C 0.7611 0.39935 0.58003 0.0
C267 C 0.70264 0.44878 0.5446 0.0
C268 C 0.73011 0.38851 0.517 0.0
C269 C 0.76996 0.44802 0.53819 0.0
O270 O 0.75307 0.44768 0.53156 0.0
O271 O 0.77318 0.43541 0.54787 0.0
O272 O 0.70808 0.44524 0.52726 0.0
O273 O 0.71069 0.4411 0.55693 0.0
O274 O 0.66909 0.03167 0.77412 0.0
Cd275 Cd 0.64968 0.00884 0.78094 0.0
Cd276 Cd 0.62585 0.01882 0.7526 0.0
O277 O 0.65197 0.03638 0.74998 0.0
O278 O 0.66539 0.99372 0.79386 0.0
O279 O 0.64961 0.98117 0.76613 0.0
C280 C 0.66097 0.97908 0.77959 0.0
C281 C 0.6057 0.01019 0.72495 0.0
C282 C 0.66741 0.04036 0.76034 0.0
C283 C 0.61296 0.02241 0.79403 0.0
O284 O 0.6105 0.02469 0.77703 0.0
O285 O 0.62767 0.01576 0.79877 0.0
O286 O 0.60965 0.02808 0.73446 0.0
O287 O 0.61347 0.9969 0.73094 0.0
O288 O 0.98689 0.30127 0.92392 0.0
Cd289 Cd 0.99461 0.27655 0.90697 0.0
Cd290 Cd 0.01546 0.30378 0.8899 0.0
O291 O 0.00698 0.32356 0.91251 0.0
O292 O 0.9893 0.25508 0.9219 0.0
O293 O 0.01872 0.26719 0.91413 0.0
C294 C 0.00772 0.25533 0.92289 0.0
C295 C 0.0477 0.30797 0.88113 0.0
C296 C 0.99416 0.31922 0.92423 0.0
C297 C 0.98197 0.27609 0.86713 0.0
O298 O 0.99508 0.29121 0.86813 0.0
O299 O 0.9799 0.26695 0.88089 0.0
O300 O 0.03617 0.31942 0.87745 0.0
O301 O 0.04101 0.29424 0.89028 0.0
O302 O 0.50529 0.7647 0.41076 0.0
Cd303 Cd 0.5089 0.73994 0.39106 0.0
Cd304 Cd 0.52755 0.767 0.37223 0.0
O305 O 0.52096 0.78692 0.39577 0.0
O306 O 0.50452 0.71786 0.40521 0.0
O307 O 0.53289 0.72833 0.39401 0.0
C308 C 0.52267 0.71686 0.40371 0.0
C309 C 0.55841 0.77157 0.35993 0.0
C310 C 0.51138 0.78263 0.40988 0.0
C311 C 0.49137 0.74109 0.3532 0.0
O312 O 0.5054 0.7549 0.35242 0.0
O313 O 0.49006 0.73248 0.36736 0.0
O314 O 0.54613 0.78292 0.35799 0.0
O315 O 0.55336 0.75773 0.36941 0.0
O316 O 0.99595 0.79307 0.68856 0.0
Cd317 Cd 0.02056 0.78647 0.67474 0.0
Cd318 Cd 0.00687 0.80866 0.64945 0.0
O319 O 0.98607 0.81137 0.66984 0.0
O320 O 0.03395 0.77499 0.69336 0.0
O321 O 0.04696 0.80216 0.68361 0.0
C322 C 0.04831 0.78922 0.69397 0.0
C323 C 0.0173 0.83597 0.63544 0.0
C324 C 0.98394 0.80351 0.68446 0.0
C325 C 0.01139 0.76602 0.63372 0.0
O326 O 0.00619 0.78183 0.63094 0.0
O327 O 0.01766 0.76492 0.65011 0.0
O328 O 0.00016 0.82579 0.63214 0.0
O329 O 0.02862 0.83098 0.64725 0.0
O330 O 0.49784 0.29158 0.18915 0.0
Cd331 Cd 0.52252 0.28646 0.17477 0.0
Cd332 Cd 0.51197 0.31259 0.15455 0.0
O333 O 0.49182 0.31572 0.17551 0.0
O334 O 0.53721 0.27402 0.19151 0.0
O335 O 0.54847 0.30282 0.18381 0.0
C336 C 0.5509 0.28905 0.19283 0.0
C337 C 0.52732 0.34071 0.14429 0.0
C338 C 0.48778 0.30479 0.18768 0.0
C339 C 0.5123 0.27075 0.13338 0.0
O340 O 0.50761 0.2875 0.13311 0.0
O341 O 0.51931 0.26742 0.14859 0.0
O342 O 0.50917 0.33403 0.14077 0.0
O343 O 0.53686 0.33178 0.15436 0.0
H344 H 0.21584 0.77542 0.84933 0.0
H345 H 0.20918 0.79418 0.88071 0.0
H346 H 0.26796 0.79637 0.89987 0.0
H347 H 0.27509 0.77866 0.86849 0.0
H348 H 0.23789 0.78405 0.9255 0.0
H349 H 0.25814 0.83509 0.8882 0.0
H350 H 0.25495 0.85105 0.86077 0.0
H351 H 0.1971 0.85857 0.8761 0.0
H352 H 0.19987 0.84239 0.90348 0.0
H353 H 0.267 0.85847 0.00526 0.0
H354 H 0.26105 0.8347 0.97524 0.0
H355 H 0.20868 0.85656 0.96504 0.0
H356 H 0.21505 0.88113 0.99491 0.0
H357 H 0.22767 0.85379 0.93453 0.0
H358 H 0.20841 0.80859 0.9747 0.0
H359 H 0.20984 0.79205 0.00198 0.0
H360 H 0.26204 0.77191 0.98157 0.0
H361 H 0.26111 0.78857 0.95431 0.0
C362 C 0.22744 0.7801 0.86012 0.0
C363 C 0.246 0.77537 0.85632 0.0
C364 C 0.22353 0.79066 0.87808 0.0
C365 C 0.23805 0.79648 0.89259 0.0
C366 C 0.2565 0.79177 0.8889 0.0
C367 C 0.2605 0.78153 0.87094 0.0
C368 C 0.23441 0.80793 0.91159 0.0
C369 C 0.23567 0.79931 0.92757 0.0
C370 C 0.23071 0.82751 0.9141 0.0
C371 C 0.22912 0.83731 0.89772 0.0
C372 C 0.24468 0.83998 0.88561 0.0
C373 C 0.24296 0.8491 0.8701 0.0
C374 C 0.22581 0.85576 0.86665 0.0
C375 C 0.21036 0.85337 0.87876 0.0
C376 C 0.212 0.84423 0.89427 0.0
C377 C 0.25402 0.85805 0.99684 0.0
C378 C 0.24152 0.87176 0.0025 0.0
C379 C 0.25054 0.8443 0.97966 0.0
C380 C 0.23424 0.84357 0.96791 0.0
C381 C 0.22134 0.85679 0.97384 0.0
C382 C 0.22497 0.87079 0.99096 0.0
C383 C 0.23179 0.83019 0.94876 0.0
C384 C 0.2294 0.8384 0.93265 0.0
C385 C 0.2341 0.81007 0.94614 0.0
C386 C 0.23473 0.79993 0.96249 0.0
C387 C 0.22027 0.80074 0.97609 0.0
C388 C 0.22098 0.79133 0.99154 0.0
C389 C 0.23603 0.78096 0.99352 0.0
C390 C 0.25039 0.77995 0.98002 0.0
C391 C 0.24975 0.78934 0.96454 0.0
H392 H 0.23656 0.77368 0.0055 0.0
H393 H 0.22451 0.86282 0.85464 0.0
H394 H 0.99392 0.56349 0.43186 0.0
H395 H 0.02279 0.55649 0.41424 0.0
H396 H 0.008 0.58914 0.37251 0.0
H397 H 0.97895 0.59583 0.39004 0.0
H398 H 0.01541 0.55364 0.3558 0.0
H399 H 0.04661 0.60734 0.40431 0.0
H400 H 0.05489 0.6256 0.43729 0.0
H401 H 0.08019 0.57729 0.44943 0.0
H402 H 0.07181 0.5586 0.41658 0.0
H403 H 0.09943 0.55148 0.30317 0.0
H404 H 0.07461 0.56323 0.32403 0.0
H405 H 0.08992 0.53032 0.36525 0.0
H406 H 0.11527 0.5188 0.34456 0.0
H407 H 0.08267 0.56624 0.38265 0.0
H408 H 0.05073 0.51224 0.33472 0.0
H409 H 0.04219 0.49359 0.30191 0.0
H410 H 0.01785 0.54215 0.28898 0.0
H411 H 0.02649 0.56121 0.32165 0.0
C412 C 0.99711 0.56941 0.41909 0.0
C413 C 0.98451 0.58024 0.41222 0.0
C414 C 0.01357 0.56548 0.40908 0.0
C415 C 0.01763 0.57243 0.39213 0.0
C416 C 0.00515 0.58368 0.38556 0.0
C417 C 0.98867 0.58756 0.39557 0.0
C418 C 0.0341 0.5668 0.38056 0.0
C419 C 0.03017 0.55671 0.36158 0.0
C420 C 0.05324 0.57023 0.3883 0.0
C421 C 0.05843 0.58149 0.40803 0.0
C422 C 0.05381 0.60054 0.41405 0.0
C423 C 0.05854 0.61098 0.43271 0.0
C424 C 0.06802 0.6026 0.44546 0.0
C425 C 0.07283 0.58377 0.43954 0.0
C426 C 0.06811 0.57325 0.4209 0.0
C427 C 0.09761 0.54676 0.3167 0.0
C428 C 0.10921 0.53402 0.32212 0.0
C429 C 0.08337 0.55348 0.3286 0.0
C430 C 0.08017 0.54735 0.34603 0.0
C431 C 0.09211 0.53516 0.35181 0.0
C432 C 0.10654 0.52855 0.33995 0.0
C433 C 0.06396 0.55326 0.35787 0.0
C434 C 0.06792 0.56328 0.37688 0.0
C435 C 0.04478 0.54973 0.3502 0.0
C436 C 0.03942 0.53822 0.33058 0.0
C437 C 0.04368 0.519 0.32484 0.0
C438 C 0.0388 0.50834 0.30627 0.0
C439 C 0.02953 0.5167 0.29335 0.0
C440 C 0.02506 0.53571 0.29899 0.0
C441 C 0.02992 0.54643 0.31754 0.0
H442 H 0.02577 0.50843 0.27898 0.0
H443 H 0.07167 0.6107 0.4599 0.0
H444 H 0.81822 0.75503 0.82007 0.0
H445 H 0.82008 0.73933 0.84757 0.0
H446 H 0.77736 0.77182 0.87552 0.0
H447 H 0.77586 0.78802 0.84834 0.0
H448 H 0.80624 0.77095 0.90034 0.0
H449 H 0.76473 0.72395 0.85267 0.0
H450 H 0.75626 0.70303 0.82074 0.0
H451 H 0.80338 0.67208 0.82619 0.0
H452 H 0.8123 0.69302 0.85806 0.0
H453 H 0.77089 0.71223 0.96729 0.0
H454 H 0.7756 0.73085 0.94169 0.0
H455 H 0.81697 0.69484 0.91669 0.0
H456 H 0.81213 0.6759 0.94209 0.0
H457 H 0.7913 0.69769 0.89037 0.0
H458 H 0.83146 0.74323 0.93918 0.0
H459 H 0.83972 0.76409 0.97116 0.0
H460 H 0.79526 0.79774 0.9638 0.0
H461 H 0.78654 0.7769 0.93188 0.0
C462 C 0.80942 0.75903 0.83218 0.0
C463 C 0.7968 0.77269 0.83198 0.0
C464 C 0.81039 0.74993 0.84782 0.0
C465 C 0.79869 0.75423 0.8635 0.0
C466 C 0.78647 0.76824 0.86355 0.0
C467 C 0.7855 0.77734 0.84793 0.0
C468 C 0.79871 0.74374 0.87963 0.0
C469 C 0.80282 0.75494 0.89821 0.0
C470 C 0.79469 0.72284 0.87677 0.0
C471 C 0.78931 0.71019 0.85765 0.0
C472 C 0.77338 0.71279 0.84699 0.0
C473 C 0.76848 0.70091 0.82892 0.0
C474 C 0.77931 0.68627 0.82142 0.0
C475 C 0.79503 0.68345 0.83201 0.0
C476 C 0.8 0.69531 0.85008 0.0
C477 C 0.78114 0.70837 0.95647 0.0
C478 C 0.7911 0.69252 0.95675 0.0
C479 C 0.78389 0.71911 0.94187 0.0
C480 C 0.79676 0.71435 0.92734 0.0
C481 C 0.80697 0.69877 0.92776 0.0
C482 C 0.80422 0.688 0.94233 0.0
C483 C 0.79872 0.72489 0.91116 0.0
C484 C 0.79493 0.7137 0.89254 0.0
C485 C 0.80302 0.74579 0.914 0.0
C486 C 0.80824 0.75838 0.93319 0.0
C487 C 0.82334 0.75498 0.94444 0.0
C488 C 0.82812 0.76682 0.96255 0.0
C489 C 0.81799 0.7822 0.96953 0.0
C490 C 0.80308 0.78581 0.95839 0.0
C491 C 0.79823 0.774 0.94028 0.0
H492 H 0.82172 0.79136 0.98355 0.0
H493 H 0.7755 0.67709 0.80743 0.0
H494 H 0.05268 0.02943 0.4426 0.0
H495 H 0.03719 0.04363 0.41946 0.0
H496 H 0.00571 0.98581 0.39416 0.0
H497 H 0.02253 0.97115 0.41614 0.0
H498 H 0.01579 0.00329 0.36732 0.0
H499 H 0.98489 0.0225 0.42559 0.0
H500 H 0.98256 0.03682 0.45976 0.0
H501 H 0.00966 0.09376 0.45057 0.0
H502 H 0.01238 0.07971 0.41637 0.0
H503 H 0.93871 0.06352 0.34278 0.0
H504 H 0.95575 0.05137 0.36659 0.0
H505 H 0.00631 0.05264 0.33229 0.0
H506 H 0.98903 0.06405 0.30798 0.0
H507 H 0.98547 0.06278 0.38911 0.0
H508 H 0.02908 0.01472 0.3353 0.0
H509 H 0.02608 0.99672 0.30175 0.0
H510 H 0.96423 0.99106 0.30321 0.0
H511 H 0.96686 0.0088 0.33681 0.0
C512 C 0.04277 0.01958 0.43192 0.0
C513 C 0.03894 0.99904 0.43135 0.0
C514 C 0.03363 0.02784 0.41885 0.0
C515 C 0.01995 0.0159 0.40526 0.0
C516 C 0.01614 0.99539 0.40455 0.0
C517 C 0.0256 0.98704 0.41736 0.0
C518 C 0.00972 0.02475 0.3917 0.0
C519 C 0.00918 0.0163 0.37213 0.0
C520 C 0.00065 0.04147 0.39791 0.0
C521 C 0.999 0.05 0.41846 0.0
C522 C 0.99047 0.03804 0.43088 0.0
C523 C 0.98907 0.04611 0.45025 0.0
C524 C 0.99601 0.06617 0.45734 0.0
C525 C 0.00432 0.07821 0.44506 0.0
C526 C 0.00578 0.07021 0.42568 0.0
C527 C 0.95354 0.06145 0.34038 0.0
C528 C 0.96245 0.06456 0.32338 0.0
C529 C 0.96328 0.0545 0.35404 0.0
C530 C 0.98219 0.05068 0.35108 0.0
C531 C 0.99155 0.05497 0.33467 0.0
C532 C 0.9817 0.06163 0.32084 0.0
C533 C 0.99172 0.04142 0.36477 0.0
C534 C 0.99215 0.04981 0.38434 0.0
C535 C 0.99992 0.02411 0.35866 0.0
C536 C 0.9982 0.01328 0.3385 0.0
C537 C 0.01485 0.00958 0.32847 0.0
C538 C 0.01321 0.99944 0.30944 0.0
C539 C 0.99498 0.99282 0.30033 0.0
C540 C 0.97834 0.99626 0.31025 0.0
C541 C 0.9799 0.00638 0.32928 0.0
H542 H 0.99375 0.98498 0.2856 0.0
H543 H 0.9949 0.07239 0.47234 0.0
H544 H 0.23077 0.27337 0.68907 0.0
H545 H 0.23874 0.25346 0.65899 0.0
H546 H 0.29954 0.27505 0.67217 0.0
H547 H 0.29147 0.29561 0.70214 0.0
H548 H 0.29244 0.27417 0.63627 0.0
H549 H 0.27808 0.22725 0.67598 0.0
H550 H 0.25976 0.20979 0.69877 0.0
H551 H 0.21198 0.18978 0.65806 0.0
H552 H 0.22991 0.20736 0.63512 0.0
H553 H 0.31019 0.19514 0.55752 0.0
H554 H 0.31005 0.21454 0.59023 0.0
H555 H 0.24944 0.21638 0.58256 0.0
H556 H 0.24953 0.19756 0.54994 0.0
H557 H 0.26175 0.20361 0.61747 0.0
H558 H 0.27657 0.25502 0.57976 0.0
H559 H 0.29637 0.27199 0.55751 0.0
H560 H 0.34594 0.28202 0.59577 0.0
H561 H 0.32647 0.26484 0.61813 0.0
C562 C 0.24584 0.27376 0.68559 0.0
C563 C 0.26052 0.28584 0.69797 0.0
C564 C 0.2504 0.26233 0.66844 0.0
C565 C 0.26978 0.26237 0.66349 0.0
C566 C 0.2845 0.27468 0.67572 0.0
C567 C 0.2799 0.28639 0.69281 0.0
C568 C 0.27444 0.24978 0.64535 0.0
C569 C 0.28605 0.25864 0.63236 0.0
C570 C 0.26614 0.22948 0.64016 0.0
C571 C 0.25532 0.21874 0.65386 0.0
C572 C 0.26362 0.21923 0.67192 0.0
C573 C 0.25331 0.2093 0.68487 0.0
C574 C 0.23471 0.19871 0.67988 0.0
C575 C 0.2264 0.19799 0.66191 0.0
C576 C 0.23664 0.20791 0.64892 0.0
C577 C 0.29688 0.19975 0.56283 0.0
C578 C 0.27988 0.19489 0.55119 0.0
C579 C 0.29684 0.21082 0.58145 0.0
C580 C 0.27972 0.21682 0.58871 0.0
C581 C 0.26276 0.21183 0.57717 0.0
C582 C 0.26287 0.20115 0.55852 0.0
C583 C 0.27918 0.2282 0.60839 0.0
C584 C 0.26839 0.21906 0.62164 0.0
C585 C 0.28849 0.24808 0.61391 0.0
C586 C 0.30015 0.25841 0.60048 0.0
C587 C 0.29175 0.26065 0.58333 0.0
C588 C 0.30289 0.27035 0.57072 0.0
C589 C 0.32242 0.27801 0.57519 0.0
C590 C 0.33083 0.27604 0.5923 0.0
C591 C 0.31974 0.26633 0.60495 0.0
H592 H 0.33102 0.28553 0.56541 0.0
H593 H 0.22674 0.19103 0.68992 0.0
H594 H 0.53718 0.5791 0.61852 0.0
H595 H 0.51334 0.57445 0.64265 0.0
H596 H 0.52634 0.63674 0.66781 0.0
H597 H 0.55088 0.64141 0.64401 0.0
H598 H 0.52323 0.61486 0.69491 0.0
H599 H 0.48474 0.61824 0.64142 0.0
H600 H 0.47309 0.61064 0.60776 0.0
H601 H 0.45468 0.54973 0.61102 0.0
H602 H 0.46648 0.55689 0.64463 0.0
H603 H 0.44157 0.5977 0.7542 0.0
H604 H 0.46172 0.61167 0.73048 0.0
H605 H 0.46323 0.55275 0.6986 0.0
H606 H 0.44336 0.53875 0.72214 0.0
H607 H 0.4568 0.57911 0.67551 0.0
H608 H 0.50004 0.57592 0.72783 0.0
H609 H 0.51188 0.58402 0.76146 0.0
H610 H 0.5208 0.64602 0.76024 0.0
H611 H 0.50874 0.63828 0.72665 0.0
C612 C 0.53516 0.5918 0.62929 0.0
C613 C 0.54598 0.61063 0.62935 0.0
C614 C 0.52133 0.58916 0.64295 0.0
C615 C 0.51781 0.60531 0.65685 0.0
C616 C 0.52872 0.6241 0.65713 0.0
C617 C 0.54263 0.62676 0.64344 0.0
C618 C 0.50297 0.60225 0.67123 0.0
C619 C 0.50857 0.60744 0.69069 0.0
C620 C 0.48386 0.59248 0.66573 0.0
C621 C 0.47661 0.58809 0.64554 0.0
C622 C 0.47832 0.60319 0.63493 0.0
C623 C 0.47168 0.59897 0.61586 0.0
C624 C 0.46318 0.57971 0.60725 0.0
C625 C 0.46127 0.56464 0.61771 0.0
C626 C 0.46791 0.56878 0.63678 0.0
C627 C 0.44605 0.58777 0.74202 0.0
C628 C 0.44097 0.56713 0.74007 0.0
C629 C 0.45759 0.59576 0.72854 0.0
C630 C 0.46403 0.58322 0.71286 0.0
C631 C 0.4584 0.56268 0.71058 0.0
C632 C 0.4471 0.5547 0.7241 0.0
C633 C 0.47727 0.59117 0.69906 0.0
C634 C 0.47134 0.5869 0.67971 0.0
C635 C 0.496 0.60191 0.70467 0.0
C636 C 0.50325 0.60654 0.72483 0.0
C637 C 0.50435 0.59129 0.7348 0.0
C638 C 0.51114 0.59581 0.75383 0.0
C639 C 0.51702 0.61552 0.76301 0.0
C640 C 0.51619 0.63076 0.75314 0.0
C641 C 0.50939 0.62631 0.7341 0.0
H642 H 0.52228 0.61899 0.77774 0.0
H643 H 0.45805 0.57647 0.59248 0.0
H644 H 0.812 0.28673 0.67803 0.0
H645 H 0.81003 0.31489 0.66286 0.0
H646 H 0.76796 0.33373 0.70335 0.0
H647 H 0.76985 0.30537 0.71835 0.0
H648 H 0.75452 0.32907 0.66772 0.0
H649 H 0.8123 0.36295 0.70229 0.0
H650 H 0.8458 0.3674 0.71498 0.0
H651 H 0.86637 0.35806 0.65792 0.0
H652 H 0.83296 0.35326 0.64485 0.0
H653 H 0.74323 0.40285 0.61445 0.0
H654 H 0.75027 0.38818 0.64162 0.0
H655 H 0.79582 0.36278 0.61064 0.0
H656 H 0.78925 0.37772 0.58383 0.0
H657 H 0.80709 0.376 0.64678 0.0
H658 H 0.7496 0.33591 0.61273 0.0
H659 H 0.7162 0.3299 0.59932 0.0
H660 H 0.69548 0.34973 0.6551 0.0
H661 H 0.72881 0.35607 0.6688 0.0
C662 C 0.80291 0.29734 0.68406 0.0
C663 C 0.79124 0.29419 0.69939 0.0
C664 C 0.80176 0.31341 0.67542 0.0
C665 C 0.78889 0.32651 0.68201 0.0
C666 C 0.77802 0.32388 0.69806 0.0
C667 C 0.77919 0.3078 0.7067 0.0
C668 C 0.78496 0.34114 0.67061 0.0
C669 C 0.76596 0.3397 0.66355 0.0
C670 C 0.79992 0.35469 0.6648 0.0
C671 C 0.82007 0.35763 0.67259 0.0
C672 C 0.82394 0.3617 0.69243 0.0
C673 C 0.84293 0.36431 0.6997 0.0
C674 C 0.8582 0.36298 0.68727 0.0
C675 C 0.85452 0.35908 0.66753 0.0
C676 C 0.83556 0.35645 0.66019 0.0
C677 C 0.75482 0.39425 0.61351 0.0
C678 C 0.76557 0.39133 0.59692 0.0
C679 C 0.75881 0.38585 0.62903 0.0
C680 C 0.77345 0.37418 0.6281 0.0
C681 C 0.7845 0.37175 0.61175 0.0
C682 C 0.78063 0.38023 0.59635 0.0
C683 C 0.77677 0.36355 0.64359 0.0
C684 C 0.79562 0.3657 0.65135 0.0
C685 C 0.76171 0.35051 0.64996 0.0
C686 C 0.7417 0.3467 0.64174 0.0
C687 C 0.73793 0.33913 0.6221 0.0
C688 C 0.71901 0.33564 0.61445 0.0
C689 C 0.70373 0.3395 0.62634 0.0
C690 C 0.70733 0.3468 0.64591 0.0
C691 C 0.72623 0.35033 0.65362 0.0
H692 H 0.6891 0.33678 0.6204 0.0
H693 H 0.87289 0.36501 0.69292 0.0
H694 H 0.4536 0.96743 0.61481 0.0
H695 H 0.47943 0.97773 0.63967 0.0
H696 H 0.52167 0.98376 0.59647 0.0
H697 H 0.49593 0.97287 0.57164 0.0
H698 H 0.53356 0.96393 0.61948 0.0
H699 H 0.50859 0.02455 0.6277 0.0
H700 H 0.48367 0.04598 0.63267 0.0
H701 H 0.47083 0.02941 0.68657 0.0
H702 H 0.4955 0.00766 0.6818 0.0
H703 H 0.59409 0.03585 0.70513 0.0
H704 H 0.57 0.02863 0.67896 0.0
H705 H 0.56164 0.9666 0.68131 0.0
H706 H 0.58633 0.9737 0.70722 0.0
H707 H 0.53352 0.01553 0.67809 0.0
H708 H 0.54664 0.93858 0.63772 0.0
H709 H 0.57356 0.91985 0.63077 0.0
H710 H 0.61395 0.97427 0.63767 0.0
H711 H 0.58726 0.99331 0.6444 0.0
C712 C 0.46837 0.97137 0.61072 0.0
C713 C 0.47284 0.9694 0.59138 0.0
C714 C 0.48312 0.97723 0.6249 0.0
C715 C 0.50252 0.98158 0.61996 0.0
C716 C 0.50685 0.98036 0.60064 0.0
C717 C 0.49216 0.97425 0.58648 0.0
C718 C 0.51843 0.98632 0.63476 0.0
C719 C 0.53356 0.97526 0.63227 0.0
C720 C 0.5186 0.00124 0.65137 0.0
C721 C 0.50377 0.01433 0.6543 0.0
C722 C 0.50035 0.02536 0.64055 0.0
C723 C 0.48629 0.03758 0.64334 0.0
C724 C 0.47564 0.03902 0.6599 0.0
C725 C 0.47907 0.02827 0.67373 0.0
C726 C 0.4931 0.016 0.671 0.0
C727 C 0.58728 0.02062 0.69995 0.0
C728 C 0.59211 0.00532 0.70821 0.0
C729 C 0.57343 0.01654 0.68504 0.0
C730 C 0.564 0.99708 0.67811 0.0
C731 C 0.56892 0.9817 0.6862 0.0
C732 C 0.58301 0.98576 0.70102 0.0
C733 C 0.54866 0.99314 0.6628 0.0
C734 C 0.53355 0.00425 0.66526 0.0
C735 C 0.54881 0.97866 0.64591 0.0
C736 C 0.56496 0.96735 0.64177 0.0
C737 C 0.56126 0.94654 0.6377 0.0
C738 C 0.57648 0.93587 0.6338 0.0
C739 C 0.59546 0.94586 0.63385 0.0
C740 C 0.59925 0.96655 0.63772 0.0
C741 C 0.58409 0.97728 0.6416 0.0
H742 H 0.60722 0.93758 0.63084 0.0
H743 H 0.46476 0.04849 0.66204 0.0
H744 H 0.85105 0.26185 0.73206 0.0
H745 H 0.88156 0.27066 0.7512 0.0
H746 H 0.85189 0.25106 0.79862 0.0
H747 H 0.82154 0.24307 0.77995 0.0
H748 H 0.87717 0.2823 0.8116 0.0
H749 H 0.87736 0.22101 0.76633 0.0
H750 H 0.8758 0.19978 0.73421 0.0
H751 H 0.92579 0.2371 0.71887 0.0
H752 H 0.92749 0.25871 0.75085 0.0
H753 H 0.94654 0.25251 0.86497 0.0
H754 H 0.92055 0.24902 0.84107 0.0
H755 H 0.95845 0.2844 0.80894 0.0
H756 H 0.98456 0.28825 0.83294 0.0
H757 H 0.93182 0.24904 0.7865 0.0
H758 H 0.9324 0.30839 0.83464 0.0
H759 H 0.93356 0.32704 0.86785 0.0
H760 H 0.88099 0.29039 0.87866 0.0
H761 H 0.8797 0.27131 0.84557 0.0
C762 C 0.85104 0.25989 0.74671 0.0
C763 C 0.83401 0.25152 0.75444 0.0
C764 C 0.86848 0.26471 0.75756 0.0
C765 C 0.86911 0.26112 0.77623 0.0
C766 C 0.85185 0.25386 0.78424 0.0
C767 C 0.83451 0.24917 0.7735 0.0
C768 C 0.88766 0.26388 0.78731 0.0
C769 C 0.88907 0.27499 0.80607 0.0
C770 C 0.90338 0.25459 0.78008 0.0
C771 C 0.9024 0.24161 0.76088 0.0
C772 C 0.88792 0.22477 0.75605 0.0
C773 C 0.88703 0.21266 0.73789 0.0
C774 C 0.90065 0.21712 0.72448 0.0
C775 C 0.91522 0.23368 0.72925 0.0
C776 C 0.91616 0.24587 0.74739 0.0
C777 C 0.94953 0.2592 0.85262 0.0
C778 C 0.96758 0.27082 0.85095 0.0
C779 C 0.93464 0.25723 0.83902 0.0
C780 C 0.93758 0.26665 0.82341 0.0
C781 C 0.95594 0.27707 0.82093 0.0
C782 C 0.9708 0.27928 0.83468 0.0
C783 C 0.92097 0.26704 0.81076 0.0
C784 C 0.91999 0.25658 0.79181 0.0
C785 C 0.90549 0.27665 0.81788 0.0
C786 C 0.90605 0.28832 0.83768 0.0
C787 C 0.92117 0.30421 0.84414 0.0
C788 C 0.92184 0.31487 0.86293 0.0
C789 C 0.90738 0.30987 0.87537 0.0
C790 C 0.89219 0.29424 0.86901 0.0
C791 C 0.89147 0.28351 0.85024 0.0
H792 H 0.90792 0.31814 0.88992 0.0
H793 H 0.89993 0.20772 0.71043 0.0
H794 H 0.45973 0.90104 0.5554 0.0
H795 H 0.46976 0.87452 0.53177 0.0
H796 H 0.45347 0.90187 0.4864 0.0
H797 H 0.44287 0.92814 0.51006 0.0
H798 H 0.44433 0.86309 0.47611 0.0
H799 H 0.5009 0.90849 0.50309 0.0
H800 H 0.52312 0.9286 0.52906 0.0
H801 H 0.53278 0.87588 0.5472 0.0
H802 H 0.51036 0.85545 0.5215 0.0
H803 H 0.50674 0.81972 0.40632 0.0
H804 H 0.49493 0.84487 0.43033 0.0
H805 H 0.49253 0.80667 0.47108 0.0
H806 H 0.50377 0.78118 0.447 0.0
H807 H 0.51143 0.85075 0.48329 0.0
H808 H 0.45349 0.80585 0.45623 0.0
H809 H 0.43119 0.78655 0.42995 0.0
H810 H 0.42523 0.83989 0.41097 0.0
H811 H 0.44774 0.8595 0.43702 0.0
C812 C 0.45812 0.90124 0.54036 0.0
C813 C 0.4507 0.91666 0.5345 0.0
C814 C 0.46392 0.88616 0.52689 0.0
C815 C 0.46281 0.88647 0.50734 0.0
C816 C 0.45456 0.90139 0.50142 0.0
C817 C 0.44849 0.91635 0.5149 0.0
C818 C 0.47091 0.87169 0.49316 0.0
C819 C 0.45908 0.86059 0.47759 0.0
C820 C 0.49011 0.86823 0.49517 0.0
C821 C 0.50381 0.88045 0.51047 0.0
C822 C 0.50767 0.90119 0.51269 0.0
C823 C 0.52031 0.91265 0.52735 0.0
C824 C 0.52932 0.90353 0.5398 0.0
C825 C 0.52577 0.88292 0.53756 0.0
C826 C 0.5131 0.8714 0.52294 0.0
C827 C 0.5039 0.81678 0.42046 0.0
C828 C 0.50615 0.79852 0.42483 0.0
C829 C 0.49709 0.83109 0.43409 0.0
C830 C 0.49283 0.8275 0.45236 0.0
C831 C 0.49575 0.80962 0.45701 0.0
C832 C 0.50212 0.79511 0.44326 0.0
C833 C 0.48481 0.84223 0.46646 0.0
C834 C 0.4967 0.85333 0.48191 0.0
C835 C 0.46578 0.84585 0.46424 0.0
C836 C 0.45247 0.8341 0.44842 0.0
C837 C 0.44762 0.81344 0.44631 0.0
C838 C 0.43489 0.80245 0.4315 0.0
C839 C 0.42681 0.81199 0.4188 0.0
C840 C 0.4315 0.83253 0.42083 0.0
C841 C 0.44423 0.84359 0.43562 0.0
H842 H 0.41687 0.80347 0.40743 0.0
H843 H 0.5391 0.91242 0.55115 0.0
H844 H 0.21253 0.28784 0.80554 0.0
H845 H 0.1876 0.29286 0.8292 0.0
H846 H 0.16342 0.32903 0.79611 0.0
H847 H 0.18849 0.32407 0.7725 0.0
H848 H 0.16225 0.34296 0.8358 0.0
H849 H 0.14527 0.28156 0.78938 0.0
H850 H 0.15086 0.24908 0.77157 0.0
H851 H 0.15489 0.22891 0.82419 0.0
H852 H 0.14958 0.2614 0.84234 0.0
H853 H 0.06367 0.33212 0.85769 0.0
H854 H 0.09549 0.33376 0.84401 0.0
H855 H 0.10902 0.29056 0.87528 0.0
H856 H 0.07677 0.28836 0.88862 0.0
H857 H 0.11822 0.28078 0.84004 0.0
H858 H 0.13113 0.34073 0.88652 0.0
H859 H 0.12565 0.37316 0.90452 0.0
H860 H 0.12963 0.39628 0.85305 0.0
H861 H 0.13487 0.3639 0.83468 0.0
C862 C 0.20217 0.29728 0.80366 0.0
C863 C 0.20229 0.30566 0.78741 0.0
C864 C 0.18793 0.30007 0.81709 0.0
C865 C 0.17354 0.31113 0.81428 0.0
C866 C 0.17441 0.32049 0.79855 0.0
C867 C 0.18867 0.31766 0.7851 0.0
C868 C 0.15657 0.31128 0.82659 0.0
C869 C 0.15253 0.32942 0.8367 0.0
C870 C 0.14421 0.29353 0.82812 0.0
C871 C 0.14725 0.27396 0.81722 0.0
C872 C 0.14749 0.27024 0.79716 0.0
C873 C 0.15059 0.25183 0.787 0.0
C874 C 0.15329 0.23696 0.79675 0.0
C875 C 0.15283 0.24046 0.81667 0.0
C876 C 0.14977 0.25886 0.82689 0.0
C877 C 0.07347 0.32311 0.86186 0.0
C878 C 0.06767 0.31007 0.87423 0.0
C879 C 0.09177 0.32419 0.85411 0.0
C880 C 0.10483 0.31251 0.8588 0.0
C881 C 0.09922 0.29977 0.87148 0.0
C882 C 0.08081 0.29854 0.87912 0.0
C883 C 0.12365 0.31253 0.84927 0.0
C884 C 0.12803 0.29437 0.83953 0.0
C885 C 0.13634 0.33028 0.84819 0.0
C886 C 0.13326 0.34982 0.8592 0.0
C887 C 0.1307 0.35268 0.87901 0.0
C888 C 0.12766 0.37107 0.88929 0.0
C889 C 0.12726 0.38676 0.87993 0.0
C890 C 0.12994 0.38411 0.86028 0.0
C891 C 0.13297 0.36575 0.84993 0.0
H892 H 0.1249 0.40098 0.88791 0.0
H893 H 0.15568 0.22271 0.78886 0.0
H894 H 0.54569 0.63454 0.53877 0.0
H895 H 0.54164 0.64177 0.507 0.0
H896 H 0.60105 0.67132 0.51034 0.0
H897 H 0.60488 0.6644 0.54245 0.0
H898 H 0.57837 0.69403 0.50053 0.0
H899 H 0.58524 0.62713 0.47769 0.0
H900 H 0.57946 0.59104 0.47584 0.0
H901 H 0.51975 0.58798 0.46009 0.0
H902 H 0.52508 0.6241 0.46211 0.0
H903 H 0.56127 0.71736 0.41049 0.0
H904 H 0.57554 0.70087 0.43293 0.0
H905 H 0.51866 0.67216 0.44411 0.0
H906 H 0.50433 0.68846 0.42174 0.0
H907 H 0.54587 0.6476 0.4435 0.0
H908 H 0.53845 0.71491 0.47234 0.0
H909 H 0.54392 0.7511 0.47475 0.0
H910 H 0.60527 0.75291 0.4794 0.0
H911 H 0.60015 0.71666 0.47676 0.0
C912 C 0.55797 0.64214 0.53246 0.0
C913 C 0.57561 0.64879 0.54278 0.0
C914 C 0.55571 0.64622 0.51429 0.0
C915 C 0.57111 0.65691 0.50611 0.0
C916 C 0.58899 0.66298 0.51629 0.0
C917 C 0.59122 0.65895 0.53453 0.0
C918 C 0.56782 0.66342 0.48793 0.0
C919 C 0.57175 0.68377 0.48789 0.0
C920 C 0.55884 0.65014 0.47151 0.0
C921 C 0.55555 0.62837 0.47015 0.0
C922 C 0.57084 0.61879 0.47395 0.0
C923 C 0.56765 0.59832 0.47285 0.0
C924 C 0.54925 0.58723 0.46787 0.0
C925 C 0.534 0.59659 0.46394 0.0
C926 C 0.53711 0.61706 0.46503 0.0
C927 C 0.55184 0.70719 0.4174 0.0
C928 C 0.53165 0.70437 0.41448 0.0
C929 C 0.56002 0.69783 0.43027 0.0
C930 C 0.54813 0.68549 0.44039 0.0
C931 C 0.5281 0.68163 0.43649 0.0
C932 C 0.51993 0.69103 0.42374 0.0
C933 C 0.55614 0.67813 0.45635 0.0
C934 C 0.55299 0.6577 0.45599 0.0
C935 C 0.56587 0.6913 0.47243 0.0
C936 C 0.56894 0.71307 0.47411 0.0
C937 C 0.55311 0.72301 0.47372 0.0
C938 C 0.55614 0.74353 0.47516 0.0
C939 C 0.57494 0.75429 0.47717 0.0
C940 C 0.59073 0.74455 0.4778 0.0
C941 C 0.58777 0.72402 0.47634 0.0
H942 H 0.57726 0.77017 0.47828 0.0
H943 H 0.54681 0.57138 0.46704 0.0
H944 H 0.81367 0.7882 0.75078 0.0
H945 H 0.84335 0.79271 0.73311 0.0
H946 H 0.87545 0.82105 0.78558 0.0
H947 H 0.84573 0.81685 0.80334 0.0
H948 H 0.88756 0.83892 0.75499 0.0
H949 H 0.8753 0.77389 0.76996 0.0
H950 H 0.85566 0.74136 0.77061 0.0
H951 H 0.8514 0.72781 0.70931 0.0
H952 H 0.87078 0.76042 0.70831 0.0
H953 H 0.9737 0.78691 0.71533 0.0
H954 H 0.9446 0.78892 0.73376 0.0
H955 H 0.9261 0.82678 0.69896 0.0
H956 H 0.95528 0.82498 0.68046 0.0
H957 H 0.90756 0.77648 0.72158 0.0
H958 H 0.89965 0.85842 0.72708 0.0
H959 H 0.92032 0.89088 0.72841 0.0
H960 H 0.96749 0.87032 0.75232 0.0
H961 H 0.94703 0.83785 0.75137 0.0
C962 C 0.82695 0.79582 0.7585 0.0
C963 C 0.8274 0.80206 0.77847 0.0
C964 C 0.84392 0.79827 0.7484 0.0
C965 C 0.86162 0.80701 0.75807 0.0
C966 C 0.86194 0.81424 0.77785 0.0
C967 C 0.84499 0.8117 0.78798 0.0
C968 C 0.87999 0.80715 0.74784 0.0
C969 C 0.89192 0.8253 0.74759 0.0
C970 C 0.88582 0.78934 0.73851 0.0
C971 C 0.87432 0.76967 0.73907 0.0
C972 C 0.87005 0.76403 0.75663 0.0
C973 C 0.85899 0.74557 0.75706 0.0
C974 C 0.85225 0.73254 0.74001 0.0
C975 C 0.85661 0.73793 0.7225 0.0
C976 C 0.86764 0.75639 0.72199 0.0
C977 C 0.96355 0.79581 0.71165 0.0
C978 C 0.96684 0.80576 0.69637 0.0
C979 C 0.94688 0.79689 0.72218 0.0
C980 C 0.9332 0.80803 0.71777 0.0
C981 C 0.93656 0.81825 0.70274 0.0
C982 C 0.95323 0.81715 0.69214 0.0
C983 C 0.91512 0.80829 0.72849 0.0
C984 C 0.9032 0.79016 0.72883 0.0
C985 C 0.90948 0.8261 0.73811 0.0
C986 C 0.92185 0.84564 0.73895 0.0
C987 C 0.91441 0.86086 0.73268 0.0
C988 C 0.92609 0.87925 0.73336 0.0
C989 C 0.94522 0.88264 0.74038 0.0
C990 C 0.95269 0.86765 0.74681 0.0
C991 C 0.94107 0.84924 0.74617 0.0
H992 H 0.95425 0.89688 0.74089 0.0
H993 H 0.84369 0.71826 0.74037 0.0
H994 H 0.07502 0.94054 0.50775 0.0
H995 H 0.07667 0.92739 0.53717 0.0
H996 H 0.01433 0.91837 0.5387 0.0
H997 H 0.0128 0.93172 0.50968 0.0
H998 H 0.03007 0.93352 0.57359 0.0
H999 H 0.03954 0.8804 0.52076 0.0
H1000 H 0.05656 0.86534 0.49295 0.0
H1001 H 0.1086 0.87433 0.52765 0.0
H1002 H 0.09191 0.88967 0.55563 0.0
H1003 H 0.99472 0.85375 0.61574 0.0
H1004 H 0.005 0.87759 0.59564 0.0
H1005 H 0.06469 0.87839 0.61099 0.0
H1006 H 0.05441 0.85427 0.63131 0.0
H1007 H 0.05808 0.87257 0.57211 0.0
H1008 H 0.04547 0.9191 0.62658 0.0
H1009 H 0.02738 0.93287 0.65412 0.0
H1010 H 0.9806 0.9357 0.61644 0.0
H1011 H 0.99826 0.92168 0.58868 0.0
C1012 C 0.06177 0.93584 0.51456 0.0
C1013 C 0.04378 0.93701 0.50666 0.0
C1014 C 0.06269 0.92831 0.53127 0.0
C1015 C 0.0456 0.92178 0.54009 0.0
C1016 C 0.02769 0.92339 0.53223 0.0
C1017 C 0.02681 0.93092 0.51564 0.0
C1018 C 0.04596 0.91258 0.5571 0.0
C1019 C 0.0362 0.92019 0.57328 0.0
C1020 C 0.05456 0.8956 0.557 0.0
C1021 C 0.06456 0.88641 0.5402 0.0
C1022 C 0.05465 0.87931 0.52241 0.0
C1023 C 0.06423 0.8707 0.50663 0.0
C1024 C 0.08367 0.86895 0.50851 0.0
C1025 C 0.09355 0.87575 0.5262 0.0
C1026 C 0.08405 0.88439 0.54202 0.0
C1027 C 0.01004 0.85917 0.61509 0.0
C1028 C 0.02376 0.8521 0.62509 0.0
C1029 C 0.0159 0.87291 0.60365 0.0
C1030 C 0.03561 0.87992 0.60194 0.0
C1031 C 0.0494 0.87323 0.6122 0.0
C1032 C 0.04351 0.85954 0.62385 0.0
C1033 C 0.04148 0.89305 0.58825 0.0
C1034 C 0.05241 0.8862 0.57269 0.0
C1035 C 0.03387 0.91069 0.58888 0.0
C1036 C 0.02319 0.91926 0.60553 0.0
C1037 C 0.03127 0.92254 0.62416 0.0
C1038 C 0.0211 0.93041 0.63982 0.0
C1039 C 0.00284 0.93514 0.63703 0.0
C1040 C 0.99474 0.93204 0.61857 0.0
C1041 C 0.00485 0.92417 0.60287 0.0
H1042 H 0.99499 0.94122 0.64917 0.0
H1043 H 0.09106 0.86227 0.49628 0.0
H1044 H 0.18687 0.75368 0.79329 0.0
H1045 H 0.1565 0.76091 0.78139 0.0
H1046 H 0.18889 0.80163 0.75024 0.0
H1047 H 0.21924 0.7945 0.76233 0.0
H1048 H 0.15619 0.81513 0.76576 0.0
H1049 H 0.1728 0.75541 0.72786 0.0
H1050 H 0.18148 0.72202 0.72262 0.0
H1051 H 0.12818 0.70005 0.74653 0.0
H1052 H 0.11931 0.73339 0.75216 0.0
H1053 H 0.08367 0.81294 0.69407 0.0
H1054 H 0.11311 0.81232 0.71234 0.0
H1055 H 0.08178 0.76725 0.73932 0.0
H1056 H 0.05259 0.76744 0.72084 0.0
H1057 H 0.11404 0.75677 0.72679 0.0
H1058 H 0.09646 0.81604 0.76354 0.0
H1059 H 0.08768 0.84938 0.76898 0.0
H1060 H 0.14209 0.87226 0.74763 0.0
H1061 H 0.1511 0.83898 0.74183 0.0
C1062 C 0.18741 0.7645 0.78425 0.0
C1063 C 0.20517 0.77361 0.77866 0.0
C1064 C 0.17012 0.76856 0.77741 0.0
C1065 C 0.17045 0.78162 0.76473 0.0
C1066 C 0.18831 0.79153 0.76 0.0
C1067 C 0.20559 0.78746 0.76687 0.0
C1068 C 0.15231 0.78365 0.75514 0.0
C1069 C 0.14702 0.80243 0.7571 0.0
C1070 C 0.14023 0.76701 0.74409 0.0
C1071 C 0.14549 0.74693 0.74061 0.0
C1072 C 0.163 0.74349 0.73213 0.0
C1073 C 0.16795 0.72457 0.72907 0.0
C1074 C 0.15542 0.70894 0.73429 0.0
C1075 C 0.13789 0.71218 0.74253 0.0
C1076 C 0.13289 0.73108 0.74564 0.0
C1077 C 0.08304 0.80305 0.70403 0.0
C1078 C 0.06584 0.79017 0.70593 0.0
C1079 C 0.09985 0.80277 0.71454 0.0
C1080 C 0.09965 0.78981 0.72731 0.0
C1081 C 0.08233 0.77732 0.72953 0.0
C1082 C 0.06563 0.77747 0.71895 0.0
C1083 C 0.11766 0.78827 0.73753 0.0
C1084 C 0.12305 0.76952 0.73556 0.0
C1085 C 0.12974 0.80494 0.74859 0.0
C1086 C 0.12437 0.82497 0.75207 0.0
C1087 C 0.10649 0.82814 0.75986 0.0
C1088 C 0.10148 0.84704 0.76304 0.0
C1089 C 0.1143 0.86292 0.7586 0.0
C1090 C 0.13217 0.85994 0.75103 0.0
C1091 C 0.13724 0.84107 0.74782 0.0
H1092 H 0.1104 0.87754 0.76108 0.0
H1093 H 0.15927 0.6943 0.7319 0.0
H1094 H 0.96673 0.64013 0.48016 0.0
H1095 H 0.98204 0.66721 0.50545 0.0
H1096 H 0.99058 0.62515 0.5402 0.0
H1097 H 0.97479 0.59806 0.51505 0.0
H1098 H 0.97351 0.65223 0.55961 0.0
H1099 H 0.02917 0.6536 0.52173 0.0
H1100 H 0.04772 0.65427 0.49255 0.0
H1101 H 0.03225 0.71045 0.4892 0.0
H1102 H 0.01335 0.70999 0.5182 0.0
H1103 H 0.01844 0.72882 0.63478 0.0
H1104 H 0.01482 0.70002 0.60848 0.0
H1105 H 0.99759 0.73513 0.57019 0.0
H1106 H 0.00127 0.76403 0.59631 0.0
H1107 H 0.02261 0.71029 0.55362 0.0
H1108 H 0.96391 0.7062 0.58921 0.0
H1109 H 0.94514 0.70518 0.61823 0.0
H1110 H 0.9671 0.65324 0.62565 0.0
H1111 H 0.98621 0.65412 0.5968 0.0
C1112 C 0.97236 0.63665 0.49298 0.0
C1113 C 0.96953 0.61705 0.49572 0.0
C1114 C 0.98115 0.65213 0.50744 0.0
C1115 C 0.98756 0.64824 0.52474 0.0
C1116 C 0.9857 0.62853 0.52702 0.0
C1117 C 0.97671 0.61308 0.51266 0.0
C1118 C 0.99413 0.66477 0.54115 0.0
C1119 C 0.98459 0.66468 0.55839 0.0
C1120 C 0.00826 0.68127 0.53948 0.0
C1121 C 0.01972 0.68169 0.52209 0.0
C1122 C 0.0296 0.66604 0.5147 0.0
C1123 C 0.0402 0.66639 0.4982 0.0
C1124 C 0.04114 0.68238 0.48901 0.0
C1125 C 0.03151 0.69807 0.49633 0.0
C1126 C 0.02087 0.69778 0.51281 0.0
C1127 C 0.01399 0.73047 0.62075 0.0
C1128 C 0.00998 0.7487 0.61771 0.0
C1129 C 0.01194 0.71399 0.60574 0.0
C1130 C 0.0058 0.71543 0.58743 0.0
C1131 C 0.00237 0.73373 0.5842 0.0
C1132 C 0.00436 0.75019 0.5992 0.0
C1133 C 0.00188 0.69766 0.57186 0.0
C1134 C 0.01182 0.69759 0.55483 0.0
C1135 C 0.98818 0.68093 0.57369 0.0
C1136 C 0.97666 0.68037 0.59099 0.0
C1137 C 0.96486 0.69466 0.59713 0.0
C1138 C 0.95413 0.69409 0.61353 0.0
C1139 C 0.95497 0.67919 0.62382 0.0
C1140 C 0.9665 0.6648 0.61769 0.0
C1141 C 0.97727 0.66532 0.60132 0.0
H1142 H 0.94666 0.67877 0.6365 0.0
H1143 H 0.04934 0.68262 0.47623 0.0
H1144 H 0.77936 0.88388 0.25384 0.0
H1145 H 0.79887 0.91617 0.25367 0.0
H1146 H 0.84215 0.88768 0.22178 0.0
H1147 H 0.82294 0.85522 0.22239 0.0
H1148 H 0.8583 0.91617 0.25091 0.0
H1149 H 0.81246 0.9111 0.20005 0.0
H1150 H 0.78017 0.90528 0.18421 0.0
H1151 H 0.76446 0.95391 0.22449 0.0
H1152 H 0.79657 0.95984 0.24076 0.0
H1153 H 0.91127 0.00735 0.23758 0.0
H1154 H 0.89127 0.97457 0.22894 0.0
H1155 H 0.84566 0.99562 0.26329 0.0
H1156 H 0.86546 0.02847 0.27195 0.0
H1157 H 0.83173 0.97009 0.22943 0.0
H1158 H 0.87627 0.97264 0.28197 0.0
H1159 H 0.90858 0.97863 0.29784 0.0
H1160 H 0.92663 0.9345 0.25395 0.0
H1161 H 0.89448 0.92845 0.23766 0.0
C1162 C 0.79309 0.88447 0.24689 0.0
C1163 C 0.79963 0.86699 0.23817 0.0
C1164 C 0.80412 0.90294 0.24661 0.0
C1165 C 0.82185 0.90434 0.23749 0.0
C1166 C 0.82845 0.88693 0.22879 0.0
C1167 C 0.81741 0.86841 0.22906 0.0
C1168 C 0.83378 0.92399 0.23776 0.0
C1169 C 0.85262 0.92783 0.24585 0.0
C1170 C 0.82623 0.93931 0.23149 0.0
C1171 C 0.80689 0.93581 0.22173 0.0
C1172 C 0.80207 0.92045 0.20563 0.0
C1173 C 0.78381 0.91715 0.19655 0.0
C1174 C 0.77026 0.92919 0.20336 0.0
C1175 C 0.77497 0.94458 0.21924 0.0
C1176 C 0.79321 0.94794 0.22838 0.0
C1177 C 0.89686 0.00512 0.24306 0.0
C1178 C 0.89004 0.02048 0.25564 0.0
C1179 C 0.88549 0.98636 0.23814 0.0
C1180 C 0.86712 0.98263 0.24571 0.0
C1181 C 0.85982 0.9982 0.25735 0.0
C1182 C 0.8712 0.01695 0.26233 0.0
C1183 C 0.85609 0.96223 0.24273 0.0
C1184 C 0.83745 0.9583 0.23421 0.0
C1185 C 0.8638 0.94679 0.24859 0.0
C1186 C 0.88305 0.95026 0.25848 0.0
C1187 C 0.88718 0.96432 0.27562 0.0
C1188 C 0.90545 0.96771 0.28471 0.0
C1189 C 0.91967 0.957 0.27688 0.0
C1190 C 0.91561 0.94282 0.25998 0.0
C1191 C 0.89737 0.93939 0.25082 0.0
H1192 H 0.93382 0.95966 0.28392 0.0
H1193 H 0.75612 0.92661 0.19631 0.0
H1194 H 0.77528 0.2195 0.33587 0.0
H1195 H 0.7994 0.19763 0.33333 0.0
H1196 H 0.83076 0.22929 0.29385 0.0
H1197 H 0.80685 0.25141 0.29651 0.0
H1198 H 0.82595 0.18945 0.28117 0.0
H1199 H 0.84807 0.23558 0.33902 0.0
H1200 H 0.84494 0.255 0.37132 0.0
H1201 H 0.82881 0.20135 0.3923 0.0
H1202 H 0.83156 0.18159 0.36005 0.0
H1203 H 0.90527 0.1376 0.27967 0.0
H1204 H 0.88666 0.1648 0.284 0.0
H1205 H 0.85294 0.13955 0.32626 0.0
H1206 H 0.87164 0.11267 0.32233 0.0
H1207 H 0.86126 0.17857 0.33736 0.0
H1208 H 0.83601 0.13261 0.2798 0.0
H1209 H 0.83786 0.11248 0.24757 0.0
H1210 H 0.85869 0.16507 0.22623 0.0
H1211 H 0.85719 0.1855 0.25841 0.0
C1212 C 0.78745 0.222 0.32686 0.0
C1213 C 0.78914 0.23722 0.31641 0.0
C1214 C 0.80121 0.20946 0.32539 0.0
C1215 C 0.81696 0.21195 0.31352 0.0
C1216 C 0.8187 0.2271 0.30307 0.0
C1217 C 0.80497 0.23967 0.30455 0.0
C1218 C 0.8313 0.19833 0.31159 0.0
C1219 C 0.83395 0.18732 0.2934 0.0
C1220 C 0.8414 0.19527 0.32762 0.0
C1221 C 0.83987 0.20711 0.34707 0.0
C1222 C 0.84372 0.22792 0.35049 0.0
C1223 C 0.84203 0.23899 0.36879 0.0
C1224 C 0.83664 0.22941 0.38384 0.0
C1225 C 0.83297 0.20874 0.38062 0.0
C1226 C 0.83461 0.1976 0.36234 0.0
C1227 C 0.894 0.13795 0.28999 0.0
C1228 C 0.88986 0.12291 0.30056 0.0
C1229 C 0.88333 0.15346 0.2924 0.0
C1230 C 0.86822 0.15407 0.30528 0.0
C1231 C 0.8645 0.13939 0.31625 0.0
C1232 C 0.87519 0.12398 0.31391 0.0
C1233 C 0.85577 0.16952 0.30696 0.0
C1234 C 0.85344 0.18086 0.32509 0.0
C1235 C 0.84584 0.17279 0.2909 0.0
C1236 C 0.8467 0.16055 0.27155 0.0
C1237 C 0.84113 0.13986 0.26826 0.0
C1238 C 0.84209 0.1284 0.25 0.0
C1239 C 0.84845 0.13749 0.23487 0.0
C1240 C 0.85381 0.15805 0.23797 0.0
C1241 C 0.8529 0.16958 0.25621 0.0
H1242 H 0.84919 0.12859 0.22074 0.0
H1243 H 0.83534 0.23801 0.398 0.0
H1244 H 0.42638 0.04374 0.96214 0.0
H1245 H 0.40303 0.02045 0.97551 0.0
H1246 H 0.37499 0.06869 0.00289 0.0
H1247 H 0.39906 0.09206 0.99034 0.0
H1248 H 0.37716 0.04652 0.02653 0.0
H1249 H 0.3558 0.03352 0.96106 0.0
H1250 H 0.35847 0.02557 0.92609 0.0
H1251 H 0.37464 0.96977 0.92975 0.0
H1252 H 0.37232 0.9775 0.96479 0.0
H1253 H 0.28638 0.98447 0.03798 0.0
H1254 H 0.31148 0.0081 0.027 0.0
H1255 H 0.35004 0.96535 0.02035 0.0
H1256 H 0.32522 0.94178 0.0318 0.0
H1257 H 0.34237 0.98415 0.98666 0.0
H1258 H 0.36221 0.99895 0.05367 0.0
H1259 H 0.3568 0.00797 0.08814 0.0
H1260 H 0.33963 0.06212 0.08028 0.0
H1261 H 0.34467 0.05327 0.0457 0.0
C1262 C 0.41513 0.04925 0.97093 0.0
C1263 C 0.41435 0.06957 0.9752 0.0
C1264 C 0.40174 0.03598 0.97849 0.0
C1265 C 0.387 0.04274 0.98997 0.0
C1266 C 0.38621 0.06309 0.99411 0.0
C1267 C 0.39987 0.07641 0.9869 0.0
C1268 C 0.37269 0.02869 0.99804 0.0
C1269 C 0.3694 0.03302 0.0177 0.0
C1270 C 0.36267 0.0109 0.98666 0.0
C1271 C 0.36408 0.00619 0.96558 0.0
C1272 C 0.36007 0.01962 0.95443 0.0
C1273 C 0.36149 0.01514 0.93459 0.0
C1274 C 0.36677 0.9972 0.92571 0.0
C1275 C 0.37058 0.98367 0.93665 0.0
C1276 C 0.3692 0.98809 0.9565 0.0
C1277 C 0.30028 0.98019 0.03439 0.0
C1278 C 0.30387 0.9613 0.03573 0.0
C1279 C 0.31457 0.99369 0.02816 0.0
C1280 C 0.3325 0.98837 0.02288 0.0
C1281 C 0.33624 0.96964 0.02441 0.0
C1282 C 0.3221 0.95627 0.03102 0.0
C1283 C 0.34702 0.00209 0.01495 0.0
C1284 C 0.35025 0.99767 0.99536 0.0
C1285 C 0.3566 0.01999 0.02628 0.0
C1286 C 0.35361 0.02534 0.04707 0.0
C1287 C 0.35709 0.01268 0.05926 0.0
C1288 C 0.35414 0.01778 0.07883 0.0
C1289 C 0.34782 0.03558 0.08639 0.0
C1290 C 0.3445 0.04833 0.0744 0.0
C1291 C 0.34742 0.04328 0.05482 0.0
H1292 H 0.34555 0.03951 0.10154 0.0
H1293 H 0.36787 0.99376 0.91034 0.0
H1294 H 0.22966 0.31 0.25089 0.0
H1295 H 0.2145 0.33936 0.25104 0.0
H1296 H 0.2405 0.36573 0.30698 0.0
H1297 H 0.2555 0.33638 0.3068 0.0
H1298 H 0.20202 0.36666 0.30551 0.0
H1299 H 0.25711 0.38269 0.26777 0.0
H1300 H 0.27861 0.37673 0.24076 0.0
H1301 H 0.23111 0.37218 0.2012 0.0
H1302 H 0.20925 0.37784 0.22798 0.0
H1303 H 0.18929 0.46579 0.31886 0.0
H1304 H 0.20202 0.43488 0.31418 0.0
H1305 H 0.17356 0.41637 0.25841 0.0
H1306 H 0.1609 0.44758 0.26289 0.0
H1307 H 0.21053 0.40954 0.25751 0.0
H1308 H 0.15581 0.39542 0.29484 0.0
H1309 H 0.13394 0.40119 0.32155 0.0
H1310 H 0.17992 0.40146 0.36145 0.0
H1311 H 0.20216 0.39597 0.33498 0.0
C1312 C 0.23232 0.32227 0.26302 0.0
C1313 C 0.24374 0.32122 0.27879 0.0
C1314 C 0.2237 0.33898 0.26312 0.0
C1315 C 0.22642 0.35475 0.27901 0.0
C1316 C 0.23819 0.35373 0.29459 0.0
C1317 C 0.24682 0.33708 0.29446 0.0
C1318 C 0.21629 0.37193 0.27993 0.0
C1319 C 0.20404 0.37617 0.29513 0.0
C1320 C 0.21837 0.38386 0.26598 0.0
C1321 C 0.2315 0.38046 0.24987 0.0
C1322 C 0.25121 0.38024 0.2533 0.0
C1323 C 0.26347 0.37695 0.23804 0.0
C1324 C 0.25622 0.37402 0.21927 0.0
C1325 C 0.2367 0.37442 0.21574 0.0
C1326 C 0.22437 0.37768 0.23096 0.0
C1327 C 0.1856 0.45513 0.30563 0.0
C1328 C 0.17401 0.45913 0.29127 0.0
C1329 C 0.19286 0.43741 0.303 0.0
C1330 C 0.18857 0.42321 0.28603 0.0
C1331 C 0.177 0.42711 0.27163 0.0
C1332 C 0.16971 0.4449 0.27425 0.0
C1333 C 0.19661 0.40453 0.28336 0.0
C1334 C 0.20839 0.39995 0.26781 0.0
C1335 C 0.19403 0.39218 0.29694 0.0
C1336 C 0.18069 0.39543 0.31292 0.0
C1337 C 0.1613 0.39686 0.30932 0.0
C1338 C 0.14883 0.40005 0.32442 0.0
C1339 C 0.15555 0.40173 0.34319 0.0
C1340 C 0.17474 0.40017 0.3469 0.0
C1341 C 0.18728 0.39699 0.33185 0.0
H1342 H 0.14587 0.4042 0.35486 0.0
H1343 H 0.26574 0.37148 0.20747 0.0
H1344 H 0.0876 0.02748 0.48704 0.0
H1345 H 0.12035 0.04659 0.49225 0.0
H1346 H 0.14355 0.99553 0.46362 0.0
H1347 H 0.11062 0.97618 0.45882 0.0
H1348 H 0.16824 0.0196 0.49378 0.0
H1349 H 0.13407 0.02613 0.43799 0.0
H1350 H 0.10578 0.03152 0.42041 0.0
H1351 H 0.11031 0.09023 0.45427 0.0
H1352 H 0.13838 0.08503 0.47236 0.0
H1353 H 0.25385 0.08223 0.47072 0.0
H1354 H 0.22473 0.05686 0.46781 0.0
H1355 H 0.19176 0.10114 0.49441 0.0
H1356 H 0.22056 0.12648 0.49731 0.0
H1357 H 0.17337 0.07746 0.46236 0.0
H1358 H 0.20631 0.06979 0.5194 0.0
H1359 H 0.23387 0.06377 0.53762 0.0
H1360 H 0.23192 0.00691 0.50073 0.0
H1361 H 0.2045 0.01272 0.48212 0.0
C1362 C 0.09978 0.02021 0.48245 0.0
C1363 C 0.09678 0.00048 0.47253 0.0
C1364 C 0.11842 0.0311 0.48534 0.0
C1365 C 0.13429 0.02256 0.47797 0.0
C1366 C 0.13147 0.00237 0.46937 0.0
C1367 C 0.11274 0.99136 0.46665 0.0
C1368 C 0.15318 0.0354 0.47721 0.0
C1369 C 0.16949 0.03208 0.48668 0.0
C1370 C 0.15473 0.05168 0.46793 0.0
C1371 C 0.13826 0.05513 0.45663 0.0
C1372 C 0.12898 0.04016 0.44176 0.0
C1373 C 0.11297 0.04317 0.4317 0.0
C1374 C 0.10623 0.06119 0.43624 0.0
C1375 C 0.11554 0.07627 0.45079 0.0
C1376 C 0.13151 0.0733 0.46094 0.0
C1377 C 0.24038 0.08656 0.47591 0.0
C1378 C 0.23954 0.10639 0.48426 0.0
C1379 C 0.2238 0.07203 0.47432 0.0
C1380 C 0.20614 0.07713 0.48101 0.0
C1381 C 0.20525 0.09691 0.48915 0.0
C1382 C 0.22177 0.11137 0.49084 0.0
C1383 C 0.18838 0.06205 0.47942 0.0
C1384 C 0.17224 0.06489 0.46934 0.0
C1385 C 0.18708 0.04531 0.48802 0.0
C1386 C 0.20351 0.04179 0.49924 0.0
C1387 C 0.21187 0.05608 0.51507 0.0
C1388 C 0.22745 0.05269 0.52549 0.0
C1389 C 0.23469 0.03499 0.5203 0.0
C1390 C 0.22632 0.02063 0.50471 0.0
C1391 C 0.21076 0.02395 0.49423 0.0
H1392 H 0.24674 0.03239 0.52839 0.0
H1393 H 0.09381 0.06348 0.42846 0.0
H1394 H 0.75083 0.20598 0.73859 0.0
H1395 H 0.73367 0.17395 0.74331 0.0
H1396 H 0.78665 0.14996 0.73612 0.0
H1397 H 0.80391 0.182 0.73124 0.0
H1398 H 0.75466 0.12451 0.7164 0.0
H1399 H 0.77267 0.16177 0.77926 0.0
H1400 H 0.77559 0.19083 0.80569 0.0
H1401 H 0.71373 0.18523 0.80667 0.0
H1402 H 0.71044 0.15631 0.78003 0.0
H1403 H 0.70069 0.0563 0.78196 0.0
H1404 H 0.72547 0.08369 0.77699 0.0
H1405 H 0.69445 0.08718 0.7259 0.0
H1406 H 0.66975 0.05981 0.73063 0.0
H1407 H 0.72051 0.12107 0.77668 0.0
H1408 H 0.72631 0.10258 0.69417 0.0
H1409 H 0.72463 0.07314 0.66829 0.0
H1410 H 0.74179 0.03993 0.70806 0.0
H1411 H 0.74384 0.06923 0.73412 0.0
C1412 C 0.75876 0.19381 0.73779 0.0
C1413 C 0.77868 0.19644 0.73458 0.0
C1414 C 0.749 0.1756 0.74062 0.0
C1415 C 0.75897 0.15971 0.74024 0.0
C1416 C 0.77875 0.1621 0.73652 0.0
C1417 C 0.78858 0.18039 0.73385 0.0
C1418 C 0.74868 0.14071 0.74403 0.0
C1419 C 0.74725 0.12368 0.72959 0.0
C1420 C 0.73941 0.13964 0.76143 0.0
C1421 C 0.74132 0.15696 0.77754 0.0
C1422 C 0.75969 0.16683 0.78501 0.0
C1423 C 0.76141 0.18326 0.80005 0.0
C1424 C 0.74486 0.18989 0.80783 0.0
C1425 C 0.72654 0.18008 0.80062 0.0
C1426 C 0.72474 0.16365 0.78556 0.0
C1427 C 0.69926 0.06273 0.76954 0.0
C1428 C 0.6832 0.0559 0.75672 0.0
C1429 C 0.71341 0.07841 0.76676 0.0
C1430 C 0.71185 0.08736 0.75102 0.0
C1431 C 0.69608 0.08029 0.73799 0.0
C1432 C 0.68191 0.0647 0.74079 0.0
C1433 C 0.72596 0.10494 0.74881 0.0
C1434 C 0.72809 0.12177 0.76356 0.0
C1435 C 0.73603 0.10574 0.73178 0.0
C1436 C 0.73509 0.08809 0.71613 0.0
C1437 C 0.72983 0.08903 0.69738 0.0
C1438 C 0.72879 0.07235 0.68267 0.0
C1439 C 0.73305 0.05466 0.68653 0.0
C1440 C 0.73842 0.05362 0.7051 0.0
C1441 C 0.7395 0.07025 0.71985 0.0
H1442 H 0.73223 0.04177 0.67513 0.0
H1443 H 0.74622 0.20262 0.81948 0.0
H1444 H 0.39635 0.01263 0.58856 0.0
H1445 H 0.38774 0.04404 0.58356 0.0
H1446 H 0.40077 0.02886 0.52398 0.0
H1447 H 0.40972 0.99784 0.52913 0.0
H1448 H 0.41222 0.06752 0.53728 0.0
H1449 H 0.35427 0.01926 0.53991 0.0
H1450 H 0.33194 0.99629 0.55513 0.0
H1451 H 0.3255 0.044 0.6015 0.0
H1452 H 0.34798 0.06721 0.58664 0.0
H1453 H 0.34873 0.10416 0.48272 0.0
H1454 H 0.36849 0.08663 0.4992 0.0
H1455 H 0.34982 0.11533 0.5535 0.0
H1456 H 0.3298 0.13294 0.53701 0.0
H1457 H 0.34421 0.07574 0.54975 0.0
H1458 H 0.397 0.12521 0.54224 0.0
H1459 H 0.41824 0.14756 0.5255 0.0
H1460 H 0.43382 0.09752 0.48712 0.0
H1461 H 0.41245 0.07485 0.50344 0.0
C1462 C 0.39768 0.01631 0.57453 0.0
C1463 C 0.40362 0.00305 0.55918 0.0
C1464 C 0.39271 0.03413 0.57166 0.0
C1465 C 0.39339 0.0387 0.55334 0.0
C1466 C 0.40017 0.02571 0.53824 0.0
C1467 C 0.40522 0.008 0.54115 0.0
C1468 C 0.38567 0.05608 0.54932 0.0
C1469 C 0.39736 0.06935 0.54 0.0
C1470 C 0.36645 0.05883 0.55337 0.0
C1471 C 0.35299 0.04489 0.56231 0.0
C1472 C 0.34821 0.02481 0.55343 0.0
C1473 C 0.33551 0.01176 0.56197 0.0
C1474 C 0.32736 0.01867 0.5793 0.0
C1475 C 0.33186 0.03866 0.5881 0.0
C1476 C 0.34457 0.05176 0.57963 0.0
C1477 C 0.34909 0.10707 0.49819 0.0
C1478 C 0.3376 0.11985 0.50855 0.0
C1479 C 0.36052 0.09712 0.50761 0.0
C1480 C 0.36075 0.09976 0.52761 0.0
C1481 C 0.34991 0.11314 0.53807 0.0
C1482 C 0.33852 0.12321 0.52862 0.0
C1483 C 0.37056 0.08684 0.53716 0.0
C1484 C 0.35925 0.07434 0.54749 0.0
C1485 C 0.39007 0.08474 0.53389 0.0
C1486 C 0.40303 0.09831 0.52404 0.0
C1487 C 0.40484 0.11896 0.53015 0.0
C1488 C 0.41693 0.13169 0.52075 0.0
C1489 C 0.42736 0.12396 0.50524 0.0
C1490 C 0.42574 0.10348 0.49914 0.0
C1491 C 0.41367 0.09068 0.50849 0.0
H1492 H 0.4367 0.13385 0.49798 0.0
H1493 H 0.31753 0.00854 0.58589 0.0
H1494 H 0.5942 0.58252 0.55825 0.0
H1495 H 0.61404 0.55649 0.55005 0.0
H1496 H 0.62554 0.55922 0.60993 0.0
H1497 H 0.6062 0.58552 0.61818 0.0
H1498 H 0.65773 0.55605 0.58995 0.0
H1499 H 0.59165 0.523 0.58484 0.0
H1500 H 0.55756 0.51632 0.57333 0.0
H1501 H 0.57507 0.50124 0.51549 0.0
H1502 H 0.60931 0.5081 0.52665 0.0
H1503 H 0.69273 0.46493 0.58071 0.0
H1504 H 0.67222 0.49029 0.58953 0.0
H1505 H 0.6608 0.48906 0.52994 0.0
H1506 H 0.68108 0.46372 0.52103 0.0
H1507 H 0.62838 0.49124 0.55022 0.0
H1508 H 0.69439 0.52477 0.55519 0.0
H1509 H 0.72854 0.53167 0.56655 0.0
H1510 H 0.7112 0.5459 0.62453 0.0
H1511 H 0.6769 0.53883 0.61352 0.0
C1512 C 0.60117 0.57774 0.56964 0.0
C1513 C 0.59847 0.58593 0.58886 0.0
C1514 C 0.61236 0.56276 0.56495 0.0
C1515 C 0.62103 0.55569 0.5794 0.0
C1516 C 0.61891 0.56435 0.59856 0.0
C1517 C 0.60772 0.57927 0.60324 0.0
C1518 C 0.63199 0.53901 0.57464 0.0
C1519 C 0.65124 0.5418 0.58146 0.0
C1520 C 0.62362 0.52052 0.5633 0.0
C1521 C 0.60305 0.51626 0.55656 0.0
C1522 C 0.58824 0.5184 0.56965 0.0
C1523 C 0.56889 0.51456 0.5632 0.0
C1524 C 0.56416 0.50841 0.54369 0.0
C1525 C 0.57876 0.50603 0.5306 0.0
C1526 C 0.59814 0.50988 0.53698 0.0
C1527 C 0.68563 0.46987 0.5695 0.0
C1528 C 0.68861 0.46239 0.55017 0.0
C1529 C 0.67402 0.48444 0.57456 0.0
C1530 C 0.6652 0.49176 0.56038 0.0
C1531 C 0.6675 0.48368 0.54111 0.0
C1532 C 0.67914 0.46922 0.53605 0.0
C1533 C 0.65412 0.50829 0.56551 0.0
C1534 C 0.63485 0.50547 0.55875 0.0
C1535 C 0.66247 0.52676 0.5769 0.0
C1536 C 0.68308 0.53106 0.58355 0.0
C1537 C 0.69785 0.52921 0.57038 0.0
C1538 C 0.71723 0.53318 0.57675 0.0
C1539 C 0.72203 0.53916 0.59626 0.0
C1540 C 0.70745 0.54123 0.60943 0.0
C1541 C 0.68804 0.53726 0.60313 0.0
H1542 H 0.73705 0.54223 0.60116 0.0
H1543 H 0.54917 0.50544 0.53871 0.0
H1544 H 0.77384 0.28256 0.37047 0.0
H1545 H 0.76313 0.29763 0.40144 0.0
H1546 H 0.70619 0.29456 0.37702 0.0
H1547 H 0.71645 0.27845 0.34595 0.0
H1548 H 0.72395 0.33286 0.39888 0.0
H1549 H 0.70903 0.26532 0.40528 0.0
H1550 H 0.71539 0.23139 0.40363 0.0
H1551 H 0.76239 0.25346 0.44496 0.0
H1552 H 0.75651 0.28758 0.44665 0.0
H1553 H 0.69958 0.3786 0.49082 0.0
H1554 H 0.69661 0.35393 0.46098 0.0
H1555 H 0.75013 0.33652 0.47546 0.0
H1556 H 0.75276 0.36045 0.50551 0.0
H1557 H 0.72728 0.30544 0.45752 0.0
H1558 H 0.74742 0.37187 0.44664 0.0
H1559 H 0.74417 0.40668 0.44778 0.0
H1560 H 0.69089 0.38775 0.41451 0.0
H1561 H 0.69372 0.3528 0.41339 0.0
C1562 C 0.75888 0.28456 0.37165 0.0
C1563 C 0.746 0.27909 0.35561 0.0
C1564 C 0.75283 0.29332 0.38941 0.0
C1565 C 0.73384 0.29704 0.39152 0.0
C1566 C 0.7209 0.29174 0.37564 0.0
C1567 C 0.72686 0.28267 0.35787 0.0
C1568 C 0.72806 0.30746 0.4102 0.0
C1569 C 0.72418 0.32672 0.41167 0.0
C1570 C 0.72888 0.29956 0.42687 0.0
C1571 C 0.73239 0.27904 0.426 0.0
C1572 C 0.72082 0.26296 0.41391 0.0
C1573 C 0.72432 0.24369 0.41299 0.0
C1574 C 0.7393 0.24027 0.42416 0.0
C1575 C 0.75079 0.25613 0.43631 0.0
C1576 C 0.74736 0.27544 0.43728 0.0
C1577 C 0.71051 0.36924 0.4878 0.0
C1578 C 0.72653 0.37168 0.50045 0.0
C1579 C 0.70885 0.35521 0.47069 0.0
C1580 C 0.7234 0.34369 0.46572 0.0
C1581 C 0.73875 0.34526 0.47889 0.0
C1582 C 0.74026 0.35903 0.4961 0.0
C1583 C 0.72364 0.33112 0.44634 0.0
C1584 C 0.72656 0.31146 0.44472 0.0
C1585 C 0.72233 0.33879 0.42953 0.0
C1586 C 0.72065 0.35976 0.43014 0.0
C1587 C 0.73495 0.37515 0.43968 0.0
C1588 C 0.73319 0.39489 0.44031 0.0
C1589 C 0.7173 0.39942 0.43128 0.0
C1590 C 0.70316 0.38421 0.42155 0.0
C1591 C 0.70483 0.36444 0.4209 0.0
H1592 H 0.71597 0.41472 0.43178 0.0
H1593 H 0.74199 0.22534 0.42342 0.0
H1594 H 0.46912 0.08334 0.87534 0.0
H1595 H 0.49595 0.07074 0.85782 0.0
H1596 H 0.52491 0.07053 0.91115 0.0
H1597 H 0.49798 0.08335 0.9287 0.0
H1598 H 0.55008 0.08444 0.88532 0.0
H1599 H 0.50183 0.02805 0.88619 0.0
H1600 H 0.46909 0.00814 0.88228 0.0
H1601 H 0.46812 0.00922 0.82243 0.0
H1602 H 0.50076 0.0294 0.82603 0.0
H1603 H 0.61552 0.02592 0.83301 0.0
H1604 H 0.59165 0.03627 0.85625 0.0
H1605 H 0.55404 0.04164 0.8104 0.0
H1606 H 0.57758 0.03135 0.78722 0.0
H1607 H 0.53454 0.0225 0.83629 0.0
H1608 H 0.58128 0.08197 0.83653 0.0
H1609 H 0.61396 0.10206 0.84051 0.0
H1610 H 0.61778 0.09472 0.89857 0.0
H1611 H 0.5852 0.07435 0.89484 0.0
C1612 C 0.48136 0.08081 0.88325 0.0
C1613 C 0.48172 0.08426 0.90322 0.0
C1614 C 0.49658 0.07352 0.87329 0.0
C1615 C 0.51227 0.06943 0.8832 0.0
C1616 C 0.5129 0.07353 0.90326 0.0
C1617 C 0.49761 0.08083 0.91324 0.0
C1618 C 0.52769 0.06044 0.87243 0.0
C1619 C 0.54678 0.0707 0.87485 0.0
C1620 C 0.52332 0.04259 0.85868 0.0
C1621 C 0.5037 0.03037 0.85642 0.0
C1622 C 0.49458 0.02417 0.87222 0.0
C1623 C 0.47605 0.01282 0.87005 0.0
C1624 C 0.46651 0.00745 0.85212 0.0
C1625 C 0.47552 0.0134 0.83631 0.0
C1626 C 0.49405 0.02478 0.83841 0.0
C1627 C 0.60211 0.02921 0.82789 0.0
C1628 C 0.59849 0.02789 0.80826 0.0
C1629 C 0.58854 0.03519 0.84118 0.0
C1630 C 0.57114 0.03983 0.83502 0.0
C1631 C 0.56736 0.03811 0.81544 0.0
C1632 C 0.5809 0.03229 0.80222 0.0
C1633 C 0.55681 0.04678 0.84879 0.0
C1634 C 0.53791 0.03608 0.84696 0.0
C1635 C 0.56138 0.06418 0.86308 0.0
C1636 C 0.58093 0.07644 0.86533 0.0
C1637 C 0.58917 0.0845 0.85009 0.0
C1638 C 0.60765 0.09596 0.85231 0.0
C1639 C 0.61797 0.09961 0.86976 0.0
C1640 C 0.60979 0.09185 0.88505 0.0
C1641 C 0.59132 0.08035 0.88289 0.0
H1642 H 0.63227 0.1085 0.87146 0.0
H1643 H 0.45216 0.99866 0.85048 0.0
H1644 H 0.32464 0.28591 0.33931 0.0
H1645 H 0.32937 0.26912 0.36545 0.0
H1646 H 0.27977 0.22455 0.34435 0.0
H1647 H 0.27558 0.24061 0.31766 0.0
H1648 H 0.30818 0.2625 0.39385 0.0
H1649 H 0.28476 0.18064 0.35376 0.0
H1650 H 0.28666 0.16052 0.32153 0.0
H1651 H 0.33599 0.20162 0.31073 0.0
H1652 H 0.33456 0.22183 0.34298 0.0
H1653 H 0.27663 0.20101 0.45791 0.0
H1654 H 0.28117 0.21919 0.43208 0.0
H1655 H 0.32941 0.19016 0.413 0.0
H1656 H 0.32448 0.17128 0.43852 0.0
H1657 H 0.30818 0.19021 0.38375 0.0
H1658 H 0.33564 0.24017 0.43606 0.0
H1659 H 0.33778 0.26111 0.46835 0.0
H1660 H 0.28817 0.28524 0.45491 0.0
H1661 H 0.28556 0.26424 0.42262 0.0
C1662 C 0.31492 0.27235 0.34005 0.0
C1663 C 0.29975 0.26459 0.32632 0.0
C1664 C 0.31755 0.26287 0.35511 0.0
C1665 C 0.30507 0.24545 0.35676 0.0
C1666 C 0.28981 0.23778 0.3432 0.0
C1667 C 0.28726 0.24715 0.32807 0.0
C1668 C 0.3076 0.23555 0.37296 0.0
C1669 C 0.30828 0.24671 0.39164 0.0
C1670 C 0.30833 0.21506 0.37011 0.0
C1671 C 0.30944 0.20283 0.35075 0.0
C1672 C 0.29607 0.18533 0.34455 0.0
C1673 C 0.29706 0.17392 0.32626 0.0
C1674 C 0.31141 0.17981 0.31407 0.0
C1675 C 0.32484 0.1971 0.32016 0.0
C1676 C 0.32393 0.20855 0.33843 0.0
C1677 C 0.28833 0.19859 0.44834 0.0
C1678 C 0.30022 0.18471 0.45031 0.0
C1679 C 0.29098 0.2091 0.43361 0.0
C1680 C 0.30583 0.20631 0.42073 0.0
C1681 C 0.31787 0.1926 0.42277 0.0
C1682 C 0.31506 0.18186 0.43739 0.0
C1683 C 0.3081 0.21704 0.40467 0.0
C1684 C 0.3083 0.20604 0.38599 0.0
C1685 C 0.3088 0.23779 0.40755 0.0
C1686 C 0.31033 0.25052 0.42695 0.0
C1687 C 0.32511 0.24985 0.44003 0.0
C1688 C 0.32642 0.26174 0.45833 0.0
C1689 C 0.3131 0.27447 0.46369 0.0
C1690 C 0.29847 0.27537 0.45074 0.0
C1691 C 0.29709 0.26349 0.43243 0.0
H1692 H 0.31414 0.28367 0.47787 0.0
H1693 H 0.31213 0.17096 0.29992 0.0
H1694 H 0.51435 0.4809 0.94651 0.0
H1695 H 0.4954 0.49352 0.92447 0.0
H1696 H 0.54096 0.4903 0.88408 0.0
H1697 H 0.56023 0.47806 0.90639 0.0
H1698 H 0.52847 0.52384 0.88644 0.0
H1699 H 0.49794 0.45645 0.8772 0.0
H1700 H 0.48242 0.42551 0.88636 0.0
H1701 H 0.43646 0.45436 0.91151 0.0
H1702 H 0.45184 0.48556 0.90274 0.0
H1703 H 0.46645 0.53338 0.80912 0.0
H1704 H 0.48809 0.52184 0.82978 0.0
H1705 H 0.45067 0.53404 0.87686 0.0
H1706 H 0.42906 0.5458 0.85643 0.0
H1707 H 0.45968 0.49507 0.86932 0.0
H1708 H 0.49188 0.56299 0.87814 0.0
H1709 H 0.50776 0.59288 0.86734 0.0
H1710 H 0.55105 0.56107 0.84039 0.0
H1711 H 0.53525 0.53089 0.8508 0.0
C1712 C 0.5202 0.4826 0.93281 0.0
C1713 C 0.53868 0.47833 0.92807 0.0
C1714 C 0.50936 0.48983 0.92022 0.0
C1715 C 0.51661 0.49258 0.90247 0.0
C1716 C 0.53506 0.48827 0.89768 0.0
C1717 C 0.54602 0.48125 0.91039 0.0
C1718 C 0.50507 0.50046 0.88921 0.0
C1719 C 0.51352 0.51734 0.88245 0.0
C1720 C 0.48548 0.49215 0.88417 0.0
C1721 C 0.47614 0.4734 0.88945 0.0
C1722 C 0.4846 0.45624 0.88481 0.0
C1723 C 0.47581 0.43865 0.88991 0.0
C1724 C 0.45849 0.43798 0.89955 0.0
C1725 C 0.44989 0.4549 0.90407 0.0
C1726 C 0.45862 0.47254 0.89901 0.0
C1727 C 0.46295 0.53385 0.82394 0.0
C1728 C 0.44601 0.54045 0.83113 0.0
C1729 C 0.47535 0.52729 0.83571 0.0
C1730 C 0.47092 0.52708 0.8548 0.0
C1731 C 0.45429 0.53408 0.86214 0.0
C1732 C 0.44202 0.54088 0.85046 0.0
C1733 C 0.48302 0.51852 0.86685 0.0
C1734 C 0.47466 0.50148 0.8733 0.0
C1735 C 0.50274 0.52648 0.87132 0.0
C1736 C 0.51225 0.54462 0.86507 0.0
C1737 C 0.50468 0.56231 0.86975 0.0
C1738 C 0.51369 0.57932 0.86374 0.0
C1739 C 0.53037 0.57886 0.85314 0.0
C1740 C 0.53811 0.5614 0.84857 0.0
C1741 C 0.52914 0.54434 0.85454 0.0
H1742 H 0.53733 0.59204 0.8485 0.0
H1743 H 0.45171 0.42434 0.90348 0.0
H1744 H 0.80345 0.79805 0.20504 0.0
H1745 H 0.80231 0.77428 0.17479 0.0
H1746 H 0.74037 0.77075 0.17042 0.0
H1747 H 0.74147 0.79401 0.20125 0.0
H1748 H 0.74929 0.73565 0.15724 0.0
H1749 H 0.77184 0.80074 0.14661 0.0
H1750 H 0.79247 0.83364 0.15205 0.0
H1751 H 0.84253 0.80651 0.13755 0.0
H1752 H 0.82223 0.77341 0.13231 0.0
H1753 H 0.73998 0.70484 0.05572 0.0
H1754 H 0.74082 0.72392 0.08838 0.0
H1755 H 0.80003 0.71678 0.09619 0.0
H1756 H 0.79926 0.69737 0.06349 0.0
H1757 H 0.79255 0.75661 0.10752 0.0
H1758 H 0.76773 0.69082 0.11692 0.0
H1759 H 0.74544 0.65888 0.11055 0.0
H1760 H 0.69735 0.68895 0.12582 0.0
H1761 H 0.71933 0.72111 0.13201 0.0
C1762 C 0.78958 0.79197 0.1977 0.0
C1763 C 0.77256 0.7979 0.20529 0.0
C1764 C 0.78894 0.77849 0.18039 0.0
C1765 C 0.77132 0.77111 0.17006 0.0
C1766 C 0.75415 0.77633 0.17808 0.0
C1767 C 0.75476 0.78959 0.19564 0.0
C1768 C 0.77102 0.75869 0.15057 0.0
C1769 C 0.75859 0.74035 0.14633 0.0
C1770 C 0.7833 0.76469 0.13631 0.0
C1771 C 0.79554 0.78459 0.13925 0.0
C1772 C 0.78727 0.80178 0.1447 0.0
C1773 C 0.7989 0.82047 0.14774 0.0
C1774 C 0.8188 0.82216 0.14519 0.0
C1775 C 0.82711 0.80517 0.13954 0.0
C1776 C 0.81555 0.78645 0.13653 0.0
C1777 C 0.75319 0.70728 0.06438 0.0
C1778 C 0.76957 0.69962 0.05703 0.0
C1779 C 0.7536 0.71811 0.08306 0.0
C1780 C 0.77044 0.72163 0.0947 0.0
C1781 C 0.78689 0.71415 0.08741 0.0
C1782 C 0.78641 0.70305 0.06877 0.0
C1783 C 0.77095 0.7336 0.11432 0.0
C1784 C 0.78335 0.75191 0.11852 0.0
C1785 C 0.75839 0.72773 0.12837 0.0
C1786 C 0.74517 0.70839 0.12476 0.0
C1787 C 0.75239 0.69064 0.11876 0.0
C1788 C 0.73981 0.67249 0.11522 0.0
C1789 C 0.71999 0.67189 0.11773 0.0
C1790 C 0.71271 0.68944 0.12385 0.0
C1791 C 0.72522 0.70763 0.1274 0.0
H1792 H 0.71028 0.65782 0.11498 0.0
H1793 H 0.82778 0.83664 0.14755 0.0
H1794 H 0.0662 0.14765 0.11349 0.0
H1795 H 0.04178 0.14875 0.13805 0.0
H1796 H 0.02514 0.08529 0.12214 0.0
H1797 H 0.04877 0.08425 0.09724 0.0
H1798 H 0.99439 0.10107 0.13102 0.0
H1799 H 0.05901 0.10881 0.15941 0.0
H1800 H 0.09277 0.12546 0.16697 0.0
H1801 H 0.07293 0.17857 0.19465 0.0
H1802 H 0.03904 0.16227 0.18703 0.0
H1803 H 0.97376 0.06044 0.21196 0.0
H1804 H 0.98957 0.07306 0.18547 0.0
H1805 H 0.97955 0.13181 0.21031 0.0
H1806 H 0.96317 0.11913 0.23693 0.0
H1807 H 0.01998 0.12675 0.19764 0.0
H1808 H 0.95422 0.11395 0.17451 0.0
H1809 H 0.92141 0.09449 0.16788 0.0
H1810 H 0.94436 0.04814 0.13088 0.0
H1811 H 0.97736 0.06718 0.13752 0.0
C1812 C 0.05698 0.13403 0.11496 0.0
C1813 C 0.05961 0.11582 0.10364 0.0
C1814 C 0.04316 0.13465 0.1291 0.0
C1815 C 0.03187 0.11705 0.13222 0.0
C1816 C 0.03371 0.09906 0.12012 0.0
C1817 C 0.04737 0.09846 0.10598 0.0
C1818 C 0.01913 0.11681 0.14881 0.0
C1819 C 0.99997 0.10679 0.14557 0.0
C1820 C 0.02621 0.12465 0.16785 0.0
C1821 C 0.04654 0.13443 0.17243 0.0
C1822 C 0.06187 0.12409 0.16698 0.0
C1823 C 0.08101 0.13345 0.17129 0.0
C1824 C 0.08499 0.15309 0.18122 0.0
C1825 C 0.06983 0.16338 0.18691 0.0
C1826 C 0.05065 0.15409 0.1826 0.0
C1827 C 0.97487 0.07606 0.21184 0.0
C1828 C 0.96724 0.08881 0.22655 0.0
C1829 C 0.98385 0.08322 0.19665 0.0
C1830 C 0.98561 0.10332 0.19591 0.0
C1831 C 0.97824 0.11623 0.21064 0.0
C1832 C 0.96888 0.10897 0.22577 0.0
C1833 C 0.99558 0.11047 0.17975 0.0
C1834 C 0.01421 0.12167 0.18308 0.0
C1835 C 0.98814 0.10344 0.16079 0.0
C1836 C 0.96829 0.09198 0.1566 0.0
C1837 C 0.95229 0.09955 0.16507 0.0
C1838 C 0.93365 0.0886 0.16129 0.0
C1839 C 0.9308 0.07008 0.14898 0.0
C1840 C 0.94659 0.06249 0.1404 0.0
C1841 C 0.96526 0.07337 0.14415 0.0
H1842 H 0.91636 0.06162 0.14608 0.0
H1843 H 0.09982 0.16031 0.18455 0.0
H1844 H 0.31778 0.7826 0.18476 0.0
H1845 H 0.31875 0.81003 0.16782 0.0
H1846 H 0.27709 0.83409 0.20591 0.0
H1847 H 0.2761 0.80657 0.22273 0.0
H1848 H 0.26516 0.82793 0.16922 0.0
H1849 H 0.32264 0.85977 0.2057 0.0
H1850 H 0.35535 0.86265 0.21983 0.0
H1851 H 0.37801 0.85021 0.1638 0.0
H1852 H 0.34538 0.84696 0.14931 0.0
H1853 H 0.26108 0.90232 0.1153 0.0
H1854 H 0.26626 0.88731 0.14271 0.0
H1855 H 0.31088 0.85911 0.11296 0.0
H1856 H 0.30614 0.87436 0.08585 0.0
H1857 H 0.3213 0.87171 0.14958 0.0
H1858 H 0.26403 0.83444 0.11359 0.0
H1859 H 0.23144 0.82993 0.09861 0.0
H1860 H 0.20872 0.85099 0.15315 0.0
H1861 H 0.24125 0.85586 0.16841 0.0
C1862 C 0.3094 0.79417 0.18986 0.0
C1863 C 0.29703 0.79277 0.20505 0.0
C1864 C 0.30993 0.80981 0.18021 0.0
C1865 C 0.29803 0.82416 0.18564 0.0
C1866 C 0.28643 0.82323 0.20153 0.0
C1867 C 0.28595 0.80762 0.21118 0.0
C1868 C 0.29583 0.83847 0.17329 0.0
C1869 C 0.27738 0.83787 0.16529 0.0
C1870 C 0.31184 0.85103 0.16777 0.0
C1871 C 0.33151 0.85299 0.17642 0.0
C1872 C 0.33456 0.85749 0.19638 0.0
C1873 C 0.3531 0.85922 0.20446 0.0
C1874 C 0.36874 0.85658 0.19272 0.0
C1875 C 0.36588 0.85224 0.17287 0.0
C1876 C 0.34737 0.85048 0.16472 0.0
C1877 C 0.2721 0.89306 0.11469 0.0
C1878 C 0.28307 0.88939 0.09833 0.0
C1879 C 0.27503 0.88447 0.13034 0.0
C1880 C 0.2888 0.87187 0.1298 0.0
C1881 C 0.3002 0.86878 0.11374 0.0
C1882 C 0.29737 0.87744 0.09818 0.0
C1883 C 0.29069 0.86092 0.14536 0.0
C1884 C 0.30905 0.86207 0.15385 0.0
C1885 C 0.27464 0.84868 0.15124 0.0
C1886 C 0.25509 0.84575 0.14209 0.0
C1887 C 0.2521 0.83826 0.12235 0.0
C1888 C 0.23364 0.83561 0.11382 0.0
C1889 C 0.21803 0.84024 0.12491 0.0
C1890 C 0.22084 0.84746 0.14457 0.0
C1891 C 0.23928 0.85016 0.15317 0.0
H1892 H 0.20375 0.83817 0.11828 0.0
H1893 H 0.38308 0.85792 0.199 0.0
H1894 H 0.95653 0.46881 0.14274 0.0
H1895 H 0.98304 0.46947 0.16537 0.0
H1896 H 0.02441 0.48026 0.12252 0.0
H1897 H 0.99808 0.47973 0.09992 0.0
H1898 H 0.03477 0.45419 0.14283 0.0
H1899 H 0.01411 0.51812 0.15538 0.0
H1900 H 0.9903 0.5406 0.16294 0.0
H1901 H 0.97846 0.52063 0.21546 0.0
H1902 H 0.00203 0.49782 0.20807 0.0
H1903 H 0.10491 0.52729 0.2184 0.0
H1904 H 0.0783 0.51813 0.19472 0.0
H1905 H 0.06889 0.45845 0.20463 0.0
H1906 H 0.09586 0.46754 0.22847 0.0
H1907 H 0.04122 0.50627 0.20183 0.0
H1908 H 0.04822 0.428 0.16145 0.0
H1909 H 0.07343 0.40743 0.15234 0.0
H1910 H 0.11555 0.45973 0.15328 0.0
H1911 H 0.09056 0.48057 0.16215 0.0
C1912 C 0.97128 0.47134 0.13817 0.0
C1913 C 0.97522 0.47435 0.11959 0.0
C1914 C 0.98639 0.47158 0.15105 0.0
C1915 C 0.00568 0.475 0.14563 0.0
C1916 C 0.00962 0.47744 0.12694 0.0
C1917 C 0.99455 0.47717 0.11406 0.0
C1918 C 0.02187 0.4775 0.15972 0.0
C1919 C 0.03613 0.46546 0.15582 0.0
C1920 C 0.02371 0.49232 0.17655 0.0
C1921 C 0.00965 0.50612 0.18107 0.0
C1922 C 0.00632 0.51842 0.16847 0.0
C1923 C 0.99288 0.53123 0.17273 0.0
C1924 C 0.98283 0.532 0.18964 0.0
C1925 C 0.98623 0.51999 0.20235 0.0
C1926 C 0.99962 0.50713 0.19814 0.0
C1927 C 0.09736 0.51214 0.21543 0.0
C1928 C 0.10239 0.49816 0.2254 0.0
C1929 C 0.08211 0.50695 0.20192 0.0
C1930 C 0.07153 0.48767 0.19803 0.0
C1931 C 0.07693 0.4734 0.20739 0.0
C1932 C 0.09233 0.4786 0.22097 0.0
C1933 C 0.0543 0.48313 0.18488 0.0
C1934 C 0.03976 0.49477 0.18901 0.0
C1935 C 0.05243 0.46819 0.16813 0.0
C1936 C 0.06757 0.45583 0.16271 0.0
C1937 C 0.06286 0.43509 0.15968 0.0
C1938 C 0.07711 0.42339 0.15456 0.0
C1939 C 0.0961 0.43227 0.15231 0.0
C1940 C 0.10086 0.45287 0.15512 0.0
C1941 C 0.08667 0.46463 0.16023 0.0
H1942 H 0.1071 0.42318 0.14835 0.0
H1943 H 0.97244 0.54193 0.19292 0.0
H1944 H 0.35643 0.74854 0.23063 0.0
H1945 H 0.38801 0.75132 0.24695 0.0
H1946 H 0.35941 0.74659 0.29963 0.0
H1947 H 0.32812 0.74409 0.28347 0.0
H1948 H 0.39275 0.77154 0.30672 0.0
H1949 H 0.37031 0.70602 0.27006 0.0
H1950 H 0.35904 0.68135 0.24082 0.0
H1951 H 0.41269 0.69763 0.21458 0.0
H1952 H 0.42415 0.72264 0.24359 0.0
H1953 H 0.45332 0.72733 0.35777 0.0
H1954 H 0.42599 0.72843 0.33682 0.0
H1955 H 0.46548 0.74787 0.29563 0.0
H1956 H 0.49293 0.74729 0.31669 0.0
H1957 H 0.42923 0.71756 0.28084 0.0
H1958 H 0.45189 0.78204 0.32053 0.0
H1959 H 0.46187 0.80485 0.35121 0.0
H1960 H 0.40595 0.78833 0.37318 0.0
H1961 H 0.3958 0.76509 0.34276 0.0
C1962 C 0.35705 0.74877 0.24582 0.0
C1963 C 0.33997 0.74607 0.25585 0.0
C1964 C 0.37501 0.75015 0.25508 0.0
C1965 C 0.37601 0.74879 0.27443 0.0
C1966 C 0.359 0.74762 0.28471 0.0
C1967 C 0.34115 0.7462 0.27549 0.0
C1968 C 0.39433 0.74681 0.28372 0.0
C1969 C 0.4007 0.75974 0.30104 0.0
C1970 C 0.40479 0.73144 0.27629 0.0
C1971 C 0.39798 0.71637 0.25889 0.0
C1972 C 0.37964 0.70445 0.25799 0.0
C1973 C 0.37322 0.69039 0.24147 0.0
C1974 C 0.38512 0.68797 0.22583 0.0
C1975 C 0.40347 0.69956 0.22669 0.0
C1976 C 0.40993 0.71368 0.24317 0.0
C1977 C 0.4562 0.73131 0.34402 0.0
C1978 C 0.47525 0.73732 0.33889 0.0
C1979 C 0.44058 0.73202 0.33214 0.0
C1980 C 0.4438 0.73841 0.31482 0.0
C1981 C 0.46277 0.74293 0.30897 0.0
C1982 C 0.4784 0.74259 0.32101 0.0
C1983 C 0.42742 0.74217 0.30381 0.0
C1984 C 0.42143 0.72955 0.28628 0.0
C1985 C 0.41712 0.75762 0.31117 0.0
C1986 C 0.42316 0.77166 0.32944 0.0
C1987 C 0.4418 0.7831 0.33198 0.0
C1988 C 0.44748 0.79614 0.34931 0.0
C1989 C 0.43458 0.798 0.36416 0.0
C1990 C 0.41596 0.78685 0.3617 0.0
C1991 C 0.41023 0.77374 0.34441 0.0
H1992 H 0.43901 0.80814 0.37754 0.0
H1993 H 0.38014 0.67707 0.21305 0.0
H1994 H 0.97357 0.46946 0.04845 0.0
H1995 H 0.97733 0.44577 0.01906 0.0
H1996 H 0.92129 0.41224 0.02592 0.0
H1997 H 0.9174 0.43614 0.05528 0.0
H1998 H 0.95205 0.39085 0.02428 0.0
H1999 H 0.92682 0.43264 0.98855 0.0
H2000 H 0.92423 0.46401 0.97873 0.0
H2001 H 0.9828 0.46887 0.96051 0.0
H2002 H 0.98586 0.43767 0.97049 0.0
H2003 H 0.96117 0.31622 0.94428 0.0
H2004 H 0.94913 0.34237 0.96649 0.0
H2005 H 0.99912 0.38423 0.95759 0.0
H2006 H 0.01093 0.35821 0.93474 0.0
H2007 H 0.96815 0.40104 0.95904 0.0
H2008 H 0.99538 0.36281 0.99772 0.0
H2009 H 0.99999 0.33251 0.00866 0.0
H2010 H 0.94021 0.32238 0.02283 0.0
H2011 H 0.93519 0.35249 0.01173 0.0
C2012 C 0.96182 0.45737 0.0433 0.0
C2013 C 0.9452 0.45454 0.05401 0.0
C2014 C 0.96395 0.44389 0.02654 0.0
C2015 C 0.94958 0.42727 0.02035 0.0
C2016 C 0.93249 0.42503 0.03046 0.0
C2017 C 0.93023 0.4387 0.04711 0.0
C2018 C 0.95366 0.41107 0.00498 0.0
C2019 C 0.95513 0.3929 0.00987 0.0
C2020 C 0.95839 0.41409 0.98645 0.0
C2021 C 0.95661 0.43287 0.98042 0.0
C2022 C 0.93921 0.44048 0.98261 0.0
C2023 C 0.93764 0.45822 0.97698 0.0
C2024 C 0.95335 0.46845 0.96903 0.0
C2025 C 0.97065 0.46094 0.96667 0.0
C2026 C 0.9723 0.44321 0.9723 0.0
C2027 C 0.96965 0.33097 0.94706 0.0
C2028 C 0.98711 0.33511 0.9379 0.0
C2029 C 0.96274 0.34592 0.95979 0.0
C2030 C 0.97337 0.36521 0.96396 0.0
C2031 C 0.99068 0.36945 0.95461 0.0
C2032 C 0.99746 0.35455 0.94164 0.0
C2033 C 0.96664 0.38081 0.97838 0.0
C2034 C 0.96479 0.39888 0.97336 0.0
C2035 C 0.96187 0.37786 0.99695 0.0
C2036 C 0.96486 0.35978 0.0037 0.0
C2037 C 0.98319 0.35404 0.00304 0.0
C2038 C 0.98588 0.33691 0.00929 0.0
C2039 C 0.97039 0.32549 0.01639 0.0
C2040 C 0.95219 0.33121 0.0173 0.0
C2041 C 0.94941 0.34832 0.01104 0.0
H2042 H 0.9725 0.31224 0.02122 0.0
H2043 H 0.95211 0.48218 0.96468 0.0
H2044 H 0.7309 0.78232 0.29355 0.0
H2045 H 0.69922 0.77237 0.30652 0.0
H2046 H 0.67543 0.81383 0.27972 0.0
H2047 H 0.70713 0.82381 0.26689 0.0
H2048 H 0.66889 0.81914 0.31752 0.0
H2049 H 0.6619 0.76428 0.26406 0.0
H2050 H 0.67143 0.73522 0.24302 0.0
H2051 H 0.67103 0.70566 0.2903 0.0
H2052 H 0.66175 0.73467 0.31169 0.0
H2053 H 0.57073 0.79673 0.33623 0.0
H2054 H 0.60161 0.80094 0.32082 0.0
H2055 H 0.62024 0.75685 0.34785 0.0
H2056 H 0.58894 0.75216 0.36308 0.0
H2057 H 0.63018 0.75189 0.31106 0.0
H2058 H 0.63705 0.80609 0.36449 0.0
H2059 H 0.62783 0.83504 0.38598 0.0
H2060 H 0.62932 0.86587 0.33954 0.0
H2061 H 0.63829 0.83699 0.31769 0.0
C2062 C 0.71871 0.78885 0.29005 0.0
C2063 C 0.72118 0.80362 0.27916 0.0
C2064 C 0.70067 0.7832 0.29745 0.0
C2065 C 0.68495 0.79234 0.29405 0.0
C2066 C 0.68736 0.80659 0.2825 0.0
C2067 C 0.70537 0.81219 0.27509 0.0
C2068 C 0.66655 0.78843 0.3039 0.0
C2069 C 0.66028 0.80448 0.31588 0.0
C2070 C 0.65573 0.76918 0.30235 0.0
C2071 C 0.66133 0.75173 0.28951 0.0
C2072 C 0.66401 0.75166 0.27001 0.0
C2073 C 0.66934 0.73517 0.25801 0.0
C2074 C 0.67189 0.71862 0.26533 0.0
C2075 C 0.66908 0.7185 0.28465 0.0
C2076 C 0.66377 0.73495 0.29672 0.0
C2077 C 0.58138 0.78794 0.33899 0.0
C2078 C 0.57743 0.77421 0.35101 0.0
C2079 C 0.59908 0.79041 0.33019 0.0
C2080 C 0.61337 0.77944 0.33341 0.0
C2081 C 0.60943 0.76552 0.34522 0.0
C2082 C 0.5916 0.76292 0.35397 0.0
C2083 C 0.63237 0.78268 0.3244 0.0
C2084 C 0.63882 0.76654 0.3127 0.0
C2085 C 0.64348 0.80185 0.32629 0.0
C2086 C 0.63819 0.8193 0.33942 0.0
C2087 C 0.63528 0.81899 0.35883 0.0
C2088 C 0.63012 0.83539 0.37108 0.0
C2089 C 0.62795 0.85226 0.36413 0.0
C2090 C 0.63099 0.85278 0.34491 0.0
C2091 C 0.63613 0.83641 0.33259 0.0
H2092 H 0.62395 0.86495 0.37364 0.0
H2093 H 0.67601 0.70588 0.25602 0.0
H2094 H 0.05237 0.14747 0.04007 0.0
H2095 H 0.03679 0.16549 0.01974 0.0
H2096 H 0.09265 0.19818 0.01063 0.0
H2097 H 0.10801 0.18051 0.03121 0.0
H2098 H 0.06682 0.22203 0.01531 0.0
H2099 H 0.07015 0.15759 0.97741 0.0
H2100 H 0.06428 0.12108 0.96991 0.0
H2101 H 0.00298 0.12046 0.97115 0.0
H2102 H 0.0085 0.15699 0.97892 0.0
H2103 H 0.04588 0.25575 0.93161 0.0
H2104 H 0.05901 0.2378 0.95339 0.0
H2105 H 0.00129 0.2099 0.96293 0.0
H2106 H 0.98805 0.22768 0.94112 0.0
H2107 H 0.0266 0.18371 0.95877 0.0
H2108 H 0.02362 0.24853 0.99541 0.0
H2109 H 0.0299 0.28504 0.00244 0.0
H2110 H 0.09109 0.28492 0.0031 0.0
H2111 H 0.08518 0.24838 0.9958 0.0
C2112 C 0.06116 0.15874 0.03391 0.0
C2113 C 0.08127 0.16279 0.03714 0.0
C2114 C 0.05234 0.1689 0.02221 0.0
C2115 C 0.06358 0.18302 0.01341 0.0
C2116 C 0.08366 0.18739 0.01723 0.0
C2117 C 0.09242 0.17732 0.02896 0.0
C2118 C 0.05469 0.19286 0.99978 0.0
C2119 C 0.05819 0.21363 0.00286 0.0
C2120 C 0.0431 0.18195 0.98369 0.0
C2121 C 0.03975 0.16001 0.97895 0.0
C2122 C 0.05543 0.14966 0.97623 0.0
C2123 C 0.05216 0.12897 0.9719 0.0
C2124 C 0.03327 0.11845 0.97011 0.0
C2125 C 0.0176 0.12862 0.97258 0.0
C2126 C 0.02079 0.14932 0.97693 0.0
C2127 C 0.03599 0.24565 0.93819 0.0
C2128 C 0.01591 0.24322 0.93469 0.0
C2129 C 0.04351 0.23548 0.95072 0.0
C2130 C 0.03111 0.22271 0.96 0.0
C2131 C 0.01112 0.21972 0.95599 0.0
C2132 C 0.00359 0.22993 0.94353 0.0
C2133 C 0.03891 0.21284 0.97423 0.0
C2134 C 0.03518 0.19209 0.97127 0.0
C2135 C 0.05036 0.22375 0.99039 0.0
C2136 C 0.05396 0.24572 0.99488 0.0
C2137 C 0.03842 0.25629 0.99691 0.0
C2138 C 0.04191 0.27699 0.00097 0.0
C2139 C 0.06088 0.28729 0.00317 0.0
C2140 C 0.07641 0.27691 0.00137 0.0
C2141 C 0.07299 0.25621 0.99729 0.0
H2142 H 0.06355 0.30332 0.00631 0.0
H2143 H 0.03077 0.10243 0.96676 0.0
H2144 H 0.31614 0.28202 0.24779 0.0
H2145 H 0.34652 0.28819 0.23151 0.0
H2146 H 0.37351 0.32455 0.28384 0.0
H2147 H 0.34333 0.31765 0.30031 0.0
H2148 H 0.37086 0.31701 0.22302 0.0
H2149 H 0.41912 0.31679 0.28887 0.0
H2150 H 0.41658 0.30388 0.31867 0.0
H2151 H 0.37091 0.25727 0.29275 0.0
H2152 H 0.3734 0.26971 0.26273 0.0
H2153 H 0.4681 0.33604 0.19536 0.0
H2154 H 0.43841 0.33788 0.21304 0.0
H2155 H 0.43824 0.27891 0.22296 0.0
H2156 H 0.4683 0.2774 0.20615 0.0
H2157 H 0.4276 0.29927 0.25307 0.0
H2158 H 0.40905 0.28981 0.18683 0.0
H2159 H 0.40977 0.29732 0.15452 0.0
H2160 H 0.39328 0.35373 0.17667 0.0
H2161 H 0.39269 0.34665 0.20917 0.0
C2162 C 0.32847 0.29165 0.25568 0.0
C2163 C 0.32753 0.29923 0.2753 0.0
C2164 C 0.34582 0.29518 0.24638 0.0
C2165 C 0.36244 0.30649 0.25654 0.0
C2166 C 0.36103 0.31537 0.27582 0.0
C2167 C 0.34379 0.31153 0.28519 0.0
C2168 C 0.38149 0.30757 0.2474 0.0
C2169 C 0.38331 0.31325 0.22964 0.0
C2170 C 0.39764 0.30219 0.25578 0.0
C2171 C 0.3963 0.29434 0.27365 0.0
C2172 C 0.4086 0.30374 0.28952 0.0
C2173 C 0.40716 0.29651 0.30644 0.0
C2174 C 0.39355 0.27981 0.30762 0.0
C2175 C 0.38141 0.27024 0.29184 0.0
C2176 C 0.38283 0.27738 0.27487 0.0
C2177 C 0.46179 0.32355 0.20147 0.0
C2178 C 0.47051 0.30655 0.19932 0.0
C2179 C 0.44475 0.32456 0.21147 0.0
C2180 C 0.43583 0.30839 0.21906 0.0
C2181 C 0.4448 0.2916 0.21728 0.0
C2182 C 0.46201 0.29074 0.20762 0.0
C2183 C 0.41702 0.30866 0.22861 0.0
C2184 C 0.41525 0.30325 0.2465 0.0
C2185 C 0.40072 0.3135 0.21996 0.0
C2186 C 0.40104 0.31779 0.20045 0.0
C2187 C 0.40571 0.30387 0.18483 0.0
C2188 C 0.40607 0.30804 0.16648 0.0
C2189 C 0.40163 0.32601 0.16355 0.0
C2190 C 0.39675 0.33983 0.17897 0.0
C2191 C 0.39639 0.33575 0.19735 0.0
H2192 H 0.40191 0.32921 0.14934 0.0
H2193 H 0.39243 0.27426 0.32075 0.0
H2194 H 0.52941 0.4403 0.02506 0.0
H2195 H 0.53504 0.4302 0.05517 0.0
H2196 H 0.58795 0.41125 0.03411 0.0
H2197 H 0.58197 0.42108 0.00366 0.0
H2198 H 0.56685 0.38331 0.04805 0.0
H2199 H 0.58891 0.45124 0.07204 0.0
H2200 H 0.58905 0.4872 0.07757 0.0
H2201 H 0.53624 0.48001 0.10758 0.0
H2202 H 0.5356 0.44396 0.102 0.0
H2203 H 0.56527 0.34846 0.13501 0.0
H2204 H 0.57888 0.3708 0.11406 0.0
H2205 H 0.52435 0.3914 0.11231 0.0
H2206 H 0.5107 0.3691 0.13295 0.0
H2207 H 0.55676 0.42155 0.11249 0.0
H2208 H 0.5316 0.35331 0.07986 0.0
H2209 H 0.53109 0.31723 0.07387 0.0
H2210 H 0.59103 0.32596 0.06005 0.0
H2211 H 0.59194 0.36214 0.06623 0.0
C2212 C 0.54241 0.43431 0.02707 0.0
C2213 C 0.55532 0.43145 0.0123 0.0
C2214 C 0.54571 0.42867 0.04429 0.0
C2215 C 0.5621 0.42024 0.04707 0.0
C2216 C 0.5753 0.41786 0.03235 0.0
C2217 C 0.57192 0.42347 0.01504 0.0
C2218 C 0.56408 0.41205 0.06451 0.0
C2219 C 0.56527 0.39187 0.06221 0.0
C2220 C 0.56187 0.42312 0.08301 0.0
C2221 C 0.56219 0.44484 0.08653 0.0
C2222 C 0.57725 0.4573 0.07972 0.0
C2223 C 0.57743 0.47771 0.08288 0.0
C2224 C 0.56265 0.48588 0.09291 0.0
C2225 C 0.54769 0.47366 0.09983 0.0
C2226 C 0.54743 0.45323 0.0967 0.0
C2227 C 0.55641 0.35819 0.1306 0.0
C2228 C 0.53689 0.35693 0.13541 0.0
C2229 C 0.56417 0.37089 0.11861 0.0
C2230 C 0.55254 0.3826 0.11152 0.0
C2231 C 0.53356 0.38252 0.11765 0.0
C2232 C 0.52575 0.36969 0.12936 0.0
C2233 C 0.55887 0.39284 0.09578 0.0
C2234 C 0.55912 0.4133 0.0984 0.0
C2235 C 0.5625 0.3821 0.07757 0.0
C2236 C 0.56191 0.36039 0.07375 0.0
C2237 C 0.5447 0.34753 0.07569 0.0
C2238 C 0.54433 0.32707 0.07224 0.0
C2239 C 0.56104 0.31931 0.06665 0.0
C2240 C 0.57812 0.33199 0.06443 0.0
C2241 C 0.57858 0.35247 0.06791 0.0
H2242 H 0.56072 0.30347 0.06397 0.0
H2243 H 0.56281 0.50169 0.09533 0.0
H2244 H 0.69509 0.25812 0.28766 0.0
H2245 H 0.66377 0.2624 0.27511 0.0
H2246 H 0.69218 0.31177 0.25196 0.0
H2247 H 0.72348 0.30754 0.26469 0.0
H2248 H 0.65688 0.31818 0.26705 0.0
H2249 H 0.6824 0.26734 0.22372 0.0
H2250 H 0.69575 0.23643 0.21464 0.0
H2251 H 0.64406 0.20353 0.23223 0.0
H2252 H 0.63051 0.23431 0.24167 0.0
H2253 H 0.58416 0.31653 0.19584 0.0
H2254 H 0.61424 0.31696 0.21356 0.0
H2255 H 0.5881 0.26461 0.23339 0.0
H2256 H 0.55827 0.26386 0.21548 0.0
H2257 H 0.62246 0.26044 0.22046 0.0
H2258 H 0.59632 0.3109 0.2631 0.0
H2259 H 0.58285 0.34171 0.27239 0.0
H2260 H 0.63506 0.37518 0.25645 0.0
H2261 H 0.64875 0.34453 0.24681 0.0
C2262 C 0.69449 0.27009 0.2802 0.0
C2263 C 0.71145 0.28254 0.27706 0.0
C2264 C 0.67669 0.27249 0.27299 0.0
C2265 C 0.6757 0.28725 0.26239 0.0
C2266 C 0.69263 0.3003 0.26009 0.0
C2267 C 0.71044 0.29788 0.26731 0.0
C2268 C 0.65731 0.28816 0.25259 0.0
C2269 C 0.64941 0.30565 0.25672 0.0
C2270 C 0.64745 0.27169 0.23934 0.0
C2271 C 0.65553 0.25315 0.23358 0.0
C2272 C 0.67395 0.25354 0.22579 0.0
C2273 C 0.68154 0.23604 0.22056 0.0
C2274 C 0.67078 0.21804 0.22291 0.0
C2275 C 0.65238 0.21749 0.23045 0.0
C2276 C 0.64474 0.23495 0.23573 0.0
C2277 C 0.58481 0.30519 0.20408 0.0
C2278 C 0.56886 0.29013 0.2042 0.0
C2279 C 0.60197 0.30551 0.21428 0.0
C2280 C 0.60339 0.29089 0.22493 0.0
C2281 C 0.58737 0.27602 0.22525 0.0
C2282 C 0.5703 0.27563 0.21501 0.0
C2283 C 0.62179 0.29041 0.23504 0.0
C2284 C 0.6298 0.27299 0.23086 0.0
C2285 C 0.63167 0.30693 0.24825 0.0
C2286 C 0.62348 0.32539 0.25405 0.0
C2287 C 0.60487 0.32481 0.26142 0.0
C2288 C 0.59721 0.34225 0.26678 0.0
C2289 C 0.60807 0.36039 0.26497 0.0
C2290 C 0.62665 0.36112 0.25783 0.0
C2291 C 0.63437 0.34372 0.25243 0.0
H2292 H 0.60211 0.37387 0.26913 0.0
H2293 H 0.67668 0.20451 0.21885 0.0
H2294 H 0.4606 0.15177 0.97349 0.0
H2295 H 0.4746 0.17925 0.99919 0.0
H2296 H 0.48845 0.13754 0.03215 0.0
H2297 H 0.47408 0.1101 0.00666 0.0
H2298 H 0.46929 0.16257 0.05262 0.0
H2299 H 0.52386 0.16848 0.01281 0.0
H2300 H 0.54089 0.17173 0.98317 0.0
H2301 H 0.52154 0.22701 0.98384 0.0
H2302 H 0.50416 0.22396 0.01334 0.0
H2303 H 0.51868 0.23261 0.12933 0.0
H2304 H 0.51266 0.20627 0.10085 0.0
H2305 H 0.49334 0.24666 0.06945 0.0
H2306 H 0.49947 0.2732 0.09783 0.0
H2307 H 0.51647 0.22257 0.04813 0.0
H2308 H 0.46069 0.21556 0.08681 0.0
H2309 H 0.44351 0.21228 0.11637 0.0
H2310 H 0.46536 0.15862 0.11746 0.0
H2311 H 0.48289 0.16173 0.08803 0.0
C2312 C 0.46707 0.14853 0.98603 0.0
C2313 C 0.46619 0.12887 0.98819 0.0
C2314 C 0.47508 0.16422 0.00071 0.0
C2315 C 0.48261 0.16046 0.01761 0.0
C2316 C 0.48264 0.14079 0.01929 0.0
C2317 C 0.47446 0.12515 0.00474 0.0
C2318 C 0.48871 0.17682 0.03426 0.0
C2319 C 0.4799 0.1755 0.05168 0.0
C2320 C 0.50209 0.194 0.03293 0.0
C2321 C 0.51256 0.1959 0.0152 0.0
C2322 C 0.5231 0.18125 0.00655 0.0
C2323 C 0.53284 0.18308 0.98979 0.0
C2324 C 0.53226 0.19954 0.9816 0.0
C2325 C 0.52196 0.21425 0.99019 0.0
C2326 C 0.51218 0.21249 0.00694 0.0
C2327 C 0.51324 0.23596 0.11636 0.0
C2328 C 0.50938 0.25498 0.11592 0.0
C2329 C 0.5098 0.22087 0.1001 0.0
C2330 C 0.50237 0.22449 0.08312 0.0
C2331 C 0.49907 0.24359 0.08243 0.0
C2332 C 0.50248 0.25869 0.0987 0.0
C2333 C 0.49719 0.20809 0.06638 0.0
C2334 C 0.50603 0.2095 0.049 0.0
C2335 C 0.48385 0.19093 0.06768 0.0
C2336 C 0.47326 0.18899 0.08534 0.0
C2337 C 0.46195 0.20315 0.09344 0.0
C2338 C 0.45213 0.20131 0.11015 0.0
C2339 C 0.45339 0.18528 0.11882 0.0
C2340 C 0.46442 0.17104 0.11075 0.0
C2341 C 0.4743 0.17283 0.09405 0.0
H2342 H 0.44577 0.18388 0.13175 0.0
H2343 H 0.53981 0.20093 0.96863 0.0
H2344 H 0.26364 0.35586 0.71337 0.0
H2345 H 0.2806 0.39004 0.72059 0.0
H2346 H 0.28475 0.38756 0.78021 0.0
H2347 H 0.26849 0.353 0.77306 0.0
H2348 H 0.2745 0.42479 0.77061 0.0
H2349 H 0.32148 0.38011 0.75825 0.0
H2350 H 0.33476 0.3524 0.73886 0.0
H2351 H 0.34131 0.38296 0.69214 0.0
H2352 H 0.32775 0.41073 0.71117 0.0
H2353 H 0.35079 0.5032 0.80604 0.0
H2354 H 0.32751 0.47265 0.79748 0.0
H2355 H 0.3414 0.46871 0.73817 0.0
H2356 H 0.36551 0.49886 0.74687 0.0
H2357 H 0.34074 0.43497 0.74603 0.0
H2358 H 0.2966 0.48046 0.75721 0.0
H2359 H 0.28194 0.50829 0.77446 0.0
H2360 H 0.26823 0.47746 0.8203 0.0
H2361 H 0.28305 0.44955 0.80344 0.0
C2362 C 0.26817 0.36252 0.72804 0.0
C2363 C 0.265 0.35152 0.74259 0.0
C2364 C 0.27769 0.38211 0.73214 0.0
C2365 C 0.28401 0.3912 0.75089 0.0
C2366 C 0.2799 0.38075 0.76565 0.0
C2367 C 0.27057 0.36102 0.76153 0.0
C2368 C 0.29632 0.41097 0.75476 0.0
C2369 C 0.28906 0.42709 0.76545 0.0
C2370 C 0.31501 0.41394 0.74739 0.0
C2371 C 0.32341 0.39738 0.73606 0.0
C2372 C 0.32559 0.38084 0.74379 0.0
C2373 C 0.3332 0.36514 0.73287 0.0
C2374 C 0.33882 0.36589 0.71426 0.0
C2375 C 0.33691 0.38238 0.70655 0.0
C2376 C 0.32928 0.39811 0.7174 0.0
C2377 C 0.34873 0.49597 0.79114 0.0
C2378 C 0.36 0.50343 0.77712 0.0
C2379 C 0.33529 0.47853 0.78622 0.0
C2380 C 0.33242 0.46844 0.76711 0.0
C2381 C 0.34333 0.47618 0.75302 0.0
C2382 C 0.35707 0.49344 0.75798 0.0
C2383 C 0.31909 0.44914 0.76208 0.0
C2384 C 0.32614 0.43294 0.75115 0.0
C2385 C 0.30008 0.44624 0.76894 0.0
C2386 C 0.29109 0.46297 0.77912 0.0
C2387 C 0.29059 0.47967 0.77103 0.0
C2388 C 0.28223 0.49545 0.78073 0.0
C2389 C 0.2742 0.49466 0.79848 0.0
C2390 C 0.27447 0.47806 0.80655 0.0
C2391 C 0.28283 0.46224 0.79692 0.0
H2392 H 0.26773 0.50689 0.80596 0.0
H2393 H 0.3447 0.35372 0.70583 0.0
H2394 H 0.26239 0.70138 0.7995 0.0
H2395 H 0.28408 0.67724 0.79907 0.0
H2396 H 0.32599 0.72203 0.83453 0.0
H2397 H 0.30391 0.74593 0.83562 0.0
H2398 H 0.31753 0.67355 0.78649 0.0
H2399 H 0.35184 0.70174 0.86283 0.0
H2400 H 0.34349 0.7193 0.8944 0.0
H2401 H 0.28311 0.69829 0.88035 0.0
H2402 H 0.29112 0.6804 0.84881 0.0
H2403 H 0.39175 0.61765 0.79398 0.0
H2404 H 0.37488 0.64591 0.79553 0.0
H2405 H 0.33736 0.625 0.83762 0.0
H2406 H 0.35462 0.59736 0.83674 0.0
H2407 H 0.3449 0.66262 0.84683 0.0
H2408 H 0.32408 0.61622 0.78847 0.0
H2409 H 0.32823 0.59511 0.75725 0.0
H2410 H 0.35412 0.64632 0.73602 0.0
H2411 H 0.35033 0.66771 0.76722 0.0
C2412 C 0.27626 0.70602 0.80716 0.0
C2413 C 0.28146 0.72542 0.8177 0.0
C2414 C 0.28866 0.69226 0.80688 0.0
C2415 C 0.3066 0.6977 0.81697 0.0
C2416 C 0.31206 0.71731 0.82701 0.0
C2417 C 0.29949 0.73097 0.82758 0.0
C2418 C 0.31937 0.68272 0.81715 0.0
C2419 C 0.32356 0.67122 0.7997 0.0
C2420 C 0.32706 0.67942 0.83437 0.0
C2421 C 0.32209 0.68993 0.85339 0.0
C2422 C 0.33679 0.70082 0.86651 0.0
C2423 C 0.33211 0.71084 0.88439 0.0
C2424 C 0.31278 0.70997 0.88935 0.0
C2425 C 0.29808 0.69901 0.87646 0.0
C2426 C 0.30268 0.68895 0.85858 0.0
C2427 C 0.38004 0.61924 0.80371 0.0
C2428 C 0.37445 0.60523 0.81516 0.0
C2429 C 0.37034 0.63533 0.80451 0.0
C2430 C 0.35459 0.63743 0.81645 0.0
C2431 C 0.34944 0.62377 0.82831 0.0
C2432 C 0.35931 0.6079 0.82774 0.0
C2433 C 0.34292 0.65332 0.81618 0.0
C2434 C 0.33901 0.66506 0.83361 0.0
C2435 C 0.33488 0.65633 0.799 0.0
C2436 C 0.33713 0.64353 0.78023 0.0
C2437 C 0.33078 0.62295 0.77718 0.0
C2438 C 0.33305 0.61094 0.75949 0.0
C2439 C 0.34148 0.61936 0.74468 0.0
C2440 C 0.34762 0.63982 0.74751 0.0
C2441 C 0.34541 0.65189 0.76519 0.0
H2442 H 0.34323 0.61004 0.73099 0.0
H2443 H 0.30919 0.71775 0.90319 0.0
H2444 H 0.9293 0.5557 0.50514 0.0
H2445 H 0.90237 0.5352 0.5173 0.0
H2446 H 0.86331 0.54743 0.47616 0.0
H2447 H 0.89018 0.56818 0.46406 0.0
H2448 H 0.84873 0.55057 0.51284 0.0
H2449 H 0.87825 0.50456 0.46758 0.0
H2450 H 0.90529 0.48875 0.4536 0.0
H2451 H 0.91517 0.47042 0.50619 0.0
H2452 H 0.88834 0.48637 0.52057 0.0
H2453 H 0.76917 0.47435 0.51471 0.0
H2454 H 0.79624 0.49729 0.50618 0.0
H2455 H 0.83447 0.47838 0.5436 0.0
H2456 H 0.8075 0.45498 0.5519 0.0
H2457 H 0.85011 0.47934 0.51019 0.0
H2458 H 0.82001 0.52392 0.55535 0.0
H2459 H 0.7931 0.53968 0.56971 0.0
H2460 H 0.78457 0.56096 0.51846 0.0
H2461 H 0.81126 0.54509 0.50367 0.0
C2462 C 0.91495 0.55413 0.49879 0.0
C2463 C 0.91182 0.56347 0.48362 0.0
C2464 C 0.89962 0.54235 0.50567 0.0
C2465 C 0.88092 0.53973 0.49753 0.0
C2466 C 0.87767 0.54928 0.4826 0.0
C2467 C 0.89302 0.56097 0.47561 0.0
C2468 C 0.86479 0.52673 0.50439 0.0
C2469 C 0.84888 0.53494 0.51209 0.0
C2470 C 0.86533 0.5065 0.50386 0.0
C2471 C 0.88142 0.49684 0.49521 0.0
C2472 C 0.88629 0.4973 0.47621 0.0
C2473 C 0.90156 0.48829 0.46821 0.0
C2474 C 0.91197 0.47863 0.47902 0.0
C2475 C 0.90711 0.47793 0.49785 0.0
C2476 C 0.89186 0.48694 0.50593 0.0
C2477 C 0.78328 0.47515 0.52126 0.0
C2478 C 0.78616 0.46281 0.53398 0.0
C2479 C 0.79875 0.48836 0.51644 0.0
C2480 C 0.81735 0.48971 0.52442 0.0
C2481 C 0.82024 0.47758 0.53729 0.0
C2482 C 0.80479 0.46426 0.54204 0.0
C2483 C 0.83391 0.50312 0.51865 0.0
C2484 C 0.84994 0.49499 0.5111 0.0
C2485 C 0.8335 0.52344 0.51943 0.0
C2486 C 0.81754 0.53316 0.52834 0.0
C2487 C 0.81231 0.53184 0.54708 0.0
C2488 C 0.7971 0.54081 0.55531 0.0
C2489 C 0.7871 0.55127 0.54499 0.0
C2490 C 0.79232 0.55284 0.52643 0.0
C2491 C 0.8075 0.54387 0.51812 0.0
H2492 H 0.77532 0.55819 0.55138 0.0
H2493 H 0.92378 0.47166 0.4728 0.0
H2494 H 0.72907 0.81386 0.7517 0.0
H2495 H 0.71367 0.84246 0.74925 0.0
H2496 H 0.74235 0.87462 0.80245 0.0
H2497 H 0.75758 0.84597 0.8049 0.0
H2498 H 0.70391 0.87517 0.8024 0.0
H2499 H 0.75601 0.88696 0.76017 0.0
H2500 H 0.77614 0.87836 0.73254 0.0
H2501 H 0.72633 0.86838 0.69459 0.0
H2502 H 0.70585 0.87667 0.72203 0.0
H2503 H 0.68578 0.97142 0.80547 0.0
H2504 H 0.70058 0.94198 0.80361 0.0
H2505 H 0.67004 0.91574 0.7498 0.0
H2506 H 0.65531 0.94549 0.75139 0.0
H2507 H 0.70744 0.9106 0.74852 0.0
H2508 H 0.65548 0.89979 0.79014 0.0
H2509 H 0.63493 0.90801 0.8175 0.0
H2510 H 0.68368 0.91529 0.85626 0.0
H2511 H 0.7046 0.90738 0.8291 0.0
C2512 C 0.73232 0.82723 0.76261 0.0
C2513 C 0.74452 0.82799 0.77839 0.0
C2514 C 0.72356 0.84352 0.76123 0.0
C2515 C 0.72692 0.86071 0.77565 0.0
C2516 C 0.73956 0.86152 0.79118 0.0
C2517 C 0.74832 0.84526 0.79253 0.0
C2518 C 0.71637 0.87737 0.77525 0.0
C2519 C 0.70488 0.88308 0.79073 0.0
C2520 C 0.71706 0.88719 0.75968 0.0
C2521 C 0.72936 0.88223 0.74317 0.0
C2522 C 0.74932 0.88276 0.74595 0.0
C2523 C 0.7608 0.87798 0.73032 0.0
C2524 C 0.75251 0.87277 0.71183 0.0
C2525 C 0.73273 0.87239 0.70892 0.0
C2526 C 0.72118 0.87714 0.72451 0.0
C2527 C 0.68209 0.95938 0.79325 0.0
C2528 C 0.66927 0.96077 0.77861 0.0
C2529 C 0.69055 0.9425 0.79225 0.0
C2530 C 0.68624 0.92654 0.77669 0.0
C2531 C 0.67352 0.92787 0.76197 0.0
C2532 C 0.66506 0.94483 0.76294 0.0
C2533 C 0.69529 0.90863 0.77586 0.0
C2534 C 0.70641 0.90263 0.76015 0.0
C2535 C 0.6942 0.89843 0.79117 0.0
C2536 C 0.68165 0.90314 0.80756 0.0
C2537 C 0.66186 0.90329 0.80449 0.0
C2538 C 0.65013 0.90787 0.81996 0.0
C2539 C 0.658 0.91221 0.8386 0.0
C2540 C 0.67761 0.91194 0.84181 0.0
C2541 C 0.6894 0.90738 0.82638 0.0
H2542 H 0.6489 0.91575 0.85057 0.0
H2543 H 0.76142 0.86908 0.69974 0.0
H2544 H 0.59305 0.50003 0.99556 0.0
H2545 H 0.62345 0.52368 0.00254 0.0
H2546 H 0.64194 0.50318 0.94567 0.0
H2547 H 0.61135 0.47989 0.93848 0.0
H2548 H 0.67211 0.51261 0.97963 0.0
H2549 H 0.62348 0.53853 0.94715 0.0
H2550 H 0.59064 0.54602 0.94378 0.0
H2551 H 0.59685 0.58278 0.99994 0.0
H2552 H 0.62961 0.57517 0.00376 0.0
H2553 H 0.7425 0.59234 0.96459 0.0
H2554 H 0.71532 0.56501 0.96153 0.0
H2555 H 0.68769 0.59828 0.00792 0.0
H2556 H 0.71452 0.6259 0.01067 0.0
H2557 H 0.66213 0.58157 0.98107 0.0
H2558 H 0.71051 0.5592 0.01388 0.0
H2559 H 0.74274 0.55154 0.01996 0.0
H2560 H 0.73715 0.50857 0.96738 0.0
H2561 H 0.70493 0.51614 0.96086 0.0
C2562 C 0.60385 0.50026 0.98476 0.0
C2563 C 0.59999 0.48827 0.9665 0.0
C2564 C 0.62113 0.51373 0.98874 0.0
C2565 C 0.63482 0.5151 0.97459 0.0
C2566 C 0.63155 0.50219 0.95677 0.0
C2567 C 0.61411 0.489 0.95266 0.0
C2568 C 0.65132 0.5316 0.97753 0.0
C2569 C 0.67006 0.52769 0.97979 0.0
C2570 C 0.64842 0.55125 0.97825 0.0
C2571 C 0.62888 0.5561 0.97582 0.0
C2572 C 0.61777 0.54805 0.95884 0.0
C2573 C 0.59918 0.55234 0.95684 0.0
C2574 C 0.59164 0.56483 0.97166 0.0
C2575 C 0.6027 0.57309 0.98849 0.0
C2576 C 0.62127 0.56879 0.99058 0.0
C2577 C 0.73062 0.59386 0.97411 0.0
C2578 C 0.73068 0.61129 0.98788 0.0
C2579 C 0.71514 0.57816 0.97244 0.0
C2580 C 0.6996 0.57944 0.98471 0.0
C2581 C 0.69953 0.59693 0.99831 0.0
C2582 C 0.71489 0.61271 0.99986 0.0
C2583 C 0.68321 0.56274 0.9831 0.0
C2584 C 0.66437 0.56657 0.98104 0.0
C2585 C 0.68605 0.54309 0.98292 0.0
C2586 C 0.70538 0.53838 0.9868 0.0
C2587 C 0.71621 0.54822 0.00354 0.0
C2588 C 0.73447 0.54388 0.00708 0.0
C2589 C 0.74203 0.52963 0.99404 0.0
C2590 C 0.73129 0.51963 0.97746 0.0
C2591 C 0.71301 0.52392 0.97384 0.0
H2592 H 0.75618 0.52631 0.9968 0.0
H2593 H 0.57725 0.56814 0.97008 0.0
H2594 H 0.25531 0.7067 0.25019 0.0
H2595 H 0.23801 0.67518 0.25603 0.0
H2596 H 0.28679 0.64706 0.23675 0.0
H2597 H 0.30435 0.67875 0.23153 0.0
H2598 H 0.2254 0.64115 0.23504 0.0
H2599 H 0.29074 0.61056 0.26052 0.0
H2600 H 0.32293 0.62325 0.27633 0.0
H2601 H 0.30372 0.67706 0.30294 0.0
H2602 H 0.27135 0.66458 0.28751 0.0
H2603 H 0.19037 0.54325 0.24022 0.0
H2604 H 0.21253 0.5715 0.2331 0.0
H2605 H 0.22417 0.59434 0.29342 0.0
H2606 H 0.20263 0.56563 0.30059 0.0
H2607 H 0.25553 0.60294 0.27506 0.0
H2608 H 0.18905 0.60955 0.26825 0.0
H2609 H 0.15524 0.59934 0.25598 0.0
H2610 H 0.17389 0.59826 0.19866 0.0
H2611 H 0.20785 0.6082 0.21058 0.0
C2612 C 0.26224 0.69373 0.24708 0.0
C2613 C 0.28115 0.6951 0.24051 0.0
C2614 C 0.25238 0.67575 0.25043 0.0
C2615 C 0.26121 0.65881 0.2471 0.0
C2616 C 0.27986 0.66003 0.23985 0.0
C2617 C 0.28984 0.67807 0.23679 0.0
C2618 C 0.25089 0.63996 0.25139 0.0
C2619 C 0.23204 0.63279 0.24375 0.0
C2620 C 0.25938 0.62921 0.26305 0.0
C2621 C 0.27869 0.6367 0.27269 0.0
C2622 C 0.29337 0.62506 0.26982 0.0
C2623 C 0.31164 0.63222 0.2787 0.0
C2624 C 0.31539 0.65097 0.29058 0.0
C2625 C 0.30082 0.66257 0.29368 0.0
C2626 C 0.28251 0.65546 0.28486 0.0
C2627 C 0.19796 0.5541 0.25194 0.0
C2628 C 0.19462 0.55241 0.27096 0.0
C2629 C 0.21055 0.57027 0.24786 0.0
C2630 C 0.21958 0.58531 0.26274 0.0
C2631 C 0.21727 0.58297 0.28171 0.0
C2632 C 0.20495 0.56657 0.2858 0.0
C2633 C 0.23013 0.60412 0.2586 0.0
C2634 C 0.24899 0.61126 0.26625 0.0
C2635 C 0.22142 0.61525 0.24749 0.0
C2636 C 0.201 0.60942 0.24029 0.0
C2637 C 0.18595 0.60701 0.25302 0.0
C2638 C 0.16676 0.60129 0.24613 0.0
C2639 C 0.16243 0.59811 0.22655 0.0
C2640 C 0.17727 0.6007 0.21382 0.0
C2641 C 0.19649 0.60639 0.22063 0.0
H2642 H 0.14756 0.59367 0.22124 0.0
H2643 H 0.32956 0.6565 0.29741 0.0
H2644 H 0.90692 0.50766 0.05695 0.0
H2645 H 0.89222 0.52967 0.04046 0.0
H2646 H 0.86821 0.55491 0.09341 0.0
H2647 H 0.88261 0.5327 0.1097 0.0
H2648 H 0.84217 0.54816 0.06458 0.0
H2649 H 0.90901 0.57896 0.07607 0.0
H2650 H 0.94431 0.58031 0.07437 0.0
H2651 H 0.9394 0.56763 0.0131 0.0
H2652 H 0.90402 0.56593 0.01443 0.0
H2653 H 0.81744 0.63401 0.04042 0.0
H2654 H 0.83489 0.61338 0.05579 0.0
H2655 H 0.85405 0.58666 0.00099 0.0
H2656 H 0.83667 0.60722 0.98549 0.0
H2657 H 0.88268 0.59384 0.02981 0.0
H2658 H 0.81628 0.5629 0.01806 0.0
H2659 H 0.78095 0.56138 0.01928 0.0
H2660 H 0.78503 0.57392 0.08059 0.0
H2661 H 0.82046 0.5758 0.07972 0.0
C2662 C 0.89835 0.51784 0.06492 0.0
C2663 C 0.89573 0.51862 0.08446 0.0
C2664 C 0.89009 0.53046 0.05558 0.0
C2665 C 0.87931 0.54411 0.06577 0.0
C2666 C 0.87646 0.54452 0.08528 0.0
C2667 C 0.88467 0.53189 0.09456 0.0
C2668 C 0.87103 0.55809 0.05624 0.0
C2669 C 0.85109 0.55831 0.05719 0.0
C2670 C 0.88258 0.57101 0.04618 0.0
C2671 C 0.90385 0.57212 0.04535 0.0
C2672 C 0.91544 0.57631 0.06223 0.0
C2673 C 0.93546 0.57716 0.06134 0.0
C2674 C 0.94408 0.574 0.04364 0.0
C2675 C 0.9327 0.57004 0.02679 0.0
C2676 C 0.91266 0.56915 0.02761 0.0
C2677 C 0.82566 0.62402 0.03167 0.0
C2678 C 0.82555 0.62213 0.01172 0.0
C2679 C 0.83554 0.61217 0.04047 0.0
C2680 C 0.84551 0.5983 0.02947 0.0
C2681 C 0.84639 0.59723 0.00971 0.0
C2682 C 0.83641 0.60897 0.00089 0.0
C2683 C 0.85392 0.58403 0.0384 0.0
C2684 C 0.87383 0.5837 0.03725 0.0
C2685 C 0.84235 0.57095 0.04824 0.0
C2686 C 0.82104 0.5697 0.04882 0.0
C2687 C 0.80966 0.56549 0.0318 0.0
C2688 C 0.78961 0.56453 0.03243 0.0
C2689 C 0.78075 0.5676 0.05 0.0
C2690 C 0.79192 0.57158 0.06698 0.0
C2691 C 0.81198 0.57258 0.06643 0.0
H2692 H 0.76523 0.56687 0.05047 0.0
H2693 H 0.95959 0.57467 0.04297 0.0
H2694 H 0.1163 0.08462 0.10966 0.0
H2695 H 0.13395 0.05697 0.1088 0.0
H2696 H 0.13304 0.04688 0.04726 0.0
H2697 H 0.11516 0.0742 0.048 0.0
H2698 H 0.12293 0.01245 0.06047 0.0
H2699 H 0.1733 0.07043 0.07318 0.0
H2700 H 0.18933 0.10283 0.09148 0.0
H2701 H 0.19388 0.07753 0.14105 0.0
H2702 H 0.17763 0.04502 0.12308 0.0
H2703 H 0.19763 0.96133 0.02783 0.0
H2704 H 0.17534 0.98447 0.037 0.0
H2705 H 0.18637 0.98464 0.09645 0.0
H2706 H 0.20906 0.96138 0.08729 0.0
H2707 H 0.18887 0.022 0.08986 0.0
H2708 H 0.14281 0.96293 0.07592 0.0
H2709 H 0.12702 0.93042 0.05772 0.0
H2710 H 0.114 0.95718 0.01114 0.0
H2711 H 0.12996 0.98983 0.02894 0.0
C2712 C 0.11981 0.07644 0.09595 0.0
C2713 C 0.1144 0.08162 0.07888 0.0
C2714 C 0.12997 0.06073 0.0955 0.0
C2715 C 0.13487 0.04993 0.07797 0.0
C2716 C 0.12939 0.05502 0.06094 0.0
C2717 C 0.11934 0.07075 0.06139 0.0
C2718 C 0.14572 0.03329 0.07717 0.0
C2719 C 0.13739 0.01453 0.06681 0.0
C2720 C 0.16426 0.03585 0.08609 0.0
C2721 C 0.17404 0.05537 0.09686 0.0
C2722 C 0.17756 0.07182 0.08803 0.0
C2723 C 0.18672 0.09019 0.09833 0.0
C2724 C 0.19256 0.09225 0.11743 0.0
C2725 C 0.1893 0.07592 0.12626 0.0
C2726 C 0.18013 0.05753 0.11603 0.0
C2727 C 0.19519 0.96607 0.04287 0.0
C2728 C 0.20513 0.95951 0.05684 0.0
C2729 C 0.18234 0.97925 0.04809 0.0
C2730 C 0.17902 0.98615 0.0674 0.0
C2731 C 0.18866 0.97943 0.08145 0.0
C2732 C 0.20154 0.96608 0.0762 0.0
C2733 C 0.16633 0.00128 0.07262 0.0
C2734 C 0.17427 0.01976 0.08382 0.0
C2735 C 0.14737 0.99845 0.06454 0.0
C2736 C 0.13769 0.97884 0.05375 0.0
C2737 C 0.1367 0.96188 0.06174 0.0
C2738 C 0.1277 0.94342 0.0515 0.0
C2739 C 0.11954 0.94173 0.03328 0.0
C2740 C 0.12033 0.95851 0.02526 0.0
C2741 C 0.12932 0.97701 0.03544 0.0
H2742 H 0.11257 0.92743 0.02537 0.0
H2743 H 0.19965 0.10648 0.12538 0.0
loop_
_geom_bond_atom_site_label_1
_geom_bond_atom_site_label_2
_geom_bond_distance
_geom_bond_site_symmetry_2
_ccdc_geom_bond_type
H0 C3 0.929 . S
H1 C6 0.929 . S
H2 C8 0.930 . S
C3 H0 0.929 . S
C3 C4 1.398 . S
C3 C5 1.396 . S
C4 C3 1.398 . S
C4 C8 1.407 . S
C5 C3 1.396 . S
C5 C6 1.394 . S
C6 H1 0.929 . S
C6 C5 1.394 . S
C6 C7 1.382 . S
C7 C6 1.382 . S
C7 C8 1.392 . S
C7 N9 1.420 . S
C8 H2 0.930 . S
C8 C4 1.407 . S
C8 C7 1.392 . S
N9 C7 1.420 . S
N9 C10 1.244 . S
C10 N9 1.244 . S
H11 C14 0.929 . S
H12 C17 0.929 . S
H13 C19 0.930 . S
C14 H11 0.929 . S
C14 C15 1.398 . S
C14 C16 1.396 . S
C15 C14 1.398 . S
C15 C19 1.407 . S
C16 C14 1.396 . S
C16 C17 1.394 . S
C17 H12 0.929 . S
C17 C16 1.394 . S
C17 C18 1.382 . S
C18 C17 1.382 . S
C18 C19 1.392 . S
C18 N20 1.420 . S
C19 H13 0.930 . S
C19 C15 1.407 . S
C19 C18 1.392 . S
N20 C18 1.420 . S
N20 C21 1.244 . S
C21 N20 1.244 . S
H22 C25 0.929 . S
H23 C28 0.929 . S
H24 C30 0.930 . S
C25 H22 0.929 . S
C25 C26 1.398 . S
C25 C27 1.396 . S
C26 C25 1.398 . S
C26 C30 1.407 . S
C27 C25 1.396 . S
C27 C28 1.394 . S
C28 H23 0.929 . S
C28 C27 1.394 . S
C28 C29 1.382 . S
C29 C28 1.382 . S
C29 C30 1.392 . S
C29 N31 1.420 . S
C30 H24 0.930 . S
C30 C26 1.407 . S
C30 C29 1.392 . S
N31 C29 1.420 . S
N31 C32 1.244 . S
C32 N31 1.244 . S
H33 C36 0.929 . S
H34 C39 0.929 . S
H35 C41 0.930 . S
C36 H33 0.929 . S
C36 C37 1.398 . S
C36 C38 1.396 . S
C37 C36 1.398 . S
C37 C41 1.407 . S
C38 C36 1.396 . S
C38 C39 1.394 . S
C39 H34 0.929 . S
C39 C38 1.394 . S
C39 C40 1.382 . S
C40 C39 1.382 . S
C40 C41 1.392 . S
C40 N42 1.420 . S
C41 H35 0.930 . S
C41 C37 1.407 . S
C41 C40 1.392 . S
N42 C40 1.420 . S
N42 C43 1.244 . S
C43 N42 1.244 . S
H44 C47 0.929 . S
H45 C50 0.929 . S
H46 C52 0.930 . S
C47 H44 0.929 . S
C47 C48 1.398 . S
C47 C49 1.396 . S
C48 C47 1.398 . S
C48 C52 1.407 . S
C49 C47 1.396 . S
C49 C50 1.394 . S
C50 H45 0.929 . S
C50 C49 1.394 . S
C50 C51 1.382 . S
C51 C50 1.382 . S
C51 C52 1.392 . S
C51 N53 1.420 . S
C52 H46 0.930 . S
C52 C48 1.407 . S
C52 C51 1.392 . S
N53 C51 1.420 . S
N53 C54 1.244 . S
C54 N53 1.244 . S
H55 C58 0.929 . S
H56 C61 0.929 . S
H57 C63 0.930 . S
C58 H55 0.929 . S
C58 C59 1.398 . S
C58 C60 1.396 . S
C59 C58 1.398 . S
C59 C63 1.407 . S
C60 C58 1.396 . S
C60 C61 1.394 . S
C61 H56 0.929 . S
C61 C60 1.394 . S
C61 C62 1.382 . S
C62 C61 1.382 . S
C62 C63 1.392 . S
C62 N64 1.420 . S
C63 H57 0.930 . S
C63 C59 1.407 . S
C63 C62 1.392 . S
N64 C62 1.420 . S
N64 C65 1.244 . S
C65 N64 1.244 . S
H66 C69 0.929 . S
H67 C72 0.929 . S
H68 C74 0.930 . S
C69 H66 0.929 . S
C69 C70 1.398 . S
C69 C71 1.396 . S
C70 C69 1.398 . S
C70 C74 1.407 . S
C71 C69 1.396 . S
C71 C72 1.394 . S
C72 H67 0.929 . S
C72 C71 1.394 . S
C72 C73 1.382 . S
C73 C72 1.382 . S
C73 C74 1.392 . S
C73 N75 1.420 . S
C74 H68 0.930 . S
C74 C70 1.407 . S
C74 C73 1.392 . S
N75 C73 1.420 . S
N75 C76 1.244 . S
C76 N75 1.244 . S
H77 C80 0.929 . S
H78 C83 0.929 . S
H79 C85 0.930 . S
C80 H77 0.929 . S
C80 C81 1.398 . S
C80 C82 1.396 . S
C81 C80 1.398 . S
C81 C85 1.407 . S
C82 C80 1.396 . S
C82 C83 1.394 . S
C83 H78 0.929 . S
C83 C82 1.394 . S
C83 C84 1.382 . S
C84 C83 1.382 . S
C84 C85 1.392 . S
C84 N86 1.420 . S
C85 H79 0.930 . S
C85 C81 1.407 . S
C85 C84 1.392 . S
N86 C84 1.420 . S
N86 C87 1.244 . S
C87 N86 1.244 . S
H88 C91 0.929 . S
H89 C94 0.929 . S
H90 C96 0.930 . S
C91 H88 0.929 . S
C91 C92 1.398 . S
C91 C93 1.396 . S
C92 C91 1.398 . S
C92 C96 1.407 . S
C93 C91 1.396 . S
C93 C94 1.394 . S
C94 H89 0.929 . S
C94 C93 1.394 . S
C94 C95 1.382 . S
C95 C94 1.382 . S
C95 C96 1.392 . S
C95 N97 1.420 . S
C96 H90 0.930 . S
C96 C92 1.407 . S
C96 C95 1.392 . S
N97 C95 1.420 . S
N97 C98 1.244 . S
C98 N97 1.244 . S
H99 C102 0.929 . S
H100 C105 0.929 . S
H101 C107 0.930 . S
C102 H99 0.929 . S
C102 C103 1.398 . S
C102 C104 1.396 . S
C103 C102 1.398 . S
C103 C107 1.407 . S
C104 C102 1.396 . S
C104 C105 1.394 . S
C105 H100 0.929 . S
C105 C104 1.394 . S
C105 C106 1.382 . S
C106 C105 1.382 . S
C106 C107 1.392 . S
C106 N108 1.420 . S
C107 H101 0.930 . S
C107 C103 1.407 . S
C107 C106 1.392 . S
N108 C106 1.420 . S
N108 C109 1.244 . S
C109 N108 1.244 . S
H110 C113 0.929 . S
H111 C116 0.929 . S
H112 C118 0.930 . S
C113 H110 0.929 . S
C113 C114 1.398 . S
C113 C115 1.396 . S
C114 C113 1.398 . S
C114 C118 1.407 . S
C115 C113 1.396 . S
C115 C116 1.394 . S
C116 H111 0.929 . S
C116 C115 1.394 . S
C116 C117 1.382 . S
C117 C116 1.382 . S
C117 C118 1.392 . S
C117 N119 1.420 . S
C118 H112 0.930 . S
C118 C114 1.407 . S
C118 C117 1.392 . S
N119 C117 1.420 . S
N119 C120 1.244 . S
C120 N119 1.244 . S
H121 C124 0.929 . S
H122 C127 0.929 . S
H123 C129 0.930 . S
C124 H121 0.929 . S
C124 C125 1.398 . S
C124 C126 1.396 . S
C125 C124 1.398 . S
C125 C129 1.407 . S
C126 C124 1.396 . S
C126 C127 1.394 . S
C127 H122 0.929 . S
C127 C126 1.394 . S
C127 C128 1.382 . S
C128 C127 1.382 . S
C128 C129 1.392 . S
C128 N130 1.420 . S
C129 H123 0.930 . S
C129 C125 1.407 . S
C129 C128 1.392 . S
N130 C128 1.420 . S
N130 C131 1.244 . S
C131 N130 1.244 . S
H132 C135 0.929 . S
H133 C138 0.929 . S
H134 C140 0.930 . S
C135 H132 0.929 . S
C135 C136 1.398 . S
C135 C137 1.396 . S
C136 C135 1.398 . S
C136 C140 1.407 . S
C137 C135 1.396 . S
C137 C138 1.394 . S
C138 H133 0.929 . S
C138 C137 1.394 . S
C138 C139 1.382 . S
C139 C138 1.382 . S
C139 C140 1.392 . S
C139 N141 1.420 . S
C140 H134 0.930 . S
C140 C136 1.407 . S
C140 C139 1.392 . S
N141 C139 1.420 . S
N141 C142 1.244 . S
C142 N141 1.244 . S
H143 C146 0.929 . S
H144 C149 0.929 . S
H145 C151 0.930 . S
C146 H143 0.929 . S
C146 C147 1.398 . S
C146 C148 1.396 . S
C147 C146 1.398 . S
C147 C151 1.407 . S
C148 C146 1.396 . S
C148 C149 1.394 . S
C149 H144 0.929 . S
C149 C148 1.394 . S
C149 C150 1.382 . S
C150 C149 1.382 . S
C150 C151 1.392 . S
C150 N152 1.420 . S
C151 H145 0.930 . S
C151 C147 1.407 . S
C151 C150 1.392 . S
N152 C150 1.420 . S
N152 C153 1.244 . S
C153 N152 1.244 . S
H154 C157 0.929 . S
H155 C160 0.929 . S
H156 C162 0.930 . S
C157 H154 0.929 . S
C157 C158 1.398 . S
C157 C159 1.396 . S
C158 C157 1.398 . S
C158 C162 1.407 . S
C159 C157 1.396 . S
C159 C160 1.394 . S
C160 H155 0.929 . S
C160 C159 1.394 . S
C160 C161 1.382 . S
C161 C160 1.382 . S
C161 C162 1.392 . S
C161 N163 1.420 . S
C162 H156 0.930 . S
C162 C158 1.407 . S
C162 C161 1.392 . S
N163 C161 1.420 . S
N163 C164 1.244 . S
C164 N163 1.244 . S
H165 C168 0.929 . S
H166 C171 0.929 . S
H167 C173 0.930 . S
C168 H165 0.929 . S
C168 C169 1.398 . S
C168 C170 1.396 . S
C169 C168 1.398 . S
C169 C173 1.407 . S
C170 C168 1.396 . S
C170 C171 1.394 . S
C171 H166 0.929 . S
C171 C170 1.394 . S
C171 C172 1.382 . S
C172 C171 1.382 . S
C172 C173 1.392 . S
C172 N174 1.420 . S
C173 H167 0.930 . S
C173 C169 1.407 . S
C173 C172 1.392 . S
N174 C172 1.420 . S
N174 C175 1.244 . S
C175 N174 1.244 . S
O176 Cd177 2.223 . S
O176 C184 1.315 . S
Cd177 O176 2.223 . S
Cd177 O180 2.297 . S
Cd177 O181 2.439 . S
Cd177 O187 2.240 . S
Cd178 O179 2.240 . S
Cd178 O186 2.223 . S
Cd178 O188 2.297 . S
Cd178 O189 2.439 . S
O179 Cd178 2.240 . S
O179 C184 1.279 . S
O180 Cd177 2.297 . S
O180 C182 1.247 . S
O181 Cd177 2.439 . S
O181 C182 1.208 . S
C182 O180 1.247 . S
C182 O181 1.208 . S
C183 O188 1.247 . S
C183 O189 1.208 . S
C184 O176 1.315 . S
C184 O179 1.279 . S
C185 O186 1.315 . S
C185 O187 1.279 . S
O186 Cd178 2.223 . S
O186 C185 1.315 . S
O187 Cd177 2.240 . S
O187 C185 1.279 . S
O188 Cd178 2.297 . S
O188 C183 1.247 . S
O189 Cd178 2.439 . S
O189 C183 1.208 . S
O190 Cd191 2.223 . S
O190 C198 1.315 . S
Cd191 O190 2.223 . S
Cd191 O194 2.297 . S
Cd191 O195 2.439 . S
Cd191 O201 2.240 . S
Cd192 O193 2.240 . S
Cd192 O200 2.223 . S
Cd192 O202 2.297 . S
Cd192 O203 2.439 . S
O193 Cd192 2.240 . S
O193 C198 1.279 . S
O194 Cd191 2.297 . S
O194 C196 1.247 . S
O195 Cd191 2.439 . S
O195 C196 1.208 . S
C196 O194 1.247 . S
C196 O195 1.208 . S
C197 O202 1.247 . S
C197 O203 1.208 . S
C198 O190 1.315 . S
C198 O193 1.279 . S
C199 O200 1.315 . S
C199 O201 1.279 . S
O200 Cd192 2.223 . S
O200 C199 1.315 . S
O201 Cd191 2.240 . S
O201 C199 1.279 . S
O202 Cd192 2.297 . S
O202 C197 1.247 . S
O203 Cd192 2.439 . S
O203 C197 1.208 . S
O204 Cd205 2.223 1_556 S
O204 C212 1.315 . S
Cd205 O204 2.223 1_554 S
Cd205 O208 2.297 . S
Cd205 O209 2.439 . S
Cd205 O215 2.240 1_554 S
Cd206 O207 2.240 . S
Cd206 O214 2.223 . S
Cd206 O216 2.297 . S
Cd206 O217 2.439 1_556 S
O207 Cd206 2.240 . S
O207 C212 1.279 . S
O208 Cd205 2.297 . S
O208 C210 1.247 . S
O209 Cd205 2.439 . S
O209 C210 1.208 . S
C210 O208 1.247 . S
C210 O209 1.208 . S
C211 O216 1.247 1_554 S
C211 O217 1.208 . S
C212 O204 1.315 . S
C212 O207 1.279 . S
C213 O214 1.315 . S
C213 O215 1.279 . S
O214 Cd206 2.223 . S
O214 C213 1.315 . S
O215 Cd205 2.240 1_556 S
O215 C213 1.279 . S
O216 Cd206 2.297 . S
O216 C211 1.247 1_556 S
O217 Cd206 2.439 1_554 S
O217 C211 1.208 . S
O218 Cd219 2.223 . S
O218 C226 1.315 . S
Cd219 O218 2.223 . S
Cd219 O222 2.297 . S
Cd219 O223 2.439 . S
Cd219 O229 2.240 . S
Cd220 O221 2.240 . S
Cd220 O228 2.223 . S
Cd220 O230 2.297 . S
Cd220 O231 2.439 . S
O221 Cd220 2.240 . S
O221 C226 1.279 . S
O222 Cd219 2.297 . S
O222 C224 1.247 . S
O223 Cd219 2.439 . S
O223 C224 1.208 . S
C224 O222 1.247 . S
C224 O223 1.208 . S
C225 O230 1.247 . S
C225 O231 1.208 . S
C226 O218 1.315 . S
C226 O221 1.279 . S
C227 O228 1.315 . S
C227 O229 1.279 . S
O228 Cd220 2.223 . S
O228 C227 1.315 . S
O229 Cd219 2.240 . S
O229 C227 1.279 . S
O230 Cd220 2.297 . S
O230 C225 1.247 . S
O231 Cd220 2.439 . S
O231 C225 1.208 . S
O232 Cd233 2.223 . S
O232 C240 1.315 . S
Cd233 O232 2.223 . S
Cd233 O236 2.297 . S
Cd233 O237 2.439 . S
Cd233 O243 2.240 . S
Cd234 O235 2.240 . S
Cd234 O242 2.223 . S
Cd234 O244 2.297 . S
Cd234 O245 2.439 . S
O235 Cd234 2.240 . S
O235 C240 1.279 . S
O236 Cd233 2.297 . S
O236 C238 1.247 . S
O237 Cd233 2.439 . S
O237 C238 1.208 . S
C238 O236 1.247 . S
C238 O237 1.208 . S
C239 O244 1.247 . S
C239 O245 1.208 . S
C240 O232 1.315 . S
C240 O235 1.279 . S
C241 O242 1.315 . S
C241 O243 1.279 . S
O242 Cd234 2.223 . S
O242 C241 1.315 . S
O243 Cd233 2.240 . S
O243 C241 1.279 . S
O244 Cd234 2.297 . S
O244 C239 1.247 . S
O245 Cd234 2.439 . S
O245 C239 1.208 . S
O246 Cd247 2.223 . S
O246 C254 1.315 . S
Cd247 O246 2.223 . S
Cd247 O250 2.297 . S
Cd247 O251 2.439 . S
Cd247 O257 2.240 . S
Cd248 O249 2.240 . S
Cd248 O256 2.223 . S
Cd248 O258 2.297 . S
Cd248 O259 2.439 . S
O249 Cd248 2.240 . S
O249 C254 1.279 . S
O250 Cd247 2.297 . S
O250 C252 1.247 . S
O251 Cd247 2.439 . S
O251 C252 1.208 . S
C252 O250 1.247 . S
C252 O251 1.208 . S
C253 O258 1.247 . S
C253 O259 1.208 . S
C254 O246 1.315 . S
C254 O249 1.279 . S
C255 O256 1.315 . S
C255 O257 1.279 . S
O256 Cd248 2.223 . S
O256 C255 1.315 . S
O257 Cd247 2.240 . S
O257 C255 1.279 . S
O258 Cd248 2.297 . S
O258 C253 1.247 . S
O259 Cd248 2.439 . S
O259 C253 1.208 . S
O260 Cd261 2.223 . S
O260 C268 1.315 . S
Cd261 O260 2.223 . S
Cd261 O264 2.297 . S
Cd261 O265 2.439 . S
Cd261 O271 2.240 . S
Cd262 O263 2.240 . S
Cd262 O270 2.223 . S
Cd262 O272 2.297 . S
Cd262 O273 2.439 . S
O263 Cd262 2.240 . S
O263 C268 1.279 . S
O264 Cd261 2.297 . S
O264 C266 1.247 . S
O265 Cd261 2.439 . S
O265 C266 1.208 . S
C266 O264 1.247 . S
C266 O265 1.208 . S
C267 O272 1.247 . S
C267 O273 1.208 . S
C268 O260 1.315 . S
C268 O263 1.279 . S
C269 O270 1.315 . S
C269 O271 1.279 . S
O270 Cd262 2.223 . S
O270 C269 1.315 . S
O271 Cd261 2.240 . S
O271 C269 1.279 . S
O272 Cd262 2.297 . S
O272 C267 1.247 . S
O273 Cd262 2.439 . S
O273 C267 1.208 . S
O274 Cd275 2.223 1_545 S
O274 C282 1.315 . S
Cd275 O274 2.223 1_565 S
Cd275 O278 2.297 . S
Cd275 O279 2.439 . S
Cd275 O285 2.240 1_565 S
Cd276 O277 2.240 . S
Cd276 O284 2.223 . S
Cd276 O286 2.297 . S
Cd276 O287 2.439 1_545 S
O277 Cd276 2.240 . S
O277 C282 1.279 . S
O278 Cd275 2.297 . S
O278 C280 1.247 . S
O279 Cd275 2.439 . S
O279 C280 1.208 . S
C280 O278 1.247 . S
C280 O279 1.208 . S
C281 O286 1.247 1_565 S
C281 O287 1.208 . S
C282 O274 1.315 . S
C282 O277 1.279 . S
C283 O284 1.315 . S
C283 O285 1.279 . S
O284 Cd276 2.223 . S
O284 C283 1.315 . S
O285 Cd275 2.240 1_545 S
O285 C283 1.279 . S
O286 Cd276 2.297 . S
O286 C281 1.247 1_545 S
O287 Cd276 2.439 1_565 S
O287 C281 1.208 . S
O288 Cd289 2.223 1_655 S
O288 C296 1.315 . S
Cd289 O288 2.223 1_455 S
Cd289 O292 2.297 . S
Cd289 O293 2.439 . S
Cd289 O299 2.243 . S
Cd290 O291 2.240 . S
Cd290 O298 2.223 1_455 S
Cd290 O300 2.297 . S
Cd290 O301 2.439 . S
O291 Cd290 2.240 . S
O291 C296 1.279 1_455 S
O292 Cd289 2.297 . S
O292 C294 1.247 . S
O293 Cd289 2.439 . S
O293 C294 1.208 . S
C294 O292 1.247 . S
C294 O293 1.208 . S
C295 O300 1.247 . S
C295 O301 1.208 . S
C296 O288 1.315 . S
C296 O291 1.279 1_655 S
C297 O298 1.315 . S
C297 O299 1.255 1_655 S
O298 Cd290 2.223 1_655 S
O298 C297 1.315 . S
O299 Cd289 2.243 . S
O299 C297 1.255 1_455 S
O300 Cd290 2.297 . S
O300 C295 1.247 . S
O301 Cd290 2.439 . S
O301 C295 1.208 . S
O302 Cd303 2.223 . S
O302 C310 1.315 . S
Cd303 O302 2.223 . S
Cd303 O306 2.297 . S
Cd303 O307 2.439 . S
Cd303 O313 2.240 . S
Cd304 O305 2.240 . S
Cd304 O312 2.223 . S
Cd304 O314 2.297 . S
Cd304 O315 2.439 . S
O305 Cd304 2.240 . S
O305 C310 1.279 . S
O306 Cd303 2.297 . S
O306 C308 1.247 . S
O307 Cd303 2.439 . S
O307 C308 1.208 . S
C308 O306 1.247 . S
C308 O307 1.208 . S
C309 O314 1.247 . S
C309 O315 1.208 . S
C310 O302 1.315 . S
C310 O305 1.279 . S
C311 O312 1.315 . S
C311 O313 1.279 . S
O312 Cd304 2.223 . S
O312 C311 1.315 . S
O313 Cd303 2.240 . S
O313 C311 1.279 . S
O314 Cd304 2.297 . S
O314 C309 1.247 . S
O315 Cd304 2.439 . S
O315 C309 1.208 . S
O316 Cd317 2.223 1_655 S
O316 C324 1.315 . S
Cd317 O316 2.223 1_455 S
Cd317 O320 2.297 . S
Cd317 O321 2.439 . S
Cd317 O327 2.240 . S
Cd318 O319 2.240 1_455 S
Cd318 O326 2.223 1_455 S
Cd318 O328 2.297 . S
Cd318 O329 2.439 . S
O319 Cd318 2.240 1_655 S
O319 C324 1.279 . S
O320 Cd317 2.297 . S
O320 C322 1.247 . S
O321 Cd317 2.439 . S
O321 C322 1.208 . S
C322 O320 1.247 . S
C322 O321 1.208 . S
C323 O328 1.247 . S
C323 O329 1.208 . S
C324 O316 1.315 . S
C324 O319 1.279 . S
C325 O326 1.315 . S
C325 O327 1.279 1_655 S
O326 Cd318 2.223 1_655 S
O326 C325 1.315 . S
O327 Cd317 2.240 . S
O327 C325 1.279 1_455 S
O328 Cd318 2.297 . S
O328 C323 1.247 . S
O329 Cd318 2.439 . S
O329 C323 1.208 . S
O330 Cd331 2.223 . S
O330 C338 1.315 . S
Cd331 O330 2.223 . S
Cd331 O334 2.297 . S
Cd331 O335 2.439 . S
Cd331 O341 2.240 . S
Cd332 O333 2.240 . S
Cd332 O340 2.223 . S
Cd332 O342 2.297 . S
Cd332 O343 2.439 . S
O333 Cd332 2.240 . S
O333 C338 1.279 . S
O334 Cd331 2.297 . S
O334 C336 1.247 . S
O335 Cd331 2.439 . S
O335 C336 1.208 . S
C336 O334 1.247 . S
C336 O335 1.208 . S
C337 O342 1.247 . S
C337 O343 1.208 . S
C338 O330 1.315 . S
C338 O333 1.279 . S
C339 O340 1.315 . S
C339 O341 1.279 . S
O340 Cd332 2.223 . S
O340 C339 1.315 . S
O341 Cd331 2.240 . S
O341 C339 1.279 . S
O342 Cd332 2.297 . S
O342 C337 1.247 . S
O343 Cd332 2.439 . S
O343 C337 1.208 . S
H344 C362 0.951 . S
H345 C364 0.951 . S
H346 C366 0.950 . S
H347 C367 0.950 . S
H348 C369 0.950 . S
H349 C372 0.950 . S
H350 C373 0.950 . S
H351 C375 0.950 . S
H352 C376 0.950 . S
H353 C377 0.951 . S
H354 C379 0.951 . S
H355 C381 0.950 . S
H356 C382 0.950 . S
H357 C384 0.950 . S
H358 C387 0.950 . S
H359 C388 0.950 . S
H360 C390 0.950 . S
H361 C391 0.950 . S
C362 H344 0.951 . S
C362 C363 1.366 . S
C362 C364 1.388 . S
C363 C362 1.366 . S
C363 C367 1.385 . S
C364 H345 0.951 . S
C364 C362 1.388 . S
C364 C365 1.366 . S
C365 C364 1.366 . S
C365 C366 1.414 . S
C365 C368 1.499 . S
C366 H346 0.950 . S
C366 C365 1.414 . S
C366 C367 1.374 . S
C367 H347 0.950 . S
C367 C363 1.385 . S
C367 C366 1.374 . S
C368 C365 1.499 . S
C368 C369 1.373 . S
C368 C370 1.389 . S
C369 H348 0.950 . S
C369 C368 1.373 . S
C369 C385 1.377 . S
C370 C368 1.389 . S
C370 C371 1.524 . S
C370 C384 1.377 . S
C371 C370 1.524 . S
C371 C372 1.397 . S
C371 C376 1.363 . S
C372 H349 0.950 . S
C372 C371 1.397 . S
C372 C373 1.334 . S
C373 H350 0.950 . S
C373 C372 1.334 . S
C373 C374 1.287 . S
C374 C373 1.287 . S
C374 C375 1.524 . S
C374 H393 0.913 . S
C375 H351 0.950 . S
C375 C374 1.524 . S
C375 C376 1.415 . S
C376 H352 0.950 . S
C376 C371 1.363 . S
C376 C375 1.415 . S
C377 H353 0.951 . S
C377 C378 1.366 . S
C377 C379 1.388 1_554 S
C378 C377 1.366 . S
C378 C382 1.385 . S
C379 H354 0.951 . S
C379 C377 1.388 1_556 S
C379 C380 1.366 . S
C380 C379 1.366 . S
C380 C381 1.414 . S
C380 C383 1.499 . S
C381 H355 0.950 . S
C381 C380 1.414 . S
C381 C382 1.374 1_556 S
C382 H356 0.950 . S
C382 C378 1.385 . S
C382 C381 1.374 1_554 S
C383 C380 1.499 . S
C383 C384 1.373 . S
C383 C385 1.389 . S
C384 H357 0.950 . S
C384 C370 1.377 . S
C384 C383 1.373 . S
C385 C369 1.377 . S
C385 C383 1.389 . S
C385 C386 1.524 . S
C386 C385 1.524 . S
C386 C387 1.397 . S
C386 C391 1.363 . S
C387 H358 0.950 . S
C387 C386 1.397 . S
C387 C388 1.334 1_556 S
C388 H359 0.950 . S
C388 C387 1.334 1_554 S
C388 C389 1.287 . S
C389 C388 1.287 . S
C389 C390 1.524 1_554 S
C389 H392 0.999 . S
C390 H360 0.950 . S
C390 C389 1.524 1_556 S
C390 C391 1.415 . S
C391 H361 0.950 . S
C391 C386 1.363 . S
C391 C390 1.415 . S
H392 C389 0.999 . S
H393 C374 0.913 . S
H394 C412 0.951 . S
H395 C414 0.951 . S
H396 C416 0.924 1_455 S
H397 C417 0.950 . S
H398 C419 0.950 . S
H399 C422 0.950 . S
H400 C423 0.950 . S
H401 C425 0.950 1_655 S
H402 C426 0.950 . S
H403 C427 0.951 . S
H404 C429 0.951 . S
H405 C431 0.950 . S
H406 C432 0.950 . S
H407 C434 0.950 . S
H408 C437 0.950 . S
H409 C438 0.950 . S
H410 C440 0.950 . S
H411 C441 0.950 . S
C412 H394 0.951 . S
C412 C413 1.366 . S
C412 C414 1.388 . S
C413 C412 1.366 . S
C413 C417 1.385 . S
C414 H395 0.951 . S
C414 C412 1.388 . S
C414 C415 1.366 . S
C415 C414 1.366 . S
C415 C416 1.412 . S
C415 C418 1.499 1_655 S
C416 H396 0.924 1_655 S
C416 C415 1.412 . S
C416 C417 1.403 . S
C417 H397 0.950 . S
C417 C413 1.385 . S
C417 C416 1.403 . S
C418 C415 1.499 1_455 S
C418 C419 1.373 . S
C418 C420 1.389 . S
C419 H398 0.950 . S
C419 C418 1.373 . S
C419 C435 1.377 . S
C420 C418 1.389 . S
C420 C421 1.524 . S
C420 C434 1.377 . S
C421 C420 1.524 . S
C421 C422 1.397 . S
C421 C426 1.363 . S
C422 H399 0.950 . S
C422 C421 1.397 . S
C422 C423 1.334 . S
C423 H400 0.950 . S
C423 C422 1.334 . S
C423 C424 1.287 . S
C424 C423 1.287 . S
C424 C425 1.524 . S
C424 H443 0.913 . S
C425 H401 0.950 1_455 S
C425 C424 1.524 . S
C425 C426 1.415 . S
C426 H402 0.950 . S
C426 C421 1.363 . S
C426 C425 1.415 . S
C427 H403 0.951 . S
C427 C428 1.366 . S
C427 C429 1.388 . S
C428 C427 1.366 . S
C428 C432 1.385 . S
C429 H404 0.951 . S
C429 C427 1.388 . S
C429 C430 1.366 . S
C430 C429 1.366 . S
C430 C431 1.414 . S
C430 C433 1.499 . S
C431 H405 0.950 . S
C431 C430 1.414 . S
C431 C432 1.374 . S
C432 H406 0.950 . S
C432 C428 1.385 . S
C432 C431 1.374 . S
C433 C430 1.499 . S
C433 C434 1.373 . S
C433 C435 1.389 . S
C434 H407 0.950 . S
C434 C420 1.377 . S
C434 C433 1.373 . S
C435 C419 1.377 . S
C435 C433 1.389 . S
C435 C436 1.524 . S
C436 C435 1.524 . S
C436 C437 1.397 . S
C436 C441 1.363 . S
C437 H408 0.950 . S
C437 C436 1.397 . S
C437 C438 1.334 . S
C438 H409 0.950 . S
C438 C437 1.334 . S
C438 C439 1.287 . S
C439 C438 1.287 . S
C439 C440 1.524 . S
C439 H442 0.999 . S
C440 H410 0.950 . S
C440 C439 1.524 . S
C440 C441 1.415 . S
C441 H411 0.950 . S
C441 C436 1.363 . S
C441 C440 1.415 . S
H442 C439 0.999 . S
H443 C424 0.913 . S
H444 C462 0.951 . S
H445 C464 0.951 . S
H446 C466 0.950 . S
H447 C467 0.950 . S
H448 C469 0.950 . S
H449 C472 0.950 . S
H450 C473 0.950 . S
H451 C475 0.950 . S
H452 C476 0.950 . S
H453 C477 0.951 . S
H454 C479 0.951 . S
H455 C481 0.950 . S
H456 C482 0.950 . S
H457 C484 0.950 . S
H458 C487 0.950 . S
H459 C488 0.950 . S
H460 C490 0.950 . S
H461 C491 0.950 . S
C462 H444 0.951 . S
C462 C463 1.366 . S
C462 C464 1.388 . S
C463 C462 1.366 . S
C463 C467 1.385 . S
C464 H445 0.951 . S
C464 C462 1.388 . S
C464 C465 1.366 . S
C465 C464 1.366 . S
C465 C466 1.414 . S
C465 C468 1.499 . S
C466 H446 0.950 . S
C466 C465 1.414 . S
C466 C467 1.374 . S
C467 H447 0.950 . S
C467 C463 1.385 . S
C467 C466 1.374 . S
C468 C465 1.499 . S
C468 C469 1.373 . S
C468 C470 1.389 . S
C469 H448 0.950 . S
C469 C468 1.373 . S
C469 C485 1.377 . S
C470 C468 1.389 . S
C470 C471 1.524 . S
C470 C484 1.377 . S
C471 C470 1.524 . S
C471 C472 1.397 . S
C471 C476 1.363 . S
C472 H449 0.950 . S
C472 C471 1.397 . S
C472 C473 1.334 . S
C473 H450 0.950 . S
C473 C472 1.334 . S
C473 C474 1.287 . S
C474 C473 1.287 . S
C474 C475 1.524 . S
C474 H493 0.913 . S
C475 H451 0.950 . S
C475 C474 1.524 . S
C475 C476 1.415 . S
C476 H452 0.950 . S
C476 C471 1.363 . S
C476 C475 1.415 . S
C477 H453 0.951 . S
C477 C478 1.366 . S
C477 C479 1.388 . S
C478 C477 1.366 . S
C478 C482 1.385 . S
C479 H454 0.951 . S
C479 C477 1.388 . S
C479 C480 1.366 . S
C480 C479 1.366 . S
C480 C481 1.414 . S
C480 C483 1.499 . S
C481 H455 0.950 . S
C481 C480 1.414 . S
C481 C482 1.374 . S
C482 H456 0.950 . S
C482 C478 1.385 . S
C482 C481 1.374 . S
C483 C480 1.499 . S
C483 C484 1.373 . S
C483 C485 1.389 . S
C484 H457 0.950 . S
C484 C470 1.377 . S
C484 C483 1.373 . S
C485 C469 1.377 . S
C485 C483 1.389 . S
C485 C486 1.524 . S
C486 C485 1.524 . S
C486 C487 1.397 . S
C486 C491 1.363 . S
C487 H458 0.950 . S
C487 C486 1.397 . S
C487 C488 1.334 . S
C488 H459 0.950 . S
C488 C487 1.334 . S
C488 C489 1.287 . S
C489 C488 1.287 . S
C489 C490 1.524 . S
C489 H492 0.999 . S
C490 H460 0.950 . S
C490 C489 1.524 . S
C490 C491 1.415 . S
C491 H461 0.950 . S
C491 C486 1.363 . S
C491 C490 1.415 . S
H492 C489 0.999 . S
H493 C474 0.913 . S
H494 C512 0.956 . S
H495 C514 0.951 . S
H496 C516 0.950 . S
H497 C517 0.950 . S
H498 C519 0.950 . S
H499 C522 0.950 . S
H500 C523 0.950 . S
H501 C525 0.950 . S
H502 C526 0.950 . S
H503 C527 0.951 . S
H504 C529 0.951 . S
H505 C531 0.955 1_455 S
H506 C532 0.950 . S
H507 C534 0.950 . S
H508 C537 0.950 . S
H509 C538 0.950 1_545 S
H510 C540 0.950 . S
H511 C541 0.950 . S
C512 H494 0.956 . S
C512 C513 1.366 . S
C512 C514 1.388 1_565 S
C513 C512 1.366 . S
C513 C517 1.385 . S
C514 H495 0.951 . S
C514 C512 1.388 1_545 S
C514 C515 1.366 1_545 S
C515 C514 1.366 1_565 S
C515 C516 1.414 . S
C515 C518 1.499 1_565 S
C516 H496 0.950 . S
C516 C515 1.414 . S
C516 C517 1.374 . S
C517 H497 0.950 . S
C517 C513 1.385 . S
C517 C516 1.374 . S
C518 C515 1.499 1_545 S
C518 C519 1.373 1_545 S
C518 C520 1.389 . S
C519 H498 0.950 . S
C519 C518 1.373 1_565 S
C519 C535 1.377 1_565 S
C520 C518 1.389 . S
C520 C521 1.524 . S
C520 C534 1.377 . S
C521 C520 1.524 . S
C521 C522 1.397 . S
C521 C526 1.363 . S
C522 H499 0.950 . S
C522 C521 1.397 . S
C522 C523 1.334 . S
C523 H500 0.950 . S
C523 C522 1.334 . S
C523 C524 1.287 . S
C524 C523 1.287 . S
C524 C525 1.524 . S
C524 H543 0.913 . S
C525 H501 0.950 . S
C525 C524 1.524 . S
C525 C526 1.415 . S
C526 H502 0.950 . S
C526 C521 1.363 . S
C526 C525 1.415 . S
C527 H503 0.951 . S
C527 C528 1.366 . S
C527 C529 1.388 . S
C528 C527 1.366 . S
C528 C532 1.385 . S
C529 H504 0.951 . S
C529 C527 1.388 . S
C529 C530 1.366 . S
C530 C529 1.366 . S
C530 C531 1.413 . S
C530 C533 1.499 1_655 S
C531 H505 0.955 1_655 S
C531 C530 1.413 . S
C531 C532 1.370 . S
C532 H506 0.950 . S
C532 C528 1.385 . S
C532 C531 1.370 . S
C533 C530 1.499 1_455 S
C533 C534 1.373 . S
C533 C535 1.389 . S
C534 H507 0.950 . S
C534 C520 1.377 . S
C534 C533 1.373 . S
C535 C519 1.377 1_545 S
C535 C533 1.389 . S
C535 C536 1.524 1_545 S
C536 C535 1.524 1_565 S
C536 C537 1.397 1_565 S
C536 C541 1.363 1_455 S
C537 H508 0.950 . S
C537 C536 1.397 1_545 S
C537 C538 1.334 1_545 S
C538 H509 0.950 1_565 S
C538 C537 1.334 1_565 S
C538 C539 1.287 1_455 S
C539 C538 1.287 1_655 S
C539 C540 1.524 . S
C539 H542 0.999 . S
C540 H510 0.950 . S
C540 C539 1.524 . S
C540 C541 1.415 . S
C541 H511 0.950 . S
C541 C536 1.363 1_655 S
C541 C540 1.415 . S
H542 C539 0.999 . S
H543 C524 0.913 . S
H544 C562 0.951 . S
H545 C564 0.951 . S
H546 C566 0.950 . S
H547 C567 0.950 . S
H548 C569 0.950 . S
H549 C572 0.950 . S
H550 C573 0.950 . S
H551 C575 0.950 . S
H552 C576 0.950 . S
H553 C577 0.951 . S
H554 C579 0.951 . S
H555 C581 0.950 . S
H556 C582 0.950 . S
H557 C584 0.950 . S
H558 C587 0.950 . S
H559 C588 0.950 . S
H560 C590 0.950 . S
H561 C591 0.950 . S
C562 H544 0.951 . S
C562 C563 1.366 . S
C562 C564 1.388 . S
C563 C562 1.366 . S
C563 C567 1.385 . S
C564 H545 0.951 . S
C564 C562 1.388 . S
C564 C565 1.366 . S
C565 C564 1.366 . S
C565 C566 1.414 . S
C565 C568 1.499 . S
C566 H546 0.950 . S
C566 C565 1.414 . S
C566 C567 1.374 . S
C567 H547 0.950 . S
C567 C563 1.385 . S
C567 C566 1.374 . S
C568 C565 1.499 . S
C568 C569 1.373 . S
C568 C570 1.389 . S
C569 H548 0.950 . S
C569 C568 1.373 . S
C569 C585 1.377 . S
C570 C568 1.389 . S
C570 C571 1.524 . S
C570 C584 1.377 . S
C571 C570 1.524 . S
C571 C572 1.397 . S
C571 C576 1.363 . S
C572 H549 0.950 . S
C572 C571 1.397 . S
C572 C573 1.334 . S
C573 H550 0.950 . S
C573 C572 1.334 . S
C573 C574 1.287 . S
C574 C573 1.287 . S
C574 C575 1.524 . S
C574 H593 0.913 . S
C575 H551 0.950 . S
C575 C574 1.524 . S
C575 C576 1.415 . S
C576 H552 0.950 . S
C576 C571 1.363 . S
C576 C575 1.415 . S
C577 H553 0.951 . S
C577 C578 1.366 . S
C577 C579 1.388 . S
C578 C577 1.366 . S
C578 C582 1.385 . S
C579 H554 0.951 . S
C579 C577 1.388 . S
C579 C580 1.366 . S
C580 C579 1.366 . S
C580 C581 1.414 . S
C580 C583 1.499 . S
C581 H555 0.950 . S
C581 C580 1.414 . S
C581 C582 1.374 . S
C582 H556 0.950 . S
C582 C578 1.385 . S
C582 C581 1.374 . S
C583 C580 1.499 . S
C583 C584 1.373 . S
C583 C585 1.389 . S
C584 H557 0.950 . S
C584 C570 1.377 . S
C584 C583 1.373 . S
C585 C569 1.377 . S
C585 C583 1.389 . S
C585 C586 1.524 . S
C586 C585 1.524 . S
C586 C587 1.397 . S
C586 C591 1.363 . S
C587 H558 0.950 . S
C587 C586 1.397 . S
C587 C588 1.334 . S
C588 H559 0.950 . S
C588 C587 1.334 . S
C588 C589 1.287 . S
C589 C588 1.287 . S
C589 C590 1.524 . S
C589 H592 0.999 . S
C590 H560 0.950 . S
C590 C589 1.524 . S
C590 C591 1.415 . S
C591 H561 0.950 . S
C591 C586 1.363 . S
C591 C590 1.415 . S
H592 C589 0.999 . S
H593 C574 0.913 . S
H594 C612 0.951 . S
H595 C614 0.951 . S
H596 C616 0.950 . S
H597 C617 0.950 . S
H598 C619 0.950 . S
H599 C622 0.950 . S
H600 C623 0.950 . S
H601 C625 0.950 . S
H602 C626 0.950 . S
H603 C627 0.951 . S
H604 C629 0.951 . S
H605 C631 0.950 . S
H606 C632 0.950 . S
H607 C634 0.950 . S
H608 C637 0.950 . S
H609 C638 0.950 . S
H610 C640 0.950 . S
H611 C641 0.950 . S
C612 H594 0.951 . S
C612 C613 1.366 . S
C612 C614 1.388 . S
C613 C612 1.366 . S
C613 C617 1.385 . S
C614 H595 0.951 . S
C614 C612 1.388 . S
C614 C615 1.366 . S
C615 C614 1.366 . S
C615 C616 1.414 . S
C615 C618 1.499 . S
C616 H596 0.950 . S
C616 C615 1.414 . S
C616 C617 1.374 . S
C617 H597 0.950 . S
C617 C613 1.385 . S
C617 C616 1.374 . S
C618 C615 1.499 . S
C618 C619 1.373 . S
C618 C620 1.389 . S
C619 H598 0.950 . S
C619 C618 1.373 . S
C619 C635 1.377 . S
C620 C618 1.389 . S
C620 C621 1.524 . S
C620 C634 1.377 . S
C621 C620 1.524 . S
C621 C622 1.397 . S
C621 C626 1.363 . S
C622 H599 0.950 . S
C622 C621 1.397 . S
C622 C623 1.334 . S
C623 H600 0.950 . S
C623 C622 1.334 . S
C623 C624 1.287 . S
C624 C623 1.287 . S
C624 C625 1.524 . S
C624 H643 0.913 . S
C625 H601 0.950 . S
C625 C624 1.524 . S
C625 C626 1.415 . S
C626 H602 0.950 . S
C626 C621 1.363 . S
C626 C625 1.415 . S
C627 H603 0.951 . S
C627 C628 1.366 . S
C627 C629 1.388 . S
C628 C627 1.366 . S
C628 C632 1.385 . S
C629 H604 0.951 . S
C629 C627 1.388 . S
C629 C630 1.366 . S
C630 C629 1.366 . S
C630 C631 1.414 . S
C630 C633 1.499 . S
C631 H605 0.950 . S
C631 C630 1.414 . S
C631 C632 1.374 . S
C632 H606 0.950 . S
C632 C628 1.385 . S
C632 C631 1.374 . S
C633 C630 1.499 . S
C633 C634 1.373 . S
C633 C635 1.389 . S
C634 H607 0.950 . S
C634 C620 1.377 . S
C634 C633 1.373 . S
C635 C619 1.377 . S
C635 C633 1.389 . S
C635 C636 1.524 . S
C636 C635 1.524 . S
C636 C637 1.397 . S
C636 C641 1.363 . S
C637 H608 0.950 . S
C637 C636 1.397 . S
C637 C638 1.334 . S
C638 H609 0.950 . S
C638 C637 1.334 . S
C638 C639 1.287 . S
C639 C638 1.287 . S
C639 C640 1.524 . S
C639 H642 0.999 . S
C640 H610 0.950 . S
C640 C639 1.524 . S
C640 C641 1.415 . S
C641 H611 0.950 . S
C641 C636 1.363 . S
C641 C640 1.415 . S
H642 C639 0.999 . S
H643 C624 0.913 . S
H644 C662 0.951 . S
H645 C664 0.951 . S
H646 C666 0.950 . S
H647 C667 0.950 . S
H648 C669 0.950 . S
H649 C672 0.950 . S
H650 C673 0.950 . S
H651 C675 0.950 . S
H652 C676 0.950 . S
H653 C677 0.951 . S
H654 C679 0.951 . S
H655 C681 0.950 . S
H656 C682 0.950 . S
H657 C684 0.950 . S
H658 C687 0.950 . S
H659 C688 0.950 . S
H660 C690 0.950 . S
H661 C691 0.950 . S
C662 H644 0.951 . S
C662 C663 1.366 . S
C662 C664 1.388 . S
C663 C662 1.366 . S
C663 C667 1.385 . S
C664 H645 0.951 . S
C664 C662 1.388 . S
C664 C665 1.366 . S
C665 C664 1.366 . S
C665 C666 1.414 . S
C665 C668 1.499 . S
C666 H646 0.950 . S
C666 C665 1.414 . S
C666 C667 1.374 . S
C667 H647 0.950 . S
C667 C663 1.385 . S
C667 C666 1.374 . S
C668 C665 1.499 . S
C668 C669 1.373 . S
C668 C670 1.389 . S
C669 H648 0.950 . S
C669 C668 1.373 . S
C669 C685 1.377 . S
C670 C668 1.389 . S
C670 C671 1.524 . S
C670 C684 1.377 . S
C671 C670 1.524 . S
C671 C672 1.397 . S
C671 C676 1.363 . S
C672 H649 0.950 . S
C672 C671 1.397 . S
C672 C673 1.334 . S
C673 H650 0.950 . S
C673 C672 1.334 . S
C673 C674 1.287 . S
C674 C673 1.287 . S
C674 C675 1.524 . S
C674 H693 0.913 . S
C675 H651 0.950 . S
C675 C674 1.524 . S
C675 C676 1.415 . S
C676 H652 0.950 . S
C676 C671 1.363 . S
C676 C675 1.415 . S
C677 H653 0.951 . S
C677 C678 1.366 . S
C677 C679 1.388 . S
C678 C677 1.366 . S
C678 C682 1.385 . S
C679 H654 0.951 . S
C679 C677 1.388 . S
C679 C680 1.366 . S
C680 C679 1.366 . S
C680 C681 1.414 . S
C680 C683 1.499 . S
C681 H655 0.950 . S
C681 C680 1.414 . S
C681 C682 1.374 . S
C682 H656 0.950 . S
C682 C678 1.385 . S
C682 C681 1.374 . S
C683 C680 1.499 . S
C683 C684 1.373 . S
C683 C685 1.389 . S
C684 H657 0.950 . S
C684 C670 1.377 . S
C684 C683 1.373 . S
C685 C669 1.377 . S
C685 C683 1.389 . S
C685 C686 1.524 . S
C686 C685 1.524 . S
C686 C687 1.397 . S
C686 C691 1.363 . S
C687 H658 0.950 . S
C687 C686 1.397 . S
C687 C688 1.334 . S
C688 H659 0.950 . S
C688 C687 1.334 . S
C688 C689 1.287 . S
C689 C688 1.287 . S
C689 C690 1.524 . S
C689 H692 0.999 . S
C690 H660 0.950 . S
C690 C689 1.524 . S
C690 C691 1.415 . S
C691 H661 0.950 . S
C691 C686 1.363 . S
C691 C690 1.415 . S
H692 C689 0.999 . S
H693 C674 0.913 . S
H694 C712 0.951 . S
H695 C714 0.951 . S
H696 C716 0.950 . S
H697 C717 0.950 . S
H698 C719 0.950 . S
H699 C722 0.950 . S
H700 C723 0.950 . S
H701 C725 0.950 . S
H702 C726 0.950 . S
H703 C727 0.951 . S
H704 C729 0.951 . S
H705 C731 0.950 . S
H706 C732 0.950 . S
H707 C734 0.950 . S
H708 C737 0.950 . S
H709 C738 0.950 . S
H710 C740 0.950 . S
H711 C741 0.950 . S
C712 H694 0.951 . S
C712 C713 1.366 . S
C712 C714 1.388 . S
C713 C712 1.366 . S
C713 C717 1.385 . S
C714 H695 0.951 . S
C714 C712 1.388 . S
C714 C715 1.366 . S
C715 C714 1.366 . S
C715 C716 1.414 . S
C715 C718 1.499 . S
C716 H696 0.950 . S
C716 C715 1.414 . S
C716 C717 1.374 . S
C717 H697 0.950 . S
C717 C713 1.385 . S
C717 C716 1.374 . S
C718 C715 1.499 . S
C718 C719 1.373 . S
C718 C720 1.389 . S
C719 H698 0.950 . S
C719 C718 1.373 . S
C719 C735 1.377 . S
C720 C718 1.389 . S
C720 C721 1.524 . S
C720 C734 1.377 . S
C721 C720 1.524 . S
C721 C722 1.397 . S
C721 C726 1.363 . S
C722 H699 0.950 . S
C722 C721 1.397 . S
C722 C723 1.334 1_565 S
C723 H700 0.950 . S
C723 C722 1.334 1_545 S
C723 C724 1.287 . S
C724 C723 1.287 . S
C724 C725 1.524 1_545 S
C724 H743 0.913 . S
C725 H701 0.950 . S
C725 C724 1.524 1_565 S
C725 C726 1.415 . S
C726 H702 0.950 . S
C726 C721 1.363 . S
C726 C725 1.415 . S
C727 H703 0.951 . S
C727 C728 1.366 . S
C727 C729 1.388 . S
C728 C727 1.366 . S
C728 C732 1.385 . S
C729 H704 0.951 . S
C729 C727 1.388 . S
C729 C730 1.366 . S
C730 C729 1.366 . S
C730 C731 1.414 . S
C730 C733 1.499 . S
C731 H705 0.950 . S
C731 C730 1.414 . S
C731 C732 1.374 . S
C732 H706 0.950 . S
C732 C728 1.385 . S
C732 C731 1.374 . S
C733 C730 1.499 . S
C733 C734 1.373 . S
C733 C735 1.389 . S
C734 H707 0.950 . S
C734 C720 1.377 . S
C734 C733 1.373 . S
C735 C719 1.377 . S
C735 C733 1.389 . S
C735 C736 1.524 . S
C736 C735 1.524 . S
C736 C737 1.397 . S
C736 C741 1.363 . S
C737 H708 0.950 . S
C737 C736 1.397 . S
C737 C738 1.334 . S
C738 H709 0.950 . S
C738 C737 1.334 . S
C738 C739 1.287 . S
C739 C738 1.287 . S
C739 C740 1.524 . S
C739 H742 0.999 . S
C740 H710 0.950 . S
C740 C739 1.524 . S
C740 C741 1.415 . S
C741 H711 0.950 . S
C741 C736 1.363 . S
C741 C740 1.415 . S
H742 C739 0.999 . S
H743 C724 0.913 . S
H744 C762 0.951 . S
H745 C764 0.951 . S
H746 C766 0.950 . S
H747 C767 0.950 . S
H748 C769 0.950 . S
H749 C772 0.950 . S
H750 C773 0.950 . S
H751 C775 0.950 . S
H752 C776 0.950 . S
H753 C777 0.951 . S
H754 C779 0.951 . S
H755 C781 0.950 . S
H756 C782 0.950 . S
H757 C784 0.950 . S
H758 C787 0.950 . S
H759 C788 0.950 . S
H760 C790 0.950 . S
H761 C791 0.950 . S
C762 H744 0.951 . S
C762 C763 1.366 . S
C762 C764 1.388 . S
C763 C762 1.366 . S
C763 C767 1.385 . S
C764 H745 0.951 . S
C764 C762 1.388 . S
C764 C765 1.366 . S
C765 C764 1.366 . S
C765 C766 1.414 . S
C765 C768 1.499 . S
C766 H746 0.950 . S
C766 C765 1.414 . S
C766 C767 1.374 . S
C767 H747 0.950 . S
C767 C763 1.385 . S
C767 C766 1.374 . S
C768 C765 1.499 . S
C768 C769 1.373 . S
C768 C770 1.389 . S
C769 H748 0.950 . S
C769 C768 1.373 . S
C769 C785 1.377 . S
C770 C768 1.389 . S
C770 C771 1.524 . S
C770 C784 1.377 . S
C771 C770 1.524 . S
C771 C772 1.397 . S
C771 C776 1.363 . S
C772 H749 0.950 . S
C772 C771 1.397 . S
C772 C773 1.334 . S
C773 H750 0.950 . S
C773 C772 1.334 . S
C773 C774 1.287 . S
C774 C773 1.287 . S
C774 C775 1.524 . S
C774 H793 0.913 . S
C775 H751 0.950 . S
C775 C774 1.524 . S
C775 C776 1.415 . S
C776 H752 0.950 . S
C776 C771 1.363 . S
C776 C775 1.415 . S
C777 H753 0.951 . S
C777 C778 1.366 . S
C777 C779 1.388 . S
C778 C777 1.366 . S
C778 C782 1.385 . S
C779 H754 0.951 . S
C779 C777 1.388 . S
C779 C780 1.366 . S
C780 C779 1.366 . S
C780 C781 1.414 . S
C780 C783 1.499 . S
C781 H755 0.950 . S
C781 C780 1.414 . S
C781 C782 1.374 . S
C782 H756 0.950 . S
C782 C778 1.385 . S
C782 C781 1.374 . S
C783 C780 1.499 . S
C783 C784 1.373 . S
C783 C785 1.389 . S
C784 H757 0.950 . S
C784 C770 1.377 . S
C784 C783 1.373 . S
C785 C769 1.377 . S
C785 C783 1.389 . S
C785 C786 1.524 . S
C786 C785 1.524 . S
C786 C787 1.397 . S
C786 C791 1.363 . S
C787 H758 0.950 . S
C787 C786 1.397 . S
C787 C788 1.334 . S
C788 H759 0.950 . S
C788 C787 1.334 . S
C788 C789 1.287 . S
C789 C788 1.287 . S
C789 C790 1.524 . S
C789 H792 0.999 . S
C790 H760 0.950 . S
C790 C789 1.524 . S
C790 C791 1.415 . S
C791 H761 0.950 . S
C791 C786 1.363 . S
C791 C790 1.415 . S
H792 C789 0.999 . S
H793 C774 0.913 . S
H794 C812 0.951 . S
H795 C814 0.951 . S
H796 C816 0.950 . S
H797 C817 0.950 . S
H798 C819 0.950 . S
H799 C822 0.950 . S
H800 C823 0.950 . S
H801 C825 0.950 . S
H802 C826 0.950 . S
H803 C827 0.951 . S
H804 C829 0.951 . S
H805 C831 0.950 . S
H806 C832 0.950 . S
H807 C834 0.950 . S
H808 C837 0.950 . S
H809 C838 0.950 . S
H810 C840 0.950 . S
H811 C841 0.950 . S
C812 H794 0.951 . S
C812 C813 1.366 . S
C812 C814 1.388 . S
C813 C812 1.366 . S
C813 C817 1.385 . S
C814 H795 0.951 . S
C814 C812 1.388 . S
C814 C815 1.366 . S
C815 C814 1.366 . S
C815 C816 1.414 . S
C815 C818 1.499 . S
C816 H796 0.950 . S
C816 C815 1.414 . S
C816 C817 1.374 . S
C817 H797 0.950 . S
C817 C813 1.385 . S
C817 C816 1.374 . S
C818 C815 1.499 . S
C818 C819 1.373 . S
C818 C820 1.389 . S
C819 H798 0.950 . S
C819 C818 1.373 . S
C819 C835 1.377 . S
C820 C818 1.389 . S
C820 C821 1.524 . S
C820 C834 1.377 . S
C821 C820 1.524 . S
C821 C822 1.397 . S
C821 C826 1.363 . S
C822 H799 0.950 . S
C822 C821 1.397 . S
C822 C823 1.334 . S
C823 H800 0.950 . S
C823 C822 1.334 . S
C823 C824 1.287 . S
C824 C823 1.287 . S
C824 C825 1.524 . S
C824 H843 0.913 . S
C825 H801 0.950 . S
C825 C824 1.524 . S
C825 C826 1.415 . S
C826 H802 0.950 . S
C826 C821 1.363 . S
C826 C825 1.415 . S
C827 H803 0.951 . S
C827 C828 1.366 . S
C827 C829 1.388 . S
C828 C827 1.366 . S
C828 C832 1.385 . S
C829 H804 0.951 . S
C829 C827 1.388 . S
C829 C830 1.366 . S
C830 C829 1.366 . S
C830 C831 1.414 . S
C830 C833 1.499 . S
C831 H805 0.950 . S
C831 C830 1.414 . S
C831 C832 1.374 . S
C832 H806 0.950 . S
C832 C828 1.385 . S
C832 C831 1.374 . S
C833 C830 1.499 . S
C833 C834 1.373 . S
C833 C835 1.389 . S
C834 H807 0.950 . S
C834 C820 1.377 . S
C834 C833 1.373 . S
C835 C819 1.377 . S
C835 C833 1.389 . S
C835 C836 1.524 . S
C836 C835 1.524 . S
C836 C837 1.397 . S
C836 C841 1.363 . S
C837 H808 0.950 . S
C837 C836 1.397 . S
C837 C838 1.334 . S
C838 H809 0.950 . S
C838 C837 1.334 . S
C838 C839 1.287 . S
C839 C838 1.287 . S
C839 C840 1.524 . S
C839 H842 0.999 . S
C840 H810 0.950 . S
C840 C839 1.524 . S
C840 C841 1.415 . S
C841 H811 0.950 . S
C841 C836 1.363 . S
C841 C840 1.415 . S
H842 C839 0.999 . S
H843 C824 0.913 . S
H844 C862 0.951 . S
H845 C864 0.951 . S
H846 C866 0.950 . S
H847 C867 0.950 . S
H848 C869 0.950 . S
H849 C872 0.950 . S
H850 C873 0.950 . S
H851 C875 0.950 . S
H852 C876 0.950 . S
H853 C877 0.951 . S
H854 C879 0.951 . S
H855 C881 0.950 . S
H856 C882 0.950 . S
H857 C884 0.950 . S
H858 C887 0.950 . S
H859 C888 0.950 . S
H860 C890 0.950 . S
H861 C891 0.950 . S
C862 H844 0.951 . S
C862 C863 1.366 . S
C862 C864 1.388 . S
C863 C862 1.366 . S
C863 C867 1.385 . S
C864 H845 0.951 . S
C864 C862 1.388 . S
C864 C865 1.366 . S
C865 C864 1.366 . S
C865 C866 1.414 . S
C865 C868 1.499 . S
C866 H846 0.950 . S
C866 C865 1.414 . S
C866 C867 1.374 . S
C867 H847 0.950 . S
C867 C863 1.385 . S
C867 C866 1.374 . S
C868 C865 1.499 . S
C868 C869 1.373 . S
C868 C870 1.389 . S
C869 H848 0.950 . S
C869 C868 1.373 . S
C869 C885 1.377 . S
C870 C868 1.389 . S
C870 C871 1.524 . S
C870 C884 1.377 . S
C871 C870 1.524 . S
C871 C872 1.397 . S
C871 C876 1.363 . S
C872 H849 0.950 . S
C872 C871 1.397 . S
C872 C873 1.334 . S
C873 H850 0.950 . S
C873 C872 1.334 . S
C873 C874 1.287 . S
C874 C873 1.287 . S
C874 C875 1.524 . S
C874 H893 0.913 . S
C875 H851 0.950 . S
C875 C874 1.524 . S
C875 C876 1.415 . S
C876 H852 0.950 . S
C876 C871 1.363 . S
C876 C875 1.415 . S
C877 H853 0.951 . S
C877 C878 1.366 . S
C877 C879 1.388 . S
C878 C877 1.366 . S
C878 C882 1.385 . S
C879 H854 0.951 . S
C879 C877 1.388 . S
C879 C880 1.366 . S
C880 C879 1.366 . S
C880 C881 1.414 . S
C880 C883 1.499 . S
C881 H855 0.950 . S
C881 C880 1.414 . S
C881 C882 1.374 . S
C882 H856 0.950 . S
C882 C878 1.385 . S
C882 C881 1.374 . S
C883 C880 1.499 . S
C883 C884 1.373 . S
C883 C885 1.389 . S
C884 H857 0.950 . S
C884 C870 1.377 . S
C884 C883 1.373 . S
C885 C869 1.377 . S
C885 C883 1.389 . S
C885 C886 1.524 . S
C886 C885 1.524 . S
C886 C887 1.397 . S
C886 C891 1.363 . S
C887 H858 0.950 . S
C887 C886 1.397 . S
C887 C888 1.334 . S
C888 H859 0.950 . S
C888 C887 1.334 . S
C888 C889 1.287 . S
C889 C888 1.287 . S
C889 C890 1.524 . S
C889 H892 0.999 . S
C890 H860 0.950 . S
C890 C889 1.524 . S
C890 C891 1.415 . S
C891 H861 0.950 . S
C891 C886 1.363 . S
C891 C890 1.415 . S
H892 C889 0.999 . S
H893 C874 0.913 . S
H894 C912 0.951 . S
H895 C914 0.951 . S
H896 C916 0.950 . S
H897 C917 0.950 . S
H898 C919 0.950 . S
H899 C922 0.950 . S
H900 C923 0.950 . S
H901 C925 0.950 . S
H902 C926 0.950 . S
H903 C927 0.951 . S
H904 C929 0.951 . S
H905 C931 0.950 . S
H906 C932 0.950 . S
H907 C934 0.950 . S
H908 C937 0.950 . S
H909 C938 0.950 . S
H910 C940 0.950 . S
H911 C941 0.950 . S
C912 H894 0.951 . S
C912 C913 1.366 . S
C912 C914 1.388 . S
C913 C912 1.366 . S
C913 C917 1.385 . S
C914 H895 0.951 . S
C914 C912 1.388 . S
C914 C915 1.366 . S
C915 C914 1.366 . S
C915 C916 1.414 . S
C915 C918 1.499 . S
C916 H896 0.950 . S
C916 C915 1.414 . S
C916 C917 1.374 . S
C917 H897 0.950 . S
C917 C913 1.385 . S
C917 C916 1.374 . S
C918 C915 1.499 . S
C918 C919 1.373 . S
C918 C920 1.389 . S
C919 H898 0.950 . S
C919 C918 1.373 . S
C919 C935 1.377 . S
C920 C918 1.389 . S
C920 C921 1.524 . S
C920 C934 1.377 . S
C921 C920 1.524 . S
C921 C922 1.397 . S
C921 C926 1.363 . S
C922 H899 0.950 . S
C922 C921 1.397 . S
C922 C923 1.334 . S
C923 H900 0.950 . S
C923 C922 1.334 . S
C923 C924 1.287 . S
C924 C923 1.287 . S
C924 C925 1.524 . S
C924 H943 0.913 . S
C925 H901 0.950 . S
C925 C924 1.524 . S
C925 C926 1.415 . S
C926 H902 0.950 . S
C926 C921 1.363 . S
C926 C925 1.415 . S
C927 H903 0.951 . S
C927 C928 1.366 . S
C927 C929 1.388 . S
C928 C927 1.366 . S
C928 C932 1.385 . S
C929 H904 0.951 . S
C929 C927 1.388 . S
C929 C930 1.366 . S
C930 C929 1.366 . S
C930 C931 1.414 . S
C930 C933 1.499 . S
C931 H905 0.950 . S
C931 C930 1.414 . S
C931 C932 1.374 . S
C932 H906 0.950 . S
C932 C928 1.385 . S
C932 C931 1.374 . S
C933 C930 1.499 . S
C933 C934 1.373 . S
C933 C935 1.389 . S
C934 H907 0.950 . S
C934 C920 1.377 . S
C934 C933 1.373 . S
C935 C919 1.377 . S
C935 C933 1.389 . S
C935 C936 1.524 . S
C936 C935 1.524 . S
C936 C937 1.397 . S
C936 C941 1.363 . S
C937 H908 0.950 . S
C937 C936 1.397 . S
C937 C938 1.334 . S
C938 H909 0.950 . S
C938 C937 1.334 . S
C938 C939 1.287 . S
C939 C938 1.287 . S
C939 C940 1.524 . S
C939 H942 0.999 . S
C940 H910 0.950 . S
C940 C939 1.524 . S
C940 C941 1.415 . S
C941 H911 0.950 . S
C941 C936 1.363 . S
C941 C940 1.415 . S
H942 C939 0.999 . S
H943 C924 0.913 . S
H944 C962 0.951 . S
H945 C964 0.951 . S
H946 C966 0.950 . S
H947 C967 0.950 . S
H948 C969 0.950 . S
H949 C972 0.950 . S
H950 C973 0.950 . S
H951 C975 0.950 . S
H952 C976 0.950 . S
H953 C977 0.951 . S
H954 C979 0.951 . S
H955 C981 0.950 . S
H956 C982 0.950 . S
H957 C984 0.950 . S
H958 C987 0.950 . S
H959 C988 0.950 . S
H960 C990 0.950 . S
H961 C991 0.950 . S
C962 H944 0.951 . S
C962 C963 1.366 . S
C962 C964 1.388 . S
C963 C962 1.366 . S
C963 C967 1.385 . S
C964 H945 0.951 . S
C964 C962 1.388 . S
C964 C965 1.366 . S
C965 C964 1.366 . S
C965 C966 1.414 . S
C965 C968 1.499 . S
C966 H946 0.950 . S
C966 C965 1.414 . S
C966 C967 1.374 . S
C967 H947 0.950 . S
C967 C963 1.385 . S
C967 C966 1.374 . S
C968 C965 1.499 . S
C968 C969 1.373 . S
C968 C970 1.389 . S
C969 H948 0.950 . S
C969 C968 1.373 . S
C969 C985 1.377 . S
C970 C968 1.389 . S
C970 C971 1.524 . S
C970 C984 1.377 . S
C971 C970 1.524 . S
C971 C972 1.397 . S
C971 C976 1.363 . S
C972 H949 0.950 . S
C972 C971 1.397 . S
C972 C973 1.334 . S
C973 H950 0.950 . S
C973 C972 1.334 . S
C973 C974 1.287 . S
C974 C973 1.287 . S
C974 C975 1.524 . S
C974 H993 0.913 . S
C975 H951 0.950 . S
C975 C974 1.524 . S
C975 C976 1.415 . S
C976 H952 0.950 . S
C976 C971 1.363 . S
C976 C975 1.415 . S
C977 H953 0.951 . S
C977 C978 1.366 . S
C977 C979 1.388 . S
C978 C977 1.366 . S
C978 C982 1.385 . S
C979 H954 0.951 . S
C979 C977 1.388 . S
C979 C980 1.366 . S
C980 C979 1.366 . S
C980 C981 1.414 . S
C980 C983 1.499 . S
C981 H955 0.950 . S
C981 C980 1.414 . S
C981 C982 1.374 . S
C982 H956 0.950 . S
C982 C978 1.385 . S
C982 C981 1.374 . S
C983 C980 1.499 . S
C983 C984 1.373 . S
C983 C985 1.389 . S
C984 H957 0.950 . S
C984 C970 1.377 . S
C984 C983 1.373 . S
C985 C969 1.377 . S
C985 C983 1.389 . S
C985 C986 1.524 . S
C986 C985 1.524 . S
C986 C987 1.397 . S
C986 C991 1.363 . S
C987 H958 0.950 . S
C987 C986 1.397 . S
C987 C988 1.334 . S
C988 H959 0.950 . S
C988 C987 1.334 . S
C988 C989 1.287 . S
C989 C988 1.287 . S
C989 C990 1.524 . S
C989 H992 0.999 . S
C990 H960 0.950 . S
C990 C989 1.524 . S
C990 C991 1.415 . S
C991 H961 0.950 . S
C991 C986 1.363 . S
C991 C990 1.415 . S
H992 C989 0.999 . S
H993 C974 0.913 . S
H994 C1012 0.951 . S
H995 C1014 0.951 . S
H996 C1016 0.950 . S
H997 C1017 0.950 . S
H998 C1019 0.950 . S
H999 C1022 0.950 . S
H1000 C1023 0.950 . S
H1001 C1025 0.950 . S
H1002 C1026 0.950 . S
H1003 C1027 0.951 . S
H1004 C1029 0.951 . S
H1005 C1031 0.950 . S
H1006 C1032 0.950 . S
H1007 C1034 0.950 . S
H1008 C1037 0.950 . S
H1009 C1038 0.950 . S
H1010 C1040 0.950 . S
H1011 C1041 0.950 . S
C1012 H994 0.951 . S
C1012 C1013 1.366 . S
C1012 C1014 1.388 . S
C1013 C1012 1.366 . S
C1013 C1017 1.385 . S
C1014 H995 0.951 . S
C1014 C1012 1.388 . S
C1014 C1015 1.366 . S
C1015 C1014 1.366 . S
C1015 C1016 1.414 . S
C1015 C1018 1.499 . S
C1016 H996 0.950 . S
C1016 C1015 1.414 . S
C1016 C1017 1.374 . S
C1017 H997 0.950 . S
C1017 C1013 1.385 . S
C1017 C1016 1.374 . S
C1018 C1015 1.499 . S
C1018 C1019 1.373 . S
C1018 C1020 1.389 . S
C1019 H998 0.950 . S
C1019 C1018 1.373 . S
C1019 C1035 1.377 . S
C1020 C1018 1.389 . S
C1020 C1021 1.524 . S
C1020 C1034 1.377 . S
C1021 C1020 1.524 . S
C1021 C1022 1.397 . S
C1021 C1026 1.363 . S
C1022 H999 0.950 . S
C1022 C1021 1.397 . S
C1022 C1023 1.334 . S
C1023 H1000 0.950 . S
C1023 C1022 1.334 . S
C1023 C1024 1.287 . S
C1024 C1023 1.287 . S
C1024 C1025 1.524 . S
C1024 H1043 0.913 . S
C1025 H1001 0.950 . S
C1025 C1024 1.524 . S
C1025 C1026 1.415 . S
C1026 H1002 0.950 . S
C1026 C1021 1.363 . S
C1026 C1025 1.415 . S
C1027 H1003 0.951 . S
C1027 C1028 1.366 . S
C1027 C1029 1.388 . S
C1028 C1027 1.366 . S
C1028 C1032 1.385 . S
C1029 H1004 0.951 . S
C1029 C1027 1.388 . S
C1029 C1030 1.366 . S
C1030 C1029 1.366 . S
C1030 C1031 1.414 . S
C1030 C1033 1.499 . S
C1031 H1005 0.950 . S
C1031 C1030 1.414 . S
C1031 C1032 1.374 . S
C1032 H1006 0.950 . S
C1032 C1028 1.385 . S
C1032 C1031 1.374 . S
C1033 C1030 1.499 . S
C1033 C1034 1.373 . S
C1033 C1035 1.389 . S
C1034 H1007 0.950 . S
C1034 C1020 1.377 . S
C1034 C1033 1.373 . S
C1035 C1019 1.377 . S
C1035 C1033 1.389 . S
C1035 C1036 1.524 . S
C1036 C1035 1.524 . S
C1036 C1037 1.397 . S
C1036 C1041 1.363 . S
C1037 H1008 0.950 . S
C1037 C1036 1.397 . S
C1037 C1038 1.334 1_455 S
C1038 H1009 0.950 . S
C1038 C1037 1.334 1_655 S
C1038 C1039 1.287 . S
C1039 C1038 1.287 . S
C1039 C1040 1.524 . S
C1039 H1042 0.999 . S
C1040 H1010 0.950 . S
C1040 C1039 1.524 . S
C1040 C1041 1.415 1_655 S
C1041 H1011 0.950 . S
C1041 C1036 1.363 . S
C1041 C1040 1.415 1_455 S
H1042 C1039 0.999 . S
H1043 C1024 0.913 . S
H1044 C1062 0.951 . S
H1045 C1064 0.951 . S
H1046 C1066 0.950 . S
H1047 C1067 0.950 . S
H1048 C1069 0.950 . S
H1049 C1072 0.950 . S
H1050 C1073 0.950 . S
H1051 C1075 0.950 . S
H1052 C1076 0.950 . S
H1053 C1077 0.951 . S
H1054 C1079 0.951 . S
H1055 C1081 0.950 . S
H1056 C1082 0.950 . S
H1057 C1084 0.950 . S
H1058 C1087 0.950 . S
H1059 C1088 0.950 . S
H1060 C1090 0.950 . S
H1061 C1091 0.950 . S
C1062 H1044 0.951 . S
C1062 C1063 1.366 . S
C1062 C1064 1.388 . S
C1063 C1062 1.366 . S
C1063 C1067 1.385 . S
C1064 H1045 0.951 . S
C1064 C1062 1.388 . S
C1064 C1065 1.366 . S
C1065 C1064 1.366 . S
C1065 C1066 1.414 . S
C1065 C1068 1.499 . S
C1066 H1046 0.950 . S
C1066 C1065 1.414 . S
C1066 C1067 1.374 . S
C1067 H1047 0.950 . S
C1067 C1063 1.385 . S
C1067 C1066 1.374 . S
C1068 C1065 1.499 . S
C1068 C1069 1.373 . S
C1068 C1070 1.389 . S
C1069 H1048 0.950 . S
C1069 C1068 1.373 . S
C1069 C1085 1.377 . S
C1070 C1068 1.389 . S
C1070 C1071 1.524 . S
C1070 C1084 1.377 . S
C1071 C1070 1.524 . S
C1071 C1072 1.397 . S
C1071 C1076 1.363 . S
C1072 H1049 0.950 . S
C1072 C1071 1.397 . S
C1072 C1073 1.334 . S
C1073 H1050 0.950 . S
C1073 C1072 1.334 . S
C1073 C1074 1.287 . S
C1074 C1073 1.287 . S
C1074 C1075 1.524 . S
C1074 H1093 0.913 . S
C1075 H1051 0.950 . S
C1075 C1074 1.524 . S
C1075 C1076 1.415 . S
C1076 H1052 0.950 . S
C1076 C1071 1.363 . S
C1076 C1075 1.415 . S
C1077 H1053 0.951 . S
C1077 C1078 1.366 . S
C1077 C1079 1.388 . S
C1078 C1077 1.366 . S
C1078 C1082 1.385 . S
C1079 H1054 0.951 . S
C1079 C1077 1.388 . S
C1079 C1080 1.366 . S
C1080 C1079 1.366 . S
C1080 C1081 1.414 . S
C1080 C1083 1.499 . S
C1081 H1055 0.950 . S
C1081 C1080 1.414 . S
C1081 C1082 1.374 . S
C1082 H1056 0.950 . S
C1082 C1078 1.385 . S
C1082 C1081 1.374 . S
C1083 C1080 1.499 . S
C1083 C1084 1.373 . S
C1083 C1085 1.389 . S
C1084 H1057 0.950 . S
C1084 C1070 1.377 . S
C1084 C1083 1.373 . S
C1085 C1069 1.377 . S
C1085 C1083 1.389 . S
C1085 C1086 1.524 . S
C1086 C1085 1.524 . S
C1086 C1087 1.397 . S
C1086 C1091 1.363 . S
C1087 H1058 0.950 . S
C1087 C1086 1.397 . S
C1087 C1088 1.334 . S
C1088 H1059 0.950 . S
C1088 C1087 1.334 . S
C1088 C1089 1.287 . S
C1089 C1088 1.287 . S
C1089 C1090 1.524 . S
C1089 H1092 0.999 . S
C1090 H1060 0.950 . S
C1090 C1089 1.524 . S
C1090 C1091 1.415 . S
C1091 H1061 0.950 . S
C1091 C1086 1.363 . S
C1091 C1090 1.415 . S
H1092 C1089 0.999 . S
H1093 C1074 0.913 . S
H1094 C1112 0.951 . S
H1095 C1114 0.951 . S
H1096 C1116 0.950 . S
H1097 C1117 0.950 . S
H1098 C1119 0.950 . S
H1099 C1122 0.950 . S
H1100 C1123 0.950 . S
H1101 C1125 0.950 . S
H1102 C1126 0.950 . S
H1103 C1127 0.951 1_455 S
H1104 C1129 0.951 . S
H1105 C1131 0.950 . S
H1106 C1132 0.950 . S
H1107 C1134 0.950 . S
H1108 C1137 0.950 . S
H1109 C1138 0.950 . S
H1110 C1140 0.950 . S
H1111 C1141 0.950 . S
C1112 H1094 0.951 . S
C1112 C1113 1.366 . S
C1112 C1114 1.388 . S
C1113 C1112 1.366 . S
C1113 C1117 1.385 . S
C1114 H1095 0.951 . S
C1114 C1112 1.388 . S
C1114 C1115 1.366 . S
C1115 C1114 1.366 . S
C1115 C1116 1.414 . S
C1115 C1118 1.499 . S
C1116 H1096 0.950 . S
C1116 C1115 1.414 . S
C1116 C1117 1.374 . S
C1117 H1097 0.950 . S
C1117 C1113 1.385 . S
C1117 C1116 1.374 . S
C1118 C1115 1.499 . S
C1118 C1119 1.373 . S
C1118 C1120 1.389 . S
C1119 H1098 0.950 . S
C1119 C1118 1.373 . S
C1119 C1135 1.377 . S
C1120 C1118 1.389 . S
C1120 C1121 1.524 . S
C1120 C1134 1.377 . S
C1121 C1120 1.524 . S
C1121 C1122 1.397 . S
C1121 C1126 1.363 . S
C1122 H1099 0.950 . S
C1122 C1121 1.397 . S
C1122 C1123 1.334 . S
C1123 H1100 0.950 . S
C1123 C1122 1.334 . S
C1123 C1124 1.287 . S
C1124 C1123 1.287 . S
C1124 C1125 1.524 . S
C1124 H1143 0.913 . S
C1125 H1101 0.950 . S
C1125 C1124 1.524 . S
C1125 C1126 1.415 . S
C1126 H1102 0.950 . S
C1126 C1121 1.363 . S
C1126 C1125 1.415 . S
C1127 H1103 0.951 1_655 S
C1127 C1128 1.366 . S
C1127 C1129 1.388 . S
C1128 C1127 1.366 . S
C1128 C1132 1.385 . S
C1129 H1104 0.951 . S
C1129 C1127 1.388 . S
C1129 C1130 1.366 . S
C1130 C1129 1.366 . S
C1130 C1131 1.414 . S
C1130 C1133 1.499 . S
C1131 H1105 0.950 . S
C1131 C1130 1.414 . S
C1131 C1132 1.374 . S
C1132 H1106 0.950 . S
C1132 C1128 1.385 . S
C1132 C1131 1.374 . S
C1133 C1130 1.499 . S
C1133 C1134 1.373 . S
C1133 C1135 1.389 . S
C1134 H1107 0.950 . S
C1134 C1120 1.377 . S
C1134 C1133 1.373 . S
C1135 C1119 1.377 . S
C1135 C1133 1.389 . S
C1135 C1136 1.524 . S
C1136 C1135 1.524 . S
C1136 C1137 1.397 . S
C1136 C1141 1.363 . S
C1137 H1108 0.950 . S
C1137 C1136 1.397 . S
C1137 C1138 1.334 . S
C1138 H1109 0.950 . S
C1138 C1137 1.334 . S
C1138 C1139 1.287 . S
C1139 C1138 1.287 . S
C1139 C1140 1.524 . S
C1139 H1142 0.999 . S
C1140 H1110 0.950 . S
C1140 C1139 1.524 . S
C1140 C1141 1.415 . S
C1141 H1111 0.950 . S
C1141 C1136 1.363 . S
C1141 C1140 1.415 . S
H1142 C1139 0.999 . S
H1143 C1124 0.913 . S
H1144 C1162 0.951 . S
H1145 C1164 0.951 . S
H1146 C1166 0.950 . S
H1147 C1167 0.950 . S
H1148 C1169 0.950 . S
H1149 C1172 0.950 . S
H1150 C1173 0.950 . S
H1151 C1175 0.950 . S
H1152 C1176 0.950 . S
H1153 C1177 0.951 . S
H1154 C1179 0.951 . S
H1155 C1181 0.950 . S
H1156 C1182 0.950 . S
H1157 C1184 0.950 . S
H1158 C1187 0.950 . S
H1159 C1188 0.950 . S
H1160 C1190 0.950 . S
H1161 C1191 0.950 . S
C1162 H1144 0.951 . S
C1162 C1163 1.366 . S
C1162 C1164 1.388 . S
C1163 C1162 1.366 . S
C1163 C1167 1.385 . S
C1164 H1145 0.951 . S
C1164 C1162 1.388 . S
C1164 C1165 1.366 . S
C1165 C1164 1.366 . S
C1165 C1166 1.414 . S
C1165 C1168 1.499 . S
C1166 H1146 0.950 . S
C1166 C1165 1.414 . S
C1166 C1167 1.374 . S
C1167 H1147 0.950 . S
C1167 C1163 1.385 . S
C1167 C1166 1.374 . S
C1168 C1165 1.499 . S
C1168 C1169 1.373 . S
C1168 C1170 1.389 . S
C1169 H1148 0.950 . S
C1169 C1168 1.373 . S
C1169 C1185 1.377 . S
C1170 C1168 1.389 . S
C1170 C1171 1.524 . S
C1170 C1184 1.377 . S
C1171 C1170 1.524 . S
C1171 C1172 1.397 . S
C1171 C1176 1.363 . S
C1172 H1149 0.950 . S
C1172 C1171 1.397 . S
C1172 C1173 1.334 . S
C1173 H1150 0.950 . S
C1173 C1172 1.334 . S
C1173 C1174 1.287 . S
C1174 C1173 1.287 . S
C1174 C1175 1.524 . S
C1174 H1193 0.913 . S
C1175 H1151 0.950 . S
C1175 C1174 1.524 . S
C1175 C1176 1.415 . S
C1176 H1152 0.950 . S
C1176 C1171 1.363 . S
C1176 C1175 1.415 . S
C1177 H1153 0.951 . S
C1177 C1178 1.366 . S
C1177 C1179 1.388 1_545 S
C1178 C1177 1.366 . S
C1178 C1182 1.385 . S
C1179 H1154 0.951 . S
C1179 C1177 1.388 1_565 S
C1179 C1180 1.366 . S
C1180 C1179 1.366 . S
C1180 C1181 1.414 1_565 S
C1180 C1183 1.499 . S
C1181 H1155 0.950 . S
C1181 C1180 1.414 1_545 S
C1181 C1182 1.374 . S
C1182 H1156 0.950 . S
C1182 C1178 1.385 . S
C1182 C1181 1.374 . S
C1183 C1180 1.499 . S
C1183 C1184 1.373 . S
C1183 C1185 1.389 . S
C1184 H1157 0.950 . S
C1184 C1170 1.377 . S
C1184 C1183 1.373 . S
C1185 C1169 1.377 . S
C1185 C1183 1.389 . S
C1185 C1186 1.524 . S
C1186 C1185 1.524 . S
C1186 C1187 1.397 . S
C1186 C1191 1.363 . S
C1187 H1158 0.950 . S
C1187 C1186 1.397 . S
C1187 C1188 1.334 . S
C1188 H1159 0.950 . S
C1188 C1187 1.334 . S
C1188 C1189 1.287 . S
C1189 C1188 1.287 . S
C1189 C1190 1.524 . S
C1189 H1192 0.999 . S
C1190 H1160 0.950 . S
C1190 C1189 1.524 . S
C1190 C1191 1.415 . S
C1191 H1161 0.950 . S
C1191 C1186 1.363 . S
C1191 C1190 1.415 . S
H1192 C1189 0.999 . S
H1193 C1174 0.913 . S
H1194 C1212 0.951 . S
H1195 C1214 0.951 . S
H1196 C1216 0.950 . S
H1197 C1217 0.950 . S
H1198 C1219 0.950 . S
H1199 C1222 0.950 . S
H1200 C1223 0.950 . S
H1201 C1225 0.950 . S
H1202 C1226 0.950 . S
H1203 C1227 0.951 . S
H1204 C1229 0.951 . S
H1205 C1231 0.950 . S
H1206 C1232 0.950 . S
H1207 C1234 0.950 . S
H1208 C1237 0.950 . S
H1209 C1238 0.950 . S
H1210 C1240 0.950 . S
H1211 C1241 0.950 . S
C1212 H1194 0.951 . S
C1212 C1213 1.366 . S
C1212 C1214 1.388 . S
C1213 C1212 1.366 . S
C1213 C1217 1.385 . S
C1214 H1195 0.951 . S
C1214 C1212 1.388 . S
C1214 C1215 1.366 . S
C1215 C1214 1.366 . S
C1215 C1216 1.414 . S
C1215 C1218 1.499 . S
C1216 H1196 0.950 . S
C1216 C1215 1.414 . S
C1216 C1217 1.374 . S
C1217 H1197 0.950 . S
C1217 C1213 1.385 . S
C1217 C1216 1.374 . S
C1218 C1215 1.499 . S
C1218 C1219 1.373 . S
C1218 C1220 1.389 . S
C1219 H1198 0.950 . S
C1219 C1218 1.373 . S
C1219 C1235 1.377 . S
C1220 C1218 1.389 . S
C1220 C1221 1.524 . S
C1220 C1234 1.377 . S
C1221 C1220 1.524 . S
C1221 C1222 1.397 . S
C1221 C1226 1.363 . S
C1222 H1199 0.950 . S
C1222 C1221 1.397 . S
C1222 C1223 1.334 . S
C1223 H1200 0.950 . S
C1223 C1222 1.334 . S
C1223 C1224 1.287 . S
C1224 C1223 1.287 . S
C1224 C1225 1.524 . S
C1224 H1243 0.913 . S
C1225 H1201 0.950 . S
C1225 C1224 1.524 . S
C1225 C1226 1.415 . S
C1226 H1202 0.950 . S
C1226 C1221 1.363 . S
C1226 C1225 1.415 . S
C1227 H1203 0.951 . S
C1227 C1228 1.366 . S
C1227 C1229 1.388 . S
C1228 C1227 1.366 . S
C1228 C1232 1.385 . S
C1229 H1204 0.951 . S
C1229 C1227 1.388 . S
C1229 C1230 1.366 . S
C1230 C1229 1.366 . S
C1230 C1231 1.414 . S
C1230 C1233 1.499 . S
C1231 H1205 0.950 . S
C1231 C1230 1.414 . S
C1231 C1232 1.374 . S
C1232 H1206 0.950 . S
C1232 C1228 1.385 . S
C1232 C1231 1.374 . S
C1233 C1230 1.499 . S
C1233 C1234 1.373 . S
C1233 C1235 1.389 . S
C1234 H1207 0.950 . S
C1234 C1220 1.377 . S
C1234 C1233 1.373 . S
C1235 C1219 1.377 . S
C1235 C1233 1.389 . S
C1235 C1236 1.524 . S
C1236 C1235 1.524 . S
C1236 C1237 1.397 . S
C1236 C1241 1.363 . S
C1237 H1208 0.950 . S
C1237 C1236 1.397 . S
C1237 C1238 1.334 . S
C1238 H1209 0.950 . S
C1238 C1237 1.334 . S
C1238 C1239 1.287 . S
C1239 C1238 1.287 . S
C1239 C1240 1.524 . S
C1239 H1242 0.999 . S
C1240 H1210 0.950 . S
C1240 C1239 1.524 . S
C1240 C1241 1.415 . S
C1241 H1211 0.950 . S
C1241 C1236 1.363 . S
C1241 C1240 1.415 . S
H1242 C1239 0.999 . S
H1243 C1224 0.913 . S
H1244 C1262 0.951 . S
H1245 C1264 0.951 . S
H1246 C1266 0.950 . S
H1247 C1267 0.950 . S
H1248 C1269 0.950 . S
H1249 C1272 0.950 . S
H1250 C1273 0.950 . S
H1251 C1275 0.950 . S
H1252 C1276 0.950 . S
H1253 C1277 0.951 . S
H1254 C1279 0.951 . S
H1255 C1281 0.950 . S
H1256 C1282 0.950 . S
H1257 C1284 0.950 1_565 S
H1258 C1287 0.950 . S
H1259 C1288 0.950 . S
H1260 C1290 0.950 . S
H1261 C1291 0.950 . S
C1262 H1244 0.951 . S
C1262 C1263 1.366 . S
C1262 C1264 1.388 . S
C1263 C1262 1.366 . S
C1263 C1267 1.385 . S
C1264 H1245 0.951 . S
C1264 C1262 1.388 . S
C1264 C1265 1.366 . S
C1265 C1264 1.366 . S
C1265 C1266 1.414 . S
C1265 C1268 1.499 . S
C1266 H1246 0.950 . S
C1266 C1265 1.414 . S
C1266 C1267 1.374 . S
C1267 H1247 0.950 . S
C1267 C1263 1.385 . S
C1267 C1266 1.374 . S
C1268 C1265 1.499 . S
C1268 C1269 1.373 1_556 S
C1268 C1270 1.389 . S
C1269 H1248 0.950 . S
C1269 C1268 1.373 1_554 S
C1269 C1285 1.377 . S
C1270 C1268 1.389 . S
C1270 C1271 1.524 . S
C1270 C1284 1.377 . S
C1271 C1270 1.524 . S
C1271 C1272 1.397 . S
C1271 C1276 1.363 1_545 S
C1272 H1249 0.950 . S
C1272 C1271 1.397 . S
C1272 C1273 1.334 . S
C1273 H1250 0.950 . S
C1273 C1272 1.334 . S
C1273 C1274 1.287 1_545 S
C1274 C1273 1.287 1_565 S
C1274 C1275 1.524 . S
C1274 H1293 0.913 . S
C1275 H1251 0.950 . S
C1275 C1274 1.524 . S
C1275 C1276 1.415 . S
C1276 H1252 0.950 . S
C1276 C1271 1.363 1_565 S
C1276 C1275 1.415 . S
C1277 H1253 0.951 . S
C1277 C1278 1.366 . S
C1277 C1279 1.388 1_565 S
C1278 C1277 1.366 . S
C1278 C1282 1.385 . S
C1279 H1254 0.951 . S
C1279 C1277 1.388 1_545 S
C1279 C1280 1.366 1_545 S
C1280 C1279 1.366 1_565 S
C1280 C1281 1.414 . S
C1280 C1283 1.499 1_565 S
C1281 H1255 0.950 . S
C1281 C1280 1.414 . S
C1281 C1282 1.374 . S
C1282 H1256 0.950 . S
C1282 C1278 1.385 . S
C1282 C1281 1.374 . S
C1283 C1280 1.499 1_545 S
C1283 C1284 1.373 1_554 S
C1283 C1285 1.389 . S
C1284 H1257 0.950 1_545 S
C1284 C1270 1.377 . S
C1284 C1283 1.373 1_556 S
C1285 C1269 1.377 . S
C1285 C1283 1.389 . S
C1285 C1286 1.524 . S
C1286 C1285 1.524 . S
C1286 C1287 1.397 . S
C1286 C1291 1.363 . S
C1287 H1258 0.950 . S
C1287 C1286 1.397 . S
C1287 C1288 1.334 . S
C1288 H1259 0.950 . S
C1288 C1287 1.334 . S
C1288 C1289 1.287 . S
C1289 C1288 1.287 . S
C1289 C1290 1.524 . S
C1289 H1292 0.999 . S
C1290 H1260 0.950 . S
C1290 C1289 1.524 . S
C1290 C1291 1.415 . S
C1291 H1261 0.950 . S
C1291 C1286 1.363 . S
C1291 C1290 1.415 . S
H1292 C1289 0.999 . S
H1293 C1274 0.913 . S
H1294 C1312 0.951 . S
H1295 C1314 0.951 . S
H1296 C1316 0.950 . S
H1297 C1317 0.950 . S
H1298 C1319 0.950 . S
H1299 C1322 0.950 . S
H1300 C1323 0.950 . S
H1301 C1325 0.950 . S
H1302 C1326 0.950 . S
H1303 C1327 0.951 . S
H1304 C1329 0.951 . S
H1305 C1331 0.950 . S
H1306 C1332 0.950 . S
H1307 C1334 0.950 . S
H1308 C1337 0.950 . S
H1309 C1338 0.950 . S
H1310 C1340 0.950 . S
H1311 C1341 0.950 . S
C1312 H1294 0.951 . S
C1312 C1313 1.366 . S
C1312 C1314 1.388 . S
C1313 C1312 1.366 . S
C1313 C1317 1.385 . S
C1314 H1295 0.951 . S
C1314 C1312 1.388 . S
C1314 C1315 1.366 . S
C1315 C1314 1.366 . S
C1315 C1316 1.414 . S
C1315 C1318 1.499 . S
C1316 H1296 0.950 . S
C1316 C1315 1.414 . S
C1316 C1317 1.374 . S
C1317 H1297 0.950 . S
C1317 C1313 1.385 . S
C1317 C1316 1.374 . S
C1318 C1315 1.499 . S
C1318 C1319 1.373 . S
C1318 C1320 1.389 . S
C1319 H1298 0.950 . S
C1319 C1318 1.373 . S
C1319 C1335 1.377 . S
C1320 C1318 1.389 . S
C1320 C1321 1.524 . S
C1320 C1334 1.377 . S
C1321 C1320 1.524 . S
C1321 C1322 1.397 . S
C1321 C1326 1.363 . S
C1322 H1299 0.950 . S
C1322 C1321 1.397 . S
C1322 C1323 1.334 . S
C1323 H1300 0.950 . S
C1323 C1322 1.334 . S
C1323 C1324 1.287 . S
C1324 C1323 1.287 . S
C1324 C1325 1.524 . S
C1324 H1343 0.913 . S
C1325 H1301 0.950 . S
C1325 C1324 1.524 . S
C1325 C1326 1.415 . S
C1326 H1302 0.950 . S
C1326 C1321 1.363 . S
C1326 C1325 1.415 . S
C1327 H1303 0.951 . S
C1327 C1328 1.366 . S
C1327 C1329 1.388 . S
C1328 C1327 1.366 . S
C1328 C1332 1.385 . S
C1329 H1304 0.951 . S
C1329 C1327 1.388 . S
C1329 C1330 1.366 . S
C1330 C1329 1.366 . S
C1330 C1331 1.414 . S
C1330 C1333 1.499 . S
C1331 H1305 0.950 . S
C1331 C1330 1.414 . S
C1331 C1332 1.374 . S
C1332 H1306 0.950 . S
C1332 C1328 1.385 . S
C1332 C1331 1.374 . S
C1333 C1330 1.499 . S
C1333 C1334 1.373 . S
C1333 C1335 1.389 . S
C1334 H1307 0.950 . S
C1334 C1320 1.377 . S
C1334 C1333 1.373 . S
C1335 C1319 1.377 . S
C1335 C1333 1.389 . S
C1335 C1336 1.524 . S
C1336 C1335 1.524 . S
C1336 C1337 1.397 . S
C1336 C1341 1.363 . S
C1337 H1308 0.950 . S
C1337 C1336 1.397 . S
C1337 C1338 1.334 . S
C1338 H1309 0.950 . S
C1338 C1337 1.334 . S
C1338 C1339 1.287 . S
C1339 C1338 1.287 . S
C1339 C1340 1.524 . S
C1339 H1342 0.999 . S
C1340 H1310 0.950 . S
C1340 C1339 1.524 . S
C1340 C1341 1.415 . S
C1341 H1311 0.950 . S
C1341 C1336 1.363 . S
C1341 C1340 1.415 . S
H1342 C1339 0.999 . S
H1343 C1324 0.913 . S
H1344 C1362 0.951 . S
H1345 C1364 0.951 . S
H1346 C1366 0.952 1_565 S
H1347 C1367 0.950 . S
H1348 C1369 0.950 . S
H1349 C1372 0.950 . S
H1350 C1373 0.950 . S
H1351 C1375 0.950 . S
H1352 C1376 0.950 . S
H1353 C1377 0.951 . S
H1354 C1379 0.951 . S
H1355 C1381 0.950 . S
H1356 C1382 0.950 . S
H1357 C1384 0.950 . S
H1358 C1387 0.950 . S
H1359 C1388 0.950 . S
H1360 C1390 0.950 . S
H1361 C1391 0.950 . S
C1362 H1344 0.951 . S
C1362 C1363 1.366 1_545 S
C1362 C1364 1.388 . S
C1363 C1362 1.366 1_565 S
C1363 C1367 1.385 . S
C1364 H1345 0.951 . S
C1364 C1362 1.388 . S
C1364 C1365 1.366 . S
C1365 C1364 1.366 . S
C1365 C1366 1.414 . S
C1365 C1368 1.499 . S
C1366 H1346 0.952 1_545 S
C1366 C1365 1.414 . S
C1366 C1367 1.374 1_545 S
C1367 H1347 0.950 . S
C1367 C1363 1.385 . S
C1367 C1366 1.374 1_565 S
C1368 C1365 1.499 . S
C1368 C1369 1.373 . S
C1368 C1370 1.389 . S
C1369 H1348 0.950 . S
C1369 C1368 1.373 . S
C1369 C1385 1.377 . S
C1370 C1368 1.389 . S
C1370 C1371 1.524 . S
C1370 C1384 1.377 . S
C1371 C1370 1.524 . S
C1371 C1372 1.397 . S
C1371 C1376 1.363 . S
C1372 H1349 0.950 . S
C1372 C1371 1.397 . S
C1372 C1373 1.334 . S
C1373 H1350 0.950 . S
C1373 C1372 1.334 . S
C1373 C1374 1.287 . S
C1374 C1373 1.287 . S
C1374 C1375 1.524 . S
C1374 H1393 0.913 . S
C1375 H1351 0.950 . S
C1375 C1374 1.524 . S
C1375 C1376 1.415 . S
C1376 H1352 0.950 . S
C1376 C1371 1.363 . S
C1376 C1375 1.415 . S
C1377 H1353 0.951 . S
C1377 C1378 1.366 . S
C1377 C1379 1.388 . S
C1378 C1377 1.366 . S
C1378 C1382 1.385 . S
C1379 H1354 0.951 . S
C1379 C1377 1.388 . S
C1379 C1380 1.366 . S
C1380 C1379 1.366 . S
C1380 C1381 1.414 . S
C1380 C1383 1.499 . S
C1381 H1355 0.950 . S
C1381 C1380 1.414 . S
C1381 C1382 1.374 . S
C1382 H1356 0.950 . S
C1382 C1378 1.385 . S
C1382 C1381 1.374 . S
C1383 C1380 1.499 . S
C1383 C1384 1.373 . S
C1383 C1385 1.389 . S
C1384 H1357 0.950 . S
C1384 C1370 1.377 . S
C1384 C1383 1.373 . S
C1385 C1369 1.377 . S
C1385 C1383 1.389 . S
C1385 C1386 1.524 . S
C1386 C1385 1.524 . S
C1386 C1387 1.397 . S
C1386 C1391 1.363 . S
C1387 H1358 0.950 . S
C1387 C1386 1.397 . S
C1387 C1388 1.334 . S
C1388 H1359 0.950 . S
C1388 C1387 1.334 . S
C1388 C1389 1.287 . S
C1389 C1388 1.287 . S
C1389 C1390 1.524 . S
C1389 H1392 0.999 . S
C1390 H1360 0.950 . S
C1390 C1389 1.524 . S
C1390 C1391 1.415 . S
C1391 H1361 0.950 . S
C1391 C1386 1.363 . S
C1391 C1390 1.415 . S
H1392 C1389 0.999 . S
H1393 C1374 0.913 . S
H1394 C1412 0.951 . S
H1395 C1414 0.951 . S
H1396 C1416 0.950 . S
H1397 C1417 0.950 . S
H1398 C1419 0.950 . S
H1399 C1422 0.950 . S
H1400 C1423 0.950 . S
H1401 C1425 0.950 . S
H1402 C1426 0.950 . S
H1403 C1427 0.951 . S
H1404 C1429 0.951 . S
H1405 C1431 0.950 . S
H1406 C1432 0.950 . S
H1407 C1434 0.950 . S
H1408 C1437 0.950 . S
H1409 C1438 0.950 . S
H1410 C1440 0.950 . S
H1411 C1441 0.950 . S
C1412 H1394 0.951 . S
C1412 C1413 1.366 . S
C1412 C1414 1.388 . S
C1413 C1412 1.366 . S
C1413 C1417 1.385 . S
C1414 H1395 0.951 . S
C1414 C1412 1.388 . S
C1414 C1415 1.366 . S
C1415 C1414 1.366 . S
C1415 C1416 1.414 . S
C1415 C1418 1.499 . S
C1416 H1396 0.950 . S
C1416 C1415 1.414 . S
C1416 C1417 1.374 . S
C1417 H1397 0.950 . S
C1417 C1413 1.385 . S
C1417 C1416 1.374 . S
C1418 C1415 1.499 . S
C1418 C1419 1.373 . S
C1418 C1420 1.389 . S
C1419 H1398 0.950 . S
C1419 C1418 1.373 . S
C1419 C1435 1.377 . S
C1420 C1418 1.389 . S
C1420 C1421 1.524 . S
C1420 C1434 1.377 . S
C1421 C1420 1.524 . S
C1421 C1422 1.397 . S
C1421 C1426 1.363 . S
C1422 H1399 0.950 . S
C1422 C1421 1.397 . S
C1422 C1423 1.334 . S
C1423 H1400 0.950 . S
C1423 C1422 1.334 . S
C1423 C1424 1.287 . S
C1424 C1423 1.287 . S
C1424 C1425 1.524 . S
C1424 H1443 0.913 . S
C1425 H1401 0.950 . S
C1425 C1424 1.524 . S
C1425 C1426 1.415 . S
C1426 H1402 0.950 . S
C1426 C1421 1.363 . S
C1426 C1425 1.415 . S
C1427 H1403 0.951 . S
C1427 C1428 1.366 . S
C1427 C1429 1.388 . S
C1428 C1427 1.366 . S
C1428 C1432 1.385 . S
C1429 H1404 0.951 . S
C1429 C1427 1.388 . S
C1429 C1430 1.366 . S
C1430 C1429 1.366 . S
C1430 C1431 1.414 . S
C1430 C1433 1.499 . S
C1431 H1405 0.950 . S
C1431 C1430 1.414 . S
C1431 C1432 1.374 . S
C1432 H1406 0.950 . S
C1432 C1428 1.385 . S
C1432 C1431 1.374 . S
C1433 C1430 1.499 . S
C1433 C1434 1.373 . S
C1433 C1435 1.389 . S
C1434 H1407 0.950 . S
C1434 C1420 1.377 . S
C1434 C1433 1.373 . S
C1435 C1419 1.377 . S
C1435 C1433 1.389 . S
C1435 C1436 1.524 . S
C1436 C1435 1.524 . S
C1436 C1437 1.397 . S
C1436 C1441 1.363 . S
C1437 H1408 0.950 . S
C1437 C1436 1.397 . S
C1437 C1438 1.334 . S
C1438 H1409 0.950 . S
C1438 C1437 1.334 . S
C1438 C1439 1.287 . S
C1439 C1438 1.287 . S
C1439 C1440 1.524 . S
C1439 H1442 0.999 . S
C1440 H1410 0.950 . S
C1440 C1439 1.524 . S
C1440 C1441 1.415 . S
C1441 H1411 0.950 . S
C1441 C1436 1.363 . S
C1441 C1440 1.415 . S
H1442 C1439 0.999 . S
H1443 C1424 0.913 . S
H1444 C1462 0.951 1_545 S
H1445 C1464 0.951 . S
H1446 C1466 0.950 . S
H1447 C1467 0.950 . S
H1448 C1469 0.950 . S
H1449 C1472 0.950 . S
H1450 C1473 0.950 . S
H1451 C1475 0.950 . S
H1452 C1476 0.950 . S
H1453 C1477 0.951 . S
H1454 C1479 0.951 . S
H1455 C1481 0.950 . S
H1456 C1482 0.950 . S
H1457 C1484 0.950 . S
H1458 C1487 0.950 . S
H1459 C1488 0.950 . S
H1460 C1490 0.950 . S
H1461 C1491 0.950 . S
C1462 H1444 0.951 1_565 S
C1462 C1463 1.366 . S
C1462 C1464 1.388 1_565 S
C1463 C1462 1.366 . S
C1463 C1467 1.385 . S
C1464 H1445 0.951 . S
C1464 C1462 1.388 1_545 S
C1464 C1465 1.366 . S
C1465 C1464 1.366 . S
C1465 C1466 1.414 1_545 S
C1465 C1468 1.499 . S
C1466 H1446 0.950 . S
C1466 C1465 1.414 1_565 S
C1466 C1467 1.374 . S
C1467 H1447 0.950 . S
C1467 C1463 1.385 . S
C1467 C1466 1.374 . S
C1468 C1465 1.499 . S
C1468 C1469 1.373 . S
C1468 C1470 1.389 . S
C1469 H1448 0.950 . S
C1469 C1468 1.373 . S
C1469 C1485 1.377 . S
C1470 C1468 1.389 . S
C1470 C1471 1.524 . S
C1470 C1484 1.377 . S
C1471 C1470 1.524 . S
C1471 C1472 1.397 . S
C1471 C1476 1.363 . S
C1472 H1449 0.950 . S
C1472 C1471 1.397 . S
C1472 C1473 1.334 . S
C1473 H1450 0.950 . S
C1473 C1472 1.334 . S
C1473 C1474 1.287 . S
C1474 C1473 1.287 . S
C1474 C1475 1.524 . S
C1474 H1493 0.913 . S
C1475 H1451 0.950 . S
C1475 C1474 1.524 . S
C1475 C1476 1.415 . S
C1476 H1452 0.950 . S
C1476 C1471 1.363 . S
C1476 C1475 1.415 . S
C1477 H1453 0.951 . S
C1477 C1478 1.366 . S
C1477 C1479 1.388 . S
C1478 C1477 1.366 . S
C1478 C1482 1.385 . S
C1479 H1454 0.951 . S
C1479 C1477 1.388 . S
C1479 C1480 1.366 . S
C1480 C1479 1.366 . S
C1480 C1481 1.414 . S
C1480 C1483 1.499 . S
C1481 H1455 0.950 . S
C1481 C1480 1.414 . S
C1481 C1482 1.374 . S
C1482 H1456 0.950 . S
C1482 C1478 1.385 . S
C1482 C1481 1.374 . S
C1483 C1480 1.499 . S
C1483 C1484 1.373 . S
C1483 C1485 1.389 . S
C1484 H1457 0.950 . S
C1484 C1470 1.377 . S
C1484 C1483 1.373 . S
C1485 C1469 1.377 . S
C1485 C1483 1.389 . S
C1485 C1486 1.524 . S
C1486 C1485 1.524 . S
C1486 C1487 1.397 . S
C1486 C1491 1.363 . S
C1487 H1458 0.950 . S
C1487 C1486 1.397 . S
C1487 C1488 1.334 . S
C1488 H1459 0.950 . S
C1488 C1487 1.334 . S
C1488 C1489 1.287 . S
C1489 C1488 1.287 . S
C1489 C1490 1.524 . S
C1489 H1492 0.999 . S
C1490 H1460 0.950 . S
C1490 C1489 1.524 . S
C1490 C1491 1.415 . S
C1491 H1461 0.950 . S
C1491 C1486 1.363 . S
C1491 C1490 1.415 . S
H1492 C1489 0.999 . S
H1493 C1474 0.913 . S
H1494 C1512 0.951 . S
H1495 C1514 0.951 . S
H1496 C1516 0.950 . S
H1497 C1517 0.950 . S
H1498 C1519 0.950 . S
H1499 C1522 0.950 . S
H1500 C1523 0.950 . S
H1501 C1525 0.950 . S
H1502 C1526 0.950 . S
H1503 C1527 0.951 . S
H1504 C1529 0.951 . S
H1505 C1531 0.950 . S
H1506 C1532 0.950 . S
H1507 C1534 0.950 . S
H1508 C1537 0.950 . S
H1509 C1538 0.950 . S
H1510 C1540 0.950 . S
H1511 C1541 0.950 . S
C1512 H1494 0.951 . S
C1512 C1513 1.366 . S
C1512 C1514 1.388 . S
C1513 C1512 1.366 . S
C1513 C1517 1.385 . S
C1514 H1495 0.951 . S
C1514 C1512 1.388 . S
C1514 C1515 1.366 . S
C1515 C1514 1.366 . S
C1515 C1516 1.414 . S
C1515 C1518 1.499 . S
C1516 H1496 0.950 . S
C1516 C1515 1.414 . S
C1516 C1517 1.374 . S
C1517 H1497 0.950 . S
C1517 C1513 1.385 . S
C1517 C1516 1.374 . S
C1518 C1515 1.499 . S
C1518 C1519 1.373 . S
C1518 C1520 1.389 . S
C1519 H1498 0.950 . S
C1519 C1518 1.373 . S
C1519 C1535 1.377 . S
C1520 C1518 1.389 . S
C1520 C1521 1.524 . S
C1520 C1534 1.377 . S
C1521 C1520 1.524 . S
C1521 C1522 1.397 . S
C1521 C1526 1.363 . S
C1522 H1499 0.950 . S
C1522 C1521 1.397 . S
C1522 C1523 1.334 . S
C1523 H1500 0.950 . S
C1523 C1522 1.334 . S
C1523 C1524 1.287 . S
C1524 C1523 1.287 . S
C1524 C1525 1.524 . S
C1524 H1543 0.913 . S
C1525 H1501 0.950 . S
C1525 C1524 1.524 . S
C1525 C1526 1.415 . S
C1526 H1502 0.950 . S
C1526 C1521 1.363 . S
C1526 C1525 1.415 . S
C1527 H1503 0.951 . S
C1527 C1528 1.366 . S
C1527 C1529 1.388 . S
C1528 C1527 1.366 . S
C1528 C1532 1.385 . S
C1529 H1504 0.951 . S
C1529 C1527 1.388 . S
C1529 C1530 1.366 . S
C1530 C1529 1.366 . S
C1530 C1531 1.414 . S
C1530 C1533 1.499 . S
C1531 H1505 0.950 . S
C1531 C1530 1.414 . S
C1531 C1532 1.374 . S
C1532 H1506 0.950 . S
C1532 C1528 1.385 . S
C1532 C1531 1.374 . S
C1533 C1530 1.499 . S
C1533 C1534 1.373 . S
C1533 C1535 1.389 . S
C1534 H1507 0.950 . S
C1534 C1520 1.377 . S
C1534 C1533 1.373 . S
C1535 C1519 1.377 . S
C1535 C1533 1.389 . S
C1535 C1536 1.524 . S
C1536 C1535 1.524 . S
C1536 C1537 1.397 . S
C1536 C1541 1.363 . S
C1537 H1508 0.950 . S
C1537 C1536 1.397 . S
C1537 C1538 1.334 . S
C1538 H1509 0.950 . S
C1538 C1537 1.334 . S
C1538 C1539 1.287 . S
C1539 C1538 1.287 . S
C1539 C1540 1.524 . S
C1539 H1542 0.999 . S
C1540 H1510 0.950 . S
C1540 C1539 1.524 . S
C1540 C1541 1.415 . S
C1541 H1511 0.950 . S
C1541 C1536 1.363 . S
C1541 C1540 1.415 . S
H1542 C1539 0.999 . S
H1543 C1524 0.913 . S
H1544 C1562 0.951 . S
H1545 C1564 0.951 . S
H1546 C1566 0.950 . S
H1547 C1567 0.950 . S
H1548 C1569 0.950 . S
H1549 C1572 0.950 . S
H1550 C1573 0.950 . S
H1551 C1575 0.950 . S
H1552 C1576 0.950 . S
H1553 C1577 0.951 . S
H1554 C1579 0.951 . S
H1555 C1581 0.950 . S
H1556 C1582 0.950 . S
H1557 C1584 0.950 . S
H1558 C1587 0.950 . S
H1559 C1588 0.950 . S
H1560 C1590 0.950 . S
H1561 C1591 0.950 . S
C1562 H1544 0.951 . S
C1562 C1563 1.366 . S
C1562 C1564 1.388 . S
C1563 C1562 1.366 . S
C1563 C1567 1.385 . S
C1564 H1545 0.951 . S
C1564 C1562 1.388 . S
C1564 C1565 1.366 . S
C1565 C1564 1.366 . S
C1565 C1566 1.414 . S
C1565 C1568 1.499 . S
C1566 H1546 0.950 . S
C1566 C1565 1.414 . S
C1566 C1567 1.374 . S
C1567 H1547 0.950 . S
C1567 C1563 1.385 . S
C1567 C1566 1.374 . S
C1568 C1565 1.499 . S
C1568 C1569 1.373 . S
C1568 C1570 1.389 . S
C1569 H1548 0.950 . S
C1569 C1568 1.373 . S
C1569 C1585 1.377 . S
C1570 C1568 1.389 . S
C1570 C1571 1.524 . S
C1570 C1584 1.377 . S
C1571 C1570 1.524 . S
C1571 C1572 1.397 . S
C1571 C1576 1.363 . S
C1572 H1549 0.950 . S
C1572 C1571 1.397 . S
C1572 C1573 1.334 . S
C1573 H1550 0.950 . S
C1573 C1572 1.334 . S
C1573 C1574 1.287 . S
C1574 C1573 1.287 . S
C1574 C1575 1.524 . S
C1574 H1593 0.913 . S
C1575 H1551 0.950 . S
C1575 C1574 1.524 . S
C1575 C1576 1.415 . S
C1576 H1552 0.950 . S
C1576 C1571 1.363 . S
C1576 C1575 1.415 . S
C1577 H1553 0.951 . S
C1577 C1578 1.366 . S
C1577 C1579 1.388 . S
C1578 C1577 1.366 . S
C1578 C1582 1.385 . S
C1579 H1554 0.951 . S
C1579 C1577 1.388 . S
C1579 C1580 1.366 . S
C1580 C1579 1.366 . S
C1580 C1581 1.414 . S
C1580 C1583 1.499 . S
C1581 H1555 0.950 . S
C1581 C1580 1.414 . S
C1581 C1582 1.374 . S
C1582 H1556 0.950 . S
C1582 C1578 1.385 . S
C1582 C1581 1.374 . S
C1583 C1580 1.499 . S
C1583 C1584 1.373 . S
C1583 C1585 1.389 . S
C1584 H1557 0.950 . S
C1584 C1570 1.377 . S
C1584 C1583 1.373 . S
C1585 C1569 1.377 . S
C1585 C1583 1.389 . S
C1585 C1586 1.524 . S
C1586 C1585 1.524 . S
C1586 C1587 1.397 . S
C1586 C1591 1.363 . S
C1587 H1558 0.950 . S
C1587 C1586 1.397 . S
C1587 C1588 1.334 . S
C1588 H1559 0.950 . S
C1588 C1587 1.334 . S
C1588 C1589 1.287 . S
C1589 C1588 1.287 . S
C1589 C1590 1.524 . S
C1589 H1592 0.999 . S
C1590 H1560 0.950 . S
C1590 C1589 1.524 . S
C1590 C1591 1.415 . S
C1591 H1561 0.950 . S
C1591 C1586 1.363 . S
C1591 C1590 1.415 . S
H1592 C1589 0.999 . S
H1593 C1574 0.913 . S
H1594 C1612 0.951 . S
H1595 C1614 0.951 . S
H1596 C1616 0.950 . S
H1597 C1617 0.950 . S
H1598 C1619 0.950 . S
H1599 C1622 0.950 . S
H1600 C1623 0.950 . S
H1601 C1625 0.950 . S
H1602 C1626 0.950 . S
H1603 C1627 0.951 . S
H1604 C1629 0.951 . S
H1605 C1631 0.950 . S
H1606 C1632 0.950 . S
H1607 C1634 0.950 . S
H1608 C1637 0.950 . S
H1609 C1638 0.950 . S
H1610 C1640 0.950 . S
H1611 C1641 0.950 . S
C1612 H1594 0.951 . S
C1612 C1613 1.366 . S
C1612 C1614 1.388 . S
C1613 C1612 1.366 . S
C1613 C1617 1.385 . S
C1614 H1595 0.951 . S
C1614 C1612 1.388 . S
C1614 C1615 1.366 . S
C1615 C1614 1.366 . S
C1615 C1616 1.414 . S
C1615 C1618 1.499 . S
C1616 H1596 0.950 . S
C1616 C1615 1.414 . S
C1616 C1617 1.374 . S
C1617 H1597 0.950 . S
C1617 C1613 1.385 . S
C1617 C1616 1.374 . S
C1618 C1615 1.499 . S
C1618 C1619 1.373 . S
C1618 C1620 1.389 . S
C1619 H1598 0.950 . S
C1619 C1618 1.373 . S
C1619 C1635 1.377 . S
C1620 C1618 1.389 . S
C1620 C1621 1.524 . S
C1620 C1634 1.377 . S
C1621 C1620 1.524 . S
C1621 C1622 1.397 . S
C1621 C1626 1.363 . S
C1622 H1599 0.950 . S
C1622 C1621 1.397 . S
C1622 C1623 1.334 . S
C1623 H1600 0.950 . S
C1623 C1622 1.334 . S
C1623 C1624 1.287 1_545 S
C1624 C1623 1.287 1_565 S
C1624 C1625 1.524 . S
C1624 H1643 0.913 . S
C1625 H1601 0.950 . S
C1625 C1624 1.524 . S
C1625 C1626 1.415 1_565 S
C1626 H1602 0.950 . S
C1626 C1621 1.363 . S
C1626 C1625 1.415 1_545 S
C1627 H1603 0.951 . S
C1627 C1628 1.366 . S
C1627 C1629 1.388 . S
C1628 C1627 1.366 . S
C1628 C1632 1.385 . S
C1629 H1604 0.951 . S
C1629 C1627 1.388 . S
C1629 C1630 1.366 . S
C1630 C1629 1.366 . S
C1630 C1631 1.414 . S
C1630 C1633 1.499 . S
C1631 H1605 0.950 . S
C1631 C1630 1.414 . S
C1631 C1632 1.374 . S
C1632 H1606 0.950 . S
C1632 C1628 1.385 . S
C1632 C1631 1.374 . S
C1633 C1630 1.499 . S
C1633 C1634 1.373 . S
C1633 C1635 1.389 . S
C1634 H1607 0.950 . S
C1634 C1620 1.377 . S
C1634 C1633 1.373 . S
C1635 C1619 1.377 . S
C1635 C1633 1.389 . S
C1635 C1636 1.524 . S
C1636 C1635 1.524 . S
C1636 C1637 1.397 . S
C1636 C1641 1.363 . S
C1637 H1608 0.950 . S
C1637 C1636 1.397 . S
C1637 C1638 1.334 . S
C1638 H1609 0.950 . S
C1638 C1637 1.334 . S
C1638 C1639 1.287 . S
C1639 C1638 1.287 . S
C1639 C1640 1.524 . S
C1639 H1642 0.999 . S
C1640 H1610 0.950 . S
C1640 C1639 1.524 . S
C1640 C1641 1.415 . S
C1641 H1611 0.950 . S
C1641 C1636 1.363 . S
C1641 C1640 1.415 . S
H1642 C1639 0.999 . S
H1643 C1624 0.913 . S
H1644 C1662 0.951 . S
H1645 C1664 0.951 . S
H1646 C1666 0.950 . S
H1647 C1667 0.950 . S
H1648 C1669 0.950 . S
H1649 C1672 0.950 . S
H1650 C1673 0.950 . S
H1651 C1675 0.950 . S
H1652 C1676 0.950 . S
H1653 C1677 0.951 . S
H1654 C1679 0.951 . S
H1655 C1681 0.950 . S
H1656 C1682 0.950 . S
H1657 C1684 0.950 . S
H1658 C1687 0.950 . S
H1659 C1688 0.950 . S
H1660 C1690 0.950 . S
H1661 C1691 0.950 . S
C1662 H1644 0.951 . S
C1662 C1663 1.366 . S
C1662 C1664 1.388 . S
C1663 C1662 1.366 . S
C1663 C1667 1.385 . S
C1664 H1645 0.951 . S
C1664 C1662 1.388 . S
C1664 C1665 1.366 . S
C1665 C1664 1.366 . S
C1665 C1666 1.414 . S
C1665 C1668 1.499 . S
C1666 H1646 0.950 . S
C1666 C1665 1.414 . S
C1666 C1667 1.374 . S
C1667 H1647 0.950 . S
C1667 C1663 1.385 . S
C1667 C1666 1.374 . S
C1668 C1665 1.499 . S
C1668 C1669 1.373 . S
C1668 C1670 1.389 . S
C1669 H1648 0.950 . S
C1669 C1668 1.373 . S
C1669 C1685 1.377 . S
C1670 C1668 1.389 . S
C1670 C1671 1.524 . S
C1670 C1684 1.377 . S
C1671 C1670 1.524 . S
C1671 C1672 1.397 . S
C1671 C1676 1.363 . S
C1672 H1649 0.950 . S
C1672 C1671 1.397 . S
C1672 C1673 1.334 . S
C1673 H1650 0.950 . S
C1673 C1672 1.334 . S
C1673 C1674 1.287 . S
C1674 C1673 1.287 . S
C1674 C1675 1.524 . S
C1674 H1693 0.913 . S
C1675 H1651 0.950 . S
C1675 C1674 1.524 . S
C1675 C1676 1.415 . S
C1676 H1652 0.950 . S
C1676 C1671 1.363 . S
C1676 C1675 1.415 . S
C1677 H1653 0.951 . S
C1677 C1678 1.366 . S
C1677 C1679 1.388 . S
C1678 C1677 1.366 . S
C1678 C1682 1.385 . S
C1679 H1654 0.951 . S
C1679 C1677 1.388 . S
C1679 C1680 1.366 . S
C1680 C1679 1.366 . S
C1680 C1681 1.414 . S
C1680 C1683 1.499 . S
C1681 H1655 0.950 . S
C1681 C1680 1.414 . S
C1681 C1682 1.374 . S
C1682 H1656 0.950 . S
C1682 C1678 1.385 . S
C1682 C1681 1.374 . S
C1683 C1680 1.499 . S
C1683 C1684 1.373 . S
C1683 C1685 1.389 . S
C1684 H1657 0.950 . S
C1684 C1670 1.377 . S
C1684 C1683 1.373 . S
C1685 C1669 1.377 . S
C1685 C1683 1.389 . S
C1685 C1686 1.524 . S
C1686 C1685 1.524 . S
C1686 C1687 1.397 . S
C1686 C1691 1.363 . S
C1687 H1658 0.950 . S
C1687 C1686 1.397 . S
C1687 C1688 1.334 . S
C1688 H1659 0.950 . S
C1688 C1687 1.334 . S
C1688 C1689 1.287 . S
C1689 C1688 1.287 . S
C1689 C1690 1.524 . S
C1689 H1692 0.999 . S
C1690 H1660 0.950 . S
C1690 C1689 1.524 . S
C1690 C1691 1.415 . S
C1691 H1661 0.950 . S
C1691 C1686 1.363 . S
C1691 C1690 1.415 . S
H1692 C1689 0.999 . S
H1693 C1674 0.913 . S
H1694 C1712 0.951 . S
H1695 C1714 0.951 . S
H1696 C1716 0.950 . S
H1697 C1717 0.950 . S
H1698 C1719 0.950 . S
H1699 C1722 0.950 . S
H1700 C1723 0.950 . S
H1701 C1725 0.950 . S
H1702 C1726 0.950 . S
H1703 C1727 0.951 . S
H1704 C1729 0.951 . S
H1705 C1731 0.950 . S
H1706 C1732 0.950 . S
H1707 C1734 0.950 . S
H1708 C1737 0.950 . S
H1709 C1738 0.950 . S
H1710 C1740 0.950 . S
H1711 C1741 0.950 . S
C1712 H1694 0.951 . S
C1712 C1713 1.366 . S
C1712 C1714 1.388 . S
C1713 C1712 1.366 . S
C1713 C1717 1.385 . S
C1714 H1695 0.951 . S
C1714 C1712 1.388 . S
C1714 C1715 1.366 . S
C1715 C1714 1.366 . S
C1715 C1716 1.414 . S
C1715 C1718 1.499 . S
C1716 H1696 0.950 . S
C1716 C1715 1.414 . S
C1716 C1717 1.374 . S
C1717 H1697 0.950 . S
C1717 C1713 1.385 . S
C1717 C1716 1.374 . S
C1718 C1715 1.499 . S
C1718 C1719 1.373 . S
C1718 C1720 1.389 . S
C1719 H1698 0.950 . S
C1719 C1718 1.373 . S
C1719 C1735 1.377 . S
C1720 C1718 1.389 . S
C1720 C1721 1.524 . S
C1720 C1734 1.377 . S
C1721 C1720 1.524 . S
C1721 C1722 1.397 . S
C1721 C1726 1.363 . S
C1722 H1699 0.950 . S
C1722 C1721 1.397 . S
C1722 C1723 1.334 . S
C1723 H1700 0.950 . S
C1723 C1722 1.334 . S
C1723 C1724 1.287 . S
C1724 C1723 1.287 . S
C1724 C1725 1.524 . S
C1724 H1743 0.913 . S
C1725 H1701 0.950 . S
C1725 C1724 1.524 . S
C1725 C1726 1.415 . S
C1726 H1702 0.950 . S
C1726 C1721 1.363 . S
C1726 C1725 1.415 . S
C1727 H1703 0.951 . S
C1727 C1728 1.366 . S
C1727 C1729 1.388 . S
C1728 C1727 1.366 . S
C1728 C1732 1.385 . S
C1729 H1704 0.951 . S
C1729 C1727 1.388 . S
C1729 C1730 1.366 . S
C1730 C1729 1.366 . S
C1730 C1731 1.414 . S
C1730 C1733 1.499 . S
C1731 H1705 0.950 . S
C1731 C1730 1.414 . S
C1731 C1732 1.374 . S
C1732 H1706 0.950 . S
C1732 C1728 1.385 . S
C1732 C1731 1.374 . S
C1733 C1730 1.499 . S
C1733 C1734 1.373 . S
C1733 C1735 1.389 . S
C1734 H1707 0.950 . S
C1734 C1720 1.377 . S
C1734 C1733 1.373 . S
C1735 C1719 1.377 . S
C1735 C1733 1.389 . S
C1735 C1736 1.524 . S
C1736 C1735 1.524 . S
C1736 C1737 1.397 . S
C1736 C1741 1.363 . S
C1737 H1708 0.950 . S
C1737 C1736 1.397 . S
C1737 C1738 1.334 . S
C1738 H1709 0.950 . S
C1738 C1737 1.334 . S
C1738 C1739 1.287 . S
C1739 C1738 1.287 . S
C1739 C1740 1.524 . S
C1739 H1742 0.999 . S
C1740 H1710 0.950 . S
C1740 C1739 1.524 . S
C1740 C1741 1.415 . S
C1741 H1711 0.950 . S
C1741 C1736 1.363 . S
C1741 C1740 1.415 . S
H1742 C1739 0.999 . S
H1743 C1724 0.913 . S
H1744 C1762 0.951 . S
H1745 C1764 0.951 . S
H1746 C1766 0.950 . S
H1747 C1767 0.950 . S
H1748 C1769 0.950 . S
H1749 C1772 0.950 . S
H1750 C1773 0.950 . S
H1751 C1775 0.950 . S
H1752 C1776 0.950 . S
H1753 C1777 0.951 . S
H1754 C1779 0.951 . S
H1755 C1781 0.950 . S
H1756 C1782 0.950 . S
H1757 C1784 0.950 . S
H1758 C1787 0.950 . S
H1759 C1788 0.950 . S
H1760 C1790 0.950 . S
H1761 C1791 0.950 . S
C1762 H1744 0.951 . S
C1762 C1763 1.366 . S
C1762 C1764 1.388 . S
C1763 C1762 1.366 . S
C1763 C1767 1.385 . S
C1764 H1745 0.951 . S
C1764 C1762 1.388 . S
C1764 C1765 1.366 . S
C1765 C1764 1.366 . S
C1765 C1766 1.414 . S
C1765 C1768 1.499 . S
C1766 H1746 0.950 . S
C1766 C1765 1.414 . S
C1766 C1767 1.374 . S
C1767 H1747 0.950 . S
C1767 C1763 1.385 . S
C1767 C1766 1.374 . S
C1768 C1765 1.499 . S
C1768 C1769 1.373 . S
C1768 C1770 1.389 . S
C1769 H1748 0.950 . S
C1769 C1768 1.373 . S
C1769 C1785 1.377 . S
C1770 C1768 1.389 . S
C1770 C1771 1.524 . S
C1770 C1784 1.377 . S
C1771 C1770 1.524 . S
C1771 C1772 1.397 . S
C1771 C1776 1.363 . S
C1772 H1749 0.950 . S
C1772 C1771 1.397 . S
C1772 C1773 1.334 . S
C1773 H1750 0.950 . S
C1773 C1772 1.334 . S
C1773 C1774 1.287 . S
C1774 C1773 1.287 . S
C1774 C1775 1.524 . S
C1774 H1793 0.913 . S
C1775 H1751 0.950 . S
C1775 C1774 1.524 . S
C1775 C1776 1.415 . S
C1776 H1752 0.950 . S
C1776 C1771 1.363 . S
C1776 C1775 1.415 . S
C1777 H1753 0.951 . S
C1777 C1778 1.366 . S
C1777 C1779 1.388 . S
C1778 C1777 1.366 . S
C1778 C1782 1.385 . S
C1779 H1754 0.951 . S
C1779 C1777 1.388 . S
C1779 C1780 1.366 . S
C1780 C1779 1.366 . S
C1780 C1781 1.414 . S
C1780 C1783 1.499 . S
C1781 H1755 0.950 . S
C1781 C1780 1.414 . S
C1781 C1782 1.374 . S
C1782 H1756 0.950 . S
C1782 C1778 1.385 . S
C1782 C1781 1.374 . S
C1783 C1780 1.499 . S
C1783 C1784 1.373 . S
C1783 C1785 1.389 . S
C1784 H1757 0.950 . S
C1784 C1770 1.377 . S
C1784 C1783 1.373 . S
C1785 C1769 1.377 . S
C1785 C1783 1.389 . S
C1785 C1786 1.524 . S
C1786 C1785 1.524 . S
C1786 C1787 1.397 . S
C1786 C1791 1.363 . S
C1787 H1758 0.950 . S
C1787 C1786 1.397 . S
C1787 C1788 1.334 . S
C1788 H1759 0.950 . S
C1788 C1787 1.334 . S
C1788 C1789 1.287 . S
C1789 C1788 1.287 . S
C1789 C1790 1.524 . S
C1789 H1792 0.999 . S
C1790 H1760 0.950 . S
C1790 C1789 1.524 . S
C1790 C1791 1.415 . S
C1791 H1761 0.950 . S
C1791 C1786 1.363 . S
C1791 C1790 1.415 . S
H1792 C1789 0.999 . S
H1793 C1774 0.913 . S
H1794 C1812 0.951 . S
H1795 C1814 0.951 . S
H1796 C1816 0.950 . S
H1797 C1817 0.950 . S
H1798 C1819 0.950 . S
H1799 C1822 0.950 . S
H1800 C1823 0.950 . S
H1801 C1825 0.950 . S
H1802 C1826 0.950 . S
H1803 C1827 0.951 . S
H1804 C1829 0.951 . S
H1805 C1831 0.950 . S
H1806 C1832 0.950 . S
H1807 C1834 0.950 . S
H1808 C1837 0.950 . S
H1809 C1838 0.950 1_655 S
H1810 C1840 0.950 . S
H1811 C1841 0.950 . S
C1812 H1794 0.951 . S
C1812 C1813 1.366 . S
C1812 C1814 1.388 . S
C1813 C1812 1.366 . S
C1813 C1817 1.385 . S
C1814 H1795 0.951 . S
C1814 C1812 1.388 . S
C1814 C1815 1.366 . S
C1815 C1814 1.366 . S
C1815 C1816 1.414 . S
C1815 C1818 1.499 . S
C1816 H1796 0.950 . S
C1816 C1815 1.414 . S
C1816 C1817 1.374 . S
C1817 H1797 0.950 . S
C1817 C1813 1.385 . S
C1817 C1816 1.374 . S
C1818 C1815 1.499 . S
C1818 C1819 1.373 . S
C1818 C1820 1.389 . S
C1819 H1798 0.950 . S
C1819 C1818 1.373 . S
C1819 C1835 1.377 . S
C1820 C1818 1.389 . S
C1820 C1821 1.524 . S
C1820 C1834 1.377 . S
C1821 C1820 1.524 . S
C1821 C1822 1.397 . S
C1821 C1826 1.363 . S
C1822 H1799 0.950 . S
C1822 C1821 1.397 . S
C1822 C1823 1.334 . S
C1823 H1800 0.950 . S
C1823 C1822 1.334 . S
C1823 C1824 1.287 . S
C1824 C1823 1.287 . S
C1824 C1825 1.524 . S
C1824 H1843 0.913 . S
C1825 H1801 0.950 . S
C1825 C1824 1.524 . S
C1825 C1826 1.415 . S
C1826 H1802 0.950 . S
C1826 C1821 1.363 . S
C1826 C1825 1.415 . S
C1827 H1803 0.951 . S
C1827 C1828 1.366 1_455 S
C1827 C1829 1.388 . S
C1828 C1827 1.366 1_655 S
C1828 C1832 1.385 . S
C1829 H1804 0.951 . S
C1829 C1827 1.388 . S
C1829 C1830 1.366 . S
C1830 C1829 1.366 . S
C1830 C1831 1.414 1_455 S
C1830 C1833 1.499 . S
C1831 H1805 0.950 . S
C1831 C1830 1.414 1_655 S
C1831 C1832 1.374 . S
C1832 H1806 0.950 . S
C1832 C1828 1.385 . S
C1832 C1831 1.374 . S
C1833 C1830 1.499 . S
C1833 C1834 1.373 . S
C1833 C1835 1.389 . S
C1834 H1807 0.950 . S
C1834 C1820 1.377 . S
C1834 C1833 1.373 . S
C1835 C1819 1.377 . S
C1835 C1833 1.389 . S
C1835 C1836 1.524 . S
C1836 C1835 1.524 . S
C1836 C1837 1.397 . S
C1836 C1841 1.363 . S
C1837 H1808 0.950 . S
C1837 C1836 1.397 . S
C1837 C1838 1.334 . S
C1838 H1809 0.950 1_455 S
C1838 C1837 1.334 . S
C1838 C1839 1.287 . S
C1839 C1838 1.287 . S
C1839 C1840 1.524 . S
C1839 H1842 0.999 . S
C1840 H1810 0.950 . S
C1840 C1839 1.524 . S
C1840 C1841 1.415 . S
C1841 H1811 0.950 . S
C1841 C1836 1.363 . S
C1841 C1840 1.415 . S
H1842 C1839 0.999 . S
H1843 C1824 0.913 . S
H1844 C1862 0.951 . S
H1845 C1864 0.951 . S
H1846 C1866 0.950 . S
H1847 C1867 0.950 . S
H1848 C1869 0.950 . S
H1849 C1872 0.950 . S
H1850 C1873 0.950 . S
H1851 C1875 0.950 . S
H1852 C1876 0.950 . S
H1853 C1877 0.951 . S
H1854 C1879 0.951 . S
H1855 C1881 0.950 . S
H1856 C1882 0.950 . S
H1857 C1884 0.950 . S
H1858 C1887 0.950 . S
H1859 C1888 0.950 . S
H1860 C1890 0.950 . S
H1861 C1891 0.950 . S
C1862 H1844 0.951 . S
C1862 C1863 1.366 . S
C1862 C1864 1.388 . S
C1863 C1862 1.366 . S
C1863 C1867 1.385 . S
C1864 H1845 0.951 . S
C1864 C1862 1.388 . S
C1864 C1865 1.366 . S
C1865 C1864 1.366 . S
C1865 C1866 1.414 . S
C1865 C1868 1.499 . S
C1866 H1846 0.950 . S
C1866 C1865 1.414 . S
C1866 C1867 1.374 . S
C1867 H1847 0.950 . S
C1867 C1863 1.385 . S
C1867 C1866 1.374 . S
C1868 C1865 1.499 . S
C1868 C1869 1.373 . S
C1868 C1870 1.389 . S
C1869 H1848 0.950 . S
C1869 C1868 1.373 . S
C1869 C1885 1.377 . S
C1870 C1868 1.389 . S
C1870 C1871 1.524 . S
C1870 C1884 1.377 . S
C1871 C1870 1.524 . S
C1871 C1872 1.397 . S
C1871 C1876 1.363 . S
C1872 H1849 0.950 . S
C1872 C1871 1.397 . S
C1872 C1873 1.334 . S
C1873 H1850 0.950 . S
C1873 C1872 1.334 . S
C1873 C1874 1.287 . S
C1874 C1873 1.287 . S
C1874 C1875 1.524 . S
C1874 H1893 0.913 . S
C1875 H1851 0.950 . S
C1875 C1874 1.524 . S
C1875 C1876 1.415 . S
C1876 H1852 0.950 . S
C1876 C1871 1.363 . S
C1876 C1875 1.415 . S
C1877 H1853 0.951 . S
C1877 C1878 1.366 . S
C1877 C1879 1.388 . S
C1878 C1877 1.366 . S
C1878 C1882 1.385 . S
C1879 H1854 0.951 . S
C1879 C1877 1.388 . S
C1879 C1880 1.366 . S
C1880 C1879 1.366 . S
C1880 C1881 1.414 . S
C1880 C1883 1.499 . S
C1881 H1855 0.950 . S
C1881 C1880 1.414 . S
C1881 C1882 1.374 . S
C1882 H1856 0.950 . S
C1882 C1878 1.385 . S
C1882 C1881 1.374 . S
C1883 C1880 1.499 . S
C1883 C1884 1.373 . S
C1883 C1885 1.389 . S
C1884 H1857 0.950 . S
C1884 C1870 1.377 . S
C1884 C1883 1.373 . S
C1885 C1869 1.377 . S
C1885 C1883 1.389 . S
C1885 C1886 1.524 . S
C1886 C1885 1.524 . S
C1886 C1887 1.397 . S
C1886 C1891 1.363 . S
C1887 H1858 0.950 . S
C1887 C1886 1.397 . S
C1887 C1888 1.334 . S
C1888 H1859 0.950 . S
C1888 C1887 1.334 . S
C1888 C1889 1.287 . S
C1889 C1888 1.287 . S
C1889 C1890 1.524 . S
C1889 H1892 0.999 . S
C1890 H1860 0.950 . S
C1890 C1889 1.524 . S
C1890 C1891 1.415 . S
C1891 H1861 0.950 . S
C1891 C1886 1.363 . S
C1891 C1890 1.415 . S
H1892 C1889 0.999 . S
H1893 C1874 0.913 . S
H1894 C1912 0.951 . S
H1895 C1914 0.951 . S
H1896 C1916 0.950 . S
H1897 C1917 0.950 . S
H1898 C1919 0.949 . S
H1899 C1922 0.950 . S
H1900 C1923 0.950 . S
H1901 C1925 0.950 . S
H1902 C1926 0.950 . S
H1903 C1927 0.951 . S
H1904 C1929 0.951 . S
H1905 C1931 0.950 . S
H1906 C1932 0.950 . S
H1907 C1934 0.950 . S
H1908 C1937 0.950 . S
H1909 C1938 0.950 . S
H1910 C1940 0.950 . S
H1911 C1941 0.950 . S
C1912 H1894 0.951 . S
C1912 C1913 1.366 . S
C1912 C1914 1.388 . S
C1913 C1912 1.366 . S
C1913 C1917 1.385 . S
C1914 H1895 0.951 . S
C1914 C1912 1.388 . S
C1914 C1915 1.366 . S
C1915 C1914 1.366 . S
C1915 C1916 1.414 . S
C1915 C1918 1.499 . S
C1916 H1896 0.950 . S
C1916 C1915 1.414 . S
C1916 C1917 1.374 . S
C1917 H1897 0.950 . S
C1917 C1913 1.385 . S
C1917 C1916 1.374 . S
C1918 C1915 1.499 . S
C1918 C1919 1.403 . S
C1918 C1920 1.389 . S
C1919 H1898 0.949 . S
C1919 C1918 1.403 . S
C1919 C1935 1.349 1_655 S
C1920 C1918 1.389 . S
C1920 C1921 1.524 . S
C1920 C1934 1.377 1_655 S
C1921 C1920 1.524 . S
C1921 C1922 1.397 . S
C1921 C1926 1.363 . S
C1922 H1899 0.950 . S
C1922 C1921 1.397 . S
C1922 C1923 1.334 . S
C1923 H1900 0.950 . S
C1923 C1922 1.334 . S
C1923 C1924 1.287 . S
C1924 C1923 1.287 . S
C1924 C1925 1.524 . S
C1924 H1943 0.913 . S
C1925 H1901 0.950 . S
C1925 C1924 1.524 . S
C1925 C1926 1.415 . S
C1926 H1902 0.950 . S
C1926 C1921 1.363 . S
C1926 C1925 1.415 . S
C1927 H1903 0.951 . S
C1927 C1928 1.366 . S
C1927 C1929 1.388 . S
C1928 C1927 1.366 . S
C1928 C1932 1.385 . S
C1929 H1904 0.951 . S
C1929 C1927 1.388 . S
C1929 C1930 1.366 . S
C1930 C1929 1.366 . S
C1930 C1931 1.414 . S
C1930 C1933 1.499 . S
C1931 H1905 0.950 . S
C1931 C1930 1.414 . S
C1931 C1932 1.374 . S
C1932 H1906 0.950 . S
C1932 C1928 1.385 . S
C1932 C1931 1.374 . S
C1933 C1930 1.499 . S
C1933 C1934 1.373 . S
C1933 C1935 1.389 . S
C1934 H1907 0.950 . S
C1934 C1920 1.377 1_455 S
C1934 C1933 1.373 . S
C1935 C1919 1.349 1_455 S
C1935 C1933 1.389 . S
C1935 C1936 1.524 . S
C1936 C1935 1.524 . S
C1936 C1937 1.397 . S
C1936 C1941 1.363 . S
C1937 H1908 0.950 . S
C1937 C1936 1.397 . S
C1937 C1938 1.334 . S
C1938 H1909 0.950 . S
C1938 C1937 1.334 . S
C1938 C1939 1.287 . S
C1939 C1938 1.287 . S
C1939 C1940 1.524 . S
C1939 H1942 0.999 . S
C1940 H1910 0.950 . S
C1940 C1939 1.524 . S
C1940 C1941 1.415 . S
C1941 H1911 0.950 . S
C1941 C1936 1.363 . S
C1941 C1940 1.415 . S
H1942 C1939 0.999 . S
H1943 C1924 0.913 . S
H1944 C1962 0.951 . S
H1945 C1964 0.951 . S
H1946 C1966 0.950 . S
H1947 C1967 0.950 . S
H1948 C1969 0.950 . S
H1949 C1972 0.950 . S
H1950 C1973 0.950 . S
H1951 C1975 0.950 . S
H1952 C1976 0.950 . S
H1953 C1977 0.951 . S
H1954 C1979 0.951 . S
H1955 C1981 0.950 . S
H1956 C1982 0.950 . S
H1957 C1984 0.950 . S
H1958 C1987 0.950 . S
H1959 C1988 0.950 . S
H1960 C1990 0.950 . S
H1961 C1991 0.950 . S
C1962 H1944 0.951 . S
C1962 C1963 1.366 . S
C1962 C1964 1.388 . S
C1963 C1962 1.366 . S
C1963 C1967 1.385 . S
C1964 H1945 0.951 . S
C1964 C1962 1.388 . S
C1964 C1965 1.366 . S
C1965 C1964 1.366 . S
C1965 C1966 1.414 . S
C1965 C1968 1.499 . S
C1966 H1946 0.950 . S
C1966 C1965 1.414 . S
C1966 C1967 1.374 . S
C1967 H1947 0.950 . S
C1967 C1963 1.385 . S
C1967 C1966 1.374 . S
C1968 C1965 1.499 . S
C1968 C1969 1.373 . S
C1968 C1970 1.389 . S
C1969 H1948 0.950 . S
C1969 C1968 1.373 . S
C1969 C1985 1.377 . S
C1970 C1968 1.389 . S
C1970 C1971 1.524 . S
C1970 C1984 1.377 . S
C1971 C1970 1.524 . S
C1971 C1972 1.397 . S
C1971 C1976 1.363 . S
C1972 H1949 0.950 . S
C1972 C1971 1.397 . S
C1972 C1973 1.334 . S
C1973 H1950 0.950 . S
C1973 C1972 1.334 . S
C1973 C1974 1.287 . S
C1974 C1973 1.287 . S
C1974 C1975 1.524 . S
C1974 H1993 0.913 . S
C1975 H1951 0.950 . S
C1975 C1974 1.524 . S
C1975 C1976 1.415 . S
C1976 H1952 0.950 . S
C1976 C1971 1.363 . S
C1976 C1975 1.415 . S
C1977 H1953 0.951 . S
C1977 C1978 1.366 . S
C1977 C1979 1.388 . S
C1978 C1977 1.366 . S
C1978 C1982 1.385 . S
C1979 H1954 0.951 . S
C1979 C1977 1.388 . S
C1979 C1980 1.366 . S
C1980 C1979 1.366 . S
C1980 C1981 1.414 . S
C1980 C1983 1.499 . S
C1981 H1955 0.950 . S
C1981 C1980 1.414 . S
C1981 C1982 1.374 . S
C1982 H1956 0.950 . S
C1982 C1978 1.385 . S
C1982 C1981 1.374 . S
C1983 C1980 1.499 . S
C1983 C1984 1.373 . S
C1983 C1985 1.389 . S
C1984 H1957 0.950 . S
C1984 C1970 1.377 . S
C1984 C1983 1.373 . S
C1985 C1969 1.377 . S
C1985 C1983 1.389 . S
C1985 C1986 1.524 . S
C1986 C1985 1.524 . S
C1986 C1987 1.397 . S
C1986 C1991 1.363 . S
C1987 H1958 0.950 . S
C1987 C1986 1.397 . S
C1987 C1988 1.334 . S
C1988 H1959 0.950 . S
C1988 C1987 1.334 . S
C1988 C1989 1.287 . S
C1989 C1988 1.287 . S
C1989 C1990 1.524 . S
C1989 H1992 0.999 . S
C1990 H1960 0.950 . S
C1990 C1989 1.524 . S
C1990 C1991 1.415 . S
C1991 H1961 0.950 . S
C1991 C1986 1.363 . S
C1991 C1990 1.415 . S
H1992 C1989 0.999 . S
H1993 C1974 0.913 . S
H1994 C2012 0.951 . S
H1995 C2014 0.951 . S
H1996 C2016 0.950 . S
H1997 C2017 0.950 . S
H1998 C2019 0.950 . S
H1999 C2022 0.950 . S
H2000 C2023 0.950 . S
H2001 C2025 0.950 . S
H2002 C2026 0.950 . S
H2003 C2027 0.951 . S
H2004 C2029 0.951 . S
H2005 C2031 0.956 . S
H2006 C2032 0.955 . S
H2007 C2034 0.950 . S
H2008 C2037 0.953 . S
H2009 C2038 0.950 . S
H2010 C2040 0.950 . S
H2011 C2041 0.955 . S
C2012 H1994 0.951 . S
C2012 C2013 1.366 . S
C2012 C2014 1.388 . S
C2013 C2012 1.366 . S
C2013 C2017 1.385 . S
C2014 H1995 0.951 . S
C2014 C2012 1.388 . S
C2014 C2015 1.366 . S
C2015 C2014 1.366 . S
C2015 C2016 1.414 . S
C2015 C2018 1.499 . S
C2016 H1996 0.950 . S
C2016 C2015 1.414 . S
C2016 C2017 1.374 . S
C2017 H1997 0.950 . S
C2017 C2013 1.385 . S
C2017 C2016 1.374 . S
C2018 C2015 1.499 . S
C2018 C2019 1.373 . S
C2018 C2020 1.389 1_554 S
C2019 H1998 0.950 . S
C2019 C2018 1.373 . S
C2019 C2035 1.377 1_554 S
C2020 C2018 1.389 1_556 S
C2020 C2021 1.524 . S
C2020 C2034 1.377 . S
C2021 C2020 1.524 . S
C2021 C2022 1.397 . S
C2021 C2026 1.363 . S
C2022 H1999 0.950 . S
C2022 C2021 1.397 . S
C2022 C2023 1.334 . S
C2023 H2000 0.950 . S
C2023 C2022 1.334 . S
C2023 C2024 1.287 . S
C2024 C2023 1.287 . S
C2024 C2025 1.524 . S
C2024 H2043 0.913 . S
C2025 H2001 0.950 . S
C2025 C2024 1.524 . S
C2025 C2026 1.415 . S
C2026 H2002 0.950 . S
C2026 C2021 1.363 . S
C2026 C2025 1.415 . S
C2027 H2003 0.951 . S
C2027 C2028 1.366 . S
C2027 C2029 1.388 . S
C2028 C2027 1.366 . S
C2028 C2032 1.382 1_655 S
C2029 H2004 0.951 . S
C2029 C2027 1.388 . S
C2029 C2030 1.366 . S
C2030 C2029 1.366 . S
C2030 C2031 1.414 . S
C2030 C2033 1.499 . S
C2031 H2005 0.956 . S
C2031 C2030 1.414 . S
C2031 C2032 1.371 1_655 S
C2032 H2006 0.955 . S
C2032 C2028 1.382 1_455 S
C2032 C2031 1.371 1_455 S
C2033 C2030 1.499 . S
C2033 C2034 1.373 . S
C2033 C2035 1.389 . S
C2034 H2007 0.950 . S
C2034 C2020 1.377 . S
C2034 C2033 1.373 . S
C2035 C2019 1.377 1_556 S
C2035 C2033 1.389 . S
C2035 C2036 1.524 . S
C2036 C2035 1.524 . S
C2036 C2037 1.400 . S
C2036 C2041 1.369 . S
C2037 H2008 0.953 . S
C2037 C2036 1.400 . S
C2037 C2038 1.328 1_556 S
C2038 H2009 0.950 . S
C2038 C2037 1.328 1_554 S
C2038 C2039 1.287 . S
C2039 C2038 1.287 . S
C2039 C2040 1.524 . S
C2039 H2042 0.999 . S
C2040 H2010 0.950 . S
C2040 C2039 1.524 . S
C2040 C2041 1.405 1_554 S
C2041 H2011 0.955 . S
C2041 C2036 1.369 . S
C2041 C2040 1.405 1_556 S
H2042 C2039 0.999 . S
H2043 C2024 0.913 . S
H2044 C2062 0.951 . S
H2045 C2064 0.951 . S
H2046 C2066 0.950 . S
H2047 C2067 0.950 . S
H2048 C2069 0.950 . S
H2049 C2072 0.950 . S
H2050 C2073 0.950 . S
H2051 C2075 0.950 . S
H2052 C2076 0.950 . S
H2053 C2077 0.951 . S
H2054 C2079 0.951 . S
H2055 C2081 0.950 . S
H2056 C2082 0.950 . S
H2057 C2084 0.950 . S
H2058 C2087 0.950 . S
H2059 C2088 0.950 . S
H2060 C2090 0.950 . S
H2061 C2091 0.950 . S
C2062 H2044 0.951 . S
C2062 C2063 1.366 . S
C2062 C2064 1.388 . S
C2063 C2062 1.366 . S
C2063 C2067 1.385 . S
C2064 H2045 0.951 . S
C2064 C2062 1.388 . S
C2064 C2065 1.366 . S
C2065 C2064 1.366 . S
C2065 C2066 1.414 . S
C2065 C2068 1.499 . S
C2066 H2046 0.950 . S
C2066 C2065 1.414 . S
C2066 C2067 1.374 . S
C2067 H2047 0.950 . S
C2067 C2063 1.385 . S
C2067 C2066 1.374 . S
C2068 C2065 1.499 . S
C2068 C2069 1.373 . S
C2068 C2070 1.389 . S
C2069 H2048 0.950 . S
C2069 C2068 1.373 . S
C2069 C2085 1.377 . S
C2070 C2068 1.389 . S
C2070 C2071 1.524 . S
C2070 C2084 1.377 . S
C2071 C2070 1.524 . S
C2071 C2072 1.397 . S
C2071 C2076 1.363 . S
C2072 H2049 0.950 . S
C2072 C2071 1.397 . S
C2072 C2073 1.334 . S
C2073 H2050 0.950 . S
C2073 C2072 1.334 . S
C2073 C2074 1.287 . S
C2074 C2073 1.287 . S
C2074 C2075 1.524 . S
C2074 H2093 0.913 . S
C2075 H2051 0.950 . S
C2075 C2074 1.524 . S
C2075 C2076 1.415 . S
C2076 H2052 0.950 . S
C2076 C2071 1.363 . S
C2076 C2075 1.415 . S
C2077 H2053 0.951 . S
C2077 C2078 1.366 . S
C2077 C2079 1.388 . S
C2078 C2077 1.366 . S
C2078 C2082 1.385 . S
C2079 H2054 0.951 . S
C2079 C2077 1.388 . S
C2079 C2080 1.366 . S
C2080 C2079 1.366 . S
C2080 C2081 1.414 . S
C2080 C2083 1.499 . S
C2081 H2055 0.950 . S
C2081 C2080 1.414 . S
C2081 C2082 1.374 . S
C2082 H2056 0.950 . S
C2082 C2078 1.385 . S
C2082 C2081 1.374 . S
C2083 C2080 1.499 . S
C2083 C2084 1.373 . S
C2083 C2085 1.389 . S
C2084 H2057 0.950 . S
C2084 C2070 1.377 . S
C2084 C2083 1.373 . S
C2085 C2069 1.377 . S
C2085 C2083 1.389 . S
C2085 C2086 1.524 . S
C2086 C2085 1.524 . S
C2086 C2087 1.397 . S
C2086 C2091 1.363 . S
C2087 H2058 0.950 . S
C2087 C2086 1.397 . S
C2087 C2088 1.334 . S
C2088 H2059 0.950 . S
C2088 C2087 1.334 . S
C2088 C2089 1.287 . S
C2089 C2088 1.287 . S
C2089 C2090 1.524 . S
C2089 H2092 0.999 . S
C2090 H2060 0.950 . S
C2090 C2089 1.524 . S
C2090 C2091 1.415 . S
C2091 H2061 0.950 . S
C2091 C2086 1.363 . S
C2091 C2090 1.415 . S
H2092 C2089 0.999 . S
H2093 C2074 0.913 . S
H2094 C2112 0.951 . S
H2095 C2114 0.951 . S
H2096 C2116 0.950 . S
H2097 C2117 0.950 . S
H2098 C2119 0.950 . S
H2099 C2122 0.950 . S
H2100 C2123 0.950 . S
H2101 C2125 0.950 . S
H2102 C2126 0.950 . S
H2103 C2127 0.951 . S
H2104 C2129 0.951 . S
H2105 C2131 0.950 . S
H2106 C2132 0.950 . S
H2107 C2134 0.950 . S
H2108 C2137 0.950 . S
H2109 C2138 0.941 . S
H2110 C2140 0.950 . S
H2111 C2141 0.950 . S
C2112 H2094 0.951 . S
C2112 C2113 1.366 . S
C2112 C2114 1.388 . S
C2113 C2112 1.366 . S
C2113 C2117 1.385 . S
C2114 H2095 0.951 . S
C2114 C2112 1.388 . S
C2114 C2115 1.366 . S
C2115 C2114 1.366 . S
C2115 C2116 1.414 . S
C2115 C2118 1.499 . S
C2116 H2096 0.950 . S
C2116 C2115 1.414 . S
C2116 C2117 1.374 . S
C2117 H2097 0.950 . S
C2117 C2113 1.385 . S
C2117 C2116 1.374 . S
C2118 C2115 1.499 . S
C2118 C2119 1.373 . S
C2118 C2120 1.389 . S
C2119 H2098 0.950 . S
C2119 C2118 1.373 . S
C2119 C2135 1.377 . S
C2120 C2118 1.389 . S
C2120 C2121 1.524 . S
C2120 C2134 1.377 . S
C2121 C2120 1.524 . S
C2121 C2122 1.397 . S
C2121 C2126 1.363 . S
C2122 H2099 0.950 . S
C2122 C2121 1.397 . S
C2122 C2123 1.334 . S
C2123 H2100 0.950 . S
C2123 C2122 1.334 . S
C2123 C2124 1.287 . S
C2124 C2123 1.287 . S
C2124 C2125 1.524 . S
C2124 H2143 0.913 . S
C2125 H2101 0.950 . S
C2125 C2124 1.524 . S
C2125 C2126 1.415 . S
C2126 H2102 0.950 . S
C2126 C2121 1.363 . S
C2126 C2125 1.415 . S
C2127 H2103 0.951 . S
C2127 C2128 1.366 . S
C2127 C2129 1.388 . S
C2128 C2127 1.366 . S
C2128 C2132 1.385 . S
C2129 H2104 0.951 . S
C2129 C2127 1.388 . S
C2129 C2130 1.366 . S
C2130 C2129 1.366 . S
C2130 C2131 1.414 . S
C2130 C2133 1.474 1_556 S
C2131 H2105 0.950 . S
C2131 C2130 1.414 . S
C2131 C2132 1.374 . S
C2132 H2106 0.950 . S
C2132 C2128 1.385 . S
C2132 C2131 1.374 . S
C2133 C2130 1.474 1_554 S
C2133 C2134 1.388 . S
C2133 C2135 1.399 . S
C2134 H2107 0.950 . S
C2134 C2120 1.377 . S
C2134 C2133 1.388 . S
C2135 C2119 1.377 . S
C2135 C2133 1.399 . S
C2135 C2136 1.524 . S
C2136 C2135 1.524 . S
C2136 C2137 1.397 . S
C2136 C2141 1.363 . S
C2137 H2108 0.950 . S
C2137 C2136 1.397 . S
C2137 C2138 1.353 . S
C2138 H2109 0.941 . S
C2138 C2137 1.353 . S
C2138 C2139 1.278 1_554 S
C2139 C2138 1.278 1_556 S
C2139 C2140 1.524 . S
C2139 H2142 0.999 . S
C2140 H2110 0.950 . S
C2140 C2139 1.524 . S
C2140 C2141 1.415 1_556 S
C2141 H2111 0.950 . S
C2141 C2136 1.363 . S
C2141 C2140 1.415 1_554 S
H2142 C2139 0.999 . S
H2143 C2124 0.913 . S
H2144 C2162 0.951 . S
H2145 C2164 0.951 . S
H2146 C2166 0.950 . S
H2147 C2167 0.950 . S
H2148 C2169 0.950 . S
H2149 C2172 0.950 . S
H2150 C2173 0.950 . S
H2151 C2175 0.950 . S
H2152 C2176 0.950 . S
H2153 C2177 0.951 . S
H2154 C2179 0.951 . S
H2155 C2181 0.950 . S
H2156 C2182 0.950 . S
H2157 C2184 0.950 . S
H2158 C2187 0.950 . S
H2159 C2188 0.950 . S
H2160 C2190 0.950 . S
H2161 C2191 0.950 . S
C2162 H2144 0.951 . S
C2162 C2163 1.366 . S
C2162 C2164 1.388 . S
C2163 C2162 1.366 . S
C2163 C2167 1.385 . S
C2164 H2145 0.951 . S
C2164 C2162 1.388 . S
C2164 C2165 1.366 . S
C2165 C2164 1.366 . S
C2165 C2166 1.414 . S
C2165 C2168 1.499 . S
C2166 H2146 0.950 . S
C2166 C2165 1.414 . S
C2166 C2167 1.374 . S
C2167 H2147 0.950 . S
C2167 C2163 1.385 . S
C2167 C2166 1.374 . S
C2168 C2165 1.499 . S
C2168 C2169 1.373 . S
C2168 C2170 1.389 . S
C2169 H2148 0.950 . S
C2169 C2168 1.373 . S
C2169 C2185 1.377 . S
C2170 C2168 1.389 . S
C2170 C2171 1.524 . S
C2170 C2184 1.377 . S
C2171 C2170 1.524 . S
C2171 C2172 1.397 . S
C2171 C2176 1.363 . S
C2172 H2149 0.950 . S
C2172 C2171 1.397 . S
C2172 C2173 1.334 . S
C2173 H2150 0.950 . S
C2173 C2172 1.334 . S
C2173 C2174 1.287 . S
C2174 C2173 1.287 . S
C2174 C2175 1.524 . S
C2174 H2193 0.913 . S
C2175 H2151 0.950 . S
C2175 C2174 1.524 . S
C2175 C2176 1.415 . S
C2176 H2152 0.950 . S
C2176 C2171 1.363 . S
C2176 C2175 1.415 . S
C2177 H2153 0.951 . S
C2177 C2178 1.366 . S
C2177 C2179 1.388 . S
C2178 C2177 1.366 . S
C2178 C2182 1.385 . S
C2179 H2154 0.951 . S
C2179 C2177 1.388 . S
C2179 C2180 1.366 . S
C2180 C2179 1.366 . S
C2180 C2181 1.414 . S
C2180 C2183 1.499 . S
C2181 H2155 0.950 . S
C2181 C2180 1.414 . S
C2181 C2182 1.374 . S
C2182 H2156 0.950 . S
C2182 C2178 1.385 . S
C2182 C2181 1.374 . S
C2183 C2180 1.499 . S
C2183 C2184 1.373 . S
C2183 C2185 1.389 . S
C2184 H2157 0.950 . S
C2184 C2170 1.377 . S
C2184 C2183 1.373 . S
C2185 C2169 1.377 . S
C2185 C2183 1.389 . S
C2185 C2186 1.524 . S
C2186 C2185 1.524 . S
C2186 C2187 1.397 . S
C2186 C2191 1.363 . S
C2187 H2158 0.950 . S
C2187 C2186 1.397 . S
C2187 C2188 1.334 . S
C2188 H2159 0.950 . S
C2188 C2187 1.334 . S
C2188 C2189 1.287 . S
C2189 C2188 1.287 . S
C2189 C2190 1.524 . S
C2189 H2192 0.999 . S
C2190 H2160 0.950 . S
C2190 C2189 1.524 . S
C2190 C2191 1.415 . S
C2191 H2161 0.950 . S
C2191 C2186 1.363 . S
C2191 C2190 1.415 . S
H2192 C2189 0.999 . S
H2193 C2174 0.913 . S
H2194 C2212 0.951 . S
H2195 C2214 0.951 . S
H2196 C2216 0.932 1_554 S
H2197 C2217 0.950 . S
H2198 C2219 0.950 . S
H2199 C2222 0.950 . S
H2200 C2223 0.950 . S
H2201 C2225 0.950 . S
H2202 C2226 0.950 . S
H2203 C2227 0.951 . S
H2204 C2229 0.951 . S
H2205 C2231 0.950 . S
H2206 C2232 0.950 . S
H2207 C2234 0.950 . S
H2208 C2237 0.950 . S
H2209 C2238 0.950 . S
H2210 C2240 0.950 . S
H2211 C2241 0.950 . S
C2212 H2194 0.951 . S
C2212 C2213 1.366 . S
C2212 C2214 1.388 . S
C2213 C2212 1.366 . S
C2213 C2217 1.385 . S
C2214 H2195 0.951 . S
C2214 C2212 1.388 . S
C2214 C2215 1.366 1_556 S
C2215 C2214 1.366 1_554 S
C2215 C2216 1.414 1_554 S
C2215 C2218 1.499 . S
C2216 H2196 0.932 1_556 S
C2216 C2215 1.414 1_556 S
C2216 C2217 1.374 . S
C2217 H2197 0.950 . S
C2217 C2213 1.385 . S
C2217 C2216 1.374 . S
C2218 C2215 1.499 . S
C2218 C2219 1.373 . S
C2218 C2220 1.389 . S
C2219 H2198 0.950 . S
C2219 C2218 1.373 . S
C2219 C2235 1.377 . S
C2220 C2218 1.389 . S
C2220 C2221 1.524 . S
C2220 C2234 1.377 . S
C2221 C2220 1.524 . S
C2221 C2222 1.397 . S
C2221 C2226 1.363 . S
C2222 H2199 0.950 . S
C2222 C2221 1.397 . S
C2222 C2223 1.334 . S
C2223 H2200 0.950 . S
C2223 C2222 1.334 . S
C2223 C2224 1.287 . S
C2224 C2223 1.287 . S
C2224 C2225 1.524 . S
C2224 H2243 0.913 . S
C2225 H2201 0.950 . S
C2225 C2224 1.524 . S
C2225 C2226 1.415 . S
C2226 H2202 0.950 . S
C2226 C2221 1.363 . S
C2226 C2225 1.415 . S
C2227 H2203 0.951 . S
C2227 C2228 1.366 . S
C2227 C2229 1.388 . S
C2228 C2227 1.366 . S
C2228 C2232 1.385 . S
C2229 H2204 0.951 . S
C2229 C2227 1.388 . S
C2229 C2230 1.366 . S
C2230 C2229 1.366 . S
C2230 C2231 1.414 . S
C2230 C2233 1.499 . S
C2231 H2205 0.950 . S
C2231 C2230 1.414 . S
C2231 C2232 1.374 . S
C2232 H2206 0.950 . S
C2232 C2228 1.385 . S
C2232 C2231 1.374 . S
C2233 C2230 1.499 . S
C2233 C2234 1.373 . S
C2233 C2235 1.389 . S
C2234 H2207 0.950 . S
C2234 C2220 1.377 . S
C2234 C2233 1.373 . S
C2235 C2219 1.377 . S
C2235 C2233 1.389 . S
C2235 C2236 1.524 . S
C2236 C2235 1.524 . S
C2236 C2237 1.397 . S
C2236 C2241 1.363 . S
C2237 H2208 0.950 . S
C2237 C2236 1.397 . S
C2237 C2238 1.334 . S
C2238 H2209 0.950 . S
C2238 C2237 1.334 . S
C2238 C2239 1.287 . S
C2239 C2238 1.287 . S
C2239 C2240 1.524 . S
C2239 H2242 0.999 . S
C2240 H2210 0.950 . S
C2240 C2239 1.524 . S
C2240 C2241 1.415 . S
C2241 H2211 0.950 . S
C2241 C2236 1.363 . S
C2241 C2240 1.415 . S
H2242 C2239 0.999 . S
H2243 C2224 0.913 . S
H2244 C2262 0.951 . S
H2245 C2264 0.951 . S
H2246 C2266 0.950 . S
H2247 C2267 0.950 . S
H2248 C2269 0.950 . S
H2249 C2272 0.950 . S
H2250 C2273 0.950 . S
H2251 C2275 0.950 . S
H2252 C2276 0.950 . S
H2253 C2277 0.951 . S
H2254 C2279 0.951 . S
H2255 C2281 0.950 . S
H2256 C2282 0.950 . S
H2257 C2284 0.950 . S
H2258 C2287 0.950 . S
H2259 C2288 0.950 . S
H2260 C2290 0.950 . S
H2261 C2291 0.950 . S
C2262 H2244 0.951 . S
C2262 C2263 1.366 . S
C2262 C2264 1.388 . S
C2263 C2262 1.366 . S
C2263 C2267 1.385 . S
C2264 H2245 0.951 . S
C2264 C2262 1.388 . S
C2264 C2265 1.366 . S
C2265 C2264 1.366 . S
C2265 C2266 1.414 . S
C2265 C2268 1.499 . S
C2266 H2246 0.950 . S
C2266 C2265 1.414 . S
C2266 C2267 1.374 . S
C2267 H2247 0.950 . S
C2267 C2263 1.385 . S
C2267 C2266 1.374 . S
C2268 C2265 1.499 . S
C2268 C2269 1.373 . S
C2268 C2270 1.389 . S
C2269 H2248 0.950 . S
C2269 C2268 1.373 . S
C2269 C2285 1.377 . S
C2270 C2268 1.389 . S
C2270 C2271 1.524 . S
C2270 C2284 1.377 . S
C2271 C2270 1.524 . S
C2271 C2272 1.397 . S
C2271 C2276 1.363 . S
C2272 H2249 0.950 . S
C2272 C2271 1.397 . S
C2272 C2273 1.334 . S
C2273 H2250 0.950 . S
C2273 C2272 1.334 . S
C2273 C2274 1.287 . S
C2274 C2273 1.287 . S
C2274 C2275 1.524 . S
C2274 H2293 0.913 . S
C2275 H2251 0.950 . S
C2275 C2274 1.524 . S
C2275 C2276 1.415 . S
C2276 H2252 0.950 . S
C2276 C2271 1.363 . S
C2276 C2275 1.415 . S
C2277 H2253 0.951 . S
C2277 C2278 1.366 . S
C2277 C2279 1.388 . S
C2278 C2277 1.366 . S
C2278 C2282 1.385 . S
C2279 H2254 0.951 . S
C2279 C2277 1.388 . S
C2279 C2280 1.366 . S
C2280 C2279 1.366 . S
C2280 C2281 1.414 . S
C2280 C2283 1.499 . S
C2281 H2255 0.950 . S
C2281 C2280 1.414 . S
C2281 C2282 1.374 . S
C2282 H2256 0.950 . S
C2282 C2278 1.385 . S
C2282 C2281 1.374 . S
C2283 C2280 1.499 . S
C2283 C2284 1.373 . S
C2283 C2285 1.389 . S
C2284 H2257 0.950 . S
C2284 C2270 1.377 . S
C2284 C2283 1.373 . S
C2285 C2269 1.377 . S
C2285 C2283 1.389 . S
C2285 C2286 1.524 . S
C2286 C2285 1.524 . S
C2286 C2287 1.397 . S
C2286 C2291 1.363 . S
C2287 H2258 0.950 . S
C2287 C2286 1.397 . S
C2287 C2288 1.334 . S
C2288 H2259 0.950 . S
C2288 C2287 1.334 . S
C2288 C2289 1.287 . S
C2289 C2288 1.287 . S
C2289 C2290 1.524 . S
C2289 H2292 0.999 . S
C2290 H2260 0.950 . S
C2290 C2289 1.524 . S
C2290 C2291 1.415 . S
C2291 H2261 0.950 . S
C2291 C2286 1.363 . S
C2291 C2290 1.415 . S
H2292 C2289 0.999 . S
H2293 C2274 0.913 . S
H2294 C2312 0.951 . S
H2295 C2314 0.951 . S
H2296 C2316 0.922 1_554 S
H2297 C2317 0.950 . S
H2298 C2319 0.950 . S
H2299 C2322 0.950 . S
H2300 C2323 0.950 . S
H2301 C2325 0.950 . S
H2302 C2326 0.950 1_554 S
H2303 C2327 0.951 . S
H2304 C2329 0.951 . S
H2305 C2331 0.950 . S
H2306 C2332 0.950 . S
H2307 C2334 0.950 . S
H2308 C2337 0.950 . S
H2309 C2338 0.950 . S
H2310 C2340 0.950 . S
H2311 C2341 0.950 . S
C2312 H2294 0.951 . S
C2312 C2313 1.366 . S
C2312 C2314 1.388 . S
C2313 C2312 1.366 . S
C2313 C2317 1.385 . S
C2314 H2295 0.951 . S
C2314 C2312 1.388 . S
C2314 C2315 1.366 . S
C2315 C2314 1.366 . S
C2315 C2316 1.414 . S
C2315 C2318 1.499 1_556 S
C2316 H2296 0.922 1_556 S
C2316 C2315 1.414 . S
C2316 C2317 1.374 . S
C2317 H2297 0.950 . S
C2317 C2313 1.385 . S
C2317 C2316 1.374 . S
C2318 C2315 1.499 1_554 S
C2318 C2319 1.373 . S
C2318 C2320 1.389 . S
C2319 H2298 0.950 . S
C2319 C2318 1.373 . S
C2319 C2335 1.377 . S
C2320 C2318 1.389 . S
C2320 C2321 1.524 1_554 S
C2320 C2334 1.377 . S
C2321 C2320 1.524 1_556 S
C2321 C2322 1.397 . S
C2321 C2326 1.363 . S
C2322 H2299 0.950 . S
C2322 C2321 1.397 . S
C2322 C2323 1.334 . S
C2323 H2300 0.950 . S
C2323 C2322 1.334 . S
C2323 C2324 1.287 . S
C2324 C2323 1.287 . S
C2324 C2325 1.524 . S
C2324 H2343 0.913 . S
C2325 H2301 0.950 . S
C2325 C2324 1.524 . S
C2325 C2326 1.415 . S
C2326 H2302 0.950 1_556 S
C2326 C2321 1.363 . S
C2326 C2325 1.415 . S
C2327 H2303 0.951 . S
C2327 C2328 1.366 . S
C2327 C2329 1.388 . S
C2328 C2327 1.366 . S
C2328 C2332 1.385 . S
C2329 H2304 0.951 . S
C2329 C2327 1.388 . S
C2329 C2330 1.366 . S
C2330 C2329 1.366 . S
C2330 C2331 1.414 . S
C2330 C2333 1.499 . S
C2331 H2305 0.950 . S
C2331 C2330 1.414 . S
C2331 C2332 1.374 . S
C2332 H2306 0.950 . S
C2332 C2328 1.385 . S
C2332 C2331 1.374 . S
C2333 C2330 1.499 . S
C2333 C2334 1.373 . S
C2333 C2335 1.389 . S
C2334 H2307 0.950 . S
C2334 C2320 1.377 . S
C2334 C2333 1.373 . S
C2335 C2319 1.377 . S
C2335 C2333 1.389 . S
C2335 C2336 1.524 . S
C2336 C2335 1.524 . S
C2336 C2337 1.397 . S
C2336 C2341 1.363 . S
C2337 H2308 0.950 . S
C2337 C2336 1.397 . S
C2337 C2338 1.334 . S
C2338 H2309 0.950 . S
C2338 C2337 1.334 . S
C2338 C2339 1.287 . S
C2339 C2338 1.287 . S
C2339 C2340 1.524 . S
C2339 H2342 0.999 . S
C2340 H2310 0.950 . S
C2340 C2339 1.524 . S
C2340 C2341 1.415 . S
C2341 H2311 0.950 . S
C2341 C2336 1.363 . S
C2341 C2340 1.415 . S
H2342 C2339 0.999 . S
H2343 C2324 0.913 . S
H2344 C2362 0.951 . S
H2345 C2364 0.951 . S
H2346 C2366 0.950 . S
H2347 C2367 0.950 . S
H2348 C2369 0.950 . S
H2349 C2372 0.950 . S
H2350 C2373 0.950 . S
H2351 C2375 0.950 . S
H2352 C2376 0.950 . S
H2353 C2377 0.951 . S
H2354 C2379 0.951 . S
H2355 C2381 0.950 . S
H2356 C2382 0.950 . S
H2357 C2384 0.950 . S
H2358 C2387 0.950 . S
H2359 C2388 0.950 . S
H2360 C2390 0.950 . S
H2361 C2391 0.950 . S
C2362 H2344 0.951 . S
C2362 C2363 1.366 . S
C2362 C2364 1.388 . S
C2363 C2362 1.366 . S
C2363 C2367 1.385 . S
C2364 H2345 0.951 . S
C2364 C2362 1.388 . S
C2364 C2365 1.366 . S
C2365 C2364 1.366 . S
C2365 C2366 1.414 . S
C2365 C2368 1.499 . S
C2366 H2346 0.950 . S
C2366 C2365 1.414 . S
C2366 C2367 1.374 . S
C2367 H2347 0.950 . S
C2367 C2363 1.385 . S
C2367 C2366 1.374 . S
C2368 C2365 1.499 . S
C2368 C2369 1.373 . S
C2368 C2370 1.389 . S
C2369 H2348 0.950 . S
C2369 C2368 1.373 . S
C2369 C2385 1.377 . S
C2370 C2368 1.389 . S
C2370 C2371 1.524 . S
C2370 C2384 1.377 . S
C2371 C2370 1.524 . S
C2371 C2372 1.397 . S
C2371 C2376 1.363 . S
C2372 H2349 0.950 . S
C2372 C2371 1.397 . S
C2372 C2373 1.334 . S
C2373 H2350 0.950 . S
C2373 C2372 1.334 . S
C2373 C2374 1.287 . S
C2374 C2373 1.287 . S
C2374 C2375 1.524 . S
C2374 H2393 0.913 . S
C2375 H2351 0.950 . S
C2375 C2374 1.524 . S
C2375 C2376 1.415 . S
C2376 H2352 0.950 . S
C2376 C2371 1.363 . S
C2376 C2375 1.415 . S
C2377 H2353 0.951 . S
C2377 C2378 1.366 . S
C2377 C2379 1.388 . S
C2378 C2377 1.366 . S
C2378 C2382 1.385 . S
C2379 H2354 0.951 . S
C2379 C2377 1.388 . S
C2379 C2380 1.366 . S
C2380 C2379 1.366 . S
C2380 C2381 1.414 . S
C2380 C2383 1.499 . S
C2381 H2355 0.950 . S
C2381 C2380 1.414 . S
C2381 C2382 1.374 . S
C2382 H2356 0.950 . S
C2382 C2378 1.385 . S
C2382 C2381 1.374 . S
C2383 C2380 1.499 . S
C2383 C2384 1.373 . S
C2383 C2385 1.389 . S
C2384 H2357 0.950 . S
C2384 C2370 1.377 . S
C2384 C2383 1.373 . S
C2385 C2369 1.377 . S
C2385 C2383 1.389 . S
C2385 C2386 1.524 . S
C2386 C2385 1.524 . S
C2386 C2387 1.397 . S
C2386 C2391 1.363 . S
C2387 H2358 0.950 . S
C2387 C2386 1.397 . S
C2387 C2388 1.334 . S
C2388 H2359 0.950 . S
C2388 C2387 1.334 . S
C2388 C2389 1.287 . S
C2389 C2388 1.287 . S
C2389 C2390 1.524 . S
C2389 H2392 0.999 . S
C2390 H2360 0.950 . S
C2390 C2389 1.524 . S
C2390 C2391 1.415 . S
C2391 H2361 0.950 . S
C2391 C2386 1.363 . S
C2391 C2390 1.415 . S
H2392 C2389 0.999 . S
H2393 C2374 0.913 . S
H2394 C2412 0.951 . S
H2395 C2414 0.951 . S
H2396 C2416 0.950 . S
H2397 C2417 0.950 . S
H2398 C2419 0.950 . S
H2399 C2422 0.950 . S
H2400 C2423 0.950 . S
H2401 C2425 0.950 . S
H2402 C2426 0.950 . S
H2403 C2427 0.951 . S
H2404 C2429 0.951 . S
H2405 C2431 0.950 . S
H2406 C2432 0.950 . S
H2407 C2434 0.950 . S
H2408 C2437 0.950 . S
H2409 C2438 0.950 . S
H2410 C2440 0.950 . S
H2411 C2441 0.950 . S
C2412 H2394 0.951 . S
C2412 C2413 1.366 . S
C2412 C2414 1.388 . S
C2413 C2412 1.366 . S
C2413 C2417 1.385 . S
C2414 H2395 0.951 . S
C2414 C2412 1.388 . S
C2414 C2415 1.366 . S
C2415 C2414 1.366 . S
C2415 C2416 1.414 . S
C2415 C2418 1.499 . S
C2416 H2396 0.950 . S
C2416 C2415 1.414 . S
C2416 C2417 1.374 . S
C2417 H2397 0.950 . S
C2417 C2413 1.385 . S
C2417 C2416 1.374 . S
C2418 C2415 1.499 . S
C2418 C2419 1.373 . S
C2418 C2420 1.389 . S
C2419 H2398 0.950 . S
C2419 C2418 1.373 . S
C2419 C2435 1.377 . S
C2420 C2418 1.389 . S
C2420 C2421 1.524 . S
C2420 C2434 1.377 . S
C2421 C2420 1.524 . S
C2421 C2422 1.397 . S
C2421 C2426 1.363 . S
C2422 H2399 0.950 . S
C2422 C2421 1.397 . S
C2422 C2423 1.334 . S
C2423 H2400 0.950 . S
C2423 C2422 1.334 . S
C2423 C2424 1.287 . S
C2424 C2423 1.287 . S
C2424 C2425 1.524 . S
C2424 H2443 0.913 . S
C2425 H2401 0.950 . S
C2425 C2424 1.524 . S
C2425 C2426 1.415 . S
C2426 H2402 0.950 . S
C2426 C2421 1.363 . S
C2426 C2425 1.415 . S
C2427 H2403 0.951 . S
C2427 C2428 1.366 . S
C2427 C2429 1.388 . S
C2428 C2427 1.366 . S
C2428 C2432 1.385 . S
C2429 H2404 0.951 . S
C2429 C2427 1.388 . S
C2429 C2430 1.366 . S
C2430 C2429 1.366 . S
C2430 C2431 1.414 . S
C2430 C2433 1.499 . S
C2431 H2405 0.950 . S
C2431 C2430 1.414 . S
C2431 C2432 1.374 . S
C2432 H2406 0.950 . S
C2432 C2428 1.385 . S
C2432 C2431 1.374 . S
C2433 C2430 1.499 . S
C2433 C2434 1.373 . S
C2433 C2435 1.389 . S
C2434 H2407 0.950 . S
C2434 C2420 1.377 . S
C2434 C2433 1.373 . S
C2435 C2419 1.377 . S
C2435 C2433 1.389 . S
C2435 C2436 1.524 . S
C2436 C2435 1.524 . S
C2436 C2437 1.397 . S
C2436 C2441 1.363 . S
C2437 H2408 0.950 . S
C2437 C2436 1.397 . S
C2437 C2438 1.334 . S
C2438 H2409 0.950 . S
C2438 C2437 1.334 . S
C2438 C2439 1.287 . S
C2439 C2438 1.287 . S
C2439 C2440 1.524 . S
C2439 H2442 0.999 . S
C2440 H2410 0.950 . S
C2440 C2439 1.524 . S
C2440 C2441 1.415 . S
C2441 H2411 0.950 . S
C2441 C2436 1.363 . S
C2441 C2440 1.415 . S
H2442 C2439 0.999 . S
H2443 C2424 0.913 . S
H2444 C2462 0.951 . S
H2445 C2464 0.951 . S
H2446 C2466 0.950 . S
H2447 C2467 0.950 . S
H2448 C2469 0.950 . S
H2449 C2472 0.950 . S
H2450 C2473 0.950 . S
H2451 C2475 0.950 . S
H2452 C2476 0.950 . S
H2453 C2477 0.951 . S
H2454 C2479 0.951 . S
H2455 C2481 0.950 . S
H2456 C2482 0.950 . S
H2457 C2484 0.950 . S
H2458 C2487 0.950 . S
H2459 C2488 0.950 . S
H2460 C2490 0.950 . S
H2461 C2491 0.950 . S
C2462 H2444 0.951 . S
C2462 C2463 1.366 . S
C2462 C2464 1.388 . S
C2463 C2462 1.366 . S
C2463 C2467 1.385 . S
C2464 H2445 0.951 . S
C2464 C2462 1.388 . S
C2464 C2465 1.366 . S
C2465 C2464 1.366 . S
C2465 C2466 1.414 . S
C2465 C2468 1.499 . S
C2466 H2446 0.950 . S
C2466 C2465 1.414 . S
C2466 C2467 1.374 . S
C2467 H2447 0.950 . S
C2467 C2463 1.385 . S
C2467 C2466 1.374 . S
C2468 C2465 1.499 . S
C2468 C2469 1.373 . S
C2468 C2470 1.389 . S
C2469 H2448 0.950 . S
C2469 C2468 1.373 . S
C2469 C2485 1.377 . S
C2470 C2468 1.389 . S
C2470 C2471 1.524 . S
C2470 C2484 1.377 . S
C2471 C2470 1.524 . S
C2471 C2472 1.397 . S
C2471 C2476 1.363 . S
C2472 H2449 0.950 . S
C2472 C2471 1.397 . S
C2472 C2473 1.334 . S
C2473 H2450 0.950 . S
C2473 C2472 1.334 . S
C2473 C2474 1.287 . S
C2474 C2473 1.287 . S
C2474 C2475 1.524 . S
C2474 H2493 0.913 . S
C2475 H2451 0.950 . S
C2475 C2474 1.524 . S
C2475 C2476 1.415 . S
C2476 H2452 0.950 . S
C2476 C2471 1.363 . S
C2476 C2475 1.415 . S
C2477 H2453 0.951 . S
C2477 C2478 1.366 . S
C2477 C2479 1.388 . S
C2478 C2477 1.366 . S
C2478 C2482 1.385 . S
C2479 H2454 0.951 . S
C2479 C2477 1.388 . S
C2479 C2480 1.366 . S
C2480 C2479 1.366 . S
C2480 C2481 1.414 . S
C2480 C2483 1.499 . S
C2481 H2455 0.950 . S
C2481 C2480 1.414 . S
C2481 C2482 1.374 . S
C2482 H2456 0.950 . S
C2482 C2478 1.385 . S
C2482 C2481 1.374 . S
C2483 C2480 1.499 . S
C2483 C2484 1.373 . S
C2483 C2485 1.389 . S
C2484 H2457 0.950 . S
C2484 C2470 1.377 . S
C2484 C2483 1.373 . S
C2485 C2469 1.377 . S
C2485 C2483 1.389 . S
C2485 C2486 1.524 . S
C2486 C2485 1.524 . S
C2486 C2487 1.397 . S
C2486 C2491 1.363 . S
C2487 H2458 0.950 . S
C2487 C2486 1.397 . S
C2487 C2488 1.334 . S
C2488 H2459 0.950 . S
C2488 C2487 1.334 . S
C2488 C2489 1.287 . S
C2489 C2488 1.287 . S
C2489 C2490 1.524 . S
C2489 H2492 0.999 . S
C2490 H2460 0.950 . S
C2490 C2489 1.524 . S
C2490 C2491 1.415 . S
C2491 H2461 0.950 . S
C2491 C2486 1.363 . S
C2491 C2490 1.415 . S
H2492 C2489 0.999 . S
H2493 C2474 0.913 . S
H2494 C2512 0.951 . S
H2495 C2514 0.951 . S
H2496 C2516 0.950 . S
H2497 C2517 0.950 . S
H2498 C2519 0.950 . S
H2499 C2522 0.950 . S
H2500 C2523 0.950 . S
H2501 C2525 0.950 . S
H2502 C2526 0.950 . S
H2503 C2527 0.951 . S
H2504 C2529 0.951 . S
H2505 C2531 0.950 . S
H2506 C2532 0.950 . S
H2507 C2534 0.950 . S
H2508 C2537 0.950 . S
H2509 C2538 0.950 . S
H2510 C2540 0.950 . S
H2511 C2541 0.950 . S
C2512 H2494 0.951 . S
C2512 C2513 1.366 . S
C2512 C2514 1.388 . S
C2513 C2512 1.366 . S
C2513 C2517 1.385 . S
C2514 H2495 0.951 . S
C2514 C2512 1.388 . S
C2514 C2515 1.366 . S
C2515 C2514 1.366 . S
C2515 C2516 1.414 . S
C2515 C2518 1.499 . S
C2516 H2496 0.950 . S
C2516 C2515 1.414 . S
C2516 C2517 1.374 . S
C2517 H2497 0.950 . S
C2517 C2513 1.385 . S
C2517 C2516 1.374 . S
C2518 C2515 1.499 . S
C2518 C2519 1.373 . S
C2518 C2520 1.389 . S
C2519 H2498 0.950 . S
C2519 C2518 1.373 . S
C2519 C2535 1.377 . S
C2520 C2518 1.389 . S
C2520 C2521 1.524 . S
C2520 C2534 1.377 . S
C2521 C2520 1.524 . S
C2521 C2522 1.397 . S
C2521 C2526 1.363 . S
C2522 H2499 0.950 . S
C2522 C2521 1.397 . S
C2522 C2523 1.334 . S
C2523 H2500 0.950 . S
C2523 C2522 1.334 . S
C2523 C2524 1.287 . S
C2524 C2523 1.287 . S
C2524 C2525 1.524 . S
C2524 H2543 0.913 . S
C2525 H2501 0.950 . S
C2525 C2524 1.524 . S
C2525 C2526 1.415 . S
C2526 H2502 0.950 . S
C2526 C2521 1.363 . S
C2526 C2525 1.415 . S
C2527 H2503 0.951 . S
C2527 C2528 1.366 . S
C2527 C2529 1.388 . S
C2528 C2527 1.366 . S
C2528 C2532 1.385 . S
C2529 H2504 0.951 . S
C2529 C2527 1.388 . S
C2529 C2530 1.366 . S
C2530 C2529 1.366 . S
C2530 C2531 1.414 . S
C2530 C2533 1.499 . S
C2531 H2505 0.950 . S
C2531 C2530 1.414 . S
C2531 C2532 1.374 . S
C2532 H2506 0.950 . S
C2532 C2528 1.385 . S
C2532 C2531 1.374 . S
C2533 C2530 1.499 . S
C2533 C2534 1.373 . S
C2533 C2535 1.389 . S
C2534 H2507 0.950 . S
C2534 C2520 1.377 . S
C2534 C2533 1.373 . S
C2535 C2519 1.377 . S
C2535 C2533 1.389 . S
C2535 C2536 1.524 . S
C2536 C2535 1.524 . S
C2536 C2537 1.397 . S
C2536 C2541 1.363 . S
C2537 H2508 0.950 . S
C2537 C2536 1.397 . S
C2537 C2538 1.334 . S
C2538 H2509 0.950 . S
C2538 C2537 1.334 . S
C2538 C2539 1.287 . S
C2539 C2538 1.287 . S
C2539 C2540 1.524 . S
C2539 H2542 0.999 . S
C2540 H2510 0.950 . S
C2540 C2539 1.524 . S
C2540 C2541 1.415 . S
C2541 H2511 0.950 . S
C2541 C2536 1.363 . S
C2541 C2540 1.415 . S
H2542 C2539 0.999 . S
H2543 C2524 0.913 . S
H2544 C2562 0.951 . S
H2545 C2564 0.951 . S
H2546 C2566 0.950 . S
H2547 C2567 0.950 . S
H2548 C2569 0.950 . S
H2549 C2572 0.950 . S
H2550 C2573 0.950 . S
H2551 C2575 0.950 . S
H2552 C2576 0.950 . S
H2553 C2577 0.951 . S
H2554 C2579 0.951 . S
H2555 C2581 0.950 . S
H2556 C2582 0.950 . S
H2557 C2584 0.950 . S
H2558 C2587 0.950 . S
H2559 C2588 0.950 . S
H2560 C2590 0.950 . S
H2561 C2591 0.950 . S
C2562 H2544 0.951 . S
C2562 C2563 1.366 . S
C2562 C2564 1.388 . S
C2563 C2562 1.366 . S
C2563 C2567 1.385 . S
C2564 H2545 0.951 . S
C2564 C2562 1.388 . S
C2564 C2565 1.366 . S
C2565 C2564 1.366 . S
C2565 C2566 1.414 . S
C2565 C2568 1.499 . S
C2566 H2546 0.950 . S
C2566 C2565 1.414 . S
C2566 C2567 1.374 . S
C2567 H2547 0.950 . S
C2567 C2563 1.385 . S
C2567 C2566 1.374 . S
C2568 C2565 1.499 . S
C2568 C2569 1.373 . S
C2568 C2570 1.389 . S
C2569 H2548 0.950 . S
C2569 C2568 1.373 . S
C2569 C2585 1.377 . S
C2570 C2568 1.389 . S
C2570 C2571 1.524 . S
C2570 C2584 1.377 . S
C2571 C2570 1.524 . S
C2571 C2572 1.397 . S
C2571 C2576 1.363 1_556 S
C2572 H2549 0.950 . S
C2572 C2571 1.397 . S
C2572 C2573 1.334 . S
C2573 H2550 0.950 . S
C2573 C2572 1.334 . S
C2573 C2574 1.287 1_556 S
C2574 C2573 1.287 1_554 S
C2574 C2575 1.524 . S
C2574 H2593 0.913 . S
C2575 H2551 0.950 . S
C2575 C2574 1.524 . S
C2575 C2576 1.415 . S
C2576 H2552 0.950 . S
C2576 C2571 1.363 1_554 S
C2576 C2575 1.415 . S
C2577 H2553 0.951 . S
C2577 C2578 1.366 . S
C2577 C2579 1.388 . S
C2578 C2577 1.366 . S
C2578 C2582 1.385 . S
C2579 H2554 0.951 . S
C2579 C2577 1.388 . S
C2579 C2580 1.366 . S
C2580 C2579 1.366 . S
C2580 C2581 1.414 . S
C2580 C2583 1.499 . S
C2581 H2555 0.950 . S
C2581 C2580 1.414 . S
C2581 C2582 1.374 . S
C2582 H2556 0.950 . S
C2582 C2578 1.385 . S
C2582 C2581 1.374 . S
C2583 C2580 1.499 . S
C2583 C2584 1.373 . S
C2583 C2585 1.389 . S
C2584 H2557 0.950 . S
C2584 C2570 1.377 . S
C2584 C2583 1.373 . S
C2585 C2569 1.377 . S
C2585 C2583 1.389 . S
C2585 C2586 1.524 . S
C2586 C2585 1.524 . S
C2586 C2587 1.397 . S
C2586 C2591 1.363 . S
C2587 H2558 0.950 . S
C2587 C2586 1.397 . S
C2587 C2588 1.334 . S
C2588 H2559 0.950 . S
C2588 C2587 1.334 . S
C2588 C2589 1.287 . S
C2589 C2588 1.287 . S
C2589 C2590 1.524 . S
C2589 H2592 0.999 . S
C2590 H2560 0.950 . S
C2590 C2589 1.524 . S
C2590 C2591 1.415 . S
C2591 H2561 0.950 . S
C2591 C2586 1.363 . S
C2591 C2590 1.415 . S
H2592 C2589 0.999 . S
H2593 C2574 0.913 . S
H2594 C2612 0.951 . S
H2595 C2614 0.951 . S
H2596 C2616 0.950 . S
H2597 C2617 0.950 . S
H2598 C2619 0.950 . S
H2599 C2622 0.950 . S
H2600 C2623 0.950 . S
H2601 C2625 0.950 . S
H2602 C2626 0.950 . S
H2603 C2627 0.951 . S
H2604 C2629 0.951 . S
H2605 C2631 0.950 . S
H2606 C2632 0.950 . S
H2607 C2634 0.950 . S
H2608 C2637 0.950 . S
H2609 C2638 0.950 . S
H2610 C2640 0.950 . S
H2611 C2641 0.950 . S
C2612 H2594 0.951 . S
C2612 C2613 1.366 . S
C2612 C2614 1.388 . S
C2613 C2612 1.366 . S
C2613 C2617 1.385 . S
C2614 H2595 0.951 . S
C2614 C2612 1.388 . S
C2614 C2615 1.366 . S
C2615 C2614 1.366 . S
C2615 C2616 1.414 . S
C2615 C2618 1.499 . S
C2616 H2596 0.950 . S
C2616 C2615 1.414 . S
C2616 C2617 1.374 . S
C2617 H2597 0.950 . S
C2617 C2613 1.385 . S
C2617 C2616 1.374 . S
C2618 C2615 1.499 . S
C2618 C2619 1.373 . S
C2618 C2620 1.389 . S
C2619 H2598 0.950 . S
C2619 C2618 1.373 . S
C2619 C2635 1.377 . S
C2620 C2618 1.389 . S
C2620 C2621 1.524 . S
C2620 C2634 1.377 . S
C2621 C2620 1.524 . S
C2621 C2622 1.397 . S
C2621 C2626 1.363 . S
C2622 H2599 0.950 . S
C2622 C2621 1.397 . S
C2622 C2623 1.334 . S
C2623 H2600 0.950 . S
C2623 C2622 1.334 . S
C2623 C2624 1.287 . S
C2624 C2623 1.287 . S
C2624 C2625 1.524 . S
C2624 H2643 0.913 . S
C2625 H2601 0.950 . S
C2625 C2624 1.524 . S
C2625 C2626 1.415 . S
C2626 H2602 0.950 . S
C2626 C2621 1.363 . S
C2626 C2625 1.415 . S
C2627 H2603 0.951 . S
C2627 C2628 1.366 . S
C2627 C2629 1.388 . S
C2628 C2627 1.366 . S
C2628 C2632 1.385 . S
C2629 H2604 0.951 . S
C2629 C2627 1.388 . S
C2629 C2630 1.366 . S
C2630 C2629 1.366 . S
C2630 C2631 1.414 . S
C2630 C2633 1.499 . S
C2631 H2605 0.950 . S
C2631 C2630 1.414 . S
C2631 C2632 1.374 . S
C2632 H2606 0.950 . S
C2632 C2628 1.385 . S
C2632 C2631 1.374 . S
C2633 C2630 1.499 . S
C2633 C2634 1.373 . S
C2633 C2635 1.389 . S
C2634 H2607 0.950 . S
C2634 C2620 1.377 . S
C2634 C2633 1.373 . S
C2635 C2619 1.377 . S
C2635 C2633 1.389 . S
C2635 C2636 1.524 . S
C2636 C2635 1.524 . S
C2636 C2637 1.397 . S
C2636 C2641 1.363 . S
C2637 H2608 0.950 . S
C2637 C2636 1.397 . S
C2637 C2638 1.334 . S
C2638 H2609 0.950 . S
C2638 C2637 1.334 . S
C2638 C2639 1.287 . S
C2639 C2638 1.287 . S
C2639 C2640 1.524 . S
C2639 H2642 0.999 . S
C2640 H2610 0.950 . S
C2640 C2639 1.524 . S
C2640 C2641 1.415 . S
C2641 H2611 0.950 . S
C2641 C2636 1.363 . S
C2641 C2640 1.415 . S
H2642 C2639 0.999 . S
H2643 C2624 0.913 . S
H2644 C2662 0.951 . S
H2645 C2664 0.951 . S
H2646 C2666 0.950 . S
H2647 C2667 0.950 . S
H2648 C2669 0.950 . S
H2649 C2672 0.950 . S
H2650 C2673 0.950 . S
H2651 C2675 0.950 . S
H2652 C2676 0.976 . S
H2653 C2677 0.951 . S
H2654 C2679 0.951 . S
H2655 C2681 0.957 . S
H2656 C2682 0.950 1_556 S
H2657 C2684 0.950 . S
H2658 C2687 0.950 . S
H2659 C2688 0.950 . S
H2660 C2690 0.950 . S
H2661 C2691 0.950 . S
C2662 H2644 0.951 . S
C2662 C2663 1.366 . S
C2662 C2664 1.388 . S
C2663 C2662 1.366 . S
C2663 C2667 1.385 . S
C2664 H2645 0.951 . S
C2664 C2662 1.388 . S
C2664 C2665 1.366 . S
C2665 C2664 1.366 . S
C2665 C2666 1.414 . S
C2665 C2668 1.499 . S
C2666 H2646 0.950 . S
C2666 C2665 1.414 . S
C2666 C2667 1.374 . S
C2667 H2647 0.950 . S
C2667 C2663 1.385 . S
C2667 C2666 1.374 . S
C2668 C2665 1.499 . S
C2668 C2669 1.373 . S
C2668 C2670 1.389 . S
C2669 H2648 0.950 . S
C2669 C2668 1.373 . S
C2669 C2685 1.377 . S
C2670 C2668 1.389 . S
C2670 C2671 1.524 . S
C2670 C2684 1.377 . S
C2671 C2670 1.524 . S
C2671 C2672 1.397 . S
C2671 C2676 1.317 1_554 S
C2672 H2649 0.950 . S
C2672 C2671 1.397 . S
C2672 C2673 1.334 . S
C2673 H2650 0.950 . S
C2673 C2672 1.334 . S
C2673 C2674 1.287 . S
C2674 C2673 1.287 . S
C2674 C2675 1.524 1_554 S
C2674 H2693 0.913 1_554 S
C2675 H2651 0.950 . S
C2675 C2674 1.524 1_556 S
C2675 C2676 1.437 . S
C2676 H2652 0.976 . S
C2676 C2671 1.317 1_556 S
C2676 C2675 1.437 . S
C2677 H2653 0.951 . S
C2677 C2678 1.366 . S
C2677 C2679 1.388 . S
C2678 C2677 1.366 . S
C2678 C2682 1.385 . S
C2679 H2654 0.951 . S
C2679 C2677 1.388 . S
C2679 C2680 1.366 . S
C2680 C2679 1.366 . S
C2680 C2681 1.414 . S
C2680 C2683 1.499 . S
C2681 H2655 0.957 . S
C2681 C2680 1.414 . S
C2681 C2682 1.374 . S
C2682 H2656 0.950 1_554 S
C2682 C2678 1.385 . S
C2682 C2681 1.374 . S
C2683 C2680 1.499 . S
C2683 C2684 1.373 . S
C2683 C2685 1.389 . S
C2684 H2657 0.950 . S
C2684 C2670 1.377 . S
C2684 C2683 1.373 . S
C2685 C2669 1.377 . S
C2685 C2683 1.389 . S
C2685 C2686 1.524 . S
C2686 C2685 1.524 . S
C2686 C2687 1.397 . S
C2686 C2691 1.363 . S
C2687 H2658 0.950 . S
C2687 C2686 1.397 . S
C2687 C2688 1.334 . S
C2688 H2659 0.950 . S
C2688 C2687 1.334 . S
C2688 C2689 1.287 . S
C2689 C2688 1.287 . S
C2689 C2690 1.524 . S
C2689 H2692 0.999 . S
C2690 H2660 0.950 . S
C2690 C2689 1.524 . S
C2690 C2691 1.415 . S
C2691 H2661 0.950 . S
C2691 C2686 1.363 . S
C2691 C2690 1.415 . S
H2692 C2689 0.999 . S
H2693 C2674 0.913 1_556 S
H2694 C2712 0.951 . S
H2695 C2714 0.951 . S
H2696 C2716 0.950 . S
H2697 C2717 0.950 . S
H2698 C2719 0.950 . S
H2699 C2722 0.950 . S
H2700 C2723 0.950 . S
H2701 C2725 0.950 . S
H2702 C2726 0.950 . S
H2703 C2727 0.951 1_565 S
H2704 C2729 0.951 . S
H2705 C2731 0.950 . S
H2706 C2732 0.950 . S
H2707 C2734 0.950 . S
H2708 C2737 0.950 . S
H2709 C2738 0.950 . S
H2710 C2740 0.950 . S
H2711 C2741 0.950 . S
C2712 H2694 0.951 . S
C2712 C2713 1.366 . S
C2712 C2714 1.388 . S
C2713 C2712 1.366 . S
C2713 C2717 1.385 . S
C2714 H2695 0.951 . S
C2714 C2712 1.388 . S
C2714 C2715 1.366 . S
C2715 C2714 1.366 . S
C2715 C2716 1.414 . S
C2715 C2718 1.499 . S
C2716 H2696 0.950 . S
C2716 C2715 1.414 . S
C2716 C2717 1.374 . S
C2717 H2697 0.950 . S
C2717 C2713 1.385 . S
C2717 C2716 1.374 . S
C2718 C2715 1.499 . S
C2718 C2719 1.373 . S
C2718 C2720 1.389 . S
C2719 H2698 0.950 . S
C2719 C2718 1.373 . S
C2719 C2735 1.377 . S
C2720 C2718 1.389 . S
C2720 C2721 1.524 . S
C2720 C2734 1.377 . S
C2721 C2720 1.524 . S
C2721 C2722 1.397 . S
C2721 C2726 1.363 . S
C2722 H2699 0.950 . S
C2722 C2721 1.397 . S
C2722 C2723 1.334 . S
C2723 H2700 0.950 . S
C2723 C2722 1.334 . S
C2723 C2724 1.287 . S
C2724 C2723 1.287 . S
C2724 C2725 1.524 . S
C2724 H2743 0.913 . S
C2725 H2701 0.950 . S
C2725 C2724 1.524 . S
C2725 C2726 1.415 . S
C2726 H2702 0.950 . S
C2726 C2721 1.363 . S
C2726 C2725 1.415 . S
C2727 H2703 0.951 1_545 S
C2727 C2728 1.382 . S
C2727 C2729 1.388 . S
C2728 C2727 1.382 . S
C2728 C2732 1.399 . S
C2729 H2704 0.951 . S
C2729 C2727 1.388 . S
C2729 C2730 1.366 . S
C2730 C2729 1.366 . S
C2730 C2731 1.414 . S
C2730 C2733 1.499 . S
C2731 H2705 0.950 . S
C2731 C2730 1.414 . S
C2731 C2732 1.374 . S
C2732 H2706 0.950 . S
C2732 C2728 1.399 . S
C2732 C2731 1.374 . S
C2733 C2730 1.499 . S
C2733 C2734 1.373 . S
C2733 C2735 1.389 . S
C2734 H2707 0.950 . S
C2734 C2720 1.377 . S
C2734 C2733 1.373 . S
C2735 C2719 1.377 . S
C2735 C2733 1.389 . S
C2735 C2736 1.524 . S
C2736 C2735 1.524 . S
C2736 C2737 1.397 . S
C2736 C2741 1.363 . S
C2737 H2708 0.950 . S
C2737 C2736 1.397 . S
C2737 C2738 1.334 1_545 S
C2738 H2709 0.950 . S
C2738 C2737 1.334 1_565 S
C2738 C2739 1.287 . S
C2739 C2738 1.287 . S
C2739 C2740 1.524 1_565 S
C2739 H2742 0.999 . S
C2740 H2710 0.950 . S
C2740 C2739 1.524 1_545 S
C2740 C2741 1.415 . S
C2741 H2711 0.950 . S
C2741 C2736 1.363 . S
C2741 C2740 1.415 . S
H2742 C2739 0.999 . S
H2743 C2724 0.913 . S
C378 C184 1.796 . S
C363 C60 1.798 . S
C428 C199 1.539 . S
C413 C76 1.555 . S
C463 C81 1.877 . S
C478 C212 1.859 . S
C528 C226 1.561 . S
C513 C48 1.576 . S
C578 C238 1.722 . S
C563 C115 1.808 . S
C628 C252 1.353 . S
C613 C136 1.369 . S
C663 C131 1.585 . S
C678 C266 1.551 . S
C728 C281 1.336 . S
C713 C104 1.355 . S
C763 C126 1.633 . S
C778 C297 1.603 . S
C828 C310 1.334 . S
C813 C103 1.323 . S
C863 C120 1.541 . S
C878 C295 1.486 . S
C928 C308 1.481 . S
C913 C142 1.471 . S
C963 C82 1.928 . S
C978 C324 1.926 . S
C1013 C54 1.852 . S
C1028 C323 1.817 . S
C1063 C65 1.670 . S
C1078 C322 1.620 . S
C1113 C71 1.242 . S
C1128 C325 1.246 . S
C1163 C37 1.765 . S
C1178 C227 1.754 . S
C1213 C158 1.912 . S
C1228 C225 1.890 . S
C1278 C185 1.356 . S
C1263 C169 1.367 . S
C1328 C196 1.505 . S
C1313 C98 1.539 . S
C1363 C49 1.699 . S
C1378 C241 1.698 . S
C1428 C282 1.958 . S
C1413 C125 1.958 . S
C1478 C239 1.430 . S
C1463 C109 1.433 . S
C1528 C267 1.688 . S
C1513 C137 1.719 . S
C1578 C268 1.796 . S
C1563 C159 1.798 . S
C1613 C175 1.555 . S
C1628 C283 1.539 . S
C1663 C92 1.878 . S
C1678 C240 1.860 . S
C1728 C254 1.560 . S
C1713 C147 1.576 . S
C1763 C38 1.808 . S
C1778 C210 1.722 . S
C1828 C224 1.354 . S
C1813 C4 1.369 . S
C1878 C182 1.551 . S
C1863 C21 1.584 . S
C1928 C197 1.336 . S
C1913 C27 1.355 . S
C1963 C16 1.633 . S
C1978 C311 1.603 . S
C2013 C26 1.323 . S
C2028 C296 1.334 . S
C2063 C43 1.541 . S
C2078 C309 1.486 . S
C2113 C10 1.471 . S
C2128 C294 1.481 . S
C2178 C338 1.926 . S
C2163 C93 1.928 . S
C2228 C337 1.816 . S
C2213 C153 1.852 . S
C2278 C336 1.620 . S
C2263 C164 1.670 . S
C2313 C170 1.242 . S
C2328 C339 1.246 . S
C2363 C114 1.765 . S
C2378 C255 1.754 . S
C2428 C253 1.889 . S
C2413 C59 1.912 . S
C2478 C269 1.357 . S
C2463 C70 1.367 . S
C2528 C280 1.505 . S
C2513 C87 1.539 . S
C2563 C148 1.699 . S
C2578 C213 1.698 . S
C2628 C198 1.958 . S
C2613 C15 1.958 . S
C2663 C32 1.434 . S
C2678 C211 1.430 . S
C2728 C183 1.660 1_545 S
C2713 C5 1.719 . S
