# Generated by pormake.
# Topology ssa, (4,4)-cn, num edge types: 1
# Building blocks:
#     Node 0, Type 0, BuildingBlock: ESEHIV_clean_sbu_0, # of connection points: 4
#     Node 1, Type 0, BuildingBlock: ESEHIV_clean_sbu_0, # of connection points: 4
#     Node 2, Type 0, BuildingBlock: ESEHIV_clean_sbu_0, # of connection points: 4
#     Node 3, Type 0, BuildingBlock: ESEHIV_clean_sbu_0, # of connection points: 4
#     Node 4, Type 0, BuildingBlock: ESEHIV_clean_sbu_0, # of connection points: 4
#     Node 5, Type 0, BuildingBlock: ESEHIV_clean_sbu_0, # of connection points: 4
#     Node 6, Type 1, BuildingBlock: AZAVOO_clean_linker_0, # of connection points: 4
#     Node 7, Type 1, BuildingBlock: AZAVOO_clean_linker_0, # of connection points: 4
#     Node 8, Type 1, BuildingBlock: AZAVOO_clean_linker_0, # of connection points: 4
#     Node 9, Type 1, BuildingBlock: AZAVOO_clean_linker_0, # of connection points: 4
#     Node 10, Type 1, BuildingBlock: AZAVOO_clean_linker_0, # of connection points: 4
#     Node 11, Type 1, BuildingBlock: AZAVOO_clean_linker_0, # of connection points: 4
#     Edge 12, Type (0, 1), None
#     Edge 13, Type (0, 1), None
#     Edge 14, Type (0, 1), None
#     Edge 15, Type (0, 1), None
#     Edge 16, Type (0, 1), None
#     Edge 17, Type (0, 1), None
#     Edge 18, Type (0, 1), None
#     Edge 19, Type (0, 1), None
#     Edge 20, Type (0, 1), None
#     Edge 21, Type (0, 1), None
#     Edge 22, Type (0, 1), None
#     Edge 23, Type (0, 1), None
#     Edge 24, Type (0, 1), None
#     Edge 25, Type (0, 1), None
#     Edge 26, Type (0, 1), None
#     Edge 27, Type (0, 1), None
#     Edge 28, Type (0, 1), None
#     Edge 29, Type (0, 1), None
#     Edge 30, Type (0, 1), None
#     Edge 31, Type (0, 1), None
#     Edge 32, Type (0, 1), None
#     Edge 33, Type (0, 1), None
#     Edge 34, Type (0, 1), None
#     Edge 35, Type (0, 1), None
# Relax obj value: 0.115
# Max RMSD: 0.248
# Mean RMSD: 0.162
data_MOF--net-ssa--node1-ESEHIV_clean_sbu_0--node2-AZAVOO_clean_linker_0--edge1-none
_symmetry_space_group_name_H-M    P1
_symmetry_Int_Tables_number       1
_symmetry_cell_setting            triclinic
loop_
_symmetry_equiv_pos_as_xyz
'x, y, z'
_cell_length_a     26.874597
_cell_length_b     30.546186
_cell_length_c     26.28561
_cell_angle_alpha  85.857113
_cell_angle_beta   95.698001
_cell_angle_gamma 125.14709
loop_
_atom_site_label
_atom_site_type_symbol
_atom_site_fract_x
_atom_site_fract_y
_atom_site_fract_z
_atom_type_partial_charge
Cu0 Cu 0.15733 0.59159 0.03511 0.0
N1 N 0.16063 0.57832 0.96846 0.0
N2 N 0.11638 0.51331 0.91125 0.0
C3 C 0.10808 0.53804 0.94626 0.0
C4 C 0.17754 0.54094 0.90966 0.0
C5 C 0.20487 0.58115 0.94525 0.0
O6 O 0.07281 0.57089 0.03629 0.0
C7 C 0.23707 0.56738 0.08093 0.0
O8 O 0.27498 0.61126 0.05526 0.0
H9 H 0.06492 0.52128 0.96213 0.0
H10 H 0.25285 0.60574 0.95745 0.0
N11 N 0.21291 0.66194 0.05505 0.0
N12 N 0.27413 0.72559 0.11146 0.0
C13 C 0.2334 0.67297 0.10415 0.0
C14 C 0.24158 0.70951 0.02987 0.0
C15 C 0.27927 0.74936 0.06513 0.0
C16 C 0.06046 0.60483 0.02209 0.0
O17 O 0.10559 0.65575 0.0201 0.0
H18 H 0.21852 0.64263 0.13418 0.0
H19 H 0.23546 0.71477 0.98914 0.0
O20 O 0.18054 0.54965 0.07835 0.0
H21 H 0.20093 0.52993 0.88811 0.0
H22 H 0.30866 0.792 0.05736 0.0
Cu23 Cu 0.66099 0.05545 0.56062 0.0
N24 N 0.65633 0.99163 0.56428 0.0
N25 N 0.65338 0.92256 0.53659 0.0
C26 C 0.65389 0.96625 0.52329 0.0
C27 C 0.65581 0.9202 0.58815 0.0
C28 C 0.6568 0.96258 0.60517 0.0
O29 O 0.64734 0.06691 0.48898 0.0
C30 C 0.7802 0.1137 0.61156 0.0
O31 O 0.77865 0.07019 0.6087 0.0
H32 H 0.65504 0.98075 0.48441 0.0
H33 H 0.65923 0.97229 0.6445 0.0
N34 N 0.60187 0.04959 0.59829 0.0
N35 N 0.55952 0.07419 0.64867 0.0
C36 C 0.61091 0.08838 0.62745 0.0
C37 C 0.54276 0.00923 0.60066 0.0
C38 C 0.51655 0.02408 0.63181 0.0
C39 C 0.59987 0.06467 0.47282 0.0
O40 O 0.58019 0.08474 0.50114 0.0
H41 H 0.65447 0.12661 0.63195 0.0
H42 H 0.5202 0.97227 0.58023 0.0
O43 O 0.7378 0.11586 0.58864 0.0
H44 H 0.65705 0.89022 0.61169 0.0
H45 H 0.46933 0.99955 0.64092 0.0
Cu46 Cu 0.62361 0.51912 0.10538 0.0
N47 N 0.60691 0.45212 0.09079 0.0
N48 N 0.58422 0.38526 0.04122 0.0
C49 C 0.59579 0.43439 0.04258 0.0
C50 C 0.58846 0.3714 0.0906 0.0
C51 C 0.60315 0.41299 0.12111 0.0
O52 O 0.67339 0.56377 0.04946 0.0
C53 C 0.51147 0.47435 0.14049 0.0
O54 O 0.52278 0.43906 0.15665 0.0
H55 H 0.59553 0.45701 1.009 0.0
H56 H 0.61014 0.4144 0.16236 0.0
N57 N 0.66338 0.54847 0.16965 0.0
N58 N 0.68357 0.59509 0.24025 0.0
C59 C 0.65407 0.58068 0.19338 0.0
C60 C 0.70043 0.54213 0.20281 0.0
C61 C 0.71353 0.57139 0.24619 0.0
C62 C 0.72163 0.56499 0.04941 0.0
O63 O 0.73826 0.54864 0.091 0.0
H64 H 0.62635 0.59379 0.17614 0.0
H65 H 0.71629 0.51766 0.19624 0.0
O66 O 0.54723 0.51172 0.10996 0.0
H67 H 0.58221 0.3342 0.10362 0.0
H68 H 0.74211 0.57434 0.2797 0.0
Cu69 Cu 0.07236 0.50391 0.57097 0.0
N70 N 0.0601 0.4582 0.52134 0.0
N71 N 0.08936 0.43254 0.46062 0.0
C72 C 0.10542 0.45785 0.50513 0.0
C73 C 0.03073 0.41469 0.4487 0.0
C74 C 0.01262 0.43077 0.48655 0.0
O75 O 0.14205 0.57625 0.5527 0.0
C76 C 0.06278 0.42799 0.64796 0.0
O77 O 0.07135 0.40674 0.61107 0.0
H78 H 0.15107 0.47966 0.52329 0.0
H79 H 0.97009 0.42709 0.48626 0.0
N80 N 0.00696 0.50898 0.5647 0.0
N81 N 0.93864 0.51634 0.59646 0.0
C82 C 0.96808 0.49248 0.60125 0.0
C83 C 1.00098 0.54347 0.53467 0.0
C84 C 0.95884 0.54839 0.5545 0.0
C85 C 0.19791 0.59436 0.54966 0.0
O86 O 0.21809 0.566 0.56894 0.0
H87 H 0.96778 0.46953 0.63467 0.0
H88 H 0.03019 0.56786 0.50438 0.0
O89 O 0.06983 0.47297 0.6399 0.0
H90 H 1.00518 0.39637 0.41297 0.0
H91 H 0.94872 0.57727 0.54237 0.0
Cu92 Cu 0.6578 0.04561 0.10262 0.0
N93 N 0.66766 0.11097 0.09437 0.0
N94 N 0.6496 0.16878 0.05686 0.0
C95 C 0.62854 0.11693 0.06434 0.0
C96 C 0.70429 0.19676 0.08368 0.0
C97 C 0.71518 0.1608 0.10719 0.0
O98 O 0.63074 0.01074 0.03709 0.0
C99 C 0.5695 0.0075 0.18039 0.0
O100 O 0.58069 0.05548 0.17831 0.0
H101 H 0.58775 0.08391 0.04481 0.0
H102 H 0.75607 0.17056 0.12974 0.0
N103 N 0.72795 0.04994 0.12534 0.0
N104 N 0.77713 0.01495 0.15999 0.0
C105 C 0.7229 0.00568 0.14371 0.0
C106 C 0.78805 0.08938 0.12954 0.0
C107 C 0.81866 0.06783 0.15181 0.0
C108 C 0.65168 0.02665 0.99301 0.0
O109 O 0.62483 0.99228 0.95572 0.0
H110 H 0.67931 0.96752 0.14709 0.0
H111 H 0.80815 0.13068 0.11803 0.0
O112 O 0.59635 0.99693 0.1512 0.0
H113 H 0.73522 0.23999 0.08443 0.0
H114 H 0.86718 0.08932 0.16181 0.0
Cu115 Cu 0.53117 0.50646 0.59852 0.0
N116 N 0.51877 0.55989 0.59045 0.0
N117 N 0.54294 0.62775 0.53563 0.0
C118 C 0.56382 0.60495 0.56856 0.0
C119 C 0.48179 0.59673 0.53894 0.0
C120 C 0.46708 0.55469 0.57266 0.0
O121 O 0.53287 0.49399 0.52599 0.0
C122 C 0.60037 0.54319 0.69088 0.0
O123 O 0.54893 0.53395 0.70318 0.0
H124 H 0.60928 0.61425 0.56909 0.0
H125 H 0.42207 0.51896 0.57768 0.0
N126 N 0.47261 0.44479 0.63305 0.0
N127 N 0.45768 0.38604 0.69611 0.0
C128 C 0.48842 0.41284 0.65457 0.0
C129 C 0.42835 0.43657 0.66085 0.0
C130 C 0.41856 0.39975 0.69962 0.0
C131 C 0.4858 0.45595 0.50092 0.0
O132 O 0.44131 0.41621 0.52646 0.0
H133 H 0.52755 0.41486 0.64386 0.0
H134 H 0.41099 0.46104 0.658 0.0
O135 O 0.60519 0.53552 0.64478 0.0
H136 H 0.44938 0.60054 0.51482 0.0
H137 H 0.39049 0.38911 0.73131 0.0
H138 H 0.29607 0.42374 0.63958 0.0
H139 H 0.0065 0.48191 0.14821 0.0
H140 H 0.46572 0.5552 0.36966 0.0
H141 H 0.51872 0.54886 0.44805 0.0
H142 H 0.41832 0.37833 0.42921 0.0
H143 H 0.36722 0.38524 0.34984 0.0
H144 H 0.35208 0.52399 0.43602 0.0
H145 H 0.33707 0.49742 0.52603 0.0
H146 H 0.25991 0.3339 0.48701 0.0
H147 H 0.26914 0.36012 0.3963 0.0
H148 H 0.27267 0.53653 0.38817 0.0
H149 H 0.19712 0.52386 0.44296 0.0
H150 H 0.07694 0.35742 0.40185 0.0
H151 H 0.1542 0.37026 0.34709 0.0
H152 H 0.28155 0.57586 0.26439 0.0
H153 H 0.20904 0.59253 0.22081 0.0
H154 H 0.07331 0.42179 0.20922 0.0
H155 H 0.14686 0.40574 0.25161 0.0
H156 H 0.37991 0.58831 0.20845 0.0
H157 H 0.34443 0.6223 0.13796 0.0
H158 H 0.18888 0.46151 0.10504 0.0
H159 H 0.22762 0.427 0.17336 0.0
H160 H 0.4536 0.56755 0.22109 0.0
H161 H 0.51476 0.56309 0.16082 0.0
H162 H 0.41294 0.39188 0.18612 0.0
H163 H 0.35121 0.39648 0.24483 0.0
O164 O 0.3015 0.43337 0.60367 0.0
O165 O 0.27338 0.35245 0.58277 0.0
O166 O 0.10589 0.56386 0.17586 0.0
O167 O 0.03572 0.47651 0.16649 0.0
C168 C 0.36045 0.47024 0.32522 0.0
C169 C 0.31289 0.45903 0.35468 0.0
C170 C 0.26576 0.46292 0.33252 0.0
C171 C 0.26618 0.47991 0.28163 0.0
C172 C 0.31119 0.48859 0.25048 0.0
C173 C 0.35825 0.48305 0.27199 0.0
C174 C 0.41226 0.47072 0.35328 0.0
C175 C 0.45823 0.51699 0.38024 0.0
C176 C 0.48821 0.5132 0.42567 0.0
C177 C 0.47224 0.46291 0.44545 0.0
C178 C 0.43176 0.41767 0.41516 0.0
C179 C 0.40292 0.42168 0.36918 0.0
C180 C 0.31214 0.44403 0.40978 0.0
C181 C 0.33221 0.4825 0.44703 0.0
C182 C 0.32414 0.46728 0.49853 0.0
C183 C 0.29868 0.41376 0.51396 0.0
C184 C 0.28018 0.37555 0.4765 0.0
C185 C 0.28583 0.39044 0.42475 0.0
C186 C 0.21871 0.45423 0.36437 0.0
C187 C 0.23021 0.49728 0.3912 0.0
C188 C 0.18728 0.4899 0.42245 0.0
C189 C 0.13186 0.43944 0.42678 0.0
C190 C 0.11953 0.39648 0.39881 0.0
C191 C 0.16329 0.40374 0.36796 0.0
C192 C 0.21955 0.48961 0.2609 0.0
C193 C 0.23602 0.54212 0.25265 0.0
C194 C 0.19458 0.55151 0.22758 0.0
C195 C 0.13548 0.50845 0.21112 0.0
C196 C 0.11851 0.45584 0.22114 0.0
C197 C 0.1602 0.44653 0.24582 0.0
C198 C 0.30714 0.50495 0.1961 0.0
C199 C 0.34083 0.55986 0.18383 0.0
C200 C 0.31929 0.57938 0.14433 0.0
C201 C 0.26278 0.5446 0.1172 0.0
C202 C 0.23188 0.48925 0.12609 0.0
C203 C 0.2549 0.4695 0.16428 0.0
C204 C 0.39814 0.48233 0.2376 0.0
C205 C 0.44388 0.52903 0.21289 0.0
C206 C 0.47838 0.52636 0.1781 0.0
C207 C 0.46808 0.47701 0.16825 0.0
C208 C 0.42161 0.43042 0.19261 0.0
C209 C 0.38691 0.43305 0.22674 0.0
C210 C 0.29046 0.39784 0.5688 0.0
C211 C 0.09167 0.51817 0.18349 0.0
H212 H 0.89126 0.35461 0.15624 0.0
H213 H 0.5958 0.90944 0.74621 0.0
H214 H 0.91462 0.37333 0.88478 0.0
H215 H 0.99453 0.46664 0.90184 0.0
H216 H 0.1313 0.4374 0.88341 0.0
H217 H 0.05005 0.34354 0.86557 0.0
H218 H 0.81625 0.27897 0.94604 0.0
H219 H 0.83191 0.30992 0.03317 0.0
H220 H 0.99502 0.31228 0.05686 0.0
H221 H 0.97836 0.28066 0.96974 0.0
H222 H 0.72929 0.18702 0.90639 0.0
H223 H 0.65065 0.11141 0.95659 0.0
H224 H 0.77064 0.06176 0.99692 0.0
H225 H 0.85003 0.13834 0.9479 0.0
H226 H 0.73012 0.17082 0.77505 0.0
H227 H 0.64599 0.08539 0.7386 0.0
H228 H 0.7255 0.00749 0.81621 0.0
H229 H 0.81013 0.09345 0.85176 0.0
H230 H 0.82944 0.2538 0.71091 0.0
H231 H 0.79099 0.20577 0.63044 0.0
H232 H 0.85534 0.10861 0.68614 0.0
H233 H 0.89389 0.15728 0.76627 0.0
H234 H 0.92997 0.37192 0.77676 0.0
H235 H 0.99406 0.43667 0.71181 0.0
H236 H 0.0603 0.34107 0.6864 0.0
H237 H 0.99898 0.27814 0.75399 0.0
O238 O 0.88537 0.34154 0.1222 0.0
O239 O 0.96918 0.34258 0.13222 0.0
O240 O 0.58836 0.98538 0.72294 0.0
O241 O 0.62803 0.94349 0.76091 0.0
C242 C 0.92736 0.29591 0.86141 0.0
C243 C 0.88708 0.25962 0.89849 0.0
C244 C 0.83815 0.20711 0.88453 0.0
C245 C 0.83017 0.19132 0.83341 0.0
C246 C 0.87192 0.22711 0.79702 0.0
C247 C 0.91954 0.2801 0.81034 0.0
C248 C 0.97669 0.35163 0.87516 0.0
C249 C 0.96186 0.387 0.885 0.0
C250 C 0.0078 0.44051 0.89419 0.0
C251 C 0.06974 0.45989 0.89406 0.0
C252 C 0.08436 0.42431 0.88316 0.0
C253 C 0.03809 0.37051 0.87383 0.0
C254 C 0.89585 0.27707 0.9518 0.0
C255 C 0.8549 0.28554 0.97032 0.0
C256 C 0.86413 0.30349 0.02004 0.0
C257 C 0.9147 0.31353 0.05204 0.0
C258 C 0.95559 0.30488 0.03326 0.0
C259 C 0.94619 0.28681 0.98356 0.0
C260 C 0.79539 0.1681 0.92301 0.0
C261 C 0.7396 0.16111 0.92764 0.0
C262 C 0.69489 0.11818 0.9567 0.0
C263 C 0.70491 0.08123 0.98129 0.0
C264 C 0.76229 0.09041 0.9795 0.0
C265 C 0.80737 0.13378 0.95099 0.0
C266 C 0.77597 0.13822 0.81638 0.0
C267 C 0.72908 0.13518 0.78442 0.0
C268 C 0.68127 0.08643 0.76337 0.0
C269 C 0.67924 0.03969 0.77416 0.0
C270 C 0.72571 0.04273 0.80707 0.0
C271 C 0.77379 0.09165 0.82787 0.0
C272 C 0.86355 0.20839 0.74446 0.0
C273 C 0.83717 0.22351 0.70488 0.0
C274 C 0.81514 0.19586 0.65901 0.0
C275 C 0.81906 0.15261 0.65231 0.0
C276 C 0.85127 0.14144 0.69014 0.0
C277 C 0.87323 0.16911 0.73599 0.0
C278 C 0.95934 0.31984 0.77045 0.0
C279 C 0.95932 0.36544 0.75809 0.0
C280 C 0.99616 0.40262 0.72085 0.0
C281 C 0.03246 0.3942 0.69372 0.0
C282 C 0.03304 0.34891 0.70658 0.0
C283 C 0.99744 0.31251 0.74486 0.0
C284 C 0.92491 0.33337 0.10458 0.0
C285 C 0.62906 0.98802 0.75105 0.0
H286 H 0.81687 0.72874 0.07126 0.0
H287 H 0.76775 0.12604 0.40014 0.0
H288 H 0.59991 0.67725 0.29713 0.0
H289 H 0.59163 0.60507 0.25326 0.0
H290 H 0.77763 0.66623 0.3052 0.0
H291 H 0.78559 0.73832 0.34926 0.0
H292 H 0.67645 0.74556 0.21519 0.0
H293 H 0.71877 0.72878 0.14705 0.0
H294 H 0.90046 0.83791 0.2171 0.0
H295 H 0.85731 0.85342 0.28575 0.0
H296 H 0.69522 0.84158 0.20578 0.0
H297 H 0.7112 0.90954 0.14253 0.0
H298 H 0.85787 0.03247 0.24057 0.0
H299 H 0.84549 0.96319 0.3024 0.0
H300 H 0.65767 0.8963 0.28517 0.0
H301 H 0.6605 0.97728 0.29105 0.0
H302 H 0.79958 0.03081 0.41586 0.0
H303 H 0.79702 0.95004 0.40899 0.0
H304 H 0.60011 0.83823 0.38257 0.0
H305 H 0.587 0.8841 0.44718 0.0
H306 H 0.72648 0.88788 0.54701 0.0
H307 H 0.74381 0.84657 0.48044 0.0
H308 H 0.55978 0.70312 0.37323 0.0
H309 H 0.49929 0.64178 0.4418 0.0
H310 H 0.66575 0.69932 0.5371 0.0
H311 H 0.72522 0.75702 0.46703 0.0
O312 O 0.80117 0.73626 0.09843 0.0
O313 O 0.89381 0.79447 0.13472 0.0
O314 O 0.70072 0.06819 0.32797 0.0
O315 O 0.76664 0.09419 0.39628 0.0
C316 C 0.70535 0.76662 0.33526 0.0
C317 C 0.73797 0.80834 0.29874 0.0
C318 C 0.74576 0.85787 0.30249 0.0
C319 C 0.72346 0.86696 0.34413 0.0
C320 C 0.69354 0.82671 0.3821 0.0
C321 C 0.68275 0.77596 0.37681 0.0
C322 C 0.6933 0.71328 0.32676 0.0
C323 C 0.63799 0.67373 0.30119 0.0
C324 C 0.63375 0.63305 0.27517 0.0
C325 C 0.68452 0.63065 0.27463 0.0
C326 C 0.73779 0.66693 0.30473 0.0
C327 C 0.74217 0.70791 0.33043 0.0
C328 C 0.76376 0.80012 0.2558 0.0
C329 C 0.72534 0.76549 0.21597 0.0
C330 C 0.74967 0.75617 0.17695 0.0
C331 C 0.81301 0.78184 0.17672 0.0
C332 C 0.85146 0.81736 0.21621 0.0
C333 C 0.82699 0.82641 0.25538 0.0
C334 C 0.7686 0.89729 0.25916 0.0
C335 C 0.73329 0.88269 0.21255 0.0
C336 C 0.74186 0.92176 0.1767 0.0
C337 C 0.78427 0.9763 0.18755 0.0
C338 C 0.82464 0.99075 0.23138 0.0
C339 C 0.81726 0.95123 0.26682 0.0
C340 C 0.72745 0.91749 0.34643 0.0
C341 C 0.68923 0.92587 0.31335 0.0
C342 C 0.69076 0.97205 0.31693 0.0
C343 C 0.73035 0.01056 0.35392 0.0
C344 C 0.76863 1.00201 0.38694 0.0
C345 C 0.76734 0.95597 0.38308 0.0
C346 C 0.67281 0.83866 0.42663 0.0
C347 C 0.62679 0.84758 0.41886 0.0
C348 C 0.61928 0.87377 0.45571 0.0
C349 C 0.65535 0.88906 0.50212 0.0
C350 C 0.69763 0.87589 0.51178 0.0
C351 C 0.70706 0.85175 0.47397 0.0
C352 C 0.64684 0.73342 0.41486 0.0
C353 C 0.58293 0.70114 0.40857 0.0
C354 C 0.54842 0.66705 0.44832 0.0
C355 C 0.57739 0.66551 0.49545 0.0
C356 C 0.64165 0.69855 0.50131 0.0
C357 C 0.67593 0.73145 0.46121 0.0
C358 C 0.83866 0.77143 0.13545 0.0
C359 C 0.73161 0.05936 0.35836 0.0
H360 H 0.64527 0.49943 0.50999 0.0
H361 H 0.1619 0.54762 0.78347 0.0
H362 H 0.79886 0.63742 0.76346 0.0
H363 H 0.71951 0.62902 0.70152 0.0
H364 H 0.58458 0.48232 0.77634 0.0
H365 H 0.66525 0.48645 0.83361 0.0
H366 H 0.82255 0.59831 0.68562 0.0
H367 H 0.75983 0.57121 0.6047 0.0
H368 H 0.6379 0.41219 0.66798 0.0
H369 H 0.70032 0.44032 0.74921 0.0
H370 H 0.93894 0.61776 0.71695 0.0
H371 H 0.97086 0.60847 0.63649 0.0
H372 H 0.85175 0.4365 0.6526 0.0
H373 H 0.81855 0.44589 0.73264 0.0
H374 H 1.00395 0.64034 0.84463 0.0
H375 H 0.10231 0.6546 0.83708 0.0
H376 H 0.00877 0.48931 0.79488 0.0
H377 H 0.91107 0.47435 0.80675 0.0
H378 H 0.93709 0.64631 0.92747 0.0
H379 H 0.01868 0.66673 0.99281 0.0
H380 H 0.96746 0.50465 0.98669 0.0
H381 H 0.88602 0.48469 0.92123 0.0
H382 H 0.79362 0.63204 0.88714 0.0
H383 H 0.75102 0.63383 0.96541 0.0
H384 H 0.74309 0.49423 0.02333 0.0
H385 H 0.7816 0.49062 0.94512 0.0
O386 O 0.66987 0.50914 0.5421 0.0
O387 O 0.60918 0.42776 0.57618 0.0
O388 O 0.17047 0.62562 0.81651 0.0
O389 O 0.12387 0.54267 0.78884 0.0
C390 C 0.78662 0.55228 0.81466 0.0
C391 C 0.80333 0.53777 0.77296 0.0
C392 C 0.85609 0.53859 0.77749 0.0
C393 C 0.89057 0.54963 0.82464 0.0
C394 C 0.86976 0.55681 0.86886 0.0
C395 C 0.81747 0.55884 0.86391 0.0
C396 C 0.73834 0.56197 0.80258 0.0
C397 C 0.75184 0.60426 0.76783 0.0
C398 C 0.70686 0.59891 0.73156 0.0
C399 C 0.64691 0.55326 0.73237 0.0
C400 C 0.6314 0.51621 0.77327 0.0
C401 C 0.67705 0.51957 0.80734 0.0
C402 C 0.76527 0.52148 0.72351 0.0
C403 C 0.78211 0.55772 0.68197 0.0
C404 C 0.74621 0.54211 0.63581 0.0
C405 C 0.69342 0.48967 0.63008 0.0
C406 C 0.67774 0.45308 0.67139 0.0
C407 C 0.71321 0.46898 0.71778 0.0
C408 C 0.87751 0.53247 0.7307 0.0
C409 C 0.91965 0.57814 0.70291 0.0
C410 C 0.93678 0.57282 0.65672 0.0
C411 C 0.91257 0.52176 0.63828 0.0
C412 C 0.86998 0.4761 0.66602 0.0
C413 C 0.85192 0.48141 0.71175 0.0
C414 C 0.95019 0.55632 0.82622 0.0
C415 C 1.00481 0.60684 0.83525 0.0
C416 C 0.06094 0.61504 0.83033 0.0
C417 C 0.06336 0.57314 0.81503 0.0
C418 C 0.00858 0.52244 0.80669 0.0
C419 C 0.95264 0.51383 0.81334 0.0
C420 C 0.90563 0.56416 0.91893 0.0
C421 C 0.94179 0.61458 0.94162 0.0
C422 C 0.98884 0.62622 0.97887 0.0
C423 C 1.00065 0.58764 0.99449 0.0
C424 C 0.96018 0.5355 0.97559 0.0
C425 C 0.91334 0.52397 0.93812 0.0
C426 C 0.79179 0.56158 0.91041 0.0
C427 C 0.78203 0.60152 0.91653 0.0
C428 C 0.75797 0.60273 0.96122 0.0
C429 C 0.74491 0.56483 1.00074 0.0
C430 C 0.7541 0.5248 0.99405 0.0
C431 C 0.77634 0.52276 0.9493 0.0
C432 C 0.65487 0.47344 0.58125 0.0
C433 C 0.12256 0.58228 0.80693 0.0
H434 H 0.45142 0.88916 0.70006 0.0
H435 H 0.06131 0.46969 0.32344 0.0
H436 H 0.4017 0.92895 0.42215 0.0
H437 H 0.47682 0.01682 0.45869 0.0
H438 H 0.62172 0.01015 0.41097 0.0
H439 H 0.54607 0.9213 0.37609 0.0
H440 H 0.33754 0.84162 0.49116 0.0
H441 H 0.37068 0.86182 0.58182 0.0
H442 H 0.52075 0.85016 0.56317 0.0
H443 H 0.48678 0.82983 0.47281 0.0
H444 H 0.2272 0.73068 0.4357 0.0
H445 H 0.16706 0.65715 0.49615 0.0
H446 H 0.31721 0.64171 0.5285 0.0
H447 H 0.37689 0.71538 0.46784 0.0
H448 H 0.21665 0.73623 0.31002 0.0
H449 H 0.12148 0.64809 0.29327 0.0
H450 H 0.21215 0.57299 0.34967 0.0
H451 H 0.307 0.66094 0.36603 0.0
H452 H 0.32294 0.84082 0.24033 0.0
H453 H 0.28885 0.81166 0.15121 0.0
H454 H 0.32415 0.69088 0.18133 0.0
H455 H 0.36005 0.72098 0.26946 0.0
H456 H 0.4239 0.94371 0.30046 0.0
H457 H 0.49189 0.01062 0.2382 0.0
H458 H 0.55122 0.91091 0.20761 0.0
H459 H 0.48402 0.84478 0.27069 0.0
O460 O 0.43856 0.88044 0.66433 0.0
O461 O 0.5133 0.87163 0.65311 0.0
O462 O 0.05488 0.54534 0.29483 0.0
O463 O 0.09858 0.50514 0.32796 0.0
C464 C 0.42263 0.86228 0.38254 0.0
C465 C 0.39054 0.8225 0.42068 0.0
C466 C 0.3411 0.77033 0.40677 0.0
C467 C 0.32425 0.75811 0.35429 0.0
C468 C 0.35929 0.79686 0.31618 0.0
C469 C 0.40925 0.84905 0.33022 0.0
C470 C 0.46864 0.91831 0.39792 0.0
C471 C 0.44977 0.94684 0.41922 0.0
C472 C 0.49276 0.99734 0.43946 0.0
C473 C 0.55537 0.02002 0.43867 0.0
C474 C 0.57386 0.99331 0.41294 0.0
C475 C 0.53081 0.94251 0.39318 0.0
C476 C 0.4104 0.83506 0.47549 0.0
C477 C 0.37762 0.84362 0.50682 0.0
C478 C 0.39663 0.85508 0.55853 0.0
C479 C 0.44846 0.8577 0.57975 0.0
C480 C 0.48087 0.84873 0.54807 0.0
C481 C 0.4619 0.83748 0.49642 0.0
C482 C 0.30651 0.72851 0.44708 0.0
C483 C 0.24737 0.71186 0.45631 0.0
C484 C 0.21311 0.66981 0.49109 0.0
C485 C 0.23713 0.64326 0.5175 0.0
C486 C 0.29717 0.66119 0.50921 0.0
C487 C 0.33145 0.70337 0.47447 0.0
C488 C 0.26855 0.70493 0.33957 0.0
C489 C 0.21598 0.70063 0.31823 0.0
C490 C 0.16164 0.65027 0.30897 0.0
C491 C 0.15903 0.60339 0.32107 0.0
C492 C 0.21239 0.60813 0.34093 0.0
C493 C 0.26669 0.65838 0.34999 0.0
C494 C 0.34325 0.78252 0.26147 0.0
C495 C 0.32459 0.80886 0.2273 0.0
C496 C 0.30554 0.79255 0.17657 0.0
C497 C 0.30397 0.74918 0.15991 0.0
C498 C 0.3249 0.72435 0.19364 0.0
C499 C 0.3449 0.74119 0.24388 0.0
C500 C 0.4488 0.88914 0.29049 0.0
C501 C 0.45162 0.93631 0.28041 0.0
C502 C 0.49055 0.97455 0.24467 0.0
C503 C 0.52712 0.96628 0.21765 0.0
C504 C 0.52354 0.9186 0.22734 0.0
C505 C 0.48503 0.88064 0.26343 0.0
C506 C 0.46881 0.87017 0.63459 0.0
C507 C 0.10095 0.54967 0.31369 0.0
H508 H 0.52425 0.32516 0.50315 0.0
H509 H 0.47779 0.9106 0.88127 0.0
H510 H 0.6018 0.36553 0.77953 0.0
H511 H 0.57192 0.41484 0.72371 0.0
H512 H 0.3842 0.30084 0.75742 0.0
H513 H 0.41454 0.2505 0.81338 0.0
H514 H 0.60965 0.29812 0.70889 0.0
H515 H 0.59214 0.31961 0.62024 0.0
H516 H 0.39757 0.21903 0.63611 0.0
H517 H 0.41578 0.19736 0.72446 0.0
H518 H 0.63765 0.22205 0.74913 0.0
H519 H 0.64929 0.1704 0.69161 0.0
H520 H 0.45364 0.05172 0.68255 0.0
H521 H 0.44346 0.10386 0.74161 0.0
H522 H 0.63982 0.17548 0.84347 0.0
H523 H 0.63429 0.09233 0.85213 0.0
H524 H 0.44221 0.00337 0.8754 0.0
H525 H 0.44791 0.08635 0.8659 0.0
H526 H 0.66753 0.27803 0.91969 0.0
H527 H 0.71111 0.25689 0.99574 0.0
H528 H 0.53024 0.12356 0.03127 0.0
H529 H 0.48714 0.14438 0.95474 0.0
H530 H 0.61957 0.36756 0.87772 0.0
H531 H 0.63804 0.42137 0.9514 0.0
H532 H 0.49883 0.2793 0.02932 0.0
H533 H 0.47736 0.22606 0.9544 0.0
O534 O 0.53012 0.31551 0.53798 0.0
O535 O 0.4312 0.26876 0.55027 0.0
O536 O 0.57612 0.99011 0.85473 0.0
O537 O 0.48166 0.94419 0.87976 0.0
C538 C 0.52523 0.26558 0.81657 0.0
C539 C 0.52494 0.23564 0.77738 0.0
C540 C 0.53511 0.19577 0.78985 0.0
C541 C 0.5444 0.1849 0.84144 0.0
C542 C 0.55054 0.21777 0.88021 0.0
C543 C 0.54044 0.25827 0.86832 0.0
C544 C 0.5106 0.30478 0.801 0.0
C545 C 0.55464 0.35239 0.77677 0.0
C546 C 0.53717 0.37976 0.74381 0.0
C547 C 0.47547 0.36086 0.73505 0.0
C548 C 0.43197 0.31606 0.76326 0.0
C549 C 0.44942 0.2879 0.79583 0.0
C550 C 0.51395 0.24618 0.72288 0.0
C551 C 0.56329 0.28036 0.69289 0.0
C552 C 0.55315 0.29272 0.64239 0.0
C553 C 0.49345 0.27115 0.62112 0.0
C554 C 0.44411 0.23642 0.65132 0.0
C555 C 0.45432 0.22385 0.7017 0.0
C556 C 0.53972 0.16697 0.74921 0.0
C557 C 0.59727 0.18524 0.73399 0.0
C558 C 0.60369 0.15523 0.70092 0.0
C559 C 0.55247 0.1061 0.68182 0.0
C560 C 0.49445 0.08875 0.69638 0.0
C561 C 0.48824 0.11881 0.72984 0.0
C562 C 0.54431 0.13681 0.85435 0.0
C563 C 0.59683 0.13808 0.85109 0.0
C564 C 0.59343 0.09056 0.85545 0.0
C565 C 0.53775 0.04126 0.8638 0.0
C566 C 0.4858 0.04062 0.86895 0.0
C567 C 0.48902 0.08797 0.86389 0.0
C568 C 0.57428 0.21264 0.93186 0.0
C569 C 0.63725 0.24533 0.94489 0.0
C570 C 0.66204 0.23334 0.98836 0.0
C571 C 0.62401 0.18833 0.01912 0.0
C572 C 0.56052 0.15811 1.00784 0.0
C573 C 0.53584 0.17005 0.96443 0.0
C574 C 0.54692 0.29249 0.91016 0.0
C575 C 0.59163 0.3481 0.90989 0.0
C576 C 0.60267 0.37881 0.95228 0.0
C577 C 0.57044 0.35433 0.99638 0.0
C578 C 0.52496 0.29901 0.99621 0.0
C579 C 0.51266 0.26865 0.95332 0.0
C580 C 0.4828 0.28495 0.56772 0.0
C581 C 0.53331 0.99049 0.86593 0.0
loop_
_geom_bond_atom_site_label_1
_geom_bond_atom_site_label_2
_geom_bond_distance
_geom_bond_site_symmetry_2
_ccdc_geom_bond_type
Cu0 N1 1.999 1_554 S
Cu0 O6 1.974 1_554 S
Cu0 N11 1.985 . S
Cu0 O20 1.959 . S
N1 Cu0 1.999 1_556 S
N1 C3 1.263 . S
N1 C5 1.389 . S
N2 C3 1.358 . S
N2 C4 1.400 . S
C3 N1 1.263 . S
C3 N2 1.358 . S
C3 H9 0.930 . S
C4 N2 1.400 . S
C4 C5 1.351 . S
C4 H21 0.930 . S
C5 N1 1.389 . S
C5 C4 1.351 . S
C5 H10 0.930 1_556 S
O6 Cu0 1.974 1_556 S
O6 C16 1.282 . S
C7 O8 1.261 . S
C7 O20 1.251 . S
O8 C7 1.261 . S
H9 C3 0.930 . S
H10 C5 0.930 1_554 S
N11 Cu0 1.985 . S
N11 C13 1.335 . S
N11 C14 1.390 . S
N12 C13 1.345 . S
N12 C15 1.336 . S
C13 N11 1.335 . S
C13 N12 1.345 . S
C13 H18 0.930 . S
C14 N11 1.390 . S
C14 C15 1.346 . S
C14 H19 0.930 . S
C15 N12 1.336 . S
C15 C14 1.346 . S
C15 H22 0.929 . S
C16 O6 1.282 . S
C16 O17 1.216 . S
O17 C16 1.216 . S
H18 C13 0.930 . S
H19 C14 0.930 . S
O20 Cu0 1.959 . S
O20 C7 1.251 . S
H21 C4 0.930 . S
H22 C15 0.929 . S
Cu23 N24 1.999 . S
Cu23 O29 1.974 . S
Cu23 N34 1.985 1_565 S
Cu23 O43 1.959 1_565 S
N24 Cu23 1.999 . S
N24 C26 1.263 . S
N24 C28 1.389 . S
N25 C26 1.358 . S
N25 C27 1.400 . S
C26 N24 1.263 . S
C26 N25 1.358 . S
C26 H32 0.930 . S
C27 N25 1.400 . S
C27 C28 1.351 . S
C27 H44 0.930 . S
C28 N24 1.389 . S
C28 C27 1.351 . S
C28 H33 0.930 . S
O29 Cu23 1.974 . S
O29 C39 1.282 . S
C30 O31 1.261 . S
C30 O43 1.251 . S
O31 C30 1.261 . S
H32 C26 0.930 . S
H33 C28 0.930 . S
N34 Cu23 1.985 1_545 S
N34 C36 1.335 . S
N34 C37 1.390 . S
N35 C36 1.345 . S
N35 C38 1.336 . S
C36 N34 1.335 . S
C36 N35 1.345 . S
C36 H41 0.930 . S
C37 N34 1.390 . S
C37 C38 1.346 . S
C37 H42 0.930 . S
C38 N35 1.336 . S
C38 C37 1.346 . S
C38 H45 0.929 . S
C39 O29 1.282 . S
C39 O40 1.216 1_565 S
O40 C39 1.216 1_545 S
H41 C36 0.930 . S
H42 C37 0.930 . S
O43 Cu23 1.959 1_545 S
O43 C30 1.251 . S
H44 C27 0.930 . S
H45 C38 0.929 . S
Cu46 N47 1.999 . S
Cu46 O52 1.974 . S
Cu46 N57 1.985 . S
Cu46 O66 1.959 . S
N47 Cu46 1.999 . S
N47 C49 1.263 . S
N47 C51 1.389 . S
N48 C49 1.358 . S
N48 C50 1.400 . S
C49 N47 1.263 . S
C49 N48 1.358 . S
C49 H55 0.930 . S
C50 N48 1.400 . S
C50 C51 1.351 . S
C50 H67 0.930 1_554 S
C51 N47 1.389 . S
C51 C50 1.351 . S
C51 H56 0.930 . S
O52 Cu46 1.974 . S
O52 C62 1.282 . S
C53 O54 1.261 . S
C53 O66 1.251 . S
O54 C53 1.261 . S
H55 C49 0.930 . S
H56 C51 0.930 . S
N57 Cu46 1.985 . S
N57 C59 1.335 . S
N57 C60 1.390 . S
N58 C59 1.345 . S
N58 C61 1.336 . S
C59 N57 1.335 . S
C59 N58 1.345 . S
C59 H64 0.930 . S
C60 N57 1.390 . S
C60 C61 1.346 . S
C60 H65 0.930 . S
C61 N58 1.336 . S
C61 C60 1.346 . S
C61 H68 0.929 . S
C62 O52 1.282 . S
C62 O63 1.216 . S
O63 C62 1.216 . S
H64 C59 0.930 . S
H65 C60 0.930 . S
O66 Cu46 1.959 . S
O66 C53 1.251 . S
H67 C50 0.930 1_556 S
H68 C61 0.929 . S
Cu69 N70 1.999 1_655 S
Cu69 O75 1.974 1_655 S
Cu69 N80 1.985 . S
Cu69 O89 1.959 . S
N70 Cu69 1.999 1_455 S
N70 C72 1.263 . S
N70 C74 1.389 1_455 S
N71 C72 1.358 . S
N71 C73 1.400 1_455 S
C72 N70 1.263 . S
C72 N71 1.358 . S
C72 H78 0.930 . S
C73 N71 1.400 1_655 S
C73 C74 1.351 . S
C73 H90 0.930 . S
C74 N70 1.389 1_655 S
C74 C73 1.351 . S
C74 H79 0.930 . S
O75 Cu69 1.974 1_455 S
O75 C85 1.282 . S
C76 O77 1.261 1_655 S
C76 O89 1.251 . S
O77 C76 1.261 1_455 S
H78 C72 0.930 . S
H79 C74 0.930 . S
N80 Cu69 1.985 . S
N80 C82 1.335 . S
N80 C83 1.390 . S
N81 C82 1.345 . S
N81 C84 1.336 . S
C82 N80 1.335 . S
C82 N81 1.345 . S
C82 H87 0.930 . S
C83 N80 1.390 . S
C83 C84 1.346 . S
C83 H88 0.930 1_655 S
C84 N81 1.336 . S
C84 C83 1.346 . S
C84 H91 0.929 . S
C85 O75 1.282 . S
C85 O86 1.216 . S
O86 C85 1.216 . S
H87 C82 0.930 . S
H88 C83 0.930 1_455 S
O89 Cu69 1.959 . S
O89 C76 1.251 . S
H90 C73 0.930 . S
H91 C84 0.929 . S
Cu92 N93 1.999 . S
Cu92 O98 1.974 . S
Cu92 N103 1.985 . S
Cu92 O112 1.959 . S
N93 Cu92 1.999 . S
N93 C95 1.263 . S
N93 C97 1.389 . S
N94 C95 1.358 . S
N94 C96 1.400 . S
C95 N93 1.263 . S
C95 N94 1.358 . S
C95 H101 0.930 . S
C96 N94 1.400 . S
C96 C97 1.351 . S
C96 H113 0.930 . S
C97 N93 1.389 . S
C97 C96 1.351 . S
C97 H102 0.930 . S
O98 Cu92 1.974 . S
O98 C108 1.282 . S
C99 O100 1.261 1_545 S
C99 O112 1.251 . S
O100 C99 1.261 1_565 S
H101 C95 0.930 . S
H102 C97 0.930 . S
N103 Cu92 1.985 . S
N103 C105 1.335 . S
N103 C106 1.390 . S
N104 C105 1.345 . S
N104 C107 1.336 . S
C105 N103 1.335 . S
C105 N104 1.345 . S
C105 H110 0.930 . S
C106 N103 1.390 . S
C106 C107 1.346 . S
C106 H111 0.930 . S
C107 N104 1.336 . S
C107 C106 1.346 . S
C107 H114 0.929 . S
C108 O98 1.282 . S
C108 O109 1.216 . S
O109 C108 1.216 . S
H110 C105 0.930 . S
H111 C106 0.930 . S
O112 Cu92 1.959 . S
O112 C99 1.251 . S
H113 C96 0.930 . S
H114 C107 0.929 . S
Cu115 N116 1.999 . S
Cu115 O121 1.974 . S
Cu115 N126 1.985 . S
Cu115 O135 1.959 . S
N116 Cu115 1.999 . S
N116 C118 1.263 . S
N116 C120 1.389 . S
N117 C118 1.358 . S
N117 C119 1.400 . S
C118 N116 1.263 . S
C118 N117 1.358 . S
C118 H124 0.930 . S
C119 N117 1.400 . S
C119 C120 1.351 . S
C119 H136 0.930 . S
C120 N116 1.389 . S
C120 C119 1.351 . S
C120 H125 0.930 . S
O121 Cu115 1.974 . S
O121 C131 1.282 . S
C122 O123 1.261 . S
C122 O135 1.251 . S
O123 C122 1.261 . S
H124 C118 0.930 . S
H125 C120 0.930 . S
N126 Cu115 1.985 . S
N126 C128 1.335 . S
N126 C129 1.390 . S
N127 C128 1.345 . S
N127 C130 1.336 . S
C128 N126 1.335 . S
C128 N127 1.345 . S
C128 H133 0.930 . S
C129 N126 1.390 . S
C129 C130 1.346 . S
C129 H134 0.930 . S
C130 N127 1.336 . S
C130 C129 1.346 . S
C130 H137 0.929 . S
C131 O121 1.282 . S
C131 O132 1.216 . S
O132 C131 1.216 . S
H133 C128 0.930 . S
H134 C129 0.930 . S
O135 Cu115 1.959 . S
O135 C122 1.251 . S
H136 C119 0.930 . S
H137 C130 0.929 . S
H138 O164 0.856 . S
H139 O167 0.854 . S
H140 C175 0.930 . S
H141 C176 0.930 . S
H142 C178 0.930 . S
H143 C179 0.930 . S
H144 C181 0.931 . S
H145 C182 0.930 . S
H146 C184 0.930 . S
H147 C185 0.929 . S
H148 C187 0.930 . S
H149 C188 0.931 . S
H150 C190 0.930 . S
H151 C191 0.929 . S
H152 C193 0.931 . S
H153 C194 0.930 . S
H154 C196 0.930 . S
H155 C197 0.932 . S
H156 C199 0.930 . S
H157 C200 0.929 . S
H158 C202 0.931 . S
H159 C203 0.930 . S
H160 C205 0.929 . S
H161 C206 0.931 . S
H162 C208 0.930 . S
H163 C209 0.929 . S
O164 H138 0.856 . S
O164 C210 1.300 . S
O165 C210 1.209 . S
O166 C211 1.199 . S
O167 H139 0.854 . S
O167 C211 1.297 1_655 S
C168 C169 1.404 . S
C168 C173 1.397 . S
C168 C174 1.492 . S
C169 C168 1.404 . S
C169 C170 1.396 . S
C169 C180 1.492 . S
C170 C169 1.396 . S
C170 C171 1.397 . S
C170 C186 1.509 . S
C171 C170 1.397 . S
C171 C172 1.412 . S
C171 C192 1.485 . S
C172 C171 1.412 . S
C172 C173 1.388 . S
C172 C198 1.490 . S
C173 C168 1.397 . S
C173 C172 1.388 . S
C173 C204 1.519 . S
C174 C168 1.492 . S
C174 C175 1.363 . S
C174 C179 1.390 . S
C175 H140 0.930 . S
C175 C174 1.363 . S
C175 C176 1.372 . S
C176 H141 0.930 . S
C176 C175 1.372 . S
C176 C177 1.383 . S
C177 C176 1.383 . S
C177 C178 1.395 . S
C178 H142 0.930 . S
C178 C177 1.395 . S
C178 C179 1.362 . S
C179 H143 0.930 . S
C179 C174 1.390 . S
C179 C178 1.362 . S
C180 C169 1.492 . S
C180 C181 1.377 . S
C180 C185 1.397 . S
C181 H144 0.931 . S
C181 C180 1.377 . S
C181 C182 1.376 . S
C182 H145 0.930 . S
C182 C181 1.376 . S
C182 C183 1.376 . S
C183 C182 1.376 . S
C183 C184 1.378 . S
C183 C210 1.486 . S
C184 H146 0.930 . S
C184 C183 1.378 . S
C184 C185 1.376 . S
C185 H147 0.929 . S
C185 C180 1.397 . S
C185 C184 1.376 . S
C186 C170 1.509 . S
C186 C187 1.391 . S
C186 C191 1.386 . S
C187 H148 0.930 . S
C187 C186 1.391 . S
C187 C188 1.375 . S
C188 H149 0.931 . S
C188 C187 1.375 . S
C188 C189 1.375 . S
C189 C188 1.375 . S
C189 C190 1.361 . S
C190 H150 0.930 . S
C190 C189 1.361 . S
C190 C191 1.399 . S
C191 H151 0.929 . S
C191 C186 1.386 . S
C191 C190 1.399 . S
C192 C171 1.485 . S
C192 C193 1.394 . S
C192 C197 1.360 . S
C193 H152 0.931 . S
C193 C192 1.394 . S
C193 C194 1.372 . S
C194 H153 0.930 . S
C194 C193 1.372 . S
C194 C195 1.397 . S
C195 C194 1.397 . S
C195 C196 1.390 . S
C195 C211 1.476 . S
C196 H154 0.930 . S
C196 C195 1.390 . S
C196 C197 1.366 . S
C197 H155 0.932 . S
C197 C192 1.360 . S
C197 C196 1.366 . S
C198 C172 1.490 . S
C198 C199 1.380 . S
C198 C203 1.386 . S
C199 H156 0.930 . S
C199 C198 1.380 . S
C199 C200 1.381 . S
C200 H157 0.929 . S
C200 C199 1.381 . S
C200 C201 1.371 . S
C201 C200 1.371 . S
C201 C202 1.380 . S
C202 H158 0.931 . S
C202 C201 1.380 . S
C202 C203 1.387 . S
C203 H159 0.930 . S
C203 C198 1.386 . S
C203 C202 1.387 . S
C204 C173 1.519 . S
C204 C205 1.377 . S
C204 C209 1.361 . S
C205 H160 0.929 . S
C205 C204 1.377 . S
C205 C206 1.386 . S
C206 H161 0.931 . S
C206 C205 1.386 . S
C206 C207 1.363 . S
C207 C206 1.363 . S
C207 C208 1.385 . S
C208 H162 0.930 . S
C208 C207 1.385 . S
C208 C209 1.396 . S
C209 H163 0.929 . S
C209 C204 1.361 . S
C209 C208 1.396 . S
C210 O164 1.300 . S
C210 O165 1.209 . S
C210 C183 1.486 . S
C211 O166 1.199 . S
C211 O167 1.297 1_455 S
C211 C195 1.476 . S
H212 O238 0.856 . S
H213 O241 0.854 . S
H214 C249 0.930 . S
H215 C250 0.930 . S
H216 C252 0.930 . S
H217 C253 0.930 . S
H218 C255 0.931 . S
H219 C256 0.930 . S
H220 C258 0.930 . S
H221 C259 0.929 1_455 S
H222 C261 0.930 . S
H223 C262 0.931 . S
H224 C264 0.930 . S
H225 C265 0.929 . S
H226 C267 0.931 . S
H227 C268 0.930 . S
H228 C270 0.930 1_565 S
H229 C271 0.932 . S
H230 C273 0.930 . S
H231 C274 0.929 . S
H232 C276 0.931 . S
H233 C277 0.930 . S
H234 C279 0.929 . S
H235 C280 0.931 . S
H236 C282 0.930 . S
H237 C283 0.929 . S
O238 H212 0.856 . S
O238 C284 1.300 1_655 S
O239 C284 1.209 . S
O240 C285 1.199 . S
O241 H213 0.854 . S
O241 C285 1.297 . S
C242 C243 1.404 . S
C242 C247 1.397 . S
C242 C248 1.492 . S
C243 C242 1.404 . S
C243 C244 1.396 . S
C243 C254 1.492 . S
C244 C243 1.396 . S
C244 C245 1.397 . S
C244 C260 1.509 . S
C245 C244 1.397 . S
C245 C246 1.412 . S
C245 C266 1.485 . S
C246 C245 1.412 . S
C246 C247 1.388 . S
C246 C272 1.490 . S
C247 C242 1.397 . S
C247 C246 1.388 . S
C247 C278 1.519 . S
C248 C242 1.492 . S
C248 C249 1.363 . S
C248 C253 1.390 1_655 S
C249 H214 0.930 . S
C249 C248 1.363 . S
C249 C250 1.372 1_655 S
C250 H215 0.930 . S
C250 C249 1.372 1_455 S
C250 C251 1.383 . S
C251 C250 1.383 . S
C251 C252 1.395 . S
C252 H216 0.930 . S
C252 C251 1.395 . S
C252 C253 1.362 . S
C253 H217 0.930 . S
C253 C248 1.390 1_455 S
C253 C252 1.362 . S
C254 C243 1.492 . S
C254 C255 1.377 . S
C254 C259 1.397 . S
C255 H218 0.931 . S
C255 C254 1.377 . S
C255 C256 1.376 1_556 S
C256 H219 0.930 . S
C256 C255 1.376 1_554 S
C256 C257 1.376 . S
C257 C256 1.376 . S
C257 C258 1.378 1_655 S
C257 C284 1.486 1_655 S
C258 H220 0.930 . S
C258 C257 1.378 1_455 S
C258 C259 1.376 1_454 S
C259 H221 0.929 1_655 S
C259 C254 1.397 . S
C259 C258 1.376 1_656 S
C260 C244 1.509 . S
C260 C261 1.391 . S
C260 C265 1.386 . S
C261 H222 0.930 . S
C261 C260 1.391 . S
C261 C262 1.375 . S
C262 H223 0.931 . S
C262 C261 1.375 . S
C262 C263 1.375 1_556 S
C263 C262 1.375 1_554 S
C263 C264 1.361 . S
C264 H224 0.930 . S
C264 C263 1.361 . S
C264 C265 1.399 1_554 S
C265 H225 0.929 . S
C265 C260 1.386 . S
C265 C264 1.399 1_556 S
C266 C245 1.485 . S
C266 C267 1.394 . S
C266 C271 1.360 . S
C267 H226 0.931 . S
C267 C266 1.394 . S
C267 C268 1.372 . S
C268 H227 0.930 . S
C268 C267 1.372 . S
C268 C269 1.397 1_545 S
C269 C268 1.397 1_565 S
C269 C270 1.390 1_565 S
C269 C285 1.476 . S
C270 H228 0.930 1_545 S
C270 C269 1.390 1_545 S
C270 C271 1.366 . S
C271 H229 0.932 . S
C271 C266 1.360 . S
C271 C270 1.366 . S
C272 C246 1.490 . S
C272 C273 1.380 . S
C272 C277 1.386 . S
C273 H230 0.930 . S
C273 C272 1.380 . S
C273 C274 1.381 . S
C274 H231 0.929 . S
C274 C273 1.381 . S
C274 C275 1.371 . S
C275 C274 1.371 . S
C275 C276 1.380 . S
C276 H232 0.931 . S
C276 C275 1.380 . S
C276 C277 1.387 . S
C277 H233 0.930 . S
C277 C272 1.386 . S
C277 C276 1.387 . S
C278 C247 1.519 . S
C278 C279 1.377 . S
C278 C283 1.361 . S
C279 H234 0.929 . S
C279 C278 1.377 . S
C279 C280 1.386 . S
C280 H235 0.931 . S
C280 C279 1.386 . S
C280 C281 1.363 1_655 S
C281 C280 1.363 1_455 S
C281 C282 1.385 . S
C282 H236 0.930 . S
C282 C281 1.385 . S
C282 C283 1.396 1_455 S
C283 H237 0.929 . S
C283 C278 1.361 . S
C283 C282 1.396 1_655 S
C284 O238 1.300 1_455 S
C284 O239 1.209 . S
C284 C257 1.486 1_455 S
C285 O240 1.199 . S
C285 O241 1.297 . S
C285 C269 1.476 . S
H286 O312 0.856 . S
H287 O315 0.854 . S
H288 C323 0.930 . S
H289 C324 0.930 . S
H290 C326 0.930 . S
H291 C327 0.930 . S
H292 C329 0.931 . S
H293 C330 0.930 . S
H294 C332 0.930 . S
H295 C333 0.929 . S
H296 C335 0.930 . S
H297 C336 0.931 . S
H298 C338 0.930 . S
H299 C339 0.929 . S
H300 C341 0.931 . S
H301 C342 0.930 . S
H302 C344 0.930 . S
H303 C345 0.932 . S
H304 C347 0.930 . S
H305 C348 0.929 . S
H306 C350 0.931 . S
H307 C351 0.930 . S
H308 C353 0.929 . S
H309 C354 0.931 . S
H310 C356 0.930 . S
H311 C357 0.929 . S
O312 H286 0.856 . S
O312 C358 1.300 . S
O313 C358 1.209 . S
O314 C359 1.199 . S
O315 H287 0.854 . S
O315 C359 1.297 . S
C316 C317 1.404 . S
C316 C321 1.397 . S
C316 C322 1.492 . S
C317 C316 1.404 . S
C317 C318 1.396 . S
C317 C328 1.492 . S
C318 C317 1.396 . S
C318 C319 1.397 . S
C318 C334 1.509 . S
C319 C318 1.397 . S
C319 C320 1.412 . S
C319 C340 1.485 . S
C320 C319 1.412 . S
C320 C321 1.388 . S
C320 C346 1.490 . S
C321 C316 1.397 . S
C321 C320 1.388 . S
C321 C352 1.519 . S
C322 C316 1.492 . S
C322 C323 1.363 . S
C322 C327 1.390 . S
C323 H288 0.930 . S
C323 C322 1.363 . S
C323 C324 1.372 . S
C324 H289 0.930 . S
C324 C323 1.372 . S
C324 C325 1.383 . S
C325 C324 1.383 . S
C325 C326 1.395 . S
C326 H290 0.930 . S
C326 C325 1.395 . S
C326 C327 1.362 . S
C327 H291 0.930 . S
C327 C322 1.390 . S
C327 C326 1.362 . S
C328 C317 1.492 . S
C328 C329 1.377 . S
C328 C333 1.397 . S
C329 H292 0.931 . S
C329 C328 1.377 . S
C329 C330 1.376 . S
C330 H293 0.930 . S
C330 C329 1.376 . S
C330 C331 1.376 . S
C331 C330 1.376 . S
C331 C332 1.378 . S
C331 C358 1.486 . S
C332 H294 0.930 . S
C332 C331 1.378 . S
C332 C333 1.376 . S
C333 H295 0.929 . S
C333 C328 1.397 . S
C333 C332 1.376 . S
C334 C318 1.509 . S
C334 C335 1.391 . S
C334 C339 1.386 . S
C335 H296 0.930 . S
C335 C334 1.391 . S
C335 C336 1.375 . S
C336 H297 0.931 . S
C336 C335 1.375 . S
C336 C337 1.375 1_565 S
C337 C336 1.375 1_545 S
C337 C338 1.361 . S
C338 H298 0.930 . S
C338 C337 1.361 . S
C338 C339 1.399 1_545 S
C339 H299 0.929 . S
C339 C334 1.386 . S
C339 C338 1.399 1_565 S
C340 C319 1.485 . S
C340 C341 1.394 . S
C340 C345 1.360 1_565 S
C341 H300 0.931 . S
C341 C340 1.394 . S
C341 C342 1.372 1_565 S
C342 H301 0.930 . S
C342 C341 1.372 1_545 S
C342 C343 1.397 . S
C343 C342 1.397 . S
C343 C344 1.390 . S
C343 C359 1.476 . S
C344 H302 0.930 . S
C344 C343 1.390 . S
C344 C345 1.366 . S
C345 H303 0.932 . S
C345 C340 1.360 1_545 S
C345 C344 1.366 . S
C346 C320 1.490 . S
C346 C347 1.380 . S
C346 C351 1.386 . S
C347 H304 0.930 . S
C347 C346 1.380 . S
C347 C348 1.381 . S
C348 H305 0.929 . S
C348 C347 1.381 . S
C348 C349 1.371 . S
C349 C348 1.371 . S
C349 C350 1.380 . S
C350 H306 0.931 . S
C350 C349 1.380 . S
C350 C351 1.387 . S
C351 H307 0.930 . S
C351 C346 1.386 . S
C351 C350 1.387 . S
C352 C321 1.519 . S
C352 C353 1.377 . S
C352 C357 1.361 . S
C353 H308 0.929 . S
C353 C352 1.377 . S
C353 C354 1.386 . S
C354 H309 0.931 . S
C354 C353 1.386 . S
C354 C355 1.363 . S
C355 C354 1.363 . S
C355 C356 1.385 . S
C356 H310 0.930 . S
C356 C355 1.385 . S
C356 C357 1.396 . S
C357 H311 0.929 . S
C357 C352 1.361 . S
C357 C356 1.396 . S
C358 O312 1.300 . S
C358 O313 1.209 . S
C358 C331 1.486 . S
C359 O314 1.199 . S
C359 O315 1.297 . S
C359 C343 1.476 . S
H360 O386 0.856 . S
H361 O389 0.854 . S
H362 C397 0.930 . S
H363 C398 0.930 . S
H364 C400 0.930 . S
H365 C401 0.930 . S
H366 C403 0.931 . S
H367 C404 0.930 . S
H368 C406 0.930 . S
H369 C407 0.929 . S
H370 C409 0.930 . S
H371 C410 0.931 . S
H372 C412 0.930 . S
H373 C413 0.929 . S
H374 C415 0.931 . S
H375 C416 0.930 . S
H376 C418 0.930 . S
H377 C419 0.932 1_655 S
H378 C421 0.930 . S
H379 C422 0.929 . S
H380 C424 0.931 . S
H381 C425 0.930 . S
H382 C427 0.929 . S
H383 C428 0.931 . S
H384 C430 0.930 . S
H385 C431 0.929 . S
O386 H360 0.856 . S
O386 C432 1.300 . S
O387 C432 1.209 . S
O388 C433 1.199 . S
O389 H361 0.854 . S
O389 C433 1.297 . S
C390 C391 1.404 . S
C390 C395 1.397 . S
C390 C396 1.492 . S
C391 C390 1.404 . S
C391 C392 1.396 . S
C391 C402 1.492 . S
C392 C391 1.396 . S
C392 C393 1.397 . S
C392 C408 1.509 . S
C393 C392 1.397 . S
C393 C394 1.412 . S
C393 C414 1.485 1_655 S
C394 C393 1.412 . S
C394 C395 1.388 . S
C394 C420 1.490 . S
C395 C390 1.397 . S
C395 C394 1.388 . S
C395 C426 1.519 . S
C396 C390 1.492 . S
C396 C397 1.363 . S
C396 C401 1.390 . S
C397 H362 0.930 . S
C397 C396 1.363 . S
C397 C398 1.372 . S
C398 H363 0.930 . S
C398 C397 1.372 . S
C398 C399 1.383 . S
C399 C398 1.383 . S
C399 C400 1.395 . S
C400 H364 0.930 . S
C400 C399 1.395 . S
C400 C401 1.362 . S
C401 H365 0.930 . S
C401 C396 1.390 . S
C401 C400 1.362 . S
C402 C391 1.492 . S
C402 C403 1.377 . S
C402 C407 1.397 . S
C403 H366 0.931 . S
C403 C402 1.377 . S
C403 C404 1.376 . S
C404 H367 0.930 . S
C404 C403 1.376 . S
C404 C405 1.376 . S
C405 C404 1.376 . S
C405 C406 1.378 . S
C405 C432 1.486 . S
C406 H368 0.930 . S
C406 C405 1.378 . S
C406 C407 1.376 . S
C407 H369 0.929 . S
C407 C402 1.397 . S
C407 C406 1.376 . S
C408 C392 1.509 . S
C408 C409 1.391 1_655 S
C408 C413 1.386 . S
C409 H370 0.930 . S
C409 C408 1.391 1_455 S
C409 C410 1.375 . S
C410 H371 0.931 . S
C410 C409 1.375 . S
C410 C411 1.375 1_455 S
C411 C410 1.375 1_655 S
C411 C412 1.361 . S
C412 H372 0.930 . S
C412 C411 1.361 . S
C412 C413 1.399 . S
C413 H373 0.929 . S
C413 C408 1.386 . S
C413 C412 1.399 . S
C414 C393 1.485 1_455 S
C414 C415 1.394 . S
C414 C419 1.360 . S
C415 H374 0.931 . S
C415 C414 1.394 . S
C415 C416 1.372 . S
C416 H375 0.930 . S
C416 C415 1.372 . S
C416 C417 1.397 . S
C417 C416 1.397 . S
C417 C418 1.390 . S
C417 C433 1.476 . S
C418 H376 0.930 . S
C418 C417 1.390 . S
C418 C419 1.366 . S
C419 H377 0.932 1_455 S
C419 C414 1.360 . S
C419 C418 1.366 . S
C420 C394 1.490 . S
C420 C421 1.380 1_655 S
C420 C425 1.386 . S
C421 H378 0.930 . S
C421 C420 1.380 1_455 S
C421 C422 1.381 . S
C422 H379 0.929 . S
C422 C421 1.381 . S
C422 C423 1.371 . S
C423 C422 1.371 . S
C423 C424 1.380 . S
C424 H380 0.931 . S
C424 C423 1.380 . S
C424 C425 1.387 1_455 S
C425 H381 0.930 . S
C425 C420 1.386 . S
C425 C424 1.387 1_655 S
C426 C395 1.519 . S
C426 C427 1.377 . S
C426 C431 1.361 . S
C427 H382 0.929 . S
C427 C426 1.377 . S
C427 C428 1.386 . S
C428 H383 0.931 . S
C428 C427 1.386 . S
C428 C429 1.363 . S
C429 C428 1.363 . S
C429 C430 1.385 . S
C430 H384 0.930 . S
C430 C429 1.385 . S
C430 C431 1.396 . S
C431 H385 0.929 . S
C431 C426 1.361 . S
C431 C430 1.396 . S
C432 O386 1.300 . S
C432 O387 1.209 . S
C432 C405 1.486 . S
C433 O388 1.199 . S
C433 O389 1.297 . S
C433 C417 1.476 . S
H434 O460 0.856 . S
H435 O463 0.854 . S
H436 C471 0.930 . S
H437 C472 0.930 . S
H438 C474 0.930 . S
H439 C475 0.930 . S
H440 C477 0.931 . S
H441 C478 0.930 . S
H442 C480 0.930 . S
H443 C481 0.929 . S
H444 C483 0.930 . S
H445 C484 0.931 . S
H446 C486 0.930 . S
H447 C487 0.929 . S
H448 C489 0.931 . S
H449 C490 0.930 . S
H450 C492 0.930 . S
H451 C493 0.932 . S
H452 C495 0.930 . S
H453 C496 0.929 . S
H454 C498 0.931 . S
H455 C499 0.930 . S
H456 C501 0.929 . S
H457 C502 0.931 . S
H458 C504 0.930 . S
H459 C505 0.929 . S
O460 H434 0.856 . S
O460 C506 1.300 . S
O461 C506 1.209 . S
O462 C507 1.199 1_655 S
O463 H435 0.854 . S
O463 C507 1.297 . S
C464 C465 1.404 . S
C464 C469 1.397 . S
C464 C470 1.492 . S
C465 C464 1.404 . S
C465 C466 1.396 . S
C465 C476 1.492 . S
C466 C465 1.396 . S
C466 C467 1.397 . S
C466 C482 1.509 . S
C467 C466 1.397 . S
C467 C468 1.412 . S
C467 C488 1.485 . S
C468 C467 1.412 . S
C468 C469 1.388 . S
C468 C494 1.490 . S
C469 C464 1.397 . S
C469 C468 1.388 . S
C469 C500 1.519 . S
C470 C464 1.492 . S
C470 C471 1.363 . S
C470 C475 1.390 . S
C471 H436 0.930 . S
C471 C470 1.363 . S
C471 C472 1.372 . S
C472 H437 0.930 . S
C472 C471 1.372 . S
C472 C473 1.383 . S
C473 C472 1.383 . S
C473 C474 1.395 . S
C474 H438 0.930 . S
C474 C473 1.395 . S
C474 C475 1.362 . S
C475 H439 0.930 . S
C475 C470 1.390 . S
C475 C474 1.362 . S
C476 C465 1.492 . S
C476 C477 1.377 . S
C476 C481 1.397 . S
C477 H440 0.931 . S
C477 C476 1.377 . S
C477 C478 1.376 . S
C478 H441 0.930 . S
C478 C477 1.376 . S
C478 C479 1.376 . S
C479 C478 1.376 . S
C479 C480 1.378 . S
C479 C506 1.486 . S
C480 H442 0.930 . S
C480 C479 1.378 . S
C480 C481 1.376 . S
C481 H443 0.929 . S
C481 C476 1.397 . S
C481 C480 1.376 . S
C482 C466 1.509 . S
C482 C483 1.391 . S
C482 C487 1.386 . S
C483 H444 0.930 . S
C483 C482 1.391 . S
C483 C484 1.375 . S
C484 H445 0.931 . S
C484 C483 1.375 . S
C484 C485 1.375 . S
C485 C484 1.375 . S
C485 C486 1.361 . S
C486 H446 0.930 . S
C486 C485 1.361 . S
C486 C487 1.399 . S
C487 H447 0.929 . S
C487 C482 1.386 . S
C487 C486 1.399 . S
C488 C467 1.485 . S
C488 C489 1.394 . S
C488 C493 1.360 . S
C489 H448 0.931 . S
C489 C488 1.394 . S
C489 C490 1.372 . S
C490 H449 0.930 . S
C490 C489 1.372 . S
C490 C491 1.397 . S
C491 C490 1.397 . S
C491 C492 1.390 . S
C491 C507 1.476 . S
C492 H450 0.930 . S
C492 C491 1.390 . S
C492 C493 1.366 . S
C493 H451 0.932 . S
C493 C488 1.360 . S
C493 C492 1.366 . S
C494 C468 1.490 . S
C494 C495 1.380 . S
C494 C499 1.386 . S
C495 H452 0.930 . S
C495 C494 1.380 . S
C495 C496 1.381 . S
C496 H453 0.929 . S
C496 C495 1.381 . S
C496 C497 1.371 . S
C497 C496 1.371 . S
C497 C498 1.380 . S
C498 H454 0.931 . S
C498 C497 1.380 . S
C498 C499 1.387 . S
C499 H455 0.930 . S
C499 C494 1.386 . S
C499 C498 1.387 . S
C500 C469 1.519 . S
C500 C501 1.377 . S
C500 C505 1.361 . S
C501 H456 0.929 . S
C501 C500 1.377 . S
C501 C502 1.386 . S
C502 H457 0.931 . S
C502 C501 1.386 . S
C502 C503 1.363 . S
C503 C502 1.363 . S
C503 C504 1.385 . S
C504 H458 0.930 . S
C504 C503 1.385 . S
C504 C505 1.396 . S
C505 H459 0.929 . S
C505 C500 1.361 . S
C505 C504 1.396 . S
C506 O460 1.300 . S
C506 O461 1.209 . S
C506 C479 1.486 . S
C507 O462 1.199 1_455 S
C507 O463 1.297 . S
C507 C491 1.476 . S
H508 O534 0.856 . S
H509 O537 0.854 . S
H510 C545 0.930 . S
H511 C546 0.930 . S
H512 C548 0.930 . S
H513 C549 0.930 . S
H514 C551 0.931 . S
H515 C552 0.930 . S
H516 C554 0.930 . S
H517 C555 0.929 . S
H518 C557 0.930 . S
H519 C558 0.931 . S
H520 C560 0.930 . S
H521 C561 0.929 . S
H522 C563 0.931 . S
H523 C564 0.930 . S
H524 C566 0.930 . S
H525 C567 0.932 . S
H526 C569 0.930 . S
H527 C570 0.929 . S
H528 C572 0.931 . S
H529 C573 0.930 . S
H530 C575 0.929 . S
H531 C576 0.931 . S
H532 C578 0.930 . S
H533 C579 0.929 . S
O534 H508 0.856 . S
O534 C580 1.300 . S
O535 C580 1.209 . S
O536 C581 1.199 . S
O537 H509 0.854 . S
O537 C581 1.297 . S
C538 C539 1.404 . S
C538 C543 1.397 . S
C538 C544 1.492 . S
C539 C538 1.404 . S
C539 C540 1.396 . S
C539 C550 1.492 . S
C540 C539 1.396 . S
C540 C541 1.397 . S
C540 C556 1.509 . S
C541 C540 1.397 . S
C541 C542 1.412 . S
C541 C562 1.485 . S
C542 C541 1.412 . S
C542 C543 1.388 . S
C542 C568 1.490 . S
C543 C538 1.397 . S
C543 C542 1.388 . S
C543 C574 1.519 . S
C544 C538 1.492 . S
C544 C545 1.363 . S
C544 C549 1.390 . S
C545 H510 0.930 . S
C545 C544 1.363 . S
C545 C546 1.372 . S
C546 H511 0.930 . S
C546 C545 1.372 . S
C546 C547 1.383 . S
C547 C546 1.383 . S
C547 C548 1.395 . S
C548 H512 0.930 . S
C548 C547 1.395 . S
C548 C549 1.362 . S
C549 H513 0.930 . S
C549 C544 1.390 . S
C549 C548 1.362 . S
C550 C539 1.492 . S
C550 C551 1.377 . S
C550 C555 1.397 . S
C551 H514 0.931 . S
C551 C550 1.377 . S
C551 C552 1.376 . S
C552 H515 0.930 . S
C552 C551 1.376 . S
C552 C553 1.376 . S
C553 C552 1.376 . S
C553 C554 1.378 . S
C553 C580 1.486 . S
C554 H516 0.930 . S
C554 C553 1.378 . S
C554 C555 1.376 . S
C555 H517 0.929 . S
C555 C550 1.397 . S
C555 C554 1.376 . S
C556 C540 1.509 . S
C556 C557 1.391 . S
C556 C561 1.386 . S
C557 H518 0.930 . S
C557 C556 1.391 . S
C557 C558 1.375 . S
C558 H519 0.931 . S
C558 C557 1.375 . S
C558 C559 1.375 . S
C559 C558 1.375 . S
C559 C560 1.361 . S
C560 H520 0.930 . S
C560 C559 1.361 . S
C560 C561 1.399 . S
C561 H521 0.929 . S
C561 C556 1.386 . S
C561 C560 1.399 . S
C562 C541 1.485 . S
C562 C563 1.394 . S
C562 C567 1.360 . S
C563 H522 0.931 . S
C563 C562 1.394 . S
C563 C564 1.372 . S
C564 H523 0.930 . S
C564 C563 1.372 . S
C564 C565 1.397 1_545 S
C565 C564 1.397 1_565 S
C565 C566 1.390 . S
C565 C581 1.476 . S
C566 H524 0.930 . S
C566 C565 1.390 . S
C566 C567 1.366 1_565 S
C567 H525 0.932 . S
C567 C562 1.360 . S
C567 C566 1.366 1_545 S
C568 C542 1.490 . S
C568 C569 1.380 . S
C568 C573 1.386 . S
C569 H526 0.930 . S
C569 C568 1.380 . S
C569 C570 1.381 . S
C570 H527 0.929 . S
C570 C569 1.381 . S
C570 C571 1.371 1_556 S
C571 C570 1.371 1_554 S
C571 C572 1.380 1_554 S
C572 H528 0.931 . S
C572 C571 1.380 1_556 S
C572 C573 1.387 . S
C573 H529 0.930 . S
C573 C568 1.386 . S
C573 C572 1.387 . S
C574 C543 1.519 . S
C574 C575 1.377 . S
C574 C579 1.361 . S
C575 H530 0.929 . S
C575 C574 1.377 . S
C575 C576 1.386 . S
C576 H531 0.931 . S
C576 C575 1.386 . S
C576 C577 1.363 . S
C577 C576 1.363 . S
C577 C578 1.385 . S
C578 H532 0.930 . S
C578 C577 1.385 . S
C578 C579 1.396 . S
C579 H533 0.929 . S
C579 C574 1.361 . S
C579 C578 1.396 . S
C580 O534 1.300 . S
C580 O535 1.209 . S
C580 C553 1.486 . S
C581 O536 1.199 . S
C581 O537 1.297 . S
C581 C565 1.476 . S
C7 C201 3.567 . S
C30 C275 1.401 . S
C325 N58 2.176 . S
C411 N81 1.924 . S
C503 C99 2.443 1_565 S
C547 N127 1.816 . S
N25 C349 1.757 . S
C62 C429 3.321 1_554 S
C485 C85 1.517 . S
C571 N94 1.518 . S
C131 C177 4.113 . S
C251 N2 1.756 . S
C423 C16 4.443 . S
C39 C473 3.244 . S
C577 N48 3.003 1_556 S
N71 C189 1.415 . S
C108 C263 3.226 . S
N117 C355 2.619 . S
N35 C559 3.002 . S
C207 C53 2.489 . S
C76 C281 3.562 1_655 S
N104 C337 3.360 . S
C122 C399 2.698 . S
N12 C497 2.781 . S
