# Generated by pormake.
# Topology eea, (3,6)-cn, num edge types: 1
# Building blocks:
#     Node 0, Type 0, BuildingBlock: PAMTOO_clean_linker_0, # of connection points: 3
#     Node 1, Type 0, BuildingBlock: PAMTOO_clean_linker_0, # of connection points: 3
#     Node 2, Type 0, BuildingBlock: PAMTOO_clean_linker_0, # of connection points: 3
#     Node 3, Type 0, BuildingBlock: PAMTOO_clean_linker_0, # of connection points: 3
#     Node 4, Type 0, BuildingBlock: PAMTOO_clean_linker_0, # of connection points: 3
#     Node 5, Type 0, BuildingBlock: PAMTOO_clean_linker_0, # of connection points: 3
#     Node 6, Type 0, BuildingBlock: PAMTOO_clean_linker_0, # of connection points: 3
#     Node 7, Type 0, BuildingBlock: PAMTOO_clean_linker_0, # of connection points: 3
#     Node 8, Type 0, BuildingBlock: PAMTOO_clean_linker_0, # of connection points: 3
#     Node 9, Type 0, BuildingBlock: PAMTOO_clean_linker_0, # of connection points: 3
#     Node 10, Type 0, BuildingBlock: PAMTOO_clean_linker_0, # of connection points: 3
#     Node 11, Type 0, BuildingBlock: PAMTOO_clean_linker_0, # of connection points: 3
#     Node 12, Type 0, BuildingBlock: PAMTOO_clean_linker_0, # of connection points: 3
#     Node 13, Type 0, BuildingBlock: PAMTOO_clean_linker_0, # of connection points: 3
#     Node 14, Type 0, BuildingBlock: PAMTOO_clean_linker_0, # of connection points: 3
#     Node 15, Type 0, BuildingBlock: PAMTOO_clean_linker_0, # of connection points: 3
#     Node 16, Type 0, BuildingBlock: PAMTOO_clean_linker_0, # of connection points: 3
#     Node 17, Type 0, BuildingBlock: PAMTOO_clean_linker_0, # of connection points: 3
#     Node 18, Type 1, BuildingBlock: KUMBUR_clean_sbu_0, # of connection points: 6
#     Node 19, Type 1, BuildingBlock: KUMBUR_clean_sbu_0, # of connection points: 6
#     Node 20, Type 1, BuildingBlock: KUMBUR_clean_sbu_0, # of connection points: 6
#     Node 21, Type 1, BuildingBlock: KUMBUR_clean_sbu_0, # of connection points: 6
#     Node 22, Type 1, BuildingBlock: KUMBUR_clean_sbu_0, # of connection points: 6
#     Node 23, Type 1, BuildingBlock: KUMBUR_clean_sbu_0, # of connection points: 6
#     Node 24, Type 1, BuildingBlock: KUMBUR_clean_sbu_0, # of connection points: 6
#     Node 25, Type 1, BuildingBlock: KUMBUR_clean_sbu_0, # of connection points: 6
#     Node 26, Type 1, BuildingBlock: KUMBUR_clean_sbu_0, # of connection points: 6
#     Edge 27, Type (0, 1), BuildingBlock: AJUNOK_clean_linker_0, # of connection points: 2
#     Edge 28, Type (0, 1), BuildingBlock: AJUNOK_clean_linker_0, # of connection points: 2
#     Edge 29, Type (0, 1), BuildingBlock: AJUNOK_clean_linker_0, # of connection points: 2
#     Edge 30, Type (0, 1), BuildingBlock: AJUNOK_clean_linker_0, # of connection points: 2
#     Edge 31, Type (0, 1), BuildingBlock: AJUNOK_clean_linker_0, # of connection points: 2
#     Edge 32, Type (0, 1), BuildingBlock: AJUNOK_clean_linker_0, # of connection points: 2
#     Edge 33, Type (0, 1), BuildingBlock: AJUNOK_clean_linker_0, # of connection points: 2
#     Edge 34, Type (0, 1), BuildingBlock: AJUNOK_clean_linker_0, # of connection points: 2
#     Edge 35, Type (0, 1), BuildingBlock: AJUNOK_clean_linker_0, # of connection points: 2
#     Edge 36, Type (0, 1), BuildingBlock: AJUNOK_clean_linker_0, # of connection points: 2
#     Edge 37, Type (0, 1), BuildingBlock: AJUNOK_clean_linker_0, # of connection points: 2
#     Edge 38, Type (0, 1), BuildingBlock: AJUNOK_clean_linker_0, # of connection points: 2
#     Edge 39, Type (0, 1), BuildingBlock: AJUNOK_clean_linker_0, # of connection points: 2
#     Edge 40, Type (0, 1), BuildingBlock: AJUNOK_clean_linker_0, # of connection points: 2
#     Edge 41, Type (0, 1), BuildingBlock: AJUNOK_clean_linker_0, # of connection points: 2
#     Edge 42, Type (0, 1), BuildingBlock: AJUNOK_clean_linker_0, # of connection points: 2
#     Edge 43, Type (0, 1), BuildingBlock: AJUNOK_clean_linker_0, # of connection points: 2
#     Edge 44, Type (0, 1), BuildingBlock: AJUNOK_clean_linker_0, # of connection points: 2
#     Edge 45, Type (0, 1), BuildingBlock: AJUNOK_clean_linker_0, # of connection points: 2
#     Edge 46, Type (0, 1), BuildingBlock: AJUNOK_clean_linker_0, # of connection points: 2
#     Edge 47, Type (0, 1), BuildingBlock: AJUNOK_clean_linker_0, # of connection points: 2
#     Edge 48, Type (0, 1), BuildingBlock: AJUNOK_clean_linker_0, # of connection points: 2
#     Edge 49, Type (0, 1), BuildingBlock: AJUNOK_clean_linker_0, # of connection points: 2
#     Edge 50, Type (0, 1), BuildingBlock: AJUNOK_clean_linker_0, # of connection points: 2
#     Edge 51, Type (0, 1), BuildingBlock: AJUNOK_clean_linker_0, # of connection points: 2
#     Edge 52, Type (0, 1), BuildingBlock: AJUNOK_clean_linker_0, # of connection points: 2
#     Edge 53, Type (0, 1), BuildingBlock: AJUNOK_clean_linker_0, # of connection points: 2
#     Edge 54, Type (0, 1), BuildingBlock: AJUNOK_clean_linker_0, # of connection points: 2
#     Edge 55, Type (0, 1), BuildingBlock: AJUNOK_clean_linker_0, # of connection points: 2
#     Edge 56, Type (0, 1), BuildingBlock: AJUNOK_clean_linker_0, # of connection points: 2
#     Edge 57, Type (0, 1), BuildingBlock: AJUNOK_clean_linker_0, # of connection points: 2
#     Edge 58, Type (0, 1), BuildingBlock: AJUNOK_clean_linker_0, # of connection points: 2
#     Edge 59, Type (0, 1), BuildingBlock: AJUNOK_clean_linker_0, # of connection points: 2
#     Edge 60, Type (0, 1), BuildingBlock: AJUNOK_clean_linker_0, # of connection points: 2
#     Edge 61, Type (0, 1), BuildingBlock: AJUNOK_clean_linker_0, # of connection points: 2
#     Edge 62, Type (0, 1), BuildingBlock: AJUNOK_clean_linker_0, # of connection points: 2
#     Edge 63, Type (0, 1), BuildingBlock: AJUNOK_clean_linker_0, # of connection points: 2
#     Edge 64, Type (0, 1), BuildingBlock: AJUNOK_clean_linker_0, # of connection points: 2
#     Edge 65, Type (0, 1), BuildingBlock: AJUNOK_clean_linker_0, # of connection points: 2
#     Edge 66, Type (0, 1), BuildingBlock: AJUNOK_clean_linker_0, # of connection points: 2
#     Edge 67, Type (0, 1), BuildingBlock: AJUNOK_clean_linker_0, # of connection points: 2
#     Edge 68, Type (0, 1), BuildingBlock: AJUNOK_clean_linker_0, # of connection points: 2
#     Edge 69, Type (0, 1), BuildingBlock: AJUNOK_clean_linker_0, # of connection points: 2
#     Edge 70, Type (0, 1), BuildingBlock: AJUNOK_clean_linker_0, # of connection points: 2
#     Edge 71, Type (0, 1), BuildingBlock: AJUNOK_clean_linker_0, # of connection points: 2
#     Edge 72, Type (0, 1), BuildingBlock: AJUNOK_clean_linker_0, # of connection points: 2
#     Edge 73, Type (0, 1), BuildingBlock: AJUNOK_clean_linker_0, # of connection points: 2
#     Edge 74, Type (0, 1), BuildingBlock: AJUNOK_clean_linker_0, # of connection points: 2
#     Edge 75, Type (0, 1), BuildingBlock: AJUNOK_clean_linker_0, # of connection points: 2
#     Edge 76, Type (0, 1), BuildingBlock: AJUNOK_clean_linker_0, # of connection points: 2
#     Edge 77, Type (0, 1), BuildingBlock: AJUNOK_clean_linker_0, # of connection points: 2
#     Edge 78, Type (0, 1), BuildingBlock: AJUNOK_clean_linker_0, # of connection points: 2
#     Edge 79, Type (0, 1), BuildingBlock: AJUNOK_clean_linker_0, # of connection points: 2
#     Edge 80, Type (0, 1), BuildingBlock: AJUNOK_clean_linker_0, # of connection points: 2
# Relax obj value: 0.024
# Max RMSD: 0.185
# Mean RMSD: 0.131
data_MOF--net-eea--node1-KUMBUR_clean_sbu_0--node2-PAMTOO_clean_linker_0--edge1-AJUNOK_clean_linker_0
_symmetry_space_group_name_H-M    P1
_symmetry_Int_Tables_number       1
_symmetry_cell_setting            triclinic
loop_
_symmetry_equiv_pos_as_xyz
'x, y, z'
_cell_length_a     38.826248
_cell_length_b     40.454493
_cell_length_c     51.551197
_cell_angle_alpha  89.799441
_cell_angle_beta   89.817261
_cell_angle_gamma 120.03442
loop_
_atom_site_label
_atom_site_type_symbol
_atom_site_fract_x
_atom_site_fract_y
_atom_site_fract_z
_atom_type_partial_charge
H0 H 0.27646 0.06441 0.4497 0.0
H1 H 0.27208 0.16855 0.44573 0.0
H2 H 0.22839 0.09054 0.38238 0.0
H3 H 0.2689 0.17603 0.36888 0.0
C4 C 0.2617 0.18552 0.38732 0.0
O5 O 0.23568 0.15368 0.40161 0.0
H6 H 0.28992 0.20271 0.39814 0.0
C7 C 0.26935 0.0834 0.43916 0.0
C8 C 0.25271 0.07334 0.41412 0.0
C9 C 0.27718 0.11792 0.45082 0.0
C10 C 0.26564 0.14135 0.43773 0.0
C11 C 0.24734 0.13099 0.41346 0.0
C12 C 0.24138 0.09742 0.40154 0.0
H13 H 0.9778 0.21034 0.44 0.0
H14 H 0.88408 0.09268 0.4385 0.0
H15 H 0.96553 0.13955 0.37441 0.0
H16 H 0.88105 0.08133 0.3568 0.0
C17 C 0.86956 0.07116 0.37675 0.0
O18 O 0.90125 0.0786 0.39268 0.0
H19 H 0.8549 0.08742 0.38315 0.0
C20 C 0.96285 0.1828 0.43057 0.0
C21 C 0.97635 0.17874 0.40597 0.0
C22 C 0.92962 0.152 0.44267 0.0
C23 C 0.90988 0.11678 0.42975 0.0
C24 C 0.92243 0.11235 0.40518 0.0
C25 C 0.95605 0.14311 0.39348 0.0
H26 H 0.82786 0.77063 0.43828 0.0
H27 H 0.9439 0.78122 0.4371 0.0
H28 H 0.90737 0.82603 0.37385 0.0
H29 H 0.97181 0.80626 0.35613 0.0
C30 C 0.97626 0.79886 0.37614 0.0
O31 O 0.96702 0.81935 0.39364 0.0
H32 H 0.95551 0.76767 0.37886 0.0
C33 C 0.85618 0.77991 0.42869 0.0
C34 C 0.86333 0.79811 0.40436 0.0
C35 C 0.88471 0.77354 0.44091 0.0
C36 C 0.9217 0.7865 0.42849 0.0
C37 C 0.93024 0.80576 0.40453 0.0
C38 C 0.90099 0.81164 0.39248 0.0
H39 H 0.07265 0.25344 0.60476 0.0
H40 H 0.16827 0.22852 0.60665 0.0
H41 H 0.08455 0.19219 0.66965 0.0
H42 H 0.16826 0.20802 0.68869 0.0
C43 C 0.18042 0.21432 0.6686 0.0
O44 O 0.14951 0.19409 0.65135 0.0
H45 H 0.19351 0.24561 0.6654 0.0
C46 C 0.08812 0.24085 0.61443 0.0
C47 C 0.07355 0.22191 0.63849 0.0
C48 C 0.12264 0.2441 0.60282 0.0
C49 C 0.14235 0.22743 0.61546 0.0
C50 C 0.12911 0.20921 0.63956 0.0
C51 C 0.09456 0.20622 0.65098 0.0
H52 H 0.78387 0.82216 0.60245 0.0
H53 H 0.7991 0.93531 0.60456 0.0
H54 H 0.84125 0.89597 0.66739 0.0
H55 H 0.8022 0.94016 0.68505 0.0
C56 C 0.80345 0.95412 0.66617 0.0
O57 O 0.83074 0.95142 0.65035 0.0
H58 H 0.7733 0.93907 0.65733 0.0
C59 C 0.79543 0.84971 0.61166 0.0
C60 C 0.81428 0.85589 0.63589 0.0
C61 C 0.78965 0.87812 0.60003 0.0
C62 C 0.80325 0.91298 0.61298 0.0
C63 C 0.82101 0.91897 0.63734 0.0
C64 C 0.82697 0.89074 0.64864 0.0
H65 H 0.21377 0.96108 0.60762 0.0
H66 H 0.10464 0.85272 0.60941 0.0
H67 H 0.12877 0.9357 0.66896 0.0
H68 H 0.07056 0.85979 0.68966 0.0
C69 C 0.06895 0.84431 0.67152 0.0
O70 O 0.07566 0.86833 0.65058 0.0
H71 H 0.09271 0.83662 0.67279 0.0
C72 C 0.18581 0.94122 0.61693 0.0
C73 C 0.17487 0.95224 0.63987 0.0
C74 C 0.16131 0.90514 0.60593 0.0
C75 C 0.12428 0.88048 0.6177 0.0
C76 C 0.11235 0.89152 0.64029 0.0
C77 C 0.13794 0.92726 0.65152 0.0
H78 H 0.92772 0.38548 0.77672 0.0
H79 H 0.92835 0.4923 0.77712 0.0
H80 H 0.87568 0.41512 0.7136 0.0
H81 H 0.92314 0.50023 0.69981 0.0
C82 C 0.91831 0.51129 0.71839 0.0
O83 O 0.8911 0.48085 0.73325 0.0
H84 H 0.94732 0.52686 0.72861 0.0
C85 C 0.92029 0.40534 0.76769 0.0
C86 C 0.90075 0.39613 0.74366 0.0
C87 C 0.93121 0.4403 0.77979 0.0
C88 C 0.92024 0.46514 0.76822 0.0
C89 C 0.90041 0.45608 0.74442 0.0
C90 C 0.89091 0.42178 0.73207 0.0
H91 H 0.6414 0.54403 0.77308 0.0
H92 H 0.54596 0.42735 0.76931 0.0
H93 H 0.6291 0.47539 0.70621 0.0
H94 H 0.54361 0.4219 0.68828 0.0
C95 C 0.53184 0.40835 0.70753 0.0
O96 O 0.56356 0.41469 0.72309 0.0
H97 H 0.51556 0.42196 0.71599 0.0
C98 C 0.62616 0.5169 0.76314 0.0
C99 C 0.64035 0.51329 0.7387 0.0
C100 C 0.59221 0.48607 0.77456 0.0
C101 C 0.57217 0.45146 0.76097 0.0
C102 C 0.58498 0.44774 0.73631 0.0
C103 C 0.61935 0.47846 0.72532 0.0
H104 H 0.48974 0.10187 0.76876 0.0
H105 H 0.60668 0.11391 0.76881 0.0
H106 H 0.57197 0.1618 0.7065 0.0
H107 H 0.63935 0.14987 0.68769 0.0
C108 C 0.64067 0.13705 0.7065 0.0
O109 O 0.63113 0.15441 0.72624 0.0
H110 H 0.61796 0.10618 0.70538 0.0
C111 C 0.51867 0.11207 0.7598 0.0
C112 C 0.52692 0.13172 0.73601 0.0
C113 C 0.54719 0.10575 0.77223 0.0
C114 C 0.58457 0.11926 0.76012 0.0
C115 C 0.59387 0.13972 0.73661 0.0
C116 C 0.56496 0.1461 0.72464 0.0
H117 H 0.73731 0.58547 0.93916 0.0
H118 H 0.838 0.56824 0.94186 0.0
H119 H 0.75403 0.52921 1.00513 0.0
H120 H 0.83738 0.54493 0.02427 0.0
C121 C 0.85002 0.55386 1.00443 0.0
O122 O 0.82025 0.53316 0.98653 0.0
H123 H 0.86014 0.58486 1.00261 0.0
C124 C 0.75439 0.57492 0.94923 0.0
C125 C 0.74144 0.55753 0.97382 0.0
C126 C 0.7889 0.57876 0.93732 0.0
C127 C 0.81081 0.56475 0.95036 0.0
C128 C 0.79848 0.54686 0.9747 0.0
C129 C 0.76345 0.54285 0.98629 0.0
H130 H 0.449 0.15406 0.93465 0.0
H131 H 0.46221 0.26634 0.937 0.0
H132 H 0.50853 0.22893 0.99869 0.0
H133 H 0.47694 0.2775 0.01887 0.0
C134 C 0.47329 0.28796 0.99966 0.0
O135 O 0.49758 0.28418 0.98176 0.0
H136 H 0.44139 0.2701 0.99428 0.0
C137 C 0.46045 0.18163 0.94383 0.0
C138 C 0.48066 0.18847 0.96756 0.0
C139 C 0.45386 0.20958 0.93236 0.0
C140 C 0.467 0.24435 0.94533 0.0
C141 C 0.48615 0.251 0.96927 0.0
C142 C 0.4932 0.22326 0.9803 0.0
H143 H 0.87836 0.29303 0.93775 0.0
H144 H 0.76375 0.19058 0.94091 0.0
H145 H 0.7972 0.2748 1.00065 0.0
H146 H 0.73481 0.19683 0.02264 0.0
C147 C 0.73417 0.18266 1.00407 0.0
O148 O 0.74062 0.20779 0.98384 0.0
H149 H 0.75867 0.17597 1.00512 0.0
C150 C 0.84976 0.27581 0.9472 0.0
C151 C 0.84128 0.28881 0.97033 0.0
C152 C 0.82221 0.24049 0.93635 0.0
C153 C 0.7857 0.21757 0.94916 0.0
C154 C 0.77673 0.22973 0.97237 0.0
C155 C 0.80452 0.26533 0.98292 0.0
H156 H 0.59289 0.7191 0.10866 0.0
H157 H 0.59532 0.82682 0.10692 0.0
H158 H 0.54187 0.74779 0.04452 0.0
H159 H 0.58156 0.82861 0.02706 0.0
C160 C 0.5829 0.84184 0.04619 0.0
O161 O 0.55739 0.81399 0.06332 0.0
H162 H 0.61419 0.85516 0.05305 0.0
C163 C 0.58554 0.73881 0.09932 0.0
C164 C 0.56662 0.72937 0.07511 0.0
C165 C 0.59607 0.77384 0.11121 0.0
C166 C 0.58654 0.79913 0.09869 0.0
C167 C 0.56675 0.78953 0.07489 0.0
C168 C 0.55691 0.7548 0.06306 0.0
H169 H 0.31354 0.88313 0.10799 0.0
H170 H 0.2138 0.76844 0.10988 0.0
H171 H 0.29395 0.80632 0.04473 0.0
H172 H 0.20891 0.74914 0.02948 0.0
C173 C 0.19763 0.73932 0.04951 0.0
O174 O 0.22959 0.7482 0.06557 0.0
H175 H 0.1822 0.75499 0.05561 0.0
C176 C 0.29601 0.85548 0.09897 0.0
C177 C 0.30803 0.84866 0.07468 0.0
C178 C 0.26198 0.82694 0.11188 0.0
C179 C 0.24029 0.79076 0.10043 0.0
C180 C 0.25167 0.78327 0.07632 0.0
C181 C 0.28561 0.81216 0.0635 0.0
H182 H 0.15878 0.4401 0.10466 0.0
H183 H 0.27426 0.4494 0.10345 0.0
H184 H 0.2393 0.49744 0.04116 0.0
H185 H 0.30654 0.48572 0.02223 0.0
C186 C 0.3078 0.47268 0.04095 0.0
O187 O 0.29873 0.4902 0.06085 0.0
H188 H 0.28474 0.44193 0.03977 0.0
C189 C 0.18705 0.44911 0.09511 0.0
C190 C 0.19458 0.46797 0.071 0.0
C191 C 0.21483 0.44116 0.10684 0.0
C192 C 0.25226 0.45497 0.0948 0.0
C193 C 0.26158 0.4758 0.0714 0.0
C194 C 0.23257 0.48225 0.0595 0.0
H195 H 0.40851 0.92487 0.27396 0.0
H196 H 0.51263 0.91288 0.2736 0.0
H197 H 0.43231 0.87178 0.33878 0.0
H198 H 0.51915 0.89661 0.355 0.0
C199 C 0.53029 0.90086 0.33469 0.0
O200 O 0.49864 0.87848 0.31843 0.0
H201 H 0.54273 0.93162 0.32978 0.0
C202 C 0.42731 0.9158 0.28343 0.0
C203 C 0.41606 0.89808 0.30804 0.0
C204 C 0.46209 0.92151 0.27076 0.0
C205 C 0.48562 0.90859 0.28291 0.0
C206 C 0.47522 0.89084 0.30738 0.0
C207 C 0.44022 0.88534 0.31986 0.0
H208 H 0.1131 0.48818 0.27028 0.0
H209 H 0.12679 0.60059 0.27247 0.0
H210 H 0.17414 0.56362 0.33383 0.0
H211 H 0.13821 0.61262 0.35281 0.0
C212 C 0.13756 0.62402 0.33327 0.0
O213 O 0.16273 0.61897 0.31686 0.0
H214 H 0.10625 0.60762 0.32638 0.0
C215 C 0.12488 0.51585 0.27937 0.0
C216 C 0.14589 0.52292 0.3028 0.0
C217 C 0.11797 0.54366 0.26804 0.0
C218 C 0.13166 0.57864 0.2808 0.0
C219 C 0.15112 0.5855 0.30462 0.0
C220 C 0.1584 0.55778 0.31559 0.0
H221 H 0.54695 0.62407 0.27133 0.0
H222 H 0.43509 0.51902 0.27436 0.0
H223 H 0.47278 0.59265 0.34012 0.0
H224 H 0.41418 0.51419 0.35739 0.0
C225 C 0.40807 0.50223 0.33748 0.0
O226 O 0.41431 0.53081 0.32002 0.0
H227 H 0.42911 0.49168 0.33341 0.0
C228 C 0.52029 0.6046 0.28201 0.0
C229 C 0.51389 0.61407 0.30725 0.0
C230 C 0.49287 0.56988 0.27031 0.0
C231 C 0.4573 0.54514 0.28346 0.0
C232 C 0.44986 0.554 0.30829 0.0
C233 C 0.47848 0.5877 0.32039 0.0
Tb234 Tb 0.50353 0.99248 0.98827 0.0
C235 C 0.5765 0.11471 0.07322 0.0
C236 C 0.64656 0.13503 0.07295 0.0
C237 C 0.62481 0.1792 0.08642 0.0
C238 C 0.60663 0.1071 0.06823 0.0
C239 C 0.58502 0.15055 0.08293 0.0
C240 C 0.65556 0.17144 0.08145 0.0
C241 C 0.51434 0.12571 0.08743 0.0
N242 N 0.53856 0.08606 0.06999 0.0
C243 C 0.50747 0.09056 0.07796 0.0
C244 C 0.55329 0.15602 0.08961 0.0
Tb245 Tb 0.52987 0.02959 0.05381 0.0
N246 N 0.59651 0.07142 0.06033 0.0
C247 C 0.62515 0.06125 0.0584 0.0
C248 C 0.67604 0.12517 0.06975 0.0
C249 C 0.66519 0.08794 0.06278 0.0
H250 H 0.47722 0.06741 0.07634 0.0
H251 H 0.68769 0.07983 0.06051 0.0
H252 H 0.68608 0.19342 0.08488 0.0
H253 H 0.48958 0.12935 0.09307 0.0
H254 H 0.61779 0.03302 0.05251 0.0
H255 H 0.34473 0.93768 0.98764 0.0
H256 H 0.70708 0.1458 0.07308 0.0
H257 H 0.55622 0.9572 0.96202 0.0
H258 H 0.41526 0.98737 0.9909 0.0
H259 H 0.54436 0.8951 0.94553 0.0
H260 H 0.63203 0.20706 0.09364 0.0
H261 H 0.32634 0.87089 0.97829 0.0
H262 H 0.34845 0.824 0.96639 0.0
H263 H 0.55855 0.18314 0.09713 0.0
H264 H 0.40303 0.81236 0.95464 0.0
N265 N 0.43701 0.94904 0.98439 0.0
C266 C 0.40784 0.95842 0.98675 0.0
C267 C 0.35743 0.89259 0.97976 0.0
C268 C 0.38748 0.88373 0.97547 0.0
C269 C 0.3677 0.93028 0.98494 0.0
C270 C 0.42741 0.91303 0.97776 0.0
H271 H 0.47628 0.83904 0.94609 0.0
N272 N 0.49562 0.93622 0.97247 0.0
C273 C 0.51979 0.89781 0.95295 0.0
C274 C 0.45788 0.90637 0.97148 0.0
C275 C 0.5264 0.93297 0.96226 0.0
C276 C 0.48134 0.8662 0.95338 0.0
C277 C 0.44964 0.8704 0.96228 0.0
O278 O 0.53627 0.01345 0.95347 0.0
O279 O 0.54695 0.0354 1.01351 0.0
O280 O 0.5252 0.07285 0.0308 0.0
O281 O 0.48548 0.03519 0.99665 0.0
O282 O 0.56832 0.0182 0.98358 0.0
O283 O 0.47916 0.00903 0.95771 0.0
O284 O 0.49626 0.01109 0.08856 0.0
O285 O 0.48593 0.9856 0.02887 0.0
O286 O 0.51304 0.95152 1.00998 0.0
O287 O 0.54982 0.98808 0.0453 0.0
O288 O 0.46582 0.00755 0.05651 0.0
O289 O 0.54853 1.00647 0.08362 0.0
C290 C 0.57883 0.04139 1.00276 0.0
C291 C 0.4989 1.0026 0.91518 0.0
C292 C 0.50345 0.01381 0.86803 0.0
C293 C 0.51134 0.02793 0.89373 0.0
C294 C 0.48313 0.97398 0.86441 0.0
C295 C 0.47792 0.96319 0.91077 0.0
C296 C 0.47031 0.94902 0.88558 0.0
C297 C 0.50234 0.0672 1.01033 0.0
C298 C 0.50877 0.0174 0.94197 0.0
C299 C 0.41002 0.8404 0.96131 0.0
C300 C 0.37895 0.84703 0.96798 0.0
C301 C 0.45438 0.98198 0.03884 0.0
C302 C 0.53283 0.01604 0.12641 0.0
C303 C 0.51253 0.99269 0.14807 0.0
C304 C 0.52407 1.00652 0.17358 0.0
C305 C 0.55647 0.04359 0.177 0.0
C306 C 0.56498 0.05287 0.13057 0.0
C307 C 0.57667 0.0665 0.15566 0.0
C308 C 0.53609 0.95736 0.03034 0.0
C309 C 0.52048 1.00204 0.09964 0.0
H310 H 0.52658 0.05839 0.89713 0.0
H311 H 0.47717 0.96196 0.8451 0.0
H312 H 0.46745 0.94326 0.92673 0.0
H313 H 0.45445 0.91848 0.88245 0.0
H314 H 0.48768 0.96414 0.14509 0.0
H315 H 0.56651 0.05474 0.19629 0.0
H316 H 0.58131 0.07107 0.11444 0.0
H317 H 0.60164 0.09493 0.15858 0.0
Tb318 Tb 0.04488 0.51488 0.99146 0.0
C319 C 0.91178 0.45309 0.07276 0.0
C320 C 0.88777 0.49783 0.07225 0.0
C321 C 0.84285 0.43151 0.084 0.0
C322 C 0.91842 0.4893 0.06815 0.0
C323 C 0.8743 0.42395 0.08153 0.0
C324 C 0.84959 0.46846 0.07938 0.0
C325 C 0.90335 0.38399 0.08816 0.0
N326 N 0.94323 0.4474 0.07078 0.0
C327 C 0.94003 0.41397 0.07958 0.0
C328 C 0.87013 0.38874 0.08868 0.0
Tb329 Tb 1.00199 0.49766 0.05565 0.0
N330 N 0.95584 0.51681 0.06163 0.0
C331 C 0.96525 0.55423 0.06101 0.0
C332 C 0.89682 0.5358 0.07009 0.0
C333 C 0.93592 0.56421 0.06493 0.0
H334 H 0.96543 0.40987 0.07922 0.0
H335 H 0.94348 0.5938 0.0637 0.0
H336 H 0.8255 0.47431 0.08223 0.0
H337 H 0.90075 0.35724 0.09436 0.0
H338 H 0.99504 0.57657 0.05662 0.0
H339 H 0.09689 0.41352 0.98486 0.0
H340 H 0.87415 0.54358 0.07305 0.0
H341 H 0.08675 0.60477 0.9714 0.0
H342 H 0.04683 0.43328 0.99003 0.0
H343 H 0.15348 0.65601 0.95774 0.0
H344 H 0.81366 0.40939 0.09039 0.0
H345 H 0.16751 0.46196 0.97729 0.0
H346 H 0.21885 0.53074 0.96895 0.0
H347 H 0.84183 0.36558 0.09552 0.0
H348 H 0.23433 0.59695 0.96138 0.0
N349 N 0.08856 0.49279 0.98614 0.0
C350 C 0.07739 0.4549 0.98662 0.0
C351 C 0.14561 0.47089 0.97956 0.0
C352 C 0.15646 0.50938 0.97743 0.0
C353 C 0.10577 0.44347 0.98371 0.0
C354 C 0.12681 0.51945 0.98068 0.0
H355 H 0.20989 0.6438 0.95656 0.0
N356 N 0.10549 0.56429 0.97854 0.0
C357 C 0.14891 0.62822 0.96316 0.0
C358 C 0.13562 0.55658 0.97668 0.0
C359 C 0.11114 0.59912 0.97085 0.0
C360 C 0.18071 0.62126 0.9626 0.0
C361 C 0.17416 0.58488 0.96898 0.0
O362 O 0.02991 0.53173 0.95662 0.0
O363 O 0.99694 0.51042 0.01554 0.0
O364 O 0.95965 0.4487 0.03257 0.0
O365 O 0.99884 0.45393 0.99642 0.0
O366 O 1.01949 0.55268 0.98827 0.0
O367 O 0.0273 0.47736 0.95973 0.0
O368 O 0.02277 0.48492 0.08982 0.0
O369 O 0.04953 0.50177 0.03132 0.0
O370 O 0.08769 0.56075 0.01625 0.0
O371 O 0.04528 0.55938 0.04869 0.0
O372 O 0.02697 0.45963 0.05835 0.0
O373 O 1.02005 0.53649 0.08665 0.0
C374 C 0.99233 0.53668 1.00577 0.0
C375 C 0.04079 0.50651 0.91829 0.0
C376 C 0.03125 0.49575 0.87161 0.0
C377 C 1.01557 0.48981 0.89697 0.0
C378 C 0.07255 0.51909 0.86793 0.0
C379 C 0.08192 0.52896 0.91418 0.0
C380 C 0.09766 0.53526 0.88913 0.0
C381 C 0.96614 0.43506 1.01089 0.0
C382 C 0.02343 0.501 0.94444 0.0
C383 C 0.20437 0.57552 0.96697 0.0
C384 C 0.19555 0.53782 0.97126 0.0
C385 C 0.05376 0.47509 0.04061 0.0
C386 C 1.01076 0.50858 0.12828 0.0
C387 C 0.03608 0.51699 0.14967 0.0
C388 C 1.02057 0.50953 0.17513 0.0
C389 C 0.97932 0.49372 0.17876 0.0
C390 C 0.96988 0.4934 0.13243 0.0
C391 C 0.95426 0.4859 0.15753 0.0
C392 C 0.07976 0.57696 0.03587 0.0
C393 C 0.02736 0.51502 0.10185 0.0
H394 H 0.98378 0.47224 0.90014 0.0
H395 H 0.08545 0.52535 0.84864 0.0
H396 H 0.10188 0.542 0.93015 0.0
H397 H 0.12941 0.55307 0.8861 0.0
H398 H 0.06783 0.52976 0.14643 0.0
H399 H 0.96639 0.48728 0.19806 0.0
H400 H 0.95002 0.48739 0.11637 0.0
H401 H 0.9226 0.47393 0.16055 0.0
Tb402 Tb 0.54339 0.51315 0.05436 0.0
C403 C 0.46714 0.56156 0.96985 0.0
C404 C 0.39734 0.51391 0.97163 0.0
C405 C 0.41759 0.57837 0.95713 0.0
C406 C 0.43761 0.52499 0.97566 0.0
C407 C 0.45768 0.58843 0.95972 0.0
C408 C 0.38742 0.54111 0.9631 0.0
C409 C 0.52781 0.63099 0.95212 0.0
N410 N 0.50536 0.5697 0.97202 0.0
C411 C 0.53557 0.60318 0.9621 0.0
C412 C 0.48874 0.62388 0.95137 0.0
Tb413 Tb 0.51566 0.5229 0.98901 0.0
N414 N 0.44862 0.49956 0.98341 0.0
C415 C 0.42056 0.46172 0.98581 0.0
C416 C 0.36844 0.47561 0.97541 0.0
C417 C 0.38019 0.44931 0.98217 0.0
H418 H 0.56586 0.60889 0.96245 0.0
H419 H 0.35815 0.41949 0.98481 0.0
H420 H 0.35663 0.5333 0.96023 0.0
H421 H 0.55196 0.65783 0.94494 0.0
H422 H 0.42872 0.44097 0.99146 0.0
H423 H 0.70135 0.61475 0.05642 0.0
H424 H 0.33717 0.46593 0.97263 0.0
H425 H 0.49221 0.42624 0.0797 0.0
H426 H 0.63051 0.59455 0.05199 0.0
H427 H 0.50578 0.37689 0.09691 0.0
H428 H 0.40965 0.59873 0.94967 0.0
H429 H 0.72168 0.56729 0.06703 0.0
H430 H 0.70147 0.49978 0.07972 0.0
H431 H 0.48276 0.64533 0.94344 0.0
H432 H 0.64806 0.43494 0.09125 0.0
N433 N 0.61028 0.53562 0.05903 0.0
C434 C 0.63863 0.57335 0.05665 0.0
C435 C 0.6904 0.55815 0.06501 0.0
C436 C 0.66115 0.52007 0.06928 0.0
C437 C 0.67903 0.58503 0.05914 0.0
C438 C 0.62091 0.5097 0.06624 0.0
H439 H 0.5749 0.38908 0.09835 0.0
N440 N 0.55298 0.46577 0.07098 0.0
C441 C 0.53007 0.40389 0.09006 0.0
C442 C 0.59112 0.47347 0.07271 0.0
C443 C 0.5225 0.43198 0.08035 0.0
C444 C 0.56911 0.41083 0.09076 0.0
C445 C 0.60032 0.4462 0.08238 0.0
O446 O 0.51229 0.501 0.08993 0.0
O447 O 0.49857 0.51302 0.02945 0.0
O448 O 0.52118 0.57172 1.01079 0.0
O449 O 0.56084 0.57282 0.04529 0.0
O450 O 0.47887 0.47484 0.0592 0.0
O451 O 0.56484 0.55544 0.08321 0.0
O452 O 0.54979 0.53516 0.95471 0.0
O453 O 0.56051 0.5227 1.01389 0.0
O454 O 0.53854 0.46516 0.03228 0.0
O455 O 0.49751 0.4628 0.99858 0.0
O456 O 0.57984 0.56279 0.98538 0.0
O457 O 0.49497 0.48218 0.95906 0.0
C458 C 0.46716 0.48761 0.04039 0.0
C459 C 0.55164 0.53216 0.12641 0.0
C460 C 0.54591 0.53557 0.17349 0.0
C461 C 0.53348 0.53808 0.14824 0.0
C462 C 0.57701 0.52761 0.17654 0.0
C463 C 0.58273 0.52445 0.13003 0.0
C464 C 0.59527 0.52216 0.15494 0.0
C465 C 0.54426 0.58845 0.03107 0.0
C466 C 0.53773 0.53365 0.10005 0.0
C467 C 0.64032 0.45561 0.08413 0.0
C468 C 0.67072 0.49251 0.07754 0.0
C469 C 0.59182 0.5493 1.00361 0.0
C470 C 0.51333 0.50815 0.91664 0.0
C471 C 0.53237 0.50225 0.8953 0.0
C472 C 0.52334 0.50785 0.86969 0.0
C473 C 0.49519 0.51964 0.86596 0.0
C474 C 0.48482 0.51907 0.91223 0.0
C475 C 0.476 0.52499 0.88707 0.0
C476 C 0.51419 0.44716 1.01282 0.0
C477 C 0.52409 0.50381 0.94337 0.0
H478 H 0.5095 0.54417 0.14563 0.0
H479 H 0.58755 0.52611 0.19571 0.0
H480 H 0.59748 0.52038 0.11366 0.0
H481 H 0.61933 0.51625 0.15751 0.0
H482 H 0.55362 0.49279 0.89869 0.0
H483 H 0.48797 0.5248 0.84664 0.0
H484 H 0.46929 0.523 0.92816 0.0
H485 H 0.45418 0.53377 0.88391 0.0
Tb486 Tb 0.17014 0.32497 0.32194 0.0
C487 C 0.24312 0.44792 0.40568 0.0
C488 C 0.31251 0.46581 0.40657 0.0
C489 C 0.29295 0.51244 0.41772 0.0
C490 C 0.27233 0.43867 0.40181 0.0
C491 C 0.25282 0.48449 0.41452 0.0
C492 C 0.3228 0.50311 0.41374 0.0
C493 C 0.18255 0.46134 0.41978 0.0
N494 N 0.2048 0.41985 0.4029 0.0
C495 C 0.17452 0.42541 0.41118 0.0
C496 C 0.22186 0.49124 0.42099 0.0
Tb497 Tb 0.19422 0.36223 0.38775 0.0
N498 N 0.26098 0.40222 0.39516 0.0
C499 C 0.28836 0.39031 0.39514 0.0
C500 C 0.34088 0.45427 0.40493 0.0
C501 C 0.32861 0.41616 0.39969 0.0
H502 H 0.14402 0.40249 0.41025 0.0
H503 H 0.35018 0.40668 0.39896 0.0
H504 H 0.35357 0.52452 0.41711 0.0
H505 H 0.15841 0.4659 0.42549 0.0
H506 H 0.27981 0.36112 0.391 0.0
H507 H 1.01321 0.27999 0.31979 0.0
H508 H 0.37207 0.47423 0.40838 0.0
H509 H 0.21629 0.28478 0.29368 0.0
H510 H 0.08472 0.32635 0.3225 0.0
H511 H 0.20008 0.2205 0.27882 0.0
H512 H 0.30111 0.5409 0.42417 0.0
H513 H 0.99008 0.21152 0.31296 0.0
H514 H 1.00742 0.16056 0.30325 0.0
H515 H 0.22803 0.51895 0.42786 0.0
H516 H 0.05876 0.14411 0.29205 0.0
N517 N 0.10264 0.28468 0.31808 0.0
C518 C 0.07541 0.29671 0.31939 0.0
C519 C 1.02166 0.23179 0.31418 0.0
C520 C 0.04972 0.22011 0.31083 0.0
C521 C 0.03462 0.27043 0.31789 0.0
C522 C 0.09043 0.24767 0.31273 0.0
H523 H 0.13091 0.16659 0.28221 0.0
N524 N 0.15745 0.26678 0.30674 0.0
C525 C 0.17701 0.22499 0.28694 0.0
C526 C 0.119 0.23831 0.30681 0.0
C527 C 0.1861 0.26131 0.29538 0.0
C528 C 0.13797 0.19461 0.28898 0.0
C529 C 0.10814 0.2013 0.29833 0.0
O530 O 0.20477 0.34475 0.28771 0.0
O531 O 0.21318 0.36763 0.34769 0.0
O532 O 0.18943 0.40545 0.36482 0.0
O533 O 0.15464 0.36993 0.32848 0.0
O534 O 0.23455 0.34804 0.31886 0.0
O535 O 0.14887 0.34292 0.29031 0.0
O536 O 0.15734 0.34279 0.42105 0.0
O537 O 0.15146 0.31852 0.36225 0.0
O538 O 0.1812 0.28441 0.34334 0.0
O539 O 0.2123 0.31902 0.38094 0.0
O540 O 0.13046 0.34147 0.38873 0.0
O541 O 0.21139 0.34091 0.41959 0.0
C542 C 0.24496 0.37172 0.33778 0.0
C543 C 0.16982 0.33549 0.24845 0.0
C544 C 0.17347 0.34654 0.2013 0.0
C545 C 0.18117 0.36079 0.22697 0.0
C546 C 0.15606 0.30689 0.19768 0.0
C547 C 0.15046 0.29608 0.244 0.0
C548 C 0.14421 0.28197 0.21882 0.0
C549 C 0.16905 0.40081 0.34325 0.0
C550 C 0.17892 0.35019 0.27533 0.0
C551 C 0.06776 0.17292 0.29812 0.0
C552 C 0.03854 0.1823 0.30445 0.0
C553 C 0.11973 0.31558 0.3713 0.0
C554 C 0.18961 0.34872 0.46096 0.0
C555 C 0.1745 0.32285 0.48212 0.0
C556 C 0.18261 0.33637 0.50793 0.0
C557 C 0.20481 0.37601 0.51207 0.0
C558 C 0.21257 0.38793 0.46587 0.0
C559 C 0.2198 0.40145 0.49122 0.0
C560 C 0.20172 0.28976 0.36498 0.0
C561 C 0.18108 0.33489 0.4339 0.0
H562 H 0.19537 0.39127 0.23023 0.0
H563 H 0.15139 0.29496 0.17838 0.0
H564 H 0.14031 0.27608 0.2599 0.0
H565 H 0.13006 0.25149 0.21568 0.0
H566 H 0.15706 0.29244 0.47852 0.0
H567 H 0.21053 0.38742 0.53156 0.0
H568 H 0.22485 0.4082 0.45016 0.0
H569 H 0.23715 0.43185 0.49473 0.0
Tb570 Tb 0.7121 0.84209 0.32336 0.0
C571 C 0.58262 0.78899 0.4071 0.0
C572 C 0.55955 0.83449 0.40607 0.0
C573 C 0.51493 0.76938 0.4205 0.0
C574 C 0.58949 0.8251 0.40152 0.0
C575 C 0.54571 0.761 0.41746 0.0
C576 C 0.52183 0.8061 0.41476 0.0
C577 C 0.57365 0.71991 0.42322 0.0
N578 N 0.61332 0.7823 0.40424 0.0
C579 C 0.60976 0.7487 0.41299 0.0
C580 C 0.54134 0.72593 0.42525 0.0
Tb581 Tb 0.67176 0.8315 0.3879 0.0
N582 N 0.62662 0.85185 0.3938 0.0
C583 C 0.63657 0.88938 0.39238 0.0
C584 C 0.56899 0.87244 0.40291 0.0
C585 C 0.60789 0.90013 0.39653 0.0
H586 H 0.63447 0.74365 0.4116 0.0
H587 H 0.61581 0.92976 0.39464 0.0
H588 H 0.49829 0.81262 0.41802 0.0
H589 H 0.57079 0.69312 0.42959 0.0
H590 H 0.66629 0.91119 0.38723 0.0
H591 H 0.77045 0.74535 0.32311 0.0
H592 H 0.54685 0.88085 0.40615 0.0
H593 H 0.74907 0.92788 0.29614 0.0
H594 H 0.71843 0.7628 0.32635 0.0
H595 H 0.81388 0.97887 0.27981 0.0
H596 H 0.48615 0.74808 0.42806 0.0
H597 H 0.84009 0.7949 0.31378 0.0
H598 H 0.88884 0.86318 0.30183 0.0
H599 H 0.51347 0.70366 0.43331 0.0
H600 H 0.9007 0.92704 0.28974 0.0
N601 N 0.75797 0.8222 0.31957 0.0
C602 C 0.74848 0.78488 0.32208 0.0
C603 C 0.81729 0.80281 0.31515 0.0
C604 C 0.82634 0.84044 0.31075 0.0
C605 C 0.77801 0.77476 0.32031 0.0
C606 C 0.79554 0.84917 0.31291 0.0
H607 H 0.87259 0.97017 0.28074 0.0
N608 N 0.77087 0.89079 0.30695 0.0
C609 C 0.81109 0.95264 0.28735 0.0
C610 C 0.80228 0.88488 0.30628 0.0
C611 C 0.77433 0.92358 0.29661 0.0
C612 C 0.8442 0.94768 0.28799 0.0
C613 C 0.83989 0.91318 0.2971 0.0
O614 O 0.69113 0.8515 0.28808 0.0
O615 O 0.66575 0.84134 0.34739 0.0
O616 O 0.62766 0.78247 0.36543 0.0
O617 O 0.66902 0.78153 0.33302 0.0
O618 O 0.68729 0.8799 0.31764 0.0
O619 O 0.69357 0.80017 0.29432 0.0
O620 O 0.69258 0.82 0.42251 0.0
O621 O 0.71889 0.83374 0.36394 0.0
O622 O 0.75493 0.89225 0.34488 0.0
O623 O 0.71531 0.89249 0.37894 0.0
O624 O 0.69674 0.79364 0.39242 0.0
O625 O 0.69115 0.87211 0.41788 0.0
C626 C 0.66176 0.86721 0.33623 0.0
C627 C 0.70317 0.82433 0.25149 0.0
C628 C 0.69355 0.81916 0.20456 0.0
C629 C 0.67786 0.81326 0.22994 0.0
C630 C 0.73498 0.83603 0.20121 0.0
C631 C 0.74422 0.84031 0.24765 0.0
C632 C 0.76003 0.84625 0.22264 0.0
C633 C 0.63498 0.76495 0.3463 0.0
C634 C 0.68643 0.82028 0.27771 0.0
C635 C 0.8714 0.90551 0.29639 0.0
C636 C 0.86464 0.86916 0.30326 0.0
C637 C 0.72354 0.80807 0.37462 0.0
C638 C 0.6823 0.84623 0.46027 0.0
C639 C 0.70766 0.85342 0.48152 0.0
C640 C 0.69254 0.84687 0.50709 0.0
C641 C 0.65165 0.83305 0.51094 0.0
C642 C 0.64189 0.8333 0.4647 0.0
C643 C 0.62664 0.82657 0.48988 0.0
C644 C 0.74834 0.90945 0.36452 0.0
C645 C 0.69818 0.85104 0.4337 0.0
H646 H 0.64602 0.79972 0.23305 0.0
H647 H 0.74808 0.84142 0.18198 0.0
H648 H 0.76409 0.84824 0.26386 0.0
H649 H 0.79182 0.85894 0.21985 0.0
H650 H 0.73913 0.86454 0.47807 0.0
H651 H 0.63893 0.82723 0.53029 0.0
H652 H 0.62209 0.82838 0.4488 0.0
H653 H 0.5953 0.81624 0.49308 0.0
Tb654 Tb 0.21647 0.84894 0.39192 0.0
C655 C 0.14641 0.90772 0.30993 0.0
C656 C 0.07612 0.86167 0.3085 0.0
C657 C 0.09942 0.92819 0.29799 0.0
C658 C 0.11565 0.87097 0.31353 0.0
C659 C 0.13886 0.93674 0.30166 0.0
C660 C 0.06805 0.89065 0.30135 0.0
C661 C 0.20984 0.97936 0.29884 0.0
N662 N 0.18399 0.91452 0.31321 0.0
C663 C 0.21576 0.94947 0.30675 0.0
C664 C 0.17122 0.9731 0.29657 0.0
Tb665 Tb 0.1909 0.86422 0.32735 0.0
N666 N 0.12483 0.84386 0.32027 0.0
C667 C 0.09579 0.80622 0.32039 0.0
C668 C 0.0461 0.8234 0.30998 0.0
C669 C 0.05611 0.7955 0.31554 0.0
H670 H 0.24578 0.95475 0.30853 0.0
H671 H 0.03323 0.7657 0.31633 0.0
H672 H 0.03784 0.88417 0.29774 0.0
H673 H 0.2351 1.00718 0.29445 0.0
H674 H 0.1026 0.7842 0.32504 0.0
H675 H 0.37675 0.93745 0.39418 0.0
H676 H 1.01535 0.81503 0.30632 0.0
H677 H 0.15775 0.76169 0.41608 0.0
H678 H 0.30795 0.9242 0.38994 0.0
H679 H 0.16433 0.7076 0.4317 0.0
H680 H 0.09293 0.95015 0.29187 0.0
H681 H 0.38985 0.88481 0.40386 0.0
H682 H 0.36255 0.81553 0.41531 0.0
H683 H 0.1667 0.99623 0.29025 0.0
H684 H 0.30453 0.75279 0.42584 0.0
N685 N 0.28174 0.86448 0.3965 0.0
C686 C 0.31298 0.90097 0.3944 0.0
C687 C 0.35949 0.87884 0.40204 0.0
C688 C 0.32739 0.84195 0.40592 0.0
C689 C 0.35219 0.90862 0.39669 0.0
C690 C 0.28849 0.83574 0.40315 0.0
H691 H 0.23044 0.71249 0.4326 0.0
N692 N 0.2195 0.797 0.40734 0.0
C693 C 0.19041 0.73357 0.4252 0.0
C694 C 0.25612 0.80068 0.4089 0.0
C695 C 0.18681 0.76443 0.4163 0.0
C696 C 0.22775 0.7364 0.42562 0.0
C697 C 0.26133 0.77048 0.4178 0.0
O698 O 0.18371 0.8401 0.42646 0.0
O699 O 0.17291 0.8523 0.36745 0.0
O700 O 0.19729 0.91118 0.35203 0.0
O701 O 0.23943 0.91017 0.38362 0.0
O702 O 0.15155 0.8127 0.39638 0.0
O703 O 0.24266 0.88811 0.42258 0.0
O704 O 0.22375 0.87993 0.29233 0.0
O705 O 0.23455 0.86035 0.35145 0.0
O706 O 0.20785 0.80039 0.36903 0.0
O707 O 0.16998 0.80268 0.33474 0.0
O708 O 0.25533 0.9022 0.32407 0.0
O709 O 0.17203 0.82438 0.29696 0.0
C710 C 0.14091 0.82681 0.37784 0.0
C711 C 0.22149 0.86122 0.46463 0.0
C712 C 0.21438 0.86247 0.51184 0.0
C713 C 0.20717 0.87138 0.48662 0.0
C714 C 0.23463 0.84194 0.51453 0.0
C715 C 0.24318 0.84239 0.4681 0.0
C716 C 0.24925 0.8324 0.49283 0.0
C717 C 0.22325 0.92769 0.37104 0.0
C718 C 0.21256 0.86902 0.43821 0.0
C719 C 0.29988 0.77577 0.41935 0.0
C720 C 0.33291 0.81147 0.41336 0.0
C721 C 0.26642 0.88673 0.34142 0.0
C722 C 0.18707 0.85063 0.2545 0.0
C723 C 0.20748 0.84751 0.23279 0.0
C724 C 0.19583 0.85059 0.20739 0.0
C725 C 0.16314 0.85618 0.20411 0.0
C726 C 0.15475 0.85642 0.2506 0.0
C727 C 0.14289 0.85914 0.22557 0.0
C728 C 0.18434 0.78466 0.34884 0.0
C729 C 0.19972 0.84784 0.28102 0.0
H730 H 0.19096 0.88654 0.48412 0.0
H731 H 0.2393 0.83329 0.53349 0.0
H732 H 0.25528 0.83519 0.45174 0.0
H733 H 0.26538 0.81718 0.49519 0.0
H734 H 0.23252 0.84306 0.23565 0.0
H735 H 0.15287 0.85775 0.18488 0.0
H736 H 0.13846 0.85857 0.26684 0.0
H737 H 0.11774 0.86337 0.22278 0.0
Tb738 Tb 0.83571 0.65947 0.65641 0.0
C739 C 0.91504 0.78043 0.74145 0.0
C740 C 0.98386 0.79635 0.74027 0.0
C741 C 0.96688 0.84377 0.75422 0.0
C742 C 0.94318 0.77028 0.73603 0.0
C743 C 0.92631 0.81682 0.75146 0.0
C744 C 0.99565 0.83354 0.7486 0.0
C745 C 0.85674 0.7952 0.7587 0.0
N746 N 0.8763 0.75329 0.73908 0.0
C747 C 0.84719 0.75946 0.74882 0.0
C748 C 0.89646 0.8243 0.75955 0.0
Tb749 Tb 0.86285 0.69571 0.72233 0.0
N750 N 0.93036 0.73391 0.72839 0.0
C751 C 0.95689 0.72104 0.72658 0.0
C752 C 1.01123 0.78386 0.73689 0.0
C753 C 0.99758 0.74585 0.73044 0.0
H754 H 0.81642 0.73701 0.74836 0.0
H755 H 1.01841 0.73565 0.72825 0.0
H756 H 0.0268 0.85415 0.75161 0.0
H757 H 0.83347 0.80023 0.76573 0.0
H758 H 0.94742 0.69196 0.72147 0.0
H759 H 0.67776 0.61009 0.65754 0.0
H760 H 0.04275 0.803 0.73984 0.0
H761 H 0.88301 0.62222 0.62568 0.0
H762 H 0.74893 0.65794 0.65946 0.0
H763 H 0.86819 0.55897 0.60951 0.0
H764 H 0.97621 0.87207 0.76157 0.0
H765 H 0.65639 0.54224 0.64955 0.0
H766 H 0.67545 0.493 0.63801 0.0
H767 H 0.90384 0.85187 0.7674 0.0
H768 H 0.72778 0.47884 0.62486 0.0
N769 N 0.76841 0.61771 0.65338 0.0
C770 C 0.74036 0.62859 0.6558 0.0
C771 C 0.68781 0.56317 0.65037 0.0
C772 C 0.71661 0.55273 0.64586 0.0
C773 C 0.69977 0.60146 0.65476 0.0
C774 C 0.75707 0.58112 0.64727 0.0
H775 H 0.79994 0.50362 0.61346 0.0
N776 N 0.82426 0.60233 0.6398 0.0
C777 C 0.84489 0.56242 0.61837 0.0
C778 C 0.78621 0.57306 0.64024 0.0
C779 C 0.85316 0.5982 0.62749 0.0
C780 C 0.80637 0.53122 0.62073 0.0
C781 C 0.77617 0.53655 0.63112 0.0
O782 O 0.86911 0.68153 0.62194 0.0
O783 O 0.87954 0.70169 0.68191 0.0
O784 O 0.85729 0.73932 0.70015 0.0
O785 O 0.81889 0.70283 0.6651 0.0
O786 O 0.90011 0.68363 0.6518 0.0
O787 O 0.81231 0.67752 0.62614 0.0
O788 O 0.82833 0.6778 0.75673 0.0
O789 O 0.81885 0.65255 0.69715 0.0
O790 O 0.84848 0.61905 0.67604 0.0
O791 O 0.8793 0.65175 0.71428 0.0
O792 O 0.79908 0.67499 0.72491 0.0
O793 O 0.87965 0.67147 0.75243 0.0
C794 C 0.91104 0.70663 0.67113 0.0
C795 C 0.83197 0.67101 0.58374 0.0
C796 C 0.83841 0.68164 0.5366 0.0
C797 C 0.84627 0.69608 0.5622 0.0
C798 C 0.81648 0.64178 0.53319 0.0
C799 C 0.80901 0.63162 0.57954 0.0
C800 C 0.80167 0.61713 0.55446 0.0
C801 C 0.83486 0.73413 0.67946 0.0
C802 C 0.84194 0.68593 0.61046 0.0
C803 C 0.73614 0.50731 0.63139 0.0
C804 C 0.70635 0.51538 0.63883 0.0
C805 C 0.78755 0.64933 0.70724 0.0
C806 C 0.86297 0.68044 0.79503 0.0
C807 C 0.84327 0.65556 0.81612 0.0
C808 C 0.85418 0.66811 0.84194 0.0
C809 C 0.88494 0.70578 0.84617 0.0
C810 C 0.89375 0.71769 0.79994 0.0
C811 C 0.90455 0.73025 0.82534 0.0
C812 C 0.86882 0.62342 0.69755 0.0
C813 C 0.85135 0.66746 0.76804 0.0
H814 H 0.86277 0.7266 0.56546 0.0
H815 H 0.81055 0.62951 0.51395 0.0
H816 H 0.79673 0.61196 0.59559 0.0
H817 H 0.78437 0.58659 0.55148 0.0
H818 H 0.81931 0.62679 0.81245 0.0
H819 H 0.8942 0.7162 0.8657 0.0
H820 H 0.90959 0.73705 0.78418 0.0
H821 H 0.92836 0.75908 0.82889 0.0
Tb822 Tb 0.37509 0.17621 0.65276 0.0
C823 C 0.25111 0.13122 0.73529 0.0
C824 C 0.23557 0.18211 0.73426 0.0
C825 C 0.18489 0.11815 0.7474 0.0
C826 C 0.26249 0.16879 0.73029 0.0
C827 C 0.2126 0.10567 0.74473 0.0
C828 C 0.19637 0.15635 0.74217 0.0
C829 C 0.23367 0.05939 0.75179 0.0
N830 N 0.27911 0.1207 0.73315 0.0
C831 C 0.2717 0.0861 0.74281 0.0
C832 C 0.20376 0.06899 0.75233 0.0
Tb833 Tb 0.34062 0.16651 0.71831 0.0
N834 N 0.30064 0.19273 0.72281 0.0
C835 C 0.31443 0.231 0.72022 0.0
C836 C 0.24919 0.22105 0.73082 0.0
C837 C 0.28896 0.24567 0.72414 0.0
H838 H 0.29486 0.07869 0.74264 0.0
H839 H 0.29993 0.27592 0.72173 0.0
H840 H 0.17507 0.1659 0.74497 0.0
H841 H 0.22756 0.03158 0.75848 0.0
H842 H 0.34493 0.25037 0.71481 0.0
H843 H 0.31857 0.06042 0.58392 0.0
H844 H 0.22946 0.23244 0.73367 0.0
H845 H 0.46848 0.23207 0.6727 0.0
H846 H 0.32076 0.1147 0.60733 0.0
H847 H 0.53064 0.23023 0.67407 0.0
H848 H 0.15496 0.09884 0.7543 0.0
H849 H 0.37213 0.04496 0.59048 0.0
H850 H 0.43939 0.0642 0.60932 0.0
H851 H 0.17447 0.04845 0.75962 0.0
H852 H 0.49817 0.11167 0.63328 0.0
N853 N 0.37198 0.12665 0.6292 0.0
C854 C 0.3433 0.10717 0.61096 0.0
C855 C 0.37257 0.06815 0.60122 0.0
C856 C 0.4045 0.09135 0.61738 0.0
C857 C 0.34231 0.07677 0.59746 0.0
C858 C 0.4035 0.12111 0.6309 0.0
H859 H 0.53301 0.1745 0.65668 0.0
N860 N 0.43498 0.17764 0.65475 0.0
C861 C 0.5043 0.20674 0.66562 0.0
C862 C 0.43646 0.14786 0.64397 0.0
C863 C 0.46872 0.2076 0.6648 0.0
C864 C 0.50552 0.17521 0.65586 0.0
C865 C 0.47151 0.14554 0.64443 0.0
O866 O 0.41778 0.21944 0.62848 0.0
O867 O 0.33916 0.18763 0.6799 0.0
O868 O 0.29618 0.11641 0.69666 0.0
O869 O 0.33174 0.11541 0.66014 0.0
O870 O 0.3156 0.16589 0.64392 0.0
O871 O 0.35629 0.18936 0.61794 0.0
O872 O 0.3601 0.15129 0.75215 0.0
O873 O 0.38718 0.16985 0.69298 0.0
O874 O 0.40721 0.23337 0.6696 0.0
O875 O 0.3905 0.22528 0.7135 0.0
O876 O 0.36137 0.12539 0.71884 0.0
O877 O 0.35726 0.20269 0.75077 0.0
C878 C 0.30871 0.17708 0.66559 0.0
C879 C 0.40318 0.20806 0.5835 0.0
C880 C 0.38423 0.18487 0.53893 0.0
C881 C 0.37371 0.18694 0.56486 0.0
C882 C 0.42486 0.20342 0.53217 0.0
C883 C 0.4434 0.22626 0.57606 0.0
C884 C 0.45408 0.22365 0.55063 0.0
C885 C 0.30034 0.09947 0.67588 0.0
C886 C 0.39224 0.21304 0.6102 0.0
C887 C 0.47178 0.11434 0.63275 0.0
C888 C 0.43826 0.08724 0.61921 0.0
C889 C 0.38918 0.14144 0.70175 0.0
C890 C 0.34797 0.17293 0.7917 0.0
C891 C 0.37351 0.18186 0.81307 0.0
C892 C 0.35811 0.17431 0.83858 0.0
C893 C 0.31678 0.15759 0.84229 0.0
C894 C 0.30703 0.15706 0.79601 0.0
C895 C 0.29152 0.1492 0.82113 0.0
C896 C 0.41161 0.24656 0.69353 0.0
C897 C 0.36457 0.18056 0.76517 0.0
H898 H 0.34266 0.17217 0.57055 0.0
H899 H 0.43416 0.20296 0.51241 0.0
H900 H 0.46669 0.24288 0.58985 0.0
H901 H 0.48517 0.23792 0.54508 0.0
H902 H 0.40531 0.19531 0.80978 0.0
H903 H 0.30394 0.15101 0.86161 0.0
H904 H 0.28699 0.15096 0.78009 0.0
H905 H 0.25981 0.13668 0.82421 0.0
Tb906 Tb 0.87716 0.18068 0.72268 0.0
C907 C 0.79724 0.22383 0.63779 0.0
C908 C 0.72853 0.1733 0.63907 0.0
C909 C 0.74506 0.23702 0.62506 0.0
C910 C 0.76927 0.18648 0.6432 0.0
C911 C 0.78569 0.24928 0.62778 0.0
C912 C 0.71648 0.19904 0.63073 0.0
C913 C 0.85516 0.29493 0.62044 0.0
N914 N 0.83609 0.23419 0.64009 0.0
C915 C 0.86501 0.26845 0.63027 0.0
C916 C 0.81534 0.28559 0.61966 0.0
Tb917 Tb 0.84982 0.18954 0.6568 0.0
N918 N 0.78228 0.16252 0.65091 0.0
C919 C 0.75586 0.12416 0.65311 0.0
C920 C 0.7013 0.13448 0.64269 0.0
C921 C 0.71512 0.10974 0.64936 0.0
H922 H 0.89583 0.27574 0.63068 0.0
H923 H 0.69438 0.07952 0.65181 0.0
H924 H 0.68528 0.18958 0.62779 0.0
H925 H 0.87827 0.32244 0.6134 0.0
H926 H 0.76549 0.10432 0.65843 0.0
H927 H 0.03519 0.28298 0.72015 0.0
H928 H 0.66973 0.12322 0.63984 0.0
H929 H 0.83043 0.09898 0.75503 0.0
H930 H 0.96403 0.26248 0.71847 0.0
H931 H 0.84521 0.04995 0.77151 0.0
H932 H 0.73551 0.25626 0.61772 0.0
H933 H 0.05663 0.23585 0.72902 0.0
H934 H 0.03768 0.1686 0.7417 0.0
H935 H 0.80775 0.306 0.61183 0.0
H936 H 0.9855 0.10448 0.75576 0.0
N937 N 0.94455 0.20369 0.72558 0.0
C938 C 0.9726 0.24143 0.72253 0.0
C939 C 0.0252 0.2266 0.72832 0.0
C940 C 0.99645 0.18864 0.73347 0.0
C941 C 1.0132 0.25329 0.72342 0.0
C942 C 0.95598 0.17816 0.73219 0.0
H943 H 0.91342 0.06008 0.76754 0.0
N944 N 0.88895 0.13517 0.7404 0.0
C945 C 0.86844 0.07566 0.76238 0.0
C946 C 0.92695 0.14238 0.73989 0.0
C947 C 0.86014 0.10341 0.75299 0.0
C948 C 0.90694 0.08142 0.76004 0.0
C949 C 0.93707 0.11564 0.74934 0.0
O950 O 0.84489 0.17081 0.75761 0.0
O951 O 0.83272 0.18009 0.69719 0.0
O952 O 0.8542 0.23807 0.67853 0.0
O953 O 0.89423 0.24001 0.71296 0.0
O954 O 0.81265 0.14322 0.72784 0.0
O955 O 0.90027 0.22266 0.75179 0.0
O956 O 0.88488 0.20513 0.62276 0.0
O957 O 0.89419 0.18857 0.68188 0.0
O958 O 0.86417 0.12762 0.70403 0.0
O959 O 0.83383 0.12989 0.66521 0.0
O960 O 0.91365 0.23021 0.65415 0.0
O961 O 0.83224 0.15008 0.62614 0.0
C962 C 0.80122 0.15512 0.70835 0.0
C963 C 0.88367 0.19874 0.79475 0.0
C964 C 0.87558 0.20053 0.84177 0.0
C965 C 0.86534 0.2051 0.8163 0.0
C966 C 0.90462 0.18988 0.84531 0.0
C967 C 0.91274 0.18839 0.79885 0.0
C968 C 0.92302 0.1839 0.82398 0.0
C969 C 0.87725 0.25521 0.69875 0.0
C970 C 0.87178 0.20227 0.76818 0.0
C971 C 0.97708 0.12481 0.74896 0.0
C972 C 1.00679 0.16131 0.74098 0.0
C973 C 0.92548 0.2154 0.6716 0.0
C974 C 0.85075 0.17738 0.58403 0.0
C975 C 0.87006 0.17121 0.56293 0.0
C976 C 0.86102 0.1761 0.53715 0.0
C977 C 0.83269 0.18756 0.53301 0.0
C978 C 0.82209 0.18799 0.57919 0.0
C979 C 0.81334 0.19327 0.55386 0.0
C980 C 0.84382 0.11199 0.68267 0.0
C981 C 0.86122 0.17344 0.61093 0.0
H982 H 0.84298 0.21327 0.81327 0.0
H983 H 0.91366 0.18689 0.86463 0.0
H984 H 0.92763 0.18394 0.78268 0.0
H985 H 0.94554 0.17598 0.82695 0.0
H986 H 0.89147 0.16206 0.56663 0.0
H987 H 0.82544 0.19214 0.51354 0.0
H988 H 0.8064 0.19214 0.59492 0.0
H989 H 0.79139 0.20179 0.55037 0.0
C990 C 0.34734 0.91684 0.05954 0.0
C991 C 0.34364 0.88045 0.06133 0.0
C992 C 0.38256 0.94871 0.05062 0.0
C993 C 0.41576 0.94582 0.04292 0.0
H994 H 0.32314 0.92098 0.06589 0.0
H995 H 0.38431 0.9763 0.05059 0.0
S996 S 0.4213 0.85681 0.04308 0.0
N997 N 0.37585 0.84307 0.05364 0.0
N998 N 0.44227 0.90313 0.03741 0.0
C999 C 0.41207 0.90936 0.0437 0.0
C1000 C 0.37592 0.87667 0.05264 0.0
C1001 C 0.16344 0.50527 0.05202 0.0
C1002 C 0.16101 0.4701 0.05811 0.0
C1003 C 0.12923 0.5071 0.04473 0.0
C1004 C 0.09148 0.47379 0.04314 0.0
H1005 H 0.19142 0.53162 0.05428 0.0
H1006 H 0.13206 0.53483 0.0416 0.0
S1007 S 0.07017 0.37461 0.05381 0.0
N1008 N 0.11833 0.40117 0.05929 0.0
N1009 N 0.05471 0.40472 0.0463 0.0
C1010 C 0.08932 0.43859 0.0479 0.0
C1011 C 0.12385 0.43669 0.05503 0.0
C1012 C 0.53829 0.65864 0.07616 0.0
C1013 C 0.55834 0.69334 0.06236 0.0
C1014 C 0.53332 0.62473 0.0655 0.0
C1015 C 0.5482 0.62433 0.04071 0.0
H1016 H 0.52678 0.65781 0.09547 0.0
H1017 H 0.51802 0.59863 0.07685 0.0
S1018 S 0.60519 0.7077 0.9974 0.0
N1019 N 0.59423 0.72537 0.02292 0.0
N1020 N 0.58535 0.6615 1.00317 0.0
C1021 C 0.56819 0.65863 0.02666 0.0
C1022 C 0.57312 0.69321 0.03743 0.0
C1023 C 0.88316 0.3307 1.00718 0.0
C1024 C 0.87128 0.32687 0.98102 0.0
C1025 C 0.91373 0.36571 0.01686 0.0
C1026 C 0.93363 0.39818 1.00077 0.0
H1027 H 0.86952 0.30618 0.02007 0.0
H1028 H 0.92261 0.36697 0.03683 0.0
S1029 S 0.91054 0.40477 0.93184 0.0
N1030 N 0.87965 0.35983 0.93993 0.0
N1031 N 0.93691 0.42505 0.95806 0.0
C1032 C 0.92119 0.39503 0.97488 0.0
C1033 C 0.89008 0.3596 0.96505 0.0
C1034 C 0.672 0.52112 0.99395 0.0
C1035 C 0.7053 0.55598 0.98597 0.0
C1036 C 0.63564 0.51894 1.00118 0.0
C1037 C 0.6314 0.55162 1.0009 0.0
H1038 H 0.67339 0.49506 0.99331 0.0
H1039 H 0.61031 0.49129 1.00584 0.0
S1040 S 0.71091 0.65034 0.98526 0.0
N1041 N 0.73243 0.62436 0.98117 0.0
N1042 N 0.66465 0.62013 0.9942 0.0
C1043 C 0.66506 0.58672 0.99431 0.0
C1044 C 0.70182 0.58898 0.98714 0.0
C1045 C 0.47723 0.14642 1.00474 0.0
C1046 C 0.48836 0.15902 0.97893 0.0
C1047 C 0.48239 0.11703 0.01517 0.0
C1048 C 0.49884 0.09943 1.00011 0.0
H1049 H 0.46351 0.15867 0.01669 0.0
H1050 H 0.47239 0.1073 0.03479 0.0
S1051 S 0.53768 0.12539 0.93291 0.0
N1052 N 0.51984 0.15389 0.93952 0.0
N1053 N 0.52962 0.09897 0.95918 0.0
C1054 C 0.51142 0.11274 0.97473 0.0
C1055 C 0.50617 0.14248 0.96412 0.0
C1056 C 0.65858 0.14704 1.00628 0.0
C1057 C 0.69401 0.14634 1.00168 0.0
C1058 C 0.62127 0.11319 1.00661 0.0
C1059 C 0.61808 0.07731 1.00277 0.0
H1060 H 0.65983 0.17391 1.01018 0.0
H1061 H 0.59492 0.11523 1.0101 0.0
S1062 S 0.70118 0.06004 0.98772 0.0
N1063 N 0.72293 0.10677 0.99134 0.0
N1064 N 0.65315 0.04348 0.99228 0.0
C1065 C 0.65303 0.07645 0.99699 0.0
C1066 C 0.69089 0.1108 0.99651 0.0
C1067 C 0.92444 0.57926 0.99975 0.0
C1068 C 0.88561 0.5476 1.00174 0.0
C1069 C 0.95829 0.57504 1.00079 0.0
C1070 C 0.95506 0.53908 1.0045 0.0
H1071 H 0.92883 0.60781 0.998 0.0
H1072 H 0.98742 0.60041 0.9995 0.0
S1073 S 0.86034 0.44645 1.00758 0.0
N1074 N 0.84604 0.4786 1.00562 0.0
N1075 N 0.90947 0.47065 1.00696 0.0
C1076 C 0.91645 0.50695 1.00522 0.0
C1077 C 0.88187 0.51124 1.00415 0.0
C1078 C 0.5153 0.35387 0.018 0.0
C1079 C 0.48435 0.32928 1.00156 0.0
C1080 C 0.52536 0.39208 0.0208 0.0
C1081 C 0.50464 0.40727 1.00749 0.0
H1082 H 0.5316 0.34335 0.029 0.0
H1083 H 0.54961 0.40972 0.03363 0.0
S1084 S 0.42484 0.35545 0.959 0.0
N1085 N 0.43597 0.32333 0.96949 0.0
N1086 N 0.45426 0.395 0.97494 0.0
C1087 C 0.47497 0.38329 0.98985 0.0
C1088 C 0.46498 0.34437 0.98686 0.0
C1089 C 0.17709 0.67249 0.03439 0.0
C1090 C 0.16853 0.69658 0.04923 0.0
C1091 C 0.14887 0.63364 0.03127 0.0
C1092 C 0.11051 0.61716 0.0425 0.0
H1093 H 0.20551 0.68403 0.0245 0.0
H1094 H 0.15715 0.61661 0.01952 0.0
S1095 S 0.07569 0.66697 0.08667 0.0
N1096 N 0.12094 0.70036 0.07796 0.0
N1097 N 0.06769 0.62768 0.07181 0.0
C1098 C 0.10262 0.6405 0.05884 0.0
C1099 C 0.1316 0.68007 0.06221 0.0
C1100 C 0.38379 0.51271 0.03814 0.0
C1101 C 0.3493 0.4774 0.04368 0.0
C1102 C 0.42194 0.51627 0.03711 0.0
C1103 C 0.42705 0.4845 0.04119 0.0
H1104 H 0.38109 0.53753 0.03385 0.0
H1105 H 0.44745 0.54394 0.03276 0.0
S1106 S 0.34726 0.38653 0.0584 0.0
N1107 N 0.32367 0.41074 0.05501 0.0
N1108 N 0.3947 0.41736 0.05281 0.0
C1109 C 0.39312 0.4496 0.0479 0.0
C1110 C 0.35448 0.446 0.04907 0.0
C1111 C 0.54075 0.86582 0.0257 0.0
C1112 C 0.57077 0.87167 0.04327 0.0
C1113 C 0.5292 0.89323 0.0223 0.0
C1114 C 0.5474 0.92789 0.03612 0.0
H1115 H 0.52621 0.83988 1.01438 0.0
H1116 H 0.5056 0.88691 1.00872 0.0
S1117 S 0.62365 0.95399 0.08747 0.0
N1118 N 0.61546 0.91222 0.07686 0.0
N1119 N 0.5943 0.96418 0.07032 0.0
C1120 C 0.5761 0.93306 0.05482 0.0
C1121 C 0.58764 0.90488 0.0584 0.0
C1122 C 0.04479 0.21066 0.38522 0.0
C1123 C 1.01096 0.21234 0.39334 0.0
C1124 C 0.07958 0.24369 0.37656 0.0
C1125 C 0.08145 0.27936 0.37539 0.0
H1126 H 0.04503 0.18407 0.38674 0.0
H1127 H 0.10561 0.24157 0.37184 0.0
S1128 S 0.99938 0.29791 0.39096 0.0
N1129 N 0.98047 0.2519 0.39701 0.0
N1130 N 0.04548 0.31356 0.38101 0.0
C1131 C 0.04716 0.28082 0.38216 0.0
C1132 C 1.01199 0.24745 0.39094 0.0
C1133 C 0.7917 0.76897 0.39122 0.0
C1134 C 0.8301 0.80141 0.39204 0.0
C1135 C 0.75816 0.77166 0.38441 0.0
C1136 C 0.76124 0.80678 0.37768 0.0
H1137 H 0.78729 0.74128 0.39685 0.0
H1138 H 0.72923 0.74595 0.385 0.0
S1139 S 0.85492 0.90049 0.3764 0.0
N1140 N 0.86931 0.86986 0.38491 0.0
N1141 N 0.80627 0.875 0.37243 0.0
C1142 C 0.79959 0.83939 0.37765 0.0
C1143 C 0.83397 0.83663 0.38456 0.0
C1144 C 0.21288 0.01442 0.38673 0.0
C1145 C 0.24733 0.03783 0.40127 0.0
C1146 C 0.20636 0.97993 0.37584 0.0
C1147 C 0.23328 0.96666 0.37969 0.0
H1148 H 0.19018 0.02224 0.38425 0.0
H1149 H 0.17944 0.96308 0.36494 0.0
S1150 S 0.33178 0.02055 0.41152 0.0
N1151 N 0.3119 0.04803 0.41492 0.0
N1152 N 0.29833 0.98236 0.396 0.0
C1153 C 0.2688 0.99072 0.39291 0.0
C1154 C 0.27604 0.02634 0.40337 0.0
C1155 C 0.58524 0.66721 0.31357 0.0
C1156 C 0.54433 0.6514 0.31932 0.0
C1157 C 0.61404 0.70332 0.32269 0.0
C1158 C 0.60379 0.72526 0.33871 0.0
H1159 H 0.59543 0.65173 0.30172 0.0
H1160 H 0.64472 0.7141 0.31699 0.0
S1161 S 0.50161 0.69617 0.36176 0.0
N1162 N 0.49556 0.66097 0.34282 0.0
N1163 N 0.54985 0.72685 0.3616 0.0
C1164 C 0.56339 0.70905 0.34581 0.0
C1165 C 0.53376 0.67274 0.33582 0.0
C1166 C 0.37482 0.92663 0.32273 0.0
C1167 C 0.3795 0.89436 0.32097 0.0
C1168 C 0.33879 0.92364 0.33092 0.0
C1169 C 0.30553 0.88828 0.33782 0.0
H1170 H 0.39894 0.95443 0.3169 0.0
H1171 H 0.33651 0.94926 0.33103 0.0
S1172 S 0.30211 0.7949 0.33711 0.0
N1173 N 0.34798 0.82583 0.32773 0.0
N1174 N 0.27997 0.82009 0.34239 0.0
C1175 C 0.31006 0.85583 0.33694 0.0
C1176 C 0.34711 0.85894 0.32882 0.0
C1177 C 0.14447 0.48085 0.33951 0.0
C1178 C 0.15436 0.49354 0.31362 0.0
C1179 C 0.14969 0.4511 0.34926 0.0
C1180 C 0.16499 0.43312 0.33347 0.0
H1181 H 0.13153 0.49322 0.35206 0.0
H1182 H 0.14044 0.44132 0.36894 0.0
S1183 S 0.20015 0.45888 0.26551 0.0
N1184 N 0.18343 0.48793 0.27321 0.0
N1185 N 0.19311 0.43229 0.29154 0.0
C1186 C 0.17624 0.44644 0.30792 0.0
C1187 C 0.17101 0.4766 0.29802 0.0
C1188 C 0.3576 0.43154 0.33466 0.0
C1189 C 0.36539 0.46939 0.33649 0.0
C1190 C 0.31853 0.40043 0.33532 0.0
C1191 C 0.28561 0.40573 0.33852 0.0
H1192 H 0.38194 0.42583 0.33287 0.0
H1193 H 0.31404 0.37183 0.33376 0.0
S1194 S 0.28947 0.49915 0.34184 0.0
N1195 N 0.33665 0.51045 0.34042 0.0
N1196 N 0.26332 0.45206 0.34088 0.0
C1197 C 0.29283 0.44343 0.33956 0.0
C1198 C 0.33267 0.47518 0.33894 0.0
C1199 C 0.60336 0.91967 0.33128 0.0
C1200 C 0.56319 0.89062 0.33324 0.0
C1201 C 0.63455 0.91145 0.33236 0.0
C1202 C 0.62722 0.87396 0.33628 0.0
H1203 H 0.61085 0.94918 0.32917 0.0
H1204 H 0.6649 0.93486 0.3307 0.0
S1205 S 0.52734 0.78735 0.33985 0.0
N1206 N 0.51783 0.82267 0.33771 0.0
N1207 N 0.5763 0.8071 0.33937 0.0
C1208 C 0.58721 0.84451 0.33745 0.0
C1209 C 0.55536 0.85291 0.33622 0.0
C1210 C 0.18151 0.68925 0.3521 0.0
C1211 C 0.1506 0.66595 0.33523 0.0
C1212 C 0.19279 0.72767 0.35555 0.0
C1213 C 0.17345 0.74455 0.34253 0.0
H1214 H 0.19672 0.6775 0.36304 0.0
H1215 H 0.21689 0.74411 0.36875 0.0
S1216 S 0.09438 0.69666 0.29307 0.0
N1217 N 0.1037 0.66307 0.303 0.0
N1218 N 0.12446 0.73524 0.3097 0.0
C1219 C 0.14392 0.72194 0.3244 0.0
C1220 C 0.13262 0.6827 0.32073 0.0
C1221 C 0.84555 1.00472 0.35958 0.0
C1222 C 0.83941 0.02878 0.37615 0.0
C1223 C 0.81647 0.96617 0.35669 0.0
C1224 C 0.77967 0.94987 0.37002 0.0
H1225 H 0.87276 0.01604 0.34831 0.0
H1226 H 0.82302 0.94919 0.34365 0.0
S1227 S 0.75155 0.99988 0.41872 0.0
N1228 N 0.79592 0.03293 0.40831 0.0
N1229 N 0.74099 0.96067 0.4027 0.0
C1230 C 0.7742 0.97326 0.38783 0.0
C1231 C 0.80409 0.01259 0.39092 0.0
C1232 C 0.0277 0.77767 0.38073 0.0
C1233 C 1.01931 0.80769 0.37858 0.0
C1234 C 0.06703 0.78453 0.38035 0.0
C1235 C 0.09989 0.82159 0.37709 0.0
H1236 H 1.00359 0.74844 0.38237 0.0
H1237 H 0.07174 0.76038 0.38206 0.0
S1238 S 0.09448 0.91051 0.37327 0.0
N1239 N 0.04747 0.87618 0.37459 0.0
N1240 N 0.12124 0.88912 0.37449 0.0
C1241 C 0.09207 0.85202 0.37588 0.0
C1242 C 0.05191 0.84503 0.3763 0.0
C1243 C 0.24345 0.2231 0.3566 0.0
C1244 C 0.24385 0.21063 0.38203 0.0
C1245 C 0.22961 0.24846 0.35136 0.0
C1246 C 0.21534 0.26228 0.37121 0.0
H1247 H 0.25468 0.21378 0.34065 0.0
H1248 H 0.23169 0.25843 0.33171 0.0
S1249 S 0.21116 0.23929 0.44129 0.0
N1250 N 0.22997 0.21495 0.42749 0.0
N1251 N 0.20301 0.26194 0.41749 0.0
C1252 C 0.21584 0.25028 0.39678 0.0
C1253 C 0.23021 0.22459 0.40219 0.0
C1254 C 0.68015 0.58277 0.72673 0.0
C1255 C 0.67676 0.54647 0.72735 0.0
C1256 C 0.71564 0.61535 0.71899 0.0
C1257 C 0.74924 0.6131 0.71136 0.0
H1258 H 0.65537 0.58617 0.73282 0.0
H1259 H 0.7171 0.6428 0.7195 0.0
S1260 S 0.75628 0.52494 0.71008 0.0
N1261 N 0.71012 0.51015 0.71959 0.0
N1262 N 0.777 0.57148 0.70559 0.0
C1263 C 0.74612 0.57691 0.71152 0.0
C1264 C 0.70979 0.54358 0.71923 0.0
C1265 C 0.492 0.16919 0.72807 0.0
C1266 C 0.49487 0.13635 0.72351 0.0
C1267 C 0.45848 0.17138 0.71998 0.0
C1268 C 0.42681 0.14103 0.70667 0.0
H1269 H 0.51513 0.19276 0.73883 0.0
H1270 H 0.45684 0.19663 0.72473 0.0
S1271 S 0.41942 0.04854 0.69054 0.0
N1272 N 0.46286 0.07272 0.70517 0.0
N1273 N 0.40014 0.07685 0.69007 0.0
C1274 C 0.42939 0.10813 0.70207 0.0
C1275 C 0.46343 0.1059 0.71027 0.0
C1276 C 0.87244 0.32537 0.74449 0.0
C1277 C 0.89188 0.36006 0.73064 0.0
C1278 C 0.86704 0.29145 0.73357 0.0
C1279 C 0.88078 0.29096 0.70841 0.0
H1280 H 0.86185 0.32457 0.76408 0.0
H1281 H 0.85241 0.26543 0.74503 0.0
S1282 S 0.93547 0.37422 0.66463 0.0
N1283 N 0.92575 0.39194 0.69064 0.0
N1284 N 0.916 0.32805 0.67036 0.0
C1285 C 0.89997 0.32522 0.69425 0.0
C1286 C 0.90538 0.35983 0.70531 0.0
C1287 C 0.22188 0.99373 0.67473 0.0
C1288 C 0.2027 0.99034 0.65091 0.0
C1289 C 0.25303 0.02933 0.68316 0.0
C1290 C 0.26599 0.06248 0.66796 0.0
H1291 H 0.21385 0.9685 0.68634 0.0
H1292 H 0.26792 0.0307 0.70119 0.0
S1293 S 0.22132 0.06953 0.60618 0.0
N1294 N 0.1963 0.02365 0.61367 0.0
N1295 N 0.2539 0.09021 0.62967 0.0
C1296 C 0.24554 0.05962 0.64489 0.0
C1297 C 0.2141 0.02363 0.63633 0.0
C1298 C 0.03275 0.25236 0.65061 0.0
C1299 C 0.03686 0.21966 0.65028 0.0
C1300 C 0.99724 0.2506 0.6587 0.0
C1301 C 0.96407 0.21617 0.66712 0.0
H1302 H 0.05704 0.27959 0.64402 0.0
H1303 H 0.99544 0.27646 0.65785 0.0
S1304 S 0.9588 0.12205 0.67013 0.0
N1305 N 1.00439 0.1516 0.65956 0.0
N1306 N 0.93765 0.14832 0.67438 0.0
C1307 C 0.96789 0.18332 0.66747 0.0
C1308 C 1.00428 0.18512 0.6593 0.0
C1309 C 0.83753 0.80834 0.63341 0.0
C1310 C 0.82007 0.82558 0.64792 0.0
C1311 C 0.84256 0.77911 0.64407 0.0
C1312 C 0.83042 0.76608 0.66962 0.0
H1313 H 0.84747 0.8176 0.61368 0.0
H1314 H 0.85614 0.76659 0.63222 0.0
S1315 S 0.77943 0.79886 0.71475 0.0
N1316 N 0.78853 0.82589 0.68867 0.0
N1317 N 0.79751 0.77046 0.70841 0.0
C1318 C 0.81245 0.78259 0.68421 0.0
C1319 C 0.80742 0.81249 0.67343 0.0
C1320 C 0.99358 0.81101 0.67465 0.0
C1321 C 0.02813 0.80877 0.66991 0.0
C1322 C 0.95561 0.77801 0.67519 0.0
C1323 C 0.95095 0.74155 0.67136 0.0
H1324 H 0.99604 0.83843 0.67841 0.0
H1325 H 0.92989 0.78108 0.67878 0.0
S1326 S 0.03126 0.72035 0.65614 0.0
N1327 N 0.05463 0.76719 0.65961 0.0
N1328 N 0.9836 0.70546 0.66087 0.0
C1329 C 0.98501 0.73916 0.66551 0.0
C1330 C 0.02352 0.77263 0.66487 0.0
C1331 C 0.25292 0.23212 0.66276 0.0
C1332 C 0.21278 0.20356 0.66639 0.0
C1333 C 0.28385 0.22347 0.66323 0.0
C1334 C 0.27608 0.18608 0.66795 0.0
H1335 H 0.26059 0.26155 0.65984 0.0
H1336 H 0.31416 0.24627 0.66004 0.0
S1337 S 0.17632 0.10045 0.67671 0.0
N1338 N 0.16713 0.13599 0.67365 0.0
N1339 N 0.22507 0.11981 0.67415 0.0
C1340 C 0.2361 0.15708 0.67056 0.0
C1341 C 0.20459 0.16584 0.67016 0.0
C1342 C 0.83706 0.024 0.65205 0.0
C1343 C 0.81443 0.9952 0.67045 0.0
C1344 C 0.84585 0.06182 0.65581 0.0
C1345 C 0.83198 0.07189 0.6779 0.0
H1346 H 0.84821 0.01741 0.63471 0.0
H1347 H 0.86414 0.08341 0.64162 0.0
S1348 S 0.76623 1.00644 0.72935 0.0
N1349 N 0.77494 0.97893 0.71001 0.0
N1350 N 0.79093 0.04978 0.71666 0.0
C1351 C 0.80786 0.04323 0.69568 0.0
C1352 C 0.79906 1.0049 0.69198 0.0
C1353 C 0.49355 0.34917 0.68004 0.0
C1354 C 0.50259 0.36601 0.70473 0.0
C1355 C 0.46426 0.31075 0.67673 0.0
C1356 C 0.44252 0.28738 0.69797 0.0
H1357 H 0.50888 0.36597 0.66302 0.0
H1358 H 0.45854 0.2995 0.65721 0.0
S1359 S 0.45571 0.318 0.76692 0.0
N1360 N 0.48803 0.35662 0.75082 0.0
N1361 N 0.43324 0.28442 0.74489 0.0
C1362 C 0.45171 0.30392 0.72288 0.0
C1363 C 0.4816 0.34313 0.72617 0.0
C1364 C 0.71654 0.17809 0.70423 0.0
C1365 C 0.68237 0.14244 0.70952 0.0
C1366 C 0.75503 0.18242 0.70373 0.0
C1367 C 0.76076 0.15109 0.70808 0.0
H1368 H 0.71337 0.20262 0.69978 0.0
H1369 H 0.78031 0.21034 0.69964 0.0
S1370 S 0.68198 0.05254 0.72496 0.0
N1371 N 0.65766 0.07597 0.72099 0.0
N1372 N 0.72935 0.08404 0.71981 0.0
C1373 C 0.72711 0.11586 0.71456 0.0
C1374 C 0.68814 0.11148 0.7152 0.0
C1375 C 0.90619 0.55373 0.68833 0.0
C1376 C 0.90372 0.53901 0.71345 0.0
C1377 C 0.8949 0.58105 0.68343 0.0
C1378 C 0.88066 0.59469 0.70338 0.0
H1379 H 0.91747 0.54444 0.67238 0.0
H1380 H 0.89856 0.59238 0.664 0.0
S1381 S 0.8695 0.56616 0.77272 0.0
N1382 N 0.88732 0.5411 0.75874 0.0
N1383 N 0.86496 0.59168 0.74931 0.0
C1384 C 0.8784 0.58054 0.72864 0.0
C1385 C 0.89018 0.55289 0.73371 0.0
C1386 C 0.48704 0.92731 0.22464 0.0
C1387 C 0.47457 0.94194 0.24517 0.0
C1388 C 0.50103 0.94727 0.20096 0.0
C1389 C 0.50351 0.98284 0.19699 0.0
H1390 H 0.48638 0.90039 0.227 0.0
H1391 H 0.51142 0.93549 0.18605 0.0
S1392 S 0.4732 0.03306 0.2439 0.0
N1393 N 0.46481 0.99393 0.25942 0.0
N1394 N 0.49048 0.03092 0.21503 0.0
C1395 C 0.49005 0.9972 0.21702 0.0
C1396 C 0.47573 0.97691 0.24103 0.0
C1397 C 0.06467 0.5453 0.24182 0.0
C1398 C 0.09475 0.53568 0.24364 0.0
C1399 C 0.04139 0.53718 0.21952 0.0
C1400 C 0.04698 0.51888 0.19808 0.0
H1401 H 0.05852 0.55868 0.25796 0.0
H1402 H 1.01873 0.54533 0.2191 0.0
S1403 S 0.12242 0.4884 0.19266 0.0
N1404 N 0.12998 0.50817 0.2216 0.0
N1405 N 0.08496 0.49133 0.18008 0.0
C1406 C 0.07719 0.50935 0.19949 0.0
C1407 C 0.10123 0.51798 0.22218 0.0
C1408 C 0.51597 0.58526 0.2238 0.0
C1409 C 0.50224 0.55911 0.2447 0.0
C1410 C 0.52815 0.57672 0.20026 0.0
C1411 C 0.52753 0.54193 0.19689 0.0
H1412 H 0.51789 0.61277 0.22582 0.0
H1413 H 0.53964 0.59808 0.18498 0.0
S1414 S 0.49241 0.463 0.24493 0.0
N1415 N 0.48744 0.49637 0.25995 0.0
N1416 N 0.51011 0.4804 0.21579 0.0
C1417 C 0.51267 0.51509 0.21727 0.0
C1418 C 0.50005 0.52363 0.24113 0.0
C1419 C 0.94607 0.46851 0.82448 0.0
C1420 C 0.95563 0.45185 0.80379 0.0
C1421 C 0.97006 0.48172 0.84662 0.0
C1422 C 1.00459 0.47885 0.84891 0.0
H1423 H 0.92 0.47166 0.82348 0.0
H1424 H 0.96206 0.49522 0.86174 0.0
S1425 S 0.04194 0.43611 0.80074 0.0
N1426 N 1.00194 0.43292 0.7872 0.0
N1427 N 0.04587 0.45612 0.82925 0.0
C1428 C 1.01386 0.46127 0.8287 0.0
C1429 C 0.98967 0.44813 0.80608 0.0
C1430 C 0.53461 0.4763 0.80227 0.0
C1431 C 0.57579 0.4905 0.79975 0.0
C1432 C 0.51812 0.48119 0.82513 0.0
C1433 C 0.542 0.5008 0.84654 0.0
H1434 H 0.51486 0.46194 0.7862 0.0
H1435 H 0.48624 0.46973 0.82591 0.0
S1436 S 0.65143 0.54211 0.85058 0.0
N1437 N 0.63995 0.52323 0.82132 0.0
N1438 N 0.60911 0.53388 0.86394 0.0
C1439 C 0.58318 0.51455 0.84457 0.0
C1440 C 0.60001 0.50923 0.82126 0.0
C1441 C 0.49927 0.05113 0.80066 0.0
C1442 C 0.53697 0.0839 0.79738 0.0
C1443 C 0.48861 0.02968 0.82372 0.0
C1444 C 0.51521 0.03954 0.84466 0.0
H1445 H 0.4778 0.04144 0.78507 0.0
H1446 H 0.45911 1.00483 0.82503 0.0
S1447 S 0.61721 0.12371 0.84667 0.0
N1448 N 0.6004 0.12642 0.81781 0.0
N1449 N 0.58105 0.08502 0.86065 0.0
C1450 C 0.55287 0.0726 0.84188 0.0
C1451 C 0.56363 0.09482 0.81838 0.0
C1452 C 0.11326 0.26089 0.55696 0.0
C1453 C 0.13873 0.26591 0.57792 0.0
C1454 C 0.12775 0.28242 0.53386 0.0
C1455 C 0.16826 0.31002 0.53088 0.0
H1456 H 0.08177 0.24034 0.55847 0.0
H1457 H 0.10688 0.27833 0.51861 0.0
S1458 S 0.24776 0.33329 0.57925 0.0
N1459 N 0.20677 0.3004 0.5937 0.0
N1460 N 0.23394 0.3396 0.55028 0.0
C1461 C 0.19417 0.31445 0.55134 0.0
C1462 C 0.17947 0.29276 0.5748 0.0
C1463 C 0.73742 0.8815 0.57373 0.0
C1464 C 0.76657 0.87063 0.57556 0.0
C1465 C 0.71435 0.87423 0.55143 0.0
C1466 C 0.719 0.85536 0.52998 0.0
H1467 H 0.7318 0.89526 0.58987 0.0
H1468 H 0.69256 0.88348 0.55104 0.0
S1469 S 0.79154 0.8213 0.52458 0.0
N1470 N 0.79981 0.84115 0.55352 0.0
N1471 N 0.75501 0.82576 0.51199 0.0
C1472 C 0.74817 0.84444 0.5314 0.0
C1473 C 0.77211 0.8523 0.5541 0.0
C1474 C 0.14926 0.87731 0.56084 0.0
C1475 C 0.17486 0.89374 0.58216 0.0
C1476 C 0.16231 0.86797 0.53794 0.0
C1477 C 0.2014 0.87454 0.53553 0.0
H1478 H 0.11905 0.87206 0.56174 0.0
H1479 H 0.14147 0.85498 0.52218 0.0
S1480 S 0.28028 0.91721 0.58556 0.0
N1481 N 0.241 0.91541 0.59939 0.0
N1482 N 0.26592 0.89973 0.55618 0.0
C1483 C 0.22733 0.89128 0.55662 0.0
C1484 C 0.21399 0.90037 0.57993 0.0
C1485 C 0.6512 0.77783 0.1385 0.0
C1486 C 0.6193 0.78475 0.13572 0.0
C1487 C 0.67444 0.78855 0.16091 0.0
C1488 C 0.66718 0.8071 0.18146 0.0
H1489 H 0.65879 0.76452 0.12303 0.0
H1490 H 0.6984 0.78222 0.1621 0.0
S1491 S 0.58691 0.83155 0.18412 0.0
N1492 N 0.58066 0.81007 0.15592 0.0
N1493 N 0.62584 0.83224 0.1975 0.0
C1494 C 0.63529 0.81415 0.17904 0.0
C1495 C 0.61115 0.80266 0.15629 0.0
C1496 C 0.23685 0.80913 0.15789 0.0
C1497 C 0.24821 0.83507 0.13692 0.0
C1498 C 0.22155 0.81512 0.18106 0.0
C1499 C 0.21663 0.84708 0.18408 0.0
H1500 H 0.23944 0.78377 0.15627 0.0
H1501 H 0.21222 0.7939 0.19637 0.0
S1502 S 0.24336 0.92442 0.13567 0.0
N1503 N 0.25429 0.89449 0.12114 0.0
N1504 N 0.22634 0.90601 0.16471 0.0
C1505 C 0.22894 0.87376 0.1636 0.0
C1506 C 0.24454 0.86773 0.14006 0.0
C1507 C 0.23068 0.42748 0.15204 0.0
C1508 C 0.20385 0.41735 0.13117 0.0
C1509 C 0.22043 0.40535 0.17501 0.0
C1510 C 0.18296 0.37211 0.17803 0.0
H1511 H 0.25981 0.45279 0.15067 0.0
H1512 H 0.24235 0.41385 0.19025 0.0
S1513 S 0.10147 0.33345 0.1296 0.0
N1514 N 0.13817 0.37119 0.11521 0.0
N1515 N 0.11824 0.33145 0.15858 0.0
C1516 C 0.15562 0.36224 0.15754 0.0
C1517 C 0.1662 0.38429 0.13413 0.0
C1518 C 0.80573 0.6352 0.90855 0.0
C1519 C 0.80311 0.59945 0.91195 0.0
C1520 C 0.82101 0.65644 0.88558 0.0
C1521 C 0.83407 0.64281 0.86483 0.0
H1522 H 0.79693 0.64742 0.9241 0.0
H1523 H 0.82317 0.68415 0.88418 0.0
S1524 S 0.83136 0.54987 0.8631 0.0
N1525 N 0.81305 0.55047 0.89196 0.0
N1526 N 0.84206 0.59059 0.84887 0.0
C1527 C 0.83048 0.60659 0.86759 0.0
C1528 C 0.8151 0.58498 0.89112 0.0
C1529 C 0.40118 0.21112 0.90535 0.0
C1530 C 0.43145 0.20183 0.90761 0.0
C1531 C 0.37833 0.20275 0.88282 0.0
C1532 C 0.38459 0.18457 0.86157 0.0
H1533 H 0.39443 0.22427 0.92135 0.0
H1534 H 0.35535 0.21046 0.8821 0.0
S1535 S 0.46119 0.15549 0.85716 0.0
N1536 N 0.46783 0.17508 0.88611 0.0
N1537 N 0.42374 0.15795 0.84411 0.0
C1538 C 0.4152 0.17564 0.86335 0.0
C1539 C 0.43875 0.18445 0.88629 0.0
C1540 C 0.84719 0.25361 0.89029 0.0
C1541 C 0.83204 0.22813 0.91152 0.0
C1542 C 0.8595 0.24382 0.86734 0.0
C1543 C 0.85758 0.20832 0.86483 0.0
H1544 H 0.85005 0.28161 0.89156 0.0
H1545 H 0.872 0.26474 0.85182 0.0
S1546 S 0.81825 0.13056 0.91403 0.0
N1547 N 0.81436 0.16521 0.92804 0.0
N1548 N 0.8373 0.14678 0.88493 0.0
C1549 C 0.84134 0.18213 0.88557 0.0
C1550 C 0.82856 0.19199 0.90886 0.0
C1551 C 0.33418 0.12668 0.47856 0.0
C1552 C 0.30071 0.13113 0.47534 0.0
C1553 C 0.35979 0.14267 0.49971 0.0
C1554 C 0.35354 0.16436 0.51851 0.0
H1555 H 0.34169 0.11194 0.46408 0.0
H1556 H 0.38532 0.13869 0.50099 0.0
S1557 S 0.26814 0.18164 0.52052 0.0
N1558 N 0.26042 0.15552 0.49433 0.0
N1559 N 0.30997 0.18779 0.53311 0.0
C1560 C 0.31931 0.16781 0.51613 0.0
C1561 C 0.29271 0.15083 0.49478 0.0
C1562 C 0.87211 0.14241 0.47043 0.0
C1563 C 0.91336 0.15709 0.46775 0.0
C1564 C 0.8557 0.14786 0.49313 0.0
C1565 C 0.8797 0.16848 0.51425 0.0
H1566 H 0.85223 0.12722 0.45458 0.0
H1567 H 0.82377 0.13603 0.49401 0.0
S1568 S 0.98939 0.21148 0.51781 0.0
N1569 N 0.97779 0.19154 0.48886 0.0
N1570 N 0.94701 0.20301 0.53122 0.0
C1571 C 0.92096 0.18272 0.51214 0.0
C1572 C 0.93774 0.17692 0.48897 0.0
C1573 C 0.83624 0.71922 0.46911 0.0
C1574 C 0.87433 0.75152 0.46593 0.0
C1575 C 0.82494 0.69784 0.49214 0.0
C1576 C 0.85131 0.70713 0.51313 0.0
H1577 H 0.81486 0.70993 0.45348 0.0
H1578 H 0.79506 0.67356 0.4934 0.0
S1579 S 0.95448 0.78942 0.51527 0.0
N1580 N 0.93812 0.79275 0.48639 0.0
N1581 N 0.91757 0.75122 0.52922 0.0
C1582 C 0.88951 0.7395 0.51041 0.0
C1583 C 0.90091 0.76178 0.48693 0.0
loop_
_geom_bond_atom_site_label_1
_geom_bond_atom_site_label_2
_geom_bond_distance
_geom_bond_site_symmetry_2
_ccdc_geom_bond_type
H0 C7 0.929 . S
H1 C10 0.930 . S
H2 C12 0.929 . S
H3 C4 0.969 . S
C4 H3 0.969 . S
C4 O5 1.550 . S
C4 H6 0.973 . S
O5 C4 1.550 . S
O5 C11 1.412 . S
H6 C4 0.973 . S
C7 H0 0.929 . S
C7 C8 1.400 . S
C7 C9 1.364 . S
C8 C7 1.400 . S
C8 C12 1.377 . S
C9 C7 1.364 . S
C9 C10 1.374 . S
C10 H1 0.930 . S
C10 C9 1.374 . S
C10 C11 1.383 . S
C11 O5 1.412 . S
C11 C10 1.383 . S
C11 C12 1.394 . S
C12 H2 0.929 . S
C12 C8 1.377 . S
C12 C11 1.394 . S
H13 C20 0.929 . S
H14 C23 0.930 . S
H15 C25 0.929 . S
H16 C17 0.969 . S
C17 H16 0.969 . S
C17 O18 1.550 . S
C17 H19 0.973 . S
O18 C17 1.550 . S
O18 C24 1.412 . S
H19 C17 0.973 . S
C20 H13 0.929 . S
C20 C21 1.400 . S
C20 C22 1.364 . S
C21 C20 1.400 . S
C21 C25 1.377 . S
C22 C20 1.364 . S
C22 C23 1.374 . S
C23 H14 0.930 . S
C23 C22 1.374 . S
C23 C24 1.383 . S
C24 O18 1.412 . S
C24 C23 1.383 . S
C24 C25 1.394 . S
C25 H15 0.929 . S
C25 C21 1.377 . S
C25 C24 1.394 . S
H26 C33 0.929 . S
H27 C36 0.930 . S
H28 C38 0.929 . S
H29 C30 0.969 . S
C30 H29 0.969 . S
C30 O31 1.550 . S
C30 H32 0.973 . S
O31 C30 1.550 . S
O31 C37 1.412 . S
H32 C30 0.973 . S
C33 H26 0.929 . S
C33 C34 1.400 . S
C33 C35 1.364 . S
C34 C33 1.400 . S
C34 C38 1.377 . S
C35 C33 1.364 . S
C35 C36 1.374 . S
C36 H27 0.930 . S
C36 C35 1.374 . S
C36 C37 1.383 . S
C37 O31 1.412 . S
C37 C36 1.383 . S
C37 C38 1.394 . S
C38 H28 0.929 . S
C38 C34 1.377 . S
C38 C37 1.394 . S
H39 C46 0.929 . S
H40 C49 0.930 . S
H41 C51 0.929 . S
H42 C43 0.969 . S
C43 H42 0.969 . S
C43 O44 1.550 . S
C43 H45 0.973 . S
O44 C43 1.550 . S
O44 C50 1.412 . S
H45 C43 0.973 . S
C46 H39 0.929 . S
C46 C47 1.400 . S
C46 C48 1.364 . S
C47 C46 1.400 . S
C47 C51 1.377 . S
C48 C46 1.364 . S
C48 C49 1.374 . S
C49 H40 0.930 . S
C49 C48 1.374 . S
C49 C50 1.383 . S
C50 O44 1.412 . S
C50 C49 1.383 . S
C50 C51 1.394 . S
C51 H41 0.929 . S
C51 C47 1.377 . S
C51 C50 1.394 . S
H52 C59 0.929 . S
H53 C62 0.930 . S
H54 C64 0.929 . S
H55 C56 0.969 . S
C56 H55 0.969 . S
C56 O57 1.550 . S
C56 H58 0.973 . S
O57 C56 1.550 . S
O57 C63 1.412 . S
H58 C56 0.973 . S
C59 H52 0.929 . S
C59 C60 1.400 . S
C59 C61 1.364 . S
C60 C59 1.400 . S
C60 C64 1.377 . S
C61 C59 1.364 . S
C61 C62 1.374 . S
C62 H53 0.930 . S
C62 C61 1.374 . S
C62 C63 1.383 . S
C63 O57 1.412 . S
C63 C62 1.383 . S
C63 C64 1.394 . S
C64 H54 0.929 . S
C64 C60 1.377 . S
C64 C63 1.394 . S
H65 C72 0.929 . S
H66 C75 0.930 . S
H67 C77 0.929 . S
H68 C69 0.969 . S
C69 H68 0.969 . S
C69 O70 1.550 . S
C69 H71 0.973 . S
O70 C69 1.550 . S
O70 C76 1.412 . S
H71 C69 0.973 . S
C72 H65 0.929 . S
C72 C73 1.400 . S
C72 C74 1.364 . S
C73 C72 1.400 . S
C73 C77 1.377 . S
C74 C72 1.364 . S
C74 C75 1.374 . S
C75 H66 0.930 . S
C75 C74 1.374 . S
C75 C76 1.383 . S
C76 O70 1.412 . S
C76 C75 1.383 . S
C76 C77 1.394 . S
C77 H67 0.929 . S
C77 C73 1.377 . S
C77 C76 1.394 . S
H78 C85 0.929 . S
H79 C88 0.930 . S
H80 C90 0.929 . S
H81 C82 0.969 . S
C82 H81 0.969 . S
C82 O83 1.550 . S
C82 H84 0.973 . S
O83 C82 1.550 . S
O83 C89 1.412 . S
H84 C82 0.973 . S
C85 H78 0.929 . S
C85 C86 1.400 . S
C85 C87 1.364 . S
C86 C85 1.400 . S
C86 C90 1.377 . S
C87 C85 1.364 . S
C87 C88 1.374 . S
C88 H79 0.930 . S
C88 C87 1.374 . S
C88 C89 1.383 . S
C89 O83 1.412 . S
C89 C88 1.383 . S
C89 C90 1.394 . S
C90 H80 0.929 . S
C90 C86 1.377 . S
C90 C89 1.394 . S
H91 C98 0.929 . S
H92 C101 0.930 . S
H93 C103 0.929 . S
H94 C95 0.969 . S
C95 H94 0.969 . S
C95 O96 1.550 . S
C95 H97 0.973 . S
O96 C95 1.550 . S
O96 C102 1.412 . S
H97 C95 0.973 . S
C98 H91 0.929 . S
C98 C99 1.400 . S
C98 C100 1.364 . S
C99 C98 1.400 . S
C99 C103 1.377 . S
C100 C98 1.364 . S
C100 C101 1.374 . S
C101 H92 0.930 . S
C101 C100 1.374 . S
C101 C102 1.383 . S
C102 O96 1.412 . S
C102 C101 1.383 . S
C102 C103 1.394 . S
C103 H93 0.929 . S
C103 C99 1.377 . S
C103 C102 1.394 . S
H104 C111 0.929 . S
H105 C114 0.930 . S
H106 C116 0.929 . S
H107 C108 0.969 . S
C108 H107 0.969 . S
C108 O109 1.550 . S
C108 H110 0.973 . S
O109 C108 1.550 . S
O109 C115 1.412 . S
H110 C108 0.973 . S
C111 H104 0.929 . S
C111 C112 1.400 . S
C111 C113 1.364 . S
C112 C111 1.400 . S
C112 C116 1.377 . S
C113 C111 1.364 . S
C113 C114 1.374 . S
C114 H105 0.930 . S
C114 C113 1.374 . S
C114 C115 1.383 . S
C115 O109 1.412 . S
C115 C114 1.383 . S
C115 C116 1.394 . S
C116 H106 0.929 . S
C116 C112 1.377 . S
C116 C115 1.394 . S
H117 C124 0.929 . S
H118 C127 0.930 . S
H119 C129 0.929 . S
H120 C121 0.969 . S
C121 H120 0.969 . S
C121 O122 1.550 . S
C121 H123 0.973 . S
O122 C121 1.550 . S
O122 C128 1.412 . S
H123 C121 0.973 . S
C124 H117 0.929 . S
C124 C125 1.400 . S
C124 C126 1.364 . S
C125 C124 1.400 . S
C125 C129 1.377 . S
C126 C124 1.364 . S
C126 C127 1.374 . S
C127 H118 0.930 . S
C127 C126 1.374 . S
C127 C128 1.383 . S
C128 O122 1.412 . S
C128 C127 1.383 . S
C128 C129 1.394 . S
C129 H119 0.929 . S
C129 C125 1.377 . S
C129 C128 1.394 . S
H130 C137 0.929 . S
H131 C140 0.930 . S
H132 C142 0.929 . S
H133 C134 0.969 . S
C134 H133 0.969 . S
C134 O135 1.550 . S
C134 H136 0.973 . S
O135 C134 1.550 . S
O135 C141 1.412 . S
H136 C134 0.973 . S
C137 H130 0.929 . S
C137 C138 1.400 . S
C137 C139 1.364 . S
C138 C137 1.400 . S
C138 C142 1.377 . S
C139 C137 1.364 . S
C139 C140 1.374 . S
C140 H131 0.930 . S
C140 C139 1.374 . S
C140 C141 1.383 . S
C141 O135 1.412 . S
C141 C140 1.383 . S
C141 C142 1.394 . S
C142 H132 0.929 . S
C142 C138 1.377 . S
C142 C141 1.394 . S
H143 C150 0.929 . S
H144 C153 0.930 . S
H145 C155 0.929 . S
H146 C147 0.969 . S
C147 H146 0.969 . S
C147 O148 1.550 . S
C147 H149 0.973 . S
O148 C147 1.550 . S
O148 C154 1.412 . S
H149 C147 0.973 . S
C150 H143 0.929 . S
C150 C151 1.400 . S
C150 C152 1.364 . S
C151 C150 1.400 . S
C151 C155 1.377 . S
C152 C150 1.364 . S
C152 C153 1.374 . S
C153 H144 0.930 . S
C153 C152 1.374 . S
C153 C154 1.383 . S
C154 O148 1.412 . S
C154 C153 1.383 . S
C154 C155 1.394 . S
C155 H145 0.929 . S
C155 C151 1.377 . S
C155 C154 1.394 . S
H156 C163 0.929 . S
H157 C166 0.930 . S
H158 C168 0.929 . S
H159 C160 0.969 . S
C160 H159 0.969 . S
C160 O161 1.550 . S
C160 H162 0.973 . S
O161 C160 1.550 . S
O161 C167 1.412 . S
H162 C160 0.973 . S
C163 H156 0.929 . S
C163 C164 1.400 . S
C163 C165 1.364 . S
C164 C163 1.400 . S
C164 C168 1.377 . S
C165 C163 1.364 . S
C165 C166 1.374 . S
C166 H157 0.930 . S
C166 C165 1.374 . S
C166 C167 1.383 . S
C167 O161 1.412 . S
C167 C166 1.383 . S
C167 C168 1.394 . S
C168 H158 0.929 . S
C168 C164 1.377 . S
C168 C167 1.394 . S
H169 C176 0.929 . S
H170 C179 0.930 . S
H171 C181 0.929 . S
H172 C173 0.969 . S
C173 H172 0.969 . S
C173 O174 1.550 . S
C173 H175 0.973 . S
O174 C173 1.550 . S
O174 C180 1.412 . S
H175 C173 0.973 . S
C176 H169 0.929 . S
C176 C177 1.400 . S
C176 C178 1.364 . S
C177 C176 1.400 . S
C177 C181 1.377 . S
C178 C176 1.364 . S
C178 C179 1.374 . S
C179 H170 0.930 . S
C179 C178 1.374 . S
C179 C180 1.383 . S
C180 O174 1.412 . S
C180 C179 1.383 . S
C180 C181 1.394 . S
C181 H171 0.929 . S
C181 C177 1.377 . S
C181 C180 1.394 . S
H182 C189 0.929 . S
H183 C192 0.930 . S
H184 C194 0.929 . S
H185 C186 0.969 . S
C186 H185 0.969 . S
C186 O187 1.550 . S
C186 H188 0.973 . S
O187 C186 1.550 . S
O187 C193 1.412 . S
H188 C186 0.973 . S
C189 H182 0.929 . S
C189 C190 1.400 . S
C189 C191 1.364 . S
C190 C189 1.400 . S
C190 C194 1.377 . S
C191 C189 1.364 . S
C191 C192 1.374 . S
C192 H183 0.930 . S
C192 C191 1.374 . S
C192 C193 1.383 . S
C193 O187 1.412 . S
C193 C192 1.383 . S
C193 C194 1.394 . S
C194 H184 0.929 . S
C194 C190 1.377 . S
C194 C193 1.394 . S
H195 C202 0.929 . S
H196 C205 0.930 . S
H197 C207 0.929 . S
H198 C199 0.969 . S
C199 H198 0.969 . S
C199 O200 1.550 . S
C199 H201 0.973 . S
O200 C199 1.550 . S
O200 C206 1.412 . S
H201 C199 0.973 . S
C202 H195 0.929 . S
C202 C203 1.400 . S
C202 C204 1.364 . S
C203 C202 1.400 . S
C203 C207 1.377 . S
C204 C202 1.364 . S
C204 C205 1.374 . S
C205 H196 0.930 . S
C205 C204 1.374 . S
C205 C206 1.383 . S
C206 O200 1.412 . S
C206 C205 1.383 . S
C206 C207 1.394 . S
C207 H197 0.929 . S
C207 C203 1.377 . S
C207 C206 1.394 . S
H208 C215 0.929 . S
H209 C218 0.930 . S
H210 C220 0.929 . S
H211 C212 0.969 . S
C212 H211 0.969 . S
C212 O213 1.550 . S
C212 H214 0.973 . S
O213 C212 1.550 . S
O213 C219 1.412 . S
H214 C212 0.973 . S
C215 H208 0.929 . S
C215 C216 1.400 . S
C215 C217 1.364 . S
C216 C215 1.400 . S
C216 C220 1.377 . S
C217 C215 1.364 . S
C217 C218 1.374 . S
C218 H209 0.930 . S
C218 C217 1.374 . S
C218 C219 1.383 . S
C219 O213 1.412 . S
C219 C218 1.383 . S
C219 C220 1.394 . S
C220 H210 0.929 . S
C220 C216 1.377 . S
C220 C219 1.394 . S
H221 C228 0.929 . S
H222 C231 0.930 . S
H223 C233 0.929 . S
H224 C225 0.969 . S
C225 H224 0.969 . S
C225 O226 1.550 . S
C225 H227 0.973 . S
O226 C225 1.550 . S
O226 C232 1.412 . S
H227 C225 0.973 . S
C228 H221 0.929 . S
C228 C229 1.400 . S
C228 C230 1.364 . S
C229 C228 1.400 . S
C229 C233 1.377 . S
C230 C228 1.364 . S
C230 C231 1.374 . S
C231 H222 0.930 . S
C231 C230 1.374 . S
C231 C232 1.383 . S
C232 O226 1.412 . S
C232 C231 1.383 . S
C232 C233 1.394 . S
C233 H223 0.929 . S
C233 C229 1.377 . S
C233 C232 1.394 . S
Tb234 N265 2.660 . S
Tb234 N272 2.600 . S
Tb234 O278 2.546 . S
Tb234 O279 2.610 1_566 S
Tb234 O281 2.320 1_565 S
Tb234 O282 2.552 1_565 S
Tb234 O283 2.413 1_565 S
Tb234 O285 2.362 1_556 S
Tb234 O286 2.421 . S
Tb234 C298 2.833 . S
C235 C238 1.432 . S
C235 C239 1.414 . S
C235 N242 1.359 . S
C236 C238 1.417 . S
C236 C240 1.432 . S
C236 C248 1.410 . S
C237 C239 1.444 . S
C237 C240 1.317 . S
C237 H260 0.929 . S
C238 C235 1.432 . S
C238 C236 1.417 . S
C238 N246 1.360 . S
C239 C235 1.414 . S
C239 C237 1.444 . S
C239 C244 1.385 . S
C240 C236 1.432 . S
C240 C237 1.317 . S
C240 H252 0.930 . S
C241 C243 1.392 . S
C241 C244 1.370 . S
C241 H253 0.931 . S
N242 C235 1.359 . S
N242 C243 1.327 . S
N242 Tb245 2.600 . S
C243 C241 1.392 . S
C243 N242 1.327 . S
C243 H250 0.930 . S
C244 C239 1.385 . S
C244 C241 1.370 . S
C244 H263 0.930 . S
Tb245 N242 2.600 . S
Tb245 N246 2.660 . S
Tb245 O279 2.362 . S
Tb245 O280 2.421 . S
Tb245 O284 2.546 . S
Tb245 O285 2.610 1_545 S
Tb245 O287 2.320 1_545 S
Tb245 O288 2.552 1_545 S
Tb245 O289 2.413 1_545 S
Tb245 C309 2.833 . S
N246 C238 1.360 . S
N246 Tb245 2.660 . S
N246 C247 1.305 . S
C247 N246 1.305 . S
C247 C249 1.407 . S
C247 H254 0.930 . S
C248 C236 1.410 . S
C248 C249 1.345 . S
C248 H256 0.930 . S
C249 C247 1.407 . S
C249 C248 1.345 . S
C249 H251 0.930 . S
H250 C243 0.930 . S
H251 C249 0.930 . S
H252 C240 0.930 . S
H253 C241 0.931 . S
H254 C247 0.930 . S
H255 C269 0.930 . S
H256 C248 0.930 . S
H257 C275 0.930 . S
H258 C266 0.930 . S
H259 C273 0.931 . S
H260 C237 0.929 . S
H261 C267 0.930 . S
H262 C300 0.930 . S
H263 C244 0.930 . S
H264 C299 0.929 . S
N265 Tb234 2.660 . S
N265 C266 1.305 . S
N265 C270 1.360 . S
C266 H258 0.930 . S
C266 N265 1.305 . S
C266 C269 1.407 . S
C267 H261 0.930 . S
C267 C268 1.410 . S
C267 C269 1.345 . S
C268 C267 1.410 . S
C268 C270 1.417 . S
C268 C300 1.432 . S
C269 H255 0.930 . S
C269 C266 1.407 . S
C269 C267 1.345 . S
C270 N265 1.360 . S
C270 C268 1.417 . S
C270 C274 1.432 . S
H271 C276 0.930 . S
N272 Tb234 2.600 . S
N272 C274 1.359 . S
N272 C275 1.327 . S
C273 H259 0.931 . S
C273 C275 1.392 . S
C273 C276 1.370 . S
C274 C270 1.432 . S
C274 N272 1.359 . S
C274 C277 1.414 . S
C275 H257 0.930 . S
C275 N272 1.327 . S
C275 C273 1.392 . S
C276 H271 0.930 . S
C276 C273 1.370 . S
C276 C277 1.385 . S
C277 C274 1.414 . S
C277 C276 1.385 . S
C277 C299 1.444 . S
O278 Tb234 2.546 . S
O278 C298 1.251 . S
O279 Tb234 2.610 1_544 S
O279 Tb245 2.362 . S
O279 C290 1.283 1_554 S
O280 Tb245 2.421 . S
O280 C297 1.262 1_554 S
O281 Tb234 2.320 1_545 S
O281 C297 1.260 . S
O282 Tb234 2.552 1_545 S
O282 C290 1.243 . S
O283 Tb234 2.413 1_545 S
O283 C298 1.256 1_545 S
O284 Tb245 2.546 . S
O284 C309 1.251 . S
O285 Tb234 2.362 1_554 S
O285 Tb245 2.610 1_565 S
O285 C301 1.283 . S
O286 Tb234 2.421 . S
O286 C308 1.262 1_556 S
O287 Tb245 2.320 1_565 S
O287 C308 1.260 . S
O288 Tb245 2.552 1_565 S
O288 C301 1.243 . S
O289 Tb245 2.413 1_565 S
O289 C309 1.256 1_565 S
C290 O279 1.283 1_556 S
C290 O282 1.243 . S
C291 C293 1.382 . S
C291 C295 1.393 1_545 S
C291 C298 1.500 1_545 S
C292 C293 1.400 . S
C292 C294 1.384 . S
C293 C291 1.382 . S
C293 C292 1.400 . S
C293 H310 0.930 . S
C294 C292 1.384 . S
C294 C296 1.392 1_545 S
C294 H311 0.931 . S
C295 C291 1.393 1_565 S
C295 C296 1.401 . S
C295 H312 0.930 . S
C296 C294 1.392 1_565 S
C296 C295 1.401 . S
C296 H313 0.930 . S
C297 O280 1.262 1_556 S
C297 O281 1.260 . S
C298 Tb234 2.833 . S
C298 O278 1.251 . S
C298 O283 1.256 1_565 S
C298 C291 1.500 1_565 S
C299 H264 0.929 . S
C299 C277 1.444 . S
C299 C300 1.317 . S
C300 H262 0.930 . S
C300 C268 1.432 . S
C300 C299 1.317 . S
C301 O285 1.283 . S
C301 O288 1.243 . S
C302 C303 1.358 1_545 S
C302 C306 1.414 . S
C302 C309 1.504 . S
C303 C302 1.358 1_565 S
C303 C304 1.400 . S
C303 H314 0.930 . S
C304 C303 1.400 . S
C304 C305 1.384 . S
C305 C304 1.384 . S
C305 C307 1.392 1_565 S
C305 H315 0.931 . S
C306 C302 1.414 . S
C306 C307 1.401 . S
C306 H316 0.930 . S
C307 C305 1.392 1_545 S
C307 C306 1.401 . S
C307 H317 0.930 . S
C308 O286 1.262 1_554 S
C308 O287 1.260 . S
C309 Tb245 2.833 . S
C309 O284 1.251 . S
C309 O289 1.256 1_545 S
C309 C302 1.504 . S
H310 C293 0.930 . S
H311 C294 0.931 . S
H312 C295 0.930 . S
H313 C296 0.930 . S
H314 C303 0.930 . S
H315 C305 0.931 . S
H316 C306 0.930 . S
H317 C307 0.930 . S
Tb318 N349 2.660 . S
Tb318 N356 2.600 . S
Tb318 O362 2.546 . S
Tb318 O363 2.610 1_456 S
Tb318 O365 2.320 1_455 S
Tb318 O366 2.552 1_455 S
Tb318 O367 2.413 1_455 S
Tb318 O369 2.362 1_556 S
Tb318 O370 2.421 . S
Tb318 C382 2.833 . S
C319 C322 1.432 . S
C319 C323 1.414 . S
C319 N326 1.359 . S
C320 C322 1.417 . S
C320 C324 1.432 . S
C320 C332 1.410 . S
C321 C323 1.444 . S
C321 C324 1.317 . S
C321 H344 0.929 . S
C322 C319 1.432 . S
C322 C320 1.417 . S
C322 N330 1.360 . S
C323 C319 1.414 . S
C323 C321 1.444 . S
C323 C328 1.385 . S
C324 C320 1.432 . S
C324 C321 1.317 . S
C324 H336 0.930 . S
C325 C327 1.392 . S
C325 C328 1.370 . S
C325 H337 0.931 . S
N326 C319 1.359 . S
N326 C327 1.327 . S
N326 Tb329 2.600 . S
C327 C325 1.392 . S
C327 N326 1.327 . S
C327 H334 0.930 . S
C328 C323 1.385 . S
C328 C325 1.370 . S
C328 H347 0.930 . S
Tb329 N326 2.600 . S
Tb329 N330 2.660 . S
Tb329 O363 2.362 . S
Tb329 O364 2.421 . S
Tb329 O368 2.546 . S
Tb329 O369 2.610 1_655 S
Tb329 O371 2.320 1_655 S
Tb329 O372 2.552 1_655 S
Tb329 O373 2.413 1_655 S
Tb329 C393 2.833 . S
N330 C322 1.360 . S
N330 Tb329 2.660 . S
N330 C331 1.305 . S
C331 N330 1.305 . S
C331 C333 1.407 . S
C331 H338 0.930 . S
C332 C320 1.410 . S
C332 C333 1.345 . S
C332 H340 0.930 . S
C333 C331 1.407 . S
C333 C332 1.345 . S
C333 H335 0.930 . S
H334 C327 0.930 . S
H335 C333 0.930 . S
H336 C324 0.930 . S
H337 C325 0.931 . S
H338 C331 0.930 . S
H339 C353 0.930 . S
H340 C332 0.930 . S
H341 C359 0.930 . S
H342 C350 0.930 . S
H343 C357 0.931 . S
H344 C321 0.929 . S
H345 C351 0.930 . S
H346 C384 0.930 . S
H347 C328 0.930 . S
H348 C383 0.929 . S
N349 Tb318 2.660 . S
N349 C350 1.305 . S
N349 C354 1.360 . S
C350 H342 0.930 . S
C350 N349 1.305 . S
C350 C353 1.407 . S
C351 H345 0.930 . S
C351 C352 1.410 . S
C351 C353 1.345 . S
C352 C351 1.410 . S
C352 C354 1.417 . S
C352 C384 1.432 . S
C353 H339 0.930 . S
C353 C350 1.407 . S
C353 C351 1.345 . S
C354 N349 1.360 . S
C354 C352 1.417 . S
C354 C358 1.432 . S
H355 C360 0.930 . S
N356 Tb318 2.600 . S
N356 C358 1.359 . S
N356 C359 1.327 . S
C357 H343 0.931 . S
C357 C359 1.392 . S
C357 C360 1.370 . S
C358 C354 1.432 . S
C358 N356 1.359 . S
C358 C361 1.414 . S
C359 H341 0.930 . S
C359 N356 1.327 . S
C359 C357 1.392 . S
C360 H355 0.930 . S
C360 C357 1.370 . S
C360 C361 1.385 . S
C361 C358 1.414 . S
C361 C360 1.385 . S
C361 C383 1.444 . S
O362 Tb318 2.546 . S
O362 C382 1.251 . S
O363 Tb318 2.610 1_654 S
O363 Tb329 2.362 . S
O363 C374 1.283 1_554 S
O364 Tb329 2.421 . S
O364 C381 1.262 1_554 S
O365 Tb318 2.320 1_655 S
O365 C381 1.260 . S
O366 Tb318 2.552 1_655 S
O366 C374 1.243 . S
O367 Tb318 2.413 1_655 S
O367 C382 1.256 1_655 S
O368 Tb329 2.546 . S
O368 C393 1.251 . S
O369 Tb318 2.362 1_554 S
O369 Tb329 2.610 1_455 S
O369 C385 1.283 . S
O370 Tb318 2.421 . S
O370 C392 1.262 1_556 S
O371 Tb329 2.320 1_455 S
O371 C392 1.260 . S
O372 Tb329 2.552 1_455 S
O372 C385 1.243 . S
O373 Tb329 2.413 1_455 S
O373 C393 1.256 1_455 S
C374 O363 1.283 1_556 S
C374 O366 1.243 . S
C375 C377 1.382 1_455 S
C375 C379 1.393 . S
C375 C382 1.500 . S
C376 C377 1.400 . S
C376 C378 1.384 . S
C377 C375 1.382 1_655 S
C377 C376 1.400 . S
C377 H394 0.930 . S
C378 C376 1.384 . S
C378 C380 1.392 1_655 S
C378 H395 0.931 . S
C379 C375 1.393 . S
C379 C380 1.401 . S
C379 H396 0.930 . S
C380 C378 1.392 1_455 S
C380 C379 1.401 . S
C380 H397 0.930 . S
C381 O364 1.262 1_556 S
C381 O365 1.260 . S
C382 Tb318 2.833 . S
C382 O362 1.251 . S
C382 O367 1.256 1_455 S
C382 C375 1.500 . S
C383 H348 0.929 . S
C383 C361 1.444 . S
C383 C384 1.317 . S
C384 H346 0.930 . S
C384 C352 1.432 . S
C384 C383 1.317 . S
C385 O369 1.283 . S
C385 O372 1.243 . S
C386 C387 1.382 . S
C386 C390 1.393 1_455 S
C386 C393 1.500 1_455 S
C387 C386 1.382 . S
C387 C388 1.400 . S
C387 H398 0.930 . S
C388 C387 1.400 . S
C388 C389 1.384 . S
C389 C388 1.384 . S
C389 C391 1.392 1_455 S
C389 H399 0.931 . S
C390 C386 1.393 1_655 S
C390 C391 1.401 . S
C390 H400 0.930 . S
C391 C389 1.392 1_655 S
C391 C390 1.401 . S
C391 H401 0.930 . S
C392 O370 1.262 1_554 S
C392 O371 1.260 . S
C393 Tb329 2.833 . S
C393 O368 1.251 . S
C393 O373 1.256 1_655 S
C393 C386 1.500 1_655 S
H394 C377 0.930 . S
H395 C378 0.931 . S
H396 C379 0.930 . S
H397 C380 0.930 . S
H398 C387 0.930 . S
H399 C389 0.931 . S
H400 C390 0.930 . S
H401 C391 0.930 . S
Tb402 N433 2.660 . S
Tb402 N440 2.600 . S
Tb402 O446 2.546 . S
Tb402 O447 2.610 . S
Tb402 O449 2.320 . S
Tb402 O450 2.552 . S
Tb402 O451 2.413 . S
Tb402 O453 2.362 . S
Tb402 O454 2.421 . S
Tb402 C466 2.833 . S
C403 C406 1.432 . S
C403 C407 1.414 . S
C403 N410 1.359 . S
C404 C406 1.417 . S
C404 C408 1.432 . S
C404 C416 1.410 . S
C405 C407 1.444 . S
C405 C408 1.317 . S
C405 H428 0.929 . S
C406 C403 1.432 . S
C406 C404 1.417 . S
C406 N414 1.360 . S
C407 C403 1.414 . S
C407 C405 1.444 . S
C407 C412 1.385 . S
C408 C404 1.432 . S
C408 C405 1.317 . S
C408 H420 0.930 . S
C409 C411 1.392 . S
C409 C412 1.370 . S
C409 H421 0.931 . S
N410 C403 1.359 . S
N410 C411 1.327 . S
N410 Tb413 2.600 . S
C411 C409 1.392 . S
C411 N410 1.327 . S
C411 H418 0.930 . S
C412 C407 1.385 . S
C412 C409 1.370 . S
C412 H431 0.930 . S
Tb413 N410 2.600 . S
Tb413 N414 2.660 . S
Tb413 O447 2.362 1_556 S
Tb413 O448 2.421 . S
Tb413 O452 2.546 . S
Tb413 O453 2.610 1_556 S
Tb413 O455 2.320 . S
Tb413 O456 2.552 . S
Tb413 O457 2.413 . S
Tb413 C477 2.833 . S
N414 C406 1.360 . S
N414 Tb413 2.660 . S
N414 C415 1.305 . S
C415 N414 1.305 . S
C415 C417 1.407 . S
C415 H422 0.930 . S
C416 C404 1.410 . S
C416 C417 1.345 . S
C416 H424 0.930 . S
C417 C415 1.407 . S
C417 C416 1.345 . S
C417 H419 0.930 . S
H418 C411 0.930 . S
H419 C417 0.930 . S
H420 C408 0.930 . S
H421 C409 0.931 . S
H422 C415 0.930 . S
H423 C437 0.930 . S
H424 C416 0.930 . S
H425 C443 0.930 . S
H426 C434 0.930 . S
H427 C441 0.931 . S
H428 C405 0.929 . S
H429 C435 0.930 . S
H430 C468 0.930 . S
H431 C412 0.930 . S
H432 C467 0.929 . S
N433 Tb402 2.660 . S
N433 C434 1.305 . S
N433 C438 1.360 . S
C434 H426 0.930 . S
C434 N433 1.305 . S
C434 C437 1.407 . S
C435 H429 0.930 . S
C435 C436 1.410 . S
C435 C437 1.345 . S
C436 C435 1.410 . S
C436 C438 1.417 . S
C436 C468 1.432 . S
C437 H423 0.930 . S
C437 C434 1.407 . S
C437 C435 1.345 . S
C438 N433 1.360 . S
C438 C436 1.417 . S
C438 C442 1.432 . S
H439 C444 0.930 . S
N440 Tb402 2.600 . S
N440 C442 1.359 . S
N440 C443 1.327 . S
C441 H427 0.931 . S
C441 C443 1.392 . S
C441 C444 1.370 . S
C442 C438 1.432 . S
C442 N440 1.359 . S
C442 C445 1.414 . S
C443 H425 0.930 . S
C443 N440 1.327 . S
C443 C441 1.392 . S
C444 H439 0.930 . S
C444 C441 1.370 . S
C444 C445 1.385 . S
C445 C442 1.414 . S
C445 C444 1.385 . S
C445 C467 1.444 . S
O446 Tb402 2.546 . S
O446 C466 1.251 . S
O447 Tb402 2.610 . S
O447 Tb413 2.362 1_554 S
O447 C458 1.283 . S
O448 Tb413 2.421 . S
O448 C465 1.262 1_556 S
O449 Tb402 2.320 . S
O449 C465 1.260 . S
O450 Tb402 2.552 . S
O450 C458 1.243 . S
O451 Tb402 2.413 . S
O451 C466 1.256 . S
O452 Tb413 2.546 . S
O452 C477 1.251 . S
O453 Tb402 2.362 . S
O453 Tb413 2.610 1_554 S
O453 C469 1.283 1_554 S
O454 Tb402 2.421 . S
O454 C476 1.262 1_554 S
O455 Tb413 2.320 . S
O455 C476 1.260 . S
O456 Tb413 2.552 . S
O456 C469 1.243 . S
O457 Tb413 2.413 . S
O457 C477 1.256 . S
C458 O447 1.283 . S
C458 O450 1.243 . S
C459 C461 1.382 . S
C459 C463 1.393 . S
C459 C466 1.500 . S
C460 C461 1.400 . S
C460 C462 1.384 . S
C461 C459 1.382 . S
C461 C460 1.400 . S
C461 H478 0.930 . S
C462 C460 1.384 . S
C462 C464 1.392 . S
C462 H479 0.931 . S
C463 C459 1.393 . S
C463 C464 1.401 . S
C463 H480 0.930 . S
C464 C462 1.392 . S
C464 C463 1.401 . S
C464 H481 0.930 . S
C465 O448 1.262 1_554 S
C465 O449 1.260 . S
C466 Tb402 2.833 . S
C466 O446 1.251 . S
C466 O451 1.256 . S
C466 C459 1.500 . S
C467 H432 0.929 . S
C467 C445 1.444 . S
C467 C468 1.317 . S
C468 H430 0.930 . S
C468 C436 1.432 . S
C468 C467 1.317 . S
C469 O453 1.283 1_556 S
C469 O456 1.243 . S
C470 C471 1.382 . S
C470 C474 1.393 . S
C470 C477 1.500 . S
C471 C470 1.382 . S
C471 C472 1.400 . S
C471 H482 0.930 . S
C472 C471 1.400 . S
C472 C473 1.384 . S
C473 C472 1.384 . S
C473 C475 1.392 . S
C473 H483 0.931 . S
C474 C470 1.393 . S
C474 C475 1.401 . S
C474 H484 0.930 . S
C475 C473 1.392 . S
C475 C474 1.401 . S
C475 H485 0.930 . S
C476 O454 1.262 1_556 S
C476 O455 1.260 . S
C477 Tb413 2.833 . S
C477 O452 1.251 . S
C477 O457 1.256 . S
C477 C470 1.500 . S
H478 C461 0.930 . S
H479 C462 0.931 . S
H480 C463 0.930 . S
H481 C464 0.930 . S
H482 C471 0.930 . S
H483 C473 0.931 . S
H484 C474 0.930 . S
H485 C475 0.930 . S
Tb486 N517 2.660 . S
Tb486 N524 2.600 . S
Tb486 O530 2.546 . S
Tb486 O531 2.610 . S
Tb486 O533 2.320 . S
Tb486 O534 2.552 . S
Tb486 O535 2.413 . S
Tb486 O537 2.362 . S
Tb486 O538 2.421 . S
Tb486 C550 2.833 . S
C487 C490 1.432 . S
C487 C491 1.414 . S
C487 N494 1.359 . S
C488 C490 1.417 . S
C488 C492 1.432 . S
C488 C500 1.410 . S
C489 C491 1.444 . S
C489 C492 1.317 . S
C489 H512 0.929 . S
C490 C487 1.432 . S
C490 C488 1.417 . S
C490 N498 1.360 . S
C491 C487 1.414 . S
C491 C489 1.444 . S
C491 C496 1.385 . S
C492 C488 1.432 . S
C492 C489 1.317 . S
C492 H504 0.930 . S
C493 C495 1.392 . S
C493 C496 1.370 . S
C493 H505 0.931 . S
N494 C487 1.359 . S
N494 C495 1.327 . S
N494 Tb497 2.600 . S
C495 C493 1.392 . S
C495 N494 1.327 . S
C495 H502 0.930 . S
C496 C491 1.385 . S
C496 C493 1.370 . S
C496 H515 0.930 . S
Tb497 N494 2.600 . S
Tb497 N498 2.660 . S
Tb497 O531 2.362 . S
Tb497 O532 2.421 . S
Tb497 O536 2.546 . S
Tb497 O537 2.610 . S
Tb497 O539 2.320 . S
Tb497 O540 2.552 . S
Tb497 O541 2.413 . S
Tb497 C561 2.833 . S
N498 C490 1.360 . S
N498 Tb497 2.660 . S
N498 C499 1.305 . S
C499 N498 1.305 . S
C499 C501 1.407 . S
C499 H506 0.930 . S
C500 C488 1.410 . S
C500 C501 1.345 . S
C500 H508 0.930 . S
C501 C499 1.407 . S
C501 C500 1.345 . S
C501 H503 0.930 . S
H502 C495 0.930 . S
H503 C501 0.930 . S
H504 C492 0.930 . S
H505 C493 0.931 . S
H506 C499 0.930 . S
H507 C521 0.930 . S
H508 C500 0.930 . S
H509 C527 0.930 . S
H510 C518 0.930 . S
H511 C525 0.931 . S
H512 C489 0.929 . S
H513 C519 0.930 . S
H514 C552 0.930 . S
H515 C496 0.930 . S
H516 C551 0.929 . S
N517 Tb486 2.660 . S
N517 C518 1.305 . S
N517 C522 1.360 . S
C518 H510 0.930 . S
C518 N517 1.305 . S
C518 C521 1.407 1_455 S
C519 H513 0.930 . S
C519 C520 1.410 . S
C519 C521 1.345 . S
C520 C519 1.410 . S
C520 C522 1.417 1_655 S
C520 C552 1.432 . S
C521 H507 0.930 . S
C521 C518 1.407 1_655 S
C521 C519 1.345 . S
C522 N517 1.360 . S
C522 C520 1.417 1_455 S
C522 C526 1.432 . S
H523 C528 0.930 . S
N524 Tb486 2.600 . S
N524 C526 1.359 . S
N524 C527 1.327 . S
C525 H511 0.931 . S
C525 C527 1.392 . S
C525 C528 1.370 . S
C526 C522 1.432 . S
C526 N524 1.359 . S
C526 C529 1.414 . S
C527 H509 0.930 . S
C527 N524 1.327 . S
C527 C525 1.392 . S
C528 H523 0.930 . S
C528 C525 1.370 . S
C528 C529 1.385 . S
C529 C526 1.414 . S
C529 C528 1.385 . S
C529 C551 1.444 1_455 S
O530 Tb486 2.546 . S
O530 C550 1.251 . S
O531 Tb486 2.610 . S
O531 Tb497 2.362 . S
O531 C542 1.283 . S
O532 Tb497 2.421 . S
O532 C549 1.262 . S
O533 Tb486 2.320 . S
O533 C549 1.260 . S
O534 Tb486 2.552 . S
O534 C542 1.243 . S
O535 Tb486 2.413 . S
O535 C550 1.256 . S
O536 Tb497 2.546 . S
O536 C561 1.251 . S
O537 Tb486 2.362 . S
O537 Tb497 2.610 . S
O537 C553 1.283 . S
O538 Tb486 2.421 . S
O538 C560 1.262 . S
O539 Tb497 2.320 . S
O539 C560 1.260 . S
O540 Tb497 2.552 . S
O540 C553 1.243 . S
O541 Tb497 2.413 . S
O541 C561 1.256 . S
C542 O531 1.283 . S
C542 O534 1.243 . S
C543 C545 1.382 . S
C543 C547 1.393 . S
C543 C550 1.500 . S
C544 C545 1.400 . S
C544 C546 1.384 . S
C545 C543 1.382 . S
C545 C544 1.400 . S
C545 H562 0.930 . S
C546 C544 1.384 . S
C546 C548 1.392 . S
C546 H563 0.931 . S
C547 C543 1.393 . S
C547 C548 1.401 . S
C547 H564 0.930 . S
C548 C546 1.392 . S
C548 C547 1.401 . S
C548 H565 0.930 . S
C549 O532 1.262 . S
C549 O533 1.260 . S
C550 Tb486 2.833 . S
C550 O530 1.251 . S
C550 O535 1.256 . S
C550 C543 1.500 . S
C551 H516 0.929 . S
C551 C529 1.444 1_655 S
C551 C552 1.317 . S
C552 H514 0.930 . S
C552 C520 1.432 . S
C552 C551 1.317 . S
C553 O537 1.283 . S
C553 O540 1.243 . S
C554 C555 1.382 . S
C554 C558 1.393 . S
C554 C561 1.500 . S
C555 C554 1.382 . S
C555 C556 1.400 . S
C555 H566 0.930 . S
C556 C555 1.400 . S
C556 C557 1.384 . S
C557 C556 1.384 . S
C557 C559 1.392 . S
C557 H567 0.931 . S
C558 C554 1.393 . S
C558 C559 1.401 . S
C558 H568 0.930 . S
C559 C557 1.392 . S
C559 C558 1.401 . S
C559 H569 0.930 . S
C560 O538 1.262 . S
C560 O539 1.260 . S
C561 Tb497 2.833 . S
C561 O536 1.251 . S
C561 O541 1.256 . S
C561 C554 1.500 . S
H562 C545 0.930 . S
H563 C546 0.931 . S
H564 C547 0.930 . S
H565 C548 0.930 . S
H566 C555 0.930 . S
H567 C557 0.931 . S
H568 C558 0.930 . S
H569 C559 0.930 . S
Tb570 N601 2.660 . S
Tb570 N608 2.600 . S
Tb570 O614 2.546 . S
Tb570 O615 2.610 . S
Tb570 O617 2.320 . S
Tb570 O618 2.552 . S
Tb570 O619 2.413 . S
Tb570 O621 2.362 . S
Tb570 O622 2.421 . S
Tb570 C634 2.833 . S
C571 C574 1.432 . S
C571 C575 1.414 . S
C571 N578 1.359 . S
C572 C574 1.417 . S
C572 C576 1.432 . S
C572 C584 1.410 . S
C573 C575 1.444 . S
C573 C576 1.317 . S
C573 H596 0.929 . S
C574 C571 1.432 . S
C574 C572 1.417 . S
C574 N582 1.360 . S
C575 C571 1.414 . S
C575 C573 1.444 . S
C575 C580 1.385 . S
C576 C572 1.432 . S
C576 C573 1.317 . S
C576 H588 0.930 . S
C577 C579 1.392 . S
C577 C580 1.370 . S
C577 H589 0.931 . S
N578 C571 1.359 . S
N578 C579 1.327 . S
N578 Tb581 2.600 . S
C579 C577 1.392 . S
C579 N578 1.327 . S
C579 H586 0.930 . S
C580 C575 1.385 . S
C580 C577 1.370 . S
C580 H599 0.930 . S
Tb581 N578 2.600 . S
Tb581 N582 2.660 . S
Tb581 O615 2.362 . S
Tb581 O616 2.421 . S
Tb581 O620 2.546 . S
Tb581 O621 2.610 . S
Tb581 O623 2.320 . S
Tb581 O624 2.552 . S
Tb581 O625 2.413 . S
Tb581 C645 2.833 . S
N582 C574 1.360 . S
N582 Tb581 2.660 . S
N582 C583 1.305 . S
C583 N582 1.305 . S
C583 C585 1.407 . S
C583 H590 0.930 . S
C584 C572 1.410 . S
C584 C585 1.345 . S
C584 H592 0.930 . S
C585 C583 1.407 . S
C585 C584 1.345 . S
C585 H587 0.930 . S
H586 C579 0.930 . S
H587 C585 0.930 . S
H588 C576 0.930 . S
H589 C577 0.931 . S
H590 C583 0.930 . S
H591 C605 0.930 . S
H592 C584 0.930 . S
H593 C611 0.930 . S
H594 C602 0.930 . S
H595 C609 0.931 . S
H596 C573 0.929 . S
H597 C603 0.930 . S
H598 C636 0.930 . S
H599 C580 0.930 . S
H600 C635 0.929 . S
N601 Tb570 2.660 . S
N601 C602 1.305 . S
N601 C606 1.360 . S
C602 H594 0.930 . S
C602 N601 1.305 . S
C602 C605 1.407 . S
C603 H597 0.930 . S
C603 C604 1.410 . S
C603 C605 1.345 . S
C604 C603 1.410 . S
C604 C606 1.417 . S
C604 C636 1.432 . S
C605 H591 0.930 . S
C605 C602 1.407 . S
C605 C603 1.345 . S
C606 N601 1.360 . S
C606 C604 1.417 . S
C606 C610 1.432 . S
H607 C612 0.930 . S
N608 Tb570 2.600 . S
N608 C610 1.359 . S
N608 C611 1.327 . S
C609 H595 0.931 . S
C609 C611 1.392 . S
C609 C612 1.370 . S
C610 C606 1.432 . S
C610 N608 1.359 . S
C610 C613 1.414 . S
C611 H593 0.930 . S
C611 N608 1.327 . S
C611 C609 1.392 . S
C612 H607 0.930 . S
C612 C609 1.370 . S
C612 C613 1.385 . S
C613 C610 1.414 . S
C613 C612 1.385 . S
C613 C635 1.444 . S
O614 Tb570 2.546 . S
O614 C634 1.251 . S
O615 Tb570 2.610 . S
O615 Tb581 2.362 . S
O615 C626 1.283 . S
O616 Tb581 2.421 . S
O616 C633 1.262 . S
O617 Tb570 2.320 . S
O617 C633 1.260 . S
O618 Tb570 2.552 . S
O618 C626 1.243 . S
O619 Tb570 2.413 . S
O619 C634 1.256 . S
O620 Tb581 2.546 . S
O620 C645 1.251 . S
O621 Tb570 2.362 . S
O621 Tb581 2.610 . S
O621 C637 1.283 . S
O622 Tb570 2.421 . S
O622 C644 1.262 . S
O623 Tb581 2.320 . S
O623 C644 1.260 . S
O624 Tb581 2.552 . S
O624 C637 1.243 . S
O625 Tb581 2.413 . S
O625 C645 1.256 . S
C626 O615 1.283 . S
C626 O618 1.243 . S
C627 C629 1.382 . S
C627 C631 1.393 . S
C627 C634 1.500 . S
C628 C629 1.400 . S
C628 C630 1.384 . S
C629 C627 1.382 . S
C629 C628 1.400 . S
C629 H646 0.930 . S
C630 C628 1.384 . S
C630 C632 1.392 . S
C630 H647 0.931 . S
C631 C627 1.393 . S
C631 C632 1.401 . S
C631 H648 0.930 . S
C632 C630 1.392 . S
C632 C631 1.401 . S
C632 H649 0.930 . S
C633 O616 1.262 . S
C633 O617 1.260 . S
C634 Tb570 2.833 . S
C634 O614 1.251 . S
C634 O619 1.256 . S
C634 C627 1.500 . S
C635 H600 0.929 . S
C635 C613 1.444 . S
C635 C636 1.317 . S
C636 H598 0.930 . S
C636 C604 1.432 . S
C636 C635 1.317 . S
C637 O621 1.283 . S
C637 O624 1.243 . S
C638 C639 1.382 . S
C638 C642 1.393 . S
C638 C645 1.500 . S
C639 C638 1.382 . S
C639 C640 1.400 . S
C639 H650 0.930 . S
C640 C639 1.400 . S
C640 C641 1.384 . S
C641 C640 1.384 . S
C641 C643 1.392 . S
C641 H651 0.931 . S
C642 C638 1.393 . S
C642 C643 1.401 . S
C642 H652 0.930 . S
C643 C641 1.392 . S
C643 C642 1.401 . S
C643 H653 0.930 . S
C644 O622 1.262 . S
C644 O623 1.260 . S
C645 Tb581 2.833 . S
C645 O620 1.251 . S
C645 O625 1.256 . S
C645 C638 1.500 . S
H646 C629 0.930 . S
H647 C630 0.931 . S
H648 C631 0.930 . S
H649 C632 0.930 . S
H650 C639 0.930 . S
H651 C641 0.931 . S
H652 C642 0.930 . S
H653 C643 0.930 . S
Tb654 N685 2.660 . S
Tb654 N692 2.600 . S
Tb654 O698 2.546 . S
Tb654 O699 2.610 . S
Tb654 O701 2.320 . S
Tb654 O702 2.552 . S
Tb654 O703 2.413 . S
Tb654 O705 2.362 . S
Tb654 O706 2.421 . S
Tb654 C718 2.833 . S
C655 C658 1.432 . S
C655 C659 1.414 . S
C655 N662 1.359 . S
C656 C658 1.417 . S
C656 C660 1.432 . S
C656 C668 1.410 . S
C657 C659 1.444 . S
C657 C660 1.317 . S
C657 H680 0.929 . S
C658 C655 1.432 . S
C658 C656 1.417 . S
C658 N666 1.360 . S
C659 C655 1.414 . S
C659 C657 1.444 . S
C659 C664 1.385 . S
C660 C656 1.432 . S
C660 C657 1.317 . S
C660 H672 0.930 . S
C661 C663 1.392 . S
C661 C664 1.370 . S
C661 H673 0.931 . S
N662 C655 1.359 . S
N662 C663 1.327 . S
N662 Tb665 2.600 . S
C663 C661 1.392 . S
C663 N662 1.327 . S
C663 H670 0.930 . S
C664 C659 1.385 . S
C664 C661 1.370 . S
C664 H683 0.930 . S
Tb665 N662 2.600 . S
Tb665 N666 2.660 . S
Tb665 O699 2.362 . S
Tb665 O700 2.421 . S
Tb665 O704 2.546 . S
Tb665 O705 2.610 . S
Tb665 O707 2.320 . S
Tb665 O708 2.552 . S
Tb665 O709 2.413 . S
Tb665 C729 2.833 . S
N666 C658 1.360 . S
N666 Tb665 2.660 . S
N666 C667 1.305 . S
C667 N666 1.305 . S
C667 C669 1.407 . S
C667 H674 0.930 . S
C668 C656 1.410 . S
C668 C669 1.345 . S
C668 H676 0.930 . S
C669 C667 1.407 . S
C669 C668 1.345 . S
C669 H671 0.930 . S
H670 C663 0.930 . S
H671 C669 0.930 . S
H672 C660 0.930 . S
H673 C661 0.931 . S
H674 C667 0.930 . S
H675 C689 0.930 . S
H676 C668 0.930 . S
H677 C695 0.930 . S
H678 C686 0.930 . S
H679 C693 0.931 . S
H680 C657 0.929 . S
H681 C687 0.930 . S
H682 C720 0.930 . S
H683 C664 0.930 . S
H684 C719 0.929 . S
N685 Tb654 2.660 . S
N685 C686 1.305 . S
N685 C690 1.360 . S
C686 H678 0.930 . S
C686 N685 1.305 . S
C686 C689 1.407 . S
C687 H681 0.930 . S
C687 C688 1.410 . S
C687 C689 1.345 . S
C688 C687 1.410 . S
C688 C690 1.417 . S
C688 C720 1.432 . S
C689 H675 0.930 . S
C689 C686 1.407 . S
C689 C687 1.345 . S
C690 N685 1.360 . S
C690 C688 1.417 . S
C690 C694 1.432 . S
H691 C696 0.930 . S
N692 Tb654 2.600 . S
N692 C694 1.359 . S
N692 C695 1.327 . S
C693 H679 0.931 . S
C693 C695 1.392 . S
C693 C696 1.370 . S
C694 C690 1.432 . S
C694 N692 1.359 . S
C694 C697 1.414 . S
C695 H677 0.930 . S
C695 N692 1.327 . S
C695 C693 1.392 . S
C696 H691 0.930 . S
C696 C693 1.370 . S
C696 C697 1.385 . S
C697 C694 1.414 . S
C697 C696 1.385 . S
C697 C719 1.444 . S
O698 Tb654 2.546 . S
O698 C718 1.251 . S
O699 Tb654 2.610 . S
O699 Tb665 2.362 . S
O699 C710 1.283 . S
O700 Tb665 2.421 . S
O700 C717 1.262 . S
O701 Tb654 2.320 . S
O701 C717 1.260 . S
O702 Tb654 2.552 . S
O702 C710 1.243 . S
O703 Tb654 2.413 . S
O703 C718 1.256 . S
O704 Tb665 2.546 . S
O704 C729 1.251 . S
O705 Tb654 2.362 . S
O705 Tb665 2.610 . S
O705 C721 1.283 . S
O706 Tb654 2.421 . S
O706 C728 1.262 . S
O707 Tb665 2.320 . S
O707 C728 1.260 . S
O708 Tb665 2.552 . S
O708 C721 1.243 . S
O709 Tb665 2.413 . S
O709 C729 1.256 . S
C710 O699 1.283 . S
C710 O702 1.243 . S
C711 C713 1.382 . S
C711 C715 1.393 . S
C711 C718 1.500 . S
C712 C713 1.400 . S
C712 C714 1.384 . S
C713 C711 1.382 . S
C713 C712 1.400 . S
C713 H730 0.930 . S
C714 C712 1.384 . S
C714 C716 1.392 . S
C714 H731 0.931 . S
C715 C711 1.393 . S
C715 C716 1.401 . S
C715 H732 0.930 . S
C716 C714 1.392 . S
C716 C715 1.401 . S
C716 H733 0.930 . S
C717 O700 1.262 . S
C717 O701 1.260 . S
C718 Tb654 2.833 . S
C718 O698 1.251 . S
C718 O703 1.256 . S
C718 C711 1.500 . S
C719 H684 0.929 . S
C719 C697 1.444 . S
C719 C720 1.317 . S
C720 H682 0.930 . S
C720 C688 1.432 . S
C720 C719 1.317 . S
C721 O705 1.283 . S
C721 O708 1.243 . S
C722 C723 1.382 . S
C722 C726 1.393 . S
C722 C729 1.500 . S
C723 C722 1.382 . S
C723 C724 1.400 . S
C723 H734 0.930 . S
C724 C723 1.400 . S
C724 C725 1.384 . S
C725 C724 1.384 . S
C725 C727 1.392 . S
C725 H735 0.931 . S
C726 C722 1.393 . S
C726 C727 1.401 . S
C726 H736 0.930 . S
C727 C725 1.392 . S
C727 C726 1.401 . S
C727 H737 0.930 . S
C728 O706 1.262 . S
C728 O707 1.260 . S
C729 Tb665 2.833 . S
C729 O704 1.251 . S
C729 O709 1.256 . S
C729 C722 1.500 . S
H730 C713 0.930 . S
H731 C714 0.931 . S
H732 C715 0.930 . S
H733 C716 0.930 . S
H734 C723 0.930 . S
H735 C725 0.931 . S
H736 C726 0.930 . S
H737 C727 0.930 . S
Tb738 N769 2.660 . S
Tb738 N776 2.600 . S
Tb738 O782 2.546 . S
Tb738 O783 2.610 . S
Tb738 O785 2.320 . S
Tb738 O786 2.552 . S
Tb738 O787 2.413 . S
Tb738 O789 2.362 . S
Tb738 O790 2.421 . S
Tb738 C802 2.833 . S
C739 C742 1.432 . S
C739 C743 1.414 . S
C739 N746 1.359 . S
C740 C742 1.417 . S
C740 C744 1.432 . S
C740 C752 1.410 . S
C741 C743 1.444 . S
C741 C744 1.317 . S
C741 H764 0.929 . S
C742 C739 1.432 . S
C742 C740 1.417 . S
C742 N750 1.360 . S
C743 C739 1.414 . S
C743 C741 1.444 . S
C743 C748 1.385 . S
C744 C740 1.432 . S
C744 C741 1.317 . S
C744 H756 0.930 . S
C745 C747 1.392 . S
C745 C748 1.370 . S
C745 H757 0.931 . S
N746 C739 1.359 . S
N746 C747 1.327 . S
N746 Tb749 2.600 . S
C747 C745 1.392 . S
C747 N746 1.327 . S
C747 H754 0.930 . S
C748 C743 1.385 . S
C748 C745 1.370 . S
C748 H767 0.930 . S
Tb749 N746 2.600 . S
Tb749 N750 2.660 . S
Tb749 O783 2.362 . S
Tb749 O784 2.421 . S
Tb749 O788 2.546 . S
Tb749 O789 2.610 . S
Tb749 O791 2.320 . S
Tb749 O792 2.552 . S
Tb749 O793 2.413 . S
Tb749 C813 2.833 . S
N750 C742 1.360 . S
N750 Tb749 2.660 . S
N750 C751 1.305 . S
C751 N750 1.305 . S
C751 C753 1.407 . S
C751 H758 0.930 . S
C752 C740 1.410 . S
C752 C753 1.345 . S
C752 H760 0.930 . S
C753 C751 1.407 . S
C753 C752 1.345 . S
C753 H755 0.930 . S
H754 C747 0.930 . S
H755 C753 0.930 . S
H756 C744 0.930 . S
H757 C745 0.931 . S
H758 C751 0.930 . S
H759 C773 0.930 . S
H760 C752 0.930 . S
H761 C779 0.930 . S
H762 C770 0.930 . S
H763 C777 0.931 . S
H764 C741 0.929 . S
H765 C771 0.930 . S
H766 C804 0.930 . S
H767 C748 0.930 . S
H768 C803 0.929 . S
N769 Tb738 2.660 . S
N769 C770 1.305 . S
N769 C774 1.360 . S
C770 H762 0.930 . S
C770 N769 1.305 . S
C770 C773 1.407 . S
C771 H765 0.930 . S
C771 C772 1.410 . S
C771 C773 1.345 . S
C772 C771 1.410 . S
C772 C774 1.417 . S
C772 C804 1.432 . S
C773 H759 0.930 . S
C773 C770 1.407 . S
C773 C771 1.345 . S
C774 N769 1.360 . S
C774 C772 1.417 . S
C774 C778 1.432 . S
H775 C780 0.930 . S
N776 Tb738 2.600 . S
N776 C778 1.359 . S
N776 C779 1.327 . S
C777 H763 0.931 . S
C777 C779 1.392 . S
C777 C780 1.370 . S
C778 C774 1.432 . S
C778 N776 1.359 . S
C778 C781 1.414 . S
C779 H761 0.930 . S
C779 N776 1.327 . S
C779 C777 1.392 . S
C780 H775 0.930 . S
C780 C777 1.370 . S
C780 C781 1.385 . S
C781 C778 1.414 . S
C781 C780 1.385 . S
C781 C803 1.444 . S
O782 Tb738 2.546 . S
O782 C802 1.251 . S
O783 Tb738 2.610 . S
O783 Tb749 2.362 . S
O783 C794 1.283 . S
O784 Tb749 2.421 . S
O784 C801 1.262 . S
O785 Tb738 2.320 . S
O785 C801 1.260 . S
O786 Tb738 2.552 . S
O786 C794 1.243 . S
O787 Tb738 2.413 . S
O787 C802 1.256 . S
O788 Tb749 2.546 . S
O788 C813 1.251 . S
O789 Tb738 2.362 . S
O789 Tb749 2.610 . S
O789 C805 1.283 . S
O790 Tb738 2.421 . S
O790 C812 1.262 . S
O791 Tb749 2.320 . S
O791 C812 1.260 . S
O792 Tb749 2.552 . S
O792 C805 1.243 . S
O793 Tb749 2.413 . S
O793 C813 1.256 . S
C794 O783 1.283 . S
C794 O786 1.243 . S
C795 C797 1.382 . S
C795 C799 1.393 . S
C795 C802 1.500 . S
C796 C797 1.400 . S
C796 C798 1.384 . S
C797 C795 1.382 . S
C797 C796 1.400 . S
C797 H814 0.930 . S
C798 C796 1.384 . S
C798 C800 1.392 . S
C798 H815 0.931 . S
C799 C795 1.393 . S
C799 C800 1.401 . S
C799 H816 0.930 . S
C800 C798 1.392 . S
C800 C799 1.401 . S
C800 H817 0.930 . S
C801 O784 1.262 . S
C801 O785 1.260 . S
C802 Tb738 2.833 . S
C802 O782 1.251 . S
C802 O787 1.256 . S
C802 C795 1.500 . S
C803 H768 0.929 . S
C803 C781 1.444 . S
C803 C804 1.317 . S
C804 H766 0.930 . S
C804 C772 1.432 . S
C804 C803 1.317 . S
C805 O789 1.283 . S
C805 O792 1.243 . S
C806 C807 1.382 . S
C806 C810 1.393 . S
C806 C813 1.500 . S
C807 C806 1.382 . S
C807 C808 1.400 . S
C807 H818 0.930 . S
C808 C807 1.400 . S
C808 C809 1.384 . S
C809 C808 1.384 . S
C809 C811 1.392 . S
C809 H819 0.931 . S
C810 C806 1.393 . S
C810 C811 1.401 . S
C810 H820 0.930 . S
C811 C809 1.392 . S
C811 C810 1.401 . S
C811 H821 0.930 . S
C812 O790 1.262 . S
C812 O791 1.260 . S
C813 Tb749 2.833 . S
C813 O788 1.251 . S
C813 O793 1.256 . S
C813 C806 1.500 . S
H814 C797 0.930 . S
H815 C798 0.931 . S
H816 C799 0.930 . S
H817 C800 0.930 . S
H818 C807 0.930 . S
H819 C809 0.931 . S
H820 C810 0.930 . S
H821 C811 0.930 . S
Tb822 N853 2.660 . S
Tb822 N860 2.600 . S
Tb822 O866 2.546 . S
Tb822 O867 2.610 . S
Tb822 O869 2.320 . S
Tb822 O870 2.552 . S
Tb822 O871 2.413 . S
Tb822 O873 2.362 . S
Tb822 O874 2.421 . S
Tb822 C886 2.833 . S
C823 C826 1.432 . S
C823 C827 1.414 . S
C823 N830 1.359 . S
C824 C826 1.417 . S
C824 C828 1.432 . S
C824 C836 1.410 . S
C825 C827 1.444 . S
C825 C828 1.317 . S
C825 H848 0.929 . S
C826 C823 1.432 . S
C826 C824 1.417 . S
C826 N834 1.360 . S
C827 C823 1.414 . S
C827 C825 1.444 . S
C827 C832 1.385 . S
C828 C824 1.432 . S
C828 C825 1.317 . S
C828 H840 0.930 . S
C829 C831 1.392 . S
C829 C832 1.370 . S
C829 H841 0.931 . S
N830 C823 1.359 . S
N830 C831 1.327 . S
N830 Tb833 2.600 . S
C831 C829 1.392 . S
C831 N830 1.327 . S
C831 H838 0.930 . S
C832 C827 1.385 . S
C832 C829 1.370 . S
C832 H851 0.930 . S
Tb833 N830 2.600 . S
Tb833 N834 2.660 . S
Tb833 O867 2.362 . S
Tb833 O868 2.421 . S
Tb833 O872 2.546 . S
Tb833 O873 2.610 . S
Tb833 O875 2.320 . S
Tb833 O876 2.552 . S
Tb833 O877 2.413 . S
Tb833 C897 2.833 . S
N834 C826 1.360 . S
N834 Tb833 2.660 . S
N834 C835 1.305 . S
C835 N834 1.305 . S
C835 C837 1.407 . S
C835 H842 0.930 . S
C836 C824 1.410 . S
C836 C837 1.345 . S
C836 H844 0.930 . S
C837 C835 1.407 . S
C837 C836 1.345 . S
C837 H839 0.930 . S
H838 C831 0.930 . S
H839 C837 0.930 . S
H840 C828 0.930 . S
H841 C829 0.931 . S
H842 C835 0.930 . S
H843 C857 0.930 . S
H844 C836 0.930 . S
H845 C863 0.930 . S
H846 C854 0.930 . S
H847 C861 0.931 . S
H848 C825 0.929 . S
H849 C855 0.930 . S
H850 C888 0.930 . S
H851 C832 0.930 . S
H852 C887 0.929 . S
N853 Tb822 2.660 . S
N853 C854 1.305 . S
N853 C858 1.360 . S
C854 H846 0.930 . S
C854 N853 1.305 . S
C854 C857 1.407 . S
C855 H849 0.930 . S
C855 C856 1.410 . S
C855 C857 1.345 . S
C856 C855 1.410 . S
C856 C858 1.417 . S
C856 C888 1.432 . S
C857 H843 0.930 . S
C857 C854 1.407 . S
C857 C855 1.345 . S
C858 N853 1.360 . S
C858 C856 1.417 . S
C858 C862 1.432 . S
H859 C864 0.930 . S
N860 Tb822 2.600 . S
N860 C862 1.359 . S
N860 C863 1.327 . S
C861 H847 0.931 . S
C861 C863 1.392 . S
C861 C864 1.370 . S
C862 C858 1.432 . S
C862 N860 1.359 . S
C862 C865 1.414 . S
C863 H845 0.930 . S
C863 N860 1.327 . S
C863 C861 1.392 . S
C864 H859 0.930 . S
C864 C861 1.370 . S
C864 C865 1.385 . S
C865 C862 1.414 . S
C865 C864 1.385 . S
C865 C887 1.444 . S
O866 Tb822 2.546 . S
O866 C886 1.251 . S
O867 Tb822 2.610 . S
O867 Tb833 2.362 . S
O867 C878 1.283 . S
O868 Tb833 2.421 . S
O868 C885 1.262 . S
O869 Tb822 2.320 . S
O869 C885 1.260 . S
O870 Tb822 2.552 . S
O870 C878 1.243 . S
O871 Tb822 2.413 . S
O871 C886 1.256 . S
O872 Tb833 2.546 . S
O872 C897 1.251 . S
O873 Tb822 2.362 . S
O873 Tb833 2.610 . S
O873 C889 1.283 . S
O874 Tb822 2.421 . S
O874 C896 1.262 . S
O875 Tb833 2.320 . S
O875 C896 1.260 . S
O876 Tb833 2.552 . S
O876 C889 1.243 . S
O877 Tb833 2.413 . S
O877 C897 1.256 . S
C878 O867 1.283 . S
C878 O870 1.243 . S
C879 C881 1.382 . S
C879 C883 1.393 . S
C879 C886 1.500 . S
C880 C881 1.400 . S
C880 C882 1.384 . S
C881 C879 1.382 . S
C881 C880 1.400 . S
C881 H898 0.930 . S
C882 C880 1.384 . S
C882 C884 1.392 . S
C882 H899 0.931 . S
C883 C879 1.393 . S
C883 C884 1.401 . S
C883 H900 0.930 . S
C884 C882 1.392 . S
C884 C883 1.401 . S
C884 H901 0.930 . S
C885 O868 1.262 . S
C885 O869 1.260 . S
C886 Tb822 2.833 . S
C886 O866 1.251 . S
C886 O871 1.256 . S
C886 C879 1.500 . S
C887 H852 0.929 . S
C887 C865 1.444 . S
C887 C888 1.317 . S
C888 H850 0.930 . S
C888 C856 1.432 . S
C888 C887 1.317 . S
C889 O873 1.283 . S
C889 O876 1.243 . S
C890 C891 1.382 . S
C890 C894 1.393 . S
C890 C897 1.500 . S
C891 C890 1.382 . S
C891 C892 1.400 . S
C891 H902 0.930 . S
C892 C891 1.400 . S
C892 C893 1.384 . S
C893 C892 1.384 . S
C893 C895 1.392 . S
C893 H903 0.931 . S
C894 C890 1.393 . S
C894 C895 1.401 . S
C894 H904 0.930 . S
C895 C893 1.392 . S
C895 C894 1.401 . S
C895 H905 0.930 . S
C896 O874 1.262 . S
C896 O875 1.260 . S
C897 Tb833 2.833 . S
C897 O872 1.251 . S
C897 O877 1.256 . S
C897 C890 1.500 . S
H898 C881 0.930 . S
H899 C882 0.931 . S
H900 C883 0.930 . S
H901 C884 0.930 . S
H902 C891 0.930 . S
H903 C893 0.931 . S
H904 C894 0.930 . S
H905 C895 0.930 . S
Tb906 N937 2.660 . S
Tb906 N944 2.600 . S
Tb906 O950 2.546 . S
Tb906 O951 2.610 . S
Tb906 O953 2.320 . S
Tb906 O954 2.552 . S
Tb906 O955 2.413 . S
Tb906 O957 2.362 . S
Tb906 O958 2.421 . S
Tb906 C970 2.833 . S
C907 C910 1.432 . S
C907 C911 1.414 . S
C907 N914 1.359 . S
C908 C910 1.417 . S
C908 C912 1.432 . S
C908 C920 1.410 . S
C909 C911 1.444 . S
C909 C912 1.317 . S
C909 H932 0.929 . S
C910 C907 1.432 . S
C910 C908 1.417 . S
C910 N918 1.360 . S
C911 C907 1.414 . S
C911 C909 1.444 . S
C911 C916 1.385 . S
C912 C908 1.432 . S
C912 C909 1.317 . S
C912 H924 0.930 . S
C913 C915 1.392 . S
C913 C916 1.370 . S
C913 H925 0.931 . S
N914 C907 1.359 . S
N914 C915 1.327 . S
N914 Tb917 2.600 . S
C915 C913 1.392 . S
C915 N914 1.327 . S
C915 H922 0.930 . S
C916 C911 1.385 . S
C916 C913 1.370 . S
C916 H935 0.930 . S
Tb917 N914 2.600 . S
Tb917 N918 2.660 . S
Tb917 O951 2.362 . S
Tb917 O952 2.421 . S
Tb917 O956 2.546 . S
Tb917 O957 2.610 . S
Tb917 O959 2.320 . S
Tb917 O960 2.552 . S
Tb917 O961 2.413 . S
Tb917 C981 2.833 . S
N918 C910 1.360 . S
N918 Tb917 2.660 . S
N918 C919 1.305 . S
C919 N918 1.305 . S
C919 C921 1.407 . S
C919 H926 0.930 . S
C920 C908 1.410 . S
C920 C921 1.345 . S
C920 H928 0.930 . S
C921 C919 1.407 . S
C921 C920 1.345 . S
C921 H923 0.930 . S
H922 C915 0.930 . S
H923 C921 0.930 . S
H924 C912 0.930 . S
H925 C913 0.931 . S
H926 C919 0.930 . S
H927 C941 0.930 . S
H928 C920 0.930 . S
H929 C947 0.930 . S
H930 C938 0.930 . S
H931 C945 0.931 . S
H932 C909 0.929 . S
H933 C939 0.930 . S
H934 C972 0.930 . S
H935 C916 0.930 . S
H936 C971 0.929 . S
N937 Tb906 2.660 . S
N937 C938 1.305 . S
N937 C942 1.360 . S
C938 H930 0.930 . S
C938 N937 1.305 . S
C938 C941 1.407 1_655 S
C939 H933 0.930 . S
C939 C940 1.410 . S
C939 C941 1.345 . S
C940 C939 1.410 . S
C940 C942 1.417 1_455 S
C940 C972 1.432 . S
C941 H927 0.930 . S
C941 C938 1.407 1_455 S
C941 C939 1.345 . S
C942 N937 1.360 . S
C942 C940 1.417 1_655 S
C942 C946 1.432 . S
H943 C948 0.930 . S
N944 Tb906 2.600 . S
N944 C946 1.359 . S
N944 C947 1.327 . S
C945 H931 0.931 . S
C945 C947 1.392 . S
C945 C948 1.370 . S
C946 C942 1.432 . S
C946 N944 1.359 . S
C946 C949 1.414 . S
C947 H929 0.930 . S
C947 N944 1.327 . S
C947 C945 1.392 . S
C948 H943 0.930 . S
C948 C945 1.370 . S
C948 C949 1.385 . S
C949 C946 1.414 . S
C949 C948 1.385 . S
C949 C971 1.444 1_655 S
O950 Tb906 2.546 . S
O950 C970 1.251 . S
O951 Tb906 2.610 . S
O951 Tb917 2.362 . S
O951 C962 1.283 . S
O952 Tb917 2.421 . S
O952 C969 1.262 . S
O953 Tb906 2.320 . S
O953 C969 1.260 . S
O954 Tb906 2.552 . S
O954 C962 1.243 . S
O955 Tb906 2.413 . S
O955 C970 1.256 . S
O956 Tb917 2.546 . S
O956 C981 1.251 . S
O957 Tb906 2.362 . S
O957 Tb917 2.610 . S
O957 C973 1.283 . S
O958 Tb906 2.421 . S
O958 C980 1.262 . S
O959 Tb917 2.320 . S
O959 C980 1.260 . S
O960 Tb917 2.552 . S
O960 C973 1.243 . S
O961 Tb917 2.413 . S
O961 C981 1.256 . S
C962 O951 1.283 . S
C962 O954 1.243 . S
C963 C965 1.382 . S
C963 C967 1.393 . S
C963 C970 1.500 . S
C964 C965 1.400 . S
C964 C966 1.384 . S
C965 C963 1.382 . S
C965 C964 1.400 . S
C965 H982 0.930 . S
C966 C964 1.384 . S
C966 C968 1.392 . S
C966 H983 0.931 . S
C967 C963 1.393 . S
C967 C968 1.401 . S
C967 H984 0.930 . S
C968 C966 1.392 . S
C968 C967 1.401 . S
C968 H985 0.930 . S
C969 O952 1.262 . S
C969 O953 1.260 . S
C970 Tb906 2.833 . S
C970 O950 1.251 . S
C970 O955 1.256 . S
C970 C963 1.500 . S
C971 H936 0.929 . S
C971 C949 1.444 1_455 S
C971 C972 1.317 . S
C972 H934 0.930 . S
C972 C940 1.432 . S
C972 C971 1.317 . S
C973 O957 1.283 . S
C973 O960 1.243 . S
C974 C975 1.382 . S
C974 C978 1.393 . S
C974 C981 1.500 . S
C975 C974 1.382 . S
C975 C976 1.400 . S
C975 H986 0.930 . S
C976 C975 1.400 . S
C976 C977 1.384 . S
C977 C976 1.384 . S
C977 C979 1.392 . S
C977 H987 0.931 . S
C978 C974 1.393 . S
C978 C979 1.401 . S
C978 H988 0.930 . S
C979 C977 1.392 . S
C979 C978 1.401 . S
C979 H989 0.930 . S
C980 O958 1.262 . S
C980 O959 1.260 . S
C981 Tb917 2.833 . S
C981 O956 1.251 . S
C981 O961 1.256 . S
C981 C974 1.500 . S
H982 C965 0.930 . S
H983 C966 0.931 . S
H984 C967 0.930 . S
H985 C968 0.930 . S
H986 C975 0.930 . S
H987 C977 0.931 . S
H988 C978 0.930 . S
H989 C979 0.930 . S
C990 C991 1.369 . S
C990 C992 1.419 . S
C990 H994 0.930 . S
C991 C990 1.369 . S
C991 C1000 1.429 . S
C992 C990 1.419 . S
C992 C993 1.363 . S
C992 H995 0.929 . S
C993 C992 1.363 . S
C993 C999 1.428 . S
H994 C990 0.930 . S
H995 C992 0.929 . S
S996 N997 1.613 . S
S996 N998 1.610 . S
N997 S996 1.613 . S
N997 C1000 1.350 . S
N998 S996 1.610 . S
N998 C999 1.351 . S
C999 C993 1.428 . S
C999 N998 1.351 . S
C999 C1000 1.434 . S
C1000 C991 1.429 . S
C1000 N997 1.350 . S
C1000 C999 1.434 . S
C1001 C1002 1.369 . S
C1001 C1003 1.419 . S
C1001 H1005 0.930 . S
C1002 C1001 1.369 . S
C1002 C1011 1.429 . S
C1003 C1001 1.419 . S
C1003 C1004 1.363 . S
C1003 H1006 0.929 . S
C1004 C1003 1.363 . S
C1004 C1010 1.428 . S
H1005 C1001 0.930 . S
H1006 C1003 0.929 . S
S1007 N1008 1.613 1_556 S
S1007 N1009 1.610 . S
N1008 S1007 1.613 1_554 S
N1008 C1011 1.350 . S
N1009 S1007 1.610 . S
N1009 C1010 1.351 1_556 S
C1010 C1004 1.428 . S
C1010 N1009 1.351 1_554 S
C1010 C1011 1.434 . S
C1011 C1002 1.429 . S
C1011 N1008 1.350 . S
C1011 C1010 1.434 . S
C1012 C1013 1.369 . S
C1012 C1014 1.419 . S
C1012 H1016 0.930 . S
C1013 C1012 1.369 . S
C1013 C1022 1.429 . S
C1014 C1012 1.419 . S
C1014 C1015 1.363 . S
C1014 H1017 0.929 . S
C1015 C1014 1.363 . S
C1015 C1021 1.428 . S
H1016 C1012 0.930 . S
H1017 C1014 0.929 . S
S1018 N1019 1.613 1_556 S
S1018 N1020 1.610 . S
N1019 S1018 1.613 1_554 S
N1019 C1022 1.350 . S
N1020 S1018 1.610 . S
N1020 C1021 1.351 1_556 S
C1021 C1015 1.428 . S
C1021 N1020 1.351 1_554 S
C1021 C1022 1.434 . S
C1022 C1013 1.429 . S
C1022 N1019 1.350 . S
C1022 C1021 1.434 . S
C1023 C1024 1.369 . S
C1023 C1025 1.419 . S
C1023 H1027 0.930 . S
C1024 C1023 1.369 . S
C1024 C1033 1.429 . S
C1025 C1023 1.419 . S
C1025 C1026 1.363 . S
C1025 H1028 0.929 . S
C1026 C1025 1.363 . S
C1026 C1032 1.428 . S
H1027 C1023 0.930 . S
H1028 C1025 0.929 . S
S1029 N1030 1.613 . S
S1029 N1031 1.610 . S
N1030 S1029 1.613 . S
N1030 C1033 1.350 . S
N1031 S1029 1.610 . S
N1031 C1032 1.351 . S
C1032 C1026 1.428 . S
C1032 N1031 1.351 . S
C1032 C1033 1.434 . S
C1033 C1024 1.429 . S
C1033 N1030 1.350 . S
C1033 C1032 1.434 . S
C1034 C1035 1.369 . S
C1034 C1036 1.419 . S
C1034 H1038 0.930 . S
C1035 C1034 1.369 . S
C1035 C1044 1.429 . S
C1036 C1034 1.419 . S
C1036 C1037 1.363 . S
C1036 H1039 0.929 1_556 S
C1037 C1036 1.363 . S
C1037 C1043 1.428 . S
H1038 C1034 0.930 . S
H1039 C1036 0.929 1_554 S
S1040 N1041 1.613 . S
S1040 N1042 1.610 . S
N1041 S1040 1.613 . S
N1041 C1044 1.350 . S
N1042 S1040 1.610 . S
N1042 C1043 1.351 . S
C1043 C1037 1.428 . S
C1043 N1042 1.351 . S
C1043 C1044 1.434 . S
C1044 C1035 1.429 . S
C1044 N1041 1.350 . S
C1044 C1043 1.434 . S
C1045 C1046 1.369 . S
C1045 C1047 1.422 . S
C1045 H1049 0.930 1_556 S
C1046 C1045 1.369 . S
C1046 C1055 1.429 . S
C1047 C1045 1.422 . S
C1047 C1048 1.369 . S
C1047 H1050 0.919 1_556 S
C1048 C1047 1.369 . S
C1048 C1054 1.428 . S
H1049 C1045 0.930 1_554 S
H1050 C1047 0.919 1_554 S
S1051 N1052 1.613 . S
S1051 N1053 1.610 . S
N1052 S1051 1.613 . S
N1052 C1055 1.350 . S
N1053 S1051 1.610 . S
N1053 C1054 1.351 . S
C1054 C1048 1.428 . S
C1054 N1053 1.351 . S
C1054 C1055 1.434 . S
C1055 C1046 1.429 . S
C1055 N1052 1.350 . S
C1055 C1054 1.434 . S
C1056 C1057 1.369 . S
C1056 C1058 1.419 . S
C1056 H1060 0.930 . S
C1057 C1056 1.369 . S
C1057 C1066 1.429 . S
C1058 C1056 1.419 . S
C1058 C1059 1.363 . S
C1058 H1061 0.929 . S
C1059 C1058 1.363 . S
C1059 C1065 1.428 . S
H1060 C1056 0.930 . S
H1061 C1058 0.929 . S
S1062 N1063 1.613 1_554 S
S1062 N1064 1.610 . S
N1063 S1062 1.613 1_556 S
N1063 C1066 1.350 . S
N1064 S1062 1.610 . S
N1064 C1065 1.351 1_554 S
C1065 C1059 1.428 . S
C1065 N1064 1.351 1_556 S
C1065 C1066 1.434 . S
C1066 C1057 1.429 . S
C1066 N1063 1.350 . S
C1066 C1065 1.434 . S
C1067 C1068 1.369 . S
C1067 C1069 1.419 . S
C1067 H1071 0.930 . S
C1068 C1067 1.369 . S
C1068 C1077 1.429 . S
C1069 C1067 1.419 . S
C1069 C1070 1.363 . S
C1069 H1072 0.929 . S
C1070 C1069 1.363 . S
C1070 C1076 1.428 1_556 S
H1071 C1067 0.930 . S
H1072 C1069 0.929 . S
S1073 N1074 1.613 . S
S1073 N1075 1.610 . S
N1074 S1073 1.613 . S
N1074 C1077 1.350 1_554 S
N1075 S1073 1.610 . S
N1075 C1076 1.351 . S
C1076 C1070 1.428 1_554 S
C1076 N1075 1.351 . S
C1076 C1077 1.434 1_554 S
C1077 C1068 1.429 . S
C1077 N1074 1.350 1_556 S
C1077 C1076 1.434 1_556 S
C1078 C1079 1.369 . S
C1078 C1080 1.422 . S
C1078 H1082 0.930 1_556 S
C1079 C1078 1.369 . S
C1079 C1088 1.429 . S
C1080 C1078 1.422 . S
C1080 C1081 1.370 . S
C1080 H1083 0.919 1_556 S
C1081 C1080 1.370 . S
C1081 C1087 1.428 . S
H1082 C1078 0.930 1_554 S
H1083 C1080 0.919 1_554 S
S1084 N1085 1.613 . S
S1084 N1086 1.610 . S
N1085 S1084 1.613 . S
N1085 C1088 1.350 . S
N1086 S1084 1.610 . S
N1086 C1087 1.351 . S
C1087 C1081 1.428 . S
C1087 N1086 1.351 . S
C1087 C1088 1.434 . S
C1088 C1079 1.429 . S
C1088 N1085 1.350 . S
C1088 C1087 1.434 . S
C1089 C1090 1.369 . S
C1089 C1091 1.419 . S
C1089 H1093 0.930 . S
C1090 C1089 1.369 . S
C1090 C1099 1.429 . S
C1091 C1089 1.419 . S
C1091 C1092 1.363 . S
C1091 H1094 0.929 . S
C1092 C1091 1.363 . S
C1092 C1098 1.428 . S
H1093 C1089 0.930 . S
H1094 C1091 0.929 . S
S1095 N1096 1.613 . S
S1095 N1097 1.610 . S
N1096 S1095 1.613 . S
N1096 C1099 1.350 . S
N1097 S1095 1.610 . S
N1097 C1098 1.351 . S
C1098 C1092 1.428 . S
C1098 N1097 1.351 . S
C1098 C1099 1.434 . S
C1099 C1090 1.429 . S
C1099 N1096 1.350 . S
C1099 C1098 1.434 . S
C1100 C1101 1.369 . S
C1100 C1102 1.419 . S
C1100 H1104 0.930 . S
C1101 C1100 1.369 . S
C1101 C1110 1.429 . S
C1102 C1100 1.419 . S
C1102 C1103 1.363 . S
C1102 H1105 0.929 . S
C1103 C1102 1.363 . S
C1103 C1109 1.428 . S
H1104 C1100 0.930 . S
H1105 C1102 0.929 . S
S1106 N1107 1.613 . S
S1106 N1108 1.610 . S
N1107 S1106 1.613 . S
N1107 C1110 1.350 . S
N1108 S1106 1.610 . S
N1108 C1109 1.351 . S
C1109 C1103 1.428 . S
C1109 N1108 1.351 . S
C1109 C1110 1.434 . S
C1110 C1101 1.429 . S
C1110 N1107 1.350 . S
C1110 C1109 1.434 . S
C1111 C1112 1.369 . S
C1111 C1113 1.419 . S
C1111 H1115 0.930 . S
C1112 C1111 1.369 . S
C1112 C1121 1.429 . S
C1113 C1111 1.419 . S
C1113 C1114 1.363 . S
C1113 H1116 0.929 . S
C1114 C1113 1.363 . S
C1114 C1120 1.428 . S
H1115 C1111 0.930 . S
H1116 C1113 0.929 . S
S1117 N1118 1.613 . S
S1117 N1119 1.610 . S
N1118 S1117 1.613 . S
N1118 C1121 1.350 . S
N1119 S1117 1.610 . S
N1119 C1120 1.351 . S
C1120 C1114 1.428 . S
C1120 N1119 1.351 . S
C1120 C1121 1.434 . S
C1121 C1112 1.429 . S
C1121 N1118 1.350 . S
C1121 C1120 1.434 . S
C1122 C1123 1.369 . S
C1122 C1124 1.419 1_655 S
C1122 H1126 0.930 . S
C1123 C1122 1.369 . S
C1123 C1132 1.429 . S
C1124 C1122 1.419 1_455 S
C1124 C1125 1.363 . S
C1124 H1127 0.929 . S
C1125 C1124 1.363 . S
C1125 C1131 1.428 . S
H1126 C1122 0.930 . S
H1127 C1124 0.929 . S
S1128 N1129 1.613 1_455 S
S1128 N1130 1.610 . S
N1129 S1128 1.613 1_655 S
N1129 C1132 1.350 . S
N1130 S1128 1.610 . S
N1130 C1131 1.351 . S
C1131 C1125 1.428 . S
C1131 N1130 1.351 . S
C1131 C1132 1.434 1_455 S
C1132 C1123 1.429 . S
C1132 N1129 1.350 . S
C1132 C1131 1.434 1_655 S
C1133 C1134 1.369 . S
C1133 C1135 1.419 . S
C1133 H1137 0.930 . S
C1134 C1133 1.369 . S
C1134 C1143 1.429 . S
C1135 C1133 1.419 . S
C1135 C1136 1.363 . S
C1135 H1138 0.929 . S
C1136 C1135 1.363 . S
C1136 C1142 1.428 . S
H1137 C1133 0.930 . S
H1138 C1135 0.929 . S
S1139 N1140 1.613 . S
S1139 N1141 1.610 . S
N1140 S1139 1.613 . S
N1140 C1143 1.350 . S
N1141 S1139 1.610 . S
N1141 C1142 1.351 . S
C1142 C1136 1.428 . S
C1142 N1141 1.351 . S
C1142 C1143 1.434 . S
C1143 C1134 1.429 . S
C1143 N1140 1.350 . S
C1143 C1142 1.434 . S
C1144 C1145 1.369 . S
C1144 C1146 1.419 1_545 S
C1144 H1148 0.930 . S
C1145 C1144 1.369 . S
C1145 C1154 1.429 . S
C1146 C1144 1.419 1_565 S
C1146 C1147 1.363 . S
C1146 H1149 0.929 . S
C1147 C1146 1.363 . S
C1147 C1153 1.428 . S
H1148 C1144 0.930 . S
H1149 C1146 0.929 . S
S1150 N1151 1.613 . S
S1150 N1152 1.610 1_545 S
N1151 S1150 1.613 . S
N1151 C1154 1.350 . S
N1152 S1150 1.610 1_565 S
N1152 C1153 1.351 . S
C1153 C1147 1.428 . S
C1153 N1152 1.351 . S
C1153 C1154 1.434 1_565 S
C1154 C1145 1.429 . S
C1154 N1151 1.350 . S
C1154 C1153 1.434 1_545 S
C1155 C1156 1.369 . S
C1155 C1157 1.419 . S
C1155 H1159 0.930 . S
C1156 C1155 1.369 . S
C1156 C1165 1.429 . S
C1157 C1155 1.419 . S
C1157 C1158 1.363 . S
C1157 H1160 0.929 . S
C1158 C1157 1.363 . S
C1158 C1164 1.428 . S
H1159 C1155 0.930 . S
H1160 C1157 0.929 . S
S1161 N1162 1.613 . S
S1161 N1163 1.610 . S
N1162 S1161 1.613 . S
N1162 C1165 1.350 . S
N1163 S1161 1.610 . S
N1163 C1164 1.351 . S
C1164 C1158 1.428 . S
C1164 N1163 1.351 . S
C1164 C1165 1.434 . S
C1165 C1156 1.429 . S
C1165 N1162 1.350 . S
C1165 C1164 1.434 . S
C1166 C1167 1.369 . S
C1166 C1168 1.419 . S
C1166 H1170 0.930 . S
C1167 C1166 1.369 . S
C1167 C1176 1.429 . S
C1168 C1166 1.419 . S
C1168 C1169 1.363 . S
C1168 H1171 0.929 . S
C1169 C1168 1.363 . S
C1169 C1175 1.428 . S
H1170 C1166 0.930 . S
H1171 C1168 0.929 . S
S1172 N1173 1.613 . S
S1172 N1174 1.610 . S
N1173 S1172 1.613 . S
N1173 C1176 1.350 . S
N1174 S1172 1.610 . S
N1174 C1175 1.351 . S
C1175 C1169 1.428 . S
C1175 N1174 1.351 . S
C1175 C1176 1.434 . S
C1176 C1167 1.429 . S
C1176 N1173 1.350 . S
C1176 C1175 1.434 . S
C1177 C1178 1.369 . S
C1177 C1179 1.419 . S
C1177 H1181 0.930 . S
C1178 C1177 1.369 . S
C1178 C1187 1.429 . S
C1179 C1177 1.419 . S
C1179 C1180 1.363 . S
C1179 H1182 0.929 . S
C1180 C1179 1.363 . S
C1180 C1186 1.428 . S
H1181 C1177 0.930 . S
H1182 C1179 0.929 . S
S1183 N1184 1.613 . S
S1183 N1185 1.610 . S
N1184 S1183 1.613 . S
N1184 C1187 1.350 . S
N1185 S1183 1.610 . S
N1185 C1186 1.351 . S
C1186 C1180 1.428 . S
C1186 N1185 1.351 . S
C1186 C1187 1.434 . S
C1187 C1178 1.429 . S
C1187 N1184 1.350 . S
C1187 C1186 1.434 . S
C1188 C1189 1.369 . S
C1188 C1190 1.419 . S
C1188 H1192 0.930 . S
C1189 C1188 1.369 . S
C1189 C1198 1.429 . S
C1190 C1188 1.419 . S
C1190 C1191 1.363 . S
C1190 H1193 0.929 . S
C1191 C1190 1.363 . S
C1191 C1197 1.428 . S
H1192 C1188 0.930 . S
H1193 C1190 0.929 . S
S1194 N1195 1.613 . S
S1194 N1196 1.610 . S
N1195 S1194 1.613 . S
N1195 C1198 1.350 . S
N1196 S1194 1.610 . S
N1196 C1197 1.351 . S
C1197 C1191 1.428 . S
C1197 N1196 1.351 . S
C1197 C1198 1.434 . S
C1198 C1189 1.429 . S
C1198 N1195 1.350 . S
C1198 C1197 1.434 . S
C1199 C1200 1.369 . S
C1199 C1201 1.419 . S
C1199 H1203 0.930 . S
C1200 C1199 1.369 . S
C1200 C1209 1.429 . S
C1201 C1199 1.419 . S
C1201 C1202 1.363 . S
C1201 H1204 0.929 . S
C1202 C1201 1.363 . S
C1202 C1208 1.428 . S
H1203 C1199 0.930 . S
H1204 C1201 0.929 . S
S1205 N1206 1.613 . S
S1205 N1207 1.610 . S
N1206 S1205 1.613 . S
N1206 C1209 1.350 . S
N1207 S1205 1.610 . S
N1207 C1208 1.351 . S
C1208 C1202 1.428 . S
C1208 N1207 1.351 . S
C1208 C1209 1.434 . S
C1209 C1200 1.429 . S
C1209 N1206 1.350 . S
C1209 C1208 1.434 . S
C1210 C1211 1.369 . S
C1210 C1212 1.419 . S
C1210 H1214 0.930 . S
C1211 C1210 1.369 . S
C1211 C1220 1.429 . S
C1212 C1210 1.419 . S
C1212 C1213 1.363 . S
C1212 H1215 0.929 . S
C1213 C1212 1.363 . S
C1213 C1219 1.428 . S
H1214 C1210 0.930 . S
H1215 C1212 0.929 . S
S1216 N1217 1.613 . S
S1216 N1218 1.610 . S
N1217 S1216 1.613 . S
N1217 C1220 1.350 . S
N1218 S1216 1.610 . S
N1218 C1219 1.351 . S
C1219 C1213 1.428 . S
C1219 N1218 1.351 . S
C1219 C1220 1.434 . S
C1220 C1211 1.429 . S
C1220 N1217 1.350 . S
C1220 C1219 1.434 . S
C1221 C1222 1.369 . S
C1221 C1223 1.419 . S
C1221 H1225 0.930 . S
C1222 C1221 1.369 . S
C1222 C1231 1.429 . S
C1223 C1221 1.419 . S
C1223 C1224 1.363 . S
C1223 H1226 0.929 . S
C1224 C1223 1.363 . S
C1224 C1230 1.428 . S
H1225 C1221 0.930 . S
H1226 C1223 0.929 . S
S1227 N1228 1.613 . S
S1227 N1229 1.610 . S
N1228 S1227 1.613 . S
N1228 C1231 1.350 . S
N1229 S1227 1.610 . S
N1229 C1230 1.351 . S
C1230 C1224 1.428 . S
C1230 N1229 1.351 . S
C1230 C1231 1.434 . S
C1231 C1222 1.429 . S
C1231 N1228 1.350 . S
C1231 C1230 1.434 . S
C1232 C1233 1.369 . S
C1232 C1234 1.419 . S
C1232 H1236 0.930 . S
C1233 C1232 1.369 . S
C1233 C1242 1.429 . S
C1234 C1232 1.419 . S
C1234 C1235 1.363 . S
C1234 H1237 0.929 . S
C1235 C1234 1.363 . S
C1235 C1241 1.428 . S
H1236 C1232 0.930 . S
H1237 C1234 0.929 . S
S1238 N1239 1.613 . S
S1238 N1240 1.610 . S
N1239 S1238 1.613 . S
N1239 C1242 1.350 . S
N1240 S1238 1.610 . S
N1240 C1241 1.351 . S
C1241 C1235 1.428 . S
C1241 N1240 1.351 . S
C1241 C1242 1.434 . S
C1242 C1233 1.429 . S
C1242 N1239 1.350 . S
C1242 C1241 1.434 . S
C1243 C1244 1.369 . S
C1243 C1245 1.419 . S
C1243 H1247 0.930 . S
C1244 C1243 1.369 . S
C1244 C1253 1.429 . S
C1245 C1243 1.419 . S
C1245 C1246 1.363 . S
C1245 H1248 0.929 . S
C1246 C1245 1.363 . S
C1246 C1252 1.428 . S
H1247 C1243 0.930 . S
H1248 C1245 0.929 . S
S1249 N1250 1.613 . S
S1249 N1251 1.610 . S
N1250 S1249 1.613 . S
N1250 C1253 1.350 . S
N1251 S1249 1.610 . S
N1251 C1252 1.351 . S
C1252 C1246 1.428 . S
C1252 N1251 1.351 . S
C1252 C1253 1.434 . S
C1253 C1244 1.429 . S
C1253 N1250 1.350 . S
C1253 C1252 1.434 . S
C1254 C1255 1.369 . S
C1254 C1256 1.419 . S
C1254 H1258 0.930 . S
C1255 C1254 1.369 . S
C1255 C1264 1.429 . S
C1256 C1254 1.419 . S
C1256 C1257 1.363 . S
C1256 H1259 0.929 . S
C1257 C1256 1.363 . S
C1257 C1263 1.428 . S
H1258 C1254 0.930 . S
H1259 C1256 0.929 . S
S1260 N1261 1.613 . S
S1260 N1262 1.610 . S
N1261 S1260 1.613 . S
N1261 C1264 1.350 . S
N1262 S1260 1.610 . S
N1262 C1263 1.351 . S
C1263 C1257 1.428 . S
C1263 N1262 1.351 . S
C1263 C1264 1.434 . S
C1264 C1255 1.429 . S
C1264 N1261 1.350 . S
C1264 C1263 1.434 . S
C1265 C1266 1.369 . S
C1265 C1267 1.419 . S
C1265 H1269 0.930 . S
C1266 C1265 1.369 . S
C1266 C1275 1.429 . S
C1267 C1265 1.419 . S
C1267 C1268 1.363 . S
C1267 H1270 0.929 . S
C1268 C1267 1.363 . S
C1268 C1274 1.428 . S
H1269 C1265 0.930 . S
H1270 C1267 0.929 . S
S1271 N1272 1.613 . S
S1271 N1273 1.610 . S
N1272 S1271 1.613 . S
N1272 C1275 1.350 . S
N1273 S1271 1.610 . S
N1273 C1274 1.351 . S
C1274 C1268 1.428 . S
C1274 N1273 1.351 . S
C1274 C1275 1.434 . S
C1275 C1266 1.429 . S
C1275 N1272 1.350 . S
C1275 C1274 1.434 . S
C1276 C1277 1.369 . S
C1276 C1278 1.419 . S
C1276 H1280 0.930 . S
C1277 C1276 1.369 . S
C1277 C1286 1.429 . S
C1278 C1276 1.419 . S
C1278 C1279 1.363 . S
C1278 H1281 0.929 . S
C1279 C1278 1.363 . S
C1279 C1285 1.428 . S
H1280 C1276 0.930 . S
H1281 C1278 0.929 . S
S1282 N1283 1.613 . S
S1282 N1284 1.610 . S
N1283 S1282 1.613 . S
N1283 C1286 1.350 . S
N1284 S1282 1.610 . S
N1284 C1285 1.351 . S
C1285 C1279 1.428 . S
C1285 N1284 1.351 . S
C1285 C1286 1.434 . S
C1286 C1277 1.429 . S
C1286 N1283 1.350 . S
C1286 C1285 1.434 . S
C1287 C1288 1.369 . S
C1287 C1289 1.419 1_565 S
C1287 H1291 0.930 . S
C1288 C1287 1.369 . S
C1288 C1297 1.429 . S
C1289 C1287 1.419 1_545 S
C1289 C1290 1.363 . S
C1289 H1292 0.929 . S
C1290 C1289 1.363 . S
C1290 C1296 1.428 . S
H1291 C1287 0.930 . S
H1292 C1289 0.929 . S
S1293 N1294 1.613 1_545 S
S1293 N1295 1.610 . S
N1294 S1293 1.613 1_565 S
N1294 C1297 1.350 . S
N1295 S1293 1.610 . S
N1295 C1296 1.351 . S
C1296 C1290 1.428 . S
C1296 N1295 1.351 . S
C1296 C1297 1.434 1_545 S
C1297 C1288 1.429 . S
C1297 N1294 1.350 . S
C1297 C1296 1.434 1_565 S
C1298 C1299 1.369 . S
C1298 C1300 1.419 1_455 S
C1298 H1302 0.930 . S
C1299 C1298 1.369 . S
C1299 C1308 1.429 . S
C1300 C1298 1.419 1_655 S
C1300 C1301 1.363 . S
C1300 H1303 0.929 . S
C1301 C1300 1.363 . S
C1301 C1307 1.428 . S
H1302 C1298 0.930 . S
H1303 C1300 0.929 . S
S1304 N1305 1.613 1_655 S
S1304 N1306 1.610 . S
N1305 S1304 1.613 1_455 S
N1305 C1308 1.350 . S
N1306 S1304 1.610 . S
N1306 C1307 1.351 . S
C1307 C1301 1.428 . S
C1307 N1306 1.351 . S
C1307 C1308 1.434 1_655 S
C1308 C1299 1.429 . S
C1308 N1305 1.350 . S
C1308 C1307 1.434 1_455 S
C1309 C1310 1.369 . S
C1309 C1311 1.419 . S
C1309 H1313 0.930 . S
C1310 C1309 1.369 . S
C1310 C1319 1.429 . S
C1311 C1309 1.419 . S
C1311 C1312 1.363 . S
C1311 H1314 0.929 . S
C1312 C1311 1.363 . S
C1312 C1318 1.428 . S
H1313 C1309 0.930 . S
H1314 C1311 0.929 . S
S1315 N1316 1.613 . S
S1315 N1317 1.610 . S
N1316 S1315 1.613 . S
N1316 C1319 1.350 . S
N1317 S1315 1.610 . S
N1317 C1318 1.351 . S
C1318 C1312 1.428 . S
C1318 N1317 1.351 . S
C1318 C1319 1.434 . S
C1319 C1310 1.429 . S
C1319 N1316 1.350 . S
C1319 C1318 1.434 . S
C1320 C1321 1.369 . S
C1320 C1322 1.419 . S
C1320 H1324 0.930 . S
C1321 C1320 1.369 . S
C1321 C1330 1.429 . S
C1322 C1320 1.419 . S
C1322 C1323 1.363 . S
C1322 H1325 0.929 . S
C1323 C1322 1.363 . S
C1323 C1329 1.428 . S
H1324 C1320 0.930 . S
H1325 C1322 0.929 . S
S1326 N1327 1.613 . S
S1326 N1328 1.610 . S
N1327 S1326 1.613 . S
N1327 C1330 1.350 . S
N1328 S1326 1.610 . S
N1328 C1329 1.351 . S
C1329 C1323 1.428 . S
C1329 N1328 1.351 . S
C1329 C1330 1.434 . S
C1330 C1321 1.429 . S
C1330 N1327 1.350 . S
C1330 C1329 1.434 . S
C1331 C1332 1.369 . S
C1331 C1333 1.419 . S
C1331 H1335 0.930 . S
C1332 C1331 1.369 . S
C1332 C1341 1.429 . S
C1333 C1331 1.419 . S
C1333 C1334 1.363 . S
C1333 H1336 0.929 . S
C1334 C1333 1.363 . S
C1334 C1340 1.428 . S
H1335 C1331 0.930 . S
H1336 C1333 0.929 . S
S1337 N1338 1.613 . S
S1337 N1339 1.610 . S
N1338 S1337 1.613 . S
N1338 C1341 1.350 . S
N1339 S1337 1.610 . S
N1339 C1340 1.351 . S
C1340 C1334 1.428 . S
C1340 N1339 1.351 . S
C1340 C1341 1.434 . S
C1341 C1332 1.429 . S
C1341 N1338 1.350 . S
C1341 C1340 1.434 . S
C1342 C1343 1.369 . S
C1342 C1344 1.419 . S
C1342 H1346 0.930 . S
C1343 C1342 1.369 . S
C1343 C1352 1.429 . S
C1344 C1342 1.419 . S
C1344 C1345 1.363 . S
C1344 H1347 0.929 . S
C1345 C1344 1.363 . S
C1345 C1351 1.428 . S
H1346 C1342 0.930 . S
H1347 C1344 0.929 . S
S1348 N1349 1.613 . S
S1348 N1350 1.610 . S
N1349 S1348 1.613 . S
N1349 C1352 1.350 . S
N1350 S1348 1.610 . S
N1350 C1351 1.351 . S
C1351 C1345 1.428 . S
C1351 N1350 1.351 . S
C1351 C1352 1.434 . S
C1352 C1343 1.429 . S
C1352 N1349 1.350 . S
C1352 C1351 1.434 . S
C1353 C1354 1.369 . S
C1353 C1355 1.419 . S
C1353 H1357 0.930 . S
C1354 C1353 1.369 . S
C1354 C1363 1.429 . S
C1355 C1353 1.419 . S
C1355 C1356 1.363 . S
C1355 H1358 0.929 . S
C1356 C1355 1.363 . S
C1356 C1362 1.428 . S
H1357 C1353 0.930 . S
H1358 C1355 0.929 . S
S1359 N1360 1.613 . S
S1359 N1361 1.610 . S
N1360 S1359 1.613 . S
N1360 C1363 1.350 . S
N1361 S1359 1.610 . S
N1361 C1362 1.351 . S
C1362 C1356 1.428 . S
C1362 N1361 1.351 . S
C1362 C1363 1.434 . S
C1363 C1354 1.429 . S
C1363 N1360 1.350 . S
C1363 C1362 1.434 . S
C1364 C1365 1.369 . S
C1364 C1366 1.419 . S
C1364 H1368 0.930 . S
C1365 C1364 1.369 . S
C1365 C1374 1.429 . S
C1366 C1364 1.419 . S
C1366 C1367 1.363 . S
C1366 H1369 0.929 . S
C1367 C1366 1.363 . S
C1367 C1373 1.428 . S
H1368 C1364 0.930 . S
H1369 C1366 0.929 . S
S1370 N1371 1.613 . S
S1370 N1372 1.610 . S
N1371 S1370 1.613 . S
N1371 C1374 1.350 . S
N1372 S1370 1.610 . S
N1372 C1373 1.351 . S
C1373 C1367 1.428 . S
C1373 N1372 1.351 . S
C1373 C1374 1.434 . S
C1374 C1365 1.429 . S
C1374 N1371 1.350 . S
C1374 C1373 1.434 . S
C1375 C1376 1.369 . S
C1375 C1377 1.419 . S
C1375 H1379 0.930 . S
C1376 C1375 1.369 . S
C1376 C1385 1.429 . S
C1377 C1375 1.419 . S
C1377 C1378 1.363 . S
C1377 H1380 0.929 . S
C1378 C1377 1.363 . S
C1378 C1384 1.428 . S
H1379 C1375 0.930 . S
H1380 C1377 0.929 . S
S1381 N1382 1.613 . S
S1381 N1383 1.610 . S
N1382 S1381 1.613 . S
N1382 C1385 1.350 . S
N1383 S1381 1.610 . S
N1383 C1384 1.351 . S
C1384 C1378 1.428 . S
C1384 N1383 1.351 . S
C1384 C1385 1.434 . S
C1385 C1376 1.429 . S
C1385 N1382 1.350 . S
C1385 C1384 1.434 . S
C1386 C1387 1.369 . S
C1386 C1388 1.419 . S
C1386 H1390 0.930 . S
C1387 C1386 1.369 . S
C1387 C1396 1.429 . S
C1388 C1386 1.419 . S
C1388 C1389 1.363 . S
C1388 H1391 0.929 . S
C1389 C1388 1.363 . S
C1389 C1395 1.428 . S
H1390 C1386 0.930 . S
H1391 C1388 0.929 . S
S1392 N1393 1.613 . S
S1392 N1394 1.610 . S
N1393 S1392 1.613 . S
N1393 C1396 1.350 . S
N1394 S1392 1.610 . S
N1394 C1395 1.351 . S
C1395 C1389 1.428 . S
C1395 N1394 1.351 . S
C1395 C1396 1.434 . S
C1396 C1387 1.429 . S
C1396 N1393 1.350 . S
C1396 C1395 1.434 . S
C1397 C1398 1.369 . S
C1397 C1399 1.419 . S
C1397 H1401 0.930 . S
C1398 C1397 1.369 . S
C1398 C1407 1.429 . S
C1399 C1397 1.419 . S
C1399 C1400 1.363 . S
C1399 H1402 0.929 . S
C1400 C1399 1.363 . S
C1400 C1406 1.428 . S
H1401 C1397 0.930 . S
H1402 C1399 0.929 . S
S1403 N1404 1.613 . S
S1403 N1405 1.610 . S
N1404 S1403 1.613 . S
N1404 C1407 1.350 . S
N1405 S1403 1.610 . S
N1405 C1406 1.351 . S
C1406 C1400 1.428 . S
C1406 N1405 1.351 . S
C1406 C1407 1.434 . S
C1407 C1398 1.429 . S
C1407 N1404 1.350 . S
C1407 C1406 1.434 . S
C1408 C1409 1.369 . S
C1408 C1410 1.419 . S
C1408 H1412 0.930 . S
C1409 C1408 1.369 . S
C1409 C1418 1.429 . S
C1410 C1408 1.419 . S
C1410 C1411 1.363 . S
C1410 H1413 0.929 . S
C1411 C1410 1.363 . S
C1411 C1417 1.428 . S
H1412 C1408 0.930 . S
H1413 C1410 0.929 . S
S1414 N1415 1.613 . S
S1414 N1416 1.610 . S
N1415 S1414 1.613 . S
N1415 C1418 1.350 . S
N1416 S1414 1.610 . S
N1416 C1417 1.351 . S
C1417 C1411 1.428 . S
C1417 N1416 1.351 . S
C1417 C1418 1.434 . S
C1418 C1409 1.429 . S
C1418 N1415 1.350 . S
C1418 C1417 1.434 . S
C1419 C1420 1.369 . S
C1419 C1421 1.419 . S
C1419 H1423 0.930 . S
C1420 C1419 1.369 . S
C1420 C1429 1.429 . S
C1421 C1419 1.419 . S
C1421 C1422 1.363 . S
C1421 H1424 0.929 . S
C1422 C1421 1.363 . S
C1422 C1428 1.428 . S
H1423 C1419 0.930 . S
H1424 C1421 0.929 . S
S1425 N1426 1.613 . S
S1425 N1427 1.610 . S
N1426 S1425 1.613 . S
N1426 C1429 1.350 . S
N1427 S1425 1.610 . S
N1427 C1428 1.351 . S
C1428 C1422 1.428 . S
C1428 N1427 1.351 . S
C1428 C1429 1.434 . S
C1429 C1420 1.429 . S
C1429 N1426 1.350 . S
C1429 C1428 1.434 . S
C1430 C1431 1.369 . S
C1430 C1432 1.419 . S
C1430 H1434 0.930 . S
C1431 C1430 1.369 . S
C1431 C1440 1.429 . S
C1432 C1430 1.419 . S
C1432 C1433 1.363 . S
C1432 H1435 0.929 . S
C1433 C1432 1.363 . S
C1433 C1439 1.428 . S
H1434 C1430 0.930 . S
H1435 C1432 0.929 . S
S1436 N1437 1.613 . S
S1436 N1438 1.610 . S
N1437 S1436 1.613 . S
N1437 C1440 1.350 . S
N1438 S1436 1.610 . S
N1438 C1439 1.351 . S
C1439 C1433 1.428 . S
C1439 N1438 1.351 . S
C1439 C1440 1.434 . S
C1440 C1431 1.429 . S
C1440 N1437 1.350 . S
C1440 C1439 1.434 . S
C1441 C1442 1.369 . S
C1441 C1443 1.419 . S
C1441 H1445 0.930 . S
C1442 C1441 1.369 . S
C1442 C1451 1.429 . S
C1443 C1441 1.419 . S
C1443 C1444 1.363 . S
C1443 H1446 0.929 . S
C1444 C1443 1.363 . S
C1444 C1450 1.428 . S
H1445 C1441 0.930 . S
H1446 C1443 0.929 . S
S1447 N1448 1.613 . S
S1447 N1449 1.610 . S
N1448 S1447 1.613 . S
N1448 C1451 1.350 . S
N1449 S1447 1.610 . S
N1449 C1450 1.351 . S
C1450 C1444 1.428 . S
C1450 N1449 1.351 . S
C1450 C1451 1.434 . S
C1451 C1442 1.429 . S
C1451 N1448 1.350 . S
C1451 C1450 1.434 . S
C1452 C1453 1.369 . S
C1452 C1454 1.419 . S
C1452 H1456 0.930 . S
C1453 C1452 1.369 . S
C1453 C1462 1.429 . S
C1454 C1452 1.419 . S
C1454 C1455 1.363 . S
C1454 H1457 0.929 . S
C1455 C1454 1.363 . S
C1455 C1461 1.428 . S
H1456 C1452 0.930 . S
H1457 C1454 0.929 . S
S1458 N1459 1.613 . S
S1458 N1460 1.610 . S
N1459 S1458 1.613 . S
N1459 C1462 1.350 . S
N1460 S1458 1.610 . S
N1460 C1461 1.351 . S
C1461 C1455 1.428 . S
C1461 N1460 1.351 . S
C1461 C1462 1.434 . S
C1462 C1453 1.429 . S
C1462 N1459 1.350 . S
C1462 C1461 1.434 . S
C1463 C1464 1.369 . S
C1463 C1465 1.419 . S
C1463 H1467 0.930 . S
C1464 C1463 1.369 . S
C1464 C1473 1.429 . S
C1465 C1463 1.419 . S
C1465 C1466 1.363 . S
C1465 H1468 0.929 . S
C1466 C1465 1.363 . S
C1466 C1472 1.428 . S
H1467 C1463 0.930 . S
H1468 C1465 0.929 . S
S1469 N1470 1.613 . S
S1469 N1471 1.610 . S
N1470 S1469 1.613 . S
N1470 C1473 1.350 . S
N1471 S1469 1.610 . S
N1471 C1472 1.351 . S
C1472 C1466 1.428 . S
C1472 N1471 1.351 . S
C1472 C1473 1.434 . S
C1473 C1464 1.429 . S
C1473 N1470 1.350 . S
C1473 C1472 1.434 . S
C1474 C1475 1.369 . S
C1474 C1476 1.419 . S
C1474 H1478 0.930 . S
C1475 C1474 1.369 . S
C1475 C1484 1.429 . S
C1476 C1474 1.419 . S
C1476 C1477 1.363 . S
C1476 H1479 0.929 . S
C1477 C1476 1.363 . S
C1477 C1483 1.428 . S
H1478 C1474 0.930 . S
H1479 C1476 0.929 . S
S1480 N1481 1.613 . S
S1480 N1482 1.610 . S
N1481 S1480 1.613 . S
N1481 C1484 1.350 . S
N1482 S1480 1.610 . S
N1482 C1483 1.351 . S
C1483 C1477 1.428 . S
C1483 N1482 1.351 . S
C1483 C1484 1.434 . S
C1484 C1475 1.429 . S
C1484 N1481 1.350 . S
C1484 C1483 1.434 . S
C1485 C1486 1.369 . S
C1485 C1487 1.419 . S
C1485 H1489 0.930 . S
C1486 C1485 1.369 . S
C1486 C1495 1.429 . S
C1487 C1485 1.419 . S
C1487 C1488 1.363 . S
C1487 H1490 0.929 . S
C1488 C1487 1.363 . S
C1488 C1494 1.428 . S
H1489 C1485 0.930 . S
H1490 C1487 0.929 . S
S1491 N1492 1.613 . S
S1491 N1493 1.610 . S
N1492 S1491 1.613 . S
N1492 C1495 1.350 . S
N1493 S1491 1.610 . S
N1493 C1494 1.351 . S
C1494 C1488 1.428 . S
C1494 N1493 1.351 . S
C1494 C1495 1.434 . S
C1495 C1486 1.429 . S
C1495 N1492 1.350 . S
C1495 C1494 1.434 . S
C1496 C1497 1.369 . S
C1496 C1498 1.419 . S
C1496 H1500 0.930 . S
C1497 C1496 1.369 . S
C1497 C1506 1.429 . S
C1498 C1496 1.419 . S
C1498 C1499 1.363 . S
C1498 H1501 0.929 . S
C1499 C1498 1.363 . S
C1499 C1505 1.428 . S
H1500 C1496 0.930 . S
H1501 C1498 0.929 . S
S1502 N1503 1.613 . S
S1502 N1504 1.610 . S
N1503 S1502 1.613 . S
N1503 C1506 1.350 . S
N1504 S1502 1.610 . S
N1504 C1505 1.351 . S
C1505 C1499 1.428 . S
C1505 N1504 1.351 . S
C1505 C1506 1.434 . S
C1506 C1497 1.429 . S
C1506 N1503 1.350 . S
C1506 C1505 1.434 . S
C1507 C1508 1.369 . S
C1507 C1509 1.419 . S
C1507 H1511 0.930 . S
C1508 C1507 1.369 . S
C1508 C1517 1.429 . S
C1509 C1507 1.419 . S
C1509 C1510 1.363 . S
C1509 H1512 0.929 . S
C1510 C1509 1.363 . S
C1510 C1516 1.428 . S
H1511 C1507 0.930 . S
H1512 C1509 0.929 . S
S1513 N1514 1.613 . S
S1513 N1515 1.610 . S
N1514 S1513 1.613 . S
N1514 C1517 1.350 . S
N1515 S1513 1.610 . S
N1515 C1516 1.351 . S
C1516 C1510 1.428 . S
C1516 N1515 1.351 . S
C1516 C1517 1.434 . S
C1517 C1508 1.429 . S
C1517 N1514 1.350 . S
C1517 C1516 1.434 . S
C1518 C1519 1.369 . S
C1518 C1520 1.419 . S
C1518 H1522 0.930 . S
C1519 C1518 1.369 . S
C1519 C1528 1.429 . S
C1520 C1518 1.419 . S
C1520 C1521 1.363 . S
C1520 H1523 0.929 . S
C1521 C1520 1.363 . S
C1521 C1527 1.428 . S
H1522 C1518 0.930 . S
H1523 C1520 0.929 . S
S1524 N1525 1.613 . S
S1524 N1526 1.610 . S
N1525 S1524 1.613 . S
N1525 C1528 1.350 . S
N1526 S1524 1.610 . S
N1526 C1527 1.351 . S
C1527 C1521 1.428 . S
C1527 N1526 1.351 . S
C1527 C1528 1.434 . S
C1528 C1519 1.429 . S
C1528 N1525 1.350 . S
C1528 C1527 1.434 . S
C1529 C1530 1.369 . S
C1529 C1531 1.419 . S
C1529 H1533 0.930 . S
C1530 C1529 1.369 . S
C1530 C1539 1.429 . S
C1531 C1529 1.419 . S
C1531 C1532 1.363 . S
C1531 H1534 0.929 . S
C1532 C1531 1.363 . S
C1532 C1538 1.428 . S
H1533 C1529 0.930 . S
H1534 C1531 0.929 . S
S1535 N1536 1.613 . S
S1535 N1537 1.610 . S
N1536 S1535 1.613 . S
N1536 C1539 1.350 . S
N1537 S1535 1.610 . S
N1537 C1538 1.351 . S
C1538 C1532 1.428 . S
C1538 N1537 1.351 . S
C1538 C1539 1.434 . S
C1539 C1530 1.429 . S
C1539 N1536 1.350 . S
C1539 C1538 1.434 . S
C1540 C1541 1.369 . S
C1540 C1542 1.419 . S
C1540 H1544 0.930 . S
C1541 C1540 1.369 . S
C1541 C1550 1.429 . S
C1542 C1540 1.419 . S
C1542 C1543 1.363 . S
C1542 H1545 0.929 . S
C1543 C1542 1.363 . S
C1543 C1549 1.428 . S
H1544 C1540 0.930 . S
H1545 C1542 0.929 . S
S1546 N1547 1.613 . S
S1546 N1548 1.610 . S
N1547 S1546 1.613 . S
N1547 C1550 1.350 . S
N1548 S1546 1.610 . S
N1548 C1549 1.351 . S
C1549 C1543 1.428 . S
C1549 N1548 1.351 . S
C1549 C1550 1.434 . S
C1550 C1541 1.429 . S
C1550 N1547 1.350 . S
C1550 C1549 1.434 . S
C1551 C1552 1.369 . S
C1551 C1553 1.419 . S
C1551 H1555 0.930 . S
C1552 C1551 1.369 . S
C1552 C1561 1.429 . S
C1553 C1551 1.419 . S
C1553 C1554 1.363 . S
C1553 H1556 0.929 . S
C1554 C1553 1.363 . S
C1554 C1560 1.428 . S
H1555 C1551 0.930 . S
H1556 C1553 0.929 . S
S1557 N1558 1.613 . S
S1557 N1559 1.610 . S
N1558 S1557 1.613 . S
N1558 C1561 1.350 . S
N1559 S1557 1.610 . S
N1559 C1560 1.351 . S
C1560 C1554 1.428 . S
C1560 N1559 1.351 . S
C1560 C1561 1.434 . S
C1561 C1552 1.429 . S
C1561 N1558 1.350 . S
C1561 C1560 1.434 . S
C1562 C1563 1.369 . S
C1562 C1564 1.419 . S
C1562 H1566 0.930 . S
C1563 C1562 1.369 . S
C1563 C1572 1.429 . S
C1564 C1562 1.419 . S
C1564 C1565 1.363 . S
C1564 H1567 0.929 . S
C1565 C1564 1.363 . S
C1565 C1571 1.428 . S
H1566 C1562 0.930 . S
H1567 C1564 0.929 . S
S1568 N1569 1.613 . S
S1568 N1570 1.610 . S
N1569 S1568 1.613 . S
N1569 C1572 1.350 . S
N1570 S1568 1.610 . S
N1570 C1571 1.351 . S
C1571 C1565 1.428 . S
C1571 N1570 1.351 . S
C1571 C1572 1.434 . S
C1572 C1563 1.429 . S
C1572 N1569 1.350 . S
C1572 C1571 1.434 . S
C1573 C1574 1.369 . S
C1573 C1575 1.419 . S
C1573 H1577 0.930 . S
C1574 C1573 1.369 . S
C1574 C1583 1.429 . S
C1575 C1573 1.419 . S
C1575 C1576 1.363 . S
C1575 H1578 0.929 . S
C1576 C1575 1.363 . S
C1576 C1582 1.428 . S
H1577 C1573 0.930 . S
H1578 C1575 0.929 . S
S1579 N1580 1.613 . S
S1579 N1581 1.610 . S
N1580 S1579 1.613 . S
N1580 C1583 1.350 . S
N1581 S1579 1.610 . S
N1581 C1582 1.351 . S
C1582 C1576 1.428 . S
C1582 N1581 1.351 . S
C1582 C1583 1.434 . S
C1583 C1574 1.429 . S
C1583 N1580 1.350 . S
C1583 C1582 1.434 . S
C991 C177 1.475 . S
C993 C301 1.415 . S
C1002 C190 1.502 . S
C1004 C385 1.450 . S
C1013 C164 1.473 . S
C1015 C465 1.468 . S
C1024 C151 1.461 . S
C1026 C381 1.463 . S
C1037 C469 1.403 . S
C1035 C125 1.465 . S
C1046 C138 1.437 . S
C1048 C297 1.437 . S
C1059 C290 1.456 . S
C1057 C147 1.463 . S
C1070 C374 1.485 . S
C1068 C121 1.484 . S
C1079 C134 1.478 . S
C1081 C476 1.482 . S
C1090 C173 1.452 . S
C1092 C392 1.460 . S
C1101 C186 1.437 . S
C1103 C458 1.431 . S
C1114 C308 1.440 . S
C1112 C160 1.442 . S
C1125 C553 1.413 . S
C1123 C21 1.474 . S
C1134 C34 1.503 . S
C1136 C637 1.450 . S
C1145 C8 1.470 . S
C1147 C717 1.468 . S
C1156 C229 1.462 . S
C1158 C633 1.462 . S
C1167 C203 1.467 . S
C1169 C721 1.402 . S
C1178 C216 1.437 . S
C1180 C549 1.437 . S
C1189 C225 1.471 . S
C1191 C542 1.462 . S
C1200 C199 1.485 . S
C1202 C626 1.485 . S
C1213 C728 1.483 . S
C1211 C212 1.479 . S
C1222 C17 1.453 1_565 S
C1224 C644 1.462 . S
C1235 C710 1.439 . S
C1233 C30 1.447 1_455 S
C1244 C4 1.451 . S
C1246 C560 1.445 . S
C1257 C805 1.415 . S
C1255 C99 1.475 . S
C1266 C112 1.499 . S
C1268 C889 1.444 . S
C1279 C969 1.468 . S
C1277 C86 1.472 . S
C1290 C885 1.462 . S
C1288 C73 1.459 . S
C1301 C973 1.407 . S
C1299 C47 1.468 . S
C1310 C60 1.440 . S
C1312 C801 1.435 . S
C1321 C69 1.464 1_655 S
C1323 C794 1.456 . S
C1332 C43 1.484 . S
C1334 C878 1.485 . S
C1345 C980 1.480 . S
C1343 C56 1.487 1_545 S
C1354 C95 1.457 . S
C1356 C896 1.464 . S
C1365 C108 1.437 . S
C1367 C962 1.431 . S
C1376 C82 1.443 . S
C1378 C812 1.444 . S
C1387 C204 1.570 . S
C1389 C304 1.465 . S
C1400 C388 1.480 . S
C1398 C217 1.615 . S
C1409 C230 1.572 . S
C1411 C460 1.374 . S
C1420 C87 1.580 . S
C1422 C376 1.377 . S
C1431 C100 1.583 . S
C1433 C472 1.456 . S
C1444 C292 1.367 . S
C1442 C113 1.542 . S
C1453 C48 1.572 . S
C1455 C556 1.461 . S
C1464 C61 1.613 . S
C1466 C640 1.478 . S
C1475 C74 1.568 . S
C1477 C712 1.378 . S
C1486 C165 1.583 . S
C1488 C628 1.380 . S
C1499 C724 1.449 . S
C1497 C178 1.578 . S
C1508 C191 1.537 . S
C1510 C544 1.374 . S
C1519 C126 1.576 . S
C1521 C808 1.467 . S
C1530 C139 1.612 . S
C1532 C892 1.475 . S
C1543 C964 1.374 . S
C1541 C152 1.572 . S
C1552 C9 1.584 . S
C1554 C880 1.375 . S
C1563 C22 1.582 . S
C1565 C976 1.457 . S
C1574 C35 1.543 . S
C1576 C796 1.368 . S
