# Generated by pormake.
# Topology eea, (3,6)-cn, num edge types: 1
# Building blocks:
#     Node 0, Type 0, BuildingBlock: KAKCAD_clean_linker_0, # of connection points: 3
#     Node 1, Type 0, BuildingBlock: KAKCAD_clean_linker_0, # of connection points: 3
#     Node 2, Type 0, BuildingBlock: KAKCAD_clean_linker_0, # of connection points: 3
#     Node 3, Type 0, BuildingBlock: KAKCAD_clean_linker_0, # of connection points: 3
#     Node 4, Type 0, BuildingBlock: KAKCAD_clean_linker_0, # of connection points: 3
#     Node 5, Type 0, BuildingBlock: KAKCAD_clean_linker_0, # of connection points: 3
#     Node 6, Type 0, BuildingBlock: KAKCAD_clean_linker_0, # of connection points: 3
#     Node 7, Type 0, BuildingBlock: KAKCAD_clean_linker_0, # of connection points: 3
#     Node 8, Type 0, BuildingBlock: KAKCAD_clean_linker_0, # of connection points: 3
#     Node 9, Type 0, BuildingBlock: KAKCAD_clean_linker_0, # of connection points: 3
#     Node 10, Type 0, BuildingBlock: KAKCAD_clean_linker_0, # of connection points: 3
#     Node 11, Type 0, BuildingBlock: KAKCAD_clean_linker_0, # of connection points: 3
#     Node 12, Type 0, BuildingBlock: KAKCAD_clean_linker_0, # of connection points: 3
#     Node 13, Type 0, BuildingBlock: KAKCAD_clean_linker_0, # of connection points: 3
#     Node 14, Type 0, BuildingBlock: KAKCAD_clean_linker_0, # of connection points: 3
#     Node 15, Type 0, BuildingBlock: KAKCAD_clean_linker_0, # of connection points: 3
#     Node 16, Type 0, BuildingBlock: KAKCAD_clean_linker_0, # of connection points: 3
#     Node 17, Type 0, BuildingBlock: KAKCAD_clean_linker_0, # of connection points: 3
#     Node 18, Type 1, BuildingBlock: CUWYAW_clean_sbu_0, # of connection points: 6
#     Node 19, Type 1, BuildingBlock: CUWYAW_clean_sbu_0, # of connection points: 6
#     Node 20, Type 1, BuildingBlock: CUWYAW_clean_sbu_0, # of connection points: 6
#     Node 21, Type 1, BuildingBlock: CUWYAW_clean_sbu_0, # of connection points: 6
#     Node 22, Type 1, BuildingBlock: CUWYAW_clean_sbu_0, # of connection points: 6
#     Node 23, Type 1, BuildingBlock: CUWYAW_clean_sbu_0, # of connection points: 6
#     Node 24, Type 1, BuildingBlock: CUWYAW_clean_sbu_0, # of connection points: 6
#     Node 25, Type 1, BuildingBlock: CUWYAW_clean_sbu_0, # of connection points: 6
#     Node 26, Type 1, BuildingBlock: CUWYAW_clean_sbu_0, # of connection points: 6
#     Edge 27, Type (0, 1), BuildingBlock: OJICUG_clean_linker_0, # of connection points: 2
#     Edge 28, Type (0, 1), BuildingBlock: OJICUG_clean_linker_0, # of connection points: 2
#     Edge 29, Type (0, 1), BuildingBlock: OJICUG_clean_linker_0, # of connection points: 2
#     Edge 30, Type (0, 1), BuildingBlock: OJICUG_clean_linker_0, # of connection points: 2
#     Edge 31, Type (0, 1), BuildingBlock: OJICUG_clean_linker_0, # of connection points: 2
#     Edge 32, Type (0, 1), BuildingBlock: OJICUG_clean_linker_0, # of connection points: 2
#     Edge 33, Type (0, 1), BuildingBlock: OJICUG_clean_linker_0, # of connection points: 2
#     Edge 34, Type (0, 1), BuildingBlock: OJICUG_clean_linker_0, # of connection points: 2
#     Edge 35, Type (0, 1), BuildingBlock: OJICUG_clean_linker_0, # of connection points: 2
#     Edge 36, Type (0, 1), BuildingBlock: OJICUG_clean_linker_0, # of connection points: 2
#     Edge 37, Type (0, 1), BuildingBlock: OJICUG_clean_linker_0, # of connection points: 2
#     Edge 38, Type (0, 1), BuildingBlock: OJICUG_clean_linker_0, # of connection points: 2
#     Edge 39, Type (0, 1), BuildingBlock: OJICUG_clean_linker_0, # of connection points: 2
#     Edge 40, Type (0, 1), BuildingBlock: OJICUG_clean_linker_0, # of connection points: 2
#     Edge 41, Type (0, 1), BuildingBlock: OJICUG_clean_linker_0, # of connection points: 2
#     Edge 42, Type (0, 1), BuildingBlock: OJICUG_clean_linker_0, # of connection points: 2
#     Edge 43, Type (0, 1), BuildingBlock: OJICUG_clean_linker_0, # of connection points: 2
#     Edge 44, Type (0, 1), BuildingBlock: OJICUG_clean_linker_0, # of connection points: 2
#     Edge 45, Type (0, 1), BuildingBlock: OJICUG_clean_linker_0, # of connection points: 2
#     Edge 46, Type (0, 1), BuildingBlock: OJICUG_clean_linker_0, # of connection points: 2
#     Edge 47, Type (0, 1), BuildingBlock: OJICUG_clean_linker_0, # of connection points: 2
#     Edge 48, Type (0, 1), BuildingBlock: OJICUG_clean_linker_0, # of connection points: 2
#     Edge 49, Type (0, 1), BuildingBlock: OJICUG_clean_linker_0, # of connection points: 2
#     Edge 50, Type (0, 1), BuildingBlock: OJICUG_clean_linker_0, # of connection points: 2
#     Edge 51, Type (0, 1), BuildingBlock: OJICUG_clean_linker_0, # of connection points: 2
#     Edge 52, Type (0, 1), BuildingBlock: OJICUG_clean_linker_0, # of connection points: 2
#     Edge 53, Type (0, 1), BuildingBlock: OJICUG_clean_linker_0, # of connection points: 2
#     Edge 54, Type (0, 1), BuildingBlock: OJICUG_clean_linker_0, # of connection points: 2
#     Edge 55, Type (0, 1), BuildingBlock: OJICUG_clean_linker_0, # of connection points: 2
#     Edge 56, Type (0, 1), BuildingBlock: OJICUG_clean_linker_0, # of connection points: 2
#     Edge 57, Type (0, 1), BuildingBlock: OJICUG_clean_linker_0, # of connection points: 2
#     Edge 58, Type (0, 1), BuildingBlock: OJICUG_clean_linker_0, # of connection points: 2
#     Edge 59, Type (0, 1), BuildingBlock: OJICUG_clean_linker_0, # of connection points: 2
#     Edge 60, Type (0, 1), BuildingBlock: OJICUG_clean_linker_0, # of connection points: 2
#     Edge 61, Type (0, 1), BuildingBlock: OJICUG_clean_linker_0, # of connection points: 2
#     Edge 62, Type (0, 1), BuildingBlock: OJICUG_clean_linker_0, # of connection points: 2
#     Edge 63, Type (0, 1), BuildingBlock: OJICUG_clean_linker_0, # of connection points: 2
#     Edge 64, Type (0, 1), BuildingBlock: OJICUG_clean_linker_0, # of connection points: 2
#     Edge 65, Type (0, 1), BuildingBlock: OJICUG_clean_linker_0, # of connection points: 2
#     Edge 66, Type (0, 1), BuildingBlock: OJICUG_clean_linker_0, # of connection points: 2
#     Edge 67, Type (0, 1), BuildingBlock: OJICUG_clean_linker_0, # of connection points: 2
#     Edge 68, Type (0, 1), BuildingBlock: OJICUG_clean_linker_0, # of connection points: 2
#     Edge 69, Type (0, 1), BuildingBlock: OJICUG_clean_linker_0, # of connection points: 2
#     Edge 70, Type (0, 1), BuildingBlock: OJICUG_clean_linker_0, # of connection points: 2
#     Edge 71, Type (0, 1), BuildingBlock: OJICUG_clean_linker_0, # of connection points: 2
#     Edge 72, Type (0, 1), BuildingBlock: OJICUG_clean_linker_0, # of connection points: 2
#     Edge 73, Type (0, 1), BuildingBlock: OJICUG_clean_linker_0, # of connection points: 2
#     Edge 74, Type (0, 1), BuildingBlock: OJICUG_clean_linker_0, # of connection points: 2
#     Edge 75, Type (0, 1), BuildingBlock: OJICUG_clean_linker_0, # of connection points: 2
#     Edge 76, Type (0, 1), BuildingBlock: OJICUG_clean_linker_0, # of connection points: 2
#     Edge 77, Type (0, 1), BuildingBlock: OJICUG_clean_linker_0, # of connection points: 2
#     Edge 78, Type (0, 1), BuildingBlock: OJICUG_clean_linker_0, # of connection points: 2
#     Edge 79, Type (0, 1), BuildingBlock: OJICUG_clean_linker_0, # of connection points: 2
#     Edge 80, Type (0, 1), BuildingBlock: OJICUG_clean_linker_0, # of connection points: 2
# Relax obj value: 0.034
# Max RMSD: 0.132
# Mean RMSD: 0.087
data_MOF--net-eea--node1-CUWYAW_clean_sbu_0--node2-KAKCAD_clean_linker_0--edge1-OJICUG_clean_linker_0
_symmetry_space_group_name_H-M    P1
_symmetry_Int_Tables_number       1
_symmetry_cell_setting            triclinic
loop_
_symmetry_equiv_pos_as_xyz
'x, y, z'
_cell_length_a     48.652221
_cell_length_b     48.198313
_cell_length_c     74.165282
_cell_angle_alpha  93.73731
_cell_angle_beta   93.115417
_cell_angle_gamma 120.01453
loop_
_atom_site_label
_atom_site_type_symbol
_atom_site_fract_x
_atom_site_fract_y
_atom_site_fract_z
_atom_type_partial_charge
C0 C 0.25773 0.14793 0.48145 0.0
C1 C 0.28244 0.14196 0.4865 0.0
C2 C 0.24758 0.14567 0.46312 0.0
C3 C 0.26177 0.13719 0.44947 0.0
C4 C 0.28696 0.13199 0.45448 0.0
C5 C 0.29726 0.13448 0.47277 0.0
C6 C 0.24945 0.13233 0.43009 0.0
C7 C 0.2424 0.15448 0.4227 0.0
C8 C 0.23038 0.14947 0.40439 0.0
C9 C 0.22455 0.12169 0.3936 0.0
C10 C 0.23098 0.09926 0.40091 0.0
C11 C 0.24383 0.10483 0.41902 0.0
C12 C 0.22234 0.06893 0.38996 0.0
C13 C 0.19024 0.04473 0.38651 0.0
C14 C 0.24595 0.06378 0.38323 0.0
C15 C 0.23749 0.03468 0.37305 0.0
C16 C 0.20527 0.00997 0.36973 0.0
C17 C 0.22334 0.17282 0.39644 0.0
C18 C 0.20204 0.18076 0.40404 0.0
C19 C 0.23678 0.1861 0.38065 0.0
C20 C 0.22873 0.2067 0.37244 0.0
C21 C 0.20662 0.2138 0.37968 0.0
C22 C 0.19345 0.20083 0.3956 0.0
C23 C 0.18178 0.01544 0.37664 0.0
H24 H 0.24551 0.15337 0.49164 0.0
H25 H 0.22789 0.1495 0.45966 0.0
H26 H 0.29867 0.12591 0.44423 0.0
H27 H 0.31683 0.13043 0.47614 0.0
H28 H 0.24682 0.17589 0.43105 0.0
H29 H 0.24828 0.08708 0.42466 0.0
H30 H 0.21447 0.11724 0.37959 0.0
H31 H 0.17175 0.04829 0.39175 0.0
H32 H 0.27087 0.08234 0.38575 0.0
H33 H 0.25624 0.03171 0.36772 0.0
H34 H 0.19129 0.17063 0.41617 0.0
H35 H 0.25332 0.18032 0.37459 0.0
H36 H 0.15684 0.99689 0.37477 0.0
H37 H 0.1764 0.20608 0.40143 0.0
H38 H 0.23901 0.21626 0.3601 0.0
C39 C 0.87539 0.16539 0.48662 0.0
C40 C 0.86234 0.13805 0.49625 0.0
C41 C 0.88157 0.16305 0.4685 0.0
C42 C 0.87471 0.1333 0.45959 0.0
C43 C 0.86202 0.10614 0.46931 0.0
C44 C 0.85581 0.10844 0.48733 0.0
C45 C 0.88054 0.13009 0.44023 0.0
C46 C 0.90843 0.15351 0.43347 0.0
C47 C 0.91496 0.14858 0.4157 0.0
C48 C 0.89341 0.12021 0.40462 0.0
C49 C 0.86483 0.09704 0.41085 0.0
C50 C 0.85855 0.1025 0.42862 0.0
C51 C 0.84196 0.06689 0.39899 0.0
C52 C 0.8377 0.06702 0.38005 0.0
C53 C 0.82443 0.03753 0.4065 0.0
C54 C 0.80324 0.00924 0.39542 0.0
C55 C 0.79958 0.00955 0.37658 0.0
C56 C 0.94467 0.17251 0.40862 0.0
C57 C 0.95059 0.20376 0.40667 0.0
C58 C 0.96636 0.16354 0.4028 0.0
C59 C 0.99352 0.1854 0.39506 0.0
C60 C 0.9991 0.21641 0.39265 0.0
C61 C 0.97744 0.22545 0.39855 0.0
C62 C 0.81696 0.03854 0.36894 0.0
H63 H 0.881 0.18865 0.49312 0.0
H64 H 0.89125 0.18443 0.4614 0.0
H65 H 0.85695 0.08293 0.46301 0.0
H66 H 0.84536 0.08677 0.49416 0.0
H67 H 0.9257 0.1749 0.44219 0.0
H68 H 0.83631 0.08528 0.43348 0.0
H69 H 0.89918 0.11626 0.39114 0.0
H70 H 0.85021 0.08914 0.37375 0.0
H71 H 0.82746 0.03613 0.42092 0.0
H72 H 0.79017 0.98694 0.40151 0.0
H73 H 0.93401 0.21106 0.41096 0.0
H74 H 0.96218 0.13951 0.40415 0.0
H75 H 0.81431 0.03917 0.3544 0.0
H76 H 0.98134 0.24928 0.3969 0.0
H77 H 0.00978 0.17782 0.39055 0.0
C78 C 0.89331 0.73198 0.4947 0.0
C79 C 0.86158 0.71152 0.4983 0.0
C80 C 0.90019 0.74295 0.47756 0.0
C81 C 0.87549 0.73375 0.46364 0.0
C82 C 0.84388 0.71279 0.46717 0.0
C83 C 0.83702 0.70198 0.48425 0.0
C84 C 0.88222 0.74652 0.44564 0.0
C85 C 0.90846 0.74951 0.43698 0.0
C86 C 0.91417 0.76095 0.41978 0.0
C87 C 0.89301 0.76913 0.41128 0.0
C88 C 0.86671 0.7664 0.41969 0.0
C89 C 0.86187 0.75552 0.43698 0.0
C90 C 0.84407 0.77448 0.41035 0.0
C91 C 0.85498 0.79992 0.3993 0.0
C92 C 0.81117 0.75647 0.41223 0.0
C93 C 0.78986 0.7638 0.40339 0.0
C94 C 0.80085 0.78886 0.3922 0.0
C95 C 0.94233 0.76491 0.41066 0.0
C96 C 0.97211 0.77675 0.42068 0.0
C97 C 0.94004 0.75844 0.39169 0.0
C98 C 0.96699 0.76498 0.38289 0.0
C99 C 0.99699 0.7777 0.39283 0.0
C100 C 0.99905 0.7829 0.41189 0.0
C101 C 0.83355 0.80681 0.39018 0.0
H102 H 0.91288 0.73952 0.50512 0.0
H103 H 0.92478 0.7592 0.47534 0.0
H104 H 0.82428 0.70478 0.4567 0.0
H105 H 0.81227 0.68661 0.48653 0.0
H106 H 0.92397 0.74215 0.44342 0.0
H107 H 0.84242 0.75452 0.44391 0.0
H108 H 0.89708 0.77773 0.39801 0.0
H109 H 0.88014 0.81479 0.39779 0.0
H110 H 0.8017 0.7363 0.42029 0.0
H111 H 0.76467 0.74945 0.40501 0.0
H112 H 0.97489 0.78218 0.43529 0.0
H113 H 0.9174 0.74866 0.38352 0.0
H114 H 0.84259 0.82649 0.38175 0.0
H115 H 0.02155 0.79203 0.42007 0.0
H116 H 0.96435 0.76087 0.36821 0.0
C117 C 0.13716 0.25514 0.51666 0.0
C118 C 0.1367 0.28281 0.5122 0.0
C119 C 0.12983 0.24432 0.53369 0.0
C120 C 0.12168 0.26076 0.54671 0.0
C121 C 0.1197 0.28754 0.54206 0.0
C122 C 0.12724 0.29854 0.52496 0.0
C123 C 0.11708 0.25065 0.56531 0.0
C124 C 0.13933 0.24432 0.57413 0.0
C125 C 0.13474 0.23234 0.59114 0.0
C126 C 0.10743 0.227 0.5994 0.0
C127 C 0.08538 0.23411 0.59105 0.0
C128 C 0.09047 0.24626 0.57405 0.0
C129 C 0.05657 0.22769 0.6 0.0
C130 C 0.03698 0.19725 0.60579 0.0
C131 C 0.04907 0.25204 0.6034 0.0
C132 C 0.02274 0.24618 0.61276 0.0
C133 C 0.00315 0.21569 0.61853 0.0
C134 C 0.15839 0.22524 0.60011 0.0
C135 C 0.17408 0.21298 0.58973 0.0
C136 C 0.1658 0.231 0.61906 0.0
C137 C 0.18829 0.22471 0.6274 0.0
C138 C 0.20436 0.21296 0.61698 0.0
C139 C 0.19694 0.20722 0.59802 0.0
C140 C 0.0104 0.19124 0.61483 0.0
H141 H 0.14348 0.24192 0.50701 0.0
H142 H 0.13091 0.2232 0.53678 0.0
H143 H 0.11355 0.30069 0.55186 0.0
H144 H 0.12676 0.32001 0.52199 0.0
H145 H 0.16054 0.24915 0.56771 0.0
H146 H 0.0731 0.25098 0.56734 0.0
H147 H 0.10311 0.21713 0.61235 0.0
H148 H 0.04222 0.17806 0.60328 0.0
H149 H 0.06395 0.27574 0.59914 0.0
H150 H 0.0175 0.26535 0.61535 0.0
H151 H 0.16866 0.20766 0.57513 0.0
H152 H 0.15454 0.24078 0.62752 0.0
H153 H 0.99577 0.16757 0.61919 0.0
H154 H 0.20904 0.1986 0.58947 0.0
H155 H 0.19287 0.22892 0.64205 0.0
C156 C 0.71559 0.84058 0.52943 0.0
C157 C 0.72901 0.8679 0.51989 0.0
C158 C 0.72513 0.84314 0.5479 0.0
C159 C 0.74845 0.87302 0.5571 0.0
C160 C 0.76261 0.90003 0.54731 0.0
C161 C 0.75289 0.89752 0.52895 0.0
C162 C 0.75733 0.87644 0.57695 0.0
C163 C 0.76086 0.85265 0.58501 0.0
C164 C 0.76916 0.85604 0.6038 0.0
C165 C 0.77394 0.88343 0.61457 0.0
C166 C 0.77142 0.90776 0.60663 0.0
C167 C 0.76277 0.90396 0.58792 0.0
C168 C 0.77994 0.9382 0.6176 0.0
C169 C 0.76567 0.93803 0.63358 0.0
C170 C 0.80295 0.96772 0.61215 0.0
C171 C 0.81184 0.9966 0.6226 0.0
C172 C 0.79747 0.99652 0.63851 0.0
C173 C 0.77516 0.83224 0.61206 0.0
C174 C 0.76057 0.81866 0.62754 0.0
C175 C 0.79712 0.82455 0.60516 0.0
C176 C 0.80527 0.80456 0.614 0.0
C177 C 0.79112 0.79146 0.62967 0.0
C178 C 0.76825 0.79815 0.63617 0.0
C179 C 0.77412 0.96705 0.64387 0.0
H180 H 0.69702 0.81749 0.52277 0.0
H181 H 0.71356 0.82193 0.55508 0.0
H182 H 0.78121 0.92322 0.55384 0.0
H183 H 0.76406 0.91883 0.52182 0.0
H184 H 0.75762 0.8317 0.57668 0.0
H185 H 0.7601 0.92253 0.58196 0.0
H186 H 0.7813 0.88662 0.62899 0.0
H187 H 0.74784 0.91551 0.638 0.0
H188 H 0.81442 0.96839 0.59994 0.0
H189 H 0.82977 0.01908 0.61817 0.0
H190 H 0.74354 0.82426 0.63307 0.0
H191 H 0.80886 0.83496 0.59332 0.0
H192 H 0.76283 0.96648 0.65614 0.0
H193 H 0.75721 0.78847 0.64832 0.0
H194 H 0.82292 0.79964 0.60874 0.0
C195 C 0.10958 0.84953 0.52009 0.0
C196 C 0.14032 0.85673 0.51622 0.0
C197 C 0.10292 0.85219 0.53805 0.0
C198 C 0.12695 0.86243 0.5525 0.0
C199 C 0.15744 0.86886 0.54864 0.0
C200 C 0.16402 0.86596 0.53073 0.0
C201 C 0.1209 0.86816 0.57144 0.0
C202 C 0.09289 0.84586 0.57863 0.0
C203 C 0.0875 0.85166 0.59659 0.0
C204 C 0.10983 0.88046 0.60709 0.0
C205 C 0.13751 0.90297 0.59999 0.0
C206 C 0.14318 0.8966 0.58232 0.0
C207 C 0.15995 0.93382 0.61082 0.0
C208 C 0.1513 0.95726 0.614 0.0
C209 C 0.19002 0.94005 0.61789 0.0
C210 C 0.21113 0.96934 0.62822 0.0
C211 C 0.20277 0.99322 0.63138 0.0
C212 C 0.05873 0.82789 0.6046 0.0
C213 C 0.02811 0.81593 0.59573 0.0
C214 C 0.06179 0.81815 0.62166 0.0
C215 C 0.03478 0.7973 0.62986 0.0
C216 C 0.00395 0.78606 0.62134 0.0
C217 C 1.001 0.79544 0.60406 0.0
C218 C 0.17258 0.98678 0.624 0.0
H219 H 0.09072 0.84206 0.50922 0.0
H220 H 0.07925 0.84724 0.54059 0.0
H221 H 0.17638 0.8765 0.55949 0.0
H222 H 0.18801 0.87194 0.52823 0.0
H223 H 0.07573 0.82367 0.57047 0.0
H224 H 0.16449 0.91438 0.57685 0.0
H225 H 0.10555 0.88554 0.62079 0.0
H226 H 0.12823 0.9529 0.60849 0.0
H227 H 0.19699 0.92209 0.6156 0.0
H228 H 0.23382 0.97301 0.6339 0.0
H229 H 0.02512 0.8233 0.58262 0.0
H230 H 0.08518 0.82672 0.62868 0.0
H231 H 0.16543 0.00466 0.6257 0.0
H232 H 0.97776 0.78773 0.59714 0.0
H233 H 0.03818 0.79005 0.64292 0.0
C234 C 0.9338 0.48434 0.8153 0.0
C235 C 0.95888 0.4788 0.82012 0.0
C236 C 0.92332 0.48209 0.79705 0.0
C237 C 0.93752 0.47401 0.78323 0.0
C238 C 0.96309 0.46927 0.788 0.0
C239 C 0.97376 0.47179 0.80623 0.0
C240 C 0.92473 0.46908 0.76396 0.0
C241 C 0.91706 0.49099 0.75684 0.0
C242 C 0.90409 0.48571 0.73873 0.0
C243 C 0.89792 0.45791 0.72785 0.0
C244 C 0.90502 0.4357 0.73488 0.0
C245 C 0.91889 0.44159 0.75279 0.0
C246 C 0.89579 0.40519 0.72392 0.0
C247 C 0.86347 0.38179 0.7201 0.0
C248 C 0.91902 0.39903 0.71758 0.0
C249 C 0.90997 0.36975 0.70742 0.0
C250 C 0.87751 0.34579 0.70377 0.0
C251 C 0.89626 0.50877 0.73115 0.0
C252 C 0.875 0.51624 0.73925 0.0
C253 C 0.90897 0.52233 0.71528 0.0
C254 C 0.90028 0.54278 0.70749 0.0
C255 C 0.87823 0.54943 0.71523 0.0
C256 C 0.86576 0.53615 0.73122 0.0
C257 C 0.85441 0.35227 0.7103 0.0
H258 H 0.92148 0.48933 0.82561 0.0
H259 H 0.90333 0.48554 0.79377 0.0
H260 H 0.97477 0.46347 0.7776 0.0
H261 H 0.99356 0.46803 0.80942 0.0
H262 H 0.92164 0.51238 0.76528 0.0
H263 H 0.92378 0.424 0.75825 0.0
H264 H 0.88705 0.45324 0.71401 0.0
H265 H 0.84525 0.3861 0.72505 0.0
H266 H 0.94411 0.41696 0.72038 0.0
H267 H 0.92849 0.36606 0.70238 0.0
H268 H 0.86483 0.50587 0.75145 0.0
H269 H 0.92546 0.5169 0.70886 0.0
H270 H 0.82927 0.33435 0.70821 0.0
H271 H 0.84873 0.54102 0.7374 0.0
H272 H 0.90999 0.55258 0.69508 0.0
C273 C 0.54623 0.49113 0.82261 0.0
C274 C 0.5352 0.46391 0.83224 0.0
C275 C 0.55348 0.48976 0.80467 0.0
C276 C 0.5499 0.46115 0.796 0.0
C277 C 0.5401 0.43438 0.80591 0.0
C278 C 0.53279 0.43573 0.82378 0.0
C279 C 0.55446 0.45846 0.77641 0.0
C280 C 0.58002 0.48366 0.7689 0.0
C281 C 0.58348 0.48117 0.75024 0.0
C282 C 0.56102 0.45325 0.73908 0.0
C283 C 0.53584 0.4277 0.74643 0.0
C284 C 0.53267 0.4305 0.76503 0.0
C285 C 0.51339 0.39757 0.73481 0.0
C286 C 0.49776 0.39841 0.71854 0.0
C287 C 0.50776 0.36774 0.7399 0.0
C288 C 0.48724 0.33928 0.72878 0.0
C289 C 0.47154 0.34008 0.71254 0.0
C290 C 0.61122 0.50689 0.74237 0.0
C291 C 0.60689 0.51812 0.72606 0.0
C292 C 0.64235 0.51893 0.75052 0.0
C293 C 0.66867 0.54097 0.74222 0.0
C294 C 0.66448 0.55181 0.72566 0.0
C295 C 0.63317 0.54047 0.71787 0.0
C296 C 0.47673 0.36984 0.70758 0.0
H297 H 0.54812 0.51315 0.82869 0.0
H298 H 0.56071 0.51072 0.79738 0.0
H299 H 0.53774 0.41218 0.79977 0.0
H300 H 0.52501 0.41455 0.83095 0.0
H301 H 0.59729 0.50514 0.77756 0.0
H302 H 0.51267 0.41101 0.77054 0.0
H303 H 0.56387 0.45082 0.72476 0.0
H304 H 0.50165 0.42114 0.71439 0.0
H305 H 0.51967 0.36651 0.75234 0.0
H306 H 0.48348 0.31658 0.73292 0.0
H307 H 0.58312 0.50947 0.71958 0.0
H308 H 0.6464 0.51038 0.76298 0.0
H309 H 0.46496 0.37103 0.69507 0.0
H310 H 0.62887 0.54874 0.70537 0.0
H311 H 0.69232 0.54867 0.74852 0.0
C312 C 0.55799 0.07065 0.82888 0.0
C313 C 0.52636 0.04865 0.83195 0.0
C314 C 0.56548 0.08021 0.81151 0.0
C315 C 0.54147 0.068 0.7969 0.0
C316 C 0.51013 0.04513 0.79987 0.0
C317 C 0.50268 0.03557 0.81715 0.0
C318 C 0.54839 0.08012 0.77879 0.0
C319 C 0.57537 0.08391 0.77066 0.0
C320 C 0.58124 0.09487 0.75334 0.0
C321 C 0.55972 0.10206 0.74432 0.0
C322 C 0.53276 0.09862 0.75227 0.0
C323 C 0.52754 0.08788 0.76957 0.0
C324 C 0.51 0.10607 0.74249 0.0
C325 C 0.52095 0.13154 0.73146 0.0
C326 C 0.47701 0.08764 0.74403 0.0
C327 C 0.45567 0.09465 0.73494 0.0
C328 C 0.46672 0.11981 0.72382 0.0
C329 C 0.60987 0.09925 0.74458 0.0
C330 C 0.63958 0.11184 0.75483 0.0
C331 C 0.608 0.09228 0.72568 0.0
C332 C 0.63525 0.09904 0.71716 0.0
C333 C 0.66517 0.11243 0.7273 0.0
C334 C 0.66684 0.1182 0.74631 0.0
C335 C 0.4995 0.13811 0.72208 0.0
H336 H 0.57677 0.08131 0.84 0.0
H337 H 0.58981 0.098 0.80965 0.0
H338 H 0.49122 0.03477 0.78881 0.0
H339 H 0.47824 0.01797 0.81893 0.0
H340 H 0.59126 0.07753 0.77761 0.0
H341 H 0.50747 0.08616 0.77614 0.0
H342 H 0.564 0.11046 0.73101 0.0
H343 H 0.54616 0.14674 0.7302 0.0
H344 H 0.46752 0.06744 0.75207 0.0
H345 H 0.43041 0.08005 0.73634 0.0
H346 H 0.64203 0.11767 0.76939 0.0
H347 H 0.58545 0.0819 0.71735 0.0
H348 H 0.50858 0.15788 0.71372 0.0
H349 H 0.68927 0.12787 0.75466 0.0
H350 H 0.63286 0.09451 0.70251 0.0
C351 C 0.80379 0.59038 0.85026 0.0
C352 C 0.80242 0.61776 0.84622 0.0
C353 C 0.79765 0.57944 0.86738 0.0
C354 C 0.78977 0.59546 0.88083 0.0
C355 C 0.78762 0.62239 0.87669 0.0
C356 C 0.79412 0.63358 0.85958 0.0
C357 C 0.7847 0.58432 0.89921 0.0
C358 C 0.80632 0.57698 0.90789 0.0
C359 C 0.80123 0.56455 0.9248 0.0
C360 C 0.77389 0.55945 0.93297 0.0
C361 C 0.75241 0.56738 0.92471 0.0
C362 C 0.7581 0.58014 0.9079 0.0
C363 C 0.72363 0.56139 0.93356 0.0
C364 C 0.7033 0.53089 0.93905 0.0
C365 C 0.71678 0.58618 0.93707 0.0
C366 C 0.69034 0.58068 0.94623 0.0
C367 C 0.66999 0.55011 0.95167 0.0
C368 C 0.82443 0.55693 0.93388 0.0
C369 C 0.84002 0.5444 0.92363 0.0
C370 C 0.83142 0.56241 0.95287 0.0
C371 C 0.85332 0.55549 0.96137 0.0
C372 C 0.86921 0.54333 0.9511 0.0
C373 C 0.86226 0.53792 0.9321 0.0
C374 C 0.67661 0.52523 0.94788 0.0
H375 H 0.81038 0.57783 0.84033 0.0
H376 H 0.79916 0.55841 0.87012 0.0
H377 H 0.78168 0.63524 0.88682 0.0
H378 H 0.79266 0.65462 0.8568 0.0
H379 H 0.8275 0.58154 0.90151 0.0
H380 H 0.74118 0.58556 0.90129 0.0
H381 H 0.76913 0.5492 0.9458 0.0
H382 H 0.70803 0.51136 0.93644 0.0
H383 H 0.73222 0.60995 0.93305 0.0
H384 H 0.68562 0.60019 0.94891 0.0
H385 H 0.83496 0.53936 0.90901 0.0
H386 H 0.82027 0.57243 0.96123 0.0
H387 H 0.66138 0.50149 0.95201 0.0
H388 H 0.87427 0.52901 0.92367 0.0
H389 H 0.85757 0.55951 0.97604 0.0
C390 C 0.39377 0.17937 0.85965 0.0
C391 C 0.40849 0.20659 0.85007 0.0
C392 C 0.4027 0.18162 0.87818 0.0
C393 C 0.42661 0.21111 0.88746 0.0
C394 C 0.4421 0.23796 0.87767 0.0
C395 C 0.43308 0.23575 0.85922 0.0
C396 C 0.43448 0.21437 0.90742 0.0
C397 C 0.43676 0.19015 0.9158 0.0
C398 C 0.4437 0.19325 0.93472 0.0
C399 C 0.44831 0.22078 0.94528 0.0
C400 C 0.44692 0.24548 0.93706 0.0
C401 C 0.43975 0.24201 0.9182 0.0
C402 C 0.45455 0.27569 0.94802 0.0
C403 C 0.43958 0.27494 0.9638 0.0
C404 C 0.47741 0.30555 0.94284 0.0
C405 C 0.48548 0.33415 0.95337 0.0
C406 C 0.47047 0.33344 0.96911 0.0
C407 C 0.44821 0.16889 0.94346 0.0
C408 C 0.43271 0.15603 0.95885 0.0
C409 C 0.46982 0.16009 0.93722 0.0
C410 C 0.4768 0.13983 0.94666 0.0
C411 C 0.46186 0.12759 0.96229 0.0
C412 C 0.43925 0.1353 0.96809 0.0
C413 C 0.44725 0.30363 0.97417 0.0
H414 H 0.3746 0.15663 0.85297 0.0
H415 H 0.39013 0.16055 0.88536 0.0
H416 H 0.46112 0.26084 0.88431 0.0
H417 H 0.44528 0.25697 0.8521 0.0
H418 H 0.43349 0.16904 0.90763 0.0
H419 H 0.43788 0.26081 0.91197 0.0
H420 H 0.45452 0.22369 0.95982 0.0
H421 H 0.42182 0.25218 0.96802 0.0
H422 H 0.48944 0.30672 0.9308 0.0
H423 H 0.50331 0.35687 0.94914 0.0
H424 H 0.4159 0.16245 0.96387 0.0
H425 H 0.48224 0.16989 0.92547 0.0
H426 H 0.43547 0.30253 0.9863 0.0
H427 H 0.42758 0.12629 0.98017 0.0
H428 H 0.49422 0.13409 0.9419 0.0
C429 C 0.78243 0.18789 0.85501 0.0
C430 C 0.81291 0.19335 0.85173 0.0
C431 C 0.77452 0.18934 0.87279 0.0
C432 C 0.79701 0.19657 0.88767 0.0
C433 C 0.82704 0.20096 0.88444 0.0
C434 C 0.83482 0.19917 0.86672 0.0
C435 C 0.79009 0.20161 0.90647 0.0
C436 C 0.76132 0.1794 0.91303 0.0
C437 C 0.75526 0.18453 0.93091 0.0
C438 C 0.77754 0.2127 0.94192 0.0
C439 C 0.80598 0.23518 0.93545 0.0
C440 C 0.8124 0.2293 0.91787 0.0
C441 C 0.82844 0.26544 0.94683 0.0
C442 C 0.81878 0.28741 0.95218 0.0
C443 C 0.85957 0.27267 0.95223 0.0
C444 C 0.88072 0.30142 0.96302 0.0
C445 C 0.87137 0.3239 0.96826 0.0
C446 C 0.726 0.16059 0.93843 0.0
C447 C 0.69565 0.14999 0.92957 0.0
C448 C 0.72841 0.14946 0.95514 0.0
C449 C 0.70103 0.12871 0.96306 0.0
C450 C 0.67049 0.11897 0.95464 0.0
C451 C 0.66816 0.12958 0.93765 0.0
C452 C 0.84008 0.31647 0.96258 0.0
H453 H 0.76502 0.18366 0.84385 0.0
H454 H 0.75127 0.18609 0.8749 0.0
H455 H 0.84466 0.20608 0.89567 0.0
H456 H 0.8582 0.20264 0.86478 0.0
H457 H 0.74415 0.15777 0.90444 0.0
H458 H 0.83432 0.24693 0.91285 0.0
H459 H 0.7727 0.21722 0.95558 0.0
H460 H 0.7949 0.28236 0.94797 0.0
H461 H 0.86738 0.25587 0.9483 0.0
H462 H 0.90428 0.30579 0.96734 0.0
H463 H 0.69321 0.15843 0.91673 0.0
H464 H 0.75158 0.15698 0.96212 0.0
H465 H 0.83205 0.3333 0.96586 0.0
H466 H 0.64515 0.12296 0.93082 0.0
H467 H 0.70391 0.12043 0.97587 0.0
C468 C 0.58733 0.81454 0.15089 0.0
C469 C 0.61223 0.80888 0.15605 0.0
C470 C 0.57765 0.81269 0.13252 0.0
C471 C 0.59251 0.8049 0.11899 0.0
C472 C 0.61795 0.80019 0.12412 0.0
C473 C 0.6278 0.80231 0.14242 0.0
C474 C 0.58085 0.80032 0.09954 0.0
C475 C 0.57494 0.82295 0.09191 0.0
C476 C 0.56493 0.81882 0.07333 0.0
C477 C 0.56043 0.79164 0.06243 0.0
C478 C 0.56495 0.76804 0.07 0.0
C479 C 0.5754 0.77282 0.08858 0.0
C480 C 0.55744 0.73778 0.05882 0.0
C481 C 0.53148 0.72302 0.04529 0.0
C482 C 0.57525 0.72259 0.0621 0.0
C483 C 0.56665 0.69295 0.05258 0.0
C484 C 0.54035 0.67793 0.03926 0.0
C485 C 0.55816 0.84229 0.06527 0.0
C486 C 0.53619 0.84965 0.07249 0.0
C487 C 0.5723 0.85611 0.04974 0.0
C488 C 0.56423 0.87658 0.04139 0.0
C489 C 0.54143 0.88304 0.04823 0.0
C490 C 0.52764 0.86962 0.06393 0.0
C491 C 0.52324 0.69368 0.03554 0.0
H492 H 0.57462 0.81937 0.16102 0.0
H493 H 0.55784 0.81625 0.12891 0.0
H494 H 0.63017 0.7947 0.11394 0.0
H495 H 0.64757 0.79861 0.14588 0.0
H496 H 0.57881 0.84411 0.1003 0.0
H497 H 0.57834 0.75461 0.09479 0.0
H498 H 0.55281 0.7887 0.04809 0.0
H499 H 0.51689 0.73365 0.04248 0.0
H500 H 0.59576 0.73343 0.07216 0.0
H501 H 0.58027 0.68154 0.05602 0.0
H502 H 0.52487 0.83909 0.0844 0.0
H503 H 0.58936 0.8508 0.04398 0.0
H504 H 0.50325 0.6833 0.02514 0.0
H505 H 0.51007 0.87437 0.06946 0.0
H506 H 0.57502 0.88651 0.02923 0.0
C507 C 0.2048 0.82767 0.1513 0.0
C508 C 0.19006 0.79983 0.16042 0.0
C509 C 0.21262 0.8259 0.13349 0.0
C510 C 0.20603 0.79628 0.12448 0.0
C511 C 0.19214 0.76872 0.13388 0.0
C512 C 0.18414 0.77045 0.15154 0.0
C513 C 0.21322 0.79359 0.10534 0.0
C514 C 0.24141 0.81751 0.09907 0.0
C515 C 0.24898 0.81322 0.08147 0.0
C516 C 0.22827 0.78495 0.07009 0.0
C517 C 0.19942 0.76128 0.07579 0.0
C518 C 0.19204 0.76613 0.09337 0.0
C519 C 0.17728 0.73134 0.06355 0.0
C520 C 0.174 0.73198 0.0446 0.0
C521 C 0.15931 0.7017 0.07071 0.0
C522 C 0.13849 0.6737 0.05931 0.0
C523 C 0.13569 0.67455 0.04048 0.0
C524 C 0.27879 0.83785 0.07482 0.0
C525 C 0.28353 0.8685 0.0723 0.0
C526 C 0.30167 0.83001 0.06977 0.0
C527 C 0.32881 0.85239 0.06223 0.0
C528 C 0.3332 0.88277 0.05923 0.0
C529 C 0.31037 0.89069 0.06437 0.0
C530 C 0.15366 0.70378 0.03317 0.0
H531 H 0.20954 0.85065 0.15777 0.0
H532 H 0.22313 0.84758 0.12666 0.0
H533 H 0.18753 0.74567 0.12762 0.0
H534 H 0.17346 0.74871 0.15832 0.0
H535 H 0.25806 0.83887 0.10801 0.0
H536 H 0.1695 0.74857 0.09778 0.0
H537 H 0.23487 0.78153 0.05676 0.0
H538 H 0.18687 0.75431 0.03854 0.0
H539 H 0.16159 0.69989 0.08513 0.0
H540 H 0.12494 0.65122 0.06516 0.0
H541 H 0.266 0.8749 0.07597 0.0
H542 H 0.29837 0.80642 0.07154 0.0
H543 H 0.15164 0.70484 0.01864 0.0
H544 H 0.31332 0.91402 0.06226 0.0
H545 H 0.34597 0.84565 0.05829 0.0
C546 C 0.22296 0.40615 0.1626 0.0
C547 C 0.19178 0.38201 0.16511 0.0
C548 C 0.23094 0.41592 0.14533 0.0
C549 C 0.20788 0.40189 0.13024 0.0
C550 C 0.17702 0.37715 0.13266 0.0
C551 C 0.1691 0.36727 0.14985 0.0
C552 C 0.2153 0.41386 0.11215 0.0
C553 C 0.24372 0.41974 0.10497 0.0
C554 C 0.25 0.43039 0.08766 0.0
C555 C 0.2283 0.43625 0.07782 0.0
C556 C 0.20023 0.43113 0.08496 0.0
C557 C 0.19369 0.41955 0.10199 0.0
C558 C 0.17805 0.43851 0.0748 0.0
C559 C 0.18938 0.46891 0.06857 0.0
C560 C 0.14541 0.41547 0.07152 0.0
C561 C 0.12447 0.42268 0.0621 0.0
C562 C 0.13573 0.45326 0.05612 0.0
C563 C 0.27891 0.43504 0.07949 0.0
C564 C 0.30943 0.45675 0.08815 0.0
C565 C 0.27597 0.41893 0.06243 0.0
C566 C 0.30306 0.42481 0.05397 0.0
C567 C 0.3338 0.44753 0.06221 0.0
C568 C 0.33661 0.46315 0.07954 0.0
C569 C 0.16835 0.47633 0.05946 0.0
H570 H 0.24096 0.41822 0.17406 0.0
H571 H 0.25486 0.4352 0.1439 0.0
H572 H 0.15889 0.36547 0.12123 0.0
H573 H 0.1451 0.34807 0.15117 0.0
H574 H 0.26041 0.41508 0.11255 0.0
H575 H 0.17214 0.41593 0.10758 0.0
H576 H 0.23327 0.44484 0.06455 0.0
H577 H 0.21443 0.48713 0.07104 0.0
H578 H 0.13616 0.39182 0.07616 0.0
H579 H 0.09937 0.40456 0.05975 0.0
H580 H 0.3122 0.46961 0.10128 0.0
H581 H 0.25261 0.40182 0.05559 0.0
H582 H 0.1776 0.50003 0.05491 0.0
H583 H 0.35973 0.48111 0.08626 0.0
H584 H 0.29978 0.41157 0.04091 0.0
C585 C 0.47003 0.92356 0.18342 0.0
C586 C 0.469 0.95107 0.17929 0.0
C587 C 0.46368 0.91272 0.20054 0.0
C588 C 0.45587 0.92897 0.21389 0.0
C589 C 0.45395 0.95597 0.20965 0.0
C590 C 0.46069 0.96707 0.19254 0.0
C591 C 0.45083 0.91809 0.23231 0.0
C592 C 0.47266 0.91118 0.24113 0.0
C593 C 0.46761 0.89892 0.25808 0.0
C594 C 0.44011 0.89357 0.26614 0.0
C595 C 0.41843 0.90108 0.25775 0.0
C596 C 0.42407 0.91369 0.2409 0.0
C597 C 0.38948 0.89472 0.2665 0.0
C598 C 0.36955 0.86421 0.27209 0.0
C599 C 0.38215 0.9192 0.26989 0.0
C600 C 0.35562 0.91337 0.27903 0.0
C601 C 0.33567 0.88279 0.28459 0.0
C602 C 0.49093 0.89165 0.2673 0.0
C603 C 0.50684 0.87934 0.25718 0.0
C604 C 0.49764 0.89712 0.28631 0.0
C605 C 0.51948 0.8903 0.29495 0.0
C606 C 0.53564 0.8783 0.28482 0.0
C607 C 0.52907 0.87301 0.2658 0.0
C608 C 0.34278 0.85823 0.28092 0.0
H609 H 0.47661 0.91088 0.17356 0.0
H610 H 0.46503 0.89164 0.20338 0.0
H611 H 0.44806 0.96897 0.21972 0.0
H612 H 0.45949 0.98822 0.18968 0.0
H613 H 0.49394 0.91591 0.23482 0.0
H614 H 0.407 0.9188 0.23417 0.0
H615 H 0.43537 0.8834 0.279 0.0
H616 H 0.37465 0.84492 0.26958 0.0
H617 H 0.3973 0.94297 0.26578 0.0
H618 H 0.3505 0.93262 0.28161 0.0
H619 H 0.50201 0.87432 0.24255 0.0
H620 H 0.48626 0.90701 0.29457 0.0
H621 H 0.32787 0.83449 0.28514 0.0
H622 H 0.54131 0.86425 0.25747 0.0
H623 H 0.52344 0.89423 0.30963 0.0
C624 C 0.05564 0.50927 0.19417 0.0
C625 C 0.07036 0.5366 0.18469 0.0
C626 C 0.06441 0.51141 0.21272 0.0
C627 C 0.08816 0.5409 0.22209 0.0
C628 C 0.10369 0.56784 0.21237 0.0
C629 C 0.09483 0.56574 0.19392 0.0
C630 C 0.09581 0.54412 0.24205 0.0
C631 C 0.0984 0.52009 0.25046 0.0
C632 C 0.10546 0.52336 0.26938 0.0
C633 C 0.10982 0.55081 0.27991 0.0
C634 C 0.10811 0.5753 0.27164 0.0
C635 C 0.10082 0.57168 0.2528 0.0
C636 C 0.11587 0.6056 0.2825 0.0
C637 C 0.10069 0.60514 0.29814 0.0
C638 C 0.13909 0.63528 0.27732 0.0
C639 C 0.1473 0.66402 0.28772 0.0
C640 C 0.13206 0.66362 0.30331 0.0
C641 C 0.11061 0.4994 0.27814 0.0
C642 C 0.09548 0.48654 0.29362 0.0
C643 C 0.13255 0.49112 0.27185 0.0
C644 C 0.14019 0.47135 0.28131 0.0
C645 C 0.12561 0.45909 0.29703 0.0
C646 C 0.1027 0.46629 0.3029 0.0
C647 C 0.10848 0.634 0.30837 0.0
H648 H 0.0366 0.48653 0.1874 0.0
H649 H 0.05185 0.49027 0.21984 0.0
H650 H 0.12261 0.59072 0.21908 0.0
H651 H 0.10703 0.58704 0.18687 0.0
H652 H 0.09537 0.49907 0.24231 0.0
H653 H 0.09879 0.59037 0.24654 0.0
H654 H 0.11619 0.55389 0.29444 0.0
H655 H 0.08266 0.5825 0.30234 0.0
H656 H 0.15128 0.63619 0.26538 0.0
H657 H 0.16542 0.68661 0.28351 0.0
H658 H 0.07845 0.49258 0.29869 0.0
H659 H 0.14471 0.50096 0.26002 0.0
H660 H 0.09651 0.63317 0.32039 0.0
H661 H 0.09127 0.45725 0.31504 0.0
H662 H 0.15782 0.46597 0.2765 0.0
C663 C 0.44858 0.522 0.18787 0.0
C664 C 0.47895 0.52705 0.18465 0.0
C665 C 0.44051 0.52322 0.20564 0.0
C666 C 0.46273 0.52987 0.22056 0.0
C667 C 0.49263 0.53387 0.21738 0.0
C668 C 0.50056 0.53225 0.19968 0.0
C669 C 0.45574 0.53479 0.23935 0.0
C670 C 0.42699 0.5125 0.24589 0.0
C671 C 0.4209 0.51754 0.26379 0.0
C672 C 0.44312 0.54573 0.27481 0.0
C673 C 0.47151 0.5683 0.26833 0.0
C674 C 0.47799 0.5625 0.25076 0.0
C675 C 0.49377 0.59868 0.27966 0.0
C676 C 0.48439 0.62121 0.28409 0.0
C677 C 0.52443 0.60546 0.28593 0.0
C678 C 0.54533 0.63432 0.29671 0.0
C679 C 0.53622 0.65731 0.30108 0.0
C680 C 0.39167 0.4935 0.27131 0.0
C681 C 0.36128 0.48288 0.26248 0.0
C682 C 0.39413 0.48231 0.28798 0.0
C683 C 0.36679 0.46145 0.2959 0.0
C684 C 0.3362 0.45169 0.28753 0.0
C685 C 0.33382 0.46237 0.27057 0.0
C686 C 0.50546 0.65034 0.29449 0.0
H687 H 0.4314 0.51825 0.1767 0.0
H688 H 0.41736 0.52028 0.20772 0.0
H689 H 0.51005 0.53857 0.22865 0.0
H690 H 0.52382 0.53538 0.1978 0.0
H691 H 0.40987 0.49088 0.23728 0.0
H692 H 0.49989 0.5802 0.24575 0.0
H693 H 0.43825 0.55023 0.28846 0.0
H694 H 0.46089 0.61649 0.2792 0.0
H695 H 0.53201 0.58823 0.28268 0.0
H696 H 0.56848 0.63835 0.30173 0.0
H697 H 0.35879 0.49136 0.24966 0.0
H698 H 0.41732 0.48984 0.29494 0.0
H699 H 0.49767 0.66756 0.29707 0.0
H700 H 0.31079 0.45575 0.26376 0.0
H701 H 0.36973 0.45312 0.30868 0.0
C702 C 0.54328 0.03486 0.05919 0.0
Eu703 Eu 0.51927 0.0221 0.02544 0.0
C704 C 0.53182 0.02223 0.07662 0.0
C705 C 0.52621 0.04089 0.08961 0.0
C706 C 0.51493 0.02929 0.10603 0.0
C707 C 0.50931 0.99884 0.10999 0.0
C708 C 0.51514 0.98023 0.09701 0.0
C709 C 0.52619 0.99174 0.0805 0.0
C710 C 0.49956 0.05677 0.0073 0.0
C711 C 0.44293 0.96825 0.02339 0.0
C712 C 0.45587 0.97851 0.95509 0.0
Eu713 Eu 0.48019 0.98953 0.98871 0.0
C714 C 0.46792 0.99012 0.93753 0.0
C715 C 0.48228 0.97623 0.92723 0.0
C716 C 0.4931 0.98696 0.91054 0.0
C717 C 0.48966 0.01171 0.9037 0.0
C718 C 0.47549 0.02574 0.91407 0.0
C719 C 0.46467 0.01502 0.93075 0.0
C720 C 0.50011 0.95486 0.00667 0.0
C721 C 0.55745 0.04181 0.99089 0.0
O722 O 0.54721 0.01619 0.04723 0.0
O723 O 0.53046 0.05016 0.05177 0.0
O724 O 0.52721 0.06944 0.01665 0.0
O725 O 0.48324 0.02701 0.00863 0.0
O726 O 0.47148 0.98224 0.03263 0.0
O727 O 0.43925 0.97131 0.00599 0.0
O728 O 0.45517 0.99933 0.96705 0.0
O729 O 0.46532 0.96038 0.96251 0.0
O730 O 0.47256 0.94202 0.99713 0.0
O731 O 0.51625 0.98467 0.00544 0.0
O732 O 0.52921 0.02676 0.9812 0.0
O733 O 0.56053 0.04066 0.00859 0.0
H734 H 0.53037 0.06448 0.087 0.0
H735 H 0.5103 0.04412 0.11555 0.0
H736 H 0.51162 0.9569 0.09968 0.0
H737 H 0.53036 0.97673 0.07083 0.0
H738 H 0.48495 0.95684 0.93195 0.0
H739 H 0.50348 0.97531 0.9028 0.0
H740 H 0.47281 0.04511 0.90932 0.0
H741 H 0.45366 0.02619 0.9383 0.0
C742 C 0.00231 0.53714 0.05387 0.0
Eu743 Eu 0.99837 0.51085 0.02131 0.0
C744 C 0.01207 0.53551 0.07274 0.0
C745 C 0.99915 0.50623 0.0805 0.0
C746 C 0.00848 0.5057 0.0986 0.0
C747 C 0.03096 0.53439 0.10922 0.0
C748 C 0.0442 0.56351 0.10124 0.0
C749 C 0.03474 0.56405 0.08323 0.0
C750 C 0.95847 0.44851 0.00803 0.0
C751 C 0.0484 0.48442 0.01938 0.0
C752 C 0.00919 0.46488 0.95188 0.0
Eu753 Eu 0.01223 0.49075 0.98442 0.0
C754 C 0.00266 0.4685 0.93285 0.0
C755 C 0.01418 0.49895 0.92666 0.0
C756 C 0.00791 0.50153 0.9084 0.0
C757 C 0.98987 0.4737 0.89605 0.0
C758 C 0.97801 0.4433 0.90246 0.0
C759 C 0.98444 0.44077 0.92066 0.0
C760 C 0.05176 0.5533 0.99776 0.0
C761 C 0.96131 0.51629 0.98644 0.0
O762 O 0.02514 0.54942 0.0432 0.0
O763 O 0.97614 0.51226 0.04579 0.0
O764 O 0.94952 0.46557 0.01756 0.0
O765 O 0.98811 0.4642 0.00711 0.0
O766 O 0.04006 0.50318 0.02845 0.0
O767 O 0.03608 0.47162 1.00255 0.0
O768 O 0.98496 0.45421 0.96162 0.0
O769 O 0.03571 0.4879 0.9608 0.0
O770 O 0.06105 0.53641 0.98838 0.0
O771 O 0.02213 0.53722 0.99851 0.0
O772 O 0.97048 0.49837 0.97721 0.0
O773 O 0.97313 0.52875 0.00337 0.0
H774 H 0.9817 0.48381 0.07267 0.0
H775 H 0.99761 0.48292 0.10435 0.0
H776 H 0.06203 0.58596 0.10889 0.0
H777 H 0.04516 0.58686 0.07748 0.0
H778 H 0.02814 0.52072 0.93589 0.0
H779 H 0.0176 0.5253 0.90391 0.0
H780 H 0.96348 0.42137 0.89345 0.0
H781 H 0.97512 0.41707 0.92523 0.0
C782 C 0.45735 0.4659 0.95587 0.0
Eu783 Eu 0.48228 0.49125 0.98893 0.0
C784 C 0.46973 0.46612 0.93803 0.0
C785 C 0.48421 0.49429 0.92918 0.0
C786 C 0.49562 0.49402 0.9123 0.0
C787 C 0.49288 0.46562 0.90387 0.0
C788 C 0.47859 0.43754 0.91282 0.0
C789 C 0.46706 0.43778 0.92966 0.0
C790 C 0.50084 0.55172 1.0031 0.0
C791 C 0.55993 0.52239 0.98995 0.0
C792 C 0.54973 0.54058 0.05799 0.0
Eu793 Eu 0.52414 0.51396 0.02521 0.0
C794 C 0.5385 0.53785 0.07622 0.0
C795 C 0.51605 0.50795 0.08158 0.0
C796 C 0.50583 0.50592 0.09898 0.0
C797 C 0.51761 0.53379 0.11133 0.0
C798 C 0.53959 0.56374 0.10569 0.0
C799 C 0.54997 0.5657 0.08836 0.0
C800 C 0.50581 0.45355 0.01099 0.0
C801 C 0.44585 0.48123 0.02417 0.0
O802 O 0.46338 0.4505 0.96794 0.0
O803 O 0.46028 0.49294 0.96299 0.0
O804 O 0.4728 0.53227 0.99464 0.0
O805 O 0.51805 0.53907 1.00297 0.0
O806 O 0.53129 0.50257 0.98136 0.0
O807 O 0.56364 0.53479 0.00694 0.0
O808 O 0.53883 0.55333 0.04663 0.0
O809 O 0.55051 0.51575 0.05034 0.0
O810 O 0.5337 0.47289 0.0197 0.0
O811 O 0.48865 0.46625 0.01114 0.0
O812 O 0.4744 0.49912 0.03334 0.0
O813 O 0.44225 0.47147 0.0067 0.0
H814 H 0.48664 0.51658 0.93521 0.0
H815 H 0.50606 0.51596 0.90571 0.0
H816 H 0.47648 0.41535 0.90687 0.0
H817 H 0.45607 0.41575 0.93618 0.0
H818 H 0.50653 0.48612 0.07235 0.0
H819 H 0.48912 0.48241 0.10283 0.0
H820 H 0.54867 0.58582 0.11462 0.0
H821 H 0.56697 0.58904 0.08441 0.0
C822 C 0.21053 0.3662 0.39213 0.0
Eu823 Eu 0.18545 0.35377 0.35855 0.0
C824 C 0.19937 0.35436 0.4096 0.0
C825 C 0.22164 0.36088 0.42439 0.0
C826 C 0.21139 0.34982 0.44109 0.0
C827 C 0.17862 0.33189 0.4433 0.0
C828 C 0.15637 0.3255 0.42839 0.0
C829 C 0.16667 0.33669 0.41171 0.0
C830 C 0.16522 0.38881 0.34123 0.0
C831 C 0.10894 0.30042 0.35647 0.0
C832 C 0.121 0.31238 0.28835 0.0
Eu833 Eu 0.1459 0.32228 0.32177 0.0
C834 C 0.13279 0.32347 0.27069 0.0
C835 C 0.15121 0.31297 0.26169 0.0
C836 C 0.1617 0.32336 0.24489 0.0
C837 C 0.15403 0.34448 0.2367 0.0
C838 C 0.13592 0.35522 0.24585 0.0
C839 C 0.12533 0.34473 0.2626 0.0
C840 C 0.16591 0.28696 0.33894 0.0
C841 C 0.22327 0.37412 0.32383 0.0
O842 O 0.21213 0.34587 0.38024 0.0
O843 O 0.19842 0.38222 0.38483 0.0
O844 O 0.19308 0.40136 0.35031 0.0
O845 O 0.1491 0.35897 0.34233 0.0
O846 O 0.13755 0.31382 0.36558 0.0
O847 O 0.10518 0.30413 0.33919 0.0
O848 O 0.1221 0.33409 0.30041 0.0
O849 O 0.12911 0.29308 0.29556 0.0
O850 O 0.13827 0.27443 0.32953 0.0
O851 O 0.1821 0.31687 0.33799 0.0
O852 O 0.19496 0.35935 0.31422 0.0
O853 O 0.22646 0.37253 0.34148 0.0
H854 H 0.24698 0.37462 0.42302 0.0
H855 H 0.22919 0.3556 0.45234 0.0
H856 H 0.13098 0.31145 0.42952 0.0
H857 H 0.14908 0.33155 0.40049 0.0
H858 H 0.15738 0.29654 0.26752 0.0
H859 H 0.17524 0.31427 0.23815 0.0
H860 H 0.12999 0.37189 0.24011 0.0
H861 H 0.11123 0.35327 0.26923 0.0
C862 C 0.66308 0.86819 0.38877 0.0
Eu863 Eu 0.66119 0.84323 0.35621 0.0
C864 C 0.67204 0.86635 0.40774 0.0
C865 C 0.66048 0.83678 0.41505 0.0
C866 C 0.66912 0.83607 0.43325 0.0
C867 C 0.68958 0.86489 0.44439 0.0
C868 C 0.7015 0.89434 0.43685 0.0
C869 C 0.6927 0.89503 0.41875 0.0
C870 C 0.62196 0.78172 0.34153 0.0
C871 C 0.71242 0.81784 0.35487 0.0
C872 C 0.67659 0.80228 0.2867 0.0
Eu873 Eu 0.67793 0.82581 0.31957 0.0
C874 C 0.66632 0.80422 0.268 0.0
C875 C 0.67593 0.83396 0.26122 0.0
C876 C 0.66648 0.83498 0.24324 0.0
C877 C 0.6471 0.8063 0.23176 0.0
C878 C 0.63698 0.77662 0.23878 0.0
C879 C 0.6466 0.77563 0.25669 0.0
C880 C 0.7168 0.88741 0.33442 0.0
C881 C 0.62647 0.85062 0.32102 0.0
O882 O 0.68653 0.88118 0.37854 0.0
O883 O 0.63748 0.84316 0.38029 0.0
O884 O 0.6124 0.7983 0.35101 0.0
O885 O 0.65183 0.7974 0.34131 0.0
O886 O 0.70109 0.83348 0.36433 0.0
O887 O 0.70366 0.80826 0.33736 0.0
O888 O 0.65388 0.7876 0.29718 0.0
O889 O 0.70148 0.82804 0.29514 0.0
O890 O 0.72672 0.87099 0.32511 0.0
O891 O 0.68696 0.87142 0.3344 0.0
O892 O 0.63636 0.83334 0.31182 0.0
O893 O 0.63707 0.86206 0.33818 0.0
H894 H 0.64464 0.81426 0.40678 0.0
H895 H 0.65933 0.81301 0.43866 0.0
H896 H 0.71784 0.91695 0.44489 0.0
H897 H 0.70208 0.91807 0.41332 0.0
H898 H 0.69099 0.85641 0.26972 0.0
H899 H 0.67495 0.85823 0.23825 0.0
H900 H 0.62154 0.75407 0.23045 0.0
H901 H 0.63871 0.75244 0.2617 0.0
C902 C 0.12224 0.79566 0.28731 0.0
Eu903 Eu 0.147 0.82274 0.32019 0.0
C904 C 0.13321 0.79766 0.26899 0.0
C905 C 0.15142 0.82739 0.26207 0.0
C906 C 0.16102 0.8285 0.24453 0.0
C907 C 0.15278 0.79993 0.23358 0.0
C908 C 0.13506 0.77029 0.24076 0.0
C909 C 0.12532 0.7692 0.25822 0.0
C910 C 0.16682 0.88435 0.33303 0.0
C911 C 0.22475 0.85392 0.32221 0.0
C912 C 0.21203 0.87228 0.39005 0.0
Eu913 Eu 0.18773 0.84633 0.35696 0.0
C914 C 0.2004 0.86838 0.40828 0.0
C915 C 0.18953 0.83932 0.41614 0.0
C916 C 0.17856 0.83621 0.43337 0.0
C917 C 0.17802 0.86198 0.44306 0.0
C918 C 0.18877 0.89095 0.43514 0.0
C919 C 0.19995 0.89413 0.41798 0.0
C920 C 0.16836 0.78506 0.34378 0.0
C921 C 0.10975 0.81437 0.35497 0.0
O922 O 0.13311 0.78328 0.29893 0.0
O923 O 0.1212 0.82051 0.29469 0.0
O924 O 0.13927 0.86536 0.32392 0.0
O925 O 0.18312 0.87077 0.33395 0.0
O926 O 0.19634 0.83397 0.31338 0.0
O927 O 0.22788 0.86678 0.33904 0.0
O928 O 0.20045 0.88455 0.37878 0.0
O929 O 0.21452 0.84867 0.3821 0.0
O930 O 0.1961 0.80422 0.35263 0.0
O931 O 0.15183 0.79842 0.34322 0.0
O932 O 0.13809 0.83414 0.36395 0.0
O933 O 0.1068 0.80234 0.33798 0.0
H934 H 0.15808 0.84979 0.27014 0.0
H935 H 0.1744 0.85174 0.23945 0.0
H936 H 0.12883 0.74782 0.23293 0.0
H937 H 0.11155 0.74602 0.26333 0.0
H938 H 0.1894 0.81892 0.409 0.0
H939 H 0.17017 0.81349 0.43903 0.0
H940 H 0.18906 0.91139 0.44234 0.0
H941 H 0.20829 0.91682 0.41227 0.0
C942 C 0.87545 0.70128 0.72585 0.0
Eu943 Eu 0.85224 0.68791 0.69192 0.0
C944 C 0.86374 0.68867 0.74326 0.0
C945 C 0.85748 0.70707 0.75605 0.0
C946 C 0.84626 0.69553 0.77252 0.0
C947 C 0.8413 0.66539 0.77667 0.0
C948 C 0.84771 0.64703 0.76385 0.0
C949 C 0.85874 0.65848 0.74734 0.0
C950 C 0.83251 0.72111 0.67246 0.0
C951 C 0.7756 0.63381 0.68927 0.0
C952 C 0.79146 0.63951 0.62117 0.0
Eu953 Eu 0.81474 0.65334 0.65509 0.0
C954 C 0.80345 0.65072 0.6036 0.0
C955 C 0.80367 0.62896 0.59017 0.0
C956 C 0.81478 0.63887 0.57343 0.0
C957 C 0.82566 0.67076 0.56963 0.0
C958 C 0.82564 0.69262 0.58318 0.0
C959 C 0.81475 0.68276 0.59999 0.0
C960 C 0.83456 0.62029 0.67469 0.0
C961 C 0.89141 0.70742 0.65767 0.0
O962 O 0.87996 0.68273 0.71413 0.0
O963 O 0.86249 0.71621 0.71811 0.0
O964 O 0.85971 0.73459 0.68239 0.0
O965 O 0.81645 0.6914 0.67401 0.0
O966 O 0.80366 0.64942 0.69912 0.0
O967 O 0.77284 0.63463 0.67152 0.0
O968 O 0.78834 0.6595 0.63256 0.0
O969 O 0.80312 0.62373 0.62923 0.0
O970 O 0.80729 0.60673 0.66483 0.0
O971 O 0.85054 0.64992 0.67296 0.0
O972 O 0.86343 0.69137 0.64776 0.0
O973 O 0.89412 0.70709 0.67547 0.0
H974 H 0.86116 0.73043 0.7533 0.0
H975 H 0.8412 0.71017 0.78192 0.0
H976 H 0.84471 0.62397 0.76668 0.0
H977 H 0.86343 0.64368 0.73783 0.0
H978 H 0.79523 0.60419 0.59263 0.0
H979 H 0.81495 0.62149 0.56349 0.0
H980 H 0.83341 0.71724 0.58069 0.0
H981 H 0.81499 0.7002 0.61008 0.0
C982 C 0.33229 0.20212 0.71999 0.0
Eu983 Eu 0.33046 0.17806 0.6872 0.0
C984 C 0.34397 0.2015 0.73867 0.0
C985 C 0.33183 0.17275 0.74694 0.0
C986 C 0.3427 0.17312 0.76486 0.0
C987 C 0.36597 0.2022 0.77483 0.0
C988 C 0.37844 0.23079 0.76636 0.0
C989 C 0.36744 0.23044 0.74852 0.0
C990 C 0.28983 0.11772 0.67134 0.0
C991 C 0.37983 0.15027 0.68606 0.0
C992 C 0.34893 0.14004 0.61768 0.0
Eu993 Eu 0.34812 0.16123 0.65078 0.0
C994 C 0.33794 0.14123 0.59895 0.0
C995 C 0.34773 0.17064 0.59171 0.0
C996 C 0.33814 0.171 0.57364 0.0
C997 C 0.31848 0.142 0.56248 0.0
C998 C 0.30821 0.11265 0.56993 0.0
C999 C 0.31795 0.11231 0.58794 0.0
C1000 C 0.38837 0.22131 0.66721 0.0
C1001 C 0.29752 0.1873 0.65204 0.0
O1002 O 0.35414 0.21723 0.70907 0.0
O1003 O 0.30765 0.1756 0.71198 0.0
O1004 O 0.28076 0.13489 0.68071 0.0
O1005 O 0.31981 0.13221 0.67172 0.0
O1006 O 0.36904 0.16649 0.69548 0.0
O1007 O 0.37161 0.14138 0.66846 0.0
O1008 O 0.3268 0.12326 0.6281 0.0
O1009 O 0.3723 0.16681 0.62629 0.0
O1010 O 0.3979 0.20397 0.6585 0.0
O1011 O 0.3584 0.20681 0.66615 0.0
O1012 O 0.30744 0.17006 0.64282 0.0
O1013 O 0.30736 0.19796 0.66934 0.0
H1014 H 0.31373 0.15001 0.73967 0.0
H1015 H 0.33235 0.15072 0.77101 0.0
H1016 H 0.39679 0.25353 0.77351 0.0
H1017 H 0.37724 0.2529 0.74242 0.0
H1018 H 0.36311 0.19338 0.59989 0.0
H1019 H 0.34676 0.19403 0.56832 0.0
H1020 H 0.29259 0.08986 0.56185 0.0
H1021 H 0.31001 0.08935 0.59325 0.0
C1022 C 0.79073 0.13033 0.62214 0.0
Eu1023 Eu 0.81543 0.15705 0.65505 0.0
C1024 C 0.80232 0.13319 0.60395 0.0
C1025 C 0.81952 0.16326 0.59718 0.0
C1026 C 0.83046 0.1653 0.57997 0.0
C1027 C 0.82474 0.1374 0.56927 0.0
C1028 C 0.80769 0.10741 0.57614 0.0
C1029 C 0.79654 0.10535 0.59327 0.0
C1030 C 0.83627 0.21898 0.66774 0.0
C1031 C 0.893 0.18716 0.65688 0.0
C1032 C 0.88156 0.20693 0.72461 0.0
Eu1033 Eu 0.85628 0.18035 0.69174 0.0
C1034 C 0.87072 0.20398 0.74295 0.0
C1035 C 0.84944 0.17388 0.74857 0.0
C1036 C 0.83957 0.17175 0.76607 0.0
C1037 C 0.85056 0.19971 0.77823 0.0
C1038 C 0.87142 0.22982 0.77235 0.0
C1039 C 0.88144 0.23188 0.75493 0.0
C1040 C 0.8361 0.11885 0.67864 0.0
C1041 C 0.7784 0.14904 0.6899 0.0
O1042 O 0.80167 0.11785 0.63366 0.0
O1043 O 0.7892 0.15476 0.62971 0.0
O1044 O 0.80861 0.20028 0.65869 0.0
O1045 O 0.85213 0.20493 0.66869 0.0
O1046 O 0.86448 0.16748 0.64811 0.0
O1047 O 0.89634 0.20013 0.67372 0.0
O1048 O 0.86983 0.21909 0.71338 0.0
O1049 O 0.88298 0.18255 0.71686 0.0
O1050 O 0.86396 0.13778 0.68743 0.0
O1051 O 0.81991 0.13256 0.67808 0.0
O1052 O 0.80679 0.16872 0.69885 0.0
O1053 O 0.77536 0.13694 0.67291 0.0
H1054 H 0.82464 0.18521 0.60519 0.0
H1055 H 0.84379 0.18877 0.57513 0.0
H1056 H 0.80259 0.08543 0.56816 0.0
H1057 H 0.78338 0.08192 0.5982 0.0
H1058 H 0.84055 0.15198 0.73949 0.0
H1059 H 0.82374 0.14814 0.77014 0.0
H1060 H 0.87986 0.25193 0.78115 0.0
H1061 H 0.89755 0.25537 0.75077 0.0
C1062 C 0.35744 0.9192 0.0349 0.0
C1063 C 0.3613 0.90577 0.05043 0.0
H1064 H 0.38022 0.94918 0.01395 0.0
C1065 C 0.39212 0.91354 0.05716 0.0
H1066 H 0.33386 0.91337 0.02938 0.0
C1067 C 0.41859 0.93431 0.04854 0.0
C1068 C 0.41476 0.94727 0.03277 0.0
H1069 H 0.39572 0.90357 0.06914 0.0
H1070 H 0.44203 0.93969 0.05405 0.0
C1071 C 0.3839 0.93951 0.02603 0.0
C1072 C 0.09274 0.44112 0.0315 0.0
C1073 C 0.11346 0.46126 0.04662 0.0
H1074 H 0.05619 0.43292 0.01083 0.0
C1075 C 0.11276 0.4891 0.05267 0.0
H1076 H 0.09297 0.41959 0.02655 0.0
C1077 C 0.09146 0.4965 0.04387 0.0
C1078 C 0.07089 0.47651 0.02865 0.0
H1079 H 0.1284 0.5049 0.06436 0.0
H1080 H 0.09132 0.51803 0.04891 0.0
C1081 C 0.07186 0.44884 0.02248 0.0
C1082 C 0.49778 0.6231 0.02472 0.0
C1083 C 0.53032 0.64566 0.02964 0.0
H1084 H 0.46307 0.57586 0.01233 0.0
C1085 C 0.55304 0.63684 0.02554 0.0
H1086 H 0.47948 0.62858 0.02798 0.0
C1087 C 0.54345 0.60623 0.01698 0.0
C1088 C 0.51101 0.58401 0.01204 0.0
H1089 H 0.57831 0.65363 0.02879 0.0
H1090 H 0.56145 0.60007 0.01408 0.0
C1091 C 0.48828 0.59273 0.01587 0.0
C1092 C 0.88307 0.37 0.99157 0.0
C1093 C 0.89413 0.35514 0.97928 0.0
H1094 H 0.89465 0.41121 0.0101 0.0
C1095 C 0.92707 0.37083 0.97737 0.0
H1096 H 0.85814 0.35844 0.9939 0.0
C1097 C 0.94813 0.40062 0.98722 0.0
C1098 C 0.9367 0.41589 0.9988 0.0
H1099 H 0.93666 0.36059 0.96794 0.0
H1100 H 0.9733 0.41201 0.98544 0.0
C1101 C 0.90405 0.40015 1.00105 0.0
C1102 C 0.64477 0.56404 0.97672 0.0
C1103 C 0.64178 0.54389 0.96124 0.0
H1104 H 0.62129 0.57282 0.99816 0.0
C1105 C 0.61175 0.51711 0.95518 0.0
H1106 H 0.66775 0.58474 0.98172 0.0
C1107 C 0.58521 0.5105 0.96441 0.0
C1108 C 0.5882 0.53024 0.98009 0.0
H1109 H 0.60876 0.50132 0.94323 0.0
H1110 H 0.56241 0.48958 0.95937 0.0
C1111 C 0.61826 0.5571 0.98617 0.0
C1112 C 0.44829 0.07893 0.97852 0.0
C1113 C 0.47135 0.10858 0.97321 0.0
H1114 H 0.43929 0.03892 0.99336 0.0
C1115 C 0.50367 0.12077 0.97899 0.0
H1116 H 0.42322 0.06905 0.97418 0.0
C1117 C 0.51277 0.10393 0.99017 0.0
C1118 C 0.48975 0.07433 0.9955 0.0
H1119 H 0.52186 0.14372 0.9752 0.0
H1120 H 0.53784 0.11401 0.99459 0.0
C1121 C 0.45746 0.06176 0.98944 0.0
C1122 C 0.61261 0.07544 0.95382 0.0
C1123 C 0.64141 0.09872 0.96386 0.0
H1124 H 0.56357 0.0393 0.95442 0.0
C1125 C 0.64218 0.10281 0.9829 0.0
H1126 H 0.61111 0.0712 0.93919 0.0
C1127 C 0.6151 0.08404 0.99165 0.0
C1128 C 0.58634 0.06101 0.98159 0.0
H1129 H 0.66359 0.12096 0.99112 0.0
H1130 H 0.61659 0.08805 0.0063 0.0
C1131 C 0.58535 0.05696 0.96257 0.0
C1132 C 0.91288 0.55599 0.97571 0.0
C1133 C 0.89297 0.53643 0.96015 0.0
H1134 H 0.94988 0.56493 0.99623 0.0
C1135 C 0.896 0.51024 0.95332 0.0
H1136 H 0.91179 0.57675 0.98119 0.0
C1137 C 0.91841 0.50393 0.96174 0.0
C1138 C 0.93799 0.52332 0.97736 0.0
H1139 H 0.88075 0.49424 0.94159 0.0
H1140 H 0.92001 0.4835 0.95616 0.0
C1141 C 0.93493 0.54936 0.98429 0.0
C1142 C 0.51154 0.3862 0.98594 0.0
C1143 C 0.47934 0.36383 0.98027 0.0
H1144 H 0.54509 0.43205 1.00041 0.0
C1145 C 0.45581 0.37088 0.98508 0.0
H1146 H 0.53008 0.38119 0.98246 0.0
C1147 C 0.4644 0.4001 0.99514 0.0
C1148 C 0.49661 0.42242 1.00081 0.0
H1149 H 0.43084 0.35407 0.98076 0.0
H1150 H 0.44589 0.40525 0.99848 0.0
C1151 C 0.52008 0.41514 0.99626 0.0
C1152 C 0.12672 0.62995 0.01747 0.0
C1153 C 0.11418 0.64473 0.02854 0.0
H1154 H 0.11661 0.58899 0.99911 0.0
C1155 C 0.08103 0.63028 0.0287 0.0
H1156 H 0.15229 0.64081 0.01721 0.0
C1157 C 0.06065 0.60113 0.01808 0.0
C1158 C 0.07315 0.58553 0.00759 0.0
H1159 H 0.07096 0.64147 0.0371 0.0
H1160 H 0.03513 0.59048 0.0184 0.0
C1161 C 0.10635 0.60041 0.00716 0.0
C1162 C 0.36099 0.45526 0.03344 0.0
C1163 C 0.36258 0.45553 0.05249 0.0
H1164 H 0.38579 0.46278 0.00963 0.0
C1165 C 0.39197 0.46402 0.06207 0.0
H1166 H 0.33914 0.44967 0.02555 0.0
C1167 C 0.41901 0.47236 0.0529 0.0
C1168 C 0.41719 0.47187 0.03389 0.0
H1169 H 0.39414 0.46401 0.07667 0.0
H1170 H 0.44127 0.4789 0.0607 0.0
C1171 C 0.38786 0.46301 0.02426 0.0
C1172 C 0.5532 0.93277 0.03365 0.0
C1173 C 0.53085 0.90233 0.03841 0.0
H1174 H 0.56081 0.9736 0.02004 0.0
C1175 C 0.4983 0.8897 0.03306 0.0
H1176 H 0.57842 0.94301 0.0377 0.0
C1177 C 0.48832 0.90684 0.0227 0.0
C1178 C 0.51068 0.93713 0.01783 0.0
H1179 H 0.48066 0.86618 0.03648 0.0
H1180 H 0.46312 0.8964 0.01852 0.0
C1181 C 0.54315 0.95021 0.0236 0.0
C1182 C 0.05784 0.24539 0.39002 0.0
C1183 C 0.02727 0.23895 0.38374 0.0
H1184 H 0.1076 0.27012 0.38644 0.0
C1185 C 0.02367 0.25329 0.36857 0.0
H1186 H 0.06124 0.23469 0.40171 0.0
C1187 C 0.05015 0.27322 0.3596 0.0
C1188 C 0.08077 0.27967 0.3659 0.0
H1189 H 1.00027 0.2485 0.36342 0.0
H1190 H 0.04667 0.28366 0.34781 0.0
C1191 C 0.08435 0.26577 0.3813 0.0
C1192 C 0.77746 0.79765 0.36376 0.0
C1193 C 0.77818 0.79623 0.38262 0.0
H1194 H 0.75565 0.8051 0.34012 0.0
C1195 C 0.75707 0.80177 0.39228 0.0
H1196 H 0.79344 0.79328 0.35603 0.0
C1197 C 0.73583 0.80901 0.38327 0.0
C1198 C 0.73486 0.81015 0.36437 0.0
H1199 H 0.75731 0.80093 0.40685 0.0
H1200 H 0.71995 0.81339 0.39109 0.0
C1201 C 0.75576 0.80422 0.35468 0.0
C1202 C 0.2161 0.96511 0.36107 0.0
C1203 C 0.19615 0.97839 0.35949 0.0
H1204 H 0.22285 0.92546 0.35351 0.0
C1205 C 0.16702 0.9608 0.34839 0.0
H1206 H 0.23849 0.97758 0.36963 0.0
C1207 C 0.15763 0.93037 0.33965 0.0
C1208 C 0.17737 0.91706 0.34155 0.0
H1209 H 0.15135 0.97046 0.34642 0.0
H1210 H 0.13483 0.9172 0.33147 0.0
C1211 C 0.20696 0.93498 0.35202 0.0
C1212 C 0.59182 0.70375 0.31125 0.0
C1213 C 0.55863 0.68852 0.31225 0.0
H1214 H 0.63794 0.74451 0.32025 0.0
C1215 C 0.54694 0.70376 0.32381 0.0
H1216 H 0.6019 0.69316 0.30243 0.0
C1217 C 0.56761 0.73385 0.33343 0.0
C1218 C 0.60054 0.74918 0.33207 0.0
H1219 H 0.52176 0.69254 0.32547 0.0
H1220 H 0.55772 0.74517 0.34189 0.0
C1221 C 0.61255 0.73351 0.32125 0.0
C1222 C 0.30984 0.89638 0.30941 0.0
C1223 C 0.30731 0.87617 0.29409 0.0
H1224 H 0.28577 0.90496 0.33058 0.0
C1225 C 0.27756 0.84896 0.28807 0.0
H1226 H 0.3326 0.91742 0.31437 0.0
C1227 C 0.25083 0.84202 0.29716 0.0
C1228 C 0.25333 0.86189 0.31266 0.0
H1229 H 0.27493 0.8331 0.27623 0.0
H1230 H 0.22825 0.8208 0.29214 0.0
C1231 C 0.28313 0.88914 0.31873 0.0
C1232 C 0.16807 0.45292 0.31347 0.0
C1233 C 0.13562 0.44043 0.3079 0.0
H1234 H 0.20281 0.44646 0.32869 0.0
C1235 C 0.1129 0.41069 0.31327 0.0
H1236 H 0.18599 0.47595 0.30962 0.0
C1237 C 0.12255 0.39367 0.324 0.0
C1238 C 0.15497 0.40646 0.32979 0.0
H1239 H 0.08775 0.40057 0.30908 0.0
H1240 H 0.10464 0.37072 0.32794 0.0
C1241 C 0.17765 0.43621 0.32446 0.0
C1242 C 0.30799 0.43518 0.31581 0.0
C1243 C 0.30715 0.43131 0.29676 0.0
H1244 H 0.2825 0.42016 0.33923 0.0
C1245 C 0.27828 0.40814 0.28671 0.0
H1246 H 0.32943 0.45323 0.32404 0.0
C1247 C 0.25105 0.38957 0.29548 0.0
C1248 C 0.25213 0.3934 0.31451 0.0
H1249 H 0.2767 0.40406 0.27207 0.0
H1250 H 0.22923 0.37201 0.28732 0.0
C1251 C 0.28094 0.41631 0.32456 0.0
C1252 C 0.57867 0.89068 0.30978 0.0
C1253 C 0.55919 0.87134 0.29404 0.0
H1254 H 0.61498 0.89921 0.33066 0.0
C1255 C 0.56239 0.84524 0.28724 0.0
H1256 H 0.57745 0.91138 0.31524 0.0
C1257 C 0.58452 0.83878 0.29587 0.0
C1258 C 0.60358 0.8579 0.31169 0.0
H1259 H 0.54747 0.8294 0.27538 0.0
H1260 H 0.58626 0.81842 0.29033 0.0
C1261 C 0.60039 0.88386 0.31858 0.0
C1262 C 0.11778 0.70203 0.3184 0.0
C1263 C 0.14106 0.69418 0.31428 0.0
H1264 H 0.10834 0.73745 0.33085 0.0
C1265 C 0.17322 0.71604 0.32033 0.0
H1266 H 0.09286 0.68559 0.31377 0.0
C1267 C 0.18199 0.74534 0.33029 0.0
C1268 C 0.15881 0.75349 0.33408 0.0
H1269 H 0.19155 0.7104 0.31736 0.0
H1270 H 0.20697 0.76188 0.33471 0.0
C1271 C 0.12663 0.73163 0.32808 0.0
C1272 C 0.79108 0.96461 0.35408 0.0
C1273 C 0.77824 0.97934 0.36493 0.0
H1274 H 0.78153 0.92356 0.33602 0.0
C1275 C 0.74506 0.96452 0.36509 0.0
H1276 H 0.81668 0.97574 0.35383 0.0
C1277 C 0.72493 0.9351 0.35463 0.0
C1278 C 0.73777 0.91965 0.34431 0.0
H1279 H 0.73477 0.97568 0.37334 0.0
H1280 H 0.69937 0.92421 0.35488 0.0
C1281 C 0.77101 0.93485 0.34394 0.0
C1282 C 0.02455 0.76836 0.3672 0.0
C1283 C 0.02609 0.78653 0.38329 0.0
H1284 H 0.04955 0.76298 0.34557 0.0
C1285 C 0.05556 0.81384 0.38992 0.0
H1286 H 0.0025 0.74686 0.3618 0.0
C1287 C 0.08265 0.8227 0.38077 0.0
C1288 C 0.08093 0.80477 0.36459 0.0
H1289 H 0.05768 0.82887 0.40203 0.0
H1290 H 0.10488 0.84395 0.38625 0.0
C1291 C 0.05158 0.77752 0.35789 0.0
C1292 C 0.21874 0.2637 0.3652 0.0
C1293 C 0.19621 0.23342 0.37007 0.0
H1294 H 0.22663 0.30475 0.35171 0.0
C1295 C 0.16365 0.22125 0.36499 0.0
H1296 H 0.24396 0.27357 0.36903 0.0
C1297 C 0.15382 0.2387 0.35481 0.0
C1298 C 0.17635 0.26886 0.34986 0.0
H1299 H 0.14589 0.19785 0.3685 0.0
H1300 H 0.1286 0.22862 0.35085 0.0
C1301 C 0.20884 0.28147 0.35535 0.0
C1302 C 0.69146 0.57069 0.69719 0.0
C1303 C 0.69258 0.57392 0.71628 0.0
H1304 H 0.71653 0.58705 0.67373 0.0
C1305 C 0.72108 0.59785 0.72629 0.0
H1306 H 0.67022 0.55221 0.68899 0.0
C1307 C 0.74787 0.61746 0.71751 0.0
C1308 C 0.74675 0.61395 0.69847 0.0
H1309 H 0.72278 0.60155 0.74096 0.0
H1310 H 0.76949 0.6354 0.72569 0.0
C1311 C 0.71814 0.59058 0.6884 0.0
C1312 C 0.44379 0.12871 0.69525 0.0
C1313 C 0.44411 0.12707 0.71409 0.0
H1314 H 0.42274 0.13681 0.67154 0.0
C1315 C 0.42286 0.13261 0.72362 0.0
H1316 H 0.4599 0.12438 0.68763 0.0
C1317 C 0.40198 0.14021 0.7145 0.0
C1318 C 0.40152 0.14171 0.69563 0.0
H1319 H 0.4228 0.13161 0.73817 0.0
H1320 H 0.38607 0.14471 0.72222 0.0
C1321 C 0.42244 0.13564 0.68607 0.0
C1322 C 0.88696 0.29987 0.69543 0.0
C1323 C 0.86772 0.31391 0.69365 0.0
H1324 H 0.89256 0.2594 0.68815 0.0
C1325 C 0.83861 0.29677 0.68248 0.0
H1326 H 0.90929 0.31192 0.70404 0.0
C1327 C 0.82852 0.26603 0.67393 0.0
C1328 C 0.84755 0.25198 0.67605 0.0
H1329 H 0.82348 0.307 0.68032 0.0
H1330 H 0.80574 0.25322 0.66571 0.0
C1331 C 0.87716 0.26947 0.68652 0.0
C1332 C 0.21389 0.04106 0.65303 0.0
C1333 C 0.22537 0.02474 0.64217 0.0
H1334 H 0.22522 0.08326 0.67056 0.0
C1335 C 0.25858 0.03905 0.64158 0.0
H1336 H 0.18864 0.0306 0.65429 0.0
C1337 C 0.2796 0.06887 0.65143 0.0
C1338 C 0.2679 0.08545 0.66173 0.0
H1339 H 0.26847 0.02759 0.63326 0.0
H1340 H 0.305 0.07909 0.65081 0.0
C1341 C 0.23489 0.07116 0.66255 0.0
C1342 C 0.94522 0.1817 0.62248 0.0
C1343 C 0.975 0.20905 0.62826 0.0
H1344 H 0.89606 0.15354 0.6269 0.0
C1345 C 0.97778 0.22943 0.64357 0.0
H1346 H 0.9424 0.1657 0.61067 0.0
C1347 C 0.95127 0.22225 0.65308 0.0
C1348 C 0.92143 0.19491 0.64722 0.0
H1349 H 1.00057 0.25057 0.64836 0.0
H1350 H 0.95409 0.23824 0.66489 0.0
C1351 C 0.91869 0.17484 0.63176 0.0
C1352 C 0.77934 0.74207 0.64461 0.0
C1353 C 0.80164 0.77253 0.63987 0.0
H1354 H 0.77184 0.7015 0.65848 0.0
C1355 C 0.83414 0.78554 0.64553 0.0
H1356 H 0.75417 0.73157 0.64034 0.0
C1357 C 0.84414 0.76873 0.65613 0.0
C1358 C 0.82186 0.73837 0.66097 0.0
H1359 H 0.85172 0.8091 0.64212 0.0
H1360 H 0.8693 0.77947 0.66055 0.0
C1361 C 0.78944 0.72493 0.65492 0.0
C1362 C 0.94676 0.74107 0.62071 0.0
C1363 C 0.97514 0.76536 0.63067 0.0
H1364 H 0.89819 0.70387 0.62136 0.0
C1365 C 0.97567 0.77 0.64967 0.0
H1366 H 0.94546 0.73632 0.60613 0.0
C1367 C 0.94872 0.75087 0.65845 0.0
C1368 C 0.92034 0.72691 0.64845 0.0
H1369 H 0.99676 0.78886 0.65782 0.0
H1370 H 0.94997 0.75534 0.67306 0.0
C1371 C 0.91965 0.72225 0.62948 0.0
C1372 C 0.23225 0.1809 0.61885 0.0
C1373 C 0.22872 0.2067 0.62582 0.0
H1374 H 0.25694 0.15479 0.62154 0.0
C1375 C 0.24865 0.22645 0.64133 0.0
H1376 H 0.21701 0.16476 0.60716 0.0
C1377 C 0.27106 0.22021 0.64981 0.0
C1378 C 0.27448 0.19446 0.6428 0.0
H1379 H 0.24721 0.24696 0.64689 0.0
H1380 H 0.28589 0.23576 0.66179 0.0
C1381 C 0.25506 0.17504 0.62715 0.0
C1382 C 0.83941 0.04883 0.65526 0.0
C1383 C 0.80709 0.02725 0.64947 0.0
H1384 H 0.87386 0.09469 0.66937 0.0
C1385 C 0.78421 0.0356 0.65374 0.0
H1386 H 0.85743 0.0428 0.65215 0.0
C1387 C 0.79364 0.06544 0.66332 0.0
C1388 C 0.82599 0.08703 0.66907 0.0
H1389 H 0.75918 0.01937 0.6493 0.0
H1390 H 0.77566 0.07165 0.66619 0.0
C1391 C 0.84876 0.07836 0.66514 0.0
C1392 C 0.41883 0.30167 0.69493 0.0
C1393 C 0.45022 0.30991 0.70068 0.0
H1394 H 0.37434 0.26668 0.67994 0.0
C1395 C 0.46119 0.28904 0.69516 0.0
H1396 H 0.40982 0.31734 0.69911 0.0
C1397 C 0.44118 0.26048 0.684 0.0
C1398 C 0.40966 0.252 0.67846 0.0
H1399 H 0.48537 0.29498 0.69937 0.0
H1400 H 0.45022 0.24478 0.67994 0.0
C1401 C 0.39859 0.27276 0.68404 0.0
C1402 C 0.72384 0.14876 0.72457 0.0
C1403 C 0.69449 0.12121 0.71799 0.0
H1404 H 0.77319 0.17905 0.72094 0.0
C1405 C 0.69326 0.10275 0.70211 0.0
H1406 H 0.72575 0.164 0.73653 0.0
C1407 C 0.72038 0.11191 0.6929 0.0
C1408 C 0.74957 0.13945 0.69951 0.0
H1409 H 0.67136 0.08103 0.69678 0.0
H1410 H 0.71854 0.09716 0.68072 0.0
C1411 C 0.75107 0.15761 0.71553 0.0
C1412 C 0.83431 0.55571 0.70094 0.0
C1413 C 0.867 0.56871 0.706 0.0
H1414 H 0.79847 0.56187 0.68677 0.0
C1415 C 0.88891 0.59935 0.70129 0.0
H1416 H 0.81704 0.53202 0.70434 0.0
C1417 C 0.87828 0.6166 0.6915 0.0
C1418 C 0.84568 0.60309 0.68591 0.0
H1419 H 0.91423 0.60982 0.70511 0.0
H1420 H 0.89561 0.6401 0.6879 0.0
C1421 C 0.82376 0.57265 0.69082 0.0
C1422 C 0.46624 0.94242 0.14533 0.0
C1423 C 0.47778 0.96354 0.16144 0.0
H1424 H 0.46642 0.93699 0.11649 0.0
C1425 C 0.49899 0.99646 0.16047 0.0
H1426 H 0.44957 0.91697 0.14564 0.0
C1427 C 0.50903 0.00791 0.14381 0.0
C1428 C 0.49787 0.98675 0.12768 0.0
H1429 H 0.50863 0.01324 0.17268 0.0
H1430 H 0.52622 0.03325 0.14367 0.0
C1431 C 0.47605 0.9539 0.12864 0.0
C1432 C 0.05418 0.50985 0.15262 0.0
C1433 C 0.05958 0.53531 0.16541 0.0
H1434 H 0.04156 0.48987 0.12474 0.0
C1435 C 0.05474 0.55989 0.1597 0.0
H1436 H 0.05792 0.49068 0.15664 0.0
C1437 C 0.04513 0.55931 0.14155 0.0
C1438 C 0.04032 0.53425 0.12862 0.0
H1439 H 0.05809 0.57948 0.16933 0.0
H1440 H 0.04121 0.57844 0.1377 0.0
C1441 C 0.04475 0.50937 0.13438 0.0
C1442 C 0.46673 0.50796 0.15107 0.0
C1443 C 0.48866 0.52825 0.16582 0.0
H1444 H 0.45832 0.49407 0.12239 0.0
C1445 C 0.52009 0.55024 0.16243 0.0
H1446 H 0.44241 0.4905 0.15314 0.0
C1447 C 0.5294 0.5518 0.14486 0.0
C1448 C 0.50748 0.5317 0.13008 0.0
H1449 H 0.53758 0.56669 0.17332 0.0
H1450 H 0.55396 0.5687 0.14293 0.0
C1451 C 0.476 0.50972 0.13343 0.0
C1452 C 0.9761 0.45572 0.84473 0.0
C1453 C 0.96842 0.47876 0.83953 0.0
H1454 H 0.98949 0.43651 0.86646 0.0
C1455 C 0.96886 0.50088 0.85306 0.0
H1456 H 0.97563 0.43804 0.83474 0.0
C1457 C 0.97619 0.49955 0.87137 0.0
C1458 C 0.98335 0.47614 0.87657 0.0
H1459 H 0.96345 0.51919 0.84953 0.0
H1460 H 0.97556 0.51644 0.88147 0.0
C1461 C 0.98359 0.45452 0.86299 0.0
C1462 C 0.54269 0.49112 0.86376 0.0
C1463 C 0.52492 0.46434 0.85074 0.0
H1464 H 0.54699 0.51228 0.89083 0.0
C1465 C 0.49678 0.43797 0.85539 0.0
H1466 H 0.56465 0.51167 0.86067 0.0
C1467 C 0.48654 0.43837 0.87259 0.0
C1468 C 0.50424 0.46511 0.88565 0.0
H1469 H 0.48222 0.41721 0.84557 0.0
H1470 H 0.46435 0.41792 0.87551 0.0
C1471 C 0.53251 0.49147 0.88103 0.0
C1472 C 0.53712 0.03413 0.86257 0.0
C1473 C 0.51765 0.03994 0.85055 0.0
H1474 H 0.54376 0.02092 0.88881 0.0
C1475 C 0.4894 0.03716 0.85635 0.0
H1476 H 0.55895 0.03592 0.8585 0.0
C1477 C 0.48058 0.02832 0.87359 0.0
C1478 C 0.49978 0.02208 0.88555 0.0
H1479 H 0.47407 0.04194 0.84756 0.0
H1480 H 0.45835 0.02582 0.87743 0.0
C1481 C 0.52825 0.02522 0.87986 0.0
C1482 C 0.17366 0.29559 0.48775 0.0
C1483 C 0.14729 0.29567 0.49458 0.0
H1484 H 0.2038 0.30633 0.46624 0.0
C1485 C 0.13137 0.30806 0.48446 0.0
H1486 H 0.18681 0.2867 0.49529 0.0
C1487 C 0.14147 0.31982 0.46784 0.0
C1488 C 0.16777 0.31956 0.46099 0.0
H1489 H 0.11086 0.3083 0.48928 0.0
H1490 H 0.12885 0.32942 0.46044 0.0
C1491 C 0.1837 0.30728 0.47117 0.0
C1492 C 0.71071 0.88928 0.49508 0.0
C1493 C 0.71766 0.86601 0.50067 0.0
H1494 H 0.69555 0.90663 0.47313 0.0
C1495 C 0.71418 0.8415 0.48779 0.0
H1496 H 0.7126 0.90809 0.5048 0.0
C1497 C 0.70476 0.84084 0.46952 0.0
C1498 C 0.69839 0.86455 0.46385 0.0
H1499 H 0.71955 0.82335 0.49175 0.0
H1500 H 0.70324 0.82225 0.4598 0.0
C1501 C 0.70104 0.88848 0.47692 0.0
C1502 C 0.16744 0.84335 0.49205 0.0
C1503 C 0.14819 0.85606 0.49714 0.0
H1504 H 0.19194 0.83526 0.47103 0.0
C1505 C 0.13778 0.86958 0.48409 0.0
H1506 H 0.17562 0.83253 0.50174 0.0
C1507 C 0.14709 0.8711 0.46649 0.0
C1508 C 0.16684 0.85895 0.4615 0.0
H1509 H 0.12316 0.87983 0.48761 0.0
H1510 H 0.1389 0.88192 0.45679 0.0
C1511 C 0.17656 0.84467 0.47441 0.0
C1512 C 0.62196 0.83088 0.189 0.0
C1513 C 0.62124 0.80857 0.1755 0.0
H1514 H 0.63027 0.84746 0.21735 0.0
C1515 C 0.62896 0.78556 0.1807 0.0
H1516 H 0.61639 0.84909 0.18546 0.0
C1517 C 0.63742 0.78498 0.19888 0.0
C1518 C 0.63809 0.80719 0.21241 0.0
H1519 H 0.62817 0.76767 0.17072 0.0
H1520 H 0.64373 0.76723 0.20229 0.0
C1521 C 0.63028 0.83019 0.20726 0.0
C1522 C 0.201 0.82528 0.19273 0.0
C1523 C 0.18032 0.80096 0.179 0.0
H1524 H 0.20897 0.8437 0.22077 0.0
C1525 C 0.1503 0.77699 0.18323 0.0
H1526 H 0.22439 0.84393 0.18992 0.0
C1527 C 0.14133 0.77698 0.2008 0.0
C1528 C 0.16221 0.80081 0.21471 0.0
H1529 H 0.13359 0.75825 0.17288 0.0
H1530 H 0.11783 0.75832 0.20344 0.0
C1531 C 0.1921 0.82515 0.2104 0.0
C1532 C 0.15247 0.3662 0.18847 0.0
C1533 C 0.18251 0.37276 0.18357 0.0
H1534 H 0.11981 0.35173 0.20877 0.0
C1535 C 0.2034 0.3704 0.19643 0.0
H1536 H 0.13593 0.36826 0.17905 0.0
C1537 C 0.19432 0.36144 0.21368 0.0
C1538 C 0.16414 0.35462 0.21849 0.0
H1539 H 0.22663 0.37507 0.19309 0.0
H1540 H 0.21107 0.36007 0.22329 0.0
C1541 C 0.14338 0.35716 0.20565 0.0
C1542 C 0.8314 0.66323 0.82722 0.0
C1543 C 0.81074 0.63022 0.8283 0.0
H1544 H 0.85783 0.70009 0.81026 0.0
C1545 C 0.7993 0.609 0.81223 0.0
H1546 H 0.84094 0.68011 0.83939 0.0
C1547 C 0.80873 0.62045 0.79548 0.0
C1548 C 0.83005 0.65339 0.79441 0.0
H1549 H 0.78301 0.58348 0.81261 0.0
H1550 H 0.79923 0.60344 0.78337 0.0
C1551 C 0.84104 0.67466 0.81049 0.0
C1552 C 0.39285 0.22973 0.82497 0.0
C1553 C 0.3975 0.20509 0.83079 0.0
H1554 H 0.37861 0.24776 0.80298 0.0
C1555 C 0.39141 0.17919 0.81813 0.0
H1556 H 0.39675 0.24969 0.83449 0.0
C1557 C 0.38124 0.17819 0.79996 0.0
C1558 C 0.37674 0.20298 0.79411 0.0
H1559 H 0.39502 0.15998 0.82222 0.0
H1560 H 0.37737 0.15826 0.79045 0.0
C1561 C 0.38251 0.22864 0.80688 0.0
C1562 C 0.85355 0.21686 0.82929 0.0
C1563 C 0.82241 0.19436 0.83288 0.0
H1564 H 0.88696 0.2357 0.80957 0.0
C1565 C 0.80054 0.1734 0.81828 0.0
H1566 H 0.87096 0.23378 0.84007 0.0
C1567 C 0.80958 0.17504 0.80059 0.0
C1568 C 0.84075 0.1976 0.79705 0.0
H1569 H 0.77645 0.15556 0.82052 0.0
H1570 H 0.79196 0.15888 0.78966 0.0
C1571 C 0.86262 0.21834 0.81167 0.0
C1572 C 0.29328 0.16537 0.51924 0.0
C1573 C 0.29202 0.14241 0.50598 0.0
H1574 H 0.30214 0.18302 0.54743 0.0
C1575 C 0.29954 0.11942 0.51149 0.0
H1576 H 0.28793 0.18361 0.51547 0.0
C1577 C 0.30818 0.11941 0.52975 0.0
C1578 C 0.30931 0.14224 0.54303 0.0
H1579 H 0.29838 0.10107 0.50172 0.0
H1580 H 0.31426 0.10161 0.53341 0.0
C1581 C 0.3018 0.16526 0.53755 0.0
C1582 C 0.84154 0.15867 0.52105 0.0
C1583 C 0.85486 0.13991 0.51538 0.0
H1584 H 0.8214 0.17243 0.54245 0.0
C1585 C 0.85967 0.1217 0.52794 0.0
H1586 H 0.83716 0.17271 0.51172 0.0
C1587 C 0.85037 0.12133 0.54547 0.0
C1588 C 0.83625 0.13935 0.55096 0.0
H1589 H 0.87053 0.10755 0.52422 0.0
H1590 H 0.85423 0.10686 0.55474 0.0
C1591 C 0.83242 0.15845 0.53866 0.0
C1592 C 0.87028 0.72166 0.53249 0.0
C1593 C 0.85379 0.7006 0.51666 0.0
H1594 H 0.87481 0.72874 0.56154 0.0
C1595 C 0.82884 0.66933 0.51848 0.0
H1596 H 0.88945 0.74602 0.53163 0.0
C1597 C 0.81999 0.65965 0.53561 0.0
C1598 C 0.83605 0.68086 0.55144 0.0
H1599 H 0.81591 0.65224 0.50664 0.0
H1600 H 0.80002 0.6357 0.53636 0.0
C1601 C 0.86156 0.7119 0.54966 0.0
loop_
_geom_bond_atom_site_label_1
_geom_bond_atom_site_label_2
_geom_bond_distance
_geom_bond_site_symmetry_2
_ccdc_geom_bond_type
C0 C1 1.386 . S
C0 C2 1.397 . S
C0 H24 0.931 . S
C1 C0 1.386 . S
C1 C5 1.397 . S
C2 C0 1.397 . S
C2 C3 1.384 . S
C2 H25 0.930 . S
C3 C2 1.384 . S
C3 C4 1.377 . S
C3 C6 1.481 . S
C4 C3 1.377 . S
C4 C5 1.389 . S
C4 H26 0.929 . S
C5 C1 1.397 . S
C5 C4 1.389 . S
C5 H27 0.931 . S
C6 C3 1.481 . S
C6 C7 1.387 . S
C6 C11 1.390 . S
C7 C6 1.387 . S
C7 C8 1.401 . S
C7 H28 0.930 . S
C8 C7 1.401 . S
C8 C9 1.376 . S
C8 C17 1.511 . S
C9 C8 1.376 . S
C9 C10 1.392 . S
C9 H30 0.931 . S
C10 C9 1.392 . S
C10 C11 1.361 . S
C10 C12 1.500 . S
C11 C6 1.390 . S
C11 C10 1.361 . S
C11 H29 0.931 . S
C12 C10 1.500 . S
C12 C13 1.371 . S
C12 C14 1.365 . S
C13 C12 1.371 . S
C13 C23 1.386 . S
C13 H31 0.931 . S
C14 C12 1.365 . S
C14 C15 1.409 . S
C14 H32 0.929 . S
C15 C14 1.409 . S
C15 C16 1.380 . S
C15 H33 0.930 . S
C16 C15 1.380 . S
C16 C23 1.357 . S
C17 C8 1.511 . S
C17 C18 1.341 . S
C17 C19 1.371 . S
C18 C17 1.341 . S
C18 C22 1.394 . S
C18 H34 0.930 . S
C19 C17 1.371 . S
C19 C20 1.392 . S
C19 H35 0.931 . S
C20 C19 1.392 . S
C20 C21 1.331 . S
C20 H38 0.932 . S
C21 C20 1.331 . S
C21 C22 1.336 . S
C22 C18 1.394 . S
C22 C21 1.336 . S
C22 H37 0.929 . S
C23 C13 1.386 . S
C23 C16 1.357 . S
C23 H36 0.928 . S
H24 C0 0.931 . S
H25 C2 0.930 . S
H26 C4 0.929 . S
H27 C5 0.931 . S
H28 C7 0.930 . S
H29 C11 0.931 . S
H30 C9 0.931 . S
H31 C13 0.931 . S
H32 C14 0.929 . S
H33 C15 0.930 . S
H34 C18 0.930 . S
H35 C19 0.931 . S
H36 C23 0.928 . S
H37 C22 0.929 . S
H38 C20 0.932 . S
C39 C40 1.386 . S
C39 C41 1.397 . S
C39 H63 0.931 . S
C40 C39 1.386 . S
C40 C44 1.397 . S
C41 C39 1.397 . S
C41 C42 1.384 . S
C41 H64 0.930 . S
C42 C41 1.384 . S
C42 C43 1.377 . S
C42 C45 1.481 . S
C43 C42 1.377 . S
C43 C44 1.389 . S
C43 H65 0.929 . S
C44 C40 1.397 . S
C44 C43 1.389 . S
C44 H66 0.931 . S
C45 C42 1.481 . S
C45 C46 1.387 . S
C45 C50 1.390 . S
C46 C45 1.387 . S
C46 C47 1.401 . S
C46 H67 0.930 . S
C47 C46 1.401 . S
C47 C48 1.376 . S
C47 C56 1.511 . S
C48 C47 1.376 . S
C48 C49 1.392 . S
C48 H69 0.931 . S
C49 C48 1.392 . S
C49 C50 1.361 . S
C49 C51 1.500 . S
C50 C45 1.390 . S
C50 C49 1.361 . S
C50 H68 0.931 . S
C51 C49 1.500 . S
C51 C52 1.371 . S
C51 C53 1.365 . S
C52 C51 1.371 . S
C52 C62 1.386 . S
C52 H70 0.931 . S
C53 C51 1.365 . S
C53 C54 1.409 . S
C53 H71 0.929 . S
C54 C53 1.409 . S
C54 C55 1.380 . S
C54 H72 0.930 . S
C55 C54 1.380 . S
C55 C62 1.357 . S
C56 C47 1.511 . S
C56 C57 1.341 . S
C56 C58 1.371 . S
C57 C56 1.341 . S
C57 C61 1.394 . S
C57 H73 0.930 . S
C58 C56 1.371 . S
C58 C59 1.392 . S
C58 H74 0.931 . S
C59 C58 1.392 . S
C59 C60 1.331 . S
C59 H77 0.932 . S
C60 C59 1.331 . S
C60 C61 1.336 . S
C61 C57 1.394 . S
C61 C60 1.336 . S
C61 H76 0.929 . S
C62 C52 1.386 . S
C62 C55 1.357 . S
C62 H75 0.928 . S
H63 C39 0.931 . S
H64 C41 0.930 . S
H65 C43 0.929 . S
H66 C44 0.931 . S
H67 C46 0.930 . S
H68 C50 0.931 . S
H69 C48 0.931 . S
H70 C52 0.931 . S
H71 C53 0.929 . S
H72 C54 0.930 . S
H73 C57 0.930 . S
H74 C58 0.931 . S
H75 C62 0.928 . S
H76 C61 0.929 . S
H77 C59 0.932 . S
C78 C79 1.386 . S
C78 C80 1.397 . S
C78 H102 0.931 . S
C79 C78 1.386 . S
C79 C83 1.397 . S
C80 C78 1.397 . S
C80 C81 1.384 . S
C80 H103 0.930 . S
C81 C80 1.384 . S
C81 C82 1.377 . S
C81 C84 1.481 . S
C82 C81 1.377 . S
C82 C83 1.389 . S
C82 H104 0.929 . S
C83 C79 1.397 . S
C83 C82 1.389 . S
C83 H105 0.931 . S
C84 C81 1.481 . S
C84 C85 1.387 . S
C84 C89 1.390 . S
C85 C84 1.387 . S
C85 C86 1.401 . S
C85 H106 0.930 . S
C86 C85 1.401 . S
C86 C87 1.376 . S
C86 C95 1.511 . S
C87 C86 1.376 . S
C87 C88 1.392 . S
C87 H108 0.931 . S
C88 C87 1.392 . S
C88 C89 1.361 . S
C88 C90 1.500 . S
C89 C84 1.390 . S
C89 C88 1.361 . S
C89 H107 0.931 . S
C90 C88 1.500 . S
C90 C91 1.371 . S
C90 C92 1.365 . S
C91 C90 1.371 . S
C91 C101 1.386 . S
C91 H109 0.931 . S
C92 C90 1.365 . S
C92 C93 1.409 . S
C92 H110 0.929 . S
C93 C92 1.409 . S
C93 C94 1.380 . S
C93 H111 0.930 . S
C94 C93 1.380 . S
C94 C101 1.357 . S
C95 C86 1.511 . S
C95 C96 1.341 . S
C95 C97 1.371 . S
C96 C95 1.341 . S
C96 C100 1.394 . S
C96 H112 0.930 . S
C97 C95 1.371 . S
C97 C98 1.392 . S
C97 H113 0.931 . S
C98 C97 1.392 . S
C98 C99 1.331 . S
C98 H116 0.932 . S
C99 C98 1.331 . S
C99 C100 1.336 . S
C100 C96 1.394 . S
C100 C99 1.336 . S
C100 H115 0.929 1_655 S
C101 C91 1.386 . S
C101 C94 1.357 . S
C101 H114 0.928 . S
H102 C78 0.931 . S
H103 C80 0.930 . S
H104 C82 0.929 . S
H105 C83 0.931 . S
H106 C85 0.930 . S
H107 C89 0.931 . S
H108 C87 0.931 . S
H109 C91 0.931 . S
H110 C92 0.929 . S
H111 C93 0.930 . S
H112 C96 0.930 . S
H113 C97 0.931 . S
H114 C101 0.928 . S
H115 C100 0.929 1_455 S
H116 C98 0.932 . S
C117 C118 1.386 . S
C117 C119 1.397 . S
C117 H141 0.931 . S
C118 C117 1.386 . S
C118 C122 1.397 . S
C119 C117 1.397 . S
C119 C120 1.384 . S
C119 H142 0.930 . S
C120 C119 1.384 . S
C120 C121 1.377 . S
C120 C123 1.481 . S
C121 C120 1.377 . S
C121 C122 1.389 . S
C121 H143 0.929 . S
C122 C118 1.397 . S
C122 C121 1.389 . S
C122 H144 0.931 . S
C123 C120 1.481 . S
C123 C124 1.387 . S
C123 C128 1.390 . S
C124 C123 1.387 . S
C124 C125 1.401 . S
C124 H145 0.930 . S
C125 C124 1.401 . S
C125 C126 1.376 . S
C125 C134 1.511 . S
C126 C125 1.376 . S
C126 C127 1.392 . S
C126 H147 0.931 . S
C127 C126 1.392 . S
C127 C128 1.361 . S
C127 C129 1.500 . S
C128 C123 1.390 . S
C128 C127 1.361 . S
C128 H146 0.931 . S
C129 C127 1.500 . S
C129 C130 1.371 . S
C129 C131 1.365 . S
C130 C129 1.371 . S
C130 C140 1.386 . S
C130 H148 0.931 . S
C131 C129 1.365 . S
C131 C132 1.409 . S
C131 H149 0.929 . S
C132 C131 1.409 . S
C132 C133 1.380 . S
C132 H150 0.930 . S
C133 C132 1.380 . S
C133 C140 1.357 . S
C134 C125 1.511 . S
C134 C135 1.341 . S
C134 C136 1.371 . S
C135 C134 1.341 . S
C135 C139 1.394 . S
C135 H151 0.930 . S
C136 C134 1.371 . S
C136 C137 1.392 . S
C136 H152 0.931 . S
C137 C136 1.392 . S
C137 C138 1.331 . S
C137 H155 0.932 . S
C138 C137 1.331 . S
C138 C139 1.336 . S
C139 C135 1.394 . S
C139 C138 1.336 . S
C139 H154 0.929 . S
C140 C130 1.386 . S
C140 C133 1.357 . S
C140 H153 0.928 . S
H141 C117 0.931 . S
H142 C119 0.930 . S
H143 C121 0.929 . S
H144 C122 0.931 . S
H145 C124 0.930 . S
H146 C128 0.931 . S
H147 C126 0.931 . S
H148 C130 0.931 . S
H149 C131 0.929 . S
H150 C132 0.930 . S
H151 C135 0.930 . S
H152 C136 0.931 . S
H153 C140 0.928 . S
H154 C139 0.929 . S
H155 C137 0.932 . S
C156 C157 1.386 . S
C156 C158 1.397 . S
C156 H180 0.931 . S
C157 C156 1.386 . S
C157 C161 1.397 . S
C158 C156 1.397 . S
C158 C159 1.384 . S
C158 H181 0.930 . S
C159 C158 1.384 . S
C159 C160 1.377 . S
C159 C162 1.481 . S
C160 C159 1.377 . S
C160 C161 1.389 . S
C160 H182 0.929 . S
C161 C157 1.397 . S
C161 C160 1.389 . S
C161 H183 0.931 . S
C162 C159 1.481 . S
C162 C163 1.387 . S
C162 C167 1.390 . S
C163 C162 1.387 . S
C163 C164 1.401 . S
C163 H184 0.930 . S
C164 C163 1.401 . S
C164 C165 1.376 . S
C164 C173 1.511 . S
C165 C164 1.376 . S
C165 C166 1.392 . S
C165 H186 0.931 . S
C166 C165 1.392 . S
C166 C167 1.361 . S
C166 C168 1.500 . S
C167 C162 1.390 . S
C167 C166 1.361 . S
C167 H185 0.931 . S
C168 C166 1.500 . S
C168 C169 1.371 . S
C168 C170 1.365 . S
C169 C168 1.371 . S
C169 C179 1.386 . S
C169 H187 0.931 . S
C170 C168 1.365 . S
C170 C171 1.409 . S
C170 H188 0.929 . S
C171 C170 1.409 . S
C171 C172 1.380 . S
C171 H189 0.930 . S
C172 C171 1.380 . S
C172 C179 1.357 . S
C173 C164 1.511 . S
C173 C174 1.341 . S
C173 C175 1.371 . S
C174 C173 1.341 . S
C174 C178 1.394 . S
C174 H190 0.930 . S
C175 C173 1.371 . S
C175 C176 1.392 . S
C175 H191 0.931 . S
C176 C175 1.392 . S
C176 C177 1.331 . S
C176 H194 0.932 . S
C177 C176 1.331 . S
C177 C178 1.336 . S
C178 C174 1.394 . S
C178 C177 1.336 . S
C178 H193 0.929 . S
C179 C169 1.386 . S
C179 C172 1.357 . S
C179 H192 0.928 . S
H180 C156 0.931 . S
H181 C158 0.930 . S
H182 C160 0.929 . S
H183 C161 0.931 . S
H184 C163 0.930 . S
H185 C167 0.931 . S
H186 C165 0.931 . S
H187 C169 0.931 . S
H188 C170 0.929 . S
H189 C171 0.930 . S
H190 C174 0.930 . S
H191 C175 0.931 . S
H192 C179 0.928 . S
H193 C178 0.929 . S
H194 C176 0.932 . S
C195 C196 1.386 . S
C195 C197 1.397 . S
C195 H219 0.931 . S
C196 C195 1.386 . S
C196 C200 1.397 . S
C197 C195 1.397 . S
C197 C198 1.384 . S
C197 H220 0.930 . S
C198 C197 1.384 . S
C198 C199 1.377 . S
C198 C201 1.481 . S
C199 C198 1.377 . S
C199 C200 1.389 . S
C199 H221 0.929 . S
C200 C196 1.397 . S
C200 C199 1.389 . S
C200 H222 0.931 . S
C201 C198 1.481 . S
C201 C202 1.387 . S
C201 C206 1.390 . S
C202 C201 1.387 . S
C202 C203 1.401 . S
C202 H223 0.930 . S
C203 C202 1.401 . S
C203 C204 1.376 . S
C203 C212 1.511 . S
C204 C203 1.376 . S
C204 C205 1.392 . S
C204 H225 0.931 . S
C205 C204 1.392 . S
C205 C206 1.361 . S
C205 C207 1.500 . S
C206 C201 1.390 . S
C206 C205 1.361 . S
C206 H224 0.931 . S
C207 C205 1.500 . S
C207 C208 1.371 . S
C207 C209 1.365 . S
C208 C207 1.371 . S
C208 C218 1.386 . S
C208 H226 0.931 . S
C209 C207 1.365 . S
C209 C210 1.409 . S
C209 H227 0.929 . S
C210 C209 1.409 . S
C210 C211 1.380 . S
C210 H228 0.930 . S
C211 C210 1.380 . S
C211 C218 1.357 . S
C212 C203 1.511 . S
C212 C213 1.341 . S
C212 C214 1.371 . S
C213 C212 1.341 . S
C213 C217 1.394 . S
C213 H229 0.930 . S
C214 C212 1.371 . S
C214 C215 1.392 . S
C214 H230 0.931 . S
C215 C214 1.392 . S
C215 C216 1.331 . S
C215 H233 0.932 . S
C216 C215 1.331 . S
C216 C217 1.336 . S
C217 C213 1.394 . S
C217 C216 1.336 . S
C217 H232 0.929 . S
C218 C208 1.386 . S
C218 C211 1.357 . S
C218 H231 0.928 . S
H219 C195 0.931 . S
H220 C197 0.930 . S
H221 C199 0.929 . S
H222 C200 0.931 . S
H223 C202 0.930 . S
H224 C206 0.931 . S
H225 C204 0.931 . S
H226 C208 0.931 . S
H227 C209 0.929 . S
H228 C210 0.930 . S
H229 C213 0.930 . S
H230 C214 0.931 . S
H231 C218 0.928 . S
H232 C217 0.929 . S
H233 C215 0.932 . S
C234 C235 1.386 . S
C234 C236 1.397 . S
C234 H258 0.931 . S
C235 C234 1.386 . S
C235 C239 1.397 1_655 S
C236 C234 1.397 . S
C236 C237 1.384 . S
C236 H259 0.930 . S
C237 C236 1.384 . S
C237 C238 1.377 1_655 S
C237 C240 1.481 . S
C238 C237 1.377 1_455 S
C238 C239 1.389 . S
C238 H260 0.929 . S
C239 C235 1.397 1_455 S
C239 C238 1.389 . S
C239 H261 0.931 . S
C240 C237 1.481 . S
C240 C241 1.387 . S
C240 C245 1.390 . S
C241 C240 1.387 . S
C241 C242 1.401 . S
C241 H262 0.930 . S
C242 C241 1.401 . S
C242 C243 1.376 . S
C242 C251 1.511 . S
C243 C242 1.376 . S
C243 C244 1.392 . S
C243 H264 0.931 . S
C244 C243 1.392 . S
C244 C245 1.361 . S
C244 C246 1.500 . S
C245 C240 1.390 . S
C245 C244 1.361 . S
C245 H263 0.931 . S
C246 C244 1.500 . S
C246 C247 1.371 . S
C246 C248 1.365 . S
C247 C246 1.371 . S
C247 C257 1.386 . S
C247 H265 0.931 . S
C248 C246 1.365 . S
C248 C249 1.409 . S
C248 H266 0.929 . S
C249 C248 1.409 . S
C249 C250 1.380 . S
C249 H267 0.930 . S
C250 C249 1.380 . S
C250 C257 1.357 . S
C251 C242 1.511 . S
C251 C252 1.341 . S
C251 C253 1.371 . S
C252 C251 1.341 . S
C252 C256 1.394 . S
C252 H268 0.930 . S
C253 C251 1.371 . S
C253 C254 1.392 . S
C253 H269 0.931 . S
C254 C253 1.392 . S
C254 C255 1.331 . S
C254 H272 0.932 . S
C255 C254 1.331 . S
C255 C256 1.336 . S
C256 C252 1.394 . S
C256 C255 1.336 . S
C256 H271 0.929 . S
C257 C247 1.386 . S
C257 C250 1.357 . S
C257 H270 0.928 . S
H258 C234 0.931 . S
H259 C236 0.930 . S
H260 C238 0.929 . S
H261 C239 0.931 . S
H262 C241 0.930 . S
H263 C245 0.931 . S
H264 C243 0.931 . S
H265 C247 0.931 . S
H266 C248 0.929 . S
H267 C249 0.930 . S
H268 C252 0.930 . S
H269 C253 0.931 . S
H270 C257 0.928 . S
H271 C256 0.929 . S
H272 C254 0.932 . S
C273 C274 1.386 . S
C273 C275 1.397 . S
C273 H297 0.931 . S
C274 C273 1.386 . S
C274 C278 1.397 . S
C275 C273 1.397 . S
C275 C276 1.384 . S
C275 H298 0.930 . S
C276 C275 1.384 . S
C276 C277 1.377 . S
C276 C279 1.481 . S
C277 C276 1.377 . S
C277 C278 1.389 . S
C277 H299 0.929 . S
C278 C274 1.397 . S
C278 C277 1.389 . S
C278 H300 0.931 . S
C279 C276 1.481 . S
C279 C280 1.387 . S
C279 C284 1.390 . S
C280 C279 1.387 . S
C280 C281 1.401 . S
C280 H301 0.930 . S
C281 C280 1.401 . S
C281 C282 1.376 . S
C281 C290 1.511 . S
C282 C281 1.376 . S
C282 C283 1.392 . S
C282 H303 0.931 . S
C283 C282 1.392 . S
C283 C284 1.361 . S
C283 C285 1.500 . S
C284 C279 1.390 . S
C284 C283 1.361 . S
C284 H302 0.931 . S
C285 C283 1.500 . S
C285 C286 1.371 . S
C285 C287 1.365 . S
C286 C285 1.371 . S
C286 C296 1.386 . S
C286 H304 0.931 . S
C287 C285 1.365 . S
C287 C288 1.409 . S
C287 H305 0.929 . S
C288 C287 1.409 . S
C288 C289 1.380 . S
C288 H306 0.930 . S
C289 C288 1.380 . S
C289 C296 1.357 . S
C290 C281 1.511 . S
C290 C291 1.341 . S
C290 C292 1.371 . S
C291 C290 1.341 . S
C291 C295 1.394 . S
C291 H307 0.930 . S
C292 C290 1.371 . S
C292 C293 1.392 . S
C292 H308 0.931 . S
C293 C292 1.392 . S
C293 C294 1.331 . S
C293 H311 0.932 . S
C294 C293 1.331 . S
C294 C295 1.336 . S
C295 C291 1.394 . S
C295 C294 1.336 . S
C295 H310 0.929 . S
C296 C286 1.386 . S
C296 C289 1.357 . S
C296 H309 0.928 . S
H297 C273 0.931 . S
H298 C275 0.930 . S
H299 C277 0.929 . S
H300 C278 0.931 . S
H301 C280 0.930 . S
H302 C284 0.931 . S
H303 C282 0.931 . S
H304 C286 0.931 . S
H305 C287 0.929 . S
H306 C288 0.930 . S
H307 C291 0.930 . S
H308 C292 0.931 . S
H309 C296 0.928 . S
H310 C295 0.929 . S
H311 C293 0.932 . S
C312 C313 1.386 . S
C312 C314 1.397 . S
C312 H336 0.931 . S
C313 C312 1.386 . S
C313 C317 1.397 . S
C314 C312 1.397 . S
C314 C315 1.384 . S
C314 H337 0.930 . S
C315 C314 1.384 . S
C315 C316 1.377 . S
C315 C318 1.481 . S
C316 C315 1.377 . S
C316 C317 1.389 . S
C316 H338 0.929 . S
C317 C313 1.397 . S
C317 C316 1.389 . S
C317 H339 0.931 . S
C318 C315 1.481 . S
C318 C319 1.387 . S
C318 C323 1.390 . S
C319 C318 1.387 . S
C319 C320 1.401 . S
C319 H340 0.930 . S
C320 C319 1.401 . S
C320 C321 1.376 . S
C320 C329 1.511 . S
C321 C320 1.376 . S
C321 C322 1.392 . S
C321 H342 0.931 . S
C322 C321 1.392 . S
C322 C323 1.361 . S
C322 C324 1.500 . S
C323 C318 1.390 . S
C323 C322 1.361 . S
C323 H341 0.931 . S
C324 C322 1.500 . S
C324 C325 1.371 . S
C324 C326 1.365 . S
C325 C324 1.371 . S
C325 C335 1.386 . S
C325 H343 0.931 . S
C326 C324 1.365 . S
C326 C327 1.409 . S
C326 H344 0.929 . S
C327 C326 1.409 . S
C327 C328 1.380 . S
C327 H345 0.930 . S
C328 C327 1.380 . S
C328 C335 1.357 . S
C329 C320 1.511 . S
C329 C330 1.341 . S
C329 C331 1.371 . S
C330 C329 1.341 . S
C330 C334 1.394 . S
C330 H346 0.930 . S
C331 C329 1.371 . S
C331 C332 1.392 . S
C331 H347 0.931 . S
C332 C331 1.392 . S
C332 C333 1.331 . S
C332 H350 0.932 . S
C333 C332 1.331 . S
C333 C334 1.336 . S
C334 C330 1.394 . S
C334 C333 1.336 . S
C334 H349 0.929 . S
C335 C325 1.386 . S
C335 C328 1.357 . S
C335 H348 0.928 . S
H336 C312 0.931 . S
H337 C314 0.930 . S
H338 C316 0.929 . S
H339 C317 0.931 . S
H340 C319 0.930 . S
H341 C323 0.931 . S
H342 C321 0.931 . S
H343 C325 0.931 . S
H344 C326 0.929 . S
H345 C327 0.930 . S
H346 C330 0.930 . S
H347 C331 0.931 . S
H348 C335 0.928 . S
H349 C334 0.929 . S
H350 C332 0.932 . S
C351 C352 1.386 . S
C351 C353 1.397 . S
C351 H375 0.931 . S
C352 C351 1.386 . S
C352 C356 1.397 . S
C353 C351 1.397 . S
C353 C354 1.384 . S
C353 H376 0.930 . S
C354 C353 1.384 . S
C354 C355 1.377 . S
C354 C357 1.481 . S
C355 C354 1.377 . S
C355 C356 1.389 . S
C355 H377 0.929 . S
C356 C352 1.397 . S
C356 C355 1.389 . S
C356 H378 0.931 . S
C357 C354 1.481 . S
C357 C358 1.387 . S
C357 C362 1.390 . S
C358 C357 1.387 . S
C358 C359 1.401 . S
C358 H379 0.930 . S
C359 C358 1.401 . S
C359 C360 1.376 . S
C359 C368 1.511 . S
C360 C359 1.376 . S
C360 C361 1.392 . S
C360 H381 0.931 . S
C361 C360 1.392 . S
C361 C362 1.361 . S
C361 C363 1.500 . S
C362 C357 1.390 . S
C362 C361 1.361 . S
C362 H380 0.931 . S
C363 C361 1.500 . S
C363 C364 1.371 . S
C363 C365 1.365 . S
C364 C363 1.371 . S
C364 C374 1.386 . S
C364 H382 0.931 . S
C365 C363 1.365 . S
C365 C366 1.409 . S
C365 H383 0.929 . S
C366 C365 1.409 . S
C366 C367 1.380 . S
C366 H384 0.930 . S
C367 C366 1.380 . S
C367 C374 1.357 . S
C368 C359 1.511 . S
C368 C369 1.341 . S
C368 C370 1.371 . S
C369 C368 1.341 . S
C369 C373 1.394 . S
C369 H385 0.930 . S
C370 C368 1.371 . S
C370 C371 1.392 . S
C370 H386 0.931 . S
C371 C370 1.392 . S
C371 C372 1.331 . S
C371 H389 0.932 . S
C372 C371 1.331 . S
C372 C373 1.336 . S
C373 C369 1.394 . S
C373 C372 1.336 . S
C373 H388 0.929 . S
C374 C364 1.386 . S
C374 C367 1.357 . S
C374 H387 0.928 . S
H375 C351 0.931 . S
H376 C353 0.930 . S
H377 C355 0.929 . S
H378 C356 0.931 . S
H379 C358 0.930 . S
H380 C362 0.931 . S
H381 C360 0.931 . S
H382 C364 0.931 . S
H383 C365 0.929 . S
H384 C366 0.930 . S
H385 C369 0.930 . S
H386 C370 0.931 . S
H387 C374 0.928 . S
H388 C373 0.929 . S
H389 C371 0.932 . S
C390 C391 1.386 . S
C390 C392 1.397 . S
C390 H414 0.931 . S
C391 C390 1.386 . S
C391 C395 1.397 . S
C392 C390 1.397 . S
C392 C393 1.384 . S
C392 H415 0.930 . S
C393 C392 1.384 . S
C393 C394 1.377 . S
C393 C396 1.481 . S
C394 C393 1.377 . S
C394 C395 1.389 . S
C394 H416 0.929 . S
C395 C391 1.397 . S
C395 C394 1.389 . S
C395 H417 0.931 . S
C396 C393 1.481 . S
C396 C397 1.387 . S
C396 C401 1.390 . S
C397 C396 1.387 . S
C397 C398 1.401 . S
C397 H418 0.930 . S
C398 C397 1.401 . S
C398 C399 1.376 . S
C398 C407 1.511 . S
C399 C398 1.376 . S
C399 C400 1.392 . S
C399 H420 0.931 . S
C400 C399 1.392 . S
C400 C401 1.361 . S
C400 C402 1.500 . S
C401 C396 1.390 . S
C401 C400 1.361 . S
C401 H419 0.931 . S
C402 C400 1.500 . S
C402 C403 1.371 . S
C402 C404 1.365 . S
C403 C402 1.371 . S
C403 C413 1.386 . S
C403 H421 0.931 . S
C404 C402 1.365 . S
C404 C405 1.409 . S
C404 H422 0.929 . S
C405 C404 1.409 . S
C405 C406 1.380 . S
C405 H423 0.930 . S
C406 C405 1.380 . S
C406 C413 1.357 . S
C407 C398 1.511 . S
C407 C408 1.341 . S
C407 C409 1.371 . S
C408 C407 1.341 . S
C408 C412 1.394 . S
C408 H424 0.930 . S
C409 C407 1.371 . S
C409 C410 1.392 . S
C409 H425 0.931 . S
C410 C409 1.392 . S
C410 C411 1.331 . S
C410 H428 0.932 . S
C411 C410 1.331 . S
C411 C412 1.336 . S
C412 C408 1.394 . S
C412 C411 1.336 . S
C412 H427 0.929 . S
C413 C403 1.386 . S
C413 C406 1.357 . S
C413 H426 0.928 1_556 S
H414 C390 0.931 . S
H415 C392 0.930 . S
H416 C394 0.929 . S
H417 C395 0.931 . S
H418 C397 0.930 . S
H419 C401 0.931 . S
H420 C399 0.931 . S
H421 C403 0.931 . S
H422 C404 0.929 . S
H423 C405 0.930 . S
H424 C408 0.930 . S
H425 C409 0.931 . S
H426 C413 0.928 1_554 S
H427 C412 0.929 . S
H428 C410 0.932 . S
C429 C430 1.386 . S
C429 C431 1.397 . S
C429 H453 0.931 . S
C430 C429 1.386 . S
C430 C434 1.397 . S
C431 C429 1.397 . S
C431 C432 1.384 . S
C431 H454 0.930 . S
C432 C431 1.384 . S
C432 C433 1.377 . S
C432 C435 1.481 . S
C433 C432 1.377 . S
C433 C434 1.389 . S
C433 H455 0.929 . S
C434 C430 1.397 . S
C434 C433 1.389 . S
C434 H456 0.931 . S
C435 C432 1.481 . S
C435 C436 1.387 . S
C435 C440 1.390 . S
C436 C435 1.387 . S
C436 C437 1.401 . S
C436 H457 0.930 . S
C437 C436 1.401 . S
C437 C438 1.376 . S
C437 C446 1.511 . S
C438 C437 1.376 . S
C438 C439 1.392 . S
C438 H459 0.931 . S
C439 C438 1.392 . S
C439 C440 1.361 . S
C439 C441 1.500 . S
C440 C435 1.390 . S
C440 C439 1.361 . S
C440 H458 0.931 . S
C441 C439 1.500 . S
C441 C442 1.371 . S
C441 C443 1.365 . S
C442 C441 1.371 . S
C442 C452 1.386 . S
C442 H460 0.931 . S
C443 C441 1.365 . S
C443 C444 1.409 . S
C443 H461 0.929 . S
C444 C443 1.409 . S
C444 C445 1.380 . S
C444 H462 0.930 . S
C445 C444 1.380 . S
C445 C452 1.357 . S
C446 C437 1.511 . S
C446 C447 1.341 . S
C446 C448 1.371 . S
C447 C446 1.341 . S
C447 C451 1.394 . S
C447 H463 0.930 . S
C448 C446 1.371 . S
C448 C449 1.392 . S
C448 H464 0.931 . S
C449 C448 1.392 . S
C449 C450 1.331 . S
C449 H467 0.932 . S
C450 C449 1.331 . S
C450 C451 1.336 . S
C451 C447 1.394 . S
C451 C450 1.336 . S
C451 H466 0.929 . S
C452 C442 1.386 . S
C452 C445 1.357 . S
C452 H465 0.928 . S
H453 C429 0.931 . S
H454 C431 0.930 . S
H455 C433 0.929 . S
H456 C434 0.931 . S
H457 C436 0.930 . S
H458 C440 0.931 . S
H459 C438 0.931 . S
H460 C442 0.931 . S
H461 C443 0.929 . S
H462 C444 0.930 . S
H463 C447 0.930 . S
H464 C448 0.931 . S
H465 C452 0.928 . S
H466 C451 0.929 . S
H467 C449 0.932 . S
C468 C469 1.386 . S
C468 C470 1.397 . S
C468 H492 0.931 . S
C469 C468 1.386 . S
C469 C473 1.397 . S
C470 C468 1.397 . S
C470 C471 1.384 . S
C470 H493 0.930 . S
C471 C470 1.384 . S
C471 C472 1.377 . S
C471 C474 1.481 . S
C472 C471 1.377 . S
C472 C473 1.389 . S
C472 H494 0.929 . S
C473 C469 1.397 . S
C473 C472 1.389 . S
C473 H495 0.931 . S
C474 C471 1.481 . S
C474 C475 1.387 . S
C474 C479 1.390 . S
C475 C474 1.387 . S
C475 C476 1.401 . S
C475 H496 0.930 . S
C476 C475 1.401 . S
C476 C477 1.376 . S
C476 C485 1.511 . S
C477 C476 1.376 . S
C477 C478 1.392 . S
C477 H498 0.931 . S
C478 C477 1.392 . S
C478 C479 1.361 . S
C478 C480 1.500 . S
C479 C474 1.390 . S
C479 C478 1.361 . S
C479 H497 0.931 . S
C480 C478 1.500 . S
C480 C481 1.371 . S
C480 C482 1.365 . S
C481 C480 1.371 . S
C481 C491 1.386 . S
C481 H499 0.931 . S
C482 C480 1.365 . S
C482 C483 1.409 . S
C482 H500 0.929 . S
C483 C482 1.409 . S
C483 C484 1.380 . S
C483 H501 0.930 . S
C484 C483 1.380 . S
C484 C491 1.357 . S
C485 C476 1.511 . S
C485 C486 1.341 . S
C485 C487 1.371 . S
C486 C485 1.341 . S
C486 C490 1.394 . S
C486 H502 0.930 . S
C487 C485 1.371 . S
C487 C488 1.392 . S
C487 H503 0.931 . S
C488 C487 1.392 . S
C488 C489 1.331 . S
C488 H506 0.932 . S
C489 C488 1.331 . S
C489 C490 1.336 . S
C490 C486 1.394 . S
C490 C489 1.336 . S
C490 H505 0.929 . S
C491 C481 1.386 . S
C491 C484 1.357 . S
C491 H504 0.928 . S
H492 C468 0.931 . S
H493 C470 0.930 . S
H494 C472 0.929 . S
H495 C473 0.931 . S
H496 C475 0.930 . S
H497 C479 0.931 . S
H498 C477 0.931 . S
H499 C481 0.931 . S
H500 C482 0.929 . S
H501 C483 0.930 . S
H502 C486 0.930 . S
H503 C487 0.931 . S
H504 C491 0.928 . S
H505 C490 0.929 . S
H506 C488 0.932 . S
C507 C508 1.386 . S
C507 C509 1.397 . S
C507 H531 0.931 . S
C508 C507 1.386 . S
C508 C512 1.397 . S
C509 C507 1.397 . S
C509 C510 1.384 . S
C509 H532 0.930 . S
C510 C509 1.384 . S
C510 C511 1.377 . S
C510 C513 1.481 . S
C511 C510 1.377 . S
C511 C512 1.389 . S
C511 H533 0.929 . S
C512 C508 1.397 . S
C512 C511 1.389 . S
C512 H534 0.931 . S
C513 C510 1.481 . S
C513 C514 1.387 . S
C513 C518 1.390 . S
C514 C513 1.387 . S
C514 C515 1.401 . S
C514 H535 0.930 . S
C515 C514 1.401 . S
C515 C516 1.376 . S
C515 C524 1.511 . S
C516 C515 1.376 . S
C516 C517 1.392 . S
C516 H537 0.931 . S
C517 C516 1.392 . S
C517 C518 1.361 . S
C517 C519 1.500 . S
C518 C513 1.390 . S
C518 C517 1.361 . S
C518 H536 0.931 . S
C519 C517 1.500 . S
C519 C520 1.371 . S
C519 C521 1.365 . S
C520 C519 1.371 . S
C520 C530 1.386 . S
C520 H538 0.931 . S
C521 C519 1.365 . S
C521 C522 1.409 . S
C521 H539 0.929 . S
C522 C521 1.409 . S
C522 C523 1.380 . S
C522 H540 0.930 . S
C523 C522 1.380 . S
C523 C530 1.357 . S
C524 C515 1.511 . S
C524 C525 1.341 . S
C524 C526 1.371 . S
C525 C524 1.341 . S
C525 C529 1.394 . S
C525 H541 0.930 . S
C526 C524 1.371 . S
C526 C527 1.392 . S
C526 H542 0.931 . S
C527 C526 1.392 . S
C527 C528 1.331 . S
C527 H545 0.932 . S
C528 C527 1.331 . S
C528 C529 1.336 . S
C529 C525 1.394 . S
C529 C528 1.336 . S
C529 H544 0.929 . S
C530 C520 1.386 . S
C530 C523 1.357 . S
C530 H543 0.928 . S
H531 C507 0.931 . S
H532 C509 0.930 . S
H533 C511 0.929 . S
H534 C512 0.931 . S
H535 C514 0.930 . S
H536 C518 0.931 . S
H537 C516 0.931 . S
H538 C520 0.931 . S
H539 C521 0.929 . S
H540 C522 0.930 . S
H541 C525 0.930 . S
H542 C526 0.931 . S
H543 C530 0.928 . S
H544 C529 0.929 . S
H545 C527 0.932 . S
C546 C547 1.386 . S
C546 C548 1.397 . S
C546 H570 0.931 . S
C547 C546 1.386 . S
C547 C551 1.397 . S
C548 C546 1.397 . S
C548 C549 1.384 . S
C548 H571 0.930 . S
C549 C548 1.384 . S
C549 C550 1.377 . S
C549 C552 1.481 . S
C550 C549 1.377 . S
C550 C551 1.389 . S
C550 H572 0.929 . S
C551 C547 1.397 . S
C551 C550 1.389 . S
C551 H573 0.931 . S
C552 C549 1.481 . S
C552 C553 1.387 . S
C552 C557 1.390 . S
C553 C552 1.387 . S
C553 C554 1.401 . S
C553 H574 0.930 . S
C554 C553 1.401 . S
C554 C555 1.376 . S
C554 C563 1.511 . S
C555 C554 1.376 . S
C555 C556 1.392 . S
C555 H576 0.931 . S
C556 C555 1.392 . S
C556 C557 1.361 . S
C556 C558 1.500 . S
C557 C552 1.390 . S
C557 C556 1.361 . S
C557 H575 0.931 . S
C558 C556 1.500 . S
C558 C559 1.371 . S
C558 C560 1.365 . S
C559 C558 1.371 . S
C559 C569 1.386 . S
C559 H577 0.931 . S
C560 C558 1.365 . S
C560 C561 1.409 . S
C560 H578 0.929 . S
C561 C560 1.409 . S
C561 C562 1.380 . S
C561 H579 0.930 . S
C562 C561 1.380 . S
C562 C569 1.357 . S
C563 C554 1.511 . S
C563 C564 1.341 . S
C563 C565 1.371 . S
C564 C563 1.341 . S
C564 C568 1.394 . S
C564 H580 0.930 . S
C565 C563 1.371 . S
C565 C566 1.392 . S
C565 H581 0.931 . S
C566 C565 1.392 . S
C566 C567 1.331 . S
C566 H584 0.932 . S
C567 C566 1.331 . S
C567 C568 1.336 . S
C568 C564 1.394 . S
C568 C567 1.336 . S
C568 H583 0.929 . S
C569 C559 1.386 . S
C569 C562 1.357 . S
C569 H582 0.928 . S
H570 C546 0.931 . S
H571 C548 0.930 . S
H572 C550 0.929 . S
H573 C551 0.931 . S
H574 C553 0.930 . S
H575 C557 0.931 . S
H576 C555 0.931 . S
H577 C559 0.931 . S
H578 C560 0.929 . S
H579 C561 0.930 . S
H580 C564 0.930 . S
H581 C565 0.931 . S
H582 C569 0.928 . S
H583 C568 0.929 . S
H584 C566 0.932 . S
C585 C586 1.386 . S
C585 C587 1.397 . S
C585 H609 0.931 . S
C586 C585 1.386 . S
C586 C590 1.397 . S
C587 C585 1.397 . S
C587 C588 1.384 . S
C587 H610 0.930 . S
C588 C587 1.384 . S
C588 C589 1.377 . S
C588 C591 1.481 . S
C589 C588 1.377 . S
C589 C590 1.389 . S
C589 H611 0.929 . S
C590 C586 1.397 . S
C590 C589 1.389 . S
C590 H612 0.931 . S
C591 C588 1.481 . S
C591 C592 1.387 . S
C591 C596 1.390 . S
C592 C591 1.387 . S
C592 C593 1.401 . S
C592 H613 0.930 . S
C593 C592 1.401 . S
C593 C594 1.376 . S
C593 C602 1.511 . S
C594 C593 1.376 . S
C594 C595 1.392 . S
C594 H615 0.931 . S
C595 C594 1.392 . S
C595 C596 1.361 . S
C595 C597 1.500 . S
C596 C591 1.390 . S
C596 C595 1.361 . S
C596 H614 0.931 . S
C597 C595 1.500 . S
C597 C598 1.371 . S
C597 C599 1.365 . S
C598 C597 1.371 . S
C598 C608 1.386 . S
C598 H616 0.931 . S
C599 C597 1.365 . S
C599 C600 1.409 . S
C599 H617 0.929 . S
C600 C599 1.409 . S
C600 C601 1.380 . S
C600 H618 0.930 . S
C601 C600 1.380 . S
C601 C608 1.357 . S
C602 C593 1.511 . S
C602 C603 1.341 . S
C602 C604 1.371 . S
C603 C602 1.341 . S
C603 C607 1.394 . S
C603 H619 0.930 . S
C604 C602 1.371 . S
C604 C605 1.392 . S
C604 H620 0.931 . S
C605 C604 1.392 . S
C605 C606 1.331 . S
C605 H623 0.932 . S
C606 C605 1.331 . S
C606 C607 1.336 . S
C607 C603 1.394 . S
C607 C606 1.336 . S
C607 H622 0.929 . S
C608 C598 1.386 . S
C608 C601 1.357 . S
C608 H621 0.928 . S
H609 C585 0.931 . S
H610 C587 0.930 . S
H611 C589 0.929 . S
H612 C590 0.931 . S
H613 C592 0.930 . S
H614 C596 0.931 . S
H615 C594 0.931 . S
H616 C598 0.931 . S
H617 C599 0.929 . S
H618 C600 0.930 . S
H619 C603 0.930 . S
H620 C604 0.931 . S
H621 C608 0.928 . S
H622 C607 0.929 . S
H623 C605 0.932 . S
C624 C625 1.386 1_655 S
C624 C626 1.397 . S
C624 H648 0.931 . S
C625 C624 1.386 1_455 S
C625 C629 1.397 . S
C626 C624 1.397 . S
C626 C627 1.384 1_655 S
C626 H649 0.930 . S
C627 C626 1.384 1_455 S
C627 C628 1.377 . S
C627 C630 1.481 . S
C628 C627 1.377 . S
C628 C629 1.389 . S
C628 H650 0.929 . S
C629 C625 1.397 . S
C629 C628 1.389 . S
C629 H651 0.931 . S
C630 C627 1.481 . S
C630 C631 1.387 . S
C630 C635 1.390 . S
C631 C630 1.387 . S
C631 C632 1.401 . S
C631 H652 0.930 . S
C632 C631 1.401 . S
C632 C633 1.376 . S
C632 C641 1.511 . S
C633 C632 1.376 . S
C633 C634 1.392 . S
C633 H654 0.931 . S
C634 C633 1.392 . S
C634 C635 1.361 . S
C634 C636 1.500 . S
C635 C630 1.390 . S
C635 C634 1.361 . S
C635 H653 0.931 . S
C636 C634 1.500 . S
C636 C637 1.371 . S
C636 C638 1.365 . S
C637 C636 1.371 . S
C637 C647 1.386 . S
C637 H655 0.931 . S
C638 C636 1.365 . S
C638 C639 1.409 . S
C638 H656 0.929 . S
C639 C638 1.409 . S
C639 C640 1.380 . S
C639 H657 0.930 . S
C640 C639 1.380 . S
C640 C647 1.357 . S
C641 C632 1.511 . S
C641 C642 1.341 . S
C641 C643 1.371 . S
C642 C641 1.341 . S
C642 C646 1.394 . S
C642 H658 0.930 . S
C643 C641 1.371 . S
C643 C644 1.392 . S
C643 H659 0.931 . S
C644 C643 1.392 . S
C644 C645 1.331 . S
C644 H662 0.932 . S
C645 C644 1.331 . S
C645 C646 1.336 . S
C646 C642 1.394 . S
C646 C645 1.336 . S
C646 H661 0.929 . S
C647 C637 1.386 . S
C647 C640 1.357 . S
C647 H660 0.928 . S
H648 C624 0.931 . S
H649 C626 0.930 . S
H650 C628 0.929 . S
H651 C629 0.931 . S
H652 C631 0.930 . S
H653 C635 0.931 . S
H654 C633 0.931 . S
H655 C637 0.931 . S
H656 C638 0.929 . S
H657 C639 0.930 . S
H658 C642 0.930 . S
H659 C643 0.931 . S
H660 C647 0.928 . S
H661 C646 0.929 . S
H662 C644 0.932 . S
C663 C664 1.386 . S
C663 C665 1.397 . S
C663 H687 0.931 . S
C664 C663 1.386 . S
C664 C668 1.397 . S
C665 C663 1.397 . S
C665 C666 1.384 . S
C665 H688 0.930 . S
C666 C665 1.384 . S
C666 C667 1.377 . S
C666 C669 1.481 . S
C667 C666 1.377 . S
C667 C668 1.389 . S
C667 H689 0.929 . S
C668 C664 1.397 . S
C668 C667 1.389 . S
C668 H690 0.931 . S
C669 C666 1.481 . S
C669 C670 1.387 . S
C669 C674 1.390 . S
C670 C669 1.387 . S
C670 C671 1.401 . S
C670 H691 0.930 . S
C671 C670 1.401 . S
C671 C672 1.376 . S
C671 C680 1.511 . S
C672 C671 1.376 . S
C672 C673 1.392 . S
C672 H693 0.931 . S
C673 C672 1.392 . S
C673 C674 1.361 . S
C673 C675 1.500 . S
C674 C669 1.390 . S
C674 C673 1.361 . S
C674 H692 0.931 . S
C675 C673 1.500 . S
C675 C676 1.371 . S
C675 C677 1.365 . S
C676 C675 1.371 . S
C676 C686 1.386 . S
C676 H694 0.931 . S
C677 C675 1.365 . S
C677 C678 1.409 . S
C677 H695 0.929 . S
C678 C677 1.409 . S
C678 C679 1.380 . S
C678 H696 0.930 . S
C679 C678 1.380 . S
C679 C686 1.357 . S
C680 C671 1.511 . S
C680 C681 1.341 . S
C680 C682 1.371 . S
C681 C680 1.341 . S
C681 C685 1.394 . S
C681 H697 0.930 . S
C682 C680 1.371 . S
C682 C683 1.392 . S
C682 H698 0.931 . S
C683 C682 1.392 . S
C683 C684 1.331 . S
C683 H701 0.932 . S
C684 C683 1.331 . S
C684 C685 1.336 . S
C685 C681 1.394 . S
C685 C684 1.336 . S
C685 H700 0.929 . S
C686 C676 1.386 . S
C686 C679 1.357 . S
C686 H699 0.928 . S
H687 C663 0.931 . S
H688 C665 0.930 . S
H689 C667 0.929 . S
H690 C668 0.931 . S
H691 C670 0.930 . S
H692 C674 0.931 . S
H693 C672 0.931 . S
H694 C676 0.931 . S
H695 C677 0.929 . S
H696 C678 0.930 . S
H697 C681 0.930 . S
H698 C682 0.931 . S
H699 C686 0.928 . S
H700 C685 0.929 . S
H701 C683 0.932 . S
C702 Eu703 2.835 . S
C702 C704 1.500 . S
C702 O722 1.257 1_545 S
C702 O723 1.260 . S
Eu703 C702 2.835 . S
Eu703 O722 2.473 1_545 S
Eu703 O723 2.480 . S
Eu703 O724 2.430 . S
Eu703 O725 2.670 1_554 S
Eu703 O726 2.394 1_545 S
Eu703 O731 2.355 1_545 S
Eu703 O733 2.374 . S
C704 C702 1.500 . S
C704 C705 1.377 . S
C704 C709 1.377 1_545 S
C705 C704 1.377 . S
C705 C706 1.395 . S
C705 H734 0.931 . S
C706 C705 1.395 . S
C706 C707 1.383 1_545 S
C706 H735 0.931 . S
C707 C706 1.383 1_565 S
C707 C708 1.394 . S
C708 C707 1.394 . S
C708 C709 1.378 . S
C708 H736 0.931 . S
C709 C704 1.377 1_565 S
C709 C708 1.378 . S
C709 H737 0.931 . S
C710 O724 1.212 1_556 S
C710 O725 1.288 . S
C711 O726 1.251 . S
C711 O727 1.251 1_554 S
C712 Eu713 2.835 . S
C712 C714 1.500 . S
C712 O728 1.257 1_565 S
C712 O729 1.260 . S
Eu713 C712 2.835 . S
Eu713 O725 2.355 1_565 S
Eu713 O727 2.374 . S
Eu713 O728 2.473 1_565 S
Eu713 O729 2.480 . S
Eu713 O730 2.430 . S
Eu713 O731 2.670 1_556 S
Eu713 O732 2.394 1_565 S
C714 C712 1.500 . S
C714 C715 1.377 . S
C714 C719 1.377 1_565 S
C715 C714 1.377 . S
C715 C716 1.395 . S
C715 H738 0.931 . S
C716 C715 1.395 . S
C716 C717 1.383 1_565 S
C716 H739 0.931 . S
C717 C716 1.383 1_545 S
C717 C718 1.394 . S
C718 C717 1.394 . S
C718 C719 1.378 . S
C718 H740 0.931 . S
C719 C714 1.377 1_545 S
C719 C718 1.378 . S
C719 H741 0.931 . S
C720 O730 1.259 1_554 S
C720 O731 1.270 . S
C721 O732 1.251 . S
C721 O733 1.251 1_556 S
O722 C702 1.257 1_565 S
O722 Eu703 2.473 1_565 S
O723 C702 1.260 . S
O723 Eu703 2.480 . S
O724 Eu703 2.430 . S
O724 C710 1.212 1_554 S
O725 Eu703 2.670 1_556 S
O725 C710 1.288 . S
O725 Eu713 2.355 1_545 S
O726 Eu703 2.394 1_565 S
O726 C711 1.251 . S
O727 C711 1.251 1_556 S
O727 Eu713 2.374 . S
O728 C712 1.257 1_545 S
O728 Eu713 2.473 1_545 S
O729 C712 1.260 . S
O729 Eu713 2.480 . S
O730 Eu713 2.430 . S
O730 C720 1.259 1_556 S
O731 Eu703 2.355 1_565 S
O731 Eu713 2.670 1_554 S
O731 C720 1.270 . S
O732 Eu713 2.394 1_545 S
O732 C721 1.251 . S
O733 Eu703 2.374 . S
O733 C721 1.251 1_554 S
H734 C705 0.931 . S
H735 C706 0.931 . S
H736 C708 0.931 . S
H737 C709 0.931 . S
H738 C715 0.931 . S
H739 C716 0.931 . S
H740 C718 0.931 . S
H741 C719 0.931 . S
C742 Eu743 2.835 . S
C742 C744 1.500 1_655 S
C742 O762 1.257 1_655 S
C742 O763 1.260 . S
Eu743 C742 2.835 . S
Eu743 O762 2.473 1_655 S
Eu743 O763 2.480 . S
Eu743 O764 2.430 . S
Eu743 O765 2.670 1_554 S
Eu743 O766 2.394 1_655 S
Eu743 O771 2.355 1_655 S
Eu743 O773 2.374 . S
C744 C742 1.500 1_455 S
C744 C745 1.377 1_455 S
C744 C749 1.377 . S
C745 C744 1.377 1_655 S
C745 C746 1.395 . S
C745 H774 0.931 . S
C746 C745 1.395 . S
C746 C747 1.383 1_655 S
C746 H775 0.931 . S
C747 C746 1.383 1_455 S
C747 C748 1.394 . S
C748 C747 1.394 . S
C748 C749 1.378 . S
C748 H776 0.931 . S
C749 C744 1.377 . S
C749 C748 1.378 . S
C749 H777 0.931 . S
C750 O764 1.259 1_556 S
C750 O765 1.270 . S
C751 O766 1.251 . S
C751 O767 1.251 . S
C752 Eu753 2.835 . S
C752 C754 1.500 1_455 S
C752 O768 1.257 1_455 S
C752 O769 1.260 . S
Eu753 C752 2.835 . S
Eu753 O765 2.355 1_455 S
Eu753 O767 2.374 1_556 S
Eu753 O768 2.473 1_455 S
Eu753 O769 2.480 . S
Eu753 O770 2.430 . S
Eu753 O771 2.670 1_556 S
Eu753 O772 2.394 1_455 S
C754 C752 1.500 1_655 S
C754 C755 1.377 1_655 S
C754 C759 1.377 . S
C755 C754 1.377 1_455 S
C755 C756 1.395 . S
C755 H778 0.931 . S
C756 C755 1.395 . S
C756 C757 1.383 1_455 S
C756 H779 0.931 . S
C757 C756 1.383 1_655 S
C757 C758 1.394 . S
C758 C757 1.394 . S
C758 C759 1.378 . S
C758 H780 0.931 . S
C759 C754 1.377 . S
C759 C758 1.378 . S
C759 H781 0.931 . S
C760 O770 1.259 1_554 S
C760 O771 1.270 . S
C761 O772 1.251 . S
C761 O773 1.251 1_556 S
O762 C742 1.257 1_455 S
O762 Eu743 2.473 1_455 S
O763 C742 1.260 . S
O763 Eu743 2.480 . S
O764 Eu743 2.430 . S
O764 C750 1.259 1_554 S
O765 Eu743 2.670 1_556 S
O765 C750 1.270 . S
O765 Eu753 2.355 1_655 S
O766 Eu743 2.394 1_455 S
O766 C751 1.251 . S
O767 C751 1.251 . S
O767 Eu753 2.374 1_554 S
O768 C752 1.257 1_655 S
O768 Eu753 2.473 1_655 S
O769 C752 1.260 . S
O769 Eu753 2.480 . S
O770 Eu753 2.430 . S
O770 C760 1.259 1_556 S
O771 Eu743 2.355 1_455 S
O771 Eu753 2.670 1_554 S
O771 C760 1.270 . S
O772 Eu753 2.394 1_655 S
O772 C761 1.251 . S
O773 Eu743 2.374 . S
O773 C761 1.251 1_554 S
H774 C745 0.931 . S
H775 C746 0.931 . S
H776 C748 0.931 . S
H777 C749 0.931 . S
H778 C755 0.931 . S
H779 C756 0.931 . S
H780 C758 0.931 . S
H781 C759 0.931 . S
C782 Eu783 2.835 . S
C782 C784 1.500 . S
C782 O802 1.257 . S
C782 O803 1.260 . S
Eu783 C782 2.835 . S
Eu783 O802 2.473 . S
Eu783 O803 2.480 . S
Eu783 O804 2.430 . S
Eu783 O805 2.670 1_556 S
Eu783 O806 2.394 . S
Eu783 O811 2.355 . S
Eu783 O813 2.379 1_556 S
C784 C782 1.500 . S
C784 C785 1.377 . S
C784 C789 1.377 . S
C785 C784 1.377 . S
C785 C786 1.395 . S
C785 H814 0.931 . S
C786 C785 1.395 . S
C786 C787 1.383 . S
C786 H815 0.931 . S
C787 C786 1.383 . S
C787 C788 1.394 . S
C788 C787 1.394 . S
C788 C789 1.378 . S
C788 H816 0.931 . S
C789 C784 1.377 . S
C789 C788 1.378 . S
C789 H817 0.931 . S
C790 O804 1.259 1_554 S
C790 O805 1.270 . S
C791 O806 1.251 . S
C791 O807 1.251 1_556 S
C792 Eu793 2.835 . S
C792 C794 1.500 . S
C792 O808 1.257 . S
C792 O809 1.260 . S
Eu793 C792 2.835 . S
Eu793 O805 2.355 . S
Eu793 O807 2.374 . S
Eu793 O808 2.473 . S
Eu793 O809 2.480 . S
Eu793 O810 2.430 . S
Eu793 O811 2.670 1_554 S
Eu793 O812 2.394 . S
C794 C792 1.500 . S
C794 C795 1.377 . S
C794 C799 1.377 . S
C795 C794 1.377 . S
C795 C796 1.395 . S
C795 H818 0.931 . S
C796 C795 1.395 . S
C796 C797 1.383 . S
C796 H819 0.931 . S
C797 C796 1.383 . S
C797 C798 1.394 . S
C798 C797 1.394 . S
C798 C799 1.378 . S
C798 H820 0.931 . S
C799 C794 1.377 . S
C799 C798 1.378 . S
C799 H821 0.931 . S
C800 O810 1.259 1_556 S
C800 O811 1.270 . S
C801 O812 1.251 . S
C801 O813 1.244 . S
O802 C782 1.257 . S
O802 Eu783 2.473 . S
O803 C782 1.260 . S
O803 Eu783 2.480 . S
O804 Eu783 2.430 . S
O804 C790 1.259 1_556 S
O805 Eu783 2.670 1_554 S
O805 C790 1.270 . S
O805 Eu793 2.355 . S
O806 Eu783 2.394 . S
O806 C791 1.251 . S
O807 C791 1.251 1_554 S
O807 Eu793 2.374 . S
O808 C792 1.257 . S
O808 Eu793 2.473 . S
O809 C792 1.260 . S
O809 Eu793 2.480 . S
O810 Eu793 2.430 . S
O810 C800 1.259 1_554 S
O811 Eu783 2.355 . S
O811 Eu793 2.670 1_556 S
O811 C800 1.270 . S
O812 Eu793 2.394 . S
O812 C801 1.251 . S
O813 Eu783 2.379 1_554 S
O813 C801 1.244 . S
H814 C785 0.931 . S
H815 C786 0.931 . S
H816 C788 0.931 . S
H817 C789 0.931 . S
H818 C795 0.931 . S
H819 C796 0.931 . S
H820 C798 0.931 . S
H821 C799 0.931 . S
C822 Eu823 2.835 . S
C822 C824 1.500 . S
C822 O842 1.257 . S
C822 O843 1.260 . S
Eu823 C822 2.835 . S
Eu823 O842 2.473 . S
Eu823 O843 2.480 . S
Eu823 O844 2.430 . S
Eu823 O845 2.670 . S
Eu823 O846 2.394 . S
Eu823 O851 2.355 . S
Eu823 O853 2.374 . S
C824 C822 1.500 . S
C824 C825 1.377 . S
C824 C829 1.377 . S
C825 C824 1.377 . S
C825 C826 1.395 . S
C825 H854 0.931 . S
C826 C825 1.395 . S
C826 C827 1.383 . S
C826 H855 0.931 . S
C827 C826 1.383 . S
C827 C828 1.394 . S
C828 C827 1.394 . S
C828 C829 1.378 . S
C828 H856 0.931 . S
C829 C824 1.377 . S
C829 C828 1.378 . S
C829 H857 0.931 . S
C830 O844 1.259 . S
C830 O845 1.270 . S
C831 O846 1.251 . S
C831 O847 1.251 . S
C832 Eu833 2.835 . S
C832 C834 1.500 . S
C832 O848 1.257 . S
C832 O849 1.260 . S
Eu833 C832 2.835 . S
Eu833 O845 2.355 . S
Eu833 O847 2.374 . S
Eu833 O848 2.473 . S
Eu833 O849 2.480 . S
Eu833 O850 2.430 . S
Eu833 O851 2.670 . S
Eu833 O852 2.394 . S
C834 C832 1.500 . S
C834 C835 1.377 . S
C834 C839 1.377 . S
C835 C834 1.377 . S
C835 C836 1.395 . S
C835 H858 0.931 . S
C836 C835 1.395 . S
C836 C837 1.383 . S
C836 H859 0.931 . S
C837 C836 1.383 . S
C837 C838 1.394 . S
C838 C837 1.394 . S
C838 C839 1.378 . S
C838 H860 0.931 . S
C839 C834 1.377 . S
C839 C838 1.378 . S
C839 H861 0.931 . S
C840 O850 1.259 . S
C840 O851 1.270 . S
C841 O852 1.251 . S
C841 O853 1.251 . S
O842 C822 1.257 . S
O842 Eu823 2.473 . S
O843 C822 1.260 . S
O843 Eu823 2.480 . S
O844 Eu823 2.430 . S
O844 C830 1.259 . S
O845 Eu823 2.670 . S
O845 C830 1.270 . S
O845 Eu833 2.355 . S
O846 Eu823 2.394 . S
O846 C831 1.251 . S
O847 C831 1.251 . S
O847 Eu833 2.374 . S
O848 C832 1.257 . S
O848 Eu833 2.473 . S
O849 C832 1.260 . S
O849 Eu833 2.480 . S
O850 Eu833 2.430 . S
O850 C840 1.259 . S
O851 Eu823 2.355 . S
O851 Eu833 2.670 . S
O851 C840 1.270 . S
O852 Eu833 2.394 . S
O852 C841 1.251 . S
O853 Eu823 2.374 . S
O853 C841 1.251 . S
H854 C825 0.931 . S
H855 C826 0.931 . S
H856 C828 0.931 . S
H857 C829 0.931 . S
H858 C835 0.931 . S
H859 C836 0.931 . S
H860 C838 0.931 . S
H861 C839 0.931 . S
C862 Eu863 2.835 . S
C862 C864 1.500 . S
C862 O882 1.257 . S
C862 O883 1.260 . S
Eu863 C862 2.835 . S
Eu863 O882 2.473 . S
Eu863 O883 2.480 . S
Eu863 O884 2.430 . S
Eu863 O885 2.670 . S
Eu863 O886 2.394 . S
Eu863 O891 2.355 . S
Eu863 O893 2.374 . S
C864 C862 1.500 . S
C864 C865 1.377 . S
C864 C869 1.377 . S
C865 C864 1.377 . S
C865 C866 1.395 . S
C865 H894 0.931 . S
C866 C865 1.395 . S
C866 C867 1.383 . S
C866 H895 0.931 . S
C867 C866 1.383 . S
C867 C868 1.394 . S
C868 C867 1.394 . S
C868 C869 1.378 . S
C868 H896 0.931 . S
C869 C864 1.377 . S
C869 C868 1.378 . S
C869 H897 0.931 . S
C870 O884 1.259 . S
C870 O885 1.270 . S
C871 O886 1.251 . S
C871 O887 1.251 . S
C872 Eu873 2.835 . S
C872 C874 1.500 . S
C872 O888 1.257 . S
C872 O889 1.260 . S
Eu873 C872 2.835 . S
Eu873 O885 2.355 . S
Eu873 O887 2.374 . S
Eu873 O888 2.473 . S
Eu873 O889 2.480 . S
Eu873 O890 2.430 . S
Eu873 O891 2.670 . S
Eu873 O892 2.394 . S
C874 C872 1.500 . S
C874 C875 1.377 . S
C874 C879 1.377 . S
C875 C874 1.377 . S
C875 C876 1.395 . S
C875 H898 0.931 . S
C876 C875 1.395 . S
C876 C877 1.383 . S
C876 H899 0.931 . S
C877 C876 1.383 . S
C877 C878 1.394 . S
C878 C877 1.394 . S
C878 C879 1.378 . S
C878 H900 0.931 . S
C879 C874 1.377 . S
C879 C878 1.378 . S
C879 H901 0.931 . S
C880 O890 1.259 . S
C880 O891 1.270 . S
C881 O892 1.251 . S
C881 O893 1.251 . S
O882 C862 1.257 . S
O882 Eu863 2.473 . S
O883 C862 1.260 . S
O883 Eu863 2.480 . S
O884 Eu863 2.430 . S
O884 C870 1.259 . S
O885 Eu863 2.670 . S
O885 C870 1.270 . S
O885 Eu873 2.355 . S
O886 Eu863 2.394 . S
O886 C871 1.251 . S
O887 C871 1.251 . S
O887 Eu873 2.374 . S
O888 C872 1.257 . S
O888 Eu873 2.473 . S
O889 C872 1.260 . S
O889 Eu873 2.480 . S
O890 Eu873 2.430 . S
O890 C880 1.259 . S
O891 Eu863 2.355 . S
O891 Eu873 2.670 . S
O891 C880 1.270 . S
O892 Eu873 2.394 . S
O892 C881 1.251 . S
O893 Eu863 2.374 . S
O893 C881 1.251 . S
H894 C865 0.931 . S
H895 C866 0.931 . S
H896 C868 0.931 . S
H897 C869 0.931 . S
H898 C875 0.931 . S
H899 C876 0.931 . S
H900 C878 0.931 . S
H901 C879 0.931 . S
C902 Eu903 2.835 . S
C902 C904 1.500 . S
C902 O922 1.257 . S
C902 O923 1.260 . S
Eu903 C902 2.835 . S
Eu903 O922 2.473 . S
Eu903 O923 2.480 . S
Eu903 O924 2.430 . S
Eu903 O925 2.670 . S
Eu903 O926 2.394 . S
Eu903 O931 2.355 . S
Eu903 O933 2.374 . S
C904 C902 1.500 . S
C904 C905 1.377 . S
C904 C909 1.377 . S
C905 C904 1.377 . S
C905 C906 1.395 . S
C905 H934 0.931 . S
C906 C905 1.395 . S
C906 C907 1.383 . S
C906 H935 0.931 . S
C907 C906 1.383 . S
C907 C908 1.394 . S
C908 C907 1.394 . S
C908 C909 1.378 . S
C908 H936 0.931 . S
C909 C904 1.377 . S
C909 C908 1.378 . S
C909 H937 0.931 . S
C910 O924 1.259 . S
C910 O925 1.270 . S
C911 O926 1.251 . S
C911 O927 1.251 . S
C912 Eu913 2.835 . S
C912 C914 1.500 . S
C912 O928 1.257 . S
C912 O929 1.260 . S
Eu913 C912 2.835 . S
Eu913 O925 2.355 . S
Eu913 O927 2.374 . S
Eu913 O928 2.473 . S
Eu913 O929 2.480 . S
Eu913 O930 2.430 . S
Eu913 O931 2.670 . S
Eu913 O932 2.394 . S
C914 C912 1.500 . S
C914 C915 1.377 . S
C914 C919 1.377 . S
C915 C914 1.377 . S
C915 C916 1.395 . S
C915 H938 0.931 . S
C916 C915 1.395 . S
C916 C917 1.383 . S
C916 H939 0.931 . S
C917 C916 1.383 . S
C917 C918 1.394 . S
C918 C917 1.394 . S
C918 C919 1.378 . S
C918 H940 0.931 . S
C919 C914 1.377 . S
C919 C918 1.378 . S
C919 H941 0.931 . S
C920 O930 1.259 . S
C920 O931 1.270 . S
C921 O932 1.251 . S
C921 O933 1.251 . S
O922 C902 1.257 . S
O922 Eu903 2.473 . S
O923 C902 1.260 . S
O923 Eu903 2.480 . S
O924 Eu903 2.430 . S
O924 C910 1.259 . S
O925 Eu903 2.670 . S
O925 C910 1.270 . S
O925 Eu913 2.355 . S
O926 Eu903 2.394 . S
O926 C911 1.251 . S
O927 C911 1.251 . S
O927 Eu913 2.374 . S
O928 C912 1.257 . S
O928 Eu913 2.473 . S
O929 C912 1.260 . S
O929 Eu913 2.480 . S
O930 Eu913 2.430 . S
O930 C920 1.259 . S
O931 Eu903 2.355 . S
O931 Eu913 2.670 . S
O931 C920 1.270 . S
O932 Eu913 2.394 . S
O932 C921 1.251 . S
O933 Eu903 2.374 . S
O933 C921 1.251 . S
H934 C905 0.931 . S
H935 C906 0.931 . S
H936 C908 0.931 . S
H937 C909 0.931 . S
H938 C915 0.931 . S
H939 C916 0.931 . S
H940 C918 0.931 . S
H941 C919 0.931 . S
C942 Eu943 2.835 . S
C942 C944 1.500 . S
C942 O962 1.257 . S
C942 O963 1.260 . S
Eu943 C942 2.835 . S
Eu943 O962 2.473 . S
Eu943 O963 2.480 . S
Eu943 O964 2.430 . S
Eu943 O965 2.670 . S
Eu943 O966 2.394 . S
Eu943 O971 2.355 . S
Eu943 O973 2.374 . S
C944 C942 1.500 . S
C944 C945 1.377 . S
C944 C949 1.377 . S
C945 C944 1.377 . S
C945 C946 1.395 . S
C945 H974 0.931 . S
C946 C945 1.395 . S
C946 C947 1.383 . S
C946 H975 0.931 . S
C947 C946 1.383 . S
C947 C948 1.394 . S
C948 C947 1.394 . S
C948 C949 1.378 . S
C948 H976 0.931 . S
C949 C944 1.377 . S
C949 C948 1.378 . S
C949 H977 0.931 . S
C950 O964 1.259 . S
C950 O965 1.270 . S
C951 O966 1.251 . S
C951 O967 1.251 . S
C952 Eu953 2.835 . S
C952 C954 1.500 . S
C952 O968 1.257 . S
C952 O969 1.260 . S
Eu953 C952 2.835 . S
Eu953 O965 2.355 . S
Eu953 O967 2.374 . S
Eu953 O968 2.473 . S
Eu953 O969 2.480 . S
Eu953 O970 2.430 . S
Eu953 O971 2.670 . S
Eu953 O972 2.394 . S
C954 C952 1.500 . S
C954 C955 1.377 . S
C954 C959 1.377 . S
C955 C954 1.377 . S
C955 C956 1.395 . S
C955 H978 0.931 . S
C956 C955 1.395 . S
C956 C957 1.383 . S
C956 H979 0.931 . S
C957 C956 1.383 . S
C957 C958 1.394 . S
C958 C957 1.394 . S
C958 C959 1.378 . S
C958 H980 0.931 . S
C959 C954 1.377 . S
C959 C958 1.378 . S
C959 H981 0.931 . S
C960 O970 1.259 . S
C960 O971 1.270 . S
C961 O972 1.251 . S
C961 O973 1.251 . S
O962 C942 1.257 . S
O962 Eu943 2.473 . S
O963 C942 1.260 . S
O963 Eu943 2.480 . S
O964 Eu943 2.430 . S
O964 C950 1.259 . S
O965 Eu943 2.670 . S
O965 C950 1.270 . S
O965 Eu953 2.355 . S
O966 Eu943 2.394 . S
O966 C951 1.251 . S
O967 C951 1.251 . S
O967 Eu953 2.374 . S
O968 C952 1.257 . S
O968 Eu953 2.473 . S
O969 C952 1.260 . S
O969 Eu953 2.480 . S
O970 Eu953 2.430 . S
O970 C960 1.259 . S
O971 Eu943 2.355 . S
O971 Eu953 2.670 . S
O971 C960 1.270 . S
O972 Eu953 2.394 . S
O972 C961 1.251 . S
O973 Eu943 2.374 . S
O973 C961 1.251 . S
H974 C945 0.931 . S
H975 C946 0.931 . S
H976 C948 0.931 . S
H977 C949 0.931 . S
H978 C955 0.931 . S
H979 C956 0.931 . S
H980 C958 0.931 . S
H981 C959 0.931 . S
C982 Eu983 2.835 . S
C982 C984 1.500 . S
C982 O1002 1.257 . S
C982 O1003 1.260 . S
Eu983 C982 2.835 . S
Eu983 O1002 2.473 . S
Eu983 O1003 2.480 . S
Eu983 O1004 2.430 . S
Eu983 O1005 2.670 . S
Eu983 O1006 2.394 . S
Eu983 O1011 2.355 . S
Eu983 O1013 2.374 . S
C984 C982 1.500 . S
C984 C985 1.377 . S
C984 C989 1.377 . S
C985 C984 1.377 . S
C985 C986 1.395 . S
C985 H1014 0.931 . S
C986 C985 1.395 . S
C986 C987 1.383 . S
C986 H1015 0.931 . S
C987 C986 1.383 . S
C987 C988 1.394 . S
C988 C987 1.394 . S
C988 C989 1.378 . S
C988 H1016 0.931 . S
C989 C984 1.377 . S
C989 C988 1.378 . S
C989 H1017 0.931 . S
C990 O1004 1.259 . S
C990 O1005 1.270 . S
C991 O1006 1.251 . S
C991 O1007 1.251 . S
C992 Eu993 2.835 . S
C992 C994 1.500 . S
C992 O1008 1.257 . S
C992 O1009 1.260 . S
Eu993 C992 2.835 . S
Eu993 O1005 2.355 . S
Eu993 O1007 2.374 . S
Eu993 O1008 2.473 . S
Eu993 O1009 2.480 . S
Eu993 O1010 2.430 . S
Eu993 O1011 2.670 . S
Eu993 O1012 2.394 . S
C994 C992 1.500 . S
C994 C995 1.377 . S
C994 C999 1.377 . S
C995 C994 1.377 . S
C995 C996 1.395 . S
C995 H1018 0.931 . S
C996 C995 1.395 . S
C996 C997 1.383 . S
C996 H1019 0.931 . S
C997 C996 1.383 . S
C997 C998 1.394 . S
C998 C997 1.394 . S
C998 C999 1.378 . S
C998 H1020 0.931 . S
C999 C994 1.377 . S
C999 C998 1.378 . S
C999 H1021 0.931 . S
C1000 O1010 1.259 . S
C1000 O1011 1.270 . S
C1001 O1012 1.251 . S
C1001 O1013 1.251 . S
O1002 C982 1.257 . S
O1002 Eu983 2.473 . S
O1003 C982 1.260 . S
O1003 Eu983 2.480 . S
O1004 Eu983 2.430 . S
O1004 C990 1.259 . S
O1005 Eu983 2.670 . S
O1005 C990 1.270 . S
O1005 Eu993 2.355 . S
O1006 Eu983 2.394 . S
O1006 C991 1.251 . S
O1007 C991 1.251 . S
O1007 Eu993 2.374 . S
O1008 C992 1.257 . S
O1008 Eu993 2.473 . S
O1009 C992 1.260 . S
O1009 Eu993 2.480 . S
O1010 Eu993 2.430 . S
O1010 C1000 1.259 . S
O1011 Eu983 2.355 . S
O1011 Eu993 2.670 . S
O1011 C1000 1.270 . S
O1012 Eu993 2.394 . S
O1012 C1001 1.251 . S
O1013 Eu983 2.374 . S
O1013 C1001 1.251 . S
H1014 C985 0.931 . S
H1015 C986 0.931 . S
H1016 C988 0.931 . S
H1017 C989 0.931 . S
H1018 C995 0.931 . S
H1019 C996 0.931 . S
H1020 C998 0.931 . S
H1021 C999 0.931 . S
C1022 Eu1023 2.835 . S
C1022 C1024 1.500 . S
C1022 O1042 1.257 . S
C1022 O1043 1.260 . S
Eu1023 C1022 2.835 . S
Eu1023 O1042 2.473 . S
Eu1023 O1043 2.480 . S
Eu1023 O1044 2.430 . S
Eu1023 O1045 2.670 . S
Eu1023 O1046 2.394 . S
Eu1023 O1051 2.355 . S
Eu1023 O1053 2.374 . S
C1024 C1022 1.500 . S
C1024 C1025 1.377 . S
C1024 C1029 1.377 . S
C1025 C1024 1.377 . S
C1025 C1026 1.395 . S
C1025 H1054 0.931 . S
C1026 C1025 1.395 . S
C1026 C1027 1.383 . S
C1026 H1055 0.931 . S
C1027 C1026 1.383 . S
C1027 C1028 1.394 . S
C1028 C1027 1.394 . S
C1028 C1029 1.378 . S
C1028 H1056 0.931 . S
C1029 C1024 1.377 . S
C1029 C1028 1.378 . S
C1029 H1057 0.931 . S
C1030 O1044 1.259 . S
C1030 O1045 1.270 . S
C1031 O1046 1.251 . S
C1031 O1047 1.251 . S
C1032 Eu1033 2.835 . S
C1032 C1034 1.500 . S
C1032 O1048 1.257 . S
C1032 O1049 1.260 . S
Eu1033 C1032 2.835 . S
Eu1033 O1045 2.355 . S
Eu1033 O1047 2.374 . S
Eu1033 O1048 2.473 . S
Eu1033 O1049 2.480 . S
Eu1033 O1050 2.430 . S
Eu1033 O1051 2.670 . S
Eu1033 O1052 2.394 . S
C1034 C1032 1.500 . S
C1034 C1035 1.377 . S
C1034 C1039 1.377 . S
C1035 C1034 1.377 . S
C1035 C1036 1.395 . S
C1035 H1058 0.931 . S
C1036 C1035 1.395 . S
C1036 C1037 1.383 . S
C1036 H1059 0.931 . S
C1037 C1036 1.383 . S
C1037 C1038 1.394 . S
C1038 C1037 1.394 . S
C1038 C1039 1.378 . S
C1038 H1060 0.931 . S
C1039 C1034 1.377 . S
C1039 C1038 1.378 . S
C1039 H1061 0.931 . S
C1040 O1050 1.259 . S
C1040 O1051 1.270 . S
C1041 O1052 1.251 . S
C1041 O1053 1.251 . S
O1042 C1022 1.257 . S
O1042 Eu1023 2.473 . S
O1043 C1022 1.260 . S
O1043 Eu1023 2.480 . S
O1044 Eu1023 2.430 . S
O1044 C1030 1.259 . S
O1045 Eu1023 2.670 . S
O1045 C1030 1.270 . S
O1045 Eu1033 2.355 . S
O1046 Eu1023 2.394 . S
O1046 C1031 1.251 . S
O1047 C1031 1.251 . S
O1047 Eu1033 2.374 . S
O1048 C1032 1.257 . S
O1048 Eu1033 2.473 . S
O1049 C1032 1.260 . S
O1049 Eu1033 2.480 . S
O1050 Eu1033 2.430 . S
O1050 C1040 1.259 . S
O1051 Eu1023 2.355 . S
O1051 Eu1033 2.670 . S
O1051 C1040 1.270 . S
O1052 Eu1033 2.394 . S
O1052 C1041 1.251 . S
O1053 Eu1023 2.374 . S
O1053 C1041 1.251 . S
H1054 C1025 0.931 . S
H1055 C1026 0.931 . S
H1056 C1028 0.931 . S
H1057 C1029 0.931 . S
H1058 C1035 0.931 . S
H1059 C1036 0.931 . S
H1060 C1038 0.931 . S
H1061 C1039 0.931 . S
C1062 C1063 1.387 . S
C1062 H1066 0.950 . S
C1062 C1071 1.390 . S
C1063 C1062 1.387 . S
C1063 C1065 1.387 . S
H1064 C1071 0.950 . S
C1065 C1063 1.387 . S
C1065 C1067 1.390 . S
C1065 H1069 0.950 . S
H1066 C1062 0.950 . S
C1067 C1065 1.390 . S
C1067 C1068 1.387 . S
C1067 H1070 0.950 . S
C1068 C1067 1.387 . S
C1068 C1071 1.387 . S
H1069 C1065 0.950 . S
H1070 C1067 0.950 . S
C1071 C1062 1.390 . S
C1071 H1064 0.950 . S
C1071 C1068 1.387 . S
C1072 C1073 1.387 . S
C1072 H1076 0.950 . S
C1072 C1081 1.390 . S
C1073 C1072 1.387 . S
C1073 C1075 1.387 . S
H1074 C1081 0.950 . S
C1075 C1073 1.387 . S
C1075 C1077 1.390 . S
C1075 H1079 0.950 . S
H1076 C1072 0.950 . S
C1077 C1075 1.390 . S
C1077 C1078 1.387 . S
C1077 H1080 0.950 . S
C1078 C1077 1.387 . S
C1078 C1081 1.387 . S
H1079 C1075 0.950 . S
H1080 C1077 0.950 . S
C1081 C1072 1.390 . S
C1081 H1074 0.950 . S
C1081 C1078 1.387 . S
C1082 C1083 1.387 . S
C1082 H1086 0.950 . S
C1082 C1091 1.390 . S
C1083 C1082 1.387 . S
C1083 C1085 1.387 . S
H1084 C1091 0.950 . S
C1085 C1083 1.387 . S
C1085 C1087 1.390 . S
C1085 H1089 0.950 1_554 S
H1086 C1082 0.950 . S
C1087 C1085 1.390 . S
C1087 C1088 1.387 . S
C1087 H1090 0.950 1_554 S
C1088 C1087 1.387 . S
C1088 C1091 1.387 . S
H1089 C1085 0.950 1_556 S
H1090 C1087 0.950 1_556 S
C1091 C1082 1.390 . S
C1091 H1084 0.950 . S
C1091 C1088 1.387 . S
C1092 C1093 1.384 1_554 S
C1092 H1096 0.953 . S
C1092 C1101 1.390 . S
C1093 C1092 1.384 1_556 S
C1093 C1095 1.387 . S
H1094 C1101 0.950 . S
C1095 C1093 1.387 . S
C1095 C1097 1.390 . S
C1095 H1099 0.950 . S
H1096 C1092 0.953 . S
C1097 C1095 1.390 . S
C1097 C1098 1.387 . S
C1097 H1100 0.950 . S
C1098 C1097 1.387 . S
C1098 C1101 1.387 1_556 S
H1099 C1095 0.950 . S
H1100 C1097 0.950 . S
C1101 C1092 1.390 . S
C1101 H1094 0.950 . S
C1101 C1098 1.387 1_554 S
C1102 C1103 1.387 . S
C1102 H1106 0.950 . S
C1102 C1111 1.390 . S
C1103 C1102 1.387 . S
C1103 C1105 1.387 . S
H1104 C1111 0.895 1_554 S
C1105 C1103 1.387 . S
C1105 C1107 1.390 . S
C1105 H1109 0.950 . S
H1106 C1102 0.950 . S
C1107 C1105 1.390 . S
C1107 C1108 1.387 . S
C1107 H1110 0.950 . S
C1108 C1107 1.387 . S
C1108 C1111 1.387 . S
H1109 C1105 0.950 . S
H1110 C1107 0.950 . S
C1111 C1102 1.390 . S
C1111 H1104 0.895 1_556 S
C1111 C1108 1.387 . S
C1112 C1113 1.387 . S
C1112 H1116 0.950 . S
C1112 C1121 1.390 . S
C1113 C1112 1.387 . S
C1113 C1115 1.387 1_556 S
H1114 C1121 0.950 . S
C1115 C1113 1.387 1_554 S
C1115 C1117 1.390 . S
C1115 H1119 0.950 . S
H1116 C1112 0.950 . S
C1117 C1115 1.390 . S
C1117 C1118 1.387 1_554 S
C1117 H1120 0.950 . S
C1118 C1117 1.387 1_556 S
C1118 C1121 1.387 . S
H1119 C1115 0.950 . S
H1120 C1117 0.950 . S
C1121 C1112 1.390 . S
C1121 H1114 0.950 . S
C1121 C1118 1.387 . S
C1122 C1123 1.387 . S
C1122 H1126 0.950 . S
C1122 C1131 1.390 . S
C1123 C1122 1.387 . S
C1123 C1125 1.387 . S
H1124 C1131 0.950 . S
C1125 C1123 1.387 . S
C1125 C1127 1.390 . S
C1125 H1129 0.973 . S
H1126 C1122 0.950 . S
C1127 C1125 1.390 . S
C1127 C1128 1.387 . S
C1127 H1130 0.950 1_556 S
C1128 C1127 1.387 . S
C1128 C1131 1.387 . S
H1129 C1125 0.973 . S
H1130 C1127 0.950 1_554 S
C1131 C1122 1.390 . S
C1131 H1124 0.950 . S
C1131 C1128 1.387 . S
C1132 C1133 1.387 . S
C1132 H1136 0.950 . S
C1132 C1141 1.390 . S
C1133 C1132 1.387 . S
C1133 C1135 1.387 . S
H1134 C1141 0.950 1_554 S
C1135 C1133 1.387 . S
C1135 C1137 1.390 . S
C1135 H1139 0.950 . S
H1136 C1132 0.950 . S
C1137 C1135 1.390 . S
C1137 C1138 1.387 . S
C1137 H1140 0.950 . S
C1138 C1137 1.387 . S
C1138 C1141 1.387 . S
H1139 C1135 0.950 . S
H1140 C1137 0.950 . S
C1141 C1132 1.390 . S
C1141 H1134 0.950 1_556 S
C1141 C1138 1.387 . S
C1142 C1143 1.387 1_554 S
C1142 H1146 0.950 . S
C1142 C1151 1.390 . S
C1143 C1142 1.387 1_556 S
C1143 C1145 1.387 . S
H1144 C1151 0.950 . S
C1145 C1143 1.387 . S
C1145 C1147 1.390 . S
C1145 H1149 0.950 . S
H1146 C1142 0.950 . S
C1147 C1145 1.390 . S
C1147 C1148 1.387 . S
C1147 H1150 0.950 . S
C1148 C1147 1.387 . S
C1148 C1151 1.387 1_556 S
H1149 C1145 0.950 . S
H1150 C1147 0.950 . S
C1151 C1142 1.390 . S
C1151 H1144 0.950 . S
C1151 C1148 1.387 1_554 S
C1152 C1153 1.387 . S
C1152 H1156 0.950 1_554 S
C1152 C1161 1.390 . S
C1153 C1152 1.387 . S
C1153 C1155 1.387 . S
H1154 C1161 0.950 1_556 S
C1155 C1153 1.387 . S
C1155 C1157 1.390 . S
C1155 H1159 0.950 . S
H1156 C1152 0.950 1_556 S
C1157 C1155 1.390 . S
C1157 C1158 1.387 . S
C1157 H1160 0.950 . S
C1158 C1157 1.387 . S
C1158 C1161 1.387 . S
H1159 C1155 0.950 . S
H1160 C1157 0.950 . S
C1161 C1152 1.390 . S
C1161 H1154 0.950 1_554 S
C1161 C1158 1.387 . S
C1162 C1163 1.387 . S
C1162 H1166 0.950 . S
C1162 C1171 1.390 . S
C1163 C1162 1.387 . S
C1163 C1165 1.387 . S
H1164 C1171 0.950 . S
C1165 C1163 1.387 . S
C1165 C1167 1.390 . S
C1165 H1169 0.950 . S
H1166 C1162 0.950 . S
C1167 C1165 1.390 . S
C1167 C1168 1.387 . S
C1167 H1170 0.950 . S
C1168 C1167 1.387 . S
C1168 C1171 1.387 . S
H1169 C1165 0.950 . S
H1170 C1167 0.950 . S
C1171 C1162 1.390 . S
C1171 H1164 0.950 . S
C1171 C1168 1.387 . S
C1172 C1173 1.387 . S
C1172 H1176 0.950 . S
C1172 C1181 1.390 . S
C1173 C1172 1.387 . S
C1173 C1175 1.387 . S
H1174 C1181 0.950 . S
C1175 C1173 1.387 . S
C1175 C1177 1.385 1_554 S
C1175 H1179 0.950 1_554 S
H1176 C1172 0.950 . S
C1177 C1175 1.385 1_556 S
C1177 C1178 1.351 1_556 S
C1177 H1180 0.993 . S
C1178 C1177 1.351 1_554 S
C1178 C1181 1.387 . S
H1179 C1175 0.950 1_556 S
H1180 C1177 0.993 . S
C1181 C1172 1.390 . S
C1181 H1174 0.950 . S
C1181 C1178 1.387 . S
C1182 C1183 1.387 . S
C1182 H1186 0.950 1_455 S
C1182 C1191 1.390 . S
C1183 C1182 1.387 . S
C1183 C1185 1.387 . S
H1184 C1191 0.950 . S
C1185 C1183 1.387 . S
C1185 C1187 1.390 . S
C1185 H1189 0.950 . S
H1186 C1182 0.950 1_655 S
C1187 C1185 1.390 . S
C1187 C1188 1.387 . S
C1187 H1190 0.950 . S
C1188 C1187 1.387 . S
C1188 C1191 1.387 . S
H1189 C1185 0.950 . S
H1190 C1187 0.950 . S
C1191 C1182 1.390 . S
C1191 H1184 0.950 . S
C1191 C1188 1.387 . S
C1192 C1193 1.387 . S
C1192 H1196 0.950 . S
C1192 C1201 1.390 . S
C1193 C1192 1.387 . S
C1193 C1195 1.387 . S
H1194 C1201 0.950 . S
C1195 C1193 1.387 . S
C1195 C1197 1.390 . S
C1195 H1199 0.950 . S
H1196 C1192 0.950 . S
C1197 C1195 1.390 . S
C1197 C1198 1.387 . S
C1197 H1200 0.950 . S
C1198 C1197 1.387 . S
C1198 C1201 1.387 . S
H1199 C1195 0.950 . S
H1200 C1197 0.950 . S
C1201 C1192 1.390 . S
C1201 H1194 0.950 . S
C1201 C1198 1.387 . S
C1202 C1203 1.387 1_565 S
C1202 H1206 0.950 1_565 S
C1202 C1211 1.390 . S
C1203 C1202 1.387 1_545 S
C1203 C1205 1.387 1_545 S
H1204 C1211 0.950 . S
C1205 C1203 1.387 1_565 S
C1205 C1207 1.390 . S
C1205 H1209 0.950 . S
H1206 C1202 0.950 1_545 S
C1207 C1205 1.390 . S
C1207 C1208 1.387 . S
C1207 H1210 0.950 . S
C1208 C1207 1.387 . S
C1208 C1211 1.387 . S
H1209 C1205 0.950 . S
H1210 C1207 0.950 . S
C1211 C1202 1.390 . S
C1211 H1204 0.950 . S
C1211 C1208 1.387 . S
C1212 C1213 1.387 . S
C1212 H1216 0.950 . S
C1212 C1221 1.390 . S
C1213 C1212 1.387 . S
C1213 C1215 1.387 . S
H1214 C1221 0.950 . S
C1215 C1213 1.387 . S
C1215 C1217 1.390 . S
C1215 H1219 0.950 . S
H1216 C1212 0.950 . S
C1217 C1215 1.390 . S
C1217 C1218 1.387 . S
C1217 H1220 0.950 . S
C1218 C1217 1.387 . S
C1218 C1221 1.387 . S
H1219 C1215 0.950 . S
H1220 C1217 0.950 . S
C1221 C1212 1.390 . S
C1221 H1214 0.950 . S
C1221 C1218 1.387 . S
C1222 C1223 1.387 . S
C1222 H1226 0.950 . S
C1222 C1231 1.390 . S
C1223 C1222 1.387 . S
C1223 C1225 1.387 . S
H1224 C1231 0.950 . S
C1225 C1223 1.387 . S
C1225 C1227 1.390 . S
C1225 H1229 0.950 . S
H1226 C1222 0.950 . S
C1227 C1225 1.390 . S
C1227 C1228 1.387 . S
C1227 H1230 0.950 . S
C1228 C1227 1.387 . S
C1228 C1231 1.387 . S
H1229 C1225 0.950 . S
H1230 C1227 0.950 . S
C1231 C1222 1.390 . S
C1231 H1224 0.950 . S
C1231 C1228 1.387 . S
C1232 C1233 1.387 . S
C1232 H1236 0.950 . S
C1232 C1241 1.390 . S
C1233 C1232 1.387 . S
C1233 C1235 1.387 . S
H1234 C1241 0.950 . S
C1235 C1233 1.387 . S
C1235 C1237 1.390 . S
C1235 H1239 0.950 . S
H1236 C1232 0.950 . S
C1237 C1235 1.390 . S
C1237 C1238 1.387 . S
C1237 H1240 0.950 . S
C1238 C1237 1.387 . S
C1238 C1241 1.387 . S
H1239 C1235 0.950 . S
H1240 C1237 0.950 . S
C1241 C1232 1.390 . S
C1241 H1234 0.950 . S
C1241 C1238 1.387 . S
C1242 C1243 1.387 . S
C1242 H1246 0.950 . S
C1242 C1251 1.390 . S
C1243 C1242 1.387 . S
C1243 C1245 1.387 . S
H1244 C1251 0.950 . S
C1245 C1243 1.387 . S
C1245 C1247 1.390 . S
C1245 H1249 0.950 . S
H1246 C1242 0.950 . S
C1247 C1245 1.390 . S
C1247 C1248 1.387 . S
C1247 H1250 0.950 . S
C1248 C1247 1.387 . S
C1248 C1251 1.387 . S
H1249 C1245 0.950 . S
H1250 C1247 0.950 . S
C1251 C1242 1.390 . S
C1251 H1244 0.950 . S
C1251 C1248 1.387 . S
C1252 C1253 1.387 . S
C1252 H1256 0.950 . S
C1252 C1261 1.390 . S
C1253 C1252 1.387 . S
C1253 C1255 1.387 . S
H1254 C1261 0.950 . S
C1255 C1253 1.387 . S
C1255 C1257 1.390 . S
C1255 H1259 0.950 . S
H1256 C1252 0.950 . S
C1257 C1255 1.390 . S
C1257 C1258 1.387 . S
C1257 H1260 0.950 . S
C1258 C1257 1.387 . S
C1258 C1261 1.387 . S
H1259 C1255 0.950 . S
H1260 C1257 0.950 . S
C1261 C1252 1.390 . S
C1261 H1254 0.950 . S
C1261 C1258 1.387 . S
C1262 C1263 1.387 . S
C1262 H1266 0.950 . S
C1262 C1271 1.390 . S
C1263 C1262 1.387 . S
C1263 C1265 1.387 . S
H1264 C1271 0.950 . S
C1265 C1263 1.387 . S
C1265 C1267 1.390 . S
C1265 H1269 0.950 . S
H1266 C1262 0.950 . S
C1267 C1265 1.390 . S
C1267 C1268 1.387 . S
C1267 H1270 0.950 . S
C1268 C1267 1.387 . S
C1268 C1271 1.387 . S
H1269 C1265 0.950 . S
H1270 C1267 0.950 . S
C1271 C1262 1.390 . S
C1271 H1264 0.950 . S
C1271 C1268 1.387 . S
C1272 C1273 1.387 . S
C1272 H1276 0.950 . S
C1272 C1281 1.390 . S
C1273 C1272 1.387 . S
C1273 C1275 1.387 . S
H1274 C1281 0.950 . S
C1275 C1273 1.387 . S
C1275 C1277 1.390 . S
C1275 H1279 0.950 . S
H1276 C1272 0.950 . S
C1277 C1275 1.390 . S
C1277 C1278 1.387 . S
C1277 H1280 0.950 . S
C1278 C1277 1.387 . S
C1278 C1281 1.387 . S
H1279 C1275 0.950 . S
H1280 C1277 0.950 . S
C1281 C1272 1.390 . S
C1281 H1274 0.950 . S
C1281 C1278 1.387 . S
C1282 C1283 1.387 . S
C1282 H1286 0.950 . S
C1282 C1291 1.390 . S
C1283 C1282 1.387 . S
C1283 C1285 1.387 . S
H1284 C1291 0.950 . S
C1285 C1283 1.387 . S
C1285 C1287 1.390 . S
C1285 H1289 0.950 . S
H1286 C1282 0.950 . S
C1287 C1285 1.390 . S
C1287 C1288 1.387 . S
C1287 H1290 0.950 . S
C1288 C1287 1.387 . S
C1288 C1291 1.387 . S
H1289 C1285 0.950 . S
H1290 C1287 0.950 . S
C1291 C1282 1.390 . S
C1291 H1284 0.950 . S
C1291 C1288 1.387 . S
C1292 C1293 1.387 . S
C1292 H1296 0.950 . S
C1292 C1301 1.390 . S
C1293 C1292 1.387 . S
C1293 C1295 1.387 . S
H1294 C1301 0.950 . S
C1295 C1293 1.387 . S
C1295 C1297 1.390 . S
C1295 H1299 0.950 . S
H1296 C1292 0.950 . S
C1297 C1295 1.390 . S
C1297 C1298 1.387 . S
C1297 H1300 0.950 . S
C1298 C1297 1.387 . S
C1298 C1301 1.387 . S
H1299 C1295 0.950 . S
H1300 C1297 0.950 . S
C1301 C1292 1.390 . S
C1301 H1294 0.950 . S
C1301 C1298 1.387 . S
C1302 C1303 1.387 . S
C1302 H1306 0.950 . S
C1302 C1311 1.390 . S
C1303 C1302 1.387 . S
C1303 C1305 1.387 . S
H1304 C1311 0.950 . S
C1305 C1303 1.387 . S
C1305 C1307 1.390 . S
C1305 H1309 0.950 . S
H1306 C1302 0.950 . S
C1307 C1305 1.390 . S
C1307 C1308 1.387 . S
C1307 H1310 0.950 . S
C1308 C1307 1.387 . S
C1308 C1311 1.387 . S
H1309 C1305 0.950 . S
H1310 C1307 0.950 . S
C1311 C1302 1.390 . S
C1311 H1304 0.950 . S
C1311 C1308 1.387 . S
C1312 C1313 1.387 . S
C1312 H1316 0.950 . S
C1312 C1321 1.390 . S
C1313 C1312 1.387 . S
C1313 C1315 1.387 . S
H1314 C1321 0.950 . S
C1315 C1313 1.387 . S
C1315 C1317 1.390 . S
C1315 H1319 0.950 . S
H1316 C1312 0.950 . S
C1317 C1315 1.390 . S
C1317 C1318 1.387 . S
C1317 H1320 0.950 . S
C1318 C1317 1.387 . S
C1318 C1321 1.387 . S
H1319 C1315 0.950 . S
H1320 C1317 0.950 . S
C1321 C1312 1.390 . S
C1321 H1314 0.950 . S
C1321 C1318 1.387 . S
C1322 C1323 1.387 . S
C1322 H1326 0.950 . S
C1322 C1331 1.390 . S
C1323 C1322 1.387 . S
C1323 C1325 1.387 . S
H1324 C1331 0.950 . S
C1325 C1323 1.387 . S
C1325 C1327 1.390 . S
C1325 H1329 0.950 . S
H1326 C1322 0.950 . S
C1327 C1325 1.390 . S
C1327 C1328 1.387 . S
C1327 H1330 0.950 . S
C1328 C1327 1.387 . S
C1328 C1331 1.387 . S
H1329 C1325 0.950 . S
H1330 C1327 0.950 . S
C1331 C1322 1.390 . S
C1331 H1324 0.950 . S
C1331 C1328 1.387 . S
C1332 C1333 1.387 . S
C1332 H1336 0.950 . S
C1332 C1341 1.390 . S
C1333 C1332 1.387 . S
C1333 C1335 1.387 . S
H1334 C1341 0.950 . S
C1335 C1333 1.387 . S
C1335 C1337 1.390 . S
C1335 H1339 0.950 . S
H1336 C1332 0.950 . S
C1337 C1335 1.390 . S
C1337 C1338 1.387 . S
C1337 H1340 0.950 . S
C1338 C1337 1.387 . S
C1338 C1341 1.387 . S
H1339 C1335 0.950 . S
H1340 C1337 0.950 . S
C1341 C1332 1.390 . S
C1341 H1334 0.950 . S
C1341 C1338 1.387 . S
C1342 C1343 1.387 . S
C1342 H1346 0.950 . S
C1342 C1351 1.390 . S
C1343 C1342 1.387 . S
C1343 C1345 1.387 . S
H1344 C1351 0.950 . S
C1345 C1343 1.387 . S
C1345 C1347 1.390 . S
C1345 H1349 0.950 . S
H1346 C1342 0.950 . S
C1347 C1345 1.390 . S
C1347 C1348 1.387 . S
C1347 H1350 0.950 . S
C1348 C1347 1.387 . S
C1348 C1351 1.387 . S
H1349 C1345 0.950 . S
H1350 C1347 0.950 . S
C1351 C1342 1.390 . S
C1351 H1344 0.950 . S
C1351 C1348 1.387 . S
C1352 C1353 1.387 . S
C1352 H1356 0.950 . S
C1352 C1361 1.390 . S
C1353 C1352 1.387 . S
C1353 C1355 1.387 . S
H1354 C1361 0.950 . S
C1355 C1353 1.387 . S
C1355 C1357 1.390 . S
C1355 H1359 0.950 . S
H1356 C1352 0.950 . S
C1357 C1355 1.390 . S
C1357 C1358 1.387 . S
C1357 H1360 0.950 . S
C1358 C1357 1.387 . S
C1358 C1361 1.387 . S
H1359 C1355 0.950 . S
H1360 C1357 0.950 . S
C1361 C1352 1.390 . S
C1361 H1354 0.950 . S
C1361 C1358 1.387 . S
C1362 C1363 1.387 . S
C1362 H1366 0.950 . S
C1362 C1371 1.390 . S
C1363 C1362 1.387 . S
C1363 C1365 1.387 . S
H1364 C1371 0.950 . S
C1365 C1363 1.387 . S
C1365 C1367 1.390 . S
C1365 H1369 0.950 1_655 S
H1366 C1362 0.950 . S
C1367 C1365 1.390 . S
C1367 C1368 1.387 . S
C1367 H1370 0.950 . S
C1368 C1367 1.387 . S
C1368 C1371 1.387 . S
H1369 C1365 0.950 1_455 S
H1370 C1367 0.950 . S
C1371 C1362 1.390 . S
C1371 H1364 0.950 . S
C1371 C1368 1.387 . S
C1372 C1373 1.387 . S
C1372 H1376 0.950 . S
C1372 C1381 1.390 . S
C1373 C1372 1.387 . S
C1373 C1375 1.387 . S
H1374 C1381 0.950 . S
C1375 C1373 1.387 . S
C1375 C1377 1.390 . S
C1375 H1379 0.950 . S
H1376 C1372 0.950 . S
C1377 C1375 1.390 . S
C1377 C1378 1.387 . S
C1377 H1380 0.950 . S
C1378 C1377 1.387 . S
C1378 C1381 1.387 . S
H1379 C1375 0.950 . S
H1380 C1377 0.950 . S
C1381 C1372 1.390 . S
C1381 H1374 0.950 . S
C1381 C1378 1.387 . S
C1382 C1383 1.375 1_545 S
C1382 H1386 0.950 . S
C1382 C1391 1.390 . S
C1383 C1382 1.375 1_565 S
C1383 C1385 1.376 1_565 S
H1384 C1391 0.950 . S
C1385 C1383 1.376 1_545 S
C1385 C1387 1.390 . S
C1385 H1389 0.956 . S
H1386 C1382 0.950 . S
C1387 C1385 1.390 . S
C1387 C1388 1.387 . S
C1387 H1390 0.950 . S
C1388 C1387 1.387 . S
C1388 C1391 1.387 . S
H1389 C1385 0.956 . S
H1390 C1387 0.950 . S
C1391 C1382 1.390 . S
C1391 H1384 0.950 . S
C1391 C1388 1.387 . S
C1392 C1393 1.387 . S
C1392 H1396 0.950 . S
C1392 C1401 1.390 . S
C1393 C1392 1.387 . S
C1393 C1395 1.387 . S
H1394 C1401 0.950 . S
C1395 C1393 1.387 . S
C1395 C1397 1.390 . S
C1395 H1399 0.950 . S
H1396 C1392 0.950 . S
C1397 C1395 1.390 . S
C1397 C1398 1.387 . S
C1397 H1400 0.950 . S
C1398 C1397 1.387 . S
C1398 C1401 1.387 . S
H1399 C1395 0.950 . S
H1400 C1397 0.950 . S
C1401 C1392 1.390 . S
C1401 H1394 0.950 . S
C1401 C1398 1.387 . S
C1402 C1403 1.387 . S
C1402 H1406 0.950 . S
C1402 C1411 1.390 . S
C1403 C1402 1.387 . S
C1403 C1405 1.387 . S
H1404 C1411 0.950 . S
C1405 C1403 1.387 . S
C1405 C1407 1.390 . S
C1405 H1409 0.950 . S
H1406 C1402 0.950 . S
C1407 C1405 1.390 . S
C1407 C1408 1.387 . S
C1407 H1410 0.950 . S
C1408 C1407 1.387 . S
C1408 C1411 1.387 . S
H1409 C1405 0.950 . S
H1410 C1407 0.950 . S
C1411 C1402 1.390 . S
C1411 H1404 0.950 . S
C1411 C1408 1.387 . S
C1412 C1413 1.387 . S
C1412 H1416 0.950 . S
C1412 C1421 1.390 . S
C1413 C1412 1.387 . S
C1413 C1415 1.387 . S
H1414 C1421 0.950 . S
C1415 C1413 1.387 . S
C1415 C1417 1.390 . S
C1415 H1419 0.950 . S
H1416 C1412 0.950 . S
C1417 C1415 1.390 . S
C1417 C1418 1.387 . S
C1417 H1420 0.950 . S
C1418 C1417 1.387 . S
C1418 C1421 1.387 . S
H1419 C1415 0.950 . S
H1420 C1417 0.950 . S
C1421 C1412 1.390 . S
C1421 H1414 0.950 . S
C1421 C1418 1.387 . S
C1422 C1423 1.387 . S
C1422 H1426 0.950 . S
C1422 C1431 1.390 . S
C1423 C1422 1.387 . S
C1423 C1425 1.387 1_565 S
H1424 C1431 0.950 . S
C1425 C1423 1.387 1_545 S
C1425 C1427 1.390 . S
C1425 H1429 0.950 . S
H1426 C1422 0.950 . S
C1427 C1425 1.390 . S
C1427 C1428 1.387 1_545 S
C1427 H1430 0.950 . S
C1428 C1427 1.387 1_565 S
C1428 C1431 1.387 . S
H1429 C1425 0.950 . S
H1430 C1427 0.950 . S
C1431 C1422 1.390 . S
C1431 H1424 0.950 . S
C1431 C1428 1.387 . S
C1432 C1433 1.387 1_655 S
C1432 H1436 0.950 . S
C1432 C1441 1.390 . S
C1433 C1432 1.387 1_455 S
C1433 C1435 1.387 . S
H1434 C1441 0.950 . S
C1435 C1433 1.387 . S
C1435 C1437 1.390 . S
C1435 H1439 0.950 . S
H1436 C1432 0.950 . S
C1437 C1435 1.390 . S
C1437 C1438 1.387 . S
C1437 H1440 0.950 . S
C1438 C1437 1.387 . S
C1438 C1441 1.387 1_455 S
H1439 C1435 0.950 . S
H1440 C1437 0.950 . S
C1441 C1432 1.390 . S
C1441 H1434 0.950 . S
C1441 C1438 1.387 1_655 S
C1442 C1443 1.387 . S
C1442 H1446 0.950 . S
C1442 C1451 1.390 . S
C1443 C1442 1.387 . S
C1443 C1445 1.387 . S
H1444 C1451 0.950 . S
C1445 C1443 1.387 . S
C1445 C1447 1.390 . S
C1445 H1449 0.950 . S
H1446 C1442 0.950 . S
C1447 C1445 1.390 . S
C1447 C1448 1.387 . S
C1447 H1450 0.950 . S
C1448 C1447 1.387 . S
C1448 C1451 1.387 . S
H1449 C1445 0.950 . S
H1450 C1447 0.950 . S
C1451 C1442 1.390 . S
C1451 H1444 0.950 . S
C1451 C1448 1.387 . S
C1452 C1453 1.387 . S
C1452 H1456 0.950 . S
C1452 C1461 1.390 . S
C1453 C1452 1.387 . S
C1453 C1455 1.387 1_655 S
H1454 C1461 0.950 . S
C1455 C1453 1.387 1_455 S
C1455 C1457 1.390 . S
C1455 H1459 0.950 . S
H1456 C1452 0.950 . S
C1457 C1455 1.390 . S
C1457 C1458 1.387 1_455 S
C1457 H1460 0.950 . S
C1458 C1457 1.387 1_655 S
C1458 C1461 1.387 . S
H1459 C1455 0.950 . S
H1460 C1457 0.950 . S
C1461 C1452 1.390 . S
C1461 H1454 0.950 . S
C1461 C1458 1.387 . S
C1462 C1463 1.387 . S
C1462 H1466 0.950 . S
C1462 C1471 1.390 . S
C1463 C1462 1.387 . S
C1463 C1465 1.387 . S
H1464 C1471 0.950 . S
C1465 C1463 1.387 . S
C1465 C1467 1.390 . S
C1465 H1469 0.950 . S
H1466 C1462 0.950 . S
C1467 C1465 1.390 . S
C1467 C1468 1.387 . S
C1467 H1470 0.950 . S
C1468 C1467 1.387 . S
C1468 C1471 1.387 . S
H1469 C1465 0.950 . S
H1470 C1467 0.950 . S
C1471 C1462 1.390 . S
C1471 H1464 0.950 . S
C1471 C1468 1.387 . S
C1472 C1473 1.387 . S
C1472 H1476 0.950 1_545 S
C1472 C1481 1.390 1_545 S
C1473 C1472 1.387 . S
C1473 C1475 1.387 . S
H1474 C1481 0.950 . S
C1475 C1473 1.387 . S
C1475 C1477 1.390 . S
C1475 H1479 0.950 . S
H1476 C1472 0.950 1_565 S
C1477 C1475 1.390 . S
C1477 C1478 1.387 . S
C1477 H1480 0.950 . S
C1478 C1477 1.387 . S
C1478 C1481 1.387 1_545 S
H1479 C1475 0.950 . S
H1480 C1477 0.950 . S
C1481 C1472 1.390 1_565 S
C1481 H1474 0.950 . S
C1481 C1478 1.387 1_565 S
C1482 C1483 1.387 . S
C1482 H1486 0.950 . S
C1482 C1491 1.390 . S
C1483 C1482 1.387 . S
C1483 C1485 1.387 . S
H1484 C1491 0.950 . S
C1485 C1483 1.387 . S
C1485 C1487 1.390 . S
C1485 H1489 0.950 . S
H1486 C1482 0.950 . S
C1487 C1485 1.390 . S
C1487 C1488 1.387 . S
C1487 H1490 0.950 . S
C1488 C1487 1.387 . S
C1488 C1491 1.387 . S
H1489 C1485 0.950 . S
H1490 C1487 0.950 . S
C1491 C1482 1.390 . S
C1491 H1484 0.950 . S
C1491 C1488 1.387 . S
C1492 C1493 1.387 . S
C1492 H1496 0.950 . S
C1492 C1501 1.390 . S
C1493 C1492 1.387 . S
C1493 C1495 1.387 . S
H1494 C1501 0.950 . S
C1495 C1493 1.387 . S
C1495 C1497 1.390 . S
C1495 H1499 0.950 . S
H1496 C1492 0.950 . S
C1497 C1495 1.390 . S
C1497 C1498 1.387 . S
C1497 H1500 0.950 . S
C1498 C1497 1.387 . S
C1498 C1501 1.387 . S
H1499 C1495 0.950 . S
H1500 C1497 0.950 . S
C1501 C1492 1.390 . S
C1501 H1494 0.950 . S
C1501 C1498 1.387 . S
C1502 C1503 1.387 . S
C1502 H1506 0.950 . S
C1502 C1511 1.390 . S
C1503 C1502 1.387 . S
C1503 C1505 1.387 . S
H1504 C1511 0.950 . S
C1505 C1503 1.387 . S
C1505 C1507 1.390 . S
C1505 H1509 0.950 . S
H1506 C1502 0.950 . S
C1507 C1505 1.390 . S
C1507 C1508 1.387 . S
C1507 H1510 0.950 . S
C1508 C1507 1.387 . S
C1508 C1511 1.387 . S
H1509 C1505 0.950 . S
H1510 C1507 0.950 . S
C1511 C1502 1.390 . S
C1511 H1504 0.950 . S
C1511 C1508 1.387 . S
C1512 C1513 1.387 . S
C1512 H1516 0.950 . S
C1512 C1521 1.390 . S
C1513 C1512 1.387 . S
C1513 C1515 1.387 . S
H1514 C1521 0.950 . S
C1515 C1513 1.387 . S
C1515 C1517 1.390 . S
C1515 H1519 0.950 . S
H1516 C1512 0.950 . S
C1517 C1515 1.390 . S
C1517 C1518 1.387 . S
C1517 H1520 0.950 . S
C1518 C1517 1.387 . S
C1518 C1521 1.387 . S
H1519 C1515 0.950 . S
H1520 C1517 0.950 . S
C1521 C1512 1.390 . S
C1521 H1514 0.950 . S
C1521 C1518 1.387 . S
C1522 C1523 1.387 . S
C1522 H1526 0.950 . S
C1522 C1531 1.390 . S
C1523 C1522 1.387 . S
C1523 C1525 1.387 . S
H1524 C1531 0.950 . S
C1525 C1523 1.387 . S
C1525 C1527 1.390 . S
C1525 H1529 0.950 . S
H1526 C1522 0.950 . S
C1527 C1525 1.390 . S
C1527 C1528 1.387 . S
C1527 H1530 0.950 . S
C1528 C1527 1.387 . S
C1528 C1531 1.387 . S
H1529 C1525 0.950 . S
H1530 C1527 0.950 . S
C1531 C1522 1.390 . S
C1531 H1524 0.950 . S
C1531 C1528 1.387 . S
C1532 C1533 1.387 . S
C1532 H1536 0.950 . S
C1532 C1541 1.390 . S
C1533 C1532 1.387 . S
C1533 C1535 1.387 . S
H1534 C1541 0.950 . S
C1535 C1533 1.387 . S
C1535 C1537 1.390 . S
C1535 H1539 0.950 . S
H1536 C1532 0.950 . S
C1537 C1535 1.390 . S
C1537 C1538 1.387 . S
C1537 H1540 0.950 . S
C1538 C1537 1.387 . S
C1538 C1541 1.387 . S
H1539 C1535 0.950 . S
H1540 C1537 0.950 . S
C1541 C1532 1.390 . S
C1541 H1534 0.950 . S
C1541 C1538 1.387 . S
C1542 C1543 1.387 . S
C1542 H1546 0.950 . S
C1542 C1551 1.390 . S
C1543 C1542 1.387 . S
C1543 C1545 1.387 . S
H1544 C1551 0.950 . S
C1545 C1543 1.387 . S
C1545 C1547 1.390 . S
C1545 H1549 0.950 . S
H1546 C1542 0.950 . S
C1547 C1545 1.390 . S
C1547 C1548 1.387 . S
C1547 H1550 0.950 . S
C1548 C1547 1.387 . S
C1548 C1551 1.387 . S
H1549 C1545 0.950 . S
H1550 C1547 0.950 . S
C1551 C1542 1.390 . S
C1551 H1544 0.950 . S
C1551 C1548 1.387 . S
C1552 C1553 1.387 . S
C1552 H1556 0.950 . S
C1552 C1561 1.390 . S
C1553 C1552 1.387 . S
C1553 C1555 1.387 . S
H1554 C1561 0.950 . S
C1555 C1553 1.387 . S
C1555 C1557 1.390 . S
C1555 H1559 0.950 . S
H1556 C1552 0.950 . S
C1557 C1555 1.390 . S
C1557 C1558 1.387 . S
C1557 H1560 0.950 . S
C1558 C1557 1.387 . S
C1558 C1561 1.387 . S
H1559 C1555 0.950 . S
H1560 C1557 0.950 . S
C1561 C1552 1.390 . S
C1561 H1554 0.950 . S
C1561 C1558 1.387 . S
C1562 C1563 1.387 . S
C1562 H1566 0.950 . S
C1562 C1571 1.390 . S
C1563 C1562 1.387 . S
C1563 C1565 1.387 . S
H1564 C1571 0.950 . S
C1565 C1563 1.387 . S
C1565 C1567 1.390 . S
C1565 H1569 0.950 . S
H1566 C1562 0.950 . S
C1567 C1565 1.390 . S
C1567 C1568 1.387 . S
C1567 H1570 0.950 . S
C1568 C1567 1.387 . S
C1568 C1571 1.387 . S
H1569 C1565 0.950 . S
H1570 C1567 0.950 . S
C1571 C1562 1.390 . S
C1571 H1564 0.950 . S
C1571 C1568 1.387 . S
C1572 C1573 1.387 . S
C1572 H1576 0.950 . S
C1572 C1581 1.390 . S
C1573 C1572 1.387 . S
C1573 C1575 1.387 . S
H1574 C1581 0.950 . S
C1575 C1573 1.387 . S
C1575 C1577 1.390 . S
C1575 H1579 0.950 . S
H1576 C1572 0.950 . S
C1577 C1575 1.390 . S
C1577 C1578 1.387 . S
C1577 H1580 0.950 . S
C1578 C1577 1.387 . S
C1578 C1581 1.387 . S
H1579 C1575 0.950 . S
H1580 C1577 0.950 . S
C1581 C1572 1.390 . S
C1581 H1574 0.950 . S
C1581 C1578 1.387 . S
C1582 C1583 1.387 . S
C1582 H1586 0.950 . S
C1582 C1591 1.390 . S
C1583 C1582 1.387 . S
C1583 C1585 1.387 . S
H1584 C1591 0.950 . S
C1585 C1583 1.387 . S
C1585 C1587 1.390 . S
C1585 H1589 0.950 . S
H1586 C1582 0.950 . S
C1587 C1585 1.390 . S
C1587 C1588 1.387 . S
C1587 H1590 0.950 . S
C1588 C1587 1.387 . S
C1588 C1591 1.387 . S
H1589 C1585 0.950 . S
H1590 C1587 0.950 . S
C1591 C1582 1.390 . S
C1591 H1584 0.950 . S
C1591 C1588 1.387 . S
C1592 C1593 1.387 . S
C1592 H1596 0.950 . S
C1592 C1601 1.390 . S
C1593 C1592 1.387 . S
C1593 C1595 1.387 . S
H1594 C1601 0.950 . S
C1595 C1593 1.387 . S
C1595 C1597 1.390 . S
C1595 H1599 0.950 . S
H1596 C1592 0.950 . S
C1597 C1595 1.390 . S
C1597 C1598 1.387 . S
C1597 H1600 0.950 . S
C1598 C1597 1.387 . S
C1598 C1601 1.387 . S
H1599 C1595 0.950 . S
H1600 C1597 0.950 . S
C1601 C1592 1.390 . S
C1601 H1594 0.950 . S
C1601 C1598 1.387 . S
C1063 C528 1.715 . S
C1068 C711 1.681 . S
C1073 C562 1.786 . S
C1078 C751 1.754 . S
C1083 C484 1.791 . S
C1088 C790 1.825 . S
C1093 C445 1.630 . S
C1098 C750 1.644 . S
C1108 C791 1.518 . S
C1103 C367 1.540 . S
C1113 C411 1.542 . S
C1118 C710 1.613 . S
C1128 C721 1.694 . S
C1123 C450 1.708 . S
C1138 C761 1.739 . S
C1133 C372 1.763 . S
C1143 C406 1.788 . S
C1148 C800 1.828 . S
C1153 C523 1.628 . S
C1158 C760 1.645 . S
C1163 C567 1.515 . S
C1168 C801 1.503 . S
C1178 C720 1.610 . S
C1173 C489 1.532 . S
C1188 C831 1.678 . S
C1183 C60 1.713 1_455 S
C1193 C94 1.786 . S
C1198 C871 1.753 . S
C1203 C16 1.792 . S
C1208 C910 1.826 . S
C1213 C679 1.632 . S
C1218 C870 1.644 . S
C1223 C601 1.540 . S
C1228 C911 1.518 . S
C1233 C645 1.539 . S
C1238 C830 1.593 . S
C1243 C684 1.711 . S
C1248 C841 1.697 . S
C1253 C606 1.763 . S
C1258 C881 1.739 . S
C1268 C920 1.827 . S
C1263 C640 1.785 . S
C1273 C55 1.628 1_565 S
C1278 C880 1.644 . S
C1288 C921 1.502 . S
C1283 C99 1.515 1_455 S
C1293 C21 1.532 . S
C1298 C840 1.610 . S
C1308 C951 1.681 . S
C1303 C294 1.715 . S
C1313 C328 1.786 . S
C1318 C991 1.753 . S
C1328 C1030 1.826 . S
C1323 C250 1.792 . S
C1338 C990 1.644 . S
C1333 C211 1.630 1_545 S
C1348 C1031 1.518 . S
C1343 C133 1.541 1_655 S
C1353 C177 1.542 . S
C1358 C950 1.594 . S
C1363 C216 1.708 1_655 S
C1368 C961 1.694 . S
C1373 C138 1.762 . S
C1378 C1001 1.737 . S
C1388 C1040 1.828 . S
C1383 C172 1.816 . S
C1393 C289 1.628 . S
C1398 C1000 1.644 . S
C1403 C333 1.513 . S
C1408 C1041 1.501 . S
C1413 C255 1.536 . S
C1418 C960 1.612 . S
C1423 C586 1.416 . S
C1428 C707 1.405 . S
C1438 C747 1.826 . S
C1433 C625 1.809 . S
C1443 C664 1.570 . S
C1448 C797 1.587 . S
C1453 C235 1.811 . S
C1458 C757 1.836 . S
C1463 C274 1.561 . S
C1468 C787 1.574 . S
C1478 C717 1.403 . S
C1473 C313 1.415 . S
C1483 C118 1.416 . S
C1488 C827 1.403 . S
C1493 C157 1.811 . S
C1498 C867 1.828 . S
C1503 C196 1.569 . S
C1508 C917 1.586 . S
C1513 C469 1.813 . S
C1518 C877 1.837 . S
C1528 C907 1.574 . S
C1523 C508 1.561 . S
C1533 C547 1.414 . S
C1538 C837 1.404 . S
C1543 C352 1.416 . S
C1548 C947 1.404 . S
C1553 C391 1.811 . S
C1558 C987 1.828 . S
C1568 C1037 1.586 . S
C1563 C430 1.569 . S
C1573 C1 1.813 . S
C1578 C997 1.837 . S
C1583 C40 1.561 . S
C1588 C1027 1.574 . S
C1593 C79 1.414 . S
C1598 C957 1.402 . S
