# Generated by pormake.
# Topology zzz, (3,6)-cn, num edge types: 1
# Building blocks:
#     Node 0, Type 0, BuildingBlock: MIDCAF_clean_linker_0, # of connection points: 3
#     Node 1, Type 0, BuildingBlock: MIDCAF_clean_linker_0, # of connection points: 3
#     Node 2, Type 0, BuildingBlock: MIDCAF_clean_linker_0, # of connection points: 3
#     Node 3, Type 0, BuildingBlock: MIDCAF_clean_linker_0, # of connection points: 3
#     Node 4, Type 0, BuildingBlock: MIDCAF_clean_linker_0, # of connection points: 3
#     Node 5, Type 0, BuildingBlock: MIDCAF_clean_linker_0, # of connection points: 3
#     Node 6, Type 0, BuildingBlock: MIDCAF_clean_linker_0, # of connection points: 3
#     Node 7, Type 0, BuildingBlock: MIDCAF_clean_linker_0, # of connection points: 3
#     Node 8, Type 1, BuildingBlock: KUMBUR_clean_sbu_0, # of connection points: 6
#     Node 9, Type 1, BuildingBlock: KUMBUR_clean_sbu_0, # of connection points: 6
#     Node 10, Type 1, BuildingBlock: KUMBUR_clean_sbu_0, # of connection points: 6
#     Node 11, Type 1, BuildingBlock: KUMBUR_clean_sbu_0, # of connection points: 6
#     Edge 12, Type (0, 1), BuildingBlock: CIFDUS_clean_linker_0, # of connection points: 2
#     Edge 13, Type (0, 1), BuildingBlock: CIFDUS_clean_linker_0, # of connection points: 2
#     Edge 14, Type (0, 1), BuildingBlock: CIFDUS_clean_linker_0, # of connection points: 2
#     Edge 15, Type (0, 1), BuildingBlock: CIFDUS_clean_linker_0, # of connection points: 2
#     Edge 16, Type (0, 1), BuildingBlock: CIFDUS_clean_linker_0, # of connection points: 2
#     Edge 17, Type (0, 1), BuildingBlock: CIFDUS_clean_linker_0, # of connection points: 2
#     Edge 18, Type (0, 1), BuildingBlock: CIFDUS_clean_linker_0, # of connection points: 2
#     Edge 19, Type (0, 1), BuildingBlock: CIFDUS_clean_linker_0, # of connection points: 2
#     Edge 20, Type (0, 1), BuildingBlock: CIFDUS_clean_linker_0, # of connection points: 2
#     Edge 21, Type (0, 1), BuildingBlock: CIFDUS_clean_linker_0, # of connection points: 2
#     Edge 22, Type (0, 1), BuildingBlock: CIFDUS_clean_linker_0, # of connection points: 2
#     Edge 23, Type (0, 1), BuildingBlock: CIFDUS_clean_linker_0, # of connection points: 2
#     Edge 24, Type (0, 1), BuildingBlock: CIFDUS_clean_linker_0, # of connection points: 2
#     Edge 25, Type (0, 1), BuildingBlock: CIFDUS_clean_linker_0, # of connection points: 2
#     Edge 26, Type (0, 1), BuildingBlock: CIFDUS_clean_linker_0, # of connection points: 2
#     Edge 27, Type (0, 1), BuildingBlock: CIFDUS_clean_linker_0, # of connection points: 2
#     Edge 28, Type (0, 1), BuildingBlock: CIFDUS_clean_linker_0, # of connection points: 2
#     Edge 29, Type (0, 1), BuildingBlock: CIFDUS_clean_linker_0, # of connection points: 2
#     Edge 30, Type (0, 1), BuildingBlock: CIFDUS_clean_linker_0, # of connection points: 2
#     Edge 31, Type (0, 1), BuildingBlock: CIFDUS_clean_linker_0, # of connection points: 2
#     Edge 32, Type (0, 1), BuildingBlock: CIFDUS_clean_linker_0, # of connection points: 2
#     Edge 33, Type (0, 1), BuildingBlock: CIFDUS_clean_linker_0, # of connection points: 2
#     Edge 34, Type (0, 1), BuildingBlock: CIFDUS_clean_linker_0, # of connection points: 2
#     Edge 35, Type (0, 1), BuildingBlock: CIFDUS_clean_linker_0, # of connection points: 2
# Relax obj value: 0.315
# Max RMSD: 0.225
# Mean RMSD: 0.214
data_MOF--net-zzz--node1-KUMBUR_clean_sbu_0--node2-MIDCAF_clean_linker_0--edge1-CIFDUS_clean_linker_0
_symmetry_space_group_name_H-M    P1
_symmetry_Int_Tables_number       1
_symmetry_cell_setting            triclinic
loop_
_symmetry_equiv_pos_as_xyz
'x, y, z'
_cell_length_a     50.002111
_cell_length_b     49.862282
_cell_length_c     17.623662
_cell_angle_alpha  90.589117
_cell_angle_beta   90.363301
_cell_angle_gamma 90.091376
loop_
_atom_site_label
_atom_site_type_symbol
_atom_site_fract_x
_atom_site_fract_y
_atom_site_fract_z
_atom_type_partial_charge
C0 C 0.81296 0.60209 0.4558 0.0
C1 C 0.82295 0.57587 0.46541 0.0
C2 C 0.80761 0.5546 0.43339 0.0
C3 C 0.78461 0.55962 0.38846 0.0
H4 H 0.68961 0.54908 0.26294 0.0
H5 H 0.64847 0.53467 0.19841 0.0
H6 H 0.65254 0.60493 0.05632 0.0
H7 H 0.69102 0.61995 0.1249 0.0
H8 H 0.75043 0.61451 0.03442 0.0
H9 H 0.78349 0.60792 0.93557 0.0
H10 H 0.84658 0.62641 0.09589 0.0
H11 H 0.81371 0.633 0.19509 0.0
H12 H 0.78443 0.62762 0.40152 0.0
H13 H 0.82382 0.61933 0.47748 0.0
H14 H 0.81388 0.53402 0.44033 0.0
H15 H 0.77487 0.543 0.35942 0.0
N16 N 0.7342 0.58504 0.29063 0.0
N17 N 0.73684 0.60663 0.17244 0.0
N18 N 0.77375 0.60702 0.25304 0.0
C19 C 0.72221 0.59272 0.22344 0.0
C20 C 0.76244 0.61381 0.18628 0.0
C21 C 0.76021 0.59291 0.3057 0.0
C22 C 0.69421 0.58546 0.19866 0.0
C23 C 0.68107 0.56174 0.21953 0.0
C24 C 0.65755 0.55324 0.18075 0.0
C25 C 0.64675 0.56794 0.11888 0.0
C26 C 0.65919 0.59257 0.10265 0.0
C27 C 0.682 0.60122 0.14219 0.0
C28 C 0.77964 0.62277 0.1235 0.0
C29 C 0.77122 0.61853 0.04801 0.0
C30 C 0.79014 0.61487 0.99103 0.0
C31 C 0.81752 0.61568 1.00905 0.0
C32 C 0.82557 0.62531 0.08076 0.0
C33 C 0.80668 0.62882 0.13789 0.0
C34 C 0.77599 0.58601 0.37519 0.0
C35 C 0.78997 0.60697 0.41206 0.0
C36 C 0.97299 0.82106 0.45923 0.0
C37 C 0.99514 0.83793 0.44512 0.0
C38 C 1.01336 0.82908 0.38901 0.0
C39 C 1.0086 0.80562 0.34546 0.0
H40 H 0.0212 0.71092 0.20994 0.0
H41 H 0.03455 0.67116 0.13581 0.0
H42 H 0.95429 0.66448 0.04564 0.0
H43 H 0.9414 0.704 0.11766 0.0
H44 H 0.93309 0.76704 0.03137 0.0
H45 H 0.9306 0.80072 0.93278 0.0
H46 H 0.93163 0.86315 0.10507 0.0
H47 H 0.93223 0.82977 0.20239 0.0
H48 H 0.94953 0.78702 0.42282 0.0
H49 H 0.95866 0.82622 0.50269 0.0
H50 H 0.03051 0.84114 0.3744 0.0
H51 H 0.02184 0.80105 0.29867 0.0
N52 N 0.9829 0.74947 0.26681 0.0
N53 N 0.955 0.75267 0.1587 0.0
N54 N 0.95683 0.78805 0.24582 0.0
C55 C 0.97238 0.73811 0.2013 0.0
C56 C 0.94726 0.77762 0.18004 0.0
C57 C 0.97433 0.77453 0.28988 0.0
C58 C 0.98025 0.71104 0.16976 0.0
C59 C 1.00634 0.70065 0.17537 0.0
C60 C 1.01398 0.6778 0.13222 0.0
C61 C 0.99574 0.6646 0.08239 0.0
C62 C 0.96933 0.67429 0.08061 0.0
C63 C 0.96181 0.69698 0.1231 0.0
C64 C 0.93444 0.79578 0.12464 0.0
C65 C 0.93157 0.78794 0.04819 0.0
C66 C 0.93038 0.80733 0.99149 0.0
C67 C 0.9326 0.83477 1.01046 0.0
C68 C 0.93047 0.84234 0.08735 0.0
C69 C 0.93111 0.823 0.14385 0.0
C70 C 0.98542 0.79014 0.35576 0.0
C71 C 0.96807 0.79787 0.41471 0.0
C72 C 0.72795 0.98169 0.48266 0.0
C73 C 0.7177 1.00775 0.47165 0.0
C74 C 0.73281 0.02505 0.42493 0.0
C75 C 0.75601 1.01621 0.38745 0.0
H76 H 0.86926 0.96492 0.28347 0.0
H77 H 0.90871 0.97148 0.20259 0.0
H78 H 0.86065 1.01746 0.04705 0.0
H79 H 0.82168 1.01113 0.12796 0.0
H80 H 0.7894 0.93873 0.07098 0.0
H81 H 0.75544 0.93715 0.97212 0.0
H82 H 0.69427 0.93445 0.14522 0.0
H83 H 0.72792 0.93324 0.24119 0.0
H84 H 0.75657 0.95186 0.44851 0.0
H85 H 0.71793 0.96767 0.51931 0.0
H86 H 0.72602 0.04509 0.41252 0.0
H87 H 0.76563 0.02951 0.34775 0.0
N88 N 0.8056 0.9873 0.31011 0.0
N89 N 0.80358 0.9595 0.20106 0.0
N90 N 0.76853 0.9592 0.28748 0.0
C91 C 0.81728 0.97733 0.24526 0.0
C92 C 0.77921 0.95033 0.22154 0.0
C93 C 0.78119 0.97747 0.33224 0.0
C94 C 0.84249 0.98811 0.21312 0.0
C95 C 0.8675 0.97742 0.23378 0.0
C96 C 0.89 0.98089 0.18684 0.0
C97 C 0.88777 0.99462 0.11744 0.0
C98 C 0.86305 1.00643 0.09929 0.0
C99 C 0.84079 1.00322 0.14637 0.0
C100 C 0.76126 0.93776 0.16418 0.0
C101 C 0.76867 0.9366 0.08741 0.0
C102 C 0.74902 0.93624 0.03052 0.0
C103 C 0.7217 0.93787 0.04961 0.0
C104 C 0.71476 0.93403 0.12625 0.0
C105 C 0.73435 0.93353 0.1826 0.0
C106 C 0.76469 0.98961 0.3938 0.0
C107 C 0.75075 0.9727 0.44349 0.0
C108 C 0.62589 0.72924 0.09898 0.0
C109 C 0.61034 0.7346 0.03434 0.0
C110 C 0.60675 0.76129 1.01212 0.0
C111 C 0.61336 0.78211 0.06238 0.0
H112 H 0.5407 0.83014 0.15315 0.0
H113 H 0.53077 0.86611 0.0652 0.0
H114 H 0.59016 0.91599 0.17697 0.0
H115 H 0.60076 0.87918 0.26251 0.0
H116 H 0.54469 0.78569 0.4026 0.0
H117 H 0.53154 0.7478 0.48121 0.0
H118 H 0.60996 0.71284 0.44861 0.0
H119 H 0.62331 0.75133 0.37881 0.0
H120 H 0.64108 0.74492 0.20374 0.0
H121 H 0.62961 0.70874 0.11592 0.0
H122 H 0.59529 0.76597 0.96157 0.0
H123 H 0.60671 0.80216 0.04862 0.0
N124 N 0.60165 0.81623 0.18816 0.0
N125 N 0.57915 0.81371 0.30528 0.0
N126 N 0.60857 0.77962 0.26622 0.0
C127 C 0.58506 0.82738 0.24013 0.0
C128 C 0.59174 0.78977 0.31917 0.0
C129 C 0.61345 0.7923 0.2004 0.0
C130 C 0.5711 0.852 0.21588 0.0
C131 C 0.55061 0.84931 0.16136 0.0
C132 C 0.54514 0.86999 0.11016 0.0
C133 C 0.56003 0.89401 0.11215 0.0
C134 C 0.57871 0.8976 0.17187 0.0
C135 C 0.58437 0.87675 0.22251 0.0
C136 C 0.58494 0.77153 0.38314 0.0
C137 C 0.55931 0.77034 0.41515 0.0
C138 C 0.55164 0.74807 0.45899 0.0
C139 C 0.56921 0.72613 0.47057 0.0
C140 C 0.59546 0.72873 0.44298 0.0
C141 C 0.60322 0.75109 0.40146 0.0
C142 C 0.62302 0.77608 0.13541 0.0
C143 C 0.63252 0.75003 0.14913 0.0
C144 C 0.21702 0.49823 0.94821 0.0
C145 C 0.22136 0.49852 0.86979 0.0
C146 C 0.24735 0.49295 0.84303 0.0
C147 C 0.26817 0.48586 0.89403 0.0
H148 H 0.34537 0.51668 0.09621 0.0
H149 H 0.38456 0.53188 0.17014 0.0
H150 H 0.39537 0.45172 0.25483 0.0
H151 H 0.35685 0.43666 0.18146 0.0
H152 H 0.29677 0.4287 0.27599 0.0
H153 H 0.26497 0.43236 0.37915 0.0
H154 H 0.19977 0.42511 0.2184 0.0
H155 H 0.23136 0.42078 0.11588 0.0
H156 H 0.23298 0.49043 0.0585 0.0
H157 H 0.19733 0.50254 0.97059 0.0
H158 H 0.25126 0.49302 0.78267 0.0
H159 H 0.28746 0.48 0.87178 0.0
N160 N 0.30713 0.47874 0.04485 0.0
N161 N 0.30803 0.44749 0.1445 0.0
N162 N 0.26983 0.45136 0.06965 0.0
C163 C 0.32074 0.46653 0.10343 0.0
C164 C 0.28266 0.43981 0.12853 0.0
C165 C 0.28151 0.47052 0.02705 0.0
C166 C 0.34762 0.47546 0.13292 0.0
C167 C 0.35651 0.5022 0.12908 0.0
C168 C 0.37891 0.51093 0.17215 0.0
C169 C 0.39288 0.49319 0.22045 0.0
C170 C 0.3848 0.46621 0.22051 0.0
C171 C 0.36273 0.45752 0.17744 0.0
C172 C 0.26647 0.42642 0.18728 0.0
C173 C 0.27569 0.42639 0.26286 0.0
C174 C 0.25743 0.42855 0.32228 0.0
C175 C 0.22992 0.4307 0.30638 0.0
C176 C 0.22085 0.4243 0.23269 0.0
C177 C 0.23909 0.42198 0.17341 0.0
C178 C 0.26331 0.48454 0.97258 0.0
C179 C 0.2376 0.49149 0.99859 0.0
C180 C 0.03327 0.21957 0.93964 0.0
C181 C 0.04844 0.21244 0.87497 0.0
C182 C 0.06816 0.23099 0.85195 0.0
C183 C 0.07382 0.25437 0.89498 0.0
H184 H 0.02643 0.341 0.1009 0.0
H185 H 1.01281 0.38087 0.17441 0.0
H186 H 0.09308 0.38863 0.26345 0.0
H187 H 0.10641 0.34929 0.19154 0.0
H188 H 0.1128 0.28489 0.27455 0.0
H189 H 0.11289 0.24802 0.36336 0.0
H190 H 0.12862 0.19237 0.18031 0.0
H191 H 0.1287 0.22917 0.09087 0.0
H192 H 0.02809 0.24658 0.03443 0.0
H193 H 1.01822 0.20611 0.96125 0.0
H194 H 0.08006 0.22711 0.80201 0.0
H195 H 0.09068 0.26672 0.87891 0.0
N196 N 0.06354 0.30224 0.04617 0.0
N197 N 0.09566 0.30153 0.14479 0.0
N198 N 0.09256 0.26541 0.06038 0.0
C199 C 0.07589 0.31475 0.10731 0.0
C200 C 0.10405 0.27695 0.12218 0.0
C201 C 0.0726 0.27752 0.02166 0.0
C202 C 0.06748 0.34146 0.14038 0.0
C203 C 0.04122 0.35148 0.13521 0.0
C204 C 0.03342 0.37438 0.1779 0.0
C205 C 0.05163 0.38792 0.22701 0.0
C206 C 0.07812 0.37853 0.22881 0.0
C207 C 0.08585 0.35588 0.18652 0.0
C208 C 0.1191 0.25965 0.17511 0.0
C209 C 0.11793 0.26508 0.25352 0.0
C210 C 0.11813 0.2439 0.30483 0.0
C211 C 0.11971 0.21737 0.27785 0.0
C212 C 0.12688 0.21271 0.20201 0.0
C213 C 0.12673 0.23383 0.15076 0.0
C214 C 0.05953 0.26062 0.96142 0.0
C215 C 0.0387 0.24319 0.98181 0.0
C216 C 0.32858 0.04345 0.917 0.0
C217 C 0.33202 0.05793 0.84934 0.0
C218 C 0.31077 0.0749 0.82683 0.0
C219 C 0.28853 0.07934 0.87404 0.0
H220 H 0.20583 0.03911 0.0833 0.0
H221 H 0.16714 0.02721 0.16114 0.0
H222 H 0.16972 0.10584 0.26659 0.0
H223 H 0.20684 0.11783 0.187 0.0
H224 H 0.27026 0.12236 0.26446 0.0
H225 H 0.30489 0.11948 0.36144 0.0
H226 H 0.36495 0.11472 0.18635 0.0
H227 H 0.33082 0.11944 0.0907 0.0
H228 H 0.3056 0.03793 1.01806 0.0
H229 H 0.34414 0.03039 0.93798 0.0
H230 H 0.31181 0.0859 0.77435 0.0
H231 H 0.27417 0.09463 0.85854 0.0
N232 N 0.24663 0.07361 0.03111 0.0
N233 N 0.25281 0.1024 0.13692 0.0
N234 N 0.28722 0.09682 0.05008 0.0
C235 C 0.23667 0.08569 0.09572 0.0
C236 C 0.27806 0.10802 0.1149 0.0
C237 C 0.27204 0.07993 1.00752 0.0
C238 C 0.20984 0.07933 0.12913 0.0
C239 C 0.19758 0.05404 0.12155 0.0
C240 C 0.17556 0.04712 0.16743 0.0
C241 C 0.16523 0.06528 0.22232 0.0
C242 C 0.17654 0.09112 0.22557 0.0
C243 C 0.19825 0.098 0.17979 0.0
C244 C 0.29769 0.11936 0.16979 0.0
C245 C 0.29097 0.12204 0.2468 0.0
C246 C 0.31087 0.12012 0.30254 0.0
C247 C 0.33755 0.11498 0.28177 0.0
C248 C 0.34462 0.11788 0.20514 0.0
C249 C 0.32483 0.12037 0.14965 0.0
C250 C 0.28633 0.06638 0.94414 0.0
C251 C 0.30609 0.04752 0.96318 0.0
C252 C 0.42608 0.32557 0.21452 0.0
C253 C 0.43017 0.31602 0.2887 0.0
C254 C 0.43105 0.28809 0.29939 0.0
C255 C 0.432 0.27058 0.23688 0.0
H256 H 0.43305 0.17997 0.06065 0.0
H257 H 0.44251 0.14101 0.13982 0.0
H258 H 0.52198 0.17151 0.1837 0.0
H259 H 0.51246 0.21029 0.10356 0.0
H260 H 0.50911 0.2661 0.89761 0.0
H261 H 0.5223 0.30244 0.81128 0.0
H262 H 0.44209 0.33382 0.81873 0.0
H263 H 0.42893 0.29786 0.90309 0.0
H264 H 0.42572 0.3166 0.09611 0.0
H265 H 0.42525 0.34681 0.20285 0.0
H266 H 0.43327 0.27986 0.3557 0.0
H267 H 0.4352 0.24943 0.24699 0.0
N268 N 0.44946 0.23868 0.10882 0.0
N269 N 0.46986 0.23759 0.98835 0.0
N270 N 0.4474 0.27622 0.03154 0.0
C271 C 0.46317 0.22507 0.05458 0.0
C272 C 0.46125 0.26331 0.97623 0.0
C273 C 0.44159 0.26429 0.09806 0.0
C274 C 0.47225 0.19782 0.07441 0.0
C275 C 0.453 0.17757 0.08394 0.0
C276 C 0.45834 0.1554 0.13002 0.0
C277 C 0.48287 0.15335 0.16905 0.0
C278 C 0.50279 0.17265 0.15506 0.0
C279 C 0.49755 0.19461 0.10804 0.0
C280 C 0.46799 0.27914 0.9076 0.0
C281 C 0.49408 0.28009 0.8781 0.0
C282 C 0.50166 0.30096 0.82901 0.0
C283 C 0.48326 0.32113 0.80899 0.0
C284 C 0.45673 0.31871 0.83346 0.0
C285 C 0.44921 0.29802 0.88175 0.0
C286 C 0.43175 0.28071 0.16263 0.0
C287 C 0.42669 0.30811 0.1524 0.0
Tb288 Tb 0.04931 0.02285 0.72096 0.0
C289 C 0.94825 0.99112 0.53137 0.0
C290 C 0.96546 0.96549 0.42525 0.0
C291 C 0.91873 0.96121 0.45966 0.0
C292 C 0.96928 0.98429 0.48496 0.0
C293 C 0.9226 0.97996 0.51867 0.0
C294 C 0.94015 0.95391 0.41319 0.0
C295 C 0.90594 1.00819 0.61972 0.0
N296 N 0.95264 1.00952 0.58714 0.0
C297 C 0.93163 1.01879 0.62969 0.0
C298 C 0.90142 0.98855 0.56425 0.0
Tb299 Tb 0.99431 0.02901 0.5922 0.0
N300 N 0.99334 0.9963 0.49762 0.0
C301 C 1.01431 0.99041 0.45023 0.0
C302 C 0.98704 0.95909 0.37869 0.0
C303 C 1.01156 0.97161 0.39134 0.0
H304 H 0.93484 0.03434 0.67203 0.0
H305 H 0.02846 0.96681 0.35561 0.0
H306 H 0.93687 0.93956 0.36747 0.0
H307 H 0.88961 1.01537 0.65441 0.0
H308 H 0.03385 0.99904 0.45791 0.0
H309 H 1.01892 0.08443 0.96191 0.0
H310 H 0.98496 0.94467 0.33261 0.0
H311 H 0.10788 1.01766 0.63349 0.0
H312 H 1.01272 0.05075 0.86318 0.0
H313 H 0.15225 0.03933 0.6396 0.0
H314 H 0.89919 0.95249 0.4489 0.0
H315 H 0.06128 0.10974 0.972 0.0
H316 H 0.10766 0.11756 0.92486 0.0
H317 H 0.88144 0.98054 0.55605 0.0
H318 H 0.14379 0.10558 0.83687 0.0
N319 N 0.05142 0.05594 0.81357 0.0
C320 C 0.03167 0.06084 0.86565 0.0
C321 C 0.05881 0.09466 0.92779 0.0
C322 C 0.07934 0.08907 0.8767 0.0
C323 C 0.03494 0.08038 0.9224 0.0
C324 C 0.07504 0.06935 0.81972 0.0
H325 H 0.16058 0.07652 0.73063 0.0
N326 N 0.0906 0.04333 0.71741 0.0
C327 C 0.13635 0.04633 0.67614 0.0
C328 C 0.09524 0.0629 0.76981 0.0
C329 C 0.11118 0.03416 0.67279 0.0
C330 C 0.14096 0.0673 0.72752 0.0
C331 C 0.12044 0.07559 0.77591 0.0
O332 O 0.08008 0.99591 0.74599 0.0
O333 O 0.02158 1.0013 0.64583 0.0
O334 O 0.97938 1.00531 0.688 0.0
O335 O 1.01124 1.0151 0.78139 0.0
O336 O 0.06079 0.99106 0.64083 0.0
O337 O 0.04794 1.00246 0.82514 0.0
O338 O 0.96452 0.05709 0.56785 0.0
O339 O 0.02166 0.05024 0.66888 0.0
O340 O 0.06341 0.04723 0.62545 0.0
O341 O 0.03218 0.03626 0.53186 0.0
O342 O 0.98236 0.06004 0.67485 0.0
O343 O 0.99723 0.05099 0.49096 0.0
C344 C 0.03751 0.98479 0.61526 0.0
C345 C 0.06969 0.95991 0.82372 0.0
C346 C 0.04767 0.91639 0.83246 0.0
C347 C 0.0464 0.94416 0.81872 0.0
C348 C 0.07264 0.90476 0.84981 0.0
C349 C 0.09428 0.94784 0.8407 0.0
C350 C 0.09573 0.92039 0.85337 0.0
C351 C 0.98713 1.00642 0.76027 0.0
C352 C 0.06957 0.98885 0.80984 0.0
C353 C 0.12461 0.09557 0.83144 0.0
C354 C 0.10408 0.10234 0.88164 0.0
C355 C 1.00561 0.06629 0.70072 0.0
C356 C 0.97909 0.09512 0.50253 0.0
C357 C 1.00023 0.10677 0.46238 0.0
C358 C 1.00196 0.13469 0.45616 0.0
C359 C 0.98255 0.15112 0.48973 0.0
C360 C 0.95964 0.11186 0.53575 0.0
C361 C 0.96147 0.13969 0.52954 0.0
C362 C 0.05597 0.04529 0.55336 0.0
C363 C 0.97648 0.06571 0.50776 0.0
H364 H 0.02748 0.95346 0.80437 0.0
H365 H 0.07432 0.88365 0.86281 0.0
H366 H 0.11243 0.95973 0.84412 0.0
H367 H 0.11476 0.91124 0.86699 0.0
H368 H 1.01507 0.09425 0.43489 0.0
H369 H 0.98359 0.17273 0.48436 0.0
H370 H 0.94289 0.10345 0.56613 0.0
H371 H 0.94639 0.15239 0.55502 0.0
Tb372 Tb 0.53123 0.05254 0.71704 0.0
C373 C 0.55236 0.95815 0.52031 0.0
C374 C 0.57442 0.97645 0.41036 0.0
C375 C 0.58135 0.92987 0.44238 0.0
C376 C 0.55683 0.9795 0.47264 0.0
C377 C 0.56473 0.93309 0.50556 0.0
C378 C 0.58623 0.95152 0.39495 0.0
C379 C 0.54267 0.9154 0.61486 0.0
N380 N 0.53626 0.96191 0.58143 0.0
C381 C 0.53059 0.94029 0.62671 0.0
C382 C 0.55989 0.91177 0.55418 0.0
Tb383 Tb 0.51272 1.002 0.58487 0.0
N384 N 0.54509 1.00346 0.4892 0.0
C385 C 0.55194 0.02542 0.44656 0.0
C386 C 0.5802 0.99863 0.36593 0.0
C387 C 0.56925 0.02329 0.38499 0.0
H388 H 0.51565 0.9411 0.67041 0.0
H389 H 0.57432 0.04089 0.35256 0.0
H390 H 0.59944 0.94885 0.34695 0.0
H391 H 0.538 0.89874 0.65141 0.0
H392 H 0.54558 0.04531 0.45989 0.0
H393 H 0.46865 1.01745 0.94596 0.0
H394 H 0.59365 0.99709 0.31811 0.0
H395 H 0.54061 0.11559 0.66026 0.0
H396 H 0.50618 1.01603 0.85874 0.0
H397 H 0.51749 0.15905 0.66808 0.0
H398 H 0.5907 0.91074 0.42999 0.0
H399 H 0.43894 0.057 0.94939 0.0
H400 H 0.42905 0.10345 0.90416 0.0
H401 H 0.56891 0.89229 0.54449 0.0
H402 H 0.44222 0.14214 0.8273 0.0
N403 N 0.49698 0.05288 0.80463 0.0
C404 C 0.49299 0.03278 0.85559 0.0
C405 C 0.45518 0.05614 0.90905 0.0
C406 C 0.46047 0.07762 0.8612 0.0
C407 C 0.47184 0.0338 0.90711 0.0
C408 C 0.48183 0.07539 0.80936 0.0
H409 H 0.47534 0.16318 0.73978 0.0
N410 N 0.5107 0.09423 0.72106 0.0
C411 C 0.5089 0.14164 0.6949 0.0
C412 C 0.48885 0.09681 0.7655 0.0
C413 C 0.52181 0.11684 0.69021 0.0
C414 C 0.48514 0.14387 0.73521 0.0
C415 C 0.47522 0.1215 0.77303 0.0
O416 O 0.55735 0.08263 0.75525 0.0
O417 O 0.54674 0.02151 0.64088 0.0
O418 O 0.51318 0.98555 0.70003 0.0
O419 O 0.54247 1.01336 0.76502 0.0
O420 O 0.56357 0.05908 0.63706 0.0
O421 O 0.55342 0.04666 0.81846 0.0
O422 O 0.48398 0.97151 0.59673 0.0
O423 O 0.49912 0.02619 0.6815 0.0
O424 O 0.519 0.07244 0.60892 0.0
O425 O 0.50596 0.03885 0.5223 0.0
O426 O 0.47531 0.02485 0.58811 0.0
O427 O 0.49409 0.98653 0.48645 0.0
C428 C 0.56575 0.03487 0.61203 0.0
C429 C 0.59549 0.06976 0.82185 0.0
C430 C 0.63896 0.04815 0.83801 0.0
C431 C 0.611 0.04632 0.8276 0.0
C432 C 0.65104 0.07368 0.84131 0.0
C433 C 0.6081 0.09493 0.82578 0.0
C434 C 0.6357 0.09683 0.83495 0.0
C435 C 0.53012 0.99004 0.75647 0.0
C436 C 0.5662 0.0692 0.81216 0.0
C437 C 0.45308 0.12345 0.82136 0.0
C438 C 0.44567 0.10148 0.86532 0.0
C439 C 0.47665 0.03401 0.65636 0.0
C440 C 0.4505 0.96896 0.50268 0.0
C441 C 0.43578 0.99212 0.48574 0.0
C442 C 0.40843 0.99044 0.46706 0.0
C443 C 0.3963 0.96492 0.46313 0.0
C444 C 0.43791 0.94386 0.4995 0.0
C445 C 0.41097 0.94187 0.47934 0.0
C446 C 0.50986 0.06437 0.5411 0.0
C447 C 0.47889 0.97027 0.52439 0.0
H448 H 0.60141 0.02684 0.82433 0.0
H449 H 0.67233 0.07588 0.8512 0.0
H450 H 0.59651 0.11322 0.82183 0.0
H451 H 0.64519 0.11634 0.83829 0.0
H452 H 0.44555 1.01141 0.48746 0.0
H453 H 0.37554 0.96261 0.44646 0.0
H454 H 0.44899 0.92578 0.51229 0.0
H455 H 0.40142 0.92239 0.47619 0.0
Tb456 Tb 0.5568 0.50993 0.58685 0.0
C457 C 0.4464 0.52402 0.7214 0.0
C458 C 0.42282 0.5462 0.61924 0.0
C459 C 0.39792 0.51979 0.70934 0.0
C460 C 0.44699 0.53996 0.65755 0.0
C461 C 0.42168 0.51438 0.74896 0.0
C462 C 0.3985 0.53562 0.64456 0.0
C463 C 0.44497 0.49706 0.8578 0.0
N464 N 0.46965 0.51927 0.75917 0.0
C465 C 0.46885 0.50713 0.82894 0.0
C466 C 0.42131 0.50035 0.81712 0.0
Tb467 Tb 0.50795 0.53701 0.70593 0.0
N468 N 0.47086 0.55022 0.63474 0.0
C469 C 0.47108 0.56813 0.5757 0.0
C470 C 0.42354 0.56345 0.55753 0.0
C471 C 0.44773 0.57464 0.53624 0.0
H472 H 0.48689 0.50435 0.86197 0.0
H473 H 0.44852 0.58815 0.48859 0.0
H474 H 0.37991 0.54012 0.61546 0.0
H475 H 0.44484 0.48686 0.91172 0.0
H476 H 0.48913 0.5766 0.5537 0.0
H477 H 0.60651 0.44549 0.79043 0.0
H478 H 0.40547 0.5686 0.52672 0.0
H479 H 0.58291 0.55203 0.46055 0.0
H480 H 0.56926 0.46049 0.71161 0.0
H481 H 0.62632 0.57393 0.43695 0.0
H482 H 0.37888 0.51238 0.72947 0.0
H483 H 0.65044 0.46806 0.78321 0.0
H484 H 0.67929 0.50304 0.72323 0.0
H485 H 0.40276 0.49271 0.83997 0.0
H486 H 0.68456 0.5384 0.62813 0.0
N487 N 0.59118 0.49197 0.65855 0.0
C488 C 0.58808 0.47072 0.70649 0.0
C489 C 0.63401 0.4749 0.74804 0.0
C490 C 0.63736 0.49612 0.69776 0.0
C491 C 0.60929 0.46207 0.75207 0.0
C492 C 0.61527 0.50436 0.65353 0.0
H493 H 0.665 0.56484 0.5209 0.0
N494 N 0.5964 0.53164 0.55959 0.0
C495 C 0.62422 0.56037 0.48411 0.0
C496 C 0.61801 0.52479 0.60199 0.0
C497 C 0.5997 0.54784 0.49759 0.0
C498 C 0.64597 0.55523 0.53168 0.0
C499 C 0.64323 0.53679 0.59039 0.0
O500 O 0.56452 0.50359 0.47138 0.0
O501 O 0.51376 0.51662 0.59782 0.0
O502 O 0.50292 0.494 0.72216 0.0
O503 O 0.53387 0.47579 0.6363 0.0
O504 O 0.53122 0.52676 0.49792 0.0
O505 O 0.56574 0.47076 0.54971 0.0
O506 O 0.50995 0.54346 0.82401 0.0
O507 O 0.54878 0.5234 0.70321 0.0
O508 O 0.56301 0.55414 0.59794 0.0
O509 O 0.52186 0.57052 0.63864 0.0
O510 O 0.54852 0.52369 0.70464 0.0
O511 O 0.51012 0.57665 0.74654 0.0
C512 C 0.50862 0.52468 0.53151 0.0
C513 C 0.55361 0.46151 0.42222 0.0
C514 C 0.51607 0.43423 0.38054 0.0
C515 C 0.52902 0.44913 0.43761 0.0
C516 C 0.5276 0.43189 0.3083 0.0
C517 C 0.56502 0.45897 0.35 0.0
C518 C 0.552 0.44422 0.29321 0.0
C519 C 0.51522 0.4733 0.68973 0.0
C520 C 0.56751 0.47794 0.47908 0.0
C521 C 0.66512 0.52922 0.63563 0.0
C522 C 0.66214 0.50901 0.68953 0.0
C523 C 0.56757 0.52601 0.75466 0.0
C524 C 0.49601 0.58595 0.87109 0.0
C525 C 0.50986 0.60812 0.89925 0.0
C526 C 0.49814 0.62577 0.95121 0.0
C527 C 0.47211 0.62052 0.97686 0.0
C528 C 0.46988 0.58083 0.89536 0.0
C529 C 0.45802 0.59813 0.9486 0.0
C530 C 0.54584 0.57409 0.6093 0.0
C531 C 0.51045 0.56926 0.81692 0.0
H532 H 0.52007 0.45099 0.49327 0.0
H533 H 0.51792 0.42008 0.26404 0.0
H534 H 0.58395 0.46852 0.33752 0.0
H535 H 0.5609 0.44223 0.23761 0.0
H536 H 0.53028 0.61147 0.88094 0.0
H537 H 0.46268 0.63375 1.01775 0.0
H538 H 0.45883 0.56369 0.87362 0.0
H539 H 0.4379 0.59421 0.96792 0.0
Tb540 Tb 0.03389 0.55556 0.60273 0.0
C541 C 0.03324 0.43842 0.72113 0.0
C542 C 1.01352 0.41167 0.62011 0.0
C543 C 0.04202 0.39048 0.714 0.0
C544 C 1.01744 0.43666 0.65707 0.0
C545 C 0.04539 0.41529 0.75127 0.0
C546 C 0.02616 0.38869 0.64836 0.0
C547 C 0.06157 0.44252 0.85592 0.0
N548 N 0.03577 0.46266 0.75586 0.0
C549 C 0.04904 0.46482 0.82402 0.0
C550 C 0.05992 0.41766 0.81908 0.0
Tb551 Tb 1.01241 0.49768 0.70396 0.0
N552 N 1.0051 0.45923 0.63268 0.0
C553 C 0.98746 0.45762 0.57295 0.0
C554 C 0.9965 0.41039 0.55701 0.0
C555 C 0.9833 0.43346 0.53366 0.0
H556 H 0.05041 0.48392 0.85322 0.0
H557 H 0.96982 0.43268 0.48537 0.0
H558 H 0.02337 0.36936 0.62076 0.0
H559 H 0.0724 0.4445 0.90904 0.0
H560 H 0.977 0.4749 0.55287 0.0
H561 H 0.09075 0.60313 0.83184 0.0
H562 H 0.99305 0.39164 0.52686 0.0
H563 H 0.99015 0.58103 0.47963 0.0
H564 H 0.07767 0.5662 0.74895 0.0
H565 H 0.96729 0.62417 0.45856 0.0
H566 H 0.0512 0.37249 0.73618 0.0
H567 H 0.06835 0.64703 0.82213 0.0
H568 H 0.03466 0.67599 0.7573 0.0
H569 H 0.06947 0.40037 0.84417 0.0
H570 H 1.00077 0.68159 0.65712 0.0
N571 N 0.04758 0.58819 0.68859 0.0
C572 C 0.06769 0.58502 0.74115 0.0
C573 C 0.06249 0.63079 0.78422 0.0
C574 C 0.04251 0.63431 0.72953 0.0
C575 C 0.07522 0.60608 0.78971 0.0
C576 C 0.03546 0.61244 0.68176 0.0
H577 H 0.97556 0.66246 0.54584 0.0
N578 N 1.01004 0.59418 0.58086 0.0
C579 C 0.98074 0.62195 0.50644 0.0
C580 C 1.01602 0.61548 0.6264 0.0
C581 C 0.9937 0.59756 0.5187 0.0
C582 C 0.98545 0.64349 0.5558 0.0
C583 C 1.0036 0.6406 0.61587 0.0
O584 O 0.04032 0.56688 0.49012 0.0
O585 O 0.03096 0.5123 0.60213 0.0
O586 O 0.05587 0.49314 0.696 0.0
O587 O 0.06954 0.53544 0.65489 0.0
O588 O 0.02266 0.53075 0.50274 0.0
O589 O 0.07211 0.56956 0.57386 0.0
O590 O 0.99861 0.49313 0.81598 0.0
O591 O 1.01522 0.54114 0.7039 0.0
O592 O 0.98975 0.55754 0.6111 0.0
O593 O 0.97985 0.5126 0.62942 0.0
O594 O 0.0245 0.52277 0.8024 0.0
O595 O 0.97188 0.48715 0.71782 0.0
C596 C 0.02514 0.50759 0.53332 0.0
C597 C 0.08407 0.56327 0.44494 0.0
C598 C 0.11673 0.53161 0.39632 0.0
C599 C 0.09848 0.53926 0.45267 0.0
C600 C 0.12003 0.54766 0.33199 0.0
C601 C 0.08742 0.579 0.38016 0.0
C602 C 0.10528 0.57116 0.3238 0.0
C603 C 0.07473 0.51141 0.68447 0.0
C604 C 0.06533 0.57266 0.50278 0.0
C605 C 1.0102 0.66222 0.6641 0.0
C606 C 0.02956 0.65905 0.72095 0.0
C607 C 0.02164 0.54586 0.77221 0.0
C608 C 0.9529 0.48097 0.84242 0.0
C609 C 0.93093 0.49821 0.84568 0.0
C610 C 0.91133 0.49482 0.90135 0.0
C611 C 0.91348 0.47324 0.95187 0.0
C612 C 0.95517 0.45983 0.89377 0.0
C613 C 0.93528 0.4558 0.94776 0.0
C614 C 0.97278 0.5371 0.60859 0.0
C615 C 0.97479 0.48716 0.79139 0.0
H616 H 0.09593 0.52695 0.50248 0.0
H617 H 0.13408 0.54197 0.28813 0.0
H618 H 0.07625 0.59744 0.37334 0.0
H619 H 0.10784 0.5834 0.274 0.0
H620 H 0.92962 0.51483 0.80658 0.0
H621 H 0.89878 0.47037 0.99596 0.0
H622 H 0.97243 0.44671 0.89262 0.0
H623 H 0.93709 0.43952 0.98763 0.0
H624 H 0.12615 0.0962 0.29281 0.0
H625 H 0.15731 1.01542 0.2848 0.0
H626 H 0.12654 1.00236 0.38429 0.0
H627 H 0.0916 1.01385 0.47834 0.0
H628 H 0.06228 0.09483 0.49205 0.0
H629 H 0.09177 0.10788 0.38765 0.0
C630 C 0.12655 0.07575 0.31289 0.0
C631 C 0.14446 0.05696 0.27992 0.0
C632 C 0.10917 0.0684 0.37242 0.0
C633 C 0.14372 0.03042 0.30682 0.0
C634 C 0.12624 0.02291 0.36488 0.0
C635 C 0.09188 0.03439 0.45862 0.0
C636 C 0.07495 0.05344 0.4931 0.0
C637 C 0.10907 0.04173 0.39876 0.0
C638 C 0.07524 0.0799 0.46667 0.0
C639 C 0.09208 0.08731 0.40683 0.0
H640 H 0.50116 0.16185 0.31267 0.0
H641 H 0.47193 0.09927 0.1633 0.0
H642 H 0.47668 0.06651 0.26547 0.0
H643 H 0.48962 0.0557 0.39732 0.0
H644 H 0.51961 0.11884 0.54381 0.0
H645 H 0.5135 0.15118 0.44389 0.0
C646 C 0.49611 0.14097 0.30214 0.0
C647 C 0.48655 0.133 0.22999 0.0
C648 C 0.49865 0.12234 0.36128 0.0
C649 C 0.47942 0.10597 0.21812 0.0
C650 C 0.48213 0.08723 0.27661 0.0
C651 C 0.49477 0.07654 0.4079 0.0
C652 C 0.50486 0.08459 0.47995 0.0
C653 C 0.49175 0.09519 0.34859 0.0
C654 C 0.51136 0.11179 0.49099 0.0
C655 C 0.50813 0.13042 0.43292 0.0
H656 H 0.40375 0.47905 0.36837 0.0
H657 H 0.43338 0.52845 0.18759 0.0
H658 H 0.4707 0.54304 0.26831 0.0
H659 H 0.49581 0.54113 0.38939 0.0
H660 H 0.46674 0.49153 0.56993 0.0
H661 H 0.42847 0.47784 0.49077 0.0
C662 C 0.41839 0.49295 0.34634 0.0
C663 C 0.41552 0.50256 0.27128 0.0
C664 C 0.43994 0.50137 0.39346 0.0
C665 C 0.43468 0.52087 0.24486 0.0
C666 C 0.45619 0.52915 0.29107 0.0
C667 C 0.48098 0.52745 0.41162 0.0
C668 C 0.48407 0.51766 0.48609 0.0
C669 C 0.4591 0.5195 0.36535 0.0
C670 C 0.46474 0.49976 0.51355 0.0
C671 C 0.44289 0.49179 0.46796 0.0
H672 H 0.06826 0.40098 0.3729 0.0
H673 H 1.01632 0.42869 0.19365 0.0
H674 H 1.00341 0.46717 0.27219 0.0
H675 H 1.00718 0.49378 0.39168 0.0
H676 H 0.06006 0.46669 0.56885 0.0
H677 H 0.07225 0.42763 0.49167 0.0
C678 C 0.05424 0.41546 0.35039 0.0
C679 C 0.04337 0.41153 0.27651 0.0
C680 C 0.04694 0.43784 0.39604 0.0
C681 C 0.02487 0.43062 0.25004 0.0
C682 C 1.01756 0.45287 0.295 0.0
C683 C 0.02131 0.47925 0.41353 0.0
C684 C 0.03217 0.48306 0.48718 0.0
C685 C 0.02846 0.45676 0.36809 0.0
C686 C 0.0508 0.46416 0.51366 0.0
C687 C 0.05793 0.44179 0.46906 0.0
H688 H 0.88609 0.98305 0.96588 0.0
H689 H 0.94059 1.00776 0.14367 0.0
H690 H 0.97662 1.01209 0.05054 0.0
H691 H 0.99189 1.01147 0.91655 0.0
H692 H 0.93777 0.98303 0.7418 0.0
H693 H 0.9026 0.97772 0.83518 0.0
C694 C 0.90586 0.98943 0.98434 0.0
C695 C 0.9104 0.99557 0.06175 0.0
C696 C 0.92658 0.99149 0.93058 0.0
C697 C 0.93639 1.00308 0.08464 0.0
C698 C 0.95701 1.00561 0.03121 0.0
C699 C 0.97246 1.00405 0.89862 0.0
C700 C 0.96731 0.99907 0.82058 0.0
C701 C 0.95226 1.00027 0.95366 0.0
C702 C 0.94214 0.98848 0.80003 0.0
C703 C 0.92197 0.98511 0.85388 0.0
H704 H 0.51587 0.90797 0.02563 0.0
H705 H 0.60053 0.92372 0.04985 0.0
H706 H 0.59841 0.95394 0.94178 0.0
H707 H 0.57333 0.97749 0.84386 0.0
H708 H 0.49 0.95855 0.81005 0.0
H709 H 0.49115 0.92844 0.91891 0.0
C710 C 0.53399 0.91799 1.0079 0.0
C711 C 0.55818 0.91373 0.04809 0.0
C712 C 0.53306 0.93519 0.94463 0.0
C713 C 0.58132 0.92712 0.02297 0.0
C714 C 0.58034 0.94439 0.96091 0.0
C715 C 0.55548 0.96663 0.86018 0.0
C716 C 0.53164 0.9703 0.81903 0.0
C717 C 0.55638 0.94884 0.92188 0.0
C718 C 0.5087 0.95593 0.84043 0.0
C719 C 0.5093 0.93881 0.90305 0.0
H720 H 0.61255 0.59518 1.01845 0.0
H721 H 0.62967 0.51516 0.09897 0.0
H722 H 0.59919 0.49672 1.00509 0.0
H723 H 0.57418 0.50171 0.88584 0.0
H724 H 0.56605 0.57978 0.78754 0.0
H725 H 0.58611 0.60033 0.9013 0.0
C726 C 0.61021 0.57363 1.0159 0.0
C727 C 0.62458 0.55695 0.06712 0.0
C728 C 0.5937 0.56263 0.95768 0.0
C729 C 0.61937 0.52912 0.06261 0.0
C730 C 0.60189 0.51828 1.00768 0.0
C731 C 0.57546 0.52339 0.8912 0.0
C732 C 0.56667 0.53927 0.8301 0.0
C733 C 0.58967 0.5347 0.95336 0.0
C734 C 0.57062 0.56716 0.83558 0.0
C735 C 0.58293 0.57882 0.89998 0.0
H736 H 0.97793 0.6513 0.93743 0.0
H737 H 0.0322 0.62436 0.1122 0.0
H738 H 0.04527 0.58647 0.03182 0.0
H739 H 0.04097 0.56006 0.91215 0.0
H740 H 0.9848 0.58544 0.74122 0.0
H741 H 0.97278 0.62438 0.81953 0.0
C742 C 0.99243 0.63709 0.95878 0.0
C743 C 1.00395 0.64116 0.0319 0.0
C744 C 0.99967 0.61488 0.91233 0.0
C745 C 0.02313 0.62241 0.05648 0.0
C746 C 0.03054 0.60046 1.01047 0.0
C747 C 0.02615 0.57419 0.89193 0.0
C748 C 1.01447 0.57013 0.81936 0.0
C749 C 0.01895 0.59642 0.93831 0.0
C750 C 0.99481 0.58836 0.79528 0.0
C751 C 0.98777 0.6106 0.84057 0.0
H752 H 0.0762 0.1926 0.22539 0.0
H753 H 0.12778 0.19788 0.42177 0.0
H754 H 0.09619 0.17029 0.49386 0.0
H755 H 0.05161 0.1487 0.50339 0.0
H756 H 0.99912 0.14754 0.3086 0.0
H757 H 0.03328 0.16983 0.23275 0.0
C758 C 0.08092 0.187 0.28331 0.0
C759 C 0.10446 0.19662 0.31806 0.0
C760 C 0.06224 0.17245 0.32468 0.0
C761 C 0.10994 0.1902 0.39387 0.0
C762 C 0.0918 0.17472 0.43502 0.0
C763 C 0.04798 0.15318 0.4441 0.0
C764 C 0.02322 0.14668 0.41082 0.0
C765 C 0.06755 0.16638 0.40153 0.0
C766 C 1.01824 0.15248 0.3345 0.0
C767 C 0.0377 0.16513 0.29143 0.0
H768 H 0.32331 0.07785 0.38581 0.0
H769 H 0.39278 0.11678 0.29202 0.0
H770 H 0.42135 0.08181 0.34447 0.0
H771 H 0.42526 0.03688 0.39911 0.0
H772 H 0.35587 1.00014 0.50052 0.0
H773 H 0.32852 0.03787 0.46158 0.0
C774 C 0.34477 0.07955 0.37903 0.0
C775 C 0.35567 0.0998 0.33329 0.0
C776 C 0.36103 0.05933 0.40871 0.0
C777 C 0.38365 0.10112 0.32522 0.0
C778 C 0.40003 0.08105 0.35503 0.0
C779 C 0.40434 0.03728 0.41478 0.0
C780 C 0.39262 1.01509 0.45098 0.0
C781 C 0.38873 0.05943 0.39392 0.0
C782 C 0.36535 1.01628 0.47002 0.0
C783 C 0.34969 0.03805 0.44865 0.0
H784 H 0.41508 0.3683 0.31377 0.0
H785 H 0.46768 0.30692 0.40025 0.0
H786 H 0.49591 0.34087 0.45863 0.0
H787 H 0.51311 0.38681 0.44931 0.0
H788 H 0.46524 0.44731 0.34156 0.0
H789 H 0.42823 0.41545 0.32637 0.0
C790 C 0.43248 0.36229 0.34643 0.0
C791 C 0.43977 0.33503 0.34901 0.0
C792 C 0.45008 0.38204 0.37426 0.0
C793 C 0.46153 0.32763 0.39557 0.0
C794 C 0.4781 0.34716 0.42825 0.0
C795 C 0.49409 0.39314 0.42549 0.0
C796 C 0.49163 0.41902 0.39609 0.0
C797 C 0.47374 0.37427 0.41254 0.0
C798 C 0.46726 0.42733 0.36452 0.0
C799 C 0.44628 0.40906 0.35531 0.0
H800 H 0.17678 0.42388 0.33999 0.0
H801 H 0.2441 0.47675 0.37941 0.0
H802 H 0.21439 0.51191 0.42265 0.0
H803 H 0.16923 0.53057 0.42519 0.0
H804 H 0.1013 0.47936 0.3825 0.0
H805 H 0.13106 0.44065 0.3652 0.0
C806 C 0.18494 0.44281 0.36035 0.0
C807 C 0.21265 0.44757 0.35579 0.0
C808 C 0.16756 0.46348 0.38319 0.0
C809 C 0.22296 0.4722 0.38299 0.0
C810 C 0.20591 0.49261 0.40677 0.0
C811 C 0.16104 0.51071 0.41429 0.0
C812 C 0.13341 0.50756 0.40434 0.0
C813 C 0.1782 0.48889 0.40351 0.0
C814 C 0.12267 0.48198 0.39021 0.0
C815 C 0.13967 0.45999 0.37993 0.0
H816 H 0.96792 0.82434 0.89708 0.0
H817 H 0.92375 0.88944 1.00034 0.0
H818 H 0.95439 0.9217 0.94421 0.0
H819 H 0.99867 0.93014 0.88869 0.0
H820 H 0.04123 0.86476 0.78166 0.0
H821 H 1.00567 0.83385 0.81584 0.0
C822 C 0.96403 0.84555 0.9051 0.0
C823 C 0.94394 0.85424 0.95539 0.0
C824 C 0.98182 0.86396 0.87337 0.0
C825 C 0.93959 0.88201 0.96423 0.0
C826 C 0.95714 0.90052 0.93216 0.0
C827 C 0.9998 0.90934 0.87048 0.0
C828 C 0.0231 0.89961 0.83512 0.0
C829 C 0.97921 0.89157 0.89028 0.0
C830 C 0.02401 0.87259 0.81152 0.0
C831 C 1.00361 0.8549 0.83068 0.0
H832 H 0.73049 0.96927 0.92389 0.0
H833 H 0.66638 0.93276 0.05097 0.0
H834 H 0.63547 0.96472 0.99922 0.0
H835 H 0.62628 1.00447 0.92239 0.0
H836 H 0.6892 0.03747 0.78487 0.0
H837 H 0.71999 1.00318 0.82999 0.0
C838 C 0.70957 0.96688 0.93763 0.0
C839 C 0.7015 0.94917 0.99534 0.0
C840 C 0.69107 0.98408 0.90289 0.0
C841 C 0.67394 0.94699 1.01047 0.0
C842 C 0.65574 0.96485 0.97878 0.0
C843 C 0.64648 1.00374 0.90042 0.0
C844 C 0.65557 0.02397 0.8518 0.0
C845 C 0.66413 0.98389 0.92627 0.0
C846 C 0.68187 0.02259 0.82402 0.0
C847 C 0.69948 1.00292 0.84954 0.0
H848 H 0.57733 0.70454 0.11754 0.0
H849 H 0.59991 0.72045 0.88648 0.0
H850 H 0.56432 0.6904 0.84034 0.0
H851 H 0.52739 0.6596 0.86655 0.0
H852 H 0.50578 0.64265 0.0978 0.0
H853 H 0.53985 0.67436 0.14367 0.0
C854 C 0.57484 0.70094 0.05707 0.0
C855 C 0.59162 0.714 1.00522 0.0
C856 C 0.55414 0.68423 0.0314 0.0
C857 C 0.58752 0.71013 0.92711 0.0
C858 C 0.56708 0.69323 0.90096 0.0
C859 C 0.53006 0.663 0.92705 0.0
C860 C 0.51432 0.64872 0.97892 0.0
C861 C 0.55027 0.6803 0.95268 0.0
C862 C 0.51752 0.65361 0.05696 0.0
C863 C 0.53724 0.67137 0.08306 0.0
H864 H 0.80981 0.56434 0.97057 0.0
H865 H 0.86782 0.62819 0.95839 0.0
H866 H 0.90195 0.59597 0.91692 0.0
H867 H 0.91611 0.54903 0.9001 0.0
H868 H 0.85828 0.48528 0.92248 0.0
H869 H 0.82304 0.51821 0.94527 0.0
C870 C 0.82968 0.57138 0.95617 0.0
C871 C 0.83628 0.59861 0.96608 0.0
C872 C 0.84925 0.55268 0.93627 0.0
C873 C 0.86231 0.60734 0.95001 0.0
C874 C 0.8818 0.58891 0.92717 0.0
C875 C 0.89567 0.5424 0.90844 0.0
C876 C 0.88971 0.5148 0.90969 0.0
C877 C 0.87566 0.56142 0.92256 0.0
C878 C 0.86331 0.50642 0.92202 0.0
C879 C 0.84319 0.52521 0.9346 0.0
H880 H 1.00305 0.18035 0.86433 0.0
H881 H 0.08573 0.18198 0.7949 0.0
H882 H 0.08013 0.13849 0.73251 0.0
H883 H 0.05158 0.09882 0.69727 0.0
H884 H 0.97079 0.09597 0.78075 0.0
H885 H 0.97599 0.14049 0.83699 0.0
C886 C 0.02014 0.17132 0.8367 0.0
C887 C 0.04477 0.18536 0.83487 0.0
C888 C 1.01713 0.14558 0.80269 0.0
C889 C 0.06619 0.17269 0.79652 0.0
C890 C 0.06311 0.1474 0.761 0.0
C891 C 0.03531 0.10774 0.72898 0.0
C892 C 1.01095 0.09347 0.73601 0.0
C893 C 0.03866 0.1335 0.76369 0.0
C894 C 0.98986 0.10607 0.77503 0.0
C895 C 0.99282 0.13166 0.80746 0.0
H896 H 0.36959 1.01687 0.83992 0.0
H897 H 0.35526 0.09769 0.76299 0.0
H898 H 0.39775 0.09733 0.69705 0.0
H899 H 0.43983 0.07436 0.6605 0.0
H900 H 0.4561 0.99568 0.74759 0.0
H901 H 0.4126 0.99524 0.81095 0.0
C902 C 0.37563 0.03465 0.80973 0.0
C903 C 0.35832 0.05712 0.80657 0.0
C904 C 0.40088 0.03483 0.77373 0.0
C905 C 0.36713 0.0796 0.76535 0.0
C906 C 0.39184 0.07962 0.72797 0.0
C907 C 0.43391 0.0573 0.69424 0.0
C908 C 0.45148 0.03536 0.70103 0.0
C909 C 0.40893 0.05738 0.73166 0.0
C910 C 0.44329 1.01311 0.74331 0.0
C911 C 0.4183 1.0128 0.77909 0.0
H912 H 0.47994 0.37032 0.87044 0.0
H913 H 0.50599 0.32939 0.66801 0.0
H914 H 0.51787 0.37273 0.61077 0.0
H915 H 0.52052 0.4231 0.61968 0.0
H916 H 0.49675 0.46137 0.82918 0.0
H917 H 0.48414 0.41875 0.88135 0.0
C918 C 0.48826 0.37087 0.81374 0.0
C919 C 0.49198 0.34674 0.77346 0.0
C920 C 0.49525 0.39563 0.78206 0.0
C921 C 0.50304 0.34772 0.70034 0.0
C922 C 0.50975 0.37253 0.66762 0.0
C923 C 0.51251 0.42206 0.67659 0.0
C924 C 0.50854 0.446 0.71899 0.0
C925 C 0.50592 0.39677 0.70802 0.0
C926 C 0.49865 0.44392 0.79323 0.0
C927 C 0.49184 0.41928 0.824 0.0
H928 H 0.1808 0.46448 0.83179 0.0
H929 H 0.20902 0.54483 0.79508 0.0
H930 H 0.16691 0.55595 0.72986 0.0
H931 H 0.12006 0.54378 0.69367 0.0
H932 H 0.09371 0.46218 0.72508 0.0
H933 H 0.1366 0.45078 0.78128 0.0
C934 C 0.17792 0.48426 0.80805 0.0
C935 C 0.1981 0.50378 0.81804 0.0
C936 C 0.15361 0.49048 0.77068 0.0
C937 C 0.19395 0.52939 0.78754 0.0
C938 C 0.16974 0.53578 0.75071 0.0
C939 C 0.12375 0.52343 0.712 0.0
C940 C 0.10289 0.50422 0.70739 0.0
C941 C 0.14909 0.51667 0.74343 0.0
C942 C 0.10863 0.47782 0.73029 0.0
C943 C 0.13342 0.47112 0.7621 0.0
H944 H 0.04139 0.86728 0.47388 0.0
H945 H 0.95591 0.87156 0.50562 0.0
H946 H 0.96086 0.91571 0.56468 0.0
H947 H 0.98977 0.95443 0.60694 0.0
H948 H 0.07392 0.95151 0.55515 0.0
H949 H 0.06902 0.9061 0.50602 0.0
C950 C 0.02359 0.87772 0.49236 0.0
C951 C 0.99829 0.86518 0.48457 0.0
C952 C 0.02633 0.90389 0.52361 0.0
C953 C 0.97589 0.87967 0.51167 0.0
C954 C 0.97862 0.90536 0.54515 0.0
C955 C 1.00688 0.94412 0.58319 0.0
C956 C 0.03214 0.95706 0.5834 0.0
C957 C 1.00377 0.91788 0.5512 0.0
C958 C 0.05416 0.94256 0.55515 0.0
C959 C 0.05141 0.91641 0.52674 0.0
H960 H 0.67419 0.97642 0.51865 0.0
H961 H 0.69961 0.05924 0.50287 0.0
H962 H 0.6552 0.07391 0.5369 0.0
H963 H 0.60839 0.06403 0.56702 0.0
H964 H 0.58571 0.98295 0.6168 0.0
H965 H 0.62939 0.96687 0.57284 0.0
C966 C 0.67053 0.99774 0.52362 0.0
C967 C 0.69084 1.01644 0.50406 0.0
C968 C 0.64489 1.00642 0.54777 0.0
C969 C 0.68472 0.04395 0.51258 0.0
C970 C 0.65912 0.05257 0.53325 0.0
C971 C 0.61287 0.04277 0.56799 0.0
C972 C 0.59275 0.02443 0.58911 0.0
C973 C 0.6389 0.03404 0.54945 0.0
C974 C 0.59974 0.99722 0.59424 0.0
C975 C 0.6251 0.98815 0.57098 0.0
H976 H 0.5994 0.68629 0.54055 0.0
H977 H 0.51775 0.70529 0.47822 0.0
H978 H 0.50348 0.66156 0.52119 0.0
H979 H 0.51416 0.61627 0.56717 0.0
H980 H 0.59635 0.59512 0.61137 0.0
H981 H 0.61034 0.6408 0.58127 0.0
C982 C 0.5785 0.68107 0.53434 0.0
C983 C 0.55999 0.69986 0.50458 0.0
C984 C 0.57043 0.65499 0.55486 0.0
C985 C 0.53281 0.69215 0.50151 0.0
C986 C 0.52451 0.66671 0.52525 0.0
C987 C 0.53515 0.62156 0.57009 0.0
C988 C 0.55418 0.60202 0.59083 0.0
C989 C 0.54318 0.64776 0.55059 0.0
C990 C 0.58128 0.6095 0.59447 0.0
C991 C 0.58928 0.63573 0.57769 0.0
H992 H 0.8597 0.53493 0.44162 0.0
H993 H 0.8482 0.60654 0.57767 0.0
H994 H 0.89323 0.60228 0.62886 0.0
H995 H 0.93696 0.57832 0.6357 0.0
H996 H 0.9462 0.50465 0.50883 0.0
H997 H 0.90139 0.50941 0.45573 0.0
C998 C 0.86656 0.54945 0.48353 0.0
C999 C 0.84995 0.57135 0.50376 0.0
C1000 C 0.89255 0.54652 0.51512 0.0
C1001 C 0.86019 0.58985 0.55806 0.0
C1002 C 0.88615 0.58735 0.58834 0.0
C1003 C 0.92912 0.56333 0.59643 0.0
C1004 C 0.94515 0.54102 0.57677 0.0
C1005 C 0.90272 0.5659 0.56689 0.0
C1006 C 0.93443 0.52177 0.52615 0.0
C1007 C 0.90869 0.52457 0.49524 0.0
loop_
_geom_bond_atom_site_label_1
_geom_bond_atom_site_label_2
_geom_bond_distance
_geom_bond_site_symmetry_2
_ccdc_geom_bond_type
C0 C1 1.384 . S
C0 H13 0.947 . S
C0 C35 1.382 . S
C1 C0 1.384 . S
C1 C2 1.378 . S
C2 C1 1.378 . S
C2 C3 1.378 . S
C2 H14 0.952 . S
C3 C2 1.378 . S
C3 H15 0.950 . S
C3 C34 1.383 . S
H4 C23 0.947 . S
H5 C24 0.946 . S
H6 C26 0.953 . S
H7 C27 0.945 . S
H8 C29 0.952 . S
H9 C30 0.949 1_556 S
H10 C32 0.950 . S
H11 C33 0.948 . S
H12 C35 0.951 . S
H13 C0 0.947 . S
H14 C2 0.952 . S
H15 C3 0.950 . S
N16 C19 1.382 . S
N16 C21 1.363 . S
N17 C19 1.371 . S
N17 C20 1.372 . S
N18 C20 1.361 . S
N18 C21 1.377 . S
C19 N16 1.382 . S
C19 N17 1.371 . S
C19 C22 1.480 . S
C20 N17 1.372 . S
C20 N18 1.361 . S
C20 C28 1.457 . S
C21 N16 1.363 . S
C21 N18 1.377 . S
C21 C34 1.479 . S
C22 C19 1.480 . S
C22 C23 1.383 . S
C22 C27 1.385 . S
C23 H4 0.947 . S
C23 C22 1.383 . S
C23 C24 1.388 . S
C24 H5 0.946 . S
C24 C23 1.388 . S
C24 C25 1.384 . S
C25 C24 1.384 . S
C25 C26 1.377 . S
C26 H6 0.953 . S
C26 C25 1.377 . S
C26 C27 1.369 . S
C27 H7 0.945 . S
C27 C22 1.385 . S
C27 C26 1.369 . S
C28 C20 1.457 . S
C28 C29 1.372 . S
C28 C33 1.364 . S
C29 H8 0.952 . S
C29 C28 1.372 . S
C29 C30 1.389 . S
C30 H9 0.949 1_554 S
C30 C29 1.389 . S
C30 C31 1.387 . S
C31 C30 1.387 . S
C31 C32 1.372 . S
C32 H10 0.950 . S
C32 C31 1.372 . S
C32 C33 1.379 . S
C33 H11 0.948 . S
C33 C28 1.364 . S
C33 C32 1.379 . S
C34 C3 1.383 . S
C34 C21 1.479 . S
C34 C35 1.398 . S
C35 C0 1.382 . S
C35 H12 0.951 . S
C35 C34 1.398 . S
C36 C37 1.384 . S
C36 H49 0.947 . S
C36 C71 1.382 . S
C37 C36 1.384 . S
C37 C38 1.378 . S
C38 C37 1.378 . S
C38 C39 1.378 . S
C38 H50 0.952 . S
C39 C38 1.378 . S
C39 H51 0.950 . S
C39 C70 1.383 . S
H40 C59 0.947 . S
H41 C60 0.946 . S
H42 C62 0.953 . S
H43 C63 0.945 . S
H44 C65 0.952 . S
H45 C66 0.949 1_556 S
H46 C68 0.950 . S
H47 C69 0.948 . S
H48 C71 0.951 . S
H49 C36 0.947 . S
H50 C38 0.952 . S
H51 C39 0.950 . S
N52 C55 1.382 . S
N52 C57 1.363 . S
N53 C55 1.371 . S
N53 C56 1.372 . S
N54 C56 1.361 . S
N54 C57 1.377 . S
C55 N52 1.382 . S
C55 N53 1.371 . S
C55 C58 1.480 . S
C56 N53 1.372 . S
C56 N54 1.361 . S
C56 C64 1.457 . S
C57 N52 1.363 . S
C57 N54 1.377 . S
C57 C70 1.479 . S
C58 C55 1.480 . S
C58 C59 1.383 . S
C58 C63 1.385 . S
C59 H40 0.947 . S
C59 C58 1.383 . S
C59 C60 1.388 . S
C60 H41 0.946 . S
C60 C59 1.388 . S
C60 C61 1.384 . S
C61 C60 1.384 . S
C61 C62 1.377 . S
C62 H42 0.953 . S
C62 C61 1.377 . S
C62 C63 1.369 . S
C63 H43 0.945 . S
C63 C58 1.385 . S
C63 C62 1.369 . S
C64 C56 1.457 . S
C64 C65 1.372 . S
C64 C69 1.364 . S
C65 H44 0.952 . S
C65 C64 1.372 . S
C65 C66 1.389 . S
C66 H45 0.949 1_554 S
C66 C65 1.389 . S
C66 C67 1.387 . S
C67 C66 1.387 . S
C67 C68 1.372 . S
C68 H46 0.950 . S
C68 C67 1.372 . S
C68 C69 1.379 . S
C69 H47 0.948 . S
C69 C64 1.364 . S
C69 C68 1.379 . S
C70 C39 1.383 . S
C70 C57 1.479 . S
C70 C71 1.398 . S
C71 C36 1.382 . S
C71 H48 0.951 . S
C71 C70 1.398 . S
C72 C73 1.384 . S
C72 H85 0.947 . S
C72 C107 1.382 . S
C73 C72 1.384 . S
C73 C74 1.378 . S
C74 C73 1.378 . S
C74 C75 1.378 . S
C74 H86 0.952 . S
C75 C74 1.378 . S
C75 H87 0.950 . S
C75 C106 1.383 . S
H76 C95 0.947 . S
H77 C96 0.946 . S
H78 C98 0.953 . S
H79 C99 0.945 . S
H80 C101 0.952 . S
H81 C102 0.949 1_556 S
H82 C104 0.950 . S
H83 C105 0.948 . S
H84 C107 0.951 . S
H85 C72 0.947 . S
H86 C74 0.952 . S
H87 C75 0.950 . S
N88 C91 1.382 . S
N88 C93 1.363 . S
N89 C91 1.371 . S
N89 C92 1.372 . S
N90 C92 1.361 . S
N90 C93 1.377 . S
C91 N88 1.382 . S
C91 N89 1.371 . S
C91 C94 1.480 . S
C92 N89 1.372 . S
C92 N90 1.361 . S
C92 C100 1.457 . S
C93 N88 1.363 . S
C93 N90 1.377 . S
C93 C106 1.479 . S
C94 C91 1.480 . S
C94 C95 1.383 . S
C94 C99 1.385 . S
C95 H76 0.947 . S
C95 C94 1.383 . S
C95 C96 1.388 . S
C96 H77 0.946 . S
C96 C95 1.388 . S
C96 C97 1.384 . S
C97 C96 1.384 . S
C97 C98 1.377 . S
C98 H78 0.953 . S
C98 C97 1.377 . S
C98 C99 1.369 . S
C99 H79 0.945 . S
C99 C94 1.385 . S
C99 C98 1.369 . S
C100 C92 1.457 . S
C100 C101 1.372 . S
C100 C105 1.364 . S
C101 H80 0.952 . S
C101 C100 1.372 . S
C101 C102 1.389 . S
C102 H81 0.949 1_554 S
C102 C101 1.389 . S
C102 C103 1.387 . S
C103 C102 1.387 . S
C103 C104 1.372 . S
C104 H82 0.950 . S
C104 C103 1.372 . S
C104 C105 1.379 . S
C105 H83 0.948 . S
C105 C100 1.364 . S
C105 C104 1.379 . S
C106 C75 1.383 . S
C106 C93 1.479 . S
C106 C107 1.398 . S
C107 C72 1.382 . S
C107 H84 0.951 . S
C107 C106 1.398 . S
C108 C109 1.384 . S
C108 H121 0.947 . S
C108 C143 1.382 . S
C109 C108 1.384 . S
C109 C110 1.378 . S
C110 C109 1.378 . S
C110 C111 1.378 . S
C110 H122 0.952 1_554 S
C111 C110 1.378 . S
C111 H123 0.950 . S
C111 C142 1.383 . S
H112 C131 0.947 . S
H113 C132 0.946 . S
H114 C134 0.953 . S
H115 C135 0.945 . S
H116 C137 0.952 . S
H117 C138 0.949 . S
H118 C140 0.950 . S
H119 C141 0.948 . S
H120 C143 0.951 . S
H121 C108 0.947 . S
H122 C110 0.952 1_556 S
H123 C111 0.950 . S
N124 C127 1.382 . S
N124 C129 1.363 . S
N125 C127 1.371 . S
N125 C128 1.372 . S
N126 C128 1.361 . S
N126 C129 1.377 . S
C127 N124 1.382 . S
C127 N125 1.371 . S
C127 C130 1.480 . S
C128 N125 1.372 . S
C128 N126 1.361 . S
C128 C136 1.457 . S
C129 N124 1.363 . S
C129 N126 1.377 . S
C129 C142 1.479 . S
C130 C127 1.480 . S
C130 C131 1.383 . S
C130 C135 1.385 . S
C131 H112 0.947 . S
C131 C130 1.383 . S
C131 C132 1.388 . S
C132 H113 0.946 . S
C132 C131 1.388 . S
C132 C133 1.384 . S
C133 C132 1.384 . S
C133 C134 1.377 . S
C134 H114 0.953 . S
C134 C133 1.377 . S
C134 C135 1.369 . S
C135 H115 0.945 . S
C135 C130 1.385 . S
C135 C134 1.369 . S
C136 C128 1.457 . S
C136 C137 1.372 . S
C136 C141 1.364 . S
C137 H116 0.952 . S
C137 C136 1.372 . S
C137 C138 1.389 . S
C138 H117 0.949 . S
C138 C137 1.389 . S
C138 C139 1.387 . S
C139 C138 1.387 . S
C139 C140 1.372 . S
C140 H118 0.950 . S
C140 C139 1.372 . S
C140 C141 1.379 . S
C141 H119 0.948 . S
C141 C136 1.364 . S
C141 C140 1.379 . S
C142 C111 1.383 . S
C142 C129 1.479 . S
C142 C143 1.398 . S
C143 C108 1.382 . S
C143 H120 0.951 . S
C143 C142 1.398 . S
C144 C145 1.384 . S
C144 H157 0.947 . S
C144 C179 1.382 . S
C145 C144 1.384 . S
C145 C146 1.378 . S
C146 C145 1.378 . S
C146 C147 1.378 . S
C146 H158 0.952 . S
C147 C146 1.378 . S
C147 H159 0.950 . S
C147 C178 1.383 . S
H148 C167 0.947 1_556 S
H149 C168 0.946 1_556 S
H150 C170 0.953 . S
H151 C171 0.945 . S
H152 C173 0.952 . S
H153 C174 0.949 . S
H154 C176 0.950 . S
H155 C177 0.948 . S
H156 C179 0.951 . S
H157 C144 0.947 . S
H158 C146 0.952 . S
H159 C147 0.950 . S
N160 C163 1.382 1_556 S
N160 C165 1.363 . S
N161 C163 1.371 . S
N161 C164 1.372 . S
N162 C164 1.361 . S
N162 C165 1.377 1_554 S
C163 N160 1.382 1_554 S
C163 N161 1.371 . S
C163 C166 1.480 . S
C164 N161 1.372 . S
C164 N162 1.361 . S
C164 C172 1.457 . S
C165 N160 1.363 . S
C165 N162 1.377 1_556 S
C165 C178 1.479 . S
C166 C163 1.480 . S
C166 C167 1.383 . S
C166 C171 1.385 . S
C167 H148 0.947 1_554 S
C167 C166 1.383 . S
C167 C168 1.388 . S
C168 H149 0.946 1_554 S
C168 C167 1.388 . S
C168 C169 1.384 . S
C169 C168 1.384 . S
C169 C170 1.377 . S
C170 H150 0.953 . S
C170 C169 1.377 . S
C170 C171 1.369 . S
C171 H151 0.945 . S
C171 C166 1.385 . S
C171 C170 1.369 . S
C172 C164 1.457 . S
C172 C173 1.372 . S
C172 C177 1.364 . S
C173 H152 0.952 . S
C173 C172 1.372 . S
C173 C174 1.389 . S
C174 H153 0.949 . S
C174 C173 1.389 . S
C174 C175 1.387 . S
C175 C174 1.387 . S
C175 C176 1.372 . S
C176 H154 0.950 . S
C176 C175 1.372 . S
C176 C177 1.379 . S
C177 H155 0.948 . S
C177 C172 1.364 . S
C177 C176 1.379 . S
C178 C147 1.383 . S
C178 C165 1.479 . S
C178 C179 1.398 . S
C179 C144 1.382 . S
C179 H156 0.951 . S
C179 C178 1.398 . S
C180 C181 1.384 . S
C180 H193 0.947 . S
C180 C215 1.382 . S
C181 C180 1.384 . S
C181 C182 1.378 . S
C182 C181 1.378 . S
C182 C183 1.378 . S
C182 H194 0.952 . S
C183 C182 1.378 . S
C183 H195 0.950 . S
C183 C214 1.383 . S
H184 C203 0.947 1_556 S
H185 C204 0.946 1_556 S
H186 C206 0.953 . S
H187 C207 0.945 . S
H188 C209 0.952 . S
H189 C210 0.949 . S
H190 C212 0.950 . S
H191 C213 0.948 . S
H192 C215 0.951 . S
H193 C180 0.947 . S
H194 C182 0.952 . S
H195 C183 0.950 . S
N196 C199 1.382 1_556 S
N196 C201 1.363 . S
N197 C199 1.371 . S
N197 C200 1.372 . S
N198 C200 1.361 . S
N198 C201 1.377 1_554 S
C199 N196 1.382 1_554 S
C199 N197 1.371 . S
C199 C202 1.480 . S
C200 N197 1.372 . S
C200 N198 1.361 . S
C200 C208 1.457 . S
C201 N196 1.363 . S
C201 N198 1.377 1_556 S
C201 C214 1.479 . S
C202 C199 1.480 . S
C202 C203 1.383 . S
C202 C207 1.385 . S
C203 H184 0.947 1_554 S
C203 C202 1.383 . S
C203 C204 1.388 . S
C204 H185 0.946 1_554 S
C204 C203 1.388 . S
C204 C205 1.384 . S
C205 C204 1.384 . S
C205 C206 1.377 . S
C206 H186 0.953 . S
C206 C205 1.377 . S
C206 C207 1.369 . S
C207 H187 0.945 . S
C207 C202 1.385 . S
C207 C206 1.369 . S
C208 C200 1.457 . S
C208 C209 1.372 . S
C208 C213 1.364 . S
C209 H188 0.952 . S
C209 C208 1.372 . S
C209 C210 1.389 . S
C210 H189 0.949 . S
C210 C209 1.389 . S
C210 C211 1.387 . S
C211 C210 1.387 . S
C211 C212 1.372 . S
C212 H190 0.950 . S
C212 C211 1.372 . S
C212 C213 1.379 . S
C213 H191 0.948 . S
C213 C208 1.364 . S
C213 C212 1.379 . S
C214 C183 1.383 . S
C214 C201 1.479 . S
C214 C215 1.398 . S
C215 C180 1.382 . S
C215 H192 0.951 . S
C215 C214 1.398 . S
C216 C217 1.384 . S
C216 H229 0.947 . S
C216 C251 1.382 . S
C217 C216 1.384 . S
C217 C218 1.378 . S
C218 C217 1.378 . S
C218 C219 1.378 . S
C218 H230 0.952 . S
C219 C218 1.378 . S
C219 H231 0.950 . S
C219 C250 1.383 . S
H220 C239 0.947 1_556 S
H221 C240 0.946 1_556 S
H222 C242 0.953 . S
H223 C243 0.945 . S
H224 C245 0.952 . S
H225 C246 0.949 . S
H226 C248 0.950 . S
H227 C249 0.948 . S
H228 C251 0.951 . S
H229 C216 0.947 . S
H230 C218 0.952 . S
H231 C219 0.950 . S
N232 C235 1.382 1_556 S
N232 C237 1.363 . S
N233 C235 1.371 . S
N233 C236 1.372 . S
N234 C236 1.361 . S
N234 C237 1.377 1_554 S
C235 N232 1.382 1_554 S
C235 N233 1.371 . S
C235 C238 1.480 . S
C236 N233 1.372 . S
C236 N234 1.361 . S
C236 C244 1.457 . S
C237 N232 1.363 . S
C237 N234 1.377 1_556 S
C237 C250 1.479 . S
C238 C235 1.480 . S
C238 C239 1.383 . S
C238 C243 1.385 . S
C239 H220 0.947 1_554 S
C239 C238 1.383 . S
C239 C240 1.388 . S
C240 H221 0.946 1_554 S
C240 C239 1.388 . S
C240 C241 1.384 . S
C241 C240 1.384 . S
C241 C242 1.377 . S
C242 H222 0.953 . S
C242 C241 1.377 . S
C242 C243 1.369 . S
C243 H223 0.945 . S
C243 C238 1.385 . S
C243 C242 1.369 . S
C244 C236 1.457 . S
C244 C245 1.372 . S
C244 C249 1.364 . S
C245 H224 0.952 . S
C245 C244 1.372 . S
C245 C246 1.389 . S
C246 H225 0.949 . S
C246 C245 1.389 . S
C246 C247 1.387 . S
C247 C246 1.387 . S
C247 C248 1.372 . S
C248 H226 0.950 . S
C248 C247 1.372 . S
C248 C249 1.379 . S
C249 H227 0.948 . S
C249 C244 1.364 . S
C249 C248 1.379 . S
C250 C219 1.383 . S
C250 C237 1.479 . S
C250 C251 1.398 . S
C251 C216 1.382 . S
C251 H228 0.951 . S
C251 C250 1.398 . S
C252 C253 1.384 . S
C252 H265 0.947 . S
C252 C287 1.382 . S
C253 C252 1.384 . S
C253 C254 1.378 . S
C254 C253 1.378 . S
C254 C255 1.378 . S
C254 H266 0.952 . S
C255 C254 1.378 . S
C255 H267 0.950 . S
C255 C286 1.383 . S
H256 C275 0.947 . S
H257 C276 0.946 . S
H258 C278 0.953 1_556 S
H259 C279 0.945 1_556 S
H260 C281 0.952 . S
H261 C282 0.949 . S
H262 C284 0.950 . S
H263 C285 0.948 . S
H264 C287 0.951 . S
H265 C252 0.947 . S
H266 C254 0.952 . S
H267 C255 0.950 . S
N268 C271 1.382 . S
N268 C273 1.363 . S
N269 C271 1.371 1_556 S
N269 C272 1.372 . S
N270 C272 1.361 1_554 S
N270 C273 1.377 . S
C271 N268 1.382 . S
C271 N269 1.371 1_554 S
C271 C274 1.480 . S
C272 N269 1.372 . S
C272 N270 1.361 1_556 S
C272 C280 1.457 . S
C273 N268 1.363 . S
C273 N270 1.377 . S
C273 C286 1.479 . S
C274 C271 1.480 . S
C274 C275 1.383 . S
C274 C279 1.385 . S
C275 H256 0.947 . S
C275 C274 1.383 . S
C275 C276 1.388 . S
C276 H257 0.946 . S
C276 C275 1.388 . S
C276 C277 1.384 . S
C277 C276 1.384 . S
C277 C278 1.377 . S
C278 H258 0.953 1_554 S
C278 C277 1.377 . S
C278 C279 1.369 . S
C279 H259 0.945 1_554 S
C279 C274 1.385 . S
C279 C278 1.369 . S
C280 C272 1.457 . S
C280 C281 1.372 . S
C280 C285 1.364 . S
C281 H260 0.952 . S
C281 C280 1.372 . S
C281 C282 1.389 . S
C282 H261 0.949 . S
C282 C281 1.389 . S
C282 C283 1.387 . S
C283 C282 1.387 . S
C283 C284 1.372 . S
C284 H262 0.950 . S
C284 C283 1.372 . S
C284 C285 1.379 . S
C285 H263 0.948 . S
C285 C280 1.364 . S
C285 C284 1.379 . S
C286 C255 1.383 . S
C286 C273 1.479 . S
C286 C287 1.398 . S
C287 C252 1.382 . S
C287 H264 0.951 . S
C287 C286 1.398 . S
Tb288 N319 2.660 1_565 S
Tb288 N326 2.600 . S
Tb288 O332 2.546 . S
Tb288 O333 2.610 1_455 S
Tb288 O335 2.320 1_455 S
Tb288 O336 2.552 . S
Tb288 O337 2.413 . S
Tb288 O339 2.362 1_565 S
Tb288 O340 2.421 . S
Tb288 C352 2.833 . S
C289 C292 1.432 1_545 S
C289 C293 1.412 1_545 S
C289 N296 1.359 . S
C290 C292 1.417 . S
C290 C294 1.432 . S
C290 C302 1.410 . S
C291 C293 1.451 . S
C291 C294 1.317 . S
C291 H314 0.929 . S
C292 C289 1.432 1_565 S
C292 C290 1.417 . S
C292 N300 1.360 . S
C293 C289 1.412 1_565 S
C293 C291 1.451 . S
C293 C298 1.379 1_565 S
C294 C290 1.432 . S
C294 C291 1.317 . S
C294 H306 0.930 . S
C295 C297 1.392 . S
C295 C298 1.370 . S
C295 H307 0.931 . S
N296 C289 1.359 . S
N296 C297 1.327 . S
N296 Tb299 2.600 . S
C297 C295 1.392 . S
C297 N296 1.327 . S
C297 H304 0.930 . S
C298 C293 1.379 1_545 S
C298 C295 1.370 . S
C298 H317 0.930 . S
Tb299 N296 2.600 . S
Tb299 N300 2.660 1_545 S
Tb299 O333 2.362 1_545 S
Tb299 O334 2.421 . S
Tb299 O338 2.546 . S
Tb299 O339 2.610 1_655 S
Tb299 O341 2.320 1_655 S
Tb299 O342 2.552 1_655 S
Tb299 O343 2.413 . S
Tb299 C363 2.833 . S
N300 C292 1.360 . S
N300 Tb299 2.660 1_565 S
N300 C301 1.328 . S
C301 N300 1.328 . S
C301 C303 1.409 . S
C301 H308 0.904 1_655 S
C302 C290 1.410 . S
C302 C303 1.345 . S
C302 H310 0.930 . S
C303 C301 1.409 . S
C303 C302 1.345 . S
C303 H305 0.930 1_655 S
H304 C297 0.930 . S
H305 C303 0.930 1_455 S
H306 C294 0.930 . S
H307 C295 0.931 . S
H308 C301 0.904 1_455 S
H309 C323 0.930 1_655 S
H310 C302 0.930 . S
H311 C329 0.930 . S
H312 C320 0.930 1_655 S
H313 C327 0.931 . S
H314 C291 0.929 . S
H315 C321 0.930 . S
H316 C354 0.930 . S
H317 C298 0.930 . S
H318 C353 0.929 . S
N319 Tb288 2.660 1_545 S
N319 C320 1.305 . S
N319 C324 1.360 . S
C320 H312 0.930 1_455 S
C320 N319 1.305 . S
C320 C323 1.407 . S
C321 H315 0.930 . S
C321 C322 1.410 . S
C321 C323 1.345 . S
C322 C321 1.410 . S
C322 C324 1.417 . S
C322 C354 1.432 . S
C323 H309 0.930 1_455 S
C323 C320 1.407 . S
C323 C321 1.345 . S
C324 N319 1.360 . S
C324 C322 1.417 . S
C324 C328 1.432 . S
H325 C330 0.933 . S
N326 Tb288 2.600 . S
N326 C328 1.359 1_565 S
N326 C329 1.327 . S
C327 H313 0.931 . S
C327 C329 1.392 . S
C327 C330 1.352 1_565 S
C328 C324 1.432 . S
C328 N326 1.359 1_545 S
C328 C331 1.414 . S
C329 H311 0.930 . S
C329 N326 1.327 . S
C329 C327 1.392 . S
C330 H325 0.933 . S
C330 C327 1.352 1_545 S
C330 C331 1.400 . S
C331 C328 1.414 . S
C331 C330 1.400 . S
C331 C353 1.444 . S
O332 Tb288 2.546 . S
O332 C352 1.251 . S
O333 Tb288 2.610 1_655 S
O333 Tb299 2.362 1_565 S
O333 C344 1.283 . S
O334 Tb299 2.421 . S
O334 C351 1.262 . S
O335 Tb288 2.320 1_655 S
O335 C351 1.260 1_565 S
O336 Tb288 2.552 . S
O336 C344 1.243 1_455 S
O337 Tb288 2.413 . S
O337 C352 1.256 . S
O338 Tb299 2.546 . S
O338 C363 1.251 . S
O339 Tb288 2.362 1_545 S
O339 Tb299 2.610 1_455 S
O339 C355 1.283 . S
O340 Tb288 2.421 . S
O340 C362 1.262 1_565 S
O341 Tb299 2.320 1_455 S
O341 C362 1.260 . S
O342 Tb299 2.552 1_455 S
O342 C355 1.243 . S
O343 Tb299 2.413 . S
O343 C363 1.256 . S
C344 O333 1.283 . S
C344 O336 1.243 1_655 S
C345 C347 1.382 . S
C345 C349 1.393 . S
C345 C352 1.500 . S
C346 C347 1.400 . S
C346 C348 1.384 . S
C347 C345 1.382 . S
C347 C346 1.400 . S
C347 H364 0.930 . S
C348 C346 1.384 . S
C348 C350 1.392 . S
C348 H365 0.931 . S
C349 C345 1.393 . S
C349 C350 1.401 . S
C349 H366 0.930 . S
C350 C348 1.392 . S
C350 C349 1.401 . S
C350 H367 0.930 . S
C351 O334 1.262 . S
C351 O335 1.260 1_545 S
C352 Tb288 2.833 . S
C352 O332 1.251 . S
C352 O337 1.256 . S
C352 C345 1.500 . S
C353 H318 0.929 . S
C353 C331 1.444 . S
C353 C354 1.317 . S
C354 H316 0.930 . S
C354 C322 1.432 . S
C354 C353 1.317 . S
C355 O339 1.283 . S
C355 O342 1.243 . S
C356 C357 1.382 . S
C356 C360 1.393 . S
C356 C363 1.500 . S
C357 C356 1.382 . S
C357 C358 1.400 . S
C357 H368 0.930 1_655 S
C358 C357 1.400 . S
C358 C359 1.384 . S
C359 C358 1.384 . S
C359 C361 1.392 . S
C359 H369 0.931 . S
C360 C356 1.393 . S
C360 C361 1.401 . S
C360 H370 0.930 . S
C361 C359 1.392 . S
C361 C360 1.401 . S
C361 H371 0.930 . S
C362 O340 1.262 1_545 S
C362 O341 1.260 . S
C363 Tb299 2.833 . S
C363 O338 1.251 . S
C363 O343 1.256 . S
C363 C356 1.500 . S
H364 C347 0.930 . S
H365 C348 0.931 . S
H366 C349 0.930 . S
H367 C350 0.930 . S
H368 C357 0.930 1_455 S
H369 C359 0.931 . S
H370 C360 0.930 . S
H371 C361 0.930 . S
Tb372 N403 2.660 . S
Tb372 N410 2.600 . S
Tb372 O416 2.546 . S
Tb372 O417 2.610 1_545 S
Tb372 O419 2.320 1_545 S
Tb372 O420 2.552 . S
Tb372 O421 2.413 . S
Tb372 O423 2.362 . S
Tb372 O424 2.421 . S
Tb372 C436 2.833 . S
C373 C376 1.432 . S
C373 C377 1.414 . S
C373 N380 1.359 . S
C374 C376 1.417 . S
C374 C378 1.432 . S
C374 C386 1.410 . S
C375 C377 1.444 . S
C375 C378 1.317 . S
C375 H398 0.929 . S
C376 C373 1.432 . S
C376 C374 1.417 . S
C376 N384 1.360 . S
C377 C373 1.414 . S
C377 C375 1.444 . S
C377 C382 1.385 . S
C378 C374 1.432 . S
C378 C375 1.317 . S
C378 H390 0.930 . S
C379 C381 1.392 . S
C379 C382 1.370 . S
C379 H391 0.931 . S
N380 C373 1.359 . S
N380 C381 1.327 . S
N380 Tb383 2.600 . S
C381 C379 1.392 . S
C381 N380 1.327 . S
C381 H388 0.930 . S
C382 C377 1.385 . S
C382 C379 1.370 . S
C382 H401 0.930 . S
Tb383 N380 2.600 . S
Tb383 N384 2.660 . S
Tb383 O417 2.362 . S
Tb383 O418 2.421 . S
Tb383 O422 2.546 . S
Tb383 O423 2.610 1_565 S
Tb383 O425 2.320 1_565 S
Tb383 O426 2.552 1_565 S
Tb383 O427 2.413 . S
Tb383 C447 2.833 . S
N384 C376 1.360 . S
N384 Tb383 2.660 . S
N384 C385 1.305 1_565 S
C385 N384 1.305 1_545 S
C385 C387 1.407 . S
C385 H392 0.930 . S
C386 C374 1.410 . S
C386 C387 1.345 1_565 S
C386 H394 0.930 . S
C387 C385 1.407 . S
C387 C386 1.345 1_545 S
C387 H389 0.930 . S
H388 C381 0.930 . S
H389 C387 0.930 . S
H390 C378 0.930 . S
H391 C379 0.931 . S
H392 C385 0.930 . S
H393 C407 0.930 1_565 S
H394 C386 0.930 . S
H395 C413 0.930 . S
H396 C404 0.930 1_565 S
H397 C411 0.931 . S
H398 C375 0.929 . S
H399 C405 0.930 . S
H400 C438 0.930 . S
H401 C382 0.930 . S
H402 C437 0.929 . S
N403 Tb372 2.660 . S
N403 C404 1.305 . S
N403 C408 1.360 . S
C404 H396 0.930 1_545 S
C404 N403 1.305 . S
C404 C407 1.407 . S
C405 H399 0.930 . S
C405 C406 1.410 . S
C405 C407 1.345 . S
C406 C405 1.410 . S
C406 C408 1.417 . S
C406 C438 1.432 . S
C407 H393 0.930 1_545 S
C407 C404 1.407 . S
C407 C405 1.345 . S
C408 N403 1.360 . S
C408 C406 1.417 . S
C408 C412 1.432 . S
H409 C414 0.930 . S
N410 Tb372 2.600 . S
N410 C412 1.359 . S
N410 C413 1.327 . S
C411 H397 0.931 . S
C411 C413 1.392 . S
C411 C414 1.370 . S
C412 C408 1.432 . S
C412 N410 1.359 . S
C412 C415 1.414 . S
C413 H395 0.930 . S
C413 N410 1.327 . S
C413 C411 1.392 . S
C414 H409 0.930 . S
C414 C411 1.370 . S
C414 C415 1.385 . S
C415 C412 1.414 . S
C415 C414 1.385 . S
C415 C437 1.444 . S
O416 Tb372 2.546 . S
O416 C436 1.251 . S
O417 Tb372 2.610 1_565 S
O417 Tb383 2.362 . S
O417 C428 1.283 . S
O418 Tb383 2.421 . S
O418 C435 1.262 . S
O419 Tb372 2.320 1_565 S
O419 C435 1.260 . S
O420 Tb372 2.552 . S
O420 C428 1.243 1_545 S
O421 Tb372 2.413 . S
O421 C436 1.256 . S
O422 Tb383 2.546 . S
O422 C447 1.251 . S
O423 Tb372 2.362 . S
O423 Tb383 2.610 1_545 S
O423 C439 1.283 . S
O424 Tb372 2.421 . S
O424 C446 1.262 . S
O425 Tb383 2.320 1_545 S
O425 C446 1.260 . S
O426 Tb383 2.552 1_545 S
O426 C439 1.243 . S
O427 Tb383 2.413 . S
O427 C447 1.256 . S
C428 O417 1.283 . S
C428 O420 1.243 1_565 S
C429 C431 1.382 . S
C429 C433 1.393 . S
C429 C436 1.500 . S
C430 C431 1.400 . S
C430 C432 1.384 . S
C431 C429 1.382 . S
C431 C430 1.400 . S
C431 H448 0.930 . S
C432 C430 1.384 . S
C432 C434 1.392 . S
C432 H449 0.931 . S
C433 C429 1.393 . S
C433 C434 1.401 . S
C433 H450 0.930 . S
C434 C432 1.392 . S
C434 C433 1.401 . S
C434 H451 0.930 . S
C435 O418 1.262 . S
C435 O419 1.260 . S
C436 Tb372 2.833 . S
C436 O416 1.251 . S
C436 O421 1.256 . S
C436 C429 1.500 . S
C437 H402 0.929 . S
C437 C415 1.444 . S
C437 C438 1.317 . S
C438 H400 0.930 . S
C438 C406 1.432 . S
C438 C437 1.317 . S
C439 O423 1.283 . S
C439 O426 1.243 . S
C440 C441 1.382 . S
C440 C444 1.393 . S
C440 C447 1.500 . S
C441 C440 1.382 . S
C441 C442 1.400 . S
C441 H452 0.930 1_565 S
C442 C441 1.400 . S
C442 C443 1.384 . S
C443 C442 1.384 . S
C443 C445 1.392 . S
C443 H453 0.931 . S
C444 C440 1.393 . S
C444 C445 1.401 . S
C444 H454 0.930 . S
C445 C443 1.392 . S
C445 C444 1.401 . S
C445 H455 0.930 . S
C446 O424 1.262 . S
C446 O425 1.260 . S
C447 Tb383 2.833 . S
C447 O422 1.251 . S
C447 O427 1.256 . S
C447 C440 1.500 . S
H448 C431 0.930 . S
H449 C432 0.931 . S
H450 C433 0.930 . S
H451 C434 0.930 . S
H452 C441 0.930 1_545 S
H453 C443 0.931 . S
H454 C444 0.930 . S
H455 C445 0.930 . S
Tb456 N487 2.660 . S
Tb456 N494 2.600 . S
Tb456 O500 2.546 . S
Tb456 O501 2.610 . S
Tb456 O503 2.320 . S
Tb456 O504 2.552 . S
Tb456 O505 2.413 . S
Tb456 O507 2.362 . S
Tb456 O508 2.421 . S
Tb456 C520 2.833 . S
C457 C460 1.432 . S
C457 C461 1.414 . S
C457 N464 1.359 . S
C458 C460 1.417 . S
C458 C462 1.432 . S
C458 C470 1.410 . S
C459 C461 1.444 . S
C459 C462 1.317 . S
C459 H482 0.929 . S
C460 C457 1.432 . S
C460 C458 1.417 . S
C460 N468 1.360 . S
C461 C457 1.414 . S
C461 C459 1.444 . S
C461 C466 1.385 . S
C462 C458 1.432 . S
C462 C459 1.317 . S
C462 H474 0.930 . S
C463 C465 1.392 . S
C463 C466 1.370 . S
C463 H475 0.931 . S
N464 C457 1.359 . S
N464 C465 1.327 . S
N464 Tb467 2.600 . S
C465 C463 1.392 . S
C465 N464 1.327 . S
C465 H472 0.930 . S
C466 C461 1.385 . S
C466 C463 1.370 . S
C466 H485 0.930 . S
Tb467 N464 2.600 . S
Tb467 N468 2.660 . S
Tb467 O501 2.362 . S
Tb467 O502 2.421 . S
Tb467 O506 2.546 . S
Tb467 O507 2.610 . S
Tb467 O509 2.320 . S
Tb467 O510 2.552 . S
Tb467 O511 2.413 . S
Tb467 C531 2.833 . S
N468 C460 1.360 . S
N468 Tb467 2.660 . S
N468 C469 1.305 . S
C469 N468 1.305 . S
C469 C471 1.407 . S
C469 H476 0.930 . S
C470 C458 1.410 . S
C470 C471 1.345 . S
C470 H478 0.930 . S
C471 C469 1.407 . S
C471 C470 1.345 . S
C471 H473 0.930 . S
H472 C465 0.930 . S
H473 C471 0.930 . S
H474 C462 0.930 . S
H475 C463 0.931 . S
H476 C469 0.930 . S
H477 C491 0.930 . S
H478 C470 0.930 . S
H479 C497 0.930 . S
H480 C488 0.930 . S
H481 C495 0.931 . S
H482 C459 0.929 . S
H483 C489 0.930 . S
H484 C522 0.930 . S
H485 C466 0.930 . S
H486 C521 0.929 . S
N487 Tb456 2.660 . S
N487 C488 1.305 . S
N487 C492 1.360 . S
C488 H480 0.930 . S
C488 N487 1.305 . S
C488 C491 1.407 . S
C489 H483 0.930 . S
C489 C490 1.410 . S
C489 C491 1.345 . S
C490 C489 1.410 . S
C490 C492 1.417 . S
C490 C522 1.432 . S
C491 H477 0.930 . S
C491 C488 1.407 . S
C491 C489 1.345 . S
C492 N487 1.360 . S
C492 C490 1.417 . S
C492 C496 1.432 . S
H493 C498 0.930 . S
N494 Tb456 2.600 . S
N494 C496 1.359 . S
N494 C497 1.327 . S
C495 H481 0.931 . S
C495 C497 1.392 . S
C495 C498 1.370 . S
C496 C492 1.432 . S
C496 N494 1.359 . S
C496 C499 1.414 . S
C497 H479 0.930 . S
C497 N494 1.327 . S
C497 C495 1.392 . S
C498 H493 0.930 . S
C498 C495 1.370 . S
C498 C499 1.385 . S
C499 C496 1.414 . S
C499 C498 1.385 . S
C499 C521 1.444 . S
O500 Tb456 2.546 . S
O500 C520 1.251 . S
O501 Tb456 2.610 . S
O501 Tb467 2.362 . S
O501 C512 1.283 . S
O502 Tb467 2.421 . S
O502 C519 1.262 . S
O503 Tb456 2.320 . S
O503 C519 1.260 . S
O504 Tb456 2.552 . S
O504 C512 1.243 . S
O505 Tb456 2.413 . S
O505 C520 1.256 . S
O506 Tb467 2.546 . S
O506 C531 1.251 . S
O507 Tb456 2.362 . S
O507 Tb467 2.610 . S
O507 C523 1.283 . S
O508 Tb456 2.421 . S
O508 C530 1.262 . S
O509 Tb467 2.320 . S
O509 C530 1.260 . S
O510 Tb467 2.552 . S
O510 C523 1.243 . S
O511 Tb467 2.413 . S
O511 C531 1.256 . S
C512 O501 1.283 . S
C512 O504 1.243 . S
C513 C515 1.382 . S
C513 C517 1.393 . S
C513 C520 1.500 . S
C514 C515 1.400 . S
C514 C516 1.384 . S
C515 C513 1.382 . S
C515 C514 1.400 . S
C515 H532 0.930 . S
C516 C514 1.384 . S
C516 C518 1.392 . S
C516 H533 0.931 . S
C517 C513 1.393 . S
C517 C518 1.401 . S
C517 H534 0.930 . S
C518 C516 1.392 . S
C518 C517 1.401 . S
C518 H535 0.930 . S
C519 O502 1.262 . S
C519 O503 1.260 . S
C520 Tb456 2.833 . S
C520 O500 1.251 . S
C520 O505 1.256 . S
C520 C513 1.500 . S
C521 H486 0.929 . S
C521 C499 1.444 . S
C521 C522 1.317 . S
C522 H484 0.930 . S
C522 C490 1.432 . S
C522 C521 1.317 . S
C523 O507 1.283 . S
C523 O510 1.243 . S
C524 C525 1.382 . S
C524 C528 1.393 . S
C524 C531 1.500 . S
C525 C524 1.382 . S
C525 C526 1.400 . S
C525 H536 0.930 . S
C526 C525 1.400 . S
C526 C527 1.384 . S
C527 C526 1.384 . S
C527 C529 1.391 1_556 S
C527 H537 0.931 1_556 S
C528 C524 1.393 . S
C528 C529 1.399 1_556 S
C528 H538 0.930 . S
C529 C527 1.391 1_554 S
C529 C528 1.399 1_554 S
C529 H539 0.933 . S
C530 O508 1.262 . S
C530 O509 1.260 . S
C531 Tb467 2.833 . S
C531 O506 1.251 . S
C531 O511 1.256 . S
C531 C524 1.500 . S
H532 C515 0.930 . S
H533 C516 0.931 . S
H534 C517 0.930 . S
H535 C518 0.930 . S
H536 C525 0.930 . S
H537 C527 0.931 1_554 S
H538 C528 0.930 . S
H539 C529 0.933 . S
Tb540 N571 2.660 . S
Tb540 N578 2.600 . S
Tb540 O584 2.546 . S
Tb540 O585 2.610 . S
Tb540 O587 2.320 . S
Tb540 O588 2.552 . S
Tb540 O589 2.413 . S
Tb540 O591 2.359 1_455 S
Tb540 O592 2.421 1_455 S
Tb540 C604 2.833 . S
C541 C544 1.432 . S
C541 C545 1.414 . S
C541 N548 1.359 . S
C542 C544 1.417 . S
C542 C546 1.432 . S
C542 C554 1.410 . S
C543 C545 1.444 . S
C543 C546 1.317 . S
C543 H566 0.929 . S
C544 C541 1.432 . S
C544 C542 1.417 . S
C544 N552 1.360 . S
C545 C541 1.414 . S
C545 C543 1.444 . S
C545 C550 1.385 . S
C546 C542 1.432 . S
C546 C543 1.317 . S
C546 H558 0.930 . S
C547 C549 1.392 . S
C547 C550 1.370 1_455 S
C547 H559 0.931 . S
N548 C541 1.359 . S
N548 C549 1.327 1_655 S
N548 Tb551 2.600 . S
C549 C547 1.392 . S
C549 N548 1.327 1_455 S
C549 H556 0.930 . S
C550 C545 1.385 . S
C550 C547 1.370 1_655 S
C550 H569 0.928 1_655 S
Tb551 N548 2.600 . S
Tb551 N552 2.660 . S
Tb551 O585 2.362 1_655 S
Tb551 O586 2.421 1_655 S
Tb551 O590 2.546 . S
Tb551 O591 2.611 . S
Tb551 O593 2.320 . S
Tb551 O594 2.552 . S
Tb551 O595 2.413 . S
Tb551 C615 2.833 . S
N552 C544 1.360 . S
N552 Tb551 2.660 . S
N552 C553 1.305 . S
C553 N552 1.305 . S
C553 C555 1.407 . S
C553 H560 0.930 . S
C554 C542 1.410 . S
C554 C555 1.345 . S
C554 H562 0.930 . S
C555 C553 1.407 . S
C555 C554 1.345 . S
C555 H557 0.930 . S
H556 C549 0.930 . S
H557 C555 0.930 . S
H558 C546 0.930 . S
H559 C547 0.931 . S
H560 C553 0.930 . S
H561 C575 0.930 . S
H562 C554 0.930 . S
H563 C581 0.915 1_655 S
H564 C572 0.930 . S
H565 C579 0.931 . S
H566 C543 0.929 . S
H567 C573 0.930 . S
H568 C606 0.930 . S
H569 C550 0.928 1_455 S
H570 C605 0.929 . S
N571 Tb540 2.660 . S
N571 C572 1.305 . S
N571 C576 1.360 . S
C572 H564 0.930 . S
C572 N571 1.305 . S
C572 C575 1.407 . S
C573 H567 0.930 . S
C573 C574 1.410 . S
C573 C575 1.345 . S
C574 C573 1.410 . S
C574 C576 1.417 . S
C574 C606 1.432 . S
C575 H561 0.930 . S
C575 C572 1.407 . S
C575 C573 1.345 . S
C576 N571 1.360 . S
C576 C574 1.417 . S
C576 C580 1.432 . S
H577 C582 0.930 . S
N578 Tb540 2.600 . S
N578 C580 1.359 . S
N578 C581 1.345 . S
C579 H565 0.931 . S
C579 C581 1.389 1_655 S
C579 C582 1.370 1_655 S
C580 C576 1.432 . S
C580 N578 1.359 . S
C580 C583 1.414 . S
C581 H563 0.915 1_455 S
C581 N578 1.345 . S
C581 C579 1.389 1_455 S
C582 H577 0.930 . S
C582 C579 1.370 1_455 S
C582 C583 1.385 . S
C583 C580 1.414 . S
C583 C582 1.385 . S
C583 C605 1.444 . S
O584 Tb540 2.546 . S
O584 C604 1.251 . S
O585 Tb540 2.610 . S
O585 Tb551 2.362 1_455 S
O585 C596 1.283 . S
O586 Tb551 2.421 1_455 S
O586 C603 1.262 . S
O587 Tb540 2.320 . S
O587 C603 1.260 . S
O588 Tb540 2.552 . S
O588 C596 1.243 . S
O589 Tb540 2.413 . S
O589 C604 1.256 . S
O590 Tb551 2.546 . S
O590 C615 1.251 . S
O591 Tb540 2.359 1_655 S
O591 Tb551 2.611 . S
O591 C607 1.285 . S
O592 Tb540 2.421 1_655 S
O592 C614 1.262 . S
O593 Tb551 2.320 . S
O593 C614 1.260 . S
O594 Tb551 2.552 . S
O594 C607 1.243 . S
O595 Tb551 2.413 . S
O595 C615 1.256 . S
C596 O585 1.283 . S
C596 O588 1.243 . S
C597 C599 1.382 . S
C597 C601 1.393 . S
C597 C604 1.500 . S
C598 C599 1.400 . S
C598 C600 1.384 . S
C599 C597 1.382 . S
C599 C598 1.400 . S
C599 H616 0.930 . S
C600 C598 1.384 . S
C600 C602 1.392 . S
C600 H617 0.931 . S
C601 C597 1.393 . S
C601 C602 1.401 . S
C601 H618 0.930 . S
C602 C600 1.392 . S
C602 C601 1.401 . S
C602 H619 0.930 . S
C603 O586 1.262 . S
C603 O587 1.260 . S
C604 Tb540 2.833 . S
C604 O584 1.251 . S
C604 O589 1.256 . S
C604 C597 1.500 . S
C605 H570 0.929 . S
C605 C583 1.444 . S
C605 C606 1.317 . S
C606 H568 0.930 . S
C606 C574 1.432 . S
C606 C605 1.317 . S
C607 O591 1.285 . S
C607 O594 1.243 . S
C608 C609 1.382 . S
C608 C612 1.393 . S
C608 C615 1.500 . S
C609 C608 1.382 . S
C609 C610 1.400 . S
C609 H620 0.930 . S
C610 C609 1.400 . S
C610 C611 1.384 . S
C611 C610 1.384 . S
C611 C613 1.393 . S
C611 H621 0.931 1_556 S
C612 C608 1.393 . S
C612 C613 1.411 . S
C612 H622 0.930 . S
C613 C611 1.393 . S
C613 C612 1.411 . S
C613 H623 0.919 1_556 S
C614 O592 1.262 . S
C614 O593 1.260 . S
C615 Tb551 2.833 . S
C615 O590 1.251 . S
C615 O595 1.256 . S
C615 C608 1.500 . S
H616 C599 0.930 . S
H617 C600 0.931 . S
H618 C601 0.930 . S
H619 C602 0.930 . S
H620 C609 0.930 . S
H621 C611 0.931 1_554 S
H622 C612 0.930 . S
H623 C613 0.919 1_554 S
H624 C630 0.930 . S
H625 C633 0.930 . S
H626 C634 0.930 . S
H627 C635 0.930 . S
H628 C638 0.930 . S
H629 C639 0.930 . S
C630 H624 0.930 . S
C630 C631 1.355 . S
C630 C632 1.415 . S
C631 C630 1.355 . S
C631 C633 1.419 . S
C632 C630 1.415 . S
C632 C637 1.425 . S
C632 C639 1.409 . S
C633 H625 0.930 . S
C633 C631 1.419 . S
C633 C634 1.362 . S
C634 H626 0.930 . S
C634 C633 1.362 . S
C634 C637 1.409 . S
C635 H627 0.930 . S
C635 C636 1.355 . S
C635 C637 1.415 . S
C636 C635 1.355 . S
C636 C638 1.419 . S
C637 C632 1.425 . S
C637 C634 1.409 . S
C637 C635 1.415 . S
C638 H628 0.930 . S
C638 C636 1.419 . S
C638 C639 1.362 . S
C639 H629 0.930 . S
C639 C632 1.409 . S
C639 C638 1.362 . S
H640 C646 0.930 . S
H641 C649 0.930 . S
H642 C650 0.930 . S
H643 C651 0.930 . S
H644 C654 0.930 . S
H645 C655 0.930 . S
C646 H640 0.930 . S
C646 C647 1.355 . S
C646 C648 1.415 . S
C647 C646 1.355 . S
C647 C649 1.419 . S
C648 C646 1.415 . S
C648 C653 1.425 . S
C648 C655 1.409 . S
C649 H641 0.930 . S
C649 C647 1.419 . S
C649 C650 1.362 . S
C650 H642 0.930 . S
C650 C649 1.362 . S
C650 C653 1.409 . S
C651 H643 0.930 . S
C651 C652 1.355 . S
C651 C653 1.415 . S
C652 C651 1.355 . S
C652 C654 1.419 . S
C653 C648 1.425 . S
C653 C650 1.409 . S
C653 C651 1.415 . S
C654 H644 0.930 . S
C654 C652 1.419 . S
C654 C655 1.362 . S
C655 H645 0.930 . S
C655 C648 1.409 . S
C655 C654 1.362 . S
H656 C662 0.930 . S
H657 C665 0.930 . S
H658 C666 0.930 . S
H659 C667 0.930 . S
H660 C670 0.930 . S
H661 C671 0.930 . S
C662 H656 0.930 . S
C662 C663 1.355 . S
C662 C664 1.415 . S
C663 C662 1.355 . S
C663 C665 1.419 . S
C664 C662 1.415 . S
C664 C669 1.425 . S
C664 C671 1.409 . S
C665 H657 0.930 . S
C665 C663 1.419 . S
C665 C666 1.362 . S
C666 H658 0.930 . S
C666 C665 1.362 . S
C666 C669 1.409 . S
C667 H659 0.930 . S
C667 C668 1.355 . S
C667 C669 1.415 . S
C668 C667 1.355 . S
C668 C670 1.419 . S
C669 C664 1.425 . S
C669 C666 1.409 . S
C669 C667 1.415 . S
C670 H660 0.930 . S
C670 C668 1.419 . S
C670 C671 1.362 . S
C671 H661 0.930 . S
C671 C664 1.409 . S
C671 C670 1.362 . S
H672 C678 0.930 . S
H673 C681 0.930 . S
H674 C682 0.930 1_655 S
H675 C683 0.912 1_655 S
H676 C686 0.930 . S
H677 C687 0.930 . S
C678 H672 0.930 . S
C678 C679 1.355 . S
C678 C680 1.415 . S
C679 C678 1.355 . S
C679 C681 1.419 . S
C680 C678 1.415 . S
C680 C685 1.425 . S
C680 C687 1.409 . S
C681 H673 0.930 . S
C681 C679 1.419 . S
C681 C682 1.362 . S
C682 H674 0.930 1_455 S
C682 C681 1.362 . S
C682 C685 1.409 . S
C683 H675 0.912 1_455 S
C683 C684 1.355 . S
C683 C685 1.415 . S
C684 C683 1.355 . S
C684 C686 1.419 . S
C685 C680 1.425 . S
C685 C682 1.409 . S
C685 C683 1.415 . S
C686 H676 0.930 . S
C686 C684 1.419 . S
C686 C687 1.362 . S
C687 H677 0.930 . S
C687 C680 1.409 . S
C687 C686 1.362 . S
H688 C694 0.930 . S
H689 C697 0.930 . S
H690 C698 0.930 . S
H691 C699 0.930 . S
H692 C702 0.930 . S
H693 C703 0.930 . S
C694 H688 0.930 . S
C694 C695 1.355 . S
C694 C696 1.415 1_554 S
C695 C694 1.355 . S
C695 C697 1.419 . S
C696 C694 1.415 1_556 S
C696 C701 1.425 . S
C696 C703 1.409 . S
C697 H689 0.930 . S
C697 C695 1.419 . S
C697 C698 1.362 . S
C698 H690 0.930 . S
C698 C697 1.362 . S
C698 C701 1.409 1_554 S
C699 H691 0.930 . S
C699 C700 1.355 . S
C699 C701 1.415 . S
C700 C699 1.355 . S
C700 C702 1.419 . S
C701 C696 1.425 . S
C701 C698 1.409 1_556 S
C701 C699 1.415 . S
C702 H692 0.930 . S
C702 C700 1.419 . S
C702 C703 1.362 . S
C703 H693 0.930 . S
C703 C696 1.409 . S
C703 C702 1.362 . S
H704 C710 0.930 . S
H705 C713 0.930 . S
H706 C714 0.930 . S
H707 C715 0.930 . S
H708 C718 0.930 . S
H709 C719 0.930 . S
C710 H704 0.930 . S
C710 C711 1.355 . S
C710 C712 1.415 1_554 S
C711 C710 1.355 . S
C711 C713 1.419 . S
C712 C710 1.415 1_556 S
C712 C717 1.425 . S
C712 C719 1.409 . S
C713 H705 0.930 . S
C713 C711 1.419 . S
C713 C714 1.362 1_554 S
C714 H706 0.930 . S
C714 C713 1.362 1_556 S
C714 C717 1.409 . S
C715 H707 0.930 . S
C715 C716 1.355 . S
C715 C717 1.415 . S
C716 C715 1.355 . S
C716 C718 1.419 . S
C717 C712 1.425 . S
C717 C714 1.409 . S
C717 C715 1.415 . S
C718 H708 0.930 . S
C718 C716 1.419 . S
C718 C719 1.362 . S
C719 H709 0.930 . S
C719 C712 1.409 . S
C719 C718 1.362 . S
H720 C726 0.930 . S
H721 C729 0.930 . S
H722 C730 0.930 . S
H723 C731 0.930 . S
H724 C734 0.930 . S
H725 C735 0.930 . S
C726 H720 0.930 . S
C726 C727 1.355 . S
C726 C728 1.415 1_554 S
C727 C726 1.355 . S
C727 C729 1.419 . S
C728 C726 1.415 1_556 S
C728 C733 1.425 . S
C728 C735 1.409 . S
C729 H721 0.930 . S
C729 C727 1.419 . S
C729 C730 1.362 1_554 S
C730 H722 0.930 . S
C730 C729 1.362 1_556 S
C730 C733 1.409 . S
C731 H723 0.930 . S
C731 C732 1.355 . S
C731 C733 1.415 . S
C732 C731 1.355 . S
C732 C734 1.419 . S
C733 C728 1.425 . S
C733 C730 1.409 . S
C733 C731 1.415 . S
C734 H724 0.930 . S
C734 C732 1.419 . S
C734 C735 1.362 . S
C735 H725 0.930 . S
C735 C728 1.409 . S
C735 C734 1.362 . S
H736 C742 0.930 . S
H737 C745 0.930 . S
H738 C746 0.953 . S
H739 C747 0.930 1_455 S
H740 C750 0.930 . S
H741 C751 0.930 . S
C742 H736 0.930 . S
C742 C743 1.355 . S
C742 C744 1.415 1_554 S
C743 C742 1.355 . S
C743 C745 1.419 . S
C744 C742 1.415 1_556 S
C744 C749 1.425 . S
C744 C751 1.409 . S
C745 H737 0.930 . S
C745 C743 1.419 . S
C745 C746 1.362 . S
C746 H738 0.953 . S
C746 C745 1.362 . S
C746 C749 1.409 1_554 S
C747 H739 0.930 1_655 S
C747 C748 1.355 . S
C747 C749 1.415 . S
C748 C747 1.355 . S
C748 C750 1.419 . S
C749 C744 1.425 . S
C749 C746 1.409 1_556 S
C749 C747 1.415 . S
C750 H740 0.930 . S
C750 C748 1.419 . S
C750 C751 1.362 . S
C751 H741 0.930 . S
C751 C744 1.409 . S
C751 C750 1.362 . S
H752 C758 0.930 . S
H753 C761 0.930 . S
H754 C762 0.930 . S
H755 C763 0.930 . S
H756 C766 0.930 . S
H757 C767 0.930 1_655 S
C758 H752 0.930 . S
C758 C759 1.355 . S
C758 C760 1.415 . S
C759 C758 1.355 . S
C759 C761 1.419 . S
C760 C758 1.415 . S
C760 C765 1.425 . S
C760 C767 1.409 . S
C761 H753 0.930 . S
C761 C759 1.419 . S
C761 C762 1.362 . S
C762 H754 0.930 . S
C762 C761 1.362 . S
C762 C765 1.409 . S
C763 H755 0.930 . S
C763 C764 1.312 1_455 S
C763 C765 1.415 . S
C764 C763 1.312 1_655 S
C764 C766 1.437 . S
C765 C760 1.425 . S
C765 C762 1.409 . S
C765 C763 1.415 . S
C766 H756 0.930 . S
C766 C764 1.437 . S
C766 C767 1.362 1_655 S
C767 H757 0.930 1_455 S
C767 C760 1.409 . S
C767 C766 1.362 1_455 S
H768 C774 0.930 . S
H769 C777 0.930 . S
H770 C778 0.930 . S
H771 C779 0.930 . S
H772 C782 0.930 . S
H773 C783 0.930 . S
C774 H768 0.930 . S
C774 C775 1.355 . S
C774 C776 1.415 . S
C775 C774 1.355 . S
C775 C777 1.419 . S
C776 C774 1.415 . S
C776 C781 1.425 . S
C776 C783 1.409 . S
C777 H769 0.930 . S
C777 C775 1.419 . S
C777 C778 1.362 . S
C778 H770 0.930 . S
C778 C777 1.362 . S
C778 C781 1.409 . S
C779 H771 0.930 . S
C779 C780 1.355 1_545 S
C779 C781 1.415 . S
C780 C779 1.355 1_565 S
C780 C782 1.419 . S
C781 C776 1.425 . S
C781 C778 1.409 . S
C781 C779 1.415 . S
C782 H772 0.930 . S
C782 C780 1.419 . S
C782 C783 1.362 1_565 S
C783 H773 0.930 . S
C783 C776 1.409 . S
C783 C782 1.362 1_545 S
H784 C790 0.930 . S
H785 C793 0.930 . S
H786 C794 0.930 . S
H787 C795 0.930 . S
H788 C798 0.930 . S
H789 C799 0.930 . S
C790 H784 0.930 . S
C790 C791 1.355 . S
C790 C792 1.415 . S
C791 C790 1.355 . S
C791 C793 1.419 . S
C792 C790 1.415 . S
C792 C797 1.425 . S
C792 C799 1.409 . S
C793 H785 0.930 . S
C793 C791 1.419 . S
C793 C794 1.362 . S
C794 H786 0.930 . S
C794 C793 1.362 . S
C794 C797 1.409 . S
C795 H787 0.930 . S
C795 C796 1.355 . S
C795 C797 1.415 . S
C796 C795 1.355 . S
C796 C798 1.419 . S
C797 C792 1.425 . S
C797 C794 1.409 . S
C797 C795 1.415 . S
C798 H788 0.930 . S
C798 C796 1.419 . S
C798 C799 1.362 . S
C799 H789 0.930 . S
C799 C792 1.409 . S
C799 C798 1.362 . S
H800 C806 0.930 . S
H801 C809 0.930 . S
H802 C810 0.930 . S
H803 C811 0.930 . S
H804 C814 0.930 . S
H805 C815 0.930 . S
C806 H800 0.930 . S
C806 C807 1.355 . S
C806 C808 1.415 . S
C807 C806 1.355 . S
C807 C809 1.419 . S
C808 C806 1.415 . S
C808 C813 1.425 . S
C808 C815 1.409 . S
C809 H801 0.930 . S
C809 C807 1.419 . S
C809 C810 1.362 . S
C810 H802 0.930 . S
C810 C809 1.362 . S
C810 C813 1.409 . S
C811 H803 0.930 . S
C811 C812 1.355 . S
C811 C813 1.415 . S
C812 C811 1.355 . S
C812 C814 1.419 . S
C813 C808 1.425 . S
C813 C810 1.409 . S
C813 C811 1.415 . S
C814 H804 0.930 . S
C814 C812 1.419 . S
C814 C815 1.362 . S
C815 H805 0.930 . S
C815 C808 1.409 . S
C815 C814 1.362 . S
H816 C822 0.930 . S
H817 C825 0.930 . S
H818 C826 0.930 . S
H819 C827 0.930 . S
H820 C830 0.930 . S
H821 C831 0.930 . S
C822 H816 0.930 . S
C822 C823 1.355 1_556 S
C822 C824 1.415 . S
C823 C822 1.355 1_554 S
C823 C825 1.419 . S
C824 C822 1.415 . S
C824 C829 1.425 . S
C824 C831 1.409 1_655 S
C825 H817 0.930 . S
C825 C823 1.419 . S
C825 C826 1.362 1_554 S
C826 H818 0.930 . S
C826 C825 1.362 1_556 S
C826 C829 1.409 . S
C827 H819 0.930 . S
C827 C828 1.355 1_655 S
C827 C829 1.415 . S
C828 C827 1.355 1_455 S
C828 C830 1.419 . S
C829 C824 1.425 . S
C829 C826 1.409 . S
C829 C827 1.415 . S
C830 H820 0.930 . S
C830 C828 1.419 . S
C830 C831 1.362 . S
C831 H821 0.930 . S
C831 C824 1.409 1_455 S
C831 C830 1.362 . S
H832 C838 0.930 . S
H833 C841 0.930 . S
H834 C842 0.930 . S
H835 C843 0.930 . S
H836 C846 0.930 . S
H837 C847 0.930 . S
C838 H832 0.930 . S
C838 C839 1.355 1_556 S
C838 C840 1.415 . S
C839 C838 1.355 1_554 S
C839 C841 1.419 . S
C840 C838 1.415 . S
C840 C845 1.425 . S
C840 C847 1.409 . S
C841 H833 0.930 . S
C841 C839 1.419 . S
C841 C842 1.362 . S
C842 H834 0.930 . S
C842 C841 1.362 . S
C842 C845 1.409 1_554 S
C843 H835 0.930 . S
C843 C844 1.355 1_565 S
C843 C845 1.415 . S
C844 C843 1.355 1_545 S
C844 C846 1.419 . S
C845 C840 1.425 . S
C845 C842 1.409 1_556 S
C845 C843 1.415 . S
C846 H836 0.930 . S
C846 C844 1.419 . S
C846 C847 1.362 1_545 S
C847 H837 0.930 . S
C847 C840 1.409 . S
C847 C846 1.362 1_565 S
H848 C854 0.930 . S
H849 C857 0.930 . S
H850 C858 0.930 . S
H851 C859 0.930 . S
H852 C862 0.930 . S
H853 C863 0.930 . S
C854 H848 0.930 . S
C854 C855 1.355 1_554 S
C854 C856 1.415 1_554 S
C855 C854 1.355 1_556 S
C855 C857 1.419 . S
C856 C854 1.415 1_556 S
C856 C861 1.425 . S
C856 C863 1.409 1_556 S
C857 H849 0.930 . S
C857 C855 1.419 . S
C857 C858 1.362 . S
C858 H850 0.930 . S
C858 C857 1.362 . S
C858 C861 1.409 . S
C859 H851 0.930 . S
C859 C860 1.355 . S
C859 C861 1.415 . S
C860 C859 1.355 . S
C860 C862 1.419 1_556 S
C861 C856 1.425 . S
C861 C858 1.409 . S
C861 C859 1.415 . S
C862 H852 0.930 . S
C862 C860 1.419 1_554 S
C862 C863 1.362 . S
C863 H853 0.930 . S
C863 C856 1.409 1_554 S
C863 C862 1.362 . S
H864 C870 0.930 . S
H865 C873 0.930 . S
H866 C874 0.930 . S
H867 C875 0.930 . S
H868 C878 0.930 . S
H869 C879 0.930 1_554 S
C870 H864 0.930 . S
C870 C871 1.355 1_554 S
C870 C872 1.415 1_554 S
C871 C870 1.355 1_556 S
C871 C873 1.419 . S
C872 C870 1.415 1_556 S
C872 C877 1.425 . S
C872 C879 1.409 . S
C873 H865 0.930 . S
C873 C871 1.419 . S
C873 C874 1.362 . S
C874 H866 0.930 . S
C874 C873 1.362 . S
C874 C877 1.409 . S
C875 H867 0.930 . S
C875 C876 1.355 . S
C875 C877 1.415 . S
C876 C875 1.355 . S
C876 C878 1.419 . S
C877 C872 1.425 . S
C877 C874 1.409 . S
C877 C875 1.415 . S
C878 H868 0.930 . S
C878 C876 1.419 . S
C878 C879 1.362 . S
C879 H869 0.930 1_556 S
C879 C872 1.409 . S
C879 C878 1.362 . S
H880 C886 0.930 . S
H881 C889 0.930 . S
H882 C890 0.930 . S
H883 C891 0.930 . S
H884 C894 0.930 1_655 S
H885 C895 0.894 1_655 S
C886 H880 0.930 . S
C886 C887 1.355 . S
C886 C888 1.415 . S
C887 C886 1.355 . S
C887 C889 1.419 . S
C888 C886 1.415 . S
C888 C893 1.425 . S
C888 C895 1.409 . S
C889 H881 0.930 . S
C889 C887 1.419 . S
C889 C890 1.362 . S
C890 H882 0.930 . S
C890 C889 1.362 . S
C890 C893 1.409 . S
C891 H883 0.930 . S
C891 C892 1.355 . S
C891 C893 1.415 . S
C892 C891 1.355 . S
C892 C894 1.419 . S
C893 C888 1.425 . S
C893 C890 1.409 . S
C893 C891 1.415 . S
C894 H884 0.930 1_455 S
C894 C892 1.419 . S
C894 C895 1.362 . S
C895 H885 0.894 1_455 S
C895 C888 1.409 . S
C895 C894 1.362 . S
H896 C902 0.930 . S
H897 C905 0.930 . S
H898 C906 0.930 . S
H899 C907 0.930 . S
H900 C910 0.930 1_565 S
H901 C911 0.930 1_565 S
C902 H896 0.930 . S
C902 C903 1.355 . S
C902 C904 1.415 . S
C903 C902 1.355 . S
C903 C905 1.419 . S
C904 C902 1.415 . S
C904 C909 1.425 . S
C904 C911 1.409 . S
C905 H897 0.930 . S
C905 C903 1.419 . S
C905 C906 1.362 . S
C906 H898 0.930 . S
C906 C905 1.362 . S
C906 C909 1.409 . S
C907 H899 0.930 . S
C907 C908 1.355 . S
C907 C909 1.415 . S
C908 C907 1.355 . S
C908 C910 1.419 . S
C909 C904 1.425 . S
C909 C906 1.409 . S
C909 C907 1.415 . S
C910 H900 0.930 1_545 S
C910 C908 1.419 . S
C910 C911 1.362 . S
C911 H901 0.930 1_545 S
C911 C904 1.409 . S
C911 C910 1.362 . S
H912 C918 0.930 . S
H913 C921 0.930 . S
H914 C922 0.930 . S
H915 C923 0.930 . S
H916 C926 0.930 . S
H917 C927 0.930 . S
C918 H912 0.930 . S
C918 C919 1.355 . S
C918 C920 1.415 . S
C919 C918 1.355 . S
C919 C921 1.419 . S
C920 C918 1.415 . S
C920 C925 1.425 . S
C920 C927 1.409 . S
C921 H913 0.930 . S
C921 C919 1.419 . S
C921 C922 1.362 . S
C922 H914 0.930 . S
C922 C921 1.362 . S
C922 C925 1.409 . S
C923 H915 0.930 . S
C923 C924 1.355 . S
C923 C925 1.415 . S
C924 C923 1.355 . S
C924 C926 1.419 . S
C925 C920 1.425 . S
C925 C922 1.409 . S
C925 C923 1.415 . S
C926 H916 0.930 . S
C926 C924 1.419 . S
C926 C927 1.362 . S
C927 H917 0.930 . S
C927 C920 1.409 . S
C927 C926 1.362 . S
H928 C934 0.930 . S
H929 C937 0.930 . S
H930 C938 0.930 . S
H931 C939 0.930 . S
H932 C942 0.930 . S
H933 C943 0.930 . S
C934 H928 0.930 . S
C934 C935 1.355 . S
C934 C936 1.415 . S
C935 C934 1.355 . S
C935 C937 1.419 . S
C936 C934 1.415 . S
C936 C941 1.425 . S
C936 C943 1.409 . S
C937 H929 0.930 . S
C937 C935 1.419 . S
C937 C938 1.362 . S
C938 H930 0.930 . S
C938 C937 1.362 . S
C938 C941 1.409 . S
C939 H931 0.930 . S
C939 C940 1.355 . S
C939 C941 1.415 . S
C940 C939 1.355 . S
C940 C942 1.419 . S
C941 C936 1.425 . S
C941 C938 1.409 . S
C941 C939 1.415 . S
C942 H932 0.930 . S
C942 C940 1.419 . S
C942 C943 1.362 . S
C943 H933 0.930 . S
C943 C936 1.409 . S
C943 C942 1.362 . S
H944 C950 0.930 . S
H945 C953 0.930 . S
H946 C954 0.930 . S
H947 C955 0.930 . S
H948 C958 0.930 1_455 S
H949 C959 0.930 1_455 S
C950 H944 0.930 . S
C950 C951 1.355 . S
C950 C952 1.415 . S
C951 C950 1.355 . S
C951 C953 1.419 . S
C952 C950 1.415 . S
C952 C957 1.425 . S
C952 C959 1.409 . S
C953 H945 0.930 . S
C953 C951 1.419 . S
C953 C954 1.362 . S
C954 H946 0.930 . S
C954 C953 1.362 . S
C954 C957 1.409 . S
C955 H947 0.930 . S
C955 C956 1.355 . S
C955 C957 1.415 . S
C956 C955 1.355 . S
C956 C958 1.419 . S
C957 C952 1.425 . S
C957 C954 1.409 . S
C957 C955 1.415 . S
C958 H948 0.930 1_655 S
C958 C956 1.419 . S
C958 C959 1.362 . S
C959 H949 0.930 1_655 S
C959 C952 1.409 . S
C959 C958 1.362 . S
H960 C966 0.930 . S
H961 C969 0.930 . S
H962 C970 0.930 1_545 S
H963 C971 0.898 1_545 S
H964 C974 0.930 . S
H965 C975 0.930 . S
C966 H960 0.930 . S
C966 C967 1.355 . S
C966 C968 1.415 . S
C967 C966 1.355 . S
C967 C969 1.419 . S
C968 C966 1.415 . S
C968 C973 1.425 . S
C968 C975 1.409 . S
C969 H961 0.930 . S
C969 C967 1.419 . S
C969 C970 1.362 . S
C970 H962 0.930 1_565 S
C970 C969 1.362 . S
C970 C973 1.409 . S
C971 H963 0.898 1_565 S
C971 C972 1.355 . S
C971 C973 1.415 . S
C972 C971 1.355 . S
C972 C974 1.419 . S
C973 C968 1.425 . S
C973 C970 1.409 . S
C973 C971 1.415 . S
C974 H964 0.930 . S
C974 C972 1.419 . S
C974 C975 1.362 . S
C975 H965 0.930 . S
C975 C968 1.409 . S
C975 C974 1.362 . S
H976 C982 0.930 . S
H977 C985 0.930 . S
H978 C986 0.930 . S
H979 C987 0.930 . S
H980 C990 0.930 . S
H981 C991 0.930 . S
C982 H976 0.930 . S
C982 C983 1.355 . S
C982 C984 1.415 . S
C983 C982 1.355 . S
C983 C985 1.419 . S
C984 C982 1.415 . S
C984 C989 1.425 . S
C984 C991 1.409 . S
C985 H977 0.930 . S
C985 C983 1.419 . S
C985 C986 1.362 . S
C986 H978 0.930 . S
C986 C985 1.362 . S
C986 C989 1.409 . S
C987 H979 0.930 . S
C987 C988 1.355 . S
C987 C989 1.415 . S
C988 C987 1.355 . S
C988 C990 1.419 . S
C989 C984 1.425 . S
C989 C986 1.409 . S
C989 C987 1.415 . S
C990 H980 0.930 . S
C990 C988 1.419 . S
C990 C991 1.362 . S
C991 H981 0.930 . S
C991 C984 1.409 . S
C991 C990 1.362 . S
H992 C998 0.930 . S
H993 C1001 0.930 . S
H994 C1002 0.930 . S
H995 C1003 0.930 . S
H996 C1006 0.930 . S
H997 C1007 0.930 . S
C998 H992 0.930 . S
C998 C999 1.355 . S
C998 C1000 1.415 . S
C999 C998 1.355 . S
C999 C1001 1.419 . S
C1000 C998 1.415 . S
C1000 C1005 1.425 . S
C1000 C1007 1.409 . S
C1001 H993 0.930 . S
C1001 C999 1.419 . S
C1001 C1002 1.362 . S
C1002 H994 0.930 . S
C1002 C1001 1.362 . S
C1002 C1005 1.409 . S
C1003 H995 0.930 . S
C1003 C1004 1.355 . S
C1003 C1005 1.415 . S
C1004 C1003 1.355 . S
C1004 C1006 1.419 . S
C1005 C1000 1.425 . S
C1005 C1002 1.409 . S
C1005 C1003 1.415 . S
C1006 H996 0.930 . S
C1006 C1004 1.419 . S
C1006 C1007 1.362 . S
C1007 H997 0.930 . S
C1007 C1000 1.409 . S
C1007 C1006 1.362 . S
C631 C241 2.321 . S
C636 C362 2.466 . S
C652 C446 2.531 . S
C647 C277 2.422 . S
C668 C512 2.380 . S
C663 C169 2.482 . S
C684 C596 2.335 . S
C679 C205 2.442 . S
C700 C351 2.504 1_565 S
C695 C97 2.337 . S
C711 C133 2.425 . S
C716 C435 2.479 . S
C727 C25 2.380 . S
C732 C523 2.340 . S
C743 C61 2.429 . S
C748 C607 2.388 . S
C764 C358 0.848 . S
C759 C211 0.893 . S
C780 C442 0.750 . S
C775 C247 0.778 . S
C796 C514 0.692 . S
C791 C253 0.710 . S
C807 C175 0.703 . S
C812 C598 0.823 . S
C823 C67 0.824 . S
C828 C346 0.816 . S
C844 C430 0.768 . S
C839 C103 0.715 . S
C860 C526 0.696 . S
C855 C109 0.823 1_556 S
C871 C31 0.874 1_556 S
C876 C610 0.812 . S
C887 C181 2.894 . S
C892 C355 3.009 . S
C903 C217 2.846 . S
C908 C439 2.965 . S
C924 C519 3.100 . S
C919 C283 2.682 . S
C940 C603 3.138 . S
C935 C145 2.797 . S
C951 C37 2.877 . S
C956 C344 3.014 . S
C972 C428 3.011 . S
C967 C73 2.827 . S
C988 C530 3.114 . S
C983 C139 2.673 . S
C999 C1 2.777 . S
C1004 C614 3.120 . S
