# Generated by pormake.
# Topology apo, (3,6)-cn, num edge types: 1
# Building blocks:
#     Node 0, Type 0, BuildingBlock: INOVEN_clean_linker_0, # of connection points: 3
#     Node 1, Type 0, BuildingBlock: INOVEN_clean_linker_0, # of connection points: 3
#     Node 2, Type 0, BuildingBlock: INOVEN_clean_linker_0, # of connection points: 3
#     Node 3, Type 0, BuildingBlock: INOVEN_clean_linker_0, # of connection points: 3
#     Node 4, Type 0, BuildingBlock: INOVEN_clean_linker_0, # of connection points: 3
#     Node 5, Type 0, BuildingBlock: INOVEN_clean_linker_0, # of connection points: 3
#     Node 6, Type 0, BuildingBlock: INOVEN_clean_linker_0, # of connection points: 3
#     Node 7, Type 0, BuildingBlock: INOVEN_clean_linker_0, # of connection points: 3
#     Node 8, Type 1, BuildingBlock: KUMBUR_clean_sbu_1, # of connection points: 6
#     Node 9, Type 1, BuildingBlock: KUMBUR_clean_sbu_1, # of connection points: 6
#     Node 10, Type 1, BuildingBlock: KUMBUR_clean_sbu_1, # of connection points: 6
#     Node 11, Type 1, BuildingBlock: KUMBUR_clean_sbu_1, # of connection points: 6
#     Edge 12, Type (0, 1), None
#     Edge 13, Type (0, 1), None
#     Edge 14, Type (0, 1), None
#     Edge 15, Type (0, 1), None
#     Edge 16, Type (0, 1), None
#     Edge 17, Type (0, 1), None
#     Edge 18, Type (0, 1), None
#     Edge 19, Type (0, 1), None
#     Edge 20, Type (0, 1), None
#     Edge 21, Type (0, 1), None
#     Edge 22, Type (0, 1), None
#     Edge 23, Type (0, 1), None
#     Edge 24, Type (0, 1), None
#     Edge 25, Type (0, 1), None
#     Edge 26, Type (0, 1), None
#     Edge 27, Type (0, 1), None
#     Edge 28, Type (0, 1), None
#     Edge 29, Type (0, 1), None
#     Edge 30, Type (0, 1), None
#     Edge 31, Type (0, 1), None
#     Edge 32, Type (0, 1), None
#     Edge 33, Type (0, 1), None
#     Edge 34, Type (0, 1), None
#     Edge 35, Type (0, 1), None
# Relax obj value: 0.035
# Max RMSD: 0.292
# Mean RMSD: 0.196
data_MOF--net-apo--node1-KUMBUR_clean_sbu_1--node2-INOVEN_clean_linker_0--edge1-none
_symmetry_space_group_name_H-M    P1
_symmetry_Int_Tables_number       1
_symmetry_cell_setting            triclinic
loop_
_symmetry_equiv_pos_as_xyz
'x, y, z'
_cell_length_a     12.388041
_cell_length_b     18.654743
_cell_length_c     26.444132
_cell_angle_alpha  89.268886
_cell_angle_beta   89.369432
_cell_angle_gamma 89.951193
loop_
_atom_site_label
_atom_site_type_symbol
_atom_site_fract_x
_atom_site_fract_y
_atom_site_fract_z
_atom_type_partial_charge
H0 H 0.17926 0.33306 0.4577 0.0
H1 H 0.35492 0.5211 0.41408 0.0
H2 H 0.3008 0.35593 0.30478 0.0
N3 N 0.17983 0.27203 0.36971 0.0
N4 N 0.1823 0.24663 0.32663 0.0
C5 C 0.22337 0.36343 0.42899 0.0
C6 C 0.26677 0.42987 0.44039 0.0
C7 C 0.23382 0.33677 0.38027 0.0
C8 C 0.29178 0.37642 0.34271 0.0
C9 C 0.33662 0.44336 0.3546 0.0
C10 C 0.32222 0.46952 0.40365 0.0
H11 H 0.37184 0.17388 0.95781 0.0
H12 H 0.14933 0.00324 0.92828 0.0
H13 H 0.24649 0.14611 0.80783 0.0
N14 N 0.37706 0.22938 0.86521 0.0
N15 N 0.36509 0.25738 0.82258 0.0
C16 C 0.32029 0.14588 0.93176 0.0
C17 C 0.2598 0.0866 0.94862 0.0
C18 C 0.31548 0.1685 0.88105 0.0
C19 C 0.25019 0.13007 0.84717 0.0
C20 C 0.1897 0.07068 0.86443 0.0
C21 C 0.19411 0.04996 0.9151 0.0
H22 H 0.7254 0.19612 0.62887 0.0
H23 H 0.86077 -0.01445 0.64926 0.0
H24 H 0.84679 0.13039 0.77411 0.0
N25 N 0.7442 0.23424 0.72743 0.0
N26 N 0.66557 0.26675 0.70951 0.0
C27 C 0.76371 0.15639 0.65296 0.0
C28 C 0.793 0.08969 0.63297 0.0
C29 C 0.78222 0.17086 0.70441 0.0
C30 C 0.83038 0.11882 0.73495 0.0
C31 C 0.85557 0.05158 0.71546 0.0
C32 C 0.83834 0.03728 0.66448 0.0
H33 H 0.83467 0.30991 0.10377 0.0
H34 H 0.65926 0.50295 0.13106 0.0
H35 H 0.71781 0.35459 0.25457 0.0
N36 N 0.8394 0.2617 0.19699 0.0
N37 N 0.85425 0.24733 0.24255 0.0
C38 C 0.78864 0.3433 0.12944 0.0
C39 C 0.74333 0.40736 0.11151 0.0
C40 C 0.78116 0.32383 0.1808 0.0
C41 C 0.72414 0.36905 0.21488 0.0
C42 C 0.67843 0.43423 0.19739 0.0
C43 C 0.68952 0.45226 0.14546 0.0
H44 H 0.82778 0.71456 0.60789 0.0
H45 H 0.65851 0.51739 0.63038 0.0
H46 H 0.72414 0.65199 0.7581 0.0
N47 N 0.84068 0.75117 0.70285 0.0
N48 N 0.84779 0.76533 0.74866 0.0
C49 C 0.78409 0.67804 0.6329 0.0
C50 C 0.73703 0.61635 0.61312 0.0
C51 C 0.78116 0.69119 0.68502 0.0
C52 C 0.72773 0.64176 0.71801 0.0
C53 C 0.68173 0.57837 0.69888 0.0
C54 C 0.68783 0.56683 0.64617 0.0
H55 H 0.83133 0.86588 0.27488 0.0
H56 H 0.85877 0.0128 0.14812 0.0
H57 H 0.71372 0.8071 0.12886 0.0
N58 N 0.72397 0.7678 0.22794 0.0
N59 N 0.64595 0.73671 0.20888 0.0
C60 C 0.82012 0.87885 0.23532 0.0
C61 C 0.85115 0.94567 0.21584 0.0
C62 C 0.76908 0.82948 0.20458 0.0
C63 C 0.75486 0.84493 0.1527 0.0
C64 C 0.79149 0.91015 0.13185 0.0
C65 C 0.83714 0.96077 0.16383 0.0
H66 H 0.336 0.80383 0.457 0.0
H67 H 0.17099 0.00251 0.43315 0.0
H68 H 0.23106 0.86252 0.30722 0.0
N69 N 0.3453 0.76354 0.3624 0.0
N70 N 0.33759 0.74102 0.31836 0.0
C71 C 0.29351 0.84028 0.4319 0.0
C72 C 0.24829 0.90321 0.45121 0.0
C73 C 0.28923 0.82542 0.38001 0.0
C74 C 0.23607 0.87414 0.347 0.0
C75 C 0.19282 0.93896 0.36557 0.0
C76 C 0.20075 0.95256 0.41784 0.0
H77 H 0.3323 0.63886 0.79435 0.0
H78 H 0.38021 0.48751 0.91597 0.0
H79 H 0.19185 0.67798 0.94031 0.0
N80 N 0.21108 0.7262 0.84249 0.0
N81 N 0.16966 0.77607 0.86656 0.0
C82 C 0.32092 0.6224 0.83339 0.0
C83 C 0.36523 0.55828 0.8512 0.0
C84 C 0.25924 0.66558 0.86498 0.0
C85 C 0.24178 0.64542 0.91574 0.0
C86 C 0.28576 0.58078 0.93375 0.0
C87 C 0.34785 0.53778 0.90167 0.0
Tb88 Tb 0.11259 0.06953 0.22302 0.0
C89 C 0.68809 0.01996 0.34565 0.0
N90 N 0.74343 0.08308 0.34273 0.0
C91 C 0.57518 0.14784 0.34137 0.0
C92 C 0.57408 0.01869 0.3449 0.0
C93 C 0.6879 0.14664 0.3419 0.0
C94 C 0.51795 0.08362 0.3427 0.0
C95 C 0.68904 0.89174 0.36346 0.0
C96 C 0.74462 0.95706 0.35601 0.0
C97 C 0.57663 0.88969 0.35813 0.0
C98 C 0.51921 0.95312 0.34934 0.0
Tb99 Tb 0.92643 0.0734 0.35515 0.0
N100 N 0.85328 0.96117 0.36309 0.0
C101 C 0.74729 0.83118 0.37881 0.0
C102 C 0.90902 0.90309 0.38112 0.0
C103 C 0.85756 0.83701 0.38812 0.0
H104 H 0.72958 0.19706 0.3437 0.0
H105 H 0.90249 0.79098 0.40168 0.0
H106 H 0.04359 0.90273 0.19674 0.0
H107 H 0.5062 0.19745 0.22732 0.0
H108 H 0.99273 0.90788 0.39044 0.0
H109 H 0.70698 0.78045 0.38555 0.0
H110 H 0.30925 0.19515 0.23089 0.0
H111 H 0.53239 0.19846 0.34069 0.0
H112 H 0.53309 0.8398 0.36308 0.0
H113 H 0.43208 0.95141 0.34766 0.0
H114 H 0.13436 0.78827 0.18283 0.0
H115 H 0.43045 0.08478 0.34281 0.0
H116 H 0.60911 0.0844 0.22226 0.0
N117 N 0.18516 0.95729 0.21909 0.0
C118 C 0.29511 0.95462 0.22179 0.0
C119 C 0.18036 0.83357 0.1956 0.0
C120 C 0.35094 0.8897 0.21377 0.0
C121 C 0.12829 0.89867 0.20389 0.0
C122 C 0.29194 0.82857 0.20153 0.0
N123 N 0.29641 0.08114 0.23124 0.0
C124 C 0.35136 0.1449 0.23069 0.0
C125 C 0.46618 0.01769 0.22479 0.0
C126 C 0.3521 0.0183 0.22758 0.0
C127 C 0.52173 0.08281 0.22478 0.0
C128 C 0.46397 0.14665 0.22775 0.0
H129 H 0.33264 0.77837 0.19394 0.0
H130 H 0.50756 0.83942 0.20863 0.0
H131 H 0.60877 0.95128 0.21842 0.0
O132 O 0.17884 0.12257 0.15895 0.0
O133 O 0.14998 0.15849 0.27009 0.0
O134 O 0.05073 0.15874 0.34677 0.0
O135 O 0.0693 0.03478 0.15064 0.0
O136 O 0.98887 0.15794 0.22729 0.0
O137 O 0.89205 0.16339 0.30473 0.0
O138 O 0.96046 0.04259 0.43051 0.0
O139 O 0.91546 -0.01123 0.29718 0.0
O140 O 0.94136 0.05549 0.22677 0.0
O141 O 0.86088 0.1336 0.41495 0.0
O142 O 0.09755 0.04986 0.35424 0.0
O143 O 0.12607 -0.01518 0.28347 0.0
C144 C 0.12556 0.18407 0.31457 0.0
C145 C 0.20276 0.05077 0.08678 0.0
C146 C 0.26966 0.05768 1.00008 0.0
C147 C 0.32553 -0.00693 1.00723 0.0
C148 C 0.25845 -0.01429 0.09296 0.0
C149 C 0.32093 0.95769 0.0538 0.0
C150 C 0.20935 0.08703 0.04003 0.0
C151 C 0.91518 0.18675 0.25867 0.0
C152 C 0.13326 0.07975 0.12732 0.0
C153 C 0.46397 0.88875 0.21453 0.0
C154 C 0.52147 0.95252 0.21983 0.0
C155 C 0.89996 -0.00016 0.24865 0.0
C156 C 0.82449 0.07046 0.49108 0.0
C157 C 0.77079 0.07201 0.58008 0.0
C158 C 0.68135 0.02908 0.56939 0.0
C159 C 0.73361 0.02833 0.48118 0.0
C160 C 0.84253 0.09265 0.5409 0.0
C161 C 0.66282 0.00756 0.52001 0.0
C162 C 0.13837 -0.00632 0.33248 0.0
C163 C 0.90001 0.09226 0.45003 0.0
H164 H 0.36966 0.9689 0.97618 0.0
H165 H 0.25158 0.95507 0.12714 0.0
H166 H 0.36287 0.90725 0.05907 0.0
H167 H 0.1636 0.13593 0.03395 0.0
H168 H 0.62662 0.01175 0.59939 0.0
H169 H 0.71695 0.01126 0.4437 0.0
H170 H 0.91275 0.12485 0.54934 0.0
H171 H 0.594 0.97419 0.51178 0.0
Tb172 Tb 0.41895 0.43905 0.71062 0.0
C173 C 0.86393 0.36422 0.84017 0.0
N174 N 0.76014 0.3408 0.8403 0.0
C175 C 0.81969 0.2211 0.85889 0.0
C176 C 0.95031 0.31618 0.84839 0.0
C177 C 0.73668 0.27045 0.85034 0.0
C178 C 0.92701 0.24368 0.85698 0.0
C179 C 0.98949 0.46387 0.83884 0.0
C180 C 0.88313 0.43714 0.83497 0.0
C181 C 0.07597 0.41606 0.8456 0.0
C182 C 0.05646 0.34235 0.85016 0.0
Tb183 Tb 0.63079 0.42718 0.83415 0.0
N184 N 0.79726 0.48214 0.83011 0.0
C185 C 1.00578 0.53797 0.83702 0.0
C186 C 0.81299 0.55486 0.8322 0.0
C187 C 0.91708 0.58366 0.83373 0.0
H188 H 0.65386 0.25258 0.85259 0.0
H189 H 0.92865 0.64115 0.83392 0.0
H190 H 0.46747 0.60892 0.68284 0.0
H191 H 0.04426 0.29008 0.7229 0.0
H192 H 0.74533 0.5912 0.83498 0.0
H193 H 0.08617 0.56039 0.83926 0.0
H194 H 0.24105 0.30385 0.71934 0.0
H195 H 0.80093 0.16596 0.86799 0.0
H196 H 0.15808 0.43567 0.84806 0.0
H197 H 0.12377 0.30619 0.85619 0.0
H198 H 0.36066 0.71833 0.66673 0.0
H199 H 0.99094 0.20518 0.86391 0.0
H200 H 0.92673 0.39701 0.72078 0.0
N201 N 0.33256 0.54715 0.70824 0.0
C202 C 0.22301 0.54416 0.71319 0.0
C203 C 0.32148 0.67036 0.6812 0.0
C204 C 0.15915 0.60571 0.70461 0.0
C205 C 0.38195 0.60858 0.69072 0.0
C206 C 0.20993 0.66935 0.68922 0.0
N207 N 0.2378 0.41816 0.72219 0.0
C208 C 0.19175 0.35134 0.72197 0.0
C209 C 0.0605 0.47174 0.71918 0.0
C210 C 0.17425 0.4776 0.72011 0.0
C211 C 1.01364 0.40357 0.72133 0.0
C212 C 0.07965 0.34313 0.72263 0.0
H213 H 0.16307 0.71707 0.68108 0.0
H214 H 0.99669 0.64735 0.70075 0.0
H215 H 0.9098 0.53006 0.71355 0.0
O216 O 0.46407 0.47526 0.63766 0.0
O217 O 0.39031 0.34904 0.76369 0.0
O218 O 0.50632 0.34124 0.83405 0.0
O219 O 0.35287 0.38837 0.64736 0.0
O220 O 0.52328 0.34501 0.71608 0.0
O221 O 0.67516 0.3605 0.76851 0.0
O222 O 0.62684 0.49843 0.8958 0.0
O223 O 0.63525 0.5223 0.78175 0.0
O224 O 0.58926 0.4661 0.70959 0.0
O225 O 0.63229 0.38496 0.90855 0.0
O226 O 0.46041 0.45028 0.83253 0.0
O227 O 0.41422 0.52192 0.76786 0.0
C228 C 0.42421 0.31855 0.80618 0.0
C229 C 0.32797 0.46284 0.57619 0.0
C230 C 0.25816 0.45839 0.4912 0.0
C231 C 0.19778 0.5207 0.49956 0.0
C232 C 0.26743 0.52548 0.584 0.0
C233 C 0.20164 0.55375 0.54628 0.0
C234 C 0.32189 0.42893 0.5296 0.0
C235 C 0.62012 0.32738 0.73268 0.0
C236 C 0.39856 0.432 0.61526 0.0
C237 C 0.04633 0.60047 0.70687 0.0
C238 C 0.99704 0.53364 0.71385 0.0
C239 C 0.62986 0.52169 0.73188 0.0
C240 C 0.71343 0.45586 0.97123 0.0
C241 C 0.76656 0.43343 0.05926 0.0
C242 C 0.864 0.46955 0.04966 0.0
C243 C 0.81104 0.49267 0.96317 0.0
C244 C 0.69111 0.42665 1.01989 0.0
C245 C 0.88563 0.49924 1.00198 0.0
C246 C 0.42309 0.51097 0.81631 0.0
C247 C 0.63459 0.44729 0.92967 0.0
H248 H 0.15009 0.54446 0.46959 0.0
H249 H 0.2716 0.55368 0.61841 0.0
H250 H 0.15586 0.60226 0.5529 0.0
H251 H 0.37002 0.38143 0.52243 0.0
H252 H 0.9225 0.47594 0.07947 0.0
H253 H 0.82997 0.51698 0.92717 0.0
H254 H 0.61538 0.39914 1.02718 0.0
H255 H 0.96008 0.52822 0.99514 0.0
Tb256 Tb 0.13501 0.91796 0.7348 0.0
C257 C 0.67719 0.89372 0.86923 0.0
N258 N 0.74044 0.95028 0.85535 0.0
C259 C 0.58295 0.02524 0.84867 0.0
C260 C 0.56367 0.90021 0.87182 0.0
C261 C 0.69491 0.01583 0.84563 0.0
C262 C 0.51687 0.96701 0.86133 0.0
C263 C 0.66414 0.77126 0.90078 0.0
C264 C 0.72669 0.83054 0.88449 0.0
C265 C 0.55092 0.77599 0.90024 0.0
C266 C 0.50082 0.84054 0.88625 0.0
Tb267 Tb 0.92294 0.93125 0.86046 0.0
N268 N 0.83628 0.82848 0.88585 0.0
C269 C 0.71727 0.70999 0.91891 0.0
C270 C 0.88815 0.77062 0.90671 0.0
C271 C 0.82966 0.71015 0.92263 0.0
H272 H 0.74542 0.06116 0.83642 0.0
H273 H 0.87126 0.66387 0.93805 0.0
H274 H 0.27504 0.76768 0.75648 0.0
H275 H 0.26488 0.1877 0.69032 0.0
H276 H 0.97474 0.77103 0.91053 0.0
H277 H 0.67221 0.66322 0.9316 0.0
H278 H 0.13239 0.09183 0.70394 0.0
H279 H 0.5477 0.07734 0.84105 0.0
H280 H 0.50145 0.7308 0.91214 0.0
H281 H 0.4135 0.84416 0.88758 0.0
H282 H 0.46541 0.73234 0.76584 0.0
H283 H 0.43013 0.97437 0.86337 0.0
H284 H 0.4592 0.1642 0.70259 0.0
N285 N 0.30823 0.87862 0.74782 0.0
C286 C 0.38652 0.92926 0.74252 0.0
C287 C 0.44427 0.78801 0.75952 0.0
C288 C 0.49702 0.91072 0.74413 0.0
C289 C 0.33598 0.8085 0.7554 0.0
C290 C 0.52526 0.83926 0.7535 0.0
N291 N 0.24892 0.01411 0.72737 0.0
C292 C 0.2161 0.08067 0.71153 0.0
C293 C 0.4348 0.05276 0.72357 0.0
C294 C 0.35595 -0.00058 0.73251 0.0
C295 C 0.40107 0.12184 0.70994 0.0
C296 C 0.29141 0.13546 0.70317 0.0
H297 H 0.60914 0.82302 0.75559 0.0
H298 H 0.6608 0.95029 0.73627 0.0
H299 H 0.60587 0.07476 0.71855 0.0
O300 O 0.09141 0.94731 0.66023 0.0
O301 O 0.18334 0.98221 0.80013 0.0
O302 O 0.02243 0.02295 0.83565 0.0
O303 O 0.19922 0.85985 0.67315 0.0
O304 O 0.01857 0.00313 0.74024 0.0
O305 O 0.86611 0.97678 0.78826 0.0
O306 O 0.95739 0.91516 0.93816 0.0
O307 O 0.90766 0.8347 0.81499 0.0
O308 O 0.98251 0.85382 0.73394 0.0
O309 O 0.88105 0.01168 0.9123 0.0
O310 O 0.08763 0.88909 0.86402 0.0
O311 O 0.12127 0.82976 0.78929 0.0
C312 C 0.12828 0.02553 0.83001 0.0
C313 C 0.2212 0.92405 0.59509 0.0
C314 C 0.26724 0.92433 0.50432 0.0
C315 C 0.3485 0.97472 0.51305 0.0
C316 C 0.30374 0.97422 0.60207 0.0
C317 C 0.36668 -0.00073 0.56164 0.0
C318 C 0.20335 0.89868 0.54554 0.0
C319 C 0.91407 0.00019 0.74634 0.0
C320 C 0.15295 0.89954 0.6389 0.0
C321 C 0.57571 0.96367 0.73544 0.0
C322 C 0.54459 0.03458 0.72553 0.0
C323 C 0.91195 0.82309 0.76597 0.0
C324 C 0.82191 0.96459 0.99227 0.0
C325 C 0.76661 0.93058 0.07888 0.0
C326 C 0.65926 0.94645 0.06691 0.0
C327 C 0.71382 0.98267 0.98241 0.0
C328 C 0.84828 0.93955 0.04139 0.0
C329 C 0.63353 0.97291 1.01912 0.0
C330 C 0.12415 0.83364 0.83912 0.0
C331 C 0.90611 0.97281 0.95172 0.0
H332 H 0.39748 -0.00446 0.48198 0.0
H333 H 0.31962 -0.00498 0.63853 0.0
H334 H 0.42916 0.03855 0.568 0.0
H335 H 0.13939 0.86044 0.53896 0.0
H336 H 0.59573 0.94065 0.09519 0.0
H337 H 0.69057 0.00526 0.94652 0.0
H338 H 0.9315 0.92749 0.05049 0.0
H339 H 0.55121 -0.0128 1.01064 0.0
Tb340 Tb 0.40275 0.56024 0.20959 0.0
C341 C 0.7955 0.46404 0.33987 0.0
N342 N 0.68629 0.46428 0.34655 0.0
C343 C 0.69085 0.34218 0.37588 0.0
C344 C 0.8559 0.40141 0.34936 0.0
C345 C 0.63416 0.40561 0.36657 0.0
C346 C 0.80194 0.33966 0.3664 0.0
C347 C 0.96138 0.53189 0.32924 0.0
C348 C 0.84756 0.52861 0.32823 0.0
C349 C 0.02138 0.46868 0.33562 0.0
C350 C 0.9686 0.40346 0.34482 0.0
Tb351 Tb 0.60586 0.57285 0.33456 0.0
N352 N 0.78737 0.58942 0.32331 0.0
C353 C 1.01166 0.59896 0.32655 0.0
C354 C 0.83651 0.65515 0.32152 0.0
C355 C 0.94888 0.66083 0.32273 0.0
H356 H 0.54893 0.40792 0.37505 0.0
H357 H 0.98699 0.71304 0.32134 0.0
H358 H 0.2089 0.68398 0.21264 0.0
H359 H 0.38688 0.27934 0.16809 0.0
H360 H 0.78905 0.70368 0.32094 0.0
H361 H 0.09879 0.60359 0.32799 0.0
H362 H 0.47593 0.39502 0.18189 0.0
H363 H 0.64911 0.29579 0.39132 0.0
H364 H 0.10864 0.4702 0.33494 0.0
H365 H 0.01549 0.35545 0.3509 0.0
H366 H 1.01076 0.68667 0.20716 0.0
H367 H 0.84624 0.29088 0.3747 0.0
H368 H 0.18924 0.2683 0.18077 0.0
N369 N 0.2196 0.57053 0.21712 0.0
C370 C 0.16486 0.50758 0.21484 0.0
C371 C 0.05299 0.63597 0.20984 0.0
C372 C 0.05137 0.50678 0.21115 0.0
C373 C 0.16527 0.63428 0.2141 0.0
C374 C 0.99556 0.57189 0.20873 0.0
N375 N 0.33247 0.44786 0.20569 0.0
C376 C 0.39086 0.39006 0.18947 0.0
C377 C 0.16876 0.37904 0.20188 0.0
C378 C 0.223 0.44414 0.20988 0.0
C379 C 0.22891 0.31864 0.1885 0.0
C380 C 0.34028 0.32458 0.18131 0.0
H381 H 0.90845 0.57324 0.2053 0.0
H382 H 0.9107 0.44041 0.20491 0.0
H383 H 1.0144 0.328 0.19629 0.0
O384 O 0.44852 0.52633 0.13668 0.0
O385 O 0.3957 0.47627 0.26928 0.0
O386 O 0.43631 0.54854 0.33352 0.0
O387 O 0.33927 0.61426 0.1462 0.0
O388 O 0.57465 0.54101 0.20955 0.0
O389 O 0.62043 0.48127 0.28072 0.0
O390 O 0.66124 0.6394 0.39268 0.0
O391 O 0.64421 0.64945 0.2734 0.0
O392 O 0.50661 0.65488 0.21219 0.0
O393 O 0.57433 0.54394 0.41122 0.0
O394 O 0.48455 0.66069 0.328 0.0
O395 O 0.35975 0.64714 0.26172 0.0
C396 C 0.3982 0.48824 0.31783 0.0
C397 C 0.31865 0.54606 0.07291 0.0
C398 C 0.26406 0.55465 0.98522 0.0
C399 C 0.1928 0.4971 0.99286 0.0
C400 C 0.24785 0.48801 0.07992 0.0
C401 C 0.18418 0.46428 0.04033 0.0
C402 C 0.32597 0.57961 1.02534 0.0
C403 C 0.61905 0.48562 0.23098 0.0
C404 C 0.38632 0.57242 0.11403 0.0
C405 C 0.9974 0.44136 0.20701 0.0
C406 C 0.05599 0.37764 0.20254 0.0
C407 C 0.59694 0.67732 0.23292 0.0
C408 C 0.70376 0.584 0.47118 0.0
C409 C 0.75799 0.59622 0.5598 0.0
C410 C 0.85684 0.56339 0.54818 0.0
C411 C 0.80328 0.55096 0.46123 0.0
C412 C 0.68084 0.60632 0.52118 0.0
C413 C 0.8789 0.54059 0.49925 0.0
C414 C 0.3971 0.68014 0.30202 0.0
C415 C 0.6267 0.59815 0.42929 0.0
H416 H 0.14623 0.47649 0.96177 0.0
H417 H 0.24274 0.46005 0.11532 0.0
H418 H 0.13007 0.41931 0.04615 0.0
H419 H 0.3826 0.62323 1.019 0.0
H420 H 0.91662 0.55467 0.57728 0.0
H421 H 0.82355 0.53345 0.42409 0.0
H422 H 0.6043 0.63174 0.5299 0.0
H423 H 0.95497 0.51471 0.49066 0.0
loop_
_geom_bond_atom_site_label_1
_geom_bond_atom_site_label_2
_geom_bond_distance
_geom_bond_site_symmetry_2
_ccdc_geom_bond_type
H0 C5 0.929 . S
H1 C10 0.931 . S
H2 C8 0.930 . S
N3 N4 1.234 . S
N3 C7 1.453 . S
N4 N3 1.234 . S
C5 H0 0.929 . S
C5 C6 1.373 . S
C5 C7 1.368 . S
C6 C5 1.373 . S
C6 C10 1.397 . S
C7 N3 1.453 . S
C7 C5 1.368 . S
C7 C8 1.373 . S
C8 H2 0.930 . S
C8 C7 1.373 . S
C8 C9 1.371 . S
C9 C8 1.371 . S
C9 C10 1.383 . S
C10 H1 0.931 . S
C10 C6 1.397 . S
C10 C9 1.383 . S
H11 C16 0.929 . S
H12 C21 0.931 . S
H13 C19 0.930 . S
N14 N15 1.234 . S
N14 C18 1.453 . S
N15 N14 1.234 . S
C16 H11 0.929 . S
C16 C17 1.373 . S
C16 C18 1.368 . S
C17 C16 1.373 . S
C17 C21 1.397 . S
C18 N14 1.453 . S
C18 C16 1.368 . S
C18 C19 1.373 . S
C19 H13 0.930 . S
C19 C18 1.373 . S
C19 C20 1.371 . S
C20 C19 1.371 . S
C20 C21 1.383 . S
C21 H12 0.931 . S
C21 C17 1.397 . S
C21 C20 1.383 . S
H22 C27 0.929 . S
H23 C32 0.931 . S
H24 C30 0.930 . S
N25 N26 1.234 . S
N25 C29 1.453 . S
N26 N25 1.234 . S
C27 H22 0.929 . S
C27 C28 1.373 . S
C27 C29 1.368 . S
C28 C27 1.373 . S
C28 C32 1.397 . S
C29 N25 1.453 . S
C29 C27 1.368 . S
C29 C30 1.373 . S
C30 H24 0.930 . S
C30 C29 1.373 . S
C30 C31 1.371 . S
C31 C30 1.371 . S
C31 C32 1.383 . S
C32 H23 0.931 . S
C32 C28 1.397 . S
C32 C31 1.383 . S
H33 C38 0.929 . S
H34 C43 0.931 . S
H35 C41 0.930 . S
N36 N37 1.234 . S
N36 C40 1.453 . S
N37 N36 1.234 . S
C38 H33 0.929 . S
C38 C39 1.373 . S
C38 C40 1.368 . S
C39 C38 1.373 . S
C39 C43 1.397 . S
C40 N36 1.453 . S
C40 C38 1.368 . S
C40 C41 1.373 . S
C41 H35 0.930 . S
C41 C40 1.373 . S
C41 C42 1.371 . S
C42 C41 1.371 . S
C42 C43 1.383 . S
C43 H34 0.931 . S
C43 C39 1.397 . S
C43 C42 1.383 . S
H44 C49 0.929 . S
H45 C54 0.931 . S
H46 C52 0.930 . S
N47 N48 1.234 . S
N47 C51 1.453 . S
N48 N47 1.234 . S
C49 H44 0.929 . S
C49 C50 1.373 . S
C49 C51 1.368 . S
C50 C49 1.373 . S
C50 C54 1.397 . S
C51 N47 1.453 . S
C51 C49 1.368 . S
C51 C52 1.373 . S
C52 H46 0.930 . S
C52 C51 1.373 . S
C52 C53 1.371 . S
C53 C52 1.371 . S
C53 C54 1.383 . S
C54 H45 0.931 . S
C54 C50 1.397 . S
C54 C53 1.383 . S
H55 C60 0.929 . S
H56 C65 0.931 . S
H57 C63 0.930 . S
N58 N59 1.234 . S
N58 C62 1.453 . S
N59 N58 1.234 . S
C60 H55 0.929 . S
C60 C61 1.373 . S
C60 C62 1.368 . S
C61 C60 1.373 . S
C61 C65 1.397 . S
C62 N58 1.453 . S
C62 C60 1.368 . S
C62 C63 1.373 . S
C63 H57 0.930 . S
C63 C62 1.373 . S
C63 C64 1.371 . S
C64 C63 1.371 . S
C64 C65 1.383 . S
C65 H56 0.931 . S
C65 C61 1.397 . S
C65 C64 1.383 . S
H66 C71 0.929 . S
H67 C76 0.931 . S
H68 C74 0.930 . S
N69 N70 1.234 . S
N69 C73 1.453 . S
N70 N69 1.234 . S
C71 H66 0.929 . S
C71 C72 1.373 . S
C71 C73 1.368 . S
C72 C71 1.373 . S
C72 C76 1.397 . S
C73 N69 1.453 . S
C73 C71 1.368 . S
C73 C74 1.373 . S
C74 H68 0.930 . S
C74 C73 1.373 . S
C74 C75 1.371 . S
C75 C74 1.371 . S
C75 C76 1.383 . S
C76 H67 0.931 . S
C76 C72 1.397 . S
C76 C75 1.383 . S
H77 C82 0.929 . S
H78 C87 0.931 . S
H79 C85 0.930 . S
N80 N81 1.234 . S
N80 C84 1.453 . S
N81 N80 1.234 . S
C82 H77 0.929 . S
C82 C83 1.373 . S
C82 C84 1.368 . S
C83 C82 1.373 . S
C83 C87 1.397 . S
C84 N80 1.453 . S
C84 C82 1.368 . S
C84 C85 1.373 . S
C85 H79 0.930 . S
C85 C84 1.373 . S
C85 C86 1.371 . S
C86 C85 1.371 . S
C86 C87 1.383 . S
C87 H78 0.931 . S
C87 C83 1.397 . S
C87 C86 1.383 . S
Tb88 N117 2.617 . S
Tb88 N123 2.572 . S
Tb88 O132 2.465 . S
Tb88 O133 2.387 . S
Tb88 O135 2.428 . S
Tb88 O136 2.308 . S
Tb88 O140 2.349 1_455 S
Tb88 O143 2.393 1_545 S
Tb88 C152 2.802 . S
C89 N90 1.379 . S
C89 C92 1.416 . S
C89 C96 1.424 1_545 S
N90 C89 1.379 . S
N90 C93 1.334 . S
N90 Tb99 2.617 . S
C91 C93 1.390 . S
C91 C94 1.339 . S
C91 H111 0.930 . S
C92 C89 1.416 . S
C92 C94 1.416 . S
C92 C98 1.448 1_545 S
C93 N90 1.334 . S
C93 C91 1.390 . S
C93 H104 0.930 . S
C94 C91 1.339 . S
C94 C92 1.416 . S
C94 H115 0.930 . S
C95 C96 1.413 . S
C95 C97 1.427 . S
C95 C101 1.416 . S
C96 C89 1.424 1_565 S
C96 C95 1.413 . S
C96 N100 1.361 . S
C97 C95 1.427 . S
C97 C98 1.328 . S
C97 H112 0.929 . S
C98 C92 1.448 1_565 S
C98 C97 1.328 . S
C98 H113 0.930 . S
Tb99 N90 2.617 . S
Tb99 N100 2.572 1_545 S
Tb99 O134 2.349 1_655 S
Tb99 O137 2.393 . S
Tb99 O138 2.465 . S
Tb99 O139 2.387 . S
Tb99 O141 2.428 . S
Tb99 O142 2.308 1_655 S
Tb99 C163 2.802 . S
N100 C96 1.361 . S
N100 Tb99 2.572 1_565 S
N100 C102 1.340 . S
C101 C95 1.416 . S
C101 C103 1.332 . S
C101 H109 0.931 . S
C102 N100 1.340 . S
C102 C103 1.407 . S
C102 H108 0.930 . S
C103 C101 1.332 . S
C103 C102 1.407 . S
C103 H105 0.929 . S
H104 C93 0.930 . S
H105 C103 0.929 . S
H106 C121 0.930 1_565 S
H107 C128 0.929 . S
H108 C102 0.930 . S
H109 C101 0.931 . S
H110 C124 0.930 . S
H111 C91 0.930 . S
H112 C97 0.929 . S
H113 C98 0.930 . S
H114 C119 0.930 1_565 S
H115 C94 0.930 . S
H116 C127 0.931 . S
N117 Tb88 2.617 . S
N117 C118 1.379 . S
N117 C121 1.334 . S
C118 N117 1.379 . S
C118 C120 1.416 . S
C118 C126 1.424 . S
C119 H114 0.930 1_545 S
C119 C121 1.390 . S
C119 C122 1.339 . S
C120 C118 1.416 . S
C120 C122 1.416 . S
C120 C153 1.448 . S
C121 H106 0.930 1_545 S
C121 N117 1.334 . S
C121 C119 1.390 . S
C122 C119 1.339 . S
C122 C120 1.416 . S
C122 H129 0.930 . S
N123 Tb88 2.572 . S
N123 C124 1.340 . S
N123 C126 1.361 . S
C124 H110 0.930 . S
C124 N123 1.340 . S
C124 C128 1.407 . S
C125 C126 1.413 . S
C125 C127 1.416 . S
C125 C154 1.427 . S
C126 C118 1.424 . S
C126 N123 1.361 . S
C126 C125 1.413 . S
C127 H116 0.931 . S
C127 C125 1.416 . S
C127 C128 1.332 . S
C128 H107 0.929 . S
C128 C124 1.407 . S
C128 C127 1.332 . S
H129 C122 0.930 . S
H130 C153 0.930 . S
H131 C154 0.929 . S
O132 Tb88 2.465 . S
O132 C152 1.264 . S
O133 Tb88 2.387 . S
O133 C144 1.264 . S
O134 Tb99 2.349 1_455 S
O134 C144 1.243 . S
O135 Tb88 2.428 . S
O135 C152 1.256 . S
O136 Tb88 2.308 . S
O136 C151 1.266 1_455 S
O137 Tb99 2.393 . S
O137 C151 1.248 . S
O138 Tb99 2.465 . S
O138 C163 1.264 . S
O139 Tb99 2.387 . S
O139 C155 1.264 1_545 S
O140 Tb88 2.349 1_655 S
O140 C155 1.243 1_545 S
O141 Tb99 2.428 . S
O141 C163 1.256 . S
O142 Tb99 2.308 1_455 S
O142 C162 1.266 1_545 S
O143 Tb88 2.393 1_565 S
O143 C162 1.248 . S
C144 O133 1.264 . S
C144 O134 1.243 . S
C145 C148 1.399 1_545 S
C145 C150 1.383 . S
C145 C152 1.496 . S
C146 C147 1.399 . S
C146 C150 1.389 1_556 S
C147 C146 1.399 . S
C147 C149 1.380 1_546 S
C147 H164 0.929 1_545 S
C148 C145 1.399 1_565 S
C148 C149 1.392 . S
C148 H165 0.929 . S
C149 C147 1.380 1_564 S
C149 C148 1.392 . S
C149 H166 0.929 1_554 S
C150 C145 1.383 . S
C150 C146 1.389 1_554 S
C150 H167 0.931 . S
C151 O136 1.266 1_655 S
C151 O137 1.248 . S
C152 Tb88 2.802 . S
C152 O132 1.264 . S
C152 O135 1.256 . S
C152 C145 1.496 . S
C153 C120 1.448 . S
C153 H130 0.930 . S
C153 C154 1.328 . S
C154 C125 1.427 . S
C154 H131 0.929 . S
C154 C153 1.328 . S
C155 O139 1.264 1_565 S
C155 O140 1.243 1_565 S
C156 C159 1.399 . S
C156 C160 1.383 . S
C156 C163 1.496 . S
C157 C158 1.399 . S
C157 C160 1.389 . S
C158 C157 1.399 . S
C158 C161 1.380 . S
C158 H168 0.929 . S
C159 C156 1.399 . S
C159 C161 1.392 . S
C159 H169 0.929 . S
C160 C156 1.383 . S
C160 C157 1.389 . S
C160 H170 0.931 . S
C161 C158 1.380 . S
C161 C159 1.392 . S
C161 H171 0.929 . S
C162 O142 1.266 1_565 S
C162 O143 1.248 . S
C163 Tb99 2.802 . S
C163 O138 1.264 . S
C163 O141 1.256 . S
C163 C156 1.496 . S
H164 C147 0.929 1_565 S
H165 C148 0.929 . S
H166 C149 0.929 1_556 S
H167 C150 0.931 . S
H168 C158 0.929 . S
H169 C159 0.929 . S
H170 C160 0.931 . S
H171 C161 0.929 . S
Tb172 N201 2.617 . S
Tb172 N207 2.572 . S
Tb172 O216 2.465 . S
Tb172 O217 2.387 . S
Tb172 O219 2.428 . S
Tb172 O220 2.308 . S
Tb172 O224 2.349 . S
Tb172 O227 2.393 . S
Tb172 C236 2.802 . S
C173 N174 1.379 . S
C173 C176 1.416 1_655 S
C173 C180 1.424 . S
N174 C173 1.379 . S
N174 C177 1.334 . S
N174 Tb183 2.617 . S
C175 C177 1.390 . S
C175 C178 1.339 1_655 S
C175 H195 0.930 1_655 S
C176 C173 1.416 1_455 S
C176 C178 1.416 . S
C176 C182 1.448 . S
C177 N174 1.334 . S
C177 C175 1.390 . S
C177 H188 0.930 . S
C178 C175 1.339 1_455 S
C178 C176 1.416 . S
C178 H199 0.930 . S
C179 C180 1.413 . S
C179 C181 1.427 1_655 S
C179 C185 1.416 . S
C180 C173 1.424 . S
C180 C179 1.413 . S
C180 N184 1.361 . S
C181 C179 1.427 1_455 S
C181 C182 1.328 . S
C181 H196 0.929 . S
C182 C176 1.448 . S
C182 C181 1.328 . S
C182 H197 0.930 . S
Tb183 N174 2.617 . S
Tb183 N184 2.572 . S
Tb183 O218 2.349 . S
Tb183 O221 2.393 . S
Tb183 O222 2.465 . S
Tb183 O223 2.387 . S
Tb183 O225 2.428 . S
Tb183 O226 2.308 . S
Tb183 C247 2.802 . S
N184 C180 1.361 . S
N184 Tb183 2.572 . S
N184 C186 1.340 . S
C185 C179 1.416 . S
C185 C187 1.332 . S
C185 H193 0.931 . S
C186 N184 1.340 . S
C186 C187 1.407 . S
C186 H192 0.930 . S
C187 C185 1.332 . S
C187 C186 1.407 . S
C187 H189 0.929 . S
H188 C177 0.930 . S
H189 C187 0.929 . S
H190 C205 0.930 . S
H191 C212 0.929 . S
H192 C186 0.930 . S
H193 C185 0.931 . S
H194 C208 0.930 . S
H195 C175 0.930 1_455 S
H196 C181 0.929 . S
H197 C182 0.930 . S
H198 C203 0.926 1_655 S
H199 C178 0.930 . S
H200 C211 0.931 . S
N201 Tb172 2.617 . S
N201 C202 1.379 . S
N201 C205 1.334 . S
C202 N201 1.379 . S
C202 C204 1.416 . S
C202 C210 1.424 . S
C203 H198 0.926 1_455 S
C203 C205 1.390 . S
C203 C206 1.339 1_455 S
C204 C202 1.416 . S
C204 C206 1.416 1_455 S
C204 C237 1.448 1_455 S
C205 H190 0.930 . S
C205 N201 1.334 . S
C205 C203 1.390 . S
C206 C203 1.339 1_655 S
C206 C204 1.416 1_655 S
C206 H213 0.930 . S
N207 Tb172 2.572 . S
N207 C208 1.340 . S
N207 C210 1.361 . S
C208 H194 0.930 . S
C208 N207 1.340 . S
C208 C212 1.407 . S
C209 C210 1.413 . S
C209 C211 1.416 . S
C209 C238 1.427 . S
C210 C202 1.424 . S
C210 N207 1.361 . S
C210 C209 1.413 . S
C211 H200 0.931 . S
C211 C209 1.416 . S
C211 C212 1.332 . S
C212 H191 0.929 . S
C212 C208 1.407 . S
C212 C211 1.332 . S
H213 C206 0.930 . S
H214 C237 0.930 . S
H215 C238 0.929 1_655 S
O216 Tb172 2.465 . S
O216 C236 1.264 . S
O217 Tb172 2.387 . S
O217 C228 1.264 . S
O218 Tb183 2.349 . S
O218 C228 1.243 . S
O219 Tb172 2.428 . S
O219 C236 1.256 . S
O220 Tb172 2.308 . S
O220 C235 1.266 . S
O221 Tb183 2.393 . S
O221 C235 1.248 . S
O222 Tb183 2.465 . S
O222 C247 1.264 . S
O223 Tb183 2.387 . S
O223 C239 1.264 . S
O224 Tb172 2.349 . S
O224 C239 1.243 . S
O225 Tb183 2.428 . S
O225 C247 1.256 . S
O226 Tb183 2.308 . S
O226 C246 1.266 . S
O227 Tb172 2.393 . S
O227 C246 1.248 . S
C228 O217 1.264 . S
C228 O218 1.243 . S
C229 C232 1.399 . S
C229 C234 1.383 . S
C229 C236 1.496 . S
C230 C231 1.399 . S
C230 C234 1.389 . S
C231 C230 1.399 . S
C231 C233 1.380 . S
C231 H248 0.929 . S
C232 C229 1.399 . S
C232 C233 1.392 . S
C232 H249 0.929 . S
C233 C231 1.380 . S
C233 C232 1.392 . S
C233 H250 0.929 . S
C234 C229 1.383 . S
C234 C230 1.389 . S
C234 H251 0.931 . S
C235 O220 1.266 . S
C235 O221 1.248 . S
C236 Tb172 2.802 . S
C236 O216 1.264 . S
C236 O219 1.256 . S
C236 C229 1.496 . S
C237 C204 1.448 1_655 S
C237 H214 0.930 . S
C237 C238 1.328 1_655 S
C238 C209 1.427 . S
C238 H215 0.929 1_455 S
C238 C237 1.328 1_455 S
C239 O223 1.264 . S
C239 O224 1.243 . S
C240 C243 1.399 . S
C240 C244 1.383 . S
C240 C247 1.496 . S
C241 C242 1.399 . S
C241 C244 1.389 1_554 S
C242 C241 1.399 . S
C242 C245 1.380 . S
C242 H252 0.929 . S
C243 C240 1.399 . S
C243 C245 1.392 1_556 S
C243 H253 0.929 . S
C244 C240 1.383 . S
C244 C241 1.389 1_556 S
C244 H254 0.931 . S
C245 C242 1.380 . S
C245 C243 1.392 1_554 S
C245 H255 0.929 . S
C246 O226 1.266 . S
C246 O227 1.248 . S
C247 Tb183 2.802 . S
C247 O222 1.264 . S
C247 O225 1.256 . S
C247 C240 1.496 . S
H248 C231 0.929 . S
H249 C232 0.929 . S
H250 C233 0.929 . S
H251 C234 0.931 . S
H252 C242 0.929 . S
H253 C243 0.929 . S
H254 C244 0.931 . S
H255 C245 0.929 . S
Tb256 N285 2.617 . S
Tb256 N291 2.572 1_565 S
Tb256 O300 2.465 . S
Tb256 O301 2.387 . S
Tb256 O303 2.428 . S
Tb256 O304 2.308 1_455 S
Tb256 O308 2.349 1_455 S
Tb256 O311 2.393 . S
Tb256 C320 2.802 . S
C257 N258 1.379 . S
C257 C260 1.416 . S
C257 C264 1.424 . S
N258 C257 1.379 . S
N258 C261 1.334 . S
N258 Tb267 2.617 . S
C259 C261 1.390 . S
C259 C262 1.339 . S
C259 H279 0.930 1_565 S
C260 C257 1.416 . S
C260 C262 1.416 . S
C260 C266 1.448 . S
C261 N258 1.334 . S
C261 C259 1.390 . S
C261 H272 0.930 1_565 S
C262 C259 1.339 . S
C262 C260 1.416 . S
C262 H283 0.930 . S
C263 C264 1.413 . S
C263 C265 1.427 . S
C263 C269 1.416 . S
C264 C257 1.424 . S
C264 C263 1.413 . S
C264 N268 1.361 . S
C265 C263 1.427 . S
C265 C266 1.328 . S
C265 H280 0.929 . S
C266 C260 1.448 . S
C266 C265 1.328 . S
C266 H281 0.930 . S
Tb267 N258 2.617 . S
Tb267 N268 2.572 . S
Tb267 O302 2.349 1_655 S
Tb267 O305 2.393 1_565 S
Tb267 O306 2.465 . S
Tb267 O307 2.387 . S
Tb267 O309 2.428 . S
Tb267 O310 2.308 1_655 S
Tb267 C331 2.802 . S
N268 C264 1.361 . S
N268 Tb267 2.572 . S
N268 C270 1.340 . S
C269 C263 1.416 . S
C269 C271 1.332 . S
C269 H277 0.931 . S
C270 N268 1.340 . S
C270 C271 1.407 . S
C270 H276 0.930 . S
C271 C269 1.332 . S
C271 C270 1.407 . S
C271 H273 0.929 . S
H272 C261 0.930 1_545 S
H273 C271 0.929 . S
H274 C289 0.930 . S
H275 C296 0.929 . S
H276 C270 0.930 . S
H277 C269 0.931 . S
H278 C292 0.930 . S
H279 C259 0.930 1_545 S
H280 C265 0.929 . S
H281 C266 0.930 . S
H282 C287 0.930 . S
H283 C262 0.930 . S
H284 C295 0.931 . S
N285 Tb256 2.617 . S
N285 C286 1.379 . S
N285 C289 1.334 . S
C286 N285 1.379 . S
C286 C288 1.416 . S
C286 C294 1.424 1_565 S
C287 H282 0.930 . S
C287 C289 1.390 . S
C287 C290 1.339 . S
C288 C286 1.416 . S
C288 C290 1.416 . S
C288 C321 1.448 1_565 S
C289 H274 0.930 . S
C289 N285 1.334 . S
C289 C287 1.390 . S
C290 C287 1.339 . S
C290 C288 1.416 . S
C290 H297 0.930 . S
N291 Tb256 2.572 1_545 S
N291 C292 1.340 . S
N291 C294 1.361 . S
C292 H278 0.930 . S
C292 N291 1.340 . S
C292 C296 1.407 . S
C293 C294 1.413 . S
C293 C295 1.416 . S
C293 C322 1.427 . S
C294 C286 1.424 1_545 S
C294 N291 1.361 . S
C294 C293 1.413 . S
C295 H284 0.931 . S
C295 C293 1.416 . S
C295 C296 1.332 . S
C296 H275 0.929 . S
C296 C292 1.407 . S
C296 C295 1.332 . S
H297 C290 0.930 . S
H298 C321 0.930 . S
H299 C322 0.929 . S
O300 Tb256 2.465 . S
O300 C320 1.264 . S
O301 Tb256 2.387 . S
O301 C312 1.264 1_565 S
O302 Tb267 2.349 1_455 S
O302 C312 1.243 1_565 S
O303 Tb256 2.428 . S
O303 C320 1.256 . S
O304 Tb256 2.308 1_655 S
O304 C319 1.266 1_565 S
O305 Tb267 2.393 1_545 S
O305 C319 1.248 . S
O306 Tb267 2.465 . S
O306 C331 1.264 . S
O307 Tb267 2.387 . S
O307 C323 1.264 . S
O308 Tb256 2.349 1_655 S
O308 C323 1.243 . S
O309 Tb267 2.428 . S
O309 C331 1.256 . S
O310 Tb267 2.308 1_455 S
O310 C330 1.266 . S
O311 Tb256 2.393 . S
O311 C330 1.248 . S
C312 O301 1.264 1_545 S
C312 O302 1.243 1_545 S
C313 C316 1.399 . S
C313 C318 1.383 . S
C313 C320 1.496 . S
C314 C315 1.399 . S
C314 C318 1.389 . S
C315 C314 1.399 . S
C315 C317 1.380 . S
C315 H332 0.929 . S
C316 C313 1.399 . S
C316 C317 1.392 . S
C316 H333 0.929 . S
C317 C315 1.380 . S
C317 C316 1.392 . S
C317 H334 0.929 . S
C318 C313 1.383 . S
C318 C314 1.389 . S
C318 H335 0.931 . S
C319 O304 1.266 1_545 S
C319 O305 1.248 . S
C320 Tb256 2.802 . S
C320 O300 1.264 . S
C320 O303 1.256 . S
C320 C313 1.496 . S
C321 C288 1.448 1_545 S
C321 H298 0.930 . S
C321 C322 1.328 . S
C322 C293 1.427 . S
C322 H299 0.929 . S
C322 C321 1.328 . S
C323 O307 1.264 . S
C323 O308 1.243 . S
C324 C327 1.399 1_565 S
C324 C328 1.383 . S
C324 C331 1.496 . S
C325 C326 1.399 . S
C325 C328 1.389 1_554 S
C326 C325 1.399 . S
C326 C329 1.380 1_565 S
C326 H336 0.929 1_565 S
C327 C324 1.399 1_545 S
C327 C329 1.392 1_556 S
C327 H337 0.929 . S
C328 C324 1.383 . S
C328 C325 1.389 1_556 S
C328 H338 0.931 . S
C329 C326 1.380 1_545 S
C329 C327 1.392 1_554 S
C329 H339 0.929 . S
C330 O310 1.266 . S
C330 O311 1.248 . S
C331 Tb267 2.802 . S
C331 O306 1.264 . S
C331 O309 1.256 . S
C331 C324 1.496 . S
H332 C315 0.929 . S
H333 C316 0.929 . S
H334 C317 0.929 . S
H335 C318 0.931 . S
H336 C326 0.929 1_545 S
H337 C327 0.929 . S
H338 C328 0.931 . S
H339 C329 0.929 . S
Tb340 N369 2.617 . S
Tb340 N375 2.572 . S
Tb340 O384 2.465 . S
Tb340 O385 2.387 . S
Tb340 O387 2.428 . S
Tb340 O388 2.308 . S
Tb340 O392 2.349 . S
Tb340 O395 2.393 . S
Tb340 C404 2.802 . S
C341 N342 1.379 . S
C341 C344 1.416 . S
C341 C348 1.424 . S
N342 C341 1.379 . S
N342 C345 1.334 . S
N342 Tb351 2.617 . S
C343 C345 1.390 . S
C343 C346 1.339 1_655 S
C343 H363 0.930 1_655 S
C344 C341 1.416 . S
C344 C346 1.416 1_655 S
C344 C350 1.448 1_655 S
C345 N342 1.334 . S
C345 C343 1.390 . S
C345 H356 0.930 . S
C346 C343 1.339 1_455 S
C346 C344 1.416 1_455 S
C346 H367 0.930 . S
C347 C348 1.413 . S
C347 C349 1.427 . S
C347 C353 1.416 . S
C348 C341 1.424 . S
C348 C347 1.413 . S
C348 N352 1.361 . S
C349 C347 1.427 . S
C349 C350 1.328 1_655 S
C349 H364 0.929 1_655 S
C350 C344 1.448 1_455 S
C350 C349 1.328 1_455 S
C350 H365 0.930 . S
Tb351 N342 2.617 . S
Tb351 N352 2.572 . S
Tb351 O386 2.349 . S
Tb351 O389 2.393 . S
Tb351 O390 2.465 . S
Tb351 O391 2.387 . S
Tb351 O393 2.428 . S
Tb351 O394 2.308 . S
Tb351 C415 2.802 . S
N352 C348 1.361 . S
N352 Tb351 2.572 . S
N352 C354 1.340 . S
C353 C347 1.416 . S
C353 C355 1.332 . S
C353 H361 0.931 . S
C354 N352 1.340 . S
C354 C355 1.407 . S
C354 H360 0.930 . S
C355 C353 1.332 . S
C355 C354 1.407 . S
C355 H357 0.929 . S
H356 C345 0.930 . S
H357 C355 0.929 . S
H358 C373 0.930 . S
H359 C380 0.929 . S
H360 C354 0.930 . S
H361 C353 0.931 . S
H362 C376 0.930 . S
H363 C343 0.930 1_455 S
H364 C349 0.929 1_455 S
H365 C350 0.930 . S
H366 C371 0.930 1_655 S
H367 C346 0.930 . S
H368 C379 0.931 . S
N369 Tb340 2.617 . S
N369 C370 1.379 . S
N369 C373 1.334 . S
C370 N369 1.379 . S
C370 C372 1.416 . S
C370 C378 1.424 . S
C371 H366 0.930 1_455 S
C371 C373 1.390 . S
C371 C374 1.339 1_455 S
C372 C370 1.416 . S
C372 C374 1.416 1_455 S
C372 C405 1.448 1_455 S
C373 H358 0.930 . S
C373 N369 1.334 . S
C373 C371 1.390 . S
C374 C371 1.339 1_655 S
C374 C372 1.416 1_655 S
C374 H381 0.930 . S
N375 Tb340 2.572 . S
N375 C376 1.340 . S
N375 C378 1.361 . S
C376 H362 0.930 . S
C376 N375 1.340 . S
C376 C380 1.407 . S
C377 C378 1.413 . S
C377 C379 1.416 . S
C377 C406 1.427 1_455 S
C378 C370 1.424 . S
C378 N375 1.361 . S
C378 C377 1.413 . S
C379 H368 0.931 . S
C379 C377 1.416 . S
C379 C380 1.332 . S
C380 H359 0.929 . S
C380 C376 1.407 . S
C380 C379 1.332 . S
H381 C374 0.930 . S
H382 C405 0.930 . S
H383 C406 0.929 . S
O384 Tb340 2.465 . S
O384 C404 1.264 . S
O385 Tb340 2.387 . S
O385 C396 1.264 . S
O386 Tb351 2.349 . S
O386 C396 1.243 . S
O387 Tb340 2.428 . S
O387 C404 1.256 . S
O388 Tb340 2.308 . S
O388 C403 1.266 . S
O389 Tb351 2.393 . S
O389 C403 1.248 . S
O390 Tb351 2.465 . S
O390 C415 1.264 . S
O391 Tb351 2.387 . S
O391 C407 1.264 . S
O392 Tb340 2.349 . S
O392 C407 1.243 . S
O393 Tb351 2.428 . S
O393 C415 1.256 . S
O394 Tb351 2.308 . S
O394 C414 1.266 . S
O395 Tb340 2.393 . S
O395 C414 1.248 . S
C396 O385 1.264 . S
C396 O386 1.243 . S
C397 C400 1.399 . S
C397 C402 1.383 . S
C397 C404 1.496 . S
C398 C399 1.399 . S
C398 C402 1.389 1_556 S
C399 C398 1.399 . S
C399 C401 1.380 . S
C399 H416 0.929 . S
C400 C397 1.399 . S
C400 C401 1.392 1_554 S
C400 H417 0.929 . S
C401 C399 1.380 . S
C401 C400 1.392 1_556 S
C401 H418 0.929 . S
C402 C397 1.383 . S
C402 C398 1.389 1_554 S
C402 H419 0.931 . S
C403 O388 1.266 . S
C403 O389 1.248 . S
C404 Tb340 2.802 . S
C404 O384 1.264 . S
C404 O387 1.256 . S
C404 C397 1.496 . S
C405 C372 1.448 1_655 S
C405 H382 0.930 . S
C405 C406 1.328 . S
C406 C377 1.427 1_655 S
C406 H383 0.929 . S
C406 C405 1.328 . S
C407 O391 1.264 . S
C407 O392 1.243 . S
C408 C411 1.399 . S
C408 C412 1.383 . S
C408 C415 1.496 . S
C409 C410 1.399 . S
C409 C412 1.389 . S
C410 C409 1.399 . S
C410 C413 1.380 . S
C410 H420 0.929 . S
C411 C408 1.399 . S
C411 C413 1.392 . S
C411 H421 0.929 . S
C412 C408 1.383 . S
C412 C409 1.389 . S
C412 H422 0.931 . S
C413 C410 1.380 . S
C413 C411 1.392 . S
C413 H423 0.929 . S
C414 O394 1.266 . S
C414 O395 1.248 . S
C415 Tb351 2.802 . S
C415 O390 1.264 . S
C415 O393 1.256 . S
C415 C408 1.496 . S
H416 C399 0.929 . S
H417 C400 0.929 . S
H418 C401 0.929 . S
H419 C402 0.931 . S
H420 C410 0.929 . S
H421 C411 0.929 . S
H422 C412 0.931 . S
H423 C413 0.929 . S
C75 C162 1.867 . S
C246 C83 1.884 . S
C239 C53 1.802 . S
C61 C155 1.800 . S
C319 C31 1.888 . S
C403 C42 1.919 . S
C9 C396 1.818 . S
C20 C312 1.873 . S
C146 C17 1.471 . S
C230 C6 1.560 . S
C241 C39 1.254 . S
C157 C28 1.277 . S
C325 C64 1.615 . S
C50 C409 1.612 . S
C398 C86 1.323 . S
C72 C314 1.350 . S
C144 N4 1.526 . S
C228 N15 1.575 . S
N26 C235 1.380 . S
C151 N37 1.436 . S
C323 N48 1.577 . S
N59 C407 1.586 . S
N70 C414 1.502 . S
N81 C330 1.596 . S
