# Generated by pormake.
# Topology pto, (3,4)-cn, num edge types: 1
# Building blocks:
#     Node 0, Type 0, BuildingBlock: WUSLED_clean_sbu_0, # of connection points: 3
#     Node 1, Type 0, BuildingBlock: WUSLED_clean_sbu_0, # of connection points: 3
#     Node 2, Type 0, BuildingBlock: WUSLED_clean_sbu_0, # of connection points: 3
#     Node 3, Type 0, BuildingBlock: WUSLED_clean_sbu_0, # of connection points: 3
#     Node 4, Type 0, BuildingBlock: WUSLED_clean_sbu_0, # of connection points: 3
#     Node 5, Type 0, BuildingBlock: WUSLED_clean_sbu_0, # of connection points: 3
#     Node 6, Type 0, BuildingBlock: WUSLED_clean_sbu_0, # of connection points: 3
#     Node 7, Type 0, BuildingBlock: WUSLED_clean_sbu_0, # of connection points: 3
#     Node 8, Type 1, BuildingBlock: NAHDIM_clean_linker_0, # of connection points: 4
#     Node 9, Type 1, BuildingBlock: NAHDIM_clean_linker_0, # of connection points: 4
#     Node 10, Type 1, BuildingBlock: NAHDIM_clean_linker_0, # of connection points: 4
#     Node 11, Type 1, BuildingBlock: NAHDIM_clean_linker_0, # of connection points: 4
#     Node 12, Type 1, BuildingBlock: NAHDIM_clean_linker_0, # of connection points: 4
#     Node 13, Type 1, BuildingBlock: NAHDIM_clean_linker_0, # of connection points: 4
#     Edge 14, Type (0, 1), BuildingBlock: EZIPEK_clean_linker_0, # of connection points: 2
#     Edge 15, Type (0, 1), BuildingBlock: EZIPEK_clean_linker_0, # of connection points: 2
#     Edge 16, Type (0, 1), BuildingBlock: EZIPEK_clean_linker_0, # of connection points: 2
#     Edge 17, Type (0, 1), BuildingBlock: EZIPEK_clean_linker_0, # of connection points: 2
#     Edge 18, Type (0, 1), BuildingBlock: EZIPEK_clean_linker_0, # of connection points: 2
#     Edge 19, Type (0, 1), BuildingBlock: EZIPEK_clean_linker_0, # of connection points: 2
#     Edge 20, Type (0, 1), BuildingBlock: EZIPEK_clean_linker_0, # of connection points: 2
#     Edge 21, Type (0, 1), BuildingBlock: EZIPEK_clean_linker_0, # of connection points: 2
#     Edge 22, Type (0, 1), BuildingBlock: EZIPEK_clean_linker_0, # of connection points: 2
#     Edge 23, Type (0, 1), BuildingBlock: EZIPEK_clean_linker_0, # of connection points: 2
#     Edge 24, Type (0, 1), BuildingBlock: EZIPEK_clean_linker_0, # of connection points: 2
#     Edge 25, Type (0, 1), BuildingBlock: EZIPEK_clean_linker_0, # of connection points: 2
#     Edge 26, Type (0, 1), BuildingBlock: EZIPEK_clean_linker_0, # of connection points: 2
#     Edge 27, Type (0, 1), BuildingBlock: EZIPEK_clean_linker_0, # of connection points: 2
#     Edge 28, Type (0, 1), BuildingBlock: EZIPEK_clean_linker_0, # of connection points: 2
#     Edge 29, Type (0, 1), BuildingBlock: EZIPEK_clean_linker_0, # of connection points: 2
#     Edge 30, Type (0, 1), BuildingBlock: EZIPEK_clean_linker_0, # of connection points: 2
#     Edge 31, Type (0, 1), BuildingBlock: EZIPEK_clean_linker_0, # of connection points: 2
#     Edge 32, Type (0, 1), BuildingBlock: EZIPEK_clean_linker_0, # of connection points: 2
#     Edge 33, Type (0, 1), BuildingBlock: EZIPEK_clean_linker_0, # of connection points: 2
#     Edge 34, Type (0, 1), BuildingBlock: EZIPEK_clean_linker_0, # of connection points: 2
#     Edge 35, Type (0, 1), BuildingBlock: EZIPEK_clean_linker_0, # of connection points: 2
#     Edge 36, Type (0, 1), BuildingBlock: EZIPEK_clean_linker_0, # of connection points: 2
#     Edge 37, Type (0, 1), BuildingBlock: EZIPEK_clean_linker_0, # of connection points: 2
# Relax obj value: 0.001
# Max RMSD: 0.073
# Mean RMSD: 0.020
data_MOF--net-pto--node1-WUSLED_clean_sbu_0--node2-NAHDIM_clean_linker_0--edge1-EZIPEK_clean_linker_0
_symmetry_space_group_name_H-M    P1
_symmetry_Int_Tables_number       1
_symmetry_cell_setting            triclinic
loop_
_symmetry_equiv_pos_as_xyz
'x, y, z'
_cell_length_a     62.923035
_cell_length_b     59.870015
_cell_length_c     56.596702
_cell_angle_alpha  89.003636
_cell_angle_beta   90.987543
_cell_angle_gamma 90.550945
loop_
_atom_site_label
_atom_site_type_symbol
_atom_site_fract_x
_atom_site_fract_y
_atom_site_fract_z
_atom_type_partial_charge
C0 C 0.25311 0.25179 0.31524 0.0
C1 C 0.26728 0.23515 0.3085 0.0
C2 C 0.25919 0.21346 0.34394 0.0
C3 C 0.27021 0.21604 0.3227 0.0
C4 C 0.24552 0.23039 0.35103 0.0
C5 C 0.24245 0.24942 0.33671 0.0
U6 U 0.2698 0.29098 0.26536 0.0
O7 O 0.25185 0.30338 0.23425 0.0
O8 O 0.2653 0.32714 0.25975 0.0
C9 C 0.25314 0.32429 0.24088 0.0
C10 C 0.2489 0.27125 0.29969 0.0
C11 C 0.23311 0.33693 0.23916 0.0
C12 C 0.20568 0.36008 0.25589 0.0
C13 C 0.22425 0.34746 0.25871 0.0
C14 C 0.2044 0.35141 0.21426 0.0
C15 C 0.1958 0.36228 0.23356 0.0
C16 C 0.22293 0.33897 0.217 0.0
C17 C 0.32312 0.28107 0.23584 0.0
C18 C 0.3429 0.30747 0.21129 0.0
C19 C 0.3484 0.26768 0.20749 0.0
C20 C 0.33353 0.2634 0.22509 0.0
C21 C 0.35315 0.28972 0.20044 0.0
C22 C 0.32786 0.30318 0.22878 0.0
C23 C 0.30722 0.2759 0.254 0.0
O24 O 0.26136 0.28872 0.30299 0.0
O25 O 0.24579 0.26666 0.27727 0.0
O26 O 0.28926 0.26727 0.24605 0.0
O27 O 0.30456 0.29102 0.27026 0.0
H28 H 0.27578 0.23676 0.29206 0.0
H29 H 0.28082 0.20313 0.317 0.0
H30 H 0.23689 0.22862 0.36736 0.0
H31 H 0.23151 0.26211 0.3422 0.0
H32 H 0.19918 0.36832 0.27101 0.0
H33 H 0.23174 0.34611 0.27605 0.0
H34 H 0.19685 0.3527 0.19694 0.0
H35 H 0.22944 0.33103 0.20169 0.0
H36 H 0.34645 0.32458 0.20608 0.0
H37 H 0.35621 0.2538 0.19934 0.0
H38 H 0.33007 0.24625 0.23025 0.0
H39 H 0.31993 0.31709 0.23672 0.0
C40 C 0.25049 0.78592 0.7017 0.0
C41 C 0.26789 0.79962 0.70789 0.0
C42 C 0.26033 0.82402 0.67412 0.0
C43 C 0.27274 0.81861 0.69421 0.0
C44 C 0.2429 0.81038 0.66798 0.0
C45 C 0.23801 0.79143 0.68172 0.0
U46 U 0.26676 0.74256 0.74798 0.0
O47 O 0.24869 0.72553 0.776 0.0
O48 O 0.26309 0.70592 0.74812 0.0
C49 C 0.25038 0.70582 0.7663 0.0
C50 C 0.24573 0.76551 0.71549 0.0
C51 C 0.23052 0.69277 0.76346 0.0
C52 C 0.19211 0.69039 0.75821 0.0
C53 C 0.21072 0.70322 0.76038 0.0
C54 C 0.21285 0.65654 0.76158 0.0
C55 C 0.19306 0.66696 0.75879 0.0
C56 C 0.23142 0.66936 0.76397 0.0
C57 C 0.32152 0.7489 0.7779 0.0
C58 C 0.3337 0.72608 0.81122 0.0
C59 C 0.35824 0.75091 0.79142 0.0
C60 C 0.34191 0.75805 0.77614 0.0
C61 C 0.35501 0.73354 0.80838 0.0
C62 C 0.31738 0.73316 0.79581 0.0
C63 C 0.30474 0.75646 0.76134 0.0
O64 O 0.25757 0.74827 0.7107 0.0
O65 O 0.24328 0.76827 0.73828 0.0
O66 O 0.28711 0.76329 0.77093 0.0
O67 O 0.30136 0.74369 0.74298 0.0
H68 H 0.27779 0.7955 0.72318 0.0
H69 H 0.28628 0.82894 0.69911 0.0
H70 H 0.23323 0.81433 0.65247 0.0
H71 H 0.22461 0.78097 0.67664 0.0
H72 H 0.17696 0.69869 0.75607 0.0
H73 H 0.20963 0.72127 0.75976 0.0
H74 H 0.21386 0.63848 0.76208 0.0
H75 H 0.24652 0.66098 0.7663 0.0
H76 H 0.32899 0.71531 0.82568 0.0
H77 H 0.37314 0.75982 0.79002 0.0
H78 H 0.3452 0.77102 0.76306 0.0
H79 H 0.30143 0.72659 0.79813 0.0
C80 C 0.73083 0.73367 0.20974 0.0
C81 C 0.73073 0.72844 0.18568 0.0
C82 C 0.69337 0.73798 0.18221 0.0
C83 C 0.71214 0.73061 0.17199 0.0
C84 C 0.69343 0.74338 0.20625 0.0
C85 C 0.71209 0.74135 0.21992 0.0
U86 U 0.76901 0.75118 0.25955 0.0
O87 O 0.76371 0.78745 0.25988 0.0
O88 O 0.7463 0.76529 0.2842 0.0
C89 C 0.7508 0.786 0.27787 0.0
C90 C 0.75057 0.73088 0.22383 0.0
C91 C 0.75551 0.80121 0.29742 0.0
C92 C 0.7445 0.83168 0.32202 0.0
C93 C 0.74064 0.81747 0.30307 0.0
C94 C 0.77832 0.81365 0.3298 0.0
C95 C 0.76331 0.8298 0.33556 0.0
C96 C 0.77443 0.79939 0.31082 0.0
C97 C 0.81985 0.71802 0.27206 0.0
C98 C 0.85593 0.70398 0.27069 0.0
C99 C 0.82612 0.67918 0.26253 0.0
C100 C 0.81206 0.69678 0.26587 0.0
C101 C 0.84813 0.68264 0.26509 0.0
C102 C 0.84187 0.72152 0.27422 0.0
C103 C 0.80534 0.73655 0.27687 0.0
O104 O 0.74825 0.72444 0.24598 0.0
O105 O 0.76493 0.74676 0.22116 0.0
O106 O 0.80406 0.75228 0.26042 0.0
O107 O 0.78681 0.73087 0.28565 0.0
H108 H 0.74504 0.72256 0.1775 0.0
H109 H 0.71232 0.72638 0.15346 0.0
H110 H 0.67905 0.7491 0.21438 0.0
H111 H 0.71183 0.74563 0.23843 0.0
H112 H 0.73274 0.84401 0.32631 0.0
H113 H 0.72594 0.81904 0.29293 0.0
H114 H 0.79288 0.81196 0.34014 0.0
H115 H 0.78605 0.78687 0.3067 0.0
H116 H 0.87287 0.70692 0.2727 0.0
H117 H 0.81985 0.66282 0.25817 0.0
H118 H 0.79513 0.6937 0.26391 0.0
H119 H 0.84819 0.73778 0.27891 0.0
C120 C 0.74303 0.22715 0.71373 0.0
C121 C 0.76386 0.22329 0.70634 0.0
C122 C 0.75096 0.19362 0.68086 0.0
C123 C 0.76782 0.20653 0.69006 0.0
C124 C 0.73015 0.19766 0.68808 0.0
C125 C 0.72623 0.2143 0.70443 0.0
U126 U 0.75651 0.28121 0.74632 0.0
O127 O 0.73538 0.30831 0.75684 0.0
O128 O 0.75335 0.28923 0.78382 0.0
C129 C 0.73861 0.30425 0.77951 0.0
C130 C 0.73844 0.2443 0.7312 0.0
C131 C 0.71941 0.30299 0.79422 0.0
C132 C 0.68764 0.32093 0.80845 0.0
C133 C 0.7053 0.32104 0.79379 0.0
C134 C 0.69783 0.28465 0.82429 0.0
C135 C 0.68388 0.30281 0.82389 0.0
C136 C 0.71543 0.28468 0.80951 0.0
C137 C 0.80611 0.31517 0.73372 0.0
C138 C 0.81276 0.34946 0.75505 0.0
C139 C 0.83923 0.33569 0.72847 0.0
C140 C 0.82597 0.31751 0.72305 0.0
C141 C 0.83276 0.35164 0.74467 0.0
C142 C 0.79952 0.3313 0.74967 0.0
C143 C 0.79251 0.29567 0.72869 0.0
O144 O 0.75131 0.24496 0.74973 0.0
O145 O 0.73383 0.26419 0.72246 0.0
O146 O 0.77386 0.30026 0.71908 0.0
O147 O 0.79146 0.28075 0.74595 0.0
H148 H 0.77703 0.23313 0.71324 0.0
H149 H 0.78397 0.20359 0.68466 0.0
H150 H 0.71699 0.18782 0.68116 0.0
H151 H 0.71006 0.21707 0.7099 0.0
H152 H 0.67705 0.3351 0.80798 0.0
H153 H 0.7081 0.3354 0.7823 0.0
H154 H 0.69515 0.27056 0.83617 0.0
H155 H 0.72602 0.27053 0.8103 0.0
H156 H 0.80745 0.36172 0.76745 0.0
H157 H 0.85465 0.33714 0.72031 0.0
H158 H 0.83129 0.30519 0.71072 0.0
H159 H 0.78422 0.32974 0.75808 0.0
C160 C 0.79162 0.69099 0.76988 0.0
C161 C 0.80505 0.69555 0.7508 0.0
C162 C 0.82787 0.66496 0.7633 0.0
C163 C 0.82307 0.68257 0.7475 0.0
C164 C 0.81433 0.66023 0.78222 0.0
C165 C 0.79627 0.67319 0.78548 0.0
U166 U 0.76115 0.74368 0.75563 0.0
O167 O 0.72678 0.75 0.75258 0.0
O168 O 0.74631 0.76794 0.77873 0.0
C169 C 0.72704 0.76353 0.77063 0.0
C170 C 0.77334 0.70534 0.77413 0.0
C171 C 0.71102 0.75885 0.78868 0.0
C172 C 0.6996 0.73951 0.82446 0.0
C173 C 0.71484 0.74326 0.80707 0.0
C174 C 0.67647 0.76656 0.80499 0.0
C175 C 0.68038 0.75122 0.82353 0.0
C176 C 0.69172 0.77036 0.78768 0.0
C177 C 0.78315 0.78321 0.70803 0.0
C178 C 0.77301 0.82208 0.70307 0.0
C179 C 0.79359 0.80425 0.67298 0.0
C180 C 0.79342 0.78434 0.68624 0.0
C181 C 0.78355 0.82327 0.68143 0.0
C182 C 0.77274 0.80213 0.71628 0.0
C183 C 0.7839 0.76237 0.72212 0.0
O184 O 0.77819 0.7247 0.78351 0.0
O185 O 0.75944 0.70695 0.75658 0.0
O186 O 0.76852 0.7479 0.71788 0.0
O187 O 0.78815 0.76471 0.74477 0.0
H188 H 0.80174 0.70935 0.73868 0.0
H189 H 0.83345 0.68646 0.73289 0.0
H190 H 0.81792 0.64672 0.79459 0.0
H191 H 0.78611 0.66954 0.80036 0.0
H192 H 0.70281 0.72761 0.83868 0.0
H193 H 0.72963 0.73416 0.80805 0.0
H194 H 0.6617 0.77571 0.80407 0.0
H195 H 0.68851 0.78241 0.77359 0.0
H196 H 0.76516 0.83664 0.70977 0.0
H197 H 0.80175 0.80493 0.65628 0.0
H198 H 0.80148 0.76988 0.67961 0.0
H199 H 0.76464 0.80152 0.73302 0.0
C200 C 0.72168 0.25766 0.21501 0.0
C201 C 0.7269 0.26978 0.19439 0.0
C202 C 0.68954 0.27158 0.18316 0.0
C203 C 0.7109 0.27659 0.17847 0.0
C204 C 0.68434 0.25961 0.20381 0.0
C205 C 0.70033 0.25267 0.21964 0.0
U206 U 0.7766 0.26446 0.24333 0.0
O207 O 0.78696 0.26188 0.28051 0.0
O208 O 0.79995 0.23904 0.2546 0.0
C209 C 0.79819 0.24385 0.27706 0.0
C210 C 0.73822 0.25042 0.23204 0.0
C211 C 0.79419 0.22467 0.29321 0.0
C212 C 0.77281 0.20556 0.32289 0.0
C213 C 0.77597 0.22358 0.30727 0.0
C214 C 0.80565 0.18909 0.3102 0.0
C215 C 0.78768 0.18827 0.32456 0.0
C216 C 0.80894 0.20723 0.29476 0.0
C217 C 0.81265 0.31229 0.22341 0.0
C218 C 0.84728 0.31843 0.24192 0.0
C219 C 0.83375 0.34491 0.21255 0.0
C220 C 0.81526 0.33198 0.20997 0.0
C221 C 0.84978 0.33825 0.22863 0.0
C222 C 0.82878 0.3055 0.23934 0.0
C223 C 0.79274 0.29948 0.22137 0.0
O224 O 0.75552 0.24228 0.22289 0.0
O225 O 0.74214 0.26426 0.24938 0.0
O226 O 0.78018 0.30088 0.23959 0.0
O227 O 0.7945 0.27901 0.21365 0.0
H228 H 0.74331 0.27393 0.19062 0.0
H229 H 0.71512 0.28579 0.16255 0.0
H230 H 0.66791 0.25558 0.2076 0.0
H231 H 0.69604 0.24341 0.2355 0.0
H232 H 0.75879 0.20512 0.33375 0.0
H233 H 0.76421 0.23667 0.30634 0.0
H234 H 0.81722 0.1758 0.31118 0.0
H235 H 0.82306 0.20769 0.28405 0.0
H236 H 0.85954 0.31313 0.25441 0.0
H237 H 0.83548 0.3602 0.20222 0.0
H238 H 0.80291 0.33747 0.19769 0.0
H239 H 0.82693 0.29037 0.24993 0.0
C240 C 0.24081 0.22292 0.71541 0.0
C241 C 0.26159 0.21488 0.7152 0.0
C242 C 0.24935 0.18023 0.69653 0.0
C243 C 0.2659 0.19428 0.7052 0.0
C244 C 0.22894 0.19004 0.69436 0.0
C245 C 0.22463 0.21074 0.70424 0.0
U246 U 0.25635 0.26528 0.76116 0.0
O247 O 0.25402 0.30187 0.76164 0.0
O248 O 0.23766 0.28144 0.78844 0.0
C249 C 0.24071 0.30152 0.7793 0.0
C250 C 0.23594 0.24358 0.7278 0.0
C251 C 0.22149 0.31494 0.77578 0.0
C252 C 0.18991 0.3251 0.75289 0.0
C253 C 0.20807 0.31198 0.75597 0.0
C254 C 0.19831 0.34397 0.78952 0.0
C255 C 0.18498 0.34116 0.76966 0.0
C256 C 0.21647 0.33093 0.79255 0.0
C257 C 0.3086 0.25657 0.79504 0.0
C258 C 0.3185 0.27772 0.82987 0.0
C259 C 0.34421 0.25365 0.81187 0.0
C260 C 0.32909 0.24763 0.79471 0.0
C261 C 0.33897 0.26866 0.82956 0.0
C262 C 0.30337 0.27175 0.81264 0.0
C263 C 0.2929 0.24987 0.77698 0.0
O264 O 0.23199 0.24073 0.75038 0.0
O265 O 0.24869 0.26065 0.72347 0.0
O266 O 0.29115 0.26344 0.75856 0.0
O267 O 0.27446 0.24293 0.78502 0.0
H268 H 0.27457 0.22456 0.7228 0.0
H269 H 0.28244 0.19012 0.70412 0.0
H270 H 0.21604 0.18209 0.68481 0.0
H271 H 0.2086 0.21718 0.70322 0.0
H272 H 0.17974 0.32278 0.73748 0.0
H273 H 0.2117 0.29962 0.74291 0.0
H274 H 0.19468 0.35633 0.80258 0.0
H275 H 0.22665 0.33337 0.80795 0.0
H276 H 0.31427 0.28934 0.84343 0.0
H277 H 0.35997 0.24655 0.81143 0.0
H278 H 0.33337 0.23595 0.78121 0.0
H279 H 0.28762 0.27887 0.81307 0.0
C280 C 0.20906 0.73416 0.26901 0.0
C281 C 0.21043 0.71862 0.2508 0.0
C282 C 0.17796 0.70053 0.26413 0.0
C283 C 0.19491 0.70187 0.24836 0.0
C284 C 0.17661 0.71609 0.28227 0.0
C285 C 0.19208 0.73282 0.28468 0.0
U286 U 0.26191 0.76137 0.2526 0.0
O287 O 0.27123 0.7968 0.25018 0.0
O288 O 0.28736 0.77454 0.2758 0.0
C289 C 0.2844 0.79523 0.26842 0.0
C290 C 0.22545 0.75149 0.27222 0.0
C291 C 0.2813 0.81149 0.28722 0.0
C292 C 0.25802 0.83244 0.31234 0.0
C293 C 0.26076 0.81756 0.29391 0.0
C294 C 0.29625 0.83524 0.3178 0.0
C295 C 0.27574 0.84122 0.3245 0.0
C296 C 0.29901 0.82048 0.29922 0.0
C297 C 0.29498 0.73715 0.20344 0.0
C298 C 0.33276 0.74418 0.19851 0.0
C299 C 0.31182 0.7282 0.16653 0.0
C300 C 0.29368 0.7289 0.18041 0.0
C301 C 0.33148 0.73565 0.17559 0.0
C302 C 0.31459 0.74502 0.21234 0.0
C303 C 0.27583 0.73719 0.21799 0.0
O304 O 0.2438 0.74427 0.28054 0.0
O305 O 0.22735 0.766 0.25466 0.0
O306 O 0.26318 0.75433 0.21456 0.0
O307 O 0.27875 0.73186 0.24044 0.0
H308 H 0.22352 0.7194 0.23862 0.0
H309 H 0.19614 0.68994 0.23429 0.0
H310 H 0.1636 0.71522 0.29456 0.0
H311 H 0.19086 0.74465 0.29886 0.0
H312 H 0.24208 0.83685 0.31738 0.0
H313 H 0.24687 0.81063 0.28503 0.0
H314 H 0.31007 0.84185 0.32709 0.0
H315 H 0.31495 0.81589 0.2944 0.0
H316 H 0.34783 0.75005 0.20569 0.0
H317 H 0.3106 0.72164 0.14883 0.0
H318 H 0.27866 0.72286 0.17324 0.0
H319 H 0.31589 0.75162 0.23001 0.0
C320 C 0.94401 0.36585 0.25584 0.0
C321 C 0.92832 0.38507 0.25106 0.0
C322 C 0.95261 0.41616 0.24036 0.0
C323 C 0.96091 0.42008 0.26318 0.0
C324 C 0.97752 0.43558 0.26673 0.0
C325 C 0.98612 0.44725 0.2471 0.0
C326 C 0.97772 0.44343 0.22415 0.0
C327 C 0.96093 0.42809 0.22117 0.0
C328 C 0.98601 0.43938 0.29145 0.0
C329 C 0.98666 0.45534 0.20275 0.0
C330 C 0.15501 0.40804 0.23975 0.0
C331 C 0.1368 0.42352 0.23572 0.0
C332 C 0.10392 0.43533 0.2539 0.0
C333 C 0.09549 0.44534 0.23312 0.0
C334 C 0.07557 0.45568 0.23298 0.0
C335 C 0.06396 0.45653 0.25413 0.0
C336 C 0.07242 0.44661 0.2751 0.0
C337 C 0.09225 0.43602 0.27465 0.0
C338 C 0.06686 0.46559 0.21012 0.0
C339 C 0.06047 0.44717 0.29796 0.0
C340 C 0.08497 0.6091 0.25488 0.0
C341 C 0.07805 0.59936 0.23383 0.0
C342 C 0.06147 0.58352 0.23354 0.0
C343 C 0.05175 0.57708 0.25498 0.0
C344 C 0.0591 0.58629 0.27649 0.0
C345 C 0.07566 0.60218 0.27626 0.0
C346 C 0.05409 0.57396 0.21027 0.0
C347 C 0.04926 0.57949 0.29969 0.0
C348 C 0.88316 0.58514 0.24658 0.0
C349 C 0.8988 0.60228 0.25713 0.0
C350 C 0.93512 0.59144 0.24636 0.0
C351 C 0.94713 0.58779 0.22627 0.0
C352 C 0.96629 0.576 0.22768 0.0
C353 C 0.97387 0.56802 0.24991 0.0
C354 C 0.96197 0.57185 0.27041 0.0
C355 C 0.9427 0.5835 0.26845 0.0
C356 C 0.9786 0.57233 0.20546 0.0
C357 C 0.96988 0.56407 0.29447 0.0
C358 C 0.00438 0.46286 0.25044 0.0
C359 C 0.02476 0.45377 0.25185 0.0
C360 C 0.04281 0.4674 0.2541 0.0
C361 C 0.04055 0.49087 0.25502 0.0
C362 C 0.05834 0.50512 0.25727 0.0
C363 C 0.05602 0.52821 0.2573 0.0
C364 C 0.03581 0.53794 0.2553 0.0
C365 C 0.03333 0.56139 0.25474 0.0
C366 C 0.01299 0.57051 0.2532 0.0
C367 C 0.99487 0.55688 0.25188 0.0
C368 C 0.99702 0.53337 0.25199 0.0
C369 C 0.97919 0.51911 0.25029 0.0
C370 C 0.98153 0.49601 0.25006 0.0
C371 C 0.00179 0.48628 0.25136 0.0
C372 C 0.01997 0.50032 0.25347 0.0
C373 C 0.01759 0.52389 0.25369 0.0
C374 C 0.08865 0.65698 0.27553 0.0
C375 C 0.10649 0.64023 0.27077 0.0
O376 O 0.93677 0.4011 0.23586 0.0
O377 O 0.91698 0.6035 0.24361 0.0
O378 O 0.10041 0.62513 0.25358 0.0
O379 O 0.123 0.42472 0.25451 0.0
H380 H 0.92582 0.39228 0.26868 0.0
H381 H 0.95781 0.37187 0.26649 0.0
H382 H 0.95032 0.3589 0.2394 0.0
H383 H 0.93615 0.3522 0.26608 0.0
H384 H 0.95464 0.41119 0.27834 0.0
H385 H 0.95442 0.42503 0.20365 0.0
H386 H 0.00259 0.43328 0.29292 0.0
H387 H 0.97636 0.43061 0.30507 0.0
H388 H 0.98633 0.45753 0.2952 0.0
H389 H 0.97936 0.44934 0.18598 0.0
H390 H 0.00412 0.45291 0.20216 0.0
H391 H 0.98382 0.47354 0.20397 0.0
H392 H 0.14127 0.44043 0.22871 0.0
H393 H 0.14981 0.38391 0.21466 0.0
H394 H 0.15569 0.40409 0.25928 0.0
H395 H 0.16958 0.41909 0.23989 0.0
H396 H 0.10424 0.445 0.21686 0.0
H397 H 0.09877 0.42824 0.29058 0.0
H398 H 0.05047 0.45925 0.20667 0.0
H399 H 0.07685 0.46166 0.19477 0.0
H400 H 0.066 0.48402 0.21156 0.0
H401 H 0.06995 0.44038 0.31313 0.0
H402 H 0.0456 0.43717 0.2962 0.0
H403 H 0.05591 0.4646 0.30181 0.0
H404 H 0.10904 0.63141 0.28792 0.0
H405 H 0.08543 0.60462 0.21745 0.0
H406 H 0.08109 0.6091 0.29283 0.0
H407 H 0.05576 0.55551 0.21083 0.0
H408 H 0.06324 0.5808 0.19513 0.0
H409 H 0.03699 0.57765 0.20723 0.0
H410 H 0.05752 0.58722 0.31505 0.0
H411 H 0.04967 0.56104 0.30194 0.0
H412 H 0.03232 0.58453 0.29961 0.0
H413 H 0.90214 0.59534 0.27496 0.0
H414 H 0.86781 0.58546 0.25599 0.0
H415 H 0.88986 0.5681 0.24868 0.0
H416 H 0.88013 0.58815 0.22744 0.0
H417 H 0.94134 0.5942 0.20935 0.0
H418 H 0.93419 0.58687 0.28438 0.0
H419 H 0.98259 0.55438 0.20397 0.0
H420 H 0.99378 0.5819 0.20633 0.0
H421 H 0.96962 0.57772 0.1893 0.0
H422 H 0.95898 0.56867 0.30879 0.0
H423 H 0.9858 0.57149 0.29821 0.0
H424 H 0.97166 0.54564 0.29469 0.0
H425 H 0.02662 0.43581 0.25079 0.0
H426 H 0.07429 0.49857 0.25884 0.0
H427 H 0.0703 0.53836 0.25885 0.0
H428 H 0.01124 0.58853 0.25279 0.0
H429 H 0.96323 0.52568 0.24902 0.0
H430 H 0.96724 0.48585 0.24869 0.0
H431 H 0.08169 0.66423 0.25904 0.0
H432 H 0.0948 0.67074 0.28676 0.0
H433 H 0.07552 0.6486 0.2852 0.0
C434 C 0.12756 0.42409 0.78372 0.0
C435 C 0.11594 0.40341 0.77376 0.0
C436 C 0.08431 0.4205 0.7547 0.0
C437 C 0.07549 0.42707 0.73288 0.0
C438 C 0.05665 0.4394 0.73143 0.0
C439 C 0.04633 0.4452 0.75242 0.0
C440 C 0.05489 0.43827 0.77459 0.0
C441 C 0.07379 0.42598 0.77554 0.0
C442 C 0.04787 0.44643 0.7075 0.0
C443 C 0.04412 0.44403 0.79728 0.0
C444 C 0.88404 0.38192 0.75587 0.0
C445 C 0.90117 0.39794 0.76285 0.0
C446 C 0.93133 0.41845 0.74593 0.0
C447 C 0.93804 0.42824 0.76726 0.0
C448 C 0.95638 0.44177 0.76826 0.0
C449 C 0.96795 0.44611 0.74742 0.0
C450 C 0.96085 0.43687 0.7258 0.0
C451 C 0.94269 0.42306 0.7254 0.0
C452 C 0.96361 0.45111 0.7917 0.0
C453 C 0.97263 0.44132 0.70318 0.0
C454 C 0.93437 0.59467 0.75583 0.0
C455 C 0.94361 0.58493 0.77606 0.0
C456 C 0.96161 0.57143 0.77469 0.0
C457 C 0.97052 0.56746 0.75239 0.0
C458 C 0.96102 0.57684 0.73173 0.0
C459 C 0.94297 0.59031 0.73361 0.0
C460 C 0.97126 0.56161 0.7971 0.0
C461 C 0.97003 0.57267 0.70769 0.0
C462 C 0.13516 0.58141 0.75049 0.0
C463 C 0.12339 0.60363 0.74661 0.0
C464 C 0.08707 0.59188 0.75741 0.0
C465 C 0.07415 0.58907 0.77708 0.0
C466 C 0.05537 0.57627 0.77594 0.0
C467 C 0.04898 0.56658 0.75428 0.0
C468 C 0.06168 0.56988 0.73406 0.0
C469 C 0.08075 0.5822 0.73591 0.0
C470 C 0.04237 0.57315 0.79794 0.0
C471 C 0.05504 0.56055 0.71042 0.0
C472 C 0.02672 0.4588 0.75119 0.0
C473 C 0.00717 0.44761 0.74969 0.0
C474 C 0.98806 0.45934 0.74847 0.0
C475 C 0.9884 0.48299 0.74863 0.0
C476 C 0.96953 0.49537 0.74724 0.0
C477 C 0.97003 0.5186 0.74797 0.0
C478 C 0.98944 0.53036 0.7498 0.0
C479 C 0.99009 0.55393 0.75091 0.0
C480 C 0.00967 0.56514 0.75198 0.0
C481 C 0.02881 0.55344 0.75269 0.0
C482 C 0.02845 0.52979 0.75239 0.0
C483 C 0.0473 0.51739 0.75397 0.0
C484 C 0.04679 0.49416 0.75348 0.0
C485 C 0.02739 0.4824 0.75161 0.0
C486 C 0.00816 0.49453 0.75027 0.0
C487 C 0.00869 0.51825 0.75071 0.0
C488 C 0.92192 0.64219 0.73564 0.0
C489 C 0.9075 0.62218 0.7424 0.0
O490 O 0.10292 0.40909 0.75464 0.0
O491 O 0.10515 0.60434 0.75998 0.0
O492 O 0.91735 0.60811 0.75881 0.0
O493 O 0.91426 0.40438 0.74441 0.0
H494 H 0.10629 0.39708 0.78865 0.0
H495 H 0.11619 0.43496 0.79276 0.0
H496 H 0.13519 0.43442 0.76978 0.0
H497 H 0.13986 0.41888 0.79697 0.0
H498 H 0.08361 0.42269 0.7169 0.0
H499 H 0.08013 0.42085 0.79262 0.0
H500 H 0.03143 0.43981 0.70521 0.0
H501 H 0.05769 0.44042 0.69282 0.0
H502 H 0.04706 0.46494 0.70631 0.0
H503 H 0.05258 0.43712 0.81314 0.0
H504 H 0.02756 0.43745 0.79703 0.0
H505 H 0.04328 0.46246 0.79882 0.0
H506 H 0.91025 0.39277 0.77911 0.0
H507 H 0.88768 0.36604 0.766 0.0
H508 H 0.88847 0.37516 0.73818 0.0
H509 H 0.85665 0.3997 0.7608 0.0
H510 H 0.92924 0.42519 0.78326 0.0
H511 H 0.93733 0.41561 0.70899 0.0
H512 H 0.96263 0.4696 0.79101 0.0
H513 H 0.98047 0.44671 0.79535 0.0
H514 H 0.95382 0.44479 0.80658 0.0
H515 H 0.96373 0.43511 0.68745 0.0
H516 H 0.98827 0.43291 0.7042 0.0
H517 H 0.97566 0.45951 0.7008 0.0
H518 H 0.90481 0.61339 0.72556 0.0
H519 H 0.93677 0.58824 0.79308 0.0
H520 H 0.93581 0.59731 0.71769 0.0
H521 H 0.97129 0.5431 0.79611 0.0
H522 H 0.96249 0.56642 0.81308 0.0
H523 H 0.98804 0.56727 0.79904 0.0
H524 H 0.96042 0.58054 0.6932 0.0
H525 H 0.9708 0.55442 0.70469 0.0
H526 H 0.98651 0.57941 0.70693 0.0
H527 H 0.11904 0.60373 0.72763 0.0
H528 H 0.15011 0.58161 0.74032 0.0
H529 H 0.12514 0.56735 0.74401 0.0
H530 H 0.13912 0.57794 0.76931 0.0
H531 H 0.07906 0.5967 0.79354 0.0
H532 H 0.0903 0.58446 0.72035 0.0
H533 H 0.03778 0.55532 0.80042 0.0
H534 H 0.02755 0.58297 0.79603 0.0
H535 H 0.05109 0.57879 0.81404 0.0
H536 H 0.06487 0.56734 0.6958 0.0
H537 H 0.03809 0.56435 0.70645 0.0
H538 H 0.05667 0.54211 0.71094 0.0
H539 H 0.00681 0.42949 0.74957 0.0
H540 H 0.95415 0.48721 0.74572 0.0
H541 H 0.955 0.52726 0.747 0.0
H542 H 0.01001 0.58324 0.75267 0.0
H543 H 0.06269 0.5255 0.75562 0.0
H544 H 0.06182 0.48553 0.75466 0.0
H545 H 0.92914 0.65043 0.75123 0.0
H546 H 0.91273 0.65474 0.72511 0.0
H547 H 0.93518 0.63662 0.72455 0.0
C548 C 0.25803 0.07968 0.65561 0.0
C549 C 0.267 0.1003 0.64236 0.0
C550 C 0.26333 0.08575 0.60268 0.0
C551 C 0.28392 0.07804 0.59875 0.0
C552 C 0.2874 0.06083 0.58278 0.0
C553 C 0.26987 0.05102 0.57069 0.0
C554 C 0.24915 0.05926 0.57413 0.0
C555 C 0.24622 0.07684 0.58982 0.0
C556 C 0.30976 0.05283 0.57917 0.0
C557 C 0.23004 0.04906 0.5618 0.0
C558 C 0.31411 0.90449 0.63182 0.0
C559 C 0.29016 0.9042 0.62573 0.0
C560 C 0.2845 0.92821 0.59139 0.0
C561 C 0.2645 0.93558 0.58379 0.0
C562 C 0.26219 0.95623 0.57192 0.0
C563 C 0.28042 0.96955 0.56732 0.0
C564 C 0.30072 0.96202 0.57491 0.0
C565 C 0.30253 0.9413 0.58675 0.0
C566 C 0.24034 0.96371 0.56399 0.0
C567 C 0.32049 0.9757 0.57014 0.0
C568 C 0.28461 0.93685 0.41342 0.0
C569 C 0.2649 0.94436 0.42119 0.0
C570 C 0.26348 0.96405 0.43415 0.0
C571 C 0.28216 0.97651 0.43937 0.0
C572 C 0.30194 0.9694 0.43083 0.0
C573 C 0.30286 0.94973 0.41772 0.0
C574 C 0.24203 0.97148 0.4424 0.0
C575 C 0.32211 0.98238 0.43592 0.0
C576 C 0.24367 0.14152 0.42477 0.0
C577 C 0.26299 0.1375 0.40912 0.0
C578 C 0.26631 0.09751 0.41491 0.0
C579 C 0.24989 0.08188 0.41737 0.0
C580 C 0.25271 0.06242 0.43118 0.0
C581 C 0.27276 0.0582 0.44204 0.0
C582 C 0.28961 0.07385 0.43913 0.0
C583 C 0.28608 0.09355 0.42581 0.0
C584 C 0.23429 0.0463 0.43392 0.0
C585 C 0.31139 0.06958 0.44971 0.0
C586 C 0.27312 0.0313 0.55562 0.0
C587 C 0.27521 0.01046 0.56694 0.0
C588 C 0.27833 0.99109 0.55408 0.0
C589 C 0.27935 0.99241 0.52915 0.0
C590 C 0.28241 0.97324 0.51566 0.0
C591 C 0.28311 0.97463 0.49113 0.0
C592 C 0.28078 0.99525 0.47912 0.0
C593 C 0.28096 0.9967 0.45416 0.0
C594 C 0.27889 0.01748 0.44277 0.0
C595 C 0.2762 0.037 0.4556 0.0
C596 C 0.27568 0.03583 0.4806 0.0
C597 C 0.27265 0.055 0.49411 0.0
C598 C 0.2721 0.05363 0.51869 0.0
C599 C 0.27413 0.03297 0.53069 0.0
C600 C 0.2772 0.01342 0.51742 0.0
C601 C 0.27801 0.01486 0.49237 0.0
C602 C 0.29207 0.88439 0.42281 0.0
C603 C 0.27644 0.89746 0.40667 0.0
O604 O 0.25945 0.10133 0.61919 0.0
O605 O 0.26307 0.11583 0.40101 0.0
O606 O 0.28648 0.91762 0.40123 0.0
O607 O 0.28637 0.90777 0.60179 0.0
H608 H 0.28427 0.09732 0.64238 0.0
H609 H 0.26424 0.06417 0.64786 0.0
H610 H 0.24045 0.07875 0.65464 0.0
H611 H 0.26315 0.07992 0.6745 0.0
H612 H 0.29731 0.08544 0.6081 0.0
H613 H 0.2304 0.08308 0.59288 0.0
H614 H 0.31153 0.03588 0.58717 0.0
H615 H 0.32185 0.06406 0.58738 0.0
H616 H 0.31299 0.05163 0.56001 0.0
H617 H 0.21488 0.05637 0.56762 0.0
H618 H 0.22955 0.03075 0.56525 0.0
H619 H 0.2313 0.05173 0.54242 0.0
H620 H 0.28388 0.91842 0.63582 0.0
H621 H 0.31702 0.89743 0.64987 0.0
H622 H 0.32019 0.92196 0.63174 0.0
H623 H 0.32352 0.89507 0.61905 0.0
H624 H 0.25072 0.92508 0.58716 0.0
H625 H 0.31806 0.93511 0.59195 0.0
H626 H 0.23689 0.98023 0.57162 0.0
H627 H 0.22771 0.95165 0.56934 0.0
H628 H 0.23982 0.96577 0.54446 0.0
H629 H 0.33506 0.96768 0.57754 0.0
H630 H 0.31897 0.99249 0.57792 0.0
H631 H 0.32232 0.97811 0.55078 0.0
H632 H 0.26164 0.9002 0.41651 0.0
H633 H 0.25054 0.93511 0.41686 0.0
H634 H 0.31794 0.94401 0.41125 0.0
H635 H 0.24177 0.97095 0.46201 0.0
H636 H 0.22886 0.96079 0.43555 0.0
H637 H 0.23916 0.98902 0.43661 0.0
H638 H 0.33631 0.9744 0.42841 0.0
H639 H 0.32452 0.98383 0.45532 0.0
H640 H 0.32071 0.99957 0.42841 0.0
H641 H 0.27679 0.14005 0.42127 0.0
H642 H 0.24322 0.15932 0.42996 0.0
H643 H 0.24497 0.13115 0.4412 0.0
H644 H 0.22841 0.13717 0.41588 0.0
H645 H 0.23475 0.08512 0.40862 0.0
H646 H 0.29885 0.10559 0.42335 0.0
H647 H 0.23265 0.04105 0.45272 0.0
H648 H 0.23733 0.03112 0.42357 0.0
H649 H 0.21904 0.05364 0.42755 0.0
H650 H 0.32328 0.08225 0.44383 0.0
H651 H 0.31692 0.05276 0.44478 0.0
H652 H 0.31062 0.06989 0.46927 0.0
H653 H 0.27439 0.00929 0.58606 0.0
H654 H 0.28421 0.9569 0.52391 0.0
H655 H 0.28545 0.95929 0.4817 0.0
H656 H 0.27891 0.01841 0.4236 0.0
H657 H 0.2707 0.07131 0.48584 0.0
H658 H 0.26988 0.06896 0.52817 0.0
H659 H 0.28501 0.86888 0.43032 0.0
H660 H 0.29705 0.89486 0.43799 0.0
H661 H 0.3065 0.88002 0.41289 0.0
C662 C 0.42822 0.72514 0.15389 0.0
C663 C 0.41435 0.73439 0.13338 0.0
C664 C 0.43615 0.72658 0.09924 0.0
C665 C 0.44459 0.74789 0.09421 0.0
C666 C 0.46289 0.75046 0.08055 0.0
C667 C 0.47301 0.73133 0.07187 0.0
C668 C 0.46431 0.70985 0.07658 0.0
C669 C 0.44576 0.70781 0.08992 0.0
C670 C 0.47143 0.77364 0.07538 0.0
C671 C 0.47471 0.68907 0.06772 0.0
C672 C 0.6373 0.75188 0.0907 0.0
C673 C 0.62606 0.74053 0.1117 0.0
C674 C 0.58848 0.74665 0.1016 0.0
C675 C 0.58299 0.72576 0.09219 0.0
C676 C 0.56433 0.72301 0.07853 0.0
C677 C 0.55101 0.74157 0.07394 0.0
C678 C 0.55636 0.76254 0.0837 0.0
C679 C 0.57489 0.76469 0.09769 0.0
C680 C 0.55873 0.70021 0.06914 0.0
C681 C 0.54252 0.78268 0.07936 0.0
C682 C 0.5901 0.74434 0.91985 0.0
C683 C 0.58293 0.7233 0.92805 0.0
C684 C 0.56404 0.72121 0.94082 0.0
C685 C 0.55212 0.74049 0.94557 0.0
C686 C 0.55927 0.76164 0.93735 0.0
C687 C 0.57817 0.76326 0.92461 0.0
C688 C 0.55681 0.69838 0.94932 0.0
C689 C 0.54695 0.78254 0.94213 0.0
C690 C 0.38864 0.74428 0.90649 0.0
C691 C 0.40656 0.73794 0.88979 0.0
C692 C 0.43732 0.72584 0.91446 0.0
C693 C 0.44969 0.70737 0.92084 0.0
C694 C 0.46797 0.70961 0.9352 0.0
C695 C 0.47405 0.73096 0.94337 0.0
C696 C 0.46155 0.74976 0.93718 0.0
C697 C 0.44322 0.74701 0.92295 0.0
C698 C 0.48083 0.68917 0.94157 0.0
C699 C 0.46763 0.77278 0.94558 0.0
C700 C 0.49288 0.73381 0.05821 0.0
C701 C 0.51203 0.73626 0.07086 0.0
C702 C 0.53134 0.73899 0.05925 0.0
C703 C 0.53167 0.73918 0.03425 0.0
C704 C 0.55077 0.74207 0.02196 0.0
C705 C 0.55098 0.74186 0.99738 0.0
C706 C 0.53208 0.73895 0.98411 0.0
C707 C 0.53216 0.73851 0.95913 0.0
C708 C 0.51304 0.73594 0.94648 0.0
C709 C 0.49368 0.73366 0.95808 0.0
C710 C 0.4933 0.7338 0.98307 0.0
C711 C 0.47414 0.73136 0.99534 0.0
C712 C 0.47394 0.73152 0.01992 0.0
C713 C 0.49289 0.7339 0.03321 0.0
C714 C 0.51238 0.73649 0.02121 0.0
C715 C 0.51258 0.73644 0.99611 0.0
C716 C 0.63766 0.72418 0.9207 0.0
C717 C 0.62257 0.73145 0.90034 0.0
O718 O 0.41858 0.72353 0.11257 0.0
O719 O 0.41995 0.72227 0.90029 0.0
O720 O 0.6083 0.74738 0.90749 0.0
O721 O 0.60631 0.74993 0.11507 0.0
H722 H 0.41922 0.75219 0.13216 0.0
H723 H 0.44515 0.72951 0.15079 0.0
H724 H 0.42711 0.70672 0.15572 0.0
H725 H 0.42357 0.73271 0.1708 0.0
H726 H 0.43677 0.7626 0.1005 0.0
H727 H 0.43894 0.69146 0.09364 0.0
H728 H 0.48704 0.7758 0.08452 0.0
H729 H 0.46059 0.78687 0.08135 0.0
H730 H 0.474 0.77594 0.05613 0.0
H731 H 0.4668 0.67355 0.07429 0.0
H732 H 0.4917 0.68879 0.07335 0.0
H733 H 0.47415 0.68918 0.04811 0.0
H734 H 0.62441 0.72293 0.10625 0.0
H735 H 0.65375 0.74551 0.08931 0.0
H736 H 0.63794 0.7703 0.09207 0.0
H737 H 0.62857 0.74794 0.07403 0.0
H738 H 0.59284 0.71139 0.0959 0.0
H739 H 0.57908 0.78065 0.10531 0.0
H740 H 0.5422 0.69558 0.07389 0.0
H741 H 0.56964 0.68707 0.07607 0.0
H742 H 0.55953 0.70061 0.04956 0.0
H743 H 0.55008 0.79828 0.08593 0.0
H744 H 0.5272 0.78012 0.0885 0.0
H745 H 0.53891 0.78479 0.06018 0.0
H746 H 0.61395 0.7159 0.89567 0.0
H747 H 0.5919 0.70842 0.92471 0.0
H748 H 0.5838 0.77941 0.91828 0.0
H749 H 0.5561 0.69806 0.96891 0.0
H750 H 0.56756 0.68492 0.94372 0.0
H751 H 0.54053 0.69482 0.94239 0.0
H752 H 0.55485 0.79781 0.93492 0.0
H753 H 0.54508 0.78437 0.96147 0.0
H754 H 0.53078 0.78116 0.93409 0.0
H755 H 0.41518 0.75388 0.88662 0.0
H756 H 0.37744 0.75586 0.89727 0.0
H757 H 0.39542 0.75299 0.92209 0.0
H758 H 0.37958 0.72963 0.91317 0.0
H759 H 0.44498 0.69108 0.91438 0.0
H760 H 0.43368 0.7615 0.91871 0.0
H761 H 0.48293 0.68774 0.96106 0.0
H762 H 0.49689 0.69085 0.93387 0.0
H763 H 0.47327 0.67356 0.93502 0.0
H764 H 0.45685 0.78589 0.93832 0.0
H765 H 0.48415 0.77691 0.94033 0.0
H766 H 0.46717 0.77308 0.96517 0.0
H767 H 0.51189 0.7361 0.09003 0.0
H768 H 0.5658 0.74443 0.03121 0.0
H769 H 0.56617 0.74403 0.98889 0.0
H770 H 0.51324 0.73567 0.92732 0.0
H771 H 0.45908 0.7293 0.98606 0.0
H772 H 0.45871 0.72966 0.02839 0.0
H773 H 0.64939 0.71207 0.9142 0.0
H774 H 0.62855 0.71574 0.93496 0.0
H775 H 0.64643 0.7383 0.92875 0.0
C776 C 0.73149 0.13208 0.59501 0.0
C777 C 0.74839 0.12321 0.61274 0.0
C778 C 0.76795 0.09513 0.59039 0.0
C779 C 0.78758 0.09023 0.58062 0.0
C780 C 0.7909 0.07 0.56909 0.0
C781 C 0.77396 0.05441 0.56687 0.0
C782 C 0.75401 0.05923 0.57667 0.0
C783 C 0.75126 0.0794 0.58851 0.0
C784 C 0.81255 0.06527 0.55935 0.0
C785 C 0.73557 0.04301 0.57476 0.0
C786 C 0.78604 0.92711 0.66064 0.0
C787 C 0.78129 0.91203 0.63943 0.0
C788 C 0.79058 0.93606 0.60546 0.0
C789 C 0.77024 0.94351 0.5986 0.0
C790 C 0.76778 0.96192 0.58312 0.0
C791 C 0.78599 0.97315 0.57439 0.0
C792 C 0.80648 0.9655 0.581 0.0
C793 C 0.80848 0.94684 0.59622 0.0
C794 C 0.74569 0.9693 0.57595 0.0
C795 C 0.82623 0.97706 0.57201 0.0
C796 C 0.79069 0.92411 0.42252 0.0
C797 C 0.77082 0.92949 0.43169 0.0
C798 C 0.7679 0.94966 0.44348 0.0
C799 C 0.78527 0.96464 0.44634 0.0
C800 C 0.80524 0.95936 0.43683 0.0
C801 C 0.80758 0.93926 0.42475 0.0
C802 C 0.74619 0.95511 0.45258 0.0
C803 C 0.82408 0.97496 0.4394 0.0
C804 C 0.74985 0.13412 0.40996 0.0
C805 C 0.76888 0.12293 0.39851 0.0
C806 C 0.76728 0.08319 0.40846 0.0
C807 C 0.7506 0.06803 0.41207 0.0
C808 C 0.75307 0.04953 0.42741 0.0
C809 C 0.77297 0.04581 0.43879 0.0
C810 C 0.79015 0.06071 0.43449 0.0
C811 C 0.78705 0.07935 0.41948 0.0
C812 C 0.73441 0.034 0.43149 0.0
C813 C 0.81183 0.05682 0.44555 0.0
C814 C 0.77716 0.03291 0.55465 0.0
C815 C 0.78064 0.01374 0.56859 0.0
C816 C 0.7835 0.99291 0.55838 0.0
C817 C 0.78333 0.99107 0.53349 0.0
C818 C 0.78646 0.97044 0.52262 0.0
C819 C 0.78632 0.9688 0.49812 0.0
C820 C 0.78275 0.98768 0.48351 0.0
C821 C 0.78238 0.98616 0.45858 0.0
C822 C 0.77912 0.00536 0.44463 0.0
C823 C 0.77593 0.02613 0.45483 0.0
C824 C 0.77583 0.02791 0.47973 0.0
C825 C 0.77207 0.04842 0.49061 0.0
C826 C 0.7724 0.05009 0.51511 0.0
C827 C 0.77649 0.03132 0.52971 0.0
C828 C 0.77981 0.01036 0.51912 0.0
C829 C 0.77947 0.00865 0.4941 0.0
C830 C 0.80521 0.87039 0.42531 0.0
C831 C 0.78594 0.88397 0.41655 0.0
O832 O 0.76596 0.11514 0.60124 0.0
O833 O 0.7641 0.10084 0.39352 0.0
O834 O 0.79376 0.905 0.41043 0.0
O835 O 0.79366 0.91825 0.62032 0.0
H836 H 0.74026 0.10943 0.62247 0.0
H837 H 0.72375 0.11806 0.5855 0.0
H838 H 0.7383 0.14345 0.58143 0.0
H839 H 0.71888 0.14101 0.60447 0.0
H840 H 0.80041 0.10235 0.58218 0.0
H841 H 0.73597 0.08263 0.59608 0.0
H842 H 0.81803 0.04855 0.56554 0.0
H843 H 0.82459 0.078 0.56467 0.0
H844 H 0.81153 0.06506 0.53976 0.0
H845 H 0.72039 0.05047 0.5803 0.0
H846 H 0.73884 0.02818 0.58624 0.0
H847 H 0.73365 0.03716 0.55632 0.0
H848 H 0.76424 0.91497 0.6356 0.0
H849 H 0.77731 0.92093 0.67638 0.0
H850 H 0.78061 0.94436 0.65644 0.0
H851 H 0.8032 0.92814 0.66517 0.0
H852 H 0.7562 0.93483 0.60472 0.0
H853 H 0.8241 0.94079 0.60135 0.0
H854 H 0.74408 0.96994 0.55638 0.0
H855 H 0.74298 0.9864 0.58244 0.0
H856 H 0.73316 0.95801 0.58312 0.0
H857 H 0.841 0.96966 0.57963 0.0
H858 H 0.82588 0.99507 0.57638 0.0
H859 H 0.82667 0.97592 0.55247 0.0
H860 H 0.77479 0.88526 0.43143 0.0
H861 H 0.75743 0.91827 0.42906 0.0
H862 H 0.82275 0.93513 0.41723 0.0
H863 H 0.74685 0.9558 0.47217 0.0
H864 H 0.73397 0.94254 0.44733 0.0
H865 H 0.74119 0.9718 0.44582 0.0
H866 H 0.83896 0.9675 0.43298 0.0
H867 H 0.82642 0.9795 0.45822 0.0
H868 H 0.82099 0.99062 0.42917 0.0
H869 H 0.78132 0.1237 0.41253 0.0
H870 H 0.75377 0.15183 0.41383 0.0
H871 H 0.74619 0.12542 0.42693 0.0
H872 H 0.73531 0.13366 0.39868 0.0
H873 H 0.73549 0.071 0.40314 0.0
H874 H 0.8002 0.09061 0.41597 0.0
H875 H 0.73197 0.03144 0.45075 0.0
H876 H 0.73777 0.01746 0.42391 0.0
H877 H 0.71949 0.04047 0.42326 0.0
H878 H 0.82405 0.06845 0.43833 0.0
H879 H 0.8169 0.03939 0.44261 0.0
H880 H 0.81108 0.05918 0.46492 0.0
H881 H 0.7809 0.015 0.5877 0.0
H882 H 0.78917 0.95531 0.53295 0.0
H883 H 0.789 0.95252 0.49075 0.0
H884 H 0.77906 0.00411 0.42552 0.0
H885 H 0.76886 0.06344 0.48029 0.0
H886 H 0.76944 0.06631 0.52247 0.0
H887 H 0.81665 0.86841 0.41076 0.0
H888 H 0.80068 0.85358 0.43211 0.0
H889 H 0.81344 0.87929 0.43996 0.0
C890 C 0.3993 0.27317 0.10586 0.0
C891 C 0.4122 0.28674 0.12415 0.0
C892 C 0.44008 0.30525 0.10046 0.0
C893 C 0.44711 0.32578 0.09123 0.0
C894 C 0.46537 0.32736 0.07734 0.0
C895 C 0.47684 0.30782 0.07246 0.0
C896 C 0.4699 0.28696 0.08175 0.0
C897 C 0.45168 0.28588 0.09571 0.0
C898 C 0.4724 0.34988 0.06784 0.0
C899 C 0.4818 0.26579 0.07695 0.0
C900 C 0.59754 0.2958 0.15408 0.0
C901 C 0.61163 0.29039 0.13301 0.0
C902 C 0.59164 0.30662 0.09966 0.0
C903 C 0.58213 0.28722 0.0905 0.0
C904 C 0.56387 0.2885 0.07601 0.0
C905 C 0.55508 0.30962 0.07033 0.0
C906 C 0.56516 0.32925 0.07864 0.0
C907 C 0.58347 0.32748 0.09309 0.0
C908 C 0.55381 0.26722 0.06699 0.0
C909 C 0.55636 0.35202 0.07257 0.0
C910 C 0.585 0.30275 0.91074 0.0
C911 C 0.57799 0.28365 0.92292 0.0
C912 C 0.56086 0.28445 0.93843 0.0
C913 C 0.55061 0.30501 0.94203 0.0
C914 C 0.55808 0.32461 0.93044 0.0
C915 C 0.57523 0.32332 0.91495 0.0
C916 C 0.55342 0.26322 0.95059 0.0
C917 C 0.54769 0.34685 0.93417 0.0
C918 C 0.38437 0.2988 0.92609 0.0
C919 C 0.39798 0.29646 0.90395 0.0
C920 C 0.43397 0.28901 0.92039 0.0
C921 C 0.44821 0.27183 0.92571 0.0
C922 C 0.46732 0.27594 0.93802 0.0
C923 C 0.47255 0.29799 0.94476 0.0
C924 C 0.45845 0.31563 0.939 0.0
C925 C 0.43915 0.31093 0.92715 0.0
C926 C 0.4819 0.25665 0.94383 0.0
C927 C 0.46376 0.33943 0.94541 0.0
C928 C 0.49615 0.30914 0.05772 0.0
C929 C 0.51591 0.31064 0.06926 0.0
C930 C 0.5348 0.3109 0.05661 0.0
C931 C 0.53407 0.3104 0.03163 0.0
C932 C 0.55275 0.31124 0.01833 0.0
C933 C 0.55188 0.31004 0.99378 0.0
C934 C 0.53233 0.30772 0.98163 0.0
C935 C 0.5313 0.30572 0.95676 0.0
C936 C 0.51158 0.30328 0.9453 0.0
C937 C 0.49271 0.30243 0.95799 0.0
C938 C 0.4934 0.30443 0.98286 0.0
C939 C 0.47475 0.30341 0.99622 0.0
C940 C 0.47558 0.30525 0.02068 0.0
C941 C 0.49512 0.30781 0.0328 0.0
C942 C 0.51415 0.30864 0.01971 0.0
C943 C 0.51328 0.30711 0.9947 0.0
C944 C 0.59093 0.31925 0.8584 0.0
C945 C 0.60788 0.3156 0.87807 0.0
O946 O 0.42213 0.30503 0.11361 0.0
O947 O 0.41568 0.28346 0.90866 0.0
O948 O 0.60098 0.30037 0.89508 0.0
O949 O 0.6087 0.30583 0.11471 0.0
H950 H 0.42416 0.27481 0.13126 0.0
H951 H 0.41014 0.26411 0.0942 0.0
H952 H 0.38916 0.28386 0.09427 0.0
H953 H 0.38914 0.26052 0.11493 0.0
H954 H 0.43815 0.34065 0.09495 0.0
H955 H 0.44671 0.26979 0.10267 0.0
H956 H 0.48906 0.35334 0.07359 0.0
H957 H 0.46216 0.36361 0.07385 0.0
H958 H 0.47204 0.34978 0.04822 0.0
H959 H 0.47359 0.25067 0.08406 0.0
H960 H 0.49792 0.2668 0.08517 0.0
H961 H 0.48378 0.26391 0.05763 0.0
H962 H 0.60588 0.27364 0.12777 0.0
H963 H 0.60115 0.2843 0.16922 0.0
H964 H 0.58055 0.2934 0.14898 0.0
H965 H 0.59951 0.31323 0.15999 0.0
H966 H 0.58892 0.27103 0.09437 0.0
H967 H 0.59114 0.34238 0.0999 0.0
H968 H 0.55336 0.26762 0.04737 0.0
H969 H 0.53715 0.26586 0.07304 0.0
H970 H 0.56252 0.25209 0.07312 0.0
H971 H 0.56669 0.36572 0.07933 0.0
H972 H 0.54033 0.35358 0.08025 0.0
H973 H 0.55454 0.354 0.0531 0.0
H974 H 0.61005 0.33229 0.88592 0.0
H975 H 0.58573 0.2679 0.91979 0.0
H976 H 0.58071 0.33842 0.90616 0.0
H977 H 0.5543 0.26522 0.97004 0.0
H978 H 0.56306 0.24855 0.94586 0.0
H979 H 0.53655 0.25982 0.94571 0.0
H980 H 0.55627 0.36083 0.92523 0.0
H981 H 0.54701 0.35027 0.95337 0.0
H982 H 0.5311 0.34629 0.92721 0.0
H983 H 0.40278 0.31383 0.8995 0.0
H984 H 0.36952 0.30792 0.92152 0.0
H985 H 0.39325 0.30858 0.93959 0.0
H986 H 0.3801 0.28252 0.93436 0.0
H987 H 0.44412 0.25501 0.92036 0.0
H988 H 0.42841 0.32452 0.92323 0.0
H989 H 0.4867 0.25681 0.9628 0.0
H990 H 0.49654 0.25842 0.93327 0.0
H991 H 0.47436 0.24025 0.93989 0.0
H992 H 0.45249 0.35154 0.93714 0.0
H993 H 0.48013 0.34383 0.93983 0.0
H994 H 0.46322 0.34116 0.96488 0.0
H995 H 0.51662 0.31093 0.08843 0.0
H996 H 0.56825 0.31281 0.02678 0.0
H997 H 0.56675 0.31074 0.98444 0.0
H998 H 0.51093 0.30147 0.92626 0.0
H999 H 0.45927 0.30118 0.98792 0.0
H1000 H 0.46071 0.30441 0.03 0.0
H1001 H 0.58406 0.30337 0.85188 0.0
H1002 H 0.59786 0.32874 0.84329 0.0
H1003 H 0.57757 0.3292 0.86506 0.0
C1004 C 0.15218 0.36763 0.24461 0.0
C1005 C 0.17663 0.37593 0.22989 0.0
C1006 C 0.15303 0.41261 0.1989 0.0
C1007 C 0.13024 0.40772 0.21884 0.0
N1008 N 0.10884 0.3763 0.24762 0.0
N1009 N 0.19532 0.40251 0.19567 0.0
C1010 C 0.12749 0.38203 0.23771 0.0
C1011 C 0.17701 0.39752 0.2068 0.0
N1012 N 0.1522 0.35 0.25982 0.0
N1013 N 0.15251 0.42887 0.18209 0.0
H1014 H 0.2095 0.3947 0.20058 0.0
H1015 H 0.19586 0.41478 0.18241 0.0
H1016 H 0.13865 0.43803 0.17924 0.0
H1017 H 0.16567 0.43244 0.1717 0.0
H1018 H 0.13834 0.34482 0.2682 0.0
H1019 H 0.16606 0.34106 0.26338 0.0
H1020 H 0.10758 0.36247 0.25897 0.0
H1021 H 0.0953 0.38573 0.24382 0.0
C1022 C 0.16204 0.65201 0.73496 0.0
C1023 C 0.17329 0.65322 0.75682 0.0
C1024 C 0.14831 0.62635 0.77451 0.0
C1025 C 0.13793 0.62379 0.75205 0.0
N1026 N 0.12858 0.64321 0.71558 0.0
N1027 N 0.17521 0.64421 0.79856 0.0
C1028 C 0.14287 0.63935 0.73361 0.0
C1029 C 0.16574 0.64133 0.77689 0.0
N1030 N 0.17006 0.66216 0.71517 0.0
N1031 N 0.14165 0.61537 0.79435 0.0
H1032 H 0.18759 0.6556 0.80148 0.0
H1033 H 0.1703 0.63555 0.8137 0.0
H1034 H 0.12826 0.60504 0.7952 0.0
H1035 H 0.12826 0.60504 0.7952 0.0
H1036 H 0.16372 0.65962 0.69829 0.0
H1037 H 0.18413 0.67151 0.7153 0.0
H1038 H 0.13075 0.6556 0.70265 0.0
H1039 H 0.11322 0.63652 0.71553 0.0
C1040 C 0.86767 0.65564 0.2398 0.0
C1041 C 0.86303 0.66372 0.26259 0.0
C1042 C 0.88718 0.63626 0.28076 0.0
C1043 C 0.88881 0.62555 0.25868 0.0
N1044 N 0.88703 0.62833 0.21684 0.0
N1045 N 0.86658 0.66048 0.30506 0.0
C1046 C 0.88082 0.63642 0.23795 0.0
C1047 C 0.8724 0.65379 0.28314 0.0
N1048 N 0.859 0.66606 0.22025 0.0
N1049 N 0.90086 0.63097 0.29899 0.0
H1050 H 0.85585 0.67333 0.30772 0.0
H1051 H 0.87097 0.65196 0.32057 0.0
H1052 H 0.91377 0.62042 0.29711 0.0
H1053 H 0.90145 0.6396 0.31482 0.0
H1054 H 0.85977 0.6602 0.20313 0.0
H1055 H 0.85028 0.68074 0.22116 0.0
H1056 H 0.88327 0.63523 0.2003 0.0
H1057 H 0.88327 0.63523 0.2003 0.0
C1058 C 0.85447 0.37393 0.78203 0.0
C1059 C 0.84697 0.37033 0.75106 0.0
C1060 C 0.87244 0.41362 0.73543 0.0
C1061 C 0.88419 0.41276 0.76592 0.0
N1062 N 0.87801 0.40015 0.81331 0.0
N1063 N 0.84754 0.38801 0.7058 0.0
C1064 C 0.8718 0.39686 0.7907 0.0
C1065 C 0.85505 0.39025 0.72813 0.0
N1066 N 0.84746 0.35922 0.79857 0.0
N1067 N 0.87866 0.42907 0.71929 0.0
H1068 H 0.83706 0.37507 0.70148 0.0
H1069 H 0.8519 0.39926 0.69245 0.0
H1070 H 0.88949 0.44155 0.72414 0.0
H1071 H 0.87278 0.4289 0.70197 0.0
H1072 H 0.85164 0.36097 0.81633 0.0
H1073 H 0.83817 0.34543 0.79391 0.0
H1074 H 0.87187 0.39049 0.82713 0.0
H1075 H 0.88905 0.41274 0.81719 0.0
C1076 C 0.24452 0.17636 0.35766 0.0
C1077 C 0.26122 0.19247 0.35821 0.0
C1078 C 0.28177 0.16835 0.3853 0.0
C1079 C 0.26368 0.15421 0.38817 0.0
N1080 N 0.23156 0.13969 0.36965 0.0
N1081 N 0.29516 0.20488 0.37375 0.0
C1082 C 0.24606 0.15669 0.37214 0.0
C1083 C 0.27978 0.18866 0.37218 0.0
N1084 N 0.22688 0.18025 0.34375 0.0
N1085 N 0.30124 0.16158 0.39359 0.0
H1086 H 0.29441 0.21998 0.3643 0.0
H1087 H 0.30776 0.20416 0.38592 0.0
H1088 H 0.30389 0.1456 0.40057 0.0
H1089 H 0.31527 0.17039 0.39037 0.0
H1090 H 0.21281 0.17106 0.34487 0.0
H1091 H 0.22585 0.19353 0.33163 0.0
H1092 H 0.21964 0.1394 0.3567 0.0
H1093 H 0.23248 0.12458 0.37892 0.0
C1094 C 0.36995 0.71003 0.84352 0.0
C1095 C 0.37304 0.72569 0.82481 0.0
C1096 C 0.40581 0.73836 0.84435 0.0
C1097 C 0.39807 0.72927 0.86604 0.0
N1098 N 0.37915 0.69686 0.88232 0.0
N1099 N 0.40316 0.73655 0.80166 0.0
C1100 C 0.38219 0.71214 0.86461 0.0
C1101 C 0.39384 0.73479 0.82319 0.0
N1102 N 0.35751 0.69156 0.84021 0.0
N1103 N 0.42464 0.74984 0.84375 0.0
H1104 H 0.39552 0.7306 0.78645 0.0
H1105 H 0.41901 0.74114 0.79937 0.0
H1106 H 0.43563 0.74956 0.85776 0.0
H1107 H 0.42934 0.75936 0.82912 0.0
H1108 H 0.35483 0.67968 0.85357 0.0
H1109 H 0.35173 0.68735 0.82344 0.0
H1110 H 0.38864 0.69578 0.89758 0.0
H1111 H 0.38864 0.69578 0.89758 0.0
C1112 C 0.77293 0.86704 0.35279 0.0
C1113 C 0.76686 0.8444 0.35624 0.0
C1114 C 0.76659 0.84977 0.39902 0.0
C1115 C 0.77458 0.87201 0.39578 0.0
N1116 N 0.7717 0.90387 0.36907 0.0
N1117 N 0.75519 0.81474 0.38257 0.0
C1118 C 0.77401 0.88141 0.37249 0.0
C1119 C 0.76275 0.83603 0.37928 0.0
N1120 N 0.77794 0.87488 0.33075 0.0
N1121 N 0.7618 0.84125 0.42077 0.0
H1122 H 0.75177 0.80401 0.36865 0.0
H1123 H 0.75221 0.80791 0.3993 0.0
H1124 H 0.76272 0.85023 0.43638 0.0
H1125 H 0.76272 0.85023 0.43638 0.0
H1126 H 0.78463 0.89066 0.32777 0.0
H1127 H 0.77712 0.86496 0.31578 0.0
H1128 H 0.76987 0.91135 0.35241 0.0
H1129 H 0.76757 0.91432 0.38273 0.0
C1130 C 0.64723 0.28996 0.83549 0.0
C1131 C 0.66559 0.30321 0.84013 0.0
C1132 C 0.64852 0.31886 0.87462 0.0
C1133 C 0.62915 0.30791 0.86815 0.0
N1134 N 0.61457 0.27435 0.8509 0.0
N1135 N 0.68497 0.32795 0.86621 0.0
C1136 C 0.62983 0.29071 0.85115 0.0
C1137 C 0.6666 0.31684 0.86035 0.0
N1138 N 0.64597 0.27741 0.81556 0.0
N1139 N 0.65064 0.33049 0.89501 0.0
H1140 H 0.69896 0.32652 0.85674 0.0
H1141 H 0.68617 0.33843 0.88074 0.0
H1142 H 0.63905 0.3311 0.90794 0.0
H1143 H 0.63905 0.3311 0.90794 0.0
H1144 H 0.63201 0.26953 0.80986 0.0
H1145 H 0.65839 0.27629 0.80369 0.0
H1146 H 0.61528 0.26036 0.84027 0.0
H1147 H 0.6027 0.27325 0.86348 0.0
C1148 C 0.25515 0.86422 0.66207 0.0
C1149 C 0.2659 0.84377 0.65915 0.0
C1150 C 0.28783 0.86117 0.62832 0.0
C1151 C 0.27929 0.88235 0.63385 0.0
N1152 N 0.24785 0.90128 0.64634 0.0
N1153 N 0.29241 0.82222 0.63971 0.0
C1154 C 0.26081 0.88311 0.64789 0.0
C1155 C 0.28207 0.84203 0.64212 0.0
N1156 N 0.24015 0.86585 0.67914 0.0
N1157 N 0.30023 0.85909 0.60891 0.0
H1158 H 0.28793 0.80755 0.6486 0.0
H1159 H 0.30622 0.82056 0.63005 0.0
H1160 H 0.30327 0.87228 0.5972 0.0
H1161 H 0.3054 0.84385 0.60268 0.0
H1162 H 0.23369 0.88096 0.68416 0.0
H1163 H 0.23524 0.85228 0.68956 0.0
H1164 H 0.23323 0.90209 0.65461 0.0
H1165 H 0.25023 0.91432 0.63419 0.0
C1166 C 0.66733 0.76049 0.15771 0.0
C1167 C 0.67353 0.7396 0.1677 0.0
C1168 C 0.64327 0.72133 0.14781 0.0
C1169 C 0.63949 0.74134 0.13462 0.0
N1170 N 0.64028 0.78159 0.13637 0.0
N1171 N 0.66739 0.70005 0.17316 0.0
C1172 C 0.64918 0.76153 0.1424 0.0
C1173 C 0.66131 0.72002 0.16325 0.0
N1174 N 0.67943 0.77915 0.16189 0.0
N1175 N 0.6288 0.70419 0.14677 0.0
H1176 H 0.67982 0.69862 0.18551 0.0
H1177 H 0.66092 0.68472 0.1682 0.0
H1178 H 0.61431 0.70562 0.13765 0.0
H1179 H 0.6297 0.68979 0.15729 0.0
H1180 H 0.67735 0.79425 0.15278 0.0
H1181 H 0.69255 0.77917 0.17341 0.0
H1182 H 0.64543 0.79676 0.14324 0.0
H1183 H 0.62608 0.78288 0.12673 0.0
C1184 C 0.75472 0.15289 0.67192 0.0
C1185 C 0.75498 0.1755 0.66391 0.0
C1186 C 0.76022 0.16323 0.62335 0.0
C1187 C 0.7554 0.14097 0.63065 0.0
N1188 N 0.75953 0.11389 0.66231 0.0
N1189 N 0.7579 0.20258 0.63202 0.0
C1190 C 0.75611 0.13551 0.65518 0.0
C1191 C 0.7581 0.18081 0.63967 0.0
N1192 N 0.75244 0.14809 0.69546 0.0
N1193 N 0.76807 0.16737 0.60135 0.0
H1194 H 0.75668 0.21599 0.64343 0.0
H1195 H 0.75741 0.20729 0.61421 0.0
H1196 H 0.77165 0.15459 0.58985 0.0
H1197 H 0.77358 0.18299 0.59572 0.0
H1198 H 0.74938 0.13213 0.7022 0.0
H1199 H 0.75265 0.16037 0.70833 0.0
H1200 H 0.76181 0.10888 0.67986 0.0
H1201 H 0.76275 0.10129 0.65042 0.0
C1202 C 0.39093 0.29059 0.18701 0.0
C1203 C 0.36908 0.29397 0.18178 0.0
C1204 C 0.3779 0.30306 0.14069 0.0
C1205 C 0.39858 0.29435 0.14474 0.0
N1206 N 0.42678 0.28929 0.17424 0.0
N1207 N 0.34137 0.30339 0.15336 0.0
C1208 C 0.40575 0.29109 0.16851 0.0
C1209 C 0.36246 0.30059 0.15861 0.0
N1210 N 0.39774 0.2868 0.20976 0.0
N1211 N 0.3734 0.31471 0.12031 0.0
H1212 H 0.32953 0.30177 0.16595 0.0
H1213 H 0.33552 0.30566 0.13616 0.0
H1214 H 0.38501 0.31853 0.10792 0.0
H1215 H 0.35911 0.32299 0.11722 0.0
H1216 H 0.41366 0.28383 0.21418 0.0
H1217 H 0.38756 0.28699 0.22412 0.0
H1218 H 0.43901 0.2915 0.16218 0.0
H1219 H 0.43901 0.2915 0.16218 0.0
C1220 C 0.86655 0.65888 0.77244 0.0
C1221 C 0.84763 0.65204 0.76056 0.0
C1222 C 0.86658 0.62125 0.74275 0.0
C1223 C 0.88614 0.62976 0.75215 0.0
N1224 N 0.90208 0.64894 0.78539 0.0
N1225 N 0.82892 0.62533 0.73621 0.0
C1226 C 0.88538 0.64628 0.76992 0.0
C1227 C 0.84745 0.63279 0.7464 0.0
N1228 N 0.86673 0.67785 0.78555 0.0
N1229 N 0.86538 0.60147 0.73127 0.0
H1230 H 0.81435 0.63311 0.7385 0.0
H1231 H 0.82825 0.61138 0.7254 0.0
H1232 H 0.878 0.59043 0.72982 0.0
H1233 H 0.878 0.59043 0.72982 0.0
H1234 H 0.88063 0.68523 0.79212 0.0
H1235 H 0.85313 0.68719 0.78844 0.0
H1236 H 0.90162 0.65926 0.79999 0.0
H1237 H 0.91539 0.63874 0.78552 0.0
C1238 C 0.88719 0.34863 0.21801 0.0
C1239 C 0.86906 0.35237 0.23189 0.0
C1240 C 0.88772 0.38289 0.25203 0.0
C1241 C 0.90689 0.37664 0.2411 0.0
N1242 N 0.92176 0.36192 0.20556 0.0
N1243 N 0.85173 0.37252 0.26252 0.0
C1244 C 0.90577 0.36196 0.22159 0.0
C1245 C 0.86915 0.36953 0.24884 0.0
N1246 N 0.88692 0.33172 0.20207 0.0
N1247 N 0.88688 0.40252 0.26394 0.0
H1248 H 0.83757 0.36355 0.26023 0.0
H1249 H 0.85178 0.38277 0.2772 0.0
H1250 H 0.89946 0.414 0.26423 0.0
H1251 H 0.87295 0.40893 0.27068 0.0
H1252 H 0.90042 0.32619 0.19363 0.0
H1253 H 0.87338 0.32212 0.19837 0.0
H1254 H 0.921 0.35318 0.18983 0.0
H1255 H 0.93478 0.37275 0.20646 0.0
C1256 C 0.14624 0.34813 0.77559 0.0
C1257 C 0.16597 0.35539 0.76642 0.0
C1258 C 0.14971 0.39054 0.75303 0.0
C1259 C 0.13149 0.38519 0.76663 0.0
N1260 N 0.1095 0.35459 0.78165 0.0
N1261 N 0.18687 0.38328 0.74587 0.0
C1262 C 0.12878 0.3628 0.775 0.0
C1263 C 0.16775 0.37643 0.75469 0.0
N1264 N 0.14404 0.32716 0.78519 0.0
N1265 N 0.1493 0.40826 0.73752 0.0
H1266 H 0.20022 0.37308 0.74596 0.0
H1267 H 0.18985 0.39953 0.73984 0.0
H1268 H 0.13573 0.41778 0.73441 0.0
H1269 H 0.16139 0.41184 0.72567 0.0
H1270 H 0.12981 0.32142 0.79245 0.0
H1271 H 0.15637 0.31562 0.7859 0.0
H1272 H 0.09527 0.36329 0.77967 0.0
H1273 H 0.09527 0.36329 0.77967 0.0
C1274 C 0.16364 0.66265 0.27518 0.0
C1275 C 0.16151 0.68276 0.26187 0.0
C1276 C 0.12706 0.6697 0.24636 0.0
C1277 C 0.1272 0.65212 0.26359 0.0
N1278 N 0.14997 0.62692 0.28654 0.0
N1279 N 0.14152 0.7057 0.23419 0.0
C1280 C 0.14669 0.64701 0.27549 0.0
C1281 C 0.14344 0.68623 0.24699 0.0
N1282 N 0.18188 0.65836 0.28783 0.0
N1283 N 0.11201 0.66992 0.22869 0.0
H1284 H 0.15348 0.71789 0.23365 0.0
H1285 H 0.12757 0.7104 0.22535 0.0
H1286 H 0.10084 0.65712 0.22664 0.0
H1287 H 0.11218 0.68121 0.21449 0.0
H1288 H 0.18383 0.64388 0.29816 0.0
H1289 H 0.19497 0.6692 0.28792 0.0
H1290 H 0.1393 0.61348 0.28581 0.0
H1291 H 0.1393 0.61348 0.28581 0.0
C1292 C 0.76709 0.8508 0.65278 0.0
C1293 C 0.78443 0.84462 0.66776 0.0
C1294 C 0.80316 0.87939 0.65716 0.0
C1295 C 0.78438 0.88716 0.64549 0.0
N1296 N 0.75382 0.876 0.62209 0.0
N1297 N 0.8189 0.85283 0.68497 0.0
C1298 C 0.76784 0.87158 0.64026 0.0
C1299 C 0.8026 0.85871 0.66989 0.0
N1300 N 0.74963 0.83711 0.65111 0.0
N1301 N 0.82183 0.89097 0.65479 0.0
H1302 H 0.81931 0.83763 0.69426 0.0
H1303 H 0.83129 0.86363 0.68961 0.0
H1304 H 0.82325 0.9052 0.64407 0.0
H1305 H 0.83644 0.88507 0.66098 0.0
H1306 H 0.73538 0.84192 0.643 0.0
H1307 H 0.7489 0.82132 0.65916 0.0
H1308 H 0.7424 0.86464 0.61613 0.0
H1309 H 0.75543 0.88987 0.61083 0.0
C1310 C 0.66397 0.30022 0.1672 0.0
C1311 C 0.67244 0.27843 0.16628 0.0
C1312 C 0.64641 0.26893 0.13528 0.0
C1313 C 0.63523 0.2888 0.14006 0.0
N1314 N 0.63901 0.32718 0.15312 0.0
N1315 N 0.67271 0.24201 0.14874 0.0
C1316 C 0.64569 0.30563 0.15349 0.0
C1317 C 0.66412 0.26284 0.14987 0.0
N1318 N 0.67305 0.31587 0.18158 0.0
N1319 N 0.64082 0.25665 0.11598 0.0
H1320 H 0.68631 0.23734 0.15833 0.0
H1321 H 0.66569 0.229 0.13934 0.0
H1322 H 0.62935 0.26202 0.10368 0.0
H1323 H 0.64931 0.2429 0.11046 0.0
H1324 H 0.66697 0.33195 0.18295 0.0
H1325 H 0.68651 0.31275 0.1921 0.0
H1326 H 0.62679 0.33319 0.14215 0.0
H1327 H 0.62679 0.33319 0.14215 0.0
C1328 C 0.23678 0.14285 0.6791 0.0
C1329 C 0.25353 0.15683 0.68738 0.0
C1330 C 0.27885 0.1343 0.66622 0.0
C1331 C 0.262 0.12192 0.65539 0.0
N1332 N 0.22384 0.11862 0.64846 0.0
N1333 N 0.28881 0.15061 0.70314 0.0
C1334 C 0.24062 0.12741 0.66091 0.0
C1335 C 0.27435 0.14853 0.6851 0.0
N1336 N 0.21823 0.14164 0.69122 0.0
N1337 N 0.29914 0.13347 0.65814 0.0
H1338 H 0.28442 0.15659 0.71957 0.0
H1339 H 0.30372 0.14315 0.70292 0.0
H1340 H 0.30305 0.12594 0.64235 0.0
H1341 H 0.31137 0.14324 0.66535 0.0
H1342 H 0.20619 0.13009 0.68746 0.0
H1343 H 0.21641 0.14994 0.70712 0.0
H1344 H 0.20829 0.12398 0.65062 0.0
H1345 H 0.22548 0.10789 0.63437 0.0
C1346 C 0.35852 0.7535 0.14898 0.0
C1347 C 0.35089 0.73423 0.16119 0.0
C1348 C 0.38107 0.71274 0.14728 0.0
C1349 C 0.39053 0.7329 0.13872 0.0
N1350 N 0.38334 0.76882 0.12055 0.0
N1351 N 0.35465 0.69543 0.17252 0.0
C1352 C 0.37777 0.7523 0.1363 0.0
C1353 C 0.36191 0.71371 0.16016 0.0
N1354 N 0.3477 0.77314 0.15017 0.0
N1355 N 0.38965 0.69263 0.14188 0.0
H1356 H 0.34048 0.69531 0.18181 0.0
H1357 H 0.36338 0.68086 0.17498 0.0
H1358 H 0.40277 0.69118 0.13107 0.0
H1359 H 0.38237 0.67732 0.14565 0.0
H1360 H 0.35382 0.78845 0.14435 0.0
H1361 H 0.33301 0.7744 0.1583 0.0
H1362 H 0.37395 0.78264 0.11657 0.0
H1363 H 0.39601 0.76725 0.10907 0.0
C1364 C 0.79816 0.16655 0.36129 0.0
C1365 C 0.78435 0.16934 0.34148 0.0
C1366 C 0.7619 0.13845 0.35598 0.0
C1367 C 0.77582 0.13577 0.37608 0.0
N1368 N 0.8122 0.14029 0.39008 0.0
N1369 N 0.75692 0.15389 0.31631 0.0
C1370 C 0.79552 0.14765 0.37639 0.0
C1371 C 0.76739 0.154 0.33768 0.0
N1372 N 0.8134 0.18226 0.36627 0.0
N1373 N 0.74328 0.12659 0.35435 0.0
H1374 H 0.76068 0.16492 0.30249 0.0
H1375 H 0.74599 0.14157 0.31142 0.0
H1376 H 0.73919 0.11349 0.36571 0.0
H1377 H 0.73126 0.13041 0.3421 0.0
H1378 H 0.82235 0.18202 0.38194 0.0
H1379 H 0.81573 0.19662 0.3559 0.0
H1380 H 0.82727 0.14766 0.38955 0.0
H1381 H 0.81203 0.12495 0.39902 0.0
C1382 C 0.36871 0.29329 0.84399 0.0
C1383 C 0.35506 0.27468 0.84786 0.0
C1384 C 0.3734 0.26636 0.88554 0.0
C1385 C 0.38528 0.28664 0.88307 0.0
N1386 N 0.4016 0.31194 0.85486 0.0
N1387 N 0.3432 0.24398 0.87251 0.0
C1388 C 0.38509 0.29804 0.86079 0.0
C1389 C 0.3572 0.26122 0.8686 0.0
N1390 N 0.36566 0.30682 0.82454 0.0
N1391 N 0.37867 0.25117 0.90294 0.0
H1392 H 0.33151 0.23929 0.86022 0.0
H1393 H 0.34208 0.23536 0.88858 0.0
H1394 H 0.39148 0.2533 0.91457 0.0
H1395 H 0.37207 0.23519 0.90415 0.0
H1396 H 0.37327 0.32222 0.82231 0.0
H1397 H 0.35425 0.30352 0.81143 0.0
H1398 H 0.4032 0.31933 0.83819 0.0
H1399 H 0.41531 0.31357 0.86531 0.0
C1400 C 0.27517 0.87967 0.34165 0.0
C1401 C 0.27272 0.85623 0.34475 0.0
C1402 C 0.264 0.86151 0.38629 0.0
C1403 C 0.27066 0.8842 0.38426 0.0
N1404 N 0.26811 0.91599 0.35764 0.0
N1405 N 0.26503 0.8244 0.37007 0.0
C1406 C 0.27216 0.89382 0.36121 0.0
C1407 C 0.26684 0.84704 0.367 0.0
N1408 N 0.28067 0.88843 0.32012 0.0
N1409 N 0.25361 0.85425 0.40601 0.0
H1410 H 0.26686 0.81318 0.35638 0.0
H1411 H 0.26332 0.81666 0.38656 0.0
H1412 H 0.24978 0.86495 0.41961 0.0
H1413 H 0.24657 0.8385 0.40761 0.0
H1414 H 0.28524 0.90505 0.31758 0.0
H1415 H 0.28195 0.87875 0.30507 0.0
H1416 H 0.26749 0.92368 0.341 0.0
H1417 H 0.26193 0.92581 0.37087 0.0
C1418 C 0.66525 0.76124 0.86258 0.0
C1419 C 0.66439 0.7478 0.84225 0.0
C1420 C 0.63175 0.72988 0.8565 0.0
C1421 C 0.63479 0.74029 0.87875 0.0
N1422 N 0.65061 0.77235 0.89888 0.0
N1423 N 0.64757 0.7184 0.81996 0.0
C1424 C 0.65023 0.75782 0.88063 0.0
C1425 C 0.64779 0.73192 0.83918 0.0
N1426 N 0.68055 0.77746 0.86491 0.0
N1427 N 0.61282 0.7196 0.85117 0.0
H1428 H 0.65872 0.71979 0.80657 0.0
H1429 H 0.63734 0.70471 0.81824 0.0
H1430 H 0.59966 0.72038 0.86207 0.0
H1431 H 0.6091 0.71324 0.83458 0.0
H1432 H 0.68182 0.78753 0.87975 0.0
H1433 H 0.69197 0.78076 0.85213 0.0
H1434 H 0.63931 0.7727 0.91212 0.0
H1435 H 0.63931 0.7727 0.91212 0.0
loop_
_geom_bond_atom_site_label_1
_geom_bond_atom_site_label_2
_geom_bond_distance
_geom_bond_site_symmetry_2
_ccdc_geom_bond_type
C0 C1 1.264 . S
C0 C5 1.479 . S
C0 C10 1.465 . S
C1 C0 1.264 . S
C1 C3 1.339 . S
C1 H28 0.931 . S
C2 C3 1.395 . S
C2 C4 1.320 . S
C3 C1 1.339 . S
C3 C2 1.395 . S
C3 H29 0.929 . S
C4 C2 1.320 . S
C4 C5 1.405 . S
C4 H30 0.930 . S
C5 C0 1.479 . S
C5 C4 1.405 . S
C5 H31 0.931 . S
U6 O7 2.454 . S
U6 O8 2.458 . S
U6 C9 2.984 . S
U6 C10 2.847 . S
U6 C23 2.882 . S
U6 O24 2.441 . S
U6 O25 2.420 . S
U6 O26 2.455 . S
U6 O27 2.449 . S
O7 U6 2.454 . S
O7 C9 1.353 . S
O8 U6 2.458 . S
O8 C9 1.286 . S
C9 U6 2.984 . S
C9 O7 1.353 . S
C9 O8 1.286 . S
C9 C11 1.363 . S
C10 C0 1.465 . S
C10 U6 2.847 . S
C10 O24 1.249 . S
C10 O25 1.202 . S
C11 C9 1.363 . S
C11 C13 1.408 . S
C11 C16 1.342 . S
C12 C13 1.310 . S
C12 C15 1.461 . S
C12 H32 0.932 . S
C13 C11 1.408 . S
C13 C12 1.310 . S
C13 H33 0.930 . S
C14 C15 1.474 . S
C14 C16 1.285 . S
C14 H34 0.929 . S
C15 C12 1.461 . S
C15 C14 1.474 . S
C16 C11 1.342 . S
C16 C14 1.285 . S
C16 H35 0.930 . S
C17 C20 1.424 . S
C17 C22 1.245 . S
C17 C23 1.428 . S
C18 C21 1.260 . S
C18 C22 1.477 . S
C18 H36 0.932 . S
C19 C20 1.384 . S
C19 C21 1.479 . S
C19 H37 0.929 . S
C20 C17 1.424 . S
C20 C19 1.384 . S
C20 H38 0.928 . S
C21 C18 1.260 . S
C21 C19 1.479 . S
C22 C17 1.245 . S
C22 C18 1.477 . S
C22 H39 0.932 . S
C23 U6 2.882 . S
C23 C17 1.428 . S
C23 O26 1.301 . S
C23 O27 1.282 . S
O24 U6 2.441 . S
O24 C10 1.249 . S
O25 U6 2.420 . S
O25 C10 1.202 . S
O26 U6 2.455 . S
O26 C23 1.301 . S
O27 U6 2.449 . S
O27 C23 1.282 . S
H28 C1 0.931 . S
H29 C3 0.929 . S
H30 C4 0.930 . S
H31 C5 0.931 . S
H32 C12 0.932 . S
H33 C13 0.930 . S
H34 C14 0.929 . S
H35 C16 0.930 . S
H36 C18 0.932 . S
H37 C19 0.929 . S
H38 C20 0.928 . S
H39 C22 0.932 . S
C40 C41 1.264 . S
C40 C45 1.479 . S
C40 C50 1.465 . S
C41 C40 1.264 . S
C41 C43 1.339 . S
C41 H68 0.931 . S
C42 C43 1.395 . S
C42 C44 1.320 . S
C43 C41 1.339 . S
C43 C42 1.395 . S
C43 H69 0.929 . S
C44 C42 1.320 . S
C44 C45 1.405 . S
C44 H70 0.930 . S
C45 C40 1.479 . S
C45 C44 1.405 . S
C45 H71 0.931 . S
U46 O47 2.454 . S
U46 O48 2.458 . S
U46 C49 2.984 . S
U46 C50 2.847 . S
U46 C63 2.882 . S
U46 O64 2.441 . S
U46 O65 2.420 . S
U46 O66 2.455 . S
U46 O67 2.449 . S
O47 U46 2.454 . S
O47 C49 1.353 . S
O48 U46 2.458 . S
O48 C49 1.286 . S
C49 U46 2.984 . S
C49 O47 1.353 . S
C49 O48 1.286 . S
C49 C51 1.363 . S
C50 C40 1.465 . S
C50 U46 2.847 . S
C50 O64 1.249 . S
C50 O65 1.202 . S
C51 C49 1.363 . S
C51 C53 1.408 . S
C51 C56 1.342 . S
C52 C53 1.310 . S
C52 C55 1.461 . S
C52 H72 0.932 . S
C53 C51 1.408 . S
C53 C52 1.310 . S
C53 H73 0.930 . S
C54 C55 1.474 . S
C54 C56 1.285 . S
C54 H74 0.929 . S
C55 C52 1.461 . S
C55 C54 1.474 . S
C56 C51 1.342 . S
C56 C54 1.285 . S
C56 H75 0.930 . S
C57 C60 1.424 . S
C57 C62 1.245 . S
C57 C63 1.428 . S
C58 C61 1.260 . S
C58 C62 1.477 . S
C58 H76 0.932 . S
C59 C60 1.384 . S
C59 C61 1.479 . S
C59 H77 0.929 . S
C60 C57 1.424 . S
C60 C59 1.384 . S
C60 H78 0.928 . S
C61 C58 1.260 . S
C61 C59 1.479 . S
C62 C57 1.245 . S
C62 C58 1.477 . S
C62 H79 0.932 . S
C63 U46 2.882 . S
C63 C57 1.428 . S
C63 O66 1.301 . S
C63 O67 1.282 . S
O64 U46 2.441 . S
O64 C50 1.249 . S
O65 U46 2.420 . S
O65 C50 1.202 . S
O66 U46 2.455 . S
O66 C63 1.301 . S
O67 U46 2.449 . S
O67 C63 1.282 . S
H68 C41 0.931 . S
H69 C43 0.929 . S
H70 C44 0.930 . S
H71 C45 0.931 . S
H72 C52 0.932 . S
H73 C53 0.930 . S
H74 C54 0.929 . S
H75 C56 0.930 . S
H76 C58 0.932 . S
H77 C59 0.929 . S
H78 C60 0.928 . S
H79 C62 0.932 . S
C80 C81 1.264 . S
C80 C85 1.479 . S
C80 C90 1.465 . S
C81 C80 1.264 . S
C81 C83 1.339 . S
C81 H108 0.931 . S
C82 C83 1.395 . S
C82 C84 1.320 . S
C83 C81 1.339 . S
C83 C82 1.395 . S
C83 H109 0.929 . S
C84 C82 1.320 . S
C84 C85 1.405 . S
C84 H110 0.930 . S
C85 C80 1.479 . S
C85 C84 1.405 . S
C85 H111 0.931 . S
U86 O87 2.454 . S
U86 O88 2.458 . S
U86 C89 2.984 . S
U86 C90 2.847 . S
U86 C103 2.882 . S
U86 O104 2.441 . S
U86 O105 2.420 . S
U86 O106 2.455 . S
U86 O107 2.449 . S
O87 U86 2.454 . S
O87 C89 1.353 . S
O88 U86 2.458 . S
O88 C89 1.286 . S
C89 U86 2.984 . S
C89 O87 1.353 . S
C89 O88 1.286 . S
C89 C91 1.363 . S
C90 C80 1.465 . S
C90 U86 2.847 . S
C90 O104 1.249 . S
C90 O105 1.202 . S
C91 C89 1.363 . S
C91 C93 1.408 . S
C91 C96 1.342 . S
C92 C93 1.310 . S
C92 C95 1.461 . S
C92 H112 0.932 . S
C93 C91 1.408 . S
C93 C92 1.310 . S
C93 H113 0.930 . S
C94 C95 1.474 . S
C94 C96 1.285 . S
C94 H114 0.929 . S
C95 C92 1.461 . S
C95 C94 1.474 . S
C96 C91 1.342 . S
C96 C94 1.285 . S
C96 H115 0.930 . S
C97 C100 1.424 . S
C97 C102 1.245 . S
C97 C103 1.428 . S
C98 C101 1.260 . S
C98 C102 1.477 . S
C98 H116 0.932 . S
C99 C100 1.384 . S
C99 C101 1.479 . S
C99 H117 0.929 . S
C100 C97 1.424 . S
C100 C99 1.384 . S
C100 H118 0.928 . S
C101 C98 1.260 . S
C101 C99 1.479 . S
C102 C97 1.245 . S
C102 C98 1.477 . S
C102 H119 0.932 . S
C103 U86 2.882 . S
C103 C97 1.428 . S
C103 O106 1.301 . S
C103 O107 1.282 . S
O104 U86 2.441 . S
O104 C90 1.249 . S
O105 U86 2.420 . S
O105 C90 1.202 . S
O106 U86 2.455 . S
O106 C103 1.301 . S
O107 U86 2.449 . S
O107 C103 1.282 . S
H108 C81 0.931 . S
H109 C83 0.929 . S
H110 C84 0.930 . S
H111 C85 0.931 . S
H112 C92 0.932 . S
H113 C93 0.930 . S
H114 C94 0.929 . S
H115 C96 0.930 . S
H116 C98 0.932 . S
H117 C99 0.929 . S
H118 C100 0.928 . S
H119 C102 0.932 . S
C120 C121 1.264 . S
C120 C125 1.479 . S
C120 C130 1.465 . S
C121 C120 1.264 . S
C121 C123 1.339 . S
C121 H148 0.931 . S
C122 C123 1.395 . S
C122 C124 1.320 . S
C123 C121 1.339 . S
C123 C122 1.395 . S
C123 H149 0.929 . S
C124 C122 1.320 . S
C124 C125 1.405 . S
C124 H150 0.930 . S
C125 C120 1.479 . S
C125 C124 1.405 . S
C125 H151 0.931 . S
U126 O127 2.454 . S
U126 O128 2.458 . S
U126 C129 2.984 . S
U126 C130 2.847 . S
U126 C143 2.882 . S
U126 O144 2.441 . S
U126 O145 2.420 . S
U126 O146 2.455 . S
U126 O147 2.449 . S
O127 U126 2.454 . S
O127 C129 1.353 . S
O128 U126 2.458 . S
O128 C129 1.286 . S
C129 U126 2.984 . S
C129 O127 1.353 . S
C129 O128 1.286 . S
C129 C131 1.363 . S
C130 C120 1.465 . S
C130 U126 2.847 . S
C130 O144 1.249 . S
C130 O145 1.202 . S
C131 C129 1.363 . S
C131 C133 1.408 . S
C131 C136 1.342 . S
C132 C133 1.310 . S
C132 C135 1.461 . S
C132 H152 0.932 . S
C133 C131 1.408 . S
C133 C132 1.310 . S
C133 H153 0.930 . S
C134 C135 1.474 . S
C134 C136 1.285 . S
C134 H154 0.929 . S
C135 C132 1.461 . S
C135 C134 1.474 . S
C136 C131 1.342 . S
C136 C134 1.285 . S
C136 H155 0.930 . S
C137 C140 1.424 . S
C137 C142 1.245 . S
C137 C143 1.428 . S
C138 C141 1.260 . S
C138 C142 1.477 . S
C138 H156 0.932 . S
C139 C140 1.384 . S
C139 C141 1.479 . S
C139 H157 0.929 . S
C140 C137 1.424 . S
C140 C139 1.384 . S
C140 H158 0.928 . S
C141 C138 1.260 . S
C141 C139 1.479 . S
C142 C137 1.245 . S
C142 C138 1.477 . S
C142 H159 0.932 . S
C143 U126 2.882 . S
C143 C137 1.428 . S
C143 O146 1.301 . S
C143 O147 1.282 . S
O144 U126 2.441 . S
O144 C130 1.249 . S
O145 U126 2.420 . S
O145 C130 1.202 . S
O146 U126 2.455 . S
O146 C143 1.301 . S
O147 U126 2.449 . S
O147 C143 1.282 . S
H148 C121 0.931 . S
H149 C123 0.929 . S
H150 C124 0.930 . S
H151 C125 0.931 . S
H152 C132 0.932 . S
H153 C133 0.930 . S
H154 C134 0.929 . S
H155 C136 0.930 . S
H156 C138 0.932 . S
H157 C139 0.929 . S
H158 C140 0.928 . S
H159 C142 0.932 . S
C160 C161 1.264 . S
C160 C165 1.479 . S
C160 C170 1.465 . S
C161 C160 1.264 . S
C161 C163 1.339 . S
C161 H188 0.931 . S
C162 C163 1.395 . S
C162 C164 1.320 . S
C163 C161 1.339 . S
C163 C162 1.395 . S
C163 H189 0.929 . S
C164 C162 1.320 . S
C164 C165 1.405 . S
C164 H190 0.930 . S
C165 C160 1.479 . S
C165 C164 1.405 . S
C165 H191 0.931 . S
U166 O167 2.454 . S
U166 O168 2.458 . S
U166 C169 2.984 . S
U166 C170 2.847 . S
U166 C183 2.882 . S
U166 O184 2.441 . S
U166 O185 2.420 . S
U166 O186 2.455 . S
U166 O187 2.449 . S
O167 U166 2.454 . S
O167 C169 1.353 . S
O168 U166 2.458 . S
O168 C169 1.286 . S
C169 U166 2.984 . S
C169 O167 1.353 . S
C169 O168 1.286 . S
C169 C171 1.363 . S
C170 C160 1.465 . S
C170 U166 2.847 . S
C170 O184 1.249 . S
C170 O185 1.202 . S
C171 C169 1.363 . S
C171 C173 1.408 . S
C171 C176 1.342 . S
C172 C173 1.310 . S
C172 C175 1.461 . S
C172 H192 0.932 . S
C173 C171 1.408 . S
C173 C172 1.310 . S
C173 H193 0.930 . S
C174 C175 1.474 . S
C174 C176 1.285 . S
C174 H194 0.929 . S
C175 C172 1.461 . S
C175 C174 1.474 . S
C176 C171 1.342 . S
C176 C174 1.285 . S
C176 H195 0.930 . S
C177 C180 1.424 . S
C177 C182 1.245 . S
C177 C183 1.428 . S
C178 C181 1.260 . S
C178 C182 1.477 . S
C178 H196 0.932 . S
C179 C180 1.384 . S
C179 C181 1.479 . S
C179 H197 0.929 . S
C180 C177 1.424 . S
C180 C179 1.384 . S
C180 H198 0.928 . S
C181 C178 1.260 . S
C181 C179 1.479 . S
C182 C177 1.245 . S
C182 C178 1.477 . S
C182 H199 0.932 . S
C183 U166 2.882 . S
C183 C177 1.428 . S
C183 O186 1.301 . S
C183 O187 1.282 . S
O184 U166 2.441 . S
O184 C170 1.249 . S
O185 U166 2.420 . S
O185 C170 1.202 . S
O186 U166 2.455 . S
O186 C183 1.301 . S
O187 U166 2.449 . S
O187 C183 1.282 . S
H188 C161 0.931 . S
H189 C163 0.929 . S
H190 C164 0.930 . S
H191 C165 0.931 . S
H192 C172 0.932 . S
H193 C173 0.930 . S
H194 C174 0.929 . S
H195 C176 0.930 . S
H196 C178 0.932 . S
H197 C179 0.929 . S
H198 C180 0.928 . S
H199 C182 0.932 . S
C200 C201 1.264 . S
C200 C205 1.479 . S
C200 C210 1.465 . S
C201 C200 1.264 . S
C201 C203 1.339 . S
C201 H228 0.931 . S
C202 C203 1.395 . S
C202 C204 1.320 . S
C203 C201 1.339 . S
C203 C202 1.395 . S
C203 H229 0.929 . S
C204 C202 1.320 . S
C204 C205 1.405 . S
C204 H230 0.930 . S
C205 C200 1.479 . S
C205 C204 1.405 . S
C205 H231 0.931 . S
U206 O207 2.454 . S
U206 O208 2.458 . S
U206 C209 2.984 . S
U206 C210 2.847 . S
U206 C223 2.882 . S
U206 O224 2.441 . S
U206 O225 2.420 . S
U206 O226 2.455 . S
U206 O227 2.449 . S
O207 U206 2.454 . S
O207 C209 1.353 . S
O208 U206 2.458 . S
O208 C209 1.286 . S
C209 U206 2.984 . S
C209 O207 1.353 . S
C209 O208 1.286 . S
C209 C211 1.363 . S
C210 C200 1.465 . S
C210 U206 2.847 . S
C210 O224 1.249 . S
C210 O225 1.202 . S
C211 C209 1.363 . S
C211 C213 1.408 . S
C211 C216 1.342 . S
C212 C213 1.310 . S
C212 C215 1.461 . S
C212 H232 0.932 . S
C213 C211 1.408 . S
C213 C212 1.310 . S
C213 H233 0.930 . S
C214 C215 1.474 . S
C214 C216 1.285 . S
C214 H234 0.929 . S
C215 C212 1.461 . S
C215 C214 1.474 . S
C216 C211 1.342 . S
C216 C214 1.285 . S
C216 H235 0.930 . S
C217 C220 1.424 . S
C217 C222 1.245 . S
C217 C223 1.428 . S
C218 C221 1.260 . S
C218 C222 1.477 . S
C218 H236 0.932 . S
C219 C220 1.384 . S
C219 C221 1.479 . S
C219 H237 0.929 . S
C220 C217 1.424 . S
C220 C219 1.384 . S
C220 H238 0.928 . S
C221 C218 1.260 . S
C221 C219 1.479 . S
C222 C217 1.245 . S
C222 C218 1.477 . S
C222 H239 0.932 . S
C223 U206 2.882 . S
C223 C217 1.428 . S
C223 O226 1.301 . S
C223 O227 1.282 . S
O224 U206 2.441 . S
O224 C210 1.249 . S
O225 U206 2.420 . S
O225 C210 1.202 . S
O226 U206 2.455 . S
O226 C223 1.301 . S
O227 U206 2.449 . S
O227 C223 1.282 . S
H228 C201 0.931 . S
H229 C203 0.929 . S
H230 C204 0.930 . S
H231 C205 0.931 . S
H232 C212 0.932 . S
H233 C213 0.930 . S
H234 C214 0.929 . S
H235 C216 0.930 . S
H236 C218 0.932 . S
H237 C219 0.929 . S
H238 C220 0.928 . S
H239 C222 0.932 . S
C240 C241 1.264 . S
C240 C245 1.479 . S
C240 C250 1.465 . S
C241 C240 1.264 . S
C241 C243 1.339 . S
C241 H268 0.931 . S
C242 C243 1.395 . S
C242 C244 1.320 . S
C243 C241 1.339 . S
C243 C242 1.395 . S
C243 H269 0.929 . S
C244 C242 1.320 . S
C244 C245 1.405 . S
C244 H270 0.930 . S
C245 C240 1.479 . S
C245 C244 1.405 . S
C245 H271 0.931 . S
U246 O247 2.454 . S
U246 O248 2.458 . S
U246 C249 2.984 . S
U246 C250 2.847 . S
U246 C263 2.882 . S
U246 O264 2.441 . S
U246 O265 2.420 . S
U246 O266 2.455 . S
U246 O267 2.449 . S
O247 U246 2.454 . S
O247 C249 1.353 . S
O248 U246 2.458 . S
O248 C249 1.286 . S
C249 U246 2.984 . S
C249 O247 1.353 . S
C249 O248 1.286 . S
C249 C251 1.363 . S
C250 C240 1.465 . S
C250 U246 2.847 . S
C250 O264 1.249 . S
C250 O265 1.202 . S
C251 C249 1.363 . S
C251 C253 1.408 . S
C251 C256 1.342 . S
C252 C253 1.310 . S
C252 C255 1.461 . S
C252 H272 0.932 . S
C253 C251 1.408 . S
C253 C252 1.310 . S
C253 H273 0.930 . S
C254 C255 1.474 . S
C254 C256 1.285 . S
C254 H274 0.929 . S
C255 C252 1.461 . S
C255 C254 1.474 . S
C256 C251 1.342 . S
C256 C254 1.285 . S
C256 H275 0.930 . S
C257 C260 1.424 . S
C257 C262 1.245 . S
C257 C263 1.428 . S
C258 C261 1.260 . S
C258 C262 1.477 . S
C258 H276 0.932 . S
C259 C260 1.384 . S
C259 C261 1.479 . S
C259 H277 0.929 . S
C260 C257 1.424 . S
C260 C259 1.384 . S
C260 H278 0.928 . S
C261 C258 1.260 . S
C261 C259 1.479 . S
C262 C257 1.245 . S
C262 C258 1.477 . S
C262 H279 0.932 . S
C263 U246 2.882 . S
C263 C257 1.428 . S
C263 O266 1.301 . S
C263 O267 1.282 . S
O264 U246 2.441 . S
O264 C250 1.249 . S
O265 U246 2.420 . S
O265 C250 1.202 . S
O266 U246 2.455 . S
O266 C263 1.301 . S
O267 U246 2.449 . S
O267 C263 1.282 . S
H268 C241 0.931 . S
H269 C243 0.929 . S
H270 C244 0.930 . S
H271 C245 0.931 . S
H272 C252 0.932 . S
H273 C253 0.930 . S
H274 C254 0.929 . S
H275 C256 0.930 . S
H276 C258 0.932 . S
H277 C259 0.929 . S
H278 C260 0.928 . S
H279 C262 0.932 . S
C280 C281 1.264 . S
C280 C285 1.479 . S
C280 C290 1.465 . S
C281 C280 1.264 . S
C281 C283 1.339 . S
C281 H308 0.931 . S
C282 C283 1.395 . S
C282 C284 1.320 . S
C283 C281 1.339 . S
C283 C282 1.395 . S
C283 H309 0.929 . S
C284 C282 1.320 . S
C284 C285 1.405 . S
C284 H310 0.930 . S
C285 C280 1.479 . S
C285 C284 1.405 . S
C285 H311 0.931 . S
U286 O287 2.454 . S
U286 O288 2.458 . S
U286 C289 2.984 . S
U286 C290 2.847 . S
U286 C303 2.882 . S
U286 O304 2.441 . S
U286 O305 2.420 . S
U286 O306 2.455 . S
U286 O307 2.449 . S
O287 U286 2.454 . S
O287 C289 1.353 . S
O288 U286 2.458 . S
O288 C289 1.286 . S
C289 U286 2.984 . S
C289 O287 1.353 . S
C289 O288 1.286 . S
C289 C291 1.363 . S
C290 C280 1.465 . S
C290 U286 2.847 . S
C290 O304 1.249 . S
C290 O305 1.202 . S
C291 C289 1.363 . S
C291 C293 1.408 . S
C291 C296 1.342 . S
C292 C293 1.310 . S
C292 C295 1.461 . S
C292 H312 0.932 . S
C293 C291 1.408 . S
C293 C292 1.310 . S
C293 H313 0.930 . S
C294 C295 1.474 . S
C294 C296 1.285 . S
C294 H314 0.929 . S
C295 C292 1.461 . S
C295 C294 1.474 . S
C296 C291 1.342 . S
C296 C294 1.285 . S
C296 H315 0.930 . S
C297 C300 1.424 . S
C297 C302 1.245 . S
C297 C303 1.428 . S
C298 C301 1.260 . S
C298 C302 1.477 . S
C298 H316 0.932 . S
C299 C300 1.384 . S
C299 C301 1.479 . S
C299 H317 0.929 . S
C300 C297 1.424 . S
C300 C299 1.384 . S
C300 H318 0.928 . S
C301 C298 1.260 . S
C301 C299 1.479 . S
C302 C297 1.245 . S
C302 C298 1.477 . S
C302 H319 0.932 . S
C303 U286 2.882 . S
C303 C297 1.428 . S
C303 O306 1.301 . S
C303 O307 1.282 . S
O304 U286 2.441 . S
O304 C290 1.249 . S
O305 U286 2.420 . S
O305 C290 1.202 . S
O306 U286 2.455 . S
O306 C303 1.301 . S
O307 U286 2.449 . S
O307 C303 1.282 . S
H308 C281 0.931 . S
H309 C283 0.929 . S
H310 C284 0.930 . S
H311 C285 0.931 . S
H312 C292 0.932 . S
H313 C293 0.930 . S
H314 C294 0.929 . S
H315 C296 0.930 . S
H316 C298 0.932 . S
H317 C299 0.929 . S
H318 C300 0.928 . S
H319 C302 0.932 . S
C320 C321 1.560 . S
C320 H381 0.959 . S
C320 H382 0.959 . S
C320 H383 0.960 . S
C321 C320 1.560 . S
C321 O376 1.426 . S
C321 H380 0.980 . S
C322 C323 1.407 . S
C322 C327 1.418 . S
C322 O376 1.334 . S
C323 C322 1.407 . S
C323 C324 1.360 . S
C323 H384 0.929 . S
C324 C323 1.360 . S
C324 C325 1.401 . S
C324 C328 1.527 . S
C325 C324 1.401 . S
C325 C326 1.405 . S
C325 C358 1.587 . S
C326 C325 1.405 . S
C326 C327 1.332 . S
C326 C329 1.496 . S
C327 C322 1.418 . S
C327 C326 1.332 . S
C327 H385 0.929 . S
C328 C324 1.527 . S
C328 H386 0.959 . S
C328 H387 0.961 . S
C328 H388 0.961 . S
C329 C326 1.496 . S
C329 H389 0.960 . S
C329 H390 0.960 1_655 S
C329 H391 0.961 . S
C330 C331 1.517 . S
C330 H393 0.961 . S
C330 H394 0.960 . S
C330 H395 0.959 . S
C331 C330 1.517 . S
C331 O379 1.468 . S
C331 H392 0.980 . S
C332 C333 1.349 . S
C332 C337 1.367 . S
C332 O379 1.408 . S
C333 C332 1.349 . S
C333 C334 1.407 . S
C333 H396 0.930 . S
C334 C333 1.407 . S
C334 C335 1.449 . S
C334 C338 1.535 . S
C335 C334 1.449 . S
C335 C336 1.384 . S
C335 C360 1.553 . S
C336 C335 1.384 . S
C336 C337 1.364 . S
C336 C339 1.450 . S
C337 C332 1.367 . S
C337 C336 1.364 . S
C337 H397 0.931 . S
C338 C334 1.535 . S
C338 H398 0.959 . S
C338 H399 0.961 . S
C338 H400 0.959 . S
C339 C336 1.450 . S
C339 H401 0.960 . S
C339 H402 0.960 . S
C339 H403 0.960 . S
C340 C341 1.309 . S
C340 C345 1.304 . S
C340 O378 1.435 . S
C341 C340 1.309 . S
C341 C342 1.476 . S
C341 H405 0.930 . S
C342 C341 1.476 . S
C342 C343 1.400 . S
C342 C346 1.567 . S
C343 C342 1.400 . S
C343 C344 1.373 . S
C343 C365 1.432 . S
C344 C343 1.373 . S
C344 C345 1.339 . S
C344 C347 1.530 . S
C345 C340 1.304 . S
C345 C344 1.339 . S
C345 H406 0.930 . S
C346 C342 1.567 . S
C346 H407 0.961 . S
C346 H408 0.960 . S
C346 H409 0.958 . S
C347 C344 1.530 . S
C347 H410 0.961 . S
C347 H411 0.960 . S
C347 H412 0.960 . S
C348 C349 1.530 . S
C348 H414 0.961 . S
C348 H415 0.961 . S
C348 H416 0.959 . S
C349 C348 1.530 . S
C349 O377 1.412 . S
C349 H413 0.980 . S
C350 C351 1.288 . S
C350 C355 1.377 . S
C350 O377 1.393 . S
C351 C350 1.288 . S
C351 C352 1.369 . S
C351 H417 0.932 . S
C352 C351 1.369 . S
C352 C353 1.398 . S
C352 C356 1.527 . S
C353 C352 1.398 . S
C353 C354 1.380 . S
C353 C367 1.497 . S
C354 C353 1.380 . S
C354 C355 1.383 . S
C354 C357 1.603 . S
C355 C350 1.377 . S
C355 C354 1.383 . S
C355 H418 0.929 . S
C356 C352 1.527 . S
C356 H419 0.961 . S
C356 H420 0.959 . S
C356 H421 0.959 . S
C357 C354 1.603 . S
C357 H422 0.960 . S
C357 H423 0.962 . S
C357 H424 0.961 . S
C358 C325 1.587 . S
C358 C359 1.360 1_655 S
C358 C371 1.412 . S
C359 C358 1.360 1_455 S
C359 C360 1.365 . S
C359 H425 0.929 . S
C360 C335 1.553 . S
C360 C359 1.365 . S
C360 C361 1.404 . S
C361 C360 1.404 . S
C361 C362 1.395 . S
C361 C372 1.451 . S
C362 C361 1.395 . S
C362 C363 1.322 . S
C362 H426 0.930 . S
C363 C362 1.322 . S
C363 C364 1.459 . S
C363 H427 0.929 . S
C364 C363 1.459 . S
C364 C365 1.445 . S
C364 C373 1.395 . S
C365 C343 1.432 . S
C365 C364 1.445 . S
C365 C366 1.370 . S
C366 C365 1.370 . S
C366 C367 1.438 1_455 S
C366 H428 0.930 . S
C367 C353 1.497 . S
C367 C366 1.438 1_655 S
C367 C368 1.360 . S
C368 C367 1.360 . S
C368 C369 1.401 . S
C368 C373 1.446 1_655 S
C369 C368 1.401 . S
C369 C370 1.347 . S
C369 H429 0.929 . S
C370 C369 1.347 . S
C370 C371 1.455 . S
C370 H430 0.930 . S
C371 C358 1.412 . S
C371 C370 1.455 . S
C371 C372 1.331 1_655 S
C372 C361 1.451 . S
C372 C371 1.331 1_455 S
C372 C373 1.497 . S
C373 C364 1.395 . S
C373 C368 1.446 1_455 S
C373 C372 1.497 . S
C374 C375 1.582 . S
C374 H431 0.962 . S
C374 H432 0.959 . S
C374 H433 0.958 . S
C375 C374 1.582 . S
C375 O378 1.458 . S
C375 H404 0.980 . S
O376 C321 1.426 . S
O376 C322 1.334 . S
O377 C349 1.412 . S
O377 C350 1.393 . S
O378 C340 1.435 . S
O378 C375 1.458 . S
O379 C331 1.468 . S
O379 C332 1.408 . S
H380 C321 0.980 . S
H381 C320 0.959 . S
H382 C320 0.959 . S
H383 C320 0.960 . S
H384 C323 0.929 . S
H385 C327 0.929 . S
H386 C328 0.959 . S
H387 C328 0.961 . S
H388 C328 0.961 . S
H389 C329 0.960 . S
H390 C329 0.960 1_455 S
H391 C329 0.961 . S
H392 C331 0.980 . S
H393 C330 0.961 . S
H394 C330 0.960 . S
H395 C330 0.959 . S
H396 C333 0.930 . S
H397 C337 0.931 . S
H398 C338 0.959 . S
H399 C338 0.961 . S
H400 C338 0.959 . S
H401 C339 0.960 . S
H402 C339 0.960 . S
H403 C339 0.960 . S
H404 C375 0.980 . S
H405 C341 0.930 . S
H406 C345 0.930 . S
H407 C346 0.961 . S
H408 C346 0.960 . S
H409 C346 0.958 . S
H410 C347 0.961 . S
H411 C347 0.960 . S
H412 C347 0.960 . S
H413 C349 0.980 . S
H414 C348 0.961 . S
H415 C348 0.961 . S
H416 C348 0.959 . S
H417 C351 0.932 . S
H418 C355 0.929 . S
H419 C356 0.961 . S
H420 C356 0.959 . S
H421 C356 0.959 . S
H422 C357 0.960 . S
H423 C357 0.962 . S
H424 C357 0.961 . S
H425 C359 0.929 . S
H426 C362 0.930 . S
H427 C363 0.929 . S
H428 C366 0.930 . S
H429 C369 0.929 . S
H430 C370 0.930 . S
H431 C374 0.962 . S
H432 C374 0.959 . S
H433 C374 0.958 . S
C434 C435 1.560 . S
C434 H495 0.959 . S
C434 H496 0.959 . S
C434 H497 0.960 . S
C435 C434 1.560 . S
C435 O490 1.426 . S
C435 H494 0.980 . S
C436 C437 1.407 . S
C436 C441 1.418 . S
C436 O490 1.334 . S
C437 C436 1.407 . S
C437 C438 1.360 . S
C437 H498 0.929 . S
C438 C437 1.360 . S
C438 C439 1.401 . S
C438 C442 1.527 . S
C439 C438 1.401 . S
C439 C440 1.405 . S
C439 C472 1.587 . S
C440 C439 1.405 . S
C440 C441 1.332 . S
C440 C443 1.496 . S
C441 C436 1.418 . S
C441 C440 1.332 . S
C441 H499 0.929 . S
C442 C438 1.527 . S
C442 H500 0.959 . S
C442 H501 0.961 . S
C442 H502 0.961 . S
C443 C440 1.496 . S
C443 H503 0.960 . S
C443 H504 0.960 . S
C443 H505 0.961 . S
C444 C445 1.517 . S
C444 H507 0.961 . S
C444 H508 0.960 . S
C444 H509 0.959 . S
C445 C444 1.517 . S
C445 O493 1.468 . S
C445 H506 0.980 . S
C446 C447 1.349 . S
C446 C451 1.367 . S
C446 O493 1.408 . S
C447 C446 1.349 . S
C447 C448 1.407 . S
C447 H510 0.930 . S
C448 C447 1.407 . S
C448 C449 1.449 . S
C448 C452 1.535 . S
C449 C448 1.449 . S
C449 C450 1.384 . S
C449 C474 1.553 . S
C450 C449 1.384 . S
C450 C451 1.364 . S
C450 C453 1.450 . S
C451 C446 1.367 . S
C451 C450 1.364 . S
C451 H511 0.931 . S
C452 C448 1.535 . S
C452 H512 0.959 . S
C452 H513 0.961 . S
C452 H514 0.959 . S
C453 C450 1.450 . S
C453 H515 0.960 . S
C453 H516 0.960 . S
C453 H517 0.960 . S
C454 C455 1.309 . S
C454 C459 1.304 . S
C454 O492 1.435 . S
C455 C454 1.309 . S
C455 C456 1.476 . S
C455 H519 0.930 . S
C456 C455 1.476 . S
C456 C457 1.400 . S
C456 C460 1.567 . S
C457 C456 1.400 . S
C457 C458 1.373 . S
C457 C479 1.432 . S
C458 C457 1.373 . S
C458 C459 1.339 . S
C458 C461 1.530 . S
C459 C454 1.304 . S
C459 C458 1.339 . S
C459 H520 0.930 . S
C460 C456 1.567 . S
C460 H521 0.961 . S
C460 H522 0.960 . S
C460 H523 0.958 . S
C461 C458 1.530 . S
C461 H524 0.961 . S
C461 H525 0.960 . S
C461 H526 0.960 . S
C462 C463 1.530 . S
C462 H528 0.961 . S
C462 H529 0.961 . S
C462 H530 0.959 . S
C463 C462 1.530 . S
C463 O491 1.412 . S
C463 H527 0.980 . S
C464 C465 1.288 . S
C464 C469 1.377 . S
C464 O491 1.393 . S
C465 C464 1.288 . S
C465 C466 1.369 . S
C465 H531 0.932 . S
C466 C465 1.369 . S
C466 C467 1.398 . S
C466 C470 1.527 . S
C467 C466 1.398 . S
C467 C468 1.380 . S
C467 C481 1.497 . S
C468 C467 1.380 . S
C468 C469 1.383 . S
C468 C471 1.603 . S
C469 C464 1.377 . S
C469 C468 1.383 . S
C469 H532 0.929 . S
C470 C466 1.527 . S
C470 H533 0.961 . S
C470 H534 0.959 . S
C470 H535 0.959 . S
C471 C468 1.603 . S
C471 H536 0.960 . S
C471 H537 0.962 . S
C471 H538 0.961 . S
C472 C439 1.587 . S
C472 C473 1.360 . S
C472 C485 1.412 . S
C473 C472 1.360 . S
C473 C474 1.365 1_455 S
C473 H539 0.929 . S
C474 C449 1.553 . S
C474 C473 1.365 1_655 S
C474 C475 1.404 . S
C475 C474 1.404 . S
C475 C476 1.395 . S
C475 C486 1.451 1_655 S
C476 C475 1.395 . S
C476 C477 1.322 . S
C476 H540 0.930 . S
C477 C476 1.322 . S
C477 C478 1.459 . S
C477 H541 0.929 . S
C478 C477 1.459 . S
C478 C479 1.445 . S
C478 C487 1.395 1_655 S
C479 C457 1.432 . S
C479 C478 1.445 . S
C479 C480 1.370 1_655 S
C480 C479 1.370 1_455 S
C480 C481 1.438 . S
C480 H542 0.930 . S
C481 C467 1.497 . S
C481 C480 1.438 . S
C481 C482 1.360 . S
C482 C481 1.360 . S
C482 C483 1.401 . S
C482 C487 1.446 . S
C483 C482 1.401 . S
C483 C484 1.347 . S
C483 H543 0.929 . S
C484 C483 1.347 . S
C484 C485 1.455 . S
C484 H544 0.930 . S
C485 C472 1.412 . S
C485 C484 1.455 . S
C485 C486 1.331 . S
C486 C475 1.451 1_455 S
C486 C485 1.331 . S
C486 C487 1.497 . S
C487 C478 1.395 1_455 S
C487 C482 1.446 . S
C487 C486 1.497 . S
C488 C489 1.582 . S
C488 H545 0.962 . S
C488 H546 0.959 . S
C488 H547 0.958 . S
C489 C488 1.582 . S
C489 O492 1.458 . S
C489 H518 0.980 . S
O490 C435 1.426 . S
O490 C436 1.334 . S
O491 C463 1.412 . S
O491 C464 1.393 . S
O492 C454 1.435 . S
O492 C489 1.458 . S
O493 C445 1.468 . S
O493 C446 1.408 . S
H494 C435 0.980 . S
H495 C434 0.959 . S
H496 C434 0.959 . S
H497 C434 0.960 . S
H498 C437 0.929 . S
H499 C441 0.929 . S
H500 C442 0.959 . S
H501 C442 0.961 . S
H502 C442 0.961 . S
H503 C443 0.960 . S
H504 C443 0.960 . S
H505 C443 0.961 . S
H506 C445 0.980 . S
H507 C444 0.961 . S
H508 C444 0.960 . S
H509 C444 0.959 . S
H510 C447 0.930 . S
H511 C451 0.931 . S
H512 C452 0.959 . S
H513 C452 0.961 . S
H514 C452 0.959 . S
H515 C453 0.960 . S
H516 C453 0.960 . S
H517 C453 0.960 . S
H518 C489 0.980 . S
H519 C455 0.930 . S
H520 C459 0.930 . S
H521 C460 0.961 . S
H522 C460 0.960 . S
H523 C460 0.958 . S
H524 C461 0.961 . S
H525 C461 0.960 . S
H526 C461 0.960 . S
H527 C463 0.980 . S
H528 C462 0.961 . S
H529 C462 0.961 . S
H530 C462 0.959 . S
H531 C465 0.932 . S
H532 C469 0.929 . S
H533 C470 0.961 . S
H534 C470 0.959 . S
H535 C470 0.959 . S
H536 C471 0.960 . S
H537 C471 0.962 . S
H538 C471 0.961 . S
H539 C473 0.929 . S
H540 C476 0.930 . S
H541 C477 0.929 . S
H542 C480 0.930 . S
H543 C483 0.929 . S
H544 C484 0.930 . S
H545 C488 0.962 . S
H546 C488 0.959 . S
H547 C488 0.958 . S
C548 C549 1.560 . S
C548 H609 0.959 . S
C548 H610 0.959 . S
C548 H611 0.960 . S
C549 C548 1.560 . S
C549 O604 1.426 . S
C549 H608 0.980 . S
C550 C551 1.407 . S
C550 C555 1.418 . S
C550 O604 1.334 . S
C551 C550 1.407 . S
C551 C552 1.360 . S
C551 H612 0.929 . S
C552 C551 1.360 . S
C552 C553 1.401 . S
C552 C556 1.527 . S
C553 C552 1.401 . S
C553 C554 1.405 . S
C553 C586 1.587 . S
C554 C553 1.405 . S
C554 C555 1.332 . S
C554 C557 1.496 . S
C555 C550 1.418 . S
C555 C554 1.332 . S
C555 H613 0.929 . S
C556 C552 1.527 . S
C556 H614 0.959 . S
C556 H615 0.961 . S
C556 H616 0.961 . S
C557 C554 1.496 . S
C557 H617 0.960 . S
C557 H618 0.960 . S
C557 H619 0.961 . S
C558 C559 1.517 . S
C558 H621 0.961 . S
C558 H622 0.960 . S
C558 H623 0.959 . S
C559 C558 1.517 . S
C559 O607 1.468 . S
C559 H620 0.980 . S
C560 C561 1.349 . S
C560 C565 1.367 . S
C560 O607 1.408 . S
C561 C560 1.349 . S
C561 C562 1.407 . S
C561 H624 0.930 . S
C562 C561 1.407 . S
C562 C563 1.449 . S
C562 C566 1.535 . S
C563 C562 1.449 . S
C563 C564 1.384 . S
C563 C588 1.553 . S
C564 C563 1.384 . S
C564 C565 1.364 . S
C564 C567 1.450 . S
C565 C560 1.367 . S
C565 C564 1.364 . S
C565 H625 0.931 . S
C566 C562 1.535 . S
C566 H626 0.959 . S
C566 H627 0.961 . S
C566 H628 0.959 . S
C567 C564 1.450 . S
C567 H629 0.960 . S
C567 H630 0.960 . S
C567 H631 0.960 . S
C568 C569 1.309 . S
C568 C573 1.304 . S
C568 O606 1.435 . S
C569 C568 1.309 . S
C569 C570 1.476 . S
C569 H633 0.930 . S
C570 C569 1.476 . S
C570 C571 1.400 . S
C570 C574 1.567 . S
C571 C570 1.400 . S
C571 C572 1.373 . S
C571 C593 1.432 . S
C572 C571 1.373 . S
C572 C573 1.339 . S
C572 C575 1.530 . S
C573 C568 1.304 . S
C573 C572 1.339 . S
C573 H634 0.930 . S
C574 C570 1.567 . S
C574 H635 0.961 . S
C574 H636 0.960 . S
C574 H637 0.958 . S
C575 C572 1.530 . S
C575 H638 0.961 . S
C575 H639 0.960 . S
C575 H640 0.960 . S
C576 C577 1.530 . S
C576 H642 0.961 . S
C576 H643 0.961 . S
C576 H644 0.959 . S
C577 C576 1.530 . S
C577 O605 1.412 . S
C577 H641 0.980 . S
C578 C579 1.288 . S
C578 C583 1.377 . S
C578 O605 1.393 . S
C579 C578 1.288 . S
C579 C580 1.369 . S
C579 H645 0.932 . S
C580 C579 1.369 . S
C580 C581 1.398 . S
C580 C584 1.527 . S
C581 C580 1.398 . S
C581 C582 1.380 . S
C581 C595 1.497 . S
C582 C581 1.380 . S
C582 C583 1.383 . S
C582 C585 1.603 . S
C583 C578 1.377 . S
C583 C582 1.383 . S
C583 H646 0.929 . S
C584 C580 1.527 . S
C584 H647 0.961 . S
C584 H648 0.959 . S
C584 H649 0.959 . S
C585 C582 1.603 . S
C585 H650 0.960 . S
C585 H651 0.962 . S
C585 H652 0.961 . S
C586 C553 1.587 . S
C586 C587 1.360 . S
C586 C599 1.412 . S
C587 C586 1.360 . S
C587 C588 1.365 1_545 S
C587 H653 0.929 . S
C588 C563 1.553 . S
C588 C587 1.365 1_565 S
C588 C589 1.404 . S
C589 C588 1.404 . S
C589 C590 1.395 . S
C589 C600 1.451 1_565 S
C590 C589 1.395 . S
C590 C591 1.322 . S
C590 H654 0.930 . S
C591 C590 1.322 . S
C591 C592 1.459 . S
C591 H655 0.929 . S
C592 C591 1.459 . S
C592 C593 1.445 . S
C592 C601 1.395 1_565 S
C593 C571 1.432 . S
C593 C592 1.445 . S
C593 C594 1.370 1_565 S
C594 C593 1.370 1_545 S
C594 C595 1.438 . S
C594 H656 0.930 . S
C595 C581 1.497 . S
C595 C594 1.438 . S
C595 C596 1.360 . S
C596 C595 1.360 . S
C596 C597 1.401 . S
C596 C601 1.446 . S
C597 C596 1.401 . S
C597 C598 1.347 . S
C597 H657 0.929 . S
C598 C597 1.347 . S
C598 C599 1.455 . S
C598 H658 0.930 . S
C599 C586 1.412 . S
C599 C598 1.455 . S
C599 C600 1.331 . S
C600 C589 1.451 1_545 S
C600 C599 1.331 . S
C600 C601 1.497 . S
C601 C592 1.395 1_545 S
C601 C596 1.446 . S
C601 C600 1.497 . S
C602 C603 1.582 . S
C602 H659 0.962 . S
C602 H660 0.959 . S
C602 H661 0.958 . S
C603 C602 1.582 . S
C603 O606 1.458 . S
C603 H632 0.980 . S
O604 C549 1.426 . S
O604 C550 1.334 . S
O605 C577 1.412 . S
O605 C578 1.393 . S
O606 C568 1.435 . S
O606 C603 1.458 . S
O607 C559 1.468 . S
O607 C560 1.408 . S
H608 C549 0.980 . S
H609 C548 0.959 . S
H610 C548 0.959 . S
H611 C548 0.960 . S
H612 C551 0.929 . S
H613 C555 0.929 . S
H614 C556 0.959 . S
H615 C556 0.961 . S
H616 C556 0.961 . S
H617 C557 0.960 . S
H618 C557 0.960 . S
H619 C557 0.961 . S
H620 C559 0.980 . S
H621 C558 0.961 . S
H622 C558 0.960 . S
H623 C558 0.959 . S
H624 C561 0.930 . S
H625 C565 0.931 . S
H626 C566 0.959 . S
H627 C566 0.961 . S
H628 C566 0.959 . S
H629 C567 0.960 . S
H630 C567 0.960 . S
H631 C567 0.960 . S
H632 C603 0.980 . S
H633 C569 0.930 . S
H634 C573 0.930 . S
H635 C574 0.961 . S
H636 C574 0.960 . S
H637 C574 0.958 . S
H638 C575 0.961 . S
H639 C575 0.960 . S
H640 C575 0.960 . S
H641 C577 0.980 . S
H642 C576 0.961 . S
H643 C576 0.961 . S
H644 C576 0.959 . S
H645 C579 0.932 . S
H646 C583 0.929 . S
H647 C584 0.961 . S
H648 C584 0.959 . S
H649 C584 0.959 . S
H650 C585 0.960 . S
H651 C585 0.962 . S
H652 C585 0.961 . S
H653 C587 0.929 . S
H654 C590 0.930 . S
H655 C591 0.929 . S
H656 C594 0.930 . S
H657 C597 0.929 . S
H658 C598 0.930 . S
H659 C602 0.962 . S
H660 C602 0.959 . S
H661 C602 0.958 . S
C662 C663 1.560 . S
C662 H723 0.959 . S
C662 H724 0.959 . S
C662 H725 0.960 . S
C663 C662 1.560 . S
C663 O718 1.426 . S
C663 H722 0.980 . S
C664 C665 1.407 . S
C664 C669 1.418 . S
C664 O718 1.334 . S
C665 C664 1.407 . S
C665 C666 1.360 . S
C665 H726 0.929 . S
C666 C665 1.360 . S
C666 C667 1.401 . S
C666 C670 1.527 . S
C667 C666 1.401 . S
C667 C668 1.405 . S
C667 C700 1.587 . S
C668 C667 1.405 . S
C668 C669 1.332 . S
C668 C671 1.496 . S
C669 C664 1.418 . S
C669 C668 1.332 . S
C669 H727 0.929 . S
C670 C666 1.527 . S
C670 H728 0.959 . S
C670 H729 0.961 . S
C670 H730 0.961 . S
C671 C668 1.496 . S
C671 H731 0.960 . S
C671 H732 0.960 . S
C671 H733 0.961 . S
C672 C673 1.517 . S
C672 H735 0.961 . S
C672 H736 0.960 . S
C672 H737 0.959 . S
C673 C672 1.517 . S
C673 O721 1.468 . S
C673 H734 0.980 . S
C674 C675 1.349 . S
C674 C679 1.367 . S
C674 O721 1.408 . S
C675 C674 1.349 . S
C675 C676 1.407 . S
C675 H738 0.930 . S
C676 C675 1.407 . S
C676 C677 1.449 . S
C676 C680 1.535 . S
C677 C676 1.449 . S
C677 C678 1.384 . S
C677 C702 1.553 . S
C678 C677 1.384 . S
C678 C679 1.364 . S
C678 C681 1.450 . S
C679 C674 1.367 . S
C679 C678 1.364 . S
C679 H739 0.931 . S
C680 C676 1.535 . S
C680 H740 0.959 . S
C680 H741 0.961 . S
C680 H742 0.959 . S
C681 C678 1.450 . S
C681 H743 0.960 . S
C681 H744 0.960 . S
C681 H745 0.960 . S
C682 C683 1.309 . S
C682 C687 1.304 . S
C682 O720 1.435 . S
C683 C682 1.309 . S
C683 C684 1.476 . S
C683 H747 0.930 . S
C684 C683 1.476 . S
C684 C685 1.400 . S
C684 C688 1.567 . S
C685 C684 1.400 . S
C685 C686 1.373 . S
C685 C707 1.432 . S
C686 C685 1.373 . S
C686 C687 1.339 . S
C686 C689 1.530 . S
C687 C682 1.304 . S
C687 C686 1.339 . S
C687 H748 0.930 . S
C688 C684 1.567 . S
C688 H749 0.961 . S
C688 H750 0.960 . S
C688 H751 0.958 . S
C689 C686 1.530 . S
C689 H752 0.961 . S
C689 H753 0.960 . S
C689 H754 0.960 . S
C690 C691 1.530 . S
C690 H756 0.961 . S
C690 H757 0.961 . S
C690 H758 0.959 . S
C691 C690 1.530 . S
C691 O719 1.412 . S
C691 H755 0.980 . S
C692 C693 1.288 . S
C692 C697 1.377 . S
C692 O719 1.393 . S
C693 C692 1.288 . S
C693 C694 1.369 . S
C693 H759 0.932 . S
C694 C693 1.369 . S
C694 C695 1.398 . S
C694 C698 1.527 . S
C695 C694 1.398 . S
C695 C696 1.380 . S
C695 C709 1.497 . S
C696 C695 1.380 . S
C696 C697 1.383 . S
C696 C699 1.603 . S
C697 C692 1.377 . S
C697 C696 1.383 . S
C697 H760 0.929 . S
C698 C694 1.527 . S
C698 H761 0.961 . S
C698 H762 0.959 . S
C698 H763 0.959 . S
C699 C696 1.603 . S
C699 H764 0.960 . S
C699 H765 0.962 . S
C699 H766 0.961 . S
C700 C667 1.587 . S
C700 C701 1.360 . S
C700 C713 1.412 . S
C701 C700 1.360 . S
C701 C702 1.365 . S
C701 H767 0.929 . S
C702 C677 1.553 . S
C702 C701 1.365 . S
C702 C703 1.404 . S
C703 C702 1.404 . S
C703 C704 1.395 . S
C703 C714 1.451 . S
C704 C703 1.395 . S
C704 C705 1.316 1_554 S
C704 H768 0.930 . S
C705 C704 1.316 1_556 S
C705 C706 1.462 . S
C705 H769 0.932 . S
C706 C705 1.462 . S
C706 C707 1.445 . S
C706 C715 1.395 . S
C707 C685 1.432 . S
C707 C706 1.445 . S
C707 C708 1.370 . S
C708 C707 1.370 . S
C708 C709 1.438 . S
C708 H770 0.930 . S
C709 C695 1.497 . S
C709 C708 1.438 . S
C709 C710 1.360 . S
C710 C709 1.360 . S
C710 C711 1.401 . S
C710 C715 1.446 . S
C711 C710 1.401 . S
C711 C712 1.347 1_556 S
C711 H771 0.929 . S
C712 C711 1.347 1_554 S
C712 C713 1.455 . S
C712 H772 0.930 . S
C713 C700 1.412 . S
C713 C712 1.455 . S
C713 C714 1.331 . S
C714 C703 1.451 . S
C714 C713 1.331 . S
C714 C715 1.497 1_554 S
C715 C706 1.395 . S
C715 C710 1.446 . S
C715 C714 1.497 1_556 S
C716 C717 1.582 . S
C716 H773 0.962 . S
C716 H774 0.959 . S
C716 H775 0.958 . S
C717 C716 1.582 . S
C717 O720 1.458 . S
C717 H746 0.980 . S
O718 C663 1.426 . S
O718 C664 1.334 . S
O719 C691 1.412 . S
O719 C692 1.393 . S
O720 C682 1.435 . S
O720 C717 1.458 . S
O721 C673 1.468 . S
O721 C674 1.408 . S
H722 C663 0.980 . S
H723 C662 0.959 . S
H724 C662 0.959 . S
H725 C662 0.960 . S
H726 C665 0.929 . S
H727 C669 0.929 . S
H728 C670 0.959 . S
H729 C670 0.961 . S
H730 C670 0.961 . S
H731 C671 0.960 . S
H732 C671 0.960 . S
H733 C671 0.961 . S
H734 C673 0.980 . S
H735 C672 0.961 . S
H736 C672 0.960 . S
H737 C672 0.959 . S
H738 C675 0.930 . S
H739 C679 0.931 . S
H740 C680 0.959 . S
H741 C680 0.961 . S
H742 C680 0.959 . S
H743 C681 0.960 . S
H744 C681 0.960 . S
H745 C681 0.960 . S
H746 C717 0.980 . S
H747 C683 0.930 . S
H748 C687 0.930 . S
H749 C688 0.961 . S
H750 C688 0.960 . S
H751 C688 0.958 . S
H752 C689 0.961 . S
H753 C689 0.960 . S
H754 C689 0.960 . S
H755 C691 0.980 . S
H756 C690 0.961 . S
H757 C690 0.961 . S
H758 C690 0.959 . S
H759 C693 0.932 . S
H760 C697 0.929 . S
H761 C698 0.961 . S
H762 C698 0.959 . S
H763 C698 0.959 . S
H764 C699 0.960 . S
H765 C699 0.962 . S
H766 C699 0.961 . S
H767 C701 0.929 . S
H768 C704 0.930 . S
H769 C705 0.932 . S
H770 C708 0.930 . S
H771 C711 0.929 . S
H772 C712 0.930 . S
H773 C716 0.962 . S
H774 C716 0.959 . S
H775 C716 0.958 . S
C776 C777 1.560 . S
C776 H837 0.959 . S
C776 H838 0.959 . S
C776 H839 0.960 . S
C777 C776 1.560 . S
C777 O832 1.426 . S
C777 H836 0.980 . S
C778 C779 1.407 . S
C778 C783 1.418 . S
C778 O832 1.334 . S
C779 C778 1.407 . S
C779 C780 1.360 . S
C779 H840 0.929 . S
C780 C779 1.360 . S
C780 C781 1.401 . S
C780 C784 1.527 . S
C781 C780 1.401 . S
C781 C782 1.405 . S
C781 C814 1.587 . S
C782 C781 1.405 . S
C782 C783 1.332 . S
C782 C785 1.496 . S
C783 C778 1.418 . S
C783 C782 1.332 . S
C783 H841 0.929 . S
C784 C780 1.527 . S
C784 H842 0.959 . S
C784 H843 0.961 . S
C784 H844 0.961 . S
C785 C782 1.496 . S
C785 H845 0.960 . S
C785 H846 0.960 . S
C785 H847 0.961 . S
C786 C787 1.517 . S
C786 H849 0.961 . S
C786 H850 0.960 . S
C786 H851 0.959 . S
C787 C786 1.517 . S
C787 O835 1.468 . S
C787 H848 0.980 . S
C788 C789 1.349 . S
C788 C793 1.367 . S
C788 O835 1.408 . S
C789 C788 1.349 . S
C789 C790 1.407 . S
C789 H852 0.930 . S
C790 C789 1.407 . S
C790 C791 1.449 . S
C790 C794 1.535 . S
C791 C790 1.449 . S
C791 C792 1.384 . S
C791 C816 1.553 . S
C792 C791 1.384 . S
C792 C793 1.364 . S
C792 C795 1.450 . S
C793 C788 1.367 . S
C793 C792 1.364 . S
C793 H853 0.931 . S
C794 C790 1.535 . S
C794 H854 0.959 . S
C794 H855 0.961 . S
C794 H856 0.959 . S
C795 C792 1.450 . S
C795 H857 0.960 . S
C795 H858 0.960 . S
C795 H859 0.960 . S
C796 C797 1.309 . S
C796 C801 1.304 . S
C796 O834 1.435 . S
C797 C796 1.309 . S
C797 C798 1.476 . S
C797 H861 0.930 . S
C798 C797 1.476 . S
C798 C799 1.400 . S
C798 C802 1.567 . S
C799 C798 1.400 . S
C799 C800 1.373 . S
C799 C821 1.432 . S
C800 C799 1.373 . S
C800 C801 1.339 . S
C800 C803 1.530 . S
C801 C796 1.304 . S
C801 C800 1.339 . S
C801 H862 0.930 . S
C802 C798 1.567 . S
C802 H863 0.961 . S
C802 H864 0.960 . S
C802 H865 0.958 . S
C803 C800 1.530 . S
C803 H866 0.961 . S
C803 H867 0.960 . S
C803 H868 0.960 . S
C804 C805 1.530 . S
C804 H870 0.961 . S
C804 H871 0.961 . S
C804 H872 0.959 . S
C805 C804 1.530 . S
C805 O833 1.412 . S
C805 H869 0.980 . S
C806 C807 1.288 . S
C806 C811 1.377 . S
C806 O833 1.393 . S
C807 C806 1.288 . S
C807 C808 1.369 . S
C807 H873 0.932 . S
C808 C807 1.369 . S
C808 C809 1.398 . S
C808 C812 1.527 . S
C809 C808 1.398 . S
C809 C810 1.380 . S
C809 C823 1.497 . S
C810 C809 1.380 . S
C810 C811 1.383 . S
C810 C813 1.603 . S
C811 C806 1.377 . S
C811 C810 1.383 . S
C811 H874 0.929 . S
C812 C808 1.527 . S
C812 H875 0.961 . S
C812 H876 0.959 . S
C812 H877 0.959 . S
C813 C810 1.603 . S
C813 H878 0.960 . S
C813 H879 0.962 . S
C813 H880 0.961 . S
C814 C781 1.587 . S
C814 C815 1.360 . S
C814 C827 1.412 . S
C815 C814 1.360 . S
C815 C816 1.365 1_545 S
C815 H881 0.929 . S
C816 C791 1.553 . S
C816 C815 1.365 1_565 S
C816 C817 1.404 . S
C817 C816 1.404 . S
C817 C818 1.395 . S
C817 C828 1.451 1_565 S
C818 C817 1.395 . S
C818 C819 1.322 . S
C818 H882 0.930 . S
C819 C818 1.322 . S
C819 C820 1.459 . S
C819 H883 0.929 . S
C820 C819 1.459 . S
C820 C821 1.445 . S
C820 C829 1.395 1_565 S
C821 C799 1.432 . S
C821 C820 1.445 . S
C821 C822 1.370 1_565 S
C822 C821 1.370 1_545 S
C822 C823 1.438 . S
C822 H884 0.930 . S
C823 C809 1.497 . S
C823 C822 1.438 . S
C823 C824 1.360 . S
C824 C823 1.360 . S
C824 C825 1.401 . S
C824 C829 1.446 . S
C825 C824 1.401 . S
C825 C826 1.347 . S
C825 H885 0.929 . S
C826 C825 1.347 . S
C826 C827 1.455 . S
C826 H886 0.930 . S
C827 C814 1.412 . S
C827 C826 1.455 . S
C827 C828 1.331 . S
C828 C817 1.451 1_545 S
C828 C827 1.331 . S
C828 C829 1.497 . S
C829 C820 1.395 1_545 S
C829 C824 1.446 . S
C829 C828 1.497 . S
C830 C831 1.582 . S
C830 H887 0.962 . S
C830 H888 0.959 . S
C830 H889 0.958 . S
C831 C830 1.582 . S
C831 O834 1.458 . S
C831 H860 0.980 . S
O832 C777 1.426 . S
O832 C778 1.334 . S
O833 C805 1.412 . S
O833 C806 1.393 . S
O834 C796 1.435 . S
O834 C831 1.458 . S
O835 C787 1.468 . S
O835 C788 1.408 . S
H836 C777 0.980 . S
H837 C776 0.959 . S
H838 C776 0.959 . S
H839 C776 0.960 . S
H840 C779 0.929 . S
H841 C783 0.929 . S
H842 C784 0.959 . S
H843 C784 0.961 . S
H844 C784 0.961 . S
H845 C785 0.960 . S
H846 C785 0.960 . S
H847 C785 0.961 . S
H848 C787 0.980 . S
H849 C786 0.961 . S
H850 C786 0.960 . S
H851 C786 0.959 . S
H852 C789 0.930 . S
H853 C793 0.931 . S
H854 C794 0.959 . S
H855 C794 0.961 . S
H856 C794 0.959 . S
H857 C795 0.960 . S
H858 C795 0.960 . S
H859 C795 0.960 . S
H860 C831 0.980 . S
H861 C797 0.930 . S
H862 C801 0.930 . S
H863 C802 0.961 . S
H864 C802 0.960 . S
H865 C802 0.958 . S
H866 C803 0.961 . S
H867 C803 0.960 . S
H868 C803 0.960 . S
H869 C805 0.980 . S
H870 C804 0.961 . S
H871 C804 0.961 . S
H872 C804 0.959 . S
H873 C807 0.932 . S
H874 C811 0.929 . S
H875 C812 0.961 . S
H876 C812 0.959 . S
H877 C812 0.959 . S
H878 C813 0.960 . S
H879 C813 0.962 . S
H880 C813 0.961 . S
H881 C815 0.929 . S
H882 C818 0.930 . S
H883 C819 0.929 . S
H884 C822 0.930 . S
H885 C825 0.929 . S
H886 C826 0.930 . S
H887 C830 0.962 . S
H888 C830 0.959 . S
H889 C830 0.958 . S
C890 C891 1.560 . S
C890 H951 0.959 . S
C890 H952 0.959 . S
C890 H953 0.960 . S
C891 C890 1.560 . S
C891 O946 1.426 . S
C891 H950 0.980 . S
C892 C893 1.407 . S
C892 C897 1.418 . S
C892 O946 1.334 . S
C893 C892 1.407 . S
C893 C894 1.360 . S
C893 H954 0.929 . S
C894 C893 1.360 . S
C894 C895 1.401 . S
C894 C898 1.527 . S
C895 C894 1.401 . S
C895 C896 1.405 . S
C895 C928 1.587 . S
C896 C895 1.405 . S
C896 C897 1.332 . S
C896 C899 1.496 . S
C897 C892 1.418 . S
C897 C896 1.332 . S
C897 H955 0.929 . S
C898 C894 1.527 . S
C898 H956 0.959 . S
C898 H957 0.961 . S
C898 H958 0.961 . S
C899 C896 1.496 . S
C899 H959 0.960 . S
C899 H960 0.960 . S
C899 H961 0.961 . S
C900 C901 1.517 . S
C900 H963 0.961 . S
C900 H964 0.960 . S
C900 H965 0.959 . S
C901 C900 1.517 . S
C901 O949 1.468 . S
C901 H962 0.980 . S
C902 C903 1.349 . S
C902 C907 1.367 . S
C902 O949 1.408 . S
C903 C902 1.349 . S
C903 C904 1.407 . S
C903 H966 0.930 . S
C904 C903 1.407 . S
C904 C905 1.449 . S
C904 C908 1.535 . S
C905 C904 1.449 . S
C905 C906 1.384 . S
C905 C930 1.553 . S
C906 C905 1.384 . S
C906 C907 1.364 . S
C906 C909 1.450 . S
C907 C902 1.367 . S
C907 C906 1.364 . S
C907 H967 0.931 . S
C908 C904 1.535 . S
C908 H968 0.959 . S
C908 H969 0.961 . S
C908 H970 0.959 . S
C909 C906 1.450 . S
C909 H971 0.960 . S
C909 H972 0.960 . S
C909 H973 0.960 . S
C910 C911 1.309 . S
C910 C915 1.304 . S
C910 O948 1.435 . S
C911 C910 1.309 . S
C911 C912 1.476 . S
C911 H975 0.930 . S
C912 C911 1.476 . S
C912 C913 1.400 . S
C912 C916 1.567 . S
C913 C912 1.400 . S
C913 C914 1.373 . S
C913 C935 1.432 . S
C914 C913 1.373 . S
C914 C915 1.339 . S
C914 C917 1.530 . S
C915 C910 1.304 . S
C915 C914 1.339 . S
C915 H976 0.930 . S
C916 C912 1.567 . S
C916 H977 0.961 . S
C916 H978 0.960 . S
C916 H979 0.958 . S
C917 C914 1.530 . S
C917 H980 0.961 . S
C917 H981 0.960 . S
C917 H982 0.960 . S
C918 C919 1.530 . S
C918 H984 0.961 . S
C918 H985 0.961 . S
C918 H986 0.959 . S
C919 C918 1.530 . S
C919 O947 1.412 . S
C919 H983 0.980 . S
C920 C921 1.288 . S
C920 C925 1.377 . S
C920 O947 1.393 . S
C921 C920 1.288 . S
C921 C922 1.369 . S
C921 H987 0.932 . S
C922 C921 1.369 . S
C922 C923 1.398 . S
C922 C926 1.527 . S
C923 C922 1.398 . S
C923 C924 1.380 . S
C923 C937 1.497 . S
C924 C923 1.380 . S
C924 C925 1.383 . S
C924 C927 1.603 . S
C925 C920 1.377 . S
C925 C924 1.383 . S
C925 H988 0.929 . S
C926 C922 1.527 . S
C926 H989 0.961 . S
C926 H990 0.959 . S
C926 H991 0.959 . S
C927 C924 1.603 . S
C927 H992 0.960 . S
C927 H993 0.962 . S
C927 H994 0.961 . S
C928 C895 1.587 . S
C928 C929 1.360 . S
C928 C941 1.412 . S
C929 C928 1.360 . S
C929 C930 1.365 . S
C929 H995 0.929 . S
C930 C905 1.553 . S
C930 C929 1.365 . S
C930 C931 1.404 . S
C931 C930 1.404 . S
C931 C932 1.395 . S
C931 C942 1.451 . S
C932 C931 1.395 . S
C932 C933 1.322 1_554 S
C932 H996 0.930 . S
C933 C932 1.322 1_556 S
C933 C934 1.459 . S
C933 H997 0.929 . S
C934 C933 1.459 . S
C934 C935 1.445 . S
C934 C943 1.395 . S
C935 C913 1.432 . S
C935 C934 1.445 . S
C935 C936 1.370 . S
C936 C935 1.370 . S
C936 C937 1.438 . S
C936 H998 0.930 . S
C937 C923 1.497 . S
C937 C936 1.438 . S
C937 C938 1.360 . S
C938 C937 1.360 . S
C938 C939 1.403 . S
C938 C943 1.446 . S
C939 C938 1.403 . S
C939 C940 1.344 1_556 S
C939 H999 0.931 . S
C940 C939 1.344 1_554 S
C940 C941 1.455 . S
C940 H1000 0.930 . S
C941 C928 1.412 . S
C941 C940 1.455 . S
C941 C942 1.331 . S
C942 C931 1.451 . S
C942 C941 1.331 . S
C942 C943 1.497 1_554 S
C943 C934 1.395 . S
C943 C938 1.446 . S
C943 C942 1.497 1_556 S
C944 C945 1.582 . S
C944 H1001 0.962 . S
C944 H1002 0.959 . S
C944 H1003 0.958 . S
C945 C944 1.582 . S
C945 O948 1.458 . S
C945 H974 0.980 . S
O946 C891 1.426 . S
O946 C892 1.334 . S
O947 C919 1.412 . S
O947 C920 1.393 . S
O948 C910 1.435 . S
O948 C945 1.458 . S
O949 C901 1.468 . S
O949 C902 1.408 . S
H950 C891 0.980 . S
H951 C890 0.959 . S
H952 C890 0.959 . S
H953 C890 0.960 . S
H954 C893 0.929 . S
H955 C897 0.929 . S
H956 C898 0.959 . S
H957 C898 0.961 . S
H958 C898 0.961 . S
H959 C899 0.960 . S
H960 C899 0.960 . S
H961 C899 0.961 . S
H962 C901 0.980 . S
H963 C900 0.961 . S
H964 C900 0.960 . S
H965 C900 0.959 . S
H966 C903 0.930 . S
H967 C907 0.931 . S
H968 C908 0.959 . S
H969 C908 0.961 . S
H970 C908 0.959 . S
H971 C909 0.960 . S
H972 C909 0.960 . S
H973 C909 0.960 . S
H974 C945 0.980 . S
H975 C911 0.930 . S
H976 C915 0.930 . S
H977 C916 0.961 . S
H978 C916 0.960 . S
H979 C916 0.958 . S
H980 C917 0.961 . S
H981 C917 0.960 . S
H982 C917 0.960 . S
H983 C919 0.980 . S
H984 C918 0.961 . S
H985 C918 0.961 . S
H986 C918 0.959 . S
H987 C921 0.932 . S
H988 C925 0.929 . S
H989 C926 0.961 . S
H990 C926 0.959 . S
H991 C926 0.959 . S
H992 C927 0.960 . S
H993 C927 0.962 . S
H994 C927 0.961 . S
H995 C929 0.929 . S
H996 C932 0.930 . S
H997 C933 0.929 . S
H998 C936 0.930 . S
H999 C939 0.931 . S
H1000 C940 0.930 . S
H1001 C944 0.962 . S
H1002 C944 0.959 . S
H1003 C944 0.958 . S
C1004 C1005 1.363 . S
C1004 C1010 1.379 . S
C1004 N1012 1.356 . S
C1005 C1004 1.363 . S
C1005 C1011 1.363 . S
C1006 C1007 1.363 . S
C1006 C1011 1.379 . S
C1006 N1013 1.356 . S
C1007 C1006 1.363 . S
C1007 C1010 1.363 . S
N1008 C1010 1.356 . S
N1008 H1020 0.984 . S
N1008 H1021 0.985 . S
N1009 C1011 1.356 . S
N1009 H1014 0.984 . S
N1009 H1015 0.985 . S
C1010 C1004 1.379 . S
C1010 C1007 1.363 . S
C1010 N1008 1.356 . S
C1011 C1005 1.363 . S
C1011 C1006 1.379 . S
C1011 N1009 1.356 . S
N1012 C1004 1.356 . S
N1012 H1018 0.984 . S
N1012 H1019 0.984 . S
N1013 C1006 1.356 . S
N1013 H1016 0.984 . S
N1013 H1017 0.985 . S
H1014 N1009 0.984 . S
H1015 N1009 0.985 . S
H1016 N1013 0.984 . S
H1017 N1013 0.985 . S
H1018 N1012 0.984 . S
H1019 N1012 0.984 . S
H1020 N1008 0.984 . S
H1021 N1008 0.985 . S
C1022 C1023 1.363 . S
C1022 C1028 1.379 . S
C1022 N1030 1.356 . S
C1023 C1022 1.363 . S
C1023 C1029 1.363 . S
C1024 C1025 1.363 . S
C1024 C1029 1.379 . S
C1024 N1031 1.356 . S
C1025 C1024 1.363 . S
C1025 C1028 1.363 . S
N1026 C1028 1.356 . S
N1026 H1038 0.984 . S
N1026 H1039 0.985 . S
N1027 C1029 1.356 . S
N1027 H1032 0.984 . S
N1027 H1033 0.985 . S
C1028 C1022 1.379 . S
C1028 C1025 1.363 . S
C1028 N1026 1.356 . S
C1029 C1023 1.363 . S
C1029 C1024 1.379 . S
C1029 N1027 1.356 . S
N1030 C1022 1.356 . S
N1030 H1036 0.984 . S
N1030 H1037 0.984 . S
N1031 C1024 1.356 . S
N1031 H1034 0.984 . S
N1031 H1035 0.985 . S
H1032 N1027 0.984 . S
H1033 N1027 0.985 . S
H1034 N1031 0.984 . S
H1035 N1031 0.985 . S
H1036 N1030 0.984 . S
H1037 N1030 0.984 . S
H1038 N1026 0.984 . S
H1039 N1026 0.985 . S
C1040 C1041 1.363 . S
C1040 C1046 1.379 . S
C1040 N1048 1.356 . S
C1041 C1040 1.363 . S
C1041 C1047 1.363 . S
C1042 C1043 1.363 . S
C1042 C1047 1.379 . S
C1042 N1049 1.356 . S
C1043 C1042 1.363 . S
C1043 C1046 1.363 . S
N1044 C1046 1.356 . S
N1044 H1056 0.984 . S
N1044 H1057 0.985 . S
N1045 C1047 1.356 . S
N1045 H1050 0.984 . S
N1045 H1051 0.985 . S
C1046 C1040 1.379 . S
C1046 C1043 1.363 . S
C1046 N1044 1.356 . S
C1047 C1041 1.363 . S
C1047 C1042 1.379 . S
C1047 N1045 1.356 . S
N1048 C1040 1.356 . S
N1048 H1054 0.984 . S
N1048 H1055 0.984 . S
N1049 C1042 1.356 . S
N1049 H1052 0.984 . S
N1049 H1053 0.985 . S
H1050 N1045 0.984 . S
H1051 N1045 0.985 . S
H1052 N1049 0.984 . S
H1053 N1049 0.985 . S
H1054 N1048 0.984 . S
H1055 N1048 0.984 . S
H1056 N1044 0.984 . S
H1057 N1044 0.985 . S
C1058 C1059 1.363 . S
C1058 C1064 1.379 . S
C1058 N1066 1.356 . S
C1059 C1058 1.363 . S
C1059 C1065 1.363 . S
C1060 C1061 1.363 . S
C1060 C1065 1.379 . S
C1060 N1067 1.356 . S
C1061 C1060 1.363 . S
C1061 C1064 1.363 . S
N1062 C1064 1.356 . S
N1062 H1074 0.984 . S
N1062 H1075 0.985 . S
N1063 C1065 1.356 . S
N1063 H1068 0.984 . S
N1063 H1069 0.985 . S
C1064 C1058 1.379 . S
C1064 C1061 1.363 . S
C1064 N1062 1.356 . S
C1065 C1059 1.363 . S
C1065 C1060 1.379 . S
C1065 N1063 1.356 . S
N1066 C1058 1.356 . S
N1066 H1072 0.984 . S
N1066 H1073 0.984 . S
N1067 C1060 1.356 . S
N1067 H1070 0.984 . S
N1067 H1071 0.985 . S
H1068 N1063 0.984 . S
H1069 N1063 0.985 . S
H1070 N1067 0.984 . S
H1071 N1067 0.985 . S
H1072 N1066 0.984 . S
H1073 N1066 0.984 . S
H1074 N1062 0.984 . S
H1075 N1062 0.985 . S
C1076 C1077 1.363 . S
C1076 C1082 1.379 . S
C1076 N1084 1.356 . S
C1077 C1076 1.363 . S
C1077 C1083 1.363 . S
C1078 C1079 1.363 . S
C1078 C1083 1.379 . S
C1078 N1085 1.356 . S
C1079 C1078 1.363 . S
C1079 C1082 1.363 . S
N1080 C1082 1.356 . S
N1080 H1092 0.984 . S
N1080 H1093 0.985 . S
N1081 C1083 1.356 . S
N1081 H1086 0.984 . S
N1081 H1087 0.985 . S
C1082 C1076 1.379 . S
C1082 C1079 1.363 . S
C1082 N1080 1.356 . S
C1083 C1077 1.363 . S
C1083 C1078 1.379 . S
C1083 N1081 1.356 . S
N1084 C1076 1.356 . S
N1084 H1090 0.984 . S
N1084 H1091 0.984 . S
N1085 C1078 1.356 . S
N1085 H1088 0.984 . S
N1085 H1089 0.985 . S
H1086 N1081 0.984 . S
H1087 N1081 0.985 . S
H1088 N1085 0.984 . S
H1089 N1085 0.985 . S
H1090 N1084 0.984 . S
H1091 N1084 0.984 . S
H1092 N1080 0.984 . S
H1093 N1080 0.985 . S
C1094 C1095 1.363 . S
C1094 C1100 1.379 . S
C1094 N1102 1.356 . S
C1095 C1094 1.363 . S
C1095 C1101 1.363 . S
C1096 C1097 1.363 . S
C1096 C1101 1.379 . S
C1096 N1103 1.356 . S
C1097 C1096 1.363 . S
C1097 C1100 1.363 . S
N1098 C1100 1.356 . S
N1098 H1110 0.984 . S
N1098 H1111 0.985 . S
N1099 C1101 1.356 . S
N1099 H1104 0.984 . S
N1099 H1105 0.985 . S
C1100 C1094 1.379 . S
C1100 C1097 1.363 . S
C1100 N1098 1.356 . S
C1101 C1095 1.363 . S
C1101 C1096 1.379 . S
C1101 N1099 1.356 . S
N1102 C1094 1.356 . S
N1102 H1108 0.984 . S
N1102 H1109 0.984 . S
N1103 C1096 1.356 . S
N1103 H1106 0.984 . S
N1103 H1107 0.985 . S
H1104 N1099 0.984 . S
H1105 N1099 0.985 . S
H1106 N1103 0.984 . S
H1107 N1103 0.985 . S
H1108 N1102 0.984 . S
H1109 N1102 0.984 . S
H1110 N1098 0.984 . S
H1111 N1098 0.985 . S
C1112 C1113 1.363 . S
C1112 C1118 1.379 . S
C1112 N1120 1.356 . S
C1113 C1112 1.363 . S
C1113 C1119 1.363 . S
C1114 C1115 1.363 . S
C1114 C1119 1.379 . S
C1114 N1121 1.356 . S
C1115 C1114 1.363 . S
C1115 C1118 1.363 . S
N1116 C1118 1.356 . S
N1116 H1128 0.984 . S
N1116 H1129 0.985 . S
N1117 C1119 1.356 . S
N1117 H1122 0.984 . S
N1117 H1123 0.985 . S
C1118 C1112 1.379 . S
C1118 C1115 1.363 . S
C1118 N1116 1.356 . S
C1119 C1113 1.363 . S
C1119 C1114 1.379 . S
C1119 N1117 1.356 . S
N1120 C1112 1.356 . S
N1120 H1126 0.984 . S
N1120 H1127 0.984 . S
N1121 C1114 1.356 . S
N1121 H1124 0.984 . S
N1121 H1125 0.985 . S
H1122 N1117 0.984 . S
H1123 N1117 0.985 . S
H1124 N1121 0.984 . S
H1125 N1121 0.985 . S
H1126 N1120 0.984 . S
H1127 N1120 0.984 . S
H1128 N1116 0.984 . S
H1129 N1116 0.985 . S
C1130 C1131 1.363 . S
C1130 C1136 1.379 . S
C1130 N1138 1.356 . S
C1131 C1130 1.363 . S
C1131 C1137 1.363 . S
C1132 C1133 1.363 . S
C1132 C1137 1.379 . S
C1132 N1139 1.356 . S
C1133 C1132 1.363 . S
C1133 C1136 1.363 . S
N1134 C1136 1.356 . S
N1134 H1146 0.984 . S
N1134 H1147 0.985 . S
N1135 C1137 1.356 . S
N1135 H1140 0.984 . S
N1135 H1141 0.985 . S
C1136 C1130 1.379 . S
C1136 C1133 1.363 . S
C1136 N1134 1.356 . S
C1137 C1131 1.363 . S
C1137 C1132 1.379 . S
C1137 N1135 1.356 . S
N1138 C1130 1.356 . S
N1138 H1144 0.984 . S
N1138 H1145 0.984 . S
N1139 C1132 1.356 . S
N1139 H1142 0.984 . S
N1139 H1143 0.985 . S
H1140 N1135 0.984 . S
H1141 N1135 0.985 . S
H1142 N1139 0.984 . S
H1143 N1139 0.985 . S
H1144 N1138 0.984 . S
H1145 N1138 0.984 . S
H1146 N1134 0.984 . S
H1147 N1134 0.985 . S
C1148 C1149 1.363 . S
C1148 C1154 1.379 . S
C1148 N1156 1.356 . S
C1149 C1148 1.363 . S
C1149 C1155 1.363 . S
C1150 C1151 1.363 . S
C1150 C1155 1.379 . S
C1150 N1157 1.356 . S
C1151 C1150 1.363 . S
C1151 C1154 1.363 . S
N1152 C1154 1.356 . S
N1152 H1164 0.984 . S
N1152 H1165 0.985 . S
N1153 C1155 1.356 . S
N1153 H1158 0.984 . S
N1153 H1159 0.985 . S
C1154 C1148 1.379 . S
C1154 C1151 1.363 . S
C1154 N1152 1.356 . S
C1155 C1149 1.363 . S
C1155 C1150 1.379 . S
C1155 N1153 1.356 . S
N1156 C1148 1.356 . S
N1156 H1162 0.984 . S
N1156 H1163 0.984 . S
N1157 C1150 1.356 . S
N1157 H1160 0.984 . S
N1157 H1161 0.985 . S
H1158 N1153 0.984 . S
H1159 N1153 0.985 . S
H1160 N1157 0.984 . S
H1161 N1157 0.985 . S
H1162 N1156 0.984 . S
H1163 N1156 0.984 . S
H1164 N1152 0.984 . S
H1165 N1152 0.985 . S
C1166 C1167 1.363 . S
C1166 C1172 1.379 . S
C1166 N1174 1.356 . S
C1167 C1166 1.363 . S
C1167 C1173 1.363 . S
C1168 C1169 1.363 . S
C1168 C1173 1.379 . S
C1168 N1175 1.356 . S
C1169 C1168 1.363 . S
C1169 C1172 1.363 . S
N1170 C1172 1.356 . S
N1170 H1182 0.984 . S
N1170 H1183 0.985 . S
N1171 C1173 1.356 . S
N1171 H1176 0.984 . S
N1171 H1177 0.985 . S
C1172 C1166 1.379 . S
C1172 C1169 1.363 . S
C1172 N1170 1.356 . S
C1173 C1167 1.363 . S
C1173 C1168 1.379 . S
C1173 N1171 1.356 . S
N1174 C1166 1.356 . S
N1174 H1180 0.984 . S
N1174 H1181 0.984 . S
N1175 C1168 1.356 . S
N1175 H1178 0.984 . S
N1175 H1179 0.985 . S
H1176 N1171 0.984 . S
H1177 N1171 0.985 . S
H1178 N1175 0.984 . S
H1179 N1175 0.985 . S
H1180 N1174 0.984 . S
H1181 N1174 0.984 . S
H1182 N1170 0.984 . S
H1183 N1170 0.985 . S
C1184 C1185 1.363 . S
C1184 C1190 1.379 . S
C1184 N1192 1.356 . S
C1185 C1184 1.363 . S
C1185 C1191 1.363 . S
C1186 C1187 1.363 . S
C1186 C1191 1.379 . S
C1186 N1193 1.356 . S
C1187 C1186 1.363 . S
C1187 C1190 1.363 . S
N1188 C1190 1.356 . S
N1188 H1200 0.984 . S
N1188 H1201 0.985 . S
N1189 C1191 1.356 . S
N1189 H1194 0.984 . S
N1189 H1195 0.985 . S
C1190 C1184 1.379 . S
C1190 C1187 1.363 . S
C1190 N1188 1.356 . S
C1191 C1185 1.363 . S
C1191 C1186 1.379 . S
C1191 N1189 1.356 . S
N1192 C1184 1.356 . S
N1192 H1198 0.984 . S
N1192 H1199 0.984 . S
N1193 C1186 1.356 . S
N1193 H1196 0.984 . S
N1193 H1197 0.985 . S
H1194 N1189 0.984 . S
H1195 N1189 0.985 . S
H1196 N1193 0.984 . S
H1197 N1193 0.985 . S
H1198 N1192 0.984 . S
H1199 N1192 0.984 . S
H1200 N1188 0.984 . S
H1201 N1188 0.985 . S
C1202 C1203 1.363 . S
C1202 C1208 1.379 . S
C1202 N1210 1.356 . S
C1203 C1202 1.363 . S
C1203 C1209 1.363 . S
C1204 C1205 1.363 . S
C1204 C1209 1.379 . S
C1204 N1211 1.356 . S
C1205 C1204 1.363 . S
C1205 C1208 1.363 . S
N1206 C1208 1.356 . S
N1206 H1218 0.984 . S
N1206 H1219 0.985 . S
N1207 C1209 1.356 . S
N1207 H1212 0.984 . S
N1207 H1213 0.985 . S
C1208 C1202 1.379 . S
C1208 C1205 1.363 . S
C1208 N1206 1.356 . S
C1209 C1203 1.363 . S
C1209 C1204 1.379 . S
C1209 N1207 1.356 . S
N1210 C1202 1.356 . S
N1210 H1216 0.984 . S
N1210 H1217 0.984 . S
N1211 C1204 1.356 . S
N1211 H1214 0.984 . S
N1211 H1215 0.985 . S
H1212 N1207 0.984 . S
H1213 N1207 0.985 . S
H1214 N1211 0.984 . S
H1215 N1211 0.985 . S
H1216 N1210 0.984 . S
H1217 N1210 0.984 . S
H1218 N1206 0.984 . S
H1219 N1206 0.985 . S
C1220 C1221 1.363 . S
C1220 C1226 1.379 . S
C1220 N1228 1.356 . S
C1221 C1220 1.363 . S
C1221 C1227 1.363 . S
C1222 C1223 1.363 . S
C1222 C1227 1.379 . S
C1222 N1229 1.356 . S
C1223 C1222 1.363 . S
C1223 C1226 1.363 . S
N1224 C1226 1.356 . S
N1224 H1236 0.984 . S
N1224 H1237 0.985 . S
N1225 C1227 1.356 . S
N1225 H1230 0.984 . S
N1225 H1231 0.985 . S
C1226 C1220 1.379 . S
C1226 C1223 1.363 . S
C1226 N1224 1.356 . S
C1227 C1221 1.363 . S
C1227 C1222 1.379 . S
C1227 N1225 1.356 . S
N1228 C1220 1.356 . S
N1228 H1234 0.984 . S
N1228 H1235 0.984 . S
N1229 C1222 1.356 . S
N1229 H1232 0.984 . S
N1229 H1233 0.985 . S
H1230 N1225 0.984 . S
H1231 N1225 0.985 . S
H1232 N1229 0.984 . S
H1233 N1229 0.985 . S
H1234 N1228 0.984 . S
H1235 N1228 0.984 . S
H1236 N1224 0.984 . S
H1237 N1224 0.985 . S
C1238 C1239 1.363 . S
C1238 C1244 1.379 . S
C1238 N1246 1.356 . S
C1239 C1238 1.363 . S
C1239 C1245 1.363 . S
C1240 C1241 1.363 . S
C1240 C1245 1.379 . S
C1240 N1247 1.356 . S
C1241 C1240 1.363 . S
C1241 C1244 1.363 . S
N1242 C1244 1.356 . S
N1242 H1254 0.984 . S
N1242 H1255 0.985 . S
N1243 C1245 1.356 . S
N1243 H1248 0.984 . S
N1243 H1249 0.985 . S
C1244 C1238 1.379 . S
C1244 C1241 1.363 . S
C1244 N1242 1.356 . S
C1245 C1239 1.363 . S
C1245 C1240 1.379 . S
C1245 N1243 1.356 . S
N1246 C1238 1.356 . S
N1246 H1252 0.984 . S
N1246 H1253 0.984 . S
N1247 C1240 1.356 . S
N1247 H1250 0.984 . S
N1247 H1251 0.985 . S
H1248 N1243 0.984 . S
H1249 N1243 0.985 . S
H1250 N1247 0.984 . S
H1251 N1247 0.985 . S
H1252 N1246 0.984 . S
H1253 N1246 0.984 . S
H1254 N1242 0.984 . S
H1255 N1242 0.985 . S
C1256 C1257 1.363 . S
C1256 C1262 1.379 . S
C1256 N1264 1.356 . S
C1257 C1256 1.363 . S
C1257 C1263 1.363 . S
C1258 C1259 1.363 . S
C1258 C1263 1.379 . S
C1258 N1265 1.356 . S
C1259 C1258 1.363 . S
C1259 C1262 1.363 . S
N1260 C1262 1.356 . S
N1260 H1272 0.984 . S
N1260 H1273 0.985 . S
N1261 C1263 1.356 . S
N1261 H1266 0.984 . S
N1261 H1267 0.985 . S
C1262 C1256 1.379 . S
C1262 C1259 1.363 . S
C1262 N1260 1.356 . S
C1263 C1257 1.363 . S
C1263 C1258 1.379 . S
C1263 N1261 1.356 . S
N1264 C1256 1.356 . S
N1264 H1270 0.984 . S
N1264 H1271 0.984 . S
N1265 C1258 1.356 . S
N1265 H1268 0.984 . S
N1265 H1269 0.985 . S
H1266 N1261 0.984 . S
H1267 N1261 0.985 . S
H1268 N1265 0.984 . S
H1269 N1265 0.985 . S
H1270 N1264 0.984 . S
H1271 N1264 0.984 . S
H1272 N1260 0.984 . S
H1273 N1260 0.985 . S
C1274 C1275 1.363 . S
C1274 C1280 1.379 . S
C1274 N1282 1.356 . S
C1275 C1274 1.363 . S
C1275 C1281 1.363 . S
C1276 C1277 1.363 . S
C1276 C1281 1.379 . S
C1276 N1283 1.356 . S
C1277 C1276 1.363 . S
C1277 C1280 1.363 . S
N1278 C1280 1.356 . S
N1278 H1290 0.984 . S
N1278 H1291 0.985 . S
N1279 C1281 1.356 . S
N1279 H1284 0.984 . S
N1279 H1285 0.985 . S
C1280 C1274 1.379 . S
C1280 C1277 1.363 . S
C1280 N1278 1.356 . S
C1281 C1275 1.363 . S
C1281 C1276 1.379 . S
C1281 N1279 1.356 . S
N1282 C1274 1.356 . S
N1282 H1288 0.984 . S
N1282 H1289 0.984 . S
N1283 C1276 1.356 . S
N1283 H1286 0.984 . S
N1283 H1287 0.985 . S
H1284 N1279 0.984 . S
H1285 N1279 0.985 . S
H1286 N1283 0.984 . S
H1287 N1283 0.985 . S
H1288 N1282 0.984 . S
H1289 N1282 0.984 . S
H1290 N1278 0.984 . S
H1291 N1278 0.985 . S
C1292 C1293 1.363 . S
C1292 C1298 1.379 . S
C1292 N1300 1.356 . S
C1293 C1292 1.363 . S
C1293 C1299 1.363 . S
C1294 C1295 1.363 . S
C1294 C1299 1.379 . S
C1294 N1301 1.356 . S
C1295 C1294 1.363 . S
C1295 C1298 1.363 . S
N1296 C1298 1.356 . S
N1296 H1308 0.984 . S
N1296 H1309 0.985 . S
N1297 C1299 1.356 . S
N1297 H1302 0.984 . S
N1297 H1303 0.985 . S
C1298 C1292 1.379 . S
C1298 C1295 1.363 . S
C1298 N1296 1.356 . S
C1299 C1293 1.363 . S
C1299 C1294 1.379 . S
C1299 N1297 1.356 . S
N1300 C1292 1.356 . S
N1300 H1306 0.984 . S
N1300 H1307 0.984 . S
N1301 C1294 1.356 . S
N1301 H1304 0.984 . S
N1301 H1305 0.985 . S
H1302 N1297 0.984 . S
H1303 N1297 0.985 . S
H1304 N1301 0.984 . S
H1305 N1301 0.985 . S
H1306 N1300 0.984 . S
H1307 N1300 0.984 . S
H1308 N1296 0.984 . S
H1309 N1296 0.985 . S
C1310 C1311 1.363 . S
C1310 C1316 1.379 . S
C1310 N1318 1.356 . S
C1311 C1310 1.363 . S
C1311 C1317 1.363 . S
C1312 C1313 1.363 . S
C1312 C1317 1.379 . S
C1312 N1319 1.356 . S
C1313 C1312 1.363 . S
C1313 C1316 1.363 . S
N1314 C1316 1.356 . S
N1314 H1326 0.984 . S
N1314 H1327 0.985 . S
N1315 C1317 1.356 . S
N1315 H1320 0.984 . S
N1315 H1321 0.985 . S
C1316 C1310 1.379 . S
C1316 C1313 1.363 . S
C1316 N1314 1.356 . S
C1317 C1311 1.363 . S
C1317 C1312 1.379 . S
C1317 N1315 1.356 . S
N1318 C1310 1.356 . S
N1318 H1324 0.984 . S
N1318 H1325 0.984 . S
N1319 C1312 1.356 . S
N1319 H1322 0.984 . S
N1319 H1323 0.985 . S
H1320 N1315 0.984 . S
H1321 N1315 0.985 . S
H1322 N1319 0.984 . S
H1323 N1319 0.985 . S
H1324 N1318 0.984 . S
H1325 N1318 0.984 . S
H1326 N1314 0.984 . S
H1327 N1314 0.985 . S
C1328 C1329 1.363 . S
C1328 C1334 1.379 . S
C1328 N1336 1.356 . S
C1329 C1328 1.363 . S
C1329 C1335 1.363 . S
C1330 C1331 1.363 . S
C1330 C1335 1.379 . S
C1330 N1337 1.356 . S
C1331 C1330 1.363 . S
C1331 C1334 1.363 . S
N1332 C1334 1.356 . S
N1332 H1344 0.984 . S
N1332 H1345 0.985 . S
N1333 C1335 1.356 . S
N1333 H1338 0.984 . S
N1333 H1339 0.985 . S
C1334 C1328 1.379 . S
C1334 C1331 1.363 . S
C1334 N1332 1.356 . S
C1335 C1329 1.363 . S
C1335 C1330 1.379 . S
C1335 N1333 1.356 . S
N1336 C1328 1.356 . S
N1336 H1342 0.984 . S
N1336 H1343 0.984 . S
N1337 C1330 1.356 . S
N1337 H1340 0.984 . S
N1337 H1341 0.985 . S
H1338 N1333 0.984 . S
H1339 N1333 0.985 . S
H1340 N1337 0.984 . S
H1341 N1337 0.985 . S
H1342 N1336 0.984 . S
H1343 N1336 0.984 . S
H1344 N1332 0.984 . S
H1345 N1332 0.985 . S
C1346 C1347 1.363 . S
C1346 C1352 1.379 . S
C1346 N1354 1.356 . S
C1347 C1346 1.363 . S
C1347 C1353 1.363 . S
C1348 C1349 1.363 . S
C1348 C1353 1.379 . S
C1348 N1355 1.356 . S
C1349 C1348 1.363 . S
C1349 C1352 1.363 . S
N1350 C1352 1.356 . S
N1350 H1362 0.984 . S
N1350 H1363 0.985 . S
N1351 C1353 1.356 . S
N1351 H1356 0.984 . S
N1351 H1357 0.985 . S
C1352 C1346 1.379 . S
C1352 C1349 1.363 . S
C1352 N1350 1.356 . S
C1353 C1347 1.363 . S
C1353 C1348 1.379 . S
C1353 N1351 1.356 . S
N1354 C1346 1.356 . S
N1354 H1360 0.984 . S
N1354 H1361 0.984 . S
N1355 C1348 1.356 . S
N1355 H1358 0.984 . S
N1355 H1359 0.985 . S
H1356 N1351 0.984 . S
H1357 N1351 0.985 . S
H1358 N1355 0.984 . S
H1359 N1355 0.985 . S
H1360 N1354 0.984 . S
H1361 N1354 0.984 . S
H1362 N1350 0.984 . S
H1363 N1350 0.985 . S
C1364 C1365 1.363 . S
C1364 C1370 1.379 . S
C1364 N1372 1.356 . S
C1365 C1364 1.363 . S
C1365 C1371 1.363 . S
C1366 C1367 1.363 . S
C1366 C1371 1.379 . S
C1366 N1373 1.356 . S
C1367 C1366 1.363 . S
C1367 C1370 1.363 . S
N1368 C1370 1.356 . S
N1368 H1380 0.984 . S
N1368 H1381 0.985 . S
N1369 C1371 1.356 . S
N1369 H1374 0.984 . S
N1369 H1375 0.985 . S
C1370 C1364 1.379 . S
C1370 C1367 1.363 . S
C1370 N1368 1.356 . S
C1371 C1365 1.363 . S
C1371 C1366 1.379 . S
C1371 N1369 1.356 . S
N1372 C1364 1.356 . S
N1372 H1378 0.984 . S
N1372 H1379 0.984 . S
N1373 C1366 1.356 . S
N1373 H1376 0.984 . S
N1373 H1377 0.985 . S
H1374 N1369 0.984 . S
H1375 N1369 0.985 . S
H1376 N1373 0.984 . S
H1377 N1373 0.985 . S
H1378 N1372 0.984 . S
H1379 N1372 0.984 . S
H1380 N1368 0.984 . S
H1381 N1368 0.985 . S
C1382 C1383 1.363 . S
C1382 C1388 1.379 . S
C1382 N1390 1.356 . S
C1383 C1382 1.363 . S
C1383 C1389 1.363 . S
C1384 C1385 1.363 . S
C1384 C1389 1.379 . S
C1384 N1391 1.356 . S
C1385 C1384 1.363 . S
C1385 C1388 1.363 . S
N1386 C1388 1.356 . S
N1386 H1398 0.984 . S
N1386 H1399 0.985 . S
N1387 C1389 1.356 . S
N1387 H1392 0.984 . S
N1387 H1393 0.985 . S
C1388 C1382 1.379 . S
C1388 C1385 1.363 . S
C1388 N1386 1.356 . S
C1389 C1383 1.363 . S
C1389 C1384 1.379 . S
C1389 N1387 1.356 . S
N1390 C1382 1.356 . S
N1390 H1396 0.984 . S
N1390 H1397 0.984 . S
N1391 C1384 1.356 . S
N1391 H1394 0.984 . S
N1391 H1395 0.985 . S
H1392 N1387 0.984 . S
H1393 N1387 0.985 . S
H1394 N1391 0.984 . S
H1395 N1391 0.985 . S
H1396 N1390 0.984 . S
H1397 N1390 0.984 . S
H1398 N1386 0.984 . S
H1399 N1386 0.985 . S
C1400 C1401 1.363 . S
C1400 C1406 1.379 . S
C1400 N1408 1.356 . S
C1401 C1400 1.363 . S
C1401 C1407 1.363 . S
C1402 C1403 1.363 . S
C1402 C1407 1.379 . S
C1402 N1409 1.356 . S
C1403 C1402 1.363 . S
C1403 C1406 1.363 . S
N1404 C1406 1.356 . S
N1404 H1416 0.984 . S
N1404 H1417 0.985 . S
N1405 C1407 1.356 . S
N1405 H1410 0.984 . S
N1405 H1411 0.985 . S
C1406 C1400 1.379 . S
C1406 C1403 1.363 . S
C1406 N1404 1.356 . S
C1407 C1401 1.363 . S
C1407 C1402 1.379 . S
C1407 N1405 1.356 . S
N1408 C1400 1.356 . S
N1408 H1414 0.984 . S
N1408 H1415 0.984 . S
N1409 C1402 1.356 . S
N1409 H1412 0.984 . S
N1409 H1413 0.985 . S
H1410 N1405 0.984 . S
H1411 N1405 0.985 . S
H1412 N1409 0.984 . S
H1413 N1409 0.985 . S
H1414 N1408 0.984 . S
H1415 N1408 0.984 . S
H1416 N1404 0.984 . S
H1417 N1404 0.985 . S
C1418 C1419 1.363 . S
C1418 C1424 1.379 . S
C1418 N1426 1.356 . S
C1419 C1418 1.363 . S
C1419 C1425 1.363 . S
C1420 C1421 1.363 . S
C1420 C1425 1.379 . S
C1420 N1427 1.356 . S
C1421 C1420 1.363 . S
C1421 C1424 1.363 . S
N1422 C1424 1.356 . S
N1422 H1434 0.984 . S
N1422 H1435 0.985 . S
N1423 C1425 1.356 . S
N1423 H1428 0.984 . S
N1423 H1429 0.985 . S
C1424 C1418 1.379 . S
C1424 C1421 1.363 . S
C1424 N1422 1.356 . S
C1425 C1419 1.363 . S
C1425 C1420 1.379 . S
C1425 N1423 1.356 . S
N1426 C1418 1.356 . S
N1426 H1432 0.984 . S
N1426 H1433 0.984 . S
N1427 C1420 1.356 . S
N1427 H1430 0.984 . S
N1427 H1431 0.985 . S
H1428 N1423 0.984 . S
H1429 N1423 0.985 . S
H1430 N1427 0.984 . S
H1431 N1427 0.985 . S
H1432 N1426 0.984 . S
H1433 N1426 0.984 . S
H1434 N1422 0.984 . S
H1435 N1422 0.985 . S
C1007 C331 0.934 . S
C1005 C15 1.594 . S
C1025 C463 1.254 . S
C1023 C55 1.530 . S
C1043 C349 1.309 . S
C1041 C101 1.531 . S
C1061 C445 0.922 . S
C1059 C141 1.570 . S
C1079 C577 1.211 . S
C1077 C2 1.522 . S
C1097 C691 1.299 . S
C1095 C61 1.537 . S
C1113 C95 1.602 . S
C1115 C831 1.246 . S
C1133 C945 1.161 . S
C1131 C135 1.539 . S
C1151 C559 0.911 . S
C1149 C42 1.458 . S
C1167 C82 1.603 . S
C1169 C673 0.949 . S
C1187 C777 1.240 . S
C1185 C122 1.582 . S
C1205 C891 1.100 . S
C1203 C21 1.410 . S
C1221 C162 1.505 . S
C1223 C489 1.121 . S
C1241 C321 1.071 . S
C1239 C221 1.428 . S
C1257 C255 1.392 . S
C1259 C435 1.052 . S
C1275 C282 1.531 . S
C1277 C375 1.133 . S
C1295 C787 0.996 . S
C1293 C181 1.578 . S
C1313 C901 1.244 . S
C1311 C202 1.618 . S
C1331 C549 0.993 . S
C1329 C242 1.332 . S
C1347 C301 1.569 . S
C1349 C663 1.309 . S
C1367 C805 1.238 . S
C1365 C215 1.478 . S
C1385 C919 1.116 . S
C1383 C261 1.563 . S
C1403 C603 1.183 . S
C1401 C295 1.548 . S
C1419 C175 1.650 . S
C1421 C717 1.119 . S
