# Generated by pormake.
# Topology tsx, (6,3)-cn, num edge types: 1
# Building blocks:
#     Node 0, Type 0, BuildingBlock: MIDCAF_clean_sbu_0, # of connection points: 6
#     Node 1, Type 0, BuildingBlock: MIDCAF_clean_sbu_0, # of connection points: 6
#     Node 2, Type 1, BuildingBlock: ESEHIV_clean_linker_0, # of connection points: 3
#     Node 3, Type 1, BuildingBlock: ESEHIV_clean_linker_0, # of connection points: 3
#     Node 4, Type 1, BuildingBlock: ESEHIV_clean_linker_0, # of connection points: 3
#     Node 5, Type 1, BuildingBlock: ESEHIV_clean_linker_0, # of connection points: 3
#     Edge 6, Type (0, 1), BuildingBlock: XIVTED_clean_linker_0, # of connection points: 2
#     Edge 7, Type (0, 1), BuildingBlock: XIVTED_clean_linker_0, # of connection points: 2
#     Edge 8, Type (0, 1), BuildingBlock: XIVTED_clean_linker_0, # of connection points: 2
#     Edge 9, Type (0, 1), BuildingBlock: XIVTED_clean_linker_0, # of connection points: 2
#     Edge 10, Type (0, 1), BuildingBlock: XIVTED_clean_linker_0, # of connection points: 2
#     Edge 11, Type (0, 1), BuildingBlock: XIVTED_clean_linker_0, # of connection points: 2
#     Edge 12, Type (0, 1), BuildingBlock: XIVTED_clean_linker_0, # of connection points: 2
#     Edge 13, Type (0, 1), BuildingBlock: XIVTED_clean_linker_0, # of connection points: 2
#     Edge 14, Type (0, 1), BuildingBlock: XIVTED_clean_linker_0, # of connection points: 2
#     Edge 15, Type (0, 1), BuildingBlock: XIVTED_clean_linker_0, # of connection points: 2
#     Edge 16, Type (0, 1), BuildingBlock: XIVTED_clean_linker_0, # of connection points: 2
#     Edge 17, Type (0, 1), BuildingBlock: XIVTED_clean_linker_0, # of connection points: 2
# Relax obj value: 0.118
# Max RMSD: 0.182
# Mean RMSD: 0.113
data_MOF--net-tsx--node1-MIDCAF_clean_sbu_0--node2-ESEHIV_clean_linker_0--edge1-XIVTED_clean_linker_0
_symmetry_space_group_name_H-M    P1
_symmetry_Int_Tables_number       1
_symmetry_cell_setting            triclinic
loop_
_symmetry_equiv_pos_as_xyz
'x, y, z'
_cell_length_a     18.214469
_cell_length_b     19.078236
_cell_length_c     36.544737
_cell_angle_alpha  90.493017
_cell_angle_beta   95.98309
_cell_angle_gamma 90.171555
loop_
_atom_site_label
_atom_site_type_symbol
_atom_site_fract_x
_atom_site_fract_y
_atom_site_fract_z
_atom_type_partial_charge
Zn0 Zn 0.89246 -0.00207 0.96029 0.0
Zn1 Zn 0.11593 3e-05 0.05927 0.0
Zn2 Zn 0.00658 0.00416 0.00854 0.0
C3 C 0.07857 0.14038 0.05117 0.0
C4 C 0.17033 0.94855 -0.00307 0.0
O5 O 0.92149 0.93136 0.02672 0.0
O6 O 0.84425 0.91336 0.9766 0.0
C7 C 0.90041 0.13352 0.99065 0.0
O8 O 0.03295 0.1143 0.02526 0.0
O9 O 0.11908 0.1008 0.07199 0.0
O10 O 0.19211 0.96538 0.02972 0.0
O11 O 0.10245 0.9581 0.98412 0.0
O12 O 0.85464 0.09186 0.97354 0.0
O13 O 0.96501 0.11191 0.00306 0.0
O14 O 0.04524 0.96835 0.95606 0.0
O15 O 0.94628 0.98563 0.91667 0.0
C16 C 0.01329 0.96871 0.92291 0.0
O17 O 0.97547 0.94461 0.05694 0.0
O18 O 0.07828 0.93567 0.0946 0.0
C19 C 0.8662 0.89834 0.0094 0.0
C20 C 0.01037 0.92308 0.08733 0.0
Zn21 Zn 0.72247 0.53232 0.53612 0.0
Zn22 Zn 0.37966 0.48757 0.45868 0.0
Zn23 Zn 0.58836 0.53206 0.51096 0.0
C24 C 0.52152 0.43936 0.43009 0.0
C25 C 0.47551 0.62387 0.48419 0.0
O26 O 0.59372 0.49766 0.56846 0.0
O27 O 0.71193 0.50848 0.58858 0.0
C28 C 0.70834 0.43518 0.4788 0.0
O29 O 0.56236 0.46982 0.45718 0.0
O30 O 0.45058 0.43922 0.42702 0.0
O31 O 0.45865 0.5596 0.47979 0.0
O32 O 0.54168 0.6364 0.49779 0.0
O33 O 0.7552 0.45888 0.50372 0.0
O34 O 0.64181 0.45841 0.47574 0.0
O35 O 0.61964 0.64475 0.5088 0.0
O36 O 0.73972 0.63095 0.52277 0.0
C37 C 0.68558 0.67022 0.51308 0.0
O38 O 0.52519 0.48247 0.55183 0.0
O39 O 0.4494 0.49668 0.50406 0.0
C40 C 0.64652 0.49447 0.5947 0.0
C41 C 0.46144 0.46987 0.53545 0.0
H42 H 0.86395 0.9906 0.34804 0.0
H43 H 0.05842 0.86259 0.35015 0.0
H44 H 0.02071 0.98772 0.44457 0.0
C45 C 0.91411 0.97016 0.36255 0.0
C46 C 0.93712 0.99531 0.39813 0.0
C47 C 0.95767 0.92296 0.34459 0.0
C48 C 0.02326 0.89801 0.36368 0.0
C49 C 0.04555 0.91998 0.3999 0.0
C50 C 1.0024 0.96883 0.41706 0.0
H51 H 0.97774 0.97725 0.65625 0.0
H52 H 0.17665 0.1 0.67042 0.0
H53 H 0.042 0.09886 0.56624 0.0
C54 C 0.01621 0.01278 0.64522 0.0
C55 C 1.00209 0.03533 0.60863 0.0
C56 C 0.07931 0.03533 0.66768 0.0
C57 C 0.12837 0.08173 0.65313 0.0
C58 C 0.11547 0.10547 0.6167 0.0
C59 C 0.05224 0.08157 0.59447 0.0
H60 H 0.49296 0.62152 0.85125 0.0
H61 H 0.6917 0.50256 0.8762 0.0
H62 H 0.59181 0.60694 0.96295 0.0
C63 C 0.5367 0.6023 0.8709 0.0
C64 C 0.53717 0.6212 0.90811 0.0
C65 C 0.59221 0.5596 0.85888 0.0
C66 C 0.64831 0.53547 0.88494 0.0
C67 C 0.64806 0.55149 0.92249 0.0
C68 C 0.59249 0.5947 0.93398 0.0
H69 H 0.44001 0.40914 0.16944 0.0
H70 H 0.64957 0.51174 0.16559 0.0
H71 H 0.48082 0.52849 0.07448 0.0
C72 C 0.47732 0.44037 0.15496 0.0
C73 C 0.45308 0.46531 0.11974 0.0
C74 C 0.54821 0.45656 0.17186 0.0
C75 C 0.59462 0.49886 0.153 0.0
C76 C 0.57048 0.52594 0.11821 0.0
C77 C 0.5002 0.50748 0.10121 0.0
H78 H 0.07208 0.22373 0.11093 0.0
H79 H 0.32273 0.48387 0.14902 0.0
H80 H 0.12836 0.22407 -0.00054 0.0
H81 H 0.41311 0.40485 0.05248 0.0
H82 H 0.20331 0.4325 0.1267 0.0
H83 H 0.14467 0.32964 0.12369 0.0
C84 C 0.09686 0.24855 0.08862 0.0
C85 C 0.09403 0.2158 0.05411 0.0
C86 C 0.24899 0.42603 0.11032 0.0
C87 C 0.17973 0.33631 0.0685 0.0
C88 C 0.31699 0.45595 0.12293 0.0
C89 C 0.37802 0.44677 0.10298 0.0
C90 C 0.2427 0.38493 0.07802 0.0
C91 C 0.36749 0.41209 0.06889 0.0
C92 C 0.13881 0.30925 0.09585 0.0
C93 C 0.12865 0.24856 0.02632 0.0
N94 N 0.30145 0.38111 0.05782 0.0
N95 N 0.17182 0.30607 0.03438 0.0
H96 H 0.31861 0.96564 0.00344 0.0
H97 H 0.3882 0.62088 0.88684 0.0
H98 H 0.14241 0.84866 0.94259 0.0
H99 H 0.5583 0.73431 0.95424 0.0
H100 H 0.29817 0.70862 0.90198 0.0
H101 H 0.40822 0.88919 0.97864 0.0
C102 C 0.29889 0.92441 0.98428 0.0
C103 C 0.22308 0.91283 0.97533 0.0
C104 C 0.35518 0.71431 0.9134 0.0
C105 C 0.32537 0.82397 0.94744 0.0
C106 C 0.40655 0.6643 0.90483 0.0
C107 C 0.48082 0.67042 0.91934 0.0
C108 C 0.37832 0.77089 0.9366 0.0
C109 C 0.50147 0.72714 0.94281 0.0
C110 C 0.35008 0.88049 0.9703 0.0
C111 C 0.20045 0.85926 0.95013 0.0
N112 N 0.45051 0.77521 0.95064 0.0
N113 N 0.25153 0.81593 0.93743 0.0
H114 H 0.81698 0.89838 0.07707 0.0
H115 H 0.6044 0.53221 0.04673 0.0
H116 H 0.82318 0.77232 0.97939 0.0
H117 H 0.64056 0.63898 0.15165 0.0
H118 H 0.68068 0.62119 0.02037 0.0
H119 H 0.74985 0.80464 0.10467 0.0
C120 C 0.80648 0.84981 0.06214 0.0
C121 C 0.82822 0.8416 0.02686 0.0
C122 C 0.67197 0.62489 0.04917 0.0
C123 C 0.7475 0.73583 0.05672 0.0
C124 C 0.62837 0.57438 0.06412 0.0
C125 C 0.61669 0.57814 0.10141 0.0
C126 C 0.70293 0.67992 0.0716 0.0
C127 C 0.64909 0.63361 0.12288 0.0
C128 C 0.76684 0.79685 0.07741 0.0
C129 C 0.80807 0.78 0.00703 0.0
N130 N 0.69044 0.68243 0.10764 0.0
N131 N 0.76871 0.72934 0.02222 0.0
H132 H 0.98455 0.25297 0.99008 0.0
H133 H 0.79789 0.54288 0.92248 0.0
H134 H 0.76463 0.17991 0.00258 0.0
H135 H 0.61852 0.47578 0.98209 0.0
H136 H 0.876 0.453 0.95298 0.0
H137 H 0.9396 0.374 0.98952 0.0
C138 C 0.92722 0.26266 -0.0065 0.0
C139 C 0.87799 0.20672 -0.00415 0.0
C140 C 0.82073 0.45943 0.96076 0.0
C141 C 0.82532 0.34403 -0.00619 0.0
C142 C 0.77595 0.51074 0.94312 0.0
C143 C 0.7014 0.51561 0.94928 0.0
C144 C 0.7902 0.41231 0.98444 0.0
C145 C 0.67562 0.47333 0.97639 0.0
C146 C 0.9012 0.33163 0.99261 0.0
C147 C 0.80403 0.2217 -0.0001 0.0
N148 N 0.71938 0.4221 0.99224 0.0
N149 N 0.77983 0.28882 -0.00162 0.0
H150 H 0.61678 0.7808 0.54374 0.0
H151 H 0.86041 0.02154 0.6266 0.0
H152 H 0.79445 0.73 0.47921 0.0
H153 H 0.99406 0.98433 0.53777 0.0
H154 H 0.76108 0.95364 0.59383 0.0
H155 H 0.67523 0.89451 0.55919 0.0
C156 C 0.66681 0.79473 0.53183 0.0
C157 C 0.70165 0.74575 0.51075 0.0
C158 C 0.81083 0.96162 0.58068 0.0
C159 C 0.77152 0.87361 0.52992 0.0
C160 C 0.86822 8e-05 0.59974 0.0
C161 C 0.93635 0.00732 0.58533 0.0
C162 C 0.8216 0.92961 0.54683 0.0
C163 C 0.94276 0.97972 0.5501 0.0
C164 C 0.70137 0.85912 0.54133 0.0
C165 C 0.76646 0.76613 0.49603 0.0
N166 N 0.88677 0.94095 0.53246 0.0
N167 N 0.79998 0.82778 0.50645 0.0
H168 H 0.84035 0.41982 0.45258 0.0
H169 H 0.78758 0.01437 0.39946 0.0
H170 H 0.6318 0.31458 0.45709 0.0
H171 H 0.9978 0.11622 0.42779 0.0
H172 H 0.72516 0.12402 0.41336 0.0
H173 H 0.89324 0.31086 0.43238 0.0
C174 C 0.80517 0.37392 0.44838 0.0
C175 C 0.73173 0.37603 0.45657 0.0
C176 C 0.78489 0.12201 0.41681 0.0
C177 C 0.79257 0.25023 0.43455 0.0
C178 C 0.82052 0.05953 0.40908 0.0
C179 C 0.89806 0.05616 0.41259 0.0
C180 C 0.82721 0.18171 0.42756 0.0
C181 C 0.93805 0.11609 0.42513 0.0
C182 C 0.83563 0.31149 0.43731 0.0
C183 C 0.68853 0.31514 0.45073 0.0
N184 N 0.90221 0.17642 0.43181 0.0
N185 N 0.7199 0.25417 0.44046 0.0
H186 H 0.31553 0.45357 0.51194 0.0
H187 H 0.2669 0.10809 0.62883 0.0
H188 H 0.48772 0.37216 0.58993 0.0
H189 H 0.08313 0.22026 0.57298 0.0
H190 H 0.35044 0.19874 0.61076 0.0
H191 H 0.23127 0.3641 0.53064 0.0
C192 C 0.33558 0.41686 0.53308 0.0
C193 C 0.40891 0.41987 0.5492 0.0
C194 C 0.29185 0.20352 0.60246 0.0
C195 C 0.31271 0.31699 0.57061 0.0
C196 C 0.24397 0.15181 0.6128 0.0
C197 C 0.16753 0.15675 0.60276 0.0
C198 C 0.26344 0.26049 0.58157 0.0
C199 C 0.14154 0.21382 0.58115 0.0
C200 C 0.28735 0.36588 0.54379 0.0
C201 C 0.43161 0.37161 0.57679 0.0
N202 N 0.18937 0.26348 0.57135 0.0
N203 N 0.38381 0.32171 0.58643 0.0
H204 H 0.49115 0.75955 0.45978 0.0
H205 H 0.06275 0.84779 0.46428 0.0
H206 H 0.33044 0.61142 0.49139 0.0
H207 H 0.18467 0.92656 0.37832 0.0
H208 H 0.17357 0.78463 0.48993 0.0
H209 H 0.39013 0.84399 0.4439 0.0
C210 C 0.43493 0.74521 0.46369 0.0
C211 C 0.4187 0.67832 0.47636 0.0
C212 C 0.17627 0.81677 0.46581 0.0
C213 C 0.30454 0.77431 0.45959 0.0
C214 C 0.11338 0.85298 0.45136 0.0
C215 C 0.11475 0.89175 0.41908 0.0
C216 C 0.24116 0.82045 0.44817 0.0
C217 C 0.18154 0.89659 0.40314 0.0
C218 C 0.37761 0.7931 0.45465 0.0
C219 C 0.3451 0.66214 0.48115 0.0
N220 N 0.24219 0.86107 0.41777 0.0
N221 N 0.2909 0.70978 0.47291 0.0
H222 H 0.89396 0.98524 0.11376 0.0
H223 H 0.97927 0.79898 0.30745 0.0
H224 H 0.0424 0.8107 0.13174 0.0
H225 H 0.89502 0.00904 0.29023 0.0
H226 H 0.96746 0.78093 0.24064 0.0
H227 H 0.85495 0.96877 0.17505 0.0
C228 C 0.91583 0.9414 0.13007 0.0
C229 C 0.97043 0.89848 0.11764 0.0
C230 C 0.95019 0.83031 0.25174 0.0
C231 C 0.92935 0.88173 0.18841 0.0
C232 C 0.95747 0.841 0.28983 0.0
C233 C 0.93932 0.90612 0.30478 0.0
C234 C 0.92385 0.88483 0.22847 0.0
C235 C 0.90928 0.95771 0.28043 0.0
C236 C 0.89437 0.9326 0.16522 0.0
C237 C 0.9994 0.84423 0.14035 0.0
N238 N 0.90325 0.94614 0.2436 0.0
N239 N 0.97933 0.83797 0.17498 0.0
H240 H 0.13735 0.03452 0.90478 0.0
H241 H 0.05439 0.90522 0.69596 0.0
H242 H 0.97742 0.87566 0.86779 0.0
H243 H 0.13506 0.11202 0.72854 0.0
H244 H 0.0628 0.87259 0.76081 0.0
H245 H 0.17597 0.03917 0.84227 0.0
C246 C 0.11267 -0.00138 0.88384 0.0
C247 C 0.05399 0.95499 0.89102 0.0
C248 C 0.07973 0.92473 0.7536 0.0
C249 C 0.09674 0.96044 0.82008 0.0
C250 C 0.07426 0.94371 0.71663 0.0
C251 C 0.09252 0.01204 0.70664 0.0
C252 C 0.10423 0.97413 0.78086 0.0
C253 C 0.12036 0.05876 0.73474 0.0
C254 C 0.13402 0.0018 0.84821 0.0
C255 C 0.02275 0.91015 0.86305 0.0
N256 N 0.12462 0.03917 0.77057 0.0
N257 N 0.0439 0.91456 0.82864 0.0
H258 H 0.73645 0.44114 0.65232 0.0
H259 H 0.54466 0.63878 0.79841 0.0
H260 H 0.51876 0.52586 0.62359 0.0
H261 H 0.63885 0.43664 0.82829 0.0
H262 H 0.54609 0.60716 0.73387 0.0
H263 H 0.71413 0.44496 0.71746 0.0
C264 C 0.68358 0.45924 0.65969 0.0
C265 C 0.62952 0.48363 0.63271 0.0
C266 C 0.56574 0.5697 0.75473 0.0
C267 C 0.60488 0.48983 0.7065 0.0
C268 C 0.56473 0.58742 0.79167 0.0
C269 C 0.5917 0.54045 0.81926 0.0
C270 C 0.59594 0.50556 0.74517 0.0
C271 C 0.61917 0.47548 0.80827 0.0
C272 C 0.67092 0.46122 0.69667 0.0
C273 C 0.56186 0.50651 0.64355 0.0
N274 N 0.62172 0.46036 0.77202 0.0
N275 N 0.55206 0.51069 0.67979 0.0
H276 H 0.6449 0.49189 0.40343 0.0
H277 H 0.51841 0.33211 0.20525 0.0
H278 H 0.4751 0.33436 0.38182 0.0
H279 H 0.6295 0.53092 0.2267 0.0
H280 H 0.53756 0.30672 0.27106 0.0
H281 H 0.67736 0.47672 0.34075 0.0
C282 C 0.6163 0.45213 0.38601 0.0
C283 C 0.55641 0.41504 0.39762 0.0
C284 C 0.559 0.35519 0.26111 0.0
C285 C 0.59195 0.39899 0.32566 0.0
C286 C 0.54756 0.37008 0.22362 0.0
C287 C 0.57079 0.43454 0.21036 0.0
C288 C 0.59432 0.40488 0.28548 0.0
C289 C 0.61047 0.48057 0.2354 0.0
C290 C 0.63436 0.44408 0.35006 0.0
C291 C 0.52083 0.36483 0.37365 0.0
N292 N 0.62005 0.46524 0.27177 0.0
N293 N 0.53819 0.35917 0.33851 0.0
loop_
_geom_bond_atom_site_label_1
_geom_bond_atom_site_label_2
_geom_bond_distance
_geom_bond_site_symmetry_2
_ccdc_geom_bond_type
Zn0 O6 1.920 1_545 S
Zn0 O12 1.898 . S
Zn0 O15 1.905 1_545 S
Zn1 O9 1.905 . S
Zn1 O10 1.898 1_545 S
Zn1 O18 1.920 1_545 S
Zn2 O5 2.080 1_445 S
Zn2 O8 2.114 . S
Zn2 O11 2.120 1_545 S
Zn2 O13 2.120 1_455 S
Zn2 O14 2.114 1_554 S
Zn2 O17 2.080 . S
C3 O8 1.166 . S
C3 O9 1.182 . S
C4 O10 1.167 . S
C4 O11 1.299 . S
O5 Zn2 2.080 1_665 S
O5 C19 1.305 . S
O6 Zn0 1.920 1_565 S
O6 C19 1.234 1_556 S
C7 O12 1.167 . S
C7 O13 1.299 1_556 S
O8 Zn2 2.114 . S
O8 C3 1.166 . S
O9 Zn1 1.905 . S
O9 C3 1.182 . S
O10 Zn1 1.898 1_565 S
O10 C4 1.167 . S
O11 Zn2 2.120 1_565 S
O11 C4 1.299 . S
O12 Zn0 1.898 . S
O12 C7 1.167 . S
O13 Zn2 2.120 1_655 S
O13 C7 1.299 1_554 S
O14 Zn2 2.114 1_556 S
O14 C16 1.166 1_445 S
O15 Zn0 1.905 1_565 S
O15 C16 1.182 . S
C16 O14 1.166 1_665 S
C16 O15 1.182 . S
O17 Zn2 2.080 . S
O17 C20 1.305 1_545 S
O18 Zn1 1.920 1_565 S
O18 C20 1.234 . S
C19 O5 1.305 . S
C19 O6 1.234 1_554 S
C20 O17 1.305 1_565 S
C20 O18 1.234 . S
Zn21 O27 1.920 . S
Zn21 O33 1.898 . S
Zn21 O36 1.905 . S
Zn22 O30 1.905 . S
Zn22 O31 1.898 . S
Zn22 O39 1.920 . S
Zn23 O26 2.080 . S
Zn23 O29 2.114 . S
Zn23 O32 2.120 . S
Zn23 O34 2.120 . S
Zn23 O35 2.114 . S
Zn23 O38 2.080 . S
C24 O29 1.166 . S
C24 O30 1.182 . S
C25 O31 1.167 . S
C25 O32 1.299 . S
O26 Zn23 2.080 . S
O26 C40 1.305 . S
O27 Zn21 1.920 . S
O27 C40 1.234 . S
C28 O33 1.167 . S
C28 O34 1.299 . S
O29 Zn23 2.114 . S
O29 C24 1.166 . S
O30 Zn22 1.905 . S
O30 C24 1.182 . S
O31 Zn22 1.898 . S
O31 C25 1.167 . S
O32 Zn23 2.120 . S
O32 C25 1.299 . S
O33 Zn21 1.898 . S
O33 C28 1.167 . S
O34 Zn23 2.120 . S
O34 C28 1.299 . S
O35 Zn23 2.114 . S
O35 C37 1.166 . S
O36 Zn21 1.905 . S
O36 C37 1.182 . S
C37 O35 1.166 . S
C37 O36 1.182 . S
O38 Zn23 2.080 . S
O38 C41 1.305 . S
O39 Zn22 1.920 . S
O39 C41 1.234 . S
C40 O26 1.305 . S
C40 O27 1.234 . S
C41 O38 1.305 . S
C41 O39 1.234 . S
H42 C45 0.931 1_655 S
H43 C48 0.928 . S
H44 C50 0.930 . S
C45 H42 0.931 1_455 S
C45 C46 1.413 . S
C45 C47 1.360 . S
C46 C45 1.413 . S
C46 C50 1.429 . S
C47 C45 1.360 . S
C47 C48 1.372 1_545 S
C48 H43 0.928 . S
C48 C47 1.372 1_565 S
C48 C49 1.404 . S
C49 C48 1.404 . S
C49 C50 1.391 1_565 S
C50 H44 0.930 . S
C50 C46 1.429 . S
C50 C49 1.391 1_545 S
H51 C54 0.931 . S
H52 C57 0.928 . S
H53 C59 0.930 . S
C54 H51 0.931 . S
C54 C55 1.413 . S
C54 C56 1.360 1_665 S
C55 C54 1.413 . S
C55 C59 1.429 1_665 S
C56 C54 1.360 1_445 S
C56 C57 1.372 . S
C57 H52 0.928 . S
C57 C56 1.372 . S
C57 C58 1.404 . S
C58 C57 1.404 . S
C58 C59 1.391 . S
C59 H53 0.930 . S
C59 C55 1.429 1_445 S
C59 C58 1.391 . S
H60 C63 0.931 . S
H61 C66 0.928 . S
H62 C68 0.930 . S
C63 H60 0.931 . S
C63 C64 1.413 . S
C63 C65 1.360 . S
C64 C63 1.413 . S
C64 C68 1.429 . S
C65 C63 1.360 . S
C65 C66 1.372 . S
C66 H61 0.928 . S
C66 C65 1.372 . S
C66 C67 1.404 . S
C67 C66 1.404 . S
C67 C68 1.391 . S
C68 H62 0.930 . S
C68 C64 1.429 . S
C68 C67 1.391 . S
H69 C72 0.931 . S
H70 C75 0.928 . S
H71 C77 0.930 . S
C72 H69 0.931 . S
C72 C73 1.413 . S
C72 C74 1.360 . S
C73 C72 1.413 . S
C73 C77 1.429 . S
C74 C72 1.360 . S
C74 C75 1.372 . S
C75 H70 0.928 . S
C75 C74 1.372 . S
C75 C76 1.404 . S
C76 C75 1.404 . S
C76 C77 1.391 . S
C77 H71 0.930 . S
C77 C73 1.429 . S
C77 C76 1.391 . S
H78 C84 0.930 . S
H79 C88 0.930 . S
H80 C93 0.929 1_556 S
H81 C91 0.929 . S
H82 C86 0.929 . S
H83 C92 0.929 . S
C84 H78 0.930 . S
C84 C85 1.367 . S
C84 C92 1.378 . S
C85 C84 1.367 . S
C85 C93 1.433 . S
C86 H82 0.929 . S
C86 C88 1.378 . S
C86 C90 1.350 . S
C87 C90 1.463 . S
C87 C92 1.350 . S
C87 N95 1.427 . S
C88 H79 0.930 . S
C88 C86 1.378 . S
C88 C89 1.367 . S
C89 C88 1.367 . S
C89 C91 1.433 . S
C90 C86 1.350 . S
C90 C87 1.463 . S
C90 N94 1.427 . S
C91 H81 0.929 . S
C91 C89 1.433 . S
C91 N94 1.384 . S
C92 H83 0.929 . S
C92 C84 1.378 . S
C92 C87 1.350 . S
C93 H80 0.929 1_554 S
C93 C85 1.433 . S
C93 N95 1.384 . S
N94 C90 1.427 . S
N94 C91 1.384 . S
N95 C87 1.427 . S
N95 C93 1.384 . S
H96 C102 0.930 . S
H97 C106 0.930 . S
H98 C111 0.929 . S
H99 C109 0.929 . S
H100 C104 0.929 . S
H101 C110 0.929 . S
C102 H96 0.930 . S
C102 C103 1.367 1_554 S
C102 C110 1.378 . S
C103 C102 1.367 1_556 S
C103 C111 1.433 . S
C104 H100 0.929 . S
C104 C106 1.378 . S
C104 C108 1.350 . S
C105 C108 1.463 . S
C105 C110 1.350 1_556 S
C105 N113 1.427 . S
C106 H97 0.930 . S
C106 C104 1.378 . S
C106 C107 1.367 . S
C107 C106 1.367 . S
C107 C109 1.433 . S
C108 C104 1.350 . S
C108 C105 1.463 . S
C108 N112 1.427 . S
C109 H99 0.929 . S
C109 C107 1.433 . S
C109 N112 1.384 . S
C110 H101 0.929 . S
C110 C102 1.378 . S
C110 C105 1.350 1_554 S
C111 H98 0.929 . S
C111 C103 1.433 . S
C111 N113 1.384 . S
N112 C108 1.427 . S
N112 C109 1.384 . S
N113 C105 1.427 . S
N113 C111 1.384 . S
H114 C120 0.930 . S
H115 C124 0.930 . S
H116 C129 0.929 . S
H117 C127 0.929 . S
H118 C122 0.929 . S
H119 C128 0.929 . S
C120 H114 0.930 . S
C120 C121 1.367 . S
C120 C128 1.378 . S
C121 C120 1.367 . S
C121 C129 1.433 . S
C122 H118 0.929 . S
C122 C124 1.378 . S
C122 C126 1.350 . S
C123 C126 1.463 . S
C123 C128 1.350 . S
C123 N131 1.427 . S
C124 H115 0.930 . S
C124 C122 1.378 . S
C124 C125 1.367 . S
C125 C124 1.367 . S
C125 C127 1.433 . S
C126 C122 1.350 . S
C126 C123 1.463 . S
C126 N130 1.427 . S
C127 H117 0.929 . S
C127 C125 1.433 . S
C127 N130 1.384 . S
C128 H119 0.929 . S
C128 C120 1.378 . S
C128 C123 1.350 . S
C129 H116 0.929 . S
C129 C121 1.433 . S
C129 N131 1.384 . S
N130 C126 1.427 . S
N130 C127 1.384 . S
N131 C123 1.427 . S
N131 C129 1.384 . S
H132 C138 0.930 . S
H133 C142 0.930 . S
H134 C147 0.929 . S
H135 C145 0.929 . S
H136 C140 0.929 1_554 S
H137 C146 0.929 . S
C138 H132 0.930 . S
C138 C139 1.367 . S
C138 C146 1.378 . S
C139 C138 1.367 . S
C139 C147 1.433 1_556 S
C140 H136 0.929 1_556 S
C140 C142 1.378 . S
C140 C144 1.350 . S
C141 C144 1.463 . S
C141 C146 1.350 . S
C141 N149 1.427 1_556 S
C142 H133 0.930 . S
C142 C140 1.378 . S
C142 C143 1.367 . S
C143 C142 1.367 . S
C143 C145 1.433 . S
C144 C140 1.350 . S
C144 C141 1.463 . S
C144 N148 1.427 . S
C145 H135 0.929 . S
C145 C143 1.433 . S
C145 N148 1.384 . S
C146 H137 0.929 . S
C146 C138 1.378 . S
C146 C141 1.350 . S
C147 H134 0.929 . S
C147 C139 1.433 1_554 S
C147 N149 1.384 . S
N148 C144 1.427 . S
N148 C145 1.384 . S
N149 C141 1.427 1_554 S
N149 C147 1.384 . S
H150 C156 0.930 . S
H151 C160 0.930 . S
H152 C165 0.929 . S
H153 C163 0.929 . S
H154 C158 0.929 . S
H155 C164 0.929 . S
C156 H150 0.930 . S
C156 C157 1.367 . S
C156 C164 1.378 . S
C157 C156 1.367 . S
C157 C165 1.433 . S
C158 H154 0.929 . S
C158 C160 1.378 . S
C158 C162 1.350 . S
C159 C162 1.463 . S
C159 C164 1.350 . S
C159 N167 1.427 . S
C160 H151 0.930 . S
C160 C158 1.378 . S
C160 C161 1.367 . S
C161 C160 1.367 . S
C161 C163 1.433 . S
C162 C158 1.350 . S
C162 C159 1.463 . S
C162 N166 1.427 . S
C163 H153 0.929 . S
C163 C161 1.433 . S
C163 N166 1.384 . S
C164 H155 0.929 . S
C164 C156 1.378 . S
C164 C159 1.350 . S
C165 H152 0.929 . S
C165 C157 1.433 . S
C165 N167 1.384 . S
N166 C162 1.427 . S
N166 C163 1.384 . S
N167 C159 1.427 . S
N167 C165 1.384 . S
H168 C174 0.930 . S
H169 C178 0.930 . S
H170 C183 0.929 . S
H171 C181 0.929 . S
H172 C176 0.929 . S
H173 C182 0.929 . S
C174 H168 0.930 . S
C174 C175 1.367 . S
C174 C182 1.378 . S
C175 C174 1.367 . S
C175 C183 1.433 . S
C176 H172 0.929 . S
C176 C178 1.378 . S
C176 C180 1.350 . S
C177 C180 1.463 . S
C177 C182 1.350 . S
C177 N185 1.427 . S
C178 H169 0.930 . S
C178 C176 1.378 . S
C178 C179 1.367 . S
C179 C178 1.367 . S
C179 C181 1.433 . S
C180 C176 1.350 . S
C180 C177 1.463 . S
C180 N184 1.427 . S
C181 H171 0.929 . S
C181 C179 1.433 . S
C181 N184 1.384 . S
C182 H173 0.929 . S
C182 C174 1.378 . S
C182 C177 1.350 . S
C183 H170 0.929 . S
C183 C175 1.433 . S
C183 N185 1.384 . S
N184 C180 1.427 . S
N184 C181 1.384 . S
N185 C177 1.427 . S
N185 C183 1.384 . S
H186 C192 0.930 . S
H187 C196 0.930 . S
H188 C201 0.929 . S
H189 C199 0.929 . S
H190 C194 0.929 . S
H191 C200 0.929 . S
C192 H186 0.930 . S
C192 C193 1.367 . S
C192 C200 1.378 . S
C193 C192 1.367 . S
C193 C201 1.433 . S
C194 H190 0.929 . S
C194 C196 1.378 . S
C194 C198 1.350 . S
C195 C198 1.463 . S
C195 C200 1.350 . S
C195 N203 1.427 . S
C196 H187 0.930 . S
C196 C194 1.378 . S
C196 C197 1.367 . S
C197 C196 1.367 . S
C197 C199 1.433 . S
C198 C194 1.350 . S
C198 C195 1.463 . S
C198 N202 1.427 . S
C199 H189 0.929 . S
C199 C197 1.433 . S
C199 N202 1.384 . S
C200 H191 0.929 . S
C200 C192 1.378 . S
C200 C195 1.350 . S
C201 H188 0.929 . S
C201 C193 1.433 . S
C201 N203 1.384 . S
N202 C198 1.427 . S
N202 C199 1.384 . S
N203 C195 1.427 . S
N203 C201 1.384 . S
H204 C210 0.930 . S
H205 C214 0.930 . S
H206 C219 0.929 . S
H207 C217 0.929 . S
H208 C212 0.929 . S
H209 C218 0.929 . S
C210 H204 0.930 . S
C210 C211 1.367 . S
C210 C218 1.378 . S
C211 C210 1.367 . S
C211 C219 1.433 . S
C212 H208 0.929 . S
C212 C214 1.378 . S
C212 C216 1.350 . S
C213 C216 1.463 . S
C213 C218 1.350 . S
C213 N221 1.427 . S
C214 H205 0.930 . S
C214 C212 1.378 . S
C214 C215 1.367 . S
C215 C214 1.367 . S
C215 C217 1.433 . S
C216 C212 1.350 . S
C216 C213 1.463 . S
C216 N220 1.427 . S
C217 H207 0.929 . S
C217 C215 1.433 . S
C217 N220 1.384 . S
C218 H209 0.929 . S
C218 C210 1.378 . S
C218 C213 1.350 . S
C219 H206 0.929 . S
C219 C211 1.433 . S
C219 N221 1.384 . S
N220 C216 1.427 . S
N220 C217 1.384 . S
N221 C213 1.427 . S
N221 C219 1.384 . S
H222 C228 0.930 . S
H223 C232 0.930 . S
H224 C237 0.929 . S
H225 C235 0.929 . S
H226 C230 0.929 . S
H227 C236 0.929 . S
C228 H222 0.930 . S
C228 C229 1.367 1_545 S
C228 C236 1.378 . S
C229 C228 1.367 1_565 S
C229 C237 1.433 . S
C230 H226 0.929 . S
C230 C232 1.378 . S
C230 C234 1.350 1_565 S
C231 C234 1.463 . S
C231 C236 1.353 . S
C231 N239 1.424 1_545 S
C232 H223 0.930 . S
C232 C230 1.378 . S
C232 C233 1.367 1_565 S
C233 C232 1.367 1_545 S
C233 C235 1.433 . S
C234 C230 1.350 1_545 S
C234 C231 1.463 . S
C234 N238 1.427 . S
C235 H225 0.929 . S
C235 C233 1.433 . S
C235 N238 1.384 . S
C236 H227 0.929 . S
C236 C228 1.378 . S
C236 C231 1.353 . S
C237 H224 0.929 . S
C237 C229 1.433 . S
C237 N239 1.384 . S
N238 C234 1.427 . S
N238 C235 1.384 . S
N239 C231 1.424 1_565 S
N239 C237 1.384 . S
H240 C246 0.930 . S
H241 C250 0.930 . S
H242 C255 0.929 . S
H243 C253 0.929 . S
H244 C248 0.929 . S
H245 C254 0.929 . S
C246 H240 0.930 . S
C246 C247 1.367 1_545 S
C246 C254 1.378 . S
C247 C246 1.367 1_565 S
C247 C255 1.433 1_455 S
C248 H244 0.929 . S
C248 C250 1.378 . S
C248 C252 1.350 1_665 S
C249 C252 1.463 1_565 S
C249 C254 1.350 1_565 S
C249 N257 1.427 1_455 S
C250 H241 0.930 . S
C250 C248 1.378 . S
C250 C251 1.367 1_665 S
C251 C250 1.367 1_445 S
C251 C253 1.433 . S
C252 C248 1.350 1_445 S
C252 C249 1.463 1_545 S
C252 N256 1.427 . S
C253 H243 0.929 . S
C253 C251 1.433 . S
C253 N256 1.384 . S
C254 H245 0.929 . S
C254 C246 1.378 . S
C254 C249 1.350 1_545 S
C255 H242 0.929 . S
C255 C247 1.433 1_655 S
C255 N257 1.384 . S
N256 C252 1.427 . S
N256 C253 1.384 . S
N257 C249 1.427 1_655 S
N257 C255 1.384 . S
H258 C264 0.930 . S
H259 C268 0.930 . S
H260 C273 0.929 . S
H261 C271 0.929 . S
H262 C266 0.929 . S
H263 C272 0.929 . S
C264 H258 0.930 . S
C264 C265 1.367 . S
C264 C272 1.378 . S
C265 C264 1.367 . S
C265 C273 1.433 . S
C266 H262 0.929 . S
C266 C268 1.378 . S
C266 C270 1.350 . S
C267 C270 1.463 . S
C267 C272 1.350 . S
C267 N275 1.427 . S
C268 H259 0.930 . S
C268 C266 1.378 . S
C268 C269 1.367 . S
C269 C268 1.367 . S
C269 C271 1.433 . S
C270 C266 1.350 . S
C270 C267 1.463 . S
C270 N274 1.427 . S
C271 H261 0.929 . S
C271 C269 1.433 . S
C271 N274 1.384 . S
C272 H263 0.929 . S
C272 C264 1.378 . S
C272 C267 1.350 . S
C273 H260 0.929 . S
C273 C265 1.433 . S
C273 N275 1.384 . S
N274 C270 1.427 . S
N274 C271 1.384 . S
N275 C267 1.427 . S
N275 C273 1.384 . S
H276 C282 0.930 . S
H277 C286 0.930 . S
H278 C291 0.929 . S
H279 C289 0.929 . S
H280 C284 0.929 . S
H281 C290 0.929 . S
C282 H276 0.930 . S
C282 C283 1.367 . S
C282 C290 1.378 . S
C283 C282 1.367 . S
C283 C291 1.433 . S
C284 H280 0.929 . S
C284 C286 1.378 . S
C284 C288 1.350 . S
C285 C288 1.463 . S
C285 C290 1.350 . S
C285 N293 1.427 . S
C286 H277 0.930 . S
C286 C284 1.378 . S
C286 C287 1.367 . S
C287 C286 1.367 . S
C287 C289 1.433 . S
C288 C284 1.350 . S
C288 C285 1.463 . S
C288 N292 1.427 . S
C289 H279 0.929 . S
C289 C287 1.433 . S
C289 N292 1.384 . S
C290 H281 0.929 . S
C290 C282 1.378 . S
C290 C285 1.350 . S
C291 H278 0.929 . S
C291 C283 1.433 . S
C291 N293 1.384 . S
N292 C288 1.427 . S
N292 C289 1.384 . S
N293 C285 1.427 . S
N293 C291 1.384 . S
C89 C73 1.256 . S
C85 C3 1.098 . S
C103 C4 1.448 1_556 S
C107 C64 1.542 . S
C121 C19 1.480 . S
C125 C76 1.560 . S
C139 C7 1.091 . S
C143 C67 1.255 . S
C157 C37 1.094 . S
C161 C55 1.256 . S
C175 C28 1.461 . S
C179 C46 1.546 1_655 S
C197 C58 1.555 . S
C193 C41 1.472 . S
C215 C49 1.247 . S
C211 C25 1.119 . S
C229 C20 1.311 . S
C233 C47 1.464 . S
C247 C16 1.358 1_455 S
C251 C56 1.514 . S
C269 C65 1.469 . S
C265 C40 1.312 . S
C283 C24 1.352 . S
C287 C74 1.514 . S
