# Generated by pormake.
# Topology pyr, (3,6)-cn, num edge types: 1
# Building blocks:
#     Node 0, Type 0, BuildingBlock: QEWDON_clean_linker_0, # of connection points: 3
#     Node 1, Type 0, BuildingBlock: QEWDON_clean_linker_0, # of connection points: 3
#     Node 2, Type 0, BuildingBlock: QEWDON_clean_linker_0, # of connection points: 3
#     Node 3, Type 0, BuildingBlock: QEWDON_clean_linker_0, # of connection points: 3
#     Node 4, Type 0, BuildingBlock: QEWDON_clean_linker_0, # of connection points: 3
#     Node 5, Type 0, BuildingBlock: QEWDON_clean_linker_0, # of connection points: 3
#     Node 6, Type 0, BuildingBlock: QEWDON_clean_linker_0, # of connection points: 3
#     Node 7, Type 0, BuildingBlock: QEWDON_clean_linker_0, # of connection points: 3
#     Node 8, Type 1, BuildingBlock: LEVNOQ01_clean_sbu_1, # of connection points: 6
#     Node 9, Type 1, BuildingBlock: LEVNOQ01_clean_sbu_1, # of connection points: 6
#     Node 10, Type 1, BuildingBlock: LEVNOQ01_clean_sbu_1, # of connection points: 6
#     Node 11, Type 1, BuildingBlock: LEVNOQ01_clean_sbu_1, # of connection points: 6
#     Edge 12, Type (0, 1), BuildingBlock: UVAHIK_clean_linker_0, # of connection points: 2
#     Edge 13, Type (0, 1), BuildingBlock: UVAHIK_clean_linker_0, # of connection points: 2
#     Edge 14, Type (0, 1), BuildingBlock: UVAHIK_clean_linker_0, # of connection points: 2
#     Edge 15, Type (0, 1), BuildingBlock: UVAHIK_clean_linker_0, # of connection points: 2
#     Edge 16, Type (0, 1), BuildingBlock: UVAHIK_clean_linker_0, # of connection points: 2
#     Edge 17, Type (0, 1), BuildingBlock: UVAHIK_clean_linker_0, # of connection points: 2
#     Edge 18, Type (0, 1), BuildingBlock: UVAHIK_clean_linker_0, # of connection points: 2
#     Edge 19, Type (0, 1), BuildingBlock: UVAHIK_clean_linker_0, # of connection points: 2
#     Edge 20, Type (0, 1), BuildingBlock: UVAHIK_clean_linker_0, # of connection points: 2
#     Edge 21, Type (0, 1), BuildingBlock: UVAHIK_clean_linker_0, # of connection points: 2
#     Edge 22, Type (0, 1), BuildingBlock: UVAHIK_clean_linker_0, # of connection points: 2
#     Edge 23, Type (0, 1), BuildingBlock: UVAHIK_clean_linker_0, # of connection points: 2
#     Edge 24, Type (0, 1), BuildingBlock: UVAHIK_clean_linker_0, # of connection points: 2
#     Edge 25, Type (0, 1), BuildingBlock: UVAHIK_clean_linker_0, # of connection points: 2
#     Edge 26, Type (0, 1), BuildingBlock: UVAHIK_clean_linker_0, # of connection points: 2
#     Edge 27, Type (0, 1), BuildingBlock: UVAHIK_clean_linker_0, # of connection points: 2
#     Edge 28, Type (0, 1), BuildingBlock: UVAHIK_clean_linker_0, # of connection points: 2
#     Edge 29, Type (0, 1), BuildingBlock: UVAHIK_clean_linker_0, # of connection points: 2
#     Edge 30, Type (0, 1), BuildingBlock: UVAHIK_clean_linker_0, # of connection points: 2
#     Edge 31, Type (0, 1), BuildingBlock: UVAHIK_clean_linker_0, # of connection points: 2
#     Edge 32, Type (0, 1), BuildingBlock: UVAHIK_clean_linker_0, # of connection points: 2
#     Edge 33, Type (0, 1), BuildingBlock: UVAHIK_clean_linker_0, # of connection points: 2
#     Edge 34, Type (0, 1), BuildingBlock: UVAHIK_clean_linker_0, # of connection points: 2
#     Edge 35, Type (0, 1), BuildingBlock: UVAHIK_clean_linker_0, # of connection points: 2
# Relax obj value: 0.130
# Max RMSD: 0.254
# Mean RMSD: 0.191
data_MOF--net-pry--node1-LEVNOQ01_clean_sbu_1--node2-QEWDON_clean_linker_0--edge1-UVAHIK_clean_linker_0
_symmetry_space_group_name_H-M    P1
_symmetry_Int_Tables_number       1
_symmetry_cell_setting            triclinic
loop_
_symmetry_equiv_pos_as_xyz
'x, y, z'
_cell_length_a     47.393795
_cell_length_b     45.94346
_cell_length_c     48.850867
_cell_angle_alpha  92.134871
_cell_angle_beta   91.840745
_cell_angle_gamma 103.48648
loop_
_atom_site_label
_atom_site_type_symbol
_atom_site_fract_x
_atom_site_fract_y
_atom_site_fract_z
_atom_type_partial_charge
H0 H 0.19159 0.21394 0.14115 0.0
C1 C 0.179 0.2015 0.15686 0.0
C2 C 0.18606 0.17513 0.16608 0.0
C3 C 0.15786 0.21357 0.16993 0.0
H4 H 0.17622 0.14041 0.19532 0.0
C5 C 0.171 0.16063 0.18812 0.0
C6 C 0.14992 0.17234 0.2015 0.0
C7 C 0.14324 0.19853 0.19185 0.0
C8 C 0.15677 0.24542 0.16665 0.0
H9 H 0.12829 0.20878 0.20289 0.0
C10 C 0.14281 0.25562 0.14399 0.0
C11 C 0.14189 0.28628 0.14334 0.0
C12 C 0.16944 0.26598 0.18812 0.0
H13 H 0.1801 0.25869 0.20568 0.0
C14 C 0.16845 0.29594 0.18742 0.0
H15 H 0.1328 0.24005 0.12732 0.0
C16 C 0.15483 0.30602 0.16527 0.0
H17 H 0.15431 0.32949 0.16527 0.0
H18 H 0.17824 0.31145 0.20418 0.0
H19 H 0.35909 0.94912 0.71102 0.0
C20 C 0.37408 0.93744 0.70184 0.0
C21 C 0.40069 0.93727 0.71568 0.0
C22 C 0.36567 0.92059 0.67719 0.0
H23 H 0.43807 0.9176 0.71563 0.0
C24 C 0.41875 0.91986 0.70425 0.0
C25 C 0.41035 0.903 0.67944 0.0
C26 C 0.38473 0.90518 0.66541 0.0
C27 C 0.33495 0.91253 0.66706 0.0
H28 H 0.37802 0.89227 0.64628 0.0
C29 C 0.31991 0.93402 0.65878 0.0
C30 C 0.29074 0.92464 0.649 0.0
C31 C 0.32059 0.88198 0.66552 0.0
H32 H 0.33165 0.86507 0.67196 0.0
C33 C 0.29191 0.87281 0.65573 0.0
H34 H 0.33076 0.95759 0.65979 0.0
C35 C 0.27706 0.89394 0.64749 0.0
H36 H 0.25483 0.88621 0.63957 0.0
H37 H 0.28118 0.84923 0.65444 0.0
H38 H 0.64172 0.46811 0.92032 0.0
C39 C 0.63483 0.44442 0.92395 0.0
C40 C 0.65433 0.42953 0.93621 0.0
C41 C 0.60666 0.42843 0.91552 0.0
H42 H 0.66014 0.38704 0.94975 0.0
C43 C 0.64528 0.39874 0.94021 0.0
C44 C 0.61747 0.38263 0.93144 0.0
C45 C 0.59812 0.39752 0.91918 0.0
C46 C 0.58709 0.443 0.90006 0.0
H47 H 0.57671 0.38496 0.91194 0.0
C48 C 0.59492 0.45362 0.87424 0.0
C49 C 0.5749 0.4632 0.857 0.0
C50 C 0.55953 0.44334 0.90945 0.0
H51 H 0.55307 0.43487 0.92927 0.0
C52 C 0.53998 0.45423 0.89306 0.0
H53 H 0.61627 0.45315 0.86719 0.0
C54 C 0.54742 0.46382 0.86687 0.0
H55 H 0.53127 0.47068 0.85408 0.0
H56 H 0.51867 0.45437 0.90031 0.0
H57 H 0.8957 0.6674 0.37818 0.0
C58 C 0.88625 0.65841 0.39687 0.0
C59 C 0.89547 0.67436 0.42195 0.0
C60 C 0.86376 0.63203 0.39591 0.0
H61 H 0.88735 0.67791 0.46488 0.0
C62 C 0.88162 0.66444 0.44591 0.0
C63 C 0.8579 0.63974 0.44504 0.0
C64 C 0.85048 0.62248 0.42048 0.0
C65 C 0.85174 0.61625 0.36921 0.0
H66 H 0.83267 0.60284 0.4202 0.0
C67 C 0.86952 0.61551 0.3467 0.0
C68 C 0.85766 0.60119 0.32152 0.0
C69 C 0.82185 0.60245 0.36581 0.0
H70 H 0.80695 0.60361 0.3819 0.0
C71 C 0.81032 0.5875 0.34119 0.0
H72 H 0.89252 0.62593 0.34863 0.0
C73 C 0.82804 0.58681 0.31917 0.0
H74 H 0.81828 0.57599 0.29994 0.0
H75 H 0.78737 0.577 0.33896 0.0
H76 H 0.85663 0.88978 0.91569 0.0
C77 C 0.8667 0.90072 0.89798 0.0
C78 C 0.89179 0.89319 0.88788 0.0
C79 C 0.85281 0.91996 0.88378 0.0
H80 H 0.92217 0.90006 0.85527 0.0
C81 C 0.90306 0.90578 0.86342 0.0
C82 C 0.88959 0.92526 0.84904 0.0
C83 C 0.8647 0.93247 0.85964 0.0
C84 C 0.82223 0.92023 0.88933 0.0
H85 H 0.85314 0.94596 0.84793 0.0
C86 C 0.81431 0.93946 0.90953 0.0
C87 C 0.78457 0.93856 0.91317 0.0
C88 C 0.80041 0.90056 0.87313 0.0
H89 H 0.80603 0.88575 0.85752 0.0
C90 C 0.77123 0.89973 0.8768 0.0
H91 H 0.83092 0.95484 0.9221 0.0
C92 C 0.76335 0.91853 0.89665 0.0
H93 H 0.7405 0.91752 0.8991 0.0
H94 H 0.75464 0.88445 0.86416 0.0
H95 H 0.67786 0.19587 0.46677 0.0
C96 C 0.66974 0.18933 0.4459 0.0
C97 C 0.68557 0.17495 0.42822 0.0
C98 C 0.64294 0.19452 0.43719 0.0
H99 H 0.68565 0.15371 0.38812 0.0
C100 C 0.6742 0.16598 0.40144 0.0
C101 C 0.64719 0.1708 0.39239 0.0
C102 C 0.63184 0.18542 0.41046 0.0
C103 C 0.62444 0.20454 0.45753 0.0
H104 H 0.61078 0.18887 0.40412 0.0
C105 C 0.62178 0.23447 0.45984 0.0
C106 C 0.60386 0.24288 0.47967 0.0
C107 C 0.6093 0.18343 0.4751 0.0
H108 H 0.61119 0.16037 0.4736 0.0
C109 C 0.59152 0.1918 0.49461 0.0
H110 H 0.63346 0.25093 0.44641 0.0
C111 C 0.58875 0.22132 0.49688 0.0
H112 H 0.57482 0.22742 0.51216 0.0
H113 H 0.57984 0.17534 0.50801 0.0
H114 H 0.40556 0.71278 0.22419 0.0
C115 C 0.38549 0.70556 0.21192 0.0
C116 C 0.3758 0.72611 0.19581 0.0
C117 C 0.36999 0.67538 0.2111 0.0
H118 H 0.34308 0.73278 0.16688 0.0
C119 C 0.35019 0.71676 0.17958 0.0
C120 C 0.33424 0.68696 0.17883 0.0
C121 C 0.34438 0.66622 0.19448 0.0
C122 C 0.38063 0.65332 0.22738 0.0
H123 H 0.33214 0.6431 0.19402 0.0
C124 C 0.38938 0.66004 0.25509 0.0
C125 C 0.39844 0.6388 0.27104 0.0
C126 C 0.38158 0.62528 0.21547 0.0
H127 H 0.37516 0.61968 0.19408 0.0
C128 C 0.39105 0.60429 0.23103 0.0
H129 H 0.38864 0.68166 0.26432 0.0
C130 C 0.39931 0.61087 0.25866 0.0
H131 H 0.40567 0.59378 0.27045 0.0
H132 H 0.39165 0.58269 0.22175 0.0
H133 H 0.14969 0.45943 0.67229 0.0
C134 C 0.13702 0.44607 0.65547 0.0
C135 C 0.15078 0.44223 0.631 0.0
C136 C 0.10774 0.4314 0.65872 0.0
H137 H 0.14587 0.42042 0.59081 0.0
C138 C 0.13524 0.42334 0.60969 0.0
C139 C 0.1064 0.40775 0.61265 0.0
C140 C 0.09258 0.4128 0.63678 0.0
C141 C 0.09341 0.43398 0.68533 0.0
H142 H 0.07016 0.40126 0.63876 0.0
C143 C 0.1021 0.45979 0.70305 0.0
C144 C 0.08869 0.46168 0.72808 0.0
C145 C 0.07116 0.41014 0.6936 0.0
H146 H 0.06461 0.38924 0.68161 0.0
C147 C 0.05728 0.41248 0.71803 0.0
H148 H 0.11908 0.47858 0.69757 0.0
C149 C 0.06588 0.43811 0.73516 0.0
H150 H 0.05539 0.43909 0.75445 0.0
H151 H 0.04018 0.39405 0.72398 0.0
O152 O 0.01198 0.0576 0.59529 0.0
Mg153 Mg 0.04162 0.08289 0.56899 0.0
O154 O 0.98162 0.03205 0.56242 0.0
Mg155 Mg 0.99985 0.04967 0.51901 0.0
O156 O 0.02114 0.09687 0.53676 0.0
O157 O 0.04859 0.12854 0.56805 0.0
O158 O 0.02043 0.06785 0.4764 0.0
O159 O 0.9586 0.07081 0.51339 0.0
Mg160 Mg 0.96277 0.02452 0.47213 0.0
O161 O 0.97784 1.00031 0.50159 0.0
O162 O 0.99125 0.04371 0.44265 0.0
O163 O 0.9296 0.04541 0.4802 0.0
O164 O 0.94726 0.98048 0.46579 0.0
C165 C 0.06717 0.03983 0.5375 0.0
C166 C 0.98933 0.03775 0.58791 0.0
C167 C 0.0326 0.1241 0.54571 0.0
C168 C 0.01422 0.06251 0.45066 0.0
C169 C 0.93497 0.0659 0.49877 0.0
C170 C 0.96242 0.97707 0.48732 0.0
O171 O 0.07328 0.06259 0.55389 0.0
O172 O 0.04195 0.03073 0.52567 0.0
O173 O 0.462 0.11389 0.08707 0.0
Mg174 Mg 0.50781 0.12454 0.08454 0.0
O175 O 0.45367 0.06586 0.0726 0.0
Mg176 Mg 0.49881 0.05514 0.05955 0.0
O177 O 0.51694 0.10315 0.05008 0.0
O178 O 0.52874 0.15254 0.05512 0.0
O179 O 0.54384 0.04479 0.04613 0.0
O180 O 0.48036 0.04803 0.01327 0.0
Mg181 Mg 0.48998 0.98623 0.03534 0.0
O182 O 0.48045 0.00695 0.0699 0.0
O183 O 0.53586 0.99612 0.03435 0.0
O184 O 0.4676 0.99922 1.00182 0.0
O185 O 0.46862 0.9575 0.06369 0.0
C186 C 0.53004 0.08411 0.12243 0.0
C187 C 0.44467 0.0886 0.08166 0.0
C188 C 0.52834 0.12864 0.0403 0.0
C189 C 0.55309 0.02173 0.03843 0.0
C190 C 0.46888 0.02622 0.99628 0.0
C191 C 0.46937 0.98102 0.07919 0.0
O192 O 0.53105 0.11117 0.11725 0.0
O193 O 0.51807 0.06235 0.10555 0.0
O194 O 0.52348 0.64997 0.6212 0.0
Mg195 Mg 0.51178 0.60657 0.63567 0.0
O196 O 0.51397 0.63395 0.57759 0.0
Mg197 Mg 0.51819 0.58381 0.57171 0.0
O198 O 0.53521 0.58261 0.6146 0.0
O199 O 0.54169 0.59012 0.65936 0.0
O200 O 0.52299 0.53381 0.5644 0.0
O201 O 0.56592 0.60114 0.5603 0.0
Mg202 Mg 0.52807 0.56769 0.50604 0.0
O203 O 0.50178 0.58623 0.52886 0.0
O204 O 0.52218 0.52356 0.51925 0.0
O205 O 0.57002 0.59572 0.51511 0.0
O206 O 0.49607 0.58266 0.4839 0.0
C207 C 0.4557 0.56944 0.60516 0.0
C208 C 0.51897 0.655 0.59631 0.0
C209 C 0.54865 0.57857 0.63686 0.0
C210 C 0.5229 0.51554 0.54382 0.0
C211 C 0.58084 0.60498 0.53889 0.0
C212 C 0.48831 0.59166 0.50715 0.0
O213 O 0.46745 0.58384 0.62699 0.0
O214 O 0.47029 0.56648 0.58407 0.0
O215 O 0.05616 0.5483 0.06349 0.0
Mg216 Mg 0.05199 0.59294 0.07028 0.0
O217 O 0.03085 0.54022 0.02371 0.0
Mg218 Mg 0.01689 0.58585 0.01381 0.0
O219 O 0.01176 0.59743 0.05914 0.0
O220 O 0.02961 0.60417 0.1024 0.0
O221 O 1.00272 0.63093 1.00323 0.0
O222 O 0.96818 0.5594 0.01454 0.0
Mg223 Mg 0.98235 0.57922 0.95311 0.0
O224 O 0.02081 0.57475 0.96921 0.0
O225 O 0.98119 0.62476 0.96136 0.0
O226 O 0.95056 0.54725 0.97171 0.0
O227 O 0.01006 0.56673 0.92488 0.0
C228 C 0.08523 0.62816 0.02855 0.0
C229 C 0.04539 0.53117 0.04293 0.0
C230 C 0.00874 0.60398 0.08473 0.0
C231 C 0.99024 0.64085 0.98303 0.0
C232 C 0.94817 0.54546 0.99742 0.0
C233 C 0.0284 0.56804 0.94519 0.0
O234 O 0.08248 0.62731 0.05417 0.0
O235 O 0.06583 0.61239 0.01186 0.0
C236 C 0.10769 0.15745 0.2325 0.0
C237 C 0.13703 0.15916 0.22721 0.0
C238 C 0.09614 0.14691 0.25732 0.0
C239 C 0.11724 0.13523 0.32952 0.0
H240 H 0.03868 0.08641 0.32953 0.0
C241 C 0.06203 0.08118 0.42787 0.0
C242 C 0.03204 0.07909 0.42922 0.0
C243 C 0.07683 0.09182 0.40428 0.0
C244 C 0.06054 0.10037 0.33007 0.0
H245 H 0.17716 0.15102 0.24432 0.0
H246 H 0.15689 0.13218 0.28731 0.0
H247 H 0.05997 0.102 0.28634 0.0
H248 H 0.99455 0.08833 0.40794 0.0
H249 H 0.02018 0.10784 0.36784 0.0
H250 H 0.11759 0.13359 0.37346 0.0
C251 C 0.14284 0.13924 0.27231 0.0
C252 C 0.0728 0.10931 0.30515 0.0
C253 C 0.15438 0.14968 0.24742 0.0
C254 C 0.01763 0.08945 0.40739 0.0
C255 C 0.03231 0.10032 0.3842 0.0
C256 C 0.10489 0.12631 0.35458 0.0
C257 C 0.11357 0.13783 0.27771 0.0
C258 C 0.10119 0.1272 0.30445 0.0
C259 C 0.06188 0.1007 0.38175 0.0
C260 C 0.07615 0.10913 0.35524 0.0
H261 H 0.09361 0.16439 0.21744 0.0
H262 H 0.07359 0.14648 0.26074 0.0
H263 H 0.13911 0.14915 0.32988 0.0
H264 H 0.07363 0.07305 0.44427 0.0
H265 H 0.0996 0.0918 0.4032 0.0
C266 C 0.38582 0.94963 0.76281 0.0
C267 C 0.40767 0.95194 0.74364 0.0
C268 C 0.39224 0.96212 0.78943 0.0
C269 C 0.44573 0.01741 0.83309 0.0
H270 H 0.4117 0.96763 0.89143 0.0
C271 C 0.48012 0.04231 0.949 0.0
C272 C 0.45935 0.03133 0.96825 0.0
C273 C 0.47309 0.03735 0.92081 0.0
C274 C 0.42095 0.98222 0.87548 0.0
H275 H 0.45347 0.96962 0.73753 0.0
H276 H 0.46478 0.99136 0.78434 0.0
H277 H 0.40166 0.94923 0.84415 0.0
H278 H 0.4146 0.00871 0.97345 0.0
H279 H 0.4017 0.00178 0.92454 0.0
H280 H 0.46509 0.05045 0.86465 0.0
C281 C 0.44258 0.98004 0.77853 0.0
C282 C 0.41529 0.97151 0.84827 0.0
C283 C 0.43615 0.96738 0.7518 0.0
C284 C 0.43088 0.01767 0.95897 0.0
C285 C 0.42371 0.01321 0.93091 0.0
C286 C 0.45129 0.02828 0.86046 0.0
C287 C 0.42072 0.97725 0.79775 0.0
C288 C 0.42746 0.98896 0.82669 0.0
C289 C 0.44508 0.0215 0.91144 0.0
C290 C 0.43881 0.01087 0.88206 0.0
H291 H 0.36374 0.93748 0.7575 0.0
H292 H 0.37482 0.95979 0.8036 0.0
H293 H 0.45533 0.03148 0.81692 0.0
H294 H 0.50241 0.05229 0.95571 0.0
H295 H 0.49019 0.044 0.90655 0.0
C296 C 0.57143 0.49259 0.81515 0.0
C297 C 0.58192 0.47023 0.82819 0.0
C298 C 0.57606 0.49734 0.78745 0.0
C299 C 0.62104 0.49529 0.73149 0.0
H300 H 0.54957 0.48357 0.68725 0.0
C301 C 0.59505 0.57048 0.65468 0.0
C302 C 0.56994 0.56015 0.63787 0.0
C303 C 0.60802 0.5501 0.66753 0.0
C304 C 0.56994 0.48602 0.69882 0.0
H305 H 0.60604 0.43571 0.82217 0.0
H306 H 0.61504 0.44515 0.77405 0.0
H307 H 0.54782 0.46868 0.73433 0.0
H308 H 0.54192 0.52133 0.6168 0.0
H309 H 0.56462 0.48547 0.63925 0.0
H310 H 0.64294 0.51505 0.69655 0.0
C311 C 0.60315 0.4587 0.78546 0.0
C312 C 0.56877 0.4779 0.72597 0.0
C313 C 0.5981 0.45354 0.81305 0.0
C314 C 0.56124 0.52969 0.62986 0.0
C315 C 0.57419 0.50918 0.64284 0.0
C316 C 0.62223 0.50384 0.70426 0.0
C317 C 0.59163 0.48017 0.77241 0.0
C318 C 0.5941 0.48367 0.74275 0.0
C319 C 0.59544 0.51924 0.66408 0.0
C320 C 0.59647 0.50062 0.68807 0.0
H321 H 0.5594 0.50624 0.82623 0.0
H322 H 0.5672 0.51422 0.77763 0.0
H323 H 0.64084 0.4997 0.74423 0.0
H324 H 0.60225 0.59406 0.66075 0.0
H325 H 0.6247 0.55873 0.68338 0.0
C326 C 0.89217 0.63082 0.28952 0.0
C327 C 0.8752 0.60307 0.29683 0.0
C328 C 0.9045 0.63376 0.26388 0.0
C329 C 0.89278 0.59858 0.19436 0.0
H330 H 0.97088 0.64449 0.18349 0.0
C331 C 0.9593 0.58588 0.10057 0.0
C332 C 0.98201 0.61011 0.09483 0.0
C333 C 0.9404 0.58905 0.12124 0.0
C334 C 0.94872 0.63222 0.18602 0.0
H335 H 0.85975 0.55619 0.28409 0.0
H336 H 0.88155 0.56124 0.23941 0.0
H337 H 0.95275 0.64066 0.2295 0.0
H338 H 1.00094 0.65729 0.10309 0.0
H339 H 0.9671 0.66335 0.13828 0.0
H340 H 0.88903 0.58958 0.15088 0.0
C341 C 0.88461 0.58088 0.25316 0.0
C342 C 0.93847 0.62984 0.21247 0.0
C343 C 0.87231 0.57795 0.27876 0.0
C344 C 0.98332 0.63841 0.10718 0.0
C345 C 0.96426 0.64171 0.12758 0.0
C346 C 0.90302 0.60101 0.16785 0.0
C347 C 0.90005 0.60899 0.24514 0.0
C348 C 0.91058 0.61258 0.21696 0.0
C349 C 0.9441 0.61655 0.13623 0.0
C350 C 0.93127 0.6175 0.16344 0.0
H351 H 0.89457 0.6506 0.30297 0.0
H352 H 0.91632 0.6557 0.25825 0.0
H353 H 0.87094 0.58561 0.19718 0.0
H354 H 0.95831 0.56376 0.09148 0.0
H355 H 0.92509 0.56922 0.12736 0.0
C356 C 0.23123 0.15596 0.17332 0.0
C357 C 0.21123 0.16436 0.15509 0.0
C358 C 0.25488 0.14579 0.16367 0.0
C359 C 0.28319 0.11299 0.10276 0.0
H360 H 0.35684 0.14045 0.14332 0.0
C361 C 0.39355 0.08953 0.06722 0.0
C362 C 0.41383 0.08633 0.08784 0.0
C363 C 0.367 0.09613 0.07408 0.0
C364 C 0.33639 0.13207 0.13193 0.0
H365 H 0.20072 0.16854 0.11216 0.0
H366 H 0.24224 0.15063 0.09517 0.0
H367 H 0.3151 0.15872 0.15713 0.0
H368 H 0.42192 0.08647 0.13163 0.0
H369 H 0.37552 0.09673 0.14367 0.0
H370 H 0.30477 0.08627 0.07751 0.0
C371 C 0.23937 0.15182 0.11705 0.0
C372 C 0.31236 0.14271 0.13984 0.0
C373 C 0.2157 0.16232 0.12678 0.0
C374 C 0.40648 0.08833 0.11532 0.0
C375 C 0.38003 0.09475 0.12219 0.0
C376 C 0.30736 0.10222 0.09482 0.0
C377 C 0.25942 0.14358 0.13542 0.0
C378 C 0.28528 0.13312 0.12563 0.0
C379 C 0.36034 0.09993 0.10174 0.0
C380 C 0.33427 0.11134 0.10954 0.0
H381 H 0.22882 0.15758 0.19526 0.0
H382 H 0.26955 0.13938 0.17848 0.0
H383 H 0.26267 0.10495 0.09139 0.0
H384 H 0.39901 0.08887 0.04587 0.0
H385 H 0.35255 0.10004 0.05773 0.0
C386 C 0.24595 0.9438 0.64895 0.0
C387 C 0.27389 0.94584 0.63928 0.0
C388 C 0.22623 0.95657 0.63482 0.0
C389 C 0.2124 0.00922 0.58686 0.0
H390 H 0.1467 0.94536 0.56133 0.0
C391 C 0.11701 0.03696 0.52688 0.0
C392 C 0.08943 0.02256 0.53528 0.0
C393 C 0.14132 0.02613 0.53401 0.0
C394 C 0.1647 0.96354 0.5684 0.0
H395 H 0.30418 0.9652 0.60893 0.0
H396 H 0.26952 0.98844 0.58437 0.0
H397 H 0.18665 0.93359 0.5879 0.0
H398 H 0.0651 0.98496 0.55648 0.0
H399 H 0.10735 0.96621 0.56955 0.0
H400 H 0.18991 0.03949 0.5689 0.0
C401 C 0.26299 0.97658 0.60274 0.0
C402 C 0.18762 0.95674 0.58351 0.0
C403 C 0.28279 0.96351 0.61683 0.0
C404 C 0.0861 0.99592 0.54915 0.0
C405 C 0.11047 0.98535 0.55676 0.0
C406 C 0.18918 0.01615 0.57213 0.0
C407 C 0.23418 0.97189 0.61094 0.0
C408 C 0.21139 0.97954 0.59323 0.0
C409 C 0.13857 0.00111 0.55033 0.0
C410 C 0.16477 0.99341 0.56307 0.0
H411 H 0.2387 0.93045 0.66633 0.0
H412 H 0.20423 0.95308 0.6417 0.0
H413 H 0.23055 0.02712 0.59424 0.0
H414 H 0.12005 0.05784 0.5165 0.0
H415 H 0.16244 0.03838 0.52802 0.0
C416 C 0.69032 0.47216 0.96064 0.0
C417 C 0.68446 0.44535 0.94444 0.0
C418 C 0.71841 0.48434 0.97171 0.0
C419 C 0.78402 0.45961 0.99186 0.0
H420 H 0.82426 0.54328 0.99083 0.0
C421 C 0.90685 0.50138 0.99464 0.0
C422 C 0.91984 0.52967 0.0067 0.0
C423 C 0.87693 0.49021 0.99523 0.0
C424 C 0.81302 0.51997 0.99193 0.0
H425 H 0.7036 0.41181 0.92499 0.0
H426 H 0.75243 0.43302 0.94415 0.0
H427 H 0.77408 0.52728 0.97272 0.0
H428 H 0.91254 0.56768 0.03058 0.0
H429 H 0.85977 0.54816 0.03149 0.0
H430 H 0.82316 0.45204 0.01012 0.0
C431 C 0.7353 0.44415 0.94904 0.0
C432 C 0.78439 0.51082 0.98139 0.0
C433 C 0.70741 0.43208 0.938 0.0
C434 C 0.90292 0.54557 0.02148 0.0
C435 C 0.87278 0.5346 0.02169 0.0
C436 C 0.81254 0.46873 1.0024 0.0
C437 C 0.7409 0.46982 0.96672 0.0
C438 C 0.76996 0.4804 0.98051 0.0
C439 C 0.85943 0.50742 0.00751 0.0
C440 C 0.82762 0.49884 1.00182 0.0
H441 H 0.67297 0.48283 0.96584 0.0
H442 H 0.72224 0.5043 0.98513 0.0
H443 H 0.77315 0.4361 0.99201 0.0
H444 H 0.91955 0.48899 0.98287 0.0
H445 H 0.86732 0.46931 0.98395 0.0
C446 C 0.82839 0.66248 0.477 0.0
C447 C 0.83669 0.63668 0.46705 0.0
C448 C 0.80393 0.66001 0.49251 0.0
C449 C 0.75202 0.62545 0.53604 0.0
H450 H 0.69224 0.63536 0.48347 0.0
C451 C 0.62923 0.60157 0.55701 0.0
C452 C 0.61224 0.61686 0.54169 0.0
C453 C 0.65912 0.60707 0.55353 0.0
C454 C 0.70871 0.63315 0.49861 0.0
H455 H 0.82697 0.58817 0.46734 0.0
H456 H 0.78357 0.58396 0.49455 0.0
H457 H 0.74077 0.6365 0.46832 0.0
H458 H 0.61277 0.65184 0.51321 0.0
H459 H 0.66525 0.6631 0.50851 0.0
H460 H 0.72009 0.62268 0.56655 0.0
C461 C 0.79648 0.60597 0.49034 0.0
C462 C 0.73633 0.63334 0.48978 0.0
C463 C 0.8211 0.6084 0.4747 0.0
C464 C 0.62564 0.63975 0.52505 0.0
C465 C 0.65556 0.64584 0.52216 0.0
C466 C 0.72427 0.6255 0.54504 0.0
C467 C 0.78735 0.63177 0.4985 0.0
C468 C 0.75809 0.62952 0.50839 0.0
C469 C 0.67236 0.62831 0.53502 0.0
C470 C 0.70235 0.62954 0.52639 0.0
H471 H 0.83935 0.68458 0.47099 0.0
H472 H 0.7968 0.68008 0.49826 0.0
H473 H 0.7688 0.62271 0.55063 0.0
H474 H 0.61908 0.58359 0.56979 0.0
H475 H 0.67133 0.59311 0.56372 0.0
C476 C 0.09817 0.2978 0.1195 0.0
C477 C 0.12821 0.29944 0.12047 0.0
C478 C 0.08668 0.31849 0.10473 0.0
C479 C 0.11092 0.39684 0.08745 0.0
H480 H 0.03994 0.38575 0.0426 0.0
C481 C 0.08093 0.4991 0.04187 0.0
C482 C 0.05182 0.50104 0.04149 0.0
C483 C 0.08851 0.47203 0.0468 0.0
C484 C 0.0597 0.38931 0.0553 0.0
H485 H 0.16939 0.32276 0.10544 0.0
H486 H 0.14953 0.35835 0.07949 0.0
H487 H 0.05566 0.34189 0.0591 0.0
H488 H 0.00761 0.47586 0.04531 0.0
H489 H 0.02076 0.42837 0.05457 0.0
H490 H 0.11475 0.4438 0.08499 0.0
C491 C 0.13476 0.3413 0.09017 0.0
C492 C 0.06874 0.3641 0.06467 0.0
C493 C 0.14612 0.32063 0.10471 0.0
C494 C 0.03021 0.47487 0.04501 0.0
C495 C 0.03783 0.44767 0.05041 0.0
C496 C 0.1018 0.42183 0.07846 0.0
C497 C 0.10513 0.34144 0.091 0.0
C498 C 0.09472 0.3676 0.08061 0.0
C499 C 0.06725 0.4461 0.05232 0.0
C500 C 0.07626 0.41865 0.06191 0.0
H501 H 0.08395 0.28215 0.13194 0.0
H502 H 0.06378 0.31795 0.10585 0.0
H503 H 0.13058 0.4005 0.10033 0.0
H504 H 0.09805 0.51895 0.03938 0.0
H505 H 0.1113 0.47178 0.04713 0.0
C506 C 0.61108 0.33831 0.96015 0.0
C507 C 0.60953 0.34999 0.93424 0.0
C508 C 0.60639 0.3075 0.96279 0.0
C509 C 0.57419 0.2344 0.9273 0.0
H510 H 0.61483 0.208 0.98813 0.0
C511 C 0.5219 0.14204 0.993 0.0
C512 C 0.53893 0.13175 0.01261 0.0
C513 C 0.53505 0.15935 0.97203 0.0
C514 C 0.60378 0.21443 0.97043 0.0
H515 H 0.60189 0.33918 0.89073 0.0
H516 H 0.59423 0.28497 0.89517 0.0
H517 H 0.62962 0.25917 0.97491 0.0
H518 H 0.58208 0.12712 0.02382 0.0
H519 H 0.60517 0.1561 0.98626 0.0
H520 H 0.54837 0.18948 0.92282 0.0
C521 C 0.59854 0.29952 0.91353 0.0
C522 C 0.61191 0.24418 0.96325 0.0
C523 C 0.60282 0.33045 0.91095 0.0
C524 C 0.5686 0.13487 0.00872 0.0
C525 C 0.5818 0.15188 0.98746 0.0
C526 C 0.56637 0.20438 0.93417 0.0
C527 C 0.60063 0.28771 0.93948 0.0
C528 C 0.59607 0.25494 0.94276 0.0
C529 C 0.5655 0.16663 0.97049 0.0
C530 C 0.57984 0.19447 0.95697 0.0
H531 H 0.6161 0.35309 0.97835 0.0
H532 H 0.60722 0.29922 0.98319 0.0
H533 H 0.56173 0.2418 0.91114 0.0
H534 H 0.49895 0.13999 0.99589 0.0
H535 H 0.52154 0.17002 0.95945 0.0
C536 C 0.93814 0.71169 0.44305 0.0
C537 C 0.91508 0.70459 0.42333 0.0
C538 C 0.95083 0.74155 0.4509 0.0
C539 C 0.95323 0.82066 0.43459 0.0
H540 H 0.95851 0.83396 0.51377 0.0
C541 C 0.93598 0.92471 0.49211 0.0
C542 C 0.96252 0.94619 0.49395 0.0
C543 C 0.93543 0.89437 0.48839 0.0
C544 C 0.95761 0.83046 0.49168 0.0
H545 H 0.8884 0.7229 0.39507 0.0
H546 H 0.9104 0.77503 0.4087 0.0
H547 H 0.9493 0.7828 0.49368 0.0
H548 H 0.0093 0.95294 0.49558 0.0
H549 H 0.00831 0.89931 0.48879 0.0
H550 H 0.96006 0.86835 0.43284 0.0
C551 C 0.91908 0.75771 0.41792 0.0
C552 C 0.95246 0.80128 0.4801 0.0
C553 C 0.90654 0.72783 0.40994 0.0
C554 C 0.98861 0.93669 0.49465 0.0
C555 C 0.98806 0.90617 0.49058 0.0
C556 C 0.95842 0.84975 0.44618 0.0
C557 C 0.94052 0.76485 0.43932 0.0
C558 C 0.94968 0.79599 0.4514 0.0
C559 C 0.96143 0.8851 0.48628 0.0
C560 C 0.96025 0.85477 0.47475 0.0
H561 H 0.94494 0.69408 0.45374 0.0
H562 H 0.96771 0.74631 0.46701 0.0
H563 H 0.95138 0.81744 0.41247 0.0
H564 H 0.91561 0.93162 0.49126 0.0
H565 H 0.91471 0.87841 0.48496 0.0
C566 C 0.40771 0.85104 0.66109 0.0
C567 C 0.42494 0.87928 0.66993 0.0
C568 C 0.42016 0.82884 0.65022 0.0
C569 C 0.48737 0.81627 0.61984 0.0
H570 H 0.44977 0.73336 0.63119 0.0
C571 C 0.53345 0.71025 0.60295 0.0
C572 C 0.51417 0.68474 0.59086 0.0
C573 C 0.52461 0.73699 0.60698 0.0
C574 C 0.46022 0.75641 0.62751 0.0
H575 H 0.4691 0.90571 0.67568 0.0
H576 H 0.49134 0.86609 0.65756 0.0
H577 H 0.43178 0.77314 0.65347 0.0
H578 H 0.47143 0.66752 0.57166 0.0
H579 H 0.45563 0.71421 0.57932 0.0
H580 H 0.51689 0.79886 0.595 0.0
C581 C 0.46791 0.86168 0.65817 0.0
C582 C 0.44995 0.7793 0.64029 0.0
C583 C 0.45527 0.88426 0.66884 0.0
C584 C 0.48682 0.68706 0.58061 0.0
C585 C 0.47771 0.71362 0.58524 0.0
C586 C 0.49806 0.79321 0.60747 0.0
C587 C 0.45041 0.83374 0.6485 0.0
C588 C 0.46307 0.80959 0.63635 0.0
C589 C 0.49612 0.73833 0.59957 0.0
C590 C 0.48429 0.76311 0.61094 0.0
H591 H 0.3843 0.84605 0.66229 0.0
H592 H 0.40581 0.80796 0.64268 0.0
H593 H 0.49787 0.83926 0.61609 0.0
H594 H 0.55451 0.70877 0.6113 0.0
H595 H 0.53912 0.75567 0.61818 0.0
C596 C 0.90447 0.9148 0.80132 0.0
C597 C 0.89949 0.93547 0.82147 0.0
C598 C 0.91192 0.92374 0.77485 0.0
C599 C 0.913 0.98644 0.72709 0.0
H600 H 0.96344 0.94672 0.68672 0.0
C601 C 0.94504 0.01704 0.61525 0.0
C602 C 0.97443 0.01936 0.60994 0.0
C603 C 0.93342 0.00429 0.63949 0.0
C604 C 0.94943 0.95825 0.69766 0.0
H605 H 0.89905 0.98198 0.82965 0.0
H606 H 0.91327 0.99797 0.78392 0.0
H607 H 0.9502 0.93163 0.73248 0.0
H608 H 0.01429 0.00928 0.6252 0.0
H609 H 0.99436 0.98708 0.66675 0.0
H610 H 0.91355 0.01409 0.69256 0.0
C611 C 0.91051 0.97455 0.78816 0.0
C612 C 0.94145 0.94925 0.72398 0.0
C613 C 0.90259 0.96546 0.81455 0.0
C614 C 0.99149 0.00759 0.62864 0.0
C615 C 0.97995 0.99472 0.65252 0.0
C616 C 0.92122 0.99563 0.70078 0.0
C617 C 0.9151 0.95378 0.76774 0.0
C618 C 0.92323 0.96328 0.73929 0.0
C619 C 0.9509 0.99335 0.65872 0.0
C620 C 0.93983 0.98189 0.68574 0.0
H621 H 0.90175 0.89142 0.80579 0.0
H622 H 0.91458 0.90679 0.75982 0.0
H623 H 0.89855 0.99757 0.73781 0.0
H624 H 0.9315 0.02634 0.60141 0.0
H625 H 0.91088 0.00342 0.64337 0.0
C626 C 0.60457 0.14422 0.36158 0.0
C627 C 0.63423 0.15854 0.36488 0.0
C628 C 0.59267 0.13144 0.33609 0.0
C629 C 0.61331 0.10405 0.2687 0.0
H630 H 0.53727 0.11266 0.24394 0.0
C631 C 0.57192 0.09078 0.15553 0.0
C632 C 0.54229 0.07882 0.14933 0.0
C633 C 0.5827 0.09427 0.18272 0.0
C634 C 0.5583 0.10952 0.25073 0.0
H635 H 0.67443 0.17111 0.34362 0.0
H636 H 0.65367 0.14906 0.29916 0.0
H637 H 0.55687 0.13276 0.28928 0.0
H638 H 0.50071 0.06027 0.16635 0.0
H639 H 0.51951 0.06633 0.21417 0.0
H640 H 0.61501 0.08158 0.22973 0.0
C641 C 0.63969 0.14718 0.31643 0.0
C642 C 0.5696 0.12114 0.27676 0.0
C643 C 0.6516 0.15995 0.34193 0.0
C644 C 0.52378 0.06892 0.17065 0.0
C645 C 0.53449 0.07281 0.19798 0.0
C646 C 0.60205 0.09254 0.24263 0.0
C647 C 0.61008 0.13261 0.31318 0.0
C648 C 0.59743 0.11892 0.28597 0.0
C649 C 0.56392 0.08645 0.20435 0.0
C650 C 0.57455 0.09546 0.23318 0.0
H651 H 0.59064 0.14218 0.37889 0.0
H652 H 0.56989 0.12008 0.33449 0.0
H653 H 0.63455 0.10135 0.27529 0.0
H654 H 0.58643 0.09916 0.13942 0.0
H655 H 0.60539 0.10509 0.18685 0.0
C656 C 0.38843 0.65968 0.31708 0.0
C657 C 0.40542 0.645 0.30085 0.0
C658 C 0.39269 0.66216 0.34559 0.0
C659 C 0.41105 0.6182 0.39842 0.0
H660 H 0.42928 0.6882 0.44846 0.0
C661 C 0.43794 0.5962 0.50295 0.0
C662 C 0.46734 0.6104 0.50728 0.0
C663 C 0.42021 0.60904 0.48616 0.0
C664 C 0.42359 0.66846 0.43475 0.0
H665 H 0.44179 0.62375 0.30171 0.0
H666 H 0.44848 0.62719 0.35156 0.0
H667 H 0.4227 0.69426 0.39896 0.0
H668 H 0.49999 0.65124 0.50266 0.0
H669 H 0.46962 0.67326 0.47277 0.0
H670 H 0.41307 0.59225 0.43313 0.0
C671 C 0.43186 0.63665 0.34209 0.0
C672 C 0.42 0.67196 0.40654 0.0
C673 C 0.42785 0.63447 0.31363 0.0
C674 C 0.47728 0.63993 0.49939 0.0
C675 C 0.45979 0.65253 0.48214 0.0
C676 C 0.41423 0.61467 0.42637 0.0
C677 C 0.41376 0.64972 0.35829 0.0
C678 C 0.41468 0.64683 0.38821 0.0
C679 C 0.43223 0.63557 0.47296 0.0
C680 C 0.4214 0.63975 0.44488 0.0
H681 H 0.37082 0.66785 0.30794 0.0
H682 H 0.37844 0.67217 0.35779 0.0
H683 H 0.40661 0.5985 0.38461 0.0
H684 H 0.42986 0.5734 0.50899 0.0
H685 H 0.39863 0.59597 0.48017 0.0
C686 C 0.1281 0.49218 0.75934 0.0
C687 C 0.0996 0.48694 0.74815 0.0
C688 C 0.13645 0.51106 0.78279 0.0
C689 C 0.1138 0.56602 0.8296 0.0
H690 H 0.13159 0.51685 0.88758 0.0
C691 C 0.07926 0.58905 0.9344 0.0
C692 C 0.05733 0.56385 0.9397 0.0
C693 C 0.10126 0.58619 0.9168 0.0
C694 C 0.12742 0.5313 0.87167 0.0
H695 H 0.05825 0.49895 0.75095 0.0
H696 H 0.07287 0.5324 0.79148 0.0
H697 H 0.13742 0.50248 0.83988 0.0
H698 H 0.04283 0.51576 0.93417 0.0
H699 H 0.08135 0.51046 0.90412 0.0
H700 H 0.10125 0.5933 0.86106 0.0
C701 C 0.08882 0.52199 0.78234 0.0
C702 C 0.13085 0.52316 0.84434 0.0
C703 C 0.08035 0.50275 0.75925 0.0
C704 C 0.05983 0.53538 0.93056 0.0
C705 C 0.08196 0.53244 0.91329 0.0
C706 C 0.1106 0.57429 0.8569 0.0
C707 C 0.11654 0.52536 0.79501 0.0
C708 C 0.12231 0.53941 0.82303 0.0
C709 C 0.10146 0.55807 0.9045 0.0
C710 C 0.11556 0.5559 0.87808 0.0
H711 H 0.14321 0.48 0.75117 0.0
H712 H 0.15791 0.51329 0.79218 0.0
H713 H 0.10734 0.57907 0.81355 0.0
H714 H 0.07742 0.61126 0.94108 0.0
H715 H 0.11619 0.60626 0.91059 0.0
C716 C 0.77038 0.98608 0.92682 0.0
C717 C 0.77423 0.95783 0.93379 0.0
C718 C 0.75264 1.00046 0.94227 0.0
C719 C 0.7111 0.99636 0.00701 0.0
H720 H 0.65752 0.02902 0.96278 0.0
C721 C 0.59645 0.99981 0.04032 0.0
C722 C 0.58425 0.02379 0.03336 0.0
C723 C 0.62391 0.9982 0.03171 0.0
C724 C 0.6726 0.02055 0.97559 0.0
H725 H 0.76337 0.92292 0.96273 0.0
H726 H 0.73277 0.94781 0.9898 0.0
H727 H 0.69841 0.01467 0.94155 0.0
H728 H 0.59176 0.06545 0.01247 0.0
H729 H 0.63998 0.0625 0.99692 0.0
H730 H 0.68443 0.00104 0.04078 0.0
C731 C 0.74367 0.95936 0.97279 0.0
C732 C 0.69619 0.0123 0.96339 0.0
C733 C 0.76135 0.94503 0.95734 0.0
C734 C 0.60073 0.04687 0.0184 0.0
C735 C 0.62819 0.04499 0.00928 0.0
C736 C 0.68744 0.00445 0.01915 0.0
C737 C 0.73818 0.98681 0.96494 0.0
C738 C 0.71544 0.99939 0.97876 0.0
C739 C 0.6399 0.02031 0.01545 0.0
C740 C 0.66745 0.01599 1.00348 0.0
H741 H 0.77956 0.99612 0.90841 0.0
H742 H 0.74937 0.02176 0.93577 0.0
H743 H 0.72569 0.98712 0.01972 0.0
H744 H 0.58425 0.98162 0.05175 0.0
H745 H 0.63195 0.97873 0.03665 0.0
C746 C 0.73681 0.17051 0.42133 0.0
C747 C 0.71295 0.16747 0.43823 0.0
C748 C 0.76206 0.16231 0.43032 0.0
C749 C 0.8019 0.14608 0.49262 0.0
H750 H 0.83986 0.10485 0.43973 0.0
C751 C 0.8935 0.08363 0.51829 0.0
C752 C 0.91559 0.08658 0.49945 0.0
C753 C 0.87 0.09686 0.51354 0.0
C754 C 0.82973 0.11667 0.45469 0.0
H755 H 0.69698 0.15324 0.47787 0.0
H756 H 0.74099 0.1389 0.4935 0.0
H757 H 0.79619 0.12051 0.42574 0.0
H758 H 0.93148 0.10642 0.46177 0.0
H759 H 0.89099 0.12987 0.45371 0.0
H760 H 0.83545 0.14155 0.5217 0.0
C761 C 0.74037 0.14811 0.47346 0.0
C762 C 0.80468 0.1257 0.44665 0.0
C763 C 0.71512 0.15636 0.46448 0.0
C764 C 0.91485 0.10429 0.47679 0.0
C765 C 0.89149 0.11734 0.472 0.0
C766 C 0.82698 0.13685 0.50073 0.0
C767 C 0.76409 0.15074 0.4564 0.0
C768 C 0.79056 0.14079 0.46539 0.0
C769 C 0.86824 0.1128 0.4897 0.0
C770 C 0.84134 0.12235 0.48174 0.0
H771 H 0.73601 0.17937 0.40115 0.0
H772 H 0.78009 0.16518 0.41681 0.0
H773 H 0.7917 0.15782 0.50756 0.0
H774 H 0.89337 0.06947 0.53554 0.0
H775 H 0.85235 0.09292 0.52749 0.0
C776 C 0.28843 0.69643 0.15839 0.0
C777 C 0.30804 0.67783 0.16032 0.0
C778 C 0.2668 0.69117 0.13759 0.0
C779 C 0.2251 0.63551 0.08707 0.0
H780 H 0.2174 0.70588 0.04864 0.0
C781 C 0.13179 0.62341 0.01077 0.0
C782 C 0.11428 0.64229 0.01982 0.0
C783 C 0.16138 0.63034 0.01838 0.0
C784 C 0.21944 0.68599 0.05899 0.0
H785 H 0.31908 0.63787 0.14328 0.0
H786 H 0.28073 0.62831 0.10706 0.0
H787 H 0.25476 0.71048 0.08516 0.0
H788 H 0.1143 0.6855 0.03886 0.0
H789 H 0.16566 0.69804 0.05155 0.0
H790 H 0.18894 0.61122 0.062 0.0
C791 C 0.28241 0.64717 0.1215 0.0
C792 C 0.24065 0.68865 0.08004 0.0
C793 C 0.30423 0.65253 0.14229 0.0
C794 C 0.1275 0.67065 0.03167 0.0
C795 C 0.15701 0.67767 0.03916 0.0
C796 C 0.20377 0.63286 0.06613 0.0
C797 C 0.26419 0.66708 0.1184 0.0
C798 C 0.24319 0.66358 0.09472 0.0
C799 C 0.1736 0.65636 0.03477 0.0
C800 C 0.20021 0.65821 0.05229 0.0
H801 H 0.29048 0.71571 0.17241 0.0
H802 H 0.25247 0.70635 0.13617 0.0
H803 H 0.22651 0.61586 0.09813 0.0
H804 H 0.122 0.60137 1.0016 0.0
H805 H 0.17388 0.61388 0.01403 0.0
C806 C 0.20056 0.43945 0.61742 0.0
C807 C 0.18196 0.45642 0.62805 0.0
C808 C 0.22971 0.45272 0.61365 0.0
C809 C 0.28869 0.51707 0.63638 0.0
H810 H 0.32441 0.49688 0.57016 0.0
C811 C 0.40636 0.57505 0.61577 0.0
C812 C 0.42396 0.55767 0.60408 0.0
C813 C 0.37642 0.5639 0.61646 0.0
C814 C 0.31491 0.50252 0.58891 0.0
H815 H 0.17933 0.50052 0.64337 0.0
H816 H 0.23048 0.5239 0.63671 0.0
H817 H 0.27305 0.47528 0.57633 0.0
H818 H 0.42423 0.51533 0.5833 0.0
H819 H 0.37181 0.49497 0.58566 0.0
H820 H 0.33047 0.54366 0.64939 0.0
C821 C 0.22248 0.50023 0.63146 0.0
C822 C 0.28543 0.49019 0.59241 0.0
C823 C 0.19324 0.48689 0.63529 0.0
C824 C 0.41102 0.52913 0.5924 0.0
C825 C 0.381 0.51761 0.59365 0.0
C826 C 0.31818 0.5292 0.633 0.0
C827 C 0.24098 0.4833 0.62042 0.0
C828 C 0.27203 0.49723 0.61625 0.0
C829 C 0.36336 0.53474 0.60608 0.0
C830 C 0.33174 0.52208 0.60924 0.0
H831 H 0.19259 0.41576 0.61217 0.0
H832 H 0.24352 0.43891 0.6057 0.0
H833 H 0.27913 0.52261 0.65514 0.0
H834 H 0.41581 0.5974 0.62441 0.0
H835 H 0.36354 0.57816 0.62536 0.0
C836 C 0.9132 0.84778 0.88528 0.0
C837 C 0.90461 0.87007 0.90129 0.0
C838 C 0.92464 0.82567 0.89753 0.0
C839 C 0.92951 0.78852 0.96371 0.0
H840 H 0.98812 0.7577 0.92635 0.0
C841 C 0.95692 0.67517 0.98821 0.0
C842 C 0.98507 0.67142 0.98416 0.0
C843 C 0.94951 0.70217 0.98229 0.0
C844 C 0.97209 0.76624 0.93739 0.0
H845 H 0.90158 0.8864 0.94302 0.0
H846 H 0.92196 0.84812 0.96445 0.0
H847 H 0.97118 0.7992 0.90778 0.0
H848 H 0.02776 0.69308 0.97128 0.0
H849 H 0.01524 0.74058 0.96152 0.0
H850 H 0.93075 0.75567 0.99353 0.0
C851 C 0.91943 0.84744 0.94232 0.0
C852 C 0.96196 0.78988 0.92643 0.0
C853 C 0.90779 0.86952 0.93002 0.0
C854 C 0.00606 0.69562 0.97514 0.0
C855 C 0.99868 0.72266 0.96913 0.0
C856 C 0.93971 0.76488 0.97474 0.0
C857 C 0.92806 0.82513 0.92625 0.0
C858 C 0.94016 0.80113 0.93913 0.0
C859 C 0.97002 0.72604 0.97178 0.0
C860 C 0.9609 0.75307 0.96156 0.0
H861 H 0.91049 0.84696 0.86315 0.0
H862 H 0.93026 0.80859 0.88436 0.0
H863 H 0.91263 0.7963 0.97411 0.0
H864 H 0.94016 0.65658 0.99452 0.0
H865 H 0.92719 0.70357 0.98437 0.0
C866 C 0.39494 0.77793 0.21647 0.0
C867 C 0.3926 0.75723 0.19415 0.0
C868 C 0.40449 0.80869 0.21256 0.0
C869 C 0.40061 0.85876 0.15792 0.0
H870 H 0.45967 0.91941 0.19791 0.0
C871 C 0.43085 0.96996 0.11246 0.0
C872 C 0.46051 0.97683 0.10741 0.0
C873 C 0.42045 0.95155 0.13384 0.0
C874 C 0.44284 0.90278 0.18679 0.0
H875 H 0.40054 0.7516 0.15113 0.0
H876 H 0.41752 0.80505 0.14435 0.0
H877 H 0.44855 0.86761 0.21278 0.0
H878 H 0.50302 0.97348 0.12225 0.0
H879 H 0.48511 0.94085 0.159 0.0
H880 H 0.39569 0.89261 0.13098 0.0
C881 C 0.41157 0.7978 0.16467 0.0
C882 C 0.43651 0.87322 0.19533 0.0
C883 C 0.40209 0.7673 0.16855 0.0
C884 C 0.48003 0.96864 0.12609 0.0
C885 C 0.46966 0.94983 0.14716 0.0
C886 C 0.40679 0.88805 0.14948 0.0
C887 C 0.4116 0.81882 0.1863 0.0
C888 C 0.41609 0.85082 0.18026 0.0
C889 C 0.43959 0.93907 0.14976 0.0
C890 C 0.42865 0.91031 0.16321 0.0
H891 H 0.38752 0.77048 0.23634 0.0
H892 H 0.40446 0.82454 0.22954 0.0
H893 H 0.38437 0.84197 0.14625 0.0
H894 H 0.41544 0.97587 0.09808 0.0
H895 H 0.39719 0.9444 0.13585 0.0
C896 C 0.0617 0.37753 0.58623 0.0
C897 C 0.09188 0.38375 0.59202 0.0
C898 C 0.04784 0.35226 0.56986 0.0
C899 C 0.06066 0.29374 0.52088 0.0
H900 H 0.00318 0.23907 0.56065 0.0
C901 C 0.05459 0.17032 0.52339 0.0
C902 C 0.02929 0.15032 0.53097 0.0
C903 C 0.05452 0.20005 0.51894 0.0
C904 C 0.01842 0.25417 0.54861 0.0
H905 H 0.13109 0.36846 0.58422 0.0
H906 H 0.10714 0.32535 0.55518 0.0
H907 H 0.01829 0.29144 0.5762 0.0
H908 H 0.98343 0.1444 0.53745 0.0
H909 H 0.98302 0.19673 0.52934 0.0
H910 H 0.0619 0.25618 0.49409 0.0
C911 C 0.09422 0.34009 0.56316 0.0
C912 C 0.02718 0.28425 0.55766 0.0
C913 C 0.10797 0.36496 0.57981 0.0
C914 C 0.00311 0.15952 0.5313 0.0
C915 C 0.00302 0.1895 0.52698 0.0
C916 C 0.05169 0.26374 0.51164 0.0
C917 C 0.06396 0.33306 0.55853 0.0
C918 C 0.04944 0.30391 0.54471 0.0
C919 C 0.02912 0.21045 0.5223 0.0
C920 C 0.03166 0.24324 0.52632 0.0
H921 H 0.04865 0.39174 0.59488 0.0
H922 H 0.02447 0.34734 0.56653 0.0
H923 H 0.07759 0.30859 0.51031 0.0
H924 H 0.07507 0.16364 0.52338 0.0
H925 H 0.07511 0.21539 0.51567 0.0
C926 C 0.6195 0.29519 0.49985 0.0
C927 C 0.60003 0.27379 0.48292 0.0
C928 C 0.61236 0.32203 0.50821 0.0
C929 C 0.54688 0.35103 0.51894 0.0
H930 H 0.60067 0.4288 0.52786 0.0
C931 C 0.5103 0.46131 0.53092 0.0
C932 C 0.52708 0.48509 0.54748 0.0
C933 C 0.519 0.43446 0.52737 0.0
C934 C 0.58551 0.40711 0.52596 0.0
H935 H 0.55866 0.26385 0.4604 0.0
H936 H 0.54647 0.31097 0.47416 0.0
H937 H 0.61766 0.38565 0.51016 0.0
H938 H 0.56566 0.4992 0.57408 0.0
H939 H 0.58091 0.45189 0.56812 0.0
H940 H 0.51467 0.37243 0.53429 0.0
C941 C 0.56698 0.30699 0.48151 0.0
C942 C 0.59522 0.38241 0.51567 0.0
C943 C 0.57408 0.28021 0.47328 0.0
C944 C 0.55194 0.48092 0.56176 0.0
C945 C 0.56092 0.45406 0.55792 0.0
C946 C 0.53722 0.37564 0.52916 0.0
C947 C 0.58552 0.32777 0.49988 0.0
C948 C 0.57587 0.35414 0.51157 0.0
C949 C 0.54498 0.43088 0.54 0.0
C950 C 0.55625 0.40409 0.53241 0.0
H951 H 0.63943 0.2904 0.50785 0.0
H952 H 0.62712 0.33745 0.5224 0.0
H953 H 0.53154 0.32946 0.51683 0.0
H954 H 0.49135 0.4642 0.5193 0.0
H955 H 0.50633 0.41726 0.51324 0.0
loop_
_geom_bond_atom_site_label_1
_geom_bond_atom_site_label_2
_geom_bond_distance
_geom_bond_site_symmetry_2
_ccdc_geom_bond_type
H0 C1 0.949 . S
C1 H0 0.949 . S
C1 C2 1.395 . S
C1 C3 1.391 . S
C2 C1 1.395 . S
C2 C5 1.390 . S
C3 C1 1.391 . S
C3 C7 1.387 . S
C3 C8 1.491 . S
H4 C5 0.950 . S
C5 C2 1.390 . S
C5 H4 0.950 . S
C5 C6 1.378 . S
C6 C5 1.378 . S
C6 C7 1.409 . S
C7 C3 1.387 . S
C7 C6 1.409 . S
C7 H9 0.951 . S
C8 C3 1.491 . S
C8 C10 1.382 . S
C8 C12 1.404 . S
H9 C7 0.951 . S
C10 C8 1.382 . S
C10 C11 1.390 . S
C10 H15 0.949 . S
C11 C10 1.390 . S
C11 C16 1.399 . S
C12 C8 1.404 . S
C12 H13 0.950 . S
C12 C14 1.375 . S
H13 C12 0.950 . S
C14 C12 1.375 . S
C14 C16 1.382 . S
C14 H18 0.950 . S
H15 C10 0.949 . S
C16 C11 1.399 . S
C16 C14 1.382 . S
C16 H17 0.952 . S
H17 C16 0.952 . S
H18 C14 0.950 . S
H19 C20 0.949 . S
C20 H19 0.949 . S
C20 C21 1.395 . S
C20 C22 1.391 . S
C21 C20 1.395 . S
C21 C24 1.390 . S
C22 C20 1.391 . S
C22 C26 1.387 . S
C22 C27 1.491 . S
H23 C24 0.950 . S
C24 C21 1.390 . S
C24 H23 0.950 . S
C24 C25 1.378 . S
C25 C24 1.378 . S
C25 C26 1.409 . S
C26 C22 1.387 . S
C26 C25 1.409 . S
C26 H28 0.951 . S
C27 C22 1.491 . S
C27 C29 1.382 . S
C27 C31 1.404 . S
H28 C26 0.951 . S
C29 C27 1.382 . S
C29 C30 1.390 . S
C29 H34 0.949 . S
C30 C29 1.390 . S
C30 C35 1.399 . S
C31 C27 1.404 . S
C31 H32 0.950 . S
C31 C33 1.375 . S
H32 C31 0.950 . S
C33 C31 1.375 . S
C33 C35 1.382 . S
C33 H37 0.950 . S
H34 C29 0.949 . S
C35 C30 1.399 . S
C35 C33 1.382 . S
C35 H36 0.952 . S
H36 C35 0.952 . S
H37 C33 0.950 . S
H38 C39 0.949 . S
C39 H38 0.949 . S
C39 C40 1.395 . S
C39 C41 1.391 . S
C40 C39 1.395 . S
C40 C43 1.390 . S
C41 C39 1.391 . S
C41 C45 1.387 . S
C41 C46 1.491 . S
H42 C43 0.950 . S
C43 C40 1.390 . S
C43 H42 0.950 . S
C43 C44 1.378 . S
C44 C43 1.378 . S
C44 C45 1.409 . S
C45 C41 1.387 . S
C45 C44 1.409 . S
C45 H47 0.951 . S
C46 C41 1.491 . S
C46 C48 1.382 . S
C46 C50 1.404 . S
H47 C45 0.951 . S
C48 C46 1.382 . S
C48 C49 1.390 . S
C48 H53 0.949 . S
C49 C48 1.390 . S
C49 C54 1.399 . S
C50 C46 1.404 . S
C50 H51 0.950 . S
C50 C52 1.375 . S
H51 C50 0.950 . S
C52 C50 1.375 . S
C52 C54 1.382 . S
C52 H56 0.950 . S
H53 C48 0.949 . S
C54 C49 1.399 . S
C54 C52 1.382 . S
C54 H55 0.952 . S
H55 C54 0.952 . S
H56 C52 0.950 . S
H57 C58 0.949 . S
C58 H57 0.949 . S
C58 C59 1.395 . S
C58 C60 1.391 . S
C59 C58 1.395 . S
C59 C62 1.390 . S
C60 C58 1.391 . S
C60 C64 1.387 . S
C60 C65 1.491 . S
H61 C62 0.950 . S
C62 C59 1.390 . S
C62 H61 0.950 . S
C62 C63 1.378 . S
C63 C62 1.378 . S
C63 C64 1.409 . S
C64 C60 1.387 . S
C64 C63 1.409 . S
C64 H66 0.951 . S
C65 C60 1.491 . S
C65 C67 1.382 . S
C65 C69 1.404 . S
H66 C64 0.951 . S
C67 C65 1.382 . S
C67 C68 1.390 . S
C67 H72 0.949 . S
C68 C67 1.390 . S
C68 C73 1.399 . S
C69 C65 1.404 . S
C69 H70 0.950 . S
C69 C71 1.375 . S
H70 C69 0.950 . S
C71 C69 1.375 . S
C71 C73 1.382 . S
C71 H75 0.950 . S
H72 C67 0.949 . S
C73 C68 1.399 . S
C73 C71 1.382 . S
C73 H74 0.952 . S
H74 C73 0.952 . S
H75 C71 0.950 . S
H76 C77 0.949 . S
C77 H76 0.949 . S
C77 C78 1.395 . S
C77 C79 1.391 . S
C78 C77 1.395 . S
C78 C81 1.390 . S
C79 C77 1.391 . S
C79 C83 1.387 . S
C79 C84 1.491 . S
H80 C81 0.950 . S
C81 C78 1.390 . S
C81 H80 0.950 . S
C81 C82 1.378 . S
C82 C81 1.378 . S
C82 C83 1.409 . S
C83 C79 1.387 . S
C83 C82 1.409 . S
C83 H85 0.951 . S
C84 C79 1.491 . S
C84 C86 1.382 . S
C84 C88 1.404 . S
H85 C83 0.951 . S
C86 C84 1.382 . S
C86 C87 1.390 . S
C86 H91 0.949 . S
C87 C86 1.390 . S
C87 C92 1.399 . S
C88 C84 1.404 . S
C88 H89 0.950 . S
C88 C90 1.375 . S
H89 C88 0.950 . S
C90 C88 1.375 . S
C90 C92 1.382 . S
C90 H94 0.950 . S
H91 C86 0.949 . S
C92 C87 1.399 . S
C92 C90 1.382 . S
C92 H93 0.952 . S
H93 C92 0.952 . S
H94 C90 0.950 . S
H95 C96 0.949 . S
C96 H95 0.949 . S
C96 C97 1.395 . S
C96 C98 1.391 . S
C97 C96 1.395 . S
C97 C100 1.390 . S
C98 C96 1.391 . S
C98 C102 1.387 . S
C98 C103 1.491 . S
H99 C100 0.950 . S
C100 C97 1.390 . S
C100 H99 0.950 . S
C100 C101 1.378 . S
C101 C100 1.378 . S
C101 C102 1.409 . S
C102 C98 1.387 . S
C102 C101 1.409 . S
C102 H104 0.951 . S
C103 C98 1.491 . S
C103 C105 1.382 . S
C103 C107 1.404 . S
H104 C102 0.951 . S
C105 C103 1.382 . S
C105 C106 1.390 . S
C105 H110 0.949 . S
C106 C105 1.390 . S
C106 C111 1.399 . S
C107 C103 1.404 . S
C107 H108 0.950 . S
C107 C109 1.375 . S
H108 C107 0.950 . S
C109 C107 1.375 . S
C109 C111 1.382 . S
C109 H113 0.950 . S
H110 C105 0.949 . S
C111 C106 1.399 . S
C111 C109 1.382 . S
C111 H112 0.952 . S
H112 C111 0.952 . S
H113 C109 0.950 . S
H114 C115 0.949 . S
C115 H114 0.949 . S
C115 C116 1.395 . S
C115 C117 1.391 . S
C116 C115 1.395 . S
C116 C119 1.390 . S
C117 C115 1.391 . S
C117 C121 1.387 . S
C117 C122 1.491 . S
H118 C119 0.950 . S
C119 C116 1.390 . S
C119 H118 0.950 . S
C119 C120 1.378 . S
C120 C119 1.378 . S
C120 C121 1.409 . S
C121 C117 1.387 . S
C121 C120 1.409 . S
C121 H123 0.951 . S
C122 C117 1.491 . S
C122 C124 1.382 . S
C122 C126 1.404 . S
H123 C121 0.951 . S
C124 C122 1.382 . S
C124 C125 1.390 . S
C124 H129 0.949 . S
C125 C124 1.390 . S
C125 C130 1.399 . S
C126 C122 1.404 . S
C126 H127 0.950 . S
C126 C128 1.375 . S
H127 C126 0.950 . S
C128 C126 1.375 . S
C128 C130 1.382 . S
C128 H132 0.950 . S
H129 C124 0.949 . S
C130 C125 1.399 . S
C130 C128 1.382 . S
C130 H131 0.952 . S
H131 C130 0.952 . S
H132 C128 0.950 . S
H133 C134 0.949 . S
C134 H133 0.949 . S
C134 C135 1.395 . S
C134 C136 1.391 . S
C135 C134 1.395 . S
C135 C138 1.390 . S
C136 C134 1.391 . S
C136 C140 1.387 . S
C136 C141 1.491 . S
H137 C138 0.950 . S
C138 C135 1.390 . S
C138 H137 0.950 . S
C138 C139 1.378 . S
C139 C138 1.378 . S
C139 C140 1.409 . S
C140 C136 1.387 . S
C140 C139 1.409 . S
C140 H142 0.951 . S
C141 C136 1.491 . S
C141 C143 1.382 . S
C141 C145 1.404 . S
H142 C140 0.951 . S
C143 C141 1.382 . S
C143 C144 1.390 . S
C143 H148 0.949 . S
C144 C143 1.390 . S
C144 C149 1.399 . S
C145 C141 1.404 . S
C145 H146 0.950 . S
C145 C147 1.375 . S
H146 C145 0.950 . S
C147 C145 1.375 . S
C147 C149 1.382 . S
C147 H151 0.950 . S
H148 C143 0.949 . S
C149 C144 1.399 . S
C149 C147 1.382 . S
C149 H150 0.952 . S
H150 C149 0.952 . S
H151 C147 0.950 . S
O152 Mg153 1.990 . S
O152 C166 1.253 1_455 S
Mg153 O152 1.990 . S
Mg153 O156 2.180 . S
Mg153 O157 2.117 . S
Mg153 O171 2.030 . S
O154 Mg155 2.072 1_655 S
O154 C166 1.260 . S
Mg155 O154 2.072 1_455 S
Mg155 O156 2.099 . S
Mg155 O158 2.079 . S
Mg155 O159 2.072 1_455 S
Mg155 O161 2.099 1_455 S
Mg155 O172 2.079 . S
O156 Mg153 2.180 . S
O156 Mg155 2.099 . S
O156 C167 1.279 . S
O157 Mg153 2.117 . S
O157 C167 1.250 . S
O158 Mg155 2.079 . S
O158 C168 1.264 . S
O159 Mg155 2.072 1_655 S
O159 C169 1.260 . S
Mg160 O161 2.180 . S
Mg160 O162 2.030 . S
Mg160 O163 1.990 . S
Mg160 O164 2.117 1_545 S
O161 Mg155 2.099 1_655 S
O161 Mg160 2.180 . S
O161 C170 1.279 1_545 S
O162 Mg160 2.030 . S
O162 C168 1.248 1_655 S
O163 Mg160 1.990 . S
O163 C169 1.253 . S
O164 Mg160 2.117 1_565 S
O164 C170 1.250 . S
C165 O171 1.248 . S
C165 O172 1.264 . S
C166 O152 1.253 1_655 S
C166 O154 1.260 . S
C167 O156 1.279 . S
C167 O157 1.250 . S
C168 O158 1.264 . S
C168 O162 1.248 1_455 S
C169 O159 1.260 . S
C169 O163 1.253 . S
C170 O161 1.279 1_565 S
C170 O164 1.250 . S
O171 Mg153 2.030 . S
O171 C165 1.248 . S
O172 Mg155 2.079 . S
O172 C165 1.264 . S
O173 Mg174 1.990 . S
O173 C187 1.253 . S
Mg174 O173 1.990 . S
Mg174 O177 2.180 . S
Mg174 O178 2.117 . S
Mg174 O192 2.030 . S
O175 Mg176 2.072 . S
O175 C187 1.260 . S
Mg176 O175 2.072 . S
Mg176 O177 2.099 . S
Mg176 O179 2.079 . S
Mg176 O180 2.072 . S
Mg176 O182 2.099 1_545 S
Mg176 O193 2.079 . S
O177 Mg174 2.180 . S
O177 Mg176 2.099 . S
O177 C188 1.279 . S
O178 Mg174 2.117 . S
O178 C188 1.250 . S
O179 Mg176 2.079 . S
O179 C189 1.264 . S
O180 Mg176 2.072 . S
O180 C190 1.265 . S
Mg181 O182 2.180 . S
Mg181 O183 2.030 . S
Mg181 O184 1.990 . S
Mg181 O185 2.117 . S
O182 Mg176 2.099 1_565 S
O182 Mg181 2.180 . S
O182 C191 1.279 . S
O183 Mg181 2.030 . S
O183 C189 1.248 1_565 S
O184 Mg181 1.990 . S
O184 C190 1.255 1_565 S
O185 Mg181 2.117 . S
O185 C191 1.250 . S
C186 O192 1.248 . S
C186 O193 1.264 . S
C187 O173 1.253 . S
C187 O175 1.260 . S
C188 O177 1.279 . S
C188 O178 1.250 . S
C189 O179 1.264 . S
C189 O183 1.248 1_545 S
C190 O180 1.265 . S
C190 O184 1.255 1_545 S
C191 O182 1.279 . S
C191 O185 1.250 . S
O192 Mg174 2.030 . S
O192 C186 1.248 . S
O193 Mg176 2.079 . S
O193 C186 1.264 . S
O194 Mg195 1.990 . S
O194 C208 1.253 . S
Mg195 O194 1.990 . S
Mg195 O198 2.180 . S
Mg195 O199 2.117 . S
Mg195 O213 2.030 . S
O196 Mg197 2.072 . S
O196 C208 1.260 . S
Mg197 O196 2.072 . S
Mg197 O198 2.099 . S
Mg197 O200 2.079 . S
Mg197 O201 2.072 . S
Mg197 O203 2.099 . S
Mg197 O214 2.079 . S
O198 Mg195 2.180 . S
O198 Mg197 2.099 . S
O198 C209 1.279 . S
O199 Mg195 2.117 . S
O199 C209 1.250 . S
O200 Mg197 2.079 . S
O200 C210 1.264 . S
O201 Mg197 2.072 . S
O201 C211 1.260 . S
Mg202 O203 2.180 . S
Mg202 O204 2.030 . S
Mg202 O205 1.990 . S
Mg202 O206 2.117 . S
O203 Mg197 2.099 . S
O203 Mg202 2.180 . S
O203 C212 1.279 . S
O204 Mg202 2.030 . S
O204 C210 1.248 . S
O205 Mg202 1.990 . S
O205 C211 1.253 . S
O206 Mg202 2.117 . S
O206 C212 1.250 . S
C207 O213 1.248 . S
C207 O214 1.264 . S
C208 O194 1.253 . S
C208 O196 1.260 . S
C209 O198 1.279 . S
C209 O199 1.250 . S
C210 O200 1.264 . S
C210 O204 1.248 . S
C211 O201 1.260 . S
C211 O205 1.253 . S
C212 O203 1.279 . S
C212 O206 1.250 . S
O213 Mg195 2.030 . S
O213 C207 1.248 . S
O214 Mg197 2.079 . S
O214 C207 1.264 . S
O215 Mg216 1.990 . S
O215 C229 1.253 . S
Mg216 O215 1.990 . S
Mg216 O219 2.180 . S
Mg216 O220 2.117 1_455 S
Mg216 O234 2.030 . S
O217 Mg218 2.072 . S
O217 C229 1.260 . S
Mg218 O217 2.072 . S
Mg218 O219 2.099 . S
Mg218 O221 2.079 . S
Mg218 O222 2.072 1_455 S
Mg218 O224 2.099 1_554 S
Mg218 O235 2.079 . S
O219 Mg216 2.180 . S
O219 Mg218 2.099 . S
O219 C230 1.279 1_455 S
O220 Mg216 2.117 1_655 S
O220 C230 1.250 . S
O221 Mg218 2.079 . S
O221 C231 1.264 1_454 S
O222 Mg218 2.072 1_655 S
O222 C232 1.260 1_554 S
Mg223 O224 2.180 1_655 S
Mg223 O225 2.030 . S
Mg223 O226 1.990 . S
Mg223 O227 2.117 1_655 S
O224 Mg218 2.099 1_556 S
O224 Mg223 2.180 1_455 S
O224 C233 1.279 . S
O225 Mg223 2.030 . S
O225 C231 1.248 . S
O226 Mg223 1.990 . S
O226 C232 1.253 . S
O227 Mg223 2.117 1_455 S
O227 C233 1.250 . S
C228 O234 1.248 . S
C228 O235 1.264 . S
C229 O215 1.253 . S
C229 O217 1.260 . S
C230 O219 1.279 1_655 S
C230 O220 1.250 . S
C231 O221 1.264 1_656 S
C231 O225 1.248 . S
C232 O222 1.260 1_556 S
C232 O226 1.253 . S
C233 O224 1.279 . S
C233 O227 1.250 . S
O234 Mg216 2.030 . S
O234 C228 1.248 . S
O235 Mg218 2.079 . S
O235 C228 1.264 . S
C236 C237 1.349 . S
C236 C238 1.327 . S
C236 H261 0.950 . S
C237 C236 1.349 . S
C237 C253 1.349 . S
C238 C236 1.327 . S
C238 C257 1.429 . S
C238 H262 0.950 . S
C239 C256 1.574 . S
C239 C258 1.368 . S
C239 H263 0.949 . S
H240 C244 0.949 . S
C241 C242 1.349 . S
C241 C243 1.327 . S
C241 H264 0.950 . S
C242 C241 1.349 . S
C242 C254 1.349 . S
C243 C241 1.327 . S
C243 C259 1.429 . S
C243 H265 0.950 . S
C244 H240 0.949 . S
C244 C252 1.574 . S
C244 C260 1.368 . S
H245 C253 0.950 . S
H246 C251 0.950 . S
H247 C252 0.949 . S
H248 C254 0.950 1_655 S
H249 C255 0.950 . S
H250 C256 0.949 . S
C251 H246 0.950 . S
C251 C253 1.327 . S
C251 C257 1.429 . S
C252 C244 1.574 . S
C252 H247 0.949 . S
C252 C258 1.368 . S
C253 C237 1.349 . S
C253 H245 0.950 . S
C253 C251 1.327 . S
C254 C242 1.349 . S
C254 H248 0.950 1_455 S
C254 C255 1.327 . S
C255 H249 0.950 . S
C255 C254 1.327 . S
C255 C259 1.429 . S
C256 C239 1.574 . S
C256 H250 0.949 . S
C256 C260 1.368 . S
C257 C238 1.429 . S
C257 C251 1.429 . S
C257 C258 1.523 . S
C258 C239 1.368 . S
C258 C252 1.368 . S
C258 C257 1.523 . S
C259 C243 1.429 . S
C259 C255 1.429 . S
C259 C260 1.523 . S
C260 C244 1.368 . S
C260 C256 1.368 . S
C260 C259 1.523 . S
H261 C236 0.950 . S
H262 C238 0.950 . S
H263 C239 0.949 . S
H264 C241 0.950 . S
H265 C243 0.950 . S
C266 C267 1.349 . S
C266 C268 1.327 . S
C266 H291 0.950 . S
C267 C266 1.349 . S
C267 C283 1.349 . S
C268 C266 1.327 . S
C268 C287 1.429 . S
C268 H292 0.950 . S
C269 C286 1.574 1_565 S
C269 C288 1.368 . S
C269 H293 0.949 1_565 S
H270 C274 0.949 . S
C271 C272 1.349 . S
C271 C273 1.327 . S
C271 H294 0.950 . S
C272 C271 1.349 . S
C272 C284 1.349 1_545 S
C273 C271 1.327 . S
C273 C289 1.429 1_545 S
C273 H295 0.950 . S
C274 H270 0.949 . S
C274 C282 1.574 . S
C274 C290 1.368 . S
H275 C283 0.950 . S
H276 C281 0.950 . S
H277 C282 0.949 . S
H278 C284 0.950 . S
H279 C285 0.950 . S
H280 C286 0.949 . S
C281 H276 0.950 . S
C281 C283 1.327 . S
C281 C287 1.429 . S
C282 C274 1.574 . S
C282 H277 0.949 . S
C282 C288 1.368 . S
C283 C267 1.349 . S
C283 H275 0.950 . S
C283 C281 1.327 . S
C284 C272 1.349 1_565 S
C284 H278 0.950 . S
C284 C285 1.327 . S
C285 H279 0.950 . S
C285 C284 1.327 . S
C285 C289 1.429 . S
C286 C269 1.574 1_545 S
C286 H280 0.949 . S
C286 C290 1.368 1_545 S
C287 C268 1.429 . S
C287 C281 1.429 . S
C287 C288 1.523 . S
C288 C269 1.368 . S
C288 C282 1.368 . S
C288 C287 1.523 . S
C289 C273 1.429 1_565 S
C289 C285 1.429 . S
C289 C290 1.523 . S
C290 C274 1.368 . S
C290 C286 1.368 1_565 S
C290 C289 1.523 . S
H291 C266 0.950 . S
H292 C268 0.950 . S
H293 C269 0.949 1_545 S
H294 C271 0.950 . S
H295 C273 0.950 . S
C296 C297 1.349 . S
C296 C298 1.327 . S
C296 H321 0.950 . S
C297 C296 1.349 . S
C297 C313 1.349 . S
C298 C296 1.327 . S
C298 C317 1.429 . S
C298 H322 0.950 . S
C299 C316 1.574 . S
C299 C318 1.368 . S
C299 H323 0.949 . S
H300 C304 0.949 . S
C301 C302 1.349 . S
C301 C303 1.327 . S
C301 H324 0.950 . S
C302 C301 1.349 . S
C302 C314 1.349 . S
C303 C301 1.327 . S
C303 C319 1.429 . S
C303 H325 0.950 . S
C304 H300 0.949 . S
C304 C312 1.574 . S
C304 C320 1.368 . S
H305 C313 0.950 . S
H306 C311 0.950 . S
H307 C312 0.949 . S
H308 C314 0.950 . S
H309 C315 0.950 . S
H310 C316 0.949 . S
C311 H306 0.950 . S
C311 C313 1.327 . S
C311 C317 1.429 . S
C312 C304 1.574 . S
C312 H307 0.949 . S
C312 C318 1.368 . S
C313 C297 1.349 . S
C313 H305 0.950 . S
C313 C311 1.327 . S
C314 C302 1.349 . S
C314 H308 0.950 . S
C314 C315 1.327 . S
C315 H309 0.950 . S
C315 C314 1.327 . S
C315 C319 1.429 . S
C316 C299 1.574 . S
C316 H310 0.949 . S
C316 C320 1.368 . S
C317 C298 1.429 . S
C317 C311 1.429 . S
C317 C318 1.523 . S
C318 C299 1.368 . S
C318 C312 1.368 . S
C318 C317 1.523 . S
C319 C303 1.429 . S
C319 C315 1.429 . S
C319 C320 1.523 . S
C320 C304 1.368 . S
C320 C316 1.368 . S
C320 C319 1.523 . S
H321 C296 0.950 . S
H322 C298 0.950 . S
H323 C299 0.949 . S
H324 C301 0.950 . S
H325 C303 0.950 . S
C326 C327 1.349 . S
C326 C328 1.327 . S
C326 H351 0.950 . S
C327 C326 1.349 . S
C327 C343 1.349 . S
C328 C326 1.327 . S
C328 C347 1.429 . S
C328 H352 0.950 . S
C329 C346 1.574 . S
C329 C348 1.368 . S
C329 H353 0.949 . S
H330 C334 0.949 . S
C331 C332 1.349 . S
C331 C333 1.327 . S
C331 H354 0.950 . S
C332 C331 1.349 . S
C332 C344 1.349 . S
C333 C331 1.327 . S
C333 C349 1.429 . S
C333 H355 0.950 . S
C334 H330 0.949 . S
C334 C342 1.574 . S
C334 C350 1.368 . S
H335 C343 0.950 . S
H336 C341 0.950 . S
H337 C342 0.949 . S
H338 C344 0.950 . S
H339 C345 0.950 . S
H340 C346 0.949 . S
C341 H336 0.950 . S
C341 C343 1.327 . S
C341 C347 1.429 . S
C342 C334 1.574 . S
C342 H337 0.949 . S
C342 C348 1.368 . S
C343 C327 1.349 . S
C343 H335 0.950 . S
C343 C341 1.327 . S
C344 C332 1.349 . S
C344 H338 0.950 . S
C344 C345 1.327 . S
C345 H339 0.950 . S
C345 C344 1.327 . S
C345 C349 1.429 . S
C346 C329 1.574 . S
C346 H340 0.949 . S
C346 C350 1.368 . S
C347 C328 1.429 . S
C347 C341 1.429 . S
C347 C348 1.523 . S
C348 C329 1.368 . S
C348 C342 1.368 . S
C348 C347 1.523 . S
C349 C333 1.429 . S
C349 C345 1.429 . S
C349 C350 1.523 . S
C350 C334 1.368 . S
C350 C346 1.368 . S
C350 C349 1.523 . S
H351 C326 0.950 . S
H352 C328 0.950 . S
H353 C329 0.949 . S
H354 C331 0.950 . S
H355 C333 0.950 . S
C356 C357 1.349 . S
C356 C358 1.327 . S
C356 H381 0.950 . S
C357 C356 1.349 . S
C357 C373 1.349 . S
C358 C356 1.327 . S
C358 C377 1.429 . S
C358 H382 0.950 . S
C359 C376 1.574 . S
C359 C378 1.368 . S
C359 H383 0.949 . S
H360 C364 0.949 . S
C361 C362 1.349 . S
C361 C363 1.327 . S
C361 H384 0.950 . S
C362 C361 1.349 . S
C362 C374 1.349 . S
C363 C361 1.327 . S
C363 C379 1.429 . S
C363 H385 0.950 . S
C364 H360 0.949 . S
C364 C372 1.574 . S
C364 C380 1.368 . S
H365 C373 0.950 . S
H366 C371 0.950 . S
H367 C372 0.949 . S
H368 C374 0.950 . S
H369 C375 0.950 . S
H370 C376 0.949 . S
C371 H366 0.950 . S
C371 C373 1.327 . S
C371 C377 1.429 . S
C372 C364 1.574 . S
C372 H367 0.949 . S
C372 C378 1.368 . S
C373 C357 1.349 . S
C373 H365 0.950 . S
C373 C371 1.327 . S
C374 C362 1.349 . S
C374 H368 0.950 . S
C374 C375 1.327 . S
C375 H369 0.950 . S
C375 C374 1.327 . S
C375 C379 1.429 . S
C376 C359 1.574 . S
C376 H370 0.949 . S
C376 C380 1.368 . S
C377 C358 1.429 . S
C377 C371 1.429 . S
C377 C378 1.523 . S
C378 C359 1.368 . S
C378 C372 1.368 . S
C378 C377 1.523 . S
C379 C363 1.429 . S
C379 C375 1.429 . S
C379 C380 1.523 . S
C380 C364 1.368 . S
C380 C376 1.368 . S
C380 C379 1.523 . S
H381 C356 0.950 . S
H382 C358 0.950 . S
H383 C359 0.949 . S
H384 C361 0.950 . S
H385 C363 0.950 . S
C386 C387 1.349 . S
C386 C388 1.327 . S
C386 H411 0.950 . S
C387 C386 1.349 . S
C387 C403 1.350 1_565 S
C388 C386 1.327 . S
C388 C407 1.429 . S
C388 H412 0.950 . S
C389 C406 1.574 . S
C389 C408 1.368 1_545 S
C389 H413 0.949 . S
H390 C394 0.949 . S
C391 C392 1.349 . S
C391 C393 1.327 . S
C391 H414 0.950 . S
C392 C391 1.349 . S
C392 C404 1.349 1_545 S
C393 C391 1.327 . S
C393 C409 1.429 . S
C393 H415 0.950 . S
C394 H390 0.949 . S
C394 C402 1.574 . S
C394 C410 1.368 . S
H395 C403 0.949 . S
H396 C401 0.950 . S
H397 C402 0.949 . S
H398 C404 0.950 . S
H399 C405 0.950 . S
H400 C406 0.949 . S
C401 H396 0.950 . S
C401 C403 1.327 . S
C401 C407 1.429 1_545 S
C402 C394 1.574 . S
C402 H397 0.949 . S
C402 C408 1.368 . S
C403 C387 1.350 1_545 S
C403 H395 0.949 . S
C403 C401 1.327 . S
C404 C392 1.349 1_565 S
C404 H398 0.950 . S
C404 C405 1.327 . S
C405 H399 0.950 . S
C405 C404 1.327 . S
C405 C409 1.429 1_565 S
C406 C389 1.574 . S
C406 H400 0.949 . S
C406 C410 1.368 1_545 S
C407 C388 1.429 . S
C407 C401 1.429 1_565 S
C407 C408 1.523 . S
C408 C389 1.368 1_565 S
C408 C402 1.368 . S
C408 C407 1.523 . S
C409 C393 1.429 . S
C409 C405 1.429 1_545 S
C409 C410 1.523 1_545 S
C410 C394 1.368 . S
C410 C406 1.368 1_565 S
C410 C409 1.523 1_565 S
H411 C386 0.950 . S
H412 C388 0.950 . S
H413 C389 0.949 . S
H414 C391 0.950 . S
H415 C393 0.950 . S
C416 C417 1.349 . S
C416 C418 1.327 . S
C416 H441 0.950 . S
C417 C416 1.349 . S
C417 C433 1.349 . S
C418 C416 1.327 . S
C418 C437 1.429 . S
C418 H442 0.950 . S
C419 C436 1.574 . S
C419 C438 1.368 . S
C419 H443 0.949 . S
H420 C424 0.949 . S
C421 C422 1.349 . S
C421 C423 1.327 . S
C421 H444 0.950 . S
C422 C421 1.349 . S
C422 C434 1.349 . S
C423 C421 1.327 . S
C423 C439 1.429 . S
C423 H445 0.950 . S
C424 H420 0.949 . S
C424 C432 1.574 . S
C424 C440 1.368 . S
H425 C433 0.950 . S
H426 C431 0.950 . S
H427 C432 0.949 . S
H428 C434 0.950 . S
H429 C435 0.950 . S
H430 C436 0.949 . S
C431 H426 0.950 . S
C431 C433 1.327 . S
C431 C437 1.429 . S
C432 C424 1.574 . S
C432 H427 0.949 . S
C432 C438 1.368 . S
C433 C417 1.349 . S
C433 H425 0.950 . S
C433 C431 1.327 . S
C434 C422 1.349 . S
C434 H428 0.950 . S
C434 C435 1.327 . S
C435 H429 0.950 . S
C435 C434 1.327 . S
C435 C439 1.429 . S
C436 C419 1.574 . S
C436 H430 0.949 . S
C436 C440 1.368 . S
C437 C418 1.429 . S
C437 C431 1.429 . S
C437 C438 1.523 . S
C438 C419 1.368 . S
C438 C432 1.368 . S
C438 C437 1.523 . S
C439 C423 1.429 . S
C439 C435 1.429 . S
C439 C440 1.523 . S
C440 C424 1.368 . S
C440 C436 1.368 . S
C440 C439 1.523 . S
H441 C416 0.950 . S
H442 C418 0.950 . S
H443 C419 0.949 . S
H444 C421 0.950 . S
H445 C423 0.950 . S
C446 C447 1.349 . S
C446 C448 1.327 . S
C446 H471 0.950 . S
C447 C446 1.349 . S
C447 C463 1.349 . S
C448 C446 1.327 . S
C448 C467 1.429 . S
C448 H472 0.950 . S
C449 C466 1.574 . S
C449 C468 1.368 . S
C449 H473 0.949 . S
H450 C454 0.949 . S
C451 C452 1.349 . S
C451 C453 1.327 . S
C451 H474 0.950 . S
C452 C451 1.349 . S
C452 C464 1.349 . S
C453 C451 1.327 . S
C453 C469 1.429 . S
C453 H475 0.950 . S
C454 H450 0.949 . S
C454 C462 1.574 . S
C454 C470 1.368 . S
H455 C463 0.950 . S
H456 C461 0.950 . S
H457 C462 0.949 . S
H458 C464 0.950 . S
H459 C465 0.950 . S
H460 C466 0.949 . S
C461 H456 0.950 . S
C461 C463 1.327 . S
C461 C467 1.429 . S
C462 C454 1.574 . S
C462 H457 0.949 . S
C462 C468 1.368 . S
C463 C447 1.349 . S
C463 H455 0.950 . S
C463 C461 1.327 . S
C464 C452 1.349 . S
C464 H458 0.950 . S
C464 C465 1.327 . S
C465 H459 0.950 . S
C465 C464 1.327 . S
C465 C469 1.429 . S
C466 C449 1.574 . S
C466 H460 0.949 . S
C466 C470 1.368 . S
C467 C448 1.429 . S
C467 C461 1.429 . S
C467 C468 1.523 . S
C468 C449 1.368 . S
C468 C462 1.368 . S
C468 C467 1.523 . S
C469 C453 1.429 . S
C469 C465 1.429 . S
C469 C470 1.523 . S
C470 C454 1.368 . S
C470 C466 1.368 . S
C470 C469 1.523 . S
H471 C446 0.950 . S
H472 C448 0.950 . S
H473 C449 0.949 . S
H474 C451 0.950 . S
H475 C453 0.950 . S
C476 C477 1.349 . S
C476 C478 1.327 . S
C476 H501 0.950 . S
C477 C476 1.349 . S
C477 C493 1.349 . S
C478 C476 1.327 . S
C478 C497 1.429 . S
C478 H502 0.950 . S
C479 C496 1.574 . S
C479 C498 1.368 . S
C479 H503 0.949 . S
H480 C484 0.949 . S
C481 C482 1.349 . S
C481 C483 1.327 . S
C481 H504 0.950 . S
C482 C481 1.349 . S
C482 C494 1.349 . S
C483 C481 1.327 . S
C483 C499 1.429 . S
C483 H505 0.950 . S
C484 H480 0.949 . S
C484 C492 1.574 . S
C484 C500 1.368 . S
H485 C493 0.950 . S
H486 C491 0.950 . S
H487 C492 0.949 . S
H488 C494 0.950 . S
H489 C495 0.950 . S
H490 C496 0.949 . S
C491 H486 0.950 . S
C491 C493 1.327 . S
C491 C497 1.429 . S
C492 C484 1.574 . S
C492 H487 0.949 . S
C492 C498 1.368 . S
C493 C477 1.349 . S
C493 H485 0.950 . S
C493 C491 1.327 . S
C494 C482 1.349 . S
C494 H488 0.950 . S
C494 C495 1.327 . S
C495 H489 0.950 . S
C495 C494 1.327 . S
C495 C499 1.429 . S
C496 C479 1.574 . S
C496 H490 0.949 . S
C496 C500 1.368 . S
C497 C478 1.429 . S
C497 C491 1.429 . S
C497 C498 1.523 . S
C498 C479 1.368 . S
C498 C492 1.368 . S
C498 C497 1.523 . S
C499 C483 1.429 . S
C499 C495 1.429 . S
C499 C500 1.523 . S
C500 C484 1.368 . S
C500 C496 1.368 . S
C500 C499 1.523 . S
H501 C476 0.950 . S
H502 C478 0.950 . S
H503 C479 0.949 . S
H504 C481 0.950 . S
H505 C483 0.950 . S
C506 C507 1.349 . S
C506 C508 1.327 . S
C506 H531 0.950 . S
C507 C506 1.349 . S
C507 C523 1.349 . S
C508 C506 1.327 . S
C508 C527 1.429 . S
C508 H532 0.950 . S
C509 C526 1.574 . S
C509 C528 1.368 . S
C509 H533 0.949 . S
H510 C514 0.949 . S
C511 C512 1.349 1_556 S
C511 C513 1.327 . S
C511 H534 0.950 . S
C512 C511 1.349 1_554 S
C512 C524 1.349 . S
C513 C511 1.327 . S
C513 C529 1.429 . S
C513 H535 0.950 . S
C514 H510 0.949 . S
C514 C522 1.574 1_554 S
C514 C530 1.368 1_554 S
H515 C523 0.950 . S
H516 C521 0.950 . S
H517 C522 0.949 1_554 S
H518 C524 0.950 . S
H519 C525 0.950 . S
H520 C526 0.949 . S
C521 H516 0.950 . S
C521 C523 1.327 . S
C521 C527 1.429 . S
C522 C514 1.574 1_556 S
C522 H517 0.949 1_556 S
C522 C528 1.368 . S
C523 C507 1.349 . S
C523 H515 0.950 . S
C523 C521 1.327 . S
C524 C512 1.349 . S
C524 H518 0.950 . S
C524 C525 1.327 . S
C525 H519 0.950 . S
C525 C524 1.327 . S
C525 C529 1.429 1_554 S
C526 C509 1.574 . S
C526 H520 0.949 . S
C526 C530 1.368 . S
C527 C508 1.429 . S
C527 C521 1.429 . S
C527 C528 1.523 . S
C528 C509 1.368 . S
C528 C522 1.368 . S
C528 C527 1.523 . S
C529 C513 1.429 . S
C529 C525 1.429 1_556 S
C529 C530 1.523 . S
C530 C514 1.368 1_556 S
C530 C526 1.368 . S
C530 C529 1.523 . S
H531 C506 0.950 . S
H532 C508 0.950 . S
H533 C509 0.949 . S
H534 C511 0.950 . S
H535 C513 0.950 . S
C536 C537 1.349 . S
C536 C538 1.327 . S
C536 H561 0.950 . S
C537 C536 1.349 . S
C537 C553 1.349 . S
C538 C536 1.327 . S
C538 C557 1.429 . S
C538 H562 0.950 . S
C539 C556 1.574 . S
C539 C558 1.368 . S
C539 H563 0.949 . S
H540 C544 0.949 . S
C541 C542 1.349 . S
C541 C543 1.327 . S
C541 H564 0.950 . S
C542 C541 1.349 . S
C542 C554 1.349 . S
C543 C541 1.327 . S
C543 C559 1.429 . S
C543 H565 0.950 . S
C544 H540 0.949 . S
C544 C552 1.574 . S
C544 C560 1.368 . S
H545 C553 0.950 . S
H546 C551 0.950 . S
H547 C552 0.949 . S
H548 C554 0.950 1_455 S
H549 C555 0.950 . S
H550 C556 0.949 . S
C551 H546 0.950 . S
C551 C553 1.327 . S
C551 C557 1.429 . S
C552 C544 1.574 . S
C552 H547 0.949 . S
C552 C558 1.368 . S
C553 C537 1.349 . S
C553 H545 0.950 . S
C553 C551 1.327 . S
C554 C542 1.349 . S
C554 H548 0.950 1_655 S
C554 C555 1.327 . S
C555 H549 0.950 . S
C555 C554 1.327 . S
C555 C559 1.429 . S
C556 C539 1.574 . S
C556 H550 0.949 . S
C556 C560 1.368 . S
C557 C538 1.429 . S
C557 C551 1.429 . S
C557 C558 1.523 . S
C558 C539 1.368 . S
C558 C552 1.368 . S
C558 C557 1.523 . S
C559 C543 1.429 . S
C559 C555 1.429 . S
C559 C560 1.523 . S
C560 C544 1.368 . S
C560 C556 1.368 . S
C560 C559 1.523 . S
H561 C536 0.950 . S
H562 C538 0.950 . S
H563 C539 0.949 . S
H564 C541 0.950 . S
H565 C543 0.950 . S
C566 C567 1.349 . S
C566 C568 1.327 . S
C566 H591 0.950 . S
C567 C566 1.349 . S
C567 C583 1.349 . S
C568 C566 1.327 . S
C568 C587 1.429 . S
C568 H592 0.950 . S
C569 C586 1.574 . S
C569 C588 1.368 . S
C569 H593 0.949 . S
H570 C574 0.949 . S
C571 C572 1.349 . S
C571 C573 1.327 . S
C571 H594 0.950 . S
C572 C571 1.349 . S
C572 C584 1.349 . S
C573 C571 1.327 . S
C573 C589 1.429 . S
C573 H595 0.950 . S
C574 H570 0.949 . S
C574 C582 1.574 . S
C574 C590 1.368 . S
H575 C583 0.950 . S
H576 C581 0.950 . S
H577 C582 0.949 . S
H578 C584 0.950 . S
H579 C585 0.950 . S
H580 C586 0.949 . S
C581 H576 0.950 . S
C581 C583 1.327 . S
C581 C587 1.429 . S
C582 C574 1.574 . S
C582 H577 0.949 . S
C582 C588 1.368 . S
C583 C567 1.349 . S
C583 H575 0.950 . S
C583 C581 1.327 . S
C584 C572 1.349 . S
C584 H578 0.950 . S
C584 C585 1.327 . S
C585 H579 0.950 . S
C585 C584 1.327 . S
C585 C589 1.429 . S
C586 C569 1.574 . S
C586 H580 0.949 . S
C586 C590 1.368 . S
C587 C568 1.429 . S
C587 C581 1.429 . S
C587 C588 1.523 . S
C588 C569 1.368 . S
C588 C582 1.368 . S
C588 C587 1.523 . S
C589 C573 1.429 . S
C589 C585 1.429 . S
C589 C590 1.523 . S
C590 C574 1.368 . S
C590 C586 1.368 . S
C590 C589 1.523 . S
H591 C566 0.950 . S
H592 C568 0.950 . S
H593 C569 0.949 . S
H594 C571 0.950 . S
H595 C573 0.950 . S
C596 C597 1.349 . S
C596 C598 1.327 . S
C596 H621 0.950 . S
C597 C596 1.349 . S
C597 C613 1.349 . S
C598 C596 1.327 . S
C598 C617 1.429 . S
C598 H622 0.950 . S
C599 C616 1.574 1_565 S
C599 C618 1.368 . S
C599 H623 0.949 1_565 S
H600 C604 0.949 . S
C601 C602 1.349 . S
C601 C603 1.327 . S
C601 H624 0.950 . S
C602 C601 1.349 . S
C602 C614 1.349 1_545 S
C603 C601 1.327 . S
C603 C619 1.429 1_545 S
C603 H625 0.950 . S
C604 H600 0.949 . S
C604 C612 1.574 . S
C604 C620 1.368 . S
H605 C613 0.950 . S
H606 C611 0.950 . S
H607 C612 0.949 . S
H608 C614 0.950 . S
H609 C615 0.950 . S
H610 C616 0.949 . S
C611 H606 0.950 . S
C611 C613 1.327 . S
C611 C617 1.429 . S
C612 C604 1.574 . S
C612 H607 0.949 . S
C612 C618 1.368 . S
C613 C597 1.349 . S
C613 H605 0.950 . S
C613 C611 1.327 . S
C614 C602 1.349 1_565 S
C614 H608 0.950 . S
C614 C615 1.327 . S
C615 H609 0.950 . S
C615 C614 1.327 . S
C615 C619 1.429 . S
C616 C599 1.574 1_545 S
C616 H610 0.949 . S
C616 C620 1.368 1_545 S
C617 C598 1.429 . S
C617 C611 1.429 . S
C617 C618 1.523 . S
C618 C599 1.368 . S
C618 C612 1.368 . S
C618 C617 1.523 . S
C619 C603 1.429 1_565 S
C619 C615 1.429 . S
C619 C620 1.523 . S
C620 C604 1.368 . S
C620 C616 1.368 1_565 S
C620 C619 1.523 . S
H621 C596 0.950 . S
H622 C598 0.950 . S
H623 C599 0.949 1_545 S
H624 C601 0.950 . S
H625 C603 0.950 . S
C626 C627 1.349 . S
C626 C628 1.327 . S
C626 H651 0.950 . S
C627 C626 1.349 . S
C627 C643 1.349 . S
C628 C626 1.327 . S
C628 C647 1.429 . S
C628 H652 0.950 . S
C629 C646 1.574 . S
C629 C648 1.368 . S
C629 H653 0.949 . S
H630 C634 0.949 . S
C631 C632 1.349 . S
C631 C633 1.327 . S
C631 H654 0.950 . S
C632 C631 1.349 . S
C632 C644 1.349 . S
C633 C631 1.327 . S
C633 C649 1.429 . S
C633 H655 0.950 . S
C634 H630 0.949 . S
C634 C642 1.574 . S
C634 C650 1.368 . S
H635 C643 0.950 . S
H636 C641 0.950 . S
H637 C642 0.949 . S
H638 C644 0.950 . S
H639 C645 0.950 . S
H640 C646 0.949 . S
C641 H636 0.950 . S
C641 C643 1.327 . S
C641 C647 1.429 . S
C642 C634 1.574 . S
C642 H637 0.949 . S
C642 C648 1.368 . S
C643 C627 1.349 . S
C643 H635 0.950 . S
C643 C641 1.327 . S
C644 C632 1.349 . S
C644 H638 0.950 . S
C644 C645 1.327 . S
C645 H639 0.950 . S
C645 C644 1.327 . S
C645 C649 1.429 . S
C646 C629 1.574 . S
C646 H640 0.949 . S
C646 C650 1.368 . S
C647 C628 1.429 . S
C647 C641 1.429 . S
C647 C648 1.523 . S
C648 C629 1.368 . S
C648 C642 1.368 . S
C648 C647 1.523 . S
C649 C633 1.429 . S
C649 C645 1.429 . S
C649 C650 1.523 . S
C650 C634 1.368 . S
C650 C646 1.368 . S
C650 C649 1.523 . S
H651 C626 0.950 . S
H652 C628 0.950 . S
H653 C629 0.949 . S
H654 C631 0.950 . S
H655 C633 0.950 . S
C656 C657 1.349 . S
C656 C658 1.327 . S
C656 H681 0.950 . S
C657 C656 1.349 . S
C657 C673 1.349 . S
C658 C656 1.327 . S
C658 C677 1.429 . S
C658 H682 0.950 . S
C659 C676 1.574 . S
C659 C678 1.368 . S
C659 H683 0.949 . S
H660 C664 0.949 . S
C661 C662 1.349 . S
C661 C663 1.327 . S
C661 H684 0.950 . S
C662 C661 1.349 . S
C662 C674 1.349 . S
C663 C661 1.327 . S
C663 C679 1.429 . S
C663 H685 0.950 . S
C664 H660 0.949 . S
C664 C672 1.574 . S
C664 C680 1.368 . S
H665 C673 0.950 . S
H666 C671 0.950 . S
H667 C672 0.949 . S
H668 C674 0.950 . S
H669 C675 0.950 . S
H670 C676 0.949 . S
C671 H666 0.950 . S
C671 C673 1.327 . S
C671 C677 1.429 . S
C672 C664 1.574 . S
C672 H667 0.949 . S
C672 C678 1.368 . S
C673 C657 1.349 . S
C673 H665 0.950 . S
C673 C671 1.327 . S
C674 C662 1.349 . S
C674 H668 0.950 . S
C674 C675 1.327 . S
C675 H669 0.950 . S
C675 C674 1.327 . S
C675 C679 1.429 . S
C676 C659 1.574 . S
C676 H670 0.949 . S
C676 C680 1.368 . S
C677 C658 1.429 . S
C677 C671 1.429 . S
C677 C678 1.523 . S
C678 C659 1.368 . S
C678 C672 1.368 . S
C678 C677 1.523 . S
C679 C663 1.429 . S
C679 C675 1.429 . S
C679 C680 1.523 . S
C680 C664 1.368 . S
C680 C676 1.368 . S
C680 C679 1.523 . S
H681 C656 0.950 . S
H682 C658 0.950 . S
H683 C659 0.949 . S
H684 C661 0.950 . S
H685 C663 0.950 . S
C686 C687 1.349 . S
C686 C688 1.327 . S
C686 H711 0.950 . S
C687 C686 1.349 . S
C687 C703 1.349 . S
C688 C686 1.327 . S
C688 C707 1.429 . S
C688 H712 0.950 . S
C689 C706 1.574 . S
C689 C708 1.368 . S
C689 H713 0.949 . S
H690 C694 0.949 . S
C691 C692 1.349 . S
C691 C693 1.327 . S
C691 H714 0.950 . S
C692 C691 1.349 . S
C692 C704 1.349 . S
C693 C691 1.327 . S
C693 C709 1.429 . S
C693 H715 0.950 . S
C694 H690 0.949 . S
C694 C702 1.574 . S
C694 C710 1.368 . S
H695 C703 0.950 . S
H696 C701 0.950 . S
H697 C702 0.949 . S
H698 C704 0.950 . S
H699 C705 0.950 . S
H700 C706 0.949 . S
C701 H696 0.950 . S
C701 C703 1.327 . S
C701 C707 1.429 . S
C702 C694 1.574 . S
C702 H697 0.949 . S
C702 C708 1.368 . S
C703 C687 1.349 . S
C703 H695 0.950 . S
C703 C701 1.327 . S
C704 C692 1.349 . S
C704 H698 0.950 . S
C704 C705 1.327 . S
C705 H699 0.950 . S
C705 C704 1.327 . S
C705 C709 1.429 . S
C706 C689 1.574 . S
C706 H700 0.949 . S
C706 C710 1.368 . S
C707 C688 1.429 . S
C707 C701 1.429 . S
C707 C708 1.523 . S
C708 C689 1.368 . S
C708 C702 1.368 . S
C708 C707 1.523 . S
C709 C693 1.429 . S
C709 C705 1.429 . S
C709 C710 1.523 . S
C710 C694 1.368 . S
C710 C706 1.368 . S
C710 C709 1.523 . S
H711 C686 0.950 . S
H712 C688 0.950 . S
H713 C689 0.949 . S
H714 C691 0.950 . S
H715 C693 0.950 . S
C716 C717 1.349 . S
C716 C718 1.327 . S
C716 H741 0.950 . S
C717 C716 1.349 . S
C717 C733 1.349 . S
C718 C716 1.327 . S
C718 C737 1.429 . S
C718 H742 0.950 . S
C719 C736 1.574 . S
C719 C738 1.368 1_554 S
C719 H743 0.949 . S
H720 C724 0.949 1_545 S
C721 C722 1.349 . S
C721 C723 1.327 . S
C721 H744 0.950 . S
C722 C721 1.349 . S
C722 C734 1.349 1_554 S
C723 C721 1.327 . S
C723 C739 1.429 . S
C723 H745 0.950 . S
C724 H720 0.949 1_565 S
C724 C732 1.574 . S
C724 C740 1.368 . S
H725 C733 0.950 . S
H726 C731 0.950 1_554 S
H727 C732 0.949 . S
H728 C734 0.950 . S
H729 C735 0.950 . S
H730 C736 0.949 . S
C731 H726 0.950 1_556 S
C731 C733 1.327 . S
C731 C737 1.429 . S
C732 C724 1.574 . S
C732 H727 0.949 . S
C732 C738 1.368 . S
C733 C717 1.349 . S
C733 H725 0.950 . S
C733 C731 1.327 . S
C734 C722 1.349 1_556 S
C734 H728 0.950 . S
C734 C735 1.327 . S
C735 H729 0.950 . S
C735 C734 1.327 . S
C735 C739 1.429 1_556 S
C736 C719 1.574 . S
C736 H730 0.949 . S
C736 C740 1.378 1_554 S
C737 C718 1.429 . S
C737 C731 1.429 . S
C737 C738 1.523 . S
C738 C719 1.368 1_556 S
C738 C732 1.368 . S
C738 C737 1.523 . S
C739 C723 1.429 . S
C739 C735 1.429 1_554 S
C739 C740 1.512 1_544 S
C740 C724 1.368 . S
C740 C736 1.378 1_556 S
C740 C739 1.512 1_566 S
H741 C716 0.950 . S
H742 C718 0.950 . S
H743 C719 0.949 . S
H744 C721 0.950 . S
H745 C723 0.950 . S
C746 C747 1.349 . S
C746 C748 1.327 . S
C746 H771 0.950 . S
C747 C746 1.349 . S
C747 C763 1.349 . S
C748 C746 1.327 . S
C748 C767 1.429 . S
C748 H772 0.950 . S
C749 C766 1.574 . S
C749 C768 1.368 . S
C749 H773 0.949 . S
H750 C754 0.949 . S
C751 C752 1.349 . S
C751 C753 1.327 . S
C751 H774 0.950 . S
C752 C751 1.349 . S
C752 C764 1.349 . S
C753 C751 1.327 . S
C753 C769 1.429 . S
C753 H775 0.950 . S
C754 H750 0.949 . S
C754 C762 1.574 . S
C754 C770 1.368 . S
H755 C763 0.950 . S
H756 C761 0.950 . S
H757 C762 0.949 . S
H758 C764 0.950 . S
H759 C765 0.950 . S
H760 C766 0.949 . S
C761 H756 0.950 . S
C761 C763 1.327 . S
C761 C767 1.429 . S
C762 C754 1.574 . S
C762 H757 0.949 . S
C762 C768 1.368 . S
C763 C747 1.349 . S
C763 H755 0.950 . S
C763 C761 1.327 . S
C764 C752 1.349 . S
C764 H758 0.950 . S
C764 C765 1.327 . S
C765 H759 0.950 . S
C765 C764 1.327 . S
C765 C769 1.429 . S
C766 C749 1.574 . S
C766 H760 0.949 . S
C766 C770 1.368 . S
C767 C748 1.429 . S
C767 C761 1.429 . S
C767 C768 1.523 . S
C768 C749 1.368 . S
C768 C762 1.368 . S
C768 C767 1.523 . S
C769 C753 1.429 . S
C769 C765 1.429 . S
C769 C770 1.523 . S
C770 C754 1.368 . S
C770 C766 1.368 . S
C770 C769 1.523 . S
H771 C746 0.950 . S
H772 C748 0.950 . S
H773 C749 0.949 . S
H774 C751 0.950 . S
H775 C753 0.950 . S
C776 C777 1.349 . S
C776 C778 1.327 . S
C776 H801 0.950 . S
C777 C776 1.349 . S
C777 C793 1.349 . S
C778 C776 1.327 . S
C778 C797 1.429 . S
C778 H802 0.950 . S
C779 C796 1.574 . S
C779 C798 1.368 . S
C779 H803 0.949 . S
H780 C784 0.949 . S
C781 C782 1.349 . S
C781 C783 1.327 . S
C781 H804 0.950 . S
C782 C781 1.349 . S
C782 C794 1.349 . S
C783 C781 1.327 . S
C783 C799 1.429 . S
C783 H805 0.950 . S
C784 H780 0.949 . S
C784 C792 1.574 . S
C784 C800 1.368 . S
H785 C793 0.950 . S
H786 C791 0.950 . S
H787 C792 0.949 . S
H788 C794 0.950 . S
H789 C795 0.950 . S
H790 C796 0.949 . S
C791 H786 0.950 . S
C791 C793 1.327 . S
C791 C797 1.429 . S
C792 C784 1.574 . S
C792 H787 0.949 . S
C792 C798 1.368 . S
C793 C777 1.349 . S
C793 H785 0.950 . S
C793 C791 1.327 . S
C794 C782 1.349 . S
C794 H788 0.950 . S
C794 C795 1.327 . S
C795 H789 0.950 . S
C795 C794 1.327 . S
C795 C799 1.429 . S
C796 C779 1.574 . S
C796 H790 0.949 . S
C796 C800 1.368 . S
C797 C778 1.429 . S
C797 C791 1.429 . S
C797 C798 1.523 . S
C798 C779 1.368 . S
C798 C792 1.368 . S
C798 C797 1.523 . S
C799 C783 1.429 . S
C799 C795 1.429 . S
C799 C800 1.523 . S
C800 C784 1.368 . S
C800 C796 1.368 . S
C800 C799 1.523 . S
H801 C776 0.950 . S
H802 C778 0.950 . S
H803 C779 0.949 . S
H804 C781 0.950 . S
H805 C783 0.950 . S
C806 C807 1.349 . S
C806 C808 1.327 . S
C806 H831 0.950 . S
C807 C806 1.349 . S
C807 C823 1.349 . S
C808 C806 1.327 . S
C808 C827 1.429 . S
C808 H832 0.950 . S
C809 C826 1.574 . S
C809 C828 1.368 . S
C809 H833 0.949 . S
H810 C814 0.949 . S
C811 C812 1.349 . S
C811 C813 1.327 . S
C811 H834 0.950 . S
C812 C811 1.349 . S
C812 C824 1.349 . S
C813 C811 1.327 . S
C813 C829 1.429 . S
C813 H835 0.950 . S
C814 H810 0.949 . S
C814 C822 1.574 . S
C814 C830 1.368 . S
H815 C823 0.950 . S
H816 C821 0.950 . S
H817 C822 0.949 . S
H818 C824 0.950 . S
H819 C825 0.950 . S
H820 C826 0.949 . S
C821 H816 0.950 . S
C821 C823 1.327 . S
C821 C827 1.429 . S
C822 C814 1.574 . S
C822 H817 0.949 . S
C822 C828 1.368 . S
C823 C807 1.349 . S
C823 H815 0.950 . S
C823 C821 1.327 . S
C824 C812 1.349 . S
C824 H818 0.950 . S
C824 C825 1.327 . S
C825 H819 0.950 . S
C825 C824 1.327 . S
C825 C829 1.429 . S
C826 C809 1.574 . S
C826 H820 0.949 . S
C826 C830 1.368 . S
C827 C808 1.429 . S
C827 C821 1.429 . S
C827 C828 1.523 . S
C828 C809 1.368 . S
C828 C822 1.368 . S
C828 C827 1.523 . S
C829 C813 1.429 . S
C829 C825 1.429 . S
C829 C830 1.523 . S
C830 C814 1.368 . S
C830 C826 1.368 . S
C830 C829 1.523 . S
H831 C806 0.950 . S
H832 C808 0.950 . S
H833 C809 0.949 . S
H834 C811 0.950 . S
H835 C813 0.950 . S
C836 C837 1.349 . S
C836 C838 1.327 . S
C836 H861 0.950 . S
C837 C836 1.349 . S
C837 C853 1.349 . S
C838 C836 1.327 . S
C838 C857 1.429 . S
C838 H862 0.950 . S
C839 C856 1.574 . S
C839 C858 1.368 . S
C839 H863 0.949 . S
H840 C844 0.949 . S
C841 C842 1.334 1_554 S
C841 C843 1.320 1_554 S
C841 H864 0.972 . S
C842 C841 1.334 1_556 S
C842 C854 1.349 . S
C843 C841 1.320 1_556 S
C843 C859 1.429 . S
C843 H865 0.950 1_556 S
C844 H840 0.949 . S
C844 C852 1.574 . S
C844 C860 1.368 . S
H845 C853 0.950 . S
H846 C851 0.950 . S
H847 C852 0.949 . S
H848 C854 0.950 . S
H849 C855 0.950 . S
H850 C856 0.949 . S
C851 H846 0.950 . S
C851 C853 1.327 . S
C851 C857 1.429 . S
C852 C844 1.574 . S
C852 H847 0.949 . S
C852 C858 1.368 . S
C853 C837 1.349 . S
C853 H845 0.950 . S
C853 C851 1.327 . S
C854 C842 1.349 . S
C854 H848 0.950 . S
C854 C855 1.327 . S
C855 H849 0.950 . S
C855 C854 1.327 . S
C855 C859 1.429 . S
C856 C839 1.574 . S
C856 H850 0.949 . S
C856 C860 1.368 . S
C857 C838 1.429 . S
C857 C851 1.429 . S
C857 C858 1.523 . S
C858 C839 1.368 . S
C858 C852 1.368 . S
C858 C857 1.523 . S
C859 C843 1.429 . S
C859 C855 1.429 . S
C859 C860 1.523 . S
C860 C844 1.368 . S
C860 C856 1.368 . S
C860 C859 1.523 . S
H861 C836 0.950 . S
H862 C838 0.950 . S
H863 C839 0.949 . S
H864 C841 0.972 . S
H865 C843 0.950 1_554 S
C866 C867 1.349 . S
C866 C868 1.327 . S
C866 H891 0.950 . S
C867 C866 1.349 . S
C867 C883 1.349 . S
C868 C866 1.327 . S
C868 C887 1.429 . S
C868 H892 0.950 . S
C869 C886 1.574 . S
C869 C888 1.368 . S
C869 H893 0.949 . S
H870 C874 0.949 . S
C871 C872 1.349 . S
C871 C873 1.327 . S
C871 H894 0.950 . S
C872 C871 1.349 . S
C872 C884 1.349 . S
C873 C871 1.327 . S
C873 C889 1.429 . S
C873 H895 0.950 . S
C874 H870 0.949 . S
C874 C882 1.574 . S
C874 C890 1.368 . S
H875 C883 0.950 . S
H876 C881 0.950 . S
H877 C882 0.949 . S
H878 C884 0.950 . S
H879 C885 0.950 . S
H880 C886 0.949 . S
C881 H876 0.950 . S
C881 C883 1.327 . S
C881 C887 1.429 . S
C882 C874 1.574 . S
C882 H877 0.949 . S
C882 C888 1.368 . S
C883 C867 1.349 . S
C883 H875 0.950 . S
C883 C881 1.327 . S
C884 C872 1.349 . S
C884 H878 0.950 . S
C884 C885 1.327 . S
C885 H879 0.950 . S
C885 C884 1.327 . S
C885 C889 1.429 . S
C886 C869 1.574 . S
C886 H880 0.949 . S
C886 C890 1.368 . S
C887 C868 1.429 . S
C887 C881 1.429 . S
C887 C888 1.523 . S
C888 C869 1.368 . S
C888 C882 1.368 . S
C888 C887 1.523 . S
C889 C873 1.429 . S
C889 C885 1.429 . S
C889 C890 1.523 . S
C890 C874 1.368 . S
C890 C886 1.368 . S
C890 C889 1.523 . S
H891 C866 0.950 . S
H892 C868 0.950 . S
H893 C869 0.949 . S
H894 C871 0.950 . S
H895 C873 0.950 . S
C896 C897 1.349 . S
C896 C898 1.327 . S
C896 H921 0.950 . S
C897 C896 1.349 . S
C897 C913 1.349 . S
C898 C896 1.327 . S
C898 C917 1.429 . S
C898 H922 0.950 . S
C899 C916 1.574 . S
C899 C918 1.368 . S
C899 H923 0.949 . S
H900 C904 0.949 . S
C901 C902 1.349 . S
C901 C903 1.327 . S
C901 H924 0.950 . S
C902 C901 1.349 . S
C902 C914 1.349 . S
C903 C901 1.327 . S
C903 C919 1.429 . S
C903 H925 0.950 . S
C904 H900 0.949 . S
C904 C912 1.574 . S
C904 C920 1.368 . S
H905 C913 0.950 . S
H906 C911 0.950 . S
H907 C912 0.949 . S
H908 C914 0.958 . S
H909 C915 0.950 . S
H910 C916 0.949 . S
C911 H906 0.950 . S
C911 C913 1.327 . S
C911 C917 1.429 . S
C912 C904 1.574 . S
C912 H907 0.949 . S
C912 C918 1.368 . S
C913 C897 1.349 . S
C913 H905 0.950 . S
C913 C911 1.327 . S
C914 C902 1.349 . S
C914 H908 0.958 . S
C914 C915 1.327 . S
C915 H909 0.950 . S
C915 C914 1.327 . S
C915 C919 1.429 . S
C916 C899 1.574 . S
C916 H910 0.949 . S
C916 C920 1.368 . S
C917 C898 1.429 . S
C917 C911 1.429 . S
C917 C918 1.523 . S
C918 C899 1.368 . S
C918 C912 1.368 . S
C918 C917 1.523 . S
C919 C903 1.429 . S
C919 C915 1.429 . S
C919 C920 1.523 . S
C920 C904 1.368 . S
C920 C916 1.368 . S
C920 C919 1.523 . S
H921 C896 0.950 . S
H922 C898 0.950 . S
H923 C899 0.949 . S
H924 C901 0.950 . S
H925 C903 0.950 . S
C926 C927 1.349 . S
C926 C928 1.327 . S
C926 H951 0.950 . S
C927 C926 1.349 . S
C927 C943 1.349 . S
C928 C926 1.327 . S
C928 C947 1.429 . S
C928 H952 0.950 . S
C929 C946 1.574 . S
C929 C948 1.368 . S
C929 H953 0.949 . S
H930 C934 0.949 . S
C931 C932 1.349 . S
C931 C933 1.327 . S
C931 H954 0.950 . S
C932 C931 1.349 . S
C932 C944 1.349 . S
C933 C931 1.327 . S
C933 C949 1.429 . S
C933 H955 0.950 . S
C934 H930 0.949 . S
C934 C942 1.574 . S
C934 C950 1.368 . S
H935 C943 0.950 . S
H936 C941 0.950 . S
H937 C942 0.949 . S
H938 C944 0.950 . S
H939 C945 0.950 . S
H940 C946 0.949 . S
C941 H936 0.950 . S
C941 C943 1.327 . S
C941 C947 1.429 . S
C942 C934 1.574 . S
C942 H937 0.949 . S
C942 C948 1.368 . S
C943 C927 1.349 . S
C943 H935 0.950 . S
C943 C941 1.327 . S
C944 C932 1.349 . S
C944 H938 0.950 . S
C944 C945 1.327 . S
C945 H939 0.950 . S
C945 C944 1.327 . S
C945 C949 1.429 . S
C946 C929 1.574 . S
C946 H940 0.949 . S
C946 C950 1.368 . S
C947 C928 1.429 . S
C947 C941 1.429 . S
C947 C948 1.523 . S
C948 C929 1.368 . S
C948 C942 1.368 . S
C948 C947 1.523 . S
C949 C933 1.429 . S
C949 C945 1.429 . S
C949 C950 1.523 . S
C950 C934 1.368 . S
C950 C946 1.368 . S
C950 C949 1.523 . S
H951 C926 0.950 . S
H952 C928 0.950 . S
H953 C929 0.949 . S
H954 C931 0.950 . S
H955 C933 0.950 . S
C237 C6 1.913 . S
C242 C168 1.863 . S
C267 C21 2.048 . S
C272 C190 2.005 1_556 S
C302 C209 0.734 . S
C297 C49 0.717 . S
C327 C68 1.397 . S
C332 C230 1.255 . S
C362 C187 2.560 . S
C357 C2 2.650 . S
C392 C165 1.355 . S
C387 C30 1.271 . S
C422 C232 0.971 . S
C417 C40 0.991 . S
C452 C211 1.105 . S
C447 C63 1.181 . S
C477 C11 1.575 . S
C482 C229 1.718 . S
C512 C188 1.445 . S
C507 C44 1.728 . S
C537 C59 1.308 . S
C542 C170 1.152 . S
C567 C25 1.731 . S
C572 C208 1.686 . S
C602 C166 2.077 . S
C597 C82 2.180 . S
C627 C101 1.592 . S
C632 C186 1.553 . S
C657 C125 1.169 . S
C662 C212 1.051 . S
C687 C144 0.982 . S
C692 C233 0.926 . S
C717 C87 1.353 . S
C722 C189 1.468 . S
C752 C169 2.536 . S
C747 C97 2.561 . S
C782 C228 0.918 . S
C777 C120 0.969 . S
C812 C207 1.242 . S
C807 C135 1.256 . S
C837 C78 1.942 . S
C842 C231 1.881 . S
C872 C191 0.918 . S
C867 C116 1.030 . S
C902 C167 1.386 . S
C897 C139 1.583 . S
C927 C106 1.367 . S
C932 C210 1.458 . S
