# Generated by pormake.
# Topology ptr, (4,4)-cn, num edge types: 1
# Building blocks:
#     Node 0, Type 0, BuildingBlock: QUQFOY_clean_sbu_1, # of connection points: 4
#     Node 1, Type 0, BuildingBlock: QUQFOY_clean_sbu_1, # of connection points: 4
#     Node 2, Type 0, BuildingBlock: QUQFOY_clean_sbu_1, # of connection points: 4
#     Node 3, Type 0, BuildingBlock: QUQFOY_clean_sbu_1, # of connection points: 4
#     Node 4, Type 0, BuildingBlock: QUQFOY_clean_sbu_1, # of connection points: 4
#     Node 5, Type 0, BuildingBlock: QUQFOY_clean_sbu_1, # of connection points: 4
#     Node 6, Type 0, BuildingBlock: QUQFOY_clean_sbu_1, # of connection points: 4
#     Node 7, Type 0, BuildingBlock: QUQFOY_clean_sbu_1, # of connection points: 4
#     Node 8, Type 0, BuildingBlock: QUQFOY_clean_sbu_1, # of connection points: 4
#     Node 9, Type 0, BuildingBlock: QUQFOY_clean_sbu_1, # of connection points: 4
#     Node 10, Type 0, BuildingBlock: QUQFOY_clean_sbu_1, # of connection points: 4
#     Node 11, Type 0, BuildingBlock: QUQFOY_clean_sbu_1, # of connection points: 4
#     Node 12, Type 0, BuildingBlock: QUQFOY_clean_sbu_1, # of connection points: 4
#     Node 13, Type 0, BuildingBlock: QUQFOY_clean_sbu_1, # of connection points: 4
#     Node 14, Type 0, BuildingBlock: QUQFOY_clean_sbu_1, # of connection points: 4
#     Node 15, Type 0, BuildingBlock: QUQFOY_clean_sbu_1, # of connection points: 4
#     Node 16, Type 0, BuildingBlock: QUQFOY_clean_sbu_1, # of connection points: 4
#     Node 17, Type 0, BuildingBlock: QUQFOY_clean_sbu_1, # of connection points: 4
#     Node 18, Type 1, BuildingBlock: MIFKUJ_clean_linker_1, # of connection points: 4
#     Node 19, Type 1, BuildingBlock: MIFKUJ_clean_linker_1, # of connection points: 4
#     Node 20, Type 1, BuildingBlock: MIFKUJ_clean_linker_1, # of connection points: 4
#     Node 21, Type 1, BuildingBlock: MIFKUJ_clean_linker_1, # of connection points: 4
#     Node 22, Type 1, BuildingBlock: MIFKUJ_clean_linker_1, # of connection points: 4
#     Node 23, Type 1, BuildingBlock: MIFKUJ_clean_linker_1, # of connection points: 4
#     Node 24, Type 1, BuildingBlock: MIFKUJ_clean_linker_1, # of connection points: 4
#     Node 25, Type 1, BuildingBlock: MIFKUJ_clean_linker_1, # of connection points: 4
#     Node 26, Type 1, BuildingBlock: MIFKUJ_clean_linker_1, # of connection points: 4
#     Node 27, Type 1, BuildingBlock: MIFKUJ_clean_linker_1, # of connection points: 4
#     Node 28, Type 1, BuildingBlock: MIFKUJ_clean_linker_1, # of connection points: 4
#     Node 29, Type 1, BuildingBlock: MIFKUJ_clean_linker_1, # of connection points: 4
#     Node 30, Type 1, BuildingBlock: MIFKUJ_clean_linker_1, # of connection points: 4
#     Node 31, Type 1, BuildingBlock: MIFKUJ_clean_linker_1, # of connection points: 4
#     Node 32, Type 1, BuildingBlock: MIFKUJ_clean_linker_1, # of connection points: 4
#     Node 33, Type 1, BuildingBlock: MIFKUJ_clean_linker_1, # of connection points: 4
#     Node 34, Type 1, BuildingBlock: MIFKUJ_clean_linker_1, # of connection points: 4
#     Node 35, Type 1, BuildingBlock: MIFKUJ_clean_linker_1, # of connection points: 4
#     Edge 36, Type (0, 1), BuildingBlock: UVAHIK_clean_linker_0, # of connection points: 2
#     Edge 37, Type (0, 1), BuildingBlock: UVAHIK_clean_linker_0, # of connection points: 2
#     Edge 38, Type (0, 1), BuildingBlock: UVAHIK_clean_linker_0, # of connection points: 2
#     Edge 39, Type (0, 1), BuildingBlock: UVAHIK_clean_linker_0, # of connection points: 2
#     Edge 40, Type (0, 1), BuildingBlock: UVAHIK_clean_linker_0, # of connection points: 2
#     Edge 41, Type (0, 1), BuildingBlock: UVAHIK_clean_linker_0, # of connection points: 2
#     Edge 42, Type (0, 1), BuildingBlock: UVAHIK_clean_linker_0, # of connection points: 2
#     Edge 43, Type (0, 1), BuildingBlock: UVAHIK_clean_linker_0, # of connection points: 2
#     Edge 44, Type (0, 1), BuildingBlock: UVAHIK_clean_linker_0, # of connection points: 2
#     Edge 45, Type (0, 1), BuildingBlock: UVAHIK_clean_linker_0, # of connection points: 2
#     Edge 46, Type (0, 1), BuildingBlock: UVAHIK_clean_linker_0, # of connection points: 2
#     Edge 47, Type (0, 1), BuildingBlock: UVAHIK_clean_linker_0, # of connection points: 2
#     Edge 48, Type (0, 1), BuildingBlock: UVAHIK_clean_linker_0, # of connection points: 2
#     Edge 49, Type (0, 1), BuildingBlock: UVAHIK_clean_linker_0, # of connection points: 2
#     Edge 50, Type (0, 1), BuildingBlock: UVAHIK_clean_linker_0, # of connection points: 2
#     Edge 51, Type (0, 1), BuildingBlock: UVAHIK_clean_linker_0, # of connection points: 2
#     Edge 52, Type (0, 1), BuildingBlock: UVAHIK_clean_linker_0, # of connection points: 2
#     Edge 53, Type (0, 1), BuildingBlock: UVAHIK_clean_linker_0, # of connection points: 2
#     Edge 54, Type (0, 1), BuildingBlock: UVAHIK_clean_linker_0, # of connection points: 2
#     Edge 55, Type (0, 1), BuildingBlock: UVAHIK_clean_linker_0, # of connection points: 2
#     Edge 56, Type (0, 1), BuildingBlock: UVAHIK_clean_linker_0, # of connection points: 2
#     Edge 57, Type (0, 1), BuildingBlock: UVAHIK_clean_linker_0, # of connection points: 2
#     Edge 58, Type (0, 1), BuildingBlock: UVAHIK_clean_linker_0, # of connection points: 2
#     Edge 59, Type (0, 1), BuildingBlock: UVAHIK_clean_linker_0, # of connection points: 2
#     Edge 60, Type (0, 1), BuildingBlock: UVAHIK_clean_linker_0, # of connection points: 2
#     Edge 61, Type (0, 1), BuildingBlock: UVAHIK_clean_linker_0, # of connection points: 2
#     Edge 62, Type (0, 1), BuildingBlock: UVAHIK_clean_linker_0, # of connection points: 2
#     Edge 63, Type (0, 1), BuildingBlock: UVAHIK_clean_linker_0, # of connection points: 2
#     Edge 64, Type (0, 1), BuildingBlock: UVAHIK_clean_linker_0, # of connection points: 2
#     Edge 65, Type (0, 1), BuildingBlock: UVAHIK_clean_linker_0, # of connection points: 2
#     Edge 66, Type (0, 1), BuildingBlock: UVAHIK_clean_linker_0, # of connection points: 2
#     Edge 67, Type (0, 1), BuildingBlock: UVAHIK_clean_linker_0, # of connection points: 2
#     Edge 68, Type (0, 1), BuildingBlock: UVAHIK_clean_linker_0, # of connection points: 2
#     Edge 69, Type (0, 1), BuildingBlock: UVAHIK_clean_linker_0, # of connection points: 2
#     Edge 70, Type (0, 1), BuildingBlock: UVAHIK_clean_linker_0, # of connection points: 2
#     Edge 71, Type (0, 1), BuildingBlock: UVAHIK_clean_linker_0, # of connection points: 2
#     Edge 72, Type (0, 1), BuildingBlock: UVAHIK_clean_linker_0, # of connection points: 2
#     Edge 73, Type (0, 1), BuildingBlock: UVAHIK_clean_linker_0, # of connection points: 2
#     Edge 74, Type (0, 1), BuildingBlock: UVAHIK_clean_linker_0, # of connection points: 2
#     Edge 75, Type (0, 1), BuildingBlock: UVAHIK_clean_linker_0, # of connection points: 2
#     Edge 76, Type (0, 1), BuildingBlock: UVAHIK_clean_linker_0, # of connection points: 2
#     Edge 77, Type (0, 1), BuildingBlock: UVAHIK_clean_linker_0, # of connection points: 2
#     Edge 78, Type (0, 1), BuildingBlock: UVAHIK_clean_linker_0, # of connection points: 2
#     Edge 79, Type (0, 1), BuildingBlock: UVAHIK_clean_linker_0, # of connection points: 2
#     Edge 80, Type (0, 1), BuildingBlock: UVAHIK_clean_linker_0, # of connection points: 2
#     Edge 81, Type (0, 1), BuildingBlock: UVAHIK_clean_linker_0, # of connection points: 2
#     Edge 82, Type (0, 1), BuildingBlock: UVAHIK_clean_linker_0, # of connection points: 2
#     Edge 83, Type (0, 1), BuildingBlock: UVAHIK_clean_linker_0, # of connection points: 2
#     Edge 84, Type (0, 1), BuildingBlock: UVAHIK_clean_linker_0, # of connection points: 2
#     Edge 85, Type (0, 1), BuildingBlock: UVAHIK_clean_linker_0, # of connection points: 2
#     Edge 86, Type (0, 1), BuildingBlock: UVAHIK_clean_linker_0, # of connection points: 2
#     Edge 87, Type (0, 1), BuildingBlock: UVAHIK_clean_linker_0, # of connection points: 2
#     Edge 88, Type (0, 1), BuildingBlock: UVAHIK_clean_linker_0, # of connection points: 2
#     Edge 89, Type (0, 1), BuildingBlock: UVAHIK_clean_linker_0, # of connection points: 2
#     Edge 90, Type (0, 1), BuildingBlock: UVAHIK_clean_linker_0, # of connection points: 2
#     Edge 91, Type (0, 1), BuildingBlock: UVAHIK_clean_linker_0, # of connection points: 2
#     Edge 92, Type (0, 1), BuildingBlock: UVAHIK_clean_linker_0, # of connection points: 2
#     Edge 93, Type (0, 1), BuildingBlock: UVAHIK_clean_linker_0, # of connection points: 2
#     Edge 94, Type (0, 1), BuildingBlock: UVAHIK_clean_linker_0, # of connection points: 2
#     Edge 95, Type (0, 1), BuildingBlock: UVAHIK_clean_linker_0, # of connection points: 2
#     Edge 96, Type (0, 1), BuildingBlock: UVAHIK_clean_linker_0, # of connection points: 2
#     Edge 97, Type (0, 1), BuildingBlock: UVAHIK_clean_linker_0, # of connection points: 2
#     Edge 98, Type (0, 1), BuildingBlock: UVAHIK_clean_linker_0, # of connection points: 2
#     Edge 99, Type (0, 1), BuildingBlock: UVAHIK_clean_linker_0, # of connection points: 2
#     Edge 100, Type (0, 1), BuildingBlock: UVAHIK_clean_linker_0, # of connection points: 2
#     Edge 101, Type (0, 1), BuildingBlock: UVAHIK_clean_linker_0, # of connection points: 2
#     Edge 102, Type (0, 1), BuildingBlock: UVAHIK_clean_linker_0, # of connection points: 2
#     Edge 103, Type (0, 1), BuildingBlock: UVAHIK_clean_linker_0, # of connection points: 2
#     Edge 104, Type (0, 1), BuildingBlock: UVAHIK_clean_linker_0, # of connection points: 2
#     Edge 105, Type (0, 1), BuildingBlock: UVAHIK_clean_linker_0, # of connection points: 2
#     Edge 106, Type (0, 1), BuildingBlock: UVAHIK_clean_linker_0, # of connection points: 2
#     Edge 107, Type (0, 1), BuildingBlock: UVAHIK_clean_linker_0, # of connection points: 2
# Relax obj value: 0.012
# Max RMSD: 0.044
# Mean RMSD: 0.040
data_MOF--net-ptr--node1-QUQFOY_clean_sbu_1--node2-MIFKUJ_clean_linker_1--edge1-UVAHIK_clean_linker_0
_symmetry_space_group_name_H-M    P1
_symmetry_Int_Tables_number       1
_symmetry_cell_setting            triclinic
loop_
_symmetry_equiv_pos_as_xyz
'x, y, z'
_cell_length_a     113.71841
_cell_length_b     113.70623
_cell_length_c     78.382194
_cell_angle_alpha  90.097341
_cell_angle_beta   89.900403
_cell_angle_gamma 119.94051
loop_
_atom_site_label
_atom_site_type_symbol
_atom_site_fract_x
_atom_site_fract_y
_atom_site_fract_z
_atom_type_partial_charge
O0 O 0.01002 0.37314 0.04364 0.0
Cd1 Cd 0.01706 0.36729 0.02288 0.0
Cd2 Cd 0.99019 0.35337 0.01484 0.0
O3 O 0.98815 0.36137 0.03773 0.0
O4 O 0.03586 0.372 0.02928 0.0
O5 O 0.01936 0.35089 0.02527 0.0
C6 C 0.03181 0.3592 0.02946 0.0
C7 C 0.97687 0.33026 0.0088 0.0
C8 C 0.99779 0.36951 0.04738 0.0
C9 C 0.00878 0.37487 0.9901 0.0
O10 O 0.99666 0.36601 0.99391 0.0
O11 O 0.01857 0.37686 0.9998 0.0
O12 O 0.97177 0.33815 0.00899 0.0
O13 O 0.98956 0.33541 0.0126 0.0
O14 O 0.6286 0.63494 0.03972 0.0
Cd15 Cd 0.63565 0.64792 0.01917 0.0
Cd16 Cd 0.64894 0.63431 0.01217 0.0
O17 O 0.64121 0.62544 0.03574 0.0
O18 O 0.63274 0.66339 0.02476 0.0
O19 O 0.65313 0.66557 0.02212 0.0
C20 C 0.64576 0.67099 0.02551 0.0
C21 C 0.67175 0.64244 0.00533 0.0
C22 C 0.63252 0.62678 0.04451 0.0
C23 C 0.6277 0.63172 0.98697 0.0
O24 O 0.63595 0.62782 0.99145 0.0
O25 O 0.62634 0.64027 0.99597 0.0
O26 O 0.66314 0.62962 0.00607 0.0
O27 O 0.66751 0.65076 0.00914 0.0
O28 O 0.3754 0.01059 0.99383 0.0
Cd29 Cd 0.36729 0.01532 0.01455 0.0
Cd30 Cd 0.35375 0.98832 0.01836 0.0
O31 O 0.36167 0.98844 0.99453 0.0
O32 O 0.37075 0.03407 0.01052 0.0
O33 O 0.35015 0.016 0.01063 0.0
C34 C 0.35784 0.02894 0.00857 0.0
C35 C 0.33085 0.97365 0.0246 0.0
C36 C 0.37116 0.99891 0.98732 0.0
C37 C 0.37414 0.00488 0.0455 0.0
O38 O 0.36661 0.99323 0.039 0.0
O39 O 0.37518 0.01539 0.03834 0.0
O40 O 0.33931 0.96929 0.023 0.0
O41 O 0.3353 0.9864 0.02193 0.0
O42 O 0.99537 0.63057 0.98905 0.0
Cd43 Cd 0.98879 0.63655 0.01026 0.0
Cd44 Cd 0.01585 0.64984 0.01723 0.0
O45 O 0.01743 0.64248 0.99375 0.0
O46 O 0.97 0.6322 0.00444 0.0
O47 O 0.9868 0.65317 0.00847 0.0
C48 C 0.97424 0.64504 0.00458 0.0
C49 C 0.03052 0.6724 0.02506 0.0
C50 C 0.00748 0.63429 0.98455 0.0
C51 C 0.9973 0.62795 0.04179 0.0
O52 O 0.00936 0.6363 0.03718 0.0
O53 O 0.9873 0.62679 0.03321 0.0
O54 O 0.03461 0.6637 0.02402 0.0
O55 O 0.0181 0.66843 0.02092 0.0
O56 O 0.37501 0.36742 0.99499 0.0
Cd57 Cd 0.36813 0.35429 0.01549 0.0
Cd58 Cd 0.35365 0.36683 0.021 0.0
O59 O 0.36089 0.37532 0.99726 0.0
O60 O 0.37312 0.34031 0.00955 0.0
O61 O 0.35186 0.33565 0.0121 0.0
C62 C 0.36035 0.3316 0.00841 0.0
C63 C 0.33067 0.35764 0.02767 0.0
C64 C 0.37034 0.37474 0.9893 0.0
C65 C 0.37509 0.37115 0.04697 0.0
O66 O 0.36687 0.37475 0.04135 0.0
O67 O 0.37657 0.36218 0.03909 0.0
O68 O 0.33872 0.37056 0.02653 0.0
O69 O 0.3356 0.34979 0.02451 0.0
O70 O 0.62927 0.9943 0.04277 0.0
Cd71 Cd 0.63546 0.98732 0.02222 0.0
Cd72 Cd 0.6486 0.0145 0.01428 0.0
O73 O 0.64047 0.01624 0.03713 0.0
O74 O 0.6309 0.96871 0.02937 0.0
O75 O 0.65195 0.98516 0.02489 0.0
C76 C 0.64371 0.97282 0.02957 0.0
C77 C 0.67135 0.02958 0.00761 0.0
C78 C 0.63251 0.0064 0.04665 0.0
C79 C 0.62745 0.99502 0.98945 0.0
O80 O 0.63575 0.00722 0.99362 0.0
O81 O 0.62599 0.98528 0.99889 0.0
O82 O 0.66235 0.03331 0.00749 0.0
O83 O 0.66752 0.01726 0.01212 0.0
O84 O 0.67751 0.70897 0.37289 0.0
Cd85 Cd 0.68299 0.70101 0.3527 0.0
Cd86 Cd 0.65607 0.68749 0.34779 0.0
O87 O 0.65539 0.69534 0.3714 0.0
O88 O 0.70193 0.70554 0.35807 0.0
O89 O 0.68478 0.68448 0.3569 0.0
C90 C 0.69749 0.69274 0.35988 0.0
C91 C 0.64297 0.66438 0.34166 0.0
C92 C 0.66568 0.70483 0.37887 0.0
C93 C 0.67312 0.70781 0.32098 0.0
O94 O 0.66128 0.70034 0.32705 0.0
O95 O 0.68341 0.70878 0.32869 0.0
O96 O 0.63755 0.67195 0.34311 0.0
O97 O 0.65587 0.66986 0.34431 0.0
O98 O 0.29228 0.96892 0.37393 0.0
Cd99 Cd 0.2993 0.98243 0.35391 0.0
Cd100 Cd 0.31228 0.96864 0.3454 0.0
O101 O 0.30468 0.95934 0.36879 0.0
O102 O 0.29657 0.9978 0.3606 0.0
O103 O 0.31688 0.99995 0.35712 0.0
C104 C 0.30959 0.00535 0.36115 0.0
C105 C 0.33476 0.97568 0.33787 0.0
C106 C 0.29613 0.96056 0.37803 0.0
C107 C 0.29092 0.96712 0.32107 0.0
O108 O 0.29908 0.96296 0.32493 0.0
O109 O 0.28977 0.97551 0.33068 0.0
O110 O 0.32558 0.96303 0.33823 0.0
O111 O 0.33129 0.98445 0.34245 0.0
O112 O 0.03999 0.34234 0.32562 0.0
Cd113 Cd 0.03306 0.34843 0.34625 0.0
Cd114 Cd 0.02008 0.3215 0.35275 0.0
O115 O 0.02781 0.32022 0.32933 0.0
O116 O 0.03811 0.3674 0.34032 0.0
O117 O 0.01683 0.35097 0.34318 0.0
C118 C 0.02536 0.36348 0.33952 0.0
C119 C 0.99703 0.30829 0.35891 0.0
C120 C 0.03636 0.33036 0.32068 0.0
C121 C 0.04087 0.33969 0.37837 0.0
O122 O 0.03302 0.32757 0.37343 0.0
O123 O 0.0419 0.34962 0.36972 0.0
O124 O 0.00478 0.30303 0.35809 0.0
O125 O 0.00231 0.32109 0.3557 0.0
O126 O 0.66079 0.96009 0.3246 0.0
Cd127 Cd 0.65441 0.96663 0.34525 0.0
Cd128 Cd 0.68153 0.98083 0.35178 0.0
O129 O 0.68284 0.97315 0.32824 0.0
O130 O 0.63542 0.96153 0.33938 0.0
O131 O 0.65178 0.98282 0.34253 0.0
C132 C 0.63929 0.97428 0.33881 0.0
C133 C 0.69549 0.00383 0.35803 0.0
C134 C 0.67288 0.96426 0.31962 0.0
C135 C 0.66365 0.95952 0.37736 0.0
O136 O 0.67566 0.96803 0.37266 0.0
O137 O 0.65352 0.95771 0.36849 0.0
O138 O 0.70028 0.99569 0.35694 0.0
O139 O 0.68272 0.99899 0.35505 0.0
O140 O 0.04097 0.70377 0.32397 0.0
Cd141 Cd 0.0352 0.69027 0.34412 0.0
Cd142 Cd 0.02121 0.70329 0.35302 0.0
O143 O 0.02856 0.71318 0.33006 0.0
O144 O 0.04038 0.67676 0.33643 0.0
O145 O 0.0191 0.67145 0.34097 0.0
C146 C 0.02766 0.66778 0.33608 0.0
C147 C 0.99854 0.69528 0.36054 0.0
C148 C 0.03694 0.71208 0.32038 0.0
C149 C 0.0431 0.70578 0.37709 0.0
O150 O 0.03459 0.70948 0.37317 0.0
O151 O 0.04459 0.69754 0.36755 0.0
O152 O 0.00732 0.70805 0.36032 0.0
O153 O 0.00253 0.68691 0.35595 0.0
O154 O 0.29648 0.32743 0.37611 0.0
Cd155 Cd 0.30284 0.32028 0.35595 0.0
Cd156 Cd 0.31619 0.3474 0.34786 0.0
O157 O 0.3089 0.3494 0.37128 0.0
O158 O 0.2983 0.30177 0.36351 0.0
O159 O 0.31935 0.31824 0.359 0.0
C160 C 0.31111 0.30594 0.36386 0.0
C161 C 0.33863 0.36255 0.33992 0.0
C162 C 0.3004 0.33961 0.38045 0.0
C163 C 0.29465 0.32776 0.32337 0.0
O164 O 0.30275 0.33998 0.32769 0.0
O165 O 0.29349 0.31803 0.33257 0.0
O166 O 0.32957 0.36618 0.3405 0.0
O167 O 0.33508 0.35031 0.34452 0.0
O168 O 0.34009 0.03931 0.71099 0.0
Cd169 Cd 0.3483 0.03443 0.69056 0.0
Cd170 Cd 0.32142 0.02093 0.68031 0.0
O171 O 0.31862 0.0287 0.70296 0.0
O172 O 0.36681 0.03922 0.69845 0.0
O173 O 0.35097 0.0182 0.69238 0.0
C174 C 0.36311 0.02651 0.6977 0.0
C175 C 0.30656 0.99827 0.67291 0.0
C176 C 0.32781 0.03608 0.71362 0.0
C177 C 0.34186 0.04306 0.65728 0.0
O178 O 0.3296 0.03399 0.65992 0.0
O179 O 0.35107 0.04495 0.66794 0.0
O180 O 0.30291 0.00731 0.67231 0.0
O181 O 0.31866 0.00199 0.67829 0.0
O182 O 0.95966 0.29896 0.70622 0.0
Cd183 Cd 0.96703 0.31243 0.68606 0.0
Cd184 Cd 0.98089 0.29926 0.67978 0.0
O185 O 0.9736 0.29085 0.70356 0.0
O186 O 0.96259 0.32688 0.69163 0.0
O187 O 0.98364 0.33065 0.69034 0.0
C188 C 0.97542 0.33516 0.69331 0.0
C189 C 0.00366 0.30757 0.67253 0.0
C190 C 0.96423 0.29149 0.71167 0.0
C191 C 0.95987 0.29614 0.65398 0.0
O192 O 0.96759 0.29188 0.65944 0.0
O193 O 0.95885 0.30526 0.66217 0.0
O194 O 0.99522 0.29474 0.67383 0.0
O195 O 0.99928 0.31583 0.67602 0.0
O196 O 0.70615 0.67251 0.65948 0.0
Cd197 Cd 0.70028 0.68025 0.67948 0.0
Cd198 Cd 0.68693 0.65348 0.68889 0.0
O199 O 0.69409 0.65076 0.6658 0.0
O200 O 0.70527 0.69877 0.67153 0.0
O201 O 0.68407 0.68281 0.67639 0.0
C202 C 0.69254 0.69498 0.67133 0.0
C203 C 0.66432 0.63888 0.69653 0.0
C204 C 0.70228 0.66019 0.65595 0.0
C205 C 0.70875 0.67355 0.71254 0.0
O206 O 0.70038 0.66122 0.70901 0.0
O207 O 0.70999 0.68297 0.70267 0.0
O208 O 0.6732 0.63499 0.69667 0.0
O209 O 0.66821 0.65111 0.69155 0.0
O210 O 0.32541 0.29327 0.66113 0.0
Cd211 Cd 0.31925 0.30059 0.68136 0.0
Cd212 Cd 0.34622 0.3147 0.68685 0.0
O213 O 0.34741 0.30745 0.66306 0.0
O214 O 0.3003 0.29569 0.67564 0.0
O215 O 0.31703 0.31693 0.67762 0.0
C216 C 0.30443 0.30847 0.67433 0.0
C217 C 0.36071 0.33739 0.69433 0.0
C218 C 0.33736 0.29786 0.65534 0.0
C219 C 0.32876 0.29342 0.71282 0.0
O220 O 0.3406 0.30131 0.70705 0.0
O221 O 0.31843 0.29228 0.70508 0.0
O222 O 0.36504 0.32891 0.69285 0.0
O223 O 0.34811 0.33313 0.69081 0.0
O224 O 0.71013 0.03556 0.6614 0.0
Cd225 Cd 0.70262 0.02234 0.68178 0.0
Cd226 Cd 0.68889 0.03578 0.68672 0.0
O227 O 0.69654 0.04413 0.66303 0.0
O228 O 0.70756 0.00827 0.67608 0.0
O229 O 0.68631 0.00377 0.67797 0.0
C230 C 0.69479 0.99965 0.67458 0.0
C231 C 0.66601 0.02736 0.69333 0.0
C232 C 0.70592 0.04318 0.65543 0.0
C233 C 0.70969 0.03924 0.71321 0.0
O234 O 0.70197 0.04334 0.70724 0.0
O235 O 0.7108 0.02996 0.70557 0.0
O236 O 0.6744 0.0402 0.69206 0.0
O237 O 0.67052 0.01915 0.69021 0.0
O238 O 0.96158 0.66 0.7082 0.0
Cd239 Cd 0.96732 0.65234 0.68796 0.0
Cd240 Cd 0.98151 0.67959 0.67978 0.0
O241 O 0.97453 0.6819 0.70326 0.0
O242 O 0.96173 0.63355 0.6955 0.0
O243 O 0.98313 0.64915 0.691 0.0
C244 C 0.97438 0.637 0.69585 0.0
C245 C 0.00404 0.69427 0.67172 0.0
C246 C 0.96591 0.67226 0.71251 0.0
C247 C 0.95957 0.66034 0.6554 0.0
O248 O 0.96798 0.67248 0.65969 0.0
O249 O 0.95808 0.65048 0.6646 0.0
O250 O 0.99522 0.69822 0.67235 0.0
O251 O 1.00019 0.68196 0.67633 0.0
H252 H 0.15367 0.33508 0.1853 0.0
H253 H 0.13641 0.33601 0.20286 0.0
H254 H 0.10523 0.30022 0.17751 0.0
H255 H 0.12266 0.29922 0.16008 0.0
H256 H 0.16071 0.31596 0.18344 0.0
H257 H 0.14448 0.33731 0.14606 0.0
H258 H 0.12771 0.34043 0.13042 0.0
H259 H 0.11633 0.30376 0.10184 0.0
H260 H 0.1332 0.30068 0.11763 0.0
H261 H 0.17148 0.29979 0.1174 0.0
H262 H 0.19081 0.30286 0.10008 0.0
H263 H 0.21709 0.33955 0.12799 0.0
H264 H 0.19776 0.33659 0.14492 0.0
H265 H 0.16079 0.31686 0.12017 0.0
H266 H 0.18083 0.29821 0.15889 0.0
H267 H 0.19866 0.29803 0.17627 0.0
H268 H 0.20445 0.33388 0.2028 0.0
H269 H 0.1869 0.33416 0.18522 0.0
C270 C 0.13946 0.31711 0.17135 0.0
C271 C 0.14312 0.32742 0.18352 0.0
C272 C 0.13323 0.32801 0.19344 0.0
C273 C 0.11944 0.31823 0.19151 0.0
C274 C 0.11578 0.30786 0.17935 0.0
C275 C 0.1257 0.30732 0.16932 0.0
C276 C 0.15015 0.3166 0.16102 0.0
C277 C 0.16077 0.31621 0.1696 0.0
C278 C 0.1501 0.31677 0.14296 0.0
C279 C 0.13993 0.31862 0.13325 0.0
C280 C 0.13827 0.32984 0.13657 0.0
C281 C 0.12866 0.33161 0.12762 0.0
C282 C 0.12057 0.32227 0.11499 0.0
C283 C 0.12243 0.31117 0.11143 0.0
C284 C 0.13204 0.30937 0.12047 0.0
C285 C 0.1832 0.31788 0.13256 0.0
C286 C 0.18143 0.30846 0.11979 0.0
C287 C 0.19248 0.31019 0.10999 0.0
C288 C 0.20548 0.32146 0.11265 0.0
C289 C 0.2072 0.33084 0.12549 0.0
C290 C 0.19618 0.32908 0.13531 0.0
C291 C 0.17145 0.31636 0.14264 0.0
C292 C 0.16061 0.31634 0.134 0.0
C293 C 0.17147 0.31621 0.16069 0.0
C294 C 0.18257 0.31623 0.1707 0.0
C295 C 0.18606 0.30611 0.16832 0.0
C296 C 0.19617 0.30596 0.17835 0.0
C297 C 0.20299 0.31596 0.19089 0.0
C298 C 0.19953 0.32614 0.1931 0.0
C299 C 0.18942 0.32625 0.18315 0.0
H300 H 0.70548 0.86934 0.17927 0.0
H301 H 0.70503 0.8864 0.19778 0.0
H302 H 0.66725 0.87845 0.1747 0.0
H303 H 0.66738 0.86087 0.15696 0.0
H304 H 0.68878 0.84316 0.17844 0.0
H305 H 0.702 0.87949 0.1383 0.0
H306 H 0.6997 0.89691 0.1228 0.0
H307 H 0.66268 0.86577 0.09975 0.0
H308 H 0.66481 0.84842 0.11556 0.0
H309 H 0.66243 0.81187 0.12017 0.0
H310 H 0.65994 0.79236 0.10419 0.0
H311 H 0.70131 0.80366 0.11682 0.0
H312 H 0.70334 0.82272 0.13362 0.0
H313 H 0.68191 0.83994 0.11578 0.0
H314 H 0.66703 0.8044 0.15682 0.0
H315 H 0.66661 0.78661 0.17458 0.0
H316 H 0.705 0.8159 0.19685 0.0
H317 H 0.70568 0.8335 0.17836 0.0
C318 C 0.68654 0.86389 0.16659 0.0
C319 C 0.6971 0.87128 0.1782 0.0
C320 C 0.6969 0.88115 0.18867 0.0
C321 C 0.68612 0.88386 0.18775 0.0
C322 C 0.67563 0.87654 0.17594 0.0
C323 C 0.67578 0.86659 0.16559 0.0
C324 C 0.68645 0.85289 0.15617 0.0
C325 C 0.68758 0.84263 0.16468 0.0
C326 C 0.68444 0.85198 0.13825 0.0
C327 C 0.68347 0.86262 0.12832 0.0
C328 C 0.69332 0.87641 0.13002 0.0
C329 C 0.69203 0.88636 0.12113 0.0
C330 C 0.681 0.8827 0.11008 0.0
C331 C 0.67136 0.86889 0.10804 0.0
C332 C 0.67257 0.85896 0.11709 0.0
C333 C 0.68304 0.8187 0.12809 0.0
C334 C 0.67094 0.81011 0.11947 0.0
C335 C 0.6696 0.799 0.11021 0.0
C336 C 0.68045 0.79638 0.10904 0.0
C337 C 0.69263 0.80515 0.11762 0.0
C338 C 0.69388 0.81614 0.12713 0.0
C339 C 0.68427 0.83033 0.13811 0.0
C340 C 0.68334 0.84066 0.12951 0.0
C341 C 0.68639 0.8313 0.15595 0.0
C342 C 0.68649 0.82028 0.16603 0.0
C343 C 0.67553 0.80693 0.1652 0.0
C344 C 0.6752 0.79679 0.17558 0.0
C345 C 0.68574 0.7998 0.18723 0.0
C346 C 0.69679 0.81315 0.18788 0.0
C347 C 0.69715 0.82326 0.1774 0.0
H348 H 0.12545 0.83764 0.17112 0.0
H349 H 0.10783 0.8206 0.18951 0.0
H350 H 0.12545 0.7948 0.183 0.0
H351 H 0.14248 0.81158 0.1639 0.0
H352 H 0.15466 0.84969 0.17737 0.0
H353 H 0.12056 0.82335 0.13564 0.0
H354 H 0.10446 0.80257 0.12083 0.0
H355 H 0.13764 0.79716 0.10381 0.0
H356 H 0.15355 0.81747 0.11947 0.0
H357 H 0.18616 0.85035 0.11862 0.0
H358 H 0.20598 0.86607 0.10213 0.0
H359 H 0.20123 0.89948 0.11993 0.0
H360 H 0.18082 0.88354 0.13544 0.0
H361 H 0.16109 0.84273 0.11635 0.0
H362 H 0.19264 0.86185 0.16364 0.0
H363 H 0.20939 0.87896 0.1827 0.0
H364 H 0.18356 0.89657 0.18891 0.0
H365 H 0.16654 0.87885 0.1706 0.0
C366 C 0.13519 0.82581 0.16609 0.0
C367 C 0.12537 0.82821 0.17354 0.0
C368 C 0.11537 0.81848 0.18418 0.0
C369 C 0.11518 0.80627 0.18791 0.0
C370 C 0.12503 0.80391 0.18024 0.0
C371 C 0.13487 0.81354 0.16937 0.0
C372 C 0.14628 0.83642 0.15569 0.0
C373 C 0.15594 0.84831 0.16392 0.0
C374 C 0.14814 0.83434 0.13832 0.0
C375 C 0.13828 0.8219 0.12893 0.0
C376 C 0.12435 0.81758 0.12894 0.0
C377 C 0.11515 0.80577 0.12024 0.0
C378 C 0.11971 0.79811 0.11115 0.0
C379 C 0.13371 0.80263 0.11092 0.0
C380 C 0.14286 0.81435 0.11973 0.0
C381 C 0.18202 0.86572 0.12847 0.0
C382 C 0.18932 0.86105 0.1189 0.0
C383 C 0.20079 0.87011 0.10961 0.0
C384 C 0.20535 0.88412 0.10976 0.0
C385 C 0.19799 0.88878 0.11934 0.0
C386 C 0.1864 0.87967 0.12847 0.0
C387 C 0.16969 0.85592 0.13812 0.0
C388 C 0.15976 0.8442 0.12974 0.0
C389 C 0.16774 0.85792 0.15549 0.0
C390 C 0.17839 0.86913 0.16571 0.0
C391 C 0.19067 0.86948 0.16903 0.0
C392 C 0.20029 0.87936 0.17987 0.0
C393 C 0.1979 0.88922 0.18748 0.0
C394 C 0.18569 0.88902 0.18365 0.0
C395 C 0.17597 0.87897 0.17305 0.0
H396 H 0.29453 0.1665 0.85565 0.0
H397 H 0.29572 0.18399 0.83653 0.0
H398 H 0.33526 0.21245 0.85682 0.0
H399 H 0.33434 0.1947 0.87509 0.0
H400 H 0.30969 0.15526 0.85546 0.0
H401 H 0.30091 0.18123 0.8968 0.0
H402 H 0.3053 0.20182 0.912 0.0
H403 H 0.34267 0.20591 0.93164 0.0
H404 H 0.3386 0.18583 0.91569 0.0
H405 H 0.33974 0.15216 0.91061 0.0
H406 H 0.34337 0.13586 0.92655 0.0
H407 H 0.30159 0.10505 0.91761 0.0
H408 H 0.29829 0.12137 0.90099 0.0
H409 H 0.32091 0.16079 0.91711 0.0
H410 H 0.33358 0.14087 0.87143 0.0
H411 H 0.33307 0.12341 0.85285 0.0
H412 H 0.29059 0.10863 0.84248 0.0
H413 H 0.29144 0.12657 0.8606 0.0
C414 C 0.31427 0.17928 0.86697 0.0
C415 C 0.30343 0.17653 0.85602 0.0
C416 C 0.30408 0.1866 0.84519 0.0
C417 C 0.3156 0.19967 0.84508 0.0
C418 C 0.32631 0.20247 0.85635 0.0
C419 C 0.32571 0.19236 0.86703 0.0
C420 C 0.31406 0.16827 0.87742 0.0
C421 C 0.3118 0.15637 0.86905 0.0
C422 C 0.31724 0.16985 0.89507 0.0
C423 C 0.3195 0.18204 0.90488 0.0
C424 C 0.31011 0.18664 0.90425 0.0
C425 C 0.31256 0.19835 0.91313 0.0
C426 C 0.32439 0.20562 0.92301 0.0
C427 C 0.33359 0.20077 0.92392 0.0
C428 C 0.33119 0.18916 0.91494 0.0
C429 C 0.31876 0.13797 0.90463 0.0
C430 C 0.33138 0.14188 0.91209 0.0
C431 C 0.33339 0.13254 0.92131 0.0
C432 C 0.32275 0.11911 0.92357 0.0
C433 C 0.31009 0.11523 0.916 0.0
C434 C 0.30814 0.12456 0.90656 0.0
C435 C 0.31673 0.14804 0.89505 0.0
C436 C 0.31851 0.15967 0.90361 0.0
C437 C 0.31329 0.14635 0.87757 0.0
C438 C 0.31253 0.13496 0.86746 0.0
C439 C 0.32413 0.13375 0.8653 0.0
C440 C 0.32378 0.12369 0.8547 0.0
C441 C 0.31177 0.11452 0.84609 0.0
C442 C 0.30008 0.11561 0.84863 0.0
C443 C 0.3005 0.1258 0.85909 0.0
H444 H 0.83562 0.13125 0.85689 0.0
H445 H 0.818 0.11497 0.83791 0.0
H446 H 0.78953 0.12571 0.85925 0.0
H447 H 0.80741 0.14251 0.87747 0.0
H448 H 0.84656 0.15755 0.85686 0.0
H449 H 0.82144 0.12267 0.89811 0.0
H450 H 0.80126 0.1064 0.91383 0.0
H451 H 0.79742 0.13951 0.93484 0.0
H452 H 0.81711 0.15561 0.91838 0.0
H453 H 0.85203 0.19083 0.91318 0.0
H454 H 0.86922 0.21031 0.92899 0.0
H455 H 0.89828 0.19715 0.91873 0.0
H456 H 0.88112 0.1781 0.90211 0.0
H457 H 0.84231 0.16278 0.91899 0.0
H458 H 0.86468 0.19686 0.87637 0.0
H459 H 0.88226 0.21347 0.85757 0.0
H460 H 0.89056 0.18252 0.83907 0.0
H461 H 0.87302 0.16596 0.85804 0.0
C462 C 0.82285 0.13806 0.86874 0.0
C463 C 0.82556 0.13005 0.85753 0.0
C464 C 0.81542 0.12064 0.84678 0.0
C465 C 0.8023 0.11899 0.847 0.0
C466 C 0.79954 0.12681 0.85854 0.0
C467 C 0.80973 0.13631 0.86917 0.0
C468 C 0.83398 0.14886 0.87907 0.0
C469 C 0.84575 0.15849 0.87053 0.0
C470 C 0.83273 0.15035 0.89684 0.0
C471 C 0.82072 0.14038 0.90684 0.0
C472 C 0.81616 0.12641 0.90595 0.0
C473 C 0.80469 0.11712 0.91513 0.0
C474 C 0.79762 0.1216 0.92558 0.0
C475 C 0.80241 0.13563 0.92669 0.0
C476 C 0.81379 0.14489 0.91742 0.0
C477 C 0.86531 0.18305 0.90647 0.0
C478 C 0.86212 0.19218 0.91435 0.0
C479 C 0.87198 0.20328 0.92351 0.0
C480 C 0.88521 0.20535 0.92533 0.0
C481 C 0.88832 0.19608 0.91744 0.0
C482 C 0.87849 0.1851 0.90801 0.0
C483 C 0.85478 0.17136 0.89671 0.0
C484 C 0.84316 0.16162 0.90537 0.0
C485 C 0.85611 0.16979 0.87904 0.0
C486 C 0.86762 0.18017 0.8688 0.0
C487 C 0.87051 0.19371 0.8686 0.0
C488 C 0.88055 0.2032 0.8578 0.0
C489 C 0.88779 0.19931 0.8468 0.0
C490 C 0.88506 0.18581 0.84725 0.0
C491 C 0.87507 0.17634 0.85813 0.0
H492 H 0.8198 0.66882 0.84725 0.0
H493 H 0.80319 0.6697 0.82843 0.0
H494 H 0.80645 0.7037 0.85706 0.0
H495 H 0.82321 0.70284 0.87587 0.0
H496 H 0.84519 0.68647 0.85166 0.0
H497 H 0.80642 0.66501 0.88732 0.0
H498 H 0.7864 0.66184 0.90275 0.0
H499 H 0.81163 0.69739 0.93319 0.0
H500 H 0.83171 0.70047 0.91767 0.0
H501 H 0.87026 0.701 0.91852 0.0
H502 H 0.88637 0.69783 0.93591 0.0
H503 H 0.87664 0.66158 0.90728 0.0
H504 H 0.86037 0.66461 0.89032 0.0
H505 H 0.8426 0.68408 0.91482 0.0
H506 H 0.88224 0.70306 0.87715 0.0
H507 H 0.90039 0.7031 0.86011 0.0
H508 H 0.8705 0.66766 0.83288 0.0
H509 H 0.85253 0.66754 0.85007 0.0
C510 C 0.82277 0.68575 0.863 0.0
C511 C 0.81696 0.67648 0.8495 0.0
C512 C 0.80749 0.67701 0.83872 0.0
C513 C 0.80359 0.68684 0.84118 0.0
C514 C 0.80918 0.69595 0.85493 0.0
C515 C 0.81875 0.69546 0.86568 0.0
C516 C 0.83343 0.68551 0.87372 0.0
C517 C 0.84455 0.68584 0.86547 0.0
C518 C 0.83271 0.6849 0.89176 0.0
C519 C 0.82056 0.6831 0.90115 0.0
C520 C 0.80764 0.67223 0.89718 0.0
C521 C 0.79619 0.67044 0.90601 0.0
C522 C 0.79738 0.67943 0.91913 0.0
C523 C 0.81036 0.69023 0.92324 0.0
C524 C 0.82184 0.69203 0.91436 0.0
C525 C 0.86422 0.68313 0.90301 0.0
C526 C 0.87162 0.69238 0.91602 0.0
C527 C 0.88089 0.6906 0.92586 0.0
C528 C 0.8828 0.67945 0.92298 0.0
C529 C 0.87532 0.67019 0.90995 0.0
C530 C 0.86611 0.67199 0.90012 0.0
C531 C 0.85425 0.68486 0.89269 0.0
C532 C 0.84329 0.68488 0.90102 0.0
C533 C 0.85488 0.68538 0.87466 0.0
C534 C 0.86604 0.68526 0.86493 0.0
C535 C 0.87964 0.69522 0.86763 0.0
C536 C 0.88998 0.69529 0.85781 0.0
C537 C 0.88688 0.68536 0.84518 0.0
C538 C 0.87325 0.67534 0.84266 0.0
C539 C 0.86296 0.67532 0.85239 0.0
H540 H 0.81803 0.66651 0.52023 0.0
H541 H 0.80031 0.66518 0.53905 0.0
H542 H 0.77008 0.63137 0.50979 0.0
H543 H 0.78795 0.63269 0.49095 0.0
H544 H 0.82588 0.64883 0.5157 0.0
H545 H 0.80888 0.67077 0.48004 0.0
H546 H 0.79213 0.67391 0.4644 0.0
H547 H 0.78246 0.63859 0.43372 0.0
H548 H 0.79941 0.6356 0.44939 0.0
H549 H 0.83849 0.63657 0.44827 0.0
H550 H 0.85844 0.6409 0.43137 0.0
H551 H 0.88334 0.67632 0.46217 0.0
H552 H 0.86339 0.67216 0.4786 0.0
H553 H 0.82684 0.65262 0.45264 0.0
H554 H 0.84722 0.63323 0.48984 0.0
H555 H 0.86508 0.63296 0.50708 0.0
H556 H 0.86958 0.6675 0.53564 0.0
H557 H 0.85196 0.66785 0.51828 0.0
C558 C 0.80435 0.6497 0.50417 0.0
C559 C 0.80759 0.6588 0.51783 0.0
C560 C 0.79746 0.65801 0.52862 0.0
C561 C 0.78381 0.64808 0.526 0.0
C562 C 0.7805 0.63917 0.51206 0.0
C563 C 0.79069 0.63993 0.50128 0.0
C564 C 0.81541 0.65015 0.49355 0.0
C565 C 0.82612 0.64976 0.50191 0.0
C566 C 0.81561 0.65109 0.47553 0.0
C567 C 0.80527 0.65283 0.46606 0.0
C568 C 0.80305 0.66361 0.47007 0.0
C569 C 0.79343 0.66537 0.46112 0.0
C570 C 0.78585 0.65644 0.44786 0.0
C571 C 0.78819 0.64572 0.44375 0.0
C572 C 0.79784 0.64397 0.45274 0.0
C573 C 0.84947 0.65395 0.46481 0.0
C574 C 0.84826 0.64526 0.45134 0.0
C575 C 0.85968 0.6477 0.44178 0.0
C576 C 0.87248 0.65897 0.44541 0.0
C577 C 0.87362 0.66764 0.4589 0.0
C578 C 0.86224 0.66519 0.46844 0.0
C579 C 0.8374 0.65156 0.47487 0.0
C580 C 0.82647 0.6515 0.4664 0.0
C581 C 0.83715 0.65058 0.49288 0.0
C582 C 0.8483 0.65059 0.50274 0.0
C583 C 0.85217 0.64082 0.4997 0.0
C584 C 0.8623 0.64061 0.50963 0.0
C585 C 0.86876 0.65022 0.5227 0.0
C586 C 0.86494 0.66007 0.52554 0.0
C587 C 0.85479 0.66022 0.51571 0.0
H588 H 0.37657 0.20598 0.51518 0.0
H589 H 0.37635 0.22297 0.53417 0.0
H590 H 0.33722 0.21356 0.51426 0.0
H591 H 0.33732 0.19638 0.49557 0.0
H592 H 0.36056 0.17988 0.51531 0.0
H593 H 0.37106 0.21489 0.47446 0.0
H594 H 0.36818 0.23188 0.45877 0.0
H595 H 0.3303 0.20017 0.43826 0.0
H596 H 0.33299 0.18325 0.45431 0.0
H597 H 0.33019 0.14639 0.46087 0.0
H598 H 0.32659 0.12637 0.44506 0.0
H599 H 0.36887 0.1384 0.45218 0.0
H600 H 0.3721 0.15801 0.46878 0.0
H601 H 0.34967 0.17458 0.45356 0.0
H602 H 0.33629 0.14172 0.49929 0.0
H603 H 0.33667 0.1247 0.51779 0.0
H604 H 0.37928 0.15196 0.52782 0.0
H605 H 0.37858 0.16914 0.5098 0.0
C606 C 0.35703 0.19996 0.5038 0.0
C607 C 0.36797 0.20762 0.51482 0.0
C608 C 0.36783 0.21732 0.52568 0.0
C609 C 0.35677 0.2196 0.52568 0.0
C610 C 0.34597 0.21216 0.51437 0.0
C611 C 0.34603 0.20235 0.50365 0.0
C612 C 0.35669 0.18886 0.49335 0.0
C613 C 0.35849 0.17894 0.50172 0.0
C614 C 0.35361 0.18738 0.47566 0.0
C615 C 0.35215 0.19776 0.46578 0.0
C616 C 0.36206 0.21159 0.46674 0.0
C617 C 0.36043 0.22129 0.45772 0.0
C618 C 0.34902 0.21735 0.44729 0.0
C619 C 0.33927 0.2035 0.44606 0.0
C620 C 0.3408 0.19382 0.45524 0.0
C621 C 0.35139 0.15365 0.46598 0.0
C622 C 0.33865 0.14466 0.45902 0.0
C623 C 0.33666 0.13326 0.44987 0.0
C624 C 0.34745 0.13073 0.44716 0.0
C625 C 0.36024 0.13983 0.45417 0.0
C626 C 0.36216 0.15112 0.46358 0.0
C627 C 0.35341 0.16573 0.47564 0.0
C628 C 0.35197 0.17577 0.46709 0.0
C629 C 0.35677 0.16736 0.49313 0.0
C630 C 0.35742 0.15665 0.50313 0.0
C631 C 0.34574 0.14394 0.50533 0.0
C632 C 0.34601 0.13419 0.51588 0.0
C633 C 0.35802 0.13689 0.52439 0.0
C634 C 0.36979 0.14956 0.52177 0.0
C635 C 0.36946 0.15938 0.51136 0.0
H636 H 0.79793 0.16777 0.50987 0.0
H637 H 0.78138 0.1505 0.52901 0.0
H638 H 0.79088 0.12108 0.50786 0.0
H639 H 0.80796 0.13857 0.48954 0.0
H640 H 0.82433 0.17777 0.51015 0.0
H641 H 0.78986 0.15568 0.46542 0.0
H642 H 0.77331 0.13627 0.4487 0.0
H643 H 0.80428 0.12601 0.43676 0.0
H644 H 0.8208 0.14578 0.45273 0.0
H645 H 0.85697 0.18271 0.45266 0.0
H646 H 0.87643 0.19992 0.43683 0.0
H647 H 0.86416 0.22939 0.44893 0.0
H648 H 0.84515 0.21221 0.46555 0.0
H649 H 0.82912 0.17323 0.44795 0.0
H650 H 0.86357 0.19471 0.48927 0.0
H651 H 0.88111 0.21205 0.50728 0.0
H652 H 0.85144 0.22092 0.52911 0.0
H653 H 0.8341 0.20408 0.51027 0.0
C654 C 0.80412 0.15448 0.4981 0.0
C655 C 0.79638 0.15757 0.50928 0.0
C656 C 0.78682 0.14763 0.52013 0.0
C657 C 0.78478 0.13437 0.52004 0.0
C658 C 0.79229 0.13122 0.50847 0.0
C659 C 0.80193 0.14118 0.49775 0.0
C660 C 0.81524 0.16539 0.48788 0.0
C661 C 0.82518 0.17696 0.49646 0.0
C662 C 0.8167 0.16404 0.47017 0.0
C663 C 0.80655 0.15217 0.46028 0.0
C664 C 0.79304 0.14923 0.45913 0.0
C665 C 0.78357 0.13806 0.44964 0.0
C666 C 0.7874 0.1295 0.44125 0.0
C667 C 0.80097 0.13248 0.44263 0.0
C668 C 0.81044 0.14375 0.45188 0.0
C669 C 0.84966 0.1962 0.4603 0.0
C670 C 0.85851 0.19289 0.45187 0.0
C671 C 0.86959 0.20276 0.44271 0.0
C672 C 0.87192 0.21612 0.44144 0.0
C673 C 0.8629 0.21933 0.44981 0.0
C674 C 0.85194 0.20949 0.45923 0.0
C675 C 0.83804 0.18571 0.47019 0.0
C676 C 0.82808 0.17421 0.46157 0.0
C677 C 0.83667 0.18705 0.48793 0.0
C678 C 0.84752 0.19821 0.49817 0.0
C679 C 0.8609 0.20064 0.49758 0.0
C680 C 0.8709 0.21043 0.50813 0.0
C681 C 0.86771 0.21787 0.51976 0.0
C682 C 0.85434 0.21554 0.52017 0.0
C683 C 0.84436 0.20582 0.50949 0.0
H684 H 0.96351 0.5013 0.18552 0.0
H685 H 0.96418 0.51839 0.16612 0.0
H686 H 0.00315 0.54795 0.18677 0.0
H687 H 0.00278 0.53061 0.20534 0.0
H688 H 0.97969 0.49111 0.18563 0.0
H689 H 0.9692 0.51634 0.22675 0.0
H690 H 0.97324 0.53698 0.24158 0.0
H691 H 0.01094 0.54201 0.26138 0.0
H692 H 0.00717 0.52183 0.2459 0.0
H693 H 0.00724 0.4891 0.24651 0.0
H694 H 0.01072 0.47303 0.26315 0.0
H695 H 0.97331 0.44001 0.2432 0.0
H696 H 0.96947 0.45628 0.22741 0.0
H697 H 0.98933 0.49651 0.24769 0.0
H698 H 0.0042 0.47786 0.20221 0.0
H699 H 0.0045 0.46065 0.18387 0.0
H700 H 0.96184 0.4444 0.17307 0.0
H701 H 0.96191 0.46215 0.19076 0.0
C702 C 0.98303 0.51466 0.19704 0.0
C703 C 0.97217 0.51148 0.18591 0.0
C704 C 0.97252 0.52132 0.17492 0.0
C705 C 0.98373 0.53459 0.17482 0.0
C706 C 0.99444 0.53781 0.18629 0.0
C707 C 0.99415 0.52793 0.19713 0.0
C708 C 0.98316 0.50387 0.2076 0.0
C709 C 0.9815 0.49218 0.19929 0.0
C710 C 0.986 0.50546 0.22533 0.0
C711 C 0.98796 0.51759 0.235 0.0
C712 C 0.97838 0.52195 0.23419 0.0
C713 C 0.98064 0.53369 0.24284 0.0
C714 C 0.99247 0.54124 0.25261 0.0
C715 C 0.00185 0.53663 0.25373 0.0
C716 C 0.99963 0.52497 0.24502 0.0
C717 C 0.98816 0.47393 0.23553 0.0
C718 C 0.99972 0.47841 0.2458 0.0
C719 C 0.00178 0.46916 0.25518 0.0
C720 C 0.99237 0.45516 0.25444 0.0
C721 C 0.98073 0.4507 0.24422 0.0
C722 C 0.97861 0.46 0.23496 0.0
C723 C 0.9861 0.48392 0.22563 0.0
C724 C 0.98732 0.49539 0.23409 0.0
C725 C 0.98318 0.48234 0.20797 0.0
C726 C 0.98302 0.47124 0.19786 0.0
C727 C 0.99491 0.47051 0.19595 0.0
C728 C 0.99502 0.46058 0.18552 0.0
C729 C 0.98319 0.45105 0.17689 0.0
C730 C 0.97122 0.45168 0.17918 0.0
C731 C 0.97119 0.46176 0.18941 0.0
H732 H 0.50269 0.46647 0.18751 0.0
H733 H 0.4851 0.45007 0.16858 0.0
H734 H 0.45622 0.4599 0.19076 0.0
H735 H 0.47405 0.47682 0.20893 0.0
H736 H 0.51321 0.49284 0.18817 0.0
H737 H 0.48854 0.45699 0.22883 0.0
H738 H 0.46817 0.44032 0.24395 0.0
H739 H 0.46362 0.47283 0.26554 0.0
H740 H 0.48355 0.48935 0.24977 0.0
H741 H 0.51827 0.52448 0.24636 0.0
H742 H 0.53536 0.54382 0.26244 0.0
H743 H 0.56505 0.53191 0.24999 0.0
H744 H 0.54796 0.51298 0.23313 0.0
H745 H 0.50898 0.49661 0.25063 0.0
H746 H 0.53122 0.53182 0.2098 0.0
H747 H 0.54891 0.54919 0.19199 0.0
H748 H 0.55654 0.51886 0.16956 0.0
H749 H 0.53938 0.50168 0.18823 0.0
C750 C 0.4897 0.47281 0.19979 0.0
C751 C 0.49255 0.46506 0.18832 0.0
C752 C 0.48243 0.45558 0.1776 0.0
C753 C 0.46919 0.45361 0.17811 0.0
C754 C 0.46632 0.46124 0.18984 0.0
C755 C 0.47648 0.47081 0.20043 0.0
C756 C 0.50074 0.48355 0.2103 0.0
C757 C 0.51243 0.49347 0.2019 0.0
C758 C 0.49949 0.48464 0.22815 0.0
C759 C 0.48749 0.47444 0.23794 0.0
C760 C 0.48309 0.46052 0.23672 0.0
C761 C 0.47151 0.45099 0.24553 0.0
C762 C 0.46417 0.4552 0.2559 0.0
C763 C 0.46884 0.46919 0.25743 0.0
C764 C 0.48034 0.47868 0.24855 0.0
C765 C 0.53186 0.51733 0.23853 0.0
C766 C 0.52847 0.52606 0.24713 0.0
C767 C 0.53828 0.53708 0.25644 0.0
C768 C 0.55166 0.53948 0.25769 0.0
C769 C 0.55496 0.53059 0.24914 0.0
C770 C 0.54517 0.51968 0.23958 0.0
C771 C 0.5214 0.5058 0.22846 0.0
C772 C 0.50985 0.49578 0.23695 0.0
C773 C 0.52271 0.50467 0.21067 0.0
C774 C 0.53409 0.51544 0.20061 0.0
C775 C 0.53696 0.52896 0.20142 0.0
C776 C 0.54695 0.53887 0.19098 0.0
C777 C 0.55414 0.53546 0.17921 0.0
C778 C 0.55137 0.52193 0.1786 0.0
C779 C 0.54146 0.51205 0.18918 0.0
H780 H 0.53949 0.03881 0.19346 0.0
H781 H 0.55725 0.03932 0.17535 0.0
H782 H 0.5415 0.99659 0.18522 0.0
H783 H 0.52429 0.99646 0.20399 0.0
H784 H 0.51046 0.02053 0.18824 0.0
H785 H 0.54575 0.03095 0.22967 0.0
H786 H 0.56214 0.02701 0.24502 0.0
H787 H 0.52927 0.98942 0.26482 0.0
H788 H 0.51309 0.99302 0.24861 0.0
H789 H 0.48035 0.99338 0.24926 0.0
H790 H 0.46036 0.9899 0.26502 0.0
H791 H 0.46538 0.02743 0.24462 0.0
H792 H 0.48581 0.0312 0.22955 0.0
H793 H 0.50572 0.01103 0.25034 0.0
H794 H 0.47125 0.99707 0.20866 0.0
H795 H 0.4535 0.99632 0.19051 0.0
H796 H 0.48234 0.03538 0.16936 0.0
H797 H 0.49986 0.03639 0.18829 0.0
C798 C 0.53066 0.01763 0.20012 0.0
C799 C 0.54 0.02962 0.19182 0.0
C800 C 0.55008 0.02984 0.18135 0.0
C801 C 0.55084 0.01797 0.17866 0.0
C802 C 0.54146 0.006 0.18717 0.0
C803 C 0.53153 0.00586 0.19785 0.0
C804 C 0.51952 0.01722 0.21041 0.0
C805 C 0.50952 0.01874 0.2019 0.0
C806 C 0.5181 0.01427 0.22807 0.0
C807 C 0.52817 0.01218 0.23773 0.0
C808 C 0.5421 0.02175 0.23709 0.0
C809 C 0.55145 0.01957 0.2461 0.0
C810 C 0.54707 0.00785 0.25614 0.0
C811 C 0.53308 0.99842 0.25697 0.0
C812 C 0.52377 1.00055 0.24785 0.0
C813 C 0.48454 0.01248 0.23806 0.0
C814 C 0.47724 0.00095 0.24832 0.0
C815 C 0.4657 0.99889 0.25719 0.0
C816 C 0.46114 0.00831 0.25597 0.0
C817 C 0.46863 0.02001 0.24596 0.0
C818 C 0.48025 0.02211 0.23717 0.0
C819 C 0.49652 0.01428 0.22817 0.0
C820 C 0.50669 0.01302 0.23673 0.0
C821 C 0.49787 0.01699 0.21041 0.0
C822 C 0.48688 0.01688 0.20004 0.0
C823 C 0.47368 0.00563 0.20042 0.0
C824 C 0.46357 0.00512 0.18983 0.0
C825 C 0.46647 0.01576 0.17838 0.0
C826 C 0.47966 0.02709 0.17817 0.0
C827 C 0.48974 0.02764 0.18889 0.0
H828 H 0.47685 0.00661 0.82485 0.0
H829 H 0.45921 0.00731 0.84197 0.0
H830 H 0.45036 0.96962 0.86615 0.0
H831 H 0.46761 0.96873 0.84851 0.0
H832 H 0.49421 0.986 0.84839 0.0
H833 H 0.48941 0.00742 0.7838 0.0
H834 H 0.47243 0.00949 0.76709 0.0
H835 H 0.4407 0.97313 0.79074 0.0
H836 H 0.45778 0.971 0.80731 0.0
H837 H 0.50755 0.97246 0.78261 0.0
H838 H 0.52728 0.97567 0.76616 0.0
H839 H 0.55314 0.01113 0.79638 0.0
H840 H 0.53336 0.00803 0.81249 0.0
H841 H 0.49725 0.98952 0.78531 0.0
H842 H 0.51519 0.96911 0.8244 0.0
H843 H 0.5324 0.96829 0.84238 0.0
H844 H 0.53757 0.00341 0.87017 0.0
H845 H 0.52057 0.00429 0.85205 0.0
C846 C 0.47346 0.98754 0.83526 0.0
C847 C 0.47094 0.99838 0.83362 0.0
C848 C 0.46095 0.99884 0.84356 0.0
C849 C 0.45336 0.98852 0.85546 0.0
C850 C 0.45585 0.97763 0.85695 0.0
C851 C 0.4658 0.97716 0.84697 0.0
C852 C 0.48454 0.98732 0.82544 0.0
C853 C 0.49482 0.9867 0.83458 0.0
C854 C 0.48535 0.98826 0.8074 0.0
C855 C 0.4749 0.98913 0.79695 0.0
C856 C 0.47881 0.99981 0.78528 0.0
C857 C 0.46909 0.00097 0.77571 0.0
C858 C 0.45521 0.99148 0.7776 0.0
C859 C 0.4513 0.98069 0.78914 0.0
C860 C 0.46105 0.97947 0.79863 0.0
C861 C 0.51899 0.98994 0.79886 0.0
C862 C 0.51748 0.98089 0.7857 0.0
C863 C 0.52877 0.98269 0.7764 0.0
C864 C 0.54177 0.99366 0.77996 0.0
C865 C 0.54325 0.00266 0.79321 0.0
C866 C 0.53197 1.00082 0.80254 0.0
C867 C 0.50694 0.98833 0.8083 0.0
C868 C 0.49652 0.98866 0.7991 0.0
C869 C 0.50604 0.98725 0.82629 0.0
C870 C 0.51665 0.98681 0.83683 0.0
C871 C 0.52013 0.9767 0.83428 0.0
C872 C 0.52988 0.97618 0.84463 0.0
C873 C 0.53637 0.98581 0.85767 0.0
C874 C 0.53289 0.99595 0.8601 0.0
C875 C 0.5231 0.99641 0.84984 0.0
H876 H 0.03939 0.53844 0.84217 0.0
H877 H 0.03997 0.55663 0.85947 0.0
H878 H 0.99704 0.54019 0.85043 0.0
H879 H 0.99681 0.52255 0.83249 0.0
H880 H 0.02259 0.5098 0.84754 0.0
H881 H 0.03111 0.54356 0.80595 0.0
H882 H 0.0276 0.56018 0.79041 0.0
H883 H 0.98893 0.52805 0.77241 0.0
H884 H 0.99226 0.51148 0.78841 0.0
H885 H 0.99045 0.47518 0.79421 0.0
H886 H 0.98659 0.45501 0.77852 0.0
H887 H 0.02889 0.4669 0.78493 0.0
H888 H 0.03241 0.48669 0.80136 0.0
H889 H 0.00915 0.50288 0.78655 0.0
H890 H 0.99756 0.4713 0.83314 0.0
H891 H 0.99843 0.45452 0.85159 0.0
H892 H 0.04143 0.48163 0.85916 0.0
H893 H 0.04025 0.4986 0.84125 0.0
C894 C 0.01809 0.52923 0.83597 0.0
C895 C 0.03015 0.53886 0.84386 0.0
C896 C 0.03042 0.5492 0.85385 0.0
C897 C 0.01854 0.54995 0.85645 0.0
C898 C 0.00646 0.5402 0.84849 0.0
C899 C 0.00627 0.53001 0.8383 0.0
C900 C 0.01766 0.51804 0.82575 0.0
C901 C 0.01995 0.50846 0.83411 0.0
C902 C 0.01383 0.51612 0.80834 0.0
C903 C 0.01185 0.52625 0.79862 0.0
C904 C 0.02177 0.54009 0.79889 0.0
C905 C 0.0198 0.54958 0.78994 0.0
C906 C 0.00799 0.54541 0.78023 0.0
C907 C 0.99819 0.53154 0.77968 0.0
C908 C 1.00008 0.52207 0.78882 0.0
C909 C 0.0117 0.4824 0.79895 0.0
C910 C 0.99886 0.47339 0.79224 0.0
C911 C 0.99672 0.4619 0.78315 0.0
C912 C 0.00745 0.45929 0.78028 0.0
C913 C 0.02032 0.4684 0.78706 0.0
C914 C 0.0224 0.47979 0.79638 0.0
C915 C 0.01391 0.49462 0.80843 0.0
C916 C 0.01198 0.50439 0.79992 0.0
C917 C 0.01794 0.49668 0.82572 0.0
C918 C 0.01885 0.48615 0.83579 0.0
C919 C 0.0072 0.47355 0.83865 0.0
C920 C 0.00775 0.46392 0.84916 0.0
C921 C 0.02002 0.46665 0.85694 0.0
C922 C 0.03176 0.47922 0.85368 0.0
C923 C 0.03114 0.48892 0.84333 0.0
H924 H 0.46202 0.50168 0.84723 0.0
H925 H 0.44527 0.48405 0.86585 0.0
H926 H 0.45519 0.4551 0.84409 0.0
H927 H 0.47241 0.47294 0.82624 0.0
H928 H 0.48857 0.51195 0.84716 0.0
H929 H 0.45291 0.48762 0.80598 0.0
H930 H 0.43629 0.46725 0.7908 0.0
H931 H 0.46888 0.46265 0.76955 0.0
H932 H 0.48531 0.4825 0.78545 0.0
H933 H 0.51828 0.51451 0.78648 0.0
H934 H 0.53825 0.53057 0.77042 0.0
H935 H 0.53413 0.56374 0.79062 0.0
H936 H 0.51366 0.54751 0.80591 0.0
H937 H 0.49296 0.50773 0.78482 0.0
H938 H 0.52592 0.52456 0.83118 0.0
H939 H 0.54352 0.54137 0.84971 0.0
H940 H 0.51817 0.55902 0.85989 0.0
H941 H 0.50035 0.54162 0.84205 0.0
C942 C 0.46839 0.48864 0.83518 0.0
C943 C 0.46055 0.49152 0.84645 0.0
C944 C 0.45088 0.48138 0.85699 0.0
C945 C 0.44884 0.46811 0.8565 0.0
C946 C 0.45658 0.46522 0.84499 0.0
C947 C 0.46632 0.47539 0.83457 0.0
C948 C 0.4793 0.49964 0.82486 0.0
C949 C 0.48934 0.51114 0.83345 0.0
C950 C 0.48057 0.49842 0.80703 0.0
C951 C 0.47038 0.48651 0.79708 0.0
C952 C 0.45646 0.48215 0.79815 0.0
C953 C 0.44696 0.47058 0.7893 0.0
C954 C 0.45121 0.46321 0.77902 0.0
C955 C 0.46519 0.46788 0.7776 0.0
C956 C 0.47464 0.47935 0.78655 0.0
C957 C 0.51451 0.52977 0.79757 0.0
C958 C 0.52161 0.52523 0.78737 0.0
C959 C 0.53314 0.53447 0.77832 0.0
C960 C 0.53792 0.5485 0.77932 0.0
C961 C 0.53071 0.55302 0.78944 0.0
C962 C 0.51909 0.54375 0.79839 0.0
C963 C 0.5023 0.5198 0.80721 0.0
C964 C 0.49201 0.50859 0.79847 0.0
C965 C 0.5009 0.52107 0.82494 0.0
C966 C 0.51188 0.53189 0.83525 0.0
C967 C 0.52423 0.53211 0.83737 0.0
C968 C 0.53432 0.54183 0.8479 0.0
C969 C 0.53235 0.55165 0.85639 0.0
C970 C 0.52001 0.55151 0.85389 0.0
C971 C 0.50983 0.54163 0.84358 0.0
H972 H 0.62854 0.83601 0.52699 0.0
H973 H 0.62872 0.85356 0.50886 0.0
H974 H 0.67178 0.87906 0.51807 0.0
H975 H 0.67122 0.86173 0.53692 0.0
H976 H 0.64668 0.82447 0.52128 0.0
H977 H 0.63626 0.84955 0.56276 0.0
H978 H 0.64062 0.87015 0.57784 0.0
H979 H 0.67784 0.87417 0.59791 0.0
H980 H 0.67382 0.85407 0.58201 0.0
H981 H 0.673 0.82092 0.58256 0.0
H982 H 0.67633 0.80428 0.59814 0.0
H983 H 0.63889 0.77201 0.57724 0.0
H984 H 0.63529 0.78882 0.56229 0.0
H985 H 0.65541 0.82875 0.58356 0.0
H986 H 0.66973 0.8084 0.54204 0.0
H987 H 0.67078 0.79162 0.52368 0.0
H988 H 0.63208 0.78172 0.50166 0.0
H989 H 0.63076 0.79802 0.52078 0.0
C990 C 0.64984 0.84764 0.53333 0.0
C991 C 0.63796 0.84547 0.52521 0.0
C992 C 0.63813 0.85549 0.51473 0.0
C993 C 0.65029 0.86777 0.51182 0.0
C994 C 0.66216 0.8699 0.52018 0.0
C995 C 0.66191 0.85996 0.5309 0.0
C996 C 0.64984 0.83672 0.54358 0.0
C997 C 0.64828 0.8252 0.53498 0.0
C998 C 0.65257 0.83812 0.56129 0.0
C999 C 0.65482 0.85034 0.57098 0.0
C1000 C 0.64545 0.85497 0.57021 0.0
C1001 C 0.64787 0.86668 0.57906 0.0
C1002 C 0.65963 0.87392 0.58905 0.0
C1003 C 0.66882 0.86905 0.59009 0.0
C1004 C 0.66645 0.85744 0.58114 0.0
C1005 C 0.65396 0.80614 0.5711 0.0
C1006 C 0.66542 0.81028 0.58147 0.0
C1007 C 0.66738 0.80072 0.59024 0.0
C1008 C 0.65795 0.78677 0.58882 0.0
C1009 C 0.64631 0.78266 0.57872 0.0
C1010 C 0.64431 0.79226 0.57001 0.0
C1011 C 0.65231 0.8164 0.56127 0.0
C1012 C 0.65357 0.82783 0.56992 0.0
C1013 C 0.64982 0.81518 0.54345 0.0
C1014 C 0.65007 0.80436 0.533 0.0
C1015 C 0.66131 0.80239 0.53356 0.0
C1016 C 0.66198 0.7929 0.52285 0.0
C1017 C 0.65155 0.78533 0.51108 0.0
C1018 C 0.64022 0.78721 0.5107 0.0
C1019 C 0.63949 0.79662 0.52154 0.0
H1020 H 0.16957 0.79707 0.52046 0.0
H1021 H 0.15229 0.78034 0.50153 0.0
H1022 H 0.12254 0.78899 0.52362 0.0
H1023 H 0.14008 0.80632 0.54167 0.0
H1024 H 0.17936 0.82318 0.52086 0.0
H1025 H 0.15514 0.78752 0.56212 0.0
H1026 H 0.13472 0.77082 0.57714 0.0
H1027 H 0.12959 0.80325 0.59779 0.0
H1028 H 0.14955 0.81978 0.58211 0.0
H1029 H 0.18216 0.85276 0.58185 0.0
H1030 H 0.19828 0.87257 0.59807 0.0
H1031 H 0.23128 0.8681 0.57804 0.0
H1032 H 0.21495 0.84778 0.56251 0.0
H1033 H 0.17498 0.82741 0.58317 0.0
H1034 H 0.19611 0.86233 0.54079 0.0
H1035 H 0.21337 0.87949 0.52208 0.0
H1036 H 0.22296 0.84965 0.5028 0.0
H1037 H 0.20583 0.83258 0.5217 0.0
C1038 C 0.15614 0.80289 0.53266 0.0
C1039 C 0.15931 0.79533 0.52125 0.0
C1040 C 0.14936 0.78565 0.51053 0.0
C1041 C 0.13596 0.78326 0.51099 0.0
C1042 C 0.13277 0.79067 0.52269 0.0
C1043 C 0.14277 0.80046 0.53325 0.0
C1044 C 0.16701 0.8139 0.54307 0.0
C1045 C 0.17855 0.82395 0.53457 0.0
C1046 C 0.16573 0.81513 0.56088 0.0
C1047 C 0.1538 0.80492 0.57076 0.0
C1048 C 0.14956 0.79102 0.5698 0.0
C1049 C 0.13795 0.78148 0.57855 0.0
C1050 C 0.13042 0.78566 0.58859 0.0
C1051 C 0.13495 0.79963 0.58992 0.0
C1052 C 0.14648 0.80912 0.58109 0.0
C1053 C 0.19731 0.84881 0.5708 0.0
C1054 C 0.19285 0.85596 0.58105 0.0
C1055 C 0.20213 0.86741 0.59018 0.0
C1056 C 0.21614 0.87207 0.58925 0.0
C1057 C 0.22058 0.86477 0.57917 0.0
C1058 C 0.21126 0.85322 0.57011 0.0
C1059 C 0.18726 0.83677 0.56091 0.0
C1060 C 0.17591 0.82652 0.56952 0.0
C1061 C 0.18859 0.83544 0.54314 0.0
C1062 C 0.19976 0.84618 0.5328 0.0
C1063 C 0.20213 0.85955 0.53282 0.0
C1064 C 0.21198 0.86934 0.5221 0.0
C1065 C 0.2195 0.8659 0.51095 0.0
C1066 C 0.21724 0.85257 0.51112 0.0
C1067 C 0.20748 0.84282 0.52195 0.0
H1068 H 0.15147 0.33341 0.51336 0.0
H1069 H 0.13469 0.33403 0.4946 0.0
H1070 H 0.13707 0.36744 0.52371 0.0
H1071 H 0.15408 0.36691 0.54239 0.0
H1072 H 0.17667 0.35128 0.51789 0.0
H1073 H 0.13781 0.3293 0.55381 0.0
H1074 H 0.11782 0.32618 0.56929 0.0
H1075 H 0.14311 0.36193 0.59939 0.0
H1076 H 0.16314 0.36494 0.58385 0.0
H1077 H 0.20177 0.3648 0.58497 0.0
H1078 H 0.21757 0.36091 0.60208 0.0
H1079 H 0.2071 0.32491 0.57248 0.0
H1080 H 0.19118 0.32867 0.55578 0.0
H1081 H 0.17393 0.34823 0.58102 0.0
H1082 H 0.21366 0.36761 0.54377 0.0
H1083 H 0.23196 0.3679 0.52681 0.0
H1084 H 0.20231 0.33297 0.49857 0.0
H1085 H 0.18418 0.33259 0.51569 0.0
C1086 C 0.15406 0.3501 0.52932 0.0
C1087 C 0.14841 0.34089 0.51572 0.0
C1088 C 0.13884 0.34127 0.50499 0.0
C1089 C 0.13464 0.35084 0.50762 0.0
C1090 C 0.14005 0.35988 0.52146 0.0
C1091 C 0.14975 0.35958 0.53214 0.0
C1092 C 0.16481 0.35002 0.53999 0.0
C1093 C 0.176 0.35051 0.5317 0.0
C1094 C 0.16409 0.34928 0.55804 0.0
C1095 C 0.15196 0.34747 0.56749 0.0
C1096 C 0.13905 0.33656 0.56362 0.0
C1097 C 0.12761 0.3348 0.57247 0.0
C1098 C 0.12883 0.34386 0.58551 0.0
C1099 C 0.14181 0.3547 0.58952 0.0
C1100 C 0.15327 0.35646 0.58062 0.0
C1101 C 0.19541 0.34711 0.56899 0.0
C1102 C 0.20291 0.35609 0.5822 0.0
C1103 C 0.21199 0.3539 0.59188 0.0
C1104 C 0.21358 0.34259 0.58865 0.0
C1105 C 0.20601 0.33363 0.57542 0.0
C1106 C 0.197 0.33584 0.56575 0.0
C1107 C 0.18561 0.34922 0.55883 0.0
C1108 C 0.17466 0.34918 0.56723 0.0
C1109 C 0.18633 0.34999 0.54081 0.0
C1110 C 0.19756 0.35004 0.53104 0.0
C1111 C 0.21114 0.35994 0.53404 0.0
C1112 C 0.22157 0.36016 0.52426 0.0
C1113 C 0.21858 0.35044 0.51137 0.0
C1114 C 0.20498 0.34048 0.50854 0.0
C1115 C 0.19459 0.34032 0.51823 0.0
C1116 C 0.9832 0.37656 0.06341 0.0
C1117 C 0.99495 0.37545 0.06257 0.0
C1118 C 0.98125 0.38344 0.07695 0.0
C1119 C 1.00079 0.40871 0.11098 0.0
H1120 H 0.9649 0.39969 0.12672 0.0
C1121 C 0.9919 0.43531 0.1685 0.0
C1122 C 0.98348 0.44084 0.16512 0.0
C1123 C 0.99276 0.42637 0.15696 0.0
C1124 C 0.97498 0.40231 0.12241 0.0
H1125 H 0.0135 0.38003 0.07573 0.0
H1126 H 0.00982 0.39141 0.09973 0.0
H1127 H 0.96731 0.38542 0.10528 0.0
H1128 H 0.96923 0.44101 0.14681 0.0
H1129 H 0.97038 0.42503 0.12711 0.0
H1130 H 0.00839 0.42544 0.12844 0.0
C1131 C 0.00234 0.3875 0.08962 0.0
C1132 C 0.97639 0.3942 0.11004 0.0
C1133 C 0.00441 0.38085 0.07592 0.0
C1134 C 0.97564 0.43682 0.1501 0.0
C1135 C 0.97633 0.4277 0.13872 0.0
C1136 C 0.99938 0.41666 0.12354 0.0
C1137 C 0.99089 0.38918 0.09016 0.0
C1138 C 0.98932 0.39736 0.104 0.0
C1139 C 0.98504 0.42254 0.14192 0.0
C1140 C 0.98646 0.41362 0.12926 0.0
H1141 H 0.97577 0.37258 0.05324 0.0
H1142 H 0.97239 0.38465 0.0767 0.0
H1143 H 0.0109 0.41173 0.10645 0.0
H1144 H 0.99787 0.43788 0.18007 0.0
H1145 H 0.99946 0.42242 0.15981 0.0
C1146 C 0.63069 0.60947 0.06595 0.0
C1147 C 0.62648 0.61846 0.06005 0.0
C1148 C 0.62446 0.60121 0.08017 0.0
C1149 C 0.60227 0.59711 0.11737 0.0
H1150 H 0.59341 0.55949 0.11542 0.0
C1151 C 0.56132 0.55555 0.15989 0.0
C1152 C 0.56399 0.5458 0.16709 0.0
C1153 C 0.57024 0.56496 0.14806 0.0
C1154 C 0.59597 0.57001 0.11627 0.0
H1155 H 0.6125 0.62589 0.06467 0.0
H1156 H 0.60155 0.61141 0.0891 0.0
H1157 H 0.60673 0.57498 0.09253 0.0
H1158 H 0.57841 0.53856 0.16764 0.0
H1159 H 0.59386 0.55488 0.1467 0.0
H1160 H 0.59115 0.59201 0.14085 0.0
C1161 C 0.60982 0.61087 0.083 0.0
C1162 C 0.60364 0.57892 0.10316 0.0
C1163 C 0.61606 0.61914 0.06887 0.0
C1164 C 0.5759 0.54578 0.16219 0.0
C1165 C 0.58479 0.55515 0.15023 0.0
C1166 C 0.59454 0.5882 0.13039 0.0
C1167 C 0.61387 0.60174 0.0888 0.0
C1168 C 0.6067 0.59253 0.10341 0.0
C1169 C 0.58203 0.56482 0.14301 0.0
C1170 C 0.59114 0.57451 0.12986 0.0
H1171 H 0.63873 0.60872 0.05951 0.0
H1172 H 0.62796 0.59443 0.08441 0.0
H1173 H 0.60468 0.60759 0.11819 0.0
H1174 H 0.55212 0.55571 0.16302 0.0
H1175 H 0.56771 0.57214 0.14251 0.0
C1176 C 0.39103 0.01894 0.06817 0.0
C1177 C 0.38229 0.00618 0.06088 0.0
C1178 C 0.39946 0.02014 0.08186 0.0
C1179 C 0.41603 0.00264 0.1008 0.0
H1180 H 0.42177 0.02563 0.14012 0.0
C1181 C 0.44707 0.00226 0.15832 0.0
C1182 C 0.45599 0.01473 0.16612 0.0
C1183 C 0.43764 0.00133 0.14624 0.0
C1184 C 0.4204 0.01929 0.12914 0.0
H1185 H 0.37527 0.98461 0.06271 0.0
H1186 H 0.38992 0.98674 0.08648 0.0
H1187 H 0.40605 0.02392 0.1177 0.0
H1188 H 0.46166 0.03598 0.16756 0.0
H1189 H 0.44549 0.03445 0.14606 0.0
H1190 H 0.43047 0.99815 0.11192 0.0
C1191 C 0.39037 0.99583 0.08149 0.0
C1192 C 0.41137 0.01829 0.11632 0.0
C1193 C 0.38191 0.99462 0.06791 0.0
C1194 C 0.45508 0.02624 0.16166 0.0
C1195 C 0.44567 0.02533 0.14948 0.0
C1196 C 0.42508 0.0037 0.11352 0.0
C1197 C 0.39939 0.00861 0.08845 0.0
C1198 C 0.40903 0.00988 0.10207 0.0
C1199 C 0.43692 0.01288 0.14148 0.0
C1200 C 0.42733 0.01195 0.12792 0.0
H1201 H 0.39157 0.02805 0.06309 0.0
H1202 H 0.40635 0.03014 0.08691 0.0
H1203 H 0.41466 0.99629 0.08982 0.0
H1204 H 0.44756 0.9932 0.16124 0.0
H1205 H 0.43092 0.99153 0.14057 0.0
C1206 C 0.38889 0.00892 0.96441 0.0
C1207 C 0.37775 0.99749 0.97171 0.0
C1208 C 0.39568 0.00755 0.95035 0.0
C1209 C 0.40184 0.98232 0.9286 0.0
H1210 H 0.41692 0.00971 0.89316 0.0
C1211 C 0.43098 0.9776 0.87098 0.0
C1212 C 0.44326 0.98934 0.86678 0.0
C1213 C 0.42189 0.97826 0.88246 0.0
C1214 C 0.41283 0.00202 0.90301 0.0
H1215 H 0.36478 0.97566 0.96956 0.0
H1216 H 0.37653 0.9733 0.94487 0.0
H1217 H 0.40281 0.01137 0.91546 0.0
H1218 H 0.45551 0.011 0.87131 0.0
H1219 H 0.43963 0.01215 0.8912 0.0
H1220 H 0.41196 0.97304 0.91623 0.0
C1221 C 0.38015 0.98331 0.95022 0.0
C1222 C 0.40475 0.00296 0.91581 0.0
C1223 C 0.37336 0.98468 0.96433 0.0
C1224 C 0.44606 0.0018 0.87404 0.0
C1225 C 0.43696 0.00246 0.88547 0.0
C1226 C 0.40987 0.98135 0.91577 0.0
C1227 C 0.3915 0.99471 0.94318 0.0
C1228 C 0.3993 0.99322 0.92889 0.0
C1229 C 0.42484 0.99067 0.88997 0.0
C1230 C 0.41559 0.99127 0.90295 0.0
H1231 H 0.39257 0.01895 0.96977 0.0
H1232 H 0.40448 0.01653 0.94543 0.0
H1233 H 0.39799 0.97474 0.9386 0.0
H1234 H 0.42838 0.96788 0.86541 0.0
H1235 H 0.41254 0.96903 0.88547 0.0
C1236 C 0.02291 0.39622 0.97344 0.0
C1237 C 0.01131 0.38331 0.97468 0.0
C1238 C 0.02463 0.40467 0.95957 0.0
C1239 C 0.00459 0.40917 0.9252 0.0
H1240 H 0.04018 0.43569 0.90832 0.0
C1241 C 0.01201 0.44258 0.86625 0.0
C1242 C 0.02039 0.45663 0.86891 0.0
C1243 C 0.01159 0.43323 0.87816 0.0
C1244 C 0.03018 0.42833 0.91294 0.0
H1245 H 0.99278 0.36882 0.9619 0.0
H1246 H 0.99603 0.38321 0.93737 0.0
H1247 H 0.0382 0.41978 0.93056 0.0
H1248 H 0.0351 0.47173 0.88624 0.0
H1249 H 0.03465 0.45536 0.90664 0.0
H1250 H 0.99662 0.41761 0.9073 0.0
C1251 C 0.00358 0.38712 0.9474 0.0
C1252 C 0.02903 0.41925 0.92576 0.0
C1253 C 0.00175 0.37879 0.96141 0.0
C1254 C 0.02868 0.46103 0.88354 0.0
C1255 C 0.0284 0.45165 0.8953 0.0
C1256 C 0.00575 0.41808 0.91221 0.0
C1257 C 0.01489 0.4003 0.94644 0.0
C1258 C 0.0162 0.40961 0.9322 0.0
C1259 C 0.01968 0.43768 0.89287 0.0
C1260 C 0.01855 0.42783 0.90606 0.0
H1261 H 0.03043 0.40002 0.98352 0.0
H1262 H 0.03338 0.41479 0.95947 0.0
H1263 H 0.99455 0.40216 0.93002 0.0
H1264 H 0.00571 0.43876 0.85498 0.0
H1265 H 0.00489 0.4225 0.87588 0.0
C1266 C 0.60662 0.62523 0.97013 0.0
C1267 C 0.61913 0.62566 0.97168 0.0
C1268 C 0.59797 0.61844 0.95645 0.0
C1269 C 0.59174 0.5924 0.92324 0.0
H1270 H 0.56658 0.60312 0.90578 0.0
C1271 C 0.55683 0.56666 0.86505 0.0
C1272 C 0.54292 0.56166 0.86821 0.0
C1273 C 0.56666 0.5754 0.87666 0.0
C1274 C 0.57357 0.60003 0.91056 0.0
H1275 H 0.6327 0.61991 0.95967 0.0
H1276 H 0.61798 0.60867 0.93539 0.0
H1277 H 0.58317 0.61706 0.92739 0.0
H1278 H 0.52863 0.56221 0.8862 0.0
H1279 H 0.54585 0.57789 0.90598 0.0
H1280 H 0.58225 0.57553 0.90602 0.0
C1281 C 0.61452 0.61306 0.94506 0.0
C1282 C 0.58302 0.60796 0.92304 0.0
C1283 C 0.62305 0.61962 0.95892 0.0
C1284 C 0.5392 0.566 0.88308 0.0
C1285 C 0.54905 0.57493 0.89451 0.0
C1286 C 0.58246 0.58464 0.91055 0.0
C1287 C 0.60173 0.61213 0.94378 0.0
C1288 C 0.59215 0.60416 0.92973 0.0
C1289 C 0.56285 0.57957 0.89152 0.0
C1290 C 0.57319 0.58829 0.90424 0.0
H1291 H 0.60327 0.62971 0.97983 0.0
H1292 H 0.58815 0.61779 0.95616 0.0
H1293 H 0.59833 0.58892 0.92826 0.0
H1294 H 0.56017 0.56384 0.8536 0.0
H1295 H 0.57726 0.57895 0.874 0.0
C1296 C 0.02169 0.62731 0.96759 0.0
C1297 C 0.00987 0.62824 0.96912 0.0
C1298 C 0.02326 0.62026 0.95396 0.0
C1299 C 0.00271 0.59413 0.92131 0.0
H1300 H 0.03813 0.60303 0.90387 0.0
C1301 C 0.01011 0.566 0.86437 0.0
C1302 C 0.01861 0.56056 0.86779 0.0
C1303 C 0.00956 0.5753 0.87557 0.0
C1304 C 0.02819 0.60045 0.90865 0.0
H1305 H 0.99077 0.62317 0.95708 0.0
H1306 H 0.99378 0.61148 0.93288 0.0
H1307 H 0.03626 0.61784 0.92497 0.0
H1308 H 0.03334 0.56095 0.88576 0.0
H1309 H 0.03272 0.57757 0.90484 0.0
H1310 H 0.99468 0.57689 0.90463 0.0
C1311 C 0.00162 0.61568 0.94253 0.0
C1312 C 0.02709 0.60887 0.92082 0.0
C1313 C 0.99994 0.6225 0.95634 0.0
C1314 C 0.02685 0.56504 0.88246 0.0
C1315 C 0.02646 0.57453 0.89348 0.0
C1316 C 0.0038 0.58587 0.90892 0.0
C1317 C 0.01316 0.61416 0.94134 0.0
C1318 C 0.01434 0.60574 0.92751 0.0
C1319 C 0.01767 0.57959 0.89027 0.0
C1320 C 0.01655 0.58886 0.90263 0.0
H1321 H 0.02948 0.63155 0.97731 0.0
H1322 H 0.03219 0.61918 0.95372 0.0
H1323 H 0.99273 0.59114 0.92634 0.0
H1324 H 0.00384 0.56307 0.85304 0.0
H1325 H 0.00279 0.57916 0.87273 0.0
C1326 C 0.38749 0.3831 0.9657 0.0
C1327 C 0.37639 0.38302 0.97374 0.0
C1328 C 0.39378 0.39145 0.95165 0.0
C1329 C 0.39857 0.42265 0.93082 0.0
H1330 H 0.41358 0.41101 0.89438 0.0
C1331 C 0.42672 0.45672 0.8727 0.0
C1332 C 0.4391 0.45749 0.8684 0.0
C1333 C 0.41786 0.44705 0.88439 0.0
C1334 C 0.40949 0.41442 0.9045 0.0
H1335 H 0.36298 0.39144 0.97297 0.0
H1336 H 0.37385 0.40589 0.94823 0.0
H1337 H 0.39998 0.395 0.91665 0.0
H1338 H 0.45186 0.44866 0.87324 0.0
H1339 H 0.43635 0.43171 0.89333 0.0
H1340 H 0.40818 0.44212 0.91865 0.0
C1341 C 0.37782 0.39964 0.95301 0.0
C1342 C 0.40171 0.40526 0.91729 0.0
C1343 C 0.37154 0.39129 0.96713 0.0
C1344 C 0.44231 0.44822 0.87594 0.0
C1345 C 0.43342 0.4385 0.88751 0.0
C1346 C 0.40629 0.4318 0.91796 0.0
C1347 C 0.38911 0.39992 0.94519 0.0
C1348 C 0.39636 0.40932 0.93078 0.0
C1349 C 0.42114 0.43785 0.89195 0.0
C1350 C 0.41203 0.42785 0.90482 0.0
H1351 H 0.39154 0.3769 0.97046 0.0
H1352 H 0.40257 0.39155 0.94616 0.0
H1353 H 0.39476 0.42619 0.94111 0.0
H1354 H 0.42381 0.46356 0.86697 0.0
H1355 H 0.4084 0.4467 0.88744 0.0
C1356 C 0.60864 0.97918 0.96978 0.0
C1357 C 0.6191 0.99234 0.97386 0.0
C1358 C 0.60024 0.97698 0.95566 0.0
C1359 C 0.59777 0.99314 0.91558 0.0
H1360 H 0.55897 0.9703 0.92205 0.0
C1361 C 0.55853 0.99716 0.87341 0.0
C1362 C 0.54656 0.98521 0.86895 0.0
C1363 C 0.56778 0.99677 0.88476 0.0
C1364 C 0.56978 0.97654 0.91992 0.0
H1365 H 0.62911 0.01345 0.96595 0.0
H1366 H 0.61449 0.00965 0.9416 0.0
H1367 H 0.57448 0.97174 0.94447 0.0
H1368 H 0.53501 0.96344 0.87275 0.0
H1369 H 0.55125 0.96274 0.89257 0.0
H1370 H 0.59304 0.99821 0.89122 0.0
C1371 C 0.61283 0.00097 0.94915 0.0
C1372 C 0.57869 0.97735 0.93277 0.0
C1373 C 0.62117 0.00317 0.96323 0.0
C1374 C 0.54419 0.97281 0.87585 0.0
C1375 C 0.55342 0.97242 0.88731 0.0
C1376 C 0.58887 0.99235 0.90276 0.0
C1377 C 0.60216 0.98789 0.94526 0.0
C1378 C 0.59278 0.98587 0.9309 0.0
C1379 C 0.56527 0.98442 0.892 0.0
C1380 C 0.57476 0.98424 0.90491 0.0
H1381 H 0.60678 0.97061 0.97767 0.0
H1382 H 0.59221 0.96675 0.95292 0.0
H1383 H 0.60858 0.99959 0.91357 0.0
H1384 H 0.56072 0.00686 0.86817 0.0
H1385 H 0.57674 0.00622 0.88823 0.0
C1386 C 0.62498 0.02043 0.0631 0.0
C1387 C 0.62639 0.00887 0.06196 0.0
C1388 C 0.61804 0.02207 0.07683 0.0
C1389 C 0.5932 0.0019 0.11097 0.0
H1390 H 0.60181 0.03746 0.12757 0.0
C1391 C 0.56673 0.00963 0.16953 0.0
C1392 C 0.56102 0.01795 0.16659 0.0
C1393 C 0.57565 0.00905 0.1577 0.0
C1394 C 0.59931 0.02748 0.12302 0.0
H1395 H 0.62228 0.99031 0.07475 0.0
H1396 H 0.6108 0.99344 0.09905 0.0
H1397 H 0.61604 0.03556 0.10563 0.0
H1398 H 0.56046 0.03229 0.14875 0.0
H1399 H 0.5764 0.0316 0.12854 0.0
H1400 H 0.57663 0.99388 0.12869 0.0
C1401 C 0.61451 0.00102 0.08905 0.0
C1402 C 0.6074 0.02636 0.11037 0.0
C1403 C 0.62121 0.99926 0.07517 0.0
C1404 C 0.5648 0.02595 0.1517 0.0
C1405 C 0.5739 0.02553 0.14003 0.0
C1406 C 0.58528 0.00302 0.12381 0.0
C1407 C 0.61255 0.01229 0.08992 0.0
C1408 C 0.60438 0.01355 0.10403 0.0
C1409 C 0.57926 0.01694 0.14281 0.0
C1410 C 0.58817 0.01582 0.12984 0.0
H1411 H 0.62878 0.02797 0.05305 0.0
H1412 H 0.61661 0.03079 0.07685 0.0
H1413 H 0.59031 0.99188 0.10622 0.0
H1414 H 0.56433 0.00354 0.18098 0.0
H1415 H 0.57976 0.00244 0.16022 0.0
C1416 C 0.98196 0.60984 0.0626 0.0
C1417 C 0.9951 0.61908 0.05673 0.0
C1418 C 0.98007 0.60092 0.07602 0.0
C1419 C 0.9968 0.5841 0.09616 0.0
H1420 H 0.97284 0.5779 0.13454 0.0
C1421 C 0.99703 0.55377 0.1544 0.0
C1422 C 0.98458 0.54479 0.16221 0.0
C1423 C 0.99782 0.56293 0.14201 0.0
C1424 C 0.97944 0.57938 0.1238 0.0
H1425 H 0.01656 0.62641 0.06075 0.0
H1426 H 0.01323 0.61088 0.08393 0.0
H1427 H 0.97486 0.59364 0.11194 0.0
H1428 H 0.96323 0.53874 0.1633 0.0
H1429 H 0.96452 0.55443 0.14122 0.0
H1430 H 0.00127 0.56978 0.10766 0.0
C1431 C 0.00439 0.61045 0.07809 0.0
C1432 C 0.9806 0.58841 0.11089 0.0
C1433 C 0.00629 0.61941 0.06484 0.0
C1434 C 0.97296 0.54537 0.15742 0.0
C1435 C 0.97373 0.5545 0.14489 0.0
C1436 C 0.99556 0.57502 0.10893 0.0
C1437 C 0.99128 0.60099 0.08367 0.0
C1438 C 0.98944 0.59099 0.09706 0.0
C1439 C 0.98616 0.56331 0.1369 0.0
C1440 C 0.98701 0.57266 0.12305 0.0
H1441 H 0.97313 0.60935 0.05666 0.0
H1442 H 0.96984 0.59371 0.08005 0.0
H1443 H 0.00349 0.58568 0.08548 0.0
H1444 H 0.00618 0.55353 0.15756 0.0
H1445 H 0.00762 0.56972 0.13638 0.0
C1446 C 0.38289 0.38902 0.06967 0.0
C1447 C 0.38353 0.37812 0.06214 0.0
C1448 C 0.39159 0.39639 0.08303 0.0
C1449 C 0.41381 0.39558 0.11659 0.0
H1450 H 0.43182 0.43476 0.11264 0.0
C1451 C 0.45787 0.43181 0.1612 0.0
C1452 C 0.45861 0.4441 0.16596 0.0
C1453 C 0.44836 0.42325 0.14914 0.0
C1454 C 0.42674 0.42385 0.11413 0.0
H1455 H 0.39354 0.36613 0.06322 0.0
H1456 H 0.40871 0.37903 0.08668 0.0
H1457 H 0.41572 0.42062 0.09087 0.0
H1458 H 0.44973 0.45689 0.16175 0.0
H1459 H 0.4329 0.4418 0.14134 0.0
H1460 H 0.42475 0.39881 0.13997 0.0
C1461 C 0.40145 0.38183 0.08219 0.0
C1462 C 0.41753 0.41574 0.1016 0.0
C1463 C 0.39279 0.37448 0.0687 0.0
C1464 C 0.4494 0.44746 0.15859 0.0
C1465 C 0.43985 0.43887 0.14665 0.0
C1466 C 0.42298 0.40371 0.12924 0.0
C1467 C 0.4011 0.39302 0.08928 0.0
C1468 C 0.41092 0.40152 0.10269 0.0
C1469 C 0.4393 0.42673 0.14159 0.0
C1470 C 0.42954 0.41796 0.12819 0.0
H1471 H 0.37586 0.39208 0.06502 0.0
H1472 H 0.39092 0.40483 0.08841 0.0
H1473 H 0.4088 0.38464 0.11784 0.0
H1474 H 0.46467 0.42879 0.16675 0.0
H1475 H 0.44832 0.41404 0.14548 0.0
C1476 C 0.67528 0.7229 0.40136 0.0
C1477 C 0.66395 0.71167 0.39403 0.0
C1478 C 0.67368 0.7301 0.41475 0.0
C1479 C 0.65034 0.72833 0.44867 0.0
H1480 H 0.67043 0.76756 0.44486 0.0
C1481 C 0.64138 0.76368 0.49385 0.0
C1482 C 0.65279 0.77603 0.49871 0.0
C1483 C 0.64253 0.75532 0.48162 0.0
C1484 C 0.66489 0.75664 0.44629 0.0
H1485 H 0.64206 0.69895 0.39549 0.0
H1486 H 0.63929 0.71155 0.41898 0.0
H1487 H 0.67285 0.75379 0.42289 0.0
H1488 H 0.67439 0.78916 0.49445 0.0
H1489 H 0.67646 0.77442 0.47369 0.0
H1490 H 0.64245 0.73121 0.47219 0.0
C1491 C 0.64941 0.71474 0.41432 0.0
C1492 C 0.66626 0.74873 0.43365 0.0
C1493 C 0.65101 0.70756 0.40081 0.0
C1494 C 0.66541 0.77967 0.49123 0.0
C1495 C 0.66656 0.77129 0.47909 0.0
C1496 C 0.64902 0.73626 0.46141 0.0
C1497 C 0.66072 0.72623 0.42123 0.0
C1498 C 0.65906 0.7345 0.43472 0.0
C1499 C 0.65512 0.75908 0.47397 0.0
C1500 C 0.65633 0.75053 0.46042 0.0
H1501 H 0.68542 0.72634 0.39655 0.0
H1502 H 0.68262 0.73877 0.41999 0.0
H1503 H 0.64473 0.71739 0.44991 0.0
H1504 H 0.63154 0.76047 0.49948 0.0
H1505 H 0.63348 0.74604 0.47791 0.0
C1506 C 0.295 0.94334 0.39909 0.0
C1507 C 0.29018 0.95187 0.39331 0.0
C1508 C 0.28891 0.93473 0.41305 0.0
C1509 C 0.26543 0.9284 0.44965 0.0
H1510 H 0.25995 0.89196 0.44714 0.0
C1511 C 0.23822 0.88941 0.50361 0.0
C1512 C 0.22918 0.87599 0.49857 0.0
C1513 C 0.24698 0.89897 0.49174 0.0
C1514 C 0.26131 0.90207 0.44801 0.0
H1515 H 0.27524 0.95809 0.39783 0.0
H1516 H 0.26446 0.94292 0.42177 0.0
H1517 H 0.27256 0.90816 0.42469 0.0
H1518 H 0.22215 0.86211 0.47711 0.0
H1519 H 0.23716 0.87876 0.45637 0.0
H1520 H 0.25359 0.92211 0.47251 0.0
C1521 C 0.27313 0.94305 0.41582 0.0
C1522 C 0.26874 0.91145 0.43523 0.0
C1523 C 0.27927 0.95171 0.40197 0.0
C1524 C 0.22915 0.87231 0.48145 0.0
C1525 C 0.23781 0.88188 0.46956 0.0
C1526 C 0.25791 0.91899 0.46235 0.0
C1527 C 0.2778 0.93438 0.4215 0.0
C1528 C 0.27075 0.92469 0.43576 0.0
C1529 C 0.24681 0.89535 0.47451 0.0
C1530 C 0.2556 0.90564 0.4616 0.0
H1531 H 0.30344 0.94326 0.39277 0.0
H1532 H 0.29292 0.92835 0.41722 0.0
H1533 H 0.26695 0.93857 0.45065 0.0
H1534 H 0.23856 0.8925 0.51677 0.0
H1535 H 0.25391 0.90918 0.49609 0.0
C1536 C 0.05942 0.35548 0.3982 0.0
C1537 C 0.04934 0.34223 0.39381 0.0
C1538 C 0.0681 0.35774 0.41197 0.0
C1539 C 0.07249 0.3419 0.45094 0.0
H1540 H 0.11089 0.36563 0.44232 0.0
C1541 C 0.11386 0.35265 0.50163 0.0
C1542 C 0.12492 0.35155 0.49561 0.0
C1543 C 0.10448 0.35277 0.49018 0.0
C1544 C 0.1002 0.35899 0.44493 0.0
H1545 H 0.04019 0.32101 0.40089 0.0
H1546 H 0.05535 0.32495 0.42483 0.0
H1547 H 0.09437 0.3633 0.42085 0.0
H1548 H 0.13508 0.35015 0.47291 0.0
H1549 H 0.11873 0.3503 0.45299 0.0
H1550 H 0.07839 0.33728 0.47484 0.0
C1551 C 0.05649 0.33361 0.41769 0.0
C1552 C 0.09073 0.35776 0.43271 0.0
C1553 C 0.04786 0.33134 0.40387 0.0
C1554 C 0.12657 0.35086 0.47794 0.0
C1555 C 0.11729 0.35109 0.46652 0.0
C1556 C 0.08198 0.34319 0.46323 0.0
C1557 C 0.06685 0.34681 0.42173 0.0
C1558 C 0.07677 0.34902 0.43544 0.0
C1559 C 0.10608 0.35195 0.47249 0.0
C1560 C 0.09595 0.35156 0.46022 0.0
H1561 H 0.06082 0.36411 0.39077 0.0
H1562 H 0.07589 0.36804 0.41489 0.0
H1563 H 0.0618 0.33519 0.45349 0.0
H1564 H 0.11231 0.35314 0.51519 0.0
H1565 H 0.09599 0.35352 0.49515 0.0
C1566 C 0.05175 0.33959 0.29535 0.0
C1567 C 0.04278 0.32836 0.30528 0.0
C1568 C 0.05879 0.33804 0.28174 0.0
C1569 C 0.06 0.31291 0.2527 0.0
H1570 H 0.09816 0.34005 0.2499 0.0
C1571 C 0.09878 0.30705 0.21032 0.0
C1572 C 0.10906 0.31881 0.20245 0.0
C1573 C 0.08974 0.30786 0.22177 0.0
C1574 C 0.08749 0.33248 0.2503 0.0
H1575 H 0.03381 0.30658 0.30824 0.0
H1576 H 0.04624 0.3039 0.2845 0.0
H1577 H 0.08407 0.34204 0.27171 0.0
H1578 H 0.11743 0.34051 0.19964 0.0
H1579 H 0.10164 0.34192 0.21943 0.0
H1580 H 0.06353 0.30331 0.23129 0.0
C1581 C 0.04773 0.3139 0.28721 0.0
C1582 C 0.07939 0.33363 0.26284 0.0
C1583 C 0.04065 0.31545 0.30086 0.0
C1584 C 0.10979 0.33131 0.20576 0.0
C1585 C 0.10075 0.33211 0.21713 0.0
C1586 C 0.06813 0.31177 0.24009 0.0
C1587 C 0.05709 0.32523 0.27771 0.0
C1588 C 0.06554 0.32389 0.26418 0.0
C1589 C 0.09078 0.32044 0.22553 0.0
C1590 C 0.08197 0.32158 0.23873 0.0
H1591 H 0.05355 0.34967 0.29827 0.0
H1592 H 0.06571 0.34693 0.27446 0.0
H1593 H 0.04934 0.3053 0.2533 0.0
H1594 H 0.09803 0.29729 0.20813 0.0
H1595 H 0.08226 0.29869 0.22812 0.0
C1596 C 0.68788 0.72423 0.29834 0.0
C1597 C 0.67492 0.71587 0.30533 0.0
C1598 C 0.68959 0.73243 0.28418 0.0
C1599 C 0.67063 0.73753 0.24898 0.0
H1600 H 0.70079 0.77448 0.24958 0.0
C1601 C 0.67246 0.77987 0.20668 0.0
C1602 C 0.68492 0.78923 0.19918 0.0
C1603 C 0.67172 0.77028 0.2184 0.0
C1604 C 0.69242 0.76414 0.24909 0.0
H1605 H 0.65354 0.70941 0.30265 0.0
H1606 H 0.65654 0.72381 0.27826 0.0
H1607 H 0.69865 0.75883 0.27219 0.0
H1608 H 0.70633 0.79553 0.19791 0.0
H1609 H 0.70504 0.77887 0.21857 0.0
H1610 H 0.66424 0.74297 0.22609 0.0
C1611 C 0.66539 0.72391 0.28351 0.0
C1612 C 0.6912 0.75514 0.26204 0.0
C1613 C 0.66368 0.71569 0.2976 0.0
C1614 C 0.6966 0.78863 0.20361 0.0
C1615 C 0.69587 0.77907 0.21543 0.0
C1616 C 0.67182 0.74654 0.23608 0.0
C1617 C 0.67838 0.73248 0.2767 0.0
C1618 C 0.68019 0.74176 0.26227 0.0
C1619 C 0.68342 0.76982 0.22302 0.0
C1620 C 0.68264 0.75999 0.23609 0.0
H1621 H 0.69676 0.72458 0.30391 0.0
H1622 H 0.69972 0.73876 0.27913 0.0
H1623 H 0.66217 0.72723 0.24855 0.0
H1624 H 0.6633 0.78017 0.20386 0.0
H1625 H 0.66201 0.76344 0.22422 0.0
C1626 C 0.27 0.96182 0.30452 0.0
C1627 C 0.28219 0.96155 0.3058 0.0
C1628 C 0.26114 0.95543 0.29087 0.0
C1629 C 0.25875 0.94319 0.24713 0.0
H1630 H 0.22194 0.91616 0.25924 0.0
C1631 C 0.22183 0.90423 0.19811 0.0
C1632 C 0.20781 0.89925 0.19989 0.0
C1633 C 0.23099 0.91289 0.21039 0.0
C1634 C 0.23207 0.92385 0.25551 0.0
H1635 H 0.29493 0.95489 0.2934 0.0
H1636 H 0.27958 0.94403 0.26933 0.0
H1637 H 0.23781 0.92983 0.28148 0.0
H1638 H 0.19258 0.89987 0.21606 0.0
H1639 H 0.20853 0.91553 0.23673 0.0
H1640 H 0.25303 0.9375 0.22115 0.0
C1641 C 0.27685 0.94907 0.27899 0.0
C1642 C 0.24118 0.93164 0.26832 0.0
C1643 C 0.28559 0.95523 0.2928 0.0
C1644 C 0.20328 0.90356 0.21403 0.0
C1645 C 0.21246 0.9124 0.22614 0.0
C1646 C 0.24956 0.93557 0.23425 0.0
C1647 C 0.26443 0.94889 0.27807 0.0
C1648 C 0.25464 0.94128 0.26428 0.0
C1649 C 0.22644 0.91701 0.22468 0.0
C1650 C 0.23611 0.92567 0.23826 0.0
H1651 H 0.26707 0.96657 0.31434 0.0
H1652 H 0.25165 0.95549 0.29039 0.0
H1653 H 0.26906 0.95065 0.24369 0.0
H1654 H 0.22579 0.90139 0.18727 0.0
H1655 H 0.24163 0.91606 0.20883 0.0
C1656 C 0.66416 0.94769 0.29539 0.0
C1657 C 0.67522 0.9582 0.30411 0.0
C1658 C 0.66623 0.94132 0.28142 0.0
C1659 C 0.69203 0.93481 0.2619 0.0
H1660 H 0.66651 0.92166 0.22427 0.0
C1661 C 0.69747 0.90591 0.20414 0.0
C1662 C 0.68557 0.89391 0.19949 0.0
C1663 C 0.69696 0.91503 0.21573 0.0
C1664 C 0.67369 0.92523 0.23472 0.0
H1665 H 0.69718 0.97048 0.30462 0.0
H1666 H 0.7008 0.95948 0.27997 0.0
H1667 H 0.66447 0.93567 0.24635 0.0
H1668 H 0.66379 0.88216 0.20355 0.0
H1669 H 0.66291 0.89815 0.22343 0.0
H1670 H 0.70119 0.92429 0.25023 0.0
C1671 C 0.69051 0.95602 0.28417 0.0
C1672 C 0.67252 0.93324 0.2474 0.0
C1673 C 0.68843 0.96239 0.29824 0.0
C1674 C 0.67313 0.89139 0.20653 0.0
C1675 C 0.67262 0.90056 0.21798 0.0
C1676 C 0.69326 0.92688 0.24914 0.0
C1677 C 0.67942 0.94531 0.27568 0.0
C1678 C 0.6815 0.93792 0.26134 0.0
C1679 C 0.68453 0.91242 0.22281 0.0
C1680 C 0.68395 0.92179 0.23557 0.0
H1681 H 0.65384 0.94415 0.29957 0.0
H1682 H 0.65746 0.93297 0.27541 0.0
H1683 H 0.69903 0.93808 0.27254 0.0
H1684 H 0.7072 0.90831 0.19878 0.0
H1685 H 0.70629 0.92416 0.21907 0.0
C1686 C 0.04245 0.73327 0.30431 0.0
C1687 C 0.04262 0.72101 0.30529 0.0
C1688 C 0.04889 0.74227 0.29081 0.0
C1689 C 0.0611 0.74504 0.24699 0.0
H1690 H 0.0882 0.78172 0.25952 0.0
C1691 C 0.10014 0.78227 0.19831 0.0
C1692 C 0.10514 0.79629 0.20026 0.0
C1693 C 0.09147 0.77304 0.21051 0.0
C1694 C 0.08048 0.77163 0.25568 0.0
H1695 H 0.04919 0.70833 0.29252 0.0
H1696 H 0.06015 0.72395 0.26872 0.0
H1697 H 0.0745 0.76567 0.2816 0.0
H1698 H 0.10455 0.81142 0.21664 0.0
H1699 H 0.08887 0.79534 0.23719 0.0
H1700 H 0.0668 0.75098 0.22106 0.0
C1701 C 0.05514 0.72661 0.2785 0.0
C1702 C 0.07268 0.76241 0.26839 0.0
C1703 C 0.04892 0.71772 0.29216 0.0
C1704 C 0.10084 0.80073 0.21449 0.0
C1705 C 0.09199 0.79148 0.22653 0.0
C1706 C 0.06873 0.75433 0.23421 0.0
C1707 C 0.05539 0.73908 0.27786 0.0
C1708 C 0.06302 0.749 0.2642 0.0
C1709 C 0.08735 0.77751 0.22489 0.0
C1710 C 0.07866 0.76774 0.23838 0.0
H1711 H 0.03772 0.73612 0.31425 0.0
H1712 H 0.04889 0.7518 0.29055 0.0
H1713 H 0.05363 0.73477 0.24342 0.0
H1714 H 0.10297 0.77838 0.1874 0.0
H1715 H 0.08828 0.76241 0.20882 0.0
C1716 C 0.27605 0.31174 0.30363 0.0
C1717 C 0.28624 0.325 0.30781 0.0
C1718 C 0.26766 0.30939 0.28946 0.0
C1719 C 0.26494 0.3252 0.2493 0.0
H1720 H 0.2262 0.30168 0.25547 0.0
C1721 C 0.22537 0.32776 0.20613 0.0
C1722 C 0.21342 0.31567 0.20203 0.0
C1723 C 0.23475 0.32769 0.21756 0.0
C1724 C 0.23701 0.3081 0.25341 0.0
H1725 H 0.2958 0.34612 0.30008 0.0
H1726 H 0.28118 0.34203 0.2756 0.0
H1727 H 0.24174 0.30364 0.27814 0.0
H1728 H 0.20209 0.29396 0.20648 0.0
H1729 H 0.21856 0.29382 0.22633 0.0
H1730 H 0.2602 0.32989 0.22471 0.0
C1731 C 0.27972 0.33342 0.28312 0.0
C1732 C 0.24592 0.30923 0.26642 0.0
C1733 C 0.28805 0.33578 0.29727 0.0
C1734 C 0.21124 0.30344 0.20928 0.0
C1735 C 0.22061 0.30338 0.22079 0.0
C1736 C 0.25604 0.32408 0.2363 0.0
C1737 C 0.26933 0.32023 0.27912 0.0
C1738 C 0.25998 0.31798 0.26465 0.0
C1739 C 0.2324 0.31553 0.22521 0.0
C1740 C 0.24195 0.31571 0.23832 0.0
H1741 H 0.27439 0.3032 0.31144 0.0
H1742 H 0.25983 0.29909 0.28663 0.0
H1743 H 0.27574 0.33184 0.24739 0.0
H1744 H 0.22743 0.33733 0.20061 0.0
H1745 H 0.24365 0.33726 0.2208 0.0
C1746 C 0.29758 0.35548 0.40029 0.0
C1747 C 0.29457 0.34225 0.39597 0.0
C1748 C 0.29137 0.35773 0.41439 0.0
C1749 C 0.2722 0.34153 0.45412 0.0
H1750 H 0.25729 0.36535 0.4479 0.0
C1751 C 0.22932 0.3387 0.49622 0.0
C1752 C 0.2295 0.35079 0.50053 0.0
C1753 C 0.23896 0.33885 0.48502 0.0
C1754 C 0.26158 0.35884 0.44997 0.0
H1755 H 0.2829 0.32106 0.40339 0.0
H1756 H 0.27206 0.32497 0.42774 0.0
H1757 H 0.27119 0.36355 0.42546 0.0
H1758 H 0.24015 0.37258 0.49673 0.0
H1759 H 0.25711 0.37287 0.47725 0.0
H1760 H 0.26231 0.33658 0.47845 0.0
C1761 C 0.27931 0.33364 0.42039 0.0
C1762 C 0.26956 0.35781 0.4371 0.0
C1763 C 0.28547 0.33139 0.40631 0.0
C1764 C 0.23979 0.3631 0.49374 0.0
C1765 C 0.24942 0.36325 0.48246 0.0
C1766 C 0.26421 0.34255 0.46696 0.0
C1767 C 0.28206 0.34681 0.42452 0.0
C1768 C 0.27475 0.34895 0.43888 0.0
C1769 C 0.24902 0.3511 0.47782 0.0
C1770 C 0.2586 0.35103 0.46492 0.0
H1771 H 0.30456 0.36408 0.39262 0.0
H1772 H 0.29382 0.36801 0.41733 0.0
H1773 H 0.27625 0.33481 0.45604 0.0
H1774 H 0.22161 0.32907 0.50138 0.0
H1775 H 0.23827 0.32929 0.4816 0.0
C1776 C 0.67164 0.95561 0.40543 0.0
C1777 C 0.66152 0.95128 0.39287 0.0
C1778 C 0.66993 0.94749 0.41964 0.0
C1779 C 0.64394 0.91668 0.44312 0.0
H1780 H 0.67579 0.91646 0.4603 0.0
C1781 C 0.64254 0.87399 0.4849 0.0
C1782 C 0.65073 0.87807 0.49963 0.0
C1783 C 0.64335 0.88357 0.4731 0.0
C1784 C 0.66684 0.91652 0.45573 0.0
H1785 H 0.64164 0.93506 0.38539 0.0
H1786 H 0.63888 0.92063 0.40969 0.0
H1787 H 0.6782 0.93186 0.43729 0.0
H1788 H 0.66591 0.89565 0.51358 0.0
H1789 H 0.6677 0.91225 0.49252 0.0
H1790 H 0.63257 0.90077 0.46113 0.0
C1791 C 0.64797 0.93048 0.40897 0.0
C1792 C 0.66819 0.92541 0.44259 0.0
C1793 C 0.64958 0.93873 0.39493 0.0
C1794 C 0.65965 0.89204 0.50226 0.0
C1795 C 0.66063 0.90159 0.49027 0.0
C1796 C 0.64257 0.90761 0.45605 0.0
C1797 C 0.65817 0.93469 0.42148 0.0
C1798 C 0.65676 0.92559 0.43602 0.0
C1799 C 0.65253 0.89743 0.47555 0.0
C1800 C 0.654 0.90743 0.46243 0.0
H1801 H 0.6809 0.96531 0.40429 0.0
H1802 H 0.67788 0.95128 0.42916 0.0
H1803 H 0.63492 0.91667 0.43871 0.0
H1804 H 0.63576 0.86336 0.48217 0.0
H1805 H 0.63711 0.88009 0.46174 0.0
C1806 C 0.06087 0.70751 0.39774 0.0
C1807 C 0.05165 0.71162 0.39251 0.0
C1808 C 0.06931 0.7136 0.41187 0.0
C1809 C 0.0737 0.73531 0.44983 0.0
H1810 H 0.11135 0.7444 0.44686 0.0
C1811 C 0.11584 0.77631 0.49174 0.0
C1812 C 0.12552 0.77349 0.49887 0.0
C1813 C 0.10631 0.76743 0.47998 0.0
C1814 C 0.10082 0.74177 0.44797 0.0
H1815 H 0.04403 0.72531 0.39819 0.0
H1816 H 0.05884 0.73604 0.42238 0.0
H1817 H 0.09561 0.73119 0.42411 0.0
H1818 H 0.13249 0.75886 0.49931 0.0
H1819 H 0.11604 0.74355 0.4784 0.0
H1820 H 0.07907 0.74632 0.47341 0.0
C1821 C 0.05941 0.72793 0.41588 0.0
C1822 C 0.09177 0.73416 0.43496 0.0
C1823 C 0.05095 0.72182 0.40187 0.0
C1824 C 0.12535 0.7615 0.49392 0.0
C1825 C 0.1159 0.75268 0.48198 0.0
C1826 C 0.08277 0.74301 0.46274 0.0
C1827 C 0.06876 0.72397 0.42105 0.0
C1828 C 0.07814 0.73102 0.43558 0.0
C1829 C 0.10629 0.75557 0.47487 0.0
C1830 C 0.09647 0.7465 0.46183 0.0
H1831 H 0.06165 0.69966 0.39086 0.0
H1832 H 0.07627 0.71017 0.4156 0.0
H1833 H 0.06322 0.73282 0.45097 0.0
H1834 H 0.11579 0.78556 0.49491 0.0
H1835 H 0.09916 0.77004 0.47452 0.0
C1836 C 0.33314 0.04597 0.74301 0.0
C1837 C 0.32444 0.04157 0.72883 0.0
C1838 C 0.33069 0.05223 0.75683 0.0
C1839 C 0.30475 0.05945 0.77603 0.0
H1840 H 0.33651 0.08901 0.79742 0.0
C1841 C 0.30406 0.10093 0.81882 0.0
C1842 C 0.31168 0.1043 0.83401 0.0
C1843 C 0.30466 0.09202 0.80698 0.0
C1844 C 0.32754 0.08069 0.7917 0.0
H1845 H 0.30617 0.04005 0.71817 0.0
H1846 H 0.30215 0.05146 0.74194 0.0
H1847 H 0.33935 0.07595 0.77487 0.0
H1848 H 0.32541 0.10031 0.84887 0.0
H1849 H 0.32677 0.08515 0.82792 0.0
H1850 H 0.29301 0.06475 0.79253 0.0
C1851 C 0.31069 0.04976 0.74267 0.0
C1852 C 0.32915 0.07312 0.77879 0.0
C1853 C 0.31302 0.04326 0.72896 0.0
C1854 C 0.31965 0.09824 0.83718 0.0
C1855 C 0.32039 0.08949 0.82523 0.0
C1856 C 0.30316 0.06719 0.78878 0.0
C1857 C 0.31962 0.05453 0.7567 0.0
C1858 C 0.31778 0.06236 0.77076 0.0
C1859 C 0.31301 0.08639 0.80994 0.0
C1860 C 0.31455 0.07788 0.79674 0.0
H1861 H 0.34195 0.04466 0.74338 0.0
H1862 H 0.33759 0.05537 0.76755 0.0
H1863 H 0.29574 0.05114 0.77039 0.0
H1864 H 0.29798 0.10553 0.81574 0.0
H1865 H 0.29897 0.08991 0.79521 0.0
C1866 C 0.94693 0.28268 0.73514 0.0
C1867 C 0.95822 0.28311 0.72718 0.0
C1868 C 0.94077 0.27428 0.74921 0.0
C1869 C 0.93709 0.24357 0.77033 0.0
H1870 H 0.92125 0.25448 0.80652 0.0
C1871 C 0.89758 0.20509 0.81727 0.0
C1872 C 0.8976 0.2091 0.83425 0.0
C1873 C 0.90621 0.21443 0.80516 0.0
C1874 C 0.92576 0.25131 0.79666 0.0
H1875 H 0.97212 0.27527 0.72811 0.0
H1876 H 0.96152 0.26078 0.75286 0.0
H1877 H 0.9344 0.27057 0.78418 0.0
H1878 H 0.90702 0.22598 0.85194 0.0
H1879 H 0.92225 0.24227 0.83083 0.0
H1880 H 0.92861 0.22437 0.78296 0.0
C1881 C 0.95726 0.26677 0.74801 0.0
C1882 C 0.93316 0.2605 0.7837 0.0
C1883 C 0.96339 0.27514 0.73387 0.0
C1884 C 0.90665 0.22262 0.83891 0.0
C1885 C 0.91535 0.23196 0.8268 0.0
C1886 C 0.92974 0.2344 0.78334 0.0
C1887 C 0.94579 0.26613 0.75576 0.0
C1888 C 0.93875 0.25669 0.77023 0.0
C1889 C 0.91515 0.22801 0.80972 0.0
C1890 C 0.9238 0.23808 0.79654 0.0
H1891 H 0.94263 0.28865 0.73031 0.0
H1892 H 0.93184 0.27391 0.75466 0.0
H1893 H 0.94114 0.24022 0.76011 0.0
H1894 H 0.89058 0.19481 0.8132 0.0
H1895 H 0.90558 0.21106 0.79209 0.0
C1896 C 0.71582 0.66645 0.73907 0.0
C1897 C 0.71754 0.67681 0.72781 0.0
C1898 C 0.7247 0.66924 0.75274 0.0
C1899 C 0.74152 0.67881 0.78516 0.0
H1900 H 0.77988 0.70076 0.77486 0.0
C1901 C 0.78328 0.68946 0.8351 0.0
C1902 C 0.79397 0.6877 0.82914 0.0
C1903 C 0.77397 0.68971 0.82364 0.0
C1904 C 0.7692 0.69461 0.77795 0.0
H1905 H 0.72973 0.69835 0.72247 0.0
H1906 H 0.74522 0.70322 0.74641 0.0
H1907 H 0.76317 0.6981 0.75351 0.0
H1908 H 0.80355 0.68532 0.80647 0.0
H1909 H 0.78729 0.68561 0.78658 0.0
H1910 H 0.74759 0.67492 0.80938 0.0
C1911 C 0.73706 0.6929 0.74452 0.0
C1912 C 0.75962 0.69321 0.76578 0.0
C1913 C 0.72813 0.69012 0.73086 0.0
C1914 C 0.79532 0.68651 0.81149 0.0
C1915 C 0.78609 0.68685 0.80007 0.0
C1916 C 0.75112 0.68025 0.79736 0.0
C1917 C 0.73555 0.68245 0.75548 0.0
C1918 C 0.74566 0.68508 0.76911 0.0
C1919 C 0.77524 0.68835 0.806 0.0
C1920 C 0.76507 0.68795 0.79376 0.0
H1921 H 0.70777 0.65608 0.73714 0.0
H1922 H 0.72333 0.66092 0.76081 0.0
H1923 H 0.73084 0.6726 0.78819 0.0
H1924 H 0.78194 0.69034 0.84863 0.0
H1925 H 0.76577 0.69097 0.8286 0.0
C1926 C 0.7051 0.64365 0.63747 0.0
C1927 C 0.70783 0.65696 0.64063 0.0
C1928 C 0.71117 0.64089 0.62366 0.0
C1929 C 0.73326 0.64058 0.60192 0.0
H1930 H 0.73938 0.65915 0.55855 0.0
C1931 C 0.77569 0.64785 0.55578 0.0
C1932 C 0.77322 0.6469 0.53813 0.0
C1933 C 0.76606 0.64728 0.56731 0.0
C1934 C 0.73761 0.65374 0.57049 0.0
H1935 H 0.71874 0.67772 0.63138 0.0
H1936 H 0.72936 0.67291 0.60749 0.0
H1937 H 0.72502 0.66135 0.58003 0.0
H1938 H 0.75858 0.64439 0.51874 0.0
H1939 H 0.74164 0.64335 0.53896 0.0
H1940 H 0.74595 0.63308 0.59246 0.0
C1941 C 0.72244 0.66458 0.61556 0.0
C1942 C 0.72949 0.65511 0.58287 0.0
C1943 C 0.71642 0.66735 0.62937 0.0
C1944 C 0.76075 0.6451 0.53227 0.0
C1945 C 0.75111 0.64461 0.54383 0.0
C1946 C 0.7414 0.63924 0.58957 0.0
C1947 C 0.72005 0.65136 0.61267 0.0
C1948 C 0.72744 0.64875 0.59885 0.0
C1949 C 0.7537 0.64578 0.56148 0.0
C1950 C 0.74389 0.64602 0.57385 0.0
H1951 H 0.69849 0.6354 0.64585 0.0
H1952 H 0.709 0.63057 0.62167 0.0
H1953 H 0.73197 0.63562 0.61412 0.0
H1954 H 0.78513 0.64906 0.56072 0.0
H1955 H 0.76845 0.64837 0.58079 0.0
C1956 C 0.33644 0.04745 0.62788 0.0
C1957 C 0.34519 0.05183 0.64202 0.0
C1958 C 0.33888 0.05606 0.614 0.0
C1959 C 0.36486 0.08896 0.59449 0.0
H1960 H 0.33311 0.08688 0.57323 0.0
C1961 C 0.36573 0.13101 0.5516 0.0
C1962 C 0.35804 0.12676 0.53647 0.0
C1963 C 0.3651 0.12152 0.56344 0.0
C1964 C 0.34207 0.08748 0.57892 0.0
H1965 H 0.36351 0.0686 0.65255 0.0
H1966 H 0.36751 0.08385 0.62865 0.0
H1967 H 0.33025 0.0711 0.59588 0.0
H1968 H 0.3441 0.10904 0.52172 0.0
H1969 H 0.34268 0.09255 0.54269 0.0
H1970 H 0.3766 0.10582 0.57785 0.0
C1971 C 0.35894 0.07363 0.62801 0.0
C1972 C 0.34046 0.07838 0.59188 0.0
C1973 C 0.35663 0.0649 0.64179 0.0
C1974 C 0.34993 0.11274 0.53337 0.0
C1975 C 0.34916 0.10327 0.54533 0.0
C1976 C 0.36646 0.09821 0.58168 0.0
C1977 C 0.34998 0.06939 0.61402 0.0
C1978 C 0.35182 0.07896 0.59987 0.0
C1979 C 0.35663 0.10757 0.56056 0.0
C1980 C 0.35507 0.09755 0.57377 0.0
H1981 H 0.32762 0.03736 0.62759 0.0
H1982 H 0.33195 0.05225 0.6033 0.0
H1983 H 0.37386 0.08962 0.6001 0.0
H1984 H 0.37191 0.14169 0.55463 0.0
H1985 H 0.37085 0.12512 0.57517 0.0
C1986 C 0.95184 0.27911 0.63022 0.0
C1987 C 0.95162 0.29001 0.63842 0.0
C1988 C 0.94353 0.27277 0.61614 0.0
C1989 C 0.9121 0.26744 0.59532 0.0
H1990 H 0.92434 0.25328 0.55856 0.0
C1991 C 0.87861 0.23974 0.53657 0.0
C1992 C 0.87813 0.22754 0.53194 0.0
C1993 C 0.88811 0.24851 0.5485 0.0
C1994 C 0.92076 0.25713 0.56877 0.0
H1995 H 0.9427 0.303 0.63789 0.0
H1996 H 0.92836 0.29205 0.61311 0.0
H1997 H 0.94012 0.26678 0.58108 0.0
H1998 H 0.88728 0.21502 0.53646 0.0
H1999 H 0.90391 0.23038 0.55695 0.0
H2000 H 0.8927 0.25771 0.58298 0.0
C2001 C 0.9348 0.28826 0.61779 0.0
C2002 C 0.92979 0.26485 0.58171 0.0
C2003 C 0.94309 0.29459 0.63194 0.0
C2004 C 0.8875 0.22443 0.5394 0.0
C2005 C 0.89704 0.23324 0.55121 0.0
C2006 C 0.90308 0.25978 0.58232 0.0
C2007 C 0.93483 0.27718 0.6098 0.0
C2008 C 0.92552 0.26991 0.59531 0.0
C2009 C 0.89741 0.24533 0.55597 0.0
C2010 C 0.90725 0.25436 0.56905 0.0
H2011 H 0.95824 0.27526 0.63487 0.0
H2012 H 0.94369 0.26414 0.61051 0.0
H2013 H 0.90839 0.27102 0.60569 0.0
H2014 H 0.87169 0.24256 0.53092 0.0
H2015 H 0.88824 0.25783 0.55179 0.0
C2016 C 0.32884 0.27917 0.63371 0.0
C2017 C 0.33957 0.29134 0.64022 0.0
C2018 C 0.33107 0.27228 0.62047 0.0
C2019 C 0.35383 0.27577 0.58518 0.0
H2020 H 0.33993 0.23732 0.59256 0.0
C2021 C 0.35191 0.2383 0.53304 0.0
C2022 C 0.35612 0.22912 0.53812 0.0
C2023 C 0.35064 0.24674 0.54504 0.0
C2024 C 0.34392 0.24805 0.59035 0.0
H2025 H 0.36097 0.30609 0.63739 0.0
H2026 H 0.36481 0.29407 0.61404 0.0
H2027 H 0.33605 0.25058 0.61404 0.0
H2028 H 0.36236 0.22164 0.55971 0.0
H2029 H 0.36006 0.2363 0.58063 0.0
H2030 H 0.36163 0.27315 0.56138 0.0
C2031 C 0.35469 0.28988 0.6193 0.0
C2032 C 0.3416 0.25561 0.60256 0.0
C2033 C 0.35249 0.29672 0.63271 0.0
C2034 C 0.35921 0.22869 0.55538 0.0
C2035 C 0.35778 0.23699 0.56738 0.0
C2036 C 0.356 0.26814 0.57281 0.0
C2037 C 0.34405 0.27746 0.61329 0.0
C2038 C 0.34653 0.26954 0.60013 0.0
C2039 C 0.35337 0.24601 0.56237 0.0
C2040 C 0.35111 0.25421 0.57533 0.0
H2041 H 0.31875 0.27474 0.63913 0.0
H2042 H 0.32265 0.26281 0.61594 0.0
H2043 H 0.3577 0.28648 0.58296 0.0
H2044 H 0.34955 0.2389 0.51981 0.0
H2045 H 0.34716 0.25355 0.54084 0.0
C2046 C 0.72364 0.05119 0.63255 0.0
C2047 C 0.71255 0.05149 0.64006 0.0
C2048 C 0.73061 0.05969 0.61887 0.0
C2049 C 0.72835 0.08049 0.58447 0.0
H2050 H 0.76763 0.09961 0.58742 0.0
C2051 C 0.76324 0.12341 0.5375 0.0
C2052 C 0.7755 0.12411 0.53264 0.0
C2053 C 0.75497 0.11426 0.55007 0.0
C2054 C 0.75668 0.09422 0.58623 0.0
H2055 H 0.69983 0.06069 0.63864 0.0
H2056 H 0.71206 0.07555 0.61463 0.0
H2057 H 0.75417 0.08406 0.61003 0.0
H2058 H 0.78854 0.11556 0.53722 0.0
H2059 H 0.77396 0.09937 0.55854 0.0
H2060 H 0.7309 0.09059 0.56054 0.0
C2061 C 0.7153 0.06869 0.61939 0.0
C2062 C 0.74896 0.08532 0.59924 0.0
C2063 C 0.70834 0.06021 0.63318 0.0
C2064 C 0.77911 0.11523 0.54043 0.0
C2065 C 0.77083 0.10606 0.55289 0.0
C2066 C 0.7361 0.08936 0.57135 0.0
C2067 C 0.72666 0.06868 0.61229 0.0
C2068 C 0.73472 0.07829 0.59847 0.0
C2069 C 0.75875 0.10557 0.55806 0.0
C2070 C 0.75037 0.09627 0.57203 0.0
H2071 H 0.72713 0.04456 0.63742 0.0
H2072 H 0.73919 0.05928 0.61349 0.0
H2073 H 0.71739 0.07514 0.58348 0.0
H2074 H 0.76005 0.12998 0.53164 0.0
H2075 H 0.74579 0.11423 0.5538 0.0
C2076 C 0.94102 0.64464 0.63537 0.0
C2077 C 0.95121 0.65782 0.63984 0.0
C2078 C 0.93275 0.64249 0.62115 0.0
C2079 C 0.93037 0.65895 0.58135 0.0
H2080 H 0.89161 0.63505 0.58672 0.0
C2081 C 0.89096 0.66193 0.53833 0.0
C2082 C 0.87918 0.64984 0.53374 0.0
C2083 C 0.90028 0.66174 0.54974 0.0
C2084 C 0.90243 0.64159 0.58488 0.0
H2085 H 0.96084 0.67906 0.63259 0.0
H2086 H 0.94639 0.67533 0.60804 0.0
H2087 H 0.90694 0.63675 0.60951 0.0
H2088 H 0.8681 0.62802 0.53728 0.0
H2089 H 0.88448 0.62768 0.55715 0.0
H2090 H 0.92582 0.66403 0.55689 0.0
C2091 C 0.94487 0.66661 0.61536 0.0
C2092 C 0.91123 0.64256 0.59796 0.0
C2093 C 0.9531 0.66876 0.62955 0.0
C2094 C 0.87712 0.6375 0.54048 0.0
C2095 C 0.88643 0.63732 0.55198 0.0
C2096 C 0.92158 0.65799 0.5683 0.0
C2097 C 0.93451 0.65348 0.61105 0.0
C2098 C 0.92529 0.65144 0.59649 0.0
C2099 C 0.89804 0.64946 0.5569 0.0
C2100 C 0.90748 0.64949 0.57003 0.0
H2101 H 0.93931 0.63598 0.64298 0.0
H2102 H 0.92495 0.63223 0.61807 0.0
H2103 H 0.94117 0.66569 0.57966 0.0
H2104 H 0.8929 0.67159 0.53322 0.0
H2105 H 0.90904 0.6713 0.55337 0.0
C2106 C 0.96374 0.68852 0.73235 0.0
C2107 C 0.96044 0.67519 0.72816 0.0
C2108 C 0.95788 0.69105 0.74662 0.0
C2109 C 0.93945 0.67552 0.78696 0.0
H2110 H 0.92465 0.69945 0.78097 0.0
C2111 C 0.89746 0.67343 0.83012 0.0
C2112 C 0.89768 0.68558 0.83423 0.0
C2113 C 0.90693 0.67343 0.81876 0.0
C2114 C 0.92892 0.69292 0.78298 0.0
H2115 H 0.94865 0.6541 0.73597 0.0
H2116 H 0.93844 0.65849 0.76062 0.0
H2117 H 0.93805 0.69724 0.75818 0.0
H2118 H 0.90825 0.70731 0.82992 0.0
H2119 H 0.92492 0.70732 0.81017 0.0
H2120 H 0.93006 0.67096 0.8116 0.0
C2121 C 0.94563 0.66703 0.75303 0.0
C2122 C 0.93661 0.69166 0.76991 0.0
C2123 C 0.95143 0.6645 0.73878 0.0
C2124 C 0.90786 0.69779 0.8271 0.0
C2125 C 0.91732 0.69778 0.81565 0.0
C2126 C 0.93177 0.67678 0.80002 0.0
C2127 C 0.94867 0.6803 0.75704 0.0
C2128 C 0.94174 0.68273 0.7716 0.0
C2129 C 0.91686 0.68557 0.81119 0.0
C2130 C 0.92619 0.68529 0.79806 0.0
H2131 H 0.97066 0.69699 0.72447 0.0
H2132 H 0.96054 0.70141 0.74946 0.0
H2133 H 0.94347 0.66876 0.78881 0.0
H2134 H 0.88983 0.66387 0.83555 0.0
H2135 H 0.90618 0.66382 0.81549 0.0
C2136 C 0.33846 0.28515 0.73535 0.0
C2137 C 0.32709 0.28497 0.72803 0.0
C2138 C 0.33691 0.27643 0.74876 0.0
C2139 C 0.31391 0.25517 0.7829 0.0
H2140 H 0.33354 0.23556 0.7784 0.0
C2141 C 0.30533 0.21125 0.82831 0.0
C2142 C 0.31673 0.21013 0.83271 0.0
C2143 C 0.30635 0.22067 0.81607 0.0
C2144 C 0.32814 0.24109 0.78003 0.0
H2145 H 0.30519 0.2758 0.72956 0.0
H2146 H 0.30253 0.26058 0.75314 0.0
H2147 H 0.33581 0.25166 0.75647 0.0
H2148 H 0.33817 0.21819 0.82762 0.0
H2149 H 0.34005 0.23487 0.8069 0.0
H2150 H 0.30636 0.24468 0.80661 0.0
C2151 C 0.31263 0.26749 0.74841 0.0
C2152 C 0.32942 0.2503 0.76741 0.0
C2153 C 0.31416 0.27618 0.73487 0.0
C2154 C 0.3292 0.21884 0.82477 0.0
C2155 C 0.33024 0.2283 0.81264 0.0
C2156 C 0.31271 0.246 0.79565 0.0
C2157 C 0.32398 0.26737 0.75528 0.0
C2158 C 0.32238 0.25749 0.76873 0.0
C2159 C 0.3188 0.22923 0.80796 0.0
C2160 C 0.31987 0.23889 0.7944 0.0
H2161 H 0.34858 0.29182 0.73049 0.0
H2162 H 0.34587 0.27671 0.75397 0.0
H2163 H 0.30843 0.26064 0.78431 0.0
H2164 H 0.29559 0.20483 0.8343 0.0
H2165 H 0.2973 0.22102 0.8127 0.0
C2166 C 0.71765 0.05705 0.73599 0.0
C2167 C 0.71798 0.04594 0.72858 0.0
C2168 C 0.72619 0.06413 0.7496 0.0
C2169 C 0.74721 0.06219 0.78397 0.0
H2170 H 0.7664 0.10144 0.78044 0.0
C2171 C 0.79077 0.09724 0.82998 0.0
C2172 C 0.79178 0.10967 0.83466 0.0
C2173 C 0.78138 0.08892 0.81766 0.0
C2174 C 0.76099 0.09051 0.7818 0.0
H2175 H 0.72726 0.0333 0.73011 0.0
H2176 H 0.74217 0.0457 0.754 0.0
H2177 H 0.75061 0.0878 0.75813 0.0
H2178 H 0.78351 0.12295 0.83006 0.0
H2179 H 0.76689 0.10827 0.80917 0.0
H2180 H 0.75753 0.06492 0.80775 0.0
C2181 C 0.73526 0.04888 0.74922 0.0
C2182 C 0.75195 0.08268 0.76896 0.0
C2183 C 0.72676 0.04182 0.7355 0.0
C2184 C 0.78295 0.1134 0.82697 0.0
C2185 C 0.77353 0.10505 0.81475 0.0
C2186 C 0.75621 0.07004 0.79692 0.0
C2187 C 0.73523 0.06027 0.75621 0.0
C2188 C 0.74491 0.06845 0.76992 0.0
C2189 C 0.77274 0.09279 0.80975 0.0
C2190 C 0.76318 0.08431 0.79602 0.0
H2191 H 0.71099 0.06049 0.73108 0.0
H2192 H 0.72578 0.07273 0.75489 0.0
H2193 H 0.74186 0.05124 0.78511 0.0
H2194 H 0.79727 0.09395 0.83578 0.0
H2195 H 0.78114 0.0796 0.81405 0.0
C2196 C 0.05461 0.36373 0.03926 0.0
C2197 C 0.04101 0.35433 0.03541 0.0
C2198 C 0.06302 0.35946 0.04662 0.0
C2199 C 0.06691 0.32956 0.0553 0.0
H2200 H 0.08929 0.35199 0.09258 0.0
C2201 C 0.10881 0.32227 0.08777 0.0
C2202 C 0.11037 0.32428 0.10553 0.0
C2203 C 0.0998 0.32501 0.07882 0.0
C2204 C 0.08303 0.34553 0.0823 0.0
H2205 H 0.02573 0.33299 0.03567 0.0
H2206 H 0.04044 0.32552 0.04868 0.0
H2207 H 0.07482 0.35848 0.07731 0.0
H2208 H 0.10315 0.33004 0.12788 0.0
H2209 H 0.08747 0.33479 0.11231 0.0
H2210 H 0.07504 0.3165 0.06055 0.0
C2211 C 0.04461 0.3362 0.04588 0.0
C2212 C 0.07486 0.34936 0.07338 0.0
C2213 C 0.03616 0.34048 0.03847 0.0
C2214 C 0.10241 0.32867 0.11417 0.0
C2215 C 0.09341 0.33139 0.10524 0.0
C2216 C 0.07514 0.32574 0.06422 0.0
C2217 C 0.05805 0.3457 0.05039 0.0
C2218 C 0.06672 0.34146 0.05973 0.0
C2219 C 0.09215 0.32981 0.08742 0.0
C2220 C 0.08328 0.33368 0.07786 0.0
H2221 H 0.05871 0.37447 0.03694 0.0
H2222 H 0.0734 0.36701 0.04958 0.0
H2223 H 0.06081 0.32329 0.0448 0.0
H2224 H 0.11487 0.31901 0.08071 0.0
H2225 H 0.09915 0.3238 0.06508 0.0
C2226 C 0.64453 0.69216 0.0295 0.0
C2227 C 0.65186 0.68528 0.0311 0.0
C2228 C 0.64962 0.70518 0.03627 0.0
C2229 C 0.66943 0.72597 0.0713 0.0
H2230 H 0.67132 0.75611 0.04595 0.0
C2231 C 0.68545 0.77733 0.1042 0.0
C2232 C 0.67899 0.78453 0.099 0.0
C2233 C 0.68379 0.76605 0.09497 0.0
C2234 C 0.67068 0.74777 0.05333 0.0
H2235 H 0.67038 0.68671 0.04077 0.0
H2236 H 0.67911 0.70941 0.05312 0.0
H2237 H 0.66532 0.73492 0.03125 0.0
H2238 H 0.66597 0.78556 0.07952 0.0
H2239 H 0.66237 0.76554 0.06422 0.0
H2240 H 0.67394 0.73833 0.09356 0.0
C2241 C 0.6695 0.70474 0.0464 0.0
C2242 C 0.66736 0.73568 0.04482 0.0
C2243 C 0.66455 0.69181 0.03927 0.0
C2244 C 0.67092 0.78018 0.0842 0.0
C2245 C 0.66906 0.76877 0.07516 0.0
C2246 C 0.67247 0.73795 0.07989 0.0
C2247 C 0.66201 0.71147 0.04509 0.0
C2248 C 0.66661 0.72465 0.05376 0.0
C2249 C 0.67544 0.76149 0.08042 0.0
C2250 C 0.67301 0.749 0.07107 0.0
H2251 H 0.63473 0.68737 0.02325 0.0
H2252 H 0.64362 0.71013 0.03519 0.0
H2253 H 0.66874 0.71753 0.07851 0.0
H2254 H 0.69163 0.78021 0.11561 0.0
H2255 H 0.68908 0.76091 0.09932 0.0
C2256 C 0.31289 0.95107 0.03535 0.0
C2257 C 0.31677 0.96439 0.03039 0.0
C2258 C 0.30005 0.94257 0.04223 0.0
C2259 C 0.27153 0.94352 0.06383 0.0
H2260 H 0.25362 0.90462 0.05655 0.0
C2261 C 0.21846 0.90515 0.09174 0.0
C2262 C 0.21768 0.89376 0.09991 0.0
C2263 C 0.22997 0.91402 0.08229 0.0
C2264 C 0.25853 0.91546 0.05874 0.0
H2265 H 0.31 0.9791 0.02831 0.0
H2266 H 0.28737 0.96409 0.03993 0.0
H2267 H 0.27432 0.91951 0.04088 0.0
H2268 H 0.22872 0.8831 0.10485 0.0
H2269 H 0.24854 0.89833 0.088 0.0
H2270 H 0.25555 0.93935 0.08163 0.0
C2271 C 0.2944 0.96032 0.03883 0.0
C2272 C 0.27042 0.92401 0.0498 0.0
C2273 C 0.30734 0.96889 0.03204 0.0
C2274 C 0.22877 0.89154 0.09844 0.0
C2275 C 0.24017 0.9003 0.08883 0.0
C2276 C 0.25952 0.93495 0.07263 0.0
C2277 C 0.29065 0.94709 0.04421 0.0
C2278 C 0.27725 0.93814 0.05248 0.0
C2279 C 0.24089 0.91161 0.08062 0.0
C2280 C 0.25305 0.92082 0.0704 0.0
H2281 H 0.31992 0.94729 0.03437 0.0
H2282 H 0.29768 0.93257 0.04649 0.0
H2283 H 0.27656 0.95431 0.06641 0.0
H2284 H 0.21007 0.9071 0.09234 0.0
H2285 H 0.23023 0.92262 0.076 0.0
C2286 C 0.35977 0.05169 0.00566 0.0
C2287 C 0.3523 0.03761 0.00299 0.0
C2288 C 0.35544 0.06018 0.99868 0.0
C2289 C 0.32632 0.06038 0.97661 0.0
H2290 H 0.355 0.09511 0.96013 0.0
C2291 C 0.31861 0.09547 0.92925 0.0
C2292 C 0.3249 0.10928 0.93381 0.0
C2293 C 0.32103 0.08641 0.93862 0.0
C2294 C 0.34688 0.08548 0.96478 0.0
H2295 H 0.33423 0.02132 0.99133 0.0
H2296 H 0.32692 0.03615 0.97852 0.0
H2297 H 0.36083 0.07992 0.97482 0.0
H2298 H 0.33824 0.12417 0.95239 0.0
H2299 H 0.34282 0.10848 0.96822 0.0
H2300 H 0.31243 0.06592 0.96578 0.0
C2301 C 0.33595 0.04067 0.98638 0.0
C2302 C 0.3502 0.07678 0.97334 0.0
C2303 C 0.34015 0.03214 0.99368 0.0
C2304 C 0.33348 0.11372 0.94817 0.0
C2305 C 0.33605 0.10472 0.95734 0.0
C2306 C 0.32302 0.06903 0.96777 0.0
C2307 C 0.34369 0.05485 0.9885 0.0
C2308 C 0.33998 0.06412 0.9795 0.0
C2309 C 0.32993 0.09101 0.9526 0.0
C2310 C 0.33328 0.0817 0.96187 0.0
H2311 H 0.3691 0.05618 0.01295 0.0
H2312 H 0.36147 0.07098 1.00109 0.0
H2313 H 0.31816 0.05083 0.98132 0.0
H2314 H 0.31208 0.09168 0.91818 0.0
H2315 H 0.31627 0.0759 0.93462 0.0
C2316 C 0.95429 0.30944 0.0045 0.0
C2317 C 0.96851 0.31596 0.00333 0.0
C2318 C 0.94623 0.29642 0.99779 0.0
C2319 C 0.94536 0.27503 0.96345 0.0
H2320 H 0.91591 0.24567 0.9884 0.0
C2321 C 0.90942 0.22379 0.93067 0.0
C2322 C 0.89564 0.21711 0.93541 0.0
C2323 C 0.91909 0.23498 0.93995 0.0
C2324 C 0.92396 0.2538 0.98113 0.0
H2325 H 0.98545 0.31388 0.99449 0.0
H2326 H 0.97126 0.29119 0.98225 0.0
H2327 H 0.93127 0.26677 0.0031 0.0
H2328 H 0.88143 0.21691 0.95413 0.0
H2329 H 0.89799 0.23677 0.96949 0.0
H2330 H 0.93773 0.26255 0.94126 0.0
C2331 C 0.96643 0.29614 0.98859 0.0
C2332 C 0.93282 0.26583 0.98964 0.0
C2333 C 0.97452 0.30907 0.99566 0.0
C2334 C 0.89186 0.22189 0.9498 0.0
C2335 C 0.90148 0.2332 0.95888 0.0
C2336 C 0.93635 0.2631 0.95484 0.0
C2337 C 0.95221 0.28977 0.98946 0.0
C2338 C 0.94353 0.2766 0.98085 0.0
C2339 C 0.91525 0.23996 0.95409 0.0
C2340 C 0.9254 0.25235 0.96351 0.0
H2341 H 0.94938 0.31451 0.01036 0.0
H2342 H 0.93529 0.29177 0.99854 0.0
H2343 H 0.95346 0.28326 0.95634 0.0
H2344 H 0.91277 0.22056 0.91959 0.0
H2345 H 0.9296 0.23972 0.93597 0.0
C2346 C 0.68996 0.6379 0.99514 0.0
C2347 C 0.68577 0.6473 0.99915 0.0
C2348 C 0.70259 0.64216 0.9876 0.0
C2349 C 0.73633 0.67197 0.97898 0.0
H2350 H 0.73622 0.64985 0.94119 0.0
C2351 C 0.78541 0.67898 0.94642 0.0
C2352 C 0.78512 0.67734 0.9286 0.0
C2353 C 0.77364 0.67624 0.95536 0.0
C2354 C 0.73643 0.65621 0.95162 0.0
H2355 H 0.69181 0.66865 0.99897 0.0
H2356 H 0.71391 0.67611 0.98569 0.0
H2357 H 0.71527 0.64335 0.95656 0.0
H2358 H 0.77235 0.67217 0.90615 0.0
H2359 H 0.75186 0.66736 0.92171 0.0
H2360 H 0.75754 0.68493 0.97381 0.0
C2361 C 0.70742 0.66543 0.98849 0.0
C2362 C 0.72444 0.65239 0.96058 0.0
C2363 C 0.69474 0.66115 0.99605 0.0
C2364 C 0.77287 0.67326 0.9199 0.0
C2365 C 0.76113 0.67052 0.92882 0.0
C2366 C 0.74839 0.67578 0.97002 0.0
C2367 C 0.71135 0.65593 0.98384 0.0
C2368 C 0.72423 0.66018 0.97441 0.0
C2369 C 0.76131 0.67178 0.94668 0.0
C2370 C 0.74856 0.66794 0.95621 0.0
H2371 H 0.68336 0.62716 0.99747 0.0
H2372 H 0.70541 0.63461 0.98451 0.0
H2373 H 0.73653 0.67816 0.98961 0.0
H2374 H 0.79464 0.68197 0.95354 0.0
H2375 H 0.77411 0.67719 0.96912 0.0
C2376 C 0.96996 0.66407 0.99695 0.0
C2377 C 0.96503 0.65015 0.99957 0.0
C2378 C 0.96135 0.66862 0.99081 0.0
C2379 C 0.92495 0.65803 0.98491 0.0
H2380 H 0.93807 0.68377 0.94753 0.0
C2381 C 0.88881 0.66424 0.93938 0.0
C2382 C 0.8924 0.67731 0.93362 0.0
C2383 C 0.89788 0.6621 0.94904 0.0
C2384 C 0.9343 0.67674 0.95813 0.0
H2385 H 0.94712 0.63015 0.99826 0.0
H2386 H 0.93222 0.63803 0.98758 0.0
H2387 H 0.95359 0.67809 0.96195 0.0
H2388 H 0.90836 0.69841 0.93357 0.0
H2389 H 0.92419 0.69467 0.9506 0.0
H2390 H 0.90561 0.65646 0.98089 0.0
C2391 C 0.94267 0.64548 0.99037 0.0
C2392 C 0.9432 0.67349 0.96642 0.0
C2393 C 0.95126 0.64094 0.9964 0.0
C2394 C 0.90525 0.68823 0.93791 0.0
C2395 C 0.91436 0.68607 0.94753 0.0
C2396 C 0.91606 0.66127 0.97664 0.0
C2397 C 0.94762 0.65935 0.98729 0.0
C2398 C 0.93857 0.6639 0.97969 0.0
C2399 C 0.91079 0.67296 0.95318 0.0
C2400 C 0.92056 0.67046 0.96294 0.0
H2401 H 0.98052 0.67142 0.99926 0.0
H2402 H 0.96545 0.67938 0.98873 0.0
H2403 H 0.92111 0.65079 0.9953 0.0
H2404 H 0.87894 0.65564 0.93648 0.0
H2405 H 0.89485 0.65185 0.95299 0.0
C2406 C 0.34187 0.30816 1.00015 0.0
C2407 C 0.35575 0.31774 1.00183 0.0
C2408 C 0.33772 0.29558 0.99234 0.0
C2409 C 0.34965 0.27991 0.96099 0.0
H2410 H 0.32181 0.24549 0.97926 0.0
C2411 C 0.34061 0.22932 0.93306 0.0
C2412 C 0.32728 0.21831 0.93213 0.0
C2413 C 0.34345 0.2412 0.9417 0.0
C2414 C 0.32946 0.25503 0.97384 0.0
H2415 H 0.37613 0.32141 0.99713 0.0
H2416 H 0.36889 0.2996 0.98354 0.0
H2417 H 0.32777 0.26654 0.99449 0.0
H2418 H 0.30644 0.21126 0.93969 0.0
H2419 H 0.31132 0.23219 0.95427 0.0
H2420 H 0.35128 0.26861 0.94025 0.0
C2421 C 0.36122 0.30184 0.98811 0.0
C2422 C 0.33289 0.26708 0.98261 0.0
C2423 C 0.36536 0.31431 0.99601 0.0
C2424 C 0.31682 0.21957 0.93998 0.0
C2425 C 0.31964 0.23152 0.94855 0.0
C2426 C 0.34615 0.26793 0.95216 0.0
C2427 C 0.34737 0.29242 0.98592 0.0
C2428 C 0.34317 0.27962 0.97638 0.0
C2429 C 0.33301 0.2425 0.94951 0.0
C2430 C 0.33615 0.2553 0.95858 0.0
H2431 H 0.33422 0.3105 0.00449 0.0
H2432 H 0.32697 0.28853 0.9908 0.0
H2433 H 0.35741 0.28946 0.95569 0.0
H2434 H 0.34892 0.22883 0.92698 0.0
H2435 H 0.35389 0.24933 0.94236 0.0
C2436 C 0.69523 0.03499 1.00106 0.0
C2437 C 0.68542 0.03906 0.0019 0.0
C2438 C 0.7082 0.04379 0.99451 0.0
C2439 C 0.73161 0.08012 0.98369 0.0
H2440 H 0.7477 0.06561 0.95248 0.0
C2441 C 0.77423 0.11401 0.937 0.0
C2442 C 0.78526 0.11176 0.93519 0.0
C2443 C 0.76272 0.10499 0.94627 0.0
C2444 C 0.74341 0.06979 0.96133 0.0
H2445 H 0.68163 0.05562 0.99675 0.0
H2446 H 0.70399 0.07075 0.98518 0.0
H2447 H 0.72653 0.05019 0.9671 0.0
H2448 H 0.79272 0.09811 0.94177 0.0
H2449 H 0.77246 0.0822 0.95768 0.0
H2450 H 0.7483 0.09974 0.97754 0.0
C2451 C 0.70184 0.0609 0.98981 0.0
C2452 C 0.7313 0.06096 0.96976 0.0
C2453 C 0.68894 0.05216 0.99637 0.0
C2454 C 0.78437 0.1001 0.9427 0.0
C2455 C 0.77278 0.09099 0.95187 0.0
C2456 C 0.74365 0.08894 0.97518 0.0
C2457 C 0.71163 0.05682 0.98866 0.0
C2458 C 0.72513 0.06604 0.98084 0.0
C2459 C 0.76187 0.0934 0.95385 0.0
C2460 C 0.74958 0.0839 0.96371 0.0
H2461 H 0.69284 0.02496 0.00523 0.0
H2462 H 0.71553 0.04036 0.99399 0.0
H2463 H 0.72733 0.08438 0.99242 0.0
H2464 H 0.77439 0.12269 0.93109 0.0
H2465 H 0.75438 0.10699 0.94729 0.0
C2466 C 0.66251 0.96776 0.03545 0.0
C2467 C 0.64867 0.96383 0.03604 0.0
C2468 C 0.66713 0.95955 0.04275 0.0
C2469 C 0.65825 0.93406 0.07625 0.0
H2470 H 0.68225 0.9243 0.05286 0.0
C2471 C 0.68079 0.90467 0.10987 0.0
C2472 C 0.67931 0.89324 0.10104 0.0
C2473 C 0.67831 0.91413 0.10167 0.0
C2474 C 0.67556 0.92697 0.05953 0.0
H2475 H 0.62879 0.94805 0.04445 0.0
H2476 H 0.63685 0.93389 0.05724 0.0
H2477 H 0.6753 0.93908 0.03871 0.0
H2478 H 0.67458 0.88304 0.07653 0.0
H2479 H 0.6703 0.89962 0.06217 0.0
H2480 H 0.6584 0.92193 0.097 0.0
C2481 C 0.64414 0.94332 0.05121 0.0
C2482 C 0.67166 0.93549 0.05149 0.0
C2483 C 0.63953 0.95141 0.04377 0.0
C2484 C 0.67569 0.89169 0.08369 0.0
C2485 C 0.67336 0.90124 0.07544 0.0
C2486 C 0.66228 0.92572 0.08436 0.0
C2487 C 0.658 0.94736 0.05096 0.0
C2488 C 0.66282 0.93896 0.05969 0.0
C2489 C 0.67444 0.91245 0.08441 0.0
C2490 C 0.67086 0.92196 0.07604 0.0
H2491 H 0.66981 0.97727 0.02959 0.0
H2492 H 0.67787 0.96291 0.04241 0.0
H2493 H 0.65153 0.93668 0.08294 0.0
H2494 H 0.68348 0.90609 0.12326 0.0
H2495 H 0.67931 0.92272 0.10887 0.0
C2496 C 0.03544 0.69588 0.03317 0.0
C2497 C 0.03964 0.68617 0.03196 0.0
C2498 C 0.04374 0.70841 0.04111 0.0
C2499 C 0.0704 0.72382 0.07351 0.0
H2500 H 0.07838 0.75839 0.05416 0.0
C2501 C 0.11194 0.77417 0.10182 0.0
C2502 C 0.10995 0.78542 0.10205 0.0
C2503 C 0.10293 0.76229 0.09318 0.0
C2504 C 0.07609 0.74881 0.05989 0.0
H2505 H 0.05602 0.68221 0.03769 0.0
H2506 H 0.07035 0.70394 0.05154 0.0
H2507 H 0.06337 0.73736 0.03891 0.0
H2508 H 0.09683 0.79291 0.0932 0.0
H2509 H 0.08083 0.77201 0.07864 0.0
H2510 H 0.08285 0.73507 0.09457 0.0
C2511 C 0.06063 0.70184 0.04648 0.0
C2512 C 0.06753 0.73678 0.0511 0.0
C2513 C 0.05243 0.68942 0.03844 0.0
C2514 C 0.09862 0.78442 0.09348 0.0
C2515 C 0.08953 0.77247 0.08491 0.0
C2516 C 0.07882 0.73579 0.08235 0.0
C2517 C 0.0563 0.71139 0.04815 0.0
C2518 C 0.06477 0.72418 0.05772 0.0
C2519 C 0.09157 0.76124 0.08465 0.0
C2520 C 0.08197 0.74848 0.07556 0.0
H2521 H 0.02564 0.69368 0.02831 0.0
H2522 H 0.04015 0.71559 0.04225 0.0
H2523 H 0.06824 0.71423 0.07909 0.0
H2524 H 0.12043 0.77446 0.10846 0.0
H2525 H 0.10498 0.75396 0.09307 0.0
C2526 C 0.30799 0.3383 0.03678 0.0
C2527 C 0.31642 0.35218 0.03325 0.0
C2528 C 0.2949 0.33348 0.04335 0.0
C2529 C 0.26814 0.34288 0.04906 0.0
H2530 H 0.25714 0.31839 0.08771 0.0
C2531 C 0.22632 0.33667 0.09564 0.0
C2532 C 0.21719 0.32365 0.10188 0.0
C2533 C 0.23747 0.33889 0.08576 0.0
C2534 C 0.25996 0.32506 0.07676 0.0
H2535 H 0.31756 0.37181 0.03342 0.0
H2536 H 0.29492 0.36347 0.04489 0.0
H2537 H 0.27824 0.32437 0.07275 0.0
H2538 H 0.2126 0.30272 0.10256 0.0
H2539 H 0.23211 0.30659 0.08518 0.0
H2540 H 0.25004 0.34382 0.05331 0.0
C2541 C 0.2983 0.35624 0.04247 0.0
C2542 C 0.27205 0.32848 0.06817 0.0
C2543 C 0.31135 0.36105 0.03597 0.0
C2544 C 0.21941 0.31286 0.09786 0.0
C2545 C 0.23064 0.31509 0.08803 0.0
C2546 C 0.25609 0.33948 0.05766 0.0
C2547 C 0.28995 0.34243 0.04642 0.0
C2548 C 0.27642 0.33764 0.05442 0.0
C2549 C 0.23981 0.32815 0.08188 0.0
C2550 C 0.25198 0.33074 0.07182 0.0
H2551 H 0.31159 0.3312 0.03482 0.0
H2552 H 0.28868 0.32276 0.04611 0.0
H2553 H 0.27107 0.34975 0.03831 0.0
H2554 H 0.22481 0.34518 0.09834 0.0
H2555 H 0.24441 0.3491 0.08141 0.0
C2556 C 0.72023 0.69726 0.36995 0.0
C2557 C 0.70658 0.68788 0.36631 0.0
C2558 C 0.72855 0.69306 0.37772 0.0
C2559 C 0.73231 0.66332 0.38747 0.0
H2560 H 0.75446 0.686 0.42474 0.0
C2561 C 0.7675 0.66263 0.44679 0.0
C2562 C 0.77572 0.6585 0.43825 0.0
C2563 C 0.75854 0.66532 0.43773 0.0
C2564 C 0.74827 0.67949 0.41445 0.0
H2565 H 0.69111 0.66662 0.3674 0.0
H2566 H 0.70571 0.65926 0.38103 0.0
H2567 H 0.74003 0.69236 0.40904 0.0
H2568 H 0.78074 0.65374 0.41342 0.0
H2569 H 0.76501 0.65837 0.39761 0.0
H2570 H 0.74054 0.65039 0.39305 0.0
C2571 C 0.70996 0.66987 0.37779 0.0
C2572 C 0.74012 0.68323 0.40531 0.0
C2573 C 0.70159 0.67409 0.37003 0.0
C2574 C 0.77446 0.65676 0.42044 0.0
C2575 C 0.76545 0.65942 0.41136 0.0
C2576 C 0.74056 0.65961 0.39657 0.0
C2577 C 0.72345 0.67937 0.38206 0.0
C2578 C 0.73206 0.67522 0.39168 0.0
C2579 C 0.75752 0.66392 0.41988 0.0
C2580 C 0.74862 0.66766 0.41019 0.0
H2581 H 0.72445 0.70795 0.36717 0.0
H2582 H 0.73897 0.70059 0.38054 0.0
H2583 H 0.72627 0.65696 0.37699 0.0
H2584 H 0.76798 0.66379 0.46053 0.0
H2585 H 0.75239 0.66852 0.44471 0.0
C2586 C 0.32873 0.02604 0.37472 0.0
C2587 C 0.31581 0.01955 0.36713 0.0
C2588 C 0.33388 0.03891 0.3821 0.0
C2589 C 0.33135 0.06973 0.38206 0.0
H2590 H 0.34047 0.07261 0.4301 0.0
C2591 C 0.33631 0.11403 0.42312 0.0
C2592 C 0.34536 0.1187 0.437 0.0
C2593 C 0.33404 0.10257 0.41386 0.0
C2594 C 0.33827 0.07215 0.41661 0.0
H2595 H 0.29844 0.02166 0.36064 0.0
H2596 H 0.30763 0.04429 0.37305 0.0
H2597 H 0.33475 0.05183 0.41461 0.0
H2598 H 0.35922 0.11485 0.45179 0.0
H2599 H 0.35584 0.0954 0.4351 0.0
H2600 H 0.33506 0.09005 0.38381 0.0
C2601 C 0.31368 0.03936 0.37346 0.0
C2602 C 0.33494 0.06019 0.40776 0.0
C2603 C 0.30841 0.0264 0.36642 0.0
C2604 C 0.35229 0.11171 0.4411 0.0
C2605 C 0.35018 0.10037 0.43165 0.0
C2606 C 0.33493 0.08178 0.3908 0.0
C2607 C 0.32634 0.04562 0.38166 0.0
C2608 C 0.33122 0.05879 0.3905 0.0
C2609 C 0.34093 0.09555 0.41797 0.0
C2610 C 0.33817 0.08308 0.4083 0.0
H2611 H 0.33463 0.02096 0.37553 0.0
H2612 H 0.3437 0.04356 0.38832 0.0
H2613 H 0.32863 0.06892 0.3687 0.0
H2614 H 0.33096 0.11923 0.41931 0.0
H2615 H 0.32667 0.09912 0.40364 0.0
C2616 C 0.97607 0.28575 0.36262 0.0
C2617 C 0.98274 0.29994 0.36436 0.0
C2618 C 0.96304 0.27766 0.36927 0.0
C2619 C 0.94192 0.27627 0.4042 0.0
H2620 H 0.91221 0.24769 0.37866 0.0
C2621 C 0.89064 0.24029 0.43671 0.0
C2622 C 0.88373 0.22662 0.43149 0.0
C2623 C 0.90187 0.25003 0.42756 0.0
C2624 C 0.92043 0.25549 0.38608 0.0
H2625 H 0.98094 0.31681 0.37415 0.0
H2626 H 0.95822 0.30255 0.38629 0.0
H2627 H 0.93335 0.26316 0.36409 0.0
H2628 H 0.88315 0.21267 0.4121 0.0
H2629 H 0.90309 0.22933 0.39693 0.0
H2630 H 0.9295 0.26826 0.42638 0.0
C2631 C 0.96306 0.29777 0.37955 0.0
C2632 C 0.93249 0.26442 0.37766 0.0
C2633 C 0.976 0.3059 0.37254 0.0
C2634 C 0.88832 0.22301 0.41678 0.0
C2635 C 0.89967 0.23269 0.40782 0.0
C2636 C 0.92997 0.26719 0.41271 0.0
C2637 C 0.95654 0.28357 0.37811 0.0
C2638 C 0.94337 0.27482 0.38667 0.0
C2639 C 0.90665 0.24635 0.41308 0.0
C2640 C 0.91909 0.25656 0.40381 0.0
H2641 H 0.98101 0.28088 0.35635 0.0
H2642 H 0.95825 0.26673 0.36809 0.0
H2643 H 0.95024 0.28412 0.41147 0.0
H2644 H 0.88757 0.2435 0.44805 0.0
H2645 H 0.90678 0.26045 0.4319 0.0
C2646 C 0.03046 0.38612 0.32842 0.0
C2647 C 0.02082 0.37295 0.33363 0.0
C2648 C 0.02639 0.39484 0.32158 0.0
C2649 C 0.99735 0.39472 0.30027 0.0
H2650 H 0.01891 0.43354 0.30784 0.0
C2651 C 0.98388 0.43387 0.27206 0.0
C2652 C 0.99473 0.44533 0.26431 0.0
C2653 C 0.98621 0.4248 0.28152 0.0
C2654 C 0.01282 0.42272 0.30556 0.0
H2655 H 0.99928 0.35872 0.33615 0.0
H2656 H 0.99212 0.37409 0.32449 0.0
H2657 H 0.02424 0.41826 0.32339 0.0
H2658 H 0.01651 0.45591 0.26011 0.0
H2659 H 0.02056 0.4403 0.27691 0.0
H2660 H 0.98591 0.39929 0.28243 0.0
C2661 C 0.00287 0.37758 0.32543 0.0
C2662 C 0.01588 0.41395 0.31444 0.0
C2663 C 0.00696 0.3688 0.33223 0.0
C2664 C 0.00794 0.44741 0.2662 0.0
C2665 C 0.01027 0.43843 0.27579 0.0
C2666 C 0.9942 0.40351 0.29149 0.0
C2667 C 0.01254 0.39068 0.31985 0.0
C2668 C 0.00837 0.39985 0.31166 0.0
C2669 C 0.99945 0.42706 0.2836 0.0
C2670 C 0.00207 0.41762 0.29381 0.0
H2671 H 0.04122 0.38964 0.32922 0.0
H2672 H 0.03415 0.40473 0.31716 0.0
H2673 H 0.99143 0.38394 0.29764 0.0
H2674 H 0.9736 0.43202 0.2711 0.0
H2675 H 0.97769 0.41616 0.2875 0.0
C2676 C 0.64073 0.64359 0.32746 0.0
C2677 C 0.6347 0.65011 0.33604 0.0
C2678 C 0.63267 0.6307 0.32028 0.0
C2679 C 0.59943 0.59986 0.32209 0.0
H2680 H 0.6034 0.59725 0.27333 0.0
C2681 C 0.55838 0.55566 0.28258 0.0
C2682 C 0.56208 0.55124 0.26779 0.0
C2683 C 0.56796 0.567 0.29165 0.0
C2684 C 0.60229 0.59762 0.287 0.0
H2685 H 0.6156 0.64802 0.34453 0.0
H2686 H 0.60158 0.62535 0.33247 0.0
H2687 H 0.61908 0.61796 0.28842 0.0
H2688 H 0.57904 0.55538 0.25122 0.0
H2689 H 0.59584 0.5746 0.26754 0.0
H2690 H 0.58286 0.57951 0.32091 0.0
C2691 C 0.6125 0.63027 0.33113 0.0
C2692 C 0.61128 0.60955 0.29562 0.0
C2693 C 0.62053 0.64325 0.33797 0.0
C2694 C 0.57576 0.55832 0.26262 0.0
C2695 C 0.58541 0.56955 0.27187 0.0
C2696 C 0.59061 0.58782 0.31355 0.0
C2697 C 0.61847 0.624 0.32191 0.0
C2698 C 0.60978 0.61087 0.31318 0.0
C2699 C 0.58162 0.57416 0.28642 0.0
C2700 C 0.59172 0.58661 0.2958 0.0
H2701 H 0.65163 0.64866 0.32569 0.0
H2702 H 0.6375 0.62604 0.31327 0.0
H2703 H 0.59815 0.6006 0.33568 0.0
H2704 H 0.54804 0.55036 0.28724 0.0
H2705 H 0.56452 0.57028 0.3026 0.0
C2706 C 0.35149 0.97001 0.32514 0.0
C2707 C 0.34855 0.97987 0.33136 0.0
C2708 C 0.364 0.97382 0.31756 0.0
C2709 C 0.39941 0.00131 0.31371 0.0
H2710 H 0.39817 0.98326 0.27117 0.0
C2711 C 0.44744 0.01638 0.27254 0.0
C2712 C 0.44846 0.00574 0.26483 0.0
C2713 C 0.43545 0.01386 0.28077 0.0
C2714 C 0.39874 0.98829 0.28314 0.0
H2715 H 0.35667 0.00147 0.335 0.0
H2716 H 0.37867 0.00814 0.32179 0.0
H2717 H 0.37714 0.9777 0.2858 0.0
H2718 H 0.43753 0.98411 0.25958 0.0
H2719 H 0.41692 0.97967 0.27432 0.0
H2720 H 0.42106 0.01175 0.31118 0.0
C2721 C 0.37122 0.99745 0.32281 0.0
C2722 C 0.38667 0.98512 0.2915 0.0
C2723 C 0.35862 0.99363 0.33033 0.0
C2724 C 0.43721 0.99253 0.26557 0.0
C2725 C 0.42528 0.99002 0.27383 0.0
C2726 C 0.41154 0.00443 0.30538 0.0
C2727 C 0.37393 0.98757 0.31605 0.0
C2728 C 0.38685 0.99148 0.30697 0.0
C2729 C 0.42421 1.00064 0.28148 0.0
C2730 C 0.41136 0.99784 0.29007 0.0
H2731 H 0.34401 0.95931 0.32578 0.0
H2732 H 0.36586 0.96596 0.31274 0.0
H2733 H 0.39987 0.00632 0.32566 0.0
H2734 H 0.45594 0.02665 0.27238 0.0
H2735 H 0.43496 0.02231 0.28638 0.0
C2736 C 0.63385 0.99268 0.33197 0.0
C2737 C 0.62977 0.97882 0.3331 0.0
C2738 C 0.62503 0.9968 0.32537 0.0
C2739 C 0.58863 0.98376 0.31459 0.0
H2740 H 0.60313 0.01413 0.28317 0.0
C2741 C 0.55491 0.99218 0.2673 0.0
C2742 C 0.55698 0.00541 0.26572 0.0
C2743 C 0.56395 0.98976 0.27663 0.0
C2744 C 0.59896 0.00573 0.29207 0.0
H2745 H 0.61314 0.95843 0.32841 0.0
H2746 H 0.59797 0.96555 0.3167 0.0
H2747 H 0.61856 0.00849 0.29796 0.0
H2748 H 0.57032 0.02647 0.27275 0.0
H2749 H 0.58627 0.02223 0.2887 0.0
H2750 H 0.569 0.98075 0.30826 0.0
C2751 C 0.60785 0.97329 0.32118 0.0
C2752 C 0.60779 0.00251 0.30061 0.0
C2753 C 0.61661 0.96919 0.32782 0.0
C2754 C 0.56848 0.01618 0.27349 0.0
C2755 C 0.5776 0.01377 0.28269 0.0
C2756 C 0.57981 0.9869 0.30595 0.0
C2757 C 0.61195 0.98714 0.31973 0.0
C2758 C 0.60272 0.99135 0.31178 0.0
C2759 C 0.57536 1.00051 0.28447 0.0
C2760 C 0.58486 0.99779 0.29442 0.0
H2761 H 0.64392 1.00035 0.33596 0.0
H2762 H 0.62847 0.00754 0.32465 0.0
H2763 H 0.58436 0.97529 0.32339 0.0
H2764 H 0.54637 0.98366 0.26119 0.0
H2765 H 0.56209 0.97946 0.27751 0.0
C2766 C 0.00931 0.64412 0.32837 0.0
C2767 C 0.02315 0.654 0.32925 0.0
C2768 C 0.0052 0.63154 0.32059 0.0
C2769 C 0.01672 0.61592 0.28845 0.0
H2770 H 0.99002 0.58157 0.30816 0.0
C2771 C 0.00845 0.56523 0.26186 0.0
C2772 C 0.99521 0.55402 0.26137 0.0
C2773 C 0.01116 0.5772 0.27016 0.0
C2774 C 0.99735 0.59108 0.30235 0.0
H2775 H 0.04352 0.65823 0.3231 0.0
H2776 H 0.03635 0.63641 0.30961 0.0
H2777 H 0.9959 0.60277 0.32296 0.0
H2778 H 0.97442 0.54669 0.26934 0.0
H2779 H 0.97908 0.56775 0.28343 0.0
H2780 H 0.01815 0.6044 0.26781 0.0
C2781 C 0.02866 0.63841 0.31475 0.0
C2782 C 1.00073 0.60322 0.31086 0.0
C2783 C 0.03277 0.6509 0.32259 0.0
C2784 C 0.98471 0.55515 0.26932 0.0
C2785 C 0.98742 0.56718 0.27759 0.0
C2786 C 0.01328 0.60384 0.27991 0.0
C2787 C 0.01483 0.62866 0.31342 0.0
C2788 C 0.01061 0.61575 0.30412 0.0
C2789 C 1.00069 0.57837 0.2781 0.0
C2790 C 0.00371 0.59124 0.28685 0.0
H2791 H 0.00165 0.6462 0.33337 0.0
H2792 H 0.99446 0.62423 0.31972 0.0
H2793 H 0.02416 0.62543 0.28274 0.0
H2794 H 0.01677 0.56482 0.25569 0.0
H2795 H 0.02153 0.58551 0.27048 0.0
C2796 C 0.36228 0.36806 0.33174 0.0
C2797 C 0.35237 0.37196 0.33313 0.0
C2798 C 0.3748 0.37667 0.32394 0.0
C2799 C 0.39004 0.40428 0.29252 0.0
H2800 H 0.42462 0.41173 0.31127 0.0
C2801 C 0.44036 0.44715 0.26597 0.0
C2802 C 0.45156 0.44511 0.26485 0.0
C2803 C 0.42851 0.43777 0.27436 0.0
C2804 C 0.41504 0.40961 0.30573 0.0
H2805 H 0.34802 0.38815 0.32791 0.0
H2806 H 0.36973 0.40305 0.31439 0.0
H2807 H 0.40358 0.39616 0.32615 0.0
H2808 H 0.45902 0.43154 0.27181 0.0
H2809 H 0.43816 0.41497 0.28606 0.0
H2810 H 0.40132 0.41755 0.27206 0.0
C2811 C 0.3678 0.3933 0.31913 0.0
C2812 C 0.403 0.40071 0.31428 0.0
C2813 C 0.35538 0.38478 0.32699 0.0
C2814 C 0.45055 0.43338 0.27229 0.0
C2815 C 0.43865 0.42395 0.28065 0.0
C2816 C 0.40202 0.41308 0.28393 0.0
C2817 C 0.37757 0.38928 0.31726 0.0
C2818 C 0.39038 0.39812 0.30789 0.0
C2819 C 0.42746 0.42602 0.28176 0.0
C2820 C 0.4147 0.41603 0.29054 0.0
H2821 H 0.36027 0.35825 0.33634 0.0
H2822 H 0.38213 0.37329 0.32265 0.0
H2823 H 0.38046 0.40227 0.28707 0.0
H2824 H 0.44067 0.45595 0.26021 0.0
H2825 H 0.4202 0.43983 0.27516 0.0
C2826 C 0.30699 0.28482 0.37881 0.0
C2827 C 0.31609 0.29706 0.37068 0.0
C2828 C 0.31163 0.27686 0.38655 0.0
C2829 C 0.33896 0.26881 0.38707 0.0
H2830 H 0.32635 0.25645 0.43314 0.0
C2831 C 0.34304 0.22558 0.42078 0.0
C2832 C 0.3471 0.22762 0.43797 0.0
C2833 C 0.34061 0.23495 0.41223 0.0
C2834 C 0.33005 0.25991 0.42033 0.0
H2835 H 0.33718 0.31032 0.36385 0.0
H2836 H 0.34529 0.29617 0.37719 0.0
H2837 H 0.31942 0.27098 0.41859 0.0
H2838 H 0.35192 0.24113 0.45963 0.0
H2839 H 0.34754 0.25745 0.44473 0.0
H2840 H 0.3494 0.2575 0.38876 0.0
C2841 C 0.33456 0.29285 0.37761 0.0
C2842 C 0.32599 0.26813 0.41195 0.0
C2843 C 0.32992 0.30095 0.37002 0.0
C2844 C 0.34888 0.23933 0.44636 0.0
C2845 C 0.34629 0.24861 0.43787 0.0
C2846 C 0.34288 0.26042 0.39538 0.0
C2847 C 0.32547 0.28085 0.3862 0.0
C2848 C 0.33032 0.27259 0.3952 0.0
C2849 C 0.34202 0.24647 0.42076 0.0
C2850 C 0.33841 0.25584 0.41209 0.0
H2851 H 0.29627 0.28151 0.37956 0.0
H2852 H 0.30438 0.26757 0.39289 0.0
H2853 H 0.34241 0.27208 0.37414 0.0
H2854 H 0.34168 0.21669 0.41396 0.0
H2855 H 0.33724 0.23298 0.39909 0.0
C2856 C 0.71842 0.02432 0.36105 0.0
C2857 C 0.70435 0.01802 0.36357 0.0
C2858 C 0.72708 0.03715 0.36788 0.0
C2859 C 0.72775 0.067 0.38941 0.0
H2860 H 0.76252 0.07291 0.40553 0.0
C2861 C 0.76367 0.1099 0.43632 0.0
C2862 C 0.77735 0.11751 0.43118 0.0
C2863 C 0.75443 0.09839 0.42715 0.0
C2864 C 0.75288 0.07142 0.40098 0.0
H2865 H 0.68823 0.02031 0.37487 0.0
H2866 H 0.70332 0.04246 0.38751 0.0
H2867 H 0.74705 0.05174 0.39131 0.0
H2868 H 0.79176 0.1191 0.41177 0.0
H2869 H 0.77577 0.09872 0.39636 0.0
H2870 H 0.73356 0.0866 0.39997 0.0
C2871 C 0.70773 0.03773 0.37983 0.0
C2872 C 0.74401 0.05932 0.39268 0.0
C2873 C 0.69904 0.02499 0.37263 0.0
C2874 C 0.78144 0.11337 0.41645 0.0
C2875 C 0.77227 0.10174 0.4075 0.0
C2876 C 0.73656 0.07903 0.39804 0.0
C2877 C 0.72192 0.04389 0.37782 0.0
C2878 C 0.73134 0.05693 0.38663 0.0
C2879 C 0.75871 0.0941 0.41281 0.0
C2880 C 0.74924 0.08137 0.40379 0.0
H2881 H 0.72279 0.01924 0.35394 0.0
H2882 H 0.73786 0.04168 0.36553 0.0
H2883 H 0.71821 0.06568 0.38477 0.0
H2884 H 0.76014 0.11261 0.44769 0.0
H2885 H 0.74404 0.09259 0.43158 0.0
C2886 C 0.98052 0.70003 0.37082 0.0
C2887 C 0.98457 0.69053 0.36679 0.0
C2888 C 0.96789 0.69589 0.37823 0.0
C2889 C 0.93385 0.66635 0.38631 0.0
H2890 H 0.93384 0.68881 0.4236 0.0
C2891 C 0.88713 0.65134 0.43033 0.0
C2892 C 0.88465 0.66183 0.43514 0.0
C2893 C 0.89893 0.65424 0.42133 0.0
C2894 C 0.93361 0.6825 0.41309 0.0
H2895 H 0.97828 0.66911 0.36685 0.0
H2896 H 0.95613 0.66186 0.37996 0.0
H2897 H 0.95495 0.69484 0.40892 0.0
H2898 H 0.89231 0.6835 0.43354 0.0
H2899 H 0.91279 0.68853 0.41788 0.0
H2900 H 0.91243 0.65399 0.39059 0.0
C2901 C 0.96276 0.67253 0.37726 0.0
C2902 C 0.94573 0.68597 0.40466 0.0
C2903 C 0.97546 0.67669 0.36979 0.0
C2904 C 0.89405 0.67522 0.43037 0.0
C2905 C 0.9058 0.6781 0.42139 0.0
C2906 C 0.92167 0.66287 0.39477 0.0
C2907 C 0.95895 0.68213 0.38188 0.0
C2908 C 0.946 0.67803 0.39104 0.0
C2909 C 0.90849 0.66769 0.41694 0.0
C2910 C 0.9214 0.671 0.40816 0.0
H2911 H 0.98723 0.71076 0.36855 0.0
H2912 H 0.96516 0.70353 0.38127 0.0
H2913 H 0.9337 0.66007 0.37582 0.0
H2914 H 0.88014 0.64094 0.43392 0.0
H2915 H 0.90075 0.64599 0.41822 0.0
C2916 C 0.38546 0.03111 0.70939 0.0
C2917 C 0.37241 0.02171 0.70348 0.0
C2918 C 0.39407 0.02673 0.71581 0.0
C2919 C 0.3938 0.99695 0.73488 0.0
H2920 H 0.43257 0.01828 0.72687 0.0
C2921 C 0.43306 0.99134 0.77577 0.0
C2922 C 0.44489 0.99305 0.76778 0.0
C2923 C 0.42377 0.99362 0.76677 0.0
C2924 C 0.42176 0.01208 0.72909 0.0
H2925 H 0.35827 1.00032 0.69942 0.0
H2926 H 0.37342 0.99265 0.7105 0.0
H2927 H 0.4174 0.02437 0.7126 0.0
H2928 H 0.45594 0.99793 0.74386 0.0
H2929 H 0.43968 0.00177 0.72812 0.0
H2930 H 0.39819 0.98457 0.75126 0.0
C2931 C 0.3769 0.00342 0.71034 0.0
C2932 C 0.41306 0.01569 0.72105 0.0
C2933 C 0.36826 0.00781 0.70388 0.0
C2934 C 0.44703 0.99675 0.75046 0.0
C2935 C 0.43772 0.99896 0.74145 0.0
C2936 C 0.40252 0.99332 0.74291 0.0
C2937 C 0.38989 0.01284 0.71648 0.0
C2938 C 0.39899 0.0083 0.72403 0.0
C2939 C 0.42605 0.99762 0.74954 0.0
C2940 C 0.41663 0.00093 0.74027 0.0
H2941 H 0.38898 0.04189 0.70933 0.0
H2942 H 0.4039 0.03427 0.72067 0.0
H2943 H 0.38304 0.99109 0.73758 0.0
H2944 H 0.4312 0.98865 0.78914 0.0
H2945 H 0.41501 0.99267 0.7735 0.0
C2946 C 0.99266 0.35628 0.70831 0.0
C2947 C 0.98032 0.34915 0.69948 0.0
C2948 C 0.99638 0.36879 0.716 0.0
C2949 C 0.98084 0.38915 0.73096 0.0
H2950 H 0.01831 0.41743 0.73687 0.0
C2951 C 0.99602 0.44251 0.75639 0.0
C2952 C 0.00519 0.44719 0.77017 0.0
C2953 C 0.99355 0.43095 0.74723 0.0
C2954 C 0.00781 0.40957 0.73535 0.0
H2955 H 0.9626 0.34987 0.69085 0.0
H2956 H 0.96936 0.3719 0.70339 0.0
H2957 H 0.01314 0.39686 0.72104 0.0
H2958 H 0.01903 0.44324 0.78488 0.0
H2959 H 0.01502 0.42332 0.76843 0.0
H2960 H 0.97556 0.40207 0.7449 0.0
C2961 C 0.97594 0.36766 0.70512 0.0
C2962 C 0.00482 0.39775 0.72635 0.0
C2963 C 0.97211 0.35506 0.69775 0.0
C2964 C 0.01206 0.44012 0.77423 0.0
C2965 C 0.00974 0.42867 0.76486 0.0
C2966 C 0.98383 0.40104 0.73968 0.0
C2967 C 0.98794 0.37455 0.71477 0.0
C2968 C 0.99128 0.38735 0.72404 0.0
C2969 C 1.00035 0.42389 0.7514 0.0
C2970 C 0.99732 0.41135 0.742 0.0
H2971 H 0.99915 0.35192 0.70994 0.0
H2972 H 0.00563 0.37367 0.72343 0.0
H2973 H 0.97031 0.38129 0.72992 0.0
H2974 H 0.99077 0.44782 0.75256 0.0
H2975 H 0.98638 0.42757 0.73677 0.0
C2976 C 0.64058 0.63383 0.70318 0.0
C2977 C 0.65031 0.62966 0.70261 0.0
C2978 C 0.62762 0.62524 0.70989 0.0
C2979 C 0.60407 0.58915 0.72148 0.0
H2980 H 0.58812 0.60423 0.75203 0.0
C2981 C 0.56144 0.55605 0.76845 0.0
C2982 C 0.55038 0.55829 0.76987 0.0
C2983 C 0.57299 0.56496 0.7592 0.0
C2984 C 0.59238 0.59989 0.74337 0.0
H2985 H 0.654 0.61314 0.70848 0.0
H2986 H 0.63166 0.59836 0.72033 0.0
H2987 H 0.60933 0.61937 0.73727 0.0
H2988 H 0.54293 0.57183 0.76266 0.0
H2989 H 0.56329 0.58757 0.74677 0.0
H2990 H 0.58733 0.56967 0.72795 0.0
C2991 C 0.63386 0.60813 0.71535 0.0
C2992 C 0.60451 0.60856 0.73486 0.0
C2993 C 0.64675 0.61667 0.70864 0.0
C2994 C 0.5513 0.56986 0.76202 0.0
C2995 C 0.56294 0.57886 0.75287 0.0
C2996 C 0.59203 0.5805 0.73006 0.0
C2997 C 0.62414 0.61231 0.71616 0.0
C2998 C 0.61063 0.60327 0.72403 0.0
C2999 C 0.57385 0.57643 0.75124 0.0
C3000 C 0.58616 0.58575 0.7413 0.0
H3001 H 0.64301 0.64379 0.69862 0.0
H3002 H 0.62033 0.62873 0.71015 0.0
H3003 H 0.60832 0.58473 0.71294 0.0
H3004 H 0.56124 0.54744 0.77463 0.0
H3005 H 0.58134 0.56296 0.75845 0.0
C3006 C 0.69748 0.71685 0.65785 0.0
C3007 C 0.68792 0.70415 0.66452 0.0
C3008 C 0.69329 0.72516 0.65004 0.0
C3009 C 0.66536 0.73239 0.64637 0.0
H3010 H 0.68267 0.74848 0.60326 0.0
C3011 C 0.64984 0.76498 0.60523 0.0
C3012 C 0.66048 0.7766 0.5975 0.0
C3013 C 0.65236 0.7555 0.61335 0.0
C3014 C 0.67783 0.74421 0.61537 0.0
H3015 H 0.66645 0.69039 0.66873 0.0
H3016 H 0.65911 0.70506 0.65513 0.0
H3017 H 0.68857 0.73333 0.618 0.0
H3018 H 0.68208 0.78719 0.59208 0.0
H3019 H 0.68651 0.77097 0.60661 0.0
H3020 H 0.6548 0.74351 0.64387 0.0
C3021 C 0.66986 0.70852 0.65596 0.0
C3022 C 0.6812 0.73549 0.6238 0.0
C3023 C 0.67406 0.70013 0.6637 0.0
C3024 C 0.67367 0.77847 0.59808 0.0
C3025 C 0.67618 0.76904 0.60622 0.0
C3026 C 0.66204 0.74122 0.63796 0.0
C3027 C 0.67944 0.72101 0.64876 0.0
C3028 C 0.67515 0.72964 0.6395 0.0
C3029 C 0.66556 0.7574 0.61392 0.0
C3030 C 0.66839 0.74738 0.62247 0.0
H3031 H 0.70824 0.72032 0.65831 0.0
H3032 H 0.70092 0.73483 0.64489 0.0
H3033 H 0.66058 0.72807 0.65849 0.0
H3034 H 0.63959 0.76328 0.60515 0.0
H3035 H 0.64393 0.7466 0.61903 0.0
C3036 C 0.2844 0.98084 0.66046 0.0
C3037 C 0.29728 0.98427 0.66679 0.0
C3038 C 0.27585 0.96799 0.65362 0.0
C3039 C 0.2762 0.93849 0.63434 0.0
H3040 H 0.23725 0.92163 0.64038 0.0
C3041 C 0.23749 0.88541 0.60665 0.0
C3042 C 0.22598 0.88453 0.59871 0.0
C3043 C 0.24648 0.89703 0.61586 0.0
C3044 C 0.2481 0.92624 0.6385 0.0
H3045 H 0.31117 0.97673 0.67119 0.0
H3046 H 0.29609 0.95413 0.65944 0.0
H3047 H 0.25225 0.94255 0.65554 0.0
H3048 H 0.21526 0.89551 0.59376 0.0
H3049 H 0.23076 0.91558 0.60999 0.0
H3050 H 0.27194 0.92208 0.61724 0.0
C3051 C 0.29271 0.9615 0.65957 0.0
C3052 C 0.25671 0.93825 0.64717 0.0
C3053 C 0.30131 0.97442 0.66641 0.0
C3054 C 0.22381 0.89565 0.60003 0.0
C3055 C 0.23272 0.90719 0.60932 0.0
C3056 C 0.26756 0.92639 0.62573 0.0
C3057 C 0.2799 0.95816 0.65298 0.0
C3058 C 0.27086 0.94469 0.64496 0.0
C3059 C 0.24411 0.90799 0.61743 0.0
C3060 C 0.2534 0.92028 0.62747 0.0
H3061 H 0.28098 0.98819 0.66046 0.0
H3062 H 0.26618 0.96591 0.64841 0.0
H3063 H 0.28703 0.94322 0.63219 0.0
H3064 H 0.23941 0.877 0.60607 0.0
H3065 H 0.25513 0.89732 0.62205 0.0
C3066 C 0.02644 0.32627 0.66258 0.0
C3067 C 0.01763 0.31246 0.66614 0.0
C3068 C 0.03907 0.33053 0.65486 0.0
C3069 C 0.05605 0.31724 0.62732 0.0
H3070 H 0.08918 0.35004 0.63981 0.0
C3071 C 0.1043 0.33766 0.58631 0.0
C3072 C 0.11658 0.34184 0.59497 0.0
C3073 C 0.09259 0.33501 0.59524 0.0
C3074 C 0.08002 0.34083 0.63623 0.0
H3075 H 0.01544 0.29239 0.66507 0.0
H3076 H 0.03739 0.2998 0.65182 0.0
H3077 H 0.06824 0.34345 0.65571 0.0
H3078 H 0.12619 0.34677 0.61986 0.0
H3079 H 0.10573 0.34219 0.63545 0.0
H3080 H 0.06775 0.31446 0.60803 0.0
C3081 C 0.03448 0.30733 0.6547 0.0
C3082 C 0.06801 0.33712 0.64524 0.0
C3083 C 0.02192 0.30309 0.6624 0.0
C3084 C 0.11694 0.34369 0.61276 0.0
C3085 C 0.10521 0.34106 0.6217 0.0
C3086 C 0.068 0.32097 0.61829 0.0
C3087 C 0.04309 0.32104 0.65051 0.0
C3088 C 0.0559 0.32523 0.64095 0.0
C3089 C 0.09285 0.33651 0.61307 0.0
C3090 C 0.08014 0.33279 0.62263 0.0
H3091 H 0.02343 0.33374 0.66529 0.0
H3092 H 0.04545 0.34116 0.65174 0.0
H3093 H 0.04688 0.30812 0.62352 0.0
H3094 H 0.10372 0.33641 0.57258 0.0
H3095 H 0.08329 0.33177 0.58816 0.0
C3096 C 0.28137 0.30352 0.66518 0.0
C3097 C 0.29507 0.31308 0.66821 0.0
C3098 C 0.27272 0.30746 0.65778 0.0
C3099 C 0.26824 0.33677 0.64796 0.0
H3100 H 0.24491 0.31298 0.61222 0.0
C3101 C 0.23597 0.35055 0.60341 0.0
C3102 C 0.22294 0.33998 0.59908 0.0
C3103 C 0.24494 0.34786 0.61255 0.0
C3104 C 0.25122 0.31966 0.62231 0.0
H3105 H 0.3103 0.33439 0.66641 0.0
H3106 H 0.29513 0.34127 0.65335 0.0
H3107 H 0.26014 0.30733 0.62715 0.0
H3108 H 0.2089 0.3184 0.60168 0.0
H3109 H 0.22444 0.31372 0.61766 0.0
H3110 H 0.25924 0.34911 0.64304 0.0
C3111 C 0.2911 0.33073 0.65681 0.0
C3112 C 0.25997 0.31642 0.63087 0.0
C3113 C 0.29979 0.32678 0.66425 0.0
C3114 C 0.21897 0.32673 0.60449 0.0
C3115 C 0.22789 0.32405 0.61364 0.0
C3116 C 0.25943 0.34002 0.63938 0.0
C3117 C 0.27753 0.32104 0.65316 0.0
C3118 C 0.2685 0.32485 0.64391 0.0
C3119 C 0.24106 0.33454 0.6176 0.0
C3120 C 0.25072 0.33142 0.62655 0.0
H3121 H 0.27735 0.2929 0.6682 0.0
H3122 H 0.26225 0.29979 0.65548 0.0
H3123 H 0.27464 0.34344 0.658 0.0
H3124 H 0.23937 0.36086 0.59931 0.0
H3125 H 0.25504 0.35616 0.61526 0.0
C3126 C 0.69988 0.98234 0.66241 0.0
C3127 C 0.69023 0.98581 0.66794 0.0
C3128 C 0.69581 0.9699 0.65448 0.0
C3129 C 0.66753 0.93521 0.64852 0.0
H3130 H 0.68642 0.93685 0.60656 0.0
C3131 C 0.65192 0.88782 0.60588 0.0
C3132 C 0.66245 0.88658 0.5982 0.0
C3133 C 0.65467 0.89974 0.61444 0.0
C3134 C 0.68115 0.93614 0.61837 0.0
H3135 H 0.66868 0.97865 0.67007 0.0
H3136 H 0.66155 0.95671 0.65633 0.0
H3137 H 0.69238 0.95766 0.622 0.0
H3138 H 0.68414 0.89711 0.59339 0.0
H3139 H 0.68897 0.91756 0.60879 0.0
H3140 H 0.65649 0.91364 0.64508 0.0
C3141 C 0.67228 0.96373 0.65812 0.0
C3142 C 0.68454 0.9481 0.62719 0.0
C3143 C 0.67636 0.97629 0.66595 0.0
C3144 C 0.67578 0.89758 0.59933 0.0
C3145 C 0.67853 0.90943 0.60797 0.0
C3146 C 0.6642 0.92319 0.63976 0.0
C3147 C 0.68199 0.96054 0.65198 0.0
C3148 C 0.67788 0.94777 0.64244 0.0
C3149 C 0.66802 0.91072 0.61559 0.0
C3150 C 0.67107 0.92349 0.62464 0.0
H3151 H 0.71064 0.9894 0.66379 0.0
H3152 H 0.70352 0.96764 0.65014 0.0
H3153 H 0.66227 0.93465 0.66028 0.0
H3154 H 0.64154 0.87951 0.60544 0.0
H3155 H 0.64629 0.9004 0.62 0.0
C3156 C 0.02757 0.69927 0.66375 0.0
C3157 C 0.01782 0.70342 0.66489 0.0
C3158 C 0.04016 0.70765 0.65597 0.0
C3159 C 0.05588 0.73487 0.62415 0.0
H3160 H 0.09024 0.74239 0.64371 0.0
C3161 C 0.10645 0.77753 0.59803 0.0
C3162 C 0.1177 0.77555 0.59735 0.0
C3163 C 0.09451 0.76817 0.60626 0.0
C3164 C 0.08072 0.74023 0.63794 0.0
H3165 H 0.01385 0.7198 0.65921 0.0
H3166 H 0.03567 0.73428 0.6457 0.0
H3167 H 0.06904 0.72701 0.65843 0.0
H3168 H 0.12515 0.76209 0.6049 0.0
H3169 H 0.10413 0.74553 0.61887 0.0
H3170 H 0.06739 0.74791 0.60362 0.0
C3171 C 0.03356 0.72452 0.65064 0.0
C3172 C 0.06859 0.73145 0.64641 0.0
C3173 C 0.02108 0.71624 0.6585 0.0
C3174 C 0.11665 0.76389 0.60504 0.0
C3175 C 0.10464 0.75447 0.61323 0.0
C3176 C 0.06795 0.74354 0.61565 0.0
C3177 C 0.04317 0.72026 0.64905 0.0
C3178 C 0.05606 0.72887 0.63973 0.0
C3179 C 0.09341 0.75648 0.61392 0.0
C3180 C 0.08056 0.74653 0.62255 0.0
H3181 H 0.02537 0.68945 0.66856 0.0
H3182 H 0.04737 0.70409 0.6549 0.0
H3183 H 0.04637 0.73285 0.6185 0.0
H3184 H 0.1068 0.78627 0.59205 0.0
H3185 H 0.08617 0.77019 0.60673 0.0
C3186 C 0.9922 0.63062 0.70199 0.0
C3187 C 0.97859 0.62752 0.70266 0.0
C3188 C 0.99615 0.62198 0.7096 0.0
C3189 C 0.98634 0.5972 0.74408 0.0
H3190 H 0.00841 0.5848 0.72108 0.0
C3191 C 0.00803 0.56747 0.77893 0.0
C3192 C 0.00582 0.5555 0.77084 0.0
C3193 C 0.00555 0.57676 0.77029 0.0
C3194 C 0.00225 0.5882 0.72764 0.0
H3195 H 0.95843 0.6128 0.71157 0.0
H3196 H 0.96536 0.5979 0.72493 0.0
H3197 H 0.00237 0.60003 0.70623 0.0
H3198 H 0.99963 0.54404 0.74724 0.0
H3199 H 0.99538 0.56036 0.73208 0.0
H3200 H 0.98617 0.58541 0.76545 0.0
C3201 C 0.97297 0.607 0.71856 0.0
C3202 C 0.99888 0.59697 0.7192 0.0
C3203 C 0.969 0.61551 0.71081 0.0
C3204 C 0.00132 0.55313 0.75382 0.0
C3205 C 0.99901 0.56252 0.74511 0.0
C3206 C 0.98986 0.58862 0.75258 0.0
C3207 C 0.98659 0.61021 0.71822 0.0
C3208 C 0.99076 0.60142 0.72728 0.0
C3209 C 1.00096 0.57436 0.75332 0.0
C3210 C 0.99775 0.58393 0.74441 0.0
H3211 H 0.99983 0.6398 0.69581 0.0
H3212 H 0.00673 0.6247 0.70918 0.0
H3213 H 0.98017 0.60058 0.75067 0.0
H3214 H 0.01142 0.56952 0.79206 0.0
H3215 H 0.00721 0.58584 0.7769 0.0
C3216 C 0.36525 0.36064 0.703 0.0
C3217 C 0.36977 0.35124 0.70104 0.0
C3218 C 0.37355 0.37322 0.71086 0.0
C3219 C 0.40116 0.389 0.74196 0.0
H3220 H 0.40775 0.42345 0.72376 0.0
C3221 C 0.44331 0.43943 0.76897 0.0
C3222 C 0.44116 0.45056 0.77011 0.0
C3223 C 0.43404 0.42757 0.76055 0.0
C3224 C 0.40586 0.4139 0.72916 0.0
H3225 H 0.38674 0.34789 0.70529 0.0
H3226 H 0.40106 0.36966 0.71899 0.0
H3227 H 0.39253 0.40239 0.70865 0.0
H3228 H 0.42744 0.45784 0.76315 0.0
H3229 H 0.411 0.43692 0.74889 0.0
H3230 H 0.41424 0.40029 0.76253 0.0
C3231 C 0.39109 0.3673 0.7146 0.0
C3232 C 0.39717 0.40185 0.72047 0.0
C3233 C 0.38289 0.35484 0.70664 0.0
C3234 C 0.42938 0.44944 0.76267 0.0
C3235 C 0.42003 0.4375 0.7543 0.0
C3236 C 0.40971 0.40097 0.75071 0.0
C3237 C 0.38644 0.37653 0.71706 0.0
C3238 C 0.39493 0.38931 0.72664 0.0
C3239 C 0.42224 0.4264 0.75315 0.0
C3240 C 0.41238 0.41361 0.74429 0.0
H3241 H 0.3552 0.35817 0.69882 0.0
H3242 H 0.36971 0.38015 0.71262 0.0
H3243 H 0.39941 0.37944 0.74721 0.0
H3244 H 0.45214 0.43982 0.77475 0.0
H3245 H 0.43622 0.41934 0.75971 0.0
C3246 C 0.64307 0.00857 0.70261 0.0
C3247 C 0.65189 0.02239 0.69914 0.0
C3248 C 0.63017 0.00421 0.70955 0.0
C3249 C 0.60463 0.01509 0.71679 0.0
H3250 H 0.59312 0.98981 0.75464 0.0
C3251 C 0.56323 0.00908 0.76411 0.0
C3252 C 0.55371 0.99594 0.76961 0.0
C3253 C 0.57442 0.0113 0.7543 0.0
C3254 C 0.59609 0.99673 0.74394 0.0
H3255 H 0.65392 0.04241 0.69982 0.0
H3256 H 0.63163 0.03487 0.71196 0.0
H3257 H 0.61388 0.9953 0.73916 0.0
H3258 H 0.54855 0.97483 0.76921 0.0
H3259 H 0.56813 0.97871 0.75198 0.0
H3260 H 0.58701 0.01675 0.72181 0.0
C3261 C 0.63454 0.02733 0.70918 0.0
C3262 C 0.60798 0.99986 0.73503 0.0
C3263 C 0.64739 0.03168 0.7023 0.0
C3264 C 0.55566 0.98506 0.76506 0.0
C3265 C 0.56692 0.98729 0.75532 0.0
C3266 C 0.59279 0.012 0.72572 0.0
C3267 C 0.62582 0.01358 0.7131 0.0
C3268 C 0.61252 0.00925 0.72153 0.0
C3269 C 0.57642 1.00044 0.74979 0.0
C3270 C 0.58849 0.00295 0.73957 0.0
H3271 H 0.64623 0.00116 0.70032 0.0
H3272 H 0.62365 0.99352 0.71222 0.0
H3273 H 0.60768 0.02216 0.70624 0.0
H3274 H 0.56196 0.01766 0.76723 0.0
H3275 H 0.58163 0.02157 0.75043 0.0
loop_
_geom_bond_atom_site_label_1
_geom_bond_atom_site_label_2
_geom_bond_distance
_geom_bond_site_symmetry_2
_ccdc_geom_bond_type
O0 Cd1 2.223 . S
O0 C8 1.315 . S
Cd1 O0 2.223 . S
Cd1 O4 2.297 . S
Cd1 O5 2.439 . S
Cd1 O11 2.240 1_554 S
Cd2 O3 2.240 . S
Cd2 O10 2.198 1_554 S
Cd2 O12 2.297 1_554 S
Cd2 O13 2.439 . S
O3 Cd2 2.240 . S
O3 C8 1.279 1_655 S
O4 Cd1 2.297 . S
O4 C6 1.247 . S
O5 Cd1 2.439 . S
O5 C6 1.208 . S
C6 O4 1.247 . S
C6 O5 1.208 . S
C7 O12 1.247 . S
C7 O13 1.208 1_556 S
C8 O0 1.315 . S
C8 O3 1.279 1_455 S
C9 O10 1.332 . S
C9 O11 1.279 1_655 S
O10 Cd2 2.198 1_556 S
O10 C9 1.332 . S
O11 Cd1 2.240 1_556 S
O11 C9 1.279 1_455 S
O12 Cd2 2.297 1_556 S
O12 C7 1.247 . S
O13 Cd2 2.439 . S
O13 C7 1.208 1_554 S
O14 Cd15 2.223 . S
O14 C22 1.315 . S
Cd15 O14 2.223 . S
Cd15 O18 2.297 . S
Cd15 O19 2.439 . S
Cd15 O25 2.240 1_554 S
Cd16 O17 2.240 . S
Cd16 O24 2.223 1_554 S
Cd16 O26 2.297 1_554 S
Cd16 O27 2.439 . S
O17 Cd16 2.240 . S
O17 C22 1.279 . S
O18 Cd15 2.297 . S
O18 C20 1.247 . S
O19 Cd15 2.439 . S
O19 C20 1.208 . S
C20 O18 1.247 . S
C20 O19 1.208 . S
C21 O26 1.247 . S
C21 O27 1.208 1_556 S
C22 O14 1.315 . S
C22 O17 1.279 . S
C23 O24 1.315 . S
C23 O25 1.279 . S
O24 Cd16 2.223 1_556 S
O24 C23 1.315 . S
O25 Cd15 2.240 1_556 S
O25 C23 1.279 . S
O26 Cd16 2.297 1_556 S
O26 C21 1.247 . S
O27 Cd16 2.439 . S
O27 C21 1.208 1_554 S
O28 Cd29 2.192 1_556 S
O28 C36 1.338 . S
Cd29 O28 2.192 1_554 S
Cd29 O32 2.297 1_554 S
Cd29 O33 2.439 . S
Cd29 O39 2.240 . S
Cd30 O31 2.240 1_554 S
Cd30 O38 2.223 . S
Cd30 O40 2.297 . S
Cd30 O41 2.439 . S
O31 Cd30 2.240 1_556 S
O31 C36 1.279 1_565 S
O32 Cd29 2.297 1_556 S
O32 C34 1.247 . S
O33 Cd29 2.439 . S
O33 C34 1.208 1_554 S
C34 O32 1.247 . S
C34 O33 1.208 1_556 S
C35 O40 1.247 . S
C35 O41 1.208 . S
C36 O28 1.338 . S
C36 O31 1.279 1_545 S
C37 O38 1.315 . S
C37 O39 1.279 1_565 S
O38 Cd30 2.223 . S
O38 C37 1.315 . S
O39 Cd29 2.240 . S
O39 C37 1.279 1_545 S
O40 Cd30 2.297 . S
O40 C35 1.247 . S
O41 Cd30 2.439 . S
O41 C35 1.208 . S
O42 Cd43 2.223 1_556 S
O42 C50 1.315 . S
Cd43 O42 2.223 1_554 S
Cd43 O46 2.297 1_554 S
Cd43 O47 2.439 . S
Cd43 O53 2.240 . S
Cd44 O45 2.240 1_554 S
Cd44 O52 2.223 . S
Cd44 O54 2.297 . S
Cd44 O55 2.439 . S
O45 Cd44 2.240 1_556 S
O45 C50 1.279 1_455 S
O46 Cd43 2.297 1_556 S
O46 C48 1.247 . S
O47 Cd43 2.439 . S
O47 C48 1.208 1_554 S
C48 O46 1.247 . S
C48 O47 1.208 1_556 S
C49 O54 1.247 . S
C49 O55 1.208 . S
C50 O42 1.315 . S
C50 O45 1.279 1_655 S
C51 O52 1.315 . S
C51 O53 1.279 1_455 S
O52 Cd44 2.223 . S
O52 C51 1.315 . S
O53 Cd43 2.240 . S
O53 C51 1.279 1_655 S
O54 Cd44 2.297 . S
O54 C49 1.247 . S
O55 Cd44 2.439 . S
O55 C49 1.208 . S
O56 Cd57 2.223 1_556 S
O56 C64 1.315 . S
Cd57 O56 2.223 1_554 S
Cd57 O60 2.297 1_554 S
Cd57 O61 2.439 . S
Cd57 O67 2.240 . S
Cd58 O59 2.240 1_554 S
Cd58 O66 2.223 . S
Cd58 O68 2.297 . S
Cd58 O69 2.439 . S
O59 Cd58 2.240 1_556 S
O59 C64 1.279 . S
O60 Cd57 2.297 1_556 S
O60 C62 1.247 . S
O61 Cd57 2.439 . S
O61 C62 1.208 1_554 S
C62 O60 1.247 . S
C62 O61 1.208 1_556 S
C63 O68 1.247 . S
C63 O69 1.208 . S
C64 O56 1.315 . S
C64 O59 1.279 . S
C65 O66 1.315 . S
C65 O67 1.279 . S
O66 Cd58 2.223 . S
O66 C65 1.315 . S
O67 Cd57 2.240 . S
O67 C65 1.279 . S
O68 Cd58 2.297 . S
O68 C63 1.247 . S
O69 Cd58 2.439 . S
O69 C63 1.208 . S
O70 Cd71 2.223 . S
O70 C78 1.315 . S
Cd71 O70 2.223 . S
Cd71 O74 2.297 . S
Cd71 O75 2.439 . S
Cd71 O81 2.240 1_554 S
Cd72 O73 2.240 . S
Cd72 O80 2.210 1_554 S
Cd72 O82 2.297 1_554 S
Cd72 O83 2.439 . S
O73 Cd72 2.240 . S
O73 C78 1.279 1_545 S
O74 Cd71 2.297 . S
O74 C76 1.247 . S
O75 Cd71 2.439 . S
O75 C76 1.208 . S
C76 O74 1.247 . S
C76 O75 1.208 . S
C77 O82 1.247 . S
C77 O83 1.208 1_556 S
C78 O70 1.315 . S
C78 O73 1.279 1_565 S
C79 O80 1.324 . S
C79 O81 1.279 1_545 S
O80 Cd72 2.210 1_556 S
O80 C79 1.324 . S
O81 Cd71 2.240 1_556 S
O81 C79 1.279 1_565 S
O82 Cd72 2.297 1_556 S
O82 C77 1.247 . S
O83 Cd72 2.439 . S
O83 C77 1.208 1_554 S
O84 Cd85 2.223 . S
O84 C92 1.315 . S
Cd85 O84 2.223 . S
Cd85 O88 2.297 . S
Cd85 O89 2.439 . S
Cd85 O95 2.240 . S
Cd86 O87 2.240 . S
Cd86 O94 2.223 . S
Cd86 O96 2.297 . S
Cd86 O97 2.439 . S
O87 Cd86 2.240 . S
O87 C92 1.279 . S
O88 Cd85 2.297 . S
O88 C90 1.247 . S
O89 Cd85 2.439 . S
O89 C90 1.208 . S
C90 O88 1.247 . S
C90 O89 1.208 . S
C91 O96 1.247 . S
C91 O97 1.208 . S
C92 O84 1.315 . S
C92 O87 1.279 . S
C93 O94 1.315 . S
C93 O95 1.279 . S
O94 Cd86 2.223 . S
O94 C93 1.315 . S
O95 Cd85 2.240 . S
O95 C93 1.279 . S
O96 Cd86 2.297 . S
O96 C91 1.247 . S
O97 Cd86 2.439 . S
O97 C91 1.208 . S
O98 Cd99 2.223 . S
O98 C106 1.315 . S
Cd99 O98 2.223 . S
Cd99 O102 2.297 1_565 S
Cd99 O103 2.439 1_565 S
Cd99 O109 2.240 . S
Cd100 O101 2.240 . S
Cd100 O108 2.223 . S
Cd100 O110 2.297 . S
Cd100 O111 2.439 . S
O101 Cd100 2.240 . S
O101 C106 1.279 . S
O102 Cd99 2.297 1_545 S
O102 C104 1.247 . S
O103 Cd99 2.439 1_545 S
O103 C104 1.208 . S
C104 O102 1.247 . S
C104 O103 1.208 . S
C105 O110 1.247 . S
C105 O111 1.208 . S
C106 O98 1.315 . S
C106 O101 1.279 . S
C107 O108 1.315 . S
C107 O109 1.279 . S
O108 Cd100 2.223 . S
O108 C107 1.315 . S
O109 Cd99 2.240 . S
O109 C107 1.279 . S
O110 Cd100 2.297 . S
O110 C105 1.247 . S
O111 Cd100 2.439 . S
O111 C105 1.208 . S
O112 Cd113 2.223 . S
O112 C120 1.315 . S
Cd113 O112 2.223 . S
Cd113 O116 2.297 . S
Cd113 O117 2.439 . S
Cd113 O123 2.240 . S
Cd114 O115 2.240 . S
Cd114 O122 2.223 . S
Cd114 O124 2.297 1_455 S
Cd114 O125 2.439 1_455 S
O115 Cd114 2.240 . S
O115 C120 1.279 . S
O116 Cd113 2.297 . S
O116 C118 1.247 . S
O117 Cd113 2.439 . S
O117 C118 1.208 . S
C118 O116 1.247 . S
C118 O117 1.208 . S
C119 O124 1.247 . S
C119 O125 1.208 . S
C120 O112 1.315 . S
C120 O115 1.279 . S
C121 O122 1.315 . S
C121 O123 1.279 . S
O122 Cd114 2.223 . S
O122 C121 1.315 . S
O123 Cd113 2.240 . S
O123 C121 1.279 . S
O124 Cd114 2.297 1_655 S
O124 C119 1.247 . S
O125 Cd114 2.439 1_655 S
O125 C119 1.208 . S
O126 Cd127 2.223 . S
O126 C134 1.315 . S
Cd127 O126 2.223 . S
Cd127 O130 2.297 . S
Cd127 O131 2.439 . S
Cd127 O137 2.240 . S
Cd128 O129 2.240 . S
Cd128 O136 2.223 . S
Cd128 O138 2.297 1_565 S
Cd128 O139 2.439 1_565 S
O129 Cd128 2.240 . S
O129 C134 1.279 . S
O130 Cd127 2.297 . S
O130 C132 1.247 . S
O131 Cd127 2.439 . S
O131 C132 1.208 . S
C132 O130 1.247 . S
C132 O131 1.208 . S
C133 O138 1.247 . S
C133 O139 1.208 . S
C134 O126 1.315 . S
C134 O129 1.279 . S
C135 O136 1.315 . S
C135 O137 1.279 . S
O136 Cd128 2.223 . S
O136 C135 1.315 . S
O137 Cd127 2.240 . S
O137 C135 1.279 . S
O138 Cd128 2.297 1_545 S
O138 C133 1.247 . S
O139 Cd128 2.439 1_545 S
O139 C133 1.208 . S
O140 Cd141 2.223 . S
O140 C148 1.315 . S
Cd141 O140 2.223 . S
Cd141 O144 2.297 . S
Cd141 O145 2.439 . S
Cd141 O151 2.240 . S
Cd142 O143 2.240 . S
Cd142 O150 2.223 . S
Cd142 O152 2.297 1_455 S
Cd142 O153 2.439 1_455 S
O143 Cd142 2.240 . S
O143 C148 1.279 . S
O144 Cd141 2.297 . S
O144 C146 1.247 . S
O145 Cd141 2.439 . S
O145 C146 1.208 . S
C146 O144 1.247 . S
C146 O145 1.208 . S
C147 O152 1.247 . S
C147 O153 1.208 . S
C148 O140 1.315 . S
C148 O143 1.279 . S
C149 O150 1.315 . S
C149 O151 1.279 . S
O150 Cd142 2.223 . S
O150 C149 1.315 . S
O151 Cd141 2.240 . S
O151 C149 1.279 . S
O152 Cd142 2.297 1_655 S
O152 C147 1.247 . S
O153 Cd142 2.439 1_655 S
O153 C147 1.208 . S
O154 Cd155 2.223 . S
O154 C162 1.315 . S
Cd155 O154 2.223 . S
Cd155 O158 2.297 . S
Cd155 O159 2.439 . S
Cd155 O165 2.240 . S
Cd156 O157 2.240 . S
Cd156 O164 2.223 . S
Cd156 O166 2.297 . S
Cd156 O167 2.439 . S
O157 Cd156 2.240 . S
O157 C162 1.279 . S
O158 Cd155 2.297 . S
O158 C160 1.247 . S
O159 Cd155 2.439 . S
O159 C160 1.208 . S
C160 O158 1.247 . S
C160 O159 1.208 . S
C161 O166 1.247 . S
C161 O167 1.208 . S
C162 O154 1.315 . S
C162 O157 1.279 . S
C163 O164 1.315 . S
C163 O165 1.279 . S
O164 Cd156 2.223 . S
O164 C163 1.315 . S
O165 Cd155 2.240 . S
O165 C163 1.279 . S
O166 Cd156 2.297 . S
O166 C161 1.247 . S
O167 Cd156 2.439 . S
O167 C161 1.208 . S
O168 Cd169 2.223 . S
O168 C176 1.315 . S
Cd169 O168 2.223 . S
Cd169 O172 2.297 . S
Cd169 O173 2.439 . S
Cd169 O179 2.240 . S
Cd170 O171 2.240 . S
Cd170 O178 2.223 . S
Cd170 O180 2.297 1_545 S
Cd170 O181 2.439 1_545 S
O171 Cd170 2.240 . S
O171 C176 1.279 . S
O172 Cd169 2.297 . S
O172 C174 1.247 . S
O173 Cd169 2.439 . S
O173 C174 1.208 . S
C174 O172 1.247 . S
C174 O173 1.208 . S
C175 O180 1.247 . S
C175 O181 1.208 . S
C176 O168 1.315 . S
C176 O171 1.279 . S
C177 O178 1.315 . S
C177 O179 1.279 . S
O178 Cd170 2.223 . S
O178 C177 1.315 . S
O179 Cd169 2.240 . S
O179 C177 1.279 . S
O180 Cd170 2.297 1_565 S
O180 C175 1.247 . S
O181 Cd170 2.439 1_565 S
O181 C175 1.208 . S
O182 Cd183 2.223 . S
O182 C190 1.315 . S
Cd183 O182 2.223 . S
Cd183 O186 2.297 . S
Cd183 O187 2.439 . S
Cd183 O193 2.240 . S
Cd184 O185 2.240 . S
Cd184 O192 2.223 . S
Cd184 O194 2.297 1_655 S
Cd184 O195 2.439 1_655 S
O185 Cd184 2.240 . S
O185 C190 1.279 . S
O186 Cd183 2.297 . S
O186 C188 1.247 . S
O187 Cd183 2.439 . S
O187 C188 1.208 . S
C188 O186 1.247 . S
C188 O187 1.208 . S
C189 O194 1.247 . S
C189 O195 1.208 . S
C190 O182 1.315 . S
C190 O185 1.279 . S
C191 O192 1.315 . S
C191 O193 1.279 . S
O192 Cd184 2.223 . S
O192 C191 1.315 . S
O193 Cd183 2.240 . S
O193 C191 1.279 . S
O194 Cd184 2.297 1_455 S
O194 C189 1.247 . S
O195 Cd184 2.439 1_455 S
O195 C189 1.208 . S
O196 Cd197 2.223 . S
O196 C204 1.315 . S
Cd197 O196 2.223 . S
Cd197 O200 2.297 . S
Cd197 O201 2.439 . S
Cd197 O207 2.240 . S
Cd198 O199 2.240 . S
Cd198 O206 2.223 . S
Cd198 O208 2.297 . S
Cd198 O209 2.439 . S
O199 Cd198 2.240 . S
O199 C204 1.279 . S
O200 Cd197 2.297 . S
O200 C202 1.247 . S
O201 Cd197 2.439 . S
O201 C202 1.208 . S
C202 O200 1.247 . S
C202 O201 1.208 . S
C203 O208 1.247 . S
C203 O209 1.208 . S
C204 O196 1.315 . S
C204 O199 1.279 . S
C205 O206 1.315 . S
C205 O207 1.279 . S
O206 Cd198 2.223 . S
O206 C205 1.315 . S
O207 Cd197 2.240 . S
O207 C205 1.279 . S
O208 Cd198 2.297 . S
O208 C203 1.247 . S
O209 Cd198 2.439 . S
O209 C203 1.208 . S
O210 Cd211 2.223 . S
O210 C218 1.315 . S
Cd211 O210 2.223 . S
Cd211 O214 2.297 . S
Cd211 O215 2.439 . S
Cd211 O221 2.240 . S
Cd212 O213 2.240 . S
Cd212 O220 2.223 . S
Cd212 O222 2.297 . S
Cd212 O223 2.439 . S
O213 Cd212 2.240 . S
O213 C218 1.279 . S
O214 Cd211 2.297 . S
O214 C216 1.247 . S
O215 Cd211 2.439 . S
O215 C216 1.208 . S
C216 O214 1.247 . S
C216 O215 1.208 . S
C217 O222 1.247 . S
C217 O223 1.208 . S
C218 O210 1.315 . S
C218 O213 1.279 . S
C219 O220 1.315 . S
C219 O221 1.279 . S
O220 Cd212 2.223 . S
O220 C219 1.315 . S
O221 Cd211 2.240 . S
O221 C219 1.279 . S
O222 Cd212 2.297 . S
O222 C217 1.247 . S
O223 Cd212 2.439 . S
O223 C217 1.208 . S
O224 Cd225 2.223 . S
O224 C232 1.315 . S
Cd225 O224 2.223 . S
Cd225 O228 2.297 1_545 S
Cd225 O229 2.439 1_545 S
Cd225 O235 2.240 . S
Cd226 O227 2.240 . S
Cd226 O234 2.223 . S
Cd226 O236 2.297 . S
Cd226 O237 2.439 . S
O227 Cd226 2.240 . S
O227 C232 1.279 . S
O228 Cd225 2.297 1_565 S
O228 C230 1.247 . S
O229 Cd225 2.439 1_565 S
O229 C230 1.208 . S
C230 O228 1.247 . S
C230 O229 1.208 . S
C231 O236 1.247 . S
C231 O237 1.208 . S
C232 O224 1.315 . S
C232 O227 1.279 . S
C233 O234 1.315 . S
C233 O235 1.279 . S
O234 Cd226 2.223 . S
O234 C233 1.315 . S
O235 Cd225 2.240 . S
O235 C233 1.279 . S
O236 Cd226 2.297 . S
O236 C231 1.247 . S
O237 Cd226 2.439 . S
O237 C231 1.208 . S
O238 Cd239 2.223 . S
O238 C246 1.315 . S
Cd239 O238 2.223 . S
Cd239 O242 2.297 . S
Cd239 O243 2.439 . S
Cd239 O249 2.240 . S
Cd240 O241 2.240 . S
Cd240 O248 2.223 . S
Cd240 O250 2.297 1_655 S
Cd240 O251 2.439 1_655 S
O241 Cd240 2.240 . S
O241 C246 1.279 . S
O242 Cd239 2.297 . S
O242 C244 1.247 . S
O243 Cd239 2.439 . S
O243 C244 1.208 . S
C244 O242 1.247 . S
C244 O243 1.208 . S
C245 O250 1.247 . S
C245 O251 1.208 . S
C246 O238 1.315 . S
C246 O241 1.279 . S
C247 O248 1.315 . S
C247 O249 1.279 . S
O248 Cd240 2.223 . S
O248 C247 1.315 . S
O249 Cd239 2.240 . S
O249 C247 1.279 . S
O250 Cd240 2.297 1_455 S
O250 C245 1.247 . S
O251 Cd240 2.439 1_455 S
O251 C245 1.208 . S
H252 C271 0.949 . S
H253 C272 0.950 . S
H254 C274 0.950 . S
H255 C275 0.950 . S
H256 C277 0.950 . S
H257 C280 0.950 . S
H258 C281 0.950 . S
H259 C283 0.951 . S
H260 C284 0.949 . S
H261 C286 0.949 . S
H262 C287 0.950 . S
H263 C289 0.950 . S
H264 C290 0.950 . S
H265 C292 0.950 . S
H266 C295 0.950 . S
H267 C296 0.950 . S
H268 C298 0.951 . S
H269 C299 0.949 . S
C270 C271 1.376 . S
C270 C275 1.386 . S
C270 C276 1.483 . S
C271 H252 0.949 . S
C271 C270 1.376 . S
C271 C272 1.397 . S
C272 H253 0.950 . S
C272 C271 1.397 . S
C272 C273 1.391 . S
C273 C272 1.391 . S
C273 C274 1.405 . S
C274 H254 0.950 . S
C274 C273 1.405 . S
C274 C275 1.367 . S
C275 H255 0.950 . S
C275 C270 1.386 . S
C275 C274 1.367 . S
C276 C270 1.483 . S
C276 C277 1.382 . S
C276 C278 1.403 . S
C277 H256 0.950 . S
C277 C276 1.382 . S
C277 C293 1.411 . S
C278 C276 1.403 . S
C278 C279 1.489 . S
C278 C292 1.411 . S
C279 C278 1.489 . S
C279 C280 1.383 . S
C279 C284 1.382 . S
C280 H257 0.950 . S
C280 C279 1.383 . S
C280 C281 1.395 . S
C281 H258 0.950 . S
C281 C280 1.395 . S
C281 C282 1.288 . S
C282 C281 1.288 . S
C282 C283 1.392 . S
C283 H259 0.951 . S
C283 C282 1.392 . S
C283 C284 1.392 . S
C284 H260 0.949 . S
C284 C279 1.382 . S
C284 C283 1.392 . S
C285 C286 1.376 . S
C285 C290 1.386 . S
C285 C291 1.483 . S
C286 H261 0.949 . S
C286 C285 1.376 . S
C286 C287 1.397 . S
C287 H262 0.950 . S
C287 C286 1.397 . S
C287 C288 1.391 . S
C288 C287 1.391 . S
C288 C289 1.405 . S
C289 H263 0.950 . S
C289 C288 1.405 . S
C289 C290 1.367 . S
C290 H264 0.950 . S
C290 C285 1.386 . S
C290 C289 1.367 . S
C291 C285 1.483 . S
C291 C292 1.382 . S
C291 C293 1.403 . S
C292 H265 0.950 . S
C292 C278 1.411 . S
C292 C291 1.382 . S
C293 C277 1.411 . S
C293 C291 1.403 . S
C293 C294 1.489 . S
C294 C293 1.489 . S
C294 C295 1.383 . S
C294 C299 1.382 . S
C295 H266 0.950 . S
C295 C294 1.383 . S
C295 C296 1.395 . S
C296 H267 0.950 . S
C296 C295 1.395 . S
C296 C297 1.288 . S
C297 C296 1.288 . S
C297 C298 1.392 . S
C298 H268 0.951 . S
C298 C297 1.392 . S
C298 C299 1.392 . S
C299 H269 0.949 . S
C299 C294 1.382 . S
C299 C298 1.392 . S
H300 C319 0.949 . S
H301 C320 0.950 . S
H302 C322 0.950 . S
H303 C323 0.950 . S
H304 C325 0.950 . S
H305 C328 0.950 . S
H306 C329 0.950 . S
H307 C331 0.951 . S
H308 C332 0.949 . S
H309 C334 0.949 . S
H310 C335 0.950 . S
H311 C337 0.950 . S
H312 C338 0.950 . S
H313 C340 0.950 . S
H314 C343 0.950 . S
H315 C344 0.950 . S
H316 C346 0.951 . S
H317 C347 0.949 . S
C318 C319 1.376 . S
C318 C323 1.386 . S
C318 C324 1.483 . S
C319 H300 0.949 . S
C319 C318 1.376 . S
C319 C320 1.397 . S
C320 H301 0.950 . S
C320 C319 1.397 . S
C320 C321 1.391 . S
C321 C320 1.391 . S
C321 C322 1.405 . S
C322 H302 0.950 . S
C322 C321 1.405 . S
C322 C323 1.367 . S
C323 H303 0.950 . S
C323 C318 1.386 . S
C323 C322 1.367 . S
C324 C318 1.483 . S
C324 C325 1.382 . S
C324 C326 1.403 . S
C325 H304 0.950 . S
C325 C324 1.382 . S
C325 C341 1.411 . S
C326 C324 1.403 . S
C326 C327 1.489 . S
C326 C340 1.411 . S
C327 C326 1.489 . S
C327 C328 1.383 . S
C327 C332 1.382 . S
C328 H305 0.950 . S
C328 C327 1.383 . S
C328 C329 1.395 . S
C329 H306 0.950 . S
C329 C328 1.395 . S
C329 C330 1.288 . S
C330 C329 1.288 . S
C330 C331 1.392 . S
C331 H307 0.951 . S
C331 C330 1.392 . S
C331 C332 1.392 . S
C332 H308 0.949 . S
C332 C327 1.382 . S
C332 C331 1.392 . S
C333 C334 1.376 . S
C333 C338 1.386 . S
C333 C339 1.483 . S
C334 H309 0.949 . S
C334 C333 1.376 . S
C334 C335 1.397 . S
C335 H310 0.950 . S
C335 C334 1.397 . S
C335 C336 1.391 . S
C336 C335 1.391 . S
C336 C337 1.405 . S
C337 H311 0.950 . S
C337 C336 1.405 . S
C337 C338 1.367 . S
C338 H312 0.950 . S
C338 C333 1.386 . S
C338 C337 1.367 . S
C339 C333 1.483 . S
C339 C340 1.382 . S
C339 C341 1.403 . S
C340 H313 0.950 . S
C340 C326 1.411 . S
C340 C339 1.382 . S
C341 C325 1.411 . S
C341 C339 1.403 . S
C341 C342 1.489 . S
C342 C341 1.489 . S
C342 C343 1.383 . S
C342 C347 1.382 . S
C343 H314 0.950 . S
C343 C342 1.383 . S
C343 C344 1.395 . S
C344 H315 0.950 . S
C344 C343 1.395 . S
C344 C345 1.288 . S
C345 C344 1.288 . S
C345 C346 1.392 . S
C346 H316 0.951 . S
C346 C345 1.392 . S
C346 C347 1.392 . S
C347 H317 0.949 . S
C347 C342 1.382 . S
C347 C346 1.392 . S
H348 C367 0.949 . S
H349 C368 0.950 . S
H350 C370 0.950 . S
H351 C371 0.950 . S
H352 C373 0.950 . S
H353 C376 0.950 . S
H354 C377 0.950 . S
H355 C379 0.951 . S
H356 C380 0.949 . S
H357 C382 0.949 . S
H358 C383 0.950 . S
H359 C385 0.950 . S
H360 C386 0.950 . S
H361 C388 0.950 . S
H362 C391 0.950 . S
H363 C392 0.950 . S
H364 C394 0.951 . S
H365 C395 0.949 . S
C366 C367 1.376 . S
C366 C371 1.386 . S
C366 C372 1.483 . S
C367 H348 0.949 . S
C367 C366 1.376 . S
C367 C368 1.397 . S
C368 H349 0.950 . S
C368 C367 1.397 . S
C368 C369 1.391 . S
C369 C368 1.391 . S
C369 C370 1.405 . S
C370 H350 0.950 . S
C370 C369 1.405 . S
C370 C371 1.367 . S
C371 H351 0.950 . S
C371 C366 1.386 . S
C371 C370 1.367 . S
C372 C366 1.483 . S
C372 C373 1.382 . S
C372 C374 1.403 . S
C373 H352 0.950 . S
C373 C372 1.382 . S
C373 C389 1.411 . S
C374 C372 1.403 . S
C374 C375 1.489 . S
C374 C388 1.411 . S
C375 C374 1.489 . S
C375 C376 1.383 . S
C375 C380 1.382 . S
C376 H353 0.950 . S
C376 C375 1.383 . S
C376 C377 1.395 . S
C377 H354 0.950 . S
C377 C376 1.395 . S
C377 C378 1.288 . S
C378 C377 1.288 . S
C378 C379 1.392 . S
C379 H355 0.951 . S
C379 C378 1.392 . S
C379 C380 1.392 . S
C380 H356 0.949 . S
C380 C375 1.382 . S
C380 C379 1.392 . S
C381 C382 1.376 . S
C381 C386 1.386 . S
C381 C387 1.483 . S
C382 H357 0.949 . S
C382 C381 1.376 . S
C382 C383 1.397 . S
C383 H358 0.950 . S
C383 C382 1.397 . S
C383 C384 1.391 . S
C384 C383 1.391 . S
C384 C385 1.405 . S
C385 H359 0.950 . S
C385 C384 1.405 . S
C385 C386 1.367 . S
C386 H360 0.950 . S
C386 C381 1.386 . S
C386 C385 1.367 . S
C387 C381 1.483 . S
C387 C388 1.382 . S
C387 C389 1.403 . S
C388 H361 0.950 . S
C388 C374 1.411 . S
C388 C387 1.382 . S
C389 C373 1.411 . S
C389 C387 1.403 . S
C389 C390 1.489 . S
C390 C389 1.489 . S
C390 C391 1.383 . S
C390 C395 1.382 . S
C391 H362 0.950 . S
C391 C390 1.383 . S
C391 C392 1.395 . S
C392 H363 0.950 . S
C392 C391 1.395 . S
C392 C393 1.288 . S
C393 C392 1.288 . S
C393 C394 1.392 . S
C394 H364 0.951 . S
C394 C393 1.392 . S
C394 C395 1.392 . S
C395 H365 0.949 . S
C395 C390 1.382 . S
C395 C394 1.392 . S
H396 C415 0.949 . S
H397 C416 0.950 . S
H398 C418 0.950 . S
H399 C419 0.950 . S
H400 C421 0.950 . S
H401 C424 0.950 . S
H402 C425 0.950 . S
H403 C427 0.951 . S
H404 C428 0.949 . S
H405 C430 0.949 . S
H406 C431 0.950 . S
H407 C433 0.950 . S
H408 C434 0.950 . S
H409 C436 0.950 . S
H410 C439 0.950 . S
H411 C440 0.950 . S
H412 C442 0.951 . S
H413 C443 0.949 . S
C414 C415 1.376 . S
C414 C419 1.386 . S
C414 C420 1.483 . S
C415 H396 0.949 . S
C415 C414 1.376 . S
C415 C416 1.397 . S
C416 H397 0.950 . S
C416 C415 1.397 . S
C416 C417 1.391 . S
C417 C416 1.391 . S
C417 C418 1.405 . S
C418 H398 0.950 . S
C418 C417 1.405 . S
C418 C419 1.367 . S
C419 H399 0.950 . S
C419 C414 1.386 . S
C419 C418 1.367 . S
C420 C414 1.483 . S
C420 C421 1.382 . S
C420 C422 1.403 . S
C421 H400 0.950 . S
C421 C420 1.382 . S
C421 C437 1.411 . S
C422 C420 1.403 . S
C422 C423 1.489 . S
C422 C436 1.411 . S
C423 C422 1.489 . S
C423 C424 1.383 . S
C423 C428 1.382 . S
C424 H401 0.950 . S
C424 C423 1.383 . S
C424 C425 1.395 . S
C425 H402 0.950 . S
C425 C424 1.395 . S
C425 C426 1.288 . S
C426 C425 1.288 . S
C426 C427 1.392 . S
C427 H403 0.951 . S
C427 C426 1.392 . S
C427 C428 1.392 . S
C428 H404 0.949 . S
C428 C423 1.382 . S
C428 C427 1.392 . S
C429 C430 1.376 . S
C429 C434 1.386 . S
C429 C435 1.483 . S
C430 H405 0.949 . S
C430 C429 1.376 . S
C430 C431 1.397 . S
C431 H406 0.950 . S
C431 C430 1.397 . S
C431 C432 1.391 . S
C432 C431 1.391 . S
C432 C433 1.405 . S
C433 H407 0.950 . S
C433 C432 1.405 . S
C433 C434 1.367 . S
C434 H408 0.950 . S
C434 C429 1.386 . S
C434 C433 1.367 . S
C435 C429 1.483 . S
C435 C436 1.382 . S
C435 C437 1.403 . S
C436 H409 0.950 . S
C436 C422 1.411 . S
C436 C435 1.382 . S
C437 C421 1.411 . S
C437 C435 1.403 . S
C437 C438 1.489 . S
C438 C437 1.489 . S
C438 C439 1.383 . S
C438 C443 1.382 . S
C439 H410 0.950 . S
C439 C438 1.383 . S
C439 C440 1.395 . S
C440 H411 0.950 . S
C440 C439 1.395 . S
C440 C441 1.288 . S
C441 C440 1.288 . S
C441 C442 1.392 . S
C442 H412 0.951 . S
C442 C441 1.392 . S
C442 C443 1.392 . S
C443 H413 0.949 . S
C443 C438 1.382 . S
C443 C442 1.392 . S
H444 C463 0.949 . S
H445 C464 0.950 . S
H446 C466 0.950 . S
H447 C467 0.950 . S
H448 C469 0.950 . S
H449 C472 0.950 . S
H450 C473 0.950 . S
H451 C475 0.951 . S
H452 C476 0.949 . S
H453 C478 0.949 . S
H454 C479 0.950 . S
H455 C481 0.950 . S
H456 C482 0.950 . S
H457 C484 0.950 . S
H458 C487 0.950 . S
H459 C488 0.950 . S
H460 C490 0.951 . S
H461 C491 0.949 . S
C462 C463 1.376 . S
C462 C467 1.386 . S
C462 C468 1.483 . S
C463 H444 0.949 . S
C463 C462 1.376 . S
C463 C464 1.397 . S
C464 H445 0.950 . S
C464 C463 1.397 . S
C464 C465 1.391 . S
C465 C464 1.391 . S
C465 C466 1.405 . S
C466 H446 0.950 . S
C466 C465 1.405 . S
C466 C467 1.367 . S
C467 H447 0.950 . S
C467 C462 1.386 . S
C467 C466 1.367 . S
C468 C462 1.483 . S
C468 C469 1.382 . S
C468 C470 1.403 . S
C469 H448 0.950 . S
C469 C468 1.382 . S
C469 C485 1.411 . S
C470 C468 1.403 . S
C470 C471 1.489 . S
C470 C484 1.411 . S
C471 C470 1.489 . S
C471 C472 1.383 . S
C471 C476 1.382 . S
C472 H449 0.950 . S
C472 C471 1.383 . S
C472 C473 1.395 . S
C473 H450 0.950 . S
C473 C472 1.395 . S
C473 C474 1.288 . S
C474 C473 1.288 . S
C474 C475 1.392 . S
C475 H451 0.951 . S
C475 C474 1.392 . S
C475 C476 1.392 . S
C476 H452 0.949 . S
C476 C471 1.382 . S
C476 C475 1.392 . S
C477 C478 1.376 . S
C477 C482 1.386 . S
C477 C483 1.483 . S
C478 H453 0.949 . S
C478 C477 1.376 . S
C478 C479 1.397 . S
C479 H454 0.950 . S
C479 C478 1.397 . S
C479 C480 1.391 . S
C480 C479 1.391 . S
C480 C481 1.405 . S
C481 H455 0.950 . S
C481 C480 1.405 . S
C481 C482 1.367 . S
C482 H456 0.950 . S
C482 C477 1.386 . S
C482 C481 1.367 . S
C483 C477 1.483 . S
C483 C484 1.382 . S
C483 C485 1.403 . S
C484 H457 0.950 . S
C484 C470 1.411 . S
C484 C483 1.382 . S
C485 C469 1.411 . S
C485 C483 1.403 . S
C485 C486 1.489 . S
C486 C485 1.489 . S
C486 C487 1.383 . S
C486 C491 1.382 . S
C487 H458 0.950 . S
C487 C486 1.383 . S
C487 C488 1.395 . S
C488 H459 0.950 . S
C488 C487 1.395 . S
C488 C489 1.288 . S
C489 C488 1.288 . S
C489 C490 1.392 . S
C490 H460 0.951 . S
C490 C489 1.392 . S
C490 C491 1.392 . S
C491 H461 0.949 . S
C491 C486 1.382 . S
C491 C490 1.392 . S
H492 C511 0.949 . S
H493 C512 0.950 . S
H494 C514 0.950 . S
H495 C515 0.950 . S
H496 C517 0.950 . S
H497 C520 0.950 . S
H498 C521 0.950 . S
H499 C523 0.951 . S
H500 C524 0.949 . S
H501 C526 0.949 . S
H502 C527 0.950 . S
H503 C529 0.950 . S
H504 C530 0.950 . S
H505 C532 0.950 . S
H506 C535 0.950 . S
H507 C536 0.950 . S
H508 C538 0.951 . S
H509 C539 0.949 . S
C510 C511 1.376 . S
C510 C515 1.386 . S
C510 C516 1.483 . S
C511 H492 0.949 . S
C511 C510 1.376 . S
C511 C512 1.397 . S
C512 H493 0.950 . S
C512 C511 1.397 . S
C512 C513 1.391 . S
C513 C512 1.391 . S
C513 C514 1.405 . S
C514 H494 0.950 . S
C514 C513 1.405 . S
C514 C515 1.367 . S
C515 H495 0.950 . S
C515 C510 1.386 . S
C515 C514 1.367 . S
C516 C510 1.483 . S
C516 C517 1.382 . S
C516 C518 1.403 . S
C517 H496 0.950 . S
C517 C516 1.382 . S
C517 C533 1.411 . S
C518 C516 1.403 . S
C518 C519 1.489 . S
C518 C532 1.411 . S
C519 C518 1.489 . S
C519 C520 1.383 . S
C519 C524 1.382 . S
C520 H497 0.950 . S
C520 C519 1.383 . S
C520 C521 1.395 . S
C521 H498 0.950 . S
C521 C520 1.395 . S
C521 C522 1.288 . S
C522 C521 1.288 . S
C522 C523 1.392 . S
C523 H499 0.951 . S
C523 C522 1.392 . S
C523 C524 1.392 . S
C524 H500 0.949 . S
C524 C519 1.382 . S
C524 C523 1.392 . S
C525 C526 1.376 . S
C525 C530 1.386 . S
C525 C531 1.483 . S
C526 H501 0.949 . S
C526 C525 1.376 . S
C526 C527 1.397 . S
C527 H502 0.950 . S
C527 C526 1.397 . S
C527 C528 1.391 . S
C528 C527 1.391 . S
C528 C529 1.405 . S
C529 H503 0.950 . S
C529 C528 1.405 . S
C529 C530 1.367 . S
C530 H504 0.950 . S
C530 C525 1.386 . S
C530 C529 1.367 . S
C531 C525 1.483 . S
C531 C532 1.382 . S
C531 C533 1.403 . S
C532 H505 0.950 . S
C532 C518 1.411 . S
C532 C531 1.382 . S
C533 C517 1.411 . S
C533 C531 1.403 . S
C533 C534 1.489 . S
C534 C533 1.489 . S
C534 C535 1.383 . S
C534 C539 1.382 . S
C535 H506 0.950 . S
C535 C534 1.383 . S
C535 C536 1.395 . S
C536 H507 0.950 . S
C536 C535 1.395 . S
C536 C537 1.288 . S
C537 C536 1.288 . S
C537 C538 1.392 . S
C538 H508 0.951 . S
C538 C537 1.392 . S
C538 C539 1.392 . S
C539 H509 0.949 . S
C539 C534 1.382 . S
C539 C538 1.392 . S
H540 C559 0.949 . S
H541 C560 0.950 . S
H542 C562 0.950 . S
H543 C563 0.950 . S
H544 C565 0.950 . S
H545 C568 0.950 . S
H546 C569 0.950 . S
H547 C571 0.951 . S
H548 C572 0.949 . S
H549 C574 0.949 . S
H550 C575 0.950 . S
H551 C577 0.950 . S
H552 C578 0.950 . S
H553 C580 0.950 . S
H554 C583 0.950 . S
H555 C584 0.950 . S
H556 C586 0.951 . S
H557 C587 0.949 . S
C558 C559 1.376 . S
C558 C563 1.386 . S
C558 C564 1.483 . S
C559 H540 0.949 . S
C559 C558 1.376 . S
C559 C560 1.397 . S
C560 H541 0.950 . S
C560 C559 1.397 . S
C560 C561 1.391 . S
C561 C560 1.391 . S
C561 C562 1.405 . S
C562 H542 0.950 . S
C562 C561 1.405 . S
C562 C563 1.367 . S
C563 H543 0.950 . S
C563 C558 1.386 . S
C563 C562 1.367 . S
C564 C558 1.483 . S
C564 C565 1.382 . S
C564 C566 1.403 . S
C565 H544 0.950 . S
C565 C564 1.382 . S
C565 C581 1.411 . S
C566 C564 1.403 . S
C566 C567 1.489 . S
C566 C580 1.411 . S
C567 C566 1.489 . S
C567 C568 1.383 . S
C567 C572 1.382 . S
C568 H545 0.950 . S
C568 C567 1.383 . S
C568 C569 1.395 . S
C569 H546 0.950 . S
C569 C568 1.395 . S
C569 C570 1.288 . S
C570 C569 1.288 . S
C570 C571 1.392 . S
C571 H547 0.951 . S
C571 C570 1.392 . S
C571 C572 1.392 . S
C572 H548 0.949 . S
C572 C567 1.382 . S
C572 C571 1.392 . S
C573 C574 1.376 . S
C573 C578 1.386 . S
C573 C579 1.483 . S
C574 H549 0.949 . S
C574 C573 1.376 . S
C574 C575 1.397 . S
C575 H550 0.950 . S
C575 C574 1.397 . S
C575 C576 1.391 . S
C576 C575 1.391 . S
C576 C577 1.405 . S
C577 H551 0.950 . S
C577 C576 1.405 . S
C577 C578 1.367 . S
C578 H552 0.950 . S
C578 C573 1.386 . S
C578 C577 1.367 . S
C579 C573 1.483 . S
C579 C580 1.382 . S
C579 C581 1.403 . S
C580 H553 0.950 . S
C580 C566 1.411 . S
C580 C579 1.382 . S
C581 C565 1.411 . S
C581 C579 1.403 . S
C581 C582 1.489 . S
C582 C581 1.489 . S
C582 C583 1.383 . S
C582 C587 1.382 . S
C583 H554 0.950 . S
C583 C582 1.383 . S
C583 C584 1.395 . S
C584 H555 0.950 . S
C584 C583 1.395 . S
C584 C585 1.288 . S
C585 C584 1.288 . S
C585 C586 1.392 . S
C586 H556 0.951 . S
C586 C585 1.392 . S
C586 C587 1.392 . S
C587 H557 0.949 . S
C587 C582 1.382 . S
C587 C586 1.392 . S
H588 C607 0.949 . S
H589 C608 0.950 . S
H590 C610 0.950 . S
H591 C611 0.950 . S
H592 C613 0.950 . S
H593 C616 0.950 . S
H594 C617 0.950 . S
H595 C619 0.951 . S
H596 C620 0.949 . S
H597 C622 0.949 . S
H598 C623 0.950 . S
H599 C625 0.950 . S
H600 C626 0.950 . S
H601 C628 0.950 . S
H602 C631 0.950 . S
H603 C632 0.950 . S
H604 C634 0.951 . S
H605 C635 0.949 . S
C606 C607 1.376 . S
C606 C611 1.386 . S
C606 C612 1.483 . S
C607 H588 0.949 . S
C607 C606 1.376 . S
C607 C608 1.397 . S
C608 H589 0.950 . S
C608 C607 1.397 . S
C608 C609 1.391 . S
C609 C608 1.391 . S
C609 C610 1.405 . S
C610 H590 0.950 . S
C610 C609 1.405 . S
C610 C611 1.367 . S
C611 H591 0.950 . S
C611 C606 1.386 . S
C611 C610 1.367 . S
C612 C606 1.483 . S
C612 C613 1.382 . S
C612 C614 1.403 . S
C613 H592 0.950 . S
C613 C612 1.382 . S
C613 C629 1.411 . S
C614 C612 1.403 . S
C614 C615 1.489 . S
C614 C628 1.411 . S
C615 C614 1.489 . S
C615 C616 1.383 . S
C615 C620 1.382 . S
C616 H593 0.950 . S
C616 C615 1.383 . S
C616 C617 1.395 . S
C617 H594 0.950 . S
C617 C616 1.395 . S
C617 C618 1.288 . S
C618 C617 1.288 . S
C618 C619 1.392 . S
C619 H595 0.951 . S
C619 C618 1.392 . S
C619 C620 1.392 . S
C620 H596 0.949 . S
C620 C615 1.382 . S
C620 C619 1.392 . S
C621 C622 1.376 . S
C621 C626 1.386 . S
C621 C627 1.483 . S
C622 H597 0.949 . S
C622 C621 1.376 . S
C622 C623 1.397 . S
C623 H598 0.950 . S
C623 C622 1.397 . S
C623 C624 1.391 . S
C624 C623 1.391 . S
C624 C625 1.405 . S
C625 H599 0.950 . S
C625 C624 1.405 . S
C625 C626 1.367 . S
C626 H600 0.950 . S
C626 C621 1.386 . S
C626 C625 1.367 . S
C627 C621 1.483 . S
C627 C628 1.382 . S
C627 C629 1.403 . S
C628 H601 0.950 . S
C628 C614 1.411 . S
C628 C627 1.382 . S
C629 C613 1.411 . S
C629 C627 1.403 . S
C629 C630 1.489 . S
C630 C629 1.489 . S
C630 C631 1.383 . S
C630 C635 1.382 . S
C631 H602 0.950 . S
C631 C630 1.383 . S
C631 C632 1.395 . S
C632 H603 0.950 . S
C632 C631 1.395 . S
C632 C633 1.288 . S
C633 C632 1.288 . S
C633 C634 1.392 . S
C634 H604 0.951 . S
C634 C633 1.392 . S
C634 C635 1.392 . S
C635 H605 0.949 . S
C635 C630 1.382 . S
C635 C634 1.392 . S
H636 C655 0.949 . S
H637 C656 0.950 . S
H638 C658 0.950 . S
H639 C659 0.950 . S
H640 C661 0.950 . S
H641 C664 0.950 . S
H642 C665 0.950 . S
H643 C667 0.951 . S
H644 C668 0.949 . S
H645 C670 0.949 . S
H646 C671 0.950 . S
H647 C673 0.950 . S
H648 C674 0.950 . S
H649 C676 0.950 . S
H650 C679 0.950 . S
H651 C680 0.950 . S
H652 C682 0.951 . S
H653 C683 0.949 . S
C654 C655 1.376 . S
C654 C659 1.386 . S
C654 C660 1.483 . S
C655 H636 0.949 . S
C655 C654 1.376 . S
C655 C656 1.397 . S
C656 H637 0.950 . S
C656 C655 1.397 . S
C656 C657 1.391 . S
C657 C656 1.391 . S
C657 C658 1.405 . S
C658 H638 0.950 . S
C658 C657 1.405 . S
C658 C659 1.367 . S
C659 H639 0.950 . S
C659 C654 1.386 . S
C659 C658 1.367 . S
C660 C654 1.483 . S
C660 C661 1.382 . S
C660 C662 1.403 . S
C661 H640 0.950 . S
C661 C660 1.382 . S
C661 C677 1.411 . S
C662 C660 1.403 . S
C662 C663 1.489 . S
C662 C676 1.411 . S
C663 C662 1.489 . S
C663 C664 1.383 . S
C663 C668 1.382 . S
C664 H641 0.950 . S
C664 C663 1.383 . S
C664 C665 1.395 . S
C665 H642 0.950 . S
C665 C664 1.395 . S
C665 C666 1.288 . S
C666 C665 1.288 . S
C666 C667 1.392 . S
C667 H643 0.951 . S
C667 C666 1.392 . S
C667 C668 1.392 . S
C668 H644 0.949 . S
C668 C663 1.382 . S
C668 C667 1.392 . S
C669 C670 1.376 . S
C669 C674 1.386 . S
C669 C675 1.483 . S
C670 H645 0.949 . S
C670 C669 1.376 . S
C670 C671 1.397 . S
C671 H646 0.950 . S
C671 C670 1.397 . S
C671 C672 1.391 . S
C672 C671 1.391 . S
C672 C673 1.405 . S
C673 H647 0.950 . S
C673 C672 1.405 . S
C673 C674 1.367 . S
C674 H648 0.950 . S
C674 C669 1.386 . S
C674 C673 1.367 . S
C675 C669 1.483 . S
C675 C676 1.382 . S
C675 C677 1.403 . S
C676 H649 0.950 . S
C676 C662 1.411 . S
C676 C675 1.382 . S
C677 C661 1.411 . S
C677 C675 1.403 . S
C677 C678 1.489 . S
C678 C677 1.489 . S
C678 C679 1.383 . S
C678 C683 1.382 . S
C679 H650 0.950 . S
C679 C678 1.383 . S
C679 C680 1.395 . S
C680 H651 0.950 . S
C680 C679 1.395 . S
C680 C681 1.288 . S
C681 C680 1.288 . S
C681 C682 1.392 . S
C682 H652 0.951 . S
C682 C681 1.392 . S
C682 C683 1.392 . S
C683 H653 0.949 . S
C683 C678 1.382 . S
C683 C682 1.392 . S
H684 C703 0.949 . S
H685 C704 0.950 . S
H686 C706 0.950 . S
H687 C707 0.950 . S
H688 C709 0.950 . S
H689 C712 0.950 . S
H690 C713 0.950 . S
H691 C715 0.951 . S
H692 C716 0.949 . S
H693 C718 0.949 . S
H694 C719 0.950 . S
H695 C721 0.950 . S
H696 C722 0.950 . S
H697 C724 0.950 . S
H698 C727 0.950 . S
H699 C728 0.950 . S
H700 C730 0.951 . S
H701 C731 0.949 . S
C702 C703 1.376 . S
C702 C707 1.386 1_655 S
C702 C708 1.483 . S
C703 H684 0.949 . S
C703 C702 1.376 . S
C703 C704 1.397 . S
C704 H685 0.950 . S
C704 C703 1.397 . S
C704 C705 1.391 . S
C705 C704 1.391 . S
C705 C706 1.405 1_655 S
C706 H686 0.950 . S
C706 C705 1.405 1_455 S
C706 C707 1.367 . S
C707 H687 0.950 . S
C707 C702 1.386 1_455 S
C707 C706 1.367 . S
C708 C702 1.483 . S
C708 C709 1.382 . S
C708 C710 1.403 1_655 S
C709 H688 0.950 . S
C709 C708 1.382 . S
C709 C725 1.411 . S
C710 C708 1.403 1_455 S
C710 C711 1.489 . S
C710 C724 1.411 . S
C711 C710 1.489 . S
C711 C712 1.383 1_455 S
C711 C716 1.382 . S
C712 H689 0.950 . S
C712 C711 1.383 1_655 S
C712 C713 1.395 . S
C713 H690 0.950 . S
C713 C712 1.395 . S
C713 C714 1.288 1_655 S
C714 C713 1.288 1_455 S
C714 C715 1.392 . S
C715 H691 0.951 . S
C715 C714 1.392 . S
C715 C716 1.392 . S
C716 H692 0.949 . S
C716 C711 1.382 . S
C716 C715 1.392 . S
C717 C718 1.376 . S
C717 C722 1.386 1_455 S
C717 C723 1.483 . S
C718 H693 0.949 . S
C718 C717 1.376 . S
C718 C719 1.397 . S
C719 H694 0.950 . S
C719 C718 1.397 . S
C719 C720 1.391 . S
C720 C719 1.391 . S
C720 C721 1.405 1_455 S
C721 H695 0.950 . S
C721 C720 1.405 1_655 S
C721 C722 1.367 . S
C722 H696 0.950 . S
C722 C717 1.386 1_655 S
C722 C721 1.367 . S
C723 C717 1.483 . S
C723 C724 1.382 . S
C723 C725 1.403 1_455 S
C724 H697 0.950 . S
C724 C710 1.411 . S
C724 C723 1.382 . S
C725 C709 1.411 . S
C725 C723 1.403 1_655 S
C725 C726 1.489 . S
C726 C725 1.489 . S
C726 C727 1.383 1_655 S
C726 C731 1.382 . S
C727 H698 0.950 . S
C727 C726 1.383 1_455 S
C727 C728 1.395 . S
C728 H699 0.950 . S
C728 C727 1.395 . S
C728 C729 1.288 1_455 S
C729 C728 1.288 1_655 S
C729 C730 1.392 . S
C730 H700 0.951 . S
C730 C729 1.392 . S
C730 C731 1.392 . S
C731 H701 0.949 . S
C731 C726 1.382 . S
C731 C730 1.392 . S
H732 C751 0.949 . S
H733 C752 0.950 . S
H734 C754 0.950 . S
H735 C755 0.950 . S
H736 C757 0.950 . S
H737 C760 0.950 . S
H738 C761 0.950 . S
H739 C763 0.951 . S
H740 C764 0.949 . S
H741 C766 0.949 . S
H742 C767 0.950 . S
H743 C769 0.950 . S
H744 C770 0.950 . S
H745 C772 0.950 . S
H746 C775 0.950 . S
H747 C776 0.950 . S
H748 C778 0.951 . S
H749 C779 0.949 . S
C750 C751 1.376 . S
C750 C755 1.386 . S
C750 C756 1.483 . S
C751 H732 0.949 . S
C751 C750 1.376 . S
C751 C752 1.397 . S
C752 H733 0.950 . S
C752 C751 1.397 . S
C752 C753 1.391 . S
C753 C752 1.391 . S
C753 C754 1.405 . S
C754 H734 0.950 . S
C754 C753 1.405 . S
C754 C755 1.367 . S
C755 H735 0.950 . S
C755 C750 1.386 . S
C755 C754 1.367 . S
C756 C750 1.483 . S
C756 C757 1.382 . S
C756 C758 1.403 . S
C757 H736 0.950 . S
C757 C756 1.382 . S
C757 C773 1.411 . S
C758 C756 1.403 . S
C758 C759 1.489 . S
C758 C772 1.411 . S
C759 C758 1.489 . S
C759 C760 1.383 . S
C759 C764 1.382 . S
C760 H737 0.950 . S
C760 C759 1.383 . S
C760 C761 1.395 . S
C761 H738 0.950 . S
C761 C760 1.395 . S
C761 C762 1.288 . S
C762 C761 1.288 . S
C762 C763 1.392 . S
C763 H739 0.951 . S
C763 C762 1.392 . S
C763 C764 1.392 . S
C764 H740 0.949 . S
C764 C759 1.382 . S
C764 C763 1.392 . S
C765 C766 1.376 . S
C765 C770 1.386 . S
C765 C771 1.483 . S
C766 H741 0.949 . S
C766 C765 1.376 . S
C766 C767 1.397 . S
C767 H742 0.950 . S
C767 C766 1.397 . S
C767 C768 1.391 . S
C768 C767 1.391 . S
C768 C769 1.405 . S
C769 H743 0.950 . S
C769 C768 1.405 . S
C769 C770 1.367 . S
C770 H744 0.950 . S
C770 C765 1.386 . S
C770 C769 1.367 . S
C771 C765 1.483 . S
C771 C772 1.382 . S
C771 C773 1.403 . S
C772 H745 0.950 . S
C772 C758 1.411 . S
C772 C771 1.382 . S
C773 C757 1.411 . S
C773 C771 1.403 . S
C773 C774 1.489 . S
C774 C773 1.489 . S
C774 C775 1.383 . S
C774 C779 1.382 . S
C775 H746 0.950 . S
C775 C774 1.383 . S
C775 C776 1.395 . S
C776 H747 0.950 . S
C776 C775 1.395 . S
C776 C777 1.288 . S
C777 C776 1.288 . S
C777 C778 1.392 . S
C778 H748 0.951 . S
C778 C777 1.392 . S
C778 C779 1.392 . S
C779 H749 0.949 . S
C779 C774 1.382 . S
C779 C778 1.392 . S
H780 C799 0.949 . S
H781 C800 0.950 . S
H782 C802 0.950 . S
H783 C803 0.950 . S
H784 C805 0.950 . S
H785 C808 0.950 . S
H786 C809 0.950 . S
H787 C811 0.951 . S
H788 C812 0.949 . S
H789 C814 0.949 . S
H790 C815 0.950 . S
H791 C817 0.950 . S
H792 C818 0.950 . S
H793 C820 0.950 . S
H794 C823 0.950 . S
H795 C824 0.950 . S
H796 C826 0.951 . S
H797 C827 0.949 . S
C798 C799 1.376 . S
C798 C803 1.386 1_545 S
C798 C804 1.483 . S
C799 H780 0.949 . S
C799 C798 1.376 . S
C799 C800 1.397 . S
C800 H781 0.950 . S
C800 C799 1.397 . S
C800 C801 1.391 . S
C801 C800 1.391 . S
C801 C802 1.405 1_545 S
C802 H782 0.950 . S
C802 C801 1.405 1_565 S
C802 C803 1.367 . S
C803 H783 0.950 . S
C803 C798 1.386 1_565 S
C803 C802 1.367 . S
C804 C798 1.483 . S
C804 C805 1.382 . S
C804 C806 1.403 1_545 S
C805 H784 0.950 . S
C805 C804 1.382 . S
C805 C821 1.411 . S
C806 C804 1.403 1_565 S
C806 C807 1.489 . S
C806 C820 1.411 . S
C807 C806 1.489 . S
C807 C808 1.383 1_565 S
C807 C812 1.382 . S
C808 H785 0.950 . S
C808 C807 1.383 1_545 S
C808 C809 1.395 . S
C809 H786 0.950 . S
C809 C808 1.395 . S
C809 C810 1.288 1_545 S
C810 C809 1.288 1_565 S
C810 C811 1.392 . S
C811 H787 0.951 . S
C811 C810 1.392 . S
C811 C812 1.392 . S
C812 H788 0.949 . S
C812 C807 1.382 . S
C812 C811 1.392 . S
C813 C814 1.376 . S
C813 C818 1.386 1_565 S
C813 C819 1.483 . S
C814 H789 0.949 . S
C814 C813 1.376 . S
C814 C815 1.397 . S
C815 H790 0.950 . S
C815 C814 1.397 . S
C815 C816 1.391 . S
C816 C815 1.391 . S
C816 C817 1.405 1_565 S
C817 H791 0.950 . S
C817 C816 1.405 1_545 S
C817 C818 1.367 . S
C818 H792 0.950 . S
C818 C813 1.386 1_545 S
C818 C817 1.367 . S
C819 C813 1.483 . S
C819 C820 1.382 . S
C819 C821 1.403 1_565 S
C820 H793 0.950 . S
C820 C806 1.411 . S
C820 C819 1.382 . S
C821 C805 1.411 . S
C821 C819 1.403 1_545 S
C821 C822 1.489 . S
C822 C821 1.489 . S
C822 C823 1.383 1_545 S
C822 C827 1.382 . S
C823 H794 0.950 . S
C823 C822 1.383 1_565 S
C823 C824 1.395 . S
C824 H795 0.950 . S
C824 C823 1.395 . S
C824 C825 1.288 1_565 S
C825 C824 1.288 1_545 S
C825 C826 1.392 . S
C826 H796 0.951 . S
C826 C825 1.392 . S
C826 C827 1.392 . S
C827 H797 0.949 . S
C827 C822 1.382 . S
C827 C826 1.392 . S
H828 C847 0.949 . S
H829 C848 0.950 . S
H830 C850 0.950 . S
H831 C851 0.950 . S
H832 C853 0.950 . S
H833 C856 0.950 . S
H834 C857 0.950 . S
H835 C859 0.951 . S
H836 C860 0.949 . S
H837 C862 0.949 . S
H838 C863 0.950 . S
H839 C865 0.950 . S
H840 C866 0.950 . S
H841 C868 0.950 . S
H842 C871 0.950 . S
H843 C872 0.950 . S
H844 C874 0.951 . S
H845 C875 0.949 . S
C846 C847 1.395 . S
C846 C851 1.377 1_545 S
C846 C852 1.501 . S
C847 H828 0.949 . S
C847 C846 1.395 . S
C847 C848 1.397 . S
C848 H829 0.950 . S
C848 C847 1.397 . S
C848 C849 1.391 1_545 S
C849 C848 1.391 1_565 S
C849 C850 1.405 . S
C850 H830 0.950 . S
C850 C849 1.405 . S
C850 C851 1.367 . S
C851 H831 0.950 . S
C851 C846 1.377 1_565 S
C851 C850 1.367 . S
C852 C846 1.501 . S
C852 C853 1.356 . S
C852 C854 1.397 1_545 S
C853 H832 0.950 . S
C853 C852 1.356 . S
C853 C869 1.449 . S
C854 C852 1.397 1_565 S
C854 C855 1.488 . S
C854 C868 1.438 . S
C855 C854 1.488 . S
C855 C856 1.334 1_565 S
C855 C860 1.409 . S
C856 H833 0.950 . S
C856 C855 1.334 1_545 S
C856 C857 1.395 . S
C857 H834 0.950 . S
C857 C856 1.395 . S
C857 C858 1.321 . S
C858 C857 1.321 . S
C858 C859 1.329 1_545 S
C859 H835 0.951 . S
C859 C858 1.329 1_565 S
C859 C860 1.392 . S
C860 H836 0.949 . S
C860 C855 1.409 . S
C860 C859 1.392 . S
C861 C862 1.378 . S
C861 C866 1.385 1_565 S
C861 C867 1.501 . S
C862 H837 0.949 . S
C862 C861 1.378 . S
C862 C863 1.397 . S
C863 H838 0.950 . S
C863 C862 1.397 . S
C863 C864 1.391 1_565 S
C864 C863 1.391 1_545 S
C864 C865 1.405 . S
C865 H839 0.950 . S
C865 C864 1.405 . S
C865 C866 1.367 . S
C866 H840 0.950 . S
C866 C861 1.385 1_545 S
C866 C865 1.367 . S
C867 C861 1.501 . S
C867 C868 1.364 . S
C867 C869 1.397 1_565 S
C868 H841 0.950 . S
C868 C854 1.438 . S
C868 C867 1.364 . S
C869 C853 1.449 . S
C869 C867 1.397 1_545 S
C869 C870 1.488 . S
C870 C869 1.488 . S
C870 C871 1.312 1_545 S
C870 C875 1.422 . S
C871 H842 0.950 . S
C871 C870 1.312 1_565 S
C871 C872 1.395 . S
C872 H843 0.950 . S
C872 C871 1.395 . S
C872 C873 1.309 . S
C873 C872 1.309 . S
C873 C874 1.351 1_565 S
C874 H844 0.951 . S
C874 C873 1.351 1_545 S
C874 C875 1.392 . S
C875 H845 0.949 . S
C875 C870 1.422 . S
C875 C874 1.392 . S
H876 C895 0.949 . S
H877 C896 0.950 . S
H878 C898 0.950 . S
H879 C899 0.950 . S
H880 C901 0.950 . S
H881 C904 0.950 . S
H882 C905 0.950 . S
H883 C907 0.951 . S
H884 C908 0.949 . S
H885 C910 0.949 . S
H886 C911 0.950 . S
H887 C913 0.950 . S
H888 C914 0.950 . S
H889 C916 0.950 . S
H890 C919 0.950 . S
H891 C920 0.950 . S
H892 C922 0.951 . S
H893 C923 0.949 . S
C894 C895 1.376 . S
C894 C899 1.386 1_455 S
C894 C900 1.483 . S
C895 H876 0.949 . S
C895 C894 1.376 . S
C895 C896 1.397 . S
C896 H877 0.950 . S
C896 C895 1.397 . S
C896 C897 1.391 . S
C897 C896 1.391 . S
C897 C898 1.405 1_455 S
C898 H878 0.950 . S
C898 C897 1.405 1_655 S
C898 C899 1.367 . S
C899 H879 0.950 . S
C899 C894 1.386 1_655 S
C899 C898 1.367 . S
C900 C894 1.483 . S
C900 C901 1.382 . S
C900 C902 1.403 1_455 S
C901 H880 0.950 . S
C901 C900 1.382 . S
C901 C917 1.411 . S
C902 C900 1.403 1_655 S
C902 C903 1.489 . S
C902 C916 1.411 . S
C903 C902 1.489 . S
C903 C904 1.383 1_655 S
C903 C908 1.382 . S
C904 H881 0.950 . S
C904 C903 1.383 1_455 S
C904 C905 1.395 . S
C905 H882 0.950 . S
C905 C904 1.395 . S
C905 C906 1.288 1_455 S
C906 C905 1.288 1_655 S
C906 C907 1.392 . S
C907 H883 0.951 . S
C907 C906 1.392 . S
C907 C908 1.392 . S
C908 H884 0.949 . S
C908 C903 1.382 . S
C908 C907 1.392 . S
C909 C910 1.376 . S
C909 C914 1.386 1_655 S
C909 C915 1.483 . S
C910 H885 0.949 . S
C910 C909 1.376 . S
C910 C911 1.397 . S
C911 H886 0.950 . S
C911 C910 1.397 . S
C911 C912 1.391 . S
C912 C911 1.391 . S
C912 C913 1.405 1_655 S
C913 H887 0.950 . S
C913 C912 1.405 1_455 S
C913 C914 1.367 . S
C914 H888 0.950 . S
C914 C909 1.386 1_455 S
C914 C913 1.367 . S
C915 C909 1.483 . S
C915 C916 1.382 . S
C915 C917 1.403 1_655 S
C916 H889 0.950 . S
C916 C902 1.411 . S
C916 C915 1.382 . S
C917 C901 1.411 . S
C917 C915 1.403 1_455 S
C917 C918 1.489 . S
C918 C917 1.489 . S
C918 C919 1.383 1_455 S
C918 C923 1.382 . S
C919 H890 0.950 . S
C919 C918 1.383 1_655 S
C919 C920 1.395 . S
C920 H891 0.950 . S
C920 C919 1.395 . S
C920 C921 1.288 1_655 S
C921 C920 1.288 1_455 S
C921 C922 1.392 . S
C922 H892 0.951 . S
C922 C921 1.392 . S
C922 C923 1.392 . S
C923 H893 0.949 . S
C923 C918 1.382 . S
C923 C922 1.392 . S
H924 C943 0.949 . S
H925 C944 0.950 . S
H926 C946 0.950 . S
H927 C947 0.950 . S
H928 C949 0.950 . S
H929 C952 0.950 . S
H930 C953 0.950 . S
H931 C955 0.951 . S
H932 C956 0.949 . S
H933 C958 0.949 . S
H934 C959 0.950 . S
H935 C961 0.950 . S
H936 C962 0.950 . S
H937 C964 0.950 . S
H938 C967 0.950 . S
H939 C968 0.950 . S
H940 C970 0.951 . S
H941 C971 0.949 . S
C942 C943 1.376 . S
C942 C947 1.386 . S
C942 C948 1.483 . S
C943 H924 0.949 . S
C943 C942 1.376 . S
C943 C944 1.397 . S
C944 H925 0.950 . S
C944 C943 1.397 . S
C944 C945 1.391 . S
C945 C944 1.391 . S
C945 C946 1.405 . S
C946 H926 0.950 . S
C946 C945 1.405 . S
C946 C947 1.367 . S
C947 H927 0.950 . S
C947 C942 1.386 . S
C947 C946 1.367 . S
C948 C942 1.483 . S
C948 C949 1.382 . S
C948 C950 1.403 . S
C949 H928 0.950 . S
C949 C948 1.382 . S
C949 C965 1.411 . S
C950 C948 1.403 . S
C950 C951 1.489 . S
C950 C964 1.411 . S
C951 C950 1.489 . S
C951 C952 1.383 . S
C951 C956 1.382 . S
C952 H929 0.950 . S
C952 C951 1.383 . S
C952 C953 1.395 . S
C953 H930 0.950 . S
C953 C952 1.395 . S
C953 C954 1.288 . S
C954 C953 1.288 . S
C954 C955 1.392 . S
C955 H931 0.951 . S
C955 C954 1.392 . S
C955 C956 1.392 . S
C956 H932 0.949 . S
C956 C951 1.382 . S
C956 C955 1.392 . S
C957 C958 1.376 . S
C957 C962 1.386 . S
C957 C963 1.483 . S
C958 H933 0.949 . S
C958 C957 1.376 . S
C958 C959 1.397 . S
C959 H934 0.950 . S
C959 C958 1.397 . S
C959 C960 1.391 . S
C960 C959 1.391 . S
C960 C961 1.405 . S
C961 H935 0.950 . S
C961 C960 1.405 . S
C961 C962 1.367 . S
C962 H936 0.950 . S
C962 C957 1.386 . S
C962 C961 1.367 . S
C963 C957 1.483 . S
C963 C964 1.382 . S
C963 C965 1.403 . S
C964 H937 0.950 . S
C964 C950 1.411 . S
C964 C963 1.382 . S
C965 C949 1.411 . S
C965 C963 1.403 . S
C965 C966 1.489 . S
C966 C965 1.489 . S
C966 C967 1.383 . S
C966 C971 1.382 . S
C967 H938 0.950 . S
C967 C966 1.383 . S
C967 C968 1.395 . S
C968 H939 0.950 . S
C968 C967 1.395 . S
C968 C969 1.288 . S
C969 C968 1.288 . S
C969 C970 1.392 . S
C970 H940 0.951 . S
C970 C969 1.392 . S
C970 C971 1.392 . S
C971 H941 0.949 . S
C971 C966 1.382 . S
C971 C970 1.392 . S
H972 C991 0.949 . S
H973 C992 0.950 . S
H974 C994 0.950 . S
H975 C995 0.950 . S
H976 C997 0.950 . S
H977 C1000 0.950 . S
H978 C1001 0.950 . S
H979 C1003 0.951 . S
H980 C1004 0.949 . S
H981 C1006 0.949 . S
H982 C1007 0.950 . S
H983 C1009 0.950 . S
H984 C1010 0.950 . S
H985 C1012 0.950 . S
H986 C1015 0.950 . S
H987 C1016 0.950 . S
H988 C1018 0.951 . S
H989 C1019 0.949 . S
C990 C991 1.376 . S
C990 C995 1.386 . S
C990 C996 1.483 . S
C991 H972 0.949 . S
C991 C990 1.376 . S
C991 C992 1.397 . S
C992 H973 0.950 . S
C992 C991 1.397 . S
C992 C993 1.391 . S
C993 C992 1.391 . S
C993 C994 1.405 . S
C994 H974 0.950 . S
C994 C993 1.405 . S
C994 C995 1.367 . S
C995 H975 0.950 . S
C995 C990 1.386 . S
C995 C994 1.367 . S
C996 C990 1.483 . S
C996 C997 1.382 . S
C996 C998 1.403 . S
C997 H976 0.950 . S
C997 C996 1.382 . S
C997 C1013 1.411 . S
C998 C996 1.403 . S
C998 C999 1.489 . S
C998 C1012 1.411 . S
C999 C998 1.489 . S
C999 C1000 1.383 . S
C999 C1004 1.382 . S
C1000 H977 0.950 . S
C1000 C999 1.383 . S
C1000 C1001 1.395 . S
C1001 H978 0.950 . S
C1001 C1000 1.395 . S
C1001 C1002 1.288 . S
C1002 C1001 1.288 . S
C1002 C1003 1.392 . S
C1003 H979 0.951 . S
C1003 C1002 1.392 . S
C1003 C1004 1.392 . S
C1004 H980 0.949 . S
C1004 C999 1.382 . S
C1004 C1003 1.392 . S
C1005 C1006 1.376 . S
C1005 C1010 1.386 . S
C1005 C1011 1.483 . S
C1006 H981 0.949 . S
C1006 C1005 1.376 . S
C1006 C1007 1.397 . S
C1007 H982 0.950 . S
C1007 C1006 1.397 . S
C1007 C1008 1.391 . S
C1008 C1007 1.391 . S
C1008 C1009 1.405 . S
C1009 H983 0.950 . S
C1009 C1008 1.405 . S
C1009 C1010 1.367 . S
C1010 H984 0.950 . S
C1010 C1005 1.386 . S
C1010 C1009 1.367 . S
C1011 C1005 1.483 . S
C1011 C1012 1.382 . S
C1011 C1013 1.403 . S
C1012 H985 0.950 . S
C1012 C998 1.411 . S
C1012 C1011 1.382 . S
C1013 C997 1.411 . S
C1013 C1011 1.403 . S
C1013 C1014 1.489 . S
C1014 C1013 1.489 . S
C1014 C1015 1.383 . S
C1014 C1019 1.382 . S
C1015 H986 0.950 . S
C1015 C1014 1.383 . S
C1015 C1016 1.395 . S
C1016 H987 0.950 . S
C1016 C1015 1.395 . S
C1016 C1017 1.288 . S
C1017 C1016 1.288 . S
C1017 C1018 1.392 . S
C1018 H988 0.951 . S
C1018 C1017 1.392 . S
C1018 C1019 1.392 . S
C1019 H989 0.949 . S
C1019 C1014 1.382 . S
C1019 C1018 1.392 . S
H1020 C1039 0.949 . S
H1021 C1040 0.950 . S
H1022 C1042 0.950 . S
H1023 C1043 0.950 . S
H1024 C1045 0.950 . S
H1025 C1048 0.950 . S
H1026 C1049 0.950 . S
H1027 C1051 0.951 . S
H1028 C1052 0.949 . S
H1029 C1054 0.949 . S
H1030 C1055 0.950 . S
H1031 C1057 0.950 . S
H1032 C1058 0.950 . S
H1033 C1060 0.950 . S
H1034 C1063 0.950 . S
H1035 C1064 0.950 . S
H1036 C1066 0.951 . S
H1037 C1067 0.949 . S
C1038 C1039 1.376 . S
C1038 C1043 1.386 . S
C1038 C1044 1.483 . S
C1039 H1020 0.949 . S
C1039 C1038 1.376 . S
C1039 C1040 1.397 . S
C1040 H1021 0.950 . S
C1040 C1039 1.397 . S
C1040 C1041 1.391 . S
C1041 C1040 1.391 . S
C1041 C1042 1.405 . S
C1042 H1022 0.950 . S
C1042 C1041 1.405 . S
C1042 C1043 1.367 . S
C1043 H1023 0.950 . S
C1043 C1038 1.386 . S
C1043 C1042 1.367 . S
C1044 C1038 1.483 . S
C1044 C1045 1.382 . S
C1044 C1046 1.403 . S
C1045 H1024 0.950 . S
C1045 C1044 1.382 . S
C1045 C1061 1.411 . S
C1046 C1044 1.403 . S
C1046 C1047 1.489 . S
C1046 C1060 1.411 . S
C1047 C1046 1.489 . S
C1047 C1048 1.383 . S
C1047 C1052 1.382 . S
C1048 H1025 0.950 . S
C1048 C1047 1.383 . S
C1048 C1049 1.395 . S
C1049 H1026 0.950 . S
C1049 C1048 1.395 . S
C1049 C1050 1.288 . S
C1050 C1049 1.288 . S
C1050 C1051 1.392 . S
C1051 H1027 0.951 . S
C1051 C1050 1.392 . S
C1051 C1052 1.392 . S
C1052 H1028 0.949 . S
C1052 C1047 1.382 . S
C1052 C1051 1.392 . S
C1053 C1054 1.376 . S
C1053 C1058 1.386 . S
C1053 C1059 1.483 . S
C1054 H1029 0.949 . S
C1054 C1053 1.376 . S
C1054 C1055 1.397 . S
C1055 H1030 0.950 . S
C1055 C1054 1.397 . S
C1055 C1056 1.391 . S
C1056 C1055 1.391 . S
C1056 C1057 1.405 . S
C1057 H1031 0.950 . S
C1057 C1056 1.405 . S
C1057 C1058 1.367 . S
C1058 H1032 0.950 . S
C1058 C1053 1.386 . S
C1058 C1057 1.367 . S
C1059 C1053 1.483 . S
C1059 C1060 1.382 . S
C1059 C1061 1.403 . S
C1060 H1033 0.950 . S
C1060 C1046 1.411 . S
C1060 C1059 1.382 . S
C1061 C1045 1.411 . S
C1061 C1059 1.403 . S
C1061 C1062 1.489 . S
C1062 C1061 1.489 . S
C1062 C1063 1.383 . S
C1062 C1067 1.382 . S
C1063 H1034 0.950 . S
C1063 C1062 1.383 . S
C1063 C1064 1.395 . S
C1064 H1035 0.950 . S
C1064 C1063 1.395 . S
C1064 C1065 1.288 . S
C1065 C1064 1.288 . S
C1065 C1066 1.392 . S
C1066 H1036 0.951 . S
C1066 C1065 1.392 . S
C1066 C1067 1.392 . S
C1067 H1037 0.949 . S
C1067 C1062 1.382 . S
C1067 C1066 1.392 . S
H1068 C1087 0.949 . S
H1069 C1088 0.950 . S
H1070 C1090 0.950 . S
H1071 C1091 0.950 . S
H1072 C1093 0.950 . S
H1073 C1096 0.950 . S
H1074 C1097 0.950 . S
H1075 C1099 0.951 . S
H1076 C1100 0.949 . S
H1077 C1102 0.949 . S
H1078 C1103 0.950 . S
H1079 C1105 0.950 . S
H1080 C1106 0.950 . S
H1081 C1108 0.950 . S
H1082 C1111 0.950 . S
H1083 C1112 0.950 . S
H1084 C1114 0.951 . S
H1085 C1115 0.949 . S
C1086 C1087 1.376 . S
C1086 C1091 1.386 . S
C1086 C1092 1.483 . S
C1087 H1068 0.949 . S
C1087 C1086 1.376 . S
C1087 C1088 1.397 . S
C1088 H1069 0.950 . S
C1088 C1087 1.397 . S
C1088 C1089 1.391 . S
C1089 C1088 1.391 . S
C1089 C1090 1.405 . S
C1090 H1070 0.950 . S
C1090 C1089 1.405 . S
C1090 C1091 1.367 . S
C1091 H1071 0.950 . S
C1091 C1086 1.386 . S
C1091 C1090 1.367 . S
C1092 C1086 1.483 . S
C1092 C1093 1.382 . S
C1092 C1094 1.403 . S
C1093 H1072 0.950 . S
C1093 C1092 1.382 . S
C1093 C1109 1.411 . S
C1094 C1092 1.403 . S
C1094 C1095 1.489 . S
C1094 C1108 1.411 . S
C1095 C1094 1.489 . S
C1095 C1096 1.383 . S
C1095 C1100 1.382 . S
C1096 H1073 0.950 . S
C1096 C1095 1.383 . S
C1096 C1097 1.395 . S
C1097 H1074 0.950 . S
C1097 C1096 1.395 . S
C1097 C1098 1.288 . S
C1098 C1097 1.288 . S
C1098 C1099 1.392 . S
C1099 H1075 0.951 . S
C1099 C1098 1.392 . S
C1099 C1100 1.392 . S
C1100 H1076 0.949 . S
C1100 C1095 1.382 . S
C1100 C1099 1.392 . S
C1101 C1102 1.376 . S
C1101 C1106 1.386 . S
C1101 C1107 1.483 . S
C1102 H1077 0.949 . S
C1102 C1101 1.376 . S
C1102 C1103 1.397 . S
C1103 H1078 0.950 . S
C1103 C1102 1.397 . S
C1103 C1104 1.391 . S
C1104 C1103 1.391 . S
C1104 C1105 1.405 . S
C1105 H1079 0.950 . S
C1105 C1104 1.405 . S
C1105 C1106 1.367 . S
C1106 H1080 0.950 . S
C1106 C1101 1.386 . S
C1106 C1105 1.367 . S
C1107 C1101 1.483 . S
C1107 C1108 1.382 . S
C1107 C1109 1.403 . S
C1108 H1081 0.950 . S
C1108 C1094 1.411 . S
C1108 C1107 1.382 . S
C1109 C1093 1.411 . S
C1109 C1107 1.403 . S
C1109 C1110 1.489 . S
C1110 C1109 1.489 . S
C1110 C1111 1.383 . S
C1110 C1115 1.382 . S
C1111 H1082 0.950 . S
C1111 C1110 1.383 . S
C1111 C1112 1.395 . S
C1112 H1083 0.950 . S
C1112 C1111 1.395 . S
C1112 C1113 1.288 . S
C1113 C1112 1.288 . S
C1113 C1114 1.392 . S
C1114 H1084 0.951 . S
C1114 C1113 1.392 . S
C1114 C1115 1.392 . S
C1115 H1085 0.949 . S
C1115 C1110 1.382 . S
C1115 C1114 1.392 . S
C1116 C1117 1.355 1_655 S
C1116 C1118 1.327 . S
C1116 H1141 0.950 . S
C1117 C1116 1.355 1_455 S
C1117 C1133 1.346 . S
C1118 C1116 1.327 . S
C1118 C1137 1.443 . S
C1118 H1142 0.950 . S
C1119 C1136 1.574 . S
C1119 C1138 1.337 1_455 S
C1119 H1143 0.949 . S
H1120 C1124 0.949 . S
C1121 C1122 1.349 1_455 S
C1121 C1123 1.327 . S
C1121 H1144 0.950 . S
C1122 C1121 1.349 1_655 S
C1122 C1134 1.349 . S
C1123 C1121 1.327 . S
C1123 C1139 1.429 1_455 S
C1123 H1145 0.950 . S
C1124 H1120 0.949 . S
C1124 C1132 1.574 . S
C1124 C1140 1.368 . S
H1125 C1133 0.950 . S
H1126 C1131 0.950 . S
H1127 C1132 0.949 . S
H1128 C1134 0.950 . S
H1129 C1135 0.950 . S
H1130 C1136 0.949 . S
C1131 H1126 0.950 . S
C1131 C1133 1.327 . S
C1131 C1137 1.399 1_455 S
C1132 C1124 1.574 . S
C1132 H1127 0.949 . S
C1132 C1138 1.421 . S
C1133 C1117 1.346 . S
C1133 H1125 0.950 . S
C1133 C1131 1.327 . S
C1134 C1122 1.349 . S
C1134 H1128 0.950 . S
C1134 C1135 1.327 . S
C1135 H1129 0.950 . S
C1135 C1134 1.327 . S
C1135 C1139 1.429 . S
C1136 C1119 1.574 . S
C1136 H1130 0.949 . S
C1136 C1140 1.368 1_455 S
C1137 C1118 1.443 . S
C1137 C1131 1.399 1_655 S
C1137 C1138 1.512 . S
C1138 C1119 1.337 1_655 S
C1138 C1132 1.421 . S
C1138 C1137 1.512 . S
C1139 C1123 1.429 1_655 S
C1139 C1135 1.429 . S
C1139 C1140 1.523 . S
C1140 C1124 1.368 . S
C1140 C1136 1.368 1_655 S
C1140 C1139 1.523 . S
H1141 C1116 0.950 . S
H1142 C1118 0.950 . S
H1143 C1119 0.949 . S
H1144 C1121 0.950 . S
H1145 C1123 0.950 . S
C1146 C1147 1.349 . S
C1146 C1148 1.327 . S
C1146 H1171 0.950 . S
C1147 C1146 1.349 . S
C1147 C1163 1.349 . S
C1148 C1146 1.327 . S
C1148 C1167 1.429 . S
C1148 H1172 0.950 . S
C1149 C1166 1.574 . S
C1149 C1168 1.368 . S
C1149 H1173 0.949 . S
H1150 C1154 0.949 . S
C1151 C1152 1.349 . S
C1151 C1153 1.327 . S
C1151 H1174 0.950 . S
C1152 C1151 1.349 . S
C1152 C1164 1.349 . S
C1153 C1151 1.327 . S
C1153 C1169 1.429 . S
C1153 H1175 0.950 . S
C1154 H1150 0.949 . S
C1154 C1162 1.574 . S
C1154 C1170 1.368 . S
H1155 C1163 0.950 . S
H1156 C1161 0.950 . S
H1157 C1162 0.949 . S
H1158 C1164 0.950 . S
H1159 C1165 0.950 . S
H1160 C1166 0.949 . S
C1161 H1156 0.950 . S
C1161 C1163 1.327 . S
C1161 C1167 1.429 . S
C1162 C1154 1.574 . S
C1162 H1157 0.949 . S
C1162 C1168 1.368 . S
C1163 C1147 1.349 . S
C1163 H1155 0.950 . S
C1163 C1161 1.327 . S
C1164 C1152 1.349 . S
C1164 H1158 0.950 . S
C1164 C1165 1.327 . S
C1165 H1159 0.950 . S
C1165 C1164 1.327 . S
C1165 C1169 1.429 . S
C1166 C1149 1.574 . S
C1166 H1160 0.949 . S
C1166 C1170 1.368 . S
C1167 C1148 1.429 . S
C1167 C1161 1.429 . S
C1167 C1168 1.523 . S
C1168 C1149 1.368 . S
C1168 C1162 1.368 . S
C1168 C1167 1.523 . S
C1169 C1153 1.429 . S
C1169 C1165 1.429 . S
C1169 C1170 1.523 . S
C1170 C1154 1.368 . S
C1170 C1166 1.368 . S
C1170 C1169 1.523 . S
H1171 C1146 0.950 . S
H1172 C1148 0.950 . S
H1173 C1149 0.949 . S
H1174 C1151 0.950 . S
H1175 C1153 0.950 . S
C1176 C1177 1.349 . S
C1176 C1178 1.327 . S
C1176 H1201 0.950 . S
C1177 C1176 1.349 . S
C1177 C1193 1.349 1_545 S
C1178 C1176 1.327 . S
C1178 C1197 1.429 . S
C1178 H1202 0.950 . S
C1179 C1196 1.574 . S
C1179 C1198 1.368 1_565 S
C1179 H1203 0.949 . S
H1180 C1184 0.949 . S
C1181 C1182 1.349 1_565 S
C1181 C1183 1.327 . S
C1181 H1204 0.950 . S
C1182 C1181 1.349 1_545 S
C1182 C1194 1.349 . S
C1183 C1181 1.327 . S
C1183 C1199 1.429 1_565 S
C1183 H1205 0.950 . S
C1184 H1180 0.949 . S
C1184 C1192 1.574 . S
C1184 C1200 1.368 . S
H1185 C1193 0.950 . S
H1186 C1191 0.950 . S
H1187 C1192 0.949 . S
H1188 C1194 0.950 . S
H1189 C1195 0.950 . S
H1190 C1196 0.949 . S
C1191 H1186 0.950 . S
C1191 C1193 1.327 . S
C1191 C1197 1.429 1_565 S
C1192 C1184 1.574 . S
C1192 H1187 0.949 . S
C1192 C1198 1.368 . S
C1193 C1177 1.349 1_565 S
C1193 H1185 0.950 . S
C1193 C1191 1.327 . S
C1194 C1182 1.349 . S
C1194 H1188 0.950 . S
C1194 C1195 1.327 . S
C1195 H1189 0.950 . S
C1195 C1194 1.327 . S
C1195 C1199 1.429 . S
C1196 C1179 1.574 . S
C1196 H1190 0.949 . S
C1196 C1200 1.368 1_565 S
C1197 C1178 1.429 . S
C1197 C1191 1.429 1_545 S
C1197 C1198 1.523 . S
C1198 C1179 1.368 1_545 S
C1198 C1192 1.368 . S
C1198 C1197 1.523 . S
C1199 C1183 1.429 1_545 S
C1199 C1195 1.429 . S
C1199 C1200 1.523 . S
C1200 C1184 1.368 . S
C1200 C1196 1.368 1_545 S
C1200 C1199 1.523 . S
H1201 C1176 0.950 . S
H1202 C1178 0.950 . S
H1203 C1179 0.949 . S
H1204 C1181 0.950 . S
H1205 C1183 0.950 . S
C1206 C1207 1.347 . S
C1206 C1208 1.327 . S
C1206 H1231 0.950 . S
C1207 C1206 1.347 . S
C1207 C1223 1.353 1_545 S
C1208 C1206 1.327 . S
C1208 C1227 1.406 1_545 S
C1208 H1232 0.950 . S
C1209 C1226 1.574 . S
C1209 C1228 1.409 . S
C1209 H1233 0.949 . S
H1210 C1214 0.949 . S
C1211 C1212 1.349 . S
C1211 C1213 1.327 . S
C1211 H1234 0.950 . S
C1212 C1211 1.349 . S
C1212 C1224 1.349 1_565 S
C1213 C1211 1.327 . S
C1213 C1229 1.429 . S
C1213 H1235 0.950 . S
C1214 H1210 0.949 . S
C1214 C1222 1.574 . S
C1214 C1230 1.368 1_545 S
H1215 C1223 0.950 . S
H1216 C1221 0.950 . S
H1217 C1222 0.949 . S
H1218 C1224 0.950 . S
H1219 C1225 0.950 . S
H1220 C1226 0.949 . S
C1221 H1216 0.950 . S
C1221 C1223 1.327 . S
C1221 C1227 1.436 . S
C1222 C1214 1.574 . S
C1222 H1217 0.949 . S
C1222 C1228 1.350 1_545 S
C1223 C1207 1.353 1_565 S
C1223 H1215 0.950 . S
C1223 C1221 1.327 . S
C1224 C1212 1.349 1_545 S
C1224 H1218 0.950 . S
C1224 C1225 1.327 . S
C1225 H1219 0.950 . S
C1225 C1224 1.327 . S
C1225 C1229 1.429 1_545 S
C1226 C1209 1.574 . S
C1226 H1220 0.949 . S
C1226 C1230 1.368 . S
C1227 C1208 1.406 1_565 S
C1227 C1221 1.436 . S
C1227 C1228 1.512 . S
C1228 C1209 1.409 . S
C1228 C1222 1.350 1_565 S
C1228 C1227 1.512 . S
C1229 C1213 1.429 . S
C1229 C1225 1.429 1_565 S
C1229 C1230 1.523 . S
C1230 C1214 1.368 1_565 S
C1230 C1226 1.368 . S
C1230 C1229 1.523 . S
H1231 C1206 0.950 . S
H1232 C1208 0.950 . S
H1233 C1209 0.949 . S
H1234 C1211 0.950 . S
H1235 C1213 0.950 . S
C1236 C1237 1.349 . S
C1236 C1238 1.327 . S
C1236 H1261 0.950 . S
C1237 C1236 1.349 . S
C1237 C1253 1.349 1_455 S
C1238 C1236 1.327 . S
C1238 C1257 1.429 . S
C1238 H1262 0.950 . S
C1239 C1256 1.574 . S
C1239 C1258 1.368 1_655 S
C1239 H1263 0.949 . S
H1240 C1244 0.949 . S
C1241 C1242 1.349 1_655 S
C1241 C1243 1.327 . S
C1241 H1264 0.950 . S
C1242 C1241 1.349 1_455 S
C1242 C1254 1.349 . S
C1243 C1241 1.327 . S
C1243 C1259 1.429 1_655 S
C1243 H1265 0.950 . S
C1244 H1240 0.949 . S
C1244 C1252 1.574 . S
C1244 C1260 1.368 . S
H1245 C1253 0.950 . S
H1246 C1251 0.950 . S
H1247 C1252 0.949 . S
H1248 C1254 0.950 . S
H1249 C1255 0.950 . S
H1250 C1256 0.949 . S
C1251 H1246 0.950 . S
C1251 C1253 1.327 . S
C1251 C1257 1.429 1_655 S
C1252 C1244 1.574 . S
C1252 H1247 0.949 . S
C1252 C1258 1.368 . S
C1253 C1237 1.349 1_655 S
C1253 H1245 0.950 . S
C1253 C1251 1.327 . S
C1254 C1242 1.349 . S
C1254 H1248 0.950 . S
C1254 C1255 1.327 . S
C1255 H1249 0.950 . S
C1255 C1254 1.327 . S
C1255 C1259 1.429 . S
C1256 C1239 1.574 . S
C1256 H1250 0.949 . S
C1256 C1260 1.368 1_655 S
C1257 C1238 1.429 . S
C1257 C1251 1.429 1_455 S
C1257 C1258 1.523 . S
C1258 C1239 1.368 1_455 S
C1258 C1252 1.368 . S
C1258 C1257 1.523 . S
C1259 C1243 1.429 1_455 S
C1259 C1255 1.429 . S
C1259 C1260 1.523 . S
C1260 C1244 1.368 . S
C1260 C1256 1.368 1_455 S
C1260 C1259 1.523 . S
H1261 C1236 0.950 . S
H1262 C1238 0.950 . S
H1263 C1239 0.949 . S
H1264 C1241 0.950 . S
H1265 C1243 0.950 . S
C1266 C1267 1.349 . S
C1266 C1268 1.327 . S
C1266 H1291 0.950 . S
C1267 C1266 1.349 . S
C1267 C1283 1.349 . S
C1268 C1266 1.327 . S
C1268 C1287 1.429 . S
C1268 H1292 0.950 . S
C1269 C1286 1.574 . S
C1269 C1288 1.368 . S
C1269 H1293 0.949 . S
H1270 C1274 0.949 . S
C1271 C1272 1.349 . S
C1271 C1273 1.327 . S
C1271 H1294 0.950 . S
C1272 C1271 1.349 . S
C1272 C1284 1.349 . S
C1273 C1271 1.327 . S
C1273 C1289 1.429 . S
C1273 H1295 0.950 . S
C1274 H1270 0.949 . S
C1274 C1282 1.574 . S
C1274 C1290 1.368 . S
H1275 C1283 0.950 . S
H1276 C1281 0.950 . S
H1277 C1282 0.949 . S
H1278 C1284 0.950 . S
H1279 C1285 0.950 . S
H1280 C1286 0.949 . S
C1281 H1276 0.950 . S
C1281 C1283 1.327 . S
C1281 C1287 1.429 . S
C1282 C1274 1.574 . S
C1282 H1277 0.949 . S
C1282 C1288 1.368 . S
C1283 C1267 1.349 . S
C1283 H1275 0.950 . S
C1283 C1281 1.327 . S
C1284 C1272 1.349 . S
C1284 H1278 0.950 . S
C1284 C1285 1.327 . S
C1285 H1279 0.950 . S
C1285 C1284 1.327 . S
C1285 C1289 1.429 . S
C1286 C1269 1.574 . S
C1286 H1280 0.949 . S
C1286 C1290 1.368 . S
C1287 C1268 1.429 . S
C1287 C1281 1.429 . S
C1287 C1288 1.523 . S
C1288 C1269 1.368 . S
C1288 C1282 1.368 . S
C1288 C1287 1.523 . S
C1289 C1273 1.429 . S
C1289 C1285 1.429 . S
C1289 C1290 1.523 . S
C1290 C1274 1.368 . S
C1290 C1286 1.368 . S
C1290 C1289 1.523 . S
H1291 C1266 0.950 . S
H1292 C1268 0.950 . S
H1293 C1269 0.949 . S
H1294 C1271 0.950 . S
H1295 C1273 0.950 . S
C1296 C1297 1.424 . S
C1296 C1298 1.327 . S
C1296 H1321 0.950 . S
C1297 C1296 1.424 . S
C1297 C1313 1.312 1_455 S
C1298 C1296 1.327 . S
C1298 C1317 1.429 . S
C1298 H1322 0.950 . S
C1299 C1316 1.574 . S
C1299 C1318 1.368 1_655 S
C1299 H1323 0.949 . S
H1300 C1304 0.949 . S
C1301 C1302 1.349 1_655 S
C1301 C1303 1.327 . S
C1301 H1324 0.950 . S
C1302 C1301 1.349 1_455 S
C1302 C1314 1.349 . S
C1303 C1301 1.327 . S
C1303 C1319 1.429 1_655 S
C1303 H1325 0.950 . S
C1304 H1300 0.949 . S
C1304 C1312 1.574 . S
C1304 C1320 1.368 . S
H1305 C1313 0.950 . S
H1306 C1311 0.950 . S
H1307 C1312 0.949 . S
H1308 C1314 0.950 . S
H1309 C1315 0.950 . S
H1310 C1316 0.949 . S
C1311 H1306 0.950 . S
C1311 C1313 1.327 . S
C1311 C1317 1.429 1_655 S
C1312 C1304 1.574 . S
C1312 H1307 0.949 . S
C1312 C1318 1.368 . S
C1313 C1297 1.312 1_655 S
C1313 H1305 0.950 . S
C1313 C1311 1.327 . S
C1314 C1302 1.349 . S
C1314 H1308 0.950 . S
C1314 C1315 1.327 . S
C1315 H1309 0.950 . S
C1315 C1314 1.327 . S
C1315 C1319 1.429 . S
C1316 C1299 1.574 . S
C1316 H1310 0.949 . S
C1316 C1320 1.368 1_655 S
C1317 C1298 1.429 . S
C1317 C1311 1.429 1_455 S
C1317 C1318 1.523 . S
C1318 C1299 1.368 1_455 S
C1318 C1312 1.368 . S
C1318 C1317 1.523 . S
C1319 C1303 1.429 1_455 S
C1319 C1315 1.429 . S
C1319 C1320 1.523 . S
C1320 C1304 1.368 . S
C1320 C1316 1.368 1_455 S
C1320 C1319 1.523 . S
H1321 C1296 0.950 . S
H1322 C1298 0.950 . S
H1323 C1299 0.949 . S
H1324 C1301 0.950 . S
H1325 C1303 0.950 . S
C1326 C1327 1.349 . S
C1326 C1328 1.327 . S
C1326 H1351 0.950 . S
C1327 C1326 1.349 . S
C1327 C1343 1.349 . S
C1328 C1326 1.327 . S
C1328 C1347 1.429 . S
C1328 H1352 0.950 . S
C1329 C1346 1.574 . S
C1329 C1348 1.368 . S
C1329 H1353 0.949 . S
H1330 C1334 0.949 . S
C1331 C1332 1.349 . S
C1331 C1333 1.327 . S
C1331 H1354 0.950 . S
C1332 C1331 1.349 . S
C1332 C1344 1.349 . S
C1333 C1331 1.327 . S
C1333 C1349 1.429 . S
C1333 H1355 0.950 . S
C1334 H1330 0.949 . S
C1334 C1342 1.574 . S
C1334 C1350 1.368 . S
H1335 C1343 0.950 . S
H1336 C1341 0.950 . S
H1337 C1342 0.949 . S
H1338 C1344 0.950 . S
H1339 C1345 0.950 . S
H1340 C1346 0.949 . S
C1341 H1336 0.950 . S
C1341 C1343 1.327 . S
C1341 C1347 1.429 . S
C1342 C1334 1.574 . S
C1342 H1337 0.949 . S
C1342 C1348 1.368 . S
C1343 C1327 1.349 . S
C1343 H1335 0.950 . S
C1343 C1341 1.327 . S
C1344 C1332 1.349 . S
C1344 H1338 0.950 . S
C1344 C1345 1.327 . S
C1345 H1339 0.950 . S
C1345 C1344 1.327 . S
C1345 C1349 1.429 . S
C1346 C1329 1.574 . S
C1346 H1340 0.949 . S
C1346 C1350 1.368 . S
C1347 C1328 1.429 . S
C1347 C1341 1.429 . S
C1347 C1348 1.523 . S
C1348 C1329 1.368 . S
C1348 C1342 1.368 . S
C1348 C1347 1.523 . S
C1349 C1333 1.429 . S
C1349 C1345 1.429 . S
C1349 C1350 1.523 . S
C1350 C1334 1.368 . S
C1350 C1346 1.368 . S
C1350 C1349 1.523 . S
H1351 C1326 0.950 . S
H1352 C1328 0.950 . S
H1353 C1329 0.949 . S
H1354 C1331 0.950 . S
H1355 C1333 0.950 . S
C1356 C1357 1.364 . S
C1356 C1358 1.327 . S
C1356 H1381 0.950 . S
C1357 C1356 1.364 . S
C1357 C1373 1.314 1_565 S
C1358 C1356 1.327 . S
C1358 C1377 1.488 . S
C1358 H1382 0.950 . S
C1359 C1376 1.574 . S
C1359 C1378 1.368 1_545 S
C1359 H1383 0.949 . S
H1360 C1364 0.949 . S
C1361 C1362 1.349 1_545 S
C1361 C1363 1.327 . S
C1361 H1384 0.950 . S
C1362 C1361 1.349 1_565 S
C1362 C1374 1.349 . S
C1363 C1361 1.327 . S
C1363 C1379 1.429 1_545 S
C1363 H1385 0.950 . S
C1364 H1360 0.949 . S
C1364 C1372 1.574 . S
C1364 C1380 1.368 . S
H1365 C1373 0.950 . S
H1366 C1371 0.950 . S
H1367 C1372 0.949 . S
H1368 C1374 0.950 . S
H1369 C1375 0.950 . S
H1370 C1376 0.949 . S
C1371 H1366 0.950 . S
C1371 C1373 1.327 . S
C1371 C1377 1.411 1_545 S
C1372 C1364 1.574 . S
C1372 H1367 0.949 . S
C1372 C1378 1.368 . S
C1373 C1357 1.314 1_545 S
C1373 H1365 0.950 . S
C1373 C1371 1.327 . S
C1374 C1362 1.349 . S
C1374 H1368 0.950 . S
C1374 C1375 1.327 . S
C1375 H1369 0.950 . S
C1375 C1374 1.327 . S
C1375 C1379 1.429 . S
C1376 C1359 1.574 . S
C1376 H1370 0.949 . S
C1376 C1380 1.368 1_545 S
C1377 C1358 1.488 . S
C1377 C1371 1.411 1_565 S
C1377 C1378 1.490 . S
C1378 C1359 1.368 1_565 S
C1378 C1372 1.368 . S
C1378 C1377 1.490 . S
C1379 C1363 1.429 1_565 S
C1379 C1375 1.429 . S
C1379 C1380 1.523 . S
C1380 C1364 1.368 . S
C1380 C1376 1.368 1_565 S
C1380 C1379 1.523 . S
H1381 C1356 0.950 . S
H1382 C1358 0.950 . S
H1383 C1359 0.949 . S
H1384 C1361 0.950 . S
H1385 C1363 0.950 . S
C1386 C1387 1.437 . S
C1386 C1388 1.327 . S
C1386 H1411 0.950 . S
C1387 C1386 1.437 . S
C1387 C1403 1.299 1_545 S
C1388 C1386 1.327 . S
C1388 C1407 1.429 . S
C1388 H1412 0.950 . S
C1389 C1406 1.574 . S
C1389 C1408 1.368 1_565 S
C1389 H1413 0.949 . S
H1390 C1394 0.949 . S
C1391 C1392 1.349 1_565 S
C1391 C1393 1.327 . S
C1391 H1414 0.950 . S
C1392 C1391 1.349 1_545 S
C1392 C1404 1.349 . S
C1393 C1391 1.327 . S
C1393 C1409 1.429 1_565 S
C1393 H1415 0.950 . S
C1394 H1390 0.949 . S
C1394 C1402 1.574 . S
C1394 C1410 1.368 . S
H1395 C1403 0.950 . S
H1396 C1401 0.950 . S
H1397 C1402 0.949 . S
H1398 C1404 0.950 . S
H1399 C1405 0.950 . S
H1400 C1406 0.949 . S
C1401 H1396 0.950 . S
C1401 C1403 1.327 . S
C1401 C1407 1.429 1_565 S
C1402 C1394 1.574 . S
C1402 H1397 0.949 . S
C1402 C1408 1.368 . S
C1403 C1387 1.299 1_565 S
C1403 H1395 0.950 . S
C1403 C1401 1.327 . S
C1404 C1392 1.349 . S
C1404 H1398 0.950 . S
C1404 C1405 1.327 . S
C1405 H1399 0.950 . S
C1405 C1404 1.327 . S
C1405 C1409 1.429 . S
C1406 C1389 1.574 . S
C1406 H1400 0.949 . S
C1406 C1410 1.368 1_565 S
C1407 C1388 1.429 . S
C1407 C1401 1.429 1_545 S
C1407 C1408 1.523 . S
C1408 C1389 1.368 1_545 S
C1408 C1402 1.368 . S
C1408 C1407 1.523 . S
C1409 C1393 1.429 1_545 S
C1409 C1405 1.429 . S
C1409 C1410 1.523 . S
C1410 C1394 1.368 . S
C1410 C1406 1.368 1_545 S
C1410 C1409 1.523 . S
H1411 C1386 0.950 . S
H1412 C1388 0.950 . S
H1413 C1389 0.949 . S
H1414 C1391 0.950 . S
H1415 C1393 0.950 . S
C1416 C1417 1.380 . S
C1416 C1418 1.327 . S
C1416 H1441 0.950 . S
C1417 C1416 1.380 . S
C1417 C1433 1.297 1_655 S
C1418 C1416 1.327 . S
C1418 C1437 1.513 . S
C1418 H1442 0.950 . S
C1419 C1436 1.574 . S
C1419 C1438 1.368 1_455 S
C1419 H1443 0.949 . S
H1420 C1424 0.949 . S
C1421 C1422 1.349 1_455 S
C1421 C1423 1.327 . S
C1421 H1444 0.950 . S
C1422 C1421 1.349 1_655 S
C1422 C1434 1.349 . S
C1423 C1421 1.327 . S
C1423 C1439 1.429 1_455 S
C1423 H1445 0.950 . S
C1424 H1420 0.949 . S
C1424 C1432 1.574 . S
C1424 C1440 1.368 . S
H1425 C1433 0.950 . S
H1426 C1431 0.950 . S
H1427 C1432 0.949 . S
H1428 C1434 0.950 . S
H1429 C1435 0.950 . S
H1430 C1436 0.949 . S
C1431 H1426 0.950 . S
C1431 C1433 1.327 . S
C1431 C1437 1.386 1_455 S
C1432 C1424 1.574 . S
C1432 H1427 0.949 . S
C1432 C1438 1.368 . S
C1433 C1417 1.297 1_455 S
C1433 H1425 0.950 . S
C1433 C1431 1.327 . S
C1434 C1422 1.349 . S
C1434 H1428 0.950 . S
C1434 C1435 1.327 . S
C1435 H1429 0.950 . S
C1435 C1434 1.327 . S
C1435 C1439 1.429 . S
C1436 C1419 1.574 . S
C1436 H1430 0.949 . S
C1436 C1440 1.368 1_455 S
C1437 C1418 1.513 . S
C1437 C1431 1.386 1_655 S
C1437 C1438 1.490 . S
C1438 C1419 1.368 1_655 S
C1438 C1432 1.368 . S
C1438 C1437 1.490 . S
C1439 C1423 1.429 1_655 S
C1439 C1435 1.429 . S
C1439 C1440 1.523 . S
C1440 C1424 1.368 . S
C1440 C1436 1.368 1_655 S
C1440 C1439 1.523 . S
H1441 C1416 0.950 . S
H1442 C1418 0.950 . S
H1443 C1419 0.949 . S
H1444 C1421 0.950 . S
H1445 C1423 0.950 . S
C1446 C1447 1.349 . S
C1446 C1448 1.327 . S
C1446 H1471 0.950 . S
C1447 C1446 1.349 . S
C1447 C1463 1.349 . S
C1448 C1446 1.327 . S
C1448 C1467 1.429 . S
C1448 H1472 0.950 . S
C1449 C1466 1.574 . S
C1449 C1468 1.368 . S
C1449 H1473 0.949 . S
H1450 C1454 0.949 . S
C1451 C1452 1.349 . S
C1451 C1453 1.327 . S
C1451 H1474 0.950 . S
C1452 C1451 1.349 . S
C1452 C1464 1.349 . S
C1453 C1451 1.327 . S
C1453 C1469 1.429 . S
C1453 H1475 0.950 . S
C1454 H1450 0.949 . S
C1454 C1462 1.574 . S
C1454 C1470 1.368 . S
H1455 C1463 0.950 . S
H1456 C1461 0.950 . S
H1457 C1462 0.949 . S
H1458 C1464 0.950 . S
H1459 C1465 0.950 . S
H1460 C1466 0.949 . S
C1461 H1456 0.950 . S
C1461 C1463 1.327 . S
C1461 C1467 1.429 . S
C1462 C1454 1.574 . S
C1462 H1457 0.949 . S
C1462 C1468 1.368 . S
C1463 C1447 1.349 . S
C1463 H1455 0.950 . S
C1463 C1461 1.327 . S
C1464 C1452 1.349 . S
C1464 H1458 0.950 . S
C1464 C1465 1.327 . S
C1465 H1459 0.950 . S
C1465 C1464 1.327 . S
C1465 C1469 1.429 . S
C1466 C1449 1.574 . S
C1466 H1460 0.949 . S
C1466 C1470 1.368 . S
C1467 C1448 1.429 . S
C1467 C1461 1.429 . S
C1467 C1468 1.523 . S
C1468 C1449 1.368 . S
C1468 C1462 1.368 . S
C1468 C1467 1.523 . S
C1469 C1453 1.429 . S
C1469 C1465 1.429 . S
C1469 C1470 1.523 . S
C1470 C1454 1.368 . S
C1470 C1466 1.368 . S
C1470 C1469 1.523 . S
H1471 C1446 0.950 . S
H1472 C1448 0.950 . S
H1473 C1449 0.949 . S
H1474 C1451 0.950 . S
H1475 C1453 0.950 . S
C1476 C1477 1.349 . S
C1476 C1478 1.327 . S
C1476 H1501 0.950 . S
C1477 C1476 1.349 . S
C1477 C1493 1.349 . S
C1478 C1476 1.327 . S
C1478 C1497 1.429 . S
C1478 H1502 0.950 . S
C1479 C1496 1.574 . S
C1479 C1498 1.368 . S
C1479 H1503 0.949 . S
H1480 C1484 0.949 . S
C1481 C1482 1.349 . S
C1481 C1483 1.327 . S
C1481 H1504 0.950 . S
C1482 C1481 1.349 . S
C1482 C1494 1.349 . S
C1483 C1481 1.327 . S
C1483 C1499 1.429 . S
C1483 H1505 0.950 . S
C1484 H1480 0.949 . S
C1484 C1492 1.574 . S
C1484 C1500 1.368 . S
H1485 C1493 0.950 . S
H1486 C1491 0.950 . S
H1487 C1492 0.949 . S
H1488 C1494 0.950 . S
H1489 C1495 0.950 . S
H1490 C1496 0.949 . S
C1491 H1486 0.950 . S
C1491 C1493 1.327 . S
C1491 C1497 1.429 . S
C1492 C1484 1.574 . S
C1492 H1487 0.949 . S
C1492 C1498 1.368 . S
C1493 C1477 1.349 . S
C1493 H1485 0.950 . S
C1493 C1491 1.327 . S
C1494 C1482 1.349 . S
C1494 H1488 0.950 . S
C1494 C1495 1.327 . S
C1495 H1489 0.950 . S
C1495 C1494 1.327 . S
C1495 C1499 1.429 . S
C1496 C1479 1.574 . S
C1496 H1490 0.949 . S
C1496 C1500 1.368 . S
C1497 C1478 1.429 . S
C1497 C1491 1.429 . S
C1497 C1498 1.523 . S
C1498 C1479 1.368 . S
C1498 C1492 1.368 . S
C1498 C1497 1.523 . S
C1499 C1483 1.429 . S
C1499 C1495 1.429 . S
C1499 C1500 1.523 . S
C1500 C1484 1.368 . S
C1500 C1496 1.368 . S
C1500 C1499 1.523 . S
H1501 C1476 0.950 . S
H1502 C1478 0.950 . S
H1503 C1479 0.949 . S
H1504 C1481 0.950 . S
H1505 C1483 0.950 . S
C1506 C1507 1.349 . S
C1506 C1508 1.327 . S
C1506 H1531 0.950 . S
C1507 C1506 1.349 . S
C1507 C1523 1.349 . S
C1508 C1506 1.327 . S
C1508 C1527 1.429 . S
C1508 H1532 0.950 . S
C1509 C1526 1.574 . S
C1509 C1528 1.368 . S
C1509 H1533 0.949 . S
H1510 C1514 0.949 . S
C1511 C1512 1.349 . S
C1511 C1513 1.327 . S
C1511 H1534 0.950 . S
C1512 C1511 1.349 . S
C1512 C1524 1.349 . S
C1513 C1511 1.327 . S
C1513 C1529 1.429 . S
C1513 H1535 0.950 . S
C1514 H1510 0.949 . S
C1514 C1522 1.574 . S
C1514 C1530 1.368 . S
H1515 C1523 0.950 . S
H1516 C1521 0.950 . S
H1517 C1522 0.949 . S
H1518 C1524 0.950 . S
H1519 C1525 0.950 . S
H1520 C1526 0.949 . S
C1521 H1516 0.950 . S
C1521 C1523 1.327 . S
C1521 C1527 1.429 . S
C1522 C1514 1.574 . S
C1522 H1517 0.949 . S
C1522 C1528 1.368 . S
C1523 C1507 1.349 . S
C1523 H1515 0.950 . S
C1523 C1521 1.327 . S
C1524 C1512 1.349 . S
C1524 H1518 0.950 . S
C1524 C1525 1.327 . S
C1525 H1519 0.950 . S
C1525 C1524 1.327 . S
C1525 C1529 1.429 . S
C1526 C1509 1.574 . S
C1526 H1520 0.949 . S
C1526 C1530 1.368 . S
C1527 C1508 1.429 . S
C1527 C1521 1.429 . S
C1527 C1528 1.523 . S
C1528 C1509 1.368 . S
C1528 C1522 1.368 . S
C1528 C1527 1.523 . S
C1529 C1513 1.429 . S
C1529 C1525 1.429 . S
C1529 C1530 1.523 . S
C1530 C1514 1.368 . S
C1530 C1526 1.368 . S
C1530 C1529 1.523 . S
H1531 C1506 0.950 . S
H1532 C1508 0.950 . S
H1533 C1509 0.949 . S
H1534 C1511 0.950 . S
H1535 C1513 0.950 . S
C1536 C1537 1.349 . S
C1536 C1538 1.327 . S
C1536 H1561 0.950 . S
C1537 C1536 1.349 . S
C1537 C1553 1.349 . S
C1538 C1536 1.327 . S
C1538 C1557 1.429 . S
C1538 H1562 0.950 . S
C1539 C1556 1.574 . S
C1539 C1558 1.368 . S
C1539 H1563 0.949 . S
H1540 C1544 0.949 . S
C1541 C1542 1.349 . S
C1541 C1543 1.327 . S
C1541 H1564 0.950 . S
C1542 C1541 1.349 . S
C1542 C1554 1.349 . S
C1543 C1541 1.327 . S
C1543 C1559 1.429 . S
C1543 H1565 0.950 . S
C1544 H1540 0.949 . S
C1544 C1552 1.574 . S
C1544 C1560 1.368 . S
H1545 C1553 0.950 . S
H1546 C1551 0.950 . S
H1547 C1552 0.949 . S
H1548 C1554 0.950 . S
H1549 C1555 0.950 . S
H1550 C1556 0.949 . S
C1551 H1546 0.950 . S
C1551 C1553 1.327 . S
C1551 C1557 1.429 . S
C1552 C1544 1.574 . S
C1552 H1547 0.949 . S
C1552 C1558 1.368 . S
C1553 C1537 1.349 . S
C1553 H1545 0.950 . S
C1553 C1551 1.327 . S
C1554 C1542 1.349 . S
C1554 H1548 0.950 . S
C1554 C1555 1.327 . S
C1555 H1549 0.950 . S
C1555 C1554 1.327 . S
C1555 C1559 1.429 . S
C1556 C1539 1.574 . S
C1556 H1550 0.949 . S
C1556 C1560 1.368 . S
C1557 C1538 1.429 . S
C1557 C1551 1.429 . S
C1557 C1558 1.523 . S
C1558 C1539 1.368 . S
C1558 C1552 1.368 . S
C1558 C1557 1.523 . S
C1559 C1543 1.429 . S
C1559 C1555 1.429 . S
C1559 C1560 1.523 . S
C1560 C1544 1.368 . S
C1560 C1556 1.368 . S
C1560 C1559 1.523 . S
H1561 C1536 0.950 . S
H1562 C1538 0.950 . S
H1563 C1539 0.949 . S
H1564 C1541 0.950 . S
H1565 C1543 0.950 . S
C1566 C1567 1.349 . S
C1566 C1568 1.327 . S
C1566 H1591 0.950 . S
C1567 C1566 1.349 . S
C1567 C1583 1.349 . S
C1568 C1566 1.327 . S
C1568 C1587 1.429 . S
C1568 H1592 0.950 . S
C1569 C1586 1.574 . S
C1569 C1588 1.368 . S
C1569 H1593 0.949 . S
H1570 C1574 0.949 . S
C1571 C1572 1.349 . S
C1571 C1573 1.327 . S
C1571 H1594 0.950 . S
C1572 C1571 1.349 . S
C1572 C1584 1.349 . S
C1573 C1571 1.327 . S
C1573 C1589 1.429 . S
C1573 H1595 0.950 . S
C1574 H1570 0.949 . S
C1574 C1582 1.574 . S
C1574 C1590 1.368 . S
H1575 C1583 0.950 . S
H1576 C1581 0.950 . S
H1577 C1582 0.949 . S
H1578 C1584 0.950 . S
H1579 C1585 0.950 . S
H1580 C1586 0.949 . S
C1581 H1576 0.950 . S
C1581 C1583 1.327 . S
C1581 C1587 1.429 . S
C1582 C1574 1.574 . S
C1582 H1577 0.949 . S
C1582 C1588 1.368 . S
C1583 C1567 1.349 . S
C1583 H1575 0.950 . S
C1583 C1581 1.327 . S
C1584 C1572 1.349 . S
C1584 H1578 0.950 . S
C1584 C1585 1.327 . S
C1585 H1579 0.950 . S
C1585 C1584 1.327 . S
C1585 C1589 1.429 . S
C1586 C1569 1.574 . S
C1586 H1580 0.949 . S
C1586 C1590 1.368 . S
C1587 C1568 1.429 . S
C1587 C1581 1.429 . S
C1587 C1588 1.523 . S
C1588 C1569 1.368 . S
C1588 C1582 1.368 . S
C1588 C1587 1.523 . S
C1589 C1573 1.429 . S
C1589 C1585 1.429 . S
C1589 C1590 1.523 . S
C1590 C1574 1.368 . S
C1590 C1586 1.368 . S
C1590 C1589 1.523 . S
H1591 C1566 0.950 . S
H1592 C1568 0.950 . S
H1593 C1569 0.949 . S
H1594 C1571 0.950 . S
H1595 C1573 0.950 . S
C1596 C1597 1.349 . S
C1596 C1598 1.327 . S
C1596 H1621 0.950 . S
C1597 C1596 1.349 . S
C1597 C1613 1.349 . S
C1598 C1596 1.327 . S
C1598 C1617 1.429 . S
C1598 H1622 0.950 . S
C1599 C1616 1.574 . S
C1599 C1618 1.368 . S
C1599 H1623 0.949 . S
H1600 C1604 0.949 . S
C1601 C1602 1.349 . S
C1601 C1603 1.327 . S
C1601 H1624 0.950 . S
C1602 C1601 1.349 . S
C1602 C1614 1.349 . S
C1603 C1601 1.327 . S
C1603 C1619 1.429 . S
C1603 H1625 0.950 . S
C1604 H1600 0.949 . S
C1604 C1612 1.574 . S
C1604 C1620 1.368 . S
H1605 C1613 0.950 . S
H1606 C1611 0.950 . S
H1607 C1612 0.949 . S
H1608 C1614 0.950 . S
H1609 C1615 0.950 . S
H1610 C1616 0.949 . S
C1611 H1606 0.950 . S
C1611 C1613 1.327 . S
C1611 C1617 1.429 . S
C1612 C1604 1.574 . S
C1612 H1607 0.949 . S
C1612 C1618 1.368 . S
C1613 C1597 1.349 . S
C1613 H1605 0.950 . S
C1613 C1611 1.327 . S
C1614 C1602 1.349 . S
C1614 H1608 0.950 . S
C1614 C1615 1.327 . S
C1615 H1609 0.950 . S
C1615 C1614 1.327 . S
C1615 C1619 1.429 . S
C1616 C1599 1.574 . S
C1616 H1610 0.949 . S
C1616 C1620 1.368 . S
C1617 C1598 1.429 . S
C1617 C1611 1.429 . S
C1617 C1618 1.523 . S
C1618 C1599 1.368 . S
C1618 C1612 1.368 . S
C1618 C1617 1.523 . S
C1619 C1603 1.429 . S
C1619 C1615 1.429 . S
C1619 C1620 1.523 . S
C1620 C1604 1.368 . S
C1620 C1616 1.368 . S
C1620 C1619 1.523 . S
H1621 C1596 0.950 . S
H1622 C1598 0.950 . S
H1623 C1599 0.949 . S
H1624 C1601 0.950 . S
H1625 C1603 0.950 . S
C1626 C1627 1.349 . S
C1626 C1628 1.327 . S
C1626 H1651 0.950 . S
C1627 C1626 1.349 . S
C1627 C1643 1.349 . S
C1628 C1626 1.327 . S
C1628 C1647 1.429 . S
C1628 H1652 0.950 . S
C1629 C1646 1.574 . S
C1629 C1648 1.368 . S
C1629 H1653 0.949 . S
H1630 C1634 0.949 . S
C1631 C1632 1.349 . S
C1631 C1633 1.327 . S
C1631 H1654 0.950 . S
C1632 C1631 1.349 . S
C1632 C1644 1.349 . S
C1633 C1631 1.327 . S
C1633 C1649 1.429 . S
C1633 H1655 0.950 . S
C1634 H1630 0.949 . S
C1634 C1642 1.574 . S
C1634 C1650 1.368 . S
H1635 C1643 0.950 . S
H1636 C1641 0.950 . S
H1637 C1642 0.949 . S
H1638 C1644 0.950 . S
H1639 C1645 0.950 . S
H1640 C1646 0.949 . S
C1641 H1636 0.950 . S
C1641 C1643 1.327 . S
C1641 C1647 1.429 . S
C1642 C1634 1.574 . S
C1642 H1637 0.949 . S
C1642 C1648 1.368 . S
C1643 C1627 1.349 . S
C1643 H1635 0.950 . S
C1643 C1641 1.327 . S
C1644 C1632 1.349 . S
C1644 H1638 0.950 . S
C1644 C1645 1.327 . S
C1645 H1639 0.950 . S
C1645 C1644 1.327 . S
C1645 C1649 1.429 . S
C1646 C1629 1.574 . S
C1646 H1640 0.949 . S
C1646 C1650 1.368 . S
C1647 C1628 1.429 . S
C1647 C1641 1.429 . S
C1647 C1648 1.523 . S
C1648 C1629 1.368 . S
C1648 C1642 1.368 . S
C1648 C1647 1.523 . S
C1649 C1633 1.429 . S
C1649 C1645 1.429 . S
C1649 C1650 1.523 . S
C1650 C1634 1.368 . S
C1650 C1646 1.368 . S
C1650 C1649 1.523 . S
H1651 C1626 0.950 . S
H1652 C1628 0.950 . S
H1653 C1629 0.949 . S
H1654 C1631 0.950 . S
H1655 C1633 0.950 . S
C1656 C1657 1.349 . S
C1656 C1658 1.327 . S
C1656 H1681 0.950 . S
C1657 C1656 1.349 . S
C1657 C1673 1.349 . S
C1658 C1656 1.327 . S
C1658 C1677 1.429 . S
C1658 H1682 0.950 . S
C1659 C1676 1.574 . S
C1659 C1678 1.368 . S
C1659 H1683 0.949 . S
H1660 C1664 0.949 . S
C1661 C1662 1.349 . S
C1661 C1663 1.327 . S
C1661 H1684 0.950 . S
C1662 C1661 1.349 . S
C1662 C1674 1.349 . S
C1663 C1661 1.327 . S
C1663 C1679 1.429 . S
C1663 H1685 0.950 . S
C1664 H1660 0.949 . S
C1664 C1672 1.574 . S
C1664 C1680 1.368 . S
H1665 C1673 0.950 . S
H1666 C1671 0.950 . S
H1667 C1672 0.949 . S
H1668 C1674 0.950 . S
H1669 C1675 0.950 . S
H1670 C1676 0.949 . S
C1671 H1666 0.950 . S
C1671 C1673 1.327 . S
C1671 C1677 1.429 . S
C1672 C1664 1.574 . S
C1672 H1667 0.949 . S
C1672 C1678 1.368 . S
C1673 C1657 1.349 . S
C1673 H1665 0.950 . S
C1673 C1671 1.327 . S
C1674 C1662 1.349 . S
C1674 H1668 0.950 . S
C1674 C1675 1.327 . S
C1675 H1669 0.950 . S
C1675 C1674 1.327 . S
C1675 C1679 1.429 . S
C1676 C1659 1.574 . S
C1676 H1670 0.949 . S
C1676 C1680 1.368 . S
C1677 C1658 1.429 . S
C1677 C1671 1.429 . S
C1677 C1678 1.523 . S
C1678 C1659 1.368 . S
C1678 C1672 1.368 . S
C1678 C1677 1.523 . S
C1679 C1663 1.429 . S
C1679 C1675 1.429 . S
C1679 C1680 1.523 . S
C1680 C1664 1.368 . S
C1680 C1676 1.368 . S
C1680 C1679 1.523 . S
H1681 C1656 0.950 . S
H1682 C1658 0.950 . S
H1683 C1659 0.949 . S
H1684 C1661 0.950 . S
H1685 C1663 0.950 . S
C1686 C1687 1.349 . S
C1686 C1688 1.327 . S
C1686 H1711 0.950 . S
C1687 C1686 1.349 . S
C1687 C1703 1.349 . S
C1688 C1686 1.327 . S
C1688 C1707 1.429 . S
C1688 H1712 0.950 . S
C1689 C1706 1.574 . S
C1689 C1708 1.368 . S
C1689 H1713 0.949 . S
H1690 C1694 0.949 . S
C1691 C1692 1.349 . S
C1691 C1693 1.327 . S
C1691 H1714 0.950 . S
C1692 C1691 1.349 . S
C1692 C1704 1.349 . S
C1693 C1691 1.327 . S
C1693 C1709 1.429 . S
C1693 H1715 0.950 . S
C1694 H1690 0.949 . S
C1694 C1702 1.574 . S
C1694 C1710 1.368 . S
H1695 C1703 0.950 . S
H1696 C1701 0.950 . S
H1697 C1702 0.949 . S
H1698 C1704 0.950 . S
H1699 C1705 0.950 . S
H1700 C1706 0.949 . S
C1701 H1696 0.950 . S
C1701 C1703 1.327 . S
C1701 C1707 1.429 . S
C1702 C1694 1.574 . S
C1702 H1697 0.949 . S
C1702 C1708 1.368 . S
C1703 C1687 1.349 . S
C1703 H1695 0.950 . S
C1703 C1701 1.327 . S
C1704 C1692 1.349 . S
C1704 H1698 0.950 . S
C1704 C1705 1.327 . S
C1705 H1699 0.950 . S
C1705 C1704 1.327 . S
C1705 C1709 1.429 . S
C1706 C1689 1.574 . S
C1706 H1700 0.949 . S
C1706 C1710 1.368 . S
C1707 C1688 1.429 . S
C1707 C1701 1.429 . S
C1707 C1708 1.523 . S
C1708 C1689 1.368 . S
C1708 C1702 1.368 . S
C1708 C1707 1.523 . S
C1709 C1693 1.429 . S
C1709 C1705 1.429 . S
C1709 C1710 1.523 . S
C1710 C1694 1.368 . S
C1710 C1706 1.368 . S
C1710 C1709 1.523 . S
H1711 C1686 0.950 . S
H1712 C1688 0.950 . S
H1713 C1689 0.949 . S
H1714 C1691 0.950 . S
H1715 C1693 0.950 . S
C1716 C1717 1.349 . S
C1716 C1718 1.327 . S
C1716 H1741 0.950 . S
C1717 C1716 1.349 . S
C1717 C1733 1.349 . S
C1718 C1716 1.327 . S
C1718 C1737 1.429 . S
C1718 H1742 0.950 . S
C1719 C1736 1.574 . S
C1719 C1738 1.368 . S
C1719 H1743 0.949 . S
H1720 C1724 0.949 . S
C1721 C1722 1.349 . S
C1721 C1723 1.327 . S
C1721 H1744 0.950 . S
C1722 C1721 1.349 . S
C1722 C1734 1.349 . S
C1723 C1721 1.327 . S
C1723 C1739 1.429 . S
C1723 H1745 0.950 . S
C1724 H1720 0.949 . S
C1724 C1732 1.574 . S
C1724 C1740 1.368 . S
H1725 C1733 0.950 . S
H1726 C1731 0.950 . S
H1727 C1732 0.949 . S
H1728 C1734 0.950 . S
H1729 C1735 0.950 . S
H1730 C1736 0.949 . S
C1731 H1726 0.950 . S
C1731 C1733 1.327 . S
C1731 C1737 1.429 . S
C1732 C1724 1.574 . S
C1732 H1727 0.949 . S
C1732 C1738 1.368 . S
C1733 C1717 1.349 . S
C1733 H1725 0.950 . S
C1733 C1731 1.327 . S
C1734 C1722 1.349 . S
C1734 H1728 0.950 . S
C1734 C1735 1.327 . S
C1735 H1729 0.950 . S
C1735 C1734 1.327 . S
C1735 C1739 1.429 . S
C1736 C1719 1.574 . S
C1736 H1730 0.949 . S
C1736 C1740 1.368 . S
C1737 C1718 1.429 . S
C1737 C1731 1.429 . S
C1737 C1738 1.523 . S
C1738 C1719 1.368 . S
C1738 C1732 1.368 . S
C1738 C1737 1.523 . S
C1739 C1723 1.429 . S
C1739 C1735 1.429 . S
C1739 C1740 1.523 . S
C1740 C1724 1.368 . S
C1740 C1736 1.368 . S
C1740 C1739 1.523 . S
H1741 C1716 0.950 . S
H1742 C1718 0.950 . S
H1743 C1719 0.949 . S
H1744 C1721 0.950 . S
H1745 C1723 0.950 . S
C1746 C1747 1.349 . S
C1746 C1748 1.327 . S
C1746 H1771 0.950 . S
C1747 C1746 1.349 . S
C1747 C1763 1.349 . S
C1748 C1746 1.327 . S
C1748 C1767 1.429 . S
C1748 H1772 0.950 . S
C1749 C1766 1.574 . S
C1749 C1768 1.368 . S
C1749 H1773 0.949 . S
H1750 C1754 0.949 . S
C1751 C1752 1.349 . S
C1751 C1753 1.327 . S
C1751 H1774 0.950 . S
C1752 C1751 1.349 . S
C1752 C1764 1.349 . S
C1753 C1751 1.327 . S
C1753 C1769 1.429 . S
C1753 H1775 0.950 . S
C1754 H1750 0.949 . S
C1754 C1762 1.574 . S
C1754 C1770 1.368 . S
H1755 C1763 0.950 . S
H1756 C1761 0.950 . S
H1757 C1762 0.949 . S
H1758 C1764 0.950 . S
H1759 C1765 0.950 . S
H1760 C1766 0.949 . S
C1761 H1756 0.950 . S
C1761 C1763 1.327 . S
C1761 C1767 1.429 . S
C1762 C1754 1.574 . S
C1762 H1757 0.949 . S
C1762 C1768 1.368 . S
C1763 C1747 1.349 . S
C1763 H1755 0.950 . S
C1763 C1761 1.327 . S
C1764 C1752 1.349 . S
C1764 H1758 0.950 . S
C1764 C1765 1.327 . S
C1765 H1759 0.950 . S
C1765 C1764 1.327 . S
C1765 C1769 1.429 . S
C1766 C1749 1.574 . S
C1766 H1760 0.949 . S
C1766 C1770 1.368 . S
C1767 C1748 1.429 . S
C1767 C1761 1.429 . S
C1767 C1768 1.523 . S
C1768 C1749 1.368 . S
C1768 C1762 1.368 . S
C1768 C1767 1.523 . S
C1769 C1753 1.429 . S
C1769 C1765 1.429 . S
C1769 C1770 1.523 . S
C1770 C1754 1.368 . S
C1770 C1766 1.368 . S
C1770 C1769 1.523 . S
H1771 C1746 0.950 . S
H1772 C1748 0.950 . S
H1773 C1749 0.949 . S
H1774 C1751 0.950 . S
H1775 C1753 0.950 . S
C1776 C1777 1.349 . S
C1776 C1778 1.327 . S
C1776 H1801 0.950 . S
C1777 C1776 1.349 . S
C1777 C1793 1.349 . S
C1778 C1776 1.327 . S
C1778 C1797 1.429 . S
C1778 H1802 0.950 . S
C1779 C1796 1.574 . S
C1779 C1798 1.368 . S
C1779 H1803 0.949 . S
H1780 C1784 0.949 . S
C1781 C1782 1.349 . S
C1781 C1783 1.327 . S
C1781 H1804 0.950 . S
C1782 C1781 1.349 . S
C1782 C1794 1.349 . S
C1783 C1781 1.327 . S
C1783 C1799 1.429 . S
C1783 H1805 0.950 . S
C1784 H1780 0.949 . S
C1784 C1792 1.574 . S
C1784 C1800 1.368 . S
H1785 C1793 0.950 . S
H1786 C1791 0.950 . S
H1787 C1792 0.949 . S
H1788 C1794 0.950 . S
H1789 C1795 0.950 . S
H1790 C1796 0.949 . S
C1791 H1786 0.950 . S
C1791 C1793 1.327 . S
C1791 C1797 1.429 . S
C1792 C1784 1.574 . S
C1792 H1787 0.949 . S
C1792 C1798 1.368 . S
C1793 C1777 1.349 . S
C1793 H1785 0.950 . S
C1793 C1791 1.327 . S
C1794 C1782 1.349 . S
C1794 H1788 0.950 . S
C1794 C1795 1.327 . S
C1795 H1789 0.950 . S
C1795 C1794 1.327 . S
C1795 C1799 1.429 . S
C1796 C1779 1.574 . S
C1796 H1790 0.949 . S
C1796 C1800 1.368 . S
C1797 C1778 1.429 . S
C1797 C1791 1.429 . S
C1797 C1798 1.523 . S
C1798 C1779 1.368 . S
C1798 C1792 1.368 . S
C1798 C1797 1.523 . S
C1799 C1783 1.429 . S
C1799 C1795 1.429 . S
C1799 C1800 1.523 . S
C1800 C1784 1.368 . S
C1800 C1796 1.368 . S
C1800 C1799 1.523 . S
H1801 C1776 0.950 . S
H1802 C1778 0.950 . S
H1803 C1779 0.949 . S
H1804 C1781 0.950 . S
H1805 C1783 0.950 . S
C1806 C1807 1.349 . S
C1806 C1808 1.327 . S
C1806 H1831 0.950 . S
C1807 C1806 1.349 . S
C1807 C1823 1.349 . S
C1808 C1806 1.327 . S
C1808 C1827 1.429 . S
C1808 H1832 0.950 . S
C1809 C1826 1.574 . S
C1809 C1828 1.368 . S
C1809 H1833 0.949 . S
H1810 C1814 0.949 . S
C1811 C1812 1.349 . S
C1811 C1813 1.327 . S
C1811 H1834 0.950 . S
C1812 C1811 1.349 . S
C1812 C1824 1.349 . S
C1813 C1811 1.327 . S
C1813 C1829 1.429 . S
C1813 H1835 0.950 . S
C1814 H1810 0.949 . S
C1814 C1822 1.574 . S
C1814 C1830 1.368 . S
H1815 C1823 0.950 . S
H1816 C1821 0.950 . S
H1817 C1822 0.949 . S
H1818 C1824 0.950 . S
H1819 C1825 0.950 . S
H1820 C1826 0.949 . S
C1821 H1816 0.950 . S
C1821 C1823 1.327 . S
C1821 C1827 1.429 . S
C1822 C1814 1.574 . S
C1822 H1817 0.949 . S
C1822 C1828 1.368 . S
C1823 C1807 1.349 . S
C1823 H1815 0.950 . S
C1823 C1821 1.327 . S
C1824 C1812 1.349 . S
C1824 H1818 0.950 . S
C1824 C1825 1.327 . S
C1825 H1819 0.950 . S
C1825 C1824 1.327 . S
C1825 C1829 1.429 . S
C1826 C1809 1.574 . S
C1826 H1820 0.949 . S
C1826 C1830 1.368 . S
C1827 C1808 1.429 . S
C1827 C1821 1.429 . S
C1827 C1828 1.523 . S
C1828 C1809 1.368 . S
C1828 C1822 1.368 . S
C1828 C1827 1.523 . S
C1829 C1813 1.429 . S
C1829 C1825 1.429 . S
C1829 C1830 1.523 . S
C1830 C1814 1.368 . S
C1830 C1826 1.368 . S
C1830 C1829 1.523 . S
H1831 C1806 0.950 . S
H1832 C1808 0.950 . S
H1833 C1809 0.949 . S
H1834 C1811 0.950 . S
H1835 C1813 0.950 . S
C1836 C1837 1.349 . S
C1836 C1838 1.327 . S
C1836 H1861 0.950 . S
C1837 C1836 1.349 . S
C1837 C1853 1.349 . S
C1838 C1836 1.327 . S
C1838 C1857 1.429 . S
C1838 H1862 0.950 . S
C1839 C1856 1.574 . S
C1839 C1858 1.368 . S
C1839 H1863 0.949 . S
H1840 C1844 0.949 . S
C1841 C1842 1.349 . S
C1841 C1843 1.327 . S
C1841 H1864 0.950 . S
C1842 C1841 1.349 . S
C1842 C1854 1.349 . S
C1843 C1841 1.327 . S
C1843 C1859 1.429 . S
C1843 H1865 0.950 . S
C1844 H1840 0.949 . S
C1844 C1852 1.574 . S
C1844 C1860 1.368 . S
H1845 C1853 0.950 . S
H1846 C1851 0.950 . S
H1847 C1852 0.949 . S
H1848 C1854 0.950 . S
H1849 C1855 0.950 . S
H1850 C1856 0.949 . S
C1851 H1846 0.950 . S
C1851 C1853 1.327 . S
C1851 C1857 1.429 . S
C1852 C1844 1.574 . S
C1852 H1847 0.949 . S
C1852 C1858 1.368 . S
C1853 C1837 1.349 . S
C1853 H1845 0.950 . S
C1853 C1851 1.327 . S
C1854 C1842 1.349 . S
C1854 H1848 0.950 . S
C1854 C1855 1.327 . S
C1855 H1849 0.950 . S
C1855 C1854 1.327 . S
C1855 C1859 1.429 . S
C1856 C1839 1.574 . S
C1856 H1850 0.949 . S
C1856 C1860 1.368 . S
C1857 C1838 1.429 . S
C1857 C1851 1.429 . S
C1857 C1858 1.523 . S
C1858 C1839 1.368 . S
C1858 C1852 1.368 . S
C1858 C1857 1.523 . S
C1859 C1843 1.429 . S
C1859 C1855 1.429 . S
C1859 C1860 1.523 . S
C1860 C1844 1.368 . S
C1860 C1856 1.368 . S
C1860 C1859 1.523 . S
H1861 C1836 0.950 . S
H1862 C1838 0.950 . S
H1863 C1839 0.949 . S
H1864 C1841 0.950 . S
H1865 C1843 0.950 . S
C1866 C1867 1.349 . S
C1866 C1868 1.327 . S
C1866 H1891 0.950 . S
C1867 C1866 1.349 . S
C1867 C1883 1.349 . S
C1868 C1866 1.327 . S
C1868 C1887 1.429 . S
C1868 H1892 0.950 . S
C1869 C1886 1.574 . S
C1869 C1888 1.368 . S
C1869 H1893 0.949 . S
H1870 C1874 0.949 . S
C1871 C1872 1.349 . S
C1871 C1873 1.327 . S
C1871 H1894 0.950 . S
C1872 C1871 1.349 . S
C1872 C1884 1.349 . S
C1873 C1871 1.327 . S
C1873 C1889 1.429 . S
C1873 H1895 0.950 . S
C1874 H1870 0.949 . S
C1874 C1882 1.574 . S
C1874 C1890 1.368 . S
H1875 C1883 0.950 . S
H1876 C1881 0.950 . S
H1877 C1882 0.949 . S
H1878 C1884 0.950 . S
H1879 C1885 0.950 . S
H1880 C1886 0.949 . S
C1881 H1876 0.950 . S
C1881 C1883 1.327 . S
C1881 C1887 1.429 . S
C1882 C1874 1.574 . S
C1882 H1877 0.949 . S
C1882 C1888 1.368 . S
C1883 C1867 1.349 . S
C1883 H1875 0.950 . S
C1883 C1881 1.327 . S
C1884 C1872 1.349 . S
C1884 H1878 0.950 . S
C1884 C1885 1.327 . S
C1885 H1879 0.950 . S
C1885 C1884 1.327 . S
C1885 C1889 1.429 . S
C1886 C1869 1.574 . S
C1886 H1880 0.949 . S
C1886 C1890 1.368 . S
C1887 C1868 1.429 . S
C1887 C1881 1.429 . S
C1887 C1888 1.523 . S
C1888 C1869 1.368 . S
C1888 C1882 1.368 . S
C1888 C1887 1.523 . S
C1889 C1873 1.429 . S
C1889 C1885 1.429 . S
C1889 C1890 1.523 . S
C1890 C1874 1.368 . S
C1890 C1886 1.368 . S
C1890 C1889 1.523 . S
H1891 C1866 0.950 . S
H1892 C1868 0.950 . S
H1893 C1869 0.949 . S
H1894 C1871 0.950 . S
H1895 C1873 0.950 . S
C1896 C1897 1.349 . S
C1896 C1898 1.327 . S
C1896 H1921 0.950 . S
C1897 C1896 1.349 . S
C1897 C1913 1.349 . S
C1898 C1896 1.327 . S
C1898 C1917 1.429 . S
C1898 H1922 0.950 . S
C1899 C1916 1.574 . S
C1899 C1918 1.368 . S
C1899 H1923 0.949 . S
H1900 C1904 0.949 . S
C1901 C1902 1.349 . S
C1901 C1903 1.327 . S
C1901 H1924 0.950 . S
C1902 C1901 1.349 . S
C1902 C1914 1.349 . S
C1903 C1901 1.327 . S
C1903 C1919 1.429 . S
C1903 H1925 0.950 . S
C1904 H1900 0.949 . S
C1904 C1912 1.574 . S
C1904 C1920 1.368 . S
H1905 C1913 0.950 . S
H1906 C1911 0.950 . S
H1907 C1912 0.949 . S
H1908 C1914 0.950 . S
H1909 C1915 0.950 . S
H1910 C1916 0.949 . S
C1911 H1906 0.950 . S
C1911 C1913 1.327 . S
C1911 C1917 1.429 . S
C1912 C1904 1.574 . S
C1912 H1907 0.949 . S
C1912 C1918 1.368 . S
C1913 C1897 1.349 . S
C1913 H1905 0.950 . S
C1913 C1911 1.327 . S
C1914 C1902 1.349 . S
C1914 H1908 0.950 . S
C1914 C1915 1.327 . S
C1915 H1909 0.950 . S
C1915 C1914 1.327 . S
C1915 C1919 1.429 . S
C1916 C1899 1.574 . S
C1916 H1910 0.949 . S
C1916 C1920 1.368 . S
C1917 C1898 1.429 . S
C1917 C1911 1.429 . S
C1917 C1918 1.523 . S
C1918 C1899 1.368 . S
C1918 C1912 1.368 . S
C1918 C1917 1.523 . S
C1919 C1903 1.429 . S
C1919 C1915 1.429 . S
C1919 C1920 1.523 . S
C1920 C1904 1.368 . S
C1920 C1916 1.368 . S
C1920 C1919 1.523 . S
H1921 C1896 0.950 . S
H1922 C1898 0.950 . S
H1923 C1899 0.949 . S
H1924 C1901 0.950 . S
H1925 C1903 0.950 . S
C1926 C1927 1.349 . S
C1926 C1928 1.327 . S
C1926 H1951 0.950 . S
C1927 C1926 1.349 . S
C1927 C1943 1.349 . S
C1928 C1926 1.327 . S
C1928 C1947 1.429 . S
C1928 H1952 0.950 . S
C1929 C1946 1.574 . S
C1929 C1948 1.368 . S
C1929 H1953 0.949 . S
H1930 C1934 0.949 . S
C1931 C1932 1.349 . S
C1931 C1933 1.327 . S
C1931 H1954 0.950 . S
C1932 C1931 1.349 . S
C1932 C1944 1.349 . S
C1933 C1931 1.327 . S
C1933 C1949 1.429 . S
C1933 H1955 0.950 . S
C1934 H1930 0.949 . S
C1934 C1942 1.574 . S
C1934 C1950 1.368 . S
H1935 C1943 0.950 . S
H1936 C1941 0.950 . S
H1937 C1942 0.949 . S
H1938 C1944 0.950 . S
H1939 C1945 0.950 . S
H1940 C1946 0.949 . S
C1941 H1936 0.950 . S
C1941 C1943 1.327 . S
C1941 C1947 1.429 . S
C1942 C1934 1.574 . S
C1942 H1937 0.949 . S
C1942 C1948 1.368 . S
C1943 C1927 1.349 . S
C1943 H1935 0.950 . S
C1943 C1941 1.327 . S
C1944 C1932 1.349 . S
C1944 H1938 0.950 . S
C1944 C1945 1.327 . S
C1945 H1939 0.950 . S
C1945 C1944 1.327 . S
C1945 C1949 1.429 . S
C1946 C1929 1.574 . S
C1946 H1940 0.949 . S
C1946 C1950 1.368 . S
C1947 C1928 1.429 . S
C1947 C1941 1.429 . S
C1947 C1948 1.523 . S
C1948 C1929 1.368 . S
C1948 C1942 1.368 . S
C1948 C1947 1.523 . S
C1949 C1933 1.429 . S
C1949 C1945 1.429 . S
C1949 C1950 1.523 . S
C1950 C1934 1.368 . S
C1950 C1946 1.368 . S
C1950 C1949 1.523 . S
H1951 C1926 0.950 . S
H1952 C1928 0.950 . S
H1953 C1929 0.949 . S
H1954 C1931 0.950 . S
H1955 C1933 0.950 . S
C1956 C1957 1.349 . S
C1956 C1958 1.327 . S
C1956 H1981 0.950 . S
C1957 C1956 1.349 . S
C1957 C1973 1.349 . S
C1958 C1956 1.327 . S
C1958 C1977 1.429 . S
C1958 H1982 0.950 . S
C1959 C1976 1.574 . S
C1959 C1978 1.368 . S
C1959 H1983 0.949 . S
H1960 C1964 0.949 . S
C1961 C1962 1.349 . S
C1961 C1963 1.327 . S
C1961 H1984 0.950 . S
C1962 C1961 1.349 . S
C1962 C1974 1.349 . S
C1963 C1961 1.327 . S
C1963 C1979 1.429 . S
C1963 H1985 0.950 . S
C1964 H1960 0.949 . S
C1964 C1972 1.574 . S
C1964 C1980 1.368 . S
H1965 C1973 0.950 . S
H1966 C1971 0.950 . S
H1967 C1972 0.949 . S
H1968 C1974 0.950 . S
H1969 C1975 0.950 . S
H1970 C1976 0.949 . S
C1971 H1966 0.950 . S
C1971 C1973 1.327 . S
C1971 C1977 1.429 . S
C1972 C1964 1.574 . S
C1972 H1967 0.949 . S
C1972 C1978 1.368 . S
C1973 C1957 1.349 . S
C1973 H1965 0.950 . S
C1973 C1971 1.327 . S
C1974 C1962 1.349 . S
C1974 H1968 0.950 . S
C1974 C1975 1.327 . S
C1975 H1969 0.950 . S
C1975 C1974 1.327 . S
C1975 C1979 1.429 . S
C1976 C1959 1.574 . S
C1976 H1970 0.949 . S
C1976 C1980 1.368 . S
C1977 C1958 1.429 . S
C1977 C1971 1.429 . S
C1977 C1978 1.523 . S
C1978 C1959 1.368 . S
C1978 C1972 1.368 . S
C1978 C1977 1.523 . S
C1979 C1963 1.429 . S
C1979 C1975 1.429 . S
C1979 C1980 1.523 . S
C1980 C1964 1.368 . S
C1980 C1976 1.368 . S
C1980 C1979 1.523 . S
H1981 C1956 0.950 . S
H1982 C1958 0.950 . S
H1983 C1959 0.949 . S
H1984 C1961 0.950 . S
H1985 C1963 0.950 . S
C1986 C1987 1.349 . S
C1986 C1988 1.327 . S
C1986 H2011 0.950 . S
C1987 C1986 1.349 . S
C1987 C2003 1.349 . S
C1988 C1986 1.327 . S
C1988 C2007 1.429 . S
C1988 H2012 0.950 . S
C1989 C2006 1.574 . S
C1989 C2008 1.368 . S
C1989 H2013 0.949 . S
H1990 C1994 0.949 . S
C1991 C1992 1.349 . S
C1991 C1993 1.327 . S
C1991 H2014 0.950 . S
C1992 C1991 1.349 . S
C1992 C2004 1.349 . S
C1993 C1991 1.327 . S
C1993 C2009 1.429 . S
C1993 H2015 0.950 . S
C1994 H1990 0.949 . S
C1994 C2002 1.574 . S
C1994 C2010 1.368 . S
H1995 C2003 0.950 . S
H1996 C2001 0.950 . S
H1997 C2002 0.949 . S
H1998 C2004 0.950 . S
H1999 C2005 0.950 . S
H2000 C2006 0.949 . S
C2001 H1996 0.950 . S
C2001 C2003 1.327 . S
C2001 C2007 1.429 . S
C2002 C1994 1.574 . S
C2002 H1997 0.949 . S
C2002 C2008 1.368 . S
C2003 C1987 1.349 . S
C2003 H1995 0.950 . S
C2003 C2001 1.327 . S
C2004 C1992 1.349 . S
C2004 H1998 0.950 . S
C2004 C2005 1.327 . S
C2005 H1999 0.950 . S
C2005 C2004 1.327 . S
C2005 C2009 1.429 . S
C2006 C1989 1.574 . S
C2006 H2000 0.949 . S
C2006 C2010 1.368 . S
C2007 C1988 1.429 . S
C2007 C2001 1.429 . S
C2007 C2008 1.523 . S
C2008 C1989 1.368 . S
C2008 C2002 1.368 . S
C2008 C2007 1.523 . S
C2009 C1993 1.429 . S
C2009 C2005 1.429 . S
C2009 C2010 1.523 . S
C2010 C1994 1.368 . S
C2010 C2006 1.368 . S
C2010 C2009 1.523 . S
H2011 C1986 0.950 . S
H2012 C1988 0.950 . S
H2013 C1989 0.949 . S
H2014 C1991 0.950 . S
H2015 C1993 0.950 . S
C2016 C2017 1.349 . S
C2016 C2018 1.327 . S
C2016 H2041 0.950 . S
C2017 C2016 1.349 . S
C2017 C2033 1.349 . S
C2018 C2016 1.327 . S
C2018 C2037 1.429 . S
C2018 H2042 0.950 . S
C2019 C2036 1.574 . S
C2019 C2038 1.368 . S
C2019 H2043 0.949 . S
H2020 C2024 0.949 . S
C2021 C2022 1.349 . S
C2021 C2023 1.327 . S
C2021 H2044 0.950 . S
C2022 C2021 1.349 . S
C2022 C2034 1.349 . S
C2023 C2021 1.327 . S
C2023 C2039 1.429 . S
C2023 H2045 0.950 . S
C2024 H2020 0.949 . S
C2024 C2032 1.574 . S
C2024 C2040 1.368 . S
H2025 C2033 0.950 . S
H2026 C2031 0.950 . S
H2027 C2032 0.949 . S
H2028 C2034 0.950 . S
H2029 C2035 0.950 . S
H2030 C2036 0.949 . S
C2031 H2026 0.950 . S
C2031 C2033 1.327 . S
C2031 C2037 1.429 . S
C2032 C2024 1.574 . S
C2032 H2027 0.949 . S
C2032 C2038 1.368 . S
C2033 C2017 1.349 . S
C2033 H2025 0.950 . S
C2033 C2031 1.327 . S
C2034 C2022 1.349 . S
C2034 H2028 0.950 . S
C2034 C2035 1.327 . S
C2035 H2029 0.950 . S
C2035 C2034 1.327 . S
C2035 C2039 1.429 . S
C2036 C2019 1.574 . S
C2036 H2030 0.949 . S
C2036 C2040 1.368 . S
C2037 C2018 1.429 . S
C2037 C2031 1.429 . S
C2037 C2038 1.523 . S
C2038 C2019 1.368 . S
C2038 C2032 1.368 . S
C2038 C2037 1.523 . S
C2039 C2023 1.429 . S
C2039 C2035 1.429 . S
C2039 C2040 1.523 . S
C2040 C2024 1.368 . S
C2040 C2036 1.368 . S
C2040 C2039 1.523 . S
H2041 C2016 0.950 . S
H2042 C2018 0.950 . S
H2043 C2019 0.949 . S
H2044 C2021 0.950 . S
H2045 C2023 0.950 . S
C2046 C2047 1.349 . S
C2046 C2048 1.327 . S
C2046 H2071 0.950 . S
C2047 C2046 1.349 . S
C2047 C2063 1.349 . S
C2048 C2046 1.327 . S
C2048 C2067 1.429 . S
C2048 H2072 0.950 . S
C2049 C2066 1.574 . S
C2049 C2068 1.368 . S
C2049 H2073 0.949 . S
H2050 C2054 0.949 . S
C2051 C2052 1.349 . S
C2051 C2053 1.327 . S
C2051 H2074 0.950 . S
C2052 C2051 1.349 . S
C2052 C2064 1.349 . S
C2053 C2051 1.327 . S
C2053 C2069 1.429 . S
C2053 H2075 0.950 . S
C2054 H2050 0.949 . S
C2054 C2062 1.574 . S
C2054 C2070 1.368 . S
H2055 C2063 0.950 . S
H2056 C2061 0.950 . S
H2057 C2062 0.949 . S
H2058 C2064 0.950 . S
H2059 C2065 0.950 . S
H2060 C2066 0.949 . S
C2061 H2056 0.950 . S
C2061 C2063 1.327 . S
C2061 C2067 1.429 . S
C2062 C2054 1.574 . S
C2062 H2057 0.949 . S
C2062 C2068 1.368 . S
C2063 C2047 1.349 . S
C2063 H2055 0.950 . S
C2063 C2061 1.327 . S
C2064 C2052 1.349 . S
C2064 H2058 0.950 . S
C2064 C2065 1.327 . S
C2065 H2059 0.950 . S
C2065 C2064 1.327 . S
C2065 C2069 1.429 . S
C2066 C2049 1.574 . S
C2066 H2060 0.949 . S
C2066 C2070 1.368 . S
C2067 C2048 1.429 . S
C2067 C2061 1.429 . S
C2067 C2068 1.523 . S
C2068 C2049 1.368 . S
C2068 C2062 1.368 . S
C2068 C2067 1.523 . S
C2069 C2053 1.429 . S
C2069 C2065 1.429 . S
C2069 C2070 1.523 . S
C2070 C2054 1.368 . S
C2070 C2066 1.368 . S
C2070 C2069 1.523 . S
H2071 C2046 0.950 . S
H2072 C2048 0.950 . S
H2073 C2049 0.949 . S
H2074 C2051 0.950 . S
H2075 C2053 0.950 . S
C2076 C2077 1.349 . S
C2076 C2078 1.327 . S
C2076 H2101 0.950 . S
C2077 C2076 1.349 . S
C2077 C2093 1.349 . S
C2078 C2076 1.327 . S
C2078 C2097 1.429 . S
C2078 H2102 0.950 . S
C2079 C2096 1.574 . S
C2079 C2098 1.368 . S
C2079 H2103 0.949 . S
H2080 C2084 0.949 . S
C2081 C2082 1.349 . S
C2081 C2083 1.327 . S
C2081 H2104 0.950 . S
C2082 C2081 1.349 . S
C2082 C2094 1.349 . S
C2083 C2081 1.327 . S
C2083 C2099 1.429 . S
C2083 H2105 0.950 . S
C2084 H2080 0.949 . S
C2084 C2092 1.574 . S
C2084 C2100 1.368 . S
H2085 C2093 0.950 . S
H2086 C2091 0.950 . S
H2087 C2092 0.949 . S
H2088 C2094 0.950 . S
H2089 C2095 0.950 . S
H2090 C2096 0.949 . S
C2091 H2086 0.950 . S
C2091 C2093 1.327 . S
C2091 C2097 1.429 . S
C2092 C2084 1.574 . S
C2092 H2087 0.949 . S
C2092 C2098 1.368 . S
C2093 C2077 1.349 . S
C2093 H2085 0.950 . S
C2093 C2091 1.327 . S
C2094 C2082 1.349 . S
C2094 H2088 0.950 . S
C2094 C2095 1.327 . S
C2095 H2089 0.950 . S
C2095 C2094 1.327 . S
C2095 C2099 1.429 . S
C2096 C2079 1.574 . S
C2096 H2090 0.949 . S
C2096 C2100 1.368 . S
C2097 C2078 1.429 . S
C2097 C2091 1.429 . S
C2097 C2098 1.523 . S
C2098 C2079 1.368 . S
C2098 C2092 1.368 . S
C2098 C2097 1.523 . S
C2099 C2083 1.429 . S
C2099 C2095 1.429 . S
C2099 C2100 1.523 . S
C2100 C2084 1.368 . S
C2100 C2096 1.368 . S
C2100 C2099 1.523 . S
H2101 C2076 0.950 . S
H2102 C2078 0.950 . S
H2103 C2079 0.949 . S
H2104 C2081 0.950 . S
H2105 C2083 0.950 . S
C2106 C2107 1.349 . S
C2106 C2108 1.327 . S
C2106 H2131 0.950 . S
C2107 C2106 1.349 . S
C2107 C2123 1.349 . S
C2108 C2106 1.327 . S
C2108 C2127 1.429 . S
C2108 H2132 0.950 . S
C2109 C2126 1.574 . S
C2109 C2128 1.368 . S
C2109 H2133 0.949 . S
H2110 C2114 0.949 . S
C2111 C2112 1.349 . S
C2111 C2113 1.327 . S
C2111 H2134 0.950 . S
C2112 C2111 1.349 . S
C2112 C2124 1.349 . S
C2113 C2111 1.327 . S
C2113 C2129 1.429 . S
C2113 H2135 0.950 . S
C2114 H2110 0.949 . S
C2114 C2122 1.574 . S
C2114 C2130 1.368 . S
H2115 C2123 0.950 . S
H2116 C2121 0.950 . S
H2117 C2122 0.949 . S
H2118 C2124 0.950 . S
H2119 C2125 0.950 . S
H2120 C2126 0.949 . S
C2121 H2116 0.950 . S
C2121 C2123 1.327 . S
C2121 C2127 1.429 . S
C2122 C2114 1.574 . S
C2122 H2117 0.949 . S
C2122 C2128 1.368 . S
C2123 C2107 1.349 . S
C2123 H2115 0.950 . S
C2123 C2121 1.327 . S
C2124 C2112 1.349 . S
C2124 H2118 0.950 . S
C2124 C2125 1.327 . S
C2125 H2119 0.950 . S
C2125 C2124 1.327 . S
C2125 C2129 1.429 . S
C2126 C2109 1.574 . S
C2126 H2120 0.949 . S
C2126 C2130 1.368 . S
C2127 C2108 1.429 . S
C2127 C2121 1.429 . S
C2127 C2128 1.523 . S
C2128 C2109 1.368 . S
C2128 C2122 1.368 . S
C2128 C2127 1.523 . S
C2129 C2113 1.429 . S
C2129 C2125 1.429 . S
C2129 C2130 1.523 . S
C2130 C2114 1.368 . S
C2130 C2126 1.368 . S
C2130 C2129 1.523 . S
H2131 C2106 0.950 . S
H2132 C2108 0.950 . S
H2133 C2109 0.949 . S
H2134 C2111 0.950 . S
H2135 C2113 0.950 . S
C2136 C2137 1.349 . S
C2136 C2138 1.327 . S
C2136 H2161 0.950 . S
C2137 C2136 1.349 . S
C2137 C2153 1.349 . S
C2138 C2136 1.327 . S
C2138 C2157 1.429 . S
C2138 H2162 0.950 . S
C2139 C2156 1.574 . S
C2139 C2158 1.368 . S
C2139 H2163 0.949 . S
H2140 C2144 0.949 . S
C2141 C2142 1.349 . S
C2141 C2143 1.327 . S
C2141 H2164 0.950 . S
C2142 C2141 1.349 . S
C2142 C2154 1.349 . S
C2143 C2141 1.327 . S
C2143 C2159 1.429 . S
C2143 H2165 0.950 . S
C2144 H2140 0.949 . S
C2144 C2152 1.574 . S
C2144 C2160 1.368 . S
H2145 C2153 0.950 . S
H2146 C2151 0.950 . S
H2147 C2152 0.949 . S
H2148 C2154 0.950 . S
H2149 C2155 0.950 . S
H2150 C2156 0.949 . S
C2151 H2146 0.950 . S
C2151 C2153 1.327 . S
C2151 C2157 1.429 . S
C2152 C2144 1.574 . S
C2152 H2147 0.949 . S
C2152 C2158 1.368 . S
C2153 C2137 1.349 . S
C2153 H2145 0.950 . S
C2153 C2151 1.327 . S
C2154 C2142 1.349 . S
C2154 H2148 0.950 . S
C2154 C2155 1.327 . S
C2155 H2149 0.950 . S
C2155 C2154 1.327 . S
C2155 C2159 1.429 . S
C2156 C2139 1.574 . S
C2156 H2150 0.949 . S
C2156 C2160 1.368 . S
C2157 C2138 1.429 . S
C2157 C2151 1.429 . S
C2157 C2158 1.523 . S
C2158 C2139 1.368 . S
C2158 C2152 1.368 . S
C2158 C2157 1.523 . S
C2159 C2143 1.429 . S
C2159 C2155 1.429 . S
C2159 C2160 1.523 . S
C2160 C2144 1.368 . S
C2160 C2156 1.368 . S
C2160 C2159 1.523 . S
H2161 C2136 0.950 . S
H2162 C2138 0.950 . S
H2163 C2139 0.949 . S
H2164 C2141 0.950 . S
H2165 C2143 0.950 . S
C2166 C2167 1.349 . S
C2166 C2168 1.327 . S
C2166 H2191 0.950 . S
C2167 C2166 1.349 . S
C2167 C2183 1.349 . S
C2168 C2166 1.327 . S
C2168 C2187 1.429 . S
C2168 H2192 0.950 . S
C2169 C2186 1.574 . S
C2169 C2188 1.368 . S
C2169 H2193 0.949 . S
H2170 C2174 0.949 . S
C2171 C2172 1.349 . S
C2171 C2173 1.327 . S
C2171 H2194 0.950 . S
C2172 C2171 1.349 . S
C2172 C2184 1.349 . S
C2173 C2171 1.327 . S
C2173 C2189 1.429 . S
C2173 H2195 0.950 . S
C2174 H2170 0.949 . S
C2174 C2182 1.574 . S
C2174 C2190 1.368 . S
H2175 C2183 0.950 . S
H2176 C2181 0.950 . S
H2177 C2182 0.949 . S
H2178 C2184 0.950 . S
H2179 C2185 0.950 . S
H2180 C2186 0.949 . S
C2181 H2176 0.950 . S
C2181 C2183 1.327 . S
C2181 C2187 1.429 . S
C2182 C2174 1.574 . S
C2182 H2177 0.949 . S
C2182 C2188 1.368 . S
C2183 C2167 1.349 . S
C2183 H2175 0.950 . S
C2183 C2181 1.327 . S
C2184 C2172 1.349 . S
C2184 H2178 0.950 . S
C2184 C2185 1.327 . S
C2185 H2179 0.950 . S
C2185 C2184 1.327 . S
C2185 C2189 1.429 . S
C2186 C2169 1.574 . S
C2186 H2180 0.949 . S
C2186 C2190 1.368 . S
C2187 C2168 1.429 . S
C2187 C2181 1.429 . S
C2187 C2188 1.523 . S
C2188 C2169 1.368 . S
C2188 C2182 1.368 . S
C2188 C2187 1.523 . S
C2189 C2173 1.429 . S
C2189 C2185 1.429 . S
C2189 C2190 1.523 . S
C2190 C2174 1.368 . S
C2190 C2186 1.368 . S
C2190 C2189 1.523 . S
H2191 C2166 0.950 . S
H2192 C2168 0.950 . S
H2193 C2169 0.949 . S
H2194 C2171 0.950 . S
H2195 C2173 0.950 . S
C2196 C2197 1.349 . S
C2196 C2198 1.327 . S
C2196 H2221 0.950 . S
C2197 C2196 1.349 . S
C2197 C2213 1.349 . S
C2198 C2196 1.327 . S
C2198 C2217 1.429 . S
C2198 H2222 0.950 . S
C2199 C2216 1.574 . S
C2199 C2218 1.368 . S
C2199 H2223 0.949 . S
H2200 C2204 0.949 . S
C2201 C2202 1.349 . S
C2201 C2203 1.327 . S
C2201 H2224 0.950 . S
C2202 C2201 1.349 . S
C2202 C2214 1.349 . S
C2203 C2201 1.327 . S
C2203 C2219 1.429 . S
C2203 H2225 0.950 . S
C2204 H2200 0.949 . S
C2204 C2212 1.574 . S
C2204 C2220 1.368 . S
H2205 C2213 0.950 . S
H2206 C2211 0.950 . S
H2207 C2212 0.949 . S
H2208 C2214 0.950 . S
H2209 C2215 0.950 . S
H2210 C2216 0.949 . S
C2211 H2206 0.950 . S
C2211 C2213 1.327 . S
C2211 C2217 1.429 . S
C2212 C2204 1.574 . S
C2212 H2207 0.949 . S
C2212 C2218 1.368 . S
C2213 C2197 1.349 . S
C2213 H2205 0.950 . S
C2213 C2211 1.327 . S
C2214 C2202 1.349 . S
C2214 H2208 0.950 . S
C2214 C2215 1.327 . S
C2215 H2209 0.950 . S
C2215 C2214 1.327 . S
C2215 C2219 1.429 . S
C2216 C2199 1.574 . S
C2216 H2210 0.949 . S
C2216 C2220 1.368 . S
C2217 C2198 1.429 . S
C2217 C2211 1.429 . S
C2217 C2218 1.523 . S
C2218 C2199 1.368 . S
C2218 C2212 1.368 . S
C2218 C2217 1.523 . S
C2219 C2203 1.429 . S
C2219 C2215 1.429 . S
C2219 C2220 1.523 . S
C2220 C2204 1.368 . S
C2220 C2216 1.368 . S
C2220 C2219 1.523 . S
H2221 C2196 0.950 . S
H2222 C2198 0.950 . S
H2223 C2199 0.949 . S
H2224 C2201 0.950 . S
H2225 C2203 0.950 . S
C2226 C2227 1.349 . S
C2226 C2228 1.327 . S
C2226 H2251 0.950 . S
C2227 C2226 1.349 . S
C2227 C2243 1.349 . S
C2228 C2226 1.327 . S
C2228 C2247 1.429 . S
C2228 H2252 0.950 . S
C2229 C2246 1.574 . S
C2229 C2248 1.368 . S
C2229 H2253 0.949 . S
H2230 C2234 0.949 . S
C2231 C2232 1.349 . S
C2231 C2233 1.327 . S
C2231 H2254 0.950 . S
C2232 C2231 1.349 . S
C2232 C2244 1.349 . S
C2233 C2231 1.327 . S
C2233 C2249 1.429 . S
C2233 H2255 0.950 . S
C2234 H2230 0.949 . S
C2234 C2242 1.574 . S
C2234 C2250 1.368 . S
H2235 C2243 0.950 . S
H2236 C2241 0.950 . S
H2237 C2242 0.949 . S
H2238 C2244 0.950 . S
H2239 C2245 0.950 . S
H2240 C2246 0.949 . S
C2241 H2236 0.950 . S
C2241 C2243 1.327 . S
C2241 C2247 1.429 . S
C2242 C2234 1.574 . S
C2242 H2237 0.949 . S
C2242 C2248 1.368 . S
C2243 C2227 1.349 . S
C2243 H2235 0.950 . S
C2243 C2241 1.327 . S
C2244 C2232 1.349 . S
C2244 H2238 0.950 . S
C2244 C2245 1.327 . S
C2245 H2239 0.950 . S
C2245 C2244 1.327 . S
C2245 C2249 1.429 . S
C2246 C2229 1.574 . S
C2246 H2240 0.949 . S
C2246 C2250 1.368 . S
C2247 C2228 1.429 . S
C2247 C2241 1.429 . S
C2247 C2248 1.523 . S
C2248 C2229 1.368 . S
C2248 C2242 1.368 . S
C2248 C2247 1.523 . S
C2249 C2233 1.429 . S
C2249 C2245 1.429 . S
C2249 C2250 1.523 . S
C2250 C2234 1.368 . S
C2250 C2246 1.368 . S
C2250 C2249 1.523 . S
H2251 C2226 0.950 . S
H2252 C2228 0.950 . S
H2253 C2229 0.949 . S
H2254 C2231 0.950 . S
H2255 C2233 0.950 . S
C2256 C2257 1.349 . S
C2256 C2258 1.327 . S
C2256 H2281 0.950 . S
C2257 C2256 1.349 . S
C2257 C2273 1.349 . S
C2258 C2256 1.327 . S
C2258 C2277 1.429 . S
C2258 H2282 0.950 . S
C2259 C2276 1.574 . S
C2259 C2278 1.368 . S
C2259 H2283 0.949 . S
H2260 C2264 0.949 . S
C2261 C2262 1.349 . S
C2261 C2263 1.327 . S
C2261 H2284 0.950 . S
C2262 C2261 1.349 . S
C2262 C2274 1.349 . S
C2263 C2261 1.327 . S
C2263 C2279 1.429 . S
C2263 H2285 0.950 . S
C2264 H2260 0.949 . S
C2264 C2272 1.574 . S
C2264 C2280 1.368 . S
H2265 C2273 0.950 . S
H2266 C2271 0.950 . S
H2267 C2272 0.949 . S
H2268 C2274 0.950 . S
H2269 C2275 0.950 . S
H2270 C2276 0.949 . S
C2271 H2266 0.950 . S
C2271 C2273 1.327 . S
C2271 C2277 1.429 . S
C2272 C2264 1.574 . S
C2272 H2267 0.949 . S
C2272 C2278 1.368 . S
C2273 C2257 1.349 . S
C2273 H2265 0.950 . S
C2273 C2271 1.327 . S
C2274 C2262 1.349 . S
C2274 H2268 0.950 . S
C2274 C2275 1.327 . S
C2275 H2269 0.950 . S
C2275 C2274 1.327 . S
C2275 C2279 1.429 . S
C2276 C2259 1.574 . S
C2276 H2270 0.949 . S
C2276 C2280 1.368 . S
C2277 C2258 1.429 . S
C2277 C2271 1.429 . S
C2277 C2278 1.523 . S
C2278 C2259 1.368 . S
C2278 C2272 1.368 . S
C2278 C2277 1.523 . S
C2279 C2263 1.429 . S
C2279 C2275 1.429 . S
C2279 C2280 1.523 . S
C2280 C2264 1.368 . S
C2280 C2276 1.368 . S
C2280 C2279 1.523 . S
H2281 C2256 0.950 . S
H2282 C2258 0.950 . S
H2283 C2259 0.949 . S
H2284 C2261 0.950 . S
H2285 C2263 0.950 . S
C2286 C2287 1.349 . S
C2286 C2288 1.327 . S
C2286 H2311 0.950 . S
C2287 C2286 1.349 . S
C2287 C2303 1.349 . S
C2288 C2286 1.327 . S
C2288 C2307 1.429 . S
C2288 H2312 0.950 . S
C2289 C2306 1.574 . S
C2289 C2308 1.368 . S
C2289 H2313 0.949 . S
H2290 C2294 0.949 . S
C2291 C2292 1.349 . S
C2291 C2293 1.327 . S
C2291 H2314 0.950 . S
C2292 C2291 1.349 . S
C2292 C2304 1.349 . S
C2293 C2291 1.327 . S
C2293 C2309 1.429 . S
C2293 H2315 0.950 . S
C2294 H2290 0.949 . S
C2294 C2302 1.574 . S
C2294 C2310 1.368 . S
H2295 C2303 0.950 . S
H2296 C2301 0.950 . S
H2297 C2302 0.949 . S
H2298 C2304 0.950 . S
H2299 C2305 0.950 . S
H2300 C2306 0.949 . S
C2301 H2296 0.950 . S
C2301 C2303 1.327 . S
C2301 C2307 1.429 . S
C2302 C2294 1.574 . S
C2302 H2297 0.949 . S
C2302 C2308 1.368 . S
C2303 C2287 1.349 . S
C2303 H2295 0.950 . S
C2303 C2301 1.327 . S
C2304 C2292 1.349 . S
C2304 H2298 0.950 . S
C2304 C2305 1.327 . S
C2305 H2299 0.950 . S
C2305 C2304 1.327 . S
C2305 C2309 1.429 . S
C2306 C2289 1.574 . S
C2306 H2300 0.949 . S
C2306 C2310 1.368 . S
C2307 C2288 1.429 . S
C2307 C2301 1.429 . S
C2307 C2308 1.523 . S
C2308 C2289 1.368 . S
C2308 C2302 1.368 . S
C2308 C2307 1.523 . S
C2309 C2293 1.429 . S
C2309 C2305 1.429 . S
C2309 C2310 1.523 . S
C2310 C2294 1.368 . S
C2310 C2306 1.368 . S
C2310 C2309 1.523 . S
H2311 C2286 0.950 . S
H2312 C2288 0.950 . S
H2313 C2289 0.949 . S
H2314 C2291 0.950 . S
H2315 C2293 0.950 . S
C2316 C2317 1.349 . S
C2316 C2318 1.327 . S
C2316 H2341 0.950 1_556 S
C2317 C2316 1.349 . S
C2317 C2333 1.349 . S
C2318 C2316 1.327 . S
C2318 C2337 1.429 . S
C2318 H2342 0.950 . S
C2319 C2336 1.574 . S
C2319 C2338 1.368 . S
C2319 H2343 0.949 . S
H2320 C2324 0.949 . S
C2321 C2322 1.349 . S
C2321 C2323 1.327 . S
C2321 H2344 0.950 . S
C2322 C2321 1.349 . S
C2322 C2334 1.349 . S
C2323 C2321 1.327 . S
C2323 C2339 1.429 . S
C2323 H2345 0.950 . S
C2324 H2320 0.949 . S
C2324 C2332 1.574 . S
C2324 C2340 1.368 . S
H2325 C2333 0.950 . S
H2326 C2331 0.950 . S
H2327 C2332 0.949 . S
H2328 C2334 0.950 . S
H2329 C2335 0.950 . S
H2330 C2336 0.949 . S
C2331 H2326 0.950 . S
C2331 C2333 1.327 . S
C2331 C2337 1.429 . S
C2332 C2324 1.574 . S
C2332 H2327 0.949 . S
C2332 C2338 1.368 . S
C2333 C2317 1.349 . S
C2333 H2325 0.950 . S
C2333 C2331 1.327 . S
C2334 C2322 1.349 . S
C2334 H2328 0.950 . S
C2334 C2335 1.327 . S
C2335 H2329 0.950 . S
C2335 C2334 1.327 . S
C2335 C2339 1.429 . S
C2336 C2319 1.574 . S
C2336 H2330 0.949 . S
C2336 C2340 1.368 . S
C2337 C2318 1.429 . S
C2337 C2331 1.429 . S
C2337 C2338 1.523 . S
C2338 C2319 1.368 . S
C2338 C2332 1.368 . S
C2338 C2337 1.523 . S
C2339 C2323 1.429 . S
C2339 C2335 1.429 . S
C2339 C2340 1.523 . S
C2340 C2324 1.368 . S
C2340 C2336 1.368 . S
C2340 C2339 1.523 . S
H2341 C2316 0.950 1_554 S
H2342 C2318 0.950 . S
H2343 C2319 0.949 . S
H2344 C2321 0.950 . S
H2345 C2323 0.950 . S
C2346 C2347 1.349 . S
C2346 C2348 1.327 . S
C2346 H2371 0.950 . S
C2347 C2346 1.349 . S
C2347 C2363 1.349 . S
C2348 C2346 1.327 . S
C2348 C2367 1.429 . S
C2348 H2372 0.950 . S
C2349 C2366 1.574 . S
C2349 C2368 1.368 . S
C2349 H2373 0.949 . S
H2350 C2354 0.949 . S
C2351 C2352 1.349 . S
C2351 C2353 1.327 . S
C2351 H2374 0.950 . S
C2352 C2351 1.349 . S
C2352 C2364 1.349 . S
C2353 C2351 1.327 . S
C2353 C2369 1.429 . S
C2353 H2375 0.950 . S
C2354 H2350 0.949 . S
C2354 C2362 1.574 . S
C2354 C2370 1.368 . S
H2355 C2363 0.950 . S
H2356 C2361 0.950 . S
H2357 C2362 0.949 . S
H2358 C2364 0.950 . S
H2359 C2365 0.950 . S
H2360 C2366 0.949 . S
C2361 H2356 0.950 . S
C2361 C2363 1.327 . S
C2361 C2367 1.429 . S
C2362 C2354 1.574 . S
C2362 H2357 0.949 . S
C2362 C2368 1.368 . S
C2363 C2347 1.349 . S
C2363 H2355 0.950 . S
C2363 C2361 1.327 . S
C2364 C2352 1.349 . S
C2364 H2358 0.950 . S
C2364 C2365 1.327 . S
C2365 H2359 0.950 . S
C2365 C2364 1.327 . S
C2365 C2369 1.429 . S
C2366 C2349 1.574 . S
C2366 H2360 0.949 . S
C2366 C2370 1.368 . S
C2367 C2348 1.429 . S
C2367 C2361 1.429 . S
C2367 C2368 1.523 . S
C2368 C2349 1.368 . S
C2368 C2362 1.368 . S
C2368 C2367 1.523 . S
C2369 C2353 1.429 . S
C2369 C2365 1.429 . S
C2369 C2370 1.523 . S
C2370 C2354 1.368 . S
C2370 C2366 1.368 . S
C2370 C2369 1.523 . S
H2371 C2346 0.950 . S
H2372 C2348 0.950 . S
H2373 C2349 0.949 . S
H2374 C2351 0.950 . S
H2375 C2353 0.950 . S
C2376 C2377 1.349 . S
C2376 C2378 1.327 . S
C2376 H2401 0.950 . S
C2377 C2376 1.349 . S
C2377 C2393 1.349 . S
C2378 C2376 1.327 . S
C2378 C2397 1.429 . S
C2378 H2402 0.950 . S
C2379 C2396 1.574 . S
C2379 C2398 1.368 . S
C2379 H2403 0.949 . S
H2380 C2384 0.949 . S
C2381 C2382 1.349 . S
C2381 C2383 1.327 . S
C2381 H2404 0.950 . S
C2382 C2381 1.349 . S
C2382 C2394 1.349 . S
C2383 C2381 1.327 . S
C2383 C2399 1.429 . S
C2383 H2405 0.950 . S
C2384 H2380 0.949 . S
C2384 C2392 1.574 . S
C2384 C2400 1.368 . S
H2385 C2393 0.950 . S
H2386 C2391 0.950 . S
H2387 C2392 0.949 . S
H2388 C2394 0.950 . S
H2389 C2395 0.950 . S
H2390 C2396 0.949 . S
C2391 H2386 0.950 . S
C2391 C2393 1.327 . S
C2391 C2397 1.429 . S
C2392 C2384 1.574 . S
C2392 H2387 0.949 . S
C2392 C2398 1.368 . S
C2393 C2377 1.349 . S
C2393 H2385 0.950 . S
C2393 C2391 1.327 . S
C2394 C2382 1.349 . S
C2394 H2388 0.950 . S
C2394 C2395 1.327 . S
C2395 H2389 0.950 . S
C2395 C2394 1.327 . S
C2395 C2399 1.429 . S
C2396 C2379 1.574 . S
C2396 H2390 0.949 . S
C2396 C2400 1.368 . S
C2397 C2378 1.429 . S
C2397 C2391 1.429 . S
C2397 C2398 1.523 . S
C2398 C2379 1.368 . S
C2398 C2392 1.368 . S
C2398 C2397 1.523 . S
C2399 C2383 1.429 . S
C2399 C2395 1.429 . S
C2399 C2400 1.523 . S
C2400 C2384 1.368 . S
C2400 C2396 1.368 . S
C2400 C2399 1.523 . S
H2401 C2376 0.950 . S
H2402 C2378 0.950 . S
H2403 C2379 0.949 . S
H2404 C2381 0.950 . S
H2405 C2383 0.950 . S
C2406 C2407 1.349 . S
C2406 C2408 1.327 . S
C2406 H2431 0.950 . S
C2407 C2406 1.349 . S
C2407 C2423 1.349 . S
C2408 C2406 1.327 . S
C2408 C2427 1.429 . S
C2408 H2432 0.950 . S
C2409 C2426 1.574 . S
C2409 C2428 1.368 . S
C2409 H2433 0.949 . S
H2410 C2414 0.949 . S
C2411 C2412 1.349 . S
C2411 C2413 1.327 . S
C2411 H2434 0.950 . S
C2412 C2411 1.349 . S
C2412 C2424 1.349 . S
C2413 C2411 1.327 . S
C2413 C2429 1.429 . S
C2413 H2435 0.950 . S
C2414 H2410 0.949 . S
C2414 C2422 1.574 . S
C2414 C2430 1.368 . S
H2415 C2423 0.950 . S
H2416 C2421 0.950 . S
H2417 C2422 0.949 . S
H2418 C2424 0.950 . S
H2419 C2425 0.950 . S
H2420 C2426 0.949 . S
C2421 H2416 0.950 . S
C2421 C2423 1.327 . S
C2421 C2427 1.429 . S
C2422 C2414 1.574 . S
C2422 H2417 0.949 . S
C2422 C2428 1.368 . S
C2423 C2407 1.349 . S
C2423 H2415 0.950 . S
C2423 C2421 1.327 . S
C2424 C2412 1.349 . S
C2424 H2418 0.950 . S
C2424 C2425 1.327 . S
C2425 H2419 0.950 . S
C2425 C2424 1.327 . S
C2425 C2429 1.429 . S
C2426 C2409 1.574 . S
C2426 H2420 0.949 . S
C2426 C2430 1.368 . S
C2427 C2408 1.429 . S
C2427 C2421 1.429 . S
C2427 C2428 1.523 . S
C2428 C2409 1.368 . S
C2428 C2422 1.368 . S
C2428 C2427 1.523 . S
C2429 C2413 1.429 . S
C2429 C2425 1.429 . S
C2429 C2430 1.523 . S
C2430 C2414 1.368 . S
C2430 C2426 1.368 . S
C2430 C2429 1.523 . S
H2431 C2406 0.950 . S
H2432 C2408 0.950 . S
H2433 C2409 0.949 . S
H2434 C2411 0.950 . S
H2435 C2413 0.950 . S
C2436 C2437 1.349 . S
C2436 C2438 1.327 . S
C2436 H2461 0.950 . S
C2437 C2436 1.349 . S
C2437 C2453 1.349 . S
C2438 C2436 1.327 . S
C2438 C2457 1.429 . S
C2438 H2462 0.950 . S
C2439 C2456 1.574 . S
C2439 C2458 1.368 . S
C2439 H2463 0.949 . S
H2440 C2444 0.949 . S
C2441 C2442 1.349 . S
C2441 C2443 1.327 . S
C2441 H2464 0.950 . S
C2442 C2441 1.349 . S
C2442 C2454 1.349 . S
C2443 C2441 1.327 . S
C2443 C2459 1.429 . S
C2443 H2465 0.950 . S
C2444 H2440 0.949 . S
C2444 C2452 1.574 . S
C2444 C2460 1.368 . S
H2445 C2453 0.950 . S
H2446 C2451 0.950 . S
H2447 C2452 0.949 . S
H2448 C2454 0.950 . S
H2449 C2455 0.950 . S
H2450 C2456 0.949 . S
C2451 H2446 0.950 . S
C2451 C2453 1.327 . S
C2451 C2457 1.429 . S
C2452 C2444 1.574 . S
C2452 H2447 0.949 . S
C2452 C2458 1.368 . S
C2453 C2437 1.349 . S
C2453 H2445 0.950 . S
C2453 C2451 1.327 . S
C2454 C2442 1.349 . S
C2454 H2448 0.950 . S
C2454 C2455 1.327 . S
C2455 H2449 0.950 . S
C2455 C2454 1.327 . S
C2455 C2459 1.429 . S
C2456 C2439 1.574 . S
C2456 H2450 0.949 . S
C2456 C2460 1.368 . S
C2457 C2438 1.429 . S
C2457 C2451 1.429 . S
C2457 C2458 1.523 . S
C2458 C2439 1.368 . S
C2458 C2452 1.368 . S
C2458 C2457 1.523 . S
C2459 C2443 1.429 . S
C2459 C2455 1.429 . S
C2459 C2460 1.523 . S
C2460 C2444 1.368 . S
C2460 C2456 1.368 . S
C2460 C2459 1.523 . S
H2461 C2436 0.950 . S
H2462 C2438 0.950 . S
H2463 C2439 0.949 . S
H2464 C2441 0.950 . S
H2465 C2443 0.950 . S
C2466 C2467 1.349 . S
C2466 C2468 1.327 . S
C2466 H2491 0.950 . S
C2467 C2466 1.349 . S
C2467 C2483 1.349 . S
C2468 C2466 1.327 . S
C2468 C2487 1.429 . S
C2468 H2492 0.950 . S
C2469 C2486 1.574 . S
C2469 C2488 1.368 . S
C2469 H2493 0.949 . S
H2470 C2474 0.949 . S
C2471 C2472 1.349 . S
C2471 C2473 1.327 . S
C2471 H2494 0.950 . S
C2472 C2471 1.349 . S
C2472 C2484 1.349 . S
C2473 C2471 1.327 . S
C2473 C2489 1.429 . S
C2473 H2495 0.950 . S
C2474 H2470 0.949 . S
C2474 C2482 1.574 . S
C2474 C2490 1.368 . S
H2475 C2483 0.950 . S
H2476 C2481 0.950 . S
H2477 C2482 0.949 . S
H2478 C2484 0.950 . S
H2479 C2485 0.950 . S
H2480 C2486 0.949 . S
C2481 H2476 0.950 . S
C2481 C2483 1.327 . S
C2481 C2487 1.429 . S
C2482 C2474 1.574 . S
C2482 H2477 0.949 . S
C2482 C2488 1.368 . S
C2483 C2467 1.349 . S
C2483 H2475 0.950 . S
C2483 C2481 1.327 . S
C2484 C2472 1.349 . S
C2484 H2478 0.950 . S
C2484 C2485 1.327 . S
C2485 H2479 0.950 . S
C2485 C2484 1.327 . S
C2485 C2489 1.429 . S
C2486 C2469 1.574 . S
C2486 H2480 0.949 . S
C2486 C2490 1.368 . S
C2487 C2468 1.429 . S
C2487 C2481 1.429 . S
C2487 C2488 1.523 . S
C2488 C2469 1.368 . S
C2488 C2482 1.368 . S
C2488 C2487 1.523 . S
C2489 C2473 1.429 . S
C2489 C2485 1.429 . S
C2489 C2490 1.523 . S
C2490 C2474 1.368 . S
C2490 C2486 1.368 . S
C2490 C2489 1.523 . S
H2491 C2466 0.950 . S
H2492 C2468 0.950 . S
H2493 C2469 0.949 . S
H2494 C2471 0.950 . S
H2495 C2473 0.950 . S
C2496 C2497 1.349 . S
C2496 C2498 1.327 . S
C2496 H2521 0.950 . S
C2497 C2496 1.349 . S
C2497 C2513 1.349 . S
C2498 C2496 1.327 . S
C2498 C2517 1.429 . S
C2498 H2522 0.950 . S
C2499 C2516 1.574 . S
C2499 C2518 1.368 . S
C2499 H2523 0.949 . S
H2500 C2504 0.949 . S
C2501 C2502 1.349 . S
C2501 C2503 1.327 . S
C2501 H2524 0.950 . S
C2502 C2501 1.349 . S
C2502 C2514 1.349 . S
C2503 C2501 1.327 . S
C2503 C2519 1.429 . S
C2503 H2525 0.950 . S
C2504 H2500 0.949 . S
C2504 C2512 1.574 . S
C2504 C2520 1.368 . S
H2505 C2513 0.950 . S
H2506 C2511 0.950 . S
H2507 C2512 0.949 . S
H2508 C2514 0.950 . S
H2509 C2515 0.950 . S
H2510 C2516 0.949 . S
C2511 H2506 0.950 . S
C2511 C2513 1.327 . S
C2511 C2517 1.429 . S
C2512 C2504 1.574 . S
C2512 H2507 0.949 . S
C2512 C2518 1.368 . S
C2513 C2497 1.349 . S
C2513 H2505 0.950 . S
C2513 C2511 1.327 . S
C2514 C2502 1.349 . S
C2514 H2508 0.950 . S
C2514 C2515 1.327 . S
C2515 H2509 0.950 . S
C2515 C2514 1.327 . S
C2515 C2519 1.429 . S
C2516 C2499 1.574 . S
C2516 H2510 0.949 . S
C2516 C2520 1.368 . S
C2517 C2498 1.429 . S
C2517 C2511 1.429 . S
C2517 C2518 1.523 . S
C2518 C2499 1.368 . S
C2518 C2512 1.368 . S
C2518 C2517 1.523 . S
C2519 C2503 1.429 . S
C2519 C2515 1.429 . S
C2519 C2520 1.523 . S
C2520 C2504 1.368 . S
C2520 C2516 1.368 . S
C2520 C2519 1.523 . S
H2521 C2496 0.950 . S
H2522 C2498 0.950 . S
H2523 C2499 0.949 . S
H2524 C2501 0.950 . S
H2525 C2503 0.950 . S
C2526 C2527 1.349 . S
C2526 C2528 1.327 . S
C2526 H2551 0.950 . S
C2527 C2526 1.349 . S
C2527 C2543 1.349 . S
C2528 C2526 1.327 . S
C2528 C2547 1.429 . S
C2528 H2552 0.950 . S
C2529 C2546 1.574 . S
C2529 C2548 1.368 . S
C2529 H2553 0.949 . S
H2530 C2534 0.949 . S
C2531 C2532 1.349 . S
C2531 C2533 1.327 . S
C2531 H2554 0.950 . S
C2532 C2531 1.349 . S
C2532 C2544 1.349 . S
C2533 C2531 1.327 . S
C2533 C2549 1.429 . S
C2533 H2555 0.950 . S
C2534 H2530 0.949 . S
C2534 C2542 1.574 . S
C2534 C2550 1.368 . S
H2535 C2543 0.950 . S
H2536 C2541 0.950 . S
H2537 C2542 0.949 . S
H2538 C2544 0.950 . S
H2539 C2545 0.950 . S
H2540 C2546 0.949 . S
C2541 H2536 0.950 . S
C2541 C2543 1.327 . S
C2541 C2547 1.429 . S
C2542 C2534 1.574 . S
C2542 H2537 0.949 . S
C2542 C2548 1.368 . S
C2543 C2527 1.349 . S
C2543 H2535 0.950 . S
C2543 C2541 1.327 . S
C2544 C2532 1.349 . S
C2544 H2538 0.950 . S
C2544 C2545 1.327 . S
C2545 H2539 0.950 . S
C2545 C2544 1.327 . S
C2545 C2549 1.429 . S
C2546 C2529 1.574 . S
C2546 H2540 0.949 . S
C2546 C2550 1.368 . S
C2547 C2528 1.429 . S
C2547 C2541 1.429 . S
C2547 C2548 1.523 . S
C2548 C2529 1.368 . S
C2548 C2542 1.368 . S
C2548 C2547 1.523 . S
C2549 C2533 1.429 . S
C2549 C2545 1.429 . S
C2549 C2550 1.523 . S
C2550 C2534 1.368 . S
C2550 C2546 1.368 . S
C2550 C2549 1.523 . S
H2551 C2526 0.950 . S
H2552 C2528 0.950 . S
H2553 C2529 0.949 . S
H2554 C2531 0.950 . S
H2555 C2533 0.950 . S
C2556 C2557 1.349 . S
C2556 C2558 1.327 . S
C2556 H2581 0.950 . S
C2557 C2556 1.349 . S
C2557 C2573 1.349 . S
C2558 C2556 1.327 . S
C2558 C2577 1.429 . S
C2558 H2582 0.950 . S
C2559 C2576 1.574 . S
C2559 C2578 1.368 . S
C2559 H2583 0.949 . S
H2560 C2564 0.949 . S
C2561 C2562 1.349 . S
C2561 C2563 1.327 . S
C2561 H2584 0.950 . S
C2562 C2561 1.349 . S
C2562 C2574 1.349 . S
C2563 C2561 1.327 . S
C2563 C2579 1.429 . S
C2563 H2585 0.950 . S
C2564 H2560 0.949 . S
C2564 C2572 1.574 . S
C2564 C2580 1.368 . S
H2565 C2573 0.950 . S
H2566 C2571 0.950 . S
H2567 C2572 0.949 . S
H2568 C2574 0.950 . S
H2569 C2575 0.950 . S
H2570 C2576 0.949 . S
C2571 H2566 0.950 . S
C2571 C2573 1.327 . S
C2571 C2577 1.429 . S
C2572 C2564 1.574 . S
C2572 H2567 0.949 . S
C2572 C2578 1.368 . S
C2573 C2557 1.349 . S
C2573 H2565 0.950 . S
C2573 C2571 1.327 . S
C2574 C2562 1.349 . S
C2574 H2568 0.950 . S
C2574 C2575 1.327 . S
C2575 H2569 0.950 . S
C2575 C2574 1.327 . S
C2575 C2579 1.429 . S
C2576 C2559 1.574 . S
C2576 H2570 0.949 . S
C2576 C2580 1.368 . S
C2577 C2558 1.429 . S
C2577 C2571 1.429 . S
C2577 C2578 1.523 . S
C2578 C2559 1.368 . S
C2578 C2572 1.368 . S
C2578 C2577 1.523 . S
C2579 C2563 1.429 . S
C2579 C2575 1.429 . S
C2579 C2580 1.523 . S
C2580 C2564 1.368 . S
C2580 C2576 1.368 . S
C2580 C2579 1.523 . S
H2581 C2556 0.950 . S
H2582 C2558 0.950 . S
H2583 C2559 0.949 . S
H2584 C2561 0.950 . S
H2585 C2563 0.950 . S
C2586 C2587 1.349 . S
C2586 C2588 1.327 . S
C2586 H2611 0.950 . S
C2587 C2586 1.349 . S
C2587 C2603 1.349 . S
C2588 C2586 1.327 . S
C2588 C2607 1.429 . S
C2588 H2612 0.950 . S
C2589 C2606 1.574 . S
C2589 C2608 1.368 . S
C2589 H2613 0.949 . S
H2590 C2594 0.949 . S
C2591 C2592 1.349 . S
C2591 C2593 1.327 . S
C2591 H2614 0.950 . S
C2592 C2591 1.349 . S
C2592 C2604 1.349 . S
C2593 C2591 1.327 . S
C2593 C2609 1.429 . S
C2593 H2615 0.950 . S
C2594 H2590 0.949 . S
C2594 C2602 1.574 . S
C2594 C2610 1.368 . S
H2595 C2603 0.950 . S
H2596 C2601 0.950 . S
H2597 C2602 0.949 . S
H2598 C2604 0.950 . S
H2599 C2605 0.950 . S
H2600 C2606 0.949 . S
C2601 H2596 0.950 . S
C2601 C2603 1.327 . S
C2601 C2607 1.429 . S
C2602 C2594 1.574 . S
C2602 H2597 0.949 . S
C2602 C2608 1.368 . S
C2603 C2587 1.349 . S
C2603 H2595 0.950 . S
C2603 C2601 1.327 . S
C2604 C2592 1.349 . S
C2604 H2598 0.950 . S
C2604 C2605 1.327 . S
C2605 H2599 0.950 . S
C2605 C2604 1.327 . S
C2605 C2609 1.429 . S
C2606 C2589 1.574 . S
C2606 H2600 0.949 . S
C2606 C2610 1.368 . S
C2607 C2588 1.429 . S
C2607 C2601 1.429 . S
C2607 C2608 1.523 . S
C2608 C2589 1.368 . S
C2608 C2602 1.368 . S
C2608 C2607 1.523 . S
C2609 C2593 1.429 . S
C2609 C2605 1.429 . S
C2609 C2610 1.523 . S
C2610 C2594 1.368 . S
C2610 C2606 1.368 . S
C2610 C2609 1.523 . S
H2611 C2586 0.950 . S
H2612 C2588 0.950 . S
H2613 C2589 0.949 . S
H2614 C2591 0.950 . S
H2615 C2593 0.950 . S
C2616 C2617 1.349 . S
C2616 C2618 1.327 . S
C2616 H2641 0.950 . S
C2617 C2616 1.349 . S
C2617 C2633 1.349 . S
C2618 C2616 1.327 . S
C2618 C2637 1.429 . S
C2618 H2642 0.950 . S
C2619 C2636 1.574 . S
C2619 C2638 1.368 . S
C2619 H2643 0.949 . S
H2620 C2624 0.949 . S
C2621 C2622 1.349 . S
C2621 C2623 1.327 . S
C2621 H2644 0.950 . S
C2622 C2621 1.349 . S
C2622 C2634 1.349 . S
C2623 C2621 1.327 . S
C2623 C2639 1.429 . S
C2623 H2645 0.950 . S
C2624 H2620 0.949 . S
C2624 C2632 1.574 . S
C2624 C2640 1.368 . S
H2625 C2633 0.950 . S
H2626 C2631 0.950 . S
H2627 C2632 0.949 . S
H2628 C2634 0.950 . S
H2629 C2635 0.950 . S
H2630 C2636 0.949 . S
C2631 H2626 0.950 . S
C2631 C2633 1.327 . S
C2631 C2637 1.429 . S
C2632 C2624 1.574 . S
C2632 H2627 0.949 . S
C2632 C2638 1.368 . S
C2633 C2617 1.349 . S
C2633 H2625 0.950 . S
C2633 C2631 1.327 . S
C2634 C2622 1.349 . S
C2634 H2628 0.950 . S
C2634 C2635 1.327 . S
C2635 H2629 0.950 . S
C2635 C2634 1.327 . S
C2635 C2639 1.429 . S
C2636 C2619 1.574 . S
C2636 H2630 0.949 . S
C2636 C2640 1.368 . S
C2637 C2618 1.429 . S
C2637 C2631 1.429 . S
C2637 C2638 1.523 . S
C2638 C2619 1.368 . S
C2638 C2632 1.368 . S
C2638 C2637 1.523 . S
C2639 C2623 1.429 . S
C2639 C2635 1.429 . S
C2639 C2640 1.523 . S
C2640 C2624 1.368 . S
C2640 C2636 1.368 . S
C2640 C2639 1.523 . S
H2641 C2616 0.950 . S
H2642 C2618 0.950 . S
H2643 C2619 0.949 . S
H2644 C2621 0.950 . S
H2645 C2623 0.950 . S
C2646 C2647 1.349 . S
C2646 C2648 1.327 . S
C2646 H2671 0.950 . S
C2647 C2646 1.349 . S
C2647 C2663 1.349 1_455 S
C2648 C2646 1.327 . S
C2648 C2667 1.429 . S
C2648 H2672 0.950 . S
C2649 C2666 1.574 . S
C2649 C2668 1.368 1_655 S
C2649 H2673 0.949 . S
H2650 C2654 0.949 . S
C2651 C2652 1.349 1_655 S
C2651 C2653 1.327 . S
C2651 H2674 0.950 . S
C2652 C2651 1.349 1_455 S
C2652 C2664 1.349 . S
C2653 C2651 1.327 . S
C2653 C2669 1.429 1_655 S
C2653 H2675 0.950 . S
C2654 H2650 0.949 . S
C2654 C2662 1.574 . S
C2654 C2670 1.368 . S
H2655 C2663 0.950 . S
H2656 C2661 0.950 . S
H2657 C2662 0.949 . S
H2658 C2664 0.950 . S
H2659 C2665 0.950 . S
H2660 C2666 0.949 . S
C2661 H2656 0.950 . S
C2661 C2663 1.327 . S
C2661 C2667 1.429 1_655 S
C2662 C2654 1.574 . S
C2662 H2657 0.949 . S
C2662 C2668 1.368 . S
C2663 C2647 1.349 1_655 S
C2663 H2655 0.950 . S
C2663 C2661 1.327 . S
C2664 C2652 1.349 . S
C2664 H2658 0.950 . S
C2664 C2665 1.327 . S
C2665 H2659 0.950 . S
C2665 C2664 1.327 . S
C2665 C2669 1.429 . S
C2666 C2649 1.574 . S
C2666 H2660 0.949 . S
C2666 C2670 1.368 1_655 S
C2667 C2648 1.429 . S
C2667 C2661 1.429 1_455 S
C2667 C2668 1.523 . S
C2668 C2649 1.368 1_455 S
C2668 C2662 1.368 . S
C2668 C2667 1.523 . S
C2669 C2653 1.429 1_455 S
C2669 C2665 1.429 . S
C2669 C2670 1.523 . S
C2670 C2654 1.368 . S
C2670 C2666 1.368 1_455 S
C2670 C2669 1.523 . S
H2671 C2646 0.950 . S
H2672 C2648 0.950 . S
H2673 C2649 0.949 . S
H2674 C2651 0.950 . S
H2675 C2653 0.950 . S
C2676 C2677 1.349 . S
C2676 C2678 1.327 . S
C2676 H2701 0.950 . S
C2677 C2676 1.349 . S
C2677 C2693 1.349 . S
C2678 C2676 1.327 . S
C2678 C2697 1.429 . S
C2678 H2702 0.950 . S
C2679 C2696 1.574 . S
C2679 C2698 1.368 . S
C2679 H2703 0.949 . S
H2680 C2684 0.949 . S
C2681 C2682 1.349 . S
C2681 C2683 1.327 . S
C2681 H2704 0.950 . S
C2682 C2681 1.349 . S
C2682 C2694 1.349 . S
C2683 C2681 1.327 . S
C2683 C2699 1.429 . S
C2683 H2705 0.950 . S
C2684 H2680 0.949 . S
C2684 C2692 1.574 . S
C2684 C2700 1.368 . S
H2685 C2693 0.950 . S
H2686 C2691 0.950 . S
H2687 C2692 0.949 . S
H2688 C2694 0.950 . S
H2689 C2695 0.950 . S
H2690 C2696 0.949 . S
C2691 H2686 0.950 . S
C2691 C2693 1.327 . S
C2691 C2697 1.429 . S
C2692 C2684 1.574 . S
C2692 H2687 0.949 . S
C2692 C2698 1.368 . S
C2693 C2677 1.349 . S
C2693 H2685 0.950 . S
C2693 C2691 1.327 . S
C2694 C2682 1.349 . S
C2694 H2688 0.950 . S
C2694 C2695 1.327 . S
C2695 H2689 0.950 . S
C2695 C2694 1.327 . S
C2695 C2699 1.429 . S
C2696 C2679 1.574 . S
C2696 H2690 0.949 . S
C2696 C2700 1.368 . S
C2697 C2678 1.429 . S
C2697 C2691 1.429 . S
C2697 C2698 1.523 . S
C2698 C2679 1.368 . S
C2698 C2692 1.368 . S
C2698 C2697 1.523 . S
C2699 C2683 1.429 . S
C2699 C2695 1.429 . S
C2699 C2700 1.523 . S
C2700 C2684 1.368 . S
C2700 C2696 1.368 . S
C2700 C2699 1.523 . S
H2701 C2676 0.950 . S
H2702 C2678 0.950 . S
H2703 C2679 0.949 . S
H2704 C2681 0.950 . S
H2705 C2683 0.950 . S
C2706 C2707 1.349 . S
C2706 C2708 1.327 . S
C2706 H2731 0.950 . S
C2707 C2706 1.349 . S
C2707 C2723 1.349 1_565 S
C2708 C2706 1.327 . S
C2708 C2727 1.429 . S
C2708 H2732 0.950 . S
C2709 C2726 1.574 . S
C2709 C2728 1.368 1_545 S
C2709 H2733 0.949 . S
H2710 C2714 0.949 . S
C2711 C2712 1.349 1_545 S
C2711 C2713 1.327 . S
C2711 H2734 0.950 . S
C2712 C2711 1.349 1_565 S
C2712 C2724 1.349 . S
C2713 C2711 1.327 . S
C2713 C2729 1.429 1_545 S
C2713 H2735 0.950 . S
C2714 H2710 0.949 . S
C2714 C2722 1.574 . S
C2714 C2730 1.368 . S
H2715 C2723 0.950 . S
H2716 C2721 0.950 . S
H2717 C2722 0.949 . S
H2718 C2724 0.950 . S
H2719 C2725 0.950 . S
H2720 C2726 0.949 . S
C2721 H2716 0.950 . S
C2721 C2723 1.327 . S
C2721 C2727 1.429 1_545 S
C2722 C2714 1.574 . S
C2722 H2717 0.949 . S
C2722 C2728 1.368 . S
C2723 C2707 1.349 1_545 S
C2723 H2715 0.950 . S
C2723 C2721 1.327 . S
C2724 C2712 1.349 . S
C2724 H2718 0.950 . S
C2724 C2725 1.327 . S
C2725 H2719 0.950 . S
C2725 C2724 1.327 . S
C2725 C2729 1.429 . S
C2726 C2709 1.574 . S
C2726 H2720 0.949 . S
C2726 C2730 1.368 1_545 S
C2727 C2708 1.429 . S
C2727 C2721 1.429 1_565 S
C2727 C2728 1.523 . S
C2728 C2709 1.368 1_565 S
C2728 C2722 1.368 . S
C2728 C2727 1.523 . S
C2729 C2713 1.429 1_565 S
C2729 C2725 1.429 . S
C2729 C2730 1.523 . S
C2730 C2714 1.368 . S
C2730 C2726 1.368 1_565 S
C2730 C2729 1.523 . S
H2731 C2706 0.950 . S
H2732 C2708 0.950 . S
H2733 C2709 0.949 . S
H2734 C2711 0.950 . S
H2735 C2713 0.950 . S
C2736 C2737 1.349 1_545 S
C2736 C2738 1.327 . S
C2736 H2761 0.950 . S
C2737 C2736 1.349 1_565 S
C2737 C2753 1.349 . S
C2738 C2736 1.327 . S
C2738 C2757 1.429 1_545 S
C2738 H2762 0.950 . S
C2739 C2756 1.574 . S
C2739 C2758 1.368 . S
C2739 H2763 0.949 . S
H2740 C2744 0.949 . S
C2741 C2742 1.349 . S
C2741 C2743 1.327 . S
C2741 H2764 0.950 . S
C2742 C2741 1.349 . S
C2742 C2754 1.349 1_565 S
C2743 C2741 1.327 . S
C2743 C2759 1.429 . S
C2743 H2765 0.950 . S
C2744 H2740 0.949 . S
C2744 C2752 1.574 . S
C2744 C2760 1.368 1_545 S
H2745 C2753 0.950 . S
H2746 C2751 0.950 . S
H2747 C2752 0.949 . S
H2748 C2754 0.950 . S
H2749 C2755 0.950 . S
H2750 C2756 0.949 . S
C2751 H2746 0.950 . S
C2751 C2753 1.327 . S
C2751 C2757 1.429 . S
C2752 C2744 1.574 . S
C2752 H2747 0.949 . S
C2752 C2758 1.368 1_545 S
C2753 C2737 1.349 . S
C2753 H2745 0.950 . S
C2753 C2751 1.327 . S
C2754 C2742 1.349 1_545 S
C2754 H2748 0.950 . S
C2754 C2755 1.327 . S
C2755 H2749 0.950 . S
C2755 C2754 1.327 . S
C2755 C2759 1.429 1_545 S
C2756 C2739 1.574 . S
C2756 H2750 0.949 . S
C2756 C2760 1.368 . S
C2757 C2738 1.429 1_565 S
C2757 C2751 1.429 . S
C2757 C2758 1.523 . S
C2758 C2739 1.368 . S
C2758 C2752 1.368 1_565 S
C2758 C2757 1.523 . S
C2759 C2743 1.429 . S
C2759 C2755 1.429 1_565 S
C2759 C2760 1.523 . S
C2760 C2744 1.368 1_565 S
C2760 C2756 1.368 . S
C2760 C2759 1.523 . S
H2761 C2736 0.950 . S
H2762 C2738 0.950 . S
H2763 C2739 0.949 . S
H2764 C2741 0.950 . S
H2765 C2743 0.950 . S
C2766 C2767 1.349 1_655 S
C2766 C2768 1.327 . S
C2766 H2791 0.950 . S
C2767 C2766 1.349 1_455 S
C2767 C2783 1.349 . S
C2768 C2766 1.327 . S
C2768 C2787 1.429 1_655 S
C2768 H2792 0.950 . S
C2769 C2786 1.574 . S
C2769 C2788 1.368 . S
C2769 H2793 0.949 . S
H2770 C2774 0.949 . S
C2771 C2772 1.349 . S
C2771 C2773 1.327 . S
C2771 H2794 0.950 . S
C2772 C2771 1.349 . S
C2772 C2784 1.349 1_455 S
C2773 C2771 1.327 . S
C2773 C2789 1.429 . S
C2773 H2795 0.950 . S
C2774 H2770 0.949 . S
C2774 C2782 1.574 . S
C2774 C2790 1.368 1_655 S
H2775 C2783 0.950 . S
H2776 C2781 0.950 . S
H2777 C2782 0.949 . S
H2778 C2784 0.950 . S
H2779 C2785 0.950 . S
H2780 C2786 0.949 . S
C2781 H2776 0.950 . S
C2781 C2783 1.327 . S
C2781 C2787 1.429 . S
C2782 C2774 1.574 . S
C2782 H2777 0.949 . S
C2782 C2788 1.368 1_655 S
C2783 C2767 1.349 . S
C2783 H2775 0.950 . S
C2783 C2781 1.327 . S
C2784 C2772 1.349 1_655 S
C2784 H2778 0.950 . S
C2784 C2785 1.327 . S
C2785 H2779 0.950 . S
C2785 C2784 1.327 . S
C2785 C2789 1.429 1_655 S
C2786 C2769 1.574 . S
C2786 H2780 0.949 . S
C2786 C2790 1.368 . S
C2787 C2768 1.429 1_455 S
C2787 C2781 1.429 . S
C2787 C2788 1.523 . S
C2788 C2769 1.368 . S
C2788 C2782 1.368 1_455 S
C2788 C2787 1.523 . S
C2789 C2773 1.429 . S
C2789 C2785 1.429 1_455 S
C2789 C2790 1.523 . S
C2790 C2774 1.368 1_455 S
C2790 C2786 1.368 . S
C2790 C2789 1.523 . S
H2791 C2766 0.950 . S
H2792 C2768 0.950 . S
H2793 C2769 0.949 . S
H2794 C2771 0.950 . S
H2795 C2773 0.950 . S
C2796 C2797 1.349 . S
C2796 C2798 1.327 . S
C2796 H2821 0.950 . S
C2797 C2796 1.349 . S
C2797 C2813 1.349 . S
C2798 C2796 1.327 . S
C2798 C2817 1.429 . S
C2798 H2822 0.950 . S
C2799 C2816 1.574 . S
C2799 C2818 1.368 . S
C2799 H2823 0.949 . S
H2800 C2804 0.949 . S
C2801 C2802 1.349 . S
C2801 C2803 1.327 . S
C2801 H2824 0.950 . S
C2802 C2801 1.349 . S
C2802 C2814 1.349 . S
C2803 C2801 1.327 . S
C2803 C2819 1.429 . S
C2803 H2825 0.950 . S
C2804 H2800 0.949 . S
C2804 C2812 1.574 . S
C2804 C2820 1.368 . S
H2805 C2813 0.950 . S
H2806 C2811 0.950 . S
H2807 C2812 0.949 . S
H2808 C2814 0.950 . S
H2809 C2815 0.950 . S
H2810 C2816 0.949 . S
C2811 H2806 0.950 . S
C2811 C2813 1.327 . S
C2811 C2817 1.429 . S
C2812 C2804 1.574 . S
C2812 H2807 0.949 . S
C2812 C2818 1.368 . S
C2813 C2797 1.349 . S
C2813 H2805 0.950 . S
C2813 C2811 1.327 . S
C2814 C2802 1.349 . S
C2814 H2808 0.950 . S
C2814 C2815 1.327 . S
C2815 H2809 0.950 . S
C2815 C2814 1.327 . S
C2815 C2819 1.429 . S
C2816 C2799 1.574 . S
C2816 H2810 0.949 . S
C2816 C2820 1.368 . S
C2817 C2798 1.429 . S
C2817 C2811 1.429 . S
C2817 C2818 1.523 . S
C2818 C2799 1.368 . S
C2818 C2812 1.368 . S
C2818 C2817 1.523 . S
C2819 C2803 1.429 . S
C2819 C2815 1.429 . S
C2819 C2820 1.523 . S
C2820 C2804 1.368 . S
C2820 C2816 1.368 . S
C2820 C2819 1.523 . S
H2821 C2796 0.950 . S
H2822 C2798 0.950 . S
H2823 C2799 0.949 . S
H2824 C2801 0.950 . S
H2825 C2803 0.950 . S
C2826 C2827 1.349 . S
C2826 C2828 1.327 . S
C2826 H2851 0.950 . S
C2827 C2826 1.349 . S
C2827 C2843 1.349 . S
C2828 C2826 1.327 . S
C2828 C2847 1.429 . S
C2828 H2852 0.950 . S
C2829 C2846 1.574 . S
C2829 C2848 1.368 . S
C2829 H2853 0.949 . S
H2830 C2834 0.949 . S
C2831 C2832 1.349 . S
C2831 C2833 1.327 . S
C2831 H2854 0.950 . S
C2832 C2831 1.349 . S
C2832 C2844 1.349 . S
C2833 C2831 1.327 . S
C2833 C2849 1.429 . S
C2833 H2855 0.950 . S
C2834 H2830 0.949 . S
C2834 C2842 1.574 . S
C2834 C2850 1.368 . S
H2835 C2843 0.950 . S
H2836 C2841 0.950 . S
H2837 C2842 0.949 . S
H2838 C2844 0.950 . S
H2839 C2845 0.950 . S
H2840 C2846 0.949 . S
C2841 H2836 0.950 . S
C2841 C2843 1.327 . S
C2841 C2847 1.429 . S
C2842 C2834 1.574 . S
C2842 H2837 0.949 . S
C2842 C2848 1.368 . S
C2843 C2827 1.349 . S
C2843 H2835 0.950 . S
C2843 C2841 1.327 . S
C2844 C2832 1.349 . S
C2844 H2838 0.950 . S
C2844 C2845 1.327 . S
C2845 H2839 0.950 . S
C2845 C2844 1.327 . S
C2845 C2849 1.429 . S
C2846 C2829 1.574 . S
C2846 H2840 0.949 . S
C2846 C2850 1.368 . S
C2847 C2828 1.429 . S
C2847 C2841 1.429 . S
C2847 C2848 1.523 . S
C2848 C2829 1.368 . S
C2848 C2842 1.368 . S
C2848 C2847 1.523 . S
C2849 C2833 1.429 . S
C2849 C2845 1.429 . S
C2849 C2850 1.523 . S
C2850 C2834 1.368 . S
C2850 C2846 1.368 . S
C2850 C2849 1.523 . S
H2851 C2826 0.950 . S
H2852 C2828 0.950 . S
H2853 C2829 0.949 . S
H2854 C2831 0.950 . S
H2855 C2833 0.950 . S
C2856 C2857 1.349 . S
C2856 C2858 1.327 . S
C2856 H2881 0.950 . S
C2857 C2856 1.349 . S
C2857 C2873 1.349 . S
C2858 C2856 1.327 . S
C2858 C2877 1.429 . S
C2858 H2882 0.950 . S
C2859 C2876 1.574 . S
C2859 C2878 1.368 . S
C2859 H2883 0.949 . S
H2860 C2864 0.949 . S
C2861 C2862 1.349 . S
C2861 C2863 1.327 . S
C2861 H2884 0.950 . S
C2862 C2861 1.349 . S
C2862 C2874 1.349 . S
C2863 C2861 1.327 . S
C2863 C2879 1.429 . S
C2863 H2885 0.950 . S
C2864 H2860 0.949 . S
C2864 C2872 1.574 . S
C2864 C2880 1.368 . S
H2865 C2873 0.950 . S
H2866 C2871 0.950 . S
H2867 C2872 0.949 . S
H2868 C2874 0.950 . S
H2869 C2875 0.950 . S
H2870 C2876 0.949 . S
C2871 H2866 0.950 . S
C2871 C2873 1.327 . S
C2871 C2877 1.429 . S
C2872 C2864 1.574 . S
C2872 H2867 0.949 . S
C2872 C2878 1.368 . S
C2873 C2857 1.349 . S
C2873 H2865 0.950 . S
C2873 C2871 1.327 . S
C2874 C2862 1.349 . S
C2874 H2868 0.950 . S
C2874 C2875 1.327 . S
C2875 H2869 0.950 . S
C2875 C2874 1.327 . S
C2875 C2879 1.429 . S
C2876 C2859 1.574 . S
C2876 H2870 0.949 . S
C2876 C2880 1.368 . S
C2877 C2858 1.429 . S
C2877 C2871 1.429 . S
C2877 C2878 1.523 . S
C2878 C2859 1.368 . S
C2878 C2872 1.368 . S
C2878 C2877 1.523 . S
C2879 C2863 1.429 . S
C2879 C2875 1.429 . S
C2879 C2880 1.523 . S
C2880 C2864 1.368 . S
C2880 C2876 1.368 . S
C2880 C2879 1.523 . S
H2881 C2856 0.950 . S
H2882 C2858 0.950 . S
H2883 C2859 0.949 . S
H2884 C2861 0.950 . S
H2885 C2863 0.950 . S
C2886 C2887 1.349 . S
C2886 C2888 1.327 . S
C2886 H2911 0.950 . S
C2887 C2886 1.349 . S
C2887 C2903 1.349 . S
C2888 C2886 1.327 . S
C2888 C2907 1.429 . S
C2888 H2912 0.950 . S
C2889 C2906 1.574 . S
C2889 C2908 1.368 . S
C2889 H2913 0.949 . S
H2890 C2894 0.949 . S
C2891 C2892 1.349 . S
C2891 C2893 1.327 . S
C2891 H2914 0.950 . S
C2892 C2891 1.349 . S
C2892 C2904 1.349 . S
C2893 C2891 1.327 . S
C2893 C2909 1.429 . S
C2893 H2915 0.950 . S
C2894 H2890 0.949 . S
C2894 C2902 1.574 . S
C2894 C2910 1.368 . S
H2895 C2903 0.950 . S
H2896 C2901 0.950 . S
H2897 C2902 0.949 . S
H2898 C2904 0.950 . S
H2899 C2905 0.950 . S
H2900 C2906 0.949 . S
C2901 H2896 0.950 . S
C2901 C2903 1.327 . S
C2901 C2907 1.429 . S
C2902 C2894 1.574 . S
C2902 H2897 0.949 . S
C2902 C2908 1.368 . S
C2903 C2887 1.349 . S
C2903 H2895 0.950 . S
C2903 C2901 1.327 . S
C2904 C2892 1.349 . S
C2904 H2898 0.950 . S
C2904 C2905 1.327 . S
C2905 H2899 0.950 . S
C2905 C2904 1.327 . S
C2905 C2909 1.429 . S
C2906 C2889 1.574 . S
C2906 H2900 0.949 . S
C2906 C2910 1.368 . S
C2907 C2888 1.429 . S
C2907 C2901 1.429 . S
C2907 C2908 1.523 . S
C2908 C2889 1.368 . S
C2908 C2902 1.368 . S
C2908 C2907 1.523 . S
C2909 C2893 1.429 . S
C2909 C2905 1.429 . S
C2909 C2910 1.523 . S
C2910 C2894 1.368 . S
C2910 C2906 1.368 . S
C2910 C2909 1.523 . S
H2911 C2886 0.950 . S
H2912 C2888 0.950 . S
H2913 C2889 0.949 . S
H2914 C2891 0.950 . S
H2915 C2893 0.950 . S
C2916 C2917 1.349 . S
C2916 C2918 1.327 . S
C2916 H2941 0.950 . S
C2917 C2916 1.349 . S
C2917 C2933 1.349 1_545 S
C2918 C2916 1.327 . S
C2918 C2937 1.429 . S
C2918 H2942 0.950 . S
C2919 C2936 1.574 . S
C2919 C2938 1.368 1_565 S
C2919 H2943 0.949 . S
H2920 C2924 0.949 . S
C2921 C2922 1.349 1_565 S
C2921 C2923 1.327 . S
C2921 H2944 0.950 . S
C2922 C2921 1.349 1_545 S
C2922 C2934 1.349 . S
C2923 C2921 1.327 . S
C2923 C2939 1.429 1_565 S
C2923 H2945 0.950 . S
C2924 H2920 0.949 . S
C2924 C2932 1.574 . S
C2924 C2940 1.368 . S
H2925 C2933 0.950 . S
H2926 C2931 0.950 . S
H2927 C2932 0.949 . S
H2928 C2934 0.950 . S
H2929 C2935 0.950 . S
H2930 C2936 0.949 . S
C2931 H2926 0.950 . S
C2931 C2933 1.327 . S
C2931 C2937 1.429 1_565 S
C2932 C2924 1.574 . S
C2932 H2927 0.949 . S
C2932 C2938 1.368 . S
C2933 C2917 1.349 1_565 S
C2933 H2925 0.950 . S
C2933 C2931 1.327 . S
C2934 C2922 1.349 . S
C2934 H2928 0.950 . S
C2934 C2935 1.327 . S
C2935 H2929 0.950 . S
C2935 C2934 1.327 . S
C2935 C2939 1.429 . S
C2936 C2919 1.574 . S
C2936 H2930 0.949 . S
C2936 C2940 1.368 1_565 S
C2937 C2918 1.429 . S
C2937 C2931 1.429 1_545 S
C2937 C2938 1.523 . S
C2938 C2919 1.368 1_545 S
C2938 C2932 1.368 . S
C2938 C2937 1.523 . S
C2939 C2923 1.429 1_545 S
C2939 C2935 1.429 . S
C2939 C2940 1.523 . S
C2940 C2924 1.368 . S
C2940 C2936 1.368 1_545 S
C2940 C2939 1.523 . S
H2941 C2916 0.950 . S
H2942 C2918 0.950 . S
H2943 C2919 0.949 . S
H2944 C2921 0.950 . S
H2945 C2923 0.950 . S
C2946 C2947 1.349 . S
C2946 C2948 1.309 . S
C2946 H2971 0.950 1_655 S
C2947 C2946 1.349 . S
C2947 C2963 1.349 . S
C2948 C2946 1.309 . S
C2948 C2967 1.471 . S
C2948 H2972 0.927 1_655 S
C2949 C2966 1.574 . S
C2949 C2968 1.368 . S
C2949 H2973 0.949 . S
H2950 C2954 0.949 . S
C2951 C2952 1.349 . S
C2951 C2953 1.327 . S
C2951 H2974 0.950 . S
C2952 C2951 1.349 . S
C2952 C2964 1.349 1_655 S
C2953 C2951 1.327 . S
C2953 C2969 1.429 . S
C2953 H2975 0.950 . S
C2954 H2950 0.949 . S
C2954 C2962 1.574 . S
C2954 C2970 1.368 1_455 S
H2955 C2963 0.950 . S
H2956 C2961 0.950 . S
H2957 C2962 0.949 . S
H2958 C2964 0.950 . S
H2959 C2965 0.950 . S
H2960 C2966 0.949 . S
C2961 H2956 0.950 . S
C2961 C2963 1.327 . S
C2961 C2967 1.429 . S
C2962 C2954 1.574 . S
C2962 H2957 0.949 . S
C2962 C2968 1.368 1_455 S
C2963 C2947 1.349 . S
C2963 H2955 0.950 . S
C2963 C2961 1.327 . S
C2964 C2952 1.349 1_455 S
C2964 H2958 0.950 . S
C2964 C2965 1.327 . S
C2965 H2959 0.950 . S
C2965 C2964 1.327 . S
C2965 C2969 1.429 1_455 S
C2966 C2949 1.574 . S
C2966 H2960 0.949 . S
C2966 C2970 1.368 . S
C2967 C2948 1.471 . S
C2967 C2961 1.429 . S
C2967 C2968 1.523 . S
C2968 C2949 1.368 . S
C2968 C2962 1.368 1_655 S
C2968 C2967 1.523 . S
C2969 C2953 1.429 . S
C2969 C2965 1.429 1_655 S
C2969 C2970 1.523 . S
C2970 C2954 1.368 1_655 S
C2970 C2966 1.368 . S
C2970 C2969 1.523 . S
H2971 C2946 0.950 1_455 S
H2972 C2948 0.927 1_455 S
H2973 C2949 0.949 . S
H2974 C2951 0.950 . S
H2975 C2953 0.950 . S
C2976 C2977 1.349 . S
C2976 C2978 1.327 . S
C2976 H3001 0.950 . S
C2977 C2976 1.349 . S
C2977 C2993 1.349 . S
C2978 C2976 1.327 . S
C2978 C2997 1.429 . S
C2978 H3002 0.950 . S
C2979 C2996 1.574 . S
C2979 C2998 1.368 . S
C2979 H3003 0.949 . S
H2980 C2984 0.949 . S
C2981 C2982 1.349 . S
C2981 C2983 1.327 . S
C2981 H3004 0.950 . S
C2982 C2981 1.349 . S
C2982 C2994 1.349 . S
C2983 C2981 1.327 . S
C2983 C2999 1.429 . S
C2983 H3005 0.950 . S
C2984 H2980 0.949 . S
C2984 C2992 1.574 . S
C2984 C3000 1.368 . S
H2985 C2993 0.950 . S
H2986 C2991 0.950 . S
H2987 C2992 0.949 . S
H2988 C2994 0.950 . S
H2989 C2995 0.950 . S
H2990 C2996 0.949 . S
C2991 H2986 0.950 . S
C2991 C2993 1.327 . S
C2991 C2997 1.429 . S
C2992 C2984 1.574 . S
C2992 H2987 0.949 . S
C2992 C2998 1.368 . S
C2993 C2977 1.349 . S
C2993 H2985 0.950 . S
C2993 C2991 1.327 . S
C2994 C2982 1.349 . S
C2994 H2988 0.950 . S
C2994 C2995 1.327 . S
C2995 H2989 0.950 . S
C2995 C2994 1.327 . S
C2995 C2999 1.429 . S
C2996 C2979 1.574 . S
C2996 H2990 0.949 . S
C2996 C3000 1.368 . S
C2997 C2978 1.429 . S
C2997 C2991 1.429 . S
C2997 C2998 1.523 . S
C2998 C2979 1.368 . S
C2998 C2992 1.368 . S
C2998 C2997 1.523 . S
C2999 C2983 1.429 . S
C2999 C2995 1.429 . S
C2999 C3000 1.523 . S
C3000 C2984 1.368 . S
C3000 C2996 1.368 . S
C3000 C2999 1.523 . S
H3001 C2976 0.950 . S
H3002 C2978 0.950 . S
H3003 C2979 0.949 . S
H3004 C2981 0.950 . S
H3005 C2983 0.950 . S
C3006 C3007 1.349 . S
C3006 C3008 1.327 . S
C3006 H3031 0.950 . S
C3007 C3006 1.349 . S
C3007 C3023 1.349 . S
C3008 C3006 1.327 . S
C3008 C3027 1.429 . S
C3008 H3032 0.950 . S
C3009 C3026 1.574 . S
C3009 C3028 1.368 . S
C3009 H3033 0.949 . S
H3010 C3014 0.949 . S
C3011 C3012 1.349 . S
C3011 C3013 1.327 . S
C3011 H3034 0.950 . S
C3012 C3011 1.349 . S
C3012 C3024 1.349 . S
C3013 C3011 1.327 . S
C3013 C3029 1.429 . S
C3013 H3035 0.950 . S
C3014 H3010 0.949 . S
C3014 C3022 1.574 . S
C3014 C3030 1.368 . S
H3015 C3023 0.950 . S
H3016 C3021 0.950 . S
H3017 C3022 0.949 . S
H3018 C3024 0.950 . S
H3019 C3025 0.950 . S
H3020 C3026 0.949 . S
C3021 H3016 0.950 . S
C3021 C3023 1.327 . S
C3021 C3027 1.429 . S
C3022 C3014 1.574 . S
C3022 H3017 0.949 . S
C3022 C3028 1.368 . S
C3023 C3007 1.349 . S
C3023 H3015 0.950 . S
C3023 C3021 1.327 . S
C3024 C3012 1.349 . S
C3024 H3018 0.950 . S
C3024 C3025 1.327 . S
C3025 H3019 0.950 . S
C3025 C3024 1.327 . S
C3025 C3029 1.429 . S
C3026 C3009 1.574 . S
C3026 H3020 0.949 . S
C3026 C3030 1.368 . S
C3027 C3008 1.429 . S
C3027 C3021 1.429 . S
C3027 C3028 1.523 . S
C3028 C3009 1.368 . S
C3028 C3022 1.368 . S
C3028 C3027 1.523 . S
C3029 C3013 1.429 . S
C3029 C3025 1.429 . S
C3029 C3030 1.523 . S
C3030 C3014 1.368 . S
C3030 C3026 1.368 . S
C3030 C3029 1.523 . S
H3031 C3006 0.950 . S
H3032 C3008 0.950 . S
H3033 C3009 0.949 . S
H3034 C3011 0.950 . S
H3035 C3013 0.950 . S
C3036 C3037 1.349 . S
C3036 C3038 1.327 . S
C3036 H3061 0.950 . S
C3037 C3036 1.349 . S
C3037 C3053 1.349 . S
C3038 C3036 1.327 . S
C3038 C3057 1.429 . S
C3038 H3062 0.950 . S
C3039 C3056 1.574 . S
C3039 C3058 1.368 . S
C3039 H3063 0.949 . S
H3040 C3044 0.949 . S
C3041 C3042 1.349 . S
C3041 C3043 1.327 . S
C3041 H3064 0.950 . S
C3042 C3041 1.349 . S
C3042 C3054 1.349 . S
C3043 C3041 1.327 . S
C3043 C3059 1.429 . S
C3043 H3065 0.950 . S
C3044 H3040 0.949 . S
C3044 C3052 1.574 . S
C3044 C3060 1.368 . S
H3045 C3053 0.950 . S
H3046 C3051 0.950 . S
H3047 C3052 0.949 . S
H3048 C3054 0.950 . S
H3049 C3055 0.950 . S
H3050 C3056 0.949 . S
C3051 H3046 0.950 . S
C3051 C3053 1.327 . S
C3051 C3057 1.429 . S
C3052 C3044 1.574 . S
C3052 H3047 0.949 . S
C3052 C3058 1.368 . S
C3053 C3037 1.349 . S
C3053 H3045 0.950 . S
C3053 C3051 1.327 . S
C3054 C3042 1.349 . S
C3054 H3048 0.950 . S
C3054 C3055 1.327 . S
C3055 H3049 0.950 . S
C3055 C3054 1.327 . S
C3055 C3059 1.429 . S
C3056 C3039 1.574 . S
C3056 H3050 0.949 . S
C3056 C3060 1.368 . S
C3057 C3038 1.429 . S
C3057 C3051 1.429 . S
C3057 C3058 1.523 . S
C3058 C3039 1.368 . S
C3058 C3052 1.368 . S
C3058 C3057 1.523 . S
C3059 C3043 1.429 . S
C3059 C3055 1.429 . S
C3059 C3060 1.523 . S
C3060 C3044 1.368 . S
C3060 C3056 1.368 . S
C3060 C3059 1.523 . S
H3061 C3036 0.950 . S
H3062 C3038 0.950 . S
H3063 C3039 0.949 . S
H3064 C3041 0.950 . S
H3065 C3043 0.950 . S
C3066 C3067 1.349 . S
C3066 C3068 1.327 . S
C3066 H3091 0.950 . S
C3067 C3066 1.349 . S
C3067 C3083 1.349 . S
C3068 C3066 1.327 . S
C3068 C3087 1.429 . S
C3068 H3092 0.950 . S
C3069 C3086 1.574 . S
C3069 C3088 1.368 . S
C3069 H3093 0.949 . S
H3070 C3074 0.949 . S
C3071 C3072 1.349 . S
C3071 C3073 1.327 . S
C3071 H3094 0.950 . S
C3072 C3071 1.349 . S
C3072 C3084 1.349 . S
C3073 C3071 1.327 . S
C3073 C3089 1.429 . S
C3073 H3095 0.950 . S
C3074 H3070 0.949 . S
C3074 C3082 1.574 . S
C3074 C3090 1.368 . S
H3075 C3083 0.950 . S
H3076 C3081 0.950 . S
H3077 C3082 0.949 . S
H3078 C3084 0.950 . S
H3079 C3085 0.950 . S
H3080 C3086 0.949 . S
C3081 H3076 0.950 . S
C3081 C3083 1.327 . S
C3081 C3087 1.429 . S
C3082 C3074 1.574 . S
C3082 H3077 0.949 . S
C3082 C3088 1.368 . S
C3083 C3067 1.349 . S
C3083 H3075 0.950 . S
C3083 C3081 1.327 . S
C3084 C3072 1.349 . S
C3084 H3078 0.950 . S
C3084 C3085 1.327 . S
C3085 H3079 0.950 . S
C3085 C3084 1.327 . S
C3085 C3089 1.429 . S
C3086 C3069 1.574 . S
C3086 H3080 0.949 . S
C3086 C3090 1.368 . S
C3087 C3068 1.429 . S
C3087 C3081 1.429 . S
C3087 C3088 1.523 . S
C3088 C3069 1.368 . S
C3088 C3082 1.368 . S
C3088 C3087 1.523 . S
C3089 C3073 1.429 . S
C3089 C3085 1.429 . S
C3089 C3090 1.523 . S
C3090 C3074 1.368 . S
C3090 C3086 1.368 . S
C3090 C3089 1.523 . S
H3091 C3066 0.950 . S
H3092 C3068 0.950 . S
H3093 C3069 0.949 . S
H3094 C3071 0.950 . S
H3095 C3073 0.950 . S
C3096 C3097 1.349 . S
C3096 C3098 1.327 . S
C3096 H3121 0.950 . S
C3097 C3096 1.349 . S
C3097 C3113 1.349 . S
C3098 C3096 1.327 . S
C3098 C3117 1.429 . S
C3098 H3122 0.950 . S
C3099 C3116 1.574 . S
C3099 C3118 1.368 . S
C3099 H3123 0.949 . S
H3100 C3104 0.949 . S
C3101 C3102 1.349 . S
C3101 C3103 1.327 . S
C3101 H3124 0.950 . S
C3102 C3101 1.349 . S
C3102 C3114 1.349 . S
C3103 C3101 1.327 . S
C3103 C3119 1.429 . S
C3103 H3125 0.950 . S
C3104 H3100 0.949 . S
C3104 C3112 1.574 . S
C3104 C3120 1.368 . S
H3105 C3113 0.950 . S
H3106 C3111 0.950 . S
H3107 C3112 0.949 . S
H3108 C3114 0.950 . S
H3109 C3115 0.950 . S
H3110 C3116 0.949 . S
C3111 H3106 0.950 . S
C3111 C3113 1.327 . S
C3111 C3117 1.429 . S
C3112 C3104 1.574 . S
C3112 H3107 0.949 . S
C3112 C3118 1.368 . S
C3113 C3097 1.349 . S
C3113 H3105 0.950 . S
C3113 C3111 1.327 . S
C3114 C3102 1.349 . S
C3114 H3108 0.950 . S
C3114 C3115 1.327 . S
C3115 H3109 0.950 . S
C3115 C3114 1.327 . S
C3115 C3119 1.429 . S
C3116 C3099 1.574 . S
C3116 H3110 0.949 . S
C3116 C3120 1.368 . S
C3117 C3098 1.429 . S
C3117 C3111 1.429 . S
C3117 C3118 1.523 . S
C3118 C3099 1.368 . S
C3118 C3112 1.368 . S
C3118 C3117 1.523 . S
C3119 C3103 1.429 . S
C3119 C3115 1.429 . S
C3119 C3120 1.523 . S
C3120 C3104 1.368 . S
C3120 C3116 1.368 . S
C3120 C3119 1.523 . S
H3121 C3096 0.950 . S
H3122 C3098 0.950 . S
H3123 C3099 0.949 . S
H3124 C3101 0.950 . S
H3125 C3103 0.950 . S
C3126 C3127 1.349 . S
C3126 C3128 1.327 . S
C3126 H3151 0.950 . S
C3127 C3126 1.349 . S
C3127 C3143 1.349 . S
C3128 C3126 1.327 . S
C3128 C3147 1.429 . S
C3128 H3152 0.950 . S
C3129 C3146 1.574 . S
C3129 C3148 1.368 . S
C3129 H3153 0.949 . S
H3130 C3134 0.949 . S
C3131 C3132 1.349 . S
C3131 C3133 1.327 . S
C3131 H3154 0.950 . S
C3132 C3131 1.349 . S
C3132 C3144 1.349 . S
C3133 C3131 1.327 . S
C3133 C3149 1.429 . S
C3133 H3155 0.950 . S
C3134 H3130 0.949 . S
C3134 C3142 1.574 . S
C3134 C3150 1.368 . S
H3135 C3143 0.950 . S
H3136 C3141 0.950 . S
H3137 C3142 0.949 . S
H3138 C3144 0.950 . S
H3139 C3145 0.950 . S
H3140 C3146 0.949 . S
C3141 H3136 0.950 . S
C3141 C3143 1.327 . S
C3141 C3147 1.429 . S
C3142 C3134 1.574 . S
C3142 H3137 0.949 . S
C3142 C3148 1.368 . S
C3143 C3127 1.349 . S
C3143 H3135 0.950 . S
C3143 C3141 1.327 . S
C3144 C3132 1.349 . S
C3144 H3138 0.950 . S
C3144 C3145 1.327 . S
C3145 H3139 0.950 . S
C3145 C3144 1.327 . S
C3145 C3149 1.429 . S
C3146 C3129 1.574 . S
C3146 H3140 0.949 . S
C3146 C3150 1.368 . S
C3147 C3128 1.429 . S
C3147 C3141 1.429 . S
C3147 C3148 1.523 . S
C3148 C3129 1.368 . S
C3148 C3142 1.368 . S
C3148 C3147 1.523 . S
C3149 C3133 1.429 . S
C3149 C3145 1.429 . S
C3149 C3150 1.523 . S
C3150 C3134 1.368 . S
C3150 C3146 1.368 . S
C3150 C3149 1.523 . S
H3151 C3126 0.950 . S
H3152 C3128 0.950 . S
H3153 C3129 0.949 . S
H3154 C3131 0.950 . S
H3155 C3133 0.950 . S
C3156 C3157 1.349 . S
C3156 C3158 1.327 . S
C3156 H3181 0.950 . S
C3157 C3156 1.349 . S
C3157 C3173 1.349 . S
C3158 C3156 1.327 . S
C3158 C3177 1.429 . S
C3158 H3182 0.950 . S
C3159 C3176 1.574 . S
C3159 C3178 1.368 . S
C3159 H3183 0.949 . S
H3160 C3164 0.949 . S
C3161 C3162 1.349 . S
C3161 C3163 1.327 . S
C3161 H3184 0.950 . S
C3162 C3161 1.349 . S
C3162 C3174 1.349 . S
C3163 C3161 1.327 . S
C3163 C3179 1.429 . S
C3163 H3185 0.950 . S
C3164 H3160 0.949 . S
C3164 C3172 1.574 . S
C3164 C3180 1.368 . S
H3165 C3173 0.950 . S
H3166 C3171 0.950 . S
H3167 C3172 0.949 . S
H3168 C3174 0.950 . S
H3169 C3175 0.950 . S
H3170 C3176 0.949 . S
C3171 H3166 0.950 . S
C3171 C3173 1.327 . S
C3171 C3177 1.429 . S
C3172 C3164 1.574 . S
C3172 H3167 0.949 . S
C3172 C3178 1.368 . S
C3173 C3157 1.349 . S
C3173 H3165 0.950 . S
C3173 C3171 1.327 . S
C3174 C3162 1.349 . S
C3174 H3168 0.950 . S
C3174 C3175 1.327 . S
C3175 H3169 0.950 . S
C3175 C3174 1.327 . S
C3175 C3179 1.429 . S
C3176 C3159 1.574 . S
C3176 H3170 0.949 . S
C3176 C3180 1.368 . S
C3177 C3158 1.429 . S
C3177 C3171 1.429 . S
C3177 C3178 1.523 . S
C3178 C3159 1.368 . S
C3178 C3172 1.368 . S
C3178 C3177 1.523 . S
C3179 C3163 1.429 . S
C3179 C3175 1.429 . S
C3179 C3180 1.523 . S
C3180 C3164 1.368 . S
C3180 C3176 1.368 . S
C3180 C3179 1.523 . S
H3181 C3156 0.950 . S
H3182 C3158 0.950 . S
H3183 C3159 0.949 . S
H3184 C3161 0.950 . S
H3185 C3163 0.950 . S
C3186 C3187 1.349 . S
C3186 C3188 1.327 . S
C3186 H3211 0.950 . S
C3187 C3186 1.349 . S
C3187 C3203 1.349 . S
C3188 C3186 1.327 . S
C3188 C3207 1.429 . S
C3188 H3212 0.950 . S
C3189 C3206 1.574 . S
C3189 C3208 1.368 . S
C3189 H3213 0.949 . S
H3190 C3194 0.944 . S
C3191 C3192 1.349 . S
C3191 C3193 1.327 . S
C3191 H3214 0.950 . S
C3192 C3191 1.349 . S
C3192 C3204 1.351 . S
C3193 C3191 1.327 . S
C3193 C3209 1.429 . S
C3193 H3215 0.950 . S
C3194 H3190 0.944 . S
C3194 C3202 1.574 . S
C3194 C3210 1.368 . S
H3195 C3203 0.950 . S
H3196 C3201 0.950 . S
H3197 C3202 0.949 . S
H3198 C3204 0.942 1_455 S
H3199 C3205 0.936 1_455 S
H3200 C3206 0.949 . S
C3201 H3196 0.950 . S
C3201 C3203 1.327 . S
C3201 C3207 1.429 . S
C3202 C3194 1.574 . S
C3202 H3197 0.949 . S
C3202 C3208 1.368 . S
C3203 C3187 1.349 . S
C3203 H3195 0.950 . S
C3203 C3201 1.327 . S
C3204 C3192 1.351 . S
C3204 H3198 0.942 1_655 S
C3204 C3205 1.297 . S
C3205 H3199 0.936 1_655 S
C3205 C3204 1.297 . S
C3205 C3209 1.481 . S
C3206 C3189 1.574 . S
C3206 H3200 0.949 . S
C3206 C3210 1.368 . S
C3207 C3188 1.429 . S
C3207 C3201 1.429 . S
C3207 C3208 1.523 . S
C3208 C3189 1.368 . S
C3208 C3202 1.368 . S
C3208 C3207 1.523 . S
C3209 C3193 1.429 . S
C3209 C3205 1.481 . S
C3209 C3210 1.523 . S
C3210 C3194 1.368 . S
C3210 C3206 1.368 . S
C3210 C3209 1.523 . S
H3211 C3186 0.950 . S
H3212 C3188 0.950 . S
H3213 C3189 0.949 . S
H3214 C3191 0.950 . S
H3215 C3193 0.950 . S
C3216 C3217 1.349 . S
C3216 C3218 1.327 . S
C3216 H3241 0.950 . S
C3217 C3216 1.349 . S
C3217 C3233 1.349 . S
C3218 C3216 1.327 . S
C3218 C3237 1.429 . S
C3218 H3242 0.950 . S
C3219 C3236 1.574 . S
C3219 C3238 1.368 . S
C3219 H3243 0.949 . S
H3220 C3224 0.949 . S
C3221 C3222 1.349 . S
C3221 C3223 1.327 . S
C3221 H3244 0.950 . S
C3222 C3221 1.349 . S
C3222 C3234 1.349 . S
C3223 C3221 1.327 . S
C3223 C3239 1.429 . S
C3223 H3245 0.950 . S
C3224 H3220 0.949 . S
C3224 C3232 1.574 . S
C3224 C3240 1.368 . S
H3225 C3233 0.950 . S
H3226 C3231 0.950 . S
H3227 C3232 0.949 . S
H3228 C3234 0.950 . S
H3229 C3235 0.950 . S
H3230 C3236 0.949 . S
C3231 H3226 0.950 . S
C3231 C3233 1.327 . S
C3231 C3237 1.429 . S
C3232 C3224 1.574 . S
C3232 H3227 0.949 . S
C3232 C3238 1.368 . S
C3233 C3217 1.349 . S
C3233 H3225 0.950 . S
C3233 C3231 1.327 . S
C3234 C3222 1.349 . S
C3234 H3228 0.950 . S
C3234 C3235 1.327 . S
C3235 H3229 0.950 . S
C3235 C3234 1.327 . S
C3235 C3239 1.429 . S
C3236 C3219 1.574 . S
C3236 H3230 0.949 . S
C3236 C3240 1.368 . S
C3237 C3218 1.429 . S
C3237 C3231 1.429 . S
C3237 C3238 1.523 . S
C3238 C3219 1.368 . S
C3238 C3232 1.368 . S
C3238 C3237 1.523 . S
C3239 C3223 1.429 . S
C3239 C3235 1.429 . S
C3239 C3240 1.523 . S
C3240 C3224 1.368 . S
C3240 C3236 1.368 . S
C3240 C3239 1.523 . S
H3241 C3216 0.950 . S
H3242 C3218 0.950 . S
H3243 C3219 0.949 . S
H3244 C3221 0.950 . S
H3245 C3223 0.950 . S
C3246 C3247 1.349 1_565 S
C3246 C3248 1.327 . S
C3246 H3271 0.950 . S
C3247 C3246 1.349 1_545 S
C3247 C3263 1.349 . S
C3248 C3246 1.327 . S
C3248 C3267 1.429 1_565 S
C3248 H3272 0.950 . S
C3249 C3266 1.574 . S
C3249 C3268 1.368 . S
C3249 H3273 0.949 . S
H3250 C3254 0.949 . S
C3251 C3252 1.349 . S
C3251 C3253 1.327 . S
C3251 H3274 0.950 . S
C3252 C3251 1.349 . S
C3252 C3264 1.349 1_545 S
C3253 C3251 1.327 . S
C3253 C3269 1.429 . S
C3253 H3275 0.950 . S
C3254 H3250 0.949 . S
C3254 C3262 1.574 . S
C3254 C3270 1.368 1_565 S
H3255 C3263 0.950 . S
H3256 C3261 0.950 . S
H3257 C3262 0.949 . S
H3258 C3264 0.950 . S
H3259 C3265 0.950 . S
H3260 C3266 0.949 . S
C3261 H3256 0.950 . S
C3261 C3263 1.327 . S
C3261 C3267 1.429 . S
C3262 C3254 1.574 . S
C3262 H3257 0.949 . S
C3262 C3268 1.368 1_565 S
C3263 C3247 1.349 . S
C3263 H3255 0.950 . S
C3263 C3261 1.327 . S
C3264 C3252 1.349 1_565 S
C3264 H3258 0.950 . S
C3264 C3265 1.327 . S
C3265 H3259 0.950 . S
C3265 C3264 1.327 . S
C3265 C3269 1.429 1_565 S
C3266 C3249 1.574 . S
C3266 H3260 0.949 . S
C3266 C3270 1.368 . S
C3267 C3248 1.429 1_545 S
C3267 C3261 1.429 . S
C3267 C3268 1.523 . S
C3268 C3249 1.368 . S
C3268 C3262 1.368 1_545 S
C3268 C3267 1.523 . S
C3269 C3253 1.429 . S
C3269 C3265 1.429 1_545 S
C3269 C3270 1.523 . S
C3270 C3254 1.368 1_545 S
C3270 C3266 1.368 . S
C3270 C3269 1.523 . S
H3271 C3246 0.950 . S
H3272 C3248 0.950 . S
H3273 C3249 0.949 . S
H3274 C3251 0.950 . S
H3275 C3253 0.950 . S
C1117 C8 1.480 . S
C1122 C729 1.501 . S
C1147 C22 1.552 . S
C1152 C777 1.566 . S
C1182 C825 1.512 . S
C1177 C37 1.493 1_545 S
C1207 C36 1.484 . S
C1212 C849 1.508 . S
C1237 C9 1.488 1_455 S
C1242 C921 1.514 . S
C1267 C23 1.553 . S
C1272 C969 1.567 . S
C1297 C50 1.433 1_455 S
C1302 C897 1.499 . S
C1332 C945 1.571 . S
C1327 C64 1.555 . S
C1362 C873 1.531 . S
C1357 C79 1.507 1_565 S
C1387 C78 1.432 1_545 S
C1392 C801 1.498 . S
C1422 C705 1.525 . S
C1417 C51 1.511 1_655 S
C1447 C65 1.554 . S
C1452 C753 1.570 . S
C1477 C92 1.595 . S
C1482 C1017 1.609 . S
C1507 C106 1.605 . S
C1512 C1065 1.615 . S
C1542 C1089 1.585 . S
C1537 C121 1.578 . S
C1567 C120 1.539 . S
C1572 C273 1.548 . S
C1597 C93 1.563 . S
C1602 C345 1.577 . S
C1627 C107 1.570 . S
C1632 C393 1.583 . S
C1657 C134 1.535 . S
C1662 C321 1.551 . S
C1687 C148 1.573 . S
C1692 C369 1.588 . S
C1722 C297 1.558 . S
C1717 C163 1.563 . S
C1752 C1113 1.591 . S
C1747 C162 1.597 . S
C1782 C993 1.588 . S
C1777 C135 1.575 . S
C1812 C1041 1.620 . S
C1807 C149 1.607 . S
C1837 C176 1.536 . S
C1842 C441 1.550 . S
C1867 C190 1.568 . S
C1872 C489 1.582 . S
C1897 C205 1.567 . S
C1902 C513 1.576 . S
C1927 C204 1.598 . S
C1932 C561 1.606 . S
C1962 C633 1.586 . S
C1957 C177 1.574 . S
C1992 C681 1.615 . S
C1987 C191 1.604 . S
C2022 C609 1.616 . S
C2017 C218 1.600 . S
C2052 C657 1.621 . S
C2047 C232 1.608 . S
C2077 C247 1.571 . S
C2082 C585 1.563 . S
C2112 C537 1.528 . S
C2107 C246 1.533 . S
C2137 C219 1.567 . S
C2142 C417 1.583 . S
C2172 C465 1.587 . S
C2167 C233 1.572 . S
C2202 C282 1.548 . S
C2197 C6 1.522 . S
C2227 C20 1.479 . S
C2232 C336 1.498 . S
C2262 C384 1.542 . S
C2257 C35 1.527 . S
C2292 C432 1.542 . S
C2287 C34 1.526 . S
C2322 C480 1.539 . S
C2317 C7 1.524 . S
C2352 C522 1.506 . S
C2347 C21 1.478 . S
C2377 C48 1.529 . S
C2382 C528 1.561 . S
C2407 C62 1.480 . S
C2412 C426 1.492 . S
C2437 C77 1.520 . S
C2442 C474 1.522 . S
C2467 C76 1.526 . S
C2472 C330 1.545 . S
C2502 C378 1.529 . S
C2497 C49 1.521 . S
C2527 C63 1.481 . S
C2532 C288 1.506 . S
C2562 C570 1.539 . S
C2557 C90 1.508 . S
C2587 C104 1.551 . S
C2592 C624 1.575 . S
C2617 C119 1.557 . S
C2622 C672 1.580 . S
C2652 C720 1.499 . S
C2647 C118 1.456 . S
C2677 C91 1.518 . S
C2682 C768 1.539 . S
C2707 C105 1.460 . S
C2712 C816 1.502 . S
C2737 C132 1.457 . S
C2742 C810 1.487 . S
C2767 C146 1.462 . S
C2772 C714 1.501 . S
C2802 C762 1.532 . S
C2797 C161 1.517 . S
C2827 C160 1.511 . S
C2832 C618 1.526 . S
C2857 C133 1.552 . S
C2862 C666 1.569 . S
C2892 C576 1.580 . S
C2887 C147 1.550 . S
C2922 C858 1.531 . S
C2917 C174 1.451 . S
C2947 C188 1.459 . S
C2952 C912 1.501 . S
C2977 C203 1.520 . S
C2982 C960 1.541 . S
C3012 C1008 1.533 . S
C3007 C202 1.512 . S
C3042 C1056 1.577 . S
C3037 C175 1.554 . S
C3067 C189 1.549 . S
C3072 C1098 1.583 . S
C3097 C216 1.516 . S
C3102 C1104 1.542 . S
C3127 C230 1.549 . S
C3132 C1002 1.567 . S
C3162 C1050 1.567 . S
C3157 C245 1.550 . S
C3192 C906 1.489 . S
C3187 C244 1.447 . S
C3222 C954 1.535 . S
C3217 C217 1.520 . S
C3247 C231 1.464 . S
C3252 C864 1.505 . S
