# Generated by pormake.
# Topology pts, (4,4)-cn, num edge types: 1
# Building blocks:
#     Node 0, Type 0, BuildingBlock: KUFVIS_clean_linker_0, # of connection points: 4
#     Node 1, Type 0, BuildingBlock: KUFVIS_clean_linker_0, # of connection points: 4
#     Node 2, Type 1, BuildingBlock: QUQFOY_clean_sbu_1, # of connection points: 4
#     Node 3, Type 1, BuildingBlock: QUQFOY_clean_sbu_1, # of connection points: 4
#     Edge 4, Type (0, 1), BuildingBlock: MIFKUJ_clean_linker_0, # of connection points: 2
#     Edge 5, Type (0, 1), BuildingBlock: MIFKUJ_clean_linker_0, # of connection points: 2
#     Edge 6, Type (0, 1), BuildingBlock: MIFKUJ_clean_linker_0, # of connection points: 2
#     Edge 7, Type (0, 1), BuildingBlock: MIFKUJ_clean_linker_0, # of connection points: 2
#     Edge 8, Type (0, 1), BuildingBlock: MIFKUJ_clean_linker_0, # of connection points: 2
#     Edge 9, Type (0, 1), BuildingBlock: MIFKUJ_clean_linker_0, # of connection points: 2
#     Edge 10, Type (0, 1), BuildingBlock: MIFKUJ_clean_linker_0, # of connection points: 2
#     Edge 11, Type (0, 1), BuildingBlock: MIFKUJ_clean_linker_0, # of connection points: 2
# Relax obj value: 0.104
# Max RMSD: 0.274
# Mean RMSD: 0.186
data_MOF--net-pts--node1-QUQFOY_clean_sbu_1--node2-KUFVIS_clean_linker_0--edge1-MIFKUJ_clean_linker_0
_symmetry_space_group_name_H-M    P1
_symmetry_Int_Tables_number       1
_symmetry_cell_setting            triclinic
loop_
_symmetry_equiv_pos_as_xyz
'x, y, z'
_cell_length_a     31.743884
_cell_length_b     34.934116
_cell_length_c     46.187927
_cell_angle_alpha  89.994021
_cell_angle_beta   90.113168
_cell_angle_gamma 90.226152
loop_
_atom_site_label
_atom_site_type_symbol
_atom_site_fract_x
_atom_site_fract_y
_atom_site_fract_z
_atom_type_partial_charge
H0 H 0.36076 0.99637 0.99496 0.0
H1 H 0.48038 0.99309 0.95277 0.0
H2 H 0.47156 0.01966 0.04445 0.0
H3 H 0.53312 0.99485 0.04774 0.0
H4 H 0.65344 1.00277 0.00745 0.0
H5 H 0.54284 0.01701 0.95549 0.0
C6 C 0.39482 0.99894 0.996 0.0
C7 C 0.41411 0.00693 0.0225 0.0
C8 C 0.41865 0.99539 0.97076 0.0
C9 C 0.46275 0.99822 0.97236 0.0
C10 C 0.48333 1.00613 0.99901 0.0
C11 C 0.45789 0.01196 0.0238 0.0
C12 C 0.53078 1.00656 0.00128 0.0
C13 C 0.55097 1.00023 0.02826 0.0
C14 C 0.59497 0.99921 0.03044 0.0
C15 C 0.61937 1.00328 0.00555 0.0
C16 C 0.60066 0.00857 0.97839 0.0
C17 C 0.55655 0.01152 0.97649 0.0
H18 H 0.00479 0.64427 0.50666 0.0
H19 H 0.97653 0.53525 0.54401 0.0
H20 H 0.03518 0.54311 0.45926 0.0
H21 H 1.00327 0.48857 0.45137 0.0
H22 H 0.00612 0.37845 0.49096 0.0
H23 H 0.00519 0.4781 0.54508 0.0
C24 C 0.00534 0.61327 0.50518 0.0
C25 C 0.0211 0.59594 0.48028 0.0
C26 C 0.98985 0.59151 0.52818 0.0
C27 C 0.98987 0.55138 0.52626 0.0
C28 C 0.00567 0.53276 0.50124 0.0
C29 C 0.0216 0.55584 0.47841 0.0
C30 C 0.0052 0.48971 0.49867 0.0
C31 C 0.00478 0.47191 0.47108 0.0
C32 C 0.00588 0.43201 0.46858 0.0
C33 C 0.00526 0.40935 0.49335 0.0
C34 C 1.00333 0.42568 0.52095 0.0
C35 C 0.00476 0.46585 0.52359 0.0
O36 O 0.94827 0.97383 0.2373 0.0
Cd37 Cd 0.00675 0.9657 0.25565 0.0
Cd38 Cd 1.00236 0.05121 0.25615 0.0
O39 O 0.94418 0.03699 0.23873 0.0
O40 O 0.00901 0.90889 0.25986 0.0
O41 O 0.01365 0.94827 0.29714 0.0
C42 C 0.01309 0.91363 0.28736 0.0
C43 C 1.00298 0.10643 0.28512 0.0
C44 C 0.92826 1.00459 0.2324 0.0
C45 C 0.07461 0.01126 0.22463 0.0
O46 O 0.05685 0.04213 0.2325 0.0
O47 O 0.05928 0.97885 0.2315 0.0
O48 O 0.99902 0.10821 0.25743 0.0
O49 O 0.00672 0.07296 0.2967 0.0
O50 O 0.95748 0.04468 0.76784 0.0
Cd51 Cd 0.01224 0.05194 0.74416 0.0
Cd52 Cd 1.00353 0.96568 0.74494 0.0
O53 O 0.9494 0.98174 0.7663 0.0
O54 O 0.01827 0.10879 0.74187 0.0
O55 O 0.00779 0.07255 0.70335 0.0
C56 C 0.01324 0.10625 0.71429 0.0
C57 C 0.99726 0.91138 0.71531 0.0
C58 C 0.93649 0.01464 0.77392 0.0
C59 C 0.08325 1.00331 0.76903 0.0
O60 O 0.06135 0.97325 0.76487 0.0
O61 O 0.06963 0.03601 0.76152 0.0
O62 O 0.99928 0.90865 0.74306 0.0
O63 O 0.99875 0.94521 0.70406 0.0
H64 H 0.36552 0.95013 0.04388 0.0
H65 H 0.31309 0.95448 0.08238 0.0
H66 H 0.34914 0.07195 0.09791 0.0
H67 H 0.40279 0.0672 0.0596 0.0
H68 H 0.32815 0.03413 0.14868 0.0
H69 H 0.26731 0.0545 0.0556 0.0
H70 H 0.25348 0.04039 0.00414 0.0
H71 H 0.19416 0.93422 0.02767 0.0
H72 H 0.20833 0.94735 0.07927 0.0
H73 H 0.12522 0.07347 0.21379 0.0
H74 H 0.18791 0.07602 0.18292 0.0
H75 H 0.17368 0.95581 0.16395 0.0
H76 H 0.11141 0.95283 0.19483 0.0
H77 H 0.18369 1.00235 0.11474 0.0
H78 H 0.24841 0.98234 0.20837 0.0
H79 H 0.26305 0.99788 0.25949 0.0
H80 H 0.31367 0.10705 0.2343 0.0
H81 H 0.29876 0.09236 0.18302 0.0
C82 C 0.36276 0.97662 0.05593 0.0
C83 C 0.3877 0.00845 0.04875 0.0
C84 C 0.3328 0.97914 0.07781 0.0
C85 C 0.32658 0.01381 0.09252 0.0
C86 C 0.35332 0.04501 0.08668 0.0
C87 C 0.38384 0.04232 0.06488 0.0
C88 C 0.28989 0.01787 0.1121 0.0
C89 C 0.29646 0.02779 0.1412 0.0
C90 C 0.24856 0.00948 0.1023 0.0
C91 C 0.23917 1.0018 0.07131 0.0
C92 C 0.25153 0.02803 0.0498 0.0
C93 C 0.24364 0.02021 0.0206 0.0
C94 C 0.22302 0.98639 0.01264 0.0
C95 C 0.21015 0.96039 0.03388 0.0
C96 C 0.21808 0.96802 0.06311 0.0
C97 C 0.13554 0.04754 0.20314 0.0
C98 C 0.11324 0.01295 0.20673 0.0
C99 C 0.17144 0.04904 0.18563 0.0
C100 C 0.18541 0.01607 0.17126 0.0
C101 C 0.16336 0.98155 0.17489 0.0
C102 C 0.12783 0.97991 0.1926 0.0
C103 C 0.22204 0.01759 0.15148 0.0
C104 C 0.21533 0.00895 0.1222 0.0
C105 C 0.26299 0.02761 0.1611 0.0
C106 C 0.272 0.03644 0.1919 0.0
C107 C 0.26228 0.00981 0.21375 0.0
C108 C 0.27071 0.01843 0.24275 0.0
C109 C 0.28915 0.05349 0.25015 0.0
C110 C 0.29931 0.07994 0.22854 0.0
C111 C 0.2909 0.07147 0.19951 0.0
H112 H 0.29567 0.0601 0.27261 0.0
H113 H 0.21696 0.98038 0.99002 0.0
H114 H 0.95302 0.36284 0.5256 0.0
H115 H 0.95417 0.31392 0.56276 0.0
H116 H 0.04346 0.38087 0.6122 0.0
H117 H 0.04473 0.42918 0.57353 0.0
H118 H 0.06876 0.31119 0.61127 0.0
H119 H 0.93683 0.36614 0.63421 0.0
H120 H 0.8659 0.39234 0.62559 0.0
H121 H 0.82418 0.28341 0.59314 0.0
H122 H 0.89501 0.25666 0.60118 0.0
H123 H 0.04255 0.17715 0.72876 0.0
H124 H 0.04018 0.23566 0.69966 0.0
H125 H 0.98033 0.17339 0.63017 0.0
H126 H 0.98323 0.11442 0.659 0.0
H127 H 0.94026 0.24536 0.64711 0.0
H128 H 0.07715 0.19404 0.62171 0.0
H129 H 0.14821 0.16977 0.63284 0.0
H130 H 0.17966 0.27603 0.67447 0.0
H131 H 0.10853 0.30074 0.66393 0.0
C132 C 0.97292 0.36733 0.54439 0.0
C133 C 0.9993 0.39971 0.54637 0.0
C134 C 0.97306 0.33947 0.56593 0.0
C135 C 0.99846 0.34374 0.59063 0.0
C136 C 0.02351 0.3769 0.59338 0.0
C137 C 0.02392 0.4047 0.57143 0.0
C138 C 1.00083 0.31208 0.61219 0.0
C139 C 0.04059 0.29743 0.6196 0.0
C140 C 0.96417 0.29357 0.62289 0.0
C141 C 0.92136 0.30945 0.61817 0.0
C142 C 0.91261 0.34782 0.62507 0.0
C143 C 0.8724 0.36277 0.62031 0.0
C144 C 0.84057 0.33957 0.60879 0.0
C145 C 0.84886 0.30135 0.60207 0.0
C146 C 0.88902 0.28625 0.60678 0.0
C147 C 0.02904 0.17583 0.70722 0.0
C148 C 0.01308 0.14116 0.69613 0.0
C149 C 0.02778 0.20928 0.69065 0.0
C150 C 0.0101 0.20879 0.66282 0.0
C151 C 0.99406 0.17429 0.65166 0.0
C152 C 0.99592 0.14063 0.66806 0.0
C153 C 0.00793 0.2444 0.64545 0.0
C154 C 0.96825 0.25966 0.63899 0.0
C155 C 0.04459 0.26386 0.6361 0.0
C156 C 0.08737 0.24906 0.64233 0.0
C157 C 0.09908 0.21209 0.63348 0.0
C158 C 0.1394 0.19829 0.63962 0.0
C159 C 0.16839 0.2213 0.65443 0.0
C160 C 0.15715 0.25821 0.66305 0.0
C161 C 0.11685 0.27214 0.65697 0.0
H162 H 0.19959 0.21057 0.65917 0.0
H163 H 0.80947 0.35121 0.60511 0.0
H164 H 0.587 0.04335 0.0788 0.0
H165 H 0.63324 0.04296 0.12156 0.0
H166 H 0.69827 0.94454 0.08762 0.0
H167 H 0.65244 0.94506 0.04494 0.0
H168 H 0.68761 0.94276 0.14879 0.0
H169 H 0.7356 0.02856 0.07238 0.0
H170 H 0.72688 0.08279 0.03873 0.0
H171 H 0.70592 0.15849 0.11048 0.0
H172 H 0.71385 0.10451 0.14454 0.0
H173 H 0.89584 0.94569 0.20054 0.0
H174 H 0.82969 0.94414 0.17374 0.0
H175 H 0.79951 0.05702 0.20537 0.0
H176 H 0.86687 0.05943 0.23118 0.0
H177 H 0.78374 0.05506 0.1515 0.0
H178 H 0.74657 0.97162 0.22886 0.0
H179 H 0.75457 0.91771 0.26286 0.0
H180 H 0.75326 0.83842 0.19183 0.0
H181 H 0.74583 0.89189 0.15735 0.0
C182 C 0.6104 0.02104 0.08097 0.0
C183 C 0.61647 0.99436 0.05864 0.0
C184 C 0.63684 0.02093 0.10526 0.0
C185 C 0.66938 0.99392 0.10756 0.0
C186 C 0.67333 0.96556 0.08627 0.0
C187 C 0.6473 0.96594 0.06189 0.0
C188 C 0.70236 0.99758 0.13013 0.0
C189 C 0.70871 0.96725 0.14951 0.0
C190 C 0.72913 0.02999 0.13141 0.0
C191 C 0.72479 0.06245 0.11096 0.0
C192 C 0.72878 0.05671 0.08095 0.0
C193 C 0.72404 0.0874 0.06181 0.0
C194 C 0.71572 0.12404 0.07245 0.0
C195 C 0.71226 0.13008 0.10227 0.0
C196 C 0.71688 0.09945 0.12149 0.0
C197 C 0.87493 0.97004 0.20206 0.0
C198 C 0.8866 1.00269 0.21799 0.0
C199 C 0.83686 0.96901 0.18687 0.0
C200 C 0.80903 1.00017 0.1879 0.0
C201 C 0.82032 0.03256 0.20426 0.0
C202 C 0.85881 0.0339 0.21903 0.0
C203 C 0.76972 0.9999 0.17025 0.0
C204 C 0.76223 0.03085 0.15154 0.0
C205 C 0.74173 0.96814 0.16982 0.0
C206 C 0.74587 0.93583 0.1905 0.0
C207 C 0.74823 0.94271 0.22047 0.0
C208 C 0.75263 0.91222 0.23983 0.0
C209 C 0.75448 0.87467 0.22951 0.0
C210 C 0.75182 0.86753 0.1998 0.0
C211 C 0.74744 0.89791 0.18034 0.0
H212 H 0.75792 0.85111 0.24453 0.0
H213 H 0.71207 0.14778 0.0576 0.0
H214 H 0.92702 0.64359 0.5308 0.0
H215 H 0.92001 0.69383 0.56733 0.0
H216 H 0.01474 0.63889 0.61968 0.0
H217 H 0.02203 0.5885 0.5829 0.0
H218 H 0.94451 0.67965 0.65132 0.0
H219 H 0.05122 0.69828 0.57674 0.0
H220 H 0.07439 0.69955 0.52584 0.0
H221 H 0.98267 0.78596 0.50663 0.0
H222 H 0.95862 0.78487 0.55745 0.0
H223 H 0.0206 0.83896 0.72951 0.0
H224 H 0.01308 0.78095 0.70058 0.0
H225 H 0.95509 0.84652 0.63211 0.0
H226 H 0.96491 0.90515 0.6605 0.0
H227 H 1.0036 0.79877 0.60875 0.0
H228 H 0.89808 0.78499 0.68156 0.0
H229 H 0.86889 0.78318 0.73098 0.0
H230 H 0.94956 0.68884 0.75224 0.0
H231 H 0.97963 0.69041 0.70304 0.0
C232 C 0.94498 0.64136 0.55071 0.0
C233 C 0.97515 0.61236 0.5541 0.0
C234 C 0.94112 0.67014 0.57145 0.0
C235 C 0.96736 0.67033 0.5959 0.0
C236 C 0.99424 0.63916 0.60091 0.0
C237 C 0.99821 0.6103 0.58002 0.0
C238 C 0.9714 0.70566 0.61344 0.0
C239 C 0.9578 0.70566 0.64225 0.0
C240 C 0.98765 0.73977 0.60117 0.0
C241 C 1.00287 0.74123 0.57082 0.0
C242 C 0.03583 0.71738 0.56163 0.0
C243 C 0.04912 0.71808 0.53279 0.0
C244 C 0.02987 0.74268 0.51296 0.0
C245 C 0.99747 0.76685 0.522 0.0
C246 C 0.98405 0.76625 0.55083 0.0
C247 C 0.00628 0.84101 0.70826 0.0
C248 C 0.99315 0.87655 0.6973 0.0
C249 C 1.00164 0.80771 0.6918 0.0
C250 C 0.98247 0.80896 0.66436 0.0
C251 C 0.9698 0.84462 0.65324 0.0
C252 C 0.97538 0.87815 0.66946 0.0
C253 C 0.97663 0.77326 0.64705 0.0
C254 C 0.99005 0.77304 0.61808 0.0
C255 C 0.95948 0.73918 0.6591 0.0
C256 C 0.94137 0.73805 0.68868 0.0
C257 C 0.90979 0.76403 0.69683 0.0
C258 C 0.89306 0.76302 0.7248 0.0
C259 C 0.90743 0.73597 0.74476 0.0
C260 C 0.93849 0.7098 0.73677 0.0
C261 C 0.95536 0.71071 0.70883 0.0
H262 H 0.89444 0.73524 0.7664 0.0
H263 H 0.04014 0.74313 0.49063 0.0
H264 H 0.35972 0.94135 0.9574 0.0
H265 H 0.31284 0.94059 0.9153 0.0
H266 H 0.37888 0.03787 0.87967 0.0
H267 H 0.42607 0.03861 0.92189 0.0
H268 H 0.29251 0.04885 0.88523 0.0
H269 H 0.38451 0.9548 0.8451 0.0
H270 H 0.42663 0.89566 0.84517 0.0
H271 H 0.31471 0.82884 0.85922 0.0
H272 H 0.27196 0.88763 0.85965 0.0
H273 H 0.14821 0.05503 0.7686 0.0
H274 H 0.21452 0.05163 0.79547 0.0
H275 H 0.17688 0.94251 0.83107 0.0
H276 H 0.11151 0.94495 0.8032 0.0
H277 H 0.25641 0.94016 0.82057 0.0
H278 H 0.16654 0.03083 0.86871 0.0
H279 H 0.12196 0.08827 0.87261 0.0
H280 H 0.22666 0.15929 0.84803 0.0
H281 H 0.27174 0.10218 0.84365 0.0
C282 C 0.36487 0.96193 0.9402 0.0
C283 C 0.39642 0.99005 0.94282 0.0
C284 C 0.33818 0.96143 0.91615 0.0
C285 C 0.34243 0.98914 0.89434 0.0
C286 C 0.3752 0.01617 0.89623 0.0
C287 C 0.40227 0.01641 0.9202 0.0
C288 C 0.30981 0.99221 0.87142 0.0
C289 C 0.28521 0.02546 0.87057 0.0
C290 C 0.29949 0.96117 0.85305 0.0
C291 C 0.32506 0.92569 0.85257 0.0
C292 C 0.3689 0.92753 0.8484 0.0
C293 C 0.39289 0.89405 0.84832 0.0
C294 C 0.37337 0.85852 0.85224 0.0
C295 C 0.32979 0.85638 0.85618 0.0
C296 C 0.30566 0.88977 0.8563 0.0
C297 C 0.15424 0.03018 0.78199 0.0
C298 C 0.12446 1.0004 0.78395 0.0
C299 C 0.1921 0.02833 0.79745 0.0
C300 C 0.20044 0.99718 0.81583 0.0
C301 C 0.17127 0.96688 0.81709 0.0
C302 C 0.13379 0.96836 0.8012 0.0
C303 C 0.23861 0.99666 0.83462 0.0
C304 C 0.26413 0.96387 0.83482 0.0
C305 C 0.24937 0.02786 0.85286 0.0
C306 C 0.22235 0.06221 0.85552 0.0
C307 C 0.17996 0.05868 0.86394 0.0
C308 C 0.15462 0.09117 0.86626 0.0
C309 C 0.17143 0.12739 0.86047 0.0
C310 C 0.21366 0.1312 0.85244 0.0
C311 C 0.23912 0.09879 0.85005 0.0
H312 H 0.15177 0.15251 0.86229 0.0
H313 H 0.39199 0.83264 0.85218 0.0
H314 H 0.93936 0.41013 0.43567 0.0
H315 H 0.9401 0.35921 0.39911 0.0
H316 H 0.07575 0.35529 0.40417 0.0
H317 H 0.07489 0.40643 0.44051 0.0
H318 H 0.04772 0.33836 0.3494 0.0
H319 H 0.02224 0.29932 0.44686 0.0
H320 H 0.98651 0.30158 0.49418 0.0
H321 H 0.86962 0.26962 0.45377 0.0
H322 H 0.90457 0.26775 0.40609 0.0
H323 H 0.02287 0.1147 0.34266 0.0
H324 H 0.02571 0.17431 0.37062 0.0
H325 H 0.9854 0.23753 0.29531 0.0
H326 H 0.98373 0.17854 0.26718 0.0
H327 H 0.97003 0.22474 0.38616 0.0
H328 H 0.02846 0.32556 0.29412 0.0
H329 H 0.07285 0.3223 0.2504 0.0
H330 H 0.13907 0.22614 0.28593 0.0
H331 H 0.0955 0.22915 0.33 0.0
C332 C 0.96932 0.39959 0.42787 0.0
C333 C 0.0071 0.41231 0.44043 0.0
C334 C 0.96975 0.37029 0.40727 0.0
C335 C 0.00796 0.35305 0.39932 0.0
C336 C 0.04597 0.3682 0.40997 0.0
C337 C 0.04551 0.39751 0.43056 0.0
C338 C 0.00797 0.31631 0.38323 0.0
C339 C 0.03049 0.31358 0.35725 0.0
C340 C 0.98691 0.28355 0.39416 0.0
C341 C 0.96593 0.28376 0.42286 0.0
C342 C 0.98886 0.29299 0.44803 0.0
C343 C 0.96876 0.2942 0.47492 0.0
C344 C 0.92579 0.28587 0.47697 0.0
C345 C 0.90289 0.27613 0.45214 0.0
C346 C 0.92283 0.27497 0.42517 0.0
C347 C 0.01467 0.14134 0.3321 0.0
C348 C 1.00341 0.14192 0.30266 0.0
C349 C 0.01621 0.17538 0.3481 0.0
C350 C 0.00642 0.21057 0.33497 0.0
C351 C 0.99408 0.21095 0.30578 0.0
C352 C 0.99294 0.1771 0.28974 0.0
C353 C 0.00885 0.2469 0.35172 0.0
C354 C 0.98697 0.24952 0.37803 0.0
C355 C 0.03172 0.27916 0.34154 0.0
C356 C 0.0584 0.27737 0.31523 0.0
C357 C 0.0526 0.30382 0.29264 0.0
C358 C 0.0776 0.302 0.2678 0.0
C359 C 0.10866 0.27395 0.26535 0.0
C360 C 0.11489 0.24775 0.2878 0.0
C361 C 0.09002 0.24948 0.3127 0.0
H362 H 0.12796 0.27258 0.24609 0.0
H363 H 0.91027 0.28688 0.4978 0.0
H364 H 0.59666 0.05754 0.93152 0.0
H365 H 0.64751 0.06248 0.89148 0.0
H366 H 0.71753 0.968 0.92711 0.0
H367 H 0.66667 0.96204 0.96625 0.0
H368 H 0.76568 0.03627 0.91692 0.0
H369 H 0.66499 0.95106 0.87063 0.0
H370 H 0.59471 0.93329 0.85207 0.0
H371 H 0.59642 0.0303 0.79498 0.0
H372 H 0.66652 0.04897 0.81354 0.0
H373 H 0.87841 0.95839 0.78479 0.0
H374 H 0.81497 0.96282 0.81445 0.0
H375 H 0.84056 0.08236 0.83007 0.0
H376 H 0.90418 0.0783 0.80041 0.0
H377 H 0.74177 0.00834 0.81282 0.0
H378 H 0.81972 0.09698 0.90259 0.0
H379 H 0.89053 0.11162 0.92193 0.0
H380 H 0.93477 1.00198 0.8933 0.0
H381 H 0.86412 0.98654 0.87416 0.0
C382 C 0.62245 0.0374 0.93044 0.0
C383 C 0.62806 0.00982 0.95232 0.0
C384 C 0.65151 0.04037 0.90769 0.0
C385 C 0.68646 0.01587 0.90664 0.0
C386 C 0.69105 0.98746 0.92777 0.0
C387 C 0.66202 0.98423 0.95018 0.0
C388 C 0.71981 0.02051 0.88458 0.0
C389 C 0.76033 0.03063 0.89409 0.0
C390 C 0.71279 0.01293 0.8549 0.0
C391 C 0.67072 1.0017 0.84375 0.0
C392 C 0.65019 0.96884 0.85435 0.0
C393 C 0.61043 0.95854 0.84377 0.0
C394 C 0.59104 0.98073 0.82243 0.0
C395 C 0.61143 0.0132 0.81156 0.0
C396 C 0.65118 0.02364 0.82209 0.0
C397 C 0.87045 0.98574 0.79433 0.0
C398 C 0.89667 0.0179 0.79046 0.0
C399 C 0.83397 0.98826 0.81108 0.0
C400 C 0.82319 0.02285 0.82451 0.0
C401 C 0.84846 0.05535 0.81995 0.0
C402 C 0.88484 0.05293 0.80304 0.0
C403 C 0.78766 0.02388 0.84525 0.0
C404 C 0.74685 0.01483 0.83553 0.0
C405 C 0.79437 0.03216 0.87488 0.0
C406 C 0.83682 0.04085 0.88665 0.0
C407 C 0.84457 0.07599 0.90051 0.0
C408 C 0.88466 0.08442 0.91142 0.0
C409 C 0.91717 0.05781 0.90874 0.0
C410 C 0.90961 0.02263 0.89525 0.0
C411 C 0.86957 0.01405 0.88434 0.0
H412 H 0.94819 0.0644 0.91718 0.0
H413 H 0.56027 0.9727 0.81426 0.0
H414 H 0.99492 0.59343 0.42391 0.0
H415 H 1.00214 0.645 0.3881 0.0
H416 H 0.08251 0.70747 0.44701 0.0
H417 H 0.0758 0.65593 0.48254 0.0
H418 H 0.0113 0.74755 0.43018 0.0
H419 H 0.12221 0.67484 0.38546 0.0
H420 H 0.15336 0.61745 0.36314 0.0
H421 H 0.05972 0.61999 0.29597 0.0
H422 H 0.02763 0.67711 0.31811 0.0
H423 H 0.04522 0.91134 0.34244 0.0
H424 H 0.05375 0.85499 0.3734 0.0
H425 H 0.99684 0.78427 0.30726 0.0
H426 H 0.99027 0.84006 0.27584 0.0
H427 H 0.05836 0.74748 0.3279 0.0
H428 H 0.94445 0.81548 0.37131 0.0
H429 H 0.90697 0.86964 0.39361 0.0
H430 H 0.99719 0.87242 0.46297 0.0
H431 H 0.03563 0.81866 0.44084 0.0
C432 C 0.01541 0.6175 0.42869 0.0
C433 C 0.03451 0.62095 0.45603 0.0
C434 C 0.01934 0.64702 0.40832 0.0
C435 C 0.04253 0.68021 0.41506 0.0
C436 C 0.06423 0.68224 0.44148 0.0
C437 C 0.06047 0.65279 0.4617 0.0
C438 C 0.04018 0.71459 0.39629 0.0
C439 C 0.02224 0.74783 0.40793 0.0
C440 C 0.05289 0.7143 0.367 0.0
C441 C 0.0723 0.68007 0.3536 0.0
C442 C 0.10804 0.66298 0.36606 0.0
C443 C 0.12592 0.63053 0.35342 0.0
C444 C 0.10847 0.61503 0.32819 0.0
C445 C 0.07318 0.63201 0.31552 0.0
C446 C 0.05517 0.66445 0.32809 0.0
C447 C 0.03446 0.88376 0.33459 0.0
C448 C 0.01701 0.88012 0.30676 0.0
C449 C 0.03917 0.85155 0.35234 0.0
C450 C 0.02541 0.81527 0.3429 0.0
C451 C 0.00786 0.81178 0.31509 0.0
C452 C 0.00395 0.84377 0.29716 0.0
C453 C 0.0295 0.78084 0.36177 0.0
C454 C 0.04758 0.74747 0.35017 0.0
C455 C 0.01603 0.78069 0.39101 0.0
C456 C 0.99327 0.81338 0.40417 0.0
C457 C 0.95657 0.82791 0.39114 0.0
C458 C 0.9351 0.85849 0.40379 0.0
C459 C 0.94979 0.87457 0.42962 0.0
C460 C 0.98593 0.86003 0.44291 0.0
C461 C 0.00758 0.82951 0.43032 0.0
H462 H 0.93309 0.8982 0.4394 0.0
H463 H 0.12235 0.5899 0.31844 0.0
loop_
_geom_bond_atom_site_label_1
_geom_bond_atom_site_label_2
_geom_bond_distance
_geom_bond_site_symmetry_2
_ccdc_geom_bond_type
H0 C6 0.928 1_565 S
H1 C9 0.931 . S
H2 C11 0.931 1_565 S
H3 C13 0.930 . S
H4 C15 0.930 . S
H5 C17 0.930 1_565 S
C6 H0 0.928 1_545 S
C6 C7 1.380 1_545 S
C6 C8 1.394 1_554 S
C7 C6 1.380 1_565 S
C7 C11 1.382 1_565 S
C8 C6 1.394 1_556 S
C8 C9 1.400 . S
C9 H1 0.931 . S
C9 C8 1.400 . S
C9 C10 1.375 1_556 S
C10 C9 1.375 1_554 S
C10 C11 1.415 . S
C10 C12 1.501 . S
C11 H2 0.931 1_545 S
C11 C7 1.382 1_545 S
C11 C10 1.415 . S
C12 C10 1.501 . S
C12 C13 1.384 . S
C12 C17 1.408 1_554 S
C13 H3 0.930 . S
C13 C12 1.384 . S
C13 C14 1.389 . S
C14 C13 1.389 . S
C14 C15 1.440 . S
C15 H4 0.930 . S
C15 C14 1.440 . S
C15 C16 1.330 1_544 S
C16 C15 1.330 1_566 S
C16 C17 1.400 1_565 S
C17 H5 0.930 1_545 S
C17 C12 1.408 1_556 S
C17 C16 1.400 1_545 S
H18 C24 0.930 . S
H19 C27 0.931 . S
H20 C29 0.931 . S
H21 C31 0.930 . S
H22 C33 0.931 . S
H23 C35 0.931 . S
C24 H18 0.930 . S
C24 C25 1.380 . S
C24 C26 1.394 1_455 S
C25 C24 1.380 . S
C25 C29 1.382 . S
C26 C24 1.394 1_655 S
C26 C27 1.400 . S
C27 H19 0.931 . S
C27 C26 1.400 . S
C27 C28 1.375 . S
C28 C27 1.375 . S
C28 C29 1.415 1_655 S
C28 C30 1.501 . S
C29 H20 0.931 . S
C29 C25 1.382 . S
C29 C28 1.415 1_455 S
C30 C28 1.501 . S
C30 C31 1.384 . S
C30 C35 1.408 1_655 S
C31 H21 0.930 . S
C31 C30 1.384 . S
C31 C32 1.389 . S
C32 C31 1.389 . S
C32 C33 1.407 . S
C33 H22 0.931 . S
C33 C32 1.407 . S
C33 C34 1.362 1_655 S
C34 C33 1.362 1_455 S
C34 C35 1.400 . S
C35 H23 0.931 . S
C35 C30 1.408 1_455 S
C35 C34 1.400 . S
O36 Cd37 2.223 1_655 S
O36 C44 1.315 . S
Cd37 O36 2.223 1_455 S
Cd37 O40 2.297 1_455 S
Cd37 O41 2.439 1_455 S
Cd37 O47 2.240 1_565 S
Cd38 O39 2.240 1_545 S
Cd38 O46 2.223 1_655 S
Cd38 O48 2.297 1_655 S
Cd38 O49 2.439 1_655 S
O39 Cd38 2.240 1_565 S
O39 C44 1.279 . S
O40 Cd37 2.297 1_655 S
O40 C42 1.247 . S
O41 Cd37 2.439 1_655 S
O41 C42 1.208 . S
C42 O40 1.247 . S
C42 O41 1.208 . S
C43 O48 1.247 . S
C43 O49 1.208 . S
C44 O36 1.315 . S
C44 O39 1.279 . S
C45 O46 1.315 . S
C45 O47 1.279 . S
O46 Cd38 2.223 1_455 S
O46 C45 1.315 . S
O47 Cd37 2.240 1_545 S
O47 C45 1.279 . S
O48 Cd38 2.297 1_455 S
O48 C43 1.247 . S
O49 Cd38 2.439 1_455 S
O49 C43 1.208 . S
O50 Cd51 2.223 1_655 S
O50 C58 1.315 . S
Cd51 O50 2.223 1_455 S
Cd51 O54 2.297 1_455 S
Cd51 O55 2.439 1_455 S
Cd51 O61 2.240 1_545 S
Cd52 O53 2.240 1_565 S
Cd52 O60 2.223 1_655 S
Cd52 O62 2.297 1_655 S
Cd52 O63 2.439 1_655 S
O53 Cd52 2.240 1_545 S
O53 C58 1.279 . S
O54 Cd51 2.297 1_655 S
O54 C56 1.247 . S
O55 Cd51 2.439 1_655 S
O55 C56 1.208 . S
C56 O54 1.247 . S
C56 O55 1.208 . S
C57 O62 1.247 . S
C57 O63 1.208 . S
C58 O50 1.315 . S
C58 O53 1.279 . S
C59 O60 1.315 . S
C59 O61 1.279 . S
O60 Cd52 2.223 1_455 S
O60 C59 1.315 . S
O61 Cd51 2.240 1_565 S
O61 C59 1.279 . S
O62 Cd52 2.297 1_455 S
O62 C57 1.247 . S
O63 Cd52 2.439 1_455 S
O63 C57 1.208 . S
H64 C82 0.951 . S
H65 C84 0.951 . S
H66 C86 0.950 . S
H67 C87 0.950 . S
H68 C89 0.950 1_565 S
H69 C92 0.950 . S
H70 C93 0.950 . S
H71 C95 0.950 . S
H72 C96 0.950 1_565 S
H73 C97 0.951 . S
H74 C99 0.951 . S
H75 C101 0.950 . S
H76 C102 0.965 . S
H77 C104 0.950 . S
H78 C107 0.950 . S
H79 C108 0.950 . S
H80 C110 0.950 1_545 S
H81 C111 0.950 . S
C82 H64 0.951 . S
C82 C83 1.366 . S
C82 C84 1.388 . S
C83 C82 1.366 . S
C83 C87 1.385 1_565 S
C84 H65 0.951 . S
C84 C82 1.388 . S
C84 C85 1.366 1_565 S
C85 C84 1.366 1_545 S
C85 C86 1.414 . S
C85 C88 1.499 . S
C86 H66 0.950 . S
C86 C85 1.414 . S
C86 C87 1.374 . S
C87 H67 0.950 . S
C87 C83 1.385 1_545 S
C87 C86 1.374 . S
C88 C85 1.499 . S
C88 C89 1.373 . S
C88 C90 1.389 . S
C89 H68 0.950 1_545 S
C89 C88 1.373 . S
C89 C105 1.377 . S
C90 C88 1.389 . S
C90 C91 1.524 . S
C90 C104 1.377 . S
C91 C90 1.524 . S
C91 C92 1.397 . S
C91 C96 1.363 . S
C92 H69 0.950 . S
C92 C91 1.397 . S
C92 C93 1.334 . S
C93 H70 0.950 . S
C93 C92 1.334 . S
C93 C94 1.287 . S
C94 C93 1.287 . S
C94 C95 1.524 . S
C94 H113 0.913 1_554 S
C95 H71 0.950 . S
C95 C94 1.524 . S
C95 C96 1.415 . S
C96 H72 0.950 1_545 S
C96 C91 1.363 . S
C96 C95 1.415 . S
C97 H73 0.951 . S
C97 C98 1.366 . S
C97 C99 1.388 . S
C98 C97 1.366 . S
C98 C102 1.368 1_545 S
C99 H74 0.951 . S
C99 C97 1.388 . S
C99 C100 1.366 . S
C100 C99 1.366 . S
C100 C101 1.414 1_545 S
C100 C103 1.499 . S
C101 H75 0.950 . S
C101 C100 1.414 1_565 S
C101 C102 1.377 . S
C102 H76 0.965 . S
C102 C98 1.368 1_565 S
C102 C101 1.377 . S
C103 C100 1.499 . S
C103 C104 1.373 . S
C103 C105 1.389 . S
C104 H77 0.950 . S
C104 C90 1.377 . S
C104 C103 1.373 . S
C105 C89 1.377 . S
C105 C103 1.389 . S
C105 C106 1.524 1_545 S
C106 C105 1.524 1_565 S
C106 C107 1.397 . S
C106 C111 1.363 1_565 S
C107 H78 0.950 . S
C107 C106 1.397 . S
C107 C108 1.334 . S
C108 H79 0.950 . S
C108 C107 1.334 . S
C108 C109 1.287 . S
C109 C108 1.287 . S
C109 C110 1.524 . S
C109 H112 0.999 . S
C110 H80 0.950 1_565 S
C110 C109 1.524 . S
C110 C111 1.415 1_565 S
C111 H81 0.950 . S
C111 C106 1.363 1_545 S
C111 C110 1.415 1_545 S
H112 C109 0.999 . S
H113 C94 0.913 1_556 S
H114 C132 0.951 . S
H115 C134 0.951 . S
H116 C136 0.950 . S
H117 C137 0.950 . S
H118 C139 0.950 . S
H119 C142 0.950 . S
H120 C143 0.950 . S
H121 C145 0.950 . S
H122 C146 0.950 . S
H123 C147 0.948 1_455 S
H124 C149 0.951 1_455 S
H125 C151 0.950 . S
H126 C152 0.950 . S
H127 C154 0.950 . S
H128 C157 0.950 . S
H129 C158 0.950 . S
H130 C160 0.950 . S
H131 C161 0.950 . S
C132 H114 0.951 . S
C132 C133 1.366 1_655 S
C132 C134 1.388 . S
C133 C132 1.366 1_455 S
C133 C137 1.385 . S
C134 H115 0.951 . S
C134 C132 1.388 . S
C134 C135 1.366 . S
C135 C134 1.366 . S
C135 C136 1.414 1_655 S
C135 C138 1.499 . S
C136 H116 0.950 . S
C136 C135 1.414 1_455 S
C136 C137 1.374 . S
C137 H117 0.950 . S
C137 C133 1.385 . S
C137 C136 1.374 . S
C138 C135 1.499 . S
C138 C139 1.373 1_655 S
C138 C140 1.389 . S
C139 H118 0.950 . S
C139 C138 1.373 1_455 S
C139 C155 1.377 . S
C140 C138 1.389 . S
C140 C141 1.524 . S
C140 C154 1.377 . S
C141 C140 1.524 . S
C141 C142 1.397 . S
C141 C146 1.363 . S
C142 H119 0.950 . S
C142 C141 1.397 . S
C142 C143 1.334 . S
C143 H120 0.950 . S
C143 C142 1.334 . S
C143 C144 1.287 . S
C144 C143 1.287 . S
C144 C145 1.524 . S
C144 H163 0.913 . S
C145 H121 0.950 . S
C145 C144 1.524 . S
C145 C146 1.415 . S
C146 H122 0.950 . S
C146 C141 1.363 . S
C146 C145 1.415 . S
C147 H123 0.948 1_655 S
C147 C148 1.366 . S
C147 C149 1.388 . S
C148 C147 1.366 . S
C148 C152 1.385 . S
C149 H124 0.951 1_655 S
C149 C147 1.388 . S
C149 C150 1.366 . S
C150 C149 1.366 . S
C150 C151 1.414 . S
C150 C153 1.499 . S
C151 H125 0.950 . S
C151 C150 1.414 . S
C151 C152 1.374 . S
C152 H126 0.950 . S
C152 C148 1.385 . S
C152 C151 1.374 . S
C153 C150 1.499 . S
C153 C154 1.373 . S
C153 C155 1.389 1_655 S
C154 H127 0.950 . S
C154 C140 1.377 . S
C154 C153 1.373 . S
C155 C139 1.377 . S
C155 C153 1.389 1_455 S
C155 C156 1.524 . S
C156 C155 1.524 . S
C156 C157 1.397 . S
C156 C161 1.363 . S
C157 H128 0.950 . S
C157 C156 1.397 . S
C157 C158 1.334 . S
C158 H129 0.950 . S
C158 C157 1.334 . S
C158 C159 1.287 . S
C159 C158 1.287 . S
C159 C160 1.524 . S
C159 H162 0.999 . S
C160 H130 0.950 . S
C160 C159 1.524 . S
C160 C161 1.415 . S
C161 H131 0.950 . S
C161 C156 1.363 . S
C161 C160 1.415 . S
H162 C159 0.999 . S
H163 C144 0.913 . S
H164 C182 0.951 . S
H165 C184 0.951 . S
H166 C186 0.949 1_565 S
H167 C187 0.950 . S
H168 C189 0.950 . S
H169 C192 0.950 . S
H170 C193 0.950 . S
H171 C195 0.950 . S
H172 C196 0.950 . S
H173 C197 0.951 . S
H174 C199 0.951 . S
H175 C201 0.950 . S
H176 C202 0.950 . S
H177 C204 0.950 . S
H178 C207 0.950 . S
H179 C208 0.950 . S
H180 C210 0.950 . S
H181 C211 0.950 . S
C182 H164 0.951 . S
C182 C183 1.366 . S
C182 C184 1.388 . S
C183 C182 1.366 . S
C183 C187 1.385 . S
C184 H165 0.951 . S
C184 C182 1.388 . S
C184 C185 1.366 . S
C185 C184 1.366 . S
C185 C186 1.415 . S
C185 C188 1.497 1_545 S
C186 H166 0.949 1_545 S
C186 C185 1.415 . S
C186 C187 1.376 . S
C187 H167 0.950 . S
C187 C183 1.385 . S
C187 C186 1.376 . S
C188 C185 1.497 1_565 S
C188 C189 1.395 . S
C188 C190 1.372 1_565 S
C189 H168 0.950 . S
C189 C188 1.395 . S
C189 C205 1.377 . S
C190 C188 1.372 1_545 S
C190 C191 1.524 . S
C190 C204 1.377 . S
C191 C190 1.524 . S
C191 C192 1.397 . S
C191 C196 1.363 . S
C192 H169 0.950 . S
C192 C191 1.397 . S
C192 C193 1.334 . S
C193 H170 0.950 . S
C193 C192 1.334 . S
C193 C194 1.287 . S
C194 C193 1.287 . S
C194 C195 1.524 . S
C194 H213 0.913 . S
C195 H171 0.950 . S
C195 C194 1.524 . S
C195 C196 1.415 . S
C196 H172 0.950 . S
C196 C191 1.363 . S
C196 C195 1.415 . S
C197 H173 0.951 . S
C197 C198 1.366 . S
C197 C199 1.388 . S
C198 C197 1.366 . S
C198 C202 1.385 . S
C199 H174 0.951 . S
C199 C197 1.388 . S
C199 C200 1.366 . S
C200 C199 1.366 . S
C200 C201 1.414 . S
C200 C203 1.499 . S
C201 H175 0.950 . S
C201 C200 1.414 . S
C201 C202 1.374 . S
C202 H176 0.950 . S
C202 C198 1.385 . S
C202 C201 1.374 . S
C203 C200 1.499 . S
C203 C204 1.373 1_565 S
C203 C205 1.389 . S
C204 H177 0.950 . S
C204 C190 1.377 . S
C204 C203 1.373 1_545 S
C205 C189 1.377 . S
C205 C203 1.389 . S
C205 C206 1.524 . S
C206 C205 1.524 . S
C206 C207 1.397 . S
C206 C211 1.363 . S
C207 H178 0.950 . S
C207 C206 1.397 . S
C207 C208 1.334 . S
C208 H179 0.950 . S
C208 C207 1.334 . S
C208 C209 1.287 . S
C209 C208 1.287 . S
C209 C210 1.524 . S
C209 H212 0.999 . S
C210 H180 0.950 . S
C210 C209 1.524 . S
C210 C211 1.415 . S
C211 H181 0.950 . S
C211 C206 1.363 . S
C211 C210 1.415 . S
H212 C209 0.999 . S
H213 C194 0.913 . S
H214 C232 0.951 . S
H215 C234 0.951 . S
H216 C236 0.950 . S
H217 C237 0.950 . S
H218 C239 0.950 . S
H219 C242 0.950 . S
H220 C243 0.950 . S
H221 C245 0.950 . S
H222 C246 0.950 . S
H223 C247 0.951 . S
H224 C249 0.951 . S
H225 C251 0.950 1_655 S
H226 C252 0.946 1_655 S
H227 C254 0.950 . S
H228 C257 0.950 . S
H229 C258 0.950 . S
H230 C260 0.950 . S
H231 C261 0.950 1_455 S
C232 H214 0.951 . S
C232 C233 1.366 . S
C232 C234 1.388 . S
C233 C232 1.366 . S
C233 C237 1.385 1_655 S
C234 H215 0.951 . S
C234 C232 1.388 . S
C234 C235 1.366 1_655 S
C235 C234 1.366 1_455 S
C235 C236 1.414 . S
C235 C238 1.499 . S
C236 H216 0.950 . S
C236 C235 1.414 . S
C236 C237 1.374 . S
C237 H217 0.950 . S
C237 C233 1.385 1_455 S
C237 C236 1.374 . S
C238 C235 1.499 . S
C238 C239 1.373 1_455 S
C238 C240 1.389 . S
C239 H218 0.950 . S
C239 C238 1.373 1_655 S
C239 C255 1.377 . S
C240 C238 1.389 . S
C240 C241 1.524 . S
C240 C254 1.377 . S
C241 C240 1.524 . S
C241 C242 1.397 . S
C241 C246 1.363 . S
C242 H219 0.950 . S
C242 C241 1.397 . S
C242 C243 1.334 . S
C243 H220 0.950 . S
C243 C242 1.334 . S
C243 C244 1.287 . S
C244 C243 1.287 . S
C244 C245 1.524 . S
C244 H263 0.913 . S
C245 H221 0.950 . S
C245 C244 1.524 . S
C245 C246 1.415 . S
C246 H222 0.950 . S
C246 C241 1.363 . S
C246 C245 1.415 . S
C247 H223 0.951 . S
C247 C248 1.366 . S
C247 C249 1.388 . S
C248 C247 1.366 . S
C248 C252 1.385 . S
C249 H224 0.951 . S
C249 C247 1.388 . S
C249 C250 1.366 . S
C250 C249 1.366 . S
C250 C251 1.414 . S
C250 C253 1.499 . S
C251 H225 0.950 1_455 S
C251 C250 1.414 . S
C251 C252 1.374 . S
C252 H226 0.946 1_455 S
C252 C248 1.385 . S
C252 C251 1.374 . S
C253 C250 1.499 . S
C253 C254 1.373 . S
C253 C255 1.381 1_455 S
C254 H227 0.950 . S
C254 C240 1.377 . S
C254 C253 1.373 . S
C255 C239 1.377 . S
C255 C253 1.381 1_655 S
C255 C256 1.534 . S
C256 C255 1.534 . S
C256 C257 1.397 . S
C256 C261 1.363 . S
C257 H228 0.950 . S
C257 C256 1.397 . S
C257 C258 1.334 . S
C258 H229 0.950 . S
C258 C257 1.334 . S
C258 C259 1.287 . S
C259 C258 1.287 . S
C259 C260 1.524 . S
C259 H262 0.999 . S
C260 H230 0.950 . S
C260 C259 1.524 . S
C260 C261 1.415 . S
C261 H231 0.950 1_655 S
C261 C256 1.363 . S
C261 C260 1.415 . S
H262 C259 0.999 . S
H263 C244 0.913 . S
H264 C282 0.950 1_565 S
H265 C284 0.951 . S
H266 C286 0.950 . S
H267 C287 0.950 . S
H268 C289 0.950 . S
H269 C292 0.950 . S
H270 C293 0.950 . S
H271 C295 0.950 . S
H272 C296 0.950 . S
H273 C297 0.951 . S
H274 C299 0.951 . S
H275 C301 0.950 . S
H276 C302 0.950 . S
H277 C304 0.950 . S
H278 C307 0.950 . S
H279 C308 0.950 . S
H280 C310 0.950 . S
H281 C311 0.950 . S
C282 H264 0.950 1_545 S
C282 C283 1.368 . S
C282 C284 1.387 1_545 S
C283 C282 1.368 . S
C283 C287 1.385 . S
C284 H265 0.951 . S
C284 C282 1.387 1_565 S
C284 C285 1.366 . S
C285 C284 1.366 . S
C285 C286 1.414 1_565 S
C285 C288 1.499 . S
C286 H266 0.950 . S
C286 C285 1.414 1_545 S
C286 C287 1.374 . S
C287 H267 0.950 . S
C287 C283 1.385 . S
C287 C286 1.374 . S
C288 C285 1.499 . S
C288 C289 1.373 1_565 S
C288 C290 1.389 . S
C289 H268 0.950 . S
C289 C288 1.373 1_545 S
C289 C305 1.377 . S
C290 C288 1.389 . S
C290 C291 1.524 . S
C290 C304 1.377 . S
C291 C290 1.524 . S
C291 C292 1.397 . S
C291 C296 1.363 . S
C292 H269 0.950 . S
C292 C291 1.397 . S
C292 C293 1.334 . S
C293 H270 0.950 . S
C293 C292 1.334 . S
C293 C294 1.287 . S
C294 C293 1.287 . S
C294 C295 1.524 . S
C294 H313 0.913 . S
C295 H271 0.950 . S
C295 C294 1.524 . S
C295 C296 1.415 . S
C296 H272 0.950 . S
C296 C291 1.363 . S
C296 C295 1.415 . S
C297 H273 0.951 . S
C297 C298 1.366 . S
C297 C299 1.388 . S
C298 C297 1.366 . S
C298 C302 1.385 . S
C299 H274 0.951 . S
C299 C297 1.388 . S
C299 C300 1.366 . S
C300 C299 1.366 . S
C300 C301 1.414 . S
C300 C303 1.499 . S
C301 H275 0.950 . S
C301 C300 1.414 . S
C301 C302 1.374 . S
C302 H276 0.950 . S
C302 C298 1.385 . S
C302 C301 1.374 . S
C303 C300 1.499 . S
C303 C304 1.373 . S
C303 C305 1.389 1_565 S
C304 H277 0.950 . S
C304 C290 1.377 . S
C304 C303 1.373 . S
C305 C289 1.377 . S
C305 C303 1.389 1_545 S
C305 C306 1.524 . S
C306 C305 1.524 . S
C306 C307 1.397 . S
C306 C311 1.363 . S
C307 H278 0.950 . S
C307 C306 1.397 . S
C307 C308 1.334 . S
C308 H279 0.950 . S
C308 C307 1.334 . S
C308 C309 1.287 . S
C309 C308 1.287 . S
C309 C310 1.524 . S
C309 H312 0.999 . S
C310 H280 0.950 . S
C310 C309 1.524 . S
C310 C311 1.415 . S
C311 H281 0.950 . S
C311 C306 1.363 . S
C311 C310 1.415 . S
H312 C309 0.999 . S
H313 C294 0.913 . S
H314 C332 0.951 . S
H315 C334 0.951 . S
H316 C336 0.950 . S
H317 C337 0.950 . S
H318 C339 0.950 . S
H319 C342 0.950 1_455 S
H320 C343 0.950 . S
H321 C345 0.950 . S
H322 C346 0.950 . S
H323 C347 0.951 . S
H324 C349 0.951 . S
H325 C351 0.950 . S
H326 C352 0.950 . S
H327 C354 0.950 . S
H328 C357 0.950 . S
H329 C358 0.950 . S
H330 C360 0.950 . S
H331 C361 0.950 . S
C332 H314 0.951 . S
C332 C333 1.366 . S
C332 C334 1.388 . S
C333 C332 1.366 . S
C333 C337 1.385 1_655 S
C334 H315 0.951 . S
C334 C332 1.388 . S
C334 C335 1.366 1_655 S
C335 C334 1.366 1_455 S
C335 C336 1.414 . S
C335 C338 1.499 . S
C336 H316 0.950 . S
C336 C335 1.414 . S
C336 C337 1.374 . S
C337 H317 0.950 . S
C337 C333 1.385 1_455 S
C337 C336 1.374 . S
C338 C335 1.499 . S
C338 C339 1.373 . S
C338 C340 1.389 1_455 S
C339 H318 0.950 . S
C339 C338 1.373 . S
C339 C355 1.377 . S
C340 C338 1.389 1_655 S
C340 C341 1.524 . S
C340 C354 1.377 . S
C341 C340 1.524 . S
C341 C342 1.397 . S
C341 C346 1.363 . S
C342 H319 0.950 1_655 S
C342 C341 1.397 . S
C342 C343 1.334 . S
C343 H320 0.950 . S
C343 C342 1.334 . S
C343 C344 1.287 . S
C344 C343 1.287 . S
C344 C345 1.524 . S
C344 H363 0.913 . S
C345 H321 0.950 . S
C345 C344 1.524 . S
C345 C346 1.415 . S
C346 H322 0.950 . S
C346 C341 1.363 . S
C346 C345 1.415 . S
C347 H323 0.951 . S
C347 C348 1.366 . S
C347 C349 1.388 . S
C348 C347 1.366 . S
C348 C352 1.385 1_455 S
C349 H324 0.951 . S
C349 C347 1.388 . S
C349 C350 1.366 . S
C350 C349 1.366 . S
C350 C351 1.414 1_455 S
C350 C353 1.499 . S
C351 H325 0.950 . S
C351 C350 1.414 1_655 S
C351 C352 1.374 . S
C352 H326 0.950 . S
C352 C348 1.385 1_655 S
C352 C351 1.374 . S
C353 C350 1.499 . S
C353 C354 1.373 1_455 S
C353 C355 1.389 . S
C354 H327 0.950 . S
C354 C340 1.377 . S
C354 C353 1.373 1_655 S
C355 C339 1.377 . S
C355 C353 1.389 . S
C355 C356 1.524 . S
C356 C355 1.524 . S
C356 C357 1.397 . S
C356 C361 1.363 . S
C357 H328 0.950 . S
C357 C356 1.397 . S
C357 C358 1.334 . S
C358 H329 0.950 . S
C358 C357 1.334 . S
C358 C359 1.287 . S
C359 C358 1.287 . S
C359 C360 1.524 . S
C359 H362 0.999 . S
C360 H330 0.950 . S
C360 C359 1.524 . S
C360 C361 1.415 . S
C361 H331 0.950 . S
C361 C356 1.363 . S
C361 C360 1.415 . S
H362 C359 0.999 . S
H363 C344 0.913 . S
H364 C382 0.951 . S
H365 C384 0.951 . S
H366 C386 0.950 . S
H367 C387 0.950 . S
H368 C389 0.950 . S
H369 C392 0.950 . S
H370 C393 0.950 . S
H371 C395 0.950 . S
H372 C396 0.950 . S
H373 C397 0.958 . S
H374 C399 0.951 1_565 S
H375 C401 0.950 . S
H376 C402 0.950 . S
H377 C404 0.950 . S
H378 C407 0.950 . S
H379 C408 0.950 . S
H380 C410 0.950 . S
H381 C411 0.950 . S
C382 H364 0.951 . S
C382 C383 1.366 1_545 S
C382 C384 1.388 . S
C383 C382 1.366 1_565 S
C383 C387 1.385 . S
C384 H365 0.951 . S
C384 C382 1.388 . S
C384 C385 1.366 . S
C385 C384 1.366 . S
C385 C386 1.414 1_545 S
C385 C388 1.499 . S
C386 H366 0.950 . S
C386 C385 1.414 1_565 S
C386 C387 1.374 . S
C387 H367 0.950 . S
C387 C383 1.385 . S
C387 C386 1.374 . S
C388 C385 1.499 . S
C388 C389 1.373 . S
C388 C390 1.389 1_545 S
C389 H368 0.950 . S
C389 C388 1.373 . S
C389 C405 1.377 . S
C390 C388 1.389 1_565 S
C390 C391 1.524 . S
C390 C404 1.377 . S
C391 C390 1.524 . S
C391 C392 1.397 . S
C391 C396 1.363 . S
C392 H369 0.950 . S
C392 C391 1.397 . S
C392 C393 1.334 . S
C393 H370 0.950 . S
C393 C392 1.334 . S
C393 C394 1.287 . S
C394 C393 1.287 . S
C394 C395 1.524 . S
C394 H413 0.913 . S
C395 H371 0.950 . S
C395 C394 1.524 . S
C395 C396 1.415 . S
C396 H372 0.950 . S
C396 C391 1.363 . S
C396 C395 1.415 . S
C397 H373 0.958 . S
C397 C398 1.366 . S
C397 C399 1.388 . S
C398 C397 1.366 . S
C398 C402 1.385 . S
C399 H374 0.951 1_545 S
C399 C397 1.388 . S
C399 C400 1.366 . S
C400 C399 1.366 . S
C400 C401 1.414 . S
C400 C403 1.499 . S
C401 H375 0.950 . S
C401 C400 1.414 . S
C401 C402 1.374 . S
C402 H376 0.950 . S
C402 C398 1.385 . S
C402 C401 1.374 . S
C403 C400 1.499 . S
C403 C404 1.373 1_545 S
C403 C405 1.389 . S
C404 H377 0.950 . S
C404 C390 1.377 . S
C404 C403 1.373 1_565 S
C405 C389 1.377 . S
C405 C403 1.389 . S
C405 C406 1.524 . S
C406 C405 1.524 . S
C406 C407 1.397 . S
C406 C411 1.363 . S
C407 H378 0.950 . S
C407 C406 1.397 . S
C407 C408 1.334 . S
C408 H379 0.950 . S
C408 C407 1.334 . S
C408 C409 1.287 . S
C409 C408 1.287 . S
C409 C410 1.524 . S
C409 H412 0.999 . S
C410 H380 0.950 . S
C410 C409 1.524 . S
C410 C411 1.415 . S
C411 H381 0.950 . S
C411 C406 1.363 . S
C411 C410 1.415 . S
H412 C409 0.999 . S
H413 C394 0.913 . S
H414 C432 0.951 . S
H415 C434 0.951 . S
H416 C436 0.950 . S
H417 C437 0.950 . S
H418 C439 0.950 . S
H419 C442 0.950 . S
H420 C443 0.950 . S
H421 C445 0.950 . S
H422 C446 0.950 . S
H423 C447 0.951 . S
H424 C449 0.951 . S
H425 C451 0.950 . S
H426 C452 0.950 . S
H427 C454 0.950 . S
H428 C457 0.950 . S
H429 C458 0.950 . S
H430 C460 0.950 1_455 S
H431 C461 0.950 1_455 S
C432 H414 0.951 . S
C432 C433 1.366 1_655 S
C432 C434 1.388 . S
C433 C432 1.366 1_455 S
C433 C437 1.385 . S
C434 H415 0.951 . S
C434 C432 1.388 . S
C434 C435 1.373 . S
C435 C434 1.373 . S
C435 C436 1.406 1_655 S
C435 C438 1.499 . S
C436 H416 0.950 . S
C436 C435 1.406 1_455 S
C436 C437 1.374 . S
C437 H417 0.950 . S
C437 C433 1.385 . S
C437 C436 1.374 . S
C438 C435 1.499 . S
C438 C439 1.373 . S
C438 C440 1.389 . S
C439 H418 0.950 . S
C439 C438 1.373 . S
C439 C455 1.377 . S
C440 C438 1.389 . S
C440 C441 1.524 1_655 S
C440 C454 1.377 . S
C441 C440 1.524 1_455 S
C441 C442 1.397 . S
C441 C446 1.363 1_455 S
C442 H419 0.950 . S
C442 C441 1.397 . S
C442 C443 1.334 . S
C443 H420 0.950 . S
C443 C442 1.334 . S
C443 C444 1.287 . S
C444 C443 1.287 . S
C444 C445 1.524 1_455 S
C444 H463 0.913 . S
C445 H421 0.950 . S
C445 C444 1.524 1_655 S
C445 C446 1.415 . S
C446 H422 0.950 . S
C446 C441 1.363 1_655 S
C446 C445 1.415 . S
C447 H423 0.951 . S
C447 C448 1.366 1_455 S
C447 C449 1.388 . S
C448 C447 1.366 1_655 S
C448 C452 1.385 . S
C449 H424 0.951 . S
C449 C447 1.388 . S
C449 C450 1.366 1_455 S
C450 C449 1.366 1_655 S
C450 C451 1.414 . S
C450 C453 1.499 . S
C451 H425 0.950 . S
C451 C450 1.414 . S
C451 C452 1.374 . S
C452 H426 0.950 . S
C452 C448 1.385 . S
C452 C451 1.374 . S
C453 C450 1.499 . S
C453 C454 1.373 . S
C453 C455 1.389 . S
C454 H427 0.950 . S
C454 C440 1.377 . S
C454 C453 1.373 . S
C455 C439 1.377 . S
C455 C453 1.389 . S
C455 C456 1.524 . S
C456 C455 1.524 . S
C456 C457 1.397 . S
C456 C461 1.363 . S
C457 H428 0.950 . S
C457 C456 1.397 . S
C457 C458 1.334 . S
C458 H429 0.950 . S
C458 C457 1.334 . S
C458 C459 1.287 . S
C459 C458 1.287 . S
C459 C460 1.524 . S
C459 H462 0.999 . S
C460 H430 0.950 1_655 S
C460 C459 1.524 . S
C460 C461 1.415 . S
C461 H431 0.950 1_655 S
C461 C456 1.363 . S
C461 C460 1.415 . S
H462 C459 0.999 . S
H463 C444 0.913 . S
C98 C45 1.679 . S
C83 C7 1.638 . S
C148 C56 1.582 . S
C133 C34 1.600 . S
C198 C44 1.682 . S
C183 C14 1.647 . S
C248 C57 1.579 . S
C233 C26 1.606 . S
C298 C59 1.672 . S
C283 C8 1.639 . S
C348 C43 1.589 . S
C333 C32 1.616 . S
C398 C58 1.676 . S
C383 C16 1.633 . S
C433 C25 1.605 . S
C448 C42 1.585 . S
