# Generated by pormake.
# Topology dag, (6,3)-cn, num edge types: 1
# Building blocks:
#     Node 0, Type 0, BuildingBlock: OJICUG_clean_sbu_0, # of connection points: 6
#     Node 1, Type 0, BuildingBlock: OJICUG_clean_sbu_0, # of connection points: 6
#     Node 2, Type 0, BuildingBlock: OJICUG_clean_sbu_0, # of connection points: 6
#     Node 3, Type 0, BuildingBlock: OJICUG_clean_sbu_0, # of connection points: 6
#     Node 4, Type 1, BuildingBlock: KAKCAD_clean_linker_0, # of connection points: 3
#     Node 5, Type 1, BuildingBlock: KAKCAD_clean_linker_0, # of connection points: 3
#     Node 6, Type 1, BuildingBlock: KAKCAD_clean_linker_0, # of connection points: 3
#     Node 7, Type 1, BuildingBlock: KAKCAD_clean_linker_0, # of connection points: 3
#     Node 8, Type 1, BuildingBlock: KAKCAD_clean_linker_0, # of connection points: 3
#     Node 9, Type 1, BuildingBlock: KAKCAD_clean_linker_0, # of connection points: 3
#     Node 10, Type 1, BuildingBlock: KAKCAD_clean_linker_0, # of connection points: 3
#     Node 11, Type 1, BuildingBlock: KAKCAD_clean_linker_0, # of connection points: 3
#     Edge 12, Type (0, 1), BuildingBlock: AJUNOK_clean_linker_0, # of connection points: 2
#     Edge 13, Type (0, 1), BuildingBlock: AJUNOK_clean_linker_0, # of connection points: 2
#     Edge 14, Type (0, 1), BuildingBlock: AJUNOK_clean_linker_0, # of connection points: 2
#     Edge 15, Type (0, 1), BuildingBlock: AJUNOK_clean_linker_0, # of connection points: 2
#     Edge 16, Type (0, 1), BuildingBlock: AJUNOK_clean_linker_0, # of connection points: 2
#     Edge 17, Type (0, 1), BuildingBlock: AJUNOK_clean_linker_0, # of connection points: 2
#     Edge 18, Type (0, 1), BuildingBlock: AJUNOK_clean_linker_0, # of connection points: 2
#     Edge 19, Type (0, 1), BuildingBlock: AJUNOK_clean_linker_0, # of connection points: 2
#     Edge 20, Type (0, 1), BuildingBlock: AJUNOK_clean_linker_0, # of connection points: 2
#     Edge 21, Type (0, 1), BuildingBlock: AJUNOK_clean_linker_0, # of connection points: 2
#     Edge 22, Type (0, 1), BuildingBlock: AJUNOK_clean_linker_0, # of connection points: 2
#     Edge 23, Type (0, 1), BuildingBlock: AJUNOK_clean_linker_0, # of connection points: 2
#     Edge 24, Type (0, 1), BuildingBlock: AJUNOK_clean_linker_0, # of connection points: 2
#     Edge 25, Type (0, 1), BuildingBlock: AJUNOK_clean_linker_0, # of connection points: 2
#     Edge 26, Type (0, 1), BuildingBlock: AJUNOK_clean_linker_0, # of connection points: 2
#     Edge 27, Type (0, 1), BuildingBlock: AJUNOK_clean_linker_0, # of connection points: 2
#     Edge 28, Type (0, 1), BuildingBlock: AJUNOK_clean_linker_0, # of connection points: 2
#     Edge 29, Type (0, 1), BuildingBlock: AJUNOK_clean_linker_0, # of connection points: 2
#     Edge 30, Type (0, 1), BuildingBlock: AJUNOK_clean_linker_0, # of connection points: 2
#     Edge 31, Type (0, 1), BuildingBlock: AJUNOK_clean_linker_0, # of connection points: 2
#     Edge 32, Type (0, 1), BuildingBlock: AJUNOK_clean_linker_0, # of connection points: 2
#     Edge 33, Type (0, 1), BuildingBlock: AJUNOK_clean_linker_0, # of connection points: 2
#     Edge 34, Type (0, 1), BuildingBlock: AJUNOK_clean_linker_0, # of connection points: 2
#     Edge 35, Type (0, 1), BuildingBlock: AJUNOK_clean_linker_0, # of connection points: 2
# Relax obj value: 0.252
# Max RMSD: 0.199
# Mean RMSD: 0.164
data_MOF--net-dag--node1-OJICUG_clean_sbu_0--node2-KAKCAD_clean_linker_0--edge1-AJUNOK_clean_linker_0
_symmetry_space_group_name_H-M    P1
_symmetry_Int_Tables_number       1
_symmetry_cell_setting            triclinic
loop_
_symmetry_equiv_pos_as_xyz
'x, y, z'
_cell_length_a     34.767597
_cell_length_b     36.472303
_cell_length_c     35.798395
_cell_angle_alpha  95.204585
_cell_angle_beta   90.149854
_cell_angle_gamma 90.046787
loop_
_atom_site_label
_atom_site_type_symbol
_atom_site_fract_x
_atom_site_fract_y
_atom_site_fract_z
_atom_type_partial_charge
Sc0 Sc 0.12302 0.85399 0.04216 0.0
Sc1 Sc 0.14958 0.76167 0.04928 0.0
Sc2 Sc 0.208 0.83507 0.08917 0.0
O3 O 0.16025 0.81677 0.06013 0.0
C4 C 0.20245 0.89341 0.02798 0.0
C5 C 0.12306 0.79274 0.9727 0.0
C6 C 0.24007 0.76879 0.03401 0.0
C7 C 0.06667 0.79327 0.07067 0.0
C8 C 0.14371 0.88945 0.12477 0.0
C9 C 0.18466 0.76508 0.13185 0.0
O10 O 0.16747 0.88652 0.01983 0.0
O11 O 0.1337 0.7663 0.99118 0.0
O12 O 0.24444 0.79945 0.05352 0.0
O13 O 0.07467 0.82568 0.06293 0.0
O14 O 0.17523 0.87215 0.1276 0.0
O15 O 0.16339 0.74996 0.10592 0.0
O16 O 0.12357 0.88663 0.09502 0.0
O17 O 0.0902 0.76656 0.0668 0.0
O18 O 0.20256 0.79496 0.12884 0.0
O19 O 0.11817 0.82528 0.98762 0.0
O20 O 0.22022 0.87794 0.05328 0.0
O21 O 0.20806 0.75168 0.03098 0.0
Sc22 Sc 0.70472 0.65894 0.45551 0.0
Sc23 Sc 0.64216 0.72747 0.49755 0.0
Sc24 Sc 0.62062 0.63336 0.49992 0.0
O25 O 0.65586 0.67335 0.48443 0.0
C26 C 0.64387 0.60241 0.41662 0.0
C27 C 0.67519 0.72841 0.41492 0.0
C28 C 0.56007 0.69276 0.47634 0.0
C29 C 0.73338 0.72561 0.5118 0.0
C30 C 0.70218 0.59728 0.51313 0.0
C31 C 0.61939 0.69156 0.57233 0.0
O32 O 0.67439 0.62153 0.41546 0.0
O33 O 0.65285 0.74118 0.441 0.0
O34 O 0.57045 0.66007 0.4807 0.0
O35 O 0.73931 0.69505 0.49268 0.0
O36 O 0.66679 0.60188 0.52079 0.0
O37 O 0.62937 0.71934 0.55549 0.0
O38 O 0.71946 0.61515 0.4894 0.0
O39 O 0.70045 0.74084 0.51464 0.0
O40 O 0.61465 0.65966 0.55557 0.0
O41 O 0.6963 0.70041 0.41774 0.0
O42 O 0.62283 0.60315 0.44565 0.0
O43 O 0.58219 0.72043 0.48231 0.0
Sc44 Sc 0.86189 0.23218 -0.00063 0.0
Sc45 Sc 0.79454 0.1676 0.95701 0.0
Sc46 Sc 0.88097 0.13724 0.99442 0.0
O47 O 0.84576 0.1791 0.9836 0.0
C48 C 0.94071 0.19607 0.9687 0.0
C49 C 0.82311 0.23869 0.91925 0.0
C50 C 0.84906 0.10872 0.91331 0.0
C51 C 0.77212 0.23236 0.01885 0.0
C52 C 0.89223 0.19167 0.06873 0.0
C53 C 0.79879 0.10498 0.0129 0.0
O54 O 0.92003 0.22407 0.97853 0.0
O55 O 0.80296 0.20978 0.9203 0.0
O56 O 0.873 0.10877 0.94006 0.0
O57 O 0.8059 0.24566 0.02254 0.0
O58 O 0.89424 0.16063 0.04978 0.0
O59 O 0.78029 0.1239 0.99089 0.0
O60 O 0.87959 0.22042 0.05524 0.0
O61 O 0.76378 0.2046 0.99627 0.0
O62 O 0.83493 0.10732 0.018 0.0
O63 O 0.84641 0.25019 0.94521 0.0
O64 O 0.92995 0.16324 0.97202 0.0
O65 O 0.81913 0.12874 0.91458 0.0
Sc66 Sc 0.37918 0.36153 0.54322 0.0
Sc67 Sc 0.29334 0.33276 0.58267 0.0
Sc68 Sc 0.35814 0.26681 0.53923 0.0
O69 O 0.34353 0.32026 0.55505 0.0
C70 C 0.38394 0.3077 0.46799 0.0
C71 C 0.29664 0.39606 0.52755 0.0
C72 C 0.26779 0.26725 0.52261 0.0
C73 C 0.35181 0.38958 0.62538 0.0
C74 C 0.43898 0.30089 0.5661 0.0
C75 C 0.32184 0.26175 0.62065 0.0
O76 O 0.38621 0.33909 0.48636 0.0
O77 O 0.27801 0.37537 0.54771 0.0
O78 O 0.30145 0.25427 0.51706 0.0
O79 O 0.37622 0.38794 0.59904 0.0
O80 O 0.41675 0.27341 0.5592 0.0
O81 O 0.30306 0.29154 0.62028 0.0
O82 O 0.42923 0.33363 0.56118 0.0
O83 O 0.32002 0.37229 0.62339 0.0
O84 O 0.3432 0.24906 0.59364 0.0
O85 O 0.33299 0.39446 0.524 0.0
O86 O 0.37477 0.27868 0.48316 0.0
O87 O 0.26062 0.29502 0.54554 0.0
C88 C 0.97694 0.20891 0.23648 0.0
C89 C 0.94461 0.18935 0.22212 0.0
C90 C 0.99739 0.19673 0.26669 0.0
C91 C 0.98596 0.16454 0.28251 0.0
C92 C 0.95142 0.14722 0.2704 0.0
C93 C 0.9309 0.15956 0.24038 0.0
C94 C 0.01348 0.14541 0.30578 0.0
C95 C 0.0344 0.16476 0.33487 0.0
C96 C 0.06443 0.14742 0.35285 0.0
C97 C 0.074 0.11081 0.34106 0.0
C98 C 0.05385 0.09148 0.31162 0.0
C99 C 0.023 0.10855 0.29484 0.0
C100 C 0.06867 0.05607 0.29402 0.0
C101 C 0.10649 0.05408 0.28036 0.0
C102 C 0.04409 0.02576 0.28656 0.0
C103 C 0.05657 0.99466 0.26417 0.0
C104 C 0.09341 0.99388 0.24788 0.0
C105 C 0.08889 0.16833 0.38106 0.0
C106 C 0.10691 0.20096 0.37238 0.0
C107 C 0.09733 0.15397 0.41525 0.0
C108 C 0.12408 0.1715 0.43999 0.0
C109 C 0.14317 0.20327 0.43058 0.0
C110 C 0.13413 0.21812 0.39683 0.0
C111 C 0.11869 0.02336 0.25735 0.0
H112 H 0.98835 0.23151 0.22222 0.0
H113 H 0.02409 0.21041 0.27519 0.0
H114 H 0.94193 0.12246 0.28224 0.0
H115 H 0.90635 0.14378 0.22924 0.0
H116 H 0.0279 0.19345 0.34294 0.0
H117 H 0.00862 0.09412 0.27091 0.0
H118 H 0.09849 0.09798 0.35344 0.0
H119 H 0.12587 0.07729 0.28549 0.0
H120 H 0.01489 0.02664 0.29707 0.0
H121 H 0.03686 0.97182 0.25846 0.0
H122 H 0.10119 0.21225 0.34595 0.0
H123 H 0.08381 0.12877 0.4224 0.0
H124 H 0.1472 0.02368 0.24524 0.0
H125 H 0.14867 0.24261 0.38914 0.0
H126 H 0.13092 0.15953 0.46581 0.0
C127 C 0.37593 0.52032 0.76773 0.0
C128 C 0.4001 0.49944 0.74267 0.0
C129 C 0.38965 0.552 0.78832 0.0
C130 C 0.42836 0.56293 0.78548 0.0
C131 C 0.45327 0.54008 0.76289 0.0
C132 C 0.43922 0.50905 0.74139 0.0
C133 C 0.44162 0.59946 0.80318 0.0
C134 C 0.42414 0.61573 0.8359 0.0
C135 C 0.43143 0.65264 0.84886 0.0
C136 C 0.45903 0.67273 0.83055 0.0
C137 C 0.47795 0.65629 0.79883 0.0
C138 C 0.46891 0.62009 0.78512 0.0
C139 C 0.50408 0.67738 0.77659 0.0
C140 C 0.48933 0.69405 0.74584 0.0
C141 C 0.54399 0.67407 0.78082 0.0
C142 C 0.56875 0.68477 0.75303 0.0
C143 C 0.55377 0.69813 0.72032 0.0
C144 C 0.40671 0.67087 0.87863 0.0
C145 C 0.36674 0.66533 0.87667 0.0
C146 C 0.42216 0.69377 0.90866 0.0
C147 C 0.39797 0.71018 0.93664 0.0
C148 C 0.35802 0.70416 0.9347 0.0
C149 C 0.34273 0.68174 0.90433 0.0
C150 C 0.51399 0.70444 0.71793 0.0
H151 H 0.346 0.5129 0.77063 0.0
H152 H 0.36923 0.56867 0.80507 0.0
H153 H 0.48349 0.5467 0.76077 0.0
H154 H 0.45882 0.49349 0.7226 0.0
H155 H 0.40364 0.60015 0.85082 0.0
H156 H 0.48192 0.60893 0.75906 0.0
H157 H 0.46439 0.70143 0.83972 0.0
H158 H 0.45853 0.69633 0.74194 0.0
H159 H 0.55579 0.66093 0.80426 0.0
H160 H 0.59936 0.6803 0.75593 0.0
H161 H 0.35388 0.64853 0.8534 0.0
H162 H 0.45289 0.69842 0.91081 0.0
H163 H 0.50157 0.71451 0.69303 0.0
H164 H 0.312 0.67715 0.90176 0.0
H165 H 0.41051 0.7271 0.95997 0.0
C166 C 0.88169 0.77389 0.11892 0.0
C167 C 0.91062 0.80098 0.12065 0.0
C168 C 0.84306 0.78394 0.12479 0.0
C169 C 0.83291 0.82124 0.13189 0.0
C170 C 0.86207 0.84805 0.1339 0.0
C171 C 0.90027 0.8381 0.128 0.0
C172 C 0.79239 0.83314 0.13761 0.0
C173 C 0.7684 0.81663 0.1627 0.0
C174 C 0.73302 0.83297 0.1739 0.0
C175 C 0.72149 0.86574 0.15919 0.0
C176 C 0.74513 0.8819 0.1337 0.0
C177 C 0.77968 0.8649 0.12216 0.0
C178 C 0.73845 0.91962 0.12386 0.0
C179 C 0.71036 0.9274 0.09758 0.0
C180 C 0.76497 0.94688 0.13665 0.0
C181 C 0.76569 0.9804 0.12109 0.0
C182 C 0.73973 0.98744 0.09248 0.0
C183 C 0.71169 0.81878 0.20525 0.0
C184 C 0.70588 0.78079 0.2061 0.0
C185 C 0.70169 0.84267 0.23677 0.0
C186 C 0.68893 0.82856 0.26955 0.0
C187 C 0.68576 0.79038 0.27121 0.0
C188 C 0.69292 0.76672 0.23877 0.0
C189 C 0.71085 0.96133 0.08207 0.0
H190 H 0.88896 0.74508 0.11299 0.0
H191 H 0.82114 0.76274 0.12313 0.0
H192 H 0.8554 0.87697 0.14007 0.0
H193 H 0.92172 0.8597 0.12851 0.0
H194 H 0.77871 0.79291 0.17593 0.0
H195 H 0.79805 0.87807 0.10287 0.0
H196 H 0.69537 0.87962 0.16902 0.0
H197 H 0.68969 0.90656 0.08744 0.0
H198 H 0.78688 0.94125 0.15696 0.0
H199 H 0.78842 -0.00029 0.12966 0.0
H200 H 0.71308 0.76186 0.18206 0.0
H201 H 0.70635 0.87206 0.23702 0.0
H202 H 0.68989 0.9664 0.06072 0.0
H203 H 0.69039 0.73716 0.23931 0.0
H204 H 0.68422 0.84736 0.29431 0.0
C205 C 0.614 0.29013 0.64325 0.0
C206 C 0.59936 0.28756 0.60653 0.0
C207 C 0.65306 0.29698 0.64989 0.0
C208 C 0.67821 0.30135 0.61989 0.0
C209 C 0.66399 0.29588 0.58299 0.0
C210 C 0.62489 0.28894 0.57637 0.0
C211 C 0.71741 0.31657 0.62745 0.0
C212 C 0.73985 0.30512 0.65685 0.0
C213 C 0.77352 0.32429 0.66867 0.0
C214 C 0.78505 0.35487 0.65027 0.0
C215 C 0.7632 0.36629 0.62043 0.0
C216 C 0.72981 0.34668 0.60888 0.0
C217 C 0.77119 0.40175 0.60487 0.0
C218 C 0.77582 0.43395 0.62916 0.0
C219 C 0.768 0.40458 0.56612 0.0
C220 C 0.76629 0.43907 0.55222 0.0
C221 C 0.76772 0.47129 0.57685 0.0
C222 C 0.79331 0.31493 0.70324 0.0
C223 C 0.79897 0.27791 0.70971 0.0
C224 C 0.80187 0.34263 0.73207 0.0
C225 C 0.81278 0.33328 0.76761 0.0
C226 C 0.81529 0.2962 0.77462 0.0
C227 C 0.80976 0.26863 0.74516 0.0
C228 C 0.77391 0.46847 0.61526 0.0
H229 H 0.59486 0.28877 0.66692 0.0
H230 H 0.66296 0.30132 0.67866 0.0
H231 H 0.68277 0.29871 0.55933 0.0
H232 H 0.61424 0.28701 0.54779 0.0
H233 H 0.72985 0.28251 0.67196 0.0
H234 H 0.71161 0.35693 0.5875 0.0
H235 H 0.81037 0.3704 0.65983 0.0
H236 H 0.77795 0.43258 0.65919 0.0
H237 H 0.7645 0.38014 0.54684 0.0
H238 H 0.76095 0.44045 0.52255 0.0
H239 H 0.79302 0.25607 0.68788 0.0
H240 H 0.79742 0.37139 0.728 0.0
H241 H 0.77505 0.49296 0.63476 0.0
H242 H 0.81151 0.23983 0.75024 0.0
H243 H 0.81656 0.35484 0.79021 0.0
C244 C 0.55509 0.49809 0.27997 0.0
C245 C 0.59404 0.5016 0.29031 0.0
C246 C 0.54228 0.46724 0.25737 0.0
C247 C 0.56821 0.43935 0.24468 0.0
C248 C 0.60757 0.44416 0.25293 0.0
C249 C 0.62034 0.47493 0.27561 0.0
C250 C 0.55404 0.40324 0.22766 0.0
C251 C 0.57429 0.38382 0.19841 0.0
C252 C 0.56584 0.34671 0.18758 0.0
C253 C 0.53642 0.329 0.20597 0.0
C254 C 0.51487 0.34864 0.23418 0.0
C255 C 0.52357 0.38575 0.24457 0.0
C256 C 0.48676 0.33004 0.25688 0.0
C257 C 0.44949 0.34432 0.26174 0.0
C258 C 0.49927 0.30273 0.27929 0.0
C259 C 0.47622 0.29246 0.30857 0.0
C260 C 0.44008 0.309 0.31548 0.0
C261 C 0.59085 0.326 0.15989 0.0
C262 C 0.59904 0.34012 0.12556 0.0
C263 C 0.60998 0.29424 0.16939 0.0
C264 C 0.63824 0.27792 0.14573 0.0
C265 C 0.64737 0.29288 0.11209 0.0
C266 C 0.62688 0.32347 0.10166 0.0
C267 C 0.42619 0.33361 0.29055 0.0
H268 H 0.53428 0.51842 0.29079 0.0
H269 H 0.51186 0.46441 0.25116 0.0
H270 H 0.6282 0.4229 0.24409 0.0
H271 H 0.65038 0.47652 0.28369 0.0
H272 H 0.59813 0.39701 0.18544 0.0
H273 H 0.50857 0.40005 0.26809 0.0
H274 H 0.53065 0.30001 0.19872 0.0
H275 H 0.43935 0.36548 0.24474 0.0
H276 H 0.52816 0.29174 0.27631 0.0
H277 H 0.48812 0.27399 0.32761 0.0
H278 H 0.58459 0.3646 0.11772 0.0
H279 H 0.6044 0.28311 0.1959 0.0
H280 H 0.39834 0.34655 0.29496 0.0
H281 H 0.63353 0.33534 0.07576 0.0
H282 H 0.65358 0.25412 0.15406 0.0
C283 C 0.11578 0.20336 0.89152 0.0
C284 C 0.10106 0.20542 0.92811 0.0
C285 C 0.15455 0.19523 0.88493 0.0
C286 C 0.17932 0.18904 0.91486 0.0
C287 C 0.16512 0.19394 0.95172 0.0
C288 C 0.12632 0.20215 0.95829 0.0
C289 C 0.21796 0.1728 0.90709 0.0
C290 C 0.24093 0.18449 0.87831 0.0
C291 C 0.27399 0.16468 0.86615 0.0
C292 C 0.28431 0.13303 0.88344 0.0
C293 C 0.26217 0.12165 0.91305 0.0
C294 C 0.22937 0.14188 0.9249 0.0
C295 C 0.2696 0.08619 0.92875 0.0
C296 C 0.27193 0.05355 0.90481 0.0
C297 C 0.26814 0.08408 0.96769 0.0
C298 C 0.26613 0.04995 0.98231 0.0
C299 C 0.26543 0.01735 0.95822 0.0
C300 C 0.29454 0.17519 0.83256 0.0
C301 C 0.30253 0.21242 0.82886 0.0
C302 C 0.30093 0.14903 0.80185 0.0
C303 C 0.31168 0.16042 0.76707 0.0
C304 C 0.3162 0.198 0.76278 0.0
C305 C 0.31324 0.22373 0.79421 0.0
C306 C 0.26962 0.01936 0.91944 0.0
H307 H 0.09687 0.20617 0.86786 0.0
H308 H 0.16444 0.1914 0.85618 0.0
H309 H 0.18363 0.18974 0.97534 0.0
H310 H 0.11559 0.20364 0.98677 0.0
H311 H 0.23189 0.20798 0.86398 0.0
H312 H 0.21095 0.13168 0.94607 0.0
H313 H 0.30908 0.11698 0.87352 0.0
H314 H 0.27269 0.05446 0.87466 0.0
H315 H 0.2663 0.1089 0.98668 0.0
H316 H 0.26234 0.04922 0.01226 0.0
H317 H 0.29823 0.23305 0.85221 0.0
H318 H 0.29472 0.12017 0.80391 0.0
H319 H 0.26907 0.99456 0.90035 0.0
H320 H 0.31669 0.25288 0.79135 0.0
H321 H 0.31357 0.14025 0.74299 0.0
C322 C 0.37205 0.72123 0.43982 0.0
C323 C 0.39724 0.69233 0.44629 0.0
C324 C 0.33256 0.71442 0.43478 0.0
C325 C 0.31772 0.67862 0.43609 0.0
C326 C 0.34315 0.65006 0.44313 0.0
C327 C 0.38219 0.65689 0.44846 0.0
C328 C 0.2767 0.6697 0.4273 0.0
C329 C 0.25822 0.68435 0.39714 0.0
C330 C 0.22301 0.66971 0.38316 0.0
C331 C 0.20633 0.63994 0.39957 0.0
C332 C 0.22399 0.62574 0.43047 0.0
C333 C 0.25822 0.64181 0.44499 0.0
C334 C 0.21247 0.58979 0.44309 0.0
C335 C 0.21314 0.58457 0.4815 0.0
C336 C 0.21061 0.55882 0.41676 0.0
C337 C 0.21459 0.52349 0.42842 0.0
C338 C 0.22052 0.51873 0.4665 0.0
C339 C 0.20701 0.68273 0.34836 0.0
C340 C 0.2054 0.72061 0.34426 0.0
C341 C 0.1979 0.65754 0.3175 0.0
C342 C 0.19015 0.67004 0.28245 0.0
C343 C 0.19149 0.70782 0.27788 0.0
C344 C 0.19757 0.73305 0.30935 0.0
C345 C 0.21717 0.54927 0.49313 0.0
H346 H 0.38296 0.74878 0.43771 0.0
H347 H 0.31377 0.73704 0.42943 0.0
H348 H 0.33325 0.62192 0.44332 0.0
H349 H 0.40082 0.63412 0.45378 0.0
H350 H 0.27271 0.70508 0.38246 0.0
H351 H 0.27243 0.63018 0.46817 0.0
H352 H 0.1804 0.62711 0.38765 0.0
H353 H 0.21429 0.60803 0.50235 0.0
H354 H 0.21017 0.56201 0.38696 0.0
H355 H 0.21625 0.50019 0.40744 0.0
H356 H 0.21183 0.74057 0.36774 0.0
H357 H 0.19921 0.62817 0.31985 0.0
H358 H 0.22138 0.54631 0.52271 0.0
H359 H 0.19798 0.76238 0.30655 0.0
H360 H 0.18547 0.65014 0.25852 0.0
C361 C 0.05914 0.7932 0.79503 0.0
C362 C 0.04703 0.783 0.83012 0.0
C363 C 0.03224 0.80467 0.76933 0.0
C364 C 0.99301 0.8057 0.77832 0.0
C365 C 0.98066 0.79241 0.81181 0.0
C366 C 0.00742 0.78098 0.83743 0.0
C367 C 0.9661 0.82737 0.75738 0.0
C368 C 0.94779 0.81236 0.72447 0.0
C369 C 0.91949 0.83285 0.70734 0.0
C370 C 0.91114 0.86888 0.7225 0.0
C371 C 0.92883 0.88365 0.7556 0.0
C372 C 0.95631 0.86281 0.77289 0.0
C373 C 0.91547 0.9191 0.77421 0.0
C374 C 0.91513 0.95108 0.75508 0.0
C375 C 0.90153 0.92062 0.81106 0.0
C376 C 0.88737 0.95354 0.82854 0.0
C377 C 0.8874 0.98558 0.80965 0.0
C378 C 0.89539 0.81594 0.67623 0.0
C379 C 0.91163 0.79603 0.6447 0.0
C380 C 0.85529 0.82035 0.67806 0.0
C381 C 0.83195 0.80634 0.64856 0.0
C382 C 0.84809 0.78763 0.61642 0.0
C383 C 0.88807 0.78192 0.61493 0.0
C384 C 0.90164 0.98431 0.77292 0.0
H385 H 0.08948 0.79454 0.78851 0.0
H386 H 0.04226 0.81516 0.74371 0.0
H387 H 0.95048 0.7934 0.81933 0.0
H388 H 0.99721 0.7735 0.86428 0.0
H389 H 0.95403 0.78431 0.71352 0.0
H390 H 0.96964 0.87392 0.79894 0.0
H391 H 0.88926 0.8848 0.70961 0.0
H392 H 0.9257 0.9504 0.72658 0.0
H393 H 0.90115 0.89618 0.82616 0.0
H394 H 0.87694 0.95417 0.85709 0.0
H395 H 0.94246 0.79212 0.64274 0.0
H396 H 0.84185 0.83463 0.70248 0.0
H397 H 0.90218 0.00893 0.75812 0.0
H398 H 0.90107 0.76718 0.59054 0.0
H399 H 0.8011 0.80998 0.65099 0.0
C400 C 0.15375 0.92416 0.18804 0.0
C401 C 0.12948 0.91403 0.15726 0.0
C402 C 0.14148 0.94897 0.21789 0.0
C403 C 0.10439 0.96448 0.21829 0.0
H404 H 0.1828 0.91353 0.18878 0.0
H405 H 0.16141 0.95646 0.24063 0.0
S406 S 0.02877 0.94566 0.14558 0.0
N407 N 0.06555 0.92007 0.13026 0.0
N408 N 0.04321 0.96736 0.18559 0.0
C409 C 0.07944 0.95379 0.18826 0.0
C410 C 0.0918 0.92847 0.15797 0.0
C411 C 0.59114 0.72814 0.62823 0.0
C412 C 0.61015 0.69629 0.61279 0.0
C413 C 0.575 0.72967 0.66428 0.0
C414 C 0.57785 0.69963 0.68625 0.0
H415 H 0.58651 0.75106 0.61151 0.0
H416 H 0.5587 0.75385 0.67437 0.0
S417 S 0.62901 0.6117 0.66013 0.0
N418 N 0.63439 0.63563 0.62352 0.0
N419 N 0.60384 0.63824 0.69083 0.0
C420 C 0.5992 0.66871 0.67204 0.0
C421 C 0.61539 0.66711 0.63541 0.0
C422 C 0.77346 0.08183 0.07103 0.0
C423 C 0.77774 0.07743 0.03199 0.0
C424 C 0.75774 0.05361 0.09021 0.0
C425 C 0.74674 0.01974 0.071 0.0
H426 H 0.78334 0.1068 0.0869 0.0
H427 H 0.75596 0.05763 0.12052 0.0
S428 S 0.7515 0.99587 0.96798 0.0
N429 N 0.76813 0.03841 0.97424 0.0
N430 N 0.74028 0.98435 0.01018 0.0
C431 C 0.74944 0.01586 0.03157 0.0
C432 C 0.76474 0.04496 0.01208 0.0
C433 C 0.50057 0.26516 0.56466 0.0
C434 C 0.47836 0.29506 0.57992 0.0
C435 C 0.53962 0.26214 0.57413 0.0
C436 C 0.55733 0.28843 0.59981 0.0
H437 H 0.48818 0.24492 0.54405 0.0
H438 H 0.55626 0.23953 0.56079 0.0
S439 S 0.51079 0.37033 0.64957 0.0
N440 N 0.47628 0.3503 0.6233 0.0
N441 N 0.54932 0.34444 0.64135 0.0
C442 C 0.53492 0.31753 0.61641 0.0
C443 C 0.4955 0.32088 0.6064 0.0
C444 C 0.59779 0.55709 0.3847 0.0
C445 C 0.63158 0.57826 0.38296 0.0
C446 C 0.5854 0.53345 0.35416 0.0
C447 C 0.60618 0.52984 0.32044 0.0
H448 H 0.58077 0.55828 0.41008 0.0
H449 H 0.55987 0.51699 0.35744 0.0
S450 S 0.69488 0.58061 0.29967 0.0
N451 N 0.68465 0.59518 0.34355 0.0
N452 N 0.66097 0.55057 0.28602 0.0
C453 C 0.63946 0.55131 0.31772 0.0
C454 C 0.6522 0.57557 0.34893 0.0
C455 C 0.00334 0.23011 0.97048 0.0
C456 C 0.9799 0.20141 0.95433 0.0
C457 C 0.04243 0.23211 0.96103 0.0
C458 C 0.059 0.20598 0.93455 0.0
H459 H 0.99192 0.25005 0.99186 0.0
H460 H 0.06002 0.2537 0.97513 0.0
S461 S 0.0091 0.12721 0.88227 0.0
N462 N 0.97549 0.14762 0.90917 0.0
N463 N 0.04865 0.15155 0.89124 0.0
C464 C 0.03539 0.17822 0.91699 0.0
C465 C 0.99589 0.1759 0.92693 0.0
C466 C 0.24011 0.4381 0.52364 0.0
C467 C 0.27531 0.42441 0.50877 0.0
C468 C 0.2214 0.46759 0.50876 0.0
C469 C 0.23684 0.48398 0.47806 0.0
H470 H 0.22768 0.42701 0.54795 0.0
H471 H 0.19523 0.47831 0.52197 0.0
S472 S 0.32677 0.45679 0.42716 0.0
N473 N 0.3236 0.42817 0.46018 0.0
N474 N 0.28859 0.48361 0.43242 0.0
C475 C 0.27111 0.46954 0.46192 0.0
C476 C 0.29031 0.43978 0.47723 0.0
C477 C 0.09038 0.7545 0.92038 0.0
C478 C 0.11242 0.78563 0.9327 0.0
C479 C 0.07154 0.75224 0.88547 0.0
C480 C 0.07462 0.78076 0.86159 0.0
H481 H 0.08521 0.73316 0.93894 0.0
H482 H 0.05266 0.72905 0.87805 0.0
S483 S 0.13367 0.86549 0.87895 0.0
N484 N 0.14002 0.84337 0.91672 0.0
N485 N 0.10464 0.83931 0.85141 0.0
C486 C 0.09933 0.81044 0.87235 0.0
C487 C 0.1182 0.81283 0.90787 0.0
C488 C 0.89287 0.07792 0.86567 0.0
C489 C 0.85565 0.08193 0.88077 0.0
C490 C 0.90222 0.04787 0.84017 0.0
C491 C 0.87481 0.02055 0.8297 0.0
H492 H 0.91532 0.09731 0.87489 0.0
H493 H 0.93163 0.04479 0.83044 0.0
S494 S 0.77295 0.01932 0.85964 0.0
N495 N 0.79071 0.05741 0.88168 0.0
N496 N 0.80862 0.00022 0.83443 0.0
C497 C 0.83709 0.02509 0.84321 0.0
C498 C 0.82737 0.05607 0.86858 0.0
C499 C 0.39593 0.33856 0.40976 0.0
C500 C 0.39365 0.30565 0.42743 0.0
C501 C 0.40911 0.33885 0.373 0.0
C502 C 0.42052 0.30625 0.35201 0.0
H503 H 0.38851 0.36473 0.42476 0.0
H504 H 0.41206 0.36524 0.36163 0.0
S505 S 0.41598 0.21207 0.38313 0.0
N506 N 0.40105 0.23899 0.41982 0.0
N507 N 0.42548 0.23964 0.35018 0.0
C508 C 0.41656 0.27283 0.36842 0.0
C509 C 0.40307 0.27248 0.40614 0.0
C510 C 0.20628 0.93359 0.97512 0.0
C511 C 0.22249 0.9219 0.00813 0.0
C512 C 0.22191 0.96313 0.95791 0.0
C513 C 0.25423 0.98231 0.9731 0.0
H514 H 0.18062 0.9205 0.96293 0.0
H515 H 0.20736 0.97217 0.93356 0.0
S516 S 0.31027 0.96059 0.05644 0.0
N517 N 0.27494 0.93017 0.05349 0.0
N518 N 0.30402 0.98589 0.02093 0.0
C519 C 0.27198 0.96988 0.00487 0.0
C520 C 0.25626 0.93958 0.02236 0.0
C521 C 0.50352 0.67214 0.43777 0.0
C522 C 0.51999 0.69805 0.46454 0.0
C523 C 0.46409 0.67224 0.43031 0.0
C524 C 0.43942 0.6978 0.44986 0.0
H525 H 0.52112 0.65084 0.42331 0.0
H526 H 0.45256 0.6511 0.41012 0.0
S527 S 0.46882 0.77281 0.52114 0.0
N528 N 0.50942 0.75155 0.50886 0.0
N529 N 0.43468 0.75109 0.49566 0.0
C530 C 0.4558 0.72517 0.47526 0.0
C531 C 0.49627 0.7254 0.48246 0.0
C532 C 0.39439 0.41032 0.67899 0.0
C533 C 0.36033 0.41466 0.65876 0.0
C534 C 0.40599 0.43692 0.70749 0.0
C535 C 0.38444 0.46931 0.71604 0.0
H536 H 0.41257 0.38654 0.67219 0.0
H537 H 0.43259 0.43251 0.72224 0.0
S538 S 0.29336 0.49364 0.66948 0.0
N539 N 0.30484 0.45277 0.64894 0.0
N540 N 0.32738 0.50403 0.70095 0.0
C541 C 0.34982 0.47348 0.69615 0.0
C542 C 0.33764 0.44587 0.66782 0.0
C543 C 0.9997 0.76874 0.06658 0.0
C544 C 0.02889 0.78786 0.08736 0.0
C545 C 0.96139 0.77065 0.07902 0.0
C546 C 0.95144 0.79168 0.11256 0.0
H547 H 0.00608 0.75433 0.03951 0.0
H548 H 0.93919 0.75774 0.06104 0.0
S549 S 0.01903 0.84171 0.17957 0.0
N550 N 0.04647 0.82501 0.14449 0.0
N551 N 0.9749 0.82769 0.1686 0.0
C552 C 0.98114 0.80826 0.13494 0.0
C553 C 0.01981 0.80665 0.12207 0.0
C554 C 0.70899 0.55644 0.56501 0.0
C555 C 0.72328 0.56849 0.53146 0.0
C556 C 0.72526 0.52632 0.58072 0.0
C557 C 0.75626 0.50687 0.56335 0.0
H558 H 0.68429 0.56972 0.57877 0.0
H559 H 0.71212 0.51702 0.60561 0.0
S560 S 0.80687 0.5291 0.47728 0.0
N561 N 0.77233 0.56015 0.48293 0.0
N562 N 0.80271 0.50328 0.51264 0.0
C563 C 0.77212 0.51961 0.5309 0.0
C564 C 0.75576 0.55054 0.51497 0.0
C565 C 0.88904 0.21589 0.13686 0.0
C566 C 0.90707 0.19385 0.10761 0.0
C567 C 0.90142 0.21514 0.1743 0.0
C568 C 0.93245 0.1928 0.18315 0.0
H569 H 0.86454 0.23279 0.13094 0.0
H570 H 0.88638 0.23154 0.19638 0.0
S571 S 0.9913 0.13272 0.11688 0.0
N572 N 0.959 0.15093 0.09021 0.0
N573 N 0.98202 0.14989 0.16016 0.0
C574 C 0.9514 0.1718 0.15413 0.0
C575 C 0.93879 0.17226 0.11642 0.0
C576 C 0.15862 0.7253 0.17968 0.0
C577 C 0.18798 0.74824 0.16787 0.0
C578 C 0.15996 0.71178 0.21518 0.0
C579 C 0.19062 0.7209 0.23997 0.0
H580 H 0.13392 0.71855 0.16185 0.0
H581 H 0.1365 0.69483 0.22363 0.0
S582 S 0.27709 0.77565 0.22082 0.0
N583 N 0.25036 0.77645 0.18274 0.0
N584 N 0.25266 0.75106 0.24914 0.0
C585 C 0.22083 0.74247 0.22795 0.0
C586 C 0.21957 0.75614 0.19199 0.0
C587 C 0.79549 0.72109 0.5466 0.0
C588 C 0.76555 0.74299 0.53407 0.0
C589 C 0.82345 0.73608 0.57186 0.0
C590 C 0.8225 0.77348 0.58527 0.0
H591 H 0.79631 0.69179 0.53831 0.0
H592 H 0.84479 0.71794 0.58234 0.0
S593 S 0.75438 0.84381 0.55617 0.0
N594 N 0.73953 0.80487 0.53359 0.0
N595 N 0.79236 0.83301 0.58067 0.0
C596 C 0.79436 0.79614 0.57101 0.0
C597 C 0.76581 0.78091 0.54552 0.0
C598 C 0.7032 0.24961 0.02878 0.0
C599 C 0.74108 0.24907 0.04271 0.0
C600 C 0.67297 0.26413 0.0513 0.0
C601 C 0.67952 0.27778 0.08872 0.0
H602 H 0.69691 0.23892 0.00018 0.0
H603 H 0.64422 0.26426 0.03957 0.0
S604 S 0.77307 0.28229 0.13882 0.0
N605 N 0.78337 0.26351 0.09631 0.0
N606 N 0.72631 0.29024 0.13878 0.0
C607 C 0.71713 0.27735 0.10305 0.0
C608 C 0.74801 0.26317 0.07998 0.0
C609 C 0.34987 0.22084 0.66667 0.0
C610 C 0.31891 0.24193 0.65482 0.0
C611 C 0.3488 0.20564 0.70139 0.0
C612 C 0.31679 0.21121 0.72509 0.0
H613 H 0.37557 0.21722 0.64971 0.0
H614 H 0.37347 0.19047 0.71025 0.0
S615 S 0.22639 0.25943 0.705 0.0
N616 N 0.25378 0.26397 0.66812 0.0
N617 N 0.25223 0.23574 0.73314 0.0
C618 C 0.28506 0.23053 0.71278 0.0
C619 C 0.286 0.24582 0.67768 0.0
C620 C 0.70555 0.73447 0.35281 0.0
C621 C 0.67674 0.74574 0.37899 0.0
C622 C 0.70759 0.74874 0.31804 0.0
C623 C 0.68097 0.77495 0.30775 0.0
H624 H 0.72704 0.71443 0.35911 0.0
H625 H 0.73074 0.73955 0.29926 0.0
S626 S 0.59935 0.81339 0.36504 0.0
N627 N 0.62046 0.78464 0.39171 0.0
N628 N 0.62456 0.81151 0.32586 0.0
C629 C 0.65201 0.78671 0.33338 0.0
C630 C 0.64981 0.77209 0.36906 0.0
C631 C 0.85227 0.27501 0.87014 0.0
C632 C 0.81985 0.25841 0.88512 0.0
C633 C 0.85065 0.28855 0.83461 0.0
C634 C 0.81658 0.28585 0.81338 0.0
H635 H 0.87944 0.27596 0.88509 0.0
H636 H 0.87639 0.2999 0.82314 0.0
S637 S 0.72258 0.24998 0.84214 0.0
N638 N 0.75174 0.24391 0.87751 0.0
N639 N 0.74904 0.26911 0.81096 0.0
C640 C 0.78358 0.27135 0.82893 0.0
C641 C 0.78513 0.25769 0.86481 0.0
C642 C 0.24213 0.23561 0.46303 0.0
C643 C 0.23568 0.25021 0.50022 0.0
C644 C 0.21185 0.22088 0.44056 0.0
C645 C 0.17429 0.21958 0.45475 0.0
H646 H 0.27063 0.23625 0.45094 0.0
H647 H 0.21788 0.21012 0.41196 0.0
S648 S 0.14232 0.2529 0.55044 0.0
N649 N 0.18889 0.26193 0.55034 0.0
N650 N 0.13215 0.23339 0.50811 0.0
C651 C 0.16747 0.23347 0.49195 0.0
C652 C 0.19813 0.24906 0.51468 0.0
C653 C 0.27427 0.71464 0.00212 0.0
C654 C 0.27318 0.75277 0.01234 0.0
C655 C 0.30297 0.69903 0.97846 0.0
C656 C 0.33155 0.72095 0.96381 0.0
H657 H 0.25237 0.6967 0.01194 0.0
H658 H 0.30223 0.66961 0.97081 0.0
S659 S 0.34212 0.82214 0.98238 0.0
N660 N 0.30398 0.81203 0.00687 0.0
N661 N 0.35759 0.78258 0.96174 0.0
C662 C 0.33167 0.75893 0.97475 0.0
C663 C 0.30253 0.77487 -0.00086 0.0
loop_
_geom_bond_atom_site_label_1
_geom_bond_atom_site_label_2
_geom_bond_distance
_geom_bond_site_symmetry_2
_ccdc_geom_bond_type
Sc0 O3 2.025 . S
Sc0 O10 2.105 . S
Sc0 O13 2.105 . S
Sc0 O16 2.105 . S
Sc0 O19 2.105 1_554 S
Sc1 O3 2.025 . S
Sc1 O11 2.105 1_554 S
Sc1 O15 2.105 . S
Sc1 O17 2.105 . S
Sc1 O21 2.105 . S
Sc2 O3 2.025 . S
Sc2 O12 2.105 . S
Sc2 O14 2.105 . S
Sc2 O18 2.105 . S
Sc2 O20 2.105 . S
O3 Sc0 2.025 . S
O3 Sc1 2.025 . S
O3 Sc2 2.025 . S
C4 O10 1.268 . S
C4 O20 1.268 . S
C5 O11 1.268 . S
C5 O19 1.268 . S
C6 O12 1.268 . S
C6 O21 1.268 . S
C7 O13 1.268 . S
C7 O17 1.268 . S
C8 O14 1.268 . S
C8 O16 1.268 . S
C9 O15 1.268 . S
C9 O18 1.268 . S
O10 Sc0 2.105 . S
O10 C4 1.268 . S
O11 Sc1 2.105 1_556 S
O11 C5 1.268 . S
O12 Sc2 2.105 . S
O12 C6 1.268 . S
O13 Sc0 2.105 . S
O13 C7 1.268 . S
O14 Sc2 2.105 . S
O14 C8 1.268 . S
O15 Sc1 2.105 . S
O15 C9 1.268 . S
O16 Sc0 2.105 . S
O16 C8 1.268 . S
O17 Sc1 2.105 . S
O17 C7 1.268 . S
O18 Sc2 2.105 . S
O18 C9 1.268 . S
O19 Sc0 2.105 1_556 S
O19 C5 1.268 . S
O20 Sc2 2.105 . S
O20 C4 1.268 . S
O21 Sc1 2.105 . S
O21 C6 1.268 . S
Sc22 O25 2.025 . S
Sc22 O32 2.105 . S
Sc22 O35 2.105 . S
Sc22 O38 2.105 . S
Sc22 O41 2.105 . S
Sc23 O25 2.025 . S
Sc23 O33 2.105 . S
Sc23 O37 2.105 . S
Sc23 O39 2.105 . S
Sc23 O43 2.105 . S
Sc24 O25 2.025 . S
Sc24 O34 2.105 . S
Sc24 O36 2.105 . S
Sc24 O40 2.105 . S
Sc24 O42 2.105 . S
O25 Sc22 2.025 . S
O25 Sc23 2.025 . S
O25 Sc24 2.025 . S
C26 O32 1.268 . S
C26 O42 1.268 . S
C27 O33 1.268 . S
C27 O41 1.268 . S
C28 O34 1.268 . S
C28 O43 1.268 . S
C29 O35 1.268 . S
C29 O39 1.268 . S
C30 O36 1.268 . S
C30 O38 1.268 . S
C31 O37 1.268 . S
C31 O40 1.268 . S
O32 Sc22 2.105 . S
O32 C26 1.268 . S
O33 Sc23 2.105 . S
O33 C27 1.268 . S
O34 Sc24 2.105 . S
O34 C28 1.268 . S
O35 Sc22 2.105 . S
O35 C29 1.268 . S
O36 Sc24 2.105 . S
O36 C30 1.268 . S
O37 Sc23 2.105 . S
O37 C31 1.268 . S
O38 Sc22 2.105 . S
O38 C30 1.268 . S
O39 Sc23 2.105 . S
O39 C29 1.268 . S
O40 Sc24 2.105 . S
O40 C31 1.268 . S
O41 Sc22 2.105 . S
O41 C27 1.268 . S
O42 Sc24 2.105 . S
O42 C26 1.268 . S
O43 Sc23 2.105 . S
O43 C28 1.268 . S
Sc44 O47 2.027 . S
Sc44 O54 2.105 1_554 S
Sc44 O57 2.105 . S
Sc44 O60 2.105 . S
Sc44 O63 2.105 1_554 S
Sc45 O47 2.022 1_556 S
Sc45 O55 2.105 . S
Sc45 O59 2.105 1_556 S
Sc45 O61 2.105 1_556 S
Sc45 O65 2.105 . S
Sc46 O47 2.027 . S
Sc46 O56 2.105 1_554 S
Sc46 O58 2.105 . S
Sc46 O62 2.105 . S
Sc46 O64 2.105 1_554 S
O47 Sc44 2.027 . S
O47 Sc45 2.022 1_554 S
O47 Sc46 2.027 . S
C48 O54 1.268 . S
C48 O64 1.268 . S
C49 O55 1.268 . S
C49 O63 1.268 . S
C50 O56 1.268 . S
C50 O65 1.268 . S
C51 O57 1.268 . S
C51 O61 1.268 . S
C52 O58 1.268 . S
C52 O60 1.268 . S
C53 O59 1.268 . S
C53 O62 1.268 . S
O54 Sc44 2.105 1_556 S
O54 C48 1.268 . S
O55 Sc45 2.105 . S
O55 C49 1.268 . S
O56 Sc46 2.105 1_556 S
O56 C50 1.268 . S
O57 Sc44 2.105 . S
O57 C51 1.268 . S
O58 Sc46 2.105 . S
O58 C52 1.268 . S
O59 Sc45 2.105 1_554 S
O59 C53 1.268 . S
O60 Sc44 2.105 . S
O60 C52 1.268 . S
O61 Sc45 2.105 1_554 S
O61 C51 1.268 . S
O62 Sc46 2.105 . S
O62 C53 1.268 . S
O63 Sc44 2.105 1_556 S
O63 C49 1.268 . S
O64 Sc46 2.105 1_556 S
O64 C48 1.268 . S
O65 Sc45 2.105 . S
O65 C50 1.268 . S
Sc66 O69 2.025 . S
Sc66 O76 2.105 . S
Sc66 O79 2.105 . S
Sc66 O82 2.105 . S
Sc66 O85 2.105 . S
Sc67 O69 2.025 . S
Sc67 O77 2.105 . S
Sc67 O81 2.105 . S
Sc67 O83 2.105 . S
Sc67 O87 2.105 . S
Sc68 O69 2.025 . S
Sc68 O78 2.105 . S
Sc68 O80 2.105 . S
Sc68 O84 2.105 . S
Sc68 O86 2.105 . S
O69 Sc66 2.025 . S
O69 Sc67 2.025 . S
O69 Sc68 2.025 . S
C70 O76 1.268 . S
C70 O86 1.268 . S
C71 O77 1.268 . S
C71 O85 1.268 . S
C72 O78 1.268 . S
C72 O87 1.268 . S
C73 O79 1.268 . S
C73 O83 1.268 . S
C74 O80 1.268 . S
C74 O82 1.268 . S
C75 O81 1.268 . S
C75 O84 1.268 . S
O76 Sc66 2.105 . S
O76 C70 1.268 . S
O77 Sc67 2.105 . S
O77 C71 1.268 . S
O78 Sc68 2.105 . S
O78 C72 1.268 . S
O79 Sc66 2.105 . S
O79 C73 1.268 . S
O80 Sc68 2.105 . S
O80 C74 1.268 . S
O81 Sc67 2.105 . S
O81 C75 1.268 . S
O82 Sc66 2.105 . S
O82 C74 1.268 . S
O83 Sc67 2.105 . S
O83 C73 1.268 . S
O84 Sc68 2.105 . S
O84 C75 1.268 . S
O85 Sc66 2.105 . S
O85 C71 1.268 . S
O86 Sc68 2.105 . S
O86 C70 1.268 . S
O87 Sc67 2.105 . S
O87 C72 1.268 . S
C88 C89 1.386 . S
C88 C90 1.397 . S
C88 H112 0.931 . S
C89 C88 1.386 . S
C89 C93 1.397 . S
C90 C88 1.397 . S
C90 C91 1.384 . S
C90 H113 0.930 1_655 S
C91 C90 1.384 . S
C91 C92 1.377 . S
C91 C94 1.481 1_655 S
C92 C91 1.377 . S
C92 C93 1.389 . S
C92 H114 0.929 . S
C93 C89 1.397 . S
C93 C92 1.389 . S
C93 H115 0.931 . S
C94 C91 1.481 1_455 S
C94 C95 1.387 . S
C94 C99 1.390 . S
C95 C94 1.387 . S
C95 C96 1.401 . S
C95 H116 0.930 . S
C96 C95 1.401 . S
C96 C97 1.376 . S
C96 C105 1.511 . S
C97 C96 1.376 . S
C97 C98 1.392 . S
C97 H118 0.931 . S
C98 C97 1.392 . S
C98 C99 1.361 . S
C98 C100 1.500 . S
C99 C94 1.390 . S
C99 C98 1.361 . S
C99 H117 0.931 . S
C100 C98 1.500 . S
C100 C101 1.371 . S
C100 C102 1.365 . S
C101 C100 1.371 . S
C101 C111 1.386 . S
C101 H119 0.931 . S
C102 C100 1.365 . S
C102 C103 1.409 1_545 S
C102 H120 0.929 . S
C103 C102 1.409 1_565 S
C103 C104 1.380 . S
C103 H121 0.930 . S
C104 C103 1.380 . S
C104 C111 1.357 1_565 S
C105 C96 1.511 . S
C105 C106 1.341 . S
C105 C107 1.371 . S
C106 C105 1.341 . S
C106 C110 1.394 . S
C106 H122 0.930 . S
C107 C105 1.371 . S
C107 C108 1.392 . S
C107 H123 0.931 . S
C108 C107 1.392 . S
C108 C109 1.331 . S
C108 H126 0.932 . S
C109 C108 1.331 . S
C109 C110 1.336 . S
C110 C106 1.394 . S
C110 C109 1.336 . S
C110 H125 0.929 . S
C111 C101 1.386 . S
C111 C104 1.357 1_545 S
C111 H124 0.928 1_545 S
H112 C88 0.931 . S
H113 C90 0.930 1_455 S
H114 C92 0.929 . S
H115 C93 0.931 . S
H116 C95 0.930 . S
H117 C99 0.931 . S
H118 C97 0.931 . S
H119 C101 0.931 . S
H120 C102 0.929 . S
H121 C103 0.930 . S
H122 C106 0.930 . S
H123 C107 0.931 . S
H124 C111 0.928 1_565 S
H125 C110 0.929 . S
H126 C108 0.932 . S
C127 C128 1.386 . S
C127 C129 1.397 . S
C127 H151 0.931 . S
C128 C127 1.386 . S
C128 C132 1.397 . S
C129 C127 1.397 . S
C129 C130 1.384 . S
C129 H152 0.930 . S
C130 C129 1.384 . S
C130 C131 1.377 . S
C130 C133 1.481 . S
C131 C130 1.377 . S
C131 C132 1.389 . S
C131 H153 0.929 . S
C132 C128 1.397 . S
C132 C131 1.389 . S
C132 H154 0.931 . S
C133 C130 1.481 . S
C133 C134 1.387 . S
C133 C138 1.390 . S
C134 C133 1.387 . S
C134 C135 1.401 . S
C134 H155 0.930 . S
C135 C134 1.401 . S
C135 C136 1.376 . S
C135 C144 1.511 . S
C136 C135 1.376 . S
C136 C137 1.392 . S
C136 H157 0.931 . S
C137 C136 1.392 . S
C137 C138 1.361 . S
C137 C139 1.500 . S
C138 C133 1.390 . S
C138 C137 1.361 . S
C138 H156 0.931 . S
C139 C137 1.500 . S
C139 C140 1.371 . S
C139 C141 1.365 . S
C140 C139 1.371 . S
C140 C150 1.386 . S
C140 H158 0.931 . S
C141 C139 1.365 . S
C141 C142 1.409 . S
C141 H159 0.929 . S
C142 C141 1.409 . S
C142 C143 1.380 . S
C142 H160 0.930 . S
C143 C142 1.380 . S
C143 C150 1.357 . S
C144 C135 1.511 . S
C144 C145 1.341 . S
C144 C146 1.371 . S
C145 C144 1.341 . S
C145 C149 1.394 . S
C145 H161 0.930 . S
C146 C144 1.371 . S
C146 C147 1.392 . S
C146 H162 0.931 . S
C147 C146 1.392 . S
C147 C148 1.331 . S
C147 H165 0.932 . S
C148 C147 1.331 . S
C148 C149 1.336 . S
C149 C145 1.394 . S
C149 C148 1.336 . S
C149 H164 0.929 . S
C150 C140 1.386 . S
C150 C143 1.357 . S
C150 H163 0.928 . S
H151 C127 0.931 . S
H152 C129 0.930 . S
H153 C131 0.929 . S
H154 C132 0.931 . S
H155 C134 0.930 . S
H156 C138 0.931 . S
H157 C136 0.931 . S
H158 C140 0.931 . S
H159 C141 0.929 . S
H160 C142 0.930 . S
H161 C145 0.930 . S
H162 C146 0.931 . S
H163 C150 0.928 . S
H164 C149 0.929 . S
H165 C147 0.932 . S
C166 C167 1.386 . S
C166 C168 1.397 . S
C166 H190 0.931 . S
C167 C166 1.386 . S
C167 C171 1.397 . S
C168 C166 1.397 . S
C168 C169 1.384 . S
C168 H191 0.930 . S
C169 C168 1.384 . S
C169 C170 1.377 . S
C169 C172 1.481 . S
C170 C169 1.377 . S
C170 C171 1.389 . S
C170 H192 0.929 . S
C171 C167 1.397 . S
C171 C170 1.389 . S
C171 H193 0.931 . S
C172 C169 1.481 . S
C172 C173 1.387 . S
C172 C177 1.390 . S
C173 C172 1.387 . S
C173 C174 1.401 . S
C173 H194 0.930 . S
C174 C173 1.401 . S
C174 C175 1.376 . S
C174 C183 1.511 . S
C175 C174 1.376 . S
C175 C176 1.392 . S
C175 H196 0.931 . S
C176 C175 1.392 . S
C176 C177 1.361 . S
C176 C178 1.500 . S
C177 C172 1.390 . S
C177 C176 1.361 . S
C177 H195 0.931 . S
C178 C176 1.500 . S
C178 C179 1.371 . S
C178 C180 1.365 . S
C179 C178 1.371 . S
C179 C189 1.386 . S
C179 H197 0.931 . S
C180 C178 1.365 . S
C180 C181 1.409 . S
C180 H198 0.929 . S
C181 C180 1.409 . S
C181 C182 1.380 . S
C181 H199 0.930 . S
C182 C181 1.380 . S
C182 C189 1.357 . S
C183 C174 1.511 . S
C183 C184 1.341 . S
C183 C185 1.371 . S
C184 C183 1.341 . S
C184 C188 1.394 . S
C184 H200 0.930 . S
C185 C183 1.371 . S
C185 C186 1.392 . S
C185 H201 0.931 . S
C186 C185 1.392 . S
C186 C187 1.331 . S
C186 H204 0.932 . S
C187 C186 1.331 . S
C187 C188 1.336 . S
C188 C184 1.394 . S
C188 C187 1.336 . S
C188 H203 0.929 . S
C189 C179 1.386 . S
C189 C182 1.357 . S
C189 H202 0.928 . S
H190 C166 0.931 . S
H191 C168 0.930 . S
H192 C170 0.929 . S
H193 C171 0.931 . S
H194 C173 0.930 . S
H195 C177 0.931 . S
H196 C175 0.931 . S
H197 C179 0.931 . S
H198 C180 0.929 . S
H199 C181 0.930 . S
H200 C184 0.930 . S
H201 C185 0.931 . S
H202 C189 0.928 . S
H203 C188 0.929 . S
H204 C186 0.932 . S
C205 C206 1.386 . S
C205 C207 1.397 . S
C205 H229 0.931 . S
C206 C205 1.386 . S
C206 C210 1.397 . S
C207 C205 1.397 . S
C207 C208 1.384 . S
C207 H230 0.930 . S
C208 C207 1.384 . S
C208 C209 1.377 . S
C208 C211 1.481 . S
C209 C208 1.377 . S
C209 C210 1.389 . S
C209 H231 0.929 . S
C210 C206 1.397 . S
C210 C209 1.389 . S
C210 H232 0.931 . S
C211 C208 1.481 . S
C211 C212 1.387 . S
C211 C216 1.390 . S
C212 C211 1.387 . S
C212 C213 1.401 . S
C212 H233 0.930 . S
C213 C212 1.401 . S
C213 C214 1.376 . S
C213 C222 1.511 . S
C214 C213 1.376 . S
C214 C215 1.392 . S
C214 H235 0.931 . S
C215 C214 1.392 . S
C215 C216 1.361 . S
C215 C217 1.500 . S
C216 C211 1.390 . S
C216 C215 1.361 . S
C216 H234 0.931 . S
C217 C215 1.500 . S
C217 C218 1.371 . S
C217 C219 1.365 . S
C218 C217 1.371 . S
C218 C228 1.386 . S
C218 H236 0.931 . S
C219 C217 1.365 . S
C219 C220 1.409 . S
C219 H237 0.929 . S
C220 C219 1.409 . S
C220 C221 1.380 . S
C220 H238 0.930 . S
C221 C220 1.380 . S
C221 C228 1.357 . S
C222 C213 1.511 . S
C222 C223 1.341 . S
C222 C224 1.371 . S
C223 C222 1.341 . S
C223 C227 1.394 . S
C223 H239 0.930 . S
C224 C222 1.371 . S
C224 C225 1.392 . S
C224 H240 0.931 . S
C225 C224 1.392 . S
C225 C226 1.331 . S
C225 H243 0.932 . S
C226 C225 1.331 . S
C226 C227 1.336 . S
C227 C223 1.394 . S
C227 C226 1.336 . S
C227 H242 0.929 . S
C228 C218 1.386 . S
C228 C221 1.357 . S
C228 H241 0.928 . S
H229 C205 0.931 . S
H230 C207 0.930 . S
H231 C209 0.929 . S
H232 C210 0.931 . S
H233 C212 0.930 . S
H234 C216 0.931 . S
H235 C214 0.931 . S
H236 C218 0.931 . S
H237 C219 0.929 . S
H238 C220 0.930 . S
H239 C223 0.930 . S
H240 C224 0.931 . S
H241 C228 0.928 . S
H242 C227 0.929 . S
H243 C225 0.932 . S
C244 C245 1.386 . S
C244 C246 1.397 . S
C244 H268 0.931 . S
C245 C244 1.386 . S
C245 C249 1.397 . S
C246 C244 1.397 . S
C246 C247 1.384 . S
C246 H269 0.930 . S
C247 C246 1.384 . S
C247 C248 1.377 . S
C247 C250 1.481 . S
C248 C247 1.377 . S
C248 C249 1.389 . S
C248 H270 0.929 . S
C249 C245 1.397 . S
C249 C248 1.389 . S
C249 H271 0.931 . S
C250 C247 1.481 . S
C250 C251 1.387 . S
C250 C255 1.390 . S
C251 C250 1.387 . S
C251 C252 1.401 . S
C251 H272 0.930 . S
C252 C251 1.401 . S
C252 C253 1.376 . S
C252 C261 1.511 . S
C253 C252 1.376 . S
C253 C254 1.392 . S
C253 H274 0.931 . S
C254 C253 1.392 . S
C254 C255 1.361 . S
C254 C256 1.500 . S
C255 C250 1.390 . S
C255 C254 1.361 . S
C255 H273 0.931 . S
C256 C254 1.500 . S
C256 C257 1.371 . S
C256 C258 1.365 . S
C257 C256 1.371 . S
C257 C267 1.386 . S
C257 H275 0.931 . S
C258 C256 1.365 . S
C258 C259 1.409 . S
C258 H276 0.929 . S
C259 C258 1.409 . S
C259 C260 1.380 . S
C259 H277 0.930 . S
C260 C259 1.380 . S
C260 C267 1.357 . S
C261 C252 1.511 . S
C261 C262 1.341 . S
C261 C263 1.371 . S
C262 C261 1.341 . S
C262 C266 1.394 . S
C262 H278 0.930 . S
C263 C261 1.371 . S
C263 C264 1.392 . S
C263 H279 0.931 . S
C264 C263 1.392 . S
C264 C265 1.331 . S
C264 H282 0.932 . S
C265 C264 1.331 . S
C265 C266 1.336 . S
C266 C262 1.394 . S
C266 C265 1.336 . S
C266 H281 0.929 . S
C267 C257 1.386 . S
C267 C260 1.357 . S
C267 H280 0.928 . S
H268 C244 0.931 . S
H269 C246 0.930 . S
H270 C248 0.929 . S
H271 C249 0.931 . S
H272 C251 0.930 . S
H273 C255 0.931 . S
H274 C253 0.931 . S
H275 C257 0.931 . S
H276 C258 0.929 . S
H277 C259 0.930 . S
H278 C262 0.930 . S
H279 C263 0.931 . S
H280 C267 0.928 . S
H281 C266 0.929 . S
H282 C264 0.932 . S
C283 C284 1.386 . S
C283 C285 1.397 . S
C283 H307 0.931 . S
C284 C283 1.386 . S
C284 C288 1.397 . S
C285 C283 1.397 . S
C285 C286 1.384 . S
C285 H308 0.930 . S
C286 C285 1.384 . S
C286 C287 1.377 . S
C286 C289 1.481 . S
C287 C286 1.377 . S
C287 C288 1.389 . S
C287 H309 0.929 . S
C288 C284 1.397 . S
C288 C287 1.389 . S
C288 H310 0.931 . S
C289 C286 1.481 . S
C289 C290 1.387 . S
C289 C294 1.390 . S
C290 C289 1.387 . S
C290 C291 1.401 . S
C290 H311 0.930 . S
C291 C290 1.401 . S
C291 C292 1.376 . S
C291 C300 1.511 . S
C292 C291 1.376 . S
C292 C293 1.392 . S
C292 H313 0.931 . S
C293 C292 1.392 . S
C293 C294 1.361 . S
C293 C295 1.500 . S
C294 C289 1.390 . S
C294 C293 1.361 . S
C294 H312 0.931 . S
C295 C293 1.500 . S
C295 C296 1.371 . S
C295 C297 1.365 . S
C296 C295 1.371 . S
C296 C306 1.386 . S
C296 H314 0.931 . S
C297 C295 1.365 . S
C297 C298 1.409 . S
C297 H315 0.929 . S
C298 C297 1.409 . S
C298 C299 1.380 . S
C298 H316 0.930 . S
C299 C298 1.380 . S
C299 C306 1.357 . S
C300 C291 1.511 . S
C300 C301 1.341 . S
C300 C302 1.371 . S
C301 C300 1.341 . S
C301 C305 1.394 . S
C301 H317 0.930 . S
C302 C300 1.371 . S
C302 C303 1.392 . S
C302 H318 0.931 . S
C303 C302 1.392 . S
C303 C304 1.331 . S
C303 H321 0.932 . S
C304 C303 1.331 . S
C304 C305 1.336 . S
C305 C301 1.394 . S
C305 C304 1.336 . S
C305 H320 0.929 . S
C306 C296 1.386 . S
C306 C299 1.357 . S
C306 H319 0.928 . S
H307 C283 0.931 . S
H308 C285 0.930 . S
H309 C287 0.929 . S
H310 C288 0.931 . S
H311 C290 0.930 . S
H312 C294 0.931 . S
H313 C292 0.931 . S
H314 C296 0.931 . S
H315 C297 0.929 . S
H316 C298 0.930 . S
H317 C301 0.930 . S
H318 C302 0.931 . S
H319 C306 0.928 . S
H320 C305 0.929 . S
H321 C303 0.932 . S
C322 C323 1.386 . S
C322 C324 1.397 . S
C322 H346 0.931 . S
C323 C322 1.386 . S
C323 C327 1.397 . S
C324 C322 1.397 . S
C324 C325 1.384 . S
C324 H347 0.930 . S
C325 C324 1.384 . S
C325 C326 1.377 . S
C325 C328 1.481 . S
C326 C325 1.377 . S
C326 C327 1.389 . S
C326 H348 0.929 . S
C327 C323 1.397 . S
C327 C326 1.389 . S
C327 H349 0.931 . S
C328 C325 1.481 . S
C328 C329 1.387 . S
C328 C333 1.390 . S
C329 C328 1.387 . S
C329 C330 1.401 . S
C329 H350 0.930 . S
C330 C329 1.401 . S
C330 C331 1.376 . S
C330 C339 1.511 . S
C331 C330 1.376 . S
C331 C332 1.392 . S
C331 H352 0.931 . S
C332 C331 1.392 . S
C332 C333 1.361 . S
C332 C334 1.500 . S
C333 C328 1.390 . S
C333 C332 1.361 . S
C333 H351 0.931 . S
C334 C332 1.500 . S
C334 C335 1.371 . S
C334 C336 1.365 . S
C335 C334 1.371 . S
C335 C345 1.386 . S
C335 H353 0.931 . S
C336 C334 1.365 . S
C336 C337 1.409 . S
C336 H354 0.929 . S
C337 C336 1.409 . S
C337 C338 1.380 . S
C337 H355 0.930 . S
C338 C337 1.380 . S
C338 C345 1.357 . S
C339 C330 1.511 . S
C339 C340 1.341 . S
C339 C341 1.371 . S
C340 C339 1.341 . S
C340 C344 1.394 . S
C340 H356 0.930 . S
C341 C339 1.371 . S
C341 C342 1.392 . S
C341 H357 0.931 . S
C342 C341 1.392 . S
C342 C343 1.331 . S
C342 H360 0.932 . S
C343 C342 1.331 . S
C343 C344 1.336 . S
C344 C340 1.394 . S
C344 C343 1.336 . S
C344 H359 0.929 . S
C345 C335 1.386 . S
C345 C338 1.357 . S
C345 H358 0.928 . S
H346 C322 0.931 . S
H347 C324 0.930 . S
H348 C326 0.929 . S
H349 C327 0.931 . S
H350 C329 0.930 . S
H351 C333 0.931 . S
H352 C331 0.931 . S
H353 C335 0.931 . S
H354 C336 0.929 . S
H355 C337 0.930 . S
H356 C340 0.930 . S
H357 C341 0.931 . S
H358 C345 0.928 . S
H359 C344 0.929 . S
H360 C342 0.932 . S
C361 C362 1.386 . S
C361 C363 1.397 . S
C361 H385 0.931 . S
C362 C361 1.386 . S
C362 C366 1.397 . S
C363 C361 1.397 . S
C363 C364 1.384 . S
C363 H386 0.930 . S
C364 C363 1.384 . S
C364 C365 1.377 . S
C364 C367 1.481 1_455 S
C365 C364 1.377 . S
C365 C366 1.389 . S
C365 H387 0.929 1_455 S
C366 C362 1.397 . S
C366 C365 1.389 . S
C366 H388 0.931 . S
C367 C364 1.481 1_655 S
C367 C368 1.387 . S
C367 C372 1.390 . S
C368 C367 1.387 . S
C368 C369 1.401 . S
C368 H389 0.930 . S
C369 C368 1.401 . S
C369 C370 1.376 . S
C369 C378 1.511 . S
C370 C369 1.376 . S
C370 C371 1.392 . S
C370 H391 0.931 . S
C371 C370 1.392 . S
C371 C372 1.361 . S
C371 C373 1.500 . S
C372 C367 1.390 . S
C372 C371 1.361 . S
C372 H390 0.931 . S
C373 C371 1.500 . S
C373 C374 1.371 . S
C373 C375 1.365 . S
C374 C373 1.371 . S
C374 C384 1.386 1_565 S
C374 H392 0.931 . S
C375 C373 1.365 . S
C375 C376 1.437 . S
C375 H393 0.929 . S
C376 C375 1.437 . S
C376 C377 1.360 1_565 S
C376 H394 0.923 1_565 S
C377 C376 1.360 1_545 S
C377 C384 1.357 . S
C378 C369 1.511 . S
C378 C379 1.341 . S
C378 C380 1.371 . S
C379 C378 1.341 . S
C379 C383 1.394 . S
C379 H395 0.930 . S
C380 C378 1.371 . S
C380 C381 1.392 . S
C380 H396 0.931 . S
C381 C380 1.392 . S
C381 C382 1.331 . S
C381 H399 0.932 . S
C382 C381 1.331 . S
C382 C383 1.336 . S
C383 C379 1.394 . S
C383 C382 1.336 . S
C383 H398 0.929 . S
C384 C374 1.386 1_545 S
C384 C377 1.357 . S
C384 H397 0.928 . S
H385 C361 0.931 . S
H386 C363 0.930 . S
H387 C365 0.929 1_655 S
H388 C366 0.931 . S
H389 C368 0.930 . S
H390 C372 0.931 . S
H391 C370 0.931 . S
H392 C374 0.931 . S
H393 C375 0.929 . S
H394 C376 0.923 1_545 S
H395 C379 0.930 . S
H396 C380 0.931 . S
H397 C384 0.928 . S
H398 C383 0.929 . S
H399 C381 0.932 . S
C400 C401 1.369 . S
C400 C402 1.419 . S
C400 H404 0.930 . S
C401 C400 1.369 . S
C401 C410 1.429 . S
C402 C400 1.419 . S
C402 C403 1.363 . S
C402 H405 0.929 . S
C403 C402 1.363 . S
C403 C409 1.428 . S
H404 C400 0.930 . S
H405 C402 0.929 . S
S406 N407 1.613 1_545 S
S406 N408 1.610 1_545 S
N407 S406 1.613 1_565 S
N407 C410 1.350 . S
N408 S406 1.610 1_565 S
N408 C409 1.351 . S
C409 C403 1.428 . S
C409 N408 1.351 . S
C409 C410 1.434 . S
C410 C401 1.429 . S
C410 N407 1.350 . S
C410 C409 1.434 . S
C411 C412 1.369 . S
C411 C413 1.419 . S
C411 H415 0.930 . S
C412 C411 1.369 . S
C412 C421 1.429 . S
C413 C411 1.419 . S
C413 C414 1.363 . S
C413 H416 0.929 . S
C414 C413 1.363 . S
C414 C420 1.428 . S
H415 C411 0.930 . S
H416 C413 0.929 . S
S417 N418 1.613 . S
S417 N419 1.610 . S
N418 S417 1.613 . S
N418 C421 1.350 . S
N419 S417 1.610 . S
N419 C420 1.351 . S
C420 C414 1.428 . S
C420 N419 1.351 . S
C420 C421 1.434 . S
C421 C412 1.429 . S
C421 N418 1.350 . S
C421 C420 1.434 . S
C422 C423 1.369 . S
C422 C424 1.419 . S
C422 H426 0.930 . S
C423 C422 1.369 . S
C423 C432 1.429 . S
C424 C422 1.419 . S
C424 C425 1.363 . S
C424 H427 0.929 . S
C425 C424 1.363 . S
C425 C431 1.428 . S
H426 C422 0.930 . S
H427 C424 0.929 . S
S428 N429 1.613 . S
S428 N430 1.610 . S
N429 S428 1.613 . S
N429 C432 1.350 . S
N430 S428 1.610 . S
N430 C431 1.351 . S
C431 C425 1.428 . S
C431 N430 1.351 . S
C431 C432 1.434 . S
C432 C423 1.429 . S
C432 N429 1.350 . S
C432 C431 1.434 . S
C433 C434 1.369 . S
C433 C435 1.419 . S
C433 H437 0.930 . S
C434 C433 1.369 . S
C434 C443 1.429 . S
C435 C433 1.419 . S
C435 C436 1.363 . S
C435 H438 0.929 . S
C436 C435 1.363 . S
C436 C442 1.428 . S
H437 C433 0.930 . S
H438 C435 0.929 . S
S439 N440 1.613 . S
S439 N441 1.610 . S
N440 S439 1.613 . S
N440 C443 1.350 . S
N441 S439 1.610 . S
N441 C442 1.351 . S
C442 C436 1.428 . S
C442 N441 1.351 . S
C442 C443 1.434 . S
C443 C434 1.429 . S
C443 N440 1.350 . S
C443 C442 1.434 . S
C444 C445 1.369 . S
C444 C446 1.419 . S
C444 H448 0.930 . S
C445 C444 1.369 . S
C445 C454 1.429 . S
C446 C444 1.419 . S
C446 C447 1.363 . S
C446 H449 0.929 . S
C447 C446 1.363 . S
C447 C453 1.428 . S
H448 C444 0.930 . S
H449 C446 0.929 . S
S450 N451 1.613 . S
S450 N452 1.610 . S
N451 S450 1.613 . S
N451 C454 1.350 . S
N452 S450 1.610 . S
N452 C453 1.351 . S
C453 C447 1.428 . S
C453 N452 1.351 . S
C453 C454 1.434 . S
C454 C445 1.429 . S
C454 N451 1.350 . S
C454 C453 1.434 . S
C455 C456 1.369 . S
C455 C457 1.419 1_655 S
C455 H459 0.930 . S
C456 C455 1.369 . S
C456 C465 1.429 1_655 S
C457 C455 1.419 1_455 S
C457 C458 1.363 . S
C457 H460 0.929 . S
C458 C457 1.363 . S
C458 C464 1.428 . S
H459 C455 0.930 . S
H460 C457 0.929 . S
S461 N462 1.613 1_455 S
S461 N463 1.610 . S
N462 S461 1.613 1_655 S
N462 C465 1.350 1_655 S
N463 S461 1.610 . S
N463 C464 1.351 . S
C464 C458 1.428 . S
C464 N463 1.351 . S
C464 C465 1.434 . S
C465 C456 1.429 1_455 S
C465 N462 1.350 1_455 S
C465 C464 1.434 . S
C466 C467 1.369 . S
C466 C468 1.419 . S
C466 H470 0.930 . S
C467 C466 1.369 . S
C467 C476 1.429 . S
C468 C466 1.419 . S
C468 C469 1.363 . S
C468 H471 0.929 . S
C469 C468 1.363 . S
C469 C475 1.428 . S
H470 C466 0.930 . S
H471 C468 0.929 . S
S472 N473 1.613 . S
S472 N474 1.610 . S
N473 S472 1.613 . S
N473 C476 1.350 . S
N474 S472 1.610 . S
N474 C475 1.351 . S
C475 C469 1.428 . S
C475 N474 1.351 . S
C475 C476 1.434 . S
C476 C467 1.429 . S
C476 N473 1.350 . S
C476 C475 1.434 . S
C477 C478 1.369 . S
C477 C479 1.419 . S
C477 H481 0.930 . S
C478 C477 1.369 . S
C478 C487 1.429 . S
C479 C477 1.419 . S
C479 C480 1.363 . S
C479 H482 0.929 . S
C480 C479 1.363 . S
C480 C486 1.428 . S
H481 C477 0.930 . S
H482 C479 0.929 . S
S483 N484 1.613 . S
S483 N485 1.610 . S
N484 S483 1.613 . S
N484 C487 1.350 . S
N485 S483 1.610 . S
N485 C486 1.351 . S
C486 C480 1.428 . S
C486 N485 1.351 . S
C486 C487 1.434 . S
C487 C478 1.429 . S
C487 N484 1.350 . S
C487 C486 1.434 . S
C488 C489 1.369 . S
C488 C490 1.419 . S
C488 H492 0.930 . S
C489 C488 1.369 . S
C489 C498 1.429 . S
C490 C488 1.419 . S
C490 C491 1.363 . S
C490 H493 0.929 . S
C491 C490 1.363 . S
C491 C497 1.428 . S
H492 C488 0.930 . S
H493 C490 0.929 . S
S494 N495 1.613 1_565 S
S494 N496 1.610 . S
N495 S494 1.613 1_545 S
N495 C498 1.350 . S
N496 S494 1.610 . S
N496 C497 1.351 1_565 S
C497 C491 1.428 . S
C497 N496 1.351 1_545 S
C497 C498 1.434 . S
C498 C489 1.429 . S
C498 N495 1.350 . S
C498 C497 1.434 . S
C499 C500 1.369 . S
C499 C501 1.419 . S
C499 H503 0.930 . S
C500 C499 1.369 . S
C500 C509 1.429 . S
C501 C499 1.419 . S
C501 C502 1.363 . S
C501 H504 0.929 . S
C502 C501 1.363 . S
C502 C508 1.428 . S
H503 C499 0.930 . S
H504 C501 0.929 . S
S505 N506 1.613 . S
S505 N507 1.610 . S
N506 S505 1.613 . S
N506 C509 1.350 . S
N507 S505 1.610 . S
N507 C508 1.351 . S
C508 C502 1.428 . S
C508 N507 1.351 . S
C508 C509 1.434 . S
C509 C500 1.429 . S
C509 N506 1.350 . S
C509 C508 1.434 . S
C510 C511 1.369 . S
C510 C512 1.419 . S
C510 H514 0.930 . S
C511 C510 1.369 . S
C511 C520 1.429 1_556 S
C512 C510 1.419 . S
C512 C513 1.363 . S
C512 H515 0.929 . S
C513 C512 1.363 . S
C513 C519 1.428 1_556 S
H514 C510 0.930 . S
H515 C512 0.929 . S
S516 N517 1.613 . S
S516 N518 1.610 . S
N517 S516 1.613 . S
N517 C520 1.350 . S
N518 S516 1.610 . S
N518 C519 1.351 . S
C519 C513 1.428 1_554 S
C519 N518 1.351 . S
C519 C520 1.434 . S
C520 C511 1.429 1_554 S
C520 N517 1.350 . S
C520 C519 1.434 . S
C521 C522 1.369 . S
C521 C523 1.419 . S
C521 H525 0.930 . S
C522 C521 1.369 . S
C522 C531 1.429 . S
C523 C521 1.419 . S
C523 C524 1.363 . S
C523 H526 0.929 . S
C524 C523 1.363 . S
C524 C530 1.428 . S
H525 C521 0.930 . S
H526 C523 0.929 . S
S527 N528 1.613 . S
S527 N529 1.610 . S
N528 S527 1.613 . S
N528 C531 1.350 . S
N529 S527 1.610 . S
N529 C530 1.351 . S
C530 C524 1.428 . S
C530 N529 1.351 . S
C530 C531 1.434 . S
C531 C522 1.429 . S
C531 N528 1.350 . S
C531 C530 1.434 . S
C532 C533 1.369 . S
C532 C534 1.419 . S
C532 H536 0.930 . S
C533 C532 1.369 . S
C533 C542 1.429 . S
C534 C532 1.419 . S
C534 C535 1.363 . S
C534 H537 0.929 . S
C535 C534 1.363 . S
C535 C541 1.428 . S
H536 C532 0.930 . S
H537 C534 0.929 . S
S538 N539 1.613 . S
S538 N540 1.610 . S
N539 S538 1.613 . S
N539 C542 1.350 . S
N540 S538 1.610 . S
N540 C541 1.351 . S
C541 C535 1.428 . S
C541 N540 1.351 . S
C541 C542 1.434 . S
C542 C533 1.429 . S
C542 N539 1.350 . S
C542 C541 1.434 . S
C543 C544 1.369 . S
C543 C545 1.419 1_455 S
C543 H547 0.930 . S
C544 C543 1.369 . S
C544 C553 1.423 1_455 S
C545 C543 1.419 1_655 S
C545 C546 1.363 . S
C545 H548 0.929 . S
C546 C545 1.363 . S
C546 C552 1.428 . S
H547 C543 0.930 . S
H548 C545 0.929 . S
S549 N550 1.613 1_655 S
S549 N551 1.610 . S
N550 S549 1.613 1_455 S
N550 C553 1.346 1_455 S
N551 S549 1.610 . S
N551 C552 1.351 . S
C552 C546 1.428 . S
C552 N551 1.351 . S
C552 C553 1.444 . S
C553 C544 1.423 1_655 S
C553 N550 1.346 1_655 S
C553 C552 1.444 . S
C554 C555 1.369 . S
C554 C556 1.419 . S
C554 H558 0.930 . S
C555 C554 1.369 . S
C555 C564 1.429 . S
C556 C554 1.419 . S
C556 C557 1.363 . S
C556 H559 0.929 . S
C557 C556 1.363 . S
C557 C563 1.428 . S
H558 C554 0.930 . S
H559 C556 0.929 . S
S560 N561 1.613 . S
S560 N562 1.610 . S
N561 S560 1.613 . S
N561 C564 1.350 . S
N562 S560 1.610 . S
N562 C563 1.351 . S
C563 C557 1.428 . S
C563 N562 1.351 . S
C563 C564 1.434 . S
C564 C555 1.429 . S
C564 N561 1.350 . S
C564 C563 1.434 . S
C565 C566 1.369 . S
C565 C567 1.419 . S
C565 H569 0.930 . S
C566 C565 1.369 . S
C566 C575 1.429 . S
C567 C565 1.419 . S
C567 C568 1.363 . S
C567 H570 0.929 . S
C568 C567 1.363 . S
C568 C574 1.428 . S
H569 C565 0.930 . S
H570 C567 0.929 . S
S571 N572 1.613 . S
S571 N573 1.610 . S
N572 S571 1.613 . S
N572 C575 1.350 . S
N573 S571 1.610 . S
N573 C574 1.351 . S
C574 C568 1.428 . S
C574 N573 1.351 . S
C574 C575 1.434 . S
C575 C566 1.429 . S
C575 N572 1.350 . S
C575 C574 1.434 . S
C576 C577 1.369 . S
C576 C578 1.419 . S
C576 H580 0.930 . S
C577 C576 1.369 . S
C577 C586 1.429 . S
C578 C576 1.419 . S
C578 C579 1.363 . S
C578 H581 0.929 . S
C579 C578 1.363 . S
C579 C585 1.428 . S
H580 C576 0.930 . S
H581 C578 0.929 . S
S582 N583 1.613 . S
S582 N584 1.610 . S
N583 S582 1.613 . S
N583 C586 1.350 . S
N584 S582 1.610 . S
N584 C585 1.351 . S
C585 C579 1.428 . S
C585 N584 1.351 . S
C585 C586 1.434 . S
C586 C577 1.429 . S
C586 N583 1.350 . S
C586 C585 1.434 . S
C587 C588 1.369 . S
C587 C589 1.419 . S
C587 H591 0.930 . S
C588 C587 1.369 . S
C588 C597 1.429 . S
C589 C587 1.419 . S
C589 C590 1.363 . S
C589 H592 0.929 . S
C590 C589 1.363 . S
C590 C596 1.428 . S
H591 C587 0.930 . S
H592 C589 0.929 . S
S593 N594 1.613 . S
S593 N595 1.610 . S
N594 S593 1.613 . S
N594 C597 1.350 . S
N595 S593 1.610 . S
N595 C596 1.351 . S
C596 C590 1.428 . S
C596 N595 1.351 . S
C596 C597 1.434 . S
C597 C588 1.429 . S
C597 N594 1.350 . S
C597 C596 1.434 . S
C598 C599 1.369 . S
C598 C600 1.419 . S
C598 H602 0.930 . S
C599 C598 1.369 . S
C599 C608 1.429 . S
C600 C598 1.419 . S
C600 C601 1.363 . S
C600 H603 0.929 . S
C601 C600 1.363 . S
C601 C607 1.428 . S
H602 C598 0.930 . S
H603 C600 0.929 . S
S604 N605 1.613 . S
S604 N606 1.610 . S
N605 S604 1.613 . S
N605 C608 1.350 . S
N606 S604 1.610 . S
N606 C607 1.351 . S
C607 C601 1.428 . S
C607 N606 1.351 . S
C607 C608 1.434 . S
C608 C599 1.429 . S
C608 N605 1.350 . S
C608 C607 1.434 . S
C609 C610 1.369 . S
C609 C611 1.419 . S
C609 H613 0.930 . S
C610 C609 1.369 . S
C610 C619 1.429 . S
C611 C609 1.419 . S
C611 C612 1.363 . S
C611 H614 0.929 . S
C612 C611 1.363 . S
C612 C618 1.428 . S
H613 C609 0.930 . S
H614 C611 0.929 . S
S615 N616 1.613 . S
S615 N617 1.610 . S
N616 S615 1.613 . S
N616 C619 1.350 . S
N617 S615 1.610 . S
N617 C618 1.351 . S
C618 C612 1.428 . S
C618 N617 1.351 . S
C618 C619 1.434 . S
C619 C610 1.429 . S
C619 N616 1.350 . S
C619 C618 1.434 . S
C620 C621 1.369 . S
C620 C622 1.419 . S
C620 H624 0.930 . S
C621 C620 1.369 . S
C621 C630 1.429 . S
C622 C620 1.419 . S
C622 C623 1.363 . S
C622 H625 0.929 . S
C623 C622 1.363 . S
C623 C629 1.428 . S
H624 C620 0.930 . S
H625 C622 0.929 . S
S626 N627 1.613 . S
S626 N628 1.610 . S
N627 S626 1.613 . S
N627 C630 1.350 . S
N628 S626 1.610 . S
N628 C629 1.351 . S
C629 C623 1.428 . S
C629 N628 1.351 . S
C629 C630 1.434 . S
C630 C621 1.429 . S
C630 N627 1.350 . S
C630 C629 1.434 . S
C631 C632 1.369 . S
C631 C633 1.419 . S
C631 H635 0.930 . S
C632 C631 1.369 . S
C632 C641 1.429 . S
C633 C631 1.419 . S
C633 C634 1.363 . S
C633 H636 0.929 . S
C634 C633 1.363 . S
C634 C640 1.428 . S
H635 C631 0.930 . S
H636 C633 0.929 . S
S637 N638 1.613 . S
S637 N639 1.610 . S
N638 S637 1.613 . S
N638 C641 1.350 . S
N639 S637 1.610 . S
N639 C640 1.351 . S
C640 C634 1.428 . S
C640 N639 1.351 . S
C640 C641 1.434 . S
C641 C632 1.429 . S
C641 N638 1.350 . S
C641 C640 1.434 . S
C642 C643 1.369 . S
C642 C644 1.419 . S
C642 H646 0.930 . S
C643 C642 1.369 . S
C643 C652 1.429 . S
C644 C642 1.419 . S
C644 C645 1.363 . S
C644 H647 0.929 . S
C645 C644 1.363 . S
C645 C651 1.428 . S
H646 C642 0.930 . S
H647 C644 0.929 . S
S648 N649 1.613 . S
S648 N650 1.610 . S
N649 S648 1.613 . S
N649 C652 1.350 . S
N650 S648 1.610 . S
N650 C651 1.351 . S
C651 C645 1.428 . S
C651 N650 1.351 . S
C651 C652 1.434 . S
C652 C643 1.429 . S
C652 N649 1.350 . S
C652 C651 1.434 . S
C653 C654 1.369 . S
C653 C655 1.419 . S
C653 H657 0.930 . S
C654 C653 1.369 . S
C654 C663 1.429 . S
C655 C653 1.419 . S
C655 C656 1.363 . S
C655 H658 0.929 . S
C656 C655 1.363 . S
C656 C662 1.428 . S
H657 C653 0.930 . S
H658 C655 0.929 . S
S659 N660 1.613 . S
S659 N661 1.610 . S
N660 S659 1.613 . S
N660 C663 1.350 . S
N661 S659 1.610 . S
N661 C662 1.351 . S
C662 C656 1.428 . S
C662 N661 1.351 . S
C662 C663 1.434 . S
C663 C654 1.429 . S
C663 N660 1.350 . S
C663 C662 1.434 . S
C401 C8 1.767 . S
C403 C104 1.631 . S
C412 C31 1.785 . S
C414 C143 1.587 . S
C423 C53 1.987 . S
C425 C182 1.809 1_545 S
C436 C206 1.523 . S
C434 C74 1.553 . S
C447 C245 1.633 . S
C445 C26 1.761 . S
C456 C48 1.559 . S
C458 C284 1.526 . S
C467 C71 1.982 . S
C469 C338 1.793 . S
C478 C5 1.784 . S
C480 C362 1.595 . S
C489 C50 1.767 . S
C491 C377 1.625 . S
C502 C260 1.587 . S
C500 C70 1.785 . S
C513 C299 1.811 1_565 S
C511 C4 1.985 1_556 S
C522 C28 1.549 . S
C524 C323 1.534 . S
C535 C128 1.623 . S
C533 C73 1.761 . S
C544 C7 1.563 . S
C546 C167 1.535 . S
C557 C221 1.802 . S
C555 C30 1.981 . S
C568 C89 1.582 . S
C566 C52 1.784 . S
C579 C343 1.632 . S
C577 C9 1.739 . S
C590 C382 1.476 . S
C588 C29 1.492 . S
C599 C51 1.491 . S
C601 C265 1.478 . S
C612 C304 1.616 . S
C610 C75 1.746 . S
C623 C187 1.646 . S
C621 C27 1.743 . S
C632 C49 1.738 . S
C634 C226 1.609 . S
C645 C109 1.461 . S
C643 C72 1.489 . S
C656 C148 1.459 . S
C654 C6 1.491 1_556 S
