# Generated by pormake.
# Topology nom, (4,4)-cn, num edge types: 1
# Building blocks:
#     Node 0, Type 0, BuildingBlock: GIZVER_clean_linker_0, # of connection points: 4
#     Node 1, Type 0, BuildingBlock: GIZVER_clean_linker_0, # of connection points: 4
#     Node 2, Type 0, BuildingBlock: GIZVER_clean_linker_0, # of connection points: 4
#     Node 3, Type 0, BuildingBlock: GIZVER_clean_linker_0, # of connection points: 4
#     Node 4, Type 0, BuildingBlock: GIZVER_clean_linker_0, # of connection points: 4
#     Node 5, Type 0, BuildingBlock: GIZVER_clean_linker_0, # of connection points: 4
#     Node 6, Type 1, BuildingBlock: TATPOV_clean_sbu_0, # of connection points: 4
#     Node 7, Type 1, BuildingBlock: TATPOV_clean_sbu_0, # of connection points: 4
#     Node 8, Type 1, BuildingBlock: TATPOV_clean_sbu_0, # of connection points: 4
#     Node 9, Type 1, BuildingBlock: TATPOV_clean_sbu_0, # of connection points: 4
#     Node 10, Type 1, BuildingBlock: TATPOV_clean_sbu_0, # of connection points: 4
#     Node 11, Type 1, BuildingBlock: TATPOV_clean_sbu_0, # of connection points: 4
#     Edge 12, Type (0, 1), BuildingBlock: TEMPAE_clean_linker_10, # of connection points: 2
#     Edge 13, Type (0, 1), BuildingBlock: TEMPAE_clean_linker_10, # of connection points: 2
#     Edge 14, Type (0, 1), BuildingBlock: TEMPAE_clean_linker_10, # of connection points: 2
#     Edge 15, Type (0, 1), BuildingBlock: TEMPAE_clean_linker_10, # of connection points: 2
#     Edge 16, Type (0, 1), BuildingBlock: TEMPAE_clean_linker_10, # of connection points: 2
#     Edge 17, Type (0, 1), BuildingBlock: TEMPAE_clean_linker_10, # of connection points: 2
#     Edge 18, Type (0, 1), BuildingBlock: TEMPAE_clean_linker_10, # of connection points: 2
#     Edge 19, Type (0, 1), BuildingBlock: TEMPAE_clean_linker_10, # of connection points: 2
#     Edge 20, Type (0, 1), BuildingBlock: TEMPAE_clean_linker_10, # of connection points: 2
#     Edge 21, Type (0, 1), BuildingBlock: TEMPAE_clean_linker_10, # of connection points: 2
#     Edge 22, Type (0, 1), BuildingBlock: TEMPAE_clean_linker_10, # of connection points: 2
#     Edge 23, Type (0, 1), BuildingBlock: TEMPAE_clean_linker_10, # of connection points: 2
#     Edge 24, Type (0, 1), BuildingBlock: TEMPAE_clean_linker_10, # of connection points: 2
#     Edge 25, Type (0, 1), BuildingBlock: TEMPAE_clean_linker_10, # of connection points: 2
#     Edge 26, Type (0, 1), BuildingBlock: TEMPAE_clean_linker_10, # of connection points: 2
#     Edge 27, Type (0, 1), BuildingBlock: TEMPAE_clean_linker_10, # of connection points: 2
#     Edge 28, Type (0, 1), BuildingBlock: TEMPAE_clean_linker_10, # of connection points: 2
#     Edge 29, Type (0, 1), BuildingBlock: TEMPAE_clean_linker_10, # of connection points: 2
#     Edge 30, Type (0, 1), BuildingBlock: TEMPAE_clean_linker_10, # of connection points: 2
#     Edge 31, Type (0, 1), BuildingBlock: TEMPAE_clean_linker_10, # of connection points: 2
#     Edge 32, Type (0, 1), BuildingBlock: TEMPAE_clean_linker_10, # of connection points: 2
#     Edge 33, Type (0, 1), BuildingBlock: TEMPAE_clean_linker_10, # of connection points: 2
#     Edge 34, Type (0, 1), BuildingBlock: TEMPAE_clean_linker_10, # of connection points: 2
#     Edge 35, Type (0, 1), BuildingBlock: TEMPAE_clean_linker_10, # of connection points: 2
# Relax obj value: 0.020
# Max RMSD: 0.119
# Mean RMSD: 0.091
data_MOF--net-nom--node1-TATPOV_clean_sbu_0--node2-GIZVER_clean_linker_0--edge1-TEMPAE_clean_linker_10
_symmetry_space_group_name_H-M    P1
_symmetry_Int_Tables_number       1
_symmetry_cell_setting            triclinic
loop_
_symmetry_equiv_pos_as_xyz
'x, y, z'
_cell_length_a     46.582593
_cell_length_b     47.101564
_cell_length_c     46.471204
_cell_angle_alpha  90.716473
_cell_angle_beta   90.817293
_cell_angle_gamma 120.14417
loop_
_atom_site_label
_atom_site_type_symbol
_atom_site_fract_x
_atom_site_fract_y
_atom_site_fract_z
_atom_type_partial_charge
H0 H 0.97604 0.52643 0.3554 0.0
H1 H 0.97695 0.52407 0.26296 0.0
H2 H 0.89488 0.4478 0.30724 0.0
H3 H 0.01107 0.57591 0.32884 0.0
H4 H 0.00982 0.57528 0.29053 0.0
H5 H 0.04425 0.5567 0.35539 0.0
H6 H 0.13082 0.57074 0.31131 0.0
H7 H 0.05095 0.57044 0.26399 0.0
C8 C 0.96506 0.51366 0.33512 0.0
C9 C 0.93381 0.48479 0.33469 0.0
C10 C 0.98093 0.52766 0.30926 0.0
C11 C 0.96571 0.5122 0.28287 0.0
C12 C 0.9345 0.48347 0.28211 0.0
C13 C 0.9195 0.46932 0.30806 0.0
C14 C 0.01096 0.56166 0.3095 0.0
C15 C 0.04276 0.56063 0.30937 0.0
C16 C 0.05698 0.55856 0.33555 0.0
C17 C 0.0891 0.56291 0.33651 0.0
C18 C 0.10567 0.56651 0.31067 0.0
C19 C 0.09236 0.56981 0.28457 0.0
C20 C 0.06063 0.56634 0.28389 0.0
H21 H 0.4426 0.9928 0.51145 0.0
H22 H 0.46941 0.99502 0.42309 0.0
H23 H 0.45598 0.91563 0.47668 0.0
H24 H 0.43857 0.03003 0.47788 0.0
H25 H 0.4472 0.02873 0.44065 0.0
H26 H 0.49799 0.04764 0.51009 0.0
H27 H 0.56462 0.14734 0.48667 0.0
H28 H 0.4864 0.08284 0.42812 0.0
C29 C 0.45048 0.98299 0.49401 0.0
C30 C 0.44978 0.95309 0.4974 0.0
C31 C 0.45931 0.99915 0.46753 0.0
C32 C 0.46569 0.98413 0.44409 0.0
C33 C 0.46352 0.95343 0.44701 0.0
C34 C 0.45799 0.93944 0.47428 0.0
C35 C 0.45676 0.02955 0.46292 0.0
C36 C 0.48956 0.06096 0.46791 0.0
C37 C 0.50685 0.06684 0.4944 0.0
C38 C 0.53419 0.09791 0.50145 0.0
C39 C 0.54488 0.12271 0.48103 0.0
C40 C 0.52816 0.11744 0.45449 0.0
C41 C 0.50029 0.08657 0.44808 0.0
H42 H 0.42214 0.50165 0.61491 0.0
H43 H 0.47716 0.51077 0.69317 0.0
H44 H 0.45118 0.58381 0.67246 0.0
H45 H 0.43632 0.46075 0.6246 0.0
H46 H 0.42908 0.45294 0.66193 0.0
H47 H 0.49895 0.49625 0.61021 0.0
H48 H 0.55796 0.46098 0.65169 0.0
H49 H 0.46578 0.44085 0.68785 0.0
C50 C 0.43575 0.51574 0.63398 0.0
C51 C 0.4354 0.54454 0.64141 0.0
C52 C 0.45143 0.50372 0.65234 0.0
C53 C 0.46676 0.52089 0.67824 0.0
C54 C 0.4669 0.54996 0.68572 0.0
C55 C 0.45217 0.56199 0.6666 0.0
C56 C 0.44729 0.47021 0.64647 0.0
C57 C 0.47954 0.47001 0.6494 0.0
C58 C 0.50342 0.48418 0.62799 0.0
C59 C 0.53193 0.48111 0.62857 0.0
C60 C 0.53701 0.46507 0.65163 0.0
C61 C 0.51347 0.45076 0.67303 0.0
C62 C 0.48465 0.45312 0.6719 0.0
H63 H 0.95541 0.40978 0.75429 0.0
H64 H 0.97112 0.42697 0.84608 0.0
H65 H 0.88252 0.41568 0.80529 0.0
H66 H 1.00261 0.41083 0.77712 0.0
H67 H 1.00178 0.4055 0.8151 0.0
H68 H 0.03227 0.46645 0.75689 0.0
H69 H 0.10695 0.54315 0.81146 0.0
H70 H 0.03726 0.45101 0.84758 0.0
C71 C 0.94769 0.41428 0.77492 0.0
C72 C 0.9168 0.41255 0.77698 0.0
C73 C 0.9681 0.42088 0.79976 0.0
C74 C 0.95647 0.42401 0.82677 0.0
C75 C 0.92518 0.42134 0.82896 0.0
C76 C 0.90655 0.41736 0.8038 0.0
C77 C 1.00069 0.42136 0.79809 0.0
C78 C 0.02985 0.45582 0.80213 0.0
C79 C 0.04304 0.47597 0.77811 0.0
C80 C 0.07158 0.50718 0.78122 0.0
C81 C 0.08507 0.51899 0.80886 0.0
C82 C 0.07358 0.49876 0.83269 0.0
C83 C 0.0457 0.46715 0.82936 0.0
H84 H 0.63412 0.06085 0.0158 0.0
H85 H 0.58667 0.03219 0.93169 0.0
H86 H 0.60349 0.12166 0.9729 0.0
H87 H 0.63169 0.01467 -0.00908 0.0
H88 H 0.62698 0.01351 0.95265 0.0
H89 H 0.57956 0.98532 0.02103 0.0
H90 H 0.5004 0.89759 0.98089 0.0
H91 H 0.57936 0.96776 0.92956 0.0
C92 C 0.62174 0.06488 -0.00228 0.0
C93 C 0.61877 0.09313 -0.00249 0.0
C94 C 0.60952 0.04235 0.97415 0.0
C95 C 0.59505 0.04885 0.95021 0.0
C96 C 0.59249 0.07732 0.94969 0.0
C97 C 0.60388 0.09884 0.97364 0.0
C98 C 0.6147 0.01314 0.97312 0.0
C99 C 0.58223 0.98109 0.97489 0.0
C100 C 0.56751 0.97047 0.00185 0.0
C101 C 0.53846 0.93988 0.00419 0.0
C102 C 0.52313 0.92107 0.97923 0.0
C103 C 0.53775 0.93055 0.95243 0.0
C104 C 0.5675 0.96063 0.95019 0.0
H105 H 0.57805 0.54203 0.11659 0.0
H106 H 0.55132 0.52544 0.20533 0.0
H107 H 0.55199 0.44938 0.15353 0.0
H108 H 0.5874 0.5872 0.14777 0.0
H109 H 0.58305 0.58132 0.18573 0.0
H110 H 0.52861 0.55771 0.11828 0.0
H111 H 0.46516 0.58983 0.15465 0.0
H112 H 0.54488 0.59472 0.2059 0.0
C113 C 0.56837 0.52541 0.13442 0.0
C114 C 0.56463 0.49398 0.13182 0.0
C115 C 0.56212 0.53632 0.16067 0.0
C116 C 0.5531 0.51579 0.18456 0.0
C117 C 0.55021 0.48462 0.18239 0.0
C118 C 0.55369 0.47317 0.15537 0.0
C119 C 0.5701 0.57149 0.16454 0.0
C120 C 0.53925 0.57432 0.16271 0.0
C121 C 0.52108 0.56676 0.13655 0.0
C122 C 0.49404 0.57194 0.13359 0.0
C123 C 0.48497 0.58423 0.1572 0.0
C124 C 0.50301 0.5924 0.1833 0.0
C125 C 0.53028 0.58752 0.18602 0.0
Zn126 Zn 0.69159 0.48373 0.40816 0.0
Zn127 Zn 0.65328 0.41832 0.41481 0.0
O128 O 0.7008 0.42586 0.41127 0.0
O129 O 0.73197 0.4791 0.40464 0.0
O130 O 0.62601 0.3691 0.41955 0.0
O131 O 0.67671 0.49149 0.44632 0.0
O132 O 0.64483 0.43807 0.4513 0.0
C133 C 0.72906 0.45108 0.40721 0.0
C134 C 0.64001 0.45251 0.3647 0.0
O135 O 0.63293 0.42656 0.37835 0.0
O136 O 0.66431 0.47989 0.37302 0.0
C137 C 0.61865 0.34946 0.39804 0.0
O138 O 0.6283 0.36158 0.37236 0.0
C139 C 0.65569 0.46743 0.46055 0.0
Zn140 Zn 0.22363 0.69774 0.57709 0.0
Zn141 Zn 0.25924 0.66626 0.57261 0.0
O142 O 0.29427 0.71591 0.57356 0.0
O143 O 0.26608 0.74142 0.58066 0.0
O144 O 0.28545 0.64247 0.57195 0.0
O145 O 0.2019 0.67294 0.61265 0.0
O146 O 0.22948 0.64651 0.60762 0.0
C147 C 0.29347 0.74235 0.5775 0.0
C148 C 0.21008 0.65704 0.5249 0.0
O149 O 0.23164 0.65091 0.53559 0.0
O150 O 0.20306 0.67654 0.53793 0.0
C151 C 0.31632 0.65584 0.56706 0.0
O152 O 0.33326 0.68732 0.56162 0.0
C153 C 0.20832 0.65116 0.62081 0.0
Zn154 Zn 0.54855 0.22089 0.7371 0.0
Zn155 Zn 0.61458 0.25638 0.74068 0.0
O156 O 0.59875 0.29058 0.73971 0.0
O157 O 0.54467 0.26079 0.74514 0.0
O158 O 0.66495 0.28394 0.74287 0.0
O159 O 0.54885 0.19313 0.76942 0.0
O160 O 0.60254 0.22694 0.77619 0.0
C161 C 0.57063 0.28856 0.74314 0.0
C162 C 0.57968 0.21244 0.68802 0.0
O163 O 0.60577 0.22917 0.70353 0.0
O164 O 0.55185 0.20769 0.69625 0.0
C165 C 0.68232 0.29513 0.72049 0.0
O166 O 0.66723 0.28943 0.69521 0.0
C167 C 0.57553 0.20175 0.78351 0.0
Zn168 Zn 0.34259 0.56632 0.90105 0.0
Zn169 Zn 0.37344 0.63093 0.90911 0.0
O170 O 0.32308 0.61662 0.90498 0.0
O171 O 0.29822 0.56252 0.90515 0.0
O172 O 0.39781 0.68084 0.9134 0.0
O173 O 0.36645 0.563 0.93588 0.0
O174 O 0.38668 0.61559 0.94588 0.0
C175 C 0.29663 0.58852 0.90526 0.0
C176 C 0.38769 0.59922 0.85705 0.0
O177 O 0.39543 0.62375 0.87376 0.0
O178 O 0.36312 0.57135 0.8623 0.0
C179 C 0.40617 0.6992 0.89155 0.0
O180 O 0.39767 0.68551 0.86571 0.0
C181 C 0.38322 0.58778 0.95232 0.0
Zn182 Zn 0.78403 0.4578 0.04477 0.0
Zn183 Zn 0.75295 0.39176 0.05088 0.0
O184 O 0.71516 0.40311 0.05148 0.0
O185 O 0.74007 0.45598 0.04236 0.0
O186 O 0.72909 0.34185 0.04975 0.0
O187 O 0.80595 0.45596 0.00867 0.0
O188 O 0.78219 0.40266 0.01518 0.0
C189 C 0.71387 0.42915 0.04701 0.0
C190 C 0.80221 0.43556 0.09711 0.0
O191 O 0.78182 0.40675 0.08746 0.0
O192 O 0.80664 0.4605 0.08336 0.0
C193 C 0.72765 0.32302 0.0698 0.0
O194 O 0.74171 0.33584 0.09497 0.0
C195 C 0.80142 0.42811 0.0011 0.0
Zn196 Zn 0.34852 0.80012 0.21039 0.0
Zn197 Zn 0.38357 0.76917 0.22015 0.0
O198 O 0.33424 0.73252 0.21842 0.0
O199 O 0.30584 0.7567 0.20654 0.0
O200 O 0.40791 0.74383 0.22195 0.0
O201 O 0.37456 0.82153 0.17526 0.0
O202 O 0.40425 0.79815 0.18511 0.0
C203 C 0.30676 0.73095 0.21211 0.0
C204 C 0.38795 0.81798 0.26475 0.0
O205 O 0.39659 0.79754 0.25649 0.0
O206 O 0.3677 0.82239 0.24955 0.0
C207 C 0.41677 0.7347 0.24439 0.0
O208 O 0.41034 0.74219 0.2699 0.0
C209 C 0.39864 0.81721 0.16985 0.0
C210 C 0.12683 0.61965 0.25721 0.0
C211 C 0.11578 0.58637 0.26123 0.0
C212 C 0.15678 0.63979 0.24354 0.0
C213 C 0.17547 0.62595 0.23278 0.0
C214 C 0.16233 0.59156 0.23378 0.0
C215 C 0.13293 0.5722 0.24869 0.0
C216 C 0.17007 0.67639 0.24358 0.0
C217 C 0.18057 0.57561 0.22118 0.0
C218 C 0.25069 0.68897 0.19311 0.0
C219 C 0.27525 0.69996 0.21491 0.0
C220 C 0.21862 0.66252 0.19761 0.0
C221 C 0.21065 0.64818 0.22506 0.0
C222 C 0.23591 0.65843 0.24671 0.0
C223 C 0.26813 0.68378 0.2411 0.0
C224 C 0.19294 0.65115 0.1735 0.0
C225 C 0.22837 0.64451 0.27657 0.0
H226 H 0.11379 0.63062 0.26738 0.0
H227 H 0.12443 0.54645 0.25202 0.0
H228 H 0.19237 0.68891 0.25803 0.0
H229 H 0.17777 0.68614 0.22174 0.0
H230 H 0.15151 0.6829 0.25107 0.0
H231 H 0.16369 0.54887 0.21718 0.0
H232 H 0.1923 0.58717 0.20067 0.0
H233 H 0.20056 0.57878 0.23642 0.0
H234 H 0.25639 0.70154 0.17279 0.0
H235 H 0.28717 0.69263 0.25798 0.0
H236 H 0.17693 0.66208 0.17663 0.0
H237 H 0.17673 0.62403 0.1733 0.0
H238 H 0.20468 0.65872 0.1522 0.0
H239 H 0.21035 0.65018 0.28674 0.0
H240 H 0.25097 0.65463 0.29069 0.0
H241 H 0.21679 0.61742 0.27544 0.0
C242 C 0.5148 0.15584 0.42871 0.0
C243 C 0.53789 0.14617 0.43596 0.0
C244 C 0.52532 0.18737 0.41821 0.0
C245 C 0.55969 0.20958 0.41498 0.0
C246 C 0.58274 0.19881 0.41991 0.0
C247 C 0.57153 0.16722 0.43031 0.0
C248 C 0.49992 0.19775 0.41284 0.0
C249 C 0.61956 0.22153 0.41653 0.0
C250 C 0.5927 0.2917 0.37833 0.0
C251 C 0.60125 0.31341 0.40209 0.0
C252 C 0.57808 0.25766 0.38203 0.0
C253 C 0.57208 0.24507 0.41016 0.0
C254 C 0.57983 0.26676 0.43416 0.0
C255 C 0.59421 0.30061 0.42983 0.0
C256 C 0.56993 0.23531 0.35592 0.0
C257 C 0.57386 0.25434 0.46455 0.0
H258 H 0.4888 0.13973 0.43327 0.0
H259 H 0.58938 0.15966 0.43579 0.0
H260 H 0.50147 0.21444 0.43062 0.0
H261 H 0.50493 0.21144 0.39254 0.0
H262 H 0.47424 0.17638 0.41167 0.0
H263 H 0.63365 0.20829 0.41782 0.0
H264 H 0.62458 0.23411 0.39564 0.0
H265 H 0.62905 0.24078 0.43382 0.0
H266 H 0.59786 0.30132 0.35678 0.0
H267 H 0.60062 0.31712 0.44832 0.0
H268 H 0.54391 0.21474 0.35659 0.0
H269 H 0.5862 0.22438 0.35591 0.0
H270 H 0.57333 0.24852 0.33548 0.0
H271 H 0.5475 0.23504 0.46684 0.0
H272 H 0.57997 0.27421 0.48078 0.0
H273 H 0.58925 0.24302 0.46942 0.0
C274 C 0.3945 0.56388 0.64103 0.0
C275 C 0.41446 0.55496 0.62543 0.0
C276 C 0.37782 0.57801 0.62758 0.0
C277 C 0.38024 0.58255 0.5975 0.0
C278 C 0.39846 0.57154 0.58121 0.0
C279 C 0.4156 0.55799 0.59544 0.0
C280 C 0.35879 0.58941 0.6459 0.0
C281 C 0.40084 0.57516 0.549 0.0
C282 C 0.3155 0.60233 0.56981 0.0
C283 C 0.33354 0.63678 0.57038 0.0
C284 C 0.33105 0.58408 0.57614 0.0
C285 C 0.36524 0.60072 0.58394 0.0
C286 C 0.3839 0.63545 0.58302 0.0
C287 C 0.36788 0.65303 0.57596 0.0
C288 C 0.31047 0.54708 0.57609 0.0
C289 C 0.42029 0.65421 0.59159 0.0
H290 H 0.39268 0.56063 0.66412 0.0
H291 H 0.43078 0.5509 0.58328 0.0
H292 H 0.36975 0.61636 0.64414 0.0
H293 H 0.33261 0.57769 0.63813 0.0
H294 H 0.35905 0.58364 0.66898 0.0
H295 H 0.41167 0.56116 0.53908 0.0
H296 H 0.37595 0.56662 0.53905 0.0
H297 H 0.41672 0.60144 0.54384 0.0
H298 H 0.28902 0.58958 0.56506 0.0
H299 H 0.38201 0.67964 0.57636 0.0
H300 H 0.30574 0.53857 0.59858 0.0
H301 H 0.32396 0.536 0.56572 0.0
H302 H 0.28615 0.53785 0.5647 0.0
H303 H 0.42313 0.65158 0.615 0.0
H304 H 0.43197 0.68078 0.58699 0.0
H305 H 0.43397 0.64404 0.58012 0.0
C306 C 0.8757 0.41772 0.7463 0.0
C307 C 0.89162 0.40007 0.75328 0.0
C308 C 0.84317 0.40165 0.7348 0.0
C309 C 0.82635 0.36718 0.73017 0.0
C310 C 0.84398 0.3501 0.7336 0.0
C311 C 0.87655 0.36684 0.74513 0.0
C312 C 0.8256 0.42098 0.7311 0.0
C313 C 0.82723 0.31346 0.72847 0.0
C314 C 0.73534 0.32122 0.74982 0.0
C315 C 0.71919 0.31373 0.72277 0.0
C316 C 0.77013 0.33851 0.75236 0.0
C317 C 0.78941 0.34852 0.72722 0.0
C318 C 0.77333 0.34102 0.69984 0.0
C319 C 0.73841 0.32378 0.69793 0.0
C320 C 0.78627 0.34614 0.78206 0.0
C321 C 0.793 0.3512 0.6726 0.0
H322 H 0.88734 0.44342 0.75276 0.0
H323 H 0.8887 0.35308 0.75077 0.0
H324 H 0.80973 0.41298 0.71127 0.0
H325 H 0.80922 0.41662 0.74964 0.0
H326 H 0.84342 0.44778 0.73014 0.0
H327 H 0.84559 0.30511 0.72649 0.0
H328 H 0.8111 0.3008 0.74685 0.0
H329 H 0.81125 0.30585 0.70871 0.0
H330 H 0.72077 0.31362 0.76912 0.0
H331 H 0.72619 0.31804 0.67691 0.0
H332 H 0.80227 0.37309 0.78532 0.0
H333 H 0.80246 0.33523 0.78424 0.0
H334 H 0.76778 0.33661 0.79941 0.0
H335 H 0.80916 0.37829 0.67253 0.0
H336 H 0.77676 0.34323 0.65294 0.0
H337 H 0.80949 0.34056 0.67166 0.0
C338 C 0.53955 0.88824 0.92155 0.0
C339 C 0.52339 0.90552 0.92886 0.0
C340 C 0.52158 0.85609 0.90995 0.0
C341 C 0.48674 0.8411 0.9056 0.0
C342 C 0.47116 0.86003 0.90968 0.0
C343 C 0.48972 0.89206 0.92129 0.0
C344 C 0.53931 0.83703 0.9055 0.0
C345 C 0.43421 0.8453 0.90502 0.0
C346 C 0.43743 0.75558 0.87081 0.0
C347 C 0.42634 0.73556 0.89503 0.0
C348 C 0.45718 0.78994 0.87378 0.0
C349 C 0.46603 0.80471 0.90162 0.0
C350 C 0.4548 0.78465 0.92614 0.0
C351 C 0.43517 0.7504 0.92255 0.0
C352 C 0.46865 0.81044 0.84716 0.0
C353 C 0.46354 0.79939 0.95627 0.0
H354 H 0.56547 0.89843 0.92777 0.0
H355 H 0.47716 0.90533 0.92723 0.0
H356 H 0.53393 0.82006 0.92361 0.0
H357 H 0.53045 0.82194 0.88535 0.0
H358 H 0.56664 0.85349 0.90464 0.0
H359 H 0.42703 0.86449 0.90409 0.0
H360 H 0.4256 0.83025 0.88484 0.0
H361 H 0.42105 0.8289 0.92308 0.0
H362 H 0.43083 0.7444 0.84943 0.0
H363 H 0.42678 0.73523 0.94139 0.0
H364 H 0.49617 0.82488 0.84716 0.0
H365 H 0.45967 0.82825 0.84713 0.0
H366 H 0.45966 0.79523 0.82703 0.0
H367 H 0.49091 0.81356 0.9595 0.0
H368 H 0.45288 0.78045 0.97305 0.0
H369 H 0.45425 0.81676 0.95942 0.0
C370 C 0.56323 0.45596 0.09292 0.0
C371 C 0.58061 0.48582 0.10839 0.0
C372 C 0.58028 0.44387 0.07677 0.0
C373 C 0.61545 0.46144 0.07724 0.0
C374 C 0.63289 0.49258 0.09142 0.0
C375 C 0.61517 0.50458 0.10644 0.0
C376 C 0.5607 0.41136 0.06083 0.0
C377 C 0.67039 0.51195 0.09299 0.0
C378 C 0.66566 0.4184 0.0766 0.0
C379 C 0.68293 0.42985 0.05104 0.0
C380 C 0.64188 0.42681 0.08464 0.0
C381 C 0.63446 0.4461 0.0661 0.0
C382 C 0.64939 0.45469 0.03888 0.0
C383 C 0.67411 0.44717 0.03196 0.0
C384 C 0.62709 0.41767 0.11413 0.0
C385 C 0.64096 0.47377 0.0179 0.0
H386 H 0.53648 0.44134 0.09464 0.0
H387 H 0.62863 0.52737 0.11886 0.0
H388 H 0.57219 0.41169 0.03999 0.0
H389 H 0.56045 0.39169 0.07389 0.0
H390 H 0.53456 0.40501 0.05671 0.0
H391 H 0.68006 0.5363 0.10389 0.0
H392 H 0.67978 0.49792 0.10501 0.0
H393 H 0.68066 0.51585 0.0711 0.0
H394 H 0.67281 0.40533 0.09146 0.0
H395 H 0.68747 0.45593 0.01212 0.0
H396 H 0.59967 0.40568 0.11257 0.0
H397 H 0.63618 0.44025 0.12772 0.0
H398 H 0.63374 0.40087 0.12512 0.0
H399 H 0.61386 0.4646 0.01737 0.0
H400 H 0.64889 0.47219 -0.00421 0.0
H401 H 0.65376 0.50001 0.0248 0.0
C402 C 0.39734 0.91665 0.52129 0.0
C403 C 0.43192 0.93115 0.52123 0.0
C404 C 0.37782 0.88762 0.5361 0.0
C405 C 0.39343 0.87342 0.55202 0.0
C406 C 0.42854 0.89008 0.55462 0.0
C407 C 0.44745 0.91844 0.53858 0.0
C408 C 0.34051 0.87044 0.53215 0.0
C409 C 0.44615 0.87671 0.57252 0.0
C410 C 0.33037 0.80057 0.59367 0.0
C411 C 0.32371 0.77455 0.57464 0.0
C412 C 0.35551 0.83277 0.58807 0.0
C413 C 0.37298 0.83916 0.56207 0.0
C414 C 0.36737 0.81261 0.54353 0.0
C415 C 0.34323 0.78049 0.5504 0.0
C416 C 0.36201 0.86009 0.60916 0.0
C417 C 0.38483 0.81831 0.51522 0.0
H418 H 0.3854 0.9262 0.50739 0.0
H419 H 0.47424 0.92954 0.53827 0.0
H420 H 0.33171 0.84712 0.51974 0.0
H421 H 0.32834 0.86413 0.55328 0.0
H422 H 0.33229 0.88567 0.5205 0.0
H423 H 0.47199 0.8961 0.57824 0.0
H424 H 0.43264 0.86592 0.5926 0.0
H425 H 0.44726 0.85701 0.56014 0.0
H426 H 0.31532 0.79584 0.61254 0.0
H427 H 0.33779 0.76032 0.53559 0.0
H428 H 0.34967 0.8735 0.60124 0.0
H429 H 0.38902 0.87798 0.61135 0.0
H430 H 0.35227 0.8505 0.63074 0.0
H431 H 0.37775 0.83273 0.50105 0.0
H432 H 0.37851 0.79497 0.50378 0.0
H433 H 0.41211 0.83279 0.51875 0.0
C434 C 0.54177 0.44093 0.71443 0.0
C435 C 0.51699 0.4284 0.69279 0.0
C436 C 0.5512 0.42041 0.7283 0.0
C437 C 0.53633 0.38701 0.71938 0.0
C438 C 0.51015 0.37405 0.69844 0.0
C439 C 0.50058 0.39489 0.68562 0.0
C440 C 0.57835 0.4349 0.75121 0.0
C441 C 0.49397 0.33875 0.6879 0.0
C442 C 0.58436 0.34161 0.72088 0.0
C443 C 0.56701 0.31787 0.74146 0.0
C444 C 0.57573 0.36548 0.71445 0.0
C445 C 0.54987 0.36614 0.72966 0.0
C446 C 0.5344 0.34403 0.75225 0.0
C447 C 0.54272 0.31972 0.75751 0.0
C448 C 0.59246 0.38823 0.68985 0.0
C449 C 0.50773 0.34479 0.76974 0.0
H450 H 0.55476 0.46704 0.71956 0.0
H451 H 0.48193 0.38552 0.66839 0.0
H452 H 0.5721 0.41803 0.76952 0.0
H453 H 0.60181 0.43849 0.74214 0.0
H454 H 0.58274 0.45904 0.75945 0.0
H455 H 0.47307 0.33221 0.67242 0.0
H456 H 0.51266 0.3345 0.67716 0.0
H457 H 0.48447 0.32191 0.70628 0.0
H458 H 0.60295 0.34001 0.70831 0.0
H459 H 0.52945 0.30145 0.7736 0.0
H460 H 0.60184 0.41409 0.69672 0.0
H461 H 0.57413 0.3824 0.67199 0.0
H462 H 0.61352 0.38605 0.68149 0.0
H463 H 0.51508 0.37042 0.77597 0.0
H464 H 0.5025 0.33013 0.78952 0.0
H465 H 0.48445 0.33457 0.7566 0.0
C466 C 0.10849 0.53989 0.87091 0.0
C467 C 0.09638 0.50869 0.85807 0.0
C468 C 0.13933 0.55575 0.88568 0.0
C469 C 0.15864 0.54026 0.88697 0.0
C470 C 0.1447 0.50729 0.87693 0.0
C471 C 0.11349 0.49177 0.86287 0.0
C472 C 0.15259 0.59027 0.89724 0.0
C473 C 0.16433 0.48974 0.87784 0.0
C474 C 0.25161 0.58868 0.87662 0.0
C475 C 0.2635 0.58501 0.90326 0.0
C476 C 0.21746 0.57593 0.87157 0.0
C477 C 0.1949 0.55975 0.89398 0.0
C478 C 0.20729 0.55876 0.92171 0.0
C479 C 0.24147 0.5708 0.92586 0.0
C480 C 0.20536 0.57726 0.84154 0.0
C481 C 0.18435 0.54295 0.94646 0.0
H482 H 0.09528 0.55304 0.86711 0.0
H483 H 0.10435 0.46782 0.85268 0.0
H484 H 0.16674 0.59434 0.91777 0.0
H485 H 0.16975 0.60797 0.88152 0.0
H486 H 0.13226 0.59568 0.90084 0.0
H487 H 0.14876 0.46323 0.872 0.0
H488 H 0.18495 0.50117 0.86247 0.0
H489 H 0.17549 0.49205 0.89958 0.0
H490 H 0.26869 0.59912 0.85906 0.0
H491 H 0.25077 0.56766 0.94639 0.0
H492 H 0.18858 0.58757 0.84219 0.0
H493 H 0.1909 0.55202 0.83214 0.0
H494 H 0.22612 0.59235 0.82705 0.0
H495 H 0.16399 0.54872 0.9462 0.0
H496 H 0.19791 0.55111 0.96752 0.0
H497 H 0.1729 0.51589 0.94452 0.0
C498 C 0.61578 0.13159 0.03291 0.0
C499 C 0.63465 0.11966 0.01976 0.0
C500 C 0.6311 0.16285 0.04624 0.0
C501 C 0.66613 0.18275 0.04611 0.0
C502 C 0.68536 0.16949 0.03531 0.0
C503 C 0.66934 0.13797 0.02229 0.0
C504 C 0.6096 0.17571 0.05785 0.0
C505 C 0.72274 0.18978 0.0348 0.0
C506 C 0.69959 0.27398 0.03642 0.0
C507 C 0.71148 0.28701 0.0642 0.0
C508 C 0.68503 0.24021 0.03038 0.0
C509 C 0.68202 0.21869 0.05268 0.0
C510 C 0.69374 0.23156 0.08084 0.0
C511 C 0.70842 0.26559 0.08625 0.0
C512 C 0.67291 0.22757 1e-05 0.0
C513 C 0.69072 0.20939 0.10519 0.0
H514 H 0.58892 0.11745 0.03079 0.0
H515 H 0.68394 0.12895 0.0118 0.0
H516 H 0.61986 0.1891 0.07866 0.0
H517 H 0.60907 0.19328 0.04247 0.0
H518 H 0.58367 0.15566 0.06096 0.0
H519 H 0.73415 0.17443 0.03027 0.0
H520 H 0.73012 0.20832 0.01776 0.0
H521 H 0.73299 0.20321 0.0556 0.0
H522 H 0.70187 0.29024 0.0192 0.0
H523 H 0.7175 0.27538 0.1078 0.0
H524 H 0.64586 0.20965 -0.00021 0.0
H525 H 0.68549 0.21452 -0.00825 0.0
H526 H 0.6775 0.24757 0.98506 0.0
H527 H 0.66425 0.19073 0.1081 0.0
H528 H 0.70106 0.2232 0.12586 0.0
H529 H 0.70393 0.19595 0.09993 0.0
C530 C 0.51849 0.6428 0.21278 0.0
C531 C 0.49517 0.6101 0.20554 0.0
C532 C 0.50844 0.66361 0.22536 0.0
C533 C 0.47434 0.65125 0.23071 0.0
C534 C 0.4515 0.61729 0.22655 0.0
C535 C 0.46221 0.59712 0.21394 0.0
C536 C 0.53369 0.69953 0.22986 0.0
C537 C 0.41501 0.60293 0.23221 0.0
C538 C 0.44269 0.70371 0.26568 0.0
C539 C 0.4331 0.7147 0.2414 0.0
C540 C 0.45698 0.68367 0.26273 0.0
C541 C 0.46158 0.67433 0.23487 0.0
C542 C 0.4525 0.68588 0.21034 0.0
C543 C 0.43849 0.70592 0.21391 0.0
C544 C 0.4665 0.67197 0.28934 0.0
C545 C 0.45692 0.67651 0.18017 0.0
H546 H 0.54395 0.65292 0.20614 0.0
H547 H 0.44421 0.57176 0.20838 0.0
H548 H 0.53143 0.71361 0.21187 0.0
H549 H 0.52928 0.70928 0.25014 0.0
H550 H 0.55946 0.7039 0.23047 0.0
H551 H 0.4018 0.57569 0.23281 0.0
H552 H 0.41132 0.61258 0.25287 0.0
H553 H 0.40348 0.6101 0.21483 0.0
H554 H 0.43872 0.71045 0.28702 0.0
H555 H 0.4313 0.71432 0.195 0.0
H556 H 0.49246 0.67716 0.28802 0.0
H557 H 0.45034 0.64498 0.29087 0.0
H558 H 0.46411 0.68374 0.30932 0.0
H559 H 0.48327 0.68375 0.17699 0.0
H560 H 0.44939 0.68825 0.16341 0.0
H561 H 0.44186 0.64947 0.17691 0.0
C562 C 0.88842 0.44169 0.364 0.0
C563 C 0.91212 0.47489 0.3602 0.0
C564 C 0.85919 0.43281 0.37889 0.0
C565 C 0.85416 0.45774 0.39074 0.0
C566 C 0.88066 0.49065 0.39153 0.0
C567 C 0.90932 0.49893 0.37601 0.0
C568 C 0.83198 0.39729 0.37831 0.0
C569 C 0.87691 0.51782 0.40515 0.0
C570 C 0.77278 0.45474 0.37576 0.0
C571 C 0.75838 0.44782 0.40278 0.0
C572 C 0.80308 0.4561 0.37137 0.0
C573 C 0.81981 0.45126 0.39489 0.0
C574 C 0.80466 0.44301 0.42209 0.0
C575 C 0.77384 0.44122 0.42569 0.0
C576 C 0.81785 0.46421 0.34177 0.0
C577 C 0.82167 0.43799 0.44775 0.0
H578 H 0.89099 0.42285 0.35268 0.0
H579 H 0.92757 0.52466 0.37366 0.0
H580 H 0.81805 0.39082 0.39861 0.0
H581 H 0.81417 0.39312 0.36039 0.0
H582 H 0.84202 0.38057 0.37481 0.0
H583 H 0.90138 0.5403 0.40933 0.0
H584 H 0.86208 0.52415 0.39043 0.0
H585 H 0.8636 0.50987 0.42571 0.0
H586 H 0.76059 0.45981 0.35816 0.0
H587 H 0.76262 0.4362 0.44667 0.0
H588 H 0.82485 0.44597 0.33463 0.0
H589 H 0.84076 0.48868 0.34248 0.0
H590 H 0.80042 0.4646 0.32543 0.0
H591 H 0.83562 0.42559 0.44146 0.0
H592 H 0.80359 0.42333 0.46442 0.0
H593 H 0.83972 0.46226 0.45751 0.0
C594 C 0.14003 0.59874 0.3662 0.0
C595 C 0.10797 0.57111 0.3643 0.0
C596 C 0.15697 0.61008 0.39267 0.0
C597 C 0.14142 0.59362 0.41801 0.0
C598 C 0.10963 0.56497 0.41627 0.0
C599 C 0.09319 0.55407 0.38936 0.0
C600 C 0.1908 0.6408 0.39361 0.0
C601 C 0.09243 0.54672 0.44291 0.0
C602 C 0.19758 0.61657 0.48443 0.0
C603 C 0.19222 0.64039 0.49774 0.0
C604 C 0.18041 0.6003 0.45891 0.0
C605 C 0.1575 0.60817 0.44637 0.0
C606 C 0.15168 0.63186 0.45986 0.0
C607 C 0.16908 0.64765 0.48539 0.0
C608 C 0.18722 0.57516 0.44507 0.0
C609 C 0.12757 0.64106 0.44698 0.0
H610 H 0.15137 0.61264 0.34712 0.0
H611 H 0.06847 0.5327 0.38799 0.0
H612 H 0.18927 0.66092 0.40482 0.0
H613 H 0.20884 0.63659 0.40593 0.0
H614 H 0.20055 0.64906 0.37176 0.0
H615 H 0.06931 0.5232 0.43765 0.0
H616 H 0.10926 0.54148 0.45603 0.0
H617 H 0.08599 0.56223 0.4564 0.0
H618 H 0.21524 0.61062 0.49392 0.0
H619 H 0.16466 0.6659 0.49556 0.0
H620 H 0.19865 0.58389 0.42385 0.0
H621 H 0.16362 0.55171 0.44116 0.0
H622 H 0.20413 0.57029 0.45852 0.0
H623 H 0.13628 0.65214 0.42565 0.0
H624 H 0.12474 0.65885 0.46085 0.0
H625 H 0.10282 0.61882 0.44352 0.0
C626 C 0.58131 0.13151 0.53645 0.0
C627 C 0.54812 0.10676 0.53143 0.0
C628 C 0.59192 0.14765 0.56334 0.0
C629 C 0.56919 0.1377 0.58603 0.0
C630 C 0.5373 0.10959 0.58229 0.0
C631 C 0.5269 0.09478 0.55491 0.0
C632 C 0.62614 0.17756 0.56637 0.0
C633 C 0.51287 0.09722 0.60643 0.0
C634 C 0.59473 0.17606 0.66113 0.0
C635 C 0.58115 0.19668 0.66115 0.0
C636 C 0.59189 0.15709 0.63655 0.0
C637 C 0.57603 0.1598 0.61139 0.0
C638 C 0.56416 0.18225 0.61095 0.0
C639 C 0.56625 0.19991 0.63609 0.0
C640 C 0.60389 0.13274 0.63818 0.0
C641 C 0.5481 0.18673 0.58424 0.0
H642 H 0.59835 0.14008 0.51875 0.0
H643 H 0.50125 0.07566 0.55163 0.0
H644 H 0.62402 0.19995 0.56503 0.0
H645 H 0.63784 0.17842 0.58755 0.0
H646 H 0.64272 0.17829 0.54908 0.0
H647 H 0.49217 0.07181 0.60194 0.0
H648 H 0.52541 0.09766 0.62706 0.0
H649 H 0.50217 0.11345 0.60918 0.0
H650 H 0.6059 0.17341 0.6808 0.0
H651 H 0.5559 0.21603 0.6363 0.0
H652 H 0.61691 0.13284 0.61836 0.0
H653 H 0.58218 0.10767 0.6401 0.0
H654 H 0.62081 0.13781 0.65706 0.0
H655 H 0.56395 0.19088 0.56535 0.0
H656 H 0.54367 0.20771 0.58657 0.0
H657 H 0.5239 0.16413 0.57967 0.0
C658 C 0.46311 0.54334 0.73898 0.0
C659 C 0.47534 0.56424 0.71548 0.0
C660 C 0.45828 0.55483 0.7654 0.0
C661 C 0.46502 0.5876 0.76794 0.0
C662 C 0.48214 0.60991 0.7459 0.0
C663 C 0.4878 0.59803 0.72006 0.0
C664 C 0.44179 0.53073 0.78915 0.0
C665 C 0.4903 0.64519 0.74787 0.0
C666 C 0.39483 0.58941 0.80594 0.0
C667 C 0.40905 0.60196 0.83312 0.0
C668 C 0.41369 0.58685 0.78397 0.0
C669 C 0.44722 0.5958 0.78981 0.0
C670 C 0.46205 0.60969 0.81701 0.0
C671 C 0.44278 0.61301 0.83833 0.0
C672 C 0.39717 0.57299 0.75491 0.0
C673 C 0.49733 0.61879 0.82443 0.0
H674 H 0.45385 0.51728 0.73601 0.0
H675 H 0.49855 0.6146 0.70231 0.0
H676 H 0.45222 0.54249 0.81052 0.0
H677 H 0.41484 0.52226 0.7888 0.0
H678 H 0.44478 0.50888 0.78651 0.0
H679 H 0.50977 0.66075 0.73249 0.0
H680 H 0.46759 0.64634 0.74259 0.0
H681 H 0.49873 0.65559 0.76995 0.0
H682 H 0.36869 0.5809 0.80211 0.0
H683 H 0.45351 0.62225 0.85964 0.0
H684 H 0.394 0.5482 0.75152 0.0
H685 H 0.4129 0.58874 0.73745 0.0
H686 H 0.37236 0.57086 0.75296 0.0
H687 H 0.49774 0.59635 0.83076 0.0
H688 H 0.50766 0.63676 0.84276 0.0
H689 H 0.51375 0.62917 0.80578 0.0
C690 C 0.92819 0.44144 0.88003 0.0
C691 C 0.90996 0.41982 0.85718 0.0
C692 C 0.91245 0.44188 0.90549 0.0
C693 C 0.87772 0.42071 0.90773 0.0
C694 C 0.85958 0.39792 0.88523 0.0
C695 C 0.87605 0.39729 0.86057 0.0
C696 C 0.93271 0.46577 0.92953 0.0
C697 C 0.82244 0.37525 0.88651 0.0
C698 C 0.83199 0.40348 0.97796 0.0
C699 C 0.82038 0.42573 0.97707 0.0
C700 C 0.85206 0.40258 0.95615 0.0
C701 C 0.85963 0.42368 0.93252 0.0
C702 C 0.84768 0.446 0.93146 0.0
C703 C 0.82863 0.44712 0.95402 0.0
C704 C 0.86515 0.37913 0.95836 0.0
C705 C 0.85434 0.46814 0.90616 0.0
H706 H 0.95442 0.45871 0.87764 0.0
H707 H 0.86202 0.37961 0.84345 0.0
H708 H 0.92628 0.48544 0.93111 0.0
H709 H 0.92691 0.45317 0.95045 0.0
H710 H 0.95982 0.47737 0.92605 0.0
H711 H 0.81216 0.35867 0.86725 0.0
H712 H 0.81613 0.36002 0.90594 0.0
H713 H 0.80994 0.38999 0.88811 0.0
H714 H 0.82609 0.38735 -0.0039 0.0
H715 H 0.81965 0.46436 0.95342 0.0
H716 H 0.89249 0.39259 0.95594 0.0
H717 H 0.85433 0.36041 0.94069 0.0
H718 H 0.8592 0.36632 0.97921 0.0
H719 H 0.88146 0.48383 0.90329 0.0
H720 H 0.84345 0.48425 0.90879 0.0
H721 H 0.84377 0.45306 0.88614 0.0
C722 C 0.51376 0.89214 0.03659 0.0
C723 C 0.52472 0.92549 0.0324 0.0
C724 C 0.49555 0.87599 0.06064 0.0
C725 C 0.48926 0.89393 0.08172 0.0
C726 C 0.50266 0.92823 0.07893 0.0
C727 C 0.52006 0.94365 0.05405 0.0
C728 C 0.48133 0.83932 0.06252 0.0
C729 C 0.49732 0.94827 0.10154 0.0
C730 C 0.41004 0.84469 0.12264 0.0
C731 C 0.42174 0.83644 0.14721 0.0
C732 C 0.43191 0.8639 0.10134 0.0
C733 C 0.46638 0.87599 0.10525 0.0
C734 C 0.47842 0.86851 0.13047 0.0
C735 C 0.45583 0.84829 0.15097 0.0
C736 C 0.41803 0.8705 0.0743 0.0
C737 C 0.51509 0.88176 0.13572 0.0
H738 H 0.5183 0.87823 0.02033 0.0
H739 H 0.52873 0.96947 0.051 0.0
H740 H 0.48884 0.83325 0.08323 0.0
H741 H 0.45379 0.82672 0.06181 0.0
H742 H 0.48943 0.82925 0.04466 0.0
H743 H 0.5133 0.97508 0.09832 0.0
H744 H 0.471 0.94213 0.10074 0.0
H745 H 0.50252 0.94238 0.12336 0.0
H746 H 0.38365 0.83556 0.11985 0.0
H747 H 0.46491 0.8424 0.1703 0.0
H748 H 0.42412 0.86019 0.05529 0.0
H749 H 0.42955 0.89733 0.07129 0.0
H750 H 0.39065 0.8596 0.07479 0.0
H751 H 0.52451 0.87111 0.11955 0.0
H752 H 0.52059 0.87606 0.15754 0.0
H753 H 0.529 0.90879 0.13319 0.0
C754 C 0.53526 0.46812 0.23385 0.0
C755 C 0.5517 0.46788 0.20887 0.0
C756 C 0.54281 0.45916 0.26043 0.0
C757 C 0.56741 0.44992 0.26192 0.0
C758 C 0.58167 0.44662 0.23637 0.0
C759 C 0.57382 0.45582 0.21025 0.0
C760 C 0.52664 0.46241 0.28719 0.0
C761 C 0.60803 0.43688 0.2369 0.0
C762 C 0.62881 0.48032 0.32452 0.0
C763 C 0.61989 0.45134 0.33926 0.0
C764 C 0.61096 0.48021 0.30005 0.0
C765 C 0.58331 0.45037 0.28997 0.0
C766 C 0.57339 0.42113 0.30518 0.0
C767 C 0.59193 0.42191 0.32967 0.0
C768 C 0.62255 0.51198 0.28439 0.0
C769 C 0.54388 0.38894 0.29514 0.0
H770 H 0.51777 0.4769 0.23292 0.0
H771 H 0.58726 0.45599 0.19135 0.0
H772 H 0.52067 0.44192 0.30194 0.0
H773 H 0.54411 0.48564 0.29884 0.0
H774 H 0.50354 0.46289 0.28196 0.0
H775 H 0.61259 0.43032 0.21507 0.0
H776 H 0.63165 0.45771 0.24565 0.0
H777 H 0.60091 0.41571 0.25109 0.0
H778 H 0.6502 0.50325 0.33182 0.0
H779 H 0.58471 0.39946 0.34108 0.0
H780 H 0.60183 0.51702 0.28172 0.0
H781 H 0.63074 0.50989 0.26255 0.0
H782 H 0.6435 0.53332 0.29588 0.0
H783 H 0.52222 0.39207 0.29046 0.0
H784 H 0.53678 0.36949 0.31132 0.0
H785 H 0.54982 0.38053 0.27486 0.0
C786 C 0.47825 0.94623 0.39652 0.0
C787 C 0.45939 0.93278 0.4211 0.0
C788 C 0.47061 0.92766 0.37073 0.0
C789 C 0.44346 0.89504 0.36963 0.0
C790 C 0.4255 0.88084 0.39476 0.0
C791 C 0.43353 0.89989 0.42005 0.0
C792 C 0.49041 0.94348 0.34433 0.0
C793 C 0.3963 0.84616 0.3945 0.0
C794 C 0.3927 0.86 0.30073 0.0
C795 C 0.40262 0.83784 0.29148 0.0
C796 C 0.40665 0.87949 0.32565 0.0
C797 C 0.43117 0.87682 0.34175 0.0
C798 C 0.44171 0.8549 0.33237 0.0
C799 C 0.42724 0.83558 0.30734 0.0
C800 C 0.39455 0.90243 0.33511 0.0
C801 C 0.46778 0.85143 0.34907 0.0
H802 H 0.49833 0.97153 0.39722 0.0
H803 H 0.41814 0.88939 0.43862 0.0
H804 H 0.49766 0.92695 0.33354 0.0
H805 H 0.47486 0.94785 0.32873 0.0
H806 H 0.51317 0.96733 0.34955 0.0
H807 H 0.3873 0.83766 0.4165 0.0
H808 H 0.37554 0.84494 0.38148 0.0
H809 H 0.40304 0.82891 0.38442 0.0
H810 H 0.37381 0.86205 0.28857 0.0
H811 H 0.43523 0.81868 0.30024 0.0
H812 H 0.41582 0.92779 0.33802 0.0
H813 H 0.38238 0.89477 0.3562 0.0
H814 H 0.37653 0.90278 0.3194 0.0
H815 H 0.49029 0.87585 0.35277 0.0
H816 H 0.47496 0.83506 0.33781 0.0
H817 H 0.45826 0.84123 0.37052 0.0
C818 C 0.58777 0.50111 0.60717 0.0
C819 C 0.55364 0.48932 0.60327 0.0
C820 C 0.60705 0.50118 0.58426 0.0
C821 C 0.59196 0.48991 0.55669 0.0
C822 C 0.55828 0.48078 0.55206 0.0
C823 C 0.53943 0.48035 0.57546 0.0
C824 C 0.64289 0.51107 0.59004 0.0
C825 C 0.54153 0.46933 0.52277 0.0
C826 C 0.64496 0.50481 0.49124 0.0
C827 C 0.64175 0.47381 0.48657 0.0
C828 C 0.62929 0.51062 0.51422 0.0
C829 C 0.61044 0.48497 0.53326 0.0
C830 C 0.6081 0.45399 0.52932 0.0
C831 C 0.62354 0.44868 0.50583 0.0
C832 C 0.6319 0.54379 0.5175 0.0
C833 C 0.58865 0.42621 0.54955 0.0
H834 H 0.59903 0.50864 0.62853 0.0
H835 H 0.51306 0.47091 0.57221 0.0
H836 H 0.64565 0.48903 0.58834 0.0
H837 H 0.65911 0.5286 0.57378 0.0
H838 H 0.65178 0.52246 0.61181 0.0
H839 H 0.5166 0.46706 0.522 0.0
H840 H 0.55699 0.4866 0.50601 0.0
H841 H 0.53858 0.445 0.51728 0.0
H842 H 0.6588 0.52432 0.47631 0.0
H843 H 0.62111 0.42475 0.5024 0.0
H844 H 0.64076 0.55403 0.53957 0.0
H845 H 0.60699 0.54109 0.51432 0.0
H846 H 0.649 0.56166 0.5018 0.0
H847 H 0.59739 0.43438 0.57209 0.0
H848 H 0.59094 0.40432 0.5445 0.0
H849 H 0.562 0.41886 0.54825 0.0
C850 C 0.12521 0.54181 0.75674 0.0
C851 C 0.09035 0.52604 0.75591 0.0
C852 C 0.14405 0.56146 0.73427 0.0
C853 C 0.12769 0.56446 0.70968 0.0
C854 C 0.09251 0.54737 0.70791 0.0
C855 C 0.07418 0.52853 0.73122 0.0
C856 C 0.1815 0.5796 0.73722 0.0
C857 C 0.07431 0.5494 0.6816 0.0
C858 C 0.17629 0.64077 0.66572 0.0
C859 C 0.18898 0.62937 0.64418 0.0
C860 C 0.15612 0.61981 0.6871 0.0
C861 C 0.14772 0.58644 0.68637 0.0
C862 C 0.16015 0.5747 0.66445 0.0
C863 C 0.18108 0.59647 0.64381 0.0
C864 C 0.14422 0.63347 0.71069 0.0
C865 C 0.15114 0.53912 0.66267 0.0
H866 H 0.13801 0.539 0.77518 0.0
H867 H 0.0473 0.51627 0.73032 0.0
H868 H 0.19216 0.57206 0.71952 0.0
H869 H 0.19144 0.6064 0.73548 0.0
H870 H 0.1903 0.57504 0.75807 0.0
H871 H 0.04703 0.5327 0.68267 0.0
H872 H 0.07934 0.5749 0.67934 0.0
H873 H 0.08338 0.54308 0.66195 0.0
H874 H 0.18241 0.66623 0.66598 0.0
H875 H 0.19045 0.5875 0.62687 0.0
H876 H 0.15327 0.63023 0.73193 0.0
H877 H 0.1167 0.61982 0.71097 0.0
H878 H 0.15293 0.65997 0.70808 0.0
H879 H 0.16077 0.53285 0.68208 0.0
H880 H 0.16131 0.53352 0.64333 0.0
H881 H 0.12374 0.52301 0.66214 0.0
C882 C 0.5952 0.08609 0.89657 0.0
C883 C 0.58214 0.08746 0.92322 0.0
C884 C 0.59155 0.10199 0.87264 0.0
C885 C 0.57482 0.11995 0.87561 0.0
C886 C 0.55976 0.11964 0.90191 0.0
C887 C 0.56331 0.10308 0.92531 0.0
C888 C 0.60729 0.10117 0.8447 0.0
C889 C 0.54174 0.13852 0.90595 0.0
C890 C 0.60149 0.19344 0.82778 0.0
C891 C 0.57528 0.18125 0.80746 0.0
C892 C 0.60152 0.17375 0.85019 0.0
C893 C 0.57502 0.14093 0.85193 0.0
C894 C 0.54866 0.12841 0.83134 0.0
C895 C 0.54896 0.1488 0.8095 0.0
C896 C 0.62983 0.18809 0.87209 0.0
C897 C 0.52029 0.0934 0.83223 0.0
H898 H 0.60999 0.0743 0.89482 0.0
H899 H 0.5527 0.10374 0.94575 0.0
H900 H 0.5895 0.09516 0.82637 0.0
H901 H 0.62902 0.12577 0.8409 0.0
H902 H 0.61579 0.08296 0.84486 0.0
H903 H 0.52933 0.13375 0.92702 0.0
H904 H 0.55967 0.16523 0.90469 0.0
H905 H 0.52279 0.13205 0.88854 0.0
H906 H 0.62185 0.21848 0.82633 0.0
H907 H 0.52876 0.13907 0.79366 0.0
H908 H 0.64273 0.17369 0.87192 0.0
H909 H 0.62007 0.18657 0.89401 0.0
H910 H 0.64827 0.21416 0.86793 0.0
H911 H 0.53002 0.07621 0.83106 0.0
H912 H 0.50196 0.08728 0.81429 0.0
H913 H 0.50727 0.08916 0.8529 0.0
C914 C 0.44281 0.55544 0.10366 0.0
C915 C 0.47728 0.56837 0.10529 0.0
C916 C 0.42726 0.55732 0.07832 0.0
C917 C 0.4466 0.57204 0.05391 0.0
C918 C 0.4811 0.58344 0.05488 0.0
C919 C 0.49609 0.58159 0.08064 0.0
C920 C 0.39037 0.5448 0.07807 0.0
C921 C 0.5024 0.59884 0.02909 0.0
C922 C 0.40112 0.55537 0.98197 0.0
C923 C 0.39951 0.58412 0.97844 0.0
C924 C 0.41676 0.55131 0.00624 0.0
C925 C 0.43082 0.57643 0.02768 0.0
C926 C 0.42929 0.60551 0.02434 0.0
C927 C 0.41379 0.6091 -0.00037 0.0
C928 C 0.41822 0.52012 0.00892 0.0
C929 C 0.4438 0.6327 0.04698 0.0
H930 H 0.42813 0.54482 0.12258 0.0
H931 H 0.52278 0.59196 0.08185 0.0
H932 H 0.38585 0.56553 0.07469 0.0
H933 H 0.37788 0.52694 0.05998 0.0
H934 H 0.3787 0.53277 0.09847 0.0
H935 H 0.52825 0.60403 0.03264 0.0
H936 H 0.49156 0.58247 0.00981 0.0
H937 H 0.50319 0.62224 0.0243 0.0
H938 H 0.39039 0.53601 0.96559 0.0
H939 H 0.41262 0.63134 -0.00295 0.0
H940 H 0.40523 0.50701 0.02851 0.0
H941 H 0.44442 0.52611 0.01133 0.0
H942 H 0.40671 0.50326 0.98999 0.0
H943 H 0.43173 0.62316 0.06785 0.0
H944 H 0.44061 0.65376 0.04111 0.0
H945 H 0.47068 0.64171 0.05025 0.0
C946 C 0.92922 0.46936 0.22921 0.0
C947 C 0.91484 0.4717 0.25475 0.0
C948 C 0.91119 0.46091 0.20296 0.0
C949 C 0.87818 0.45493 0.20236 0.0
C950 C 0.8633 0.45641 0.22821 0.0
C951 C 0.88184 0.46492 0.25401 0.0
C952 C 0.92777 0.45944 0.17576 0.0
C953 C 0.82825 0.45043 0.22848 0.0
C954 C 0.84328 0.47199 0.13498 0.0
C955 C 0.82174 0.44021 0.12395 0.0
C956 C 0.86236 0.47708 0.16012 0.0
C957 C 0.85991 0.44972 0.17458 0.0
C958 C 0.83855 0.41758 0.16345 0.0
C959 C 0.81963 0.41318 0.13825 0.0
C960 C 0.8847 0.51174 0.17147 0.0
C961 C 0.83534 0.38787 0.17837 0.0
H962 H 0.95468 0.47453 0.22972 0.0
H963 H 0.87077 0.46748 0.27352 0.0
H964 H 0.9119 0.43585 0.16395 0.0
H965 H 0.93101 0.47942 0.16137 0.0
H966 H 0.95249 0.46205 0.18019 0.0
H967 H 0.81955 0.45013 0.25067 0.0
H968 H 0.82697 0.47001 0.21649 0.0
H969 H 0.81091 0.42669 0.2175 0.0
H970 H 0.84517 0.49305 0.12407 0.0
H971 H 0.8032 0.38855 0.12979 0.0
H972 H 0.91055 0.51674 0.17411 0.0
H973 H 0.87646 0.51476 0.193 0.0
H974 H 0.88473 0.53039 0.15704 0.0
H975 H 0.86015 0.39032 0.18143 0.0
H976 H 0.81897 0.36467 0.16613 0.0
H977 H 0.825 0.38614 0.20006 0.0
loop_
_geom_bond_atom_site_label_1
_geom_bond_atom_site_label_2
_geom_bond_distance
_geom_bond_site_symmetry_2
_ccdc_geom_bond_type
H0 C8 0.930 . S
H1 C11 0.930 . S
H2 C13 0.930 . S
H3 C14 0.970 1_655 S
H4 C14 0.970 . S
H5 C16 0.930 . S
H6 C18 0.930 . S
H7 C20 0.930 . S
C8 H0 0.930 . S
C8 C9 1.382 . S
C8 C10 1.426 . S
C9 C8 1.382 . S
C9 C13 1.389 . S
C10 C8 1.426 . S
C10 C11 1.375 . S
C10 C14 1.532 1_655 S
C11 H1 0.930 . S
C11 C10 1.375 . S
C11 C12 1.416 . S
C12 C11 1.416 . S
C12 C13 1.371 . S
C13 H2 0.930 . S
C13 C9 1.389 . S
C13 C12 1.371 . S
C14 H3 0.970 1_455 S
C14 H4 0.970 . S
C14 C10 1.532 1_455 S
C14 C15 1.499 . S
C15 C14 1.499 . S
C15 C16 1.370 . S
C15 C20 1.415 . S
C16 H5 0.930 . S
C16 C15 1.370 . S
C16 C17 1.407 . S
C17 C16 1.407 . S
C17 C18 1.365 . S
C18 H6 0.930 . S
C18 C17 1.365 . S
C18 C19 1.393 . S
C19 C18 1.393 . S
C19 C20 1.387 . S
C20 H7 0.930 . S
C20 C15 1.415 . S
C20 C19 1.387 . S
H21 C29 0.930 . S
H22 C32 0.930 . S
H23 C34 0.930 . S
H24 C35 0.970 . S
H25 C35 0.970 . S
H26 C37 0.930 . S
H27 C39 0.930 . S
H28 C41 0.930 . S
C29 H21 0.930 . S
C29 C30 1.382 . S
C29 C31 1.426 . S
C30 C29 1.382 . S
C30 C34 1.389 . S
C31 C29 1.426 . S
C31 C32 1.375 . S
C31 C35 1.532 1_565 S
C32 H22 0.930 . S
C32 C31 1.375 . S
C32 C33 1.416 . S
C33 C32 1.416 . S
C33 C34 1.371 . S
C34 H23 0.930 . S
C34 C30 1.389 . S
C34 C33 1.371 . S
C35 H24 0.970 . S
C35 H25 0.970 . S
C35 C31 1.532 1_545 S
C35 C36 1.499 . S
C36 C35 1.499 . S
C36 C37 1.370 . S
C36 C41 1.415 . S
C37 H26 0.930 . S
C37 C36 1.370 . S
C37 C38 1.407 . S
C38 C37 1.407 . S
C38 C39 1.365 . S
C39 H27 0.930 . S
C39 C38 1.365 . S
C39 C40 1.393 . S
C40 C39 1.393 . S
C40 C41 1.387 . S
C41 H28 0.930 . S
C41 C36 1.415 . S
C41 C40 1.387 . S
H42 C50 0.930 . S
H43 C53 0.930 . S
H44 C55 0.930 . S
H45 C56 0.970 . S
H46 C56 0.970 . S
H47 C58 0.930 . S
H48 C60 0.930 . S
H49 C62 0.930 . S
C50 H42 0.930 . S
C50 C51 1.382 . S
C50 C52 1.426 . S
C51 C50 1.382 . S
C51 C55 1.389 . S
C52 C50 1.426 . S
C52 C53 1.375 . S
C52 C56 1.532 . S
C53 H43 0.930 . S
C53 C52 1.375 . S
C53 C54 1.416 . S
C54 C53 1.416 . S
C54 C55 1.371 . S
C55 H44 0.930 . S
C55 C51 1.389 . S
C55 C54 1.371 . S
C56 H45 0.970 . S
C56 H46 0.970 . S
C56 C52 1.532 . S
C56 C57 1.499 . S
C57 C56 1.499 . S
C57 C58 1.370 . S
C57 C62 1.415 . S
C58 H47 0.930 . S
C58 C57 1.370 . S
C58 C59 1.407 . S
C59 C58 1.407 . S
C59 C60 1.365 . S
C60 H48 0.930 . S
C60 C59 1.365 . S
C60 C61 1.393 . S
C61 C60 1.393 . S
C61 C62 1.387 . S
C62 H49 0.930 . S
C62 C57 1.415 . S
C62 C61 1.387 . S
H63 C71 0.930 . S
H64 C74 0.930 . S
H65 C76 0.930 . S
H66 C77 0.970 . S
H67 C77 0.970 . S
H68 C79 0.930 . S
H69 C81 0.930 . S
H70 C83 0.930 . S
C71 H63 0.930 . S
C71 C72 1.382 . S
C71 C73 1.426 . S
C72 C71 1.382 . S
C72 C76 1.389 . S
C73 C71 1.426 . S
C73 C74 1.375 . S
C73 C77 1.532 1_655 S
C74 H64 0.930 . S
C74 C73 1.375 . S
C74 C75 1.416 . S
C75 C74 1.416 . S
C75 C76 1.371 . S
C76 H65 0.930 . S
C76 C72 1.389 . S
C76 C75 1.371 . S
C77 H66 0.970 . S
C77 H67 0.970 . S
C77 C73 1.532 1_455 S
C77 C78 1.499 . S
C78 C77 1.499 . S
C78 C79 1.370 . S
C78 C83 1.415 . S
C79 H68 0.930 . S
C79 C78 1.370 . S
C79 C80 1.407 . S
C80 C79 1.407 . S
C80 C81 1.365 . S
C81 H69 0.930 . S
C81 C80 1.365 . S
C81 C82 1.393 . S
C82 C81 1.393 . S
C82 C83 1.387 . S
C83 H70 0.930 . S
C83 C78 1.415 . S
C83 C82 1.387 . S
H84 C92 0.930 . S
H85 C95 0.930 . S
H86 C97 0.930 . S
H87 C98 0.970 1_554 S
H88 C98 0.970 . S
H89 C100 0.930 . S
H90 C102 0.930 . S
H91 C104 0.930 . S
C92 H84 0.930 . S
C92 C93 1.382 1_554 S
C92 C94 1.426 1_554 S
C93 C92 1.382 1_556 S
C93 C97 1.389 . S
C94 C92 1.426 1_556 S
C94 C95 1.375 . S
C94 C98 1.532 . S
C95 H85 0.930 . S
C95 C94 1.375 . S
C95 C96 1.416 . S
C96 C95 1.416 . S
C96 C97 1.371 . S
C97 H86 0.930 . S
C97 C93 1.389 . S
C97 C96 1.371 . S
C98 H87 0.970 1_556 S
C98 H88 0.970 . S
C98 C94 1.532 . S
C98 C99 1.499 1_545 S
C99 C98 1.499 1_565 S
C99 C100 1.370 1_556 S
C99 C104 1.415 . S
C100 H89 0.930 . S
C100 C99 1.370 1_554 S
C100 C101 1.407 . S
C101 C100 1.407 . S
C101 C102 1.365 . S
C102 H90 0.930 . S
C102 C101 1.365 . S
C102 C103 1.393 1_554 S
C103 C102 1.393 1_556 S
C103 C104 1.387 . S
C104 H91 0.930 . S
C104 C99 1.415 . S
C104 C103 1.387 . S
H105 C113 0.930 . S
H106 C116 0.930 . S
H107 C118 0.930 . S
H108 C119 0.970 . S
H109 C119 0.970 . S
H110 C121 0.930 . S
H111 C123 0.930 . S
H112 C125 0.930 . S
C113 H105 0.930 . S
C113 C114 1.382 . S
C113 C115 1.426 . S
C114 C113 1.382 . S
C114 C118 1.389 . S
C115 C113 1.426 . S
C115 C116 1.375 . S
C115 C119 1.532 . S
C116 H106 0.930 . S
C116 C115 1.375 . S
C116 C117 1.416 . S
C117 C116 1.416 . S
C117 C118 1.371 . S
C118 H107 0.930 . S
C118 C114 1.389 . S
C118 C117 1.371 . S
C119 H108 0.970 . S
C119 H109 0.970 . S
C119 C115 1.532 . S
C119 C120 1.499 . S
C120 C119 1.499 . S
C120 C121 1.370 . S
C120 C125 1.415 . S
C121 H110 0.930 . S
C121 C120 1.370 . S
C121 C122 1.407 . S
C122 C121 1.407 . S
C122 C123 1.365 . S
C123 H111 0.930 . S
C123 C122 1.365 . S
C123 C124 1.393 . S
C124 C123 1.393 . S
C124 C125 1.387 . S
C125 H112 0.930 . S
C125 C120 1.415 . S
C125 C124 1.387 . S
Zn126 O129 2.031 . S
Zn126 O131 2.049 . S
Zn126 O136 2.067 . S
Zn127 O128 1.962 . S
Zn127 O130 1.986 . S
Zn127 O132 1.996 . S
Zn127 O135 1.943 . S
O128 Zn127 1.962 . S
O128 C133 1.254 . S
O129 Zn126 2.031 . S
O129 C133 1.269 . S
O130 Zn127 1.986 . S
O130 C137 1.262 . S
O131 Zn126 2.049 . S
O131 C139 1.260 . S
O132 Zn127 1.996 . S
O132 C139 1.257 . S
C133 O128 1.254 . S
C133 O129 1.269 . S
C134 O135 1.249 . S
C134 O136 1.270 . S
O135 Zn127 1.943 . S
O135 C134 1.249 . S
O136 Zn126 2.067 . S
O136 C134 1.270 . S
C137 O130 1.262 . S
C137 O138 1.232 . S
O138 C137 1.232 . S
C139 O131 1.260 . S
C139 O132 1.257 . S
Zn140 O143 2.031 . S
Zn140 O145 2.049 . S
Zn140 O150 2.067 . S
Zn141 O142 1.962 . S
Zn141 O144 1.986 . S
Zn141 O146 1.996 . S
Zn141 O149 1.943 . S
O142 Zn141 1.962 . S
O142 C147 1.254 . S
O143 Zn140 2.031 . S
O143 C147 1.269 . S
O144 Zn141 1.986 . S
O144 C151 1.262 . S
O145 Zn140 2.049 . S
O145 C153 1.260 . S
O146 Zn141 1.996 . S
O146 C153 1.257 . S
C147 O142 1.254 . S
C147 O143 1.269 . S
C148 O149 1.249 . S
C148 O150 1.270 . S
O149 Zn141 1.943 . S
O149 C148 1.249 . S
O150 Zn140 2.067 . S
O150 C148 1.270 . S
C151 O144 1.262 . S
C151 O152 1.232 . S
O152 C151 1.232 . S
C153 O145 1.260 . S
C153 O146 1.257 . S
Zn154 O157 2.031 . S
Zn154 O159 2.049 . S
Zn154 O164 2.067 . S
Zn155 O156 1.962 . S
Zn155 O158 1.986 . S
Zn155 O160 1.996 . S
Zn155 O163 1.943 . S
O156 Zn155 1.962 . S
O156 C161 1.254 . S
O157 Zn154 2.031 . S
O157 C161 1.269 . S
O158 Zn155 1.986 . S
O158 C165 1.262 . S
O159 Zn154 2.049 . S
O159 C167 1.260 . S
O160 Zn155 1.996 . S
O160 C167 1.257 . S
C161 O156 1.254 . S
C161 O157 1.269 . S
C162 O163 1.249 . S
C162 O164 1.270 . S
O163 Zn155 1.943 . S
O163 C162 1.249 . S
O164 Zn154 2.067 . S
O164 C162 1.270 . S
C165 O158 1.262 . S
C165 O166 1.232 . S
O166 C165 1.232 . S
C167 O159 1.260 . S
C167 O160 1.257 . S
Zn168 O171 2.031 . S
Zn168 O173 2.049 . S
Zn168 O178 2.067 . S
Zn169 O170 1.962 . S
Zn169 O172 1.986 . S
Zn169 O174 1.996 . S
Zn169 O177 1.943 . S
O170 Zn169 1.962 . S
O170 C175 1.254 . S
O171 Zn168 2.031 . S
O171 C175 1.269 . S
O172 Zn169 1.986 . S
O172 C179 1.262 . S
O173 Zn168 2.049 . S
O173 C181 1.260 . S
O174 Zn169 1.996 . S
O174 C181 1.257 . S
C175 O170 1.254 . S
C175 O171 1.269 . S
C176 O177 1.249 . S
C176 O178 1.270 . S
O177 Zn169 1.943 . S
O177 C176 1.249 . S
O178 Zn168 2.067 . S
O178 C176 1.270 . S
C179 O172 1.262 . S
C179 O180 1.232 . S
O180 C179 1.232 . S
C181 O173 1.260 . S
C181 O174 1.257 . S
Zn182 O185 2.031 . S
Zn182 O187 2.049 . S
Zn182 O192 2.067 . S
Zn183 O184 1.962 . S
Zn183 O186 1.986 . S
Zn183 O188 1.996 . S
Zn183 O191 1.943 . S
O184 Zn183 1.962 . S
O184 C189 1.254 . S
O185 Zn182 2.031 . S
O185 C189 1.269 . S
O186 Zn183 1.986 . S
O186 C193 1.262 . S
O187 Zn182 2.049 . S
O187 C195 1.260 . S
O188 Zn183 1.996 . S
O188 C195 1.257 . S
C189 O184 1.254 . S
C189 O185 1.269 . S
C190 O191 1.249 . S
C190 O192 1.270 . S
O191 Zn183 1.943 . S
O191 C190 1.249 . S
O192 Zn182 2.067 . S
O192 C190 1.270 . S
C193 O186 1.262 . S
C193 O194 1.232 . S
O194 C193 1.232 . S
C195 O187 1.260 . S
C195 O188 1.257 . S
Zn196 O199 2.031 . S
Zn196 O201 2.049 . S
Zn196 O206 2.067 . S
Zn197 O198 1.962 . S
Zn197 O200 1.986 . S
Zn197 O202 1.996 . S
Zn197 O205 1.943 . S
O198 Zn197 1.962 . S
O198 C203 1.254 . S
O199 Zn196 2.031 . S
O199 C203 1.269 . S
O200 Zn197 1.986 . S
O200 C207 1.262 . S
O201 Zn196 2.049 . S
O201 C209 1.260 . S
O202 Zn197 1.996 . S
O202 C209 1.257 . S
C203 O198 1.254 . S
C203 O199 1.269 . S
C204 O205 1.249 . S
C204 O206 1.270 . S
O205 Zn197 1.943 . S
O205 C204 1.249 . S
O206 Zn196 2.067 . S
O206 C204 1.270 . S
C207 O200 1.262 . S
C207 O208 1.232 . S
O208 C207 1.232 . S
C209 O201 1.260 . S
C209 O202 1.257 . S
C210 C211 1.391 . S
C210 C212 1.394 . S
C210 H226 0.931 . S
C211 C210 1.391 . S
C211 C215 1.376 . S
C212 C210 1.394 . S
C212 C213 1.369 . S
C212 C216 1.531 . S
C213 C212 1.369 . S
C213 C214 1.410 . S
C213 C221 1.503 . S
C214 C213 1.410 . S
C214 C215 1.392 . S
C214 C217 1.511 . S
C215 C211 1.376 . S
C215 C214 1.392 . S
C215 H227 0.929 . S
C216 C212 1.531 . S
C216 H228 0.960 . S
C216 H229 0.962 . S
C216 H230 0.960 . S
C217 C214 1.511 . S
C217 H231 0.961 . S
C217 H232 0.961 . S
C217 H233 0.961 . S
C218 C219 1.370 . S
C218 C220 1.363 . S
C218 H234 0.931 . S
C219 C218 1.370 . S
C219 C223 1.408 . S
C220 C218 1.363 . S
C220 C221 1.370 . S
C220 C224 1.524 . S
C221 C213 1.503 . S
C221 C220 1.370 . S
C221 C222 1.403 . S
C222 C221 1.403 . S
C222 C223 1.404 . S
C222 C225 1.539 . S
C223 C219 1.408 . S
C223 C222 1.404 . S
C223 H235 0.930 . S
C224 C220 1.524 . S
C224 H236 0.956 . S
C224 H237 0.961 . S
C224 H238 0.961 . S
C225 C222 1.539 . S
C225 H239 0.958 . S
C225 H240 0.961 . S
C225 H241 0.960 . S
H226 C210 0.931 . S
H227 C215 0.929 . S
H228 C216 0.960 . S
H229 C216 0.962 . S
H230 C216 0.960 . S
H231 C217 0.961 . S
H232 C217 0.961 . S
H233 C217 0.961 . S
H234 C218 0.931 . S
H235 C223 0.930 . S
H236 C224 0.956 . S
H237 C224 0.961 . S
H238 C224 0.961 . S
H239 C225 0.958 . S
H240 C225 0.961 . S
H241 C225 0.960 . S
C242 C243 1.391 . S
C242 C244 1.394 . S
C242 H258 0.931 . S
C243 C242 1.391 . S
C243 C247 1.376 . S
C244 C242 1.394 . S
C244 C245 1.369 . S
C244 C248 1.531 . S
C245 C244 1.369 . S
C245 C246 1.410 . S
C245 C253 1.503 . S
C246 C245 1.410 . S
C246 C247 1.392 . S
C246 C249 1.511 . S
C247 C243 1.376 . S
C247 C246 1.392 . S
C247 H259 0.929 . S
C248 C244 1.531 . S
C248 H260 0.960 . S
C248 H261 0.962 . S
C248 H262 0.960 . S
C249 C246 1.511 . S
C249 H263 0.961 . S
C249 H264 0.961 . S
C249 H265 0.961 . S
C250 C251 1.370 . S
C250 C252 1.363 . S
C250 H266 0.931 . S
C251 C250 1.370 . S
C251 C255 1.408 . S
C252 C250 1.363 . S
C252 C253 1.370 . S
C252 C256 1.524 . S
C253 C245 1.503 . S
C253 C252 1.370 . S
C253 C254 1.403 . S
C254 C253 1.403 . S
C254 C255 1.404 . S
C254 C257 1.539 . S
C255 C251 1.408 . S
C255 C254 1.404 . S
C255 H267 0.930 . S
C256 C252 1.524 . S
C256 H268 0.956 . S
C256 H269 0.961 . S
C256 H270 0.961 . S
C257 C254 1.539 . S
C257 H271 0.958 . S
C257 H272 0.961 . S
C257 H273 0.960 . S
H258 C242 0.931 . S
H259 C247 0.929 . S
H260 C248 0.960 . S
H261 C248 0.962 . S
H262 C248 0.960 . S
H263 C249 0.961 . S
H264 C249 0.961 . S
H265 C249 0.961 . S
H266 C250 0.931 . S
H267 C255 0.930 . S
H268 C256 0.956 . S
H269 C256 0.961 . S
H270 C256 0.961 . S
H271 C257 0.958 . S
H272 C257 0.961 . S
H273 C257 0.960 . S
C274 C275 1.391 . S
C274 C276 1.394 . S
C274 H290 0.931 . S
C275 C274 1.391 . S
C275 C279 1.376 . S
C276 C274 1.394 . S
C276 C277 1.369 . S
C276 C280 1.531 . S
C277 C276 1.369 . S
C277 C278 1.410 . S
C277 C285 1.503 . S
C278 C277 1.410 . S
C278 C279 1.392 . S
C278 C281 1.511 . S
C279 C275 1.376 . S
C279 C278 1.392 . S
C279 H291 0.929 . S
C280 C276 1.531 . S
C280 H292 0.960 . S
C280 H293 0.962 . S
C280 H294 0.960 . S
C281 C278 1.511 . S
C281 H295 0.961 . S
C281 H296 0.961 . S
C281 H297 0.961 . S
C282 C283 1.370 . S
C282 C284 1.363 . S
C282 H298 0.931 . S
C283 C282 1.370 . S
C283 C287 1.408 . S
C284 C282 1.363 . S
C284 C285 1.370 . S
C284 C288 1.524 . S
C285 C277 1.503 . S
C285 C284 1.370 . S
C285 C286 1.403 . S
C286 C285 1.403 . S
C286 C287 1.404 . S
C286 C289 1.539 . S
C287 C283 1.408 . S
C287 C286 1.404 . S
C287 H299 0.930 . S
C288 C284 1.524 . S
C288 H300 0.956 . S
C288 H301 0.961 . S
C288 H302 0.961 . S
C289 C286 1.539 . S
C289 H303 0.958 . S
C289 H304 0.961 . S
C289 H305 0.960 . S
H290 C274 0.931 . S
H291 C279 0.929 . S
H292 C280 0.960 . S
H293 C280 0.962 . S
H294 C280 0.960 . S
H295 C281 0.961 . S
H296 C281 0.961 . S
H297 C281 0.961 . S
H298 C282 0.931 . S
H299 C287 0.930 . S
H300 C288 0.956 . S
H301 C288 0.961 . S
H302 C288 0.961 . S
H303 C289 0.958 . S
H304 C289 0.961 . S
H305 C289 0.960 . S
C306 C307 1.391 . S
C306 C308 1.394 . S
C306 H322 0.931 . S
C307 C306 1.391 . S
C307 C311 1.376 . S
C308 C306 1.394 . S
C308 C309 1.369 . S
C308 C312 1.531 . S
C309 C308 1.369 . S
C309 C310 1.410 . S
C309 C317 1.503 . S
C310 C309 1.410 . S
C310 C311 1.392 . S
C310 C313 1.511 . S
C311 C307 1.376 . S
C311 C310 1.392 . S
C311 H323 0.929 . S
C312 C308 1.531 . S
C312 H324 0.960 . S
C312 H325 0.962 . S
C312 H326 0.960 . S
C313 C310 1.511 . S
C313 H327 0.961 . S
C313 H328 0.961 . S
C313 H329 0.961 . S
C314 C315 1.370 . S
C314 C316 1.363 . S
C314 H330 0.931 . S
C315 C314 1.370 . S
C315 C319 1.408 . S
C316 C314 1.363 . S
C316 C317 1.370 . S
C316 C320 1.524 . S
C317 C309 1.503 . S
C317 C316 1.370 . S
C317 C318 1.403 . S
C318 C317 1.403 . S
C318 C319 1.404 . S
C318 C321 1.539 . S
C319 C315 1.408 . S
C319 C318 1.404 . S
C319 H331 0.930 . S
C320 C316 1.524 . S
C320 H332 0.956 . S
C320 H333 0.961 . S
C320 H334 0.961 . S
C321 C318 1.539 . S
C321 H335 0.958 . S
C321 H336 0.961 . S
C321 H337 0.960 . S
H322 C306 0.931 . S
H323 C311 0.929 . S
H324 C312 0.960 . S
H325 C312 0.962 . S
H326 C312 0.960 . S
H327 C313 0.961 . S
H328 C313 0.961 . S
H329 C313 0.961 . S
H330 C314 0.931 . S
H331 C319 0.930 . S
H332 C320 0.956 . S
H333 C320 0.961 . S
H334 C320 0.961 . S
H335 C321 0.958 . S
H336 C321 0.961 . S
H337 C321 0.960 . S
C338 C339 1.391 . S
C338 C340 1.394 . S
C338 H354 0.931 . S
C339 C338 1.391 . S
C339 C343 1.376 . S
C340 C338 1.394 . S
C340 C341 1.369 . S
C340 C344 1.531 . S
C341 C340 1.369 . S
C341 C342 1.410 . S
C341 C349 1.503 . S
C342 C341 1.410 . S
C342 C343 1.392 . S
C342 C345 1.511 . S
C343 C339 1.376 . S
C343 C342 1.392 . S
C343 H355 0.929 . S
C344 C340 1.531 . S
C344 H356 0.960 . S
C344 H357 0.962 . S
C344 H358 0.960 1_556 S
C345 C342 1.511 . S
C345 H359 0.961 . S
C345 H360 0.961 . S
C345 H361 0.961 . S
C346 C347 1.370 . S
C346 C348 1.363 . S
C346 H362 0.931 . S
C347 C346 1.370 . S
C347 C351 1.408 . S
C348 C346 1.363 . S
C348 C349 1.370 . S
C348 C352 1.524 . S
C349 C341 1.503 . S
C349 C348 1.370 . S
C349 C350 1.403 . S
C350 C349 1.403 . S
C350 C351 1.404 . S
C350 C353 1.539 . S
C351 C347 1.408 . S
C351 C350 1.404 . S
C351 H363 0.930 . S
C352 C348 1.524 . S
C352 H364 0.956 . S
C352 H365 0.961 . S
C352 H366 0.961 . S
C353 C350 1.539 . S
C353 H367 0.958 1_556 S
C353 H368 0.961 . S
C353 H369 0.960 . S
H354 C338 0.931 . S
H355 C343 0.929 . S
H356 C344 0.960 . S
H357 C344 0.962 . S
H358 C344 0.960 1_554 S
H359 C345 0.961 . S
H360 C345 0.961 . S
H361 C345 0.961 . S
H362 C346 0.931 . S
H363 C351 0.930 . S
H364 C352 0.956 . S
H365 C352 0.961 . S
H366 C352 0.961 . S
H367 C353 0.958 1_554 S
H368 C353 0.961 . S
H369 C353 0.960 . S
C370 C371 1.391 . S
C370 C372 1.394 . S
C370 H386 0.931 . S
C371 C370 1.391 . S
C371 C375 1.376 . S
C372 C370 1.394 . S
C372 C373 1.369 . S
C372 C376 1.531 . S
C373 C372 1.369 . S
C373 C374 1.410 . S
C373 C381 1.503 . S
C374 C373 1.410 . S
C374 C375 1.392 . S
C374 C377 1.511 . S
C375 C371 1.376 . S
C375 C374 1.392 . S
C375 H387 0.929 . S
C376 C372 1.531 . S
C376 H388 0.960 . S
C376 H389 0.962 . S
C376 H390 0.960 . S
C377 C374 1.511 . S
C377 H391 0.961 . S
C377 H392 0.961 . S
C377 H393 0.961 . S
C378 C379 1.370 . S
C378 C380 1.363 . S
C378 H394 0.931 . S
C379 C378 1.370 . S
C379 C383 1.408 . S
C380 C378 1.363 . S
C380 C381 1.370 . S
C380 C384 1.524 . S
C381 C373 1.503 . S
C381 C380 1.370 . S
C381 C382 1.403 . S
C382 C381 1.403 . S
C382 C383 1.404 . S
C382 C385 1.539 . S
C383 C379 1.408 . S
C383 C382 1.404 . S
C383 H395 0.930 . S
C384 C380 1.524 . S
C384 H396 0.956 . S
C384 H397 0.961 . S
C384 H398 0.961 . S
C385 C382 1.539 . S
C385 H399 0.958 . S
C385 H400 0.961 . S
C385 H401 0.960 . S
H386 C370 0.931 . S
H387 C375 0.929 . S
H388 C376 0.960 . S
H389 C376 0.962 . S
H390 C376 0.960 . S
H391 C377 0.961 . S
H392 C377 0.961 . S
H393 C377 0.961 . S
H394 C378 0.931 . S
H395 C383 0.930 . S
H396 C384 0.956 . S
H397 C384 0.961 . S
H398 C384 0.961 . S
H399 C385 0.958 . S
H400 C385 0.961 . S
H401 C385 0.960 . S
C402 C403 1.391 . S
C402 C404 1.394 . S
C402 H418 0.931 . S
C403 C402 1.391 . S
C403 C407 1.376 . S
C404 C402 1.394 . S
C404 C405 1.369 . S
C404 C408 1.531 . S
C405 C404 1.369 . S
C405 C406 1.410 . S
C405 C413 1.503 . S
C406 C405 1.410 . S
C406 C407 1.392 . S
C406 C409 1.511 . S
C407 C403 1.376 . S
C407 C406 1.392 . S
C407 H419 0.929 . S
C408 C404 1.531 . S
C408 H420 0.960 . S
C408 H421 0.962 . S
C408 H422 0.960 . S
C409 C406 1.511 . S
C409 H423 0.961 . S
C409 H424 0.961 . S
C409 H425 0.961 . S
C410 C411 1.370 . S
C410 C412 1.363 . S
C410 H426 0.931 . S
C411 C410 1.370 . S
C411 C415 1.408 . S
C412 C410 1.363 . S
C412 C413 1.370 . S
C412 C416 1.524 . S
C413 C405 1.503 . S
C413 C412 1.370 . S
C413 C414 1.403 . S
C414 C413 1.403 . S
C414 C415 1.404 . S
C414 C417 1.539 . S
C415 C411 1.408 . S
C415 C414 1.404 . S
C415 H427 0.930 . S
C416 C412 1.524 . S
C416 H428 0.956 . S
C416 H429 0.961 . S
C416 H430 0.961 . S
C417 C414 1.539 . S
C417 H431 0.958 . S
C417 H432 0.961 . S
C417 H433 0.960 . S
H418 C402 0.931 . S
H419 C407 0.929 . S
H420 C408 0.960 . S
H421 C408 0.962 . S
H422 C408 0.960 . S
H423 C409 0.961 . S
H424 C409 0.961 . S
H425 C409 0.961 . S
H426 C410 0.931 . S
H427 C415 0.930 . S
H428 C416 0.956 . S
H429 C416 0.961 . S
H430 C416 0.961 . S
H431 C417 0.958 . S
H432 C417 0.961 . S
H433 C417 0.960 . S
C434 C435 1.391 . S
C434 C436 1.394 . S
C434 H450 0.931 . S
C435 C434 1.391 . S
C435 C439 1.376 . S
C436 C434 1.394 . S
C436 C437 1.369 . S
C436 C440 1.531 . S
C437 C436 1.369 . S
C437 C438 1.410 . S
C437 C445 1.503 . S
C438 C437 1.410 . S
C438 C439 1.392 . S
C438 C441 1.511 . S
C439 C435 1.376 . S
C439 C438 1.392 . S
C439 H451 0.929 . S
C440 C436 1.531 . S
C440 H452 0.960 . S
C440 H453 0.962 . S
C440 H454 0.960 . S
C441 C438 1.511 . S
C441 H455 0.961 . S
C441 H456 0.961 . S
C441 H457 0.961 . S
C442 C443 1.370 . S
C442 C444 1.363 . S
C442 H458 0.931 . S
C443 C442 1.370 . S
C443 C447 1.408 . S
C444 C442 1.363 . S
C444 C445 1.370 . S
C444 C448 1.524 . S
C445 C437 1.503 . S
C445 C444 1.370 . S
C445 C446 1.403 . S
C446 C445 1.403 . S
C446 C447 1.404 . S
C446 C449 1.539 . S
C447 C443 1.408 . S
C447 C446 1.404 . S
C447 H459 0.930 . S
C448 C444 1.524 . S
C448 H460 0.956 . S
C448 H461 0.961 . S
C448 H462 0.961 . S
C449 C446 1.539 . S
C449 H463 0.958 . S
C449 H464 0.961 . S
C449 H465 0.960 . S
H450 C434 0.931 . S
H451 C439 0.929 . S
H452 C440 0.960 . S
H453 C440 0.962 . S
H454 C440 0.960 . S
H455 C441 0.961 . S
H456 C441 0.961 . S
H457 C441 0.961 . S
H458 C442 0.931 . S
H459 C447 0.930 . S
H460 C448 0.956 . S
H461 C448 0.961 . S
H462 C448 0.961 . S
H463 C449 0.958 . S
H464 C449 0.961 . S
H465 C449 0.960 . S
C466 C467 1.391 . S
C466 C468 1.394 . S
C466 H482 0.931 . S
C467 C466 1.391 . S
C467 C471 1.376 . S
C468 C466 1.394 . S
C468 C469 1.369 . S
C468 C472 1.531 . S
C469 C468 1.369 . S
C469 C470 1.410 . S
C469 C477 1.503 . S
C470 C469 1.410 . S
C470 C471 1.392 . S
C470 C473 1.511 . S
C471 C467 1.376 . S
C471 C470 1.392 . S
C471 H483 0.929 . S
C472 C468 1.531 . S
C472 H484 0.960 . S
C472 H485 0.962 . S
C472 H486 0.960 . S
C473 C470 1.511 . S
C473 H487 0.961 . S
C473 H488 0.961 . S
C473 H489 0.961 . S
C474 C475 1.370 . S
C474 C476 1.363 . S
C474 H490 0.931 . S
C475 C474 1.370 . S
C475 C479 1.408 . S
C476 C474 1.363 . S
C476 C477 1.370 . S
C476 C480 1.524 . S
C477 C469 1.503 . S
C477 C476 1.370 . S
C477 C478 1.403 . S
C478 C477 1.403 . S
C478 C479 1.404 . S
C478 C481 1.539 . S
C479 C475 1.408 . S
C479 C478 1.404 . S
C479 H491 0.930 . S
C480 C476 1.524 . S
C480 H492 0.956 . S
C480 H493 0.961 . S
C480 H494 0.961 . S
C481 C478 1.539 . S
C481 H495 0.958 . S
C481 H496 0.961 . S
C481 H497 0.960 . S
H482 C466 0.931 . S
H483 C471 0.929 . S
H484 C472 0.960 . S
H485 C472 0.962 . S
H486 C472 0.960 . S
H487 C473 0.961 . S
H488 C473 0.961 . S
H489 C473 0.961 . S
H490 C474 0.931 . S
H491 C479 0.930 . S
H492 C480 0.956 . S
H493 C480 0.961 . S
H494 C480 0.961 . S
H495 C481 0.958 . S
H496 C481 0.961 . S
H497 C481 0.960 . S
C498 C499 1.391 . S
C498 C500 1.394 . S
C498 H514 0.931 . S
C499 C498 1.391 . S
C499 C503 1.395 . S
C500 C498 1.394 . S
C500 C501 1.369 . S
C500 C504 1.531 . S
C501 C500 1.369 . S
C501 C502 1.410 . S
C501 C509 1.503 . S
C502 C501 1.410 . S
C502 C503 1.404 . S
C502 C505 1.511 1_554 S
C503 C499 1.395 . S
C503 C502 1.404 . S
C503 H515 0.898 1_554 S
C504 C500 1.531 . S
C504 H516 0.960 . S
C504 H517 0.962 . S
C504 H518 0.960 . S
C505 C502 1.511 1_556 S
C505 H519 0.961 . S
C505 H520 0.961 . S
C505 H521 0.961 1_556 S
C506 C507 1.370 . S
C506 C508 1.363 . S
C506 H522 0.931 . S
C507 C506 1.370 . S
C507 C511 1.408 . S
C508 C506 1.363 . S
C508 C509 1.370 . S
C508 C512 1.524 . S
C509 C501 1.503 . S
C509 C508 1.370 . S
C509 C510 1.403 . S
C510 C509 1.403 . S
C510 C511 1.404 . S
C510 C513 1.539 . S
C511 C507 1.408 . S
C511 C510 1.404 . S
C511 H523 0.930 . S
C512 C508 1.524 . S
C512 H524 0.956 . S
C512 H525 0.961 1_554 S
C512 H526 0.959 1_554 S
C513 C510 1.539 . S
C513 H527 0.958 . S
C513 H528 0.961 . S
C513 H529 0.960 . S
H514 C498 0.931 . S
H515 C503 0.898 1_556 S
H516 C504 0.960 . S
H517 C504 0.962 . S
H518 C504 0.960 . S
H519 C505 0.961 . S
H520 C505 0.961 . S
H521 C505 0.961 1_554 S
H522 C506 0.931 . S
H523 C511 0.930 . S
H524 C512 0.956 . S
H525 C512 0.961 1_556 S
H526 C512 0.959 1_556 S
H527 C513 0.958 . S
H528 C513 0.961 . S
H529 C513 0.960 . S
C530 C531 1.391 . S
C530 C532 1.394 . S
C530 H546 0.931 . S
C531 C530 1.391 . S
C531 C535 1.376 . S
C532 C530 1.394 . S
C532 C533 1.369 . S
C532 C536 1.531 . S
C533 C532 1.369 . S
C533 C534 1.410 . S
C533 C541 1.503 . S
C534 C533 1.410 . S
C534 C535 1.392 . S
C534 C537 1.511 . S
C535 C531 1.376 . S
C535 C534 1.392 . S
C535 H547 0.929 . S
C536 C532 1.531 . S
C536 H548 0.960 . S
C536 H549 0.962 . S
C536 H550 0.960 . S
C537 C534 1.511 . S
C537 H551 0.961 . S
C537 H552 0.961 . S
C537 H553 0.961 . S
C538 C539 1.370 . S
C538 C540 1.363 . S
C538 H554 0.931 . S
C539 C538 1.370 . S
C539 C543 1.408 . S
C540 C538 1.363 . S
C540 C541 1.370 . S
C540 C544 1.524 . S
C541 C533 1.503 . S
C541 C540 1.370 . S
C541 C542 1.403 . S
C542 C541 1.403 . S
C542 C543 1.404 . S
C542 C545 1.539 . S
C543 C539 1.408 . S
C543 C542 1.404 . S
C543 H555 0.930 . S
C544 C540 1.524 . S
C544 H556 0.956 . S
C544 H557 0.961 . S
C544 H558 0.961 . S
C545 C542 1.539 . S
C545 H559 0.958 . S
C545 H560 0.961 . S
C545 H561 0.960 . S
H546 C530 0.931 . S
H547 C535 0.929 . S
H548 C536 0.960 . S
H549 C536 0.962 . S
H550 C536 0.960 . S
H551 C537 0.961 . S
H552 C537 0.961 . S
H553 C537 0.961 . S
H554 C538 0.931 . S
H555 C543 0.930 . S
H556 C544 0.956 . S
H557 C544 0.961 . S
H558 C544 0.961 . S
H559 C545 0.958 . S
H560 C545 0.961 . S
H561 C545 0.960 . S
C562 C563 1.391 . S
C562 C564 1.394 . S
C562 H578 0.931 . S
C563 C562 1.391 . S
C563 C567 1.376 . S
C564 C562 1.394 . S
C564 C565 1.369 . S
C564 C568 1.531 . S
C565 C564 1.369 . S
C565 C566 1.410 . S
C565 C573 1.503 . S
C566 C565 1.410 . S
C566 C567 1.392 . S
C566 C569 1.511 . S
C567 C563 1.376 . S
C567 C566 1.392 . S
C567 H579 0.929 . S
C568 C564 1.531 . S
C568 H580 0.960 . S
C568 H581 0.962 . S
C568 H582 0.960 . S
C569 C566 1.511 . S
C569 H583 0.961 . S
C569 H584 0.961 . S
C569 H585 0.961 . S
C570 C571 1.370 . S
C570 C572 1.363 . S
C570 H586 0.931 . S
C571 C570 1.370 . S
C571 C575 1.408 . S
C572 C570 1.363 . S
C572 C573 1.370 . S
C572 C576 1.524 . S
C573 C565 1.503 . S
C573 C572 1.370 . S
C573 C574 1.403 . S
C574 C573 1.403 . S
C574 C575 1.404 . S
C574 C577 1.539 . S
C575 C571 1.408 . S
C575 C574 1.404 . S
C575 H587 0.930 . S
C576 C572 1.524 . S
C576 H588 0.956 . S
C576 H589 0.961 . S
C576 H590 0.961 . S
C577 C574 1.539 . S
C577 H591 0.958 . S
C577 H592 0.961 . S
C577 H593 0.960 . S
H578 C562 0.931 . S
H579 C567 0.929 . S
H580 C568 0.960 . S
H581 C568 0.962 . S
H582 C568 0.960 . S
H583 C569 0.961 . S
H584 C569 0.961 . S
H585 C569 0.961 . S
H586 C570 0.931 . S
H587 C575 0.930 . S
H588 C576 0.956 . S
H589 C576 0.961 . S
H590 C576 0.961 . S
H591 C577 0.958 . S
H592 C577 0.961 . S
H593 C577 0.960 . S
C594 C595 1.391 . S
C594 C596 1.394 . S
C594 H610 0.931 . S
C595 C594 1.391 . S
C595 C599 1.376 . S
C596 C594 1.394 . S
C596 C597 1.369 . S
C596 C600 1.531 . S
C597 C596 1.369 . S
C597 C598 1.410 . S
C597 C605 1.503 . S
C598 C597 1.410 . S
C598 C599 1.392 . S
C598 C601 1.511 . S
C599 C595 1.376 . S
C599 C598 1.392 . S
C599 H611 0.929 . S
C600 C596 1.531 . S
C600 H612 0.960 . S
C600 H613 0.962 . S
C600 H614 0.960 . S
C601 C598 1.511 . S
C601 H615 0.961 . S
C601 H616 0.961 . S
C601 H617 0.961 . S
C602 C603 1.370 . S
C602 C604 1.363 . S
C602 H618 0.931 . S
C603 C602 1.370 . S
C603 C607 1.408 . S
C604 C602 1.363 . S
C604 C605 1.370 . S
C604 C608 1.524 . S
C605 C597 1.503 . S
C605 C604 1.370 . S
C605 C606 1.403 . S
C606 C605 1.403 . S
C606 C607 1.404 . S
C606 C609 1.539 . S
C607 C603 1.408 . S
C607 C606 1.404 . S
C607 H619 0.930 . S
C608 C604 1.524 . S
C608 H620 0.956 . S
C608 H621 0.961 . S
C608 H622 0.961 . S
C609 C606 1.539 . S
C609 H623 0.958 . S
C609 H624 0.961 . S
C609 H625 0.960 . S
H610 C594 0.931 . S
H611 C599 0.929 . S
H612 C600 0.960 . S
H613 C600 0.962 . S
H614 C600 0.960 . S
H615 C601 0.961 . S
H616 C601 0.961 . S
H617 C601 0.961 . S
H618 C602 0.931 . S
H619 C607 0.930 . S
H620 C608 0.956 . S
H621 C608 0.961 . S
H622 C608 0.961 . S
H623 C609 0.958 . S
H624 C609 0.961 . S
H625 C609 0.960 . S
C626 C627 1.391 . S
C626 C628 1.394 . S
C626 H642 0.931 . S
C627 C626 1.391 . S
C627 C631 1.376 . S
C628 C626 1.394 . S
C628 C629 1.369 . S
C628 C632 1.531 . S
C629 C628 1.369 . S
C629 C630 1.410 . S
C629 C637 1.503 . S
C630 C629 1.410 . S
C630 C631 1.392 . S
C630 C633 1.511 . S
C631 C627 1.376 . S
C631 C630 1.392 . S
C631 H643 0.929 . S
C632 C628 1.531 . S
C632 H644 0.960 . S
C632 H645 0.962 . S
C632 H646 0.960 . S
C633 C630 1.511 . S
C633 H647 0.961 . S
C633 H648 0.961 . S
C633 H649 0.961 . S
C634 C635 1.370 . S
C634 C636 1.363 . S
C634 H650 0.931 . S
C635 C634 1.370 . S
C635 C639 1.408 . S
C636 C634 1.363 . S
C636 C637 1.370 . S
C636 C640 1.524 . S
C637 C629 1.503 . S
C637 C636 1.370 . S
C637 C638 1.403 . S
C638 C637 1.403 . S
C638 C639 1.404 . S
C638 C641 1.539 . S
C639 C635 1.408 . S
C639 C638 1.404 . S
C639 H651 0.930 . S
C640 C636 1.524 . S
C640 H652 0.956 . S
C640 H653 0.961 . S
C640 H654 0.961 . S
C641 C638 1.539 . S
C641 H655 0.958 . S
C641 H656 0.961 . S
C641 H657 0.960 . S
H642 C626 0.931 . S
H643 C631 0.929 . S
H644 C632 0.960 . S
H645 C632 0.962 . S
H646 C632 0.960 . S
H647 C633 0.961 . S
H648 C633 0.961 . S
H649 C633 0.961 . S
H650 C634 0.931 . S
H651 C639 0.930 . S
H652 C640 0.956 . S
H653 C640 0.961 . S
H654 C640 0.961 . S
H655 C641 0.958 . S
H656 C641 0.961 . S
H657 C641 0.960 . S
C658 C659 1.391 . S
C658 C660 1.394 . S
C658 H674 0.931 . S
C659 C658 1.391 . S
C659 C663 1.376 . S
C660 C658 1.394 . S
C660 C661 1.369 . S
C660 C664 1.531 . S
C661 C660 1.369 . S
C661 C662 1.410 . S
C661 C669 1.503 . S
C662 C661 1.410 . S
C662 C663 1.392 . S
C662 C665 1.511 . S
C663 C659 1.376 . S
C663 C662 1.392 . S
C663 H675 0.929 . S
C664 C660 1.531 . S
C664 H676 0.960 . S
C664 H677 0.962 . S
C664 H678 0.960 . S
C665 C662 1.511 . S
C665 H679 0.961 . S
C665 H680 0.961 . S
C665 H681 0.961 . S
C666 C667 1.370 . S
C666 C668 1.363 . S
C666 H682 0.931 . S
C667 C666 1.370 . S
C667 C671 1.408 . S
C668 C666 1.363 . S
C668 C669 1.370 . S
C668 C672 1.524 . S
C669 C661 1.503 . S
C669 C668 1.370 . S
C669 C670 1.403 . S
C670 C669 1.403 . S
C670 C671 1.404 . S
C670 C673 1.539 . S
C671 C667 1.408 . S
C671 C670 1.404 . S
C671 H683 0.930 . S
C672 C668 1.524 . S
C672 H684 0.956 . S
C672 H685 0.961 . S
C672 H686 0.961 . S
C673 C670 1.539 . S
C673 H687 0.958 . S
C673 H688 0.961 . S
C673 H689 0.960 . S
H674 C658 0.931 . S
H675 C663 0.929 . S
H676 C664 0.960 . S
H677 C664 0.962 . S
H678 C664 0.960 . S
H679 C665 0.961 . S
H680 C665 0.961 . S
H681 C665 0.961 . S
H682 C666 0.931 . S
H683 C671 0.930 . S
H684 C672 0.956 . S
H685 C672 0.961 . S
H686 C672 0.961 . S
H687 C673 0.958 . S
H688 C673 0.961 . S
H689 C673 0.960 . S
C690 C691 1.391 . S
C690 C692 1.394 . S
C690 H706 0.931 . S
C691 C690 1.391 . S
C691 C695 1.376 . S
C692 C690 1.394 . S
C692 C693 1.369 . S
C692 C696 1.531 . S
C693 C692 1.369 . S
C693 C694 1.410 . S
C693 C701 1.503 . S
C694 C693 1.410 . S
C694 C695 1.392 . S
C694 C697 1.511 . S
C695 C691 1.376 . S
C695 C694 1.392 . S
C695 H707 0.929 . S
C696 C692 1.531 . S
C696 H708 0.960 . S
C696 H709 0.962 . S
C696 H710 0.960 . S
C697 C694 1.511 . S
C697 H711 0.961 . S
C697 H712 0.961 . S
C697 H713 0.961 . S
C698 C699 1.370 1_556 S
C698 C700 1.363 . S
C698 H714 0.931 . S
C699 C698 1.370 1_554 S
C699 C703 1.408 1_554 S
C700 C698 1.363 . S
C700 C701 1.370 . S
C700 C704 1.524 . S
C701 C693 1.503 . S
C701 C700 1.370 . S
C701 C702 1.403 . S
C702 C701 1.403 . S
C702 C703 1.404 . S
C702 C705 1.539 . S
C703 C699 1.408 1_556 S
C703 C702 1.404 . S
C703 H715 0.930 1_556 S
C704 C700 1.524 . S
C704 H716 0.956 . S
C704 H717 0.961 . S
C704 H718 0.961 . S
C705 C702 1.539 . S
C705 H719 0.958 . S
C705 H720 0.961 . S
C705 H721 0.960 . S
H706 C690 0.931 . S
H707 C695 0.929 . S
H708 C696 0.960 . S
H709 C696 0.962 . S
H710 C696 0.960 . S
H711 C697 0.961 . S
H712 C697 0.961 . S
H713 C697 0.961 . S
H714 C698 0.931 . S
H715 C703 0.930 1_554 S
H716 C704 0.956 . S
H717 C704 0.961 . S
H718 C704 0.961 . S
H719 C705 0.958 . S
H720 C705 0.961 . S
H721 C705 0.960 . S
C722 C723 1.391 . S
C722 C724 1.394 . S
C722 H738 0.931 . S
C723 C722 1.391 . S
C723 C727 1.376 . S
C724 C722 1.394 . S
C724 C725 1.369 . S
C724 C728 1.531 . S
C725 C724 1.369 . S
C725 C726 1.410 . S
C725 C733 1.503 . S
C726 C725 1.410 . S
C726 C727 1.392 . S
C726 C729 1.511 . S
C727 C723 1.376 . S
C727 C726 1.392 . S
C727 H739 0.929 . S
C728 C724 1.531 . S
C728 H740 0.960 . S
C728 H741 0.962 . S
C728 H742 0.960 . S
C729 C726 1.511 . S
C729 H743 0.961 . S
C729 H744 0.961 . S
C729 H745 0.961 . S
C730 C731 1.370 . S
C730 C732 1.363 . S
C730 H746 0.931 . S
C731 C730 1.370 . S
C731 C735 1.408 . S
C732 C730 1.363 . S
C732 C733 1.370 . S
C732 C736 1.524 . S
C733 C725 1.503 . S
C733 C732 1.370 . S
C733 C734 1.403 . S
C734 C733 1.403 . S
C734 C735 1.404 . S
C734 C737 1.539 . S
C735 C731 1.408 . S
C735 C734 1.404 . S
C735 H747 0.930 . S
C736 C732 1.524 . S
C736 H748 0.956 . S
C736 H749 0.961 . S
C736 H750 0.961 . S
C737 C734 1.539 . S
C737 H751 0.958 . S
C737 H752 0.961 . S
C737 H753 0.960 . S
H738 C722 0.931 . S
H739 C727 0.929 . S
H740 C728 0.960 . S
H741 C728 0.962 . S
H742 C728 0.960 . S
H743 C729 0.961 . S
H744 C729 0.961 . S
H745 C729 0.961 . S
H746 C730 0.931 . S
H747 C735 0.930 . S
H748 C736 0.956 . S
H749 C736 0.961 . S
H750 C736 0.961 . S
H751 C737 0.958 . S
H752 C737 0.961 . S
H753 C737 0.960 . S
C754 C755 1.391 . S
C754 C756 1.394 . S
C754 H770 0.931 . S
C755 C754 1.391 . S
C755 C759 1.376 . S
C756 C754 1.394 . S
C756 C757 1.369 . S
C756 C760 1.531 . S
C757 C756 1.369 . S
C757 C758 1.410 . S
C757 C765 1.503 . S
C758 C757 1.410 . S
C758 C759 1.392 . S
C758 C761 1.511 . S
C759 C755 1.376 . S
C759 C758 1.392 . S
C759 H771 0.929 . S
C760 C756 1.531 . S
C760 H772 0.960 . S
C760 H773 0.962 . S
C760 H774 0.960 . S
C761 C758 1.511 . S
C761 H775 0.961 . S
C761 H776 0.961 . S
C761 H777 0.961 . S
C762 C763 1.370 . S
C762 C764 1.363 . S
C762 H778 0.931 . S
C763 C762 1.370 . S
C763 C767 1.408 . S
C764 C762 1.363 . S
C764 C765 1.370 . S
C764 C768 1.524 . S
C765 C757 1.503 . S
C765 C764 1.370 . S
C765 C766 1.403 . S
C766 C765 1.403 . S
C766 C767 1.404 . S
C766 C769 1.539 . S
C767 C763 1.408 . S
C767 C766 1.404 . S
C767 H779 0.930 . S
C768 C764 1.524 . S
C768 H780 0.956 . S
C768 H781 0.961 . S
C768 H782 0.961 . S
C769 C766 1.539 . S
C769 H783 0.958 . S
C769 H784 0.961 . S
C769 H785 0.960 . S
H770 C754 0.931 . S
H771 C759 0.929 . S
H772 C760 0.960 . S
H773 C760 0.962 . S
H774 C760 0.960 . S
H775 C761 0.961 . S
H776 C761 0.961 . S
H777 C761 0.961 . S
H778 C762 0.931 . S
H779 C767 0.930 . S
H780 C768 0.956 . S
H781 C768 0.961 . S
H782 C768 0.961 . S
H783 C769 0.958 . S
H784 C769 0.961 . S
H785 C769 0.960 . S
C786 C787 1.391 . S
C786 C788 1.394 . S
C786 H802 0.931 . S
C787 C786 1.391 . S
C787 C791 1.376 . S
C788 C786 1.394 . S
C788 C789 1.369 . S
C788 C792 1.531 . S
C789 C788 1.369 . S
C789 C790 1.410 . S
C789 C797 1.503 . S
C790 C789 1.410 . S
C790 C791 1.392 . S
C790 C793 1.511 . S
C791 C787 1.376 . S
C791 C790 1.392 . S
C791 H803 0.929 . S
C792 C788 1.531 . S
C792 H804 0.960 . S
C792 H805 0.962 . S
C792 H806 0.960 . S
C793 C790 1.511 . S
C793 H807 0.961 . S
C793 H808 0.961 . S
C793 H809 0.961 . S
C794 C795 1.370 . S
C794 C796 1.363 . S
C794 H810 0.931 . S
C795 C794 1.370 . S
C795 C799 1.408 . S
C796 C794 1.363 . S
C796 C797 1.370 . S
C796 C800 1.524 . S
C797 C789 1.503 . S
C797 C796 1.370 . S
C797 C798 1.403 . S
C798 C797 1.403 . S
C798 C799 1.404 . S
C798 C801 1.539 . S
C799 C795 1.408 . S
C799 C798 1.404 . S
C799 H811 0.930 . S
C800 C796 1.524 . S
C800 H812 0.956 . S
C800 H813 0.961 . S
C800 H814 0.961 . S
C801 C798 1.539 . S
C801 H815 0.958 . S
C801 H816 0.961 . S
C801 H817 0.960 . S
H802 C786 0.931 . S
H803 C791 0.929 . S
H804 C792 0.960 . S
H805 C792 0.962 . S
H806 C792 0.960 . S
H807 C793 0.961 . S
H808 C793 0.961 . S
H809 C793 0.961 . S
H810 C794 0.931 . S
H811 C799 0.930 . S
H812 C800 0.956 . S
H813 C800 0.961 . S
H814 C800 0.961 . S
H815 C801 0.958 . S
H816 C801 0.961 . S
H817 C801 0.960 . S
C818 C819 1.391 . S
C818 C820 1.394 . S
C818 H834 0.931 . S
C819 C818 1.391 . S
C819 C823 1.376 . S
C820 C818 1.394 . S
C820 C821 1.369 . S
C820 C824 1.531 . S
C821 C820 1.369 . S
C821 C822 1.410 . S
C821 C829 1.503 . S
C822 C821 1.410 . S
C822 C823 1.392 . S
C822 C825 1.511 . S
C823 C819 1.376 . S
C823 C822 1.392 . S
C823 H835 0.929 . S
C824 C820 1.531 . S
C824 H836 0.960 . S
C824 H837 0.962 . S
C824 H838 0.960 . S
C825 C822 1.511 . S
C825 H839 0.961 . S
C825 H840 0.961 . S
C825 H841 0.961 . S
C826 C827 1.370 . S
C826 C828 1.363 . S
C826 H842 0.931 . S
C827 C826 1.370 . S
C827 C831 1.408 . S
C828 C826 1.363 . S
C828 C829 1.370 . S
C828 C832 1.524 . S
C829 C821 1.503 . S
C829 C828 1.370 . S
C829 C830 1.403 . S
C830 C829 1.403 . S
C830 C831 1.404 . S
C830 C833 1.539 . S
C831 C827 1.408 . S
C831 C830 1.404 . S
C831 H843 0.930 . S
C832 C828 1.524 . S
C832 H844 0.956 . S
C832 H845 0.961 . S
C832 H846 0.961 . S
C833 C830 1.539 . S
C833 H847 0.958 . S
C833 H848 0.961 . S
C833 H849 0.960 . S
H834 C818 0.931 . S
H835 C823 0.929 . S
H836 C824 0.960 . S
H837 C824 0.962 . S
H838 C824 0.960 . S
H839 C825 0.961 . S
H840 C825 0.961 . S
H841 C825 0.961 . S
H842 C826 0.931 . S
H843 C831 0.930 . S
H844 C832 0.956 . S
H845 C832 0.961 . S
H846 C832 0.961 . S
H847 C833 0.958 . S
H848 C833 0.961 . S
H849 C833 0.960 . S
C850 C851 1.391 . S
C850 C852 1.394 . S
C850 H866 0.931 . S
C851 C850 1.391 . S
C851 C855 1.376 . S
C852 C850 1.394 . S
C852 C853 1.369 . S
C852 C856 1.531 . S
C853 C852 1.369 . S
C853 C854 1.410 . S
C853 C861 1.503 . S
C854 C853 1.410 . S
C854 C855 1.392 . S
C854 C857 1.511 . S
C855 C851 1.376 . S
C855 C854 1.392 . S
C855 H867 0.929 . S
C856 C852 1.531 . S
C856 H868 0.960 . S
C856 H869 0.962 . S
C856 H870 0.960 . S
C857 C854 1.511 . S
C857 H871 0.961 . S
C857 H872 0.961 . S
C857 H873 0.961 . S
C858 C859 1.370 . S
C858 C860 1.363 . S
C858 H874 0.931 . S
C859 C858 1.370 . S
C859 C863 1.408 . S
C860 C858 1.363 . S
C860 C861 1.370 . S
C860 C864 1.524 . S
C861 C853 1.503 . S
C861 C860 1.370 . S
C861 C862 1.403 . S
C862 C861 1.403 . S
C862 C863 1.404 . S
C862 C865 1.539 . S
C863 C859 1.408 . S
C863 C862 1.404 . S
C863 H875 0.930 . S
C864 C860 1.524 . S
C864 H876 0.956 . S
C864 H877 0.961 . S
C864 H878 0.961 . S
C865 C862 1.539 . S
C865 H879 0.958 . S
C865 H880 0.961 . S
C865 H881 0.960 . S
H866 C850 0.931 . S
H867 C855 0.929 . S
H868 C856 0.960 . S
H869 C856 0.962 . S
H870 C856 0.960 . S
H871 C857 0.961 . S
H872 C857 0.961 . S
H873 C857 0.961 . S
H874 C858 0.931 . S
H875 C863 0.930 . S
H876 C864 0.956 . S
H877 C864 0.961 . S
H878 C864 0.961 . S
H879 C865 0.958 . S
H880 C865 0.961 . S
H881 C865 0.960 . S
C882 C883 1.391 . S
C882 C884 1.394 . S
C882 H898 0.931 . S
C883 C882 1.391 . S
C883 C887 1.376 . S
C884 C882 1.394 . S
C884 C885 1.369 . S
C884 C888 1.531 . S
C885 C884 1.369 . S
C885 C886 1.410 . S
C885 C893 1.503 . S
C886 C885 1.410 . S
C886 C887 1.392 . S
C886 C889 1.511 . S
C887 C883 1.376 . S
C887 C886 1.392 . S
C887 H899 0.929 . S
C888 C884 1.531 . S
C888 H900 0.960 . S
C888 H901 0.962 . S
C888 H902 0.960 . S
C889 C886 1.511 . S
C889 H903 0.961 . S
C889 H904 0.961 . S
C889 H905 0.961 . S
C890 C891 1.370 . S
C890 C892 1.363 . S
C890 H906 0.931 . S
C891 C890 1.370 . S
C891 C895 1.408 . S
C892 C890 1.363 . S
C892 C893 1.370 . S
C892 C896 1.524 . S
C893 C885 1.503 . S
C893 C892 1.370 . S
C893 C894 1.403 . S
C894 C893 1.403 . S
C894 C895 1.404 . S
C894 C897 1.539 . S
C895 C891 1.408 . S
C895 C894 1.404 . S
C895 H907 0.930 . S
C896 C892 1.524 . S
C896 H908 0.956 . S
C896 H909 0.961 . S
C896 H910 0.961 . S
C897 C894 1.539 . S
C897 H911 0.958 . S
C897 H912 0.961 . S
C897 H913 0.960 . S
H898 C882 0.931 . S
H899 C887 0.929 . S
H900 C888 0.960 . S
H901 C888 0.962 . S
H902 C888 0.960 . S
H903 C889 0.961 . S
H904 C889 0.961 . S
H905 C889 0.961 . S
H906 C890 0.931 . S
H907 C895 0.930 . S
H908 C896 0.956 . S
H909 C896 0.961 . S
H910 C896 0.961 . S
H911 C897 0.958 . S
H912 C897 0.961 . S
H913 C897 0.960 . S
C914 C915 1.391 . S
C914 C916 1.394 . S
C914 H930 0.931 . S
C915 C914 1.391 . S
C915 C919 1.376 . S
C916 C914 1.394 . S
C916 C917 1.369 . S
C916 C920 1.531 . S
C917 C916 1.369 . S
C917 C918 1.410 . S
C917 C925 1.503 . S
C918 C917 1.410 . S
C918 C919 1.392 . S
C918 C921 1.511 . S
C919 C915 1.376 . S
C919 C918 1.392 . S
C919 H931 0.929 . S
C920 C916 1.531 . S
C920 H932 0.960 . S
C920 H933 0.962 . S
C920 H934 0.960 . S
C921 C918 1.511 . S
C921 H935 0.961 . S
C921 H936 0.961 . S
C921 H937 0.961 . S
C922 C923 1.370 . S
C922 C924 1.359 1_556 S
C922 H938 0.931 . S
C923 C922 1.370 . S
C923 C927 1.408 1_556 S
C924 C922 1.359 1_554 S
C924 C925 1.375 . S
C924 C928 1.523 1_554 S
C925 C917 1.503 . S
C925 C924 1.375 . S
C925 C926 1.403 . S
C926 C925 1.403 . S
C926 C927 1.404 . S
C926 C929 1.539 . S
C927 C923 1.408 1_554 S
C927 C926 1.404 . S
C927 H939 0.930 . S
C928 C924 1.523 1_556 S
C928 H940 0.956 1_556 S
C928 H941 0.952 1_556 S
C928 H942 0.961 . S
C929 C926 1.539 . S
C929 H943 0.958 . S
C929 H944 0.961 . S
C929 H945 0.960 . S
H930 C914 0.931 . S
H931 C919 0.929 . S
H932 C920 0.960 . S
H933 C920 0.962 . S
H934 C920 0.960 . S
H935 C921 0.961 . S
H936 C921 0.961 . S
H937 C921 0.961 . S
H938 C922 0.931 . S
H939 C927 0.930 . S
H940 C928 0.956 1_554 S
H941 C928 0.952 1_554 S
H942 C928 0.961 . S
H943 C929 0.958 . S
H944 C929 0.961 . S
H945 C929 0.960 . S
C946 C947 1.391 . S
C946 C948 1.394 . S
C946 H962 0.931 . S
C947 C946 1.391 . S
C947 C951 1.376 . S
C948 C946 1.394 . S
C948 C949 1.369 . S
C948 C952 1.531 . S
C949 C948 1.369 . S
C949 C950 1.410 . S
C949 C957 1.503 . S
C950 C949 1.410 . S
C950 C951 1.392 . S
C950 C953 1.511 . S
C951 C947 1.376 . S
C951 C950 1.392 . S
C951 H963 0.929 . S
C952 C948 1.531 . S
C952 H964 0.960 . S
C952 H965 0.962 . S
C952 H966 0.960 . S
C953 C950 1.511 . S
C953 H967 0.961 . S
C953 H968 0.961 . S
C953 H969 0.961 . S
C954 C955 1.370 . S
C954 C956 1.363 . S
C954 H970 0.931 . S
C955 C954 1.370 . S
C955 C959 1.408 . S
C956 C954 1.363 . S
C956 C957 1.370 . S
C956 C960 1.524 . S
C957 C949 1.503 . S
C957 C956 1.370 . S
C957 C958 1.403 . S
C958 C957 1.403 . S
C958 C959 1.404 . S
C958 C961 1.539 . S
C959 C955 1.408 . S
C959 C958 1.404 . S
C959 H971 0.930 . S
C960 C956 1.524 . S
C960 H972 0.956 . S
C960 H973 0.961 . S
C960 H974 0.961 . S
C961 C958 1.539 . S
C961 H975 0.958 . S
C961 H976 0.961 . S
C961 H977 0.960 . S
H962 C946 0.931 . S
H963 C951 0.929 . S
H964 C952 0.960 . S
H965 C952 0.962 . S
H966 C952 0.960 . S
H967 C953 0.961 . S
H968 C953 0.961 . S
H969 C953 0.961 . S
H970 C954 0.931 . S
H971 C959 0.930 . S
H972 C960 0.956 . S
H973 C960 0.961 . S
H974 C960 0.961 . S
H975 C961 0.958 . S
H976 C961 0.961 . S
H977 C961 0.960 . S
C219 C203 1.568 . S
C211 C19 1.454 . S
C243 C40 1.380 . S
C251 C137 1.468 . S
C275 C51 1.375 . S
C283 C151 1.415 . S
C307 C72 1.377 . S
C315 C165 1.471 . S
C347 C179 1.472 . S
C339 C103 1.390 . S
C371 C114 1.457 . S
C379 C189 1.522 . S
C403 C30 1.435 . S
C411 C147 1.575 . S
C435 C61 1.531 . S
C443 C161 1.625 . S
C467 C82 1.477 . S
C475 C175 1.558 . S
C507 C193 1.478 . S
C499 C93 1.375 1_554 S
C539 C207 1.503 . S
C531 C124 1.438 . S
C571 C133 1.557 . S
C563 C9 1.497 . S
C595 C17 1.444 . S
C603 C148 1.451 . S
C627 C38 1.469 . S
C635 C162 1.531 . S
C667 C176 1.517 . S
C659 C54 1.524 . S
C691 C75 1.437 . S
C699 C195 1.416 . S
C731 C209 1.407 . S
C723 C101 1.398 . S
C763 C134 1.455 . S
C755 C117 1.425 . S
C795 C204 1.450 . S
C787 C33 1.428 . S
C819 C59 1.285 . S
C827 C139 1.359 . S
C859 C153 1.355 . S
C851 C80 1.366 . S
C883 C96 1.428 . S
C891 C167 1.395 . S
C915 C122 1.371 . S
C923 C181 1.438 . S
C947 C12 1.441 . S
C955 C190 1.479 . S
