# Generated by pormake.
# Topology zzz, (3,6)-cn, num edge types: 1
# Building blocks:
#     Node 0, Type 0, BuildingBlock: CUQRIR_clean_linker_1, # of connection points: 3
#     Node 1, Type 0, BuildingBlock: CUQRIR_clean_linker_1, # of connection points: 3
#     Node 2, Type 0, BuildingBlock: CUQRIR_clean_linker_1, # of connection points: 3
#     Node 3, Type 0, BuildingBlock: CUQRIR_clean_linker_1, # of connection points: 3
#     Node 4, Type 0, BuildingBlock: CUQRIR_clean_linker_1, # of connection points: 3
#     Node 5, Type 0, BuildingBlock: CUQRIR_clean_linker_1, # of connection points: 3
#     Node 6, Type 0, BuildingBlock: CUQRIR_clean_linker_1, # of connection points: 3
#     Node 7, Type 0, BuildingBlock: CUQRIR_clean_linker_1, # of connection points: 3
#     Node 8, Type 1, BuildingBlock: NUHQIS_clean_sbu_0, # of connection points: 6
#     Node 9, Type 1, BuildingBlock: NUHQIS_clean_sbu_0, # of connection points: 6
#     Node 10, Type 1, BuildingBlock: NUHQIS_clean_sbu_0, # of connection points: 6
#     Node 11, Type 1, BuildingBlock: NUHQIS_clean_sbu_0, # of connection points: 6
#     Edge 12, Type (0, 1), BuildingBlock: ZUJKAS_clean_linker_0, # of connection points: 2
#     Edge 13, Type (0, 1), BuildingBlock: ZUJKAS_clean_linker_0, # of connection points: 2
#     Edge 14, Type (0, 1), BuildingBlock: ZUJKAS_clean_linker_0, # of connection points: 2
#     Edge 15, Type (0, 1), BuildingBlock: ZUJKAS_clean_linker_0, # of connection points: 2
#     Edge 16, Type (0, 1), BuildingBlock: ZUJKAS_clean_linker_0, # of connection points: 2
#     Edge 17, Type (0, 1), BuildingBlock: ZUJKAS_clean_linker_0, # of connection points: 2
#     Edge 18, Type (0, 1), BuildingBlock: ZUJKAS_clean_linker_0, # of connection points: 2
#     Edge 19, Type (0, 1), BuildingBlock: ZUJKAS_clean_linker_0, # of connection points: 2
#     Edge 20, Type (0, 1), BuildingBlock: ZUJKAS_clean_linker_0, # of connection points: 2
#     Edge 21, Type (0, 1), BuildingBlock: ZUJKAS_clean_linker_0, # of connection points: 2
#     Edge 22, Type (0, 1), BuildingBlock: ZUJKAS_clean_linker_0, # of connection points: 2
#     Edge 23, Type (0, 1), BuildingBlock: ZUJKAS_clean_linker_0, # of connection points: 2
#     Edge 24, Type (0, 1), BuildingBlock: ZUJKAS_clean_linker_0, # of connection points: 2
#     Edge 25, Type (0, 1), BuildingBlock: ZUJKAS_clean_linker_0, # of connection points: 2
#     Edge 26, Type (0, 1), BuildingBlock: ZUJKAS_clean_linker_0, # of connection points: 2
#     Edge 27, Type (0, 1), BuildingBlock: ZUJKAS_clean_linker_0, # of connection points: 2
#     Edge 28, Type (0, 1), BuildingBlock: ZUJKAS_clean_linker_0, # of connection points: 2
#     Edge 29, Type (0, 1), BuildingBlock: ZUJKAS_clean_linker_0, # of connection points: 2
#     Edge 30, Type (0, 1), BuildingBlock: ZUJKAS_clean_linker_0, # of connection points: 2
#     Edge 31, Type (0, 1), BuildingBlock: ZUJKAS_clean_linker_0, # of connection points: 2
#     Edge 32, Type (0, 1), BuildingBlock: ZUJKAS_clean_linker_0, # of connection points: 2
#     Edge 33, Type (0, 1), BuildingBlock: ZUJKAS_clean_linker_0, # of connection points: 2
#     Edge 34, Type (0, 1), BuildingBlock: ZUJKAS_clean_linker_0, # of connection points: 2
#     Edge 35, Type (0, 1), BuildingBlock: ZUJKAS_clean_linker_0, # of connection points: 2
# Relax obj value: 0.228
# Max RMSD: 0.144
# Mean RMSD: 0.134
data_MOF--net-zzz--node1-NUHQIS_clean_sbu_0--node2-CUQRIR_clean_linker_1--edge1-ZUJKAS_clean_linker_0
_symmetry_space_group_name_H-M    P1
_symmetry_Int_Tables_number       1
_symmetry_cell_setting            triclinic
loop_
_symmetry_equiv_pos_as_xyz
'x, y, z'
_cell_length_a     64.718621
_cell_length_b     64.706368
_cell_length_c     16.602735
_cell_angle_alpha  89.91618
_cell_angle_beta   89.990728
_cell_angle_gamma 89.870974
loop_
_atom_site_label
_atom_site_type_symbol
_atom_site_fract_x
_atom_site_fract_y
_atom_site_fract_z
_atom_type_partial_charge
C0 C 0.74838 0.5084 0.34441 0.0
N1 N 0.76692 0.49841 0.34877 0.0
N2 N 0.73612 0.49986 0.28649 0.0
C3 C 0.74192 0.52583 0.39829 0.0
C4 C 0.74801 0.48458 0.25531 0.0
N5 N 0.76647 0.48364 0.29315 0.0
C6 C 0.74231 0.47177 0.18295 0.0
H7 H 0.74949 0.52449 0.45805 0.0
H8 H 0.72489 0.5261 0.40579 0.0
H9 H 0.74675 0.54065 0.37039 0.0
H10 H 0.75622 0.46726 0.14808 0.0
H11 H 0.7316 0.48032 0.14265 0.0
H12 H 0.73451 0.45748 0.20372 0.0
C13 C 1.01029 0.74667 0.33072 0.0
N14 N 0.02132 0.7636 0.35276 0.0
N15 N 0.02265 0.73253 0.2934 0.0
C16 C 0.98742 0.74442 0.34169 0.0
C17 C 0.04148 0.74168 0.29291 0.0
N18 N 0.04067 0.76039 0.32909 0.0
C19 C 0.06028 0.7328 0.25226 0.0
H20 H 0.98227 0.75246 0.39717 0.0
H21 H 0.98304 0.72786 0.3445 0.0
H22 H 0.97946 0.75162 0.28951 0.0
H23 H 0.05669 0.72964 0.18808 0.0
H24 H 0.06439 0.71786 0.28095 0.0
H25 H 0.07378 0.74325 0.25622 0.0
C26 C 0.77889 1.00585 0.3348 0.0
N27 N 0.76169 0.01686 0.35446 0.0
N28 N 0.79249 0.0178 0.29292 0.0
C29 C 0.78219 0.9835 0.35475 0.0
C30 C 0.78267 0.03625 0.28672 0.0
N31 N 0.76415 0.03572 0.3244 0.0
C32 C 0.79045 0.05414 0.23744 0.0
H33 H 0.77425 0.97944 0.41185 0.0
H34 H 0.79893 0.97995 0.35943 0.0
H35 H 0.77553 0.97395 0.30581 0.0
H36 H 0.79468 0.0487 0.17622 0.0
H37 H 0.80465 0.06037 0.26576 0.0
H38 H 0.77888 0.06675 0.23275 0.0
C39 C 0.51742 0.77483 0.33848 0.0
N40 N 0.50681 0.75727 0.35641 0.0
N41 N 0.50522 0.78854 0.29757 0.0
C42 C 0.53973 0.77829 0.3584 0.0
C43 C 0.48693 0.77846 0.29086 0.0
N44 N 0.48789 0.7597 0.32682 0.0
C45 C 0.46839 0.78669 0.24627 0.0
H46 H 0.544 0.76999 0.41452 0.0
H47 H 0.54298 0.79504 0.36498 0.0
H48 H 0.54937 0.77214 0.3086 0.0
H49 H 0.47331 0.79419 0.18925 0.0
H50 H 0.46067 0.79856 0.2839 0.0
H51 H 0.45697 0.77444 0.23291 0.0
C52 C 0.28063 0.50759 0.10852 0.0
N53 N 0.26273 0.51798 0.09373 0.0
N54 N 0.29297 0.51846 0.16005 0.0
C55 C 0.28608 0.4871 0.07217 0.0
C56 C 0.28155 0.53556 0.17685 0.0
N57 N 0.26353 0.53535 0.13586 0.0
C58 C 0.2872 0.5517 0.23824 0.0
H59 H 0.30305 0.48563 0.06454 0.0
H60 H 0.27827 0.48512 0.01318 0.0
H61 H 0.28074 0.47463 0.11308 0.0
H62 H 0.29668 0.56378 0.20864 0.0
H63 H 0.29634 0.54479 0.28805 0.0
H64 H 0.27327 0.55928 0.26364 0.0
C65 C 1.01095 0.27526 0.12875 0.0
N66 N 1.00041 0.25718 0.12026 0.0
N67 N 1.0014 0.28791 0.183 0.0
C68 C 0.03002 0.28085 0.08235 0.0
C69 C 0.98489 0.27671 0.20773 0.0
N70 N 0.98423 0.25829 0.16948 0.0
C71 C 0.97053 0.28296 0.27488 0.0
H72 H 0.04376 0.27531 0.11606 0.0
H73 H 0.03123 0.29786 0.07514 0.0
H74 H 0.02998 0.27333 0.02232 0.0
H75 H 0.95701 0.29113 0.24876 0.0
H76 H 0.97831 0.29348 0.31791 0.0
H77 H 0.96483 0.26924 0.30828 0.0
C78 C 0.24963 0.01546 0.11572 0.0
N79 N 0.27018 1.01116 0.1117 0.0
N80 N 0.24156 1.00909 0.18773 0.0
C81 C 0.23744 0.02526 0.04904 0.0
C82 C 0.25816 1.001 0.22696 0.0
N83 N 0.27525 1.00219 0.18069 0.0
C84 C 0.25804 0.99306 0.3121 0.0
H85 H 0.23699 0.04221 0.05872 0.0
H86 H 0.22134 0.01941 0.04891 0.0
H87 H 0.24481 0.02223 0.98984 0.0
H88 H 0.25408 0.97639 0.31158 0.0
H89 H 0.24638 1.00138 0.34888 0.0
H90 H 0.27348 0.99475 0.34031 0.0
C91 C 0.50254 0.23925 0.07207 0.0
N92 N 0.50143 0.26024 0.06861 0.0
N93 N 0.50297 0.23251 0.1502 0.0
C94 C 0.50413 0.22547 -0.00017 0.0
C95 C 0.50217 0.25034 0.19338 0.0
N96 N 0.50117 0.26693 0.14407 0.0
C97 C 0.50174 0.25169 0.28373 0.0
H98 H 0.51062 0.23396 0.94755 0.0
H99 H 0.48843 0.22002 0.98361 0.0
H100 H 0.51384 0.21176 0.01353 0.0
H101 H 0.51783 0.25234 0.30656 0.0
H102 H 0.494 0.23798 0.31022 0.0
H103 H 0.49361 0.26592 0.30354 0.0
Tb104 Tb 0.02644 1.00679 0.7911 0.0
Eu105 Eu 0.99786 0.01934 0.635 0.0
C106 C 0.04694 0.01577 0.6207 0.0
C107 C 0.01348 0.05416 0.76068 0.0
C108 C 0.05316 0.98259 0.9702 0.0
C109 C 0.07671 0.95881 0.03672 0.0
C110 C 0.07296 0.97407 0.97904 0.0
C111 C 0.03716 0.97593 0.0211 0.0
C112 C 0.04094 0.96077 0.07929 0.0
C113 C 0.06071 0.95189 0.08723 0.0
C114 C 0.04985 0.99871 0.90896 0.0
O115 O 0.99507 0.99828 0.82831 0.0
O116 O 0.97727 0.02026 0.74505 0.0
O117 O 1.00058 0.98464 0.62713 0.0
O118 O 0.02139 0.97637 0.73549 0.0
C119 C 0.97803 1.00835 0.80921 0.0
O120 O 0.96889 0.01537 0.57011 0.0
O121 O 0.99247 0.03584 0.52247 0.0
O122 O 0.02935 0.01213 0.5844 0.0
O123 O 0.04755 0.01903 0.69893 0.0
O124 O 0.01823 0.03923 0.81137 0.0
O125 O 1.00821 0.0502 0.6857 0.0
C126 C 1.01079 0.97108 0.67083 0.0
O127 O 0.054 0.99366 0.83476 0.0
O128 O 0.03301 1.0097 0.9142 0.0
C129 C 0.9579 0.04448 0.49627 0.0
C130 C 0.93177 0.07767 0.45559 0.0
C131 C 0.93647 0.07345 0.53677 0.0
C132 C 0.94955 0.05702 0.55695 0.0
C133 C 0.95229 0.04782 0.41596 0.0
C134 C 0.93933 0.06427 0.39566 0.0
C135 C 0.97364 0.02891 0.51484 0.0
H136 H 0.09202 0.95208 0.04021 0.0
H137 H 0.08553 0.97909 0.94063 0.0
H138 H 0.02175 0.98235 0.01594 0.0
H139 H 0.02834 0.95597 0.11791 0.0
H140 H 0.93075 0.08336 0.58437 0.0
H141 H 0.95373 0.05456 0.61944 0.0
H142 H 0.95867 0.03825 0.3685 0.0
H143 H 0.93635 0.06722 0.3325 0.0
Tb144 Tb 0.51935 0.02418 0.78696 0.0
Eu145 Eu 0.50673 0.99274 0.64183 0.0
C146 C 0.50849 0.04207 0.61087 0.0
C147 C 0.47321 1.011 0.76355 0.0
C148 C 0.54214 0.05189 0.96532 0.0
C149 C 0.55318 0.07109 0.08315 0.0
C150 C 0.53837 0.06694 0.02414 0.0
C151 C 0.56053 0.04047 0.96749 0.0
C152 C 0.57537 0.04463 0.02619 0.0
C153 C 0.57202 0.06023 0.08393 0.0
C154 C 0.52746 0.04942 0.89894 0.0
O155 O 0.518 0.99396 0.84846 0.0
O156 O 0.518 0.97169 0.74078 0.0
O157 O 0.53925 1.00353 0.6168 0.0
O158 O 0.54912 0.01153 0.74548 0.0
C159 C 0.51897 0.97508 0.81867 0.0
O160 O 0.48366 0.97805 0.56599 0.0
O161 O 0.51585 0.96913 0.55472 0.0
O162 O 0.49994 0.02448 0.58921 0.0
O163 O 0.51863 0.04381 0.67931 0.0
O164 O 0.4858 0.02678 0.77117 0.0
O165 O 0.47979 0.99399 0.72904 0.0
C166 C 0.55382 1.00707 0.67008 0.0
O167 O 0.53528 0.05036 0.8268 0.0
O168 O 0.51409 0.03451 0.90547 0.0
C169 C 0.49444 0.966 0.43978 0.0
C170 C 0.47975 0.96829 0.28046 0.0
C171 C 0.47569 0.95082 0.32882 0.0
C172 C 0.48298 0.94973 0.40761 0.0
C173 C 0.50057 0.98237 0.38987 0.0
C174 C 0.49352 0.98335 0.3102 0.0
C175 C 0.49714 0.96682 0.52723 0.0
H176 H 0.55003 0.08301 0.12724 0.0
H177 H 0.52418 0.07587 0.02319 0.0
H178 H 0.56369 0.02883 0.92222 0.0
H179 H 0.58983 0.0362 0.02412 0.0
H180 H 0.46515 0.93885 0.30958 0.0
H181 H 0.47825 0.93692 0.44543 0.0
H182 H 0.50964 0.99499 0.41387 0.0
H183 H 0.49754 0.99672 0.27426 0.0
Tb184 Tb 0.5012 0.51317 0.79994 0.0
Eu185 Eu 0.53055 0.50197 0.64519 0.0
C186 C 0.48102 0.50283 0.62511 0.0
C187 C 0.51199 0.46609 0.75557 0.0
C188 C 0.47475 0.53471 0.98376 0.0
C189 C 0.45156 0.55882 0.05012 0.0
C190 C 0.4551 0.5436 0.99231 0.0
C191 C 0.49072 0.5408 0.03578 0.0
C192 C 0.48714 0.55591 0.09418 0.0
C193 C 0.46759 0.56534 0.10118 0.0
C194 C 0.47804 0.51915 0.92045 0.0
O195 O 0.53195 0.52295 0.83937 0.0
O196 O 0.55101 0.50232 0.75559 0.0
O197 O 0.52598 0.53656 0.63904 0.0
O198 O 0.50618 0.54433 0.75032 0.0
C199 C 0.54944 0.5137 0.82077 0.0
O200 O 0.55068 0.48104 0.5783 0.0
O201 O 0.54834 0.51302 0.54225 0.0
O202 O 0.49902 0.50221 0.58877 0.0
O203 O 0.47927 0.50487 0.70393 0.0
O204 O 0.5097 0.48029 0.81167 0.0
O205 O 0.51607 0.47143 0.68086 0.0
C206 C 0.51605 0.54994 0.68429 0.0
O207 O 0.47343 0.52482 0.84737 0.0
O208 O 0.49511 0.50847 0.92279 0.0
C209 C 0.55188 0.48838 0.4404 0.0
C210 C 0.54554 0.4696 0.29022 0.0
C211 C 0.56553 0.47549 0.31433 0.0
C212 C 0.56869 0.48473 0.38931 0.0
C213 C 0.53177 0.4844 0.41349 0.0
C214 C 0.5286 0.47511 0.33892 0.0
C215 C 0.55529 0.49477 0.52371 0.0
H216 H 0.43641 0.56594 0.05286 0.0
H217 H 0.44253 0.53902 0.95309 0.0
H218 H 0.50602 0.53408 0.03097 0.0
H219 H 0.49975 0.56035 0.13332 0.0
H220 H 0.57884 0.47162 0.27778 0.0
H221 H 0.58429 0.48801 0.40906 0.0
H222 H 0.51862 0.48732 0.45222 0.0
H223 H 0.51302 0.47062 0.32303 0.0
Tb224 Tb 1.00874 0.4968 0.80781 0.0
Eu225 Eu 0.01853 0.52542 0.65191 0.0
C226 C 0.01799 0.47648 0.63852 0.0
C227 C 0.05565 0.50975 0.77003 0.0
C228 C 0.98481 0.45896 0.94808 0.0
C229 C 0.95472 0.4388 0.91135 0.0
C230 C 0.97158 0.45097 0.88899 0.0
C231 C 0.98167 0.45386 0.02904 0.0
C232 C 0.96478 0.44181 0.05152 0.0
C233 C 0.95073 0.43467 0.99316 0.0
C234 C 1.0009 0.47387 0.92706 0.0
O235 O 0.01674 0.52741 0.85414 0.0
O236 O 1.00412 0.54564 0.74819 0.0
O237 O 0.9858 0.51433 0.63527 0.0
O238 O 0.97776 0.50626 0.76594 0.0
C239 C 1.00978 0.54486 0.82401 0.0
O240 O 0.0291 0.55469 0.60131 0.0
O241 O 0.01556 0.53159 0.52339 0.0
O242 O 0.02857 0.49302 0.61813 0.0
O243 O 1.00574 0.47685 0.70184 0.0
O244 O 0.04255 0.49683 0.80394 0.0
O245 O 0.04965 0.52318 0.71493 0.0
C246 C 0.97212 0.50988 0.6909 0.0
O247 O 0.01318 0.46865 0.86826 0.0
O248 O 0.99474 0.49301 0.92083 0.0
C249 C 0.03995 0.55409 0.46618 0.0
C250 C 0.06995 0.5636 0.34961 0.0
C251 C 0.05187 0.57555 0.35568 0.0
C252 C 0.03695 0.57078 0.41356 0.0
C253 C 0.05783 0.54198 0.46 0.0
C254 C 0.07272 0.54669 0.40209 0.0
C255 C 0.02439 0.54964 0.52759 0.0
H256 H 0.94434 0.43334 0.86489 0.0
H257 H 0.97386 0.45477 0.82602 0.0
H258 H 0.99177 0.45995 0.07528 0.0
H259 H 0.96205 0.43923 0.1151 0.0
H260 H 0.0493 0.58858 0.31587 0.0
H261 H 0.02313 0.58021 0.41768 0.0
H262 H 0.06035 0.52908 0.50054 0.0
H263 H 0.08668 0.53744 0.39989 0.0
H264 H 0.21655 0.04293 0.19471 0.0
H265 H 0.18238 0.04531 0.25908 0.0
H266 H 0.18536 0.98041 0.31775 0.0
H267 H 0.21883 0.97792 0.24971 0.0
H268 H 0.14765 0.98945 0.27587 0.0
H269 H 0.17237 0.04875 0.49558 0.0
H270 H 0.17496 0.05715 0.39311 0.0
H271 H 0.19038 0.03591 0.42955 0.0
C272 C 0.20968 0.02914 0.22008 0.0
C273 C 0.22049 1.01027 0.21775 0.0
C274 C 0.19027 0.03055 0.25821 0.0
C275 C 0.18134 0.01317 0.29591 0.0
C276 C 0.19182 0.99416 0.29029 0.0
H277 H 0.08719 0.01506 0.67459 0.0
H278 H 0.11897 0.01434 0.59451 0.0
C279 C 0.21105 0.99273 0.25165 0.0
C280 C 0.16128 0.01459 0.34176 0.0
H281 H 0.13686 0.04002 0.49591 0.0
C282 C 0.14534 1.00054 0.32395 0.0
C283 C 0.15816 0.02876 0.40587 0.0
C284 C 0.17493 0.04336 0.43286 0.0
C285 C 0.12662 1.00026 0.36763 0.0
C286 C 0.12322 0.01489 0.42999 0.0
C287 C 0.13918 0.02891 0.44792 0.0
C288 C 0.10358 0.01559 0.47876 0.0
C289 C 0.111 0.98371 0.34804 0.0
C290 C 0.08409 0.01692 0.44141 0.0
C291 C 0.06583 0.01706 0.48727 0.0
C292 C 0.06647 0.01635 0.57209 0.0
C293 C 0.08599 0.01565 0.60956 0.0
C294 C 0.10425 0.01524 0.56359 0.0
H295 H 0.11838 0.97019 0.31836 0.0
H296 H 0.10292 0.97824 0.40303 0.0
H297 H 0.09934 0.99008 0.3057 0.0
H298 H 0.08294 0.01792 0.37649 0.0
H299 H 0.05116 0.01783 0.45603 0.0
H300 H 0.53074 0.21822 0.25889 0.0
H301 H 0.53069 0.18463 0.32745 0.0
H302 H 0.47896 0.16539 0.18273 0.0
H303 H 0.47865 0.1994 0.11546 0.0
H304 H 0.4949 0.16825 0.41616 0.0
H305 H 0.52126 0.11552 0.17239 0.0
H306 H 0.52654 0.14294 0.17073 0.0
H307 H 0.50108 0.13373 0.1483 0.0
C308 C 0.5194 0.20681 0.24143 0.0
C309 C 0.50459 0.21159 0.18209 0.0
C310 C 0.51942 0.18754 0.28051 0.0
C311 C 0.50487 0.1723 0.26048 0.0
C312 C 0.49052 0.17671 0.19892 0.0
H313 H 0.48648 0.04732 0.46869 0.0
H314 H 0.48456 0.07833 0.38316 0.0
C315 C 0.49038 0.19615 0.1602 0.0
C316 C 0.50402 0.15249 0.30789 0.0
H317 H 0.51267 0.10025 0.29705 0.0
C318 C 0.49876 0.15339 0.38995 0.0
C319 C 0.50882 0.13298 0.27399 0.0
C320 C 0.51488 0.13105 0.18664 0.0
C321 C 0.49818 0.13551 0.43874 0.0
C322 C 0.50367 0.11602 0.40573 0.0
C323 C 0.50854 0.11506 0.32307 0.0
C324 C 0.50507 0.09674 0.45673 0.0
C325 C 0.49126 0.13775 0.5251 0.0
C326 C 0.51754 0.09633 0.52611 0.0
C327 C 0.51851 0.07871 0.57543 0.0
C328 C 0.5073 0.06069 0.55658 0.0
C329 C 0.49524 0.06086 0.4858 0.0
C330 C 0.49417 0.07863 0.43654 0.0
H331 H 0.48122 0.15155 0.53311 0.0
H332 H 0.48266 0.12391 0.54586 0.0
H333 H 0.50501 0.13978 0.56417 0.0
H334 H 0.52666 0.1097 0.54229 0.0
H335 H 0.52823 0.07925 0.62848 0.0
H336 H 0.3265 0.54316 0.16343 0.0
H337 H 0.35864 0.53752 0.23702 0.0
H338 H 0.33825 0.47628 0.30194 0.0
H339 H 0.3052 0.48274 0.23322 0.0
H340 H 0.35412 0.49215 0.42668 0.0
H341 H 0.41007 0.50881 0.18578 0.0
H342 H 0.39354 0.53072 0.19924 0.0
H343 H 0.38283 0.50648 0.1655 0.0
C344 C 0.32892 0.52845 0.19312 0.0
C345 C 0.31322 0.51344 0.19258 0.0
C346 C 0.34752 0.52508 0.2344 0.0
C347 C 0.35138 0.50626 0.27434 0.0
C348 C 0.33591 0.49092 0.27162 0.0
H349 H 0.47625 0.48585 0.47439 0.0
H350 H 0.44496 0.48461 0.39162 0.0
C351 C 0.31706 0.49449 0.23141 0.0
C352 C 0.37082 0.50326 0.32312 0.0
H353 H 0.42313 0.51136 0.32148 0.0
C354 C 0.36922 0.49611 0.403 0.0
C355 C 0.39082 0.50795 0.29291 0.0
C356 C 0.39442 0.51367 0.20588 0.0
C357 C 0.38666 0.49418 0.45359 0.0
C358 C 0.4064 0.50042 0.42531 0.0
C359 C 0.40811 0.50691 0.34459 0.0
C360 C 0.42541 0.50042 0.4779 0.0
C361 C 0.38361 0.48498 0.53631 0.0
C362 C 0.42526 0.50976 0.5545 0.0
C363 C 0.44308 0.51 0.60288 0.0
C364 C 0.46181 0.5015 0.57516 0.0
C365 C 0.46212 0.49251 0.49796 0.0
C366 C 0.44416 0.49185 0.45032 0.0
H367 H 0.37015 0.47436 0.53744 0.0
H368 H 0.39747 0.47627 0.55655 0.0
H369 H 0.38043 0.49756 0.57995 0.0
H370 H 0.41144 0.51726 0.5767 0.0
H371 H 0.44231 0.51742 0.66126 0.0
H372 H 0.97733 0.32191 0.18077 0.0
H373 H 0.98359 0.3547 0.24971 0.0
H374 H 0.04414 0.33324 0.31964 0.0
H375 H 0.03742 0.29998 0.25244 0.0
H376 H 0.02487 0.34927 0.44579 0.0
H377 H 0.0161 0.4051 0.1964 0.0
H378 H 0.9938 0.38888 0.20486 0.0
H379 H 0.01845 0.37767 0.17906 0.0
C380 C 0.99213 0.32439 0.20951 0.0
C381 C 1.00692 0.30843 0.21079 0.0
C382 C 0.99579 0.34323 0.24865 0.0
C383 C 0.0145 0.34681 0.28938 0.0
C384 C 0.02961 0.33106 0.28847 0.0
H385 H 0.04151 0.46905 0.50265 0.0
H386 H 0.04226 0.4378 0.41911 0.0
C387 C 0.02589 0.31211 0.24938 0.0
C388 C 0.01749 0.36622 0.33781 0.0
H389 H 0.01295 0.41899 0.33024 0.0
C390 C 0.02248 0.3645 0.42004 0.0
C391 C 0.01467 0.38629 0.30488 0.0
C392 C 1.01068 0.38962 0.21628 0.0
C393 C 0.024 0.38201 0.47029 0.0
C394 C 0.01999 0.40198 0.43838 0.0
C395 C 0.01575 0.40378 0.35554 0.0
C396 C 0.01976 0.42106 0.49006 0.0
C397 C 0.03011 0.37888 0.55715 0.0
C398 C 1.0067 0.4224 0.55761 0.0
C399 C 1.00632 0.44022 0.60575 0.0
C400 C 0.01883 0.4574 0.58739 0.0
C401 C 0.03172 0.45617 0.51913 0.0
C402 C 0.03213 0.43826 0.47104 0.0
H403 H 0.03894 0.36428 0.56543 0.0
H404 H 0.03965 0.39191 0.57949 0.0
H405 H 0.01596 0.37787 0.5947 0.0
H406 H 0.99655 0.4097 0.57279 0.0
H407 H 0.99603 0.44055 0.65716 0.0
H408 H 0.82979 0.0334 0.32997 0.0
H409 H 0.86207 0.0292 0.25395 0.0
H410 H 0.83145 0.9871 0.0923 0.0
H411 H 0.79925 0.99101 0.17032 0.0
H412 H 0.87107 0.97458 0.12098 0.0
H413 H 0.87151 0.05773 0.04207 0.0
H414 H 0.87182 0.05338 0.14874 0.0
H415 H 0.84973 0.04559 0.09035 0.0
C416 C 0.83014 0.02296 0.27908 0.0
C417 C 0.81209 0.01248 0.25613 0.0
C418 C 0.84851 0.02073 0.23497 0.0
C419 C 0.84922 1.00825 0.16565 0.0
C420 C 0.8314 0.99694 0.14502 0.0
H421 H 0.9392 0.02353 0.77913 0.0
H422 H 0.90862 0.02218 0.86489 0.0
C423 C 0.81302 0.99905 0.18976 0.0
C424 C 0.86821 1.00767 0.11339 0.0
H425 H 0.90145 0.03855 0.00715 0.0
C426 C 0.87768 0.98858 0.09603 0.0
C427 C 0.87682 0.02584 0.07926 0.0
C428 C 0.86685 0.04676 0.09028 0.0
C429 C 0.8955 0.98722 0.04696 0.0
C430 C 0.90449 1.00548 0.01512 0.0
C431 C 0.89486 0.02451 0.03185 0.0
C432 C 0.92334 1.00532 0.9619 0.0
C433 C 0.90416 0.96612 0.02799 0.0
C434 C 0.94213 0.99633 0.98701 0.0
C435 C 0.95978 0.99695 0.93736 0.0
C436 C 0.9592 1.0068 0.86161 0.0
C437 C 0.94038 0.01579 0.83684 0.0
C438 C 0.92278 0.01506 0.88614 0.0
H439 H 0.89245 0.9538 0.03699 0.0
H440 H 0.90984 0.96534 0.96496 0.0
H441 H 0.91732 0.96284 0.06892 0.0
H442 H 0.9433 0.98917 0.04578 0.0
H443 H 0.97398 0.99001 0.95903 0.0
H444 H 0.48569 0.82482 0.32468 0.0
H445 H 0.48998 0.85733 0.25019 0.0
H446 H 0.54017 0.83033 0.11581 0.0
H447 H 0.53559 0.79757 0.18983 0.0
H448 H 0.54654 0.87379 0.16842 0.0
H449 H 0.47201 0.86219 0.00914 0.0
H450 H 0.47085 0.86047 0.11712 0.0
H451 H 0.48517 0.84149 0.06128 0.0
C452 C 0.49774 0.82589 0.27968 0.0
C453 C 0.51021 0.80857 0.26286 0.0
C454 C 0.50017 0.84448 0.23695 0.0
C455 C 0.5152 0.84632 0.1762 0.0
C456 C 0.52842 0.82938 0.16209 0.0
H457 H 0.51844 0.93396 0.7781 0.0
H458 H 0.51831 0.90383 0.8666 0.0
C459 C 0.5259 0.81067 0.20474 0.0
C460 C 0.51635 0.86553 0.12522 0.0
H461 H 0.48906 0.89391 0.9867 0.0
C462 C 0.53397 0.87819 0.12876 0.0
C463 C 0.50004 0.87133 0.07275 0.0
C464 C 0.48099 0.85813 0.06398 0.0
C465 C 0.53558 0.89648 0.08225 0.0
C466 C 0.51914 0.9024 0.03056 0.0
C467 C 0.50163 0.88959 0.02654 0.0
C468 C 0.52008 0.92124 0.97738 0.0
C469 C 0.55506 0.90913 0.08745 0.0
C470 C 0.52108 0.94136 0.00948 0.0
C471 C 0.52109 0.95884 0.95856 0.0
C472 C 0.52012 0.95667 0.87409 0.0
C473 C 0.5193 0.93645 0.84249 0.0
C474 C 0.51917 0.91907 0.89326 0.0
H475 H 0.56783 0.90046 0.11694 0.0
H476 H 0.56018 0.91404 0.02653 0.0
H477 H 0.55196 0.92326 0.12331 0.0
H478 H 0.52145 0.94359 0.07409 0.0
H479 H 0.52159 0.97406 0.98551 0.0
H480 H 0.70309 0.47471 0.28044 0.0
H481 H 0.67029 0.48121 0.21111 0.0
H482 H 0.68931 0.54387 0.16319 0.0
H483 H 0.72256 0.53699 0.23058 0.0
H484 H 0.638 0.50687 0.22648 0.0
H485 H 0.67787 0.52391 0.93808 0.0
H486 H 0.69135 0.5138 0.02464 0.0
H487 H 0.68483 0.54081 0.01919 0.0
C488 C 0.7001 0.48995 0.25606 0.0
C489 C 0.71541 0.5053 0.2605 0.0
C490 C 0.68134 0.49368 0.21631 0.0
C491 C 0.67734 0.5129 0.17978 0.0
C492 C 0.69212 0.52873 0.18877 0.0
H493 H 0.5539 0.53661 0.96049 0.0
H494 H 0.58413 0.53833 0.04953 0.0
C495 C 0.711 0.52493 0.22841 0.0
C496 C 0.6582 0.51575 0.12955 0.0
H497 H 0.64158 0.52623 0.93786 0.0
C498 C 0.63879 0.51126 0.16349 0.0
C499 C 0.65909 0.52114 0.04676 0.0
C500 C 0.67939 0.52501 0.00459 0.0
C501 C 0.62045 0.51176 0.11729 0.0
C502 C 0.62134 0.51732 0.03466 0.0
C503 C 0.64073 0.5221 0.0011 0.0
C504 C 0.60274 0.51688 0.98036 0.0
C505 C 0.60045 0.50541 0.15683 0.0
C506 C 0.60311 0.50483 0.90998 0.0
C507 C 0.58597 0.50406 0.85841 0.0
C508 C 0.56783 0.51534 0.87537 0.0
C509 C 0.5675 0.52763 0.94541 0.0
C510 C 0.58478 0.52848 0.99696 0.0
H511 H 0.60319 0.49683 0.21384 0.0
H512 H 0.59129 0.51942 0.17146 0.0
H513 H 0.59112 0.49556 0.11605 0.0
H514 H 0.61667 0.49575 0.8952 0.0
H515 H 0.58695 0.49439 0.80536 0.0
H516 H 0.03649 0.69439 0.33103 0.0
H517 H 0.03181 0.66251 0.25278 0.0
H518 H 0.99239 0.69539 0.08683 0.0
H519 H 0.99734 0.72735 0.1651 0.0
H520 H 0.99648 0.63968 0.20698 0.0
H521 H 0.03721 0.67096 0.93904 0.0
H522 H 0.03834 0.6833 0.03637 0.0
H523 H 0.01583 0.68626 0.97403 0.0
C524 C 0.02665 0.69468 0.27832 0.0
C525 C 0.01728 0.71329 0.25407 0.0
C526 C 0.02398 0.67648 0.23354 0.0
C527 C 0.01203 0.6765 0.16279 0.0
C528 C 1.00198 0.69496 0.14022 0.0
H529 H 0.9932 0.58293 0.78683 0.0
H530 H 0.99266 0.61421 0.86975 0.0
C531 C 1.00459 0.71317 0.1854 0.0
C532 C 1.01061 0.65735 0.11209 0.0
H533 H 0.02283 0.63765 0.92663 0.0
C534 C 1.00223 0.63926 0.14564 0.0
C535 C 0.0181 0.65665 0.03189 0.0
C536 C 0.02805 0.67524 0.99312 0.0
C537 C 1.00085 0.62071 0.10122 0.0
C538 C 1.00858 0.61991 0.02122 0.0
C539 C 0.01686 0.63808 0.98763 0.0
C540 C 1.00845 0.60046 0.97156 0.0
C541 C 0.99064 0.60229 0.1402 0.0
C542 C 0.01766 0.58211 3e-05 0.0
C543 C 0.01782 0.56409 0.95283 0.0
C544 C 1.00905 0.56393 0.87513 0.0
C545 C 1.00005 0.58236 0.84631 0.0
C546 C 0.99976 0.60034 0.89381 0.0
H547 H 0.97987 0.60709 0.18887 0.0
H548 H 0.98191 0.59302 0.09551 0.0
H549 H 1.00268 0.59229 0.16774 0.0
H550 H 0.02505 0.58177 0.05849 0.0
H551 H 0.02511 0.55034 0.97697 0.0
H552 H 0.99482 0.22035 0.21936 0.0
H553 H 0.97159 0.19151 0.24843 0.0
H554 H 0.91902 0.22993 0.19091 0.0
H555 H 0.94257 0.25884 0.16005 0.0
H556 H 0.91598 0.20758 0.34019 0.0
H557 H 0.93748 0.15658 0.08788 0.0
H558 H 0.96008 0.16597 0.1383 0.0
H559 H 0.94315 0.18393 0.08775 0.0
C560 C 0.97834 0.22246 0.21187 0.0
C561 C 0.97036 0.24155 0.18689 0.0
C562 C 0.9651 0.20607 0.22824 0.0
C563 C 0.94365 0.20853 0.22023 0.0
C564 C 0.93556 0.22772 0.19647 0.0
H565 H 0.90354 0.08491 0.33463 0.0
H566 H 0.89577 0.1185 0.27343 0.0
C567 C 0.9489 0.24415 0.17935 0.0
C568 C 0.93005 0.19109 0.24162 0.0
H569 H 0.92695 0.1392 0.21242 0.0
C570 C 0.91776 0.1927 0.31095 0.0
C571 C 0.93187 0.17187 0.20209 0.0
C572 C 0.94369 0.16955 0.1243 0.0
C573 C 0.90939 0.175 0.34733 0.0
C574 C 0.91378 0.15538 0.31394 0.0
C575 C 0.92378 0.15419 0.23898 0.0
C576 C 0.91257 0.13617 0.36237 0.0
C577 C 0.89705 0.17739 0.42376 0.0
C578 C 0.92384 0.13502 0.43448 0.0
C579 C 0.92844 0.11594 0.46904 0.0
C580 C 0.92199 0.09755 0.43185 0.0
C581 C 0.90902 0.0988 0.36393 0.0
C582 C 0.90443 0.11798 0.32924 0.0
H583 H 0.8876 0.19174 0.42166 0.0
H584 H 0.88669 0.16399 0.43414 0.0
H585 H 0.90778 0.17878 0.4756 0.0
H586 H 0.93081 0.14872 0.46015 0.0
H587 H 0.93867 0.11561 0.52063 0.0
H588 H 0.29208 0.96447 0.16688 0.0
H589 H 0.32943 0.95708 0.16115 0.0
H590 H 0.3421 0.02062 0.22209 0.0
H591 H 0.30495 0.02759 0.22982 0.0
H592 H 0.35756 0.97587 0.05642 0.0
H593 H 0.37945 0.98901 0.37461 0.0
H594 H 0.353 0.98527 0.34373 0.0
H595 H 0.36499 1.01023 0.33366 0.0
C596 C 0.303 0.97644 0.18276 0.0
C597 C 0.29598 0.9964 0.20091 0.0
C598 C 0.32419 0.97239 0.17793 0.0
C599 C 0.33848 0.98829 0.1916 0.0
C600 C 0.33135 1.00803 0.21295 0.0
H601 H 0.46547 1.00627 0.23037 0.0
H602 H 0.43176 0.01183 0.17237 0.0
C603 C 0.31024 0.01199 0.21824 0.0
C604 C 0.36085 0.98469 0.18101 0.0
H605 H 0.40673 0.98961 0.27875 0.0
C606 C 0.36839 0.97868 0.10503 0.0
C607 C 0.37483 0.98824 0.24467 0.0
C608 C 0.36765 0.99333 0.32893 0.0
C609 C 0.38974 0.97686 0.09054 0.0
C610 C 0.40367 0.98136 0.15347 0.0
C611 C 0.39601 0.98678 0.22975 0.0
C612 C 0.42636 0.97963 0.14561 0.0
C613 C 0.39722 0.97049 0.00826 0.0
C614 C 0.43553 0.96004 0.14005 0.0
C615 C 0.45536 0.95682 0.17114 0.0
C616 C 0.46568 0.97296 0.21141 0.0
C617 C 0.458 0.99322 0.20215 0.0
C618 C 0.4385 0.9965 0.16896 0.0
H619 H 0.3852 0.97302 0.96147 0.0
H620 H 0.41139 0.97908 0.99115 0.0
H621 H 0.40109 0.95378 0.00928 0.0
H622 H 0.42654 0.9468 0.12129 0.0
H623 H 0.46133 0.94117 0.173 0.0
H624 H 0.47093 0.29526 0.13597 0.0
H625 H 0.47615 0.33278 0.12914 0.0
H626 H 0.54026 0.3242 0.19318 0.0
H627 H 0.53507 0.2866 0.1953 0.0
H628 H 0.48795 0.36193 0.22658 0.0
H629 H 0.54506 0.35468 0.984 0.0
H630 H 0.53416 0.33226 0.03184 0.0
H631 H 0.55648 0.34458 0.07427 0.0
C632 C 0.48596 0.30158 0.1503 0.0
C633 C 0.50266 0.28834 0.16563 0.0
C634 C 0.48901 0.3229 0.14572 0.0
C635 C 0.50879 0.33123 0.15749 0.0
C636 C 0.52503 0.31805 0.18095 0.0
H637 H 0.56983 0.43618 0.26111 0.0
H638 H 0.5589 0.40455 0.1972 0.0
C639 C 0.52202 0.2967 0.184 0.0
C640 C 0.51245 0.35363 0.14516 0.0
H641 H 0.54507 0.3881 0.0555 0.0
C642 C 0.5002 0.3677 0.18812 0.0
C643 C 0.52825 0.36119 0.09387 0.0
C644 C 0.54157 0.34729 0.04292 0.0
C645 C 0.5045 0.38893 0.18699 0.0
C646 C 0.52115 0.39628 0.13958 0.0
C647 C 0.53231 0.38242 0.09162 0.0
C648 C 0.52997 0.41701 0.15308 0.0
C649 C 0.49219 0.40302 0.24143 0.0
C650 C 0.51816 0.43504 0.14308 0.0
C651 C 0.52443 0.4534 0.18002 0.0
C652 C 0.54261 0.45383 0.22662 0.0
C653 C 0.55575 0.43651 0.22595 0.0
C654 C 0.54944 0.41825 0.1896 0.0
H655 H 0.48153 0.39434 0.28149 0.0
H656 H 0.50268 0.41239 0.27961 0.0
H657 H 0.4828 0.41376 0.20423 0.0
H658 H 0.50337 0.43449 0.11264 0.0
H659 H 0.51425 0.46669 0.17782 0.0
H660 H 0.25171 0.56763 0.04428 0.0
H661 H 0.2183 0.58599 0.05313 0.0
H662 H 0.20258 0.54965 0.26252 0.0
H663 H 0.23572 0.53146 0.25271 0.0
H664 H 0.17958 0.56616 0.04356 0.0
H665 H 0.18677 0.60859 0.32988 0.0
H666 H 0.20899 0.59972 0.27352 0.0
H667 H 0.19568 0.58249 0.34119 0.0
C668 C 0.24121 0.56416 0.09321 0.0
C669 C 0.24607 0.54856 0.14878 0.0
C670 C 0.22224 0.57448 0.09806 0.0
C671 C 0.2082 0.56942 0.15937 0.0
C672 C 0.21345 0.55418 0.21612 0.0
H673 H 0.09254 0.53789 0.25371 0.0
H674 H 0.12429 0.54623 0.18236 0.0
C675 C 0.23225 0.54383 0.21078 0.0
C676 C 0.18715 0.57822 0.16092 0.0
H677 H 0.15216 0.59598 0.29708 0.0
C678 C 0.17359 0.57333 0.09781 0.0
C679 C 0.17947 0.58812 0.2305 0.0
C680 C 0.19358 0.59524 0.29717 0.0
C681 C 0.15217 0.57577 0.10704 0.0
C682 C 0.14434 0.58285 0.18158 0.0
C683 C 0.1581 0.59016 0.24034 0.0
C684 C 0.12273 0.5791 0.20653 0.0
C685 C 0.13807 0.56983 0.03865 0.0
C686 C 0.11111 0.5948 0.24339 0.0
C687 C 0.0931 0.58996 0.28581 0.0
C688 C 0.08655 0.56932 0.29242 0.0
C689 C 0.09738 0.55389 0.25052 0.0
C690 C 0.11535 0.55872 0.20835 0.0
H691 H 0.14587 0.57188 0.97956 0.0
H692 H 0.13384 0.55331 0.04432 0.0
H693 H 0.12365 0.57915 0.03943 0.0
H694 H 0.11665 0.61059 0.2435 0.0
H695 H 0.08512 0.60217 0.31786 0.0
H696 H 0.05555 0.7788 0.19735 0.0
H697 H 0.07211 0.8126 0.19375 0.0
H698 H 0.07594 0.8125 0.45326 0.0
H699 H 0.05875 0.77866 0.45624 0.0
H700 H 0.05363 0.84404 0.39996 0.0
H701 H 0.12559 0.84271 0.22434 0.0
H702 H 0.10626 0.82841 0.17123 0.0
H703 H 0.11488 0.81957 0.26878 0.0
C704 C 0.06094 0.78557 0.25311 0.0
C705 C 0.05609 0.77629 0.32693 0.0
C706 C 0.07043 0.80487 0.25126 0.0
C707 C 0.0754 0.81508 0.32334 0.0
C708 C 0.07228 0.80488 0.39704 0.0
H709 H 0.09495 0.94445 0.1813 0.0
H710 H 0.10206 0.91363 0.26299 0.0
C711 C 0.06263 0.78559 0.39879 0.0
C712 C 0.07936 0.83759 0.32105 0.0
H713 H 0.10344 0.8737 0.20491 0.0
C714 C 0.06506 0.8506 0.35967 0.0
C715 C 0.09442 0.84633 0.26969 0.0
C716 C 0.11128 0.83347 0.23199 0.0
C717 C 0.06391 0.87166 0.34092 0.0
C718 C 0.07712 0.87977 0.28105 0.0
C719 C 0.09301 0.86736 0.24969 0.0
C720 C 0.07238 0.89951 0.24011 0.0
C721 C 0.04771 0.88469 0.38215 0.0
C722 C 0.05337 0.9017 0.20043 0.0
C723 C 0.04938 0.91903 0.15303 0.0
C724 C 0.06435 0.93456 0.1442 0.0
C725 C 0.0832 0.93262 0.18602 0.0
C726 C 0.08724 0.91514 0.23315 0.0
H727 H 0.04679 0.88049 0.44679 0.0
H728 H 0.05101 0.90148 0.37754 0.0
H729 H 0.03238 0.88152 0.35487 0.0
H730 H 0.04188 0.88957 0.20345 0.0
H731 H 0.03489 0.91976 0.12053 0.0
H732 H 0.75149 0.06715 0.41946 0.0
H733 H 0.71854 0.08619 0.40618 0.0
H734 H 0.70553 0.05257 0.18747 0.0
H735 H 0.73843 0.03426 0.20037 0.0
H736 H 0.69359 0.09327 0.17789 0.0
H737 H 0.66507 0.05695 0.46183 0.0
H738 H 0.68695 0.07395 0.46692 0.0
H739 H 0.68942 0.04945 0.41758 0.0
C740 C 0.7417 0.06446 0.36768 0.0
C741 C 0.74721 0.04954 0.31038 0.0
C742 C 0.7229 0.0751 0.36046 0.0
C743 C 0.70947 0.07061 0.29634 0.0
C744 C 0.71568 0.0564 0.23716 0.0
H745 H 0.59846 0.03446 0.16419 0.0
H746 H 0.63005 0.04403 0.23429 0.0
C747 C 0.73439 0.04597 0.24419 0.0
C748 C 0.68812 0.07878 0.29251 0.0
H749 H 0.64035 0.06888 0.37036 0.0
C750 C 0.6819 0.08854 0.22097 0.0
C751 C 0.673 0.07278 0.34952 0.0
C752 C 0.67879 0.06263 0.42829 0.0
C753 C 0.66098 0.09005 0.2001 0.0
C754 C 0.64592 0.08204 0.25344 0.0
C755 C 0.65202 0.07467 0.32932 0.0
C756 C 0.62491 0.07701 0.22453 0.0
C757 C 0.65533 0.09822 0.11772 0.0
C758 C 0.61123 0.09239 0.1978 0.0
C759 C 0.59334 0.08693 0.15567 0.0
C760 C 0.58881 0.06601 0.14044 0.0
C761 C 0.60173 0.05069 0.17327 0.0
C762 C 0.61965 0.05615 0.21445 0.0
H763 H 0.66915 0.10202 0.08092 0.0
H764 H 0.64597 0.08666 0.08451 0.0
H765 H 0.6459 0.11246 0.12421 0.0
H766 H 0.61491 0.10857 0.20589 0.0
H767 H 0.58373 0.09913 0.13112 0.0
H768 H 0.47581 0.73986 0.19403 0.0
H769 H 0.45976 0.70577 0.19058 0.0
H770 H 0.45173 0.70769 0.44849 0.0
H771 H 0.4682 0.74189 0.45139 0.0
H772 H 0.47533 0.67564 0.40165 0.0
H773 H 0.40514 0.67643 0.21451 0.0
H774 H 0.42526 0.69052 0.1648 0.0
H775 H 0.41538 0.69963 0.25995 0.0
C776 C 0.4696 0.73341 0.24914 0.0
C777 C 0.47294 0.74338 0.32276 0.0
C778 C 0.46044 0.71395 0.24739 0.0
C779 C 0.45439 0.70423 0.31932 0.0
C780 C 0.4562 0.71496 0.39237 0.0
H781 H 0.43317 0.57433 0.19218 0.0
H782 H 0.42655 0.60592 0.26939 0.0
C783 C 0.46543 0.73446 0.39402 0.0
C784 C 0.45036 0.68174 0.31868 0.0
H785 H 0.42673 0.64504 0.20452 0.0
C786 C 0.46418 0.66889 0.3607 0.0
C787 C 0.43566 0.6728 0.26644 0.0
C788 C 0.41939 0.68562 0.22464 0.0
C789 C 0.46519 0.64765 0.34494 0.0
C790 C 0.45228 0.63922 0.28483 0.0
C791 C 0.43689 0.6516 0.24964 0.0
C792 C 0.4568 0.61894 0.2479 0.0
C793 C 0.48085 0.63476 0.38983 0.0
C794 C 0.47602 0.61582 0.21068 0.0
C795 C 0.47974 0.59804 0.16574 0.0
C796 C 0.46431 0.58297 0.15697 0.0
C797 C 0.44529 0.58578 0.19683 0.0
C798 C 0.44152 0.60371 0.24145 0.0
H799 H 0.48152 0.63963 0.45374 0.0
H800 H 0.4772 0.61801 0.38786 0.0
H801 H 0.49639 0.63729 0.36332 0.0
H802 H 0.48786 0.62761 0.21329 0.0
H803 H 0.49439 0.59665 0.13467 0.0
H804 H 0.76788 0.442 0.29037 0.0
H805 H 0.79798 0.42039 0.25475 0.0
H806 H 0.83358 0.47555 0.20973 0.0
H807 H 0.80361 0.49688 0.2446 0.0
H808 H 0.82033 0.41961 0.10916 0.0
H809 H 0.87061 0.4422 0.3625 0.0
H810 H 0.84296 0.44621 0.36382 0.0
H811 H 0.85965 0.46451 0.3144 0.0
C812 C 0.78221 0.44931 0.27262 0.0
C813 C 0.78373 0.47094 0.27051 0.0
C814 C 0.79931 0.43707 0.25283 0.0
C815 C 0.81808 0.44642 0.23153 0.0
C816 C 0.81939 0.46806 0.22816 0.0
H817 H 0.91282 0.44289 0.92975 0.0
H818 H 0.8796 0.43598 0.99084 0.0
C819 C 0.80234 0.48021 0.24753 0.0
C820 C 0.83624 0.43394 0.20843 0.0
H821 H 0.8882 0.4323 0.23838 0.0
C822 C 0.83512 0.42183 0.13858 0.0
C823 C 0.85537 0.43632 0.24823 0.0
C824 C 0.85718 0.44784 0.32693 0.0
C825 C 0.8531 0.41403 0.10239 0.0
C826 C 0.87253 0.41883 0.13646 0.0
C827 C 0.87335 0.42883 0.21141 0.0
C828 C 0.89188 0.41764 0.08912 0.0
C829 C 0.85118 0.40173 0.02572 0.0
C830 C 0.90993 0.40922 0.12275 0.0
C831 C 0.92916 0.41322 0.08765 0.0
C832 C 0.93061 0.42588 0.01887 0.0
C833 C 0.91233 0.43283 0.98187 0.0
C834 C 0.89319 0.42881 0.01679 0.0
H835 H 0.83693 0.3922 0.02656 0.0
H836 H 0.84997 0.4125 0.97384 0.0
H837 H 0.86473 0.39145 0.01634 0.0
H838 H 0.90926 0.40065 0.17879 0.0
H839 H 0.94295 0.40739 0.11691 0.0
H840 H 0.03532 0.23371 0.11277 0.0
H841 H 0.03934 0.20039 0.04269 0.0
H842 H 0.9782 0.20713 0.94291 0.0
H843 H 0.97438 0.24036 0.01217 0.0
H844 H 0.98369 0.1694 0.01678 0.0
H845 H 0.0486 0.18414 0.8064 0.0
H846 H 0.05375 0.19073 0.90956 0.0
H847 H 0.03435 0.20474 0.85448 0.0
C848 C 0.02308 0.22836 0.07363 0.0
C849 C 1.00461 0.23976 0.06736 0.0
C850 C 0.0253 0.20924 0.03381 0.0
C851 C 1.00911 0.20111 0.98672 0.0
C852 C 0.99096 0.21292 0.97847 0.0
H853 H 1.0072 0.09059 0.676 0.0
H854 H 1.00633 0.12606 0.72891 0.0
C855 C 0.98882 0.23199 0.01774 0.0
C856 C 1.0103 0.17981 0.95069 0.0
H857 H 0.03741 0.14929 0.81867 0.0
C858 C 0.99545 0.16506 0.97346 0.0
C859 C 0.02547 0.17402 0.89328 0.0
C860 C 0.04137 0.18925 0.86373 0.0
C861 C 0.99553 0.14482 0.94185 0.0
C862 C 1.01096 0.13887 0.88582 0.0
C863 C 0.02562 0.15369 0.86185 0.0
C864 C 0.01217 0.11729 0.85262 0.0
C865 C 0.97887 0.13 0.96809 0.0
C866 C 0.01604 0.10041 0.90385 0.0
C867 C 0.01666 0.08014 0.87375 0.0
C868 C 0.01338 0.07603 0.79128 0.0
C869 C 1.00975 0.09301 0.73974 0.0
C870 C 1.00929 0.11337 0.76997 0.0
H871 H 0.96546 0.13819 0.99514 0.0
H872 H 0.97334 0.12062 0.91649 0.0
H873 H 0.98526 0.1193 0.01409 0.0
H874 H 0.0186 0.10291 0.96756 0.0
H875 H 0.01955 0.06763 0.91569 0.0
H876 H 0.29086 0.04647 0.08082 0.0
H877 H 0.32426 0.04875 0.01049 0.0
H878 H 0.31865 0.9849 0.94022 0.0
H879 H 0.28519 0.98301 0.00866 0.0
H880 H 0.35852 0.02742 0.05011 0.0
H881 H 0.3399 1.00872 0.73359 0.0
H882 H 0.32024 0.01555 0.80592 0.0
H883 H 0.33034 0.98961 0.80234 0.0
C884 C 0.29626 0.03335 0.04623 0.0
C885 C 0.28505 0.01477 0.04787 0.0
C886 C 0.31558 0.03448 0.00741 0.0
C887 C 0.32414 0.01706 0.96885 0.0
C888 C 0.31238 0.99879 0.96711 0.0
H889 H 0.44327 0.9808 0.76516 0.0
H890 H 0.40786 0.98305 0.8163 0.0
C891 C 0.29307 0.99773 0.00563 0.0
C892 C 0.34592 0.01738 0.93678 0.0
H893 H 0.37545 1.00607 0.77113 0.0
C894 C 0.36215 0.02303 0.98869 0.0
C895 C 0.35093 0.01144 0.85692 0.0
C896 C 0.33442 1.00619 0.79625 0.0
C897 C 0.38304 0.02241 0.96393 0.0
C898 C 0.38807 0.01622 0.88425 0.0
C899 C 0.37181 1.01073 0.83223 0.0
C900 C 0.40999 0.01499 0.85379 0.0
C901 C 0.39953 0.02771 0.02471 0.0
C902 C 0.42324 0.03221 0.85645 0.0
C903 C 0.44364 0.03093 0.82736 0.0
C904 C 0.45137 0.01246 0.79385 0.0
C905 C 0.438 0.99531 0.79034 0.0
C906 C 0.41763 0.99659 0.81965 0.0
H907 H 0.39386 0.02582 0.08747 0.0
H908 H 0.41349 0.01793 0.01679 0.0
H909 H 0.40408 0.0441 0.01673 0.0
H910 H 0.41777 0.04678 0.88032 0.0
H911 H 0.45334 0.04452 0.83086 0.0
H912 H 0.46939 0.2781 0.99148 0.0
H913 H 0.47093 0.31112 0.91886 0.0
H914 H 0.5375 0.30829 0.92435 0.0
H915 H 0.53568 0.27573 0.9991 0.0
H916 H 0.48398 0.3449 0.98115 0.0
H917 H 0.53186 0.33343 0.71009 0.0
H918 H 0.52181 0.31196 0.76722 0.0
H919 H 0.54517 0.32479 0.79858 0.0
C920 C 0.48431 0.28409 0.97352 0.0
C921 C 0.50241 0.27414 -6e-05 0.0
C922 C 0.48523 0.3032 0.93307 0.0
C923 C 0.50434 0.31272 0.91636 0.0
C924 C 0.52247 0.3016 0.9355 0.0
H925 H 0.51599 0.44874 0.90623 0.0
H926 H 0.51482 0.41228 0.94436 0.0
C927 C 0.5215 0.28272 0.9776 0.0
C928 C 0.50518 0.33504 0.88885 0.0
H929 H 0.52832 0.36844 0.75599 0.0
C930 C 0.49353 0.34991 0.93118 0.0
C931 C 0.51757 0.34201 0.82367 0.0
C932 C 0.52963 0.32716 0.77183 0.0
C933 C 0.49398 0.37115 0.9112 0.0
C934 C 0.50696 0.37825 0.84791 0.0
C935 C 0.51845 0.36336 0.80493 0.0
C936 C 0.50852 0.40084 0.82424 0.0
C937 C 0.47996 0.38558 0.95727 0.0
C938 C 0.5065 0.40705 0.74309 0.0
C939 C 0.50777 0.42805 0.72065 0.0
C940 C 0.51091 0.4436 0.77872 0.0
C941 C 0.5132 0.43737 0.85971 0.0
C942 C 0.51233 0.41636 0.88187 0.0
H943 H 0.46663 0.37721 0.9839 0.0
H944 H 0.48872 0.39262 0.00762 0.0
H945 H 0.47392 0.39813 0.91809 0.0
H946 H 0.50369 0.39563 0.69677 0.0
H947 H 0.506 0.43212 0.65774 0.0
H948 H 0.24959 0.53451 0.95416 0.0
H949 H 0.21489 0.53135 0.89579 0.0
H950 H 0.19984 0.48502 0.07317 0.0
H951 H 0.23442 0.48892 0.1331 0.0
H952 H 0.19197 0.50167 0.82832 0.0
H953 H 0.154 0.52536 0.11299 0.0
H954 H 0.18158 0.52687 0.09884 0.0
H955 H 0.16958 0.50259 0.12305 0.0
C956 C 0.23899 0.52329 0.97919 0.0
C957 C 0.24477 0.51179 0.04747 0.0
C958 C 0.21908 0.52158 0.94627 0.0
C959 C 0.20433 0.50832 0.98095 0.0
C960 C 0.21058 0.49581 0.04628 0.0
H961 H 0.07332 0.48492 0.88573 0.0
H962 H 0.10899 0.48459 0.93371 0.0
C963 C 0.23051 0.49767 0.07957 0.0
C964 C 0.18245 0.50814 0.94991 0.0
H965 H 0.1319 0.51488 0.00647 0.0
C966 C 0.17888 0.50464 0.86741 0.0
C967 C 0.16516 0.51211 0.00029 0.0
C968 C 0.16771 0.51716 0.08848 0.0
C969 C 0.15873 0.50458 0.83451 0.0
C970 C 0.14146 0.50848 0.88489 0.0
C971 C 0.14501 0.51193 0.96742 0.0
C972 C 0.1196 0.50872 0.85365 0.0
C973 C 0.15613 0.49983 0.74618 0.0
C974 C 0.1133 0.52251 0.79257 0.0
C975 C 0.09273 0.52274 0.76459 0.0
C976 C 0.07783 0.50923 0.79714 0.0
C977 C 0.08422 0.49552 0.8585 0.0
C978 C 0.10472 0.49533 0.88643 0.0
H979 H 0.16991 0.49185 0.72106 0.0
H980 H 0.14234 0.49 0.73576 0.0
H981 H 0.15399 0.5145 0.71249 0.0
H982 H 0.12423 0.53335 0.76715 0.0
H983 H 0.08849 0.53365 0.7179 0.0
H984 H 0.01588 0.79985 0.27518 0.0
H985 H 0.01196 0.83411 0.33709 0.0
H986 H 1.0078 0.80554 0.5713 0.0
H987 H 0.01223 0.77129 0.50876 0.0
H988 H 0.98218 0.85268 0.43086 0.0
H989 H 0.05506 0.8457 0.60341 0.0
H990 H 0.04704 0.82642 0.53181 0.0
H991 H 0.03612 0.82675 0.63122 0.0
C992 C 0.01355 0.80093 0.33962 0.0
C993 C 0.01401 0.78291 0.38707 0.0
C994 C 0.01147 0.82052 0.37519 0.0
C995 C 1.00992 0.82263 0.45935 0.0
C996 C 1.00935 0.80451 0.50651 0.0
H997 H 0.01482 0.9354 0.7616 0.0
H998 H 0.01321 0.89942 0.71459 0.0
C999 C 0.01149 0.78489 0.47077 0.0
C1000 C 1.00933 0.84378 0.49701 0.0
H1001 H 0.0352 0.876 0.62589 0.0
C1002 C 0.9938 0.85775 0.47348 0.0
C1003 C 0.02426 0.85052 0.55378 0.0
C1004 C 0.04167 0.83664 0.58108 0.0
C1005 C 0.99272 0.87801 0.50471 0.0
C1006 C 1.00814 0.88509 0.55907 0.0
C1007 C 0.02338 0.8709 0.58416 0.0
C1008 C 1.00908 0.90715 0.58854 0.0
C1009 C 0.97457 0.89133 0.48053 0.0
C1010 C 1.0078 0.92381 0.53408 0.0
C1011 C 1.00818 0.94434 0.56121 0.0
C1012 C 1.01062 0.949 0.6435 0.0
C1013 C 0.01282 0.93243 0.69789 0.0
C1014 C 0.01192 0.91179 0.67085 0.0
H1015 H 0.96087 0.88174 0.46575 0.0
H1016 H 0.97019 0.9023 0.52899 0.0
H1017 H 0.97863 0.90023 0.42562 0.0
H1018 H 1.00663 0.92099 0.47002 0.0
H1019 H 1.00689 0.95665 0.51718 0.0
H1020 H 0.74832 0.03008 0.49841 0.0
H1021 H 0.71375 0.02552 0.55628 0.0
H1022 H 0.69741 0.98574 0.35831 0.0
H1023 H 0.73215 0.99066 0.30011 0.0
H1024 H 0.66834 0.01587 0.38391 0.0
H1025 H 0.68592 0.97883 0.6765 0.0
H1026 H 0.70031 1.00214 0.66024 0.0
H1027 H 0.70457 0.9802 0.59578 0.0
C1028 C 0.73754 0.01979 0.46894 0.0
C1029 C 0.74309 1.01026 0.39605 0.0
C1030 C 0.71773 0.01719 0.50194 0.0
C1031 C 0.70286 1.00494 0.46288 0.0
C1032 C 0.70856 0.99506 0.39048 0.0
H1033 H 0.56911 0.9887 0.53419 0.0
H1034 H 0.60464 0.98737 0.48596 0.0
C1035 C 0.72848 0.99764 0.3576 0.0
C1036 C 0.68104 1.00391 0.49424 0.0
H1037 H 0.65204 0.99295 0.66182 0.0
C1038 C 0.6648 1.01066 0.44448 0.0
C1039 C 0.67621 0.99734 0.57359 0.0
C1040 C 0.69264 0.98903 0.62942 0.0
C1041 C 0.6442 0.01178 0.47237 0.0
C1042 C 0.6393 1.00516 0.55177 0.0
C1043 C 0.65555 0.99814 0.60122 0.0
C1044 C 0.61749 1.0052 0.58407 0.0
C1045 C 0.6281 0.02092 0.41705 0.0
C1046 C 0.61258 0.01466 0.65818 0.0
C1047 C 0.5921 0.01501 0.68729 0.0
C1048 C 0.57593 1.006 0.64279 0.0
C1049 C 0.58099 0.99613 0.56973 0.0
C1050 C 0.60142 0.99552 0.54144 0.0
H1051 H 0.63523 0.03103 0.37083 0.0
H1052 H 0.62001 1.00829 0.38487 0.0
H1053 H 0.61651 0.03011 0.45104 0.0
H1054 H 0.62458 0.0221 0.69311 0.0
H1055 H 0.58888 0.02271 0.74381 0.0
H1056 H 0.51428 0.72095 0.28221 0.0
H1057 H 0.51756 0.68688 0.3464 0.0
H1058 H 0.51767 0.71598 0.57987 0.0
H1059 H 0.51373 0.75003 0.51488 0.0
H1060 H 0.54531 0.6683 0.44418 0.0
H1061 H 0.47117 0.67544 0.60811 0.0
H1062 H 0.47957 0.69447 0.53594 0.0
H1063 H 0.48969 0.69469 0.63673 0.0
C1064 C 0.51558 0.72006 0.34713 0.0
C1065 C 0.51409 0.7382 0.39343 0.0
C1066 C 0.51727 0.70054 0.38403 0.0
C1067 C 0.51747 0.69856 0.46852 0.0
C1068 C 0.51709 0.71683 0.5148 0.0
H1069 H 0.51163 0.58577 0.77475 0.0
H1070 H 0.51309 0.62179 0.72702 0.0
C1071 C 0.51528 0.73638 0.4777 0.0
C1072 C 0.51773 0.67741 0.50718 0.0
H1073 H 0.49101 0.64536 0.63484 0.0
C1074 C 0.53339 0.66334 0.48582 0.0
C1075 C 0.50239 0.67072 0.56253 0.0
C1076 C 0.48464 0.68453 0.5867 0.0
C1077 C 0.5342 0.64309 0.51775 0.0
C1078 C 0.51847 0.63612 0.57108 0.0
C1079 C 0.50309 0.65038 0.59407 0.0
C1080 C 0.51733 0.61404 0.60114 0.0
C1081 C 0.55237 0.62963 0.49521 0.0
C1082 C 0.51863 0.59736 0.54705 0.0
C1083 C 0.51827 0.57682 0.57452 0.0
C1084 C 0.51588 0.57211 0.65693 0.0
C1085 C 0.5136 0.58873 0.711 0.0
C1086 C 0.51443 0.6094 0.68353 0.0
H1087 H 0.56618 0.63911 0.48066 0.0
H1088 H 0.55651 0.61876 0.54445 0.0
H1089 H 0.54846 0.6206 0.44058 0.0
H1090 H 0.51987 0.60016 0.48295 0.0
H1091 H 0.51962 0.56453 0.53058 0.0
H1092 H 0.78744 0.53449 0.37617 0.0
H1093 H 0.82051 0.53849 0.44743 0.0
H1094 H 0.82 0.47356 0.5067 0.0
H1095 H 0.78637 0.47007 0.44117 0.0
H1096 H 0.83637 0.49225 0.62521 0.0
H1097 H 0.87439 0.52346 0.35289 0.0
H1098 H 0.85367 0.53972 0.38634 0.0
H1099 H 0.84829 0.5139 0.35142 0.0
C1100 C 0.79413 0.52127 0.40662 0.0
C1101 C 0.78432 0.50194 0.40262 0.0
C1102 C 0.81331 0.52342 0.44595 0.0
C1103 C 0.8234 0.50618 0.48054 0.0
C1104 C 0.81291 0.48715 0.4803 0.0
H1105 H 0.9568 0.49805 0.54539 0.0
H1106 H 0.92094 0.49679 0.50069 0.0
C1107 C 0.79363 0.48513 0.44259 0.0
C1108 C 0.84495 0.50757 0.51501 0.0
H1109 H 0.89427 0.52329 0.47236 0.0
C1110 C 0.84902 0.49903 0.59152 0.0
C1111 C 0.86181 0.51593 0.47109 0.0
C1112 C 0.85941 0.52355 0.3856 0.0
C1113 C 0.86913 0.49854 0.62479 0.0
C1114 C 0.88584 0.50772 0.58234 0.0
C1115 C 0.8817 0.51638 0.50604 0.0
C1116 C 0.90785 0.50768 0.61307 0.0
C1117 C 0.87226 0.48729 0.70354 0.0
C1118 C 0.913 0.51404 0.69191 0.0
C1119 C 0.93371 0.51414 0.71858 0.0
C1120 C 0.9499 0.50861 0.66623 0.0
C1121 C 0.94478 0.5025 0.58739 0.0
C1122 C 0.92414 0.50185 0.56156 0.0
H1123 H 0.85995 0.47564 0.71399 0.0
H1124 H 0.88743 0.47928 0.7054 0.0
H1125 H 0.87154 0.49855 0.75377 0.0
H1126 H 0.90109 0.51934 0.73269 0.0
H1127 H 0.93709 0.5192 0.77931 0.0
loop_
_geom_bond_atom_site_label_1
_geom_bond_atom_site_label_2
_geom_bond_distance
_geom_bond_site_symmetry_2
_ccdc_geom_bond_type
C0 N1 1.317 . S
C0 N2 1.348 . S
C0 C3 1.485 . S
N1 C0 1.317 . S
N1 N5 1.370 . S
N2 C0 1.348 . S
N2 C4 1.346 . S
C3 C0 1.485 . S
C3 H7 0.960 . S
C3 H8 0.961 . S
C3 H9 0.960 . S
C4 N2 1.346 . S
C4 N5 1.307 . S
C4 C6 1.486 . S
N5 N1 1.370 . S
N5 C4 1.307 . S
C6 C4 1.486 . S
C6 H10 0.960 . S
C6 H11 0.960 . S
C6 H12 0.959 . S
H7 C3 0.960 . S
H8 C3 0.961 . S
H9 C3 0.960 . S
H10 C6 0.960 . S
H11 C6 0.960 . S
H12 C6 0.959 . S
C13 N14 1.317 . S
C13 N15 1.350 . S
C13 C16 1.485 . S
N14 C13 1.317 . S
N14 N18 1.371 . S
N15 C13 1.350 . S
N15 C17 1.345 1_655 S
C16 C13 1.485 . S
C16 H20 0.960 1_655 S
C16 H21 0.961 . S
C16 H22 0.960 . S
C17 N15 1.345 1_455 S
C17 N18 1.307 1_455 S
C17 C19 1.486 . S
N18 N14 1.371 . S
N18 C17 1.307 1_655 S
C19 C17 1.486 . S
C19 H23 0.925 1_455 S
C19 H24 0.989 . S
C19 H25 0.967 . S
H20 C16 0.960 1_455 S
H21 C16 0.961 . S
H22 C16 0.960 . S
H23 C19 0.925 1_655 S
H24 C19 0.989 . S
H25 C19 0.967 . S
C26 N27 1.317 . S
C26 N28 1.350 . S
C26 C29 1.485 . S
N27 C26 1.317 . S
N27 N31 1.371 . S
N28 C26 1.350 . S
N28 C30 1.345 1_565 S
C29 C26 1.485 . S
C29 H33 0.960 1_565 S
C29 H34 0.961 . S
C29 H35 0.960 . S
C30 N28 1.345 1_545 S
C30 N31 1.307 1_545 S
C30 C32 1.486 . S
N31 N27 1.371 . S
N31 C30 1.307 1_565 S
C32 C30 1.486 . S
C32 H36 0.925 1_545 S
C32 H37 0.989 . S
C32 H38 0.967 . S
H33 C29 0.960 1_545 S
H34 C29 0.961 . S
H35 C29 0.960 . S
H36 C32 0.925 1_565 S
H37 C32 0.989 . S
H38 C32 0.967 . S
C39 N40 1.317 . S
C39 N41 1.348 . S
C39 C42 1.485 . S
N40 C39 1.317 . S
N40 N44 1.370 . S
N41 C39 1.348 . S
N41 C43 1.346 . S
C42 C39 1.485 . S
C42 H46 0.960 . S
C42 H47 0.961 . S
C42 H48 0.960 . S
C43 N41 1.346 . S
C43 N44 1.307 . S
C43 C45 1.486 . S
N44 N40 1.370 . S
N44 C43 1.307 . S
C45 C43 1.486 . S
C45 H49 0.960 . S
C45 H50 0.960 . S
C45 H51 0.959 . S
H46 C42 0.960 . S
H47 C42 0.961 . S
H48 C42 0.960 . S
H49 C45 0.960 . S
H50 C45 0.960 . S
H51 C45 0.959 . S
C52 N53 1.317 1_556 S
C52 N54 1.348 1_556 S
C52 C55 1.485 . S
N53 C52 1.317 1_554 S
N53 N57 1.370 . S
N54 C52 1.348 1_554 S
N54 C56 1.346 . S
C55 C52 1.485 . S
C55 H59 0.960 . S
C55 H60 0.961 . S
C55 H61 0.960 . S
C56 N54 1.346 . S
C56 N57 1.307 . S
C56 C58 1.486 . S
N57 N53 1.370 . S
N57 C56 1.307 . S
C58 C56 1.486 . S
C58 H62 0.960 . S
C58 H63 0.960 . S
C58 H64 0.959 . S
H59 C55 0.960 . S
H60 C55 0.961 . S
H61 C55 0.960 . S
H62 C58 0.960 . S
H63 C58 0.960 . S
H64 C58 0.959 . S
C65 N66 1.317 1_556 S
C65 N67 1.350 1_556 S
C65 C68 1.485 . S
N66 C65 1.317 1_554 S
N66 N70 1.370 . S
N67 C65 1.350 1_554 S
N67 C69 1.345 1_655 S
C68 C65 1.485 . S
C68 H72 0.960 1_655 S
C68 H73 0.961 . S
C68 H74 0.960 . S
C69 N67 1.345 1_455 S
C69 N70 1.307 1_455 S
C69 C71 1.485 . S
N70 N66 1.370 . S
N70 C69 1.307 1_655 S
C71 C69 1.485 . S
C71 H75 0.913 1_455 S
C71 H76 0.999 . S
C71 H77 0.970 . S
H72 C68 0.960 1_455 S
H73 C68 0.961 . S
H74 C68 0.960 . S
H75 C71 0.913 1_655 S
H76 C71 0.999 . S
H77 C71 0.970 . S
C78 N79 1.317 1_556 S
C78 N80 1.350 1_556 S
C78 C81 1.485 . S
N79 C78 1.317 1_554 S
N79 N83 1.370 . S
N80 C78 1.350 1_554 S
N80 C82 1.345 1_565 S
C81 C78 1.485 . S
C81 H85 0.960 1_565 S
C81 H86 0.961 . S
C81 H87 0.960 . S
C82 N80 1.345 1_545 S
C82 N83 1.307 1_545 S
C82 C84 1.485 . S
N83 N79 1.370 . S
N83 C82 1.307 1_565 S
C84 C82 1.485 . S
C84 H88 0.913 1_545 S
C84 H89 0.999 . S
C84 H90 0.970 . S
H85 C81 0.960 1_545 S
H86 C81 0.961 . S
H87 C81 0.960 . S
H88 C84 0.913 1_565 S
H89 C84 0.999 . S
H90 C84 0.970 . S
C91 N92 1.316 1_556 S
C91 N93 1.348 1_556 S
C91 C94 1.485 . S
N92 C91 1.316 1_554 S
N92 N96 1.383 . S
N93 C91 1.348 1_554 S
N93 C95 1.346 . S
C94 C91 1.485 . S
C94 H98 0.960 . S
C94 H99 0.961 . S
C94 H100 0.960 . S
C95 N93 1.346 . S
C95 N96 1.307 . S
C95 C97 1.486 . S
N96 N92 1.383 . S
N96 C95 1.307 . S
C97 C95 1.486 . S
C97 H101 0.960 . S
C97 H102 0.960 . S
C97 H103 0.959 . S
H98 C94 0.960 . S
H99 C94 0.961 . S
H100 C94 0.960 . S
H101 C97 0.960 . S
H102 C97 0.960 . S
H103 C97 0.959 . S
Tb104 C114 2.825 . S
Tb104 O115 2.347 1_455 S
Tb104 O118 2.366 . S
Tb104 O123 2.418 . S
Tb104 O124 2.384 1_565 S
Tb104 O127 2.479 . S
Tb104 O128 2.471 . S
Eu105 O116 2.418 . S
Eu105 O117 2.384 1_545 S
Eu105 O120 2.479 . S
Eu105 O121 2.471 . S
Eu105 O122 2.347 1_655 S
Eu105 O125 2.366 . S
Eu105 C135 2.825 . S
C106 O122 1.259 1_565 S
C106 O123 1.265 . S
C107 O124 1.255 . S
C107 O125 1.265 1_455 S
C108 C110 1.380 . S
C108 C111 1.374 . S
C108 C114 1.507 . S
C109 C110 1.384 . S
C109 C113 1.387 1_556 S
C109 H136 0.930 1_556 S
C110 C108 1.380 . S
C110 C109 1.384 . S
C110 H137 0.931 . S
C111 C108 1.374 . S
C111 C112 1.390 . S
C111 H138 0.930 1_455 S
C112 C111 1.390 . S
C112 C113 1.391 1_556 S
C112 H139 0.930 1_456 S
C113 C109 1.387 1_554 S
C113 C112 1.391 1_554 S
C114 Tb104 2.825 . S
C114 C108 1.507 . S
C114 O127 1.238 . S
C114 O128 1.247 . S
O115 Tb104 2.347 1_655 S
O115 C119 1.259 1_565 S
O116 Eu105 2.418 . S
O116 C119 1.265 . S
O117 Eu105 2.384 1_565 S
O117 C126 1.255 . S
O118 Tb104 2.366 . S
O118 C126 1.265 1_455 S
C119 O115 1.259 1_545 S
C119 O116 1.265 . S
O120 Eu105 2.479 . S
O120 C135 1.238 . S
O121 Eu105 2.471 . S
O121 C135 1.247 . S
O122 Eu105 2.347 1_455 S
O122 C106 1.259 1_545 S
O123 Tb104 2.418 . S
O123 C106 1.265 . S
O124 Tb104 2.384 1_545 S
O124 C107 1.255 . S
O125 Eu105 2.366 . S
O125 C107 1.265 1_655 S
C126 O117 1.255 . S
C126 O118 1.265 1_655 S
O127 Tb104 2.479 . S
O127 C114 1.238 . S
O128 Tb104 2.471 . S
O128 C114 1.247 . S
C129 C132 1.380 . S
C129 C133 1.374 . S
C129 C135 1.507 . S
C130 C131 1.387 . S
C130 C134 1.391 . S
C131 C130 1.387 . S
C131 C132 1.384 . S
C131 H140 0.930 . S
C132 C129 1.380 . S
C132 C131 1.384 . S
C132 H141 0.931 . S
C133 C129 1.374 . S
C133 C134 1.390 . S
C133 H142 0.930 1_655 S
C134 C130 1.391 . S
C134 C133 1.390 . S
C134 H143 0.930 1_655 S
C135 Eu105 2.825 . S
C135 O120 1.238 . S
C135 O121 1.247 . S
C135 C129 1.507 . S
H136 C109 0.930 1_554 S
H137 C110 0.931 . S
H138 C111 0.930 1_655 S
H139 C112 0.930 1_654 S
H140 C131 0.930 . S
H141 C132 0.931 . S
H142 C133 0.930 1_455 S
H143 C134 0.930 1_455 S
Tb144 C154 2.825 . S
Tb144 O155 2.347 1_545 S
Tb144 O158 2.366 . S
Tb144 O163 2.418 . S
Tb144 O164 2.384 . S
Tb144 O167 2.479 . S
Tb144 O168 2.471 . S
Eu145 O156 2.418 . S
Eu145 O157 2.384 . S
Eu145 O160 2.479 . S
Eu145 O161 2.471 . S
Eu145 O162 2.347 1_565 S
Eu145 O165 2.366 . S
Eu145 C175 2.825 . S
C146 O162 1.259 . S
C146 O163 1.265 . S
C147 O164 1.255 . S
C147 O165 1.265 1_545 S
C148 C150 1.380 . S
C148 C151 1.374 . S
C148 C154 1.507 . S
C149 C150 1.384 . S
C149 C153 1.387 1_556 S
C149 H176 0.930 1_556 S
C150 C148 1.380 . S
C150 C149 1.384 . S
C150 H177 0.931 . S
C151 C148 1.374 . S
C151 C152 1.390 . S
C151 H178 0.930 1_545 S
C152 C151 1.390 . S
C152 C153 1.391 1_556 S
C152 H179 0.930 1_546 S
C153 C149 1.387 1_554 S
C153 C152 1.391 1_554 S
C154 Tb144 2.825 . S
C154 C148 1.507 . S
C154 O167 1.238 . S
C154 O168 1.247 . S
O155 Tb144 2.347 1_565 S
O155 C159 1.259 . S
O156 Eu145 2.418 . S
O156 C159 1.265 . S
O157 Eu145 2.384 . S
O157 C166 1.255 . S
O158 Tb144 2.366 . S
O158 C166 1.265 1_545 S
C159 O155 1.259 . S
C159 O156 1.265 . S
O160 Eu145 2.479 . S
O160 C175 1.238 . S
O161 Eu145 2.471 . S
O161 C175 1.247 . S
O162 Eu145 2.347 1_545 S
O162 C146 1.259 . S
O163 Tb144 2.418 . S
O163 C146 1.265 . S
O164 Tb144 2.384 . S
O164 C147 1.255 . S
O165 Eu145 2.366 . S
O165 C147 1.265 1_565 S
C166 O157 1.255 . S
C166 O158 1.265 1_565 S
O167 Tb144 2.479 . S
O167 C154 1.238 . S
O168 Tb144 2.471 . S
O168 C154 1.247 . S
C169 C172 1.380 . S
C169 C173 1.374 . S
C169 C175 1.507 . S
C170 C171 1.387 . S
C170 C174 1.391 . S
C171 C170 1.387 . S
C171 C172 1.384 . S
C171 H180 0.930 . S
C172 C169 1.380 . S
C172 C171 1.384 . S
C172 H181 0.931 . S
C173 C169 1.374 . S
C173 C174 1.390 . S
C173 H182 0.930 1_565 S
C174 C170 1.391 . S
C174 C173 1.390 . S
C174 H183 0.930 1_565 S
C175 Eu145 2.825 . S
C175 O160 1.238 . S
C175 O161 1.247 . S
C175 C169 1.507 . S
H176 C149 0.930 1_554 S
H177 C150 0.931 . S
H178 C151 0.930 1_565 S
H179 C152 0.930 1_564 S
H180 C171 0.930 . S
H181 C172 0.931 . S
H182 C173 0.930 1_545 S
H183 C174 0.930 1_545 S
Tb184 C194 2.825 . S
Tb184 O195 2.347 . S
Tb184 O198 2.366 . S
Tb184 O203 2.418 . S
Tb184 O204 2.384 . S
Tb184 O207 2.479 . S
Tb184 O208 2.471 . S
Eu185 O196 2.418 . S
Eu185 O197 2.384 . S
Eu185 O200 2.479 . S
Eu185 O201 2.471 . S
Eu185 O202 2.347 . S
Eu185 O205 2.366 . S
Eu185 C215 2.825 . S
C186 O202 1.259 . S
C186 O203 1.265 . S
C187 O204 1.255 . S
C187 O205 1.265 . S
C188 C190 1.380 . S
C188 C191 1.374 . S
C188 C194 1.507 . S
C189 C190 1.384 . S
C189 C193 1.387 1_556 S
C189 H216 0.930 1_556 S
C190 C188 1.380 . S
C190 C189 1.384 . S
C190 H217 0.931 . S
C191 C188 1.374 . S
C191 C192 1.390 . S
C191 H218 0.930 . S
C192 C191 1.390 . S
C192 C193 1.391 1_556 S
C192 H219 0.930 1_556 S
C193 C189 1.387 1_554 S
C193 C192 1.391 1_554 S
C194 Tb184 2.825 . S
C194 C188 1.507 . S
C194 O207 1.238 . S
C194 O208 1.247 . S
O195 Tb184 2.347 . S
O195 C199 1.259 . S
O196 Eu185 2.418 . S
O196 C199 1.265 . S
O197 Eu185 2.384 . S
O197 C206 1.255 . S
O198 Tb184 2.366 . S
O198 C206 1.265 . S
C199 O195 1.259 . S
C199 O196 1.265 . S
O200 Eu185 2.479 . S
O200 C215 1.238 . S
O201 Eu185 2.471 . S
O201 C215 1.247 . S
O202 Eu185 2.347 . S
O202 C186 1.259 . S
O203 Tb184 2.418 . S
O203 C186 1.265 . S
O204 Tb184 2.384 . S
O204 C187 1.255 . S
O205 Eu185 2.366 . S
O205 C187 1.265 . S
C206 O197 1.255 . S
C206 O198 1.265 . S
O207 Tb184 2.479 . S
O207 C194 1.238 . S
O208 Tb184 2.471 . S
O208 C194 1.247 . S
C209 C212 1.380 . S
C209 C213 1.374 . S
C209 C215 1.507 . S
C210 C211 1.387 . S
C210 C214 1.391 . S
C211 C210 1.387 . S
C211 C212 1.384 . S
C211 H220 0.930 . S
C212 C209 1.380 . S
C212 C211 1.384 . S
C212 H221 0.931 . S
C213 C209 1.374 . S
C213 C214 1.390 . S
C213 H222 0.930 . S
C214 C210 1.391 . S
C214 C213 1.390 . S
C214 H223 0.930 . S
C215 Eu185 2.825 . S
C215 O200 1.238 . S
C215 O201 1.247 . S
C215 C209 1.507 . S
H216 C189 0.930 1_554 S
H217 C190 0.931 . S
H218 C191 0.930 . S
H219 C192 0.930 1_554 S
H220 C211 0.930 . S
H221 C212 0.931 . S
H222 C213 0.930 . S
H223 C214 0.930 . S
Tb224 C234 2.825 . S
Tb224 O235 2.347 . S
Tb224 O238 2.366 . S
Tb224 O243 2.418 . S
Tb224 O244 2.384 1_655 S
Tb224 O247 2.479 . S
Tb224 O248 2.471 . S
Eu225 O236 2.418 . S
Eu225 O237 2.384 1_455 S
Eu225 O240 2.479 . S
Eu225 O241 2.471 . S
Eu225 O242 2.347 . S
Eu225 O245 2.366 . S
Eu225 C255 2.825 . S
C226 O242 1.259 1_655 S
C226 O243 1.265 . S
C227 O244 1.255 . S
C227 O245 1.265 . S
C228 C230 1.380 . S
C228 C231 1.374 . S
C228 C234 1.507 . S
C229 C230 1.384 . S
C229 C233 1.387 1_556 S
C229 H256 0.930 1_556 S
C230 C228 1.380 . S
C230 C229 1.384 . S
C230 H257 0.931 . S
C231 C228 1.374 . S
C231 C232 1.390 . S
C231 H258 0.930 . S
C232 C231 1.390 . S
C232 C233 1.391 1_556 S
C232 H259 0.930 1_556 S
C233 C229 1.387 1_554 S
C233 C232 1.391 1_554 S
C234 Tb224 2.825 . S
C234 C228 1.507 . S
C234 O247 1.238 . S
C234 O248 1.247 . S
O235 Tb224 2.347 . S
O235 C239 1.259 1_655 S
O236 Eu225 2.418 . S
O236 C239 1.265 . S
O237 Eu225 2.384 1_655 S
O237 C246 1.255 . S
O238 Tb224 2.366 . S
O238 C246 1.265 . S
C239 O235 1.259 1_455 S
C239 O236 1.265 . S
O240 Eu225 2.479 . S
O240 C255 1.238 . S
O241 Eu225 2.471 . S
O241 C255 1.247 . S
O242 Eu225 2.347 . S
O242 C226 1.259 1_455 S
O243 Tb224 2.418 . S
O243 C226 1.265 . S
O244 Tb224 2.384 1_455 S
O244 C227 1.255 . S
O245 Eu225 2.366 . S
O245 C227 1.265 . S
C246 O237 1.255 . S
C246 O238 1.265 . S
O247 Tb224 2.479 . S
O247 C234 1.238 . S
O248 Tb224 2.471 . S
O248 C234 1.247 . S
C249 C252 1.380 . S
C249 C253 1.374 . S
C249 C255 1.507 . S
C250 C251 1.387 . S
C250 C254 1.391 . S
C251 C250 1.387 . S
C251 C252 1.384 . S
C251 H260 0.930 . S
C252 C249 1.380 . S
C252 C251 1.384 . S
C252 H261 0.931 . S
C253 C249 1.374 . S
C253 C254 1.390 . S
C253 H262 0.930 . S
C254 C250 1.391 . S
C254 C253 1.390 . S
C254 H263 0.930 . S
C255 Eu225 2.825 . S
C255 O240 1.238 . S
C255 O241 1.247 . S
C255 C249 1.507 . S
H256 C229 0.930 1_554 S
H257 C230 0.931 . S
H258 C231 0.930 . S
H259 C232 0.930 1_554 S
H260 C251 0.930 . S
H261 C252 0.931 . S
H262 C253 0.930 . S
H263 C254 0.930 . S
H264 C272 0.929 . S
H265 C274 0.930 . S
H266 C276 0.930 . S
H267 C279 0.929 . S
H268 C282 0.930 . S
H269 C284 0.960 . S
H270 C284 0.960 . S
H271 C284 0.960 . S
C272 H264 0.929 . S
C272 C273 1.391 . S
C272 C274 1.384 . S
C273 C272 1.391 . S
C273 C279 1.377 1_545 S
C274 H265 0.930 . S
C274 C272 1.384 . S
C274 C275 1.372 . S
C275 C274 1.372 . S
C275 C276 1.400 1_545 S
C275 C280 1.491 . S
C276 H266 0.930 . S
C276 C275 1.400 1_565 S
C276 C279 1.386 . S
H277 C293 0.930 . S
H278 C294 0.931 . S
C279 H267 0.929 . S
C279 C273 1.377 1_565 S
C279 C276 1.386 . S
C280 C275 1.491 . S
C280 C282 1.380 1_545 S
C280 C283 1.419 . S
H281 C287 0.930 . S
C282 H268 0.930 . S
C282 C280 1.380 1_565 S
C282 C285 1.403 . S
C283 C280 1.419 . S
C283 C284 1.524 . S
C283 C287 1.400 . S
C284 H269 0.960 . S
C284 H270 0.960 . S
C284 H271 0.960 . S
C284 C283 1.524 . S
C285 C282 1.403 . S
C285 C286 1.398 . S
C285 C289 1.495 . S
C286 C285 1.398 . S
C286 C287 1.379 1_565 S
C286 C288 1.477 . S
C287 H281 0.930 . S
C287 C283 1.400 . S
C287 C286 1.379 1_545 S
C288 C286 1.477 . S
C288 C290 1.348 1_565 S
C288 C294 1.416 . S
C289 C285 1.495 . S
C289 H295 0.959 . S
C289 H296 0.961 . S
C289 H297 0.960 . S
C290 C288 1.348 1_545 S
C290 C291 1.394 . S
C290 H298 0.930 . S
C291 C290 1.394 . S
C291 C292 1.383 1_545 S
C291 H299 0.929 . S
C292 C291 1.383 1_565 S
C292 C293 1.377 . S
C293 H277 0.930 . S
C293 C292 1.377 . S
C293 C294 1.379 . S
C294 H278 0.931 . S
C294 C288 1.416 . S
C294 C293 1.379 . S
H295 C289 0.959 . S
H296 C289 0.961 . S
H297 C289 0.960 . S
H298 C290 0.930 . S
H299 C291 0.929 . S
H300 C308 0.929 . S
H301 C310 0.930 . S
H302 C312 0.930 . S
H303 C315 0.929 . S
H304 C318 0.930 . S
H305 C320 0.960 . S
H306 C320 0.960 . S
H307 C320 0.960 . S
C308 H300 0.929 . S
C308 C309 1.377 . S
C308 C310 1.384 . S
C309 C308 1.377 . S
C309 C315 1.390 . S
C310 H301 0.930 . S
C310 C308 1.384 . S
C310 C311 1.372 . S
C311 C310 1.372 . S
C311 C312 1.400 . S
C311 C316 1.490 . S
C312 H302 0.930 . S
C312 C311 1.400 . S
C312 C315 1.386 . S
H313 C329 0.930 . S
H314 C330 0.931 . S
C315 H303 0.929 . S
C315 C309 1.390 . S
C315 C312 1.386 . S
C316 C311 1.490 . S
C316 C318 1.395 . S
C316 C319 1.403 . S
H317 C323 0.930 . S
C318 H304 0.930 . S
C318 C316 1.395 . S
C318 C321 1.403 . S
C319 C316 1.403 . S
C319 C320 1.524 . S
C319 C323 1.400 . S
C320 H305 0.960 . S
C320 H306 0.960 . S
C320 H307 0.960 . S
C320 C319 1.524 . S
C321 C318 1.403 . S
C321 C322 1.392 . S
C321 C325 1.495 . S
C322 C321 1.392 . S
C322 C323 1.385 . S
C322 C324 1.478 . S
C323 H317 0.930 . S
C323 C319 1.400 . S
C323 C322 1.385 . S
C324 C322 1.478 . S
C324 C326 1.381 . S
C324 C330 1.383 . S
C325 C321 1.495 . S
C325 H331 0.959 . S
C325 H332 0.961 . S
C325 H333 0.960 . S
C326 C324 1.381 . S
C326 C327 1.394 . S
C326 H334 0.930 . S
C327 C326 1.394 . S
C327 C328 1.383 . S
C327 H335 0.929 . S
C328 C327 1.383 . S
C328 C329 1.377 . S
C329 H313 0.930 . S
C329 C328 1.377 . S
C329 C330 1.379 . S
C330 H314 0.931 . S
C330 C324 1.383 . S
C330 C329 1.379 . S
H331 C325 0.959 . S
H332 C325 0.961 . S
H333 C325 0.960 . S
H334 C326 0.930 . S
H335 C327 0.929 . S
H336 C344 0.929 . S
H337 C346 0.930 . S
H338 C348 0.930 . S
H339 C351 0.929 . S
H340 C354 0.930 . S
H341 C356 0.960 . S
H342 C356 0.960 . S
H343 C356 0.960 . S
C344 H336 0.929 . S
C344 C345 1.377 . S
C344 C346 1.384 . S
C345 C344 1.377 . S
C345 C351 1.390 . S
C346 H337 0.930 . S
C346 C344 1.384 . S
C346 C347 1.372 . S
C347 C346 1.372 . S
C347 C348 1.400 . S
C347 C352 1.490 . S
C348 H338 0.930 . S
C348 C347 1.400 . S
C348 C351 1.386 . S
H349 C365 0.930 . S
H350 C366 0.931 . S
C351 H339 0.929 . S
C351 C345 1.390 . S
C351 C348 1.386 . S
C352 C347 1.490 . S
C352 C354 1.395 . S
C352 C355 1.403 . S
H353 C359 0.930 . S
C354 H340 0.930 . S
C354 C352 1.395 . S
C354 C357 1.403 . S
C355 C352 1.403 . S
C355 C356 1.524 . S
C355 C359 1.400 . S
C356 H341 0.960 . S
C356 H342 0.960 . S
C356 H343 0.960 . S
C356 C355 1.524 . S
C357 C354 1.403 . S
C357 C358 1.392 . S
C357 C361 1.495 . S
C358 C357 1.392 . S
C358 C359 1.385 . S
C358 C360 1.478 . S
C359 H353 0.930 . S
C359 C355 1.400 . S
C359 C358 1.385 . S
C360 C358 1.478 . S
C360 C362 1.381 . S
C360 C366 1.383 . S
C361 C357 1.495 . S
C361 H367 0.959 . S
C361 H368 0.961 . S
C361 H369 0.960 . S
C362 C360 1.381 . S
C362 C363 1.394 . S
C362 H370 0.930 . S
C363 C362 1.394 . S
C363 C364 1.383 . S
C363 H371 0.929 . S
C364 C363 1.383 . S
C364 C365 1.377 . S
C365 H349 0.930 . S
C365 C364 1.377 . S
C365 C366 1.379 . S
C366 H350 0.931 . S
C366 C360 1.383 . S
C366 C365 1.379 . S
H367 C361 0.959 . S
H368 C361 0.961 . S
H369 C361 0.960 . S
H370 C362 0.930 . S
H371 C363 0.929 . S
H372 C380 0.929 . S
H373 C382 0.930 . S
H374 C384 0.930 . S
H375 C387 0.929 . S
H376 C390 0.930 . S
H377 C392 0.960 . S
H378 C392 0.960 . S
H379 C392 0.960 . S
C380 H372 0.929 . S
C380 C381 1.374 . S
C380 C382 1.384 . S
C381 C380 1.374 . S
C381 C387 1.393 1_655 S
C382 H373 0.930 . S
C382 C380 1.384 . S
C382 C383 1.412 . S
C383 C382 1.412 . S
C383 C384 1.359 1_655 S
C383 C388 1.491 . S
C384 H374 0.930 . S
C384 C383 1.359 1_455 S
C384 C387 1.386 . S
H385 C401 0.930 . S
H386 C402 0.931 . S
C387 H375 0.929 . S
C387 C381 1.393 1_455 S
C387 C384 1.386 . S
C388 C383 1.491 . S
C388 C390 1.395 . S
C388 C391 1.403 1_655 S
H389 C395 0.930 . S
C390 H376 0.930 . S
C390 C388 1.395 . S
C390 C393 1.403 . S
C391 C388 1.403 1_455 S
C391 C392 1.524 . S
C391 C395 1.400 . S
C392 H377 0.960 . S
C392 H378 0.960 . S
C392 H379 0.960 . S
C392 C391 1.524 . S
C393 C390 1.403 . S
C393 C394 1.392 . S
C393 C397 1.495 . S
C394 C393 1.392 . S
C394 C395 1.385 1_655 S
C394 C396 1.478 . S
C395 H389 0.930 . S
C395 C391 1.400 . S
C395 C394 1.385 1_455 S
C396 C394 1.478 . S
C396 C398 1.381 . S
C396 C402 1.383 1_655 S
C397 C393 1.495 . S
C397 H403 0.959 . S
C397 H404 0.961 . S
C397 H405 0.960 . S
C398 C396 1.381 . S
C398 C399 1.394 . S
C398 H406 0.930 . S
C399 C398 1.394 . S
C399 C400 1.382 1_655 S
C399 H407 0.929 . S
C400 C399 1.382 1_455 S
C400 C401 1.378 . S
C401 H385 0.930 . S
C401 C400 1.378 . S
C401 C402 1.379 . S
C402 H386 0.931 . S
C402 C396 1.383 1_455 S
C402 C401 1.379 . S
H403 C397 0.959 . S
H404 C397 0.961 . S
H405 C397 0.960 . S
H406 C398 0.930 . S
H407 C399 0.929 . S
H408 C416 0.929 . S
H409 C418 0.930 . S
H410 C420 0.930 . S
H411 C423 0.929 . S
H412 C426 0.930 . S
H413 C428 0.960 1_556 S
H414 C428 0.960 . S
H415 C428 0.960 . S
C416 H408 0.929 . S
C416 C417 1.387 . S
C416 C418 1.384 . S
C417 C416 1.387 . S
C417 C423 1.380 1_545 S
C418 H409 0.930 . S
C418 C416 1.384 . S
C418 C419 1.398 . S
C419 C418 1.398 . S
C419 C420 1.375 1_545 S
C419 C424 1.490 . S
C420 H410 0.930 . S
C420 C419 1.375 1_565 S
C420 C423 1.386 . S
H421 C437 0.930 . S
H422 C438 0.931 . S
C423 H411 0.929 . S
C423 C417 1.380 1_565 S
C423 C420 1.386 . S
C424 C419 1.490 . S
C424 C426 1.386 1_545 S
C424 C427 1.411 . S
H425 C431 0.930 1_556 S
C426 H412 0.930 . S
C426 C424 1.386 1_565 S
C426 C429 1.403 . S
C427 C424 1.411 . S
C427 C428 1.524 . S
C427 C431 1.400 . S
C428 H413 0.960 1_554 S
C428 H414 0.960 . S
C428 H415 0.960 . S
C428 C427 1.524 . S
C429 C426 1.403 . S
C429 C430 1.392 . S
C429 C433 1.495 . S
C430 C429 1.392 . S
C430 C431 1.385 1_565 S
C430 C432 1.478 1_554 S
C431 H425 0.930 1_554 S
C431 C427 1.400 . S
C431 C430 1.385 1_545 S
C432 C430 1.478 1_556 S
C432 C434 1.381 1_565 S
C432 C438 1.383 . S
C433 C429 1.495 . S
C433 H439 0.959 . S
C433 H440 0.961 . S
C433 H441 0.960 . S
C434 C432 1.381 1_545 S
C434 C435 1.394 . S
C434 H442 0.930 1_556 S
C435 C434 1.394 . S
C435 C436 1.383 1_545 S
C435 H443 0.929 . S
C436 C435 1.383 1_565 S
C436 C437 1.377 . S
C437 H421 0.930 . S
C437 C436 1.377 . S
C437 C438 1.379 . S
C438 H422 0.931 . S
C438 C432 1.383 . S
C438 C437 1.379 . S
H439 C433 0.959 . S
H440 C433 0.961 . S
H441 C433 0.960 . S
H442 C434 0.930 1_554 S
H443 C435 0.929 . S
H444 C452 0.929 . S
H445 C454 0.930 . S
H446 C456 0.930 . S
H447 C459 0.929 . S
H448 C462 0.930 . S
H449 C464 0.960 1_556 S
H450 C464 0.960 . S
H451 C464 0.960 . S
C452 H444 0.929 . S
C452 C453 1.377 . S
C452 C454 1.384 . S
C453 C452 1.377 . S
C453 C459 1.390 . S
C454 H445 0.930 . S
C454 C452 1.384 . S
C454 C455 1.372 . S
C455 C454 1.372 . S
C455 C456 1.400 . S
C455 C460 1.490 . S
C456 H446 0.930 . S
C456 C455 1.400 . S
C456 C459 1.386 . S
H457 C473 0.930 . S
H458 C474 0.931 . S
C459 H447 0.929 . S
C459 C453 1.390 . S
C459 C456 1.386 . S
C460 C455 1.490 . S
C460 C462 1.395 . S
C460 C463 1.403 . S
H461 C467 0.930 1_556 S
C462 H448 0.930 . S
C462 C460 1.395 . S
C462 C465 1.403 . S
C463 C460 1.403 . S
C463 C464 1.524 . S
C463 C467 1.400 . S
C464 H449 0.960 1_554 S
C464 H450 0.960 . S
C464 H451 0.960 . S
C464 C463 1.524 . S
C465 C462 1.403 . S
C465 C466 1.392 . S
C465 C469 1.495 . S
C466 C465 1.392 . S
C466 C467 1.385 . S
C466 C468 1.478 1_554 S
C467 H461 0.930 1_554 S
C467 C463 1.400 . S
C467 C466 1.385 . S
C468 C466 1.478 1_556 S
C468 C470 1.381 . S
C468 C474 1.383 . S
C469 C465 1.495 . S
C469 H475 0.959 . S
C469 H476 0.961 . S
C469 H477 0.960 . S
C470 C468 1.381 . S
C470 C471 1.394 . S
C470 H478 0.930 1_556 S
C471 C470 1.394 . S
C471 C472 1.383 . S
C471 H479 0.929 . S
C472 C471 1.383 . S
C472 C473 1.377 . S
C473 H457 0.930 . S
C473 C472 1.377 . S
C473 C474 1.379 . S
C474 H458 0.931 . S
C474 C468 1.383 . S
C474 C473 1.379 . S
H475 C469 0.959 . S
H476 C469 0.961 . S
H477 C469 0.960 . S
H478 C470 0.930 1_554 S
H479 C471 0.929 . S
H480 C488 0.929 . S
H481 C490 0.930 . S
H482 C492 0.930 . S
H483 C495 0.929 . S
H484 C498 0.930 . S
H485 C500 0.960 . S
H486 C500 0.960 . S
H487 C500 0.960 . S
C488 H480 0.929 . S
C488 C489 1.377 . S
C488 C490 1.384 . S
C489 C488 1.377 . S
C489 C495 1.390 . S
C490 H481 0.930 . S
C490 C488 1.384 . S
C490 C491 1.372 . S
C491 C490 1.372 . S
C491 C492 1.400 . S
C491 C496 1.490 . S
C492 H482 0.930 . S
C492 C491 1.400 . S
C492 C495 1.386 . S
H493 C509 0.930 . S
H494 C510 0.931 1_554 S
C495 H483 0.929 . S
C495 C489 1.390 . S
C495 C492 1.386 . S
C496 C491 1.490 . S
C496 C498 1.395 . S
C496 C499 1.403 . S
H497 C503 0.930 . S
C498 H484 0.930 . S
C498 C496 1.395 . S
C498 C501 1.403 . S
C499 C496 1.403 . S
C499 C500 1.524 . S
C499 C503 1.400 . S
C500 H485 0.960 . S
C500 H486 0.960 . S
C500 H487 0.960 . S
C500 C499 1.524 . S
C501 C498 1.403 . S
C501 C502 1.392 . S
C501 C505 1.495 . S
C502 C501 1.392 . S
C502 C503 1.385 . S
C502 C504 1.478 1_554 S
C503 H497 0.930 . S
C503 C499 1.400 . S
C503 C502 1.385 . S
C504 C502 1.478 1_556 S
C504 C506 1.381 . S
C504 C510 1.383 . S
C505 C501 1.495 . S
C505 H511 0.959 . S
C505 H512 0.961 . S
C505 H513 0.960 . S
C506 C504 1.381 . S
C506 C507 1.394 . S
C506 H514 0.930 . S
C507 C506 1.394 . S
C507 C508 1.383 . S
C507 H515 0.929 . S
C508 C507 1.383 . S
C508 C509 1.377 . S
C509 H493 0.930 . S
C509 C508 1.377 . S
C509 C510 1.379 . S
C510 H494 0.931 1_556 S
C510 C504 1.383 . S
C510 C509 1.379 . S
H511 C505 0.959 . S
H512 C505 0.961 . S
H513 C505 0.960 . S
H514 C506 0.930 . S
H515 C507 0.929 . S
H516 C524 0.929 . S
H517 C526 0.930 . S
H518 C528 0.930 . S
H519 C531 0.929 . S
H520 C534 0.930 . S
H521 C536 0.960 . S
H522 C536 0.960 . S
H523 C536 0.960 . S
C524 H516 0.929 . S
C524 C525 1.378 . S
C524 C526 1.384 . S
C525 C524 1.378 . S
C525 C531 1.389 1_455 S
C526 H517 0.930 . S
C526 C524 1.384 . S
C526 C527 1.372 . S
C527 C526 1.372 . S
C527 C528 1.399 1_455 S
C527 C532 1.489 1_455 S
C528 H518 0.930 . S
C528 C527 1.399 1_655 S
C528 C531 1.386 . S
H529 C545 0.930 . S
H530 C546 0.931 . S
C531 H519 0.929 . S
C531 C525 1.389 1_655 S
C531 C528 1.386 . S
C532 C527 1.489 1_655 S
C532 C534 1.412 . S
C532 C535 1.387 1_655 S
H533 C539 0.930 1_556 S
C534 H520 0.930 . S
C534 C532 1.412 . S
C534 C537 1.403 . S
C535 C532 1.387 1_455 S
C535 C536 1.524 . S
C535 C539 1.400 . S
C536 H521 0.960 . S
C536 H522 0.960 . S
C536 H523 0.960 . S
C536 C535 1.524 . S
C537 C534 1.403 . S
C537 C538 1.392 . S
C537 C541 1.495 . S
C538 C537 1.392 . S
C538 C539 1.385 1_655 S
C538 C540 1.478 1_554 S
C539 H533 0.930 1_554 S
C539 C535 1.400 . S
C539 C538 1.385 1_455 S
C540 C538 1.478 1_556 S
C540 C542 1.381 1_656 S
C540 C546 1.383 . S
C541 C537 1.495 . S
C541 H547 0.959 . S
C541 H548 0.961 . S
C541 H549 0.960 . S
C542 C540 1.381 1_454 S
C542 C543 1.394 1_554 S
C542 H550 0.930 . S
C543 C542 1.394 1_556 S
C543 C544 1.383 1_455 S
C543 H551 0.929 . S
C544 C543 1.383 1_655 S
C544 C545 1.377 . S
C545 H529 0.930 . S
C545 C544 1.377 . S
C545 C546 1.379 . S
C546 H530 0.931 . S
C546 C540 1.383 . S
C546 C545 1.379 . S
H547 C541 0.959 . S
H548 C541 0.961 . S
H549 C541 0.960 . S
H550 C542 0.930 . S
H551 C543 0.929 . S
H552 C560 0.929 . S
H553 C562 0.930 . S
H554 C564 0.930 . S
H555 C567 0.929 . S
H556 C570 0.930 . S
H557 C572 0.960 . S
H558 C572 0.960 . S
H559 C572 0.960 1_655 S
C560 H552 0.929 . S
C560 C561 1.377 . S
C560 C562 1.384 . S
C561 C560 1.377 . S
C561 C567 1.390 1_455 S
C562 H553 0.930 . S
C562 C560 1.384 . S
C562 C563 1.372 1_455 S
C563 C562 1.372 1_655 S
C563 C564 1.400 . S
C563 C568 1.490 . S
C564 H554 0.930 . S
C564 C563 1.400 . S
C564 C567 1.386 . S
H565 C581 0.930 . S
H566 C582 0.931 . S
C567 H555 0.929 . S
C567 C561 1.390 1_655 S
C567 C564 1.386 . S
C568 C563 1.490 . S
C568 C570 1.395 . S
C568 C571 1.403 . S
H569 C575 0.930 . S
C570 H556 0.930 . S
C570 C568 1.395 . S
C570 C573 1.403 . S
C571 C568 1.403 . S
C571 C572 1.524 1_655 S
C571 C575 1.400 . S
C572 H557 0.960 . S
C572 H558 0.960 . S
C572 H559 0.960 1_455 S
C572 C571 1.524 1_455 S
C573 C570 1.403 . S
C573 C574 1.392 . S
C573 C577 1.495 . S
C574 C573 1.392 . S
C574 C575 1.385 . S
C574 C576 1.478 . S
C575 H569 0.930 . S
C575 C571 1.400 . S
C575 C574 1.385 . S
C576 C574 1.478 . S
C576 C578 1.381 . S
C576 C582 1.383 . S
C577 C573 1.495 . S
C577 H583 0.959 . S
C577 H584 0.961 . S
C577 H585 0.960 . S
C578 C576 1.381 . S
C578 C579 1.394 . S
C578 H586 0.930 1_655 S
C579 C578 1.394 . S
C579 C580 1.383 . S
C579 H587 0.958 . S
C580 C579 1.383 . S
C580 C581 1.377 . S
C581 H565 0.930 . S
C581 C580 1.377 . S
C581 C582 1.379 . S
C582 H566 0.931 . S
C582 C576 1.383 . S
C582 C581 1.379 . S
H583 C577 0.959 . S
H584 C577 0.961 . S
H585 C577 0.960 . S
H586 C578 0.930 1_455 S
H587 C579 0.958 . S
H588 C596 0.929 . S
H589 C598 0.930 . S
H590 C600 0.930 . S
H591 C603 0.929 . S
H592 C606 0.934 . S
H593 C608 0.960 . S
H594 C608 0.960 . S
H595 C608 0.960 . S
C596 H588 0.929 . S
C596 C597 1.344 1_565 S
C596 C598 1.384 . S
C597 C596 1.344 1_545 S
C597 C603 1.416 . S
C598 H589 0.930 . S
C598 C596 1.384 . S
C598 C599 1.372 . S
C599 C598 1.372 . S
C599 C600 1.400 1_565 S
C599 C604 1.490 . S
C600 H590 0.930 . S
C600 C599 1.400 1_545 S
C600 C603 1.386 . S
H601 C617 0.930 1_545 S
H602 C618 0.931 1_545 S
C603 H591 0.929 . S
C603 C597 1.416 . S
C603 C600 1.386 . S
C604 C599 1.490 . S
C604 C606 1.395 . S
C604 C607 1.403 . S
H605 C611 0.930 . S
C606 H592 0.934 . S
C606 C604 1.395 . S
C606 C609 1.403 . S
C607 C604 1.403 . S
C607 C608 1.524 . S
C607 C611 1.400 . S
C608 H593 0.960 . S
C608 H594 0.960 . S
C608 H595 0.960 . S
C608 C607 1.524 . S
C609 C606 1.403 . S
C609 C610 1.392 . S
C609 C613 1.495 . S
C610 C609 1.392 . S
C610 C611 1.385 . S
C610 C612 1.478 . S
C611 H605 0.930 . S
C611 C607 1.400 . S
C611 C610 1.385 . S
C612 C610 1.478 . S
C612 C614 1.381 . S
C612 C618 1.383 . S
C613 C609 1.495 . S
C613 H619 0.959 1_565 S
C613 H620 0.961 1_565 S
C613 H621 0.960 . S
C614 C612 1.381 . S
C614 C615 1.394 . S
C614 H622 0.930 . S
C615 C614 1.394 . S
C615 C616 1.383 . S
C615 H623 0.929 . S
C616 C615 1.383 . S
C616 C617 1.377 . S
C617 H601 0.930 1_565 S
C617 C616 1.377 . S
C617 C618 1.379 . S
C618 H602 0.931 1_565 S
C618 C612 1.383 . S
C618 C617 1.379 . S
H619 C613 0.959 1_545 S
H620 C613 0.961 1_545 S
H621 C613 0.960 . S
H622 C614 0.930 . S
H623 C615 0.929 . S
H624 C632 0.929 1_556 S
H625 C634 0.930 . S
H626 C636 0.930 . S
H627 C639 0.929 . S
H628 C642 0.930 . S
H629 C644 0.960 . S
H630 C644 0.960 . S
H631 C644 0.960 . S
C632 H624 0.929 1_554 S
C632 C633 1.377 . S
C632 C634 1.384 . S
C633 C632 1.377 . S
C633 C639 1.390 . S
C634 H625 0.930 . S
C634 C632 1.384 . S
C634 C635 1.372 . S
C635 C634 1.372 . S
C635 C636 1.400 . S
C635 C640 1.490 . S
C636 H626 0.930 . S
C636 C635 1.400 . S
C636 C639 1.386 . S
H637 C653 0.930 . S
H638 C654 0.931 . S
C639 H627 0.929 . S
C639 C633 1.390 . S
C639 C636 1.386 . S
C640 C635 1.490 . S
C640 C642 1.395 . S
C640 C643 1.403 . S
H641 C647 0.930 . S
C642 H628 0.930 . S
C642 C640 1.395 . S
C642 C645 1.403 . S
C643 C640 1.403 . S
C643 C644 1.524 . S
C643 C647 1.400 . S
C644 H629 0.960 . S
C644 H630 0.960 . S
C644 H631 0.960 . S
C644 C643 1.524 . S
C645 C642 1.403 . S
C645 C646 1.392 . S
C645 C649 1.495 . S
C646 C645 1.392 . S
C646 C647 1.385 . S
C646 C648 1.478 . S
C647 H641 0.930 . S
C647 C643 1.400 . S
C647 C646 1.385 . S
C648 C646 1.478 . S
C648 C650 1.381 . S
C648 C654 1.383 . S
C649 C645 1.495 . S
C649 H655 0.959 . S
C649 H656 0.961 . S
C649 H657 0.960 . S
C650 C648 1.381 . S
C650 C651 1.394 . S
C650 H658 0.930 . S
C651 C650 1.394 . S
C651 C652 1.383 . S
C651 H659 0.929 . S
C652 C651 1.383 . S
C652 C653 1.377 . S
C653 H637 0.930 . S
C653 C652 1.377 . S
C653 C654 1.379 . S
C654 H638 0.931 . S
C654 C648 1.383 . S
C654 C653 1.379 . S
H655 C649 0.959 . S
H656 C649 0.961 . S
H657 C649 0.960 . S
H658 C650 0.930 . S
H659 C651 0.929 . S
H660 C668 0.929 . S
H661 C670 0.930 . S
H662 C672 0.930 . S
H663 C675 0.929 . S
H664 C678 0.930 . S
H665 C680 0.960 . S
H666 C680 0.960 . S
H667 C680 0.960 . S
C668 H660 0.929 . S
C668 C669 1.377 . S
C668 C670 1.384 . S
C669 C668 1.377 . S
C669 C675 1.390 . S
C670 H661 0.930 . S
C670 C668 1.384 . S
C670 C671 1.372 . S
C671 C670 1.372 . S
C671 C672 1.400 . S
C671 C676 1.490 . S
C672 H662 0.930 . S
C672 C671 1.400 . S
C672 C675 1.386 . S
H673 C689 0.930 . S
H674 C690 0.931 . S
C675 H663 0.929 . S
C675 C669 1.390 . S
C675 C672 1.386 . S
C676 C671 1.490 . S
C676 C678 1.395 . S
C676 C679 1.403 . S
H677 C683 0.930 . S
C678 H664 0.930 . S
C678 C676 1.395 . S
C678 C681 1.403 . S
C679 C676 1.403 . S
C679 C680 1.524 . S
C679 C683 1.400 . S
C680 H665 0.960 . S
C680 H666 0.960 . S
C680 H667 0.960 . S
C680 C679 1.524 . S
C681 C678 1.403 . S
C681 C682 1.392 . S
C681 C685 1.495 . S
C682 C681 1.392 . S
C682 C683 1.385 . S
C682 C684 1.478 . S
C683 H677 0.930 . S
C683 C679 1.400 . S
C683 C682 1.385 . S
C684 C682 1.478 . S
C684 C686 1.381 . S
C684 C690 1.383 . S
C685 C681 1.495 . S
C685 H691 0.959 . S
C685 H692 0.961 . S
C685 H693 0.960 . S
C686 C684 1.381 . S
C686 C687 1.394 . S
C686 H694 0.930 . S
C687 C686 1.394 . S
C687 C688 1.383 . S
C687 H695 0.929 . S
C688 C687 1.383 . S
C688 C689 1.377 . S
C689 H673 0.930 . S
C689 C688 1.377 . S
C689 C690 1.379 . S
C690 H674 0.931 . S
C690 C684 1.383 . S
C690 C689 1.379 . S
H691 C685 0.959 . S
H692 C685 0.961 . S
H693 C685 0.960 . S
H694 C686 0.930 . S
H695 C687 0.929 . S
H696 C704 0.929 . S
H697 C706 0.930 . S
H698 C708 0.930 . S
H699 C711 0.929 . S
H700 C714 0.930 . S
H701 C716 0.960 . S
H702 C716 0.960 . S
H703 C716 0.960 . S
C704 H696 0.929 . S
C704 C705 1.377 . S
C704 C706 1.384 . S
C705 C704 1.377 . S
C705 C711 1.390 1_655 S
C706 H697 0.930 . S
C706 C704 1.384 . S
C706 C707 1.372 1_655 S
C707 C706 1.372 1_455 S
C707 C708 1.400 . S
C707 C712 1.490 . S
C708 H698 0.930 . S
C708 C707 1.400 . S
C708 C711 1.386 . S
H709 C725 0.930 . S
H710 C726 0.931 . S
C711 H699 0.929 . S
C711 C705 1.390 1_455 S
C711 C708 1.386 . S
C712 C707 1.490 . S
C712 C714 1.395 1_455 S
C712 C715 1.403 . S
H713 C719 0.930 . S
C714 H700 0.930 . S
C714 C712 1.395 1_655 S
C714 C717 1.403 . S
C715 C712 1.403 . S
C715 C716 1.524 . S
C715 C719 1.400 . S
C716 H701 0.960 . S
C716 H702 0.960 . S
C716 H703 0.960 . S
C716 C715 1.524 . S
C717 C714 1.403 . S
C717 C718 1.392 1_655 S
C717 C721 1.495 . S
C718 C717 1.392 1_455 S
C718 C719 1.385 . S
C718 C720 1.478 . S
C719 H713 0.930 . S
C719 C715 1.400 . S
C719 C718 1.385 . S
C720 C718 1.478 . S
C720 C722 1.381 . S
C720 C726 1.383 . S
C721 C717 1.495 . S
C721 H727 0.959 . S
C721 H728 0.961 . S
C721 H729 0.960 . S
C722 C720 1.381 . S
C722 C723 1.394 1_554 S
C722 H730 0.930 1_554 S
C723 C722 1.394 1_556 S
C723 C724 1.383 1_556 S
C723 H731 0.929 . S
C724 C723 1.383 1_554 S
C724 C725 1.377 . S
C725 H709 0.930 . S
C725 C724 1.377 . S
C725 C726 1.379 . S
C726 H710 0.931 . S
C726 C720 1.383 . S
C726 C725 1.379 . S
H727 C721 0.959 . S
H728 C721 0.961 . S
H729 C721 0.960 . S
H730 C722 0.930 1_556 S
H731 C723 0.929 . S
H732 C740 0.929 . S
H733 C742 0.930 . S
H734 C744 0.930 . S
H735 C747 0.929 . S
H736 C750 0.930 . S
H737 C752 0.960 . S
H738 C752 0.960 . S
H739 C752 0.960 . S
C740 H732 0.929 . S
C740 C741 1.362 1_545 S
C740 C742 1.384 . S
C741 C740 1.362 1_565 S
C741 C747 1.400 . S
C742 H733 0.930 . S
C742 C740 1.384 . S
C742 C743 1.372 . S
C743 C742 1.372 . S
C743 C744 1.400 1_545 S
C743 C748 1.490 . S
C744 H734 0.930 . S
C744 C743 1.400 1_565 S
C744 C747 1.386 . S
H745 C761 0.930 . S
H746 C762 0.946 . S
C747 H735 0.929 . S
C747 C741 1.400 . S
C747 C744 1.386 . S
C748 C743 1.490 . S
C748 C750 1.395 1_545 S
C748 C751 1.403 . S
H749 C755 0.930 . S
C750 H736 0.930 . S
C750 C748 1.395 1_565 S
C750 C753 1.405 . S
C751 C748 1.403 . S
C751 C752 1.524 . S
C751 C755 1.400 . S
C752 H737 0.960 . S
C752 H738 0.960 . S
C752 H739 0.960 . S
C752 C751 1.524 . S
C753 C750 1.405 . S
C753 C754 1.379 1_565 S
C753 C757 1.508 . S
C754 C753 1.379 1_545 S
C754 C755 1.385 . S
C754 C756 1.478 . S
C755 H749 0.930 . S
C755 C751 1.400 . S
C755 C754 1.385 . S
C756 C754 1.478 . S
C756 C758 1.381 . S
C756 C762 1.383 . S
C757 C753 1.508 . S
C757 H763 0.959 . S
C757 H764 0.961 . S
C757 H765 0.960 1_554 S
C758 C756 1.381 . S
C758 C759 1.394 1_554 S
C758 H766 0.930 1_554 S
C759 C758 1.394 1_556 S
C759 C760 1.383 1_556 S
C759 H767 0.929 . S
C760 C759 1.383 1_554 S
C760 C761 1.377 . S
C761 H745 0.930 . S
C761 C760 1.377 . S
C761 C762 1.379 . S
C762 H746 0.946 . S
C762 C756 1.383 . S
C762 C761 1.379 . S
H763 C757 0.959 . S
H764 C757 0.961 . S
H765 C757 0.960 1_556 S
H766 C758 0.930 1_556 S
H767 C759 0.929 . S
H768 C776 0.929 . S
H769 C778 0.930 . S
H770 C780 0.930 . S
H771 C783 0.929 . S
H772 C786 0.930 . S
H773 C788 0.960 . S
H774 C788 0.960 . S
H775 C788 0.960 . S
C776 H768 0.929 . S
C776 C777 1.377 . S
C776 C778 1.384 . S
C777 C776 1.377 . S
C777 C783 1.390 . S
C778 H769 0.930 . S
C778 C776 1.384 . S
C778 C779 1.372 . S
C779 C778 1.372 . S
C779 C780 1.400 . S
C779 C784 1.490 . S
C780 H770 0.930 . S
C780 C779 1.400 . S
C780 C783 1.386 . S
H781 C797 0.930 . S
H782 C798 0.931 . S
C783 H771 0.929 . S
C783 C777 1.390 . S
C783 C780 1.386 . S
C784 C779 1.490 . S
C784 C786 1.395 . S
C784 C787 1.403 . S
H785 C791 0.930 . S
C786 H772 0.930 . S
C786 C784 1.395 . S
C786 C789 1.403 . S
C787 C784 1.403 . S
C787 C788 1.524 . S
C787 C791 1.400 . S
C788 H773 0.960 . S
C788 H774 0.960 . S
C788 H775 0.960 . S
C788 C787 1.524 . S
C789 C786 1.403 . S
C789 C790 1.392 . S
C789 C793 1.495 . S
C790 C789 1.392 . S
C790 C791 1.385 . S
C790 C792 1.478 . S
C791 H785 0.930 . S
C791 C787 1.400 . S
C791 C790 1.385 . S
C792 C790 1.478 . S
C792 C794 1.381 . S
C792 C798 1.383 . S
C793 C789 1.495 . S
C793 H799 0.959 . S
C793 H800 0.961 . S
C793 H801 0.960 . S
C794 C792 1.381 . S
C794 C795 1.394 . S
C794 H802 0.930 . S
C795 C794 1.394 . S
C795 C796 1.383 . S
C795 H803 0.929 1_554 S
C796 C795 1.383 . S
C796 C797 1.377 . S
C797 H781 0.930 . S
C797 C796 1.377 . S
C797 C798 1.379 . S
C798 H782 0.931 . S
C798 C792 1.383 . S
C798 C797 1.379 . S
H799 C793 0.959 . S
H800 C793 0.961 . S
H801 C793 0.960 . S
H802 C794 0.930 . S
H803 C795 0.929 1_556 S
H804 C812 0.929 . S
H805 C814 0.930 . S
H806 C816 0.930 . S
H807 C819 0.929 . S
H808 C822 0.930 . S
H809 C824 0.960 . S
H810 C824 0.960 . S
H811 C824 0.960 . S
C812 H804 0.929 . S
C812 C813 1.377 . S
C812 C814 1.384 . S
C813 C812 1.377 . S
C813 C819 1.390 . S
C814 H805 0.930 . S
C814 C812 1.384 . S
C814 C815 1.372 . S
C815 C814 1.372 . S
C815 C816 1.400 . S
C815 C820 1.490 . S
C816 H806 0.930 . S
C816 C815 1.400 . S
C816 C819 1.386 . S
H817 C833 0.930 . S
H818 C834 0.931 1_556 S
C819 H807 0.929 . S
C819 C813 1.390 . S
C819 C816 1.386 . S
C820 C815 1.490 . S
C820 C822 1.395 . S
C820 C823 1.403 . S
H821 C827 0.930 . S
C822 H808 0.930 . S
C822 C820 1.395 . S
C822 C825 1.403 . S
C823 C820 1.403 . S
C823 C824 1.524 . S
C823 C827 1.400 . S
C824 H809 0.960 . S
C824 H810 0.960 . S
C824 H811 0.960 . S
C824 C823 1.524 . S
C825 C822 1.403 . S
C825 C826 1.392 . S
C825 C829 1.495 . S
C826 C825 1.392 . S
C826 C827 1.385 . S
C826 C828 1.478 . S
C827 H821 0.930 . S
C827 C823 1.400 . S
C827 C826 1.385 . S
C828 C826 1.478 . S
C828 C830 1.381 . S
C828 C834 1.383 . S
C829 C825 1.495 . S
C829 H835 0.959 . S
C829 H836 0.961 . S
C829 H837 0.960 . S
C830 C828 1.381 . S
C830 C831 1.394 . S
C830 H838 0.930 . S
C831 C830 1.394 . S
C831 C832 1.383 . S
C831 H839 0.929 . S
C832 C831 1.383 . S
C832 C833 1.377 1_554 S
C833 H817 0.930 . S
C833 C832 1.377 1_556 S
C833 C834 1.379 1_556 S
C834 H818 0.931 1_554 S
C834 C828 1.383 . S
C834 C833 1.379 1_554 S
H835 C829 0.959 . S
H836 C829 0.961 . S
H837 C829 0.960 . S
H838 C830 0.930 . S
H839 C831 0.929 . S
H840 C848 0.929 . S
H841 C850 0.930 1_554 S
H842 C852 0.930 . S
H843 C855 0.929 . S
H844 C858 0.930 . S
H845 C860 0.960 . S
H846 C860 0.960 . S
H847 C860 0.960 . S
C848 H840 0.929 . S
C848 C849 1.377 1_554 S
C848 C850 1.384 1_554 S
C849 C848 1.377 1_556 S
C849 C855 1.390 1_455 S
C850 H841 0.930 1_556 S
C850 C848 1.384 1_556 S
C850 C851 1.372 . S
C851 C850 1.372 . S
C851 C852 1.400 1_455 S
C851 C856 1.490 . S
C852 H842 0.930 . S
C852 C851 1.400 1_655 S
C852 C855 1.386 . S
H853 C869 0.930 . S
H854 C870 0.931 . S
C855 H843 0.929 . S
C855 C849 1.390 1_655 S
C855 C852 1.386 . S
C856 C851 1.490 . S
C856 C858 1.395 1_455 S
C856 C859 1.403 . S
H857 C863 0.930 . S
C858 H844 0.930 . S
C858 C856 1.395 1_655 S
C858 C861 1.403 . S
C859 C856 1.403 . S
C859 C860 1.524 . S
C859 C863 1.400 . S
C860 H845 0.960 . S
C860 H846 0.960 . S
C860 H847 0.960 . S
C860 C859 1.524 . S
C861 C858 1.403 . S
C861 C862 1.392 1_655 S
C861 C865 1.495 . S
C862 C861 1.392 1_455 S
C862 C863 1.385 . S
C862 C864 1.478 . S
C863 H857 0.930 . S
C863 C859 1.400 . S
C863 C862 1.385 . S
C864 C862 1.478 . S
C864 C866 1.381 . S
C864 C870 1.383 1_455 S
C865 C861 1.495 . S
C865 H871 0.959 1_556 S
C865 H872 0.961 . S
C865 H873 0.960 1_556 S
C866 C864 1.381 . S
C866 C867 1.394 . S
C866 H874 0.930 . S
C867 C866 1.394 . S
C867 C868 1.383 . S
C867 H875 0.929 . S
C868 C867 1.383 . S
C868 C869 1.377 1_455 S
C869 H853 0.930 . S
C869 C868 1.377 1_655 S
C869 C870 1.379 . S
C870 H854 0.931 . S
C870 C864 1.383 1_655 S
C870 C869 1.379 . S
H871 C865 0.959 1_554 S
H872 C865 0.961 . S
H873 C865 0.960 1_554 S
H874 C866 0.930 . S
H875 C867 0.929 . S
H876 C884 0.929 . S
H877 C886 0.930 . S
H878 C888 0.930 . S
H879 C891 0.929 . S
H880 C894 0.930 . S
H881 C896 0.960 . S
H882 C896 0.960 . S
H883 C896 0.960 . S
C884 H876 0.929 . S
C884 C885 1.426 . S
C884 C886 1.384 . S
C885 C884 1.426 . S
C885 C891 1.344 1_545 S
C886 H877 0.930 . S
C886 C884 1.384 . S
C886 C887 1.372 . S
C887 C886 1.372 . S
C887 C888 1.400 1_545 S
C887 C892 1.490 . S
C888 H878 0.930 . S
C888 C887 1.400 1_565 S
C888 C891 1.386 . S
H889 C905 0.930 . S
H890 C906 0.931 . S
C891 H879 0.929 . S
C891 C885 1.344 1_565 S
C891 C888 1.386 . S
C892 C887 1.490 . S
C892 C894 1.395 . S
C892 C895 1.403 1_545 S
H893 C899 0.930 . S
C894 H880 0.930 . S
C894 C892 1.395 . S
C894 C897 1.403 . S
C895 C892 1.403 1_565 S
C895 C896 1.524 . S
C895 C899 1.400 . S
C896 H881 0.960 . S
C896 H882 0.960 . S
C896 H883 0.960 . S
C896 C895 1.524 . S
C897 C894 1.403 . S
C897 C898 1.392 . S
C897 C901 1.495 . S
C898 C897 1.392 . S
C898 C899 1.385 1_545 S
C898 C900 1.478 . S
C899 H893 0.930 . S
C899 C895 1.400 . S
C899 C898 1.385 1_565 S
C900 C898 1.478 . S
C900 C902 1.381 . S
C900 C906 1.383 1_545 S
C901 C897 1.495 . S
C901 H907 0.959 1_556 S
C901 H908 0.961 1_556 S
C901 H909 0.960 . S
C902 C900 1.381 . S
C902 C903 1.394 . S
C902 H910 0.930 . S
C903 C902 1.394 . S
C903 C904 1.383 . S
C903 H911 0.929 . S
C904 C903 1.383 . S
C904 C905 1.377 1_545 S
C905 H889 0.930 . S
C905 C904 1.377 1_565 S
C905 C906 1.379 . S
C906 H890 0.931 . S
C906 C900 1.383 1_565 S
C906 C905 1.379 . S
H907 C901 0.959 1_554 S
H908 C901 0.961 1_554 S
H909 C901 0.960 . S
H910 C902 0.930 . S
H911 C903 0.929 . S
H912 C920 0.929 . S
H913 C922 0.930 . S
H914 C924 0.930 1_554 S
H915 C927 0.929 . S
H916 C930 0.930 . S
H917 C932 0.960 . S
H918 C932 0.960 . S
H919 C932 0.960 . S
C920 H912 0.929 . S
C920 C921 1.377 . S
C920 C922 1.384 . S
C921 C920 1.377 . S
C921 C927 1.390 1_556 S
C922 H913 0.930 . S
C922 C920 1.384 . S
C922 C923 1.372 . S
C923 C922 1.372 . S
C923 C924 1.400 . S
C923 C928 1.490 . S
C924 H914 0.930 1_556 S
C924 C923 1.400 . S
C924 C927 1.386 1_556 S
H925 C941 0.930 . S
H926 C942 0.931 . S
C927 H915 0.929 . S
C927 C921 1.390 1_554 S
C927 C924 1.386 1_554 S
C928 C923 1.490 . S
C928 C930 1.395 . S
C928 C931 1.403 . S
H929 C935 0.930 . S
C930 H916 0.930 . S
C930 C928 1.395 . S
C930 C933 1.403 . S
C931 C928 1.403 . S
C931 C932 1.524 . S
C931 C935 1.400 . S
C932 H917 0.960 . S
C932 H918 0.960 . S
C932 H919 0.960 . S
C932 C931 1.524 . S
C933 C930 1.403 . S
C933 C934 1.392 . S
C933 C937 1.495 . S
C934 C933 1.392 . S
C934 C935 1.385 . S
C934 C936 1.478 . S
C935 H929 0.930 . S
C935 C931 1.400 . S
C935 C934 1.385 . S
C936 C934 1.478 . S
C936 C938 1.381 . S
C936 C942 1.383 . S
C937 C933 1.495 . S
C937 H943 0.959 . S
C937 H944 0.961 . S
C937 H945 0.960 . S
C938 C936 1.381 . S
C938 C939 1.394 . S
C938 H946 0.930 . S
C939 C938 1.394 . S
C939 C940 1.383 . S
C939 H947 0.929 . S
C940 C939 1.383 . S
C940 C941 1.377 . S
C941 H925 0.930 . S
C941 C940 1.377 . S
C941 C942 1.379 . S
C942 H926 0.931 . S
C942 C936 1.383 . S
C942 C941 1.379 . S
H943 C937 0.959 . S
H944 C937 0.961 . S
H945 C937 0.960 . S
H946 C938 0.930 . S
H947 C939 0.929 . S
H948 C956 0.929 . S
H949 C958 0.930 . S
H950 C960 0.930 . S
H951 C963 0.929 . S
H952 C966 0.930 . S
H953 C968 0.960 . S
H954 C968 0.960 . S
H955 C968 0.960 . S
C956 H948 0.929 . S
C956 C957 1.377 . S
C956 C958 1.384 . S
C957 C956 1.377 . S
C957 C963 1.390 . S
C958 H949 0.930 . S
C958 C956 1.384 . S
C958 C959 1.372 . S
C959 C958 1.372 . S
C959 C960 1.400 . S
C959 C964 1.490 . S
C960 H950 0.930 . S
C960 C959 1.400 . S
C960 C963 1.386 . S
H961 C977 0.930 . S
H962 C978 0.931 . S
C963 H951 0.929 . S
C963 C957 1.390 . S
C963 C960 1.386 . S
C964 C959 1.490 . S
C964 C966 1.395 . S
C964 C967 1.403 . S
H965 C971 0.930 . S
C966 H952 0.930 . S
C966 C964 1.395 . S
C966 C969 1.403 . S
C967 C964 1.403 . S
C967 C968 1.524 1_556 S
C967 C971 1.400 . S
C968 H953 0.960 . S
C968 H954 0.960 . S
C968 H955 0.960 . S
C968 C967 1.524 1_554 S
C969 C966 1.403 . S
C969 C970 1.392 . S
C969 C973 1.495 . S
C970 C969 1.392 . S
C970 C971 1.385 . S
C970 C972 1.478 . S
C971 H965 0.930 . S
C971 C967 1.400 . S
C971 C970 1.385 . S
C972 C970 1.478 . S
C972 C974 1.381 . S
C972 C978 1.383 . S
C973 C969 1.495 . S
C973 H979 0.959 . S
C973 H980 0.961 . S
C973 H981 0.960 . S
C974 C972 1.381 . S
C974 C975 1.394 . S
C974 H982 0.930 . S
C975 C974 1.394 . S
C975 C976 1.383 . S
C975 H983 0.929 . S
C976 C975 1.383 . S
C976 C977 1.377 . S
C977 H961 0.930 . S
C977 C976 1.377 . S
C977 C978 1.379 . S
C978 H962 0.931 . S
C978 C972 1.383 . S
C978 C977 1.379 . S
H979 C973 0.959 . S
H980 C973 0.961 . S
H981 C973 0.960 . S
H982 C974 0.930 . S
H983 C975 0.929 . S
H984 C992 0.929 . S
H985 C994 0.930 . S
H986 C996 0.930 . S
H987 C999 0.929 . S
H988 C1002 0.930 . S
H989 C1004 0.960 . S
H990 C1004 0.960 . S
H991 C1004 0.960 . S
C992 H984 0.929 . S
C992 C993 1.373 1_455 S
C992 C994 1.384 . S
C993 C992 1.373 1_655 S
C993 C999 1.396 . S
C994 H985 0.930 . S
C994 C992 1.384 . S
C994 C995 1.372 1_455 S
C995 C994 1.372 1_655 S
C995 C996 1.400 . S
C995 C1000 1.490 . S
C996 H986 0.930 . S
C996 C995 1.400 . S
C996 C999 1.386 . S
H997 C1013 0.930 . S
H998 C1014 0.931 . S
C999 H987 0.929 . S
C999 C993 1.396 . S
C999 C996 1.386 . S
C1000 C995 1.490 . S
C1000 C1002 1.395 . S
C1000 C1003 1.403 1_655 S
H1001 C1007 0.930 . S
C1002 H988 0.930 . S
C1002 C1000 1.395 . S
C1002 C1005 1.403 . S
C1003 C1000 1.403 1_455 S
C1003 C1004 1.524 . S
C1003 C1007 1.400 . S
C1004 H989 0.960 . S
C1004 H990 0.960 . S
C1004 H991 0.960 . S
C1004 C1003 1.524 . S
C1005 C1002 1.403 . S
C1005 C1006 1.392 . S
C1005 C1009 1.495 . S
C1006 C1005 1.392 . S
C1006 C1007 1.385 1_655 S
C1006 C1008 1.478 . S
C1007 H1001 0.930 . S
C1007 C1003 1.400 . S
C1007 C1006 1.385 1_455 S
C1008 C1006 1.478 . S
C1008 C1010 1.381 . S
C1008 C1014 1.383 . S
C1009 C1005 1.495 . S
C1009 H1015 0.959 . S
C1009 H1016 0.961 . S
C1009 H1017 0.960 . S
C1010 C1008 1.381 . S
C1010 C1011 1.394 . S
C1010 H1018 0.930 1_655 S
C1011 C1010 1.394 . S
C1011 C1012 1.383 . S
C1011 H1019 0.929 1_655 S
C1012 C1011 1.383 . S
C1012 C1013 1.377 . S
C1013 H997 0.930 . S
C1013 C1012 1.377 . S
C1013 C1014 1.379 . S
C1014 H998 0.931 . S
C1014 C1008 1.383 . S
C1014 C1013 1.379 . S
H1015 C1009 0.959 . S
H1016 C1009 0.961 . S
H1017 C1009 0.960 . S
H1018 C1010 0.930 1_455 S
H1019 C1011 0.929 1_455 S
H1020 C1028 0.929 . S
H1021 C1030 0.930 . S
H1022 C1032 0.930 . S
H1023 C1035 0.929 . S
H1024 C1038 0.930 . S
H1025 C1040 0.960 . S
H1026 C1040 0.960 . S
H1027 C1040 0.960 . S
C1028 H1020 0.929 . S
C1028 C1029 1.357 1_545 S
C1028 C1030 1.384 . S
C1029 C1028 1.357 1_565 S
C1029 C1035 1.411 . S
C1030 H1021 0.930 . S
C1030 C1028 1.384 . S
C1030 C1031 1.372 1_545 S
C1031 C1030 1.372 1_565 S
C1031 C1032 1.400 . S
C1031 C1036 1.490 . S
C1032 H1022 0.930 . S
C1032 C1031 1.400 . S
C1032 C1035 1.386 . S
H1033 C1049 0.930 . S
H1034 C1050 0.931 . S
C1035 H1023 0.929 . S
C1035 C1029 1.411 . S
C1035 C1032 1.386 . S
C1036 C1031 1.490 . S
C1036 C1038 1.395 1_565 S
C1036 C1039 1.403 . S
H1037 C1043 0.930 . S
C1038 H1024 0.930 . S
C1038 C1036 1.395 1_545 S
C1038 C1041 1.403 . S
C1039 C1036 1.403 . S
C1039 C1040 1.524 . S
C1039 C1043 1.400 . S
C1040 H1025 0.960 . S
C1040 H1026 0.960 . S
C1040 H1027 0.960 . S
C1040 C1039 1.524 . S
C1041 C1038 1.403 . S
C1041 C1042 1.392 1_545 S
C1041 C1045 1.495 . S
C1042 C1041 1.392 1_565 S
C1042 C1043 1.385 . S
C1042 C1044 1.478 . S
C1043 H1037 0.930 . S
C1043 C1039 1.400 . S
C1043 C1042 1.385 . S
C1044 C1042 1.478 . S
C1044 C1046 1.381 1_565 S
C1044 C1050 1.383 . S
C1045 C1041 1.495 . S
C1045 H1051 0.959 . S
C1045 H1052 0.961 . S
C1045 H1053 0.960 . S
C1046 C1044 1.381 1_545 S
C1046 C1047 1.394 . S
C1046 H1054 0.930 . S
C1047 C1046 1.394 . S
C1047 C1048 1.383 1_545 S
C1047 H1055 0.929 . S
C1048 C1047 1.383 1_565 S
C1048 C1049 1.377 . S
C1049 H1033 0.930 . S
C1049 C1048 1.377 . S
C1049 C1050 1.379 . S
C1050 H1034 0.931 . S
C1050 C1044 1.383 . S
C1050 C1049 1.379 . S
H1051 C1045 0.959 . S
H1052 C1045 0.961 . S
H1053 C1045 0.960 . S
H1054 C1046 0.930 . S
H1055 C1047 0.929 . S
H1056 C1064 0.929 . S
H1057 C1066 0.930 . S
H1058 C1068 0.930 . S
H1059 C1071 0.929 . S
H1060 C1074 0.930 . S
H1061 C1076 0.960 . S
H1062 C1076 0.960 . S
H1063 C1076 0.960 . S
C1064 H1056 0.929 . S
C1064 C1065 1.377 . S
C1064 C1066 1.384 . S
C1065 C1064 1.377 . S
C1065 C1071 1.390 . S
C1066 H1057 0.930 . S
C1066 C1064 1.384 . S
C1066 C1067 1.372 . S
C1067 C1066 1.372 . S
C1067 C1068 1.400 . S
C1067 C1072 1.490 . S
C1068 H1058 0.930 . S
C1068 C1067 1.400 . S
C1068 C1071 1.386 . S
H1069 C1085 0.930 . S
H1070 C1086 0.931 . S
C1071 H1059 0.929 . S
C1071 C1065 1.390 . S
C1071 C1068 1.386 . S
C1072 C1067 1.490 . S
C1072 C1074 1.395 . S
C1072 C1075 1.403 . S
H1073 C1079 0.930 . S
C1074 H1060 0.930 . S
C1074 C1072 1.395 . S
C1074 C1077 1.403 . S
C1075 C1072 1.403 . S
C1075 C1076 1.524 . S
C1075 C1079 1.400 . S
C1076 H1061 0.960 . S
C1076 H1062 0.960 . S
C1076 H1063 0.960 . S
C1076 C1075 1.524 . S
C1077 C1074 1.403 . S
C1077 C1078 1.392 . S
C1077 C1081 1.495 . S
C1078 C1077 1.392 . S
C1078 C1079 1.385 . S
C1078 C1080 1.478 . S
C1079 H1073 0.930 . S
C1079 C1075 1.400 . S
C1079 C1078 1.385 . S
C1080 C1078 1.478 . S
C1080 C1082 1.381 . S
C1080 C1086 1.383 . S
C1081 C1077 1.495 . S
C1081 H1087 0.959 . S
C1081 H1088 0.961 . S
C1081 H1089 0.960 . S
C1082 C1080 1.381 . S
C1082 C1083 1.394 . S
C1082 H1090 0.930 . S
C1083 C1082 1.394 . S
C1083 C1084 1.383 . S
C1083 H1091 0.929 . S
C1084 C1083 1.383 . S
C1084 C1085 1.377 . S
C1085 H1069 0.930 . S
C1085 C1084 1.377 . S
C1085 C1086 1.379 . S
C1086 H1070 0.931 . S
C1086 C1080 1.383 . S
C1086 C1085 1.379 . S
H1087 C1081 0.959 . S
H1088 C1081 0.961 . S
H1089 C1081 0.960 . S
H1090 C1082 0.930 . S
H1091 C1083 0.929 . S
H1092 C1100 0.929 . S
H1093 C1102 0.930 . S
H1094 C1104 0.930 . S
H1095 C1107 0.929 . S
H1096 C1110 0.930 . S
H1097 C1112 0.960 . S
H1098 C1112 0.960 . S
H1099 C1112 0.960 . S
C1100 H1092 0.929 . S
C1100 C1101 1.377 . S
C1100 C1102 1.384 . S
C1101 C1100 1.377 . S
C1101 C1107 1.390 . S
C1102 H1093 0.930 . S
C1102 C1100 1.384 . S
C1102 C1103 1.372 . S
C1103 C1102 1.372 . S
C1103 C1104 1.400 . S
C1103 C1108 1.490 . S
C1104 H1094 0.930 . S
C1104 C1103 1.400 . S
C1104 C1107 1.386 . S
H1105 C1121 0.930 . S
H1106 C1122 0.931 . S
C1107 H1095 0.929 . S
C1107 C1101 1.390 . S
C1107 C1104 1.386 . S
C1108 C1103 1.490 . S
C1108 C1110 1.395 . S
C1108 C1111 1.403 . S
H1109 C1115 0.930 . S
C1110 H1096 0.930 . S
C1110 C1108 1.395 . S
C1110 C1113 1.403 . S
C1111 C1108 1.403 . S
C1111 C1112 1.524 . S
C1111 C1115 1.400 . S
C1112 H1097 0.960 . S
C1112 H1098 0.960 . S
C1112 H1099 0.960 . S
C1112 C1111 1.524 . S
C1113 C1110 1.403 . S
C1113 C1114 1.392 . S
C1113 C1117 1.495 . S
C1114 C1113 1.392 . S
C1114 C1115 1.385 . S
C1114 C1116 1.478 . S
C1115 H1109 0.930 . S
C1115 C1111 1.400 . S
C1115 C1114 1.385 . S
C1116 C1114 1.478 . S
C1116 C1118 1.381 . S
C1116 C1122 1.383 . S
C1117 C1113 1.495 . S
C1117 H1123 0.959 . S
C1117 H1124 0.961 . S
C1117 H1125 0.960 . S
C1118 C1116 1.381 . S
C1118 C1119 1.394 . S
C1118 H1126 0.930 . S
C1119 C1118 1.394 . S
C1119 C1120 1.383 . S
C1119 H1127 0.929 . S
C1120 C1119 1.383 . S
C1120 C1121 1.377 . S
C1121 H1105 0.930 . S
C1121 C1120 1.377 . S
C1121 C1122 1.379 . S
C1122 H1106 0.931 . S
C1122 C1116 1.383 . S
C1122 C1121 1.379 . S
H1123 C1117 0.959 . S
H1124 C1117 0.961 . S
H1125 C1117 0.960 . S
H1126 C1118 0.930 . S
H1127 C1119 0.929 . S
C273 N80 1.812 1_545 S
C292 C106 1.855 . S
C328 C146 1.857 . S
C309 N93 1.815 . S
C364 C186 1.862 . S
C345 N54 1.823 . S
C400 C226 1.852 1_455 S
C381 N67 1.819 . S
C436 C119 1.866 1_565 S
C417 N28 1.818 1_545 S
C453 N41 1.818 . S
C472 C159 1.874 . S
C489 N2 1.816 . S
C508 C199 1.861 . S
C525 N15 1.818 1_455 S
C544 C239 1.871 1_655 S
C580 C130 0.298 . S
C561 N70 0.248 1_455 S
C616 C170 0.227 . S
C597 N83 0.232 1_545 S
C652 C210 0.220 . S
C633 N96 0.255 . S
C669 N57 0.246 . S
C688 C250 0.302 . S
C705 N18 0.229 . S
C724 C113 0.215 . S
C760 C153 0.248 . S
C741 N31 0.231 . S
C796 C193 0.229 . S
C777 N44 0.248 . S
C813 N5 0.250 . S
C832 C233 0.309 . S
C849 N66 2.002 1_456 S
C868 C107 2.069 . S
C885 N79 1.991 1_546 S
C904 C147 2.071 . S
C940 C187 2.063 . S
C921 N92 1.979 1_556 S
C976 C227 2.066 . S
C957 N53 1.985 1_556 S
C993 N14 2.001 . S
C1012 C126 2.094 . S
C1048 C166 2.064 . S
C1029 N27 1.991 . S
C1084 C206 2.061 . S
C1065 N40 1.971 . S
C1101 N1 1.990 . S
C1120 C246 2.074 . S
