# Generated by pormake.
# Topology zzz, (3,6)-cn, num edge types: 1
# Building blocks:
#     Node 0, Type 0, BuildingBlock: KAKCAD_clean_linker_0, # of connection points: 3
#     Node 1, Type 0, BuildingBlock: KAKCAD_clean_linker_0, # of connection points: 3
#     Node 2, Type 0, BuildingBlock: KAKCAD_clean_linker_0, # of connection points: 3
#     Node 3, Type 0, BuildingBlock: KAKCAD_clean_linker_0, # of connection points: 3
#     Node 4, Type 0, BuildingBlock: KAKCAD_clean_linker_0, # of connection points: 3
#     Node 5, Type 0, BuildingBlock: KAKCAD_clean_linker_0, # of connection points: 3
#     Node 6, Type 0, BuildingBlock: KAKCAD_clean_linker_0, # of connection points: 3
#     Node 7, Type 0, BuildingBlock: KAKCAD_clean_linker_0, # of connection points: 3
#     Node 8, Type 1, BuildingBlock: KUMBOL_clean_sbu_0, # of connection points: 6
#     Node 9, Type 1, BuildingBlock: KUMBOL_clean_sbu_0, # of connection points: 6
#     Node 10, Type 1, BuildingBlock: KUMBOL_clean_sbu_0, # of connection points: 6
#     Node 11, Type 1, BuildingBlock: KUMBOL_clean_sbu_0, # of connection points: 6
#     Edge 12, Type (0, 1), BuildingBlock: MIFKUJ_clean_linker_0, # of connection points: 2
#     Edge 13, Type (0, 1), BuildingBlock: MIFKUJ_clean_linker_0, # of connection points: 2
#     Edge 14, Type (0, 1), BuildingBlock: MIFKUJ_clean_linker_0, # of connection points: 2
#     Edge 15, Type (0, 1), BuildingBlock: MIFKUJ_clean_linker_0, # of connection points: 2
#     Edge 16, Type (0, 1), BuildingBlock: MIFKUJ_clean_linker_0, # of connection points: 2
#     Edge 17, Type (0, 1), BuildingBlock: MIFKUJ_clean_linker_0, # of connection points: 2
#     Edge 18, Type (0, 1), BuildingBlock: MIFKUJ_clean_linker_0, # of connection points: 2
#     Edge 19, Type (0, 1), BuildingBlock: MIFKUJ_clean_linker_0, # of connection points: 2
#     Edge 20, Type (0, 1), BuildingBlock: MIFKUJ_clean_linker_0, # of connection points: 2
#     Edge 21, Type (0, 1), BuildingBlock: MIFKUJ_clean_linker_0, # of connection points: 2
#     Edge 22, Type (0, 1), BuildingBlock: MIFKUJ_clean_linker_0, # of connection points: 2
#     Edge 23, Type (0, 1), BuildingBlock: MIFKUJ_clean_linker_0, # of connection points: 2
#     Edge 24, Type (0, 1), BuildingBlock: MIFKUJ_clean_linker_0, # of connection points: 2
#     Edge 25, Type (0, 1), BuildingBlock: MIFKUJ_clean_linker_0, # of connection points: 2
#     Edge 26, Type (0, 1), BuildingBlock: MIFKUJ_clean_linker_0, # of connection points: 2
#     Edge 27, Type (0, 1), BuildingBlock: MIFKUJ_clean_linker_0, # of connection points: 2
#     Edge 28, Type (0, 1), BuildingBlock: MIFKUJ_clean_linker_0, # of connection points: 2
#     Edge 29, Type (0, 1), BuildingBlock: MIFKUJ_clean_linker_0, # of connection points: 2
#     Edge 30, Type (0, 1), BuildingBlock: MIFKUJ_clean_linker_0, # of connection points: 2
#     Edge 31, Type (0, 1), BuildingBlock: MIFKUJ_clean_linker_0, # of connection points: 2
#     Edge 32, Type (0, 1), BuildingBlock: MIFKUJ_clean_linker_0, # of connection points: 2
#     Edge 33, Type (0, 1), BuildingBlock: MIFKUJ_clean_linker_0, # of connection points: 2
#     Edge 34, Type (0, 1), BuildingBlock: MIFKUJ_clean_linker_0, # of connection points: 2
#     Edge 35, Type (0, 1), BuildingBlock: MIFKUJ_clean_linker_0, # of connection points: 2
# Relax obj value: 0.271
# Max RMSD: 0.226
# Mean RMSD: 0.209
data_MOF--net-zzz--node1-KUMBOL_clean_sbu_0--node2-KAKCAD_clean_linker_0--edge1-MIFKUJ_clean_linker_0
_symmetry_space_group_name_H-M    P1
_symmetry_Int_Tables_number       1
_symmetry_cell_setting            triclinic
loop_
_symmetry_equiv_pos_as_xyz
'x, y, z'
_cell_length_a     71.318018
_cell_length_b     71.409279
_cell_length_c     24.862847
_cell_angle_alpha  90.509169
_cell_angle_beta   90.050592
_cell_angle_gamma 90.031481
loop_
_atom_site_label
_atom_site_type_symbol
_atom_site_fract_x
_atom_site_fract_y
_atom_site_fract_z
_atom_type_partial_charge
C0 C 0.78263 0.60293 0.99001 0.0
C1 C 0.79958 0.59296 0.99256 0.0
C2 C 0.76855 0.59967 0.02806 0.0
C3 C 0.77135 0.58636 0.06858 0.0
C4 C 0.78812 0.57612 0.06975 0.0
C5 C 0.80207 0.57943 0.03242 0.0
C6 C 0.75699 0.58237 0.10956 0.0
C7 C 0.7384 0.57886 0.09508 0.0
C8 C 0.7258 0.57104 0.13206 0.0
C9 C 0.73226 0.56644 0.18449 0.0
C10 C 0.7509 0.571 0.19989 0.0
C11 C 0.76273 0.57938 0.16242 0.0
C12 C 0.75995 0.56603 0.2519 0.0
C13 C 0.76746 0.58062 0.28381 0.0
C14 C 0.76718 0.54786 0.25856 0.0
C15 C 0.78246 0.54467 0.29319 0.0
C16 C 0.79091 0.55962 0.32136 0.0
C17 C 0.70659 0.56686 0.11178 0.0
C18 C 0.6949 0.58173 0.09611 0.0
C19 C 0.70188 0.5486 0.09518 0.0
C20 C 0.68636 0.54541 0.06141 0.0
C21 C 0.67509 0.56038 0.04401 0.0
C22 C 0.67921 0.5785 0.06315 0.0
C23 C 0.78285 0.57749 0.31772 0.0
H24 H 0.78036 0.61324 0.95899 0.0
H25 H 0.75563 0.6076 0.02614 0.0
H26 H 0.79041 0.56527 0.09923 0.0
H27 H 0.8147 0.57101 0.03408 0.0
H28 H 0.73395 0.58114 0.05391 0.0
H29 H 0.77712 0.58248 0.17365 0.0
H30 H 0.72298 0.55961 0.21263 0.0
H31 H 0.76263 0.59486 0.27831 0.0
H32 H 0.76224 0.53649 0.23313 0.0
H33 H 0.78855 0.5308 0.29484 0.0
H34 H 0.69853 0.59601 0.10689 0.0
H35 H 0.71093 0.53697 0.10532 0.0
H36 H 0.78916 0.58927 0.33873 0.0
H37 H 0.67095 0.59035 0.05007 0.0
H38 H 0.68349 0.53127 0.04751 0.0
C39 C 0.92446 0.7777 0.98878 0.0
C40 C 0.92958 0.79644 0.99644 0.0
C41 C 0.92544 0.76525 0.03187 0.0
C42 C 0.93242 0.7713 0.08233 0.0
C43 C 0.93567 0.79065 0.09014 0.0
C44 C 0.93399 0.80304 0.04788 0.0
C45 C 0.93968 0.75773 0.12288 0.0
C46 C 0.94641 0.74007 0.10691 0.0
C47 C 0.95785 0.72937 0.14081 0.0
C48 C 0.964 0.73732 0.19036 0.0
C49 C 0.95653 0.75477 0.20787 0.0
C50 C 0.94327 0.76376 0.17565 0.0
C51 C 0.96367 0.76606 0.25445 0.0
C52 C 0.9509 0.77234 0.29382 0.0
C53 C 0.98071 0.77578 0.24923 0.0
C54 C 0.98425 0.79215 0.27957 0.0
C55 C 0.97081 0.79929 0.31606 0.0
C56 C 0.96324 0.71037 0.1205 0.0
C57 C 0.94893 0.69738 0.1088 0.0
C58 C 0.98131 0.70676 0.10055 0.0
C59 C 0.98474 0.69096 0.06759 0.0
C60 C 0.97013 0.67843 0.05348 0.0
C61 C 0.95229 0.6817 0.07593 0.0
C62 C 0.95441 0.78865 0.32418 0.0
H63 H 0.92101 0.77245 0.94897 0.0
H64 H 0.92197 0.75073 0.02428 0.0
H65 H 0.94133 0.79636 0.12709 0.0
H66 H 0.93812 0.81752 0.05417 0.0
H67 H 0.94369 0.73476 0.06676 0.0
H68 H 0.93714 0.77669 0.19033 0.0
H69 H 0.97412 0.73002 0.21496 0.0
H70 H 0.93743 0.76548 0.29789 0.0
H71 H 0.99056 0.77175 0.21806 0.0
H72 H 0.99699 0.79988 0.27154 0.0
H73 H 0.93474 0.70003 0.12247 0.0
H74 H 0.99252 0.71672 0.10772 0.0
H75 H 0.94385 0.79331 0.35254 0.0
H76 H 0.94054 0.67273 0.06579 0.0
H77 H 0.99875 0.68886 0.05201 0.0
C78 C 0.7465 0.9325 0.99778 0.0
C79 C 0.73197 0.94554 0.9919 0.0
C80 C 0.75875 0.9341 0.04154 0.0
C81 C 0.75633 0.94866 0.07921 0.0
C82 C 0.74232 0.96209 0.07153 0.0
C83 C 0.73027 0.96057 0.02816 0.0
C84 C 0.76825 0.95045 0.12685 0.0
C85 C 0.78738 0.9534 0.12109 0.0
C86 C 0.79824 0.95964 0.16462 0.0
C87 C 0.78952 0.96262 0.2156 0.0
C88 C 0.7701 0.95852 0.22194 0.0
C89 C 0.75986 0.95243 0.17713 0.0
C90 C 0.75887 0.96136 0.27209 0.0
C91 C 0.74929 0.94584 0.29337 0.0
C92 C 0.7525 0.97938 0.28627 0.0
C93 C 0.73625 0.98176 0.31787 0.0
C94 C 0.7258 0.96616 0.3353 0.0
C95 C 0.81806 0.96424 0.15139 0.0
C96 C 0.83057 0.9495 0.13993 0.0
C97 C 0.82218 0.98207 0.13106 0.0
C98 C 0.83772 0.98483 0.09728 0.0
C99 C 0.84956 0.9698 0.08278 0.0
C100 C 0.84617 0.95226 0.1064 0.0
C101 C 0.73298 0.94819 0.32422 0.0
H102 H 0.74795 0.9209 0.96975 0.0
H103 H 0.76971 0.92378 0.04684 0.0
H104 H 0.7406 0.9737 0.09948 0.0
H105 H 0.71932 0.97096 0.02345 0.0
H106 H 0.79364 0.9521 0.08142 0.0
H107 H 0.74485 0.95014 0.18069 0.0
H108 H 0.79761 0.96797 0.24926 0.0
H109 H 0.75349 0.93177 0.28202 0.0
H110 H 0.75911 0.9916 0.26906 0.0
H111 H 0.73111 0.99581 0.32533 0.0
H112 H 0.82736 0.93544 0.15312 0.0
H113 H 0.81246 0.99353 0.13743 0.0
H114 H 0.7255 0.93585 0.33741 0.0
H115 H 0.85478 0.94028 0.09592 0.0
H116 H 0.83995 0.9986 0.08056 0.0
C117 C 0.55051 0.74263 0.30779 0.0
C118 C 0.56487 0.73007 0.32306 0.0
C119 C 0.55414 0.75746 0.27234 0.0
C120 C 0.57227 0.76031 0.25208 0.0
C121 C 0.58687 0.74894 0.2713 0.0
C122 C 0.58324 0.73396 0.30556 0.0
C123 C 0.57543 0.77119 0.20193 0.0
C124 C 0.57062 0.79033 0.19528 0.0
C125 C 0.57441 0.79927 0.14562 0.0
C126 C 0.58201 0.78873 0.1031 0.0
C127 C 0.58611 0.76982 0.10891 0.0
C128 C 0.58303 0.76124 0.15822 0.0
C129 C 0.59147 0.7584 0.06185 0.0
C130 C 0.58077 0.7595 0.01464 0.0
C131 C 0.60556 0.74479 0.06594 0.0
C132 C 0.60787 0.7315 0.02513 0.0
C133 C 0.59597 0.73155 0.98006 0.0
C134 C 0.57026 0.81926 0.1339 0.0
C135 C 0.55175 0.82591 0.13304 0.0
C136 C 0.58429 0.83008 0.10941 0.0
C137 C 0.57975 0.846 0.07989 0.0
C138 C 0.56101 0.85205 0.07512 0.0
C139 C 0.54721 0.84222 0.10446 0.0
C140 C 0.58297 0.74617 0.97413 0.0
H141 H 0.53625 0.74063 0.32142 0.0
H142 H 0.54255 0.76584 0.25792 0.0
H143 H 0.601 0.75069 0.25612 0.0
H144 H 0.5948 0.72478 0.31515 0.0
H145 H 0.56446 0.79818 0.22826 0.0
H146 H 0.58571 0.74635 0.16185 0.0
H147 H 0.58433 0.79521 0.06434 0.0
H148 H 0.56967 0.76976 0.0108 0.0
H149 H 0.61411 0.74386 0.10185 0.0
H150 H 0.61817 0.72051 0.03036 0.0
H151 H 0.54061 0.81778 0.15101 0.0
H152 H 0.59868 0.82521 0.10893 0.0
H153 H 0.57334 0.74645 0.94044 0.0
H154 H 0.53269 0.84659 0.10363 0.0
H155 H 0.59095 0.85266 0.05788 0.0
C156 C 0.25154 0.42981 0.19666 0.0
C157 C 0.23337 0.42323 0.18615 0.0
C158 C 0.2645 0.43119 0.15523 0.0
C159 C 0.25979 0.4253 0.10269 0.0
C160 C 0.24273 0.41572 0.09472 0.0
C161 C 0.22946 0.415 0.13587 0.0
C162 C 0.27073 0.43248 0.05618 0.0
C163 C 0.28963 0.43725 0.06228 0.0
C164 C 0.29841 0.44958 0.02683 0.0
C165 C 0.28866 0.45563 0.98033 0.0
C166 C 0.27021 0.44901 0.97022 0.0
C167 C 0.26139 0.438 0.00928 0.0
C168 C 0.25868 0.45391 0.92199 0.0
C169 C 0.25397 0.47252 0.91024 0.0
C170 C 0.24894 0.43949 0.89497 0.0
C171 C 0.23389 0.44341 0.86075 0.0
C172 C 0.22821 0.46199 0.85119 0.0
C173 C 0.31643 0.45767 0.04619 0.0
C174 C 0.31565 0.47217 0.08458 0.0
C175 C 0.33311 0.44734 0.04149 0.0
C176 C 0.34845 0.45106 0.07558 0.0
C177 C 0.34734 0.46487 0.11657 0.0
C178 C 0.33074 0.47562 0.11946 0.0
C179 C 0.23901 0.47652 0.87499 0.0
H180 H 0.25515 0.43564 0.23571 0.0
H181 H 0.27739 0.43859 0.16395 0.0
H182 H 0.23892 0.41018 0.05554 0.0
H183 H 0.21564 0.40956 0.12665 0.0
H184 H 0.29726 0.43268 0.09755 0.0
H185 H 0.24664 0.43482 1.00424 0.0
H186 H 0.29525 0.46529 0.95283 0.0
H187 H 0.26104 0.48395 0.93078 0.0
H188 H 0.25213 0.42497 0.90341 0.0
H189 H 0.2261 0.43166 0.84455 0.0
H190 H 0.3027 0.47981 0.09081 0.0
H191 H 0.33386 0.43561 0.01363 0.0
H192 H 0.2356 0.49105 0.86791 0.0
H193 H 0.32874 0.48605 0.15071 0.0
H194 H 0.36094 0.44264 0.07064 0.0
C195 C 0.08502 0.25067 0.18272 0.0
C196 C 0.09507 0.23432 0.17039 0.0
C197 C 0.08235 0.26424 0.14375 0.0
C198 C 0.08984 0.26176 0.09187 0.0
C199 C 0.10212 0.2467 0.08221 0.0
C200 C 0.10458 0.23295 0.12111 0.0
C201 C 0.08151 0.27227 0.04656 0.0
C202 C 0.0755 0.29069 0.05409 0.0
C203 C 0.06251 0.29889 0.0192 0.0
C204 C 0.0566 0.28872 0.9725 0.0
C205 C 0.06404 0.27052 0.96184 0.0
C206 C 0.07612 0.26258 0.99992 0.0
C207 C 0.05904 0.25819 0.91453 0.0
C208 C 0.04056 0.2522 0.90495 0.0
C209 C 0.07356 0.24874 0.88712 0.0
C210 C 0.07 0.23288 0.85505 0.0
C211 C 0.05162 0.22598 0.84757 0.0
C212 C 0.05425 0.31694 0.03882 0.0
C213 C 0.04271 0.31641 0.08473 0.0
C214 C 0.0625 0.33417 0.02513 0.0
C215 C 0.05983 0.35024 0.05777 0.0
C216 C 0.0493 0.34927 0.10559 0.0
C217 C 0.0404 0.33227 0.11784 0.0
C218 C 0.03688 0.23649 0.87157 0.0
H219 H 0.0774 0.25204 0.22024 0.0
H220 H 0.0727 0.27553 0.15283 0.0
H221 H 0.1085 0.24468 0.04307 0.0
H222 H 0.1126 0.22052 0.11106 0.0
H223 H 0.07982 0.2983 0.09 0.0
H224 H 0.08029 0.24807 0.99478 0.0
H225 H 0.04638 0.29475 0.9455 0.0
H226 H 0.02903 0.25893 0.92582 0.0
H227 H 0.08802 0.25282 0.89383 0.0
H228 H 0.082 0.22555 0.83885 0.0
H229 H 0.03672 0.30324 0.09758 0.0
H230 H 0.07208 0.33489 0.99144 0.0
H231 H 0.02242 0.23235 0.86615 0.0
H232 H 0.03224 0.33104 0.15436 0.0
H233 H 0.067 0.3631 0.04751 0.0
C234 C 0.28016 0.08056 0.17777 0.0
C235 C 0.29486 0.09351 0.17198 0.0
C236 C 0.26698 0.07817 0.13717 0.0
C237 C 0.26826 0.08857 0.08971 0.0
C238 C 0.28198 0.10258 0.08554 0.0
C239 C 0.29514 0.10511 0.12656 0.0
C240 C 0.25733 0.08246 0.04235 0.0
C241 C 0.23865 0.07715 0.0482 0.0
C242 C 0.2294 0.06691 0.00793 0.0
C243 C 0.23907 0.06234 0.95965 0.0
C244 C 0.25771 0.06882 0.95205 0.0
C245 C 0.26655 0.07876 0.99389 0.0
C246 C 0.26943 0.06461 0.9037 0.0
C247 C 0.27479 0.04616 0.89112 0.0
C248 C 0.27907 0.07941 0.87879 0.0
C249 C 0.29452 0.07596 0.84546 0.0
C250 C 0.30077 0.05758 0.83568 0.0
C251 C 0.2104 0.06006 0.0222 0.0
C252 C 0.2088 0.04307 0.04986 0.0
C253 C 0.1956 0.07302 0.02607 0.0
C254 C 0.18013 0.0696 0.05949 0.0
C255 C 0.17922 0.05322 0.09048 0.0
C256 C 0.19341 0.03968 0.08353 0.0
C257 C 0.29026 0.04267 0.8573 0.0
H258 H 0.27964 0.07111 0.21154 0.0
H259 H 0.25675 0.06705 0.14116 0.0
H260 H 0.28312 0.11087 0.04941 0.0
H261 H 0.30612 0.11541 0.12136 0.0
H262 H 0.23153 0.08003 0.08597 0.0
H263 H 0.28124 0.08248 0.99004 0.0
H264 H 0.23224 0.05399 0.92877 0.0
H265 H 0.26795 0.03449 0.91056 0.0
H266 H 0.27539 0.0938 0.8881 0.0
H267 H 0.30197 0.08778 0.8288 0.0
H268 H 0.22026 0.03312 0.04918 0.0
H269 H 0.19679 0.08653 0.00684 0.0
H270 H 0.29468 0.02832 0.85084 0.0
H271 H 0.19307 0.02678 0.1061 0.0
H272 H 0.16959 0.08041 0.06399 0.0
C273 C 0.44449 0.28563 0.83233 0.0
C274 C 0.46076 0.29642 0.8406 0.0
C275 C 0.44053 0.27036 0.8656 0.0
C276 C 0.45298 0.26529 0.90687 0.0
C277 C 0.46995 0.27515 0.9122 0.0
C278 C 0.47374 0.29063 0.87969 0.0
C279 C 0.44591 0.25484 0.95399 0.0
C280 C 0.45341 0.23753 0.97079 0.0
C281 C 0.44892 0.23063 0.0223 0.0
C282 C 0.43815 0.24169 0.0574 0.0
C283 C 0.43112 0.25915 0.04165 0.0
C284 C 0.43387 0.26477 0.98838 0.0
C285 C 0.42461 0.27291 0.08304 0.0
C286 C 0.41692 0.26692 0.13226 0.0
C287 C 0.42913 0.29202 0.07735 0.0
C288 C 0.42752 0.30433 0.12062 0.0
C289 C 0.42185 0.29776 0.17081 0.0
C290 C 0.45666 0.21296 0.0441 0.0
C291 C 0.4483 0.19569 0.03132 0.0
C292 C 0.46926 0.21391 0.08742 0.0
C293 C 0.47283 0.19818 0.11888 0.0
C294 C 0.46395 0.18092 0.10784 0.0
C295 C 0.45198 0.17981 0.06265 0.0
C296 C 0.41599 0.27918 0.17628 0.0
H297 H 0.43418 0.28982 0.80278 0.0
H298 H 0.42709 0.2634 0.86182 0.0
H299 H 0.4795 0.27195 0.94476 0.0
H300 H 0.48644 0.29861 0.88677 0.0
H301 H 0.46306 0.22992 0.94507 0.0
H302 H 0.4282 0.27801 0.97495 0.0
H303 H 0.4364 0.23701 0.0984 0.0
H304 H 0.41274 0.25251 0.13798 0.0
H305 H 0.43552 0.29739 0.04119 0.0
H306 H 0.43242 0.31861 0.11617 0.0
H307 H 0.43815 0.19471 0.99899 0.0
H308 H 0.47547 0.2272 0.09902 0.0
H309 H 0.41171 0.27395 0.21514 0.0
H310 H 0.44504 0.16679 0.05216 0.0
H311 H 0.48181 0.19992 0.15367 0.0
Gd312 Gd 0.99433 0.01889 0.53652 0.0
Gd313 Gd 0.03128 1.00395 0.62655 0.0
C314 C 0.04713 0.04669 0.75704 0.0
C315 C 0.0796 0.05341 0.73581 0.0
C316 C 0.06151 0.03197 0.67936 0.0
C317 C 0.04594 0.03474 0.71162 0.0
C318 C 0.07863 0.04102 0.69187 0.0
C319 C 0.06393 0.05611 0.76859 0.0
C320 C 0.03154 0.04842 0.79054 0.0
C321 C 0.0152 0.03876 0.7783 0.0
N322 N 0.02987 0.02526 0.70004 0.0
C323 C 0.01464 0.02712 0.73317 0.0
H324 H 1.00179 0.01994 0.72583 0.0
C325 C 0.07648 0.01357 0.61314 0.0
N326 N 0.06039 0.01939 0.63834 0.0
C327 C 0.09358 0.02247 0.62288 0.0
C328 C 0.09459 0.03656 0.66179 0.0
H329 H 0.07623 1.00171 0.58591 0.0
H330 H 0.06511 0.06517 0.80353 0.0
H331 H 0.0217 0.99673 0.43891 0.0
H332 H 0.03204 0.05678 0.8266 0.0
H333 H 1.00305 0.04014 0.80393 0.0
H334 H 0.09262 0.06044 0.74598 0.0
H335 H 0.95057 0.0252 0.58315 0.0
H336 H 0.98687 0.96032 0.34842 0.0
H337 H 0.01766 0.97483 0.36577 0.0
H338 H 0.9266 0.96677 0.42916 0.0
H339 H 0.10605 0.01808 0.60145 0.0
H340 H 0.10796 0.04318 0.67025 0.0
H341 H 0.95319 0.95727 0.3726 0.0
H342 H 0.91902 0.01179 0.57095 0.0
N343 N 0.99302 0.99614 0.46548 0.0
C344 C 0.98839 0.97038 0.381 0.0
C345 C 1.00574 0.97858 0.39054 0.0
C346 C 0.97319 0.97528 0.41347 0.0
C347 C 0.97588 0.98843 0.45572 0.0
C348 C 0.00782 0.99148 0.4326 0.0
N349 N 0.96369 1.00651 0.52748 0.0
C350 C 0.9609 0.99358 0.48801 0.0
C351 C 0.93069 1.00631 0.5479 0.0
C352 C 0.92781 0.99227 0.50957 0.0
C353 C 0.94868 0.01357 0.5555 0.0
C354 C 0.94288 0.98598 0.47835 0.0
H355 H 0.9138 0.98679 0.50325 0.0
O356 O 0.97278 0.03687 0.50408 0.0
O357 O 0.01699 0.02912 0.59244 0.0
O358 O 1.00328 0.99529 0.66319 0.0
O359 O 0.97988 0.01041 0.61458 0.0
O360 O 0.99077 0.04133 0.60042 0.0
O361 O 1.00131 0.04041 0.47813 0.0
O362 O 0.0529 0.9833 0.63764 0.0
O363 O 0.0083 0.99384 0.57199 0.0
O364 O 0.02202 0.02234 0.49319 0.0
O365 O 0.04609 0.01376 0.55133 0.0
O366 O 0.03401 0.98074 0.56494 0.0
O367 O 0.03215 0.98768 0.69998 0.0
C368 C 0.00793 0.04193 0.61692 0.0
C369 C 0.9403 0.97275 0.437 0.0
C370 C 0.95542 0.9674 0.40468 0.0
C371 C 0.98435 0.04709 0.47702 0.0
C372 C 0.98211 0.06757 0.48191 0.0
C373 C 0.96686 0.07541 0.51009 0.0
C374 C 0.99485 0.07948 0.4561 0.0
C375 C 0.99261 0.09898 0.45916 0.0
C376 C 0.96456 0.09479 0.51286 0.0
C377 C 0.97739 0.10655 0.48773 0.0
C378 C 0.98552 1.00029 0.65605 0.0
C379 C 0.01686 0.98052 0.54857 0.0
C380 C 0.04641 0.97771 0.68353 0.0
C381 C 0.04579 0.95732 0.69068 0.0
C382 C 0.06006 0.94612 0.66834 0.0
C383 C 0.03169 0.94896 0.72152 0.0
C384 C 0.03187 0.92961 0.73014 0.0
C385 C 0.06018 0.92685 0.67651 0.0
C386 C 0.04622 0.9186 0.70742 0.0
C387 C 0.03998 0.01977 0.50434 0.0
H388 H 0.95661 0.06662 0.52975 0.0
H389 H 1.00658 0.0736 0.4339 0.0
H390 H 0.95274 0.10072 0.53434 0.0
H391 H 0.97527 0.12156 0.48991 0.0
H392 H 0.07122 0.95228 0.64483 0.0
H393 H 0.02076 0.95747 0.73957 0.0
H394 H 0.07116 0.9183 0.65902 0.0
H395 H 0.04652 0.90358 0.713 0.0
Gd396 Gd 0.5059 0.99269 0.52879 0.0
Gd397 Gd 0.51814 0.02929 0.62431 0.0
C398 C 0.47726 0.04465 0.75917 0.0
C399 C 0.47428 0.07824 0.74845 0.0
C400 C 0.49292 0.05995 0.68494 0.0
C401 C 0.48907 0.04381 0.71356 0.0
C402 C 0.48552 0.07734 0.70224 0.0
C403 C 0.47013 0.06194 0.77676 0.0
C404 C 0.47258 0.02804 0.7852 0.0
C405 C 0.47927 0.01108 0.76511 0.0
N406 N 0.4959 0.0272 0.69507 0.0
C407 C 0.49093 0.01093 0.72006 0.0
H408 H 0.49519 0.9976 0.70468 0.0
C409 C 0.50832 0.07456 0.61243 0.0
N410 N 0.50349 0.05862 0.63962 0.0
C411 C 0.50123 0.092 0.62784 0.0
C412 C 0.48969 0.0934 0.67281 0.0
H413 H 0.51825 0.07403 0.57966 0.0
H414 H 0.46118 0.06283 0.81189 0.0
H415 H 0.52719 0.02671 0.45129 0.0
H416 H 0.4635 0.02811 0.82011 0.0
H417 H 0.47538 0.99807 0.78411 0.0
H418 H 0.46859 0.09149 0.76239 0.0
H419 H 0.50859 0.94758 0.56939 0.0
H420 H 0.5606 0.99931 0.33368 0.0
H421 H 0.547 0.02819 0.37236 0.0
H422 H 0.55894 0.93507 0.3849 0.0
H423 H 0.50503 0.10442 0.6057 0.0
H424 H 0.48433 0.10698 0.68498 0.0
H425 H 0.56485 0.9647 0.33852 0.0
H426 H 0.52339 0.91833 0.54021 0.0
N427 N 0.52792 0.99688 0.45796 0.0
C428 C 0.55149 0.99846 0.36844 0.0
C429 C 0.54379 0.01475 0.38996 0.0
C430 C 0.54779 0.98132 0.39289 0.0
C431 C 0.53591 0.98095 0.43837 0.0
C432 C 0.53206 0.01373 0.43473 0.0
N433 N 0.52206 0.96445 0.50999 0.0
C434 C 0.5329 0.96429 0.46515 0.0
C435 C 0.52642 0.93118 0.51913 0.0
C436 C 0.53793 0.93093 0.47398 0.0
C437 C 0.51837 0.94801 0.5362 0.0
C438 C 0.54125 0.94755 0.44625 0.0
H439 H 0.54401 0.91781 0.46051 0.0
O440 O 0.48687 0.96963 0.51555 0.0
O441 O 0.49411 0.01516 0.58276 0.0
O442 O 0.52491 1.00145 0.66438 0.0
O443 O 0.51591 0.97786 0.60367 0.0
O444 O 0.48247 0.98877 0.58791 0.0
O445 O 0.48796 0.99221 0.45805 0.0
O446 O 0.53844 0.05127 0.63569 0.0
O447 O 0.52965 1.0065 0.57152 0.0
O448 O 0.49745 0.02029 0.49051 0.0
O449 O 0.50693 0.04393 0.55014 0.0
O450 O 0.54315 0.03193 0.5687 0.0
O451 O 0.53376 0.03107 0.69938 0.0
C452 C 0.48074 1.00595 0.6032 0.0
C453 C 0.55256 0.94781 0.40015 0.0
C454 C 0.55587 0.96467 0.37364 0.0
C455 C 0.47927 0.97705 0.47336 0.0
C456 C 0.45864 0.97694 0.47281 0.0
C457 C 0.44908 0.96071 0.48865 0.0
C458 C 0.44837 0.99262 0.45631 0.0
C459 C 0.42869 0.99195 0.45412 0.0
C460 C 0.42955 0.96011 0.48782 0.0
C461 C 0.41938 0.97556 0.47032 0.0
C462 C 0.52256 0.98358 0.65063 0.0
C463 C 0.54368 0.01483 0.55202 0.0
C464 C 0.543 0.04589 0.68379 0.0
C465 C 0.56284 0.0479 0.69789 0.0
C466 C 0.57138 0.06538 0.69008 0.0
C467 C 0.57303 0.03334 0.72146 0.0
C468 C 0.59167 0.03634 0.73748 0.0
C469 C 0.58992 0.06833 0.70539 0.0
C470 C 0.60006 0.05392 0.72898 0.0
C471 C 0.49949 0.0382 0.50405 0.0
H472 H 0.45673 0.94843 0.50152 0.0
H473 H 0.45565 1.00527 0.44484 0.0
H474 H 0.42229 0.94751 0.49987 0.0
H475 H 0.40426 0.97444 0.4681 0.0
H476 H 0.56361 0.07685 0.67249 0.0
H477 H 0.56641 0.0199 0.72835 0.0
H478 H 0.59643 0.08183 0.69917 0.0
H479 H 0.61453 0.05648 0.74012 0.0
Gd480 Gd 0.49276 0.5211 0.61816 0.0
Gd481 Gd 0.53138 0.50321 0.53872 0.0
C482 C 0.58625 0.49121 0.6266 0.0
C483 C 0.60839 0.5102 0.57687 0.0
C484 C 0.57528 0.51044 0.55298 0.0
C485 C 0.57155 0.4976 0.59336 0.0
C486 C 0.59383 0.51655 0.54379 0.0
C487 C 0.6046 0.49763 0.61826 0.0
C488 C 0.58211 0.47862 0.66764 0.0
C489 C 0.56372 0.4726 0.67476 0.0
N490 N 0.55359 0.49177 0.60115 0.0
C491 C 0.54963 0.47919 0.64086 0.0
H492 H 0.53558 0.47452 0.64845 0.0
C493 C 0.5645 0.5276 0.47815 0.0
N494 N 0.5609 0.51679 0.52232 0.0
C495 C 0.58261 0.53397 0.46752 0.0
C496 C 0.59731 0.52863 0.50093 0.0
H497 H 0.55323 0.53158 0.4514 0.0
H498 H 0.61601 0.49286 0.64348 0.0
H499 H 0.48692 0.55183 0.51323 0.0
H500 H 0.593 0.47349 0.69409 0.0
H501 H 0.56035 0.46291 0.70655 0.0
H502 H 0.62268 0.51483 0.57052 0.0
H503 H 0.47094 0.49232 0.70399 0.0
H504 H 0.42884 0.5571 0.48161 0.0
H505 H 0.46142 0.5677 0.46848 0.0
H506 H 0.40064 0.51065 0.59218 0.0
H507 H 0.58521 0.54289 0.43335 0.0
H508 H 0.61137 0.53355 0.49255 0.0
H509 H 0.4065 0.53525 0.52587 0.0
H510 H 0.43945 0.4799 0.72102 0.0
N511 N 0.46957 0.53371 0.55977 0.0
C512 C 0.4401 0.55045 0.50364 0.0
C513 C 0.4584 0.55661 0.4966 0.0
C514 C 0.43654 0.53574 0.5388 0.0
C515 C 0.45169 0.5277 0.56717 0.0
C516 C 0.473 0.54783 0.52409 0.0
N517 N 0.46296 0.5076 0.63427 0.0
C518 C 0.44835 0.514 0.6048 0.0
C519 C 0.44174 0.48922 0.68758 0.0
C520 C 0.42677 0.49489 0.65571 0.0
C521 C 0.45967 0.4961 0.67715 0.0
C522 C 0.42985 0.50779 0.61469 0.0
H523 H 0.41279 0.48981 0.66448 0.0
O524 O 0.4861 0.52464 0.70294 0.0
O525 O 0.52408 0.5188 0.61416 0.0
O526 O 0.51615 0.47778 0.57276 0.0
O527 O 0.4913 0.48961 0.62391 0.0
O528 O 0.51112 0.51013 0.68386 0.0
O529 O 0.48889 0.54918 0.65052 0.0
O530 O 0.53789 0.49922 0.4545 0.0
O531 O 0.50025 0.50556 0.54358 0.0
O532 O 0.50775 0.54592 0.57943 0.0
O533 O 0.53493 0.53468 0.5385 0.0
O534 O 0.51206 0.51247 0.47149 0.0
O535 O 0.54196 0.47635 0.51111 0.0
C536 C 0.52707 0.51377 0.66217 0.0
C537 C 0.41491 0.51524 0.58509 0.0
C538 C 0.41823 0.52926 0.54743 0.0
C539 C 0.48563 0.54272 0.69855 0.0
C540 C 0.4816 0.55499 0.74414 0.0
C541 C 0.46846 0.54976 0.78318 0.0
C542 C 0.49293 0.57066 0.75267 0.0
C543 C 0.49172 0.58074 0.80099 0.0
C544 C 0.46682 0.56018 0.83078 0.0
C545 C 0.47859 0.57551 0.84007 0.0
C546 C 0.5016 0.47561 0.60539 0.0
C547 C 0.49636 0.51039 0.4962 0.0
C548 C 0.54397 0.48225 0.4618 0.0
C549 C 0.54177 0.469 0.41739 0.0
C550 C 0.55403 0.47064 0.37363 0.0
C551 C 0.52852 0.45455 0.4184 0.0
C552 C 0.52796 0.44146 0.37603 0.0
C553 C 0.55331 0.45777 0.33131 0.0
C554 C 0.54041 0.44315 0.33255 0.0
C555 C 0.52351 0.5485 0.55205 0.0
H556 H 0.45979 0.53745 0.77732 0.0
H557 H 0.50354 0.57429 0.72325 0.0
H558 H 0.45675 0.5561 0.86101 0.0
H559 H 0.47753 0.58323 0.87765 0.0
H560 H 0.56432 0.48182 0.37253 0.0
H561 H 0.51901 0.45328 0.4522 0.0
H562 H 0.56284 0.45907 0.29768 0.0
H563 H 0.54 0.43326 0.29926 0.0
Gd564 Gd 1.00206 0.49334 0.61563 0.0
Gd565 Gd 0.0207 0.53295 0.54492 0.0
C566 C 0.03498 0.58769 0.63315 0.0
C567 C 0.01812 0.61062 0.58034 0.0
C568 C 0.01541 0.57737 0.55886 0.0
C569 C 0.0277 0.57317 0.60024 0.0
C570 C 0.01049 0.59618 0.54861 0.0
C571 C 0.03034 0.60638 0.62249 0.0
C572 C 0.04629 0.58304 0.6769 0.0
C573 C 0.04966 0.5643 0.68809 0.0
N574 N 0.03137 0.55487 0.6109 0.0
C575 C 0.04208 0.55039 0.65484 0.0
H576 H 0.04445 0.53612 0.66647 0.0
C577 C 0.99652 0.567 0.48647 0.0
N578 N 0.00796 0.56311 0.5294 0.0
C579 C 0.99117 0.58534 0.47512 0.0
C580 C 0.99809 0.60001 0.50655 0.0
H581 H 0.99224 0.55602 0.45898 0.0
H582 H 0.03589 0.61767 0.6472 0.0
H583 H 0.97536 0.48755 0.5027 0.0
H584 H 0.05209 0.59379 0.70307 0.0
H585 H 0.05801 0.56051 0.72269 0.0
H586 H 0.01454 0.62511 0.57289 0.0
H587 H 0.03154 0.47427 0.70589 0.0
H588 H 0.97175 0.4289 0.47216 0.0
H589 H 0.9629 0.46135 0.44982 0.0
H590 H 0.01065 0.40203 0.60738 0.0
H591 H 0.98208 0.58816 0.44126 0.0
H592 H 0.99405 0.61426 0.4974 0.0
H593 H 0.98781 0.40718 0.53505 0.0
H594 H 0.04229 0.44271 0.73093 0.0
N595 N 0.99234 0.47048 0.55333 0.0
C596 C 0.97771 0.44046 0.49495 0.0
C597 C 0.97262 0.45873 0.48235 0.0
C598 C 0.99024 0.43728 0.53718 0.0
C599 C 0.99789 0.45276 0.56515 0.0
C600 C 0.97976 0.47361 0.51282 0.0
N601 N 0.01693 0.4649 0.63568 0.0
C602 C 0.0105 0.44991 0.60722 0.0
C603 C 0.03354 0.44453 0.69579 0.0
C604 C 0.0275 0.42902 0.66611 0.0
C605 C 0.02761 0.46237 0.68104 0.0
C606 C 0.01549 0.43154 0.62219 0.0
H607 H 0.03164 0.41512 0.67858 0.0
O608 O 0.99636 0.48559 0.69771 0.0
O609 O 1.00336 0.52486 0.61663 0.0
O610 O 0.04482 0.51864 0.58879 0.0
O611 O 0.03358 0.48936 0.61284 0.0
O612 O 0.01021 0.51108 0.68677 0.0
O613 O 0.97478 0.48192 0.63616 0.0
O614 O 0.02757 0.5457 0.46922 0.0
O615 O 0.01801 0.50177 0.54329 0.0
O616 O 0.97706 0.50824 0.5777 0.0
O617 O 0.98929 0.53335 0.5295 0.0
O618 O 0.0125 0.51517 0.47234 0.0
O619 O 0.04987 0.5355 0.52021 0.0
C620 C 1.00705 0.52725 0.66618 0.0
C621 C 0.00748 0.41621 0.59518 0.0
C622 C 0.99468 0.4191 0.55348 0.0
C623 C 0.97965 0.47933 0.68629 0.0
C624 C 0.96554 0.48152 0.72807 0.0
C625 C 0.96444 0.46769 0.76762 0.0
C626 C 0.95378 0.49717 0.73056 0.0
C627 C 0.94103 0.49898 0.77317 0.0
C628 C 0.95169 0.46945 0.80974 0.0
C629 C 0.94004 0.48506 0.81269 0.0
C630 C 0.04731 0.50171 0.60903 0.0
C631 C 0.01403 0.49898 0.49433 0.0
C632 C 0.04546 0.54324 0.47455 0.0
C633 C 0.0555 0.53762 0.42555 0.0
C634 C 0.05169 0.54718 0.37756 0.0
C635 C 0.06973 0.5241 0.4265 0.0
C636 C 0.08035 0.52065 0.38017 0.0
C637 C 0.06207 0.54344 0.33124 0.0
C638 C 0.0765 0.53033 0.33259 0.0
C639 C 0.97509 0.52279 0.54532 0.0
H640 H 0.97358 0.45557 0.76605 0.0
H641 H 0.95478 0.50798 0.7003 0.0
H642 H 0.95089 0.45875 0.8402 0.0
H643 H 0.93013 0.48623 0.84558 0.0
H644 H 0.04086 0.55781 0.37614 0.0
H645 H 0.073 0.51673 0.46329 0.0
H646 H 0.05913 0.55093 0.29454 0.0
H647 H 0.08468 0.52773 0.29658 0.0
H648 H 0.18361 0.04005 0.19283 0.0
H649 H 0.15982 0.03571 0.26201 0.0
H650 H 0.11752 0.05711 0.15494 0.0
H651 H 0.14146 0.0618 0.0854 0.0
H652 H 0.11144 0.06946 0.25841 0.0
H653 H 0.12347 0.00896 0.17359 0.0
H654 H 0.14453 0.98368 0.14262 0.0
H655 H 0.16435 0.97622 0.3042 0.0
H656 H 0.14354 1.0016 0.33595 0.0
H657 H 0.0337 0.03396 0.40325 0.0
H658 H 0.05642 0.03873 0.33106 0.0
H659 H 0.10056 0.01781 0.43259 0.0
H660 H 0.07799 0.01242 0.50362 0.0
H661 H 0.10514 1.00517 0.33094 0.0
H662 H 0.09515 0.06323 0.4188 0.0
H663 H 0.07174 0.08437 0.45924 0.0
H664 H 0.05021 0.09686 0.30223 0.0
H665 H 0.07268 0.07482 0.26119 0.0
C666 C 0.16924 0.0437 0.18361 0.0
C667 C 0.16445 0.05087 0.13284 0.0
C668 C 0.15561 0.04129 0.22348 0.0
C669 C 0.13671 0.04567 0.21356 0.0
C670 C 0.13195 0.0535 0.16366 0.0
C671 C 0.14567 0.05611 0.1238 0.0
C672 C 0.12192 0.04114 0.25427 0.0
C673 C 0.10995 0.05535 0.27354 0.0
C674 C 0.12011 0.02287 0.27572 0.0
C675 C 0.13205 0.00718 0.25701 0.0
C676 C 0.13234 1.00191 0.20243 0.0
C677 C 0.14424 0.9876 0.18476 0.0
C678 C 0.15579 0.97837 0.22141 0.0
C679 C 0.1554 0.98337 0.27587 0.0
C680 C 0.14353 0.99769 0.29373 0.0
C681 C 0.04822 0.03032 0.41041 0.0
C682 C 0.05392 0.02308 0.46039 0.0
C683 C 0.06123 0.03302 0.36885 0.0
C684 C 0.08032 0.02877 0.37633 0.0
C685 C 0.08595 0.02118 0.42557 0.0
C686 C 0.07296 0.01837 0.46685 0.0
C687 C 0.09463 0.03336 0.33446 0.0
C688 C 0.10658 0.01924 0.31537 0.0
C689 C 0.09669 0.05173 0.3142 0.0
C690 C 0.08544 0.06727 0.337 0.0
C691 C 0.08543 0.07054 0.3929 0.0
C692 C 0.07212 0.0824 0.41605 0.0
C693 C 0.05937 0.09179 0.38349 0.0
C694 C 0.05998 0.08947 0.32757 0.0
C695 C 0.07294 0.07719 0.30428 0.0
H696 H 0.04926 0.10102 0.40201 0.0
H697 H 0.16504 0.96732 0.20761 0.0
H698 H 0.4384 0.15343 0.1356 0.0
H699 H 0.44255 0.12783 0.19882 0.0
H700 H 0.49892 0.14671 0.23165 0.0
H701 H 0.49549 0.17117 0.1652 0.0
H702 H 0.5 0.11184 0.22862 0.0
H703 H 0.45665 0.15466 0.31596 0.0
H704 H 0.42735 0.1726 0.32711 0.0
H705 H 0.39541 0.12162 0.31985 0.0
H706 H 0.42449 0.10343 0.30768 0.0
H707 H 0.51687 0.07133 0.4831 0.0
H708 H 0.50881 0.09422 0.41409 0.0
H709 H 0.46161 0.06029 0.36557 0.0
H710 H 0.46979 0.03717 0.43435 0.0
H711 H 0.45396 0.1002 0.37394 0.0
H712 H 0.49682 0.05752 0.29203 0.0
H713 H 0.5259 0.03904 0.2855 0.0
H714 H 0.55846 0.08964 0.28484 0.0
H715 H 0.52956 0.10844 0.29266 0.0
C716 C 0.45184 0.15196 0.15533 0.0
C717 C 0.46656 0.16464 0.14503 0.0
C718 C 0.45408 0.13743 0.1925 0.0
C719 C 0.47092 0.13544 0.22145 0.0
C720 C 0.4857 0.14787 0.21044 0.0
C721 C 0.48362 0.16211 0.17261 0.0
C722 C 0.4735 0.1204 0.26256 0.0
C723 C 0.48997 0.10958 0.26068 0.0
C724 C 0.4602 0.11671 0.30372 0.0
C725 C 0.44273 0.12772 0.31012 0.0
C726 C 0.44337 0.14731 0.31614 0.0
C727 C 0.42679 0.15752 0.32273 0.0
C728 C 0.40952 0.14827 0.32396 0.0
C729 C 0.40878 0.12879 0.31868 0.0
C730 C 0.4253 0.11852 0.31188 0.0
C731 C 0.5046 0.06889 0.45838 0.0
C732 C 0.49388 0.05252 0.46438 0.0
C733 C 0.50009 0.08192 0.41867 0.0
C734 C 0.48464 0.07895 0.38454 0.0
C735 C 0.47358 0.06287 0.39146 0.0
C736 C 0.47831 0.04964 0.43056 0.0
C737 C 0.48058 0.09232 0.34041 0.0
C738 C 0.46388 0.10264 0.34168 0.0
C739 C 0.49363 0.09561 0.29876 0.0
C740 C 0.51103 0.08438 0.29357 0.0
C741 C 0.51019 0.06471 0.29107 0.0
C742 C 0.52664 0.05417 0.28708 0.0
C743 C 0.54402 0.06315 0.28494 0.0
C744 C 0.54499 0.0827 0.28665 0.0
C745 C 0.52857 0.0933 0.29088 0.0
H746 H 0.55675 0.05496 0.28183 0.0
H747 H 0.39671 0.1562 0.32919 0.0
H748 H 0.35664 0.49688 0.17478 0.0
H749 H 0.38028 0.50086 0.24359 0.0
H750 H 0.39886 0.44404 0.2185 0.0
H751 H 0.37364 0.43909 0.15351 0.0
H752 H 0.40196 0.45211 0.32146 0.0
H753 H 0.42249 0.48447 0.161 0.0
H754 H 0.41798 0.50659 0.08636 0.0
H755 H 0.40852 0.55135 0.19963 0.0
H756 H 0.41289 0.52946 0.27485 0.0
H757 H 0.48455 0.47417 0.48104 0.0
H758 H 0.46135 0.46281 0.41626 0.0
H759 H 0.44623 0.52016 0.3817 0.0
H760 H 0.4732 0.53051 0.43203 0.0
H761 H 0.44316 0.50731 0.30033 0.0
H762 H 0.42033 0.47473 0.46478 0.0
H763 H 0.42423 0.4521 0.53838 0.0
H764 H 0.43602 0.40839 0.42357 0.0
H765 H 0.43254 0.43084 0.34941 0.0
C766 C 0.36531 0.48494 0.18421 0.0
C767 C 0.36288 0.4676 0.15739 0.0
C768 C 0.37923 0.48741 0.22338 0.0
C769 C 0.39189 0.47296 0.23562 0.0
C770 C 0.38948 0.45554 0.20973 0.0
C771 C 0.37513 0.45285 0.1715 0.0
C772 C 0.4079 0.47641 0.2739 0.0
C773 C 0.41096 0.46427 0.31725 0.0
C774 C 0.41984 0.4921 0.26865 0.0
C775 C 0.41799 0.50535 0.2234 0.0
C776 C 0.41949 0.49904 0.16989 0.0
C777 C 0.41694 0.51153 0.12752 0.0
C778 C 0.41296 0.53036 0.13825 0.0
C779 C 0.41163 0.53677 0.19137 0.0
C780 C 0.41421 0.52435 0.23386 0.0
C781 C 0.47603 0.48425 0.45976 0.0
C782 C 0.47972 0.50353 0.46546 0.0
C783 C 0.46237 0.47773 0.42299 0.0
C784 C 0.45092 0.49036 0.3942 0.0
C785 C 0.45448 0.50966 0.40201 0.0
C786 C 0.46942 0.51592 0.43378 0.0
C787 C 0.43635 0.48425 0.35285 0.0
C788 C 0.43388 0.49555 0.30707 0.0
C789 C 0.42478 0.46798 0.35692 0.0
C790 C 0.42638 0.45452 0.40166 0.0
C791 C 0.42378 0.46031 0.45531 0.0
C792 C 0.42596 0.44751 0.49712 0.0
C793 C 0.43043 0.42883 0.48572 0.0
C794 C 0.4326 0.42287 0.43242 0.0
C795 C 0.43055 0.43563 0.3905 0.0
H796 H 0.43218 0.41897 0.51817 0.0
H797 H 0.41092 0.53999 0.10539 0.0
H798 H 0.03515 0.38476 0.09137 0.0
H799 H 0.03166 0.40972 0.15892 0.0
H800 H 0.05986 0.37519 0.27563 0.0
H801 H 0.06178 0.34985 0.20928 0.0
H802 H 0.03579 0.38929 0.3264 0.0
H803 H 0.07851 0.42017 0.21162 0.0
H804 H 0.09181 0.43267 0.12771 0.0
H805 H 0.04325 0.46736 0.10669 0.0
H806 H 0.02957 0.45495 0.19025 0.0
H807 H 0.03691 0.46848 0.51771 0.0
H808 H 0.04608 0.44293 0.45682 0.0
H809 H 0.00964 0.46499 0.33432 0.0
H810 H 1.00125 0.49094 0.39411 0.0
H811 H 0.0417 0.45709 0.29078 0.0
H812 H 1.00028 0.40254 0.38951 0.0
H813 H 0.99452 0.38197 0.46699 0.0
H814 H 0.05065 0.39161 0.52347 0.0
H815 H 0.05711 0.41102 0.44397 0.0
C816 C 0.04065 0.38261 0.13146 0.0
C817 C 0.04864 0.36528 0.14499 0.0
C818 C 0.03887 0.39703 0.17024 0.0
C819 C 0.04568 0.39481 0.22322 0.0
C820 C 0.05423 0.37756 0.23581 0.0
C821 C 0.05545 0.363 0.19761 0.0
C822 C 0.04284 0.40969 0.26644 0.0
C823 C 0.03744 0.40409 0.31823 0.0
C824 C 0.04494 0.42921 0.25751 0.0
C825 C 0.05294 0.4365 0.20688 0.0
C826 C 0.0706 0.43035 0.18886 0.0
C827 C 0.07823 0.43745 0.14146 0.0
C828 C 0.06837 0.45076 0.11185 0.0
C829 C 0.05087 0.45703 0.12964 0.0
C830 C 0.04318 0.45 0.17706 0.0
C831 C 0.03058 0.46766 0.47817 0.0
C832 C 0.01814 0.48175 0.46117 0.0
C833 C 0.03569 0.45278 0.44321 0.0
C834 C 0.02829 0.45141 0.39056 0.0
C835 C 0.01562 0.4654 0.37437 0.0
C836 C 0.01075 0.48031 0.40882 0.0
C837 C 0.03443 0.43658 0.35027 0.0
C838 C 0.04029 0.44224 0.29869 0.0
C839 C 0.03371 0.41705 0.36004 0.0
C840 C 0.02885 0.40898 0.41247 0.0
C841 C 0.01121 0.40061 0.41922 0.0
C842 C 0.00801 0.38874 0.4626 0.0
C843 C 0.02216 0.38562 0.50041 0.0
C844 C 0.03964 0.39419 0.49451 0.0
C845 C 0.04312 0.40551 0.45006 0.0
H846 H 0.01958 0.37655 0.53423 0.0
H847 H 0.07431 0.45624 0.07517 0.0
H848 H 0.84734 0.98962 0.98872 0.0
H849 H 0.87091 0.99277 0.91813 0.0
H850 H 0.9088 0.95784 0.00763 0.0
H851 H 0.88529 0.9548 0.07911 0.0
H852 H 0.92677 0.98894 0.96591 0.0
H853 H 0.88748 0.93989 0.89904 0.0
H854 H 0.8576 0.92465 0.87456 0.0
H855 H 0.84635 0.968 0.76037 0.0
H856 H 0.87607 0.98364 0.7847 0.0
H857 H 0.99121 0.97884 0.74634 0.0
H858 H 0.96915 0.97201 0.81887 0.0
H859 H 0.92633 1.00352 0.7374 0.0
H860 H 0.94826 0.01056 0.66543 0.0
H861 H 0.91168 0.97197 0.77685 0.0
H862 H 0.95037 0.02149 0.84467 0.0
H863 H 0.97962 0.03752 0.87063 0.0
H864 H 0.99187 0.99405 0.98353 0.0
H865 H 0.96239 0.97808 0.95946 0.0
C866 C 0.86075 0.98277 0.99395 0.0
C867 C 0.86436 0.97206 0.0402 0.0
C868 C 0.87419 0.98443 0.95307 0.0
C869 C 0.89168 0.97545 0.95708 0.0
C870 C 0.89545 0.96491 1.00338 0.0
C871 C 0.88192 0.96311 0.04419 0.0
C872 C 0.90592 0.97719 0.91296 0.0
C873 C 0.92359 0.98491 0.92473 0.0
C874 C 0.90175 0.97235 0.85885 0.0
C875 C 0.8839 0.96301 0.84403 0.0
C876 C 0.87855 0.94625 0.86901 0.0
C877 C 0.86167 0.93752 0.85511 0.0
C878 C 0.85006 0.94537 0.81603 0.0
C879 C 0.85535 0.96195 0.79067 0.0
C880 C 0.87222 0.97074 0.80445 0.0
C881 C 0.97708 0.98427 0.74347 0.0
C882 C 0.97163 0.99519 0.69905 0.0
C883 C 0.96445 0.98039 0.78537 0.0
C884 C 0.946 0.98735 0.78421 0.0
C885 C 0.94041 0.9979 0.73949 0.0
C886 C 0.95306 1.00187 0.69785 0.0
C887 C 0.93254 0.98392 0.82958 0.0
C888 C 0.91498 0.97587 0.81805 0.0
C889 C 0.93681 0.98854 0.88389 0.0
C890 C 0.95446 0.99824 0.89895 0.0
C891 C 0.95942 0.01522 0.87454 0.0
C892 C 0.97601 0.02436 0.88912 0.0
C893 C 0.9878 0.01664 0.92794 0.0
C894 C 0.98284 0.99993 0.95302 0.0
C895 C 0.96614 0.99085 0.93905 0.0
H896 H 1.00068 0.02371 0.93899 0.0
H897 H 0.83699 0.93859 0.80531 0.0
H898 H 0.52766 0.85737 0.01969 0.0
H899 H 0.52067 0.88032 0.95111 0.0
H900 H 0.57629 0.9033 0.96747 0.0
H901 H 0.58271 0.88199 0.04065 0.0
H902 H 0.55317 0.93065 0.94819 0.0
H903 H 0.56221 0.86911 0.86286 0.0
H904 H 0.55443 0.83556 0.85311 0.0
H905 H 0.49714 0.8496 0.81854 0.0
H906 H 0.50459 0.88321 0.82846 0.0
H907 H 0.55657 0.96791 0.67179 0.0
H908 H 0.56378 0.9442 0.74013 0.0
H909 H 0.50579 0.94375 0.78887 0.0
H910 H 0.4983 0.96607 0.71775 0.0
H911 H 0.52999 0.90558 0.77376 0.0
H912 H 0.52848 0.96263 0.92821 0.0
H913 H 0.53602 0.99622 0.93935 0.0
H914 H 0.58267 0.99007 0.83199 0.0
H915 H 0.57557 0.95655 0.82061 0.0
C916 C 0.53832 0.8676 0.01034 0.0
C917 C 0.55596 0.86734 0.03617 0.0
C918 C 0.53437 0.88059 0.96989 0.0
C919 C 0.54812 0.89329 0.95245 0.0
C920 C 0.56541 0.89363 0.97951 0.0
C921 C 0.56919 0.88106 0.0211 0.0
C922 C 0.54485 0.90571 0.90498 0.0
C923 C 0.54871 0.92498 0.9097 0.0
C924 C 0.53818 0.89869 0.8549 0.0
C925 C 0.53393 0.8786 0.84652 0.0
C926 C 0.54797 0.865 0.85305 0.0
C927 C 0.54361 0.84599 0.84759 0.0
C928 C 0.5253 0.84045 0.83525 0.0
C929 C 0.51132 0.85391 0.82803 0.0
C930 C 0.51561 0.87293 0.83342 0.0
C931 C 0.54542 0.96264 0.69707 0.0
C932 C 0.52701 0.96917 0.69076 0.0
C933 C 0.54954 0.94922 0.73623 0.0
C934 C 0.53542 0.94271 0.77082 0.0
C935 C 0.51693 0.94882 0.76322 0.0
C936 C 0.51271 0.96174 0.72301 0.0
C937 C 0.53984 0.93004 0.81621 0.0
C938 C 0.53545 0.91096 0.8116 0.0
C939 C 0.5467 0.93708 0.8657 0.0
C940 C 0.55125 0.95717 0.8728 0.0
C941 C 0.54032 0.96849 0.9069 0.0
C942 C 0.54453 0.98752 0.91322 0.0
C943 C 0.55971 0.99532 0.88586 0.0
C944 C 0.57075 0.98409 0.85234 0.0
C945 C 0.56659 0.9651 0.84581 0.0
H946 H 0.563 0.01003 0.89087 0.0
H947 H 0.52193 0.82572 0.83127 0.0
H948 H 0.63834 0.5719 0.04818 0.0
H949 H 0.61356 0.56652 0.98083 0.0
H950 H 0.65306 0.53733 0.87936 0.0
H951 H 0.67772 0.54231 0.94696 0.0
H952 H 0.62689 0.56591 0.82612 0.0
H953 H 0.62677 0.51203 0.95105 0.0
H954 H 0.62361 0.49966 0.04296 0.0
H955 H 0.56944 0.52542 0.0577 0.0
H956 H 0.57243 0.53819 0.96625 0.0
H957 H 0.56108 0.5304 0.63454 0.0
H958 H 0.58758 0.5368 0.69356 0.0
H959 H 0.55155 0.52703 0.83065 0.0
H960 H 0.52782 0.51488 0.77121 0.0
H961 H 0.57819 0.51891 0.86836 0.0
H962 H 0.57391 0.57552 0.76303 0.0
H963 H 0.57356 0.59446 0.68042 0.0
H964 H 0.62861 0.57456 0.63968 0.0
H965 H 0.62919 0.55537 0.7217 0.0
C966 C 0.64172 0.56437 0.01146 0.0
C967 C 0.65994 0.55732 1.00322 0.0
C968 C 0.62758 0.56135 0.97293 0.0
C969 C 0.63144 0.55154 0.92489 0.0
C970 C 0.64974 0.54497 0.91596 0.0
C971 C 0.66378 0.54766 0.95488 0.0
C972 C 0.61622 0.54705 0.88544 0.0
C973 C 0.6161 0.55568 0.83497 0.0
C974 C 0.60174 0.53433 0.89772 0.0
C975 C 0.59988 0.52614 0.95201 0.0
C976 C 0.61424 0.51512 0.97401 0.0
C977 C 0.61247 0.50804 0.02602 0.0
C978 C 0.59635 0.51177 0.05618 0.0
C979 C 0.58192 0.52254 0.03434 0.0
C980 C 0.58365 0.52969 0.98243 0.0
C981 C 0.55949 0.52821 0.67712 0.0
C982 C 0.54288 0.52044 0.69732 0.0
C983 C 0.5744 0.53304 0.71181 0.0
C984 C 0.57216 0.53288 0.76842 0.0
C985 C 0.55466 0.52675 0.78809 0.0
C986 C 0.54068 0.52 0.7535 0.0
C987 C 0.58766 0.53844 0.80768 0.0
C988 C 0.58826 0.52969 0.8585 0.0
C989 C 0.60173 0.55216 0.79693 0.0
C990 C 0.60151 0.5639 0.74816 0.0
C991 C 0.58591 0.57517 0.73635 0.0
C992 C 0.58567 0.58593 0.68963 0.0
C993 C 0.60103 0.58567 0.65476 0.0
C994 C 0.61671 0.57472 0.66666 0.0
C995 C 0.61701 0.56392 0.71326 0.0
H996 H 0.60081 0.59398 0.61857 0.0
H997 H 0.59501 0.50629 0.09644 0.0
H998 H 0.95368 0.64328 0.05087 0.0
H999 H 0.95737 0.61848 0.98342 0.0
H1000 H 0.99716 0.65248 0.89786 0.0
H1001 H 0.99291 0.67774 0.96368 0.0
H1002 H 0.97175 0.63485 0.82937 0.0
H1003 H 0.01004 0.61544 0.9865 0.0
H1004 H 0.01233 0.60657 0.08205 0.0
H1005 H 0.9713 0.56332 0.05684 0.0
H1006 H 0.96863 0.57208 0.96143 0.0
H1007 H 0.99611 0.56351 0.64012 0.0
H1008 H 0.99417 0.58988 0.70129 0.0
H1009 H 0.98873 0.55057 0.83249 0.0
H1010 H 0.99924 0.52606 0.77333 0.0
H1011 H 0.99688 0.57333 0.88322 0.0
H1012 H 0.95132 0.58945 0.74597 0.0
H1013 H 0.941 0.59568 0.65372 0.0
H1014 H 0.98006 0.64129 0.64273 0.0
H1015 H 0.99113 0.63485 0.73486 0.0
C1016 C 0.96314 0.64565 0.0176 0.0
C1017 C 0.97309 0.66268 0.0135 0.0
C1018 C 0.96536 0.63129 0.97911 0.0
C1019 C 0.97778 0.63339 0.93566 0.0
C1020 C 0.98757 0.65039 0.93105 0.0
C1021 C 0.9853 0.66479 0.96936 0.0
C1022 C 0.98079 0.61792 0.89525 0.0
C1023 C 0.97719 0.62126 0.84075 0.0
C1024 C 0.98696 0.59988 0.90996 0.0
C1025 C 0.98911 0.59446 0.96699 0.0
C1026 C 1.00151 0.60407 1.00142 0.0
C1027 C 1.00285 0.59906 0.05555 0.0
C1028 C 0.99196 0.5844 0.07551 0.0
C1029 C 0.97974 0.57466 0.04137 0.0
C1030 C 0.97832 0.57962 0.98729 0.0
C1031 C 0.99652 0.56102 0.68262 0.0
C1032 C 1.00036 0.54306 0.70166 0.0
C1033 C 0.99369 0.57613 0.71848 0.0
C1034 C 0.9907 0.57325 0.77424 0.0
C1035 C 0.99192 0.55445 0.79164 0.0
C1036 C 0.99755 0.53994 0.75683 0.0
C1037 C 0.98675 0.58917 0.81474 0.0
C1038 C 0.99066 0.58628 0.86995 0.0
C1039 C 0.97923 0.60711 0.80104 0.0
C1040 C 0.97212 0.61156 0.74691 0.0
C1041 C 0.95765 0.60084 0.7239 0.0
C1042 C 0.9517 0.60441 0.67152 0.0
C1043 C 0.95975 0.61896 0.64221 0.0
C1044 C 0.97381 0.63002 0.66541 0.0
C1045 C 0.97998 0.6264 0.71767 0.0
H1046 H 0.95511 0.62164 0.60154 0.0
H1047 H 0.993 0.58058 0.11743 0.0
H1048 H 0.08476 0.19997 0.13403 0.0
H1049 H 0.0704 0.17522 0.18692 0.0
H1050 H 0.08172 0.20647 0.33263 0.0
H1051 H 0.09639 0.23131 0.27988 0.0
H1052 H 0.08683 0.16716 0.34063 0.0
H1053 H 0.04096 0.21187 0.27746 0.0
H1054 H 0.02471 0.23016 0.20785 0.0
H1055 H 0.00768 0.17932 0.12819 0.0
H1056 H 0.02409 0.16073 0.1969 0.0
H1057 H 0.01041 0.1292 0.50228 0.0
H1058 H 0.03099 0.15119 0.45619 0.0
H1059 H 0.0253 0.11925 0.30928 0.0
H1060 H 1.00421 0.09735 0.35483 0.0
H1061 H 0.01887 0.15877 0.30472 0.0
H1062 H 0.08828 0.12686 0.33314 0.0
H1063 H 0.10921 0.10893 0.39247 0.0
H1064 H 0.08174 0.13218 0.5312 0.0
H1065 H 0.06184 0.15152 0.47281 0.0
C1066 C 0.08492 0.20124 0.17748 0.0
C1067 C 0.09169 0.21754 0.20302 0.0
C1068 C 0.07647 0.18722 0.20747 0.0
C1069 C 0.07471 0.18934 0.26327 0.0
C1070 C 0.08288 0.20477 0.28942 0.0
C1071 C 0.09128 0.21886 0.2594 0.0
C1072 C 0.0632 0.17613 0.29388 0.0
C1073 C 0.07191 0.16542 0.3334 0.0
C1074 C 0.04388 0.17374 0.28314 0.0
C1075 C 0.0339 0.18492 0.24204 0.0
C1076 C 0.03388 0.2046 0.24486 0.0
C1077 C 0.02462 0.21502 0.20561 0.0
C1078 C 0.01521 0.20591 0.16356 0.0
C1079 C 0.015 0.18636 0.16075 0.0
C1080 C 0.02426 0.17587 0.19985 0.0
C1081 C 0.01384 0.1267 0.46038 0.0
C1082 C 1.00601 0.11149 0.43219 0.0
C1083 C 0.02596 0.139 0.43451 0.0
C1084 C 0.03076 0.13603 0.3805 0.0
C1085 C 0.02246 0.12118 0.35175 0.0
C1086 C 0.01041 0.10878 0.37765 0.0
C1087 C 0.04246 0.14973 0.35209 0.0
C1088 C 0.03375 0.16055 0.31248 0.0
C1089 C 0.06187 0.15204 0.36233 0.0
C1090 C 0.07276 0.1398 0.39849 0.0
C1091 C 0.08662 0.12805 0.37635 0.0
C1092 C 0.09859 0.11795 0.40982 0.0
C1093 C 0.09666 0.11927 0.46561 0.0
C1094 C 0.08302 0.13101 0.48797 0.0
C1095 C 0.07137 0.14157 0.45465 0.0
H1096 H 0.10578 0.11127 0.49151 0.0
H1097 H 0.00804 0.214 0.13321 0.0
H1098 H 0.33191 0.09634 0.1452 0.0
H1099 H 0.35844 0.08632 0.19914 0.0
H1100 H 0.32145 0.07599 0.33293 0.0
H1101 H 0.295 0.08752 0.28076 0.0
H1102 H 0.35423 0.08558 0.36944 0.0
H1103 H 0.33125 0.04151 0.23773 0.0
H1104 H 0.32249 0.03023 0.14707 0.0
H1105 H 0.37899 0.03864 0.09278 0.0
H1106 H 0.38802 0.05021 0.18302 0.0
H1107 H 0.3948 1.00552 0.48817 0.0
H1108 H 0.37531 0.02877 0.44377 0.0
H1109 H 0.41903 0.03826 0.32723 0.0
H1110 H 0.43813 0.01415 0.36914 0.0
H1111 H 0.38579 0.03171 0.28033 0.0
H1112 H 0.4082 0.07192 0.42404 0.0
H1113 H 0.41458 0.07902 0.51961 0.0
H1114 H 0.35596 0.07351 0.55573 0.0
H1115 H 0.34929 0.06613 0.46064 0.0
C1116 C 0.32947 0.09282 0.18689 0.0
C1117 C 0.31124 0.09239 0.20839 0.0
C1118 C 0.34466 0.08682 0.21741 0.0
C1119 C 0.34177 0.07982 0.26925 0.0
C1120 C 0.32394 0.08114 0.29269 0.0
C1121 C 0.30881 0.08756 0.26264 0.0
C1122 C 0.35665 0.06918 0.29661 0.0
C1123 C 0.36116 0.07382 0.34996 0.0
C1124 C 0.36566 0.05382 0.27114 0.0
C1125 C 0.36025 0.04695 0.21684 0.0
C1126 C 0.34176 0.04109 0.20631 0.0
C1127 C 0.33676 0.03463 0.15505 0.0
C1128 C 0.35016 0.03378 0.11414 0.0
C1129 C 0.36862 0.03935 0.12446 0.0
C1130 C 0.37369 0.04586 0.17565 0.0
C1131 C 0.40028 0.01254 0.45308 0.0
C1132 C 0.41793 0.00782 0.43189 0.0
C1133 C 0.38924 0.02602 0.42824 0.0
C1134 C 0.39584 0.03533 0.38256 0.0
C1135 C 0.41375 0.03124 0.36258 0.0
C1136 C 0.4247 0.01757 0.38695 0.0
C1137 C 0.38342 0.04815 0.35304 0.0
C1138 C 0.37925 0.04379 0.29934 0.0
C1139 C 0.37437 0.0634 0.37862 0.0
C1140 C 0.37827 0.06849 0.43536 0.0
C1141 C 0.39669 0.07221 0.45246 0.0
C1142 C 0.40036 0.07626 0.50653 0.0
C1143 C 0.3857 0.07674 0.54372 0.0
C1144 C 0.36732 0.07318 0.52695 0.0
C1145 C 0.36358 0.06911 0.47295 0.0
H1146 H 0.38863 0.07993 0.58543 0.0
H1147 H 0.34626 0.02876 0.07448 0.0
H1148 H 0.4032 0.32864 0.20635 0.0
H1149 H 0.41633 0.35285 0.26596 0.0
H1150 H 0.46499 0.31809 0.29272 0.0
H1151 H 0.4512 0.29356 0.23658 0.0
H1152 H 0.46119 0.33805 0.37492 0.0
H1153 H 0.46206 0.35016 0.18749 0.0
H1154 H 0.44988 0.35469 0.09567 0.0
H1155 H 0.41753 0.40185 0.15037 0.0
H1156 H 0.42932 0.39741 0.24276 0.0
H1157 H 0.53521 0.40452 0.36253 0.0
H1158 H 0.51231 0.37941 0.34934 0.0
H1159 H 0.4673 0.41879 0.37511 0.0
H1160 H 0.49022 0.44403 0.38838 0.0
H1161 H 0.46572 0.39833 0.27798 0.0
H1162 H 0.47582 0.38534 0.46876 0.0
H1163 H 0.49803 0.38014 0.54336 0.0
H1164 H 0.52049 0.33208 0.46106 0.0
H1165 H 0.49856 0.33703 0.3858 0.0
C1166 C 0.4162 0.32592 0.22744 0.0
C1167 C 0.42617 0.30935 0.21789 0.0
C1168 C 0.42383 0.33978 0.26073 0.0
C1169 C 0.44186 0.33747 0.28255 0.0
C1170 C 0.45106 0.32021 0.27645 0.0
C1171 C 0.44317 0.30617 0.24455 0.0
C1172 C 0.45219 0.3536 0.3055 0.0
C1173 C 0.46205 0.35126 0.35386 0.0
C1174 C 0.45369 0.37074 0.27748 0.0
C1175 C 0.44629 0.37325 0.2222 0.0
C1176 C 0.45218 0.36136 0.18005 0.0
C1177 C 0.44538 0.36394 0.12789 0.0
C1178 C 0.43286 0.37849 0.11724 0.0
C1179 C 0.42716 0.39053 0.15872 0.0
C1180 C 0.43387 0.38798 0.211 0.0
C1181 C 0.52041 0.40768 0.36637 0.0
C1182 C 0.51434 0.42607 0.3762 0.0
C1183 C 0.5074 0.39337 0.35926 0.0
C1184 C 0.48817 0.3973 0.36211 0.0
C1185 C 0.48209 0.41555 0.37373 0.0
C1186 C 0.49513 0.42987 0.38131 0.0
C1187 C 0.47453 0.38273 0.34716 0.0
C1188 C 0.46422 0.38534 0.29994 0.0
C1189 C 0.47361 0.36548 0.37431 0.0
C1190 C 0.48559 0.3616 0.42163 0.0
C1191 C 0.48545 0.37363 0.4667 0.0
C1192 C 0.49804 0.37077 0.50894 0.0
C1193 C 0.51078 0.35593 0.50659 0.0
C1194 C 0.51067 0.34362 0.46265 0.0
C1195 C 0.49812 0.3464 0.42029 0.0
H1196 H 0.52076 0.35396 0.53884 0.0
H1197 H 0.42764 0.38048 0.07681 0.0
H1198 H 0.20219 0.40257 0.21334 0.0
H1199 H 0.1749 0.41372 0.26447 0.0
H1200 H 0.20234 0.46692 0.29052 0.0
H1201 H 0.22915 0.45622 0.23948 0.0
H1202 H 0.18532 0.45642 0.37871 0.0
H1203 H 0.17172 0.46201 0.19178 0.0
H1204 H 0.167 0.45214 0.09747 0.0
H1205 H 0.12281 0.41507 0.14586 0.0
H1206 H 0.1274 0.42462 0.24062 0.0
H1207 H 0.11702 0.52866 0.3682 0.0
H1208 H 0.14276 0.50624 0.3577 0.0
H1209 H 0.10416 0.46054 0.38262 0.0
H1210 H 0.07835 0.48308 0.3939 0.0
H1211 H 0.12444 0.46061 0.28307 0.0
H1212 H 0.13594 0.46955 0.47267 0.0
H1213 H 0.1415 0.48943 0.55248 0.0
H1214 H 0.19314 0.50897 0.48504 0.0
H1215 H 0.1873 0.49039 0.40287 0.0
C1216 C 0.20245 0.41653 0.23069 0.0
C1217 C 0.21794 0.42839 0.223 0.0
C1218 C 0.18691 0.42285 0.25978 0.0
C1219 C 0.18672 0.44109 0.28123 0.0
C1220 C 0.20237 0.45269 0.27499 0.0
C1221 C 0.21777 0.44645 0.24602 0.0
C1222 C 0.1699 0.44886 0.30727 0.0
C1223 C 0.17193 0.45727 0.35811 0.0
C1224 C 0.15255 0.44994 0.27998 0.0
C1225 C 0.1502 0.44368 0.22338 0.0
C1226 C 0.1612 0.45153 0.1824 0.0
C1227 C 0.15848 0.44608 0.12883 0.0
C1228 C 0.14467 0.43292 0.1157 0.0
C1229 C 0.13354 0.42521 0.15611 0.0
C1230 C 0.1362 0.43062 0.20975 0.0
C1231 C 0.11421 0.51383 0.37257 0.0
C1232 C 0.09593 0.50738 0.38145 0.0
C1233 C 0.12884 0.50111 0.36699 0.0
C1234 C 0.12526 0.48184 0.36991 0.0
C1235 C 0.10709 0.47541 0.38088 0.0
C1236 C 0.09247 0.48819 0.38721 0.0
C1237 C 0.13999 0.46859 0.35393 0.0
C1238 C 0.13757 0.45916 0.30476 0.0
C1239 C 0.15737 0.46771 0.38115 0.0
C1240 C 0.1611 0.47855 0.43133 0.0
C1241 C 0.14839 0.47822 0.47449 0.0
C1242 C 0.1516 0.48927 0.52022 0.0
C1243 C 0.16773 0.50028 0.52413 0.0
C1244 C 0.18065 0.50041 0.48202 0.0
C1245 C 0.17734 0.48971 0.43566 0.0
H1246 H 0.1702 0.50872 0.55981 0.0
H1247 H 0.14254 0.42875 0.07418 0.0
H1248 H 0.90716 0.81881 0.93512 0.0
H1249 H 0.91837 0.84436 0.8771 0.0
H1250 H 0.97547 0.82723 0.90576 0.0
H1251 H 0.96439 0.80153 0.96121 0.0
H1252 H 0.94969 0.87094 0.93267 0.0
H1253 H 0.98676 0.82406 0.81517 0.0
H1254 H 0.98593 0.79537 0.75919 0.0
H1255 H 0.939 0.8171 0.67116 0.0
H1256 H 0.93927 0.8457 0.72794 0.0
H1257 H 0.0358 0.9036 0.8084 0.0
H1258 H 0.0109 0.8848 0.8485 0.0
H1259 H 0.96932 0.91659 0.76258 0.0
H1260 H 0.99417 0.9356 0.72233 0.0
H1261 H 0.97957 0.86892 0.75245 0.0
H1262 H 0.95402 0.92183 0.85416 0.0
H1263 H 0.95775 0.94962 0.91211 0.0
H1264 H 0.98487 0.9162 0.03226 0.0
H1265 H 0.98141 0.88814 0.97427 0.0
C1266 C 0.922 0.82009 0.92659 0.0
C1267 C 0.93498 0.80819 0.95123 0.0
C1268 C 0.92836 0.83465 0.89408 0.0
C1269 C 0.94767 0.83732 0.88661 0.0
C1270 C 0.96051 0.82494 0.90962 0.0
C1271 C 0.9542 0.81033 0.94121 0.0
C1272 C 0.95485 0.85433 0.86136 0.0
C1273 C 0.95584 0.8707 0.89276 0.0
C1274 C 0.96305 0.85382 0.80989 0.0
C1275 C 0.96278 0.83672 0.77628 0.0
C1276 C 0.9761 0.82255 0.7844 0.0
C1277 C 0.97575 0.80634 0.75252 0.0
C1278 C 0.96235 0.80436 0.71182 0.0
C1279 C 0.94928 0.8186 0.70294 0.0
C1280 C 0.94947 0.83475 0.7351 0.0
C1281 C 0.02133 0.9068 0.79887 0.0
C1282 C 0.01687 0.92073 0.76157 0.0
C1283 C 1.00718 0.89619 0.82198 0.0
C1284 C 0.98845 0.89939 0.80804 0.0
C1285 C 0.98378 0.91414 0.77393 0.0
C1286 C 0.99795 0.92493 0.7511 0.0
C1287 C 0.97439 0.88555 0.82369 0.0
C1288 C 0.97253 0.86956 0.79113 0.0
C1289 C 0.96568 0.88635 0.87445 0.0
C1290 C 0.96758 0.90299 0.9098 0.0
C1291 C 0.96092 0.92045 0.89274 0.0
C1292 C 0.96296 0.93625 0.92568 0.0
C1293 C 0.97162 0.93474 0.97592 0.0
C1294 C 0.97818 0.91737 0.99334 0.0
C1295 C 0.97614 0.9015 0.96049 0.0
H1296 H 0.97321 0.947 1.00142 0.0
H1297 H 0.96214 0.79184 0.687 0.0
H1298 H 0.73646 0.94607 0.88282 0.0
H1299 H 0.71131 0.95234 0.81764 0.0
H1300 H 0.67061 0.94884 0.9461 0.0
H1301 H 0.69527 0.9414 0.009 0.0
H1302 H 0.65444 0.93918 0.86416 0.0
H1303 H 0.69624 0.99112 0.91048 0.0
H1304 H 0.7265 0.00793 0.91186 0.0
H1305 H 0.72859 1.00579 0.73926 0.0
H1306 H 0.69841 0.9888 0.73703 0.0
H1307 H 0.6146 0.03923 0.82448 0.0
H1308 H 0.63677 0.0158 0.85644 0.0
H1309 H 0.61422 0.97549 0.74383 0.0
H1310 H 0.59306 0.99932 0.70799 0.0
H1311 H 0.66343 1.00237 0.78778 0.0
H1312 H 0.62146 0.93143 0.8132 0.0
H1313 H 0.59655 0.91788 0.86992 0.0
H1314 H 0.59595 0.96771 0.96777 0.0
H1315 H 0.62078 0.98148 0.912 0.0
C1316 C 0.72199 0.94572 0.89594 0.0
C1317 C 0.71759 0.94347 0.95043 0.0
C1318 C 0.7077 0.94951 0.85908 0.0
C1319 C 0.68913 0.95148 0.87714 0.0
C1320 C 0.68475 0.94733 0.93081 0.0
C1321 C 0.69885 0.94316 0.96696 0.0
C1322 C 0.67451 0.96047 0.84417 0.0
C1323 C 0.65642 0.95281 0.84596 0.0
C1324 C 0.6771 0.97852 0.82227 0.0
C1325 C 0.69533 0.98842 0.8236 0.0
C1326 C 0.70326 0.99411 0.87289 0.0
C1327 C 0.72036 1.00369 0.87382 0.0
C1328 C 0.72951 0.00784 0.82568 0.0
C1329 C 0.72154 1.00248 0.77651 0.0
C1330 C 0.70446 0.99286 0.77538 0.0
C1331 C 0.61447 0.0254 0.80619 0.0
C1332 C 0.6026 0.02125 0.76262 0.0
C1333 C 0.62697 0.01202 0.8248 0.0
C1334 C 0.6275 0.9942 0.80088 0.0
C1335 C 0.6144 0.9894 0.76115 0.0
C1336 C 0.6022 1.00295 0.7413 0.0
C1337 C 0.64329 0.98167 0.81268 0.0
C1338 C 0.66149 0.98847 0.80423 0.0
C1339 C 0.64069 0.96369 0.83422 0.0
C1340 C 0.6227 0.9576 0.85772 0.0
C1341 C 0.61559 0.93968 0.84584 0.0
C1342 C 0.60169 0.93187 0.87831 0.0
C1343 C 0.59493 0.94186 0.92281 0.0
C1344 C 0.60134 0.95997 0.93351 0.0
C1345 C 0.61516 0.96787 0.9011 0.0
H1346 H 0.58482 0.93558 0.94931 0.0
H1347 H 0.74274 0.01528 0.82645 0.0
H1348 H 0.59707 0.69519 0.01103 0.0
H1349 H 0.5856 0.66844 0.96028 0.0
H1350 H 0.57811 0.70311 0.82065 0.0
H1351 H 0.59012 0.73014 0.8711 0.0
H1352 H 0.54576 0.68736 0.85632 0.0
H1353 H 0.60714 0.66686 0.81426 0.0
H1354 H 0.64025 0.65941 0.8323 0.0
H1355 H 0.6235 0.61545 0.9388 0.0
H1356 H 0.59026 0.62296 0.92257 0.0
H1357 H 0.49766 0.61098 0.73882 0.0
H1358 H 0.52042 0.63624 0.75437 0.0
H1359 H 0.53882 0.60942 0.89981 0.0
H1360 H 0.51585 0.5843 0.8849 0.0
H1361 H 0.56819 0.62173 0.84242 0.0
H1362 H 0.50856 0.64641 0.90129 0.0
H1363 H 0.47509 0.6541 0.89 0.0
H1364 H 0.48862 0.69037 0.75875 0.0
H1365 H 0.52217 0.68263 0.76869 0.0
C1366 C 0.59394 0.69702 0.96877 0.0
C1367 C 0.59439 0.71482 0.9451 0.0
C1368 C 0.5873 0.68167 0.93983 0.0
C1369 C 0.58106 0.68387 0.88684 0.0
C1370 C 0.58294 0.70123 0.86157 0.0
C1371 C 0.58973 0.71661 0.89044 0.0
C1372 C 0.56965 0.66899 0.86209 0.0
C1373 C 0.55078 0.67309 0.85171 0.0
C1374 C 0.57617 0.65036 0.85802 0.0
C1375 C 0.59616 0.64554 0.86729 0.0
C1376 C 0.61049 0.65569 0.84184 0.0
C1377 C 0.6293 0.65146 0.85177 0.0
C1378 C 0.63398 0.63698 0.88671 0.0
C1379 C 0.61985 0.62668 0.91175 0.0
C1380 C 0.60102 0.63091 0.90217 0.0
C1381 C 0.50659 0.61059 0.77404 0.0
C1382 C 0.50497 0.59604 0.81116 0.0
C1383 C 0.5196 0.62482 0.78255 0.0
C1384 C 0.53128 0.62453 0.8278 0.0
C1385 C 0.52993 0.60978 0.86447 0.0
C1386 C 0.51673 0.59565 0.85636 0.0
C1387 C 0.5443 0.64011 0.83814 0.0
C1388 C 0.56335 0.63609 0.84582 0.0
C1389 C 0.53794 0.65884 0.84065 0.0
C1390 C 0.51783 0.66382 0.83542 0.0
C1391 C 0.50438 0.65595 0.86985 0.0
C1392 C 0.4854 0.66031 0.86368 0.0
C1393 C 0.47973 0.67269 0.82361 0.0
C1394 C 0.49303 0.68077 0.78972 0.0
C1395 C 0.51203 0.67641 0.7956 0.0
H1396 H 0.46502 0.67604 0.81889 0.0
H1397 H 0.64855 0.63372 0.89433 0.0
H1398 H 0.83673 0.59682 0.01172 0.0
H1399 H 0.86161 0.58973 0.9486 0.0
H1400 H 0.82135 0.58763 0.81873 0.0
H1401 H 0.79603 0.59336 0.8833 0.0
H1402 H 0.8391 0.55645 0.8247 0.0
H1403 H 0.8605 0.62019 0.82487 0.0
H1404 H 0.86929 0.65029 0.8672 0.0
H1405 H 0.91358 0.62321 0.95403 0.0
H1406 H 0.90484 0.59291 0.91314 0.0
H1407 H 0.91671 0.5117 0.69746 0.0
H1408 H 0.89293 0.53616 0.70988 0.0
H1409 H 0.91397 0.54707 0.87006 0.0
H1410 H 0.9375 0.52259 0.85792 0.0
H1411 H 0.90478 0.57913 0.81947 0.0
H1412 H 0.87855 0.51777 0.85198 0.0
H1413 H 0.86907 0.48543 0.82943 0.0
H1414 H 0.83418 0.50573 0.70173 0.0
H1415 H 0.84373 0.5382 0.72302 0.0
C1416 C 0.83326 0.59543 0.96942 0.0
C1417 C 0.8145 0.5953 0.95233 0.0
C1418 C 0.84755 0.59163 0.9331 0.0
C1419 C 0.84341 0.58833 0.87864 0.0
C1420 C 0.82484 0.59022 0.86056 0.0
C1421 C 0.81042 0.59364 0.8973 0.0
C1422 C 0.85773 0.57938 0.844 0.0
C1423 C 0.85331 0.56179 0.82173 0.0
C1424 C 0.87644 0.58596 0.84204 0.0
C1425 C 0.88204 0.60428 0.86564 0.0
C1426 C 0.87209 0.62065 0.85304 0.0
C1427 C 0.87705 0.63775 0.87689 0.0
C1428 C 0.89199 0.63867 0.91322 0.0
C1429 C 0.90203 0.6225 0.92578 0.0
C1430 C 0.89711 0.60536 0.90216 0.0
C1431 C 0.91643 0.51967 0.73475 0.0
C1432 C 0.92867 0.51532 0.77705 0.0
C1433 C 0.90291 0.53358 0.74175 0.0
C1434 C 0.90176 0.54337 0.7908 0.0
C1435 C 0.91474 0.53972 0.8318 0.0
C1436 C 0.92805 0.52571 0.82506 0.0
C1437 C 0.88612 0.55619 0.80228 0.0
C1438 C 0.89034 0.57435 0.82016 0.0
C1439 C 0.86734 0.54989 0.8023 0.0
C1440 C 0.86213 0.53035 0.78835 0.0
C1441 C 0.86908 0.51531 0.81857 0.0
C1442 C 0.86364 0.49696 0.80615 0.0
C1443 C 0.8511 0.49351 0.76399 0.0
C1444 C 0.84397 0.50841 0.73419 0.0
C1445 C 0.84941 0.52678 0.74635 0.0
H1446 H 0.84685 0.47931 0.75455 0.0
H1447 H 0.89579 0.65192 0.93168 0.0
H1448 H 0.07395 0.20747 0.7709 0.0
H1449 H 0.06992 0.17646 0.73238 0.0
H1450 H 0.01651 0.17147 0.81204 0.0
H1451 H 0.02143 0.20139 0.8562 0.0
H1452 H 0.0321 0.14122 0.82308 0.0
H1453 H 0.02734 0.1791 0.65975 0.0
H1454 H 0.03963 0.20159 0.59366 0.0
H1455 H 0.08747 0.16635 0.56594 0.0
H1456 H 0.07549 0.14369 0.63199 0.0
H1457 H 0.98983 0.06535 0.68536 0.0
H1458 H 0.99987 0.09545 0.72191 0.0
H1459 H 0.05348 0.08911 0.6441 0.0
H1460 H 0.04293 0.05902 0.60485 0.0
H1461 H 0.04223 0.12385 0.63198 0.0
H1462 H 0.05625 0.09901 0.81875 0.0
H1463 H 0.0508 0.08073 0.90114 0.0
H1464 H 0.99172 0.09169 0.88999 0.0
H1465 H 0.99709 0.11092 0.80936 0.0
C1466 C 0.0614 0.19985 0.7814 0.0
C1467 C 0.04814 0.20751 0.81791 0.0
C1468 C 0.05889 0.18201 0.75777 0.0
C1469 C 0.04267 0.17135 0.76784 0.0
C1470 C 0.0292 0.17915 0.80295 0.0
C1471 C 0.03195 0.19669 0.82788 0.0
C1472 C 0.04001 0.15168 0.74548 0.0
C1473 C 0.03394 0.13772 0.78085 0.0
C1474 C 0.04358 0.14627 0.69116 0.0
C1475 C 0.05056 0.15976 0.65094 0.0
C1476 C 0.04048 0.17617 0.63958 0.0
C1477 C 0.04739 0.18893 0.60211 0.0
C1478 C 0.0643 0.18538 0.57557 0.0
C1479 C 0.07435 0.16905 0.58643 0.0
C1480 C 0.06749 0.15623 0.62376 0.0
C1481 C 1.00389 0.07017 0.6766 0.0
C1482 C 0.01568 0.0594 0.64318 0.0
C1483 C 0.00979 0.08741 0.69839 0.0
C1484 C 0.02778 0.09461 0.68795 0.0
C1485 C 0.03963 0.08395 0.65392 0.0
C1486 C 0.03364 0.06661 0.63169 0.0
C1487 C 0.03331 0.11379 0.70934 0.0
C1488 C 0.04013 0.12755 0.67395 0.0
C1489 C 0.03081 0.11912 0.76396 0.0
C1490 C 0.02694 0.10552 0.80672 0.0
C1491 C 0.04207 0.09716 0.8334 0.0
C1492 C 0.03907 0.08707 0.88054 0.0
C1493 C 0.02089 0.08486 0.90047 0.0
C1494 C 1.00575 0.09315 0.87403 0.0
C1495 C 0.00879 0.10376 0.82787 0.0
H1496 H 0.01854 0.07681 0.93651 0.0
H1497 H 0.06963 0.19527 0.5466 0.0
H1498 H 0.334 0.07689 0.84475 0.0
H1499 H 0.3638 0.07052 0.79986 0.0
H1500 H 0.3384 0.0242 0.71432 0.0
H1501 H 0.30863 0.0303 0.76008 0.0
H1502 H 0.37001 0.01369 0.75299 0.0
H1503 H 0.35114 0.06959 0.65782 0.0
H1504 H 0.34246 0.10285 0.6492 0.0
H1505 H 0.39462 0.11928 0.72202 0.0
H1506 H 0.40357 0.08612 0.73128 0.0
H1507 H 0.44782 0.98679 0.60485 0.0
H1508 H 0.4169 0.9978 0.62801 0.0
H1509 H 0.43957 0.05252 0.66476 0.0
H1510 H 0.46903 0.04265 0.62286 0.0
H1511 H 0.40878 0.0598 0.65531 0.0
H1512 H 0.42651 1.00579 0.76522 0.0
H1513 H 0.43606 0.97292 0.77903 0.0
H1514 H 0.38745 0.95383 0.69229 0.0
H1515 H 0.37769 0.98653 0.67787 0.0
C1516 C 0.33464 0.06551 0.81576 0.0
C1517 C 0.31878 0.05415 0.80599 0.0
C1518 C 0.35177 0.0619 0.78986 0.0
C1519 C 0.35347 0.04702 0.75276 0.0
C1520 C 0.33758 0.0358 0.74259 0.0
C1521 C 0.32051 0.03926 0.76894 0.0
C1522 C 0.37197 0.04223 0.72719 0.0
C1523 C 0.37842 0.02378 0.73121 0.0
C1524 C 0.38349 0.05544 0.70064 0.0
C1525 C 0.37795 0.07536 0.69559 0.0
C1526 C 0.36068 0.08029 0.67242 0.0
C1527 C 0.35574 0.09913 0.66725 0.0
C1528 C 0.36796 0.11317 0.68516 0.0
C1529 C 0.38517 0.1084 0.70815 0.0
C1530 C 0.3902 0.08958 0.71323 0.0
C1531 C 0.44629 1.00122 0.61784 0.0
C1532 C 0.46176 0.01344 0.61803 0.0
C1533 C 0.42844 0.00744 0.63298 0.0
C1534 C 0.42571 0.02549 0.65509 0.0
C1535 C 0.44091 0.03816 0.65112 0.0
C1536 C 0.45829 0.03238 0.62967 0.0
C1537 C 0.40723 0.03102 0.68125 0.0
C1538 C 0.40069 0.04964 0.67754 0.0
C1539 C 0.3958 0.0181 0.70999 0.0
C1540 C 0.40145 0.99854 0.7203 0.0
C1541 C 0.41786 0.99455 0.7493 0.0
C1542 C 0.42332 0.97596 0.75712 0.0
C1543 C 0.41238 0.96131 0.7365 0.0
C1544 C 0.3959 0.96518 0.70828 0.0
C1545 C 0.39038 0.98372 0.7004 0.0
H1546 H 0.41666 0.94694 0.74242 0.0
H1547 H 0.36411 0.12775 0.68114 0.0
H1548 H 0.45862 0.3032 0.73222 0.0
H1549 H 0.46328 0.33322 0.68626 0.0
H1550 H 0.47274 0.36058 0.8391 0.0
H1551 H 0.46844 0.33062 0.88506 0.0
H1552 H 0.44682 0.38009 0.75855 0.0
H1553 H 0.51139 0.35483 0.77816 0.0
H1554 H 0.53323 0.32818 0.7682 0.0
H1555 H 0.51825 0.32273 0.60137 0.0
H1556 H 0.496 0.34908 0.61116 0.0
H1557 H 0.48997 0.46593 0.70506 0.0
H1558 H 0.48108 0.43515 0.7376 0.0
H1559 H 0.49353 0.41115 0.58181 0.0
H1560 H 0.50292 0.44221 0.54935 0.0
H1561 H 0.5056 0.38847 0.65462 0.0
H1562 H 0.44738 0.41869 0.62829 0.0
H1563 H 0.42374 0.44379 0.63468 0.0
H1564 H 0.42237 0.4382 0.80635 0.0
H1565 H 0.44629 0.41333 0.80127 0.0
C1566 C 0.46165 0.31564 0.75593 0.0
C1567 C 0.46339 0.31452 0.81215 0.0
C1568 C 0.46426 0.33276 0.7297 0.0
C1569 C 0.46829 0.34914 0.7593 0.0
C1570 C 0.46957 0.34814 0.81551 0.0
C1571 C 0.4673 0.33099 0.84163 0.0
C1572 C 0.47234 0.3671 0.73158 0.0
C1573 C 0.45971 0.38205 0.73616 0.0
C1574 C 0.48878 0.36942 0.70084 0.0
C1575 C 0.50241 0.35403 0.69494 0.0
C1576 C 0.51288 0.34797 0.73936 0.0
C1577 C 0.52523 0.33288 0.73386 0.0
C1578 C 0.52722 0.32384 0.68409 0.0
C1579 C 0.5168 0.32982 0.6398 0.0
C1580 C 0.50438 0.34484 0.64524 0.0
C1581 C 0.49051 0.45417 0.67737 0.0
C1582 C 0.4967 0.45658 0.62424 0.0
C1583 C 0.48545 0.4365 0.6961 0.0
C1584 C 0.4861 0.42074 0.66192 0.0
C1585 C 0.49274 0.42303 0.60901 0.0
C1586 C 0.49809 0.44078 0.5904 0.0
C1587 C 0.48027 0.40195 0.68236 0.0
C1588 C 0.49257 0.3867 0.67649 0.0
C1589 C 0.46326 0.39933 0.71115 0.0
C1590 C 0.44874 0.4142 0.71442 0.0
C1591 C 0.44214 0.42288 0.66747 0.0
C1592 C 0.42868 0.43706 0.67084 0.0
C1593 C 0.42155 0.44255 0.72084 0.0
C1594 C 0.42789 0.4339 0.76763 0.0
C1595 C 0.4414 0.41976 0.76454 0.0
H1596 H 0.41113 0.45354 0.72333 0.0
H1597 H 0.53678 0.31215 0.67989 0.0
H1598 H 0.21154 0.44082 0.7696 0.0
H1599 H 0.18115 0.44528 0.7277 0.0
H1600 H 0.17432 0.49731 0.81482 0.0
H1601 H 0.20374 0.49197 0.86144 0.0
H1602 H 0.14349 0.48145 0.81816 0.0
H1603 H 0.18579 0.49012 0.66893 0.0
H1604 H 0.20991 0.48237 0.60135 0.0
H1605 H 0.17669 0.43604 0.54486 0.0
H1606 H 0.15261 0.44319 0.613 0.0
H1607 H 0.07581 0.52473 0.64348 0.0
H1608 H 0.10587 0.51572 0.6833 0.0
H1609 H 0.09245 0.45749 0.65777 0.0
H1610 H 0.06203 0.46635 0.61935 0.0
H1611 H 0.13151 0.47254 0.6234 0.0
H1612 H 0.09021 0.46396 0.76894 0.0
H1613 H 0.06488 0.47153 0.83279 0.0
H1614 H 0.09625 0.51884 0.89148 0.0
H1615 H 0.12162 0.51177 0.82698 0.0
C1616 C 0.20359 0.45314 0.78076 0.0
C1617 C 0.21046 0.46592 0.81985 0.0
C1618 C 0.18618 0.45588 0.75557 0.0
C1619 C 0.17527 0.47183 0.76699 0.0
C1620 C 0.18228 0.48485 0.80486 0.0
C1621 C 0.19945 0.48189 0.83112 0.0
C1622 C 0.15627 0.47468 0.74177 0.0
C1623 C 0.14119 0.47997 0.77521 0.0
C1624 C 0.1526 0.47185 0.68598 0.0
C1625 C 0.16752 0.46704 0.64671 0.0
C1626 C 0.18378 0.47808 0.64276 0.0
C1627 C 0.19744 0.47381 0.60426 0.0
C1628 C 0.19488 0.45867 0.569 0.0
C1629 C 0.1787 0.44771 0.57233 0.0
C1630 C 0.16508 0.45184 0.61099 0.0
C1631 C 0.07918 0.51 0.64627 0.0
C1632 C 0.06631 0.49628 0.62877 0.0
C1633 C 0.09639 0.50487 0.66923 0.0
C1634 C 0.10134 0.48593 0.67408 0.0
C1635 C 0.08887 0.47219 0.65484 0.0
C1636 C 0.07145 0.4773 0.63302 0.0
C1637 C 0.11963 0.48066 0.699 0.0
C1638 C 0.1343 0.47458 0.66584 0.0
C1639 C 0.12303 0.48291 0.75464 0.0
C1640 C 0.10766 0.48753 0.7925 0.0
C1641 C 0.09157 0.47617 0.79479 0.0
C1642 C 0.07724 0.48032 0.83126 0.0
C1643 C 0.07892 0.4957 0.86603 0.0
C1644 C 0.09494 0.50697 0.86438 0.0
C1645 C 0.10929 0.50291 0.82784 0.0
H1646 H 0.06784 0.49886 0.89441 0.0
H1647 H 0.20539 0.45548 0.53893 0.0
H1648 H 0.94389 0.82599 0.33994 0.0
H1649 H 0.94805 0.85677 0.38182 0.0
H1650 H 0.00759 0.84713 0.39232 0.0
H1651 H 1.00345 0.81594 0.35294 0.0
H1652 H 0.99521 0.86229 0.48318 0.0
H1653 H 0.98415 0.87642 0.2926 0.0
H1654 H 0.96464 0.87542 0.21058 0.0
H1655 H 0.92009 0.90359 0.29455 0.0
H1656 H 0.93924 0.90454 0.37719 0.0
H1657 H 0.03507 0.95354 0.49264 0.0
H1658 H 0.02334 0.92353 0.4588 0.0
H1659 H 0.9682 0.93681 0.51836 0.0
H1660 H 0.98028 0.96668 0.55574 0.0
H1661 H 0.97375 0.92089 0.39689 0.0
H1662 H 0.97561 0.90383 0.57834 0.0
H1663 H 0.98525 0.89944 0.67204 0.0
H1664 H 0.03769 0.8761 0.61965 0.0
H1665 H 0.02784 0.87954 0.52484 0.0
C1666 C 0.95789 0.83022 0.35177 0.0
C1667 C 0.97333 0.8182 0.3428 0.0
C1668 C 0.96028 0.84809 0.37508 0.0
C1669 C 0.97821 0.85465 0.3895 0.0
C1670 C 0.99359 0.84261 0.38128 0.0
C1671 C 0.99121 0.82472 0.35825 0.0
C1672 C 0.9811 0.87375 0.41438 0.0
C1673 C 0.99077 0.87504 0.4635 0.0
C1674 C 0.97426 0.89057 0.39124 0.0
C1675 C 0.96307 0.89043 0.34109 0.0
C1676 C 0.97017 0.88234 0.29356 0.0
C1677 C 0.95917 0.88178 0.24699 0.0
C1678 C 0.94113 0.8894 0.24738 0.0
C1679 C 0.93406 0.89768 0.29429 0.0
C1680 C 0.94498 0.89825 0.34096 0.0
C1681 C 0.02041 0.95017 0.4986 0.0
C1682 C 0.00854 0.96284 0.5257 0.0
C1683 C 0.01372 0.93295 0.4791 0.0
C1684 C 0.99486 0.92787 0.48549 0.0
C1685 C 0.9828 0.94043 0.51252 0.0
C1686 C 0.98967 0.95758 0.53346 0.0
C1687 C 0.98835 0.90922 0.46446 0.0
C1688 C 0.97822 0.90806 0.41609 0.0
C1689 C 0.99399 0.8924 0.48919 0.0
C1690 C 1.00118 0.8923 0.54479 0.0
C1691 C 0.98936 0.89812 0.58681 0.0
C1692 C 0.9948 0.89566 0.64015 0.0
C1693 C 0.01221 0.88775 0.65203 0.0
C1694 C 0.02424 0.8823 0.61039 0.0
C1695 C 0.01868 0.88437 0.5568 0.0
H1696 H 0.01626 0.88561 0.69344 0.0
H1697 H 0.93262 0.88892 0.21132 0.0
H1698 H 0.69335 0.94695 0.31247 0.0
H1699 H 0.66207 0.95142 0.3513 0.0
H1700 H 0.68366 0.99498 0.45503 0.0
H1701 H 0.71504 0.9908 0.41571 0.0
H1702 H 0.65738 0.96495 0.50454 0.0
H1703 H 0.66233 0.01014 0.35737 0.0
H1704 H 0.6688 0.01729 0.26228 0.0
H1705 H 0.62565 0.97889 0.2125 0.0
H1706 H 0.61911 0.97135 0.30736 0.0
H1707 H 0.57366 0.03285 0.50996 0.0
H1708 H 0.60352 0.02001 0.47932 0.0
H1709 H 0.58369 0.96429 0.51284 0.0
H1710 H 0.55481 0.97745 0.55075 0.0
H1711 H 0.60847 0.99543 0.39379 0.0
H1712 H 0.60762 0.94464 0.53152 0.0
H1713 H 0.60472 0.9311 0.62195 0.0
H1714 H 0.64287 0.97248 0.68434 0.0
H1715 H 0.64457 0.98724 0.59516 0.0
C1716 C 0.69155 0.95736 0.34398 0.0
C1717 C 0.70684 0.96847 0.36101 0.0
C1718 C 0.67358 0.95993 0.36604 0.0
C1719 C 0.67044 0.97349 0.40629 0.0
C1720 C 0.68572 0.98436 0.42424 0.0
C1721 C 0.70364 0.98203 0.40148 0.0
C1722 C 0.65109 0.97694 0.42775 0.0
C1723 C 0.64668 0.9717 0.48047 0.0
C1724 C 0.63685 0.98503 0.39591 0.0
C1725 C 0.64034 0.99009 0.33926 0.0
C1726 C 0.65429 1.00318 0.32609 0.0
C1727 C 0.65796 0.0073 0.27227 0.0
C1728 C 0.64767 0.99852 0.23136 0.0
C1729 C 0.63361 0.98567 0.24421 0.0
C1730 C 0.6299 0.98149 0.29797 0.0
C1731 C 0.57575 0.01784 0.51168 0.0
C1732 C 0.56148 1.00616 0.5314 0.0
C1733 C 0.59293 0.01047 0.49409 0.0
C1734 C 0.59644 0.9911 0.49482 0.0
C1735 C 0.58211 0.9793 0.51408 0.0
C1736 C 0.56512 0.98681 0.53389 0.0
C1737 C 0.61462 0.98386 0.47164 0.0
C1738 C 0.61899 0.98854 0.41817 0.0
C1739 C 0.62863 0.97465 0.50242 0.0
C1740 C 0.6253 0.9677 0.55738 0.0
C1741 C 0.6145 0.9515 0.56517 0.0
C1742 C 0.6132 0.9435 0.61613 0.0
C1743 C 0.62337 0.95109 0.65912 0.0
C1744 C 0.63465 0.96685 0.65133 0.0
C1745 C 0.63551 0.97524 0.60081 0.0
H1746 H 0.62268 0.94463 0.6983 0.0
H1747 H 0.65056 1.00169 0.18971 0.0
H1748 H 0.58804 0.71005 0.39181 0.0
H1749 H 0.5823 0.67952 0.43171 0.0
H1750 H 0.52635 0.67919 0.36673 0.0
H1751 H 0.53223 0.70902 0.32299 0.0
H1752 H 0.53212 0.66951 0.48595 0.0
H1753 H 0.55489 0.65492 0.30387 0.0
H1754 H 0.57891 0.65686 0.23284 0.0
H1755 H 0.61946 0.632 0.33814 0.0
H1756 H 0.59577 0.63025 0.41014 0.0
H1757 H 0.50035 0.57894 0.53857 0.0
H1758 H 0.50804 0.60895 0.49945 0.0
H1759 H 0.56647 0.59327 0.49361 0.0
H1760 H 0.55842 0.56235 0.5278 0.0
H1761 H 0.56179 0.61189 0.41263 0.0
H1762 H 0.54494 0.62412 0.59003 0.0
H1763 H 0.52616 0.6223 0.67188 0.0
H1764 H 0.48236 0.65436 0.59762 0.0
H1765 H 0.50052 0.65519 0.51324 0.0
C1766 C 0.57455 0.70352 0.38498 0.0
C1767 C 0.5607 0.7123 0.35321 0.0
C1768 C 0.57128 0.68604 0.40845 0.0
C1769 C 0.55395 0.67702 0.40193 0.0
C1770 C 0.53984 0.68592 0.37228 0.0
C1771 C 0.54322 0.70319 0.3477 0.0
C1772 C 0.55052 0.65823 0.4256 0.0
C1773 C 0.53835 0.65684 0.46955 0.0
C1774 C 0.55956 0.64188 0.40627 0.0
C1775 C 0.57362 0.64264 0.36252 0.0
C1776 C 0.56897 0.65002 0.31201 0.0
C1777 C 0.58253 0.65107 0.27156 0.0
C1778 C 0.60072 0.64461 0.28101 0.0
C1779 C 0.60538 0.63703 0.33089 0.0
C1780 C 0.59189 0.63601 0.37151 0.0
C1781 C 0.5148 0.58164 0.52821 0.0
C1782 C 0.52863 0.56784 0.53494 0.0
C1783 C 0.51929 0.59909 0.50643 0.0
C1784 C 0.53796 0.60379 0.4939 0.0
C1785 C 0.55191 0.59017 0.50214 0.0
C1786 C 0.54729 0.57241 0.52198 0.0
C1787 C 0.54284 0.62287 0.47276 0.0
C1788 C 0.55539 0.62442 0.42938 0.0
C1789 C 0.5349 0.63956 0.49444 0.0
C1790 C 0.52402 0.63957 0.54516 0.0
C1791 C 0.53123 0.63066 0.5909 0.0
C1792 C 0.52065 0.6298 0.63786 0.0
C1793 C 0.50308 0.63842 0.64047 0.0
C1794 C 0.49598 0.64772 0.59563 0.0
C1795 C 0.50637 0.64826 0.54801 0.0
H1796 H 0.49493 0.6379 0.6771 0.0
H1797 H 0.61119 0.64543 0.24965 0.0
H1798 H 0.82503 0.57159 0.28747 0.0
H1799 H 0.85576 0.56649 0.32947 0.0
H1800 H 0.82911 0.53713 0.45954 0.0
H1801 H 0.79829 0.54203 0.41686 0.0
H1802 H 0.85837 0.56215 0.49436 0.0
H1803 H 0.8494 0.51219 0.36505 0.0
H1804 H 0.84151 0.50004 0.2747 0.0
H1805 H 0.8877 0.53052 0.20749 0.0
H1806 H 0.89567 0.54309 0.29745 0.0
H1807 H 0.94118 0.51726 0.59555 0.0
H1808 H 0.90974 0.52493 0.56196 0.0
H1809 H 0.93409 0.54676 0.4167 0.0
H1810 H 0.96532 0.5388 0.44959 0.0
H1811 H 0.90546 0.52554 0.391 0.0
H1812 H 0.91246 0.57857 0.5063 0.0
H1813 H 0.91906 0.59706 0.58786 0.0
H1814 H 0.87838 0.56514 0.6756 0.0
H1815 H 0.87109 0.5468 0.59339 0.0
C1816 C 0.82575 0.56414 0.32519 0.0
C1817 C 0.80932 0.55711 0.34883 0.0
C1818 C 0.84331 0.56121 0.34917 0.0
C1819 C 0.84485 0.55129 0.39762 0.0
C1820 C 0.82834 0.54479 0.4222 0.0
C1821 C 0.81076 0.5475 0.39774 0.0
C1822 C 0.86374 0.54693 0.42092 0.0
C1823 C 0.86852 0.55381 0.47221 0.0
C1824 C 0.87736 0.53669 0.39148 0.0
C1825 C 0.87305 0.52865 0.33781 0.0
C1826 C 0.85783 0.51634 0.33094 0.0
C1827 C 0.85334 0.50939 0.27983 0.0
C1828 C 0.86408 0.51453 0.23536 0.0
C1829 C 0.87939 0.52656 0.24197 0.0
C1830 C 0.88392 0.53358 0.29301 0.0
C1831 C 0.93982 0.52374 0.55652 0.0
C1832 C 0.95588 0.52764 0.52567 0.0
C1833 C 0.92181 0.52828 0.53746 0.0
C1834 C 0.91938 0.53664 0.4868 0.0
C1835 C 0.93544 0.54043 0.45595 0.0
C1836 C 0.9534 0.53605 0.47516 0.0
C1837 C 0.90017 0.54066 0.46481 0.0
C1838 C 0.8953 0.53369 0.41361 0.0
C1839 C 0.8866 0.5511 0.49393 0.0
C1840 C 0.8915 0.56114 0.54416 0.0
C1841 C 0.90514 0.57532 0.54323 0.0
C1842 C 0.90898 0.58578 0.58958 0.0
C1843 C 0.89952 0.58196 0.6375 0.0
C1844 C 0.88591 0.56788 0.63871 0.0
C1845 C 0.88181 0.55754 0.59212 0.0
H1846 H 0.90258 0.59005 0.67347 0.0
H1847 H 0.86056 0.50916 0.19578 0.0
loop_
_geom_bond_atom_site_label_1
_geom_bond_atom_site_label_2
_geom_bond_distance
_geom_bond_site_symmetry_2
_ccdc_geom_bond_type
C0 C1 1.386 . S
C0 C2 1.397 1_556 S
C0 H24 0.931 . S
C1 C0 1.386 . S
C1 C5 1.397 1_556 S
C2 C0 1.397 1_554 S
C2 C3 1.384 . S
C2 H25 0.930 . S
C3 C2 1.384 . S
C3 C4 1.377 . S
C3 C6 1.481 . S
C4 C3 1.377 . S
C4 C5 1.389 . S
C4 H26 0.929 . S
C5 C1 1.397 1_554 S
C5 C4 1.389 . S
C5 H27 0.931 . S
C6 C3 1.481 . S
C6 C7 1.387 . S
C6 C11 1.390 . S
C7 C6 1.387 . S
C7 C8 1.401 . S
C7 H28 0.930 . S
C8 C7 1.401 . S
C8 C9 1.376 . S
C8 C17 1.511 . S
C9 C8 1.376 . S
C9 C10 1.392 . S
C9 H30 0.931 . S
C10 C9 1.392 . S
C10 C11 1.361 . S
C10 C12 1.500 . S
C11 C6 1.390 . S
C11 C10 1.361 . S
C11 H29 0.931 . S
C12 C10 1.500 . S
C12 C13 1.371 . S
C12 C14 1.365 . S
C13 C12 1.371 . S
C13 C23 1.386 . S
C13 H31 0.931 . S
C14 C12 1.365 . S
C14 C15 1.409 . S
C14 H32 0.929 . S
C15 C14 1.409 . S
C15 C16 1.380 . S
C15 H33 0.930 . S
C16 C15 1.380 . S
C16 C23 1.357 . S
C17 C8 1.511 . S
C17 C18 1.341 . S
C17 C19 1.371 . S
C18 C17 1.341 . S
C18 C22 1.394 . S
C18 H34 0.930 . S
C19 C17 1.371 . S
C19 C20 1.392 . S
C19 H35 0.931 . S
C20 C19 1.392 . S
C20 C21 1.331 . S
C20 H38 0.932 . S
C21 C20 1.331 . S
C21 C22 1.336 . S
C22 C18 1.394 . S
C22 C21 1.336 . S
C22 H37 0.929 . S
C23 C13 1.386 . S
C23 C16 1.357 . S
C23 H36 0.928 . S
H24 C0 0.931 . S
H25 C2 0.930 . S
H26 C4 0.929 . S
H27 C5 0.931 . S
H28 C7 0.930 . S
H29 C11 0.931 . S
H30 C9 0.931 . S
H31 C13 0.931 . S
H32 C14 0.929 . S
H33 C15 0.930 . S
H34 C18 0.930 . S
H35 C19 0.931 . S
H36 C23 0.928 . S
H37 C22 0.929 . S
H38 C20 0.932 . S
C39 C40 1.386 . S
C39 C41 1.397 1_556 S
C39 H63 0.931 . S
C40 C39 1.386 . S
C40 C44 1.397 1_556 S
C41 C39 1.397 1_554 S
C41 C42 1.384 . S
C41 H64 0.930 . S
C42 C41 1.384 . S
C42 C43 1.377 . S
C42 C45 1.481 . S
C43 C42 1.377 . S
C43 C44 1.389 . S
C43 H65 0.929 . S
C44 C40 1.397 1_554 S
C44 C43 1.389 . S
C44 H66 0.931 . S
C45 C42 1.481 . S
C45 C46 1.387 . S
C45 C50 1.390 . S
C46 C45 1.387 . S
C46 C47 1.401 . S
C46 H67 0.930 . S
C47 C46 1.401 . S
C47 C48 1.376 . S
C47 C56 1.511 . S
C48 C47 1.376 . S
C48 C49 1.392 . S
C48 H69 0.931 . S
C49 C48 1.392 . S
C49 C50 1.361 . S
C49 C51 1.500 . S
C50 C45 1.390 . S
C50 C49 1.361 . S
C50 H68 0.931 . S
C51 C49 1.500 . S
C51 C52 1.371 . S
C51 C53 1.365 . S
C52 C51 1.371 . S
C52 C62 1.386 . S
C52 H70 0.931 . S
C53 C51 1.365 . S
C53 C54 1.409 . S
C53 H71 0.929 . S
C54 C53 1.409 . S
C54 C55 1.380 . S
C54 H72 0.930 . S
C55 C54 1.380 . S
C55 C62 1.357 . S
C56 C47 1.511 . S
C56 C57 1.341 . S
C56 C58 1.371 . S
C57 C56 1.341 . S
C57 C61 1.394 . S
C57 H73 0.930 . S
C58 C56 1.371 . S
C58 C59 1.392 . S
C58 H74 0.931 . S
C59 C58 1.392 . S
C59 C60 1.331 . S
C59 H77 0.932 . S
C60 C59 1.331 . S
C60 C61 1.336 . S
C61 C57 1.394 . S
C61 C60 1.336 . S
C61 H76 0.929 . S
C62 C52 1.386 . S
C62 C55 1.357 . S
C62 H75 0.928 . S
H63 C39 0.931 . S
H64 C41 0.930 . S
H65 C43 0.929 . S
H66 C44 0.931 . S
H67 C46 0.930 . S
H68 C50 0.931 . S
H69 C48 0.931 . S
H70 C52 0.931 . S
H71 C53 0.929 . S
H72 C54 0.930 . S
H73 C57 0.930 . S
H74 C58 0.931 . S
H75 C62 0.928 . S
H76 C61 0.929 . S
H77 C59 0.932 . S
C78 C79 1.386 . S
C78 C80 1.397 1_556 S
C78 H102 0.931 . S
C79 C78 1.386 . S
C79 C83 1.397 1_556 S
C80 C78 1.397 1_554 S
C80 C81 1.384 . S
C80 H103 0.930 . S
C81 C80 1.384 . S
C81 C82 1.377 . S
C81 C84 1.481 . S
C82 C81 1.377 . S
C82 C83 1.389 . S
C82 H104 0.929 . S
C83 C79 1.397 1_554 S
C83 C82 1.389 . S
C83 H105 0.931 . S
C84 C81 1.481 . S
C84 C85 1.387 . S
C84 C89 1.390 . S
C85 C84 1.387 . S
C85 C86 1.401 . S
C85 H106 0.930 . S
C86 C85 1.401 . S
C86 C87 1.376 . S
C86 C95 1.511 . S
C87 C86 1.376 . S
C87 C88 1.392 . S
C87 H108 0.931 . S
C88 C87 1.392 . S
C88 C89 1.361 . S
C88 C90 1.500 . S
C89 C84 1.390 . S
C89 C88 1.361 . S
C89 H107 0.931 . S
C90 C88 1.500 . S
C90 C91 1.371 . S
C90 C92 1.365 . S
C91 C90 1.371 . S
C91 C101 1.386 . S
C91 H109 0.931 . S
C92 C90 1.365 . S
C92 C93 1.409 . S
C92 H110 0.929 . S
C93 C92 1.409 . S
C93 C94 1.380 . S
C93 H111 0.930 . S
C94 C93 1.380 . S
C94 C101 1.357 . S
C95 C86 1.511 . S
C95 C96 1.341 . S
C95 C97 1.371 . S
C96 C95 1.341 . S
C96 C100 1.394 . S
C96 H112 0.930 . S
C97 C95 1.371 . S
C97 C98 1.392 . S
C97 H113 0.931 . S
C98 C97 1.392 . S
C98 C99 1.331 . S
C98 H116 0.932 . S
C99 C98 1.331 . S
C99 C100 1.336 . S
C100 C96 1.394 . S
C100 C99 1.336 . S
C100 H115 0.929 . S
C101 C91 1.386 . S
C101 C94 1.357 . S
C101 H114 0.928 . S
H102 C78 0.931 . S
H103 C80 0.930 . S
H104 C82 0.929 . S
H105 C83 0.931 . S
H106 C85 0.930 . S
H107 C89 0.931 . S
H108 C87 0.931 . S
H109 C91 0.931 . S
H110 C92 0.929 . S
H111 C93 0.930 . S
H112 C96 0.930 . S
H113 C97 0.931 . S
H114 C101 0.928 . S
H115 C100 0.929 . S
H116 C98 0.932 . S
C117 C118 1.386 . S
C117 C119 1.397 . S
C117 H141 0.931 . S
C118 C117 1.386 . S
C118 C122 1.397 . S
C119 C117 1.397 . S
C119 C120 1.384 . S
C119 H142 0.930 . S
C120 C119 1.384 . S
C120 C121 1.377 . S
C120 C123 1.481 . S
C121 C120 1.377 . S
C121 C122 1.389 . S
C121 H143 0.929 . S
C122 C118 1.397 . S
C122 C121 1.389 . S
C122 H144 0.931 . S
C123 C120 1.481 . S
C123 C124 1.387 . S
C123 C128 1.390 . S
C124 C123 1.387 . S
C124 C125 1.401 . S
C124 H145 0.930 . S
C125 C124 1.401 . S
C125 C126 1.376 . S
C125 C134 1.511 . S
C126 C125 1.376 . S
C126 C127 1.392 . S
C126 H147 0.931 . S
C127 C126 1.392 . S
C127 C128 1.361 . S
C127 C129 1.500 . S
C128 C123 1.390 . S
C128 C127 1.361 . S
C128 H146 0.931 . S
C129 C127 1.500 . S
C129 C130 1.371 . S
C129 C131 1.365 . S
C130 C129 1.371 . S
C130 C140 1.386 1_554 S
C130 H148 0.929 1_554 S
C131 C129 1.365 . S
C131 C132 1.409 . S
C131 H149 0.929 . S
C132 C131 1.409 . S
C132 C133 1.380 1_554 S
C132 H150 0.930 . S
C133 C132 1.380 1_556 S
C133 C140 1.357 . S
C134 C125 1.511 . S
C134 C135 1.341 . S
C134 C136 1.371 . S
C135 C134 1.341 . S
C135 C139 1.394 . S
C135 H151 0.930 . S
C136 C134 1.371 . S
C136 C137 1.392 . S
C136 H152 0.931 . S
C137 C136 1.392 . S
C137 C138 1.331 . S
C137 H155 0.932 . S
C138 C137 1.331 . S
C138 C139 1.336 . S
C139 C135 1.394 . S
C139 C138 1.336 . S
C139 H154 0.929 . S
C140 C130 1.386 1_556 S
C140 C133 1.357 . S
C140 H153 0.928 . S
H141 C117 0.931 . S
H142 C119 0.930 . S
H143 C121 0.929 . S
H144 C122 0.931 . S
H145 C124 0.930 . S
H146 C128 0.931 . S
H147 C126 0.931 . S
H148 C130 0.929 1_556 S
H149 C131 0.929 . S
H150 C132 0.930 . S
H151 C135 0.930 . S
H152 C136 0.931 . S
H153 C140 0.928 . S
H154 C139 0.929 . S
H155 C137 0.932 . S
C156 C157 1.386 . S
C156 C158 1.397 . S
C156 H180 0.931 . S
C157 C156 1.386 . S
C157 C161 1.397 . S
C158 C156 1.397 . S
C158 C159 1.384 . S
C158 H181 0.930 . S
C159 C158 1.384 . S
C159 C160 1.377 . S
C159 C162 1.481 . S
C160 C159 1.377 . S
C160 C161 1.389 . S
C160 H182 0.929 . S
C161 C157 1.397 . S
C161 C160 1.389 . S
C161 H183 0.931 . S
C162 C159 1.481 . S
C162 C163 1.387 . S
C162 C167 1.390 . S
C163 C162 1.387 . S
C163 C164 1.401 . S
C163 H184 0.930 . S
C164 C163 1.401 . S
C164 C165 1.376 1_554 S
C164 C173 1.511 . S
C165 C164 1.376 1_556 S
C165 C166 1.392 . S
C165 H186 0.931 . S
C166 C165 1.392 . S
C166 C167 1.361 1_556 S
C166 C168 1.500 . S
C167 C162 1.390 . S
C167 C166 1.361 1_554 S
C167 H185 0.931 1_554 S
C168 C166 1.500 . S
C168 C169 1.371 . S
C168 C170 1.365 . S
C169 C168 1.371 . S
C169 C179 1.386 . S
C169 H187 0.931 . S
C170 C168 1.365 . S
C170 C171 1.409 . S
C170 H188 0.929 . S
C171 C170 1.409 . S
C171 C172 1.380 . S
C171 H189 0.930 . S
C172 C171 1.380 . S
C172 C179 1.357 . S
C173 C164 1.511 . S
C173 C174 1.341 . S
C173 C175 1.371 . S
C174 C173 1.341 . S
C174 C178 1.394 . S
C174 H190 0.930 . S
C175 C173 1.371 . S
C175 C176 1.392 . S
C175 H191 0.931 1_554 S
C176 C175 1.392 . S
C176 C177 1.331 . S
C176 H194 0.932 1_554 S
C177 C176 1.331 . S
C177 C178 1.336 . S
C178 C174 1.394 . S
C178 C177 1.336 . S
C178 H193 0.929 . S
C179 C169 1.386 . S
C179 C172 1.357 . S
C179 H192 0.928 . S
H180 C156 0.931 . S
H181 C158 0.930 . S
H182 C160 0.929 . S
H183 C161 0.931 . S
H184 C163 0.930 . S
H185 C167 0.931 1_556 S
H186 C165 0.931 . S
H187 C169 0.931 . S
H188 C170 0.929 . S
H189 C171 0.930 . S
H190 C174 0.930 . S
H191 C175 0.931 1_556 S
H192 C179 0.928 . S
H193 C178 0.929 . S
H194 C176 0.932 1_556 S
C195 C196 1.386 . S
C195 C197 1.397 . S
C195 H219 0.931 . S
C196 C195 1.386 . S
C196 C200 1.397 . S
C197 C195 1.397 . S
C197 C198 1.384 . S
C197 H220 0.930 . S
C198 C197 1.384 . S
C198 C199 1.377 . S
C198 C201 1.481 . S
C199 C198 1.377 . S
C199 C200 1.389 . S
C199 H221 0.929 . S
C200 C196 1.397 . S
C200 C199 1.389 . S
C200 H222 0.931 . S
C201 C198 1.481 . S
C201 C202 1.387 . S
C201 C206 1.390 1_554 S
C202 C201 1.387 . S
C202 C203 1.401 . S
C202 H223 0.930 . S
C203 C202 1.401 . S
C203 C204 1.376 1_554 S
C203 C212 1.511 . S
C204 C203 1.376 1_556 S
C204 C205 1.392 . S
C204 H225 0.931 . S
C205 C204 1.392 . S
C205 C206 1.361 . S
C205 C207 1.500 . S
C206 C201 1.390 1_556 S
C206 C205 1.361 . S
C206 H224 0.931 . S
C207 C205 1.500 . S
C207 C208 1.371 . S
C207 C209 1.365 . S
C208 C207 1.371 . S
C208 C218 1.386 . S
C208 H226 0.931 . S
C209 C207 1.365 . S
C209 C210 1.409 . S
C209 H227 0.929 . S
C210 C209 1.409 . S
C210 C211 1.380 . S
C210 H228 0.930 . S
C211 C210 1.380 . S
C211 C218 1.357 . S
C212 C203 1.511 . S
C212 C213 1.341 . S
C212 C214 1.371 1_554 S
C213 C212 1.341 . S
C213 C217 1.394 . S
C213 H229 0.930 . S
C214 C212 1.371 1_556 S
C214 C215 1.392 1_556 S
C214 H230 0.931 . S
C215 C214 1.392 1_554 S
C215 C216 1.331 . S
C215 H233 0.932 1_554 S
C216 C215 1.331 . S
C216 C217 1.336 . S
C217 C213 1.394 . S
C217 C216 1.336 . S
C217 H232 0.929 . S
C218 C208 1.386 . S
C218 C211 1.357 . S
C218 H231 0.928 . S
H219 C195 0.931 . S
H220 C197 0.930 . S
H221 C199 0.929 . S
H222 C200 0.931 . S
H223 C202 0.930 . S
H224 C206 0.931 . S
H225 C204 0.931 . S
H226 C208 0.931 . S
H227 C209 0.929 . S
H228 C210 0.930 . S
H229 C213 0.930 . S
H230 C214 0.931 . S
H231 C218 0.928 . S
H232 C217 0.929 . S
H233 C215 0.932 1_556 S
C234 C235 1.386 . S
C234 C236 1.397 . S
C234 H258 0.931 . S
C235 C234 1.386 . S
C235 C239 1.397 . S
C236 C234 1.397 . S
C236 C237 1.384 . S
C236 H259 0.930 . S
C237 C236 1.384 . S
C237 C238 1.377 . S
C237 C240 1.481 . S
C238 C237 1.377 . S
C238 C239 1.389 . S
C238 H260 0.929 . S
C239 C235 1.397 . S
C239 C238 1.389 . S
C239 H261 0.931 . S
C240 C237 1.481 . S
C240 C241 1.387 . S
C240 C245 1.390 1_554 S
C241 C240 1.387 . S
C241 C242 1.401 . S
C241 H262 0.930 . S
C242 C241 1.401 . S
C242 C243 1.376 1_554 S
C242 C251 1.511 . S
C243 C242 1.376 1_556 S
C243 C244 1.392 . S
C243 H264 0.931 . S
C244 C243 1.392 . S
C244 C245 1.361 . S
C244 C246 1.500 . S
C245 C240 1.390 1_556 S
C245 C244 1.361 . S
C245 H263 0.931 . S
C246 C244 1.500 . S
C246 C247 1.371 . S
C246 C248 1.365 . S
C247 C246 1.371 . S
C247 C257 1.386 . S
C247 H265 0.931 . S
C248 C246 1.365 . S
C248 C249 1.409 . S
C248 H266 0.929 . S
C249 C248 1.409 . S
C249 C250 1.380 . S
C249 H267 0.930 . S
C250 C249 1.380 . S
C250 C257 1.357 . S
C251 C242 1.511 . S
C251 C252 1.341 . S
C251 C253 1.371 1_554 S
C252 C251 1.341 . S
C252 C256 1.394 . S
C252 H268 0.930 . S
C253 C251 1.371 1_556 S
C253 C254 1.392 1_556 S
C253 H269 0.931 . S
C254 C253 1.392 1_554 S
C254 C255 1.331 . S
C254 H272 0.932 1_554 S
C255 C254 1.331 . S
C255 C256 1.336 . S
C256 C252 1.394 . S
C256 C255 1.336 . S
C256 H271 0.929 . S
C257 C247 1.386 . S
C257 C250 1.357 . S
C257 H270 0.928 . S
H258 C234 0.931 . S
H259 C236 0.930 . S
H260 C238 0.929 . S
H261 C239 0.931 . S
H262 C241 0.930 . S
H263 C245 0.931 . S
H264 C243 0.931 . S
H265 C247 0.931 . S
H266 C248 0.929 . S
H267 C249 0.930 . S
H268 C252 0.930 . S
H269 C253 0.931 . S
H270 C257 0.928 . S
H271 C256 0.929 . S
H272 C254 0.932 1_556 S
C273 C274 1.386 . S
C273 C275 1.397 . S
C273 H297 0.931 . S
C274 C273 1.386 . S
C274 C278 1.397 . S
C275 C273 1.397 . S
C275 C276 1.384 . S
C275 H298 0.930 . S
C276 C275 1.384 . S
C276 C277 1.377 . S
C276 C279 1.481 . S
C277 C276 1.377 . S
C277 C278 1.389 . S
C277 H299 0.929 . S
C278 C274 1.397 . S
C278 C277 1.389 . S
C278 H300 0.931 . S
C279 C276 1.481 . S
C279 C280 1.387 . S
C279 C284 1.390 1_556 S
C280 C279 1.387 . S
C280 C281 1.401 1_556 S
C280 H301 0.930 . S
C281 C280 1.401 1_554 S
C281 C282 1.376 . S
C281 C290 1.511 . S
C282 C281 1.376 . S
C282 C283 1.392 . S
C282 H303 0.931 . S
C283 C282 1.392 . S
C283 C284 1.361 . S
C283 C285 1.500 . S
C284 C279 1.390 1_554 S
C284 C283 1.361 . S
C284 H302 0.931 1_554 S
C285 C283 1.500 . S
C285 C286 1.371 . S
C285 C287 1.365 . S
C286 C285 1.371 . S
C286 C296 1.386 . S
C286 H304 0.931 . S
C287 C285 1.365 . S
C287 C288 1.409 . S
C287 H305 0.929 . S
C288 C287 1.409 . S
C288 C289 1.380 . S
C288 H306 0.930 . S
C289 C288 1.380 . S
C289 C296 1.357 . S
C290 C281 1.511 . S
C290 C291 1.341 . S
C290 C292 1.371 . S
C291 C290 1.341 . S
C291 C295 1.394 . S
C291 H307 0.930 1_554 S
C292 C290 1.371 . S
C292 C293 1.392 . S
C292 H308 0.931 . S
C293 C292 1.392 . S
C293 C294 1.331 . S
C293 H311 0.932 . S
C294 C293 1.331 . S
C294 C295 1.336 . S
C295 C291 1.394 . S
C295 C294 1.336 . S
C295 H310 0.929 1_554 S
C296 C286 1.386 . S
C296 C289 1.357 . S
C296 H309 0.928 . S
H297 C273 0.931 . S
H298 C275 0.930 . S
H299 C277 0.929 . S
H300 C278 0.931 . S
H301 C280 0.930 . S
H302 C284 0.931 1_556 S
H303 C282 0.931 . S
H304 C286 0.931 . S
H305 C287 0.929 . S
H306 C288 0.930 . S
H307 C291 0.930 1_556 S
H308 C292 0.931 . S
H309 C296 0.928 . S
H310 C295 0.929 1_556 S
H311 C293 0.932 . S
Gd312 N343 2.661 . S
Gd312 N349 2.601 . S
Gd312 O356 2.545 . S
Gd312 O357 2.606 1_655 S
Gd312 O359 2.429 . S
Gd312 O360 2.545 1_655 S
Gd312 O361 2.412 . S
Gd312 O363 2.362 1_545 S
Gd312 O364 2.324 1_655 S
Gd312 C371 2.828 . S
Gd313 N322 2.661 1_565 S
Gd313 N326 2.601 . S
Gd313 O357 2.362 1_565 S
Gd313 O358 2.324 1_455 S
Gd313 O362 2.545 . S
Gd313 O363 2.606 1_455 S
Gd313 O365 2.429 . S
Gd313 O366 2.545 . S
Gd313 O367 2.412 . S
Gd313 C380 2.828 . S
C314 C317 1.417 . S
C314 C319 1.431 . S
C314 C320 1.412 . S
C315 C318 1.437 . S
C315 C319 1.317 . S
C315 H334 0.929 . S
C316 C317 1.426 . S
C316 C318 1.413 . S
C316 N326 1.359 1_545 S
C317 C314 1.417 . S
C317 C316 1.426 . S
C317 N322 1.350 . S
C318 C315 1.437 . S
C318 C316 1.413 . S
C318 C328 1.391 1_545 S
C319 C314 1.431 . S
C319 C315 1.317 . S
C319 H330 0.930 . S
C320 C314 1.412 . S
C320 C321 1.355 . S
C320 H332 0.930 . S
C321 C320 1.355 . S
C321 C323 1.402 . S
C321 H333 0.930 1_455 S
N322 Gd313 2.661 1_545 S
N322 C317 1.350 . S
N322 C323 1.307 . S
C323 C321 1.402 . S
C323 N322 1.307 . S
C323 H324 0.930 1_455 S
H324 C323 0.930 1_655 S
C325 N326 1.334 . S
C325 C327 1.394 . S
C325 H329 0.930 . S
N326 Gd313 2.601 . S
N326 C316 1.359 1_565 S
N326 C325 1.334 . S
C327 C325 1.394 . S
C327 C328 1.359 . S
C327 H339 0.930 . S
C328 C318 1.391 1_565 S
C328 C327 1.359 . S
C328 H340 0.929 . S
H329 C325 0.930 . S
H330 C319 0.930 . S
H331 C348 0.930 . S
H332 C320 0.930 . S
H333 C321 0.930 1_655 S
H334 C315 0.929 . S
H335 C353 0.930 . S
H336 C344 0.930 . S
H337 C345 0.930 . S
H338 C369 0.929 . S
H339 C327 0.930 . S
H340 C328 0.929 . S
H341 C370 0.930 . S
H342 C351 0.930 . S
N343 Gd312 2.661 . S
N343 C347 1.348 1_545 S
N343 C348 1.307 1_645 S
C344 H336 0.930 . S
C344 C345 1.355 1_655 S
C344 C346 1.412 . S
C345 H337 0.930 . S
C345 C344 1.355 1_455 S
C345 C348 1.402 . S
C346 C344 1.412 . S
C346 C347 1.425 . S
C346 C370 1.431 . S
C347 N343 1.348 1_565 S
C347 C346 1.425 . S
C347 C350 1.421 1_565 S
C348 H331 0.930 . S
C348 N343 1.307 1_465 S
C348 C345 1.402 . S
N349 Gd312 2.601 . S
N349 C350 1.359 . S
N349 C353 1.334 . S
C350 C347 1.421 1_545 S
C350 N349 1.359 . S
C350 C354 1.413 . S
C351 H342 0.930 . S
C351 C352 1.359 . S
C351 C353 1.394 . S
C352 C351 1.359 . S
C352 C354 1.391 . S
C352 H355 0.929 . S
C353 H335 0.930 . S
C353 N349 1.334 . S
C353 C351 1.394 . S
C354 C350 1.413 . S
C354 C352 1.391 . S
C354 C369 1.437 1_545 S
H355 C352 0.929 . S
O356 Gd312 2.545 . S
O356 C371 1.258 . S
O357 Gd312 2.606 1_455 S
O357 Gd313 2.362 1_545 S
O357 C368 1.284 . S
O358 Gd313 2.324 1_655 S
O358 C378 1.254 1_565 S
O359 Gd312 2.429 . S
O359 C378 1.268 . S
O360 Gd312 2.545 1_455 S
O360 C368 1.250 . S
O361 Gd312 2.412 . S
O361 C371 1.252 . S
O362 Gd313 2.545 . S
O362 C380 1.258 . S
O363 Gd312 2.362 1_565 S
O363 Gd313 2.606 1_655 S
O363 C379 1.284 . S
O364 Gd312 2.324 1_455 S
O364 C387 1.254 . S
O365 Gd313 2.429 . S
O365 C387 1.268 1_565 S
O366 Gd313 2.545 . S
O366 C379 1.250 1_455 S
O367 Gd313 2.412 . S
O367 C380 1.252 . S
C368 O357 1.284 . S
C368 O360 1.250 . S
C369 H338 0.929 . S
C369 C354 1.437 1_565 S
C369 C370 1.317 . S
C370 H341 0.930 . S
C370 C346 1.431 . S
C370 C369 1.317 . S
C371 Gd312 2.828 . S
C371 O356 1.258 . S
C371 O361 1.252 . S
C371 C372 1.497 . S
C372 C371 1.497 . S
C372 C373 1.395 . S
C372 C374 1.423 . S
C373 C372 1.395 . S
C373 C376 1.398 . S
C373 H388 0.930 . S
C374 C372 1.423 . S
C374 C375 1.394 . S
C374 H389 0.885 1_655 S
C375 C374 1.394 . S
C375 C377 1.387 . S
C376 C373 1.398 . S
C376 C377 1.380 . S
C376 H390 0.930 . S
C377 C375 1.387 . S
C377 C376 1.380 . S
C377 H391 0.930 . S
C378 O358 1.254 1_545 S
C378 O359 1.268 . S
C379 O363 1.284 . S
C379 O366 1.250 1_655 S
C380 Gd313 2.828 . S
C380 O362 1.258 . S
C380 O367 1.252 . S
C380 C381 1.497 . S
C381 C380 1.497 . S
C381 C382 1.395 . S
C381 C383 1.380 . S
C382 C381 1.395 . S
C382 C385 1.398 . S
C382 H392 0.930 . S
C383 C381 1.380 . S
C383 C384 1.391 . S
C383 H393 0.930 1_455 S
C384 C383 1.391 . S
C384 C386 1.387 . S
C385 C382 1.398 . S
C385 C386 1.380 . S
C385 H394 0.930 . S
C386 C384 1.387 . S
C386 C385 1.380 . S
C386 H395 0.930 . S
C387 O364 1.254 . S
C387 O365 1.268 1_545 S
H388 C373 0.930 . S
H389 C374 0.885 1_455 S
H390 C376 0.930 . S
H391 C377 0.930 . S
H392 C382 0.930 . S
H393 C383 0.930 1_655 S
H394 C385 0.930 . S
H395 C386 0.930 . S
Gd396 N427 2.661 . S
Gd396 N433 2.601 . S
Gd396 O440 2.545 . S
Gd396 O441 2.606 1_565 S
Gd396 O443 2.429 . S
Gd396 O444 2.545 1_565 S
Gd396 O445 2.424 . S
Gd396 O447 2.362 . S
Gd396 O448 2.324 1_565 S
Gd396 C455 2.828 . S
Gd397 N406 2.661 . S
Gd397 N410 2.601 . S
Gd397 O441 2.362 . S
Gd397 O442 2.324 1_545 S
Gd397 O446 2.545 . S
Gd397 O447 2.606 1_545 S
Gd397 O449 2.429 . S
Gd397 O450 2.545 . S
Gd397 O451 2.412 . S
Gd397 C464 2.828 . S
C398 C401 1.417 . S
C398 C403 1.431 . S
C398 C404 1.412 . S
C399 C402 1.437 . S
C399 C403 1.317 . S
C399 H418 0.929 . S
C400 C401 1.426 . S
C400 C402 1.413 . S
C400 N410 1.359 . S
C401 C398 1.417 . S
C401 C400 1.426 . S
C401 N406 1.350 . S
C402 C399 1.437 . S
C402 C400 1.413 . S
C402 C412 1.391 . S
C403 C398 1.431 . S
C403 C399 1.317 . S
C403 H414 0.930 . S
C404 C398 1.412 . S
C404 C405 1.355 . S
C404 H416 0.930 . S
C405 C404 1.355 . S
C405 C407 1.402 . S
C405 H417 0.930 1_545 S
N406 Gd397 2.661 . S
N406 C401 1.350 . S
N406 C407 1.307 . S
C407 C405 1.402 . S
C407 N406 1.307 . S
C407 H408 0.930 1_545 S
H408 C407 0.930 1_565 S
C409 N410 1.334 . S
C409 C411 1.394 . S
C409 H413 0.930 . S
N410 Gd397 2.601 . S
N410 C400 1.359 . S
N410 C409 1.334 . S
C411 C409 1.394 . S
C411 C412 1.359 . S
C411 H423 0.930 . S
C412 C402 1.391 . S
C412 C411 1.359 . S
C412 H424 0.929 . S
H413 C409 0.930 . S
H414 C403 0.930 . S
H415 C432 0.930 . S
H416 C404 0.930 . S
H417 C405 0.930 1_565 S
H418 C399 0.929 . S
H419 C437 0.930 . S
H420 C428 0.930 . S
H421 C429 0.930 . S
H422 C453 0.929 . S
H423 C411 0.930 . S
H424 C412 0.929 . S
H425 C454 0.930 . S
H426 C435 0.930 . S
N427 Gd396 2.661 . S
N427 C431 1.350 . S
N427 C432 1.307 1_565 S
C428 H420 0.930 . S
C428 C429 1.355 1_565 S
C428 C430 1.412 . S
C429 H421 0.930 . S
C429 C428 1.355 1_545 S
C429 C432 1.402 . S
C430 C428 1.412 . S
C430 C431 1.417 . S
C430 C454 1.431 . S
C431 N427 1.350 . S
C431 C430 1.417 . S
C431 C434 1.426 . S
C432 H415 0.930 . S
C432 N427 1.307 1_545 S
C432 C429 1.402 . S
N433 Gd396 2.601 . S
N433 C434 1.359 . S
N433 C437 1.334 . S
C434 C431 1.426 . S
C434 N433 1.359 . S
C434 C438 1.413 . S
C435 H426 0.930 . S
C435 C436 1.359 . S
C435 C437 1.394 . S
C436 C435 1.359 . S
C436 C438 1.391 . S
C436 H439 0.929 . S
C437 H419 0.930 . S
C437 N433 1.334 . S
C437 C435 1.394 . S
C438 C434 1.413 . S
C438 C436 1.391 . S
C438 C453 1.437 . S
H439 C436 0.929 . S
O440 Gd396 2.545 . S
O440 C455 1.258 . S
O441 Gd396 2.606 1_545 S
O441 Gd397 2.362 . S
O441 C452 1.284 . S
O442 Gd397 2.324 1_565 S
O442 C462 1.254 . S
O443 Gd396 2.429 . S
O443 C462 1.268 . S
O444 Gd396 2.545 1_545 S
O444 C452 1.250 . S
O445 Gd396 2.424 . S
O445 C455 1.293 . S
O446 Gd397 2.545 . S
O446 C464 1.258 . S
O447 Gd396 2.362 . S
O447 Gd397 2.606 1_565 S
O447 C463 1.284 . S
O448 Gd396 2.324 1_545 S
O448 C471 1.254 . S
O449 Gd397 2.429 . S
O449 C471 1.268 . S
O450 Gd397 2.545 . S
O450 C463 1.250 1_545 S
O451 Gd397 2.412 . S
O451 C464 1.252 . S
C452 O441 1.284 . S
C452 O444 1.250 . S
C453 H422 0.929 . S
C453 C438 1.437 . S
C453 C454 1.317 . S
C454 H425 0.930 . S
C454 C430 1.431 . S
C454 C453 1.317 . S
C455 Gd396 2.828 . S
C455 O440 1.258 . S
C455 O445 1.293 . S
C455 C456 1.497 . S
C456 C455 1.497 . S
C456 C457 1.395 . S
C456 C458 1.396 . S
C457 C456 1.395 . S
C457 C460 1.398 . S
C457 H472 0.930 . S
C458 C456 1.396 . S
C458 C459 1.392 . S
C458 H473 0.913 1_565 S
C459 C458 1.392 . S
C459 C461 1.387 . S
C460 C457 1.398 . S
C460 C461 1.380 . S
C460 H474 0.930 . S
C461 C459 1.387 . S
C461 C460 1.380 . S
C461 H475 0.930 . S
C462 O442 1.254 . S
C462 O443 1.268 . S
C463 O447 1.284 . S
C463 O450 1.250 1_565 S
C464 Gd397 2.828 . S
C464 O446 1.258 . S
C464 O451 1.252 . S
C464 C465 1.497 . S
C465 C464 1.497 . S
C465 C466 1.395 . S
C465 C467 1.380 . S
C466 C465 1.395 . S
C466 C469 1.398 . S
C466 H476 0.930 . S
C467 C465 1.380 . S
C467 C468 1.391 . S
C467 H477 0.930 . S
C468 C467 1.391 . S
C468 C470 1.387 . S
C469 C466 1.398 . S
C469 C470 1.380 . S
C469 H478 0.930 . S
C470 C468 1.387 . S
C470 C469 1.380 . S
C470 H479 0.930 . S
C471 O448 1.254 . S
C471 O449 1.268 . S
H472 C457 0.930 . S
H473 C458 0.913 1_545 S
H474 C460 0.930 . S
H475 C461 0.930 . S
H476 C466 0.930 . S
H477 C467 0.930 . S
H478 C469 0.930 . S
H479 C470 0.930 . S
Gd480 N511 2.661 . S
Gd480 N517 2.601 . S
Gd480 O524 2.545 . S
Gd480 O525 2.606 . S
Gd480 O527 2.429 . S
Gd480 O528 2.545 . S
Gd480 O529 2.412 . S
Gd480 O531 2.362 . S
Gd480 O532 2.324 . S
Gd480 C539 2.828 . S
Gd481 N490 2.661 . S
Gd481 N494 2.601 . S
Gd481 O525 2.362 . S
Gd481 O526 2.324 . S
Gd481 O530 2.545 . S
Gd481 O531 2.606 . S
Gd481 O533 2.429 . S
Gd481 O534 2.545 . S
Gd481 O535 2.412 . S
Gd481 C548 2.828 . S
C482 C485 1.417 . S
C482 C487 1.431 . S
C482 C488 1.412 . S
C483 C486 1.437 . S
C483 C487 1.317 . S
C483 H502 0.929 . S
C484 C485 1.426 . S
C484 C486 1.413 . S
C484 N494 1.359 . S
C485 C482 1.417 . S
C485 C484 1.426 . S
C485 N490 1.350 . S
C486 C483 1.437 . S
C486 C484 1.413 . S
C486 C496 1.391 . S
C487 C482 1.431 . S
C487 C483 1.317 . S
C487 H498 0.930 . S
C488 C482 1.412 . S
C488 C489 1.355 . S
C488 H500 0.930 . S
C489 C488 1.355 . S
C489 C491 1.402 . S
C489 H501 0.930 . S
N490 Gd481 2.661 . S
N490 C485 1.350 . S
N490 C491 1.307 . S
C491 C489 1.402 . S
C491 N490 1.307 . S
C491 H492 0.930 . S
H492 C491 0.930 . S
C493 N494 1.334 . S
C493 C495 1.394 . S
C493 H497 0.930 . S
N494 Gd481 2.601 . S
N494 C484 1.359 . S
N494 C493 1.334 . S
C495 C493 1.394 . S
C495 C496 1.359 . S
C495 H507 0.930 . S
C496 C486 1.391 . S
C496 C495 1.359 . S
C496 H508 0.929 . S
H497 C493 0.930 . S
H498 C487 0.930 . S
H499 C516 0.930 . S
H500 C488 0.930 . S
H501 C489 0.930 . S
H502 C483 0.929 . S
H503 C521 0.930 . S
H504 C512 0.930 . S
H505 C513 0.930 . S
H506 C537 0.929 . S
H507 C495 0.930 . S
H508 C496 0.929 . S
H509 C538 0.930 . S
H510 C519 0.930 . S
N511 Gd480 2.661 . S
N511 C515 1.350 . S
N511 C516 1.307 . S
C512 H504 0.930 . S
C512 C513 1.355 . S
C512 C514 1.412 . S
C513 H505 0.930 . S
C513 C512 1.355 . S
C513 C516 1.402 . S
C514 C512 1.412 . S
C514 C515 1.417 . S
C514 C538 1.431 . S
C515 N511 1.350 . S
C515 C514 1.417 . S
C515 C518 1.426 . S
C516 H499 0.930 . S
C516 N511 1.307 . S
C516 C513 1.402 . S
N517 Gd480 2.601 . S
N517 C518 1.359 . S
N517 C521 1.334 . S
C518 C515 1.426 . S
C518 N517 1.359 . S
C518 C522 1.413 . S
C519 H510 0.930 . S
C519 C520 1.359 . S
C519 C521 1.394 . S
C520 C519 1.359 . S
C520 C522 1.391 . S
C520 H523 0.929 . S
C521 H503 0.930 . S
C521 N517 1.334 . S
C521 C519 1.394 . S
C522 C518 1.413 . S
C522 C520 1.391 . S
C522 C537 1.437 . S
H523 C520 0.929 . S
O524 Gd480 2.545 . S
O524 C539 1.258 . S
O525 Gd480 2.606 . S
O525 Gd481 2.362 . S
O525 C536 1.284 . S
O526 Gd481 2.324 . S
O526 C546 1.254 . S
O527 Gd480 2.429 . S
O527 C546 1.268 . S
O528 Gd480 2.545 . S
O528 C536 1.250 . S
O529 Gd480 2.412 . S
O529 C539 1.252 . S
O530 Gd481 2.545 . S
O530 C548 1.258 . S
O531 Gd480 2.362 . S
O531 Gd481 2.606 . S
O531 C547 1.284 . S
O532 Gd480 2.324 . S
O532 C555 1.254 . S
O533 Gd481 2.429 . S
O533 C555 1.268 . S
O534 Gd481 2.545 . S
O534 C547 1.250 . S
O535 Gd481 2.412 . S
O535 C548 1.252 . S
C536 O525 1.284 . S
C536 O528 1.250 . S
C537 H506 0.929 . S
C537 C522 1.437 . S
C537 C538 1.317 . S
C538 H509 0.930 . S
C538 C514 1.431 . S
C538 C537 1.317 . S
C539 Gd480 2.828 . S
C539 O524 1.258 . S
C539 O529 1.252 . S
C539 C540 1.497 . S
C540 C539 1.497 . S
C540 C541 1.395 . S
C540 C542 1.380 . S
C541 C540 1.395 . S
C541 C544 1.398 . S
C541 H556 0.930 . S
C542 C540 1.380 . S
C542 C543 1.391 . S
C542 H557 0.930 . S
C543 C542 1.391 . S
C543 C545 1.387 . S
C544 C541 1.398 . S
C544 C545 1.380 . S
C544 H558 0.930 . S
C545 C543 1.387 . S
C545 C544 1.380 . S
C545 H559 0.930 . S
C546 O526 1.254 . S
C546 O527 1.268 . S
C547 O531 1.284 . S
C547 O534 1.250 . S
C548 Gd481 2.828 . S
C548 O530 1.258 . S
C548 O535 1.252 . S
C548 C549 1.497 . S
C549 C548 1.497 . S
C549 C550 1.395 . S
C549 C551 1.380 . S
C550 C549 1.395 . S
C550 C553 1.398 . S
C550 H560 0.930 . S
C551 C549 1.380 . S
C551 C552 1.391 . S
C551 H561 0.930 . S
C552 C551 1.391 . S
C552 C554 1.387 . S
C553 C550 1.398 . S
C553 C554 1.380 . S
C553 H562 0.930 . S
C554 C552 1.387 . S
C554 C553 1.380 . S
C554 H563 0.930 . S
C555 O532 1.254 . S
C555 O533 1.268 . S
H556 C541 0.930 . S
H557 C542 0.930 . S
H558 C544 0.930 . S
H559 C545 0.930 . S
H560 C550 0.930 . S
H561 C551 0.930 . S
H562 C553 0.930 . S
H563 C554 0.930 . S
Gd564 N595 2.661 . S
Gd564 N601 2.601 . S
Gd564 O608 2.545 . S
Gd564 O609 2.606 1_655 S
Gd564 O611 2.429 1_655 S
Gd564 O612 2.545 . S
Gd564 O613 2.412 . S
Gd564 O615 2.362 1_655 S
Gd564 O616 2.324 . S
Gd564 C623 2.828 . S
Gd565 N574 2.661 . S
Gd565 N578 2.601 . S
Gd565 O609 2.362 . S
Gd565 O610 2.324 . S
Gd565 O614 2.545 . S
Gd565 O615 2.606 . S
Gd565 O617 2.429 1_455 S
Gd565 O618 2.545 . S
Gd565 O619 2.412 . S
Gd565 C632 2.828 . S
C566 C569 1.417 . S
C566 C571 1.431 . S
C566 C572 1.412 . S
C567 C570 1.437 . S
C567 C571 1.317 . S
C567 H586 0.929 . S
C568 C569 1.426 . S
C568 C570 1.413 . S
C568 N578 1.359 . S
C569 C566 1.417 . S
C569 C568 1.426 . S
C569 N574 1.350 . S
C570 C567 1.437 . S
C570 C568 1.413 . S
C570 C580 1.391 . S
C571 C566 1.431 . S
C571 C567 1.317 . S
C571 H582 0.930 . S
C572 C566 1.412 . S
C572 C573 1.355 . S
C572 H584 0.930 . S
C573 C572 1.355 . S
C573 C575 1.402 . S
C573 H585 0.930 . S
N574 Gd565 2.661 . S
N574 C569 1.350 . S
N574 C575 1.307 . S
C575 C573 1.402 . S
C575 N574 1.307 . S
C575 H576 0.930 . S
H576 C575 0.930 . S
C577 N578 1.334 . S
C577 C579 1.394 . S
C577 H581 0.930 1_455 S
N578 Gd565 2.601 . S
N578 C568 1.359 . S
N578 C577 1.334 . S
C579 C577 1.394 . S
C579 C580 1.359 . S
C579 H591 0.930 1_455 S
C580 C570 1.391 . S
C580 C579 1.359 . S
C580 H592 0.929 . S
H581 C577 0.930 1_655 S
H582 C571 0.930 . S
H583 C600 0.930 . S
H584 C572 0.930 . S
H585 C573 0.930 . S
H586 C567 0.929 . S
H587 C605 0.930 . S
H588 C596 0.930 . S
H589 C597 0.930 . S
H590 C621 0.929 . S
H591 C579 0.930 1_655 S
H592 C580 0.929 . S
H593 C622 0.930 . S
H594 C603 0.930 . S
N595 Gd564 2.661 . S
N595 C599 1.350 . S
N595 C600 1.307 . S
C596 H588 0.930 . S
C596 C597 1.355 . S
C596 C598 1.412 . S
C597 H589 0.930 . S
C597 C596 1.355 . S
C597 C600 1.402 . S
C598 C596 1.412 . S
C598 C599 1.417 . S
C598 C622 1.431 . S
C599 N595 1.350 . S
C599 C598 1.417 . S
C599 C602 1.426 . S
C600 H583 0.930 . S
C600 N595 1.307 . S
C600 C597 1.402 . S
N601 Gd564 2.601 . S
N601 C602 1.359 . S
N601 C605 1.334 1_655 S
C602 C599 1.426 . S
C602 N601 1.359 . S
C602 C606 1.413 . S
C603 H594 0.930 . S
C603 C604 1.359 1_455 S
C603 C605 1.394 . S
C604 C603 1.359 1_655 S
C604 C606 1.391 . S
C604 H607 0.929 . S
C605 H587 0.930 . S
C605 N601 1.334 1_455 S
C605 C603 1.394 . S
C606 C602 1.413 . S
C606 C604 1.391 . S
C606 C621 1.437 . S
H607 C604 0.929 . S
O608 Gd564 2.545 . S
O608 C623 1.258 . S
O609 Gd564 2.606 1_455 S
O609 Gd565 2.362 . S
O609 C620 1.284 1_455 S
O610 Gd565 2.324 . S
O610 C630 1.254 . S
O611 Gd564 2.429 1_455 S
O611 C630 1.268 . S
O612 Gd564 2.545 . S
O612 C620 1.250 . S
O613 Gd564 2.412 . S
O613 C623 1.252 . S
O614 Gd565 2.545 . S
O614 C632 1.258 . S
O615 Gd564 2.362 1_455 S
O615 Gd565 2.606 . S
O615 C631 1.284 . S
O616 Gd564 2.324 . S
O616 C639 1.254 . S
O617 Gd565 2.429 1_655 S
O617 C639 1.268 . S
O618 Gd565 2.545 . S
O618 C631 1.250 . S
O619 Gd565 2.412 . S
O619 C632 1.252 . S
C620 O609 1.284 1_655 S
C620 O612 1.250 . S
C621 H590 0.929 . S
C621 C606 1.437 . S
C621 C622 1.317 . S
C622 H593 0.930 . S
C622 C598 1.431 . S
C622 C621 1.317 . S
C623 Gd564 2.828 . S
C623 O608 1.258 . S
C623 O613 1.252 . S
C623 C624 1.497 . S
C624 C623 1.497 . S
C624 C625 1.395 . S
C624 C626 1.380 . S
C625 C624 1.395 . S
C625 C628 1.398 . S
C625 H640 0.930 . S
C626 C624 1.380 . S
C626 C627 1.391 . S
C626 H641 0.930 . S
C627 C626 1.391 . S
C627 C629 1.387 . S
C628 C625 1.398 . S
C628 C629 1.380 . S
C628 H642 0.930 . S
C629 C627 1.387 . S
C629 C628 1.380 . S
C629 H643 0.930 . S
C630 O610 1.254 . S
C630 O611 1.268 . S
C631 O615 1.284 . S
C631 O618 1.250 . S
C632 Gd565 2.828 . S
C632 O614 1.258 . S
C632 O619 1.252 . S
C632 C633 1.497 . S
C633 C632 1.497 . S
C633 C634 1.395 . S
C633 C635 1.380 . S
C634 C633 1.395 . S
C634 C637 1.398 . S
C634 H644 0.930 . S
C635 C633 1.380 . S
C635 C636 1.391 . S
C635 H645 0.930 . S
C636 C635 1.391 . S
C636 C638 1.387 . S
C637 C634 1.398 . S
C637 C638 1.380 . S
C637 H646 0.930 . S
C638 C636 1.387 . S
C638 C637 1.380 . S
C638 H647 0.930 . S
C639 O616 1.254 . S
C639 O617 1.268 . S
H640 C625 0.930 . S
H641 C626 0.930 . S
H642 C628 0.930 . S
H643 C629 0.930 . S
H644 C634 0.930 . S
H645 C635 0.930 . S
H646 C637 0.930 . S
H647 C638 0.930 . S
H648 C666 0.951 . S
H649 C668 0.951 . S
H650 C670 0.950 . S
H651 C671 0.950 . S
H652 C673 0.950 . S
H653 C676 0.950 . S
H654 C677 0.961 . S
H655 C679 0.950 . S
H656 C680 0.950 . S
H657 C681 0.951 . S
H658 C683 0.951 . S
H659 C685 0.950 . S
H660 C686 0.950 . S
H661 C688 0.950 . S
H662 C691 0.950 . S
H663 C692 0.950 . S
H664 C694 0.950 . S
H665 C695 0.950 . S
C666 H648 0.951 . S
C666 C667 1.366 . S
C666 C668 1.388 . S
C667 C666 1.366 . S
C667 C671 1.385 . S
C668 H649 0.951 . S
C668 C666 1.388 . S
C668 C669 1.366 . S
C669 C668 1.366 . S
C669 C670 1.414 . S
C669 C672 1.499 . S
C670 H650 0.950 . S
C670 C669 1.414 . S
C670 C671 1.374 . S
C671 H651 0.950 . S
C671 C667 1.385 . S
C671 C670 1.374 . S
C672 C669 1.499 . S
C672 C673 1.373 . S
C672 C674 1.389 . S
C673 H652 0.950 . S
C673 C672 1.373 . S
C673 C689 1.377 . S
C674 C672 1.389 . S
C674 C675 1.524 . S
C674 C688 1.377 . S
C675 C674 1.524 . S
C675 C676 1.397 . S
C675 C680 1.363 . S
C676 H653 0.950 . S
C676 C675 1.397 . S
C676 C677 1.307 1_545 S
C677 H654 0.961 . S
C677 C676 1.307 1_565 S
C677 C678 1.304 . S
C678 C677 1.304 . S
C678 C679 1.524 . S
C678 H697 0.913 . S
C679 H655 0.950 . S
C679 C678 1.524 . S
C679 C680 1.415 1_565 S
C680 H656 0.950 . S
C680 C675 1.363 . S
C680 C679 1.415 1_545 S
C681 H657 0.951 . S
C681 C682 1.366 . S
C681 C683 1.388 . S
C682 C681 1.366 . S
C682 C686 1.385 . S
C683 H658 0.951 . S
C683 C681 1.388 . S
C683 C684 1.366 . S
C684 C683 1.366 . S
C684 C685 1.414 . S
C684 C687 1.499 . S
C685 H659 0.950 . S
C685 C684 1.414 . S
C685 C686 1.374 . S
C686 H660 0.950 . S
C686 C682 1.385 . S
C686 C685 1.374 . S
C687 C684 1.499 . S
C687 C688 1.373 . S
C687 C689 1.389 . S
C688 H661 0.950 . S
C688 C674 1.377 . S
C688 C687 1.373 . S
C689 C673 1.377 . S
C689 C687 1.389 . S
C689 C690 1.524 . S
C690 C689 1.524 . S
C690 C691 1.397 . S
C690 C695 1.363 . S
C691 H662 0.950 . S
C691 C690 1.397 . S
C691 C692 1.334 . S
C692 H663 0.950 . S
C692 C691 1.334 . S
C692 C693 1.287 . S
C693 C692 1.287 . S
C693 C694 1.524 . S
C693 H696 0.999 . S
C694 H664 0.950 . S
C694 C693 1.524 . S
C694 C695 1.415 . S
C695 H665 0.950 . S
C695 C690 1.363 . S
C695 C694 1.415 . S
H696 C693 0.999 . S
H697 C678 0.913 . S
H698 C716 0.951 . S
H699 C718 0.951 . S
H700 C720 0.950 . S
H701 C721 0.950 . S
H702 C723 0.950 . S
H703 C726 0.950 . S
H704 C727 0.950 . S
H705 C729 0.950 . S
H706 C730 0.950 . S
H707 C731 0.951 . S
H708 C733 0.951 . S
H709 C735 0.950 . S
H710 C736 0.950 . S
H711 C738 0.950 . S
H712 C741 0.950 . S
H713 C742 0.950 . S
H714 C744 0.950 . S
H715 C745 0.950 . S
C716 H698 0.951 . S
C716 C717 1.366 . S
C716 C718 1.388 . S
C717 C716 1.366 . S
C717 C721 1.385 . S
C718 H699 0.951 . S
C718 C716 1.388 . S
C718 C719 1.366 . S
C719 C718 1.366 . S
C719 C720 1.414 . S
C719 C722 1.499 . S
C720 H700 0.950 . S
C720 C719 1.414 . S
C720 C721 1.374 . S
C721 H701 0.950 . S
C721 C717 1.385 . S
C721 C720 1.374 . S
C722 C719 1.499 . S
C722 C723 1.373 . S
C722 C724 1.389 . S
C723 H702 0.950 . S
C723 C722 1.373 . S
C723 C739 1.377 . S
C724 C722 1.389 . S
C724 C725 1.524 . S
C724 C738 1.377 . S
C725 C724 1.524 . S
C725 C726 1.397 . S
C725 C730 1.363 . S
C726 H703 0.950 . S
C726 C725 1.397 . S
C726 C727 1.334 . S
C727 H704 0.950 . S
C727 C726 1.334 . S
C727 C728 1.287 . S
C728 C727 1.287 . S
C728 C729 1.524 . S
C728 H747 0.913 . S
C729 H705 0.950 . S
C729 C728 1.524 . S
C729 C730 1.415 . S
C730 H706 0.950 . S
C730 C725 1.363 . S
C730 C729 1.415 . S
C731 H707 0.951 . S
C731 C732 1.366 . S
C731 C733 1.388 . S
C732 C731 1.366 . S
C732 C736 1.385 . S
C733 H708 0.951 . S
C733 C731 1.388 . S
C733 C734 1.366 . S
C734 C733 1.366 . S
C734 C735 1.414 . S
C734 C737 1.499 . S
C735 H709 0.950 . S
C735 C734 1.414 . S
C735 C736 1.374 . S
C736 H710 0.950 . S
C736 C732 1.385 . S
C736 C735 1.374 . S
C737 C734 1.499 . S
C737 C738 1.373 . S
C737 C739 1.389 . S
C738 H711 0.950 . S
C738 C724 1.377 . S
C738 C737 1.373 . S
C739 C723 1.377 . S
C739 C737 1.389 . S
C739 C740 1.524 . S
C740 C739 1.524 . S
C740 C741 1.397 . S
C740 C745 1.363 . S
C741 H712 0.950 . S
C741 C740 1.397 . S
C741 C742 1.334 . S
C742 H713 0.950 . S
C742 C741 1.334 . S
C742 C743 1.287 . S
C743 C742 1.287 . S
C743 C744 1.524 . S
C743 H746 0.999 . S
C744 H714 0.950 . S
C744 C743 1.524 . S
C744 C745 1.415 . S
C745 H715 0.950 . S
C745 C740 1.363 . S
C745 C744 1.415 . S
H746 C743 0.999 . S
H747 C728 0.913 . S
H748 C766 0.951 . S
H749 C768 0.951 . S
H750 C770 0.950 . S
H751 C771 0.950 . S
H752 C773 0.950 . S
H753 C776 0.950 . S
H754 C777 0.950 . S
H755 C779 0.950 . S
H756 C780 0.950 . S
H757 C781 0.951 . S
H758 C783 0.951 . S
H759 C785 0.950 . S
H760 C786 0.950 . S
H761 C788 0.950 . S
H762 C791 0.950 . S
H763 C792 0.950 . S
H764 C794 0.950 . S
H765 C795 0.950 . S
C766 H748 0.951 . S
C766 C767 1.366 . S
C766 C768 1.388 . S
C767 C766 1.366 . S
C767 C771 1.385 . S
C768 H749 0.951 . S
C768 C766 1.388 . S
C768 C769 1.366 . S
C769 C768 1.366 . S
C769 C770 1.414 . S
C769 C772 1.499 . S
C770 H750 0.950 . S
C770 C769 1.414 . S
C770 C771 1.374 . S
C771 H751 0.950 . S
C771 C767 1.385 . S
C771 C770 1.374 . S
C772 C769 1.499 . S
C772 C773 1.373 . S
C772 C774 1.389 . S
C773 H752 0.950 . S
C773 C772 1.373 . S
C773 C789 1.377 . S
C774 C772 1.389 . S
C774 C775 1.524 . S
C774 C788 1.377 . S
C775 C774 1.524 . S
C775 C776 1.397 . S
C775 C780 1.363 . S
C776 H753 0.950 . S
C776 C775 1.397 . S
C776 C777 1.334 . S
C777 H754 0.950 . S
C777 C776 1.334 . S
C777 C778 1.287 . S
C778 C777 1.287 . S
C778 C779 1.524 . S
C778 H797 0.913 . S
C779 H755 0.950 . S
C779 C778 1.524 . S
C779 C780 1.415 . S
C780 H756 0.950 . S
C780 C775 1.363 . S
C780 C779 1.415 . S
C781 H757 0.951 . S
C781 C782 1.366 . S
C781 C783 1.388 . S
C782 C781 1.366 . S
C782 C786 1.385 . S
C783 H758 0.951 . S
C783 C781 1.388 . S
C783 C784 1.366 . S
C784 C783 1.366 . S
C784 C785 1.414 . S
C784 C787 1.499 . S
C785 H759 0.950 . S
C785 C784 1.414 . S
C785 C786 1.374 . S
C786 H760 0.950 . S
C786 C782 1.385 . S
C786 C785 1.374 . S
C787 C784 1.499 . S
C787 C788 1.373 . S
C787 C789 1.389 . S
C788 H761 0.950 . S
C788 C774 1.377 . S
C788 C787 1.373 . S
C789 C773 1.377 . S
C789 C787 1.389 . S
C789 C790 1.524 . S
C790 C789 1.524 . S
C790 C791 1.397 . S
C790 C795 1.363 . S
C791 H762 0.950 . S
C791 C790 1.397 . S
C791 C792 1.334 . S
C792 H763 0.950 . S
C792 C791 1.334 . S
C792 C793 1.287 . S
C793 C792 1.287 . S
C793 C794 1.524 . S
C793 H796 0.999 . S
C794 H764 0.950 . S
C794 C793 1.524 . S
C794 C795 1.415 . S
C795 H765 0.950 . S
C795 C790 1.363 . S
C795 C794 1.415 . S
H796 C793 0.999 . S
H797 C778 0.913 . S
H798 C816 0.951 . S
H799 C818 0.951 . S
H800 C820 0.950 . S
H801 C821 0.950 . S
H802 C823 0.950 . S
H803 C826 0.950 . S
H804 C827 0.950 . S
H805 C829 0.950 . S
H806 C830 0.950 . S
H807 C831 0.951 . S
H808 C833 0.951 . S
H809 C835 0.950 . S
H810 C836 0.950 . S
H811 C838 0.950 . S
H812 C841 0.950 . S
H813 C842 0.964 . S
H814 C844 0.950 . S
H815 C845 0.950 . S
C816 H798 0.951 . S
C816 C817 1.366 . S
C816 C818 1.388 . S
C817 C816 1.366 . S
C817 C821 1.385 . S
C818 H799 0.951 . S
C818 C816 1.388 . S
C818 C819 1.366 . S
C819 C818 1.366 . S
C819 C820 1.414 . S
C819 C822 1.499 . S
C820 H800 0.950 . S
C820 C819 1.414 . S
C820 C821 1.374 . S
C821 H801 0.950 . S
C821 C817 1.385 . S
C821 C820 1.374 . S
C822 C819 1.499 . S
C822 C823 1.373 . S
C822 C824 1.389 . S
C823 H802 0.950 . S
C823 C822 1.373 . S
C823 C839 1.377 . S
C824 C822 1.389 . S
C824 C825 1.524 . S
C824 C838 1.377 . S
C825 C824 1.524 . S
C825 C826 1.397 . S
C825 C830 1.363 . S
C826 H803 0.950 . S
C826 C825 1.397 . S
C826 C827 1.334 . S
C827 H804 0.950 . S
C827 C826 1.334 . S
C827 C828 1.287 . S
C828 C827 1.287 . S
C828 C829 1.524 . S
C828 H847 0.913 . S
C829 H805 0.950 . S
C829 C828 1.524 . S
C829 C830 1.415 . S
C830 H806 0.950 . S
C830 C825 1.363 . S
C830 C829 1.415 . S
C831 H807 0.951 . S
C831 C832 1.366 . S
C831 C833 1.388 . S
C832 C831 1.366 . S
C832 C836 1.385 . S
C833 H808 0.951 . S
C833 C831 1.388 . S
C833 C834 1.366 . S
C834 C833 1.366 . S
C834 C835 1.414 . S
C834 C837 1.499 . S
C835 H809 0.950 . S
C835 C834 1.414 . S
C835 C836 1.374 . S
C836 H810 0.950 . S
C836 C832 1.385 . S
C836 C835 1.374 . S
C837 C834 1.499 . S
C837 C838 1.373 . S
C837 C839 1.389 . S
C838 H811 0.950 . S
C838 C824 1.377 . S
C838 C837 1.373 . S
C839 C823 1.377 . S
C839 C837 1.389 . S
C839 C840 1.524 . S
C840 C839 1.524 . S
C840 C841 1.397 . S
C840 C845 1.363 . S
C841 H812 0.950 . S
C841 C840 1.397 . S
C841 C842 1.334 . S
C842 H813 0.964 . S
C842 C841 1.334 . S
C842 C843 1.287 . S
C843 C842 1.287 . S
C843 C844 1.524 . S
C843 H846 0.999 . S
C844 H814 0.950 . S
C844 C843 1.524 . S
C844 C845 1.415 . S
C845 H815 0.950 . S
C845 C840 1.363 . S
C845 C844 1.415 . S
H846 C843 0.999 . S
H847 C828 0.913 . S
H848 C866 0.951 . S
H849 C868 0.951 . S
H850 C870 0.950 . S
H851 C871 0.950 . S
H852 C873 0.950 . S
H853 C876 0.950 . S
H854 C877 0.950 . S
H855 C879 0.950 . S
H856 C880 0.950 . S
H857 C881 0.951 . S
H858 C883 0.951 . S
H859 C885 0.950 . S
H860 C886 0.950 1_545 S
H861 C888 0.950 . S
H862 C891 0.950 . S
H863 C892 0.950 . S
H864 C894 0.950 . S
H865 C895 0.950 . S
C866 H848 0.951 . S
C866 C867 1.366 . S
C866 C868 1.388 1_554 S
C867 C866 1.366 . S
C867 C871 1.385 . S
C868 H849 0.951 . S
C868 C866 1.388 1_556 S
C868 C869 1.366 . S
C869 C868 1.366 . S
C869 C870 1.414 . S
C869 C872 1.499 . S
C870 H850 0.950 . S
C870 C869 1.414 . S
C870 C871 1.374 1_556 S
C871 H851 0.950 . S
C871 C867 1.385 . S
C871 C870 1.374 1_554 S
C872 C869 1.499 . S
C872 C873 1.373 . S
C872 C874 1.389 . S
C873 H852 0.950 . S
C873 C872 1.373 . S
C873 C889 1.377 . S
C874 C872 1.389 . S
C874 C875 1.524 . S
C874 C888 1.377 . S
C875 C874 1.524 . S
C875 C876 1.397 . S
C875 C880 1.363 . S
C876 H853 0.950 . S
C876 C875 1.397 . S
C876 C877 1.334 . S
C877 H854 0.950 . S
C877 C876 1.334 . S
C877 C878 1.287 . S
C878 C877 1.287 . S
C878 C879 1.524 . S
C878 H897 0.913 . S
C879 H855 0.950 . S
C879 C878 1.524 . S
C879 C880 1.415 . S
C880 H856 0.950 . S
C880 C875 1.363 . S
C880 C879 1.415 . S
C881 H857 0.951 . S
C881 C882 1.366 . S
C881 C883 1.388 . S
C882 C881 1.366 . S
C882 C886 1.385 . S
C883 H858 0.951 . S
C883 C881 1.388 . S
C883 C884 1.366 . S
C884 C883 1.366 . S
C884 C885 1.414 . S
C884 C887 1.499 . S
C885 H859 0.950 . S
C885 C884 1.414 . S
C885 C886 1.374 . S
C886 H860 0.950 1_565 S
C886 C882 1.385 . S
C886 C885 1.374 . S
C887 C884 1.499 . S
C887 C888 1.373 . S
C887 C889 1.389 . S
C888 H861 0.950 . S
C888 C874 1.377 . S
C888 C887 1.373 . S
C889 C873 1.377 . S
C889 C887 1.389 . S
C889 C890 1.524 . S
C890 C889 1.524 . S
C890 C891 1.397 1_565 S
C890 C895 1.363 . S
C891 H862 0.950 . S
C891 C890 1.397 1_545 S
C891 C892 1.334 . S
C892 H863 0.950 . S
C892 C891 1.334 . S
C892 C893 1.287 . S
C893 C892 1.287 . S
C893 C894 1.524 1_545 S
C893 H896 0.999 . S
C894 H864 0.950 . S
C894 C893 1.524 1_565 S
C894 C895 1.415 . S
C895 H865 0.950 . S
C895 C890 1.363 . S
C895 C894 1.415 . S
H896 C893 0.999 . S
H897 C878 0.913 . S
H898 C916 0.951 . S
H899 C918 0.951 . S
H900 C920 0.950 . S
H901 C921 0.950 1_554 S
H902 C923 0.950 . S
H903 C926 0.950 . S
H904 C927 0.950 . S
H905 C929 0.950 . S
H906 C930 0.950 . S
H907 C931 0.951 . S
H908 C933 0.951 . S
H909 C935 0.950 . S
H910 C936 0.950 . S
H911 C938 0.950 . S
H912 C941 0.950 . S
H913 C942 0.950 . S
H914 C944 0.950 . S
H915 C945 0.950 . S
C916 H898 0.951 . S
C916 C917 1.366 . S
C916 C918 1.388 1_554 S
C917 C916 1.366 . S
C917 C921 1.385 1_554 S
C918 H899 0.951 . S
C918 C916 1.388 1_556 S
C918 C919 1.366 . S
C919 C918 1.366 . S
C919 C920 1.414 . S
C919 C922 1.499 . S
C920 H900 0.950 . S
C920 C919 1.414 . S
C920 C921 1.374 . S
C921 H901 0.950 1_556 S
C921 C917 1.385 1_556 S
C921 C920 1.374 . S
C922 C919 1.499 . S
C922 C923 1.373 . S
C922 C924 1.389 . S
C923 H902 0.950 . S
C923 C922 1.373 . S
C923 C939 1.377 . S
C924 C922 1.389 . S
C924 C925 1.524 . S
C924 C938 1.377 . S
C925 C924 1.524 . S
C925 C926 1.397 . S
C925 C930 1.363 . S
C926 H903 0.950 . S
C926 C925 1.397 . S
C926 C927 1.334 . S
C927 H904 0.950 . S
C927 C926 1.334 . S
C927 C928 1.287 . S
C928 C927 1.287 . S
C928 C929 1.524 . S
C928 H947 0.913 . S
C929 H905 0.950 . S
C929 C928 1.524 . S
C929 C930 1.415 . S
C930 H906 0.950 . S
C930 C925 1.363 . S
C930 C929 1.415 . S
C931 H907 0.951 . S
C931 C932 1.366 . S
C931 C933 1.388 . S
C932 C931 1.366 . S
C932 C936 1.385 . S
C933 H908 0.951 . S
C933 C931 1.388 . S
C933 C934 1.366 . S
C934 C933 1.366 . S
C934 C935 1.414 . S
C934 C937 1.499 . S
C935 H909 0.950 . S
C935 C934 1.414 . S
C935 C936 1.374 . S
C936 H910 0.950 . S
C936 C932 1.385 . S
C936 C935 1.374 . S
C937 C934 1.499 . S
C937 C938 1.373 . S
C937 C939 1.389 . S
C938 H911 0.950 . S
C938 C924 1.377 . S
C938 C937 1.373 . S
C939 C923 1.377 . S
C939 C937 1.389 . S
C939 C940 1.524 . S
C940 C939 1.524 . S
C940 C941 1.397 . S
C940 C945 1.363 . S
C941 H912 0.950 . S
C941 C940 1.397 . S
C941 C942 1.334 . S
C942 H913 0.950 . S
C942 C941 1.334 . S
C942 C943 1.287 . S
C943 C942 1.287 . S
C943 C944 1.524 . S
C943 H946 0.999 . S
C944 H914 0.950 . S
C944 C943 1.524 . S
C944 C945 1.415 . S
C945 H915 0.950 . S
C945 C940 1.363 . S
C945 C944 1.415 . S
H946 C943 0.999 . S
H947 C928 0.913 . S
H948 C966 0.951 . S
H949 C968 0.951 . S
H950 C970 0.950 . S
H951 C971 0.950 . S
H952 C973 0.950 . S
H953 C976 0.950 . S
H954 C977 0.950 . S
H955 C979 0.950 . S
H956 C980 0.950 . S
H957 C981 0.951 . S
H958 C983 0.951 . S
H959 C985 0.950 . S
H960 C986 0.950 . S
H961 C988 0.950 . S
H962 C991 0.950 . S
H963 C992 0.950 . S
H964 C994 0.950 . S
H965 C995 0.950 . S
C966 H948 0.951 . S
C966 C967 1.366 . S
C966 C968 1.388 1_554 S
C967 C966 1.366 . S
C967 C971 1.385 1_554 S
C968 H949 0.951 . S
C968 C966 1.388 1_556 S
C968 C969 1.366 . S
C969 C968 1.366 . S
C969 C970 1.414 . S
C969 C972 1.499 . S
C970 H950 0.950 . S
C970 C969 1.414 . S
C970 C971 1.374 . S
C971 H951 0.950 . S
C971 C967 1.385 1_556 S
C971 C970 1.374 . S
C972 C969 1.499 . S
C972 C973 1.373 . S
C972 C974 1.389 . S
C973 H952 0.950 . S
C973 C972 1.373 . S
C973 C989 1.377 . S
C974 C972 1.389 . S
C974 C975 1.524 . S
C974 C988 1.377 . S
C975 C974 1.524 . S
C975 C976 1.397 . S
C975 C980 1.363 . S
C976 H953 0.950 . S
C976 C975 1.397 . S
C976 C977 1.334 1_556 S
C977 H954 0.950 . S
C977 C976 1.334 1_554 S
C977 C978 1.287 . S
C978 C977 1.287 . S
C978 C979 1.524 . S
C978 H997 0.913 . S
C979 H955 0.950 . S
C979 C978 1.524 . S
C979 C980 1.415 1_554 S
C980 H956 0.950 . S
C980 C975 1.363 . S
C980 C979 1.415 1_556 S
C981 H957 0.951 . S
C981 C982 1.366 . S
C981 C983 1.388 . S
C982 C981 1.366 . S
C982 C986 1.385 . S
C983 H958 0.951 . S
C983 C981 1.388 . S
C983 C984 1.366 . S
C984 C983 1.366 . S
C984 C985 1.414 . S
C984 C987 1.499 . S
C985 H959 0.950 . S
C985 C984 1.414 . S
C985 C986 1.374 . S
C986 H960 0.950 . S
C986 C982 1.385 . S
C986 C985 1.374 . S
C987 C984 1.499 . S
C987 C988 1.373 . S
C987 C989 1.389 . S
C988 H961 0.950 . S
C988 C974 1.377 . S
C988 C987 1.373 . S
C989 C973 1.377 . S
C989 C987 1.389 . S
C989 C990 1.524 . S
C990 C989 1.524 . S
C990 C991 1.397 . S
C990 C995 1.363 . S
C991 H962 0.950 . S
C991 C990 1.397 . S
C991 C992 1.334 . S
C992 H963 0.950 . S
C992 C991 1.334 . S
C992 C993 1.287 . S
C993 C992 1.287 . S
C993 C994 1.524 . S
C993 H996 0.999 . S
C994 H964 0.950 . S
C994 C993 1.524 . S
C994 C995 1.415 . S
C995 H965 0.950 . S
C995 C990 1.363 . S
C995 C994 1.415 . S
H996 C993 0.999 . S
H997 C978 0.913 . S
H998 C1016 0.951 . S
H999 C1018 0.951 . S
H1000 C1020 0.950 . S
H1001 C1021 0.950 1_554 S
H1002 C1023 0.950 . S
H1003 C1026 0.950 . S
H1004 C1027 0.950 . S
H1005 C1029 0.950 . S
H1006 C1030 0.950 . S
H1007 C1031 0.930 1_455 S
H1008 C1033 0.951 . S
H1009 C1035 0.950 . S
H1010 C1036 0.950 . S
H1011 C1038 0.950 . S
H1012 C1041 0.950 . S
H1013 C1042 0.950 . S
H1014 C1044 0.950 . S
H1015 C1045 0.950 . S
C1016 H998 0.951 . S
C1016 C1017 1.366 . S
C1016 C1018 1.388 1_554 S
C1017 C1016 1.366 . S
C1017 C1021 1.385 1_554 S
C1018 H999 0.951 . S
C1018 C1016 1.388 1_556 S
C1018 C1019 1.366 . S
C1019 C1018 1.366 . S
C1019 C1020 1.414 . S
C1019 C1022 1.499 . S
C1020 H1000 0.950 . S
C1020 C1019 1.414 . S
C1020 C1021 1.374 . S
C1021 H1001 0.950 1_556 S
C1021 C1017 1.385 1_556 S
C1021 C1020 1.374 . S
C1022 C1019 1.499 . S
C1022 C1023 1.373 . S
C1022 C1024 1.389 . S
C1023 H1002 0.950 . S
C1023 C1022 1.373 . S
C1023 C1039 1.377 . S
C1024 C1022 1.389 . S
C1024 C1025 1.524 . S
C1024 C1038 1.377 . S
C1025 C1024 1.524 . S
C1025 C1026 1.397 . S
C1025 C1030 1.363 . S
C1026 H1003 0.950 . S
C1026 C1025 1.397 . S
C1026 C1027 1.334 1_556 S
C1027 H1004 0.950 . S
C1027 C1026 1.334 1_554 S
C1027 C1028 1.287 . S
C1028 C1027 1.287 . S
C1028 C1029 1.524 . S
C1028 H1047 0.913 . S
C1029 H1005 0.950 . S
C1029 C1028 1.524 . S
C1029 C1030 1.415 1_554 S
C1030 H1006 0.950 . S
C1030 C1025 1.363 . S
C1030 C1029 1.415 1_556 S
C1031 H1007 0.930 1_655 S
C1031 C1032 1.366 . S
C1031 C1033 1.388 . S
C1032 C1031 1.366 . S
C1032 C1036 1.385 . S
C1033 H1008 0.951 . S
C1033 C1031 1.388 . S
C1033 C1034 1.366 . S
C1034 C1033 1.366 . S
C1034 C1035 1.414 . S
C1034 C1037 1.499 . S
C1035 H1009 0.950 . S
C1035 C1034 1.414 . S
C1035 C1036 1.374 . S
C1036 H1010 0.950 . S
C1036 C1032 1.385 . S
C1036 C1035 1.374 . S
C1037 C1034 1.499 . S
C1037 C1038 1.373 . S
C1037 C1039 1.389 . S
C1038 H1011 0.950 . S
C1038 C1024 1.377 . S
C1038 C1037 1.373 . S
C1039 C1023 1.377 . S
C1039 C1037 1.389 . S
C1039 C1040 1.524 . S
C1040 C1039 1.524 . S
C1040 C1041 1.397 . S
C1040 C1045 1.363 . S
C1041 H1012 0.950 . S
C1041 C1040 1.397 . S
C1041 C1042 1.334 . S
C1042 H1013 0.950 . S
C1042 C1041 1.334 . S
C1042 C1043 1.287 . S
C1043 C1042 1.287 . S
C1043 C1044 1.524 . S
C1043 H1046 0.999 . S
C1044 H1014 0.950 . S
C1044 C1043 1.524 . S
C1044 C1045 1.415 . S
C1045 H1015 0.950 . S
C1045 C1040 1.363 . S
C1045 C1044 1.415 . S
H1046 C1043 0.999 . S
H1047 C1028 0.913 . S
H1048 C1066 0.951 . S
H1049 C1068 0.951 . S
H1050 C1070 0.950 . S
H1051 C1071 0.950 . S
H1052 C1073 0.950 . S
H1053 C1076 0.950 . S
H1054 C1077 0.950 . S
H1055 C1079 0.950 1_655 S
H1056 C1080 0.950 . S
H1057 C1081 0.951 . S
H1058 C1083 0.951 . S
H1059 C1085 0.950 . S
H1060 C1086 0.941 1_655 S
H1061 C1088 0.950 . S
H1062 C1091 0.950 . S
H1063 C1092 0.950 . S
H1064 C1094 0.950 . S
H1065 C1095 0.950 . S
C1066 H1048 0.951 . S
C1066 C1067 1.366 . S
C1066 C1068 1.388 . S
C1067 C1066 1.366 . S
C1067 C1071 1.385 . S
C1068 H1049 0.951 . S
C1068 C1066 1.388 . S
C1068 C1069 1.366 . S
C1069 C1068 1.366 . S
C1069 C1070 1.414 . S
C1069 C1072 1.499 . S
C1070 H1050 0.950 . S
C1070 C1069 1.414 . S
C1070 C1071 1.374 . S
C1071 H1051 0.950 . S
C1071 C1067 1.385 . S
C1071 C1070 1.374 . S
C1072 C1069 1.499 . S
C1072 C1073 1.373 . S
C1072 C1074 1.389 . S
C1073 H1052 0.950 . S
C1073 C1072 1.373 . S
C1073 C1089 1.377 . S
C1074 C1072 1.389 . S
C1074 C1075 1.524 . S
C1074 C1088 1.377 . S
C1075 C1074 1.524 . S
C1075 C1076 1.397 . S
C1075 C1080 1.363 . S
C1076 H1053 0.950 . S
C1076 C1075 1.397 . S
C1076 C1077 1.334 . S
C1077 H1054 0.950 . S
C1077 C1076 1.334 . S
C1077 C1078 1.307 . S
C1078 C1077 1.307 . S
C1078 C1079 1.528 . S
C1078 H1097 0.892 1_455 S
C1079 H1055 0.950 1_455 S
C1079 C1078 1.528 . S
C1079 C1080 1.415 . S
C1080 H1056 0.950 . S
C1080 C1075 1.363 . S
C1080 C1079 1.415 . S
C1081 H1057 0.951 . S
C1081 C1082 1.366 . S
C1081 C1083 1.388 . S
C1082 C1081 1.366 . S
C1082 C1086 1.385 . S
C1083 H1058 0.951 . S
C1083 C1081 1.388 . S
C1083 C1084 1.366 . S
C1084 C1083 1.366 . S
C1084 C1085 1.414 . S
C1084 C1087 1.499 . S
C1085 H1059 0.950 . S
C1085 C1084 1.414 . S
C1085 C1086 1.374 . S
C1086 H1060 0.941 1_455 S
C1086 C1082 1.385 . S
C1086 C1085 1.374 . S
C1087 C1084 1.499 . S
C1087 C1088 1.373 . S
C1087 C1089 1.389 . S
C1088 H1061 0.950 . S
C1088 C1074 1.377 . S
C1088 C1087 1.373 . S
C1089 C1073 1.377 . S
C1089 C1087 1.389 . S
C1089 C1090 1.524 . S
C1090 C1089 1.524 . S
C1090 C1091 1.397 . S
C1090 C1095 1.363 . S
C1091 H1062 0.950 . S
C1091 C1090 1.397 . S
C1091 C1092 1.334 . S
C1092 H1063 0.950 . S
C1092 C1091 1.334 . S
C1092 C1093 1.287 . S
C1093 C1092 1.287 . S
C1093 C1094 1.524 . S
C1093 H1096 0.999 . S
C1094 H1064 0.950 . S
C1094 C1093 1.524 . S
C1094 C1095 1.415 . S
C1095 H1065 0.950 . S
C1095 C1090 1.363 . S
C1095 C1094 1.415 . S
H1096 C1093 0.999 . S
H1097 C1078 0.892 1_655 S
H1098 C1116 0.951 . S
H1099 C1118 0.951 . S
H1100 C1120 0.950 . S
H1101 C1121 0.950 . S
H1102 C1123 0.950 . S
H1103 C1126 0.950 . S
H1104 C1127 0.950 . S
H1105 C1129 0.950 . S
H1106 C1130 0.950 . S
H1107 C1131 0.951 1_565 S
H1108 C1133 0.951 . S
H1109 C1135 0.950 . S
H1110 C1136 0.950 . S
H1111 C1138 0.950 . S
H1112 C1141 0.950 . S
H1113 C1142 0.950 . S
H1114 C1144 0.950 . S
H1115 C1145 0.950 . S
C1116 H1098 0.951 . S
C1116 C1117 1.366 . S
C1116 C1118 1.388 . S
C1117 C1116 1.366 . S
C1117 C1121 1.385 . S
C1118 H1099 0.951 . S
C1118 C1116 1.388 . S
C1118 C1119 1.366 . S
C1119 C1118 1.366 . S
C1119 C1120 1.414 . S
C1119 C1122 1.499 . S
C1120 H1100 0.950 . S
C1120 C1119 1.414 . S
C1120 C1121 1.374 . S
C1121 H1101 0.950 . S
C1121 C1117 1.385 . S
C1121 C1120 1.374 . S
C1122 C1119 1.499 . S
C1122 C1123 1.373 . S
C1122 C1124 1.389 . S
C1123 H1102 0.950 . S
C1123 C1122 1.373 . S
C1123 C1139 1.377 . S
C1124 C1122 1.389 . S
C1124 C1125 1.524 . S
C1124 C1138 1.377 . S
C1125 C1124 1.524 . S
C1125 C1126 1.397 . S
C1125 C1130 1.363 . S
C1126 H1103 0.950 . S
C1126 C1125 1.397 . S
C1126 C1127 1.334 . S
C1127 H1104 0.950 . S
C1127 C1126 1.334 . S
C1127 C1128 1.287 . S
C1128 C1127 1.287 . S
C1128 C1129 1.524 . S
C1128 H1147 0.913 . S
C1129 H1105 0.950 . S
C1129 C1128 1.524 . S
C1129 C1130 1.415 . S
C1130 H1106 0.950 . S
C1130 C1125 1.363 . S
C1130 C1129 1.415 . S
C1131 H1107 0.951 1_545 S
C1131 C1132 1.366 . S
C1131 C1133 1.388 . S
C1132 C1131 1.366 . S
C1132 C1136 1.385 . S
C1133 H1108 0.951 . S
C1133 C1131 1.388 . S
C1133 C1134 1.366 . S
C1134 C1133 1.366 . S
C1134 C1135 1.414 . S
C1134 C1137 1.499 . S
C1135 H1109 0.950 . S
C1135 C1134 1.414 . S
C1135 C1136 1.374 . S
C1136 H1110 0.950 . S
C1136 C1132 1.385 . S
C1136 C1135 1.374 . S
C1137 C1134 1.499 . S
C1137 C1138 1.373 . S
C1137 C1139 1.389 . S
C1138 H1111 0.950 . S
C1138 C1124 1.377 . S
C1138 C1137 1.373 . S
C1139 C1123 1.377 . S
C1139 C1137 1.389 . S
C1139 C1140 1.524 . S
C1140 C1139 1.524 . S
C1140 C1141 1.397 . S
C1140 C1145 1.363 . S
C1141 H1112 0.950 . S
C1141 C1140 1.397 . S
C1141 C1142 1.334 . S
C1142 H1113 0.950 . S
C1142 C1141 1.334 . S
C1142 C1143 1.287 . S
C1143 C1142 1.287 . S
C1143 C1144 1.524 . S
C1143 H1146 0.999 . S
C1144 H1114 0.950 . S
C1144 C1143 1.524 . S
C1144 C1145 1.415 . S
C1145 H1115 0.950 . S
C1145 C1140 1.363 . S
C1145 C1144 1.415 . S
H1146 C1143 0.999 . S
H1147 C1128 0.913 . S
H1148 C1166 0.951 . S
H1149 C1168 0.951 . S
H1150 C1170 0.950 . S
H1151 C1171 0.950 . S
H1152 C1173 0.950 . S
H1153 C1176 0.950 . S
H1154 C1177 0.950 . S
H1155 C1179 0.950 . S
H1156 C1180 0.950 . S
H1157 C1181 0.951 . S
H1158 C1183 0.951 . S
H1159 C1185 0.950 . S
H1160 C1186 0.950 . S
H1161 C1188 0.950 . S
H1162 C1191 0.950 . S
H1163 C1192 0.950 . S
H1164 C1194 0.950 . S
H1165 C1195 0.950 . S
C1166 H1148 0.951 . S
C1166 C1167 1.366 . S
C1166 C1168 1.388 . S
C1167 C1166 1.366 . S
C1167 C1171 1.385 . S
C1168 H1149 0.951 . S
C1168 C1166 1.388 . S
C1168 C1169 1.366 . S
C1169 C1168 1.366 . S
C1169 C1170 1.414 . S
C1169 C1172 1.499 . S
C1170 H1150 0.950 . S
C1170 C1169 1.414 . S
C1170 C1171 1.374 . S
C1171 H1151 0.950 . S
C1171 C1167 1.385 . S
C1171 C1170 1.374 . S
C1172 C1169 1.499 . S
C1172 C1173 1.373 . S
C1172 C1174 1.389 . S
C1173 H1152 0.950 . S
C1173 C1172 1.373 . S
C1173 C1189 1.377 . S
C1174 C1172 1.389 . S
C1174 C1175 1.524 . S
C1174 C1188 1.377 . S
C1175 C1174 1.524 . S
C1175 C1176 1.397 . S
C1175 C1180 1.363 . S
C1176 H1153 0.950 . S
C1176 C1175 1.397 . S
C1176 C1177 1.334 . S
C1177 H1154 0.950 . S
C1177 C1176 1.334 . S
C1177 C1178 1.287 . S
C1178 C1177 1.287 . S
C1178 C1179 1.524 . S
C1178 H1197 0.913 . S
C1179 H1155 0.950 . S
C1179 C1178 1.524 . S
C1179 C1180 1.415 . S
C1180 H1156 0.950 . S
C1180 C1175 1.363 . S
C1180 C1179 1.415 . S
C1181 H1157 0.951 . S
C1181 C1182 1.366 . S
C1181 C1183 1.388 . S
C1182 C1181 1.366 . S
C1182 C1186 1.385 . S
C1183 H1158 0.951 . S
C1183 C1181 1.388 . S
C1183 C1184 1.366 . S
C1184 C1183 1.366 . S
C1184 C1185 1.414 . S
C1184 C1187 1.499 . S
C1185 H1159 0.950 . S
C1185 C1184 1.414 . S
C1185 C1186 1.374 . S
C1186 H1160 0.950 . S
C1186 C1182 1.385 . S
C1186 C1185 1.374 . S
C1187 C1184 1.499 . S
C1187 C1188 1.373 . S
C1187 C1189 1.389 . S
C1188 H1161 0.950 . S
C1188 C1174 1.377 . S
C1188 C1187 1.373 . S
C1189 C1173 1.377 . S
C1189 C1187 1.389 . S
C1189 C1190 1.524 . S
C1190 C1189 1.524 . S
C1190 C1191 1.397 . S
C1190 C1195 1.363 . S
C1191 H1162 0.950 . S
C1191 C1190 1.397 . S
C1191 C1192 1.334 . S
C1192 H1163 0.950 . S
C1192 C1191 1.334 . S
C1192 C1193 1.287 . S
C1193 C1192 1.287 . S
C1193 C1194 1.524 . S
C1193 H1196 0.999 . S
C1194 H1164 0.950 . S
C1194 C1193 1.524 . S
C1194 C1195 1.415 . S
C1195 H1165 0.950 . S
C1195 C1190 1.363 . S
C1195 C1194 1.415 . S
H1196 C1193 0.999 . S
H1197 C1178 0.913 . S
H1198 C1216 0.951 . S
H1199 C1218 0.951 . S
H1200 C1220 0.950 . S
H1201 C1221 0.950 . S
H1202 C1223 0.950 . S
H1203 C1226 0.950 . S
H1204 C1227 0.950 . S
H1205 C1229 0.950 . S
H1206 C1230 0.950 . S
H1207 C1231 0.951 . S
H1208 C1233 0.951 . S
H1209 C1235 0.950 . S
H1210 C1236 0.950 . S
H1211 C1238 0.950 . S
H1212 C1241 0.950 . S
H1213 C1242 0.950 . S
H1214 C1244 0.950 . S
H1215 C1245 0.950 . S
C1216 H1198 0.951 . S
C1216 C1217 1.366 . S
C1216 C1218 1.388 . S
C1217 C1216 1.366 . S
C1217 C1221 1.385 . S
C1218 H1199 0.951 . S
C1218 C1216 1.388 . S
C1218 C1219 1.366 . S
C1219 C1218 1.366 . S
C1219 C1220 1.414 . S
C1219 C1222 1.499 . S
C1220 H1200 0.950 . S
C1220 C1219 1.414 . S
C1220 C1221 1.374 . S
C1221 H1201 0.950 . S
C1221 C1217 1.385 . S
C1221 C1220 1.374 . S
C1222 C1219 1.499 . S
C1222 C1223 1.373 . S
C1222 C1224 1.389 . S
C1223 H1202 0.950 . S
C1223 C1222 1.373 . S
C1223 C1239 1.377 . S
C1224 C1222 1.389 . S
C1224 C1225 1.524 . S
C1224 C1238 1.377 . S
C1225 C1224 1.524 . S
C1225 C1226 1.397 . S
C1225 C1230 1.363 . S
C1226 H1203 0.950 . S
C1226 C1225 1.397 . S
C1226 C1227 1.334 . S
C1227 H1204 0.950 . S
C1227 C1226 1.334 . S
C1227 C1228 1.287 . S
C1228 C1227 1.287 . S
C1228 C1229 1.524 . S
C1228 H1247 0.913 . S
C1229 H1205 0.950 . S
C1229 C1228 1.524 . S
C1229 C1230 1.415 . S
C1230 H1206 0.950 . S
C1230 C1225 1.363 . S
C1230 C1229 1.415 . S
C1231 H1207 0.951 . S
C1231 C1232 1.366 . S
C1231 C1233 1.388 . S
C1232 C1231 1.366 . S
C1232 C1236 1.385 . S
C1233 H1208 0.951 . S
C1233 C1231 1.388 . S
C1233 C1234 1.366 . S
C1234 C1233 1.366 . S
C1234 C1235 1.414 . S
C1234 C1237 1.499 . S
C1235 H1209 0.950 . S
C1235 C1234 1.414 . S
C1235 C1236 1.374 . S
C1236 H1210 0.950 . S
C1236 C1232 1.385 . S
C1236 C1235 1.374 . S
C1237 C1234 1.499 . S
C1237 C1238 1.373 . S
C1237 C1239 1.389 . S
C1238 H1211 0.950 . S
C1238 C1224 1.377 . S
C1238 C1237 1.373 . S
C1239 C1223 1.377 . S
C1239 C1237 1.389 . S
C1239 C1240 1.524 . S
C1240 C1239 1.524 . S
C1240 C1241 1.397 . S
C1240 C1245 1.363 . S
C1241 H1212 0.950 . S
C1241 C1240 1.397 . S
C1241 C1242 1.334 . S
C1242 H1213 0.950 . S
C1242 C1241 1.334 . S
C1242 C1243 1.287 . S
C1243 C1242 1.287 . S
C1243 C1244 1.524 . S
C1243 H1246 0.999 . S
C1244 H1214 0.950 . S
C1244 C1243 1.524 . S
C1244 C1245 1.415 . S
C1245 H1215 0.950 . S
C1245 C1240 1.363 . S
C1245 C1244 1.415 . S
H1246 C1243 0.999 . S
H1247 C1228 0.913 . S
H1248 C1266 0.951 . S
H1249 C1268 0.951 . S
H1250 C1270 0.950 . S
H1251 C1271 0.950 1_554 S
H1252 C1273 0.950 . S
H1253 C1276 0.950 . S
H1254 C1277 0.950 . S
H1255 C1279 0.950 . S
H1256 C1280 0.950 . S
H1257 C1281 0.951 . S
H1258 C1283 0.966 . S
H1259 C1285 0.950 . S
H1260 C1286 0.950 . S
H1261 C1288 0.950 . S
H1262 C1291 0.950 . S
H1263 C1292 0.950 . S
H1264 C1294 0.950 . S
H1265 C1295 0.950 . S
C1266 H1248 0.951 . S
C1266 C1267 1.366 . S
C1266 C1268 1.388 . S
C1267 C1266 1.366 . S
C1267 C1271 1.385 . S
C1268 H1249 0.951 . S
C1268 C1266 1.388 . S
C1268 C1269 1.366 . S
C1269 C1268 1.366 . S
C1269 C1270 1.414 . S
C1269 C1272 1.499 . S
C1270 H1250 0.950 . S
C1270 C1269 1.414 . S
C1270 C1271 1.374 . S
C1271 H1251 0.950 1_556 S
C1271 C1267 1.385 . S
C1271 C1270 1.374 . S
C1272 C1269 1.499 . S
C1272 C1273 1.373 . S
C1272 C1274 1.389 . S
C1273 H1252 0.950 . S
C1273 C1272 1.373 . S
C1273 C1289 1.377 . S
C1274 C1272 1.389 . S
C1274 C1275 1.524 . S
C1274 C1288 1.377 . S
C1275 C1274 1.524 . S
C1275 C1276 1.397 . S
C1275 C1280 1.363 . S
C1276 H1253 0.950 . S
C1276 C1275 1.397 . S
C1276 C1277 1.334 . S
C1277 H1254 0.950 . S
C1277 C1276 1.334 . S
C1277 C1278 1.287 . S
C1278 C1277 1.287 . S
C1278 C1279 1.524 . S
C1278 H1297 0.913 . S
C1279 H1255 0.950 . S
C1279 C1278 1.524 . S
C1279 C1280 1.415 . S
C1280 H1256 0.950 . S
C1280 C1275 1.363 . S
C1280 C1279 1.415 . S
C1281 H1257 0.951 . S
C1281 C1282 1.366 . S
C1281 C1283 1.411 . S
C1282 C1281 1.366 . S
C1282 C1286 1.385 1_455 S
C1283 H1258 0.966 . S
C1283 C1281 1.411 . S
C1283 C1284 1.329 1_455 S
C1284 C1283 1.329 1_655 S
C1284 C1285 1.414 . S
C1284 C1287 1.499 . S
C1285 H1259 0.950 . S
C1285 C1284 1.414 . S
C1285 C1286 1.374 . S
C1286 H1260 0.950 . S
C1286 C1282 1.385 1_655 S
C1286 C1285 1.374 . S
C1287 C1284 1.499 . S
C1287 C1288 1.373 . S
C1287 C1289 1.389 . S
C1288 H1261 0.950 . S
C1288 C1274 1.377 . S
C1288 C1287 1.373 . S
C1289 C1273 1.377 . S
C1289 C1287 1.389 . S
C1289 C1290 1.524 . S
C1290 C1289 1.524 . S
C1290 C1291 1.397 . S
C1290 C1295 1.363 . S
C1291 H1262 0.950 . S
C1291 C1290 1.397 . S
C1291 C1292 1.334 . S
C1292 H1263 0.950 . S
C1292 C1291 1.334 . S
C1292 C1293 1.287 . S
C1293 C1292 1.287 . S
C1293 C1294 1.524 1_556 S
C1293 H1296 0.999 . S
C1294 H1264 0.950 . S
C1294 C1293 1.524 1_554 S
C1294 C1295 1.415 1_554 S
C1295 H1265 0.950 . S
C1295 C1290 1.363 . S
C1295 C1294 1.415 1_556 S
H1296 C1293 0.999 . S
H1297 C1278 0.913 . S
H1298 C1316 0.951 . S
H1299 C1318 0.951 . S
H1300 C1320 0.950 . S
H1301 C1321 0.950 1_554 S
H1302 C1323 0.950 . S
H1303 C1326 0.950 . S
H1304 C1327 0.950 1_545 S
H1305 C1329 0.950 . S
H1306 C1330 0.950 . S
H1307 C1331 0.951 . S
H1308 C1333 0.951 . S
H1309 C1335 0.950 . S
H1310 C1336 0.947 1_545 S
H1311 C1338 0.950 . S
H1312 C1341 0.950 . S
H1313 C1342 0.950 . S
H1314 C1344 0.950 . S
H1315 C1345 0.950 . S
C1316 H1298 0.951 . S
C1316 C1317 1.366 . S
C1316 C1318 1.388 . S
C1317 C1316 1.366 . S
C1317 C1321 1.385 . S
C1318 H1299 0.951 . S
C1318 C1316 1.388 . S
C1318 C1319 1.366 . S
C1319 C1318 1.366 . S
C1319 C1320 1.414 . S
C1319 C1322 1.499 . S
C1320 H1300 0.950 . S
C1320 C1319 1.414 . S
C1320 C1321 1.374 . S
C1321 H1301 0.950 1_556 S
C1321 C1317 1.385 . S
C1321 C1320 1.374 . S
C1322 C1319 1.499 . S
C1322 C1323 1.373 . S
C1322 C1324 1.389 . S
C1323 H1302 0.950 . S
C1323 C1322 1.373 . S
C1323 C1339 1.377 . S
C1324 C1322 1.389 . S
C1324 C1325 1.524 . S
C1324 C1338 1.377 . S
C1325 C1324 1.524 . S
C1325 C1326 1.397 . S
C1325 C1330 1.363 . S
C1326 H1303 0.950 . S
C1326 C1325 1.397 . S
C1326 C1327 1.334 . S
C1327 H1304 0.950 1_565 S
C1327 C1326 1.334 . S
C1327 C1328 1.286 . S
C1328 C1327 1.286 . S
C1328 C1329 1.522 . S
C1328 H1347 0.916 1_565 S
C1329 H1305 0.950 . S
C1329 C1328 1.522 . S
C1329 C1330 1.415 . S
C1330 H1306 0.950 . S
C1330 C1325 1.363 . S
C1330 C1329 1.415 . S
C1331 H1307 0.951 . S
C1331 C1332 1.366 . S
C1331 C1333 1.388 1_545 S
C1332 C1331 1.366 . S
C1332 C1336 1.379 1_545 S
C1333 H1308 0.951 . S
C1333 C1331 1.388 1_565 S
C1333 C1334 1.366 . S
C1334 C1333 1.366 . S
C1334 C1335 1.414 . S
C1334 C1337 1.499 . S
C1335 H1309 0.950 . S
C1335 C1334 1.414 . S
C1335 C1336 1.381 . S
C1336 H1310 0.947 1_565 S
C1336 C1332 1.379 1_565 S
C1336 C1335 1.381 . S
C1337 C1334 1.499 . S
C1337 C1338 1.373 . S
C1337 C1339 1.389 . S
C1338 H1311 0.950 . S
C1338 C1324 1.377 . S
C1338 C1337 1.373 . S
C1339 C1323 1.377 . S
C1339 C1337 1.389 . S
C1339 C1340 1.524 . S
C1340 C1339 1.524 . S
C1340 C1341 1.397 . S
C1340 C1345 1.363 . S
C1341 H1312 0.950 . S
C1341 C1340 1.397 . S
C1341 C1342 1.334 . S
C1342 H1313 0.950 . S
C1342 C1341 1.334 . S
C1342 C1343 1.287 . S
C1343 C1342 1.287 . S
C1343 C1344 1.524 . S
C1343 H1346 0.999 . S
C1344 H1314 0.950 . S
C1344 C1343 1.524 . S
C1344 C1345 1.415 . S
C1345 H1315 0.950 . S
C1345 C1340 1.363 . S
C1345 C1344 1.415 . S
H1346 C1343 0.999 . S
H1347 C1328 0.916 1_545 S
H1348 C1366 0.951 1_554 S
H1349 C1368 0.951 . S
H1350 C1370 0.950 . S
H1351 C1371 0.950 . S
H1352 C1373 0.950 . S
H1353 C1376 0.950 . S
H1354 C1377 0.950 . S
H1355 C1379 0.950 . S
H1356 C1380 0.950 . S
H1357 C1381 0.951 . S
H1358 C1383 0.951 . S
H1359 C1385 0.950 . S
H1360 C1386 0.950 . S
H1361 C1388 0.950 . S
H1362 C1391 0.950 . S
H1363 C1392 0.950 . S
H1364 C1394 0.950 . S
H1365 C1395 0.950 . S
C1366 H1348 0.951 1_556 S
C1366 C1367 1.366 . S
C1366 C1368 1.388 . S
C1367 C1366 1.366 . S
C1367 C1371 1.385 . S
C1368 H1349 0.951 . S
C1368 C1366 1.388 . S
C1368 C1369 1.366 . S
C1369 C1368 1.366 . S
C1369 C1370 1.414 . S
C1369 C1372 1.499 . S
C1370 H1350 0.950 . S
C1370 C1369 1.414 . S
C1370 C1371 1.374 . S
C1371 H1351 0.950 . S
C1371 C1367 1.385 . S
C1371 C1370 1.374 . S
C1372 C1369 1.499 . S
C1372 C1373 1.373 . S
C1372 C1374 1.389 . S
C1373 H1352 0.950 . S
C1373 C1372 1.373 . S
C1373 C1389 1.377 . S
C1374 C1372 1.389 . S
C1374 C1375 1.524 . S
C1374 C1388 1.377 . S
C1375 C1374 1.524 . S
C1375 C1376 1.397 . S
C1375 C1380 1.363 . S
C1376 H1353 0.950 . S
C1376 C1375 1.397 . S
C1376 C1377 1.334 . S
C1377 H1354 0.950 . S
C1377 C1376 1.334 . S
C1377 C1378 1.287 . S
C1378 C1377 1.287 . S
C1378 C1379 1.524 . S
C1378 H1397 0.913 . S
C1379 H1355 0.950 . S
C1379 C1378 1.524 . S
C1379 C1380 1.415 . S
C1380 H1356 0.950 . S
C1380 C1375 1.363 . S
C1380 C1379 1.415 . S
C1381 H1357 0.951 . S
C1381 C1382 1.366 . S
C1381 C1383 1.388 . S
C1382 C1381 1.366 . S
C1382 C1386 1.385 . S
C1383 H1358 0.951 . S
C1383 C1381 1.388 . S
C1383 C1384 1.366 . S
C1384 C1383 1.366 . S
C1384 C1385 1.414 . S
C1384 C1387 1.499 . S
C1385 H1359 0.950 . S
C1385 C1384 1.414 . S
C1385 C1386 1.374 . S
C1386 H1360 0.950 . S
C1386 C1382 1.385 . S
C1386 C1385 1.374 . S
C1387 C1384 1.499 . S
C1387 C1388 1.373 . S
C1387 C1389 1.389 . S
C1388 H1361 0.950 . S
C1388 C1374 1.377 . S
C1388 C1387 1.373 . S
C1389 C1373 1.377 . S
C1389 C1387 1.389 . S
C1389 C1390 1.524 . S
C1390 C1389 1.524 . S
C1390 C1391 1.397 . S
C1390 C1395 1.363 . S
C1391 H1362 0.950 . S
C1391 C1390 1.397 . S
C1391 C1392 1.334 . S
C1392 H1363 0.950 . S
C1392 C1391 1.334 . S
C1392 C1393 1.287 . S
C1393 C1392 1.287 . S
C1393 C1394 1.524 . S
C1393 H1396 0.999 . S
C1394 H1364 0.950 . S
C1394 C1393 1.524 . S
C1394 C1395 1.415 . S
C1395 H1365 0.950 . S
C1395 C1390 1.363 . S
C1395 C1394 1.415 . S
H1396 C1393 0.999 . S
H1397 C1378 0.913 . S
H1398 C1416 0.951 1_554 S
H1399 C1418 0.951 . S
H1400 C1420 0.950 . S
H1401 C1421 0.950 . S
H1402 C1423 0.950 . S
H1403 C1426 0.950 . S
H1404 C1427 0.950 . S
H1405 C1429 0.950 . S
H1406 C1430 0.950 . S
H1407 C1431 0.951 . S
H1408 C1433 0.951 . S
H1409 C1435 0.950 . S
H1410 C1436 0.950 . S
H1411 C1438 0.950 . S
H1412 C1441 0.950 . S
H1413 C1442 0.950 . S
H1414 C1444 0.950 . S
H1415 C1445 0.950 . S
C1416 H1398 0.951 1_556 S
C1416 C1417 1.366 . S
C1416 C1418 1.388 . S
C1417 C1416 1.366 . S
C1417 C1421 1.385 . S
C1418 H1399 0.951 . S
C1418 C1416 1.388 . S
C1418 C1419 1.366 . S
C1419 C1418 1.366 . S
C1419 C1420 1.414 . S
C1419 C1422 1.499 . S
C1420 H1400 0.950 . S
C1420 C1419 1.414 . S
C1420 C1421 1.374 . S
C1421 H1401 0.950 . S
C1421 C1417 1.385 . S
C1421 C1420 1.374 . S
C1422 C1419 1.499 . S
C1422 C1423 1.373 . S
C1422 C1424 1.389 . S
C1423 H1402 0.950 . S
C1423 C1422 1.373 . S
C1423 C1439 1.377 . S
C1424 C1422 1.389 . S
C1424 C1425 1.524 . S
C1424 C1438 1.377 . S
C1425 C1424 1.524 . S
C1425 C1426 1.397 . S
C1425 C1430 1.363 . S
C1426 H1403 0.950 . S
C1426 C1425 1.397 . S
C1426 C1427 1.334 . S
C1427 H1404 0.950 . S
C1427 C1426 1.334 . S
C1427 C1428 1.287 . S
C1428 C1427 1.287 . S
C1428 C1429 1.524 . S
C1428 H1447 0.913 . S
C1429 H1405 0.950 . S
C1429 C1428 1.524 . S
C1429 C1430 1.415 . S
C1430 H1406 0.950 . S
C1430 C1425 1.363 . S
C1430 C1429 1.415 . S
C1431 H1407 0.951 . S
C1431 C1432 1.366 . S
C1431 C1433 1.388 . S
C1432 C1431 1.366 . S
C1432 C1436 1.385 . S
C1433 H1408 0.951 . S
C1433 C1431 1.388 . S
C1433 C1434 1.366 . S
C1434 C1433 1.366 . S
C1434 C1435 1.414 . S
C1434 C1437 1.499 . S
C1435 H1409 0.950 . S
C1435 C1434 1.414 . S
C1435 C1436 1.374 . S
C1436 H1410 0.950 . S
C1436 C1432 1.385 . S
C1436 C1435 1.374 . S
C1437 C1434 1.499 . S
C1437 C1438 1.373 . S
C1437 C1439 1.389 . S
C1438 H1411 0.950 . S
C1438 C1424 1.377 . S
C1438 C1437 1.373 . S
C1439 C1423 1.377 . S
C1439 C1437 1.389 . S
C1439 C1440 1.524 . S
C1440 C1439 1.524 . S
C1440 C1441 1.397 . S
C1440 C1445 1.363 . S
C1441 H1412 0.950 . S
C1441 C1440 1.397 . S
C1441 C1442 1.334 . S
C1442 H1413 0.950 . S
C1442 C1441 1.334 . S
C1442 C1443 1.287 . S
C1443 C1442 1.287 . S
C1443 C1444 1.524 . S
C1443 H1446 0.999 . S
C1444 H1414 0.950 . S
C1444 C1443 1.524 . S
C1444 C1445 1.415 . S
C1445 H1415 0.950 . S
C1445 C1440 1.363 . S
C1445 C1444 1.415 . S
H1446 C1443 0.999 . S
H1447 C1428 0.913 . S
H1448 C1466 0.951 . S
H1449 C1468 0.951 . S
H1450 C1470 0.950 . S
H1451 C1471 0.950 . S
H1452 C1473 0.950 . S
H1453 C1476 0.950 . S
H1454 C1477 0.950 . S
H1455 C1479 0.950 . S
H1456 C1480 0.950 . S
H1457 C1481 0.951 . S
H1458 C1483 0.951 . S
H1459 C1485 0.950 . S
H1460 C1486 0.950 . S
H1461 C1488 0.950 . S
H1462 C1491 0.950 . S
H1463 C1492 0.950 . S
H1464 C1494 0.950 . S
H1465 C1495 0.950 . S
C1466 H1448 0.951 . S
C1466 C1467 1.366 . S
C1466 C1468 1.388 . S
C1467 C1466 1.366 . S
C1467 C1471 1.385 . S
C1468 H1449 0.951 . S
C1468 C1466 1.388 . S
C1468 C1469 1.366 . S
C1469 C1468 1.366 . S
C1469 C1470 1.414 . S
C1469 C1472 1.499 . S
C1470 H1450 0.950 . S
C1470 C1469 1.414 . S
C1470 C1471 1.374 . S
C1471 H1451 0.950 . S
C1471 C1467 1.385 . S
C1471 C1470 1.374 . S
C1472 C1469 1.499 . S
C1472 C1473 1.373 . S
C1472 C1474 1.389 . S
C1473 H1452 0.950 . S
C1473 C1472 1.373 . S
C1473 C1489 1.377 . S
C1474 C1472 1.389 . S
C1474 C1475 1.524 . S
C1474 C1488 1.377 . S
C1475 C1474 1.524 . S
C1475 C1476 1.397 . S
C1475 C1480 1.363 . S
C1476 H1453 0.950 . S
C1476 C1475 1.397 . S
C1476 C1477 1.334 . S
C1477 H1454 0.950 . S
C1477 C1476 1.334 . S
C1477 C1478 1.287 . S
C1478 C1477 1.287 . S
C1478 C1479 1.524 . S
C1478 H1497 0.913 . S
C1479 H1455 0.950 . S
C1479 C1478 1.524 . S
C1479 C1480 1.415 . S
C1480 H1456 0.950 . S
C1480 C1475 1.363 . S
C1480 C1479 1.415 . S
C1481 H1457 0.951 . S
C1481 C1482 1.366 . S
C1481 C1483 1.388 . S
C1482 C1481 1.366 . S
C1482 C1486 1.385 . S
C1483 H1458 0.951 . S
C1483 C1481 1.388 . S
C1483 C1484 1.366 . S
C1484 C1483 1.366 . S
C1484 C1485 1.414 . S
C1484 C1487 1.499 . S
C1485 H1459 0.950 . S
C1485 C1484 1.414 . S
C1485 C1486 1.374 . S
C1486 H1460 0.950 . S
C1486 C1482 1.385 . S
C1486 C1485 1.374 . S
C1487 C1484 1.499 . S
C1487 C1488 1.373 . S
C1487 C1489 1.389 . S
C1488 H1461 0.950 . S
C1488 C1474 1.377 . S
C1488 C1487 1.373 . S
C1489 C1473 1.377 . S
C1489 C1487 1.389 . S
C1489 C1490 1.524 . S
C1490 C1489 1.524 . S
C1490 C1491 1.397 . S
C1490 C1495 1.363 . S
C1491 H1462 0.950 . S
C1491 C1490 1.397 . S
C1491 C1492 1.334 . S
C1492 H1463 0.950 . S
C1492 C1491 1.334 . S
C1492 C1493 1.287 . S
C1493 C1492 1.287 . S
C1493 C1494 1.524 . S
C1493 H1496 0.999 . S
C1494 H1464 0.950 . S
C1494 C1493 1.524 . S
C1494 C1495 1.415 . S
C1495 H1465 0.950 . S
C1495 C1490 1.363 . S
C1495 C1494 1.415 . S
H1496 C1493 0.999 . S
H1497 C1478 0.913 . S
H1498 C1516 0.951 . S
H1499 C1518 0.951 . S
H1500 C1520 0.950 . S
H1501 C1521 0.950 . S
H1502 C1523 0.950 . S
H1503 C1526 0.950 . S
H1504 C1527 0.950 . S
H1505 C1529 0.950 . S
H1506 C1530 0.950 . S
H1507 C1531 0.951 . S
H1508 C1533 0.951 . S
H1509 C1535 0.950 . S
H1510 C1536 0.950 . S
H1511 C1538 0.950 . S
H1512 C1541 0.950 . S
H1513 C1542 0.950 . S
H1514 C1544 0.950 . S
H1515 C1545 0.950 1_545 S
C1516 H1498 0.951 . S
C1516 C1517 1.366 . S
C1516 C1518 1.388 . S
C1517 C1516 1.366 . S
C1517 C1521 1.385 . S
C1518 H1499 0.951 . S
C1518 C1516 1.388 . S
C1518 C1519 1.366 . S
C1519 C1518 1.366 . S
C1519 C1520 1.414 . S
C1519 C1522 1.499 . S
C1520 H1500 0.950 . S
C1520 C1519 1.414 . S
C1520 C1521 1.374 . S
C1521 H1501 0.950 . S
C1521 C1517 1.385 . S
C1521 C1520 1.374 . S
C1522 C1519 1.499 . S
C1522 C1523 1.373 . S
C1522 C1524 1.389 . S
C1523 H1502 0.950 . S
C1523 C1522 1.373 . S
C1523 C1539 1.377 . S
C1524 C1522 1.389 . S
C1524 C1525 1.524 . S
C1524 C1538 1.377 . S
C1525 C1524 1.524 . S
C1525 C1526 1.397 . S
C1525 C1530 1.363 . S
C1526 H1503 0.950 . S
C1526 C1525 1.397 . S
C1526 C1527 1.334 . S
C1527 H1504 0.950 . S
C1527 C1526 1.334 . S
C1527 C1528 1.287 . S
C1528 C1527 1.287 . S
C1528 C1529 1.524 . S
C1528 H1547 0.913 . S
C1529 H1505 0.950 . S
C1529 C1528 1.524 . S
C1529 C1530 1.415 . S
C1530 H1506 0.950 . S
C1530 C1525 1.363 . S
C1530 C1529 1.415 . S
C1531 H1507 0.951 . S
C1531 C1532 1.366 . S
C1531 C1533 1.388 . S
C1532 C1531 1.366 . S
C1532 C1536 1.385 . S
C1533 H1508 0.951 . S
C1533 C1531 1.388 . S
C1533 C1534 1.366 . S
C1534 C1533 1.366 . S
C1534 C1535 1.414 . S
C1534 C1537 1.499 . S
C1535 H1509 0.950 . S
C1535 C1534 1.414 . S
C1535 C1536 1.374 . S
C1536 H1510 0.950 . S
C1536 C1532 1.385 . S
C1536 C1535 1.374 . S
C1537 C1534 1.499 . S
C1537 C1538 1.373 . S
C1537 C1539 1.389 . S
C1538 H1511 0.950 . S
C1538 C1524 1.377 . S
C1538 C1537 1.373 . S
C1539 C1523 1.377 . S
C1539 C1537 1.389 . S
C1539 C1540 1.524 . S
C1540 C1539 1.524 . S
C1540 C1541 1.397 . S
C1540 C1545 1.363 1_545 S
C1541 H1512 0.950 . S
C1541 C1540 1.397 . S
C1541 C1542 1.334 1_545 S
C1542 H1513 0.950 . S
C1542 C1541 1.334 1_565 S
C1542 C1543 1.287 . S
C1543 C1542 1.287 . S
C1543 C1544 1.524 . S
C1543 H1546 0.999 . S
C1544 H1514 0.950 . S
C1544 C1543 1.524 . S
C1544 C1545 1.415 . S
C1545 H1515 0.950 1_565 S
C1545 C1540 1.363 1_565 S
C1545 C1544 1.415 . S
H1546 C1543 0.999 . S
H1547 C1528 0.913 . S
H1548 C1566 0.951 . S
H1549 C1568 0.951 . S
H1550 C1570 0.950 . S
H1551 C1571 0.950 . S
H1552 C1573 0.950 . S
H1553 C1576 0.950 . S
H1554 C1577 0.950 . S
H1555 C1579 0.950 . S
H1556 C1580 0.950 . S
H1557 C1581 0.951 . S
H1558 C1583 0.951 . S
H1559 C1585 0.950 . S
H1560 C1586 0.950 . S
H1561 C1588 0.950 . S
H1562 C1591 0.950 . S
H1563 C1592 0.950 . S
H1564 C1594 0.950 . S
H1565 C1595 0.950 . S
C1566 H1548 0.951 . S
C1566 C1567 1.366 . S
C1566 C1568 1.388 . S
C1567 C1566 1.366 . S
C1567 C1571 1.385 . S
C1568 H1549 0.951 . S
C1568 C1566 1.388 . S
C1568 C1569 1.366 . S
C1569 C1568 1.366 . S
C1569 C1570 1.414 . S
C1569 C1572 1.499 . S
C1570 H1550 0.950 . S
C1570 C1569 1.414 . S
C1570 C1571 1.374 . S
C1571 H1551 0.950 . S
C1571 C1567 1.385 . S
C1571 C1570 1.374 . S
C1572 C1569 1.499 . S
C1572 C1573 1.373 . S
C1572 C1574 1.389 . S
C1573 H1552 0.950 . S
C1573 C1572 1.373 . S
C1573 C1589 1.377 . S
C1574 C1572 1.389 . S
C1574 C1575 1.524 . S
C1574 C1588 1.377 . S
C1575 C1574 1.524 . S
C1575 C1576 1.397 . S
C1575 C1580 1.363 . S
C1576 H1553 0.950 . S
C1576 C1575 1.397 . S
C1576 C1577 1.334 . S
C1577 H1554 0.950 . S
C1577 C1576 1.334 . S
C1577 C1578 1.287 . S
C1578 C1577 1.287 . S
C1578 C1579 1.524 . S
C1578 H1597 0.913 . S
C1579 H1555 0.950 . S
C1579 C1578 1.524 . S
C1579 C1580 1.415 . S
C1580 H1556 0.950 . S
C1580 C1575 1.363 . S
C1580 C1579 1.415 . S
C1581 H1557 0.951 . S
C1581 C1582 1.366 . S
C1581 C1583 1.388 . S
C1582 C1581 1.366 . S
C1582 C1586 1.385 . S
C1583 H1558 0.951 . S
C1583 C1581 1.388 . S
C1583 C1584 1.366 . S
C1584 C1583 1.366 . S
C1584 C1585 1.414 . S
C1584 C1587 1.499 . S
C1585 H1559 0.950 . S
C1585 C1584 1.414 . S
C1585 C1586 1.374 . S
C1586 H1560 0.950 . S
C1586 C1582 1.385 . S
C1586 C1585 1.374 . S
C1587 C1584 1.499 . S
C1587 C1588 1.373 . S
C1587 C1589 1.389 . S
C1588 H1561 0.950 . S
C1588 C1574 1.377 . S
C1588 C1587 1.373 . S
C1589 C1573 1.377 . S
C1589 C1587 1.389 . S
C1589 C1590 1.524 . S
C1590 C1589 1.524 . S
C1590 C1591 1.397 . S
C1590 C1595 1.363 . S
C1591 H1562 0.950 . S
C1591 C1590 1.397 . S
C1591 C1592 1.334 . S
C1592 H1563 0.950 . S
C1592 C1591 1.334 . S
C1592 C1593 1.287 . S
C1593 C1592 1.287 . S
C1593 C1594 1.524 . S
C1593 H1596 0.999 . S
C1594 H1564 0.950 . S
C1594 C1593 1.524 . S
C1594 C1595 1.415 . S
C1595 H1565 0.950 . S
C1595 C1590 1.363 . S
C1595 C1594 1.415 . S
H1596 C1593 0.999 . S
H1597 C1578 0.913 . S
H1598 C1616 0.951 . S
H1599 C1618 0.951 . S
H1600 C1620 0.950 . S
H1601 C1621 0.950 . S
H1602 C1623 0.950 . S
H1603 C1626 0.950 . S
H1604 C1627 0.950 . S
H1605 C1629 0.950 . S
H1606 C1630 0.950 . S
H1607 C1631 0.951 . S
H1608 C1633 0.951 . S
H1609 C1635 0.950 . S
H1610 C1636 0.950 . S
H1611 C1638 0.950 . S
H1612 C1641 0.950 . S
H1613 C1642 0.950 . S
H1614 C1644 0.950 . S
H1615 C1645 0.950 . S
C1616 H1598 0.951 . S
C1616 C1617 1.366 . S
C1616 C1618 1.388 . S
C1617 C1616 1.366 . S
C1617 C1621 1.385 . S
C1618 H1599 0.951 . S
C1618 C1616 1.388 . S
C1618 C1619 1.366 . S
C1619 C1618 1.366 . S
C1619 C1620 1.414 . S
C1619 C1622 1.499 . S
C1620 H1600 0.950 . S
C1620 C1619 1.414 . S
C1620 C1621 1.374 . S
C1621 H1601 0.950 . S
C1621 C1617 1.385 . S
C1621 C1620 1.374 . S
C1622 C1619 1.499 . S
C1622 C1623 1.373 . S
C1622 C1624 1.389 . S
C1623 H1602 0.950 . S
C1623 C1622 1.373 . S
C1623 C1639 1.377 . S
C1624 C1622 1.389 . S
C1624 C1625 1.524 . S
C1624 C1638 1.377 . S
C1625 C1624 1.524 . S
C1625 C1626 1.397 . S
C1625 C1630 1.363 . S
C1626 H1603 0.950 . S
C1626 C1625 1.397 . S
C1626 C1627 1.334 . S
C1627 H1604 0.950 . S
C1627 C1626 1.334 . S
C1627 C1628 1.287 . S
C1628 C1627 1.287 . S
C1628 C1629 1.524 . S
C1628 H1647 0.913 . S
C1629 H1605 0.950 . S
C1629 C1628 1.524 . S
C1629 C1630 1.415 . S
C1630 H1606 0.950 . S
C1630 C1625 1.363 . S
C1630 C1629 1.415 . S
C1631 H1607 0.951 . S
C1631 C1632 1.366 . S
C1631 C1633 1.388 . S
C1632 C1631 1.366 . S
C1632 C1636 1.385 . S
C1633 H1608 0.951 . S
C1633 C1631 1.388 . S
C1633 C1634 1.366 . S
C1634 C1633 1.366 . S
C1634 C1635 1.414 . S
C1634 C1637 1.499 . S
C1635 H1609 0.950 . S
C1635 C1634 1.414 . S
C1635 C1636 1.374 . S
C1636 H1610 0.950 . S
C1636 C1632 1.385 . S
C1636 C1635 1.374 . S
C1637 C1634 1.499 . S
C1637 C1638 1.373 . S
C1637 C1639 1.389 . S
C1638 H1611 0.950 . S
C1638 C1624 1.377 . S
C1638 C1637 1.373 . S
C1639 C1623 1.377 . S
C1639 C1637 1.389 . S
C1639 C1640 1.524 . S
C1640 C1639 1.524 . S
C1640 C1641 1.397 . S
C1640 C1645 1.363 . S
C1641 H1612 0.950 . S
C1641 C1640 1.397 . S
C1641 C1642 1.334 . S
C1642 H1613 0.950 . S
C1642 C1641 1.334 . S
C1642 C1643 1.287 . S
C1643 C1642 1.287 . S
C1643 C1644 1.524 . S
C1643 H1646 0.999 . S
C1644 H1614 0.950 . S
C1644 C1643 1.524 . S
C1644 C1645 1.415 . S
C1645 H1615 0.950 . S
C1645 C1640 1.363 . S
C1645 C1644 1.415 . S
H1646 C1643 0.999 . S
H1647 C1628 0.913 . S
H1648 C1666 0.951 . S
H1649 C1668 0.951 . S
H1650 C1670 0.950 . S
H1651 C1671 0.950 . S
H1652 C1673 0.950 . S
H1653 C1676 0.950 . S
H1654 C1677 0.950 . S
H1655 C1679 0.950 . S
H1656 C1680 0.950 . S
H1657 C1681 0.951 1_455 S
H1658 C1683 0.951 . S
H1659 C1685 0.950 . S
H1660 C1686 0.950 . S
H1661 C1688 0.950 . S
H1662 C1691 0.950 . S
H1663 C1692 0.950 . S
H1664 C1694 0.950 . S
H1665 C1695 0.950 . S
C1666 H1648 0.951 . S
C1666 C1667 1.366 . S
C1666 C1668 1.388 . S
C1667 C1666 1.366 . S
C1667 C1671 1.385 . S
C1668 H1649 0.951 . S
C1668 C1666 1.388 . S
C1668 C1669 1.366 . S
C1669 C1668 1.366 . S
C1669 C1670 1.414 . S
C1669 C1672 1.499 . S
C1670 H1650 0.950 . S
C1670 C1669 1.414 . S
C1670 C1671 1.374 . S
C1671 H1651 0.950 . S
C1671 C1667 1.385 . S
C1671 C1670 1.374 . S
C1672 C1669 1.499 . S
C1672 C1673 1.373 . S
C1672 C1674 1.389 . S
C1673 H1652 0.950 . S
C1673 C1672 1.373 . S
C1673 C1689 1.377 . S
C1674 C1672 1.389 . S
C1674 C1675 1.524 . S
C1674 C1688 1.377 . S
C1675 C1674 1.524 . S
C1675 C1676 1.397 . S
C1675 C1680 1.363 . S
C1676 H1653 0.950 . S
C1676 C1675 1.397 . S
C1676 C1677 1.334 . S
C1677 H1654 0.950 . S
C1677 C1676 1.334 . S
C1677 C1678 1.287 . S
C1678 C1677 1.287 . S
C1678 C1679 1.524 . S
C1678 H1697 0.913 . S
C1679 H1655 0.950 . S
C1679 C1678 1.524 . S
C1679 C1680 1.415 . S
C1680 H1656 0.950 . S
C1680 C1675 1.363 . S
C1680 C1679 1.415 . S
C1681 H1657 0.951 1_655 S
C1681 C1682 1.366 . S
C1681 C1683 1.388 . S
C1682 C1681 1.366 . S
C1682 C1686 1.385 . S
C1683 H1658 0.951 . S
C1683 C1681 1.388 . S
C1683 C1684 1.366 . S
C1684 C1683 1.366 . S
C1684 C1685 1.414 . S
C1684 C1687 1.499 . S
C1685 H1659 0.950 . S
C1685 C1684 1.414 . S
C1685 C1686 1.374 . S
C1686 H1660 0.950 . S
C1686 C1682 1.385 . S
C1686 C1685 1.374 . S
C1687 C1684 1.499 . S
C1687 C1688 1.373 . S
C1687 C1689 1.389 . S
C1688 H1661 0.950 . S
C1688 C1674 1.377 . S
C1688 C1687 1.373 . S
C1689 C1673 1.377 . S
C1689 C1687 1.389 . S
C1689 C1690 1.524 . S
C1690 C1689 1.524 . S
C1690 C1691 1.397 . S
C1690 C1695 1.363 . S
C1691 H1662 0.950 . S
C1691 C1690 1.397 . S
C1691 C1692 1.334 . S
C1692 H1663 0.950 . S
C1692 C1691 1.334 . S
C1692 C1693 1.287 . S
C1693 C1692 1.287 . S
C1693 C1694 1.524 1_655 S
C1693 H1696 0.999 . S
C1694 H1664 0.950 . S
C1694 C1693 1.524 1_455 S
C1694 C1695 1.415 1_455 S
C1695 H1665 0.950 . S
C1695 C1690 1.363 . S
C1695 C1694 1.415 1_655 S
H1696 C1693 0.999 . S
H1697 C1678 0.913 . S
H1698 C1716 0.951 . S
H1699 C1718 0.951 . S
H1700 C1720 0.950 . S
H1701 C1721 0.950 . S
H1702 C1723 0.950 . S
H1703 C1726 0.950 . S
H1704 C1727 0.950 . S
H1705 C1729 0.950 . S
H1706 C1730 0.950 . S
H1707 C1731 0.951 . S
H1708 C1733 0.951 . S
H1709 C1735 0.950 . S
H1710 C1736 0.950 . S
H1711 C1738 0.950 . S
H1712 C1741 0.950 . S
H1713 C1742 0.950 . S
H1714 C1744 0.950 . S
H1715 C1745 0.950 . S
C1716 H1698 0.951 . S
C1716 C1717 1.366 . S
C1716 C1718 1.388 . S
C1717 C1716 1.366 . S
C1717 C1721 1.385 . S
C1718 H1699 0.951 . S
C1718 C1716 1.388 . S
C1718 C1719 1.366 . S
C1719 C1718 1.366 . S
C1719 C1720 1.414 . S
C1719 C1722 1.499 . S
C1720 H1700 0.950 . S
C1720 C1719 1.414 . S
C1720 C1721 1.374 . S
C1721 H1701 0.950 . S
C1721 C1717 1.385 . S
C1721 C1720 1.374 . S
C1722 C1719 1.499 . S
C1722 C1723 1.373 . S
C1722 C1724 1.389 . S
C1723 H1702 0.950 . S
C1723 C1722 1.373 . S
C1723 C1739 1.377 . S
C1724 C1722 1.389 . S
C1724 C1725 1.524 . S
C1724 C1738 1.377 . S
C1725 C1724 1.524 . S
C1725 C1726 1.397 . S
C1725 C1730 1.363 . S
C1726 H1703 0.950 . S
C1726 C1725 1.397 . S
C1726 C1727 1.334 . S
C1727 H1704 0.950 . S
C1727 C1726 1.334 . S
C1727 C1728 1.287 . S
C1728 C1727 1.287 . S
C1728 C1729 1.524 . S
C1728 H1747 0.913 . S
C1729 H1705 0.950 . S
C1729 C1728 1.524 . S
C1729 C1730 1.415 . S
C1730 H1706 0.950 . S
C1730 C1725 1.363 . S
C1730 C1729 1.415 . S
C1731 H1707 0.951 . S
C1731 C1732 1.366 . S
C1731 C1733 1.388 . S
C1732 C1731 1.366 . S
C1732 C1736 1.385 . S
C1733 H1708 0.951 . S
C1733 C1731 1.388 . S
C1733 C1734 1.366 . S
C1734 C1733 1.366 . S
C1734 C1735 1.414 . S
C1734 C1737 1.499 . S
C1735 H1709 0.950 . S
C1735 C1734 1.414 . S
C1735 C1736 1.374 . S
C1736 H1710 0.950 . S
C1736 C1732 1.385 . S
C1736 C1735 1.374 . S
C1737 C1734 1.499 . S
C1737 C1738 1.373 . S
C1737 C1739 1.389 . S
C1738 H1711 0.950 . S
C1738 C1724 1.377 . S
C1738 C1737 1.373 . S
C1739 C1723 1.377 . S
C1739 C1737 1.389 . S
C1739 C1740 1.524 . S
C1740 C1739 1.524 . S
C1740 C1741 1.397 . S
C1740 C1745 1.363 . S
C1741 H1712 0.950 . S
C1741 C1740 1.397 . S
C1741 C1742 1.334 . S
C1742 H1713 0.950 . S
C1742 C1741 1.334 . S
C1742 C1743 1.287 . S
C1743 C1742 1.287 . S
C1743 C1744 1.524 . S
C1743 H1746 0.999 . S
C1744 H1714 0.950 . S
C1744 C1743 1.524 . S
C1744 C1745 1.415 . S
C1745 H1715 0.950 . S
C1745 C1740 1.363 . S
C1745 C1744 1.415 . S
H1746 C1743 0.999 . S
H1747 C1728 0.913 . S
H1748 C1766 0.951 . S
H1749 C1768 0.951 . S
H1750 C1770 0.950 . S
H1751 C1771 0.950 . S
H1752 C1773 0.950 . S
H1753 C1776 0.950 . S
H1754 C1777 0.950 . S
H1755 C1779 0.950 . S
H1756 C1780 0.950 . S
H1757 C1781 0.951 . S
H1758 C1783 0.951 . S
H1759 C1785 0.950 . S
H1760 C1786 0.950 . S
H1761 C1788 0.950 . S
H1762 C1791 0.950 . S
H1763 C1792 0.950 . S
H1764 C1794 0.950 . S
H1765 C1795 0.950 . S
C1766 H1748 0.951 . S
C1766 C1767 1.366 . S
C1766 C1768 1.388 . S
C1767 C1766 1.366 . S
C1767 C1771 1.385 . S
C1768 H1749 0.951 . S
C1768 C1766 1.388 . S
C1768 C1769 1.366 . S
C1769 C1768 1.366 . S
C1769 C1770 1.414 . S
C1769 C1772 1.499 . S
C1770 H1750 0.950 . S
C1770 C1769 1.414 . S
C1770 C1771 1.374 . S
C1771 H1751 0.950 . S
C1771 C1767 1.385 . S
C1771 C1770 1.374 . S
C1772 C1769 1.499 . S
C1772 C1773 1.373 . S
C1772 C1774 1.389 . S
C1773 H1752 0.950 . S
C1773 C1772 1.373 . S
C1773 C1789 1.377 . S
C1774 C1772 1.389 . S
C1774 C1775 1.524 . S
C1774 C1788 1.377 . S
C1775 C1774 1.524 . S
C1775 C1776 1.397 . S
C1775 C1780 1.363 . S
C1776 H1753 0.950 . S
C1776 C1775 1.397 . S
C1776 C1777 1.334 . S
C1777 H1754 0.950 . S
C1777 C1776 1.334 . S
C1777 C1778 1.287 . S
C1778 C1777 1.287 . S
C1778 C1779 1.524 . S
C1778 H1797 0.913 . S
C1779 H1755 0.950 . S
C1779 C1778 1.524 . S
C1779 C1780 1.415 . S
C1780 H1756 0.950 . S
C1780 C1775 1.363 . S
C1780 C1779 1.415 . S
C1781 H1757 0.951 . S
C1781 C1782 1.366 . S
C1781 C1783 1.388 . S
C1782 C1781 1.366 . S
C1782 C1786 1.385 . S
C1783 H1758 0.951 . S
C1783 C1781 1.388 . S
C1783 C1784 1.366 . S
C1784 C1783 1.366 . S
C1784 C1785 1.414 . S
C1784 C1787 1.499 . S
C1785 H1759 0.950 . S
C1785 C1784 1.414 . S
C1785 C1786 1.374 . S
C1786 H1760 0.950 . S
C1786 C1782 1.385 . S
C1786 C1785 1.374 . S
C1787 C1784 1.499 . S
C1787 C1788 1.373 . S
C1787 C1789 1.389 . S
C1788 H1761 0.950 . S
C1788 C1774 1.377 . S
C1788 C1787 1.373 . S
C1789 C1773 1.377 . S
C1789 C1787 1.389 . S
C1789 C1790 1.524 . S
C1790 C1789 1.524 . S
C1790 C1791 1.397 . S
C1790 C1795 1.363 . S
C1791 H1762 0.950 . S
C1791 C1790 1.397 . S
C1791 C1792 1.334 . S
C1792 H1763 0.950 . S
C1792 C1791 1.334 . S
C1792 C1793 1.287 . S
C1793 C1792 1.287 . S
C1793 C1794 1.524 . S
C1793 H1796 0.999 . S
C1794 H1764 0.950 . S
C1794 C1793 1.524 . S
C1794 C1795 1.415 . S
C1795 H1765 0.950 . S
C1795 C1790 1.363 . S
C1795 C1794 1.415 . S
H1796 C1793 0.999 . S
H1797 C1778 0.913 . S
H1798 C1816 0.951 . S
H1799 C1818 0.951 . S
H1800 C1820 0.950 . S
H1801 C1821 0.950 . S
H1802 C1823 0.950 . S
H1803 C1826 0.950 . S
H1804 C1827 0.950 . S
H1805 C1829 0.950 . S
H1806 C1830 0.950 . S
H1807 C1831 0.951 . S
H1808 C1833 0.951 . S
H1809 C1835 0.950 . S
H1810 C1836 0.950 . S
H1811 C1838 0.950 . S
H1812 C1841 0.950 . S
H1813 C1842 0.950 . S
H1814 C1844 0.950 . S
H1815 C1845 0.950 . S
C1816 H1798 0.951 . S
C1816 C1817 1.366 . S
C1816 C1818 1.388 . S
C1817 C1816 1.366 . S
C1817 C1821 1.385 . S
C1818 H1799 0.951 . S
C1818 C1816 1.388 . S
C1818 C1819 1.366 . S
C1819 C1818 1.366 . S
C1819 C1820 1.414 . S
C1819 C1822 1.499 . S
C1820 H1800 0.950 . S
C1820 C1819 1.414 . S
C1820 C1821 1.374 . S
C1821 H1801 0.950 . S
C1821 C1817 1.385 . S
C1821 C1820 1.374 . S
C1822 C1819 1.499 . S
C1822 C1823 1.373 . S
C1822 C1824 1.389 . S
C1823 H1802 0.950 . S
C1823 C1822 1.373 . S
C1823 C1839 1.377 . S
C1824 C1822 1.389 . S
C1824 C1825 1.524 . S
C1824 C1838 1.377 . S
C1825 C1824 1.524 . S
C1825 C1826 1.397 . S
C1825 C1830 1.363 . S
C1826 H1803 0.950 . S
C1826 C1825 1.397 . S
C1826 C1827 1.334 . S
C1827 H1804 0.950 . S
C1827 C1826 1.334 . S
C1827 C1828 1.287 . S
C1828 C1827 1.287 . S
C1828 C1829 1.524 . S
C1828 H1847 0.913 . S
C1829 H1805 0.950 . S
C1829 C1828 1.524 . S
C1829 C1830 1.415 . S
C1830 H1806 0.950 . S
C1830 C1825 1.363 . S
C1830 C1829 1.415 . S
C1831 H1807 0.951 . S
C1831 C1832 1.366 . S
C1831 C1833 1.388 . S
C1832 C1831 1.366 . S
C1832 C1836 1.385 . S
C1833 H1808 0.951 . S
C1833 C1831 1.388 . S
C1833 C1834 1.366 . S
C1834 C1833 1.366 . S
C1834 C1835 1.414 . S
C1834 C1837 1.499 . S
C1835 H1809 0.950 . S
C1835 C1834 1.414 . S
C1835 C1836 1.374 . S
C1836 H1810 0.950 . S
C1836 C1832 1.385 . S
C1836 C1835 1.374 . S
C1837 C1834 1.499 . S
C1837 C1838 1.373 . S
C1837 C1839 1.389 . S
C1838 H1811 0.950 . S
C1838 C1824 1.377 . S
C1838 C1837 1.373 . S
C1839 C1823 1.377 . S
C1839 C1837 1.389 . S
C1839 C1840 1.524 . S
C1840 C1839 1.524 . S
C1840 C1841 1.397 . S
C1840 C1845 1.363 . S
C1841 H1812 0.950 . S
C1841 C1840 1.397 . S
C1841 C1842 1.334 . S
C1842 H1813 0.950 . S
C1842 C1841 1.334 . S
C1842 C1843 1.287 . S
C1843 C1842 1.287 . S
C1843 C1844 1.524 . S
C1843 H1846 0.999 . S
C1844 H1814 0.950 . S
C1844 C1843 1.524 . S
C1844 C1845 1.415 . S
C1845 H1815 0.950 . S
C1845 C1840 1.363 . S
C1845 C1844 1.415 . S
H1846 C1843 0.999 . S
H1847 C1828 0.913 . S
C667 C255 2.063 . S
C682 C387 2.116 . S
C732 C471 2.157 . S
C717 C294 2.093 . S
C782 C547 2.115 . S
C767 C177 2.226 . S
C832 C631 2.095 . S
C817 C216 2.207 . S
C882 C378 2.116 1_565 S
C867 C99 2.076 . S
C917 C138 2.079 . S
C932 C462 2.157 . S
C967 C21 2.240 . S
C982 C536 2.115 . S
C1017 C60 2.221 . S
C1032 C620 2.095 . S
C1082 C375 0.423 1_455 S
C1067 C196 0.456 . S
C1132 C459 0.400 1_545 S
C1117 C235 0.421 . S
C1182 C552 0.442 . S
C1167 C289 0.419 . S
C1217 C157 0.445 . S
C1232 C636 0.450 . S
C1267 C40 0.440 . S
C1282 C384 0.424 . S
C1332 C468 0.400 . S
C1317 C79 0.404 . S
C1382 C543 0.445 . S
C1367 C133 0.404 . S
C1417 C1 0.426 . S
C1432 C627 0.453 . S
C1467 C211 2.592 . S
C1482 C368 2.703 . S
C1517 C250 2.541 . S
C1532 C452 2.651 . S
C1582 C546 2.664 . S
C1567 C274 2.426 . S
C1632 C630 2.699 . S
C1617 C172 2.451 . S
C1667 C55 2.590 . S
C1682 C379 2.704 . S
C1732 C463 2.651 . S
C1717 C94 2.538 . S
C1782 C555 2.665 . S
C1767 C118 2.420 . S
C1817 C16 2.448 . S
C1832 C639 2.699 . S
