# Generated by pormake.
# Topology zzz, (3,6)-cn, num edge types: 1
# Building blocks:
#     Node 0, Type 0, BuildingBlock: CUQRIR_clean_linker_1, # of connection points: 3
#     Node 1, Type 0, BuildingBlock: CUQRIR_clean_linker_1, # of connection points: 3
#     Node 2, Type 0, BuildingBlock: CUQRIR_clean_linker_1, # of connection points: 3
#     Node 3, Type 0, BuildingBlock: CUQRIR_clean_linker_1, # of connection points: 3
#     Node 4, Type 0, BuildingBlock: CUQRIR_clean_linker_1, # of connection points: 3
#     Node 5, Type 0, BuildingBlock: CUQRIR_clean_linker_1, # of connection points: 3
#     Node 6, Type 0, BuildingBlock: CUQRIR_clean_linker_1, # of connection points: 3
#     Node 7, Type 0, BuildingBlock: CUQRIR_clean_linker_1, # of connection points: 3
#     Node 8, Type 1, BuildingBlock: INOVEN_clean_sbu_0, # of connection points: 6
#     Node 9, Type 1, BuildingBlock: INOVEN_clean_sbu_0, # of connection points: 6
#     Node 10, Type 1, BuildingBlock: INOVEN_clean_sbu_0, # of connection points: 6
#     Node 11, Type 1, BuildingBlock: INOVEN_clean_sbu_0, # of connection points: 6
#     Edge 12, Type (0, 1), BuildingBlock: XUDNAN_clean_linker_2, # of connection points: 2
#     Edge 13, Type (0, 1), BuildingBlock: XUDNAN_clean_linker_2, # of connection points: 2
#     Edge 14, Type (0, 1), BuildingBlock: XUDNAN_clean_linker_2, # of connection points: 2
#     Edge 15, Type (0, 1), BuildingBlock: XUDNAN_clean_linker_2, # of connection points: 2
#     Edge 16, Type (0, 1), BuildingBlock: XUDNAN_clean_linker_2, # of connection points: 2
#     Edge 17, Type (0, 1), BuildingBlock: XUDNAN_clean_linker_2, # of connection points: 2
#     Edge 18, Type (0, 1), BuildingBlock: XUDNAN_clean_linker_2, # of connection points: 2
#     Edge 19, Type (0, 1), BuildingBlock: XUDNAN_clean_linker_2, # of connection points: 2
#     Edge 20, Type (0, 1), BuildingBlock: XUDNAN_clean_linker_2, # of connection points: 2
#     Edge 21, Type (0, 1), BuildingBlock: XUDNAN_clean_linker_2, # of connection points: 2
#     Edge 22, Type (0, 1), BuildingBlock: XUDNAN_clean_linker_2, # of connection points: 2
#     Edge 23, Type (0, 1), BuildingBlock: XUDNAN_clean_linker_2, # of connection points: 2
#     Edge 24, Type (0, 1), BuildingBlock: XUDNAN_clean_linker_2, # of connection points: 2
#     Edge 25, Type (0, 1), BuildingBlock: XUDNAN_clean_linker_2, # of connection points: 2
#     Edge 26, Type (0, 1), BuildingBlock: XUDNAN_clean_linker_2, # of connection points: 2
#     Edge 27, Type (0, 1), BuildingBlock: XUDNAN_clean_linker_2, # of connection points: 2
#     Edge 28, Type (0, 1), BuildingBlock: XUDNAN_clean_linker_2, # of connection points: 2
#     Edge 29, Type (0, 1), BuildingBlock: XUDNAN_clean_linker_2, # of connection points: 2
#     Edge 30, Type (0, 1), BuildingBlock: XUDNAN_clean_linker_2, # of connection points: 2
#     Edge 31, Type (0, 1), BuildingBlock: XUDNAN_clean_linker_2, # of connection points: 2
#     Edge 32, Type (0, 1), BuildingBlock: XUDNAN_clean_linker_2, # of connection points: 2
#     Edge 33, Type (0, 1), BuildingBlock: XUDNAN_clean_linker_2, # of connection points: 2
#     Edge 34, Type (0, 1), BuildingBlock: XUDNAN_clean_linker_2, # of connection points: 2
#     Edge 35, Type (0, 1), BuildingBlock: XUDNAN_clean_linker_2, # of connection points: 2
# Relax obj value: 0.299
# Max RMSD: 0.191
# Mean RMSD: 0.157
data_MOF--net-zzz--node1-INOVEN_clean_sbu_0--node2-CUQRIR_clean_linker_1--edge1-XUDNAN_clean_linker_2
_symmetry_space_group_name_H-M    P1
_symmetry_Int_Tables_number       1
_symmetry_cell_setting            triclinic
loop_
_symmetry_equiv_pos_as_xyz
'x, y, z'
_cell_length_a     48.070255
_cell_length_b     48.20739
_cell_length_c     12.240715
_cell_angle_alpha  89.891119
_cell_angle_beta   89.70253
_cell_angle_gamma 90.1312
loop_
_atom_site_label
_atom_site_type_symbol
_atom_site_fract_x
_atom_site_fract_y
_atom_site_fract_z
_atom_type_partial_charge
C0 C 0.74134 0.5378 0.49581 0.0
N1 N 0.76904 0.53387 0.46805 0.0
N2 N 0.7248 0.5409 0.40485 0.0
C3 C 0.73022 0.5381 0.61041 0.0
C4 C 0.74352 0.53982 0.32303 0.0
N5 N 0.76917 0.53299 0.35843 0.0
C6 C 0.73666 0.5452 0.20463 0.0
H7 H 0.729 0.51649 0.64147 0.0
H8 H 0.70906 0.54722 0.61326 0.0
H9 H 0.74434 0.55002 0.66433 0.0
H10 H 0.72034 0.56137 0.19807 0.0
H11 H 0.72862 0.52606 0.16587 0.0
H12 H 0.75555 0.55197 0.15923 0.0
C13 C 0.0302 0.73801 0.53871 0.0
N14 N 1.02115 0.76479 0.52343 0.0
N15 N 1.01759 0.71965 0.46779 0.0
C16 C 0.05323 0.73031 0.61464 0.0
C17 C 1.00059 0.73665 0.41085 0.0
N18 N 1.00523 0.76365 0.43499 0.0
C19 C 0.98429 0.72778 0.31153 0.0
H20 H 0.07341 0.73608 0.57647 0.0
H21 H 0.05307 0.70766 0.63127 0.0
H22 H 0.05117 0.74204 0.69219 0.0
H23 H 0.96888 0.71166 0.33483 0.0
H24 H 0.99854 0.71893 0.24906 0.0
H25 H 0.97284 0.74549 0.27534 0.0
C26 C 0.81475 1.00912 0.51464 0.0
N27 N 0.78665 1.01264 0.49903 0.0
N28 N 0.82869 1.00609 0.4169 0.0
C29 C 0.82866 1.011 0.6235 0.0
C30 C 0.80774 1.00702 0.34406 0.0
N31 N 0.78312 1.01387 0.39115 0.0
C32 C 0.8109 0.99883 0.22574 0.0
H33 H 0.8311 0.03319 0.64543 0.0
H34 H 0.84954 1.00124 0.62098 0.0
H35 H 0.81555 1.00098 0.68727 0.0
H36 H 0.82384 0.97984 0.21989 0.0
H37 H 0.82175 1.01527 0.17851 0.0
H38 H 0.79027 0.9949 0.18837 0.0
C39 C 0.52685 0.81081 0.53863 0.0
N40 N 0.5308 0.78291 0.51876 0.0
N41 N 0.52731 0.82629 0.44332 0.0
C42 C 0.52335 0.82298 0.65003 0.0
C43 C 0.5305 0.80669 0.36745 0.0
N44 N 0.53675 0.78206 0.41297 0.0
C45 C 0.51802 0.81059 0.25563 0.0
H46 H 0.50099 0.82733 0.66455 0.0
H47 H 0.53484 0.84293 0.65537 0.0
H48 H 0.53081 0.80833 0.71349 0.0
H49 H 0.53431 0.81716 0.19653 0.0
H50 H 0.50205 0.8272 0.25755 0.0
H51 H 0.50757 0.79134 0.22807 0.0
C52 C 0.31482 0.51171 0.01496 0.0
N53 N 0.28691 0.51294 0.04105 0.0
N54 N 0.33098 0.50771 0.10656 0.0
C55 C 0.32651 0.51625 0.90281 0.0
C56 C 0.31195 0.50725 0.1876 0.0
N57 N 0.28615 0.51218 0.14962 0.0
C58 C 0.31905 0.50554 0.30773 0.0
H59 H 0.34276 0.50051 0.88563 0.0
H60 H 0.33662 0.53696 0.89947 0.0
H61 H 0.30998 0.51525 0.84 0.0
H62 H 0.33267 0.5232 0.33059 0.0
H63 H 0.33055 0.4861 0.32425 0.0
H64 H 0.30018 0.50554 0.36028 0.0
C65 C 0.03884 0.31625 0.01982 0.0
N66 N 0.03667 0.28812 0.04086 0.0
N67 N 0.03784 0.3318 0.11491 0.0
C68 C 0.04034 0.32859 0.90775 0.0
C69 C 0.03425 0.31212 0.19228 0.0
N70 N 0.03268 0.28649 0.14806 0.0
C71 C 0.0271 0.31837 0.31008 0.0
H72 H 0.05254 0.31497 0.85246 0.0
H73 H 0.04971 0.34965 0.91049 0.0
H74 H 1.01895 0.33034 0.87482 0.0
H75 H 1.00421 0.32066 0.31805 0.0
H76 H 0.03702 0.33779 0.33846 0.0
H77 H 0.03387 0.30136 0.36464 0.0
C78 C 0.23484 0.02999 0.99594 0.0
N79 N 0.26262 0.03417 0.01969 0.0
N80 N 0.21807 0.03471 0.08603 0.0
C81 C 0.22387 1.02178 0.88651 0.0
C82 C 0.23641 0.04206 0.16325 0.0
N83 N 0.26255 0.0415 0.1243 0.0
C84 C 0.22907 0.04734 0.28158 0.0
H85 H 0.20711 0.03633 0.86241 0.0
H86 H 0.21449 1.00078 0.8924 0.0
H87 H 0.24051 1.0219 0.82339 0.0
H88 H 0.22794 0.02718 0.3254 0.0
H89 H 0.20859 0.05773 0.28918 0.0
H90 H 0.24509 0.06035 0.32166 0.0
C91 C 0.50274 0.23941 0.05685 0.0
N92 N 0.51865 0.26139 0.0212 0.0
N93 N 0.51853 0.21878 0.10366 0.0
C94 C 0.47168 0.23829 0.04806 0.0
C95 C 0.54462 0.22932 0.09411 0.0
N96 N 0.5446 0.25516 0.04929 0.0
C97 C 0.56963 0.21702 0.15014 0.0
H98 H 0.46223 0.24823 0.12088 0.0
H99 H 0.46444 0.21643 0.04437 0.0
H100 H 0.46473 0.24974 0.97435 0.0
H101 H 0.5734 0.19576 0.11933 0.0
H102 H 0.56567 0.2157 0.23942 0.0
H103 H 0.58871 0.22948 0.13509 0.0
Gd104 Gd 0.05439 0.02528 0.84347 0.0
Gd105 Gd 1.00419 0.02807 0.68906 0.0
C106 C 0.0302 0.96623 0.73339 0.0
C107 C 0.08376 1.01276 0.00883 0.0
C108 C 0.07928 0.98585 0.06049 0.0
C109 C 0.10157 0.96796 0.08175 0.0
C110 C 0.05225 0.97512 0.05602 0.0
C111 C 0.06922 0.92927 0.09784 0.0
C112 C 0.04737 0.94721 0.07122 0.0
C113 C 0.09652 0.9398 0.10298 0.0
C114 C 0.07462 0.03405 0.63652 0.0
C115 C 0.0288 0.08745 0.79711 0.0
C116 C 0.97544 0.03489 0.51489 0.0
C117 C 0.97139 0.06042 0.45259 0.0
C118 C 0.94518 0.07316 0.4565 0.0
C119 C 0.99457 0.07547 0.41482 0.0
C120 C 0.96636 0.11684 0.4064 0.0
C121 C 0.99203 0.10353 0.39173 0.0
C122 C 0.94271 0.10136 0.43434 0.0
C123 C 0.9827 1.01897 0.89439 0.0
O124 O 0.04695 0.97849 0.80548 0.0
O125 O 1.01257 0.98136 0.67539 0.0
O126 O 0.09325 1.01034 0.9093 0.0
O127 O 0.063 0.03036 0.01658 0.0
O128 O 0.08978 0.03274 0.72312 0.0
O129 O 0.04936 0.03182 0.66645 0.0
O130 O 1.01228 0.07503 0.7236 0.0
O131 O 0.04621 0.07228 0.85707 0.0
O132 O 0.96472 0.0359 0.61304 0.0
O133 O 1.00044 1.02411 0.51325 0.0
O134 O 0.96836 1.02152 0.80611 0.0
O135 O 1.00853 1.02134 0.86907 0.0
H136 H 0.12278 0.97561 0.07937 0.0
H137 H 0.03501 0.98801 0.03156 0.0
H138 H 1.02635 0.93968 0.05966 0.0
H139 H 0.11386 0.92642 0.12265 0.0
H140 H 0.92706 0.06184 0.48524 0.0
H141 H 1.01505 0.0662 0.41072 0.0
H142 H 1.01037 0.11507 0.36662 0.0
H143 H 0.92265 0.11128 0.44404 0.0
Gd144 Gd 0.52807 0.03896 0.84425 0.0
Gd145 Gd 0.52694 1.00007 0.71968 0.0
C146 C 0.58874 1.01985 0.73561 0.0
C147 C 0.54488 0.07378 0.98692 0.0
C148 C 0.57367 0.07983 0.01547 0.0
C149 C 0.58354 0.10722 0.01108 0.0
C150 C 0.59224 0.05796 0.03432 0.0
C151 C 0.62958 0.09102 0.05526 0.0
C152 C 0.62005 0.06353 0.05298 0.0
C153 C 0.61148 0.11287 0.03219 0.0
C154 C 0.5115 0.06303 0.65215 0.0
C155 C 0.46598 1.02052 0.82132 0.0
C156 C 0.5092 0.96362 0.58666 0.0
C157 C 0.4835 0.969 0.52907 0.0
C158 C 0.46487 0.9481 0.4971 0.0
C159 C 0.47667 0.9968 0.51478 0.0
C160 C 0.43438 0.98363 0.42495 0.0
C161 C 0.45178 1.00393 0.47044 0.0
C162 C 0.44075 0.9554 0.44049 0.0
C163 C 0.54367 0.97778 0.91302 0.0
O164 O 0.57566 0.03502 0.80982 0.0
O165 O 0.5731 1.00332 0.67688 0.0
O166 O 0.53811 0.08119 0.88862 0.0
O167 O 0.53548 0.04924 0.01361 0.0
O168 O 0.49896 0.0648 0.74546 0.0
O169 O 0.5309 0.04482 0.66003 0.0
O170 O 0.47918 1.00722 0.74223 0.0
O171 O 0.48184 0.03487 0.88762 0.0
O172 O 0.50568 0.96109 0.69136 0.0
O173 O 0.52959 0.98046 0.5608 0.0
O174 O 0.55683 0.97559 0.82163 0.0
O175 O 0.52357 0.9947 0.90118 0.0
H176 H 0.56954 0.12421 0.99354 0.0
H177 H 0.58536 0.03653 0.03481 0.0
H178 H 0.63392 0.04646 0.07157 0.0
H179 H 0.61864 0.13417 0.03536 0.0
H180 H 0.46957 0.92644 0.51159 0.0
H181 H 0.49023 1.01337 0.54182 0.0
H182 H 0.44661 0.02576 0.47171 0.0
H183 H 0.42744 0.93915 0.40932 0.0
Gd184 Gd 0.4953 0.5294 0.84913 0.0
Gd185 Gd 0.54583 0.51912 0.70694 0.0
C186 C 0.52227 0.58291 0.71511 0.0
C187 C 0.46597 0.54856 0.00588 0.0
C188 C 0.47082 0.57667 0.04476 0.0
C189 C 0.44916 0.59358 0.08266 0.0
C190 C 0.4972 0.58814 0.02573 0.0
C191 C 0.4816 0.63183 0.09701 0.0
C192 C 0.50226 0.6157 0.04796 0.0
C193 C 0.45479 0.62099 0.11312 0.0
C194 C 0.4757 0.51685 0.64538 0.0
C195 C 0.51534 0.46503 0.83148 0.0
C196 C 0.57687 0.50532 0.54486 0.0
C197 C 0.5795 0.47923 0.48608 0.0
C198 C 0.60598 0.46757 0.47376 0.0
C199 C 0.5558 0.46407 0.45585 0.0
C200 C 0.58531 0.42643 0.39603 0.0
C201 C 0.55872 0.43778 0.41073 0.0
C202 C 0.60888 0.44123 0.42903 0.0
C203 C 0.56717 0.53147 0.90867 0.0
O204 O 0.50421 0.57373 0.78894 0.0
O205 O 0.54037 0.56561 0.66957 0.0
O206 O 0.45692 0.54794 0.90576 0.0
O207 O 0.48639 0.53108 0.02307 0.0
O208 O 0.46021 0.52032 0.73077 0.0
O209 O 0.50096 0.51787 0.67563 0.0
O210 O 0.53354 0.47366 0.75535 0.0
O211 O 0.49926 0.48331 0.88251 0.0
O212 O 0.58495 0.50381 0.64618 0.0
O213 O 0.55366 0.51914 0.53249 0.0
O214 O 0.5814 0.52646 0.82156 0.0
O215 O 0.54116 0.53062 0.88438 0.0
H216 H 0.42826 0.58562 0.08907 0.0
H217 H 0.5141 0.57576 0.99353 0.0
H218 H 0.52319 0.62371 0.03652 0.0
H219 H 0.43872 0.63332 0.15178 0.0
H220 H 0.62438 0.47876 0.49954 0.0
H221 H 0.53508 0.47233 0.4683 0.0
H222 H 0.54029 0.42648 0.38591 0.0
H223 H 0.6295 0.43253 0.41907 0.0
Gd224 Gd 1.02286 0.50161 0.85263 0.0
Gd225 Gd 0.02726 0.55239 0.71309 0.0
C226 C 0.96439 0.53267 0.76214 0.0
C227 C 1.00727 0.46786 0.00324 0.0
C228 C 0.97792 0.45989 0.02116 0.0
C229 C 0.96801 0.43304 0.99625 0.0
C230 C 0.95869 0.48071 0.04527 0.0
C231 C 0.92032 0.4483 0.02364 0.0
C232 C 0.93057 0.47504 0.04433 0.0
C233 C 0.93928 0.42712 0.99938 0.0
C234 C 1.02555 0.48222 0.64116 0.0
C235 C 0.08604 0.52411 0.81393 0.0
C236 C 0.03858 0.5827 0.54728 0.0
C237 C 0.06679 0.58429 0.50607 0.0
C238 C 0.07906 0.60988 0.47977 0.0
C239 C 0.08349 0.56109 0.52498 0.0
C240 C 0.12438 0.58848 0.49048 0.0
C241 C 0.11191 0.56369 0.52534 0.0
C242 C 0.10796 0.61177 0.46799 0.0
C243 C 1.02588 0.57272 0.92015 0.0
O244 O 0.97619 0.51332 0.8252 0.0
O245 O 0.98024 0.55012 0.70671 0.0
O246 O 1.01792 0.4593 0.91138 0.0
O247 O 1.0138 0.49374 0.02382 0.0
O248 O 1.02468 0.46704 0.72761 0.0
O249 O 1.02615 0.50764 0.67151 0.0
O250 O 0.07383 0.5426 0.74821 0.0
O251 O 0.07039 0.50598 0.86861 0.0
O252 O 0.03629 0.59287 0.6453 0.0
O253 O 0.02649 0.55846 0.53731 0.0
O254 O 1.02568 0.58741 0.83211 0.0
O255 O 1.02478 0.5468 0.89542 0.0
H256 H 0.98245 0.41672 0.9745 0.0
H257 H 0.96512 0.5018 0.06256 0.0
H258 H 0.91667 0.49171 0.06461 0.0
H259 H 0.93204 0.40612 0.98603 0.0
H260 H 0.06639 0.62822 0.47045 0.0
H261 H 0.07461 0.54104 0.54532 0.0
H262 H 0.12428 0.5454 0.54249 0.0
H263 H 0.11734 0.63088 0.43906 0.0
H264 H 0.19396 0.99431 0.20757 0.0
H265 H 0.17676 0.07082 0.03826 0.0
H266 H 0.13347 0.07638 0.14706 0.0
H267 H 0.11616 0.97145 0.28879 0.0
H268 H 0.13294 0.95845 0.40783 0.0
H269 H 0.15149 0.95888 0.27927 0.0
H270 H 0.18871 0.98574 0.40512 0.0
H271 H 0.16454 0.98924 0.51671 0.0
H272 H 0.17956 1.01976 0.45464 0.0
H273 H 0.09442 0.07663 0.29766 0.0
H274 H 0.06673 0.07208 0.46932 0.0
H275 H 0.11298 0.99821 0.55239 0.0
C276 C 0.17996 1.01112 0.18782 0.0
C277 C 0.18838 0.03143 0.1096 0.0
C278 C 0.17035 0.05427 0.0928 0.0
C279 C 0.14582 0.05779 0.15619 0.0
C280 C 0.13921 0.0383 0.23754 0.0
C281 C 0.15574 1.01513 0.25243 0.0
C282 C 0.14719 0.9997 0.35654 0.0
C283 C 0.13642 0.97038 0.33119 0.0
C284 C 0.17144 0.99858 0.43803 0.0
C285 C 0.1236 1.01786 0.39867 0.0
C286 C 0.11871 0.03968 0.32797 0.0
C287 C 0.09793 0.05923 0.3518 0.0
C288 C 0.08199 0.05638 0.44923 0.0
C289 C 0.08702 0.03438 0.52339 0.0
C290 C 0.10816 1.01497 0.49661 0.0
H291 H 0.53654 0.164 0.11436 0.0
H292 H 0.48373 0.22372 0.27812 0.0
H293 H 0.47613 0.19032 0.42896 0.0
H294 H 0.49649 0.10033 0.21212 0.0
H295 H 0.5287 0.08129 0.21416 0.0
H296 H 0.52413 0.1104 0.12158 0.0
H297 H 0.57089 0.13109 0.21064 0.0
H298 H 0.57152 0.10167 0.30171 0.0
H299 H 0.57085 0.13645 0.3557 0.0
H300 H 0.47584 0.15102 0.56796 0.0
H301 H 0.48109 0.10968 0.68155 0.0
H302 H 0.53655 0.07355 0.43948 0.0
C303 C 0.5232 0.17002 0.18166 0.0
C304 C 0.51044 0.19688 0.18221 0.0
C305 C 0.4931 0.20339 0.27258 0.0
C306 C 0.48901 0.18451 0.36003 0.0
C307 C 0.50245 0.15875 0.35823 0.0
C308 C 0.51908 0.15136 0.2711 0.0
C309 C 0.53099 0.12221 0.29038 0.0
C310 C 0.51948 0.10226 0.20442 0.0
C311 C 0.56296 0.12284 0.28949 0.0
C312 C 0.51954 0.11469 0.40382 0.0
C313 C 0.50272 0.13612 0.43981 0.0
C314 C 0.48896 0.13425 0.53984 0.0
C315 C 0.49218 0.11025 0.60438 0.0
C316 C 0.50935 0.08757 0.57208 0.0
C317 C 0.52333 0.09011 0.46882 0.0
H318 H 0.36621 0.46962 0.19046 0.0
H319 H 0.3602 0.55579 0.09904 0.0
H320 H 0.40104 0.56633 0.21442 0.0
H321 H 0.37765 0.48517 0.45909 0.0
H322 H 0.39976 0.45606 0.48981 0.0
H323 H 0.37486 0.45361 0.3811 0.0
H324 H 0.41398 0.44102 0.24331 0.0
H325 H 0.43902 0.44282 0.35229 0.0
H326 H 0.44394 0.46339 0.23057 0.0
H327 H 0.44443 0.56739 0.34376 0.0
H328 H 0.47478 0.56079 0.50512 0.0
H329 H 0.4472 0.47584 0.53351 0.0
C330 C 0.37497 0.4903 0.18719 0.0
C331 C 0.3606 0.51152 0.12944 0.0
C332 C 0.37157 0.53882 0.13565 0.0
C333 C 0.39496 0.54502 0.20151 0.0
C334 C 0.40805 0.52373 0.25971 0.0
C335 C 0.39802 0.49689 0.25409 0.0
C336 C 0.41159 0.47885 0.34142 0.0
C337 C 0.38966 0.46777 0.42263 0.0
C338 C 0.42811 0.4551 0.28873 0.0
C339 C 0.43104 0.49943 0.39654 0.0
C340 C 0.42935 0.52509 0.34629 0.0
C341 C 0.44561 0.5473 0.38309 0.0
C342 C 0.46309 0.54337 0.47464 0.0
C343 C 0.464 0.51775 0.53146 0.0
C344 C 0.44772 0.4955 0.49061 0.0
H345 H 0.07538 0.36818 0.2028 0.0
H346 H 0.98984 0.36109 0.10119 0.0
H347 H 0.97811 0.40318 0.20808 0.0
H348 H 0.06331 0.38514 0.46666 0.0
H349 H 0.09098 0.41005 0.484 0.0
H350 H 0.09401 0.38352 0.38161 0.0
H351 H 0.10167 0.42066 0.23152 0.0
H352 H 0.09924 0.44744 0.33386 0.0
H353 H 0.07679 0.4483 0.21649 0.0
H354 H 0.97461 0.44362 0.35164 0.0
H355 H 0.97992 0.47548 0.50935 0.0
H356 H 0.06746 0.45565 0.52415 0.0
C357 C 0.05457 0.37655 0.19719 0.0
C358 C 0.03384 0.36152 0.13833 0.0
C359 C 1.00644 0.37251 0.14036 0.0
C360 C 0.99952 0.39638 0.20283 0.0
C361 C 1.02019 0.40991 0.26343 0.0
C362 C 0.04736 0.40053 0.25929 0.0
C363 C 0.0653 0.41708 0.33928 0.0
C364 C 0.07921 0.39779 0.42285 0.0
C365 C 0.08705 0.43438 0.27658 0.0
C366 C 0.04392 0.43607 0.39395 0.0
C367 C 1.01809 0.43224 0.34695 0.0
C368 C 0.99499 0.44698 0.38655 0.0
C369 C 0.99824 0.46547 0.47606 0.0
C370 C 1.02437 0.46946 0.52753 0.0
C371 C 0.04742 0.45429 0.48461 0.0
H372 H 0.8516 0.046 0.28758 0.0
H373 H 0.87202 0.97084 0.46209 0.0
H374 H 0.91765 0.96925 0.365 0.0
H375 H 0.87458 1.02212 0.03893 0.0
H376 H 0.88713 0.05486 0.98681 0.0
H377 H 0.85984 0.05416 0.0878 0.0
H378 H 0.88901 0.08507 0.22179 0.0
H379 H 0.91415 0.08744 0.11219 0.0
H380 H 0.92484 0.0758 0.2446 0.0
H381 H 0.95941 0.9729 0.2243 0.0
H382 H 0.98947 0.9802 0.06172 0.0
H383 H 0.94002 0.05127 0.97075 0.0
C384 C 0.86613 0.02974 0.30849 0.0
C385 C 0.85813 1.00882 0.38507 0.0
C386 C 0.87763 0.98752 0.40688 0.0
C387 C 0.90361 0.98638 0.35072 0.0
C388 C 0.91008 1.00656 0.27138 0.0
C389 C 0.89173 0.02799 0.25109 0.0
C390 C 0.9013 0.04501 0.15238 0.0
C391 C 0.87943 0.04395 0.06109 0.0
C392 C 0.90764 0.07512 0.18482 0.0
C393 C 0.92787 0.02988 0.11922 0.0
C394 C 0.93297 1.00802 0.18962 0.0
C395 C 0.95577 0.99046 0.17113 0.0
C396 C 0.97333 0.9951 0.07902 0.0
C397 C 0.96845 1.01725 0.00518 0.0
C398 C 0.9452 0.03473 0.02702 0.0
H399 H 0.49801 0.87534 0.41127 0.0
H400 H 0.58003 0.83904 0.39017 0.0
H401 H 0.59217 0.87096 0.23959 0.0
H402 H 0.47941 0.89684 0.16487 0.0
H403 H 0.47148 0.93278 0.19124 0.0
H404 H 0.46985 0.90788 0.3007 0.0
H405 H 0.51265 0.93371 0.41591 0.0
H406 H 0.50185 0.96027 0.31727 0.0
H407 H 0.53775 0.95075 0.33417 0.0
H408 H 0.59225 0.90315 0.06793 0.0
H409 H 0.58626 0.9411 0.93448 0.0
H410 H 0.50736 0.96258 0.08461 0.0
C411 C 0.51898 0.8749 0.37874 0.0
C412 C 0.53778 0.85384 0.41312 0.0
C413 C 0.56518 0.8549 0.36773 0.0
C414 C 0.57202 0.87246 0.27896 0.0
C415 C 0.55211 0.89101 0.24052 0.0
C416 C 0.52698 0.8937 0.29407 0.0
C417 C 0.51214 0.9194 0.25109 0.0
C418 C 0.48138 0.91387 0.22539 0.0
C419 C 0.51604 0.94263 0.33414 0.0
C420 C 0.52924 0.92693 0.15106 0.0
C421 C 0.55317 0.91109 0.14941 0.0
C422 C 0.57375 0.91588 0.07086 0.0
C423 C 0.57017 0.93775 0.99538 0.0
C424 C 0.5464 0.9553 0.99851 0.0
C425 C 0.52567 0.94964 0.07842 0.0
H426 H 0.69774 0.50025 0.29541 0.0
H427 H 0.68417 0.579 0.45386 0.0
H428 H 0.63799 0.58253 0.36355 0.0
H429 H 0.67631 0.5229 0.04664 0.0
H430 H 0.66094 0.49088 0.00038 0.0
H431 H 0.68826 0.49016 0.10004 0.0
H432 H 0.65668 0.46357 0.24346 0.0
H433 H 0.63217 0.46166 0.13248 0.0
H434 H 0.62148 0.4759 0.26103 0.0
H435 H 0.5936 0.57901 0.23165 0.0
H436 H 0.56158 0.57118 0.07518 0.0
H437 H 0.60853 0.49806 0.98679 0.0
C438 C 0.68446 0.51764 0.31528 0.0
C439 C 0.69465 0.53896 0.38526 0.0
C440 C 0.67684 0.5619 0.40445 0.0
C441 C 0.65056 0.56418 0.35172 0.0
C442 C 0.64209 0.54357 0.27759 0.0
C443 C 0.65879 0.52065 0.26 0.0
C444 C 0.64782 0.50347 0.16475 0.0
C445 C 0.66962 0.50178 0.07249 0.0
C446 C 0.63913 0.47438 0.2029 0.0
C447 C 0.62241 0.52018 0.13019 0.0
C448 C 0.61879 0.54287 0.19767 0.0
C449 C 0.59641 0.56107 0.17976 0.0
C450 C 0.57791 0.5563 0.09088 0.0
C451 C 0.58177 0.53362 0.01859 0.0
C452 C 0.6044 0.51538 0.0407 0.0
H453 H 0.98655 0.67285 0.42488 0.0
H454 H 0.06955 0.70689 0.39417 0.0
H455 H 0.08223 0.66865 0.26862 0.0
H456 H 1.00299 0.59657 0.38505 0.0
H457 H 0.97202 0.59208 0.30567 0.0
H458 H 0.97302 0.61795 0.41197 0.0
H459 H 0.95825 0.65411 0.26429 0.0
H460 H 0.95943 0.62807 0.15916 0.0
H461 H 0.98007 0.65917 0.14566 0.0
H462 H 0.08438 0.62862 0.12798 0.0
H463 H 0.07537 0.59375 0.98436 0.0
H464 H 0.98958 0.58766 0.09009 0.0
C465 C 1.00771 0.67173 0.39478 0.0
C466 C 0.02722 0.69297 0.42289 0.0
C467 C 0.05444 0.69073 0.37838 0.0
C468 C 0.06167 0.66916 0.30495 0.0
C469 C 0.04155 0.64948 0.27515 0.0
C470 C 1.01505 0.65058 0.31915 0.0
C471 C 0.99627 0.62911 0.2638 0.0
C472 C 0.9854 0.60769 0.34671 0.0
C473 C 0.97208 0.64347 0.2047 0.0
C474 C 1.01624 0.61555 0.18242 0.0
C475 C 0.04241 0.62736 0.19159 0.0
C476 C 0.06406 0.61902 0.12239 0.0
C477 C 0.05882 0.59877 0.04141 0.0
C478 C 0.03212 0.58654 0.02824 0.0
C479 C 1.01059 0.59525 0.10081 0.0
H480 H 0.04525 0.25321 0.31684 0.0
H481 H 0.98152 0.27391 0.08274 0.0
H482 H 0.95098 0.23734 0.15832 0.0
H483 H 0.03944 0.18053 0.33677 0.0
H484 H 0.04455 0.18233 0.48082 0.0
H485 H 0.0577 0.2097 0.39552 0.0
H486 H 0.02743 0.24263 0.53037 0.0
H487 H 1.01546 0.2117 0.59726 0.0
H488 H 0.99061 0.23589 0.54219 0.0
H489 H 0.93307 0.19407 0.22794 0.0
H490 H 0.92896 0.14531 0.28514 0.0
H491 H 1.00096 0.15519 0.49332 0.0
C492 C 1.02466 0.25002 0.28374 0.0
C493 C 1.01541 0.26561 0.19467 0.0
C494 C 0.98859 0.26153 0.15106 0.0
C495 C 0.97113 0.24125 0.19425 0.0
C496 C 0.98067 0.22607 0.28299 0.0
C497 C 1.00672 0.23027 0.32777 0.0
C498 C 1.01223 0.21038 0.41994 0.0
C499 C 0.04014 0.19496 0.4069 0.0
C500 C 1.01127 0.22609 0.52887 0.0
C501 C 0.98733 0.19138 0.40674 0.0
C502 C 0.96866 0.20174 0.33114 0.0
C503 C 0.94675 0.18599 0.29023 0.0
C504 C 0.94465 0.15833 0.32245 0.0
C505 C 0.96464 0.14692 0.39326 0.0
C506 C 0.98528 0.16388 0.44014 0.0
H507 H 0.27987 0.99366 0.20744 0.0
H508 H 0.29519 0.08204 0.19676 0.0
H509 H 0.33993 0.07523 0.2917 0.0
H510 H 0.31713 0.98279 0.48838 0.0
H511 H 0.32927 0.94922 0.44464 0.0
H512 H 0.29589 0.96176 0.40003 0.0
H513 H 0.31132 0.95351 0.20003 0.0
H514 H 0.34521 0.94234 0.24285 0.0
H515 H 0.34195 0.97081 0.14804 0.0
H516 H 0.38595 0.057 0.29116 0.0
H517 H 0.42914 0.03165 0.30867 0.0
H518 H 0.38319 0.95662 0.39225 0.0
C519 C 0.29253 1.01139 0.22945 0.0
C520 C 0.28558 0.03819 0.19375 0.0
C521 C 0.30135 0.06148 0.22279 0.0
C522 C 0.32631 0.05777 0.27677 0.0
C523 C 0.33398 0.03079 0.30309 0.0
C524 C 0.31703 1.00804 0.28699 0.0
C525 C 0.33145 0.98127 0.31799 0.0
C526 C 0.31763 0.96799 0.41884 0.0
C527 C 0.33254 0.9608 0.22144 0.0
C528 C 0.35997 0.99263 0.34374 0.0
C529 C 0.36082 1.0211 0.32995 0.0
C530 C 0.38548 0.03537 0.31489 0.0
C531 C 0.40987 1.0207 0.32512 0.0
C532 C 0.40947 0.99333 0.36759 0.0
C533 C 0.38424 0.97827 0.36916 0.0
H534 H 0.54003 0.27476 0.24807 0.0
H535 H 0.58518 0.28445 0.94444 0.0
H536 H 0.60651 0.32799 0.01457 0.0
H537 H 0.52031 0.3424 0.26411 0.0
H538 H 0.52125 0.34429 0.41105 0.0
H539 H 0.51513 0.31157 0.34533 0.0
H540 H 0.557 0.29063 0.44977 0.0
H541 H 0.5635 0.32356 0.51439 0.0
H542 H 0.59079 0.3067 0.43814 0.0
H543 H 0.61757 0.3725 0.10924 0.0
H544 H 0.61627 0.41602 0.21552 0.0
H545 H 0.5605 0.37767 0.4509 0.0
C546 C 0.55556 0.28548 0.19929 0.0
C547 C 0.56198 0.27634 0.09337 0.0
C548 C 0.58097 0.29113 0.02726 0.0
C549 C 0.59294 0.31571 0.06638 0.0
C550 C 0.58534 0.32476 0.17075 0.0
C551 C 0.56699 0.31004 0.23607 0.0
C552 C 0.55856 0.3259 0.33694 0.0
C553 C 0.52696 0.33136 0.33936 0.0
C554 C 0.56805 0.3108 0.44097 0.0
C555 C 0.57481 0.35221 0.31794 0.0
C556 C 0.59047 0.351 0.22274 0.0
C557 C 0.60583 0.37355 0.18478 0.0
C558 C 0.60498 0.39807 0.24532 0.0
C559 C 0.58846 0.39978 0.34084 0.0
C560 C 0.57346 0.37656 0.37831 0.0
H561 H 0.23254 0.50069 0.17976 0.0
H562 H 0.29693 0.56032 0.25484 0.0
H563 H 0.26339 0.58772 0.36504 0.0
H564 H 0.18182 0.56026 0.13104 0.0
H565 H 0.15577 0.53385 0.15443 0.0
H566 H 0.18932 0.52523 0.09819 0.0
H567 H 0.18862 0.48777 0.26856 0.0
H568 H 0.15795 0.50361 0.32511 0.0
H569 H 0.18948 0.50222 0.40396 0.0
H570 H 0.22023 0.60694 0.47415 0.0
H571 H 0.17233 0.61856 0.54181 0.0
H572 H 0.13897 0.5523 0.34219 0.0
C573 C 0.23943 0.51963 0.21808 0.0
C574 C 0.2669 0.52821 0.21143 0.0
C575 C 0.27564 0.55317 0.26282 0.0
C576 C 0.25689 0.56883 0.32483 0.0
C577 C 0.22947 0.55978 0.32888 0.0
C578 C 0.22082 0.53639 0.27269 0.0
C579 C 0.19005 0.53329 0.27244 0.0
C580 C 0.17842 0.53842 0.15747 0.0
C581 C 0.18099 0.50507 0.32034 0.0
C582 C 0.1827 0.5569 0.34485 0.0
C583 C 0.20529 0.57233 0.37786 0.0
C584 C 0.20233 0.59519 0.44718 0.0
C585 C 0.17532 0.60187 0.48388 0.0
C586 C 0.15244 0.58602 0.44718 0.0
C587 C 0.15631 0.56434 0.37321 0.0
H588 H 0.98175 0.81278 0.38741 0.0
H589 H 0.04575 0.7549 0.29006 0.0
H590 H 0.06679 0.78988 0.16874 0.0
H591 H 0.98056 0.84962 0.10313 0.0
H592 H 0.97365 0.88247 0.16762 0.0
H593 H 0.95946 0.85095 0.22511 0.0
H594 H 0.98299 0.86167 0.41295 0.0
H595 H 0.9958 0.89346 0.35527 0.0
H596 H 1.01977 0.86918 0.41419 0.0
H597 H 0.08662 0.83361 0.09431 0.0
H598 H 0.10002 0.8821 0.05142 0.0
H599 H 1.02345 0.91048 0.20422 0.0
C600 C 0.99925 0.80737 0.33576 0.0
C601 C 1.01201 0.78154 0.34567 0.0
C602 C 0.03547 0.77472 0.28028 0.0
C603 C 0.0476 0.79438 0.2117 0.0
C604 C 0.03545 0.8204 0.20755 0.0
C605 C 1.0113 0.82669 0.26513 0.0
C606 C 1.00397 0.85682 0.25403 0.0
C607 C 0.97786 0.86017 0.18328 0.0
C608 C 1.00043 0.87106 0.36581 0.0
C609 C 0.02947 0.86694 0.19397 0.0
C610 C 0.04694 0.84564 0.16385 0.0
C611 C 0.07272 0.85051 0.11433 0.0
C612 C 0.08039 0.87805 0.09224 0.0
C613 C 0.06251 0.90007 0.12253 0.0
C614 C 0.03708 0.89418 0.1756 0.0
H615 H 0.72707 1.0223 0.42584 0.0
H616 H 0.79771 0.05324 0.23942 0.0
H617 H 0.7668 0.0851 0.14363 0.0
H618 H 0.67634 0.02548 0.29223 0.0
H619 H 0.65069 0.04465 0.36939 0.0
H620 H 0.67823 0.0279 0.43953 0.0
H621 H 0.69508 0.07126 0.53135 0.0
H622 H 0.66688 0.09005 0.47086 0.0
H623 H 0.70218 0.10208 0.45327 0.0
H624 H 0.72519 0.10106 0.0371 0.0
H625 H 0.67837 0.10728 0.95631 0.0
H626 H 0.64052 0.08273 0.26247 0.0
C627 C 0.737 0.03688 0.37232 0.0
C628 C 0.76498 0.03401 0.33987 0.0
C629 C 0.77595 0.05309 0.26155 0.0
C630 C 0.75882 0.07224 0.20929 0.0
C631 C 0.73151 0.07444 0.24497 0.0
C632 C 0.72134 0.05872 0.33081 0.0
C633 C 0.69135 0.06553 0.35501 0.0
C634 C 0.67309 0.0393 0.36377 0.0
C635 C 0.68876 0.08329 0.45868 0.0
C636 C 0.68501 0.08292 0.25617 0.0
C637 C 0.70856 0.08861 0.19449 0.0
C638 C 0.70678 0.09862 0.08747 0.0
C639 C 0.68027 0.10214 0.04212 0.0
C640 C 0.65642 0.09618 0.10552 0.0
C641 C 0.65884 0.08822 0.21507 0.0
H642 H 0.55061 0.77357 0.19455 0.0
H643 H 0.57081 0.74267 0.51181 0.0
H644 H 0.56459 0.69449 0.44737 0.0
H645 H 0.49619 0.7447 0.15326 0.0
H646 H 0.49832 0.73436 0.01313 0.0
H647 H 0.51869 0.76305 0.05887 0.0
H648 H 0.57727 0.7326 0.04989 0.0
H649 H 0.55207 0.73338 0.94898 0.0
H650 H 0.56437 0.7003 0.00324 0.0
H651 H 0.5316 0.65932 0.38761 0.0
H652 H 0.49466 0.63066 0.30668 0.0
H653 H 0.49245 0.68462 0.02534 0.0
C654 C 0.55281 0.75684 0.25155 0.0
C655 C 0.55352 0.76071 0.36408 0.0
C656 C 0.56429 0.739 0.42896 0.0
C657 C 0.56164 0.71177 0.39212 0.0
C658 C 0.55139 0.70814 0.28706 0.0
C659 C 0.54861 0.73014 0.21594 0.0
C660 C 0.53469 0.72227 0.11175 0.0
C661 C 0.51064 0.74228 0.08269 0.0
C662 C 0.55797 0.72177 0.02334 0.0
C663 C 0.52377 0.69392 0.14648 0.0
C664 C 0.53473 0.68595 0.24647 0.0
C665 C 0.5236 0.6643 0.3077 0.0
C666 C 0.50191 0.64898 0.26353 0.0
C667 C 0.49181 0.65534 0.15874 0.0
C668 C 0.50161 0.67887 0.10232 0.0
H669 H 0.82444 0.53391 0.31569 0.0
H670 H 0.74993 0.48665 0.252 0.0
H671 H 0.77682 0.4563 0.1267 0.0
H672 H 0.87744 0.51166 0.11305 0.0
H673 H 0.89819 0.50994 0.23639 0.0
H674 H 0.86914 0.53342 0.22126 0.0
H675 H 0.84757 0.4646 0.39387 0.0
H676 H 0.8526 0.5003 0.42238 0.0
H677 H 0.88231 0.47855 0.39118 0.0
H678 H 0.82468 0.44734 0.95466 0.0
H679 H 0.8732 0.43562 0.89658 0.0
H680 H 0.90211 0.45523 0.22027 0.0
C681 C 0.81335 0.51713 0.27931 0.0
C682 C 0.78504 0.51352 0.29373 0.0
C683 C 0.77181 0.49091 0.23875 0.0
C684 C 0.78686 0.47365 0.16637 0.0
C685 C 0.81551 0.47785 0.1566 0.0
C686 C 0.82815 0.49721 0.22277 0.0
C687 C 0.85716 0.48952 0.24846 0.0
C688 C 0.87682 0.51233 0.20377 0.0
C689 C 0.86029 0.48306 0.37104 0.0
C690 C 0.85992 0.46336 0.18433 0.0
C691 C 0.8372 0.45886 0.11825 0.0
C692 C 0.84136 0.44748 0.01376 0.0
C693 C 0.86893 0.44052 0.98131 0.0
C694 C 0.89115 0.44298 0.05685 0.0
C695 C 0.88526 0.45117 0.16376 0.0
H696 H 0.06239 0.23843 0.07989 0.0
H697 H 1.00722 0.27784 0.8496 0.0
H698 H 0.99906 0.23214 0.7617 0.0
H699 H 0.09402 0.18562 0.90473 0.0
H700 H 0.09296 0.1595 0.01037 0.0
H701 H 0.09551 0.19562 0.04649 0.0
H702 H 0.05172 0.19128 0.16541 0.0
H703 H 0.04901 0.1549 0.13228 0.0
H704 H 1.01992 0.17774 0.10913 0.0
H705 H 0.99573 0.1775 0.70201 0.0
H706 H 0.99896 0.12673 0.67863 0.0
H707 H 0.05543 0.12242 0.95265 0.0
C708 C 0.04939 0.23776 0.00802 0.0
C709 C 0.03629 0.26276 0.97077 0.0
C710 C 1.01857 0.25996 0.8787 0.0
C711 C 1.01368 0.2336 0.82821 0.0
C712 C 0.02673 0.20944 0.86836 0.0
C713 C 0.04438 0.21161 0.95656 0.0
C714 C 0.05419 0.18268 0.99167 0.0
C715 C 0.08607 0.18075 0.98803 0.0
C716 C 0.04301 0.17616 0.10649 0.0
C717 C 0.04078 0.1636 0.90676 0.0
C718 C 1.02452 0.1793 0.837 0.0
C719 C 1.00919 0.16576 0.7552 0.0
C720 C 1.01095 0.13636 0.74293 0.0
C721 C 0.02767 0.11951 0.81226 0.0
C722 C 0.04266 0.13396 0.89602 0.0
H723 H 0.30852 0.06877 0.00393 0.0
H724 H 0.27835 0.98886 0.89599 0.0
H725 H 0.32545 0.97818 0.8224 0.0
H726 H 0.36103 0.081 0.7829 0.0
H727 H 0.38564 0.09641 0.87554 0.0
H728 H 0.34883 0.09926 0.90219 0.0
H729 H 0.35659 0.0784 0.09179 0.0
H730 H 0.39319 0.07358 0.06687 0.0
H731 H 0.3717 0.04425 0.10342 0.0
H732 H 0.37914 0.97559 0.76665 0.0
H733 H 0.43029 0.97979 0.74805 0.0
H734 H 0.42756 0.05889 0.91477 0.0
C735 C 0.31162 0.04902 0.9642 0.0
C736 C 0.28884 0.0298 0.95626 0.0
C737 C 0.29454 1.0044 0.90189 0.0
C738 C 0.32165 0.99805 0.8606 0.0
C739 C 0.3437 1.01702 0.87411 0.0
C740 C 0.33878 0.04213 0.92464 0.0
C741 C 0.36625 0.05824 0.93653 0.0
C742 C 0.36539 0.08534 0.87035 0.0
C743 C 0.37231 0.06402 0.05703 0.0
C744 C 0.38773 0.0381 0.88853 0.0
C745 C 0.37417 1.01475 0.84985 0.0
C746 C 0.38958 0.99374 0.79857 0.0
C747 C 0.419 0.99631 0.78838 0.0
C748 C 0.4339 1.01935 0.8316 0.0
C749 C 0.41749 0.04062 0.88213 0.0
H750 H 0.53662 0.29444 0.84779 0.0
H751 H 0.48375 0.29518 0.13508 0.0
H752 H 0.47676 0.34561 0.11172 0.0
H753 H 0.57101 0.3585 0.8897 0.0
H754 H 0.57123 0.36996 0.74937 0.0
H755 H 0.57014 0.33344 0.78052 0.0
H756 H 0.5254 0.32815 0.66563 0.0
H757 H 0.52691 0.36464 0.63345 0.0
H758 H 0.49596 0.35006 0.69446 0.0
H759 H 0.4785 0.397 0.06869 0.0
H760 H 0.48563 0.44459 0.00455 0.0
H761 H 0.53764 0.41436 0.73918 0.0
C762 C 0.52289 0.30511 0.90392 0.0
C763 C 0.51005 0.29004 0.99241 0.0
C764 C 0.49294 0.30539 0.06484 0.0
C765 C 0.48921 0.33437 0.05276 0.0
C766 C 0.50252 0.34854 0.96696 0.0
C767 C 0.51866 0.33439 0.89211 0.0
C768 C 0.53075 0.35514 0.80794 0.0
C769 C 0.56269 0.3542 0.80688 0.0
C770 C 0.51908 0.34914 0.69359 0.0
C771 C 0.52005 0.38325 0.85056 0.0
C772 C 0.50351 0.37857 0.94168 0.0
C773 C 0.49122 0.4007 0.99691 0.0
C774 C 0.49552 0.42806 0.95902 0.0
C775 C 0.51224 0.43428 0.86562 0.0
C776 C 0.52475 0.41103 0.81078 0.0
H777 H 0.24411 0.4757 0.00055 0.0
H778 H 0.27032 0.55997 0.9352 0.0
H779 H 0.22367 0.57025 0.85904 0.0
H780 H 0.1973 0.47285 0.74537 0.0
H781 H 0.17199 0.45051 0.80964 0.0
H782 H 0.20816 0.44801 0.84672 0.0
H783 H 0.19726 0.45906 0.05803 0.0
H784 H 0.16259 0.45367 0.00758 0.0
H785 H 0.17021 0.48416 0.08252 0.0
H786 H 0.17172 0.57289 0.8037 0.0
H787 H 0.12117 0.56818 0.77637 0.0
H788 H 0.12519 0.48257 0.88453 0.0
C789 C 0.24025 0.49609 0.96696 0.0
C790 C 0.26169 0.51694 0.97291 0.0
C791 C 0.25509 0.54345 0.93011 0.0
C792 C 0.22829 0.5495 0.88731 0.0
C793 C 0.2075 0.52891 0.88615 0.0
C794 C 0.21327 0.50247 0.92376 0.0
C795 C 0.18681 0.48427 0.9141 0.0
C796 C 0.19133 0.46263 0.82359 0.0
C797 C 0.17894 0.46958 0.02194 0.0
C798 C 0.16453 0.50546 0.8789 0.0
C799 C 0.17738 0.53069 0.85814 0.0
C800 C 0.1617 0.55321 0.82057 0.0
C801 C 0.13259 0.55029 0.80512 0.0
C802 C 0.1181 0.52519 0.82888 0.0
C803 C 0.13487 0.50235 0.8663 0.0
H804 H 0.9976 0.79831 0.68457 0.0
H805 H 0.06696 0.79404 0.45877 0.0
H806 H 0.07665 0.84382 0.48992 0.0
H807 H 0.97257 0.86404 0.63673 0.0
H808 H 0.96756 0.87533 0.77588 0.0
H809 H 0.96695 0.8389 0.744 0.0
H810 H 1.00564 0.82986 0.88479 0.0
H811 H 1.00634 0.86628 0.91819 0.0
H812 H 0.03775 0.84907 0.87573 0.0
H813 H 0.07497 0.89665 0.52676 0.0
H814 H 0.06729 0.94501 0.58705 0.0
H815 H 1.00228 0.91687 0.80733 0.0
C816 C 1.01551 0.80758 0.64487 0.0
C817 C 0.03155 0.7915 0.56842 0.0
C818 C 0.05441 0.80517 0.51768 0.0
C819 C 0.06002 0.83376 0.53493 0.0
C820 C 0.04347 0.84907 0.60773 0.0
C821 C 1.02233 0.83616 0.66564 0.0
C822 C 1.00853 0.85752 0.74253 0.0
C823 C 0.97702 0.85904 0.72354 0.0
C824 C 1.01491 0.85024 0.86236 0.0
C825 C 1.02314 0.88488 0.71041 0.0
C826 C 0.04359 0.87925 0.63368 0.0
C827 C 0.05946 0.90093 0.58884 0.0
C828 C 0.0549 0.92863 0.62374 0.0
C829 C 0.03448 0.93546 0.70342 0.0
C830 C 1.01832 0.91284 0.74707 0.0
H831 H 0.7464 0.97369 0.54864 0.0
H832 H 0.77221 0.05763 0.62041 0.0
H833 H 0.72604 0.06684 0.70391 0.0
H834 H 0.68238 0.98257 0.46155 0.0
H835 H 0.66315 0.95608 0.53286 0.0
H836 H 0.69983 0.95202 0.50819 0.0
H837 H 0.71023 0.94504 0.70936 0.0
H838 H 0.67342 0.94693 0.73774 0.0
H839 H 0.69726 0.9693 0.809 0.0
H840 H 0.67371 0.06927 0.75554 0.0
H841 H 0.62287 0.06416 0.77918 0.0
H842 H 0.62799 0.97948 0.66263 0.0
C843 C 0.74274 0.99358 0.58685 0.0
C844 C 0.76358 1.01489 0.57876 0.0
C845 C 0.75729 0.04085 0.62698 0.0
C846 C 0.73076 0.0463 0.67365 0.0
C847 C 0.71005 0.02568 0.6725 0.0
C848 C 0.71599 0.99947 0.63321 0.0
C849 C 0.68958 0.98135 0.63875 0.0
C850 C 0.68335 0.96729 0.52885 0.0
C851 C 0.69281 0.95935 0.72902 0.0
C852 C 0.66711 1.00246 0.67207 0.0
C853 C 0.67977 0.02746 0.69724 0.0
C854 C 0.66383 0.04973 0.73576 0.0
C855 C 0.63464 0.04664 0.74883 0.0
C856 C 0.62057 1.02167 0.72115 0.0
C857 C 0.63751 0.99919 0.68248 0.0
H858 H 0.54741 0.75094 0.70117 0.0
H859 H 0.48639 0.7553 0.44328 0.0
H860 H 0.47814 0.70496 0.45911 0.0
H861 H 0.58042 0.69208 0.66958 0.0
H862 H 0.5778 0.67667 0.80363 0.0
H863 H 0.57481 0.71366 0.78752 0.0
H864 H 0.51899 0.71286 0.86995 0.0
H865 H 0.53203 0.67817 0.90535 0.0
H866 H 0.50027 0.6832 0.83286 0.0
H867 H 0.47842 0.65123 0.49948 0.0
H868 H 0.48665 0.60307 0.56002 0.0
H869 H 0.54902 0.63181 0.78599 0.0
C870 C 0.53132 0.74166 0.65162 0.0
C871 C 0.51781 0.75796 0.56938 0.0
C872 C 0.49704 0.74402 0.50711 0.0
C873 C 0.49253 0.71499 0.51411 0.0
C874 C 0.50811 0.69926 0.58751 0.0
C875 C 0.52609 0.7123 0.65854 0.0
C876 C 0.53809 0.69031 0.73524 0.0
C877 C 0.56966 0.69337 0.74998 0.0
C878 C 0.52182 0.6913 0.84291 0.0
C879 C 0.52992 0.66307 0.68141 0.0
C880 C 0.51015 0.66866 0.60291 0.0
C881 C 0.49452 0.64695 0.55855 0.0
C882 C 0.49937 0.61933 0.59381 0.0
C883 C 0.51959 0.61278 0.67401 0.0
C884 C 0.53475 0.6354 0.71936 0.0
H885 H 0.8188 0.56349 0.44254 0.0
H886 H 0.7779 0.50677 0.66593 0.0
H887 H 0.82035 0.50628 0.78014 0.0
H888 H 0.89123 0.52423 0.45624 0.0
H889 H 0.90566 0.55711 0.42197 0.0
H890 H 0.87083 0.54935 0.37953 0.0
H891 H 0.86098 0.59718 0.47116 0.0
H892 H 0.89488 0.59848 0.53282 0.0
H893 H 0.86411 0.59949 0.61779 0.0
H894 H 0.87177 0.50915 0.86635 0.0
H895 H 0.92279 0.51173 0.89613 0.0
H896 H 0.93267 0.55932 0.60094 0.0
C897 C 0.81908 0.54947 0.51146 0.0
C898 C 0.79444 0.53392 0.53918 0.0
C899 C 0.79573 0.5187 0.63906 0.0
C900 C 0.82024 0.5181 0.70486 0.0
C901 C 0.8445 0.53207 0.67021 0.0
C902 C 0.84419 0.54699 0.57373 0.0
C903 C 0.87358 0.55856 0.54992 0.0
C904 C 0.886 0.54644 0.44537 0.0
C905 C 0.87335 0.59034 0.54282 0.0
C906 C 0.89034 0.54814 0.64695 0.0
C907 C 0.87328 0.53305 0.71659 0.0
C908 C 0.88489 0.52028 0.80894 0.0
C909 C 0.9142 0.52142 0.82524 0.0
C910 C 0.93254 0.53454 0.74999 0.0
C911 C 0.91983 0.54885 0.66116 0.0
loop_
_geom_bond_atom_site_label_1
_geom_bond_atom_site_label_2
_geom_bond_distance
_geom_bond_site_symmetry_2
_ccdc_geom_bond_type
C0 N1 1.317 . S
C0 N2 1.348 . S
C0 C3 1.485 . S
N1 C0 1.317 . S
N1 N5 1.370 . S
N2 C0 1.348 . S
N2 C4 1.346 . S
C3 C0 1.485 . S
C3 H7 0.960 . S
C3 H8 0.961 . S
C3 H9 0.960 . S
C4 N2 1.346 . S
C4 N5 1.307 . S
C4 C6 1.486 . S
N5 N1 1.370 . S
N5 C4 1.307 . S
C6 C4 1.486 . S
C6 H10 0.960 . S
C6 H11 0.960 . S
C6 H12 0.959 . S
H7 C3 0.960 . S
H8 C3 0.961 . S
H9 C3 0.960 . S
H10 C6 0.960 . S
H11 C6 0.960 . S
H12 C6 0.959 . S
C13 N14 1.317 . S
C13 N15 1.350 . S
C13 C16 1.485 . S
N14 C13 1.317 . S
N14 N18 1.371 . S
N15 C13 1.350 . S
N15 C17 1.345 1_655 S
C16 C13 1.485 . S
C16 H20 0.960 1_655 S
C16 H21 0.961 . S
C16 H22 0.960 . S
C17 N15 1.345 1_455 S
C17 N18 1.307 1_455 S
C17 C19 1.486 . S
N18 N14 1.371 . S
N18 C17 1.307 1_655 S
C19 C17 1.486 . S
C19 H23 0.922 1_455 S
C19 H24 0.991 . S
C19 H25 0.967 . S
H20 C16 0.960 1_455 S
H21 C16 0.961 . S
H22 C16 0.960 . S
H23 C19 0.922 1_655 S
H24 C19 0.991 . S
H25 C19 0.967 . S
C26 N27 1.317 . S
C26 N28 1.350 . S
C26 C29 1.485 . S
N27 C26 1.317 . S
N27 N31 1.371 . S
N28 C26 1.350 . S
N28 C30 1.345 1_565 S
C29 C26 1.485 . S
C29 H33 0.960 1_565 S
C29 H34 0.961 . S
C29 H35 0.960 . S
C30 N28 1.345 1_545 S
C30 N31 1.307 1_545 S
C30 C32 1.486 . S
N31 N27 1.371 . S
N31 C30 1.307 1_565 S
C32 C30 1.486 . S
C32 H36 0.922 1_545 S
C32 H37 0.991 . S
C32 H38 0.967 . S
H33 C29 0.960 1_545 S
H34 C29 0.961 . S
H35 C29 0.960 . S
H36 C32 0.922 1_565 S
H37 C32 0.991 . S
H38 C32 0.967 . S
C39 N40 1.317 . S
C39 N41 1.348 . S
C39 C42 1.485 . S
N40 C39 1.317 . S
N40 N44 1.370 . S
N41 C39 1.348 . S
N41 C43 1.346 . S
C42 C39 1.485 . S
C42 H46 0.960 . S
C42 H47 0.961 . S
C42 H48 0.960 . S
C43 N41 1.346 . S
C43 N44 1.307 . S
C43 C45 1.486 . S
N44 N40 1.370 . S
N44 C43 1.307 . S
C45 C43 1.486 . S
C45 H49 0.960 . S
C45 H50 0.960 . S
C45 H51 0.959 . S
H46 C42 0.960 . S
H47 C42 0.961 . S
H48 C42 0.960 . S
H49 C45 0.960 . S
H50 C45 0.960 . S
H51 C45 0.959 . S
C52 N53 1.317 . S
C52 N54 1.348 1_556 S
C52 C55 1.485 . S
N53 C52 1.317 . S
N53 N57 1.370 1_556 S
N54 C52 1.348 1_554 S
N54 C56 1.346 . S
C55 C52 1.485 . S
C55 H59 0.960 . S
C55 H60 0.961 . S
C55 H61 0.960 . S
C56 N54 1.346 . S
C56 N57 1.307 . S
C56 C58 1.486 . S
N57 N53 1.370 1_554 S
N57 C56 1.307 . S
C58 C56 1.486 . S
C58 H62 0.960 . S
C58 H63 0.960 . S
C58 H64 0.959 . S
H59 C55 0.960 . S
H60 C55 0.961 . S
H61 C55 0.960 . S
H62 C58 0.960 . S
H63 C58 0.960 . S
H64 C58 0.959 . S
C65 N66 1.317 . S
C65 N67 1.350 1_556 S
C65 C68 1.485 . S
N66 C65 1.317 . S
N66 N70 1.370 1_556 S
N67 C65 1.350 1_554 S
N67 C69 1.345 1_655 S
C68 C65 1.485 . S
C68 H72 0.960 1_655 S
C68 H73 0.961 . S
C68 H74 0.960 . S
C69 N67 1.345 1_455 S
C69 N70 1.307 1_455 S
C69 C71 1.486 . S
N70 N66 1.370 1_554 S
N70 C69 1.307 1_655 S
C71 C69 1.486 . S
C71 H75 0.960 1_455 S
C71 H76 0.960 . S
C71 H77 0.959 . S
H72 C68 0.960 1_455 S
H73 C68 0.961 . S
H74 C68 0.960 . S
H75 C71 0.960 1_655 S
H76 C71 0.960 . S
H77 C71 0.959 . S
C78 N79 1.317 . S
C78 N80 1.350 1_556 S
C78 C81 1.485 . S
N79 C78 1.317 . S
N79 N83 1.370 1_556 S
N80 C78 1.350 1_554 S
N80 C82 1.345 1_565 S
C81 C78 1.485 . S
C81 H85 0.960 1_565 S
C81 H86 0.961 . S
C81 H87 0.960 . S
C82 N80 1.345 1_545 S
C82 N83 1.307 1_545 S
C82 C84 1.486 . S
N83 N79 1.370 1_554 S
N83 C82 1.307 1_565 S
C84 C82 1.486 . S
C84 H88 0.960 1_545 S
C84 H89 0.960 . S
C84 H90 0.959 . S
H85 C81 0.960 1_545 S
H86 C81 0.961 . S
H87 C81 0.960 . S
H88 C84 0.960 1_565 S
H89 C84 0.960 . S
H90 C84 0.959 . S
C91 N92 1.317 . S
C91 N93 1.348 1_556 S
C91 C94 1.485 . S
N92 C91 1.317 . S
N92 N96 1.370 1_556 S
N93 C91 1.348 1_554 S
N93 C95 1.346 . S
C94 C91 1.485 . S
C94 H98 0.960 . S
C94 H99 0.961 . S
C94 H100 0.960 . S
C95 N93 1.346 . S
C95 N96 1.307 . S
C95 C97 1.486 . S
N96 N92 1.370 1_554 S
N96 C95 1.307 . S
C97 C95 1.486 . S
C97 H101 0.960 . S
C97 H102 0.960 . S
C97 H103 0.959 . S
H98 C94 0.960 . S
H99 C94 0.961 . S
H100 C94 0.960 . S
H101 C97 0.960 . S
H102 C97 0.960 . S
H103 C97 0.959 . S
Gd104 C107 2.818 1_556 S
Gd104 O124 2.377 . S
Gd104 O126 2.448 . S
Gd104 O127 2.506 1_556 S
Gd104 O128 2.435 . S
Gd104 O129 2.717 1_565 S
Gd104 O131 2.395 1_565 S
Gd104 O135 2.327 1_455 S
Gd105 C116 2.818 . S
Gd105 O125 2.395 1_545 S
Gd105 O129 2.327 1_655 S
Gd105 O130 2.377 . S
Gd105 O132 2.448 . S
Gd105 O133 2.506 . S
Gd105 O134 2.435 . S
Gd105 O135 2.717 1_545 S
C106 O124 1.240 1_655 S
C106 O125 1.240 . S
C107 Gd104 2.818 1_554 S
C107 C108 1.510 . S
C107 O126 1.249 1_554 S
C107 O127 1.252 . S
C108 C107 1.510 . S
C108 C109 1.404 . S
C108 C110 1.352 . S
C109 C108 1.404 . S
C109 C113 1.389 . S
C109 H136 0.930 . S
C110 C108 1.352 . S
C110 C112 1.374 . S
C110 H137 0.931 1_455 S
C111 C112 1.359 . S
C111 C113 1.364 . S
C112 C110 1.374 . S
C112 C111 1.359 . S
C112 H138 0.931 1_455 S
C113 C109 1.389 . S
C113 C111 1.364 . S
C113 H139 0.931 . S
C114 O128 1.256 . S
C114 O129 1.257 1_565 S
C115 O130 1.240 1_455 S
C115 O131 1.240 . S
C116 Gd105 2.818 . S
C116 C117 1.510 . S
C116 O132 1.249 . S
C116 O133 1.252 . S
C117 C116 1.510 . S
C117 C118 1.404 . S
C117 C119 1.352 . S
C118 C117 1.404 . S
C118 C122 1.389 . S
C118 H140 0.930 . S
C119 C117 1.352 . S
C119 C121 1.374 . S
C119 H141 0.931 1_655 S
C120 C121 1.359 . S
C120 C122 1.364 . S
C121 C119 1.374 . S
C121 C120 1.359 . S
C121 H142 0.931 1_655 S
C122 C118 1.389 . S
C122 C120 1.364 . S
C122 H143 0.931 . S
C123 O134 1.256 . S
C123 O135 1.257 1_545 S
O124 Gd104 2.377 . S
O124 C106 1.240 1_455 S
O125 Gd105 2.395 1_565 S
O125 C106 1.240 . S
O126 Gd104 2.448 . S
O126 C107 1.249 1_556 S
O127 Gd104 2.506 1_554 S
O127 C107 1.252 . S
O128 Gd104 2.435 . S
O128 C114 1.256 . S
O129 Gd104 2.717 1_545 S
O129 Gd105 2.327 1_455 S
O129 C114 1.257 1_545 S
O130 Gd105 2.377 . S
O130 C115 1.240 1_655 S
O131 Gd104 2.395 1_545 S
O131 C115 1.240 . S
O132 Gd105 2.448 . S
O132 C116 1.249 . S
O133 Gd105 2.506 . S
O133 C116 1.252 . S
O134 Gd105 2.435 . S
O134 C123 1.256 . S
O135 Gd104 2.327 1_655 S
O135 Gd105 2.717 1_565 S
O135 C123 1.257 1_565 S
H136 C109 0.930 . S
H137 C110 0.931 1_655 S
H138 C112 0.931 1_655 S
H139 C113 0.931 . S
H140 C118 0.930 . S
H141 C119 0.931 1_455 S
H142 C121 0.931 1_455 S
H143 C122 0.931 . S
Gd144 C147 2.818 1_556 S
Gd144 O164 2.377 . S
Gd144 O166 2.448 . S
Gd144 O167 2.505 1_556 S
Gd144 O168 2.435 . S
Gd144 O169 2.717 . S
Gd144 O171 2.395 . S
Gd144 O175 2.327 1_545 S
Gd145 C156 2.818 . S
Gd145 O165 2.395 . S
Gd145 O169 2.327 1_565 S
Gd145 O170 2.377 . S
Gd145 O172 2.448 . S
Gd145 O173 2.506 . S
Gd145 O174 2.435 . S
Gd145 O175 2.717 . S
C146 O164 1.240 1_565 S
C146 O165 1.240 . S
C147 Gd144 2.818 1_554 S
C147 C148 1.510 . S
C147 O166 1.249 1_554 S
C147 O167 1.252 . S
C148 C147 1.510 . S
C148 C149 1.404 . S
C148 C150 1.352 . S
C149 C148 1.404 . S
C149 C153 1.389 . S
C149 H176 0.930 . S
C150 C148 1.352 . S
C150 C152 1.374 . S
C150 H177 0.931 1_545 S
C151 C152 1.359 . S
C151 C153 1.364 . S
C152 C150 1.374 . S
C152 C151 1.359 . S
C152 H178 0.931 1_545 S
C153 C149 1.389 . S
C153 C151 1.364 . S
C153 H179 0.931 . S
C154 O168 1.256 . S
C154 O169 1.257 . S
C155 O170 1.240 1_545 S
C155 O171 1.240 . S
C156 Gd145 2.818 . S
C156 C157 1.510 . S
C156 O172 1.249 . S
C156 O173 1.252 . S
C157 C156 1.510 . S
C157 C158 1.404 . S
C157 C159 1.352 . S
C158 C157 1.404 . S
C158 C162 1.389 . S
C158 H180 0.930 . S
C159 C157 1.352 . S
C159 C161 1.374 . S
C159 H181 0.931 1_565 S
C160 C161 1.359 . S
C160 C162 1.364 . S
C161 C159 1.374 . S
C161 C160 1.359 . S
C161 H182 0.931 1_565 S
C162 C158 1.389 . S
C162 C160 1.364 . S
C162 H183 0.931 . S
C163 O174 1.256 . S
C163 O175 1.257 . S
O164 Gd144 2.377 . S
O164 C146 1.240 1_545 S
O165 Gd145 2.395 . S
O165 C146 1.240 . S
O166 Gd144 2.448 . S
O166 C147 1.249 1_556 S
O167 Gd144 2.505 1_554 S
O167 C147 1.252 . S
O168 Gd144 2.435 . S
O168 C154 1.256 . S
O169 Gd144 2.717 . S
O169 Gd145 2.327 1_545 S
O169 C154 1.257 . S
O170 Gd145 2.377 . S
O170 C155 1.240 1_565 S
O171 Gd144 2.395 . S
O171 C155 1.240 . S
O172 Gd145 2.448 . S
O172 C156 1.249 . S
O173 Gd145 2.506 . S
O173 C156 1.252 . S
O174 Gd145 2.435 . S
O174 C163 1.256 . S
O175 Gd144 2.327 1_565 S
O175 Gd145 2.717 . S
O175 C163 1.257 . S
H176 C149 0.930 . S
H177 C150 0.931 1_565 S
H178 C152 0.931 1_565 S
H179 C153 0.931 . S
H180 C158 0.930 . S
H181 C159 0.931 1_545 S
H182 C161 0.931 1_545 S
H183 C162 0.931 . S
Gd184 C187 2.818 1_556 S
Gd184 O204 2.377 . S
Gd184 O206 2.448 . S
Gd184 O207 2.505 1_556 S
Gd184 O208 2.435 . S
Gd184 O209 2.717 . S
Gd184 O211 2.395 . S
Gd184 O215 2.327 . S
Gd185 C196 2.818 . S
Gd185 O205 2.395 . S
Gd185 O209 2.327 . S
Gd185 O210 2.377 . S
Gd185 O212 2.448 . S
Gd185 O213 2.506 . S
Gd185 O214 2.435 . S
Gd185 O215 2.717 . S
C186 O204 1.240 . S
C186 O205 1.240 . S
C187 Gd184 2.818 1_554 S
C187 C188 1.510 . S
C187 O206 1.249 1_554 S
C187 O207 1.252 . S
C188 C187 1.510 . S
C188 C189 1.404 . S
C188 C190 1.352 . S
C189 C188 1.404 . S
C189 C193 1.389 . S
C189 H216 0.930 . S
C190 C188 1.352 . S
C190 C192 1.374 . S
C190 H217 0.931 . S
C191 C192 1.359 . S
C191 C193 1.364 . S
C192 C190 1.374 . S
C192 C191 1.359 . S
C192 H218 0.931 . S
C193 C189 1.389 . S
C193 C191 1.364 . S
C193 H219 0.931 . S
C194 O208 1.256 . S
C194 O209 1.257 . S
C195 O210 1.240 . S
C195 O211 1.240 . S
C196 Gd185 2.818 . S
C196 C197 1.510 . S
C196 O212 1.249 . S
C196 O213 1.252 . S
C197 C196 1.510 . S
C197 C198 1.404 . S
C197 C199 1.352 . S
C198 C197 1.404 . S
C198 C202 1.389 . S
C198 H220 0.930 . S
C199 C197 1.352 . S
C199 C201 1.374 . S
C199 H221 0.931 . S
C200 C201 1.359 . S
C200 C202 1.364 . S
C201 C199 1.374 . S
C201 C200 1.359 . S
C201 H222 0.931 . S
C202 C198 1.389 . S
C202 C200 1.364 . S
C202 H223 0.931 . S
C203 O214 1.256 . S
C203 O215 1.257 . S
O204 Gd184 2.377 . S
O204 C186 1.240 . S
O205 Gd185 2.395 . S
O205 C186 1.240 . S
O206 Gd184 2.448 . S
O206 C187 1.249 1_556 S
O207 Gd184 2.505 1_554 S
O207 C187 1.252 . S
O208 Gd184 2.435 . S
O208 C194 1.256 . S
O209 Gd184 2.717 . S
O209 Gd185 2.327 . S
O209 C194 1.257 . S
O210 Gd185 2.377 . S
O210 C195 1.240 . S
O211 Gd184 2.395 . S
O211 C195 1.240 . S
O212 Gd185 2.448 . S
O212 C196 1.249 . S
O213 Gd185 2.506 . S
O213 C196 1.252 . S
O214 Gd185 2.435 . S
O214 C203 1.256 . S
O215 Gd184 2.327 . S
O215 Gd185 2.717 . S
O215 C203 1.257 . S
H216 C189 0.930 . S
H217 C190 0.931 . S
H218 C192 0.931 . S
H219 C193 0.931 . S
H220 C198 0.930 . S
H221 C199 0.931 . S
H222 C201 0.931 . S
H223 C202 0.931 . S
Gd224 C227 2.818 1_556 S
Gd224 O244 2.377 . S
Gd224 O246 2.448 . S
Gd224 O247 2.506 1_556 S
Gd224 O248 2.435 . S
Gd224 O249 2.717 1_655 S
Gd224 O251 2.395 1_655 S
Gd224 O255 2.327 . S
Gd225 C236 2.818 . S
Gd225 O245 2.395 1_455 S
Gd225 O249 2.327 . S
Gd225 O250 2.377 . S
Gd225 O252 2.448 . S
Gd225 O253 2.506 . S
Gd225 O254 2.435 . S
Gd225 O255 2.717 1_455 S
C226 O244 1.240 . S
C226 O245 1.240 . S
C227 Gd224 2.818 1_554 S
C227 C228 1.510 . S
C227 O246 1.249 1_554 S
C227 O247 1.252 . S
C228 C227 1.510 . S
C228 C229 1.404 . S
C228 C230 1.352 . S
C229 C228 1.404 . S
C229 C233 1.389 . S
C229 H256 0.930 . S
C230 C228 1.352 . S
C230 C232 1.374 . S
C230 H257 0.931 . S
C231 C232 1.359 . S
C231 C233 1.364 . S
C232 C230 1.374 . S
C232 C231 1.359 . S
C232 H258 0.931 . S
C233 C229 1.389 . S
C233 C231 1.364 . S
C233 H259 0.931 . S
C234 O248 1.278 . S
C234 O249 1.246 1_655 S
C235 O250 1.240 . S
C235 O251 1.240 . S
C236 Gd225 2.818 . S
C236 C237 1.510 . S
C236 O252 1.249 . S
C236 O253 1.252 . S
C237 C236 1.510 . S
C237 C238 1.404 . S
C237 C239 1.352 . S
C238 C237 1.404 . S
C238 C242 1.389 . S
C238 H260 0.930 . S
C239 C237 1.352 . S
C239 C241 1.374 . S
C239 H261 0.931 . S
C240 C241 1.359 . S
C240 C242 1.364 . S
C241 C239 1.374 . S
C241 C240 1.359 . S
C241 H262 0.931 . S
C242 C238 1.389 . S
C242 C240 1.364 . S
C242 H263 0.931 . S
C243 O254 1.256 . S
C243 O255 1.257 1_455 S
O244 Gd224 2.377 . S
O244 C226 1.240 . S
O245 Gd225 2.395 1_655 S
O245 C226 1.240 . S
O246 Gd224 2.448 . S
O246 C227 1.249 1_556 S
O247 Gd224 2.506 1_554 S
O247 C227 1.252 . S
O248 Gd224 2.435 . S
O248 C234 1.278 . S
O249 Gd224 2.717 1_455 S
O249 Gd225 2.327 . S
O249 C234 1.246 1_455 S
O250 Gd225 2.377 . S
O250 C235 1.240 . S
O251 Gd224 2.395 1_455 S
O251 C235 1.240 . S
O252 Gd225 2.448 . S
O252 C236 1.249 . S
O253 Gd225 2.506 . S
O253 C236 1.252 . S
O254 Gd225 2.435 . S
O254 C243 1.256 . S
O255 Gd224 2.327 . S
O255 Gd225 2.717 1_655 S
O255 C243 1.257 1_655 S
H256 C229 0.930 . S
H257 C230 0.931 . S
H258 C232 0.931 . S
H259 C233 0.931 . S
H260 C238 0.930 . S
H261 C239 0.931 . S
H262 C241 0.931 . S
H263 C242 0.931 . S
H264 C276 0.930 . S
H265 C278 0.930 . S
H266 C279 0.930 . S
H267 C283 0.959 . S
H268 C283 0.959 . S
H269 C283 0.961 . S
H270 C284 0.960 . S
H271 C284 0.961 . S
H272 C284 0.959 . S
H273 C287 0.929 . S
H274 C288 0.931 . S
H275 C290 0.930 . S
C276 H264 0.930 . S
C276 C277 1.399 1_565 S
C276 C281 1.399 . S
C277 C276 1.399 1_545 S
C277 C278 1.376 . S
C278 H265 0.930 . S
C278 C277 1.376 . S
C278 C279 1.388 . S
C279 H266 0.930 . S
C279 C278 1.388 . S
C279 C280 1.390 . S
C280 C279 1.390 . S
C280 C281 1.394 1_545 S
C280 C286 1.465 . S
C281 C276 1.399 . S
C281 C280 1.394 1_565 S
C281 C282 1.516 . S
C282 C281 1.516 . S
C282 C283 1.502 . S
C282 C284 1.561 . S
C282 C285 1.526 . S
C283 H267 0.959 . S
C283 H268 0.959 . S
C283 H269 0.961 . S
C283 C282 1.502 . S
C284 H270 0.960 . S
C284 H271 0.961 . S
C284 H272 0.959 . S
C284 C282 1.561 . S
C285 C282 1.526 . S
C285 C286 1.396 1_565 S
C285 C290 1.390 . S
C286 C280 1.465 . S
C286 C285 1.396 1_545 S
C286 C287 1.399 . S
C287 H273 0.929 . S
C287 C286 1.399 . S
C287 C288 1.385 . S
C288 H274 0.931 . S
C288 C287 1.385 . S
C288 C289 1.389 . S
C289 C288 1.389 . S
C289 C290 1.387 1_545 S
C290 H275 0.930 . S
C290 C285 1.390 . S
C290 C289 1.387 1_565 S
H291 C303 0.930 . S
H292 C305 0.930 . S
H293 C306 0.930 . S
H294 C310 0.959 . S
H295 C310 0.959 . S
H296 C310 0.961 . S
H297 C311 0.960 . S
H298 C311 0.961 . S
H299 C311 0.959 . S
H300 C314 0.929 . S
H301 C315 0.931 . S
H302 C317 0.930 . S
C303 H291 0.930 . S
C303 C304 1.399 . S
C303 C308 1.399 . S
C304 C303 1.399 . S
C304 C305 1.376 . S
C305 H292 0.930 . S
C305 C304 1.376 . S
C305 C306 1.388 . S
C306 H293 0.930 . S
C306 C305 1.388 . S
C306 C307 1.390 . S
C307 C306 1.390 . S
C307 C308 1.394 . S
C307 C313 1.465 . S
C308 C303 1.399 . S
C308 C307 1.394 . S
C308 C309 1.516 . S
C309 C308 1.516 . S
C309 C310 1.502 . S
C309 C311 1.561 . S
C309 C312 1.526 . S
C310 H294 0.959 . S
C310 H295 0.959 . S
C310 H296 0.961 . S
C310 C309 1.502 . S
C311 H297 0.960 . S
C311 H298 0.961 . S
C311 H299 0.959 . S
C311 C309 1.561 . S
C312 C309 1.526 . S
C312 C313 1.396 . S
C312 C317 1.390 . S
C313 C307 1.465 . S
C313 C312 1.396 . S
C313 C314 1.399 . S
C314 H300 0.929 . S
C314 C313 1.399 . S
C314 C315 1.385 . S
C315 H301 0.931 . S
C315 C314 1.385 . S
C315 C316 1.389 . S
C316 C315 1.389 . S
C316 C317 1.387 . S
C317 H302 0.930 . S
C317 C312 1.390 . S
C317 C316 1.387 . S
H318 C330 0.930 . S
H319 C332 0.930 . S
H320 C333 0.930 . S
H321 C337 0.959 . S
H322 C337 0.959 . S
H323 C337 0.961 . S
H324 C338 0.960 . S
H325 C338 0.961 . S
H326 C338 0.959 . S
H327 C341 0.929 . S
H328 C342 0.931 . S
H329 C344 0.930 . S
C330 H318 0.930 . S
C330 C331 1.399 . S
C330 C335 1.399 . S
C331 C330 1.399 . S
C331 C332 1.376 . S
C332 H319 0.930 . S
C332 C331 1.376 . S
C332 C333 1.388 . S
C333 H320 0.930 . S
C333 C332 1.388 . S
C333 C334 1.390 . S
C334 C333 1.390 . S
C334 C335 1.394 . S
C334 C340 1.465 . S
C335 C330 1.399 . S
C335 C334 1.394 . S
C335 C336 1.516 . S
C336 C335 1.516 . S
C336 C337 1.502 . S
C336 C338 1.561 . S
C336 C339 1.526 . S
C337 H321 0.959 . S
C337 H322 0.959 . S
C337 H323 0.961 . S
C337 C336 1.502 . S
C338 H324 0.960 . S
C338 H325 0.961 . S
C338 H326 0.959 . S
C338 C336 1.561 . S
C339 C336 1.526 . S
C339 C340 1.396 . S
C339 C344 1.390 . S
C340 C334 1.465 . S
C340 C339 1.396 . S
C340 C341 1.399 . S
C341 H327 0.929 . S
C341 C340 1.399 . S
C341 C342 1.385 . S
C342 H328 0.931 . S
C342 C341 1.385 . S
C342 C343 1.389 . S
C343 C342 1.389 . S
C343 C344 1.387 . S
C344 H329 0.930 . S
C344 C339 1.390 . S
C344 C343 1.387 . S
H345 C357 0.930 . S
H346 C359 0.930 . S
H347 C360 0.930 . S
H348 C364 0.959 . S
H349 C364 0.959 . S
H350 C364 0.961 . S
H351 C365 0.960 . S
H352 C365 0.961 . S
H353 C365 0.959 . S
H354 C368 0.929 . S
H355 C369 0.931 . S
H356 C371 0.930 . S
C357 H345 0.930 . S
C357 C358 1.399 1_455 S
C357 C362 1.399 . S
C358 C357 1.399 1_655 S
C358 C359 1.376 . S
C359 H346 0.930 . S
C359 C358 1.376 . S
C359 C360 1.388 . S
C360 H347 0.930 . S
C360 C359 1.388 . S
C360 C361 1.390 . S
C361 C360 1.390 . S
C361 C362 1.394 1_655 S
C361 C367 1.465 . S
C362 C357 1.399 . S
C362 C361 1.394 1_455 S
C362 C363 1.516 . S
C363 C362 1.516 . S
C363 C364 1.502 . S
C363 C365 1.561 . S
C363 C366 1.526 . S
C364 H348 0.959 . S
C364 H349 0.959 . S
C364 H350 0.961 . S
C364 C363 1.502 . S
C365 H351 0.960 . S
C365 H352 0.961 . S
C365 H353 0.959 . S
C365 C363 1.561 . S
C366 C363 1.526 . S
C366 C367 1.396 1_455 S
C366 C371 1.390 . S
C367 C361 1.465 . S
C367 C366 1.396 1_655 S
C367 C368 1.399 . S
C368 H354 0.929 . S
C368 C367 1.399 . S
C368 C369 1.385 . S
C369 H355 0.931 . S
C369 C368 1.385 . S
C369 C370 1.425 . S
C370 C369 1.425 . S
C370 C371 1.359 1_655 S
C371 H356 0.930 . S
C371 C366 1.390 . S
C371 C370 1.359 1_455 S
H372 C384 0.930 . S
H373 C386 0.930 . S
H374 C387 0.930 . S
H375 C391 0.959 . S
H376 C391 0.959 . S
H377 C391 0.961 . S
H378 C392 0.960 . S
H379 C392 0.961 . S
H380 C392 0.959 . S
H381 C395 0.929 . S
H382 C396 0.931 . S
H383 C398 0.930 1_556 S
C384 H372 0.930 . S
C384 C385 1.399 1_545 S
C384 C389 1.399 . S
C385 C384 1.399 1_565 S
C385 C386 1.376 . S
C386 H373 0.930 . S
C386 C385 1.376 . S
C386 C387 1.388 . S
C387 H374 0.930 . S
C387 C386 1.388 . S
C387 C388 1.390 . S
C388 C387 1.390 . S
C388 C389 1.394 1_565 S
C388 C394 1.465 . S
C389 C384 1.399 . S
C389 C388 1.394 1_545 S
C389 C390 1.516 . S
C390 C389 1.516 . S
C390 C391 1.502 . S
C390 C392 1.561 . S
C390 C393 1.526 . S
C391 H375 0.959 . S
C391 H376 0.959 . S
C391 H377 0.961 . S
C391 C390 1.502 . S
C392 H378 0.960 . S
C392 H379 0.961 . S
C392 H380 0.959 . S
C392 C390 1.561 . S
C393 C390 1.526 . S
C393 C394 1.396 1_545 S
C393 C398 1.390 . S
C394 C388 1.465 . S
C394 C393 1.396 1_565 S
C394 C395 1.399 . S
C395 H381 0.929 . S
C395 C394 1.399 . S
C395 C396 1.385 . S
C396 H382 0.931 . S
C396 C395 1.385 . S
C396 C397 1.389 1_554 S
C397 C396 1.389 1_556 S
C397 C398 1.387 1_566 S
C398 H383 0.930 1_554 S
C398 C393 1.390 . S
C398 C397 1.387 1_544 S
H399 C411 0.930 . S
H400 C413 0.930 . S
H401 C414 0.930 . S
H402 C418 0.959 . S
H403 C418 0.959 . S
H404 C418 0.961 . S
H405 C419 0.960 . S
H406 C419 0.961 . S
H407 C419 0.959 . S
H408 C422 0.929 . S
H409 C423 0.931 . S
H410 C425 0.930 . S
C411 H399 0.930 . S
C411 C412 1.399 . S
C411 C416 1.399 . S
C412 C411 1.399 . S
C412 C413 1.376 . S
C413 H400 0.930 . S
C413 C412 1.376 . S
C413 C414 1.388 . S
C414 H401 0.930 . S
C414 C413 1.388 . S
C414 C415 1.390 . S
C415 C414 1.390 . S
C415 C416 1.394 . S
C415 C421 1.465 . S
C416 C411 1.399 . S
C416 C415 1.394 . S
C416 C417 1.516 . S
C417 C416 1.516 . S
C417 C418 1.502 . S
C417 C419 1.561 . S
C417 C420 1.526 . S
C418 H402 0.959 . S
C418 H403 0.959 . S
C418 H404 0.961 . S
C418 C417 1.502 . S
C419 H405 0.960 . S
C419 H406 0.961 . S
C419 H407 0.959 . S
C419 C417 1.561 . S
C420 C417 1.526 . S
C420 C421 1.396 . S
C420 C425 1.390 . S
C421 C415 1.465 . S
C421 C420 1.396 . S
C421 C422 1.399 1_554 S
C422 H408 0.929 . S
C422 C421 1.399 1_556 S
C422 C423 1.385 . S
C423 H409 0.931 . S
C423 C422 1.385 . S
C423 C424 1.389 . S
C424 C423 1.389 . S
C424 C425 1.387 1_556 S
C425 H410 0.930 . S
C425 C420 1.390 . S
C425 C424 1.387 1_554 S
H426 C438 0.930 . S
H427 C440 0.930 . S
H428 C441 0.930 . S
H429 C445 0.959 . S
H430 C445 0.959 . S
H431 C445 0.961 . S
H432 C446 0.960 . S
H433 C446 0.961 . S
H434 C446 0.959 . S
H435 C449 0.929 . S
H436 C450 0.930 1_556 S
H437 C452 0.930 1_556 S
C438 H426 0.930 . S
C438 C439 1.399 . S
C438 C443 1.399 . S
C439 C438 1.399 . S
C439 C440 1.376 . S
C440 H427 0.930 . S
C440 C439 1.376 . S
C440 C441 1.388 . S
C441 H428 0.930 . S
C441 C440 1.388 . S
C441 C442 1.390 . S
C442 C441 1.390 . S
C442 C443 1.394 . S
C442 C448 1.465 . S
C443 C438 1.399 . S
C443 C442 1.394 . S
C443 C444 1.516 . S
C444 C443 1.516 . S
C444 C445 1.502 . S
C444 C446 1.561 . S
C444 C447 1.526 . S
C445 H429 0.959 . S
C445 H430 0.959 . S
C445 H431 0.961 . S
C445 C444 1.502 . S
C446 H432 0.960 . S
C446 H433 0.961 . S
C446 H434 0.959 . S
C446 C444 1.561 . S
C447 C444 1.526 . S
C447 C448 1.396 . S
C447 C452 1.390 . S
C448 C442 1.465 . S
C448 C447 1.396 . S
C448 C449 1.399 . S
C449 H435 0.929 . S
C449 C448 1.399 . S
C449 C450 1.385 . S
C450 H436 0.930 1_554 S
C450 C449 1.385 . S
C450 C451 1.389 1_554 S
C451 C450 1.389 1_556 S
C451 C452 1.387 1_556 S
C452 H437 0.930 1_554 S
C452 C447 1.390 . S
C452 C451 1.387 1_554 S
H453 C465 0.930 . S
H454 C467 0.930 . S
H455 C468 0.930 . S
H456 C472 0.959 . S
H457 C472 0.959 . S
H458 C472 0.961 . S
H459 C473 0.960 . S
H460 C473 0.961 . S
H461 C473 0.959 . S
H462 C476 0.929 1_556 S
H463 C477 0.931 . S
H464 C479 0.930 . S
C465 H453 0.930 . S
C465 C466 1.384 1_655 S
C465 C470 1.399 . S
C466 C465 1.384 1_455 S
C466 C467 1.394 . S
C467 H454 0.930 . S
C467 C466 1.394 . S
C467 C468 1.388 . S
C468 H455 0.930 . S
C468 C467 1.388 . S
C468 C469 1.390 . S
C469 C468 1.390 . S
C469 C470 1.394 1_455 S
C469 C475 1.465 . S
C470 C465 1.399 . S
C470 C469 1.394 1_655 S
C470 C471 1.516 . S
C471 C470 1.516 . S
C471 C472 1.502 . S
C471 C473 1.561 . S
C471 C474 1.526 . S
C472 H456 0.959 . S
C472 H457 0.959 . S
C472 H458 0.961 . S
C472 C471 1.502 . S
C473 H459 0.960 . S
C473 H460 0.961 . S
C473 H461 0.959 . S
C473 C471 1.561 . S
C474 C471 1.526 . S
C474 C475 1.396 1_655 S
C474 C479 1.390 . S
C475 C469 1.465 . S
C475 C474 1.396 1_455 S
C475 C476 1.399 . S
C476 H462 0.929 1_554 S
C476 C475 1.399 . S
C476 C477 1.385 1_554 S
C477 H463 0.931 . S
C477 C476 1.385 1_556 S
C477 C478 1.386 1_455 S
C478 C477 1.386 1_655 S
C478 C479 1.389 1_556 S
C479 H464 0.930 . S
C479 C474 1.390 . S
C479 C478 1.389 1_554 S
H480 C492 0.930 . S
H481 C494 0.930 1_556 S
H482 C495 0.930 . S
H483 C499 0.959 . S
H484 C499 0.959 . S
H485 C499 0.961 . S
H486 C500 0.960 . S
H487 C500 0.961 . S
H488 C500 0.959 . S
H489 C503 0.929 . S
H490 C504 0.931 . S
H491 C506 0.930 . S
C492 H480 0.930 . S
C492 C493 1.393 1_455 S
C492 C497 1.399 1_455 S
C493 C492 1.393 1_655 S
C493 C494 1.391 . S
C494 H481 0.930 1_554 S
C494 C493 1.391 . S
C494 C495 1.388 . S
C495 H482 0.930 . S
C495 C494 1.388 . S
C495 C496 1.390 . S
C496 C495 1.390 . S
C496 C497 1.394 . S
C496 C502 1.465 . S
C497 C492 1.399 1_655 S
C497 C496 1.394 . S
C497 C498 1.516 . S
C498 C497 1.516 . S
C498 C499 1.502 1_655 S
C498 C500 1.561 . S
C498 C501 1.526 . S
C499 H483 0.959 . S
C499 H484 0.959 . S
C499 H485 0.961 . S
C499 C498 1.502 1_455 S
C500 H486 0.960 . S
C500 H487 0.961 . S
C500 H488 0.959 . S
C500 C498 1.561 . S
C501 C498 1.526 . S
C501 C502 1.396 . S
C501 C506 1.390 . S
C502 C496 1.465 . S
C502 C501 1.396 . S
C502 C503 1.399 . S
C503 H489 0.929 . S
C503 C502 1.399 . S
C503 C504 1.385 . S
C504 H490 0.931 . S
C504 C503 1.385 . S
C504 C505 1.389 . S
C505 C504 1.389 . S
C505 C506 1.387 . S
C506 H491 0.930 . S
C506 C501 1.390 . S
C506 C505 1.387 . S
H507 C519 0.930 . S
H508 C521 0.930 . S
H509 C522 0.930 . S
H510 C526 0.959 . S
H511 C526 0.959 . S
H512 C526 0.961 . S
H513 C527 0.960 . S
H514 C527 0.961 . S
H515 C527 0.959 . S
H516 C530 0.932 . S
H517 C531 0.931 . S
H518 C533 0.930 . S
C519 H507 0.930 . S
C519 C520 1.399 1_565 S
C519 C524 1.399 . S
C520 C519 1.399 1_545 S
C520 C521 1.376 . S
C521 H508 0.930 . S
C521 C520 1.376 . S
C521 C522 1.388 . S
C522 H509 0.930 . S
C522 C521 1.388 . S
C522 C523 1.390 1_545 S
C523 C522 1.390 1_565 S
C523 C524 1.394 . S
C523 C529 1.465 . S
C524 C519 1.399 . S
C524 C523 1.394 . S
C524 C525 1.516 . S
C525 C524 1.516 . S
C525 C526 1.502 . S
C525 C527 1.561 . S
C525 C528 1.526 . S
C526 H510 0.959 . S
C526 H511 0.959 . S
C526 H512 0.961 . S
C526 C525 1.502 . S
C527 H513 0.960 . S
C527 H514 0.961 . S
C527 H515 0.959 . S
C527 C525 1.561 . S
C528 C525 1.526 . S
C528 C529 1.396 . S
C528 C533 1.390 . S
C529 C523 1.465 . S
C529 C528 1.396 . S
C529 C530 1.397 1_565 S
C530 H516 0.932 . S
C530 C529 1.397 1_545 S
C530 C531 1.384 1_545 S
C531 H517 0.931 . S
C531 C530 1.384 1_565 S
C531 C532 1.389 . S
C532 C531 1.389 . S
C532 C533 1.387 . S
C533 H518 0.930 . S
C533 C528 1.390 . S
C533 C532 1.387 . S
H534 C546 0.930 . S
H535 C548 0.930 1_556 S
H536 C549 0.930 1_556 S
H537 C553 0.959 . S
H538 C553 0.959 . S
H539 C553 0.961 . S
H540 C554 0.960 . S
H541 C554 0.961 . S
H542 C554 0.959 . S
H543 C557 0.929 . S
H544 C558 0.931 . S
H545 C560 0.930 . S
C546 H534 0.930 . S
C546 C547 1.399 . S
C546 C551 1.399 . S
C547 C546 1.399 . S
C547 C548 1.376 . S
C548 H535 0.930 1_554 S
C548 C547 1.376 . S
C548 C549 1.388 . S
C549 H536 0.930 1_554 S
C549 C548 1.388 . S
C549 C550 1.390 . S
C550 C549 1.390 . S
C550 C551 1.394 . S
C550 C556 1.465 . S
C551 C546 1.399 . S
C551 C550 1.394 . S
C551 C552 1.516 . S
C552 C551 1.516 . S
C552 C553 1.502 . S
C552 C554 1.561 . S
C552 C555 1.526 . S
C553 H537 0.959 . S
C553 H538 0.959 . S
C553 H539 0.961 . S
C553 C552 1.502 . S
C554 H540 0.960 . S
C554 H541 0.961 . S
C554 H542 0.959 . S
C554 C552 1.561 . S
C555 C552 1.526 . S
C555 C556 1.396 . S
C555 C560 1.390 . S
C556 C550 1.465 . S
C556 C555 1.396 . S
C556 C557 1.399 . S
C557 H543 0.929 . S
C557 C556 1.399 . S
C557 C558 1.385 . S
C558 H544 0.931 . S
C558 C557 1.385 . S
C558 C559 1.389 . S
C559 C558 1.389 . S
C559 C560 1.387 . S
C560 H545 0.930 . S
C560 C555 1.390 . S
C560 C559 1.387 . S
H561 C573 0.930 . S
H562 C575 0.930 . S
H563 C576 0.930 . S
H564 C580 0.959 . S
H565 C580 0.959 . S
H566 C580 0.961 1_556 S
H567 C581 0.960 . S
H568 C581 0.961 . S
H569 C581 0.959 . S
H570 C584 0.929 . S
H571 C585 0.931 . S
H572 C587 0.930 . S
C573 H561 0.930 . S
C573 C574 1.399 . S
C573 C578 1.399 . S
C574 C573 1.399 . S
C574 C575 1.376 . S
C575 H562 0.930 . S
C575 C574 1.376 . S
C575 C576 1.388 . S
C576 H563 0.930 . S
C576 C575 1.388 . S
C576 C577 1.390 . S
C577 C576 1.390 . S
C577 C578 1.394 . S
C577 C583 1.465 . S
C578 C573 1.399 . S
C578 C577 1.394 . S
C578 C579 1.516 . S
C579 C578 1.516 . S
C579 C580 1.502 . S
C579 C581 1.561 . S
C579 C582 1.526 . S
C580 H564 0.959 . S
C580 H565 0.959 . S
C580 H566 0.961 1_554 S
C580 C579 1.502 . S
C581 H567 0.960 . S
C581 H568 0.961 . S
C581 H569 0.959 . S
C581 C579 1.561 . S
C582 C579 1.526 . S
C582 C583 1.396 . S
C582 C587 1.390 . S
C583 C577 1.465 . S
C583 C582 1.396 . S
C583 C584 1.399 . S
C584 H570 0.929 . S
C584 C583 1.399 . S
C584 C585 1.385 . S
C585 H571 0.931 . S
C585 C584 1.385 . S
C585 C586 1.389 . S
C586 C585 1.389 . S
C586 C587 1.387 . S
C587 H572 0.930 . S
C587 C582 1.390 . S
C587 C586 1.387 . S
H588 C600 0.930 . S
H589 C602 0.930 . S
H590 C603 0.930 . S
H591 C607 0.959 . S
H592 C607 0.959 . S
H593 C607 0.961 . S
H594 C608 0.960 . S
H595 C608 0.961 . S
H596 C608 0.959 . S
H597 C611 0.929 . S
H598 C612 0.931 . S
H599 C614 0.930 . S
C600 H588 0.930 . S
C600 C601 1.388 1_655 S
C600 C605 1.404 . S
C601 C600 1.388 1_455 S
C601 C602 1.398 . S
C602 H589 0.930 . S
C602 C601 1.398 . S
C602 C603 1.388 . S
C603 H590 0.930 . S
C603 C602 1.388 . S
C603 C604 1.390 . S
C604 C603 1.390 . S
C604 C605 1.384 1_455 S
C604 C610 1.465 . S
C605 C600 1.404 . S
C605 C604 1.384 1_655 S
C605 C606 1.520 . S
C606 C605 1.520 . S
C606 C607 1.502 . S
C606 C608 1.561 . S
C606 C609 1.526 1_655 S
C607 H591 0.959 . S
C607 H592 0.959 . S
C607 H593 0.961 . S
C607 C606 1.502 . S
C608 H594 0.960 . S
C608 H595 0.961 . S
C608 H596 0.959 . S
C608 C606 1.561 . S
C609 C606 1.526 1_455 S
C609 C610 1.396 . S
C609 C614 1.390 . S
C610 C604 1.465 . S
C610 C609 1.396 . S
C610 C611 1.399 . S
C611 H597 0.929 . S
C611 C610 1.399 . S
C611 C612 1.385 . S
C612 H598 0.931 . S
C612 C611 1.385 . S
C612 C613 1.389 . S
C613 C612 1.389 . S
C613 C614 1.387 . S
C614 H599 0.930 . S
C614 C609 1.390 . S
C614 C613 1.387 . S
H615 C627 0.930 . S
H616 C629 0.930 . S
H617 C630 0.930 . S
H618 C634 0.959 . S
H619 C634 0.959 . S
H620 C634 0.961 . S
H621 C635 0.960 . S
H622 C635 0.961 . S
H623 C635 0.959 . S
H624 C638 0.929 . S
H625 C639 0.931 . S
H626 C641 0.930 . S
C627 H615 0.930 . S
C627 C628 1.398 1_565 S
C627 C632 1.399 1_565 S
C628 C627 1.398 1_545 S
C628 C629 1.380 . S
C629 H616 0.930 . S
C629 C628 1.380 . S
C629 C630 1.388 . S
C630 H617 0.930 . S
C630 C629 1.388 . S
C630 C631 1.390 . S
C631 C630 1.390 . S
C631 C632 1.394 . S
C631 C637 1.465 . S
C632 C627 1.399 1_545 S
C632 C631 1.394 . S
C632 C633 1.516 . S
C633 C632 1.516 . S
C633 C634 1.502 1_545 S
C633 C635 1.561 . S
C633 C636 1.526 . S
C634 H618 0.959 . S
C634 H619 0.959 . S
C634 H620 0.961 . S
C634 C633 1.502 1_565 S
C635 H621 0.960 . S
C635 H622 0.961 . S
C635 H623 0.959 . S
C635 C633 1.561 . S
C636 C633 1.526 . S
C636 C637 1.396 . S
C636 C641 1.390 . S
C637 C631 1.465 . S
C637 C636 1.396 . S
C637 C638 1.399 . S
C638 H624 0.929 . S
C638 C637 1.399 . S
C638 C639 1.385 . S
C639 H625 0.931 . S
C639 C638 1.385 . S
C639 C640 1.389 . S
C640 C639 1.389 . S
C640 C641 1.387 . S
C641 H626 0.930 . S
C641 C636 1.390 . S
C641 C640 1.387 . S
H642 C654 0.930 . S
H643 C656 0.930 . S
H644 C657 0.930 . S
H645 C661 0.959 . S
H646 C661 0.959 . S
H647 C661 0.961 . S
H648 C662 0.960 . S
H649 C662 0.961 . S
H650 C662 0.959 . S
H651 C665 0.929 . S
H652 C666 0.931 . S
H653 C668 0.930 . S
C654 H642 0.930 . S
C654 C655 1.399 . S
C654 C659 1.399 . S
C655 C654 1.399 . S
C655 C656 1.376 . S
C656 H643 0.930 . S
C656 C655 1.376 . S
C656 C657 1.388 . S
C657 H644 0.930 . S
C657 C656 1.388 . S
C657 C658 1.390 . S
C658 C657 1.390 . S
C658 C659 1.394 . S
C658 C664 1.465 . S
C659 C654 1.399 . S
C659 C658 1.394 . S
C659 C660 1.516 . S
C660 C659 1.516 . S
C660 C661 1.502 . S
C660 C662 1.561 . S
C660 C663 1.526 . S
C661 H645 0.959 . S
C661 H646 0.959 . S
C661 H647 0.961 . S
C661 C660 1.502 . S
C662 H648 0.960 . S
C662 H649 0.961 . S
C662 H650 0.959 . S
C662 C660 1.561 . S
C663 C660 1.526 . S
C663 C664 1.396 . S
C663 C668 1.390 . S
C664 C658 1.465 . S
C664 C663 1.396 . S
C664 C665 1.399 . S
C665 H651 0.929 . S
C665 C664 1.399 . S
C665 C666 1.385 . S
C666 H652 0.931 . S
C666 C665 1.385 . S
C666 C667 1.389 . S
C667 C666 1.389 . S
C667 C668 1.387 . S
C668 H653 0.930 . S
C668 C663 1.390 . S
C668 C667 1.387 . S
H669 C681 0.930 . S
H670 C683 0.930 . S
H671 C684 0.930 . S
H672 C688 0.959 . S
H673 C688 0.959 . S
H674 C688 0.961 . S
H675 C689 0.960 . S
H676 C689 0.961 . S
H677 C689 0.959 . S
H678 C692 0.929 . S
H679 C693 0.931 . S
H680 C695 0.930 . S
C681 H669 0.930 . S
C681 C682 1.399 . S
C681 C686 1.399 . S
C682 C681 1.399 . S
C682 C683 1.376 . S
C683 H670 0.930 . S
C683 C682 1.376 . S
C683 C684 1.388 . S
C684 H671 0.930 . S
C684 C683 1.388 . S
C684 C685 1.390 . S
C685 C684 1.390 . S
C685 C686 1.394 . S
C685 C691 1.465 . S
C686 C681 1.399 . S
C686 C685 1.394 . S
C686 C687 1.516 . S
C687 C686 1.516 . S
C687 C688 1.502 . S
C687 C689 1.561 . S
C687 C690 1.526 . S
C688 H672 0.959 . S
C688 H673 0.959 . S
C688 H674 0.961 . S
C688 C687 1.502 . S
C689 H675 0.960 . S
C689 H676 0.961 . S
C689 H677 0.959 . S
C689 C687 1.561 . S
C690 C687 1.526 . S
C690 C691 1.396 . S
C690 C695 1.390 . S
C691 C685 1.465 . S
C691 C690 1.396 . S
C691 C692 1.399 . S
C692 H678 0.929 . S
C692 C691 1.399 . S
C692 C693 1.385 . S
C693 H679 0.931 . S
C693 C692 1.385 . S
C693 C694 1.389 . S
C694 C693 1.389 . S
C694 C695 1.387 . S
C695 H680 0.930 . S
C695 C690 1.390 . S
C695 C694 1.387 . S
H696 C708 0.930 1_554 S
H697 C710 0.930 . S
H698 C711 0.930 . S
H699 C715 0.959 1_556 S
H700 C715 0.959 . S
H701 C715 0.961 . S
H702 C716 0.960 . S
H703 C716 0.961 . S
H704 C716 0.959 . S
H705 C719 0.929 . S
H706 C720 0.925 1_655 S
H707 C722 0.930 . S
C708 H696 0.930 1_556 S
C708 C709 1.401 . S
C708 C713 1.399 . S
C709 C708 1.401 . S
C709 C710 1.375 1_455 S
C710 H697 0.930 . S
C710 C709 1.375 1_655 S
C710 C711 1.388 . S
C711 H698 0.930 . S
C711 C710 1.388 . S
C711 C712 1.390 . S
C712 C711 1.390 . S
C712 C713 1.394 1_655 S
C712 C718 1.465 1_655 S
C713 C708 1.399 . S
C713 C712 1.394 1_455 S
C713 C714 1.516 1_556 S
C714 C713 1.516 1_554 S
C714 C715 1.502 . S
C714 C716 1.561 1_455 S
C714 C717 1.526 1_554 S
C715 H699 0.959 1_554 S
C715 H700 0.959 . S
C715 H701 0.961 . S
C715 C714 1.502 . S
C716 H702 0.960 . S
C716 H703 0.961 . S
C716 H704 0.959 . S
C716 C714 1.561 1_655 S
C717 C714 1.526 1_556 S
C717 C718 1.396 . S
C717 C722 1.390 . S
C718 C712 1.465 1_455 S
C718 C717 1.396 . S
C718 C719 1.399 1_455 S
C719 H705 0.929 . S
C719 C718 1.399 1_655 S
C719 C720 1.378 1_655 S
C720 H706 0.925 1_455 S
C720 C719 1.378 1_455 S
C720 C721 1.404 . S
C721 C720 1.404 . S
C721 C722 1.387 . S
C722 H707 0.930 . S
C722 C717 1.390 . S
C722 C721 1.387 . S
H723 C735 0.930 1_554 S
H724 C737 0.930 . S
H725 C738 0.930 . S
H726 C742 0.959 . S
H727 C742 0.959 1_554 S
H728 C742 0.961 1_554 S
H729 C743 0.960 . S
H730 C743 0.961 . S
H731 C743 1.001 . S
H732 C746 0.929 . S
H733 C747 0.931 . S
H734 C749 0.930 . S
C735 H723 0.930 1_556 S
C735 C736 1.386 1_545 S
C735 C740 1.399 . S
C736 C735 1.386 1_565 S
C736 C737 1.392 . S
C737 H724 0.930 . S
C737 C736 1.392 . S
C737 C738 1.388 . S
C738 H725 0.930 . S
C738 C737 1.388 . S
C738 C739 1.390 . S
C739 C738 1.390 . S
C739 C740 1.394 1_565 S
C739 C745 1.465 . S
C740 C735 1.399 . S
C740 C739 1.394 1_545 S
C740 C741 1.516 . S
C741 C740 1.516 . S
C741 C742 1.502 . S
C741 C743 1.561 1_556 S
C741 C744 1.526 . S
C742 H726 0.959 . S
C742 H727 0.959 1_556 S
C742 H728 0.961 1_556 S
C742 C741 1.502 . S
C743 H729 0.960 . S
C743 H730 0.961 . S
C743 H731 1.001 . S
C743 C741 1.561 1_554 S
C744 C741 1.526 . S
C744 C745 1.396 1_545 S
C744 C749 1.390 . S
C745 C739 1.465 . S
C745 C744 1.396 1_565 S
C745 C746 1.399 . S
C746 H732 0.929 . S
C746 C745 1.399 . S
C746 C747 1.385 . S
C747 H733 0.931 . S
C747 C746 1.385 . S
C747 C748 1.389 1_565 S
C748 C747 1.389 1_545 S
C748 C749 1.387 . S
C749 H734 0.930 . S
C749 C744 1.390 . S
C749 C748 1.387 . S
H750 C762 0.930 . S
H751 C764 0.930 . S
H752 C765 0.930 . S
H753 C769 0.959 . S
H754 C769 0.959 . S
H755 C769 0.961 . S
H756 C770 0.960 . S
H757 C770 0.961 . S
H758 C770 0.959 . S
H759 C773 0.929 1_554 S
H760 C774 0.937 . S
H761 C776 0.930 . S
C762 H750 0.930 . S
C762 C763 1.399 . S
C762 C767 1.399 . S
C763 C762 1.399 . S
C763 C764 1.376 1_556 S
C764 H751 0.930 . S
C764 C763 1.376 1_554 S
C764 C765 1.388 . S
C765 H752 0.930 . S
C765 C764 1.388 . S
C765 C766 1.390 1_554 S
C766 C765 1.390 1_556 S
C766 C767 1.394 . S
C766 C772 1.465 . S
C767 C762 1.399 . S
C767 C766 1.394 . S
C767 C768 1.516 . S
C768 C767 1.516 . S
C768 C769 1.502 . S
C768 C770 1.561 . S
C768 C771 1.526 . S
C769 H753 0.959 . S
C769 H754 0.959 . S
C769 H755 0.961 . S
C769 C768 1.502 . S
C770 H756 0.960 . S
C770 H757 0.961 . S
C770 H758 0.959 . S
C770 C768 1.561 . S
C771 C768 1.526 . S
C771 C772 1.396 . S
C771 C776 1.390 . S
C772 C766 1.465 . S
C772 C771 1.396 . S
C772 C773 1.399 . S
C773 H759 0.929 1_556 S
C773 C772 1.399 . S
C773 C774 1.385 . S
C774 H760 0.937 . S
C774 C773 1.385 . S
C774 C775 1.389 . S
C775 C774 1.389 . S
C775 C776 1.387 . S
C776 H761 0.930 . S
C776 C771 1.390 . S
C776 C775 1.387 . S
H777 C789 0.930 1_554 S
H778 C791 0.930 . S
H779 C792 0.930 . S
H780 C796 0.959 1_556 S
H781 C796 0.959 . S
H782 C796 0.961 . S
H783 C797 0.960 . S
H784 C797 0.961 . S
H785 C797 0.959 . S
H786 C800 0.929 . S
H787 C801 0.931 . S
H788 C803 0.930 . S
C789 H777 0.930 1_556 S
C789 C790 1.399 . S
C789 C794 1.399 . S
C790 C789 1.399 . S
C790 C791 1.376 . S
C791 H778 0.930 . S
C791 C790 1.376 . S
C791 C792 1.388 . S
C792 H779 0.930 . S
C792 C791 1.388 . S
C792 C793 1.390 . S
C793 C792 1.390 . S
C793 C794 1.394 . S
C793 C799 1.465 . S
C794 C789 1.399 . S
C794 C793 1.394 . S
C794 C795 1.516 . S
C795 C794 1.516 . S
C795 C796 1.502 1_556 S
C795 C797 1.561 1_556 S
C795 C798 1.526 . S
C796 H780 0.959 1_554 S
C796 H781 0.959 . S
C796 H782 0.961 . S
C796 C795 1.502 1_554 S
C797 H783 0.960 . S
C797 H784 0.961 . S
C797 H785 0.959 . S
C797 C795 1.561 1_554 S
C798 C795 1.526 . S
C798 C799 1.396 . S
C798 C803 1.390 . S
C799 C793 1.465 . S
C799 C798 1.396 . S
C799 C800 1.399 . S
C800 H786 0.929 . S
C800 C799 1.399 . S
C800 C801 1.385 . S
C801 H787 0.931 . S
C801 C800 1.385 . S
C801 C802 1.389 . S
C802 C801 1.389 . S
C802 C803 1.387 . S
C803 H788 0.930 . S
C803 C798 1.390 . S
C803 C802 1.387 . S
H804 C816 0.930 . S
H805 C818 0.930 . S
H806 C819 0.930 . S
H807 C823 0.959 . S
H808 C823 0.959 . S
H809 C823 0.961 . S
H810 C824 0.960 . S
H811 C824 0.961 . S
H812 C824 0.959 . S
H813 C827 0.929 . S
H814 C828 0.931 . S
H815 C830 0.930 . S
C816 H804 0.930 . S
C816 C817 1.402 . S
C816 C821 1.399 . S
C817 C816 1.402 . S
C817 C818 1.373 1_655 S
C818 H805 0.930 . S
C818 C817 1.373 1_455 S
C818 C819 1.388 . S
C819 H806 0.930 . S
C819 C818 1.388 . S
C819 C820 1.391 . S
C820 C819 1.391 . S
C820 C821 1.393 1_455 S
C820 C826 1.465 1_455 S
C821 C816 1.399 . S
C821 C820 1.393 1_655 S
C821 C822 1.516 . S
C822 C821 1.516 . S
C822 C823 1.502 . S
C822 C824 1.561 1_655 S
C822 C825 1.526 . S
C823 H807 0.959 . S
C823 H808 0.959 . S
C823 H809 0.961 . S
C823 C822 1.502 . S
C824 H810 0.960 . S
C824 H811 0.961 . S
C824 H812 0.959 . S
C824 C822 1.561 1_455 S
C825 C822 1.526 . S
C825 C826 1.396 . S
C825 C830 1.390 . S
C826 C820 1.465 1_655 S
C826 C825 1.396 . S
C826 C827 1.399 1_655 S
C827 H813 0.929 . S
C827 C826 1.399 1_455 S
C827 C828 1.385 1_455 S
C828 H814 0.931 . S
C828 C827 1.385 1_655 S
C828 C829 1.389 . S
C829 C828 1.389 . S
C829 C830 1.387 . S
C830 H815 0.930 . S
C830 C825 1.390 . S
C830 C829 1.387 . S
H831 C843 0.930 . S
H832 C845 0.930 . S
H833 C846 0.930 . S
H834 C850 0.959 . S
H835 C850 0.959 . S
H836 C850 0.961 . S
H837 C851 0.960 . S
H838 C851 0.961 . S
H839 C851 0.959 . S
H840 C854 0.929 . S
H841 C855 0.931 . S
H842 C857 0.930 . S
C843 H831 0.930 . S
C843 C844 1.410 . S
C843 C848 1.399 . S
C844 C843 1.410 . S
C844 C845 1.365 1_565 S
C845 H832 0.930 . S
C845 C844 1.365 1_545 S
C845 C846 1.388 . S
C846 H833 0.930 . S
C846 C845 1.388 . S
C846 C847 1.390 . S
C847 C846 1.390 . S
C847 C848 1.394 1_545 S
C847 C853 1.465 . S
C848 C843 1.399 . S
C848 C847 1.394 1_565 S
C848 C849 1.516 . S
C849 C848 1.516 . S
C849 C850 1.502 . S
C849 C851 1.561 . S
C849 C852 1.526 . S
C850 H834 0.959 . S
C850 H835 0.959 . S
C850 H836 0.961 . S
C850 C849 1.502 . S
C851 H837 0.960 . S
C851 H838 0.961 . S
C851 H839 0.959 . S
C851 C849 1.561 . S
C852 C849 1.526 . S
C852 C853 1.396 1_565 S
C852 C857 1.390 . S
C853 C847 1.465 . S
C853 C852 1.396 1_545 S
C853 C854 1.399 . S
C854 H840 0.929 . S
C854 C853 1.399 . S
C854 C855 1.385 . S
C855 H841 0.931 . S
C855 C854 1.385 . S
C855 C856 1.389 1_545 S
C856 C855 1.389 1_565 S
C856 C857 1.387 . S
C857 H842 0.930 . S
C857 C852 1.390 . S
C857 C856 1.387 . S
H858 C870 0.930 . S
H859 C872 0.930 . S
H860 C873 0.930 . S
H861 C877 0.959 . S
H862 C877 0.959 . S
H863 C877 0.961 . S
H864 C878 0.960 . S
H865 C878 0.961 . S
H866 C878 0.959 . S
H867 C881 0.929 . S
H868 C882 0.931 . S
H869 C884 0.930 . S
C870 H858 0.930 . S
C870 C871 1.399 . S
C870 C875 1.399 . S
C871 C870 1.399 . S
C871 C872 1.376 . S
C872 H859 0.930 . S
C872 C871 1.376 . S
C872 C873 1.388 . S
C873 H860 0.930 . S
C873 C872 1.388 . S
C873 C874 1.390 . S
C874 C873 1.390 . S
C874 C875 1.394 . S
C874 C880 1.465 . S
C875 C870 1.399 . S
C875 C874 1.394 . S
C875 C876 1.516 . S
C876 C875 1.516 . S
C876 C877 1.502 . S
C876 C878 1.561 . S
C876 C879 1.526 . S
C877 H861 0.959 . S
C877 H862 0.959 . S
C877 H863 0.961 . S
C877 C876 1.502 . S
C878 H864 0.960 . S
C878 H865 0.961 . S
C878 H866 0.959 . S
C878 C876 1.561 . S
C879 C876 1.526 . S
C879 C880 1.396 . S
C879 C884 1.390 . S
C880 C874 1.465 . S
C880 C879 1.396 . S
C880 C881 1.399 . S
C881 H867 0.929 . S
C881 C880 1.399 . S
C881 C882 1.385 . S
C882 H868 0.931 . S
C882 C881 1.385 . S
C882 C883 1.389 . S
C883 C882 1.389 . S
C883 C884 1.387 . S
C884 H869 0.930 . S
C884 C879 1.390 . S
C884 C883 1.387 . S
H885 C897 0.930 . S
H886 C899 0.930 . S
H887 C900 0.930 . S
H888 C904 0.959 . S
H889 C904 0.959 . S
H890 C904 0.961 . S
H891 C905 0.960 . S
H892 C905 0.961 . S
H893 C905 0.959 . S
H894 C908 0.929 . S
H895 C909 0.931 . S
H896 C911 0.930 . S
C897 H885 0.930 . S
C897 C898 1.399 . S
C897 C902 1.399 . S
C898 C897 1.399 . S
C898 C899 1.376 . S
C899 H886 0.930 . S
C899 C898 1.376 . S
C899 C900 1.388 . S
C900 H887 0.930 . S
C900 C899 1.388 . S
C900 C901 1.390 . S
C901 C900 1.390 . S
C901 C902 1.394 . S
C901 C907 1.465 . S
C902 C897 1.399 . S
C902 C901 1.394 . S
C902 C903 1.516 . S
C903 C902 1.516 . S
C903 C904 1.502 . S
C903 C905 1.561 . S
C903 C906 1.526 . S
C904 H888 0.959 . S
C904 H889 0.959 . S
C904 H890 0.961 . S
C904 C903 1.502 . S
C905 H891 0.960 . S
C905 H892 0.961 . S
C905 H893 0.959 . S
C905 C903 1.561 . S
C906 C903 1.526 . S
C906 C907 1.396 . S
C906 C911 1.390 . S
C907 C901 1.465 . S
C907 C906 1.396 . S
C907 C908 1.399 . S
C908 H894 0.929 . S
C908 C907 1.399 . S
C908 C909 1.385 . S
C909 H895 0.931 . S
C909 C908 1.385 . S
C909 C910 1.389 . S
C910 C909 1.389 . S
C910 C911 1.387 . S
C911 H896 0.930 . S
C911 C906 1.390 . S
C911 C910 1.387 . S
C277 N80 1.867 1_545 S
C289 C114 1.972 1_545 S
C316 C154 1.962 . S
C304 N93 1.852 . S
C343 C194 1.959 . S
C331 N54 1.913 . S
C370 C234 1.954 . S
C358 N67 1.903 . S
C397 C123 1.979 1_565 S
C385 N28 1.918 . S
C412 N41 1.862 . S
C424 C163 1.970 . S
C439 N2 1.910 . S
C451 C203 1.981 . S
C466 N15 1.856 1_455 S
C478 C243 1.954 1_655 S
C505 C120 0.591 . S
C493 N70 0.405 . S
C532 C160 0.425 . S
C520 N83 0.530 1_545 S
C559 C200 0.561 . S
C547 N96 0.439 . S
C574 N57 0.448 . S
C586 C240 0.557 . S
C601 N18 0.408 1_455 S
C613 C111 0.608 . S
C640 C151 0.562 . S
C628 N31 0.409 1_545 S
C667 C191 0.520 . S
C655 N44 0.506 . S
C682 N5 0.412 . S
C694 C231 0.561 . S
C709 N66 2.164 1_455 S
C721 C115 2.221 . S
C736 N79 2.147 . S
C748 C155 2.217 . S
C775 C195 2.239 . S
C763 N92 2.118 . S
C802 C235 2.221 . S
C790 N53 2.151 . S
C817 N14 2.114 . S
C829 C106 2.233 . S
C856 C146 2.217 . S
C844 N27 2.164 . S
C883 C186 2.221 . S
C871 N40 2.112 . S
C898 N1 2.151 . S
C910 C226 2.244 . S
