# Generated by pormake.
# Topology anh, (6,3)-cn, num edge types: 1
# Building blocks:
#     Node 0, Type 0, BuildingBlock: PAMTUU_clean_sbu_0, # of connection points: 6
#     Node 1, Type 0, BuildingBlock: PAMTUU_clean_sbu_0, # of connection points: 6
#     Node 2, Type 0, BuildingBlock: PAMTUU_clean_sbu_0, # of connection points: 6
#     Node 3, Type 1, BuildingBlock: ESEHIV_clean_linker_0, # of connection points: 3
#     Node 4, Type 1, BuildingBlock: ESEHIV_clean_linker_0, # of connection points: 3
#     Node 5, Type 1, BuildingBlock: ESEHIV_clean_linker_0, # of connection points: 3
#     Node 6, Type 1, BuildingBlock: ESEHIV_clean_linker_0, # of connection points: 3
#     Node 7, Type 1, BuildingBlock: ESEHIV_clean_linker_0, # of connection points: 3
#     Node 8, Type 1, BuildingBlock: ESEHIV_clean_linker_0, # of connection points: 3
#     Edge 9, Type (0, 1), BuildingBlock: XUDNAN_clean_linker_2, # of connection points: 2
#     Edge 10, Type (0, 1), BuildingBlock: XUDNAN_clean_linker_2, # of connection points: 2
#     Edge 11, Type (0, 1), BuildingBlock: XUDNAN_clean_linker_2, # of connection points: 2
#     Edge 12, Type (0, 1), BuildingBlock: XUDNAN_clean_linker_2, # of connection points: 2
#     Edge 13, Type (0, 1), BuildingBlock: XUDNAN_clean_linker_2, # of connection points: 2
#     Edge 14, Type (0, 1), BuildingBlock: XUDNAN_clean_linker_2, # of connection points: 2
#     Edge 15, Type (0, 1), BuildingBlock: XUDNAN_clean_linker_2, # of connection points: 2
#     Edge 16, Type (0, 1), BuildingBlock: XUDNAN_clean_linker_2, # of connection points: 2
#     Edge 17, Type (0, 1), BuildingBlock: XUDNAN_clean_linker_2, # of connection points: 2
#     Edge 18, Type (0, 1), BuildingBlock: XUDNAN_clean_linker_2, # of connection points: 2
#     Edge 19, Type (0, 1), BuildingBlock: XUDNAN_clean_linker_2, # of connection points: 2
#     Edge 20, Type (0, 1), BuildingBlock: XUDNAN_clean_linker_2, # of connection points: 2
#     Edge 21, Type (0, 1), BuildingBlock: XUDNAN_clean_linker_2, # of connection points: 2
#     Edge 22, Type (0, 1), BuildingBlock: XUDNAN_clean_linker_2, # of connection points: 2
#     Edge 23, Type (0, 1), BuildingBlock: XUDNAN_clean_linker_2, # of connection points: 2
#     Edge 24, Type (0, 1), BuildingBlock: XUDNAN_clean_linker_2, # of connection points: 2
#     Edge 25, Type (0, 1), BuildingBlock: XUDNAN_clean_linker_2, # of connection points: 2
#     Edge 26, Type (0, 1), BuildingBlock: XUDNAN_clean_linker_2, # of connection points: 2
# Relax obj value: 0.308
# Max RMSD: 0.199
# Mean RMSD: 0.164
data_MOF--net-anh--node1-PAMTUU_clean_sbu_0--node2-ESEHIV_clean_linker_0--edge1-XUDNAN_clean_linker_2
_symmetry_space_group_name_H-M    P1
_symmetry_Int_Tables_number       1
_symmetry_cell_setting            triclinic
loop_
_symmetry_equiv_pos_as_xyz
'x, y, z'
_cell_length_a     27.68864
_cell_length_b     27.500556
_cell_length_c     51.654163
_cell_angle_alpha  94.640717
_cell_angle_beta   89.627176
_cell_angle_gamma 119.99077
loop_
_atom_site_label
_atom_site_type_symbol
_atom_site_fract_x
_atom_site_fract_y
_atom_site_fract_z
_atom_type_partial_charge
Tb0 Tb 0.17862 0.73787 0.16594 0.0
Tb1 Tb 0.24881 0.6741 0.16695 0.0
C2 C 0.22016 0.70662 0.11504 0.0
C3 C 1.05226 0.74183 0.16974 0.0
C4 C 0.94109 0.65341 0.16549 0.0
C5 C 0.95962 0.69788 0.14948 0.0
C6 C 1.01482 0.742 0.15169 0.0
C7 C 1.03237 0.69967 0.18721 0.0
C8 C 0.97693 0.65586 0.18518 0.0
C9 C 1.11239 0.77482 0.16552 0.0
O10 O 1.11635 0.6478 0.15705 0.0
O11 O 0.16239 0.60821 0.17471 0.0
O12 O 0.2567 0.71538 0.20557 0.0
O13 O 0.17086 0.70635 0.20365 0.0
O14 O 0.26765 0.62038 0.18556 0.0
O15 O 0.30785 0.6557 0.15032 0.0
O16 O 0.31531 0.7641 0.16842 0.0
O17 O 0.26405 0.80909 0.17493 0.0
O18 O 0.21921 0.7477 0.12925 0.0
O19 O 0.21974 0.66527 0.12634 0.0
C20 C 1.11524 0.60435 0.16679 0.0
O21 O 0.14603 0.78478 0.1854 0.0
O22 O 1.12718 0.75685 0.1445 0.0
C23 C 0.2135 0.7127 0.2172 0.0
C24 C 0.29237 0.56575 0.15746 0.0
C25 C 0.28007 0.46188 0.13721 0.0
C26 C 0.23591 0.47283 0.1346 0.0
C27 C 0.24201 0.52453 0.14473 0.0
C28 C 0.33594 0.55471 0.16042 0.0
C29 C 0.33002 0.50347 0.15034 0.0
C30 C 0.30098 0.62086 0.16756 0.0
C31 C 0.31268 0.81081 0.17327 0.0
H32 H 0.93229 0.6966 0.13419 0.0
H33 H 1.02944 0.77348 0.1378 0.0
H34 H 1.06062 0.69785 0.201 0.0
H35 H 0.96343 0.62166 0.19754 0.0
H36 H 0.1971 0.44181 0.12452 0.0
H37 H 0.20789 0.53265 0.14237 0.0
H38 H 0.37509 0.58625 0.17011 0.0
H39 H 0.36562 0.49747 0.15204 0.0
Tb40 Tb 0.67257 0.11309 0.49082 0.0
Tb41 Tb 0.80692 0.18951 0.50368 0.0
C42 C 0.75687 0.15965 0.44567 0.0
C43 C 0.53221 0.99499 0.49375 0.0
C44 C 0.46183 0.88692 0.50959 0.0
C45 C 0.43939 0.91751 0.49913 0.0
C46 C 0.47439 0.97113 0.49121 0.0
C47 C 0.55482 0.96579 0.50528 0.0
C48 C 0.51985 0.91183 0.51294 0.0
C49 C 0.56905 1.04989 0.48412 0.0
O50 O 0.69913 1.04946 0.49193 0.0
O51 O 0.79108 0.10336 0.50656 0.0
O52 O 0.76481 0.19063 0.53915 0.0
O53 O 0.68633 0.10535 0.53088 0.0
O54 O 0.88691 0.25005 0.49342 0.0
O55 O 0.87464 0.21201 0.52961 0.0
O56 O 0.78209 0.254 0.50226 0.0
O57 O 0.68604 0.19954 0.49835 0.0
O58 O 0.70751 0.14669 0.45421 0.0
O59 O 0.79763 0.16731 0.46154 0.0
C60 C 0.74613 1.05382 0.50055 0.0
O61 O 0.59197 1.09205 0.50202 0.0
O62 O 0.605 1.05075 0.46739 0.0
C63 C 0.72078 0.14706 0.54719 0.0
C64 C 0.93035 0.31079 0.53034 0.0
C65 C 0.94295 0.41846 0.5378 0.0
C66 C 0.98278 0.41025 0.52419 0.0
C67 C 0.9764 0.35646 0.52039 0.0
C68 C 0.89592 0.32107 0.54739 0.0
C69 C 0.90197 0.37465 0.55093 0.0
C70 C 0.90788 0.2544 0.51661 0.0
C71 C 0.73227 0.24928 0.50157 0.0
H72 H 0.39474 0.89884 0.49587 0.0
H73 H 0.45637 0.99332 0.48253 0.0
H74 H 0.59949 0.98413 0.5078 0.0
H75 H 0.53803 0.88909 0.5209 0.0
H76 H 1.01434 0.44362 0.51366 0.0
H77 H 1.00313 0.34944 0.50705 0.0
H78 H 0.86001 0.28662 0.55536 0.0
H79 H 0.87071 0.37995 0.56137 0.0
Tb80 Tb 0.68092 0.59346 0.83562 0.0
Tb81 Tb 0.74588 0.72687 0.83585 0.0
C82 C 0.7052 0.65136 0.78301 0.0
C83 C 0.63278 0.44815 0.85241 0.0
C84 C 0.64815 0.36565 0.87352 0.0
C85 C 0.59847 0.35086 0.85944 0.0
C86 C 0.59096 0.39175 0.84906 0.0
C87 C 0.68095 0.46419 0.86775 0.0
C88 C 0.68859 0.42309 0.8783 0.0
C89 C 0.62542 0.48917 0.83935 0.0
O90 O 0.76895 0.61286 0.8333 0.0
O91 O 0.81586 0.7103 0.83855 0.0
O92 O 0.71243 0.70039 0.8741 0.0
O93 O 0.72893 0.62864 0.87149 0.0
O94 O 0.77296 0.80225 0.81852 0.0
O95 O 0.78751 0.80357 0.85956 0.0
O96 O 0.65799 0.70155 0.8275 0.0
O97 O 0.61835 0.61906 0.84645 0.0
O98 O 0.66975 0.60991 0.79622 0.0
O99 O 0.74589 0.69786 0.79504 0.0
C100 C 0.81612 0.6621 0.83624 0.0
O101 O 0.62068 0.52634 0.85475 0.0
O102 O 0.65825 0.51157 0.82022 0.0
C103 C 0.72133 0.66498 0.88578 0.0
C104 C 0.74512 0.85372 0.84585 0.0
C105 C 0.6467 0.8539 0.83402 0.0
C106 C 0.69712 0.8916 0.82307 0.0
C107 C 0.74615 0.8915 0.82896 0.0
C108 C 0.69685 0.82304 0.85999 0.0
C109 C 0.64774 0.823 0.85402 0.0
C110 C 0.78254 0.83074 0.84114 0.0
C111 C 0.61431 0.66068 0.83772 0.0
H112 H 0.56673 0.30729 0.85466 0.0
H113 H 0.55336 0.37899 0.83745 0.0
H114 H 0.71327 0.5081 0.87082 0.0
H115 H 0.72711 0.43596 0.8891 0.0
H116 H 0.69739 0.91697 0.808 0.0
H117 H 0.78267 0.91539 0.81782 0.0
H118 H 0.69476 0.79343 0.87319 0.0
H119 H 0.60952 0.79415 0.86293 0.0
H120 H 0.67063 0.11969 0.25336 0.0
H121 H 0.82558 0.27555 0.25311 0.0
H122 H 0.71672 0.20893 0.18422 0.0
C123 C 0.69996 0.15491 0.24303 0.0
C124 C 0.6868 0.15792 0.21708 0.0
C125 C 0.74975 0.19688 0.25613 0.0
C126 C 0.78816 0.2427 0.24268 0.0
C127 C 0.77804 0.2484 0.21661 0.0
C128 C 0.72609 0.20571 0.20411 0.0
H129 H 0.71504 0.73103 0.58883 0.0
H130 H 0.70511 0.57032 0.58702 0.0
H131 H 0.73914 0.65547 0.51679 0.0
C132 C 0.71729 0.69693 0.57789 0.0
C133 C 0.7271 0.69939 0.55099 0.0
C134 C 0.71001 0.65076 0.59088 0.0
C135 C 0.71261 0.6062 0.57681 0.0
C136 C 0.72361 0.60648 0.55012 0.0
C137 C 0.7308 0.65389 0.5373 0.0
H138 H 1.13368 0.66267 0.9172 0.0
H139 H 0.29045 0.66744 0.92102 0.0
H140 H 0.21223 0.65304 0.84621 0.0
C141 C 0.16696 0.66011 0.90716 0.0
C142 C 0.16577 0.65581 0.87984 0.0
C143 C 0.21173 0.66476 0.92199 0.0
C144 C 0.25564 0.66221 0.90927 0.0
C145 C 0.25727 0.65763 0.88179 0.0
C146 C 0.21199 0.65556 0.86722 0.0
H147 H 1.05346 0.6691 0.39732 0.0
H148 H 0.2014 0.65806 0.41014 0.0
H149 H 1.08043 0.61503 0.46895 0.0
C150 C 1.07842 0.65862 0.40925 0.0
C151 C 1.06149 0.64163 0.43416 0.0
C152 C 1.12908 0.66422 0.4004 0.0
C153 C 0.16162 0.65202 0.4166 0.0
C154 C 0.14507 0.6355 0.4416 0.0
C155 C 1.09397 0.62843 0.44973 0.0
H156 H 0.62831 0.14025 0.74515 0.0
H157 H 0.51756 0.97794 0.70471 0.0
H158 H 0.51731 1.00338 0.78793 0.0
C159 C 0.59559 0.09667 0.74528 0.0
C160 C 0.57506 1.07541 0.76911 0.0
C161 C 0.57623 1.06187 0.72186 0.0
C162 C 0.53166 1.00608 0.72238 0.0
C163 C 0.5086 0.98483 0.74613 0.0
C164 C 0.53084 1.02025 0.76931 0.0
H165 H 0.49424 0.41057 0.02588 0.0
H166 H 0.66506 0.47566 0.04857 0.0
H167 H 0.5368 0.34084 0.0879 0.0
C168 C 0.5248 0.40755 0.03755 0.0
C169 C 0.50763 0.37026 0.05727 0.0
C170 C 0.58153 0.4443 0.03384 0.0
C171 C 0.62158 0.44408 0.05015 0.0
C172 C 0.6057 0.40774 0.07009 0.0
C173 C 0.54885 0.36917 0.07268 0.0
H174 H 0.32085 0.39947 0.15598 0.0
H175 H 0.23719 0.41128 0.08836 0.0
H176 H 0.26324 0.34997 0.06212 0.0
H177 H 0.43414 0.43523 0.12954 0.0
H178 H 0.45588 0.39179 0.14445 0.0
H179 H 0.40794 0.40828 0.16041 0.0
H180 H 0.33711 0.30184 0.16178 0.0
H181 H 0.38554 0.28503 0.14556 0.0
H182 H 0.31554 0.25561 0.13218 0.0
H183 H 0.32267 0.31784 0.04051 0.0
H184 H 0.41165 0.32809 0.02594 0.0
H185 H 0.46851 0.35081 0.10638 0.0
C186 C 0.30602 0.38688 0.13588 0.0
C187 C 0.27767 0.41054 0.12415 0.0
C188 C 0.25846 0.39321 0.0979 0.0
C189 C 0.27317 0.3582 0.08281 0.0
C190 C 0.30704 0.3409 0.09422 0.0
C191 C 0.32267 0.35418 0.12043 0.0
C192 C 0.37078 0.34507 0.12669 0.0
C193 C 0.42002 0.39826 0.14104 0.0
C194 C 0.35103 0.29382 0.14248 0.0
C195 C 0.38487 0.33255 0.09952 0.0
C196 C 0.34527 0.32612 0.08128 0.0
C197 C 0.35337 0.32191 0.05469 0.0
C198 C 0.40461 0.32864 0.04657 0.0
C199 C 0.44819 0.34206 0.06498 0.0
C200 C 0.43632 0.3399 0.09167 0.0
H201 H 0.88263 0.41088 0.49664 0.0
H202 H 0.9854 0.52631 0.56096 0.0
H203 H 0.98622 0.6051 0.54066 0.0
H204 H 0.95665 0.47532 0.45306 0.0
H205 H 0.90557 0.4642 0.42823 0.0
H206 H 0.88625 0.41649 0.4527 0.0
H207 H 0.80611 0.4346 0.46421 0.0
H208 H 0.82618 0.48511 0.44039 0.0
H209 H 0.81957 0.50489 0.4738 0.0
H210 H 1.00185 0.6716 0.50947 0.0
H211 H 1.05684 0.71307 0.47189 0.0
H212 H 0.95569 0.55852 0.424 0.0
C213 C 0.90261 0.45262 0.50686 0.0
C214 C 0.93296 0.46315 0.53035 0.0
C215 C 0.96092 0.51779 0.54318 0.0
C216 C 0.96099 0.56249 0.53179 0.0
C217 C 0.93372 0.55178 0.50744 0.0
C218 C 0.90503 0.49766 0.49507 0.0
C219 C 0.89455 0.4985 0.46642 0.0
C220 C 0.912 0.46162 0.44916 0.0
C221 C 0.83294 0.47974 0.4609 0.0
C222 C 0.93117 0.56097 0.46362 0.0
C223 C 0.94759 0.59144 0.48788 0.0
C224 C 0.98862 0.64832 0.49052 0.0
C225 C 1.01946 0.67204 0.46888 0.0
C226 C 1.01092 0.63769 0.44557 0.0
C227 C 0.96205 0.5848 0.44185 0.0
H228 H 0.62018 0.82687 0.78311 0.0
H229 H 0.55333 0.84818 0.85619 0.0
H230 H 0.471 0.83836 0.83266 0.0
H231 H 0.61032 0.91327 0.75317 0.0
H232 H 0.58811 0.87661 0.72107 0.0
H233 H 0.62323 0.85662 0.74282 0.0
H234 H 0.54049 0.75434 0.73752 0.0
H235 H 0.5043 0.77496 0.7159 0.0
H236 H 0.47085 0.73992 0.74425 0.0
H237 H 0.41661 0.85848 0.80307 0.0
H238 H 0.41871 0.92987 0.77699 0.0
H239 H 0.52139 0.90142 0.72176 0.0
C240 C 0.58715 0.82791 0.79401 0.0
C241 C 0.5932 0.83966 0.82119 0.0
C242 C 0.54939 0.83971 0.83524 0.0
C243 C 0.50216 0.83327 0.82197 0.0
C244 C 0.49907 0.82578 0.79475 0.0
C245 C 0.54053 0.82236 0.78095 0.0
C246 C 0.53593 0.82867 0.75242 0.0
C247 C 0.59269 0.87145 0.74185 0.0
C248 C 0.5114 0.77104 0.7366 0.0
C249 C 0.494 0.84883 0.75339 0.0
C250 C 0.46844 0.84041 0.77718 0.0
C251 C 0.43593 0.86463 0.78443 0.0
C252 C 0.43707 0.90519 0.76934 0.0
C253 C 0.47345 0.92327 0.74843 0.0
C254 C 0.49454 0.88892 0.73812 0.0
H255 H 0.91272 0.58697 0.12057 0.0
H256 H 0.84986 0.60389 0.19567 0.0
H257 H 0.75675 0.52255 0.18176 0.0
H258 H 0.80437 0.56498 0.0838 0.0
H259 H 0.80475 0.51378 0.05981 0.0
H260 H 0.86785 0.5634 0.07782 0.0
H261 H 0.87782 0.48125 0.0932 0.0
H262 H 0.81425 0.431 0.07519 0.0
H263 H 0.82134 0.42661 0.10947 0.0
H264 H 0.66835 0.45556 0.15652 0.0
H265 H 0.59309 0.41125 0.1227 0.0
H266 H 0.71398 0.43275 0.06439 0.0
C267 C 0.87949 0.5724 0.13423 0.0
C268 C 0.8876 0.60133 0.159 0.0
C269 C 0.8439 0.58177 0.17659 0.0
C270 C 0.79124 0.53552 0.16889 0.0
C271 C 0.78389 0.50878 0.14386 0.0
C272 C 0.82724 0.52609 0.12695 0.0
C273 C 0.80749 0.49528 0.10019 0.0
C274 C 0.82193 0.53684 0.0792 0.0
C275 C 0.83165 0.4562 0.09416 0.0
C276 C 0.74535 0.46171 0.10391 0.0
C277 C 0.73266 0.46861 0.12942 0.0
C278 C 0.67775 0.44827 0.1367 0.0
C279 C 0.63509 0.42278 0.11729 0.0
C280 C 0.64763 0.41827 0.09084 0.0
C281 C 0.70316 0.43528 0.08444 0.0
H282 H 0.36551 0.84139 0.5352 0.0
H283 H 0.47302 0.79819 0.49034 0.0
H284 H 0.39532 0.7015 0.48086 0.0
H285 H 0.2557 0.68074 0.55145 0.0
H286 H 0.20059 0.69687 0.54807 0.0
H287 H 0.26713 0.74941 0.56305 0.0
H288 H 0.27436 0.81891 0.53033 0.0
H289 H 0.20889 0.76721 0.51541 0.0
H290 H 0.26969 0.79849 0.49592 0.0
H291 H 0.30634 0.63161 0.46058 0.0
H292 H 0.21968 0.5972 0.43436 0.0
H293 H 0.165 0.68197 0.49125 0.0
C294 C 0.37289 0.8101 0.52478 0.0
C295 C 0.42445 0.82679 0.5133 0.0
C296 C 0.43372 0.78592 0.4995 0.0
C297 C 0.38958 0.73069 0.49404 0.0
C298 C 0.33685 0.71695 0.50289 0.0
C299 C 0.32872 0.7551 0.5189 0.0
C300 C 0.26724 0.73593 0.52073 0.0
C301 C 0.24645 0.71443 0.54741 0.0
C302 C 0.25441 0.78287 0.51519 0.0
C303 C 0.24332 0.68751 0.49964 0.0
C304 C 0.28336 0.67473 0.49077 0.0
C305 C 0.27414 0.63972 0.46797 0.0
C306 C 0.22495 0.62073 0.45299 0.0
C307 C 0.18586 0.63731 0.46073 0.0
C308 C 0.19352 0.66751 0.48521 0.0
H309 H 0.57742 0.26006 0.88764 0.0
H310 H 0.74801 0.36894 0.86719 0.0
H311 H 0.75443 0.28701 0.85056 0.0
H312 H 0.58486 0.11617 0.88693 0.0
H313 H 0.51634 1.07935 0.87124 0.0
H314 H 0.5337 0.13585 0.89629 0.0
H315 H 0.50353 0.1847 0.86455 0.0
H316 H 0.48765 0.12981 0.83946 0.0
H317 H 0.53674 0.20182 0.83379 0.0
H318 H 0.73222 0.20944 0.81878 0.0
H319 H 0.68715 0.14317 0.78014 0.0
H320 H 0.52561 1.08443 0.8138 0.0
C321 C 0.61692 0.26588 0.88092 0.0
C322 C 0.66127 0.32063 0.87778 0.0
C323 C 0.71302 0.3275 0.86967 0.0
C324 C 0.71692 0.28069 0.85995 0.0
C325 C 0.6688 0.22766 0.85841 0.0
C326 C 0.61976 0.21955 0.86948 0.0
C327 C 0.57021 0.16374 0.85888 0.0
C328 C 0.55012 0.12126 0.87956 0.0
C329 C 0.52186 0.17057 0.84854 0.0
C330 C 0.59734 0.14688 0.8372 0.0
C331 C 0.65467 0.18212 0.83837 0.0
C332 C 0.68767 0.18055 0.81817 0.0
C333 C 0.66155 0.14356 0.79601 0.0
C334 C 0.60274 0.10938 0.79388 0.0
C335 C 0.57068 0.10958 0.81517 0.0
H336 H 0.67144 0.95578 0.52356 0.0
H337 H 0.82955 1.03273 0.48573 0.0
H338 H 0.83882 0.9493 0.49179 0.0
H339 H 0.71625 0.89927 0.57277 0.0
H340 H 0.64976 0.8357 0.57403 0.0
H341 H 0.65279 0.89881 0.56464 0.0
H342 H 0.59775 0.84483 0.52175 0.0
H343 H 0.59451 0.78152 0.53102 0.0
H344 H 0.62334 0.80821 0.50048 0.0
H345 H 0.83028 0.8546 0.50168 0.0
H346 H 0.8107 0.7652 0.51892 0.0
H347 H 0.66282 0.75223 0.55428 0.0
C348 C 0.70759 0.95467 0.51618 0.0
C349 C 0.74934 1.00105 0.5036 0.0
C350 C 0.79671 0.99807 0.49511 0.0
C351 C 0.80227 0.95051 0.49847 0.0
C352 C 0.76073 0.90576 0.51098 0.0
C353 C 0.71462 0.90784 0.52007 0.0
C354 C 0.67815 0.85597 0.53462 0.0
C355 C 0.674 0.87349 0.56321 0.0
C356 C 0.61998 0.82054 0.52117 0.0
C357 C 0.71074 0.82444 0.53228 0.0
C358 C 0.75775 0.85341 0.51812 0.0
C359 C 0.79365 0.83198 0.5129 0.0
C360 C 0.78199 0.78066 0.52266 0.0
C361 C 0.73525 0.75085 0.53808 0.0
C362 C 0.69912 0.77355 0.5427 0.0
H363 H 0.8479 0.59634 0.86261 0.0
H364 H 0.9128 0.73452 0.81357 0.0
H365 H 1.00577 0.74241 0.81609 0.0
H366 H 0.97082 0.65865 0.90533 0.0
H367 H 0.96663 0.59267 0.9106 0.0
H368 H 0.90415 0.59443 0.90302 0.0
H369 H 0.88126 0.52016 0.86405 0.0
H370 H 0.94388 0.51839 0.87143 0.0
H371 H 0.93205 0.53356 0.83954 0.0
H372 H 1.09449 0.73521 0.82411 0.0
H373 H 0.17024 0.72182 0.84112 0.0
H374 H 1.05124 0.59366 0.88787 0.0
C375 C 0.88147 0.62769 0.85206 0.0
C376 C 0.87204 0.66419 0.83741 0.0
C377 C 0.91813 0.70567 0.82469 0.0
C378 C 0.9714 0.71038 0.82598 0.0
C379 C 0.97941 0.6741 0.84058 0.0
C380 C 0.93575 0.63404 0.85375 0.0
C381 C 0.95665 0.6033 0.86976 0.0
C382 C 0.94911 0.61284 0.89891 0.0
C383 C 0.92666 0.5401 0.86065 0.0
C384 C 1.01855 0.63202 0.86353 0.0
C385 C 1.03069 0.67214 0.84629 0.0
C386 C 1.08507 0.70386 0.83765 0.0
C387 C 1.12811 0.6956 0.84726 0.0
C388 C 1.11763 0.65648 0.86583 0.0
C389 C 1.06136 0.62389 0.87366 0.0
H390 H 0.41874 0.83962 0.19367 0.0
H391 H 0.32884 0.91298 0.16081 0.0
H392 H 0.41434 1.00676 0.16561 0.0
H393 H 0.49758 0.95698 0.24225 0.0
H394 H 0.56001 0.95197 0.24054 0.0
H395 H 0.49284 0.89004 0.23303 0.0
H396 H 0.52662 0.87342 0.18814 0.0
H397 H 0.59382 0.93549 0.19548 0.0
H398 H 0.55418 0.92881 0.16653 0.0
H399 H 0.513 0.09522 0.17349 0.0
H400 H 0.60915 0.16873 0.18823 0.0
H401 H 0.63473 1.04086 0.21891 0.0
C402 C 0.4171 0.87531 0.18727 0.0
C403 C 0.36623 0.86791 0.17652 0.0
C404 C 0.36653 0.91664 0.16902 0.0
C405 C 0.41534 0.97045 0.1716 0.0
C406 C 0.46452 0.97632 0.18224 0.0
C407 C 0.4655 0.93004 0.19033 0.0
C408 C 0.52293 0.94855 0.20262 0.0
C409 C 0.51804 0.93614 0.23131 0.0
C410 C 0.55105 0.91985 0.18728 0.0
C411 C 0.5541 1.01211 0.20007 0.0
C412 C 0.5199 1.0272 0.18791 0.0
C413 C 0.53977 1.08349 0.18313 0.0
C414 C 0.595 0.12526 0.19142 0.0
C415 C 0.63059 0.11162 0.20486 0.0
C416 C 0.60922 1.05357 0.20886 0.0
H417 H 0.76645 0.33357 0.54268 0.0
H418 H 0.68716 0.2851 0.46571 0.0
H419 H 0.68006 0.37181 0.46829 0.0
H420 H 0.67464 0.38514 0.56749 0.0
H421 H 0.72704 0.44062 0.58944 0.0
H422 H 0.72995 0.37727 0.58103 0.0
H423 H 0.83083 0.43674 0.56472 0.0
H424 H 0.82711 0.49888 0.57473 0.0
H425 H 0.84318 0.48776 0.54186 0.0
H426 H 0.68492 0.46901 0.47923 0.0
H427 H 0.68974 0.55646 0.49929 0.0
H428 H 0.76143 0.53906 0.56999 0.0
C429 C 0.74814 0.34156 0.52626 0.0
C430 C 0.72806 0.30236 0.50374 0.0
C431 C 0.70305 0.3141 0.48308 0.0
C432 C 0.69896 0.36358 0.48438 0.0
C433 C 0.71916 0.4014 0.50675 0.0
C434 C 0.74238 0.3903 0.52755 0.0
C435 C 0.75583 0.43486 0.5503 0.0
C436 C 0.71972 0.40786 0.57344 0.0
C437 C 0.818 0.4663 0.55838 0.0
C438 C 0.73969 0.47422 0.53865 0.0
C439 C 0.71849 0.45439 0.51352 0.0
C440 C 0.70129 0.48439 0.49899 0.0
C441 C 0.70479 0.53481 0.51052 0.0
C442 C 0.72544 0.55576 0.53654 0.0
C443 C 0.744 0.52467 0.55034 0.0
H444 H 0.52928 0.61573 0.87367 0.0
H445 H 0.57585 0.7103 0.8058 0.0
H446 H 0.48912 0.71528 0.80792 0.0
H447 H 0.37865 0.53695 0.85945 0.0
H448 H 0.36088 0.54109 0.89288 0.0
H449 H 0.42497 0.5421 0.88525 0.0
H450 H 0.48085 0.63606 0.914 0.0
H451 H 0.41695 0.63533 0.92173 0.0
H452 H 0.47282 0.69531 0.9079 0.0
H453 H 0.39644 0.71362 0.81864 0.0
H454 H 0.31002 0.70533 0.83684 0.0
H455 H 0.32302 0.61336 0.89832 0.0
C456 C 0.52121 0.63735 0.85916 0.0
C457 C 0.56016 0.66234 0.83939 0.0
C458 C 0.54748 0.69076 0.82115 0.0
C459 C 0.49806 0.69403 0.82226 0.0
C460 C 0.46116 0.6699 0.84213 0.0
C461 C 0.47229 0.64218 0.86033 0.0
C462 C 0.42638 0.62109 0.88013 0.0
C463 C 0.39592 0.55646 0.87938 0.0
C464 C 0.45071 0.64858 0.90757 0.0
C465 C 0.38783 0.6412 0.87031 0.0
C466 C 0.40848 0.66907 0.84826 0.0
C467 C 0.38015 0.69164 0.83588 0.0
C468 C 0.33033 0.68627 0.84632 0.0
C469 C 0.30825 0.65868 0.86924 0.0
C470 C 0.33801 0.63545 0.88102 0.0
H471 H 1.08938 0.51062 0.19449 0.0
H472 H 1.01165 0.577 0.14662 0.0
H473 H 0.91945 0.49368 0.15229 0.0
H474 H 0.99876 0.36161 0.17278 0.0
H475 H 0.99632 0.33807 0.20458 0.0
H476 H 1.05651 0.40182 0.19591 0.0
H477 H 1.04495 0.45733 0.23601 0.0
H478 H 0.98471 0.39379 0.2448 0.0
H479 H 0.97931 0.45525 0.24033 0.0
H480 H 0.83227 0.3999 0.16372 0.0
H481 H 0.76209 0.31145 0.18144 0.0
H482 H 0.89512 0.30571 0.22248 0.0
C483 C 1.05316 0.5075 0.18491 0.0
C484 C 1.05907 0.55115 0.16971 0.0
C485 C 1.00949 0.5448 0.15812 0.0
C486 C 0.95639 0.4972 0.16128 0.0
C487 C 0.95212 0.45521 0.17634 0.0
C488 C 0.99935 0.46016 0.18809 0.0
C489 C 0.98309 0.41012 0.20409 0.0
C490 C 1.01029 0.37588 0.19372 0.0
C491 C 0.99896 0.43033 0.23302 0.0
C492 C 0.91965 0.37618 0.19949 0.0
C493 C 0.9025 0.40269 0.1833 0.0
C494 C 0.84572 0.3791 0.1764 0.0
C495 C 0.80578 0.32813 0.18648 0.0
C496 C 0.82174 0.30031 0.20366 0.0
C497 C 0.88022 0.32526 0.2098 0.0
H498 H 0.22969 0.6346 0.0761 0.0
H499 H 0.20989 0.78191 0.08803 0.0
H500 H 0.20789 0.78685 0.04101 0.0
H501 H 0.31991 0.68243 0.02062 0.0
H502 H 0.28942 0.61348 0.00323 0.0
H503 H 0.28988 0.62044 0.03824 0.0
H504 H 0.18267 0.55511 0.03685 0.0
H505 H 0.18189 0.54791 0.00184 0.0
H506 H 0.13927 0.57234 0.01824 0.0
H507 H 0.20513 0.77632 0.99326 0.0
H508 H 0.20353 0.75105 0.94633 0.0
H509 H 0.22734 0.61191 0.96258 0.0
C510 C 0.22509 0.66792 0.06878 0.0
C511 C 0.22003 0.7079 0.08611 0.0
C512 C 0.21407 0.75077 0.07553 0.0
C513 C 0.21281 0.75404 0.04868 0.0
C514 C 0.21783 0.71437 0.03223 0.0
C515 C 0.22407 0.67215 0.04168 0.0
C516 C 0.22844 0.63512 0.0192 0.0
C517 C 0.2853 0.63805 0.0204 0.0
C518 C 0.18019 0.57399 0.01903 0.0
C519 C 0.22324 0.66308 0.99585 0.0
C520 C 0.21705 0.70866 0.00406 0.0
C521 C 0.2101 0.74081 0.98656 0.0
C522 C 0.20905 0.726 0.9599 0.0
C523 C 0.21509 0.67947 0.95071 0.0
C524 C 0.22293 0.64791 0.96902 0.0
H525 H 0.68129 0.14332 0.40642 0.0
H526 H 0.85481 0.19202 0.42027 0.0
H527 H 0.87156 0.20573 0.37367 0.0
H528 H 0.66293 1.0669 0.34335 0.0
H529 H 0.61847 1.08998 0.33011 0.0
H530 H 0.61997 1.08336 0.36447 0.0
H531 H 0.64495 0.18736 0.37422 0.0
H532 H 0.64352 0.1943 0.33991 0.0
H533 H 0.70503 0.24208 0.35979 0.0
H534 H 0.8698 0.21605 0.32513 0.0
H535 H 0.84941 0.22041 0.27915 0.0
H536 H 0.67704 0.16516 0.29678 0.0
C537 C 0.72286 0.15667 0.39972 0.0
C538 C 0.76672 0.16646 0.41728 0.0
C539 C 0.82038 0.18401 0.40743 0.0
C540 C 0.83034 0.192 0.3809 0.0
C541 C 0.78627 0.18218 0.36422 0.0
C542 C 0.73351 0.16472 0.37327 0.0
C543 C 0.69337 0.15735 0.35134 0.0
C544 C 0.64588 0.09573 0.34707 0.0
C545 C 0.67038 0.19768 0.35664 0.0
C546 C 0.73175 0.17359 0.32854 0.0
C547 C 0.78519 0.18784 0.33639 0.0
C548 C 0.82805 0.20495 0.31885 0.0
C549 C 0.81609 0.20761 0.29272 0.0
C550 C 0.76159 0.19321 0.28409 0.0
C551 C 0.719 0.17582 0.30247 0.0
H552 H 0.77009 0.72456 0.74617 0.0
H553 H 0.62075 0.56297 0.75371 0.0
H554 H 0.60412 0.54939 0.70642 0.0
H555 H 0.71521 0.76454 0.69245 0.0
H556 H 0.78015 0.79647 0.67599 0.0
H557 H 0.78052 0.79557 0.71085 0.0
H558 H 0.83931 0.74611 0.70788 0.0
H559 H 0.83935 0.74712 0.67305 0.0
H560 H 0.81437 0.68136 0.6873 0.0
H561 H 0.6037 0.55028 0.65845 0.0
H562 H 0.62162 0.56498 0.6121 0.0
H563 H 0.77049 0.72574 0.63348 0.0
C564 C 0.7338 0.68644 0.73788 0.0
C565 C 0.6968 0.64489 0.75401 0.0
C566 C 0.64996 0.59559 0.74212 0.0
C567 C 0.63991 0.58741 0.71512 0.0
C568 C 0.6769 0.62884 0.69986 0.0
C569 C 0.72302 0.6774 0.71067 0.0
C570 C 0.7567 0.71427 0.68939 0.0
C571 C 0.75823 0.77109 0.69235 0.0
C572 C 0.81594 0.7227 0.68941 0.0
C573 C 0.72257 0.67841 0.66507 0.0
C574 C 0.67656 0.62946 0.67176 0.0
C575 C 0.63944 0.58858 0.65298 0.0
C576 C 0.64996 0.59728 0.62667 0.0
C577 C 0.69721 0.64652 0.61909 0.0
C578 C 0.73357 0.68807 0.63866 0.0
H579 H 0.62059 1.08382 0.56906 0.0
H580 H 0.79536 0.20397 0.5881 0.0
H581 H 0.77674 0.19548 0.63488 0.0
H582 H 0.56624 0.13427 0.62239 0.0
H583 H 0.50986 1.06479 0.62745 0.0
H584 H 0.53699 1.08055 0.59552 0.0
H585 H 0.5556 0.99692 0.59353 0.0
H586 H 0.52886 0.98103 0.6255 0.0
H587 H 0.59803 0.99369 0.61891 0.0
H588 H 0.74078 0.16828 0.67879 0.0
H589 H 0.68894 0.13212 0.7179 0.0
H590 H 0.53489 1.03624 0.67077 0.0
C591 C 0.65493 0.10843 0.58309 0.0
C592 C 0.70953 0.14429 0.57507 0.0
C593 C 0.75326 0.17634 0.59391 0.0
C594 C 0.74311 0.17165 0.62046 0.0
C595 C 0.68889 0.13545 0.6277 0.0
C596 C 0.64536 0.10501 0.60962 0.0
C597 C 0.59084 1.06985 0.62261 0.0
C598 C 0.54849 1.08851 0.61664 0.0
C599 C 0.56695 1.00663 0.61466 0.0
C600 C 0.6107 1.08472 0.65089 0.0
C601 C 0.66746 0.12223 0.65328 0.0
C602 C 0.69609 0.14003 0.67724 0.0
C603 C 0.66588 0.11955 0.69944 0.0
C604 C 0.60714 1.08248 0.69773 0.0
C605 C 0.57949 1.0647 0.67295 0.0
H606 H 0.75316 0.60904 0.91577 0.0
H607 H 0.65305 0.68999 0.91598 0.0
H608 H 0.61075 0.64769 0.95665 0.0
H609 H 0.65078 0.4828 0.93232 0.0
H610 H 0.69328 0.46738 0.95261 0.0
H611 H 0.72427 0.51271 0.92696 0.0
H612 H 0.79624 0.59254 0.95942 0.0
H613 H 0.76697 0.54722 0.98534 0.0
H614 H 0.77252 0.6156 0.9879 0.0
H615 H 0.56948 0.58448 0.99334 0.0
H616 H 0.53861 0.51279 0.02506 0.0
H617 H 0.66482 0.47217 0.99944 0.0
C618 C 0.72381 0.61957 0.92488 0.0
C619 C 0.70661 0.65308 0.91292 0.0
C620 C 0.66746 0.6652 0.92512 0.0
C621 C 0.64297 0.641 0.9481 0.0
C622 C 0.65874 0.60554 0.95862 0.0
C623 C 0.69909 0.59578 0.94762 0.0
C624 C 0.70534 0.55229 0.9611 0.0
C625 C 0.69261 0.50076 0.94212 0.0
C626 C 0.76373 0.5785 0.97423 0.0
C627 C 0.66098 0.53763 0.98097 0.0
C628 C 0.63476 0.56896 0.97942 0.0
C629 C 0.59027 0.56033 0.99494 0.0
C630 C 0.57262 0.5191 0.01267 0.0
C631 C 0.59929 0.48688 0.01463 0.0
C632 C 0.6441 0.49661 0.99857 0.0
H633 H 1.12154 0.66139 0.24606 0.0
H634 H 0.30152 0.76925 0.25218 0.0
H635 H 0.29784 0.77495 0.30017 0.0
H636 H 1.08701 0.72559 0.30175 0.0
H637 H 1.03246 0.65923 0.31151 0.0
H638 H 1.04867 0.66695 0.27772 0.0
H639 H 1.06471 0.58161 0.27572 0.0
H640 H 1.04813 0.57333 0.30941 0.0
H641 H 1.11367 0.5817 0.29859 0.0
H642 H 0.27456 0.76913 0.34691 0.0
H643 H 0.23543 0.7431 0.38987 0.0
H644 H 1.07106 0.63303 0.35334 0.0
C645 C 0.16007 0.68666 0.25756 0.0
C646 C 0.2118 0.71545 0.24565 0.0
C647 C 0.26156 0.74703 0.26112 0.0
C648 C 0.25979 0.75078 0.28829 0.0
C649 C 0.20802 0.72205 0.29948 0.0
C650 C 0.15915 0.68989 0.28464 0.0
C651 C 1.10958 0.65962 0.30149 0.0
C652 C 1.06692 0.67903 0.2979 0.0
C653 C 1.08245 0.59527 0.29597 0.0
C654 C 0.13826 0.67972 0.32818 0.0
C655 C 0.19487 0.71638 0.32653 0.0
C656 C 0.2304 0.74018 0.34847 0.0
C657 C 0.20779 0.72487 0.37275 0.0
C658 C 0.15036 0.68532 0.37488 0.0
C659 C 1.11499 0.66354 0.35231 0.0
loop_
_geom_bond_atom_site_label_1
_geom_bond_atom_site_label_2
_geom_bond_distance
_geom_bond_site_symmetry_2
_ccdc_geom_bond_type
Tb0 C9 2.764 1_455 S
Tb0 O10 2.325 1_455 S
Tb0 O13 2.303 . S
Tb0 O17 2.322 . S
Tb0 O18 2.349 . S
Tb0 O21 2.415 1_455 S
Tb0 O22 2.399 1_455 S
Tb1 O11 2.322 1_455 S
Tb1 O12 2.349 . S
Tb1 O14 2.415 . S
Tb1 O15 2.399 . S
Tb1 O16 2.325 . S
Tb1 O19 2.303 . S
Tb1 C30 2.764 . S
C2 O18 1.261 . S
C2 O19 1.257 . S
C3 C6 1.358 . S
C3 C7 1.332 . S
C3 C9 1.504 . S
C4 C5 1.373 . S
C4 C8 1.308 . S
C5 C4 1.373 . S
C5 C6 1.429 . S
C5 H32 0.932 . S
C6 C3 1.358 . S
C6 C5 1.429 . S
C6 H33 0.930 . S
C7 C3 1.332 . S
C7 C8 1.394 . S
C7 H34 0.932 . S
C8 C4 1.308 . S
C8 C7 1.394 . S
C8 H35 0.929 . S
C9 Tb0 2.764 1_655 S
C9 C3 1.504 . S
C9 O21 1.239 . S
C9 O22 1.263 . S
O10 Tb0 2.325 1_655 S
O10 C20 1.236 . S
O11 Tb1 2.322 1_655 S
O11 C20 1.257 . S
O12 Tb1 2.349 . S
O12 C23 1.261 . S
O13 Tb0 2.303 . S
O13 C23 1.257 . S
O14 Tb1 2.415 . S
O14 C30 1.239 . S
O15 Tb1 2.399 . S
O15 C30 1.263 . S
O16 Tb1 2.325 . S
O16 C31 1.236 . S
O17 Tb0 2.322 . S
O17 C31 1.257 . S
O18 Tb0 2.349 . S
O18 C2 1.261 . S
O19 Tb1 2.303 . S
O19 C2 1.257 . S
C20 O10 1.236 . S
C20 O11 1.257 . S
O21 Tb0 2.415 1_655 S
O21 C9 1.239 . S
O22 Tb0 2.399 1_655 S
O22 C9 1.263 . S
C23 O12 1.261 . S
C23 O13 1.257 . S
C24 C27 1.358 . S
C24 C28 1.332 . S
C24 C30 1.504 . S
C25 C26 1.373 . S
C25 C29 1.308 . S
C26 C25 1.373 . S
C26 C27 1.429 . S
C26 H36 0.932 . S
C27 C24 1.358 . S
C27 C26 1.429 . S
C27 H37 0.930 . S
C28 C24 1.332 . S
C28 C29 1.394 . S
C28 H38 0.932 . S
C29 C25 1.308 . S
C29 C28 1.394 . S
C29 H39 0.929 . S
C30 Tb1 2.764 . S
C30 O14 1.239 . S
C30 O15 1.263 . S
C30 C24 1.504 . S
C31 O16 1.236 . S
C31 O17 1.257 . S
H32 C5 0.932 . S
H33 C6 0.930 . S
H34 C7 0.932 . S
H35 C8 0.929 . S
H36 C26 0.932 . S
H37 C27 0.930 . S
H38 C28 0.932 . S
H39 C29 0.929 . S
Tb40 C49 2.764 . S
Tb40 O50 2.325 . S
Tb40 O53 2.303 1_565 S
Tb40 O57 2.322 1_565 S
Tb40 O58 2.349 1_565 S
Tb40 O61 2.415 . S
Tb40 O62 2.399 . S
Tb41 O51 2.322 1_545 S
Tb41 O52 2.349 . S
Tb41 O54 2.415 . S
Tb41 O55 2.399 . S
Tb41 O56 2.325 . S
Tb41 O59 2.303 . S
Tb41 C70 2.764 . S
C42 O58 1.261 . S
C42 O59 1.257 . S
C43 C46 1.358 . S
C43 C47 1.332 . S
C43 C49 1.504 . S
C44 C45 1.373 . S
C44 C48 1.308 . S
C45 C44 1.373 . S
C45 C46 1.429 . S
C45 H72 0.932 . S
C46 C43 1.358 . S
C46 C45 1.429 . S
C46 H73 0.930 . S
C47 C43 1.332 . S
C47 C48 1.394 . S
C47 H74 0.932 . S
C48 C44 1.308 . S
C48 C47 1.394 . S
C48 H75 0.929 . S
C49 Tb40 2.764 . S
C49 C43 1.504 . S
C49 O61 1.239 . S
C49 O62 1.263 . S
O50 Tb40 2.325 . S
O50 C60 1.236 . S
O51 Tb41 2.322 1_565 S
O51 C60 1.257 . S
O52 Tb41 2.349 . S
O52 C63 1.261 . S
O53 Tb40 2.303 1_545 S
O53 C63 1.257 . S
O54 Tb41 2.415 . S
O54 C70 1.239 . S
O55 Tb41 2.399 . S
O55 C70 1.263 . S
O56 Tb41 2.325 . S
O56 C71 1.236 . S
O57 Tb40 2.322 1_545 S
O57 C71 1.257 . S
O58 Tb40 2.349 1_545 S
O58 C42 1.261 . S
O59 Tb41 2.303 . S
O59 C42 1.257 . S
C60 O50 1.236 . S
C60 O51 1.257 . S
O61 Tb40 2.415 . S
O61 C49 1.239 . S
O62 Tb40 2.399 . S
O62 C49 1.263 . S
C63 O52 1.261 . S
C63 O53 1.257 . S
C64 C67 1.358 . S
C64 C68 1.332 . S
C64 C70 1.504 . S
C65 C66 1.373 . S
C65 C69 1.308 . S
C66 C65 1.373 . S
C66 C67 1.429 . S
C66 H76 0.932 . S
C67 C64 1.358 . S
C67 C66 1.429 . S
C67 H77 0.930 . S
C68 C64 1.332 . S
C68 C69 1.394 . S
C68 H78 0.932 . S
C69 C65 1.308 . S
C69 C68 1.394 . S
C69 H79 0.929 . S
C70 Tb41 2.764 . S
C70 O54 1.239 . S
C70 O55 1.263 . S
C70 C64 1.504 . S
C71 O56 1.236 . S
C71 O57 1.257 . S
H72 C45 0.932 . S
H73 C46 0.930 . S
H74 C47 0.932 . S
H75 C48 0.929 . S
H76 C66 0.932 . S
H77 C67 0.930 . S
H78 C68 0.932 . S
H79 C69 0.929 . S
Tb80 C89 2.764 . S
Tb80 O90 2.325 . S
Tb80 O93 2.303 . S
Tb80 O97 2.322 . S
Tb80 O98 2.349 . S
Tb80 O101 2.415 . S
Tb80 O102 2.399 . S
Tb81 O91 2.322 . S
Tb81 O92 2.349 . S
Tb81 O94 2.415 . S
Tb81 O95 2.399 . S
Tb81 O96 2.325 . S
Tb81 O99 2.303 . S
Tb81 C110 2.764 . S
C82 O98 1.261 . S
C82 O99 1.257 . S
C83 C86 1.358 . S
C83 C87 1.332 . S
C83 C89 1.504 . S
C84 C85 1.373 . S
C84 C88 1.308 . S
C85 C84 1.373 . S
C85 C86 1.429 . S
C85 H112 0.932 . S
C86 C83 1.358 . S
C86 C85 1.429 . S
C86 H113 0.930 . S
C87 C83 1.332 . S
C87 C88 1.394 . S
C87 H114 0.932 . S
C88 C84 1.308 . S
C88 C87 1.394 . S
C88 H115 0.929 . S
C89 Tb80 2.764 . S
C89 C83 1.504 . S
C89 O101 1.239 . S
C89 O102 1.263 . S
O90 Tb80 2.325 . S
O90 C100 1.236 . S
O91 Tb81 2.322 . S
O91 C100 1.257 . S
O92 Tb81 2.349 . S
O92 C103 1.261 . S
O93 Tb80 2.303 . S
O93 C103 1.257 . S
O94 Tb81 2.415 . S
O94 C110 1.239 . S
O95 Tb81 2.399 . S
O95 C110 1.263 . S
O96 Tb81 2.325 . S
O96 C111 1.236 . S
O97 Tb80 2.322 . S
O97 C111 1.257 . S
O98 Tb80 2.349 . S
O98 C82 1.261 . S
O99 Tb81 2.303 . S
O99 C82 1.257 . S
C100 O90 1.236 . S
C100 O91 1.257 . S
O101 Tb80 2.415 . S
O101 C89 1.239 . S
O102 Tb80 2.399 . S
O102 C89 1.263 . S
C103 O92 1.261 . S
C103 O93 1.257 . S
C104 C107 1.358 . S
C104 C108 1.332 . S
C104 C110 1.504 . S
C105 C106 1.373 . S
C105 C109 1.308 . S
C106 C105 1.373 . S
C106 C107 1.429 . S
C106 H116 0.932 . S
C107 C104 1.358 . S
C107 C106 1.429 . S
C107 H117 0.930 . S
C108 C104 1.332 . S
C108 C109 1.394 . S
C108 H118 0.932 . S
C109 C105 1.308 . S
C109 C108 1.394 . S
C109 H119 0.929 . S
C110 Tb81 2.764 . S
C110 O94 1.239 . S
C110 O95 1.263 . S
C110 C104 1.504 . S
C111 O96 1.236 . S
C111 O97 1.257 . S
H112 C85 0.932 . S
H113 C86 0.930 . S
H114 C87 0.932 . S
H115 C88 0.929 . S
H116 C106 0.932 . S
H117 C107 0.930 . S
H118 C108 0.932 . S
H119 C109 0.929 . S
H120 C123 0.931 . S
H121 C126 0.928 . S
H122 C128 0.930 . S
C123 H120 0.931 . S
C123 C124 1.413 . S
C123 C125 1.360 1_565 S
C124 C123 1.413 . S
C124 C128 1.429 1_565 S
C125 C123 1.360 1_545 S
C125 C126 1.372 . S
C126 H121 0.928 . S
C126 C125 1.372 . S
C126 C127 1.404 . S
C127 C126 1.404 . S
C127 C128 1.391 . S
C128 H122 0.930 . S
C128 C124 1.429 1_545 S
C128 C127 1.391 . S
H129 C132 0.931 . S
H130 C135 0.928 . S
H131 C137 0.930 . S
C132 H129 0.931 . S
C132 C133 1.413 . S
C132 C134 1.360 . S
C133 C132 1.413 . S
C133 C137 1.429 . S
C134 C132 1.360 . S
C134 C135 1.372 . S
C135 H130 0.928 . S
C135 C134 1.372 . S
C135 C136 1.404 . S
C136 C135 1.404 . S
C136 C137 1.391 . S
C137 H131 0.930 . S
C137 C133 1.429 . S
C137 C136 1.391 . S
H138 C141 0.931 . S
H139 C144 0.928 . S
H140 C146 0.930 . S
C141 H138 0.931 . S
C141 C142 1.413 . S
C141 C143 1.360 . S
C142 C141 1.413 . S
C142 C146 1.429 . S
C143 C141 1.360 . S
C143 C144 1.372 . S
C144 H139 0.928 . S
C144 C143 1.372 . S
C144 C145 1.404 . S
C145 C144 1.404 . S
C145 C146 1.391 . S
C146 H140 0.930 . S
C146 C142 1.429 . S
C146 C145 1.391 . S
H147 C150 0.931 . S
H148 C153 0.928 . S
H149 C155 0.930 . S
C150 H147 0.931 . S
C150 C151 1.413 . S
C150 C152 1.360 1_655 S
C151 C150 1.413 . S
C151 C155 1.429 1_655 S
C152 C150 1.360 1_455 S
C152 C153 1.372 . S
C153 H148 0.928 . S
C153 C152 1.372 . S
C153 C154 1.404 . S
C154 C153 1.404 . S
C154 C155 1.391 . S
C155 H149 0.930 . S
C155 C151 1.429 1_455 S
C155 C154 1.391 . S
H156 C159 0.931 . S
H157 C162 0.928 . S
H158 C164 0.930 . S
C159 H156 0.931 . S
C159 C160 1.413 . S
C159 C161 1.360 1_545 S
C160 C159 1.413 . S
C160 C164 1.429 . S
C161 C159 1.360 1_565 S
C161 C162 1.372 . S
C162 H157 0.928 . S
C162 C161 1.372 . S
C162 C163 1.404 . S
C163 C162 1.404 . S
C163 C164 1.391 1_565 S
C164 H158 0.930 . S
C164 C160 1.429 . S
C164 C163 1.391 1_545 S
H165 C168 0.931 . S
H166 C171 0.928 . S
H167 C173 0.930 . S
C168 H165 0.931 . S
C168 C169 1.413 . S
C168 C170 1.360 . S
C169 C168 1.413 . S
C169 C173 1.429 . S
C170 C168 1.360 . S
C170 C171 1.372 . S
C171 H166 0.928 . S
C171 C170 1.372 . S
C171 C172 1.404 . S
C172 C171 1.404 . S
C172 C173 1.391 . S
C173 H167 0.930 . S
C173 C169 1.429 . S
C173 C172 1.391 . S
H174 C186 0.930 . S
H175 C188 0.930 . S
H176 C189 0.930 . S
H177 C193 0.959 . S
H178 C193 0.959 . S
H179 C193 0.961 . S
H180 C194 0.960 . S
H181 C194 0.961 . S
H182 C194 0.959 . S
H183 C197 0.929 . S
H184 C198 0.931 . S
H185 C200 0.930 . S
C186 H174 0.930 . S
C186 C187 1.399 . S
C186 C191 1.399 . S
C187 C186 1.399 . S
C187 C188 1.376 . S
C188 H175 0.930 . S
C188 C187 1.376 . S
C188 C189 1.388 . S
C189 H176 0.930 . S
C189 C188 1.388 . S
C189 C190 1.390 . S
C190 C189 1.390 . S
C190 C191 1.394 . S
C190 C196 1.465 . S
C191 C186 1.399 . S
C191 C190 1.394 . S
C191 C192 1.516 . S
C192 C191 1.516 . S
C192 C193 1.502 . S
C192 C194 1.561 . S
C192 C195 1.526 . S
C193 H177 0.959 . S
C193 H178 0.959 . S
C193 H179 0.961 . S
C193 C192 1.502 . S
C194 H180 0.960 . S
C194 H181 0.961 . S
C194 H182 0.959 . S
C194 C192 1.561 . S
C195 C192 1.526 . S
C195 C196 1.396 . S
C195 C200 1.390 . S
C196 C190 1.465 . S
C196 C195 1.396 . S
C196 C197 1.399 . S
C197 H183 0.929 . S
C197 C196 1.399 . S
C197 C198 1.385 . S
C198 H184 0.931 . S
C198 C197 1.385 . S
C198 C199 1.389 . S
C199 C198 1.389 . S
C199 C200 1.387 . S
C200 H185 0.930 . S
C200 C195 1.390 . S
C200 C199 1.387 . S
H201 C213 0.930 . S
H202 C215 0.930 . S
H203 C216 0.930 . S
H204 C220 0.959 . S
H205 C220 0.959 . S
H206 C220 0.961 . S
H207 C221 0.960 . S
H208 C221 0.961 . S
H209 C221 0.959 . S
H210 C224 0.929 . S
H211 C225 0.931 . S
H212 C227 0.930 . S
C213 H201 0.930 . S
C213 C214 1.399 . S
C213 C218 1.399 . S
C214 C213 1.399 . S
C214 C215 1.376 . S
C215 H202 0.930 . S
C215 C214 1.376 . S
C215 C216 1.388 . S
C216 H203 0.930 . S
C216 C215 1.388 . S
C216 C217 1.390 . S
C217 C216 1.390 . S
C217 C218 1.394 . S
C217 C223 1.465 . S
C218 C213 1.399 . S
C218 C217 1.394 . S
C218 C219 1.516 . S
C219 C218 1.516 . S
C219 C220 1.502 . S
C219 C221 1.561 . S
C219 C222 1.526 . S
C220 H204 0.959 . S
C220 H205 0.959 . S
C220 H206 0.961 . S
C220 C219 1.502 . S
C221 H207 0.960 . S
C221 H208 0.961 . S
C221 H209 0.959 . S
C221 C219 1.561 . S
C222 C219 1.526 . S
C222 C223 1.396 . S
C222 C227 1.390 . S
C223 C217 1.465 . S
C223 C222 1.396 . S
C223 C224 1.399 . S
C224 H210 0.929 . S
C224 C223 1.399 . S
C224 C225 1.385 . S
C225 H211 0.931 . S
C225 C224 1.385 . S
C225 C226 1.389 . S
C226 C225 1.389 . S
C226 C227 1.387 . S
C227 H212 0.930 . S
C227 C222 1.390 . S
C227 C226 1.387 . S
H228 C240 0.930 . S
H229 C242 0.930 . S
H230 C243 0.930 . S
H231 C247 0.959 . S
H232 C247 0.959 . S
H233 C247 0.961 . S
H234 C248 0.960 . S
H235 C248 0.961 . S
H236 C248 0.959 . S
H237 C251 0.929 . S
H238 C252 0.931 . S
H239 C254 0.930 . S
C240 H228 0.930 . S
C240 C241 1.399 . S
C240 C245 1.399 . S
C241 C240 1.399 . S
C241 C242 1.376 . S
C242 H229 0.930 . S
C242 C241 1.376 . S
C242 C243 1.388 . S
C243 H230 0.930 . S
C243 C242 1.388 . S
C243 C244 1.390 . S
C244 C243 1.390 . S
C244 C245 1.394 . S
C244 C250 1.465 . S
C245 C240 1.399 . S
C245 C244 1.394 . S
C245 C246 1.516 . S
C246 C245 1.516 . S
C246 C247 1.502 . S
C246 C248 1.561 . S
C246 C249 1.526 . S
C247 H231 0.959 . S
C247 H232 0.959 . S
C247 H233 0.961 . S
C247 C246 1.502 . S
C248 H234 0.960 . S
C248 H235 0.961 . S
C248 H236 0.959 . S
C248 C246 1.561 . S
C249 C246 1.526 . S
C249 C250 1.396 . S
C249 C254 1.390 . S
C250 C244 1.465 . S
C250 C249 1.396 . S
C250 C251 1.399 . S
C251 H237 0.929 . S
C251 C250 1.399 . S
C251 C252 1.385 . S
C252 H238 0.931 . S
C252 C251 1.385 . S
C252 C253 1.389 . S
C253 C252 1.389 . S
C253 C254 1.387 . S
C254 H239 0.930 . S
C254 C249 1.390 . S
C254 C253 1.387 . S
H255 C267 0.930 . S
H256 C269 0.930 . S
H257 C270 0.930 . S
H258 C274 0.959 . S
H259 C274 0.959 . S
H260 C274 0.961 . S
H261 C275 0.960 . S
H262 C275 0.961 . S
H263 C275 0.959 . S
H264 C278 0.929 . S
H265 C279 0.931 . S
H266 C281 0.930 . S
C267 H255 0.930 . S
C267 C268 1.399 . S
C267 C272 1.399 . S
C268 C267 1.399 . S
C268 C269 1.376 . S
C269 H256 0.930 . S
C269 C268 1.376 . S
C269 C270 1.388 . S
C270 H257 0.930 . S
C270 C269 1.388 . S
C270 C271 1.390 . S
C271 C270 1.390 . S
C271 C272 1.394 . S
C271 C277 1.465 . S
C272 C267 1.399 . S
C272 C271 1.394 . S
C272 C273 1.516 . S
C273 C272 1.516 . S
C273 C274 1.502 . S
C273 C275 1.561 . S
C273 C276 1.526 . S
C274 H258 0.959 . S
C274 H259 0.959 . S
C274 H260 0.961 . S
C274 C273 1.502 . S
C275 H261 0.960 . S
C275 H262 0.961 . S
C275 H263 0.959 . S
C275 C273 1.561 . S
C276 C273 1.526 . S
C276 C277 1.396 . S
C276 C281 1.390 . S
C277 C271 1.465 . S
C277 C276 1.396 . S
C277 C278 1.399 . S
C278 H264 0.929 . S
C278 C277 1.399 . S
C278 C279 1.385 . S
C279 H265 0.931 . S
C279 C278 1.385 . S
C279 C280 1.389 . S
C280 C279 1.389 . S
C280 C281 1.387 . S
C281 H266 0.930 . S
C281 C276 1.390 . S
C281 C280 1.387 . S
H282 C294 0.930 . S
H283 C296 0.930 . S
H284 C297 0.930 . S
H285 C301 0.959 . S
H286 C301 0.959 . S
H287 C301 0.961 . S
H288 C302 0.960 . S
H289 C302 0.961 . S
H290 C302 0.959 . S
H291 C305 0.929 . S
H292 C306 0.931 . S
H293 C308 0.930 . S
C294 H282 0.930 . S
C294 C295 1.399 . S
C294 C299 1.399 . S
C295 C294 1.399 . S
C295 C296 1.376 . S
C296 H283 0.930 . S
C296 C295 1.376 . S
C296 C297 1.388 . S
C297 H284 0.930 . S
C297 C296 1.388 . S
C297 C298 1.390 . S
C298 C297 1.390 . S
C298 C299 1.394 . S
C298 C304 1.465 . S
C299 C294 1.399 . S
C299 C298 1.394 . S
C299 C300 1.516 . S
C300 C299 1.516 . S
C300 C301 1.502 . S
C300 C302 1.561 . S
C300 C303 1.526 . S
C301 H285 0.959 . S
C301 H286 0.959 . S
C301 H287 0.961 . S
C301 C300 1.502 . S
C302 H288 0.960 . S
C302 H289 0.961 . S
C302 H290 0.959 . S
C302 C300 1.561 . S
C303 C300 1.526 . S
C303 C304 1.396 . S
C303 C308 1.390 . S
C304 C298 1.465 . S
C304 C303 1.396 . S
C304 C305 1.399 . S
C305 H291 0.929 . S
C305 C304 1.399 . S
C305 C306 1.385 . S
C306 H292 0.931 . S
C306 C305 1.385 . S
C306 C307 1.389 . S
C307 C306 1.389 . S
C307 C308 1.387 . S
C308 H293 0.930 . S
C308 C303 1.390 . S
C308 C307 1.387 . S
H309 C321 0.930 . S
H310 C323 0.930 . S
H311 C324 0.930 . S
H312 C328 0.959 . S
H313 C328 0.959 . S
H314 C328 0.961 . S
H315 C329 0.960 . S
H316 C329 0.961 . S
H317 C329 0.959 . S
H318 C332 0.929 . S
H319 C333 0.931 . S
H320 C335 0.930 . S
C321 H309 0.930 . S
C321 C322 1.399 . S
C321 C326 1.399 . S
C322 C321 1.399 . S
C322 C323 1.376 . S
C323 H310 0.930 . S
C323 C322 1.376 . S
C323 C324 1.388 . S
C324 H311 0.930 . S
C324 C323 1.388 . S
C324 C325 1.390 . S
C325 C324 1.390 . S
C325 C326 1.394 . S
C325 C331 1.465 . S
C326 C321 1.399 . S
C326 C325 1.394 . S
C326 C327 1.516 . S
C327 C326 1.516 . S
C327 C328 1.502 . S
C327 C329 1.561 . S
C327 C330 1.526 . S
C328 H312 0.959 . S
C328 H313 0.959 . S
C328 H314 0.961 . S
C328 C327 1.502 . S
C329 H315 0.960 . S
C329 H316 0.961 . S
C329 H317 0.959 . S
C329 C327 1.561 . S
C330 C327 1.526 . S
C330 C331 1.396 . S
C330 C335 1.390 . S
C331 C325 1.465 . S
C331 C330 1.396 . S
C331 C332 1.399 . S
C332 H318 0.929 . S
C332 C331 1.399 . S
C332 C333 1.385 . S
C333 H319 0.931 . S
C333 C332 1.385 . S
C333 C334 1.389 . S
C334 C333 1.389 . S
C334 C335 1.387 . S
C335 H320 0.930 . S
C335 C330 1.390 . S
C335 C334 1.387 . S
H336 C348 0.930 . S
H337 C350 0.930 . S
H338 C351 0.930 . S
H339 C355 0.959 . S
H340 C355 0.959 . S
H341 C355 0.961 . S
H342 C356 0.960 . S
H343 C356 0.961 . S
H344 C356 0.959 . S
H345 C359 0.929 . S
H346 C360 0.931 . S
H347 C362 0.930 . S
C348 H336 0.930 . S
C348 C349 1.399 . S
C348 C353 1.399 . S
C349 C348 1.399 . S
C349 C350 1.376 . S
C350 H337 0.930 . S
C350 C349 1.376 . S
C350 C351 1.388 . S
C351 H338 0.930 . S
C351 C350 1.388 . S
C351 C352 1.390 . S
C352 C351 1.390 . S
C352 C353 1.394 . S
C352 C358 1.465 . S
C353 C348 1.399 . S
C353 C352 1.394 . S
C353 C354 1.516 . S
C354 C353 1.516 . S
C354 C355 1.502 . S
C354 C356 1.561 . S
C354 C357 1.526 . S
C355 H339 0.959 . S
C355 H340 0.959 . S
C355 H341 0.961 . S
C355 C354 1.502 . S
C356 H342 0.960 . S
C356 H343 0.961 . S
C356 H344 0.959 . S
C356 C354 1.561 . S
C357 C354 1.526 . S
C357 C358 1.396 . S
C357 C362 1.390 . S
C358 C352 1.465 . S
C358 C357 1.396 . S
C358 C359 1.399 . S
C359 H345 0.929 . S
C359 C358 1.399 . S
C359 C360 1.385 . S
C360 H346 0.931 . S
C360 C359 1.385 . S
C360 C361 1.389 . S
C361 C360 1.389 . S
C361 C362 1.387 . S
C362 H347 0.930 . S
C362 C357 1.390 . S
C362 C361 1.387 . S
H363 C375 0.930 . S
H364 C377 0.930 . S
H365 C378 0.930 . S
H366 C382 0.959 . S
H367 C382 0.959 . S
H368 C382 0.961 . S
H369 C383 0.960 . S
H370 C383 0.961 . S
H371 C383 0.959 . S
H372 C386 0.929 . S
H373 C387 0.931 . S
H374 C389 0.930 . S
C375 H363 0.930 . S
C375 C376 1.399 . S
C375 C380 1.399 . S
C376 C375 1.399 . S
C376 C377 1.376 . S
C377 H364 0.930 . S
C377 C376 1.376 . S
C377 C378 1.388 . S
C378 H365 0.930 . S
C378 C377 1.388 . S
C378 C379 1.390 . S
C379 C378 1.390 . S
C379 C380 1.394 . S
C379 C385 1.465 . S
C380 C375 1.399 . S
C380 C379 1.394 . S
C380 C381 1.516 . S
C381 C380 1.516 . S
C381 C382 1.502 . S
C381 C383 1.561 . S
C381 C384 1.526 . S
C382 H366 0.959 . S
C382 H367 0.959 . S
C382 H368 0.961 . S
C382 C381 1.502 . S
C383 H369 0.960 . S
C383 H370 0.961 . S
C383 H371 0.959 . S
C383 C381 1.561 . S
C384 C381 1.526 . S
C384 C385 1.396 . S
C384 C389 1.390 . S
C385 C379 1.465 . S
C385 C384 1.396 . S
C385 C386 1.399 . S
C386 H372 0.929 . S
C386 C385 1.399 . S
C386 C387 1.385 . S
C387 H373 0.931 . S
C387 C386 1.385 . S
C387 C388 1.389 . S
C388 C387 1.389 . S
C388 C389 1.387 . S
C389 H374 0.930 . S
C389 C384 1.390 . S
C389 C388 1.387 . S
H390 C402 0.930 . S
H391 C404 0.930 . S
H392 C405 0.930 . S
H393 C409 0.959 . S
H394 C409 0.959 . S
H395 C409 0.961 . S
H396 C410 0.960 . S
H397 C410 0.961 . S
H398 C410 0.959 . S
H399 C413 0.929 . S
H400 C414 0.931 . S
H401 C416 0.930 . S
C402 H390 0.930 . S
C402 C403 1.399 . S
C402 C407 1.399 . S
C403 C402 1.399 . S
C403 C404 1.376 . S
C404 H391 0.930 . S
C404 C403 1.376 . S
C404 C405 1.388 . S
C405 H392 0.930 . S
C405 C404 1.388 . S
C405 C406 1.390 . S
C406 C405 1.390 . S
C406 C407 1.394 . S
C406 C412 1.465 . S
C407 C402 1.399 . S
C407 C406 1.394 . S
C407 C408 1.516 . S
C408 C407 1.516 . S
C408 C409 1.502 . S
C408 C410 1.561 . S
C408 C411 1.526 . S
C409 H393 0.959 . S
C409 H394 0.959 . S
C409 H395 0.961 . S
C409 C408 1.502 . S
C410 H396 0.960 . S
C410 H397 0.961 . S
C410 H398 0.959 . S
C410 C408 1.561 . S
C411 C408 1.526 . S
C411 C412 1.396 . S
C411 C416 1.390 . S
C412 C406 1.465 . S
C412 C411 1.396 . S
C412 C413 1.399 . S
C413 H399 0.929 . S
C413 C412 1.399 . S
C413 C414 1.385 . S
C414 H400 0.931 . S
C414 C413 1.385 . S
C414 C415 1.389 . S
C415 C414 1.389 . S
C415 C416 1.387 . S
C416 H401 0.930 . S
C416 C411 1.390 . S
C416 C415 1.387 . S
H417 C429 0.930 . S
H418 C431 0.930 . S
H419 C432 0.930 . S
H420 C436 0.959 . S
H421 C436 0.959 . S
H422 C436 0.961 . S
H423 C437 0.960 . S
H424 C437 0.961 . S
H425 C437 0.959 . S
H426 C440 0.929 . S
H427 C441 0.931 . S
H428 C443 0.930 . S
C429 H417 0.930 . S
C429 C430 1.399 . S
C429 C434 1.399 . S
C430 C429 1.399 . S
C430 C431 1.376 . S
C431 H418 0.930 . S
C431 C430 1.376 . S
C431 C432 1.388 . S
C432 H419 0.930 . S
C432 C431 1.388 . S
C432 C433 1.390 . S
C433 C432 1.390 . S
C433 C434 1.394 . S
C433 C439 1.465 . S
C434 C429 1.399 . S
C434 C433 1.394 . S
C434 C435 1.516 . S
C435 C434 1.516 . S
C435 C436 1.502 . S
C435 C437 1.561 . S
C435 C438 1.526 . S
C436 H420 0.959 . S
C436 H421 0.959 . S
C436 H422 0.961 . S
C436 C435 1.502 . S
C437 H423 0.960 . S
C437 H424 0.961 . S
C437 H425 0.959 . S
C437 C435 1.561 . S
C438 C435 1.526 . S
C438 C439 1.396 . S
C438 C443 1.390 . S
C439 C433 1.465 . S
C439 C438 1.396 . S
C439 C440 1.399 . S
C440 H426 0.929 . S
C440 C439 1.399 . S
C440 C441 1.385 . S
C441 H427 0.931 . S
C441 C440 1.385 . S
C441 C442 1.389 . S
C442 C441 1.389 . S
C442 C443 1.387 . S
C443 H428 0.930 . S
C443 C438 1.390 . S
C443 C442 1.387 . S
H444 C456 0.930 . S
H445 C458 0.930 . S
H446 C459 0.930 . S
H447 C463 0.959 . S
H448 C463 0.959 . S
H449 C463 0.961 . S
H450 C464 0.960 . S
H451 C464 0.961 . S
H452 C464 0.959 . S
H453 C467 0.929 . S
H454 C468 0.931 . S
H455 C470 0.930 . S
C456 H444 0.930 . S
C456 C457 1.399 . S
C456 C461 1.399 . S
C457 C456 1.399 . S
C457 C458 1.376 . S
C458 H445 0.930 . S
C458 C457 1.376 . S
C458 C459 1.388 . S
C459 H446 0.930 . S
C459 C458 1.388 . S
C459 C460 1.390 . S
C460 C459 1.390 . S
C460 C461 1.394 . S
C460 C466 1.465 . S
C461 C456 1.399 . S
C461 C460 1.394 . S
C461 C462 1.516 . S
C462 C461 1.516 . S
C462 C463 1.502 . S
C462 C464 1.561 . S
C462 C465 1.526 . S
C463 H447 0.959 . S
C463 H448 0.959 . S
C463 H449 0.961 . S
C463 C462 1.502 . S
C464 H450 0.960 . S
C464 H451 0.961 . S
C464 H452 0.959 . S
C464 C462 1.561 . S
C465 C462 1.526 . S
C465 C466 1.396 . S
C465 C470 1.390 . S
C466 C460 1.465 . S
C466 C465 1.396 . S
C466 C467 1.399 . S
C467 H453 0.929 . S
C467 C466 1.399 . S
C467 C468 1.385 . S
C468 H454 0.931 . S
C468 C467 1.385 . S
C468 C469 1.389 . S
C469 C468 1.389 . S
C469 C470 1.387 . S
C470 H455 0.930 . S
C470 C465 1.390 . S
C470 C469 1.387 . S
H471 C483 0.930 . S
H472 C485 0.930 . S
H473 C486 0.930 . S
H474 C490 0.959 . S
H475 C490 0.959 . S
H476 C490 0.961 . S
H477 C491 0.960 . S
H478 C491 0.961 . S
H479 C491 0.959 . S
H480 C494 0.929 . S
H481 C495 0.931 . S
H482 C497 0.930 . S
C483 H471 0.930 . S
C483 C484 1.399 . S
C483 C488 1.399 . S
C484 C483 1.399 . S
C484 C485 1.376 . S
C485 H472 0.930 . S
C485 C484 1.376 . S
C485 C486 1.388 . S
C486 H473 0.930 . S
C486 C485 1.388 . S
C486 C487 1.390 . S
C487 C486 1.390 . S
C487 C488 1.394 . S
C487 C493 1.465 . S
C488 C483 1.399 . S
C488 C487 1.394 . S
C488 C489 1.516 . S
C489 C488 1.516 . S
C489 C490 1.502 . S
C489 C491 1.561 . S
C489 C492 1.526 . S
C490 H474 0.959 . S
C490 H475 0.959 . S
C490 H476 0.961 . S
C490 C489 1.502 . S
C491 H477 0.960 . S
C491 H478 0.961 . S
C491 H479 0.959 . S
C491 C489 1.561 . S
C492 C489 1.526 . S
C492 C493 1.396 . S
C492 C497 1.390 . S
C493 C487 1.465 . S
C493 C492 1.396 . S
C493 C494 1.399 . S
C494 H480 0.929 . S
C494 C493 1.399 . S
C494 C495 1.385 . S
C495 H481 0.931 . S
C495 C494 1.385 . S
C495 C496 1.389 . S
C496 C495 1.389 . S
C496 C497 1.387 . S
C497 H482 0.930 . S
C497 C492 1.390 . S
C497 C496 1.387 . S
H498 C510 0.930 . S
H499 C512 0.930 . S
H500 C513 0.930 . S
H501 C517 0.959 . S
H502 C517 0.959 1_556 S
H503 C517 0.961 . S
H504 C518 0.960 . S
H505 C518 0.961 1_556 S
H506 C518 0.959 . S
H507 C521 0.929 1_554 S
H508 C522 0.931 . S
H509 C524 0.930 . S
C510 H498 0.930 . S
C510 C511 1.399 . S
C510 C515 1.399 . S
C511 C510 1.399 . S
C511 C512 1.376 . S
C512 H499 0.930 . S
C512 C511 1.376 . S
C512 C513 1.388 . S
C513 H500 0.930 . S
C513 C512 1.388 . S
C513 C514 1.390 . S
C514 C513 1.390 . S
C514 C515 1.394 . S
C514 C520 1.465 . S
C515 C510 1.399 . S
C515 C514 1.394 . S
C515 C516 1.516 . S
C516 C515 1.516 . S
C516 C517 1.502 . S
C516 C518 1.561 1_455 S
C516 C519 1.526 1_554 S
C517 H501 0.959 . S
C517 H502 0.959 1_554 S
C517 H503 0.961 . S
C517 C516 1.502 . S
C518 H504 0.960 . S
C518 H505 0.961 1_554 S
C518 H506 0.959 . S
C518 C516 1.561 1_655 S
C519 C516 1.526 1_556 S
C519 C520 1.396 1_556 S
C519 C524 1.390 . S
C520 C514 1.465 . S
C520 C519 1.396 1_554 S
C520 C521 1.399 1_554 S
C521 H507 0.929 1_556 S
C521 C520 1.399 1_556 S
C521 C522 1.385 . S
C522 H508 0.931 . S
C522 C521 1.385 . S
C522 C523 1.389 . S
C523 C522 1.389 . S
C523 C524 1.387 . S
C524 H509 0.930 . S
C524 C519 1.390 . S
C524 C523 1.387 . S
H525 C537 0.930 . S
H526 C539 0.949 . S
H527 C540 0.930 . S
H528 C544 0.959 . S
H529 C544 0.959 . S
H530 C544 0.961 . S
H531 C545 0.960 . S
H532 C545 0.961 . S
H533 C545 0.959 . S
H534 C548 0.929 . S
H535 C549 0.931 . S
H536 C551 0.930 . S
C537 H525 0.930 . S
C537 C538 1.399 . S
C537 C542 1.399 . S
C538 C537 1.399 . S
C538 C539 1.353 1_545 S
C539 H526 0.949 . S
C539 C538 1.353 1_565 S
C539 C540 1.393 . S
C540 H527 0.930 . S
C540 C539 1.393 . S
C540 C541 1.390 1_565 S
C541 C540 1.390 1_545 S
C541 C542 1.394 . S
C541 C547 1.465 . S
C542 C537 1.399 . S
C542 C541 1.394 . S
C542 C543 1.516 . S
C543 C542 1.516 . S
C543 C544 1.502 . S
C543 C545 1.561 . S
C543 C546 1.526 . S
C544 H528 0.959 . S
C544 H529 0.959 . S
C544 H530 0.961 . S
C544 C543 1.502 . S
C545 H531 0.960 . S
C545 H532 0.961 . S
C545 H533 0.959 . S
C545 C543 1.561 . S
C546 C543 1.526 . S
C546 C547 1.396 . S
C546 C551 1.390 . S
C547 C541 1.465 . S
C547 C546 1.396 . S
C547 C548 1.399 1_545 S
C548 H534 0.929 . S
C548 C547 1.399 1_565 S
C548 C549 1.385 . S
C549 H535 0.931 . S
C549 C548 1.385 . S
C549 C550 1.389 1_565 S
C550 C549 1.389 1_545 S
C550 C551 1.387 . S
C551 H536 0.930 . S
C551 C546 1.390 . S
C551 C550 1.387 . S
H552 C564 0.930 . S
H553 C566 0.930 . S
H554 C567 0.930 . S
H555 C571 0.959 . S
H556 C571 0.959 . S
H557 C571 0.961 . S
H558 C572 0.960 . S
H559 C572 0.961 . S
H560 C572 0.959 . S
H561 C575 0.929 . S
H562 C576 0.931 . S
H563 C578 0.930 . S
C564 H552 0.930 . S
C564 C565 1.399 . S
C564 C569 1.399 . S
C565 C564 1.399 . S
C565 C566 1.376 . S
C566 H553 0.930 . S
C566 C565 1.376 . S
C566 C567 1.388 . S
C567 H554 0.930 . S
C567 C566 1.388 . S
C567 C568 1.390 . S
C568 C567 1.390 . S
C568 C569 1.394 . S
C568 C574 1.465 . S
C569 C564 1.399 . S
C569 C568 1.394 . S
C569 C570 1.516 . S
C570 C569 1.516 . S
C570 C571 1.502 . S
C570 C572 1.561 . S
C570 C573 1.526 . S
C571 H555 0.959 . S
C571 H556 0.959 . S
C571 H557 0.961 . S
C571 C570 1.502 . S
C572 H558 0.960 . S
C572 H559 0.961 . S
C572 H560 0.959 . S
C572 C570 1.561 . S
C573 C570 1.526 . S
C573 C574 1.396 . S
C573 C578 1.390 . S
C574 C568 1.465 . S
C574 C573 1.396 . S
C574 C575 1.399 . S
C575 H561 0.929 . S
C575 C574 1.399 . S
C575 C576 1.385 . S
C576 H562 0.931 . S
C576 C575 1.385 . S
C576 C577 1.389 . S
C577 C576 1.389 . S
C577 C578 1.387 . S
C578 H563 0.930 . S
C578 C573 1.390 . S
C578 C577 1.387 . S
H579 C591 0.930 . S
H580 C593 0.930 . S
H581 C594 0.930 . S
H582 C598 0.959 . S
H583 C598 0.959 . S
H584 C598 0.961 . S
H585 C599 0.960 . S
H586 C599 0.961 . S
H587 C599 0.959 . S
H588 C602 0.929 . S
H589 C603 0.931 . S
H590 C605 0.930 . S
C591 H579 0.930 . S
C591 C592 1.399 1_565 S
C591 C596 1.399 . S
C592 C591 1.399 1_545 S
C592 C593 1.376 . S
C593 H580 0.930 . S
C593 C592 1.376 . S
C593 C594 1.388 . S
C594 H581 0.930 . S
C594 C593 1.388 . S
C594 C595 1.390 . S
C595 C594 1.390 . S
C595 C596 1.394 1_545 S
C595 C601 1.465 . S
C596 C591 1.399 . S
C596 C595 1.394 1_565 S
C596 C597 1.516 . S
C597 C596 1.516 . S
C597 C598 1.502 . S
C597 C599 1.561 . S
C597 C600 1.526 . S
C598 H582 0.959 . S
C598 H583 0.959 . S
C598 H584 0.961 . S
C598 C597 1.502 . S
C599 H585 0.960 . S
C599 H586 0.961 . S
C599 H587 0.959 . S
C599 C597 1.561 . S
C600 C597 1.526 . S
C600 C601 1.396 1_565 S
C600 C605 1.390 . S
C601 C595 1.465 . S
C601 C600 1.396 1_545 S
C601 C602 1.399 . S
C602 H588 0.929 . S
C602 C601 1.399 . S
C602 C603 1.385 . S
C603 H589 0.931 . S
C603 C602 1.385 . S
C603 C604 1.389 . S
C604 C603 1.389 . S
C604 C605 1.387 1_545 S
C605 H590 0.930 . S
C605 C600 1.390 . S
C605 C604 1.387 1_565 S
H606 C618 0.930 . S
H607 C620 0.930 . S
H608 C621 0.930 . S
H609 C625 0.959 . S
H610 C625 0.959 1_554 S
H611 C625 0.961 . S
H612 C626 0.960 . S
H613 C626 0.961 1_554 S
H614 C626 0.959 . S
H615 C629 0.929 . S
H616 C630 0.931 . S
H617 C632 0.930 . S
C618 H606 0.930 . S
C618 C619 1.399 . S
C618 C623 1.399 . S
C619 C618 1.399 . S
C619 C620 1.376 . S
C620 H607 0.930 . S
C620 C619 1.376 . S
C620 C621 1.388 . S
C621 H608 0.930 . S
C621 C620 1.388 . S
C621 C622 1.390 . S
C622 C621 1.390 . S
C622 C623 1.394 . S
C622 C628 1.465 . S
C623 C618 1.399 . S
C623 C622 1.394 . S
C623 C624 1.516 . S
C624 C623 1.516 . S
C624 C625 1.502 . S
C624 C626 1.561 . S
C624 C627 1.526 . S
C625 H609 0.959 . S
C625 H610 0.959 1_556 S
C625 H611 0.961 . S
C625 C624 1.502 . S
C626 H612 0.960 . S
C626 H613 0.961 1_556 S
C626 H614 0.959 . S
C626 C624 1.561 . S
C627 C624 1.526 . S
C627 C628 1.396 . S
C627 C632 1.390 1_556 S
C628 C622 1.465 . S
C628 C627 1.396 . S
C628 C629 1.399 . S
C629 H615 0.929 . S
C629 C628 1.399 . S
C629 C630 1.385 1_556 S
C630 H616 0.931 . S
C630 C629 1.385 1_554 S
C630 C631 1.389 . S
C631 C630 1.389 . S
C631 C632 1.387 . S
C632 H617 0.930 . S
C632 C627 1.390 1_554 S
C632 C631 1.387 . S
H633 C645 0.926 1_655 S
H634 C647 0.930 . S
H635 C648 0.930 . S
H636 C652 0.959 . S
H637 C652 0.959 . S
H638 C652 0.961 . S
H639 C653 0.960 . S
H640 C653 0.961 . S
H641 C653 0.959 1_455 S
H642 C656 0.929 . S
H643 C657 0.931 . S
H644 C659 0.930 . S
C645 H633 0.926 1_455 S
C645 C646 1.404 . S
C645 C650 1.398 . S
C646 C645 1.404 . S
C646 C647 1.376 . S
C647 H634 0.930 . S
C647 C646 1.376 . S
C647 C648 1.388 . S
C648 H635 0.930 . S
C648 C647 1.388 . S
C648 C649 1.390 . S
C649 C648 1.390 . S
C649 C650 1.394 . S
C649 C655 1.465 . S
C650 C645 1.398 . S
C650 C649 1.394 . S
C650 C651 1.516 1_455 S
C651 C650 1.516 1_655 S
C651 C652 1.502 . S
C651 C653 1.561 . S
C651 C654 1.526 . S
C652 H636 0.959 . S
C652 H637 0.959 . S
C652 H638 0.961 . S
C652 C651 1.502 . S
C653 H639 0.960 . S
C653 H640 0.961 . S
C653 H641 0.959 1_655 S
C653 C651 1.561 . S
C654 C651 1.526 . S
C654 C655 1.396 1_655 S
C654 C659 1.390 . S
C655 C649 1.465 . S
C655 C654 1.396 1_455 S
C655 C656 1.399 . S
C656 H642 0.929 . S
C656 C655 1.399 . S
C656 C657 1.385 . S
C657 H643 0.931 . S
C657 C656 1.385 . S
C657 C658 1.389 . S
C658 C657 1.389 . S
C658 C659 1.387 1_455 S
C659 H644 0.930 . S
C659 C654 1.390 . S
C659 C658 1.387 1_655 S
C187 C25 0.494 . S
C199 C169 0.557 . S
C214 C65 0.472 . S
C226 C151 0.465 . S
C241 C105 0.617 . S
C253 C163 0.536 . S
C268 C4 0.719 . S
C280 C172 0.483 . S
C307 C154 0.509 . S
C295 C44 0.453 . S
C334 C160 0.573 . S
C322 C84 0.488 . S
C349 C60 2.856 . S
C361 C133 2.830 . S
C376 C100 2.964 . S
C388 C142 2.936 1_655 S
C403 C31 2.947 . S
C415 C124 2.925 . S
C442 C136 2.919 . S
C430 C71 2.939 . S
C469 C145 2.833 . S
C457 C111 2.827 . S
C484 C20 2.858 . S
C496 C127 2.838 . S
C523 C143 1.817 . S
C511 C2 1.715 . S
C538 C42 1.755 . S
C550 C125 1.805 . S
C565 C82 1.724 . S
C577 C134 1.808 . S
C604 C161 0.972 1_545 S
C592 C63 0.941 . S
C631 C170 1.054 . S
C619 C103 1.029 . S
C646 C23 0.950 . S
C658 C152 0.971 . S
