# Generated by pormake.
# Topology pts, (4,4)-cn, num edge types: 1
# Building blocks:
#     Node 0, Type 0, BuildingBlock: NAWXER_clean_linker_0, # of connection points: 4
#     Node 1, Type 0, BuildingBlock: NAWXER_clean_linker_0, # of connection points: 4
#     Node 2, Type 1, BuildingBlock: UXUYUI_clean_sbu_0, # of connection points: 4
#     Node 3, Type 1, BuildingBlock: UXUYUI_clean_sbu_0, # of connection points: 4
#     Edge 4, Type (0, 1), BuildingBlock: MIFKUJ_clean_linker_0, # of connection points: 2
#     Edge 5, Type (0, 1), BuildingBlock: MIFKUJ_clean_linker_0, # of connection points: 2
#     Edge 6, Type (0, 1), BuildingBlock: MIFKUJ_clean_linker_0, # of connection points: 2
#     Edge 7, Type (0, 1), BuildingBlock: MIFKUJ_clean_linker_0, # of connection points: 2
#     Edge 8, Type (0, 1), BuildingBlock: MIFKUJ_clean_linker_0, # of connection points: 2
#     Edge 9, Type (0, 1), BuildingBlock: MIFKUJ_clean_linker_0, # of connection points: 2
#     Edge 10, Type (0, 1), BuildingBlock: MIFKUJ_clean_linker_0, # of connection points: 2
#     Edge 11, Type (0, 1), BuildingBlock: MIFKUJ_clean_linker_0, # of connection points: 2
# Relax obj value: 0.000
# Max RMSD: 0.009
# Mean RMSD: 0.008
data_MOF--net-pts--node1-UXUYUI_clean_sbu_0--node2-NAWXER_clean_linker_0--edge1-MIFKUJ_clean_linker_0
_symmetry_space_group_name_H-M    P1
_symmetry_Int_Tables_number       1
_symmetry_cell_setting            triclinic
loop_
_symmetry_equiv_pos_as_xyz
'x, y, z'
_cell_length_a     42.663761
_cell_length_b     42.685103
_cell_length_c     61.567696
_cell_angle_alpha  89.9923
_cell_angle_beta   90.025994
_cell_angle_gamma 89.88392
loop_
_atom_site_label
_atom_site_type_symbol
_atom_site_fract_x
_atom_site_fract_y
_atom_site_fract_z
_atom_type_partial_charge
C0 C 0.60586 0.02674 0.96475 0.0
C1 C 0.61163 0.00211 0.95007 0.0
C2 C 0.57908 0.02664 0.97783 0.0
C3 C 0.55751 0.00194 0.97651 0.0
C4 C 0.58983 0.97745 0.94879 0.0
C5 C 0.56291 0.97755 0.96173 0.0
C6 C 0.52875 0.00192 0.98993 0.0
C7 C 0.60909 0.9855 0.03579 0.0
C8 C 0.61232 0.00796 0.05236 0.0
C9 C 0.58224 0.98489 0.02278 0.0
C10 C 0.55826 0.00709 0.02578 0.0
C11 C 0.58812 0.02995 0.05546 0.0
C12 C 0.56135 0.02943 0.04236 0.0
C13 C 0.52906 0.00596 0.01272 0.0
C14 C 0.39645 0.97951 0.03866 0.0
C15 C 0.39062 0.00417 0.05333 0.0
C16 C 0.42304 0.97983 0.02539 0.0
C17 C 0.44439 0.00474 0.02654 0.0
C18 C 0.41216 0.02908 0.05436 0.0
C19 C 0.43891 0.02917 0.04127 0.0
C20 C 0.47312 0.0048 0.01311 0.0
C21 C 0.39274 0.02091 0.96723 0.0
C22 C 0.38943 0.99814 0.95089 0.0
C23 C 0.41964 0.0217 0.98018 0.0
C24 C 0.44359 0.99943 0.97731 0.0
C25 C 0.41356 0.97606 0.94791 0.0
C26 C 0.4404 0.97679 0.96094 0.0
C27 C 0.47281 1.00072 0.99033 0.0
H28 H 0.62171 0.04645 0.96588 0.0
H29 H 0.57501 0.04609 0.98879 0.0
H30 H 0.59365 0.95784 0.93796 0.0
H31 H 0.54649 0.95831 0.96041 0.0
H32 H 0.62731 0.96833 0.03283 0.0
H33 H 0.58006 0.9667 0.01062 0.0
H34 H 0.58952 0.0472 0.06832 0.0
H35 H 0.54297 0.04649 0.04522 0.0
H36 H 0.38083 0.95961 0.0377 0.0
H37 H 0.42718 0.96035 0.01448 0.0
H38 H 0.40829 0.04872 0.06516 0.0
H39 H 0.45518 0.04856 0.04245 0.0
H40 H 0.37488 0.03863 0.96965 0.0
H41 H 0.42196 0.04016 0.99214 0.0
H42 H 0.41163 0.95808 0.93557 0.0
H43 H 0.45867 0.95954 0.95827 0.0
N44 N 0.50067 0.99927 0.97965 0.0
N45 N 0.5012 0.00742 0.02339 0.0
C46 C 0.02336 0.60885 0.53642 0.0
C47 C 1.00128 0.61163 0.55325 0.0
C48 C 0.02399 0.58214 0.52328 0.0
C49 C 0.00202 0.55803 0.52636 0.0
C50 C 0.97974 0.58724 0.55659 0.0
C51 C 0.98014 0.56072 0.54329 0.0
C52 C 0.00271 0.52916 0.51294 0.0
C53 C 0.98327 0.60785 0.46616 0.0
C54 C 0.00639 0.61203 0.45014 0.0
C55 C 0.98327 0.58108 0.47924 0.0
C56 C 0.00665 0.55812 0.47678 0.0
C57 C 0.02952 0.5888 0.44755 0.0
C58 C 0.02953 0.56206 0.46065 0.0
C59 C 0.00649 0.52921 0.4901 0.0
C60 C 0.98222 0.39616 0.46483 0.0
C61 C 0.00709 0.39032 0.45033 0.0
C62 C 0.98223 0.42286 0.47797 0.0
C63 C 0.00702 0.44435 0.47686 0.0
C64 C 0.03193 0.41197 0.44937 0.0
C65 C 0.0317 0.43885 0.46233 0.0
C66 C 0.00661 0.47328 0.49006 0.0
C67 C 0.02404 0.3942 0.5369 0.0
C68 C 1.00057 0.39037 0.55273 0.0
C69 C 0.02456 0.42086 0.52372 0.0
C70 C 1.00147 0.44414 0.52596 0.0
C71 C 0.97753 0.41379 0.55493 0.0
C72 C 0.97811 0.44047 0.54178 0.0
C73 C 0.00253 0.47319 0.51282 0.0
H74 H 0.04062 0.62702 0.53375 0.0
H75 H 0.04194 0.5802 0.51093 0.0
H76 H 0.96238 0.58881 0.56938 0.0
H77 H 0.96318 0.54232 0.54617 0.0
H78 H 0.9652 0.62534 0.46866 0.0
H79 H 0.96484 0.57821 0.49116 0.0
H80 H 0.04733 0.59099 0.43511 0.0
H81 H 0.04752 0.54445 0.45824 0.0
H82 H 0.96235 0.38049 0.46573 0.0
H83 H 0.96257 0.42702 0.48873 0.0
H84 H 0.05174 0.40809 0.43872 0.0
H85 H 0.051 0.45523 0.46118 0.0
H86 H 0.04251 0.37696 0.53506 0.0
H87 H 0.04343 0.42358 0.51212 0.0
H88 H 0.95891 0.41146 0.56677 0.0
H89 H 0.96018 0.45822 0.54389 0.0
N90 N 1.00064 0.50113 0.52333 0.0
N91 N 0.00855 0.50125 0.4796 0.0
Li92 Li 0.00213 0.03009 0.26566 0.0
Li93 Li 0.99979 0.97252 0.26655 0.0
Li94 Li 0.03004 0.00175 0.23775 0.0
Li95 Li 0.9725 1.00068 0.23665 0.0
C96 C 0.05398 0.01183 0.28653 0.0
N97 N 0.08647 0.03711 0.32114 0.0
C98 C 0.05193 0.99807 0.30708 0.0
C99 C 0.07284 0.03821 0.28351 0.0
C100 C 0.06849 0.01126 0.32439 0.0
C101 C 0.08898 0.05072 0.30124 0.0
C102 C 0.93727 0.99462 0.27843 0.0
C103 C 0.88952 0.96447 0.2792 0.0
N104 N 0.8818 0.97795 0.29849 0.0
C105 C 0.9287 0.00842 0.29816 0.0
C106 C 0.9174 0.97266 0.26878 0.0
C107 C 0.90064 0.99958 0.30809 0.0
C108 C 0.00217 0.0953 0.27477 0.0
N109 N 0.00179 0.06629 0.28384 0.0
C110 C 1.0015 0.08837 0.31951 0.0
C111 C 1.0011 0.06241 0.30574 0.0
C112 C 0.00205 0.11876 0.31068 0.0
C113 C 0.00224 0.12198 0.28793 0.0
H114 H 0.00226 0.09776 0.25729 0.0
H115 H 1.0004 0.03908 0.31254 0.0
C116 C 0.01934 0.91248 0.27955 0.0
N117 N 0.99955 0.93633 0.28474 0.0
C118 C 0.02051 0.8855 0.29239 0.0
C119 C 0.9809 0.90812 0.31568 0.0
C120 C 0.98073 0.93477 0.30253 0.0
C121 C 1.00099 0.88306 0.31067 0.0
H122 H 0.03423 0.91446 0.26539 0.0
H123 H 0.96582 0.95427 0.30671 0.0
C124 C 0.01335 0.05427 0.21716 0.0
N125 N 0.04016 0.08667 0.18309 0.0
C126 C 0.99988 0.05303 0.19649 0.0
C127 C 0.04023 0.07227 0.22058 0.0
C128 C 0.01383 0.06953 0.17945 0.0
C129 C 0.05351 0.08838 0.20312 0.0
C130 C 0.99292 0.93791 0.22458 0.0
C131 C 0.00615 0.92933 0.20468 0.0
C132 C 0.97068 0.91842 0.23429 0.0
C133 C 0.99641 0.90168 0.1946 0.0
C134 C 0.96158 0.89095 0.22372 0.0
N135 N 0.97449 0.88324 0.20424 0.0
C136 C 0.09535 1.00055 0.22879 0.0
C137 C 0.06252 1.00029 0.19776 0.0
C138 C 0.12208 1.00021 0.21567 0.0
N139 N 0.06634 1.00077 0.21967 0.0
C140 C 0.08854 1.00032 0.18403 0.0
C141 C 0.11892 1.00026 0.19291 0.0
H142 H 0.09775 1.00049 0.24627 0.0
H143 H 0.03919 1.00011 0.19092 0.0
C144 C 0.91201 0.01986 0.22404 0.0
N145 N 0.9365 1.00122 0.21827 0.0
C146 C 0.88513 0.02123 0.21108 0.0
C147 C 0.90931 0.9844 0.18639 0.0
C148 C 0.93578 0.98393 0.19973 0.0
C149 C 0.88351 0.00319 0.19203 0.0
H150 H 0.91335 0.03362 0.23876 0.0
H151 H 0.95583 0.97004 0.19512 0.0
O152 O 0.03765 0.99948 0.26946 0.0
O153 O 0.96468 0.0031 0.26852 0.0
O154 O 1.00025 0.03795 0.23397 0.0
O155 O 0.00231 0.96489 0.23466 0.0
H156 H 0.03751 0.97759 0.30968 0.0
H157 H 0.07479 0.04903 0.26769 0.0
H158 H 0.06698 1.00098 0.34041 0.0
H159 H 0.10349 0.07126 0.29918 0.0
H160 H 0.87395 0.94748 0.27191 0.0
H161 H 0.94361 0.02567 0.30577 0.0
H162 H 0.92318 0.96232 0.25329 0.0
H163 H 0.89382 0.00994 0.32341 0.0
H164 H 0.00176 0.08458 0.3369 0.0
H165 H 0.00203 0.14485 0.28033 0.0
H166 H 0.03623 0.86662 0.28793 0.0
H167 H 0.96588 0.90738 0.32985 0.0
H168 H 0.97901 0.03929 0.19358 0.0
H169 H 0.05085 0.07358 0.23651 0.0
H170 H 0.00377 0.06865 0.16334 0.0
H171 H 0.07444 0.10223 0.2055 0.0
H172 H 0.02363 0.94392 0.19703 0.0
H173 H 0.96079 0.92418 0.24993 0.0
H174 H 0.00631 0.89486 0.17913 0.0
H175 H 0.94435 0.87569 0.23105 0.0
H176 H 0.14493 0.99955 0.22331 0.0
H177 H 0.0848 1.00079 0.16664 0.0
H178 H 0.86569 0.03591 0.21606 0.0
H179 H 0.90925 0.97061 0.17163 0.0
Li180 Li 0.97164 0.00234 0.76548 0.0
Li181 Li 0.02888 1.00025 0.7667 0.0
Li182 Li 0.99971 0.03044 0.7375 0.0
Li183 Li 1.00125 0.97272 0.73675 0.0
C184 C 0.98759 0.05444 0.78573 0.0
N185 N 0.95833 0.0865 0.81904 0.0
C186 C 0.99828 0.05121 0.80707 0.0
C187 C 0.9623 0.07428 0.78128 0.0
C188 C 0.98311 0.06756 0.8237 0.0
C189 C 0.94773 0.09018 0.79835 0.0
C190 C 0.01088 0.93831 0.77818 0.0
C191 C 0.04647 0.89433 0.7777 0.0
N192 N 0.0352 0.88494 0.79731 0.0
C193 C 0.99938 0.928 0.7982 0.0
C194 C 0.03439 0.92117 0.76775 0.0
C195 C 0.01209 0.90106 0.80765 0.0
C196 C 0.90645 0.00651 0.77484 0.0
N197 N 0.93538 0.0022 0.78362 0.0
C198 C 0.91339 0.99805 0.81921 0.0
C199 C 0.93925 0.99784 0.80532 0.0
C200 C 0.88317 0.00266 0.81066 0.0
C201 C 0.87991 0.00689 0.78812 0.0
H202 H 0.90395 0.00968 0.75753 0.0
H203 H 0.9625 0.9943 0.81187 0.0
C204 C 0.09125 0.01474 0.77842 0.0
N205 N 0.06478 0.99999 0.7852 0.0
C206 C 0.11798 0.01501 0.79154 0.0
C207 C 0.08949 0.98559 0.81861 0.0
C208 C 0.06335 0.98587 0.80496 0.0
C209 C 0.11735 1.00022 0.81194 0.0
H210 H 0.09156 0.02637 0.76282 0.0
H211 H 0.04181 0.97507 0.81026 0.0
C212 C 0.94655 0.01224 0.71698 0.0
N213 N 0.91183 0.03623 0.6829 0.0
C214 C 0.94598 0.99673 0.69699 0.0
C215 C 0.92918 0.03976 0.71971 0.0
C216 C 0.92834 0.00927 0.67994 0.0
C217 C 0.91187 0.05157 0.70226 0.0
C218 C 0.06255 0.99459 0.72282 0.0
C219 C 0.06718 0.00803 0.70236 0.0
C220 C 0.08476 0.97357 0.73101 0.0
C221 C 0.09357 0.99964 0.69024 0.0
C222 C 0.11086 0.9658 0.71841 0.0
N223 N 0.11467 0.97885 0.69844 0.0
C224 C 0.00503 0.09542 0.72869 0.0
C225 C 0.99719 0.06372 0.69762 0.0
C226 C 0.00573 0.12239 0.71582 0.0
N227 N 1.00066 0.06685 0.71945 0.0
C228 C 0.99725 0.09003 0.68418 0.0
C229 C 0.00165 0.11998 0.69319 0.0
H230 H 0.00819 0.09725 0.74608 0.0
H231 H 0.9943 0.04072 0.69059 0.0
C232 C 0.9853 0.91086 0.72486 0.0
N233 N 1.00122 0.93674 0.71828 0.0
C234 C 0.9845 0.88411 0.71178 0.0
C235 C 0.01616 0.91126 0.68529 0.0
C236 C 0.0162 0.93749 0.69882 0.0
C237 C 1.00016 0.88402 0.69168 0.0
H238 H 0.97312 0.91106 0.74026 0.0
H239 H 0.02794 0.95854 0.69362 0.0
O240 O 0.00171 0.03812 0.7693 0.0
O241 O 0.99872 0.96473 0.76876 0.0
O242 O 0.96388 1.0004 0.7338 0.0
O243 O 0.03685 0.0027 0.73492 0.0
H244 H 0.01788 0.03603 0.81079 0.0
H245 H 0.95392 0.07724 0.76483 0.0
H246 H 0.991 0.06512 0.84032 0.0
H247 H 0.92798 0.10545 0.79516 0.0
H248 H 0.06471 0.88089 0.7698 0.0
H249 H 0.98093 0.94072 0.80641 0.0
H250 H 0.04294 0.92823 0.75201 0.0
H251 H 0.00355 0.89295 0.82321 0.0
H252 H 0.91701 0.99424 0.83642 0.0
H253 H 0.85714 0.01083 0.78083 0.0
H254 H 0.13874 0.02707 0.7859 0.0
H255 H 0.08795 0.97377 0.83414 0.0
H256 H 0.9591 0.9753 0.69462 0.0
H257 H 0.92927 0.05201 0.73507 0.0
H258 H 0.92781 0.99759 0.66436 0.0
H259 H 0.8985 0.07297 0.7041 0.0
H260 H 0.0505 0.0246 0.69582 0.0
H261 H 0.0822 0.96365 0.74705 0.0
H262 H 0.09729 0.0097 0.67432 0.0
H263 H 0.12818 0.94951 0.72456 0.0
H264 H 0.00983 0.1448 0.72353 0.0
H265 H 0.99353 0.08685 0.66693 0.0
H266 H 0.97136 0.86392 0.71724 0.0
H267 H 0.02878 0.9123 0.67005 0.0
H268 H 0.33148 0.98273 0.04373 0.0
H269 H 0.28581 0.98116 0.06747 0.0
H270 H 0.33935 0.02466 0.11867 0.0
H271 H 0.38574 0.02433 0.09557 0.0
H272 H 0.30565 0.98071 0.13527 0.0
H273 H 0.28403 0.06578 0.08678 0.0
H274 H 0.27768 0.09188 0.05131 0.0
H275 H 0.20359 0.02828 0.03471 0.0
H276 H 0.20978 0.00153 0.06999 0.0
H277 H 0.17505 0.0304 0.19925 0.0
H278 H 0.2211 0.03001 0.17568 0.0
H279 H 0.17248 0.9709 0.13005 0.0
H280 H 0.12669 0.9701 0.15384 0.0
H281 H 0.20304 0.02274 0.11078 0.0
H282 H 0.2254 0.93867 0.16068 0.0
H283 H 0.23195 0.91486 0.19689 0.0
H284 H 0.30522 0.9803 0.21168 0.0
H285 H 0.2988 0.00481 0.17564 0.0
C286 C 0.33375 0.9916 0.06013 0.0
C287 C 0.36242 0.00376 0.06764 0.0
C288 C 0.3074 0.99109 0.07361 0.0
C289 C 0.3089 0.00332 0.09477 0.0
C290 C 0.33751 0.01525 0.10238 0.0
C291 C 0.36397 0.01538 0.08902 0.0
C292 C 0.2808 0.00334 0.10909 0.0
C293 C 0.28337 0.99033 0.12998 0.0
C294 C 0.25146 0.01534 0.10213 0.0
C295 C 0.24758 0.03147 0.08094 0.0
C296 C 0.26653 0.05722 0.0755 0.0
C297 C 0.26294 0.07215 0.05544 0.0
C298 C 0.24031 0.06169 0.04074 0.0
C299 C 0.22115 0.03633 0.0461 0.0
C300 C 0.22466 0.0213 0.06614 0.0
C301 C 0.17421 0.0169 0.18438 0.0
C302 C 0.14704 1.00022 0.17854 0.0
C303 C 0.20053 0.01689 0.17086 0.0
C304 C 0.20019 1.00034 0.15117 0.0
C305 C 0.17312 0.98393 0.14515 0.0
C306 C 0.14691 0.98366 0.15875 0.0
C307 C 0.22808 1.00023 0.13683 0.0
C308 C 0.22542 0.0132 0.11598 0.0
C309 C 0.2574 0.98858 0.14392 0.0
C310 C 0.2614 0.97378 0.16555 0.0
C311 C 0.24273 0.94816 0.17172 0.0
C312 C 0.24645 0.9345 0.1922 0.0
C313 C 0.26893 0.94611 0.2066 0.0
C314 C 0.28779 0.97136 0.20052 0.0
C315 C 0.28413 0.98513 0.18006 0.0
H316 H 0.27178 0.93551 0.22245 0.0
H317 H 0.23756 0.07327 0.02522 0.0
H318 H 0.98743 0.38808 0.59627 0.0
H319 H 0.98746 0.34229 0.62 0.0
H320 H 0.01488 0.2838 0.56609 0.0
H321 H 0.01359 0.32934 0.542 0.0
H322 H 0.97091 0.25569 0.58921 0.0
H323 H 0.06791 0.30645 0.60503 0.0
H324 H 0.10269 0.3502 0.61503 0.0
H325 H 0.05578 0.35907 0.67641 0.0
H326 H 0.0204 0.31563 0.66665 0.0
H327 H 0.02495 0.12559 0.65174 0.0
H328 H 0.02377 0.17154 0.62818 0.0
H329 H 0.97974 0.22525 0.67901 0.0
H330 H 0.97934 0.17904 0.70246 0.0
H331 H 0.03224 0.25541 0.65773 0.0
H332 H 0.93533 0.20324 0.64086 0.0
H333 H 0.9026 0.1582 0.63033 0.0
H334 H 0.95242 0.15066 0.56996 0.0
H335 H 0.9858 0.19539 0.5803 0.0
C336 C 0.99311 0.36543 0.58937 0.0
C337 C 1.00054 0.36243 0.5672 0.0
C338 C 0.99347 0.33931 0.60303 0.0
C339 C 1.00162 0.30965 0.59491 0.0
C340 C 0.00867 0.30647 0.57275 0.0
C341 C 0.00819 0.33259 0.55903 0.0
C342 C 0.00255 0.28194 0.60951 0.0
C343 C 0.98467 0.25552 0.60403 0.0
C344 C 0.02007 0.28184 0.62907 0.0
C345 C 0.04129 0.30799 0.63501 0.0
C346 C 0.06483 0.3179 0.62058 0.0
C347 C 0.08469 0.34261 0.62622 0.0
C348 C 0.08139 0.35746 0.64632 0.0
C349 C 0.05827 0.34757 0.66084 0.0
C350 C 0.03832 0.32289 0.65527 0.0
C351 C 0.01455 0.14696 0.6579 0.0
C352 C 0.00203 0.14837 0.67905 0.0
C353 C 0.01414 0.17329 0.64442 0.0
C354 C 1.00155 0.20168 0.65185 0.0
C355 C 0.98965 0.20352 0.67303 0.0
C356 C 0.98963 0.17707 0.68645 0.0
C357 C 1.00061 0.22939 0.63738 0.0
C358 C 0.01851 0.25572 0.64289 0.0
C359 C 0.98339 0.22928 0.61775 0.0
C360 C 0.96329 0.20245 0.61146 0.0
C361 C 0.93951 0.1918 0.62543 0.0
C362 C 0.9208 0.16636 0.61948 0.0
C363 C 0.92549 0.15152 0.59951 0.0
C364 C 0.94885 0.16214 0.58544 0.0
C365 C 0.96766 0.18755 0.59133 0.0
H366 H 0.91096 0.13183 0.59493 0.0
H367 H 0.09679 0.37658 0.65066 0.0
H368 H 0.6438 0.95735 0.06909 0.0
H369 H 0.68976 0.95743 0.09267 0.0
H370 H 0.68982 0.05849 0.09256 0.0
H371 H 0.64468 0.05862 0.06809 0.0
H372 H 0.74766 0.03711 0.08831 0.0
H373 H 0.66205 0.01621 0.13629 0.0
H374 H 0.61481 0.98894 0.14941 0.0
H375 H 0.66687 0.90307 0.15458 0.0
H376 H 0.71435 0.92973 0.1412 0.0
H377 H 0.84981 0.05458 0.1792 0.0
H378 H 0.80351 0.0559 0.15568 0.0
H379 H 0.80718 0.9553 0.14952 0.0
H380 H 0.85326 0.95378 0.17322 0.0
H381 H 0.74723 0.97748 0.1575 0.0
H382 H 0.83285 0.99938 0.109 0.0
H383 H 0.87981 0.02766 0.09643 0.0
H384 H 0.82693 0.11323 0.09312 0.0
H385 H 0.77973 0.08553 0.10597 0.0
C386 C 0.65379 0.97963 0.07382 0.0
C387 C 0.64045 0.008 0.06668 0.0
C388 C 0.67988 0.97963 0.08755 0.0
C389 C 0.69297 0.00797 0.09468 0.0
C390 C 0.68002 0.03633 0.08737 0.0
C391 C 0.65402 0.03636 0.07353 0.0
C392 C 0.72029 0.008 0.10967 0.0
C393 C 0.74737 0.02444 0.10359 0.0
C394 C 0.72017 0.99101 0.12944 0.0
C395 C 0.69169 0.97491 0.13755 0.0
C396 C 0.66337 0.99146 0.14007 0.0
C397 C 0.63656 0.97612 0.14758 0.0
C398 C 0.63782 0.94427 0.15277 0.0
C399 C 0.66592 0.92772 0.15052 0.0
C400 C 0.6928 0.94294 0.143 0.0
C401 C 0.8406 0.03273 0.17296 0.0
C402 C 0.85521 0.00408 0.17801 0.0
C403 C 0.81431 0.03354 0.15941 0.0
C404 C 0.80209 0.00572 0.15072 0.0
C405 C 0.8163 0.97704 0.15601 0.0
C406 C 0.84273 0.97623 0.16942 0.0
C407 C 0.7745 0.00647 0.13607 0.0
C408 C 0.74741 0.99019 0.14224 0.0
C409 C 0.77452 0.02377 0.11647 0.0
C410 C 0.80285 0.04044 0.10867 0.0
C411 C 0.8313 0.02428 0.10577 0.0
C412 C 0.85795 0.04019 0.09856 0.0
C413 C 0.85637 0.07224 0.09404 0.0
C414 C 0.82812 0.08841 0.09666 0.0
C415 C 0.80141 0.07262 0.10389 0.0
H416 H 0.87703 0.08451 0.08845 0.0
H417 H 0.61704 0.93244 0.15859 0.0
H418 H 0.00431 0.67311 0.54109 0.0
H419 H 0.00378 0.71931 0.5646 0.0
H420 H 0.99767 0.65961 0.62103 0.0
H421 H 0.99746 0.6134 0.59751 0.0
H422 H 0.95941 0.70671 0.62565 0.0
H423 H 0.06734 0.69654 0.60545 0.0
H424 H 0.11208 0.69132 0.58036 0.0
H425 H 0.08894 0.77984 0.55128 0.0
H426 H 0.04378 0.78539 0.57602 0.0
H427 H 0.00336 0.82217 0.70373 0.0
H428 H 0.00265 0.77607 0.68018 0.0
H429 H 0.99614 0.83572 0.62383 0.0
H430 H 0.99598 0.88194 0.64722 0.0
H431 H 0.04096 0.78892 0.61944 0.0
H432 H 0.93279 0.79835 0.64073 0.0
H433 H 0.88922 0.80296 0.66684 0.0
H434 H 0.91481 0.71466 0.69525 0.0
H435 H 0.95884 0.70973 0.66949 0.0
C436 C 0.00301 0.66988 0.55852 0.0
C437 C 1.00101 0.63968 0.56748 0.0
C438 C 0.00278 0.69628 0.57195 0.0
C439 C 1.00116 0.69297 0.59464 0.0
C440 C 0.99892 0.66279 0.60359 0.0
C441 C 0.99878 0.63641 0.59015 0.0
C442 C 1.00152 0.72094 0.60905 0.0
C443 C 0.97752 0.72444 0.62447 0.0
C444 C 0.02479 0.74444 0.6073 0.0
C445 C 0.052 0.74123 0.59245 0.0
C446 C 0.07166 0.71478 0.5936 0.0
C447 C 0.09711 0.71179 0.57946 0.0
C448 C 0.1033 0.7352 0.5642 0.0
C449 C 0.08409 0.7617 0.56309 0.0
C450 C 0.05858 0.7648 0.57718 0.0
C451 C 1.00135 0.82553 0.68635 0.0
C452 C 0.99969 0.85585 0.67741 0.0
C453 C 1.00109 0.79914 0.67292 0.0
C454 C 0.99919 0.80249 0.65028 0.0
C455 C 0.99775 0.83264 0.64127 0.0
C456 C 0.9978 0.85904 0.65468 0.0
C457 C 0.99892 0.77457 0.63595 0.0
C458 C 0.02292 0.77111 0.62058 0.0
C459 C 0.97585 0.75097 0.63789 0.0
C460 C 0.9493 0.75383 0.65332 0.0
C461 C 0.92929 0.78004 0.65266 0.0
C462 C 0.90448 0.78269 0.66738 0.0
C463 C 0.8993 0.75916 0.68273 0.0
C464 C 0.91887 0.73289 0.68337 0.0
C465 C 0.94374 0.73014 0.6687 0.0
H466 H 0.88008 0.76125 0.69411 0.0
H467 H 0.12302 0.73283 0.55326 0.0
H468 H 0.38697 0.98941 0.90689 0.0
H469 H 0.34064 0.98958 0.88351 0.0
H470 H 0.28189 0.00717 0.93921 0.0
H471 H 0.32811 0.00628 0.9628 0.0
H472 H 0.25708 0.96251 0.91284 0.0
H473 H 0.29956 0.06581 0.90479 0.0
H474 H 0.34061 0.10491 0.89725 0.0
H475 H 0.35115 0.0687 0.83259 0.0
H476 H 0.31045 0.02907 0.83986 0.0
H477 H 0.11967 0.00849 0.85605 0.0
H478 H 0.16584 0.00764 0.87953 0.0
H479 H 0.2249 0.99147 0.82379 0.0
H480 H 0.17878 0.99204 0.80018 0.0
H481 H 0.24956 0.0354 0.85025 0.0
H482 H 0.20721 0.93209 0.8582 0.0
H483 H 0.16623 0.89289 0.86567 0.0
H484 H 0.15557 0.92887 0.93038 0.0
H485 H 0.1962 0.9686 0.92319 0.0
C486 C 0.36417 0.99301 0.91421 0.0
C487 C 0.36122 0.99788 0.93671 0.0
C488 C 0.33774 0.99338 0.90079 0.0
C489 C 0.30785 0.99874 0.90959 0.0
C490 C 0.30475 0.00312 0.93208 0.0
C491 C 0.33119 0.00284 0.94551 0.0
C492 C 0.27982 0.99973 0.89531 0.0
C493 C 0.25523 0.97873 0.89933 0.0
C494 C 0.27775 0.02041 0.87738 0.0
C495 C 0.30218 0.04427 0.87295 0.0
C496 C 0.31081 0.06601 0.88903 0.0
C497 C 0.33398 0.0883 0.88479 0.0
C498 C 0.34854 0.08923 0.86448 0.0
C499 C 0.33989 0.06792 0.84833 0.0
C500 C 0.31675 0.04556 0.85249 0.0
C501 C 0.14244 0.00445 0.84879 0.0
C502 C 0.14549 1.00017 0.82623 0.0
C503 C 0.16882 0.00404 0.86224 0.0
C504 C 0.19879 0.99914 0.85345 0.0
C505 C 0.202 0.99531 0.83092 0.0
C506 C 0.17562 0.99574 0.81744 0.0
C507 C 0.22681 0.99816 0.86776 0.0
C508 C 0.2514 0.01916 0.86375 0.0
C509 C 0.22889 0.97746 0.88568 0.0
C510 C 0.20453 0.95353 0.89008 0.0
C511 C 0.19595 0.93181 0.87396 0.0
C512 C 0.17282 0.90947 0.87816 0.0
C513 C 0.15825 0.90844 0.89846 0.0
C514 C 0.16685 0.92972 0.91464 0.0
C515 C 0.18994 0.95214 0.91052 0.0
H516 H 0.14035 0.89112 0.90168 0.0
H517 H 0.36647 0.10651 0.86122 0.0
H518 H 0.98535 0.33127 0.45985 0.0
H519 H 0.98383 0.28562 0.43612 0.0
H520 H 0.02853 0.33876 0.38524 0.0
H521 H 0.02807 0.38517 0.40828 0.0
H522 H 0.98471 0.30559 0.36827 0.0
H523 H 0.06854 0.28282 0.41758 0.0
H524 H 0.09389 0.27604 0.45328 0.0
H525 H 0.02907 0.20268 0.46912 0.0
H526 H 0.00306 0.20931 0.43361 0.0
H527 H 0.03328 0.17431 0.30459 0.0
H528 H 0.03338 0.22032 0.3282 0.0
H529 H 0.97284 0.17269 0.37341 0.0
H530 H 0.97158 0.12696 0.34959 0.0
H531 H 0.02482 0.20243 0.39307 0.0
H532 H 0.94192 0.22609 0.34244 0.0
H533 H 0.91888 0.233 0.30601 0.0
H534 H 0.98579 0.30517 0.29185 0.0
H535 H 0.00954 0.29837 0.3281 0.0
C536 C 0.9945 0.33346 0.44352 0.0
C537 C 0.00692 0.36205 0.43608 0.0
C538 C 0.99403 0.30711 0.43004 0.0
C539 C 0.00659 0.30849 0.40898 0.0
C540 C 0.01885 0.337 0.40146 0.0
C541 C 0.01892 0.36348 0.4148 0.0
C542 C 0.00652 0.28042 0.39464 0.0
C543 C 0.99392 0.28318 0.37363 0.0
C544 C 0.01799 0.25092 0.40168 0.0
C545 C 0.03367 0.24678 0.42301 0.0
C546 C 0.05955 0.2654 0.42874 0.0
C547 C 0.07406 0.26155 0.44893 0.0
C548 C 0.06305 0.239 0.46348 0.0
C549 C 0.03755 0.22017 0.45784 0.0
C550 C 0.02294 0.22394 0.43767 0.0
C551 C 0.01959 0.17369 0.31938 0.0
C552 C 0.00236 0.14682 0.3251 0.0
C553 C 0.01985 0.19997 0.33292 0.0
C554 C 0.00303 0.1999 0.3525 0.0
C555 C 0.98608 0.17312 0.35841 0.0
C556 C 0.98555 0.14694 0.34479 0.0
C557 C 0.00314 0.22779 0.36684 0.0
C558 C 0.01571 0.22493 0.3878 0.0
C559 C 0.99205 0.25727 0.35967 0.0
C560 C 0.9777 0.2615 0.33791 0.0
C561 C 0.95189 0.24325 0.33149 0.0
C562 C 0.93867 0.24718 0.31089 0.0
C563 C 0.95092 0.26945 0.2966 0.0
C564 C 0.97636 0.2879 0.30292 0.0
C565 C 0.98969 0.28403 0.3235 0.0
H566 H 0.94065 0.27247 0.28066 0.0
H567 H 0.07431 0.23607 0.47911 0.0
H568 H 0.61688 0.98247 0.90774 0.0
H569 H 0.66365 0.9821 0.88492 0.0
H570 H 0.71735 0.02282 0.93704 0.0
H571 H 0.67098 0.02225 0.96036 0.0
H572 H 0.72653 0.05223 0.89639 0.0
H573 H 0.72734 0.94893 0.92725 0.0
H574 H 0.70499 0.8975 0.93672 0.0
H575 H 0.6909 0.87717 0.86911 0.0
H576 H 0.71275 0.92873 0.85925 0.0
H577 H 0.87765 0.02908 0.85106 0.0
H578 H 0.83199 0.0288 0.87499 0.0
H579 H 0.77955 0.97751 0.82682 0.0
H580 H 0.82551 0.97662 0.80313 0.0
H581 H 0.76987 0.95352 0.86607 0.0
H582 H 0.76785 0.05614 0.83475 0.0
H583 H 0.78898 0.10781 0.82456 0.0
H584 H 0.80385 0.12988 0.89182 0.0
H585 H 0.78321 0.07812 0.90241 0.0
C586 C 0.63869 0.99093 0.91454 0.0
C587 C 0.64008 0.00225 0.936 0.0
C588 C 0.66537 0.99087 0.90139 0.0
C589 C 0.69396 0.00229 0.90934 0.0
C590 C 0.69544 0.014 0.93059 0.0
C591 C 0.66884 0.01379 0.94385 0.0
C592 C 0.72228 0.00201 0.89541 0.0
C593 C 0.73633 0.03064 0.88999 0.0
C594 C 0.73447 0.97388 0.88665 0.0
C595 C 0.72139 0.94283 0.89253 0.0
C596 C 0.71922 0.93362 0.91441 0.0
C597 C 0.70669 0.90442 0.91985 0.0
C598 C 0.69645 0.88411 0.90353 0.0
C599 C 0.6988 0.89295 0.88174 0.0
C600 C 0.71128 0.92215 0.87621 0.0
C601 C 0.85651 0.01748 0.84562 0.0
C602 C 0.85525 0.00291 0.82514 0.0
C603 C 0.8303 0.01763 0.85924 0.0
C604 C 0.8022 0.00347 0.8526 0.0
C605 C 0.80094 0.98869 0.83225 0.0
C606 C 0.82716 0.98846 0.81864 0.0
C607 C 0.7742 0.0038 0.86694 0.0
C608 C 0.76017 0.97516 0.87245 0.0
C609 C 0.76189 0.03196 0.87566 0.0
C610 C 0.77429 0.06312 0.86936 0.0
C611 C 0.77587 0.0719 0.84736 0.0
C612 C 0.78772 0.10123 0.84152 0.0
C613 C 0.79783 0.12208 0.85753 0.0
C614 C 0.79605 0.11368 0.87943 0.0
C615 C 0.78426 0.08436 0.88537 0.0
H616 H 0.80699 0.14478 0.85297 0.0
H617 H 0.68677 0.86151 0.90777 0.0
H618 H 0.95567 0.64076 0.43139 0.0
H619 H 0.95533 0.68676 0.40778 0.0
H620 H 0.05604 0.69255 0.41247 0.0
H621 H 0.05647 0.64717 0.43674 0.0
H622 H 0.03008 0.74935 0.41614 0.0
H623 H 0.02099 0.66282 0.36721 0.0
H624 H 0.99872 0.61389 0.35263 0.0
H625 H 0.91032 0.65989 0.34245 0.0
H626 H 0.93195 0.70902 0.35726 0.0
H627 H 0.05245 0.85187 0.32604 0.0
H628 H 0.05355 0.80568 0.34967 0.0
H629 H 0.95248 0.8042 0.35049 0.0
H630 H 0.95122 0.8503 0.32678 0.0
H631 H 0.97927 0.74517 0.34368 0.0
H632 H 0.98925 0.83185 0.393 0.0
H633 H 0.01253 0.88059 0.40714 0.0
H634 H 0.10078 0.83371 0.41589 0.0
H635 H 0.07814 0.78478 0.40149 0.0
C636 C 0.97773 0.65201 0.42761 0.0
C637 C 0.00612 0.64022 0.43592 0.0
C638 C 0.97753 0.67812 0.41392 0.0
C639 C 0.0057 0.69286 0.40811 0.0
C640 C 0.03403 0.68147 0.41664 0.0
C641 C 0.03426 0.65537 0.43037 0.0
C642 C 0.0056 0.72019 0.39318 0.0
C643 C 0.01936 0.74829 0.40017 0.0
C644 C 0.9911 0.71901 0.3725 0.0
C645 C 0.97801 0.68952 0.36355 0.0
C646 C 0.99673 0.66244 0.36203 0.0
C647 C 0.98423 0.63468 0.35369 0.0
C648 C 0.9531 0.63376 0.34667 0.0
C649 C 0.93442 0.66063 0.34792 0.0
C650 C 0.94679 0.68845 0.35627 0.0
C651 C 0.03048 0.84155 0.33114 0.0
C652 C 0.00175 0.85471 0.32462 0.0
C653 C 0.03114 0.81532 0.34473 0.0
C654 C 0.00309 0.80169 0.35194 0.0
C655 C 0.97437 0.81442 0.34514 0.0
C656 C 0.9737 0.84084 0.33172 0.0
C657 C 0.00368 0.77423 0.36668 0.0
C658 C 0.99002 0.74615 0.35964 0.0
C659 C 0.01843 0.77537 0.38725 0.0
C660 C 0.03209 0.80474 0.39595 0.0
C661 C 0.0137 0.83201 0.39775 0.0
C662 C 0.02676 0.85965 0.40585 0.0
C663 C 0.05814 0.86027 0.41235 0.0
C664 C 0.07649 0.83321 0.41081 0.0
C665 C 0.06355 0.80551 0.4027 0.0
H666 H 0.0682 0.8817 0.41862 0.0
H667 H 0.94347 0.61225 0.34022 0.0
loop_
_geom_bond_atom_site_label_1
_geom_bond_atom_site_label_2
_geom_bond_distance
_geom_bond_site_symmetry_2
_ccdc_geom_bond_type
C0 C1 1.367 1_545 S
C0 C2 1.384 . S
C0 H28 0.931 . S
C1 C0 1.367 1_565 S
C1 C4 1.401 . S
C2 C0 1.384 . S
C2 C3 1.381 1_545 S
C2 H29 0.930 . S
C3 C2 1.381 1_565 S
C3 C5 1.381 . S
C3 C6 1.487 . S
C4 C1 1.401 . S
C4 C5 1.387 . S
C4 H30 0.930 . S
C5 C3 1.381 . S
C5 C4 1.387 . S
C5 H31 0.931 . S
C6 C3 1.487 . S
C6 C13 1.399 1_566 S
C6 N44 1.343 . S
C7 C8 1.361 1_565 S
C7 C9 1.384 . S
C7 H32 0.931 . S
C8 C7 1.361 1_545 S
C8 C11 1.406 . S
C9 C7 1.384 . S
C9 C10 1.381 1_565 S
C9 H33 0.930 . S
C10 C9 1.381 1_545 S
C10 C12 1.381 . S
C10 C13 1.487 . S
C11 C8 1.406 . S
C11 C12 1.387 . S
C11 H34 0.930 . S
C12 C10 1.381 . S
C12 C11 1.387 . S
C12 H35 0.931 . S
C13 C6 1.399 1_544 S
C13 C10 1.487 . S
C13 N45 1.343 . S
C14 C15 1.361 1_565 S
C14 C16 1.384 . S
C14 H36 0.931 . S
C15 C14 1.361 1_545 S
C15 C18 1.406 . S
C16 C14 1.384 . S
C16 C17 1.381 1_565 S
C16 H37 0.930 . S
C17 C16 1.381 1_545 S
C17 C19 1.381 . S
C17 C20 1.487 . S
C18 C15 1.406 . S
C18 C19 1.387 . S
C18 H38 0.930 . S
C19 C17 1.381 . S
C19 C18 1.387 . S
C19 H39 0.931 . S
C20 C17 1.487 . S
C20 C27 1.399 1_544 S
C20 N45 1.343 . S
C21 C22 1.367 1_545 S
C21 C23 1.384 . S
C21 H40 0.931 . S
C22 C21 1.367 1_565 S
C22 C25 1.401 . S
C23 C21 1.384 . S
C23 C24 1.381 1_545 S
C23 H41 0.930 . S
C24 C23 1.381 1_565 S
C24 C26 1.381 . S
C24 C27 1.487 . S
C25 C22 1.401 . S
C25 C26 1.387 . S
C25 H42 0.930 . S
C26 C24 1.381 . S
C26 C25 1.387 . S
C26 H43 0.931 . S
C27 C20 1.399 1_566 S
C27 C24 1.487 . S
C27 N44 1.343 . S
H28 C0 0.931 . S
H29 C2 0.930 . S
H30 C4 0.930 . S
H31 C5 0.931 . S
H32 C7 0.931 . S
H33 C9 0.930 . S
H34 C11 0.930 . S
H35 C12 0.931 . S
H36 C14 0.931 . S
H37 C16 0.930 . S
H38 C18 0.930 . S
H39 C19 0.931 . S
H40 C21 0.931 . S
H41 C23 0.930 . S
H42 C25 0.930 . S
H43 C26 0.931 . S
N44 C6 1.343 . S
N44 C27 1.343 . S
N45 C13 1.343 . S
N45 C20 1.343 . S
C46 C47 1.367 1_455 S
C46 C48 1.384 . S
C46 H74 0.931 . S
C47 C46 1.367 1_655 S
C47 C50 1.401 . S
C48 C46 1.384 . S
C48 C49 1.381 1_455 S
C48 H75 0.930 . S
C49 C48 1.381 1_655 S
C49 C51 1.381 . S
C49 C52 1.487 . S
C50 C47 1.401 . S
C50 C51 1.387 . S
C50 H76 0.930 . S
C51 C49 1.381 . S
C51 C50 1.387 . S
C51 H77 0.931 . S
C52 C49 1.487 . S
C52 C59 1.399 1_655 S
C52 N90 1.343 . S
C53 C54 1.361 1_655 S
C53 C55 1.384 . S
C53 H78 0.931 . S
C54 C53 1.361 1_455 S
C54 C57 1.406 . S
C55 C53 1.384 . S
C55 C56 1.381 1_655 S
C55 H79 0.930 . S
C56 C55 1.381 1_455 S
C56 C58 1.381 . S
C56 C59 1.487 . S
C57 C54 1.406 . S
C57 C58 1.387 . S
C57 H80 0.930 . S
C58 C56 1.381 . S
C58 C57 1.387 . S
C58 H81 0.931 . S
C59 C52 1.399 1_455 S
C59 C56 1.487 . S
C59 N91 1.343 . S
C60 C61 1.361 1_655 S
C60 C62 1.384 . S
C60 H82 0.931 . S
C61 C60 1.361 1_455 S
C61 C64 1.406 . S
C62 C60 1.384 . S
C62 C63 1.381 1_655 S
C62 H83 0.930 . S
C63 C62 1.381 1_455 S
C63 C65 1.381 . S
C63 C66 1.487 . S
C64 C61 1.406 . S
C64 C65 1.387 . S
C64 H84 0.930 . S
C65 C63 1.381 . S
C65 C64 1.387 . S
C65 H85 0.931 . S
C66 C63 1.487 . S
C66 C73 1.399 1_455 S
C66 N91 1.343 . S
C67 C68 1.367 1_455 S
C67 C69 1.384 . S
C67 H86 0.931 . S
C68 C67 1.367 1_655 S
C68 C71 1.401 . S
C69 C67 1.384 . S
C69 C70 1.381 1_455 S
C69 H87 0.930 . S
C70 C69 1.381 1_655 S
C70 C72 1.381 . S
C70 C73 1.487 . S
C71 C68 1.401 . S
C71 C72 1.387 . S
C71 H88 0.930 . S
C72 C70 1.381 . S
C72 C71 1.387 . S
C72 H89 0.931 . S
C73 C66 1.399 1_655 S
C73 C70 1.487 . S
C73 N90 1.343 . S
H74 C46 0.931 . S
H75 C48 0.930 . S
H76 C50 0.930 . S
H77 C51 0.931 . S
H78 C53 0.931 . S
H79 C55 0.930 . S
H80 C57 0.930 . S
H81 C58 0.931 . S
H82 C60 0.931 . S
H83 C62 0.930 . S
H84 C64 0.930 . S
H85 C65 0.931 . S
H86 C67 0.931 . S
H87 C69 0.930 . S
H88 C71 0.930 . S
H89 C72 0.931 . S
N90 C52 1.343 . S
N90 C73 1.343 . S
N91 C59 1.343 . S
N91 C66 1.343 . S
Li92 N109 1.990 . S
Li92 O152 1.956 1_545 S
Li92 O153 1.970 1_455 S
Li92 O154 1.961 1_455 S
Li93 N117 1.990 . S
Li93 O152 1.970 1_655 S
Li93 O153 1.956 1_565 S
Li93 O155 1.961 1_655 S
Li94 N139 1.990 . S
Li94 O152 1.961 1_545 S
Li94 O154 1.956 1_455 S
Li94 O155 1.970 1_545 S
Li95 N145 1.990 . S
Li95 O153 1.961 1_565 S
Li95 O154 1.970 1_565 S
Li95 O155 1.956 1_655 S
C96 C98 1.348 1_545 S
C96 C99 1.356 . S
C96 O152 1.325 1_545 S
N97 C100 1.314 1_545 S
N97 C101 1.279 . S
C98 C96 1.348 1_565 S
C98 C100 1.353 . S
C98 H156 0.929 . S
C99 C96 1.356 . S
C99 C101 1.358 . S
C99 H157 0.930 . S
C100 N97 1.314 1_565 S
C100 C98 1.353 . S
C100 H158 0.930 . S
C101 N97 1.279 . S
C101 C99 1.358 . S
C101 H159 0.930 . S
C102 C105 1.348 . S
C102 C106 1.356 1_545 S
C102 O153 1.325 . S
C103 N104 1.279 . S
C103 C106 1.358 . S
C103 H160 0.930 . S
N104 C103 1.279 . S
N104 C107 1.314 1_565 S
C105 C102 1.348 . S
C105 C107 1.353 . S
C105 H161 0.929 . S
C106 C102 1.356 1_565 S
C106 C103 1.358 . S
C106 H162 0.930 . S
C107 N104 1.314 1_545 S
C107 C105 1.353 . S
C107 H163 0.930 . S
C108 N109 1.314 1_655 S
C108 C113 1.353 . S
C108 H114 0.930 . S
N109 Li92 1.990 . S
N109 C108 1.314 1_455 S
N109 C111 1.279 . S
C110 C111 1.358 . S
C110 C112 1.356 . S
C110 H164 0.930 . S
C111 N109 1.279 . S
C111 C110 1.358 . S
C111 H115 0.930 . S
C112 C110 1.356 . S
C112 C113 1.348 1_455 S
C113 C108 1.353 . S
C113 C112 1.348 1_655 S
C113 H165 0.929 . S
H114 C108 0.930 . S
H115 C111 0.930 . S
C116 N117 1.314 1_455 S
C116 C118 1.353 . S
C116 H122 0.930 . S
N117 Li93 1.990 . S
N117 C116 1.314 1_655 S
N117 C120 1.279 . S
C118 C116 1.353 . S
C118 C121 1.348 . S
C118 H166 0.929 . S
C119 C120 1.358 . S
C119 C121 1.356 1_655 S
C119 H167 0.930 . S
C120 N117 1.279 . S
C120 C119 1.358 . S
C120 H123 0.930 . S
C121 C118 1.348 . S
C121 C119 1.356 1_455 S
H122 C116 0.930 . S
H123 C120 0.930 . S
C124 C126 1.348 1_455 S
C124 C127 1.356 . S
C124 O154 1.325 1_455 S
N125 C128 1.314 1_455 S
N125 C129 1.279 . S
C126 C124 1.348 1_655 S
C126 C128 1.353 . S
C126 H168 0.929 . S
C127 C124 1.356 . S
C127 C129 1.358 . S
C127 H169 0.930 . S
C128 N125 1.314 1_655 S
C128 C126 1.353 . S
C128 H170 0.930 . S
C129 N125 1.279 . S
C129 C127 1.358 . S
C129 H171 0.930 . S
C130 C131 1.348 . S
C130 C132 1.356 1_455 S
C130 O155 1.325 . S
C131 C130 1.348 . S
C131 C133 1.353 . S
C131 H172 0.929 . S
C132 C130 1.356 1_655 S
C132 C134 1.358 . S
C132 H173 0.930 . S
C133 C131 1.353 . S
C133 N135 1.314 1_455 S
C133 H174 0.930 . S
C134 C132 1.358 . S
C134 N135 1.279 . S
C134 H175 0.930 . S
N135 C133 1.314 1_655 S
N135 C134 1.279 . S
C136 C138 1.353 . S
C136 N139 1.314 1_565 S
C136 H142 0.930 . S
C137 N139 1.279 . S
C137 C140 1.358 . S
C137 H143 0.930 . S
C138 C136 1.353 . S
C138 C141 1.348 1_565 S
C138 H176 0.929 . S
N139 Li94 1.990 . S
N139 C136 1.314 1_545 S
N139 C137 1.279 . S
C140 C137 1.358 . S
C140 C141 1.356 . S
C140 H177 0.930 . S
C141 C138 1.348 1_545 S
C141 C140 1.356 . S
H142 C136 0.930 . S
H143 C137 0.930 . S
C144 N145 1.314 1_545 S
C144 C146 1.353 . S
C144 H150 0.930 . S
N145 Li95 1.990 . S
N145 C144 1.314 1_565 S
N145 C148 1.279 . S
C146 C144 1.353 . S
C146 C149 1.348 . S
C146 H178 0.929 . S
C147 C148 1.358 . S
C147 C149 1.356 1_565 S
C147 H179 0.930 . S
C148 N145 1.279 . S
C148 C147 1.358 . S
C148 H151 0.930 . S
C149 C146 1.348 . S
C149 C147 1.356 1_545 S
H150 C144 0.930 . S
H151 C148 0.930 . S
O152 Li92 1.956 1_565 S
O152 Li93 1.970 1_455 S
O152 Li94 1.961 1_565 S
O152 C96 1.325 1_565 S
O153 Li92 1.970 1_655 S
O153 Li93 1.956 1_545 S
O153 Li95 1.961 1_545 S
O153 C102 1.325 . S
O154 Li92 1.961 1_655 S
O154 Li94 1.956 1_655 S
O154 Li95 1.970 1_545 S
O154 C124 1.325 1_655 S
O155 Li93 1.961 1_455 S
O155 Li94 1.970 1_565 S
O155 Li95 1.956 1_455 S
O155 C130 1.325 . S
H156 C98 0.929 . S
H157 C99 0.930 . S
H158 C100 0.930 . S
H159 C101 0.930 . S
H160 C103 0.930 . S
H161 C105 0.929 . S
H162 C106 0.930 . S
H163 C107 0.930 . S
H164 C110 0.930 . S
H165 C113 0.929 . S
H166 C118 0.929 . S
H167 C119 0.930 . S
H168 C126 0.929 . S
H169 C127 0.930 . S
H170 C128 0.930 . S
H171 C129 0.930 . S
H172 C131 0.929 . S
H173 C132 0.930 . S
H174 C133 0.930 . S
H175 C134 0.930 . S
H176 C138 0.929 . S
H177 C140 0.930 . S
H178 C146 0.929 . S
H179 C147 0.930 . S
Li180 N197 1.990 . S
Li180 O240 1.956 1_655 S
Li180 O241 1.970 1_545 S
Li180 O242 1.961 1_545 S
Li181 N205 1.990 . S
Li181 O240 1.970 1_565 S
Li181 O241 1.956 1_455 S
Li181 O243 1.961 1_565 S
Li182 N227 1.990 . S
Li182 O240 1.961 1_655 S
Li182 O242 1.956 1_545 S
Li182 O243 1.970 1_655 S
Li183 N233 1.990 . S
Li183 O241 1.961 1_455 S
Li183 O242 1.970 1_455 S
Li183 O243 1.956 1_565 S
C184 C186 1.348 . S
C184 C187 1.356 1_455 S
C184 O240 1.325 . S
N185 C188 1.314 1_655 S
N185 C189 1.279 . S
C186 C184 1.348 . S
C186 C188 1.353 . S
C186 H244 0.929 . S
C187 C184 1.356 1_655 S
C187 C189 1.358 . S
C187 H245 0.930 . S
C188 N185 1.314 1_455 S
C188 C186 1.353 . S
C188 H246 0.930 . S
C189 N185 1.279 . S
C189 C187 1.358 . S
C189 H247 0.930 . S
C190 C193 1.348 1_455 S
C190 C194 1.356 . S
C190 O241 1.325 1_455 S
C191 N192 1.279 . S
C191 C194 1.358 . S
C191 H248 0.930 . S
N192 C191 1.279 . S
N192 C195 1.314 1_455 S
C193 C190 1.348 1_655 S
C193 C195 1.353 . S
C193 H249 0.929 . S
C194 C190 1.356 . S
C194 C191 1.358 . S
C194 H250 0.930 . S
C195 N192 1.314 1_655 S
C195 C193 1.353 . S
C195 H251 0.930 . S
C196 N197 1.314 1_565 S
C196 C201 1.353 . S
C196 H202 0.930 . S
N197 Li180 1.990 . S
N197 C196 1.314 1_545 S
N197 C199 1.279 . S
C198 C199 1.358 . S
C198 C200 1.356 . S
C198 H252 0.930 . S
C199 N197 1.279 . S
C199 C198 1.358 . S
C199 H203 0.930 . S
C200 C198 1.356 . S
C200 C201 1.348 1_545 S
C201 C196 1.353 . S
C201 C200 1.348 1_565 S
C201 H253 0.929 . S
H202 C196 0.930 . S
H203 C199 0.930 . S
C204 N205 1.314 1_545 S
C204 C206 1.353 . S
C204 H210 0.930 . S
N205 Li181 1.990 . S
N205 C204 1.314 1_565 S
N205 C208 1.279 . S
C206 C204 1.353 . S
C206 C209 1.348 . S
C206 H254 0.929 . S
C207 C208 1.358 . S
C207 C209 1.356 1_565 S
C207 H255 0.930 . S
C208 N205 1.279 . S
C208 C207 1.358 . S
C208 H211 0.930 . S
C209 C206 1.348 . S
C209 C207 1.356 1_545 S
H210 C204 0.930 . S
H211 C208 0.930 . S
C212 C214 1.348 1_545 S
C212 C215 1.356 . S
C212 O242 1.325 1_545 S
N213 C216 1.314 1_545 S
N213 C217 1.279 . S
C214 C212 1.348 1_565 S
C214 C216 1.353 . S
C214 H256 0.929 . S
C215 C212 1.356 . S
C215 C217 1.358 . S
C215 H257 0.930 . S
C216 N213 1.314 1_565 S
C216 C214 1.353 . S
C216 H258 0.930 . S
C217 N213 1.279 . S
C217 C215 1.358 . S
C217 H259 0.930 . S
C218 C219 1.348 . S
C218 C220 1.356 1_545 S
C218 O243 1.325 . S
C219 C218 1.348 . S
C219 C221 1.353 . S
C219 H260 0.929 . S
C220 C218 1.356 1_565 S
C220 C222 1.358 . S
C220 H261 0.930 . S
C221 C219 1.353 . S
C221 N223 1.314 1_545 S
C221 H262 0.930 . S
C222 C220 1.358 . S
C222 N223 1.279 . S
C222 H263 0.930 . S
N223 C221 1.314 1_565 S
N223 C222 1.279 . S
C224 C226 1.353 . S
C224 N227 1.314 1_455 S
C224 H230 0.930 . S
C225 N227 1.279 . S
C225 C228 1.358 . S
C225 H231 0.930 . S
C226 C224 1.353 . S
C226 C229 1.348 . S
C226 H264 0.929 . S
N227 Li182 1.990 . S
N227 C224 1.314 1_655 S
N227 C225 1.279 . S
C228 C225 1.358 . S
C228 C229 1.356 1_655 S
C228 H265 0.930 . S
C229 C226 1.348 . S
C229 C228 1.356 1_455 S
H230 C224 0.930 . S
H231 C225 0.930 . S
C232 N233 1.314 1_655 S
C232 C234 1.353 . S
C232 H238 0.930 . S
N233 Li183 1.990 . S
N233 C232 1.314 1_455 S
N233 C236 1.279 . S
C234 C232 1.353 . S
C234 C237 1.348 1_655 S
C234 H266 0.929 . S
C235 C236 1.358 . S
C235 C237 1.356 . S
C235 H267 0.930 . S
C236 N233 1.279 . S
C236 C235 1.358 . S
C236 H239 0.930 . S
C237 C234 1.348 1_455 S
C237 C235 1.356 . S
H238 C232 0.930 . S
H239 C236 0.930 . S
O240 Li180 1.956 1_455 S
O240 Li181 1.970 1_545 S
O240 Li182 1.961 1_455 S
O240 C184 1.325 . S
O241 Li180 1.970 1_565 S
O241 Li181 1.956 1_655 S
O241 Li183 1.961 1_655 S
O241 C190 1.325 1_655 S
O242 Li180 1.961 1_565 S
O242 Li182 1.956 1_565 S
O242 Li183 1.970 1_655 S
O242 C212 1.325 1_565 S
O243 Li181 1.961 1_545 S
O243 Li182 1.970 1_455 S
O243 Li183 1.956 1_545 S
O243 C218 1.325 . S
H244 C186 0.929 . S
H245 C187 0.930 . S
H246 C188 0.930 . S
H247 C189 0.930 . S
H248 C191 0.930 . S
H249 C193 0.929 . S
H250 C194 0.930 . S
H251 C195 0.930 . S
H252 C198 0.930 . S
H253 C201 0.929 . S
H254 C206 0.929 . S
H255 C207 0.930 . S
H256 C214 0.929 . S
H257 C215 0.930 . S
H258 C216 0.930 . S
H259 C217 0.930 . S
H260 C219 0.929 . S
H261 C220 0.930 . S
H262 C221 0.930 . S
H263 C222 0.930 . S
H264 C226 0.929 . S
H265 C228 0.930 . S
H266 C234 0.929 . S
H267 C235 0.930 . S
H268 C286 0.951 . S
H269 C288 0.951 . S
H270 C290 0.950 . S
H271 C291 0.950 . S
H272 C293 0.950 . S
H273 C296 0.950 . S
H274 C297 0.950 . S
H275 C299 0.950 . S
H276 C300 0.950 1_565 S
H277 C301 0.951 . S
H278 C303 0.951 . S
H279 C305 0.950 . S
H280 C306 0.950 . S
H281 C308 0.950 . S
H282 C311 0.950 . S
H283 C312 0.950 . S
H284 C314 0.950 . S
H285 C315 0.950 1_545 S
C286 H268 0.951 . S
C286 C287 1.367 1_565 S
C286 C288 1.388 . S
C287 C286 1.367 1_545 S
C287 C291 1.383 . S
C288 H269 0.951 . S
C288 C286 1.388 . S
C288 C289 1.366 1_565 S
C289 C288 1.366 1_545 S
C289 C290 1.414 . S
C289 C292 1.499 . S
C290 H270 0.950 . S
C290 C289 1.414 . S
C290 C291 1.374 . S
C291 H271 0.950 . S
C291 C287 1.383 . S
C291 C290 1.374 . S
C292 C289 1.499 . S
C292 C293 1.373 1_545 S
C292 C294 1.389 . S
C293 H272 0.950 . S
C293 C292 1.373 1_565 S
C293 C309 1.377 . S
C294 C292 1.389 . S
C294 C295 1.524 . S
C294 C308 1.377 . S
C295 C294 1.524 . S
C295 C296 1.397 . S
C295 C300 1.363 . S
C296 H273 0.950 . S
C296 C295 1.397 . S
C296 C297 1.334 . S
C297 H274 0.950 . S
C297 C296 1.334 . S
C297 C298 1.287 . S
C298 C297 1.287 . S
C298 C299 1.524 . S
C298 H317 0.913 . S
C299 H275 0.950 . S
C299 C298 1.524 . S
C299 C300 1.415 . S
C300 H276 0.950 1_545 S
C300 C295 1.363 . S
C300 C299 1.415 . S
C301 H277 0.951 . S
C301 C302 1.357 1_545 S
C301 C303 1.388 . S
C302 C301 1.357 1_565 S
C302 C306 1.394 . S
C303 H278 0.951 . S
C303 C301 1.388 . S
C303 C304 1.366 1_545 S
C304 C303 1.366 1_565 S
C304 C305 1.414 . S
C304 C307 1.499 . S
C305 H279 0.950 . S
C305 C304 1.414 . S
C305 C306 1.374 . S
C306 H280 0.950 . S
C306 C302 1.394 . S
C306 C305 1.374 . S
C307 C304 1.499 . S
C307 C308 1.373 1_565 S
C307 C309 1.389 . S
C308 H281 0.950 . S
C308 C294 1.377 . S
C308 C307 1.373 1_545 S
C309 C293 1.377 . S
C309 C307 1.389 . S
C309 C310 1.524 . S
C310 C309 1.524 . S
C310 C311 1.397 . S
C310 C315 1.363 . S
C311 H282 0.950 . S
C311 C310 1.397 . S
C311 C312 1.334 . S
C312 H283 0.950 . S
C312 C311 1.334 . S
C312 C313 1.287 . S
C313 C312 1.287 . S
C313 C314 1.524 . S
C313 H316 0.999 . S
C314 H284 0.950 . S
C314 C313 1.524 . S
C314 C315 1.415 . S
C315 H285 0.950 1_565 S
C315 C310 1.363 . S
C315 C314 1.415 . S
H316 C313 0.999 . S
H317 C298 0.913 . S
H318 C336 0.951 . S
H319 C338 0.951 . S
H320 C340 0.950 . S
H321 C341 0.950 . S
H322 C343 0.950 . S
H323 C346 0.950 . S
H324 C347 0.950 . S
H325 C349 0.950 . S
H326 C350 0.950 . S
H327 C351 0.951 . S
H328 C353 0.951 . S
H329 C355 0.950 . S
H330 C356 0.950 . S
H331 C358 0.950 . S
H332 C361 0.950 . S
H333 C362 0.950 . S
H334 C364 0.950 . S
H335 C365 0.950 . S
C336 H318 0.951 . S
C336 C337 1.366 . S
C336 C338 1.388 . S
C337 C336 1.366 . S
C337 C341 1.385 1_455 S
C338 H319 0.951 . S
C338 C336 1.388 . S
C338 C339 1.366 . S
C339 C338 1.366 . S
C339 C340 1.414 1_455 S
C339 C342 1.499 . S
C340 H320 0.950 . S
C340 C339 1.414 1_655 S
C340 C341 1.374 . S
C341 H321 0.950 . S
C341 C337 1.385 1_655 S
C341 C340 1.374 . S
C342 C339 1.499 . S
C342 C343 1.373 1_455 S
C342 C344 1.389 . S
C343 H322 0.950 . S
C343 C342 1.373 1_655 S
C343 C359 1.377 . S
C344 C342 1.389 . S
C344 C345 1.524 . S
C344 C358 1.377 . S
C345 C344 1.524 . S
C345 C346 1.397 . S
C345 C350 1.363 . S
C346 H323 0.950 . S
C346 C345 1.397 . S
C346 C347 1.334 . S
C347 H324 0.950 . S
C347 C346 1.334 . S
C347 C348 1.287 . S
C348 C347 1.287 . S
C348 C349 1.524 . S
C348 H367 0.913 . S
C349 H325 0.950 . S
C349 C348 1.524 . S
C349 C350 1.415 . S
C350 H326 0.950 . S
C350 C345 1.363 . S
C350 C349 1.415 . S
C351 H327 0.951 . S
C351 C352 1.359 1_655 S
C351 C353 1.388 . S
C352 C351 1.359 1_455 S
C352 C356 1.391 . S
C353 H328 0.951 . S
C353 C351 1.388 . S
C353 C354 1.373 . S
C354 C353 1.373 . S
C354 C355 1.405 1_655 S
C354 C357 1.499 . S
C355 H329 0.950 . S
C355 C354 1.405 1_455 S
C355 C356 1.374 . S
C356 H330 0.950 . S
C356 C352 1.391 . S
C356 C355 1.374 . S
C357 C354 1.499 . S
C357 C358 1.344 1_655 S
C357 C359 1.417 . S
C358 H331 0.950 . S
C358 C344 1.377 . S
C358 C357 1.344 1_455 S
C359 C343 1.377 . S
C359 C357 1.417 . S
C359 C360 1.524 . S
C360 C359 1.524 . S
C360 C361 1.397 . S
C360 C365 1.363 . S
C361 H332 0.950 . S
C361 C360 1.397 . S
C361 C362 1.334 . S
C362 H333 0.950 . S
C362 C361 1.334 . S
C362 C363 1.287 . S
C363 C362 1.287 . S
C363 C364 1.524 . S
C363 H366 0.999 . S
C364 H334 0.950 . S
C364 C363 1.524 . S
C364 C365 1.415 . S
C365 H335 0.950 . S
C365 C360 1.363 . S
C365 C364 1.415 . S
H366 C363 0.999 . S
H367 C348 0.913 . S
H368 C386 0.951 . S
H369 C388 0.951 . S
H370 C390 0.950 . S
H371 C391 0.950 . S
H372 C393 0.950 . S
H373 C396 0.950 1_545 S
H374 C397 0.950 . S
H375 C399 0.950 . S
H376 C400 0.950 . S
H377 C401 0.951 . S
H378 C403 0.951 . S
H379 C405 0.950 . S
H380 C406 0.950 . S
H381 C408 0.950 . S
H382 C411 0.950 1_565 S
H383 C412 0.950 . S
H384 C414 0.950 . S
H385 C415 0.950 . S
C386 H368 0.951 . S
C386 C387 1.364 1_565 S
C386 C388 1.388 . S
C387 C386 1.364 1_545 S
C387 C391 1.386 . S
C388 H369 0.951 . S
C388 C386 1.388 . S
C388 C389 1.349 1_565 S
C389 C388 1.349 1_545 S
C389 C390 1.430 . S
C389 C392 1.499 . S
C390 H370 0.950 . S
C390 C389 1.430 . S
C390 C391 1.374 . S
C391 H371 0.950 . S
C391 C387 1.386 . S
C391 C390 1.374 . S
C392 C389 1.499 . S
C392 C393 1.373 . S
C392 C394 1.389 1_545 S
C393 H372 0.950 . S
C393 C392 1.373 . S
C393 C409 1.377 . S
C394 C392 1.389 1_565 S
C394 C395 1.524 . S
C394 C408 1.377 . S
C395 C394 1.524 . S
C395 C396 1.397 . S
C395 C400 1.363 . S
C396 H373 0.950 1_565 S
C396 C395 1.397 . S
C396 C397 1.334 . S
C397 H374 0.950 . S
C397 C396 1.334 . S
C397 C398 1.287 . S
C398 C397 1.287 . S
C398 C399 1.524 . S
C398 H417 0.913 . S
C399 H375 0.950 . S
C399 C398 1.524 . S
C399 C400 1.415 . S
C400 H376 0.950 . S
C400 C395 1.363 . S
C400 C399 1.415 . S
C401 H377 0.951 . S
C401 C402 1.390 . S
C401 C403 1.388 . S
C402 C401 1.390 . S
C402 C406 1.360 1_545 S
C403 H378 0.951 . S
C403 C401 1.388 . S
C403 C404 1.375 . S
C404 C403 1.375 . S
C404 C405 1.404 1_545 S
C404 C407 1.498 1_545 S
C405 H379 0.950 . S
C405 C404 1.404 1_565 S
C405 C406 1.374 . S
C406 H380 0.950 . S
C406 C402 1.360 1_565 S
C406 C405 1.374 . S
C407 C404 1.498 1_565 S
C407 C408 1.385 . S
C407 C409 1.377 1_565 S
C408 H381 0.950 . S
C408 C394 1.377 . S
C408 C407 1.385 . S
C409 C393 1.377 . S
C409 C407 1.377 1_545 S
C409 C410 1.524 . S
C410 C409 1.524 . S
C410 C411 1.397 . S
C410 C415 1.363 . S
C411 H382 0.950 1_545 S
C411 C410 1.397 . S
C411 C412 1.334 . S
C412 H383 0.950 . S
C412 C411 1.334 . S
C412 C413 1.287 . S
C413 C412 1.287 . S
C413 C414 1.524 . S
C413 H416 0.999 . S
C414 H384 0.950 . S
C414 C413 1.524 . S
C414 C415 1.415 . S
C415 H385 0.950 . S
C415 C410 1.363 . S
C415 C414 1.415 . S
H416 C413 0.999 . S
H417 C398 0.913 . S
H418 C436 0.951 . S
H419 C438 0.951 . S
H420 C440 0.950 1_655 S
H421 C441 0.950 . S
H422 C443 0.950 . S
H423 C446 0.950 . S
H424 C447 0.950 . S
H425 C449 0.950 . S
H426 C450 0.950 . S
H427 C451 0.951 . S
H428 C453 0.951 . S
H429 C455 0.950 1_455 S
H430 C456 0.950 1_455 S
H431 C458 0.950 . S
H432 C461 0.950 . S
H433 C462 0.950 . S
H434 C464 0.950 . S
H435 C465 0.950 . S
C436 H418 0.951 . S
C436 C437 1.365 . S
C436 C438 1.389 . S
C437 C436 1.365 . S
C437 C441 1.385 1_455 S
C438 H419 0.951 . S
C438 C436 1.389 . S
C438 C439 1.366 . S
C439 C438 1.366 . S
C439 C440 1.414 . S
C439 C442 1.499 . S
C440 H420 0.950 1_455 S
C440 C439 1.414 . S
C440 C441 1.374 1_455 S
C441 H421 0.950 . S
C441 C437 1.385 1_655 S
C441 C440 1.374 1_655 S
C442 C439 1.499 . S
C442 C443 1.373 1_455 S
C442 C444 1.389 . S
C443 H422 0.950 . S
C443 C442 1.373 1_655 S
C443 C459 1.377 . S
C444 C442 1.389 . S
C444 C445 1.524 . S
C444 C458 1.377 . S
C445 C444 1.524 . S
C445 C446 1.397 . S
C445 C450 1.363 . S
C446 H423 0.950 . S
C446 C445 1.397 . S
C446 C447 1.334 . S
C447 H424 0.950 . S
C447 C446 1.334 . S
C447 C448 1.287 . S
C448 C447 1.287 . S
C448 C449 1.524 . S
C448 H467 0.913 . S
C449 H425 0.950 . S
C449 C448 1.524 . S
C449 C450 1.415 . S
C450 H426 0.950 . S
C450 C445 1.363 . S
C450 C449 1.415 . S
C451 H427 0.951 . S
C451 C452 1.366 . S
C451 C453 1.388 . S
C452 C451 1.366 . S
C452 C456 1.385 . S
C453 H428 0.951 . S
C453 C451 1.388 . S
C453 C454 1.366 . S
C454 C453 1.366 . S
C454 C455 1.415 . S
C454 C457 1.499 . S
C455 H429 0.950 1_655 S
C455 C454 1.415 . S
C455 C456 1.374 . S
C456 H430 0.950 1_655 S
C456 C452 1.385 . S
C456 C455 1.374 . S
C457 C454 1.499 . S
C457 C458 1.373 1_655 S
C457 C459 1.389 . S
C458 H431 0.950 . S
C458 C444 1.377 . S
C458 C457 1.373 1_455 S
C459 C443 1.377 . S
C459 C457 1.389 . S
C459 C460 1.524 . S
C460 C459 1.524 . S
C460 C461 1.397 . S
C460 C465 1.363 . S
C461 H432 0.950 . S
C461 C460 1.397 . S
C461 C462 1.334 . S
C462 H433 0.950 . S
C462 C461 1.334 . S
C462 C463 1.287 . S
C463 C462 1.287 . S
C463 C464 1.524 . S
C463 H466 0.999 . S
C464 H434 0.950 . S
C464 C463 1.524 . S
C464 C465 1.415 . S
C465 H435 0.950 . S
C465 C460 1.363 . S
C465 C464 1.415 . S
H466 C463 0.999 . S
H467 C448 0.913 . S
H468 C486 0.951 . S
H469 C488 0.951 . S
H470 C490 0.950 . S
H471 C491 0.950 . S
H472 C493 0.950 . S
H473 C496 0.950 . S
H474 C497 0.950 . S
H475 C499 0.950 . S
H476 C500 0.950 . S
H477 C501 0.951 . S
H478 C503 0.951 . S
H479 C505 0.950 . S
H480 C506 0.950 . S
H481 C508 0.950 . S
H482 C511 0.950 . S
H483 C512 0.950 . S
H484 C514 0.950 . S
H485 C515 0.950 . S
C486 H468 0.951 . S
C486 C487 1.366 . S
C486 C488 1.388 . S
C487 C486 1.366 . S
C487 C491 1.385 1_545 S
C488 H469 0.951 . S
C488 C486 1.388 . S
C488 C489 1.366 . S
C489 C488 1.366 . S
C489 C490 1.414 1_545 S
C489 C492 1.499 . S
C490 H470 0.950 . S
C490 C489 1.414 1_565 S
C490 C491 1.374 . S
C491 H471 0.950 . S
C491 C487 1.385 1_565 S
C491 C490 1.374 . S
C492 C489 1.499 . S
C492 C493 1.373 1_545 S
C492 C494 1.389 . S
C493 H472 0.950 . S
C493 C492 1.373 1_565 S
C493 C509 1.377 . S
C494 C492 1.389 . S
C494 C495 1.524 . S
C494 C508 1.377 . S
C495 C494 1.524 . S
C495 C496 1.397 . S
C495 C500 1.363 . S
C496 H473 0.950 . S
C496 C495 1.397 . S
C496 C497 1.334 . S
C497 H474 0.950 . S
C497 C496 1.334 . S
C497 C498 1.287 . S
C498 C497 1.287 . S
C498 C499 1.524 . S
C498 H517 0.913 . S
C499 H475 0.950 . S
C499 C498 1.524 . S
C499 C500 1.415 . S
C500 H476 0.950 . S
C500 C495 1.363 . S
C500 C499 1.415 . S
C501 H477 0.951 . S
C501 C502 1.361 1_565 S
C501 C503 1.388 . S
C502 C501 1.361 1_545 S
C502 C506 1.389 . S
C503 H478 0.951 . S
C503 C501 1.388 . S
C503 C504 1.366 . S
C504 C503 1.366 . S
C504 C505 1.414 1_565 S
C504 C507 1.499 . S
C505 H479 0.950 . S
C505 C504 1.414 1_545 S
C505 C506 1.374 . S
C506 H480 0.950 . S
C506 C502 1.389 . S
C506 C505 1.374 . S
C507 C504 1.499 . S
C507 C508 1.373 1_565 S
C507 C509 1.389 . S
C508 H481 0.950 . S
C508 C494 1.377 . S
C508 C507 1.373 1_545 S
C509 C493 1.377 . S
C509 C507 1.389 . S
C509 C510 1.524 . S
C510 C509 1.524 . S
C510 C511 1.397 . S
C510 C515 1.363 . S
C511 H482 0.950 . S
C511 C510 1.397 . S
C511 C512 1.334 . S
C512 H483 0.950 . S
C512 C511 1.334 . S
C512 C513 1.287 . S
C513 C512 1.287 . S
C513 C514 1.524 . S
C513 H516 0.999 . S
C514 H484 0.950 . S
C514 C513 1.524 . S
C514 C515 1.415 . S
C515 H485 0.950 . S
C515 C510 1.363 . S
C515 C514 1.415 . S
H516 C513 0.999 . S
H517 C498 0.913 . S
H518 C536 0.951 . S
H519 C538 0.951 . S
H520 C540 0.950 . S
H521 C541 0.950 . S
H522 C543 0.950 . S
H523 C546 0.950 . S
H524 C547 0.950 . S
H525 C549 0.950 1_655 S
H526 C550 0.950 . S
H527 C551 0.951 . S
H528 C553 0.951 . S
H529 C555 0.950 . S
H530 C556 0.950 . S
H531 C558 0.950 . S
H532 C561 0.950 . S
H533 C562 0.950 . S
H534 C564 0.950 1_455 S
H535 C565 0.950 . S
C536 H518 0.951 . S
C536 C537 1.367 1_655 S
C536 C538 1.388 . S
C537 C536 1.367 1_455 S
C537 C541 1.383 . S
C538 H519 0.951 . S
C538 C536 1.388 . S
C538 C539 1.366 1_655 S
C539 C538 1.366 1_455 S
C539 C540 1.414 . S
C539 C542 1.499 . S
C540 H520 0.950 . S
C540 C539 1.414 . S
C540 C541 1.374 . S
C541 H521 0.950 . S
C541 C537 1.383 . S
C541 C540 1.374 . S
C542 C539 1.499 . S
C542 C543 1.373 1_455 S
C542 C544 1.389 . S
C543 H522 0.950 . S
C543 C542 1.373 1_655 S
C543 C559 1.377 . S
C544 C542 1.389 . S
C544 C545 1.524 . S
C544 C558 1.377 . S
C545 C544 1.524 . S
C545 C546 1.397 . S
C545 C550 1.363 1_455 S
C546 H523 0.950 . S
C546 C545 1.397 . S
C546 C547 1.334 . S
C547 H524 0.950 . S
C547 C546 1.334 . S
C547 C548 1.287 . S
C548 C547 1.287 . S
C548 C549 1.524 . S
C548 H567 0.913 . S
C549 H525 0.950 1_455 S
C549 C548 1.524 . S
C549 C550 1.415 1_455 S
C550 H526 0.950 . S
C550 C545 1.363 1_655 S
C550 C549 1.415 1_655 S
C551 H527 0.951 . S
C551 C552 1.355 1_455 S
C551 C553 1.388 . S
C552 C551 1.355 1_655 S
C552 C556 1.395 . S
C553 H528 0.951 . S
C553 C551 1.388 . S
C553 C554 1.366 1_455 S
C554 C553 1.366 1_655 S
C554 C555 1.414 . S
C554 C557 1.499 . S
C555 H529 0.950 . S
C555 C554 1.414 . S
C555 C556 1.374 . S
C556 H530 0.950 . S
C556 C552 1.395 . S
C556 C555 1.374 . S
C557 C554 1.499 . S
C557 C558 1.373 1_655 S
C557 C559 1.389 . S
C558 H531 0.950 . S
C558 C544 1.377 . S
C558 C557 1.373 1_455 S
C559 C543 1.377 . S
C559 C557 1.389 . S
C559 C560 1.524 . S
C560 C559 1.524 . S
C560 C561 1.397 . S
C560 C565 1.363 1_655 S
C561 H532 0.950 . S
C561 C560 1.397 . S
C561 C562 1.334 . S
C562 H533 0.950 . S
C562 C561 1.334 . S
C562 C563 1.287 . S
C563 C562 1.287 . S
C563 C564 1.524 . S
C563 H566 0.999 . S
C564 H534 0.950 1_655 S
C564 C563 1.524 . S
C564 C565 1.415 1_655 S
C565 H535 0.950 . S
C565 C560 1.363 1_455 S
C565 C564 1.415 1_455 S
H566 C563 0.999 . S
H567 C548 0.913 . S
H568 C586 0.951 . S
H569 C588 0.951 . S
H570 C590 0.950 . S
H571 C591 0.950 . S
H572 C593 0.950 . S
H573 C596 0.950 . S
H574 C597 0.950 . S
H575 C599 0.950 . S
H576 C600 0.950 . S
H577 C601 0.951 . S
H578 C603 0.951 . S
H579 C605 0.950 . S
H580 C606 0.950 . S
H581 C608 0.950 . S
H582 C611 0.950 . S
H583 C612 0.950 . S
H584 C614 0.950 . S
H585 C615 0.950 . S
C586 H568 0.951 . S
C586 C587 1.366 1_565 S
C586 C588 1.388 . S
C587 C586 1.366 1_545 S
C587 C591 1.385 . S
C588 H569 0.951 . S
C588 C586 1.388 . S
C588 C589 1.366 . S
C589 C588 1.366 . S
C589 C590 1.414 1_565 S
C589 C592 1.499 . S
C590 H570 0.950 . S
C590 C589 1.414 1_545 S
C590 C591 1.374 . S
C591 H571 0.950 . S
C591 C587 1.385 . S
C591 C590 1.374 . S
C592 C589 1.499 . S
C592 C593 1.359 1_565 S
C592 C594 1.403 . S
C593 H572 0.950 . S
C593 C592 1.359 1_545 S
C593 C609 1.377 . S
C594 C592 1.403 . S
C594 C595 1.524 . S
C594 C608 1.377 . S
C595 C594 1.524 . S
C595 C596 1.397 . S
C595 C600 1.363 . S
C596 H573 0.950 . S
C596 C595 1.397 . S
C596 C597 1.334 . S
C597 H574 0.950 . S
C597 C596 1.334 . S
C597 C598 1.287 . S
C598 C597 1.287 . S
C598 C599 1.524 . S
C598 H617 0.913 . S
C599 H575 0.950 . S
C599 C598 1.524 . S
C599 C600 1.415 . S
C600 H576 0.950 . S
C600 C595 1.363 . S
C600 C599 1.415 . S
C601 H577 0.951 . S
C601 C602 1.351 1_545 S
C601 C603 1.388 . S
C602 C601 1.351 1_565 S
C602 C606 1.400 . S
C603 H578 0.951 . S
C603 C601 1.388 . S
C603 C604 1.378 . S
C604 C603 1.378 . S
C604 C605 1.401 1_545 S
C604 C607 1.498 1_545 S
C605 H579 0.950 . S
C605 C604 1.401 1_565 S
C605 C606 1.374 . S
C606 H580 0.950 . S
C606 C602 1.400 . S
C606 C605 1.374 . S
C607 C604 1.498 1_565 S
C607 C608 1.371 . S
C607 C609 1.392 1_565 S
C608 H581 0.950 . S
C608 C594 1.377 . S
C608 C607 1.371 . S
C609 C593 1.377 . S
C609 C607 1.392 1_545 S
C609 C610 1.524 . S
C610 C609 1.524 . S
C610 C611 1.397 . S
C610 C615 1.363 . S
C611 H582 0.950 . S
C611 C610 1.397 . S
C611 C612 1.334 . S
C612 H583 0.950 . S
C612 C611 1.334 . S
C612 C613 1.287 . S
C613 C612 1.287 . S
C613 C614 1.524 . S
C613 H616 0.999 . S
C614 H584 0.950 . S
C614 C613 1.524 . S
C614 C615 1.415 . S
C615 H585 0.950 . S
C615 C610 1.363 . S
C615 C614 1.415 . S
H616 C613 0.999 . S
H617 C598 0.913 . S
H618 C636 0.951 . S
H619 C638 0.951 . S
H620 C640 0.950 . S
H621 C641 0.950 . S
H622 C643 0.950 . S
H623 C646 0.950 . S
H624 C647 0.950 . S
H625 C649 0.950 . S
H626 C650 0.950 . S
H627 C651 0.951 . S
H628 C653 0.951 . S
H629 C655 0.950 . S
H630 C656 0.950 . S
H631 C658 0.950 . S
H632 C661 0.950 . S
H633 C662 0.950 . S
H634 C664 0.950 . S
H635 C665 0.950 . S
C636 H618 0.951 . S
C636 C637 1.365 1_655 S
C636 C638 1.388 . S
C637 C636 1.365 1_455 S
C637 C641 1.386 . S
C638 H619 0.951 . S
C638 C636 1.388 . S
C638 C639 1.366 1_655 S
C639 C638 1.366 1_455 S
C639 C640 1.414 . S
C639 C642 1.499 . S
C640 H620 0.950 . S
C640 C639 1.414 . S
C640 C641 1.374 . S
C641 H621 0.950 . S
C641 C637 1.386 . S
C641 C640 1.374 . S
C642 C639 1.499 . S
C642 C643 1.373 . S
C642 C644 1.389 1_455 S
C643 H622 0.950 . S
C643 C642 1.373 . S
C643 C659 1.377 . S
C644 C642 1.389 1_655 S
C644 C645 1.524 . S
C644 C658 1.377 . S
C645 C644 1.524 . S
C645 C646 1.397 1_655 S
C645 C650 1.363 . S
C646 H623 0.950 . S
C646 C645 1.397 1_455 S
C646 C647 1.334 . S
C647 H624 0.950 . S
C647 C646 1.334 . S
C647 C648 1.287 1_455 S
C648 C647 1.287 1_655 S
C648 C649 1.524 . S
C648 H667 0.913 . S
C649 H625 0.950 . S
C649 C648 1.524 . S
C649 C650 1.415 . S
C650 H626 0.950 . S
C650 C645 1.363 . S
C650 C649 1.415 . S
C651 H627 0.951 . S
C651 C652 1.388 . S
C651 C653 1.388 . S
C652 C651 1.388 . S
C652 C656 1.362 1_455 S
C653 H628 0.951 . S
C653 C651 1.388 . S
C653 C654 1.361 1_455 S
C654 C653 1.361 1_655 S
C654 C655 1.418 . S
C654 C657 1.499 . S
C655 H629 0.950 . S
C655 C654 1.418 . S
C655 C656 1.374 . S
C656 H630 0.950 . S
C656 C652 1.362 1_655 S
C656 C655 1.374 . S
C657 C654 1.499 . S
C657 C658 1.373 . S
C657 C659 1.389 1_655 S
C658 H631 0.950 . S
C658 C644 1.377 . S
C658 C657 1.373 . S
C659 C643 1.377 . S
C659 C657 1.389 1_455 S
C659 C660 1.524 . S
C660 C659 1.524 . S
C660 C661 1.397 1_455 S
C660 C665 1.363 . S
C661 H632 0.950 . S
C661 C660 1.397 1_655 S
C661 C662 1.334 . S
C662 H633 0.950 . S
C662 C661 1.334 . S
C662 C663 1.287 1_655 S
C663 C662 1.287 1_455 S
C663 C664 1.524 . S
C663 H666 0.999 . S
C664 H634 0.950 . S
C664 C663 1.524 . S
C664 C665 1.415 . S
C665 H635 0.950 . S
C665 C660 1.363 . S
C665 C664 1.415 . S
H666 C663 0.999 . S
H667 C648 0.913 . S
C302 C141 1.490 1_565 S
C287 C15 1.483 . S
C352 C229 1.490 . S
C337 C68 1.486 1_455 S
C402 C149 1.490 . S
C387 C8 1.487 . S
C452 C237 1.490 1_655 S
C437 C47 1.491 1_455 S
C502 C209 1.490 . S
C487 C22 1.491 1_545 S
C552 C112 1.490 1_655 S
C537 C61 1.486 . S
C602 C200 1.490 1_565 S
C587 C1 1.495 1_545 S
C637 C54 1.489 . S
C652 C121 1.492 . S
