# Generated by pormake.
# Topology anh, (6,3)-cn, num edge types: 1
# Building blocks:
#     Node 0, Type 0, BuildingBlock: MIFKUJ_clean_sbu_0, # of connection points: 6
#     Node 1, Type 0, BuildingBlock: MIFKUJ_clean_sbu_0, # of connection points: 6
#     Node 2, Type 0, BuildingBlock: MIFKUJ_clean_sbu_0, # of connection points: 6
#     Node 3, Type 1, BuildingBlock: CUQRIR_clean_linker_1, # of connection points: 3
#     Node 4, Type 1, BuildingBlock: CUQRIR_clean_linker_1, # of connection points: 3
#     Node 5, Type 1, BuildingBlock: CUQRIR_clean_linker_1, # of connection points: 3
#     Node 6, Type 1, BuildingBlock: CUQRIR_clean_linker_1, # of connection points: 3
#     Node 7, Type 1, BuildingBlock: CUQRIR_clean_linker_1, # of connection points: 3
#     Node 8, Type 1, BuildingBlock: CUQRIR_clean_linker_1, # of connection points: 3
#     Edge 9, Type (0, 1), BuildingBlock: OJICUG_clean_linker_0, # of connection points: 2
#     Edge 10, Type (0, 1), BuildingBlock: OJICUG_clean_linker_0, # of connection points: 2
#     Edge 11, Type (0, 1), BuildingBlock: OJICUG_clean_linker_0, # of connection points: 2
#     Edge 12, Type (0, 1), BuildingBlock: OJICUG_clean_linker_0, # of connection points: 2
#     Edge 13, Type (0, 1), BuildingBlock: OJICUG_clean_linker_0, # of connection points: 2
#     Edge 14, Type (0, 1), BuildingBlock: OJICUG_clean_linker_0, # of connection points: 2
#     Edge 15, Type (0, 1), BuildingBlock: OJICUG_clean_linker_0, # of connection points: 2
#     Edge 16, Type (0, 1), BuildingBlock: OJICUG_clean_linker_0, # of connection points: 2
#     Edge 17, Type (0, 1), BuildingBlock: OJICUG_clean_linker_0, # of connection points: 2
#     Edge 18, Type (0, 1), BuildingBlock: OJICUG_clean_linker_0, # of connection points: 2
#     Edge 19, Type (0, 1), BuildingBlock: OJICUG_clean_linker_0, # of connection points: 2
#     Edge 20, Type (0, 1), BuildingBlock: OJICUG_clean_linker_0, # of connection points: 2
#     Edge 21, Type (0, 1), BuildingBlock: OJICUG_clean_linker_0, # of connection points: 2
#     Edge 22, Type (0, 1), BuildingBlock: OJICUG_clean_linker_0, # of connection points: 2
#     Edge 23, Type (0, 1), BuildingBlock: OJICUG_clean_linker_0, # of connection points: 2
#     Edge 24, Type (0, 1), BuildingBlock: OJICUG_clean_linker_0, # of connection points: 2
#     Edge 25, Type (0, 1), BuildingBlock: OJICUG_clean_linker_0, # of connection points: 2
#     Edge 26, Type (0, 1), BuildingBlock: OJICUG_clean_linker_0, # of connection points: 2
# Relax obj value: 0.116
# Max RMSD: 0.218
# Mean RMSD: 0.155
data_MOF--net-anh--node1-MIFKUJ_clean_sbu_0--node2-CUQRIR_clean_linker_1--edge1-OJICUG_clean_linker_0
_symmetry_space_group_name_H-M    P1
_symmetry_Int_Tables_number       1
_symmetry_cell_setting            triclinic
loop_
_symmetry_equiv_pos_as_xyz
'x, y, z'
_cell_length_a     21.478142
_cell_length_b     21.724244
_cell_length_c     30.395211
_cell_angle_alpha  87.81258
_cell_angle_beta   90.860872
_cell_angle_gamma 119.15866
loop_
_atom_site_label
_atom_site_type_symbol
_atom_site_fract_x
_atom_site_fract_y
_atom_site_fract_z
_atom_type_partial_charge
Zn0 Zn 0.04069 0.53212 0.16214 0.0
Zn1 Zn 0.82983 0.40025 0.15811 0.0
C2 C 0.1465 0.49658 0.17962 0.0
O3 O 0.14718 0.53073 0.21456 0.0
C4 C 0.72309 0.42698 0.11756 0.0
O5 O 0.71693 0.37521 0.09361 0.0
O6 O 0.1133 0.63486 0.16265 0.0
O7 O 0.96357 0.51454 0.12031 0.0
O8 O 0.88941 0.40674 0.1041 0.0
C9 C 0.16537 0.65606 0.13594 0.0
O10 O 0.16372 0.61319 0.10606 0.0
O11 O 0.09841 0.48362 0.15071 0.0
C12 C 0.76709 0.25125 0.1836 0.0
O13 O 0.83184 0.26768 0.19653 0.0
O14 O 0.75559 0.29871 0.16596 0.0
O15 O 0.87998 0.42623 0.21861 0.0
O16 O -0.00216 0.49913 0.22135 0.0
O17 O 0.77174 0.45092 0.14672 0.0
C18 C 0.94649 0.4636 0.09542 0.0
C19 C 0.93801 0.45987 0.23997 0.0
Zn20 Zn 0.66589 0.10965 0.49229 0.0
Zn21 Zn 0.53903 0.88741 0.5034 0.0
C22 C 0.79202 0.22806 0.51981 0.0
O23 O 0.7475 0.22742 0.54925 0.0
C24 C 0.40955 0.7948 0.46545 0.0
O25 O 0.45525 0.7937 0.43765 0.0
O26 O 0.6223 0.17191 0.49606 0.0
O27 O 0.64381 0.07078 0.43219 0.0
O28 O 0.57961 0.9593 0.45304 0.0
C29 C 0.64837 0.22662 0.47075 0.0
O30 O 0.69591 0.23493 0.44103 0.0
O31 O 0.77128 0.17551 0.49532 0.0
C32 C 0.61578 0.81298 0.52653 0.0
O33 O 0.65065 0.86496 0.55329 0.0
O34 O 0.56975 0.81467 0.50057 0.0
O35 O 0.5617 0.92617 0.56378 0.0
O36 O 0.62577 0.03681 0.54187 0.0
O37 O 0.43313 0.8351 0.49779 0.0
C38 C 0.60654 0.00666 0.42256 0.0
C39 C 0.60017 0.99035 0.57291 0.0
Zn40 Zn 0.6644 0.56038 0.82662 0.0
Zn41 Zn 0.50611 0.62848 0.82966 0.0
C42 C 0.59984 0.40432 0.84386 0.0
O43 O 0.56351 0.40826 0.87699 0.0
C44 C 0.58428 0.78086 0.81151 0.0
O45 O 0.62628 0.76603 0.7885 0.0
O46 O 0.7693 0.61445 0.81182 0.0
O47 O 0.59865 0.58482 0.79114 0.0
O48 O 0.5189 0.61058 0.76517 0.0
C49 C 0.79334 0.58623 0.78581 0.0
O50 O 0.74796 0.53439 0.76174 0.0
O51 O 0.63849 0.45897 0.82003 0.0
C52 C 0.38284 0.58924 0.8839 0.0
O53 O 0.43142 0.63924 0.90775 0.0
O54 O 0.40248 0.572 0.84925 0.0
O55 O 0.57121 0.60386 0.86699 0.0
O56 O 0.64906 0.57281 0.89057 0.0
O57 O 0.53261 0.73138 0.83294 0.0
C58 C 0.56672 0.59348 0.75809 0.0
C59 C 0.60112 0.58905 0.89889 0.0
C60 C 0.48261 0.93543 0.17769 0.0
N61 N 0.53236 0.97122 0.20842 0.0
N62 N 0.43041 0.87431 0.19536 0.0
C63 C 0.48331 0.96098 0.13089 0.0
C64 C 0.45018 0.87347 0.23776 0.0
N65 N 0.51271 0.93224 0.24573 0.0
C66 C 0.40649 0.81713 0.27197 0.0
H67 H 0.45209 0.98933 0.12896 0.0
H68 H 0.45817 0.91608 0.10858 0.0
H69 H 0.53853 -0.00257 0.11944 0.0
H70 H 0.43249 0.7847 0.27962 0.0
H71 H 0.35168 0.78129 0.26063 0.0
H72 H 0.40385 0.84159 0.30278 0.0
C73 C 0.6325 0.51649 0.51887 0.0
N74 N 0.62737 0.55654 0.5501 0.0
N75 N 0.63035 0.45803 0.53768 0.0
C76 C 0.63635 0.53297 0.4701 0.0
C77 C 0.62441 0.46425 0.58137 0.0
N78 N 0.62275 0.52433 0.58889 0.0
C79 C 0.61714 0.41013 0.61631 0.0
H80 H 0.58136 0.51151 0.45714 0.0
H81 H 0.66284 0.50868 0.45214 0.0
H82 H 0.66521 0.59081 0.46328 0.0
H83 H 0.64381 0.38026 0.60597 0.0
H84 H 0.55968 0.37245 0.62166 0.0
H85 H 0.63999 0.43491 0.64801 0.0
C86 C 0.07523 0.55264 0.85499 0.0
N87 N 0.09535 0.53081 0.8924 0.0
N88 N 0.01216 0.55084 0.86107 0.0
C89 C 0.11974 0.58128 0.81386 0.0
C90 C 0.99396 0.52646 0.90301 0.0
N91 N 0.0445 0.51472 0.92228 0.0
C92 C 0.92786 0.51702 0.92583 0.0
H93 H 0.17687 0.61401 0.82232 0.0
H94 H 0.10238 0.61321 0.79307 0.0
H95 H 0.11412 0.53655 0.79454 0.0
H96 H 0.90769 0.47227 0.95027 0.0
H97 H 0.88496 0.50763 0.90182 0.0
H98 H 0.94118 0.56562 0.94356 0.0
C99 C 0.07349 0.54172 0.47541 0.0
N100 N 0.0145 0.494 0.45443 0.0
N101 N 0.11239 0.59879 0.4486 0.0
C102 C 0.09729 0.52945 0.52013 0.0
C103 C 0.07427 0.58427 0.41092 0.0
N104 N 0.01483 0.52064 0.41431 0.0
C105 C 0.09809 0.62973 0.36932 0.0
H106 H 0.08558 0.55924 0.54449 0.0
H107 H 0.15565 0.54926 0.52033 0.0
H108 H 0.06933 0.47276 0.5304 0.0
H109 H 0.12329 0.60886 0.34703 0.0
H110 H 0.13716 0.68515 0.37652 0.0
H111 H 0.05156 0.62819 0.35197 0.0
C112 C 0.59637 0.09521 0.81639 0.0
N113 N 0.60097 0.05206 0.78696 0.0
N114 N 0.59912 0.15265 0.79539 0.0
C115 C 0.59406 0.08395 0.86555 0.0
C116 C 0.60519 0.14291 0.75235 0.0
N117 N 0.6074 0.08251 0.74719 0.0
C118 C 0.60248 0.18947 0.71514 0.0
H119 H 0.53758 0.05365 0.87638 0.0
H120 H 0.61926 0.13512 0.88214 0.0
H121 H 0.62136 0.05356 0.87573 0.0
H122 H 0.65766 0.22919 0.70544 0.0
H123 H 0.574 0.21771 0.72528 0.0
H124 H 0.57528 0.15811 0.68603 0.0
C125 C 0.45194 0.48913 0.13832 0.0
N126 N 0.50267 0.50551 0.10703 0.0
N127 N 0.40403 0.50921 0.12439 0.0
C128 C 0.44594 0.44864 0.18067 0.0
C129 C 0.42791 0.5393 0.08411 0.0
N130 N 0.48674 0.53571 0.073 0.0
C131 C 0.39585 0.57625 0.05686 0.0
H132 H 0.46417 0.40949 0.17605 0.0
H133 H 0.39037 0.42131 0.19332 0.0
H134 H 0.48074 0.48604 0.2056 0.0
H135 H 0.37329 0.6006 0.07849 0.0
H136 H 0.35182 0.53739 0.0366 0.0
H137 H 0.43631 0.61774 0.03464 0.0
C138 C 0.27058 0.51978 0.19631 0.0
C139 C 0.20888 0.48751 0.17006 0.0
H140 H 0.38219 0.55185 0.20195 0.0
C141 C 0.21063 0.45373 0.13203 0.0
H142 H 0.27106 0.54627 0.22589 0.0
C143 C 0.27396 0.45639 0.11896 0.0
C144 C 0.33673 0.49333 0.14337 0.0
H145 H 0.16408 0.42809 0.11126 0.0
H146 H 0.27511 0.43281 0.08845 0.0
C147 C 0.33413 0.52286 0.18293 0.0
C148 C 0.86685 0.35873 0.525 0.0
C149 C 0.85524 0.29557 0.50659 0.0
H150 H 0.92669 0.47187 0.52179 0.0
C151 C 0.89918 0.29887 0.47167 0.0
H152 H 0.83374 0.35826 0.55169 0.0
C153 C 0.95191 0.36402 0.45464 0.0
C154 C 0.96118 0.42674 0.47199 0.0
H155 H 0.89171 0.25125 0.45678 0.0
H156 H 0.98536 0.36539 0.42798 0.0
C157 C 0.91937 0.42369 0.50778 0.0
C158 C 0.64917 0.90775 0.78503 0.0
C159 C 0.59209 0.85268 0.80861 0.0
H160 H 0.69712 0.01513 0.76037 0.0
C161 C 0.54015 0.86584 0.82704 0.0
H162 H 0.69021 0.89959 0.77053 0.0
C163 C 0.54398 0.93175 0.82074 0.0
C164 C 0.59994 0.98593 0.79618 0.0
H165 H 0.49533 0.82463 0.84526 0.0
H166 H 0.50205 0.93984 0.83389 0.0
C167 C 0.65309 0.97374 0.77901 0.0
C168 C 0.66643 0.49718 0.14376 0.0
C169 C 0.66934 0.45141 0.11331 0.0
H170 H 0.61027 0.54994 0.16546 0.0
C171 C 0.61728 0.4254 0.08005 0.0
H172 H 0.70535 0.51799 0.16988 0.0
C173 C 0.5631 0.44365 0.07775 0.0
C174 C 0.55971 0.48831 0.10858 0.0
H175 H 0.61763 0.38994 0.05608 0.0
H176 H 0.523 0.42192 0.05235 0.0
C177 C 0.61195 0.51518 0.14147 0.0
C178 C 0.3083 0.69717 0.42722 0.0
C179 C 0.3325 0.74612 0.46079 0.0
H180 H 0.2188 0.61067 0.39798 0.0
C181 C 0.28277 0.74597 0.49054 0.0
H182 H 0.34516 0.69539 0.40404 0.0
C183 C 0.21014 0.6976 0.48662 0.0
C184 C 0.18654 0.64909 0.45296 0.0
H185 H 0.29994 0.78285 0.51692 0.0
H186 H 0.17235 0.69792 0.50967 0.0
C187 C 0.23611 0.64889 0.42356 0.0
C188 C 0.6588 0.34202 0.81207 0.0
C189 C 0.60118 0.33839 0.83556 0.0
H190 H 0.70387 0.28489 0.78238 0.0
C191 C 0.54594 0.27201 0.85 0.0
H192 H 0.70301 0.39233 0.80129 0.0
C193 C 0.54657 0.21023 0.83875 0.0
C194 C 0.60279 0.21448 0.81348 0.0
H195 H 0.50118 0.26778 0.86845 0.0
H196 H 0.50202 0.15931 0.84807 0.0
C197 C 0.65974 0.28078 0.80146 0.0
C198 C 0.57386 0.68781 0.50857 0.0
C199 C 0.62218 0.74846 0.53066 0.0
H200 H 0.53661 0.57827 0.49875 0.0
C201 C 0.67293 0.74506 0.55889 0.0
H202 H 0.53351 0.68837 0.487 0.0
C203 C 0.67488 0.68199 0.56506 0.0
C204 C 0.62603 0.62157 0.54331 0.0
H205 H 0.71062 0.7908 0.57651 0.0
H206 H 0.71442 0.68016 0.58678 0.0
C207 C 0.57552 0.62484 0.51512 0.0
C208 C 0.88166 0.54375 0.77766 0.0
C209 C 0.86462 0.5935 0.79422 0.0
H210 H 0.9439 0.49123 0.7868 0.0
C211 C 0.90938 0.63997 0.82596 0.0
H212 H 0.84871 0.50749 0.75291 0.0
C213 C 0.96399 0.63066 0.84483 0.0
C214 C 0.97462 0.57506 0.83219 0.0
H215 H 0.89832 0.67934 0.83906 0.0
H216 H 0.99368 0.66258 0.87212 0.0
C217 C 0.93619 0.53439 0.79678 0.0
C218 C 0.23515 0.76852 0.17518 0.0
C219 C 0.23308 0.7199 0.14523 0.0
H220 H 0.30144 0.85739 0.21426 0.0
C221 C 0.29747 0.7279 0.1285 0.0
H222 H 0.18643 0.76377 0.18847 0.0
C223 C 0.36266 0.78055 0.14383 0.0
C224 C 0.36428 0.82631 0.17551 0.0
H225 H 0.29768 0.6911 0.10552 0.0
H226 H 0.41177 0.78383 0.13246 0.0
C227 C 0.30047 0.82172 0.18998 0.0
C228 C 0.57806 0.27525 0.50549 0.0
C229 C 0.63883 0.28659 0.48211 0.0
H230 H 0.52748 0.32261 0.54086 0.0
C231 C 0.69463 0.35577 0.4746 0.0
H232 H 0.53454 0.22232 0.51181 0.0
C233 C 0.69114 0.41238 0.49214 0.0
C234 C 0.6312 0.40076 0.51639 0.0
H235 H 0.74269 0.36584 0.45739 0.0
H236 H 0.73618 0.46501 0.48817 0.0
C237 C 0.57409 0.33213 0.52222 0.0
C238 C 0.25335 0.51042 0.86709 0.0
C239 C 0.30596 0.56247 0.89308 0.0
H240 H 0.1434 0.45804 0.8478 0.0
C241 C 0.28469 0.59444 0.92467 0.0
H242 H 0.26762 0.48423 0.84276 0.0
C243 C 0.21357 0.5795 0.92726 0.0
C244 C 0.16234 0.53165 0.89882 0.0
H245 H 0.3237 0.63453 0.94542 0.0
H246 H 0.19989 0.60934 0.94904 0.0
C247 C 0.18225 0.49508 0.87008 0.0
C248 C 0.63716 0.16442 0.18098 0.0
C249 C 0.70713 0.17882 0.19051 0.0
H250 H 0.52657 0.08694 0.18042 0.0
C251 C 0.71859 0.12374 0.207 0.0
H252 H 0.62624 0.20567 0.16872 0.0
C253 C 0.66112 0.05545 0.21321 0.0
C254 C 0.59164 0.04142 0.20304 0.0
H255 H 0.77183 0.13324 0.21484 0.0
H256 H 0.67075 0.01339 0.22547 0.0
C257 C 0.58007 0.09653 0.18743 0.0
C258 C 0.03745 0.54257 0.03964 0.0
C259 C 0.9879 0.47389 0.05449 0.0
H260 H 0.09718 0.60908 0.98488 0.0
C261 C 0.97319 0.41728 0.02746 0.0
H262 H 0.04939 0.58756 0.05924 0.0
C263 C 0.00207 0.43008 0.98483 0.0
C264 C 0.04556 0.49946 0.96858 0.0
H265 H 0.93552 0.36372 0.03798 0.0
H266 H 0.98398 0.38661 0.96283 0.0
C267 C 0.06602 0.55509 -0.00279 0.0
C268 C 0.57864 0.03641 0.34761 0.0
C269 C 0.58824 0.9892 0.37607 0.0
H270 H 0.54433 0.05385 0.28417 0.0
C271 C 0.57799 0.92527 0.35997 0.0
H272 H 0.58576 0.08592 0.35932 0.0
C273 C 0.55744 0.90855 0.31621 0.0
C274 C 0.54429 0.9542 0.28845 0.0
H275 H 0.58583 0.8884 0.38116 0.0
H276 H 0.55014 0.85918 0.30428 0.0
C277 C 0.55574 0.01855 0.30446 0.0
C278 C 0.64813 0.58471 0.70436 0.0
C279 C 0.58207 0.5801 0.71337 0.0
H280 H 0.71281 0.57035 0.65704 0.0
C281 C 0.53107 0.56124 0.6797 0.0
H282 H 0.68921 0.60209 0.72915 0.0
C283 C 0.54502 0.54415 0.63838 0.0
C284 C 0.60994 0.54579 0.63034 0.0
H285 H 0.4799 0.55791 0.68564 0.0
H286 H 0.50475 0.52807 0.61298 0.0
C287 C 0.6619 0.56742 0.66323 0.0
C288 C 0.55695 0.96575 0.6509 0.0
C289 C 0.60747 0.01082 0.61928 0.0
H290 H 0.51686 0.95423 0.71671 0.0
C291 C 0.66239 0.07655 0.63204 0.0
H292 H 0.51401 0.91464 0.64207 0.0
C293 C 0.66487 0.09801 0.67507 0.0
C294 C 0.61167 0.05489 0.70572 0.0
H295 H 0.70265 0.11178 0.60862 0.0
H296 H 0.7068 0.14951 0.68409 0.0
C297 C 0.55868 0.98793 0.69367 0.0
C298 C 0.61923 0.60386 0.98004 0.0
C299 C 0.57331 0.57934 0.94374 0.0
H300 H 0.62684 0.61089 0.05053 0.0
C301 C 0.49973 0.53913 0.95058 0.0
H302 H 0.67642 0.63407 0.97524 0.0
C303 C 0.47216 0.52333 0.99309 0.0
C304 C 0.51732 0.5497 0.02955 0.0
H305 H 0.46369 0.51769 0.92307 0.0
H306 H 0.41529 0.48998 -0.00244 0.0
C307 C 0.5912 0.59008 0.02283 0.0
C308 C 0.98936 0.43735 0.30763 0.0
C309 C 0.93874 0.45287 0.28821 0.0
H310 H 0.05209 0.44592 0.36473 0.0
C311 C 0.90178 0.47628 0.31452 0.0
H312 H 0.01897 0.41994 0.28779 0.0
C313 C 0.92102 0.49113 0.35876 0.0
C314 C 0.97642 0.48168 0.37687 0.0
H315 H 0.86338 0.48963 0.29992 0.0
H316 H 0.89764 0.51616 0.37756 0.0
C317 C 0.00782 0.45144 0.35163 0.0
loop_
_geom_bond_atom_site_label_1
_geom_bond_atom_site_label_2
_geom_bond_distance
_geom_bond_site_symmetry_2
_ccdc_geom_bond_type
Zn0 O6 1.969 . S
Zn0 O7 1.965 . S
Zn0 O11 2.024 . S
Zn0 O16 1.969 . S
Zn1 O8 1.969 . S
Zn1 O14 1.969 . S
Zn1 O15 1.965 . S
Zn1 O17 2.024 . S
C2 O3 1.229 . S
C2 O11 1.058 . S
O3 C2 1.229 . S
C4 O5 1.229 . S
C4 O17 1.058 . S
O5 C4 1.229 . S
O6 Zn0 1.969 . S
O6 C9 1.267 . S
O7 Zn0 1.965 . S
O7 C18 1.253 1_455 S
O8 Zn1 1.969 . S
O8 C18 1.271 . S
C9 O6 1.267 . S
C9 O10 1.228 . S
O10 C9 1.228 . S
O11 Zn0 2.024 . S
O11 C2 1.058 . S
C12 O13 1.228 . S
C12 O14 1.267 . S
O13 C12 1.228 . S
O14 Zn1 1.969 . S
O14 C12 1.267 . S
O15 Zn1 1.965 . S
O15 C19 1.260 1_655 S
O16 Zn0 1.969 . S
O16 C19 1.258 . S
O17 Zn1 2.024 . S
O17 C4 1.058 . S
C18 O7 1.253 1_655 S
C18 O8 1.271 . S
C19 O15 1.260 1_455 S
C19 O16 1.258 . S
Zn20 O26 1.969 . S
Zn20 O27 1.965 . S
Zn20 O31 2.024 . S
Zn20 O36 1.969 . S
Zn21 O28 1.969 . S
Zn21 O34 1.969 . S
Zn21 O35 1.965 . S
Zn21 O37 2.024 . S
C22 O23 1.229 . S
C22 O31 1.058 . S
O23 C22 1.229 . S
C24 O25 1.229 . S
C24 O37 1.058 . S
O25 C24 1.229 . S
O26 Zn20 1.969 . S
O26 C29 1.267 . S
O27 Zn20 1.965 . S
O27 C38 1.260 . S
O28 Zn21 1.969 . S
O28 C38 1.258 1_565 S
C29 O26 1.267 . S
C29 O30 1.228 . S
O30 C29 1.228 . S
O31 Zn20 2.024 . S
O31 C22 1.058 . S
C32 O33 1.228 . S
C32 O34 1.267 . S
O33 C32 1.228 . S
O34 Zn21 1.969 . S
O34 C32 1.267 . S
O35 Zn21 1.965 . S
O35 C39 1.260 1_565 S
O36 Zn20 1.969 . S
O36 C39 1.258 . S
O37 Zn21 2.024 . S
O37 C24 1.058 . S
C38 O27 1.260 . S
C38 O28 1.258 1_545 S
C39 O35 1.260 1_545 S
C39 O36 1.258 . S
Zn40 O46 1.969 . S
Zn40 O47 1.965 . S
Zn40 O51 2.024 . S
Zn40 O56 1.969 . S
Zn41 O48 1.969 . S
Zn41 O54 1.969 . S
Zn41 O55 1.965 . S
Zn41 O57 2.024 . S
C42 O43 1.229 . S
C42 O51 1.058 . S
O43 C42 1.229 . S
C44 O45 1.229 . S
C44 O57 1.058 . S
O45 C44 1.229 . S
O46 Zn40 1.969 . S
O46 C49 1.267 . S
O47 Zn40 1.965 . S
O47 C58 1.260 . S
O48 Zn41 1.969 . S
O48 C58 1.258 . S
C49 O46 1.267 . S
C49 O50 1.228 . S
O50 C49 1.228 . S
O51 Zn40 2.024 . S
O51 C42 1.058 . S
C52 O53 1.228 . S
C52 O54 1.267 . S
O53 C52 1.228 . S
O54 Zn41 1.969 . S
O54 C52 1.267 . S
O55 Zn41 1.965 . S
O55 C59 1.260 . S
O56 Zn40 1.969 . S
O56 C59 1.258 . S
O57 Zn41 2.024 . S
O57 C44 1.058 . S
C58 O47 1.260 . S
C58 O48 1.258 . S
C59 O55 1.260 . S
C59 O56 1.258 . S
C60 N61 1.317 . S
C60 N62 1.348 1_545 S
C60 C63 1.485 . S
N61 C60 1.317 . S
N61 N65 1.370 . S
N62 C60 1.348 1_565 S
N62 C64 1.346 . S
C63 C60 1.485 . S
C63 H67 0.960 . S
C63 H68 0.961 1_545 S
C63 H69 0.960 . S
C64 N62 1.346 . S
C64 N65 1.307 1_565 S
C64 C66 1.486 . S
N65 N61 1.370 . S
N65 C64 1.307 1_545 S
C66 C64 1.486 . S
C66 H70 0.960 . S
C66 H71 0.960 . S
C66 H72 0.959 . S
H67 C63 0.960 . S
H68 C63 0.961 1_565 S
H69 C63 0.960 . S
H70 C66 0.960 . S
H71 C66 0.960 . S
H72 C66 0.959 . S
C73 N74 1.317 . S
C73 N75 1.348 . S
C73 C76 1.485 . S
N74 C73 1.317 . S
N74 N78 1.370 . S
N75 C73 1.348 . S
N75 C77 1.346 . S
C76 C73 1.485 . S
C76 H80 0.960 . S
C76 H81 0.961 . S
C76 H82 0.960 . S
C77 N75 1.346 . S
C77 N78 1.307 . S
C77 C79 1.486 . S
N78 N74 1.370 . S
N78 C77 1.307 . S
C79 C77 1.486 . S
C79 H83 0.960 . S
C79 H84 0.960 . S
C79 H85 0.959 . S
H80 C76 0.960 . S
H81 C76 0.961 . S
H82 C76 0.960 . S
H83 C79 0.960 . S
H84 C79 0.960 . S
H85 C79 0.959 . S
C86 N87 1.317 . S
C86 N88 1.348 1_455 S
C86 C89 1.485 . S
N87 C86 1.317 . S
N87 N91 1.370 . S
N88 C86 1.348 1_655 S
N88 C90 1.346 . S
C89 C86 1.485 . S
C89 H93 0.960 . S
C89 H94 0.961 . S
C89 H95 0.960 . S
C90 N88 1.346 . S
C90 N91 1.307 1_655 S
C90 C92 1.486 . S
N91 N87 1.370 . S
N91 C90 1.307 1_455 S
C92 C90 1.486 . S
C92 H96 0.960 . S
C92 H97 0.960 . S
C92 H98 0.959 . S
H93 C89 0.960 . S
H94 C89 0.961 . S
H95 C89 0.960 . S
H96 C92 0.960 . S
H97 C92 0.960 . S
H98 C92 0.959 . S
C99 N100 1.317 . S
C99 N101 1.348 . S
C99 C102 1.485 . S
N100 C99 1.317 . S
N100 N104 1.370 . S
N101 C99 1.348 . S
N101 C103 1.346 . S
C102 C99 1.485 . S
C102 H106 0.960 . S
C102 H107 0.961 . S
C102 H108 0.960 . S
C103 N101 1.346 . S
C103 N104 1.307 . S
C103 C105 1.486 . S
N104 N100 1.370 . S
N104 C103 1.307 . S
C105 C103 1.486 . S
C105 H109 0.960 . S
C105 H110 0.960 . S
C105 H111 0.959 . S
H106 C102 0.960 . S
H107 C102 0.961 . S
H108 C102 0.960 . S
H109 C105 0.960 . S
H110 C105 0.960 . S
H111 C105 0.959 . S
C112 N113 1.317 . S
C112 N114 1.348 . S
C112 C115 1.485 . S
N113 C112 1.317 . S
N113 N117 1.370 . S
N114 C112 1.348 . S
N114 C116 1.346 . S
C115 C112 1.485 . S
C115 H119 0.960 . S
C115 H120 0.961 . S
C115 H121 0.960 . S
C116 N114 1.346 . S
C116 N117 1.307 . S
C116 C118 1.486 . S
N117 N113 1.370 . S
N117 C116 1.307 . S
C118 C116 1.486 . S
C118 H122 0.960 . S
C118 H123 0.960 . S
C118 H124 0.959 . S
H119 C115 0.960 . S
H120 C115 0.961 . S
H121 C115 0.960 . S
H122 C118 0.960 . S
H123 C118 0.960 . S
H124 C118 0.959 . S
C125 N126 1.317 . S
C125 N127 1.348 . S
C125 C128 1.485 . S
N126 C125 1.317 . S
N126 N130 1.370 . S
N127 C125 1.348 . S
N127 C129 1.346 . S
C128 C125 1.485 . S
C128 H132 0.960 . S
C128 H133 0.961 . S
C128 H134 0.960 . S
C129 N127 1.346 . S
C129 N130 1.307 . S
C129 C131 1.486 . S
N130 N126 1.370 . S
N130 C129 1.307 . S
C131 C129 1.486 . S
C131 H135 0.960 . S
C131 H136 0.960 . S
C131 H137 0.959 . S
H132 C128 0.960 . S
H133 C128 0.961 . S
H134 C128 0.960 . S
H135 C131 0.960 . S
H136 C131 0.960 . S
H137 C131 0.959 . S
C138 C139 1.387 . S
C138 H142 0.950 . S
C138 C147 1.390 . S
C139 C138 1.387 . S
C139 C141 1.387 . S
H140 C147 0.950 . S
C141 C139 1.387 . S
C141 C143 1.390 . S
C141 H145 0.950 . S
H142 C138 0.950 . S
C143 C141 1.390 . S
C143 C144 1.387 . S
C143 H146 0.950 . S
C144 C143 1.387 . S
C144 C147 1.387 . S
H145 C141 0.950 . S
H146 C143 0.950 . S
C147 C138 1.390 . S
C147 H140 0.950 . S
C147 C144 1.387 . S
C148 C149 1.387 . S
C148 H152 0.950 . S
C148 C157 1.390 . S
C149 C148 1.387 . S
C149 C151 1.387 . S
H150 C157 0.950 . S
C151 C149 1.387 . S
C151 C153 1.390 . S
C151 H155 0.950 . S
H152 C148 0.950 . S
C153 C151 1.390 . S
C153 C154 1.387 . S
C153 H156 0.950 . S
C154 C153 1.387 . S
C154 C157 1.387 . S
H155 C151 0.950 . S
H156 C153 0.950 . S
C157 C148 1.390 . S
C157 H150 0.950 . S
C157 C154 1.387 . S
C158 C159 1.387 . S
C158 H162 0.950 . S
C158 C167 1.390 . S
C159 C158 1.387 . S
C159 C161 1.387 . S
H160 C167 0.950 . S
C161 C159 1.387 . S
C161 C163 1.390 . S
C161 H165 0.950 . S
H162 C158 0.950 . S
C163 C161 1.390 . S
C163 C164 1.387 . S
C163 H166 0.950 . S
C164 C163 1.387 . S
C164 C167 1.387 . S
H165 C161 0.950 . S
H166 C163 0.950 . S
C167 C158 1.390 . S
C167 H160 0.950 . S
C167 C164 1.387 . S
C168 C169 1.387 . S
C168 H172 0.950 . S
C168 C177 1.390 . S
C169 C168 1.387 . S
C169 C171 1.387 . S
H170 C177 0.950 . S
C171 C169 1.387 . S
C171 C173 1.390 . S
C171 H175 0.950 . S
H172 C168 0.950 . S
C173 C171 1.390 . S
C173 C174 1.387 . S
C173 H176 0.950 . S
C174 C173 1.387 . S
C174 C177 1.387 . S
H175 C171 0.950 . S
H176 C173 0.950 . S
C177 C168 1.390 . S
C177 H170 0.950 . S
C177 C174 1.387 . S
C178 C179 1.387 . S
C178 H182 0.950 . S
C178 C187 1.390 . S
C179 C178 1.387 . S
C179 C181 1.387 . S
H180 C187 0.950 . S
C181 C179 1.387 . S
C181 C183 1.390 . S
C181 H185 0.950 . S
H182 C178 0.950 . S
C183 C181 1.390 . S
C183 C184 1.387 . S
C183 H186 0.950 . S
C184 C183 1.387 . S
C184 C187 1.387 . S
H185 C181 0.950 . S
H186 C183 0.950 . S
C187 C178 1.390 . S
C187 H180 0.950 . S
C187 C184 1.387 . S
C188 C189 1.387 . S
C188 H192 0.950 . S
C188 C197 1.390 . S
C189 C188 1.387 . S
C189 C191 1.387 . S
H190 C197 0.950 . S
C191 C189 1.387 . S
C191 C193 1.390 . S
C191 H195 0.950 . S
H192 C188 0.950 . S
C193 C191 1.390 . S
C193 C194 1.387 . S
C193 H196 0.950 . S
C194 C193 1.387 . S
C194 C197 1.387 . S
H195 C191 0.950 . S
H196 C193 0.950 . S
C197 C188 1.390 . S
C197 H190 0.950 . S
C197 C194 1.387 . S
C198 C199 1.387 . S
C198 H202 0.950 . S
C198 C207 1.390 . S
C199 C198 1.387 . S
C199 C201 1.387 . S
H200 C207 0.950 . S
C201 C199 1.387 . S
C201 C203 1.390 . S
C201 H205 0.950 . S
H202 C198 0.950 . S
C203 C201 1.390 . S
C203 C204 1.387 . S
C203 H206 0.950 . S
C204 C203 1.387 . S
C204 C207 1.387 . S
H205 C201 0.950 . S
H206 C203 0.950 . S
C207 C198 1.390 . S
C207 H200 0.950 . S
C207 C204 1.387 . S
C208 C209 1.387 . S
C208 H212 0.950 . S
C208 C217 1.390 . S
C209 C208 1.387 . S
C209 C211 1.387 . S
H210 C217 0.950 . S
C211 C209 1.387 . S
C211 C213 1.390 . S
C211 H215 0.950 . S
H212 C208 0.950 . S
C213 C211 1.390 . S
C213 C214 1.387 . S
C213 H216 0.950 . S
C214 C213 1.387 . S
C214 C217 1.387 . S
H215 C211 0.950 . S
H216 C213 0.950 . S
C217 C208 1.390 . S
C217 H210 0.950 . S
C217 C214 1.387 . S
C218 C219 1.387 . S
C218 H222 0.950 . S
C218 C227 1.390 . S
C219 C218 1.387 . S
C219 C221 1.387 . S
H220 C227 0.950 . S
C221 C219 1.387 . S
C221 C223 1.390 . S
C221 H225 0.950 . S
H222 C218 0.950 . S
C223 C221 1.390 . S
C223 C224 1.387 . S
C223 H226 0.950 . S
C224 C223 1.387 . S
C224 C227 1.387 . S
H225 C221 0.950 . S
H226 C223 0.950 . S
C227 C218 1.390 . S
C227 H220 0.950 . S
C227 C224 1.387 . S
C228 C229 1.387 . S
C228 H232 0.950 . S
C228 C237 1.390 . S
C229 C228 1.387 . S
C229 C231 1.387 . S
H230 C237 0.950 . S
C231 C229 1.387 . S
C231 C233 1.390 . S
C231 H235 0.950 . S
H232 C228 0.950 . S
C233 C231 1.390 . S
C233 C234 1.387 . S
C233 H236 0.950 . S
C234 C233 1.387 . S
C234 C237 1.387 . S
H235 C231 0.950 . S
H236 C233 0.950 . S
C237 C228 1.390 . S
C237 H230 0.950 . S
C237 C234 1.387 . S
C238 C239 1.387 . S
C238 H242 0.950 . S
C238 C247 1.390 . S
C239 C238 1.387 . S
C239 C241 1.387 . S
H240 C247 0.950 . S
C241 C239 1.387 . S
C241 C243 1.390 . S
C241 H245 0.950 . S
H242 C238 0.950 . S
C243 C241 1.390 . S
C243 C244 1.387 . S
C243 H246 0.950 . S
C244 C243 1.387 . S
C244 C247 1.387 . S
H245 C241 0.950 . S
H246 C243 0.950 . S
C247 C238 1.390 . S
C247 H240 0.950 . S
C247 C244 1.387 . S
C248 C249 1.387 . S
C248 H252 0.950 . S
C248 C257 1.390 . S
C249 C248 1.387 . S
C249 C251 1.387 . S
H250 C257 0.950 . S
C251 C249 1.387 . S
C251 C253 1.390 . S
C251 H255 0.950 . S
H252 C248 0.950 . S
C253 C251 1.390 . S
C253 C254 1.387 . S
C253 H256 0.950 . S
C254 C253 1.387 . S
C254 C257 1.387 . S
H255 C251 0.950 . S
H256 C253 0.950 . S
C257 C248 1.390 . S
C257 H250 0.950 . S
C257 C254 1.387 . S
C258 C259 1.387 . S
C258 H262 0.950 . S
C258 C267 1.390 1_554 S
C259 C258 1.387 . S
C259 C261 1.387 1_455 S
H260 C267 0.950 . S
C261 C259 1.387 1_655 S
C261 C263 1.390 1_554 S
C261 H265 0.950 . S
H262 C258 0.950 . S
C263 C261 1.390 1_556 S
C263 C264 1.387 1_655 S
C263 H266 0.950 . S
C264 C263 1.387 1_455 S
C264 C267 1.387 . S
H265 C261 0.950 . S
H266 C263 0.950 . S
C267 C258 1.390 1_556 S
C267 H260 0.950 . S
C267 C264 1.387 . S
C268 C269 1.387 . S
C268 H272 0.950 . S
C268 C277 1.390 . S
C269 C268 1.387 . S
C269 C271 1.387 1_545 S
H270 C277 0.950 . S
C271 C269 1.387 1_565 S
C271 C273 1.390 . S
C271 H275 0.950 . S
H272 C268 0.950 . S
C273 C271 1.390 . S
C273 C274 1.387 1_565 S
C273 H276 0.950 . S
C274 C273 1.387 1_545 S
C274 C277 1.387 . S
H275 C271 0.950 . S
H276 C273 0.950 . S
C277 C268 1.390 . S
C277 H270 0.950 . S
C277 C274 1.387 . S
C278 C279 1.387 . S
C278 H282 0.950 . S
C278 C287 1.390 . S
C279 C278 1.387 . S
C279 C281 1.387 . S
H280 C287 0.950 . S
C281 C279 1.387 . S
C281 C283 1.390 . S
C281 H285 0.950 . S
H282 C278 0.950 . S
C283 C281 1.390 . S
C283 C284 1.387 . S
C283 H286 0.950 . S
C284 C283 1.387 . S
C284 C287 1.387 . S
H285 C281 0.950 . S
H286 C283 0.950 . S
C287 C278 1.390 . S
C287 H280 0.950 . S
C287 C284 1.387 . S
C288 C289 1.387 1_565 S
C288 H292 0.950 . S
C288 C297 1.390 . S
C289 C288 1.387 1_545 S
C289 C291 1.387 . S
H290 C297 0.950 . S
C291 C289 1.387 . S
C291 C293 1.390 . S
C291 H295 0.950 . S
H292 C288 0.950 . S
C293 C291 1.390 . S
C293 C294 1.387 . S
C293 H296 0.950 . S
C294 C293 1.387 . S
C294 C297 1.387 1_545 S
H295 C291 0.950 . S
H296 C293 0.950 . S
C297 C288 1.390 . S
C297 H290 0.950 . S
C297 C294 1.387 1_565 S
C298 C299 1.387 . S
C298 H302 0.950 . S
C298 C307 1.390 1_556 S
C299 C298 1.387 . S
C299 C301 1.387 . S
H300 C307 0.950 . S
C301 C299 1.387 . S
C301 C303 1.390 1_556 S
C301 H305 0.950 . S
H302 C298 0.950 . S
C303 C301 1.390 1_554 S
C303 C304 1.387 . S
C303 H306 0.950 . S
C304 C303 1.387 . S
C304 C307 1.387 . S
H305 C301 0.950 . S
H306 C303 0.950 . S
C307 C298 1.390 1_554 S
C307 H300 0.950 . S
C307 C304 1.387 . S
C308 C309 1.387 . S
C308 H312 0.950 . S
C308 C317 1.390 . S
C309 C308 1.387 . S
C309 C311 1.387 1_455 S
H310 C317 0.950 . S
C311 C309 1.387 1_655 S
C311 C313 1.390 . S
C311 H315 0.950 . S
H312 C308 0.950 . S
C313 C311 1.390 . S
C313 C314 1.387 1_655 S
C313 H316 0.950 . S
C314 C313 1.387 1_455 S
C314 C317 1.387 . S
H315 C311 0.950 . S
H316 C313 0.950 . S
C317 C308 1.390 . S
C317 H310 0.950 . S
C317 C314 1.387 . S
C139 C2 1.257 . S
C144 N127 1.364 . S
C149 C22 1.354 . S
C154 N100 1.489 1_655 S
C159 C44 1.366 . S
C164 N113 1.484 1_565 S
C169 C4 1.697 . S
C174 N126 1.805 . S
C184 N101 1.655 . S
C179 C24 1.590 . S
C194 N114 1.640 . S
C189 C42 1.553 . S
C199 C32 1.229 . S
C204 N74 1.283 . S
C209 C49 1.123 . S
C214 N88 1.151 . S
C219 C9 1.376 . S
C224 N62 1.393 . S
C234 N75 1.389 . S
C229 C29 1.340 . S
C244 N87 1.499 . S
C239 C52 1.437 . S
C249 C12 1.210 . S
C254 N61 1.281 . S
C264 N91 1.477 . S
C259 C18 1.523 1_455 S
C269 C38 1.495 . S
C274 N65 1.520 . S
C279 C58 1.499 . S
C284 N78 1.488 . S
C294 N117 1.601 . S
C289 C39 1.583 . S
C304 N130 1.517 . S
C299 C59 1.511 . S
C309 C19 1.526 . S
C314 N104 1.555 . S
