# Generated by pormake.
# Topology zzz, (3,6)-cn, num edge types: 1
# Building blocks:
#     Node 0, Type 0, BuildingBlock: ESEHIV_clean_linker_0, # of connection points: 3
#     Node 1, Type 0, BuildingBlock: ESEHIV_clean_linker_0, # of connection points: 3
#     Node 2, Type 0, BuildingBlock: ESEHIV_clean_linker_0, # of connection points: 3
#     Node 3, Type 0, BuildingBlock: ESEHIV_clean_linker_0, # of connection points: 3
#     Node 4, Type 0, BuildingBlock: ESEHIV_clean_linker_0, # of connection points: 3
#     Node 5, Type 0, BuildingBlock: ESEHIV_clean_linker_0, # of connection points: 3
#     Node 6, Type 0, BuildingBlock: ESEHIV_clean_linker_0, # of connection points: 3
#     Node 7, Type 0, BuildingBlock: ESEHIV_clean_linker_0, # of connection points: 3
#     Node 8, Type 1, BuildingBlock: PAMTUU_clean_sbu_0, # of connection points: 6
#     Node 9, Type 1, BuildingBlock: PAMTUU_clean_sbu_0, # of connection points: 6
#     Node 10, Type 1, BuildingBlock: PAMTUU_clean_sbu_0, # of connection points: 6
#     Node 11, Type 1, BuildingBlock: PAMTUU_clean_sbu_0, # of connection points: 6
#     Edge 12, Type (0, 1), BuildingBlock: TEMPAE_clean_linker_10, # of connection points: 2
#     Edge 13, Type (0, 1), BuildingBlock: TEMPAE_clean_linker_10, # of connection points: 2
#     Edge 14, Type (0, 1), BuildingBlock: TEMPAE_clean_linker_10, # of connection points: 2
#     Edge 15, Type (0, 1), BuildingBlock: TEMPAE_clean_linker_10, # of connection points: 2
#     Edge 16, Type (0, 1), BuildingBlock: TEMPAE_clean_linker_10, # of connection points: 2
#     Edge 17, Type (0, 1), BuildingBlock: TEMPAE_clean_linker_10, # of connection points: 2
#     Edge 18, Type (0, 1), BuildingBlock: TEMPAE_clean_linker_10, # of connection points: 2
#     Edge 19, Type (0, 1), BuildingBlock: TEMPAE_clean_linker_10, # of connection points: 2
#     Edge 20, Type (0, 1), BuildingBlock: TEMPAE_clean_linker_10, # of connection points: 2
#     Edge 21, Type (0, 1), BuildingBlock: TEMPAE_clean_linker_10, # of connection points: 2
#     Edge 22, Type (0, 1), BuildingBlock: TEMPAE_clean_linker_10, # of connection points: 2
#     Edge 23, Type (0, 1), BuildingBlock: TEMPAE_clean_linker_10, # of connection points: 2
#     Edge 24, Type (0, 1), BuildingBlock: TEMPAE_clean_linker_10, # of connection points: 2
#     Edge 25, Type (0, 1), BuildingBlock: TEMPAE_clean_linker_10, # of connection points: 2
#     Edge 26, Type (0, 1), BuildingBlock: TEMPAE_clean_linker_10, # of connection points: 2
#     Edge 27, Type (0, 1), BuildingBlock: TEMPAE_clean_linker_10, # of connection points: 2
#     Edge 28, Type (0, 1), BuildingBlock: TEMPAE_clean_linker_10, # of connection points: 2
#     Edge 29, Type (0, 1), BuildingBlock: TEMPAE_clean_linker_10, # of connection points: 2
#     Edge 30, Type (0, 1), BuildingBlock: TEMPAE_clean_linker_10, # of connection points: 2
#     Edge 31, Type (0, 1), BuildingBlock: TEMPAE_clean_linker_10, # of connection points: 2
#     Edge 32, Type (0, 1), BuildingBlock: TEMPAE_clean_linker_10, # of connection points: 2
#     Edge 33, Type (0, 1), BuildingBlock: TEMPAE_clean_linker_10, # of connection points: 2
#     Edge 34, Type (0, 1), BuildingBlock: TEMPAE_clean_linker_10, # of connection points: 2
#     Edge 35, Type (0, 1), BuildingBlock: TEMPAE_clean_linker_10, # of connection points: 2
# Relax obj value: 0.421
# Max RMSD: 0.289
# Mean RMSD: 0.219
data_MOF--net-zzz--node1-PAMTUU_clean_sbu_0--node2-ESEHIV_clean_linker_0--edge1-TEMPAE_clean_linker_10
_symmetry_space_group_name_H-M    P1
_symmetry_Int_Tables_number       1
_symmetry_cell_setting            triclinic
loop_
_symmetry_equiv_pos_as_xyz
'x, y, z'
_cell_length_a     44.129928
_cell_length_b     48.3438
_cell_length_c     16.368658
_cell_angle_alpha  101.18169
_cell_angle_beta   90.263877
_cell_angle_gamma 89.019151
loop_
_atom_site_label
_atom_site_type_symbol
_atom_site_fract_x
_atom_site_fract_y
_atom_site_fract_z
_atom_type_partial_charge
H0 H 0.80854 0.57061 0.44355 0.0
H1 H 0.72393 0.57582 0.31607 0.0
H2 H 0.73691 0.51459 0.47314 0.0
C3 C 0.78509 0.56466 0.43262 0.0
C4 C 0.77414 0.54335 0.47113 0.0
C5 C 0.7679 0.57538 0.37284 0.0
C6 C 0.73767 0.56718 0.36052 0.0
C7 C 0.72631 0.54482 0.39397 0.0
C8 C 0.74484 0.53255 0.44924 0.0
H9 H 0.02728 0.79238 0.47884 0.0
H10 H 1.01576 0.72168 0.27956 0.0
H11 H 0.9876 0.71657 0.52893 0.0
C12 C 1.01999 0.77085 0.45733 0.0
C13 C 1.00759 0.756 0.51414 0.0
C14 C 0.02284 0.75872 0.37327 0.0
C15 C 1.01348 0.73109 0.34508 0.0
C16 C 1.00058 0.71569 0.40044 0.0
C17 C 0.99761 0.72817 0.4858 0.0
H18 H 0.73853 0.96066 0.42743 0.0
H19 H 0.81119 0.95341 0.25126 0.0
H20 H 0.81643 0.01295 0.48463 0.0
C21 C 0.76125 0.96599 0.4115 0.0
C22 C 0.77617 0.9871 0.46663 0.0
C23 C 0.77307 0.95447 0.3328 0.0
C24 C 0.80208 0.96217 0.31244 0.0
C25 C 0.81838 0.98283 0.36679 0.0
C26 C 0.80487 0.9961 0.44369 0.0
H27 H 0.54231 0.72717 0.23578 0.0
H28 H 0.55596 0.81563 0.32673 0.0
H29 H 0.52129 0.7857 0.07768 0.0
C30 C 0.54109 0.74879 0.22621 0.0
C31 C 0.53066 0.75416 0.15029 0.0
C32 C 0.55019 0.77065 0.28988 0.0
C33 C 0.54871 0.79867 0.27754 0.0
C34 C 0.53788 0.80448 0.20086 0.0
C35 C 0.52873 0.7819 0.13782 0.0
H36 H 0.24199 0.44472 0.17091 0.0
H37 H 0.31483 0.43692 0.33948 0.0
H38 H 0.31882 0.49847 0.18067 0.0
C39 C 0.26465 0.4501 0.19386 0.0
C40 C 0.27922 0.47181 0.16517 0.0
C41 C 0.27655 0.43831 0.25911 0.0
C42 C 0.30561 0.44598 0.28883 0.0
C43 C 0.32153 0.46734 0.26069 0.0
C44 C 0.30768 0.48105 0.20015 0.0
H45 H 1.02005 0.21006 0.22825 0.0
H46 H 1.016 0.28571 0.41356 0.0
H47 H 0.04282 0.28912 0.1618 0.0
C48 C 0.02319 0.23268 0.24579 0.0
C49 C 0.03182 0.24786 0.18533 0.0
C50 C 1.01736 0.24618 0.3275 0.0
C51 C 1.0205 0.27533 0.34976 0.0
C52 C 0.03001 0.29109 0.29091 0.0
C53 C 0.03598 0.27721 0.20807 0.0
H54 H 0.31997 0.95632 0.24934 0.0
H55 H 0.23838 0.95013 0.38381 0.0
H56 H 0.24665 0.0159 0.24031 0.0
C57 C 0.29703 0.96384 0.26544 0.0
C58 C 0.28548 0.98728 0.23604 0.0
C59 C 0.28028 0.95066 0.31865 0.0
C60 C 0.25081 0.96 0.34037 0.0
C61 C 0.2382 0.98345 0.31269 0.0
C62 C 0.25572 0.99734 0.26026 0.0
H63 H 0.50708 0.28758 0.38847 0.0
H64 H 0.48407 0.20009 0.32489 0.0
H65 H 0.5311 0.23237 0.55523 0.0
C66 C 0.5076 0.26664 0.40339 0.0
C67 C 0.52037 0.26268 0.47857 0.0
C68 C 0.4944 0.24442 0.34823 0.0
C69 C 0.49464 0.21729 0.36712 0.0
C70 C 0.50864 0.21261 0.44119 0.0
C71 C 0.52155 0.23548 0.49647 0.0
Tb72 Tb 0.99868 0.00667 0.77873 0.0
Tb73 Tb 0.05337 0.99746 0.90577 0.0
C74 C 0.98554 0.00267 0.96574 0.0
C75 C 0.94824 0.04109 0.64906 0.0
C76 C 0.94482 0.09188 0.58925 0.0
C77 C 0.93397 0.09075 0.66896 0.0
C78 C 0.93556 0.06559 0.69853 0.0
C79 C 0.95674 0.04167 0.56686 0.0
C80 C 0.95513 0.06686 0.53726 0.0
C81 C 0.95562 0.01614 0.68567 0.0
O82 O 1.00985 0.04893 0.84408 0.0
O83 O 0.057 0.04166 0.89897 0.0
O84 O 0.07341 0.99185 0.78139 0.0
O85 O 0.03958 0.01661 0.71576 0.0
O86 O 0.07431 0.00479 0.0236 0.0
O87 O 0.09428 0.9762 0.91997 0.0
O88 O 0.02874 0.95799 0.87733 0.0
O89 O 1.01134 0.96217 0.7487 0.0
O90 O 0.97735 0.99477 0.88739 0.0
O91 O 1.01369 0.00967 0.98496 0.0
C92 C 0.03539 0.05835 0.87988 0.0
O93 O 0.98016 0.00197 0.65823 0.0
O94 O 0.9537 0.01979 0.76647 0.0
C95 C 0.06639 0.00463 0.71965 0.0
C96 C 0.09387 0.96145 0.04609 0.0
C97 C 0.09263 0.91005 0.10099 0.0
C98 C 0.1203 0.92365 0.0967 0.0
C99 C 0.12094 0.94919 0.06839 0.0
C100 C 0.06617 0.94861 0.05518 0.0
C101 C 0.06556 0.92311 0.08213 0.0
C102 C 0.09424 0.98461 1.0004 0.0
C103 C 1.01845 0.94656 0.80342 0.0
H104 H 0.92537 0.1096 0.7097 0.0
H105 H 0.92823 0.06578 0.76169 0.0
H106 H 0.9662 0.02304 0.52695 0.0
H107 H 0.96374 0.06707 0.47552 0.0
H108 H 0.14138 0.91397 0.11176 0.0
H109 H 0.14252 0.95872 0.06071 0.0
H110 H 0.04503 0.95769 0.03791 0.0
H111 H 0.0439 0.91327 0.08667 0.0
Tb112 Tb 0.51641 0.9851 0.75808 0.0
Tb113 Tb 0.53112 0.0364 0.91321 0.0
C114 C 0.53813 0.97306 0.92953 0.0
C115 C 0.48092 0.92049 0.63784 0.0
C116 C 0.43426 0.88135 0.5934 0.0
C117 C 0.4634 0.87595 0.5583 0.0
C118 C 0.48642 0.89563 0.57954 0.0
C119 C 0.45344 0.924 0.68148 0.0
C120 C 0.43029 0.90473 0.65925 0.0
C121 C 0.50205 0.94402 0.64503 0.0
O122 O 0.47882 0.98854 0.84684 0.0
O123 O 0.48189 0.03564 0.89737 0.0
O124 O 0.5242 0.05923 0.81385 0.0
O125 O 0.50705 0.02353 0.70938 0.0
O126 O 0.51668 0.06053 0.02784 0.0
O127 O 0.56078 0.06636 0.97937 0.0
O128 O 0.5752 0.0208 0.85689 0.0
O129 O 0.55991 0.00011 0.72542 0.0
O130 O 0.54152 0.96612 0.84863 0.0
O131 O 0.52859 0.99833 0.96448 0.0
C132 C 0.46651 0.0122 0.88718 0.0
O133 O 0.48949 0.96905 0.655 0.0
O134 O 0.52537 0.94357 0.69372 0.0
C135 C 0.51328 0.05021 0.73885 0.0
C136 C 0.55848 0.06082 0.11804 0.0
C137 C 0.59574 0.02664 0.19742 0.0
C138 C 0.60713 0.05143 0.17729 0.0
C139 C 0.58855 0.06848 0.13775 0.0
C140 C 0.5461 0.03842 0.15003 0.0
C141 C 0.56473 0.02128 0.18878 0.0
C142 C 0.54392 0.06976 0.04589 0.0
C143 C 0.58132 0.01076 0.77753 0.0
H144 H 0.46774 0.85774 0.50955 0.0
H145 H 0.50779 0.89229 0.54649 0.0
H146 H 0.44895 0.94282 0.72804 0.0
H147 H 0.40842 0.90997 0.68835 0.0
H148 H 0.63107 0.05599 0.18389 0.0
H149 H 0.59859 0.08565 0.11409 0.0
H150 H 0.52285 0.03214 0.13716 0.0
H151 H 0.55552 0.00253 0.20558 0.0
Tb152 Tb 0.4982 0.4954 0.88737 0.0
Tb153 Tb 0.55044 0.51822 0.7729 0.0
C154 C 0.48508 0.50167 0.7003 0.0
C155 C 0.45877 0.44959 1.00625 0.0
C156 C 0.45863 0.39805 0.06288 0.0
C157 C 0.43143 0.4099 0.03927 0.0
C158 C 0.43151 0.43552 1.01141 0.0
C159 C 0.48599 0.43775 0.02956 0.0
C160 C 0.48588 0.41232 0.05813 0.0
C161 C 0.45897 0.47526 0.97033 0.0
O162 O 0.52071 0.45817 0.81794 0.0
O163 O 0.56458 0.47467 0.76821 0.0
O164 O 0.56758 0.52414 0.90131 0.0
O165 O 0.54047 0.49169 0.9544 0.0
O166 O 0.57342 0.52016 0.66156 0.0
O167 O 0.58425 0.54838 0.77626 0.0
O168 O 0.5151 0.55011 0.80009 0.0
O169 O 0.49919 0.5411 0.92454 0.0
O170 O 0.47461 0.50424 0.77681 0.0
O171 O 0.51436 0.50211 0.68519 0.0
C172 C 0.5477 0.45413 0.78376 0.0
O173 O 0.47788 0.49482 1.00301 0.0
O174 O 0.45954 0.47079 0.88933 0.0
C175 C 0.56362 0.50863 0.95821 0.0
C176 C 0.58578 0.56741 0.65569 0.0
C177 C 0.58087 0.61823 0.59531 0.0
C178 C 0.60882 0.60944 0.62403 0.0
C179 C 0.61124 0.58423 0.65375 0.0
C180 C 0.55783 0.57601 0.62671 0.0
C181 C 0.55545 0.6011 0.59622 0.0
C182 C 0.58804 0.54269 0.69599 0.0
C183 C 0.50279 0.55857 0.87329 0.0
H184 H 0.41011 0.39943 0.04282 0.0
H185 H 0.41034 0.44417 0.9928 0.0
H186 H 0.50739 0.44795 0.02454 0.0
H187 H 0.50722 0.40351 0.07496 0.0
H188 H 0.62883 0.62208 0.62338 0.0
H189 H 0.63291 0.57813 0.67683 0.0
H190 H 0.53773 0.56363 0.62922 0.0
H191 H 0.53357 0.60747 0.57523 0.0
Tb192 Tb 0.03853 0.53473 0.77138 0.0
Tb193 Tb 1.01786 0.48626 0.869 0.0
C194 C 1.01253 0.55051 0.95225 0.0
C195 C 0.07105 0.55709 0.59796 0.0
C196 C 0.10701 0.5206 0.48259 0.0
C197 C 0.11999 0.54409 0.53393 0.0
C198 C 0.10205 0.56231 0.59141 0.0
C199 C 0.05758 0.53599 0.53785 0.0
C200 C 0.07555 0.51771 0.48101 0.0
C201 C 0.05563 0.56702 0.6783 0.0
O202 O 0.08117 0.51721 0.81214 0.0
O203 O 0.06302 0.49721 0.91776 0.0
O204 O 0.046 0.46481 0.76701 0.0
O205 O 0.03599 0.49541 0.68038 0.0
O206 O 1.01448 0.47106 0.98014 0.0
O207 O 0.99767 0.44687 0.86478 0.0
O208 O 0.98001 0.49237 0.78633 0.0
O209 O 0.98901 0.53777 0.77476 0.0
O210 O 0.03241 0.55661 0.89915 0.0
O211 O 0.99941 0.52583 0.94008 0.0
C212 C 0.08571 0.5066 0.87971 0.0
O213 O 0.02764 0.55931 0.68219 0.0
O214 O 0.07094 0.56294 0.74332 0.0
C215 C 0.0446 0.47035 0.69183 0.0
C216 C 0.96543 0.45451 0.98192 0.0
C217 C 0.91572 0.48716 0.05209 0.0
C218 C 0.93775 0.47819 0.10383 0.0
C219 C 0.9625 0.46183 0.06884 0.0
C220 C 0.94097 0.45992 0.93146 0.0
C221 C 0.91647 0.47653 0.96625 0.0
C222 C 0.99607 0.45131 0.94592 0.0
C223 C 0.97076 0.51619 0.76616 0.0
H224 H 0.14435 0.54667 0.53561 0.0
H225 H 0.11295 0.57842 0.63674 0.0
H226 H 0.03367 0.53153 0.54021 0.0
H227 H 0.06522 0.49996 0.44056 0.0
H228 H 0.93732 0.48594 0.17053 0.0
H229 H 0.981 0.45788 0.10904 0.0
H230 H 0.94221 0.45406 0.8643 0.0
H231 H 0.89918 0.4826 0.9256 0.0
C232 C 0.18323 0.9756 0.33528 0.0
C233 C 0.208 0.99381 0.34821 0.0
C234 C 0.15772 0.97994 0.38809 0.0
C235 C 0.15692 0.00294 0.4567 0.0
C236 C 0.18081 0.02265 0.46594 0.0
C237 C 0.20603 0.01785 0.41173 0.0
C238 C 0.1329 0.95842 0.37433 0.0
C239 C 0.181 0.04761 0.53732 0.0
C240 C 0.0837 0.01876 0.58571 0.0
C241 C 0.08941 0.00483 0.65231 0.0
C242 C 0.10536 0.0186 0.52206 0.0
C243 C 0.13352 0.00412 0.52438 0.0
C244 C 0.13937 0.99013 0.59152 0.0
C245 C 0.11744 0.9907 0.65422 0.0
C246 C 0.09805 0.03381 0.45198 0.0
C247 C 0.16886 0.97425 0.59697 0.0
H248 H 0.18478 0.95673 0.28717 0.0
H249 H 0.2253 0.03168 0.42331 0.0
H250 H 0.13529 0.94448 0.42052 0.0
H251 H 0.11024 0.96883 0.38334 0.0
H252 H 0.13391 0.94509 0.31092 0.0
H253 H 0.19845 0.06313 0.52901 0.0
H254 H 0.15849 0.05838 0.54406 0.0
H255 H 0.18585 0.04021 0.59618 0.0
H256 H 0.06223 0.02979 0.58311 0.0
H257 H 0.12233 0.9798 0.70483 0.0
H258 H 0.09834 0.01862 0.39172 0.0
H259 H 0.11558 0.0497 0.4484 0.0
H260 H 0.07551 0.04458 0.45973 0.0
H261 H 0.17156 0.95724 0.54117 0.0
H262 H 0.17014 0.96467 0.65336 0.0
H263 H 0.18821 0.98867 0.59798 0.0
C264 C 0.48108 0.17036 0.46816 0.0
C265 C 0.5084 0.18448 0.46481 0.0
C266 C 0.47995 0.14601 0.50313 0.0
C267 C 0.50684 0.13542 0.53446 0.0
C268 C 0.53478 0.14859 0.52601 0.0
C269 C 0.53517 0.17308 0.49193 0.0
C270 C 0.4497 0.13273 0.51142 0.0
C271 C 0.56406 0.13777 0.55723 0.0
C272 C 0.50423 0.09982 0.72139 0.0
C273 C 0.50862 0.0713 0.68497 0.0
C274 C 0.50237 0.12064 0.6726 0.0
C275 C 0.50547 0.1129 0.58502 0.0
C276 C 0.50907 0.08405 0.54746 0.0
C277 C 0.51036 0.06353 0.59792 0.0
C278 C 0.49802 0.15108 0.71525 0.0
C279 C 0.51282 0.07498 0.45445 0.0
H280 H 0.46032 0.17925 0.44771 0.0
H281 H 0.55635 0.18385 0.48863 0.0
H282 H 0.45129 0.10952 0.49042 0.0
H283 H 0.44287 0.13693 0.5779 0.0
H284 H 0.43167 0.14119 0.475 0.0
H285 H 0.58416 0.14827 0.53721 0.0
H286 H 0.56379 0.14156 0.62629 0.0
H287 H 0.56655 0.11468 0.53449 0.0
H288 H 0.50254 0.10596 0.78855 0.0
H289 H 0.51393 0.04154 0.56941 0.0
H290 H 0.47863 0.16077 0.68706 0.0
H291 H 0.5185 0.16316 0.70645 0.0
H292 H 0.49384 0.15336 0.78312 0.0
H293 H 0.49446 0.08425 0.42126 0.0
H294 H 0.51273 0.05168 0.43422 0.0
H295 H 0.5346 0.08289 0.43515 0.0
C296 C 0.35463 0.50349 0.34973 0.0
C297 C 0.35093 0.4761 0.30356 0.0
C298 C 0.37843 0.50973 0.40835 0.0
C299 C 0.39898 0.48806 0.42168 0.0
C300 C 0.39653 0.4609 0.37075 0.0
C301 C 0.37272 0.45533 0.31258 0.0
C302 C 0.3804 0.53912 0.45974 0.0
C303 C 0.41773 0.43703 0.38172 0.0
C304 C 0.47194 0.50357 0.55054 0.0
C305 C 0.46304 0.4989 0.62913 0.0
C306 C 0.4513 0.50087 0.4832 0.0
C307 C 0.421 0.49283 0.49369 0.0
C308 C 0.41193 0.48815 0.57293 0.0
C309 C 0.43286 0.49145 0.63942 0.0
C310 C 0.46198 0.50648 0.40059 0.0
C311 C 0.38012 0.47911 0.58723 0.0
H312 H 0.33777 0.51959 0.34411 0.0
H313 H 0.37002 0.43408 0.27728 0.0
H314 H 0.37314 0.539 0.52447 0.0
H315 H 0.40414 0.54647 0.46256 0.0
H316 H 0.36578 0.55441 0.43444 0.0
H317 H 0.41501 0.41813 0.33159 0.0
H318 H 0.44165 0.44375 0.3825 0.0
H319 H 0.41318 0.43098 0.44247 0.0
H320 H 0.49507 0.50954 0.54163 0.0
H321 H 0.42563 0.48765 0.69942 0.0
H322 H 0.44697 0.52248 0.38003 0.0
H323 H 0.46068 0.48693 0.35247 0.0
H324 H 0.48566 0.51406 0.4035 0.0
H325 H 0.36347 0.49488 0.5725 0.0
H326 H 0.37645 0.47655 0.65243 0.0
H327 H 0.37541 0.45876 0.54492 0.0
C328 C 1.00963 0.33751 0.36377 0.0
C329 C 0.03342 0.32192 0.31952 0.0
C330 C 1.0144 0.36433 0.41212 0.0
C331 C 0.04371 0.37604 0.41585 0.0
C332 C 0.06705 0.36159 0.36443 0.0
C333 C 0.06167 0.33452 0.31703 0.0
C334 C 0.98866 0.37897 0.46494 0.0
C335 C 0.09835 0.37355 0.36433 0.0
C336 C 0.04351 0.4514 0.53755 0.0
C337 C 0.04951 0.44716 0.61863 0.0
C338 C 0.04406 0.42874 0.46907 0.0
C339 C 0.0503 0.40111 0.48215 0.0
C340 C 0.05836 0.39703 0.56295 0.0
C341 C 0.05798 0.42007 0.63001 0.0
C342 C 0.03633 0.4341 0.38354 0.0
C343 C 0.06539 0.36796 0.57977 0.0
H344 H 0.98769 0.32783 0.36504 0.0
H345 H 0.08012 0.32246 0.28296 0.0
H346 H 0.99358 0.37914 0.5316 0.0
H347 H 0.98629 0.40122 0.45748 0.0
H348 H 0.96668 0.36838 0.4489 0.0
H349 H 0.1113 0.36361 0.3079 0.0
H350 H 0.09726 0.39668 0.36762 0.0
H351 H 0.11095 0.36949 0.4197 0.0
H352 H 0.0371 0.47224 0.52787 0.0
H353 H 0.06305 0.41657 0.69209 0.0
H354 H 1.01464 0.42387 0.36202 0.0
H355 H 0.05406 0.42463 0.33833 0.0
H356 H 0.03414 0.45695 0.38259 0.0
H357 H 0.04462 0.35509 0.57051 0.0
H358 H 0.07378 0.36862 0.64421 0.0
H359 H 0.08271 0.35713 0.53539 0.0
C360 C 0.8516 0.01708 0.31204 0.0
C361 C 0.84819 0.99093 0.33575 0.0
C362 C 0.87577 0.0217 0.25995 0.0
C363 C 0.89701 0.99962 0.23043 0.0
C364 C 0.89478 0.97392 0.25936 0.0
C365 C 0.87048 0.9699 0.31117 0.0
C366 C 0.87732 0.04957 0.23189 0.0
C367 C 0.91681 0.94979 0.23074 0.0
C368 C 0.933 0.99378 0.01488 0.0
C369 C 0.96276 0.00282 0.03388 0.0
C370 C 0.91144 0.99324 0.07795 0.0
C371 C 0.91949 0.00205 0.16298 0.0
C372 C 0.94933 0.01167 0.18273 0.0
C373 C 0.97053 0.01187 0.11827 0.0
C374 C 0.88003 0.98275 0.0534 0.0
C375 C 0.95899 0.02141 0.27213 0.0
H376 H 0.83421 0.03324 0.32933 0.0
H377 H 0.8678 0.94952 0.32839 0.0
H378 H 0.9008 0.05756 0.23737 0.0
H379 H 0.87073 0.04665 0.1653 0.0
H380 H 0.86196 0.06574 0.26857 0.0
H381 H 0.91407 0.93243 0.26561 0.0
H382 H 0.91318 0.9412 0.16354 0.0
H383 H 0.94049 0.95721 0.23828 0.0
H384 H 0.92652 0.9868 0.95034 0.0
H385 H 0.99332 0.01903 0.13426 0.0
H386 H 0.86281 0.99894 0.08006 0.0
H387 H 0.8756 0.9636 0.07915 0.0
H388 H 0.87693 0.97754 0.98477 0.0
H389 H 0.94339 0.03831 0.30388 0.0
H390 H 0.98248 0.02948 0.27734 0.0
H391 H 0.95768 0.00368 0.30596 0.0
C392 C 0.51339 0.84251 0.13767 0.0
C393 C 0.53757 0.83351 0.18262 0.0
C394 C 0.51498 0.86742 0.1061 0.0
C395 C 0.54127 0.88408 0.12055 0.0
C396 C 0.56472 0.8763 0.17152 0.0
C397 C 0.56271 0.85098 0.20142 0.0
C398 C 0.4891 0.87513 0.05359 0.0
C399 C 0.5929 0.89351 0.19083 0.0
C400 C 0.55549 0.92495 0.94848 0.0
C401 C 0.54246 0.95136 0.98184 0.0
C402 C 0.55684 0.90337 0.99497 0.0
C403 C 0.54472 0.9082 0.07664 0.0
C404 C 0.53308 0.93527 0.11227 0.0
C405 C 0.53196 0.95646 0.06439 0.0
C406 C 0.57027 0.87502 0.95561 0.0
C407 C 0.52079 0.94153 0.19992 0.0
H408 H 0.49356 0.82945 0.12453 0.0
H409 H 0.58156 0.84422 0.23587 0.0
H410 H 0.4814 0.89719 0.07719 0.0
H411 H 0.49692 0.87378 0.98857 0.0
H412 H 0.46945 0.86103 0.0529 0.0
H413 H 0.60228 0.89146 0.2525 0.0
H414 H 0.6103 0.88535 0.14315 0.0
H415 H 0.5887 0.91618 0.19062 0.0
H416 H 0.56403 0.92089 0.88522 0.0
H417 H 0.5218 0.97675 0.09089 0.0
H418 H 0.55239 0.85884 0.94786 0.0
H419 H 0.588 0.86865 0.99689 0.0
H420 H 0.58045 0.87514 0.89374 0.0
H421 H 0.50056 0.92854 0.20389 0.0
H422 H 0.51429 0.96411 0.22046 0.0
H423 H 0.53798 0.93581 0.24374 0.0
C424 C 0.67096 0.54912 0.36286 0.0
C425 C 0.69751 0.53237 0.35594 0.0
C426 C 0.64693 0.54296 0.30531 0.0
C427 C 0.64954 0.51968 0.23778 0.0
C428 C 0.67533 0.5015 0.23429 0.0
C429 C 0.6989 0.50803 0.29332 0.0
C430 C 0.61986 0.5628 0.31312 0.0
C431 C 0.67932 0.47645 0.16402 0.0
C432 C 0.58073 0.49711 0.09643 0.0
C433 C 0.58562 0.51099 0.02966 0.0
C434 C 0.60114 0.49968 0.16438 0.0
C435 C 0.62734 0.51639 0.16607 0.0
C436 C 0.63245 0.5303 0.09866 0.0
C437 C 0.61164 0.52751 0.03191 0.0
C438 C 0.59453 0.48463 0.23474 0.0
C439 C 0.66001 0.54828 0.09701 0.0
H440 H 0.66995 0.5683 0.40988 0.0
H441 H 0.71962 0.49541 0.28601 0.0
H442 H 0.62122 0.57602 0.26494 0.0
H443 H 0.5985 0.55085 0.30256 0.0
H444 H 0.61881 0.57697 0.37527 0.0
H445 H 0.69822 0.46229 0.17605 0.0
H446 H 0.65821 0.46412 0.15382 0.0
H447 H 0.68424 0.48395 0.10561 0.0
H448 H 0.56077 0.48433 0.09605 0.0
H449 H 0.61589 0.53835 0.98113 0.0
H450 H 0.59236 0.50017 0.29403 0.0
H451 H 0.61364 0.47013 0.2424 0.0
H452 H 0.57338 0.47229 0.22423 0.0
H453 H 0.65988 0.56578 0.15202 0.0
H454 H 0.66103 0.55741 0.03984 0.0
H455 H 0.68093 0.53551 0.10063 0.0
C456 C 1.00944 0.6637 0.37456 0.0
C457 C 0.99089 0.68665 0.36504 0.0
C458 C 1.00777 0.63789 0.31763 0.0
C459 C 0.98733 0.63526 0.24951 0.0
C460 C 0.96603 0.65726 0.24627 0.0
C461 C 0.96818 0.68278 0.30389 0.0
C462 C 0.03014 0.61458 0.32511 0.0
C463 C 0.94329 0.65514 0.17626 0.0
C464 C 1.0194 0.59822 0.04132 0.0
C465 C 1.00496 0.57211 0.02764 0.0
C466 C 1.01364 0.6187 0.113 0.0
C467 C 0.99286 0.61313 0.17336 0.0
C468 C 0.9777 0.587 0.15958 0.0
C469 C 0.98405 0.56674 0.08705 0.0
C470 C 0.03 0.64642 0.12406 0.0
C471 C 0.95537 0.58003 0.22188 0.0
H472 H 0.02713 0.66674 0.42148 0.0
H473 H 0.9539 0.70061 0.29642 0.0
H474 H 1.01902 0.59378 0.3112 0.0
H475 H 0.04861 0.61425 0.27909 0.0
H476 H 0.04039 0.61757 0.38828 0.0
H477 H 0.92516 0.67159 0.19035 0.0
H478 H 0.95506 0.65783 0.11859 0.0
H479 H 0.93269 0.63409 0.16366 0.0
H480 H 0.03552 0.60272 0.99607 0.0
H481 H 0.97274 0.54662 0.07733 0.0
H482 H 0.0439 0.64946 0.18167 0.0
H483 H 1.01334 0.66418 0.13088 0.0
H484 H 0.04511 0.64759 0.07077 0.0
H485 H 0.96803 0.57325 0.27351 0.0
H486 H 0.94022 0.56265 0.19337 0.0
H487 H 0.94123 0.59869 0.24924 0.0
C488 C 0.97839 0.23525 0.42581 0.0
C489 C 1.00667 0.22935 0.38733 0.0
C490 C 0.9654 0.21615 0.46947 0.0
C491 C 0.98129 0.19086 0.47468 0.0
C492 C 1.01079 0.18591 0.44087 0.0
C493 C 0.02307 0.20519 0.39714 0.0
C494 C 0.9341 0.22223 0.50596 0.0
C495 C 0.02874 0.15948 0.44686 0.0
C496 C 0.96183 0.1418 0.61962 0.0
C497 C 0.94882 0.11936 0.56389 0.0
C498 C 0.97057 0.16634 0.59305 0.0
C499 C 0.96642 0.16828 0.50864 0.0
C500 C 0.95139 0.14655 0.45357 0.0
C501 C 0.94276 0.1223 0.48193 0.0
C502 C 0.98637 0.189 0.65405 0.0
C503 C 0.94623 0.14804 0.36323 0.0
H504 H 0.96573 0.25395 0.41767 0.0
H505 H 0.04506 0.20086 0.36766 0.0
H506 H 0.91784 0.20723 0.47033 0.0
H507 H 0.93378 0.21916 0.5714 0.0
H508 H 0.92617 0.24405 0.50429 0.0
H509 H 0.05219 0.15989 0.42274 0.0
H510 H 0.02994 0.15673 0.51254 0.0
H511 H 1.01722 0.14081 0.41053 0.0
H512 H 0.96686 0.13958 0.68293 0.0
H513 H 0.93229 0.10517 0.43912 0.0
H514 H 0.98182 0.21029 0.64048 0.0
H515 H 1.0112 0.18495 0.64984 0.0
H516 H 0.97926 0.18895 0.71904 0.0
H517 H 0.93592 0.1687 0.35788 0.0
H518 H 0.93131 0.131 0.33123 0.0
H519 H 0.96831 0.14611 0.33023 0.0
C520 C 0.28741 0.9023 0.3516 0.0
C521 C 0.29586 0.93057 0.36231 0.0
C522 C 0.30473 0.88302 0.38763 0.0
C523 C 0.33045 0.89267 0.43647 0.0
C524 C 0.33775 0.92172 0.45098 0.0
C525 C 0.32045 0.94015 0.41326 0.0
C526 C 0.29554 0.85254 0.37282 0.0
C527 C 0.36462 0.93336 0.50363 0.0
C528 C 0.37939 0.86807 0.59204 0.0
C529 C 0.40695 0.86798 0.54917 0.0
C530 C 0.35175 0.87092 0.55138 0.0
C531 C 0.35212 0.87298 0.46646 0.0
C532 C 0.3788 0.86531 0.41954 0.0
C533 C 0.40617 0.86311 0.46165 0.0
C534 C 0.32319 0.87676 0.60226 0.0
C535 C 0.37967 0.86502 0.32725 0.0
H536 H 0.26799 0.89514 0.31293 0.0
H537 H 0.32648 0.96221 0.4223 0.0
H538 H 0.31554 0.83806 0.36561 0.0
H539 H 0.28244 0.84887 0.42731 0.0
H540 H 0.28094 0.84704 0.31673 0.0
H541 H 0.366 0.95667 0.51178 0.0
H542 H 0.36324 0.92791 0.56624 0.0
H543 H 0.38596 0.92401 0.47403 0.0
H544 H 0.37954 0.86976 0.65904 0.0
H545 H 0.42699 0.86174 0.42627 0.0
H546 H 0.30317 0.86827 0.56506 0.0
H547 H 0.31982 0.89991 0.62183 0.0
H548 H 0.32458 0.86746 0.65916 0.0
H549 H 0.35839 0.85655 0.29656 0.0
H550 H 0.39916 0.8522 0.2971 0.0
H551 H 0.38214 0.88694 0.31718 0.0
C552 C 0.51034 0.31139 0.55541 0.0
C553 C 0.5299 0.28784 0.53952 0.0
C554 C 0.51962 0.33693 0.6034 0.0
C555 C 0.54915 0.33896 0.63801 0.0
C556 C 0.56854 0.31483 0.62617 0.0
C557 C 0.55868 0.28943 0.57652 0.0
C558 C 0.49799 0.362 0.6148 0.0
C559 C 0.59994 0.31609 0.66331 0.0
C560 C 0.57007 0.41553 0.67684 0.0
C561 C 0.55756 0.42457 0.75607 0.0
C562 C 0.57081 0.38674 0.64011 0.0
C563 C 0.55915 0.36682 0.68454 0.0
C564 C 0.55029 0.3757 0.76861 0.0
C565 C 0.54927 0.40456 0.80311 0.0
C566 C 0.58054 0.37813 0.5504 0.0
C567 C 0.53848 0.35515 0.81904 0.0
H568 H 0.48782 0.30999 0.52822 0.0
H569 H 0.57381 0.2712 0.56425 0.0
H570 H 0.49372 0.37 0.68202 0.0
H571 H 0.50814 0.37936 0.58921 0.0
H572 H 0.47587 0.35677 0.58341 0.0
H573 H 0.61003 0.29471 0.66061 0.0
H574 H 0.61486 0.32791 0.6284 0.0
H575 H 0.59956 0.32743 0.72909 0.0
H576 H 0.57651 0.43102 0.64056 0.0
H577 H 0.54003 0.41161 0.86511 0.0
H578 H 0.56011 0.3742 0.51023 0.0
H579 H 0.5942 0.35831 0.54084 0.0
H580 H 0.59395 0.39476 0.52979 0.0
H581 H 0.51466 0.35004 0.80087 0.0
H582 H 0.53896 0.36411 0.88689 0.0
H583 H 0.5519 0.33517 0.8069 0.0
C584 C 0.2299 0.41092 0.27118 0.0
C585 C 0.25493 0.4256 0.31017 0.0
C586 C 0.20097 0.41624 0.30642 0.0
C587 C 0.19796 0.43545 0.38299 0.0
C588 C 0.22405 0.44324 0.43206 0.0
C589 C 0.2526 0.438 0.39488 0.0
C590 C 0.17365 0.40578 0.2547 0.0
C591 C 0.22188 0.46214 0.51682 0.0
C592 C 0.14915 0.50059 0.3884 0.0
C593 C 0.12658 0.49676 0.44421 0.0
C594 C 0.17129 0.47966 0.36336 0.0
C595 C 0.17109 0.4546 0.39682 0.0
C596 C 0.14725 0.45006 0.44985 0.0
C597 C 0.1251 0.47125 0.47262 0.0
C598 C 0.19585 0.4852 0.30472 0.0
C599 C 0.14613 0.42401 0.48765 0.0
H600 H 0.23195 0.39968 0.20728 0.0
H601 H 0.27203 0.44819 0.42775 0.0
H602 H 0.154 0.40332 0.29456 0.0
H603 H 0.16721 0.42131 0.21556 0.0
H604 H 0.17873 0.3853 0.21262 0.0
H605 H 0.24295 0.46102 0.55354 0.0
H606 H 0.21839 0.4843 0.50916 0.0
H607 H 0.20243 0.45643 0.55239 0.0
H608 H 0.15003 0.5204 0.36678 0.0
H609 H 0.1077 0.46859 0.5169 0.0
H610 H 0.19707 0.46772 0.24984 0.0
H611 H 0.21818 0.48639 0.33647 0.0
H612 H 0.19187 0.50521 0.28223 0.0
H613 H 0.15562 0.40524 0.44498 0.0
H614 H 0.12257 0.41966 0.50454 0.0
H615 H 0.15975 0.42737 0.54572 0.0
C616 C 0.06064 0.76718 0.26786 0.0
C617 C 0.03478 0.77588 0.31589 0.0
C618 C 0.07439 0.78545 0.22255 0.0
C619 C 0.06168 0.81272 0.22548 0.0
C620 C 0.03472 0.82094 0.27091 0.0
C621 C 1.02166 0.80241 0.31573 0.0
C622 C 0.10296 0.77602 0.1741 0.0
C623 C 1.02013 0.84967 0.27447 0.0
C624 C 0.10325 0.87788 0.19995 0.0
C625 C 0.09124 0.88212 0.12408 0.0
C626 C 0.09611 0.85365 0.23068 0.0
C627 C 0.07666 0.83343 0.18393 0.0
C628 C 0.06714 0.83636 0.10339 0.0
C629 C 0.07448 0.8608 0.07453 0.0
C630 C 0.10696 0.85109 0.31653 0.0
C631 C 0.04667 0.81527 0.05088 0.0
H632 H 0.07077 0.74664 0.26862 0.0
H633 H 1.00149 0.80891 0.35257 0.0
H634 H 0.10061 0.77932 0.10914 0.0
H635 H 0.1222 0.78894 0.20263 0.0
H636 H 0.10857 0.75345 0.1728 0.0
H637 H 0.99861 0.85228 0.31032 0.0
H638 H 0.03588 0.86632 0.30407 0.0
H639 H 1.01532 0.8531 0.21057 0.0
H640 H 0.11632 0.89438 0.23793 0.0
H641 H 0.06568 0.86397 0.01497 0.0
H642 H 0.11494 0.82926 0.31722 0.0
H643 H 0.08784 0.85594 0.36113 0.0
H644 H 0.1256 0.86587 0.33865 0.0
H645 H 0.05151 0.79349 0.06006 0.0
H646 H 0.04901 0.81578 0.98365 0.0
H647 H 0.02276 0.82062 0.06902 0.0
C648 C 0.74787 0.95417 0.19789 0.0
C649 C 0.7515 0.94138 0.26733 0.0
C650 C 0.71885 0.95785 0.16636 0.0
C651 C 0.6936 0.94838 0.2056 0.0
C652 C 0.69823 0.92933 0.26013 0.0
C653 C 0.72762 0.92543 0.28919 0.0
C654 C 0.715 0.97669 0.10346 0.0
C655 C 0.67198 0.91747 0.29983 0.0
C656 C 0.63955 0.00989 0.27148 0.0
C657 C 0.61703 0.00417 0.2108 0.0
C658 C 0.66355 0.99077 0.27353 0.0
C659 C 0.66525 0.96557 0.2121 0.0
C660 C 0.64155 0.95899 0.1535 0.0
C661 C 0.61752 0.97837 0.15397 0.0
C662 C 0.68809 0.99853 0.33832 0.0
C663 C 0.64255 0.9328 0.08616 0.0
H664 H 0.76647 0.96554 0.1776 0.0
H665 H 0.73076 0.91418 0.33993 0.0
H666 H 0.69576 0.96987 0.06097 0.0
H667 H 0.71012 0.9986 0.13664 0.0
H668 H 0.73587 0.97685 0.06587 0.0
H669 H 0.67858 0.89753 0.31993 0.0
H670 H 0.66452 0.93293 0.35571 0.0
H671 H 0.65254 0.91352 0.25632 0.0
H672 H 0.63898 0.02988 0.31513 0.0
H673 H 0.60018 0.97418 0.10618 0.0
H674 H 0.70966 0.00211 0.30767 0.0
H675 H 0.69206 0.98107 0.3723 0.0
H676 H 0.68227 0.01793 0.3844 0.0
H677 H 0.65401 0.91491 0.10775 0.0
H678 H 0.65539 0.9372 0.03215 0.0
H679 H 0.61941 0.92644 0.0639 0.0
C680 C 0.49303 0.72534 0.05803 0.0
C681 C 0.52305 0.72999 0.08435 0.0
C682 C 0.48458 0.69906 1.01129 0.0
C683 C 0.50676 0.67728 0.99144 0.0
C684 C 0.53752 0.68285 1.01227 0.0
C685 C 0.54526 0.70919 0.0586 0.0
C686 C 0.4517 0.69401 0.98865 0.0
C687 C 0.56197 0.66033 0.99156 0.0
C688 C 0.4918 0.6004 0.98542 0.0
C689 C 0.4966 0.58906 0.901 0.0
C690 C 0.4925 0.62961 0.01494 0.0
C691 C 0.49791 0.64778 0.9584 0.0
C692 C 0.49987 0.63662 0.87211 0.0
C693 C 0.49927 0.60733 0.8444 0.0
C694 C 0.49025 0.64074 0.10758 0.0
C695 C 0.50523 0.65528 0.80971 0.0
H696 H 0.47592 0.74153 0.07856 0.0
H697 H 0.56849 0.71304 0.07913 0.0
H698 H 0.44945 0.68183 0.92414 0.0
H699 H 0.44152 0.68139 0.031 0.0
H700 H 0.43856 0.7141 0.99425 0.0
H701 H 0.58502 0.66883 1.00601 0.0
H702 H 0.55823 0.64354 0.02789 0.0
H703 H 0.56106 0.65037 0.92461 0.0
H704 H 0.48949 0.58644 0.02938 0.0
H705 H 0.50252 0.59875 0.77869 0.0
H706 H 0.47444 0.65914 0.1208 0.0
H707 H 0.51285 0.64798 0.13221 0.0
H708 H 0.48241 0.62445 0.14175 0.0
H709 H 0.49161 0.6751 0.82517 0.0
H710 H 0.49963 0.64445 0.74528 0.0
H711 H 0.52947 0.66107 0.8112 0.0
C712 C 0.81252 0.59955 0.32497 0.0
C713 C 0.78416 0.58692 0.30719 0.0
C714 C 0.83611 0.59337 0.26673 0.0
C715 C 0.83037 0.57508 0.19011 0.0
C716 C 0.80013 0.56997 0.16392 0.0
C717 C 0.77705 0.57606 0.22324 0.0
C718 C 0.86794 0.60186 0.29275 0.0
C719 C 0.7928 0.55279 0.07922 0.0
C720 C 0.89164 0.5342 0.05272 0.0
C721 C 0.89391 0.50971 0.08658 0.0
C722 C 0.8717 0.5563 0.0867 0.0
C723 C 0.85367 0.55358 0.1558 0.0
C724 C 0.85635 0.52888 0.19067 0.0
C725 C 0.87659 0.50735 0.15572 0.0
C726 C 0.87084 0.58255 0.04962 0.0
C727 C 0.83773 0.52485 0.26467 0.0
H728 H 0.81766 0.61022 0.38793 0.0
H729 H 0.75483 0.56773 0.20583 0.0
H730 H 0.88118 0.60578 0.23873 0.0
H731 H 0.868 0.62108 0.34256 0.0
H732 H 0.87939 0.58449 0.31711 0.0
H733 H 0.769 0.55653 0.0611 0.0
H734 H 0.80825 0.55782 0.03104 0.0
H735 H 0.79569 0.53004 0.08082 0.0
H736 H 0.90588 0.53627 1.00046 0.0
H737 H 0.87867 0.48843 0.18186 0.0
H738 H 0.88832 0.59721 0.08075 0.0
H739 H 0.84856 0.5937 0.05817 0.0
H740 H 0.87623 0.57749 0.98206 0.0
H741 H 0.84276 0.54167 0.31918 0.0
H742 H 0.84242 0.50415 0.28245 0.0
H743 H 0.8132 0.52614 0.25053 0.0
C744 C 0.06302 0.22076 0.07007 0.0
C745 C 0.03459 0.2315 0.0994 0.0
C746 C 0.06547 0.19504 0.01266 0.0
C747 C 0.03899 0.17943 0.98748 0.0
C748 C 1.01021 0.19219 1.00821 0.0
C749 C 1.00841 0.21839 0.06279 0.0
C750 C 0.09647 0.18321 0.98599 0.0
C751 C 0.98132 0.17663 0.98197 0.0
C752 C 0.03571 0.10668 0.84647 0.0
C753 C 0.03898 0.08908 0.90474 0.0
C754 C 0.03761 0.13616 0.87105 0.0
C755 C 0.04119 0.14828 0.95662 0.0
C756 C 0.04448 0.13034 0.01546 0.0
C757 C 0.04408 0.10097 0.98837 0.0
C758 C 0.03485 0.15395 0.80509 0.0
C759 C 0.04694 0.14211 0.10779 0.0
H760 H 0.08331 0.23084 0.09822 0.0
H761 H 0.98643 0.22675 0.08577 0.0
H762 H 0.10355 0.1678 0.02483 0.0
H763 H 0.09612 0.172 0.92002 0.0
H764 H 0.11363 0.20007 0.99334 0.0
H765 H 0.96081 0.19009 0.99951 0.0
H766 H 0.98111 0.16896 0.91365 0.0
H767 H 0.98003 0.15795 1.0119 0.0
H768 H 0.03181 0.09737 0.78156 0.0
H769 H 0.04627 0.08725 0.0333 0.0
H770 H 0.04448 0.17524 0.8253 0.0
H771 H 1.01058 0.15628 0.78968 0.0
H772 H 0.04641 0.14335 0.74696 0.0
H773 H 0.06762 0.15492 0.12098 0.0
H774 H 0.0479 0.12528 0.14537 0.0
H775 H 0.02718 0.15617 0.1288 0.0
C776 C 0.3014 1.00005 0.09975 0.0
C777 C 0.30664 0.00093 0.18484 0.0
C778 C 0.32508 0.00502 0.04639 0.0
C779 C 0.35485 0.01053 0.07846 0.0
C780 C 0.35961 0.01319 0.16532 0.0
C781 C 0.33554 0.00864 0.21708 0.0
C782 C 0.31861 0.00269 0.95481 0.0
C783 C 0.39074 0.01871 0.20307 0.0
C784 C 0.42446 0.98624 0.9423 0.0
C785 C 0.43637 0.0118 0.92912 0.0
C786 C 0.39765 0.98553 0.98852 0.0
C787 C 0.38163 0.01094 0.02147 0.0
C788 C 0.39282 0.0367 1.00531 0.0
C789 C 0.42013 0.03687 0.96043 0.0
C790 C 0.38715 0.95756 1.005 0.0
C791 C 0.37632 0.06424 0.03721 0.0
H792 H 0.27936 0.99371 0.0739 0.0
H793 H 0.33987 0.00913 0.28263 0.0
H794 H 0.32922 0.02024 0.93114 0.0
H795 H 0.32855 0.98268 0.91972 0.0
H796 H 0.29389 0.00292 0.9417 0.0
H797 H 0.39032 0.02216 0.27217 0.0
H798 H 0.40598 0.00043 0.17952 0.0
H799 H 0.40067 0.03746 0.18438 0.0
H800 H 0.43672 0.96671 0.919 0.0
H801 H 0.42889 0.05676 0.95047 0.0
H802 H 0.36333 0.95396 0.98432 0.0
H803 H 0.38784 0.9578 0.07293 0.0
H804 H 0.4014 0.9396 0.97278 0.0
H805 H 0.35191 0.06235 0.02084 0.0
H806 H 0.38582 0.08191 1.01158 0.0
H807 H 0.3779 0.06953 0.1061 0.0
C808 C 0.49748 0.25449 0.20651 0.0
C809 C 0.47941 0.25171 0.2744 0.0
C810 C 0.4898 0.2742 0.15679 0.0
C811 C 0.46366 0.29162 0.1765 0.0
C812 C 0.44332 0.28609 0.23785 0.0
C813 C 0.45145 0.26606 0.28605 0.0
C814 C 0.5118 0.27893 0.09075 0.0
C815 C 0.4151 0.30393 0.26071 0.0
C816 C 0.47459 0.36849 0.16533 0.0
C817 C 0.4588 0.37091 0.09259 0.0
C818 C 0.4759 0.34289 0.19345 0.0
C819 C 0.46129 0.31892 0.14719 0.0
C820 C 0.44502 0.32127 0.07403 0.0
C821 C 0.44384 0.34732 0.04777 0.0
C822 C 0.49312 0.34151 0.27268 0.0
C823 C 0.42937 0.2962 0.02288 0.0
H824 H 0.51933 0.24369 0.19836 0.0
H825 H 0.43773 0.26422 0.33951 0.0
H826 H 0.49962 0.28344 0.03525 0.0
H827 H 0.52589 0.29746 0.1159 0.0
H828 H 0.52713 0.26038 0.07117 0.0
H829 H 0.39882 0.29343 0.29586 0.0
H830 H 0.42146 0.32431 0.30052 0.0
H831 H 0.40364 0.30868 0.20447 0.0
H832 H 0.48582 0.38678 0.20065 0.0
H833 H 0.4318 0.3491 0.9911 0.0
H834 H 0.51203 0.32588 0.25924 0.0
H835 H 0.47797 0.33442 0.31823 0.0
H836 H 0.50264 0.36219 0.30211 0.0
H837 H 0.44646 0.27975 0.9972 0.0
H838 H 0.41619 0.3019 0.9704 0.0
H839 H 0.41385 0.28674 0.06259 0.0
C840 C 0.25346 0.46936 0.02812 0.0
C841 C 0.26109 0.48557 0.10612 0.0
C842 C 0.22714 0.47531 0.98489 0.0
C843 C 0.20773 0.4982 0.01996 0.0
C844 C 0.21676 0.51611 0.09523 0.0
C845 C 0.24315 0.5095 0.13753 0.0
C846 C 0.2186 0.45531 0.90574 0.0
C847 C 0.19726 0.54099 0.13477 0.0
C848 C 0.14183 0.51822 0.88599 0.0
C849 C 0.11717 0.50463 0.91437 0.0
C850 C 0.17123 0.51677 0.92029 0.0
C851 C 0.17646 0.50102 0.98396 0.0
C852 C 0.15166 0.48715 1.01239 0.0
C853 C 0.12254 0.48928 0.97794 0.0
C854 C 0.19672 0.5322 0.88862 0.0
C855 C 0.1558 0.47002 0.07976 0.0
H856 H 0.26661 0.45035 1.00458 0.0
H857 H 0.24822 0.52162 0.19886 0.0
H858 H 0.19922 0.44242 0.91837 0.0
H859 H 0.21125 0.46712 0.8572 0.0
H860 H 0.23765 0.44085 0.88086 0.0
H861 H 0.20936 0.55517 0.18559 0.0
H862 H 0.1898 0.5533 0.0875 0.0
H863 H 0.17662 0.53337 0.16126 0.0
H864 H 0.13813 0.5303 0.83743 0.0
H865 H 0.1039 0.47863 1.00083 0.0
H866 H 0.21478 0.51699 0.86138 0.0
H867 H 0.20703 0.54711 0.9411 0.0
H868 H 0.18898 0.54415 0.84064 0.0
H869 H 0.17449 0.4543 0.06334 0.0
H870 H 0.13492 0.45873 0.09056 0.0
H871 H 0.1621 0.48413 0.13895 0.0
C872 C 0.9774 0.78697 0.62295 0.0
C873 C 1.0045 0.77194 0.60061 0.0
C874 C 0.97761 0.81336 0.67746 0.0
C875 C 1.0056 0.825 0.70859 0.0
C876 C 0.03218 0.80787 0.69642 0.0
C877 C 0.0312 0.78133 0.64321 0.0
C878 C 0.94847 0.83028 0.69272 0.0
C879 C 0.06247 0.81907 0.72939 0.0
C880 C 1.0152 0.90213 0.69679 0.0
C881 C 1.01491 0.91551 0.78074 0.0
C882 C 1.01238 0.8728 0.67326 0.0
C883 C 1.00835 0.85627 0.73511 0.0
C884 C 1.00778 0.86966 0.82021 0.0
C885 C 1.01135 0.89911 0.84205 0.0
C886 C 1.0142 0.85946 0.58181 0.0
C887 C 1.00259 0.85318 0.88818 0.0
H888 H 0.95673 0.77988 0.58995 0.0
H889 H 0.05222 0.7698 0.62562 0.0
H890 H 0.94752 0.8423 0.75774 0.0
H891 H 0.94732 0.84568 0.65053 0.0
H892 H 0.92836 0.81656 0.6807 0.0
H893 H 0.07969 0.8019 0.72699 0.0
H894 H 0.07068 0.834 0.69106 0.0
H895 H 0.06047 0.83076 0.79455 0.0
H896 H 1.01825 0.9146 0.64915 0.0
H897 H 1.01084 0.90935 0.90713 0.0
H898 H 0.99289 0.84832 0.56144 0.0
H899 H 0.03295 0.84359 0.57126 0.0
H900 H 1.01808 0.87519 0.54184 0.0
H901 H 0.97806 0.84882 0.8911 0.0
H902 H 1.00975 0.86508 0.9501 0.0
H903 H 1.01482 0.83258 0.87538 0.0
C904 C 0.73869 0.02312 0.53734 0.0
C905 C 0.75826 0.00026 0.54202 0.0
C906 C 0.71211 0.02826 0.58632 0.0
C907 C 0.70452 0.00992 0.64096 0.0
C908 C 0.72557 0.98829 0.65097 0.0
C909 C 0.75205 0.98379 0.6017 0.0
C910 C 0.69083 0.05187 0.57415 0.0
C911 C 0.71864 0.9679 0.70717 0.0
C912 C 0.6365 0.02583 0.79121 0.0
C913 C 0.61316 0.01066 0.74471 0.0
C914 C 0.66617 0.02611 0.75845 0.0
C915 C 0.67302 0.01058 0.67753 0.0
C916 C 0.64958 0.99504 0.63091 0.0
C917 C 0.62018 0.99546 0.66454 0.0
C918 C 0.69018 0.04322 0.81022 0.0
C919 C 0.65538 0.97807 0.54456 0.0
H920 H 0.74266 0.0354 0.48967 0.0
H921 H 0.76642 0.96553 0.60391 0.0
H922 H 0.67048 0.04294 0.53936 0.0
H923 H 0.68304 0.06404 0.6352 0.0
H924 H 0.70162 0.0665 0.53879 0.0
H925 H 0.73885 0.95499 0.71756 0.0
H926 H 0.71011 0.97927 0.76835 0.0
H927 H 0.70058 0.95347 0.67836 0.0
H928 H 0.63152 0.03779 0.85292 0.0
H929 H 0.60259 0.98359 0.62752 0.0
H930 H 0.69928 0.05898 0.77607 0.0
H931 H 0.70939 0.0293 0.82119 0.0
H932 H 0.68134 0.05443 0.87138 0.0
H933 H 0.65993 0.99261 0.50156 0.0
H934 H 0.6358 0.96484 0.51987 0.0
H935 H 0.67565 0.96415 0.54436 0.0
C936 C 0.58924 0.7477 0.36326 0.0
C937 C 0.56141 0.76227 0.36682 0.0
C938 C 0.5949 0.72779 0.41376 0.0
C939 C 0.5722 0.72252 0.46946 0.0
C940 C 0.54564 0.73975 0.48045 0.0
C941 C 0.54046 0.75935 0.42844 0.0
C942 C 0.62356 0.71003 0.39981 0.0
C943 C 0.52112 0.7353 0.54028 0.0
C944 C 0.5637 0.64589 0.48865 0.0
C945 C 0.57825 0.64517 0.56447 0.0
C946 C 0.56151 0.67097 0.45762 0.0
C947 C 0.57383 0.69613 0.50406 0.0
C948 C 0.58816 0.69563 0.58134 0.0
C949 C 0.59039 0.6701 0.61036 0.0
C950 C 0.54635 0.67041 0.37434 0.0
C951 C 0.60119 0.72202 0.63311 0.0
H952 H 0.60517 0.74956 0.3144 0.0
H953 H 0.51869 0.7702 0.4301 0.0
H954 H 0.63334 0.70675 0.45979 0.0
H955 H 0.61819 0.68897 0.36243 0.0
H956 H 0.64093 0.71975 0.36584 0.0
H957 H 0.50514 0.75362 0.55373 0.0
H958 H 0.50806 0.71634 0.51266 0.0
H959 H 0.53102 0.73162 0.59974 0.0
H960 H 0.55455 0.62662 0.45266 0.0
H961 H 0.60137 0.66968 0.66949 0.0
H962 H 0.56254 0.67706 0.33048 0.0
H963 H 0.52691 0.68554 0.38159 0.0
H964 H 0.53796 0.64915 0.34608 0.0
H965 H 0.61941 0.73007 0.59799 0.0
H966 H 0.61068 0.71833 0.69314 0.0
H967 H 0.58341 0.73878 0.64632 0.0
C968 C 0.79927 0.54285 0.60911 0.0
C969 C 0.79636 0.53101 0.52414 0.0
C970 C 0.82584 0.53854 0.65417 0.0
C971 C 0.85062 0.52261 0.61295 0.0
C972 C 0.8471 0.5095 0.52807 0.0
C973 C 0.82008 0.5137 0.48522 0.0
C974 C 0.82808 0.55253 0.7447 0.0
C975 C 0.87272 0.49267 0.48053 0.0
C976 C 0.93153 0.54088 0.69092 0.0
C977 C 0.9395 0.51844 0.73047 0.0
C978 C 0.90281 0.54255 0.65335 0.0
C979 C 0.88093 0.52152 0.65604 0.0
C980 C 0.88857 0.49918 0.69761 0.0
C981 C 0.91768 0.49776 0.73334 0.0
C982 C 0.89608 0.56663 0.60919 0.0
C983 C 0.86607 0.47652 0.70364 0.0
H984 H 0.78149 0.55692 0.63915 0.0
H985 H 0.8183 0.50505 0.41922 0.0
H986 H 0.83719 0.53746 0.78226 0.0
H987 H 0.84401 0.57033 0.75145 0.0
H988 H 0.80577 0.56082 0.77063 0.0
H989 H 0.86566 0.48189 0.41725 0.0
H990 H 0.89164 0.50693 0.47414 0.0
H991 H 0.88158 0.47661 0.51494 0.0
H992 H 0.94804 0.55697 0.68762 0.0
H993 H 0.92333 0.48031 0.76347 0.0
H994 H 0.87573 0.57863 0.63671 0.0
H995 H 0.89098 0.55826 0.54262 0.0
H996 H 0.91528 0.58139 0.61286 0.0
H997 H 0.84442 0.4862 0.73024 0.0
H998 H 0.87457 0.46167 0.74283 0.0
H999 H 0.86103 0.46435 0.64049 0.0
loop_
_geom_bond_atom_site_label_1
_geom_bond_atom_site_label_2
_geom_bond_distance
_geom_bond_site_symmetry_2
_ccdc_geom_bond_type
H0 C3 0.931 . S
H1 C6 0.928 . S
H2 C8 0.930 . S
C3 H0 0.931 . S
C3 C4 1.413 . S
C3 C5 1.360 . S
C4 C3 1.413 . S
C4 C8 1.429 . S
C5 C3 1.360 . S
C5 C6 1.372 . S
C6 H1 0.928 . S
C6 C5 1.372 . S
C6 C7 1.404 . S
C7 C6 1.404 . S
C7 C8 1.391 . S
C8 H2 0.930 . S
C8 C4 1.429 . S
C8 C7 1.391 . S
H9 C12 0.931 . S
H10 C15 0.928 . S
H11 C17 0.930 . S
C12 H9 0.931 . S
C12 C13 1.413 . S
C12 C14 1.360 . S
C13 C12 1.413 . S
C13 C17 1.429 1_655 S
C14 C12 1.360 . S
C14 C15 1.373 . S
C15 H10 0.928 . S
C15 C14 1.373 . S
C15 C16 1.404 . S
C16 C15 1.404 . S
C16 C17 1.390 1_655 S
C17 H11 0.930 . S
C17 C13 1.429 1_455 S
C17 C16 1.390 1_455 S
H18 C21 0.930 . S
H19 C24 0.928 . S
H20 C26 0.933 . S
C21 H18 0.930 . S
C21 C22 1.414 . S
C21 C23 1.360 . S
C22 C21 1.414 . S
C22 C26 1.429 1_565 S
C23 C21 1.360 . S
C23 C24 1.371 . S
C24 H19 0.928 . S
C24 C23 1.371 . S
C24 C25 1.402 . S
C25 C24 1.402 . S
C25 C26 1.393 1_565 S
C26 H20 0.933 . S
C26 C22 1.429 1_545 S
C26 C25 1.393 1_545 S
H27 C30 0.931 . S
H28 C33 0.928 . S
H29 C35 0.930 . S
C30 H27 0.931 . S
C30 C31 1.413 1_554 S
C30 C32 1.360 . S
C31 C30 1.413 1_556 S
C31 C35 1.429 . S
C32 C30 1.360 . S
C32 C33 1.372 . S
C33 H28 0.928 . S
C33 C32 1.372 . S
C33 C34 1.404 1_554 S
C34 C33 1.404 1_556 S
C34 C35 1.391 . S
C35 H29 0.930 . S
C35 C31 1.429 . S
C35 C34 1.391 . S
H36 C39 0.931 . S
H37 C42 0.928 . S
H38 C44 0.930 . S
C39 H36 0.931 . S
C39 C40 1.413 . S
C39 C41 1.360 . S
C40 C39 1.413 . S
C40 C44 1.429 . S
C41 C39 1.360 . S
C41 C42 1.372 . S
C42 H37 0.928 . S
C42 C41 1.372 . S
C42 C43 1.404 . S
C43 C42 1.404 . S
C43 C44 1.391 . S
C44 H38 0.930 . S
C44 C40 1.429 . S
C44 C43 1.391 . S
H45 C48 0.930 . S
H46 C51 0.928 . S
H47 C53 0.929 . S
C48 H45 0.930 . S
C48 C49 1.413 . S
C48 C50 1.360 . S
C49 C48 1.413 . S
C49 C53 1.429 1_655 S
C50 C48 1.360 . S
C50 C51 1.372 . S
C51 H46 0.928 . S
C51 C50 1.372 . S
C51 C52 1.404 . S
C52 C51 1.404 . S
C52 C53 1.391 1_655 S
C53 H47 0.929 . S
C53 C49 1.429 1_455 S
C53 C52 1.391 1_455 S
H54 C57 0.931 . S
H55 C60 0.928 . S
H56 C62 0.926 . S
C57 H54 0.931 . S
C57 C58 1.412 . S
C57 C59 1.360 . S
C58 C57 1.412 . S
C58 C62 1.430 1_565 S
C59 C57 1.360 . S
C59 C60 1.373 . S
C60 H55 0.928 . S
C60 C59 1.373 . S
C60 C61 1.405 . S
C61 C60 1.405 . S
C61 C62 1.388 1_565 S
C62 H56 0.926 . S
C62 C58 1.430 1_545 S
C62 C61 1.388 1_545 S
H63 C66 0.931 . S
H64 C69 0.928 . S
H65 C71 0.930 . S
C66 H63 0.931 . S
C66 C67 1.413 . S
C66 C68 1.360 . S
C67 C66 1.413 . S
C67 C71 1.429 . S
C68 C66 1.360 . S
C68 C69 1.372 . S
C69 H64 0.928 . S
C69 C68 1.372 . S
C69 C70 1.404 . S
C70 C69 1.404 . S
C70 C71 1.391 . S
C71 H65 0.930 . S
C71 C67 1.429 . S
C71 C70 1.391 . S
Tb72 C81 2.764 . S
Tb72 O82 2.325 . S
Tb72 O85 2.303 1_655 S
Tb72 O89 2.322 1_545 S
Tb72 O90 2.349 . S
Tb72 O93 2.415 . S
Tb72 O94 2.399 . S
Tb73 O83 2.322 1_565 S
Tb73 O84 2.349 . S
Tb73 O86 2.415 . S
Tb73 O87 2.399 . S
Tb73 O88 2.325 . S
Tb73 O91 2.303 1_455 S
Tb73 C102 2.764 . S
C74 O90 1.261 . S
C74 O91 1.257 1_545 S
C75 C78 1.358 . S
C75 C79 1.332 . S
C75 C81 1.504 . S
C76 C77 1.373 . S
C76 C80 1.308 . S
C77 C76 1.373 . S
C77 C78 1.429 . S
C77 H104 0.932 . S
C78 C75 1.358 . S
C78 C77 1.429 . S
C78 H105 0.930 . S
C79 C75 1.332 . S
C79 C80 1.394 . S
C79 H106 0.900 1_655 S
C80 C76 1.308 . S
C80 C79 1.394 . S
C80 H107 0.929 . S
C81 Tb72 2.764 . S
C81 C75 1.504 . S
C81 O93 1.239 . S
C81 O94 1.263 . S
O82 Tb72 2.325 . S
O82 C92 1.236 1_655 S
O83 Tb73 2.322 1_545 S
O83 C92 1.257 . S
O84 Tb73 2.349 . S
O84 C95 1.261 . S
O85 Tb72 2.303 1_455 S
O85 C95 1.257 1_545 S
O86 Tb73 2.415 . S
O86 C102 1.239 . S
O87 Tb73 2.399 . S
O87 C102 1.263 . S
O88 Tb73 2.325 . S
O88 C103 1.236 1_455 S
O89 Tb72 2.322 1_565 S
O89 C103 1.257 . S
O90 Tb72 2.349 . S
O90 C74 1.261 . S
O91 Tb73 2.303 1_655 S
O91 C74 1.257 1_565 S
C92 O82 1.236 1_455 S
C92 O83 1.257 . S
O93 Tb72 2.415 . S
O93 C81 1.239 . S
O94 Tb72 2.399 . S
O94 C81 1.263 . S
C95 O84 1.261 . S
C95 O85 1.257 1_565 S
C96 C99 1.358 1_556 S
C96 C100 1.332 1_556 S
C96 C102 1.504 . S
C97 C98 1.373 . S
C97 C101 1.308 . S
C98 C97 1.373 . S
C98 C99 1.429 . S
C98 H108 0.932 . S
C99 C96 1.358 1_554 S
C99 C98 1.429 . S
C99 H109 0.930 1_554 S
C100 C96 1.332 1_554 S
C100 C101 1.394 . S
C100 H110 0.908 1_455 S
C101 C97 1.308 . S
C101 C100 1.394 . S
C101 H111 0.929 . S
C102 Tb73 2.764 . S
C102 O86 1.239 . S
C102 O87 1.263 . S
C102 C96 1.504 . S
C103 O88 1.236 1_655 S
C103 O89 1.257 . S
H104 C77 0.932 . S
H105 C78 0.930 . S
H106 C79 0.900 1_455 S
H107 C80 0.929 . S
H108 C98 0.932 . S
H109 C99 0.930 1_556 S
H110 C100 0.908 1_655 S
H111 C101 0.929 . S
Tb112 C121 2.764 . S
Tb112 O122 2.325 . S
Tb112 O125 2.303 1_565 S
Tb112 O129 2.322 . S
Tb112 O130 2.349 . S
Tb112 O133 2.415 1_565 S
Tb112 O134 2.399 . S
Tb113 O123 2.322 . S
Tb113 O124 2.349 . S
Tb113 O126 2.415 1_545 S
Tb113 O127 2.399 . S
Tb113 O128 2.325 . S
Tb113 O131 2.303 1_545 S
Tb113 C142 2.764 1_556 S
C114 O130 1.261 . S
C114 O131 1.257 . S
C115 C118 1.358 . S
C115 C119 1.312 1_565 S
C115 C121 1.504 . S
C116 C117 1.373 . S
C116 C120 1.308 . S
C117 C116 1.373 . S
C117 C118 1.429 . S
C117 H144 0.932 . S
C118 C115 1.358 . S
C118 C117 1.429 . S
C118 H145 0.930 . S
C119 C115 1.312 1_545 S
C119 C120 1.395 1_545 S
C119 H146 0.952 . S
C120 C116 1.308 . S
C120 C119 1.395 1_565 S
C120 H147 0.929 1_565 S
C121 Tb112 2.764 . S
C121 C115 1.504 . S
C121 O133 1.239 1_565 S
C121 O134 1.263 . S
O122 Tb112 2.325 . S
O122 C132 1.236 1_565 S
O123 Tb113 2.322 . S
O123 C132 1.257 . S
O124 Tb113 2.349 . S
O124 C135 1.261 . S
O125 Tb112 2.303 1_545 S
O125 C135 1.257 . S
O126 Tb113 2.415 1_565 S
O126 C142 1.239 1_566 S
O127 Tb113 2.399 . S
O127 C142 1.263 1_556 S
O128 Tb113 2.325 . S
O128 C143 1.236 1_545 S
O129 Tb112 2.322 . S
O129 C143 1.257 . S
O130 Tb112 2.349 . S
O130 C114 1.261 . S
O131 Tb113 2.303 1_565 S
O131 C114 1.257 . S
C132 O122 1.236 1_545 S
C132 O123 1.257 . S
O133 Tb112 2.415 1_545 S
O133 C121 1.239 1_545 S
O134 Tb112 2.399 . S
O134 C121 1.263 . S
C135 O124 1.261 . S
C135 O125 1.257 . S
C136 C139 1.358 . S
C136 C140 1.320 1_545 S
C136 C142 1.504 . S
C137 C138 1.373 . S
C137 C141 1.308 . S
C138 C137 1.373 . S
C138 C139 1.429 . S
C138 H148 0.932 . S
C139 C136 1.358 . S
C139 C138 1.429 . S
C139 H149 0.930 . S
C140 C136 1.320 1_565 S
C140 C141 1.395 1_565 S
C140 H150 0.944 . S
C141 C137 1.308 . S
C141 C140 1.395 1_545 S
C141 H151 0.929 1_545 S
C142 Tb113 2.764 1_554 S
C142 O126 1.239 1_544 S
C142 O127 1.263 1_554 S
C142 C136 1.504 . S
C143 O128 1.236 1_565 S
C143 O129 1.257 . S
H144 C117 0.932 . S
H145 C118 0.930 . S
H146 C119 0.952 . S
H147 C120 0.929 1_545 S
H148 C138 0.932 . S
H149 C139 0.930 . S
H150 C140 0.944 . S
H151 C141 0.929 1_565 S
Tb152 C161 2.764 1_556 S
Tb152 O162 2.325 . S
Tb152 O165 2.303 . S
Tb152 O169 2.322 . S
Tb152 O170 2.349 . S
Tb152 O173 2.415 1_556 S
Tb152 O174 2.399 . S
Tb153 O163 2.322 . S
Tb153 O164 2.349 . S
Tb153 O166 2.415 . S
Tb153 O167 2.399 . S
Tb153 O168 2.325 . S
Tb153 O171 2.303 . S
Tb153 C182 2.764 . S
C154 O170 1.261 . S
C154 O171 1.257 . S
C155 C158 1.358 . S
C155 C159 1.332 . S
C155 C161 1.504 . S
C156 C157 1.373 . S
C156 C160 1.308 . S
C157 C156 1.373 . S
C157 C158 1.429 . S
C157 H184 0.932 . S
C158 C155 1.358 . S
C158 C157 1.429 . S
C158 H185 0.930 . S
C159 C155 1.332 . S
C159 C160 1.394 . S
C159 H186 0.932 . S
C160 C156 1.308 . S
C160 C159 1.394 . S
C160 H187 0.929 . S
C161 Tb152 2.764 1_554 S
C161 C155 1.504 . S
C161 O173 1.239 . S
C161 O174 1.263 1_554 S
O162 Tb152 2.325 . S
O162 C172 1.236 . S
O163 Tb153 2.322 . S
O163 C172 1.257 . S
O164 Tb153 2.349 . S
O164 C175 1.261 . S
O165 Tb152 2.303 . S
O165 C175 1.257 . S
O166 Tb153 2.415 . S
O166 C182 1.239 . S
O167 Tb153 2.399 . S
O167 C182 1.263 . S
O168 Tb153 2.325 . S
O168 C183 1.236 . S
O169 Tb152 2.322 . S
O169 C183 1.257 . S
O170 Tb152 2.349 . S
O170 C154 1.261 . S
O171 Tb153 2.303 . S
O171 C154 1.257 . S
C172 O162 1.236 . S
C172 O163 1.257 . S
O173 Tb152 2.415 1_554 S
O173 C161 1.239 . S
O174 Tb152 2.399 . S
O174 C161 1.263 1_556 S
C175 O164 1.261 . S
C175 O165 1.257 . S
C176 C179 1.358 . S
C176 C180 1.332 . S
C176 C182 1.504 . S
C177 C178 1.373 . S
C177 C181 1.308 . S
C178 C177 1.373 . S
C178 C179 1.429 . S
C178 H188 0.932 . S
C179 C176 1.358 . S
C179 C178 1.429 . S
C179 H189 0.930 . S
C180 C176 1.332 . S
C180 C181 1.394 . S
C180 H190 0.932 . S
C181 C177 1.308 . S
C181 C180 1.394 . S
C181 H191 0.929 . S
C182 Tb153 2.764 . S
C182 O166 1.239 . S
C182 O167 1.263 . S
C182 C176 1.504 . S
C183 O168 1.236 . S
C183 O169 1.257 . S
H184 C157 0.932 . S
H185 C158 0.930 . S
H186 C159 0.932 . S
H187 C160 0.929 . S
H188 C178 0.932 . S
H189 C179 0.930 . S
H190 C180 0.932 . S
H191 C181 0.929 . S
Tb192 C201 2.764 . S
Tb192 O202 2.325 . S
Tb192 O205 2.303 . S
Tb192 O209 2.322 1_455 S
Tb192 O210 2.349 . S
Tb192 O213 2.415 . S
Tb192 O214 2.399 . S
Tb193 O203 2.322 1_655 S
Tb193 O204 2.349 . S
Tb193 O206 2.415 . S
Tb193 O207 2.399 . S
Tb193 O208 2.325 . S
Tb193 O211 2.303 . S
Tb193 C222 2.764 . S
C194 O210 1.261 . S
C194 O211 1.257 1_455 S
C195 C198 1.358 . S
C195 C199 1.332 . S
C195 C201 1.504 . S
C196 C197 1.373 . S
C196 C200 1.308 . S
C197 C196 1.373 . S
C197 C198 1.429 . S
C197 H224 0.932 . S
C198 C195 1.358 . S
C198 C197 1.429 . S
C198 H225 0.930 . S
C199 C195 1.332 . S
C199 C200 1.394 . S
C199 H226 0.932 . S
C200 C196 1.308 . S
C200 C199 1.394 . S
C200 H227 0.929 . S
C201 Tb192 2.764 . S
C201 C195 1.504 . S
C201 O213 1.239 . S
C201 O214 1.263 . S
O202 Tb192 2.325 . S
O202 C212 1.236 . S
O203 Tb193 2.322 1_455 S
O203 C212 1.257 . S
O204 Tb193 2.349 . S
O204 C215 1.261 . S
O205 Tb192 2.303 . S
O205 C215 1.257 1_455 S
O206 Tb193 2.415 . S
O206 C222 1.239 . S
O207 Tb193 2.399 . S
O207 C222 1.263 . S
O208 Tb193 2.325 . S
O208 C223 1.236 . S
O209 Tb192 2.322 1_655 S
O209 C223 1.257 . S
O210 Tb192 2.349 . S
O210 C194 1.261 . S
O211 Tb193 2.303 . S
O211 C194 1.257 1_655 S
C212 O202 1.236 . S
C212 O203 1.257 . S
O213 Tb192 2.415 . S
O213 C201 1.239 . S
O214 Tb192 2.399 . S
O214 C201 1.263 . S
C215 O204 1.261 . S
C215 O205 1.257 1_655 S
C216 C219 1.358 . S
C216 C220 1.332 . S
C216 C222 1.504 1_554 S
C217 C218 1.373 . S
C217 C221 1.308 . S
C218 C217 1.373 . S
C218 C219 1.429 . S
C218 H228 0.932 . S
C219 C216 1.358 . S
C219 C218 1.429 . S
C219 H229 0.927 1_554 S
C220 C216 1.332 . S
C220 C221 1.394 . S
C220 H230 0.932 . S
C221 C217 1.308 . S
C221 C220 1.394 . S
C221 H231 0.929 . S
C222 Tb193 2.764 . S
C222 O206 1.239 . S
C222 O207 1.263 . S
C222 C216 1.504 1_556 S
C223 O208 1.236 . S
C223 O209 1.257 . S
H224 C197 0.932 . S
H225 C198 0.930 . S
H226 C199 0.932 . S
H227 C200 0.929 . S
H228 C218 0.932 . S
H229 C219 0.927 1_556 S
H230 C220 0.932 . S
H231 C221 0.929 . S
C232 C233 1.391 . S
C232 C234 1.394 . S
C232 H248 0.931 . S
C233 C232 1.391 . S
C233 C237 1.376 1_565 S
C234 C232 1.394 . S
C234 C235 1.369 . S
C234 C238 1.531 . S
C235 C234 1.369 . S
C235 C236 1.410 1_565 S
C235 C243 1.503 . S
C236 C235 1.410 1_545 S
C236 C237 1.392 . S
C236 C239 1.511 . S
C237 C233 1.376 1_545 S
C237 C236 1.392 . S
C237 H249 0.929 . S
C238 C234 1.531 . S
C238 H250 0.960 . S
C238 H251 0.962 . S
C238 H252 0.960 . S
C239 C236 1.511 . S
C239 H253 0.961 . S
C239 H254 0.961 . S
C239 H255 0.961 . S
C240 C241 1.370 . S
C240 C242 1.363 . S
C240 H256 0.931 . S
C241 C240 1.370 . S
C241 C245 1.408 1_545 S
C242 C240 1.363 . S
C242 C243 1.370 1_545 S
C242 C246 1.524 . S
C243 C235 1.503 . S
C243 C242 1.370 1_565 S
C243 C244 1.403 . S
C244 C243 1.403 . S
C244 C245 1.404 . S
C244 C247 1.539 . S
C245 C241 1.408 1_565 S
C245 C244 1.404 . S
C245 H257 0.930 . S
C246 C242 1.524 . S
C246 H258 0.956 . S
C246 H259 0.961 . S
C246 H260 0.961 . S
C247 C244 1.539 . S
C247 H261 0.958 . S
C247 H262 0.961 . S
C247 H263 0.960 . S
H248 C232 0.931 . S
H249 C237 0.929 . S
H250 C238 0.960 . S
H251 C238 0.962 . S
H252 C238 0.960 . S
H253 C239 0.961 . S
H254 C239 0.961 . S
H255 C239 0.961 . S
H256 C240 0.931 . S
H257 C245 0.930 . S
H258 C246 0.956 . S
H259 C246 0.961 . S
H260 C246 0.961 . S
H261 C247 0.958 . S
H262 C247 0.961 . S
H263 C247 0.960 . S
C264 C265 1.391 . S
C264 C266 1.394 . S
C264 H280 0.931 . S
C265 C264 1.391 . S
C265 C269 1.376 . S
C266 C264 1.394 . S
C266 C267 1.369 . S
C266 C270 1.531 . S
C267 C266 1.369 . S
C267 C268 1.410 . S
C267 C275 1.503 . S
C268 C267 1.410 . S
C268 C269 1.392 . S
C268 C271 1.511 . S
C269 C265 1.376 . S
C269 C268 1.392 . S
C269 H281 0.929 . S
C270 C266 1.531 . S
C270 H282 0.960 . S
C270 H283 0.962 . S
C270 H284 0.960 . S
C271 C268 1.511 . S
C271 H285 0.961 . S
C271 H286 0.961 . S
C271 H287 0.961 . S
C272 C273 1.370 . S
C272 C274 1.363 . S
C272 H288 0.931 . S
C273 C272 1.370 . S
C273 C277 1.408 . S
C274 C272 1.363 . S
C274 C275 1.370 . S
C274 C278 1.524 . S
C275 C267 1.503 . S
C275 C274 1.370 . S
C275 C276 1.403 . S
C276 C275 1.403 . S
C276 C277 1.404 . S
C276 C279 1.539 . S
C277 C273 1.408 . S
C277 C276 1.404 . S
C277 H289 0.930 . S
C278 C274 1.524 . S
C278 H290 0.956 . S
C278 H291 0.961 . S
C278 H292 0.961 . S
C279 C276 1.539 . S
C279 H293 0.958 . S
C279 H294 0.961 . S
C279 H295 0.960 . S
H280 C264 0.931 . S
H281 C269 0.929 . S
H282 C270 0.960 . S
H283 C270 0.962 . S
H284 C270 0.960 . S
H285 C271 0.961 . S
H286 C271 0.961 . S
H287 C271 0.961 . S
H288 C272 0.931 . S
H289 C277 0.930 . S
H290 C278 0.956 . S
H291 C278 0.961 . S
H292 C278 0.961 . S
H293 C279 0.958 . S
H294 C279 0.961 . S
H295 C279 0.960 . S
C296 C297 1.391 . S
C296 C298 1.394 . S
C296 H312 0.931 . S
C297 C296 1.391 . S
C297 C301 1.376 . S
C298 C296 1.394 . S
C298 C299 1.369 . S
C298 C302 1.531 . S
C299 C298 1.369 . S
C299 C300 1.410 . S
C299 C307 1.503 . S
C300 C299 1.410 . S
C300 C301 1.392 . S
C300 C303 1.511 . S
C301 C297 1.376 . S
C301 C300 1.392 . S
C301 H313 0.929 . S
C302 C298 1.531 . S
C302 H314 0.960 . S
C302 H315 0.962 . S
C302 H316 0.960 . S
C303 C300 1.511 . S
C303 H317 0.961 . S
C303 H318 0.961 . S
C303 H319 0.961 . S
C304 C305 1.370 . S
C304 C306 1.363 . S
C304 H320 0.931 . S
C305 C304 1.370 . S
C305 C309 1.408 . S
C306 C304 1.363 . S
C306 C307 1.370 . S
C306 C310 1.524 . S
C307 C299 1.503 . S
C307 C306 1.370 . S
C307 C308 1.403 . S
C308 C307 1.403 . S
C308 C309 1.404 . S
C308 C311 1.539 . S
C309 C305 1.408 . S
C309 C308 1.404 . S
C309 H321 0.930 . S
C310 C306 1.524 . S
C310 H322 0.956 . S
C310 H323 0.961 . S
C310 H324 0.961 . S
C311 C308 1.539 . S
C311 H325 0.958 . S
C311 H326 0.961 . S
C311 H327 0.960 . S
H312 C296 0.931 . S
H313 C301 0.929 . S
H314 C302 0.960 . S
H315 C302 0.962 . S
H316 C302 0.960 . S
H317 C303 0.961 . S
H318 C303 0.961 . S
H319 C303 0.961 . S
H320 C304 0.931 . S
H321 C309 0.930 . S
H322 C310 0.956 . S
H323 C310 0.961 . S
H324 C310 0.961 . S
H325 C311 0.958 . S
H326 C311 0.961 . S
H327 C311 0.960 . S
C328 C329 1.391 1_655 S
C328 C330 1.394 . S
C328 H344 0.931 . S
C329 C328 1.391 1_455 S
C329 C333 1.376 . S
C330 C328 1.394 . S
C330 C331 1.369 1_655 S
C330 C334 1.531 . S
C331 C330 1.369 1_455 S
C331 C332 1.410 . S
C331 C339 1.503 . S
C332 C331 1.410 . S
C332 C333 1.392 . S
C332 C335 1.511 . S
C333 C329 1.376 . S
C333 C332 1.392 . S
C333 H345 0.929 . S
C334 C330 1.531 . S
C334 H346 0.960 . S
C334 H347 0.962 . S
C334 H348 0.960 . S
C335 C332 1.511 . S
C335 H349 0.961 . S
C335 H350 0.961 . S
C335 H351 0.961 . S
C336 C337 1.370 1_655 S
C336 C338 1.363 . S
C336 H352 0.931 . S
C337 C336 1.370 1_455 S
C337 C341 1.408 . S
C338 C336 1.363 . S
C338 C339 1.370 1_655 S
C338 C342 1.524 . S
C339 C331 1.503 . S
C339 C338 1.370 1_455 S
C339 C340 1.403 . S
C340 C339 1.403 . S
C340 C341 1.404 . S
C340 C343 1.539 . S
C341 C337 1.408 . S
C341 C340 1.404 . S
C341 H353 0.930 . S
C342 C338 1.524 . S
C342 H354 0.956 . S
C342 H355 0.961 . S
C342 H356 0.961 . S
C343 C340 1.539 . S
C343 H357 0.958 . S
C343 H358 0.961 . S
C343 H359 0.960 . S
H344 C328 0.931 . S
H345 C333 0.929 . S
H346 C334 0.960 . S
H347 C334 0.962 . S
H348 C334 0.960 . S
H349 C335 0.961 . S
H350 C335 0.961 . S
H351 C335 0.961 . S
H352 C336 0.931 . S
H353 C341 0.930 . S
H354 C342 0.956 . S
H355 C342 0.961 . S
H356 C342 0.961 . S
H357 C343 0.958 . S
H358 C343 0.961 . S
H359 C343 0.960 . S
C360 C361 1.391 . S
C360 C362 1.394 . S
C360 H376 0.931 . S
C361 C360 1.391 . S
C361 C365 1.376 1_545 S
C362 C360 1.394 . S
C362 C363 1.369 . S
C362 C366 1.531 . S
C363 C362 1.369 . S
C363 C364 1.410 1_545 S
C363 C371 1.503 . S
C364 C363 1.410 1_565 S
C364 C365 1.392 . S
C364 C367 1.511 . S
C365 C361 1.376 1_565 S
C365 C364 1.392 . S
C365 H377 0.929 . S
C366 C362 1.531 . S
C366 H378 0.960 . S
C366 H379 0.962 . S
C366 H380 0.960 . S
C367 C364 1.511 . S
C367 H381 0.961 . S
C367 H382 0.961 . S
C367 H383 0.961 1_565 S
C368 C369 1.370 1_554 S
C368 C370 1.363 . S
C368 H384 0.931 1_554 S
C369 C368 1.370 1_556 S
C369 C373 1.408 1_566 S
C370 C368 1.363 . S
C370 C371 1.370 1_565 S
C370 C374 1.524 . S
C371 C363 1.503 . S
C371 C370 1.370 1_545 S
C371 C372 1.403 . S
C372 C371 1.403 . S
C372 C373 1.404 . S
C372 C375 1.539 . S
C373 C369 1.408 1_544 S
C373 C372 1.404 . S
C373 H385 0.930 . S
C374 C370 1.524 . S
C374 H386 0.956 . S
C374 H387 0.961 . S
C374 H388 0.961 . S
C375 C372 1.539 . S
C375 H389 0.958 . S
C375 H390 0.961 . S
C375 H391 0.960 . S
H376 C360 0.931 . S
H377 C365 0.929 . S
H378 C366 0.960 . S
H379 C366 0.962 . S
H380 C366 0.960 . S
H381 C367 0.961 . S
H382 C367 0.961 . S
H383 C367 0.961 1_545 S
H384 C368 0.931 1_556 S
H385 C373 0.930 . S
H386 C374 0.956 . S
H387 C374 0.961 . S
H388 C374 0.961 . S
H389 C375 0.958 . S
H390 C375 0.961 . S
H391 C375 0.960 . S
C392 C393 1.391 . S
C392 C394 1.394 . S
C392 H408 0.931 . S
C393 C392 1.391 . S
C393 C397 1.376 . S
C394 C392 1.394 . S
C394 C395 1.369 . S
C394 C398 1.531 . S
C395 C394 1.369 . S
C395 C396 1.410 . S
C395 C403 1.503 . S
C396 C395 1.410 . S
C396 C397 1.392 . S
C396 C399 1.511 . S
C397 C393 1.376 . S
C397 C396 1.392 . S
C397 H409 0.929 . S
C398 C394 1.531 . S
C398 H410 0.960 . S
C398 H411 0.962 . S
C398 H412 0.960 . S
C399 C396 1.511 . S
C399 H413 0.961 . S
C399 H414 0.961 . S
C399 H415 0.961 1_556 S
C400 C401 1.370 . S
C400 C402 1.363 . S
C400 H416 0.931 . S
C401 C400 1.370 . S
C401 C405 1.408 . S
C402 C400 1.363 . S
C402 C403 1.370 . S
C402 C406 1.524 . S
C403 C395 1.503 . S
C403 C402 1.370 . S
C403 C404 1.403 . S
C404 C403 1.403 . S
C404 C405 1.404 . S
C404 C407 1.539 1_556 S
C405 C401 1.408 . S
C405 C404 1.404 . S
C405 H417 0.930 . S
C406 C402 1.524 . S
C406 H418 0.956 . S
C406 H419 0.961 . S
C406 H420 0.961 . S
C407 C404 1.539 1_554 S
C407 H421 0.958 . S
C407 H422 0.961 . S
C407 H423 0.960 . S
H408 C392 0.931 . S
H409 C397 0.929 . S
H410 C398 0.960 . S
H411 C398 0.962 . S
H412 C398 0.960 . S
H413 C399 0.961 . S
H414 C399 0.961 . S
H415 C399 0.961 1_554 S
H416 C400 0.931 . S
H417 C405 0.930 . S
H418 C406 0.956 . S
H419 C406 0.961 . S
H420 C406 0.961 . S
H421 C407 0.958 . S
H422 C407 0.961 . S
H423 C407 0.960 . S
C424 C425 1.391 . S
C424 C426 1.394 . S
C424 H440 0.931 . S
C425 C424 1.391 . S
C425 C429 1.376 . S
C426 C424 1.394 . S
C426 C427 1.369 . S
C426 C430 1.531 . S
C427 C426 1.369 . S
C427 C428 1.410 . S
C427 C435 1.503 . S
C428 C427 1.410 . S
C428 C429 1.392 . S
C428 C431 1.511 . S
C429 C425 1.376 . S
C429 C428 1.392 . S
C429 H441 0.929 . S
C430 C426 1.531 . S
C430 H442 0.960 . S
C430 H443 0.962 . S
C430 H444 0.960 . S
C431 C428 1.511 . S
C431 H445 0.961 . S
C431 H446 0.961 . S
C431 H447 0.961 . S
C432 C433 1.370 1_554 S
C432 C434 1.363 . S
C432 H448 0.931 . S
C433 C432 1.370 1_556 S
C433 C437 1.408 1_556 S
C434 C432 1.363 . S
C434 C435 1.370 . S
C434 C438 1.524 . S
C435 C427 1.503 . S
C435 C434 1.370 . S
C435 C436 1.403 . S
C436 C435 1.403 . S
C436 C437 1.404 . S
C436 C439 1.539 . S
C437 C433 1.408 1_554 S
C437 C436 1.404 . S
C437 H449 0.930 1_554 S
C438 C434 1.524 . S
C438 H450 0.956 . S
C438 H451 0.961 . S
C438 H452 0.961 . S
C439 C436 1.539 . S
C439 H453 0.958 . S
C439 H454 0.961 . S
C439 H455 0.960 . S
H440 C424 0.931 . S
H441 C429 0.929 . S
H442 C430 0.960 . S
H443 C430 0.962 . S
H444 C430 0.960 . S
H445 C431 0.961 . S
H446 C431 0.961 . S
H447 C431 0.961 . S
H448 C432 0.931 . S
H449 C437 0.930 1_556 S
H450 C438 0.956 . S
H451 C438 0.961 . S
H452 C438 0.961 . S
H453 C439 0.958 . S
H454 C439 0.961 . S
H455 C439 0.960 . S
C456 C457 1.391 . S
C456 C458 1.394 . S
C456 H472 0.931 . S
C457 C456 1.391 . S
C457 C461 1.376 . S
C458 C456 1.394 . S
C458 C459 1.369 . S
C458 C462 1.531 . S
C459 C458 1.369 . S
C459 C460 1.410 . S
C459 C467 1.503 . S
C460 C459 1.410 . S
C460 C461 1.392 . S
C460 C463 1.511 . S
C461 C457 1.376 . S
C461 C460 1.392 . S
C461 H473 0.929 . S
C462 C458 1.531 . S
C462 H474 0.960 . S
C462 H475 0.962 1_455 S
C462 H476 0.960 . S
C463 C460 1.511 . S
C463 H477 0.961 1_455 S
C463 H478 0.961 1_455 S
C463 H479 0.961 . S
C464 C465 1.402 1_554 S
C464 C466 1.363 . S
C464 H480 0.931 1_554 S
C465 C464 1.402 1_556 S
C465 C469 1.374 1_655 S
C466 C464 1.363 . S
C466 C467 1.370 1_655 S
C466 C470 1.524 . S
C467 C459 1.503 . S
C467 C466 1.370 1_455 S
C467 C468 1.403 . S
C468 C467 1.403 . S
C468 C469 1.401 1_554 S
C468 C471 1.539 . S
C469 C465 1.374 1_455 S
C469 C468 1.401 1_556 S
C469 H481 0.931 . S
C470 C466 1.524 . S
C470 H482 0.956 . S
C470 H483 0.961 . S
C470 H484 0.961 . S
C471 C468 1.539 . S
C471 H485 0.958 . S
C471 H486 0.961 . S
C471 H487 0.960 . S
H472 C456 0.931 . S
H473 C461 0.929 . S
H474 C462 0.960 . S
H475 C462 0.962 1_655 S
H476 C462 0.960 . S
H477 C463 0.961 1_655 S
H478 C463 0.961 1_655 S
H479 C463 0.961 . S
H480 C464 0.931 1_556 S
H481 C469 0.931 . S
H482 C470 0.956 . S
H483 C470 0.961 . S
H484 C470 0.961 . S
H485 C471 0.958 . S
H486 C471 0.961 . S
H487 C471 0.960 . S
C488 C489 1.389 . S
C488 C490 1.394 . S
C488 H504 0.931 . S
C489 C488 1.389 . S
C489 C493 1.377 1_655 S
C490 C488 1.394 . S
C490 C491 1.369 . S
C490 C494 1.531 . S
C491 C490 1.369 . S
C491 C492 1.410 1_655 S
C491 C499 1.503 . S
C492 C491 1.410 1_455 S
C492 C493 1.392 . S
C492 C495 1.511 . S
C493 C489 1.377 1_455 S
C493 C492 1.392 . S
C493 H505 0.929 . S
C494 C490 1.531 . S
C494 H506 0.960 . S
C494 H507 0.962 . S
C494 H508 0.960 . S
C495 C492 1.511 . S
C495 H509 0.961 . S
C495 H510 0.961 . S
C495 H511 0.961 . S
C496 C497 1.370 . S
C496 C498 1.363 . S
C496 H512 0.931 . S
C497 C496 1.370 . S
C497 C501 1.408 . S
C498 C496 1.363 . S
C498 C499 1.370 . S
C498 C502 1.524 . S
C499 C491 1.503 . S
C499 C498 1.370 . S
C499 C500 1.403 . S
C500 C499 1.403 . S
C500 C501 1.404 . S
C500 C503 1.539 . S
C501 C497 1.408 . S
C501 C500 1.404 . S
C501 H513 0.930 . S
C502 C498 1.524 . S
C502 H514 0.956 . S
C502 H515 0.961 . S
C502 H516 0.961 . S
C503 C500 1.539 . S
C503 H517 0.958 . S
C503 H518 0.961 . S
C503 H519 0.960 . S
H504 C488 0.931 . S
H505 C493 0.929 . S
H506 C494 0.960 . S
H507 C494 0.962 . S
H508 C494 0.960 . S
H509 C495 0.961 . S
H510 C495 0.961 . S
H511 C495 0.961 . S
H512 C496 0.931 . S
H513 C501 0.930 . S
H514 C502 0.956 . S
H515 C502 0.961 . S
H516 C502 0.961 . S
H517 C503 0.958 . S
H518 C503 0.961 . S
H519 C503 0.960 . S
C520 C521 1.391 1_565 S
C520 C522 1.394 . S
C520 H536 0.931 . S
C521 C520 1.391 1_545 S
C521 C525 1.376 . S
C522 C520 1.394 . S
C522 C523 1.369 . S
C522 C526 1.531 . S
C523 C522 1.369 . S
C523 C524 1.410 1_565 S
C523 C531 1.503 . S
C524 C523 1.410 1_545 S
C524 C525 1.392 . S
C524 C527 1.511 . S
C525 C521 1.376 . S
C525 C524 1.392 . S
C525 H537 0.929 . S
C526 C522 1.531 . S
C526 H538 0.960 . S
C526 H539 0.962 . S
C526 H540 0.960 . S
C527 C524 1.511 . S
C527 H541 0.961 . S
C527 H542 0.961 . S
C527 H543 0.961 . S
C528 C529 1.370 . S
C528 C530 1.363 . S
C528 H544 0.931 . S
C529 C528 1.370 . S
C529 C533 1.408 . S
C530 C528 1.363 . S
C530 C531 1.370 . S
C530 C534 1.524 1_565 S
C531 C523 1.503 . S
C531 C530 1.370 . S
C531 C532 1.403 . S
C532 C531 1.403 . S
C532 C533 1.404 . S
C532 C535 1.539 . S
C533 C529 1.408 . S
C533 C532 1.404 . S
C533 H545 0.930 . S
C534 C530 1.524 1_545 S
C534 H546 0.956 . S
C534 H547 0.961 . S
C534 H548 0.961 . S
C535 C532 1.539 . S
C535 H549 0.958 . S
C535 H550 0.961 . S
C535 H551 0.960 . S
H536 C520 0.931 . S
H537 C525 0.929 . S
H538 C526 0.960 . S
H539 C526 0.962 . S
H540 C526 0.960 . S
H541 C527 0.961 . S
H542 C527 0.961 . S
H543 C527 0.961 . S
H544 C528 0.931 . S
H545 C533 0.930 . S
H546 C534 0.956 . S
H547 C534 0.961 . S
H548 C534 0.961 . S
H549 C535 0.958 . S
H550 C535 0.961 . S
H551 C535 0.960 . S
C552 C553 1.391 . S
C552 C554 1.394 . S
C552 H568 0.931 . S
C553 C552 1.391 . S
C553 C557 1.376 . S
C554 C552 1.394 . S
C554 C555 1.369 . S
C554 C558 1.531 . S
C555 C554 1.369 . S
C555 C556 1.410 . S
C555 C563 1.503 . S
C556 C555 1.410 . S
C556 C557 1.392 . S
C556 C559 1.511 . S
C557 C553 1.376 . S
C557 C556 1.392 . S
C557 H569 0.929 . S
C558 C554 1.531 . S
C558 H570 0.960 . S
C558 H571 0.962 . S
C558 H572 0.960 . S
C559 C556 1.511 . S
C559 H573 0.961 . S
C559 H574 0.961 . S
C559 H575 0.961 . S
C560 C561 1.370 . S
C560 C562 1.363 . S
C560 H576 0.931 . S
C561 C560 1.370 . S
C561 C565 1.408 . S
C562 C560 1.363 . S
C562 C563 1.370 . S
C562 C566 1.524 . S
C563 C555 1.503 . S
C563 C562 1.370 . S
C563 C564 1.403 . S
C564 C563 1.403 . S
C564 C565 1.404 . S
C564 C567 1.539 . S
C565 C561 1.408 . S
C565 C564 1.404 . S
C565 H577 0.930 . S
C566 C562 1.524 . S
C566 H578 0.956 . S
C566 H579 0.961 . S
C566 H580 0.961 . S
C567 C564 1.539 . S
C567 H581 0.958 . S
C567 H582 0.961 . S
C567 H583 0.960 . S
H568 C552 0.931 . S
H569 C557 0.929 . S
H570 C558 0.960 . S
H571 C558 0.962 . S
H572 C558 0.960 . S
H573 C559 0.961 . S
H574 C559 0.961 . S
H575 C559 0.961 . S
H576 C560 0.931 . S
H577 C565 0.930 . S
H578 C566 0.956 . S
H579 C566 0.961 . S
H580 C566 0.961 . S
H581 C567 0.958 . S
H582 C567 0.961 . S
H583 C567 0.960 . S
C584 C585 1.391 . S
C584 C586 1.394 . S
C584 H600 0.931 . S
C585 C584 1.391 . S
C585 C589 1.376 . S
C586 C584 1.394 . S
C586 C587 1.369 . S
C586 C590 1.531 . S
C587 C586 1.369 . S
C587 C588 1.410 . S
C587 C595 1.503 . S
C588 C587 1.410 . S
C588 C589 1.392 . S
C588 C591 1.511 . S
C589 C585 1.376 . S
C589 C588 1.392 . S
C589 H601 0.929 . S
C590 C586 1.531 . S
C590 H602 0.960 . S
C590 H603 0.962 . S
C590 H604 0.960 . S
C591 C588 1.511 . S
C591 H605 0.961 . S
C591 H606 0.961 . S
C591 H607 0.961 . S
C592 C593 1.370 . S
C592 C594 1.363 . S
C592 H608 0.931 . S
C593 C592 1.370 . S
C593 C597 1.408 . S
C594 C592 1.363 . S
C594 C595 1.370 . S
C594 C598 1.524 . S
C595 C587 1.503 . S
C595 C594 1.370 . S
C595 C596 1.403 . S
C596 C595 1.403 . S
C596 C597 1.404 . S
C596 C599 1.539 . S
C597 C593 1.408 . S
C597 C596 1.404 . S
C597 H609 0.930 . S
C598 C594 1.524 . S
C598 H610 0.956 . S
C598 H611 0.961 . S
C598 H612 0.961 . S
C599 C596 1.539 . S
C599 H613 0.958 . S
C599 H614 0.961 . S
C599 H615 0.960 . S
H600 C584 0.931 . S
H601 C589 0.929 . S
H602 C590 0.960 . S
H603 C590 0.962 . S
H604 C590 0.960 . S
H605 C591 0.961 . S
H606 C591 0.961 . S
H607 C591 0.961 . S
H608 C592 0.931 . S
H609 C597 0.930 . S
H610 C598 0.956 . S
H611 C598 0.961 . S
H612 C598 0.961 . S
H613 C599 0.958 . S
H614 C599 0.961 . S
H615 C599 0.960 . S
C616 C617 1.389 1_455 S
C616 C618 1.394 . S
C616 H632 0.931 . S
C617 C616 1.389 1_655 S
C617 C621 1.377 . S
C618 C616 1.394 . S
C618 C619 1.369 . S
C618 C622 1.531 . S
C619 C618 1.369 . S
C619 C620 1.410 1_455 S
C619 C627 1.503 . S
C620 C619 1.410 1_655 S
C620 C621 1.392 . S
C620 C623 1.511 . S
C621 C617 1.377 . S
C621 C620 1.392 . S
C621 H633 0.929 . S
C622 C618 1.531 . S
C622 H634 0.960 . S
C622 H635 0.962 . S
C622 H636 0.960 . S
C623 C620 1.511 . S
C623 H637 0.961 . S
C623 H638 0.961 . S
C623 H639 0.961 . S
C624 C625 1.370 . S
C624 C626 1.363 . S
C624 H640 0.931 . S
C625 C624 1.370 . S
C625 C629 1.408 . S
C626 C624 1.363 . S
C626 C627 1.370 . S
C626 C630 1.524 . S
C627 C619 1.503 . S
C627 C626 1.370 . S
C627 C628 1.403 . S
C628 C627 1.403 . S
C628 C629 1.404 . S
C628 C631 1.539 . S
C629 C625 1.408 . S
C629 C628 1.404 . S
C629 H641 0.930 1_554 S
C630 C626 1.524 . S
C630 H642 0.956 . S
C630 H643 0.961 . S
C630 H644 0.961 . S
C631 C628 1.539 . S
C631 H645 0.958 . S
C631 H646 0.961 1_554 S
C631 H647 0.960 . S
H632 C616 0.931 . S
H633 C621 0.929 . S
H634 C622 0.960 . S
H635 C622 0.962 . S
H636 C622 0.960 . S
H637 C623 0.961 . S
H638 C623 0.961 . S
H639 C623 0.961 . S
H640 C624 0.931 . S
H641 C629 0.930 1_556 S
H642 C630 0.956 . S
H643 C630 0.961 . S
H644 C630 0.961 . S
H645 C631 0.958 . S
H646 C631 0.961 1_556 S
H647 C631 0.960 . S
C648 C649 1.391 1_545 S
C648 C650 1.394 . S
C648 H664 0.931 . S
C649 C648 1.391 1_565 S
C649 C653 1.376 . S
C650 C648 1.394 . S
C650 C651 1.369 . S
C650 C654 1.531 . S
C651 C650 1.369 . S
C651 C652 1.410 1_545 S
C651 C659 1.503 . S
C652 C651 1.410 1_565 S
C652 C653 1.392 . S
C652 C655 1.511 . S
C653 C649 1.376 . S
C653 C652 1.392 . S
C653 H665 0.929 . S
C654 C650 1.531 . S
C654 H666 0.960 . S
C654 H667 0.962 . S
C654 H668 0.960 . S
C655 C652 1.511 . S
C655 H669 0.961 . S
C655 H670 0.961 . S
C655 H671 0.961 . S
C656 C657 1.370 . S
C656 C658 1.363 . S
C656 H672 0.931 . S
C657 C656 1.370 . S
C657 C661 1.408 . S
C658 C656 1.363 . S
C658 C659 1.370 . S
C658 C662 1.524 . S
C659 C651 1.503 . S
C659 C658 1.370 . S
C659 C660 1.403 . S
C660 C659 1.403 . S
C660 C661 1.404 . S
C660 C663 1.539 1_545 S
C661 C657 1.408 . S
C661 C660 1.404 . S
C661 H673 0.930 . S
C662 C658 1.524 . S
C662 H674 0.956 . S
C662 H675 0.961 . S
C662 H676 0.961 . S
C663 C660 1.539 1_565 S
C663 H677 0.958 1_565 S
C663 H678 0.961 . S
C663 H679 0.960 . S
H664 C648 0.931 . S
H665 C653 0.929 . S
H666 C654 0.960 . S
H667 C654 0.962 . S
H668 C654 0.960 . S
H669 C655 0.961 . S
H670 C655 0.961 . S
H671 C655 0.961 . S
H672 C656 0.931 . S
H673 C661 0.930 . S
H674 C662 0.956 . S
H675 C662 0.961 . S
H676 C662 0.961 . S
H677 C663 0.958 1_545 S
H678 C663 0.961 . S
H679 C663 0.960 . S
C680 C681 1.391 . S
C680 C682 1.394 . S
C680 H696 0.931 . S
C681 C680 1.391 . S
C681 C685 1.376 . S
C682 C680 1.394 . S
C682 C683 1.369 . S
C682 C686 1.531 . S
C683 C682 1.369 . S
C683 C684 1.410 . S
C683 C691 1.503 . S
C684 C683 1.410 . S
C684 C685 1.392 . S
C684 C687 1.511 . S
C685 C681 1.376 . S
C685 C684 1.392 . S
C685 H697 0.929 . S
C686 C682 1.531 . S
C686 H698 0.960 . S
C686 H699 0.962 . S
C686 H700 0.960 . S
C687 C684 1.511 . S
C687 H701 0.961 . S
C687 H702 0.961 . S
C687 H703 0.961 . S
C688 C689 1.370 . S
C688 C690 1.363 . S
C688 H704 0.931 . S
C689 C688 1.370 . S
C689 C693 1.408 . S
C690 C688 1.363 . S
C690 C691 1.370 . S
C690 C694 1.524 1_556 S
C691 C683 1.503 . S
C691 C690 1.370 . S
C691 C692 1.403 . S
C692 C691 1.403 . S
C692 C693 1.404 . S
C692 C695 1.539 . S
C693 C689 1.408 . S
C693 C692 1.404 . S
C693 H705 0.930 . S
C694 C690 1.524 1_554 S
C694 H706 0.956 . S
C694 H707 0.961 . S
C694 H708 0.961 . S
C695 C692 1.539 . S
C695 H709 0.958 . S
C695 H710 0.961 . S
C695 H711 0.960 . S
H696 C680 0.931 . S
H697 C685 0.929 . S
H698 C686 0.960 . S
H699 C686 0.962 . S
H700 C686 0.960 . S
H701 C687 0.961 . S
H702 C687 0.961 . S
H703 C687 0.961 . S
H704 C688 0.931 . S
H705 C693 0.930 . S
H706 C694 0.956 . S
H707 C694 0.961 . S
H708 C694 0.961 . S
H709 C695 0.958 . S
H710 C695 0.961 . S
H711 C695 0.960 . S
C712 C713 1.391 . S
C712 C714 1.394 . S
C712 H728 0.931 . S
C713 C712 1.391 . S
C713 C717 1.376 . S
C714 C712 1.394 . S
C714 C715 1.369 . S
C714 C718 1.531 . S
C715 C714 1.369 . S
C715 C716 1.410 . S
C715 C723 1.503 . S
C716 C715 1.410 . S
C716 C717 1.392 . S
C716 C719 1.511 . S
C717 C713 1.376 . S
C717 C716 1.392 . S
C717 H729 0.929 . S
C718 C714 1.531 . S
C718 H730 0.960 . S
C718 H731 0.962 . S
C718 H732 0.960 . S
C719 C716 1.511 . S
C719 H733 0.961 . S
C719 H734 0.961 . S
C719 H735 0.961 . S
C720 C721 1.370 . S
C720 C722 1.363 . S
C720 H736 0.931 . S
C721 C720 1.370 . S
C721 C725 1.408 . S
C722 C720 1.363 . S
C722 C723 1.370 . S
C722 C726 1.524 . S
C723 C715 1.503 . S
C723 C722 1.370 . S
C723 C724 1.403 . S
C724 C723 1.403 . S
C724 C725 1.404 . S
C724 C727 1.539 . S
C725 C721 1.408 . S
C725 C724 1.404 . S
C725 H737 0.930 . S
C726 C722 1.524 . S
C726 H738 0.956 . S
C726 H739 0.961 . S
C726 H740 0.961 . S
C727 C724 1.539 . S
C727 H741 0.958 . S
C727 H742 0.961 . S
C727 H743 0.960 . S
H728 C712 0.931 . S
H729 C717 0.929 . S
H730 C718 0.960 . S
H731 C718 0.962 . S
H732 C718 0.960 . S
H733 C719 0.961 . S
H734 C719 0.961 . S
H735 C719 0.961 . S
H736 C720 0.931 . S
H737 C725 0.930 . S
H738 C726 0.956 . S
H739 C726 0.961 . S
H740 C726 0.961 . S
H741 C727 0.958 . S
H742 C727 0.961 . S
H743 C727 0.960 . S
C744 C745 1.413 . S
C744 C746 1.394 . S
C744 H760 0.931 . S
C745 C744 1.413 . S
C745 C749 1.355 1_455 S
C746 C744 1.394 . S
C746 C747 1.369 . S
C746 C750 1.531 . S
C747 C746 1.369 . S
C747 C748 1.410 1_455 S
C747 C755 1.503 1_554 S
C748 C747 1.410 1_655 S
C748 C749 1.392 . S
C748 C751 1.511 1_554 S
C749 C745 1.355 1_655 S
C749 C748 1.392 . S
C749 H761 0.929 . S
C750 C746 1.531 . S
C750 H762 0.960 . S
C750 H763 0.962 . S
C750 H764 0.960 . S
C751 C748 1.511 1_556 S
C751 H765 0.961 . S
C751 H766 0.961 . S
C751 H767 0.970 . S
C752 C753 1.370 . S
C752 C754 1.363 . S
C752 H768 0.931 . S
C753 C752 1.370 . S
C753 C757 1.422 1_556 S
C754 C752 1.363 . S
C754 C755 1.370 . S
C754 C758 1.524 . S
C755 C747 1.503 1_556 S
C755 C754 1.370 . S
C755 C756 1.403 1_456 S
C756 C755 1.403 1_654 S
C756 C757 1.402 1_655 S
C756 C759 1.539 . S
C757 C753 1.422 1_554 S
C757 C756 1.402 1_455 S
C757 H769 0.920 1_455 S
C758 C754 1.524 . S
C758 H770 0.956 . S
C758 H771 0.961 . S
C758 H772 0.961 . S
C759 C756 1.539 . S
C759 H773 0.958 . S
C759 H774 0.961 . S
C759 H775 0.960 . S
H760 C744 0.931 . S
H761 C749 0.929 . S
H762 C750 0.960 . S
H763 C750 0.962 . S
H764 C750 0.960 . S
H765 C751 0.961 . S
H766 C751 0.961 . S
H767 C751 0.970 . S
H768 C752 0.931 . S
H769 C757 0.920 1_655 S
H770 C758 0.956 . S
H771 C758 0.961 . S
H772 C758 0.961 . S
H773 C759 0.958 . S
H774 C759 0.961 . S
H775 C759 0.960 . S
C776 C777 1.391 1_566 S
C776 C778 1.394 . S
C776 H792 0.931 . S
C777 C776 1.391 1_544 S
C777 C781 1.376 . S
C778 C776 1.394 . S
C778 C779 1.369 1_565 S
C778 C782 1.531 . S
C779 C778 1.369 1_545 S
C779 C780 1.410 1_556 S
C779 C787 1.503 . S
C780 C779 1.410 1_554 S
C780 C781 1.392 . S
C780 C783 1.511 . S
C781 C777 1.376 . S
C781 C780 1.392 . S
C781 H793 0.929 . S
C782 C778 1.531 . S
C782 H794 0.960 . S
C782 H795 0.962 . S
C782 H796 0.960 . S
C783 C780 1.511 . S
C783 H797 0.961 . S
C783 H798 0.961 . S
C783 H799 0.961 . S
C784 C785 1.370 1_565 S
C784 C786 1.363 . S
C784 H800 0.931 . S
C785 C784 1.370 1_545 S
C785 C789 1.408 . S
C786 C784 1.363 . S
C786 C787 1.370 1_565 S
C786 C790 1.524 1_556 S
C787 C779 1.503 . S
C787 C786 1.370 1_545 S
C787 C788 1.403 . S
C788 C787 1.403 . S
C788 C789 1.404 . S
C788 C791 1.539 . S
C789 C785 1.408 . S
C789 C788 1.404 . S
C789 H801 0.930 . S
C790 C786 1.524 1_554 S
C790 H802 0.956 1_554 S
C790 H803 0.961 . S
C790 H804 0.961 . S
C791 C788 1.539 . S
C791 H805 0.958 . S
C791 H806 0.961 . S
C791 H807 0.960 . S
H792 C776 0.931 . S
H793 C781 0.929 . S
H794 C782 0.960 . S
H795 C782 0.962 . S
H796 C782 0.960 . S
H797 C783 0.961 . S
H798 C783 0.961 . S
H799 C783 0.961 . S
H800 C784 0.931 . S
H801 C789 0.930 . S
H802 C790 0.956 1_556 S
H803 C790 0.961 . S
H804 C790 0.961 . S
H805 C791 0.958 . S
H806 C791 0.961 . S
H807 C791 0.960 . S
C808 C809 1.391 . S
C808 C810 1.394 . S
C808 H824 0.931 . S
C809 C808 1.391 . S
C809 C813 1.376 . S
C810 C808 1.394 . S
C810 C811 1.369 . S
C810 C814 1.531 . S
C811 C810 1.369 . S
C811 C812 1.410 . S
C811 C819 1.503 . S
C812 C811 1.410 . S
C812 C813 1.392 . S
C812 C815 1.511 . S
C813 C809 1.376 . S
C813 C812 1.392 . S
C813 H825 0.929 . S
C814 C810 1.531 . S
C814 H826 0.960 . S
C814 H827 0.962 . S
C814 H828 0.960 . S
C815 C812 1.511 . S
C815 H829 0.961 . S
C815 H830 0.961 . S
C815 H831 0.961 . S
C816 C817 1.370 . S
C816 C818 1.363 . S
C816 H832 0.931 . S
C817 C816 1.370 . S
C817 C821 1.408 . S
C818 C816 1.363 . S
C818 C819 1.370 . S
C818 C822 1.524 . S
C819 C811 1.503 . S
C819 C818 1.370 . S
C819 C820 1.403 . S
C820 C819 1.403 . S
C820 C821 1.404 . S
C820 C823 1.539 . S
C821 C817 1.408 . S
C821 C820 1.404 . S
C821 H833 0.930 . S
C822 C818 1.524 . S
C822 H834 0.956 . S
C822 H835 0.961 . S
C822 H836 0.961 . S
C823 C820 1.539 . S
C823 H837 0.958 . S
C823 H838 0.961 . S
C823 H839 0.960 . S
H824 C808 0.931 . S
H825 C813 0.929 . S
H826 C814 0.960 . S
H827 C814 0.962 . S
H828 C814 0.960 . S
H829 C815 0.961 . S
H830 C815 0.961 . S
H831 C815 0.961 . S
H832 C816 0.931 . S
H833 C821 0.930 . S
H834 C822 0.956 . S
H835 C822 0.961 . S
H836 C822 0.961 . S
H837 C823 0.958 . S
H838 C823 0.961 . S
H839 C823 0.960 . S
C840 C841 1.391 1_556 S
C840 C842 1.394 . S
C840 H856 0.931 . S
C841 C840 1.391 1_554 S
C841 C845 1.376 . S
C842 C840 1.394 . S
C842 C843 1.369 . S
C842 C846 1.531 . S
C843 C842 1.369 . S
C843 C844 1.410 1_556 S
C843 C851 1.503 . S
C844 C843 1.410 1_554 S
C844 C845 1.392 . S
C844 C847 1.511 . S
C845 C841 1.376 . S
C845 C844 1.392 . S
C845 H857 0.929 . S
C846 C842 1.531 . S
C846 H858 0.960 . S
C846 H859 0.962 . S
C846 H860 0.960 . S
C847 C844 1.511 . S
C847 H861 0.961 . S
C847 H862 0.961 . S
C847 H863 0.961 . S
C848 C849 1.370 . S
C848 C850 1.363 . S
C848 H864 0.931 . S
C849 C848 1.370 . S
C849 C853 1.408 . S
C850 C848 1.363 . S
C850 C851 1.370 . S
C850 C854 1.524 . S
C851 C843 1.503 . S
C851 C850 1.370 . S
C851 C852 1.403 . S
C852 C851 1.403 . S
C852 C853 1.404 . S
C852 C855 1.539 1_556 S
C853 C849 1.408 . S
C853 C852 1.404 . S
C853 H865 0.930 . S
C854 C850 1.524 . S
C854 H866 0.956 . S
C854 H867 0.961 . S
C854 H868 0.961 . S
C855 C852 1.539 1_554 S
C855 H869 0.958 1_554 S
C855 H870 0.961 . S
C855 H871 0.960 . S
H856 C840 0.931 . S
H857 C845 0.929 . S
H858 C846 0.960 . S
H859 C846 0.962 . S
H860 C846 0.960 . S
H861 C847 0.961 . S
H862 C847 0.961 . S
H863 C847 0.961 . S
H864 C848 0.931 . S
H865 C853 0.930 . S
H866 C854 0.956 . S
H867 C854 0.961 . S
H868 C854 0.961 . S
H869 C855 0.958 1_556 S
H870 C855 0.961 . S
H871 C855 0.960 . S
C872 C873 1.391 . S
C872 C874 1.394 . S
C872 H888 0.931 . S
C873 C872 1.391 . S
C873 C877 1.376 1_655 S
C874 C872 1.394 . S
C874 C875 1.369 . S
C874 C878 1.531 . S
C875 C874 1.369 . S
C875 C876 1.410 1_655 S
C875 C883 1.503 . S
C876 C875 1.410 1_455 S
C876 C877 1.392 . S
C876 C879 1.511 . S
C877 C873 1.376 1_455 S
C877 C876 1.392 . S
C877 H889 0.929 . S
C878 C874 1.531 . S
C878 H890 0.960 . S
C878 H891 0.962 . S
C878 H892 0.960 . S
C879 C876 1.511 . S
C879 H893 0.961 . S
C879 H894 0.961 . S
C879 H895 0.961 . S
C880 C881 1.370 . S
C880 C882 1.363 . S
C880 H896 0.931 . S
C881 C880 1.370 . S
C881 C885 1.408 . S
C882 C880 1.363 . S
C882 C883 1.370 . S
C882 C886 1.524 1_655 S
C883 C875 1.503 . S
C883 C882 1.370 . S
C883 C884 1.403 . S
C884 C883 1.403 . S
C884 C885 1.404 . S
C884 C887 1.539 . S
C885 C881 1.408 . S
C885 C884 1.404 . S
C885 H897 0.930 . S
C886 C882 1.524 1_455 S
C886 H898 0.956 1_455 S
C886 H899 0.961 . S
C886 H900 0.961 . S
C887 C884 1.539 . S
C887 H901 0.958 . S
C887 H902 0.961 . S
C887 H903 0.960 . S
H888 C872 0.931 . S
H889 C877 0.929 . S
H890 C878 0.960 . S
H891 C878 0.962 . S
H892 C878 0.960 . S
H893 C879 0.961 . S
H894 C879 0.961 . S
H895 C879 0.961 . S
H896 C880 0.931 . S
H897 C885 0.930 . S
H898 C886 0.956 1_655 S
H899 C886 0.961 . S
H900 C886 0.961 . S
H901 C887 0.958 . S
H902 C887 0.961 . S
H903 C887 0.960 . S
C904 C905 1.404 . S
C904 C906 1.394 . S
C904 H920 0.931 . S
C905 C904 1.404 . S
C905 C909 1.363 1_545 S
C906 C904 1.394 . S
C906 C907 1.369 . S
C906 C910 1.531 . S
C907 C906 1.369 . S
C907 C908 1.410 1_545 S
C907 C915 1.500 1_545 S
C908 C907 1.410 1_565 S
C908 C909 1.392 . S
C908 C911 1.511 . S
C909 C905 1.363 1_565 S
C909 C908 1.392 . S
C909 H921 0.929 . S
C910 C906 1.531 . S
C910 H922 0.960 . S
C910 H923 0.962 . S
C910 H924 0.960 . S
C911 C908 1.511 . S
C911 H925 0.961 . S
C911 H926 0.961 . S
C911 H927 0.961 . S
C912 C913 1.370 . S
C912 C914 1.363 . S
C912 H928 0.931 . S
C913 C912 1.370 . S
C913 C917 1.408 1_565 S
C914 C912 1.363 . S
C914 C915 1.387 . S
C914 C918 1.524 . S
C915 C907 1.500 1_565 S
C915 C914 1.387 . S
C915 C916 1.389 1_565 S
C916 C915 1.389 1_545 S
C916 C917 1.404 . S
C916 C919 1.539 . S
C917 C913 1.408 1_545 S
C917 C916 1.404 . S
C917 H929 0.930 . S
C918 C914 1.524 . S
C918 H930 0.956 . S
C918 H931 0.961 . S
C918 H932 0.961 . S
C919 C916 1.539 . S
C919 H933 0.958 . S
C919 H934 0.961 . S
C919 H935 0.960 . S
H920 C904 0.931 . S
H921 C909 0.929 . S
H922 C910 0.960 . S
H923 C910 0.962 . S
H924 C910 0.960 . S
H925 C911 0.961 . S
H926 C911 0.961 . S
H927 C911 0.961 . S
H928 C912 0.931 . S
H929 C917 0.930 . S
H930 C918 0.956 . S
H931 C918 0.961 . S
H932 C918 0.961 . S
H933 C919 0.958 . S
H934 C919 0.961 . S
H935 C919 0.960 . S
C936 C937 1.391 . S
C936 C938 1.394 . S
C936 H952 0.931 . S
C937 C936 1.391 . S
C937 C941 1.376 . S
C938 C936 1.394 . S
C938 C939 1.369 . S
C938 C942 1.531 . S
C939 C938 1.369 . S
C939 C940 1.410 . S
C939 C947 1.503 . S
C940 C939 1.410 . S
C940 C941 1.392 . S
C940 C943 1.511 . S
C941 C937 1.376 . S
C941 C940 1.392 . S
C941 H953 0.929 . S
C942 C938 1.531 . S
C942 H954 0.960 . S
C942 H955 0.962 . S
C942 H956 0.960 . S
C943 C940 1.511 . S
C943 H957 0.961 . S
C943 H958 0.961 . S
C943 H959 0.961 . S
C944 C945 1.370 . S
C944 C946 1.363 . S
C944 H960 0.931 . S
C945 C944 1.370 . S
C945 C949 1.408 . S
C946 C944 1.363 . S
C946 C947 1.370 . S
C946 C950 1.524 . S
C947 C939 1.503 . S
C947 C946 1.370 . S
C947 C948 1.403 . S
C948 C947 1.403 . S
C948 C949 1.404 . S
C948 C951 1.539 . S
C949 C945 1.408 . S
C949 C948 1.404 . S
C949 H961 0.930 . S
C950 C946 1.524 . S
C950 H962 0.956 . S
C950 H963 0.961 . S
C950 H964 0.961 . S
C951 C948 1.539 . S
C951 H965 0.958 . S
C951 H966 0.961 . S
C951 H967 0.960 . S
H952 C936 0.931 . S
H953 C941 0.929 . S
H954 C942 0.960 . S
H955 C942 0.962 . S
H956 C942 0.960 . S
H957 C943 0.961 . S
H958 C943 0.961 . S
H959 C943 0.961 . S
H960 C944 0.931 . S
H961 C949 0.930 . S
H962 C950 0.956 . S
H963 C950 0.961 . S
H964 C950 0.961 . S
H965 C951 0.958 . S
H966 C951 0.961 . S
H967 C951 0.960 . S
C968 C969 1.391 . S
C968 C970 1.394 . S
C968 H984 0.931 . S
C969 C968 1.391 . S
C969 C973 1.376 . S
C970 C968 1.394 . S
C970 C971 1.369 . S
C970 C974 1.531 . S
C971 C970 1.369 . S
C971 C972 1.410 . S
C971 C979 1.503 . S
C972 C971 1.410 . S
C972 C973 1.392 . S
C972 C975 1.511 . S
C973 C969 1.376 . S
C973 C972 1.392 . S
C973 H985 0.929 . S
C974 C970 1.531 . S
C974 H986 0.960 . S
C974 H987 0.962 . S
C974 H988 0.960 . S
C975 C972 1.511 . S
C975 H989 0.961 . S
C975 H990 0.961 . S
C975 H991 0.961 . S
C976 C977 1.370 . S
C976 C978 1.363 . S
C976 H992 0.931 . S
C977 C976 1.370 . S
C977 C981 1.408 . S
C978 C976 1.363 . S
C978 C979 1.370 . S
C978 C982 1.524 . S
C979 C971 1.503 . S
C979 C978 1.370 . S
C979 C980 1.403 . S
C980 C979 1.403 . S
C980 C981 1.404 . S
C980 C983 1.539 . S
C981 C977 1.408 . S
C981 C980 1.404 . S
C981 H993 0.930 . S
C982 C978 1.524 . S
C982 H994 0.956 . S
C982 H995 0.961 . S
C982 H996 0.961 . S
C983 C980 1.539 . S
C983 H997 0.958 . S
C983 H998 0.961 . S
C983 H999 0.960 . S
H984 C968 0.931 . S
H985 C973 0.929 . S
H986 C974 0.960 . S
H987 C974 0.962 . S
H988 C974 0.960 . S
H989 C975 0.961 . S
H990 C975 0.961 . S
H991 C975 0.961 . S
H992 C976 0.931 . S
H993 C981 0.930 . S
H994 C982 0.956 . S
H995 C982 0.961 . S
H996 C982 0.961 . S
H997 C983 0.958 . S
H998 C983 0.961 . S
H999 C983 0.960 . S
C233 C61 1.806 . S
C241 C95 1.977 1_545 S
C273 C135 1.587 . S
C265 C70 1.581 . S
C305 C154 2.024 . S
C297 C43 1.904 . S
C337 C215 1.414 1_455 S
C329 C52 1.292 1_455 S
C369 C74 1.975 1_565 S
C361 C25 1.849 1_545 S
C393 C34 1.577 . S
C401 C114 1.592 . S
C425 C7 1.878 . S
C433 C175 2.023 . S
C457 C16 1.327 1_455 S
C465 C194 1.396 1_655 S
C497 C76 0.812 . S
C489 C50 0.826 . S
C529 C116 0.345 . S
C521 C59 0.160 1_545 S
C561 C172 0.648 . S
C553 C67 0.749 . S
C585 C41 0.445 . S
C593 C196 0.465 . S
C617 C14 0.860 . S
C625 C97 0.817 . S
C657 C137 0.285 . S
C649 C23 0.332 . S
C689 C183 0.633 . S
C681 C31 0.758 . S
C713 C5 0.327 . S
C721 C217 0.497 . S
C745 C49 1.494 1_455 S
C753 C92 1.675 . S
C777 C58 2.143 1_545 S
C785 C132 2.355 . S
C817 C156 1.661 . S
C809 C68 1.653 . S
C849 C212 2.334 . S
C841 C40 2.099 . S
C873 C13 1.577 . S
C881 C103 1.693 . S
C913 C143 2.351 . S
C905 C22 2.105 1_545 S
C945 C177 1.650 . S
C937 C32 1.676 . S
C969 C4 2.120 . S
C977 C223 2.328 . S
