# Generated by pormake.
# Topology zzz, (3,6)-cn, num edge types: 1
# Building blocks:
#     Node 0, Type 0, BuildingBlock: ESEHIV_clean_linker_0, # of connection points: 3
#     Node 1, Type 0, BuildingBlock: ESEHIV_clean_linker_0, # of connection points: 3
#     Node 2, Type 0, BuildingBlock: ESEHIV_clean_linker_0, # of connection points: 3
#     Node 3, Type 0, BuildingBlock: ESEHIV_clean_linker_0, # of connection points: 3
#     Node 4, Type 0, BuildingBlock: ESEHIV_clean_linker_0, # of connection points: 3
#     Node 5, Type 0, BuildingBlock: ESEHIV_clean_linker_0, # of connection points: 3
#     Node 6, Type 0, BuildingBlock: ESEHIV_clean_linker_0, # of connection points: 3
#     Node 7, Type 0, BuildingBlock: ESEHIV_clean_linker_0, # of connection points: 3
#     Node 8, Type 1, BuildingBlock: NUHQIS_clean_sbu_0, # of connection points: 6
#     Node 9, Type 1, BuildingBlock: NUHQIS_clean_sbu_0, # of connection points: 6
#     Node 10, Type 1, BuildingBlock: NUHQIS_clean_sbu_0, # of connection points: 6
#     Node 11, Type 1, BuildingBlock: NUHQIS_clean_sbu_0, # of connection points: 6
#     Edge 12, Type (0, 1), BuildingBlock: UVAHIK_clean_linker_0, # of connection points: 2
#     Edge 13, Type (0, 1), BuildingBlock: UVAHIK_clean_linker_0, # of connection points: 2
#     Edge 14, Type (0, 1), BuildingBlock: UVAHIK_clean_linker_0, # of connection points: 2
#     Edge 15, Type (0, 1), BuildingBlock: UVAHIK_clean_linker_0, # of connection points: 2
#     Edge 16, Type (0, 1), BuildingBlock: UVAHIK_clean_linker_0, # of connection points: 2
#     Edge 17, Type (0, 1), BuildingBlock: UVAHIK_clean_linker_0, # of connection points: 2
#     Edge 18, Type (0, 1), BuildingBlock: UVAHIK_clean_linker_0, # of connection points: 2
#     Edge 19, Type (0, 1), BuildingBlock: UVAHIK_clean_linker_0, # of connection points: 2
#     Edge 20, Type (0, 1), BuildingBlock: UVAHIK_clean_linker_0, # of connection points: 2
#     Edge 21, Type (0, 1), BuildingBlock: UVAHIK_clean_linker_0, # of connection points: 2
#     Edge 22, Type (0, 1), BuildingBlock: UVAHIK_clean_linker_0, # of connection points: 2
#     Edge 23, Type (0, 1), BuildingBlock: UVAHIK_clean_linker_0, # of connection points: 2
#     Edge 24, Type (0, 1), BuildingBlock: UVAHIK_clean_linker_0, # of connection points: 2
#     Edge 25, Type (0, 1), BuildingBlock: UVAHIK_clean_linker_0, # of connection points: 2
#     Edge 26, Type (0, 1), BuildingBlock: UVAHIK_clean_linker_0, # of connection points: 2
#     Edge 27, Type (0, 1), BuildingBlock: UVAHIK_clean_linker_0, # of connection points: 2
#     Edge 28, Type (0, 1), BuildingBlock: UVAHIK_clean_linker_0, # of connection points: 2
#     Edge 29, Type (0, 1), BuildingBlock: UVAHIK_clean_linker_0, # of connection points: 2
#     Edge 30, Type (0, 1), BuildingBlock: UVAHIK_clean_linker_0, # of connection points: 2
#     Edge 31, Type (0, 1), BuildingBlock: UVAHIK_clean_linker_0, # of connection points: 2
#     Edge 32, Type (0, 1), BuildingBlock: UVAHIK_clean_linker_0, # of connection points: 2
#     Edge 33, Type (0, 1), BuildingBlock: UVAHIK_clean_linker_0, # of connection points: 2
#     Edge 34, Type (0, 1), BuildingBlock: UVAHIK_clean_linker_0, # of connection points: 2
#     Edge 35, Type (0, 1), BuildingBlock: UVAHIK_clean_linker_0, # of connection points: 2
# Relax obj value: 0.419
# Max RMSD: 0.254
# Mean RMSD: 0.232
data_MOF--net-zzz--node1-NUHQIS_clean_sbu_0--node2-ESEHIV_clean_linker_0--edge1-UVAHIK_clean_linker_0
_symmetry_space_group_name_H-M    P1
_symmetry_Int_Tables_number       1
_symmetry_cell_setting            triclinic
loop_
_symmetry_equiv_pos_as_xyz
'x, y, z'
_cell_length_a     60.153204
_cell_length_b     60.164283
_cell_length_c     19.221488
_cell_angle_alpha  90.039054
_cell_angle_beta   90.021398
_cell_angle_gamma 89.971795
loop_
_atom_site_label
_atom_site_type_symbol
_atom_site_fract_x
_atom_site_fract_y
_atom_site_fract_z
_atom_type_partial_charge
H0 H 0.76764 0.46535 0.30965 0.0
H1 H 0.70495 0.46215 0.20258 0.0
H2 H 0.71905 0.51655 0.34178 0.0
C3 C 0.75102 0.47163 0.30027 0.0
C4 C 0.74453 0.49119 0.33422 0.0
C5 C 0.73715 0.46113 0.25155 0.0
C6 C 0.71599 0.47013 0.23948 0.0
C7 C 0.70934 0.49021 0.27074 0.0
C8 C 0.72384 0.50095 0.31791 0.0
H9 H 0.01997 0.77643 0.262 0.0
H10 H 0.01398 0.71725 0.13885 0.0
H11 H 0.98611 0.71928 0.34542 0.0
C12 C 0.01399 0.75954 0.25584 0.0
C13 C 1.00241 0.74949 0.31083 0.0
C14 C 0.01815 0.74818 0.19357 0.0
C15 C 0.01082 0.72624 0.18676 0.0
C16 C 0.99939 0.71564 0.24105 0.0
C17 C 0.99484 0.72738 0.30318 0.0
H18 H 0.72642 0.03745 0.33571 0.0
H19 H 0.78125 0.04144 0.19369 0.0
H20 H 0.78348 0.99556 0.36632 0.0
C21 C 0.74281 0.03204 0.31926 0.0
C22 C 0.75361 0.01547 0.35741 0.0
C23 C 0.75238 0.04123 0.25954 0.0
C24 C 0.77385 0.03462 0.24045 0.0
C25 C 0.78549 0.01846 0.27905 0.0
C26 C 0.77501 0.0084 0.33702 0.0
H27 H 0.48829 0.73113 0.30006 0.0
H28 H 0.52339 0.79127 0.35102 0.0
H29 H 0.48006 0.78883 0.17185 0.0
C30 C 0.49228 0.74831 0.28825 0.0
C31 C 0.48265 0.75852 0.23028 0.0
C32 C 0.50704 0.75974 0.33161 0.0
C33 C 0.51204 0.78224 0.31759 0.0
C34 C 0.50178 0.79302 0.26047 0.0
C35 C 0.48729 0.7809 0.21717 0.0
H36 H 0.22545 0.53743 0.11576 0.0
H37 H 0.28402 0.53681 0.24301 0.0
H38 H 0.2832 0.50094 0.04863 0.0
C39 C 0.24237 0.53195 0.1249 0.0
C40 C 0.25277 0.51837 0.07527 0.0
C41 C 0.25333 0.53851 0.18581 0.0
C42 C 0.27539 0.53191 0.19588 0.0
C43 C 0.28645 0.51861 0.14665 0.0
C44 C 0.27489 0.5113 0.08672 0.0
H45 H 0.01451 0.22542 0.1514 0.0
H46 H 0.02202 0.28855 0.25206 0.0
H47 H 0.02062 0.28481 0.02789 0.0
C48 C 0.01728 0.24321 0.14815 0.0
C49 C 0.01803 0.25333 0.08247 0.0
C50 C 0.01851 0.25576 0.20937 0.0
C51 C 0.02133 0.27872 0.20475 0.0
C52 C 0.02224 0.28936 0.13991 0.0
C53 C 0.02061 0.27666 0.07811 0.0
H54 H 0.27584 0.976 0.16588 0.0
H55 H 0.21527 0.98248 0.28057 0.0
H56 H 0.22207 0.01537 0.08212 0.0
C57 C 0.25905 0.98249 0.16933 0.0
C58 C 0.25053 0.99586 0.11563 0.0
C59 C 0.24637 0.97765 0.22822 0.0
C60 C 0.22495 0.98621 0.23441 0.0
C61 C 0.21605 0.99993 0.18238 0.0
C62 C 0.22887 1.00484 0.12257 0.0
H63 H 0.55879 0.27616 0.08511 0.0
H64 H 0.50397 0.23037 0.07576 0.0
H65 H 0.55825 0.2188 0.21785 0.0
C66 C 0.55122 0.26063 0.10125 0.0
C67 C 0.56106 0.24817 0.15459 0.0
C68 C 0.53076 0.25441 0.0722 0.0
C69 C 0.52 0.23511 0.09676 0.0
C70 C 0.5303 0.22182 0.14808 0.0
C71 C 0.55074 0.22854 0.17659 0.0
Tb72 Tb 0.01626 0.99215 0.758 0.0
Eu73 Eu 0.97544 0.00657 0.65637 0.0
C74 C 0.02517 1.00436 0.60245 0.0
C75 C 1.00125 0.04288 0.74996 0.0
C76 C 0.06253 0.95864 0.8189 0.0
C77 C 0.07051 0.92524 0.75251 0.0
C78 C 0.06082 0.94627 0.75717 0.0
C79 C 0.07521 0.95044 0.87421 0.0
C80 C 0.0849 0.92939 0.86964 0.0
C81 C 0.08192 0.91621 0.80972 0.0
C82 C 0.04877 0.9785 0.82847 0.0
O83 O 0.98868 0.99999 0.82751 0.0
O84 O 0.96149 0.98988 0.75173 0.0
O85 O 0.98405 0.97184 0.62269 0.0
O86 O 1.00092 0.96084 0.7242 0.0
C87 C 0.96806 0.99402 0.81541 0.0
O88 O 0.93959 0.0098 0.64291 0.0
O89 O 0.96155 0.01931 0.55915 0.0
O90 O 0.00724 0.01678 0.6024 0.0
O91 O 0.02824 0.98953 0.65147 0.0
O92 O 0.01748 0.02852 0.76005 0.0
O93 O 0.98242 0.0371 0.72054 0.0
C94 C 0.99189 0.95614 0.6634 0.0
O95 O 0.05043 0.99356 0.78001 0.0
O96 O 0.0281 0.97439 0.84422 0.0
C97 C 0.93182 0.04311 0.58386 0.0
C98 C 0.92446 0.08922 0.57807 0.0
C99 C 0.92735 0.07863 0.64249 0.0
C100 C 0.93112 0.05579 0.64535 0.0
C101 C 0.9269 0.05327 0.52024 0.0
C102 C 0.92322 0.07617 0.51729 0.0
C103 C 0.94152 0.02071 0.58472 0.0
H104 H 0.06804 0.91556 0.7056 0.0
H105 H 0.05099 0.95236 0.71395 0.0
H106 H 0.07654 0.95975 0.92232 0.0
H107 H 0.09329 0.92282 0.91506 0.0
H108 H 0.92817 0.0882 0.69018 0.0
H109 H 0.93497 0.04836 0.69525 0.0
H110 H 0.92754 0.04381 0.47228 0.0
H111 H 0.92131 0.08382 0.46666 0.0
Tb112 Tb 0.50584 0.03034 0.76032 0.0
Eu113 Eu 0.49303 0.98933 0.6571 0.0
C114 C 0.49494 0.03854 0.60499 0.0
C115 C 0.45588 0.01413 0.75085 0.0
C116 C 0.53842 0.07343 0.85101 0.0
C117 C 0.56147 0.10587 0.87213 0.0
C118 C 0.54068 0.09651 0.85799 0.0
C119 C 0.55717 0.05977 0.85771 0.0
C120 C 0.57788 0.06906 0.87242 0.0
C121 C 0.58033 0.09224 0.87962 0.0
C122 C 0.5169 0.06398 0.83085 0.0
O123 O 0.51628 0.99999 0.8145 0.0
O124 O 0.48959 0.97764 0.76753 0.0
O125 O 0.53044 0.98832 0.66351 0.0
O126 O 0.5368 0.02364 0.70478 0.0
C127 C 0.50394 0.98196 0.81699 0.0
O128 O 0.4942 0.9539 0.63277 0.0
O129 O 0.4772 0.97666 0.56333 0.0
O130 O 0.50234 0.01863 0.59035 0.0
O131 O 0.48859 0.04311 0.66865 0.0
O132 O 0.47182 0.02226 0.79031 0.0
O133 O 0.46021 1.00442 0.69093 0.0
C134 C 0.54394 1.00496 0.67691 0.0
O135 O 0.51297 0.0644 0.76436 0.0
O136 O 0.51155 0.04488 0.85825 0.0
C137 C 0.46138 0.94151 0.57924 0.0
C138 C 0.42156 0.91723 0.56778 0.0
C139 C 0.44044 0.91107 0.52887 0.0
C140 C 0.46018 0.92322 0.53437 0.0
C141 C 0.44316 0.94682 0.62149 0.0
C142 C 0.4234 0.93485 0.6157 0.0
C143 C 0.48102 0.9559 0.57923 0.0
H144 H 0.56277 0.12376 0.87661 0.0
H145 H 0.5264 0.10731 0.85161 0.0
H146 H 0.55582 0.04193 0.85132 0.0
H147 H 0.59188 0.05797 0.87929 0.0
H148 H 0.43969 0.89741 0.49223 0.0
H149 H 0.47424 0.9188 0.50192 0.0
H150 H 0.44389 0.96086 0.65677 0.0
H151 H 0.40921 0.94035 0.64576 0.0
Tb152 Tb 0.48775 0.51028 0.72297 0.0
Eu153 Eu 0.52878 0.49686 0.61853 0.0
C154 C 0.47891 0.49744 0.56966 0.0
C155 C 0.50464 0.46033 0.71757 0.0
C156 C 0.44526 0.54358 0.81377 0.0
C157 C 0.41357 0.56711 0.83997 0.0
C158 C 0.42237 0.54619 0.82435 0.0
C159 C 0.4593 0.5621 0.81818 0.0
C160 C 0.45058 0.58295 0.83424 0.0
C161 C 0.42759 0.58575 0.84524 0.0
C162 C 0.45412 0.52194 0.79253 0.0
O163 O 0.51785 0.5205 0.77841 0.0
O164 O 0.54201 0.49586 0.72791 0.0
O165 O 0.52978 0.53428 0.62277 0.0
O166 O 0.49475 0.54096 0.66623 0.0
C167 C 0.53684 0.5096 0.77847 0.0
O168 O 0.5642 0.49646 0.59234 0.0
O169 O 0.5401 0.48191 0.52186 0.0
O170 O 0.49869 0.50469 0.55286 0.0
O171 O 0.47476 0.4919 0.63423 0.0
O172 O 0.49553 0.47641 0.75429 0.0
O173 O 0.51521 0.46416 0.65872 0.0
C174 C 0.51333 0.5479 0.63725 0.0
O175 O 0.45392 0.51853 0.72573 0.0
O176 O 0.47292 0.51583 0.8205 0.0
C177 C 0.57515 0.46458 0.52922 0.0
C178 C 0.6009 0.42626 0.5029 0.0
C179 C 0.60993 0.44763 0.49304 0.0
C180 C 0.59711 0.46661 0.5058 0.0
C181 C 0.56646 0.4434 0.54279 0.0
C182 C 0.57912 0.42446 0.5293 0.0
C183 C 0.56113 0.48447 0.5366 0.0
H184 H 0.3958 0.56871 0.84747 0.0
H185 H 0.41127 0.53208 0.81978 0.0
H186 H 0.477 0.56045 0.80904 0.0
H187 H 0.46197 0.59679 0.83928 0.0
H188 H 0.62674 0.44971 0.47399 0.0
H189 H 0.60416 0.48287 0.49581 0.0
H190 H 0.54959 0.44144 0.56155 0.0
H191 H 0.57134 0.40841 0.53655 0.0
Tb192 Tb 0.99647 0.48329 0.73215 0.0
Eu193 Eu 0.01012 0.52494 0.63231 0.0
C194 C 0.00923 0.47567 0.57604 0.0
C195 C 0.0469 0.49868 0.72244 0.0
C196 C 0.96284 0.44476 0.83548 0.0
C197 C 0.93928 0.41923 0.89956 0.0
C198 C 0.96024 0.42514 0.87383 0.0
C199 C 0.94438 0.45832 0.82246 0.0
C200 C 0.92351 0.45241 0.84759 0.0
C201 C 0.92073 0.43292 0.88702 0.0
C202 C 0.98454 0.45096 0.80711 0.0
O203 O 0.98502 0.51364 0.78401 0.0
O204 O 0.0133 0.53516 0.7444 0.0
O205 O 0.9726 0.52508 0.63131 0.0
O206 O 0.966 0.48997 0.67404 0.0
C207 C 0.99799 0.53104 0.79094 0.0
O208 O 0.00856 0.56057 0.61225 0.0
O209 O 0.02721 0.5391 0.54284 0.0
O210 O 1.00289 0.496 0.56161 0.0
O211 O 0.01335 0.46981 0.64067 0.0
O212 O 0.03086 0.49051 0.76137 0.0
O213 O 0.04268 0.50911 0.66379 0.0
C214 C 0.95911 0.50836 0.64383 0.0
O215 O 0.98589 0.45018 0.73955 0.0
O216 O 0.99307 0.46927 0.83169 0.0
C217 C 0.04236 0.57394 0.56767 0.0
C218 C 0.08377 0.59564 0.57056 0.0
C219 C 0.07634 0.5836 0.62877 0.0
C220 C 0.05583 0.57275 0.62719 0.0
C221 C 0.04897 0.58709 0.5114 0.0
C222 C 0.06951 0.59791 0.51282 0.0
C223 C 0.02285 0.55953 0.56126 0.0
H224 H 0.93768 0.40422 0.9302 0.0
H225 H 0.97438 0.41446 0.88401 0.0
H226 H 0.94613 0.4735 0.79268 0.0
H227 H 0.90952 0.4631 0.83583 0.0
H228 H 0.08685 0.58168 0.67415 0.0
H229 H 0.05096 0.56257 0.67111 0.0
H230 H 0.0388 0.58805 0.46497 0.0
H231 H 0.07482 0.60674 0.46666 0.0
C232 C 0.17498 0.99727 0.16626 0.0
C233 C 0.19332 0.00864 0.194 0.0
C234 C 0.15375 1.00012 0.19517 0.0
C235 C 0.12061 0.03321 0.3244 0.0
H236 H 0.09315 0.97624 0.36269 0.0
C237 C 0.04104 0.02355 0.49648 0.0
C238 C 0.04195 0.00629 0.54582 0.0
C239 C 0.05735 0.02532 0.44443 0.0
C240 C 0.10056 0.99232 0.35245 0.0
H241 H 0.20378 0.03269 0.27088 0.0
H242 H 0.16688 0.03796 0.32081 0.0
H243 H 0.12493 0.97814 0.28475 0.0
H244 H 0.06074 0.97729 0.57842 0.0
H245 H 0.08887 0.98037 0.48836 0.0
H246 H 0.09666 0.04717 0.39477 0.0
C247 C 0.16861 0.02704 0.27634 0.0
C248 C 0.11865 0.99346 0.30686 0.0
C249 C 0.1898 0.02413 0.24756 0.0
C250 C 0.05941 0.99079 0.54139 0.0
C251 C 0.07553 0.99246 0.48927 0.0
C252 C 0.10239 0.03207 0.36989 0.0
C253 C 0.15048 0.01433 0.25264 0.0
C254 C 0.12927 0.01385 0.29328 0.0
C255 C 0.07478 0.00974 0.44009 0.0
C256 C 0.09248 0.01151 0.38582 0.0
H257 H 0.17736 0.9849 0.12595 0.0
H258 H 0.14013 0.9903 0.17486 0.0
H259 H 0.12822 0.04922 0.31477 0.0
H260 H 0.02786 0.03579 0.49838 0.0
H261 H 0.05621 0.03878 0.40721 0.0
C262 C 0.50137 0.20286 0.22052 0.0
C263 C 0.51985 0.2014 0.17616 0.0
C264 C 0.49474 0.18442 0.26006 0.0
C265 C 0.50084 0.1233 0.28029 0.0
H266 H 0.49544 0.13573 0.47742 0.0
C267 C 0.50583 0.05356 0.48775 0.0
C268 C 0.49409 0.05606 0.55048 0.0
C269 C 0.50626 0.07073 0.43847 0.0
C270 C 0.49641 0.13186 0.42251 0.0
H271 H 0.5453 0.17948 0.13596 0.0
H272 H 0.53341 0.14712 0.20325 0.0
H273 H 0.49964 0.16627 0.3957 0.0
H274 H 0.47289 0.07832 0.60936 0.0
H275 H 0.47293 0.10784 0.5228 0.0
H276 H 0.49755 0.08891 0.30677 0.0
C277 C 0.52399 0.1624 0.20771 0.0
C278 C 0.49887 0.14947 0.37553 0.0
C279 C 0.5308 0.1809 0.16907 0.0
C280 C 0.48226 0.07589 0.56185 0.0
C281 C 0.48244 0.09294 0.51222 0.0
C282 C 0.49809 0.10567 0.32719 0.0
C283 C 0.50633 0.16412 0.25535 0.0
C284 C 0.50143 0.14541 0.30396 0.0
C285 C 0.49473 0.09079 0.45016 0.0
C286 C 0.49618 0.10964 0.39924 0.0
H287 H 0.49291 0.21859 0.22768 0.0
H288 H 0.48098 0.18622 0.29593 0.0
H289 H 0.50259 0.11963 0.22539 0.0
H290 H 0.51525 0.03857 0.47748 0.0
H291 H 0.51622 0.06845 0.39213 0.0
C292 C 0.31694 0.4917 0.17768 0.0
C293 C 0.31018 0.51336 0.16037 0.0
C294 C 0.33755 0.48809 0.21046 0.0
C295 C 0.37266 0.51721 0.33332 0.0
H296 H 0.4181 0.47283 0.29858 0.0
C297 C 0.43854 0.49464 0.53856 0.0
C298 C 0.46082 0.49624 0.51697 0.0
C299 C 0.42123 0.49508 0.49 0.0
C300 C 0.40552 0.4853 0.30868 0.0
H301 H 0.3202 0.5479 0.15868 0.0
H302 H 0.35597 0.54164 0.21529 0.0
H303 H 0.38647 0.4765 0.2178 0.0
H304 H 0.48235 0.49875 0.42688 0.0
H305 H 0.45192 0.49902 0.34162 0.0
H306 H 0.39119 0.52575 0.42463 0.0
C307 C 0.34544 0.52747 0.20421 0.0
C308 C 0.38742 0.48733 0.26274 0.0
C309 C 0.32505 0.53103 0.17129 0.0
C310 C 0.46538 0.49755 0.44525 0.0
C311 C 0.44799 0.49759 0.39643 0.0
C312 C 0.3904 0.5149 0.37968 0.0
C313 C 0.35153 0.50613 0.22682 0.0
C314 C 0.37089 0.50345 0.27442 0.0
C315 C 0.42571 0.49677 0.41847 0.0
C316 C 0.40706 0.49897 0.36797 0.0
H317 H 0.30565 0.47786 0.17075 0.0
H318 H 0.34181 0.47146 0.22746 0.0
H319 H 0.36007 0.52963 0.34416 0.0
H320 H 0.43438 0.49365 0.5933 0.0
H321 H 0.40423 0.4943 0.50848 0.0
C322 C 0.043 0.32471 0.15558 0.0
C323 C 0.02282 0.31394 0.14141 0.0
C324 C 0.04317 0.34586 0.18622 0.0
C325 C 0.00672 0.39292 0.247 0.0
H326 H 0.04885 0.39452 0.39958 0.0
C327 C 0.01846 0.43719 0.53383 0.0
C328 C 0.01227 0.45922 0.51886 0.0
C329 C 0.02102 0.42156 0.48044 0.0
C330 C 0.03688 0.39435 0.35749 0.0
H331 H 0.98706 0.31725 0.14426 0.0
H332 H 0.98718 0.35401 0.19744 0.0
H333 H 0.05098 0.36482 0.3144 0.0
H334 H 1.004 0.482 0.43534 0.0
H335 H 0.00872 0.45479 0.34216 0.0
H336 H 0.99197 0.42193 0.29258 0.0
C337 C 1.00298 0.34653 0.18401 0.0
C338 C 0.03834 0.37745 0.30764 0.0
C339 C 1.00285 0.32546 0.15288 0.0
C340 C 0.00876 0.4652 0.44892 0.0
C341 C 0.01134 0.44953 0.3954 0.0
C342 C 1.00523 0.40984 0.29712 0.0
C343 C 0.02313 0.35653 0.20445 0.0
C344 C 0.02308 0.37624 0.25217 0.0
C345 C 0.01752 0.42748 0.4104 0.0
C346 C 0.02005 0.41054 0.35383 0.0
H347 H 0.0586 0.31597 0.14866 0.0
H348 H 0.05903 0.35322 0.19959 0.0
H349 H 0.99479 0.39272 0.20482 0.0
H350 H 0.02118 0.4319 0.58701 0.0
H351 H 0.02538 0.40468 0.49437 0.0
C352 C 0.81394 0.99001 0.2414 0.0
C353 C 0.80825 0.01222 0.25543 0.0
C354 C 0.83378 0.98492 0.20615 0.0
C355 C 0.88754 0.00987 0.14372 0.0
H356 H 0.88149 0.96692 0.99466 0.0
C357 C 0.95826 0.99542 0.94304 0.0
C358 C 0.9517 0.99262 0.87334 0.0
C359 C 0.94251 0.99494 0.99689 0.0
C360 C 0.88349 0.97907 0.03579 0.0
H361 H 0.81956 0.0463 0.24808 0.0
H362 H 0.85369 0.03763 0.18653 0.0
H363 H 0.8515 0.97148 0.07831 0.0
H364 H 0.92329 0.98697 0.806 0.0
H365 H 0.89599 0.98665 0.89889 0.0
H366 H 0.91895 0.01837 0.0989 0.0
C367 C 0.84315 0.024 0.20265 0.0
C368 C 0.86636 0.98143 0.08465 0.0
C369 C 0.82344 0.02903 0.23763 0.0
C370 C 0.92904 0.98906 0.85901 0.0
C371 C 0.91332 0.98871 0.91262 0.0
C372 C 0.9046 0.00761 0.0946 0.0
C373 C 0.84837 1.00194 0.18453 0.0
C374 C 0.8679 0.99723 0.13846 0.0
C375 C 0.91976 0.99175 0.98241 0.0
C376 C 0.90262 0.99253 0.03894 0.0
H377 H 0.80253 0.97671 0.25422 0.0
H378 H 0.83738 0.96771 0.19417 0.0
H379 H 0.88956 0.02195 0.18503 0.0
H380 H 0.97557 0.99811 0.95608 0.0
H381 H 0.94821 0.99705 0.04991 0.0
C382 C 0.48719 0.83067 0.23223 0.0
C383 C 0.50567 0.81677 0.2428 0.0
C384 C 0.48942 0.85081 0.19691 0.0
C385 C 0.52503 0.89502 0.1324 0.0
H386 H 0.48723 0.89208 0.96925 0.0
C387 C 0.52587 0.96222 0.91071 0.0
C388 C 0.5057 0.96603 0.87567 0.0
C389 C 0.52751 0.94526 0.96088 0.0
C390 C 0.49762 0.89353 0.01502 0.0
H391 H 0.54128 0.81389 0.22956 0.0
H392 H 0.54529 0.84969 0.16846 0.0
H393 H 0.4874 0.86155 0.05147 0.0
H394 H 0.47114 0.95616 0.86912 0.0
H395 H 0.4736 0.92772 0.95792 0.0
H396 H 0.53475 0.92745 0.09681 0.0
C397 C 0.52908 0.84479 0.18755 0.0
C398 C 0.49782 0.87585 0.06194 0.0
C399 C 0.52682 0.8244 0.22276 0.0
C400 C 0.48703 0.95338 0.89425 0.0
C401 C 0.48853 0.93685 0.94495 0.0
C402 C 0.52457 0.91305 0.08571 0.0
C403 C 0.51021 0.85766 0.17168 0.0
C404 C 0.51129 0.87646 0.12152 0.0
C405 C 0.50892 0.932 0.97766 0.0
C406 C 0.51056 0.91268 0.02676 0.0
H407 H 0.4707 0.82521 0.24719 0.0
H408 H 0.47464 0.8605 0.186 0.0
H409 H 0.53562 0.89586 0.17791 0.0
H410 H 0.54056 0.9717 0.89733 0.0
H411 H 0.54352 0.94207 0.98461 0.0
C412 C 0.66854 0.48747 0.2472 0.0
C413 C 0.68809 0.50027 0.24676 0.0
C414 C 0.65013 0.49372 0.20719 0.0
C415 C 0.63902 0.52298 0.04374 0.0
H416 H 0.57749 0.5094 0.08622 0.0
C417 C 0.57475 0.50417 0.83011 0.0
C418 C 0.55302 0.51261 0.83644 0.0
C419 C 0.59009 0.50643 0.8843 0.0
C420 C 0.59454 0.51355 0.0737 0.0
H421 H 0.70316 0.53041 0.20774 0.0
H422 H 0.67086 0.54159 0.13829 0.0
H423 H 0.60548 0.508 0.17857 0.0
H424 H 0.53049 0.53013 0.90537 0.0
H425 H 0.55737 0.53387 1.00072 0.0
H426 H 0.62824 0.52803 0.93872 0.0
C427 C 0.66983 0.52657 0.16913 0.0
C428 C 0.61063 0.51259 0.12654 0.0
C429 C 0.68823 0.52037 0.20968 0.0
C430 C 0.54708 0.52346 0.89863 0.0
C431 C 0.56244 0.52552 0.95339 0.0
C432 C 0.623 0.52379 0.99096 0.0
C433 C 0.65088 0.51286 0.16522 0.0
C434 C 0.63317 0.51687 0.11198 0.0
C435 C 0.58417 0.51705 0.94678 0.0
C436 C 0.60063 0.51861 1.00484 0.0
H437 H 0.66806 0.4718 0.2749 0.0
H438 H 0.63596 0.48265 0.20531 0.0
H439 H 0.6562 0.52615 0.03017 0.0
H440 H 0.58 0.49573 0.78312 0.0
H441 H 0.60654 0.4994 0.87767 0.0
C442 C 0.01121 0.6763 0.23376 0.0
C443 C 0.99388 0.69189 0.23066 0.0
C444 C 0.00936 0.65587 0.1995 0.0
C445 C 0.97413 0.61501 0.11192 0.0
H446 H 0.02066 0.61447 0.97255 0.0
C447 C 0.97538 0.55162 0.88078 0.0
C448 C 0.99608 0.54606 0.85177 0.0
C449 C 0.97391 0.5677 0.93373 0.0
C450 C 0.00781 0.61384 0.01188 0.0
H451 H 0.96052 0.6979 0.1931 0.0
H452 H 0.95692 0.66166 0.1349 0.0
H453 H 0.01972 0.64385 0.05859 0.0
H454 H 0.03154 0.55173 0.85845 0.0
H455 H 0.02929 0.57835 0.95288 0.0
H456 H 0.9625 0.5846 0.06636 0.0
C457 C 0.9719 0.66527 0.16408 0.0
C458 C 0.00722 0.63091 0.06106 0.0
C459 C 0.97388 0.68591 0.1978 0.0
C460 C 0.01531 0.55597 0.879 0.0
C461 C 0.01393 0.5715 0.93289 0.0
C462 C 0.97498 0.59752 0.06337 0.0
C463 C 0.99007 0.65056 0.16176 0.0
C464 C 0.99044 0.63171 0.11166 0.0
C465 C 0.99319 0.5782 0.95984 0.0
C466 C 0.99192 0.59663 0.01255 0.0
H467 H 0.02697 0.68074 0.25735 0.0
H468 H 0.02359 0.64482 0.19861 0.0
H469 H 0.96094 0.61532 0.15027 0.0
H470 H 0.96028 0.54425 0.86053 0.0
H471 H 0.95759 0.57239 0.95235 0.0
C472 C 0.99755 0.25428 0.32155 0.0
C473 C 0.01362 0.24501 0.27689 0.0
C474 C 0.98839 0.24156 0.37512 0.0
C475 C 0.97623 0.2073 0.4945 0.0
H476 H 0.9513 0.15702 0.39484 0.0
C477 C 0.94447 0.12429 0.60794 0.0
C478 C 0.92704 0.11364 0.57215 0.0
C479 C 0.95156 0.14539 0.58772 0.0
C480 C 0.95783 0.17114 0.42324 0.0
H481 H 0.03475 0.21641 0.25868 0.0
H482 H 0.01836 0.19404 0.35141 0.0
H483 H 0.97477 0.18334 0.33356 0.0
H484 H 0.90136 0.11797 0.49423 0.0
H485 H 0.91398 0.15479 0.45823 0.0
H486 H 0.95969 0.1944 0.58508 0.0
C487 C 0.01283 0.21105 0.34461 0.0
C488 C 0.97155 0.18597 0.38843 0.0
C489 C 0.02208 0.22377 0.29149 0.0
C490 C 0.91513 0.12558 0.52165 0.0
C491 C 0.92228 0.14665 0.50129 0.0
C492 C 0.96272 0.1921 0.53 0.0
C493 C 0.99514 0.21947 0.38427 0.0
C494 C 0.98103 0.204 0.42378 0.0
C495 C 0.94139 0.15607 0.53127 0.0
C496 C 0.95343 0.17389 0.49441 0.0
H497 H 0.99063 0.27058 0.31139 0.0
H498 H 0.97467 0.24828 0.40501 0.0
H499 H 0.98327 0.22128 0.52234 0.0
H500 H 0.9541 0.11553 0.64684 0.0
H501 H 0.96638 0.15226 0.61149 0.0
C502 C 0.27244 0.97431 0.32727 0.0
C503 C 0.25621 0.96458 0.28494 0.0
C504 C 0.28354 0.96159 0.37685 0.0
C505 C 0.30346 0.90585 0.40114 0.0
H506 H 0.32535 0.93169 0.57274 0.0
C507 C 0.3931 0.90464 0.48161 0.0
C508 C 0.39929 0.90789 0.55138 0.0
C509 C 0.37084 0.90171 0.46373 0.0
C510 C 0.31905 0.92372 0.52621 0.0
H511 H 0.23814 0.93443 0.26141 0.0
H512 H 0.25806 0.91176 0.3479 0.0
H513 H 0.29279 0.94752 0.51667 0.0
H514 H 0.38729 0.90751 0.65782 0.0
H515 H 0.34823 0.90277 0.62628 0.0
H516 H 0.33059 0.8829 0.40846 0.0
C517 C 0.26198 0.92926 0.34323 0.0
C518 C 0.3005 0.93298 0.49371 0.0
C519 C 0.25064 0.94214 0.29405 0.0
C520 C 0.38299 0.90566 0.60341 0.0
C521 C 0.36063 0.90284 0.58544 0.0
C522 C 0.32205 0.89656 0.43368 0.0
C523 C 0.27878 0.93882 0.38439 0.0
C524 C 0.2934 0.92499 0.42876 0.0
C525 C 0.35423 0.90206 0.51515 0.0
C526 C 0.33085 0.90631 0.49423 0.0
H527 H 0.27695 0.99161 0.32056 0.0
H528 H 0.29669 0.96935 0.40675 0.0
H529 H 0.2983 0.89928 0.3512 0.0
H530 H 0.40509 0.90639 0.43998 0.0
H531 H 0.36655 0.90137 0.40901 0.0
C532 C 0.59746 0.2685 0.15748 0.0
C533 C 0.58024 0.25761 0.19317 0.0
C534 C 0.61211 0.28244 0.19322 0.0
C535 C 0.62708 0.30457 0.36918 0.0
H536 H 0.62051 0.36128 0.27605 0.0
C537 C 0.60966 0.38547 0.51276 0.0
C538 C 0.61292 0.40597 0.47909 0.0
C539 C 0.61639 0.36565 0.48131 0.0
C540 C 0.62328 0.34567 0.30265 0.0
H541 H 0.56631 0.25095 0.29507 0.0
H542 H 0.59164 0.27531 0.35716 0.0
H543 H 0.61357 0.32749 0.21254 0.0
H544 H 0.62844 0.42171 0.38975 0.0
H545 H 0.64126 0.38737 0.33729 0.0
H546 H 0.63577 0.32305 0.46051 0.0
C547 C 0.59406 0.27302 0.30179 0.0
C548 C 0.61923 0.32613 0.26586 0.0
C549 C 0.57946 0.25904 0.26609 0.0
C550 C 0.62545 0.40631 0.41731 0.0
C551 C 0.63257 0.38651 0.38654 0.0
C552 C 0.63133 0.3242 0.40604 0.0
C553 C 0.60973 0.28582 0.26523 0.0
C554 C 0.62003 0.30542 0.29949 0.0
C555 C 0.62693 0.36586 0.41598 0.0
C556 C 0.62839 0.34505 0.37407 0.0
H557 H 0.5987 0.26736 0.10136 0.0
H558 H 0.62431 0.29176 0.1638 0.0
H559 H 0.62816 0.28882 0.39622 0.0
H560 H 0.60074 0.38459 0.5616 0.0
H561 H 0.61174 0.35017 0.506 0.0
C562 C 0.25221 0.56929 0.27526 0.0
C563 C 0.24145 0.552 0.23888 0.0
C564 C 0.24047 0.58232 0.32326 0.0
C565 C 0.18592 0.60344 0.3568 0.0
H566 H 0.19366 0.5957 0.55556 0.0
C567 C 0.11328 0.62202 0.52885 0.0
C568 C 0.10738 0.60253 0.56464 0.0
C569 C 0.13511 0.62517 0.50598 0.0
C570 C 0.19153 0.59845 0.50027 0.0
H571 H 0.21023 0.53425 0.22734 0.0
H572 H 0.18975 0.55748 0.30857 0.0
H573 H 0.22227 0.58209 0.47522 0.0
H574 H 0.12033 0.57236 0.61154 0.0
H575 H 0.15799 0.57769 0.57148 0.0
H576 H 0.15452 0.61795 0.38008 0.0
C577 C 0.20718 0.56097 0.29947 0.0
C578 C 0.20794 0.59078 0.45453 0.0
C579 C 0.2189 0.54779 0.25268 0.0
C580 C 0.12425 0.58761 0.58426 0.0
C581 C 0.146 0.59072 0.56131 0.0
C582 C 0.16964 0.61118 0.40223 0.0
C583 C 0.21779 0.57843 0.33455 0.0
C584 C 0.20459 0.5922 0.38249 0.0
C585 C 0.15136 0.6088 0.51818 0.0
C586 C 0.17164 0.6076 0.47428 0.0
H587 H 0.26953 0.57306 0.26557 0.0
H588 H 0.2489 0.59569 0.35025 0.0
H589 H 0.18309 0.60467 0.30124 0.0
H590 H 0.10072 0.63408 0.5144 0.0
H591 H 0.13885 0.63953 0.47411 0.0
C592 C 0.04679 0.74797 0.09779 0.0
C593 C 0.03042 0.75933 0.13641 0.0
C594 C 0.05934 0.75919 0.04748 0.0
C595 C 0.08252 0.81228 0.01412 0.0
H596 H 0.0731 0.80666 0.81533 0.0
C597 C 0.10615 0.88438 0.84711 0.0
C598 C 0.08709 0.89212 0.81244 0.0
C599 C 0.10763 0.86217 0.86782 0.0
C600 C 0.07628 0.80817 0.8706 0.0
H601 H 0.01353 0.79096 0.14937 0.0
H602 H 0.0359 0.81055 0.06356 0.0
H603 H 0.0578 0.77857 0.89448 0.0
H604 H 0.05593 0.88207 0.76491 0.0
H605 H 0.05833 0.84376 0.80153 0.0
H606 H 0.09928 0.8426 0.99229 0.0
C607 C 0.03904 0.79305 0.07266 0.0
C608 C 0.06763 0.79207 0.91562 0.0
C609 C 0.02637 0.78186 0.12198 0.0
C610 C 0.07088 0.87669 0.79145 0.0
C611 C 0.0723 0.85456 0.81241 0.0
C612 C 0.09123 0.82825 0.96943 0.0
C613 C 0.0558 0.7819 0.0359 0.0
C614 C 0.0698 0.79471 0.98776 0.0
C615 C 0.08997 0.84742 0.85477 0.0
C616 C 0.08718 0.82704 0.89743 0.0
H617 H 0.05041 0.73064 0.10797 0.0
H618 H 0.07221 0.75037 0.01935 0.0
H619 H 0.08433 0.81454 0.06978 0.0
H620 H 0.11915 0.89582 0.86258 0.0
H621 H 0.12172 0.85701 0.89899 0.0
C622 C 0.74874 0.07515 0.18257 0.0
C623 C 0.73912 0.05655 0.21536 0.0
C624 C 0.73565 0.08945 0.14198 0.0
C625 C 0.67803 0.10709 0.11984 0.0
H626 H 0.68801 0.10931 0.92083 0.0
C627 C 0.60382 0.11905 0.94792 0.0
C628 C 0.60229 0.10176 0.89889 0.0
C629 C 0.62437 0.12484 0.97656 0.0
C630 C 0.68508 0.10914 0.9764 0.0
H631 H 0.7085 0.03784 0.22793 0.0
H632 H 0.68586 0.06296 0.15986 0.0
H633 H 0.71783 0.09673 0.998 0.0
H634 H 0.62151 0.07925 0.83439 0.0
H635 H 0.65692 0.08819 0.88716 0.0
H636 H 0.64483 0.11712 0.09925 0.0
C637 C 0.70335 0.06674 0.16645 0.0
C638 C 0.70225 0.10218 0.0205 0.0
C639 C 0.71635 0.05239 0.20569 0.0
C640 C 0.622 0.09207 0.87392 0.0
C641 C 0.64246 0.09758 0.90334 0.0
C642 C 0.66091 0.1139 0.07605 0.0
C643 C 0.71278 0.08547 0.13473 0.0
C644 C 0.6983 0.09979 0.09201 0.0
C645 C 0.64374 0.11317 0.9578 0.0
C646 C 0.66375 0.1136 1.00338 0.0
H647 H 0.76625 0.07881 0.18902 0.0
H648 H 0.74326 0.1037 0.11718 0.0
H649 H 0.67474 0.10556 0.17507 0.0
H650 H 0.58903 0.12705 0.96802 0.0
H651 H 0.62481 0.13738 0.01701 0.0
C652 C 0.47425 0.7233 0.16716 0.0
C653 C 0.46832 0.74531 0.18295 0.0
C654 C 0.46033 0.71004 0.12717 0.0
C655 C 0.42169 0.70767 0.98993 0.0
H656 H 0.40967 0.64981 0.07022 0.0
C657 C 0.42818 0.6274 0.83984 0.0
C658 C 0.41877 0.6078 0.8665 0.0
C659 C 0.42365 0.64788 0.87075 0.0
C660 C 0.41209 0.666 0.04689 0.0
H661 H 0.44353 0.771 0.16623 0.0
H662 H 0.41931 0.74762 0.09337 0.0
H663 H 0.42276 0.67967 0.14395 0.0
H664 H 0.39489 0.59477 0.94067 0.0
H665 H 0.38631 0.6306 0.99266 0.0
H666 H 0.41229 0.69357 0.89183 0.0
C667 C 0.43465 0.74077 0.11371 0.0
C668 C 0.41978 0.68307 0.08936 0.0
C669 C 0.44854 0.75409 0.15489 0.0
C670 C 0.40264 0.60948 0.91916 0.0
C671 C 0.39784 0.63004 0.94943 0.0
C672 C 0.41391 0.69051 0.94711 0.0
C673 C 0.44029 0.71851 0.10104 0.0
C674 C 0.42584 0.70358 0.06055 0.0
C675 C 0.40936 0.64925 0.92851 0.0
C676 C 0.41032 0.6691 0.97455 0.0
H677 H 0.48968 0.71622 0.18604 0.0
H678 H 0.46526 0.69304 0.11651 0.0
H679 H 0.42622 0.72344 0.96681 0.0
H680 H 0.44012 0.62677 0.79771 0.0
H681 H 0.43286 0.66224 0.85292 0.0
C682 C 0.74071 0.44218 0.1353 0.0
C683 C 0.74625 0.44306 0.20643 0.0
C684 C 0.75376 0.43004 0.08883 0.0
C685 C 0.80772 0.39805 0.07646 0.0
H686 H 0.81841 0.44142 0.93124 0.0
C687 C 0.8903 0.40555 0.91565 0.0
C688 C 0.89856 0.42745 0.9161 0.0
C689 C 0.86887 0.401 0.94047 0.0
C690 C 0.81554 0.42898 0.971 0.0
H691 H 0.76739 0.42833 0.28558 0.0
H692 H 0.79134 0.40914 0.20441 0.0
H693 H 0.78368 0.44217 0.99357 0.0
H694 H 0.89131 0.46144 0.94645 0.0
H695 H 0.85415 0.45358 0.98852 0.0
H696 H 0.84088 0.3864 0.05672 0.0
C697 C 0.77683 0.41754 0.18397 0.0
C698 C 0.79539 0.42914 0.00641 0.0
C699 C 0.76329 0.42903 0.23078 0.0
C700 C 0.88524 0.44451 0.94346 0.0
C701 C 0.86394 0.44001 0.9676 0.0
C702 C 0.82808 0.39805 0.04109 0.0
C703 C 0.77317 0.41926 0.11186 0.0
C704 C 0.79159 0.41444 0.06217 0.0
C705 C 0.8554 0.41831 0.96546 0.0
C706 C 0.83252 0.41432 0.99067 0.0
H707 H 0.72758 0.45239 0.11388 0.0
H708 H 0.74977 0.43087 0.03396 0.0
H709 H 0.8052 0.38611 0.11779 0.0
H710 H 0.90017 0.39207 0.89469 0.0
H711 H 0.86267 0.38411 0.93873 0.0
C712 C 0.03205 0.23262 0.97744 0.0
C713 C 0.01433 0.23864 0.02128 0.0
C714 C 0.03056 0.21348 0.93551 0.0
C715 C 0.00917 0.15873 0.95016 0.0
H716 H 0.01286 0.15027 0.75049 0.0
C717 C 0.01988 0.07182 0.82458 0.0
C718 C 1.00411 0.06633 0.77332 0.0
C719 C 0.02186 0.09372 0.84886 0.0
C720 C 0.01187 0.15242 0.80635 0.0
H721 H 0.98077 0.23027 0.05229 0.0
H722 H 0.9783 0.19694 0.97998 0.0
H723 H 0.01458 0.18809 0.79966 0.0
H724 H 0.97853 0.07986 0.70585 0.0
H725 H 0.98245 0.11819 0.74722 0.0
H726 H 0.00682 0.12326 0.95755 0.0
C727 C 0.99321 0.20699 0.97753 0.0
C728 C 0.01294 0.17401 0.83435 0.0
C729 C 0.99457 0.22617 0.01838 0.0
C730 C 0.99079 0.08345 0.74561 0.0
C731 C 0.9931 0.10544 0.76892 0.0
C732 C 0.00861 0.13723 0.92245 0.0
C733 C 0.01146 0.19999 0.93769 0.0
C734 C 0.01135 0.17734 0.90654 0.0
C735 C 0.00846 0.11077 0.8215 0.0
C736 C 0.00978 0.13379 0.85023 0.0
H737 H 0.0476 0.24165 0.97975 0.0
H738 H 0.04489 0.20834 0.90543 0.0
H739 H 0.00795 0.16086 0.00602 0.0
H740 H 0.03038 0.05909 0.84717 0.0
H741 H 0.0339 0.09733 0.88924 0.0
C742 C 0.27647 0.98243 0.02314 0.0
C743 C 0.26521 1.00027 0.05469 0.0
C744 C 0.29421 0.98615 0.97771 0.0
C745 C 0.33699 0.02883 0.93948 0.0
H746 H 0.35453 0.98588 0.79948 0.0
C747 C 0.42791 0.02215 0.84487 0.0
C748 C 0.43248 0.01517 0.77649 0.0
C749 C 0.40612 0.02231 0.87054 0.0
C750 C 0.34987 0.9983 0.83756 0.0
H751 H 0.26282 0.03611 0.05946 0.0
H752 H 0.29346 0.04279 0.97793 0.0
H753 H 0.31797 0.98332 0.85241 0.0
H754 H 0.41739 1.00324 0.6811 0.0
H755 H 0.37934 1.00411 0.725 0.0
H756 H 0.36869 0.0441 0.92352 0.0
C757 C 0.28891 0.0258 0.98977 0.0
C758 C 0.32888 0.99664 0.86882 0.0
C759 C 0.27109 0.02203 0.03568 0.0
C760 C 0.41455 0.00866 0.73406 0.0
C761 C 0.39268 0.00902 0.75958 0.0
C762 C 0.3579 0.03063 0.90771 0.0
C763 C 0.30122 0.00789 0.96189 0.0
C764 C 0.32229 0.01153 0.92158 0.0
C765 C 0.38811 0.0157 0.82846 0.0
C766 C 0.36492 0.01507 0.85744 0.0
H767 H 0.27232 0.96545 0.03675 0.0
H768 H 0.30322 0.97185 0.95837 0.0
H769 H 0.33276 0.04057 0.98011 0.0
H770 H 0.44125 0.02711 0.87946 0.0
H771 H 0.40354 0.0271 0.9242 0.0
C772 C 0.50191 0.28232 0.037 0.0
C773 C 0.52073 0.26962 0.02003 0.0
C774 C 0.4962 0.301 0.99704 0.0
C775 C 0.50155 0.34837 0.94234 0.0
H776 H 0.5079 0.35265 0.7421 0.0
C777 C 0.48901 0.43209 0.80053 0.0
C778 C 0.50338 0.4372 0.74507 0.0
C779 C 0.48847 0.4107 0.82914 0.0
C780 C 0.50627 0.35184 0.79813 0.0
H781 H 0.54755 0.26565 0.94612 0.0
H782 H 0.53741 0.29782 0.87563 0.0
H783 H 0.51053 0.31641 0.79876 0.0
H784 H 0.5283 0.42352 0.67571 0.0
H785 H 0.52779 0.38638 0.7266 0.0
H786 H 0.49809 0.38373 0.94254 0.0
C787 C 0.52697 0.29348 0.91945 0.0
C788 C 0.50766 0.33099 0.83059 0.0
C789 C 0.53278 0.275 0.95971 0.0
C790 C 0.51694 0.42019 0.71816 0.0
C791 C 0.51655 0.3988 0.74724 0.0
C792 C 0.50032 0.36919 0.91004 0.0
C793 C 0.50912 0.30724 0.93904 0.0
C794 C 0.5055 0.32901 0.90324 0.0
C795 C 0.50246 0.39378 0.80369 0.0
C796 C 0.50284 0.37131 0.83747 0.0
H797 H 0.49257 0.27874 0.08384 0.0
H798 H 0.48218 0.31107 0.01312 0.0
H799 H 0.50026 0.34759 0.99849 0.0
H800 H 0.47814 0.44466 0.82225 0.0
H801 H 0.47704 0.40748 0.87141 0.0
C802 C 0.22965 0.52927 0.97338 0.0
C803 C 0.23949 0.51225 0.01281 0.0
C804 C 0.21177 0.52484 0.92905 0.0
C805 C 0.16618 0.48362 0.90896 0.0
H806 H 0.14993 0.52253 0.75667 0.0
C807 C 0.07499 0.49154 0.81687 0.0
C808 C 0.07033 0.49707 0.74731 0.0
C809 C 0.09691 0.49105 0.84148 0.0
C810 C 0.15418 0.51119 0.79828 0.0
H811 H 0.23937 0.4769 0.0328 0.0
H812 H 0.20871 0.46878 0.95261 0.0
H813 H 0.187 0.52463 0.80577 0.0
H814 H 0.08533 0.50589 0.64863 0.0
H815 H 0.12353 0.50423 0.69051 0.0
H816 H 0.13361 0.46968 0.90002 0.0
C817 C 0.21438 0.48578 0.95747 0.0
C818 C 0.17551 0.51264 0.82737 0.0
C819 C 0.23227 0.49031 1.00246 0.0
C820 C 0.08825 0.50168 0.70262 0.0
C821 C 0.11024 0.50087 0.72698 0.0
C822 C 0.14496 0.48194 0.87919 0.0
C823 C 0.20324 0.50315 0.92229 0.0
C824 C 0.18169 0.4993 0.88447 0.0
C825 C 0.11495 0.49576 0.79705 0.0
C826 C 0.13837 0.49608 0.8245 0.0
H827 H 0.23473 0.54639 0.98095 0.0
H828 H 0.20373 0.5388 0.90402 0.0
H829 H 0.17003 0.47313 0.9531 0.0
H830 H 0.06162 0.4881 0.85307 0.0
H831 H 0.09959 0.48752 0.89604 0.0
C832 C 0.01724 0.77342 0.40605 0.0
C833 C 0.99886 0.76304 0.37468 0.0
C834 C 0.01437 0.79125 0.45181 0.0
C835 C 0.97339 0.83585 0.48829 0.0
H836 H 0.01782 0.8534 0.62363 0.0
C837 C 0.98335 0.92741 0.57211 0.0
C838 C 0.99064 0.93255 0.63975 0.0
C839 C 0.98263 0.90538 0.54875 0.0
C840 C 1.005 0.84876 0.58684 0.0
H841 H 0.96296 0.76211 0.37085 0.0
H842 H 0.95773 0.79277 0.45339 0.0
H843 H 0.01875 0.81617 0.57468 0.0
H844 H 1.00277 0.91824 0.73607 0.0
H845 H 1.00095 0.87979 0.69619 0.0
H846 H 0.95931 0.86822 0.50164 0.0
C847 C 0.97449 0.78753 0.44107 0.0
C848 C 0.00572 0.82736 0.55788 0.0
C849 C 0.97742 0.76967 0.39471 0.0
C850 C 0.99706 0.91496 0.68366 0.0
C851 C 0.99615 0.89284 0.66045 0.0
C852 C 0.97252 0.85714 0.51782 0.0
C853 C 0.99297 0.7992 0.46805 0.0
C854 C 0.99027 0.82074 0.50673 0.0
C855 C 0.98897 0.88769 0.59249 0.0
C856 C 0.98865 0.86417 0.56622 0.0
H857 H 0.03398 0.76874 0.39114 0.0
H858 H 0.02908 0.79972 0.47045 0.0
H859 H 0.96126 0.83164 0.44878 0.0
H860 H 0.97846 0.94048 0.53643 0.0
H861 H 0.97751 0.90232 0.49562 0.0
C862 C 0.7262 0.98818 0.40263 0.0
C863 C 0.74094 0.00577 0.41607 0.0
C864 C 0.70749 0.98484 0.44494 0.0
C865 C 0.66984 0.01937 0.5494 0.0
H866 H 0.63992 0.96386 0.5899 0.0
C867 C 0.58345 0.01874 0.68102 0.0
C868 C 0.56787 1.00297 0.6577 0.0
C869 C 0.6058 0.01739 0.66079 0.0
C870 C 0.64793 0.97954 0.57844 0.0
H871 H 0.74855 0.03267 0.48672 0.0
H872 H 0.71642 0.02646 0.56204 0.0
H873 H 0.67754 0.96334 0.54182 0.0
H874 H 0.56383 0.9732 0.59528 0.0
H875 H 0.60253 0.97119 0.55857 0.0
H876 H 0.64018 0.03565 0.58321 0.0
C877 C 0.71906 0.01538 0.51839 0.0
C878 C 0.66959 0.97922 0.55116 0.0
C879 C 0.73773 0.01868 0.47612 0.0
C880 C 0.57533 0.98561 0.61451 0.0
C881 C 0.59765 0.98438 0.59376 0.0
C882 C 0.6482 0.0197 0.57613 0.0
C883 C 0.70307 0.99918 0.50124 0.0
C884 C 0.6808 0.99915 0.53591 0.0
C885 C 0.61322 1.00036 0.61605 0.0
C886 C 0.6368 0.99981 0.59065 0.0
H887 H 0.72793 0.97842 0.35554 0.0
H888 H 0.69554 0.97227 0.42987 0.0
H889 H 0.67767 0.03507 0.53682 0.0
H890 H 0.57841 0.03221 0.71495 0.0
H891 H 0.61726 0.02977 0.68037 0.0
C892 C 0.53378 0.73182 0.37678 0.0
C893 C 0.51642 0.74685 0.39034 0.0
C894 C 0.53658 0.7128 0.41804 0.0
C895 C 0.50096 0.67514 0.51872 0.0
H896 H 0.55581 0.64369 0.55744 0.0
C897 C 0.4999 0.58755 0.64296 0.0
C898 C 0.51548 0.57189 0.61877 0.0
C899 C 0.50157 0.61001 0.6243 0.0
C900 C 0.5403 0.65213 0.54644 0.0
H901 H 0.48937 0.75456 0.46026 0.0
H902 H 0.49465 0.72183 0.53384 0.0
H903 H 0.55715 0.68171 0.51291 0.0
H904 H 0.54521 0.56785 0.55626 0.0
H905 H 0.5478 0.60677 0.52232 0.0
H906 H 0.48404 0.64551 0.54955 0.0
C907 C 0.50597 0.72452 0.49087 0.0
C908 C 0.5411 0.67402 0.52121 0.0
C909 C 0.50322 0.74355 0.44967 0.0
C910 C 0.53293 0.57939 0.5761 0.0
C911 C 0.53451 0.60184 0.55698 0.0
C912 C 0.50015 0.65327 0.54346 0.0
C913 C 0.52193 0.70831 0.47341 0.0
C914 C 0.52142 0.68578 0.50653 0.0
C915 C 0.51876 0.6175 0.58037 0.0
C916 C 0.51979 0.64131 0.55718 0.0
H917 H 0.54374 0.73361 0.33017 0.0
H918 H 0.54898 0.70069 0.40268 0.0
H919 H 0.48544 0.6834 0.50655 0.0
H920 H 0.48636 0.58249 0.67653 0.0
H921 H 0.48935 0.62152 0.64464 0.0
C922 C 0.7653 0.48943 0.44582 0.0
C923 C 0.76064 0.50098 0.38407 0.0
C924 C 0.785 0.4934 0.4825 0.0
C925 C 0.83438 0.53029 0.50047 0.0
H926 H 0.86443 0.47499 0.54385 0.0
C927 C 0.92833 0.52647 0.57467 0.0
C928 C 0.93543 0.50987 0.62121 0.0
C929 C 0.90628 0.52707 0.55074 0.0
C930 C 0.85625 0.49067 0.53352 0.0
H931 H 0.77242 0.52642 0.31384 0.0
H932 H 0.80683 0.53374 0.3786 0.0
H933 H 0.82696 0.47418 0.49732 0.0
H934 H 0.92445 0.48134 0.68091 0.0
H935 H 0.88612 0.48277 0.64137 0.0
H936 H 0.86378 0.54679 0.5369 0.0
C937 C 0.79514 0.52174 0.39914 0.0
C938 C 0.83465 0.49019 0.50657 0.0
C939 C 0.77535 0.51771 0.36228 0.0
C940 C 0.91973 0.49425 0.64459 0.0
C941 C 0.89766 0.49499 0.62135 0.0
C942 C 0.85602 0.5308 0.52816 0.0
C943 C 0.80065 0.50892 0.45804 0.0
C944 C 0.82338 0.50995 0.48957 0.0
C945 C 0.89062 0.51119 0.57318 0.0
C946 C 0.86732 0.51097 0.54499 0.0
H947 H 0.75443 0.47617 0.46298 0.0
H948 H 0.7885 0.4835 0.52826 0.0
H949 H 0.82619 0.54583 0.48819 0.0
H950 H 0.93995 0.53874 0.55529 0.0
H951 H 0.9017 0.53965 0.51313 0.0
loop_
_geom_bond_atom_site_label_1
_geom_bond_atom_site_label_2
_geom_bond_distance
_geom_bond_site_symmetry_2
_ccdc_geom_bond_type
H0 C3 0.931 . S
H1 C6 0.928 . S
H2 C8 0.930 . S
C3 H0 0.931 . S
C3 C4 1.413 . S
C3 C5 1.360 . S
C4 C3 1.413 . S
C4 C8 1.429 . S
C5 C3 1.360 . S
C5 C6 1.372 . S
C6 H1 0.928 . S
C6 C5 1.372 . S
C6 C7 1.404 . S
C7 C6 1.404 . S
C7 C8 1.391 . S
C8 H2 0.930 . S
C8 C4 1.429 . S
C8 C7 1.391 . S
H9 C12 0.931 . S
H10 C15 0.928 . S
H11 C17 0.930 . S
C12 H9 0.931 . S
C12 C13 1.413 . S
C12 C14 1.360 . S
C13 C12 1.413 . S
C13 C17 1.429 1_655 S
C14 C12 1.360 . S
C14 C15 1.372 . S
C15 H10 0.928 . S
C15 C14 1.372 . S
C15 C16 1.404 . S
C16 C15 1.404 . S
C16 C17 1.390 1_655 S
C17 H11 0.930 . S
C17 C13 1.429 1_455 S
C17 C16 1.390 1_455 S
H18 C21 0.931 . S
H19 C24 0.928 . S
H20 C26 0.930 . S
C21 H18 0.931 . S
C21 C22 1.413 . S
C21 C23 1.360 . S
C22 C21 1.413 . S
C22 C26 1.429 1_565 S
C23 C21 1.360 . S
C23 C24 1.372 . S
C24 H19 0.928 . S
C24 C23 1.372 . S
C24 C25 1.404 . S
C25 C24 1.404 . S
C25 C26 1.390 1_565 S
C26 H20 0.930 . S
C26 C22 1.429 1_545 S
C26 C25 1.390 1_545 S
H27 C30 0.931 . S
H28 C33 0.928 . S
H29 C35 0.930 . S
C30 H27 0.931 . S
C30 C31 1.413 . S
C30 C32 1.360 . S
C31 C30 1.413 . S
C31 C35 1.429 . S
C32 C30 1.360 . S
C32 C33 1.372 . S
C33 H28 0.928 . S
C33 C32 1.372 . S
C33 C34 1.404 . S
C34 C33 1.404 . S
C34 C35 1.391 . S
C35 H29 0.930 . S
C35 C31 1.429 . S
C35 C34 1.391 . S
H36 C39 0.931 . S
H37 C42 0.928 . S
H38 C44 0.929 1_556 S
C39 H36 0.931 . S
C39 C40 1.413 1_554 S
C39 C41 1.360 . S
C40 C39 1.413 1_556 S
C40 C44 1.429 1_556 S
C41 C39 1.360 . S
C41 C42 1.372 . S
C42 H37 0.928 . S
C42 C41 1.372 . S
C42 C43 1.404 . S
C43 C42 1.404 . S
C43 C44 1.392 . S
C44 H38 0.929 1_554 S
C44 C40 1.429 1_554 S
C44 C43 1.392 . S
H45 C48 0.931 . S
H46 C51 0.928 . S
H47 C53 0.930 1_556 S
C48 H45 0.931 . S
C48 C49 1.413 1_554 S
C48 C50 1.360 . S
C49 C48 1.413 1_556 S
C49 C53 1.429 1_656 S
C50 C48 1.360 . S
C50 C51 1.372 . S
C51 H46 0.928 . S
C51 C50 1.372 . S
C51 C52 1.404 . S
C52 C51 1.404 . S
C52 C53 1.391 1_655 S
C53 H47 0.930 1_554 S
C53 C49 1.429 1_454 S
C53 C52 1.391 1_455 S
H54 C57 0.931 . S
H55 C60 0.928 . S
H56 C62 0.918 1_556 S
C57 H54 0.931 . S
C57 C58 1.413 1_554 S
C57 C59 1.360 . S
C58 C57 1.413 1_556 S
C58 C62 1.426 1_566 S
C59 C57 1.360 . S
C59 C60 1.372 . S
C60 H55 0.928 . S
C60 C59 1.372 . S
C60 C61 1.404 . S
C61 C60 1.404 . S
C61 C62 1.406 1_565 S
C62 H56 0.918 1_554 S
C62 C58 1.426 1_544 S
C62 C61 1.406 1_545 S
H63 C66 0.931 . S
H64 C69 0.928 . S
H65 C71 0.930 . S
C66 H63 0.931 . S
C66 C67 1.413 . S
C66 C68 1.360 1_554 S
C67 C66 1.413 . S
C67 C71 1.429 . S
C68 C66 1.360 1_556 S
C68 C69 1.372 . S
C69 H64 0.928 . S
C69 C68 1.372 . S
C69 C70 1.404 1_556 S
C70 C69 1.404 1_554 S
C70 C71 1.391 . S
C71 H65 0.930 . S
C71 C67 1.429 . S
C71 C70 1.391 . S
Tb72 C82 2.825 . S
Tb72 O83 2.347 1_455 S
Tb72 O86 2.366 . S
Tb72 O91 2.418 . S
Tb72 O92 2.384 1_565 S
Tb72 O95 2.479 . S
Tb72 O96 2.471 . S
Eu73 O84 2.418 . S
Eu73 O85 2.384 1_545 S
Eu73 O88 2.479 . S
Eu73 O89 2.471 . S
Eu73 O90 2.347 1_655 S
Eu73 O93 2.366 . S
Eu73 C103 2.825 . S
C74 O90 1.259 1_565 S
C74 O91 1.265 . S
C75 O92 1.255 . S
C75 O93 1.265 1_455 S
C76 C78 1.380 . S
C76 C79 1.374 . S
C76 C82 1.507 . S
C77 C78 1.384 . S
C77 C81 1.387 . S
C77 H104 0.930 . S
C78 C76 1.380 . S
C78 C77 1.384 . S
C78 H105 0.931 . S
C79 C76 1.374 . S
C79 C80 1.390 . S
C79 H106 0.930 1_455 S
C80 C79 1.390 . S
C80 C81 1.391 . S
C80 H107 0.930 1_455 S
C81 C77 1.387 . S
C81 C80 1.391 . S
C82 Tb72 2.825 . S
C82 C76 1.507 . S
C82 O95 1.238 . S
C82 O96 1.247 . S
O83 Tb72 2.347 1_655 S
O83 C87 1.259 1_565 S
O84 Eu73 2.418 . S
O84 C87 1.265 . S
O85 Eu73 2.384 1_565 S
O85 C94 1.255 . S
O86 Tb72 2.366 . S
O86 C94 1.265 1_455 S
C87 O83 1.259 1_545 S
C87 O84 1.265 . S
O88 Eu73 2.479 . S
O88 C103 1.238 . S
O89 Eu73 2.471 . S
O89 C103 1.247 . S
O90 Eu73 2.347 1_455 S
O90 C74 1.259 1_545 S
O91 Tb72 2.418 . S
O91 C74 1.265 . S
O92 Tb72 2.384 1_545 S
O92 C75 1.255 . S
O93 Eu73 2.366 . S
O93 C75 1.265 1_655 S
C94 O85 1.255 . S
C94 O86 1.265 1_655 S
O95 Tb72 2.479 . S
O95 C82 1.238 . S
O96 Tb72 2.471 . S
O96 C82 1.247 . S
C97 C100 1.380 . S
C97 C101 1.374 . S
C97 C103 1.507 . S
C98 C99 1.387 . S
C98 C102 1.391 . S
C99 C98 1.387 . S
C99 C100 1.384 . S
C99 H108 0.930 . S
C100 C97 1.380 . S
C100 C99 1.384 . S
C100 H109 0.931 . S
C101 C97 1.374 . S
C101 C102 1.390 . S
C101 H110 0.930 1_655 S
C102 C98 1.391 . S
C102 C101 1.390 . S
C102 H111 0.930 1_655 S
C103 Eu73 2.825 . S
C103 O88 1.238 . S
C103 O89 1.247 . S
C103 C97 1.507 . S
H104 C77 0.930 . S
H105 C78 0.931 . S
H106 C79 0.930 1_655 S
H107 C80 0.930 1_655 S
H108 C99 0.930 . S
H109 C100 0.931 . S
H110 C101 0.930 1_455 S
H111 C102 0.930 1_455 S
Tb112 C122 2.825 . S
Tb112 O123 2.347 1_545 S
Tb112 O126 2.366 . S
Tb112 O131 2.418 . S
Tb112 O132 2.384 . S
Tb112 O135 2.479 . S
Tb112 O136 2.471 . S
Eu113 O124 2.418 . S
Eu113 O125 2.384 . S
Eu113 O128 2.479 . S
Eu113 O129 2.471 . S
Eu113 O130 2.347 1_565 S
Eu113 O133 2.366 . S
Eu113 C143 2.825 . S
C114 O130 1.259 . S
C114 O131 1.265 . S
C115 O132 1.255 . S
C115 O133 1.265 1_545 S
C116 C118 1.380 . S
C116 C119 1.374 . S
C116 C122 1.507 . S
C117 C118 1.384 . S
C117 C121 1.387 . S
C117 H144 0.930 . S
C118 C116 1.380 . S
C118 C117 1.384 . S
C118 H145 0.931 . S
C119 C116 1.374 . S
C119 C120 1.390 . S
C119 H146 0.930 1_545 S
C120 C119 1.390 . S
C120 C121 1.391 . S
C120 H147 0.930 1_545 S
C121 C117 1.387 . S
C121 C120 1.391 . S
C122 Tb112 2.825 . S
C122 C116 1.507 . S
C122 O135 1.238 . S
C122 O136 1.247 . S
O123 Tb112 2.347 1_565 S
O123 C127 1.259 . S
O124 Eu113 2.418 . S
O124 C127 1.265 . S
O125 Eu113 2.384 . S
O125 C134 1.255 . S
O126 Tb112 2.366 . S
O126 C134 1.265 1_545 S
C127 O123 1.259 . S
C127 O124 1.265 . S
O128 Eu113 2.479 . S
O128 C143 1.238 . S
O129 Eu113 2.471 . S
O129 C143 1.247 . S
O130 Eu113 2.347 1_545 S
O130 C114 1.259 . S
O131 Tb112 2.418 . S
O131 C114 1.265 . S
O132 Tb112 2.384 . S
O132 C115 1.255 . S
O133 Eu113 2.366 . S
O133 C115 1.265 1_565 S
C134 O125 1.255 . S
C134 O126 1.265 1_565 S
O135 Tb112 2.479 . S
O135 C122 1.238 . S
O136 Tb112 2.471 . S
O136 C122 1.247 . S
C137 C140 1.380 . S
C137 C141 1.374 . S
C137 C143 1.507 . S
C138 C139 1.387 . S
C138 C142 1.391 . S
C139 C138 1.387 . S
C139 C140 1.384 . S
C139 H148 0.930 . S
C140 C137 1.380 . S
C140 C139 1.384 . S
C140 H149 0.931 . S
C141 C137 1.374 . S
C141 C142 1.390 . S
C141 H150 0.930 1_565 S
C142 C138 1.391 . S
C142 C141 1.390 . S
C142 H151 0.930 1_565 S
C143 Eu113 2.825 . S
C143 O128 1.238 . S
C143 O129 1.247 . S
C143 C137 1.507 . S
H144 C117 0.930 . S
H145 C118 0.931 . S
H146 C119 0.930 1_565 S
H147 C120 0.930 1_565 S
H148 C139 0.930 . S
H149 C140 0.931 . S
H150 C141 0.930 1_545 S
H151 C142 0.930 1_545 S
Tb152 C162 2.825 . S
Tb152 O163 2.347 . S
Tb152 O166 2.366 . S
Tb152 O171 2.418 . S
Tb152 O172 2.384 . S
Tb152 O175 2.479 . S
Tb152 O176 2.471 . S
Eu153 O164 2.418 . S
Eu153 O165 2.384 . S
Eu153 O168 2.479 . S
Eu153 O169 2.471 . S
Eu153 O170 2.347 . S
Eu153 O173 2.366 . S
Eu153 C183 2.825 . S
C154 O170 1.259 . S
C154 O171 1.265 . S
C155 O172 1.255 . S
C155 O173 1.265 . S
C156 C158 1.380 . S
C156 C159 1.374 . S
C156 C162 1.507 . S
C157 C158 1.384 . S
C157 C161 1.387 . S
C157 H184 0.930 . S
C158 C156 1.380 . S
C158 C157 1.384 . S
C158 H185 0.931 . S
C159 C156 1.374 . S
C159 C160 1.390 . S
C159 H186 0.930 . S
C160 C159 1.390 . S
C160 C161 1.391 . S
C160 H187 0.930 . S
C161 C157 1.387 . S
C161 C160 1.391 . S
C162 Tb152 2.825 . S
C162 C156 1.507 . S
C162 O175 1.238 . S
C162 O176 1.247 . S
O163 Tb152 2.347 . S
O163 C167 1.259 . S
O164 Eu153 2.418 . S
O164 C167 1.265 . S
O165 Eu153 2.384 . S
O165 C174 1.255 . S
O166 Tb152 2.366 . S
O166 C174 1.265 . S
C167 O163 1.259 . S
C167 O164 1.265 . S
O168 Eu153 2.479 . S
O168 C183 1.238 . S
O169 Eu153 2.471 . S
O169 C183 1.247 . S
O170 Eu153 2.347 . S
O170 C154 1.259 . S
O171 Tb152 2.418 . S
O171 C154 1.265 . S
O172 Tb152 2.384 . S
O172 C155 1.255 . S
O173 Eu153 2.366 . S
O173 C155 1.265 . S
C174 O165 1.255 . S
C174 O166 1.265 . S
O175 Tb152 2.479 . S
O175 C162 1.238 . S
O176 Tb152 2.471 . S
O176 C162 1.247 . S
C177 C180 1.380 . S
C177 C181 1.374 . S
C177 C183 1.507 . S
C178 C179 1.387 . S
C178 C182 1.391 . S
C179 C178 1.387 . S
C179 C180 1.384 . S
C179 H188 0.930 . S
C180 C177 1.380 . S
C180 C179 1.384 . S
C180 H189 0.931 . S
C181 C177 1.374 . S
C181 C182 1.390 . S
C181 H190 0.930 . S
C182 C178 1.391 . S
C182 C181 1.390 . S
C182 H191 0.930 . S
C183 Eu153 2.825 . S
C183 O168 1.238 . S
C183 O169 1.247 . S
C183 C177 1.507 . S
H184 C157 0.930 . S
H185 C158 0.931 . S
H186 C159 0.930 . S
H187 C160 0.930 . S
H188 C179 0.930 . S
H189 C180 0.931 . S
H190 C181 0.930 . S
H191 C182 0.930 . S
Tb192 C202 2.825 . S
Tb192 O203 2.347 . S
Tb192 O206 2.366 . S
Tb192 O211 2.418 . S
Tb192 O212 2.384 1_655 S
Tb192 O215 2.479 . S
Tb192 O216 2.471 . S
Eu193 O204 2.418 . S
Eu193 O205 2.384 1_455 S
Eu193 O208 2.479 . S
Eu193 O209 2.471 . S
Eu193 O210 2.347 . S
Eu193 O213 2.366 . S
Eu193 C223 2.825 . S
C194 O210 1.259 1_655 S
C194 O211 1.265 . S
C195 O212 1.255 . S
C195 O213 1.265 . S
C196 C198 1.380 . S
C196 C199 1.374 . S
C196 C202 1.507 . S
C197 C198 1.384 . S
C197 C201 1.387 . S
C197 H224 0.930 . S
C198 C196 1.380 . S
C198 C197 1.384 . S
C198 H225 0.931 . S
C199 C196 1.374 . S
C199 C200 1.390 . S
C199 H226 0.930 . S
C200 C199 1.390 . S
C200 C201 1.391 . S
C200 H227 0.930 . S
C201 C197 1.387 . S
C201 C200 1.391 . S
C202 Tb192 2.825 . S
C202 C196 1.507 . S
C202 O215 1.238 . S
C202 O216 1.247 . S
O203 Tb192 2.347 . S
O203 C207 1.259 1_655 S
O204 Eu193 2.418 . S
O204 C207 1.265 . S
O205 Eu193 2.384 1_655 S
O205 C214 1.255 . S
O206 Tb192 2.366 . S
O206 C214 1.265 . S
C207 O203 1.259 1_455 S
C207 O204 1.265 . S
O208 Eu193 2.479 . S
O208 C223 1.238 . S
O209 Eu193 2.471 . S
O209 C223 1.247 . S
O210 Eu193 2.347 . S
O210 C194 1.259 1_455 S
O211 Tb192 2.418 . S
O211 C194 1.265 . S
O212 Tb192 2.384 1_455 S
O212 C195 1.255 . S
O213 Eu193 2.366 . S
O213 C195 1.265 . S
C214 O205 1.255 . S
C214 O206 1.265 . S
O215 Tb192 2.479 . S
O215 C202 1.238 . S
O216 Tb192 2.471 . S
O216 C202 1.247 . S
C217 C220 1.380 . S
C217 C221 1.374 . S
C217 C223 1.507 . S
C218 C219 1.387 . S
C218 C222 1.391 . S
C219 C218 1.387 . S
C219 C220 1.384 . S
C219 H228 0.930 . S
C220 C217 1.380 . S
C220 C219 1.384 . S
C220 H229 0.931 . S
C221 C217 1.374 . S
C221 C222 1.390 . S
C221 H230 0.930 . S
C222 C218 1.391 . S
C222 C221 1.390 . S
C222 H231 0.930 . S
C223 Eu193 2.825 . S
C223 O208 1.238 . S
C223 O209 1.247 . S
C223 C217 1.507 . S
H224 C197 0.930 . S
H225 C198 0.931 . S
H226 C199 0.930 . S
H227 C200 0.930 . S
H228 C219 0.930 . S
H229 C220 0.931 . S
H230 C221 0.930 . S
H231 C222 0.930 . S
C232 C233 1.347 1_565 S
C232 C234 1.327 . S
C232 H257 0.950 . S
C233 C232 1.347 1_545 S
C233 C249 1.350 . S
C234 C232 1.327 . S
C234 C253 1.423 1_565 S
C234 H258 0.950 . S
C235 C252 1.574 . S
C235 C254 1.377 . S
C235 H259 0.949 . S
H236 C240 0.949 . S
C237 C238 1.368 . S
C237 C239 1.327 . S
C237 H260 0.950 . S
C238 C237 1.368 . S
C238 C250 1.330 1_545 S
C239 C237 1.327 . S
C239 C255 1.443 . S
C239 H261 0.950 . S
C240 H236 0.949 . S
C240 C248 1.574 . S
C240 C256 1.355 1_565 S
H241 C249 0.950 . S
H242 C247 0.950 . S
H243 C248 0.949 . S
H244 C250 0.950 . S
H245 C251 0.950 . S
H246 C252 0.949 . S
C247 H242 0.950 . S
C247 C249 1.327 . S
C247 C253 1.434 . S
C248 C240 1.574 . S
C248 H243 0.949 . S
C248 C254 1.360 1_565 S
C249 C233 1.350 . S
C249 H241 0.950 . S
C249 C247 1.327 . S
C250 C238 1.330 1_565 S
C250 H244 0.950 . S
C250 C251 1.327 . S
C251 H245 0.950 . S
C251 C250 1.327 . S
C251 C255 1.415 1_565 S
C252 C235 1.574 . S
C252 H246 0.949 . S
C252 C256 1.381 . S
C253 C234 1.423 1_545 S
C253 C247 1.434 . S
C253 C254 1.523 . S
C254 C235 1.377 . S
C254 C248 1.360 1_545 S
C254 C253 1.523 . S
C255 C239 1.443 . S
C255 C251 1.415 1_545 S
C255 C256 1.523 . S
C256 C240 1.355 1_545 S
C256 C252 1.381 . S
C256 C255 1.523 . S
H257 C232 0.950 . S
H258 C234 0.950 . S
H259 C235 0.949 . S
H260 C237 0.950 . S
H261 C239 0.950 . S
C262 C263 1.349 . S
C262 C264 1.327 . S
C262 H287 0.950 . S
C263 C262 1.349 . S
C263 C279 1.349 . S
C264 C262 1.327 . S
C264 C283 1.429 . S
C264 H288 0.950 . S
C265 C282 1.574 . S
C265 C284 1.368 . S
C265 H289 0.949 . S
H266 C270 0.949 . S
C267 C268 1.349 . S
C267 C269 1.327 . S
C267 H290 0.950 . S
C268 C267 1.349 . S
C268 C280 1.349 . S
C269 C267 1.327 . S
C269 C285 1.429 . S
C269 H291 0.950 . S
C270 H266 0.949 . S
C270 C278 1.574 . S
C270 C286 1.368 . S
H271 C279 0.950 . S
H272 C277 0.950 . S
H273 C278 0.949 . S
H274 C280 0.950 . S
H275 C281 0.950 . S
H276 C282 0.949 . S
C277 H272 0.950 . S
C277 C279 1.327 . S
C277 C283 1.429 . S
C278 C270 1.574 . S
C278 H273 0.949 . S
C278 C284 1.368 . S
C279 C263 1.349 . S
C279 H271 0.950 . S
C279 C277 1.327 . S
C280 C268 1.349 . S
C280 H274 0.950 . S
C280 C281 1.327 . S
C281 H275 0.950 . S
C281 C280 1.327 . S
C281 C285 1.429 . S
C282 C265 1.574 . S
C282 H276 0.949 . S
C282 C286 1.368 . S
C283 C264 1.429 . S
C283 C277 1.429 . S
C283 C284 1.523 . S
C284 C265 1.368 . S
C284 C278 1.368 . S
C284 C283 1.523 . S
C285 C269 1.429 . S
C285 C281 1.429 . S
C285 C286 1.523 . S
C286 C270 1.368 . S
C286 C282 1.368 . S
C286 C285 1.523 . S
H287 C262 0.950 . S
H288 C264 0.950 . S
H289 C265 0.949 . S
H290 C267 0.950 . S
H291 C269 0.950 . S
C292 C293 1.349 . S
C292 C294 1.327 . S
C292 H317 0.950 . S
C293 C292 1.349 . S
C293 C309 1.349 . S
C294 C292 1.327 . S
C294 C313 1.429 . S
C294 H318 0.950 . S
C295 C312 1.574 . S
C295 C314 1.368 . S
C295 H319 0.949 . S
H296 C300 0.949 . S
C297 C298 1.349 . S
C297 C299 1.327 . S
C297 H320 0.950 . S
C298 C297 1.349 . S
C298 C310 1.349 . S
C299 C297 1.327 . S
C299 C315 1.429 . S
C299 H321 0.950 . S
C300 H296 0.949 . S
C300 C308 1.574 . S
C300 C316 1.368 . S
H301 C309 0.950 . S
H302 C307 0.950 . S
H303 C308 0.949 . S
H304 C310 0.950 . S
H305 C311 0.950 . S
H306 C312 0.949 . S
C307 H302 0.950 . S
C307 C309 1.327 . S
C307 C313 1.429 . S
C308 C300 1.574 . S
C308 H303 0.949 . S
C308 C314 1.368 . S
C309 C293 1.349 . S
C309 H301 0.950 . S
C309 C307 1.327 . S
C310 C298 1.349 . S
C310 H304 0.950 . S
C310 C311 1.327 . S
C311 H305 0.950 . S
C311 C310 1.327 . S
C311 C315 1.429 . S
C312 C295 1.574 . S
C312 H306 0.949 . S
C312 C316 1.368 . S
C313 C294 1.429 . S
C313 C307 1.429 . S
C313 C314 1.523 . S
C314 C295 1.368 . S
C314 C308 1.368 . S
C314 C313 1.523 . S
C315 C299 1.429 . S
C315 C311 1.429 . S
C315 C316 1.523 . S
C316 C300 1.368 . S
C316 C312 1.368 . S
C316 C315 1.523 . S
H317 C292 0.950 . S
H318 C294 0.950 . S
H319 C295 0.949 . S
H320 C297 0.950 . S
H321 C299 0.950 . S
C322 C323 1.353 . S
C322 C324 1.327 . S
C322 H347 0.950 . S
C323 C322 1.353 . S
C323 C339 1.345 1_455 S
C324 C322 1.327 . S
C324 C343 1.444 . S
C324 H348 0.950 . S
C325 C342 1.574 . S
C325 C344 1.345 1_655 S
C325 H349 0.949 . S
H326 C330 0.949 . S
C327 C328 1.349 1_655 S
C327 C329 1.327 . S
C327 H350 0.950 . S
C328 C327 1.349 1_455 S
C328 C340 1.349 . S
C329 C327 1.327 . S
C329 C345 1.390 1_655 S
C329 H351 0.950 . S
C330 H326 0.949 . S
C330 C338 1.574 . S
C330 C346 1.404 . S
H331 C339 0.950 . S
H332 C337 0.950 . S
H333 C338 0.949 . S
H334 C340 0.950 . S
H335 C341 0.950 . S
H336 C342 0.949 . S
C337 H332 0.950 . S
C337 C339 1.327 . S
C337 C343 1.413 1_655 S
C338 C330 1.574 . S
C338 H333 0.949 . S
C338 C344 1.392 . S
C339 C323 1.345 1_655 S
C339 H331 0.950 . S
C339 C337 1.327 . S
C340 C328 1.349 . S
C340 H334 0.950 . S
C340 C341 1.327 . S
C341 H335 0.950 . S
C341 C340 1.327 . S
C341 C345 1.468 . S
C342 C325 1.574 . S
C342 H336 0.949 . S
C342 C346 1.333 1_655 S
C343 C324 1.444 . S
C343 C337 1.413 1_455 S
C343 C344 1.523 . S
C344 C325 1.345 1_455 S
C344 C338 1.392 . S
C344 C343 1.523 . S
C345 C329 1.390 1_455 S
C345 C341 1.468 . S
C345 C346 1.523 . S
C346 C330 1.404 . S
C346 C342 1.333 1_455 S
C346 C345 1.523 . S
H347 C322 0.950 . S
H348 C324 0.950 . S
H349 C325 0.949 . S
H350 C327 0.950 . S
H351 C329 0.950 . S
C352 C353 1.350 1_565 S
C352 C354 1.327 . S
C352 H377 0.950 . S
C353 C352 1.350 1_545 S
C353 C369 1.347 . S
C354 C352 1.327 . S
C354 C373 1.426 . S
C354 H378 0.950 . S
C355 C372 1.574 . S
C355 C374 1.369 1_545 S
C355 H379 0.949 . S
H356 C360 0.949 1_556 S
C357 C358 1.339 1_545 S
C357 C359 1.327 . S
C357 H380 0.950 . S
C358 C357 1.339 1_565 S
C358 C370 1.359 . S
C359 C357 1.327 . S
C359 C375 1.423 1_545 S
C359 H381 0.950 . S
C360 H356 0.949 1_554 S
C360 C368 1.574 . S
C360 C376 1.372 . S
H361 C369 0.950 . S
H362 C367 0.950 . S
H363 C368 0.949 . S
H364 C370 0.950 . S
H365 C371 0.950 . S
H366 C372 0.949 . S
C367 H362 0.950 . S
C367 C369 1.327 . S
C367 C373 1.431 1_545 S
C368 C360 1.574 . S
C368 H363 0.949 . S
C368 C374 1.368 . S
C369 C353 1.347 . S
C369 H361 0.950 . S
C369 C367 1.327 . S
C370 C358 1.359 . S
C370 H364 0.950 . S
C370 C371 1.327 . S
C371 H365 0.950 . S
C371 C370 1.327 . S
C371 C375 1.434 . S
C372 C355 1.574 . S
C372 H366 0.949 . S
C372 C376 1.364 1_545 S
C373 C354 1.426 . S
C373 C367 1.431 1_565 S
C373 C374 1.523 . S
C374 C355 1.369 1_565 S
C374 C368 1.368 . S
C374 C373 1.523 . S
C375 C359 1.423 1_565 S
C375 C371 1.434 . S
C375 C376 1.523 1_556 S
C376 C360 1.372 . S
C376 C372 1.364 1_565 S
C376 C375 1.523 1_554 S
H377 C352 0.950 . S
H378 C354 0.950 . S
H379 C355 0.949 . S
H380 C357 0.950 . S
H381 C359 0.950 . S
C382 C383 1.349 . S
C382 C384 1.327 . S
C382 H407 0.950 . S
C383 C382 1.349 . S
C383 C399 1.349 . S
C384 C382 1.327 . S
C384 C403 1.429 . S
C384 H408 0.950 . S
C385 C402 1.574 . S
C385 C404 1.368 . S
C385 H409 0.949 . S
H386 C390 0.949 . S
C387 C388 1.349 . S
C387 C389 1.327 . S
C387 H410 0.950 . S
C388 C387 1.349 . S
C388 C400 1.349 . S
C389 C387 1.327 . S
C389 C405 1.429 . S
C389 H411 0.950 . S
C390 H386 0.949 . S
C390 C398 1.574 1_556 S
C390 C406 1.368 1_556 S
H391 C399 0.950 . S
H392 C397 0.950 . S
H393 C398 0.949 . S
H394 C400 0.950 . S
H395 C401 0.950 . S
H396 C402 0.949 . S
C397 H392 0.950 . S
C397 C399 1.327 . S
C397 C403 1.429 . S
C398 C390 1.574 1_554 S
C398 H393 0.949 . S
C398 C404 1.368 . S
C399 C383 1.349 . S
C399 H391 0.950 . S
C399 C397 1.327 . S
C400 C388 1.349 . S
C400 H394 0.950 . S
C400 C401 1.327 . S
C401 H395 0.950 . S
C401 C400 1.327 . S
C401 C405 1.429 . S
C402 C385 1.574 . S
C402 H396 0.949 . S
C402 C406 1.368 . S
C403 C384 1.429 . S
C403 C397 1.429 . S
C403 C404 1.523 . S
C404 C385 1.368 . S
C404 C398 1.368 . S
C404 C403 1.523 . S
C405 C389 1.429 . S
C405 C401 1.429 . S
C405 C406 1.523 1_556 S
C406 C390 1.368 1_554 S
C406 C402 1.368 . S
C406 C405 1.523 1_554 S
H407 C382 0.950 . S
H408 C384 0.950 . S
H409 C385 0.949 . S
H410 C387 0.950 . S
H411 C389 0.950 . S
C412 C413 1.349 . S
C412 C414 1.327 . S
C412 H437 0.950 . S
C413 C412 1.349 . S
C413 C429 1.349 . S
C414 C412 1.327 . S
C414 C433 1.429 . S
C414 H438 0.950 . S
C415 C432 1.574 . S
C415 C434 1.368 . S
C415 H439 0.949 . S
H416 C420 0.949 . S
C417 C418 1.349 . S
C417 C419 1.327 . S
C417 H440 0.950 . S
C418 C417 1.349 . S
C418 C430 1.349 . S
C419 C417 1.327 . S
C419 C435 1.429 . S
C419 H441 0.950 . S
C420 H416 0.949 . S
C420 C428 1.574 . S
C420 C436 1.368 . S
H421 C429 0.950 . S
H422 C427 0.950 . S
H423 C428 0.949 . S
H424 C430 0.950 . S
H425 C431 0.950 . S
H426 C432 0.949 1_556 S
C427 H422 0.950 . S
C427 C429 1.327 . S
C427 C433 1.429 . S
C428 C420 1.574 . S
C428 H423 0.949 . S
C428 C434 1.368 . S
C429 C413 1.349 . S
C429 H421 0.950 . S
C429 C427 1.327 . S
C430 C418 1.349 . S
C430 H424 0.950 . S
C430 C431 1.327 . S
C431 H425 0.950 . S
C431 C430 1.327 . S
C431 C435 1.429 . S
C432 C415 1.574 . S
C432 H426 0.949 1_554 S
C432 C436 1.368 . S
C433 C414 1.429 . S
C433 C427 1.429 . S
C433 C434 1.523 . S
C434 C415 1.368 . S
C434 C428 1.368 . S
C434 C433 1.523 . S
C435 C419 1.429 . S
C435 C431 1.429 . S
C435 C436 1.523 1_556 S
C436 C420 1.368 . S
C436 C432 1.368 . S
C436 C435 1.523 1_554 S
H437 C412 0.950 . S
H438 C414 0.950 . S
H439 C415 0.949 . S
H440 C417 0.950 . S
H441 C419 0.950 . S
C442 C443 1.347 1_455 S
C442 C444 1.327 . S
C442 H467 0.950 . S
C443 C442 1.347 1_655 S
C443 C459 1.351 . S
C444 C442 1.327 . S
C444 C463 1.422 1_455 S
C444 H468 0.950 . S
C445 C462 1.574 . S
C445 C464 1.379 . S
C445 H469 0.949 . S
H446 C450 0.949 . S
C447 C448 1.349 . S
C447 C449 1.327 . S
C447 H470 0.950 . S
C448 C447 1.349 . S
C448 C460 1.349 1_655 S
C449 C447 1.327 . S
C449 C465 1.445 . S
C449 H471 0.950 . S
C450 H446 0.949 . S
C450 C458 1.574 1_556 S
C450 C466 1.354 1_456 S
H451 C459 0.950 . S
H452 C457 0.950 . S
H453 C458 0.949 . S
H454 C460 0.950 . S
H455 C461 0.950 . S
H456 C462 0.949 . S
C457 H452 0.950 . S
C457 C459 1.327 . S
C457 C463 1.435 . S
C458 C450 1.574 1_554 S
C458 H453 0.949 . S
C458 C464 1.359 1_455 S
C459 C443 1.351 . S
C459 H451 0.950 . S
C459 C457 1.327 . S
C460 C448 1.349 1_455 S
C460 H454 0.950 . S
C460 C461 1.327 . S
C461 H455 0.950 . S
C461 C460 1.327 . S
C461 C465 1.413 1_455 S
C462 C445 1.574 . S
C462 H456 0.949 . S
C462 C466 1.384 . S
C463 C444 1.422 1_655 S
C463 C457 1.435 . S
C463 C464 1.523 . S
C464 C445 1.379 . S
C464 C458 1.359 1_655 S
C464 C463 1.523 . S
C465 C449 1.445 . S
C465 C461 1.413 1_655 S
C465 C466 1.523 1_556 S
C466 C450 1.354 1_654 S
C466 C462 1.384 . S
C466 C465 1.523 1_554 S
H467 C442 0.950 . S
H468 C444 0.950 . S
H469 C445 0.949 . S
H470 C447 0.950 . S
H471 C449 0.950 . S
C472 C473 1.349 1_655 S
C472 C474 1.327 . S
C472 H497 0.950 . S
C473 C472 1.349 1_455 S
C473 C489 1.349 . S
C474 C472 1.327 . S
C474 C493 1.429 . S
C474 H498 0.950 . S
C475 C492 1.574 . S
C475 C494 1.368 . S
C475 H499 0.949 . S
H476 C480 0.949 . S
C477 C478 1.349 . S
C477 C479 1.327 . S
C477 H500 0.950 . S
C478 C477 1.349 . S
C478 C490 1.349 . S
C479 C477 1.327 . S
C479 C495 1.429 . S
C479 H501 0.950 . S
C480 H476 0.949 . S
C480 C488 1.574 . S
C480 C496 1.368 . S
H481 C489 0.950 . S
H482 C487 0.950 . S
H483 C488 0.949 . S
H484 C490 0.950 . S
H485 C491 0.950 . S
H486 C492 0.949 . S
C487 H482 0.950 . S
C487 C489 1.327 . S
C487 C493 1.429 1_455 S
C488 C480 1.574 . S
C488 H483 0.949 . S
C488 C494 1.368 . S
C489 C473 1.349 . S
C489 H481 0.950 . S
C489 C487 1.327 . S
C490 C478 1.349 . S
C490 H484 0.950 . S
C490 C491 1.327 . S
C491 H485 0.950 . S
C491 C490 1.327 . S
C491 C495 1.429 . S
C492 C475 1.574 . S
C492 H486 0.949 . S
C492 C496 1.368 . S
C493 C474 1.429 . S
C493 C487 1.429 1_655 S
C493 C494 1.523 . S
C494 C475 1.368 . S
C494 C488 1.368 . S
C494 C493 1.523 . S
C495 C479 1.429 . S
C495 C491 1.429 . S
C495 C496 1.523 . S
C496 C480 1.368 . S
C496 C492 1.368 . S
C496 C495 1.523 . S
H497 C472 0.950 . S
H498 C474 0.950 . S
H499 C475 0.949 . S
H500 C477 0.950 . S
H501 C479 0.950 . S
C502 C503 1.349 . S
C502 C504 1.327 . S
C502 H527 0.950 . S
C503 C502 1.349 . S
C503 C519 1.349 1_545 S
C504 C502 1.327 . S
C504 C523 1.429 1_545 S
C504 H528 0.950 . S
C505 C522 1.574 . S
C505 C524 1.368 . S
C505 H529 0.949 . S
H506 C510 0.972 . S
C507 C508 1.349 . S
C507 C509 1.327 . S
C507 H530 0.950 . S
C508 C507 1.349 . S
C508 C520 1.349 . S
C509 C507 1.327 . S
C509 C525 1.429 . S
C509 H531 0.950 . S
C510 H506 0.972 . S
C510 C518 1.580 . S
C510 C526 1.337 1_545 S
H511 C519 0.950 . S
H512 C517 0.950 . S
H513 C518 0.949 . S
H514 C520 0.950 . S
H515 C521 0.950 1_545 S
H516 C522 0.949 . S
C517 H512 0.950 . S
C517 C519 1.327 . S
C517 C523 1.429 . S
C518 C510 1.580 . S
C518 H513 0.949 . S
C518 C524 1.368 1_545 S
C519 C503 1.349 1_565 S
C519 H511 0.950 . S
C519 C517 1.327 . S
C520 C508 1.349 . S
C520 H514 0.950 . S
C520 C521 1.327 . S
C521 H515 0.950 1_565 S
C521 C520 1.327 . S
C521 C525 1.429 . S
C522 C505 1.574 . S
C522 H516 0.949 . S
C522 C526 1.368 . S
C523 C504 1.429 1_565 S
C523 C517 1.429 . S
C523 C524 1.523 . S
C524 C505 1.368 . S
C524 C518 1.368 1_565 S
C524 C523 1.523 . S
C525 C509 1.429 . S
C525 C521 1.429 . S
C525 C526 1.523 . S
C526 C510 1.337 1_565 S
C526 C522 1.368 . S
C526 C525 1.523 . S
H527 C502 0.950 . S
H528 C504 0.950 . S
H529 C505 0.949 . S
H530 C507 0.950 . S
H531 C509 0.950 . S
C532 C533 1.349 . S
C532 C534 1.327 . S
C532 H557 0.950 . S
C533 C532 1.349 . S
C533 C549 1.349 . S
C534 C532 1.327 . S
C534 C553 1.429 . S
C534 H558 0.950 . S
C535 C552 1.574 . S
C535 C554 1.368 . S
C535 H559 0.949 . S
H536 C540 0.949 . S
C537 C538 1.349 . S
C537 C539 1.327 . S
C537 H560 0.950 . S
C538 C537 1.349 . S
C538 C550 1.349 . S
C539 C537 1.327 . S
C539 C555 1.429 . S
C539 H561 0.950 . S
C540 H536 0.949 . S
C540 C548 1.574 . S
C540 C556 1.368 . S
H541 C549 0.950 . S
H542 C547 0.950 . S
H543 C548 0.949 . S
H544 C550 0.950 . S
H545 C551 0.950 . S
H546 C552 0.949 . S
C547 H542 0.950 . S
C547 C549 1.327 . S
C547 C553 1.429 . S
C548 C540 1.574 . S
C548 H543 0.949 . S
C548 C554 1.368 . S
C549 C533 1.349 . S
C549 H541 0.950 . S
C549 C547 1.327 . S
C550 C538 1.349 . S
C550 H544 0.950 . S
C550 C551 1.327 . S
C551 H545 0.950 . S
C551 C550 1.327 . S
C551 C555 1.429 . S
C552 C535 1.574 . S
C552 H546 0.949 . S
C552 C556 1.368 . S
C553 C534 1.429 . S
C553 C547 1.429 . S
C553 C554 1.523 . S
C554 C535 1.368 . S
C554 C548 1.368 . S
C554 C553 1.523 . S
C555 C539 1.429 . S
C555 C551 1.429 . S
C555 C556 1.523 . S
C556 C540 1.368 . S
C556 C552 1.368 . S
C556 C555 1.523 . S
H557 C532 0.950 . S
H558 C534 0.950 . S
H559 C535 0.949 . S
H560 C537 0.950 . S
H561 C539 0.950 . S
C562 C563 1.349 . S
C562 C564 1.327 . S
C562 H587 0.950 . S
C563 C562 1.349 . S
C563 C579 1.349 . S
C564 C562 1.327 . S
C564 C583 1.429 . S
C564 H588 0.950 . S
C565 C582 1.574 . S
C565 C584 1.368 . S
C565 H589 0.949 . S
H566 C570 0.949 . S
C567 C568 1.349 . S
C567 C569 1.327 . S
C567 H590 0.950 . S
C568 C567 1.349 . S
C568 C580 1.349 . S
C569 C567 1.327 . S
C569 C585 1.429 . S
C569 H591 0.950 . S
C570 H566 0.949 . S
C570 C578 1.574 . S
C570 C586 1.368 . S
H571 C579 0.950 . S
H572 C577 0.950 . S
H573 C578 0.949 . S
H574 C580 0.950 . S
H575 C581 0.950 . S
H576 C582 0.949 . S
C577 H572 0.950 . S
C577 C579 1.327 . S
C577 C583 1.429 . S
C578 C570 1.574 . S
C578 H573 0.949 . S
C578 C584 1.368 . S
C579 C563 1.349 . S
C579 H571 0.950 . S
C579 C577 1.327 . S
C580 C568 1.349 . S
C580 H574 0.950 . S
C580 C581 1.327 . S
C581 H575 0.950 . S
C581 C580 1.327 . S
C581 C585 1.429 . S
C582 C565 1.574 . S
C582 H576 0.949 . S
C582 C586 1.368 . S
C583 C564 1.429 . S
C583 C577 1.429 . S
C583 C584 1.523 . S
C584 C565 1.368 . S
C584 C578 1.368 . S
C584 C583 1.523 . S
C585 C569 1.429 . S
C585 C581 1.429 . S
C585 C586 1.523 . S
C586 C570 1.368 . S
C586 C582 1.368 . S
C586 C585 1.523 . S
H587 C562 0.950 . S
H588 C564 0.950 . S
H589 C565 0.949 . S
H590 C567 0.950 . S
H591 C569 0.950 . S
C592 C593 1.349 1_455 S
C592 C594 1.327 . S
C592 H617 0.950 . S
C593 C592 1.349 1_655 S
C593 C609 1.349 . S
C594 C592 1.327 . S
C594 C613 1.429 . S
C594 H618 0.950 . S
C595 C612 1.581 . S
C595 C614 1.385 . S
C595 H619 0.929 1_455 S
H596 C600 0.949 . S
C597 C598 1.349 . S
C597 C599 1.327 1_556 S
C597 H620 0.950 1_556 S
C598 C597 1.349 . S
C598 C610 1.349 . S
C599 C597 1.327 1_554 S
C599 C615 1.429 . S
C599 H621 0.950 . S
C600 H596 0.949 . S
C600 C608 1.574 . S
C600 C616 1.368 . S
H601 C609 0.950 . S
H602 C607 0.950 . S
H603 C608 0.949 . S
H604 C610 0.950 . S
H605 C611 0.950 . S
H606 C612 0.942 1_655 S
C607 H602 0.950 . S
C607 C609 1.327 . S
C607 C613 1.429 1_655 S
C608 C600 1.574 . S
C608 H603 0.949 . S
C608 C614 1.368 . S
C609 C593 1.349 . S
C609 H601 0.950 . S
C609 C607 1.327 . S
C610 C598 1.349 . S
C610 H604 0.950 . S
C610 C611 1.327 . S
C611 H605 0.950 . S
C611 C610 1.327 . S
C611 C615 1.429 1_556 S
C612 C595 1.581 . S
C612 H606 0.942 1_455 S
C612 C616 1.368 . S
C613 C594 1.429 . S
C613 C607 1.429 1_455 S
C613 C614 1.523 . S
C614 C595 1.385 . S
C614 C608 1.368 . S
C614 C613 1.523 . S
C615 C599 1.429 . S
C615 C611 1.429 1_554 S
C615 C616 1.523 . S
C616 C600 1.368 . S
C616 C612 1.368 . S
C616 C615 1.523 . S
H617 C592 0.950 . S
H618 C594 0.950 . S
H619 C595 0.929 1_655 S
H620 C597 0.950 1_554 S
H621 C599 0.950 . S
C622 C623 1.349 1_545 S
C622 C624 1.327 . S
C622 H647 0.950 . S
C623 C622 1.349 1_565 S
C623 C639 1.349 . S
C624 C622 1.327 . S
C624 C643 1.429 . S
C624 H648 0.950 . S
C625 C642 1.583 . S
C625 C644 1.368 1_565 S
C625 H649 0.949 . S
H626 C630 0.949 . S
C627 C628 1.349 . S
C627 C629 1.327 1_556 S
C627 H650 0.950 . S
C628 C627 1.349 . S
C628 C640 1.349 . S
C629 C627 1.327 1_554 S
C629 C645 1.429 . S
C629 H651 0.950 1_545 S
C630 H626 0.949 . S
C630 C638 1.574 . S
C630 C646 1.368 . S
H631 C639 0.950 . S
H632 C637 0.950 . S
H633 C638 0.949 . S
H634 C640 0.950 . S
H635 C641 0.950 . S
H636 C642 0.982 . S
C637 H632 0.950 . S
C637 C639 1.327 . S
C637 C643 1.429 1_565 S
C638 C630 1.574 . S
C638 H633 0.949 . S
C638 C644 1.368 . S
C639 C623 1.349 . S
C639 H631 0.950 . S
C639 C637 1.327 . S
C640 C628 1.349 . S
C640 H634 0.950 . S
C640 C641 1.327 . S
C641 H635 0.950 . S
C641 C640 1.327 . S
C641 C645 1.429 1_556 S
C642 C625 1.583 . S
C642 H636 0.982 . S
C642 C646 1.324 1_565 S
C643 C624 1.429 . S
C643 C637 1.429 1_545 S
C643 C644 1.523 . S
C644 C625 1.368 1_545 S
C644 C638 1.368 . S
C644 C643 1.523 . S
C645 C629 1.429 . S
C645 C641 1.429 1_554 S
C645 C646 1.523 . S
C646 C630 1.368 . S
C646 C642 1.324 1_545 S
C646 C645 1.523 . S
H647 C622 0.950 . S
H648 C624 0.950 . S
H649 C625 0.949 . S
H650 C627 0.950 . S
H651 C629 0.950 1_565 S
C652 C653 1.349 . S
C652 C654 1.327 . S
C652 H677 0.950 . S
C653 C652 1.349 . S
C653 C669 1.349 . S
C654 C652 1.327 . S
C654 C673 1.429 . S
C654 H678 0.950 . S
C655 C672 1.574 . S
C655 C674 1.368 . S
C655 H679 0.949 . S
H656 C660 0.949 . S
C657 C658 1.349 . S
C657 C659 1.327 . S
C657 H680 0.950 . S
C658 C657 1.349 . S
C658 C670 1.349 1_556 S
C659 C657 1.327 . S
C659 C675 1.429 1_556 S
C659 H681 0.950 . S
C660 H656 0.949 . S
C660 C668 1.574 . S
C660 C676 1.368 . S
H661 C669 0.950 . S
H662 C667 0.950 . S
H663 C668 0.949 . S
H664 C670 0.950 . S
H665 C671 0.950 . S
H666 C672 0.949 . S
C667 H662 0.950 . S
C667 C669 1.327 . S
C667 C673 1.429 . S
C668 C660 1.574 . S
C668 H663 0.949 . S
C668 C674 1.368 . S
C669 C653 1.349 . S
C669 H661 0.950 . S
C669 C667 1.327 . S
C670 C658 1.349 1_554 S
C670 H664 0.950 . S
C670 C671 1.327 . S
C671 H665 0.950 . S
C671 C670 1.327 . S
C671 C675 1.429 . S
C672 C655 1.574 . S
C672 H666 0.949 . S
C672 C676 1.368 . S
C673 C654 1.429 . S
C673 C667 1.429 . S
C673 C674 1.523 . S
C674 C655 1.368 . S
C674 C668 1.368 . S
C674 C673 1.523 . S
C675 C659 1.429 1_554 S
C675 C671 1.429 . S
C675 C676 1.523 . S
C676 C660 1.368 . S
C676 C672 1.368 . S
C676 C675 1.523 . S
H677 C652 0.950 . S
H678 C654 0.950 . S
H679 C655 0.949 . S
H680 C657 0.950 . S
H681 C659 0.950 . S
C682 C683 1.349 . S
C682 C684 1.327 . S
C682 H707 0.950 . S
C683 C682 1.349 . S
C683 C699 1.349 . S
C684 C682 1.327 . S
C684 C703 1.429 . S
C684 H708 0.950 . S
C685 C702 1.574 . S
C685 C704 1.368 . S
C685 H709 0.949 . S
H686 C690 0.949 . S
C687 C688 1.349 . S
C687 C689 1.327 . S
C687 H710 0.950 . S
C688 C687 1.349 . S
C688 C700 1.349 . S
C689 C687 1.327 . S
C689 C705 1.429 1_556 S
C689 H711 0.950 1_556 S
C690 H686 0.949 . S
C690 C698 1.574 . S
C690 C706 1.368 . S
H691 C699 0.950 . S
H692 C697 0.950 . S
H693 C698 0.949 . S
H694 C700 0.950 . S
H695 C701 0.950 . S
H696 C702 0.949 . S
C697 H692 0.950 . S
C697 C699 1.327 . S
C697 C703 1.429 . S
C698 C690 1.574 . S
C698 H693 0.949 . S
C698 C704 1.368 . S
C699 C683 1.349 . S
C699 H691 0.950 . S
C699 C697 1.327 . S
C700 C688 1.349 . S
C700 H694 0.950 . S
C700 C701 1.327 1_556 S
C701 H695 0.950 . S
C701 C700 1.327 1_554 S
C701 C705 1.429 . S
C702 C685 1.574 . S
C702 H696 0.949 . S
C702 C706 1.368 . S
C703 C684 1.429 . S
C703 C697 1.429 . S
C703 C704 1.523 . S
C704 C685 1.368 . S
C704 C698 1.368 . S
C704 C703 1.523 . S
C705 C689 1.429 1_554 S
C705 C701 1.429 . S
C705 C706 1.523 . S
C706 C690 1.368 . S
C706 C702 1.368 . S
C706 C705 1.523 . S
H707 C682 0.950 . S
H708 C684 0.950 . S
H709 C685 0.949 . S
H710 C687 0.950 . S
H711 C689 0.950 1_554 S
C712 C713 1.349 . S
C712 C714 1.327 . S
C712 H737 0.950 . S
C713 C712 1.349 . S
C713 C729 1.349 1_455 S
C714 C712 1.327 . S
C714 C733 1.429 . S
C714 H738 0.950 . S
C715 C732 1.574 . S
C715 C734 1.368 1_655 S
C715 H739 0.949 . S
H716 C720 0.949 . S
C717 C718 1.349 1_655 S
C717 C719 1.327 . S
C717 H740 0.950 . S
C718 C717 1.349 1_455 S
C718 C730 1.349 . S
C719 C717 1.327 . S
C719 C735 1.429 1_655 S
C719 H741 0.950 . S
C720 H716 0.949 . S
C720 C728 1.574 . S
C720 C736 1.368 . S
H721 C729 0.950 1_554 S
H722 C727 0.950 . S
H723 C728 0.949 . S
H724 C730 0.950 . S
H725 C731 0.950 . S
H726 C732 0.949 . S
C727 H722 0.950 . S
C727 C729 1.327 . S
C727 C733 1.429 1_655 S
C728 C720 1.574 . S
C728 H723 0.949 . S
C728 C734 1.368 . S
C729 C713 1.349 1_655 S
C729 H721 0.950 1_556 S
C729 C727 1.327 . S
C730 C718 1.349 . S
C730 H724 0.950 . S
C730 C731 1.327 . S
C731 H725 0.950 . S
C731 C730 1.327 . S
C731 C735 1.429 . S
C732 C715 1.574 . S
C732 H726 0.949 . S
C732 C736 1.368 1_655 S
C733 C714 1.429 . S
C733 C727 1.429 1_455 S
C733 C734 1.523 . S
C734 C715 1.368 1_455 S
C734 C728 1.368 . S
C734 C733 1.523 . S
C735 C719 1.429 1_455 S
C735 C731 1.429 . S
C735 C736 1.523 . S
C736 C720 1.368 . S
C736 C732 1.368 1_455 S
C736 C735 1.523 . S
H737 C712 0.950 . S
H738 C714 0.950 . S
H739 C715 0.949 . S
H740 C717 0.950 . S
H741 C719 0.950 . S
C742 C743 1.349 1_565 S
C742 C744 1.327 . S
C742 H767 0.950 . S
C743 C742 1.349 1_545 S
C743 C759 1.349 . S
C744 C742 1.327 . S
C744 C763 1.429 1_565 S
C744 H768 0.950 . S
C745 C762 1.574 . S
C745 C764 1.368 . S
C745 H769 0.949 . S
H746 C750 0.949 . S
C747 C748 1.349 . S
C747 C749 1.327 . S
C747 H770 0.950 . S
C748 C747 1.349 . S
C748 C760 1.349 1_545 S
C749 C747 1.327 . S
C749 C765 1.429 . S
C749 H771 0.950 . S
C750 H746 0.949 . S
C750 C758 1.574 . S
C750 C766 1.368 1_565 S
H751 C759 0.950 . S
H752 C757 0.950 . S
H753 C758 0.949 . S
H754 C760 0.950 . S
H755 C761 0.950 . S
H756 C762 0.949 . S
C757 H752 0.950 . S
C757 C759 1.327 . S
C757 C763 1.429 . S
C758 C750 1.574 . S
C758 H753 0.949 . S
C758 C764 1.368 1_565 S
C759 C743 1.349 . S
C759 H751 0.950 . S
C759 C757 1.327 . S
C760 C748 1.349 1_565 S
C760 H754 0.950 . S
C760 C761 1.327 . S
C761 H755 0.950 . S
C761 C760 1.327 . S
C761 C765 1.429 1_565 S
C762 C745 1.574 . S
C762 H756 0.949 . S
C762 C766 1.368 . S
C763 C744 1.429 1_545 S
C763 C757 1.429 . S
C763 C764 1.523 . S
C764 C745 1.368 . S
C764 C758 1.368 1_545 S
C764 C763 1.523 . S
C765 C749 1.429 . S
C765 C761 1.429 1_545 S
C765 C766 1.523 . S
C766 C750 1.368 1_545 S
C766 C762 1.368 . S
C766 C765 1.523 . S
H767 C742 0.950 . S
H768 C744 0.950 . S
H769 C745 0.949 . S
H770 C747 0.950 . S
H771 C749 0.950 . S
C772 C773 1.349 . S
C772 C774 1.327 . S
C772 H797 0.950 . S
C773 C772 1.349 . S
C773 C789 1.349 . S
C774 C772 1.327 . S
C774 C793 1.429 . S
C774 H798 0.950 . S
C775 C792 1.574 . S
C775 C794 1.368 . S
C775 H799 0.949 . S
H776 C780 0.949 . S
C777 C778 1.349 . S
C777 C779 1.327 . S
C777 H800 0.950 . S
C778 C777 1.349 . S
C778 C790 1.349 . S
C779 C777 1.327 . S
C779 C795 1.429 . S
C779 H801 0.950 . S
C780 H776 0.949 . S
C780 C788 1.574 . S
C780 C796 1.368 . S
H781 C789 0.950 1_554 S
H782 C787 0.950 . S
H783 C788 0.949 . S
H784 C790 0.950 . S
H785 C791 0.950 . S
H786 C792 0.949 . S
C787 H782 0.950 . S
C787 C789 1.327 . S
C787 C793 1.429 . S
C788 C780 1.574 . S
C788 H783 0.949 . S
C788 C794 1.368 . S
C789 C773 1.349 . S
C789 H781 0.950 1_556 S
C789 C787 1.327 . S
C790 C778 1.349 . S
C790 H784 0.950 . S
C790 C791 1.327 . S
C791 H785 0.950 . S
C791 C790 1.327 . S
C791 C795 1.429 . S
C792 C775 1.574 . S
C792 H786 0.949 . S
C792 C796 1.368 . S
C793 C774 1.429 . S
C793 C787 1.429 . S
C793 C794 1.523 . S
C794 C775 1.368 . S
C794 C788 1.368 . S
C794 C793 1.523 . S
C795 C779 1.429 . S
C795 C791 1.429 . S
C795 C796 1.523 . S
C796 C780 1.368 . S
C796 C792 1.368 . S
C796 C795 1.523 . S
H797 C772 0.950 . S
H798 C774 0.950 . S
H799 C775 0.949 . S
H800 C777 0.950 . S
H801 C779 0.950 . S
C802 C803 1.349 . S
C802 C804 1.327 . S
C802 H827 0.950 . S
C803 C802 1.349 . S
C803 C819 1.349 . S
C804 C802 1.327 . S
C804 C823 1.429 . S
C804 H828 0.950 . S
C805 C822 1.574 . S
C805 C824 1.368 . S
C805 H829 0.949 . S
H806 C810 0.949 . S
C807 C808 1.349 . S
C807 C809 1.327 . S
C807 H830 0.950 . S
C808 C807 1.349 . S
C808 C820 1.349 . S
C809 C807 1.327 . S
C809 C825 1.429 . S
C809 H831 0.950 . S
C810 H806 0.949 . S
C810 C818 1.574 . S
C810 C826 1.368 . S
H811 C819 0.950 . S
H812 C817 0.950 . S
H813 C818 0.949 . S
H814 C820 0.950 . S
H815 C821 0.950 . S
H816 C822 0.949 . S
C817 H812 0.950 . S
C817 C819 1.327 . S
C817 C823 1.429 . S
C818 C810 1.574 . S
C818 H813 0.949 . S
C818 C824 1.368 . S
C819 C803 1.349 . S
C819 H811 0.950 . S
C819 C817 1.327 . S
C820 C808 1.349 . S
C820 H814 0.950 . S
C820 C821 1.327 . S
C821 H815 0.950 . S
C821 C820 1.327 . S
C821 C825 1.429 . S
C822 C805 1.574 . S
C822 H816 0.949 . S
C822 C826 1.368 . S
C823 C804 1.429 . S
C823 C817 1.429 . S
C823 C824 1.523 . S
C824 C805 1.368 . S
C824 C818 1.368 . S
C824 C823 1.523 . S
C825 C809 1.429 . S
C825 C821 1.429 . S
C825 C826 1.523 . S
C826 C810 1.368 . S
C826 C822 1.368 . S
C826 C825 1.523 . S
H827 C802 0.950 . S
H828 C804 0.950 . S
H829 C805 0.949 . S
H830 C807 0.950 . S
H831 C809 0.950 . S
C832 C833 1.349 1_455 S
C832 C834 1.327 . S
C832 H857 0.950 . S
C833 C832 1.349 1_655 S
C833 C849 1.349 . S
C834 C832 1.327 . S
C834 C853 1.429 1_455 S
C834 H858 0.950 . S
C835 C852 1.574 . S
C835 C854 1.368 . S
C835 H859 0.949 . S
H836 C840 0.949 . S
C837 C838 1.349 . S
C837 C839 1.327 . S
C837 H860 0.950 . S
C838 C837 1.349 . S
C838 C850 1.349 1_655 S
C839 C837 1.327 . S
C839 C855 1.429 . S
C839 H861 0.950 . S
C840 H836 0.949 . S
C840 C848 1.574 . S
C840 C856 1.368 1_455 S
H841 C849 0.950 . S
H842 C847 0.950 . S
H843 C848 0.949 . S
H844 C850 0.950 . S
H845 C851 0.950 . S
H846 C852 0.949 . S
C847 H842 0.950 . S
C847 C849 1.327 . S
C847 C853 1.429 . S
C848 C840 1.574 . S
C848 H843 0.949 . S
C848 C854 1.368 1_455 S
C849 C833 1.349 . S
C849 H841 0.950 . S
C849 C847 1.327 . S
C850 C838 1.349 1_455 S
C850 H844 0.950 . S
C850 C851 1.327 . S
C851 H845 0.950 . S
C851 C850 1.327 . S
C851 C855 1.429 1_455 S
C852 C835 1.574 . S
C852 H846 0.949 . S
C852 C856 1.368 . S
C853 C834 1.429 1_655 S
C853 C847 1.429 . S
C853 C854 1.523 . S
C854 C835 1.368 . S
C854 C848 1.368 1_655 S
C854 C853 1.523 . S
C855 C839 1.429 . S
C855 C851 1.429 1_655 S
C855 C856 1.523 . S
C856 C840 1.368 1_655 S
C856 C852 1.368 . S
C856 C855 1.523 . S
H857 C832 0.950 . S
H858 C834 0.950 . S
H859 C835 0.949 . S
H860 C837 0.950 . S
H861 C839 0.950 . S
C862 C863 1.387 . S
C862 C864 1.327 . S
C862 H887 0.950 . S
C863 C862 1.387 . S
C863 C879 1.314 1_565 S
C864 C862 1.327 . S
C864 C883 1.429 . S
C864 H888 0.950 . S
C865 C882 1.574 . S
C865 C884 1.368 1_545 S
C865 H889 0.949 . S
H866 C870 0.949 . S
C867 C868 1.349 1_545 S
C867 C869 1.327 . S
C867 H890 0.950 . S
C868 C867 1.349 1_565 S
C868 C880 1.349 . S
C869 C867 1.327 . S
C869 C885 1.429 1_545 S
C869 H891 0.950 . S
C870 H866 0.949 . S
C870 C878 1.574 . S
C870 C886 1.368 . S
H871 C879 0.950 . S
H872 C877 0.950 . S
H873 C878 0.949 . S
H874 C880 0.950 . S
H875 C881 0.950 . S
H876 C882 0.949 . S
C877 H872 0.950 . S
C877 C879 1.327 . S
C877 C883 1.429 1_545 S
C878 C870 1.574 . S
C878 H873 0.949 . S
C878 C884 1.368 . S
C879 C863 1.314 1_545 S
C879 H871 0.950 . S
C879 C877 1.327 . S
C880 C868 1.349 . S
C880 H874 0.950 . S
C880 C881 1.327 . S
C881 H875 0.950 . S
C881 C880 1.327 . S
C881 C885 1.429 . S
C882 C865 1.574 . S
C882 H876 0.949 . S
C882 C886 1.368 1_545 S
C883 C864 1.429 . S
C883 C877 1.429 1_565 S
C883 C884 1.523 . S
C884 C865 1.368 1_565 S
C884 C878 1.368 . S
C884 C883 1.523 . S
C885 C869 1.429 1_565 S
C885 C881 1.429 . S
C885 C886 1.523 . S
C886 C870 1.368 . S
C886 C882 1.368 1_565 S
C886 C885 1.523 . S
H887 C862 0.950 . S
H888 C864 0.950 . S
H889 C865 0.949 . S
H890 C867 0.950 . S
H891 C869 0.950 . S
C892 C893 1.349 . S
C892 C894 1.327 . S
C892 H917 0.950 . S
C893 C892 1.349 . S
C893 C909 1.349 . S
C894 C892 1.327 . S
C894 C913 1.429 . S
C894 H918 0.950 . S
C895 C912 1.574 . S
C895 C914 1.368 . S
C895 H919 0.949 . S
H896 C900 0.949 . S
C897 C898 1.349 . S
C897 C899 1.327 . S
C897 H920 0.950 . S
C898 C897 1.349 . S
C898 C910 1.349 . S
C899 C897 1.327 . S
C899 C915 1.429 . S
C899 H921 0.950 . S
C900 H896 0.949 . S
C900 C908 1.574 . S
C900 C916 1.368 . S
H901 C909 0.950 . S
H902 C907 0.950 . S
H903 C908 0.949 . S
H904 C910 0.950 . S
H905 C911 0.950 . S
H906 C912 0.949 . S
C907 H902 0.950 . S
C907 C909 1.327 . S
C907 C913 1.429 . S
C908 C900 1.574 . S
C908 H903 0.949 . S
C908 C914 1.368 . S
C909 C893 1.349 . S
C909 H901 0.950 . S
C909 C907 1.327 . S
C910 C898 1.349 . S
C910 H904 0.950 . S
C910 C911 1.327 . S
C911 H905 0.950 . S
C911 C910 1.327 . S
C911 C915 1.429 . S
C912 C895 1.574 . S
C912 H906 0.949 . S
C912 C916 1.368 . S
C913 C894 1.429 . S
C913 C907 1.429 . S
C913 C914 1.523 . S
C914 C895 1.368 . S
C914 C908 1.368 . S
C914 C913 1.523 . S
C915 C899 1.429 . S
C915 C911 1.429 . S
C915 C916 1.523 . S
C916 C900 1.368 . S
C916 C912 1.368 . S
C916 C915 1.523 . S
H917 C892 0.950 . S
H918 C894 0.950 . S
H919 C895 0.949 . S
H920 C897 0.950 . S
H921 C899 0.950 . S
C922 C923 1.349 . S
C922 C924 1.327 . S
C922 H947 0.950 . S
C923 C922 1.349 . S
C923 C939 1.349 . S
C924 C922 1.327 . S
C924 C943 1.429 . S
C924 H948 0.950 . S
C925 C942 1.574 . S
C925 C944 1.368 . S
C925 H949 0.949 . S
H926 C930 0.949 . S
C927 C928 1.349 . S
C927 C929 1.327 . S
C927 H950 0.950 . S
C928 C927 1.349 . S
C928 C940 1.349 . S
C929 C927 1.327 . S
C929 C945 1.429 . S
C929 H951 0.950 . S
C930 H926 0.949 . S
C930 C938 1.574 . S
C930 C946 1.368 . S
H931 C939 0.950 . S
H932 C937 0.950 . S
H933 C938 0.949 . S
H934 C940 0.950 . S
H935 C941 0.950 . S
H936 C942 0.949 . S
C937 H932 0.950 . S
C937 C939 1.327 . S
C937 C943 1.429 . S
C938 C930 1.574 . S
C938 H933 0.949 . S
C938 C944 1.368 . S
C939 C923 1.349 . S
C939 H931 0.950 . S
C939 C937 1.327 . S
C940 C928 1.349 . S
C940 H934 0.950 . S
C940 C941 1.327 . S
C941 H935 0.950 . S
C941 C940 1.327 . S
C941 C945 1.429 . S
C942 C925 1.574 . S
C942 H936 0.949 . S
C942 C946 1.368 . S
C943 C924 1.429 . S
C943 C937 1.429 . S
C943 C944 1.523 . S
C944 C925 1.368 . S
C944 C938 1.368 . S
C944 C943 1.523 . S
C945 C929 1.429 . S
C945 C941 1.429 . S
C945 C946 1.523 . S
C946 C930 1.368 . S
C946 C942 1.368 . S
C946 C945 1.523 . S
H947 C922 0.950 . S
H948 C924 0.950 . S
H949 C925 0.949 . S
H950 C927 0.950 . S
H951 C929 0.950 . S
C233 C61 1.660 1_545 S
C238 C74 1.748 1_545 S
C268 C114 1.762 . S
C263 C70 1.675 . S
C298 C154 1.767 . S
C293 C43 1.676 . S
C328 C194 1.761 1_455 S
C323 C52 1.669 1_455 S
C358 C87 1.753 1_565 S
C353 C25 1.666 1_545 S
C383 C34 1.681 . S
C388 C127 1.767 . S
C413 C7 1.676 . S
C418 C167 1.767 . S
C443 C16 1.670 . S
C448 C207 1.762 1_655 S
C478 C98 0.274 . S
C473 C50 0.248 1_455 S
C508 C138 0.279 . S
C503 C59 0.259 1_545 S
C538 C178 0.281 . S
C533 C67 0.253 . S
C563 C41 0.255 . S
C568 C218 0.272 . S
C593 C14 0.244 . S
C598 C81 0.273 . S
C628 C121 0.278 . S
C623 C23 0.250 . S
C658 C161 0.281 . S
C653 C31 0.259 . S
C683 C5 0.242 . S
C688 C201 0.283 . S
C713 C49 1.834 1_455 S
C718 C75 2.034 . S
C743 C58 1.803 1_545 S
C748 C115 2.007 . S
C778 C155 1.993 . S
C773 C68 1.787 . S
C808 C195 2.021 . S
C803 C40 1.811 . S
C833 C13 1.834 . S
C838 C94 2.046 . S
C868 C134 2.007 . S
C863 C22 1.802 . S
C898 C174 1.993 . S
C893 C32 1.788 . S
C923 C4 1.815 . S
C928 C214 2.027 . S
