# Generated by pormake.
# Topology nom, (4,4)-cn, num edge types: 1
# Building blocks:
#     Node 0, Type 0, BuildingBlock: NAWXER_clean_linker_0, # of connection points: 4
#     Node 1, Type 0, BuildingBlock: NAWXER_clean_linker_0, # of connection points: 4
#     Node 2, Type 0, BuildingBlock: NAWXER_clean_linker_0, # of connection points: 4
#     Node 3, Type 0, BuildingBlock: NAWXER_clean_linker_0, # of connection points: 4
#     Node 4, Type 0, BuildingBlock: NAWXER_clean_linker_0, # of connection points: 4
#     Node 5, Type 0, BuildingBlock: NAWXER_clean_linker_0, # of connection points: 4
#     Node 6, Type 1, BuildingBlock: AZAVOO_clean_sbu_0, # of connection points: 4
#     Node 7, Type 1, BuildingBlock: AZAVOO_clean_sbu_0, # of connection points: 4
#     Node 8, Type 1, BuildingBlock: AZAVOO_clean_sbu_0, # of connection points: 4
#     Node 9, Type 1, BuildingBlock: AZAVOO_clean_sbu_0, # of connection points: 4
#     Node 10, Type 1, BuildingBlock: AZAVOO_clean_sbu_0, # of connection points: 4
#     Node 11, Type 1, BuildingBlock: AZAVOO_clean_sbu_0, # of connection points: 4
#     Edge 12, Type (0, 1), BuildingBlock: EZIPEK_clean_linker_0, # of connection points: 2
#     Edge 13, Type (0, 1), BuildingBlock: EZIPEK_clean_linker_0, # of connection points: 2
#     Edge 14, Type (0, 1), BuildingBlock: EZIPEK_clean_linker_0, # of connection points: 2
#     Edge 15, Type (0, 1), BuildingBlock: EZIPEK_clean_linker_0, # of connection points: 2
#     Edge 16, Type (0, 1), BuildingBlock: EZIPEK_clean_linker_0, # of connection points: 2
#     Edge 17, Type (0, 1), BuildingBlock: EZIPEK_clean_linker_0, # of connection points: 2
#     Edge 18, Type (0, 1), BuildingBlock: EZIPEK_clean_linker_0, # of connection points: 2
#     Edge 19, Type (0, 1), BuildingBlock: EZIPEK_clean_linker_0, # of connection points: 2
#     Edge 20, Type (0, 1), BuildingBlock: EZIPEK_clean_linker_0, # of connection points: 2
#     Edge 21, Type (0, 1), BuildingBlock: EZIPEK_clean_linker_0, # of connection points: 2
#     Edge 22, Type (0, 1), BuildingBlock: EZIPEK_clean_linker_0, # of connection points: 2
#     Edge 23, Type (0, 1), BuildingBlock: EZIPEK_clean_linker_0, # of connection points: 2
#     Edge 24, Type (0, 1), BuildingBlock: EZIPEK_clean_linker_0, # of connection points: 2
#     Edge 25, Type (0, 1), BuildingBlock: EZIPEK_clean_linker_0, # of connection points: 2
#     Edge 26, Type (0, 1), BuildingBlock: EZIPEK_clean_linker_0, # of connection points: 2
#     Edge 27, Type (0, 1), BuildingBlock: EZIPEK_clean_linker_0, # of connection points: 2
#     Edge 28, Type (0, 1), BuildingBlock: EZIPEK_clean_linker_0, # of connection points: 2
#     Edge 29, Type (0, 1), BuildingBlock: EZIPEK_clean_linker_0, # of connection points: 2
#     Edge 30, Type (0, 1), BuildingBlock: EZIPEK_clean_linker_0, # of connection points: 2
#     Edge 31, Type (0, 1), BuildingBlock: EZIPEK_clean_linker_0, # of connection points: 2
#     Edge 32, Type (0, 1), BuildingBlock: EZIPEK_clean_linker_0, # of connection points: 2
#     Edge 33, Type (0, 1), BuildingBlock: EZIPEK_clean_linker_0, # of connection points: 2
#     Edge 34, Type (0, 1), BuildingBlock: EZIPEK_clean_linker_0, # of connection points: 2
#     Edge 35, Type (0, 1), BuildingBlock: EZIPEK_clean_linker_0, # of connection points: 2
# Relax obj value: 0.044
# Max RMSD: 0.158
# Mean RMSD: 0.131
data_MOF--net-nom--node1-AZAVOO_clean_sbu_0--node2-NAWXER_clean_linker_0--edge1-EZIPEK_clean_linker_0
_symmetry_space_group_name_H-M    P1
_symmetry_Int_Tables_number       1
_symmetry_cell_setting            triclinic
loop_
_symmetry_equiv_pos_as_xyz
'x, y, z'
_cell_length_a     40.99365
_cell_length_b     41.411123
_cell_length_c     43.550902
_cell_angle_alpha  91.159216
_cell_angle_beta   91.46314
_cell_angle_gamma 119.95027
loop_
_atom_site_label
_atom_site_type_symbol
_atom_site_fract_x
_atom_site_fract_y
_atom_site_fract_z
_atom_type_partial_charge
C0 C 0.85886 0.4659 0.3422 0.0
C1 C 0.84493 0.43979 0.36524 0.0
C2 C 0.89506 0.47881 0.33202 0.0
C3 C 0.91767 0.46511 0.34419 0.0
C4 C 0.86757 0.42661 0.37812 0.0
C5 C 0.90381 0.43925 0.36764 0.0
C6 C 0.95711 0.48101 0.33506 0.0
C7 C 0.88948 0.42539 0.24667 0.0
C8 C 0.89299 0.45042 0.22393 0.0
C9 C 0.91315 0.438 0.27326 0.0
C10 C 0.94098 0.47581 0.2774 0.0
C11 C 0.92021 0.48832 0.22845 0.0
C12 C 0.94423 0.50079 0.25473 0.0
C13 C 0.96807 0.48923 0.30438 0.0
C14 C 0.13899 0.569 0.318 0.0
C15 C 0.14651 0.59898 0.29932 0.0
C16 C 0.10187 0.54333 0.32485 0.0
C17 C 0.07202 0.5481 0.31386 0.0
C18 C 0.11664 0.60293 0.28747 0.0
C19 C 0.07972 0.5777 0.29468 0.0
C20 C 0.03262 0.52296 0.32208 0.0
C21 C 0.09926 0.57491 0.41153 0.0
C22 C 0.09846 0.54836 0.43149 0.0
C23 C 0.07438 0.5636 0.38579 0.0
C24 C 0.04871 0.52554 0.37943 0.0
C25 C 0.07255 0.51043 0.42541 0.0
C26 C 0.04776 0.49914 0.39966 0.0
C27 C 0.02173 0.51297 0.35255 0.0
H28 H 0.84176 0.47659 0.33232 0.0
H29 H 0.9056 0.50021 0.31516 0.0
H30 H 0.85711 0.40652 0.39606 0.0
H31 H 0.92109 0.42898 0.37788 0.0
H32 H 0.86892 0.396 0.24353 0.0
H33 H 0.9104 0.41806 0.29017 0.0
H34 H 0.92351 0.50807 0.21117 0.0
H35 H 0.96549 0.53002 0.25734 0.0
H36 H 0.16181 0.56549 0.32714 0.0
H37 H 0.09656 0.52005 0.33889 0.0
H38 H 0.12202 0.62584 0.27291 0.0
H39 H 0.05718 0.58179 0.28574 0.0
H40 H 0.11876 0.60433 0.41614 0.0
H41 H 0.07499 0.58459 0.37098 0.0
H42 H 0.07134 0.48964 0.44076 0.0
H43 H 0.02792 0.46971 0.39542 0.0
N44 N 0.98437 0.49252 0.35782 0.0
N45 N 0.00538 0.51046 0.29923 0.0
C46 C 0.41562 0.88263 0.51498 0.0
C47 C 0.42998 0.86848 0.53709 0.0
C48 C 0.43801 0.91859 0.50485 0.0
C49 C 0.47526 0.94095 0.51654 0.0
C50 C 0.46724 0.89044 0.54873 0.0
C51 C 0.4897 0.92671 0.53869 0.0
C52 C 0.49743 0.98 0.50721 0.0
C53 C 0.49295 0.91216 0.42464 0.0
C54 C 0.47244 0.91342 0.3989 0.0
C55 C 0.50074 0.93651 0.45001 0.0
C56 C 0.48796 0.96241 0.45011 0.0
C57 C 0.45947 0.93904 0.39897 0.0
C58 C 0.46729 0.96344 0.42431 0.0
C59 C 0.4979 0.98968 0.47632 0.0
C60 C 0.56853 0.15523 0.47451 0.0
C61 C 0.538 0.15681 0.46072 0.0
C62 C 0.56322 0.12178 0.48632 0.0
C63 C 0.52741 0.08969 0.48411 0.0
C64 C 0.50207 0.12505 0.45956 0.0
C65 C 0.4969 0.09167 0.47092 0.0
C66 C 0.52133 0.05297 0.49286 0.0
C67 C 0.54399 0.11997 0.58331 0.0
C68 C 0.57188 0.11937 0.6023 0.0
C69 C 0.52949 0.09638 0.55695 0.0
C70 C 0.54291 0.07208 0.54917 0.0
C71 C 0.58573 0.09564 0.59425 0.0
C72 C 0.57126 0.0721 0.568 0.0
C73 C 0.52577 0.04414 0.52328 0.0
H74 H 0.38678 0.8661 0.50608 0.0
H75 H 0.42577 0.9293 0.48848 0.0
H76 H 0.47849 0.87983 0.56606 0.0
H77 H 0.51814 0.94368 0.54829 0.0
H78 H 0.50372 0.89302 0.42473 0.0
H79 H 0.51766 0.93577 0.46919 0.0
H80 H 0.44398 0.94066 0.37909 0.0
H81 H 0.45735 0.98324 0.42369 0.0
H82 H 0.59648 0.17956 0.47539 0.0
H83 H 0.58713 0.12061 0.49614 0.0
H84 H 0.47833 0.12582 0.44886 0.0
H85 H 0.4691 0.06711 0.46893 0.0
H86 H 0.53265 0.13779 0.58944 0.0
H87 H 0.50689 0.09618 0.54337 0.0
H88 H 0.60701 0.0946 0.60878 0.0
H89 H 0.58181 0.0534 0.56265 0.0
N90 N 0.51269 0.00767 0.52943 0.0
N91 N 0.50852 0.02561 0.47042 0.0
C92 C 0.57571 0.46982 0.54986 0.0
C93 C 0.55044 0.4518 0.52469 0.0
C94 C 0.56386 0.4804 0.57609 0.0
C95 C 0.52666 0.47334 0.57738 0.0
C96 C 0.51308 0.44412 0.52619 0.0
C97 C 0.5014 0.45523 0.55221 0.0
C98 C 0.51452 0.48632 0.60432 0.0
C99 C 0.5214 0.38842 0.63831 0.0
C100 C 0.54638 0.39591 0.66351 0.0
C101 C 0.51424 0.41608 0.62807 0.0
C102 C 0.53238 0.45177 0.64265 0.0
C103 C 0.56518 0.43165 0.6777 0.0
C104 C 0.55813 0.45938 0.66739 0.0
C105 C 0.52089 0.47934 0.63483 0.0
C106 C 0.4929 0.58981 0.70569 0.0
C107 C 0.47594 0.56888 0.73145 0.0
C108 C 0.5001 0.57332 0.6804 0.0
C109 C 0.49028 0.53559 0.68045 0.0
C110 C 0.46723 0.53156 0.73197 0.0
C111 C 0.47464 0.51513 0.70675 0.0
C112 C 0.49664 0.51744 0.65339 0.0
C113 C 0.44463 0.57178 0.58069 0.0
C114 C 0.41207 0.5615 0.59708 0.0
C115 C 0.4694 0.55935 0.58963 0.0
C116 C 0.46198 0.53672 0.61511 0.0
C117 C 0.40452 0.53885 0.6224 0.0
C118 C 0.42902 0.52621 0.63115 0.0
C119 C 0.48646 0.52096 0.62285 0.0
H120 H 0.6047 0.4762 0.54898 0.0
H121 H 0.58399 0.49488 0.59505 0.0
H122 H 0.49325 0.43032 0.50692 0.0
H123 H 0.47263 0.44963 0.55273 0.0
H124 H 0.50632 0.36076 0.62746 0.0
H125 H 0.49317 0.40893 0.60972 0.0
H126 H 0.58431 0.43764 0.69738 0.0
H127 H 0.57203 0.48649 0.67924 0.0
H128 H 0.49982 0.61867 0.70494 0.0
H129 H 0.51306 0.58997 0.66073 0.0
H130 H 0.45402 0.51501 0.75164 0.0
H131 H 0.46716 0.4861 0.70742 0.0
H132 H 0.45072 0.58926 0.56106 0.0
H133 H 0.49426 0.56725 0.57656 0.0
H134 H 0.37932 0.53053 0.63512 0.0
H135 H 0.42164 0.50749 0.65002 0.0
N136 N 0.49672 0.5061 0.59947 0.0
N137 N 0.51258 0.49593 0.6582 0.0
C138 C 0.87348 0.41897 0.82024 0.0
C139 C 0.85675 0.4244 0.79388 0.0
C140 C 0.91003 0.44571 0.8301 0.0
C141 C 0.93017 0.47874 0.81409 0.0
C142 C 0.87662 0.45717 0.77774 0.0
C143 C 0.91313 0.48413 0.78775 0.0
C144 C 0.97034 0.50536 0.82234 0.0
C145 C 0.90796 0.50729 0.90399 0.0
C146 C 0.91424 0.49116 0.92985 0.0
C147 C 0.93122 0.51582 0.87905 0.0
C148 C 0.96101 0.50822 0.87961 0.0
C149 C 0.94478 0.48479 0.93096 0.0
C150 C 0.96823 0.49358 0.90607 0.0
C151 C 0.98503 0.51606 0.85292 0.0
C152 C 0.14357 0.6005 0.87547 0.0
C153 C 0.16408 0.58697 0.85987 0.0
C154 C 0.10564 0.58712 0.86711 0.0
C155 C 0.08795 0.5603 0.84293 0.0
C156 C 0.14635 0.55982 0.83611 0.0
C157 C 0.10852 0.5463 0.82791 0.0
C158 C 0.04744 0.54506 0.83488 0.0
C159 C 0.10862 0.60137 0.75135 0.0
C160 C 0.10144 0.57708 0.72594 0.0
C161 C 0.08607 0.58893 0.77678 0.0
C162 C 0.05636 0.55188 0.77725 0.0
C163 C 0.07107 0.54048 0.72587 0.0
C164 C 0.04852 0.52801 0.75132 0.0
C165 C 0.03265 0.53812 0.80424 0.0
H166 H 0.85846 0.39366 0.83282 0.0
H167 H 0.92287 0.43993 0.84966 0.0
H168 H 0.86396 0.46169 0.75734 0.0
H169 H 0.92826 0.50903 0.77471 0.0
H170 H 0.88444 0.51232 0.90284 0.0
H171 H 0.92573 0.52801 0.8592 0.0
H172 H 0.94982 0.47218 0.95072 0.0
H173 H 0.99131 0.48788 0.90708 0.0
H174 H 0.15695 0.62142 0.89395 0.0
H175 H 0.09018 0.59786 0.87937 0.0
H176 H 0.16181 0.54893 0.82404 0.0
H177 H 0.09527 0.52455 0.81006 0.0
H178 H 0.13202 0.62974 0.75164 0.0
H179 H 0.09197 0.60818 0.79611 0.0
H180 H 0.06536 0.52145 0.7064 0.0
H181 H 0.02549 0.49946 0.75106 0.0
N182 N -0.00524 0.51771 0.79919 0.0
N183 N 0.02303 0.53465 0.85807 0.0
C184 C 0.4745 0.88396 0.99672 0.0
C185 C 0.44996 0.86373 0.97173 0.0
C186 C 0.48152 0.91982 0.00453 0.0
C187 C 0.46373 0.93576 0.98767 0.0
C188 C 0.43202 0.87943 0.95493 0.0
C189 C 0.43907 0.91533 0.96272 0.0
C190 C 0.47358 0.97486 0.99427 0.0
C191 C 0.41582 0.91177 0.07697 0.0
C192 C 0.433 0.92775 0.10583 0.0
C193 C 0.42906 0.93204 0.05048 0.0
C194 C 0.46135 0.96778 0.0521 0.0
C195 C 0.4633 0.96443 0.10782 0.0
C196 C 0.47785 0.9839 0.08124 0.0
C197 C 0.4768 0.9901 0.02437 0.0
C198 C 0.55414 0.15683 0.00891 0.0
C199 C 0.5859 0.16657 0.02833 0.0
C200 C 0.52862 0.11929 0.00115 0.0
C201 C 0.53459 0.09125 0.01294 0.0
C202 C 0.59115 0.13846 0.04067 0.0
C203 C 0.56558 0.10114 0.03321 0.0
C204 C 0.50923 0.05133 0.00495 0.0
C205 C 0.56124 0.10688 0.91722 0.0
C206 C 0.53327 0.10454 0.89649 0.0
C207 C 0.55124 0.08422 0.94258 0.0
C208 C 0.51317 0.05903 0.94745 0.0
C209 C 0.49531 0.07864 0.90092 0.0
C210 C 0.48537 0.05576 0.92613 0.0
C211 C 0.5019 0.03601 0.9747 0.0
H212 H 0.48879 0.87229 0.00971 0.0
H213 H 0.50151 0.93542 0.02331 0.0
H214 H 0.41319 0.86416 0.93545 0.0
H215 H 0.4255 0.92728 0.94914 0.0
H216 H 0.3919 0.88369 0.075 0.0
H217 H 0.41371 0.91959 0.02894 0.0
H218 H 0.47652 0.97752 0.12994 0.0
H219 H 0.50218 0.01168 0.0836 0.0
H220 H 0.54973 0.1783 -0.00079 0.0
H221 H 0.50452 0.11219 0.98589 0.0
H222 H 0.61551 0.14548 0.05561 0.0
H223 H 0.57056 0.07991 0.04269 0.0
H224 H 0.59066 0.12684 0.9141 0.0
H225 H 0.57311 0.08667 0.95858 0.0
H226 H 0.47344 0.07666 0.88518 0.0
H227 H 0.45588 0.03622 0.92947 0.0
N228 N 0.48492 -0.00163 0.97048 0.0
N229 N 0.49558 0.02779 0.02841 0.0
C230 C 0.45401 0.6232 0.1608 0.0
C231 C 0.43022 0.61053 0.18568 0.0
C232 C 0.4656 0.6003 0.14658 0.0
C233 C 0.45296 0.56406 0.15669 0.0
C234 C 0.41723 0.57435 0.19571 0.0
C235 C 0.42847 0.55127 0.18127 0.0
C236 C 0.46928 0.54148 0.14523 0.0
C237 C 0.41552 0.55371 0.05602 0.0
C238 C 0.44171 0.5732 0.03362 0.0
C239 C 0.42705 0.54403 0.08322 0.0
C240 C 0.46486 0.5535 0.08821 0.0
C241 C 0.47972 0.58402 0.03927 0.0
C242 C 0.4911 0.57394 0.06616 0.0
C243 C 0.47663 0.53842 0.11409 0.0
C244 C 0.5354 0.43074 0.11554 0.0
C245 C 0.57005 0.45226 0.10177 0.0
C246 C 0.51344 0.44667 0.1233 0.0
C247 C 0.52611 0.48429 0.11747 0.0
C248 C 0.58178 0.48929 0.09477 0.0
C249 C 0.55982 0.5051 0.10234 0.0
C250 C 0.50592 0.50317 0.12839 0.0
C251 C 0.55316 0.47269 0.20942 0.0
C252 C 0.53108 0.46055 0.23542 0.0
C253 C 0.54435 0.48965 0.18585 0.0
C254 C 0.51079 0.49113 0.1858 0.0
C255 C 0.4997 0.46557 0.23701 0.0
C256 C 0.48908 0.47968 0.21214 0.0
C257 C 0.4988 0.50627 0.15969 0.0
H258 H 0.46458 0.65129 0.15308 0.0
H259 H 0.48578 0.61167 0.1287 0.0
H260 H 0.399 0.5643 0.215 0.0
H261 H 0.4188 0.52368 0.18984 0.0
H262 H 0.38603 0.54496 0.05198 0.0
H263 H 0.40618 0.52769 0.09963 0.0
H264 H 0.50031 0.599 0.02226 0.0
H265 H 0.52035 0.58134 0.06943 0.0
H266 H 0.52579 0.40196 0.12072 0.0
H267 H 0.48724 0.43011 0.13466 0.0
H268 H 0.60826 0.5061 0.08385 0.0
H269 H 0.5699 0.53406 0.09748 0.0
H270 H 0.57805 0.47004 0.20771 0.0
H271 H 0.56426 0.50166 0.16796 0.0
H272 H 0.48283 0.45767 0.25718 0.0
H273 H 0.46376 0.48162 0.21358 0.0
N274 N 0.48054 0.52515 0.16657 0.0
N275 N 0.49486 0.51959 0.10706 0.0
Mg276 Mg 0.60648 0.36062 0.36197 0.0
O277 O 0.59288 0.38677 0.40298 0.0
O278 O 0.62756 0.44867 0.39826 0.0
Mg279 Mg 0.65494 0.46148 0.35154 0.0
C280 C 0.6047 0.4202 0.41293 0.0
C281 C 0.55701 0.28689 0.39859 0.0
O282 O 0.53041 0.29567 0.39591 0.0
O283 O 0.66589 0.38219 0.38098 0.0
O284 O 0.69582 0.44113 0.36586 0.0
O285 O 0.55721 0.35441 0.3328 0.0
O286 O 0.6128 0.4046 0.33642 0.0
C287 C 0.69597 0.41281 0.37678 0.0
C288 C 0.57901 0.38843 0.32498 0.0
O289 O 0.58868 0.30715 0.38697 0.0
Mg290 Mg 0.25889 0.64936 0.59164 0.0
O291 O 0.21697 0.62021 0.5505 0.0
O292 O 0.18562 0.55937 0.5604 0.0
Mg293 Mg 0.20301 0.55087 0.60883 0.0
C294 C 0.19259 0.58639 0.54302 0.0
C295 C 0.32472 0.72385 0.58108 0.0
O296 O 0.33068 0.71511 0.60867 0.0
O297 O 0.29496 0.62489 0.5773 0.0
O298 O 0.26299 0.56709 0.59481 0.0
O299 O 0.21792 0.66029 0.61617 0.0
O300 O 0.22258 0.60965 0.62056 0.0
C301 C 0.29227 0.59369 0.58341 0.0
C302 C 0.20644 0.62823 0.62824 0.0
O303 O 0.29492 0.70131 0.56558 0.0
Mg304 Mg 0.61719 0.2642 0.76593 0.0
O305 O 0.61043 0.22467 0.72561 0.0
O306 O 0.64126 0.19499 0.73913 0.0
Mg307 Mg 0.66074 0.21022 0.7901 0.0
C308 C 0.62187 0.20178 0.71961 0.0
C309 C 0.56968 0.28539 0.72234 0.0
O310 O 0.54324 0.25115 0.72743 0.0
O311 O 0.6795 0.3022 0.75866 0.0
O312 O 0.70503 0.27068 0.77997 0.0
O313 O 0.56302 0.22112 0.7849 0.0
O314 O 0.61901 0.2282 0.79723 0.0
C315 C 0.70798 0.30001 0.76824 0.0
C316 C 0.58317 0.21041 0.80026 0.0
O317 O 0.60254 0.29811 0.73429 0.0
Mg318 Mg 0.40701 0.66601 0.86409 0.0
O319 O 0.41313 0.63603 0.90567 0.0
O320 O 0.37774 0.57472 0.89521 0.0
Mg321 Mg 0.35387 0.56576 0.84549 0.0
C322 C 0.39946 0.60225 0.91335 0.0
C323 C 0.41934 0.72158 0.92097 0.0
O324 O 0.43161 0.72258 0.89338 0.0
O325 O 0.34672 0.64878 0.87561 0.0
O326 O 0.31531 0.58881 0.85908 0.0
O327 O 0.45673 0.66789 0.84187 0.0
O328 O 0.3979 0.62224 0.83441 0.0
C329 C 0.31609 0.61813 0.86985 0.0
C330 C 0.43283 0.63624 0.82843 0.0
O331 O 0.43065 0.72147 0.89396 0.0
Mg332 Mg 0.74693 0.40416 0.05568 0.0
O333 O 0.7839 0.41221 0.09942 0.0
O334 O 0.81555 0.38256 0.0885 0.0
Mg335 Mg 0.80466 0.36207 0.03785 0.0
C336 C 0.80714 0.40135 0.10705 0.0
C337 C 0.67376 0.40157 0.0703 0.0
O338 O 0.6637 0.37499 0.04902 0.0
O339 O 0.70835 0.34216 0.06276 0.0
O340 O 0.74273 0.31835 0.04428 0.0
O341 O 0.79156 0.45762 0.03652 0.0
O342 O 0.78647 0.40248 0.02841 0.0
C343 C 0.71182 0.31453 0.05383 0.0
C344 C 0.80376 0.4375 0.02351 0.0
O345 O 0.70783 0.41926 0.08051 0.0
Mg346 Mg 0.36234 0.77229 0.23855 0.0
O347 O 0.40199 0.80926 0.27837 0.0
O348 O 0.46081 0.83374 0.26265 0.0
Mg349 Mg 0.45708 0.82061 0.21037 0.0
C350 C 0.43756 0.82943 0.28333 0.0
C351 C 0.28773 0.71211 0.25538 0.0
O352 O 0.28908 0.70982 0.22535 0.0
O353 O 0.38237 0.7301 0.24126 0.0
O354 O 0.43668 0.75884 0.21705 0.0
O355 O 0.35358 0.81891 0.22383 0.0
O356 O 0.39783 0.80823 0.20696 0.0
C357 C 0.41022 0.73005 0.22891 0.0
C358 C 0.38151 0.82793 0.20609 0.0
O359 O 0.31583 0.73802 0.27051 0.0
C360 C 0.20594 0.61728 0.27154 0.0
C361 C 0.18561 0.6269 0.2921 0.0
C362 C 0.23382 0.69287 0.29069 0.0
C363 C 0.25478 0.68308 0.27094 0.0
N364 N 0.26643 0.6354 0.25027 0.0
N365 N 0.18473 0.67178 0.32768 0.0
C366 C 0.24259 0.64504 0.26379 0.0
C367 C 0.20113 0.66409 0.30383 0.0
N368 N 0.18965 0.58223 0.25821 0.0
N369 N 0.24362 0.7294 0.29544 0.0
H370 H 0.16091 0.65117 0.338 0.0
H371 H 0.19682 0.69775 0.33913 0.0
H372 H 0.26689 0.75143 0.28581 0.0
H373 H 0.2268 0.73769 0.30681 0.0
H374 H 0.20163 0.57507 0.24041 0.0
H375 H 0.16271 0.56102 0.26308 0.0
H376 H 0.26026 0.60788 0.24714 0.0
H377 H 0.29403 0.65496 0.24526 0.0
C378 C 0.54731 0.19215 0.41274 0.0
C379 C 0.54376 0.19069 0.44511 0.0
C380 C 0.54559 0.25091 0.44671 0.0
C381 C 0.55036 0.25293 0.41444 0.0
N382 N 0.55738 0.22722 0.36651 0.0
N383 N 0.54186 0.21841 0.49364 0.0
C384 C 0.55168 0.224 0.39741 0.0
C385 C 0.54345 0.22 0.46231 0.0
N386 N 0.54561 0.16255 0.39666 0.0
N387 N 0.54329 0.27868 0.46233 0.0
H388 H 0.5393 0.19574 0.5056 0.0
H389 H 0.54483 0.23997 0.50822 0.0
H390 H 0.54709 0.30281 0.4521 0.0
H391 H 0.53621 0.27763 0.48517 0.0
H392 H 0.54348 0.15942 0.37282 0.0
H393 H 0.54468 0.13973 0.40719 0.0
H394 H 0.56359 0.20996 0.35326 0.0
H395 H 0.55714 0.24823 0.35388 0.0
C396 C 0.35439 0.55217 0.5676 0.0
C397 C 0.38543 0.57436 0.58825 0.0
C398 C 0.35752 0.61226 0.60288 0.0
C399 C 0.32634 0.59015 0.58216 0.0
N400 N 0.29868 0.54495 0.54005 0.0
N401 N 0.42157 0.63062 0.61946 0.0
C402 C 0.32597 0.56194 0.56294 0.0
C403 C 0.3887 0.60626 0.60373 0.0
N404 N 0.35144 0.52102 0.55342 0.0
N405 N 0.35623 0.63704 0.6234 0.0
H406 H 0.44471 0.62658 0.62098 0.0
H407 H 0.42717 0.65643 0.62853 0.0
H408 H 0.33381 0.64212 0.62423 0.0
H409 H 0.37603 0.65046 0.64143 0.0
H410 H 0.32746 0.50121 0.54096 0.0
H411 H 0.37248 0.51391 0.55544 0.0
H412 H 0.29861 0.52651 0.52342 0.0
H413 H 0.27772 0.55187 0.53611 0.0
C414 C 0.787 0.39533 0.79672 0.0
C415 C 0.81817 0.39539 0.78345 0.0
C416 C 0.77565 0.33706 0.75451 0.0
C417 C 0.74514 0.33451 0.77098 0.0
N418 N 0.7221 0.35873 0.81076 0.0
N419 N 0.84349 0.36623 0.75082 0.0
C420 C 0.75074 0.36321 0.79261 0.0
C421 C 0.81287 0.36636 0.7624 0.0
N422 N 0.79211 0.42605 0.81327 0.0
N423 N 0.76881 0.31179 0.73102 0.0
H424 H 0.87105 0.38788 0.75532 0.0
H425 H 0.8419 0.34383 0.73822 0.0
H426 H 0.74175 0.29016 0.72476 0.0
H427 H 0.78923 0.31397 0.71614 0.0
H428 H 0.76997 0.42936 0.82068 0.0
H429 H 0.81849 0.4498 0.81729 0.0
H430 H 0.72584 0.37655 0.82941 0.0
H431 H 0.69508 0.33554 0.80901 0.0
C432 C 0.41179 0.79378 0.97082 0.0
C433 C 0.44436 0.82669 0.96213 0.0
C434 C 0.46636 0.78899 0.9355 0.0
C435 C 0.43061 0.75681 0.93883 0.0
N436 N 0.36975 0.72728 0.96134 0.0
N437 N 0.50194 0.85629 0.93455 0.0
C438 C 0.40367 0.75873 0.95746 0.0
C439 C 0.4716 0.8245 0.94415 0.0
N440 N 0.38902 0.79613 0.99208 0.0
N441 N 0.49586 0.78537 0.92582 0.0
H442 H 0.50719 0.88298 0.94076 0.0
H443 H 0.52027 0.85609 0.91851 0.0
H444 H 0.49378 0.75943 0.92215 0.0
H445 H 0.52335 0.80765 0.92537 0.0
H446 H 0.36692 0.77304 0.00174 0.0
H447 H 0.39407 0.82146 0.00196 0.0
H448 H 0.34707 0.72742 0.97141 0.0
H449 H 0.36362 0.70088 0.95319 0.0
C450 C 0.61506 0.4304 0.11799 0.0
C451 C 0.59445 0.43641 0.09427 0.0
C452 C 0.62876 0.42339 0.05541 0.0
C453 C 0.64681 0.41387 0.07891 0.0
N454 N 0.65216 0.4018 0.13224 0.0
N455 N 0.57559 0.43073 0.04066 0.0
C456 C 0.63859 0.41554 0.11017 0.0
C457 C 0.59938 0.43037 0.06304 0.0
N458 N 0.61326 0.44015 0.14781 0.0
N459 N 0.64107 0.42794 0.02608 0.0
H460 H 0.55347 0.43546 0.04544 0.0
H461 H 0.57546 0.42271 0.0178 0.0
H462 H 0.66388 0.42512 0.01967 0.0
H463 H 0.63139 0.43855 0.00885 0.0
H464 H 0.63081 0.44026 0.16559 0.0
H465 H 0.59631 0.45102 0.15448 0.0
H466 H 0.64389 0.39872 0.15491 0.0
H467 H 0.66913 0.39033 0.12734 0.0
C468 C 0.38353 0.82873 0.57524 0.0
C469 C 0.4047 0.83132 0.54921 0.0
C470 C 0.37468 0.76319 0.54486 0.0
C471 C 0.35147 0.76064 0.56938 0.0
N472 N 0.32925 0.78996 0.60502 0.0
N473 N 0.41833 0.802 0.50697 0.0
C474 C 0.35475 0.79315 0.58389 0.0
C475 C 0.39969 0.79879 0.53335 0.0
N476 N 0.39121 0.86033 0.59183 0.0
N477 N 0.37378 0.73174 0.53341 0.0
H478 H 0.4381 0.82766 0.49863 0.0
H479 H 0.41265 0.77946 0.49233 0.0
H480 H 0.35554 0.70517 0.5411 0.0
H481 H 0.39285 0.7321 0.51791 0.0
H482 H 0.37986 0.86005 0.61299 0.0
H483 H 0.41122 0.88706 0.58563 0.0
H484 H 0.32745 0.81249 0.61396 0.0
H485 H 0.30754 0.76432 0.61178 0.0
C486 C 0.52946 0.34792 0.70312 0.0
C487 C 0.55017 0.36538 0.67696 0.0
C488 C 0.57793 0.32496 0.67737 0.0
C489 C 0.56067 0.31072 0.70556 0.0
N490 N 0.52406 0.31189 0.74771 0.0
N491 N 0.59624 0.37329 0.64012 0.0
C492 C 0.53724 0.3228 0.71901 0.0
C493 C 0.57489 0.35454 0.6642 0.0
N494 N 0.50191 0.35493 0.71247 0.0
N495 N 0.5964 0.30952 0.66292 0.0
H496 H 0.59409 0.39457 0.62953 0.0
H497 H 0.6178 0.36956 0.63191 0.0
H498 H 0.59897 0.2877 0.67197 0.0
H499 H 0.60642 0.31603 0.64087 0.0
H500 H 0.48304 0.33996 0.72924 0.0
H501 H 0.49568 0.37357 0.70165 0.0
H502 H 0.51073 0.32335 0.76022 0.0
H503 H 0.52908 0.29352 0.76025 0.0
C504 C 0.21498 0.58281 0.88971 0.0
C505 C 0.20445 0.60116 0.86776 0.0
C506 C 0.26919 0.63588 0.85085 0.0
C507 C 0.27966 0.61702 0.87242 0.0
N508 N 0.2658 0.57988 0.91711 0.0
N509 N 0.22219 0.65132 0.83313 0.0
C510 C 0.25351 0.59285 0.89346 0.0
C511 C 0.23193 0.62994 0.85034 0.0
N512 N 0.18788 0.55476 0.90596 0.0
N513 N 0.29394 0.65738 0.82944 0.0
H514 H 0.19489 0.64714 0.83188 0.0
H515 H 0.24166 0.67517 0.82234 0.0
H516 H 0.32161 0.66275 0.82897 0.0
H517 H 0.28642 0.66792 0.81076 0.0
H518 H 0.19293 0.53726 0.91962 0.0
H519 H 0.15963 0.54771 0.90457 0.0
H520 H 0.24898 0.56475 0.93489 0.0
H521 H 0.29401 0.58717 0.9204 0.0
C522 C 0.62161 0.22218 0.06471 0.0
C523 C 0.61534 0.20612 0.03446 0.0
C524 C 0.66735 0.26421 0.0167 0.0
C525 C 0.67728 0.27805 0.04764 0.0
N526 N 0.66564 0.26982 0.10163 0.0
N527 N 0.63584 0.20979 0.98243 0.0
C528 C 0.65471 0.25708 0.07185 0.0
C529 C 0.63904 0.22662 0.01058 0.0
N530 N 0.59553 0.20434 0.08634 0.0
N531 N 0.68413 0.28736 0.99304 0.0
H532 H 0.61583 0.18209 0.97686 0.0
H533 H 0.65527 0.22234 0.96542 0.0
H534 H 0.70431 0.3155 0.99642 0.0
H535 H 0.67515 0.27972 0.9701 0.0
H536 H 0.59664 0.21614 0.10796 0.0
H537 H 0.57085 0.17896 0.08167 0.0
H538 H 0.65263 0.25399 0.12049 0.0
H539 H 0.68957 0.2954 0.10753 0.0
C540 C 0.44625 0.66238 0.22451 0.0
C541 C 0.42054 0.63621 0.20194 0.0
C542 C 0.38326 0.66744 0.20192 0.0
C543 C 0.40963 0.69436 0.22386 0.0
N544 N 0.46027 0.71288 0.26149 0.0
N545 N 0.36006 0.60767 0.17491 0.0
C546 C 0.43923 0.69024 0.23696 0.0
C547 C 0.38738 0.63661 0.19272 0.0
N548 N 0.47797 0.66129 0.23317 0.0
N549 N 0.35597 0.67272 0.18818 0.0
H550 H 0.36278 0.58521 0.16699 0.0
H551 H 0.33347 0.60422 0.17015 0.0
H552 H 0.35152 0.69465 0.19421 0.0
H553 H 0.33913 0.65677 0.1693 0.0
H554 H 0.50008 0.68204 0.24672 0.0
H555 H 0.48305 0.64021 0.22558 0.0
H556 H 0.4803 0.70952 0.27397 0.0
H557 H 0.45525 0.73322 0.2711 0.0
C558 C 0.77615 0.39555 0.35868 0.0
C559 C 0.8061 0.42636 0.37503 0.0
C560 C 0.76124 0.44008 0.39994 0.0
C561 C 0.73239 0.4137 0.37943 0.0
N562 N 0.7127 0.36818 0.33704 0.0
N563 N 0.82845 0.47782 0.41189 0.0
C564 C 0.73963 0.39128 0.35863 0.0
C565 C 0.79896 0.4483 0.39626 0.0
N566 N 0.78288 0.37087 0.34267 0.0
N567 N 0.75234 0.45696 0.42292 0.0
H568 H 0.85616 0.48332 0.41072 0.0
H569 H 0.82581 0.49766 0.42494 0.0
H570 H 0.72478 0.45109 0.42609 0.0
H571 H 0.77141 0.47418 0.44028 0.0
H572 H 0.76156 0.34572 0.33288 0.0
H573 H 0.80963 0.37381 0.34169 0.0
H574 H 0.71803 0.35485 0.31896 0.0
H575 H 0.68566 0.36451 0.33537 0.0
C576 C 0.16158 0.56902 0.45798 0.0
C577 C 0.12348 0.56022 0.45974 0.0
C578 C 0.13058 0.56772 0.51597 0.0
C579 C 0.16922 0.57827 0.51421 0.0
N580 N 0.22309 0.59355 0.48386 0.0
N581 N 0.07338 0.55764 0.48926 0.0
C582 C 0.18525 0.5805 0.48525 0.0
C583 C 0.10846 0.5614 0.48844 0.0
N584 N 0.17465 0.56503 0.4304 0.0
N585 N 0.11484 0.56323 0.54401 0.0
H586 H 0.05625 0.55276 0.46959 0.0
H587 H 0.06237 0.5624 0.50899 0.0
H588 H 0.13029 0.56931 0.56478 0.0
H589 H 0.08599 0.55117 0.54686 0.0
H590 H 0.20073 0.56693 0.42793 0.0
H591 H 0.15831 0.55729 0.40995 0.0
H592 H 0.23738 0.59986 0.46348 0.0
H593 H 0.24089 0.60034 0.50338 0.0
C594 C 0.61174 0.17961 0.63299 0.0
C595 C 0.58442 0.14107 0.63212 0.0
C596 C 0.58492 0.1416 0.68851 0.0
C597 C 0.61024 0.18077 0.68947 0.0
N598 N 0.64549 0.23803 0.66289 0.0
N599 N 0.54006 0.08657 0.65824 0.0
C600 C 0.62285 0.20009 0.66174 0.0
C601 C 0.56971 0.12239 0.65968 0.0
N602 N 0.62798 0.19626 0.60643 0.0
N603 N 0.57546 0.12255 0.71512 0.0
H604 H 0.52815 0.07147 0.63759 0.0
H605 H 0.52502 0.0728 0.67723 0.0
H606 H 0.58425 0.1354 0.73688 0.0
H607 H 0.56107 0.09357 0.7157 0.0
H608 H 0.65099 0.22311 0.60571 0.0
H609 H 0.62005 0.18223 0.58499 0.0
H610 H 0.65181 0.25433 0.64367 0.0
H611 H 0.65663 0.25369 0.68341 0.0
C612 C 0.43455 0.59223 0.75159 0.0
C613 C 0.46479 0.58538 0.75687 0.0
C614 C 0.47182 0.60842 0.81043 0.0
C615 C 0.44425 0.6188 0.80408 0.0
N616 N 0.40555 0.62823 0.76655 0.0
N617 N 0.51601 0.59162 0.78976 0.0
C618 C 0.42722 0.61273 0.7741 0.0
C619 C 0.48452 0.59474 0.78591 0.0
N620 N 0.41214 0.57829 0.72537 0.0
N621 N 0.48484 0.61036 0.84001 0.0
H622 H 0.52603 0.58163 0.77234 0.0
H623 H 0.53386 0.60169 0.80932 0.0
H624 H 0.47591 0.61997 0.8585 0.0
H625 H 0.50195 0.59952 0.84658 0.0
H626 H 0.38726 0.57897 0.72189 0.0
H627 H 0.41634 0.56284 0.70831 0.0
H628 H 0.39585 0.62802 0.74416 0.0
H629 H 0.4005 0.64476 0.78187 0.0
C630 C 0.85067 0.44604 0.9481 0.0
C631 C 0.88664 0.47775 0.95444 0.0
C632 C 0.86951 0.48208 0.00733 0.0
C633 C 0.83247 0.45253 -6e-05 0.0
N634 N 0.78532 0.41255 0.96117 0.0
N635 N 0.92913 0.5295 0.9883 0.0
C636 C 0.82234 0.43618 0.96974 0.0
C637 C 0.89581 0.49683 0.9836 0.0
N638 N 0.84381 0.42466 0.92177 0.0
N639 N 0.87987 0.49513 0.0371 0.0
H640 H 0.94908 0.54093 0.97146 0.0
H641 H 0.93575 0.54672 0.00794 0.0
H642 H 0.86121 0.48505 0.05494 0.0
H643 H 0.90754 0.51381 0.04451 0.0
H644 H 0.81939 0.39899 0.91764 0.0
H645 H 0.86393 0.43069 0.9053 0.0
H646 H 0.7761 0.403 0.93856 0.0
H647 H 0.76325 0.40559 0.97586 0.0
C648 C 0.44539 0.90055 0.15283 0.0
C649 C 0.41981 0.90569 0.13389 0.0
C650 C 0.36758 0.86128 0.16394 0.0
C651 C 0.39378 0.85858 0.18425 0.0
N652 N 0.45787 0.88722 0.20392 0.0
N653 N 0.35835 0.89992 0.1278 0.0
C654 C 0.43282 0.882 0.18057 0.0
C655 C 0.38142 0.889 0.14152 0.0
N656 N 0.48092 0.9112 0.14375 0.0
N657 N 0.32988 0.83623 0.16437 0.0
H658 H 0.36792 0.92112 0.11207 0.0
H659 H 0.33099 0.8908 0.13461 0.0
H660 H 0.31813 0.81429 0.17927 0.0
H661 H 0.31059 0.83515 0.14773 0.0
H662 H 0.4991 0.90492 0.15602 0.0
H663 H 0.49069 0.92239 0.12246 0.0
H664 H 0.48663 0.90629 0.20327 0.0
H665 H 0.44869 0.87555 0.22513 0.0
C666 C 0.51546 0.40942 0.27364 0.0
C667 C 0.54195 0.44369 0.26096 0.0
C668 C 0.59257 0.43919 0.28726 0.0
C669 C 0.56605 0.40819 0.30381 0.0
N670 N 0.50118 0.37378 0.31938 0.0
N671 N 0.60469 0.49743 0.26649 0.0
C672 C 0.52707 0.39623 0.29916 0.0
C673 C 0.58016 0.46077 0.27145 0.0
N674 N 0.47999 0.3883 0.26076 0.0
N675 N 0.62875 0.44673 0.28414 0.0
H676 H 0.59606 0.51484 0.25664 0.0
H677 H 0.63234 0.51113 0.27558 0.0
H678 H 0.63818 0.42861 0.29053 0.0
H679 H 0.64764 0.46818 0.27068 0.0
H680 H 0.46114 0.36184 0.26833 0.0
H681 H 0.47108 0.395 0.24049 0.0
H682 H 0.4729 0.36655 0.31727 0.0
H683 H 0.50863 0.36709 0.34035 0.0
C684 C 0.48867 0.9081 0.34485 0.0
C685 C 0.46738 0.89045 0.3706 0.0
C686 C 0.43583 0.83092 0.34105 0.0
C687 C 0.45173 0.84997 0.31375 0.0
N688 N 0.49093 0.90904 0.28978 0.0
N689 N 0.41874 0.83532 0.39325 0.0
C690 C 0.47795 0.88911 0.31567 0.0
C691 C 0.44057 0.85182 0.36882 0.0
N692 N 0.51954 0.94304 0.34834 0.0
N693 N 0.41723 0.79282 0.34062 0.0
H694 H 0.42178 0.84965 0.41408 0.0
H695 H 0.39584 0.80825 0.3921 0.0
H696 H 0.4148 0.77671 0.32104 0.0
H697 H 0.40793 0.77744 0.36034 0.0
H698 H 0.53861 0.95565 0.3311 0.0
H699 H 0.52828 0.95788 0.36941 0.0
H700 H 0.50574 0.9381 0.29007 0.0
H701 H 0.48464 0.89732 0.26769 0.0
C702 C 0.56492 0.46163 0.4689 0.0
C703 C 0.56363 0.44273 0.49604 0.0
C704 C 0.59161 0.41031 0.4693 0.0
C705 C 0.5894 0.42655 0.44146 0.0
N706 N 0.56425 0.45964 0.41343 0.0
N707 N 0.56862 0.39357 0.5206 0.0
C708 C 0.57325 0.44992 0.44085 0.0
C709 C 0.57486 0.41538 0.49583 0.0
N710 N 0.55956 0.49167 0.47002 0.0
N711 N 0.61109 0.39151 0.47087 0.0
H712 H 0.5561 0.39626 0.54032 0.0
H713 H 0.57263 0.37063 0.52047 0.0
H714 H 0.62463 0.388 0.45223 0.0
H715 H 0.6168 0.38241 0.49137 0.0
H716 H 0.5641 0.50871 0.45146 0.0
H717 H 0.55429 0.50186 0.49027 0.0
H718 H 0.54907 0.47362 0.41177 0.0
H719 H 0.56809 0.45015 0.39221 0.0
C720 C 0.16278 0.59122 0.70448 0.0
C721 C 0.1275 0.58936 0.70032 0.0
C722 C 0.14246 0.61029 0.64764 0.0
C723 C 0.17902 0.61523 0.65285 0.0
N724 N 0.22696 0.61884 0.68863 0.0
N725 N 0.08501 0.60142 0.66996 0.0
C726 C 0.19001 0.6079 0.6819 0.0
C727 C 0.11762 0.60007 0.67242 0.0
N728 N 0.17003 0.57638 0.72978 0.0
N729 N 0.13111 0.6142 0.61885 0.0
H730 H 0.06593 0.59357 0.68752 0.0
H731 H 0.07815 0.61283 0.65153 0.0
H732 H 0.14872 0.62211 0.60028 0.0
H733 H 0.10349 0.6069 0.61276 0.0
H734 H 0.19359 0.57319 0.73226 0.0
H735 H 0.1509 0.56415 0.74709 0.0
H736 H 0.23713 0.61779 0.71054 0.0
H737 H 0.24838 0.63271 0.67332 0.0
C738 C 0.55664 0.16925 0.87881 0.0
C739 C 0.54362 0.13113 0.87135 0.0
C740 C 0.54907 0.14421 0.81647 0.0
C741 C 0.56681 0.18278 0.82429 0.0
N742 N 0.59015 0.23304 0.86267 0.0
N743 N 0.53104 0.08237 0.83362 0.0
C744 C 0.57133 0.19561 0.85541 0.0
C745 C 0.54055 0.1185 0.84027 0.0
N746 N 0.5537 0.18004 0.90804 0.0
N747 N 0.54004 0.13225 0.78637 0.0
H748 H 0.52486 0.0628 0.85047 0.0
H749 H 0.5322 0.07251 0.81173 0.0
H750 H 0.54586 0.15061 0.76856 0.0
H751 H 0.52394 0.10428 0.77931 0.0
H752 H 0.55903 0.20672 0.91416 0.0
H753 H 0.5426 0.16147 0.92578 0.0
H754 H 0.5986 0.24408 0.88503 0.0
H755 H 0.59942 0.25336 0.84616 0.0
C756 C 0.41671 0.60602 0.00035 0.0
C757 C 0.42923 0.57981 0.00311 0.0
C758 C 0.42571 0.5713 0.94699 0.0
C759 C 0.40968 0.59464 0.94431 0.0
N760 N 0.38298 0.62844 0.96897 0.0
N761 N 0.43752 0.53126 0.97953 0.0
C762 C 0.40325 0.61047 0.97116 0.0
C763 C 0.43128 0.56057 0.97654 0.0
N764 N 0.41874 0.62749 0.02538 0.0
N765 N 0.4374 0.56079 0.92146 0.0
H766 H 0.44105 0.52202 0.00079 0.0
H767 H 0.43542 0.51383 0.96107 0.0
H768 H 0.43516 0.56909 0.89944 0.0
H769 H 0.45288 0.5471 0.92253 0.0
H770 H 0.41392 0.64986 0.02405 0.0
H771 H 0.42839 0.625 0.04711 0.0
H772 H 0.37422 0.63725 0.98803 0.0
H773 H 0.3717 0.6314 0.94819 0.0
C774 C 0.88868 0.43977 0.16656 0.0
C775 C 0.87019 0.43684 0.19433 0.0
C776 C 0.80926 0.4072 0.16529 0.0
C777 C 0.82838 0.41414 0.13731 0.0
N778 N 0.88737 0.44593 0.1116 0.0
N779 N 0.81334 0.4234 0.21969 0.0
C780 C 0.86842 0.43292 0.13802 0.0
C781 C 0.83054 0.4221 0.1936 0.0
N782 N 0.92539 0.44794 0.16737 0.0
N783 N 0.77094 0.3852 0.16502 0.0
H784 H 0.82798 0.43434 0.24072 0.0
H785 H 0.78524 0.41669 0.21987 0.0
H786 H 0.75449 0.37326 0.14489 0.0
H787 H 0.75585 0.37603 0.18493 0.0
H788 H 0.93898 0.44664 0.14788 0.0
H789 H 0.94107 0.45217 0.18781 0.0
H790 H 0.91652 0.46308 0.11142 0.0
H791 H 0.87389 0.44322 0.0903 0.0
loop_
_geom_bond_atom_site_label_1
_geom_bond_atom_site_label_2
_geom_bond_distance
_geom_bond_site_symmetry_2
_ccdc_geom_bond_type
C0 C1 1.384 . S
C0 C2 1.384 . S
C0 H28 0.931 . S
C1 C0 1.384 . S
C1 C4 1.382 . S
C2 C0 1.384 . S
C2 C3 1.381 . S
C2 H29 0.930 . S
C3 C2 1.381 . S
C3 C5 1.381 . S
C3 C6 1.487 . S
C4 C1 1.382 . S
C4 C5 1.387 . S
C4 H30 0.930 . S
C5 C3 1.381 . S
C5 C4 1.387 . S
C5 H31 0.931 . S
C6 C3 1.487 . S
C6 C13 1.399 . S
C6 N44 1.343 . S
C7 C8 1.384 . S
C7 C9 1.384 . S
C7 H32 0.931 . S
C8 C7 1.384 . S
C8 C11 1.382 . S
C9 C7 1.384 . S
C9 C10 1.381 . S
C9 H33 0.930 . S
C10 C9 1.381 . S
C10 C12 1.381 . S
C10 C13 1.487 . S
C11 C8 1.382 . S
C11 C12 1.387 . S
C11 H34 0.930 . S
C12 C10 1.381 . S
C12 C11 1.387 . S
C12 H35 0.931 . S
C13 C6 1.399 . S
C13 C10 1.487 . S
C13 N45 1.343 1_655 S
C14 C15 1.384 . S
C14 C16 1.384 . S
C14 H36 0.931 . S
C15 C14 1.384 . S
C15 C18 1.382 . S
C16 C14 1.384 . S
C16 C17 1.381 . S
C16 H37 0.930 . S
C17 C16 1.381 . S
C17 C19 1.381 . S
C17 C20 1.487 . S
C18 C15 1.382 . S
C18 C19 1.387 . S
C18 H38 0.930 . S
C19 C17 1.381 . S
C19 C18 1.387 . S
C19 H39 0.931 . S
C20 C17 1.487 . S
C20 C27 1.399 . S
C20 N45 1.343 . S
C21 C22 1.384 . S
C21 C23 1.384 . S
C21 H40 0.931 . S
C22 C21 1.384 . S
C22 C25 1.382 . S
C23 C21 1.384 . S
C23 C24 1.381 . S
C23 H41 0.930 . S
C24 C23 1.381 . S
C24 C26 1.381 . S
C24 C27 1.487 . S
C25 C22 1.382 . S
C25 C26 1.387 . S
C25 H42 0.930 . S
C26 C24 1.381 . S
C26 C25 1.387 . S
C26 H43 0.931 . S
C27 C20 1.399 . S
C27 C24 1.487 . S
C27 N44 1.343 1_455 S
H28 C0 0.931 . S
H29 C2 0.930 . S
H30 C4 0.930 . S
H31 C5 0.931 . S
H32 C7 0.931 . S
H33 C9 0.930 . S
H34 C11 0.930 . S
H35 C12 0.931 . S
H36 C14 0.931 . S
H37 C16 0.930 . S
H38 C18 0.930 . S
H39 C19 0.931 . S
H40 C21 0.931 . S
H41 C23 0.930 . S
H42 C25 0.930 . S
H43 C26 0.931 . S
N44 C6 1.343 . S
N44 C27 1.343 1_655 S
N45 C13 1.343 1_455 S
N45 C20 1.343 . S
C46 C47 1.384 . S
C46 C48 1.384 . S
C46 H74 0.931 . S
C47 C46 1.384 . S
C47 C50 1.382 . S
C48 C46 1.384 . S
C48 C49 1.381 . S
C48 H75 0.930 . S
C49 C48 1.381 . S
C49 C51 1.381 . S
C49 C52 1.487 . S
C50 C47 1.382 . S
C50 C51 1.387 . S
C50 H76 0.930 . S
C51 C49 1.381 . S
C51 C50 1.387 . S
C51 H77 0.931 . S
C52 C49 1.487 . S
C52 C59 1.399 . S
C52 N90 1.343 1_565 S
C53 C54 1.384 . S
C53 C55 1.384 . S
C53 H78 0.931 . S
C54 C53 1.384 . S
C54 C57 1.382 . S
C55 C53 1.384 . S
C55 C56 1.381 . S
C55 H79 0.930 . S
C56 C55 1.381 . S
C56 C58 1.381 . S
C56 C59 1.487 . S
C57 C54 1.382 . S
C57 C58 1.387 . S
C57 H80 0.930 . S
C58 C56 1.381 . S
C58 C57 1.387 . S
C58 H81 0.931 . S
C59 C52 1.399 . S
C59 C56 1.487 . S
C59 N91 1.343 1_565 S
C60 C61 1.384 . S
C60 C62 1.384 . S
C60 H82 0.931 . S
C61 C60 1.384 . S
C61 C64 1.382 . S
C62 C60 1.384 . S
C62 C63 1.381 . S
C62 H83 0.930 . S
C63 C62 1.381 . S
C63 C65 1.381 . S
C63 C66 1.487 . S
C64 C61 1.382 . S
C64 C65 1.387 . S
C64 H84 0.930 . S
C65 C63 1.381 . S
C65 C64 1.387 . S
C65 H85 0.931 . S
C66 C63 1.487 . S
C66 C73 1.399 . S
C66 N91 1.343 . S
C67 C68 1.384 . S
C67 C69 1.384 . S
C67 H86 0.931 . S
C68 C67 1.384 . S
C68 C71 1.382 . S
C69 C67 1.384 . S
C69 C70 1.381 . S
C69 H87 0.930 . S
C70 C69 1.381 . S
C70 C72 1.381 . S
C70 C73 1.487 . S
C71 C68 1.382 . S
C71 C72 1.387 . S
C71 H88 0.930 . S
C72 C70 1.381 . S
C72 C71 1.387 . S
C72 H89 0.931 . S
C73 C66 1.399 . S
C73 C70 1.487 . S
C73 N90 1.343 . S
H74 C46 0.931 . S
H75 C48 0.930 . S
H76 C50 0.930 . S
H77 C51 0.931 . S
H78 C53 0.931 . S
H79 C55 0.930 . S
H80 C57 0.930 . S
H81 C58 0.931 . S
H82 C60 0.931 . S
H83 C62 0.930 . S
H84 C64 0.930 . S
H85 C65 0.931 . S
H86 C67 0.931 . S
H87 C69 0.930 . S
H88 C71 0.930 . S
H89 C72 0.931 . S
N90 C52 1.343 1_545 S
N90 C73 1.343 . S
N91 C59 1.343 1_545 S
N91 C66 1.343 . S
C92 C93 1.384 . S
C92 C94 1.384 . S
C92 H120 0.931 . S
C93 C92 1.384 . S
C93 C96 1.382 . S
C94 C92 1.384 . S
C94 C95 1.381 . S
C94 H121 0.930 . S
C95 C94 1.381 . S
C95 C97 1.381 . S
C95 C98 1.487 . S
C96 C93 1.382 . S
C96 C97 1.387 . S
C96 H122 0.930 . S
C97 C95 1.381 . S
C97 C96 1.387 . S
C97 H123 0.931 . S
C98 C95 1.487 . S
C98 C105 1.399 . S
C98 N136 1.343 . S
C99 C100 1.384 . S
C99 C101 1.384 . S
C99 H124 0.931 . S
C100 C99 1.384 . S
C100 C103 1.382 . S
C101 C99 1.384 . S
C101 C102 1.381 . S
C101 H125 0.930 . S
C102 C101 1.381 . S
C102 C104 1.381 . S
C102 C105 1.487 . S
C103 C100 1.382 . S
C103 C104 1.387 . S
C103 H126 0.930 . S
C104 C102 1.381 . S
C104 C103 1.387 . S
C104 H127 0.931 . S
C105 C98 1.399 . S
C105 C102 1.487 . S
C105 N137 1.343 . S
C106 C107 1.384 . S
C106 C108 1.384 . S
C106 H128 0.931 . S
C107 C106 1.384 . S
C107 C110 1.382 . S
C108 C106 1.384 . S
C108 C109 1.381 . S
C108 H129 0.930 . S
C109 C108 1.381 . S
C109 C111 1.381 . S
C109 C112 1.487 . S
C110 C107 1.382 . S
C110 C111 1.387 . S
C110 H130 0.930 . S
C111 C109 1.381 . S
C111 C110 1.387 . S
C111 H131 0.931 . S
C112 C109 1.487 . S
C112 C119 1.399 . S
C112 N137 1.343 . S
C113 C114 1.384 . S
C113 C115 1.384 . S
C113 H132 0.931 . S
C114 C113 1.384 . S
C114 C117 1.382 . S
C115 C113 1.384 . S
C115 C116 1.381 . S
C115 H133 0.930 . S
C116 C115 1.381 . S
C116 C118 1.381 . S
C116 C119 1.487 . S
C117 C114 1.382 . S
C117 C118 1.387 . S
C117 H134 0.930 . S
C118 C116 1.381 . S
C118 C117 1.387 . S
C118 H135 0.931 . S
C119 C112 1.399 . S
C119 C116 1.487 . S
C119 N136 1.343 . S
H120 C92 0.931 . S
H121 C94 0.930 . S
H122 C96 0.930 . S
H123 C97 0.931 . S
H124 C99 0.931 . S
H125 C101 0.930 . S
H126 C103 0.930 . S
H127 C104 0.931 . S
H128 C106 0.931 . S
H129 C108 0.930 . S
H130 C110 0.930 . S
H131 C111 0.931 . S
H132 C113 0.931 . S
H133 C115 0.930 . S
H134 C117 0.930 . S
H135 C118 0.931 . S
N136 C98 1.343 . S
N136 C119 1.343 . S
N137 C105 1.343 . S
N137 C112 1.343 . S
C138 C139 1.384 . S
C138 C140 1.384 . S
C138 H166 0.931 . S
C139 C138 1.384 . S
C139 C142 1.382 . S
C140 C138 1.384 . S
C140 C141 1.381 . S
C140 H167 0.930 . S
C141 C140 1.381 . S
C141 C143 1.381 . S
C141 C144 1.487 . S
C142 C139 1.382 . S
C142 C143 1.387 . S
C142 H168 0.930 . S
C143 C141 1.381 . S
C143 C142 1.387 . S
C143 H169 0.931 . S
C144 C141 1.487 . S
C144 C151 1.399 . S
C144 N182 1.343 . S
C145 C146 1.384 . S
C145 C147 1.384 . S
C145 H170 0.931 . S
C146 C145 1.384 . S
C146 C149 1.382 . S
C147 C145 1.384 . S
C147 C148 1.381 . S
C147 H171 0.930 . S
C148 C147 1.381 . S
C148 C150 1.381 . S
C148 C151 1.487 . S
C149 C146 1.382 . S
C149 C150 1.387 . S
C149 H172 0.930 . S
C150 C148 1.381 . S
C150 C149 1.387 . S
C150 H173 0.931 . S
C151 C144 1.399 . S
C151 C148 1.487 . S
C151 N183 1.343 1_655 S
C152 C153 1.384 . S
C152 C154 1.384 . S
C152 H174 0.931 . S
C153 C152 1.384 . S
C153 C156 1.382 . S
C154 C152 1.384 . S
C154 C155 1.381 . S
C154 H175 0.930 . S
C155 C154 1.381 . S
C155 C157 1.381 . S
C155 C158 1.487 . S
C156 C153 1.382 . S
C156 C157 1.387 . S
C156 H176 0.930 . S
C157 C155 1.381 . S
C157 C156 1.387 . S
C157 H177 0.931 . S
C158 C155 1.487 . S
C158 C165 1.399 . S
C158 N183 1.343 . S
C159 C160 1.384 . S
C159 C161 1.384 . S
C159 H178 0.931 . S
C160 C159 1.384 . S
C160 C163 1.382 . S
C161 C159 1.384 . S
C161 C162 1.381 . S
C161 H179 0.930 . S
C162 C161 1.381 . S
C162 C164 1.381 . S
C162 C165 1.487 . S
C163 C160 1.382 . S
C163 C164 1.387 . S
C163 H180 0.930 . S
C164 C162 1.381 . S
C164 C163 1.387 . S
C164 H181 0.931 . S
C165 C158 1.399 . S
C165 C162 1.487 . S
C165 N182 1.343 1_455 S
H166 C138 0.931 . S
H167 C140 0.930 . S
H168 C142 0.930 . S
H169 C143 0.931 . S
H170 C145 0.931 . S
H171 C147 0.930 . S
H172 C149 0.930 . S
H173 C150 0.931 . S
H174 C152 0.931 . S
H175 C154 0.930 . S
H176 C156 0.930 . S
H177 C157 0.931 . S
H178 C159 0.931 . S
H179 C161 0.930 . S
H180 C163 0.930 . S
H181 C164 0.931 . S
N182 C144 1.343 . S
N182 C165 1.343 1_655 S
N183 C151 1.343 1_455 S
N183 C158 1.343 . S
C184 C185 1.384 . S
C184 C186 1.384 . S
C184 H212 0.931 . S
C185 C184 1.384 . S
C185 C188 1.382 . S
C186 C184 1.384 . S
C186 C187 1.381 . S
C186 H213 0.930 1_556 S
C187 C186 1.381 . S
C187 C189 1.381 . S
C187 C190 1.487 . S
C188 C185 1.382 . S
C188 C189 1.387 . S
C188 H214 0.930 . S
C189 C187 1.381 . S
C189 C188 1.387 . S
C189 H215 0.931 . S
C190 C187 1.487 . S
C190 C197 1.399 1_556 S
C190 N228 1.343 1_565 S
C191 C192 1.384 . S
C191 C193 1.384 . S
C191 H216 0.931 . S
C192 C191 1.384 . S
C192 C195 1.382 . S
C193 C191 1.384 . S
C193 C194 1.381 . S
C193 H217 0.930 . S
C194 C193 1.381 . S
C194 C196 1.381 . S
C194 C197 1.487 . S
C195 C192 1.382 . S
C195 C196 1.387 . S
C195 H218 0.930 . S
C196 C194 1.381 . S
C196 C195 1.387 . S
C196 H219 0.931 . S
C197 C190 1.399 1_554 S
C197 C194 1.487 . S
C197 N229 1.343 1_565 S
C198 C199 1.384 . S
C198 C200 1.384 1_554 S
C198 H220 0.931 . S
C199 C198 1.384 . S
C199 C202 1.382 . S
C200 C198 1.384 1_556 S
C200 C201 1.381 1_556 S
C200 H221 0.930 . S
C201 C200 1.381 1_554 S
C201 C203 1.381 . S
C201 C204 1.485 1_554 S
C202 C199 1.382 . S
C202 C203 1.387 . S
C202 H222 0.930 . S
C203 C201 1.381 . S
C203 C202 1.387 . S
C203 H223 0.931 . S
C204 C201 1.485 1_556 S
C204 C211 1.406 . S
C204 N229 1.337 1_556 S
C205 C206 1.384 . S
C205 C207 1.384 . S
C205 H224 0.931 . S
C206 C205 1.384 . S
C206 C209 1.382 . S
C207 C205 1.384 . S
C207 C208 1.381 . S
C207 H225 0.930 . S
C208 C207 1.381 . S
C208 C210 1.381 . S
C208 C211 1.487 . S
C209 C206 1.382 . S
C209 C210 1.387 . S
C209 H226 0.930 . S
C210 C208 1.381 . S
C210 C209 1.387 . S
C210 H227 0.931 . S
C211 C204 1.406 . S
C211 C208 1.487 . S
C211 N228 1.343 . S
H212 C184 0.931 . S
H213 C186 0.930 1_554 S
H214 C188 0.930 . S
H215 C189 0.931 . S
H216 C191 0.931 . S
H217 C193 0.930 . S
H218 C195 0.930 . S
H219 C196 0.931 . S
H220 C198 0.931 . S
H221 C200 0.930 . S
H222 C202 0.930 . S
H223 C203 0.931 . S
H224 C205 0.931 . S
H225 C207 0.930 . S
H226 C209 0.930 . S
H227 C210 0.931 . S
N228 C190 1.343 1_545 S
N228 C211 1.343 . S
N229 C197 1.343 1_545 S
N229 C204 1.337 1_554 S
C230 C231 1.384 . S
C230 C232 1.384 . S
C230 H258 0.931 . S
C231 C230 1.384 . S
C231 C234 1.382 . S
C232 C230 1.384 . S
C232 C233 1.381 . S
C232 H259 0.930 . S
C233 C232 1.381 . S
C233 C235 1.381 . S
C233 C236 1.487 . S
C234 C231 1.382 . S
C234 C235 1.387 . S
C234 H260 0.930 . S
C235 C233 1.381 . S
C235 C234 1.387 . S
C235 H261 0.931 . S
C236 C233 1.487 . S
C236 C243 1.399 . S
C236 N274 1.343 . S
C237 C238 1.384 . S
C237 C239 1.384 . S
C237 H262 0.931 . S
C238 C237 1.384 . S
C238 C241 1.382 . S
C239 C237 1.384 . S
C239 C240 1.381 . S
C239 H263 0.930 . S
C240 C239 1.381 . S
C240 C242 1.381 . S
C240 C243 1.487 . S
C241 C238 1.382 . S
C241 C242 1.387 . S
C241 H264 0.930 . S
C242 C240 1.381 . S
C242 C241 1.387 . S
C242 H265 0.931 . S
C243 C236 1.399 . S
C243 C240 1.487 . S
C243 N275 1.343 . S
C244 C245 1.384 . S
C244 C246 1.384 . S
C244 H266 0.931 . S
C245 C244 1.384 . S
C245 C248 1.382 . S
C246 C244 1.384 . S
C246 C247 1.381 . S
C246 H267 0.930 . S
C247 C246 1.381 . S
C247 C249 1.381 . S
C247 C250 1.487 . S
C248 C245 1.382 . S
C248 C249 1.387 . S
C248 H268 0.930 . S
C249 C247 1.381 . S
C249 C248 1.387 . S
C249 H269 0.931 . S
C250 C247 1.487 . S
C250 C257 1.399 . S
C250 N275 1.343 . S
C251 C252 1.384 . S
C251 C253 1.384 . S
C251 H270 0.931 . S
C252 C251 1.384 . S
C252 C255 1.382 . S
C253 C251 1.384 . S
C253 C254 1.381 . S
C253 H271 0.930 . S
C254 C253 1.381 . S
C254 C256 1.381 . S
C254 C257 1.487 . S
C255 C252 1.382 . S
C255 C256 1.387 . S
C255 H272 0.930 . S
C256 C254 1.381 . S
C256 C255 1.387 . S
C256 H273 0.931 . S
C257 C250 1.399 . S
C257 C254 1.487 . S
C257 N274 1.343 . S
H258 C230 0.931 . S
H259 C232 0.930 . S
H260 C234 0.930 . S
H261 C235 0.931 . S
H262 C237 0.931 . S
H263 C239 0.930 . S
H264 C241 0.930 . S
H265 C242 0.931 . S
H266 C244 0.931 . S
H267 C246 0.930 . S
H268 C248 0.930 . S
H269 C249 0.931 . S
H270 C251 0.931 . S
H271 C253 0.930 . S
H272 C255 0.930 . S
H273 C256 0.931 . S
N274 C236 1.343 . S
N274 C257 1.343 . S
N275 C243 1.343 . S
N275 C250 1.343 . S
Mg276 O277 2.028 . S
Mg276 O283 1.986 . S
Mg276 O285 2.114 . S
Mg276 O286 2.251 . S
Mg276 O289 2.010 . S
O277 Mg276 2.028 . S
O277 C280 1.250 . S
O278 Mg279 2.028 . S
O278 C280 1.248 . S
Mg279 O278 2.028 . S
Mg279 O284 2.032 . S
Mg279 O286 2.079 . S
C280 O277 1.250 . S
C280 O278 1.248 . S
C281 O282 1.264 . S
C281 O289 1.249 . S
O282 C281 1.264 . S
O283 Mg276 1.986 . S
O283 C287 1.246 . S
O284 Mg279 2.032 . S
O284 C287 1.259 . S
O285 Mg276 2.114 . S
O285 C288 1.252 . S
O286 Mg276 2.251 . S
O286 Mg279 2.079 . S
O286 C288 1.273 . S
C287 O283 1.246 . S
C287 O284 1.259 . S
C288 O285 1.252 . S
C288 O286 1.273 . S
O289 Mg276 2.010 . S
O289 C281 1.249 . S
Mg290 O291 2.028 . S
Mg290 O297 1.986 . S
Mg290 O299 2.114 . S
Mg290 O300 2.251 . S
Mg290 O303 2.010 . S
O291 Mg290 2.028 . S
O291 C294 1.250 . S
O292 Mg293 2.028 . S
O292 C294 1.248 . S
Mg293 O292 2.028 . S
Mg293 O298 2.032 . S
Mg293 O300 2.079 . S
C294 O291 1.250 . S
C294 O292 1.248 . S
C295 O296 1.264 . S
C295 O303 1.249 . S
O296 C295 1.264 . S
O297 Mg290 1.986 . S
O297 C301 1.246 . S
O298 Mg293 2.032 . S
O298 C301 1.259 . S
O299 Mg290 2.114 . S
O299 C302 1.252 . S
O300 Mg290 2.251 . S
O300 Mg293 2.079 . S
O300 C302 1.273 . S
C301 O297 1.246 . S
C301 O298 1.259 . S
C302 O299 1.252 . S
C302 O300 1.273 . S
O303 Mg290 2.010 . S
O303 C295 1.249 . S
Mg304 O305 2.028 . S
Mg304 O311 1.986 . S
Mg304 O313 2.114 . S
Mg304 O314 2.251 . S
Mg304 O317 2.010 . S
O305 Mg304 2.028 . S
O305 C308 1.250 . S
O306 Mg307 2.028 . S
O306 C308 1.248 . S
Mg307 O306 2.028 . S
Mg307 O312 2.032 . S
Mg307 O314 2.079 . S
C308 O305 1.250 . S
C308 O306 1.248 . S
C309 O310 1.264 . S
C309 O317 1.249 . S
O310 C309 1.264 . S
O311 Mg304 1.986 . S
O311 C315 1.246 . S
O312 Mg307 2.032 . S
O312 C315 1.259 . S
O313 Mg304 2.114 . S
O313 C316 1.252 . S
O314 Mg304 2.251 . S
O314 Mg307 2.079 . S
O314 C316 1.273 . S
C315 O311 1.246 . S
C315 O312 1.259 . S
C316 O313 1.252 . S
C316 O314 1.273 . S
O317 Mg304 2.010 . S
O317 C309 1.249 . S
Mg318 O319 2.028 . S
Mg318 O325 1.986 . S
Mg318 O327 2.114 . S
Mg318 O328 2.251 . S
Mg318 O331 2.010 . S
O319 Mg318 2.028 . S
O319 C322 1.250 . S
O320 Mg321 2.028 . S
O320 C322 1.248 . S
Mg321 O320 2.028 . S
Mg321 O326 2.032 . S
Mg321 O328 2.079 . S
C322 O319 1.250 . S
C322 O320 1.248 . S
C323 O324 1.264 . S
C323 O331 1.249 . S
O324 C323 1.264 . S
O325 Mg318 1.986 . S
O325 C329 1.246 . S
O326 Mg321 2.032 . S
O326 C329 1.259 . S
O327 Mg318 2.114 . S
O327 C330 1.252 . S
O328 Mg318 2.251 . S
O328 Mg321 2.079 . S
O328 C330 1.273 . S
C329 O325 1.246 . S
C329 O326 1.259 . S
C330 O327 1.252 . S
C330 O328 1.273 . S
O331 Mg318 2.010 . S
O331 C323 1.249 . S
Mg332 O333 2.028 . S
Mg332 O339 1.986 . S
Mg332 O341 2.114 . S
Mg332 O342 2.251 . S
Mg332 O345 2.010 . S
O333 Mg332 2.028 . S
O333 C336 1.250 . S
O334 Mg335 2.028 . S
O334 C336 1.248 . S
Mg335 O334 2.028 . S
Mg335 O340 2.032 . S
Mg335 O342 2.079 . S
C336 O333 1.250 . S
C336 O334 1.248 . S
C337 O338 1.264 . S
C337 O345 1.249 . S
O338 C337 1.264 . S
O339 Mg332 1.986 . S
O339 C343 1.246 . S
O340 Mg335 2.032 . S
O340 C343 1.259 . S
O341 Mg332 2.114 . S
O341 C344 1.252 . S
O342 Mg332 2.251 . S
O342 Mg335 2.079 . S
O342 C344 1.273 . S
C343 O339 1.246 . S
C343 O340 1.259 . S
C344 O341 1.252 . S
C344 O342 1.273 . S
O345 Mg332 2.010 . S
O345 C337 1.249 . S
Mg346 O347 2.028 . S
Mg346 O353 1.986 . S
Mg346 O355 2.114 . S
Mg346 O356 2.251 . S
Mg346 O359 2.010 . S
O347 Mg346 2.028 . S
O347 C350 1.250 . S
O348 Mg349 2.028 . S
O348 C350 1.248 . S
Mg349 O348 2.028 . S
Mg349 O354 2.032 . S
Mg349 O356 2.079 . S
C350 O347 1.250 . S
C350 O348 1.248 . S
C351 O352 1.264 . S
C351 O359 1.249 . S
O352 C351 1.264 . S
O353 Mg346 1.986 . S
O353 C357 1.246 . S
O354 Mg349 2.032 . S
O354 C357 1.259 . S
O355 Mg346 2.114 . S
O355 C358 1.252 . S
O356 Mg346 2.251 . S
O356 Mg349 2.079 . S
O356 C358 1.273 . S
C357 O353 1.246 . S
C357 O354 1.259 . S
C358 O355 1.252 . S
C358 O356 1.273 . S
O359 Mg346 2.010 . S
O359 C351 1.249 . S
C360 C361 1.363 . S
C360 C366 1.379 . S
C360 N368 1.356 . S
C361 C360 1.363 . S
C361 C367 1.363 . S
C362 C363 1.363 . S
C362 C367 1.379 . S
C362 N369 1.356 . S
C363 C362 1.363 . S
C363 C366 1.363 . S
N364 C366 1.356 . S
N364 H376 0.984 . S
N364 H377 0.985 . S
N365 C367 1.356 . S
N365 H370 0.984 . S
N365 H371 0.985 . S
C366 C360 1.379 . S
C366 C363 1.363 . S
C366 N364 1.356 . S
C367 C361 1.363 . S
C367 C362 1.379 . S
C367 N365 1.356 . S
N368 C360 1.356 . S
N368 H374 0.984 . S
N368 H375 0.984 . S
N369 C362 1.356 . S
N369 H372 0.984 . S
N369 H373 0.985 . S
H370 N365 0.984 . S
H371 N365 0.985 . S
H372 N369 0.984 . S
H373 N369 0.985 . S
H374 N368 0.984 . S
H375 N368 0.984 . S
H376 N364 0.984 . S
H377 N364 0.985 . S
C378 C379 1.363 . S
C378 C384 1.379 . S
C378 N386 1.356 . S
C379 C378 1.363 . S
C379 C385 1.363 . S
C380 C381 1.363 . S
C380 C385 1.379 . S
C380 N387 1.356 . S
C381 C380 1.363 . S
C381 C384 1.363 . S
N382 C384 1.356 . S
N382 H394 0.984 . S
N382 H395 0.985 . S
N383 C385 1.356 . S
N383 H388 0.984 . S
N383 H389 0.985 . S
C384 C378 1.379 . S
C384 C381 1.363 . S
C384 N382 1.356 . S
C385 C379 1.363 . S
C385 C380 1.379 . S
C385 N383 1.356 . S
N386 C378 1.356 . S
N386 H392 0.984 . S
N386 H393 0.984 . S
N387 C380 1.356 . S
N387 H390 0.984 . S
N387 H391 0.985 . S
H388 N383 0.984 . S
H389 N383 0.985 . S
H390 N387 0.984 . S
H391 N387 0.985 . S
H392 N386 0.984 . S
H393 N386 0.984 . S
H394 N382 0.984 . S
H395 N382 0.985 . S
C396 C397 1.363 . S
C396 C402 1.379 . S
C396 N404 1.356 . S
C397 C396 1.363 . S
C397 C403 1.363 . S
C398 C399 1.363 . S
C398 C403 1.379 . S
C398 N405 1.356 . S
C399 C398 1.363 . S
C399 C402 1.363 . S
N400 C402 1.356 . S
N400 H412 0.984 . S
N400 H413 0.985 . S
N401 C403 1.356 . S
N401 H406 0.984 . S
N401 H407 0.985 . S
C402 C396 1.379 . S
C402 C399 1.363 . S
C402 N400 1.356 . S
C403 C397 1.363 . S
C403 C398 1.379 . S
C403 N401 1.356 . S
N404 C396 1.356 . S
N404 H410 0.984 . S
N404 H411 0.984 . S
N405 C398 1.356 . S
N405 H408 0.984 . S
N405 H409 0.985 . S
H406 N401 0.984 . S
H407 N401 0.985 . S
H408 N405 0.984 . S
H409 N405 0.985 . S
H410 N404 0.984 . S
H411 N404 0.984 . S
H412 N400 0.984 . S
H413 N400 0.985 . S
C414 C415 1.363 . S
C414 C420 1.379 . S
C414 N422 1.356 . S
C415 C414 1.363 . S
C415 C421 1.363 . S
C416 C417 1.363 . S
C416 C421 1.379 . S
C416 N423 1.356 . S
C417 C416 1.363 . S
C417 C420 1.363 . S
N418 C420 1.356 . S
N418 H430 0.984 . S
N418 H431 0.985 . S
N419 C421 1.356 . S
N419 H424 0.984 . S
N419 H425 0.985 . S
C420 C414 1.379 . S
C420 C417 1.363 . S
C420 N418 1.356 . S
C421 C415 1.363 . S
C421 C416 1.379 . S
C421 N419 1.356 . S
N422 C414 1.356 . S
N422 H428 0.984 . S
N422 H429 0.984 . S
N423 C416 1.356 . S
N423 H426 0.984 . S
N423 H427 0.985 . S
H424 N419 0.984 . S
H425 N419 0.985 . S
H426 N423 0.984 . S
H427 N423 0.985 . S
H428 N422 0.984 . S
H429 N422 0.984 . S
H430 N418 0.984 . S
H431 N418 0.985 . S
C432 C433 1.363 . S
C432 C438 1.379 . S
C432 N440 1.356 . S
C433 C432 1.363 . S
C433 C439 1.363 . S
C434 C435 1.363 . S
C434 C439 1.379 . S
C434 N441 1.356 . S
C435 C434 1.363 . S
C435 C438 1.363 . S
N436 C438 1.356 . S
N436 H448 0.984 . S
N436 H449 0.985 . S
N437 C439 1.356 . S
N437 H442 0.984 . S
N437 H443 0.985 . S
C438 C432 1.379 . S
C438 C435 1.363 . S
C438 N436 1.356 . S
C439 C433 1.363 . S
C439 C434 1.379 . S
C439 N437 1.356 . S
N440 C432 1.356 . S
N440 H446 0.984 1_556 S
N440 H447 0.984 . S
N441 C434 1.356 . S
N441 H444 0.984 . S
N441 H445 0.985 . S
H442 N437 0.984 . S
H443 N437 0.985 . S
H444 N441 0.984 . S
H445 N441 0.985 . S
H446 N440 0.984 1_554 S
H447 N440 0.984 . S
H448 N436 0.984 . S
H449 N436 0.985 . S
C450 C451 1.363 . S
C450 C456 1.379 . S
C450 N458 1.356 . S
C451 C450 1.363 . S
C451 C457 1.363 . S
C452 C453 1.363 . S
C452 C457 1.379 . S
C452 N459 1.356 . S
C453 C452 1.363 . S
C453 C456 1.363 . S
N454 C456 1.356 . S
N454 H466 0.984 . S
N454 H467 0.985 . S
N455 C457 1.356 . S
N455 H460 0.984 . S
N455 H461 0.985 . S
C456 C450 1.379 . S
C456 C453 1.363 . S
C456 N454 1.356 . S
C457 C451 1.363 . S
C457 C452 1.379 . S
C457 N455 1.356 . S
N458 C450 1.356 . S
N458 H464 0.984 . S
N458 H465 0.984 . S
N459 C452 1.356 . S
N459 H462 0.984 . S
N459 H463 0.985 . S
H460 N455 0.984 . S
H461 N455 0.985 . S
H462 N459 0.984 . S
H463 N459 0.985 . S
H464 N458 0.984 . S
H465 N458 0.984 . S
H466 N454 0.984 . S
H467 N454 0.985 . S
C468 C469 1.363 . S
C468 C474 1.379 . S
C468 N476 1.356 . S
C469 C468 1.363 . S
C469 C475 1.363 . S
C470 C471 1.363 . S
C470 C475 1.379 . S
C470 N477 1.356 . S
C471 C470 1.363 . S
C471 C474 1.363 . S
N472 C474 1.356 . S
N472 H484 0.984 . S
N472 H485 0.985 . S
N473 C475 1.356 . S
N473 H478 0.984 . S
N473 H479 0.985 . S
C474 C468 1.379 . S
C474 C471 1.363 . S
C474 N472 1.356 . S
C475 C469 1.363 . S
C475 C470 1.379 . S
C475 N473 1.356 . S
N476 C468 1.356 . S
N476 H482 0.984 . S
N476 H483 0.984 . S
N477 C470 1.356 . S
N477 H480 0.984 . S
N477 H481 0.985 . S
H478 N473 0.984 . S
H479 N473 0.985 . S
H480 N477 0.984 . S
H481 N477 0.985 . S
H482 N476 0.984 . S
H483 N476 0.984 . S
H484 N472 0.984 . S
H485 N472 0.985 . S
C486 C487 1.363 . S
C486 C492 1.379 . S
C486 N494 1.356 . S
C487 C486 1.363 . S
C487 C493 1.363 . S
C488 C489 1.363 . S
C488 C493 1.379 . S
C488 N495 1.356 . S
C489 C488 1.363 . S
C489 C492 1.363 . S
N490 C492 1.356 . S
N490 H502 0.984 . S
N490 H503 0.985 . S
N491 C493 1.356 . S
N491 H496 0.984 . S
N491 H497 0.985 . S
C492 C486 1.379 . S
C492 C489 1.363 . S
C492 N490 1.356 . S
C493 C487 1.363 . S
C493 C488 1.379 . S
C493 N491 1.356 . S
N494 C486 1.356 . S
N494 H500 0.984 . S
N494 H501 0.984 . S
N495 C488 1.356 . S
N495 H498 0.984 . S
N495 H499 0.985 . S
H496 N491 0.984 . S
H497 N491 0.985 . S
H498 N495 0.984 . S
H499 N495 0.985 . S
H500 N494 0.984 . S
H501 N494 0.984 . S
H502 N490 0.984 . S
H503 N490 0.985 . S
C504 C505 1.363 . S
C504 C510 1.379 . S
C504 N512 1.356 . S
C505 C504 1.363 . S
C505 C511 1.363 . S
C506 C507 1.363 . S
C506 C511 1.379 . S
C506 N513 1.356 . S
C507 C506 1.363 . S
C507 C510 1.363 . S
N508 C510 1.356 . S
N508 H520 0.984 . S
N508 H521 0.985 . S
N509 C511 1.356 . S
N509 H514 0.984 . S
N509 H515 0.985 . S
C510 C504 1.379 . S
C510 C507 1.363 . S
C510 N508 1.356 . S
C511 C505 1.363 . S
C511 C506 1.379 . S
C511 N509 1.356 . S
N512 C504 1.356 . S
N512 H518 0.984 . S
N512 H519 0.984 . S
N513 C506 1.356 . S
N513 H516 0.984 . S
N513 H517 0.985 . S
H514 N509 0.984 . S
H515 N509 0.985 . S
H516 N513 0.984 . S
H517 N513 0.985 . S
H518 N512 0.984 . S
H519 N512 0.984 . S
H520 N508 0.984 . S
H521 N508 0.985 . S
C522 C523 1.363 . S
C522 C528 1.379 . S
C522 N530 1.356 . S
C523 C522 1.363 . S
C523 C529 1.363 . S
C524 C525 1.363 . S
C524 C529 1.379 . S
C524 N531 1.356 . S
C525 C524 1.363 . S
C525 C528 1.363 . S
N526 C528 1.356 . S
N526 H538 0.984 . S
N526 H539 0.985 . S
N527 C529 1.356 . S
N527 H532 0.984 . S
N527 H533 0.985 1_554 S
C528 C522 1.379 . S
C528 C525 1.363 . S
C528 N526 1.356 . S
C529 C523 1.363 . S
C529 C524 1.379 . S
C529 N527 1.356 . S
N530 C522 1.356 . S
N530 H536 0.984 . S
N530 H537 0.984 . S
N531 C524 1.356 . S
N531 H534 0.984 . S
N531 H535 0.985 . S
H532 N527 0.984 . S
H533 N527 0.985 1_556 S
H534 N531 0.984 . S
H535 N531 0.985 . S
H536 N530 0.984 . S
H537 N530 0.984 . S
H538 N526 0.984 . S
H539 N526 0.985 . S
C540 C541 1.363 . S
C540 C546 1.379 . S
C540 N548 1.356 . S
C541 C540 1.363 . S
C541 C547 1.363 . S
C542 C543 1.363 . S
C542 C547 1.379 . S
C542 N549 1.356 . S
C543 C542 1.363 . S
C543 C546 1.363 . S
N544 C546 1.356 . S
N544 H556 0.984 . S
N544 H557 0.985 . S
N545 C547 1.356 . S
N545 H550 0.984 . S
N545 H551 0.985 . S
C546 C540 1.379 . S
C546 C543 1.363 . S
C546 N544 1.356 . S
C547 C541 1.363 . S
C547 C542 1.379 . S
C547 N545 1.356 . S
N548 C540 1.356 . S
N548 H554 0.984 . S
N548 H555 0.984 . S
N549 C542 1.356 . S
N549 H552 0.984 . S
N549 H553 0.985 . S
H550 N545 0.984 . S
H551 N545 0.985 . S
H552 N549 0.984 . S
H553 N549 0.985 . S
H554 N548 0.984 . S
H555 N548 0.984 . S
H556 N544 0.984 . S
H557 N544 0.985 . S
C558 C559 1.363 . S
C558 C564 1.379 . S
C558 N566 1.356 . S
C559 C558 1.363 . S
C559 C565 1.363 . S
C560 C561 1.363 . S
C560 C565 1.379 . S
C560 N567 1.356 . S
C561 C560 1.363 . S
C561 C564 1.363 . S
N562 C564 1.356 . S
N562 H574 0.984 . S
N562 H575 0.985 . S
N563 C565 1.356 . S
N563 H568 0.984 . S
N563 H569 0.985 . S
C564 C558 1.379 . S
C564 C561 1.363 . S
C564 N562 1.356 . S
C565 C559 1.363 . S
C565 C560 1.379 . S
C565 N563 1.356 . S
N566 C558 1.356 . S
N566 H572 0.984 . S
N566 H573 0.984 . S
N567 C560 1.356 . S
N567 H570 0.984 . S
N567 H571 0.985 . S
H568 N563 0.984 . S
H569 N563 0.985 . S
H570 N567 0.984 . S
H571 N567 0.985 . S
H572 N566 0.984 . S
H573 N566 0.984 . S
H574 N562 0.984 . S
H575 N562 0.985 . S
C576 C577 1.363 . S
C576 C582 1.379 . S
C576 N584 1.356 . S
C577 C576 1.363 . S
C577 C583 1.363 . S
C578 C579 1.363 . S
C578 C583 1.379 . S
C578 N585 1.356 . S
C579 C578 1.363 . S
C579 C582 1.363 . S
N580 C582 1.356 . S
N580 H592 0.984 . S
N580 H593 0.985 . S
N581 C583 1.356 . S
N581 H586 0.984 . S
N581 H587 0.985 . S
C582 C576 1.379 . S
C582 C579 1.363 . S
C582 N580 1.356 . S
C583 C577 1.363 . S
C583 C578 1.379 . S
C583 N581 1.356 . S
N584 C576 1.356 . S
N584 H590 0.984 . S
N584 H591 0.984 . S
N585 C578 1.356 . S
N585 H588 0.984 . S
N585 H589 0.985 . S
H586 N581 0.984 . S
H587 N581 0.985 . S
H588 N585 0.984 . S
H589 N585 0.985 . S
H590 N584 0.984 . S
H591 N584 0.984 . S
H592 N580 0.984 . S
H593 N580 0.985 . S
C594 C595 1.363 . S
C594 C600 1.379 . S
C594 N602 1.356 . S
C595 C594 1.363 . S
C595 C601 1.363 . S
C596 C597 1.363 . S
C596 C601 1.379 . S
C596 N603 1.356 . S
C597 C596 1.363 . S
C597 C600 1.363 . S
N598 C600 1.356 . S
N598 H610 0.984 . S
N598 H611 0.985 . S
N599 C601 1.356 . S
N599 H604 0.984 . S
N599 H605 0.985 . S
C600 C594 1.379 . S
C600 C597 1.363 . S
C600 N598 1.356 . S
C601 C595 1.363 . S
C601 C596 1.379 . S
C601 N599 1.356 . S
N602 C594 1.356 . S
N602 H608 0.984 . S
N602 H609 0.984 . S
N603 C596 1.356 . S
N603 H606 0.984 . S
N603 H607 0.985 . S
H604 N599 0.984 . S
H605 N599 0.985 . S
H606 N603 0.984 . S
H607 N603 0.985 . S
H608 N602 0.984 . S
H609 N602 0.984 . S
H610 N598 0.984 . S
H611 N598 0.985 . S
C612 C613 1.363 . S
C612 C618 1.379 . S
C612 N620 1.356 . S
C613 C612 1.363 . S
C613 C619 1.363 . S
C614 C615 1.363 . S
C614 C619 1.379 . S
C614 N621 1.356 . S
C615 C614 1.363 . S
C615 C618 1.363 . S
N616 C618 1.356 . S
N616 H628 0.984 . S
N616 H629 0.985 . S
N617 C619 1.356 . S
N617 H622 0.984 . S
N617 H623 0.985 . S
C618 C612 1.379 . S
C618 C615 1.363 . S
C618 N616 1.356 . S
C619 C613 1.363 . S
C619 C614 1.379 . S
C619 N617 1.356 . S
N620 C612 1.356 . S
N620 H626 0.984 . S
N620 H627 0.984 . S
N621 C614 1.356 . S
N621 H624 0.984 . S
N621 H625 0.985 . S
H622 N617 0.984 . S
H623 N617 0.985 . S
H624 N621 0.984 . S
H625 N621 0.985 . S
H626 N620 0.984 . S
H627 N620 0.984 . S
H628 N616 0.984 . S
H629 N616 0.985 . S
C630 C631 1.363 . S
C630 C636 1.379 . S
C630 N638 1.356 . S
C631 C630 1.363 . S
C631 C637 1.363 . S
C632 C633 1.365 . S
C632 C637 1.379 1_554 S
C632 N639 1.356 . S
C633 C632 1.365 . S
C633 C636 1.337 1_554 S
N634 C636 1.356 . S
N634 H646 0.984 . S
N634 H647 0.985 . S
N635 C637 1.356 . S
N635 H640 0.984 . S
N635 H641 0.985 . S
C636 C630 1.379 . S
C636 C633 1.337 1_556 S
C636 N634 1.356 . S
C637 C631 1.363 . S
C637 C632 1.379 1_556 S
C637 N635 1.356 . S
N638 C630 1.356 . S
N638 H644 0.984 . S
N638 H645 0.984 . S
N639 C632 1.356 . S
N639 H642 0.984 . S
N639 H643 0.985 . S
H640 N635 0.984 . S
H641 N635 0.985 . S
H642 N639 0.984 . S
H643 N639 0.985 . S
H644 N638 0.984 . S
H645 N638 0.984 . S
H646 N634 0.984 . S
H647 N634 0.985 . S
C648 C649 1.363 . S
C648 C654 1.379 . S
C648 N656 1.356 . S
C649 C648 1.363 . S
C649 C655 1.363 . S
C650 C651 1.363 . S
C650 C655 1.379 . S
C650 N657 1.356 . S
C651 C650 1.363 . S
C651 C654 1.363 . S
N652 C654 1.356 . S
N652 H664 0.984 . S
N652 H665 0.985 . S
N653 C655 1.356 . S
N653 H658 0.984 . S
N653 H659 0.985 . S
C654 C648 1.379 . S
C654 C651 1.363 . S
C654 N652 1.356 . S
C655 C649 1.363 . S
C655 C650 1.379 . S
C655 N653 1.356 . S
N656 C648 1.356 . S
N656 H662 0.984 . S
N656 H663 0.984 . S
N657 C650 1.356 . S
N657 H660 0.984 . S
N657 H661 0.985 . S
H658 N653 0.984 . S
H659 N653 0.985 . S
H660 N657 0.984 . S
H661 N657 0.985 . S
H662 N656 0.984 . S
H663 N656 0.984 . S
H664 N652 0.984 . S
H665 N652 0.985 . S
C666 C667 1.363 . S
C666 C672 1.379 . S
C666 N674 1.356 . S
C667 C666 1.363 . S
C667 C673 1.363 . S
C668 C669 1.363 . S
C668 C673 1.379 . S
C668 N675 1.356 . S
C669 C668 1.363 . S
C669 C672 1.363 . S
N670 C672 1.356 . S
N670 H682 0.984 . S
N670 H683 0.985 . S
N671 C673 1.356 . S
N671 H676 0.984 . S
N671 H677 0.985 . S
C672 C666 1.379 . S
C672 C669 1.363 . S
C672 N670 1.356 . S
C673 C667 1.363 . S
C673 C668 1.379 . S
C673 N671 1.356 . S
N674 C666 1.356 . S
N674 H680 0.984 . S
N674 H681 0.984 . S
N675 C668 1.356 . S
N675 H678 0.984 . S
N675 H679 0.985 . S
H676 N671 0.984 . S
H677 N671 0.985 . S
H678 N675 0.984 . S
H679 N675 0.985 . S
H680 N674 0.984 . S
H681 N674 0.984 . S
H682 N670 0.984 . S
H683 N670 0.985 . S
C684 C685 1.363 . S
C684 C690 1.379 . S
C684 N692 1.356 . S
C685 C684 1.363 . S
C685 C691 1.363 . S
C686 C687 1.363 . S
C686 C691 1.379 . S
C686 N693 1.356 . S
C687 C686 1.363 . S
C687 C690 1.363 . S
N688 C690 1.356 . S
N688 H700 0.984 . S
N688 H701 0.985 . S
N689 C691 1.356 . S
N689 H694 0.984 . S
N689 H695 0.985 . S
C690 C684 1.379 . S
C690 C687 1.363 . S
C690 N688 1.356 . S
C691 C685 1.363 . S
C691 C686 1.379 . S
C691 N689 1.356 . S
N692 C684 1.356 . S
N692 H698 0.984 . S
N692 H699 0.984 . S
N693 C686 1.356 . S
N693 H696 0.984 . S
N693 H697 0.985 . S
H694 N689 0.984 . S
H695 N689 0.985 . S
H696 N693 0.984 . S
H697 N693 0.985 . S
H698 N692 0.984 . S
H699 N692 0.984 . S
H700 N688 0.984 . S
H701 N688 0.985 . S
C702 C703 1.363 . S
C702 C708 1.379 . S
C702 N710 1.356 . S
C703 C702 1.363 . S
C703 C709 1.363 . S
C704 C705 1.363 . S
C704 C709 1.379 . S
C704 N711 1.356 . S
C705 C704 1.363 . S
C705 C708 1.363 . S
N706 C708 1.356 . S
N706 H718 0.984 . S
N706 H719 0.985 . S
N707 C709 1.356 . S
N707 H712 0.984 . S
N707 H713 0.985 . S
C708 C702 1.379 . S
C708 C705 1.363 . S
C708 N706 1.356 . S
C709 C703 1.363 . S
C709 C704 1.379 . S
C709 N707 1.356 . S
N710 C702 1.356 . S
N710 H716 0.984 . S
N710 H717 0.984 . S
N711 C704 1.356 . S
N711 H714 0.984 . S
N711 H715 0.985 . S
H712 N707 0.984 . S
H713 N707 0.985 . S
H714 N711 0.984 . S
H715 N711 0.985 . S
H716 N710 0.984 . S
H717 N710 0.984 . S
H718 N706 0.984 . S
H719 N706 0.985 . S
C720 C721 1.363 . S
C720 C726 1.379 . S
C720 N728 1.356 . S
C721 C720 1.363 . S
C721 C727 1.363 . S
C722 C723 1.363 . S
C722 C727 1.379 . S
C722 N729 1.356 . S
C723 C722 1.363 . S
C723 C726 1.363 . S
N724 C726 1.356 . S
N724 H736 0.984 . S
N724 H737 0.985 . S
N725 C727 1.356 . S
N725 H730 0.984 . S
N725 H731 0.985 . S
C726 C720 1.379 . S
C726 C723 1.363 . S
C726 N724 1.356 . S
C727 C721 1.363 . S
C727 C722 1.379 . S
C727 N725 1.356 . S
N728 C720 1.356 . S
N728 H734 0.984 . S
N728 H735 0.984 . S
N729 C722 1.356 . S
N729 H732 0.984 . S
N729 H733 0.985 . S
H730 N725 0.984 . S
H731 N725 0.985 . S
H732 N729 0.984 . S
H733 N729 0.985 . S
H734 N728 0.984 . S
H735 N728 0.984 . S
H736 N724 0.984 . S
H737 N724 0.985 . S
C738 C739 1.363 . S
C738 C744 1.379 . S
C738 N746 1.356 . S
C739 C738 1.363 . S
C739 C745 1.363 . S
C740 C741 1.363 . S
C740 C745 1.379 . S
C740 N747 1.356 . S
C741 C740 1.363 . S
C741 C744 1.363 . S
N742 C744 1.356 . S
N742 H754 0.984 . S
N742 H755 0.985 . S
N743 C745 1.356 . S
N743 H748 0.984 . S
N743 H749 0.985 . S
C744 C738 1.379 . S
C744 C741 1.363 . S
C744 N742 1.356 . S
C745 C739 1.363 . S
C745 C740 1.379 . S
C745 N743 1.356 . S
N746 C738 1.356 . S
N746 H752 0.984 . S
N746 H753 0.984 . S
N747 C740 1.356 . S
N747 H750 0.984 . S
N747 H751 0.985 . S
H748 N743 0.984 . S
H749 N743 0.985 . S
H750 N747 0.984 . S
H751 N747 0.985 . S
H752 N746 0.984 . S
H753 N746 0.984 . S
H754 N742 0.984 . S
H755 N742 0.985 . S
C756 C757 1.363 . S
C756 C762 1.375 1_554 S
C756 N764 1.356 . S
C757 C756 1.363 . S
C757 C763 1.363 1_554 S
C758 C759 1.363 . S
C758 C763 1.379 . S
C758 N765 1.356 . S
C759 C758 1.363 . S
C759 C762 1.368 . S
N760 C762 1.357 . S
N760 H772 0.984 1_556 S
N760 H773 0.985 . S
N761 C763 1.356 . S
N761 H766 0.984 1_556 S
N761 H767 0.985 . S
C762 C756 1.375 1_556 S
C762 C759 1.368 . S
C762 N760 1.357 . S
C763 C757 1.363 1_556 S
C763 C758 1.379 . S
C763 N761 1.356 . S
N764 C756 1.356 . S
N764 H770 0.984 . S
N764 H771 0.984 . S
N765 C758 1.356 . S
N765 H768 0.984 . S
N765 H769 0.985 . S
H766 N761 0.984 1_554 S
H767 N761 0.985 . S
H768 N765 0.984 . S
H769 N765 0.985 . S
H770 N764 0.984 . S
H771 N764 0.984 . S
H772 N760 0.984 1_554 S
H773 N760 0.985 . S
C774 C775 1.363 . S
C774 C780 1.379 . S
C774 N782 1.356 . S
C775 C774 1.363 . S
C775 C781 1.363 . S
C776 C777 1.363 . S
C776 C781 1.379 . S
C776 N783 1.356 . S
C777 C776 1.363 . S
C777 C780 1.363 . S
N778 C780 1.356 . S
N778 H790 0.984 . S
N778 H791 0.985 . S
N779 C781 1.356 . S
N779 H784 0.984 . S
N779 H785 0.985 . S
C780 C774 1.379 . S
C780 C777 1.363 . S
C780 N778 1.356 . S
C781 C775 1.363 . S
C781 C776 1.379 . S
C781 N779 1.356 . S
N782 C774 1.356 . S
N782 H788 0.984 . S
N782 H789 0.984 . S
N783 C776 1.356 . S
N783 H786 0.984 . S
N783 H787 0.985 . S
H784 N779 0.984 . S
H785 N779 0.985 . S
H786 N783 0.984 . S
H787 N783 0.985 . S
H788 N782 0.984 . S
H789 N782 0.984 . S
H790 N778 0.984 . S
H791 N778 0.985 . S
C363 C351 1.318 . S
C361 C15 1.572 . S
C379 C61 1.603 . S
C381 C281 1.346 . S
C397 C114 1.582 . S
C399 C301 1.648 . S
C415 C139 1.549 . S
C417 C315 1.585 . S
C435 C323 1.287 . S
C433 C185 1.574 . S
C451 C245 1.557 . S
C453 C337 1.285 . S
C469 C47 1.612 . S
C471 C295 1.326 . S
C487 C100 1.573 . S
C489 C309 1.297 . S
C505 C153 1.516 . S
C507 C329 1.574 . S
C525 C343 1.626 . S
C523 C199 1.558 . S
C543 C357 1.627 . S
C541 C231 1.588 . S
C561 C287 1.643 . S
C559 C1 1.602 . S
C577 C22 1.465 . S
C579 C294 1.451 . S
C595 C68 1.471 . S
C597 C308 1.455 . S
C615 C330 1.470 . S
C613 C107 1.468 . S
C631 C146 1.481 . S
C633 C344 1.503 . S
C651 C358 1.446 . S
C649 C192 1.448 . S
C669 C288 1.439 . S
C667 C252 1.436 . S
C687 C350 1.441 . S
C685 C54 1.462 . S
C703 C93 1.467 . S
C705 C280 1.447 . S
C723 C302 1.467 . S
C721 C160 1.463 . S
C739 C206 1.466 . S
C741 C316 1.467 . S
C757 C238 1.505 . S
C759 C322 1.487 . S
C775 C8 1.493 . S
C777 C336 1.475 . S
