# Generated by pormake.
# Topology pyr, (3,6)-cn, num edge types: 1
# Building blocks:
#     Node 0, Type 0, BuildingBlock: KAKCAD_clean_linker_0, # of connection points: 3
#     Node 1, Type 0, BuildingBlock: KAKCAD_clean_linker_0, # of connection points: 3
#     Node 2, Type 0, BuildingBlock: KAKCAD_clean_linker_0, # of connection points: 3
#     Node 3, Type 0, BuildingBlock: KAKCAD_clean_linker_0, # of connection points: 3
#     Node 4, Type 0, BuildingBlock: KAKCAD_clean_linker_0, # of connection points: 3
#     Node 5, Type 0, BuildingBlock: KAKCAD_clean_linker_0, # of connection points: 3
#     Node 6, Type 0, BuildingBlock: KAKCAD_clean_linker_0, # of connection points: 3
#     Node 7, Type 0, BuildingBlock: KAKCAD_clean_linker_0, # of connection points: 3
#     Node 8, Type 1, BuildingBlock: FUNLAD_clean_sbu_0, # of connection points: 6
#     Node 9, Type 1, BuildingBlock: FUNLAD_clean_sbu_0, # of connection points: 6
#     Node 10, Type 1, BuildingBlock: FUNLAD_clean_sbu_0, # of connection points: 6
#     Node 11, Type 1, BuildingBlock: FUNLAD_clean_sbu_0, # of connection points: 6
#     Edge 12, Type (0, 1), BuildingBlock: AJUNOK_clean_linker_0, # of connection points: 2
#     Edge 13, Type (0, 1), BuildingBlock: AJUNOK_clean_linker_0, # of connection points: 2
#     Edge 14, Type (0, 1), BuildingBlock: AJUNOK_clean_linker_0, # of connection points: 2
#     Edge 15, Type (0, 1), BuildingBlock: AJUNOK_clean_linker_0, # of connection points: 2
#     Edge 16, Type (0, 1), BuildingBlock: AJUNOK_clean_linker_0, # of connection points: 2
#     Edge 17, Type (0, 1), BuildingBlock: AJUNOK_clean_linker_0, # of connection points: 2
#     Edge 18, Type (0, 1), BuildingBlock: AJUNOK_clean_linker_0, # of connection points: 2
#     Edge 19, Type (0, 1), BuildingBlock: AJUNOK_clean_linker_0, # of connection points: 2
#     Edge 20, Type (0, 1), BuildingBlock: AJUNOK_clean_linker_0, # of connection points: 2
#     Edge 21, Type (0, 1), BuildingBlock: AJUNOK_clean_linker_0, # of connection points: 2
#     Edge 22, Type (0, 1), BuildingBlock: AJUNOK_clean_linker_0, # of connection points: 2
#     Edge 23, Type (0, 1), BuildingBlock: AJUNOK_clean_linker_0, # of connection points: 2
#     Edge 24, Type (0, 1), BuildingBlock: AJUNOK_clean_linker_0, # of connection points: 2
#     Edge 25, Type (0, 1), BuildingBlock: AJUNOK_clean_linker_0, # of connection points: 2
#     Edge 26, Type (0, 1), BuildingBlock: AJUNOK_clean_linker_0, # of connection points: 2
#     Edge 27, Type (0, 1), BuildingBlock: AJUNOK_clean_linker_0, # of connection points: 2
#     Edge 28, Type (0, 1), BuildingBlock: AJUNOK_clean_linker_0, # of connection points: 2
#     Edge 29, Type (0, 1), BuildingBlock: AJUNOK_clean_linker_0, # of connection points: 2
#     Edge 30, Type (0, 1), BuildingBlock: AJUNOK_clean_linker_0, # of connection points: 2
#     Edge 31, Type (0, 1), BuildingBlock: AJUNOK_clean_linker_0, # of connection points: 2
#     Edge 32, Type (0, 1), BuildingBlock: AJUNOK_clean_linker_0, # of connection points: 2
#     Edge 33, Type (0, 1), BuildingBlock: AJUNOK_clean_linker_0, # of connection points: 2
#     Edge 34, Type (0, 1), BuildingBlock: AJUNOK_clean_linker_0, # of connection points: 2
#     Edge 35, Type (0, 1), BuildingBlock: AJUNOK_clean_linker_0, # of connection points: 2
# Relax obj value: 0.085
# Max RMSD: 0.071
# Mean RMSD: 0.035
data_MOF--net-pry--node1-FUNLAD_clean_sbu_0--node2-KAKCAD_clean_linker_0--edge1-AJUNOK_clean_linker_0
_symmetry_space_group_name_H-M    P1
_symmetry_Int_Tables_number       1
_symmetry_cell_setting            triclinic
loop_
_symmetry_equiv_pos_as_xyz
'x, y, z'
_cell_length_a     34.451039
_cell_length_b     36.756791
_cell_length_c     36.646726
_cell_angle_alpha  90.454562
_cell_angle_beta   89.879347
_cell_angle_gamma 83.383696
loop_
_atom_site_label
_atom_site_type_symbol
_atom_site_fract_x
_atom_site_fract_y
_atom_site_fract_z
_atom_type_partial_charge
C0 C 0.06515 0.13788 0.30129 0.0
C1 C 0.09092 0.1155 0.32369 0.0
C2 C 0.07869 0.1541 0.26968 0.0
C3 C 0.11857 0.14883 0.25973 0.0
C4 C 0.14426 0.12684 0.28281 0.0
C5 C 0.13059 0.11013 0.31391 0.0
C6 C 0.13361 0.16554 0.22554 0.0
C7 C 0.11625 0.19954 0.21156 0.0
C8 C 0.13208 0.21542 0.18063 0.0
C9 C 0.16537 0.19697 0.1636 0.0
C10 C 0.18268 0.16288 0.17615 0.0
C11 C 0.16632 0.14738 0.20681 0.0
C12 C 0.21824 0.14381 0.15747 0.0
C13 C 0.22216 0.14465 0.11921 0.0
C14 C 0.24906 0.12537 0.17775 0.0
C15 C 0.28284 0.10857 0.16034 0.0
C16 C 0.28676 0.10968 0.12215 0.0
C17 C 0.11513 0.25167 0.16579 0.0
C18 C 0.07642 0.25732 0.15299 0.0
C19 C 0.13908 0.27984 0.16104 0.0
C20 C 0.12489 0.31265 0.14383 0.0
C21 C 0.08652 0.31807 0.13027 0.0
C22 C 0.0624 0.29001 0.13507 0.0
C23 C 0.25599 0.12796 0.10184 0.0
H24 H 0.03432 0.14243 0.30798 0.0
H25 H 0.05763 0.17028 0.2528 0.0
H26 H 0.17532 0.12271 0.27728 0.0
H27 H 0.15129 0.0935 0.33081 0.0
H28 H 0.09135 0.21437 0.22527 0.0
H29 H 0.17889 0.12057 0.21563 0.0
H30 H 0.17795 0.20949 0.14038 0.0
H31 H 0.19893 0.15805 0.10254 0.0
H32 H 0.24755 0.12465 0.20725 0.0
H33 H 0.30632 0.0954 0.17688 0.0
H34 H 0.05743 0.23598 0.15579 0.0
H35 H 0.16909 0.27627 0.17037 0.0
H36 H 0.25799 0.12915 0.07238 0.0
H37 H 0.03267 0.29342 0.12503 0.0
H38 H 0.14427 0.3336 0.14042 0.0
C39 C 0.3796 0.93578 0.81321 0.0
C40 C 0.41937 0.93165 0.82247 0.0
C41 C 0.36638 0.91865 0.78199 0.0
C42 C 0.3926 0.89736 0.7584 0.0
C43 C 0.43249 0.89288 0.7681 0.0
C44 C 0.4456 0.90953 0.79984 0.0
C45 C 0.3782 0.88089 0.72369 0.0
C46 C 0.34585 0.89921 0.70502 0.0
C47 C 0.33049 0.88405 0.67362 0.0
C48 C 0.34871 0.85066 0.65978 0.0
C49 C 0.38126 0.83152 0.67712 0.0
C50 C 0.39584 0.84696 0.70918 0.0
C51 C 0.39917 0.79552 0.6611 0.0
C52 C 0.3753 0.77156 0.64425 0.0
C53 C 0.43993 0.78553 0.6604 0.0
C54 C 0.45621 0.75334 0.64229 0.0
C55 C 0.43219 0.73055 0.62408 0.0
C56 C 0.29467 0.90242 0.65554 0.0
C57 C 0.29016 0.94031 0.64887 0.0
C58 C 0.26462 0.88185 0.64465 0.0
C59 C 0.23096 0.89866 0.62762 0.0
C60 C 0.22637 0.93653 0.62083 0.0
C61 C 0.25656 0.95711 0.6315 0.0
C62 C 0.39154 0.73982 0.62585 0.0
H63 H 0.35853 0.95193 0.83049 0.0
H64 H 0.33531 0.92201 0.77665 0.0
H65 H 0.45385 0.87711 0.75085 0.0
H66 H 0.47645 0.9057 0.80633 0.0
H67 H 0.3321 0.92535 0.71503 0.0
H68 H 0.42011 0.832 0.72335 0.0
H69 H 0.3377 0.83992 0.63472 0.0
H70 H 0.34378 0.77737 0.64503 0.0
H71 H 0.45939 0.80313 0.67284 0.0
H72 H 0.48767 0.74678 0.64167 0.0
H73 H 0.31296 0.95686 0.65646 0.0
H74 H 0.26689 0.8527 0.64976 0.0
H75 H 0.37216 0.72236 0.61303 0.0
H76 H 0.25454 0.98615 0.62592 0.0
H77 H 0.20822 0.88199 0.62014 0.0
C78 C 0.74203 0.51118 1.00624 0.0
C79 C 0.77143 0.48245 1.01353 0.0
C80 C 0.70353 0.50397 1.00064 0.0
C81 C 0.69376 0.46797 1.00259 0.0
C82 C 0.72305 0.43941 1.01094 0.0
C83 C 0.76159 0.44657 1.01614 0.0
C84 C 0.65409 0.45961 0.99263 0.0
C85 C 0.63772 0.47238 0.95936 0.0
C86 C 0.60296 0.46035 0.94658 0.0
C87 C 0.58347 0.4372 0.96854 0.0
C88 C 0.60022 0.42275 1.00094 0.0
C89 C 0.6352 0.43475 1.01328 0.0
C90 C 0.58612 0.3891 1.01559 0.0
C91 C 0.54594 0.38514 1.01547 0.0
C92 C 0.61312 0.35788 1.02068 0.0
C93 C 0.60061 0.32315 1.02061 0.0
C94 C 0.56102 0.31907 1.01519 0.0
C95 C 0.59054 0.46648 0.9081 0.0
C96 C 0.59366 0.49998 0.89068 0.0
C97 C 0.57772 0.43748 0.88773 0.0
C98 C 0.56809 0.44184 0.85106 0.0
C99 C 0.57164 0.47505 0.8337 0.0
C100 C 0.5845 0.50414 0.85366 0.0
C101 C 0.53347 0.35028 1.01505 0.0
H102 H 0.74907 0.53903 1.00372 0.0
H103 H 0.68149 0.52642 0.99412 0.0
H104 H 0.71647 0.41132 1.01202 0.0
H105 H 0.78385 0.42402 1.02172 0.0
H106 H 0.65387 0.48911 0.94203 0.0
H107 H 0.64874 0.42332 0.03796 0.0
H108 H 0.557 0.42746 0.95837 0.0
H109 H 0.52442 0.4088 1.01226 0.0
H110 H 0.64426 0.3598 1.02091 0.0
H111 H 0.62225 0.29934 1.02193 0.0
H112 H 0.60341 0.5228 0.90556 0.0
H113 H 0.57629 0.41084 0.89972 0.0
H114 H 0.50268 0.34776 1.01154 0.0
H115 H 0.58753 0.52998 0.84055 0.0
H116 H 0.55906 0.41882 0.83592 0.0
C117 C 0.92153 0.56415 0.3449 0.0
C118 C 0.96127 0.55868 0.33557 0.0
C119 C 0.91002 0.56541 0.38139 0.0
C120 C 0.93811 0.56145 0.40925 0.0
C121 C 0.97785 0.55414 0.39983 0.0
C122 C 0.98936 0.55268 0.36321 0.0
C123 C 0.92617 0.57139 0.44718 0.0
C124 C 0.89181 0.56044 0.46192 0.0
C125 C 0.87476 0.57764 0.49337 0.0
C126 C 0.89333 0.60506 0.51087 0.0
C127 C 0.92783 0.61623 0.4964 0.0
C128 C 0.94454 0.59843 0.46518 0.0
C129 C 0.9415 0.65143 0.50776 0.0
C130 C 0.9141 0.68257 0.51225 0.0
C131 C 0.98153 0.65588 0.50669 0.0
C132 C 0.99356 0.6909 0.5062 0.0
C133 C 0.96575 0.72195 0.50725 0.0
C134 C 0.83432 0.57168 0.50342 0.0
C135 C 0.80569 0.6019 0.50786 0.0
C136 C 0.82304 0.53616 0.50436 0.0
C137 C 0.78369 0.53103 0.50842 0.0
C138 C 0.75501 0.56134 0.51108 0.0
C139 C 0.76639 0.59676 0.51159 0.0
C140 C 0.92615 0.71746 0.51205 0.0
H141 H 0.89939 0.56848 0.32393 0.0
H142 H 0.87925 0.57176 0.38774 0.0
H143 H 1.00005 0.55115 0.42083 0.0
H144 H 0.02021 0.54848 0.35655 0.0
H145 H 0.87659 0.54075 0.44711 0.0
H146 H 0.96937 0.60871 0.45222 0.0
H147 H 0.8796 0.61927 0.53441 0.0
H148 H 0.88304 0.6803 0.5128 0.0
H149 H 1.00333 0.63235 0.50359 0.0
H150 H 0.02428 0.69362 0.50245 0.0
H151 H 0.81343 0.62961 0.50671 0.0
H152 H 0.84455 0.51243 0.501 0.0
H153 H 0.90422 0.74106 0.51349 0.0
H154 H 0.74476 0.6205 0.51411 0.0
H155 H 0.7755 0.50344 0.50809 0.0
C156 C 0.93097 0.89331 0.72773 0.0
C157 C 0.92491 0.93163 0.72316 0.0
C158 C 0.91749 0.87668 0.75915 0.0
C159 C 0.89743 0.89783 0.78707 0.0
C160 C 0.89197 0.93619 0.7826 0.0
C161 C 0.90505 0.95269 0.75116 0.0
C162 C 0.88061 0.88035 0.81989 0.0
C163 C 0.8998 0.84834 0.83639 0.0
C164 C 0.88359 0.83256 0.86735 0.0
C165 C 0.84735 0.84898 0.88092 0.0
C166 C 0.82807 0.8809 0.86554 0.0
C167 C 0.84476 0.89617 0.83505 0.0
C168 C 0.79089 0.89872 0.88218 0.0
C169 C 0.7611 0.87773 0.8926 0.0
C170 C 0.78567 0.93662 0.88934 0.0
C171 C 0.75183 0.95301 0.90698 0.0
C172 C 0.72196 0.93204 0.91741 0.0
C173 C 0.90385 0.79937 0.88642 0.0
C174 C 0.92485 0.77016 0.86705 0.0
C175 C 0.90044 0.79583 0.92458 0.0
C176 C 0.91573 0.76382 0.94249 0.0
C177 C 0.93624 0.73436 0.92323 0.0
C178 C 0.94081 0.73818 0.88518 0.0
C179 C 0.72708 0.89417 0.90987 0.0
H180 H 0.9462 0.87605 0.70693 0.0
H181 H 0.92206 0.84713 0.76111 0.0
H182 H 0.87736 0.9538 0.80345 0.0
H183 H 0.89879 0.98209 0.74857 0.0
H184 H 0.92784 0.83641 0.8259 0.0
H185 H 0.82903 0.92011 0.82263 0.0
H186 H 0.83398 0.83708 0.90405 0.0
H187 H 0.76402 0.84852 0.88727 0.0
H188 H 0.80832 0.95348 0.88226 0.0
H189 H 0.74952 0.98203 0.91316 0.0
H190 H 0.92807 0.77148 0.83772 0.0
H191 H 0.8854 0.81775 0.94092 0.0
H192 H 0.70464 0.87718 0.91719 0.0
H193 H 0.95653 0.71629 0.86927 0.0
H194 H 0.9104 0.76195 0.97149 0.0
C195 C 0.59572 0.09211 0.25585 0.0
C196 C 0.59406 0.11031 0.22203 0.0
C197 C 0.60878 0.10874 0.28751 0.0
C198 C 0.6194 0.14454 0.28673 0.0
C199 C 0.61656 0.16336 0.25344 0.0
C200 C 0.60443 0.1464 0.22151 0.0
C201 C 0.6351 0.16128 0.32023 0.0
C202 C 0.66794 0.14295 0.33799 0.0
C203 C 0.68373 0.15807 0.36931 0.0
C204 C 0.66511 0.19106 0.38384 0.0
C205 C 0.63202 0.20972 0.36713 0.0
C206 C 0.61767 0.19515 0.33467 0.0
C207 C 0.61298 0.24408 0.38474 0.0
C208 C 0.60162 0.24389 0.42163 0.0
C209 C 0.60948 0.2777 0.36637 0.0
C210 C 0.59649 0.31054 0.38497 0.0
C211 C 0.58631 0.31054 0.42233 0.0
C212 C 0.72005 0.1401 0.38683 0.0
C213 C 0.72504 0.10228 0.39378 0.0
C214 C 0.74979 0.16112 0.39756 0.0
C215 C 0.78352 0.14485 0.41488 0.0
C216 C 0.78849 0.10708 0.42217 0.0
C217 C 0.75869 0.08602 0.4115 0.0
C218 C 0.58805 0.27651 0.44 0.0
H219 H 0.58653 0.06506 0.25817 0.0
H220 H 0.61027 0.09364 0.31283 0.0
H221 H 0.6248 0.19087 0.25187 0.0
H222 H 0.60384 0.16148 0.19623 0.0
H223 H 0.68198 0.11743 0.32665 0.0
H224 H 0.59227 0.20939 0.32147 0.0
H225 H 0.6765 0.20241 0.40847 0.0
H226 H 0.60369 0.21835 0.43645 0.0
H227 H 0.61832 0.27877 0.33806 0.0
H228 H 0.59556 0.33608 0.3703 0.0
H229 H 0.70248 0.08541 0.3863 0.0
H230 H 0.74713 0.19025 0.39226 0.0
H231 H 0.57905 0.27496 0.46821 0.0
H232 H 0.76098 0.05705 0.41742 0.0
H233 H 0.80596 0.16188 0.42231 0.0
C234 C 0.26811 0.54929 0.07937 0.0
C235 C 0.25159 0.55898 0.04537 0.0
C236 C 0.30735 0.5524 0.08613 0.0
C237 C 0.33127 0.56504 0.05894 0.0
C238 C 0.31483 0.5746 0.02476 0.0
C239 C 0.2753 0.5716 1.01803 0.0
C240 C 0.37238 0.57038 0.06758 0.0
C241 C 0.39443 0.54558 0.09072 0.0
C242 C 0.42938 0.55435 0.10622 0.0
C243 C 0.4443 0.58643 0.09543 0.0
C244 C 0.42266 0.61174 0.07285 0.0
C245 C 0.38711 0.60327 0.05825 0.0
C246 C 0.43334 0.64956 0.07141 0.0
C247 C 0.44194 0.6672 0.10412 0.0
C248 C 0.43417 0.66854 0.03838 0.0
C249 C 0.44388 0.70452 0.03817 0.0
C250 C 0.45219 0.722 0.07104 0.0
C251 C 0.44384 0.53727 0.14085 0.0
C252 C 0.41683 0.5344 0.16922 0.0
C253 C 0.48404 0.53286 0.14892 0.0
C254 C 0.49663 0.52976 0.18515 0.0
C255 C 0.46912 0.53104 0.21351 0.0
C256 C 0.42939 0.53154 0.20524 0.0
C257 C 0.45142 0.70294 0.10391 0.0
H258 H 0.25057 0.53938 0.10091 0.0
H259 H 0.31862 0.54576 0.11313 0.0
H260 H 0.33244 0.58459 1.00334 0.0
H261 H 0.26314 0.5798 0.99172 0.0
H262 H 0.3828 0.52082 0.09926 0.0
H263 H 0.36923 0.62378 0.04266 0.0
H264 H 0.47064 0.59402 0.10813 0.0
H265 H 0.4408 0.6535 0.13011 0.0
H266 H 0.42752 0.65553 1.01289 0.0
H267 H 0.44425 0.7189 1.01251 0.0
H268 H 0.38567 0.53811 0.16413 0.0
H269 H 0.50545 0.53485 0.12756 0.0
H270 H 0.45807 0.71577 0.12951 0.0
H271 H 0.40783 0.53217 0.22689 0.0
H272 H 0.52747 0.52918 0.19113 0.0
C273 C 0.1008 0.32395 0.53803 0.0
C274 C 0.06057 0.32132 0.54074 0.0
C275 C 0.11477 0.35804 0.53934 0.0
C276 C 0.08869 0.39012 0.54344 0.0
C277 C 0.04824 0.38762 0.54246 0.0
C278 C 0.03426 0.35342 0.54126 0.0
C279 C 0.10363 0.42416 0.55644 0.0
C280 C 0.13884 0.43475 0.543 0.0
C281 C 0.1574 0.46173 0.56123 0.0
C282 C 0.14008 0.47856 0.59273 0.0
C283 C 0.1052 0.46791 0.60663 0.0
C284 C 0.08665 0.44155 0.58775 0.0
C285 C 0.09219 0.4781 0.64422 0.0
C286 C 0.11941 0.47436 0.67283 0.0
C287 C 0.05223 0.48602 0.65252 0.0
C288 C 0.03963 0.48854 0.68881 0.0
C289 C 0.06682 0.48304 0.71727 0.0
C290 C 0.19751 0.46856 0.55102 0.0
C291 C 0.22676 0.43897 0.54593 0.0
C292 C 0.20772 0.50445 0.54992 0.0
C293 C 0.24657 0.51061 0.54453 0.0
C294 C 0.27589 0.48098 0.54043 0.0
C295 C 0.26565 0.44514 0.54089 0.0
C296 C 0.10681 0.47672 0.709 0.0
H297 H 0.1216 0.29948 0.53713 0.0
H298 H 0.14607 0.3589 0.54033 0.0
H299 H 0.02749 0.41197 0.54527 0.0
H300 H 1.0031 0.35207 0.54339 0.0
H301 H 0.15274 0.42079 0.5194 0.0
H302 H 0.06117 0.43162 0.59985 0.0
H303 H 0.1552 0.49801 0.60797 0.0
H304 H 0.15031 0.46758 0.66735 0.0
H305 H 0.03068 0.48889 0.63093 0.0
H306 H 1.00861 0.49333 0.69461 0.0
H307 H 0.21982 0.41101 0.5473 0.0
H308 H 0.18573 0.5277 0.55391 0.0
H309 H 0.12828 0.47274 0.7306 0.0
H310 H 0.28783 0.42191 0.53774 0.0
H311 H 0.25388 0.5385 0.54463 0.0
C312 C 0.03866 0.04697 0.4573 0.0
N313 N 0.01262 0.10104 0.55586 0.0
C314 C 0.04861 0.11242 0.55201 0.0
C315 C 0.0535 0.14921 0.5557 0.0
C316 C 0.02096 0.17476 0.56259 0.0
C317 C 0.98437 0.16247 0.56818 0.0
C318 C 0.98087 0.12503 0.56494 0.0
Zn319 Zn 1.00743 0.04963 0.53671 0.0
C320 C 0.93353 0.04714 0.4945 0.0
N321 N 1.00245 0.94507 0.48893 0.0
C322 C 0.03453 0.92205 0.47872 0.0
C323 C 0.96705 0.93267 0.49344 0.0
C324 C 0.96332 0.8956 0.48978 0.0
C325 C 0.99643 0.87093 0.48207 0.0
C326 C 0.0322 0.88444 0.47534 0.0
Zn327 Zn 1.00716 0.99632 0.50849 0.0
O328 O 0.0315 0.06622 0.48603 0.0
C329 C 0.08105 0.99846 0.5505 0.0
O330 O 0.03268 1.01337 0.45799 0.0
H331 H 0.94213 0.95107 0.50254 0.0
H332 H 0.07327 0.09348 0.54343 0.0
H333 H 0.06243 0.93244 0.47545 0.0
O334 O 0.06441 0.0304 0.55759 0.0
O335 O 0.06379 0.97784 0.52957 0.0
H336 H 0.95244 0.11553 0.56753 0.0
O337 O 0.98167 0.97993 0.55968 0.0
O338 O 0.98324 0.03292 0.58701 0.0
O339 O 0.95068 1.01546 0.48712 0.0
O340 O 0.95023 0.06775 0.51597 0.0
C341 C 0.97569 0.99982 0.58826 0.0
H342 H 0.08205 0.1579 0.55077 0.0
H343 H 0.95871 0.18168 0.57362 0.0
H344 H 0.93535 0.88602 0.49547 0.0
H345 H 0.05824 0.86602 0.46908 0.0
C346 C 0.57858 0.99467 0.99259 0.0
N347 N 0.51343 0.09934 0.98998 0.0
C348 C 0.5499 0.10968 0.99371 0.0
C349 C 0.55589 0.14626 0.99076 0.0
C350 C 0.52398 0.17263 0.98456 0.0
C351 C 0.48691 0.16133 0.97906 0.0
C352 C 0.4823 0.12411 0.98152 0.0
Zn353 Zn 0.50631 0.04842 1.0086 0.0
C354 C 0.47274 0.99955 0.95647 0.0
N355 N 0.4977 0.94433 0.05438 0.0
C356 C 0.52797 0.92057 0.06673 0.0
C357 C 0.46141 0.93381 0.04989 0.0
C358 C 0.45453 0.89808 0.0571 0.0
C359 C 0.48538 0.87271 0.06861 0.0
C360 C 0.52246 0.88417 0.07381 0.0
Zn361 Zn 0.50525 0.99479 0.03521 0.0
O362 O 0.56244 0.02693 0.98649 0.0
C363 C 0.53919 0.04356 0.08726 0.0
O364 O 0.56134 0.97431 1.01361 0.0
H365 H 0.43799 0.95267 0.03901 0.0
H366 H 0.57406 0.09004 1.0017 0.0
H367 H 0.55667 0.92944 0.06973 0.0
O368 O 0.53208 0.06389 0.05954 0.0
O369 O 0.53157 1.01048 0.08549 0.0
H370 H 0.45349 0.11542 0.97898 0.0
O371 O 0.44882 1.01609 0.05708 0.0
O372 O 0.45033 0.06871 0.03027 0.0
O373 O 0.47974 0.97931 0.98427 0.0
O374 O 0.48007 0.03274 0.9583 0.0
C375 C 0.4327 0.04831 0.05085 0.0
H376 H 0.58476 0.15414 0.99585 0.0
H377 H 0.46168 0.18116 0.97433 0.0
H378 H 0.42577 0.88992 0.05206 0.0
H379 H 0.54691 0.86506 0.08252 0.0
C380 C 0.53832 0.45073 0.4978 0.0
N381 N 0.53244 0.49713 0.60382 0.0
C382 C 0.52108 0.46671 0.61964 0.0
C383 C 0.52769 0.46046 0.65685 0.0
C384 C 0.54573 0.48603 0.67771 0.0
C385 C 0.55774 0.51666 0.66036 0.0
C386 C 0.55095 0.52161 0.62331 0.0
Zn387 Zn 0.5207 0.51054 0.551 0.0
C388 C 0.59126 0.53746 0.51661 0.0
N389 N 0.49869 0.54584 0.44262 0.0
C390 C 0.47872 0.52141 0.42455 0.0
C391 C 0.51525 0.57235 0.42445 0.0
C392 C 0.51337 0.57382 0.38629 0.0
C393 C 0.49486 0.54739 0.36731 0.0
C394 C 0.47652 0.52167 0.38679 0.0
Zn395 Zn 0.50957 0.53359 0.49597 0.0
O396 O 0.53899 0.45535 0.53227 0.0
C397 C 0.43885 0.50705 0.5304 0.0
O398 O 0.52737 0.47818 0.47797 0.0
H399 H 0.53137 0.5912 0.43934 0.0
H400 H 0.5065 0.44759 0.60354 0.0
H401 H 0.46624 0.50016 0.43921 0.0
O402 O 0.46217 0.4981 0.55652 0.0
O403 O 0.45155 0.52203 0.50245 0.0
H404 H 0.55984 0.5456 0.61027 0.0
O405 O 0.49161 0.58877 0.51441 0.0
O406 O 0.50215 0.56606 0.56903 0.0
O407 O 0.56788 0.54553 0.4904 0.0
O408 O 0.57886 0.52273 0.54489 0.0
C409 C 0.49146 0.59345 0.54892 0.0
H410 H 0.51874 0.43605 0.66913 0.0
H411 H 0.5715 0.53713 0.67546 0.0
H412 H 0.5275 0.59423 0.37176 0.0
H413 H 0.46153 0.50128 0.37283 0.0
C414 C 0.98723 0.59566 0.99823 0.0
N415 N 0.99511 0.55407 0.10573 0.0
C416 C 0.01066 0.58234 0.12229 0.0
C417 C 1.00778 0.5869 0.16024 0.0
C418 C 0.98932 0.56173 0.18073 0.0
C419 C 0.97216 0.534 0.16277 0.0
C420 C 0.97536 0.53066 0.12516 0.0
Zn421 Zn 1.0057 0.53882 0.05284 0.0
C422 C 0.93394 0.51034 1.02092 0.0
N423 N 0.0258 0.49644 0.94613 0.0
C424 C 0.04502 0.51998 0.92635 0.0
C425 C 0.01153 0.4672 0.93012 0.0
C426 C 0.0154 0.46156 0.89237 0.0
C427 C 0.03352 0.48665 0.87146 0.0
C428 C 0.04921 0.51556 0.8889 0.0
Zn429 Zn 0.01512 0.51199 0.99888 0.0
O430 O 0.98866 0.5931 0.03286 0.0
C431 C 0.08685 0.54067 0.03074 0.0
O432 O 0.99611 0.56684 0.97908 0.0
H433 H 0.99614 0.44901 0.94639 0.0
H434 H 0.02652 0.6004 0.10632 0.0
H435 H 0.05596 0.54319 0.9394 0.0
O436 O 0.06394 0.55057 0.05709 0.0
O437 O 0.07374 0.52438 1.00354 0.0
H438 H 0.96354 0.50812 0.11172 0.0
O439 O 0.03333 0.45737 1.01935 0.0
O440 O 0.0238 0.48439 0.07247 0.0
O441 O 0.95699 0.49948 0.99496 0.0
O442 O 0.94694 0.52724 0.04777 0.0
C443 C 0.03405 0.4554 0.05406 0.0
H444 H 0.02106 0.60879 0.17352 0.0
H445 H 0.9572 0.51451 0.17785 0.0
H446 H 1.00329 0.43876 0.87953 0.0
H447 H 0.064 0.53498 0.87355 0.0
C448 C 0.08342 0.06008 0.36273 0.0
C449 C 0.07688 0.0983 0.35758 0.0
C450 C 0.07077 0.04354 0.39466 0.0
C451 C 0.0519 0.06461 0.42327 0.0
H452 H 0.09815 0.04275 0.3417 0.0
H453 H 0.07628 1.01405 0.39712 0.0
S454 S 0.02864 0.16608 0.42362 0.0
N455 N 0.05046 0.15669 0.38394 0.0
N456 N 0.02753 0.12625 0.44388 0.0
C457 C 0.04555 0.10298 0.41844 0.0
C458 C 0.05777 0.11962 0.38571 0.0
C459 C 0.45329 0.92884 0.88348 0.0
C460 C 0.43316 0.94984 0.85605 0.0
C461 C 0.46531 0.94515 0.91584 0.0
C462 C 0.45852 0.98335 0.92197 0.0
H463 H 0.45928 0.89941 0.88016 0.0
H464 H 0.48055 0.92759 0.93608 0.0
S465 S 0.40777 0.05075 0.85812 0.0
N466 N 0.40712 1.01093 0.83702 0.0
N467 N 0.43055 0.04168 0.89719 0.0
C468 C 0.43885 1.00472 0.89447 0.0
C469 C 0.42594 0.98798 0.86179 0.0
C470 C 0.59376 0.48662 0.77064 0.0
C471 C 0.56396 0.47833 0.79425 0.0
C472 C 0.58786 0.4881 0.73291 0.0
C473 C 0.55183 0.48167 0.71751 0.0
H474 H 0.62201 0.49143 0.78139 0.0
H475 H 0.61177 0.49427 0.71563 0.0
S476 S 0.46388 0.46078 0.76828 0.0
N477 N 0.49707 0.46432 0.80017 0.0
N478 N 0.48545 0.46808 0.72915 0.0
C479 C 0.5217 0.47355 0.74098 0.0
C480 C 0.52788 0.47171 0.7794 0.0
C481 C 0.95892 0.5916 0.27623 0.0
C482 C 0.97301 0.56079 0.29696 0.0
C483 C 0.96647 0.59289 0.23872 0.0
C484 C 0.98799 0.56323 0.22086 0.0
H485 H 0.94116 0.61448 0.28898 0.0
H486 H 0.95386 0.61636 0.22332 0.0
S487 S 0.0334 0.47743 0.26308 0.0
N488 N 0.0112 0.50096 0.29727 0.0
N489 N 0.02527 0.5033 0.22662 0.0
C490 C 1.00362 0.533 0.24151 0.0
C491 C 0.99619 0.53181 0.27967 0.0
C492 C 0.3423 0.11308 0.07801 0.0
C493 C 0.32324 0.09283 0.10357 0.0
C494 C 0.37725 0.09834 0.06092 0.0
C495 C 0.39463 0.06254 0.06838 0.0
H496 H 0.33049 0.1409 0.07167 0.0
H497 H 0.39089 0.1154 0.0419 0.0
S498 S 0.35492 0.9972 0.13151 0.0
N499 N 0.32335 0.0345 0.13426 0.0
N500 N 0.38885 1.00672 0.10235 0.0
C501 C 0.37538 0.04171 0.09339 0.0
C502 C 0.33986 0.05686 0.11093 0.0
C503 C 0.17497 0.93691 0.57195 0.0
C504 C 0.19023 0.95404 0.60242 0.0
C505 C 0.14021 0.95179 0.55504 0.0
C506 C 0.11914 0.98462 0.56768 0.0
H507 H 0.19003 0.91166 0.56102 0.0
H508 H 0.12969 0.93722 0.53194 0.0
S509 S 0.14578 0.03991 0.64718 0.0
N510 N 0.18085 1.00534 0.64504 0.0
N511 N 0.11614 0.03369 0.61293 0.0
C512 C 0.13428 1.00232 0.59787 0.0
C513 C 0.1696 0.987 0.61526 0.0
C514 C 0.84109 0.47079 0.99356 0.0
C515 C 0.81269 0.48957 1.01656 0.0
C516 C 0.88018 0.4778 0.99505 0.0
C517 C 0.89239 0.50349 1.01996 0.0
H518 H 0.83288 0.45093 0.97386 0.0
H519 H 0.90097 0.4628 0.97663 0.0
S520 S 0.82908 0.55909 0.08687 0.0
N521 N 0.79913 0.53435 0.06528 0.0
N522 N 0.87262 0.54748 0.06856 0.0
C523 C 0.86418 0.52215 0.04344 0.0
C524 C 0.82432 0.51524 0.04158 0.0
C525 C 0.6992 0.53351 0.53872 0.0
C526 C 0.71313 0.556 0.51209 0.0
C527 C 0.65969 0.52799 0.54007 0.0
C528 C 0.63273 0.54435 0.51448 0.0
H529 H 0.71896 0.52034 0.55886 0.0
H530 H 0.65035 0.51046 0.56121 0.0
S531 S 0.65522 0.60488 0.43852 0.0
N532 N 0.69752 0.59426 0.45916 0.0
N533 N 0.62318 0.58379 0.4614 0.0
C534 C 0.64648 0.56672 0.48747 0.0
C535 C 0.68669 0.5726 0.48638 0.0
C536 C 0.05856 0.35296 0.07504 0.0
C537 C 0.07203 0.35306 0.11136 0.0
C538 C 0.0468 0.38594 0.05642 0.0
C539 C 0.04723 0.42038 0.07361 0.0
H540 H 0.05781 0.32718 0.06068 0.0
H541 H 0.03695 0.38441 0.02846 0.0
S542 S 0.0791 0.4354 0.16898 0.0
N543 N 0.08471 0.39045 0.16384 0.0
N544 N 0.06215 0.45199 0.12966 0.0
C545 C 0.0602 0.42063 0.11017 0.0
C546 C 0.0727 0.38717 0.12878 0.0
C547 C 0.51883 0.26853 0.02373 0.0
C548 C 0.5494 0.28281 1.00521 0.0
C549 C 0.50904 0.23341 1.01537 0.0
C550 C 0.52943 0.21171 0.98814 0.0
H551 H 0.50333 0.28408 0.04558 0.0
H552 H 0.48665 0.22252 0.0314 0.0
S553 S 0.60759 0.2388 0.9281 0.0
N554 N 0.59682 0.2743 0.95566 0.0
N555 N 0.57865 0.2082 0.94039 0.0
C556 C 0.55852 0.22648 0.96817 0.0
C557 C 0.56845 0.26209 0.97659 0.0
C558 C 0.95616 0.78025 0.47261 0.0
C559 C 0.97698 0.75873 0.4993 0.0
C560 C 0.96419 0.81595 0.46567 0.0
C561 C 0.99355 0.83132 0.48495 0.0
H562 H 0.933 0.76959 0.45733 0.0
H563 H 0.94659 0.83205 0.4458 0.0
S564 S 0.05709 0.78624 0.55692 0.0
N565 N 0.0288 0.75499 0.54446 0.0
N566 N 0.0441 0.82234 0.53126 0.0
C567 C 0.01563 0.80971 0.51073 0.0
C568 C 1.00731 0.77331 0.51793 0.0
C569 C 0.47455 0.6698 0.62084 0.0
C570 C 0.44909 0.69696 0.60351 0.0
C571 C 0.48842 0.63683 0.60279 0.0
C572 C 0.47808 0.6298 0.56634 0.0
H573 H 0.48293 0.67358 0.64897 0.0
H574 H 0.50726 0.61655 0.61773 0.0
S575 S 0.41399 0.69317 0.50799 0.0
N576 N 0.41525 0.71524 0.54733 0.0
N577 N 0.4417 0.65383 0.5133 0.0
C578 C 0.45358 0.6573 0.54835 0.0
C579 C 0.43899 0.69063 0.56694 0.0
C580 C 0.93336 0.93395 0.65435 0.0
C581 C 0.93838 0.94953 0.68912 0.0
C582 C 0.94502 0.95051 0.62212 0.0
C583 C 0.96202 0.98366 0.62293 0.0
H584 H 0.91985 0.90887 0.6519 0.0
H585 H 0.94047 0.93719 0.59625 0.0
S586 S 0.9847 0.03445 0.70683 0.0
N587 N 0.9641 0.99915 0.72215 0.0
N588 N 0.98485 0.03054 0.66192 0.0
C589 C 0.96749 0.99943 0.65748 0.0
C590 C 0.956 0.98237 0.69034 0.0
C591 C 0.55758 0.11295 0.16182 0.0
C592 C 0.58092 0.09226 0.18763 0.0
C593 C 0.5448 0.09704 0.12954 0.0
C594 C 0.55407 0.05945 0.12161 0.0
H595 H 0.54849 0.14176 0.16672 0.0
H596 H 0.52679 0.11436 0.11091 0.0
S597 S 0.61665 0.99311 0.17802 0.0
N598 N 0.61504 0.03205 0.20106 0.0
N599 N 0.58934 1.00214 0.1415 0.0
C600 C 0.57744 0.03833 0.14688 0.0
C601 C 0.59119 0.05466 0.1795 0.0
C602 C 0.46552 0.56863 0.27026 0.0
C603 C 0.48069 0.53645 0.25162 0.0
C604 C 0.47251 0.57323 0.30752 0.0
C605 C 0.4945 0.54558 0.32721 0.0
H606 H 0.44722 0.58993 0.25608 0.0
H607 H 0.45901 0.59764 0.32136 0.0
S608 S 0.54277 0.45747 0.29053 0.0
N609 N 0.52058 0.4777 0.25489 0.0
N610 N 0.53332 0.48601 0.32532 0.0
C611 C 0.5112 0.514 0.30858 0.0
C612 C 0.50443 0.50952 0.27058 0.0
C613 C 0.06711 0.45274 0.77795 0.0
C614 C 0.05388 0.48265 0.75567 0.0
C615 C 0.05831 0.4531 0.81528 0.0
C616 C 0.03636 0.48355 0.83144 0.0
H617 H 0.08514 0.42927 0.76655 0.0
H618 H 0.07027 0.43027 0.83189 0.0
S619 S 0.99275 0.56752 0.78471 0.0
N620 N 0.01603 0.54251 0.75206 0.0
N621 N 0.99951 0.54323 0.82236 0.0
C622 C 0.02158 0.5129 0.80922 0.0
C623 C 0.03029 0.51242 0.77123 0.0
C624 C 0.67097 0.93188 0.96697 0.0
C625 C 0.68587 0.94924 0.93666 0.0
C626 C 0.63678 0.94698 0.98513 0.0
C627 C 0.61596 0.98028 0.97398 0.0
H628 H 0.68596 0.90638 0.97691 0.0
H629 H 0.62657 0.9323 1.00811 0.0
S630 S 0.64154 0.03612 0.89523 0.0
N631 N 0.67613 1.00109 0.89559 0.0
N632 N 0.61264 0.02985 0.93004 0.0
C633 C 0.63064 0.99808 0.94382 0.0
C634 C 0.66532 0.98252 0.92516 0.0
C635 C 0.83949 0.10796 0.47137 0.0
C636 C 0.82461 0.09018 0.4411 0.0
C637 C 0.87418 0.09358 0.48877 0.0
C638 C 0.89555 0.06062 0.47685 0.0
H639 H 0.82418 0.13332 0.48178 0.0
H640 H 0.8844 0.10862 0.51169 0.0
S641 S 0.86993 1.0037 0.39811 0.0
N642 N 0.8347 0.03817 0.39942 0.0
N643 N 0.89918 1.01072 0.43243 0.0
C644 C 0.88078 0.0423 0.44683 0.0
C645 C 0.84556 0.05712 0.42896 0.0
C646 C 0.18193 0.57054 0.06562 0.0
C647 C 0.20946 0.55631 0.03927 0.0
C648 C 0.14232 0.566 0.06221 0.0
C649 C 0.12858 0.54701 0.03228 0.0
H650 H 0.19117 0.58506 0.08933 0.0
H651 H 0.12247 0.57708 0.08354 0.0
S652 S 0.18889 0.50509 0.95527 0.0
N653 N 0.22038 0.5229 0.98203 0.0
N654 N 0.14583 0.51467 0.97512 0.0
C655 C 0.15573 0.53341 1.00519 0.0
C656 C 0.19615 0.53803 1.00877 0.0
C657 C 0.34529 0.47086 0.56134 0.0
C658 C 0.31732 0.48742 0.53691 0.0
C659 C 0.38451 0.47746 0.55921 0.0
C660 C 0.39722 0.50051 0.53227 0.0
H661 H 0.33664 0.45309 0.5826 0.0
H662 H 0.40499 0.46427 0.57874 0.0
S663 S 0.33514 0.54949 0.46108 0.0
N664 N 0.30476 0.52712 0.48466 0.0
N665 N 0.37832 0.53959 0.48027 0.0
C666 C 0.36941 0.51691 0.50741 0.0
C667 C 0.32949 0.51039 0.50985 0.0
C668 C 0.94737 0.66503 0.92624 0.0
C669 C 0.95113 0.69936 0.94253 0.0
C670 C 0.95929 0.63193 0.94431 0.0
C671 C 0.97508 0.63143 0.97981 0.0
H672 H 0.93434 0.66361 0.89948 0.0
H673 H 0.95542 0.60644 0.93049 0.0
S674 S 0.99504 0.71316 0.03357 0.0
N675 N 0.97525 0.73023 0.99548 0.0
N676 N 0.99596 0.66829 0.02974 0.0
C677 C 0.97961 0.66539 0.99628 0.0
C678 C 0.9681 0.69916 0.97764 0.0
C679 C 0.49172 0.77082 0.05012 0.0
C680 C 0.46102 0.76036 0.07149 0.0
C681 C 0.50071 0.80706 0.05065 0.0
C682 C 0.47895 0.83392 0.07222 0.0
H683 H 0.50888 0.75087 0.03297 0.0
H684 H 0.52401 0.81436 0.03323 0.0
S685 S 0.39604 0.82032 0.13324 0.0
N686 N 0.40915 0.7795 0.11502 0.0
N687 N 0.42607 0.84762 0.11592 0.0
C688 C 0.44853 0.82368 0.094 0.0
C689 C 0.43956 0.78686 0.09366 0.0
C690 C 0.06451 0.26328 0.5756 0.0
C691 C 0.04692 0.28531 0.54758 0.0
C692 C 0.05415 0.22821 0.58178 0.0
C693 C 0.02562 0.21403 0.56035 0.0
H694 H 0.08698 0.27302 0.59252 0.0
H695 H 0.0694 0.21158 0.60274 0.0
S696 S 0.97036 0.26079 0.48407 0.0
N697 N 0.99903 0.29085 0.49877 0.0
N698 N 0.97944 0.22458 0.51045 0.0
C699 C 1.00676 0.23617 0.53311 0.0
C700 C 0.01741 0.27195 0.52672 0.0
C701 C 0.54927 0.37408 0.42607 0.0
C702 C 0.57407 0.34582 0.44268 0.0
C703 C 0.53775 0.40748 0.44424 0.0
C704 C 0.55014 0.41425 0.48009 0.0
H705 H 0.53833 0.37034 0.39878 0.0
H706 H 0.51874 0.42818 0.42998 0.0
S707 S 0.6172 0.35058 0.53536 0.0
N708 N 0.61235 0.32803 0.4968 0.0
N709 N 0.58965 0.39014 0.53112 0.0
C710 C 0.57488 0.38634 0.49713 0.0
C711 C 0.58706 0.35241 0.47845 0.0
loop_
_geom_bond_atom_site_label_1
_geom_bond_atom_site_label_2
_geom_bond_distance
_geom_bond_site_symmetry_2
_ccdc_geom_bond_type
C0 C1 1.386 . S
C0 C2 1.397 . S
C0 H24 0.931 . S
C1 C0 1.386 . S
C1 C5 1.397 . S
C2 C0 1.397 . S
C2 C3 1.384 . S
C2 H25 0.930 . S
C3 C2 1.384 . S
C3 C4 1.377 . S
C3 C6 1.481 . S
C4 C3 1.377 . S
C4 C5 1.389 . S
C4 H26 0.929 . S
C5 C1 1.397 . S
C5 C4 1.389 . S
C5 H27 0.931 . S
C6 C3 1.481 . S
C6 C7 1.387 . S
C6 C11 1.390 . S
C7 C6 1.387 . S
C7 C8 1.401 . S
C7 H28 0.930 . S
C8 C7 1.401 . S
C8 C9 1.376 . S
C8 C17 1.511 . S
C9 C8 1.376 . S
C9 C10 1.392 . S
C9 H30 0.931 . S
C10 C9 1.392 . S
C10 C11 1.361 . S
C10 C12 1.500 . S
C11 C6 1.390 . S
C11 C10 1.361 . S
C11 H29 0.931 . S
C12 C10 1.500 . S
C12 C13 1.371 . S
C12 C14 1.365 . S
C13 C12 1.371 . S
C13 C23 1.386 . S
C13 H31 0.931 . S
C14 C12 1.365 . S
C14 C15 1.409 . S
C14 H32 0.929 . S
C15 C14 1.409 . S
C15 C16 1.380 . S
C15 H33 0.930 . S
C16 C15 1.380 . S
C16 C23 1.357 . S
C17 C8 1.511 . S
C17 C18 1.341 . S
C17 C19 1.371 . S
C18 C17 1.341 . S
C18 C22 1.394 . S
C18 H34 0.930 . S
C19 C17 1.371 . S
C19 C20 1.392 . S
C19 H35 0.931 . S
C20 C19 1.392 . S
C20 C21 1.331 . S
C20 H38 0.932 . S
C21 C20 1.331 . S
C21 C22 1.336 . S
C22 C18 1.394 . S
C22 C21 1.336 . S
C22 H37 0.929 . S
C23 C13 1.386 . S
C23 C16 1.357 . S
C23 H36 0.928 . S
H24 C0 0.931 . S
H25 C2 0.930 . S
H26 C4 0.929 . S
H27 C5 0.931 . S
H28 C7 0.930 . S
H29 C11 0.931 . S
H30 C9 0.931 . S
H31 C13 0.931 . S
H32 C14 0.929 . S
H33 C15 0.930 . S
H34 C18 0.930 . S
H35 C19 0.931 . S
H36 C23 0.928 . S
H37 C22 0.929 . S
H38 C20 0.932 . S
C39 C40 1.386 . S
C39 C41 1.397 . S
C39 H63 0.931 . S
C40 C39 1.386 . S
C40 C44 1.397 . S
C41 C39 1.397 . S
C41 C42 1.384 . S
C41 H64 0.930 . S
C42 C41 1.384 . S
C42 C43 1.377 . S
C42 C45 1.481 . S
C43 C42 1.377 . S
C43 C44 1.389 . S
C43 H65 0.929 . S
C44 C40 1.397 . S
C44 C43 1.389 . S
C44 H66 0.931 . S
C45 C42 1.481 . S
C45 C46 1.387 . S
C45 C50 1.390 . S
C46 C45 1.387 . S
C46 C47 1.401 . S
C46 H67 0.930 . S
C47 C46 1.401 . S
C47 C48 1.376 . S
C47 C56 1.511 . S
C48 C47 1.376 . S
C48 C49 1.392 . S
C48 H69 0.931 . S
C49 C48 1.392 . S
C49 C50 1.361 . S
C49 C51 1.500 . S
C50 C45 1.390 . S
C50 C49 1.361 . S
C50 H68 0.931 . S
C51 C49 1.500 . S
C51 C52 1.371 . S
C51 C53 1.365 . S
C52 C51 1.371 . S
C52 C62 1.386 . S
C52 H70 0.931 . S
C53 C51 1.365 . S
C53 C54 1.409 . S
C53 H71 0.929 . S
C54 C53 1.409 . S
C54 C55 1.380 . S
C54 H72 0.930 . S
C55 C54 1.380 . S
C55 C62 1.357 . S
C56 C47 1.511 . S
C56 C57 1.341 . S
C56 C58 1.371 . S
C57 C56 1.341 . S
C57 C61 1.394 . S
C57 H73 0.930 . S
C58 C56 1.371 . S
C58 C59 1.392 . S
C58 H74 0.931 . S
C59 C58 1.392 . S
C59 C60 1.331 . S
C59 H77 0.932 . S
C60 C59 1.331 . S
C60 C61 1.336 . S
C61 C57 1.394 . S
C61 C60 1.336 . S
C61 H76 0.929 . S
C62 C52 1.386 . S
C62 C55 1.357 . S
C62 H75 0.928 . S
H63 C39 0.931 . S
H64 C41 0.930 . S
H65 C43 0.929 . S
H66 C44 0.931 . S
H67 C46 0.930 . S
H68 C50 0.931 . S
H69 C48 0.931 . S
H70 C52 0.931 . S
H71 C53 0.929 . S
H72 C54 0.930 . S
H73 C57 0.930 . S
H74 C58 0.931 . S
H75 C62 0.928 . S
H76 C61 0.929 . S
H77 C59 0.932 . S
C78 C79 1.386 . S
C78 C80 1.397 . S
C78 H102 0.931 . S
C79 C78 1.386 . S
C79 C83 1.397 . S
C80 C78 1.397 . S
C80 C81 1.384 . S
C80 H103 0.930 . S
C81 C80 1.384 . S
C81 C82 1.377 . S
C81 C84 1.481 . S
C82 C81 1.377 . S
C82 C83 1.389 . S
C82 H104 0.929 . S
C83 C79 1.397 . S
C83 C82 1.389 . S
C83 H105 0.931 . S
C84 C81 1.481 . S
C84 C85 1.387 . S
C84 C89 1.390 . S
C85 C84 1.387 . S
C85 C86 1.401 . S
C85 H106 0.930 . S
C86 C85 1.401 . S
C86 C87 1.376 . S
C86 C95 1.511 . S
C87 C86 1.376 . S
C87 C88 1.392 . S
C87 H108 0.931 . S
C88 C87 1.392 . S
C88 C89 1.361 . S
C88 C90 1.500 . S
C89 C84 1.390 . S
C89 C88 1.361 . S
C89 H107 0.931 . S
C90 C88 1.500 . S
C90 C91 1.371 . S
C90 C92 1.365 . S
C91 C90 1.371 . S
C91 C101 1.386 . S
C91 H109 0.931 . S
C92 C90 1.365 . S
C92 C93 1.409 . S
C92 H110 0.929 . S
C93 C92 1.409 . S
C93 C94 1.380 . S
C93 H111 0.930 . S
C94 C93 1.380 . S
C94 C101 1.357 . S
C95 C86 1.511 . S
C95 C96 1.341 . S
C95 C97 1.371 . S
C96 C95 1.341 . S
C96 C100 1.394 . S
C96 H112 0.930 . S
C97 C95 1.371 . S
C97 C98 1.392 . S
C97 H113 0.931 . S
C98 C97 1.392 . S
C98 C99 1.331 . S
C98 H116 0.932 . S
C99 C98 1.331 . S
C99 C100 1.336 . S
C100 C96 1.394 . S
C100 C99 1.336 . S
C100 H115 0.929 . S
C101 C91 1.386 . S
C101 C94 1.357 . S
C101 H114 0.928 . S
H102 C78 0.931 . S
H103 C80 0.930 . S
H104 C82 0.929 . S
H105 C83 0.931 . S
H106 C85 0.930 . S
H107 C89 0.931 . S
H108 C87 0.931 . S
H109 C91 0.931 . S
H110 C92 0.929 . S
H111 C93 0.930 . S
H112 C96 0.930 . S
H113 C97 0.931 . S
H114 C101 0.928 . S
H115 C100 0.929 . S
H116 C98 0.932 . S
C117 C118 1.386 . S
C117 C119 1.397 . S
C117 H141 0.931 . S
C118 C117 1.386 . S
C118 C122 1.397 . S
C119 C117 1.397 . S
C119 C120 1.384 . S
C119 H142 0.930 . S
C120 C119 1.384 . S
C120 C121 1.377 . S
C120 C123 1.481 . S
C121 C120 1.377 . S
C121 C122 1.389 . S
C121 H143 0.929 . S
C122 C118 1.397 . S
C122 C121 1.389 . S
C122 H144 0.931 . S
C123 C120 1.481 . S
C123 C124 1.387 . S
C123 C128 1.390 . S
C124 C123 1.387 . S
C124 C125 1.401 . S
C124 H145 0.930 . S
C125 C124 1.401 . S
C125 C126 1.376 . S
C125 C134 1.511 . S
C126 C125 1.376 . S
C126 C127 1.392 . S
C126 H147 0.931 . S
C127 C126 1.392 . S
C127 C128 1.361 . S
C127 C129 1.500 . S
C128 C123 1.390 . S
C128 C127 1.361 . S
C128 H146 0.931 . S
C129 C127 1.500 . S
C129 C130 1.371 . S
C129 C131 1.365 . S
C130 C129 1.371 . S
C130 C140 1.386 . S
C130 H148 0.931 . S
C131 C129 1.365 . S
C131 C132 1.409 . S
C131 H149 0.929 . S
C132 C131 1.409 . S
C132 C133 1.380 . S
C132 H150 0.930 . S
C133 C132 1.380 . S
C133 C140 1.357 . S
C134 C125 1.511 . S
C134 C135 1.341 . S
C134 C136 1.371 . S
C135 C134 1.341 . S
C135 C139 1.394 . S
C135 H151 0.930 . S
C136 C134 1.371 . S
C136 C137 1.392 . S
C136 H152 0.931 . S
C137 C136 1.392 . S
C137 C138 1.331 . S
C137 H155 0.932 . S
C138 C137 1.331 . S
C138 C139 1.336 . S
C139 C135 1.394 . S
C139 C138 1.336 . S
C139 H154 0.929 . S
C140 C130 1.386 . S
C140 C133 1.357 . S
C140 H153 0.928 . S
H141 C117 0.931 . S
H142 C119 0.930 . S
H143 C121 0.929 . S
H144 C122 0.931 . S
H145 C124 0.930 . S
H146 C128 0.931 . S
H147 C126 0.931 . S
H148 C130 0.931 . S
H149 C131 0.929 . S
H150 C132 0.930 . S
H151 C135 0.930 . S
H152 C136 0.931 . S
H153 C140 0.928 . S
H154 C139 0.929 . S
H155 C137 0.932 . S
C156 C157 1.386 . S
C156 C158 1.397 . S
C156 H180 0.931 . S
C157 C156 1.386 . S
C157 C161 1.397 . S
C158 C156 1.397 . S
C158 C159 1.384 . S
C158 H181 0.930 . S
C159 C158 1.384 . S
C159 C160 1.377 . S
C159 C162 1.481 . S
C160 C159 1.377 . S
C160 C161 1.389 . S
C160 H182 0.929 . S
C161 C157 1.397 . S
C161 C160 1.389 . S
C161 H183 0.931 . S
C162 C159 1.481 . S
C162 C163 1.387 . S
C162 C167 1.390 . S
C163 C162 1.387 . S
C163 C164 1.401 . S
C163 H184 0.930 . S
C164 C163 1.401 . S
C164 C165 1.376 . S
C164 C173 1.511 . S
C165 C164 1.376 . S
C165 C166 1.392 . S
C165 H186 0.931 . S
C166 C165 1.392 . S
C166 C167 1.361 . S
C166 C168 1.500 . S
C167 C162 1.390 . S
C167 C166 1.361 . S
C167 H185 0.931 . S
C168 C166 1.500 . S
C168 C169 1.371 . S
C168 C170 1.365 . S
C169 C168 1.371 . S
C169 C179 1.386 . S
C169 H187 0.931 . S
C170 C168 1.365 . S
C170 C171 1.409 . S
C170 H188 0.929 . S
C171 C170 1.409 . S
C171 C172 1.380 . S
C171 H189 0.930 . S
C172 C171 1.380 . S
C172 C179 1.357 . S
C173 C164 1.511 . S
C173 C174 1.341 . S
C173 C175 1.371 . S
C174 C173 1.341 . S
C174 C178 1.394 . S
C174 H190 0.930 . S
C175 C173 1.371 . S
C175 C176 1.392 . S
C175 H191 0.931 . S
C176 C175 1.392 . S
C176 C177 1.331 . S
C176 H194 0.932 . S
C177 C176 1.331 . S
C177 C178 1.336 . S
C178 C174 1.394 . S
C178 C177 1.336 . S
C178 H193 0.929 . S
C179 C169 1.386 . S
C179 C172 1.357 . S
C179 H192 0.928 . S
H180 C156 0.931 . S
H181 C158 0.930 . S
H182 C160 0.929 . S
H183 C161 0.931 . S
H184 C163 0.930 . S
H185 C167 0.931 . S
H186 C165 0.931 . S
H187 C169 0.931 . S
H188 C170 0.929 . S
H189 C171 0.930 . S
H190 C174 0.930 . S
H191 C175 0.931 . S
H192 C179 0.928 . S
H193 C178 0.929 . S
H194 C176 0.932 . S
C195 C196 1.386 . S
C195 C197 1.397 . S
C195 H219 0.931 . S
C196 C195 1.386 . S
C196 C200 1.397 . S
C197 C195 1.397 . S
C197 C198 1.384 . S
C197 H220 0.930 . S
C198 C197 1.384 . S
C198 C199 1.377 . S
C198 C201 1.481 . S
C199 C198 1.377 . S
C199 C200 1.389 . S
C199 H221 0.929 . S
C200 C196 1.397 . S
C200 C199 1.389 . S
C200 H222 0.931 . S
C201 C198 1.481 . S
C201 C202 1.387 . S
C201 C206 1.390 . S
C202 C201 1.387 . S
C202 C203 1.401 . S
C202 H223 0.930 . S
C203 C202 1.401 . S
C203 C204 1.376 . S
C203 C212 1.511 . S
C204 C203 1.376 . S
C204 C205 1.392 . S
C204 H225 0.931 . S
C205 C204 1.392 . S
C205 C206 1.361 . S
C205 C207 1.500 . S
C206 C201 1.390 . S
C206 C205 1.361 . S
C206 H224 0.931 . S
C207 C205 1.500 . S
C207 C208 1.371 . S
C207 C209 1.365 . S
C208 C207 1.371 . S
C208 C218 1.386 . S
C208 H226 0.931 . S
C209 C207 1.365 . S
C209 C210 1.409 . S
C209 H227 0.929 . S
C210 C209 1.409 . S
C210 C211 1.380 . S
C210 H228 0.930 . S
C211 C210 1.380 . S
C211 C218 1.357 . S
C212 C203 1.511 . S
C212 C213 1.341 . S
C212 C214 1.371 . S
C213 C212 1.341 . S
C213 C217 1.394 . S
C213 H229 0.930 . S
C214 C212 1.371 . S
C214 C215 1.392 . S
C214 H230 0.931 . S
C215 C214 1.392 . S
C215 C216 1.331 . S
C215 H233 0.932 . S
C216 C215 1.331 . S
C216 C217 1.336 . S
C217 C213 1.394 . S
C217 C216 1.336 . S
C217 H232 0.929 . S
C218 C208 1.386 . S
C218 C211 1.357 . S
C218 H231 0.928 . S
H219 C195 0.931 . S
H220 C197 0.930 . S
H221 C199 0.929 . S
H222 C200 0.931 . S
H223 C202 0.930 . S
H224 C206 0.931 . S
H225 C204 0.931 . S
H226 C208 0.931 . S
H227 C209 0.929 . S
H228 C210 0.930 . S
H229 C213 0.930 . S
H230 C214 0.931 . S
H231 C218 0.928 . S
H232 C217 0.929 . S
H233 C215 0.932 . S
C234 C235 1.386 . S
C234 C236 1.397 . S
C234 H258 0.931 . S
C235 C234 1.386 . S
C235 C239 1.397 . S
C236 C234 1.397 . S
C236 C237 1.384 . S
C236 H259 0.930 . S
C237 C236 1.384 . S
C237 C238 1.377 . S
C237 C240 1.481 . S
C238 C237 1.377 . S
C238 C239 1.389 . S
C238 H260 0.929 . S
C239 C235 1.397 . S
C239 C238 1.389 . S
C239 H261 0.931 1_554 S
C240 C237 1.481 . S
C240 C241 1.387 . S
C240 C245 1.390 . S
C241 C240 1.387 . S
C241 C242 1.401 . S
C241 H262 0.930 . S
C242 C241 1.401 . S
C242 C243 1.376 . S
C242 C251 1.511 . S
C243 C242 1.376 . S
C243 C244 1.392 . S
C243 H264 0.931 . S
C244 C243 1.392 . S
C244 C245 1.361 . S
C244 C246 1.500 . S
C245 C240 1.390 . S
C245 C244 1.361 . S
C245 H263 0.931 . S
C246 C244 1.500 . S
C246 C247 1.371 . S
C246 C248 1.365 . S
C247 C246 1.371 . S
C247 C257 1.386 . S
C247 H265 0.931 . S
C248 C246 1.365 . S
C248 C249 1.409 . S
C248 H266 0.929 . S
C249 C248 1.409 . S
C249 C250 1.380 . S
C249 H267 0.930 1_554 S
C250 C249 1.380 . S
C250 C257 1.357 . S
C251 C242 1.511 . S
C251 C252 1.341 . S
C251 C253 1.371 . S
C252 C251 1.341 . S
C252 C256 1.394 . S
C252 H268 0.930 . S
C253 C251 1.371 . S
C253 C254 1.392 . S
C253 H269 0.931 . S
C254 C253 1.392 . S
C254 C255 1.331 . S
C254 H272 0.932 . S
C255 C254 1.331 . S
C255 C256 1.336 . S
C256 C252 1.394 . S
C256 C255 1.336 . S
C256 H271 0.929 . S
C257 C247 1.386 . S
C257 C250 1.357 . S
C257 H270 0.928 . S
H258 C234 0.931 . S
H259 C236 0.930 . S
H260 C238 0.929 . S
H261 C239 0.931 1_556 S
H262 C241 0.930 . S
H263 C245 0.931 . S
H264 C243 0.931 . S
H265 C247 0.931 . S
H266 C248 0.929 . S
H267 C249 0.930 1_556 S
H268 C252 0.930 . S
H269 C253 0.931 . S
H270 C257 0.928 . S
H271 C256 0.929 . S
H272 C254 0.932 . S
C273 C274 1.386 . S
C273 C275 1.397 . S
C273 H297 0.931 . S
C274 C273 1.386 . S
C274 C278 1.397 . S
C275 C273 1.397 . S
C275 C276 1.384 . S
C275 H298 0.930 . S
C276 C275 1.384 . S
C276 C277 1.377 . S
C276 C279 1.481 . S
C277 C276 1.377 . S
C277 C278 1.389 . S
C277 H299 0.929 . S
C278 C274 1.397 . S
C278 C277 1.389 . S
C278 H300 0.931 . S
C279 C276 1.481 . S
C279 C280 1.387 . S
C279 C284 1.390 . S
C280 C279 1.387 . S
C280 C281 1.401 . S
C280 H301 0.930 . S
C281 C280 1.401 . S
C281 C282 1.376 . S
C281 C290 1.511 . S
C282 C281 1.376 . S
C282 C283 1.392 . S
C282 H303 0.931 . S
C283 C282 1.392 . S
C283 C284 1.361 . S
C283 C285 1.500 . S
C284 C279 1.390 . S
C284 C283 1.361 . S
C284 H302 0.931 . S
C285 C283 1.500 . S
C285 C286 1.371 . S
C285 C287 1.365 . S
C286 C285 1.371 . S
C286 C296 1.386 . S
C286 H304 0.931 . S
C287 C285 1.365 . S
C287 C288 1.409 . S
C287 H305 0.929 . S
C288 C287 1.409 . S
C288 C289 1.380 . S
C288 H306 0.930 . S
C289 C288 1.380 . S
C289 C296 1.357 . S
C290 C281 1.511 . S
C290 C291 1.341 . S
C290 C292 1.371 . S
C291 C290 1.341 . S
C291 C295 1.394 . S
C291 H307 0.930 . S
C292 C290 1.371 . S
C292 C293 1.392 . S
C292 H308 0.931 . S
C293 C292 1.392 . S
C293 C294 1.331 . S
C293 H311 0.932 . S
C294 C293 1.331 . S
C294 C295 1.336 . S
C295 C291 1.394 . S
C295 C294 1.336 . S
C295 H310 0.929 . S
C296 C286 1.386 . S
C296 C289 1.357 . S
C296 H309 0.928 . S
H297 C273 0.931 . S
H298 C275 0.930 . S
H299 C277 0.929 . S
H300 C278 0.931 . S
H301 C280 0.930 . S
H302 C284 0.931 . S
H303 C282 0.931 . S
H304 C286 0.931 . S
H305 C287 0.929 . S
H306 C288 0.930 . S
H307 C291 0.930 . S
H308 C292 0.931 . S
H309 C296 0.928 . S
H310 C295 0.929 . S
H311 C293 0.932 . S
C312 O328 1.251 . S
C312 O330 1.254 1_545 S
N313 C314 1.333 . S
N313 C318 1.307 . S
N313 Zn319 2.020 . S
C314 N313 1.333 . S
C314 C315 1.379 . S
C314 H332 0.952 . S
C315 C314 1.379 . S
C315 C316 1.390 . S
C315 H342 0.949 . S
C316 C315 1.390 . S
C316 C317 1.357 . S
C317 C316 1.357 . S
C317 C318 1.370 . S
C317 H343 0.950 . S
C318 N313 1.307 . S
C318 C317 1.370 . S
C318 H336 0.948 1_455 S
Zn319 N313 2.020 . S
Zn319 O328 2.039 . S
Zn319 O334 2.034 . S
Zn319 O338 2.025 1_455 S
Zn319 O340 2.024 1_455 S
C320 O339 1.246 1_545 S
C320 O340 1.249 . S
N321 C322 1.307 . S
N321 C323 1.333 . S
N321 Zn327 2.020 . S
C322 N321 1.307 . S
C322 C326 1.370 . S
C322 H333 0.948 1_655 S
C323 N321 1.333 . S
C323 C324 1.379 . S
C323 H331 0.952 . S
C324 C323 1.379 . S
C324 C325 1.390 . S
C324 H344 0.949 . S
C325 C324 1.390 . S
C325 C326 1.357 . S
C326 C322 1.370 . S
C326 C325 1.357 . S
C326 H345 0.950 1_655 S
Zn327 N321 2.020 . S
Zn327 O330 2.025 1_655 S
Zn327 O335 2.024 1_655 S
Zn327 O337 2.039 . S
Zn327 O339 2.034 . S
O328 C312 1.251 . S
O328 Zn319 2.039 . S
C329 O334 1.246 1_565 S
C329 O335 1.249 . S
O330 C312 1.254 1_565 S
O330 Zn327 2.025 1_455 S
H331 C323 0.952 . S
H332 C314 0.952 . S
H333 C322 0.948 1_455 S
O334 Zn319 2.034 . S
O334 C329 1.246 1_545 S
O335 Zn327 2.024 1_455 S
O335 C329 1.249 . S
H336 C318 0.948 1_655 S
O337 Zn327 2.039 . S
O337 C341 1.251 . S
O338 Zn319 2.025 1_655 S
O338 C341 1.254 1_545 S
O339 C320 1.246 1_565 S
O339 Zn327 2.034 . S
O340 Zn319 2.024 1_655 S
O340 C320 1.249 . S
C341 O337 1.251 . S
C341 O338 1.254 1_565 S
H342 C315 0.949 . S
H343 C317 0.950 . S
H344 C324 0.949 . S
H345 C326 0.950 1_455 S
C346 O362 1.251 1_565 S
C346 O364 1.254 . S
N347 C348 1.333 . S
N347 C352 1.307 . S
N347 Zn353 2.020 . S
C348 N347 1.333 . S
C348 C349 1.379 . S
C348 H366 0.952 . S
C349 C348 1.379 . S
C349 C350 1.390 . S
C349 H376 0.949 . S
C350 C349 1.390 . S
C350 C351 1.357 . S
C351 C350 1.357 . S
C351 C352 1.370 . S
C351 H377 0.950 . S
C352 N347 1.307 . S
C352 C351 1.370 . S
C352 H370 0.948 . S
Zn353 N347 2.020 . S
Zn353 O362 2.039 . S
Zn353 O368 2.034 1_556 S
Zn353 O372 2.025 1_556 S
Zn353 O374 2.024 . S
C354 O373 1.246 . S
C354 O374 1.249 1_565 S
N355 C356 1.307 . S
N355 C357 1.333 . S
N355 Zn361 2.020 . S
C356 N355 1.307 . S
C356 C360 1.370 . S
C356 H367 0.948 . S
C357 N355 1.333 . S
C357 C358 1.379 . S
C357 H365 0.952 . S
C358 C357 1.379 . S
C358 C359 1.390 . S
C358 H378 0.949 . S
C359 C358 1.390 . S
C359 C360 1.357 . S
C360 C356 1.370 . S
C360 C359 1.357 . S
C360 H379 0.950 . S
Zn361 N355 2.020 . S
Zn361 O364 2.025 1_554 S
Zn361 O369 2.024 . S
Zn361 O371 2.039 . S
Zn361 O373 2.034 1_554 S
O362 C346 1.251 1_545 S
O362 Zn353 2.039 . S
C363 O368 1.246 . S
C363 O369 1.249 1_545 S
O364 C346 1.254 . S
O364 Zn361 2.025 1_556 S
H365 C357 0.952 . S
H366 C348 0.952 . S
H367 C356 0.948 . S
O368 Zn353 2.034 1_554 S
O368 C363 1.246 . S
O369 Zn361 2.024 . S
O369 C363 1.249 1_565 S
H370 C352 0.948 . S
O371 Zn361 2.039 . S
O371 C375 1.251 1_565 S
O372 Zn353 2.025 1_554 S
O372 C375 1.254 . S
O373 C354 1.246 . S
O373 Zn361 2.034 1_556 S
O374 Zn353 2.024 . S
O374 C354 1.249 1_545 S
C375 O371 1.251 1_545 S
C375 O372 1.254 . S
H376 C349 0.949 . S
H377 C351 0.950 . S
H378 C358 0.949 . S
H379 C360 0.950 . S
C380 O396 1.251 . S
C380 O398 1.254 . S
N381 C382 1.333 . S
N381 C386 1.307 . S
N381 Zn387 2.020 . S
C382 N381 1.333 . S
C382 C383 1.379 . S
C382 H400 0.952 . S
C383 C382 1.379 . S
C383 C384 1.390 . S
C383 H410 0.949 . S
C384 C383 1.390 . S
C384 C385 1.357 . S
C385 C384 1.357 . S
C385 C386 1.370 . S
C385 H411 0.950 . S
C386 N381 1.307 . S
C386 C385 1.370 . S
C386 H404 0.948 . S
Zn387 N381 2.020 . S
Zn387 O396 2.039 . S
Zn387 O402 2.034 . S
Zn387 O406 2.025 . S
Zn387 O408 2.024 . S
C388 O407 1.246 . S
C388 O408 1.249 . S
N389 C390 1.307 . S
N389 C391 1.333 . S
N389 Zn395 2.020 . S
C390 N389 1.307 . S
C390 C394 1.370 . S
C390 H401 0.948 . S
C391 N389 1.333 . S
C391 C392 1.379 . S
C391 H399 0.952 . S
C392 C391 1.379 . S
C392 C393 1.390 . S
C392 H412 0.949 . S
C393 C392 1.390 . S
C393 C394 1.357 . S
C394 C390 1.370 . S
C394 C393 1.357 . S
C394 H413 0.950 . S
Zn395 N389 2.020 . S
Zn395 O398 2.025 . S
Zn395 O403 2.024 . S
Zn395 O405 2.039 . S
Zn395 O407 2.034 . S
O396 C380 1.251 . S
O396 Zn387 2.039 . S
C397 O402 1.246 . S
C397 O403 1.249 . S
O398 C380 1.254 . S
O398 Zn395 2.025 . S
H399 C391 0.952 . S
H400 C382 0.952 . S
H401 C390 0.948 . S
O402 Zn387 2.034 . S
O402 C397 1.246 . S
O403 Zn395 2.024 . S
O403 C397 1.249 . S
H404 C386 0.948 . S
O405 Zn395 2.039 . S
O405 C409 1.251 . S
O406 Zn387 2.025 . S
O406 C409 1.254 . S
O407 C388 1.246 . S
O407 Zn395 2.034 . S
O408 Zn387 2.024 . S
O408 C388 1.249 . S
C409 O405 1.251 . S
C409 O406 1.254 . S
H410 C383 0.949 . S
H411 C385 0.950 . S
H412 C392 0.949 . S
H413 C394 0.950 . S
C414 O430 1.251 1_556 S
C414 O432 1.254 . S
N415 C416 1.333 . S
N415 C420 1.307 . S
N415 Zn421 2.020 . S
C416 N415 1.333 . S
C416 C417 1.379 . S
C416 H434 0.952 . S
C417 C416 1.379 . S
C417 C418 1.390 . S
C417 H444 0.949 . S
C418 C417 1.390 . S
C418 C419 1.357 . S
C419 C418 1.357 . S
C419 C420 1.370 . S
C419 H445 0.950 . S
C420 N415 1.307 . S
C420 C419 1.370 . S
C420 H438 0.948 . S
Zn421 N415 2.020 . S
Zn421 O430 2.039 . S
Zn421 O436 2.034 1_655 S
Zn421 O440 2.025 1_655 S
Zn421 O442 2.024 . S
C422 O441 1.246 . S
C422 O442 1.249 1_556 S
N423 C424 1.307 . S
N423 C425 1.333 . S
N423 Zn429 2.020 . S
C424 N423 1.307 . S
C424 C428 1.370 . S
C424 H435 0.948 . S
C425 N423 1.333 . S
C425 C426 1.379 . S
C425 H433 0.952 . S
C426 C425 1.379 . S
C426 C427 1.390 . S
C426 H446 0.949 . S
C427 C426 1.390 . S
C427 C428 1.357 . S
C428 C424 1.370 . S
C428 C427 1.357 . S
C428 H447 0.950 . S
Zn429 N423 2.020 . S
Zn429 O432 2.025 1_455 S
Zn429 O437 2.024 . S
Zn429 O439 2.039 . S
Zn429 O441 2.034 1_455 S
O430 C414 1.251 1_554 S
O430 Zn421 2.039 . S
C431 O436 1.246 . S
C431 O437 1.249 1_554 S
O432 C414 1.254 . S
O432 Zn429 2.025 1_655 S
H433 C425 0.952 . S
H434 C416 0.952 . S
H435 C424 0.948 . S
O436 Zn421 2.034 1_455 S
O436 C431 1.246 . S
O437 Zn429 2.024 . S
O437 C431 1.249 1_556 S
H438 C420 0.948 . S
O439 Zn429 2.039 . S
O439 C443 1.251 1_556 S
O440 Zn421 2.025 1_455 S
O440 C443 1.254 . S
O441 C422 1.246 . S
O441 Zn429 2.034 1_655 S
O442 Zn421 2.024 . S
O442 C422 1.249 1_554 S
C443 O439 1.251 1_554 S
C443 O440 1.254 . S
H444 C417 0.949 . S
H445 C419 0.950 . S
H446 C426 0.949 . S
H447 C428 0.950 . S
C448 C449 1.369 . S
C448 C450 1.419 . S
C448 H452 0.930 . S
C449 C448 1.369 . S
C449 C458 1.429 . S
C450 C448 1.419 . S
C450 C451 1.363 . S
C450 H453 0.929 . S
C451 C450 1.363 . S
C451 C457 1.428 . S
H452 C448 0.930 . S
H453 C450 0.929 . S
S454 N455 1.613 . S
S454 N456 1.610 . S
N455 S454 1.613 . S
N455 C458 1.350 1_655 S
N456 S454 1.610 . S
N456 C457 1.351 1_655 S
C457 C451 1.428 . S
C457 N456 1.351 1_455 S
C457 C458 1.434 . S
C458 C449 1.429 . S
C458 N455 1.350 1_455 S
C458 C457 1.434 . S
C459 C460 1.369 . S
C459 C461 1.419 . S
C459 H463 0.930 . S
C460 C459 1.369 . S
C460 C469 1.429 . S
C461 C459 1.419 . S
C461 C462 1.363 . S
C461 H464 0.929 . S
C462 C461 1.363 . S
C462 C468 1.428 . S
H463 C459 0.930 . S
H464 C461 0.929 . S
S465 N466 1.613 . S
S465 N467 1.610 . S
N466 S465 1.613 . S
N466 C469 1.350 1_545 S
N467 S465 1.610 . S
N467 C468 1.351 1_545 S
C468 C462 1.428 . S
C468 N467 1.351 1_565 S
C468 C469 1.434 . S
C469 C460 1.429 . S
C469 N466 1.350 1_565 S
C469 C468 1.434 . S
C470 C471 1.369 . S
C470 C472 1.419 . S
C470 H474 0.930 . S
C471 C470 1.369 . S
C471 C480 1.429 . S
C472 C470 1.419 . S
C472 C473 1.363 . S
C472 H475 0.929 . S
C473 C472 1.363 . S
C473 C479 1.428 . S
H474 C470 0.930 . S
H475 C472 0.929 . S
S476 N477 1.613 . S
S476 N478 1.610 . S
N477 S476 1.613 . S
N477 C480 1.350 . S
N478 S476 1.610 . S
N478 C479 1.351 . S
C479 C473 1.428 . S
C479 N478 1.351 . S
C479 C480 1.434 . S
C480 C471 1.429 . S
C480 N477 1.350 . S
C480 C479 1.434 . S
C481 C482 1.369 . S
C481 C483 1.419 . S
C481 H485 0.930 . S
C482 C481 1.369 . S
C482 C491 1.429 . S
C483 C481 1.419 . S
C483 C484 1.363 . S
C483 H486 0.929 . S
C484 C483 1.363 . S
C484 C490 1.428 . S
H485 C481 0.930 . S
H486 C483 0.929 . S
S487 N488 1.613 1_455 S
S487 N489 1.610 1_455 S
N488 S487 1.613 1_655 S
N488 C491 1.350 . S
N489 S487 1.610 1_655 S
N489 C490 1.351 . S
C490 C484 1.428 . S
C490 N489 1.351 . S
C490 C491 1.434 . S
C491 C482 1.429 . S
C491 N488 1.350 . S
C491 C490 1.434 . S
C492 C493 1.369 . S
C492 C494 1.419 . S
C492 H496 0.930 . S
C493 C492 1.369 . S
C493 C502 1.429 . S
C494 C492 1.419 . S
C494 C495 1.363 . S
C494 H497 0.929 1_554 S
C495 C494 1.363 . S
C495 C501 1.428 . S
H496 C492 0.930 . S
H497 C494 0.929 1_556 S
S498 N499 1.613 1_565 S
S498 N500 1.610 1_565 S
N499 S498 1.613 1_545 S
N499 C502 1.350 . S
N500 S498 1.610 1_545 S
N500 C501 1.351 . S
C501 C495 1.428 . S
C501 N500 1.351 . S
C501 C502 1.434 . S
C502 C493 1.429 . S
C502 N499 1.350 . S
C502 C501 1.434 . S
C503 C504 1.369 . S
C503 C505 1.419 . S
C503 H507 0.930 . S
C504 C503 1.369 . S
C504 C513 1.429 . S
C505 C503 1.419 . S
C505 C506 1.363 . S
C505 H508 0.929 . S
C506 C505 1.363 . S
C506 C512 1.428 . S
H507 C503 0.930 . S
H508 C505 0.929 . S
S509 N510 1.613 . S
S509 N511 1.610 . S
N510 S509 1.613 . S
N510 C513 1.350 . S
N511 S509 1.610 . S
N511 C512 1.351 . S
C512 C506 1.428 . S
C512 N511 1.351 . S
C512 C513 1.434 . S
C513 C504 1.429 . S
C513 N510 1.350 . S
C513 C512 1.434 . S
C514 C515 1.369 . S
C514 C516 1.419 . S
C514 H518 0.930 . S
C515 C514 1.369 . S
C515 C524 1.429 . S
C516 C514 1.419 . S
C516 C517 1.363 . S
C516 H519 0.929 . S
C517 C516 1.363 . S
C517 C523 1.428 . S
H518 C514 0.930 . S
H519 C516 0.929 . S
S520 N521 1.613 . S
S520 N522 1.610 . S
N521 S520 1.613 . S
N521 C524 1.350 1_554 S
N522 S520 1.610 . S
N522 C523 1.351 1_554 S
C523 C517 1.428 . S
C523 N522 1.351 1_556 S
C523 C524 1.434 . S
C524 C515 1.429 . S
C524 N521 1.350 1_556 S
C524 C523 1.434 . S
C525 C526 1.369 . S
C525 C527 1.419 . S
C525 H529 0.930 . S
C526 C525 1.369 . S
C526 C535 1.429 . S
C527 C525 1.419 . S
C527 C528 1.363 . S
C527 H530 0.929 . S
C528 C527 1.363 . S
C528 C534 1.428 . S
H529 C525 0.930 . S
H530 C527 0.929 . S
S531 N532 1.613 . S
S531 N533 1.610 . S
N532 S531 1.613 . S
N532 C535 1.350 . S
N533 S531 1.610 . S
N533 C534 1.351 . S
C534 C528 1.428 . S
C534 N533 1.351 . S
C534 C535 1.434 . S
C535 C526 1.429 . S
C535 N532 1.350 . S
C535 C534 1.434 . S
C536 C537 1.369 . S
C536 C538 1.419 . S
C536 H540 0.930 1_455 S
C537 C536 1.369 . S
C537 C546 1.429 . S
C538 C536 1.419 . S
C538 C539 1.363 . S
C538 H541 0.929 1_455 S
C539 C538 1.363 . S
C539 C545 1.428 . S
H540 C536 0.930 1_655 S
H541 C538 0.929 1_655 S
S542 N543 1.613 . S
S542 N544 1.610 . S
N543 S542 1.613 . S
N543 C546 1.350 . S
N544 S542 1.610 . S
N544 C545 1.351 . S
C545 C539 1.428 . S
C545 N544 1.351 . S
C545 C546 1.434 . S
C546 C537 1.429 . S
C546 N543 1.350 . S
C546 C545 1.434 . S
C547 C548 1.369 . S
C547 C549 1.419 . S
C547 H551 0.930 1_556 S
C548 C547 1.369 . S
C548 C557 1.429 . S
C549 C547 1.419 . S
C549 C550 1.363 . S
C549 H552 0.929 . S
C550 C549 1.363 . S
C550 C556 1.428 . S
H551 C547 0.930 1_554 S
H552 C549 0.929 . S
S553 N554 1.613 . S
S553 N555 1.610 . S
N554 S553 1.613 . S
N554 C557 1.350 . S
N555 S553 1.610 . S
N555 C556 1.351 . S
C556 C550 1.428 . S
C556 N555 1.351 . S
C556 C557 1.434 . S
C557 C548 1.429 . S
C557 N554 1.350 . S
C557 C556 1.434 . S
C558 C559 1.369 . S
C558 C560 1.419 . S
C558 H562 0.930 . S
C559 C558 1.369 . S
C559 C568 1.429 . S
C560 C558 1.419 . S
C560 C561 1.363 . S
C560 H563 0.929 . S
C561 C560 1.363 . S
C561 C567 1.428 . S
H562 C558 0.930 . S
H563 C560 0.929 . S
S564 N565 1.613 . S
S564 N566 1.610 . S
N565 S564 1.613 . S
N565 C568 1.350 . S
N566 S564 1.610 . S
N566 C567 1.351 . S
C567 C561 1.428 . S
C567 N566 1.351 . S
C567 C568 1.434 . S
C568 C559 1.429 . S
C568 N565 1.350 . S
C568 C567 1.434 . S
C569 C570 1.369 . S
C569 C571 1.419 . S
C569 H573 0.930 . S
C570 C569 1.369 . S
C570 C579 1.429 . S
C571 C569 1.419 . S
C571 C572 1.363 . S
C571 H574 0.929 . S
C572 C571 1.363 . S
C572 C578 1.428 . S
H573 C569 0.930 . S
H574 C571 0.929 . S
S575 N576 1.613 . S
S575 N577 1.610 . S
N576 S575 1.613 . S
N576 C579 1.350 . S
N577 S575 1.610 . S
N577 C578 1.351 . S
C578 C572 1.428 . S
C578 N577 1.351 . S
C578 C579 1.434 . S
C579 C570 1.429 . S
C579 N576 1.350 . S
C579 C578 1.434 . S
C580 C581 1.369 . S
C580 C582 1.419 . S
C580 H584 0.930 . S
C581 C580 1.369 . S
C581 C590 1.429 . S
C582 C580 1.419 . S
C582 C583 1.363 . S
C582 H585 0.929 . S
C583 C582 1.363 . S
C583 C589 1.428 . S
H584 C580 0.930 . S
H585 C582 0.929 . S
S586 N587 1.613 . S
S586 N588 1.610 . S
N587 S586 1.613 . S
N587 C590 1.350 1_545 S
N588 S586 1.610 . S
N588 C589 1.351 1_545 S
C589 C583 1.428 . S
C589 N588 1.351 1_565 S
C589 C590 1.434 . S
C590 C581 1.429 . S
C590 N587 1.350 1_565 S
C590 C589 1.434 . S
C591 C592 1.369 . S
C591 C593 1.419 . S
C591 H595 0.930 . S
C592 C591 1.369 . S
C592 C601 1.429 . S
C593 C591 1.419 . S
C593 C594 1.363 . S
C593 H596 0.929 . S
C594 C593 1.363 . S
C594 C600 1.428 . S
H595 C591 0.930 . S
H596 C593 0.929 . S
S597 N598 1.613 . S
S597 N599 1.610 . S
N598 S597 1.613 . S
N598 C601 1.350 . S
N599 S597 1.610 . S
N599 C600 1.351 . S
C600 C594 1.428 . S
C600 N599 1.351 . S
C600 C601 1.434 . S
C601 C592 1.429 . S
C601 N598 1.350 . S
C601 C600 1.434 . S
C602 C603 1.369 . S
C602 C604 1.419 . S
C602 H606 0.930 . S
C603 C602 1.369 . S
C603 C612 1.429 . S
C604 C602 1.419 . S
C604 C605 1.363 . S
C604 H607 0.929 . S
C605 C604 1.363 . S
C605 C611 1.428 . S
H606 C602 0.930 . S
H607 C604 0.929 . S
S608 N609 1.613 . S
S608 N610 1.610 . S
N609 S608 1.613 . S
N609 C612 1.350 . S
N610 S608 1.610 . S
N610 C611 1.351 . S
C611 C605 1.428 . S
C611 N610 1.351 . S
C611 C612 1.434 . S
C612 C603 1.429 . S
C612 N609 1.350 . S
C612 C611 1.434 . S
C613 C614 1.369 . S
C613 C615 1.419 . S
C613 H617 0.930 . S
C614 C613 1.369 . S
C614 C623 1.429 . S
C615 C613 1.419 . S
C615 C616 1.363 . S
C615 H618 0.929 . S
C616 C615 1.363 . S
C616 C622 1.428 . S
H617 C613 0.930 . S
H618 C615 0.929 . S
S619 N620 1.613 1_655 S
S619 N621 1.610 1_655 S
N620 S619 1.613 1_455 S
N620 C623 1.350 . S
N621 S619 1.610 1_455 S
N621 C622 1.351 . S
C622 C616 1.428 . S
C622 N621 1.351 . S
C622 C623 1.434 . S
C623 C614 1.429 . S
C623 N620 1.350 . S
C623 C622 1.434 . S
C624 C625 1.369 . S
C624 C626 1.419 . S
C624 H628 0.930 . S
C625 C624 1.369 . S
C625 C634 1.429 . S
C626 C624 1.419 . S
C626 C627 1.363 . S
C626 H629 0.929 1_556 S
C627 C626 1.363 . S
C627 C633 1.428 . S
H628 C624 0.930 . S
H629 C626 0.929 1_554 S
S630 N631 1.613 . S
S630 N632 1.610 . S
N631 S630 1.613 . S
N631 C634 1.350 . S
N632 S630 1.610 . S
N632 C633 1.351 . S
C633 C627 1.428 . S
C633 N632 1.351 . S
C633 C634 1.434 . S
C634 C625 1.429 . S
C634 N631 1.350 . S
C634 C633 1.434 . S
C635 C636 1.369 . S
C635 C637 1.419 . S
C635 H639 0.930 . S
C636 C635 1.369 . S
C636 C645 1.429 . S
C637 C635 1.419 . S
C637 C638 1.363 . S
C637 H640 0.929 . S
C638 C637 1.363 . S
C638 C644 1.428 . S
H639 C635 0.930 . S
H640 C637 0.929 . S
S641 N642 1.613 . S
S641 N643 1.610 . S
N642 S641 1.613 . S
N642 C645 1.350 . S
N643 S641 1.610 . S
N643 C644 1.351 . S
C644 C638 1.428 . S
C644 N643 1.351 . S
C644 C645 1.434 . S
C645 C636 1.429 . S
C645 N642 1.350 . S
C645 C644 1.434 . S
C646 C647 1.369 . S
C646 C648 1.419 . S
C646 H650 0.930 . S
C647 C646 1.369 . S
C647 C656 1.429 . S
C648 C646 1.419 . S
C648 C649 1.363 . S
C648 H651 0.929 . S
C649 C648 1.363 . S
C649 C655 1.428 . S
H650 C646 0.930 . S
H651 C648 0.929 . S
S652 N653 1.613 . S
S652 N654 1.610 . S
N653 S652 1.613 . S
N653 C656 1.350 . S
N654 S652 1.610 . S
N654 C655 1.351 . S
C655 C649 1.428 . S
C655 N654 1.351 . S
C655 C656 1.434 . S
C656 C647 1.429 . S
C656 N653 1.350 . S
C656 C655 1.434 . S
C657 C658 1.369 . S
C657 C659 1.419 . S
C657 H661 0.930 . S
C658 C657 1.369 . S
C658 C667 1.429 . S
C659 C657 1.419 . S
C659 C660 1.363 . S
C659 H662 0.929 . S
C660 C659 1.363 . S
C660 C666 1.428 . S
H661 C657 0.930 . S
H662 C659 0.929 . S
S663 N664 1.613 . S
S663 N665 1.610 . S
N664 S663 1.613 . S
N664 C667 1.350 . S
N665 S663 1.610 . S
N665 C666 1.351 . S
C666 C660 1.428 . S
C666 N665 1.351 . S
C666 C667 1.434 . S
C667 C658 1.429 . S
C667 N664 1.350 . S
C667 C666 1.434 . S
C668 C669 1.369 . S
C668 C670 1.419 . S
C668 H672 0.930 . S
C669 C668 1.369 . S
C669 C678 1.429 . S
C670 C668 1.419 . S
C670 C671 1.363 . S
C670 H673 0.929 . S
C671 C670 1.363 . S
C671 C677 1.428 . S
H672 C668 0.930 . S
H673 C670 0.929 . S
S674 N675 1.613 . S
S674 N676 1.610 . S
N675 S674 1.613 . S
N675 C678 1.350 1_554 S
N676 S674 1.610 . S
N676 C677 1.351 1_554 S
C677 C671 1.428 . S
C677 N676 1.351 1_556 S
C677 C678 1.434 . S
C678 C669 1.429 . S
C678 N675 1.350 1_556 S
C678 C677 1.434 . S
C679 C680 1.369 . S
C679 C681 1.419 . S
C679 H683 0.930 . S
C680 C679 1.369 . S
C680 C689 1.429 . S
C681 C679 1.419 . S
C681 C682 1.363 . S
C681 H684 0.929 . S
C682 C681 1.363 . S
C682 C688 1.428 . S
H683 C679 0.930 . S
H684 C681 0.929 . S
S685 N686 1.613 . S
S685 N687 1.610 . S
N686 S685 1.613 . S
N686 C689 1.350 . S
N687 S685 1.610 . S
N687 C688 1.351 . S
C688 C682 1.428 . S
C688 N687 1.351 . S
C688 C689 1.434 . S
C689 C680 1.429 . S
C689 N686 1.350 . S
C689 C688 1.434 . S
C690 C691 1.369 . S
C690 C692 1.419 . S
C690 H694 0.930 . S
C691 C690 1.369 . S
C691 C700 1.429 . S
C692 C690 1.419 . S
C692 C693 1.363 . S
C692 H695 0.929 . S
C693 C692 1.363 . S
C693 C699 1.428 . S
H694 C690 0.930 . S
H695 C692 0.929 . S
S696 N697 1.613 1_655 S
S696 N698 1.610 . S
N697 S696 1.613 1_455 S
N697 C700 1.350 . S
N698 S696 1.610 . S
N698 C699 1.351 1_655 S
C699 C693 1.428 . S
C699 N698 1.351 1_455 S
C699 C700 1.434 . S
C700 C691 1.429 . S
C700 N697 1.350 . S
C700 C699 1.434 . S
C701 C702 1.369 . S
C701 C703 1.419 . S
C701 H705 0.930 . S
C702 C701 1.369 . S
C702 C711 1.429 . S
C703 C701 1.419 . S
C703 C704 1.363 . S
C703 H706 0.929 . S
C704 C703 1.363 . S
C704 C710 1.428 . S
H705 C701 0.930 . S
H706 C703 0.929 . S
S707 N708 1.613 . S
S707 N709 1.610 . S
N708 S707 1.613 . S
N708 C711 1.350 . S
N709 S707 1.610 . S
N709 C710 1.351 . S
C710 C704 1.428 . S
C710 N709 1.351 . S
C710 C711 1.434 . S
C711 C702 1.429 . S
C711 N708 1.350 . S
C711 C710 1.434 . S
C449 C1 2.344 . S
C451 C312 2.361 . S
C460 C40 2.297 . S
C462 C354 2.325 . S
C473 C384 1.122 . S
C471 C99 1.106 . S
C482 C118 1.164 . S
C484 C418 1.168 . S
C495 C375 1.900 . S
C493 C16 1.871 . S
C506 C329 1.889 . S
C504 C60 1.857 . S
C517 C422 1.455 . S
C515 C79 1.422 . S
C528 C388 1.485 . S
C526 C138 1.425 . S
C537 C21 2.227 . S
C539 C443 2.244 . S
C550 C350 1.275 . S
C548 C94 1.242 . S
C559 C133 1.230 . S
C561 C325 1.260 . S
C570 C55 2.207 . S
C572 C409 2.226 . S
C583 C341 2.365 . S
C581 C157 2.341 . S
C592 C196 2.300 . S
C594 C363 2.325 . S
C603 C255 1.103 . S
C605 C393 1.110 . S
C614 C289 1.167 . S
C616 C427 1.165 . S
C625 C172 1.876 . S
C627 C346 1.899 . S
C638 C320 1.890 . S
C636 C216 1.875 . S
C649 C431 1.457 . S
C647 C235 1.416 . S
C660 C397 1.482 . S
C658 C294 1.431 . S
C669 C177 2.218 . S
C671 C414 2.244 . S
C682 C359 1.271 . S
C680 C250 1.256 . S
C693 C316 1.267 . S
C691 C274 1.226 . S
C702 C211 2.197 . S
C704 C380 2.222 . S
