# Generated by pormake.
# Topology zzz, (3,6)-cn, num edge types: 1
# Building blocks:
#     Node 0, Type 0, BuildingBlock: BELTOD_clean_linker_0, # of connection points: 3
#     Node 1, Type 0, BuildingBlock: BELTOD_clean_linker_0, # of connection points: 3
#     Node 2, Type 0, BuildingBlock: BELTOD_clean_linker_0, # of connection points: 3
#     Node 3, Type 0, BuildingBlock: BELTOD_clean_linker_0, # of connection points: 3
#     Node 4, Type 0, BuildingBlock: BELTOD_clean_linker_0, # of connection points: 3
#     Node 5, Type 0, BuildingBlock: BELTOD_clean_linker_0, # of connection points: 3
#     Node 6, Type 0, BuildingBlock: BELTOD_clean_linker_0, # of connection points: 3
#     Node 7, Type 0, BuildingBlock: BELTOD_clean_linker_0, # of connection points: 3
#     Node 8, Type 1, BuildingBlock: GEDQOX_clean_sbu_0, # of connection points: 6
#     Node 9, Type 1, BuildingBlock: GEDQOX_clean_sbu_0, # of connection points: 6
#     Node 10, Type 1, BuildingBlock: GEDQOX_clean_sbu_0, # of connection points: 6
#     Node 11, Type 1, BuildingBlock: GEDQOX_clean_sbu_0, # of connection points: 6
#     Edge 12, Type (0, 1), BuildingBlock: UVAHIK_clean_linker_0, # of connection points: 2
#     Edge 13, Type (0, 1), BuildingBlock: UVAHIK_clean_linker_0, # of connection points: 2
#     Edge 14, Type (0, 1), BuildingBlock: UVAHIK_clean_linker_0, # of connection points: 2
#     Edge 15, Type (0, 1), BuildingBlock: UVAHIK_clean_linker_0, # of connection points: 2
#     Edge 16, Type (0, 1), BuildingBlock: UVAHIK_clean_linker_0, # of connection points: 2
#     Edge 17, Type (0, 1), BuildingBlock: UVAHIK_clean_linker_0, # of connection points: 2
#     Edge 18, Type (0, 1), BuildingBlock: UVAHIK_clean_linker_0, # of connection points: 2
#     Edge 19, Type (0, 1), BuildingBlock: UVAHIK_clean_linker_0, # of connection points: 2
#     Edge 20, Type (0, 1), BuildingBlock: UVAHIK_clean_linker_0, # of connection points: 2
#     Edge 21, Type (0, 1), BuildingBlock: UVAHIK_clean_linker_0, # of connection points: 2
#     Edge 22, Type (0, 1), BuildingBlock: UVAHIK_clean_linker_0, # of connection points: 2
#     Edge 23, Type (0, 1), BuildingBlock: UVAHIK_clean_linker_0, # of connection points: 2
#     Edge 24, Type (0, 1), BuildingBlock: UVAHIK_clean_linker_0, # of connection points: 2
#     Edge 25, Type (0, 1), BuildingBlock: UVAHIK_clean_linker_0, # of connection points: 2
#     Edge 26, Type (0, 1), BuildingBlock: UVAHIK_clean_linker_0, # of connection points: 2
#     Edge 27, Type (0, 1), BuildingBlock: UVAHIK_clean_linker_0, # of connection points: 2
#     Edge 28, Type (0, 1), BuildingBlock: UVAHIK_clean_linker_0, # of connection points: 2
#     Edge 29, Type (0, 1), BuildingBlock: UVAHIK_clean_linker_0, # of connection points: 2
#     Edge 30, Type (0, 1), BuildingBlock: UVAHIK_clean_linker_0, # of connection points: 2
#     Edge 31, Type (0, 1), BuildingBlock: UVAHIK_clean_linker_0, # of connection points: 2
#     Edge 32, Type (0, 1), BuildingBlock: UVAHIK_clean_linker_0, # of connection points: 2
#     Edge 33, Type (0, 1), BuildingBlock: UVAHIK_clean_linker_0, # of connection points: 2
#     Edge 34, Type (0, 1), BuildingBlock: UVAHIK_clean_linker_0, # of connection points: 2
#     Edge 35, Type (0, 1), BuildingBlock: UVAHIK_clean_linker_0, # of connection points: 2
# Relax obj value: 0.283
# Max RMSD: 0.251
# Mean RMSD: 0.192
data_MOF--net-zzz--node1-GEDQOX_clean_sbu_0--node2-BELTOD_clean_linker_0--edge1-UVAHIK_clean_linker_0
_symmetry_space_group_name_H-M    P1
_symmetry_Int_Tables_number       1
_symmetry_cell_setting            triclinic
loop_
_symmetry_equiv_pos_as_xyz
'x, y, z'
_cell_length_a     73.163694
_cell_length_b     68.727725
_cell_length_c     24.93034
_cell_angle_alpha  83.344989
_cell_angle_beta   91.154305
_cell_angle_gamma 101.17849
loop_
_atom_site_label
_atom_site_type_symbol
_atom_site_fract_x
_atom_site_fract_y
_atom_site_fract_z
_atom_type_partial_charge
P0 P 0.74887 0.38047 0.14161 0.0
H1 H 0.76152 0.3648 0.24706 0.0
H2 H 0.77973 0.38102 0.31841 0.0
H3 H 0.77875 0.4387 0.22955 0.0
H4 H 0.76 0.42236 0.15956 0.0
H5 H 0.73513 0.38589 0.0308 0.0
H6 H 0.70939 0.40059 0.99111 0.0
H7 H 0.69619 0.41503 0.14823 0.0
H8 H 0.7217 0.39994 0.18768 0.0
H9 H 0.77109 0.35185 0.11349 0.0
H10 H 0.76877 0.41389 0.06955 0.0
O11 O 0.73989 0.35651 0.16086 0.0
H12 H 0.79981 0.35623 0.06071 0.0
H13 H 0.79751 0.41838 0.01737 0.0
C14 C 0.75919 0.39239 0.19846 0.0
C15 C 0.76482 0.38095 0.24369 0.0
C16 C 0.77541 0.39026 0.28417 0.0
C17 C 0.78082 0.41119 0.27965 0.0
C18 C 0.77462 0.42259 0.23488 0.0
C19 C 0.76395 0.41326 0.19463 0.0
C20 C 0.73061 0.3923 0.11192 0.0
C21 C 0.72683 0.39244 0.05655 0.0
C22 C 0.71214 0.40089 0.03389 0.0
C23 C 0.7008 0.4091 0.06643 0.0
C24 C 0.70457 0.40873 0.12208 0.0
C25 C 0.71926 0.40027 0.14463 0.0
C26 C 0.76772 0.38251 0.0949 0.0
C27 C 0.77651 0.36628 0.0915 0.0
C28 C 0.79291 0.36879 0.0614 0.0
C29 C 0.8009 0.38766 0.03526 0.0
C30 C 0.79171 0.40371 0.03749 0.0
C31 C 0.77526 0.40114 0.06705 0.0
P32 P 0.98315 0.71483 0.26444 0.0
H33 H 0.99478 0.72584 0.37117 0.0
H34 H 0.98218 0.74587 0.42958 0.0
H35 H 0.93184 0.74084 0.33412 0.0
H36 H 0.94491 0.72105 0.27464 0.0
H37 H 0.99013 0.67423 0.28336 0.0
H38 H 0.98014 0.64515 0.23509 0.0
H39 H 0.94135 0.67562 0.14264 0.0
H40 H 0.95155 0.70485 0.19122 0.0
H41 H 0.98397 0.75768 0.26321 0.0
H42 H 0.98944 0.71709 0.14728 0.0
O43 O 0.00453 0.71252 0.28528 0.0
H44 H 0.98573 0.78482 0.19089 0.0
H45 H 0.99098 0.74444 0.07406 0.0
C46 C 0.97077 0.72186 0.31859 0.0
C47 C 0.98073 0.72832 0.36391 0.0
C48 C 0.97345 0.73986 0.39747 0.0
C49 C 0.95605 0.74525 0.38624 0.0
C50 C 0.94541 0.73725 0.34344 0.0
C51 C 0.95274 0.72566 0.30984 0.0
C52 C 0.97188 0.69184 0.24001 0.0
C53 C 0.97915 0.67451 0.25367 0.0
C54 C 0.97334 0.65781 0.22613 0.0
C55 C 0.96014 0.65818 0.18439 0.0
C56 C 0.95176 0.67502 0.17397 0.0
C57 C 0.95749 0.69167 0.20194 0.0
C58 C 0.98569 0.73508 0.21056 0.0
C59 C 0.98527 0.75446 0.22216 0.0
C60 C 0.98627 0.77004 0.18065 0.0
C61 C 0.98801 0.76665 0.12666 0.0
C62 C 0.98946 0.74745 0.11526 0.0
C63 C 0.98843 0.73179 0.15703 0.0
P64 P 0.76927 0.07601 0.13966 0.0
H65 H 0.75598 0.08398 0.2435 0.0
H66 H 0.73568 0.06293 0.31288 0.0
H67 H 0.73509 0.01183 0.22655 0.0
H68 H 0.75561 0.03293 0.15764 0.0
H69 H 0.78775 0.0817 0.0353 0.0
H70 H 0.81277 0.06802 1.00077 0.0
H71 H 0.82041 0.03833 0.1601 0.0
H72 H 0.79446 0.05129 0.19359 0.0
H73 H 0.74494 0.10402 0.10058 0.0
H74 H 0.75601 0.04772 0.06277 0.0
O75 O 0.77658 0.09908 0.15621 0.0
H76 H 0.72008 0.10226 0.0326 0.0
H77 H 0.73153 0.04599 0.99491 0.0
C78 C 0.75741 0.05998 0.19564 0.0
C79 C 0.75187 0.06817 0.24015 0.0
C80 C 0.74026 0.05612 0.27979 0.0
C81 C 0.73376 0.03576 0.27497 0.0
C82 C 0.73978 0.0275 0.23106 0.0
C83 C 0.75156 0.03952 0.19182 0.0
C84 C 0.78888 0.067 0.11655 0.0
C85 C 0.79471 0.07212 0.06275 0.0
C86 C 0.80923 0.06445 0.04318 0.0
C87 C 0.81863 0.05193 0.07749 0.0
C88 C 0.81322 0.04752 0.13217 0.0
C89 C 0.79846 0.05502 0.15152 0.0
C90 C 0.75243 0.07612 0.0862 0.0
C91 C 0.74224 0.09148 0.07705 0.0
C92 C 0.72811 0.09049 0.03816 0.0
C93 C 0.72387 0.07396 0.00861 0.0
C94 C 0.73437 0.05881 0.01744 0.0
C95 C 0.74842 0.05983 0.05606 0.0
P96 P 0.53865 0.77949 0.40956 0.0
H97 H 0.52757 0.75958 0.51682 0.0
H98 H 0.53976 0.73426 0.5744 0.0
H99 H 0.58912 0.74508 0.47444 0.0
H100 H 0.57634 0.77005 0.4154 0.0
H101 H 0.52704 0.81765 0.41179 0.0
H102 H 0.53584 0.8491 0.35548 0.0
H103 H 0.58319 0.82881 0.29583 0.0
H104 H 0.57349 0.79672 0.35032 0.0
H105 H 0.53929 0.73752 0.39762 0.0
H106 H 0.53001 0.78998 0.29589 0.0
O107 O 0.51739 0.77963 0.43243 0.0
H108 H 0.53605 0.71886 0.31968 0.0
H109 H 0.52679 0.77124 0.21749 0.0
C110 C 0.55103 0.76685 0.46169 0.0
C111 C 0.5413 0.75706 0.50808 0.0
C112 C 0.54837 0.74249 0.54131 0.0
C113 C 0.56539 0.73735 0.52892 0.0
C114 C 0.57583 0.74837 0.48476 0.0
C115 C 0.56867 0.76295 0.45135 0.0
C116 C 0.54957 0.80474 0.38542 0.0
C117 C 0.53965 0.82012 0.38795 0.0
C118 C 0.5448 0.83828 0.35556 0.0
C119 C 0.56012 0.84153 0.32012 0.0
C120 C 0.57107 0.82672 0.32161 0.0
C121 C 0.56575 0.80843 0.35369 0.0
C122 C 0.5356 0.7654 0.35237 0.0
C123 C 0.53682 0.74516 0.35851 0.0
C124 C 0.53496 0.73446 0.31384 0.0
C125 C 0.5315 0.7437 0.26236 0.0
C126 C 0.52954 0.76377 0.25665 0.0
C127 C 0.53151 0.77451 0.30139 0.0
P128 P 0.25561 0.54044 0.53673 0.0
H129 H 0.24348 0.50596 0.47678 0.0
H130 H 0.23135 0.50342 0.38567 0.0
H131 H 0.24657 0.56751 0.34919 0.0
H132 H 0.25843 0.56995 0.44124 0.0
H133 H 0.27579 0.53811 0.63809 0.0
H134 H 0.3089 0.54153 0.6595 0.0
H135 H 0.32246 0.55857 0.49066 0.0
H136 H 0.28935 0.55539 0.46947 0.0
H137 H 0.22094 0.55121 0.49571 0.0
H138 H 0.25934 0.56635 0.62497 0.0
O139 O 0.24721 0.51837 0.57151 0.0
H140 H 0.19981 0.57006 0.52941 0.0
H141 H 0.23766 0.5849 0.66012 0.0
C142 C 0.25159 0.53817 0.46594 0.0
C143 C 0.24463 0.51944 0.44889 0.0
C144 C 0.23778 0.518 0.39651 0.0
C145 C 0.23777 0.5353 0.36035 0.0
C146 C 0.24612 0.55394 0.37638 0.0
C147 C 0.25302 0.55535 0.42878 0.0
C148 C 0.28005 0.54653 0.55226 0.0
C149 C 0.28589 0.54311 0.60583 0.0
C150 C 0.30483 0.54507 0.61805 0.0
C151 C 0.31824 0.55023 0.57669 0.0
C152 C 0.31239 0.55442 0.52325 0.0
C153 C 0.29344 0.55267 0.51116 0.0
C154 C 0.24207 0.55772 0.55681 0.0
C155 C 0.22521 0.55915 0.53029 0.0
C156 C 0.21304 0.56998 0.54969 0.0
C157 C 0.21716 0.57916 0.59709 0.0
C158 C 0.23421 0.57808 0.62325 0.0
C159 C 0.24661 0.56747 0.60312 0.0
P160 P 0.11753 0.28882 0.40496 0.0
H161 H 0.13519 0.28815 0.30065 0.0
H162 H 0.12616 0.26738 0.22766 0.0
H163 H 0.07263 0.24449 0.30451 0.0
H164 H 0.08157 0.26572 0.37608 0.0
H165 H 0.13307 0.32162 0.46564 0.0
H166 H 0.12 0.34839 0.49681 0.0
H167 H 0.06986 0.33052 0.40586 0.0
H168 H 0.08325 0.30392 0.37393 0.0
H169 H 0.1266 0.24961 0.43184 0.0
H170 H 0.09094 0.28473 0.49523 0.0
O171 O 0.14078 0.29384 0.40405 0.0
H172 H 0.11227 0.22062 0.49323 0.0
H173 H 0.07697 0.25607 0.55755 0.0
C174 C 0.10911 0.27837 0.34399 0.0
C175 C 0.12132 0.27909 0.30092 0.0
C176 C 0.1162 0.26702 0.25948 0.0
C177 C 0.09878 0.25394 0.2606 0.0
C178 C 0.08609 0.25442 0.30192 0.0
C179 C 0.0912 0.26657 0.34308 0.0
C180 C 0.10928 0.311 0.41671 0.0
C181 C 0.11948 0.3238 0.45115 0.0
C182 C 0.11188 0.33895 0.46953 0.0
C183 C 0.09382 0.34147 0.45424 0.0
C184 C 0.08388 0.32909 0.41797 0.0
C185 C 0.09153 0.31389 0.39959 0.0
C186 C 0.10994 0.26936 0.459 0.0
C187 C 0.11609 0.25124 0.46009 0.0
C188 C 0.10788 0.23468 0.49529 0.0
C189 C 0.09336 0.23599 0.53004 0.0
C190 C 0.08791 0.25448 0.53067 0.0
C191 C 0.09605 0.27099 0.49525 0.0
P192 P 0.28079 0.05252 0.51175 0.0
H193 H 0.2986 0.07977 0.42078 0.0
H194 H 0.31209 0.07398 0.33715 0.0
H195 H 0.28987 0.01075 0.37118 0.0
H196 H 0.27702 0.0167 0.45635 0.0
H197 H 0.26113 0.05499 0.60879 0.0
H198 H 0.22885 0.04353 0.63817 0.0
H199 H 0.21479 0.02205 0.48349 0.0
H200 H 0.2472 0.03389 0.45398 0.0
H201 H 0.31975 0.05978 0.54287 0.0
H202 H 0.27112 0.01362 0.5781 0.0
O203 O 0.28739 0.07662 0.52002 0.0
H204 H 0.33839 0.04037 0.60147 0.0
H205 H 0.28942 0.99453 0.63892 0.0
C206 C 0.2867 0.04867 0.4446 0.0
C207 C 0.29627 0.0647 0.40979 0.0
C208 C 0.30394 0.06135 0.36164 0.0
C209 C 0.30217 0.04186 0.3473 0.0
C210 C 0.29175 0.02592 0.38124 0.0
C211 C 0.2842 0.0293 0.42965 0.0
C212 C 0.25654 0.04522 0.5294 0.0
C213 C 0.25106 0.04793 0.58105 0.0
C214 C 0.23266 0.04121 0.59796 0.0
C215 C 0.21933 0.03168 0.56336 0.0
C216 C 0.22477 0.02939 0.51097 0.0
C217 C 0.24329 0.03608 0.49413 0.0
C218 C 0.294 0.03842 0.55734 0.0
C219 C 0.31303 0.04563 0.56409 0.0
C220 C 0.32363 0.03453 0.59789 0.0
C221 C 0.31536 0.01598 0.62569 0.0
C222 C 0.29626 0.0087 0.6181 0.0
C223 C 0.28572 0.01974 0.58378 0.0
P224 P 0.4188 0.21085 0.24614 0.0
H225 H 0.41513 0.21776 0.12821 0.0
H226 H 0.42867 0.24575 0.06218 0.0
H227 H 0.46333 0.27223 0.18751 0.0
H228 H 0.45041 0.24388 0.25204 0.0
H229 H 0.40399 0.16974 0.28836 0.0
H230 H 0.41853 0.14358 0.33562 0.0
H231 H 0.47282 0.18074 0.30367 0.0
H232 H 0.45812 0.20691 0.25613 0.0
H233 H 0.39683 0.24076 0.26228 0.0
H234 H 0.43662 0.21148 0.35329 0.0
O235 O 0.39759 0.20222 0.22283 0.0
H236 H 0.39872 0.26432 0.32955 0.0
H237 H 0.43904 0.23512 0.419 0.0
C238 C 0.43156 0.22887 0.19519 0.0
C239 C 0.42595 0.22939 0.14105 0.0
C240 C 0.43359 0.24554 0.10346 0.0
C241 C 0.4469 0.26153 0.11948 0.0
C242 C 0.45326 0.26023 0.17324 0.0
C243 C 0.44576 0.24401 0.21052 0.0
C244 C 0.42997 0.19013 0.26791 0.0
C245 C 0.41905 0.17202 0.28994 0.0
C246 C 0.42739 0.15707 0.31709 0.0
C247 C 0.44683 0.16011 0.32353 0.0
C248 C 0.4578 0.17802 0.29964 0.0
C249 C 0.44943 0.19291 0.27194 0.0
C250 C 0.41648 0.22429 0.3027 0.0
C251 C 0.40557 0.23905 0.29742 0.0
C252 C 0.40682 0.25263 0.33561 0.0
C253 C 0.41918 0.25176 0.37946 0.0
C254 C 0.4292 0.23613 0.38625 0.0
C255 C 0.42788 0.22257 0.34821 0.0
Nd256 Nd 0.99352 0.99409 0.75203 0.0
Nd257 Nd 0.01513 0.00502 0.85262 0.0
C258 C 0.96939 0.98403 0.67533 0.0
C259 C 0.96366 0.96546 0.64932 0.0
C260 C 0.95473 0.9476 0.67912 0.0
C261 C 0.95091 0.92978 0.6555 0.0
C262 C 0.95604 0.92934 0.60171 0.0
C263 C 0.9645 0.94727 0.57146 0.0
C264 C 0.96818 0.96516 0.59497 0.0
C265 C 0.03032 0.99115 0.74852 0.0
C266 C 0.00333 0.95884 0.83845 0.0
C267 C 0.0377 0.02048 0.92801 0.0
C268 C 0.04433 0.04055 0.94437 0.0
C269 C 0.05911 0.04387 0.98087 0.0
C270 C 0.06436 0.06251 1.00012 0.0
C271 C 0.05493 0.07817 0.983 0.0
C272 C 0.04045 0.07484 0.94514 0.0
C273 C 0.03514 0.05619 0.92637 0.0
C274 C 0.97712 0.99529 0.86539 0.0
C275 C 0.00723 0.04139 0.7629 0.0
O276 O 0.96461 0.98328 0.72606 0.0
O277 O 0.98639 0.9939 0.6651 0.0
O278 O 0.01695 0.97857 0.72941 0.0
O279 O 0.02413 0.0049 0.76701 0.0
O280 O 0.99016 0.96432 0.80652 0.0
O281 O 0.01713 0.97217 0.85507 0.0
O282 O 0.04368 0.01693 0.88168 0.0
O283 O 0.01994 0.0134 0.93537 0.0
O284 O 0.98877 0.98875 0.89951 0.0
O285 O 0.98565 0.00627 0.82619 0.0
O286 O 0.01348 0.03619 0.81142 0.0
O287 O -0.00081 0.02808 0.73128 0.0
H288 H 0.9511 0.94722 0.72118 0.0
H289 H 0.94456 0.91618 0.68002 0.0
H290 H 0.96843 0.94743 0.52974 0.0
H291 H 0.975 0.97869 0.571 0.0
H292 H 0.06626 0.03191 0.99559 0.0
H293 H 0.07541 0.06442 0.02971 0.0
H294 H 0.03306 0.08658 0.93033 0.0
H295 H 0.02353 0.05381 0.89885 0.0
Nd296 Nd 0.5185 0.97998 0.76255 0.0
Nd297 Nd 0.50763 0.00976 0.82956 0.0
C298 C 0.52995 0.95089 0.72078 0.0
C299 C 0.54524 0.95057 0.6832 0.0
C300 C 0.55981 0.94079 0.70081 0.0
C301 C 0.57556 0.94253 0.66841 0.0
C302 C 0.57694 0.95392 0.61753 0.0
C303 C 0.56199 0.96296 0.59897 0.0
C304 C 0.54633 0.96138 0.63151 0.0
C305 C 0.51156 0.01376 0.70224 0.0
C306 C 0.54902 0.01943 0.78309 0.0
C307 C 0.49143 0.03463 0.87695 0.0
C308 C 0.47286 0.03481 0.89816 0.0
C309 C 0.46948 0.05191 0.91872 0.0
C310 C 0.45268 0.05148 0.94508 0.0
C311 C 0.43903 0.03387 0.95152 0.0
C312 C 0.4422 0.01701 0.92883 0.0
C313 C 0.45896 0.01749 0.90242 0.0
C314 C 0.52729 0.98352 0.88429 0.0
C315 C 0.47601 0.97078 0.80683 0.0
O316 O 0.53515 0.95609 0.76855 0.0
O317 O 0.51599 0.95884 0.70098 0.0
O318 O 0.52473 0.00462 0.6914 0.0
O319 O 0.50214 0.00465 0.7426 0.0
O320 O 0.54651 1.00015 0.77831 0.0
O321 O 0.53503 0.02791 0.79397 0.0
O322 O 0.49316 0.03558 0.82453 0.0
O323 O 0.50021 0.02164 0.90306 0.0
O324 O 0.53061 0.00254 0.88844 0.0
O325 O 0.51409 0.97897 0.85191 0.0
O326 O 0.48073 0.9863 0.83405 0.0
O327 O 0.48778 0.96541 0.77475 0.0
H328 H 0.5593 0.93236 0.74044 0.0
H329 H 0.58682 0.93525 0.68354 0.0
H330 H 0.56273 0.97202 0.56022 0.0
H331 H 0.53541 0.96922 0.6168 0.0
H332 H 0.48009 0.06539 0.91605 0.0
H333 H 0.45074 0.06465 0.96254 0.0
H334 H 0.43186 0.0033 0.93248 0.0
H335 H 0.46127 0.00413 0.88692 0.0
Nd336 Nd 0.51027 0.50526 0.84458 0.0
Nd337 Nd 0.52949 0.49145 0.75472 0.0
C338 C 0.49182 0.5251 0.90196 0.0
C339 C 0.49538 0.54564 0.91575 0.0
C340 C 0.48092 0.55365 0.93492 0.0
C341 C 0.48439 0.57325 0.9482 0.0
C342 C 0.50238 0.58509 0.94232 0.0
C343 C 0.51674 0.57703 0.92209 0.0
C344 C 0.51327 0.55746 0.90906 0.0
C345 C 0.54225 0.49201 0.87563 0.0
C346 C 0.54074 0.53773 0.76637 0.0
C347 C 0.5449 0.47089 0.69179 0.0
C348 C 0.53604 0.45383 0.66345 0.0
C349 C 0.5434 0.43632 0.66805 0.0
C350 C 0.53369 0.41926 0.64694 0.0
C351 C 0.51651 0.41953 0.62071 0.0
C352 C 0.50941 0.43723 0.61526 0.0
C353 C 0.51901 0.45415 0.63661 0.0
C354 C 0.49677 0.50372 0.72563 0.0
C355 C 0.5008 0.45849 0.83767 0.0
O356 O 0.4884 0.52313 0.85098 0.0
O357 O 0.50325 0.5139 0.92323 0.0
O358 O 0.52749 0.48898 0.90577 0.0
O359 O 0.54034 0.5028 0.83214 0.0
O360 O 0.52564 0.53454 0.79686 0.0
O361 O 0.54743 0.52271 0.75123 0.0
O362 O 0.54506 0.4674 0.74448 0.0
O363 O 0.5404 0.48808 0.67485 0.0
O364 O 0.51137 0.50748 0.69493 0.0
O365 O 0.4994 0.493 0.76837 0.0
O366 O 0.51503 0.46198 0.80376 0.0
O367 O 0.49411 0.47323 0.85439 0.0
H368 H 0.46702 0.54471 0.94009 0.0
H369 H 0.47309 0.57894 0.96432 0.0
H370 H 0.53068 0.58584 0.9164 0.0
H371 H 0.52459 0.55148 0.89406 0.0
H372 H 0.55639 0.43568 0.68921 0.0
H373 H 0.53952 0.40584 0.65147 0.0
H374 H 0.49608 0.4378 0.5961 0.0
H375 H 0.51275 0.46729 0.63346 0.0
Nd376 Nd 0.99699 0.5119 0.7488 0.0
Nd377 Nd 0.01927 0.48617 0.83426 0.0
C378 C 0.9726 0.53244 0.70516 0.0
C379 C 0.95714 0.52694 0.6675 0.0
C380 C 0.93922 0.52991 0.6786 0.0
C381 C 0.924 0.52213 0.64737 0.0
C382 C 0.92648 0.51118 0.60465 0.0
C383 C 0.94458 0.50896 0.59238 0.0
C384 C 0.95972 0.51665 0.62358 0.0
C385 C 0.00997 0.48284 0.70033 0.0
C386 C 0.97697 0.4675 0.80812 0.0
C387 C 0.04412 0.46763 0.88554 0.0
C388 C 0.0614 0.47435 0.91462 0.0
C389 C 0.07104 0.46045 0.94175 0.0
C390 C 0.08718 0.46693 0.97091 0.0
C391 C 0.09401 0.48746 0.97307 0.0
C392 C 0.08437 0.5013 0.94489 0.0
C393 C 0.06814 0.49479 0.91641 0.0
C394 C -0.00077 0.51083 0.87597 0.0
C395 C 0.04059 0.53025 0.77233 0.0
O396 O 0.97047 0.52264 0.75374 0.0
O397 O 0.98953 0.53446 0.68589 0.0
O398 O 0.00108 0.49554 0.67404 0.0
O399 O 0.01139 0.48643 0.74846 0.0
O400 O 0.9751 0.48578 0.7885 0.0
O401 O 0.99339 0.46284 0.82034 0.0
O402 O 0.04455 0.47292 0.83334 0.0
O403 O 0.02883 0.46997 0.90822 0.0
O404 O 0.00167 0.49391 0.90128 0.0
O405 O 0.00846 0.51483 0.83261 0.0
O406 O 0.04156 0.5136 0.80402 0.0
O407 O 0.02494 0.53379 0.74905 0.0
H408 H 0.9369 0.53762 0.71263 0.0
H409 H 0.91021 0.52399 0.65805 0.0
H410 H 0.94703 0.50094 0.55914 0.0
H411 H 0.97335 0.51398 0.6142 0.0
H412 H 0.06592 0.44459 0.94105 0.0
H413 H 0.09404 0.45583 0.99278 0.0
H414 H 0.08931 0.51721 0.94486 0.0
H415 H 0.06072 0.5057 0.89618 0.0
C416 C 0.18477 0.02751 0.54942 0.0
C417 C 0.1999 0.02419 0.58244 0.0
C418 C 0.16654 0.02159 0.56906 0.0
C419 C 0.14033 0.01057 0.69718 0.0
H420 H 0.09923 0.98974 0.60635 0.0
C421 C 0.05572 0.97759 0.70941 0.0
C422 C 0.05016 0.99223 0.73674 0.0
C423 C 0.07428 0.97956 0.69379 0.0
C424 C 0.11057 0.99531 0.63249 0.0
H425 H 0.20776 0.01116 0.66086 0.0
H426 H 0.17598 1.00075 0.69499 0.0
H427 H 0.13099 0.99617 0.5715 0.0
H428 H 0.05965 0.02002 0.77093 0.0
H429 H 0.09203 0.02359 0.74332 0.0
H430 H 0.11995 0.0096 0.75827 0.0
C431 C 0.1782 0.00832 0.6544 0.0
C432 C 0.12875 0.99923 0.61226 0.0
C433 C 0.1964 0.01427 0.63484 0.0
C434 C 0.06358 0.00851 0.74991 0.0
C435 C 0.08214 0.01049 0.73429 0.0
C436 C 0.12217 0.00666 0.7174 0.0
C437 C 0.16307 0.01217 0.62204 0.0
C438 C 0.14382 0.00707 0.64421 0.0
C439 C 0.08764 0.99621 0.70529 0.0
C440 C 0.10706 0.99917 0.68511 0.0
H441 H 0.18706 0.03526 0.50904 0.0
H442 H 0.1552 0.02498 0.5433 0.0
H443 H 0.1516 0.0168 0.72269 0.0
H444 H 0.04565 0.96481 0.69908 0.0
H445 H 0.07815 0.96814 0.67228 0.0
C446 C 0.44942 0.12474 0.35613 0.0
C447 C 0.45534 0.14533 0.35875 0.0
C448 C 0.45633 0.11083 0.39244 0.0
C449 C 0.47669 0.10521 0.52797 0.0
H450 H 0.4909 0.05834 0.48117 0.0
C451 C 0.51576 0.03679 0.61651 0.0
C452 C 0.50592 0.02986 0.66495 0.0
C453 C 0.50999 0.05125 0.57949 0.0
C454 C 0.48708 0.07141 0.49483 0.0
H455 H 0.47325 0.16745 0.40136 0.0
H456 H 0.48539 0.14316 0.46454 0.0
H457 H 0.48055 0.08287 0.4146 0.0
H458 H 0.48255 0.03287 0.71326 0.0
H459 H 0.47252 0.05834 0.64863 0.0
H460 H 0.48323 0.09373 0.60822 0.0
C461 C 0.47535 0.13779 0.43449 0.0
C462 C 0.481 0.08536 0.45676 0.0
C463 C 0.46857 0.1517 0.39789 0.0
C464 C 0.49042 0.03798 0.67626 0.0
C465 C 0.48472 0.05259 0.63935 0.0
C466 C 0.48261 0.09115 0.56611 0.0
C467 C 0.46918 0.11721 0.43252 0.0
C468 C 0.47578 0.10244 0.47288 0.0
C469 C 0.49433 0.05921 0.59027 0.0
C470 C 0.48792 0.07412 0.54995 0.0
H471 H 0.4393 0.11939 0.32628 0.0
H472 H 0.45122 0.09507 0.39009 0.0
H473 H 0.47258 0.11811 0.5417 0.0
H474 H 0.52782 0.03086 0.60681 0.0
H475 H 0.51784 0.05625 0.54242 0.0
C476 C 0.34771 0.53897 0.55762 0.0
C477 C 0.33802 0.54941 0.58883 0.0
C478 C 0.36569 0.53634 0.57187 0.0
C479 C 0.39755 0.53655 0.68936 0.0
H480 H 0.43333 0.53292 0.5802 0.0
C481 C 0.46301 0.50289 0.74177 0.0
C482 C 0.47928 0.51068 0.71151 0.0
C483 C 0.44637 0.50927 0.72739 0.0
C484 C 0.42366 0.53416 0.61136 0.0
H485 H 0.33979 0.56596 0.65818 0.0
H486 H 0.37148 0.56193 0.68232 0.0
H487 H 0.40397 0.54243 0.55289 0.0
H488 H 0.49121 0.53163 0.64381 0.0
H489 H 0.46239 0.54326 0.61973 0.0
H490 H 0.41751 0.52888 0.74788 0.0
C491 C 0.36501 0.55528 0.64762 0.0
C492 C 0.40664 0.53933 0.59561 0.0
C493 C 0.3469 0.55771 0.63367 0.0
C494 C 0.47876 0.52522 0.66744 0.0
C495 C 0.46221 0.5318 0.65347 0.0
C496 C 0.41467 0.5316 0.70514 0.0
C497 C 0.37453 0.54428 0.6174 0.0
C498 C 0.39323 0.5403 0.63434 0.0
C499 C 0.44572 0.52376 0.68289 0.0
C500 C 0.42786 0.53006 0.66634 0.0
H501 H 0.34109 0.53211 0.52338 0.0
H502 H 0.37238 0.52746 0.54817 0.0
H503 H 0.38753 0.53692 0.7204 0.0
H504 H 0.46306 0.49165 0.77593 0.0
H505 H 0.43393 0.50249 0.75054 0.0
C506 C 0.08707 0.35793 0.53431 0.0
C507 C 0.08503 0.35613 0.47878 0.0
C508 C 0.07866 0.37142 0.55805 0.0
C509 C 0.05963 0.41725 0.52672 0.0
H510 H 0.03531 0.40107 0.66601 0.0
C511 C 0.01646 0.46669 0.62024 0.0
C512 C 0.01808 0.46785 0.67602 0.0
C513 C 0.02435 0.45285 0.59635 0.0
C514 C 0.04224 0.40592 0.62743 0.0
H515 H 0.07258 0.36715 0.40463 0.0
H516 H 0.05775 0.3907 0.44624 0.0
H517 H 0.04953 0.37741 0.62354 0.0
H518 H 0.02883 0.45523 0.75082 0.0
H519 H 0.04304 0.43127 0.70911 0.0
H520 H 0.05251 0.4458 0.53073 0.0
C521 C 0.066 0.38173 0.47128 0.0
C522 C 0.05036 0.39234 0.60303 0.0
C523 C 0.07435 0.36814 0.44753 0.0
C524 C 0.02754 0.45475 0.70768 0.0
C525 C 0.03552 0.44092 0.68376 0.0
C526 C 0.05157 0.43085 0.5512 0.0
C527 C 0.06803 0.38348 0.52687 0.0
C528 C 0.05916 0.39785 0.55241 0.0
C529 C 0.0341 0.43986 0.62771 0.0
C530 C 0.04276 0.42537 0.60186 0.0
H531 H 0.09498 0.3487 0.55972 0.0
H532 H 0.08065 0.37253 0.60084 0.0
H533 H 0.06654 0.42205 0.4881 0.0
H534 H 0.0091 0.47652 0.59491 0.0
H535 H 0.02267 0.45222 0.55329 0.0
C536 C 0.84577 0.05449 0.01507 0.0
C537 C 0.83378 0.04337 0.05581 0.0
C538 C 0.85936 0.04617 0.99262 0.0
C539 C 0.8892 0.01021 0.0208 0.0
H540 H 0.89329 0.01315 0.86507 0.0
C541 C 0.94925 0.98335 0.92493 0.0
C542 C 0.95782 0.99572 0.88007 0.0
C543 C 0.93199 0.98572 0.94343 0.0
C544 C 0.89247 0.01235 0.90861 0.0
H545 H 0.82695 0.0147 0.10506 0.0
H546 H 0.85133 1.00055 0.06722 0.0
H547 H 0.86769 0.02474 0.90466 0.0
H548 H 0.95479 0.01959 0.81768 0.0
H549 H 0.92516 0.0243 0.85085 0.0
H550 H 0.91446 0.99895 0.02522 0.0
C551 C 0.84992 0.01565 0.05249 0.0
C552 C 0.87775 0.0189 0.93118 0.0
C553 C 0.83608 0.02384 0.07439 0.0
C554 C 0.94847 0.00983 0.85239 0.0
C555 C 0.93138 0.01242 0.87132 0.0
C556 C 0.90411 0.00398 0.99826 0.0
C557 C 0.86153 0.02668 0.01103 0.0
C558 C 0.87616 0.01816 0.98741 0.0
C559 C 0.92311 1.00073 0.91788 0.0
C560 C 0.90613 0.00527 0.9418 0.0
H561 H 0.84478 0.06972 1.00059 0.0
H562 H 0.8684 0.0551 0.96134 0.0
H563 H 0.88831 0.00964 0.0643 0.0
H564 H 0.95612 0.97221 0.94663 0.0
H565 H 0.92585 0.9761 0.97855 0.0
C566 C 0.56827 0.85677 0.2247 0.0
C567 C 0.56297 0.85898 0.27739 0.0
C568 C 0.56777 0.87186 0.18224 0.0
C569 C 0.54034 0.90866 0.13909 0.0
H570 H 0.57846 0.93049 0.03082 0.0
C571 C 0.52436 0.94923 0.9333 0.0
C572 C 0.5343 0.96893 0.92348 0.0
C573 C 0.52971 0.93612 0.97515 0.0
C574 C 0.56774 0.92447 0.06085 0.0
H575 H 0.55452 0.87971 0.32694 0.0
H576 H 0.5529 0.90562 0.25221 0.0
H577 H 0.58547 0.90794 0.10929 0.0
H578 H 0.55817 0.9901 0.94736 0.0
H579 H 0.56788 0.96689 0.01964 0.0
H580 H 0.52242 0.92459 0.09009 0.0
C581 C 0.55741 0.89212 0.24416 0.0
C582 C 0.57172 0.91163 0.10553 0.0
C583 C 0.55824 0.87721 0.28684 0.0
C584 C 0.55024 0.97499 0.95431 0.0
C585 C 0.55582 0.96174 0.99545 0.0
C586 C 0.53624 0.9211 0.09397 0.0
C587 C 0.5617 0.88935 0.19129 0.0
C588 C 0.55805 0.90368 0.1451 0.0
C589 C 0.54532 0.94236 0.00705 0.0
C590 C 0.54988 0.9291 0.05444 0.0
H591 H 0.57173 0.84293 0.21534 0.0
H592 H 0.57103 0.86933 0.14173 0.0
H593 H 0.5295 0.90254 0.16873 0.0
H594 H 0.51202 0.94417 0.91013 0.0
H595 H 0.52148 0.92119 0.98321 0.0
C596 C 0.68651 0.4294 0.99248 0.0
C597 C 0.68483 0.41758 0.04276 0.0
C598 C 0.67141 0.43729 0.97035 0.0
C599 C 0.62009 0.43015 0.97905 0.0
H600 H 0.62745 0.48513 0.91366 0.0
C601 C 0.55927 0.47143 0.93973 0.0
C602 C 0.55903 0.48378 0.89088 0.0
C603 C 0.57487 0.46318 0.95443 0.0
C604 C 0.62521 0.46967 0.93113 0.0
H605 H 0.66588 0.40456 0.10883 0.0
H606 H 0.63973 0.41862 0.07089 0.0
H607 H 0.65431 0.47098 0.94657 0.0
H608 H 0.57484 0.49722 0.81891 0.0
H609 H 0.60229 0.48273 0.84472 0.0
H610 H 0.59101 0.42889 0.96435 0.0
C611 C 0.65264 0.42164 0.04822 0.0
C612 C 0.64059 0.46156 0.94998 0.0
C613 C 0.66772 0.4138 0.07033 0.0
C614 C 0.57472 0.4878 0.85695 0.0
C615 C 0.59042 0.47957 0.87178 0.0
C616 C 0.60475 0.43825 0.96032 0.0
C617 C 0.65429 0.43346 0.99795 0.0
C618 C 0.63816 0.44179 0.97487 0.0
C619 C 0.5906 0.46709 0.92061 0.0
C620 C 0.6071 0.45818 0.93688 0.0
H621 H 0.69956 0.43273 0.97044 0.0
H622 H 0.67308 0.44621 0.93138 0.0
H623 H 0.61777 0.41474 0.99694 0.0
H624 H 0.54736 0.46809 0.96668 0.0
H625 H 0.57467 0.45389 0.99269 0.0
C626 C 0.95728 0.64719 0.0917 0.0
C627 C 0.957 0.64216 0.14803 0.0
C628 C 0.95757 0.63266 0.05705 0.0
C629 C 0.95063 0.57817 0.04901 0.0
H630 H 0.99034 0.59339 0.94279 0.0
C631 C 0.98313 0.52046 0.95315 0.0
C632 C 0.99011 0.52509 0.90022 0.0
C633 C 0.97591 0.53449 0.97824 0.0
C634 C 0.97892 0.58893 0.97132 0.0
H635 H 0.95553 0.61769 0.21199 0.0
H636 H 0.95611 0.5923 0.15148 0.0
H637 H 0.98272 0.61824 0.99589 0.0
H638 H 0.99421 0.54762 0.83094 0.0
H639 H 0.9812 0.57205 0.87426 0.0
H640 H 0.947 0.54877 0.02492 0.0
C641 C 0.9561 0.60749 0.1341 0.0
C642 C 0.97456 0.60322 0.0019 0.0
C643 C 0.9559 0.62206 0.1688 0.0
C644 C 0.98905 0.54373 0.87198 0.0
C645 C 0.9817 0.55775 0.89696 0.0
C646 C 0.9549 0.56389 0.01811 0.0
C647 C 0.95751 0.61275 0.07791 0.0
C648 C 0.96061 0.59794 0.04177 0.0
C649 C 0.97535 0.55344 0.95081 0.0
C650 C 0.96935 0.569 0.97959 0.0
H651 H 0.95831 0.66256 0.07434 0.0
H652 H 0.95844 0.63712 0.01392 0.0
H653 H 0.93965 0.57371 0.07899 0.0
H654 H 0.98376 0.50618 0.97587 0.0
H655 H 0.97142 0.53069 0.0199 0.0
C656 C 0.09233 0.2031 0.58689 0.0
C657 C 0.08298 0.21779 0.56214 0.0
C658 C 0.08233 0.18524 0.61302 0.0
C659 C 0.03595 0.15272 0.61415 0.0
H660 H 0.05442 0.12625 0.74395 0.0
C661 C 0.01569 0.07733 0.77801 0.0
C662 C 0.0109 0.06281 0.74218 0.0
C663 C 0.02207 0.09731 0.75854 0.0
C664 C 0.04889 0.13355 0.70812 0.0
H665 H 0.05575 0.22532 0.54623 0.0
H666 H 0.03839 0.19444 0.59303 0.0
H667 H 0.07057 0.15939 0.70778 0.0
H668 H 0.00803 0.05804 0.65771 0.0
H669 H 0.01938 0.09292 0.62358 0.0
H670 H 0.0142 0.12689 0.61468 0.0
C671 C 0.05344 0.19661 0.59161 0.0
C672 C 0.05831 0.15245 0.68701 0.0
C673 C 0.06343 0.21444 0.56543 0.0
C674 C 0.01157 0.06888 0.68637 0.0
C675 C 0.01806 0.08889 0.66682 0.0
C676 C 0.0265 0.13382 0.63532 0.0
C677 C 0.06275 0.18168 0.61501 0.0
C678 C 0.05208 0.16216 0.63942 0.0
C679 C 0.02387 0.10323 0.70274 0.0
C680 C 0.03298 0.12392 0.68223 0.0
H681 H 0.10739 0.2053 0.58551 0.0
H682 H 0.08993 0.17398 0.63023 0.0
H683 H 0.03088 0.1597 0.5771 0.0
H684 H 0.01496 0.07321 0.82122 0.0
H685 H 0.026 0.10806 0.78727 0.0
C686 C 0.32404 0.98336 0.66338 0.0
C687 C 0.32678 0.00426 0.66159 0.0
C688 C 0.33581 0.97264 0.69408 0.0
C689 C 0.37422 0.97845 0.79638 0.0
H690 H 0.39151 0.93872 0.72292 0.0
C691 C 0.44495 0.96107 0.85161 0.0
C692 C 0.45616 0.96137 0.80642 0.0
C693 C 0.42557 0.95771 0.84675 0.0
C694 C 0.3869 0.9498 0.74406 0.0
H695 H 0.34336 0.03009 0.69343 0.0
H696 H 0.36437 0.01179 0.74402 0.0
H697 H 0.36407 0.95121 0.69001 0.0
H698 H 0.45606 0.95659 0.72213 0.0
H699 H 0.42257 0.95185 0.71251 0.0
H700 H 0.39803 0.9788 0.84668 0.0
C701 C 0.35294 0.00344 0.72291 0.0
C702 C 0.37091 0.95677 0.72564 0.0
C703 C 0.34107 0.01407 0.69287 0.0
C704 C 0.4477 0.95636 0.75767 0.0
C705 C 0.42836 0.95356 0.75235 0.0
C706 C 0.39043 0.97188 0.81395 0.0
C707 C 0.35068 0.98261 0.72331 0.0
C708 C 0.3649 0.97192 0.74998 0.0
C709 C 0.41709 0.95529 0.7961 0.0
C710 C 0.39752 0.95815 0.78641 0.0
H711 H 0.31321 0.9753 0.63962 0.0
H712 H 0.33347 0.9566 0.69394 0.0
H713 H 0.36963 0.98959 0.81741 0.0
H714 H 0.4512 0.96462 0.88993 0.0
H715 H 0.41739 0.95837 0.88195 0.0
C716 C 0.42769 0.26456 0.46904 0.0
C717 C 0.4235 0.26831 0.41393 0.0
C718 C 0.43492 0.28031 0.49889 0.0
C719 C 0.44252 0.33527 0.49783 0.0
H720 H 0.48808 0.32889 0.5742 0.0
C721 C 0.49664 0.40258 0.55032 0.0
C722 C 0.50554 0.40132 0.6007 0.0
C723 C 0.48523 0.38579 0.53287 0.0
C724 C 0.47523 0.33083 0.55387 0.0
H725 H 0.42284 0.2917 0.34782 0.0
H726 H 0.4351 0.31903 0.39997 0.0
H727 H 0.46913 0.30048 0.53651 0.0
H728 H 0.50954 0.38146 0.67224 0.0
H729 H 0.48957 0.35203 0.64168 0.0
H730 H 0.44878 0.3657 0.51429 0.0
C731 C 0.43272 0.30394 0.42023 0.0
C732 C 0.46435 0.31454 0.53237 0.0
C733 C 0.42561 0.28822 0.39033 0.0
C734 C 0.50305 0.38281 0.6329 0.0
C735 C 0.49157 0.36599 0.61547 0.0
C736 C 0.45337 0.35154 0.51946 0.0
C737 C 0.43797 0.30013 0.47436 0.0
C738 C 0.44808 0.31669 0.50316 0.0
C739 C 0.48239 0.36735 0.56545 0.0
C740 C 0.47006 0.34962 0.54669 0.0
H741 H 0.42593 0.24941 0.48869 0.0
H742 H 0.43858 0.27696 0.54081 0.0
H743 H 0.42992 0.3373 0.47616 0.0
H744 H 0.4985 0.41658 0.52431 0.0
H745 H 0.47872 0.38725 0.49357 0.0
C746 C 0.1973 0.58066 0.67619 0.0
C747 C 0.20244 0.58722 0.62221 0.0
C748 C 0.18051 0.58374 0.69622 0.0
C749 C 0.14425 0.59276 0.73345 0.0
H750 H 0.10538 0.57677 0.63047 0.0
C751 C 0.05935 0.56054 0.71878 0.0
C752 C 0.05803 0.5452 0.76186 0.0
C753 C 0.07656 0.57292 0.70493 0.0
C754 C 0.11596 0.58176 0.65952 0.0
H755 H 0.19524 0.60415 0.54872 0.0
H756 H 0.16608 0.60992 0.58397 0.0
H757 H 0.13745 0.58652 0.60025 0.0
H758 H 0.07352 0.5318 0.82642 0.0
H759 H 0.10329 0.55311 0.80223 0.0
H760 H 0.12267 0.5867 0.79333 0.0
C761 C 0.17472 0.60188 0.61043 0.0
C762 C 0.13444 0.5874 0.64215 0.0
C763 C 0.19144 0.59867 0.59029 0.0
C764 C 0.07401 0.54332 0.79274 0.0
C765 C 0.09111 0.55573 0.77919 0.0
C766 C 0.12573 0.58704 0.75087 0.0
C767 C 0.16859 0.59356 0.66271 0.0
C768 C 0.14891 0.59219 0.67927 0.0
C769 C 0.09271 0.57029 0.7342 0.0
C770 C 0.11149 0.5807 0.71444 0.0
H771 H 0.20542 0.57166 0.70162 0.0
H772 H 0.17624 0.57696 0.73653 0.0
H773 H 0.15501 0.59675 0.76289 0.0
H774 H 0.04729 0.56246 0.69429 0.0
H775 H 0.07733 0.58413 0.67029 0.0
C776 C 0.97579 0.79637 0.08484 0.0
C777 C 0.98822 0.78326 0.08294 0.0
C778 C 0.97692 0.81311 0.04686 0.0
C779 C 0.01084 0.84752 0.95816 0.0
H780 H 0.9673 0.86944 0.91242 0.0
C781 C 0.98929 0.92287 0.83353 0.0
C782 C 0.00243 0.93741 0.85615 0.0
C783 C 0.98804 0.90263 0.85142 0.0
C784 C 0.97963 0.86344 0.92395 0.0
H785 H 0.01107 0.77688 0.03828 0.0
H786 H 0.01291 0.80613 0.97108 0.0
H787 H 0.96337 0.83569 0.95844 0.0
H788 H 0.02479 0.9421 0.91452 0.0
H789 H 0.0223 0.90689 0.94666 0.0
H790 H 0.02711 0.87529 0.92374 0.0
C791 C 0.00244 0.80355 0.00256 0.0
C792 C 0.97736 0.84415 0.95089 0.0
C793 C 0.00129 0.78673 0.0407 0.0
C794 C 0.01453 0.93127 0.89623 0.0
C795 C 0.0132 0.91105 0.91434 0.0
C796 C 0.01312 0.86678 0.93096 0.0
C797 C 0.99048 0.81712 0.00585 0.0
C798 C 0.99292 0.8362 0.96974 0.0
C799 C -0.00017 0.89649 0.8925 0.0
C800 C 0.99753 0.87517 0.91493 0.0
H801 H 0.96536 0.7939 0.11643 0.0
H802 H 0.96762 0.82334 0.05105 0.0
H803 H 0.02313 0.8419 0.97236 0.0
H804 H 0.97989 0.92709 0.80212 0.0
H805 H 0.97777 0.89179 0.83322 0.0
C806 C 0.69542 0.05328 0.97317 0.0
C807 C 0.70782 0.07169 0.9712 0.0
C808 C 0.68023 0.05077 0.93845 0.0
C809 C 0.65454 0.0452 0.84456 0.0
H810 H 0.62374 0.08541 0.82453 0.0
C811 C 0.57283 0.04688 0.81416 0.0
C812 C 0.56815 0.0311 0.78237 0.0
C813 C 0.59147 0.05552 0.82166 0.0
C814 C 0.63218 0.07401 0.82972 0.0
H815 H 0.71405 0.10197 0.93142 0.0
H816 H 0.68738 0.09752 0.86982 0.0
H817 H 0.65358 0.09261 0.87055 0.0
H818 H 0.57896 0.01329 0.72897 0.0
H819 H 0.61146 0.02904 0.73962 0.0
H820 H 0.63272 0.02597 0.80818 0.0
C821 C 0.68941 0.08508 0.89868 0.0
C822 C 0.64942 0.07825 0.8555 0.0
C823 C 0.70464 0.08764 0.93386 0.0
C824 C 0.58227 0.02524 0.75446 0.0
C825 C 0.60089 0.0342 0.7609 0.0
C826 C 0.63726 0.04086 0.8196 0.0
C827 C 0.67707 0.06656 0.90051 0.0
C828 C 0.66045 0.06359 0.86501 0.0
C829 C 0.6058 0.04879 0.79663 0.0
C830 C 0.62553 0.05495 0.81348 0.0
H831 H 0.69727 0.04086 0.00235 0.0
H832 H 0.67072 0.03648 0.94223 0.0
H833 H 0.66294 0.03376 0.84996 0.0
H834 H 0.56219 0.05165 0.83626 0.0
H835 H 0.59459 0.06653 0.84993 0.0
C836 C 0.54247 0.71978 0.20813 0.0
C837 C 0.52982 0.73226 0.21512 0.0
C838 C 0.54019 0.70782 0.16605 0.0
C839 C 0.53644 0.68927 0.06105 0.0
H840 H 0.48679 0.65754 0.05077 0.0
C841 C 0.49367 0.61833 0.94939 0.0
C842 C 0.50638 0.60541 0.9597 0.0
C843 C 0.49695 0.63691 0.96918 0.0
C844 C 0.50065 0.66655 0.05212 0.0
H845 H 0.50521 0.74253 0.18255 0.0
H846 H 0.50122 0.72156 0.10864 0.0
H847 H 0.49194 0.68512 0.10579 0.0
H848 H 0.5326 0.60198 0.9982 0.0
H849 H 0.53828 0.63423 0.03275 0.0
H850 H 0.54525 0.67023 0.00881 0.0
C851 C 0.51285 0.721 0.13598 0.0
C852 C 0.5036 0.68237 0.0837 0.0
C853 C 0.5152 0.73308 0.178 0.0
C854 C 0.52267 0.6117 0.98883 0.0
C855 C 0.52595 0.63023 0.00856 0.0
C856 C 0.53348 0.67348 0.02937 0.0
C857 C 0.52517 0.70803 0.13011 0.0
C858 C 0.52162 0.6935 0.08978 0.0
C859 C 0.51301 0.64293 0.99966 0.0
C860 C 0.51565 0.66157 0.02591 0.0
H861 H 0.55401 0.71905 0.23574 0.0
H862 H 0.5498 0.69782 0.16299 0.0
H863 H 0.55042 0.69783 0.06428 0.0
H864 H 0.48113 0.61402 0.92634 0.0
H865 H 0.48683 0.64647 0.96115 0.0
C866 C 0.83329 0.4071 0.02177 0.0
C867 C 0.81944 0.39106 0.00931 0.0
C868 C 0.8509 0.41045 0.9982 0.0
C869 C 0.87517 0.40376 0.8786 0.0
H870 H 0.91911 0.41819 0.96602 0.0
C871 C 0.96014 0.43567 0.85906 0.0
C872 C 0.95983 0.45243 0.82119 0.0
C873 C 0.94348 0.42327 0.87774 0.0
C874 C 0.90706 0.41384 0.94106 0.0
H875 H 0.8131 0.36591 0.9626 0.0
H876 H 0.84404 0.37207 0.92019 0.0
H877 H 0.88892 0.40574 0.00969 0.0
H878 H 0.94195 0.46843 0.77009 0.0
H879 H 0.913 0.44683 0.80252 0.0
H880 H 0.89325 0.41268 0.8098 0.0
C881 C 0.84119 0.38191 0.94856 0.0
C882 C 0.88976 0.4069 0.96606 0.0
C883 C 0.82357 0.37837 0.97285 0.0
C884 C 0.94265 0.45574 0.79966 0.0
C885 C 0.92604 0.44325 0.81791 0.0
C886 C 0.89249 0.4109 0.85349 0.0
C887 C 0.85502 0.39796 0.96125 0.0
C888 C 0.87358 0.40233 0.93504 0.0
C889 C 0.92624 0.42727 0.85839 0.0
C890 C 0.90853 0.4165 0.88446 0.0
H891 H 0.83054 0.41697 0.05021 0.0
H892 H 0.86122 0.42307 0.00821 0.0
H893 H 0.8629 0.40039 0.85375 0.0
H894 H 0.97316 0.43271 0.87635 0.0
H895 H 0.94403 0.41095 0.90865 0.0
C896 C 0.07632 0.23259 0.20308 0.0
C897 C 0.09453 0.23852 0.22233 0.0
C898 C 0.072 0.21656 0.17221 0.0
C899 C 0.0927 0.1847 0.09011 0.0
H900 H 0.04841 0.14526 0.13248 0.0
C901 C 0.07814 0.10611 0.01744 0.0
C902 C 0.05959 0.09759 0.00614 0.0
C903 C 0.08235 0.12405 0.04061 0.0
C904 C 0.06068 0.15624 0.11946 0.0
H905 H 0.12252 0.23228 0.22306 0.0
H906 H 0.11503 0.20463 0.16865 0.0
H907 H 0.05569 0.17566 0.17642 0.0
H908 H 0.03091 0.10139 0.01078 0.0
H909 H 0.03828 0.13286 0.04936 0.0
H910 H 0.09771 0.16526 0.03315 0.0
C911 C 0.10413 0.2125 0.1771 0.0
C912 C 0.06485 0.17369 0.14472 0.0
C913 C 0.10843 0.22844 0.2082 0.0
C914 C 0.04539 0.1076 0.01816 0.0
C915 C 0.04959 0.12555 0.04108 0.0
C916 C 0.08848 0.16727 0.0646 0.0
C917 C 0.0858 0.20613 0.15958 0.0
C918 C 0.08096 0.18808 0.13059 0.0
C919 C 0.06811 0.13396 0.05298 0.0
C920 C 0.07246 0.15276 0.07915 0.0
H921 H 0.06532 0.24019 0.21244 0.0
H922 H 0.0578 0.21221 0.15857 0.0
H923 H 0.10512 0.19559 0.07792 0.0
H924 H 0.08946 0.09894 0.00825 0.0
H925 H 0.09675 0.12995 0.04972 0.0
C926 C 0.32147 0.02166 0.30303 0.0
C927 C 0.31256 0.03815 0.29989 0.0
C928 C 0.33304 0.01936 0.26125 0.0
C929 C 0.34716 0.03788 0.11865 0.0
H930 H 0.39319 0.02109 0.16465 0.0
C931 C 0.41247 0.04845 0.98175 0.0
C932 C 0.42224 0.03264 0.98527 0.0
C933 C 0.39754 0.04778 0.01659 0.0
C934 C 0.38031 0.02556 0.15105 0.0
H935 H 0.30807 0.06454 0.2486 0.0
H936 H 0.32875 0.06092 0.17667 0.0
H937 H 0.36981 0.02213 0.23154 0.0
H938 H 0.42384 0.00362 0.02769 0.0
H939 H 0.39778 0.00242 0.08813 0.0
H940 H 0.3581 0.04185 0.03807 0.0
C941 C 0.32664 0.04962 0.2112 0.0
C942 C 0.36683 0.02609 0.18941 0.0
C943 C 0.31494 0.05183 0.25283 0.0
C944 C 0.4165 0.01596 0.02354 0.0
C945 C 0.40169 0.01535 0.05855 0.0
C946 C 0.36074 0.03749 0.08023 0.0
C947 C 0.33616 0.03358 0.2154 0.0
C948 C 0.35008 0.03229 0.1738 0.0
C949 C 0.39221 0.03137 0.05597 0.0
C950 C 0.37747 0.03134 0.09609 0.0
H951 H 0.32016 0.0109 0.33875 0.0
H952 H 0.33983 0.00661 0.26545 0.0
H953 H 0.33434 0.0425 0.10507 0.0
H954 H 0.41649 0.06143 0.95242 0.0
H955 H 0.39057 0.06039 0.01386 0.0
C956 C 0.47126 0.29141 0.08484 0.0
C957 C 0.45309 0.28014 0.08193 0.0
C958 C 0.47634 0.31001 0.0542 0.0
C959 C 0.46439 0.34187 0.93505 0.0
H960 H 0.48733 0.38561 0.01436 0.0
C961 C 0.49739 0.42154 0.83572 0.0
C962 C 0.49311 0.43763 0.85991 0.0
C963 C 0.49161 0.4019 0.85962 0.0
C964 C 0.48087 0.37356 0.99173 0.0
H965 H 0.42623 0.27959 0.0427 0.0
H966 H 0.43536 0.3117 0.98814 0.0
H967 H 0.47981 0.35175 0.0609 0.0
H968 H 0.47906 0.44563 0.92752 0.0
H969 H 0.46921 0.41136 0.96952 0.0
H970 H 0.4656 0.36377 0.86574 0.0
C971 C 0.44561 0.30609 0.0144 0.0
C972 C 0.47674 0.35416 0.01822 0.0
C973 C 0.44043 0.2876 0.04557 0.0
C974 C 0.48254 0.4336 0.90776 0.0
C975 C 0.47701 0.41399 0.93204 0.0
C976 C 0.4688 0.36127 0.9083 0.0
C977 C 0.46348 0.31767 0.01929 0.0
C978 C 0.46838 0.33812 0.99026 0.0
C979 C 0.48169 0.39796 0.90861 0.0
C980 C 0.47697 0.37733 0.93651 0.0
H981 H 0.48154 0.28602 0.1114 0.0
H982 H 0.49032 0.3185 0.05815 0.0
H983 H 0.458 0.32977 0.9125 0.0
H984 H 0.50548 0.42414 0.79877 0.0
H985 H 0.49547 0.38984 0.84078 0.0
C986 C 0.21488 0.54733 0.29502 0.0
C987 C 0.22698 0.534 0.30935 0.0
C988 C 0.20237 0.54432 0.2524 0.0
C989 C 0.19025 0.51721 0.13311 0.0
H990 H 0.13963 0.51889 0.17261 0.0
C991 C 0.12585 0.4845 0.00974 0.0
C992 C 0.11068 0.49441 0.00612 0.0
C993 C 0.14111 0.49062 0.04267 0.0
C994 C 0.1537 0.51868 0.16036 0.0
H995 H 0.23628 0.50782 0.28782 0.0
H996 H 0.21428 0.5025 0.21332 0.0
H997 H 0.16487 0.52804 0.23508 0.0
H998 H 0.09985 0.51872 0.0342 0.0
H999 H 0.12664 0.52982 0.08954 0.0
H1000 H 0.179 0.50782 0.05822 0.0
C1001 C 0.21452 0.51528 0.23518 0.0
C1002 C 0.16819 0.52391 0.1963 0.0
C1003 C 0.22701 0.51824 0.27806 0.0
C1004 C 0.11134 0.51085 0.03536 0.0
C1005 C 0.12663 0.51705 0.06784 0.0
C1006 C 0.17573 0.51211 0.09681 0.0
C1007 C 0.20169 0.52795 0.22304 0.0
C1008 C 0.18661 0.52319 0.1832 0.0
C1009 C 0.1416 0.50686 0.07255 0.0
C1010 C 0.15725 0.51272 0.11012 0.0
H1011 H 0.21433 0.5595 0.31856 0.0
H1012 H 0.19281 0.55449 0.24349 0.0
H1013 H 0.20434 0.51661 0.12186 0.0
H1014 H 0.12595 0.47196 0.98723 0.0
H1015 H 0.1523 0.4823 0.04565 0.0
C1016 C 0.94282 0.77643 0.38487 0.0
C1017 C 0.95044 0.76118 0.41439 0.0
C1018 C 0.94058 0.79328 0.40866 0.0
C1019 C 0.96209 0.82324 0.51293 0.0
H1020 H 0.92078 0.85097 0.48736 0.0
C1021 C 0.96808 0.90537 0.54955 0.0
C1022 C 0.95351 0.91005 0.5784 0.0
C1023 C 0.96629 0.88671 0.53077 0.0
C1024 C 0.93236 0.84333 0.49507 0.0
H1025 H 0.96032 0.75109 0.49342 0.0
H1026 H 0.95663 0.78063 0.53465 0.0
H1027 H 0.91904 0.81829 0.45519 0.0
H1028 H 0.9254 0.89903 0.60871 0.0
H1029 H 0.92223 0.86638 0.57547 0.0
H1030 H 0.97554 0.8483 0.55208 0.0
C1031 C 0.95263 0.77962 0.49284 0.0
C1032 C 0.9314 0.82469 0.47644 0.0
C1033 C 0.95474 0.7627 0.4692 0.0
C1034 C 0.93691 0.8958 0.58691 0.0
C1035 C 0.93505 0.87718 0.5676 0.0
C1036 C 0.96313 0.84192 0.53098 0.0
C1037 C 0.94602 0.79534 0.4624 0.0
C1038 C 0.9463 0.81449 0.485 0.0
C1039 C 0.94983 0.87235 0.53999 0.0
C1040 C 0.94835 0.85224 0.52192 0.0
H1041 H 0.9396 0.77598 0.3424 0.0
H1042 H 0.93558 0.80521 0.38401 0.0
H1043 H 0.9739 0.81589 0.51957 0.0
H1044 H 0.9811 0.91595 0.54277 0.0
H1045 H 0.97784 0.88349 0.5091 0.0
C1046 C 0.70356 0.01184 0.29418 0.0
C1047 C 0.71969 0.02359 0.31347 0.0
C1048 C 0.68948 0.00171 0.32982 0.0
C1049 C 0.67137 0.00311 0.46663 0.0
H1050 H 0.64015 0.95283 0.43936 0.0
C1051 C 0.61172 0.96326 0.61053 0.0
C1052 C 0.59441 0.95767 0.5855 0.0
C1053 C 0.62803 0.96892 0.57976 0.0
C1054 C 0.64875 0.96689 0.44737 0.0
H1055 H 0.73412 0.03325 0.38528 0.0
H1056 H 0.70978 0.01511 0.44787 0.0
H1057 H 0.66723 0.96693 0.38189 0.0
H1058 H 0.58072 0.95273 0.50899 0.0
H1059 H 0.60929 0.96259 0.45516 0.0
H1060 H 0.65288 0.00303 0.53208 0.0
C1061 C 0.70774 0.01414 0.40505 0.0
C1062 C 0.66423 0.97502 0.41438 0.0
C1063 C 0.72173 0.02447 0.3693 0.0
C1064 C 0.59386 0.9571 0.5293 0.0
C1065 C 0.61021 0.96259 0.49858 0.0
C1066 C 0.65603 0.99488 0.49988 0.0
C1067 C 0.69126 0.00292 0.3857 0.0
C1068 C 0.67561 0.99339 0.42313 0.0
C1069 C 0.62741 0.96896 0.52339 0.0
C1070 C 0.64442 0.97681 0.49022 0.0
H1071 H 0.7015 0.01111 0.25125 0.0
H1072 H 0.6769 0.99352 0.31322 0.0
H1073 H 0.67954 0.01745 0.47407 0.0
H1074 H 0.61257 0.96402 0.65368 0.0
H1075 H 0.64112 0.9736 0.6 0.0
C1076 C 0.57827 0.70594 0.52917 0.0
C1077 C 0.57082 0.71907 0.55788 0.0
C1078 C 0.58035 0.68717 0.55395 0.0
C1079 C 0.57752 0.65516 0.68728 0.0
H1080 H 0.56119 0.61239 0.59825 0.0
C1081 C 0.54495 0.57447 0.77159 0.0
C1082 C 0.54962 0.55859 0.74737 0.0
C1083 C 0.55179 0.59425 0.75076 0.0
C1084 C 0.5661 0.62415 0.62346 0.0
H1085 H 0.56114 0.72322 0.63668 0.0
H1086 H 0.56397 0.69031 0.67911 0.0
H1087 H 0.56572 0.64688 0.55763 0.0
H1088 H 0.56559 0.55109 0.68306 0.0
H1089 H 0.57732 0.58577 0.64603 0.0
H1090 H 0.57685 0.6322 0.75367 0.0
C1091 C 0.56846 0.69452 0.63756 0.0
C1092 C 0.56878 0.644 0.60015 0.0
C1093 C 0.56659 0.71338 0.61295 0.0
C1094 C 0.56176 0.56298 0.70273 0.0
C1095 C 0.5684 0.58281 0.68137 0.0
C1096 C 0.57463 0.63529 0.71069 0.0
C1097 C 0.57484 0.68091 0.60796 0.0
C1098 C 0.57419 0.65982 0.63189 0.0
C1099 C 0.56327 0.59864 0.70476 0.0
C1100 C 0.56857 0.61958 0.67918 0.0
H1101 H 0.58159 0.70965 0.48663 0.0
H1102 H 0.58573 0.67731 0.53013 0.0
H1103 H 0.58205 0.66688 0.71286 0.0
H1104 H 0.53564 0.57166 0.80599 0.0
H1105 H 0.54742 0.60609 0.76936 0.0
C1106 C 0.79233 0.43954 0.3351 0.0
C1107 C 0.79404 0.42101 0.31897 0.0
C1108 C 0.80575 0.44946 0.36845 0.0
C1109 C 0.85495 0.45196 0.40802 0.0
H1110 H 0.84264 0.48061 0.52323 0.0
C1111 C 0.90968 0.48176 0.56113 0.0
C1112 C 0.91029 0.5012 0.57442 0.0
C1113 C 0.89488 0.47238 0.53144 0.0
C1114 C 0.84628 0.47284 0.49082 0.0
H1115 H 0.81112 0.39831 0.3262 0.0
H1116 H 0.83409 0.41525 0.3854 0.0
H1117 H 0.81769 0.46313 0.46956 0.0
H1118 H 0.89556 0.52587 0.56788 0.0
H1119 H 0.86954 0.50938 0.51581 0.0
H1120 H 0.88346 0.46153 0.42918 0.0
C1121 C 0.82255 0.42229 0.3716 0.0
C1122 C 0.832 0.46283 0.4601 0.0
C1123 C 0.8092 0.41242 0.33825 0.0
C1124 C 0.89545 0.51086 0.55846 0.0
C1125 C 0.88056 0.50142 0.5287 0.0
C1126 C 0.86916 0.46189 0.4387 0.0
C1127 C 0.82118 0.44109 0.38635 0.0
C1128 C 0.83619 0.45212 0.41865 0.0
C1129 C 0.88025 0.48216 0.51434 0.0
C1130 C 0.865 0.47229 0.48076 0.0
H1131 H 0.78072 0.44648 0.32148 0.0
H1132 H 0.80431 0.46396 0.37888 0.0
H1133 H 0.85871 0.44429 0.37556 0.0
H1134 H 0.92063 0.47368 0.574 0.0
H1135 H 0.89485 0.45737 0.52208 0.0
loop_
_geom_bond_atom_site_label_1
_geom_bond_atom_site_label_2
_geom_bond_distance
_geom_bond_site_symmetry_2
_ccdc_geom_bond_type
P0 O11 1.490 . S
P0 C14 1.812 . S
P0 C20 1.803 . S
P0 C26 1.819 . S
H1 C15 0.941 . S
H2 C16 0.939 . S
H3 C18 0.940 . S
H4 C19 0.940 . S
H5 C21 0.939 . S
H6 C22 0.942 1_556 S
H7 C24 0.940 . S
H8 C25 0.939 . S
H9 C27 0.941 . S
H10 C31 0.939 . S
O11 P0 1.490 . S
H12 C28 0.939 . S
H13 C30 0.940 . S
C14 P0 1.812 . S
C14 C15 1.389 . S
C14 C19 1.391 . S
C15 H1 0.941 . S
C15 C14 1.389 . S
C15 C16 1.397 . S
C16 H2 0.939 . S
C16 C15 1.397 . S
C16 C17 1.378 . S
C17 C16 1.378 . S
C17 C18 1.378 . S
C18 H3 0.940 . S
C18 C17 1.378 . S
C18 C19 1.396 . S
C19 H4 0.940 . S
C19 C14 1.391 . S
C19 C18 1.396 . S
C20 P0 1.803 . S
C20 C21 1.378 . S
C20 C25 1.400 . S
C21 H5 0.939 . S
C21 C20 1.378 . S
C21 C22 1.361 . S
C22 H6 0.942 1_554 S
C22 C21 1.361 . S
C22 C23 1.369 . S
C23 C22 1.369 . S
C23 C24 1.404 . S
C24 H7 0.940 . S
C24 C23 1.404 . S
C24 C25 1.389 . S
C25 H8 0.939 . S
C25 C20 1.400 . S
C25 C24 1.389 . S
C26 P0 1.819 . S
C26 C27 1.391 . S
C26 C31 1.391 1_554 S
C27 H9 0.941 . S
C27 C26 1.391 . S
C27 C28 1.396 1_554 S
C28 H12 0.939 . S
C28 C27 1.396 1_556 S
C28 C29 1.397 . S
C29 C28 1.397 . S
C29 C30 1.385 . S
C30 H13 0.940 . S
C30 C29 1.385 . S
C30 C31 1.388 . S
C31 H10 0.939 . S
C31 C26 1.391 1_556 S
C31 C30 1.388 . S
P32 O43 1.490 . S
P32 C46 1.812 . S
P32 C52 1.803 . S
P32 C58 1.819 . S
H33 C47 0.941 . S
H34 C48 0.939 . S
H35 C50 0.940 . S
H36 C51 0.940 . S
H37 C53 0.939 . S
H38 C54 0.942 1_556 S
H39 C56 0.940 . S
H40 C57 0.939 . S
H41 C59 0.941 . S
H42 C63 0.939 . S
O43 P32 1.490 . S
H44 C60 0.939 . S
H45 C62 0.940 . S
C46 P32 1.812 . S
C46 C47 1.389 . S
C46 C51 1.391 . S
C47 H33 0.941 . S
C47 C46 1.389 . S
C47 C48 1.397 . S
C48 H34 0.939 . S
C48 C47 1.397 . S
C48 C49 1.378 . S
C49 C48 1.378 . S
C49 C50 1.378 . S
C50 H35 0.940 . S
C50 C49 1.378 . S
C50 C51 1.396 . S
C51 H36 0.940 . S
C51 C46 1.391 . S
C51 C50 1.396 . S
C52 P32 1.803 . S
C52 C53 1.378 . S
C52 C57 1.400 . S
C53 H37 0.939 . S
C53 C52 1.378 . S
C53 C54 1.361 . S
C54 H38 0.942 1_554 S
C54 C53 1.361 . S
C54 C55 1.369 . S
C55 C54 1.369 . S
C55 C56 1.404 . S
C56 H39 0.940 . S
C56 C55 1.404 . S
C56 C57 1.389 . S
C57 H40 0.939 . S
C57 C52 1.400 . S
C57 C56 1.389 . S
C58 P32 1.819 . S
C58 C59 1.391 . S
C58 C63 1.391 1_554 S
C59 H41 0.941 . S
C59 C58 1.391 . S
C59 C60 1.396 1_554 S
C60 H44 0.939 . S
C60 C59 1.396 1_556 S
C60 C61 1.397 . S
C61 C60 1.397 . S
C61 C62 1.385 . S
C62 H45 0.940 . S
C62 C61 1.385 . S
C62 C63 1.388 . S
C63 H42 0.939 . S
C63 C58 1.391 1_556 S
C63 C62 1.388 . S
P64 O75 1.490 . S
P64 C78 1.812 1_556 S
P64 C84 1.803 . S
P64 C90 1.819 . S
H65 C79 0.941 . S
H66 C80 0.939 . S
H67 C82 0.940 . S
H68 C83 0.951 . S
H69 C85 0.939 . S
H70 C86 0.942 . S
H71 C88 0.940 1_554 S
H72 C89 0.953 . S
H73 C91 0.941 . S
H74 C95 0.923 1_565 S
O75 P64 1.490 . S
H76 C92 0.939 . S
H77 C94 0.940 . S
C78 P64 1.812 1_554 S
C78 C79 1.389 . S
C78 C83 1.377 1_545 S
C79 H65 0.941 . S
C79 C78 1.389 . S
C79 C80 1.397 . S
C80 H66 0.939 . S
C80 C79 1.397 . S
C80 C81 1.378 . S
C81 C80 1.378 . S
C81 C82 1.378 1_545 S
C82 H67 0.940 . S
C82 C81 1.378 1_565 S
C82 C83 1.399 . S
C83 H68 0.951 . S
C83 C78 1.377 1_565 S
C83 C82 1.399 . S
C84 P64 1.803 . S
C84 C85 1.378 . S
C84 C89 1.367 1_546 S
C85 H69 0.939 . S
C85 C84 1.378 . S
C85 C86 1.361 . S
C86 H70 0.942 . S
C86 C85 1.361 . S
C86 C87 1.369 . S
C87 C86 1.369 . S
C87 C88 1.404 1_545 S
C88 H71 0.940 1_556 S
C88 C87 1.404 1_565 S
C88 C89 1.409 1_556 S
C89 H72 0.953 . S
C89 C84 1.367 1_564 S
C89 C88 1.409 1_554 S
C90 P64 1.819 . S
C90 C91 1.391 . S
C90 C95 1.391 . S
C91 H73 0.941 . S
C91 C90 1.391 . S
C91 C92 1.396 . S
C92 H76 0.939 . S
C92 C91 1.396 . S
C92 C93 1.397 . S
C93 C92 1.397 . S
C93 C94 1.385 1_545 S
C94 H77 0.940 . S
C94 C93 1.385 1_565 S
C94 C95 1.388 1_565 S
C95 H74 0.923 1_545 S
C95 C90 1.391 . S
C95 C94 1.388 1_545 S
P96 O107 1.490 . S
P96 C110 1.812 . S
P96 C116 1.803 . S
P96 C122 1.819 . S
H97 C111 0.941 . S
H98 C112 0.939 . S
H99 C114 0.940 . S
H100 C115 0.940 . S
H101 C117 0.939 . S
H102 C118 0.942 . S
H103 C120 0.940 . S
H104 C121 0.939 . S
H105 C123 0.941 . S
H106 C127 0.939 . S
O107 P96 1.490 . S
H108 C124 0.939 . S
H109 C126 0.940 . S
C110 P96 1.812 . S
C110 C111 1.389 . S
C110 C115 1.391 . S
C111 H97 0.941 . S
C111 C110 1.389 . S
C111 C112 1.397 . S
C112 H98 0.939 . S
C112 C111 1.397 . S
C112 C113 1.378 . S
C113 C112 1.378 . S
C113 C114 1.378 . S
C114 H99 0.940 . S
C114 C113 1.378 . S
C114 C115 1.396 . S
C115 H100 0.940 . S
C115 C110 1.391 . S
C115 C114 1.396 . S
C116 P96 1.803 . S
C116 C117 1.378 . S
C116 C121 1.400 . S
C117 H101 0.939 . S
C117 C116 1.378 . S
C117 C118 1.361 . S
C118 H102 0.942 . S
C118 C117 1.361 . S
C118 C119 1.369 . S
C119 C118 1.369 . S
C119 C120 1.404 . S
C120 H103 0.940 . S
C120 C119 1.404 . S
C120 C121 1.389 . S
C121 H104 0.939 . S
C121 C116 1.400 . S
C121 C120 1.389 . S
C122 P96 1.819 . S
C122 C123 1.391 . S
C122 C127 1.391 . S
C123 H105 0.941 . S
C123 C122 1.391 . S
C123 C124 1.396 . S
C124 H108 0.939 . S
C124 C123 1.396 . S
C124 C125 1.397 . S
C125 C124 1.397 . S
C125 C126 1.385 . S
C126 H109 0.940 . S
C126 C125 1.385 . S
C126 C127 1.388 . S
C127 H106 0.939 . S
C127 C122 1.391 . S
C127 C126 1.388 . S
P128 O139 1.490 . S
P128 C142 1.812 . S
P128 C148 1.803 . S
P128 C154 1.819 . S
H129 C143 0.941 . S
H130 C144 0.939 . S
H131 C146 0.940 . S
H132 C147 0.940 . S
H133 C149 0.939 . S
H134 C150 0.942 . S
H135 C152 0.940 . S
H136 C153 0.939 . S
H137 C155 0.941 . S
H138 C159 0.939 . S
O139 P128 1.490 . S
H140 C156 0.939 . S
H141 C158 0.940 . S
C142 P128 1.812 . S
C142 C143 1.389 . S
C142 C147 1.391 . S
C143 H129 0.941 . S
C143 C142 1.389 . S
C143 C144 1.397 . S
C144 H130 0.939 . S
C144 C143 1.397 . S
C144 C145 1.378 . S
C145 C144 1.378 . S
C145 C146 1.378 . S
C146 H131 0.940 . S
C146 C145 1.378 . S
C146 C147 1.396 . S
C147 H132 0.940 . S
C147 C142 1.391 . S
C147 C146 1.396 . S
C148 P128 1.803 . S
C148 C149 1.378 . S
C148 C153 1.400 . S
C149 H133 0.939 . S
C149 C148 1.378 . S
C149 C150 1.361 . S
C150 H134 0.942 . S
C150 C149 1.361 . S
C150 C151 1.369 . S
C151 C150 1.369 . S
C151 C152 1.404 . S
C152 H135 0.940 . S
C152 C151 1.404 . S
C152 C153 1.389 . S
C153 H136 0.939 . S
C153 C148 1.400 . S
C153 C152 1.389 . S
C154 P128 1.819 . S
C154 C155 1.391 . S
C154 C159 1.391 . S
C155 H137 0.941 . S
C155 C154 1.391 . S
C155 C156 1.396 . S
C156 H140 0.939 . S
C156 C155 1.396 . S
C156 C157 1.397 . S
C157 C156 1.397 . S
C157 C158 1.385 . S
C158 H141 0.940 . S
C158 C157 1.385 . S
C158 C159 1.388 . S
C159 H138 0.939 . S
C159 C154 1.391 . S
C159 C158 1.388 . S
P160 O171 1.490 . S
P160 C174 1.812 . S
P160 C180 1.803 . S
P160 C186 1.819 . S
H161 C175 0.941 . S
H162 C176 0.939 . S
H163 C178 0.940 . S
H164 C179 0.940 . S
H165 C181 0.939 . S
H166 C182 0.942 . S
H167 C184 0.940 . S
H168 C185 0.939 . S
H169 C187 0.941 . S
H170 C191 0.939 . S
O171 P160 1.490 . S
H172 C188 0.939 . S
H173 C190 0.940 . S
C174 P160 1.812 . S
C174 C175 1.389 . S
C174 C179 1.391 . S
C175 H161 0.941 . S
C175 C174 1.389 . S
C175 C176 1.397 . S
C176 H162 0.939 . S
C176 C175 1.397 . S
C176 C177 1.378 . S
C177 C176 1.378 . S
C177 C178 1.378 . S
C178 H163 0.940 . S
C178 C177 1.378 . S
C178 C179 1.396 . S
C179 H164 0.940 . S
C179 C174 1.391 . S
C179 C178 1.396 . S
C180 P160 1.803 . S
C180 C181 1.378 . S
C180 C185 1.400 . S
C181 H165 0.939 . S
C181 C180 1.378 . S
C181 C182 1.361 . S
C182 H166 0.942 . S
C182 C181 1.361 . S
C182 C183 1.369 . S
C183 C182 1.369 . S
C183 C184 1.404 . S
C184 H167 0.940 . S
C184 C183 1.404 . S
C184 C185 1.389 . S
C185 H168 0.939 . S
C185 C180 1.400 . S
C185 C184 1.389 . S
C186 P160 1.819 . S
C186 C187 1.391 . S
C186 C191 1.391 . S
C187 H169 0.941 . S
C187 C186 1.391 . S
C187 C188 1.396 . S
C188 H172 0.939 . S
C188 C187 1.396 . S
C188 C189 1.397 . S
C189 C188 1.397 . S
C189 C190 1.385 . S
C190 H173 0.940 . S
C190 C189 1.385 . S
C190 C191 1.388 . S
C191 H170 0.939 . S
C191 C186 1.391 . S
C191 C190 1.388 . S
P192 O203 1.490 . S
P192 C206 1.812 . S
P192 C212 1.803 . S
P192 C218 1.819 . S
H193 C207 0.941 . S
H194 C208 0.939 . S
H195 C210 0.940 . S
H196 C211 0.942 . S
H197 C213 0.939 . S
H198 C214 0.942 . S
H199 C216 0.940 . S
H200 C217 0.955 . S
H201 C219 0.941 . S
H202 C223 0.937 1_565 S
O203 P192 1.490 . S
H204 C220 0.939 . S
H205 C222 0.940 . S
C206 P192 1.812 . S
C206 C207 1.389 . S
C206 C211 1.387 1_545 S
C207 H193 0.941 . S
C207 C206 1.389 . S
C207 C208 1.397 . S
C208 H194 0.939 . S
C208 C207 1.397 . S
C208 C209 1.378 . S
C209 C208 1.378 . S
C209 C210 1.378 1_545 S
C210 H195 0.940 . S
C210 C209 1.378 1_565 S
C210 C211 1.399 . S
C211 H196 0.942 . S
C211 C206 1.387 1_565 S
C211 C210 1.399 . S
C212 P192 1.803 . S
C212 C213 1.378 . S
C212 C217 1.381 1_545 S
C213 H197 0.939 . S
C213 C212 1.378 . S
C213 C214 1.361 . S
C214 H198 0.942 . S
C214 C213 1.361 . S
C214 C215 1.369 . S
C215 C214 1.369 . S
C215 C216 1.404 1_545 S
C216 H199 0.940 . S
C216 C215 1.404 1_565 S
C216 C217 1.392 . S
C217 H200 0.955 . S
C217 C212 1.381 1_565 S
C217 C216 1.392 . S
C218 P192 1.819 . S
C218 C219 1.391 . S
C218 C223 1.391 . S
C219 H201 0.941 . S
C219 C218 1.391 . S
C219 C220 1.396 . S
C220 H204 0.939 . S
C220 C219 1.396 . S
C220 C221 1.397 . S
C221 C220 1.397 . S
C221 C222 1.385 1_545 S
C222 H205 0.940 . S
C222 C221 1.385 1_565 S
C222 C223 1.388 1_565 S
C223 H202 0.937 1_545 S
C223 C218 1.391 . S
C223 C222 1.388 1_545 S
P224 O235 1.490 . S
P224 C238 1.812 . S
P224 C244 1.803 . S
P224 C250 1.819 . S
H225 C239 0.941 . S
H226 C240 0.939 . S
H227 C242 0.940 . S
H228 C243 0.940 . S
H229 C245 0.939 . S
H230 C246 0.942 . S
H231 C248 0.940 . S
H232 C249 0.939 . S
H233 C251 0.941 . S
H234 C255 0.939 . S
O235 P224 1.490 . S
H236 C252 0.939 . S
H237 C254 0.940 . S
C238 P224 1.812 . S
C238 C239 1.389 . S
C238 C243 1.391 . S
C239 H225 0.941 . S
C239 C238 1.389 . S
C239 C240 1.397 . S
C240 H226 0.939 . S
C240 C239 1.397 . S
C240 C241 1.378 . S
C241 C240 1.378 . S
C241 C242 1.378 . S
C242 H227 0.940 . S
C242 C241 1.378 . S
C242 C243 1.396 . S
C243 H228 0.940 . S
C243 C238 1.391 . S
C243 C242 1.396 . S
C244 P224 1.803 . S
C244 C245 1.378 . S
C244 C249 1.400 . S
C245 H229 0.939 . S
C245 C244 1.378 . S
C245 C246 1.361 . S
C246 H230 0.942 . S
C246 C245 1.361 . S
C246 C247 1.369 . S
C247 C246 1.369 . S
C247 C248 1.404 . S
C248 H231 0.940 . S
C248 C247 1.404 . S
C248 C249 1.389 . S
C249 H232 0.939 . S
C249 C244 1.400 . S
C249 C248 1.389 . S
C250 P224 1.819 . S
C250 C251 1.391 . S
C250 C255 1.391 . S
C251 H233 0.941 . S
C251 C250 1.391 . S
C251 C252 1.396 . S
C252 H236 0.939 . S
C252 C251 1.396 . S
C252 C253 1.397 . S
C253 C252 1.397 . S
C253 C254 1.385 . S
C254 H237 0.940 . S
C254 C253 1.385 . S
C254 C255 1.388 . S
C255 H234 0.939 . S
C255 C250 1.391 . S
C255 C254 1.388 . S
Nd256 C258 2.836 1_455 S
Nd256 O276 2.500 1_455 S
Nd256 O277 2.492 . S
Nd256 O278 2.487 . S
Nd256 O279 2.682 1_565 S
Nd256 O280 2.410 . S
Nd256 O285 2.430 1_455 S
Nd256 O287 2.424 1_565 S
Nd257 C267 2.836 . S
Nd257 O279 2.414 . S
Nd257 O281 2.424 1_545 S
Nd257 O282 2.500 . S
Nd257 O283 2.492 . S
Nd257 O284 2.487 1_455 S
Nd257 O285 2.678 1_445 S
Nd257 O286 2.410 . S
C258 Nd256 2.836 1_655 S
C258 C259 1.498 . S
C258 O276 1.258 . S
C258 O277 1.239 1_655 S
C259 C258 1.498 . S
C259 C260 1.366 . S
C259 C264 1.407 . S
C260 C259 1.366 . S
C260 C261 1.392 . S
C260 H288 0.930 . S
C261 C260 1.392 . S
C261 C262 1.398 . S
C261 H289 0.929 . S
C262 C261 1.398 . S
C262 C263 1.352 . S
C263 C262 1.352 . S
C263 C264 1.384 . S
C263 H290 0.930 . S
C264 C259 1.407 . S
C264 C263 1.384 . S
C264 H291 0.929 1_655 S
C265 O278 1.241 . S
C265 O279 1.273 1_565 S
C266 O280 1.251 . S
C266 O281 1.268 . S
C267 Nd257 2.836 . S
C267 C268 1.498 . S
C267 O282 1.258 . S
C267 O283 1.239 . S
C268 C267 1.498 . S
C268 C269 1.366 . S
C268 C273 1.407 1_556 S
C269 C268 1.366 . S
C269 C270 1.392 . S
C269 H292 0.930 . S
C270 C269 1.392 . S
C270 C271 1.398 1_556 S
C270 H293 0.929 . S
C271 C270 1.398 1_554 S
C271 C272 1.352 . S
C272 C271 1.352 . S
C272 C273 1.384 . S
C272 H294 0.930 . S
C273 C268 1.407 1_554 S
C273 C272 1.384 . S
C273 H295 0.929 . S
C274 O284 1.241 . S
C274 O285 1.250 1_545 S
C275 O286 1.251 . S
C275 O287 1.268 . S
O276 Nd256 2.500 1_655 S
O276 C258 1.258 . S
O277 Nd256 2.492 . S
O277 C258 1.239 1_455 S
O278 Nd256 2.487 . S
O278 C265 1.241 . S
O279 Nd256 2.682 1_545 S
O279 Nd257 2.414 . S
O279 C265 1.273 1_545 S
O280 Nd256 2.410 . S
O280 C266 1.251 . S
O281 Nd257 2.424 1_565 S
O281 C266 1.268 . S
O282 Nd257 2.500 . S
O282 C267 1.258 . S
O283 Nd257 2.492 . S
O283 C267 1.239 . S
O284 Nd257 2.487 1_655 S
O284 C274 1.241 . S
O285 Nd256 2.430 1_655 S
O285 Nd257 2.678 1_665 S
O285 C274 1.250 1_565 S
O286 Nd257 2.410 . S
O286 C275 1.251 . S
O287 Nd256 2.424 1_545 S
O287 C275 1.268 . S
H288 C260 0.930 . S
H289 C261 0.929 . S
H290 C263 0.930 . S
H291 C264 0.929 1_455 S
H292 C269 0.930 . S
H293 C270 0.929 . S
H294 C272 0.930 . S
H295 C273 0.929 . S
Nd296 C298 2.836 . S
Nd296 O316 2.500 . S
Nd296 O317 2.492 1_565 S
Nd296 O318 2.487 1_565 S
Nd296 O319 2.682 1_565 S
Nd296 O320 2.410 1_565 S
Nd296 O325 2.414 . S
Nd296 O327 2.424 . S
Nd297 C307 2.836 . S
Nd297 O319 2.414 . S
Nd297 O321 2.424 . S
Nd297 O322 2.500 . S
Nd297 O323 2.492 1_545 S
Nd297 O324 2.487 1_545 S
Nd297 O325 2.682 1_545 S
Nd297 O326 2.410 1_545 S
C298 Nd296 2.836 . S
C298 C299 1.498 . S
C298 O316 1.258 . S
C298 O317 1.232 1_565 S
C299 C298 1.498 . S
C299 C300 1.366 . S
C299 C304 1.407 . S
C300 C299 1.366 . S
C300 C301 1.392 . S
C300 H328 0.930 . S
C301 C300 1.392 . S
C301 C302 1.398 . S
C301 H329 0.929 . S
C302 C301 1.398 . S
C302 C303 1.352 . S
C303 C302 1.352 . S
C303 C304 1.384 . S
C303 H330 0.931 . S
C304 C299 1.407 . S
C304 C303 1.384 . S
C304 H331 0.929 1_565 S
C305 O318 1.241 . S
C305 O319 1.273 . S
C306 O320 1.251 . S
C306 O321 1.268 . S
C307 Nd297 2.836 . S
C307 C308 1.498 . S
C307 O322 1.258 . S
C307 O323 1.243 1_545 S
C308 C307 1.498 . S
C308 C309 1.366 . S
C308 C313 1.407 1_556 S
C309 C308 1.366 . S
C309 C310 1.392 . S
C309 H332 0.930 . S
C310 C309 1.392 . S
C310 C311 1.398 1_556 S
C310 H333 0.929 . S
C311 C310 1.398 1_554 S
C311 C312 1.352 . S
C312 C311 1.352 . S
C312 C313 1.384 . S
C312 H334 0.936 . S
C313 C308 1.407 1_554 S
C313 C312 1.384 . S
C313 H335 0.929 1_545 S
C314 O324 1.241 . S
C314 O325 1.273 . S
C315 O326 1.251 . S
C315 O327 1.268 . S
O316 Nd296 2.500 . S
O316 C298 1.258 . S
O317 Nd296 2.492 1_545 S
O317 C298 1.232 1_545 S
O318 Nd296 2.487 1_545 S
O318 C305 1.241 . S
O319 Nd296 2.682 1_545 S
O319 Nd297 2.414 . S
O319 C305 1.273 . S
O320 Nd296 2.410 1_545 S
O320 C306 1.251 . S
O321 Nd297 2.424 . S
O321 C306 1.268 . S
O322 Nd297 2.500 . S
O322 C307 1.258 . S
O323 Nd297 2.492 1_565 S
O323 C307 1.243 1_565 S
O324 Nd297 2.487 1_565 S
O324 C314 1.241 . S
O325 Nd296 2.414 . S
O325 Nd297 2.682 1_565 S
O325 C314 1.273 . S
O326 Nd297 2.410 1_565 S
O326 C315 1.251 . S
O327 Nd296 2.424 . S
O327 C315 1.268 . S
H328 C300 0.930 . S
H329 C301 0.929 . S
H330 C303 0.931 . S
H331 C304 0.929 1_545 S
H332 C309 0.930 . S
H333 C310 0.929 . S
H334 C312 0.936 . S
H335 C313 0.929 1_565 S
Nd336 C338 2.836 . S
Nd336 O356 2.500 . S
Nd336 O357 2.492 . S
Nd336 O358 2.487 . S
Nd336 O359 2.682 . S
Nd336 O360 2.410 . S
Nd336 O365 2.414 . S
Nd336 O367 2.424 . S
Nd337 C347 2.836 . S
Nd337 O359 2.414 . S
Nd337 O361 2.424 . S
Nd337 O362 2.500 . S
Nd337 O363 2.492 . S
Nd337 O364 2.487 . S
Nd337 O365 2.682 . S
Nd337 O366 2.410 . S
C338 Nd336 2.836 . S
C338 C339 1.498 . S
C338 O356 1.258 . S
C338 O357 1.239 . S
C339 C338 1.498 . S
C339 C340 1.366 . S
C339 C344 1.407 . S
C340 C339 1.366 . S
C340 C341 1.392 . S
C340 H368 0.930 . S
C341 C340 1.392 . S
C341 C342 1.398 . S
C341 H369 0.929 . S
C342 C341 1.398 . S
C342 C343 1.352 . S
C343 C342 1.352 . S
C343 C344 1.384 . S
C343 H370 0.930 . S
C344 C339 1.407 . S
C344 C343 1.384 . S
C344 H371 0.929 . S
C345 O358 1.241 . S
C345 O359 1.273 . S
C346 O360 1.251 . S
C346 O361 1.268 . S
C347 Nd337 2.836 . S
C347 C348 1.498 . S
C347 O362 1.258 . S
C347 O363 1.239 . S
C348 C347 1.498 . S
C348 C349 1.366 . S
C348 C353 1.407 . S
C349 C348 1.366 . S
C349 C350 1.392 . S
C349 H372 0.930 . S
C350 C349 1.392 . S
C350 C351 1.398 . S
C350 H373 0.929 . S
C351 C350 1.398 . S
C351 C352 1.352 . S
C352 C351 1.352 . S
C352 C353 1.384 . S
C352 H374 0.930 . S
C353 C348 1.407 . S
C353 C352 1.384 . S
C353 H375 0.929 . S
C354 O364 1.241 . S
C354 O365 1.273 . S
C355 O366 1.251 . S
C355 O367 1.268 . S
O356 Nd336 2.500 . S
O356 C338 1.258 . S
O357 Nd336 2.492 . S
O357 C338 1.239 . S
O358 Nd336 2.487 . S
O358 C345 1.241 . S
O359 Nd336 2.682 . S
O359 Nd337 2.414 . S
O359 C345 1.273 . S
O360 Nd336 2.410 . S
O360 C346 1.251 . S
O361 Nd337 2.424 . S
O361 C346 1.268 . S
O362 Nd337 2.500 . S
O362 C347 1.258 . S
O363 Nd337 2.492 . S
O363 C347 1.239 . S
O364 Nd337 2.487 . S
O364 C354 1.241 . S
O365 Nd336 2.414 . S
O365 Nd337 2.682 . S
O365 C354 1.273 . S
O366 Nd337 2.410 . S
O366 C355 1.251 . S
O367 Nd336 2.424 . S
O367 C355 1.268 . S
H368 C340 0.930 . S
H369 C341 0.929 . S
H370 C343 0.930 . S
H371 C344 0.929 . S
H372 C349 0.930 . S
H373 C350 0.929 . S
H374 C352 0.930 . S
H375 C353 0.929 . S
Nd376 C378 2.836 1_455 S
Nd376 O396 2.500 1_455 S
Nd376 O397 2.492 1_455 S
Nd376 O398 2.487 . S
Nd376 O399 2.682 . S
Nd376 O400 2.410 1_455 S
Nd376 O405 2.414 . S
Nd376 O407 2.424 . S
Nd377 C387 2.836 . S
Nd377 O399 2.414 . S
Nd377 O401 2.424 1_455 S
Nd377 O402 2.500 . S
Nd377 O403 2.492 . S
Nd377 O404 2.487 . S
Nd377 O405 2.682 . S
Nd377 O406 2.410 . S
C378 Nd376 2.836 1_655 S
C378 C379 1.498 . S
C378 O396 1.258 . S
C378 O397 1.239 . S
C379 C378 1.498 . S
C379 C380 1.366 . S
C379 C384 1.407 . S
C380 C379 1.366 . S
C380 C381 1.392 . S
C380 H408 0.930 . S
C381 C380 1.392 . S
C381 C382 1.398 . S
C381 H409 0.929 . S
C382 C381 1.398 . S
C382 C383 1.352 . S
C383 C382 1.352 . S
C383 C384 1.384 . S
C383 H410 0.930 . S
C384 C379 1.407 . S
C384 C383 1.384 . S
C384 H411 0.929 . S
C385 O398 1.241 . S
C385 O399 1.273 . S
C386 O400 1.251 . S
C386 O401 1.268 . S
C387 Nd377 2.836 . S
C387 C388 1.498 . S
C387 O402 1.258 . S
C387 O403 1.239 . S
C388 C387 1.498 . S
C388 C389 1.366 . S
C388 C393 1.407 1_556 S
C389 C388 1.366 . S
C389 C390 1.392 . S
C389 H412 0.930 . S
C390 C389 1.392 . S
C390 C391 1.398 1_556 S
C390 H413 0.929 . S
C391 C390 1.398 1_554 S
C391 C392 1.352 . S
C392 C391 1.352 . S
C392 C393 1.384 . S
C392 H414 0.930 . S
C393 C388 1.407 1_554 S
C393 C392 1.384 . S
C393 H415 0.929 . S
C394 O404 1.241 . S
C394 O405 1.273 . S
C395 O406 1.251 . S
C395 O407 1.268 . S
O396 Nd376 2.500 1_655 S
O396 C378 1.258 . S
O397 Nd376 2.492 1_655 S
O397 C378 1.239 . S
O398 Nd376 2.487 . S
O398 C385 1.241 . S
O399 Nd376 2.682 . S
O399 Nd377 2.414 . S
O399 C385 1.273 . S
O400 Nd376 2.410 1_655 S
O400 C386 1.251 . S
O401 Nd377 2.424 1_655 S
O401 C386 1.268 . S
O402 Nd377 2.500 . S
O402 C387 1.258 . S
O403 Nd377 2.492 . S
O403 C387 1.239 . S
O404 Nd377 2.487 . S
O404 C394 1.241 . S
O405 Nd376 2.414 . S
O405 Nd377 2.682 . S
O405 C394 1.273 . S
O406 Nd377 2.410 . S
O406 C395 1.251 . S
O407 Nd376 2.424 . S
O407 C395 1.268 . S
H408 C380 0.930 . S
H409 C381 0.929 . S
H410 C383 0.930 . S
H411 C384 0.929 . S
H412 C389 0.930 . S
H413 C390 0.929 . S
H414 C392 0.930 . S
H415 C393 0.929 . S
C416 C417 1.348 . S
C416 C418 1.329 1_545 S
C416 H441 0.953 . S
C417 C416 1.348 . S
C417 C433 1.352 1_545 S
C418 C416 1.329 1_565 S
C418 C437 1.434 . S
C418 H442 0.949 . S
C419 C436 1.574 . S
C419 C438 1.368 . S
C419 H443 0.949 . S
H420 C424 0.949 . S
C421 C422 1.349 . S
C421 C423 1.327 . S
C421 H444 0.950 . S
C422 C421 1.349 . S
C422 C434 1.349 . S
C423 C421 1.327 . S
C423 C439 1.429 . S
C423 H445 0.950 . S
C424 H420 0.949 . S
C424 C432 1.563 . S
C424 C440 1.368 . S
H425 C433 0.949 . S
H426 C431 0.945 . S
H427 C432 0.953 . S
H428 C434 0.950 . S
H429 C435 0.950 . S
H430 C436 0.949 . S
C431 H426 0.945 . S
C431 C433 1.333 . S
C431 C437 1.428 . S
C432 C424 1.563 . S
C432 H427 0.953 . S
C432 C438 1.372 . S
C433 C417 1.352 1_565 S
C433 H425 0.949 . S
C433 C431 1.333 . S
C434 C422 1.349 . S
C434 H428 0.950 . S
C434 C435 1.327 . S
C435 H429 0.950 . S
C435 C434 1.327 . S
C435 C439 1.429 . S
C436 C419 1.574 . S
C436 H430 0.949 . S
C436 C440 1.368 . S
C437 C418 1.434 . S
C437 C431 1.428 . S
C437 C438 1.515 . S
C438 C419 1.368 . S
C438 C432 1.372 . S
C438 C437 1.515 . S
C439 C423 1.429 . S
C439 C435 1.429 . S
C439 C440 1.523 . S
C440 C424 1.368 . S
C440 C436 1.368 . S
C440 C439 1.523 . S
H441 C416 0.953 . S
H442 C418 0.949 . S
H443 C419 0.949 . S
H444 C421 0.950 . S
H445 C423 0.950 . S
C446 C447 1.349 . S
C446 C448 1.327 . S
C446 H471 0.950 . S
C447 C446 1.349 . S
C447 C463 1.349 . S
C448 C446 1.327 . S
C448 C467 1.429 . S
C448 H472 0.950 . S
C449 C466 1.574 . S
C449 C468 1.368 . S
C449 H473 0.949 . S
H450 C454 0.949 . S
C451 C452 1.349 . S
C451 C453 1.327 . S
C451 H474 0.950 . S
C452 C451 1.349 . S
C452 C464 1.349 . S
C453 C451 1.327 . S
C453 C469 1.429 . S
C453 H475 0.950 . S
C454 H450 0.949 . S
C454 C462 1.574 . S
C454 C470 1.368 . S
H455 C463 0.950 . S
H456 C461 0.950 . S
H457 C462 0.949 . S
H458 C464 0.950 . S
H459 C465 0.950 . S
H460 C466 0.949 . S
C461 H456 0.950 . S
C461 C463 1.327 . S
C461 C467 1.429 . S
C462 C454 1.574 . S
C462 H457 0.949 . S
C462 C468 1.368 . S
C463 C447 1.349 . S
C463 H455 0.950 . S
C463 C461 1.327 . S
C464 C452 1.349 . S
C464 H458 0.950 . S
C464 C465 1.327 . S
C465 H459 0.950 . S
C465 C464 1.327 . S
C465 C469 1.429 . S
C466 C449 1.574 . S
C466 H460 0.949 . S
C466 C470 1.368 . S
C467 C448 1.429 . S
C467 C461 1.429 . S
C467 C468 1.523 . S
C468 C449 1.368 . S
C468 C462 1.368 . S
C468 C467 1.523 . S
C469 C453 1.429 . S
C469 C465 1.429 . S
C469 C470 1.523 . S
C470 C454 1.368 . S
C470 C466 1.368 . S
C470 C469 1.523 . S
H471 C446 0.950 . S
H472 C448 0.950 . S
H473 C449 0.949 . S
H474 C451 0.950 . S
H475 C453 0.950 . S
C476 C477 1.349 . S
C476 C478 1.327 . S
C476 H501 0.950 . S
C477 C476 1.349 . S
C477 C493 1.349 . S
C478 C476 1.327 . S
C478 C497 1.429 . S
C478 H502 0.950 . S
C479 C496 1.574 . S
C479 C498 1.368 . S
C479 H503 0.949 . S
H480 C484 0.949 . S
C481 C482 1.349 . S
C481 C483 1.327 . S
C481 H504 0.950 . S
C482 C481 1.349 . S
C482 C494 1.349 . S
C483 C481 1.327 . S
C483 C499 1.429 . S
C483 H505 0.950 . S
C484 H480 0.949 . S
C484 C492 1.574 . S
C484 C500 1.368 . S
H485 C493 0.950 . S
H486 C491 0.950 . S
H487 C492 0.949 . S
H488 C494 0.950 . S
H489 C495 0.950 . S
H490 C496 0.949 . S
C491 H486 0.950 . S
C491 C493 1.327 . S
C491 C497 1.429 . S
C492 C484 1.574 . S
C492 H487 0.949 . S
C492 C498 1.368 . S
C493 C477 1.349 . S
C493 H485 0.950 . S
C493 C491 1.327 . S
C494 C482 1.349 . S
C494 H488 0.950 . S
C494 C495 1.327 . S
C495 H489 0.950 . S
C495 C494 1.327 . S
C495 C499 1.429 . S
C496 C479 1.574 . S
C496 H490 0.949 . S
C496 C500 1.368 . S
C497 C478 1.429 . S
C497 C491 1.429 . S
C497 C498 1.523 . S
C498 C479 1.368 . S
C498 C492 1.368 . S
C498 C497 1.523 . S
C499 C483 1.429 . S
C499 C495 1.429 . S
C499 C500 1.523 . S
C500 C484 1.368 . S
C500 C496 1.368 . S
C500 C499 1.523 . S
H501 C476 0.950 . S
H502 C478 0.950 . S
H503 C479 0.949 . S
H504 C481 0.950 . S
H505 C483 0.950 . S
C506 C507 1.349 . S
C506 C508 1.327 . S
C506 H531 0.950 . S
C507 C506 1.349 . S
C507 C523 1.349 . S
C508 C506 1.327 . S
C508 C527 1.429 . S
C508 H532 0.950 . S
C509 C526 1.574 . S
C509 C528 1.368 . S
C509 H533 0.949 . S
H510 C514 0.949 . S
C511 C512 1.349 . S
C511 C513 1.327 . S
C511 H534 0.950 . S
C512 C511 1.349 . S
C512 C524 1.349 . S
C513 C511 1.327 . S
C513 C529 1.429 . S
C513 H535 0.950 . S
C514 H510 0.949 . S
C514 C522 1.574 . S
C514 C530 1.368 . S
H515 C523 0.950 . S
H516 C521 0.950 . S
H517 C522 0.949 . S
H518 C524 0.950 . S
H519 C525 0.950 . S
H520 C526 0.949 . S
C521 H516 0.950 . S
C521 C523 1.327 . S
C521 C527 1.429 . S
C522 C514 1.574 . S
C522 H517 0.949 . S
C522 C528 1.368 . S
C523 C507 1.349 . S
C523 H515 0.950 . S
C523 C521 1.327 . S
C524 C512 1.349 . S
C524 H518 0.950 . S
C524 C525 1.327 . S
C525 H519 0.950 . S
C525 C524 1.327 . S
C525 C529 1.429 . S
C526 C509 1.574 . S
C526 H520 0.949 . S
C526 C530 1.368 . S
C527 C508 1.429 . S
C527 C521 1.429 . S
C527 C528 1.523 . S
C528 C509 1.368 . S
C528 C522 1.368 . S
C528 C527 1.523 . S
C529 C513 1.429 . S
C529 C525 1.429 . S
C529 C530 1.523 . S
C530 C514 1.368 . S
C530 C526 1.368 . S
C530 C529 1.523 . S
H531 C506 0.950 . S
H532 C508 0.950 . S
H533 C509 0.949 . S
H534 C511 0.950 . S
H535 C513 0.950 . S
C536 C537 1.350 . S
C536 C538 1.327 . S
C536 H561 0.950 . S
C537 C536 1.350 . S
C537 C553 1.347 1_545 S
C538 C536 1.327 . S
C538 C557 1.478 . S
C538 H562 0.950 . S
C539 C556 1.574 . S
C539 C558 1.368 1_565 S
C539 H563 0.949 . S
H540 C544 0.949 . S
C541 C542 1.349 1_565 S
C541 C543 1.327 . S
C541 H564 0.950 . S
C542 C541 1.349 1_545 S
C542 C554 1.349 . S
C543 C541 1.327 . S
C543 C559 1.429 1_565 S
C543 H565 0.950 . S
C544 H540 0.949 . S
C544 C552 1.574 . S
C544 C560 1.368 . S
H545 C553 0.950 . S
H546 C551 0.950 . S
H547 C552 0.949 . S
H548 C554 0.950 . S
H549 C555 0.950 . S
H550 C556 0.949 . S
C551 H546 0.950 . S
C551 C553 1.327 . S
C551 C557 1.392 1_565 S
C552 C544 1.574 . S
C552 H547 0.949 . S
C552 C558 1.368 . S
C553 C537 1.347 1_565 S
C553 H545 0.950 . S
C553 C551 1.327 . S
C554 C542 1.349 . S
C554 H548 0.950 . S
C554 C555 1.327 . S
C555 H549 0.950 . S
C555 C554 1.327 . S
C555 C559 1.429 . S
C556 C539 1.574 . S
C556 H550 0.949 . S
C556 C560 1.368 1_565 S
C557 C538 1.478 . S
C557 C551 1.392 1_545 S
C557 C558 1.513 . S
C558 C539 1.368 1_545 S
C558 C552 1.368 . S
C558 C557 1.513 . S
C559 C543 1.429 1_545 S
C559 C555 1.429 . S
C559 C560 1.523 . S
C560 C544 1.368 . S
C560 C556 1.368 1_545 S
C560 C559 1.523 . S
H561 C536 0.950 . S
H562 C538 0.950 . S
H563 C539 0.949 . S
H564 C541 0.950 . S
H565 C543 0.950 . S
C566 C567 1.349 . S
C566 C568 1.327 . S
C566 H591 0.950 . S
C567 C566 1.349 . S
C567 C583 1.349 . S
C568 C566 1.327 . S
C568 C587 1.429 . S
C568 H592 0.950 . S
C569 C586 1.574 . S
C569 C588 1.368 . S
C569 H593 0.949 . S
H570 C574 0.949 1_556 S
C571 C572 1.349 . S
C571 C573 1.327 . S
C571 H594 0.950 . S
C572 C571 1.349 . S
C572 C584 1.349 . S
C573 C571 1.327 . S
C573 C589 1.429 . S
C573 H595 0.950 1_556 S
C574 H570 0.949 1_554 S
C574 C582 1.574 . S
C574 C590 1.368 . S
H575 C583 0.950 . S
H576 C581 0.950 . S
H577 C582 0.949 . S
H578 C584 0.950 . S
H579 C585 0.950 . S
H580 C586 0.949 . S
C581 H576 0.950 . S
C581 C583 1.327 . S
C581 C587 1.429 . S
C582 C574 1.574 . S
C582 H577 0.949 . S
C582 C588 1.368 . S
C583 C567 1.349 . S
C583 H575 0.950 . S
C583 C581 1.327 . S
C584 C572 1.349 . S
C584 H578 0.950 . S
C584 C585 1.327 . S
C585 H579 0.950 . S
C585 C584 1.327 . S
C585 C589 1.429 . S
C586 C569 1.574 . S
C586 H580 0.949 . S
C586 C590 1.368 . S
C587 C568 1.429 . S
C587 C581 1.429 . S
C587 C588 1.523 . S
C588 C569 1.368 . S
C588 C582 1.368 . S
C588 C587 1.523 . S
C589 C573 1.429 . S
C589 C585 1.429 . S
C589 C590 1.523 1_556 S
C590 C574 1.368 . S
C590 C586 1.368 . S
C590 C589 1.523 1_554 S
H591 C566 0.950 . S
H592 C568 0.950 . S
H593 C569 0.949 . S
H594 C571 0.950 . S
H595 C573 0.950 1_554 S
C596 C597 1.349 . S
C596 C598 1.327 . S
C596 H621 0.950 . S
C597 C596 1.349 . S
C597 C613 1.349 1_556 S
C598 C596 1.327 . S
C598 C617 1.429 . S
C598 H622 0.950 . S
C599 C616 1.574 . S
C599 C618 1.368 . S
C599 H623 0.949 . S
H600 C604 0.949 . S
C601 C602 1.349 . S
C601 C603 1.327 . S
C601 H624 0.950 . S
C602 C601 1.349 . S
C602 C614 1.349 . S
C603 C601 1.327 . S
C603 C619 1.429 . S
C603 H625 0.950 . S
C604 H600 0.949 . S
C604 C612 1.574 . S
C604 C620 1.368 . S
H605 C613 0.950 . S
H606 C611 0.950 . S
H607 C612 0.949 . S
H608 C614 0.950 . S
H609 C615 0.950 . S
H610 C616 0.949 . S
C611 H606 0.950 . S
C611 C613 1.327 . S
C611 C617 1.429 1_554 S
C612 C604 1.574 . S
C612 H607 0.949 . S
C612 C618 1.368 . S
C613 C597 1.349 1_554 S
C613 H605 0.950 . S
C613 C611 1.327 . S
C614 C602 1.349 . S
C614 H608 0.950 . S
C614 C615 1.327 . S
C615 H609 0.950 . S
C615 C614 1.327 . S
C615 C619 1.429 . S
C616 C599 1.574 . S
C616 H610 0.949 . S
C616 C620 1.368 . S
C617 C598 1.429 . S
C617 C611 1.429 1_556 S
C617 C618 1.523 . S
C618 C599 1.368 . S
C618 C612 1.368 . S
C618 C617 1.523 . S
C619 C603 1.429 . S
C619 C615 1.429 . S
C619 C620 1.523 . S
C620 C604 1.368 . S
C620 C616 1.368 . S
C620 C619 1.523 . S
H621 C596 0.950 . S
H622 C598 0.950 . S
H623 C599 0.949 . S
H624 C601 0.950 . S
H625 C603 0.950 . S
C626 C627 1.349 . S
C626 C628 1.327 . S
C626 H651 0.950 . S
C627 C626 1.349 . S
C627 C643 1.349 1_556 S
C628 C626 1.327 . S
C628 C647 1.429 . S
C628 H652 0.950 . S
C629 C646 1.574 . S
C629 C648 1.368 . S
C629 H653 0.949 . S
H630 C634 0.949 . S
C631 C632 1.349 . S
C631 C633 1.327 . S
C631 H654 0.950 . S
C632 C631 1.349 . S
C632 C644 1.349 . S
C633 C631 1.327 . S
C633 C649 1.429 . S
C633 H655 0.950 . S
C634 H630 0.949 . S
C634 C642 1.574 . S
C634 C650 1.368 . S
H635 C643 0.950 . S
H636 C641 0.950 . S
H637 C642 0.949 . S
H638 C644 0.967 . S
H639 C645 0.950 . S
H640 C646 0.949 . S
C641 H636 0.950 . S
C641 C643 1.327 . S
C641 C647 1.429 1_554 S
C642 C634 1.574 . S
C642 H637 0.949 . S
C642 C648 1.368 . S
C643 C627 1.349 1_554 S
C643 H635 0.950 . S
C643 C641 1.327 . S
C644 C632 1.349 . S
C644 H638 0.967 . S
C644 C645 1.327 . S
C645 H639 0.950 . S
C645 C644 1.327 . S
C645 C649 1.429 . S
C646 C629 1.574 . S
C646 H640 0.949 . S
C646 C650 1.368 . S
C647 C628 1.429 . S
C647 C641 1.429 1_556 S
C647 C648 1.523 . S
C648 C629 1.368 . S
C648 C642 1.368 . S
C648 C647 1.523 . S
C649 C633 1.429 . S
C649 C645 1.429 . S
C649 C650 1.523 . S
C650 C634 1.368 . S
C650 C646 1.368 . S
C650 C649 1.523 . S
H651 C626 0.950 . S
H652 C628 0.950 . S
H653 C629 0.949 . S
H654 C631 0.950 . S
H655 C633 0.950 . S
C656 C657 1.349 . S
C656 C658 1.327 . S
C656 H681 0.950 . S
C657 C656 1.349 . S
C657 C673 1.349 . S
C658 C656 1.327 . S
C658 C677 1.429 . S
C658 H682 0.950 . S
C659 C676 1.574 . S
C659 C678 1.368 . S
C659 H683 0.949 . S
H660 C664 0.949 . S
C661 C662 1.349 . S
C661 C663 1.327 . S
C661 H684 0.950 . S
C662 C661 1.349 . S
C662 C674 1.349 . S
C663 C661 1.327 . S
C663 C679 1.429 . S
C663 H685 0.950 . S
C664 H660 0.949 . S
C664 C672 1.574 . S
C664 C680 1.368 . S
H665 C673 0.950 . S
H666 C671 0.950 . S
H667 C672 0.949 . S
H668 C674 0.950 . S
H669 C675 0.950 . S
H670 C676 0.949 . S
C671 H666 0.950 . S
C671 C673 1.327 . S
C671 C677 1.429 . S
C672 C664 1.574 . S
C672 H667 0.949 . S
C672 C678 1.368 . S
C673 C657 1.349 . S
C673 H665 0.950 . S
C673 C671 1.327 . S
C674 C662 1.349 . S
C674 H668 0.950 . S
C674 C675 1.327 . S
C675 H669 0.950 . S
C675 C674 1.327 . S
C675 C679 1.429 . S
C676 C659 1.574 . S
C676 H670 0.949 . S
C676 C680 1.368 . S
C677 C658 1.429 . S
C677 C671 1.429 . S
C677 C678 1.523 . S
C678 C659 1.368 . S
C678 C672 1.368 . S
C678 C677 1.523 . S
C679 C663 1.429 . S
C679 C675 1.429 . S
C679 C680 1.523 . S
C680 C664 1.368 . S
C680 C676 1.368 . S
C680 C679 1.523 . S
H681 C656 0.950 . S
H682 C658 0.950 . S
H683 C659 0.949 . S
H684 C661 0.950 . S
H685 C663 0.950 . S
C686 C687 1.340 1_565 S
C686 C688 1.327 . S
C686 H711 0.950 . S
C687 C686 1.340 1_545 S
C687 C703 1.351 . S
C688 C686 1.327 . S
C688 C707 1.429 . S
C688 H712 0.950 . S
C689 C706 1.574 . S
C689 C708 1.368 . S
C689 H713 0.949 . S
H690 C694 0.949 . S
C691 C692 1.349 . S
C691 C693 1.327 . S
C691 H714 0.950 . S
C692 C691 1.349 . S
C692 C704 1.349 . S
C693 C691 1.327 . S
C693 C709 1.429 . S
C693 H715 0.950 . S
C694 H690 0.949 . S
C694 C702 1.574 . S
C694 C710 1.368 . S
H695 C703 0.950 . S
H696 C701 0.948 1_545 S
H697 C702 0.949 . S
H698 C704 0.950 . S
H699 C705 0.950 . S
H700 C706 0.949 . S
C701 H696 0.948 1_565 S
C701 C703 1.320 1_565 S
C701 C707 1.437 . S
C702 C694 1.574 . S
C702 H697 0.949 . S
C702 C708 1.368 . S
C703 C687 1.351 . S
C703 H695 0.950 . S
C703 C701 1.320 1_545 S
C704 C692 1.349 . S
C704 H698 0.950 . S
C704 C705 1.327 . S
C705 H699 0.950 . S
C705 C704 1.327 . S
C705 C709 1.429 . S
C706 C689 1.574 . S
C706 H700 0.949 . S
C706 C710 1.368 . S
C707 C688 1.429 . S
C707 C701 1.437 . S
C707 C708 1.523 . S
C708 C689 1.368 . S
C708 C702 1.368 . S
C708 C707 1.523 . S
C709 C693 1.429 . S
C709 C705 1.429 . S
C709 C710 1.523 . S
C710 C694 1.368 . S
C710 C706 1.368 . S
C710 C709 1.523 . S
H711 C686 0.950 . S
H712 C688 0.950 . S
H713 C689 0.949 . S
H714 C691 0.950 . S
H715 C693 0.950 . S
C716 C717 1.349 . S
C716 C718 1.327 . S
C716 H741 0.950 . S
C717 C716 1.349 . S
C717 C733 1.349 . S
C718 C716 1.327 . S
C718 C737 1.429 . S
C718 H742 0.950 . S
C719 C736 1.574 . S
C719 C738 1.368 . S
C719 H743 0.949 . S
H720 C724 0.949 . S
C721 C722 1.349 . S
C721 C723 1.327 . S
C721 H744 0.950 . S
C722 C721 1.349 . S
C722 C734 1.349 . S
C723 C721 1.327 . S
C723 C739 1.429 . S
C723 H745 0.950 . S
C724 H720 0.949 . S
C724 C732 1.574 . S
C724 C740 1.368 . S
H725 C733 0.950 . S
H726 C731 0.950 . S
H727 C732 0.949 . S
H728 C734 0.950 . S
H729 C735 0.950 . S
H730 C736 0.949 . S
C731 H726 0.950 . S
C731 C733 1.327 . S
C731 C737 1.429 . S
C732 C724 1.574 . S
C732 H727 0.949 . S
C732 C738 1.368 . S
C733 C717 1.349 . S
C733 H725 0.950 . S
C733 C731 1.327 . S
C734 C722 1.349 . S
C734 H728 0.950 . S
C734 C735 1.327 . S
C735 H729 0.950 . S
C735 C734 1.327 . S
C735 C739 1.429 . S
C736 C719 1.574 . S
C736 H730 0.949 . S
C736 C740 1.368 . S
C737 C718 1.429 . S
C737 C731 1.429 . S
C737 C738 1.523 . S
C738 C719 1.368 . S
C738 C732 1.368 . S
C738 C737 1.523 . S
C739 C723 1.429 . S
C739 C735 1.429 . S
C739 C740 1.523 . S
C740 C724 1.368 . S
C740 C736 1.368 . S
C740 C739 1.523 . S
H741 C716 0.950 . S
H742 C718 0.950 . S
H743 C719 0.949 . S
H744 C721 0.950 . S
H745 C723 0.950 . S
C746 C747 1.349 . S
C746 C748 1.327 . S
C746 H771 0.950 . S
C747 C746 1.349 . S
C747 C763 1.349 . S
C748 C746 1.327 . S
C748 C767 1.429 . S
C748 H772 0.950 . S
C749 C766 1.574 . S
C749 C768 1.368 . S
C749 H773 0.949 . S
H750 C754 0.949 . S
C751 C752 1.349 . S
C751 C753 1.327 . S
C751 H774 0.950 . S
C752 C751 1.349 . S
C752 C764 1.349 . S
C753 C751 1.327 . S
C753 C769 1.429 . S
C753 H775 0.950 . S
C754 H750 0.949 . S
C754 C762 1.574 . S
C754 C770 1.368 . S
H755 C763 0.950 . S
H756 C761 0.950 . S
H757 C762 0.949 . S
H758 C764 0.950 . S
H759 C765 0.950 . S
H760 C766 0.949 . S
C761 H756 0.950 . S
C761 C763 1.327 . S
C761 C767 1.429 . S
C762 C754 1.574 . S
C762 H757 0.949 . S
C762 C768 1.368 . S
C763 C747 1.349 . S
C763 H755 0.950 . S
C763 C761 1.327 . S
C764 C752 1.349 . S
C764 H758 0.950 . S
C764 C765 1.327 . S
C765 H759 0.950 . S
C765 C764 1.327 . S
C765 C769 1.429 . S
C766 C749 1.574 . S
C766 H760 0.949 . S
C766 C770 1.368 . S
C767 C748 1.429 . S
C767 C761 1.429 . S
C767 C768 1.523 . S
C768 C749 1.368 . S
C768 C762 1.368 . S
C768 C767 1.523 . S
C769 C753 1.429 . S
C769 C765 1.429 . S
C769 C770 1.523 . S
C770 C754 1.368 . S
C770 C766 1.368 . S
C770 C769 1.523 . S
H771 C746 0.950 . S
H772 C748 0.950 . S
H773 C749 0.949 . S
H774 C751 0.950 . S
H775 C753 0.950 . S
C776 C777 1.349 . S
C776 C778 1.327 . S
C776 H801 0.950 . S
C777 C776 1.349 . S
C777 C793 1.349 . S
C778 C776 1.327 . S
C778 C797 1.429 . S
C778 H802 0.950 . S
C779 C796 1.574 . S
C779 C798 1.368 . S
C779 H803 0.949 . S
H780 C784 0.949 . S
C781 C782 1.349 . S
C781 C783 1.327 . S
C781 H804 0.950 1_655 S
C782 C781 1.349 . S
C782 C794 1.349 . S
C783 C781 1.327 . S
C783 C799 1.429 . S
C783 H805 0.950 . S
C784 H780 0.949 . S
C784 C792 1.574 . S
C784 C800 1.368 . S
H785 C793 0.950 . S
H786 C791 0.950 . S
H787 C792 0.949 . S
H788 C794 0.950 . S
H789 C795 0.950 . S
H790 C796 0.949 . S
C791 H786 0.950 . S
C791 C793 1.327 . S
C791 C797 1.429 . S
C792 C784 1.574 . S
C792 H787 0.949 . S
C792 C798 1.368 . S
C793 C777 1.349 . S
C793 H785 0.950 . S
C793 C791 1.327 . S
C794 C782 1.349 . S
C794 H788 0.950 . S
C794 C795 1.327 . S
C795 H789 0.950 . S
C795 C794 1.327 . S
C795 C799 1.429 . S
C796 C779 1.574 . S
C796 H790 0.949 . S
C796 C800 1.368 . S
C797 C778 1.429 . S
C797 C791 1.429 . S
C797 C798 1.523 . S
C798 C779 1.368 . S
C798 C792 1.368 . S
C798 C797 1.523 . S
C799 C783 1.429 . S
C799 C795 1.429 . S
C799 C800 1.523 . S
C800 C784 1.368 . S
C800 C796 1.368 . S
C800 C799 1.523 . S
H801 C776 0.950 . S
H802 C778 0.950 . S
H803 C779 0.949 . S
H804 C781 0.950 1_455 S
H805 C783 0.950 . S
C806 C807 1.337 1_545 S
C806 C808 1.327 . S
C806 H831 0.950 . S
C807 C806 1.337 1_565 S
C807 C823 1.357 . S
C808 C806 1.327 . S
C808 C827 1.429 . S
C808 H832 0.950 . S
C809 C826 1.574 . S
C809 C828 1.368 1_565 S
C809 H833 0.949 . S
H810 C814 0.949 . S
C811 C812 1.349 . S
C811 C813 1.342 . S
C811 H834 0.950 1_545 S
C812 C811 1.349 . S
C812 C824 1.349 . S
C813 C811 1.342 . S
C813 C829 1.451 . S
C813 H835 0.914 1_545 S
C814 H810 0.949 . S
C814 C822 1.574 . S
C814 C830 1.368 . S
H815 C823 0.950 . S
H816 C821 0.950 . S
H817 C822 0.949 . S
H818 C824 0.950 . S
H819 C825 0.950 . S
H820 C826 0.949 . S
C821 H816 0.950 . S
C821 C823 1.327 . S
C821 C827 1.429 1_565 S
C822 C814 1.574 . S
C822 H817 0.949 . S
C822 C828 1.368 . S
C823 C807 1.357 . S
C823 H815 0.950 . S
C823 C821 1.327 . S
C824 C812 1.349 . S
C824 H818 0.950 . S
C824 C825 1.327 . S
C825 H819 0.950 . S
C825 C824 1.327 . S
C825 C829 1.429 . S
C826 C809 1.574 . S
C826 H820 0.949 . S
C826 C830 1.368 1_565 S
C827 C808 1.429 . S
C827 C821 1.429 1_545 S
C827 C828 1.523 . S
C828 C809 1.368 1_545 S
C828 C822 1.368 . S
C828 C827 1.523 . S
C829 C813 1.451 . S
C829 C825 1.429 . S
C829 C830 1.523 . S
C830 C814 1.368 . S
C830 C826 1.368 1_545 S
C830 C829 1.523 . S
H831 C806 0.950 . S
H832 C808 0.950 . S
H833 C809 0.949 . S
H834 C811 0.950 1_565 S
H835 C813 0.914 1_565 S
C836 C837 1.349 . S
C836 C838 1.327 . S
C836 H861 0.950 . S
C837 C836 1.349 . S
C837 C853 1.349 . S
C838 C836 1.327 . S
C838 C857 1.429 . S
C838 H862 0.950 . S
C839 C856 1.574 . S
C839 C858 1.368 . S
C839 H863 0.949 . S
H840 C844 0.949 . S
C841 C842 1.349 . S
C841 C843 1.327 . S
C841 H864 0.950 . S
C842 C841 1.349 . S
C842 C854 1.349 1_556 S
C843 C841 1.327 . S
C843 C859 1.429 1_556 S
C843 H865 0.950 . S
C844 H840 0.949 . S
C844 C852 1.574 . S
C844 C860 1.368 . S
H845 C853 0.950 . S
H846 C851 0.950 . S
H847 C852 0.949 . S
H848 C854 0.950 . S
H849 C855 0.950 . S
H850 C856 0.949 1_556 S
C851 H846 0.950 . S
C851 C853 1.327 . S
C851 C857 1.429 . S
C852 C844 1.574 . S
C852 H847 0.949 . S
C852 C858 1.368 . S
C853 C837 1.349 . S
C853 H845 0.950 . S
C853 C851 1.327 . S
C854 C842 1.349 1_554 S
C854 H848 0.950 . S
C854 C855 1.327 . S
C855 H849 0.950 . S
C855 C854 1.327 . S
C855 C859 1.429 . S
C856 C839 1.574 . S
C856 H850 0.949 1_554 S
C856 C860 1.368 . S
C857 C838 1.429 . S
C857 C851 1.429 . S
C857 C858 1.523 . S
C858 C839 1.368 . S
C858 C852 1.368 . S
C858 C857 1.523 . S
C859 C843 1.429 1_554 S
C859 C855 1.429 . S
C859 C860 1.523 . S
C860 C844 1.368 . S
C860 C856 1.368 . S
C860 C859 1.523 . S
H861 C836 0.950 . S
H862 C838 0.950 . S
H863 C839 0.949 . S
H864 C841 0.950 . S
H865 C843 0.950 . S
C866 C867 1.349 . S
C866 C868 1.327 . S
C866 H891 0.950 . S
C867 C866 1.349 . S
C867 C883 1.349 . S
C868 C866 1.327 . S
C868 C887 1.429 . S
C868 H892 0.950 . S
C869 C886 1.574 . S
C869 C888 1.368 . S
C869 H893 0.949 . S
H870 C874 0.949 . S
C871 C872 1.349 . S
C871 C873 1.327 . S
C871 H894 0.950 . S
C872 C871 1.349 . S
C872 C884 1.349 . S
C873 C871 1.327 . S
C873 C889 1.429 . S
C873 H895 0.950 . S
C874 H870 0.949 . S
C874 C882 1.574 . S
C874 C890 1.368 . S
H875 C883 0.950 . S
H876 C881 0.950 . S
H877 C882 0.949 . S
H878 C884 0.950 . S
H879 C885 0.950 . S
H880 C886 0.949 . S
C881 H876 0.950 . S
C881 C883 1.327 . S
C881 C887 1.429 . S
C882 C874 1.574 . S
C882 H877 0.949 . S
C882 C888 1.368 . S
C883 C867 1.349 . S
C883 H875 0.950 . S
C883 C881 1.327 . S
C884 C872 1.349 . S
C884 H878 0.950 . S
C884 C885 1.327 . S
C885 H879 0.950 . S
C885 C884 1.327 . S
C885 C889 1.429 . S
C886 C869 1.574 . S
C886 H880 0.949 . S
C886 C890 1.368 . S
C887 C868 1.429 . S
C887 C881 1.429 . S
C887 C888 1.523 . S
C888 C869 1.368 . S
C888 C882 1.368 . S
C888 C887 1.523 . S
C889 C873 1.429 . S
C889 C885 1.429 . S
C889 C890 1.523 . S
C890 C874 1.368 . S
C890 C886 1.368 . S
C890 C889 1.523 . S
H891 C866 0.950 . S
H892 C868 0.950 . S
H893 C869 0.949 . S
H894 C871 0.950 . S
H895 C873 0.950 . S
C896 C897 1.349 . S
C896 C898 1.327 . S
C896 H921 0.950 . S
C897 C896 1.349 . S
C897 C913 1.349 . S
C898 C896 1.327 . S
C898 C917 1.429 . S
C898 H922 0.950 . S
C899 C916 1.574 . S
C899 C918 1.368 . S
C899 H923 0.949 . S
H900 C904 0.949 . S
C901 C902 1.349 . S
C901 C903 1.327 . S
C901 H924 0.950 . S
C902 C901 1.349 . S
C902 C914 1.349 . S
C903 C901 1.327 . S
C903 C919 1.429 . S
C903 H925 0.950 . S
C904 H900 0.949 . S
C904 C912 1.574 . S
C904 C920 1.368 . S
H905 C913 0.950 . S
H906 C911 0.950 . S
H907 C912 0.949 . S
H908 C914 0.950 . S
H909 C915 0.950 . S
H910 C916 0.949 . S
C911 H906 0.950 . S
C911 C913 1.327 . S
C911 C917 1.429 . S
C912 C904 1.574 . S
C912 H907 0.949 . S
C912 C918 1.368 . S
C913 C897 1.349 . S
C913 H905 0.950 . S
C913 C911 1.327 . S
C914 C902 1.349 . S
C914 H908 0.950 . S
C914 C915 1.327 . S
C915 H909 0.950 . S
C915 C914 1.327 . S
C915 C919 1.429 . S
C916 C899 1.574 . S
C916 H910 0.949 . S
C916 C920 1.368 . S
C917 C898 1.429 . S
C917 C911 1.429 . S
C917 C918 1.523 . S
C918 C899 1.368 . S
C918 C912 1.368 . S
C918 C917 1.523 . S
C919 C903 1.429 . S
C919 C915 1.429 . S
C919 C920 1.523 . S
C920 C904 1.368 . S
C920 C916 1.368 . S
C920 C919 1.523 . S
H921 C896 0.950 . S
H922 C898 0.950 . S
H923 C899 0.949 . S
H924 C901 0.950 . S
H925 C903 0.950 . S
C926 C927 1.349 . S
C926 C928 1.327 . S
C926 H951 0.950 . S
C927 C926 1.349 . S
C927 C943 1.349 1_545 S
C928 C926 1.327 . S
C928 C947 1.429 . S
C928 H952 0.950 . S
C929 C946 1.574 . S
C929 C948 1.368 1_565 S
C929 H953 0.949 . S
H930 C934 0.949 . S
C931 C932 1.349 . S
C931 C933 1.327 . S
C931 H954 0.950 1_545 S
C932 C931 1.349 . S
C932 C944 1.349 . S
C933 C931 1.327 . S
C933 C949 1.429 . S
C933 H955 0.950 1_545 S
C934 H930 0.949 . S
C934 C942 1.574 . S
C934 C950 1.368 . S
H935 C943 0.950 . S
H936 C941 0.950 . S
H937 C942 0.949 . S
H938 C944 0.950 . S
H939 C945 0.950 . S
H940 C946 0.949 . S
C941 H936 0.950 . S
C941 C943 1.327 . S
C941 C947 1.429 1_565 S
C942 C934 1.574 . S
C942 H937 0.949 . S
C942 C948 1.368 . S
C943 C927 1.349 1_565 S
C943 H935 0.950 . S
C943 C941 1.327 . S
C944 C932 1.349 . S
C944 H938 0.950 . S
C944 C945 1.327 . S
C945 H939 0.950 . S
C945 C944 1.327 . S
C945 C949 1.429 . S
C946 C929 1.574 . S
C946 H940 0.949 . S
C946 C950 1.368 1_565 S
C947 C928 1.429 . S
C947 C941 1.429 1_545 S
C947 C948 1.523 . S
C948 C929 1.368 1_545 S
C948 C942 1.368 . S
C948 C947 1.523 . S
C949 C933 1.429 . S
C949 C945 1.429 . S
C949 C950 1.523 . S
C950 C934 1.368 . S
C950 C946 1.368 1_545 S
C950 C949 1.523 . S
H951 C926 0.950 . S
H952 C928 0.950 . S
H953 C929 0.949 . S
H954 C931 0.950 1_565 S
H955 C933 0.950 1_565 S
C956 C957 1.349 . S
C956 C958 1.327 . S
C956 H981 0.950 . S
C957 C956 1.349 . S
C957 C973 1.349 . S
C958 C956 1.327 . S
C958 C977 1.429 . S
C958 H982 0.950 . S
C959 C976 1.574 . S
C959 C978 1.368 1_556 S
C959 H983 0.949 . S
H960 C964 0.949 . S
C961 C962 1.349 . S
C961 C963 1.327 . S
C961 H984 0.950 . S
C962 C961 1.349 . S
C962 C974 1.349 . S
C963 C961 1.327 . S
C963 C979 1.429 . S
C963 H985 0.950 . S
C964 H960 0.949 . S
C964 C972 1.574 . S
C964 C980 1.368 1_554 S
H965 C973 0.950 . S
H966 C971 0.950 1_556 S
H967 C972 0.949 . S
H968 C974 0.950 . S
H969 C975 0.950 . S
H970 C976 0.949 . S
C971 H966 0.950 1_554 S
C971 C973 1.327 . S
C971 C977 1.429 . S
C972 C964 1.574 . S
C972 H967 0.949 . S
C972 C978 1.368 . S
C973 C957 1.349 . S
C973 H965 0.950 . S
C973 C971 1.327 . S
C974 C962 1.349 . S
C974 H968 0.950 . S
C974 C975 1.327 . S
C975 H969 0.950 . S
C975 C974 1.327 . S
C975 C979 1.429 . S
C976 C959 1.574 . S
C976 H970 0.949 . S
C976 C980 1.368 . S
C977 C958 1.429 . S
C977 C971 1.429 . S
C977 C978 1.523 . S
C978 C959 1.368 1_554 S
C978 C972 1.368 . S
C978 C977 1.523 . S
C979 C963 1.429 . S
C979 C975 1.429 . S
C979 C980 1.523 . S
C980 C964 1.368 1_556 S
C980 C976 1.368 . S
C980 C979 1.523 . S
H981 C956 0.950 . S
H982 C958 0.950 . S
H983 C959 0.949 . S
H984 C961 0.950 . S
H985 C963 0.950 . S
C986 C987 1.349 . S
C986 C988 1.327 . S
C986 H1011 0.950 . S
C987 C986 1.349 . S
C987 C1003 1.349 . S
C988 C986 1.327 . S
C988 C1007 1.429 . S
C988 H1012 0.950 . S
C989 C1006 1.574 . S
C989 C1008 1.368 . S
C989 H1013 0.949 . S
H990 C994 0.949 . S
C991 C992 1.349 . S
C991 C993 1.327 . S
C991 H1014 0.950 . S
C992 C991 1.349 . S
C992 C1004 1.349 . S
C993 C991 1.327 . S
C993 C1009 1.429 . S
C993 H1015 0.950 . S
C994 H990 0.949 . S
C994 C1002 1.574 . S
C994 C1010 1.368 . S
H995 C1003 0.950 . S
H996 C1001 0.950 . S
H997 C1002 0.949 . S
H998 C1004 0.950 . S
H999 C1005 0.950 . S
H1000 C1006 0.949 . S
C1001 H996 0.950 . S
C1001 C1003 1.327 . S
C1001 C1007 1.429 . S
C1002 C994 1.574 . S
C1002 H997 0.949 . S
C1002 C1008 1.368 . S
C1003 C987 1.349 . S
C1003 H995 0.950 . S
C1003 C1001 1.327 . S
C1004 C992 1.349 . S
C1004 H998 0.950 . S
C1004 C1005 1.327 . S
C1005 H999 0.950 . S
C1005 C1004 1.327 . S
C1005 C1009 1.429 . S
C1006 C989 1.574 . S
C1006 H1000 0.949 . S
C1006 C1010 1.368 . S
C1007 C988 1.429 . S
C1007 C1001 1.429 . S
C1007 C1008 1.523 . S
C1008 C989 1.368 . S
C1008 C1002 1.368 . S
C1008 C1007 1.523 . S
C1009 C993 1.429 . S
C1009 C1005 1.429 . S
C1009 C1010 1.523 . S
C1010 C994 1.368 . S
C1010 C1006 1.368 . S
C1010 C1009 1.523 . S
H1011 C986 0.950 . S
H1012 C988 0.950 . S
H1013 C989 0.949 . S
H1014 C991 0.950 . S
H1015 C993 0.950 . S
C1016 C1017 1.349 . S
C1016 C1018 1.327 . S
C1016 H1041 0.950 . S
C1017 C1016 1.349 . S
C1017 C1033 1.349 . S
C1018 C1016 1.327 . S
C1018 C1037 1.429 . S
C1018 H1042 0.950 . S
C1019 C1036 1.574 . S
C1019 C1038 1.368 . S
C1019 H1043 0.949 . S
H1020 C1024 0.949 . S
C1021 C1022 1.349 . S
C1021 C1023 1.327 . S
C1021 H1044 0.950 . S
C1022 C1021 1.349 . S
C1022 C1034 1.349 . S
C1023 C1021 1.327 . S
C1023 C1039 1.429 . S
C1023 H1045 0.950 . S
C1024 H1020 0.949 . S
C1024 C1032 1.574 . S
C1024 C1040 1.368 . S
H1025 C1033 0.950 . S
H1026 C1031 0.950 . S
H1027 C1032 0.949 . S
H1028 C1034 0.950 . S
H1029 C1035 0.950 . S
H1030 C1036 0.949 . S
C1031 H1026 0.950 . S
C1031 C1033 1.327 . S
C1031 C1037 1.429 . S
C1032 C1024 1.574 . S
C1032 H1027 0.949 . S
C1032 C1038 1.368 . S
C1033 C1017 1.349 . S
C1033 H1025 0.950 . S
C1033 C1031 1.327 . S
C1034 C1022 1.349 . S
C1034 H1028 0.950 . S
C1034 C1035 1.327 . S
C1035 H1029 0.950 . S
C1035 C1034 1.327 . S
C1035 C1039 1.429 . S
C1036 C1019 1.574 . S
C1036 H1030 0.949 . S
C1036 C1040 1.368 . S
C1037 C1018 1.429 . S
C1037 C1031 1.429 . S
C1037 C1038 1.523 . S
C1038 C1019 1.368 . S
C1038 C1032 1.368 . S
C1038 C1037 1.523 . S
C1039 C1023 1.429 . S
C1039 C1035 1.429 . S
C1039 C1040 1.523 . S
C1040 C1024 1.368 . S
C1040 C1036 1.368 . S
C1040 C1039 1.523 . S
H1041 C1016 0.950 . S
H1042 C1018 0.950 . S
H1043 C1019 0.949 . S
H1044 C1021 0.950 . S
H1045 C1023 0.950 . S
C1046 C1047 1.349 . S
C1046 C1048 1.327 . S
C1046 H1071 0.950 . S
C1047 C1046 1.349 . S
C1047 C1063 1.349 1_565 S
C1048 C1046 1.327 . S
C1048 C1067 1.429 . S
C1048 H1072 0.950 . S
C1049 C1066 1.574 . S
C1049 C1068 1.368 1_545 S
C1049 H1073 0.949 . S
H1050 C1054 0.949 . S
C1051 C1052 1.349 . S
C1051 C1053 1.327 . S
C1051 H1074 0.950 1_565 S
C1052 C1051 1.349 . S
C1052 C1064 1.349 . S
C1053 C1051 1.327 . S
C1053 C1069 1.429 . S
C1053 H1075 0.950 1_565 S
C1054 H1050 0.949 . S
C1054 C1062 1.574 . S
C1054 C1070 1.368 . S
H1055 C1063 0.950 . S
H1056 C1061 0.950 . S
H1057 C1062 0.949 . S
H1058 C1064 0.950 . S
H1059 C1065 0.950 . S
H1060 C1066 0.949 . S
C1061 H1056 0.950 . S
C1061 C1063 1.327 . S
C1061 C1067 1.429 1_545 S
C1062 C1054 1.574 . S
C1062 H1057 0.949 . S
C1062 C1068 1.368 . S
C1063 C1047 1.349 1_545 S
C1063 H1055 0.950 . S
C1063 C1061 1.327 . S
C1064 C1052 1.349 . S
C1064 H1058 0.950 . S
C1064 C1065 1.327 . S
C1065 H1059 0.950 . S
C1065 C1064 1.327 . S
C1065 C1069 1.429 . S
C1066 C1049 1.574 . S
C1066 H1060 0.949 . S
C1066 C1070 1.368 1_545 S
C1067 C1048 1.429 . S
C1067 C1061 1.429 1_565 S
C1067 C1068 1.523 . S
C1068 C1049 1.368 1_565 S
C1068 C1062 1.368 . S
C1068 C1067 1.523 . S
C1069 C1053 1.429 . S
C1069 C1065 1.429 . S
C1069 C1070 1.523 . S
C1070 C1054 1.368 . S
C1070 C1066 1.368 1_565 S
C1070 C1069 1.523 . S
H1071 C1046 0.950 . S
H1072 C1048 0.950 . S
H1073 C1049 0.949 . S
H1074 C1051 0.950 1_545 S
H1075 C1053 0.950 1_545 S
C1076 C1077 1.349 . S
C1076 C1078 1.327 . S
C1076 H1101 0.950 . S
C1077 C1076 1.349 . S
C1077 C1093 1.349 . S
C1078 C1076 1.327 . S
C1078 C1097 1.429 . S
C1078 H1102 0.950 . S
C1079 C1096 1.574 . S
C1079 C1098 1.368 . S
C1079 H1103 0.949 . S
H1080 C1084 0.949 . S
C1081 C1082 1.349 . S
C1081 C1083 1.327 . S
C1081 H1104 0.950 . S
C1082 C1081 1.349 . S
C1082 C1094 1.349 . S
C1083 C1081 1.327 . S
C1083 C1099 1.429 . S
C1083 H1105 0.950 . S
C1084 H1080 0.949 . S
C1084 C1092 1.574 . S
C1084 C1100 1.368 . S
H1085 C1093 0.950 . S
H1086 C1091 0.950 . S
H1087 C1092 0.949 . S
H1088 C1094 0.950 . S
H1089 C1095 0.950 . S
H1090 C1096 0.949 . S
C1091 H1086 0.950 . S
C1091 C1093 1.327 . S
C1091 C1097 1.429 . S
C1092 C1084 1.574 . S
C1092 H1087 0.949 . S
C1092 C1098 1.368 . S
C1093 C1077 1.349 . S
C1093 H1085 0.950 . S
C1093 C1091 1.327 . S
C1094 C1082 1.349 . S
C1094 H1088 0.950 . S
C1094 C1095 1.327 . S
C1095 H1089 0.950 . S
C1095 C1094 1.327 . S
C1095 C1099 1.429 . S
C1096 C1079 1.574 . S
C1096 H1090 0.949 . S
C1096 C1100 1.368 . S
C1097 C1078 1.429 . S
C1097 C1091 1.429 . S
C1097 C1098 1.523 . S
C1098 C1079 1.368 . S
C1098 C1092 1.368 . S
C1098 C1097 1.523 . S
C1099 C1083 1.429 . S
C1099 C1095 1.429 . S
C1099 C1100 1.523 . S
C1100 C1084 1.368 . S
C1100 C1096 1.368 . S
C1100 C1099 1.523 . S
H1101 C1076 0.950 . S
H1102 C1078 0.950 . S
H1103 C1079 0.949 . S
H1104 C1081 0.950 . S
H1105 C1083 0.950 . S
C1106 C1107 1.349 . S
C1106 C1108 1.327 . S
C1106 H1131 0.950 . S
C1107 C1106 1.349 . S
C1107 C1123 1.349 . S
C1108 C1106 1.327 . S
C1108 C1127 1.429 . S
C1108 H1132 0.950 . S
C1109 C1126 1.574 . S
C1109 C1128 1.368 . S
C1109 H1133 0.949 . S
H1110 C1114 0.949 . S
C1111 C1112 1.349 . S
C1111 C1113 1.327 . S
C1111 H1134 0.950 . S
C1112 C1111 1.349 . S
C1112 C1124 1.349 . S
C1113 C1111 1.327 . S
C1113 C1129 1.429 . S
C1113 H1135 0.950 . S
C1114 H1110 0.949 . S
C1114 C1122 1.574 . S
C1114 C1130 1.368 . S
H1115 C1123 0.950 . S
H1116 C1121 0.950 . S
H1117 C1122 0.949 . S
H1118 C1124 0.950 . S
H1119 C1125 0.950 . S
H1120 C1126 0.949 . S
C1121 H1116 0.950 . S
C1121 C1123 1.327 . S
C1121 C1127 1.429 . S
C1122 C1114 1.574 . S
C1122 H1117 0.949 . S
C1122 C1128 1.368 . S
C1123 C1107 1.349 . S
C1123 H1115 0.950 . S
C1123 C1121 1.327 . S
C1124 C1112 1.349 . S
C1124 H1118 0.950 . S
C1124 C1125 1.327 . S
C1125 H1119 0.950 . S
C1125 C1124 1.327 . S
C1125 C1129 1.429 . S
C1126 C1109 1.574 . S
C1126 H1120 0.949 . S
C1126 C1130 1.368 . S
C1127 C1108 1.429 . S
C1127 C1121 1.429 . S
C1127 C1128 1.523 . S
C1128 C1109 1.368 . S
C1128 C1122 1.368 . S
C1128 C1127 1.523 . S
C1129 C1113 1.429 . S
C1129 C1125 1.429 . S
C1129 C1130 1.523 . S
C1130 C1114 1.368 . S
C1130 C1126 1.368 . S
C1130 C1129 1.523 . S
H1131 C1106 0.950 . S
H1132 C1108 0.950 . S
H1133 C1109 0.949 . S
H1134 C1111 0.950 . S
H1135 C1113 0.950 . S
C417 C215 0.882 . S
C422 C265 0.869 . S
C452 C305 1.594 . S
C447 C247 1.691 . S
C482 C354 1.559 . S
C477 C151 1.486 . S
C512 C385 2.016 . S
C507 C183 2.110 . S
C542 C274 0.868 . S
C537 C87 0.874 . S
C567 C119 1.548 . S
C572 C314 1.599 . S
C597 C23 1.618 1_556 S
C602 C345 1.559 . S
C627 C55 1.921 1_556 S
C632 C394 2.016 1_655 S
C662 C275 0.932 . S
C657 C189 0.906 . S
C692 C315 0.423 . S
C687 C221 0.553 . S
C722 C351 0.437 . S
C717 C253 0.411 . S
C747 C157 0.992 . S
C752 C395 1.111 . S
C777 C61 0.835 . S
C782 C266 0.938 1_655 S
C812 C306 0.425 . S
C807 C93 0.554 1_565 S
C842 C342 0.437 . S
C837 C125 0.572 . S
C867 C29 1.077 . S
C872 C386 1.111 . S
C897 C177 1.996 . S
C902 C271 2.026 . S
C927 C209 1.565 . S
C932 C311 1.610 . S
C962 C355 2.456 . S
C957 C241 2.323 . S
C992 C391 1.628 . S
C987 C145 1.511 . S
C1017 C49 1.885 . S
C1022 C262 2.036 . S
C1052 C302 1.611 . S
C1047 C81 1.596 1_565 S
C1082 C346 2.455 . S
C1077 C113 2.193 . S
C1107 C17 1.625 . S
C1112 C382 1.627 . S
