# Generated by pormake.
# Topology pto, (3,4)-cn, num edge types: 1
# Building blocks:
#     Node 0, Type 0, BuildingBlock: OLANEW_clean_sbu_2, # of connection points: 3
#     Node 1, Type 0, BuildingBlock: OLANEW_clean_sbu_2, # of connection points: 3
#     Node 2, Type 0, BuildingBlock: OLANEW_clean_sbu_2, # of connection points: 3
#     Node 3, Type 0, BuildingBlock: OLANEW_clean_sbu_2, # of connection points: 3
#     Node 4, Type 0, BuildingBlock: OLANEW_clean_sbu_2, # of connection points: 3
#     Node 5, Type 0, BuildingBlock: OLANEW_clean_sbu_2, # of connection points: 3
#     Node 6, Type 0, BuildingBlock: OLANEW_clean_sbu_2, # of connection points: 3
#     Node 7, Type 0, BuildingBlock: OLANEW_clean_sbu_2, # of connection points: 3
#     Node 8, Type 1, BuildingBlock: AZAVOO_clean_linker_0, # of connection points: 4
#     Node 9, Type 1, BuildingBlock: AZAVOO_clean_linker_0, # of connection points: 4
#     Node 10, Type 1, BuildingBlock: AZAVOO_clean_linker_0, # of connection points: 4
#     Node 11, Type 1, BuildingBlock: AZAVOO_clean_linker_0, # of connection points: 4
#     Node 12, Type 1, BuildingBlock: AZAVOO_clean_linker_0, # of connection points: 4
#     Node 13, Type 1, BuildingBlock: AZAVOO_clean_linker_0, # of connection points: 4
#     Edge 14, Type (0, 1), BuildingBlock: UVAHIK_clean_linker_0, # of connection points: 2
#     Edge 15, Type (0, 1), BuildingBlock: UVAHIK_clean_linker_0, # of connection points: 2
#     Edge 16, Type (0, 1), BuildingBlock: UVAHIK_clean_linker_0, # of connection points: 2
#     Edge 17, Type (0, 1), BuildingBlock: UVAHIK_clean_linker_0, # of connection points: 2
#     Edge 18, Type (0, 1), BuildingBlock: UVAHIK_clean_linker_0, # of connection points: 2
#     Edge 19, Type (0, 1), BuildingBlock: UVAHIK_clean_linker_0, # of connection points: 2
#     Edge 20, Type (0, 1), BuildingBlock: UVAHIK_clean_linker_0, # of connection points: 2
#     Edge 21, Type (0, 1), BuildingBlock: UVAHIK_clean_linker_0, # of connection points: 2
#     Edge 22, Type (0, 1), BuildingBlock: UVAHIK_clean_linker_0, # of connection points: 2
#     Edge 23, Type (0, 1), BuildingBlock: UVAHIK_clean_linker_0, # of connection points: 2
#     Edge 24, Type (0, 1), BuildingBlock: UVAHIK_clean_linker_0, # of connection points: 2
#     Edge 25, Type (0, 1), BuildingBlock: UVAHIK_clean_linker_0, # of connection points: 2
#     Edge 26, Type (0, 1), BuildingBlock: UVAHIK_clean_linker_0, # of connection points: 2
#     Edge 27, Type (0, 1), BuildingBlock: UVAHIK_clean_linker_0, # of connection points: 2
#     Edge 28, Type (0, 1), BuildingBlock: UVAHIK_clean_linker_0, # of connection points: 2
#     Edge 29, Type (0, 1), BuildingBlock: UVAHIK_clean_linker_0, # of connection points: 2
#     Edge 30, Type (0, 1), BuildingBlock: UVAHIK_clean_linker_0, # of connection points: 2
#     Edge 31, Type (0, 1), BuildingBlock: UVAHIK_clean_linker_0, # of connection points: 2
#     Edge 32, Type (0, 1), BuildingBlock: UVAHIK_clean_linker_0, # of connection points: 2
#     Edge 33, Type (0, 1), BuildingBlock: UVAHIK_clean_linker_0, # of connection points: 2
#     Edge 34, Type (0, 1), BuildingBlock: UVAHIK_clean_linker_0, # of connection points: 2
#     Edge 35, Type (0, 1), BuildingBlock: UVAHIK_clean_linker_0, # of connection points: 2
#     Edge 36, Type (0, 1), BuildingBlock: UVAHIK_clean_linker_0, # of connection points: 2
#     Edge 37, Type (0, 1), BuildingBlock: UVAHIK_clean_linker_0, # of connection points: 2
# Relax obj value: 0.067
# Max RMSD: 0.230
# Mean RMSD: 0.142
data_MOF--net-pto--node1-OLANEW_clean_sbu_2--node2-AZAVOO_clean_linker_0--edge1-UVAHIK_clean_linker_0
_symmetry_space_group_name_H-M    P1
_symmetry_Int_Tables_number       1
_symmetry_cell_setting            triclinic
loop_
_symmetry_equiv_pos_as_xyz
'x, y, z'
_cell_length_a     60.867996
_cell_length_b     63.198073
_cell_length_c     62.907554
_cell_angle_alpha  93.318915
_cell_angle_beta   90.424713
_cell_angle_gamma 105.81406
loop_
_atom_site_label
_atom_site_type_symbol
_atom_site_fract_x
_atom_site_fract_y
_atom_site_fract_z
_atom_type_partial_charge
O0 O 0.35547 0.43719 0.27089 0.0
Cd1 Cd 0.32597 0.43413 0.29755 0.0
O2 O 0.36102 0.4726 0.26694 0.0
Cd3 Cd 0.33325 0.47497 0.28773 0.0
O4 O 0.29974 0.48049 0.29194 0.0
C5 C 0.28578 0.47353 0.27633 0.0
O6 O 0.29214 0.46295 0.25994 0.0
C7 C 0.36598 0.45466 0.2622 0.0
C8 C 0.33034 0.4041 0.32696 0.0
O9 O 0.31929 0.39761 0.3093 0.0
O10 O 0.33909 0.42485 0.33087 0.0
O11 O 0.2983 0.97058 0.84283 0.0
Cd12 Cd 0.27313 0.98592 0.82174 0.0
O13 O 0.27379 0.93814 0.83789 0.0
Cd14 Cd 0.25907 0.90245 0.8385 0.0
O15 O 0.23658 0.86906 0.83296 0.0
C16 C 0.2189 0.86295 0.84411 0.0
O17 O 0.21513 0.87662 0.85928 0.0
C18 C 0.29249 0.95018 0.84618 0.0
C19 C 0.29314 0.00514 0.78522 0.0
O20 O 0.2953 0.0163 0.80316 0.0
O21 O 0.28175 0.9848 0.78461 0.0
O22 O 0.85251 0.87419 0.28753 0.0
Cd23 Cd 0.87649 0.8712 0.25715 0.0
O24 O 0.82286 0.86182 0.26588 0.0
Cd25 Cd 0.78655 0.85205 0.25653 0.0
O26 O 0.75244 0.84811 0.24288 0.0
C27 C 0.7409 0.86123 0.24904 0.0
O28 O 0.74944 0.87654 0.26418 0.0
C29 C 0.83103 0.86931 0.28435 0.0
C30 C 0.89219 0.83371 0.25583 0.0
O31 O 0.90387 0.8518 0.26536 0.0
O32 O 0.87296 0.83332 0.24714 0.0
O33 O 0.80017 0.24864 0.80628 0.0
Cd34 Cd 0.77478 0.21465 0.81848 0.0
O35 O 0.81976 0.25636 0.83657 0.0
Cd36 Cd 0.79347 0.23285 0.85303 0.0
O37 O 0.76313 0.23294 0.87118 0.0
C38 C 0.74611 0.23605 0.86129 0.0
O39 O 0.74674 0.23691 0.84048 0.0
C40 C 0.81697 0.26068 0.81741 0.0
C41 C 0.76051 0.18311 0.7848 0.0
O42 O 0.74847 0.19616 0.79047 0.0
O43 O 0.77919 0.18489 0.79519 0.0
O44 O 0.75641 0.81084 0.70509 0.0
Cd45 Cd 0.74908 0.78688 0.7349 0.0
O46 O 0.78111 0.83887 0.72201 0.0
Cd47 Cd 0.77368 0.82404 0.75243 0.0
O48 O 0.75236 0.82077 0.78034 0.0
C49 C 0.73465 0.8274 0.77781 0.0
O50 O 0.73095 0.83456 0.75928 0.0
C51 C 0.77028 0.82996 0.70499 0.0
C52 C 0.78364 0.76631 0.74035 0.0
O53 O 0.7679 0.75902 0.72602 0.0
O54 O 0.78306 0.78332 0.75221 0.0
O55 O 0.69389 0.31948 0.28559 0.0
Cd56 Cd 0.65401 0.29867 0.28957 0.0
O57 O 0.69997 0.33223 0.31905 0.0
Cd58 Cd 0.66326 0.32414 0.32348 0.0
O59 O 0.63408 0.33126 0.30822 0.0
C60 C 0.63877 0.35043 0.30126 0.0
O61 O 0.65921 0.36382 0.3054 0.0
C62 C 0.70752 0.32987 0.30051 0.0
C63 C 0.65182 0.26183 0.31271 0.0
O64 O 0.65421 0.26105 0.29248 0.0
O65 O 0.65007 0.27989 0.32192 0.0
O66 O 0.25334 0.39307 0.8581 0.0
Cd67 Cd 0.21806 0.38402 0.8369 0.0
O68 O 0.26967 0.38769 0.82827 0.0
Cd69 Cd 0.29607 0.38488 0.80571 0.0
O70 O 0.31615 0.36915 0.78475 0.0
C71 C 0.31685 0.34996 0.78914 0.0
O72 O 0.30628 0.34136 0.80605 0.0
C73 C 0.27136 0.39263 0.84825 0.0
C74 C 0.2041 0.42171 0.83111 0.0
O75 O 0.21824 0.41611 0.81846 0.0
O76 O 0.19651 0.40939 0.84641 0.0
O77 O 0.35529 0.87938 0.29406 0.0
Cd78 Cd 0.33239 0.86957 0.32565 0.0
O79 O 0.3248 0.87699 0.27408 0.0
Cd80 Cd 0.29958 0.86255 0.29733 0.0
O81 O 0.26922 0.83484 0.29945 0.0
C82 C 0.26625 0.82112 0.28338 0.0
O83 O 0.28133 0.82475 0.26822 0.0
C84 C 0.34639 0.88134 0.27619 0.0
C85 C 0.33678 0.90581 0.35452 0.0
O86 O 0.34978 0.89304 0.35605 0.0
O87 O 0.32173 0.90142 0.33937 0.0
H88 H 0.00392 0.42229 0.26489 0.0
H89 H 0.85387 0.5659 0.20565 0.0
H90 H 0.03208 0.54197 0.27922 0.0
H91 H 0.06875 0.53385 0.28428 0.0
H92 H 0.08667 0.55142 0.22003 0.0
H93 H 0.04965 0.55916 0.21502 0.0
H94 H 0.98591 0.5086 0.27493 0.0
H95 H 0.99091 0.47161 0.27671 0.0
H96 H 0.01834 0.4757 0.21338 0.0
H97 H 0.013 0.51258 0.21173 0.0
H98 H 0.94549 0.53279 0.27331 0.0
H99 H 0.91355 0.50108 0.27961 0.0
H100 H 0.92538 0.46944 0.21966 0.0
H101 H 0.95701 0.50186 0.2131 0.0
H102 H 0.94732 0.5788 0.26672 0.0
H103 H 0.90926 0.58397 0.2617 0.0
H104 H 0.90452 0.55179 0.1986 0.0
H105 H 0.94272 0.54698 0.20373 0.0
H106 H 0.9961 0.60839 0.27324 0.0
H107 H 0.9869 0.64379 0.27476 0.0
H108 H 0.96729 0.63357 0.20799 0.0
H109 H 0.97701 0.59834 0.20652 0.0
H110 H 0.03775 0.59021 0.27871 0.0
H111 H 0.07057 0.6226 0.28426 0.0
H112 H 0.06449 0.63754 0.21864 0.0
H113 H 0.03196 0.60471 0.21312 0.0
O114 O 0.00205 0.43693 0.26384 0.0
O115 O 0.01616 0.43992 0.2313 0.0
O116 O 0.87225 0.58054 0.2406 0.0
O117 O 0.86895 0.56407 0.20806 0.0
C118 C 0.01523 0.55415 0.24331 0.0
C119 C 0.99593 0.53563 0.24203 0.0
C120 C 0.97383 0.53853 0.24014 0.0
C121 C 0.97111 0.55986 0.23836 0.0
C122 C 0.99044 0.5784 0.23964 0.0
C123 C 0.01249 0.57556 0.24242 0.0
C124 C 0.03823 0.55102 0.24673 0.0
C125 C 0.04402 0.5442 0.26631 0.0
C126 C 0.065 0.53971 0.2692 0.0
C127 C 0.08057 0.54196 0.25253 0.0
C128 C 0.07491 0.54931 0.23307 0.0
C129 C 0.0539 0.55387 0.23022 0.0
C130 C 0.99896 0.51317 0.24315 0.0
C131 C 0.99287 0.50141 0.26142 0.0
C132 C 0.99581 0.48032 0.26241 0.0
C133 C 0.005 0.47068 0.24517 0.0
C134 C 0.01119 0.48262 0.22692 0.0
C135 C 0.00818 0.50368 0.22594 0.0
C136 C 0.9535 0.51965 0.24273 0.0
C137 C 0.94098 0.51916 0.26138 0.0
C138 C 0.92293 0.50089 0.26507 0.0
C139 C 0.91713 0.48259 0.25027 0.0
C140 C 0.92939 0.48331 0.23132 0.0
C141 C 0.94746 0.50174 0.22757 0.0
C142 C 0.94784 0.56271 0.23551 0.0
C143 C 0.93809 0.57301 0.25178 0.0
C144 C 0.91632 0.57587 0.2489 0.0
C145 C 0.90386 0.56833 0.22971 0.0
C146 C 0.91365 0.55782 0.21354 0.0
C147 C 0.93544 0.55503 0.21643 0.0
C148 C 0.98726 0.60086 0.23977 0.0
C149 C 0.99025 0.61402 0.25885 0.0
C150 C 0.98477 0.6341 0.25974 0.0
C151 C 0.9762 0.64136 0.24154 0.0
C152 C 0.97403 0.62849 0.22222 0.0
C153 C 0.97949 0.60837 0.22137 0.0
C154 C 0.0326 0.59507 0.24549 0.0
C155 C 0.04365 0.6004 0.2655 0.0
C156 C 0.06223 0.61901 0.26869 0.0
C157 C 0.0701 0.63267 0.2519 0.0
C158 C 0.059 0.62721 0.23182 0.0
C159 C 0.04037 0.60857 0.22866 0.0
C160 C 0.00811 0.44827 0.24627 0.0
C161 C 0.88075 0.57139 0.22654 0.0
H162 H 0.0394 0.45793 0.81003 0.0
H163 H 0.83974 0.54011 0.7395 0.0
H164 H 0.031 0.57224 0.82135 0.0
H165 H 0.06937 0.56785 0.8263 0.0
H166 H 0.08296 0.58002 0.76016 0.0
H167 H 0.04447 0.58452 0.75539 0.0
H168 H 0.99201 0.52709 0.81429 0.0
H169 H 0.00899 0.49656 0.81828 0.0
H170 H 0.0393 0.50743 0.75648 0.0
H171 H 0.0219 0.53767 0.75258 0.0
H172 H 0.94138 0.52973 0.80551 0.0
H173 H 0.9198 0.49086 0.80465 0.0
H174 H 0.94866 0.47967 0.74382 0.0
H175 H 0.97035 0.51856 0.74498 0.0
H176 H 0.93264 0.57852 0.80233 0.0
H177 H 0.89156 0.57236 0.79631 0.0
H178 H 0.89673 0.54194 0.73386 0.0
H179 H 0.93784 0.54844 0.73998 0.0
H180 H 0.97503 0.62269 0.80656 0.0
H181 H 0.95669 0.65206 0.80183 0.0
H182 H 0.93842 0.62671 0.73679 0.0
H183 H 0.95843 0.59876 0.74125 0.0
H184 H 0.01933 0.61336 0.81985 0.0
H185 H 0.04633 0.64972 0.82643 0.0
H186 H 0.04437 0.66046 0.75928 0.0
H187 H 0.01749 0.62375 0.75283 0.0
O188 O 0.03264 0.46992 0.80804 0.0
O189 O 0.04812 0.47641 0.77633 0.0
O190 O 0.85425 0.55866 0.77448 0.0
O191 O 0.85596 0.54278 0.74228 0.0
C192 C 0.01034 0.57523 0.78375 0.0
C193 C 0.996 0.55351 0.78111 0.0
C194 C 0.9724 0.54982 0.77708 0.0
C195 C 0.96318 0.56789 0.77528 0.0
C196 C 0.97769 0.58972 0.77739 0.0
C197 C 0.00124 0.59335 0.78207 0.0
C198 C 0.03504 0.5786 0.78802 0.0
C199 C 0.0426 0.57481 0.80817 0.0
C200 C 0.0645 0.57234 0.81096 0.0
C201 C 0.07903 0.57343 0.79355 0.0
C202 C 0.07202 0.57899 0.77378 0.0
C203 C 0.05017 0.58169 0.77107 0.0
C204 C 0.00576 0.53456 0.78317 0.0
C205 C 0.00219 0.52273 0.80159 0.0
C206 C 0.01197 0.50536 0.80384 0.0
C207 C 0.02555 0.49958 0.78772 0.0
C208 C 0.02896 0.51145 0.76921 0.0
C209 C 0.01907 0.52874 0.76695 0.0
C210 C 0.95742 0.5269 0.77533 0.0
C211 C 0.94272 0.51893 0.79186 0.0
C212 C 0.9304 0.49674 0.7913 0.0
C213 C 0.93261 0.48214 0.7742 0.0
C214 C 0.94684 0.49041 0.75735 0.0
C215 C 0.95912 0.51261 0.75791 0.0
C216 C 0.9382 0.56392 0.7716 0.0
C217 C 0.92487 0.57058 0.78734 0.0
C218 C 0.90141 0.56701 0.78388 0.0
C219 C 0.89085 0.55664 0.7646 0.0
C220 C 0.9043 0.54995 0.74888 0.0
C221 C 0.92777 0.55358 0.75236 0.0
C222 C 0.9681 0.60859 0.77424 0.0
C223 C 0.96756 0.62389 0.79115 0.0
C224 C 0.95674 0.64047 0.78848 0.0
C225 C 0.94583 0.64178 0.76895 0.0
C226 C 0.94691 0.62662 0.75195 0.0
C227 C 0.95814 0.6104 0.75451 0.0
C228 C 0.01648 0.61598 0.78588 0.0
C229 C 0.02464 0.62364 0.80659 0.0
C230 C 0.03995 0.64445 0.81032 0.0
C231 C 0.04747 0.65798 0.79338 0.0
C232 C 0.03905 0.65033 0.77263 0.0
C233 C 0.02361 0.62948 0.76892 0.0
C234 C 0.03614 0.48129 0.79026 0.0
C235 C 0.86592 0.5528 0.76084 0.0
H236 H 0.32624 0.14376 0.39762 0.0
H237 H 0.41004 0.32906 0.56867 0.0
H238 H 0.32565 0.13333 0.51203 0.0
H239 H 0.32069 0.09697 0.494 0.0
H240 H 0.39249 0.10303 0.50457 0.0
H241 H 0.39703 0.13914 0.52318 0.0
H242 H 0.32748 0.17546 0.48697 0.0
H243 H 0.32063 0.16323 0.44928 0.0
H244 H 0.38766 0.15218 0.44674 0.0
H245 H 0.39437 0.16471 0.48436 0.0
H246 H 0.33603 0.22247 0.51641 0.0
H247 H 0.3329 0.24991 0.49148 0.0
H248 H 0.39272 0.24153 0.45943 0.0
H249 H 0.39635 0.21466 0.48501 0.0
H250 H 0.34376 0.22549 0.56325 0.0
H251 H 0.35031 0.26413 0.57578 0.0
H252 H 0.41546 0.28006 0.5448 0.0
H253 H 0.40885 0.2413 0.53265 0.0
H254 H 0.33957 0.18118 0.58507 0.0
H255 H 0.34096 0.19811 0.62119 0.0
H256 H 0.41094 0.23513 0.61259 0.0
H257 H 0.40957 0.21775 0.57655 0.0
H258 H 0.33087 0.136 0.5569 0.0
H259 H 0.32615 0.11076 0.58557 0.0
H260 H 0.39673 0.13929 0.60515 0.0
H261 H 0.40141 0.16436 0.57613 0.0
O262 O 0.32936 0.14867 0.41247 0.0
O263 O 0.36391 0.14314 0.41205 0.0
O264 O 0.37345 0.30457 0.5797 0.0
O265 O 0.40699 0.31367 0.56389 0.0
C266 C 0.36535 0.16224 0.52638 0.0
C267 C 0.36535 0.17804 0.51133 0.0
C268 C 0.36842 0.20036 0.51818 0.0
C269 C 0.37219 0.20699 0.54004 0.0
C270 C 0.37213 0.19119 0.55513 0.0
C271 C 0.36845 0.16872 0.54832 0.0
C272 C 0.3617 0.13883 0.51883 0.0
C273 C 0.34016 0.12654 0.51085 0.0
C274 C 0.33744 0.10588 0.50037 0.0
C275 C 0.35627 0.0972 0.49752 0.0
C276 C 0.37759 0.10911 0.5066 0.0
C277 C 0.38025 0.12975 0.51722 0.0
C278 C 0.36142 0.17099 0.48835 0.0
C279 C 0.34069 0.17051 0.47819 0.0
C280 C 0.33681 0.16346 0.45669 0.0
C281 C 0.35359 0.1567 0.445 0.0
C282 C 0.37437 0.15725 0.45527 0.0
C283 C 0.37825 0.16437 0.47675 0.0
C284 C 0.3665 0.21667 0.50263 0.0
C285 C 0.34861 0.22672 0.50416 0.0
C286 C 0.34683 0.24233 0.48993 0.0
C287 C 0.36261 0.24782 0.47362 0.0
C288 C 0.3803 0.23748 0.47184 0.0
C289 C 0.38236 0.22217 0.48638 0.0
C290 C 0.3759 0.23058 0.54717 0.0
C291 C 0.35948 0.23734 0.55927 0.0
C292 C 0.36324 0.25943 0.56636 0.0
C293 C 0.38344 0.27519 0.56132 0.0
C294 C 0.39974 0.26836 0.54899 0.0
C295 C 0.396 0.24624 0.54198 0.0
C296 C 0.37444 0.19829 0.57816 0.0
C297 C 0.35542 0.1924 0.59122 0.0
C298 C 0.35624 0.20211 0.61182 0.0
C299 C 0.37601 0.21806 0.61959 0.0
C300 C 0.39543 0.22304 0.6069 0.0
C301 C 0.3947 0.21309 0.58639 0.0
C302 C 0.36652 0.15194 0.56432 0.0
C303 C 0.34547 0.13644 0.56703 0.0
C304 C 0.3428 0.12207 0.58345 0.0
C305 C 0.36107 0.12308 0.59763 0.0
C306 C 0.38231 0.13827 0.59457 0.0
C307 C 0.38503 0.15251 0.57798 0.0
C308 C 0.34936 0.14909 0.42219 0.0
C309 C 0.38757 0.29866 0.56889 0.0
H310 H 0.48099 0.88473 0.88459 0.0
H311 H 0.65705 0.83566 0.05128 0.0
H312 H 0.49725 0.91254 0.0156 0.0
H313 H 0.46428 0.92142 0.99966 0.0
H314 H 0.4363 0.85295 0.97853 0.0
H315 H 0.46906 0.84419 0.99493 0.0
H316 H 0.51694 0.9034 0.97215 0.0
H317 H 0.50266 0.9022 0.93553 0.0
H318 H 0.49398 0.83185 0.92974 0.0
H319 H 0.50798 0.83325 0.96652 0.0
H320 H 0.56442 0.8944 0.9701 0.0
H321 H 0.58916 0.88788 0.94138 0.0
H322 H 0.57907 0.82104 0.95955 0.0
H323 H 0.55429 0.82773 0.98822 0.0
H324 H 0.59221 0.89582 0.01408 0.0
H325 H 0.63011 0.89152 0.02217 0.0
H326 H 0.59872 0.82712 0.04478 0.0
H327 H 0.56096 0.83157 0.0364 0.0
H328 H 0.56792 0.90625 0.05712 0.0
H329 H 0.58788 0.90717 0.09111 0.0
H330 H 0.54853 0.84011 0.09945 0.0
H331 H 0.52789 0.83987 0.06584 0.0
H332 H 0.52429 0.91079 0.06052 0.0
H333 H 0.50224 0.91656 0.09172 0.0
H334 H 0.45288 0.85408 0.07572 0.0
H335 H 0.47527 0.84821 0.04482 0.0
O336 O 0.48664 0.88483 0.89902 0.0
O337 O 0.48282 0.84875 0.89674 0.0
O338 O 0.65759 0.87087 0.03585 0.0
O339 O 0.64229 0.83774 0.0478 0.0
C340 C 0.50777 0.87345 0.01137 0.0
C341 C 0.52147 0.86912 0.99444 0.0
C342 C 0.54299 0.86573 0.99884 0.0
C343 C 0.55095 0.86688 0.02009 0.0
C344 C 0.53741 0.87139 0.03698 0.0
C345 C 0.51578 0.87465 0.03268 0.0
C346 C 0.48558 0.87776 0.00631 0.0
C347 C 0.48362 0.89937 0.00814 0.0
C348 C 0.46492 0.90444 0.99882 0.0
C349 C 0.44786 0.88794 0.98754 0.0
C350 C 0.44905 0.86601 0.98718 0.0
C351 C 0.46776 0.86097 0.99651 0.0
C352 C 0.51339 0.8684 0.97199 0.0
C353 C 0.51188 0.88775 0.96296 0.0
C354 C 0.50376 0.88701 0.94203 0.0
C355 C 0.49715 0.86692 0.92971 0.0
C356 C 0.49891 0.84759 0.93879 0.0
C357 C 0.50695 0.84834 0.95976 0.0
C358 C 0.55754 0.86152 0.98116 0.0
C359 C 0.56743 0.87831 0.96774 0.0
C360 C 0.5815 0.87454 0.95136 0.0
C361 C 0.58603 0.85393 0.94822 0.0
C362 C 0.57608 0.83714 0.96173 0.0
C363 C 0.56188 0.8409 0.97803 0.0
C364 C 0.5739 0.86402 0.0247 0.0
C365 C 0.59359 0.88078 0.0207 0.0
C366 C 0.61519 0.87829 0.02537 0.0
C367 C 0.61744 0.85898 0.03416 0.0
C368 C 0.59761 0.8422 0.03806 0.0
C369 C 0.57603 0.8447 0.03332 0.0
C370 C 0.54649 0.87302 0.05911 0.0
C371 C 0.56323 0.892 0.06661 0.0
C372 C 0.5748 0.89236 0.0859 0.0
C373 C 0.57013 0.87356 0.09788 0.0
C374 C 0.55246 0.85494 0.09078 0.0
C375 C 0.54066 0.85472 0.07156 0.0
C376 C 0.5015 0.87898 0.05054 0.0
C377 C 0.50874 0.89834 0.06379 0.0
C378 C 0.49616 0.90161 0.08156 0.0
C379 C 0.47592 0.88572 0.08616 0.0
C380 C 0.46832 0.86667 0.07245 0.0
C381 C 0.48108 0.86328 0.05484 0.0
C382 C 0.48844 0.86619 0.9075 0.0
C383 C 0.64034 0.8563 0.03928 0.0
H384 H 0.66166 0.99469 0.36078 0.0
H385 H 0.70256 0.16578 0.54691 0.0
H386 H 0.67548 0.97414 0.46953 0.0
H387 H 0.68479 0.94457 0.44759 0.0
H388 H 0.75645 0.97341 0.463 0.0
H389 H 0.74697 0.00273 0.48485 0.0
H390 H 0.65906 0.01495 0.45249 0.0
H391 H 0.65326 0.00568 0.41417 0.0
H392 H 0.72588 0.0146 0.40788 0.0
H393 H 0.73147 0.02415 0.44615 0.0
H394 H 0.65657 0.05819 0.48288 0.0
H395 H 0.64757 0.08469 0.4596 0.0
H396 H 0.71384 0.09478 0.43138 0.0
H397 H 0.72282 0.06858 0.45485 0.0
H398 H 0.66493 0.0563 0.5321 0.0
H399 H 0.66046 0.09099 0.54829 0.0
H400 H 0.72224 0.12645 0.51836 0.0
H401 H 0.72662 0.09161 0.50247 0.0
H402 H 0.67737 0.01889 0.55182 0.0
H403 H 0.68204 0.03099 0.58981 0.0
H404 H 0.74652 0.07733 0.57711 0.0
H405 H 0.74168 0.06517 0.53928 0.0
H406 H 0.68381 0.97531 0.5214 0.0
H407 H 0.69596 0.94974 0.54352 0.0
H408 H 0.7627 0.99624 0.55205 0.0
H409 H 0.75017 0.02182 0.53025 0.0
O410 O 0.66436 0.99854 0.37587 0.0
O411 O 0.70179 0.00312 0.37353 0.0
O412 O 0.67229 0.13282 0.55578 0.0
O413 O 0.70391 0.15182 0.5407 0.0
C414 C 0.70555 0.01063 0.48855 0.0
C415 C 0.69899 0.02541 0.47543 0.0
C416 C 0.69585 0.04534 0.48445 0.0
C417 C 0.69895 0.05035 0.50662 0.0
C418 C 0.70537 0.03552 0.51974 0.0
C419 C 0.70875 0.01571 0.51071 0.0
C420 C 0.71057 0.9906 0.47868 0.0
C421 C 0.69312 0.97372 0.46852 0.0
C422 C 0.69848 0.95695 0.45593 0.0
C423 C 0.72137 0.95675 0.45342 0.0
C424 C 0.73864 0.97292 0.46478 0.0
C425 C 0.73328 0.98972 0.47727 0.0
C426 C 0.69565 0.02011 0.45209 0.0
C427 C 0.67369 0.01498 0.44278 0.0
C428 C 0.67043 0.00964 0.4209 0.0
C429 C 0.68911 0.00934 0.40796 0.0
C430 C 0.71113 0.01463 0.41738 0.0
C431 C 0.71436 0.02004 0.43924 0.0
C432 C 0.6903 0.06141 0.47047 0.0
C433 C 0.66915 0.06622 0.47172 0.0
C434 C 0.66406 0.08134 0.45847 0.0
C435 C 0.67997 0.09168 0.44362 0.0
C436 C 0.70114 0.08682 0.44245 0.0
C437 C 0.7063 0.07192 0.45585 0.0
C438 C 0.69608 0.07147 0.51613 0.0
C439 C 0.67749 0.07158 0.52911 0.0
C440 C 0.67497 0.09142 0.5383 0.0
C441 C 0.691 0.11151 0.53461 0.0
C442 C 0.70958 0.1113 0.52152 0.0
C443 C 0.7121 0.09144 0.51238 0.0
C444 C 0.70918 0.04121 0.5429 0.0
C445 C 0.69261 0.03144 0.55736 0.0
C446 C 0.69525 0.03844 0.57895 0.0
C447 C 0.71463 0.05511 0.58638 0.0
C448 C 0.73154 0.06429 0.57189 0.0
C449 C 0.72878 0.05745 0.55031 0.0
C450 C 0.71607 0.00042 0.52437 0.0
C451 C 0.70102 0.97994 0.52812 0.0
C452 C 0.70806 0.96532 0.54062 0.0
C453 C 0.73034 0.97093 0.54952 0.0
C454 C 0.74535 0.99153 0.54569 0.0
C455 C 0.73826 0.00614 0.53322 0.0
C456 C 0.68557 0.0035 0.38476 0.0
C457 C 0.68842 0.13263 0.54437 0.0
H458 H 0.54487 0.41118 0.87435 0.0
H459 H 0.64125 0.32075 0.05952 0.0
H460 H 0.53205 0.43854 0.98206 0.0
H461 H 0.50111 0.44773 0.96252 0.0
H462 H 0.45191 0.39436 0.9902 0.0
H463 H 0.4828 0.38453 0.00874 0.0
H464 H 0.57216 0.4188 0.96444 0.0
H465 H 0.56699 0.4199 0.92594 0.0
H466 H 0.5012 0.37192 0.92854 0.0
H467 H 0.50672 0.37075 0.96697 0.0
H468 H 0.60567 0.39938 0.9946 0.0
H469 H 0.62904 0.37929 0.97483 0.0
H470 H 0.568 0.32873 0.95431 0.0
H471 H 0.5448 0.34867 0.97442 0.0
H472 H 0.60127 0.40741 0.04497 0.0
H473 H 0.63068 0.39216 0.05953 0.0
H474 H 0.59265 0.32706 0.03486 0.0
H475 H 0.56324 0.34249 0.02064 0.0
H476 H 0.56251 0.42734 0.06688 0.0
H477 H 0.56481 0.42481 0.10544 0.0
H478 H 0.54159 0.35373 0.09674 0.0
H479 H 0.53813 0.35659 0.05839 0.0
H480 H 0.53175 0.44439 0.04084 0.0
H481 H 0.5092 0.45611 0.06919 0.0
H482 H 0.47325 0.38801 0.07685 0.0
H483 H 0.49594 0.3765 0.0488 0.0
O484 O 0.54667 0.41031 0.88954 0.0
O485 O 0.51293 0.38569 0.89176 0.0
O486 O 0.64859 0.36096 0.06663 0.0
O487 O 0.62982 0.3272 0.05406 0.0
C488 C 0.52842 0.40294 0.00583 0.0
C489 C 0.54277 0.39463 0.99195 0.0
C490 C 0.5597 0.38579 0.00039 0.0
C491 C 0.56252 0.38548 0.0227 0.0
C492 C 0.54819 0.39369 0.0365 0.0
C493 C 0.53107 0.40228 0.02807 0.0
C494 C 0.50968 0.4109 0.9969 0.0
C495 C 0.51455 0.42906 0.98415 0.0
C496 C 0.49696 0.43429 0.97304 0.0
C497 C 0.47423 0.42179 0.97502 0.0
C498 C 0.46929 0.40443 0.9887 0.0
C499 C 0.4869 0.39887 0.99936 0.0
C500 C 0.53978 0.39477 0.96849 0.0
C501 C 0.55671 0.40845 0.95663 0.0
C502 C 0.55368 0.40909 0.93466 0.0
C503 C 0.53365 0.39605 0.92417 0.0
C504 C 0.51681 0.38221 0.93612 0.0
C505 C 0.51989 0.38153 0.95807 0.0
C506 C 0.57357 0.37544 0.98598 0.0
C507 C 0.59736 0.38411 0.98561 0.0
C508 C 0.61065 0.37259 0.97442 0.0
C509 C 0.60031 0.3524 0.96318 0.0
C510 C 0.57639 0.34433 0.96271 0.0
C511 C 0.56313 0.35571 0.97413 0.0
C512 C 0.5802 0.37608 0.03168 0.0
C513 C 0.5993 0.38986 0.04281 0.0
C514 C 0.61608 0.3811 0.05106 0.0
C515 C 0.61404 0.35838 0.04831 0.0
C516 C 0.59478 0.34462 0.03723 0.0
C517 C 0.57798 0.35339 0.02905 0.0
C518 C 0.55022 0.39215 0.05987 0.0
C519 C 0.55776 0.41126 0.07338 0.0
C520 C 0.55921 0.40975 0.09538 0.0
C521 C 0.55339 0.38905 0.10424 0.0
C522 C 0.54583 0.36995 0.09056 0.0
C523 C 0.54413 0.37151 0.0686 0.0
C524 C 0.51537 0.40964 0.04281 0.0
C525 C 0.51869 0.4321 0.0484 0.0
C526 C 0.50596 0.43872 0.06463 0.0
C527 C 0.48953 0.42294 0.07517 0.0
C528 C 0.48562 0.40052 0.06883 0.0
C529 C 0.49855 0.39392 0.05287 0.0
C530 C 0.53038 0.39697 0.90086 0.0
C531 C 0.63189 0.34902 0.05692 0.0
C532 C 0.24893 0.47207 0.2577 0.0
C533 C 0.26354 0.47877 0.27568 0.0
C534 C 0.22868 0.47828 0.25626 0.0
C535 C 0.20185 0.52061 0.27711 0.0
H536 H 0.14677 0.48065 0.25155 0.0
C537 C 0.1152 0.54173 0.2743 0.0
C538 C 0.10219 0.53577 0.25525 0.0
C539 C 0.13489 0.53485 0.2773 0.0
C540 C 0.16209 0.49206 0.25853 0.0
H541 H 0.26801 0.49672 0.30658 0.0
H542 H 0.23244 0.50735 0.30418 0.0
H543 H 0.18057 0.4677 0.25662 0.0
H544 H 0.09968 0.51804 0.22438 0.0
H545 H 0.13426 0.5063 0.22948 0.0
H546 H 0.18332 0.54498 0.27897 0.0
C547 C 0.23687 0.49757 0.29103 0.0
C548 C 0.18144 0.48464 0.26146 0.0
C549 C 0.25716 0.49136 0.29247 0.0
C550 C 0.10947 0.52307 0.23915 0.0
C551 C 0.1291 0.51612 0.24217 0.0
C552 C 0.18246 0.52802 0.27422 0.0
C553 C 0.22253 0.49131 0.2728 0.0
C554 C 0.2016 0.49887 0.27065 0.0
C555 C 0.14193 0.52179 0.26134 0.0
C556 C 0.16243 0.51387 0.26476 0.0
H557 H 0.25334 0.46238 0.24447 0.0
H558 H 0.21818 0.47339 0.24189 0.0
H559 H 0.21721 0.5321 0.28393 0.0
H560 H 0.11011 0.55166 0.28693 0.0
H561 H 0.14434 0.53937 0.29229 0.0
C562 C 0.18257 0.83461 0.85166 0.0
C563 C 0.20204 0.84134 0.83922 0.0
C564 C 0.16604 0.81476 0.84645 0.0
C565 C 0.15639 0.76125 0.81543 0.0
H566 H 0.09259 0.76019 0.82002 0.0
C567 C 0.08314 0.68643 0.78398 0.0
C568 C 0.06447 0.67974 0.79741 0.0
C569 C 0.09982 0.70636 0.78849 0.0
C570 C 0.11033 0.76016 0.81882 0.0
H571 H 0.21956 0.83228 0.8117 0.0
H572 H 0.1906 0.79777 0.80247 0.0
H573 H 0.12216 0.79421 0.82939 0.0
H574 H 0.04835 0.68901 0.82573 0.0
H575 H 0.07754 0.72367 0.83371 0.0
H576 H 0.14449 0.72716 0.80481 0.0
C577 C 0.18823 0.80772 0.81641 0.0
C578 C 0.12729 0.77965 0.82424 0.0
C579 C 0.20479 0.82757 0.82165 0.0
C580 C 0.06263 0.69361 0.8152 0.0
C581 C 0.07925 0.71357 0.81965 0.0
C582 C 0.13941 0.74175 0.80996 0.0
C583 C 0.16855 0.80117 0.82864 0.0
C584 C 0.15054 0.78042 0.8227 0.0
C585 C 0.09814 0.72009 0.80646 0.0
C586 C 0.11618 0.74097 0.81168 0.0
H587 H 0.17997 0.84475 0.86536 0.0
H588 H 0.1513 0.81003 0.85644 0.0
H589 H 0.17411 0.76117 0.81432 0.0
H590 H 0.08514 0.67601 0.77026 0.0
H591 H 0.11404 0.71104 0.7779 0.0
C592 C 0.92268 0.81499 0.26275 0.0
C593 C 0.90083 0.81395 0.25458 0.0
C594 C 0.93104 0.79645 0.26113 0.0
C595 C 0.9124 0.73595 0.25412 0.0
H596 H 0.97502 0.74199 0.23771 0.0
C597 C 0.95526 0.66572 0.26025 0.0
C598 C 0.9684 0.66167 0.24301 0.0
C599 C 0.94725 0.68444 0.26147 0.0
C600 C 0.95746 0.74003 0.24218 0.0
H601 H 0.87057 0.79261 0.23839 0.0
H602 H 0.88517 0.76027 0.23559 0.0
H603 H 0.96037 0.77438 0.24002 0.0
H604 H 0.98368 0.67418 0.21363 0.0
H605 H 0.96954 0.70694 0.21571 0.0
H606 H 0.9094 0.7016 0.25609 0.0
C607 C 0.89577 0.77539 0.24336 0.0
C608 C 0.94915 0.7586 0.24371 0.0
C609 C 0.88746 0.79394 0.24489 0.0
C610 C 0.97349 0.67683 0.22705 0.0
C611 C 0.96556 0.69565 0.22833 0.0
C612 C 0.92074 0.71742 0.25269 0.0
C613 C 0.91768 0.77646 0.25141 0.0
C614 C 0.92653 0.75676 0.24971 0.0
C615 C 0.95224 0.69957 0.2455 0.0
C616 C 0.94337 0.71926 0.24674 0.0
H617 H 0.93341 0.83015 0.27032 0.0
H618 H 0.94787 0.79771 0.26771 0.0
H619 H 0.89496 0.73403 0.25894 0.0
H620 H 0.95081 0.65421 0.27266 0.0
H621 H 0.93722 0.68712 0.275 0.0
C622 C 0.82746 0.28728 0.78862 0.0
C623 C 0.83195 0.28082 0.80886 0.0
C624 C 0.83981 0.30766 0.78169 0.0
C625 C 0.89185 0.35405 0.79298 0.0
H626 H 0.8557 0.38883 0.76841 0.0
C627 C 0.93259 0.44251 0.76836 0.0
C628 C 0.92096 0.45822 0.77448 0.0
C629 C 0.92217 0.42004 0.76982 0.0
C630 C 0.86603 0.37934 0.77528 0.0
H631 H 0.85368 0.29031 0.83726 0.0
H632 H 0.87502 0.32581 0.82528 0.0
H633 H 0.83759 0.35071 0.77601 0.0
H634 H 0.88901 0.46259 0.7863 0.0
H635 H 0.87098 0.42342 0.78923 0.0
H636 H 0.92008 0.38294 0.79305 0.0
C637 C 0.86209 0.31509 0.81466 0.0
C638 C 0.85572 0.3574 0.77939 0.0
C639 C 0.84975 0.29475 0.82159 0.0
C640 C 0.89851 0.45092 0.78166 0.0
C641 C 0.88808 0.42845 0.7831 0.0
C642 C 0.90216 0.37598 0.78886 0.0
C643 C 0.85695 0.32199 0.79483 0.0
C644 C 0.86844 0.3446 0.78859 0.0
C645 C 0.89988 0.41275 0.77741 0.0
C646 C 0.88929 0.38898 0.78026 0.0
H647 H 0.81394 0.2769 0.77836 0.0
H648 H 0.83568 0.31235 0.76619 0.0
H649 H 0.90218 0.34456 0.79986 0.0
H650 H 0.95 0.44759 0.76298 0.0
H651 H 0.93164 0.40837 0.76511 0.0
C652 C 0.32969 0.36576 0.33552 0.0
C653 C 0.3333 0.38808 0.3422 0.0
C654 C 0.33321 0.35072 0.34972 0.0
C655 C 0.33348 0.34022 0.4059 0.0
H656 H 0.37269 0.30301 0.39009 0.0
C657 C 0.35825 0.28488 0.46611 0.0
C658 C 0.36048 0.26426 0.45851 0.0
C659 C 0.35557 0.30023 0.45191 0.0
C660 C 0.36139 0.31299 0.39467 0.0
H661 H 0.34304 0.41209 0.36904 0.0
H662 H 0.34863 0.38561 0.39401 0.0
H663 H 0.36599 0.32893 0.36521 0.0
H664 H 0.36153 0.24337 0.43026 0.0
H665 H 0.35598 0.26978 0.40537 0.0
H666 H 0.32813 0.32395 0.435 0.0
C667 C 0.34328 0.37987 0.37773 0.0
C668 C 0.35767 0.32791 0.38043 0.0
C669 C 0.34016 0.395 0.36344 0.0
C670 C 0.36007 0.25927 0.43647 0.0
C671 C 0.35699 0.27448 0.42224 0.0
C672 C 0.33687 0.32506 0.42001 0.0
C673 C 0.34001 0.35764 0.37095 0.0
C674 C 0.34377 0.34171 0.38596 0.0
C675 C 0.35464 0.29517 0.42976 0.0
C676 C 0.35096 0.31128 0.41465 0.0
H677 H 0.32447 0.35996 0.31923 0.0
H678 H 0.33043 0.33363 0.34416 0.0
H679 H 0.32248 0.35054 0.41043 0.0
H680 H 0.35877 0.28917 0.48306 0.0
H681 H 0.35437 0.31612 0.45835 0.0
C682 C 0.33095 0.95188 0.86133 0.0
C683 C 0.3075 0.94112 0.85947 0.0
C684 C 0.34522 0.94442 0.87475 0.0
C685 C 0.34442 0.91244 0.92206 0.0
H686 H 0.40591 0.91401 0.90505 0.0
C687 C 0.40757 0.88068 0.97315 0.0
C688 C 0.43031 0.89385 0.97436 0.0
C689 C 0.39167 0.88543 0.9593 0.0
C690 C 0.38885 0.91364 0.91011 0.0
H691 H 0.28053 0.91444 0.87085 0.0
H692 H 0.30557 0.90094 0.89384 0.0
H693 H 0.37988 0.92333 0.87996 0.0
H694 H 0.45415 0.92233 0.96199 0.0
H695 H 0.42643 0.9308 0.93821 0.0
H696 H 0.35354 0.90281 0.95229 0.0
C697 C 0.31291 0.91518 0.88485 0.0
C698 C 0.37392 0.91898 0.89572 0.0
C699 C 0.29861 0.92267 0.87136 0.0
C700 C 0.4367 0.91204 0.96169 0.0
C701 C 0.42088 0.91671 0.94782 0.0
C702 C 0.35937 0.90703 0.93647 0.0
C703 C 0.33638 0.92603 0.88675 0.0
C704 C 0.35162 0.91876 0.90161 0.0
C705 C 0.39827 0.90332 0.94626 0.0
C706 C 0.38187 0.9079 0.93074 0.0
H707 H 0.3383 0.96626 0.8525 0.0
H708 H 0.36312 0.95342 0.87609 0.0
H709 H 0.32745 0.91233 0.92719 0.0
H710 H 0.40212 0.86659 0.98277 0.0
H711 H 0.37439 0.87475 0.95839 0.0
C712 C 0.82223 0.87181 0.32304 0.0
C713 C 0.81616 0.8733 0.3017 0.0
C714 C 0.8091 0.87723 0.33956 0.0
C715 C 0.76904 0.91082 0.35046 0.0
H716 H 0.75922 0.88075 0.40303 0.0
C717 C 0.71711 0.93798 0.4169 0.0
C718 C 0.72756 0.94141 0.43728 0.0
C719 C 0.72511 0.9263 0.40062 0.0
C720 C 0.76188 0.88931 0.38844 0.0
H721 H 0.79221 0.88256 0.28104 0.0
H722 H 0.76859 0.8908 0.30961 0.0
H723 H 0.77856 0.86662 0.37377 0.0
H724 H 0.75366 0.93407 0.4569 0.0
H725 H 0.76785 0.91385 0.42833 0.0
H726 H 0.75269 0.93363 0.3651 0.0
C727 C 0.78347 0.88547 0.31367 0.0
C728 C 0.773 0.88127 0.37171 0.0
C729 C 0.79669 0.88021 0.29721 0.0
C730 C 0.74541 0.93188 0.4413 0.0
C731 C 0.7534 0.92014 0.42499 0.0
C732 C 0.75787 0.91876 0.36708 0.0
C733 C 0.78969 0.88438 0.33507 0.0
C734 C 0.77686 0.89204 0.35257 0.0
C735 C 0.74375 0.91778 0.40432 0.0
C736 C 0.7543 0.90821 0.38632 0.0
H737 H 0.83733 0.86676 0.32696 0.0
H738 H 0.81461 0.87653 0.35585 0.0
H739 H 0.77215 0.91984 0.33617 0.0
H740 H 0.70348 0.94529 0.4132 0.0
H741 H 0.71713 0.9245 0.38492 0.0
C742 C 0.70903 0.24601 0.86219 0.0
C743 C 0.72774 0.24237 0.87317 0.0
C744 C 0.69349 0.25518 0.87296 0.0
C745 C 0.69197 0.29237 0.91898 0.0
H746 H 0.62642 0.27465 0.90875 0.0
C747 C 0.63299 0.33563 0.96435 0.0
C748 C 0.61446 0.33913 0.95304 0.0
C749 C 0.64593 0.32249 0.95523 0.0
C750 C 0.64473 0.27996 0.91158 0.0
H751 H 0.74404 0.2443 0.9043 0.0
H752 H 0.71691 0.26036 0.92304 0.0
H753 H 0.64991 0.25286 0.89204 0.0
H754 H 0.59501 0.33185 0.92327 0.0
H755 H 0.61799 0.30933 0.90702 0.0
H756 H 0.68709 0.31978 0.93793 0.0
C757 C 0.71444 0.25631 0.90607 0.0
C758 C 0.65813 0.26741 0.90211 0.0
C759 C 0.72988 0.24699 0.89534 0.0
C760 C 0.60914 0.3293 0.93237 0.0
C761 C 0.62223 0.3163 0.92315 0.0
C762 C 0.67864 0.30501 0.92829 0.0
C763 C 0.69644 0.26102 0.89489 0.0
C764 C 0.68189 0.27351 0.9057 0.0
C765 C 0.64077 0.3127 0.93449 0.0
C766 C 0.65485 0.29901 0.92469 0.0
H767 H 0.70685 0.24255 0.84512 0.0
H768 H 0.67982 0.2587 0.86392 0.0
H769 H 0.71031 0.29772 0.9217 0.0
H770 H 0.63719 0.34268 0.98048 0.0
H771 H 0.65979 0.31975 0.9646 0.0
C772 C 0.29834 0.00394 0.74571 0.0
C773 C 0.30291 0.01562 0.76568 0.0
C774 C 0.30653 0.01421 0.72714 0.0
C775 C 0.34934 0.06185 0.70709 0.0
H776 H 0.30647 0.05418 0.65951 0.0
C777 C 0.36549 0.11838 0.63659 0.0
C778 C 0.35749 0.10915 0.61619 0.0
C779 C 0.36051 0.10579 0.65438 0.0
C780 C 0.31883 0.05623 0.67247 0.0
H781 H 0.32016 0.0471 0.78185 0.0
H782 H 0.33444 0.06501 0.74944 0.0
H783 H 0.29485 0.03426 0.69134 0.0
H784 H 0.33886 0.07923 0.59829 0.0
H785 H 0.33047 0.0571 0.62927 0.0
H786 H 0.37332 0.0839 0.68826 0.0
C787 C 0.32462 0.04787 0.74816 0.0
C788 C 0.31212 0.04482 0.69075 0.0
C789 C 0.31632 0.03764 0.76672 0.0
C790 C 0.34499 0.08687 0.61387 0.0
C791 C 0.34013 0.07423 0.63163 0.0
C792 C 0.35611 0.07319 0.68875 0.0
C793 C 0.31959 0.03635 0.72814 0.0
C794 C 0.32722 0.04765 0.70834 0.0
C795 C 0.34751 0.08362 0.65216 0.0
C796 C 0.34086 0.07067 0.67127 0.0
H797 H 0.28812 0.98693 0.74436 0.0
H798 H 0.30259 0.00483 0.71197 0.0
H799 H 0.36146 0.06415 0.72029 0.0
H800 H 0.37489 0.1356 0.63893 0.0
H801 H 0.36619 0.11368 0.66995 0.0
C802 C 0.71002 0.84435 0.22164 0.0
C803 C 0.71919 0.86063 0.23793 0.0
C804 C 0.69076 0.84507 0.20977 0.0
C805 C 0.66241 0.88507 0.19197 0.0
H806 H 0.61479 0.83335 0.17143 0.0
C807 C 0.6085 0.88287 0.11636 0.0
C808 C 0.58484 0.87288 0.11669 0.0
C809 C 0.62267 0.88169 0.13351 0.0
C810 C 0.62781 0.84796 0.17725 0.0
H811 H 0.71466 0.88983 0.25519 0.0
H812 H 0.6811 0.89108 0.2344 0.0
H813 H 0.643 0.82985 0.19799 0.0
H814 H 0.55758 0.85389 0.13557 0.0
H815 H 0.5826 0.85143 0.16543 0.0
H816 H 0.64762 0.9031 0.17091 0.0
C817 C 0.68895 0.87789 0.23071 0.0
C818 C 0.64405 0.84594 0.19229 0.0
C819 C 0.70813 0.87712 0.24266 0.0
C820 C 0.57574 0.86161 0.13468 0.0
C821 C 0.59002 0.86023 0.1518 0.0
C822 C 0.64633 0.88705 0.17683 0.0
C823 C 0.68033 0.86213 0.21387 0.0
C824 C 0.66172 0.86443 0.19956 0.0
C825 C 0.61363 0.87028 0.15136 0.0
C826 C 0.62911 0.86847 0.16904 0.0
H827 H 0.71807 0.83138 0.21764 0.0
H828 H 0.68464 0.83279 0.19678 0.0
H829 H 0.67593 0.89959 0.1971 0.0
H830 H 0.61627 0.89116 0.10258 0.0
H831 H 0.64086 0.88922 0.13253 0.0
C832 C 0.73171 0.16319 0.75669 0.0
C833 C 0.75336 0.16685 0.76646 0.0
C834 C 0.72536 0.14852 0.7388 0.0
C835 C 0.74152 0.10343 0.7074 0.0
H836 H 0.70897 0.12141 0.66161 0.0
C837 C 0.7376 0.06798 0.62023 0.0
C838 C 0.71674 0.06387 0.60889 0.0
C839 C 0.74014 0.07804 0.64081 0.0
C840 C 0.71777 0.11599 0.67436 0.0
H841 H 0.78522 0.15774 0.7653 0.0
H842 H 0.77444 0.13265 0.73381 0.0
H843 H 0.71704 0.14385 0.69498 0.0
H844 H 0.68206 0.06666 0.61032 0.0
H845 H 0.6865 0.08427 0.64632 0.0
H846 H 0.74288 0.07594 0.68632 0.0
C847 C 0.76212 0.14072 0.74019 0.0
C848 C 0.72237 0.12883 0.69354 0.0
C849 C 0.76838 0.15524 0.75818 0.0
C850 C 0.69828 0.06947 0.61875 0.0
C851 C 0.70088 0.07972 0.63926 0.0
C852 C 0.73708 0.09069 0.68812 0.0
C853 C 0.7406 0.13731 0.73014 0.0
C854 C 0.7345 0.12284 0.71024 0.0
C855 C 0.72193 0.08438 0.65038 0.0
C856 C 0.72534 0.09695 0.67135 0.0
H857 H 0.71967 0.17175 0.7628 0.0
H858 H 0.70851 0.14602 0.73171 0.0
H859 H 0.75054 0.09809 0.72004 0.0
H860 H 0.75206 0.0637 0.61305 0.0
H861 H 0.75661 0.08157 0.64894 0.0
C862 C 0.38992 0.47124 0.232 0.0
C863 C 0.38249 0.45366 0.24529 0.0
C864 C 0.40326 0.46926 0.21441 0.0
C865 C 0.4161 0.42641 0.17812 0.0
H866 H 0.46241 0.47565 0.1576 0.0
C867 C 0.45382 0.42054 0.09543 0.0
C868 C 0.47746 0.42951 0.09366 0.0
C869 C 0.44279 0.42494 0.11386 0.0
C870 C 0.44965 0.46168 0.1632 0.0
H871 H 0.38435 0.42073 0.25125 0.0
H872 H 0.40814 0.41751 0.22095 0.0
H873 H 0.44391 0.48025 0.19114 0.0
H874 H 0.50808 0.45037 0.10955 0.0
H875 H 0.48893 0.45779 0.14195 0.0
H876 H 0.42224 0.40764 0.15061 0.0
C877 C 0.40311 0.43259 0.22373 0.0
C878 C 0.43887 0.46438 0.18232 0.0
C879 C 0.38961 0.43449 0.24121 0.0
C880 C 0.48978 0.44348 0.11042 0.0
C881 C 0.47878 0.44772 0.12896 0.0
C882 C 0.42695 0.42368 0.15911 0.0
C883 C 0.40963 0.44974 0.20981 0.0
C884 C 0.42189 0.44679 0.18997 0.0
C885 C 0.45521 0.43819 0.13104 0.0
C886 C 0.44376 0.4413 0.15133 0.0
H887 H 0.38469 0.48622 0.23466 0.0
H888 H 0.40777 0.48272 0.20394 0.0
H889 H 0.40286 0.41259 0.18331 0.0
H890 H 0.44391 0.40991 0.08262 0.0
H891 H 0.42453 0.41776 0.1147 0.0
C892 C 0.81338 0.75709 0.76284 0.0
C893 C 0.8019 0.75535 0.74312 0.0
C894 C 0.8302 0.74614 0.7656 0.0
C895 C 0.85219 0.70127 0.74013 0.0
H896 H 0.90272 0.72502 0.78037 0.0
C897 C 0.93065 0.66688 0.74675 0.0
C898 C 0.93236 0.65803 0.76655 0.0
C899 C 0.91615 0.68028 0.74392 0.0
C900 C 0.88867 0.7183 0.76908 0.0
H901 H 0.79948 0.7415 0.71061 0.0
H902 H 0.8296 0.72342 0.71496 0.0
H903 H 0.87484 0.7457 0.77472 0.0
H904 H 0.92046 0.65716 0.79909 0.0
H905 H 0.89608 0.68149 0.79426 0.0
H906 H 0.86674 0.67427 0.73404 0.0
C907 C 0.82507 0.73238 0.72866 0.0
C908 C 0.87255 0.72999 0.76594 0.0
C909 C 0.80788 0.74289 0.72607 0.0
C910 C 0.91998 0.66388 0.7837 0.0
C911 C 0.90587 0.67769 0.78096 0.0
C912 C 0.86859 0.68989 0.74293 0.0
C913 C 0.8363 0.73361 0.74854 0.0
C914 C 0.85395 0.72155 0.75153 0.0
C915 C 0.9035 0.68559 0.76095 0.0
C916 C 0.88683 0.69824 0.75752 0.0
H917 H 0.80898 0.76649 0.7763 0.0
H918 H 0.83804 0.7472 0.78127 0.0
H919 H 0.83791 0.69387 0.7293 0.0
H920 H 0.9403 0.66327 0.73329 0.0
H921 H 0.91466 0.68638 0.72838 0.0
C922 C 0.74752 0.3501 0.31235 0.0
C923 C 0.73163 0.34065 0.29582 0.0
C924 C 0.76963 0.36226 0.30776 0.0
C925 C 0.81096 0.37635 0.2637 0.0
H926 H 0.83405 0.43046 0.2989 0.0
C927 C 0.88234 0.45187 0.23902 0.0
C928 C 0.89843 0.4629 0.25491 0.0
C929 C 0.86372 0.43448 0.24403 0.0
C930 C 0.82799 0.41528 0.28909 0.0
H931 H 0.72674 0.33587 0.26149 0.0
H932 H 0.76495 0.35757 0.2535 0.0
H933 H 0.79853 0.4044 0.30794 0.0
H934 H 0.90843 0.46334 0.28816 0.0
H935 H 0.8758 0.43331 0.29691 0.0
H936 H 0.84022 0.3879 0.2444 0.0
C937 C 0.76059 0.35526 0.27002 0.0
C938 C 0.80765 0.40025 0.29431 0.0
C939 C 0.73858 0.3429 0.27462 0.0
C940 C 0.89602 0.45557 0.27567 0.0
C941 C 0.8774 0.43832 0.28068 0.0
C942 C 0.83126 0.39154 0.25836 0.0
C943 C 0.77626 0.36548 0.28654 0.0
C944 C 0.79877 0.38064 0.28163 0.0
C945 C 0.86083 0.42788 0.26503 0.0
C946 C 0.83989 0.41119 0.27096 0.0
H947 H 0.74276 0.34847 0.32886 0.0
H948 H 0.7814 0.36947 0.32088 0.0
H949 H 0.8048 0.36129 0.25374 0.0
H950 H 0.88366 0.4572 0.22291 0.0
H951 H 0.8511 0.42681 0.23168 0.0
C952 C 0.17806 0.4454 0.8394 0.0
C953 C 0.19653 0.44165 0.82801 0.0
C954 C 0.17031 0.46379 0.83598 0.0
C955 C 0.16239 0.50853 0.83315 0.0
H956 H 0.15853 0.5243 0.77489 0.0
C957 C 0.1146 0.57172 0.81298 0.0
C958 C 0.09955 0.56533 0.79529 0.0
C959 C 0.13158 0.5611 0.81632 0.0
C960 C 0.15946 0.52012 0.79126 0.0
H961 H 0.22184 0.45459 0.80457 0.0
H962 H 0.20866 0.48704 0.79895 0.0
H963 H 0.17754 0.49637 0.78277 0.0
H964 H 0.09082 0.5433 0.76694 0.0
H965 H 0.11993 0.52452 0.77291 0.0
H966 H 0.1429 0.53106 0.84145 0.0
C967 C 0.19981 0.4755 0.81019 0.0
C968 C 0.17065 0.50427 0.79584 0.0
C969 C 0.20743 0.45695 0.81346 0.0
C970 C 0.10246 0.54887 0.7805 0.0
C971 C 0.11923 0.5381 0.78395 0.0
C972 C 0.15098 0.52417 0.82855 0.0
C973 C 0.181 0.47904 0.82125 0.0
C974 C 0.17171 0.49784 0.81677 0.0
C975 C 0.13362 0.54366 0.8022 0.0
C976 C 0.14884 0.52974 0.80746 0.0
H977 H 0.16924 0.43387 0.85066 0.0
H978 H 0.15549 0.46569 0.84448 0.0
H979 H 0.16333 0.50436 0.84953 0.0
H980 H 0.11274 0.58446 0.82456 0.0
H981 H 0.14264 0.5661 0.83033 0.0
C982 C 0.24296 0.78728 0.26293 0.0
C983 C 0.24595 0.8018 0.28117 0.0
C984 C 0.2236 0.76936 0.26029 0.0
C985 C 0.17734 0.73331 0.28949 0.0
H986 H 0.14774 0.71986 0.23362 0.0
C987 C 0.09179 0.66623 0.27416 0.0
C988 C 0.08978 0.65255 0.2554 0.0
C989 C 0.11044 0.6848 0.27759 0.0
C990 C 0.15594 0.72325 0.24926 0.0
H991 H 0.23105 0.80872 0.3111 0.0
H992 H 0.19707 0.77735 0.30642 0.0
H993 H 0.181 0.75156 0.23932 0.0
H994 H 0.10591 0.64753 0.22563 0.0
H995 H 0.13848 0.6799 0.23161 0.0
H996 H 0.15233 0.70488 0.29938 0.0
C997 C 0.20985 0.77981 0.29424 0.0
C998 C 0.17499 0.74142 0.25254 0.0
C999 C 0.22925 0.79783 0.29687 0.0
C1000 C 0.10679 0.65791 0.2401 0.0
C1001 C 0.12545 0.67647 0.24354 0.0
C1002 C 0.15827 0.71509 0.2862 0.0
C1003 C 0.20674 0.76549 0.27582 0.0
C1004 C 0.18601 0.74658 0.27264 0.0
C1005 C 0.12751 0.69012 0.26233 0.0
C1006 C 0.14744 0.70977 0.26601 0.0
H1007 H 0.25553 0.78978 0.25056 0.0
H1008 H 0.22193 0.75843 0.2461 0.0
H1009 H 0.18561 0.73669 0.3051 0.0
H1010 H 0.07878 0.66274 0.28611 0.0
H1011 H 0.11132 0.69515 0.29208 0.0
C1012 C 0.76084 0.83255 0.66658 0.0
C1013 C 0.77199 0.8426 0.6857 0.0
C1014 C 0.75965 0.84511 0.64928 0.0
C1015 C 0.78258 0.90054 0.62811 0.0
H1016 H 0.72226 0.88747 0.60159 0.0
C1017 C 0.75123 0.96321 0.58147 0.0
C1018 C 0.73779 0.95541 0.56289 0.0
C1019 C 0.75764 0.94856 0.5944 0.0
C1020 C 0.7393 0.89115 0.60858 0.0
H1021 H 0.7917 0.87358 0.70123 0.0
H1022 H 0.78925 0.89554 0.67125 0.0
H1023 H 0.73011 0.86323 0.6275 0.0
H1024 H 0.72124 0.92613 0.54296 0.0
H1025 H 0.73221 0.90053 0.56571 0.0
H1026 H 0.79143 0.92893 0.60958 0.0
C1027 C 0.78165 0.8779 0.66948 0.0
C1028 C 0.74385 0.87721 0.62341 0.0
C1029 C 0.78297 0.86531 0.68674 0.0
C1030 C 0.73123 0.93264 0.55737 0.0
C1031 C 0.73757 0.91798 0.57035 0.0
C1032 C 0.77797 0.91456 0.61333 0.0
C1033 C 0.76946 0.86805 0.65074 0.0
C1034 C 0.76545 0.88186 0.63356 0.0
C1035 C 0.75069 0.92577 0.5891 0.0
C1036 C 0.7562 0.91015 0.60361 0.0
H1037 H 0.7524 0.81505 0.66517 0.0
H1038 H 0.75055 0.83693 0.63492 0.0
H1039 H 0.79949 0.90443 0.63539 0.0
H1040 H 0.75631 0.98061 0.58635 0.0
H1041 H 0.76746 0.95503 0.60891 0.0
C1042 C 0.62998 0.37665 0.27652 0.0
C1043 C 0.62305 0.3565 0.28621 0.0
C1044 C 0.61688 0.38126 0.26004 0.0
C1045 C 0.57574 0.35195 0.21808 0.0
H1046 H 0.57624 0.41137 0.20524 0.0
C1047 C 0.54033 0.37092 0.13825 0.0
C1048 C 0.55598 0.38726 0.12754 0.0
C1049 C 0.54389 0.36808 0.15975 0.0
C1050 C 0.57589 0.39468 0.20868 0.0
H1051 H 0.5961 0.32599 0.28724 0.0
H1052 H 0.5729 0.33425 0.25869 0.0
H1053 H 0.58991 0.40464 0.24013 0.0
H1054 H 0.58735 0.41379 0.13133 0.0
H1055 H 0.59326 0.40906 0.16886 0.0
H1056 H 0.56211 0.3421 0.18647 0.0
C1057 C 0.58879 0.34627 0.2635 0.0
C1058 C 0.58376 0.39081 0.22862 0.0
C1059 C 0.602 0.3416 0.27996 0.0
C1060 C 0.57476 0.40126 0.13909 0.0
C1061 C 0.57817 0.39855 0.16062 0.0
C1062 C 0.56766 0.35579 0.19824 0.0
C1063 C 0.59641 0.36589 0.25293 0.0
C1064 C 0.58446 0.3695 0.23331 0.0
C1065 C 0.56302 0.38168 0.17106 0.0
C1066 C 0.56829 0.37728 0.19313 0.0
H1067 H 0.64607 0.38854 0.28098 0.0
H1068 H 0.62348 0.3964 0.25215 0.0
H1069 H 0.5763 0.33538 0.22097 0.0
H1070 H 0.52543 0.36016 0.12997 0.0
H1071 H 0.53183 0.35508 0.16748 0.0
C1072 C 0.33913 0.3458 0.75649 0.0
C1073 C 0.32771 0.33677 0.7746 0.0
C1074 C 0.3478 0.33273 0.74195 0.0
C1075 C 0.33751 0.27525 0.72232 0.0
H1076 H 0.39573 0.29577 0.69503 0.0
C1077 C 0.36577 0.22048 0.65804 0.0
C1078 C 0.37549 0.23095 0.63993 0.0
C1079 C 0.363 0.23291 0.67643 0.0
C1080 C 0.37935 0.28985 0.7024 0.0
H1081 H 0.31721 0.30714 0.79202 0.0
H1082 H 0.33227 0.28439 0.76661 0.0
H1083 H 0.38518 0.3188 0.72352 0.0
H1084 H 0.39028 0.26259 0.62691 0.0
H1085 H 0.3851 0.28429 0.65876 0.0
H1086 H 0.33117 0.24673 0.70083 0.0
C1087 C 0.33434 0.30151 0.76359 0.0
C1088 C 0.37335 0.30303 0.71873 0.0
C1089 C 0.3258 0.3146 0.77818 0.0
C1090 C 0.38305 0.25407 0.64077 0.0
C1091 C 0.3801 0.2665 0.65907 0.0
C1092 C 0.34341 0.26216 0.7059 0.0
C1093 C 0.34511 0.31034 0.74516 0.0
C1094 C 0.35227 0.29594 0.72873 0.0
C1095 C 0.36964 0.25609 0.677 0.0
C1096 C 0.36431 0.26937 0.69558 0.0
H1097 H 0.34094 0.36284 0.7533 0.0
H1098 H 0.35588 0.33994 0.7278 0.0
H1099 H 0.32099 0.26949 0.72949 0.0
H1100 H 0.35999 0.20267 0.65787 0.0
H1101 H 0.3553 0.22434 0.69009 0.0
C1102 C 0.38459 0.89063 0.25869 0.0
C1103 C 0.36074 0.88682 0.25727 0.0
C1104 C 0.39763 0.8933 0.24029 0.0
C1105 C 0.39182 0.87669 0.18351 0.0
H1106 H 0.44973 0.92064 0.1784 0.0
C1107 C 0.43926 0.88452 0.10451 0.0
C1108 C 0.4631 0.88863 0.10554 0.0
C1109 C 0.42707 0.88626 0.12296 0.0
C1110 C 0.4337 0.9081 0.17966 0.0
H1111 H 0.33207 0.8839 0.23547 0.0
H1112 H 0.35478 0.88848 0.20357 0.0
H1113 H 0.42821 0.92046 0.2111 0.0
H1114 H 0.49295 0.89789 0.12661 0.0
H1115 H 0.47168 0.90045 0.15893 0.0
H1116 H 0.39737 0.86386 0.1525 0.0
C1117 C 0.36335 0.88917 0.21886 0.0
C1118 C 0.42138 0.90807 0.19836 0.0
C1119 C 0.35037 0.88666 0.23718 0.0
C1120 C 0.47458 0.89485 0.12534 0.0
C1121 C 0.46237 0.89638 0.14384 0.0
C1122 C 0.40418 0.87659 0.16495 0.0
C1123 C 0.38703 0.89205 0.22016 0.0
C1124 C 0.40026 0.89241 0.20042 0.0
C1125 C 0.43843 0.8919 0.14291 0.0
C1126 C 0.42525 0.89233 0.16271 0.0
H1127 H 0.39311 0.8909 0.27392 0.0
H1128 H 0.41586 0.89544 0.24174 0.0
H1129 H 0.37579 0.86415 0.18481 0.0
H1130 H 0.43002 0.87998 0.08941 0.0
H1131 H 0.40871 0.88316 0.12155 0.0
C1132 C 0.6474 0.24322 0.3471 0.0
C1133 C 0.65184 0.24272 0.32521 0.0
C1134 C 0.64857 0.22566 0.35916 0.0
C1135 C 0.67583 0.1808 0.3602 0.0
H1136 H 0.63079 0.15809 0.40244 0.0
C1137 C 0.67957 0.10661 0.40766 0.0
C1138 C 0.67466 0.10762 0.42941 0.0
C1139 C 0.67533 0.12207 0.39436 0.0
C1140 C 0.64365 0.1644 0.39088 0.0
H1141 H 0.66059 0.22325 0.29873 0.0
H1142 H 0.6627 0.19262 0.31986 0.0
H1143 H 0.6259 0.18698 0.38023 0.0
H1144 H 0.66143 0.12552 0.45432 0.0
H1145 H 0.65438 0.15279 0.43121 0.0
H1146 H 0.6939 0.15871 0.37108 0.0
C1147 C 0.65844 0.20666 0.32767 0.0
C1148 C 0.64079 0.1809 0.37812 0.0
C1149 C 0.6571 0.22414 0.31556 0.0
C1150 C 0.66515 0.12422 0.43756 0.0
C1151 C 0.66107 0.1398 0.42429 0.0
C1152 C 0.67877 0.16443 0.37303 0.0
C1153 C 0.65435 0.20732 0.34963 0.0
C1154 C 0.65689 0.1893 0.3627 0.0
C1155 C 0.66625 0.139 0.40255 0.0
C1156 C 0.66275 0.15606 0.38857 0.0
H1157 H 0.6433 0.2573 0.355 0.0
H1158 H 0.64554 0.22672 0.37609 0.0
H1159 H 0.6887 0.1872 0.34867 0.0
H1160 H 0.68659 0.09378 0.40089 0.0
H1161 H 0.67911 0.12069 0.37762 0.0
C1162 C 0.3119 0.39067 0.85236 0.0
C1163 C 0.29351 0.39801 0.86009 0.0
C1164 C 0.3327 0.39602 0.86368 0.0
C1165 C 0.3651 0.43268 0.90896 0.0
H1166 H 0.40006 0.38971 0.90705 0.0
C1167 C 0.43544 0.42738 0.97003 0.0
C1168 C 0.45589 0.42513 0.96125 0.0
C1169 C 0.41693 0.42738 0.95677 0.0
C1170 C 0.39056 0.40194 0.90753 0.0
H1171 H 0.28228 0.41599 0.88632 0.0
H1172 H 0.31799 0.42421 0.90666 0.0
H1173 H 0.36477 0.38224 0.88611 0.0
H1174 H 0.47336 0.42163 0.93193 0.0
H1175 H 0.44069 0.42108 0.90869 0.0
H1176 H 0.39056 0.45167 0.93153 0.0
C1177 C 0.31685 0.41524 0.89132 0.0
C1178 C 0.37037 0.39776 0.89544 0.0
C1179 C 0.2962 0.41027 0.87976 0.0
C1180 C 0.45782 0.42363 0.93902 0.0
C1181 C 0.43917 0.42318 0.92578 0.0
C1182 C 0.38508 0.43661 0.92144 0.0
C1183 C 0.33545 0.40826 0.8834 0.0
C1184 C 0.35731 0.41306 0.89597 0.0
C1185 C 0.41847 0.42465 0.93457 0.0
C1186 C 0.39794 0.42126 0.92077 0.0
H1187 H 0.3102 0.38025 0.83793 0.0
H1188 H 0.34659 0.39043 0.8569 0.0
H1189 H 0.35582 0.44507 0.90952 0.0
H1190 H 0.43361 0.42849 0.98715 0.0
H1191 H 0.40105 0.42838 0.96386 0.0
C1192 C 0.32635 0.94021 0.36661 0.0
C1193 C 0.33911 0.92511 0.36975 0.0
C1194 C 0.32868 0.95856 0.38081 0.0
C1195 C 0.34674 0.97998 0.43566 0.0
H1196 H 0.35128 0.03672 0.41297 0.0
C1197 C 0.36568 0.0612 0.48907 0.0
C1198 C 0.35399 0.07665 0.48387 0.0
C1199 C 0.36422 0.04245 0.47556 0.0
C1200 C 0.34974 0.02096 0.41961 0.0
H1201 H 0.36418 0.91736 0.39039 0.0
H1202 H 0.36817 0.94943 0.41525 0.0
H1203 H 0.34796 0.00454 0.38867 0.0
H1204 H 0.33171 0.08447 0.46024 0.0
H1205 H 0.32854 0.05156 0.43721 0.0
H1206 H 0.34822 0.99635 0.46662 0.0
C1207 C 0.35632 0.94698 0.40182 0.0
C1208 C 0.34789 0.00253 0.40565 0.0
C1209 C 0.35412 0.92869 0.38751 0.0
C1210 C 0.34065 0.07278 0.46496 0.0
C1211 C 0.33912 0.05404 0.45154 0.0
C1212 C 0.34846 0.99843 0.44965 0.0
C1213 C 0.3437 0.96217 0.39856 0.0
C1214 C 0.34623 0.98181 0.4135 0.0
C1215 C 0.35104 0.03872 0.45654 0.0
C1216 C 0.34983 0.01913 0.44179 0.0
H1217 H 0.31461 0.93792 0.35311 0.0
H1218 H 0.31852 0.96982 0.37802 0.0
H1219 H 0.34527 0.96418 0.44218 0.0
H1220 H 0.37598 0.0636 0.50358 0.0
H1221 H 0.37376 0.03109 0.47983 0.0
C1222 C 0.70063 0.83735 0.79273 0.0
C1223 C 0.71907 0.82832 0.79557 0.0
C1224 C 0.68646 0.83935 0.80961 0.0
C1225 C 0.6673 0.81835 0.86152 0.0
H1226 H 0.65114 0.87349 0.86973 0.0
C1227 C 0.61789 0.83903 0.93466 0.0
C1228 C 0.60118 0.85006 0.93094 0.0
C1229 C 0.63251 0.83589 0.91848 0.0
C1230 C 0.65526 0.85789 0.86752 0.0
H1231 H 0.73679 0.81384 0.81827 0.0
H1232 H 0.71189 0.81733 0.84786 0.0
H1233 H 0.67614 0.86866 0.84092 0.0
H1234 H 0.58625 0.86585 0.9072 0.0
H1235 H 0.61159 0.86023 0.87893 0.0
H1236 H 0.6462 0.80752 0.88805 0.0
C1237 C 0.70844 0.8228 0.83249 0.0
C1238 C 0.66962 0.85515 0.85103 0.0
C1239 C 0.72273 0.82089 0.81558 0.0
C1240 C 0.59921 0.85762 0.91065 0.0
C1241 C 0.61376 0.85442 0.89447 0.0
C1242 C 0.65283 0.82107 0.87801 0.0
C1243 C 0.69032 0.83231 0.82972 0.0
C1244 C 0.67565 0.8353 0.84774 0.0
C1245 C 0.63069 0.84367 0.89822 0.0
C1246 C 0.64651 0.84083 0.88109 0.0
H1247 H 0.69725 0.84315 0.7775 0.0
H1248 H 0.67242 0.84641 0.80689 0.0
H1249 H 0.67152 0.80281 0.85925 0.0
H1250 H 0.61998 0.83324 0.95022 0.0
H1251 H 0.64555 0.82778 0.92197 0.0
loop_
_geom_bond_atom_site_label_1
_geom_bond_atom_site_label_2
_geom_bond_distance
_geom_bond_site_symmetry_2
_ccdc_geom_bond_type
O0 Cd1 2.300 . S
O0 C7 1.275 . S
Cd1 O0 2.300 . S
Cd1 O9 2.381 . S
Cd1 O10 2.378 . S
O2 Cd3 2.385 . S
O2 C7 1.255 . S
Cd3 O2 2.385 . S
Cd3 O4 2.317 . S
O4 Cd3 2.317 . S
O4 C5 1.232 . S
C5 O4 1.232 . S
C5 O6 1.218 . S
O6 C5 1.218 . S
C7 O0 1.275 . S
C7 O2 1.255 . S
C8 O9 1.258 . S
C8 O10 1.256 . S
O9 Cd1 2.381 . S
O9 C8 1.258 . S
O10 Cd1 2.378 . S
O10 C8 1.256 . S
O11 Cd12 2.300 . S
O11 C18 1.275 . S
Cd12 O11 2.300 . S
Cd12 O20 2.381 . S
Cd12 O21 2.378 . S
O13 Cd14 2.385 . S
O13 C18 1.255 . S
Cd14 O13 2.385 . S
Cd14 O15 2.317 . S
O15 Cd14 2.317 . S
O15 C16 1.232 . S
C16 O15 1.232 . S
C16 O17 1.218 . S
O17 C16 1.218 . S
C18 O11 1.275 . S
C18 O13 1.255 . S
C19 O20 1.258 . S
C19 O21 1.256 . S
O20 Cd12 2.381 . S
O20 C19 1.258 . S
O21 Cd12 2.378 . S
O21 C19 1.256 . S
O22 Cd23 2.300 . S
O22 C29 1.275 . S
Cd23 O22 2.300 . S
Cd23 O31 2.381 . S
Cd23 O32 2.378 . S
O24 Cd25 2.385 . S
O24 C29 1.255 . S
Cd25 O24 2.385 . S
Cd25 O26 2.317 . S
O26 Cd25 2.317 . S
O26 C27 1.232 . S
C27 O26 1.232 . S
C27 O28 1.218 . S
O28 C27 1.218 . S
C29 O22 1.275 . S
C29 O24 1.255 . S
C30 O31 1.258 . S
C30 O32 1.256 . S
O31 Cd23 2.381 . S
O31 C30 1.258 . S
O32 Cd23 2.378 . S
O32 C30 1.256 . S
O33 Cd34 2.300 . S
O33 C40 1.275 . S
Cd34 O33 2.300 . S
Cd34 O42 2.381 . S
Cd34 O43 2.378 . S
O35 Cd36 2.385 . S
O35 C40 1.255 . S
Cd36 O35 2.385 . S
Cd36 O37 2.317 . S
O37 Cd36 2.317 . S
O37 C38 1.232 . S
C38 O37 1.232 . S
C38 O39 1.218 . S
O39 C38 1.218 . S
C40 O33 1.275 . S
C40 O35 1.255 . S
C41 O42 1.258 . S
C41 O43 1.256 . S
O42 Cd34 2.381 . S
O42 C41 1.258 . S
O43 Cd34 2.378 . S
O43 C41 1.256 . S
O44 Cd45 2.300 . S
O44 C51 1.275 . S
Cd45 O44 2.300 . S
Cd45 O53 2.381 . S
Cd45 O54 2.378 . S
O46 Cd47 2.385 . S
O46 C51 1.255 . S
Cd47 O46 2.385 . S
Cd47 O48 2.317 . S
O48 Cd47 2.317 . S
O48 C49 1.232 . S
C49 O48 1.232 . S
C49 O50 1.218 . S
O50 C49 1.218 . S
C51 O44 1.275 . S
C51 O46 1.255 . S
C52 O53 1.258 . S
C52 O54 1.256 . S
O53 Cd45 2.381 . S
O53 C52 1.258 . S
O54 Cd45 2.378 . S
O54 C52 1.256 . S
O55 Cd56 2.300 . S
O55 C62 1.275 . S
Cd56 O55 2.300 . S
Cd56 O64 2.381 . S
Cd56 O65 2.378 . S
O57 Cd58 2.385 . S
O57 C62 1.255 . S
Cd58 O57 2.385 . S
Cd58 O59 2.317 . S
O59 Cd58 2.317 . S
O59 C60 1.232 . S
C60 O59 1.232 . S
C60 O61 1.218 . S
O61 C60 1.218 . S
C62 O55 1.275 . S
C62 O57 1.255 . S
C63 O64 1.258 . S
C63 O65 1.256 . S
O64 Cd56 2.381 . S
O64 C63 1.258 . S
O65 Cd56 2.378 . S
O65 C63 1.256 . S
O66 Cd67 2.300 . S
O66 C73 1.275 . S
Cd67 O66 2.300 . S
Cd67 O75 2.381 . S
Cd67 O76 2.378 . S
O68 Cd69 2.385 . S
O68 C73 1.255 . S
Cd69 O68 2.385 . S
Cd69 O70 2.317 . S
O70 Cd69 2.317 . S
O70 C71 1.232 . S
C71 O70 1.232 . S
C71 O72 1.218 . S
O72 C71 1.218 . S
C73 O66 1.275 . S
C73 O68 1.255 . S
C74 O75 1.258 . S
C74 O76 1.256 . S
O75 Cd67 2.381 . S
O75 C74 1.258 . S
O76 Cd67 2.378 . S
O76 C74 1.256 . S
O77 Cd78 2.300 . S
O77 C84 1.275 . S
Cd78 O77 2.300 . S
Cd78 O86 2.381 . S
Cd78 O87 2.378 . S
O79 Cd80 2.385 . S
O79 C84 1.255 . S
Cd80 O79 2.385 . S
Cd80 O81 2.317 . S
O81 Cd80 2.317 . S
O81 C82 1.232 . S
C82 O81 1.232 . S
C82 O83 1.218 . S
O83 C82 1.218 . S
C84 O77 1.275 . S
C84 O79 1.255 . S
C85 O86 1.258 . S
C85 O87 1.256 . S
O86 Cd78 2.381 . S
O86 C85 1.258 . S
O87 Cd78 2.378 . S
O87 C85 1.256 . S
H88 O114 0.856 . S
H89 O117 0.854 . S
H90 C125 0.930 . S
H91 C126 0.930 . S
H92 C128 0.930 . S
H93 C129 0.930 . S
H94 C131 0.931 . S
H95 C132 0.930 . S
H96 C134 0.930 . S
H97 C135 0.929 . S
H98 C137 0.930 . S
H99 C138 0.931 . S
H100 C140 0.930 . S
H101 C141 0.929 . S
H102 C143 0.931 . S
H103 C144 0.930 . S
H104 C146 0.930 . S
H105 C147 0.932 . S
H106 C149 0.930 1_455 S
H107 C150 0.929 . S
H108 C152 0.931 . S
H109 C153 0.930 . S
H110 C155 0.929 . S
H111 C156 0.931 . S
H112 C158 0.930 . S
H113 C159 0.929 . S
O114 H88 0.856 . S
O114 C160 1.300 . S
O115 C160 1.209 . S
O116 C161 1.199 . S
O117 H89 0.854 . S
O117 C161 1.297 . S
C118 C119 1.404 1_455 S
C118 C123 1.397 . S
C118 C124 1.492 . S
C119 C118 1.404 1_655 S
C119 C120 1.396 . S
C119 C130 1.492 1_655 S
C120 C119 1.396 . S
C120 C121 1.397 . S
C120 C136 1.509 . S
C121 C120 1.397 . S
C121 C122 1.412 . S
C121 C142 1.485 . S
C122 C121 1.412 . S
C122 C123 1.388 1_655 S
C122 C148 1.490 . S
C123 C118 1.397 . S
C123 C122 1.388 1_455 S
C123 C154 1.519 . S
C124 C118 1.492 . S
C124 C125 1.363 . S
C124 C129 1.390 . S
C125 H90 0.930 . S
C125 C124 1.363 . S
C125 C126 1.372 . S
C126 H91 0.930 . S
C126 C125 1.372 . S
C126 C127 1.383 . S
C127 C126 1.383 . S
C127 C128 1.395 . S
C128 H92 0.930 . S
C128 C127 1.395 . S
C128 C129 1.362 . S
C129 H93 0.930 . S
C129 C124 1.390 . S
C129 C128 1.362 . S
C130 C119 1.492 1_455 S
C130 C131 1.377 1_455 S
C130 C135 1.397 . S
C131 H94 0.931 . S
C131 C130 1.377 1_655 S
C131 C132 1.376 . S
C132 H95 0.930 . S
C132 C131 1.376 . S
C132 C133 1.376 1_655 S
C133 C132 1.376 1_455 S
C133 C134 1.378 . S
C133 C160 1.486 . S
C134 H96 0.930 . S
C134 C133 1.378 . S
C134 C135 1.376 . S
C135 H97 0.929 . S
C135 C130 1.397 . S
C135 C134 1.376 . S
C136 C120 1.509 . S
C136 C137 1.391 . S
C136 C141 1.386 . S
C137 H98 0.930 . S
C137 C136 1.391 . S
C137 C138 1.375 . S
C138 H99 0.931 . S
C138 C137 1.375 . S
C138 C139 1.375 . S
C139 C138 1.375 . S
C139 C140 1.361 . S
C140 H100 0.930 . S
C140 C139 1.361 . S
C140 C141 1.399 . S
C141 H101 0.929 . S
C141 C136 1.386 . S
C141 C140 1.399 . S
C142 C121 1.485 . S
C142 C143 1.394 . S
C142 C147 1.360 . S
C143 H102 0.931 . S
C143 C142 1.394 . S
C143 C144 1.372 . S
C144 H103 0.930 . S
C144 C143 1.372 . S
C144 C145 1.397 . S
C145 C144 1.397 . S
C145 C146 1.390 . S
C145 C161 1.476 . S
C146 H104 0.930 . S
C146 C145 1.390 . S
C146 C147 1.366 . S
C147 H105 0.932 . S
C147 C142 1.360 . S
C147 C146 1.366 . S
C148 C122 1.490 . S
C148 C149 1.380 . S
C148 C153 1.386 . S
C149 H106 0.930 1_655 S
C149 C148 1.380 . S
C149 C150 1.381 . S
C150 H107 0.929 . S
C150 C149 1.381 . S
C150 C151 1.371 . S
C151 C150 1.371 . S
C151 C152 1.380 . S
C152 H108 0.931 . S
C152 C151 1.380 . S
C152 C153 1.387 . S
C153 H109 0.930 . S
C153 C148 1.386 . S
C153 C152 1.387 . S
C154 C123 1.519 . S
C154 C155 1.377 . S
C154 C159 1.361 . S
C155 H110 0.929 . S
C155 C154 1.377 . S
C155 C156 1.386 . S
C156 H111 0.931 . S
C156 C155 1.386 . S
C156 C157 1.363 . S
C157 C156 1.363 . S
C157 C158 1.385 . S
C158 H112 0.930 . S
C158 C157 1.385 . S
C158 C159 1.396 . S
C159 H113 0.929 . S
C159 C154 1.361 . S
C159 C158 1.396 . S
C160 O114 1.300 . S
C160 O115 1.209 . S
C160 C133 1.486 . S
C161 O116 1.199 . S
C161 O117 1.297 . S
C161 C145 1.476 . S
H162 O188 0.856 . S
H163 O191 0.854 . S
H164 C199 0.930 . S
H165 C200 0.930 . S
H166 C202 0.930 . S
H167 C203 0.930 . S
H168 C205 0.931 . S
H169 C206 0.930 . S
H170 C208 0.930 . S
H171 C209 0.929 . S
H172 C211 0.930 . S
H173 C212 0.931 . S
H174 C214 0.930 . S
H175 C215 0.929 . S
H176 C217 0.931 . S
H177 C218 0.930 . S
H178 C220 0.930 . S
H179 C221 0.932 . S
H180 C223 0.930 . S
H181 C224 0.929 . S
H182 C226 0.931 . S
H183 C227 0.930 . S
H184 C229 0.929 . S
H185 C230 0.931 . S
H186 C232 0.930 . S
H187 C233 0.929 . S
O188 H162 0.856 . S
O188 C234 1.300 . S
O189 C234 1.209 . S
O190 C235 1.199 . S
O191 H163 0.854 . S
O191 C235 1.297 . S
C192 C193 1.404 1_455 S
C192 C197 1.397 . S
C192 C198 1.492 . S
C193 C192 1.404 1_655 S
C193 C194 1.396 . S
C193 C204 1.492 1_655 S
C194 C193 1.396 . S
C194 C195 1.397 . S
C194 C210 1.509 . S
C195 C194 1.397 . S
C195 C196 1.412 . S
C195 C216 1.485 . S
C196 C195 1.412 . S
C196 C197 1.388 1_655 S
C196 C222 1.490 . S
C197 C192 1.397 . S
C197 C196 1.388 1_455 S
C197 C228 1.519 . S
C198 C192 1.492 . S
C198 C199 1.363 . S
C198 C203 1.390 . S
C199 H164 0.930 . S
C199 C198 1.363 . S
C199 C200 1.372 . S
C200 H165 0.930 . S
C200 C199 1.372 . S
C200 C201 1.383 . S
C201 C200 1.383 . S
C201 C202 1.395 . S
C202 H166 0.930 . S
C202 C201 1.395 . S
C202 C203 1.362 . S
C203 H167 0.930 . S
C203 C198 1.390 . S
C203 C202 1.362 . S
C204 C193 1.492 1_455 S
C204 C205 1.377 1_455 S
C204 C209 1.397 . S
C205 H168 0.931 . S
C205 C204 1.377 1_655 S
C205 C206 1.376 1_655 S
C206 H169 0.930 . S
C206 C205 1.376 1_455 S
C206 C207 1.376 . S
C207 C206 1.376 . S
C207 C208 1.378 . S
C207 C234 1.486 . S
C208 H170 0.930 . S
C208 C207 1.378 . S
C208 C209 1.376 . S
C209 H171 0.929 . S
C209 C204 1.397 . S
C209 C208 1.376 . S
C210 C194 1.509 . S
C210 C211 1.391 . S
C210 C215 1.386 . S
C211 H172 0.930 . S
C211 C210 1.391 . S
C211 C212 1.375 . S
C212 H173 0.931 . S
C212 C211 1.375 . S
C212 C213 1.375 . S
C213 C212 1.375 . S
C213 C214 1.361 . S
C214 H174 0.930 . S
C214 C213 1.361 . S
C214 C215 1.399 . S
C215 H175 0.929 . S
C215 C210 1.386 . S
C215 C214 1.399 . S
C216 C195 1.485 . S
C216 C217 1.394 . S
C216 C221 1.360 . S
C217 H176 0.931 . S
C217 C216 1.394 . S
C217 C218 1.372 . S
C218 H177 0.930 . S
C218 C217 1.372 . S
C218 C219 1.397 . S
C219 C218 1.397 . S
C219 C220 1.390 . S
C219 C235 1.476 . S
C220 H178 0.930 . S
C220 C219 1.390 . S
C220 C221 1.366 . S
C221 H179 0.932 . S
C221 C216 1.360 . S
C221 C220 1.366 . S
C222 C196 1.490 . S
C222 C223 1.380 . S
C222 C227 1.386 . S
C223 H180 0.930 . S
C223 C222 1.380 . S
C223 C224 1.381 . S
C224 H181 0.929 . S
C224 C223 1.381 . S
C224 C225 1.371 . S
C225 C224 1.371 . S
C225 C226 1.380 . S
C226 H182 0.931 . S
C226 C225 1.380 . S
C226 C227 1.387 . S
C227 H183 0.930 . S
C227 C222 1.386 . S
C227 C226 1.387 . S
C228 C197 1.519 . S
C228 C229 1.377 . S
C228 C233 1.361 . S
C229 H184 0.929 . S
C229 C228 1.377 . S
C229 C230 1.386 . S
C230 H185 0.931 . S
C230 C229 1.386 . S
C230 C231 1.363 . S
C231 C230 1.363 . S
C231 C232 1.385 . S
C232 H186 0.930 . S
C232 C231 1.385 . S
C232 C233 1.396 . S
C233 H187 0.929 . S
C233 C228 1.361 . S
C233 C232 1.396 . S
C234 O188 1.300 . S
C234 O189 1.209 . S
C234 C207 1.486 . S
C235 O190 1.199 . S
C235 O191 1.297 . S
C235 C219 1.476 . S
H236 O262 0.856 . S
H237 O265 0.854 . S
H238 C273 0.930 . S
H239 C274 0.930 . S
H240 C276 0.930 . S
H241 C277 0.930 . S
H242 C279 0.931 . S
H243 C280 0.930 . S
H244 C282 0.930 . S
H245 C283 0.929 . S
H246 C285 0.930 . S
H247 C286 0.931 . S
H248 C288 0.930 . S
H249 C289 0.929 . S
H250 C291 0.931 . S
H251 C292 0.930 . S
H252 C294 0.930 . S
H253 C295 0.932 . S
H254 C297 0.930 . S
H255 C298 0.929 . S
H256 C300 0.931 . S
H257 C301 0.930 . S
H258 C303 0.929 . S
H259 C304 0.931 . S
H260 C306 0.930 . S
H261 C307 0.929 . S
O262 H236 0.856 . S
O262 C308 1.300 . S
O263 C308 1.209 . S
O264 C309 1.199 . S
O265 H237 0.854 . S
O265 C309 1.297 . S
C266 C267 1.404 . S
C266 C271 1.397 . S
C266 C272 1.492 . S
C267 C266 1.404 . S
C267 C268 1.396 . S
C267 C278 1.492 . S
C268 C267 1.396 . S
C268 C269 1.397 . S
C268 C284 1.509 . S
C269 C268 1.397 . S
C269 C270 1.412 . S
C269 C290 1.485 . S
C270 C269 1.412 . S
C270 C271 1.388 . S
C270 C296 1.490 . S
C271 C266 1.397 . S
C271 C270 1.388 . S
C271 C302 1.519 . S
C272 C266 1.492 . S
C272 C273 1.363 . S
C272 C277 1.390 . S
C273 H238 0.930 . S
C273 C272 1.363 . S
C273 C274 1.372 . S
C274 H239 0.930 . S
C274 C273 1.372 . S
C274 C275 1.383 . S
C275 C274 1.383 . S
C275 C276 1.395 . S
C276 H240 0.930 . S
C276 C275 1.395 . S
C276 C277 1.362 . S
C277 H241 0.930 . S
C277 C272 1.390 . S
C277 C276 1.362 . S
C278 C267 1.492 . S
C278 C279 1.377 . S
C278 C283 1.397 . S
C279 H242 0.931 . S
C279 C278 1.377 . S
C279 C280 1.376 . S
C280 H243 0.930 . S
C280 C279 1.376 . S
C280 C281 1.376 . S
C281 C280 1.376 . S
C281 C282 1.378 . S
C281 C308 1.486 . S
C282 H244 0.930 . S
C282 C281 1.378 . S
C282 C283 1.376 . S
C283 H245 0.929 . S
C283 C278 1.397 . S
C283 C282 1.376 . S
C284 C268 1.509 . S
C284 C285 1.391 . S
C284 C289 1.386 . S
C285 H246 0.930 . S
C285 C284 1.391 . S
C285 C286 1.375 . S
C286 H247 0.931 . S
C286 C285 1.375 . S
C286 C287 1.375 . S
C287 C286 1.375 . S
C287 C288 1.361 . S
C288 H248 0.930 . S
C288 C287 1.361 . S
C288 C289 1.399 . S
C289 H249 0.929 . S
C289 C284 1.386 . S
C289 C288 1.399 . S
C290 C269 1.485 . S
C290 C291 1.394 . S
C290 C295 1.360 . S
C291 H250 0.931 . S
C291 C290 1.394 . S
C291 C292 1.372 . S
C292 H251 0.930 . S
C292 C291 1.372 . S
C292 C293 1.397 . S
C293 C292 1.397 . S
C293 C294 1.390 . S
C293 C309 1.476 . S
C294 H252 0.930 . S
C294 C293 1.390 . S
C294 C295 1.366 . S
C295 H253 0.932 . S
C295 C290 1.360 . S
C295 C294 1.366 . S
C296 C270 1.490 . S
C296 C297 1.380 . S
C296 C301 1.386 . S
C297 H254 0.930 . S
C297 C296 1.380 . S
C297 C298 1.381 . S
C298 H255 0.929 . S
C298 C297 1.381 . S
C298 C299 1.371 . S
C299 C298 1.371 . S
C299 C300 1.380 . S
C300 H256 0.931 . S
C300 C299 1.380 . S
C300 C301 1.387 . S
C301 H257 0.930 . S
C301 C296 1.386 . S
C301 C300 1.387 . S
C302 C271 1.519 . S
C302 C303 1.377 . S
C302 C307 1.361 . S
C303 H258 0.929 . S
C303 C302 1.377 . S
C303 C304 1.386 . S
C304 H259 0.931 . S
C304 C303 1.386 . S
C304 C305 1.363 . S
C305 C304 1.363 . S
C305 C306 1.385 . S
C306 H260 0.930 . S
C306 C305 1.385 . S
C306 C307 1.396 . S
C307 H261 0.929 . S
C307 C302 1.361 . S
C307 C306 1.396 . S
C308 O262 1.300 . S
C308 O263 1.209 . S
C308 C281 1.486 . S
C309 O264 1.199 . S
C309 O265 1.297 . S
C309 C293 1.476 . S
H310 O336 0.856 . S
H311 O339 0.854 . S
H312 C347 0.923 1_556 S
H313 C348 0.930 . S
H314 C350 0.930 . S
H315 C351 0.930 . S
H316 C353 0.931 . S
H317 C354 0.930 . S
H318 C356 0.930 . S
H319 C357 0.929 . S
H320 C359 0.930 . S
H321 C360 0.931 . S
H322 C362 0.930 . S
H323 C363 0.929 . S
H324 C365 0.931 . S
H325 C366 0.930 . S
H326 C368 0.930 . S
H327 C369 0.932 . S
H328 C371 0.930 . S
H329 C372 0.929 . S
H330 C374 0.931 . S
H331 C375 0.930 . S
H332 C377 0.929 . S
H333 C378 0.931 . S
H334 C380 0.930 . S
H335 C381 0.929 . S
O336 H310 0.856 . S
O336 C382 1.300 . S
O337 C382 1.209 . S
O338 C383 1.199 . S
O339 H311 0.854 . S
O339 C383 1.297 . S
C340 C341 1.404 1_554 S
C340 C345 1.397 . S
C340 C346 1.492 . S
C341 C340 1.404 1_556 S
C341 C342 1.396 . S
C341 C352 1.492 . S
C342 C341 1.396 . S
C342 C343 1.397 1_556 S
C342 C358 1.509 . S
C343 C342 1.397 1_554 S
C343 C344 1.412 . S
C343 C364 1.485 . S
C344 C343 1.412 . S
C344 C345 1.388 . S
C344 C370 1.490 . S
C345 C340 1.397 . S
C345 C344 1.388 . S
C345 C376 1.519 . S
C346 C340 1.492 . S
C346 C347 1.376 . S
C346 C351 1.390 . S
C347 H312 0.923 1_554 S
C347 C346 1.376 . S
C347 C348 1.368 1_554 S
C348 H313 0.930 . S
C348 C347 1.368 1_556 S
C348 C349 1.377 1_556 S
C349 C348 1.377 1_554 S
C349 C350 1.407 . S
C350 H314 0.930 . S
C350 C349 1.407 . S
C350 C351 1.362 . S
C351 H315 0.930 . S
C351 C346 1.390 . S
C351 C350 1.362 . S
C352 C341 1.492 . S
C352 C353 1.377 . S
C352 C357 1.397 . S
C353 H316 0.931 . S
C353 C352 1.377 . S
C353 C354 1.376 . S
C354 H317 0.930 . S
C354 C353 1.376 . S
C354 C355 1.376 . S
C355 C354 1.376 . S
C355 C356 1.378 . S
C355 C382 1.486 . S
C356 H318 0.930 . S
C356 C355 1.378 . S
C356 C357 1.376 . S
C357 H319 0.929 . S
C357 C352 1.397 . S
C357 C356 1.376 . S
C358 C342 1.509 . S
C358 C359 1.391 . S
C358 C363 1.386 . S
C359 H320 0.930 . S
C359 C358 1.391 . S
C359 C360 1.375 . S
C360 H321 0.931 . S
C360 C359 1.375 . S
C360 C361 1.375 . S
C361 C360 1.375 . S
C361 C362 1.361 . S
C362 H322 0.930 . S
C362 C361 1.361 . S
C362 C363 1.399 . S
C363 H323 0.929 . S
C363 C358 1.386 . S
C363 C362 1.399 . S
C364 C343 1.485 . S
C364 C365 1.394 . S
C364 C369 1.360 . S
C365 H324 0.931 . S
C365 C364 1.394 . S
C365 C366 1.372 . S
C366 H325 0.930 . S
C366 C365 1.372 . S
C366 C367 1.397 . S
C367 C366 1.397 . S
C367 C368 1.390 . S
C367 C383 1.476 . S
C368 H326 0.930 . S
C368 C367 1.390 . S
C368 C369 1.366 . S
C369 H327 0.932 . S
C369 C364 1.360 . S
C369 C368 1.366 . S
C370 C344 1.490 . S
C370 C371 1.380 . S
C370 C375 1.386 . S
C371 H328 0.930 . S
C371 C370 1.380 . S
C371 C372 1.381 . S
C372 H329 0.929 . S
C372 C371 1.381 . S
C372 C373 1.371 . S
C373 C372 1.371 . S
C373 C374 1.380 . S
C374 H330 0.931 . S
C374 C373 1.380 . S
C374 C375 1.387 . S
C375 H331 0.930 . S
C375 C370 1.386 . S
C375 C374 1.387 . S
C376 C345 1.519 . S
C376 C377 1.377 . S
C376 C381 1.361 . S
C377 H332 0.929 . S
C377 C376 1.377 . S
C377 C378 1.386 . S
C378 H333 0.931 . S
C378 C377 1.386 . S
C378 C379 1.363 . S
C379 C378 1.363 . S
C379 C380 1.385 . S
C380 H334 0.930 . S
C380 C379 1.385 . S
C380 C381 1.396 . S
C381 H335 0.929 . S
C381 C376 1.361 . S
C381 C380 1.396 . S
C382 O336 1.300 . S
C382 O337 1.209 . S
C382 C355 1.486 . S
C383 O338 1.199 . S
C383 O339 1.297 . S
C383 C367 1.476 . S
H384 O410 0.856 . S
H385 O413 0.854 . S
H386 C421 0.930 . S
H387 C422 0.930 . S
H388 C424 0.930 . S
H389 C425 0.930 . S
H390 C427 0.931 . S
H391 C428 0.930 . S
H392 C430 0.930 . S
H393 C431 0.929 . S
H394 C433 0.930 . S
H395 C434 0.931 . S
H396 C436 0.930 . S
H397 C437 0.929 . S
H398 C439 0.931 . S
H399 C440 0.930 . S
H400 C442 0.930 . S
H401 C443 0.932 . S
H402 C445 0.930 . S
H403 C446 0.929 . S
H404 C448 0.931 . S
H405 C449 0.930 . S
H406 C451 0.929 . S
H407 C452 0.931 . S
H408 C454 0.930 . S
H409 C455 0.929 . S
O410 H384 0.856 . S
O410 C456 1.300 . S
O411 C456 1.209 . S
O412 C457 1.199 . S
O413 H385 0.854 . S
O413 C457 1.297 . S
C414 C415 1.404 . S
C414 C419 1.397 . S
C414 C420 1.492 1_545 S
C415 C414 1.404 . S
C415 C416 1.396 . S
C415 C426 1.492 . S
C416 C415 1.396 . S
C416 C417 1.397 . S
C416 C432 1.509 . S
C417 C416 1.397 . S
C417 C418 1.412 . S
C417 C438 1.485 . S
C418 C417 1.412 . S
C418 C419 1.388 . S
C418 C444 1.490 . S
C419 C414 1.397 . S
C419 C418 1.388 . S
C419 C450 1.519 1_545 S
C420 C414 1.492 1_565 S
C420 C421 1.363 . S
C420 C425 1.390 . S
C421 H386 0.930 . S
C421 C420 1.363 . S
C421 C422 1.372 . S
C422 H387 0.930 . S
C422 C421 1.372 . S
C422 C423 1.383 . S
C423 C422 1.383 . S
C423 C424 1.395 . S
C424 H388 0.930 . S
C424 C423 1.395 . S
C424 C425 1.362 . S
C425 H389 0.930 . S
C425 C420 1.390 . S
C425 C424 1.362 . S
C426 C415 1.492 . S
C426 C427 1.377 . S
C426 C431 1.397 . S
C427 H390 0.931 . S
C427 C426 1.377 . S
C427 C428 1.376 . S
C428 H391 0.930 . S
C428 C427 1.376 . S
C428 C429 1.376 . S
C429 C428 1.376 . S
C429 C430 1.378 . S
C429 C456 1.486 . S
C430 H392 0.930 . S
C430 C429 1.378 . S
C430 C431 1.376 . S
C431 H393 0.929 . S
C431 C426 1.397 . S
C431 C430 1.376 . S
C432 C416 1.509 . S
C432 C433 1.391 . S
C432 C437 1.386 . S
C433 H394 0.930 . S
C433 C432 1.391 . S
C433 C434 1.375 . S
C434 H395 0.931 . S
C434 C433 1.375 . S
C434 C435 1.375 . S
C435 C434 1.375 . S
C435 C436 1.361 . S
C436 H396 0.930 . S
C436 C435 1.361 . S
C436 C437 1.399 . S
C437 H397 0.929 . S
C437 C432 1.386 . S
C437 C436 1.399 . S
C438 C417 1.485 . S
C438 C439 1.394 . S
C438 C443 1.360 . S
C439 H398 0.931 . S
C439 C438 1.394 . S
C439 C440 1.372 . S
C440 H399 0.930 . S
C440 C439 1.372 . S
C440 C441 1.397 . S
C441 C440 1.397 . S
C441 C442 1.390 . S
C441 C457 1.476 . S
C442 H400 0.930 . S
C442 C441 1.390 . S
C442 C443 1.366 . S
C443 H401 0.932 . S
C443 C438 1.360 . S
C443 C442 1.366 . S
C444 C418 1.490 . S
C444 C445 1.380 . S
C444 C449 1.386 . S
C445 H402 0.930 . S
C445 C444 1.380 . S
C445 C446 1.381 . S
C446 H403 0.929 . S
C446 C445 1.381 . S
C446 C447 1.371 . S
C447 C446 1.371 . S
C447 C448 1.380 . S
C448 H404 0.931 . S
C448 C447 1.380 . S
C448 C449 1.387 . S
C449 H405 0.930 . S
C449 C444 1.386 . S
C449 C448 1.387 . S
C450 C419 1.519 1_565 S
C450 C451 1.377 . S
C450 C455 1.361 1_565 S
C451 H406 0.929 . S
C451 C450 1.377 . S
C451 C452 1.386 . S
C452 H407 0.931 . S
C452 C451 1.386 . S
C452 C453 1.363 . S
C453 C452 1.363 . S
C453 C454 1.385 . S
C454 H408 0.930 . S
C454 C453 1.385 . S
C454 C455 1.396 1_565 S
C455 H409 0.929 . S
C455 C450 1.361 1_545 S
C455 C454 1.396 1_545 S
C456 O410 1.300 . S
C456 O411 1.209 . S
C456 C429 1.486 . S
C457 O412 1.199 . S
C457 O413 1.297 . S
C457 C441 1.476 . S
H458 O484 0.856 . S
H459 O487 0.854 . S
H460 C495 0.930 . S
H461 C496 0.930 . S
H462 C498 0.930 . S
H463 C499 0.930 . S
H464 C501 0.931 . S
H465 C502 0.930 . S
H466 C504 0.930 . S
H467 C505 0.929 . S
H468 C507 0.930 . S
H469 C508 0.931 . S
H470 C510 0.930 . S
H471 C511 0.929 . S
H472 C513 0.931 . S
H473 C514 0.930 . S
H474 C516 0.930 . S
H475 C517 0.932 . S
H476 C519 0.930 . S
H477 C520 0.929 . S
H478 C522 0.931 . S
H479 C523 0.930 . S
H480 C525 0.929 . S
H481 C526 0.931 . S
H482 C528 0.930 . S
H483 C529 0.929 . S
O484 H458 0.856 . S
O484 C530 1.300 . S
O485 C530 1.209 . S
O486 C531 1.199 . S
O487 H459 0.854 . S
O487 C531 1.297 . S
C488 C489 1.404 1_554 S
C488 C493 1.397 . S
C488 C494 1.495 . S
C489 C488 1.404 1_556 S
C489 C490 1.398 . S
C489 C500 1.492 . S
C490 C489 1.398 . S
C490 C491 1.390 1_556 S
C490 C506 1.514 . S
C491 C490 1.390 1_554 S
C491 C492 1.412 . S
C491 C512 1.485 . S
C492 C491 1.412 . S
C492 C493 1.388 . S
C492 C518 1.490 . S
C493 C488 1.397 . S
C493 C492 1.388 . S
C493 C524 1.519 . S
C494 C488 1.495 . S
C494 C495 1.359 1_554 S
C494 C499 1.391 . S
C495 H460 0.930 . S
C495 C494 1.359 1_556 S
C495 C496 1.372 . S
C496 H461 0.930 . S
C496 C495 1.372 . S
C496 C497 1.383 . S
C497 C496 1.383 . S
C497 C498 1.395 . S
C498 H462 0.930 . S
C498 C497 1.395 . S
C498 C499 1.362 1_556 S
C499 H463 0.930 . S
C499 C494 1.391 . S
C499 C498 1.362 1_554 S
C500 C489 1.492 . S
C500 C501 1.377 . S
C500 C505 1.397 . S
C501 H464 0.931 . S
C501 C500 1.377 . S
C501 C502 1.376 . S
C502 H465 0.930 . S
C502 C501 1.376 . S
C502 C503 1.376 . S
C503 C502 1.376 . S
C503 C504 1.378 . S
C503 C530 1.486 . S
C504 H466 0.930 . S
C504 C503 1.378 . S
C504 C505 1.376 . S
C505 H467 0.929 . S
C505 C500 1.397 . S
C505 C504 1.376 . S
C506 C490 1.514 . S
C506 C507 1.391 . S
C506 C511 1.386 . S
C507 H468 0.930 . S
C507 C506 1.391 . S
C507 C508 1.375 . S
C508 H469 0.931 . S
C508 C507 1.375 . S
C508 C509 1.375 . S
C509 C508 1.375 . S
C509 C510 1.361 . S
C510 H470 0.930 . S
C510 C509 1.361 . S
C510 C511 1.399 . S
C511 H471 0.929 . S
C511 C506 1.386 . S
C511 C510 1.399 . S
C512 C491 1.485 . S
C512 C513 1.394 . S
C512 C517 1.360 . S
C513 H472 0.931 . S
C513 C512 1.394 . S
C513 C514 1.372 . S
C514 H473 0.930 . S
C514 C513 1.372 . S
C514 C515 1.397 . S
C515 C514 1.397 . S
C515 C516 1.390 . S
C515 C531 1.476 . S
C516 H474 0.930 . S
C516 C515 1.390 . S
C516 C517 1.366 . S
C517 H475 0.932 . S
C517 C512 1.360 . S
C517 C516 1.366 . S
C518 C492 1.490 . S
C518 C519 1.380 . S
C518 C523 1.386 . S
C519 H476 0.930 . S
C519 C518 1.380 . S
C519 C520 1.381 . S
C520 H477 0.929 . S
C520 C519 1.381 . S
C520 C521 1.371 . S
C521 C520 1.371 . S
C521 C522 1.380 . S
C522 H478 0.931 . S
C522 C521 1.380 . S
C522 C523 1.387 . S
C523 H479 0.930 . S
C523 C518 1.386 . S
C523 C522 1.387 . S
C524 C493 1.519 . S
C524 C525 1.377 . S
C524 C529 1.361 . S
C525 H480 0.929 . S
C525 C524 1.377 . S
C525 C526 1.386 . S
C526 H481 0.931 . S
C526 C525 1.386 . S
C526 C527 1.363 . S
C527 C526 1.363 . S
C527 C528 1.385 . S
C528 H482 0.930 . S
C528 C527 1.385 . S
C528 C529 1.396 . S
C529 H483 0.929 . S
C529 C524 1.361 . S
C529 C528 1.396 . S
C530 O484 1.300 . S
C530 O485 1.209 . S
C530 C503 1.486 . S
C531 O486 1.199 . S
C531 O487 1.297 . S
C531 C515 1.476 . S
C532 C533 1.349 . S
C532 C534 1.327 . S
C532 H557 0.950 . S
C533 C532 1.349 . S
C533 C549 1.349 . S
C534 C532 1.327 . S
C534 C553 1.429 . S
C534 H558 0.950 . S
C535 C552 1.574 . S
C535 C554 1.368 . S
C535 H559 0.949 . S
H536 C540 0.949 . S
C537 C538 1.349 . S
C537 C539 1.327 . S
C537 H560 0.950 . S
C538 C537 1.349 . S
C538 C550 1.349 . S
C539 C537 1.327 . S
C539 C555 1.429 . S
C539 H561 0.950 . S
C540 H536 0.949 . S
C540 C548 1.574 . S
C540 C556 1.368 . S
H541 C549 0.950 . S
H542 C547 0.950 . S
H543 C548 0.949 . S
H544 C550 0.950 . S
H545 C551 0.950 . S
H546 C552 0.949 . S
C547 H542 0.950 . S
C547 C549 1.327 . S
C547 C553 1.429 . S
C548 C540 1.574 . S
C548 H543 0.949 . S
C548 C554 1.368 . S
C549 C533 1.349 . S
C549 H541 0.950 . S
C549 C547 1.327 . S
C550 C538 1.349 . S
C550 H544 0.950 . S
C550 C551 1.327 . S
C551 H545 0.950 . S
C551 C550 1.327 . S
C551 C555 1.429 . S
C552 C535 1.574 . S
C552 H546 0.949 . S
C552 C556 1.368 . S
C553 C534 1.429 . S
C553 C547 1.429 . S
C553 C554 1.523 . S
C554 C535 1.368 . S
C554 C548 1.368 . S
C554 C553 1.523 . S
C555 C539 1.429 . S
C555 C551 1.429 . S
C555 C556 1.523 . S
C556 C540 1.368 . S
C556 C552 1.368 . S
C556 C555 1.523 . S
H557 C532 0.950 . S
H558 C534 0.950 . S
H559 C535 0.949 . S
H560 C537 0.950 . S
H561 C539 0.950 . S
C562 C563 1.349 . S
C562 C564 1.327 . S
C562 H587 0.950 . S
C563 C562 1.349 . S
C563 C579 1.349 . S
C564 C562 1.327 . S
C564 C583 1.429 . S
C564 H588 0.950 . S
C565 C582 1.574 . S
C565 C584 1.368 . S
C565 H589 0.949 . S
H566 C570 0.949 . S
C567 C568 1.349 . S
C567 C569 1.327 . S
C567 H590 0.950 . S
C568 C567 1.349 . S
C568 C580 1.349 . S
C569 C567 1.327 . S
C569 C585 1.429 . S
C569 H591 0.950 . S
C570 H566 0.949 . S
C570 C578 1.574 . S
C570 C586 1.368 . S
H571 C579 0.950 . S
H572 C577 0.950 . S
H573 C578 0.949 . S
H574 C580 0.950 . S
H575 C581 0.950 . S
H576 C582 0.949 . S
C577 H572 0.950 . S
C577 C579 1.327 . S
C577 C583 1.429 . S
C578 C570 1.574 . S
C578 H573 0.949 . S
C578 C584 1.368 . S
C579 C563 1.349 . S
C579 H571 0.950 . S
C579 C577 1.327 . S
C580 C568 1.349 . S
C580 H574 0.950 . S
C580 C581 1.327 . S
C581 H575 0.950 . S
C581 C580 1.327 . S
C581 C585 1.429 . S
C582 C565 1.574 . S
C582 H576 0.949 . S
C582 C586 1.368 . S
C583 C564 1.429 . S
C583 C577 1.429 . S
C583 C584 1.523 . S
C584 C565 1.368 . S
C584 C578 1.368 . S
C584 C583 1.523 . S
C585 C569 1.429 . S
C585 C581 1.429 . S
C585 C586 1.523 . S
C586 C570 1.368 . S
C586 C582 1.368 . S
C586 C585 1.523 . S
H587 C562 0.950 . S
H588 C564 0.950 . S
H589 C565 0.949 . S
H590 C567 0.950 . S
H591 C569 0.950 . S
C592 C593 1.349 . S
C592 C594 1.327 . S
C592 H617 0.950 . S
C593 C592 1.349 . S
C593 C609 1.349 . S
C594 C592 1.327 . S
C594 C613 1.429 . S
C594 H618 0.950 . S
C595 C612 1.574 . S
C595 C614 1.368 . S
C595 H619 0.949 . S
H596 C600 0.949 . S
C597 C598 1.349 . S
C597 C599 1.327 . S
C597 H620 0.950 . S
C598 C597 1.349 . S
C598 C610 1.349 . S
C599 C597 1.327 . S
C599 C615 1.429 . S
C599 H621 0.950 . S
C600 H596 0.949 . S
C600 C608 1.574 . S
C600 C616 1.368 . S
H601 C609 0.950 . S
H602 C607 0.950 . S
H603 C608 0.949 . S
H604 C610 0.950 . S
H605 C611 0.950 . S
H606 C612 0.949 . S
C607 H602 0.950 . S
C607 C609 1.327 . S
C607 C613 1.429 . S
C608 C600 1.574 . S
C608 H603 0.949 . S
C608 C614 1.368 . S
C609 C593 1.349 . S
C609 H601 0.950 . S
C609 C607 1.327 . S
C610 C598 1.349 . S
C610 H604 0.950 . S
C610 C611 1.327 . S
C611 H605 0.950 . S
C611 C610 1.327 . S
C611 C615 1.429 . S
C612 C595 1.574 . S
C612 H606 0.949 . S
C612 C616 1.368 . S
C613 C594 1.429 . S
C613 C607 1.429 . S
C613 C614 1.523 . S
C614 C595 1.368 . S
C614 C608 1.368 . S
C614 C613 1.523 . S
C615 C599 1.429 . S
C615 C611 1.429 . S
C615 C616 1.523 . S
C616 C600 1.368 . S
C616 C612 1.368 . S
C616 C615 1.523 . S
H617 C592 0.950 . S
H618 C594 0.950 . S
H619 C595 0.949 . S
H620 C597 0.950 . S
H621 C599 0.950 . S
C622 C623 1.349 . S
C622 C624 1.327 . S
C622 H647 0.950 . S
C623 C622 1.349 . S
C623 C639 1.349 . S
C624 C622 1.327 . S
C624 C643 1.429 . S
C624 H648 0.950 . S
C625 C642 1.574 . S
C625 C644 1.368 . S
C625 H649 0.949 . S
H626 C630 0.949 . S
C627 C628 1.349 . S
C627 C629 1.327 . S
C627 H650 0.950 . S
C628 C627 1.349 . S
C628 C640 1.349 . S
C629 C627 1.327 . S
C629 C645 1.429 . S
C629 H651 0.950 . S
C630 H626 0.949 . S
C630 C638 1.574 . S
C630 C646 1.368 . S
H631 C639 0.950 . S
H632 C637 0.950 . S
H633 C638 0.949 . S
H634 C640 0.950 . S
H635 C641 0.950 . S
H636 C642 0.949 . S
C637 H632 0.950 . S
C637 C639 1.327 . S
C637 C643 1.429 . S
C638 C630 1.574 . S
C638 H633 0.949 . S
C638 C644 1.368 . S
C639 C623 1.349 . S
C639 H631 0.950 . S
C639 C637 1.327 . S
C640 C628 1.349 . S
C640 H634 0.950 . S
C640 C641 1.327 . S
C641 H635 0.950 . S
C641 C640 1.327 . S
C641 C645 1.429 . S
C642 C625 1.574 . S
C642 H636 0.949 . S
C642 C646 1.368 . S
C643 C624 1.429 . S
C643 C637 1.429 . S
C643 C644 1.523 . S
C644 C625 1.368 . S
C644 C638 1.368 . S
C644 C643 1.523 . S
C645 C629 1.429 . S
C645 C641 1.429 . S
C645 C646 1.523 . S
C646 C630 1.368 . S
C646 C642 1.368 . S
C646 C645 1.523 . S
H647 C622 0.950 . S
H648 C624 0.950 . S
H649 C625 0.949 . S
H650 C627 0.950 . S
H651 C629 0.950 . S
C652 C653 1.349 . S
C652 C654 1.327 . S
C652 H677 0.950 . S
C653 C652 1.349 . S
C653 C669 1.349 . S
C654 C652 1.327 . S
C654 C673 1.429 . S
C654 H678 0.950 . S
C655 C672 1.574 . S
C655 C674 1.368 . S
C655 H679 0.949 . S
H656 C660 0.949 . S
C657 C658 1.349 . S
C657 C659 1.327 . S
C657 H680 0.950 . S
C658 C657 1.349 . S
C658 C670 1.349 . S
C659 C657 1.327 . S
C659 C675 1.429 . S
C659 H681 0.950 . S
C660 H656 0.949 . S
C660 C668 1.574 . S
C660 C676 1.368 . S
H661 C669 0.950 . S
H662 C667 0.950 . S
H663 C668 0.949 . S
H664 C670 0.950 . S
H665 C671 0.950 . S
H666 C672 0.949 . S
C667 H662 0.950 . S
C667 C669 1.327 . S
C667 C673 1.429 . S
C668 C660 1.574 . S
C668 H663 0.949 . S
C668 C674 1.368 . S
C669 C653 1.349 . S
C669 H661 0.950 . S
C669 C667 1.327 . S
C670 C658 1.349 . S
C670 H664 0.950 . S
C670 C671 1.327 . S
C671 H665 0.950 . S
C671 C670 1.327 . S
C671 C675 1.429 . S
C672 C655 1.574 . S
C672 H666 0.949 . S
C672 C676 1.368 . S
C673 C654 1.429 . S
C673 C667 1.429 . S
C673 C674 1.523 . S
C674 C655 1.368 . S
C674 C668 1.368 . S
C674 C673 1.523 . S
C675 C659 1.429 . S
C675 C671 1.429 . S
C675 C676 1.523 . S
C676 C660 1.368 . S
C676 C672 1.368 . S
C676 C675 1.523 . S
H677 C652 0.950 . S
H678 C654 0.950 . S
H679 C655 0.949 . S
H680 C657 0.950 . S
H681 C659 0.950 . S
C682 C683 1.349 . S
C682 C684 1.327 . S
C682 H707 0.950 . S
C683 C682 1.349 . S
C683 C699 1.349 . S
C684 C682 1.327 . S
C684 C703 1.429 . S
C684 H708 0.950 . S
C685 C702 1.574 . S
C685 C704 1.368 . S
C685 H709 0.949 . S
H686 C690 0.949 . S
C687 C688 1.349 . S
C687 C689 1.327 . S
C687 H710 0.950 1_556 S
C688 C687 1.349 . S
C688 C700 1.349 . S
C689 C687 1.327 . S
C689 C705 1.429 . S
C689 H711 0.950 . S
C690 H686 0.949 . S
C690 C698 1.574 . S
C690 C706 1.368 . S
H691 C699 0.950 . S
H692 C697 0.950 . S
H693 C698 0.949 . S
H694 C700 0.950 . S
H695 C701 0.950 . S
H696 C702 0.949 . S
C697 H692 0.950 . S
C697 C699 1.327 . S
C697 C703 1.429 . S
C698 C690 1.574 . S
C698 H693 0.949 . S
C698 C704 1.368 . S
C699 C683 1.349 . S
C699 H691 0.950 . S
C699 C697 1.327 . S
C700 C688 1.349 . S
C700 H694 0.950 . S
C700 C701 1.327 . S
C701 H695 0.950 . S
C701 C700 1.327 . S
C701 C705 1.429 . S
C702 C685 1.574 . S
C702 H696 0.949 . S
C702 C706 1.368 . S
C703 C684 1.429 . S
C703 C697 1.429 . S
C703 C704 1.523 . S
C704 C685 1.368 . S
C704 C698 1.368 . S
C704 C703 1.523 . S
C705 C689 1.429 . S
C705 C701 1.429 . S
C705 C706 1.523 . S
C706 C690 1.368 . S
C706 C702 1.368 . S
C706 C705 1.523 . S
H707 C682 0.950 . S
H708 C684 0.950 . S
H709 C685 0.949 . S
H710 C687 0.950 1_554 S
H711 C689 0.950 . S
C712 C713 1.349 . S
C712 C714 1.327 . S
C712 H737 0.950 . S
C713 C712 1.349 . S
C713 C729 1.349 . S
C714 C712 1.327 . S
C714 C733 1.429 . S
C714 H738 0.950 . S
C715 C732 1.574 . S
C715 C734 1.368 . S
C715 H739 0.949 . S
H716 C720 0.949 . S
C717 C718 1.349 . S
C717 C719 1.327 . S
C717 H740 0.950 . S
C718 C717 1.349 . S
C718 C730 1.349 . S
C719 C717 1.327 . S
C719 C735 1.429 . S
C719 H741 0.950 . S
C720 H716 0.949 . S
C720 C728 1.574 . S
C720 C736 1.368 . S
H721 C729 0.950 . S
H722 C727 0.950 . S
H723 C728 0.949 . S
H724 C730 0.950 . S
H725 C731 0.950 . S
H726 C732 0.949 . S
C727 H722 0.950 . S
C727 C729 1.327 . S
C727 C733 1.429 . S
C728 C720 1.574 . S
C728 H723 0.949 . S
C728 C734 1.368 . S
C729 C713 1.349 . S
C729 H721 0.950 . S
C729 C727 1.327 . S
C730 C718 1.349 . S
C730 H724 0.950 . S
C730 C731 1.327 . S
C731 H725 0.950 . S
C731 C730 1.327 . S
C731 C735 1.429 . S
C732 C715 1.574 . S
C732 H726 0.949 . S
C732 C736 1.368 . S
C733 C714 1.429 . S
C733 C727 1.429 . S
C733 C734 1.523 . S
C734 C715 1.368 . S
C734 C728 1.368 . S
C734 C733 1.523 . S
C735 C719 1.429 . S
C735 C731 1.429 . S
C735 C736 1.523 . S
C736 C720 1.368 . S
C736 C732 1.368 . S
C736 C735 1.523 . S
H737 C712 0.950 . S
H738 C714 0.950 . S
H739 C715 0.949 . S
H740 C717 0.950 . S
H741 C719 0.950 . S
C742 C743 1.349 . S
C742 C744 1.327 . S
C742 H767 0.950 . S
C743 C742 1.349 . S
C743 C759 1.349 . S
C744 C742 1.327 . S
C744 C763 1.429 . S
C744 H768 0.950 . S
C745 C762 1.574 . S
C745 C764 1.368 . S
C745 H769 0.949 . S
H746 C750 0.949 . S
C747 C748 1.349 . S
C747 C749 1.327 . S
C747 H770 0.950 . S
C748 C747 1.349 . S
C748 C760 1.349 . S
C749 C747 1.327 . S
C749 C765 1.429 . S
C749 H771 0.950 . S
C750 H746 0.949 . S
C750 C758 1.574 . S
C750 C766 1.368 . S
H751 C759 0.950 . S
H752 C757 0.950 . S
H753 C758 0.949 . S
H754 C760 0.950 . S
H755 C761 0.950 . S
H756 C762 0.949 . S
C757 H752 0.950 . S
C757 C759 1.327 . S
C757 C763 1.429 . S
C758 C750 1.574 . S
C758 H753 0.949 . S
C758 C764 1.368 . S
C759 C743 1.349 . S
C759 H751 0.950 . S
C759 C757 1.327 . S
C760 C748 1.349 . S
C760 H754 0.950 . S
C760 C761 1.327 . S
C761 H755 0.950 . S
C761 C760 1.327 . S
C761 C765 1.429 . S
C762 C745 1.574 . S
C762 H756 0.949 . S
C762 C766 1.368 . S
C763 C744 1.429 . S
C763 C757 1.429 . S
C763 C764 1.523 . S
C764 C745 1.368 . S
C764 C758 1.368 . S
C764 C763 1.523 . S
C765 C749 1.429 . S
C765 C761 1.429 . S
C765 C766 1.523 . S
C766 C750 1.368 . S
C766 C762 1.368 . S
C766 C765 1.523 . S
H767 C742 0.950 . S
H768 C744 0.950 . S
H769 C745 0.949 . S
H770 C747 0.950 . S
H771 C749 0.950 . S
C772 C773 1.349 . S
C772 C774 1.327 1_565 S
C772 H797 0.950 . S
C773 C772 1.349 . S
C773 C789 1.349 1_565 S
C774 C772 1.327 1_545 S
C774 C793 1.429 . S
C774 H798 0.950 . S
C775 C792 1.574 . S
C775 C794 1.368 . S
C775 H799 0.949 . S
H776 C780 0.949 . S
C777 C778 1.349 . S
C777 C779 1.327 . S
C777 H800 0.950 . S
C778 C777 1.349 . S
C778 C790 1.349 . S
C779 C777 1.327 . S
C779 C795 1.429 . S
C779 H801 0.950 . S
C780 H776 0.949 . S
C780 C788 1.574 . S
C780 C796 1.368 . S
H781 C789 0.950 . S
H782 C787 0.950 . S
H783 C788 0.949 . S
H784 C790 0.950 . S
H785 C791 0.950 . S
H786 C792 0.949 . S
C787 H782 0.950 . S
C787 C789 1.327 . S
C787 C793 1.429 . S
C788 C780 1.574 . S
C788 H783 0.949 . S
C788 C794 1.368 . S
C789 C773 1.349 1_545 S
C789 H781 0.950 . S
C789 C787 1.327 . S
C790 C778 1.349 . S
C790 H784 0.950 . S
C790 C791 1.327 . S
C791 H785 0.950 . S
C791 C790 1.327 . S
C791 C795 1.429 . S
C792 C775 1.574 . S
C792 H786 0.949 . S
C792 C796 1.368 . S
C793 C774 1.429 . S
C793 C787 1.429 . S
C793 C794 1.523 . S
C794 C775 1.368 . S
C794 C788 1.368 . S
C794 C793 1.523 . S
C795 C779 1.429 . S
C795 C791 1.429 . S
C795 C796 1.523 . S
C796 C780 1.368 . S
C796 C792 1.368 . S
C796 C795 1.523 . S
H797 C772 0.950 . S
H798 C774 0.950 . S
H799 C775 0.949 . S
H800 C777 0.950 . S
H801 C779 0.950 . S
C802 C803 1.349 . S
C802 C804 1.327 . S
C802 H827 0.950 . S
C803 C802 1.349 . S
C803 C819 1.349 . S
C804 C802 1.327 . S
C804 C823 1.429 . S
C804 H828 0.950 . S
C805 C822 1.574 . S
C805 C824 1.368 . S
C805 H829 0.949 . S
H806 C810 0.949 . S
C807 C808 1.349 . S
C807 C809 1.327 . S
C807 H830 0.950 . S
C808 C807 1.349 . S
C808 C820 1.349 . S
C809 C807 1.327 . S
C809 C825 1.429 . S
C809 H831 0.950 . S
C810 H806 0.949 . S
C810 C818 1.574 . S
C810 C826 1.368 . S
H811 C819 0.950 . S
H812 C817 0.950 . S
H813 C818 0.949 . S
H814 C820 0.950 . S
H815 C821 0.950 . S
H816 C822 0.949 . S
C817 H812 0.950 . S
C817 C819 1.327 . S
C817 C823 1.429 . S
C818 C810 1.574 . S
C818 H813 0.949 . S
C818 C824 1.368 . S
C819 C803 1.349 . S
C819 H811 0.950 . S
C819 C817 1.327 . S
C820 C808 1.349 . S
C820 H814 0.950 . S
C820 C821 1.327 . S
C821 H815 0.950 . S
C821 C820 1.327 . S
C821 C825 1.429 . S
C822 C805 1.574 . S
C822 H816 0.949 . S
C822 C826 1.368 . S
C823 C804 1.429 . S
C823 C817 1.429 . S
C823 C824 1.523 . S
C824 C805 1.368 . S
C824 C818 1.368 . S
C824 C823 1.523 . S
C825 C809 1.429 . S
C825 C821 1.429 . S
C825 C826 1.523 . S
C826 C810 1.368 . S
C826 C822 1.368 . S
C826 C825 1.523 . S
H827 C802 0.950 . S
H828 C804 0.950 . S
H829 C805 0.949 . S
H830 C807 0.950 . S
H831 C809 0.950 . S
C832 C833 1.349 . S
C832 C834 1.327 . S
C832 H857 0.950 . S
C833 C832 1.349 . S
C833 C849 1.349 . S
C834 C832 1.327 . S
C834 C853 1.429 . S
C834 H858 0.950 . S
C835 C852 1.574 . S
C835 C854 1.368 . S
C835 H859 0.949 . S
H836 C840 0.949 . S
C837 C838 1.349 . S
C837 C839 1.327 . S
C837 H860 0.950 . S
C838 C837 1.349 . S
C838 C850 1.349 . S
C839 C837 1.327 . S
C839 C855 1.429 . S
C839 H861 0.950 . S
C840 H836 0.949 . S
C840 C848 1.574 . S
C840 C856 1.368 . S
H841 C849 0.950 . S
H842 C847 0.950 . S
H843 C848 0.949 . S
H844 C850 0.950 . S
H845 C851 0.950 . S
H846 C852 0.949 . S
C847 H842 0.950 . S
C847 C849 1.327 . S
C847 C853 1.429 . S
C848 C840 1.574 . S
C848 H843 0.949 . S
C848 C854 1.368 . S
C849 C833 1.349 . S
C849 H841 0.950 . S
C849 C847 1.327 . S
C850 C838 1.349 . S
C850 H844 0.950 . S
C850 C851 1.327 . S
C851 H845 0.950 . S
C851 C850 1.327 . S
C851 C855 1.429 . S
C852 C835 1.574 . S
C852 H846 0.949 . S
C852 C856 1.368 . S
C853 C834 1.429 . S
C853 C847 1.429 . S
C853 C854 1.523 . S
C854 C835 1.368 . S
C854 C848 1.368 . S
C854 C853 1.523 . S
C855 C839 1.429 . S
C855 C851 1.429 . S
C855 C856 1.523 . S
C856 C840 1.368 . S
C856 C852 1.368 . S
C856 C855 1.523 . S
H857 C832 0.950 . S
H858 C834 0.950 . S
H859 C835 0.949 . S
H860 C837 0.950 . S
H861 C839 0.950 . S
C862 C863 1.349 . S
C862 C864 1.327 . S
C862 H887 0.950 . S
C863 C862 1.349 . S
C863 C879 1.349 . S
C864 C862 1.327 . S
C864 C883 1.429 . S
C864 H888 0.950 . S
C865 C882 1.574 . S
C865 C884 1.368 . S
C865 H889 0.949 . S
H866 C870 0.949 . S
C867 C868 1.349 . S
C867 C869 1.327 . S
C867 H890 0.950 . S
C868 C867 1.349 . S
C868 C880 1.349 . S
C869 C867 1.327 . S
C869 C885 1.429 . S
C869 H891 0.950 . S
C870 H866 0.949 . S
C870 C878 1.574 . S
C870 C886 1.368 . S
H871 C879 0.950 . S
H872 C877 0.950 . S
H873 C878 0.949 . S
H874 C880 0.950 . S
H875 C881 0.950 . S
H876 C882 0.949 . S
C877 H872 0.950 . S
C877 C879 1.327 . S
C877 C883 1.429 . S
C878 C870 1.574 . S
C878 H873 0.949 . S
C878 C884 1.368 . S
C879 C863 1.349 . S
C879 H871 0.950 . S
C879 C877 1.327 . S
C880 C868 1.349 . S
C880 H874 0.950 . S
C880 C881 1.327 . S
C881 H875 0.950 . S
C881 C880 1.327 . S
C881 C885 1.429 . S
C882 C865 1.574 . S
C882 H876 0.949 . S
C882 C886 1.368 . S
C883 C864 1.429 . S
C883 C877 1.429 . S
C883 C884 1.523 . S
C884 C865 1.368 . S
C884 C878 1.368 . S
C884 C883 1.523 . S
C885 C869 1.429 . S
C885 C881 1.429 . S
C885 C886 1.523 . S
C886 C870 1.368 . S
C886 C882 1.368 . S
C886 C885 1.523 . S
H887 C862 0.950 . S
H888 C864 0.950 . S
H889 C865 0.949 . S
H890 C867 0.950 . S
H891 C869 0.950 . S
C892 C893 1.349 . S
C892 C894 1.327 . S
C892 H917 0.950 . S
C893 C892 1.349 . S
C893 C909 1.349 . S
C894 C892 1.327 . S
C894 C913 1.429 . S
C894 H918 0.950 . S
C895 C912 1.574 . S
C895 C914 1.368 . S
C895 H919 0.949 . S
H896 C900 0.949 . S
C897 C898 1.349 . S
C897 C899 1.327 . S
C897 H920 0.950 . S
C898 C897 1.349 . S
C898 C910 1.349 . S
C899 C897 1.327 . S
C899 C915 1.429 . S
C899 H921 0.950 . S
C900 H896 0.949 . S
C900 C908 1.574 . S
C900 C916 1.368 . S
H901 C909 0.950 . S
H902 C907 0.950 . S
H903 C908 0.949 . S
H904 C910 0.950 . S
H905 C911 0.950 . S
H906 C912 0.949 . S
C907 H902 0.950 . S
C907 C909 1.327 . S
C907 C913 1.429 . S
C908 C900 1.574 . S
C908 H903 0.949 . S
C908 C914 1.368 . S
C909 C893 1.349 . S
C909 H901 0.950 . S
C909 C907 1.327 . S
C910 C898 1.349 . S
C910 H904 0.950 . S
C910 C911 1.327 . S
C911 H905 0.950 . S
C911 C910 1.327 . S
C911 C915 1.429 . S
C912 C895 1.574 . S
C912 H906 0.949 . S
C912 C916 1.368 . S
C913 C894 1.429 . S
C913 C907 1.429 . S
C913 C914 1.523 . S
C914 C895 1.368 . S
C914 C908 1.368 . S
C914 C913 1.523 . S
C915 C899 1.429 . S
C915 C911 1.429 . S
C915 C916 1.523 . S
C916 C900 1.368 . S
C916 C912 1.368 . S
C916 C915 1.523 . S
H917 C892 0.950 . S
H918 C894 0.950 . S
H919 C895 0.949 . S
H920 C897 0.950 . S
H921 C899 0.950 . S
C922 C923 1.349 . S
C922 C924 1.327 . S
C922 H947 0.950 . S
C923 C922 1.349 . S
C923 C939 1.349 . S
C924 C922 1.327 . S
C924 C943 1.429 . S
C924 H948 0.950 . S
C925 C942 1.574 . S
C925 C944 1.368 . S
C925 H949 0.949 . S
H926 C930 0.949 . S
C927 C928 1.349 . S
C927 C929 1.327 . S
C927 H950 0.950 . S
C928 C927 1.349 . S
C928 C940 1.349 . S
C929 C927 1.327 . S
C929 C945 1.429 . S
C929 H951 0.950 . S
C930 H926 0.949 . S
C930 C938 1.574 . S
C930 C946 1.368 . S
H931 C939 0.950 . S
H932 C937 0.950 . S
H933 C938 0.949 . S
H934 C940 0.950 . S
H935 C941 0.950 . S
H936 C942 0.949 . S
C937 H932 0.950 . S
C937 C939 1.327 . S
C937 C943 1.429 . S
C938 C930 1.574 . S
C938 H933 0.949 . S
C938 C944 1.368 . S
C939 C923 1.349 . S
C939 H931 0.950 . S
C939 C937 1.327 . S
C940 C928 1.349 . S
C940 H934 0.950 . S
C940 C941 1.327 . S
C941 H935 0.950 . S
C941 C940 1.327 . S
C941 C945 1.429 . S
C942 C925 1.574 . S
C942 H936 0.949 . S
C942 C946 1.368 . S
C943 C924 1.429 . S
C943 C937 1.429 . S
C943 C944 1.523 . S
C944 C925 1.368 . S
C944 C938 1.368 . S
C944 C943 1.523 . S
C945 C929 1.429 . S
C945 C941 1.429 . S
C945 C946 1.523 . S
C946 C930 1.368 . S
C946 C942 1.368 . S
C946 C945 1.523 . S
H947 C922 0.950 . S
H948 C924 0.950 . S
H949 C925 0.949 . S
H950 C927 0.950 . S
H951 C929 0.950 . S
C952 C953 1.349 . S
C952 C954 1.327 . S
C952 H977 0.950 . S
C953 C952 1.349 . S
C953 C969 1.349 . S
C954 C952 1.327 . S
C954 C973 1.429 . S
C954 H978 0.950 . S
C955 C972 1.574 . S
C955 C974 1.368 . S
C955 H979 0.949 . S
H956 C960 0.949 . S
C957 C958 1.349 . S
C957 C959 1.327 . S
C957 H980 0.950 . S
C958 C957 1.349 . S
C958 C970 1.349 . S
C959 C957 1.327 . S
C959 C975 1.429 . S
C959 H981 0.950 . S
C960 H956 0.949 . S
C960 C968 1.574 . S
C960 C976 1.368 . S
H961 C969 0.950 . S
H962 C967 0.950 . S
H963 C968 0.949 . S
H964 C970 0.950 . S
H965 C971 0.950 . S
H966 C972 0.949 . S
C967 H962 0.950 . S
C967 C969 1.327 . S
C967 C973 1.429 . S
C968 C960 1.574 . S
C968 H963 0.949 . S
C968 C974 1.368 . S
C969 C953 1.349 . S
C969 H961 0.950 . S
C969 C967 1.327 . S
C970 C958 1.349 . S
C970 H964 0.950 . S
C970 C971 1.327 . S
C971 H965 0.950 . S
C971 C970 1.327 . S
C971 C975 1.429 . S
C972 C955 1.574 . S
C972 H966 0.949 . S
C972 C976 1.368 . S
C973 C954 1.429 . S
C973 C967 1.429 . S
C973 C974 1.523 . S
C974 C955 1.368 . S
C974 C968 1.368 . S
C974 C973 1.523 . S
C975 C959 1.429 . S
C975 C971 1.429 . S
C975 C976 1.523 . S
C976 C960 1.368 . S
C976 C972 1.368 . S
C976 C975 1.523 . S
H977 C952 0.950 . S
H978 C954 0.950 . S
H979 C955 0.949 . S
H980 C957 0.950 . S
H981 C959 0.950 . S
C982 C983 1.349 . S
C982 C984 1.327 . S
C982 H1007 0.950 . S
C983 C982 1.349 . S
C983 C999 1.349 . S
C984 C982 1.327 . S
C984 C1003 1.429 . S
C984 H1008 0.950 . S
C985 C1002 1.574 . S
C985 C1004 1.368 . S
C985 H1009 0.949 . S
H986 C990 0.949 . S
C987 C988 1.349 . S
C987 C989 1.327 . S
C987 H1010 0.950 . S
C988 C987 1.349 . S
C988 C1000 1.349 . S
C989 C987 1.327 . S
C989 C1005 1.429 . S
C989 H1011 0.950 . S
C990 H986 0.949 . S
C990 C998 1.574 . S
C990 C1006 1.368 . S
H991 C999 0.950 . S
H992 C997 0.950 . S
H993 C998 0.949 . S
H994 C1000 0.950 . S
H995 C1001 0.950 . S
H996 C1002 0.949 . S
C997 H992 0.950 . S
C997 C999 1.327 . S
C997 C1003 1.429 . S
C998 C990 1.574 . S
C998 H993 0.949 . S
C998 C1004 1.368 . S
C999 C983 1.349 . S
C999 H991 0.950 . S
C999 C997 1.327 . S
C1000 C988 1.349 . S
C1000 H994 0.950 . S
C1000 C1001 1.327 . S
C1001 H995 0.950 . S
C1001 C1000 1.327 . S
C1001 C1005 1.429 . S
C1002 C985 1.574 . S
C1002 H996 0.949 . S
C1002 C1006 1.368 . S
C1003 C984 1.429 . S
C1003 C997 1.429 . S
C1003 C1004 1.523 . S
C1004 C985 1.368 . S
C1004 C998 1.368 . S
C1004 C1003 1.523 . S
C1005 C989 1.429 . S
C1005 C1001 1.429 . S
C1005 C1006 1.523 . S
C1006 C990 1.368 . S
C1006 C1002 1.368 . S
C1006 C1005 1.523 . S
H1007 C982 0.950 . S
H1008 C984 0.950 . S
H1009 C985 0.949 . S
H1010 C987 0.950 . S
H1011 C989 0.950 . S
C1012 C1013 1.349 . S
C1012 C1014 1.327 . S
C1012 H1037 0.950 . S
C1013 C1012 1.349 . S
C1013 C1029 1.349 . S
C1014 C1012 1.327 . S
C1014 C1033 1.429 . S
C1014 H1038 0.950 . S
C1015 C1032 1.574 . S
C1015 C1034 1.368 . S
C1015 H1039 0.949 . S
H1016 C1020 0.949 . S
C1017 C1018 1.349 . S
C1017 C1019 1.327 . S
C1017 H1040 0.950 . S
C1018 C1017 1.349 . S
C1018 C1030 1.349 . S
C1019 C1017 1.327 . S
C1019 C1035 1.429 . S
C1019 H1041 0.950 . S
C1020 H1016 0.949 . S
C1020 C1028 1.574 . S
C1020 C1036 1.368 . S
H1021 C1029 0.950 . S
H1022 C1027 0.950 . S
H1023 C1028 0.949 . S
H1024 C1030 0.950 . S
H1025 C1031 0.950 . S
H1026 C1032 0.949 . S
C1027 H1022 0.950 . S
C1027 C1029 1.327 . S
C1027 C1033 1.429 . S
C1028 C1020 1.574 . S
C1028 H1023 0.949 . S
C1028 C1034 1.368 . S
C1029 C1013 1.349 . S
C1029 H1021 0.950 . S
C1029 C1027 1.327 . S
C1030 C1018 1.349 . S
C1030 H1024 0.950 . S
C1030 C1031 1.327 . S
C1031 H1025 0.950 . S
C1031 C1030 1.327 . S
C1031 C1035 1.429 . S
C1032 C1015 1.574 . S
C1032 H1026 0.949 . S
C1032 C1036 1.368 . S
C1033 C1014 1.429 . S
C1033 C1027 1.429 . S
C1033 C1034 1.523 . S
C1034 C1015 1.368 . S
C1034 C1028 1.368 . S
C1034 C1033 1.523 . S
C1035 C1019 1.429 . S
C1035 C1031 1.429 . S
C1035 C1036 1.523 . S
C1036 C1020 1.368 . S
C1036 C1032 1.368 . S
C1036 C1035 1.523 . S
H1037 C1012 0.950 . S
H1038 C1014 0.950 . S
H1039 C1015 0.949 . S
H1040 C1017 0.950 . S
H1041 C1019 0.950 . S
C1042 C1043 1.349 . S
C1042 C1044 1.327 . S
C1042 H1067 0.950 . S
C1043 C1042 1.349 . S
C1043 C1059 1.349 . S
C1044 C1042 1.327 . S
C1044 C1063 1.429 . S
C1044 H1068 0.950 . S
C1045 C1062 1.574 . S
C1045 C1064 1.368 . S
C1045 H1069 0.949 . S
H1046 C1050 0.949 . S
C1047 C1048 1.349 . S
C1047 C1049 1.327 . S
C1047 H1070 0.950 . S
C1048 C1047 1.349 . S
C1048 C1060 1.349 . S
C1049 C1047 1.327 . S
C1049 C1065 1.429 . S
C1049 H1071 0.950 . S
C1050 H1046 0.949 . S
C1050 C1058 1.574 . S
C1050 C1066 1.368 . S
H1051 C1059 0.950 . S
H1052 C1057 0.950 . S
H1053 C1058 0.949 . S
H1054 C1060 0.950 . S
H1055 C1061 0.950 . S
H1056 C1062 0.949 . S
C1057 H1052 0.950 . S
C1057 C1059 1.327 . S
C1057 C1063 1.429 . S
C1058 C1050 1.574 . S
C1058 H1053 0.949 . S
C1058 C1064 1.368 . S
C1059 C1043 1.349 . S
C1059 H1051 0.950 . S
C1059 C1057 1.327 . S
C1060 C1048 1.349 . S
C1060 H1054 0.950 . S
C1060 C1061 1.327 . S
C1061 H1055 0.950 . S
C1061 C1060 1.327 . S
C1061 C1065 1.429 . S
C1062 C1045 1.574 . S
C1062 H1056 0.949 . S
C1062 C1066 1.368 . S
C1063 C1044 1.429 . S
C1063 C1057 1.429 . S
C1063 C1064 1.523 . S
C1064 C1045 1.368 . S
C1064 C1058 1.368 . S
C1064 C1063 1.523 . S
C1065 C1049 1.429 . S
C1065 C1061 1.429 . S
C1065 C1066 1.523 . S
C1066 C1050 1.368 . S
C1066 C1062 1.368 . S
C1066 C1065 1.523 . S
H1067 C1042 0.950 . S
H1068 C1044 0.950 . S
H1069 C1045 0.949 . S
H1070 C1047 0.950 . S
H1071 C1049 0.950 . S
C1072 C1073 1.349 . S
C1072 C1074 1.327 . S
C1072 H1097 0.950 . S
C1073 C1072 1.349 . S
C1073 C1089 1.349 . S
C1074 C1072 1.327 . S
C1074 C1093 1.429 . S
C1074 H1098 0.950 . S
C1075 C1092 1.574 . S
C1075 C1094 1.368 . S
C1075 H1099 0.949 . S
H1076 C1080 0.949 . S
C1077 C1078 1.349 . S
C1077 C1079 1.327 . S
C1077 H1100 0.950 . S
C1078 C1077 1.349 . S
C1078 C1090 1.349 . S
C1079 C1077 1.327 . S
C1079 C1095 1.429 . S
C1079 H1101 0.950 . S
C1080 H1076 0.949 . S
C1080 C1088 1.574 . S
C1080 C1096 1.368 . S
H1081 C1089 0.950 . S
H1082 C1087 0.950 . S
H1083 C1088 0.949 . S
H1084 C1090 0.950 . S
H1085 C1091 0.950 . S
H1086 C1092 0.949 . S
C1087 H1082 0.950 . S
C1087 C1089 1.327 . S
C1087 C1093 1.429 . S
C1088 C1080 1.574 . S
C1088 H1083 0.949 . S
C1088 C1094 1.368 . S
C1089 C1073 1.349 . S
C1089 H1081 0.950 . S
C1089 C1087 1.327 . S
C1090 C1078 1.349 . S
C1090 H1084 0.950 . S
C1090 C1091 1.327 . S
C1091 H1085 0.950 . S
C1091 C1090 1.327 . S
C1091 C1095 1.429 . S
C1092 C1075 1.574 . S
C1092 H1086 0.949 . S
C1092 C1096 1.368 . S
C1093 C1074 1.429 . S
C1093 C1087 1.429 . S
C1093 C1094 1.523 . S
C1094 C1075 1.368 . S
C1094 C1088 1.368 . S
C1094 C1093 1.523 . S
C1095 C1079 1.429 . S
C1095 C1091 1.429 . S
C1095 C1096 1.523 . S
C1096 C1080 1.368 . S
C1096 C1092 1.368 . S
C1096 C1095 1.523 . S
H1097 C1072 0.950 . S
H1098 C1074 0.950 . S
H1099 C1075 0.949 . S
H1100 C1077 0.950 . S
H1101 C1079 0.950 . S
C1102 C1103 1.349 . S
C1102 C1104 1.327 . S
C1102 H1127 0.950 . S
C1103 C1102 1.349 . S
C1103 C1119 1.349 . S
C1104 C1102 1.327 . S
C1104 C1123 1.429 . S
C1104 H1128 0.950 . S
C1105 C1122 1.574 . S
C1105 C1124 1.368 . S
C1105 H1129 0.949 . S
H1106 C1110 0.949 . S
C1107 C1108 1.349 . S
C1107 C1109 1.327 . S
C1107 H1130 0.950 . S
C1108 C1107 1.349 . S
C1108 C1120 1.349 . S
C1109 C1107 1.327 . S
C1109 C1125 1.429 . S
C1109 H1131 0.950 . S
C1110 H1106 0.949 . S
C1110 C1118 1.574 . S
C1110 C1126 1.368 . S
H1111 C1119 0.950 . S
H1112 C1117 0.950 . S
H1113 C1118 0.949 . S
H1114 C1120 0.950 . S
H1115 C1121 0.950 . S
H1116 C1122 0.949 . S
C1117 H1112 0.950 . S
C1117 C1119 1.327 . S
C1117 C1123 1.429 . S
C1118 C1110 1.574 . S
C1118 H1113 0.949 . S
C1118 C1124 1.368 . S
C1119 C1103 1.349 . S
C1119 H1111 0.950 . S
C1119 C1117 1.327 . S
C1120 C1108 1.349 . S
C1120 H1114 0.950 . S
C1120 C1121 1.327 . S
C1121 H1115 0.950 . S
C1121 C1120 1.327 . S
C1121 C1125 1.429 . S
C1122 C1105 1.574 . S
C1122 H1116 0.949 . S
C1122 C1126 1.368 . S
C1123 C1104 1.429 . S
C1123 C1117 1.429 . S
C1123 C1124 1.523 . S
C1124 C1105 1.368 . S
C1124 C1118 1.368 . S
C1124 C1123 1.523 . S
C1125 C1109 1.429 . S
C1125 C1121 1.429 . S
C1125 C1126 1.523 . S
C1126 C1110 1.368 . S
C1126 C1122 1.368 . S
C1126 C1125 1.523 . S
H1127 C1102 0.950 . S
H1128 C1104 0.950 . S
H1129 C1105 0.949 . S
H1130 C1107 0.950 . S
H1131 C1109 0.950 . S
C1132 C1133 1.349 . S
C1132 C1134 1.327 . S
C1132 H1157 0.950 . S
C1133 C1132 1.349 . S
C1133 C1149 1.349 . S
C1134 C1132 1.327 . S
C1134 C1153 1.429 . S
C1134 H1158 0.950 . S
C1135 C1152 1.574 . S
C1135 C1154 1.368 . S
C1135 H1159 0.949 . S
H1136 C1140 0.949 . S
C1137 C1138 1.349 . S
C1137 C1139 1.327 . S
C1137 H1160 0.950 . S
C1138 C1137 1.349 . S
C1138 C1150 1.349 . S
C1139 C1137 1.327 . S
C1139 C1155 1.429 . S
C1139 H1161 0.950 . S
C1140 H1136 0.949 . S
C1140 C1148 1.574 . S
C1140 C1156 1.368 . S
H1141 C1149 0.950 . S
H1142 C1147 0.950 . S
H1143 C1148 0.949 . S
H1144 C1150 0.950 . S
H1145 C1151 0.950 . S
H1146 C1152 0.949 . S
C1147 H1142 0.950 . S
C1147 C1149 1.327 . S
C1147 C1153 1.429 . S
C1148 C1140 1.574 . S
C1148 H1143 0.949 . S
C1148 C1154 1.368 . S
C1149 C1133 1.349 . S
C1149 H1141 0.950 . S
C1149 C1147 1.327 . S
C1150 C1138 1.349 . S
C1150 H1144 0.950 . S
C1150 C1151 1.327 . S
C1151 H1145 0.950 . S
C1151 C1150 1.327 . S
C1151 C1155 1.429 . S
C1152 C1135 1.574 . S
C1152 H1146 0.949 . S
C1152 C1156 1.368 . S
C1153 C1134 1.429 . S
C1153 C1147 1.429 . S
C1153 C1154 1.523 . S
C1154 C1135 1.368 . S
C1154 C1148 1.368 . S
C1154 C1153 1.523 . S
C1155 C1139 1.429 . S
C1155 C1151 1.429 . S
C1155 C1156 1.523 . S
C1156 C1140 1.368 . S
C1156 C1152 1.368 . S
C1156 C1155 1.523 . S
H1157 C1132 0.950 . S
H1158 C1134 0.950 . S
H1159 C1135 0.949 . S
H1160 C1137 0.950 . S
H1161 C1139 0.950 . S
C1162 C1163 1.349 . S
C1162 C1164 1.327 . S
C1162 H1187 0.950 . S
C1163 C1162 1.349 . S
C1163 C1179 1.349 . S
C1164 C1162 1.327 . S
C1164 C1183 1.429 . S
C1164 H1188 0.950 . S
C1165 C1182 1.574 . S
C1165 C1184 1.368 . S
C1165 H1189 0.949 . S
H1166 C1170 0.949 . S
C1167 C1168 1.349 . S
C1167 C1169 1.327 . S
C1167 H1190 0.950 . S
C1168 C1167 1.349 . S
C1168 C1180 1.349 . S
C1169 C1167 1.327 . S
C1169 C1185 1.429 . S
C1169 H1191 0.950 . S
C1170 H1166 0.949 . S
C1170 C1178 1.574 . S
C1170 C1186 1.368 . S
H1171 C1179 0.950 . S
H1172 C1177 0.950 . S
H1173 C1178 0.949 . S
H1174 C1180 0.950 . S
H1175 C1181 0.950 . S
H1176 C1182 0.949 . S
C1177 H1172 0.950 . S
C1177 C1179 1.327 . S
C1177 C1183 1.429 . S
C1178 C1170 1.574 . S
C1178 H1173 0.949 . S
C1178 C1184 1.368 . S
C1179 C1163 1.349 . S
C1179 H1171 0.950 . S
C1179 C1177 1.327 . S
C1180 C1168 1.349 . S
C1180 H1174 0.950 . S
C1180 C1181 1.327 . S
C1181 H1175 0.950 . S
C1181 C1180 1.327 . S
C1181 C1185 1.429 . S
C1182 C1165 1.574 . S
C1182 H1176 0.949 . S
C1182 C1186 1.368 . S
C1183 C1164 1.429 . S
C1183 C1177 1.429 . S
C1183 C1184 1.523 . S
C1184 C1165 1.368 . S
C1184 C1178 1.368 . S
C1184 C1183 1.523 . S
C1185 C1169 1.429 . S
C1185 C1181 1.429 . S
C1185 C1186 1.523 . S
C1186 C1170 1.368 . S
C1186 C1182 1.368 . S
C1186 C1185 1.523 . S
H1187 C1162 0.950 . S
H1188 C1164 0.950 . S
H1189 C1165 0.949 . S
H1190 C1167 0.950 . S
H1191 C1169 0.950 . S
C1192 C1193 1.349 . S
C1192 C1194 1.327 . S
C1192 H1217 0.950 . S
C1193 C1192 1.349 . S
C1193 C1209 1.349 . S
C1194 C1192 1.327 . S
C1194 C1213 1.429 . S
C1194 H1218 0.950 . S
C1195 C1212 1.574 1_565 S
C1195 C1214 1.368 . S
C1195 H1219 0.949 . S
H1196 C1200 0.949 . S
C1197 C1198 1.349 . S
C1197 C1199 1.327 . S
C1197 H1220 0.950 . S
C1198 C1197 1.349 . S
C1198 C1210 1.349 . S
C1199 C1197 1.327 . S
C1199 C1215 1.429 . S
C1199 H1221 0.950 . S
C1200 H1196 0.949 . S
C1200 C1208 1.574 . S
C1200 C1216 1.368 . S
H1201 C1209 0.950 . S
H1202 C1207 0.950 . S
H1203 C1208 0.949 . S
H1204 C1210 0.950 . S
H1205 C1211 0.950 . S
H1206 C1212 0.949 . S
C1207 H1202 0.950 . S
C1207 C1209 1.327 . S
C1207 C1213 1.429 . S
C1208 C1200 1.574 . S
C1208 H1203 0.949 . S
C1208 C1214 1.368 1_545 S
C1209 C1193 1.349 . S
C1209 H1201 0.950 . S
C1209 C1207 1.327 . S
C1210 C1198 1.349 . S
C1210 H1204 0.950 . S
C1210 C1211 1.327 . S
C1211 H1205 0.950 . S
C1211 C1210 1.327 . S
C1211 C1215 1.429 . S
C1212 C1195 1.574 1_545 S
C1212 H1206 0.949 . S
C1212 C1216 1.368 . S
C1213 C1194 1.429 . S
C1213 C1207 1.429 . S
C1213 C1214 1.523 . S
C1214 C1195 1.368 . S
C1214 C1208 1.368 1_565 S
C1214 C1213 1.523 . S
C1215 C1199 1.429 . S
C1215 C1211 1.429 . S
C1215 C1216 1.523 . S
C1216 C1200 1.368 . S
C1216 C1212 1.368 . S
C1216 C1215 1.523 . S
H1217 C1192 0.950 . S
H1218 C1194 0.950 . S
H1219 C1195 0.949 . S
H1220 C1197 0.950 . S
H1221 C1199 0.950 . S
C1222 C1223 1.349 . S
C1222 C1224 1.327 . S
C1222 H1247 0.950 . S
C1223 C1222 1.349 . S
C1223 C1239 1.349 . S
C1224 C1222 1.327 . S
C1224 C1243 1.429 . S
C1224 H1248 0.950 . S
C1225 C1242 1.574 . S
C1225 C1244 1.368 . S
C1225 H1249 0.949 . S
H1226 C1230 0.949 . S
C1227 C1228 1.349 . S
C1227 C1229 1.327 . S
C1227 H1250 0.950 . S
C1228 C1227 1.349 . S
C1228 C1240 1.349 . S
C1229 C1227 1.327 . S
C1229 C1245 1.429 . S
C1229 H1251 0.950 . S
C1230 H1226 0.949 . S
C1230 C1238 1.574 . S
C1230 C1246 1.368 . S
H1231 C1239 0.950 . S
H1232 C1237 0.950 . S
H1233 C1238 0.949 . S
H1234 C1240 0.950 . S
H1235 C1241 0.950 . S
H1236 C1242 0.949 . S
C1237 H1232 0.950 . S
C1237 C1239 1.327 . S
C1237 C1243 1.429 . S
C1238 C1230 1.574 . S
C1238 H1233 0.949 . S
C1238 C1244 1.368 . S
C1239 C1223 1.349 . S
C1239 H1231 0.950 . S
C1239 C1237 1.327 . S
C1240 C1228 1.349 . S
C1240 H1234 0.950 . S
C1240 C1241 1.327 . S
C1241 H1235 0.950 . S
C1241 C1240 1.327 . S
C1241 C1245 1.429 . S
C1242 C1225 1.574 . S
C1242 H1236 0.949 . S
C1242 C1246 1.368 . S
C1243 C1224 1.429 . S
C1243 C1237 1.429 . S
C1243 C1244 1.523 . S
C1244 C1225 1.368 . S
C1244 C1238 1.368 . S
C1244 C1243 1.523 . S
C1245 C1229 1.429 . S
C1245 C1241 1.429 . S
C1245 C1246 1.523 . S
C1246 C1230 1.368 . S
C1246 C1242 1.368 . S
C1246 C1245 1.523 . S
H1247 C1222 0.950 . S
H1248 C1224 0.950 . S
H1249 C1225 0.949 . S
H1250 C1227 0.950 . S
H1251 C1229 0.950 . S
C538 C127 1.606 . S
C533 C5 1.457 . S
C568 C231 2.175 . S
C563 C16 1.814 . S
C598 C151 1.538 . S
C593 C30 1.571 . S
C628 C213 1.419 . S
C623 C40 1.416 . S
C658 C287 1.543 . S
C653 C8 1.568 . S
C688 C349 1.767 1_556 S
C683 C18 1.778 . S
C713 C29 1.279 . S
C718 C423 1.248 . S
C748 C509 1.220 . S
C743 C38 1.151 . S
C778 C305 2.515 . S
C773 C19 2.507 . S
C803 C27 1.637 . S
C808 C373 1.849 . S
C838 C447 1.296 . S
C833 C41 1.363 . S
C868 C527 1.704 . S
C863 C7 1.650 . S
C893 C52 1.462 . S
C898 C225 1.446 . S
C928 C139 1.676 . S
C923 C62 1.735 . S
C953 C74 1.143 . S
C958 C201 1.106 . S
C983 C82 1.731 . S
C988 C157 2.041 . S
C1018 C453 1.773 . S
C1013 C51 1.736 . S
C1048 C521 1.124 . S
C1043 C60 1.022 . S
C1078 C299 1.678 . S
C1073 C71 1.540 . S
C1103 C84 2.357 . S
C1108 C379 2.449 . S
C1138 C435 1.130 . S
C1133 C63 1.132 . S
C1168 C497 0.901 . S
C1163 C73 0.914 . S
C1198 C275 1.871 . S
C1193 C85 1.912 . S
C1223 C49 1.232 . S
C1228 C361 1.412 . S
