# Generated by pormake.
# Topology zzz, (3,6)-cn, num edge types: 1
# Building blocks:
#     Node 0, Type 0, BuildingBlock: BETDIP_clean_linker_0, # of connection points: 3
#     Node 1, Type 0, BuildingBlock: BETDIP_clean_linker_0, # of connection points: 3
#     Node 2, Type 0, BuildingBlock: BETDIP_clean_linker_0, # of connection points: 3
#     Node 3, Type 0, BuildingBlock: BETDIP_clean_linker_0, # of connection points: 3
#     Node 4, Type 0, BuildingBlock: BETDIP_clean_linker_0, # of connection points: 3
#     Node 5, Type 0, BuildingBlock: BETDIP_clean_linker_0, # of connection points: 3
#     Node 6, Type 0, BuildingBlock: BETDIP_clean_linker_0, # of connection points: 3
#     Node 7, Type 0, BuildingBlock: BETDIP_clean_linker_0, # of connection points: 3
#     Node 8, Type 1, BuildingBlock: KUMBUR_clean_sbu_1, # of connection points: 6
#     Node 9, Type 1, BuildingBlock: KUMBUR_clean_sbu_1, # of connection points: 6
#     Node 10, Type 1, BuildingBlock: KUMBUR_clean_sbu_1, # of connection points: 6
#     Node 11, Type 1, BuildingBlock: KUMBUR_clean_sbu_1, # of connection points: 6
#     Edge 12, Type (0, 1), BuildingBlock: TEMPAE_clean_linker_10, # of connection points: 2
#     Edge 13, Type (0, 1), BuildingBlock: TEMPAE_clean_linker_10, # of connection points: 2
#     Edge 14, Type (0, 1), BuildingBlock: TEMPAE_clean_linker_10, # of connection points: 2
#     Edge 15, Type (0, 1), BuildingBlock: TEMPAE_clean_linker_10, # of connection points: 2
#     Edge 16, Type (0, 1), BuildingBlock: TEMPAE_clean_linker_10, # of connection points: 2
#     Edge 17, Type (0, 1), BuildingBlock: TEMPAE_clean_linker_10, # of connection points: 2
#     Edge 18, Type (0, 1), BuildingBlock: TEMPAE_clean_linker_10, # of connection points: 2
#     Edge 19, Type (0, 1), BuildingBlock: TEMPAE_clean_linker_10, # of connection points: 2
#     Edge 20, Type (0, 1), BuildingBlock: TEMPAE_clean_linker_10, # of connection points: 2
#     Edge 21, Type (0, 1), BuildingBlock: TEMPAE_clean_linker_10, # of connection points: 2
#     Edge 22, Type (0, 1), BuildingBlock: TEMPAE_clean_linker_10, # of connection points: 2
#     Edge 23, Type (0, 1), BuildingBlock: TEMPAE_clean_linker_10, # of connection points: 2
#     Edge 24, Type (0, 1), BuildingBlock: TEMPAE_clean_linker_10, # of connection points: 2
#     Edge 25, Type (0, 1), BuildingBlock: TEMPAE_clean_linker_10, # of connection points: 2
#     Edge 26, Type (0, 1), BuildingBlock: TEMPAE_clean_linker_10, # of connection points: 2
#     Edge 27, Type (0, 1), BuildingBlock: TEMPAE_clean_linker_10, # of connection points: 2
#     Edge 28, Type (0, 1), BuildingBlock: TEMPAE_clean_linker_10, # of connection points: 2
#     Edge 29, Type (0, 1), BuildingBlock: TEMPAE_clean_linker_10, # of connection points: 2
#     Edge 30, Type (0, 1), BuildingBlock: TEMPAE_clean_linker_10, # of connection points: 2
#     Edge 31, Type (0, 1), BuildingBlock: TEMPAE_clean_linker_10, # of connection points: 2
#     Edge 32, Type (0, 1), BuildingBlock: TEMPAE_clean_linker_10, # of connection points: 2
#     Edge 33, Type (0, 1), BuildingBlock: TEMPAE_clean_linker_10, # of connection points: 2
#     Edge 34, Type (0, 1), BuildingBlock: TEMPAE_clean_linker_10, # of connection points: 2
#     Edge 35, Type (0, 1), BuildingBlock: TEMPAE_clean_linker_10, # of connection points: 2
# Relax obj value: 0.180
# Max RMSD: 0.103
# Mean RMSD: 0.080
data_MOF--net-zzz--node1-KUMBUR_clean_sbu_1--node2-BETDIP_clean_linker_0--edge1-TEMPAE_clean_linker_10
_symmetry_space_group_name_H-M    P1
_symmetry_Int_Tables_number       1
_symmetry_cell_setting            triclinic
loop_
_symmetry_equiv_pos_as_xyz
'x, y, z'
_cell_length_a     50.741137
_cell_length_b     50.907893
_cell_length_c     15.894235
_cell_angle_alpha  89.992438
_cell_angle_beta   89.786391
_cell_angle_gamma 90.14502
loop_
_atom_site_label
_atom_site_type_symbol
_atom_site_fract_x
_atom_site_fract_y
_atom_site_fract_z
_atom_type_partial_charge
H0 H 0.77494 0.53837 0.33017 0.0
H1 H 0.7641 0.57616 0.09139 0.0
H2 H 0.83461 0.5904 0.23141 0.0
H3 H 0.72227 0.58611 0.15556 0.0
C4 C 0.71809 0.56542 0.16628 0.0
C5 C 0.78181 0.55207 0.2828 0.0
C6 C 0.80806 0.56228 0.28674 0.0
C7 C 0.76474 0.5594 0.21522 0.0
C8 C 0.77545 0.57417 0.1485 0.0
C9 C 0.80126 0.58401 0.1514 0.0
C10 C 0.81562 0.5808 0.22576 0.0
N11 N 0.73791 0.55014 0.20866 0.0
H12 H 1.01266 0.7806 0.35779 0.0
H13 H 0.98451 0.77439 0.10388 0.0
H14 H 0.97577 0.84684 0.23788 0.0
H15 H 0.9633 0.73549 0.17483 0.0
C16 C 0.98326 0.72837 0.18443 0.0
C17 C 1.00254 0.7892 0.3047 0.0
C18 C 0.99627 0.81657 0.30488 0.0
C19 C 0.99589 0.77324 0.23366 0.0
C20 C 0.98592 0.78562 0.16148 0.0
C21 C 0.97999 0.81247 0.16083 0.0
C22 C 0.98229 0.82659 0.23605 0.0
N23 N 1.00086 0.74537 0.2301 0.0
H24 H 0.77288 0.02359 0.37073 0.0
H25 H 0.77311 0.99386 0.11513 0.0
H26 H 0.7022 0.99199 0.26014 0.0
H27 H 0.81422 0.97434 0.18674 0.0
C28 C 0.8213 0.9945 0.18968 0.0
C29 C 0.76274 1.01459 0.3183 0.0
C30 C 0.73537 1.0081 0.32578 0.0
C31 C 0.77701 1.00832 0.24276 0.0
C32 C 0.76318 0.99734 0.17457 0.0
C33 C 0.73646 0.99143 0.18176 0.0
C34 C 0.72308 0.99638 0.25681 0.0
N35 N 0.80487 1.01311 0.23324 0.0
H36 H 0.52727 0.77651 0.34506 0.0
H37 H 0.57573 0.78808 0.12455 0.0
H38 H 0.57486 0.71347 0.25123 0.0
H39 H 0.57778 0.83258 0.21202 0.0
C40 C 0.55715 0.83313 0.19379 0.0
C41 C 0.5417 0.7692 0.30056 0.0
C42 C 0.55182 0.74327 0.30963 0.0
C43 C 0.55097 0.78584 0.23433 0.0
C44 C 0.56934 0.77578 0.17632 0.0
C45 C 0.57749 0.74946 0.1796 0.0
C46 C 0.56933 0.73398 0.24823 0.0
N47 N 0.54058 0.81178 0.22079 0.0
H48 H 0.27243 0.51459 0.02979 0.0
H49 H 0.28039 0.46903 0.25684 0.0
H50 H 0.20399 0.48132 0.14896 0.0
H51 H 0.30195 0.51125 0.28716 0.0
C52 C 0.31666 0.50681 0.23926 0.0
C53 C 0.26378 0.50242 0.0785 0.0
C54 C 0.23606 0.49748 0.07863 0.0
C55 C 0.27984 0.49289 0.14556 0.0
C56 C 0.26805 0.47722 0.20812 0.0
C57 C 0.24066 0.47405 0.21329 0.0
C58 C 0.22521 0.48338 0.14638 0.0
N59 N 0.30701 0.50065 0.15634 0.0
H60 H 0.04709 0.28501 0.02115 0.0
H61 H 0.03424 0.29322 0.28885 0.0
H62 H 0.02982 0.21718 0.17512 0.0
H63 H 1.00842 0.32945 0.22486 0.0
C64 C 0.02691 0.33769 0.20216 0.0
C65 C 0.04295 0.27639 0.08206 0.0
C66 C 0.03911 0.24865 0.08925 0.0
C67 C 0.04068 0.29288 0.15457 0.0
C68 C 0.03561 0.28116 0.2328 0.0
C69 C 0.03152 0.25419 0.23983 0.0
C70 C 0.03322 0.23814 0.16862 0.0
N71 N 0.04327 0.32102 0.15085 0.0
H72 H 0.26221 0.05343 0.02627 0.0
H73 H 0.25381 0.01839 0.27277 0.0
H74 H 0.32669 1.01111 0.13791 0.0
H75 H 0.2076 1.00847 0.16916 0.0
C76 C 0.20684 0.02907 0.18678 0.0
C77 C 0.27037 0.04218 0.07773 0.0
C78 C 0.2966 0.03223 0.07163 0.0
C79 C 0.25441 0.03644 0.14999 0.0
C80 C 0.26539 0.02203 0.21651 0.0
C81 C 0.29159 1.01364 0.21312 0.0
C82 C 0.3066 0.01833 0.14052 0.0
N83 N 0.2279 0.04593 0.15904 0.0
H84 H 0.49527 0.28048 0.07038 0.0
H85 H 0.56706 0.26014 0.2012 0.0
H86 H 0.56409 0.32956 0.04948 0.0
H87 H 0.55212 0.21769 0.15363 0.0
C88 C 0.53338 0.21945 0.18654 0.0
C89 C 0.51579 0.28422 0.08461 0.0
C90 C 0.52844 0.30714 0.05176 0.0
C91 C 0.5301 0.26616 0.13616 0.0
C92 C 0.55638 0.27234 0.15716 0.0
C93 C 0.56869 0.29494 0.1255 0.0
C94 C 0.55481 0.31158 0.0716 0.0
N95 N 0.51812 0.24274 0.17071 0.0
Tb96 Tb 0.99326 0.04307 0.65007 0.0
C97 C 0.09599 0.05984 0.81637 0.0
N98 N 0.08966 0.03853 0.7695 0.0
C99 C 0.13046 0.04303 0.69352 0.0
C100 C 0.11877 0.07487 0.79961 0.0
C101 C 0.10789 0.02854 0.71463 0.0
C102 C 0.13549 0.06681 0.73437 0.0
C103 C 0.08893 0.08392 0.94558 0.0
C104 C 0.0816 0.06415 0.88829 0.0
C105 C 0.11011 0.10066 0.92552 0.0
C106 C 0.12505 0.09613 0.85243 0.0
Tb107 Tb 0.05007 0.0185 0.80158 0.0
N108 N 0.06179 0.04716 0.90563 0.0
C109 C 0.07556 0.08536 0.02269 0.0
C110 C 0.04975 0.04733 0.98265 0.0
C111 C 0.05625 0.06661 0.04202 0.0
H112 H 0.10497 1.00943 0.68664 0.0
H113 H 0.04625 0.06712 0.10226 0.0
H114 H 0.9458 0.99886 0.65469 0.0
H115 H 0.02192 0.10994 0.40111 0.0
H116 H 0.03465 0.03301 0.99728 0.0
H117 H 0.08056 0.10027 0.06862 0.0
H118 H 0.01745 0.095 0.54854 0.0
H119 H 0.14417 0.03557 0.64708 0.0
H120 H 0.11588 0.11627 0.96797 0.0
H121 H 0.14221 0.10825 0.83988 0.0
H122 H 0.91864 0.97406 0.55348 0.0
H123 H 0.15322 0.07776 0.71922 0.0
H124 H 1.00176 0.08423 0.28617 0.0
N125 N 0.96654 0.02024 0.56053 0.0
C126 C 0.96864 0.02576 0.4777 0.0
C127 C 0.93272 0.98849 0.53114 0.0
C128 C 0.95362 1.01218 0.41744 0.0
C129 C 0.94805 1.00269 0.5884 0.0
C130 C 0.93587 0.99291 0.445 0.0
N131 N 0.99615 0.06037 0.51684 0.0
C132 C 1.00863 0.08355 0.49884 0.0
C133 C 0.98568 0.05468 0.37004 0.0
C134 C 0.9842 0.04665 0.45476 0.0
C135 C 0.99997 0.07743 0.35056 0.0
C136 C 1.01122 0.0921 0.41545 0.0
H137 H 0.92394 0.98199 0.40064 0.0
H138 H 0.94466 1.00864 0.28565 0.0
H139 H 0.97307 0.04603 0.24286 0.0
O140 O 0.95787 0.06376 0.63315 0.0
O141 O 0.99994 1.00004 0.63849 0.0
O142 O 0.04003 0.98925 0.70174 0.0
O143 O 0.97584 0.06176 0.75473 0.0
O144 O 0.03397 0.05127 0.60552 0.0
O145 O 0.05835 0.01805 0.66493 0.0
O146 O 0.04113 0.98421 0.86906 0.0
O147 O 0.02787 0.05515 0.82314 0.0
O148 O 0.02261 0.07221 0.69316 0.0
O149 O 0.08078 0.99892 0.8643 0.0
O150 O 1.01058 0.02152 0.85924 0.0
O151 O 0.9857 1.01233 0.74453 0.0
C152 C 0.01938 0.98329 0.65391 0.0
C153 C 0.95071 0.09907 0.72481 0.0
C154 C 0.96167 0.14509 0.69789 0.0
C155 C 0.93684 0.1521 0.73158 0.0
C156 C 0.92636 0.10645 0.75845 0.0
C157 C 0.91966 0.13295 0.76308 0.0
C158 C 0.96867 0.11829 0.69879 0.0
C159 C 0.05461 0.03559 0.6052 0.0
C160 C 0.95654 0.07127 0.71127 0.0
C161 C 0.95596 0.01909 0.33238 0.0
C162 C 0.97204 0.04031 0.30844 0.0
C163 C 0.02854 0.07561 0.77278 0.0
C164 C 0.07473 0.95333 0.84382 0.0
C165 C 0.06292 0.91026 0.78718 0.0
C166 C 0.08897 0.90695 0.75904 0.0
C167 C 0.10067 0.94979 0.81452 0.0
C168 C 0.05622 0.93327 0.83092 0.0
C169 C 0.10769 0.92668 0.77259 0.0
C170 C 0.98766 1.01535 0.82627 0.0
C171 C 0.06593 0.97866 0.87981 0.0
H172 H 0.9299 0.17214 0.73105 0.0
H173 H 0.91236 0.09172 0.77951 0.0
H174 H 0.90064 0.13862 0.78811 0.0
H175 H 0.98767 0.11177 0.6766 0.0
H176 H 0.09483 0.8892 0.72655 0.0
H177 H 0.11542 0.96497 0.8228 0.0
H178 H 0.03641 0.93559 0.85553 0.0
H179 H 0.12768 0.92411 0.75012 0.0
Tb180 Tb 0.53095 0.05251 0.80478 0.0
C181 C 0.52504 0.94689 0.67053 0.0
N182 N 0.53487 0.96932 0.63529 0.0
C183 C 0.57458 0.94629 0.5979 0.0
C184 C 0.54007 0.92361 0.67331 0.0
C185 C 0.5587 0.96866 0.59464 0.0
C186 C 0.56539 0.92377 0.63839 0.0
C187 C 0.48832 0.924 0.73662 0.0
C188 C 0.49943 0.94696 0.70179 0.0
C189 C 0.50337 0.90096 0.74036 0.0
C190 C 0.52923 0.9008 0.70932 0.0
Tb191 Tb 0.50566 1.0038 0.63083 0.0
N192 N 0.48539 0.96964 0.69784 0.0
C193 C 0.46223 0.92475 0.76538 0.0
C194 C 0.45951 0.97014 0.72207 0.0
C195 C 0.4477 0.94786 0.75737 0.0
H196 H 0.56518 0.98466 0.55559 0.0
H197 H 0.4273 0.94845 0.77743 0.0
H198 H 0.48476 0.09819 0.80072 0.0
H199 H 0.63496 0.05941 0.87061 0.0
H200 H 0.44783 0.98759 0.71367 0.0
H201 H 0.45298 0.90748 0.79243 0.0
H202 H 0.5919 0.03697 0.8592 0.0
H203 H 0.5936 0.9462 0.56679 0.0
H204 H 0.49506 0.88306 0.76611 0.0
H205 H 0.54054 0.8828 0.71224 0.0
H206 H 0.48258 0.14668 0.79093 0.0
H207 H 0.57759 0.90634 0.63968 0.0
H208 H 0.63822 0.1073 0.84527 0.0
N209 N 0.52666 0.0971 0.79685 0.0
C210 C 0.54932 0.11122 0.79937 0.0
C211 C 0.5015 0.13693 0.79257 0.0
C212 C 0.54912 0.13885 0.79468 0.0
C213 C 0.50278 0.10952 0.79807 0.0
C214 C 0.52478 0.15166 0.78957 0.0
N215 N 0.57128 0.07154 0.82381 0.0
C216 C 0.59316 0.05782 0.84713 0.0
C217 C 0.59655 0.11166 0.81978 0.0
C218 C 0.57256 0.09789 0.81236 0.0
C219 C 0.61935 0.09749 0.83921 0.0
C220 C 0.61757 0.07047 0.85387 0.0
H221 H 0.52374 0.17288 0.78573 0.0
H222 H 0.57341 0.17395 0.79347 0.0
H223 H 0.61505 0.15009 0.81511 0.0
O224 O 0.5383 0.06465 0.9288 0.0
O225 O 0.51942 0.07316 0.68832 0.0
O226 O 0.51053 0.04383 0.57882 0.0
O227 O 0.50591 0.03862 0.90037 0.0
O228 O 0.56134 0.03027 0.73429 0.0
O229 O 0.54385 0.02333 0.60274 0.0
O230 O 0.4723 1.00038 0.55344 0.0
O231 O 0.50608 0.9963 0.76855 0.0
O232 O 0.54512 1.01182 0.81172 0.0
O233 O 0.50908 0.98338 0.51609 0.0
O234 O 0.47243 0.02783 0.67456 0.0
O235 O 0.48788 0.04737 0.7969 0.0
C236 C 0.51388 0.06793 0.60877 0.0
C237 C 0.52765 0.03178 0.02697 0.0
C238 C 0.55991 1.0015 0.08393 0.0
C239 C 0.54289 0.99633 0.15211 0.0
C240 C 0.51056 0.02619 0.09404 0.0
C241 C 0.51823 1.00849 0.15655 0.0
C242 C 0.55203 0.01928 0.02204 0.0
C243 C 0.56422 0.02837 0.65194 0.0
C244 C 0.51978 0.04958 0.95953 0.0
C245 C 0.57308 0.15271 0.79803 0.0
C246 C 0.59679 0.13912 0.81038 0.0
C247 C 0.52795 0.99262 0.8108 0.0
C248 C 0.47066 0.95773 0.49587 0.0
C249 C 0.42996 0.93212 0.49592 0.0
C250 C 0.44461 0.90886 0.49113 0.0
C251 C 0.48515 0.93421 0.4914 0.0
C252 C 0.44309 0.9564 0.49806 0.0
C253 C 0.47214 0.90996 0.48953 0.0
C254 C 0.46851 0.03962 0.7474 0.0
C255 C 0.48381 0.98358 0.50399 0.0
H256 H 0.54853 0.98284 0.2015 0.0
H257 H 0.49138 0.03544 0.09788 0.0
H258 H 0.50508 1.00422 0.20859 0.0
H259 H 0.56514 0.02384 0.97031 0.0
H260 H 0.43477 0.88999 0.48773 0.0
H261 H 0.50649 0.93446 0.49025 0.0
H262 H 0.43171 0.97442 0.49986 0.0
H263 H 0.48344 0.89198 0.48622 0.0
Tb264 Tb 0.55083 0.51215 0.58818 0.0
C265 C 0.47232 0.49395 0.87195 0.0
N266 N 0.46867 0.5049 0.79492 0.0
C267 C 0.42904 0.47982 0.7767 0.0
C268 C 0.45507 0.47446 0.9028 0.0
C269 C 0.4468 0.49902 0.74861 0.0
C270 C 0.43337 0.46724 0.85364 0.0
C271 C 0.49714 0.49256 1.00168 0.0
C272 C 0.49306 0.50296 0.92051 0.0
C273 C 0.48091 0.47209 0.03106 0.0
C274 C 0.45982 0.46316 0.9819 0.0
Tb275 Tb 0.49831 0.53634 0.75582 0.0
N276 N 0.50778 0.52338 0.89095 0.0
C277 C 0.51656 0.50392 0.05235 0.0
C278 C 0.52427 0.53649 0.94448 0.0
C279 C 0.52974 0.52639 0.02431 0.0
H280 H 0.44329 0.50892 0.68957 0.0
H281 H 0.54368 0.5363 0.06475 0.0
H282 H 0.59499 0.5519 0.68537 0.0
H283 H 0.51751 0.5076 0.26628 0.0
H284 H 0.53294 0.55504 0.92679 0.0
H285 H 0.52051 0.49636 0.11471 0.0
H286 H 0.519 0.49383 0.41431 0.0
H287 H 0.41203 0.47476 0.7391 0.0
H288 H 0.48392 0.46368 0.09291 0.0
H289 H 0.44699 0.44788 1.00632 0.0
H290 H 0.62198 0.58988 0.64775 0.0
H291 H 0.41964 0.45233 0.87511 0.0
H292 H 0.54564 0.54426 0.2165 0.0
N293 N 0.57747 0.5479 0.5645 0.0
C294 C 0.57825 0.55609 0.48272 0.0
C295 C 0.60953 0.58074 0.60091 0.0
C296 C 0.59434 0.57737 0.45766 0.0
C297 C 0.59357 0.55935 0.62269 0.0
C298 C 0.60978 0.58993 0.51825 0.0
N299 N 0.54648 0.52348 0.4503 0.0
C300 C 0.53074 0.51043 0.39454 0.0
C301 C 0.56263 0.55145 0.33901 0.0
C302 C 0.5625 0.54332 0.42385 0.0
C303 C 0.54615 0.5385 0.28204 0.0
C304 C 0.53016 0.5179 0.30996 0.0
H305 H 0.62229 0.60643 0.50161 0.0
H306 H 0.60685 0.60169 0.35285 0.0
H307 H 0.57928 0.57889 0.24897 0.0
O308 O 0.55899 0.47852 0.51399 0.0
O309 O 0.53047 0.55013 0.56732 0.0
O310 O 0.52437 0.56646 0.69976 0.0
O311 O 0.58986 0.49985 0.57746 0.0
O312 O 0.50962 0.49919 0.56312 0.0
O313 O 0.48446 0.5321 0.62512 0.0
O314 O 0.47759 0.55704 0.8487 0.0
O315 O 0.50028 0.494 0.72448 0.0
O316 O 0.54336 0.48531 0.69504 0.0
O317 O 0.46924 0.5634 0.71823 0.0
O318 O 0.53994 0.54683 0.78168 0.0
O319 O 0.56503 0.51458 0.71895 0.0
C320 C 0.52678 0.57026 0.61803 0.0
C321 C 0.60139 0.48048 0.44805 0.0
C322 C 0.62154 0.45427 0.33721 0.0
C323 C 0.6381 0.47533 0.31599 0.0
C324 C 0.61815 0.50153 0.42611 0.0
C325 C 0.63619 0.49898 0.36002 0.0
C326 C 0.60303 0.45703 0.40248 0.0
C327 C 0.48807 0.51399 0.56646 0.0
C328 C 0.58436 0.48148 0.52351 0.0
C329 C 0.59459 0.5854 0.37311 0.0
C330 C 0.5789 0.5724 0.31391 0.0
C331 C 0.52098 0.47872 0.73124 0.0
C332 C 0.46731 0.59986 0.80821 0.0
C333 C 0.49193 0.63776 0.85805 0.0
C334 C 0.47018 0.65383 0.83986 0.0
C335 C 0.44585 0.61608 0.78954 0.0
C336 C 0.49049 0.61082 0.84137 0.0
C337 C 0.44736 0.64303 0.80508 0.0
C338 C 0.56079 0.53134 0.78069 0.0
C339 C 0.46524 0.5715 0.79465 0.0
H340 H 0.65246 0.47344 0.26576 0.0
H341 H 0.61793 0.51969 0.4613 0.0
H342 H 0.64912 0.51519 0.34412 0.0
H343 H 0.59065 0.44049 0.42005 0.0
H344 H 0.47096 0.67475 0.85207 0.0
H345 H 0.42792 0.60787 0.76357 0.0
H346 H 0.50721 0.59838 0.85572 0.0
H347 H 0.43075 0.65553 0.79084 0.0
Tb348 Tb 0.03393 0.5568 0.61485 0.0
C349 C 0.03788 0.45847 0.85005 0.0
N350 N 0.02312 0.46414 0.78128 0.0
C351 C 0.02965 0.42021 0.72982 0.0
C352 C 0.04991 0.43372 0.86 0.0
C353 C 0.01768 0.44486 0.72383 0.0
C354 C 0.04617 0.41473 0.79756 0.0
C355 C 0.05358 0.4717 0.98763 0.0
C356 C 0.03967 0.47708 0.91299 0.0
C357 C 0.06634 0.44742 0.99677 0.0
C358 C 0.06455 0.42848 0.933 0.0
Tb359 Tb 1.00537 0.50559 0.77744 0.0
N360 N 0.02736 0.5004 0.9014 0.0
C361 C 0.05388 0.49073 0.05118 0.0
C362 C 0.02643 0.5185 0.96482 0.0
C363 C 0.03997 0.51412 0.04006 0.0
H364 H 1.00358 0.44803 0.67431 0.0
H365 H 0.03955 0.52872 0.08957 0.0
H366 H 1.00448 0.61098 0.6752 0.0
H367 H 0.03972 0.51041 0.30724 0.0
H368 H 0.01547 0.53642 0.95713 0.0
H369 H 0.06429 0.48734 0.10957 0.0
H370 H 0.05533 0.52095 0.44926 0.0
H371 H 0.02567 0.40527 0.68306 0.0
H372 H 0.07733 0.44297 0.05331 0.0
H373 H 0.07407 0.40965 0.94154 0.0
H374 H 0.97138 0.64196 0.6185 0.0
H375 H 0.05511 0.39549 0.80269 0.0
H376 H 1.00109 0.53351 0.24875 0.0
N377 N 1.00245 0.58534 0.56996 0.0
C378 C 0.99303 0.58142 0.4911 0.0
C379 C 0.97713 0.62488 0.58235 0.0
C380 C 0.97415 0.59846 0.45619 0.0
C381 C 0.99574 0.60732 0.61445 0.0
C382 C 0.96603 0.62025 0.5033 0.0
N383 N 0.02323 0.54656 0.47803 0.0
C384 C 0.03728 0.5298 0.42764 0.0
C385 C 0.99461 0.55665 0.36122 0.0
C386 C 1.00326 0.56088 0.44443 0.0
C387 C 1.00717 0.53741 0.31285 0.0
C388 C 0.02894 0.5243 0.34571 0.0
H389 H 0.9516 0.63385 0.47864 0.0
H390 H 0.94974 0.60617 0.34739 0.0
H391 H 0.96761 0.56949 0.26416 0.0
O392 O 0.05878 0.57512 0.52633 0.0
O393 O 0.99073 0.55496 0.64334 0.0
O394 O 0.98382 0.51135 0.65923 0.0
O395 O 0.05633 0.58946 0.65285 0.0
O396 O 0.04554 0.51526 0.5932 0.0
O397 O 1.00945 0.49331 0.64475 0.0
O398 O 0.97067 0.51722 0.83866 0.0
O399 O 0.04603 0.52007 0.80175 0.0
O400 O 0.06387 0.53107 0.6723 0.0
O401 O 0.97999 0.47628 0.82468 0.0
O402 O 0.99902 0.5475 0.81081 0.0
O403 O 0.03271 0.57045 0.74571 0.0
C404 C 0.97532 0.5343 0.63394 0.0
C405 C 0.09756 0.59154 0.58806 0.0
C406 C 0.13988 0.56975 0.57509 0.0
C407 C 0.15258 0.59289 0.6009 0.0
C408 C 0.11034 0.61446 0.61521 0.0
C409 C 0.13778 0.61506 0.62188 0.0
C410 C 0.1124 0.56907 0.56939 0.0
C411 C 0.03003 0.49443 0.5942 0.0
C412 C 0.06876 0.59102 0.58165 0.0
C413 C 0.96454 0.59355 0.37494 0.0
C414 C 0.97467 0.5726 0.32766 0.0
C415 C 0.06654 0.52432 0.75207 0.0
C416 C 0.93598 0.4892 0.79887 0.0
C417 C 0.89392 0.50734 0.75373 0.0
C418 C 0.88827 0.48389 0.71102 0.0
C419 C 0.93022 0.46589 0.75492 0.0
C420 C 0.91765 0.50973 0.7979 0.0
C421 C 0.90647 0.46333 0.71131 0.0
C422 C 1.01443 0.56841 0.80431 0.0
C423 C 0.96159 0.49327 0.8409 0.0
H424 H 0.17389 0.59379 0.60423 0.0
H425 H 0.09909 0.63185 0.63099 0.0
H426 H 0.14761 0.63283 0.64231 0.0
H427 H 0.10268 0.55125 0.54831 0.0
H428 H 0.86982 0.48147 0.67782 0.0
H429 H 0.94408 0.44975 0.75357 0.0
H430 H 0.92168 0.52757 0.83293 0.0
H431 H 0.90214 0.44535 0.67769 0.0
C432 C 0.18674 0.04837 0.31926 0.0
C433 C 0.18354 0.03768 0.23849 0.0
C434 C 0.16516 0.05055 0.37596 0.0
C435 C 0.13947 0.04239 0.35113 0.0
C436 C 0.13602 0.03316 0.26757 0.0
C437 C 0.15804 0.03036 0.21346 0.0
C438 C 0.17028 0.05985 0.4645 0.0
C439 C 0.10916 0.02503 0.23625 0.0
C440 C 0.09123 0.01571 0.51799 0.0
C441 C 0.07496 0.03737 0.53581 0.0
C442 C 0.1122 0.01727 0.45951 0.0
C443 C 0.11693 0.04088 0.41434 0.0
C444 C 0.0999 0.06257 0.42936 0.0
C445 C 0.07934 0.06063 0.48999 0.0
C446 C 0.12961 0.99358 0.44709 0.0
C447 C 0.10358 0.08798 0.38198 0.0
H448 H 0.20643 0.05338 0.34021 0.0
H449 H 0.15539 0.02172 0.15169 0.0
H450 H 0.15492 0.07392 0.48527 0.0
H451 H 0.16952 0.04276 0.50778 0.0
H452 H 0.18992 0.06935 0.47052 0.0
H453 H 0.10899 0.02193 0.16705 0.0
H454 H 0.10307 1.00646 0.26733 0.0
H455 H 0.09426 0.04015 0.25245 0.0
H456 H 0.0878 0.99739 0.55105 0.0
H457 H 0.06707 0.07756 0.50274 0.0
H458 H 0.15042 0.99888 0.46029 0.0
H459 H 0.12865 0.98692 0.38073 0.0
H460 H 0.12388 0.97692 0.48851 0.0
H461 H 0.12299 0.09671 0.3978 0.0
H462 H 0.08793 0.10249 0.3969 0.0
H463 H 0.10355 0.0842 0.31321 0.0
C464 C 0.50369 0.19682 0.29701 0.0
C465 C 0.52675 0.19769 0.24781 0.0
C466 C 0.49913 0.17605 0.35542 0.0
C467 C 0.51809 0.15569 0.36573 0.0
C468 C 0.54123 0.15658 0.31555 0.0
C469 C 0.54514 0.17728 0.25775 0.0
C470 C 0.47408 0.17597 0.40666 0.0
C471 C 0.56226 0.13579 0.32379 0.0
C472 C 0.52384 0.11541 0.56994 0.0
C473 C 0.51326 0.09078 0.54768 0.0
C474 C 0.52465 0.13674 0.51292 0.0
C475 C 0.51456 0.13386 0.43024 0.0
C476 C 0.50334 0.10923 0.4076 0.0
C477 C 0.50295 0.08812 0.46596 0.0
C478 C 0.53718 0.16222 0.54062 0.0
C479 C 0.49226 0.10496 0.32073 0.0
H480 H 0.4893 0.21236 0.29029 0.0
H481 H 0.56307 0.17764 0.22044 0.0
H482 H 0.46344 0.15711 0.39771 0.0
H483 H 0.47886 0.17758 0.47452 0.0
H484 H 0.46077 0.19239 0.38937 0.0
H485 H 0.579 0.13904 0.27975 0.0
H486 H 0.56999 0.13562 0.389 0.0
H487 H 0.55374 0.11609 0.31138 0.0
H488 H 0.53232 0.11792 0.63159 0.0
H489 H 0.49465 0.06939 0.44714 0.0
H490 H 0.52316 0.17868 0.53204 0.0
H491 H 0.55472 0.16648 0.50097 0.0
H492 H 0.54341 0.16173 0.60751 0.0
H493 H 0.47807 0.12076 0.30512 0.0
H494 H 0.48216 0.08566 0.31478 0.0
H495 H 0.5084 0.10588 0.27354 0.0
C496 C 0.34742 0.49813 0.35782 0.0
C497 C 0.34434 0.50329 0.27151 0.0
C498 C 0.37237 0.49751 0.39645 0.0
C499 C 0.39541 0.50274 0.34859 0.0
C500 C 0.39263 0.50715 0.26043 0.0
C501 C 0.36718 0.50718 0.22278 0.0
C502 C 0.37387 0.49225 0.48986 0.0
C503 C 0.41644 0.51302 0.20654 0.0
C504 C 0.45009 0.53265 0.48449 0.0
C505 C 0.46643 0.51107 0.50228 0.0
C506 C 0.42813 0.53051 0.43061 0.0
C507 C 0.42161 0.50601 0.39354 0.0
C508 C 0.43858 0.48429 0.40865 0.0
C509 C 0.46082 0.48711 0.46208 0.0
C510 C 0.41122 0.55444 0.41624 0.0
C511 C 0.43254 0.4577 0.37163 0.0
H512 H 0.32998 0.49499 0.39622 0.0
H513 H 0.36514 0.51141 0.15631 0.0
H514 H 0.3886 0.47672 0.50295 0.0
H515 H 0.3804 0.51029 0.52301 0.0
H516 H 0.35459 0.48603 0.51667 0.0
H517 H 0.41166 0.51296 0.13839 0.0
H518 H 0.42441 0.53264 0.22338 0.0
H519 H 0.43224 0.49847 0.21833 0.0
H520 H 0.45428 0.55141 0.51386 0.0
H521 H 0.47317 0.47026 0.47506 0.0
H522 H 0.39183 0.55167 0.44757 0.0
H523 H 0.40749 0.55715 0.34805 0.0
H524 H 0.42042 0.57263 0.44136 0.0
H525 H 0.41462 0.44952 0.4022 0.0
H526 H 0.449 0.44364 0.38055 0.0
H527 H 0.42835 0.45944 0.30341 0.0
C528 C 0.03716 0.38622 0.21516 0.0
C529 C 0.03654 0.361 0.25098 0.0
C530 C 0.039 0.40906 0.26608 0.0
C531 C 0.04041 0.40675 0.35518 0.0
C532 C 0.04125 0.38119 0.39078 0.0
C533 C 0.03897 0.35883 0.33867 0.0
C534 C 0.03816 0.43573 0.22479 0.0
C535 C 0.04313 0.37744 0.48478 0.0
C536 C 0.05804 0.46559 0.49835 0.0
C537 C 0.03321 0.47312 0.52934 0.0
C538 C 0.06081 0.4444 0.44099 0.0
C539 C 0.03817 0.43063 0.41196 0.0
C540 C 1.01303 0.43881 0.44127 0.0
C541 C 1.01091 0.45966 0.49942 0.0
C542 C 0.08805 0.43668 0.41218 0.0
C543 C 0.98821 0.42524 0.41215 0.0
H544 H 0.03462 0.38816 0.14776 0.0
H545 H 0.03791 0.33949 0.3671 0.0
H546 H 0.02167 0.44747 0.25111 0.0
H547 H 0.05666 0.44656 0.23826 0.0
H548 H 0.03568 0.43436 0.15554 0.0
H549 H 0.04632 0.35656 0.50219 0.0
H550 H 0.05953 0.38941 0.51058 0.0
H551 H 0.02467 0.38428 0.51525 0.0
H552 H 0.07542 0.47586 0.52058 0.0
H553 H 0.99156 0.46545 0.52172 0.0
H554 H 0.09103 0.44323 0.34625 0.0
H555 H 0.09048 0.41503 0.41361 0.0
H556 H 0.10361 0.44573 0.45177 0.0
H557 H 0.98737 0.42516 0.34239 0.0
H558 H 0.97011 0.43481 0.43683 0.0
H559 H 0.98829 0.40446 0.43327 0.0
C560 C 0.85644 0.0258 0.12843 0.0
C561 C 0.84644 1.00037 0.14207 0.0
C562 C 0.87942 0.03001 0.07848 0.0
C563 C 0.89284 1.00836 0.04109 0.0
C564 C 0.88285 0.98274 0.05588 0.0
C565 C 0.86002 0.97916 0.10556 0.0
C566 C 0.88923 0.05767 0.06494 0.0
C567 C 0.89615 0.95893 0.01838 0.0
C568 C 0.93792 0.0156 0.84666 0.0
C569 C 0.96338 1.01402 0.88122 0.0
C570 C 0.91499 1.01463 0.89762 0.0
C571 C 0.91719 1.01203 0.98625 0.0
C572 C 0.94285 1.01089 0.02143 0.0
C573 C 0.96545 1.01203 0.96908 0.0
C574 C 0.88833 0.01604 0.85624 0.0
C575 C 0.94645 1.0082 0.11481 0.0
H576 H 0.84615 0.0424 0.15566 0.0
H577 H 0.85255 0.95941 0.11528 0.0
H578 H 0.88941 0.06231 0.99673 0.0
H579 H 0.87686 0.07241 0.09806 0.0
H580 H 0.9098 0.0595 0.08759 0.0
H581 H 0.88616 0.9403 0.03631 0.0
H582 H 0.89635 0.96046 0.94874 0.0
H583 H 0.91696 0.958 0.03934 0.0
H584 H 0.9358 0.01796 0.7795 0.0
H585 H 0.98485 1.01105 0.99721 0.0
H586 H 0.87655 0.03213 0.88448 0.0
H587 H 0.87739 0.99745 0.86736 0.0
H588 H 0.88982 0.01937 0.78729 0.0
H589 H 0.93661 0.02485 0.147 0.0
H590 H 0.96755 1.00789 0.13313 0.0
H591 H 0.93693 0.98984 0.13734 0.0
C592 C 0.56178 0.88056 0.15565 0.0
C593 C 0.54834 0.85672 0.14419 0.0
C594 C 0.55709 0.90264 0.10418 0.0
C595 C 0.5391 0.90106 0.0361 0.0
C596 C 0.52521 0.87695 0.02454 0.0
C597 C 0.52975 0.85524 0.07905 0.0
C598 C 0.57195 0.92756 0.12236 0.0
C599 C 0.50687 0.8733 0.95116 0.0
C600 C 0.51257 0.96473 0.93376 0.0
C601 C 0.53087 0.96947 0.86897 0.0
C602 C 0.51511 0.9429 0.98867 0.0
C603 C 0.53567 0.9243 0.97646 0.0
C604 C 0.55375 0.92878 0.90933 0.0
C605 C 0.55153 0.95149 0.85826 0.0
C606 C 0.49606 0.94005 0.0611 0.0
C607 C 0.57552 0.90949 0.89085 0.0
H608 H 0.5764 0.88191 0.20509 0.0
H609 H 0.51978 0.83673 0.0678 0.0
H610 H 0.58833 0.92977 0.07658 0.0
H611 H 0.55866 0.94459 0.11572 0.0
H612 H 0.58042 0.92773 0.18672 0.0
H613 H 0.49333 0.85638 0.96082 0.0
H614 H 0.49499 0.89118 0.93936 0.0
H615 H 0.51888 0.86944 0.89404 0.0
H616 H 0.49658 0.97853 0.94287 0.0
H617 H 0.56581 0.95498 0.80859 0.0
H618 H 0.50709 0.93958 0.12128 0.0
H619 H 0.48517 0.92121 0.05572 0.0
H620 H 0.4816 0.95639 0.06371 0.0
H621 H 0.59061 0.91057 0.94098 0.0
H622 H 0.5853 0.91352 0.82952 0.0
H623 H 0.56761 0.88914 0.89003 0.0
C624 C 0.67297 0.54414 0.15007 0.0
C625 C 0.69608 0.55444 0.11379 0.0
C626 C 0.64995 0.53971 0.10122 0.0
C627 C 0.65009 0.54515 0.01325 0.0
C628 C 0.67375 0.55479 0.97645 0.0
C629 C 0.69609 0.55964 0.02702 0.0
C630 C 0.62542 0.52963 0.14458 0.0
C631 C 0.6753 0.56075 0.88351 0.0
C632 C 0.59997 0.51396 0.86136 0.0
C633 C 0.58248 0.53473 0.84473 0.0
C634 C 0.62132 0.5168 0.91772 0.0
C635 C 0.62577 0.5411 0.95907 0.0
C636 C 0.60783 0.56201 0.94398 0.0
C637 C 0.58663 0.55864 0.88704 0.0
C638 C 0.63945 0.4938 0.93192 0.0
C639 C 0.61122 0.58816 0.9873 0.0
H640 H 0.67242 0.54078 0.21739 0.0
H641 H 0.7136 0.56821 0.99877 0.0
H642 H 0.60732 0.53831 0.11738 0.0
H643 H 0.62425 0.50801 0.13649 0.0
H644 H 0.6257 0.53396 0.21304 0.0
H645 H 0.69533 0.56714 0.86369 0.0
H646 H 0.66973 0.54311 0.84659 0.0
H647 H 0.66111 0.57651 0.86751 0.0
H648 H 0.59703 0.49531 0.82977 0.0
H649 H 0.57361 0.575 0.87433 0.0
H650 H 0.64032 0.48911 1.00003 0.0
H651 H 0.65973 0.49898 0.91131 0.0
H652 H 0.63301 0.47596 0.89728 0.0
H653 H 0.61221 0.58528 0.05645 0.0
H654 H 0.59488 0.60194 0.97306 0.0
H655 H 0.63006 0.59735 0.9672 0.0
C656 C 1.01213 0.68814 0.15194 0.0
C657 C 0.99097 0.70479 0.13258 0.0
C658 C 0.01707 0.66504 0.10391 0.0
C659 C 1.00092 0.65869 0.03351 0.0
C660 C 0.97993 0.67587 0.0133 0.0
C661 C 0.97509 0.69824 0.06328 0.0
C662 C 0.03926 0.64714 0.12939 0.0
C663 C 0.96248 0.67069 0.93828 0.0
C664 C 0.02581 0.61444 0.85382 0.0
C665 C 1.0115 0.59096 0.86572 0.0
C666 C 0.02305 0.63616 0.90859 0.0
C667 C 1.00595 0.63462 0.9793 0.0
C668 C 0.99197 0.61074 0.99321 0.0
C669 C 0.99458 0.5895 0.93599 0.0
C670 C 0.03789 0.66117 0.889 0.0
C671 C 0.97387 0.60772 0.06816 0.0
H672 H 0.02434 0.69273 0.20577 0.0
H673 H 0.95868 0.71091 0.04753 0.0
H674 H 0.03136 0.62725 0.14336 0.0
H675 H 0.05352 0.64504 0.07677 0.0
H676 H 0.04992 0.6545 0.18562 0.0
H677 H 0.94755 0.68635 0.92914 0.0
H678 H 0.97464 0.66922 0.8803 0.0
H679 H 0.95207 0.65167 0.94624 0.0
H680 H 0.03894 0.61618 0.80021 0.0
H681 H 0.98326 0.57172 0.94652 0.0
H682 H 0.04976 0.66732 0.94407 0.0
H683 H 0.0237 0.67719 0.87578 0.0
H684 H 0.05123 0.65902 0.83385 0.0
H685 H 0.98422 0.61362 0.12661 0.0
H686 H 0.96662 0.58724 0.07558 0.0
H687 H 0.95662 0.62086 0.06103 0.0
C688 C 0.99952 0.22999 0.32829 0.0
C689 C 0.02373 0.24291 0.32133 0.0
C690 C 0.99192 0.21817 0.40388 0.0
C691 C 1.00928 0.21889 0.47348 0.0
C692 C 0.03336 0.23287 0.4678 0.0
C693 C 0.04025 0.24497 0.39144 0.0
C694 C 0.96587 0.20376 0.40775 0.0
C695 C 0.05257 0.23355 0.54006 0.0
C696 C 0.9756 0.19206 0.6669 0.0
C697 C 0.97869 0.16489 0.65336 0.0
C698 C 0.98745 0.21053 0.61307 0.0
C699 C 1.00355 0.20167 0.54624 0.0
C700 C 1.00969 0.17478 0.53936 0.0
C701 C 0.99657 0.15676 0.59069 0.0
C702 C 0.98072 0.2392 0.6233 0.0
C703 C 0.02802 0.16449 0.47192 0.0
H704 H 0.98665 0.22891 0.27404 0.0
H705 H 0.05895 0.25517 0.38549 0.0
H706 H 0.96946 0.18228 0.4108 0.0
H707 H 0.95477 0.2094 0.46523 0.0
H708 H 0.95339 0.20782 0.35197 0.0
H709 H 0.06757 0.24928 0.53193 0.0
H710 H 0.04219 0.23653 0.60085 0.0
H711 H 0.06292 0.21441 0.54378 0.0
H712 H 0.96302 0.19915 0.71694 0.0
H713 H 0.99938 0.13629 0.57649 0.0
H714 H 0.96457 0.24425 0.5793 0.0
H715 H 0.99782 0.25195 0.60788 0.0
H716 H 0.97397 0.24366 0.68831 0.0
H717 H 0.01663 0.16102 0.41346 0.0
H718 H 0.0371 0.14562 0.49139 0.0
H719 H 0.04406 0.17862 0.45739 0.0
C720 C 0.3297 1.00789 0.30848 0.0
C721 C 0.30422 1.0003 0.28525 0.0
C722 C 0.34467 0.99252 0.36293 0.0
C723 C 0.33351 0.96933 0.39749 0.0
C724 C 0.30672 0.96319 0.38199 0.0
C725 C 0.29239 0.97864 0.3249 0.0
C726 C 0.37314 1.00013 0.37774 0.0
C727 C 0.29354 0.93955 0.42102 0.0
C728 C 0.39009 0.92329 0.41203 0.0
C729 C 0.40107 0.93208 0.48749 0.0
C730 C 0.36537 0.93237 0.38633 0.0
C731 C 0.35148 0.95028 0.43833 0.0
C732 C 0.36045 0.95521 0.52098 0.0
C733 C 0.38556 0.94644 0.54425 0.0
C734 C 0.35621 0.92606 0.29836 0.0
C735 C 0.34519 0.97257 0.5805 0.0
H736 H 0.33851 0.02519 0.28 0.0
H737 H 0.2725 0.97293 0.30803 0.0
H738 H 0.37688 1.00253 0.44597 0.0
H739 H 0.38639 0.98441 0.35427 0.0
H740 H 0.37861 0.01877 0.34571 0.0
H741 H 0.2724 0.94363 0.43379 0.0
H742 H 0.29442 0.92285 0.37629 0.0
H743 H 0.30314 0.93353 0.48058 0.0
H744 H 0.40209 0.91199 0.36863 0.0
H745 H 0.39399 0.95279 0.60352 0.0
H746 H 0.35905 0.94354 0.25751 0.0
H747 H 0.33493 0.92111 0.29839 0.0
H748 H 0.3673 0.90939 0.27048 0.0
H749 H 0.34946 0.99347 0.5661 0.0
H750 H 0.35079 0.96885 0.64696 0.0
H751 H 0.32366 0.9694 0.57331 0.0
C752 C 0.59441 0.31052 0.24708 0.0
C753 C 0.59366 0.30502 0.16082 0.0
C754 C 0.60876 0.33213 0.2767 0.0
C755 C 0.62235 0.34824 0.21818 0.0
C756 C 0.6262 0.33927 0.13492 0.0
C757 C 0.61185 0.3174 0.10707 0.0
C758 C 0.60544 0.34028 0.36735 0.0
C759 C 0.6417 0.35515 0.07169 0.0
C760 C 0.60227 0.41875 0.25096 0.0
C761 C 0.62391 0.42881 0.2943 0.0
C762 C 0.60237 0.39294 0.22097 0.0
C763 C 0.62458 0.37673 0.2364 0.0
C764 C 0.64717 0.38738 0.27585 0.0
C765 C 0.64656 0.41348 0.30441 0.0
C766 C 0.57809 0.38272 0.17654 0.0
C767 C 0.67132 0.37102 0.2928 0.0
H768 H 0.58082 0.30059 0.28932 0.0
H769 H 0.61185 0.31258 0.0406 0.0
H770 H 0.62402 0.34866 0.39235 0.0
H771 H 0.59002 0.35566 0.37161 0.0
H772 H 0.59932 0.32347 0.40755 0.0
H773 H 0.64877 0.34265 0.019 0.0
H774 H 0.62881 0.37064 0.04509 0.0
H775 H 0.65884 0.36493 0.10159 0.0
H776 H 0.58491 0.43088 0.24302 0.0
H777 H 0.66325 0.42144 0.33845 0.0
H778 H 0.56882 0.36683 0.2143 0.0
H779 H 0.58356 0.37432 0.11453 0.0
H780 H 0.56316 0.39831 0.16615 0.0
H781 H 0.6691 0.36129 0.3549 0.0
H782 H 0.68931 0.38348 0.29513 0.0
H783 H 0.67414 0.35552 0.24458 0.0
C784 C 0.23949 0.47543 0.37138 0.0
C785 C 0.22769 0.46734 0.29555 0.0
C786 C 0.22395 0.48247 0.44073 0.0
C787 C 0.19627 0.48248 0.432 0.0
C788 C 0.18475 0.46858 0.36433 0.0
C789 C 0.20092 0.46014 0.29795 0.0
C790 C 0.2371 0.49496 0.51576 0.0
C791 C 0.1553 0.46696 0.35295 0.0
C792 C 0.15353 0.5226 0.58138 0.0
C793 C 0.1552 0.54739 0.54338 0.0
C794 C 0.1669 0.50098 0.5467 0.0
C795 C 0.18145 0.50437 0.47128 0.0
C796 C 0.18264 0.52947 0.43227 0.0
C797 C 0.16983 0.5507 0.46975 0.0
C798 C 0.16556 0.47474 0.59069 0.0
C799 C 0.19728 0.53406 0.35041 0.0
H800 H 0.26032 0.47988 0.37419 0.0
H801 H 0.19179 0.45144 0.24303 0.0
H802 H 0.23917 0.5164 0.50463 0.0
H803 H 0.22525 0.49209 0.57384 0.0
H804 H 0.25712 0.48674 0.52555 0.0
H805 H 0.14968 0.44747 0.32711 0.0
H806 H 0.14434 0.47035 0.4123 0.0
H807 H 0.14913 0.48207 0.30668 0.0
H808 H 0.14186 0.52018 0.63807 0.0
H809 H 0.17055 0.56988 0.44003 0.0
H810 H 0.18543 0.46937 0.61377 0.0
H811 H 0.15934 0.45912 0.54636 0.0
H812 H 0.15171 0.47497 0.64501 0.0
H813 H 0.21872 0.53122 0.36005 0.0
H814 H 0.19425 0.55421 0.32539 0.0
H815 H 0.1907 0.51983 0.30193 0.0
C816 C 0.96848 0.81466 1.00575 0.0
C817 C 0.9778 0.8269 0.0793 0.0
C818 C 0.97425 0.82521 0.92584 0.0
C819 C 0.98921 0.84862 0.92021 0.0
C820 C 0.99514 0.86293 0.99427 0.0
C821 C 0.98962 0.85178 0.07231 0.0
C822 C 0.96529 0.81086 0.84792 0.0
C823 C 1.01015 0.8887 0.99244 0.0
C824 C 0.04968 0.86356 0.80544 0.0
C825 C 0.04302 0.88904 0.78043 0.0
C826 C 0.0302 0.84653 0.83623 0.0
C827 C 1.00389 0.85568 0.84263 0.0
C828 C 0.99651 0.87853 0.79857 0.0
C829 C 0.01633 0.89532 0.76854 0.0
C830 C 0.03868 0.8212 0.87719 0.0
C831 C 0.96821 0.88733 0.79548 0.0
H832 H 0.95806 0.79611 0.01022 0.0
H833 H 0.99708 0.86178 0.12734 0.0
H834 H 0.94928 0.82226 0.81779 0.0
H835 H 0.98149 0.80915 0.80118 0.0
H836 H 0.95768 0.79089 0.86259 0.0
H837 H 1.01169 0.89786 0.05569 0.0
H838 H 0.03043 0.88546 0.96842 0.0
H839 H 1.0003 0.90296 0.9504 0.0
H840 H 0.07022 0.85817 0.81212 0.0
H841 H 1.01098 0.9145 0.74468 0.0
H842 H 0.02396 0.80544 0.86638 0.0
H843 H 0.0404 0.82423 0.94614 0.0
H844 H 0.05811 0.81454 0.85292 0.0
H845 H 0.95476 0.87016 0.79131 0.0
H846 H 0.96477 0.90053 0.74094 0.0
H847 H 0.96332 0.89831 0.85376 0.0
C848 C 0.70927 0.95825 0.10957 0.0
C849 C 0.72039 0.98346 0.10951 0.0
C850 C 0.6837 0.95429 0.07878 0.0
C851 C 0.66912 0.97629 0.05144 0.0
C852 C 0.68219 1.00047 0.03662 0.0
C853 C 0.70808 1.00364 0.06497 0.0
C854 C 0.67098 0.92764 0.08775 0.0
C855 C 0.66769 0.02412 1.00331 0.0
C856 C 0.59687 0.98201 1.00009 0.0
C857 C 0.58659 0.98997 0.07818 0.0
C858 C 0.62332 0.9748 0.99122 0.0
C859 C 0.64008 0.97648 0.06176 0.0
C860 C 0.62932 0.98264 0.14209 0.0
C861 C 0.60267 0.9892 0.1492 0.0
C862 C 0.63323 0.967 0.90516 0.0
C863 C 0.64625 0.98484 0.21974 0.0
H864 H 0.71903 0.94255 0.14336 0.0
H865 H 0.71696 0.02305 0.06442 0.0
H866 H 0.65666 0.92412 0.03625 0.0
H867 H 0.68598 0.91178 0.08736 0.0
H868 H 0.6601 0.92664 0.14835 0.0
H869 H 0.68125 0.04068 0.98851 0.0
H870 H 0.65672 0.0189 0.94552 0.0
H871 H 0.65314 0.03092 0.05086 0.0
H872 H 0.5845 0.98237 0.94495 0.0
H873 H 0.59487 0.99547 0.20953 0.0
H874 H 0.65226 0.95635 0.90769 0.0
H875 H 0.63575 0.98485 0.86586 0.0
H876 H 0.61847 0.95435 0.87316 0.0
H877 H 0.65999 0.96807 0.22486 0.0
H878 H 0.63423 0.98543 0.27823 0.0
H879 H 0.65805 1.00319 0.21594 0.0
C880 C 0.57889 0.74274 0.02393 0.0
C881 C 0.5887 0.73606 0.10374 0.0
C882 C 0.57448 0.72311 0.96388 0.0
C883 C 0.57913 0.6967 0.98651 0.0
C884 C 0.59567 0.69127 0.05549 0.0
C885 C 0.60119 0.71155 0.11258 0.0
C886 C 0.5597 0.72995 0.88476 0.0
C887 C 0.60308 0.66349 0.07783 0.0
C888 C 0.51304 0.66354 0.97127 0.0
C889 C 0.51568 0.6492 0.897 0.0
C890 C 0.53449 0.67705 1.0052 0.0
C891 C 0.559 0.67708 0.96149 0.0
C892 C 0.56225 0.6611 0.88946 0.0
C893 C 0.54056 0.64689 0.85899 0.0
C894 C 0.53029 0.69245 0.08551 0.0
C895 C 0.58778 0.65997 0.84074 0.0
H896 H 0.57073 0.76201 0.01231 0.0
H897 H 0.61126 0.70685 0.17069 0.0
H898 H 0.56521 0.71652 0.83258 0.0
H899 H 0.53821 0.72786 0.89646 0.0
H900 H 0.56367 0.75054 0.86527 0.0
H901 H 0.62114 0.66302 0.11708 0.0
H902 H 0.58676 0.65438 0.11442 0.0
H903 H 0.6063 0.65149 0.02046 0.0
H904 H 0.49394 0.66457 1.00201 0.0
H905 H 0.54292 0.63512 0.80301 0.0
H906 H 0.53043 0.7138 0.07152 0.0
H907 H 0.5463 0.68837 0.13093 0.0
H908 H 0.5112 0.68761 0.11635 0.0
H909 H 0.58565 0.67152 0.78191 0.0
H910 H 0.59212 0.63938 0.82218 0.0
H911 H 0.60478 0.66789 0.87638 0.0
C912 C 0.84172 0.58258 0.06189 0.0
C913 C 0.81547 0.59081 0.07162 0.0
C914 C 0.85276 0.57876 0.98249 0.0
C915 C 0.83718 0.58347 0.91027 0.0
C916 C 0.81273 0.59649 0.91918 0.0
C917 C 0.802 0.59994 1.00016 0.0
C918 C 0.87967 0.566 0.97733 0.0
C919 C 0.79672 0.60469 0.844 0.0
C920 C 0.88167 0.55482 0.75257 0.0
C921 C 0.87422 0.52842 0.76197 0.0
C922 C 0.86587 0.57492 0.78538 0.0
C923 C 0.84346 0.56805 0.83362 0.0
C924 C 0.83362 0.54196 0.82996 0.0
C925 C 0.84921 0.52234 0.79363 0.0
C926 C 0.87505 0.60298 0.77769 0.0
C927 C 0.80879 0.5339 0.87597 0.0
H928 H 0.85296 0.57595 0.11539 0.0
H929 H 0.78232 0.60792 1.00658 0.0
H930 H 0.87789 0.54593 0.95069 0.0
H931 H 0.89289 0.57755 0.93584 0.0
H932 H 0.88931 0.56438 0.03977 0.0
H933 H 0.78935 0.62501 0.85327 0.0
H934 H 0.80822 0.60392 0.78449 0.0
H935 H 0.77917 0.59177 0.83834 0.0
H936 H 0.90063 0.55965 0.72507 0.0
H937 H 0.84317 0.50196 0.7989 0.0
H938 H 0.8591 0.61709 0.79321 0.0
H939 H 0.88215 0.60682 0.71264 0.0
H940 H 0.89192 0.60646 0.82047 0.0
H941 H 0.81192 0.53534 0.94493 0.0
H942 H 0.80281 0.51342 0.86094 0.0
H943 H 0.79237 0.54718 0.85916 0.0
C944 C 0.06221 0.213 1.00779 0.0
C945 C 0.04012 0.22937 0.01746 0.0
C946 C 0.06104 0.18945 0.96037 0.0
C947 C 0.03706 0.18152 0.92189 0.0
C948 C 1.015 0.1986 0.92853 0.0
C949 C 0.01677 0.22207 0.9762 0.0
C950 C 0.08505 0.17206 0.95663 0.0
C951 C 0.98869 0.19131 0.89138 0.0
C952 C 0.03772 0.12473 0.75996 0.0
C953 C 0.03023 0.10295 0.80917 0.0
C954 C 0.03987 0.15029 0.79514 0.0
C955 C 0.03449 0.15446 0.88201 0.0
C956 C 0.02651 0.13257 0.93132 0.0
C957 C 0.02432 0.10739 0.89445 0.0
C958 C 0.04786 0.17291 0.73931 0.0
C959 C 0.02021 0.1357 0.02363 0.0
H960 H 0.08005 0.21783 0.04183 0.0
H961 H 0.99926 0.23388 0.98579 0.0
H962 H 0.08151 0.1542 0.99511 0.0
H963 H 0.08885 0.16553 0.8911 0.0
H964 H 0.10294 0.18213 0.98077 0.0
H965 H 0.97746 0.20912 0.87326 0.0
H966 H 0.99079 0.17842 0.83563 0.0
H967 H 0.97694 0.18056 0.93937 0.0
H968 H 0.0421 0.12178 0.69384 0.0
H969 H 0.01768 0.09108 0.9328 0.0
H970 H 0.06585 0.18248 0.7645 0.0
H971 H 0.03203 0.18791 0.73898 0.0
H972 H 0.0518 0.16661 0.67356 0.0
H973 H 0.03757 0.14381 0.05714 0.0
H974 H 1.01454 0.11681 0.05377 0.0
H975 H 1.00381 0.14986 0.03175 0.0
C976 C 0.32866 1.01307 0.96722 0.0
C977 C 0.31502 0.03533 0.99699 0.0
C978 C 0.35163 1.01517 0.9172 0.0
C979 C 0.36128 0.04024 0.89297 0.0
C980 C 0.34625 0.06274 0.91619 0.0
C981 C 0.32357 0.06008 0.96852 0.0
C982 C 0.36679 0.9905 0.89633 0.0
C983 C 0.35498 0.08984 0.88979 0.0
C984 C 0.43651 0.04614 0.86814 0.0
C985 C 0.4407 0.04231 0.78132 0.0
C986 C 0.41101 0.04602 0.90422 0.0
C987 C 0.38845 0.04274 0.85271 0.0
C988 C 0.39237 0.03984 0.76447 0.0
C989 C 0.41829 0.0393 0.73016 0.0
C990 C 0.40836 0.04831 0.99861 0.0
C991 C 0.36914 0.03701 0.70623 0.0
H992 H 0.32236 0.9938 0.98848 0.0
H993 H 0.31355 0.07747 0.99125 0.0
H994 H 0.3713 0.9896 0.82811 0.0
H995 H 0.38588 0.99069 0.93022 0.0
H996 H 0.35584 0.97241 0.91432 0.0
H997 H 0.33908 0.10456 0.89854 0.0
H998 H 0.37217 0.09596 0.92804 0.0
H999 H 0.36126 0.08989 0.82281 0.0
H1000 H 0.45334 0.04826 0.90929 0.0
H1001 H 0.42098 0.03632 0.66317 0.0
H1002 H 0.39874 0.03039 0.02419 0.0
H1003 H 0.39564 0.06524 0.01505 0.0
H1004 H 0.4277 0.05088 0.03016 0.0
H1005 H 0.37519 0.03662 0.63899 0.0
H1006 H 0.35523 0.05353 0.71614 0.0
H1007 H 0.35827 0.01862 0.72058 0.0
C1008 C 0.5089 0.35221 0.04178 0.0
C1009 C 0.5157 0.3286 1.00117 0.0
C1010 C 0.50718 0.3763 0.99746 0.0
C1011 C 0.51242 0.3772 0.90963 0.0
C1012 C 0.51774 0.35314 0.86749 0.0
C1013 C 0.5195 0.32935 0.91354 0.0
C1014 C 0.50127 0.40111 0.04578 0.0
C1015 C 0.52341 0.35276 0.77429 0.0
C1016 C 0.49466 0.4389 0.77999 0.0
C1017 C 0.51875 0.45256 0.77551 0.0
C1018 C 0.49219 0.41469 0.82344 0.0
C1019 C 0.51443 0.40333 0.86336 0.0
C1020 C 0.53889 0.41697 0.85838 0.0
C1021 C 0.54075 0.44118 0.81463 0.0
C1022 C 0.46563 0.40137 0.82712 0.0
C1023 C 0.56322 0.40603 0.89989 0.0
H1024 H 0.50695 0.35218 0.10974 0.0
H1025 H 0.52581 0.31159 0.8818 0.0
H1026 H 0.51808 0.415 0.04047 0.0
H1027 H 0.48382 0.41092 0.01838 0.0
H1028 H 0.49736 0.39726 0.11349 0.0
H1029 H 0.52457 0.33244 0.74906 0.0
H1030 H 0.50792 0.3636 0.73962 0.0
H1031 H 0.54245 0.36283 0.76174 0.0
H1032 H 0.47763 0.44708 0.74872 0.0
H1033 H 0.55948 0.45144 0.81213 0.0
H1034 H 0.45833 0.4013 0.89299 0.0
H1035 H 0.4673 0.3806 0.80667 0.0
H1036 H 0.45082 0.41139 0.78714 0.0
H1037 H 0.55973 0.4037 0.96846 0.0
H1038 H 0.58075 0.41883 0.89049 0.0
H1039 H 0.56765 0.38626 0.87416 0.0
C1040 C 0.21593 0.50005 0.93174 0.0
C1041 C 0.21657 0.50849 0.01595 0.0
C1042 C 0.19347 0.50445 0.88026 0.0
C1043 C 0.17071 0.51706 0.91384 0.0
C1044 C 0.172 0.52693 0.99716 0.0
C1045 C 0.19478 0.52284 0.04623 0.0
C1046 C 0.19353 0.49433 0.7912 0.0
C1047 C 0.14865 0.54059 0.03656 0.0
C1048 C 0.11252 0.54212 0.77936 0.0
C1049 C 0.09384 0.52188 0.78834 0.0
C1050 C 0.13778 0.54061 0.81723 0.0
C1051 C 0.14487 0.5182 0.86556 0.0
C1052 C 0.12619 0.49746 0.87288 0.0
C1053 C 0.10118 0.49956 0.83434 0.0
C1054 C 0.15683 0.56307 0.80504 0.0
C1055 C 0.13219 0.47325 0.92407 0.0
H1056 H 0.23232 0.48869 0.90754 0.0
H1057 H 0.19489 0.52943 0.11112 0.0
H1058 H 0.17983 0.47738 0.7863 0.0
H1059 H 0.18642 0.50975 0.7475 0.0
H1060 H 0.21345 0.4879 0.77065 0.0
H1061 H 0.15309 0.54831 0.10034 0.0
H1062 H 0.14219 0.55714 0.9962 0.0
H1063 H 0.13187 0.52662 0.0416 0.0
H1064 H 0.10713 0.55955 0.74449 0.0
H1065 H 0.08743 0.48345 0.83961 0.0
H1066 H 0.17196 0.55726 0.75802 0.0
H1067 H 0.16721 0.56789 0.86439 0.0
H1068 H 0.14679 0.58103 0.78204 0.0
H1069 H 0.1522 0.46576 0.90947 0.0
H1070 H 0.11774 0.45725 0.9127 0.0
H1071 H 0.13169 0.47836 0.99195 0.0
C1072 C 1.00119 0.8348 0.45487 0.0
C1073 C 1.00594 0.83672 0.36801 0.0
C1074 C 1.00543 0.85665 0.50921 0.0
C1075 C 1.01413 0.88129 0.47625 0.0
C1076 C 0.02015 0.88272 0.38926 0.0
C1077 C 0.01663 0.86053 0.33747 0.0
C1078 C 1.00015 0.85346 0.60177 0.0
C1079 C 0.02892 0.90825 0.34935 0.0
C1080 C 0.9943 0.94675 0.5799 0.0
C1081 C 0.01812 0.9564 0.61291 0.0
C1082 C 0.99261 0.92223 0.53832 0.0
C1083 C 1.01527 0.90613 0.52963 0.0
C1084 C 0.03936 0.91539 0.56442 0.0
C1085 C 0.0405 0.94021 0.60539 0.0
C1086 C 0.96658 0.914 0.50087 0.0
C1087 C 0.06403 0.89905 0.55827 0.0
H1088 H 0.99312 0.81666 0.4798 0.0
H1089 H 0.02097 0.86228 0.27086 0.0
H1090 H 0.98583 0.86844 0.62329 0.0
H1091 H 0.99235 0.83366 0.61773 0.0
H1092 H 0.0188 0.85659 0.63656 0.0
H1093 H 0.0331 0.90613 0.28102 0.0
H1094 H 1.01333 0.9233 0.35763 0.0
H1095 H 0.04692 0.91575 0.38066 0.0
H1096 H 0.97672 0.95843 0.5863 0.0
H1097 H 0.0591 0.94706 0.63062 0.0
H1098 H 0.96053 0.89459 0.5262 0.0
H1099 H 0.96868 0.9119 0.43166 0.0
H1100 H 0.95065 0.92837 0.51404 0.0
H1101 H 0.06173 0.88131 0.59822 0.0
H1102 H 0.08178 0.91008 0.57884 0.0
H1103 H 0.06732 0.89218 0.4929 0.0
C1104 C 0.70252 0.99176 0.43228 0.0
C1105 C 0.71761 1.01294 0.40097 0.0
C1106 C 0.67902 0.9956 0.47868 0.0
C1107 C 0.67036 0.02137 0.4982 0.0
C1108 C 0.68652 0.04285 0.47237 0.0
C1109 C 0.70967 0.03844 0.42347 0.0
C1110 C 0.66218 0.972 0.49988 0.0
C1111 C 0.67841 0.07066 0.49159 0.0
C1112 C 0.59531 0.03112 0.52626 0.0
C1113 C 0.59165 0.02832 0.61363 0.0
C1114 C 0.62058 0.02954 0.48833 0.0
C1115 C 0.6434 0.02555 0.53859 0.0
C1116 C 0.63992 0.02372 0.62723 0.0
C1117 C 0.6143 0.02468 0.66314 0.0
C1118 C 0.62229 0.03243 0.39394 0.0
C1119 C 0.66331 0.02047 0.68458 0.0
H1120 H 0.70795 0.97199 0.41384 0.0
H1121 H 0.72049 0.05504 0.3981 0.0
H1122 H 0.657 0.97191 0.56769 0.0
H1123 H 0.64346 0.97305 0.46407 0.0
H1124 H 0.67211 0.95319 0.48432 0.0
H1125 H 0.69459 0.08489 0.47905 0.0
H1126 H 0.66129 0.07597 0.45188 0.0
H1127 H 0.67217 0.07245 0.55837 0.0
H1128 H 0.57825 0.03423 0.48666 0.0
H1129 H 0.61208 0.02191 0.73021 0.0
H1130 H 0.64077 0.02447 0.36697 0.0
H1131 H 0.62119 0.05361 0.37778 0.0
H1132 H 0.60533 0.02253 0.36319 0.0
H1133 H 0.6719 1.00064 0.67604 0.0
H1134 H 0.65788 0.0229 0.75194 0.0
H1135 H 0.67884 0.03503 0.66838 0.0
C1136 C 0.51835 0.71426 0.38579 0.0
C1137 C 0.54421 0.7239 0.37773 0.0
C1138 C 0.51283 0.6909 0.43178 0.0
C1139 C 0.53365 0.67641 0.46952 0.0
C1140 C 0.55948 0.687 0.46563 0.0
C1141 C 0.56434 0.71049 0.4208 0.0
C1142 C 0.48483 0.68107 0.43687 0.0
C1143 C 0.58238 0.67268 0.50483 0.0
C1144 C 0.52361 0.62023 0.6303 0.0
C1145 C 0.52635 0.59763 0.58038 0.0
C1146 C 0.5248 0.64588 0.59535 0.0
C1147 C 0.52908 0.64936 0.50759 0.0
C1148 C 0.5307 0.62658 0.45637 0.0
C1149 C 0.52886 0.60131 0.4929 0.0
C1150 C 0.52226 0.66915 0.65348 0.0
C1151 C 0.53542 0.62878 0.36278 0.0
H1152 H 0.50266 0.72405 0.35208 0.0
H1153 H 0.58444 0.71756 0.41474 0.0
H1154 H 0.48283 0.6628 0.39936 0.0
H1155 H 0.47967 0.67617 0.50299 0.0
H1156 H 0.47054 0.69574 0.41285 0.0
H1157 H 0.60117 0.68377 0.49868 0.0
H1158 H 0.57841 0.66913 0.57258 0.0
H1159 H 0.58481 0.65322 0.47428 0.0
H1160 H 0.52055 0.61784 0.69694 0.0
H1161 H 0.52963 0.58436 0.4522 0.0
H1162 H 0.5143 0.68669 0.62101 0.0
H1163 H 0.542 0.6742 0.67871 0.0
H1164 H 0.50921 0.66446 0.7075 0.0
H1165 H 0.5215 0.64293 0.33416 0.0
H1166 H 0.53329 0.60959 0.33024 0.0
H1167 H 0.55566 0.63633 0.35133 0.0
C1168 C 0.82611 0.5497 0.43249 0.0
C1169 C 0.82964 0.55278 0.34544 0.0
C1170 C 0.84787 0.54467 0.48646 0.0
C1171 C 0.87408 0.54337 0.45367 0.0
C1172 C 0.87741 0.54537 0.36542 0.0
C1173 C 0.85539 0.5493 0.31313 0.0
C1174 C 0.84273 0.54143 0.57892 0.0
C1175 C 0.90452 0.54459 0.32588 0.0
C1176 C 0.93588 0.56091 0.5835 0.0
C1177 C 0.94836 0.53651 0.59382 0.0
C1178 C 0.91141 0.56332 0.54134 0.0
C1179 C 0.89827 0.54069 0.50974 0.0
C1180 C 0.91014 0.51582 0.52386 0.0
C1181 C 0.93486 0.51405 0.56495 0.0
C1182 C 0.9001 0.59035 0.52799 0.0
C1183 C 0.89704 0.49097 0.4934 0.0
H1184 H 0.80653 0.55205 0.45886 0.0
H1185 H 0.85858 0.55058 0.24584 0.0
H1186 H 0.854 0.52446 0.6032 0.0
H1187 H 0.84931 0.55939 0.61219 0.0
H1188 H 0.82149 0.53831 0.59305 0.0
H1189 H 0.90389 0.54623 0.25621 0.0
H1190 H 0.91656 0.56103 0.35076 0.0
H1191 H 0.9147 0.52608 0.34262 0.0
H1192 H 0.9453 0.57829 0.60835 0.0
H1193 H 0.94385 0.49494 0.57315 0.0
H1194 H 0.87899 0.59075 0.5462 0.0
H1195 H 0.90138 0.59546 0.46021 0.0
H1196 H 0.91075 0.60559 0.5646 0.0
H1197 H 0.87602 0.49062 0.5129 0.0
H1198 H 0.90687 0.47306 0.51783 0.0
H1199 H 0.89756 0.49031 0.42368 0.0
loop_
_geom_bond_atom_site_label_1
_geom_bond_atom_site_label_2
_geom_bond_distance
_geom_bond_site_symmetry_2
_ccdc_geom_bond_type
H0 C5 0.930 . S
H1 C8 0.930 . S
H2 C10 0.930 . S
H3 C4 1.016 . S
C4 H3 1.016 . S
C4 N11 1.286 . S
C5 H0 0.930 . S
C5 C6 1.397 . S
C5 C7 1.361 . S
C6 C5 1.397 . S
C6 C10 1.390 . S
C7 C5 1.361 . S
C7 C8 1.393 . S
C7 N11 1.413 . S
C8 H1 0.930 . S
C8 C7 1.393 . S
C8 C9 1.399 . S
C9 C8 1.399 . S
C9 C10 1.381 . S
C10 H2 0.930 . S
C10 C6 1.390 . S
C10 C9 1.381 . S
N11 C4 1.286 . S
N11 C7 1.413 . S
H12 C17 0.930 . S
H13 C20 0.930 . S
H14 C22 0.930 . S
H15 C16 1.016 . S
C16 H15 1.016 . S
C16 N23 1.286 . S
C17 H12 0.930 . S
C17 C18 1.397 . S
C17 C19 1.361 . S
C18 C17 1.397 . S
C18 C22 1.390 . S
C19 C17 1.361 . S
C19 C20 1.393 . S
C19 N23 1.413 . S
C20 H13 0.930 . S
C20 C19 1.393 . S
C20 C21 1.399 . S
C21 C20 1.399 . S
C21 C22 1.381 . S
C22 H14 0.930 . S
C22 C18 1.390 . S
C22 C21 1.381 . S
N23 C16 1.286 . S
N23 C19 1.413 . S
H24 C29 0.930 . S
H25 C32 0.930 . S
H26 C34 0.930 . S
H27 C28 1.016 . S
C28 H27 1.016 . S
C28 N35 1.286 . S
C29 H24 0.930 . S
C29 C30 1.397 . S
C29 C31 1.361 . S
C30 C29 1.397 . S
C30 C34 1.390 . S
C31 C29 1.361 . S
C31 C32 1.393 . S
C31 N35 1.413 . S
C32 H25 0.930 . S
C32 C31 1.393 . S
C32 C33 1.399 . S
C33 C32 1.399 . S
C33 C34 1.381 . S
C34 H26 0.930 . S
C34 C30 1.390 . S
C34 C33 1.381 . S
N35 C28 1.286 . S
N35 C31 1.413 . S
H36 C41 0.930 . S
H37 C44 0.930 . S
H38 C46 0.930 . S
H39 C40 1.016 . S
C40 H39 1.016 . S
C40 N47 1.286 . S
C41 H36 0.930 . S
C41 C42 1.397 . S
C41 C43 1.361 . S
C42 C41 1.397 . S
C42 C46 1.390 . S
C43 C41 1.361 . S
C43 C44 1.393 . S
C43 N47 1.413 . S
C44 H37 0.930 . S
C44 C43 1.393 . S
C44 C45 1.399 . S
C45 C44 1.399 . S
C45 C46 1.381 . S
C46 H38 0.930 . S
C46 C42 1.390 . S
C46 C45 1.381 . S
N47 C40 1.286 . S
N47 C43 1.413 . S
H48 C53 0.930 . S
H49 C56 0.930 . S
H50 C58 0.930 . S
H51 C52 1.016 . S
C52 H51 1.016 . S
C52 N59 1.286 . S
C53 H48 0.930 . S
C53 C54 1.397 . S
C53 C55 1.361 1_556 S
C54 C53 1.397 . S
C54 C58 1.390 1_556 S
C55 C53 1.361 1_554 S
C55 C56 1.393 . S
C55 N59 1.413 . S
C56 H49 0.930 . S
C56 C55 1.393 . S
C56 C57 1.399 . S
C57 C56 1.399 . S
C57 C58 1.381 . S
C58 H50 0.930 . S
C58 C54 1.390 1_554 S
C58 C57 1.381 . S
N59 C52 1.286 . S
N59 C55 1.413 . S
H60 C65 0.930 . S
H61 C68 0.930 . S
H62 C70 0.930 . S
H63 C64 1.016 . S
C64 H63 1.016 . S
C64 N71 1.286 . S
C65 H60 0.930 . S
C65 C66 1.397 . S
C65 C67 1.361 1_556 S
C66 C65 1.397 . S
C66 C70 1.390 1_556 S
C67 C65 1.361 1_554 S
C67 C68 1.393 . S
C67 N71 1.413 . S
C68 H61 0.930 . S
C68 C67 1.393 . S
C68 C69 1.399 . S
C69 C68 1.399 . S
C69 C70 1.381 . S
C70 H62 0.930 . S
C70 C66 1.390 1_554 S
C70 C69 1.381 . S
N71 C64 1.286 . S
N71 C67 1.413 . S
H72 C77 0.930 . S
H73 C80 0.930 . S
H74 C82 0.930 . S
H75 C76 1.016 . S
C76 H75 1.016 . S
C76 N83 1.286 . S
C77 H72 0.930 . S
C77 C78 1.397 . S
C77 C79 1.361 1_556 S
C78 C77 1.397 . S
C78 C82 1.390 1_556 S
C79 C77 1.361 1_554 S
C79 C80 1.393 . S
C79 N83 1.413 . S
C80 H73 0.930 . S
C80 C79 1.393 . S
C80 C81 1.399 . S
C81 C80 1.399 . S
C81 C82 1.381 . S
C82 H74 0.930 . S
C82 C78 1.390 1_554 S
C82 C81 1.381 . S
N83 C76 1.286 . S
N83 C79 1.413 . S
H84 C89 0.930 . S
H85 C92 0.930 . S
H86 C94 0.930 . S
H87 C88 1.016 . S
C88 H87 1.016 . S
C88 N95 1.286 . S
C89 H84 0.930 . S
C89 C90 1.397 . S
C89 C91 1.361 1_556 S
C90 C89 1.397 . S
C90 C94 1.390 1_556 S
C91 C89 1.361 1_554 S
C91 C92 1.393 . S
C91 N95 1.413 . S
C92 H85 0.930 . S
C92 C91 1.393 . S
C92 C93 1.399 . S
C93 C92 1.399 . S
C93 C94 1.381 . S
C94 H86 0.930 . S
C94 C90 1.390 1_554 S
C94 C93 1.381 . S
N95 C88 1.286 . S
N95 C91 1.413 . S
Tb96 N125 2.617 . S
Tb96 N131 2.572 . S
Tb96 O140 2.465 1_655 S
Tb96 O141 2.387 1_545 S
Tb96 O143 2.428 . S
Tb96 O144 2.308 1_655 S
Tb96 O148 2.349 1_655 S
Tb96 O151 2.393 . S
Tb96 C160 2.802 . S
C97 N98 1.379 . S
C97 C100 1.416 . S
C97 C104 1.424 . S
N98 C97 1.379 . S
N98 C101 1.334 . S
N98 Tb107 2.617 1_545 S
C99 C101 1.390 . S
C99 C102 1.339 . S
C99 H119 0.930 . S
C100 C97 1.416 . S
C100 C102 1.416 . S
C100 C106 1.448 1_556 S
C101 N98 1.334 . S
C101 C99 1.390 . S
C101 H112 0.930 1_545 S
C102 C99 1.339 . S
C102 C100 1.416 . S
C102 H123 0.930 . S
C103 C104 1.413 1_554 S
C103 C105 1.427 . S
C103 C109 1.416 . S
C104 C97 1.424 . S
C104 C103 1.413 1_556 S
C104 N108 1.361 . S
C105 C103 1.427 . S
C105 C106 1.328 . S
C105 H120 0.929 . S
C106 C100 1.448 1_554 S
C106 C105 1.328 . S
C106 H121 0.930 . S
Tb107 N98 2.617 1_565 S
Tb107 N108 2.572 1_565 S
Tb107 O142 2.349 . S
Tb107 O145 2.393 . S
Tb107 O146 2.465 . S
Tb107 O147 2.387 1_565 S
Tb107 O149 2.428 . S
Tb107 O150 2.308 1_465 S
Tb107 C171 2.802 . S
N108 C104 1.361 . S
N108 Tb107 2.572 1_545 S
N108 C110 1.340 . S
C109 C103 1.416 . S
C109 C111 1.332 . S
C109 H117 0.931 . S
C110 N108 1.340 . S
C110 C111 1.407 1_556 S
C110 H116 0.930 1_455 S
C111 C109 1.332 . S
C111 C110 1.407 1_554 S
C111 H113 0.900 1_455 S
H112 C101 0.930 1_565 S
H113 C111 0.900 1_655 S
H114 C129 0.930 . S
H115 C136 0.929 . S
H116 C110 0.930 1_655 S
H117 C109 0.931 . S
H118 C132 0.930 . S
H119 C99 0.930 . S
H120 C105 0.929 . S
H121 C106 0.930 . S
H122 C127 0.930 . S
H123 C102 0.930 . S
H124 C135 0.931 . S
N125 Tb96 2.617 . S
N125 C126 1.379 . S
N125 C129 1.334 . S
C126 N125 1.379 . S
C126 C128 1.416 1_545 S
C126 C134 1.424 . S
C127 H122 0.930 . S
C127 C129 1.390 . S
C127 C130 1.339 1_545 S
C128 C126 1.416 1_565 S
C128 C130 1.416 . S
C128 C161 1.448 . S
C129 H114 0.930 . S
C129 N125 1.334 . S
C129 C127 1.390 . S
C130 C127 1.339 1_565 S
C130 C128 1.416 . S
C130 H137 0.930 . S
N131 Tb96 2.572 . S
N131 C132 1.340 1_655 S
N131 C134 1.361 . S
C132 H118 0.930 . S
C132 N131 1.340 1_455 S
C132 C136 1.407 1_545 S
C133 C134 1.413 1_565 S
C133 C135 1.416 . S
C133 C162 1.427 . S
C134 C126 1.424 . S
C134 N131 1.361 . S
C134 C133 1.413 1_545 S
C135 H124 0.931 . S
C135 C133 1.416 . S
C135 C136 1.332 1_655 S
C136 H115 0.929 . S
C136 C132 1.407 1_565 S
C136 C135 1.332 1_455 S
H137 C130 0.930 . S
H138 C161 0.930 . S
H139 C162 0.929 . S
O140 Tb96 2.465 1_455 S
O140 C160 1.264 1_455 S
O141 Tb96 2.387 1_565 S
O141 C152 1.264 . S
O142 Tb107 2.349 . S
O142 C152 1.243 1_455 S
O143 Tb96 2.428 . S
O143 C160 1.256 . S
O144 Tb96 2.308 1_455 S
O144 C159 1.266 . S
O145 Tb107 2.393 . S
O145 C159 1.248 1_565 S
O146 Tb107 2.465 . S
O146 C171 1.264 . S
O147 Tb107 2.387 1_545 S
O147 C163 1.264 . S
O148 Tb96 2.349 1_455 S
O148 C163 1.243 . S
O149 Tb107 2.428 . S
O149 C171 1.256 . S
O150 Tb107 2.308 1_645 S
O150 C170 1.266 . S
O151 Tb96 2.393 . S
O151 C170 1.248 . S
C152 O141 1.264 . S
C152 O142 1.243 1_655 S
C153 C156 1.399 . S
C153 C158 1.383 . S
C153 C160 1.496 . S
C154 C155 1.399 . S
C154 C158 1.389 . S
C155 C154 1.399 . S
C155 C157 1.380 . S
C155 H172 0.929 . S
C156 C153 1.399 . S
C156 C157 1.392 . S
C156 H173 0.929 . S
C157 C155 1.380 . S
C157 C156 1.392 . S
C157 H174 0.929 . S
C158 C153 1.383 . S
C158 C154 1.389 . S
C158 H175 0.931 1_655 S
C159 O144 1.266 . S
C159 O145 1.248 1_545 S
C160 Tb96 2.802 . S
C160 O140 1.264 1_655 S
C160 O143 1.256 . S
C160 C153 1.496 . S
C161 C128 1.448 . S
C161 H138 0.930 . S
C161 C162 1.328 . S
C162 C133 1.427 . S
C162 H139 0.929 . S
C162 C161 1.328 . S
C163 O147 1.264 . S
C163 O148 1.243 . S
C164 C167 1.399 . S
C164 C168 1.383 . S
C164 C171 1.496 . S
C165 C166 1.399 . S
C165 C168 1.389 . S
C166 C165 1.399 . S
C166 C169 1.380 . S
C166 H176 0.929 1_556 S
C167 C164 1.399 . S
C167 C169 1.392 . S
C167 H177 0.929 . S
C168 C164 1.383 . S
C168 C165 1.389 . S
C168 H178 0.931 . S
C169 C166 1.380 . S
C169 C167 1.392 . S
C169 H179 0.929 . S
C170 O150 1.266 . S
C170 O151 1.248 . S
C171 Tb107 2.802 . S
C171 O146 1.264 . S
C171 O149 1.256 . S
C171 C164 1.496 . S
H172 C155 0.929 . S
H173 C156 0.929 . S
H174 C157 0.929 . S
H175 C158 0.931 1_455 S
H176 C166 0.929 1_554 S
H177 C167 0.929 . S
H178 C168 0.931 . S
H179 C169 0.929 . S
Tb180 N209 2.617 . S
Tb180 N215 2.572 . S
Tb180 O224 2.465 . S
Tb180 O225 2.387 . S
Tb180 O227 2.428 . S
Tb180 O228 2.308 . S
Tb180 O232 2.349 1_545 S
Tb180 O235 2.393 . S
Tb180 C244 2.802 . S
C181 N182 1.379 . S
C181 C184 1.416 . S
C181 C188 1.424 . S
N182 C181 1.379 . S
N182 C185 1.334 . S
N182 Tb191 2.617 . S
C183 C185 1.390 . S
C183 C186 1.339 . S
C183 H203 0.930 . S
C184 C181 1.416 . S
C184 C186 1.416 . S
C184 C190 1.448 . S
C185 N182 1.334 . S
C185 C183 1.390 . S
C185 H196 0.930 . S
C186 C183 1.339 . S
C186 C184 1.416 . S
C186 H207 0.930 . S
C187 C188 1.413 . S
C187 C189 1.427 . S
C187 C193 1.416 . S
C188 C181 1.424 . S
C188 C187 1.413 . S
C188 N192 1.361 . S
C189 C187 1.427 . S
C189 C190 1.328 . S
C189 H204 0.929 . S
C190 C184 1.448 . S
C190 C189 1.328 . S
C190 H205 0.930 . S
Tb191 N182 2.617 . S
Tb191 N192 2.572 . S
Tb191 O226 2.349 1_565 S
Tb191 O229 2.393 . S
Tb191 O230 2.465 . S
Tb191 O231 2.387 . S
Tb191 O233 2.428 . S
Tb191 O234 2.308 1_565 S
Tb191 C255 2.802 . S
N192 C188 1.361 . S
N192 Tb191 2.572 . S
N192 C194 1.340 . S
C193 C187 1.416 . S
C193 C195 1.332 . S
C193 H201 0.931 . S
C194 N192 1.340 . S
C194 C195 1.407 . S
C194 H200 0.930 . S
C195 C193 1.332 . S
C195 C194 1.407 . S
C195 H197 0.929 . S
H196 C185 0.930 . S
H197 C195 0.929 . S
H198 C213 0.930 . S
H199 C220 0.929 . S
H200 C194 0.930 . S
H201 C193 0.931 . S
H202 C216 0.930 . S
H203 C183 0.930 . S
H204 C189 0.929 . S
H205 C190 0.930 . S
H206 C211 0.930 . S
H207 C186 0.930 . S
H208 C219 0.931 . S
N209 Tb180 2.617 . S
N209 C210 1.379 . S
N209 C213 1.334 . S
C210 N209 1.379 . S
C210 C212 1.416 . S
C210 C218 1.424 . S
C211 H206 0.930 . S
C211 C213 1.390 . S
C211 C214 1.339 . S
C212 C210 1.416 . S
C212 C214 1.416 . S
C212 C245 1.448 . S
C213 H198 0.930 . S
C213 N209 1.334 . S
C213 C211 1.390 . S
C214 C211 1.339 . S
C214 C212 1.416 . S
C214 H221 0.930 . S
N215 Tb180 2.572 . S
N215 C216 1.340 . S
N215 C218 1.361 . S
C216 H202 0.930 . S
C216 N215 1.340 . S
C216 C220 1.407 . S
C217 C218 1.413 . S
C217 C219 1.416 . S
C217 C246 1.427 . S
C218 C210 1.424 . S
C218 N215 1.361 . S
C218 C217 1.413 . S
C219 H208 0.931 . S
C219 C217 1.416 . S
C219 C220 1.332 . S
C220 H199 0.929 . S
C220 C216 1.407 . S
C220 C219 1.332 . S
H221 C214 0.930 . S
H222 C245 0.930 . S
H223 C246 0.929 . S
O224 Tb180 2.465 . S
O224 C244 1.264 . S
O225 Tb180 2.387 . S
O225 C236 1.264 . S
O226 Tb191 2.349 1_545 S
O226 C236 1.243 . S
O227 Tb180 2.428 . S
O227 C244 1.256 . S
O228 Tb180 2.308 . S
O228 C243 1.266 . S
O229 Tb191 2.393 . S
O229 C243 1.248 1_565 S
O230 Tb191 2.465 . S
O230 C255 1.264 . S
O231 Tb191 2.387 . S
O231 C247 1.264 . S
O232 Tb180 2.349 1_565 S
O232 C247 1.243 . S
O233 Tb191 2.428 . S
O233 C255 1.256 . S
O234 Tb191 2.308 1_545 S
O234 C254 1.266 . S
O235 Tb180 2.393 . S
O235 C254 1.248 . S
C236 O225 1.264 . S
C236 O226 1.243 . S
C237 C240 1.399 1_556 S
C237 C242 1.383 . S
C237 C244 1.496 . S
C238 C239 1.399 . S
C238 C242 1.389 1_554 S
C239 C238 1.399 . S
C239 C241 1.380 . S
C239 H256 0.929 . S
C240 C237 1.399 1_554 S
C240 C241 1.392 . S
C240 H257 0.929 . S
C241 C239 1.380 . S
C241 C240 1.392 . S
C241 H258 0.929 . S
C242 C237 1.383 . S
C242 C238 1.389 1_556 S
C242 H259 0.931 . S
C243 O228 1.266 . S
C243 O229 1.248 1_545 S
C244 Tb180 2.802 . S
C244 O224 1.264 . S
C244 O227 1.256 . S
C244 C237 1.496 . S
C245 C212 1.448 . S
C245 H222 0.930 . S
C245 C246 1.328 . S
C246 C217 1.427 . S
C246 H223 0.929 . S
C246 C245 1.328 . S
C247 O231 1.264 . S
C247 O232 1.243 . S
C248 C251 1.399 . S
C248 C252 1.383 1_565 S
C248 C255 1.496 . S
C249 C250 1.399 1_545 S
C249 C252 1.389 . S
C250 C249 1.399 1_565 S
C250 C253 1.380 . S
C250 H260 0.929 . S
C251 C248 1.399 . S
C251 C253 1.392 . S
C251 H261 0.929 . S
C252 C248 1.383 1_545 S
C252 C249 1.389 . S
C252 H262 0.931 . S
C253 C250 1.380 . S
C253 C251 1.392 . S
C253 H263 0.929 . S
C254 O234 1.266 . S
C254 O235 1.248 . S
C255 Tb191 2.802 . S
C255 O230 1.264 . S
C255 O233 1.256 . S
C255 C248 1.496 . S
H256 C239 0.929 . S
H257 C240 0.929 . S
H258 C241 0.929 . S
H259 C242 0.931 . S
H260 C250 0.929 . S
H261 C251 0.929 . S
H262 C252 0.931 . S
H263 C253 0.929 . S
Tb264 N293 2.617 . S
Tb264 N299 2.572 . S
Tb264 O308 2.465 . S
Tb264 O309 2.387 . S
Tb264 O311 2.428 . S
Tb264 O312 2.308 . S
Tb264 O316 2.349 . S
Tb264 O319 2.393 . S
Tb264 C328 2.802 . S
C265 N266 1.379 . S
C265 C268 1.416 . S
C265 C272 1.424 . S
N266 C265 1.379 . S
N266 C269 1.334 . S
N266 Tb275 2.617 . S
C267 C269 1.390 . S
C267 C270 1.339 . S
C267 H287 0.930 . S
C268 C265 1.416 . S
C268 C270 1.416 . S
C268 C274 1.448 1_556 S
C269 N266 1.334 . S
C269 C267 1.390 . S
C269 H280 0.930 . S
C270 C267 1.339 . S
C270 C268 1.416 . S
C270 H291 0.930 . S
C271 C272 1.413 1_554 S
C271 C273 1.427 . S
C271 C277 1.416 . S
C272 C265 1.424 . S
C272 C271 1.413 1_556 S
C272 N276 1.361 . S
C273 C271 1.427 . S
C273 C274 1.328 . S
C273 H288 0.929 . S
C274 C268 1.448 1_554 S
C274 C273 1.328 . S
C274 H289 0.930 . S
Tb275 N266 2.617 . S
Tb275 N276 2.572 . S
Tb275 O310 2.349 . S
Tb275 O313 2.393 . S
Tb275 O314 2.465 . S
Tb275 O315 2.387 . S
Tb275 O317 2.428 . S
Tb275 O318 2.308 . S
Tb275 C339 2.802 . S
N276 C272 1.361 . S
N276 Tb275 2.572 . S
N276 C278 1.340 . S
C277 C271 1.416 . S
C277 C279 1.332 . S
C277 H285 0.931 . S
C278 N276 1.340 . S
C278 C279 1.407 1_556 S
C278 H284 0.930 . S
C279 C277 1.332 . S
C279 C278 1.407 1_554 S
C279 H281 0.929 . S
H280 C269 0.930 . S
H281 C279 0.929 . S
H282 C297 0.930 . S
H283 C304 0.929 . S
H284 C278 0.930 . S
H285 C277 0.931 . S
H286 C300 0.930 . S
H287 C267 0.930 . S
H288 C273 0.929 . S
H289 C274 0.930 . S
H290 C295 0.930 . S
H291 C270 0.930 . S
H292 C303 0.931 . S
N293 Tb264 2.617 . S
N293 C294 1.379 . S
N293 C297 1.334 . S
C294 N293 1.379 . S
C294 C296 1.416 . S
C294 C302 1.424 . S
C295 H290 0.930 . S
C295 C297 1.390 . S
C295 C298 1.339 . S
C296 C294 1.416 . S
C296 C298 1.416 . S
C296 C329 1.448 . S
C297 H282 0.930 . S
C297 N293 1.334 . S
C297 C295 1.390 . S
C298 C295 1.339 . S
C298 C296 1.416 . S
C298 H305 0.930 . S
N299 Tb264 2.572 . S
N299 C300 1.340 . S
N299 C302 1.361 . S
C300 H286 0.930 . S
C300 N299 1.340 . S
C300 C304 1.407 . S
C301 C302 1.413 . S
C301 C303 1.416 . S
C301 C330 1.427 . S
C302 C294 1.424 . S
C302 N299 1.361 . S
C302 C301 1.413 . S
C303 H292 0.931 . S
C303 C301 1.416 . S
C303 C304 1.332 . S
C304 H283 0.929 . S
C304 C300 1.407 . S
C304 C303 1.332 . S
H305 C298 0.930 . S
H306 C329 0.930 . S
H307 C330 0.929 . S
O308 Tb264 2.465 . S
O308 C328 1.264 . S
O309 Tb264 2.387 . S
O309 C320 1.264 . S
O310 Tb275 2.349 . S
O310 C320 1.243 . S
O311 Tb264 2.428 . S
O311 C328 1.256 . S
O312 Tb264 2.308 . S
O312 C327 1.266 . S
O313 Tb275 2.393 . S
O313 C327 1.248 . S
O314 Tb275 2.465 . S
O314 C339 1.264 . S
O315 Tb275 2.387 . S
O315 C331 1.264 . S
O316 Tb264 2.349 . S
O316 C331 1.243 . S
O317 Tb275 2.428 . S
O317 C339 1.256 . S
O318 Tb275 2.308 . S
O318 C338 1.266 . S
O319 Tb264 2.393 . S
O319 C338 1.248 . S
C320 O309 1.264 . S
C320 O310 1.243 . S
C321 C324 1.399 . S
C321 C326 1.383 . S
C321 C328 1.496 . S
C322 C323 1.399 . S
C322 C326 1.389 . S
C323 C322 1.399 . S
C323 C325 1.380 . S
C323 H340 0.929 . S
C324 C321 1.399 . S
C324 C325 1.392 . S
C324 H341 0.929 . S
C325 C323 1.380 . S
C325 C324 1.392 . S
C325 H342 0.929 . S
C326 C321 1.383 . S
C326 C322 1.389 . S
C326 H343 0.931 . S
C327 O312 1.266 . S
C327 O313 1.248 . S
C328 Tb264 2.802 . S
C328 O308 1.264 . S
C328 O311 1.256 . S
C328 C321 1.496 . S
C329 C296 1.448 . S
C329 H306 0.930 . S
C329 C330 1.328 . S
C330 C301 1.427 . S
C330 H307 0.929 . S
C330 C329 1.328 . S
C331 O315 1.264 . S
C331 O316 1.243 . S
C332 C335 1.399 . S
C332 C336 1.383 . S
C332 C339 1.496 . S
C333 C334 1.399 . S
C333 C336 1.389 . S
C334 C333 1.399 . S
C334 C337 1.380 . S
C334 H344 0.929 1_556 S
C335 C332 1.399 . S
C335 C337 1.392 . S
C335 H345 0.929 . S
C336 C332 1.383 . S
C336 C333 1.389 . S
C336 H346 0.931 . S
C337 C334 1.380 . S
C337 C335 1.392 . S
C337 H347 0.929 . S
C338 O318 1.266 . S
C338 O319 1.248 . S
C339 Tb275 2.802 . S
C339 O314 1.264 . S
C339 O317 1.256 . S
C339 C332 1.496 . S
H340 C323 0.929 . S
H341 C324 0.929 . S
H342 C325 0.929 . S
H343 C326 0.931 . S
H344 C334 0.929 1_554 S
H345 C335 0.929 . S
H346 C336 0.931 . S
H347 C337 0.929 . S
Tb348 N377 2.617 . S
Tb348 N383 2.572 . S
Tb348 O392 2.465 . S
Tb348 O393 2.387 1_455 S
Tb348 O395 2.428 . S
Tb348 O396 2.308 . S
Tb348 O400 2.349 . S
Tb348 O403 2.393 . S
Tb348 C412 2.802 . S
C349 N350 1.379 . S
C349 C352 1.416 . S
C349 C356 1.424 . S
N350 C349 1.379 . S
N350 C353 1.332 1_455 S
N350 Tb359 2.617 1_455 S
C351 C353 1.381 1_455 S
C351 C354 1.339 . S
C351 H371 0.930 . S
C352 C349 1.416 . S
C352 C354 1.416 . S
C352 C358 1.448 1_556 S
C353 N350 1.332 1_655 S
C353 C351 1.381 1_655 S
C353 H364 0.943 . S
C354 C351 1.339 . S
C354 C352 1.416 . S
C354 H375 0.930 . S
C355 C356 1.413 1_554 S
C355 C357 1.427 . S
C355 C361 1.416 . S
C356 C349 1.424 . S
C356 C355 1.413 1_556 S
C356 N360 1.361 . S
C357 C355 1.427 . S
C357 C358 1.328 . S
C357 H372 0.929 . S
C358 C352 1.448 1_554 S
C358 C357 1.328 . S
C358 H373 0.930 . S
Tb359 N350 2.617 1_655 S
Tb359 N360 2.572 1_655 S
Tb359 O394 2.349 . S
Tb359 O397 2.393 . S
Tb359 O398 2.465 . S
Tb359 O399 2.387 1_655 S
Tb359 O401 2.428 . S
Tb359 O402 2.308 1_655 S
Tb359 C423 2.802 . S
N360 C356 1.361 . S
N360 Tb359 2.572 1_455 S
N360 C362 1.340 . S
C361 C355 1.416 . S
C361 C363 1.332 . S
C361 H369 0.931 . S
C362 N360 1.340 . S
C362 C363 1.407 1_556 S
C362 H368 0.930 . S
C363 C361 1.332 . S
C363 C362 1.407 1_554 S
C363 H365 0.929 . S
H364 C353 0.943 . S
H365 C363 0.929 . S
H366 C381 0.930 . S
H367 C388 0.929 . S
H368 C362 0.930 . S
H369 C361 0.931 . S
H370 C384 0.930 . S
H371 C351 0.930 . S
H372 C357 0.929 . S
H373 C358 0.930 . S
H374 C379 0.930 . S
H375 C354 0.930 . S
H376 C387 0.931 . S
N377 Tb348 2.617 . S
N377 C378 1.379 . S
N377 C381 1.334 . S
C378 N377 1.379 . S
C378 C380 1.416 1_455 S
C378 C386 1.424 . S
C379 H374 0.930 . S
C379 C381 1.390 . S
C379 C382 1.339 1_455 S
C380 C378 1.416 1_655 S
C380 C382 1.416 . S
C380 C413 1.448 . S
C381 H366 0.930 . S
C381 N377 1.334 . S
C381 C379 1.390 . S
C382 C379 1.339 1_655 S
C382 C380 1.416 . S
C382 H389 0.930 . S
N383 Tb348 2.572 . S
N383 C384 1.340 . S
N383 C386 1.362 . S
C384 H370 0.930 . S
C384 N383 1.340 . S
C384 C388 1.407 1_455 S
C385 C386 1.411 1_655 S
C385 C387 1.416 . S
C385 C414 1.427 . S
C386 C378 1.424 . S
C386 N383 1.362 . S
C386 C385 1.411 1_455 S
C387 H376 0.931 . S
C387 C385 1.416 . S
C387 C388 1.332 . S
C388 H367 0.929 . S
C388 C384 1.407 1_655 S
C388 C387 1.332 . S
H389 C382 0.930 . S
H390 C413 0.930 . S
H391 C414 0.929 . S
O392 Tb348 2.465 . S
O392 C412 1.264 . S
O393 Tb348 2.387 1_655 S
O393 C404 1.264 . S
O394 Tb359 2.349 . S
O394 C404 1.243 . S
O395 Tb348 2.428 . S
O395 C412 1.256 . S
O396 Tb348 2.308 . S
O396 C411 1.266 . S
O397 Tb359 2.393 . S
O397 C411 1.248 1_655 S
O398 Tb359 2.465 . S
O398 C423 1.264 . S
O399 Tb359 2.387 1_455 S
O399 C415 1.264 . S
O400 Tb348 2.349 . S
O400 C415 1.243 . S
O401 Tb359 2.428 . S
O401 C423 1.256 . S
O402 Tb359 2.308 1_455 S
O402 C422 1.266 . S
O403 Tb348 2.393 . S
O403 C422 1.248 . S
C404 O393 1.264 . S
C404 O394 1.243 . S
C405 C408 1.399 . S
C405 C410 1.383 . S
C405 C412 1.496 . S
C406 C407 1.399 . S
C406 C410 1.389 . S
C407 C406 1.399 . S
C407 C409 1.380 . S
C407 H424 0.929 . S
C408 C405 1.399 . S
C408 C409 1.392 . S
C408 H425 0.929 . S
C409 C407 1.380 . S
C409 C408 1.392 . S
C409 H426 0.929 . S
C410 C405 1.383 . S
C410 C406 1.389 . S
C410 H427 0.931 . S
C411 O396 1.266 . S
C411 O397 1.248 1_455 S
C412 Tb348 2.802 . S
C412 O392 1.264 . S
C412 O395 1.256 . S
C412 C405 1.496 . S
C413 C380 1.448 . S
C413 H390 0.930 . S
C413 C414 1.328 . S
C414 C385 1.427 . S
C414 H391 0.929 . S
C414 C413 1.328 . S
C415 O399 1.264 . S
C415 O400 1.243 . S
C416 C419 1.399 . S
C416 C420 1.383 . S
C416 C423 1.496 . S
C417 C418 1.399 . S
C417 C420 1.389 . S
C418 C417 1.399 . S
C418 C421 1.380 . S
C418 H428 0.929 1_556 S
C419 C416 1.399 . S
C419 C421 1.392 . S
C419 H429 0.929 . S
C420 C416 1.383 . S
C420 C417 1.389 . S
C420 H430 0.931 . S
C421 C418 1.380 . S
C421 C419 1.392 . S
C421 H431 0.929 . S
C422 O402 1.266 . S
C422 O403 1.248 . S
C423 Tb359 2.802 . S
C423 O398 1.264 . S
C423 O401 1.256 . S
C423 C416 1.496 . S
H424 C407 0.929 . S
H425 C408 0.929 . S
H426 C409 0.929 . S
H427 C410 0.931 . S
H428 C418 0.929 1_554 S
H429 C419 0.929 . S
H430 C420 0.931 . S
H431 C421 0.929 . S
C432 C433 1.391 . S
C432 C434 1.394 . S
C432 H448 0.931 . S
C433 C432 1.391 . S
C433 C437 1.376 . S
C434 C432 1.394 . S
C434 C435 1.369 . S
C434 C438 1.531 . S
C435 C434 1.369 . S
C435 C436 1.410 . S
C435 C443 1.503 . S
C436 C435 1.410 . S
C436 C437 1.392 . S
C436 C439 1.511 . S
C437 C433 1.376 . S
C437 C436 1.392 . S
C437 H449 0.929 . S
C438 C434 1.531 . S
C438 H450 0.960 . S
C438 H451 0.962 . S
C438 H452 0.960 . S
C439 C436 1.511 . S
C439 H453 0.961 . S
C439 H454 0.961 . S
C439 H455 0.961 . S
C440 C441 1.370 . S
C440 C442 1.363 . S
C440 H456 0.931 1_545 S
C441 C440 1.370 . S
C441 C445 1.408 . S
C442 C440 1.363 . S
C442 C443 1.370 . S
C442 C446 1.524 1_545 S
C443 C435 1.503 . S
C443 C442 1.370 . S
C443 C444 1.403 . S
C444 C443 1.403 . S
C444 C445 1.404 . S
C444 C447 1.539 . S
C445 C441 1.408 . S
C445 C444 1.404 . S
C445 H457 0.930 . S
C446 C442 1.524 1_565 S
C446 H458 0.956 . S
C446 H459 0.961 . S
C446 H460 0.961 . S
C447 C444 1.539 . S
C447 H461 0.958 . S
C447 H462 0.961 . S
C447 H463 0.960 . S
H448 C432 0.931 . S
H449 C437 0.929 . S
H450 C438 0.960 . S
H451 C438 0.962 . S
H452 C438 0.960 . S
H453 C439 0.961 . S
H454 C439 0.961 . S
H455 C439 0.961 . S
H456 C440 0.931 1_565 S
H457 C445 0.930 . S
H458 C446 0.956 . S
H459 C446 0.961 . S
H460 C446 0.961 . S
H461 C447 0.958 . S
H462 C447 0.961 . S
H463 C447 0.960 . S
C464 C465 1.391 . S
C464 C466 1.394 . S
C464 H480 0.931 . S
C465 C464 1.391 . S
C465 C469 1.376 . S
C466 C464 1.394 . S
C466 C467 1.369 . S
C466 C470 1.531 . S
C467 C466 1.369 . S
C467 C468 1.410 . S
C467 C475 1.503 . S
C468 C467 1.410 . S
C468 C469 1.392 . S
C468 C471 1.511 . S
C469 C465 1.376 . S
C469 C468 1.392 . S
C469 H481 0.929 . S
C470 C466 1.531 . S
C470 H482 0.960 . S
C470 H483 0.962 . S
C470 H484 0.960 . S
C471 C468 1.511 . S
C471 H485 0.961 . S
C471 H486 0.961 . S
C471 H487 0.961 . S
C472 C473 1.370 . S
C472 C474 1.363 . S
C472 H488 0.931 . S
C473 C472 1.370 . S
C473 C477 1.408 . S
C474 C472 1.363 . S
C474 C475 1.370 . S
C474 C478 1.524 . S
C475 C467 1.503 . S
C475 C474 1.370 . S
C475 C476 1.403 . S
C476 C475 1.403 . S
C476 C477 1.404 . S
C476 C479 1.539 . S
C477 C473 1.408 . S
C477 C476 1.404 . S
C477 H489 0.930 . S
C478 C474 1.524 . S
C478 H490 0.956 . S
C478 H491 0.961 . S
C478 H492 0.961 . S
C479 C476 1.539 . S
C479 H493 0.958 . S
C479 H494 0.961 . S
C479 H495 0.960 . S
H480 C464 0.931 . S
H481 C469 0.929 . S
H482 C470 0.960 . S
H483 C470 0.962 . S
H484 C470 0.960 . S
H485 C471 0.961 . S
H486 C471 0.961 . S
H487 C471 0.961 . S
H488 C472 0.931 . S
H489 C477 0.930 . S
H490 C478 0.956 . S
H491 C478 0.961 . S
H492 C478 0.961 . S
H493 C479 0.958 . S
H494 C479 0.961 . S
H495 C479 0.960 . S
C496 C497 1.391 . S
C496 C498 1.394 . S
C496 H512 0.931 . S
C497 C496 1.391 . S
C497 C501 1.376 . S
C498 C496 1.394 . S
C498 C499 1.369 . S
C498 C502 1.531 . S
C499 C498 1.369 . S
C499 C500 1.410 . S
C499 C507 1.503 . S
C500 C499 1.410 . S
C500 C501 1.392 . S
C500 C503 1.511 . S
C501 C497 1.376 . S
C501 C500 1.392 . S
C501 H513 0.929 . S
C502 C498 1.531 . S
C502 H514 0.960 . S
C502 H515 0.962 . S
C502 H516 0.960 . S
C503 C500 1.511 . S
C503 H517 0.961 . S
C503 H518 0.961 . S
C503 H519 0.961 . S
C504 C505 1.370 . S
C504 C506 1.363 . S
C504 H520 0.931 . S
C505 C504 1.370 . S
C505 C509 1.408 . S
C506 C504 1.363 . S
C506 C507 1.370 . S
C506 C510 1.524 . S
C507 C499 1.503 . S
C507 C506 1.370 . S
C507 C508 1.403 . S
C508 C507 1.403 . S
C508 C509 1.404 . S
C508 C511 1.539 . S
C509 C505 1.408 . S
C509 C508 1.404 . S
C509 H521 0.930 . S
C510 C506 1.524 . S
C510 H522 0.956 . S
C510 H523 0.961 . S
C510 H524 0.961 . S
C511 C508 1.539 . S
C511 H525 0.958 . S
C511 H526 0.961 . S
C511 H527 0.960 . S
H512 C496 0.931 . S
H513 C501 0.929 . S
H514 C502 0.960 . S
H515 C502 0.962 . S
H516 C502 0.960 . S
H517 C503 0.961 . S
H518 C503 0.961 . S
H519 C503 0.961 . S
H520 C504 0.931 . S
H521 C509 0.930 . S
H522 C510 0.956 . S
H523 C510 0.961 . S
H524 C510 0.961 . S
H525 C511 0.958 . S
H526 C511 0.961 . S
H527 C511 0.960 . S
C528 C529 1.391 . S
C528 C530 1.394 . S
C528 H544 0.931 . S
C529 C528 1.391 . S
C529 C533 1.376 . S
C530 C528 1.394 . S
C530 C531 1.369 . S
C530 C534 1.531 . S
C531 C530 1.369 . S
C531 C532 1.410 . S
C531 C539 1.503 . S
C532 C531 1.410 . S
C532 C533 1.392 . S
C532 C535 1.511 . S
C533 C529 1.376 . S
C533 C532 1.392 . S
C533 H545 0.929 . S
C534 C530 1.531 . S
C534 H546 0.960 . S
C534 H547 0.962 . S
C534 H548 0.960 . S
C535 C532 1.511 . S
C535 H549 0.961 . S
C535 H550 0.961 . S
C535 H551 0.961 1_455 S
C536 C537 1.370 . S
C536 C538 1.363 . S
C536 H552 0.931 . S
C537 C536 1.370 . S
C537 C541 1.408 1_455 S
C538 C536 1.363 . S
C538 C539 1.370 . S
C538 C542 1.524 . S
C539 C531 1.503 . S
C539 C538 1.370 . S
C539 C540 1.403 1_455 S
C540 C539 1.403 1_655 S
C540 C541 1.404 . S
C540 C543 1.539 . S
C541 C537 1.408 1_655 S
C541 C540 1.404 . S
C541 H553 0.930 . S
C542 C538 1.524 . S
C542 H554 0.956 . S
C542 H555 0.961 . S
C542 H556 0.961 . S
C543 C540 1.539 . S
C543 H557 0.958 . S
C543 H558 0.961 . S
C543 H559 0.960 . S
H544 C528 0.931 . S
H545 C533 0.929 . S
H546 C534 0.960 . S
H547 C534 0.962 . S
H548 C534 0.960 . S
H549 C535 0.961 . S
H550 C535 0.961 . S
H551 C535 0.961 1_655 S
H552 C536 0.931 . S
H553 C541 0.930 . S
H554 C542 0.956 . S
H555 C542 0.961 . S
H556 C542 0.961 . S
H557 C543 0.958 . S
H558 C543 0.961 . S
H559 C543 0.960 . S
C560 C561 1.391 . S
C560 C562 1.394 . S
C560 H576 0.931 . S
C561 C560 1.391 . S
C561 C565 1.376 . S
C562 C560 1.394 . S
C562 C563 1.369 . S
C562 C566 1.531 . S
C563 C562 1.369 . S
C563 C564 1.410 . S
C563 C571 1.503 1_554 S
C564 C563 1.410 . S
C564 C565 1.392 . S
C564 C567 1.511 1_554 S
C565 C561 1.376 . S
C565 C564 1.392 . S
C565 H577 0.929 . S
C566 C562 1.531 . S
C566 H578 0.960 . S
C566 H579 0.962 . S
C566 H580 0.960 . S
C567 C564 1.511 1_556 S
C567 H581 0.961 . S
C567 H582 0.961 . S
C567 H583 0.961 . S
C568 C569 1.351 1_545 S
C568 C570 1.363 . S
C568 H584 0.931 . S
C569 C568 1.351 1_565 S
C569 C573 1.433 . S
C570 C568 1.363 . S
C570 C571 1.370 1_545 S
C570 C574 1.524 1_556 S
C571 C563 1.503 1_556 S
C571 C570 1.370 1_565 S
C571 C572 1.403 . S
C572 C571 1.403 . S
C572 C573 1.404 . S
C572 C575 1.539 . S
C573 C569 1.433 . S
C573 C572 1.404 . S
C573 H585 0.930 . S
C574 C570 1.524 1_554 S
C574 H586 0.956 . S
C574 H587 0.961 . S
C574 H588 0.961 1_554 S
C575 C572 1.539 . S
C575 H589 0.958 . S
C575 H590 0.961 . S
C575 H591 0.960 . S
H576 C560 0.931 . S
H577 C565 0.929 . S
H578 C566 0.960 . S
H579 C566 0.962 . S
H580 C566 0.960 . S
H581 C567 0.961 . S
H582 C567 0.961 . S
H583 C567 0.961 . S
H584 C568 0.931 . S
H585 C573 0.930 . S
H586 C574 0.956 . S
H587 C574 0.961 . S
H588 C574 0.961 1_556 S
H589 C575 0.958 . S
H590 C575 0.961 . S
H591 C575 0.960 . S
C592 C593 1.391 . S
C592 C594 1.394 . S
C592 H608 0.931 . S
C593 C592 1.391 . S
C593 C597 1.376 . S
C594 C592 1.394 . S
C594 C595 1.369 . S
C594 C598 1.531 . S
C595 C594 1.369 . S
C595 C596 1.410 . S
C595 C603 1.503 1_554 S
C596 C595 1.410 . S
C596 C597 1.392 . S
C596 C599 1.511 . S
C597 C593 1.376 . S
C597 C596 1.392 . S
C597 H609 0.929 . S
C598 C594 1.531 . S
C598 H610 0.960 1_554 S
C598 H611 0.962 . S
C598 H612 0.960 . S
C599 C596 1.511 . S
C599 H613 0.961 . S
C599 H614 0.961 . S
C599 H615 0.961 . S
C600 C601 1.370 . S
C600 C602 1.363 1_556 S
C600 H616 0.931 . S
C601 C600 1.370 . S
C601 C605 1.408 . S
C602 C600 1.363 1_554 S
C602 C603 1.370 1_554 S
C602 C606 1.524 . S
C603 C595 1.503 1_556 S
C603 C602 1.370 1_556 S
C603 C604 1.403 . S
C604 C603 1.403 . S
C604 C605 1.404 . S
C604 C607 1.539 . S
C605 C601 1.408 . S
C605 C604 1.404 . S
C605 H617 0.930 . S
C606 C602 1.524 . S
C606 H618 0.956 . S
C606 H619 0.961 . S
C606 H620 0.961 . S
C607 C604 1.539 . S
C607 H621 0.958 . S
C607 H622 0.961 . S
C607 H623 0.960 . S
H608 C592 0.931 . S
H609 C597 0.929 . S
H610 C598 0.960 1_556 S
H611 C598 0.962 . S
H612 C598 0.960 . S
H613 C599 0.961 . S
H614 C599 0.961 . S
H615 C599 0.961 . S
H616 C600 0.931 . S
H617 C605 0.930 . S
H618 C606 0.956 . S
H619 C606 0.961 . S
H620 C606 0.961 . S
H621 C607 0.958 . S
H622 C607 0.961 . S
H623 C607 0.960 . S
C624 C625 1.391 . S
C624 C626 1.394 . S
C624 H640 0.931 . S
C625 C624 1.391 . S
C625 C629 1.376 . S
C626 C624 1.394 . S
C626 C627 1.369 . S
C626 C630 1.531 . S
C627 C626 1.369 . S
C627 C628 1.410 . S
C627 C635 1.503 1_554 S
C628 C627 1.410 . S
C628 C629 1.392 . S
C628 C631 1.511 1_554 S
C629 C625 1.376 . S
C629 C628 1.392 . S
C629 H641 0.929 . S
C630 C626 1.531 . S
C630 H642 0.960 . S
C630 H643 0.962 . S
C630 H644 0.960 . S
C631 C628 1.511 1_556 S
C631 H645 0.961 . S
C631 H646 0.961 . S
C631 H647 0.961 . S
C632 C633 1.370 . S
C632 C634 1.363 . S
C632 H648 0.931 . S
C633 C632 1.370 . S
C633 C637 1.408 . S
C634 C632 1.363 . S
C634 C635 1.370 . S
C634 C638 1.524 . S
C635 C627 1.503 1_556 S
C635 C634 1.370 . S
C635 C636 1.403 . S
C636 C635 1.403 . S
C636 C637 1.404 . S
C636 C639 1.539 1_556 S
C637 C633 1.408 . S
C637 C636 1.404 . S
C637 H649 0.930 . S
C638 C634 1.524 . S
C638 H650 0.956 1_556 S
C638 H651 0.961 . S
C638 H652 0.961 . S
C639 C636 1.539 1_554 S
C639 H653 0.958 . S
C639 H654 0.968 . S
C639 H655 0.960 . S
H640 C624 0.931 . S
H641 C629 0.929 . S
H642 C630 0.960 . S
H643 C630 0.962 . S
H644 C630 0.960 . S
H645 C631 0.961 . S
H646 C631 0.961 . S
H647 C631 0.961 . S
H648 C632 0.931 . S
H649 C637 0.930 . S
H650 C638 0.956 1_554 S
H651 C638 0.961 . S
H652 C638 0.961 . S
H653 C639 0.958 . S
H654 C639 0.968 . S
H655 C639 0.960 . S
C656 C657 1.391 . S
C656 C658 1.394 . S
C656 H672 0.919 1_655 S
C657 C656 1.391 . S
C657 C661 1.376 . S
C658 C656 1.394 . S
C658 C659 1.369 . S
C658 C662 1.531 1_655 S
C659 C658 1.369 . S
C659 C660 1.410 . S
C659 C667 1.503 1_554 S
C660 C659 1.410 . S
C660 C661 1.392 . S
C660 C663 1.511 1_554 S
C661 C657 1.376 . S
C661 C660 1.392 . S
C661 H673 0.929 . S
C662 C658 1.531 1_455 S
C662 H674 0.960 . S
C662 H675 0.962 . S
C662 H676 0.960 . S
C663 C660 1.511 1_556 S
C663 H677 0.961 . S
C663 H678 0.961 . S
C663 H679 0.961 . S
C664 C665 1.370 1_455 S
C664 C666 1.363 . S
C664 H680 0.931 . S
C665 C664 1.370 1_655 S
C665 C669 1.408 . S
C666 C664 1.363 . S
C666 C667 1.370 1_455 S
C666 C670 1.524 . S
C667 C659 1.503 1_556 S
C667 C666 1.370 1_655 S
C667 C668 1.403 . S
C668 C667 1.403 . S
C668 C669 1.404 . S
C668 C671 1.539 1_556 S
C669 C665 1.408 . S
C669 C668 1.404 . S
C669 H681 0.930 . S
C670 C666 1.524 . S
C670 H682 0.956 1_556 S
C670 H683 0.961 . S
C670 H684 0.961 . S
C671 C668 1.539 1_554 S
C671 H685 0.958 . S
C671 H686 0.961 1_554 S
C671 H687 0.960 . S
H672 C656 0.919 1_455 S
H673 C661 0.929 . S
H674 C662 0.960 . S
H675 C662 0.962 . S
H676 C662 0.960 . S
H677 C663 0.961 . S
H678 C663 0.961 . S
H679 C663 0.961 . S
H680 C664 0.931 . S
H681 C669 0.930 . S
H682 C670 0.956 1_554 S
H683 C670 0.961 . S
H684 C670 0.961 . S
H685 C671 0.958 . S
H686 C671 0.961 1_556 S
H687 C671 0.960 . S
C688 C689 1.391 . S
C688 C690 1.394 . S
C688 H704 0.951 . S
C689 C688 1.391 . S
C689 C693 1.376 . S
C690 C688 1.394 . S
C690 C691 1.369 . S
C690 C694 1.531 1_455 S
C691 C690 1.369 . S
C691 C692 1.410 . S
C691 C699 1.503 . S
C692 C691 1.410 . S
C692 C693 1.392 . S
C692 C695 1.511 . S
C693 C689 1.376 . S
C693 C692 1.392 . S
C693 H705 0.929 . S
C694 C690 1.531 1_655 S
C694 H706 0.960 . S
C694 H707 0.962 . S
C694 H708 0.960 . S
C695 C692 1.511 . S
C695 H709 0.961 . S
C695 H710 0.961 . S
C695 H711 0.961 . S
C696 C697 1.370 . S
C696 C698 1.363 . S
C696 H712 0.930 . S
C697 C696 1.370 . S
C697 C701 1.408 . S
C698 C696 1.363 . S
C698 C699 1.370 . S
C698 C702 1.524 . S
C699 C691 1.503 . S
C699 C698 1.370 . S
C699 C700 1.403 . S
C700 C699 1.403 . S
C700 C701 1.404 . S
C700 C703 1.539 . S
C701 C697 1.408 . S
C701 C700 1.404 . S
C701 H713 0.930 . S
C702 C698 1.524 . S
C702 H714 0.930 1_455 S
C702 H715 0.961 . S
C702 H716 0.961 . S
C703 C700 1.539 . S
C703 H717 0.958 . S
C703 H718 0.961 . S
C703 H719 0.960 . S
H704 C688 0.951 . S
H705 C693 0.929 . S
H706 C694 0.960 . S
H707 C694 0.962 . S
H708 C694 0.960 . S
H709 C695 0.961 . S
H710 C695 0.961 . S
H711 C695 0.961 . S
H712 C696 0.930 . S
H713 C701 0.930 . S
H714 C702 0.930 1_655 S
H715 C702 0.961 . S
H716 C702 0.961 . S
H717 C703 0.958 . S
H718 C703 0.961 . S
H719 C703 0.960 . S
C720 C721 1.391 . S
C720 C722 1.394 . S
C720 H736 0.931 . S
C721 C720 1.391 . S
C721 C725 1.376 . S
C722 C720 1.394 . S
C722 C723 1.369 . S
C722 C726 1.531 . S
C723 C722 1.369 . S
C723 C724 1.410 . S
C723 C731 1.503 . S
C724 C723 1.410 . S
C724 C725 1.392 . S
C724 C727 1.511 1_545 S
C725 C721 1.376 . S
C725 C724 1.392 . S
C725 H737 0.929 . S
C726 C722 1.531 . S
C726 H738 0.960 . S
C726 H739 0.962 . S
C726 H740 0.960 . S
C727 C724 1.511 1_565 S
C727 H741 0.961 . S
C727 H742 0.961 . S
C727 H743 0.961 . S
C728 C729 1.370 . S
C728 C730 1.363 . S
C728 H744 0.931 . S
C729 C728 1.370 . S
C729 C733 1.408 . S
C730 C728 1.363 . S
C730 C731 1.370 . S
C730 C734 1.524 . S
C731 C723 1.503 . S
C731 C730 1.370 . S
C731 C732 1.403 . S
C732 C731 1.403 . S
C732 C733 1.404 . S
C732 C735 1.539 . S
C733 C729 1.408 . S
C733 C732 1.404 . S
C733 H745 0.930 . S
C734 C730 1.524 . S
C734 H746 0.956 . S
C734 H747 0.961 . S
C734 H748 0.961 . S
C735 C732 1.539 . S
C735 H749 0.958 . S
C735 H750 0.961 . S
C735 H751 0.960 . S
H736 C720 0.931 . S
H737 C725 0.929 . S
H738 C726 0.960 . S
H739 C726 0.962 . S
H740 C726 0.960 . S
H741 C727 0.961 . S
H742 C727 0.961 . S
H743 C727 0.961 . S
H744 C728 0.931 . S
H745 C733 0.930 . S
H746 C734 0.956 . S
H747 C734 0.961 . S
H748 C734 0.961 . S
H749 C735 0.958 . S
H750 C735 0.961 . S
H751 C735 0.960 . S
C752 C753 1.391 . S
C752 C754 1.394 . S
C752 H768 0.931 . S
C753 C752 1.391 . S
C753 C757 1.376 . S
C754 C752 1.394 . S
C754 C755 1.369 . S
C754 C758 1.531 . S
C755 C754 1.369 . S
C755 C756 1.410 . S
C755 C763 1.503 . S
C756 C755 1.410 . S
C756 C757 1.392 . S
C756 C759 1.511 . S
C757 C753 1.376 . S
C757 C756 1.392 . S
C757 H769 0.929 . S
C758 C754 1.531 . S
C758 H770 0.960 . S
C758 H771 0.962 . S
C758 H772 0.960 . S
C759 C756 1.511 . S
C759 H773 0.961 . S
C759 H774 0.961 . S
C759 H775 0.961 . S
C760 C761 1.370 . S
C760 C762 1.363 . S
C760 H776 0.931 . S
C761 C760 1.370 . S
C761 C765 1.408 . S
C762 C760 1.363 . S
C762 C763 1.370 . S
C762 C766 1.524 . S
C763 C755 1.503 . S
C763 C762 1.370 . S
C763 C764 1.403 . S
C764 C763 1.403 . S
C764 C765 1.404 . S
C764 C767 1.539 . S
C765 C761 1.408 . S
C765 C764 1.404 . S
C765 H777 0.930 . S
C766 C762 1.524 . S
C766 H778 0.956 . S
C766 H779 0.961 . S
C766 H780 0.961 . S
C767 C764 1.539 . S
C767 H781 0.958 . S
C767 H782 0.961 . S
C767 H783 0.960 . S
H768 C752 0.931 . S
H769 C757 0.929 . S
H770 C758 0.960 . S
H771 C758 0.962 . S
H772 C758 0.960 . S
H773 C759 0.961 . S
H774 C759 0.961 . S
H775 C759 0.961 . S
H776 C760 0.931 . S
H777 C765 0.930 . S
H778 C766 0.956 . S
H779 C766 0.961 . S
H780 C766 0.961 . S
H781 C767 0.958 . S
H782 C767 0.961 . S
H783 C767 0.960 . S
C784 C785 1.391 . S
C784 C786 1.394 . S
C784 H800 0.931 . S
C785 C784 1.391 . S
C785 C789 1.376 . S
C786 C784 1.394 . S
C786 C787 1.369 . S
C786 C790 1.531 . S
C787 C786 1.369 . S
C787 C788 1.410 . S
C787 C795 1.503 . S
C788 C787 1.410 . S
C788 C789 1.392 . S
C788 C791 1.511 . S
C789 C785 1.376 . S
C789 C788 1.392 . S
C789 H801 0.929 . S
C790 C786 1.531 . S
C790 H802 0.960 . S
C790 H803 0.962 . S
C790 H804 0.960 . S
C791 C788 1.511 . S
C791 H805 0.961 . S
C791 H806 0.961 . S
C791 H807 0.961 . S
C792 C793 1.370 . S
C792 C794 1.363 . S
C792 H808 0.931 . S
C793 C792 1.370 . S
C793 C797 1.408 . S
C794 C792 1.363 . S
C794 C795 1.370 . S
C794 C798 1.524 . S
C795 C787 1.503 . S
C795 C794 1.370 . S
C795 C796 1.403 . S
C796 C795 1.403 . S
C796 C797 1.404 . S
C796 C799 1.539 . S
C797 C793 1.408 . S
C797 C796 1.404 . S
C797 H809 0.930 . S
C798 C794 1.524 . S
C798 H810 0.956 . S
C798 H811 0.961 . S
C798 H812 0.961 . S
C799 C796 1.539 . S
C799 H813 0.958 . S
C799 H814 0.961 . S
C799 H815 0.960 . S
H800 C784 0.931 . S
H801 C789 0.929 . S
H802 C790 0.960 . S
H803 C790 0.962 . S
H804 C790 0.960 . S
H805 C791 0.961 . S
H806 C791 0.961 . S
H807 C791 0.961 . S
H808 C792 0.931 . S
H809 C797 0.930 . S
H810 C798 0.956 . S
H811 C798 0.961 . S
H812 C798 0.961 . S
H813 C799 0.958 . S
H814 C799 0.961 . S
H815 C799 0.960 . S
C816 C817 1.391 . S
C816 C818 1.394 . S
C816 H832 0.931 . S
C817 C816 1.391 . S
C817 C821 1.376 . S
C818 C816 1.394 . S
C818 C819 1.369 . S
C818 C822 1.531 . S
C819 C818 1.369 . S
C819 C820 1.410 1_655 S
C819 C827 1.503 . S
C820 C819 1.410 1_455 S
C820 C821 1.392 1_455 S
C820 C823 1.511 . S
C821 C817 1.376 . S
C821 C820 1.392 1_655 S
C821 H833 0.929 1_655 S
C822 C818 1.531 . S
C822 H834 0.960 . S
C822 H835 0.962 . S
C822 H836 0.960 . S
C823 C820 1.511 . S
C823 H837 0.961 . S
C823 H838 0.961 . S
C823 H839 0.961 . S
C824 C825 1.370 1_556 S
C824 C826 1.363 1_556 S
C824 H840 0.931 . S
C825 C824 1.370 1_554 S
C825 C829 1.408 1_455 S
C826 C824 1.363 1_554 S
C826 C827 1.370 1_455 S
C826 C830 1.524 . S
C827 C819 1.503 . S
C827 C826 1.370 1_655 S
C827 C828 1.403 . S
C828 C827 1.403 . S
C828 C829 1.404 . S
C828 C831 1.539 . S
C829 C825 1.408 1_655 S
C829 C828 1.404 . S
C829 H841 0.930 . S
C830 C826 1.524 . S
C830 H842 0.956 . S
C830 H843 0.961 . S
C830 H844 0.961 1_554 S
C831 C828 1.539 . S
C831 H845 0.958 . S
C831 H846 0.961 . S
C831 H847 0.960 . S
H832 C816 0.931 . S
H833 C821 0.929 1_455 S
H834 C822 0.960 . S
H835 C822 0.962 . S
H836 C822 0.960 . S
H837 C823 0.961 . S
H838 C823 0.961 . S
H839 C823 0.961 . S
H840 C824 0.931 . S
H841 C829 0.930 . S
H842 C830 0.956 . S
H843 C830 0.961 . S
H844 C830 0.961 1_556 S
H845 C831 0.958 . S
H846 C831 0.961 . S
H847 C831 0.960 . S
C848 C849 1.391 . S
C848 C850 1.394 . S
C848 H864 0.931 . S
C849 C848 1.391 . S
C849 C853 1.376 . S
C850 C848 1.394 . S
C850 C851 1.369 . S
C850 C854 1.531 . S
C851 C850 1.369 . S
C851 C852 1.410 . S
C851 C859 1.503 . S
C852 C851 1.410 . S
C852 C853 1.392 . S
C852 C855 1.511 . S
C853 C849 1.376 . S
C853 C852 1.392 . S
C853 H865 0.929 . S
C854 C850 1.531 . S
C854 H866 0.960 1_554 S
C854 H867 0.962 1_554 S
C854 H868 0.960 1_554 S
C855 C852 1.511 . S
C855 H869 0.961 1_565 S
C855 H870 0.961 1_565 S
C855 H871 0.961 . S
C856 C857 1.370 . S
C856 C858 1.363 . S
C856 H872 0.931 . S
C857 C856 1.370 . S
C857 C861 1.408 1_545 S
C858 C856 1.363 . S
C858 C859 1.370 1_545 S
C858 C862 1.524 . S
C859 C851 1.503 . S
C859 C858 1.370 1_565 S
C859 C860 1.403 . S
C860 C859 1.403 . S
C860 C861 1.404 . S
C860 C863 1.539 . S
C861 C857 1.408 1_565 S
C861 C860 1.404 . S
C861 H873 0.930 . S
C862 C858 1.524 . S
C862 H874 0.956 . S
C862 H875 0.961 . S
C862 H876 0.961 . S
C863 C860 1.539 . S
C863 H877 0.958 . S
C863 H878 0.961 . S
C863 H879 0.960 . S
H864 C848 0.931 . S
H865 C853 0.929 . S
H866 C854 0.960 1_556 S
H867 C854 0.962 1_556 S
H868 C854 0.960 1_556 S
H869 C855 0.961 1_545 S
H870 C855 0.961 1_545 S
H871 C855 0.961 . S
H872 C856 0.931 . S
H873 C861 0.930 . S
H874 C862 0.956 . S
H875 C862 0.961 . S
H876 C862 0.961 . S
H877 C863 0.958 . S
H878 C863 0.961 . S
H879 C863 0.960 . S
C880 C881 1.391 . S
C880 C882 1.394 . S
C880 H896 0.931 . S
C881 C880 1.391 . S
C881 C885 1.376 . S
C882 C880 1.394 . S
C882 C883 1.369 . S
C882 C886 1.531 . S
C883 C882 1.369 . S
C883 C884 1.410 . S
C883 C891 1.503 . S
C884 C883 1.410 . S
C884 C885 1.392 . S
C884 C887 1.511 . S
C885 C881 1.376 . S
C885 C884 1.392 . S
C885 H897 0.929 . S
C886 C882 1.531 . S
C886 H898 0.960 . S
C886 H899 0.962 . S
C886 H900 0.960 . S
C887 C884 1.511 . S
C887 H901 0.961 . S
C887 H902 0.961 . S
C887 H903 0.961 . S
C888 C889 1.370 . S
C888 C890 1.363 . S
C888 H904 0.931 . S
C889 C888 1.370 . S
C889 C893 1.408 1_554 S
C890 C888 1.363 . S
C890 C891 1.370 . S
C890 C894 1.524 . S
C891 C883 1.503 . S
C891 C890 1.370 . S
C891 C892 1.403 1_554 S
C892 C891 1.403 1_556 S
C892 C893 1.404 . S
C892 C895 1.539 . S
C893 C889 1.408 1_556 S
C893 C892 1.404 . S
C893 H905 0.930 . S
C894 C890 1.524 . S
C894 H906 0.956 . S
C894 H907 0.961 . S
C894 H908 0.961 . S
C895 C892 1.539 . S
C895 H909 0.958 . S
C895 H910 0.961 . S
C895 H911 0.960 . S
H896 C880 0.931 . S
H897 C885 0.929 . S
H898 C886 0.960 . S
H899 C886 0.962 . S
H900 C886 0.960 . S
H901 C887 0.961 . S
H902 C887 0.961 . S
H903 C887 0.961 . S
H904 C888 0.931 . S
H905 C893 0.930 . S
H906 C894 0.956 . S
H907 C894 0.961 . S
H908 C894 0.961 . S
H909 C895 0.958 . S
H910 C895 0.961 . S
H911 C895 0.960 . S
C912 C913 1.391 . S
C912 C914 1.394 . S
C912 H928 0.931 . S
C913 C912 1.391 . S
C913 C917 1.376 . S
C914 C912 1.394 . S
C914 C915 1.369 . S
C914 C918 1.531 . S
C915 C914 1.369 . S
C915 C916 1.410 . S
C915 C923 1.503 . S
C916 C915 1.410 . S
C916 C917 1.392 . S
C916 C919 1.511 . S
C917 C913 1.376 . S
C917 C916 1.392 . S
C917 H929 0.929 . S
C918 C914 1.531 . S
C918 H930 0.960 . S
C918 H931 0.962 . S
C918 H932 0.960 . S
C919 C916 1.511 . S
C919 H933 0.961 . S
C919 H934 0.961 . S
C919 H935 0.961 . S
C920 C921 1.370 1_556 S
C920 C922 1.363 1_556 S
C920 H936 0.931 . S
C921 C920 1.370 1_554 S
C921 C925 1.408 . S
C922 C920 1.363 1_554 S
C922 C923 1.370 . S
C922 C926 1.524 1_554 S
C923 C915 1.503 . S
C923 C922 1.370 . S
C923 C924 1.403 . S
C924 C923 1.403 . S
C924 C925 1.404 . S
C924 C927 1.539 . S
C925 C921 1.408 . S
C925 C924 1.404 . S
C925 H937 0.930 . S
C926 C922 1.524 1_556 S
C926 H938 0.956 . S
C926 H939 0.961 1_556 S
C926 H940 0.961 . S
C927 C924 1.539 . S
C927 H941 0.958 . S
C927 H942 0.961 . S
C927 H943 0.960 . S
H928 C912 0.931 . S
H929 C917 0.929 . S
H930 C918 0.960 . S
H931 C918 0.962 . S
H932 C918 0.960 . S
H933 C919 0.961 . S
H934 C919 0.961 . S
H935 C919 0.961 . S
H936 C920 0.931 . S
H937 C925 0.930 . S
H938 C926 0.956 . S
H939 C926 0.961 1_554 S
H940 C926 0.961 . S
H941 C927 0.958 . S
H942 C927 0.961 . S
H943 C927 0.960 . S
C944 C945 1.391 . S
C944 C946 1.394 . S
C944 H960 0.931 . S
C945 C944 1.391 . S
C945 C949 1.376 . S
C946 C944 1.394 . S
C946 C947 1.369 . S
C946 C950 1.531 . S
C947 C946 1.369 . S
C947 C948 1.410 . S
C947 C955 1.503 . S
C948 C947 1.410 . S
C948 C949 1.392 . S
C948 C951 1.511 1_455 S
C949 C945 1.376 . S
C949 C948 1.392 . S
C949 H961 0.929 1_455 S
C950 C946 1.531 . S
C950 H962 0.960 . S
C950 H963 0.962 . S
C950 H964 0.960 . S
C951 C948 1.511 1_655 S
C951 H965 0.961 . S
C951 H966 0.961 . S
C951 H967 0.961 . S
C952 C953 1.370 . S
C952 C954 1.363 . S
C952 H968 0.931 . S
C953 C952 1.370 . S
C953 C957 1.408 . S
C954 C952 1.363 . S
C954 C955 1.370 . S
C954 C958 1.524 . S
C955 C947 1.503 . S
C955 C954 1.370 . S
C955 C956 1.403 . S
C956 C955 1.403 . S
C956 C957 1.404 . S
C956 C959 1.539 . S
C957 C953 1.408 . S
C957 C956 1.404 . S
C957 H969 0.930 . S
C958 C954 1.524 . S
C958 H970 0.956 . S
C958 H971 0.961 . S
C958 H972 0.961 . S
C959 C956 1.539 . S
C959 H973 0.958 1_556 S
C959 H974 0.961 1_556 S
C959 H975 0.960 1_556 S
H960 C944 0.931 . S
H961 C949 0.929 1_655 S
H962 C950 0.960 . S
H963 C950 0.962 . S
H964 C950 0.960 . S
H965 C951 0.961 . S
H966 C951 0.961 . S
H967 C951 0.961 . S
H968 C952 0.931 . S
H969 C957 0.930 . S
H970 C958 0.956 . S
H971 C958 0.961 . S
H972 C958 0.961 . S
H973 C959 0.958 1_554 S
H974 C959 0.961 1_554 S
H975 C959 0.960 1_554 S
C976 C977 1.391 . S
C976 C978 1.394 . S
C976 H992 0.931 . S
C977 C976 1.391 . S
C977 C981 1.376 . S
C978 C976 1.394 . S
C978 C979 1.369 . S
C978 C982 1.531 . S
C979 C978 1.369 . S
C979 C980 1.410 . S
C979 C987 1.503 . S
C980 C979 1.410 . S
C980 C981 1.392 . S
C980 C983 1.511 . S
C981 C977 1.376 . S
C981 C980 1.392 . S
C981 H993 0.929 . S
C982 C978 1.531 . S
C982 H994 0.960 . S
C982 H995 0.962 . S
C982 H996 0.960 . S
C983 C980 1.511 . S
C983 H997 0.961 1_556 S
C983 H998 0.961 . S
C983 H999 0.961 . S
C984 C985 1.370 . S
C984 C986 1.363 . S
C984 H1000 0.931 1_545 S
C985 C984 1.370 . S
C985 C989 1.408 . S
C986 C984 1.363 . S
C986 C987 1.370 . S
C986 C990 1.524 1_545 S
C987 C979 1.503 . S
C987 C986 1.370 . S
C987 C988 1.403 . S
C988 C987 1.403 . S
C988 C989 1.404 . S
C988 C991 1.539 . S
C989 C985 1.408 . S
C989 C988 1.404 . S
C989 H1001 0.930 . S
C990 C986 1.524 1_565 S
C990 H1002 0.956 . S
C990 H1003 0.961 . S
C990 H1004 0.961 . S
C991 C988 1.539 . S
C991 H1005 0.958 . S
C991 H1006 0.961 . S
C991 H1007 0.960 . S
H992 C976 0.931 . S
H993 C981 0.929 . S
H994 C982 0.960 . S
H995 C982 0.962 . S
H996 C982 0.960 . S
H997 C983 0.961 1_554 S
H998 C983 0.961 . S
H999 C983 0.961 . S
H1000 C984 0.931 1_565 S
H1001 C989 0.930 . S
H1002 C990 0.956 . S
H1003 C990 0.961 . S
H1004 C990 0.961 . S
H1005 C991 0.958 . S
H1006 C991 0.961 . S
H1007 C991 0.960 . S
C1008 C1009 1.391 . S
C1008 C1010 1.394 . S
C1008 H1024 0.931 . S
C1009 C1008 1.391 . S
C1009 C1013 1.376 . S
C1010 C1008 1.394 . S
C1010 C1011 1.369 . S
C1010 C1014 1.531 . S
C1011 C1010 1.369 . S
C1011 C1012 1.410 . S
C1011 C1019 1.503 . S
C1012 C1011 1.410 . S
C1012 C1013 1.392 . S
C1012 C1015 1.511 . S
C1013 C1009 1.376 . S
C1013 C1012 1.392 . S
C1013 H1025 0.929 . S
C1014 C1010 1.531 . S
C1014 H1026 0.960 . S
C1014 H1027 0.962 . S
C1014 H1028 0.960 . S
C1015 C1012 1.511 . S
C1015 H1029 0.961 . S
C1015 H1030 0.961 . S
C1015 H1031 0.961 . S
C1016 C1017 1.370 . S
C1016 C1018 1.363 . S
C1016 H1032 0.931 . S
C1017 C1016 1.370 . S
C1017 C1021 1.408 . S
C1018 C1016 1.363 . S
C1018 C1019 1.370 . S
C1018 C1022 1.524 . S
C1019 C1011 1.503 . S
C1019 C1018 1.370 . S
C1019 C1020 1.403 . S
C1020 C1019 1.403 . S
C1020 C1021 1.404 . S
C1020 C1023 1.539 . S
C1021 C1017 1.408 . S
C1021 C1020 1.404 . S
C1021 H1033 0.930 . S
C1022 C1018 1.524 . S
C1022 H1034 0.956 . S
C1022 H1035 0.961 . S
C1022 H1036 0.961 . S
C1023 C1020 1.539 . S
C1023 H1037 0.958 1_556 S
C1023 H1038 0.961 . S
C1023 H1039 0.960 . S
H1024 C1008 0.931 . S
H1025 C1013 0.929 . S
H1026 C1014 0.960 . S
H1027 C1014 0.962 . S
H1028 C1014 0.960 . S
H1029 C1015 0.961 . S
H1030 C1015 0.961 . S
H1031 C1015 0.961 . S
H1032 C1016 0.931 . S
H1033 C1021 0.930 . S
H1034 C1022 0.956 . S
H1035 C1022 0.961 . S
H1036 C1022 0.961 . S
H1037 C1023 0.958 1_554 S
H1038 C1023 0.961 . S
H1039 C1023 0.960 . S
C1040 C1041 1.391 . S
C1040 C1042 1.394 . S
C1040 H1056 0.931 . S
C1041 C1040 1.391 . S
C1041 C1045 1.376 . S
C1042 C1040 1.394 . S
C1042 C1043 1.369 . S
C1042 C1046 1.531 . S
C1043 C1042 1.369 . S
C1043 C1044 1.410 . S
C1043 C1051 1.503 . S
C1044 C1043 1.410 . S
C1044 C1045 1.392 . S
C1044 C1047 1.511 . S
C1045 C1041 1.376 . S
C1045 C1044 1.392 . S
C1045 H1057 0.929 . S
C1046 C1042 1.531 . S
C1046 H1058 0.960 . S
C1046 H1059 0.962 . S
C1046 H1060 0.960 . S
C1047 C1044 1.511 . S
C1047 H1061 0.961 1_556 S
C1047 H1062 0.961 . S
C1047 H1063 0.961 1_556 S
C1048 C1049 1.370 . S
C1048 C1050 1.363 . S
C1048 H1064 0.931 . S
C1049 C1048 1.370 . S
C1049 C1053 1.408 . S
C1050 C1048 1.363 . S
C1050 C1051 1.370 . S
C1050 C1054 1.524 . S
C1051 C1043 1.503 . S
C1051 C1050 1.370 . S
C1051 C1052 1.403 . S
C1052 C1051 1.403 . S
C1052 C1053 1.404 . S
C1052 C1055 1.539 . S
C1053 C1049 1.408 . S
C1053 C1052 1.404 . S
C1053 H1065 0.930 . S
C1054 C1050 1.524 . S
C1054 H1066 0.956 . S
C1054 H1067 0.961 . S
C1054 H1068 0.961 . S
C1055 C1052 1.539 . S
C1055 H1069 0.958 . S
C1055 H1070 0.961 . S
C1055 H1071 0.960 . S
H1056 C1040 0.931 . S
H1057 C1045 0.929 . S
H1058 C1046 0.960 . S
H1059 C1046 0.962 . S
H1060 C1046 0.960 . S
H1061 C1047 0.961 1_554 S
H1062 C1047 0.961 . S
H1063 C1047 0.961 1_554 S
H1064 C1048 0.931 . S
H1065 C1053 0.930 . S
H1066 C1054 0.956 . S
H1067 C1054 0.961 . S
H1068 C1054 0.961 . S
H1069 C1055 0.958 . S
H1070 C1055 0.961 . S
H1071 C1055 0.960 . S
C1072 C1073 1.391 . S
C1072 C1074 1.394 . S
C1072 H1088 0.931 . S
C1073 C1072 1.391 . S
C1073 C1077 1.376 1_655 S
C1074 C1072 1.394 . S
C1074 C1075 1.369 . S
C1074 C1078 1.531 . S
C1075 C1074 1.369 . S
C1075 C1076 1.410 1_655 S
C1075 C1083 1.503 . S
C1076 C1075 1.410 1_455 S
C1076 C1077 1.392 . S
C1076 C1079 1.511 . S
C1077 C1073 1.376 1_455 S
C1077 C1076 1.392 . S
C1077 H1089 0.929 . S
C1078 C1074 1.531 . S
C1078 H1090 0.960 . S
C1078 H1091 0.962 . S
C1078 H1092 0.960 . S
C1079 C1076 1.511 . S
C1079 H1093 0.961 . S
C1079 H1094 0.961 . S
C1079 H1095 0.961 . S
C1080 C1081 1.370 . S
C1080 C1082 1.363 . S
C1080 H1096 0.931 . S
C1081 C1080 1.370 . S
C1081 C1085 1.408 1_655 S
C1082 C1080 1.363 . S
C1082 C1083 1.370 . S
C1082 C1086 1.524 . S
C1083 C1075 1.503 . S
C1083 C1082 1.370 . S
C1083 C1084 1.403 1_655 S
C1084 C1083 1.403 1_455 S
C1084 C1085 1.404 . S
C1084 C1087 1.539 . S
C1085 C1081 1.408 1_455 S
C1085 C1084 1.404 . S
C1085 H1097 0.930 . S
C1086 C1082 1.524 . S
C1086 H1098 0.956 . S
C1086 H1099 0.961 . S
C1086 H1100 0.961 . S
C1087 C1084 1.539 . S
C1087 H1101 0.958 . S
C1087 H1102 0.961 . S
C1087 H1103 0.960 . S
H1088 C1072 0.931 . S
H1089 C1077 0.929 . S
H1090 C1078 0.960 . S
H1091 C1078 0.962 . S
H1092 C1078 0.960 . S
H1093 C1079 0.961 . S
H1094 C1079 0.961 . S
H1095 C1079 0.961 . S
H1096 C1080 0.931 . S
H1097 C1085 0.930 . S
H1098 C1086 0.956 . S
H1099 C1086 0.961 . S
H1100 C1086 0.961 . S
H1101 C1087 0.958 . S
H1102 C1087 0.961 . S
H1103 C1087 0.960 . S
C1104 C1105 1.391 . S
C1104 C1106 1.394 . S
C1104 H1120 0.931 . S
C1105 C1104 1.391 . S
C1105 C1109 1.376 1_565 S
C1106 C1104 1.394 . S
C1106 C1107 1.369 . S
C1106 C1110 1.531 . S
C1107 C1106 1.369 . S
C1107 C1108 1.410 1_565 S
C1107 C1115 1.503 . S
C1108 C1107 1.410 1_545 S
C1108 C1109 1.392 . S
C1108 C1111 1.511 . S
C1109 C1105 1.376 1_545 S
C1109 C1108 1.392 . S
C1109 H1121 0.929 . S
C1110 C1106 1.531 . S
C1110 H1122 0.960 . S
C1110 H1123 0.962 . S
C1110 H1124 0.960 . S
C1111 C1108 1.511 . S
C1111 H1125 0.961 . S
C1111 H1126 0.961 . S
C1111 H1127 0.961 . S
C1112 C1113 1.370 1_545 S
C1112 C1114 1.363 . S
C1112 H1128 0.931 . S
C1113 C1112 1.370 1_565 S
C1113 C1117 1.408 . S
C1114 C1112 1.363 . S
C1114 C1115 1.370 1_545 S
C1114 C1118 1.524 . S
C1115 C1107 1.503 . S
C1115 C1114 1.370 1_565 S
C1115 C1116 1.403 . S
C1116 C1115 1.403 . S
C1116 C1117 1.404 . S
C1116 C1119 1.539 . S
C1117 C1113 1.408 . S
C1117 C1116 1.404 . S
C1117 H1129 0.930 . S
C1118 C1114 1.524 . S
C1118 H1130 0.969 . S
C1118 H1131 0.961 . S
C1118 H1132 0.961 . S
C1119 C1116 1.539 . S
C1119 H1133 0.958 . S
C1119 H1134 0.961 . S
C1119 H1135 0.960 . S
H1120 C1104 0.931 . S
H1121 C1109 0.929 . S
H1122 C1110 0.960 . S
H1123 C1110 0.962 . S
H1124 C1110 0.960 . S
H1125 C1111 0.961 . S
H1126 C1111 0.961 . S
H1127 C1111 0.961 . S
H1128 C1112 0.931 . S
H1129 C1117 0.930 . S
H1130 C1118 0.969 . S
H1131 C1118 0.961 . S
H1132 C1118 0.961 . S
H1133 C1119 0.958 . S
H1134 C1119 0.961 . S
H1135 C1119 0.960 . S
C1136 C1137 1.391 . S
C1136 C1138 1.394 . S
C1136 H1152 0.931 . S
C1137 C1136 1.391 . S
C1137 C1141 1.376 . S
C1138 C1136 1.394 . S
C1138 C1139 1.369 . S
C1138 C1142 1.531 . S
C1139 C1138 1.369 . S
C1139 C1140 1.410 . S
C1139 C1147 1.503 . S
C1140 C1139 1.410 . S
C1140 C1141 1.392 . S
C1140 C1143 1.511 . S
C1141 C1137 1.376 . S
C1141 C1140 1.392 . S
C1141 H1153 0.929 . S
C1142 C1138 1.531 . S
C1142 H1154 0.960 . S
C1142 H1155 0.962 . S
C1142 H1156 0.960 . S
C1143 C1140 1.511 . S
C1143 H1157 0.961 . S
C1143 H1158 0.961 . S
C1143 H1159 0.961 . S
C1144 C1145 1.370 . S
C1144 C1146 1.363 . S
C1144 H1160 0.931 . S
C1145 C1144 1.370 . S
C1145 C1149 1.408 . S
C1146 C1144 1.363 . S
C1146 C1147 1.370 . S
C1146 C1150 1.524 . S
C1147 C1139 1.503 . S
C1147 C1146 1.370 . S
C1147 C1148 1.403 . S
C1148 C1147 1.403 . S
C1148 C1149 1.404 . S
C1148 C1151 1.539 . S
C1149 C1145 1.408 . S
C1149 C1148 1.404 . S
C1149 H1161 0.930 . S
C1150 C1146 1.524 . S
C1150 H1162 0.956 . S
C1150 H1163 0.961 . S
C1150 H1164 0.961 . S
C1151 C1148 1.539 . S
C1151 H1165 0.958 . S
C1151 H1166 0.961 . S
C1151 H1167 0.960 . S
H1152 C1136 0.931 . S
H1153 C1141 0.929 . S
H1154 C1142 0.960 . S
H1155 C1142 0.962 . S
H1156 C1142 0.960 . S
H1157 C1143 0.961 . S
H1158 C1143 0.961 . S
H1159 C1143 0.961 . S
H1160 C1144 0.931 . S
H1161 C1149 0.930 . S
H1162 C1150 0.956 . S
H1163 C1150 0.961 . S
H1164 C1150 0.961 . S
H1165 C1151 0.958 . S
H1166 C1151 0.961 . S
H1167 C1151 0.960 . S
C1168 C1169 1.391 . S
C1168 C1170 1.394 . S
C1168 H1184 0.931 . S
C1169 C1168 1.391 . S
C1169 C1173 1.376 . S
C1170 C1168 1.394 . S
C1170 C1171 1.369 . S
C1170 C1174 1.531 . S
C1171 C1170 1.369 . S
C1171 C1172 1.410 . S
C1171 C1179 1.503 . S
C1172 C1171 1.410 . S
C1172 C1173 1.392 . S
C1172 C1175 1.511 . S
C1173 C1169 1.376 . S
C1173 C1172 1.392 . S
C1173 H1185 0.929 . S
C1174 C1170 1.531 . S
C1174 H1186 0.960 . S
C1174 H1187 0.962 . S
C1174 H1188 0.960 . S
C1175 C1172 1.511 . S
C1175 H1189 0.961 . S
C1175 H1190 0.961 . S
C1175 H1191 0.961 . S
C1176 C1177 1.370 . S
C1176 C1178 1.363 . S
C1176 H1192 0.931 . S
C1177 C1176 1.370 . S
C1177 C1181 1.408 . S
C1178 C1176 1.363 . S
C1178 C1179 1.370 . S
C1178 C1182 1.524 . S
C1179 C1171 1.503 . S
C1179 C1178 1.370 . S
C1179 C1180 1.403 . S
C1180 C1179 1.403 . S
C1180 C1181 1.404 . S
C1180 C1183 1.539 . S
C1181 C1177 1.408 . S
C1181 C1180 1.404 . S
C1181 H1193 0.930 . S
C1182 C1178 1.524 . S
C1182 H1194 0.956 . S
C1182 H1195 0.961 . S
C1182 H1196 0.961 . S
C1183 C1180 1.539 . S
C1183 H1197 0.958 . S
C1183 H1198 0.961 . S
C1183 H1199 0.960 . S
H1184 C1168 0.931 . S
H1185 C1173 0.929 . S
H1186 C1174 0.960 . S
H1187 C1174 0.962 . S
H1188 C1174 0.960 . S
H1189 C1175 0.961 . S
H1190 C1175 0.961 . S
H1191 C1175 0.961 . S
H1192 C1176 0.931 . S
H1193 C1181 0.930 . S
H1194 C1182 0.956 . S
H1195 C1182 0.961 . S
H1196 C1182 0.961 . S
H1197 C1183 0.958 . S
H1198 C1183 0.961 . S
H1199 C1183 0.960 . S
C433 C76 1.877 . S
C441 C159 2.030 . S
C473 C236 2.036 . S
C465 C88 1.905 . S
C505 C327 2.023 . S
C497 C52 1.873 . S
C537 C411 2.003 . S
C529 C64 1.857 . S
C569 C170 2.024 1_565 S
C561 C28 1.879 . S
C593 C40 1.847 . S
C601 C247 2.043 . S
C625 C4 1.894 . S
C633 C338 2.022 . S
C657 C16 1.883 . S
C665 C422 2.012 1_655 S
C697 C154 0.636 1_455 S
C689 C69 0.535 . S
C729 C249 0.636 . S
C721 C81 0.611 . S
C761 C322 0.574 . S
C753 C93 0.600 . S
C785 C57 0.506 . S
C793 C406 0.591 . S
C817 C21 0.575 . S
C825 C165 0.641 1_554 S
C857 C238 0.592 . S
C849 C33 0.599 . S
C889 C333 0.612 1_554 S
C881 C45 0.646 . S
C913 C9 0.524 . S
C921 C417 0.612 1_554 S
C945 C66 1.895 . S
C953 C163 2.123 . S
C977 C78 1.939 . S
C985 C254 2.134 . S
C1017 C331 2.141 . S
C1009 C90 1.914 . S
C1049 C415 2.144 . S
C1041 C54 1.934 . S
C1073 C18 1.948 . S
C1081 C152 2.117 . S
C1113 C243 2.134 1_565 S
C1105 C30 1.958 . S
C1145 C320 2.138 . S
C1137 C42 1.918 . S
C1169 C6 1.931 . S
C1177 C404 2.143 . S
