# Generated by pormake.
# Topology cml, (3,6)-cn, num edge types: 1
# Building blocks:
#     Node 0, Type 0, BuildingBlock: BETDAH_clean_linker_0, # of connection points: 3
#     Node 1, Type 0, BuildingBlock: BETDAH_clean_linker_0, # of connection points: 3
#     Node 2, Type 0, BuildingBlock: BETDAH_clean_linker_0, # of connection points: 3
#     Node 3, Type 0, BuildingBlock: BETDAH_clean_linker_0, # of connection points: 3
#     Node 4, Type 0, BuildingBlock: BETDAH_clean_linker_0, # of connection points: 3
#     Node 5, Type 0, BuildingBlock: BETDAH_clean_linker_0, # of connection points: 3
#     Node 6, Type 0, BuildingBlock: BETDAH_clean_linker_0, # of connection points: 3
#     Node 7, Type 0, BuildingBlock: BETDAH_clean_linker_0, # of connection points: 3
#     Node 8, Type 1, BuildingBlock: OJICUG_clean_sbu_0, # of connection points: 6
#     Node 9, Type 1, BuildingBlock: OJICUG_clean_sbu_0, # of connection points: 6
#     Node 10, Type 1, BuildingBlock: OJICUG_clean_sbu_0, # of connection points: 6
#     Node 11, Type 1, BuildingBlock: OJICUG_clean_sbu_0, # of connection points: 6
#     Edge 12, Type (0, 1), BuildingBlock: KIFKEQ_clean_linker_1, # of connection points: 2
#     Edge 13, Type (0, 1), BuildingBlock: KIFKEQ_clean_linker_1, # of connection points: 2
#     Edge 14, Type (0, 1), BuildingBlock: KIFKEQ_clean_linker_1, # of connection points: 2
#     Edge 15, Type (0, 1), BuildingBlock: KIFKEQ_clean_linker_1, # of connection points: 2
#     Edge 16, Type (0, 1), BuildingBlock: KIFKEQ_clean_linker_1, # of connection points: 2
#     Edge 17, Type (0, 1), BuildingBlock: KIFKEQ_clean_linker_1, # of connection points: 2
#     Edge 18, Type (0, 1), BuildingBlock: KIFKEQ_clean_linker_1, # of connection points: 2
#     Edge 19, Type (0, 1), BuildingBlock: KIFKEQ_clean_linker_1, # of connection points: 2
#     Edge 20, Type (0, 1), BuildingBlock: KIFKEQ_clean_linker_1, # of connection points: 2
#     Edge 21, Type (0, 1), BuildingBlock: KIFKEQ_clean_linker_1, # of connection points: 2
#     Edge 22, Type (0, 1), BuildingBlock: KIFKEQ_clean_linker_1, # of connection points: 2
#     Edge 23, Type (0, 1), BuildingBlock: KIFKEQ_clean_linker_1, # of connection points: 2
#     Edge 24, Type (0, 1), BuildingBlock: KIFKEQ_clean_linker_1, # of connection points: 2
#     Edge 25, Type (0, 1), BuildingBlock: KIFKEQ_clean_linker_1, # of connection points: 2
#     Edge 26, Type (0, 1), BuildingBlock: KIFKEQ_clean_linker_1, # of connection points: 2
#     Edge 27, Type (0, 1), BuildingBlock: KIFKEQ_clean_linker_1, # of connection points: 2
#     Edge 28, Type (0, 1), BuildingBlock: KIFKEQ_clean_linker_1, # of connection points: 2
#     Edge 29, Type (0, 1), BuildingBlock: KIFKEQ_clean_linker_1, # of connection points: 2
#     Edge 30, Type (0, 1), BuildingBlock: KIFKEQ_clean_linker_1, # of connection points: 2
#     Edge 31, Type (0, 1), BuildingBlock: KIFKEQ_clean_linker_1, # of connection points: 2
#     Edge 32, Type (0, 1), BuildingBlock: KIFKEQ_clean_linker_1, # of connection points: 2
#     Edge 33, Type (0, 1), BuildingBlock: KIFKEQ_clean_linker_1, # of connection points: 2
#     Edge 34, Type (0, 1), BuildingBlock: KIFKEQ_clean_linker_1, # of connection points: 2
#     Edge 35, Type (0, 1), BuildingBlock: KIFKEQ_clean_linker_1, # of connection points: 2
# Relax obj value: 0.007
# Max RMSD: 0.051
# Mean RMSD: 0.043
data_MOF--net-cml--node1-OJICUG_clean_sbu_0--node2-BETDAH_clean_linker_0--edge1-KIFKEQ_clean_linker_1
_symmetry_space_group_name_H-M    P1
_symmetry_Int_Tables_number       1
_symmetry_cell_setting            triclinic
loop_
_symmetry_equiv_pos_as_xyz
'x, y, z'
_cell_length_a     41.167515
_cell_length_b     40.240395
_cell_length_c     35.870308
_cell_angle_alpha  89.417686
_cell_angle_beta   90.939098
_cell_angle_gamma 90.864253
loop_
_atom_site_label
_atom_site_type_symbol
_atom_site_fract_x
_atom_site_fract_y
_atom_site_fract_z
_atom_type_partial_charge
H0 H 0.34906 0.40712 0.03494 0.0
H1 H 0.25552 0.41673 0.98087 0.0
H2 H 0.26411 0.36353 0.08501 0.0
C3 C 0.32327 0.4012 0.03372 0.0
C4 C 0.30913 0.38308 0.06302 0.0
C5 C 0.30414 0.41389 0.0043 0.0
C6 C 0.27058 0.407 0.00339 0.0
C7 C 0.2563 0.38842 0.03233 0.0
C8 C 0.27545 0.37726 0.06243 0.0
N9 N 0.22244 0.38205 0.03254 0.0
C10 C 0.20657 0.36568 0.00348 0.0
H11 H 0.66646 0.59032 0.53389 0.0
H12 H 0.76209 0.58269 0.48884 0.0
H13 H 0.74654 0.64543 0.58292 0.0
C14 C 0.69173 0.5983 0.53382 0.0
C15 C 0.70349 0.62035 0.56118 0.0
C16 C 0.71255 0.5846 0.50771 0.0
C17 C 0.74567 0.59351 0.50849 0.0
C18 C 0.75773 0.61571 0.53553 0.0
C19 C 0.73677 0.62867 0.56196 0.0
N20 N 0.79133 0.62323 0.53845 0.0
C21 C 0.80796 0.64025 0.51063 0.0
H22 H 0.66582 0.41774 0.01752 0.0
H23 H 0.7538 0.42932 0.95533 0.0
H24 H 0.75626 0.38229 0.06337 0.0
C25 C 0.6916 0.41341 0.01476 0.0
C26 C 0.70888 0.3982 0.04418 0.0
C27 C 0.70751 0.42494 0.98275 0.0
C28 C 0.74104 0.4199 0.97951 0.0
C29 C 0.75835 0.40375 0.00828 0.0
C30 C 0.74235 0.39327 0.04061 0.0
N31 N 0.79247 0.40098 0.0067 0.0
C32 C 0.807 0.37872 0.98313 0.0
H33 H 0.3438 0.58262 0.54162 0.0
H34 H 0.30668 0.67839 0.50959 0.0
H35 H 0.3312 0.60837 0.42562 0.0
C36 C 0.33561 0.5998 0.52009 0.0
C37 C 0.33808 0.5911 0.48246 0.0
C38 C 0.32472 0.63134 0.53017 0.0
C39 C 0.31453 0.65377 0.50221 0.0
C40 C 0.31631 0.64497 0.46452 0.0
C41 C 0.32851 0.61406 0.45487 0.0
N42 N 0.30862 0.66784 0.43566 0.0
C43 C 0.27942 0.68452 0.43405 0.0
H44 H 0.8396 0.91377 0.04032 0.0
H45 H 0.81294 0.88555 0.9284 0.0
H46 H 0.8004 0.816 0.01849 0.0
C47 C 0.82908 0.89594 0.02099 0.0
C48 C 0.82018 0.86411 0.03411 0.0
C49 C 0.82677 0.90414 0.98288 0.0
C50 C 0.81387 0.88038 0.9581 0.0
C51 C 0.80336 0.84915 0.97102 0.0
C52 C 0.80674 0.84088 0.00898 0.0
N53 N 0.79346 0.82499 0.94468 0.0
C54 C 0.76281 0.81016 0.94456 0.0
H55 H 0.17054 0.08369 0.52357 0.0
H56 H 0.21709 0.12329 0.42572 0.0
H57 H 0.20665 0.18455 0.52184 0.0
C58 C 0.18394 0.10355 0.50978 0.0
C59 C 0.18824 0.1342 0.52774 0.0
C60 C 0.19397 0.09934 0.47287 0.0
C61 C 0.20983 0.12584 0.45445 0.0
C62 C 0.21485 0.15632 0.47246 0.0
C63 C 0.20368 0.16052 0.50873 0.0
N64 N 0.22713 0.18423 0.45271 0.0
C65 C 0.25976 0.18791 0.44423 0.0
H66 H 0.15927 0.9104 0.02211 0.0
H67 H 0.24442 0.93801 0.96063 0.0
H68 H 0.2503 0.86276 0.0463 0.0
C69 C 0.18464 0.90668 0.01587 0.0
C70 C 0.20283 0.88405 0.03737 0.0
C71 C 0.19936 0.92633 0.9882 0.0
C72 C 0.23264 0.92286 0.98176 0.0
C73 C 0.25078 0.89926 0.00171 0.0
C74 C 0.23594 0.87999 0.02976 0.0
N75 N 0.28434 0.89674 0.9944 0.0
C76 C 0.29949 0.86655 0.9894 0.0
H77 H 0.85096 0.07961 0.52467 0.0
H78 H 0.75654 0.11679 0.55108 0.0
H79 H 0.76566 0.04228 0.46732 0.0
C80 C 0.82498 0.08044 0.51939 0.0
C81 C 0.81086 0.05916 0.4927 0.0
C82 C 0.80564 0.10102 0.54107 0.0
C83 C 0.77185 0.10106 0.53471 0.0
C84 C 0.75761 0.07986 0.50804 0.0
C85 C 0.77701 0.05864 0.48769 0.0
N86 N 0.72361 0.07878 0.50212 0.0
C87 C 0.70674 0.10697 0.49154 0.0
Sc88 Sc 0.01286 0.80214 0.30657 0.0
Sc89 Sc 0.01368 0.88989 0.30328 0.0
Sc90 Sc 0.01726 0.84822 0.38988 0.0
O91 O 0.01457 0.84673 0.33322 0.0
C92 C 0.9685 0.78646 0.37706 0.0
C93 C 0.96212 0.84433 0.25827 0.0
C94 C 0.96731 0.90603 0.37121 0.0
C95 C 0.05955 0.84536 0.25385 0.0
C96 C 0.06617 0.79021 0.37121 0.0
C97 C 0.06426 0.90929 0.36806 0.0
O98 O 0.97748 0.78076 0.34402 0.0
O99 O 0.97466 0.8722 0.26754 0.0
O100 O 0.97894 0.88375 0.39276 0.0
O101 O 0.048 0.81774 0.26552 0.0
O102 O 0.05597 0.81294 0.39223 0.0
O103 O 0.05256 0.91276 0.33528 0.0
O104 O 0.05284 0.78328 0.33988 0.0
O105 O 0.04986 0.87324 0.26536 0.0
O106 O 0.05377 0.88734 0.39079 0.0
O107 O 0.97293 0.81673 0.2704 0.0
O108 O 0.98088 0.8097 0.39664 0.0
O109 O 0.97759 0.91138 0.33839 0.0
Sc110 Sc 0.00277 0.19794 0.80152 0.0
Sc111 Sc 0.999 0.11024 0.80425 0.0
Sc112 Sc 0.00324 0.15482 0.88794 0.0
O113 O 0.00168 0.15438 0.83124 0.0
C114 C 0.05297 0.21392 0.86817 0.0
C115 C 0.04812 0.15222 0.75305 0.0
C116 C 0.04932 0.09384 0.8703 0.0
C117 C 0.95097 0.15448 0.75476 0.0
C118 C 0.9559 0.21529 0.86857 0.0
C119 C 0.95262 0.09532 0.8731 0.0
O120 O 0.04129 0.21943 0.83568 0.0
O121 O 0.03533 0.12517 0.76469 0.0
O122 O 0.03977 0.11685 0.89142 0.0
O123 O 0.96427 0.18214 0.76348 0.0
O124 O 0.96694 0.19287 0.89043 0.0
O125 O 0.96235 0.08983 0.84033 0.0
O126 O 0.96629 0.21989 0.83565 0.0
O127 O 0.96052 0.12682 0.76791 0.0
O128 O 0.96488 0.11809 0.89348 0.0
O129 O 0.03944 0.18057 0.76432 0.0
O130 O 0.04189 0.19129 0.88961 0.0
O131 O 0.03702 0.08869 0.83808 0.0
Sc132 Sc 0.52407 0.30869 0.31553 0.0
Sc133 Sc 0.52296 0.39606 0.31864 0.0
Sc134 Sc 0.52515 0.34991 0.40235 0.0
O135 O 0.52416 0.3515 0.34553 0.0
C136 C 0.47486 0.29126 0.38146 0.0
C137 C 0.4743 0.35289 0.26801 0.0
C138 C 0.47638 0.4097 0.38647 0.0
C139 C 0.57186 0.35532 0.26863 0.0
C140 C 0.57216 0.29021 0.3831 0.0
C141 C 0.57362 0.41075 0.38537 0.0
O142 O 0.48636 0.28661 0.34922 0.0
O143 O 0.48489 0.38037 0.28081 0.0
O144 O 0.48878 0.38755 0.40754 0.0
O145 O 0.56156 0.32661 0.27845 0.0
O146 O 0.56137 0.31193 0.40496 0.0
O147 O 0.56069 0.41697 0.35367 0.0
O148 O 0.56142 0.28659 0.34994 0.0
O149 O 0.56006 0.38204 0.2808 0.0
O150 O 0.56399 0.38685 0.40622 0.0
O151 O 0.48635 0.3251 0.27744 0.0
O152 O 0.48624 0.31319 0.4037 0.0
O153 O 0.4858 0.41511 0.35342 0.0
Sc154 Sc 0.49616 0.68823 0.81661 0.0
Sc155 Sc 0.49327 0.60091 0.81028 0.0
Sc156 Sc 0.49943 0.63872 0.89837 0.0
O157 O 0.49625 0.64264 0.84177 0.0
C158 C 0.54912 0.69855 0.88215 0.0
C159 C 0.54003 0.64763 0.76144 0.0
C160 C 0.5457 0.58018 0.8721 0.0
C161 C 0.44332 0.64806 0.76745 0.0
C162 C 0.45152 0.70016 0.88716 0.0
C163 C 0.44852 0.58053 0.87907 0.0
O164 O 0.53556 0.70676 0.85136 0.0
O165 O 0.52737 0.61969 0.7702 0.0
O166 O 0.53561 0.6004 0.89626 0.0
O167 O 0.45682 0.67498 0.77846 0.0
O168 O 0.46389 0.67689 0.90679 0.0
O169 O 0.45863 0.57685 0.84613 0.0
O170 O 0.46031 0.70664 0.854 0.0
O171 O 0.45324 0.61956 0.77764 0.0
O172 O 0.46023 0.60243 0.90105 0.0
O173 O 0.53223 0.67472 0.77663 0.0
O174 O 0.53907 0.67427 0.90201 0.0
O175 O 0.53316 0.57783 0.8396 0.0
H176 H 0.21973 0.30288 0.98553 0.0
H177 H 0.15352 0.38283 0.96292 0.0
H178 H 0.18599 0.26558 0.94711 0.0
H179 H 0.11935 0.3456 0.92473 0.0
H180 H 0.07483 0.27375 0.83985 0.0
H181 H 0.11579 0.31121 0.86732 0.0
H182 H 0.13195 0.24064 0.95697 0.0
H183 H 0.09154 0.20323 0.92961 0.0
C184 C 0.19817 0.31249 0.97172 0.0
C185 C 0.18901 0.34546 0.97686 0.0
C186 C 0.17878 0.29119 0.94998 0.0
C187 C 0.14988 0.30258 0.9331 0.0
C188 C 0.14161 0.33617 0.93704 0.0
C189 C 0.16102 0.35743 0.95893 0.0
C190 C 0.08744 0.26606 0.86516 0.0
C191 C 0.07972 0.23555 0.88263 0.0
C192 C 0.11075 0.28761 0.88098 0.0
C193 C 0.12707 0.27891 0.91432 0.0
C194 C 0.12012 0.24793 0.93103 0.0
C195 C 0.09671 0.22658 0.91546 0.0
H196 H 0.80362 0.70615 0.50041 0.0
H197 H 0.85619 0.62003 0.46644 0.0
H198 H 0.84041 0.74209 0.46462 0.0
H199 H 0.89347 0.65584 0.43087 0.0
H200 H 0.93991 0.72983 0.34837 0.0
H201 H 0.8983 0.69438 0.37693 0.0
H202 H 0.89738 0.75907 0.47222 0.0
H203 H 0.93846 0.79462 0.44375 0.0
C204 C 0.82286 0.69499 0.48475 0.0
C205 C 0.82723 0.66056 0.48583 0.0
C206 C 0.84405 0.71549 0.46454 0.0
C207 C 0.87005 0.70186 0.44513 0.0
C208 C 0.87355 0.6671 0.44523 0.0
C209 C 0.85234 0.64661 0.46558 0.0
C210 C 0.93073 0.73659 0.37534 0.0
C211 C 0.94268 0.7651 0.39375 0.0
C212 C 0.90698 0.71618 0.39175 0.0
C213 C 0.89446 0.72394 0.4268 0.0
C214 C 0.90614 0.75262 0.44495 0.0
C215 C 0.92994 0.77289 0.4287 0.0
H216 H 0.79881 0.31235 0.98547 0.0
H217 H 0.85458 0.39141 0.9342 0.0
H218 H 0.83198 0.27112 0.95451 0.0
H219 H 0.88828 0.35047 0.90361 0.0
H220 H 0.9279 0.26829 0.83234 0.0
H221 H 0.88859 0.30686 0.8567 0.0
H222 H 0.88774 0.25224 0.96098 0.0
H223 H 0.92653 0.21336 0.93658 0.0
C224 C 0.818 0.32076 0.96715 0.0
C225 C 0.8243 0.35474 0.96187 0.0
C226 C 0.83712 0.29728 0.94968 0.0
C227 C 0.8629 0.3075 0.92674 0.0
C228 C 0.8684 0.34174 0.92072 0.0
C229 C 0.84926 0.36518 0.93825 0.0
C230 C 0.91917 0.26431 0.86037 0.0
C231 C 0.93059 0.23773 0.88252 0.0
C232 C 0.89673 0.28655 0.87438 0.0
C233 C 0.88508 0.2827 0.91081 0.0
C234 C 0.89589 0.25571 0.93263 0.0
C235 C 0.91836 0.23351 0.91868 0.0
H236 H 0.2318 0.69451 0.48363 0.0
H237 H 0.2583 0.7089 0.36876 0.0
H238 H 0.17829 0.71848 0.46998 0.0
H239 H 0.20535 0.7332 0.35495 0.0
H240 H 0.09747 0.74156 0.33352 0.0
H241 H 0.14844 0.71512 0.35061 0.0
H242 H 0.15371 0.77206 0.45201 0.0
H243 H 0.10244 0.79821 0.43537 0.0
C244 C 0.22611 0.70313 0.45559 0.0
C245 C 0.24875 0.70019 0.42716 0.0
C246 C 0.19566 0.71683 0.44775 0.0
C247 C 0.18754 0.7275 0.41131 0.0
C248 C 0.21064 0.7247 0.38312 0.0
C249 C 0.24099 0.71112 0.39101 0.0
C250 C 0.10928 0.74829 0.35963 0.0
C251 C 0.09587 0.77221 0.38291 0.0
C252 C 0.13863 0.73327 0.3693 0.0
C253 C 0.15525 0.74176 0.40248 0.0
C254 C 0.14138 0.76484 0.42637 0.0
C255 C 0.11203 0.77993 0.41669 0.0
H256 H 0.73643 0.7965 0.87803 0.0
H257 H 0.71874 0.79009 0.996 0.0
H258 H 0.68348 0.77077 0.86488 0.0
H259 H 0.66505 0.76471 0.98311 0.0
H260 H 0.5896 0.68502 0.94186 0.0
H261 H 0.64049 0.71322 0.95882 0.0
H262 H 0.62636 0.78289 0.86781 0.0
H263 H 0.57596 0.75444 0.85033 0.0
C264 C 0.72094 0.78965 0.90111 0.0
C265 C 0.7313 0.7951 0.9379 0.0
C266 C 0.69055 0.77516 0.89365 0.0
C267 C 0.66987 0.76588 0.92293 0.0
C268 C 0.68048 0.77135 0.95995 0.0
C269 C 0.71103 0.78594 0.96737 0.0
C270 C 0.59719 0.70651 0.92561 0.0
C271 C 0.57873 0.71723 0.89449 0.0
C272 C 0.62633 0.72278 0.93549 0.0
C273 C 0.63767 0.75014 0.91449 0.0
C274 C 0.61866 0.7615 0.88416 0.0
C275 C 0.58962 0.74524 0.87425 0.0
H276 H 0.28314 0.20258 0.37647 0.0
H277 H 0.3103 0.19333 0.4926 0.0
H278 H 0.33748 0.22406 0.36234 0.0
H279 H 0.36511 0.21418 0.47871 0.0
H280 H 0.43948 0.29651 0.44527 0.0
H281 H 0.38932 0.26717 0.46094 0.0
H282 H 0.3945 0.21105 0.35925 0.0
H283 H 0.44429 0.24082 0.34309 0.0
C284 C 0.30112 0.20453 0.39877 0.0
C285 C 0.29295 0.19629 0.43547 0.0
C286 C 0.33225 0.21671 0.39076 0.0
C287 C 0.3557 0.22095 0.41942 0.0
C288 C 0.34754 0.21162 0.45608 0.0
C289 C 0.31636 0.19944 0.46403 0.0
C290 C 0.43015 0.27771 0.42637 0.0
C291 C 0.44591 0.27129 0.39275 0.0
C292 C 0.40142 0.26071 0.43549 0.0
C293 C 0.38775 0.23683 0.41127 0.0
C294 C 0.40407 0.22964 0.37826 0.0
C295 C 0.43276 0.24665 0.3691 0.0
H296 H 0.35303 0.84215 0.02362 0.0
H297 H 0.28638 0.82686 0.93127 0.0
H298 H 0.38776 0.79821 0.00033 0.0
H299 H 0.32066 0.78265 0.90799 0.0
H300 H 0.41376 0.74658 0.8519 0.0
H301 H 0.37432 0.78304 0.87926 0.0
H302 H 0.39203 0.73799 0.98733 0.0
H303 H 0.43196 0.70151 0.96003 0.0
C304 C 0.34554 0.82875 -0.0012 0.0
C305 C 0.31721 0.83751 0.97916 0.0
C306 C 0.3653 0.80361 0.98548 0.0
C307 C 0.35708 0.7871 0.95214 0.0
C308 C 0.32788 0.79518 0.93345 0.0
C309 C 0.30814 0.82022 0.94686 0.0
C310 C 0.40922 0.74424 0.88148 0.0
C311 C 0.42624 0.72115 0.90375 0.0
C312 C 0.38636 0.76502 0.89712 0.0
C313 C 0.37997 0.76338 0.93547 0.0
C314 C 0.3966 0.74002 0.95773 0.0
C315 C 0.41937 0.71902 0.94202 0.0
H316 H 0.65668 0.10378 0.44332 0.0
H317 H 0.71733 0.172 0.50615 0.0
H318 H 0.62689 0.15036 0.41598 0.0
H319 H 0.68787 0.21908 0.47844 0.0
H320 H 0.59882 0.287 0.45358 0.0
H321 H 0.63342 0.24377 0.4797 0.0
H322 H 0.63557 0.19648 0.37223 0.0
H323 H 0.60054 0.23928 0.34612 0.0
C324 C 0.66351 0.1289 0.45118 0.0
C325 C 0.68891 0.13467 0.47676 0.0
C326 C 0.64674 0.15554 0.43534 0.0
C327 C 0.6552 0.18842 0.44483 0.0
C328 C 0.68068 0.19403 0.47077 0.0
C329 C 0.69751 0.16726 0.48657 0.0
C330 C 0.60693 0.26761 0.43535 0.0
C331 C 0.59651 0.26645 0.39781 0.0
C332 C 0.6269 0.2429 0.45034 0.0
C333 C 0.63687 0.2165 0.42814 0.0
C334 C 0.62773 0.21617 0.39022 0.0
C335 C 0.6078 0.24085 0.37522 0.0
H336 H 0.35758 0.40326 0.96265 0.0
H337 H 0.28578 0.47682 0.98636 0.0
H338 H 0.38887 0.44477 0.92763 0.0
H339 H 0.31717 0.51856 0.95138 0.0
H340 H 0.42672 0.52296 0.84669 0.0
H341 H 0.38727 0.48283 0.87093 0.0
H342 H 0.37262 0.54517 0.96624 0.0
H343 H 0.41218 0.58547 0.94216 0.0
C344 C 0.34817 0.42816 0.95955 0.0
C345 C 0.31933 0.43692 0.97709 0.0
C346 C 0.366 0.45189 0.93951 0.0
C347 C 0.35554 0.48493 0.93706 0.0
C348 C 0.32588 0.49331 0.95311 0.0
C349 C 0.30779 0.46941 0.97274 0.0
C350 C 0.4149 0.52836 0.87264 0.0
C351 C 0.42284 0.55738 0.89264 0.0
C352 C 0.39235 0.50529 0.88651 0.0
C353 C 0.37692 0.51088 0.92043 0.0
C354 C 0.38393 0.54039 0.9398 0.0
C355 C 0.40678 0.56333 0.92616 0.0
H356 H 0.66209 0.59137 0.45882 0.0
H357 H 0.73191 0.52052 0.50005 0.0
H358 H 0.63306 0.54726 0.42533 0.0
H359 H 0.70275 0.476 0.46648 0.0
H360 H 0.60829 0.40787 0.4516 0.0
H361 H 0.64732 0.44897 0.47581 0.0
H362 H 0.63747 0.50638 0.37406 0.0
H363 H 0.59854 0.46569 0.34983 0.0
C364 C 0.67161 0.56641 0.45989 0.0
C365 C 0.69923 0.55927 0.4818 0.0
C366 C 0.65506 0.54116 0.44072 0.0
C367 C 0.66554 0.50812 0.44344 0.0
C368 C 0.69401 0.5012 0.46413 0.0
C369 C 0.71087 0.52665 0.48295 0.0
C370 C 0.61472 0.42903 0.43419 0.0
C371 C 0.59986 0.43359 0.39894 0.0
C372 C 0.63727 0.45246 0.44797 0.0
C373 C 0.64528 0.48101 0.4269 0.0
C374 C 0.63148 0.48484 0.3911 0.0
C375 C 0.60917 0.4614 0.37724 0.0
H376 H 0.72236 0.48784 0.95954 0.0
H377 H 0.65069 0.40929 0.94666 0.0
H378 H 0.68609 0.52643 0.92675 0.0
H379 H 0.61447 0.44771 0.91381 0.0
H380 H 0.56393 0.52311 0.83765 0.0
H381 H 0.60714 0.48527 0.85679 0.0
H382 H 0.63243 0.54943 0.94884 0.0
H383 H 0.58927 0.58722 0.92998 0.0
C384 C 0.6993 0.47861 0.9486 0.0
C385 C 0.68924 0.44566 0.95557 0.0
C386 C 0.67843 0.50073 0.93023 0.0
C387 C 0.64736 0.49013 0.91809 0.0
C388 C 0.63832 0.45654 0.92268 0.0
C389 C 0.65899 0.43457 0.94148 0.0
C390 C 0.57889 0.52932 0.86179 0.0
C391 C 0.57297 0.55808 0.88247 0.0
C392 C 0.60357 0.5076 0.87273 0.0
C393 C 0.62319 0.51447 0.9042 0.0
C394 C 0.61794 0.54371 0.92419 0.0
C395 C 0.593 0.56518 0.91358 0.0
H396 H 0.39183 0.56244 0.51392 0.0
H397 H 0.31961 0.54873 0.42639 0.0
H398 H 0.42061 0.51413 0.49238 0.0
H399 H 0.34879 0.5004 0.40453 0.0
H400 H 0.4392 0.45477 0.34828 0.0
H401 H 0.40163 0.4943 0.37376 0.0
H402 H 0.41799 0.45316 0.48404 0.0
H403 H 0.45604 0.41369 0.45869 0.0
C404 C 0.38165 0.54866 0.49062 0.0
C405 C 0.35347 0.55952 0.47178 0.0
C406 C 0.39819 0.52095 0.47825 0.0
C407 C 0.38702 0.50356 0.44668 0.0
C408 C 0.35818 0.51361 0.42867 0.0
C409 C 0.34153 0.54127 0.44114 0.0
C410 C 0.43461 0.45386 0.37792 0.0
C411 C 0.45097 0.43128 0.40149 0.0
C412 C 0.41283 0.47638 0.39247 0.0
C413 C 0.40697 0.47692 0.43092 0.0
C414 C 0.42232 0.45353 0.45433 0.0
C415 C 0.44401 0.43085 0.43975 0.0
H416 H 0.80335 0.94435 0.92634 0.0
H417 H 0.88256 0.93594 0.00639 0.0
H418 H 0.8291 0.99437 0.90014 0.0
H419 H 0.90746 0.98609 0.981 0.0
H420 H 0.93397 0.09005 0.94591 0.0
H421 H 0.89904 0.04731 0.97355 0.0
H422 H 0.88067 0.00559 0.86469 0.0
H423 H 0.9154 0.04835 0.83684 0.0
C424 C 0.82607 0.95322 0.93852 0.0
C425 C 0.84077 0.93608 0.96859 0.0
C426 C 0.84072 0.98191 0.9236 0.0
C427 C 0.87018 0.99423 0.93868 0.0
C428 C 0.88443 0.97759 0.96925 0.0
C429 C 0.87003 0.94882 0.98388 0.0
C430 C 0.92208 0.07214 0.92772 0.0
C431 C 0.92786 0.07243 0.88917 0.0
C432 C 0.90219 0.04757 0.94362 0.0
C433 C 0.8874 0.02295 0.92132 0.0
C434 C 0.89161 0.02435 0.88256 0.0
C435 C 0.9117 0.04875 0.86666 0.0
H436 H 0.16311 0.09539 0.40531 0.0
H437 H 0.20056 0.03467 0.49554 0.0
H438 H 0.13681 0.04675 0.37782 0.0
H439 H 0.17523 0.98549 0.46744 0.0
H440 H 0.08498 0.92072 0.4397 0.0
H441 H 0.12189 0.9641 0.46172 0.0
H442 H 0.13918 0.99501 0.34789 0.0
H443 H 0.10111 0.9523 0.32592 0.0
C444 C 0.1666 0.07138 0.4186 0.0
C445 C 0.18374 0.06883 0.45265 0.0
C446 C 0.15151 0.04338 0.40283 0.0
C447 C 0.15347 0.01208 0.42058 0.0
C448 C 0.17248 0.00926 0.45343 0.0
C449 C 0.18724 0.03736 0.46941 0.0
C450 C 0.09692 0.93649 0.41929 0.0
C451 C 0.08975 0.93319 0.38105 0.0
C452 C 0.11836 0.96133 0.43193 0.0
C453 C 0.13354 0.98334 0.40665 0.0
C454 C 0.1275 0.97901 0.36826 0.0
C455 C 0.10576 0.95437 0.35563 0.0
H456 H 0.14026 0.91704 0.9544 0.0
H457 H 0.21455 0.99176 0.97515 0.0
H458 H 0.10643 0.95869 0.92343 0.0
H459 H 0.18069 0.03353 0.94392 0.0
H460 H 0.06767 0.03493 0.84027 0.0
H461 H 0.1063 0.99519 0.86598 0.0
H462 H 0.12701 0.06068 0.95821 0.0
H463 H 0.08835 0.10066 0.93259 0.0
C464 C 0.14939 0.94236 0.9521 0.0
C465 C 0.17997 0.95122 0.96719 0.0
C466 C 0.13016 0.96613 0.93417 0.0
C467 C 0.14095 0.99934 0.93129 0.0
C468 C 0.17172 0.00814 0.94595 0.0
C469 C 0.19116 0.98423 0.96352 0.0
C470 C 0.08064 0.0411 0.86585 0.0
C471 C 0.0747 0.07096 0.88448 0.0
C472 C 0.10266 0.01821 0.88063 0.0
C473 C 0.11951 0.02477 0.91416 0.0
C474 C 0.1145 0.05507 0.93217 0.0
C475 C 0.0922 0.07787 0.91759 0.0
H476 H 0.86755 0.07448 0.45768 0.0
H477 H 0.80072 0.99308 0.47944 0.0
H478 H 0.90318 0.03671 0.42529 0.0
H479 H 0.8361 0.95541 0.44654 0.0
H480 H 0.93114 0.89579 0.4336 0.0
H481 H 0.89131 0.93264 0.45983 0.0
H482 H 0.90487 0.0014 0.36801 0.0
H483 H 0.945 0.96464 0.34165 0.0
C484 C 0.86044 0.04854 0.45534 0.0
C485 C 0.83147 0.03666 0.47118 0.0
C486 C 0.88064 0.02702 0.43652 0.0
C487 C 0.8724 0.99314 0.43345 0.0
C488 C 0.84314 0.98137 0.44873 0.0
C489 C 0.8228 0.00295 0.46728 0.0
C490 C 0.92554 0.91866 0.41882 0.0
C491 C 0.94143 0.92734 0.38562 0.0
C492 C 0.90254 0.93965 0.43375 0.0
C493 C 0.89507 0.9699 0.41599 0.0
C494 C 0.91041 0.97834 0.38243 0.0
C495 C 0.93324 0.95719 0.36727 0.0
H496 H 0.36677 0.35079 0.06105 0.0
H497 H 0.298 0.39168 0.13706 0.0
H498 H 0.40411 0.33966 0.11319 0.0
H499 H 0.33529 0.38033 0.18933 0.0
H500 H 0.45413 0.30353 0.22044 0.0
H501 H 0.41092 0.30619 0.17294 0.0
H502 H 0.38972 0.40626 0.2062 0.0
H503 H 0.4327 0.40377 0.25354 0.0
C504 C 0.3595 0.35693 0.08902 0.0
C505 C 0.32963 0.37226 0.09507 0.0
C506 C 0.38073 0.35035 0.11885 0.0
C507 C 0.37264 0.35931 0.15524 0.0
C508 C 0.34221 0.37343 0.16148 0.0
C509 C 0.3208 0.37968 0.13167 0.0
C510 C 0.44006 0.32599 0.21783 0.0
C511 C 0.44703 0.35354 0.24059 0.0
C512 C 0.41542 0.32751 0.19058 0.0
C513 C 0.39698 0.3564 0.18595 0.0
C514 C 0.4033 0.38353 0.20943 0.0
C515 C 0.42814 0.38218 0.23632 0.0
H516 H 0.64024 0.63926 0.55168 0.0
H517 H 0.71574 0.62911 0.63611 0.0
H518 H 0.60096 0.65008 0.60008 0.0
H519 H 0.67645 0.64154 0.68424 0.0
H520 H 0.59161 0.69085 0.75275 0.0
H521 H 0.63266 0.69003 0.70371 0.0
H522 H 0.58353 0.60572 0.65371 0.0
H523 H 0.54323 0.60589 0.70278 0.0
C524 C 0.64859 0.63971 0.58046 0.0
C525 C 0.68108 0.63263 0.58999 0.0
C526 C 0.62612 0.64616 0.60806 0.0
C527 C 0.63575 0.64639 0.64573 0.0
C528 C 0.66857 0.64167 0.65527 0.0
C529 C 0.69103 0.63466 0.62766 0.0
C530 C 0.5896 0.67227 0.73116 0.0
C531 C 0.56433 0.64836 0.73159 0.0
C532 C 0.61306 0.67177 0.7033 0.0
C533 C 0.611 0.64794 0.67499 0.0
C534 C 0.58543 0.6245 0.6751 0.0
C535 C 0.56253 0.6245 0.70329 0.0
H536 H 0.71315 0.34151 0.08731 0.0
H537 H 0.66729 0.43728 0.08126 0.0
H538 H 0.68437 0.32893 0.1453 0.0
H539 H 0.63808 0.42449 0.13791 0.0
H540 H 0.61118 0.40892 0.25534 0.0
H541 H 0.64835 0.41736 0.20411 0.0
H542 H 0.62771 0.31764 0.166 0.0
H543 H 0.59081 0.30882 0.2181 0.0
C544 C 0.69702 0.35984 0.09842 0.0
C545 C 0.69224 0.39024 0.07961 0.0
C546 C 0.68042 0.35257 0.13139 0.0
C547 C 0.65907 0.37577 0.14627 0.0
C548 C 0.6547 0.40626 0.12756 0.0
C549 C 0.67111 0.41342 0.09475 0.0
C550 C 0.61478 0.3886 0.23631 0.0
C551 C 0.59761 0.35838 0.24042 0.0
C552 C 0.63604 0.3935 0.20688 0.0
C553 C 0.64048 0.3684 0.18058 0.0
C554 C 0.62485 0.33743 0.18587 0.0
C555 C 0.60364 0.33242 0.21562 0.0
H556 H 0.30211 0.60041 0.59286 0.0
H557 H 0.35871 0.68503 0.55546 0.0
H558 H 0.32175 0.60929 0.65664 0.0
H559 H 0.37958 0.69321 0.61859 0.0
H560 H 0.41542 0.70339 0.73532 0.0
H561 H 0.37655 0.70486 0.6832 0.0
H562 H 0.37292 0.59742 0.6831 0.0
H563 H 0.41042 0.59598 0.73551 0.0
C564 C 0.31813 0.62142 0.59857 0.0
C565 C 0.32912 0.64189 0.56934 0.0
C566 C 0.32965 0.62636 0.63497 0.0
C567 C 0.35294 0.65145 0.64271 0.0
C568 C 0.36158 0.67375 0.6139 0.0
C569 C 0.34964 0.66908 0.5776 0.0
C570 C 0.4058 0.68011 0.72459 0.0
C571 C 0.41649 0.64956 0.73934 0.0
C572 C 0.38361 0.68096 0.69459 0.0
C573 C 0.3717 0.65128 0.67861 0.0
C574 C 0.38105 0.62085 0.69483 0.0
C575 C 0.40299 0.62001 0.72483 0.0
H576 H 0.80875 0.89677 0.09892 0.0
H577 H 0.85524 0.81023 0.05559 0.0
H578 H 0.83671 0.88848 0.15877 0.0
H579 H 0.88393 0.80235 0.11486 0.0
H580 H 0.92842 0.7906 0.22939 0.0
H581 H 0.8862 0.79098 0.18076 0.0
H582 H 0.89213 0.89824 0.17603 0.0
H583 H 0.93334 0.89798 0.22494 0.0
C584 C 0.82439 0.87552 0.10255 0.0
C585 C 0.83003 0.85429 0.07258 0.0
C586 C 0.84064 0.87091 0.13669 0.0
C587 C 0.86317 0.84518 0.14143 0.0
C588 C 0.86667 0.82232 0.11238 0.0
C589 C 0.85017 0.82679 0.07833 0.0
C590 C 0.9204 0.81428 0.21829 0.0
C591 C 0.93458 0.84425 0.23094 0.0
C592 C 0.89625 0.81447 0.19031 0.0
C593 C 0.88572 0.84462 0.17436 0.0
C594 C 0.89913 0.87455 0.18801 0.0
C595 C 0.92313 0.87437 0.21593 0.0
H596 H 0.15169 0.18642 0.54931 0.0
H597 H 0.19086 0.09345 0.58917 0.0
H598 H 0.12179 0.19183 0.60685 0.0
H599 H 0.16144 0.0991 0.64727 0.0
H600 H 0.0683 0.09714 0.71643 0.0
H601 H 0.10603 0.09454 0.66538 0.0
H602 H 0.12356 0.20044 0.67286 0.0
H603 H 0.08488 0.20327 0.72347 0.0
C604 C 0.15454 0.16754 0.5708 0.0
C605 C 0.1735 0.13943 0.56467 0.0
C606 C 0.13741 0.17064 0.60387 0.0
C607 C 0.13898 0.14578 0.63166 0.0
C608 C 0.15915 0.11839 0.62616 0.0
C609 C 0.17611 0.11519 0.59297 0.0
C610 C 0.08033 0.1199 0.70749 0.0
C611 C 0.07326 0.15048 0.72395 0.0
C612 C 0.10224 0.11835 0.67829 0.0
C613 C 0.11786 0.14729 0.66489 0.0
C614 C 0.1116 0.17774 0.68211 0.0
C615 C 0.08951 0.17933 0.71126 0.0
H616 H 0.22471 0.88444 0.10937 0.0
H617 H 0.14572 0.84886 0.03922 0.0
H618 H 0.19366 0.86935 0.16483 0.0
H619 H 0.1147 0.83369 0.09457 0.0
H620 H 0.07333 0.79582 0.20485 0.0
H621 H 0.1125 0.79798 0.15417 0.0
H622 H 0.14221 0.89684 0.18728 0.0
H623 H 0.10311 0.89492 0.23753 0.0
C624 C 0.20116 0.8724 0.10586 0.0
C625 C 0.18751 0.8679 0.0701 0.0
C626 C 0.1833 0.86405 0.13754 0.0
C627 C 0.15167 0.85066 0.13397 0.0
C628 C 0.13907 0.84381 0.09818 0.0
C629 C 0.15675 0.85256 0.06653 0.0
C630 C 0.08851 0.81785 0.20156 0.0
C631 C 0.08492 0.84532 0.22502 0.0
C632 C 0.11084 0.81907 0.17253 0.0
C633 C 0.13044 0.84752 0.16688 0.0
C634 C 0.12771 0.87442 0.19123 0.0
C635 C 0.10508 0.87343 0.2198 0.0
H636 H 0.86149 0.13872 0.54122 0.0
H637 H 0.78435 0.10396 0.61255 0.0
H638 H 0.89205 0.15854 0.59571 0.0
H639 H 0.81463 0.12435 0.66698 0.0
H640 H 0.93599 0.20153 0.70148 0.0
H641 H 0.8955 0.19658 0.65093 0.0
H642 H 0.86516 0.10084 0.69462 0.0
H643 H 0.90524 0.10573 0.74481 0.0
C644 C 0.85075 0.13606 0.56847 0.0
C645 C 0.82074 0.11943 0.57268 0.0
C646 C 0.86811 0.14765 0.59965 0.0
C647 C 0.85587 0.14265 0.63565 0.0
C648 C 0.8248 0.1282 0.63958 0.0
C649 C 0.80735 0.11679 0.60839 0.0
C650 C 0.92025 0.17973 0.70061 0.0
C651 C 0.92404 0.15386 0.7269 0.0
C652 C 0.89719 0.17686 0.67162 0.0
C653 C 0.87719 0.14833 0.66881 0.0
C654 C 0.87992 0.12332 0.69624 0.0
C655 C 0.90314 0.12598 0.72483 0.0
loop_
_geom_bond_atom_site_label_1
_geom_bond_atom_site_label_2
_geom_bond_distance
_geom_bond_site_symmetry_2
_ccdc_geom_bond_type
H0 C3 0.929 . S
H1 C6 0.929 . S
H2 C8 0.930 . S
C3 H0 0.929 . S
C3 C4 1.398 . S
C3 C5 1.396 1_554 S
C4 C3 1.398 . S
C4 C8 1.407 . S
C5 C3 1.396 1_556 S
C5 C6 1.394 . S
C6 H1 0.929 . S
C6 C5 1.394 . S
C6 C7 1.382 1_556 S
C7 C6 1.382 1_554 S
C7 C8 1.392 . S
C7 N9 1.420 1_554 S
C8 H2 0.930 . S
C8 C4 1.407 . S
C8 C7 1.392 . S
N9 C7 1.420 1_556 S
N9 C10 1.244 . S
C10 N9 1.244 . S
H11 C14 0.929 . S
H12 C17 0.929 . S
H13 C19 0.930 . S
C14 H11 0.929 . S
C14 C15 1.398 . S
C14 C16 1.396 . S
C15 C14 1.398 . S
C15 C19 1.407 . S
C16 C14 1.396 . S
C16 C17 1.394 . S
C17 H12 0.929 . S
C17 C16 1.394 . S
C17 C18 1.382 . S
C18 C17 1.382 . S
C18 C19 1.392 . S
C18 N20 1.420 . S
C19 H13 0.930 . S
C19 C15 1.407 . S
C19 C18 1.392 . S
N20 C18 1.420 . S
N20 C21 1.244 . S
C21 N20 1.244 . S
H22 C25 0.929 . S
H23 C28 0.929 . S
H24 C30 0.930 . S
C25 H22 0.929 . S
C25 C26 1.398 . S
C25 C27 1.396 1_554 S
C26 C25 1.398 . S
C26 C30 1.407 . S
C27 C25 1.396 1_556 S
C27 C28 1.394 . S
C28 H23 0.929 . S
C28 C27 1.394 . S
C28 C29 1.382 1_556 S
C29 C28 1.382 1_554 S
C29 C30 1.392 . S
C29 N31 1.420 . S
C30 H24 0.930 . S
C30 C26 1.407 . S
C30 C29 1.392 . S
N31 C29 1.420 . S
N31 C32 1.244 1_554 S
C32 N31 1.244 1_556 S
H33 C36 0.929 . S
H34 C39 0.929 . S
H35 C41 0.930 . S
C36 H33 0.929 . S
C36 C37 1.398 . S
C36 C38 1.396 . S
C37 C36 1.398 . S
C37 C41 1.407 . S
C38 C36 1.396 . S
C38 C39 1.394 . S
C39 H34 0.929 . S
C39 C38 1.394 . S
C39 C40 1.382 . S
C40 C39 1.382 . S
C40 C41 1.392 . S
C40 N42 1.420 . S
C41 H35 0.930 . S
C41 C37 1.407 . S
C41 C40 1.392 . S
N42 C40 1.420 . S
N42 C43 1.244 . S
C43 N42 1.244 . S
H44 C47 0.929 . S
H45 C50 0.929 . S
H46 C52 0.930 . S
C47 H44 0.929 . S
C47 C48 1.398 . S
C47 C49 1.396 1_554 S
C48 C47 1.398 . S
C48 C52 1.407 . S
C49 C47 1.396 1_556 S
C49 C50 1.394 . S
C50 H45 0.929 . S
C50 C49 1.394 . S
C50 C51 1.382 1_556 S
C51 C50 1.382 1_554 S
C51 C52 1.392 . S
C51 N53 1.420 1_554 S
C52 H46 0.930 . S
C52 C48 1.407 . S
C52 C51 1.392 . S
N53 C51 1.420 1_556 S
N53 C54 1.244 . S
C54 N53 1.244 . S
H55 C58 0.929 . S
H56 C61 0.929 . S
H57 C63 0.930 . S
C58 H55 0.929 . S
C58 C59 1.398 . S
C58 C60 1.396 . S
C59 C58 1.398 . S
C59 C63 1.407 . S
C60 C58 1.396 . S
C60 C61 1.394 . S
C61 H56 0.929 . S
C61 C60 1.394 . S
C61 C62 1.382 . S
C62 C61 1.382 . S
C62 C63 1.392 . S
C62 N64 1.420 . S
C63 H57 0.930 . S
C63 C59 1.407 . S
C63 C62 1.392 . S
N64 C62 1.420 . S
N64 C65 1.244 . S
C65 N64 1.244 . S
H66 C69 0.929 . S
H67 C72 0.929 . S
H68 C74 0.930 . S
C69 H66 0.929 . S
C69 C70 1.398 . S
C69 C71 1.396 1_554 S
C70 C69 1.398 . S
C70 C74 1.407 . S
C71 C69 1.396 1_556 S
C71 C72 1.394 . S
C72 H67 0.929 . S
C72 C71 1.394 . S
C72 C73 1.382 1_556 S
C73 C72 1.382 1_554 S
C73 C74 1.392 . S
C73 N75 1.420 . S
C74 H68 0.930 . S
C74 C70 1.407 . S
C74 C73 1.392 . S
N75 C73 1.420 . S
N75 C76 1.244 1_554 S
C76 N75 1.244 1_556 S
H77 C80 0.929 . S
H78 C83 0.929 . S
H79 C85 0.930 . S
C80 H77 0.929 . S
C80 C81 1.398 . S
C80 C82 1.396 . S
C81 C80 1.398 . S
C81 C85 1.407 . S
C82 C80 1.396 . S
C82 C83 1.394 . S
C83 H78 0.929 . S
C83 C82 1.394 . S
C83 C84 1.382 . S
C84 C83 1.382 . S
C84 C85 1.392 . S
C84 N86 1.420 . S
C85 H79 0.930 . S
C85 C81 1.407 . S
C85 C84 1.392 . S
N86 C84 1.420 . S
N86 C87 1.244 . S
C87 N86 1.244 . S
Sc88 O91 2.025 . S
Sc88 O98 2.105 1_455 S
Sc88 O101 2.105 . S
Sc88 O104 2.105 . S
Sc88 O107 2.105 1_455 S
Sc89 O91 2.025 . S
Sc89 O99 2.105 1_455 S
Sc89 O103 2.105 . S
Sc89 O105 2.105 . S
Sc89 O109 2.105 1_455 S
Sc90 O91 2.025 . S
Sc90 O100 2.105 1_455 S
Sc90 O102 2.105 . S
Sc90 O106 2.105 . S
Sc90 O108 2.105 1_455 S
O91 Sc88 2.025 . S
O91 Sc89 2.025 . S
O91 Sc90 2.025 . S
C92 O98 1.268 . S
C92 O108 1.268 . S
C93 O99 1.268 . S
C93 O107 1.268 . S
C94 O100 1.268 . S
C94 O109 1.268 . S
C95 O101 1.268 . S
C95 O105 1.268 . S
C96 O102 1.268 . S
C96 O104 1.268 . S
C97 O103 1.268 . S
C97 O106 1.268 . S
O98 Sc88 2.105 1_655 S
O98 C92 1.268 . S
O99 Sc89 2.105 1_655 S
O99 C93 1.268 . S
O100 Sc90 2.105 1_655 S
O100 C94 1.268 . S
O101 Sc88 2.105 . S
O101 C95 1.268 . S
O102 Sc90 2.105 . S
O102 C96 1.268 . S
O103 Sc89 2.105 . S
O103 C97 1.268 . S
O104 Sc88 2.105 . S
O104 C96 1.268 . S
O105 Sc89 2.105 . S
O105 C95 1.268 . S
O106 Sc90 2.105 . S
O106 C97 1.268 . S
O107 Sc88 2.105 1_655 S
O107 C93 1.268 . S
O108 Sc90 2.105 1_655 S
O108 C92 1.268 . S
O109 Sc89 2.105 1_655 S
O109 C94 1.268 . S
Sc110 O113 2.025 . S
Sc110 O120 2.105 . S
Sc110 O123 2.105 1_455 S
Sc110 O126 2.105 1_455 S
Sc110 O129 2.105 . S
Sc111 O113 2.025 . S
Sc111 O121 2.105 . S
Sc111 O125 2.105 1_455 S
Sc111 O127 2.105 1_455 S
Sc111 O131 2.105 . S
Sc112 O113 2.025 . S
Sc112 O122 2.105 . S
Sc112 O124 2.105 1_455 S
Sc112 O128 2.105 1_455 S
Sc112 O130 2.105 . S
O113 Sc110 2.025 . S
O113 Sc111 2.025 . S
O113 Sc112 2.025 . S
C114 O120 1.268 . S
C114 O130 1.268 . S
C115 O121 1.268 . S
C115 O129 1.268 . S
C116 O122 1.268 . S
C116 O131 1.268 . S
C117 O123 1.268 . S
C117 O127 1.268 . S
C118 O124 1.268 . S
C118 O126 1.268 . S
C119 O125 1.268 . S
C119 O128 1.268 . S
O120 Sc110 2.105 . S
O120 C114 1.268 . S
O121 Sc111 2.105 . S
O121 C115 1.268 . S
O122 Sc112 2.105 . S
O122 C116 1.268 . S
O123 Sc110 2.105 1_655 S
O123 C117 1.268 . S
O124 Sc112 2.105 1_655 S
O124 C118 1.268 . S
O125 Sc111 2.105 1_655 S
O125 C119 1.268 . S
O126 Sc110 2.105 1_655 S
O126 C118 1.268 . S
O127 Sc111 2.105 1_655 S
O127 C117 1.268 . S
O128 Sc112 2.105 1_655 S
O128 C119 1.268 . S
O129 Sc110 2.105 . S
O129 C115 1.268 . S
O130 Sc112 2.105 . S
O130 C114 1.268 . S
O131 Sc111 2.105 . S
O131 C116 1.268 . S
Sc132 O135 2.025 . S
Sc132 O142 2.105 . S
Sc132 O145 2.105 . S
Sc132 O148 2.105 . S
Sc132 O151 2.105 . S
Sc133 O135 2.025 . S
Sc133 O143 2.105 . S
Sc133 O147 2.105 . S
Sc133 O149 2.105 . S
Sc133 O153 2.105 . S
Sc134 O135 2.025 . S
Sc134 O144 2.105 . S
Sc134 O146 2.105 . S
Sc134 O150 2.105 . S
Sc134 O152 2.105 . S
O135 Sc132 2.025 . S
O135 Sc133 2.025 . S
O135 Sc134 2.025 . S
C136 O142 1.268 . S
C136 O152 1.268 . S
C137 O143 1.268 . S
C137 O151 1.268 . S
C138 O144 1.268 . S
C138 O153 1.268 . S
C139 O145 1.268 . S
C139 O149 1.268 . S
C140 O146 1.268 . S
C140 O148 1.268 . S
C141 O147 1.268 . S
C141 O150 1.268 . S
O142 Sc132 2.105 . S
O142 C136 1.268 . S
O143 Sc133 2.105 . S
O143 C137 1.268 . S
O144 Sc134 2.105 . S
O144 C138 1.268 . S
O145 Sc132 2.105 . S
O145 C139 1.268 . S
O146 Sc134 2.105 . S
O146 C140 1.268 . S
O147 Sc133 2.105 . S
O147 C141 1.268 . S
O148 Sc132 2.105 . S
O148 C140 1.268 . S
O149 Sc133 2.105 . S
O149 C139 1.268 . S
O150 Sc134 2.105 . S
O150 C141 1.268 . S
O151 Sc132 2.105 . S
O151 C137 1.268 . S
O152 Sc134 2.105 . S
O152 C136 1.268 . S
O153 Sc133 2.105 . S
O153 C138 1.268 . S
Sc154 O157 2.025 . S
Sc154 O164 2.105 . S
Sc154 O167 2.105 . S
Sc154 O170 2.105 . S
Sc154 O173 2.105 . S
Sc155 O157 2.025 . S
Sc155 O165 2.105 . S
Sc155 O169 2.105 . S
Sc155 O171 2.105 . S
Sc155 O175 2.105 . S
Sc156 O157 2.025 . S
Sc156 O166 2.105 . S
Sc156 O168 2.105 . S
Sc156 O172 2.105 . S
Sc156 O174 2.105 . S
O157 Sc154 2.025 . S
O157 Sc155 2.025 . S
O157 Sc156 2.025 . S
C158 O164 1.268 . S
C158 O174 1.268 . S
C159 O165 1.268 . S
C159 O173 1.268 . S
C160 O166 1.268 . S
C160 O175 1.268 . S
C161 O167 1.268 . S
C161 O171 1.268 . S
C162 O168 1.268 . S
C162 O170 1.268 . S
C163 O169 1.268 . S
C163 O172 1.268 . S
O164 Sc154 2.105 . S
O164 C158 1.268 . S
O165 Sc155 2.105 . S
O165 C159 1.268 . S
O166 Sc156 2.105 . S
O166 C160 1.268 . S
O167 Sc154 2.105 . S
O167 C161 1.268 . S
O168 Sc156 2.105 . S
O168 C162 1.268 . S
O169 Sc155 2.105 . S
O169 C163 1.268 . S
O170 Sc154 2.105 . S
O170 C162 1.268 . S
O171 Sc155 2.105 . S
O171 C161 1.268 . S
O172 Sc156 2.105 . S
O172 C163 1.268 . S
O173 Sc154 2.105 . S
O173 C159 1.268 . S
O174 Sc156 2.105 . S
O174 C158 1.268 . S
O175 Sc155 2.105 . S
O175 C160 1.268 . S
H176 C184 0.950 . S
H177 C189 0.950 . S
H178 C186 0.950 . S
H179 C188 0.950 . S
H180 C190 0.950 . S
H181 C192 0.950 . S
H182 C194 0.950 . S
H183 C195 0.950 . S
C184 H176 0.950 . S
C184 C185 1.386 . S
C184 C186 1.391 . S
C185 C184 1.386 . S
C185 C189 1.393 . S
C186 H178 0.950 . S
C186 C184 1.391 . S
C186 C187 1.400 . S
C187 C186 1.400 . S
C187 C188 1.398 . S
C187 C193 1.491 . S
C188 H179 0.950 . S
C188 C187 1.398 . S
C188 C189 1.391 . S
C189 H177 0.950 . S
C189 C185 1.393 . S
C189 C188 1.391 . S
C190 H180 0.950 . S
C190 C191 1.386 . S
C190 C192 1.391 . S
C191 C190 1.386 . S
C191 C195 1.393 . S
C192 H181 0.950 . S
C192 C190 1.391 . S
C192 C193 1.400 . S
C193 C187 1.491 . S
C193 C192 1.400 . S
C193 C194 1.398 . S
C194 H182 0.950 . S
C194 C193 1.398 . S
C194 C195 1.391 . S
C195 H183 0.950 . S
C195 C191 1.393 . S
C195 C194 1.391 . S
H196 C204 0.950 . S
H197 C209 0.950 . S
H198 C206 0.950 . S
H199 C208 0.950 . S
H200 C210 0.950 . S
H201 C212 0.950 . S
H202 C214 0.950 . S
H203 C215 0.950 . S
C204 H196 0.950 . S
C204 C205 1.386 . S
C204 C206 1.391 . S
C205 C204 1.386 . S
C205 C209 1.393 . S
C206 H198 0.950 . S
C206 C204 1.391 . S
C206 C207 1.400 . S
C207 C206 1.400 . S
C207 C208 1.398 . S
C207 C213 1.491 . S
C208 H199 0.950 . S
C208 C207 1.398 . S
C208 C209 1.391 . S
C209 H197 0.950 . S
C209 C205 1.393 . S
C209 C208 1.391 . S
C210 H200 0.950 . S
C210 C211 1.386 . S
C210 C212 1.391 . S
C211 C210 1.386 . S
C211 C215 1.393 . S
C212 H201 0.950 . S
C212 C210 1.391 . S
C212 C213 1.400 . S
C213 C207 1.491 . S
C213 C212 1.400 . S
C213 C214 1.398 . S
C214 H202 0.950 . S
C214 C213 1.398 . S
C214 C215 1.391 . S
C215 H203 0.950 . S
C215 C211 1.393 . S
C215 C214 1.391 . S
H216 C224 0.950 . S
H217 C229 0.950 . S
H218 C226 0.950 . S
H219 C228 0.950 . S
H220 C230 0.950 . S
H221 C232 0.950 . S
H222 C234 0.950 . S
H223 C235 0.950 . S
C224 H216 0.950 . S
C224 C225 1.386 . S
C224 C226 1.391 . S
C225 C224 1.386 . S
C225 C229 1.393 . S
C226 H218 0.950 . S
C226 C224 1.391 . S
C226 C227 1.400 . S
C227 C226 1.400 . S
C227 C228 1.398 . S
C227 C233 1.491 . S
C228 H219 0.950 . S
C228 C227 1.398 . S
C228 C229 1.391 . S
C229 H217 0.950 . S
C229 C225 1.393 . S
C229 C228 1.391 . S
C230 H220 0.950 . S
C230 C231 1.386 . S
C230 C232 1.391 . S
C231 C230 1.386 . S
C231 C235 1.393 . S
C232 H221 0.950 . S
C232 C230 1.391 . S
C232 C233 1.400 . S
C233 C227 1.491 . S
C233 C232 1.400 . S
C233 C234 1.398 . S
C234 H222 0.950 . S
C234 C233 1.398 . S
C234 C235 1.391 . S
C235 H223 0.950 . S
C235 C231 1.393 . S
C235 C234 1.391 . S
H236 C244 0.950 . S
H237 C249 0.950 . S
H238 C246 0.950 . S
H239 C248 0.950 . S
H240 C250 0.950 . S
H241 C252 0.950 . S
H242 C254 0.950 . S
H243 C255 0.950 . S
C244 H236 0.950 . S
C244 C245 1.386 . S
C244 C246 1.391 . S
C245 C244 1.386 . S
C245 C249 1.393 . S
C246 H238 0.950 . S
C246 C244 1.391 . S
C246 C247 1.400 . S
C247 C246 1.400 . S
C247 C248 1.398 . S
C247 C253 1.491 . S
C248 H239 0.950 . S
C248 C247 1.398 . S
C248 C249 1.391 . S
C249 H237 0.950 . S
C249 C245 1.393 . S
C249 C248 1.391 . S
C250 H240 0.950 . S
C250 C251 1.386 . S
C250 C252 1.391 . S
C251 C250 1.386 . S
C251 C255 1.393 . S
C252 H241 0.950 . S
C252 C250 1.391 . S
C252 C253 1.400 . S
C253 C247 1.491 . S
C253 C252 1.400 . S
C253 C254 1.398 . S
C254 H242 0.950 . S
C254 C253 1.398 . S
C254 C255 1.391 . S
C255 H243 0.950 . S
C255 C251 1.393 . S
C255 C254 1.391 . S
H256 C264 0.950 . S
H257 C269 0.950 . S
H258 C266 0.950 . S
H259 C268 0.950 . S
H260 C270 0.950 . S
H261 C272 0.950 . S
H262 C274 0.950 . S
H263 C275 0.950 . S
C264 H256 0.950 . S
C264 C265 1.386 . S
C264 C266 1.391 . S
C265 C264 1.386 . S
C265 C269 1.393 . S
C266 H258 0.950 . S
C266 C264 1.391 . S
C266 C267 1.400 . S
C267 C266 1.400 . S
C267 C268 1.398 . S
C267 C273 1.491 . S
C268 H259 0.950 . S
C268 C267 1.398 . S
C268 C269 1.391 . S
C269 H257 0.950 . S
C269 C265 1.393 . S
C269 C268 1.391 . S
C270 H260 0.950 . S
C270 C271 1.386 . S
C270 C272 1.391 . S
C271 C270 1.386 . S
C271 C275 1.393 . S
C272 H261 0.950 . S
C272 C270 1.391 . S
C272 C273 1.400 . S
C273 C267 1.491 . S
C273 C272 1.400 . S
C273 C274 1.398 . S
C274 H262 0.950 . S
C274 C273 1.398 . S
C274 C275 1.391 . S
C275 H263 0.950 . S
C275 C271 1.393 . S
C275 C274 1.391 . S
H276 C284 0.950 . S
H277 C289 0.950 . S
H278 C286 0.950 . S
H279 C288 0.950 . S
H280 C290 0.950 . S
H281 C292 0.950 . S
H282 C294 0.950 . S
H283 C295 0.950 . S
C284 H276 0.950 . S
C284 C285 1.386 . S
C284 C286 1.391 . S
C285 C284 1.386 . S
C285 C289 1.393 . S
C286 H278 0.950 . S
C286 C284 1.391 . S
C286 C287 1.400 . S
C287 C286 1.400 . S
C287 C288 1.398 . S
C287 C293 1.491 . S
C288 H279 0.950 . S
C288 C287 1.398 . S
C288 C289 1.391 . S
C289 H277 0.950 . S
C289 C285 1.393 . S
C289 C288 1.391 . S
C290 H280 0.950 . S
C290 C291 1.386 . S
C290 C292 1.391 . S
C291 C290 1.386 . S
C291 C295 1.393 . S
C292 H281 0.950 . S
C292 C290 1.391 . S
C292 C293 1.400 . S
C293 C287 1.491 . S
C293 C292 1.400 . S
C293 C294 1.398 . S
C294 H282 0.950 . S
C294 C293 1.398 . S
C294 C295 1.391 . S
C295 H283 0.950 . S
C295 C291 1.393 . S
C295 C294 1.391 . S
H296 C304 0.950 . S
H297 C309 0.950 . S
H298 C306 0.950 . S
H299 C308 0.950 . S
H300 C310 0.950 . S
H301 C312 0.950 . S
H302 C314 0.950 . S
H303 C315 0.950 . S
C304 H296 0.950 . S
C304 C305 1.386 . S
C304 C306 1.391 . S
C305 C304 1.386 . S
C305 C309 1.393 . S
C306 H298 0.950 . S
C306 C304 1.391 . S
C306 C307 1.400 . S
C307 C306 1.400 . S
C307 C308 1.398 . S
C307 C313 1.491 . S
C308 H299 0.950 . S
C308 C307 1.398 . S
C308 C309 1.391 . S
C309 H297 0.950 . S
C309 C305 1.393 . S
C309 C308 1.391 . S
C310 H300 0.950 . S
C310 C311 1.386 . S
C310 C312 1.391 . S
C311 C310 1.386 . S
C311 C315 1.393 . S
C312 H301 0.950 . S
C312 C310 1.391 . S
C312 C313 1.400 . S
C313 C307 1.491 . S
C313 C312 1.400 . S
C313 C314 1.398 . S
C314 H302 0.950 . S
C314 C313 1.398 . S
C314 C315 1.391 . S
C315 H303 0.950 . S
C315 C311 1.393 . S
C315 C314 1.391 . S
H316 C324 0.950 . S
H317 C329 0.950 . S
H318 C326 0.950 . S
H319 C328 0.950 . S
H320 C330 0.950 . S
H321 C332 0.950 . S
H322 C334 0.950 . S
H323 C335 0.950 . S
C324 H316 0.950 . S
C324 C325 1.386 . S
C324 C326 1.391 . S
C325 C324 1.386 . S
C325 C329 1.393 . S
C326 H318 0.950 . S
C326 C324 1.391 . S
C326 C327 1.400 . S
C327 C326 1.400 . S
C327 C328 1.398 . S
C327 C333 1.491 . S
C328 H319 0.950 . S
C328 C327 1.398 . S
C328 C329 1.391 . S
C329 H317 0.950 . S
C329 C325 1.393 . S
C329 C328 1.391 . S
C330 H320 0.950 . S
C330 C331 1.386 . S
C330 C332 1.391 . S
C331 C330 1.386 . S
C331 C335 1.393 . S
C332 H321 0.950 . S
C332 C330 1.391 . S
C332 C333 1.400 . S
C333 C327 1.491 . S
C333 C332 1.400 . S
C333 C334 1.398 . S
C334 H322 0.950 . S
C334 C333 1.398 . S
C334 C335 1.391 . S
C335 H323 0.950 . S
C335 C331 1.393 . S
C335 C334 1.391 . S
H336 C344 0.950 . S
H337 C349 0.950 . S
H338 C346 0.950 . S
H339 C348 0.950 . S
H340 C350 0.950 . S
H341 C352 0.950 . S
H342 C354 0.950 . S
H343 C355 0.950 . S
C344 H336 0.950 . S
C344 C345 1.386 . S
C344 C346 1.391 . S
C345 C344 1.386 . S
C345 C349 1.393 . S
C346 H338 0.950 . S
C346 C344 1.391 . S
C346 C347 1.400 . S
C347 C346 1.400 . S
C347 C348 1.398 . S
C347 C353 1.491 . S
C348 H339 0.950 . S
C348 C347 1.398 . S
C348 C349 1.391 . S
C349 H337 0.950 . S
C349 C345 1.393 . S
C349 C348 1.391 . S
C350 H340 0.950 . S
C350 C351 1.386 . S
C350 C352 1.391 . S
C351 C350 1.386 . S
C351 C355 1.393 . S
C352 H341 0.950 . S
C352 C350 1.391 . S
C352 C353 1.400 . S
C353 C347 1.491 . S
C353 C352 1.400 . S
C353 C354 1.398 . S
C354 H342 0.950 . S
C354 C353 1.398 . S
C354 C355 1.391 . S
C355 H343 0.950 . S
C355 C351 1.393 . S
C355 C354 1.391 . S
H356 C364 0.950 . S
H357 C369 0.950 . S
H358 C366 0.950 . S
H359 C368 0.950 . S
H360 C370 0.950 . S
H361 C372 0.950 . S
H362 C374 0.950 . S
H363 C375 0.950 . S
C364 H356 0.950 . S
C364 C365 1.386 . S
C364 C366 1.391 . S
C365 C364 1.386 . S
C365 C369 1.393 . S
C366 H358 0.950 . S
C366 C364 1.391 . S
C366 C367 1.400 . S
C367 C366 1.400 . S
C367 C368 1.398 . S
C367 C373 1.491 . S
C368 H359 0.950 . S
C368 C367 1.398 . S
C368 C369 1.391 . S
C369 H357 0.950 . S
C369 C365 1.393 . S
C369 C368 1.391 . S
C370 H360 0.950 . S
C370 C371 1.386 . S
C370 C372 1.391 . S
C371 C370 1.386 . S
C371 C375 1.393 . S
C372 H361 0.950 . S
C372 C370 1.391 . S
C372 C373 1.400 . S
C373 C367 1.491 . S
C373 C372 1.400 . S
C373 C374 1.398 . S
C374 H362 0.950 . S
C374 C373 1.398 . S
C374 C375 1.391 . S
C375 H363 0.950 . S
C375 C371 1.393 . S
C375 C374 1.391 . S
H376 C384 0.950 . S
H377 C389 0.950 . S
H378 C386 0.950 . S
H379 C388 0.950 . S
H380 C390 0.950 . S
H381 C392 0.950 . S
H382 C394 0.950 . S
H383 C395 0.950 . S
C384 H376 0.950 . S
C384 C385 1.386 . S
C384 C386 1.391 . S
C385 C384 1.386 . S
C385 C389 1.393 . S
C386 H378 0.950 . S
C386 C384 1.391 . S
C386 C387 1.400 . S
C387 C386 1.400 . S
C387 C388 1.398 . S
C387 C393 1.491 . S
C388 H379 0.950 . S
C388 C387 1.398 . S
C388 C389 1.391 . S
C389 H377 0.950 . S
C389 C385 1.393 . S
C389 C388 1.391 . S
C390 H380 0.950 . S
C390 C391 1.386 . S
C390 C392 1.391 . S
C391 C390 1.386 . S
C391 C395 1.393 . S
C392 H381 0.950 . S
C392 C390 1.391 . S
C392 C393 1.400 . S
C393 C387 1.491 . S
C393 C392 1.400 . S
C393 C394 1.398 . S
C394 H382 0.950 . S
C394 C393 1.398 . S
C394 C395 1.391 . S
C395 H383 0.950 . S
C395 C391 1.393 . S
C395 C394 1.391 . S
H396 C404 0.950 . S
H397 C409 0.950 . S
H398 C406 0.950 . S
H399 C408 0.950 . S
H400 C410 0.950 . S
H401 C412 0.950 . S
H402 C414 0.950 . S
H403 C415 0.950 . S
C404 H396 0.950 . S
C404 C405 1.386 . S
C404 C406 1.391 . S
C405 C404 1.386 . S
C405 C409 1.393 . S
C406 H398 0.950 . S
C406 C404 1.391 . S
C406 C407 1.400 . S
C407 C406 1.400 . S
C407 C408 1.398 . S
C407 C413 1.491 . S
C408 H399 0.950 . S
C408 C407 1.398 . S
C408 C409 1.391 . S
C409 H397 0.950 . S
C409 C405 1.393 . S
C409 C408 1.391 . S
C410 H400 0.950 . S
C410 C411 1.386 . S
C410 C412 1.391 . S
C411 C410 1.386 . S
C411 C415 1.393 . S
C412 H401 0.950 . S
C412 C410 1.391 . S
C412 C413 1.400 . S
C413 C407 1.491 . S
C413 C412 1.400 . S
C413 C414 1.398 . S
C414 H402 0.950 . S
C414 C413 1.398 . S
C414 C415 1.391 . S
C415 H403 0.950 . S
C415 C411 1.393 . S
C415 C414 1.391 . S
H416 C424 0.950 . S
H417 C429 0.950 1_554 S
H418 C426 0.950 . S
H419 C428 0.950 . S
H420 C430 0.950 . S
H421 C432 0.950 . S
H422 C434 0.950 . S
H423 C435 0.950 . S
C424 H416 0.950 . S
C424 C425 1.386 . S
C424 C426 1.391 . S
C425 C424 1.386 . S
C425 C429 1.393 . S
C426 H418 0.950 . S
C426 C424 1.391 . S
C426 C427 1.400 . S
C427 C426 1.400 . S
C427 C428 1.398 . S
C427 C433 1.491 1_565 S
C428 H419 0.950 . S
C428 C427 1.398 . S
C428 C429 1.391 . S
C429 H417 0.950 1_556 S
C429 C425 1.393 . S
C429 C428 1.391 . S
C430 H420 0.950 . S
C430 C431 1.386 . S
C430 C432 1.391 . S
C431 C430 1.386 . S
C431 C435 1.393 . S
C432 H421 0.950 . S
C432 C430 1.391 . S
C432 C433 1.400 . S
C433 C427 1.491 1_545 S
C433 C432 1.400 . S
C433 C434 1.398 . S
C434 H422 0.950 . S
C434 C433 1.398 . S
C434 C435 1.391 . S
C435 H423 0.950 . S
C435 C431 1.393 . S
C435 C434 1.391 . S
H436 C444 0.950 . S
H437 C449 0.950 . S
H438 C446 0.950 . S
H439 C448 0.950 1_565 S
H440 C450 0.950 . S
H441 C452 0.950 . S
H442 C454 0.950 1_545 S
H443 C455 0.950 . S
C444 H436 0.950 . S
C444 C445 1.386 . S
C444 C446 1.391 . S
C445 C444 1.386 . S
C445 C449 1.393 . S
C446 H438 0.950 . S
C446 C444 1.391 . S
C446 C447 1.400 . S
C447 C446 1.400 . S
C447 C448 1.398 . S
C447 C453 1.491 1_545 S
C448 H439 0.950 1_545 S
C448 C447 1.398 . S
C448 C449 1.391 . S
C449 H437 0.950 . S
C449 C445 1.393 . S
C449 C448 1.391 . S
C450 H440 0.950 . S
C450 C451 1.386 . S
C450 C452 1.391 . S
C451 C450 1.386 . S
C451 C455 1.393 . S
C452 H441 0.950 . S
C452 C450 1.391 . S
C452 C453 1.400 . S
C453 C447 1.491 1_565 S
C453 C452 1.400 . S
C453 C454 1.398 . S
C454 H442 0.950 1_565 S
C454 C453 1.398 . S
C454 C455 1.391 . S
C455 H443 0.950 . S
C455 C451 1.393 . S
C455 C454 1.391 . S
H456 C464 0.950 . S
H457 C469 0.950 . S
H458 C466 0.950 . S
H459 C468 0.950 1_545 S
H460 C470 0.950 . S
H461 C472 0.950 . S
H462 C474 0.950 1_565 S
H463 C475 0.950 . S
C464 H456 0.950 . S
C464 C465 1.386 . S
C464 C466 1.391 . S
C465 C464 1.386 . S
C465 C469 1.393 . S
C466 H458 0.950 . S
C466 C464 1.391 . S
C466 C467 1.400 . S
C467 C466 1.400 . S
C467 C468 1.398 . S
C467 C473 1.491 1_565 S
C468 H459 0.950 1_565 S
C468 C467 1.398 . S
C468 C469 1.391 . S
C469 H457 0.950 . S
C469 C465 1.393 . S
C469 C468 1.391 . S
C470 H460 0.950 . S
C470 C471 1.386 . S
C470 C472 1.391 . S
C471 C470 1.386 . S
C471 C475 1.393 . S
C472 H461 0.950 . S
C472 C470 1.391 . S
C472 C473 1.400 . S
C473 C467 1.491 1_545 S
C473 C472 1.400 . S
C473 C474 1.398 . S
C474 H462 0.950 1_545 S
C474 C473 1.398 . S
C474 C475 1.391 . S
C475 H463 0.950 . S
C475 C471 1.393 . S
C475 C474 1.391 . S
H476 C484 0.950 . S
H477 C489 0.950 . S
H478 C486 0.950 . S
H479 C488 0.950 1_565 S
H480 C490 0.950 . S
H481 C492 0.950 . S
H482 C494 0.950 1_545 S
H483 C495 0.950 . S
C484 H476 0.950 . S
C484 C485 1.386 . S
C484 C486 1.391 . S
C485 C484 1.386 . S
C485 C489 1.393 . S
C486 H478 0.950 . S
C486 C484 1.391 . S
C486 C487 1.400 . S
C487 C486 1.400 . S
C487 C488 1.398 . S
C487 C493 1.491 1_545 S
C488 H479 0.950 1_545 S
C488 C487 1.398 . S
C488 C489 1.391 . S
C489 H477 0.950 . S
C489 C485 1.393 . S
C489 C488 1.391 . S
C490 H480 0.950 . S
C490 C491 1.386 . S
C490 C492 1.391 . S
C491 C490 1.386 . S
C491 C495 1.393 . S
C492 H481 0.950 . S
C492 C490 1.391 . S
C492 C493 1.400 . S
C493 C487 1.491 1_565 S
C493 C492 1.400 . S
C493 C494 1.398 . S
C494 H482 0.950 1_565 S
C494 C493 1.398 . S
C494 C495 1.391 . S
C495 H483 0.950 . S
C495 C491 1.393 . S
C495 C494 1.391 . S
H496 C504 0.950 . S
H497 C509 0.950 . S
H498 C506 0.950 . S
H499 C508 0.950 . S
H500 C510 0.950 . S
H501 C512 0.950 . S
H502 C514 0.950 . S
H503 C515 0.950 . S
C504 H496 0.950 . S
C504 C505 1.386 . S
C504 C506 1.391 . S
C505 C504 1.386 . S
C505 C509 1.393 . S
C506 H498 0.950 . S
C506 C504 1.391 . S
C506 C507 1.400 . S
C507 C506 1.400 . S
C507 C508 1.398 . S
C507 C513 1.491 . S
C508 H499 0.950 . S
C508 C507 1.398 . S
C508 C509 1.391 . S
C509 H497 0.950 . S
C509 C505 1.393 . S
C509 C508 1.391 . S
C510 H500 0.950 . S
C510 C511 1.386 . S
C510 C512 1.391 . S
C511 C510 1.386 . S
C511 C515 1.393 . S
C512 H501 0.950 . S
C512 C510 1.391 . S
C512 C513 1.400 . S
C513 C507 1.491 . S
C513 C512 1.400 . S
C513 C514 1.398 . S
C514 H502 0.950 . S
C514 C513 1.398 . S
C514 C515 1.391 . S
C515 H503 0.950 . S
C515 C511 1.393 . S
C515 C514 1.391 . S
H516 C524 0.950 . S
H517 C529 0.950 . S
H518 C526 0.950 . S
H519 C528 0.950 . S
H520 C530 0.950 . S
H521 C532 0.950 . S
H522 C534 0.950 . S
H523 C535 0.950 . S
C524 H516 0.950 . S
C524 C525 1.386 . S
C524 C526 1.391 . S
C525 C524 1.386 . S
C525 C529 1.393 . S
C526 H518 0.950 . S
C526 C524 1.391 . S
C526 C527 1.400 . S
C527 C526 1.400 . S
C527 C528 1.398 . S
C527 C533 1.491 . S
C528 H519 0.950 . S
C528 C527 1.398 . S
C528 C529 1.391 . S
C529 H517 0.950 . S
C529 C525 1.393 . S
C529 C528 1.391 . S
C530 H520 0.950 . S
C530 C531 1.386 . S
C530 C532 1.391 . S
C531 C530 1.386 . S
C531 C535 1.393 . S
C532 H521 0.950 . S
C532 C530 1.391 . S
C532 C533 1.400 . S
C533 C527 1.491 . S
C533 C532 1.400 . S
C533 C534 1.398 . S
C534 H522 0.950 . S
C534 C533 1.398 . S
C534 C535 1.391 . S
C535 H523 0.950 . S
C535 C531 1.393 . S
C535 C534 1.391 . S
H536 C544 0.950 . S
H537 C549 0.950 . S
H538 C546 0.950 . S
H539 C548 0.950 . S
H540 C550 0.950 . S
H541 C552 0.950 . S
H542 C554 0.950 . S
H543 C555 0.950 . S
C544 H536 0.950 . S
C544 C545 1.386 . S
C544 C546 1.391 . S
C545 C544 1.386 . S
C545 C549 1.393 . S
C546 H538 0.950 . S
C546 C544 1.391 . S
C546 C547 1.400 . S
C547 C546 1.400 . S
C547 C548 1.398 . S
C547 C553 1.491 . S
C548 H539 0.950 . S
C548 C547 1.398 . S
C548 C549 1.391 . S
C549 H537 0.950 . S
C549 C545 1.393 . S
C549 C548 1.391 . S
C550 H540 0.950 . S
C550 C551 1.386 . S
C550 C552 1.391 . S
C551 C550 1.386 . S
C551 C555 1.393 . S
C552 H541 0.950 . S
C552 C550 1.391 . S
C552 C553 1.400 . S
C553 C547 1.491 . S
C553 C552 1.400 . S
C553 C554 1.398 . S
C554 H542 0.950 . S
C554 C553 1.398 . S
C554 C555 1.391 . S
C555 H543 0.950 . S
C555 C551 1.393 . S
C555 C554 1.391 . S
H556 C564 0.950 . S
H557 C569 0.950 . S
H558 C566 0.950 . S
H559 C568 0.950 . S
H560 C570 0.950 . S
H561 C572 0.950 . S
H562 C574 0.950 . S
H563 C575 0.950 . S
C564 H556 0.950 . S
C564 C565 1.386 . S
C564 C566 1.391 . S
C565 C564 1.386 . S
C565 C569 1.393 . S
C566 H558 0.950 . S
C566 C564 1.391 . S
C566 C567 1.400 . S
C567 C566 1.400 . S
C567 C568 1.398 . S
C567 C573 1.491 . S
C568 H559 0.950 . S
C568 C567 1.398 . S
C568 C569 1.391 . S
C569 H557 0.950 . S
C569 C565 1.393 . S
C569 C568 1.391 . S
C570 H560 0.950 . S
C570 C571 1.386 . S
C570 C572 1.391 . S
C571 C570 1.386 . S
C571 C575 1.393 . S
C572 H561 0.950 . S
C572 C570 1.391 . S
C572 C573 1.400 . S
C573 C567 1.491 . S
C573 C572 1.400 . S
C573 C574 1.398 . S
C574 H562 0.950 . S
C574 C573 1.398 . S
C574 C575 1.391 . S
C575 H563 0.950 . S
C575 C571 1.393 . S
C575 C574 1.391 . S
H576 C584 0.950 . S
H577 C589 0.950 . S
H578 C586 0.950 . S
H579 C588 0.950 . S
H580 C590 0.950 . S
H581 C592 0.950 . S
H582 C594 0.950 . S
H583 C595 0.950 . S
C584 H576 0.950 . S
C584 C585 1.386 . S
C584 C586 1.391 . S
C585 C584 1.386 . S
C585 C589 1.393 . S
C586 H578 0.950 . S
C586 C584 1.391 . S
C586 C587 1.400 . S
C587 C586 1.400 . S
C587 C588 1.398 . S
C587 C593 1.491 . S
C588 H579 0.950 . S
C588 C587 1.398 . S
C588 C589 1.391 . S
C589 H577 0.950 . S
C589 C585 1.393 . S
C589 C588 1.391 . S
C590 H580 0.950 . S
C590 C591 1.386 . S
C590 C592 1.391 . S
C591 C590 1.386 . S
C591 C595 1.393 . S
C592 H581 0.950 . S
C592 C590 1.391 . S
C592 C593 1.400 . S
C593 C587 1.491 . S
C593 C592 1.400 . S
C593 C594 1.398 . S
C594 H582 0.950 . S
C594 C593 1.398 . S
C594 C595 1.391 . S
C595 H583 0.950 . S
C595 C591 1.393 . S
C595 C594 1.391 . S
H596 C604 0.950 . S
H597 C609 0.950 . S
H598 C606 0.950 . S
H599 C608 0.950 . S
H600 C610 0.950 . S
H601 C612 0.950 . S
H602 C614 0.950 . S
H603 C615 0.950 . S
C604 H596 0.950 . S
C604 C605 1.386 . S
C604 C606 1.391 . S
C605 C604 1.386 . S
C605 C609 1.393 . S
C606 H598 0.950 . S
C606 C604 1.391 . S
C606 C607 1.400 . S
C607 C606 1.400 . S
C607 C608 1.398 . S
C607 C613 1.491 . S
C608 H599 0.950 . S
C608 C607 1.398 . S
C608 C609 1.391 . S
C609 H597 0.950 . S
C609 C605 1.393 . S
C609 C608 1.391 . S
C610 H600 0.950 . S
C610 C611 1.386 . S
C610 C612 1.391 . S
C611 C610 1.386 . S
C611 C615 1.393 . S
C612 H601 0.950 . S
C612 C610 1.391 . S
C612 C613 1.400 . S
C613 C607 1.491 . S
C613 C612 1.400 . S
C613 C614 1.398 . S
C614 H602 0.950 . S
C614 C613 1.398 . S
C614 C615 1.391 . S
C615 H603 0.950 . S
C615 C611 1.393 . S
C615 C614 1.391 . S
H616 C624 0.950 . S
H617 C629 0.950 . S
H618 C626 0.950 . S
H619 C628 0.950 . S
H620 C630 0.950 . S
H621 C632 0.950 . S
H622 C634 0.950 . S
H623 C635 0.950 . S
C624 H616 0.950 . S
C624 C625 1.386 . S
C624 C626 1.391 . S
C625 C624 1.386 . S
C625 C629 1.393 . S
C626 H618 0.950 . S
C626 C624 1.391 . S
C626 C627 1.400 . S
C627 C626 1.400 . S
C627 C628 1.398 . S
C627 C633 1.491 . S
C628 H619 0.950 . S
C628 C627 1.398 . S
C628 C629 1.391 . S
C629 H617 0.950 . S
C629 C625 1.393 . S
C629 C628 1.391 . S
C630 H620 0.950 . S
C630 C631 1.386 . S
C630 C632 1.391 . S
C631 C630 1.386 . S
C631 C635 1.393 . S
C632 H621 0.950 . S
C632 C630 1.391 . S
C632 C633 1.400 . S
C633 C627 1.491 . S
C633 C632 1.400 . S
C633 C634 1.398 . S
C634 H622 0.950 . S
C634 C633 1.398 . S
C634 C635 1.391 . S
C635 H623 0.950 . S
C635 C631 1.393 . S
C635 C634 1.391 . S
H636 C644 0.950 . S
H637 C649 0.950 . S
H638 C646 0.950 . S
H639 C648 0.950 . S
H640 C650 0.950 . S
H641 C652 0.950 . S
H642 C654 0.950 . S
H643 C655 0.950 . S
C644 H636 0.950 . S
C644 C645 1.386 . S
C644 C646 1.391 . S
C645 C644 1.386 . S
C645 C649 1.393 . S
C646 H638 0.950 . S
C646 C644 1.391 . S
C646 C647 1.400 . S
C647 C646 1.400 . S
C647 C648 1.398 . S
C647 C653 1.491 . S
C648 H639 0.950 . S
C648 C647 1.398 . S
C648 C649 1.391 . S
C649 H637 0.950 . S
C649 C645 1.393 . S
C649 C648 1.391 . S
C650 H640 0.950 . S
C650 C651 1.386 . S
C650 C652 1.391 . S
C651 C650 1.386 . S
C651 C655 1.393 . S
C652 H641 0.950 . S
C652 C650 1.391 . S
C652 C653 1.400 . S
C653 C647 1.491 . S
C653 C652 1.400 . S
C653 C654 1.398 . S
C654 H642 0.950 . S
C654 C653 1.398 . S
C654 C655 1.391 . S
C655 H643 0.950 . S
C655 C651 1.393 . S
C655 C654 1.391 . S
C185 C10 1.538 . S
C191 C114 1.518 . S
C211 C92 1.525 . S
C205 C21 1.542 . S
C231 C118 1.580 . S
C225 C32 1.596 . S
C251 C96 1.465 . S
C245 C43 1.490 . S
C271 C158 1.506 . S
C265 C54 1.530 . S
C291 C136 1.518 . S
C285 C65 1.539 . S
C305 C76 1.603 . S
C311 C162 1.584 . S
C331 C140 1.475 . S
C325 C87 1.490 . S
C345 C5 1.504 . S
C351 C163 1.518 . S
C371 C141 1.490 . S
C365 C16 1.484 . S
C385 C27 1.560 . S
C391 C160 1.568 . S
C405 C37 1.430 . S
C411 C138 1.423 . S
C431 C119 1.516 . S
C425 C49 1.502 . S
C445 C60 1.487 . S
C451 C97 1.488 . S
C471 C116 1.571 . S
C465 C71 1.548 . S
C491 C94 1.436 . S
C485 C81 1.415 . S
C511 C137 1.482 . S
C505 C4 1.487 . S
C531 C159 1.477 . S
C525 C15 1.474 . S
C545 C26 1.499 . S
C551 C139 1.474 . S
C571 C161 1.486 . S
C565 C38 1.453 . S
C591 C93 1.475 . S
C585 C48 1.492 . S
C605 C59 1.466 . S
C611 C115 1.484 . S
C625 C70 1.488 . S
C631 C95 1.490 . S
C645 C82 1.467 . S
C651 C117 1.475 . S
