# Generated by pormake.
# Topology zzz, (3,6)-cn, num edge types: 1
# Building blocks:
#     Node 0, Type 0, BuildingBlock: QEWDON_clean_linker_0, # of connection points: 3
#     Node 1, Type 0, BuildingBlock: QEWDON_clean_linker_0, # of connection points: 3
#     Node 2, Type 0, BuildingBlock: QEWDON_clean_linker_0, # of connection points: 3
#     Node 3, Type 0, BuildingBlock: QEWDON_clean_linker_0, # of connection points: 3
#     Node 4, Type 0, BuildingBlock: QEWDON_clean_linker_0, # of connection points: 3
#     Node 5, Type 0, BuildingBlock: QEWDON_clean_linker_0, # of connection points: 3
#     Node 6, Type 0, BuildingBlock: QEWDON_clean_linker_0, # of connection points: 3
#     Node 7, Type 0, BuildingBlock: QEWDON_clean_linker_0, # of connection points: 3
#     Node 8, Type 1, BuildingBlock: NUHQIS_clean_sbu_0, # of connection points: 6
#     Node 9, Type 1, BuildingBlock: NUHQIS_clean_sbu_0, # of connection points: 6
#     Node 10, Type 1, BuildingBlock: NUHQIS_clean_sbu_0, # of connection points: 6
#     Node 11, Type 1, BuildingBlock: NUHQIS_clean_sbu_0, # of connection points: 6
#     Edge 12, Type (0, 1), BuildingBlock: KIFKEQ_clean_linker_1, # of connection points: 2
#     Edge 13, Type (0, 1), BuildingBlock: KIFKEQ_clean_linker_1, # of connection points: 2
#     Edge 14, Type (0, 1), BuildingBlock: KIFKEQ_clean_linker_1, # of connection points: 2
#     Edge 15, Type (0, 1), BuildingBlock: KIFKEQ_clean_linker_1, # of connection points: 2
#     Edge 16, Type (0, 1), BuildingBlock: KIFKEQ_clean_linker_1, # of connection points: 2
#     Edge 17, Type (0, 1), BuildingBlock: KIFKEQ_clean_linker_1, # of connection points: 2
#     Edge 18, Type (0, 1), BuildingBlock: KIFKEQ_clean_linker_1, # of connection points: 2
#     Edge 19, Type (0, 1), BuildingBlock: KIFKEQ_clean_linker_1, # of connection points: 2
#     Edge 20, Type (0, 1), BuildingBlock: KIFKEQ_clean_linker_1, # of connection points: 2
#     Edge 21, Type (0, 1), BuildingBlock: KIFKEQ_clean_linker_1, # of connection points: 2
#     Edge 22, Type (0, 1), BuildingBlock: KIFKEQ_clean_linker_1, # of connection points: 2
#     Edge 23, Type (0, 1), BuildingBlock: KIFKEQ_clean_linker_1, # of connection points: 2
#     Edge 24, Type (0, 1), BuildingBlock: KIFKEQ_clean_linker_1, # of connection points: 2
#     Edge 25, Type (0, 1), BuildingBlock: KIFKEQ_clean_linker_1, # of connection points: 2
#     Edge 26, Type (0, 1), BuildingBlock: KIFKEQ_clean_linker_1, # of connection points: 2
#     Edge 27, Type (0, 1), BuildingBlock: KIFKEQ_clean_linker_1, # of connection points: 2
#     Edge 28, Type (0, 1), BuildingBlock: KIFKEQ_clean_linker_1, # of connection points: 2
#     Edge 29, Type (0, 1), BuildingBlock: KIFKEQ_clean_linker_1, # of connection points: 2
#     Edge 30, Type (0, 1), BuildingBlock: KIFKEQ_clean_linker_1, # of connection points: 2
#     Edge 31, Type (0, 1), BuildingBlock: KIFKEQ_clean_linker_1, # of connection points: 2
#     Edge 32, Type (0, 1), BuildingBlock: KIFKEQ_clean_linker_1, # of connection points: 2
#     Edge 33, Type (0, 1), BuildingBlock: KIFKEQ_clean_linker_1, # of connection points: 2
#     Edge 34, Type (0, 1), BuildingBlock: KIFKEQ_clean_linker_1, # of connection points: 2
#     Edge 35, Type (0, 1), BuildingBlock: KIFKEQ_clean_linker_1, # of connection points: 2
# Relax obj value: 0.156
# Max RMSD: 0.140
# Mean RMSD: 0.097
data_MOF--net-zzz--node1-NUHQIS_clean_sbu_0--node2-QEWDON_clean_linker_0--edge1-KIFKEQ_clean_linker_1
_symmetry_space_group_name_H-M    P1
_symmetry_Int_Tables_number       1
_symmetry_cell_setting            triclinic
loop_
_symmetry_equiv_pos_as_xyz
'x, y, z'
_cell_length_a     56.797629
_cell_length_b     56.700348
_cell_length_c     13.705347
_cell_angle_alpha  90.0112
_cell_angle_beta   90.047616
_cell_angle_gamma 89.837447
loop_
_atom_site_label
_atom_site_type_symbol
_atom_site_fract_x
_atom_site_fract_y
_atom_site_fract_z
_atom_type_partial_charge
H0 H 0.75426 0.48944 0.21454 0.0
C1 C 0.76802 0.49631 0.2611 0.0
C2 C 0.78999 0.48493 0.26101 0.0
C3 C 0.76385 0.51589 0.32288 0.0
H4 H 0.82493 0.48402 0.32159 0.0
C5 C 0.8079 0.49278 0.32292 0.0
C6 C 0.80478 0.51237 0.38289 0.0
C7 C 0.78293 0.52425 0.38144 0.0
C8 C 0.73955 0.52675 0.33002 0.0
H9 H 0.78093 0.53977 0.42663 0.0
C10 C 0.72277 0.5257 0.25252 0.0
C11 C 0.69988 0.5355 0.26334 0.0
C12 C 0.73254 0.53754 0.41805 0.0
H13 H 0.74404 0.53797 0.48093 0.0
C14 C 0.7102 0.54742 0.4283 0.0
H15 H 0.72741 0.51771 0.18346 0.0
C16 C 0.69406 0.54647 0.35202 0.0
H17 H 0.67667 0.55386 0.36351 0.0
H18 H 0.70522 0.55557 0.4967 0.0
H19 H 0.04479 0.76218 0.19794 0.0
C20 C 0.03859 0.77573 0.24723 0.0
C21 C 0.04563 0.79898 0.23012 0.0
C22 C 0.02438 0.77011 0.32854 0.0
H23 H 0.04526 0.83475 0.28133 0.0
C24 C 0.03929 0.81687 0.29506 0.0
C25 C 0.02554 0.81225 0.37719 0.0
C26 C 1.01749 0.78892 0.39242 0.0
C27 C 1.01849 0.74457 0.34986 0.0
H28 H 1.00639 0.78558 0.45494 0.0
C29 C 1.01802 0.72682 0.27569 0.0
C30 C 1.01502 0.70264 0.29948 0.0
C31 C 1.01493 0.73736 0.44712 0.0
H32 H 1.01583 0.74974 0.50696 0.0
C33 C 1.01102 0.71375 0.47013 0.0
H34 H 0.02047 0.73152 0.19992 0.0
C35 C 1.01119 0.69658 0.39754 0.0
H36 H 1.00834 0.67838 0.41844 0.0
H37 H 1.0083 0.70865 0.54539 0.0
H38 H 0.77575 0.05049 0.2325 0.0
C39 C 0.76145 0.04477 0.27882 0.0
C40 C 0.73981 0.05644 0.2709 0.0
C41 C 0.76461 0.02645 0.34757 0.0
H42 H 0.70436 0.05918 0.32359 0.0
C43 C 0.72116 0.05021 0.3319 0.0
C44 C 0.72336 0.03209 0.40036 0.0
C45 C 0.74498 1.01982 0.40658 0.0
C46 C 0.78856 1.01534 0.36097 0.0
H47 H 0.74644 1.00547 0.45824 0.0
C48 C 0.80553 1.01451 0.28451 0.0
C49 C 0.82848 1.00545 0.30071 0.0
C50 C 0.79519 1.00661 0.45324 0.0
H51 H 0.78339 1.00755 0.515 0.0
C52 C 0.81758 0.99723 0.46894 0.0
H53 H 0.801 0.02063 0.21212 0.0
C54 C 0.83408 0.99673 0.3939 0.0
H55 H 0.85154 0.99002 0.40989 0.0
H56 H 0.82235 0.99076 0.5406 0.0
H57 H 0.48776 0.78698 0.24635 0.0
C58 C 0.49375 0.77238 0.29072 0.0
C59 C 0.48198 0.75085 0.28125 0.0
C60 C 0.51272 0.77496 0.35662 0.0
H61 H 0.47996 0.71486 0.32965 0.0
C62 C 0.48865 0.73172 0.33958 0.0
C63 C 0.50728 0.73322 0.40577 0.0
C64 C 0.51972 0.75476 0.41266 0.0
C65 C 0.52442 0.79879 0.36838 0.0
H66 H 0.53458 0.75561 0.46188 0.0
C67 C 0.5237 0.81647 0.29404 0.0
C68 C 0.53352 0.83916 0.30908 0.0
C69 C 0.5355 0.80459 0.45719 0.0
H70 H 0.53591 0.79236 0.51766 0.0
C71 C 0.54565 0.82669 0.47139 0.0
H72 H 0.51586 0.81275 0.22383 0.0
C73 C 0.54465 0.8438 0.39856 0.0
H74 H 0.55213 0.86098 0.41351 0.0
H75 H 0.55397 0.83076 0.54044 0.0
H76 H 0.27312 0.54086 0.2708 0.0
C77 C 0.25958 0.53483 0.22119 0.0
C78 C 0.2361 0.53987 0.24406 0.0
C79 C 0.26544 0.52287 0.13404 0.0
H80 H 0.20011 0.53875 0.1957 0.0
C81 C 0.21817 0.53395 0.17871 0.0
C82 C 0.22313 0.5228 0.09033 0.0
C83 C 0.24671 0.51662 0.06913 0.0
C84 C 0.29104 0.51881 0.10832 0.0
H85 H 0.25026 0.50749 1.00142 0.0
C86 C 0.3091 0.51729 0.18074 0.0
C87 C 0.3332 0.51604 0.15424 0.0
C88 C 0.29789 0.51806 0.00957 0.0
H89 H 0.28519 0.5199 0.95127 0.0
C90 C 0.3215 0.51581 0.98347 0.0
H91 H 0.30467 0.51762 0.25746 0.0
C92 C 0.33897 0.51495 0.05468 0.0
H93 H 0.35715 0.51352 0.03159 0.0
H94 H 0.32634 0.51525 0.90712 0.0
H95 H 0.04307 0.28555 0.23699 0.0
C96 C 0.0386 0.27179 0.18552 0.0
C97 C 0.04433 0.24857 0.20964 0.0
C98 C 0.0274 0.27712 0.09622 0.0
H99 H 0.043 0.21218 0.16593 0.0
C100 C 0.03912 0.23025 0.14485 0.0
C101 C 0.02759 0.23444 0.05664 0.0
C102 C 0.02182 0.25803 0.03169 0.0
C103 C 0.02243 0.30259 0.07097 0.0
H104 H 1.0125 0.26128 0.9641 0.0
C105 C 1.01861 0.32016 0.14406 0.0
C106 C 1.01638 0.34442 0.11973 0.0
C107 C 0.02312 0.30986 0.97299 0.0
H108 H 0.0265 0.29739 0.91488 0.0
C109 C 0.02049 0.33357 0.94828 0.0
H110 H 1.01718 0.31505 0.21982 0.0
C111 C 1.01742 0.35066 0.02038 0.0
H112 H 1.01646 0.36892 0.99771 0.0
H113 H 0.02142 0.33884 0.87246 0.0
H114 H 0.25397 0.98743 0.26052 0.0
C115 C 0.2679 0.99462 0.21576 0.0
C116 C 0.28997 0.98355 0.21804 0.0
C117 C 0.26378 1.0141 0.15354 0.0
H118 H 0.32516 0.98289 0.16033 0.0
C119 C 0.3081 0.99158 0.15786 0.0
C120 C 0.30496 1.01102 0.09692 0.0
C121 C 0.28296 0.02263 0.09631 0.0
C122 C 0.23926 0.02418 0.14302 0.0
H123 H 0.28088 0.03794 0.05001 0.0
C124 C 0.222 0.0224 0.21821 0.0
C125 C 0.19843 0.02958 0.20167 0.0
C126 C 0.23233 0.03419 0.05324 0.0
H127 H 0.24435 0.0353 0.9923 0.0
C128 C 0.20937 0.04213 0.03845 0.0
H129 H 0.22652 1.01497 0.28847 0.0
C130 C 0.19254 0.03971 0.11142 0.0
H131 H 0.17472 0.04564 0.09696 0.0
H132 H 0.20444 0.04972 0.96886 0.0
H133 H 0.54094 0.25867 0.25451 0.0
C134 C 0.53438 0.27207 0.20509 0.0
C135 C 0.53932 0.2957 0.2254 0.0
C136 C 0.52166 0.26578 0.12064 0.0
H137 H 0.53641 0.33165 0.17671 0.0
C138 C 0.53206 0.31341 0.16095 0.0
C139 C 0.52005 0.30799 0.075 0.0
C140 C 0.51462 0.28412 0.05508 0.0
C141 C 0.51726 0.24008 0.09916 0.0
H142 H 0.50493 0.28002 0.98923 0.0
C143 C 0.51438 0.223 0.17473 0.0
C144 C 0.51176 0.19866 0.15297 0.0
C145 C 0.51724 0.23218 1.0019 0.0
H146 H 0.52004 0.24428 0.94201 0.0
C147 C 0.51452 0.20834 0.98003 0.0
H148 H 0.51387 0.22859 0.25022 0.0
C149 C 0.51195 0.19177 0.05431 0.0
H150 H 0.51061 0.17337 0.03401 0.0
H151 H 0.51483 0.20259 0.90472 0.0
Tb152 Tb 0.02815 1.01288 0.83983 0.0
Eu153 Eu 0.9971 0.02789 0.65029 0.0
C154 C 0.05364 0.02287 0.63723 0.0
C155 C 1.01677 0.06642 0.80279 0.0
C156 C 0.07131 0.97906 0.97733 0.0
C157 C 0.09129 0.94822 0.88593 0.0
C158 C 0.07998 0.97014 0.88871 0.0
C159 C 0.07572 0.96681 0.06392 0.0
C160 C 0.08691 0.94488 0.06124 0.0
C161 C 0.09383 0.93479 0.9716 0.0
C162 C 0.05382 0.99812 0.97701 0.0
O163 O 0.99206 1.00946 0.89421 0.0
O164 O 0.96984 0.0246 0.76835 0.0
O165 O 0.99303 0.98831 0.65722 0.0
O166 O 0.02659 0.98145 0.74588 0.0
C167 C 0.9717 1.01611 0.85706 0.0
O168 O 0.96926 0.04998 0.58977 0.0
O169 O 0.98935 0.0273 0.49389 0.0
O170 O 0.03347 0.02113 0.59133 0.0
O171 O 0.05467 0.02375 0.73298 0.0
O172 O 1.01813 0.04961 0.8688 0.0
O173 O 1.0143 0.06102 0.71014 0.0
C174 C 1.0094 0.97382 0.6894 0.0
O175 O 0.05878 1.0167 0.92502 0.0
O176 O 0.03241 0.99092 0.96145 0.0
C177 C 0.98501 0.06753 0.45108 0.0
C178 C 1.00792 0.11118 0.43235 0.0
C179 C 0.98364 0.11032 0.45168 0.0
C180 C 0.97224 0.08864 0.46043 0.0
C181 C 1.0087 0.06852 0.42137 0.0
C182 C 0.02005 0.09015 0.41224 0.0
C183 C 0.97624 0.04621 0.50047 0.0
H184 H 0.09668 0.94117 0.81596 0.0
H185 H 0.07657 0.97932 0.82079 0.0
H186 H 0.06891 0.97333 0.1327 0.0
H187 H 0.0882 0.93503 0.12871 0.0
H188 H 0.97373 0.12636 0.46479 0.0
H189 H 0.954 0.08838 0.48357 0.0
H190 H 1.01914 0.05261 0.41375 0.0
H191 H 0.03874 0.09028 0.39655 0.0
Tb192 Tb 0.52096 0.0384 0.83168 0.0
Eu193 Eu 0.50532 1.00332 0.65481 0.0
C194 C 0.51082 0.0585 0.6206 0.0
C195 C 0.46715 0.02583 0.8046 0.0
C196 C 0.55947 0.0758 0.97715 0.0
C197 C 0.5858 0.10754 0.02415 0.0
C198 C 0.563 0.09834 0.01657 0.0
C199 C 0.57889 0.06261 0.94517 0.0
C200 C 0.60153 0.07185 0.95139 0.0
C201 C 0.60525 0.09442 0.99065 0.0
C202 C 0.53559 0.06686 0.96006 0.0
O203 O 0.53006 1.00244 0.88007 0.0
O204 O 0.50164 0.98306 0.79511 0.0
O205 O 0.54517 1.00137 0.65493 0.0
O206 O 0.55299 0.03471 0.74475 0.0
C207 C 0.51693 0.9836 0.86661 0.0
O208 O 0.50465 0.9678 0.59307 0.0
O209 O 0.48714 0.99652 0.51783 0.0
O210 O 0.51525 0.03768 0.58283 0.0
O211 O 0.50656 0.06064 0.71457 0.0
O212 O 0.48427 0.03053 0.86636 0.0
O213 O 0.47159 1.01924 0.71432 0.0
C214 C 0.55996 1.01738 0.68755 0.0
O215 O 0.52641 0.07332 0.8775 0.0
O216 O 0.53237 0.04444 0.97567 0.0
C217 C 0.46809 0.95996 0.52006 0.0
C218 C 0.42419 0.9374 0.49972 0.0
C219 C 0.44366 0.93031 0.44285 0.0
C220 C 0.46541 0.94165 0.4525 0.0
C221 C 0.44934 0.96585 0.58192 0.0
C222 C 0.42758 0.95484 0.57151 0.0
C223 C 0.48992 0.9737 0.52413 0.0
H224 H 0.58824 0.1249 0.0555 0.0
H225 H 0.54815 0.10887 0.04058 0.0
H226 H 0.57653 0.04515 0.91478 0.0
H227 H 0.61621 0.06108 0.92741 0.0
H228 H 0.44188 0.91663 0.38825 0.0
H229 H 0.47987 0.93662 0.40528 0.0
H230 H 0.45123 0.97974 0.63558 0.0
H231 H 0.41311 0.96112 0.61592 0.0
Tb232 Tb 0.50096 0.52497 0.7961 0.0
Eu233 Eu 0.53443 0.50956 0.61495 0.0
C234 C 0.47881 0.51352 0.59163 0.0
C235 C 0.51394 0.47069 0.76913 0.0
C236 C 0.47168 0.56582 0.95635 0.0
C237 C 0.44693 0.5979 0.01403 0.0
C238 C 0.45103 0.57367 1.00197 0.0
C239 C 0.48821 0.5823 0.92379 0.0
C240 C 0.48394 0.60632 0.93371 0.0
C241 C 0.46326 0.61456 0.97886 0.0
C242 C 0.47485 0.541 0.92933 0.0
O243 O 0.53718 0.53455 0.83735 0.0
O244 O 0.5558 0.50568 0.75201 0.0
O245 O 0.53644 0.54958 0.61452 0.0
O246 O 0.50406 0.55723 0.70945 0.0
C247 C 0.55581 0.52113 0.82284 0.0
O248 O 0.56858 0.511 0.5427 0.0
O249 O 0.54048 0.48999 0.48029 0.0
O250 O 0.49898 0.51871 0.55035 0.0
O251 O 0.47789 0.50911 0.6858 0.0
O252 O 0.50802 0.48788 0.82921 0.0
O253 O 0.5212 0.47506 0.67957 0.0
C254 C 0.52083 0.56442 0.65039 0.0
O255 O 0.46746 0.53604 0.84191 0.0
O256 O 0.49571 0.53213 0.94524 0.0
C257 C 0.57821 0.47352 0.48018 0.0
C258 C 0.59727 0.42766 0.48667 0.0
C259 C 0.59607 0.44142 0.57183 0.0
C260 C 0.58647 0.4641 0.56872 0.0
C261 C 0.58123 0.46071 0.39392 0.0
C262 C 0.59069 0.43797 0.39699 0.0
C263 C 0.56302 0.49451 0.4804 0.0
H264 H 0.43102 0.6035 0.05084 0.0
H265 H 0.43794 0.56115 0.02653 0.0
H266 H 0.50416 0.5766 0.88734 0.0
H267 H 0.49674 0.6184 0.90353 0.0
H268 H 0.60121 0.43414 0.64176 0.0
H269 H 0.58417 0.47366 0.6365 0.0
H270 H 0.57475 0.46761 0.32519 0.0
H271 H 0.59099 0.42785 0.33001 0.0
Tb272 Tb 1.00769 0.50608 0.80262 0.0
Eu273 Eu 0.02334 0.54042 0.62231 0.0
C274 C 1.01552 0.48439 0.58972 0.0
C275 C 0.06183 0.51894 0.77416 0.0
C276 C 0.97089 0.46551 0.94386 0.0
C277 C 0.94651 0.4375 0.03119 0.0
C278 C 0.96829 0.4485 0.01705 0.0
C279 C 0.95198 0.47035 0.8812 0.0
C280 C 0.93017 0.45974 0.89615 0.0
C281 C 0.92688 0.44368 0.97328 0.0
C282 C 0.99272 0.47921 0.93569 0.0
O283 O 1.01777 0.53948 0.87243 0.0
O284 O 1.01046 0.56401 0.74387 0.0
O285 O 0.98562 0.53149 0.58864 0.0
O286 O 0.9747 0.52079 0.74365 0.0
C287 C 1.01397 0.56079 0.8375 0.0
O288 O 0.02163 0.57482 0.55054 0.0
O289 O 0.04407 0.54742 0.49192 0.0
O290 O 0.02679 0.50345 0.56177 0.0
O291 O 1.00415 0.4836 0.67329 0.0
O292 O 0.04627 0.50329 0.80379 0.0
O293 O 0.05581 0.53645 0.71637 0.0
C294 C 0.96925 0.52663 0.65316 0.0
O295 O 1.00729 0.47246 0.86785 0.0
O296 O 0.98988 0.50203 0.93546 0.0
C297 C 0.05963 0.58525 0.49685 0.0
C298 C 0.10605 0.60213 0.51172 0.0
C299 C 0.09196 0.6 0.59555 0.0
C300 C 0.06898 0.59147 0.58822 0.0
C301 C 0.0727 0.5896 0.41241 0.0
C302 C 0.09572 0.598 0.41965 0.0
C303 C 0.03897 0.56984 0.49166 0.0
H304 H 0.94489 0.4248 0.08977 0.0
H305 H 0.98286 0.44427 0.06509 0.0
H306 H 0.95381 0.48315 0.8232 0.0
H307 H 0.91561 0.4653 0.85051 0.0
H308 H 0.09921 0.60333 0.66734 0.0
H309 H 0.05919 0.58808 0.65457 0.0
H310 H 0.06584 0.58469 0.34147 0.0
H311 H 0.10602 0.59914 0.35339 0.0
H312 H 0.19639 0.04358 0.39461 0.0
H313 H 0.1568 1.00725 0.17249 0.0
H314 H 0.16216 0.0419 0.50387 0.0
H315 H 0.12309 1.00481 0.28114 0.0
H316 H 0.05803 0.02894 0.44007 0.0
H317 H 0.09362 0.0297 0.34248 0.0
H318 H 0.13556 1.01898 0.60195 0.0
H319 H 0.09965 1.01896 0.70064 0.0
C320 C 0.18054 0.03483 0.36995 0.0
C321 C 0.17923 0.02577 0.27458 0.0
C322 C 0.16087 0.03384 0.43247 0.0
C323 C 0.1395 0.02362 0.40118 0.0
C324 C 0.13882 1.01351 0.30736 0.0
C325 C 0.15828 1.01469 0.24506 0.0
C326 C 0.07479 0.02676 0.47675 0.0
C327 C 0.07581 0.02381 0.57856 0.0
C328 C 0.09534 0.02701 0.42037 0.0
C329 C 0.1177 0.02407 0.46353 0.0
C330 C 0.11878 0.02145 0.56575 0.0
C331 C 0.09813 0.02135 0.62248 0.0
H332 H 0.53431 0.19547 0.33213 0.0
H333 H 0.48382 0.15916 0.15103 0.0
H334 H 0.53349 0.16255 0.44817 0.0
H335 H 0.48343 0.12635 0.26513 0.0
H336 H 0.51119 0.06013 0.42034 0.0
H337 H 0.51054 0.0947 0.31449 0.0
H338 H 0.50859 0.14011 0.56709 0.0
H339 H 0.50926 0.1054 0.67354 0.0
C340 C 0.5228 0.1807 0.31746 0.0
C341 C 0.50941 0.18002 0.23082 0.0
C342 C 0.52239 0.16172 0.38399 0.0
C343 C 0.50869 0.14149 0.36551 0.0
C344 C 0.49465 0.14128 0.28094 0.0
C345 C 0.4949 0.16022 0.21521 0.0
C346 C 0.51057 0.07744 0.45368 0.0
C347 C 0.51016 0.07982 0.55591 0.0
C348 C 0.51008 0.09735 0.39272 0.0
C349 C 0.50939 0.12034 0.43183 0.0
C350 C 0.50925 0.12276 0.53413 0.0
C351 C 0.50947 0.10279 0.59526 0.0
H352 H 0.33842 0.49056 0.32552 0.0
H353 H 0.37265 0.54328 0.14924 0.0
H354 H 0.37291 0.48926 0.43352 0.0
H355 H 0.40663 0.54244 0.25684 0.0
H356 H 0.47472 0.51797 0.39312 0.0
H357 H 0.43917 0.5184 0.29429 0.0
H358 H 0.397 0.50882 0.5533 0.0
H359 H 0.43285 0.50774 0.65229 0.0
C360 C 0.35313 0.50212 0.31063 0.0
C361 C 0.35282 0.51678 0.22777 0.0
C362 C 0.37298 0.5014 0.37256 0.0
C363 C 0.39297 0.51543 0.35351 0.0
C364 C 0.39206 0.53079 0.27286 0.0
C365 C 0.37241 0.5314 0.21113 0.0
C366 C 0.45791 0.51586 0.42933 0.0
C367 C 0.45682 0.51288 0.53113 0.0
C368 C 0.43737 0.5163 0.37244 0.0
C369 C 0.41492 0.51394 0.41527 0.0
C370 C 0.41383 0.51053 0.51708 0.0
C371 C 0.43447 0.51001 0.57413 0.0
H372 H 0.99151 0.38634 0.10827 0.0
H373 H 0.03562 0.34648 0.30594 0.0
H374 H 0.99143 0.41929 0.22195 0.0
H375 H 0.03453 0.37937 0.42173 0.0
H376 H 1.00632 0.43816 0.63731 0.0
H377 H 1.00565 0.40369 0.52918 0.0
H378 H 0.02252 0.44828 0.28427 0.0
H379 H 0.02369 0.48261 0.39227 0.0
C380 C 1.00127 0.38446 0.17571 0.0
C381 C 1.01396 0.36356 0.19607 0.0
C382 C 1.00111 0.40348 0.24128 0.0
C383 C 1.01322 0.40219 0.33064 0.0
C384 C 0.02498 0.38099 0.35364 0.0
C385 C 0.02547 0.36201 0.28714 0.0
C386 C 1.00993 0.44063 0.56041 0.0
C387 C 1.01507 0.46328 0.52383 0.0
C388 C 1.00965 0.42081 0.49848 0.0
C389 C 1.01397 0.42314 0.39779 0.0
C390 C 1.01894 0.44581 0.3612 0.0
C391 C 0.01972 0.46552 0.42336 0.0
H392 H 0.83888 0.04071 0.16911 0.0
H393 H 0.86084 0.97098 0.25767 0.0
H394 H 0.87266 0.04297 0.05871 0.0
H395 H 0.89447 0.97325 0.14811 0.0
H396 H 0.96704 0.99694 0.04035 0.0
H397 H 0.9316 0.99398 0.13972 0.0
H398 H 0.8912 0.02743 0.9112 0.0
H399 H 0.92672 0.0307 0.81207 0.0
C400 C 0.85064 0.02569 0.16385 0.0
C401 C 0.84718 1.00577 0.2234 0.0
C402 C 0.8701 0.02701 0.10065 0.0
C403 C 0.88663 1.00844 0.09533 0.0
C404 C 0.88254 0.98815 0.15184 0.0
C405 C 0.86314 0.98682 0.21463 0.0
C406 C 0.95063 1.00366 0.01097 0.0
C407 C 0.9499 1.01404 0.91774 0.0
C408 C 0.9302 1.00182 0.06791 0.0
C409 C 0.90837 1.01037 0.03366 0.0
C410 C 0.90765 0.02083 0.94058 0.0
C411 C 0.92808 0.02257 0.88337 0.0
H412 H 0.56778 0.87023 0.25104 0.0
H413 H 0.49499 0.85266 0.19994 0.0
H414 H 0.56398 0.90441 0.14454 0.0
H415 H 0.4909 0.88722 0.09468 0.0
H416 H 0.49562 0.94055 0.84564 0.0
H417 H 0.50005 0.90539 0.94541 0.0
H418 H 0.54809 0.94274 0.13443 0.0
H419 H 0.54419 0.97783 0.03212 0.0
C420 C 0.5509 0.87366 0.21697 0.0
C421 C 0.53168 0.85859 0.23465 0.0
C422 C 0.54865 0.89347 0.15616 0.0
C423 C 0.52703 0.89905 0.11106 0.0
C424 C 0.50794 0.88357 0.12674 0.0
C425 C 0.51026 0.86362 0.18723 0.0
C426 C 0.50716 0.94137 0.9085 0.0
C427 C 0.51955 0.96223 0.93034 0.0
C428 C 0.50959 0.92108 0.96648 0.0
C429 C 0.52444 0.9209 0.04886 0.0
C430 C 0.53677 0.94185 0.07097 0.0
C431 C 0.53442 0.96215 0.01252 0.0
H432 H 0.67102 0.57071 0.19665 0.0
H433 H 0.68616 0.4968 0.15606 0.0
H434 H 0.6371 0.56751 0.08873 0.0
H435 H 0.65179 0.49331 0.04923 0.0
H436 H 0.5982 0.49851 0.80061 0.0
H437 H 0.63378 0.50241 0.89805 0.0
H438 H 0.59832 0.55258 0.08465 0.0
H439 H 0.56282 0.54916 0.98491 0.0
C440 C 0.66715 0.55374 0.16413 0.0
C441 C 0.68135 0.53399 0.1855 0.0
C442 C 0.64748 0.55183 0.10273 0.0
C443 C 0.64121 0.53006 0.06079 0.0
C444 C 0.65599 0.51046 0.07918 0.0
C445 C 0.67582 0.51243 0.1404 0.0
C446 C 0.59791 0.51043 0.86239 0.0
C447 C 0.57747 0.52355 0.88447 0.0
C448 C 0.61841 0.51255 0.91894 0.0
C449 C 0.61921 0.52783 0.99987 0.0
C450 C 0.5987 0.54091 0.02214 0.0
C451 C 0.57818 0.53885 0.96521 0.0
H452 H 0.03944 0.66115 0.31272 0.0
H453 H 0.99387 0.69977 0.11777 0.0
H454 H 0.03946 0.62777 0.20153 0.0
H455 H 0.99333 0.66597 0.00633 0.0
H456 H 1.01254 0.60769 0.78706 0.0
H457 H 1.01373 0.64211 0.89318 0.0
H458 H 1.01647 0.59643 0.1452 0.0
H459 H 1.01604 0.562 0.03851 0.0
C460 C 0.02931 0.6625 0.24593 0.0
C461 C 1.01649 0.68321 0.22492 0.0
C462 C 0.02918 0.64317 0.18206 0.0
C463 C 1.0161 0.64371 0.09471 0.0
C464 C 1.0038 0.66474 0.07217 0.0
C465 C 1.00407 0.68423 0.13615 0.0
C466 C 1.01337 0.60492 0.86518 0.0
C467 C 1.01421 0.58188 0.90376 0.0
C468 C 1.01392 0.6248 0.92645 0.0
C469 C 1.01524 0.62238 0.02865 0.0
C470 C 1.0159 0.59927 0.06714 0.0
C471 C 1.01548 0.57938 0.00576 0.0
H472 H 0.08614 0.22922 0.26718 0.0
H473 H 1.01806 0.25098 0.37249 0.0
H474 H 0.08567 0.19571 0.37814 0.0
H475 H 1.0168 0.21715 0.47925 0.0
H476 H 1.00367 0.14524 0.57189 0.0
H477 H 0.0234 0.18344 0.57807 0.0
H478 H 0.06071 0.16576 0.31259 0.0
H479 H 0.04163 0.12771 0.30892 0.0
C480 C 0.07183 0.22775 0.31903 0.0
C481 C 0.05164 0.24184 0.30875 0.0
C482 C 0.07133 0.20832 0.38153 0.0
C483 C 0.05047 0.20286 0.43189 0.0
C484 C 0.03291 0.22034 0.43925 0.0
C485 C 0.03364 0.23998 0.37815 0.0
C486 C 1.01638 0.14953 0.51585 0.0
C487 C 0.02085 0.13373 0.43898 0.0
C488 C 0.02782 0.17129 0.51987 0.0
C489 C 0.04369 0.17781 0.44608 0.0
C490 C 0.04908 0.16131 0.37231 0.0
C491 C 0.03785 0.13952 0.36905 0.0
H492 H 0.29696 0.98755 0.41209 0.0
H493 H 0.29784 0.93744 0.17582 0.0
H494 H 0.32494 0.9634 0.50201 0.0
H495 H 0.32537 0.91265 0.26674 0.0
H496 H 0.40627 0.92811 0.31876 0.0
H497 H 0.36544 0.92711 0.27284 0.0
H498 H 0.34505 0.92943 0.57633 0.0
H499 H 0.38654 0.92971 0.6234 0.0
C500 C 0.30194 0.97053 0.38246 0.0
C501 C 0.29565 0.96443 0.28689 0.0
C502 C 0.31806 0.95662 0.43387 0.0
C503 C 0.32802 0.93647 0.38992 0.0
C504 C 0.31844 0.92837 0.3014 0.0
C505 C 0.30251 0.94241 0.24968 0.0
C506 C 0.39331 0.92724 0.3765 0.0
C507 C 0.39985 0.92966 0.47489 0.0
C508 C 0.36964 0.92663 0.34991 0.0
C509 C 0.35187 0.92862 0.4209 0.0
C510 C 0.35834 0.92828 0.51988 0.0
C511 C 0.38213 0.92863 0.54666 0.0
H512 H 0.52313 0.31771 0.3861 0.0
H513 H 0.58644 0.29089 0.25285 0.0
H514 H 0.54633 0.34273 0.49202 0.0
H515 H 0.61021 0.31574 0.36063 0.0
H516 H 0.58123 0.39741 0.62733 0.0
H517 H 0.57492 0.35541 0.60718 0.0
H518 H 0.61338 0.35731 0.33529 0.0
H519 H 0.62099 0.39894 0.3587 0.0
C520 C 0.54216 0.3163 0.38355 0.0
C521 C 0.5531 0.30271 0.31138 0.0
C522 C 0.5556 0.33059 0.44454 0.0
C523 C 0.58023 0.33171 0.43337 0.0
C524 C 0.59127 0.31562 0.36975 0.0
C525 C 0.57773 0.30126 0.30865 0.0
C526 C 0.58946 0.38869 0.56583 0.0
C527 C 0.60088 0.40173 0.49249 0.0
C528 C 0.58563 0.36455 0.55392 0.0
C529 C 0.59276 0.35315 0.46774 0.0
C530 C 0.60734 0.36545 0.40223 0.0
C531 C 0.61145 0.38951 0.41482 0.0
H532 H 0.243 0.58632 0.2837 0.0
H533 H 0.21282 0.52258 0.39933 0.0
H534 H 0.21875 0.6098 0.39515 0.0
H535 H 0.18832 0.54553 0.50851 0.0
H536 H 0.13669 0.62602 0.39265 0.0
H537 H 0.17777 0.61596 0.36913 0.0
H538 H 0.17621 0.57283 0.62911 0.0
H539 H 0.1347 0.58161 0.64876 0.0
C540 C 0.232 0.57736 0.33647 0.0
C541 C 0.22947 0.55278 0.33306 0.0
C542 C 0.21795 0.59075 0.39958 0.0
C543 C 0.20108 0.57966 0.4591 0.0
C544 C 0.20107 0.55484 0.46434 0.0
C545 C 0.21507 0.54155 0.40148 0.0
C546 C 0.14526 0.61487 0.44623 0.0
C547 C 0.13211 0.60386 0.51995 0.0
C548 C 0.16902 0.60932 0.43365 0.0
C549 C 0.18014 0.59284 0.49536 0.0
C550 C 0.16798 0.585 0.57851 0.0
C551 C 0.14412 0.59028 0.59028 0.0
H552 H 0.02948 0.81613 0.05992 0.0
H553 H 0.09331 0.7988 0.21406 0.0
H554 H 0.05089 0.84325 0.95704 0.0
H555 H 0.11549 0.82532 0.10798 0.0
H556 H 0.08045 0.90294 0.83134 0.0
H557 H 0.07784 0.86058 0.85175 0.0
H558 H 0.11511 0.86618 0.12606 0.0
H559 H 0.11941 0.90815 0.10143 0.0
C560 C 0.04846 0.8171 0.06741 0.0
C561 C 0.05979 0.80567 0.14481 0.0
C562 C 0.0609 0.83271 0.00829 0.0
C563 C 0.08494 0.83717 0.02598 0.0
C564 C 0.09688 0.82288 0.09419 0.0
C565 C 0.0843 0.80743 0.15412 0.0
C566 C 0.08919 0.89505 0.89357 0.0
C567 C 0.09937 0.90913 0.96689 0.0
C568 C 0.08741 0.87065 0.90587 0.0
C569 C 0.09525 0.85995 0.99266 0.0
C570 C 0.10852 0.87361 0.0586 0.0
C571 C 0.1107 0.89791 0.04534 0.0
H572 H 0.73328 0.10369 0.29132 0.0
H573 H 0.73305 0.04746 0.08009 0.0
H574 H 0.70574 0.12613 0.19075 0.0
H575 H 0.70482 0.06894 0.98182 0.0
H576 H 0.64122 0.09437 0.85795 0.0
H577 H 0.68316 0.09739 0.8951 0.0
H578 H 0.66589 0.11525 0.19362 0.0
H579 H 0.62442 0.11295 0.15518 0.0
C580 C 0.72833 0.09677 0.22054 0.0
C581 C 0.73485 0.07378 0.19368 0.0
C582 C 0.71227 0.10942 0.16353 0.0
C583 C 0.70212 0.09889 0.08058 0.0
C584 C 0.71194 0.07765 0.04558 0.0
C585 C 0.72828 0.06522 0.10184 0.0
C586 C 0.64654 0.09973 0.93057 0.0
C587 C 0.62967 0.10285 0.00446 0.0
C588 C 0.67054 0.10145 0.95192 0.0
C589 C 0.67806 0.10591 0.04798 0.0
C590 C 0.661 0.11186 0.11858 0.0
C591 C 0.63704 0.11041 0.09688 0.0
H592 H 0.43778 0.73215 0.29164 0.0
H593 H 0.48958 0.75772 0.08797 0.0
H594 H 0.42465 0.70331 0.17251 0.0
H595 H 0.47602 0.72929 0.96756 0.0
H596 H 0.49646 0.64841 0.01147 0.0
H597 H 0.49089 0.6899 0.03753 0.0
H598 H 0.41565 0.68171 0.00889 0.0
H599 H 0.42127 0.63955 0.97576 0.0
C600 C 0.44517 0.73276 0.21882 0.0
C601 C 0.46542 0.74623 0.20025 0.0
C602 C 0.43761 0.71621 0.15025 0.0
C603 C 0.4502 0.71335 0.06291 0.0
C604 C 0.46651 0.73078 0.03581 0.0
C605 C 0.47422 0.74718 0.10473 0.0
C606 C 0.47872 0.65531 0.00633 0.0
C607 C 0.45935 0.64039 0.99091 0.0
C608 C 0.47552 0.67933 0.02103 0.0
C609 C 0.45283 0.68921 0.02314 0.0
C610 C 0.43335 0.67458 0.00614 0.0
C611 C 0.4366 0.6504 0.98899 0.0
H612 H 0.79618 0.48953 0.06656 0.0
H613 H 0.8 0.43909 0.30111 0.0
H614 H 0.82576 0.46735 0.97657 0.0
H615 H 0.82935 0.41646 0.21058 0.0
H616 H 0.90938 0.43662 0.15689 0.0
H617 H 0.86865 0.43466 0.2046 0.0
H618 H 0.84747 0.43348 0.90196 0.0
H619 H 0.88882 0.43448 0.85303 0.0
C620 C 0.80216 0.47279 0.09573 0.0
C621 C 0.79618 0.46615 0.19105 0.0
C622 C 0.81924 0.46006 0.04438 0.0
C623 C 0.83047 0.44057 0.08809 0.0
C624 C 0.82137 0.4317 0.17608 0.0
C625 C 0.80438 0.44449 0.22749 0.0
C626 C 0.89631 0.43482 0.09987 0.0
C627 C 0.90257 0.43627 1.00083 0.0
C628 C 0.87273 0.43367 0.12751 0.0
C629 C 0.85473 0.43418 0.05702 0.0
C630 C 0.86095 0.43335 0.95792 0.0
C631 C 0.88466 0.43415 0.93009 0.0
H632 H 0.99587 0.20086 0.10595 0.0
H633 H 0.0459 0.21857 0.88198 0.0
H634 H 0.9925 0.16103 0.04022 0.0
H635 H 0.04278 0.17842 0.81554 0.0
H636 H 1.01919 0.10615 0.68633 0.0
H637 H 0.01962 0.14761 0.73669 0.0
H638 H 1.0166 0.12618 0.03828 0.0
H639 H 1.0162 0.0849 0.98849 0.0
C640 C 1.00561 0.19642 0.04048 0.0
C641 C 0.02082 0.21311 0.99827 0.0
C642 C 1.00403 0.17337 0.00368 0.0
C643 C 1.0177 0.16608 0.92334 0.0
C644 C 0.0319 0.18322 0.87729 0.0
C645 C 0.03355 0.20639 0.91468 0.0
C646 C 1.01864 0.11023 0.76352 0.0
C647 C 1.01762 0.09192 0.83318 0.0
C648 C 1.01894 0.13411 0.79234 0.0
C649 C 1.01785 0.14053 0.89158 0.0
C650 C 1.01698 0.12217 0.96105 0.0
C651 C 1.01695 0.09833 0.93242 0.0
H652 H 0.33249 0.0506 0.11091 0.0
H653 H 0.3242 0.98619 0.94797 0.0
H654 H 0.3709 0.05701 0.03304 0.0
H655 H 0.36239 0.99225 0.87091 0.0
H656 H 0.45046 0.03948 0.98447 0.0
H657 H 0.40994 0.03921 0.04318 0.0
H658 H 0.3863 1.01502 0.76098 0.0
H659 H 0.42684 1.015 0.70257 0.0
C660 C 0.33858 0.03822 0.05618 0.0
C661 C 0.3252 1.0181 0.0343 0.0
C662 C 0.36074 0.04165 0.01258 0.0
C663 C 0.36998 0.02507 0.94582 0.0
C664 C 0.35591 1.00558 0.92075 0.0
C665 C 0.33393 1.0021 0.96476 0.0
C666 C 0.43665 0.03425 0.93452 0.0
C667 C 0.44213 0.02711 0.83872 0.0
C668 C 0.41328 0.03427 0.96813 0.0
C669 C 0.39466 0.02707 0.90714 0.0
C670 C 0.40011 0.02042 0.81066 0.0
C671 C 0.42345 0.02049 0.77693 0.0
H672 H 0.54489 0.32279 0.91594 0.0
H673 H 0.48413 0.33974 0.08998 0.0
H674 H 0.54226 0.36128 0.83571 0.0
H675 H 0.48075 0.3779 0.00821 0.0
H676 H 0.50039 0.45466 0.94968 0.0
H677 H 0.49967 0.41446 0.01066 0.0
H678 H 0.52385 0.38903 0.73091 0.0
H679 H 0.5252 0.42957 0.67062 0.0
C680 C 0.53036 0.33441 0.93406 0.0
C681 C 0.51441 0.32799 0.00777 0.0
C682 C 0.52888 0.35664 0.88847 0.0
C683 C 0.51145 0.37318 0.91576 0.0
C684 C 0.49476 0.36608 0.98615 0.0
C685 C 0.49636 0.34395 0.03197 0.0
C686 C 0.50548 0.44056 0.90065 0.0
C687 C 0.51281 0.44563 0.80479 0.0
C688 C 0.50487 0.41728 0.93561 0.0
C689 C 0.51149 0.39808 0.87603 0.0
C690 C 0.51877 0.40314 0.77982 0.0
C691 C 0.51941 0.42652 0.74481 0.0
H692 H 0.20026 0.55728 0.99203 0.0
H693 H 0.19977 0.48217 0.03776 0.0
H694 H 0.16249 0.55499 0.90859 0.0
H695 H 0.1619 0.47949 0.9516 0.0
H696 H 0.08096 0.48941 0.91363 0.0
H697 H 0.12127 0.48868 0.97572 0.0
H698 H 0.14018 0.54372 0.77266 0.0
H699 H 0.09983 0.54495 0.71317 0.0
C700 C 0.19236 0.54011 0.9811 0.0
C701 C 0.20321 0.51987 0.01999 0.0
C702 C 0.17058 0.53873 0.93321 0.0
C703 C 0.15877 0.51704 0.92301 0.0
C704 C 0.17015 0.49658 0.95882 0.0
C705 C 0.19208 0.498 0.00682 0.0
C706 C 0.09373 0.50129 0.88183 0.0
C707 C 0.08688 0.51736 0.80867 0.0
C708 C 0.11703 0.50076 0.91709 0.0
C709 C 0.13428 0.51622 0.88004 0.0
C710 C 0.12749 0.53182 0.80489 0.0
C711 C 0.10422 0.53245 0.77015 0.0
H712 H 0.98321 0.8324 0.43295 0.0
H713 H 0.0582 0.83853 0.47161 0.0
H714 H 0.97758 0.87013 0.51855 0.0
H715 H 0.05291 0.87609 0.55426 0.0
H716 H 0.0386 0.93791 0.7499 0.0
H717 H 0.04044 0.89741 0.69147 0.0
H718 H 0.98302 0.91162 0.49298 0.0
H719 H 0.98074 0.95205 0.55381 0.0
C720 C 0.99843 0.8415 0.46189 0.0
C721 C 0.02113 0.83231 0.44623 0.0
C722 C 0.99529 0.86336 0.50968 0.0
C723 C 1.01478 0.87654 0.54339 0.0
C724 C 0.03736 0.86661 0.53116 0.0
C725 C 0.04045 0.84496 0.48342 0.0
C726 C 0.02622 0.93244 0.69422 0.0
C727 C 1.0096 0.94853 0.65646 0.0
C728 C 0.02736 0.90908 0.66007 0.0
C729 C 1.01202 0.90095 0.58636 0.0
C730 C 0.99499 0.91691 0.5504 0.0
C731 C 0.99378 0.94028 0.58496 0.0
H732 H 0.69792 0.06339 0.50669 0.0
H733 H 0.70094 0.98954 0.43287 0.0
H734 H 0.65968 0.05793 0.58096 0.0
H735 H 0.66259 0.98358 0.51198 0.0
H736 H 0.58087 0.98998 0.54481 0.0
H737 H 0.62167 0.99125 0.4883 0.0
H738 H 0.63736 0.04362 0.7079 0.0
H739 H 0.59664 0.04327 0.75971 0.0
C740 C 0.69059 0.04577 0.50865 0.0
C741 C 0.70251 0.02693 0.46352 0.0
C742 C 0.66857 0.04255 0.552 0.0
C743 C 0.65767 1.02027 0.55283 0.0
C744 C 0.67013 1.00109 0.51173 0.0
C745 C 0.69232 1.00438 0.46769 0.0
C746 C 0.59307 1.0017 0.58121 0.0
C747 C 0.58524 1.01664 0.65671 0.0
C748 C 0.61662 1.00231 0.54923 0.0
C749 C 0.63308 1.01771 0.59251 0.0
C750 C 0.62532 0.03191 0.67058 0.0
C751 C 0.60181 0.03156 0.7013 0.0
H752 H 0.47708 0.70766 0.51591 0.0
H753 H 0.54942 0.7086 0.42207 0.0
H754 H 0.48192 0.66798 0.57709 0.0
H755 H 0.55499 0.66872 0.48883 0.0
H756 H 0.54776 0.58687 0.50931 0.0
H757 H 0.54686 0.62853 0.46247 0.0
H758 H 0.49563 0.64205 0.68892 0.0
H759 H 0.49528 0.60059 0.72933 0.0
C760 C 0.49435 0.69958 0.51124 0.0
C761 C 0.51285 0.71147 0.46419 0.0
C762 C 0.49724 0.67662 0.54695 0.0
C763 C 0.51891 0.6646 0.53849 0.0
C764 C 0.53788 0.677 0.49573 0.0
C765 C 0.53488 0.70012 0.45896 0.0
C766 C 0.53629 0.59878 0.5489 0.0
C767 C 0.52155 0.59011 0.62331 0.0
C768 C 0.53591 0.62286 0.52259 0.0
C769 C 0.521 0.63912 0.57079 0.0
C770 C 0.50693 0.63039 0.64743 0.0
C771 C 0.50696 0.60639 0.672 0.0
H772 H 0.82421 0.48831 0.53403 0.0
H773 H 0.83256 0.55158 0.36387 0.0
H774 H 0.86301 0.49416 0.60663 0.0
H775 H 0.87155 0.55776 0.43705 0.0
H776 H 0.95095 0.53891 0.47442 0.0
H777 H 0.90992 0.53889 0.42231 0.0
H778 H 0.88866 0.51706 0.71076 0.0
H779 H 0.92976 0.51694 0.7629 0.0
C780 C 0.83407 0.50397 0.51487 0.0
C781 C 0.82517 0.51969 0.44447 0.0
C782 C 0.85641 0.50731 0.55622 0.0
C783 C 0.87069 0.52635 0.52743 0.0
C784 C 0.86125 0.54273 0.46026 0.0
C785 C 0.83875 0.53945 0.41939 0.0
C786 C 0.93757 0.53424 0.5272 0.0
C787 C 0.9439 0.52775 0.62294 0.0
C788 C 0.91391 0.53441 0.49735 0.0
C789 C 0.89577 0.52799 0.56207 0.0
C790 C 0.90206 0.52188 0.65834 0.0
C791 C 0.92573 0.52184 0.6884 0.0
loop_
_geom_bond_atom_site_label_1
_geom_bond_atom_site_label_2
_geom_bond_distance
_geom_bond_site_symmetry_2
_ccdc_geom_bond_type
H0 C1 0.949 . S
C1 H0 0.949 . S
C1 C2 1.395 . S
C1 C3 1.391 . S
C2 C1 1.395 . S
C2 C5 1.390 . S
C3 C1 1.391 . S
C3 C7 1.387 . S
C3 C8 1.491 . S
H4 C5 0.950 . S
C5 C2 1.390 . S
C5 H4 0.950 . S
C5 C6 1.378 . S
C6 C5 1.378 . S
C6 C7 1.409 . S
C7 C3 1.387 . S
C7 C6 1.409 . S
C7 H9 0.951 . S
C8 C3 1.491 . S
C8 C10 1.382 . S
C8 C12 1.404 . S
H9 C7 0.951 . S
C10 C8 1.382 . S
C10 C11 1.390 . S
C10 H15 0.949 . S
C11 C10 1.390 . S
C11 C16 1.399 . S
C12 C8 1.404 . S
C12 H13 0.950 . S
C12 C14 1.375 . S
H13 C12 0.950 . S
C14 C12 1.375 . S
C14 C16 1.382 . S
C14 H18 0.950 . S
H15 C10 0.949 . S
C16 C11 1.399 . S
C16 C14 1.382 . S
C16 H17 0.952 . S
H17 C16 0.952 . S
H18 C14 0.950 . S
H19 C20 0.949 . S
C20 H19 0.949 . S
C20 C21 1.395 . S
C20 C22 1.391 . S
C21 C20 1.395 . S
C21 C24 1.390 1_655 S
C22 C20 1.391 . S
C22 C26 1.387 . S
C22 C27 1.491 . S
H23 C24 0.950 . S
C24 C21 1.390 1_455 S
C24 H23 0.950 . S
C24 C25 1.377 1_455 S
C25 C24 1.377 1_655 S
C25 C26 1.413 . S
C26 C22 1.387 . S
C26 C25 1.413 . S
C26 H28 0.951 . S
C27 C22 1.491 . S
C27 C29 1.382 . S
C27 C31 1.404 . S
H28 C26 0.951 . S
C29 C27 1.382 . S
C29 C30 1.390 . S
C29 H34 0.949 1_655 S
C30 C29 1.390 . S
C30 C35 1.399 . S
C31 C27 1.404 . S
C31 H32 0.950 . S
C31 C33 1.375 . S
H32 C31 0.950 . S
C33 C31 1.375 . S
C33 C35 1.382 . S
C33 H37 0.950 . S
H34 C29 0.949 1_455 S
C35 C30 1.399 . S
C35 C33 1.382 . S
C35 H36 0.952 . S
H36 C35 0.952 . S
H37 C33 0.950 . S
H38 C39 0.949 . S
C39 H38 0.949 . S
C39 C40 1.395 . S
C39 C41 1.391 . S
C40 C39 1.395 . S
C40 C43 1.390 1_565 S
C41 C39 1.391 . S
C41 C45 1.387 . S
C41 C46 1.491 . S
H42 C43 0.950 . S
C43 C40 1.390 1_545 S
C43 H42 0.950 . S
C43 C44 1.377 1_545 S
C44 C43 1.377 1_565 S
C44 C45 1.413 . S
C45 C41 1.387 . S
C45 C44 1.413 . S
C45 H47 0.951 . S
C46 C41 1.491 . S
C46 C48 1.382 . S
C46 C50 1.404 . S
H47 C45 0.951 . S
C48 C46 1.382 . S
C48 C49 1.390 . S
C48 H53 0.949 1_565 S
C49 C48 1.390 . S
C49 C54 1.399 . S
C50 C46 1.404 . S
C50 H51 0.950 . S
C50 C52 1.375 . S
H51 C50 0.950 . S
C52 C50 1.375 . S
C52 C54 1.382 . S
C52 H56 0.950 . S
H53 C48 0.949 1_545 S
C54 C49 1.399 . S
C54 C52 1.382 . S
C54 H55 0.952 . S
H55 C54 0.952 . S
H56 C52 0.950 . S
H57 C58 0.949 . S
C58 H57 0.949 . S
C58 C59 1.395 . S
C58 C60 1.391 . S
C59 C58 1.395 . S
C59 C62 1.390 . S
C60 C58 1.391 . S
C60 C64 1.387 . S
C60 C65 1.491 . S
H61 C62 0.950 . S
C62 C59 1.390 . S
C62 H61 0.950 . S
C62 C63 1.378 . S
C63 C62 1.378 . S
C63 C64 1.409 . S
C64 C60 1.387 . S
C64 C63 1.409 . S
C64 H66 0.951 . S
C65 C60 1.491 . S
C65 C67 1.382 . S
C65 C69 1.404 . S
H66 C64 0.951 . S
C67 C65 1.382 . S
C67 C68 1.390 . S
C67 H72 0.949 . S
C68 C67 1.390 . S
C68 C73 1.399 . S
C69 C65 1.404 . S
C69 H70 0.950 . S
C69 C71 1.375 . S
H70 C69 0.950 . S
C71 C69 1.375 . S
C71 C73 1.382 . S
C71 H75 0.950 . S
H72 C67 0.949 . S
C73 C68 1.399 . S
C73 C71 1.382 . S
C73 H74 0.952 . S
H74 C73 0.952 . S
H75 C71 0.950 . S
H76 C77 0.949 . S
C77 H76 0.949 . S
C77 C78 1.395 . S
C77 C79 1.398 . S
C78 C77 1.395 . S
C78 C81 1.390 1_554 S
C79 C77 1.398 . S
C79 C83 1.381 1_554 S
C79 C84 1.491 . S
H80 C81 0.950 . S
C81 C78 1.390 1_556 S
C81 H80 0.950 . S
C81 C82 1.378 . S
C82 C81 1.378 . S
C82 C83 1.409 . S
C83 C79 1.381 1_556 S
C83 C82 1.409 . S
C83 H85 0.951 . S
C84 C79 1.491 . S
C84 C86 1.382 . S
C84 C88 1.404 1_554 S
H85 C83 0.951 . S
C86 C84 1.382 . S
C86 C87 1.390 . S
C86 H91 0.949 . S
C87 C86 1.390 . S
C87 C92 1.399 . S
C88 C84 1.404 1_556 S
C88 H89 0.950 . S
C88 C90 1.375 . S
H89 C88 0.950 . S
C90 C88 1.375 . S
C90 C92 1.382 1_556 S
C90 H94 0.950 . S
H91 C86 0.949 . S
C92 C87 1.399 . S
C92 C90 1.382 1_554 S
C92 H93 0.952 . S
H93 C92 0.952 . S
H94 C90 0.950 . S
H95 C96 0.949 . S
C96 H95 0.949 . S
C96 C97 1.395 1_655 S
C96 C98 1.391 . S
C97 C96 1.395 1_455 S
C97 C100 1.390 1_554 S
C98 C96 1.391 . S
C98 C102 1.387 1_554 S
C98 C103 1.491 . S
H99 C100 0.950 . S
C100 C97 1.390 1_556 S
C100 H99 0.950 . S
C100 C101 1.377 1_455 S
C101 C100 1.377 1_655 S
C101 C102 1.411 . S
C102 C98 1.387 1_556 S
C102 C101 1.411 . S
C102 H104 0.951 . S
C103 C98 1.491 . S
C103 C105 1.402 . S
C103 C107 1.404 1_554 S
H104 C102 0.951 . S
C105 C103 1.402 . S
C105 C106 1.400 . S
C105 H110 0.920 1_655 S
C106 C105 1.400 . S
C106 C111 1.399 . S
C107 C103 1.404 1_556 S
C107 H108 0.950 . S
C107 C109 1.375 . S
H108 C107 0.950 . S
C109 C107 1.375 . S
C109 C111 1.382 1_556 S
C109 H113 0.950 . S
H110 C105 0.920 1_455 S
C111 C106 1.399 . S
C111 C109 1.382 1_554 S
C111 H112 0.952 . S
H112 C111 0.952 . S
H113 C109 0.950 . S
H114 C115 0.949 . S
C115 H114 0.949 . S
C115 C116 1.395 1_565 S
C115 C117 1.391 . S
C116 C115 1.395 1_545 S
C116 C119 1.390 1_554 S
C117 C115 1.391 . S
C117 C121 1.387 1_554 S
C117 C122 1.491 . S
H118 C119 0.950 . S
C119 C116 1.390 1_556 S
C119 H118 0.950 . S
C119 C120 1.377 1_545 S
C120 C119 1.377 1_565 S
C120 C121 1.411 . S
C121 C117 1.387 1_556 S
C121 C120 1.411 . S
C121 H123 0.951 . S
C122 C117 1.491 . S
C122 C124 1.402 . S
C122 C126 1.404 1_554 S
H123 C121 0.951 . S
C124 C122 1.402 . S
C124 C125 1.400 . S
C124 H129 0.920 1_565 S
C125 C124 1.400 . S
C125 C130 1.399 . S
C126 C122 1.404 1_556 S
C126 H127 0.950 . S
C126 C128 1.375 . S
H127 C126 0.950 . S
C128 C126 1.375 . S
C128 C130 1.382 1_556 S
C128 H132 0.950 . S
H129 C124 0.920 1_545 S
C130 C125 1.399 . S
C130 C128 1.382 1_554 S
C130 H131 0.952 . S
H131 C130 0.952 . S
H132 C128 0.950 . S
H133 C134 0.949 . S
C134 H133 0.949 . S
C134 C135 1.395 . S
C134 C136 1.388 1_554 S
C135 C134 1.395 . S
C135 C138 1.390 1_554 S
C136 C134 1.388 1_556 S
C136 C140 1.390 . S
C136 C141 1.491 1_556 S
H137 C138 0.950 . S
C138 C135 1.390 1_556 S
C138 H137 0.950 . S
C138 C139 1.378 . S
C139 C138 1.378 . S
C139 C140 1.409 . S
C140 C136 1.390 . S
C140 C139 1.409 . S
C140 H142 0.951 . S
C141 C136 1.491 1_554 S
C141 C143 1.382 . S
C141 C145 1.404 1_554 S
H142 C140 0.951 . S
C143 C141 1.382 . S
C143 C144 1.390 . S
C143 H148 0.949 . S
C144 C143 1.390 . S
C144 C149 1.399 . S
C145 C141 1.404 1_556 S
C145 H146 0.950 . S
C145 C147 1.375 . S
H146 C145 0.950 . S
C147 C145 1.375 . S
C147 C149 1.382 1_556 S
C147 H151 0.950 . S
H148 C143 0.949 . S
C149 C144 1.399 . S
C149 C147 1.382 1_554 S
C149 H150 0.952 . S
H150 C149 0.952 . S
H151 C147 0.950 . S
Tb152 C162 2.825 . S
Tb152 O163 2.347 1_455 S
Tb152 O166 2.366 . S
Tb152 O171 2.418 . S
Tb152 O172 2.384 1_565 S
Tb152 O175 2.479 . S
Tb152 O176 2.471 . S
Eu153 O164 2.418 . S
Eu153 O165 2.384 1_545 S
Eu153 O168 2.479 . S
Eu153 O169 2.471 . S
Eu153 O170 2.347 1_655 S
Eu153 O173 2.366 . S
Eu153 C183 2.825 . S
C154 O170 1.259 1_565 S
C154 O171 1.265 . S
C155 O172 1.255 . S
C155 O173 1.265 1_455 S
C156 C158 1.380 1_556 S
C156 C159 1.374 1_556 S
C156 C162 1.507 . S
C157 C158 1.384 . S
C157 C161 1.387 . S
C157 H184 0.930 . S
C158 C156 1.380 1_554 S
C158 C157 1.384 . S
C158 H185 0.931 . S
C159 C156 1.374 1_554 S
C159 C160 1.390 . S
C159 H186 0.930 1_454 S
C160 C159 1.390 . S
C160 C161 1.391 . S
C160 H187 0.930 1_455 S
C161 C157 1.387 . S
C161 C160 1.391 . S
C162 Tb152 2.825 . S
C162 C156 1.507 . S
C162 O175 1.238 . S
C162 O176 1.247 . S
O163 Tb152 2.347 1_655 S
O163 C167 1.259 1_565 S
O164 Eu153 2.418 . S
O164 C167 1.265 . S
O165 Eu153 2.384 1_565 S
O165 C174 1.255 . S
O166 Tb152 2.366 . S
O166 C174 1.265 1_455 S
C167 O163 1.259 1_545 S
C167 O164 1.265 . S
O168 Eu153 2.479 . S
O168 C183 1.238 . S
O169 Eu153 2.471 . S
O169 C183 1.247 . S
O170 Eu153 2.347 1_455 S
O170 C154 1.259 1_545 S
O171 Tb152 2.418 . S
O171 C154 1.265 . S
O172 Tb152 2.384 1_545 S
O172 C155 1.255 . S
O173 Eu153 2.366 . S
O173 C155 1.265 1_655 S
C174 O165 1.255 . S
C174 O166 1.265 1_655 S
O175 Tb152 2.479 . S
O175 C162 1.238 . S
O176 Tb152 2.471 . S
O176 C162 1.247 . S
C177 C180 1.380 . S
C177 C181 1.374 . S
C177 C183 1.507 . S
C178 C179 1.387 . S
C178 C182 1.391 . S
C179 C178 1.387 . S
C179 C180 1.384 . S
C179 H188 0.930 . S
C180 C177 1.380 . S
C180 C179 1.384 . S
C180 H189 0.931 . S
C181 C177 1.374 . S
C181 C182 1.390 . S
C181 H190 0.930 1_655 S
C182 C178 1.391 . S
C182 C181 1.390 . S
C182 H191 0.930 1_655 S
C183 Eu153 2.825 . S
C183 O168 1.238 . S
C183 O169 1.247 . S
C183 C177 1.507 . S
H184 C157 0.930 . S
H185 C158 0.931 . S
H186 C159 0.930 1_656 S
H187 C160 0.930 1_655 S
H188 C179 0.930 . S
H189 C180 0.931 . S
H190 C181 0.930 1_455 S
H191 C182 0.930 1_455 S
Tb192 C202 2.825 . S
Tb192 O203 2.347 1_545 S
Tb192 O206 2.366 . S
Tb192 O211 2.418 . S
Tb192 O212 2.384 . S
Tb192 O215 2.479 . S
Tb192 O216 2.471 . S
Eu193 O204 2.418 . S
Eu193 O205 2.384 . S
Eu193 O208 2.479 . S
Eu193 O209 2.471 . S
Eu193 O210 2.347 1_565 S
Eu193 O213 2.366 . S
Eu193 C223 2.825 . S
C194 O210 1.259 . S
C194 O211 1.265 . S
C195 O212 1.255 . S
C195 O213 1.265 1_545 S
C196 C198 1.380 1_556 S
C196 C199 1.374 1_556 S
C196 C202 1.507 . S
C197 C198 1.384 . S
C197 C201 1.387 . S
C197 H224 0.930 . S
C198 C196 1.380 1_554 S
C198 C197 1.384 . S
C198 H225 0.931 . S
C199 C196 1.374 1_554 S
C199 C200 1.390 . S
C199 H226 0.929 1_544 S
C200 C199 1.390 . S
C200 C201 1.391 . S
C200 H227 0.930 1_545 S
C201 C197 1.387 . S
C201 C200 1.391 . S
C202 Tb192 2.825 . S
C202 C196 1.507 . S
C202 O215 1.238 . S
C202 O216 1.247 . S
O203 Tb192 2.347 1_565 S
O203 C207 1.259 . S
O204 Eu193 2.418 . S
O204 C207 1.265 . S
O205 Eu193 2.384 . S
O205 C214 1.255 . S
O206 Tb192 2.366 . S
O206 C214 1.265 1_545 S
C207 O203 1.259 . S
C207 O204 1.265 . S
O208 Eu193 2.479 . S
O208 C223 1.238 . S
O209 Eu193 2.471 . S
O209 C223 1.247 . S
O210 Eu193 2.347 1_545 S
O210 C194 1.259 . S
O211 Tb192 2.418 . S
O211 C194 1.265 . S
O212 Tb192 2.384 . S
O212 C195 1.255 . S
O213 Eu193 2.366 . S
O213 C195 1.265 1_565 S
C214 O205 1.255 . S
C214 O206 1.265 1_565 S
O215 Tb192 2.479 . S
O215 C202 1.238 . S
O216 Tb192 2.471 . S
O216 C202 1.247 . S
C217 C220 1.380 . S
C217 C221 1.374 . S
C217 C223 1.507 . S
C218 C219 1.387 . S
C218 C222 1.391 . S
C219 C218 1.387 . S
C219 C220 1.384 . S
C219 H228 0.930 . S
C220 C217 1.380 . S
C220 C219 1.384 . S
C220 H229 0.931 . S
C221 C217 1.374 . S
C221 C222 1.390 . S
C221 H230 0.930 1_565 S
C222 C218 1.391 . S
C222 C221 1.390 . S
C222 H231 0.930 1_565 S
C223 Eu193 2.825 . S
C223 O208 1.238 . S
C223 O209 1.247 . S
C223 C217 1.507 . S
H224 C197 0.930 . S
H225 C198 0.931 . S
H226 C199 0.929 1_566 S
H227 C200 0.930 1_565 S
H228 C219 0.930 . S
H229 C220 0.931 . S
H230 C221 0.930 1_545 S
H231 C222 0.930 1_545 S
Tb232 C242 2.825 . S
Tb232 O243 2.347 . S
Tb232 O246 2.366 . S
Tb232 O251 2.418 . S
Tb232 O252 2.384 . S
Tb232 O255 2.479 . S
Tb232 O256 2.471 . S
Eu233 O244 2.418 . S
Eu233 O245 2.384 . S
Eu233 O248 2.479 . S
Eu233 O249 2.471 . S
Eu233 O250 2.347 . S
Eu233 O253 2.366 . S
Eu233 C263 2.825 . S
C234 O250 1.259 . S
C234 O251 1.265 . S
C235 O252 1.255 . S
C235 O253 1.265 . S
C236 C238 1.380 1_556 S
C236 C239 1.374 1_556 S
C236 C242 1.507 . S
C237 C238 1.384 . S
C237 C241 1.387 . S
C237 H264 0.930 . S
C238 C236 1.380 1_554 S
C238 C237 1.384 . S
C238 H265 0.931 . S
C239 C236 1.374 1_554 S
C239 C240 1.390 . S
C239 H266 0.930 . S
C240 C239 1.390 . S
C240 C241 1.391 . S
C240 H267 0.930 . S
C241 C237 1.387 . S
C241 C240 1.391 . S
C242 Tb232 2.825 . S
C242 C236 1.507 . S
C242 O255 1.238 . S
C242 O256 1.247 . S
O243 Tb232 2.347 . S
O243 C247 1.259 . S
O244 Eu233 2.418 . S
O244 C247 1.265 . S
O245 Eu233 2.384 . S
O245 C254 1.255 . S
O246 Tb232 2.366 . S
O246 C254 1.265 . S
C247 O243 1.259 . S
C247 O244 1.265 . S
O248 Eu233 2.479 . S
O248 C263 1.238 . S
O249 Eu233 2.471 . S
O249 C263 1.247 . S
O250 Eu233 2.347 . S
O250 C234 1.259 . S
O251 Tb232 2.418 . S
O251 C234 1.265 . S
O252 Tb232 2.384 . S
O252 C235 1.255 . S
O253 Eu233 2.366 . S
O253 C235 1.265 . S
C254 O245 1.255 . S
C254 O246 1.265 . S
O255 Tb232 2.479 . S
O255 C242 1.238 . S
O256 Tb232 2.471 . S
O256 C242 1.247 . S
C257 C260 1.380 . S
C257 C261 1.374 . S
C257 C263 1.507 . S
C258 C259 1.387 . S
C258 C262 1.391 . S
C259 C258 1.387 . S
C259 C260 1.384 . S
C259 H268 0.930 . S
C260 C257 1.380 . S
C260 C259 1.384 . S
C260 H269 0.931 . S
C261 C257 1.374 . S
C261 C262 1.390 . S
C261 H270 0.930 . S
C262 C258 1.391 . S
C262 C261 1.390 . S
C262 H271 0.930 . S
C263 Eu233 2.825 . S
C263 O248 1.238 . S
C263 O249 1.247 . S
C263 C257 1.507 . S
H264 C237 0.930 . S
H265 C238 0.931 . S
H266 C239 0.930 . S
H267 C240 0.930 . S
H268 C259 0.930 . S
H269 C260 0.931 . S
H270 C261 0.930 . S
H271 C262 0.930 . S
Tb272 C282 2.825 . S
Tb272 O283 2.347 . S
Tb272 O286 2.366 . S
Tb272 O291 2.418 . S
Tb272 O292 2.384 1_655 S
Tb272 O295 2.479 . S
Tb272 O296 2.471 . S
Eu273 O284 2.418 . S
Eu273 O285 2.384 1_455 S
Eu273 O288 2.479 . S
Eu273 O289 2.471 . S
Eu273 O290 2.347 . S
Eu273 O293 2.366 . S
Eu273 C303 2.825 . S
C274 O290 1.259 1_655 S
C274 O291 1.265 . S
C275 O292 1.255 . S
C275 O293 1.265 . S
C276 C278 1.380 1_556 S
C276 C279 1.374 1_556 S
C276 C282 1.507 . S
C277 C278 1.384 . S
C277 C281 1.387 . S
C277 H304 0.930 . S
C278 C276 1.380 1_554 S
C278 C277 1.384 . S
C278 H305 0.931 . S
C279 C276 1.374 1_554 S
C279 C280 1.390 . S
C279 H306 0.929 1_554 S
C280 C279 1.390 . S
C280 C281 1.391 . S
C280 H307 0.930 . S
C281 C277 1.387 . S
C281 C280 1.391 . S
C282 Tb272 2.825 . S
C282 C276 1.507 . S
C282 O295 1.238 . S
C282 O296 1.247 . S
O283 Tb272 2.347 . S
O283 C287 1.259 1_655 S
O284 Eu273 2.418 . S
O284 C287 1.265 . S
O285 Eu273 2.384 1_655 S
O285 C294 1.255 . S
O286 Tb272 2.366 . S
O286 C294 1.265 . S
C287 O283 1.259 1_455 S
C287 O284 1.265 . S
O288 Eu273 2.479 . S
O288 C303 1.238 . S
O289 Eu273 2.471 . S
O289 C303 1.247 . S
O290 Eu273 2.347 . S
O290 C274 1.259 1_455 S
O291 Tb272 2.418 . S
O291 C274 1.265 . S
O292 Tb272 2.384 1_455 S
O292 C275 1.255 . S
O293 Eu273 2.366 . S
O293 C275 1.265 . S
C294 O285 1.255 . S
C294 O286 1.265 . S
O295 Tb272 2.479 . S
O295 C282 1.238 . S
O296 Tb272 2.471 . S
O296 C282 1.247 . S
C297 C300 1.380 . S
C297 C301 1.374 . S
C297 C303 1.507 . S
C298 C299 1.387 . S
C298 C302 1.391 . S
C299 C298 1.387 . S
C299 C300 1.384 . S
C299 H308 0.930 . S
C300 C297 1.380 . S
C300 C299 1.384 . S
C300 H309 0.931 . S
C301 C297 1.374 . S
C301 C302 1.390 . S
C301 H310 0.930 . S
C302 C298 1.391 . S
C302 C301 1.390 . S
C302 H311 0.930 . S
C303 Eu273 2.825 . S
C303 O288 1.238 . S
C303 O289 1.247 . S
C303 C297 1.507 . S
H304 C277 0.930 . S
H305 C278 0.931 . S
H306 C279 0.929 1_556 S
H307 C280 0.930 . S
H308 C299 0.930 . S
H309 C300 0.931 . S
H310 C301 0.930 . S
H311 C302 0.930 . S
H312 C320 0.950 . S
H313 C325 0.950 . S
H314 C322 0.950 . S
H315 C324 0.950 . S
H316 C326 0.950 . S
H317 C328 0.950 . S
H318 C330 0.950 . S
H319 C331 0.950 . S
C320 H312 0.950 . S
C320 C321 1.406 . S
C320 C322 1.391 . S
C321 C320 1.406 . S
C321 C325 1.373 1_545 S
C322 H314 0.950 . S
C322 C320 1.391 . S
C322 C323 1.417 . S
C323 C322 1.417 . S
C323 C324 1.383 1_545 S
C323 C329 1.490 . S
C324 H315 0.950 . S
C324 C323 1.383 1_565 S
C324 C325 1.391 . S
C325 H313 0.950 . S
C325 C321 1.373 1_565 S
C325 C324 1.391 . S
C326 H316 0.950 . S
C326 C327 1.384 . S
C326 C328 1.391 . S
C327 C326 1.384 . S
C327 C331 1.395 1_565 S
C328 H317 0.950 . S
C328 C326 1.391 . S
C328 C329 1.401 1_565 S
C329 C323 1.490 . S
C329 C328 1.401 1_545 S
C329 C330 1.397 . S
C330 H318 0.950 . S
C330 C329 1.397 . S
C330 C331 1.391 . S
C331 H319 0.950 . S
C331 C327 1.395 1_545 S
C331 C330 1.391 . S
H332 C340 0.950 . S
H333 C345 0.950 . S
H334 C342 0.950 . S
H335 C344 0.950 . S
H336 C346 0.950 . S
H337 C348 0.950 . S
H338 C350 0.950 . S
H339 C351 0.950 . S
C340 H332 0.950 . S
C340 C341 1.386 . S
C340 C342 1.391 . S
C341 C340 1.386 . S
C341 C345 1.393 . S
C342 H334 0.950 . S
C342 C340 1.391 . S
C342 C343 1.400 . S
C343 C342 1.400 . S
C343 C344 1.398 . S
C343 C349 1.491 . S
C344 H335 0.950 . S
C344 C343 1.398 . S
C344 C345 1.391 . S
C345 H333 0.950 . S
C345 C341 1.393 . S
C345 C344 1.391 . S
C346 H336 0.950 . S
C346 C347 1.386 . S
C346 C348 1.391 . S
C347 C346 1.386 . S
C347 C351 1.393 . S
C348 H337 0.950 . S
C348 C346 1.391 . S
C348 C349 1.400 . S
C349 C343 1.491 . S
C349 C348 1.400 . S
C349 C350 1.398 . S
C350 H338 0.950 . S
C350 C349 1.398 . S
C350 C351 1.391 . S
C351 H339 0.950 . S
C351 C347 1.393 . S
C351 C350 1.391 . S
H352 C360 0.950 . S
H353 C365 0.950 . S
H354 C362 0.950 . S
H355 C364 0.950 . S
H356 C366 0.950 . S
H357 C368 0.950 . S
H358 C370 0.950 . S
H359 C371 0.950 . S
C360 H352 0.950 . S
C360 C361 1.386 . S
C360 C362 1.391 . S
C361 C360 1.386 . S
C361 C365 1.393 . S
C362 H354 0.950 . S
C362 C360 1.391 . S
C362 C363 1.400 . S
C363 C362 1.400 . S
C363 C364 1.398 . S
C363 C369 1.491 . S
C364 H355 0.950 . S
C364 C363 1.398 . S
C364 C365 1.391 . S
C365 H353 0.950 . S
C365 C361 1.393 . S
C365 C364 1.391 . S
C366 H356 0.950 . S
C366 C367 1.386 . S
C366 C368 1.391 . S
C367 C366 1.386 . S
C367 C371 1.393 . S
C368 H357 0.950 . S
C368 C366 1.391 . S
C368 C369 1.400 . S
C369 C363 1.491 . S
C369 C368 1.400 . S
C369 C370 1.398 . S
C370 H358 0.950 . S
C370 C369 1.398 . S
C370 C371 1.391 . S
C371 H359 0.950 . S
C371 C367 1.393 . S
C371 C370 1.391 . S
H372 C380 0.950 . S
H373 C385 0.950 . S
H374 C382 0.950 . S
H375 C384 0.950 . S
H376 C386 0.950 . S
H377 C388 0.950 . S
H378 C390 0.950 . S
H379 C391 0.950 . S
C380 H372 0.950 . S
C380 C381 1.387 1_655 S
C380 C382 1.391 . S
C381 C380 1.387 1_455 S
C381 C385 1.391 . S
C382 H374 0.950 . S
C382 C380 1.391 . S
C382 C383 1.389 1_655 S
C383 C382 1.389 1_455 S
C383 C384 1.410 . S
C383 C389 1.490 . S
C384 H375 0.950 . S
C384 C383 1.410 . S
C384 C385 1.391 . S
C385 H373 0.950 . S
C385 C381 1.391 . S
C385 C384 1.391 . S
C386 H376 0.950 . S
C386 C387 1.423 . S
C386 C388 1.391 . S
C387 C386 1.423 . S
C387 C391 1.355 1_455 S
C388 H377 0.950 . S
C388 C386 1.391 . S
C388 C389 1.425 . S
C389 C383 1.490 . S
C389 C388 1.425 . S
C389 C390 1.374 1_455 S
C390 H378 0.950 . S
C390 C389 1.374 1_655 S
C390 C391 1.391 . S
C391 H379 0.950 . S
C391 C387 1.355 1_655 S
C391 C390 1.391 . S
H392 C400 0.950 . S
H393 C405 0.950 . S
H394 C402 0.950 . S
H395 C404 0.950 . S
H396 C406 0.950 . S
H397 C408 0.950 . S
H398 C410 0.950 . S
H399 C411 0.950 . S
C400 H392 0.950 . S
C400 C401 1.396 . S
C400 C402 1.391 . S
C401 C400 1.396 . S
C401 C405 1.382 1_545 S
C402 H394 0.950 . S
C402 C400 1.391 . S
C402 C403 1.399 . S
C403 C402 1.399 . S
C403 C404 1.399 1_545 S
C403 C409 1.490 1_545 S
C404 H395 0.950 . S
C404 C403 1.399 1_565 S
C404 C405 1.391 . S
C405 H393 0.950 . S
C405 C401 1.382 1_565 S
C405 C404 1.391 . S
C406 H396 0.950 . S
C406 C407 1.406 . S
C406 C408 1.391 1_556 S
C407 C406 1.406 . S
C407 C411 1.373 1_565 S
C408 H397 0.950 . S
C408 C406 1.391 1_554 S
C408 C409 1.409 . S
C409 C403 1.490 1_565 S
C409 C408 1.409 . S
C409 C410 1.390 1_564 S
C410 H398 0.950 . S
C410 C409 1.390 1_546 S
C410 C411 1.391 . S
C411 H399 0.950 . S
C411 C407 1.373 1_545 S
C411 C410 1.391 . S
H412 C420 0.950 . S
H413 C425 0.950 . S
H414 C422 0.950 . S
H415 C424 0.950 . S
H416 C426 0.950 . S
H417 C428 0.950 . S
H418 C430 0.950 . S
H419 C431 0.950 . S
C420 H412 0.950 . S
C420 C421 1.386 . S
C420 C422 1.391 . S
C421 C420 1.386 . S
C421 C425 1.393 . S
C422 H414 0.950 . S
C422 C420 1.391 . S
C422 C423 1.400 . S
C423 C422 1.400 . S
C423 C424 1.398 . S
C423 C429 1.491 . S
C424 H415 0.950 . S
C424 C423 1.398 . S
C424 C425 1.391 . S
C425 H413 0.950 . S
C425 C421 1.393 . S
C425 C424 1.391 . S
C426 H416 0.950 . S
C426 C427 1.386 . S
C426 C428 1.391 . S
C427 C426 1.386 . S
C427 C431 1.393 . S
C428 H417 0.950 . S
C428 C426 1.391 . S
C428 C429 1.400 1_556 S
C429 C423 1.491 . S
C429 C428 1.400 1_554 S
C429 C430 1.398 . S
C430 H418 0.950 . S
C430 C429 1.398 . S
C430 C431 1.391 1_554 S
C431 H419 0.950 . S
C431 C427 1.393 . S
C431 C430 1.391 1_556 S
H432 C440 0.950 . S
H433 C445 0.950 . S
H434 C442 0.950 . S
H435 C444 0.950 . S
H436 C446 0.950 . S
H437 C448 0.950 . S
H438 C450 0.950 . S
H439 C451 0.950 . S
C440 H432 0.950 . S
C440 C441 1.386 . S
C440 C442 1.391 . S
C441 C440 1.386 . S
C441 C445 1.393 . S
C442 H434 0.950 . S
C442 C440 1.391 . S
C442 C443 1.400 . S
C443 C442 1.400 . S
C443 C444 1.398 . S
C443 C449 1.491 . S
C444 H435 0.950 . S
C444 C443 1.398 . S
C444 C445 1.391 . S
C445 H433 0.950 . S
C445 C441 1.393 . S
C445 C444 1.391 . S
C446 H436 0.950 . S
C446 C447 1.386 . S
C446 C448 1.391 . S
C447 C446 1.386 . S
C447 C451 1.393 . S
C448 H437 0.950 . S
C448 C446 1.391 . S
C448 C449 1.400 1_556 S
C449 C443 1.491 . S
C449 C448 1.400 1_554 S
C449 C450 1.398 . S
C450 H438 0.950 . S
C450 C449 1.398 . S
C450 C451 1.391 1_554 S
C451 H439 0.950 . S
C451 C447 1.393 . S
C451 C450 1.391 1_556 S
H452 C460 0.950 . S
H453 C465 0.950 . S
H454 C462 0.950 . S
H455 C464 0.950 . S
H456 C466 0.950 . S
H457 C468 0.950 . S
H458 C470 0.950 . S
H459 C471 0.948 1_554 S
C460 H452 0.950 . S
C460 C461 1.405 . S
C460 C462 1.391 . S
C461 C460 1.405 . S
C461 C465 1.376 1_655 S
C462 H454 0.950 . S
C462 C460 1.391 . S
C462 C463 1.416 . S
C463 C462 1.416 . S
C463 C464 1.385 1_655 S
C463 C469 1.490 . S
C464 H455 0.950 . S
C464 C463 1.385 1_455 S
C464 C465 1.391 . S
C465 H453 0.950 . S
C465 C461 1.376 1_455 S
C465 C464 1.391 . S
C466 H456 0.950 . S
C466 C467 1.387 1_455 S
C466 C468 1.391 . S
C467 C466 1.387 1_655 S
C467 C471 1.400 . S
C468 H457 0.950 . S
C468 C466 1.391 . S
C468 C469 1.399 1_456 S
C469 C463 1.490 . S
C469 C468 1.399 1_654 S
C469 C470 1.400 . S
C470 H458 0.950 . S
C470 C469 1.400 . S
C470 C471 1.384 1_554 S
C471 H459 0.948 1_556 S
C471 C467 1.400 . S
C471 C470 1.384 1_556 S
H472 C480 0.950 . S
H473 C485 0.950 . S
H474 C482 0.950 . S
H475 C484 0.950 . S
H476 C486 0.950 . S
H477 C488 0.950 . S
H478 C490 0.950 1_455 S
H479 C491 0.950 . S
C480 H472 0.950 . S
C480 C481 1.386 . S
C480 C482 1.391 . S
C481 C480 1.386 . S
C481 C485 1.393 1_455 S
C482 H474 0.950 . S
C482 C480 1.391 . S
C482 C483 1.400 1_455 S
C483 C482 1.400 1_655 S
C483 C484 1.398 . S
C483 C489 1.491 . S
C484 H475 0.950 . S
C484 C483 1.398 . S
C484 C485 1.391 . S
C485 H473 0.950 . S
C485 C481 1.393 1_655 S
C485 C484 1.391 . S
C486 H476 0.950 . S
C486 C487 1.386 . S
C486 C488 1.391 . S
C487 C486 1.386 . S
C487 C491 1.393 . S
C488 H477 0.950 . S
C488 C486 1.391 . S
C488 C489 1.400 . S
C489 C483 1.491 . S
C489 C488 1.400 . S
C489 C490 1.398 . S
C490 H478 0.950 1_655 S
C490 C489 1.398 . S
C490 C491 1.391 . S
C491 H479 0.950 . S
C491 C487 1.393 . S
C491 C490 1.391 . S
H492 C500 0.950 . S
H493 C505 0.950 . S
H494 C502 0.950 . S
H495 C504 0.950 . S
H496 C506 0.950 . S
H497 C508 0.950 . S
H498 C510 0.929 1_545 S
H499 C511 0.950 1_545 S
C500 H492 0.950 . S
C500 C501 1.395 . S
C500 C502 1.391 . S
C501 C500 1.395 . S
C501 C505 1.380 1_545 S
C502 H494 0.950 . S
C502 C500 1.391 . S
C502 C503 1.400 1_545 S
C503 C502 1.400 1_565 S
C503 C504 1.398 . S
C503 C509 1.491 . S
C504 H495 0.950 . S
C504 C503 1.398 . S
C504 C505 1.391 . S
C505 H493 0.950 . S
C505 C501 1.380 1_565 S
C505 C504 1.391 . S
C506 H496 0.950 . S
C506 C507 1.386 . S
C506 C508 1.391 . S
C507 C506 1.386 . S
C507 C511 1.393 . S
C508 H497 0.950 . S
C508 C506 1.391 . S
C508 C509 1.400 . S
C509 C503 1.491 . S
C509 C508 1.400 . S
C509 C510 1.413 . S
C510 H498 0.929 1_565 S
C510 C509 1.413 . S
C510 C511 1.396 . S
C511 H499 0.950 1_565 S
C511 C507 1.393 . S
C511 C510 1.396 . S
H512 C520 0.950 . S
H513 C525 0.950 . S
H514 C522 0.950 . S
H515 C524 0.950 . S
H516 C526 0.950 . S
H517 C528 0.950 . S
H518 C530 0.950 . S
H519 C531 0.950 . S
C520 H512 0.950 . S
C520 C521 1.386 . S
C520 C522 1.391 . S
C521 C520 1.386 . S
C521 C525 1.393 . S
C522 H514 0.950 . S
C522 C520 1.391 . S
C522 C523 1.400 . S
C523 C522 1.400 . S
C523 C524 1.398 . S
C523 C529 1.491 . S
C524 H515 0.950 . S
C524 C523 1.398 . S
C524 C525 1.391 . S
C525 H513 0.950 . S
C525 C521 1.393 . S
C525 C524 1.391 . S
C526 H516 0.950 . S
C526 C527 1.386 . S
C526 C528 1.391 . S
C527 C526 1.386 . S
C527 C531 1.393 . S
C528 H517 0.950 . S
C528 C526 1.391 . S
C528 C529 1.400 . S
C529 C523 1.491 . S
C529 C528 1.400 . S
C529 C530 1.398 . S
C530 H518 0.950 . S
C530 C529 1.398 . S
C530 C531 1.391 . S
C531 H519 0.950 . S
C531 C527 1.393 . S
C531 C530 1.391 . S
H532 C540 0.950 . S
H533 C545 0.950 . S
H534 C542 0.950 . S
H535 C544 0.950 . S
H536 C546 0.950 . S
H537 C548 0.950 . S
H538 C550 0.950 . S
H539 C551 0.950 . S
C540 H532 0.950 . S
C540 C541 1.386 . S
C540 C542 1.391 . S
C541 C540 1.386 . S
C541 C545 1.393 . S
C542 H534 0.950 . S
C542 C540 1.391 . S
C542 C543 1.400 . S
C543 C542 1.400 . S
C543 C544 1.398 . S
C543 C549 1.491 . S
C544 H535 0.950 . S
C544 C543 1.398 . S
C544 C545 1.391 . S
C545 H533 0.950 . S
C545 C541 1.393 . S
C545 C544 1.391 . S
C546 H536 0.950 . S
C546 C547 1.386 . S
C546 C548 1.391 . S
C547 C546 1.386 . S
C547 C551 1.393 . S
C548 H537 0.950 . S
C548 C546 1.391 . S
C548 C549 1.400 . S
C549 C543 1.491 . S
C549 C548 1.400 . S
C549 C550 1.398 . S
C550 H538 0.950 . S
C550 C549 1.398 . S
C550 C551 1.391 . S
C551 H539 0.950 . S
C551 C547 1.393 . S
C551 C550 1.391 . S
H552 C560 0.950 . S
H553 C565 0.950 . S
H554 C562 0.950 . S
H555 C564 0.950 . S
H556 C566 0.950 . S
H557 C568 0.950 . S
H558 C570 0.950 . S
H559 C571 0.950 1_655 S
C560 H552 0.950 . S
C560 C561 1.412 . S
C560 C562 1.391 . S
C561 C560 1.412 . S
C561 C565 1.359 1_655 S
C562 H554 0.950 . S
C562 C560 1.391 . S
C562 C563 1.400 1_655 S
C563 C562 1.400 1_455 S
C563 C564 1.398 . S
C563 C569 1.491 . S
C564 H555 0.950 . S
C564 C563 1.398 . S
C564 C565 1.391 . S
C565 H553 0.950 . S
C565 C561 1.359 1_455 S
C565 C564 1.391 . S
C566 H556 0.950 . S
C566 C567 1.386 . S
C566 C568 1.391 . S
C567 C566 1.386 . S
C567 C571 1.393 . S
C568 H557 0.950 . S
C568 C566 1.391 . S
C568 C569 1.400 . S
C569 C563 1.491 . S
C569 C568 1.400 . S
C569 C570 1.398 1_455 S
C570 H558 0.950 . S
C570 C569 1.398 1_655 S
C570 C571 1.391 1_655 S
C571 H559 0.950 1_455 S
C571 C567 1.393 . S
C571 C570 1.391 1_455 S
H572 C580 0.950 . S
H573 C585 0.950 . S
H574 C582 0.950 . S
H575 C584 0.950 . S
H576 C586 0.950 1_565 S
H577 C588 0.950 . S
H578 C590 0.950 . S
H579 C591 0.950 . S
C580 H572 0.950 . S
C580 C581 1.363 1_545 S
C580 C582 1.391 . S
C581 C580 1.363 1_565 S
C581 C585 1.410 . S
C582 H574 0.950 . S
C582 C580 1.391 . S
C582 C583 1.400 . S
C583 C582 1.400 . S
C583 C584 1.398 1_545 S
C583 C589 1.491 . S
C584 H575 0.950 . S
C584 C583 1.398 1_565 S
C584 C585 1.391 . S
C585 H573 0.950 . S
C585 C581 1.410 . S
C585 C584 1.391 . S
C586 H576 0.950 1_545 S
C586 C587 1.386 . S
C586 C588 1.391 1_545 S
C587 C586 1.386 . S
C587 C591 1.393 . S
C588 H577 0.950 . S
C588 C586 1.391 1_565 S
C588 C589 1.400 1_565 S
C589 C583 1.491 . S
C589 C588 1.400 1_545 S
C589 C590 1.398 . S
C590 H578 0.950 . S
C590 C589 1.398 . S
C590 C591 1.391 . S
C591 H579 0.950 . S
C591 C587 1.393 . S
C591 C590 1.391 . S
H592 C600 0.950 . S
H593 C605 0.950 . S
H594 C602 0.950 . S
H595 C604 0.950 . S
H596 C606 0.950 . S
H597 C608 0.950 . S
H598 C610 0.950 . S
H599 C611 0.950 . S
C600 H592 0.950 . S
C600 C601 1.386 . S
C600 C602 1.391 . S
C601 C600 1.386 . S
C601 C605 1.393 . S
C602 H594 0.950 . S
C602 C600 1.391 . S
C602 C603 1.400 . S
C603 C602 1.400 . S
C603 C604 1.398 . S
C603 C609 1.491 . S
C604 H595 0.950 . S
C604 C603 1.398 . S
C604 C605 1.391 . S
C605 H593 0.950 . S
C605 C601 1.393 . S
C605 C604 1.391 . S
C606 H596 0.950 . S
C606 C607 1.386 . S
C606 C608 1.391 . S
C607 C606 1.386 . S
C607 C611 1.393 . S
C608 H597 0.950 . S
C608 C606 1.391 . S
C608 C609 1.400 . S
C609 C603 1.491 . S
C609 C608 1.400 . S
C609 C610 1.398 . S
C610 H598 0.950 . S
C610 C609 1.398 . S
C610 C611 1.391 . S
C611 H599 0.950 . S
C611 C607 1.393 . S
C611 C610 1.391 . S
H612 C620 0.950 . S
H613 C625 0.950 . S
H614 C622 0.950 . S
H615 C624 0.950 . S
H616 C626 0.950 . S
H617 C628 0.950 . S
H618 C630 0.950 . S
H619 C631 0.950 . S
C620 H612 0.950 . S
C620 C621 1.386 . S
C620 C622 1.391 . S
C621 C620 1.386 . S
C621 C625 1.393 . S
C622 H614 0.950 . S
C622 C620 1.391 . S
C622 C623 1.400 . S
C623 C622 1.400 . S
C623 C624 1.398 . S
C623 C629 1.491 . S
C624 H615 0.950 . S
C624 C623 1.398 . S
C624 C625 1.391 . S
C625 H613 0.950 . S
C625 C621 1.393 . S
C625 C624 1.391 . S
C626 H616 0.950 . S
C626 C627 1.386 . S
C626 C628 1.391 . S
C627 C626 1.386 . S
C627 C631 1.393 . S
C628 H617 0.950 . S
C628 C626 1.391 . S
C628 C629 1.400 . S
C629 C623 1.491 . S
C629 C628 1.400 . S
C629 C630 1.398 . S
C630 H618 0.950 . S
C630 C629 1.398 . S
C630 C631 1.391 . S
C631 H619 0.950 . S
C631 C627 1.393 . S
C631 C630 1.391 . S
H632 C640 0.950 . S
H633 C645 0.950 . S
H634 C642 0.950 . S
H635 C644 0.950 . S
H636 C646 0.950 . S
H637 C648 0.950 . S
H638 C650 0.947 1_655 S
H639 C651 0.954 . S
C640 H632 0.950 . S
C640 C641 1.382 1_655 S
C640 C642 1.391 . S
C641 C640 1.382 1_455 S
C641 C645 1.398 . S
C642 H634 0.950 . S
C642 C640 1.391 . S
C642 C643 1.400 1_655 S
C643 C642 1.400 1_455 S
C643 C644 1.398 . S
C643 C649 1.491 . S
C644 H635 0.950 . S
C644 C643 1.398 . S
C644 C645 1.391 . S
C645 H633 0.950 . S
C645 C641 1.398 . S
C645 C644 1.391 . S
C646 H636 0.950 . S
C646 C647 1.386 . S
C646 C648 1.391 . S
C647 C646 1.386 . S
C647 C651 1.393 . S
C648 H637 0.950 . S
C648 C646 1.391 . S
C648 C649 1.400 . S
C649 C643 1.491 . S
C649 C648 1.400 . S
C649 C650 1.398 . S
C650 H638 0.947 1_455 S
C650 C649 1.398 . S
C650 C651 1.391 . S
C651 H639 0.954 . S
C651 C647 1.393 . S
C651 C650 1.391 . S
H652 C660 0.950 . S
H653 C665 0.950 . S
H654 C662 0.950 . S
H655 C664 0.950 . S
H656 C666 0.954 . S
H657 C668 0.950 . S
H658 C670 0.950 . S
H659 C671 0.950 . S
C660 H652 0.950 . S
C660 C661 1.386 . S
C660 C662 1.391 . S
C661 C660 1.386 . S
C661 C665 1.393 1_545 S
C662 H654 0.950 . S
C662 C660 1.391 . S
C662 C663 1.400 . S
C663 C662 1.400 . S
C663 C664 1.398 1_545 S
C663 C669 1.491 . S
C664 H655 0.950 . S
C664 C663 1.398 1_565 S
C664 C665 1.391 . S
C665 H653 0.950 . S
C665 C661 1.393 1_565 S
C665 C664 1.391 . S
C666 H656 0.954 . S
C666 C667 1.381 1_565 S
C666 C668 1.392 . S
C667 C666 1.381 1_545 S
C667 C671 1.393 . S
C668 H657 0.950 . S
C668 C666 1.392 . S
C668 C669 1.400 1_565 S
C669 C663 1.491 . S
C669 C668 1.400 1_545 S
C669 C670 1.398 . S
C670 H658 0.950 . S
C670 C669 1.398 . S
C670 C671 1.391 . S
C671 H659 0.950 . S
C671 C667 1.393 . S
C671 C670 1.391 . S
H672 C680 0.950 . S
H673 C685 0.961 . S
H674 C682 0.950 . S
H675 C684 0.950 . S
H676 C686 0.950 . S
H677 C688 0.950 . S
H678 C690 0.950 . S
H679 C691 0.950 . S
C680 H672 0.950 . S
C680 C681 1.386 . S
C680 C682 1.391 . S
C681 C680 1.386 . S
C681 C685 1.393 . S
C682 H674 0.950 . S
C682 C680 1.391 . S
C682 C683 1.400 . S
C683 C682 1.400 . S
C683 C684 1.398 . S
C683 C689 1.491 . S
C684 H675 0.950 . S
C684 C683 1.398 . S
C684 C685 1.391 . S
C685 H673 0.961 . S
C685 C681 1.393 . S
C685 C684 1.391 . S
C686 H676 0.950 . S
C686 C687 1.386 . S
C686 C688 1.391 . S
C687 C686 1.386 . S
C687 C691 1.393 . S
C688 H677 0.950 . S
C688 C686 1.391 . S
C688 C689 1.400 . S
C689 C683 1.491 . S
C689 C688 1.400 . S
C689 C690 1.398 . S
C690 H678 0.950 . S
C690 C689 1.398 . S
C690 C691 1.391 . S
C691 H679 0.950 . S
C691 C687 1.393 . S
C691 C690 1.391 . S
H692 C700 0.950 . S
H693 C705 0.950 . S
H694 C702 0.950 . S
H695 C704 0.950 . S
H696 C706 0.950 . S
H697 C708 0.950 . S
H698 C710 0.950 . S
H699 C711 0.950 . S
C700 H692 0.950 . S
C700 C701 1.386 . S
C700 C702 1.391 . S
C701 C700 1.386 . S
C701 C705 1.393 . S
C702 H694 0.950 . S
C702 C700 1.391 . S
C702 C703 1.400 . S
C703 C702 1.400 . S
C703 C704 1.398 . S
C703 C709 1.491 . S
C704 H695 0.950 . S
C704 C703 1.398 . S
C704 C705 1.391 . S
C705 H693 0.950 . S
C705 C701 1.393 . S
C705 C704 1.391 . S
C706 H696 0.950 . S
C706 C707 1.386 . S
C706 C708 1.391 . S
C707 C706 1.386 . S
C707 C711 1.393 . S
C708 H697 0.950 . S
C708 C706 1.391 . S
C708 C709 1.400 . S
C709 C703 1.491 . S
C709 C708 1.400 . S
C709 C710 1.398 . S
C710 H698 0.950 . S
C710 C709 1.398 . S
C710 C711 1.391 . S
C711 H699 0.950 . S
C711 C707 1.393 . S
C711 C710 1.391 . S
H712 C720 0.950 . S
H713 C725 0.950 . S
H714 C722 0.950 . S
H715 C724 0.950 . S
H716 C726 0.950 . S
H717 C728 0.950 . S
H718 C730 0.950 . S
H719 C731 0.950 . S
C720 H712 0.950 . S
C720 C721 1.404 . S
C720 C722 1.391 . S
C721 C720 1.404 . S
C721 C725 1.376 1_655 S
C722 H714 0.950 . S
C722 C720 1.391 . S
C722 C723 1.400 . S
C723 C722 1.400 . S
C723 C724 1.398 1_655 S
C723 C729 1.491 . S
C724 H715 0.950 . S
C724 C723 1.398 1_455 S
C724 C725 1.391 . S
C725 H713 0.950 . S
C725 C721 1.376 1_455 S
C725 C724 1.391 . S
C726 H716 0.950 . S
C726 C727 1.386 1_455 S
C726 C728 1.391 . S
C727 C726 1.386 1_655 S
C727 C731 1.393 . S
C728 H717 0.950 . S
C728 C726 1.391 . S
C728 C729 1.400 1_455 S
C729 C723 1.491 . S
C729 C728 1.400 1_655 S
C729 C730 1.398 . S
C730 H718 0.950 . S
C730 C729 1.398 . S
C730 C731 1.391 . S
C731 H719 0.950 . S
C731 C727 1.393 . S
C731 C730 1.391 . S
H732 C740 0.950 . S
H733 C745 0.950 . S
H734 C742 0.950 . S
H735 C744 0.950 . S
H736 C746 0.950 . S
H737 C748 0.950 . S
H738 C750 0.950 . S
H739 C751 0.953 . S
C740 H732 0.950 . S
C740 C741 1.380 1_545 S
C740 C742 1.391 . S
C741 C740 1.380 1_565 S
C741 C745 1.399 . S
C742 H734 0.950 . S
C742 C740 1.391 . S
C742 C743 1.400 1_545 S
C743 C742 1.400 1_565 S
C743 C744 1.398 . S
C743 C749 1.491 . S
C744 H735 0.950 . S
C744 C743 1.398 . S
C744 C745 1.391 . S
C745 H733 0.950 . S
C745 C741 1.399 . S
C745 C744 1.391 . S
C746 H736 0.950 . S
C746 C747 1.386 . S
C746 C748 1.391 . S
C747 C746 1.386 . S
C747 C751 1.389 1_565 S
C748 H737 0.950 . S
C748 C746 1.391 . S
C748 C749 1.400 . S
C749 C743 1.491 . S
C749 C748 1.400 . S
C749 C750 1.398 1_565 S
C750 H738 0.950 . S
C750 C749 1.398 1_545 S
C750 C751 1.391 . S
C751 H739 0.953 . S
C751 C747 1.389 1_545 S
C751 C750 1.391 . S
H752 C760 0.950 . S
H753 C765 0.950 . S
H754 C762 0.950 . S
H755 C764 0.950 . S
H756 C766 0.950 . S
H757 C768 0.950 . S
H758 C770 0.950 . S
H759 C771 0.950 . S
C760 H752 0.950 . S
C760 C761 1.386 . S
C760 C762 1.391 . S
C761 C760 1.386 . S
C761 C765 1.393 . S
C762 H754 0.950 . S
C762 C760 1.391 . S
C762 C763 1.400 . S
C763 C762 1.400 . S
C763 C764 1.398 . S
C763 C769 1.491 . S
C764 H755 0.950 . S
C764 C763 1.398 . S
C764 C765 1.391 . S
C765 H753 0.950 . S
C765 C761 1.393 . S
C765 C764 1.391 . S
C766 H756 0.950 . S
C766 C767 1.386 . S
C766 C768 1.391 . S
C767 C766 1.386 . S
C767 C771 1.393 . S
C768 H757 0.950 . S
C768 C766 1.391 . S
C768 C769 1.400 . S
C769 C763 1.491 . S
C769 C768 1.400 . S
C769 C770 1.398 . S
C770 H758 0.950 . S
C770 C769 1.398 . S
C770 C771 1.391 . S
C771 H759 0.950 . S
C771 C767 1.393 . S
C771 C770 1.391 . S
H772 C780 0.950 . S
H773 C785 0.950 . S
H774 C782 0.950 . S
H775 C784 0.950 . S
H776 C786 0.950 . S
H777 C788 0.950 . S
H778 C790 0.950 . S
H779 C791 0.950 . S
C780 H772 0.950 . S
C780 C781 1.386 . S
C780 C782 1.391 . S
C781 C780 1.386 . S
C781 C785 1.393 . S
C782 H774 0.950 . S
C782 C780 1.391 . S
C782 C783 1.400 . S
C783 C782 1.400 . S
C783 C784 1.398 . S
C783 C789 1.491 . S
C784 H775 0.950 . S
C784 C783 1.398 . S
C784 C785 1.391 . S
C785 H773 0.950 . S
C785 C781 1.393 . S
C785 C784 1.391 . S
C786 H776 0.950 . S
C786 C787 1.386 . S
C786 C788 1.391 . S
C787 C786 1.386 . S
C787 C791 1.393 . S
C788 H777 0.950 . S
C788 C786 1.391 . S
C788 C789 1.400 . S
C789 C783 1.491 . S
C789 C788 1.400 . S
C789 C790 1.398 . S
C790 H778 0.950 . S
C790 C789 1.398 . S
C790 C791 1.391 . S
C791 H779 0.950 . S
C791 C787 1.393 . S
C791 C790 1.391 . S
C321 C125 1.917 1_545 S
C327 C154 1.957 . S
C347 C194 1.970 . S
C341 C144 1.927 . S
C367 C234 1.971 . S
C361 C87 1.935 . S
C387 C274 1.967 1_455 S
C381 C106 1.923 1_455 S
C407 C167 1.963 1_565 S
C401 C49 1.924 1_545 S
C421 C68 1.918 . S
C427 C207 1.973 . S
C441 C11 1.919 . S
C447 C247 1.972 . S
C461 C30 1.922 . S
C467 C287 1.967 1_655 S
C487 C178 0.509 . S
C481 C97 0.579 . S
C507 C218 0.492 . S
C501 C116 0.569 . S
C527 C258 0.526 . S
C521 C135 0.581 . S
C541 C78 0.520 . S
C547 C298 0.487 . S
C561 C21 0.510 . S
C567 C161 0.496 . S
C587 C201 0.499 . S
C581 C40 0.582 . S
C607 C241 0.519 . S
C601 C59 0.592 . S
C621 C2 0.529 . S
C627 C281 0.518 . S
C641 C101 2.065 1_455 S
C647 C155 2.285 . S
C661 C120 2.039 1_545 S
C667 C195 2.268 . S
C687 C235 2.261 . S
C681 C139 2.035 . S
C707 C275 2.282 . S
C701 C82 2.062 . S
C721 C25 2.068 . S
C727 C174 2.297 . S
C747 C214 2.273 . S
C741 C44 2.038 . S
C767 C254 2.260 . S
C761 C63 2.021 . S
C781 C6 2.044 . S
C787 C294 2.286 . S
