# Generated by pormake.
# Topology hwx, (6,3)-cn, num edge types: 1
# Building blocks:
#     Node 0, Type 0, BuildingBlock: IZENUY_clean_sbu_0, # of connection points: 6
#     Node 1, Type 0, BuildingBlock: IZENUY_clean_sbu_0, # of connection points: 6
#     Node 2, Type 0, BuildingBlock: IZENUY_clean_sbu_0, # of connection points: 6
#     Node 3, Type 0, BuildingBlock: IZENUY_clean_sbu_0, # of connection points: 6
#     Node 4, Type 1, BuildingBlock: MIDCAF_clean_linker_0, # of connection points: 3
#     Node 5, Type 1, BuildingBlock: MIDCAF_clean_linker_0, # of connection points: 3
#     Node 6, Type 1, BuildingBlock: MIDCAF_clean_linker_0, # of connection points: 3
#     Node 7, Type 1, BuildingBlock: MIDCAF_clean_linker_0, # of connection points: 3
#     Node 8, Type 1, BuildingBlock: MIDCAF_clean_linker_0, # of connection points: 3
#     Node 9, Type 1, BuildingBlock: MIDCAF_clean_linker_0, # of connection points: 3
#     Node 10, Type 1, BuildingBlock: MIDCAF_clean_linker_0, # of connection points: 3
#     Node 11, Type 1, BuildingBlock: MIDCAF_clean_linker_0, # of connection points: 3
#     Edge 12, Type (0, 1), BuildingBlock: XIVTED_clean_linker_0, # of connection points: 2
#     Edge 13, Type (0, 1), BuildingBlock: XIVTED_clean_linker_0, # of connection points: 2
#     Edge 14, Type (0, 1), BuildingBlock: XIVTED_clean_linker_0, # of connection points: 2
#     Edge 15, Type (0, 1), BuildingBlock: XIVTED_clean_linker_0, # of connection points: 2
#     Edge 16, Type (0, 1), BuildingBlock: XIVTED_clean_linker_0, # of connection points: 2
#     Edge 17, Type (0, 1), BuildingBlock: XIVTED_clean_linker_0, # of connection points: 2
#     Edge 18, Type (0, 1), BuildingBlock: XIVTED_clean_linker_0, # of connection points: 2
#     Edge 19, Type (0, 1), BuildingBlock: XIVTED_clean_linker_0, # of connection points: 2
#     Edge 20, Type (0, 1), BuildingBlock: XIVTED_clean_linker_0, # of connection points: 2
#     Edge 21, Type (0, 1), BuildingBlock: XIVTED_clean_linker_0, # of connection points: 2
#     Edge 22, Type (0, 1), BuildingBlock: XIVTED_clean_linker_0, # of connection points: 2
#     Edge 23, Type (0, 1), BuildingBlock: XIVTED_clean_linker_0, # of connection points: 2
#     Edge 24, Type (0, 1), BuildingBlock: XIVTED_clean_linker_0, # of connection points: 2
#     Edge 25, Type (0, 1), BuildingBlock: XIVTED_clean_linker_0, # of connection points: 2
#     Edge 26, Type (0, 1), BuildingBlock: XIVTED_clean_linker_0, # of connection points: 2
#     Edge 27, Type (0, 1), BuildingBlock: XIVTED_clean_linker_0, # of connection points: 2
#     Edge 28, Type (0, 1), BuildingBlock: XIVTED_clean_linker_0, # of connection points: 2
#     Edge 29, Type (0, 1), BuildingBlock: XIVTED_clean_linker_0, # of connection points: 2
#     Edge 30, Type (0, 1), BuildingBlock: XIVTED_clean_linker_0, # of connection points: 2
#     Edge 31, Type (0, 1), BuildingBlock: XIVTED_clean_linker_0, # of connection points: 2
#     Edge 32, Type (0, 1), BuildingBlock: XIVTED_clean_linker_0, # of connection points: 2
#     Edge 33, Type (0, 1), BuildingBlock: XIVTED_clean_linker_0, # of connection points: 2
#     Edge 34, Type (0, 1), BuildingBlock: XIVTED_clean_linker_0, # of connection points: 2
#     Edge 35, Type (0, 1), BuildingBlock: XIVTED_clean_linker_0, # of connection points: 2
# Relax obj value: 0.053
# Max RMSD: 0.077
# Mean RMSD: 0.069
data_MOF--net-hwx--node1-IZENUY_clean_sbu_0--node2-MIDCAF_clean_linker_0--edge1-XIVTED_clean_linker_0
_symmetry_space_group_name_H-M    P1
_symmetry_Int_Tables_number       1
_symmetry_cell_setting            triclinic
loop_
_symmetry_equiv_pos_as_xyz
'x, y, z'
_cell_length_a     57.703052
_cell_length_b     57.541509
_cell_length_c     28.037182
_cell_angle_alpha  89.892951
_cell_angle_beta   90.166591
_cell_angle_gamma 90.000312
loop_
_atom_site_label
_atom_site_type_symbol
_atom_site_fract_x
_atom_site_fract_y
_atom_site_fract_z
_atom_type_partial_charge
Fe0 Fe 0.23578 0.20898 0.05035 0.0
Fe1 Fe 0.23726 0.20763 0.94107 0.0
O2 O 0.23135 0.1938 0.99628 0.0
Fe3 Fe 0.22097 0.16482 0.99749 0.0
O4 O 0.20311 0.16877 0.051 0.0
O5 O 0.20553 0.20611 0.06638 0.0
O6 O 0.22838 0.23759 0.02576 0.0
C7 C 0.21679 0.24335 0.98921 0.0
C8 C 0.25133 0.1634 0.07231 0.0
O9 O 0.21636 0.23052 0.95277 0.0
C10 C 0.25448 0.1643 0.92346 0.0
O11 O 0.26633 0.21286 0.03763 0.0
O12 O 0.2613 0.22528 0.96414 0.0
O13 O 0.24566 0.15502 0.03242 0.0
O14 O 0.24393 0.18315 0.08506 0.0
C15 C 0.19629 0.18205 0.92217 0.0
O16 O 0.25854 0.18581 0.92546 0.0
O17 O 0.237 0.15562 0.94421 0.0
C18 C 0.27404 0.22264 0.00062 0.0
O19 O 0.21439 0.19236 0.90799 0.0
O20 O 0.19551 0.17264 0.96276 0.0
C21 C 0.19497 0.187 0.06983 0.0
Fe22 Fe 0.26234 0.70758 0.55979 0.0
Fe23 Fe 0.28093 0.66475 0.50706 0.0
O24 O 0.26844 0.69293 0.50576 0.0
Fe25 Fe 0.26201 0.70653 0.45058 0.0
O26 O 0.26795 0.7361 0.47176 0.0
O27 O 0.28158 0.73145 0.54443 0.0
O28 O 0.28649 0.6947 0.59291 0.0
C29 C 0.30519 0.68543 0.57921 0.0
C30 C 0.22383 0.71903 0.5017 0.0
O31 O 0.3062 0.67505 0.5397 0.0
C32 C 0.24939 0.65953 0.43479 0.0
O33 O 0.24269 0.68472 0.57862 0.0
O34 O 0.26623 0.6558 0.56207 0.0
O35 O 0.23146 0.70883 0.46519 0.0
O36 O 0.23702 0.72317 0.53677 0.0
C37 C 0.30396 0.68681 0.43013 0.0
O38 O 0.25669 0.65232 0.47459 0.0
O39 O 0.25489 0.67947 0.41941 0.0
C40 C 0.24819 0.66356 0.58222 0.0
O41 O 0.29771 0.66866 0.45219 0.0
O42 O 0.29209 0.70519 0.43219 0.0
C43 C 0.27958 0.74352 0.50698 0.0
Fe44 Fe 0.76245 0.80246 0.94316 0.0
Fe45 Fe 0.76221 0.80383 0.05239 0.0
O46 O 0.76863 0.81723 0.99708 0.0
Fe47 Fe 0.7812 0.84537 0.99556 0.0
O48 O 0.76665 0.85418 0.94014 0.0
O49 O 0.74293 0.82536 0.92379 0.0
O50 O 0.73701 0.78709 0.96606 0.0
C51 C 0.72393 0.79134 0.00108 0.0
C52 C 0.80548 0.82425 0.92428 0.0
O53 O 0.73165 0.80156 0.03754 0.0
C54 C 0.80415 0.82356 0.07309 0.0
O55 O 0.78153 0.77853 0.95898 0.0
O56 O 0.76806 0.77416 0.03168 0.0
O57 O 0.80648 0.83485 0.96357 0.0
O58 O 0.78672 0.8151 0.91028 0.0
C59 C 0.74955 0.85089 0.06714 0.0
O60 O 0.79231 0.80516 0.07105 0.0
O61 O 0.79787 0.84165 0.0508 0.0
C62 C 0.7795 0.76655 0.9965 0.0
O63 O 0.75513 0.83104 0.08306 0.0
O64 O 0.75691 0.85794 0.02735 0.0
C65 C 0.74856 0.84647 0.91994 0.0
Fe66 Fe 0.71912 0.34296 0.50584 0.0
Fe67 Fe 0.73541 0.29887 0.55873 0.0
O68 O 0.72974 0.31401 0.50481 0.0
Fe69 Fe 0.73472 0.30005 0.44956 0.0
O70 O 0.74243 0.32657 0.41734 0.0
O71 O 0.7438 0.35373 0.47202 0.0
O72 O 0.73501 0.35119 0.56004 0.0
C73 C 0.75216 0.34206 0.58126 0.0
C74 C 0.69367 0.32185 0.43069 0.0
O75 O 0.75623 0.32057 0.57792 0.0
C76 C 0.71603 0.26393 0.5062 0.0
O77 O 0.69363 0.3345 0.5398 0.0
O78 O 0.71214 0.31286 0.59213 0.0
O79 O 0.70447 0.3028 0.43279 0.0
O80 O 0.70136 0.33976 0.45174 0.0
C81 C 0.77295 0.28611 0.49957 0.0
O82 O 0.71488 0.27598 0.54367 0.0
O83 O 0.72794 0.27081 0.47113 0.0
C84 C 0.69419 0.32379 0.5791 0.0
O85 O 0.75992 0.28226 0.53499 0.0
O86 O 0.76531 0.29649 0.46307 0.0
C87 C 0.74974 0.34604 0.43176 0.0
C88 C 0.18324 0.56971 0.13598 0.0
C89 C 0.18503 0.55772 0.17957 0.0
C90 C 0.18223 0.53343 0.17969 0.0
C91 C 0.17807 0.52142 0.13708 0.0
H92 H 0.18141 0.45561 0.0754 0.0
H93 H 0.18388 0.41355 0.0711 0.0
H94 H 0.16089 0.41581 0.92427 0.0
H95 H 0.15925 0.45803 0.92807 0.0
H96 H 0.17116 0.50607 0.87112 0.0
H97 H 0.17722 0.52855 0.79841 0.0
H98 H 0.18064 0.59159 0.88162 0.0
H99 H 0.17403 0.56939 0.95384 0.0
H100 H 0.17813 0.56773 0.06083 0.0
H101 H 0.18574 0.58834 0.13424 0.0
H102 H 0.18329 0.52368 0.2127 0.0
H103 H 0.17624 0.5027 0.13837 0.0
N104 N 0.17235 0.49736 0.04611 0.0
N105 N 0.16988 0.49859 0.96248 0.0
N106 N 0.17292 0.53311 0.00606 0.0
C107 C 0.17042 0.48605 0.00366 0.0
C108 C 0.17111 0.52216 0.96341 0.0
C109 C 0.17349 0.52095 0.04757 0.0
C110 C 0.17026 0.46028 0.00201 0.0
C111 C 0.17671 0.44717 0.04226 0.0
C112 C 0.178 0.42295 0.03985 0.0
C113 C 0.17262 0.41116 0.99728 0.0
C114 C 0.16557 0.42426 0.95739 0.0
C115 C 0.1645 0.44852 0.95967 0.0
C116 C 0.17234 0.53584 0.91854 0.0
C117 C 0.17288 0.52476 0.87388 0.0
C118 C 0.17648 0.53764 0.83217 0.0
C119 C 0.17959 0.56187 0.83417 0.0
C120 C 0.17805 0.57301 0.87859 0.0
C121 C 0.17444 0.56018 0.9202 0.0
C122 C 0.17664 0.53346 0.09343 0.0
C123 C 0.17904 0.55778 0.09361 0.0
C124 C 0.91573 0.84993 0.62358 0.0
C125 C 0.92411 0.84088 0.66683 0.0
C126 C 0.9472 0.83327 0.66955 0.0
C127 C 0.96116 0.83324 0.62874 0.0
H128 H 0.02323 0.80825 0.57584 0.0
H129 H 0.06106 0.78957 0.57563 0.0
H130 H 0.06518 0.79875 0.42288 0.0
H131 H 0.02716 0.81688 0.42277 0.0
H132 H 0.97608 0.81623 0.37003 0.0
H133 H 0.95258 0.81613 0.29747 0.0
H134 H 0.90257 0.86092 0.36533 0.0
H135 H 0.92592 0.86108 0.43787 0.0
H136 H 0.92222 0.85642 0.54998 0.0
H137 H 0.8981 0.85628 0.62075 0.0
H138 H 0.95406 0.82619 0.70253 0.0
H139 H 0.97854 0.82625 0.63139 0.0
N140 N 0.98731 0.82904 0.54034 0.0
N141 N 0.98743 0.82793 0.45665 0.0
N142 N 0.95469 0.84134 0.49719 0.0
C143 C -0.00148 0.8243 0.49883 0.0
C144 C 0.96555 0.83652 0.45554 0.0
C145 C 0.96539 0.8377 0.53976 0.0
C146 C 0.02205 0.81402 0.49931 0.0
C147 C 0.03221 0.80639 0.5422 0.0
C148 C 0.05397 0.79574 0.54212 0.0
C149 C 0.06612 0.79257 0.4992 0.0
C150 C 0.05611 0.80052 0.45645 0.0
C151 C 0.03434 0.81108 0.45648 0.0
C152 C 0.95279 0.83855 0.40987 0.0
C153 C 0.96025 0.82634 0.3693 0.0
C154 C 0.94675 0.82614 0.32784 0.0
C155 C 0.92573 0.83841 0.32592 0.0
C156 C 0.91879 0.85143 0.36572 0.0
C157 C 0.93211 0.8514 0.40735 0.0
C158 C 0.95223 0.84092 0.58463 0.0
C159 C 0.92962 0.85 0.58302 0.0
C160 C 0.82934 0.4352 0.87707 0.0
C161 C 0.81702 0.44385 0.83742 0.0
C162 C 0.80925 0.46706 0.83853 0.0
C163 C 0.81305 0.48094 0.8787 0.0
H164 H 0.81472 0.54967 0.92725 0.0
H165 H 0.81002 0.59172 0.92668 0.0
H166 H 0.82635 0.59386 0.07714 0.0
H167 H 0.83037 0.55183 0.07809 0.0
H168 H 0.80882 0.50182 0.13237 0.0
H169 H 0.80169 0.47899 0.20406 0.0
H170 H 0.83596 0.42012 0.13956 0.0
H171 H 0.84206 0.44264 0.06721 0.0
H172 H 0.84179 0.44153 0.94785 0.0
H173 H 0.83615 0.41767 0.87723 0.0
H174 H 0.7994 0.47433 0.80917 0.0
H175 H 0.80621 0.49847 0.87887 0.0
N176 N 0.82447 0.50911 0.96265 0.0
N177 N 0.82541 0.51007 0.04634 0.0
N178 N 0.82713 0.4744 0.0063 0.0
C179 C 0.82452 0.52154 0.00389 0.0
C180 C 0.82677 0.48652 0.0478 0.0
C181 C 0.82592 0.48553 0.96362 0.0
C182 C 0.82275 0.54727 0.00281 0.0
C183 C 0.8174 0.55909 0.96021 0.0
C184 C 0.81484 0.58327 0.9598 0.0
C185 C 0.81768 0.59623 0.00191 0.0
C186 C 0.82357 0.58443 0.04422 0.0
C187 C 0.82599 0.56027 0.0447 0.0
C188 C 0.82569 0.47393 0.09384 0.0
C189 C 0.81511 0.4841 0.13379 0.0
C190 C 0.81111 0.471 0.17506 0.0
C191 C 0.81788 0.44752 0.17749 0.0
C192 C 0.82986 0.43791 0.13856 0.0
C193 C 0.83351 0.45087 0.0971 0.0
C194 C 0.82435 0.47185 0.91906 0.0
C195 C 0.83275 0.44895 0.91753 0.0
C196 C 0.08138 0.16537 0.36097 0.0
C197 C 0.07316 0.17717 0.32042 0.0
C198 C 0.05182 0.18885 0.32277 0.0
C199 C 0.03918 0.18915 0.36525 0.0
H200 H 0.9732 0.19675 0.42195 0.0
H201 H 0.93429 0.21271 0.42274 0.0
H202 H 0.93881 0.22164 0.57547 0.0
H203 H 0.97771 0.20511 0.57499 0.0
H204 H 0.02177 0.17722 0.62987 0.0
H205 H 0.04529 0.17189 0.70187 0.0
H206 H 0.10695 0.16858 0.61489 0.0
H207 H 0.08372 0.17293 0.5439 0.0
H208 H 0.07604 0.15707 0.43439 0.0
H209 H 0.09789 0.15642 0.36033 0.0
H210 H 0.04502 0.19794 0.2919 0.0
H211 H 0.02301 0.19869 0.36622 0.0
N212 N 0.01353 0.18774 0.45461 0.0
N213 N 0.01472 0.18649 0.53836 0.0
N214 N 0.04737 0.17596 0.49378 0.0
C215 C 0.00281 0.1908 0.49725 0.0
C216 C 0.03708 0.17903 0.53678 0.0
C217 C 0.03578 0.18023 0.4526 0.0
C218 C 0.97871 0.1997 0.49842 0.0
C219 C 0.96596 0.20204 0.45583 0.0
C220 C 0.94364 0.21135 0.45618 0.0
C221 C 0.93349 0.21865 0.49908 0.0
C222 C 0.94605 0.21599 0.54184 0.0
C223 C 0.9684 0.20658 0.54153 0.0
C224 C 0.05079 0.17539 0.58099 0.0
C225 C 0.04034 0.17516 0.62627 0.0
C226 C 0.05384 0.17221 0.66754 0.0
C227 C 0.07804 0.16956 0.66432 0.0
C228 C 0.08834 0.16988 0.61895 0.0
C229 C 0.07494 0.17259 0.57798 0.0
C230 C 0.04785 0.17807 0.40635 0.0
C231 C 0.06892 0.1659 0.40351 0.0
C232 C 0.67665 0.93758 0.36299 0.0
C233 C 0.67921 0.94967 0.31971 0.0
C234 C 0.67687 0.97402 0.3198 0.0
C235 C 0.67261 0.98598 0.36239 0.0
H236 H 0.65859 0.05186 0.42292 0.0
H237 H 0.66116 0.09406 0.4253 0.0
H238 H 0.67728 0.09095 0.57583 0.0
H239 H 0.6739 0.04889 0.57385 0.0
H240 H 0.66929 1.001 0.62831 0.0
H241 H 0.67613 0.97842 0.70065 0.0
H242 H 0.67753 0.91536 0.61731 0.0
H243 H 0.67018 0.93768 0.54539 0.0
H244 H 0.67096 0.93943 0.43791 0.0
H245 H 0.67874 0.91889 0.3646 0.0
H246 H 0.67848 0.98386 0.28702 0.0
H247 H 0.6713 0.00475 0.36132 0.0
N248 N 0.66695 0.00988 0.45355 0.0
N249 N 0.66647 0.00853 0.53729 0.0
N250 N 0.6683 0.97407 0.49331 0.0
C251 C 0.66607 0.02113 0.49621 0.0
C252 C 0.66746 0.98495 0.53612 0.0
C253 C 0.66804 0.98629 0.45186 0.0
C254 C 0.66619 0.04691 0.49809 0.0
C255 C 0.66251 0.06018 0.45662 0.0
C256 C 0.66411 0.08441 0.45795 0.0
C257 C 0.66965 0.09599 0.50068 0.0
C258 C 0.6727 0.08273 0.54241 0.0
C259 C 0.6709 0.05851 0.54117 0.0
C260 C 0.6694 0.97123 0.58082 0.0
C261 C 0.67077 0.98229 0.62544 0.0
C262 C 0.6748 0.96936 0.66693 0.0
C263 C 0.67754 0.9451 0.66476 0.0
C264 C 0.67525 0.93398 0.62043 0.0
C265 C 0.67121 0.94687 0.57901 0.0
C266 C 0.67063 0.97384 0.40581 0.0
C267 C 0.67236 0.94946 0.40533 0.0
C268 C 0.58329 0.35418 0.87976 0.0
C269 C 0.57569 0.34459 0.83645 0.0
C270 C 0.55298 0.3359 0.83324 0.0
C271 C 0.53873 0.33538 0.87362 0.0
H272 H 0.47504 0.31253 0.92419 0.0
H273 H 0.43655 0.29519 0.9231 0.0
H274 H 0.43237 0.3025 0.0762 0.0
H275 H 0.47099 0.31925 0.07757 0.0
H276 H 0.52165 0.31709 0.13161 0.0
H277 H 0.5447 0.31593 0.20476 0.0
H278 H 0.59673 0.35899 0.13829 0.0
H279 H 0.57382 0.36025 0.06527 0.0
H280 H 0.57596 0.36054 0.95306 0.0
H281 H 0.60057 0.36141 0.883 0.0
H282 H 0.5467 0.32837 0.80028 0.0
H283 H 0.52172 0.32756 0.87062 0.0
N284 N 0.51154 0.33172 0.96109 0.0
N285 N 0.51118 0.32943 0.04471 0.0
N286 N 0.54435 0.34258 0.00519 0.0
C287 C 0.50011 0.32669 0.00223 0.0
C288 C 0.53329 0.33742 0.04649 0.0
C289 C 0.53367 0.33982 0.96236 0.0
C290 C 0.47623 0.31721 0.00098 0.0
C291 C 0.4659 0.31053 0.95763 0.0
C292 C 0.44376 0.30066 0.95697 0.0
C293 C 0.4314 0.29733 0.9996 0.0
C294 C 0.44157 0.30439 0.04281 0.0
C295 C 0.46371 0.31415 0.04352 0.0
C296 C 0.54596 0.33865 0.09243 0.0
C297 C 0.53785 0.32658 0.13276 0.0
C298 C 0.5511 0.32577 0.17457 0.0
C299 C 0.57253 0.33728 0.17712 0.0
C300 C 0.58019 0.3501 0.13749 0.0
C301 C 0.5671 0.35069 0.09555 0.0
C302 C 0.54698 0.34355 0.91782 0.0
C303 C 0.56914 0.35369 0.91992 0.0
C304 C 0.33543 0.07274 0.63002 0.0
C305 C 0.32235 0.06429 0.66867 0.0
C306 C 0.3139 0.04135 0.66658 0.0
C307 C 0.31764 0.0276 0.62625 0.0
H308 H 0.31913 0.95939 0.57624 0.0
H309 H 0.31386 0.91747 0.5762 0.0
H310 H 0.32808 0.91581 0.42499 0.0
H311 H 0.33265 0.95783 0.42467 0.0
H312 H 0.31268 0.00881 0.37199 0.0
H313 H 0.30473 0.03262 0.30188 0.0
H314 H 0.33822 0.0911 0.36983 0.0
H315 H 0.3453 0.06756 0.44048 0.0
H316 H 0.34828 0.06648 0.55966 0.0
H317 H 0.34279 0.09004 0.63069 0.0
H318 H 0.30349 0.03424 0.69515 0.0
H319 H 0.3102 0.01033 0.62517 0.0
N320 N 0.32891 0.99982 0.54171 0.0
N321 N 0.32905 0.99965 0.45796 0.0
N322 N 0.33169 0.03488 0.49945 0.0
C323 C 0.32838 0.98779 0.5 0.0
C324 C 0.33077 0.02321 0.45745 0.0
C325 C 0.33072 0.02336 0.54166 0.0
C326 C 0.32617 0.96209 0.50038 0.0
C327 C 0.32123 0.95012 0.54296 0.0
C328 C 0.31835 0.92599 0.54302 0.0
C329 C 0.32047 0.91319 0.50057 0.0
C330 C 0.32589 0.92513 0.4582 0.0
C331 C 0.32863 0.94926 0.45806 0.0
C332 C 0.32931 0.03638 0.4121 0.0
C333 C 0.31866 0.02665 0.37165 0.0
C334 C 0.31417 0.04032 0.33131 0.0
C335 C 0.32048 0.06395 0.33037 0.0
C336 C 0.33251 0.07318 0.36974 0.0
C337 C 0.33671 0.05962 0.4102 0.0
C338 C 0.32954 0.03662 0.58672 0.0
C339 C 0.33876 0.05917 0.58936 0.0
C340 C 0.41883 0.65961 0.13893 0.0
C341 C 0.42557 0.67295 0.17851 0.0
C342 C 0.44635 0.68561 0.17648 0.0
C343 C 0.45983 0.68543 0.13513 0.0
H344 H 0.52653 0.69602 0.08208 0.0
H345 H 0.56452 0.71423 0.0815 0.0
H346 H 0.56051 0.72129 0.92822 0.0
H347 H 0.52273 0.70253 0.92851 0.0
H348 H 0.47748 0.68534 0.87372 0.0
H349 H 0.45282 0.68431 0.80265 0.0
H350 H 0.39909 0.65029 0.88366 0.0
H351 H 0.42339 0.65132 0.95447 0.0
H352 H 0.4261 0.64968 0.0671 0.0
H353 H 0.4028 0.64982 0.13939 0.0
H354 H 0.45203 0.69588 0.20667 0.0
H355 H 0.47548 0.69582 0.13431 0.0
N356 N 0.48704 0.68378 0.04809 0.0
N357 N 0.48701 0.68187 0.96447 0.0
N358 N 0.4546 0.66934 0.0076 0.0
C359 C 0.49809 0.68722 0.00593 0.0
C360 C 0.46527 0.67279 0.96507 0.0
C361 C 0.46532 0.67478 0.04922 0.0
C362 C 0.5215 0.69779 0.00532 0.0
C363 C 0.53372 0.70139 0.04816 0.0
C364 C 0.55548 0.71199 0.04791 0.0
C365 C 0.56553 0.71933 0.00486 0.0
C366 C 0.5534 0.71559 0.96197 0.0
C367 C 0.53166 0.7049 0.96218 0.0
C368 C 0.45225 0.66885 0.92013 0.0
C369 C 0.46057 0.67725 0.8762 0.0
C370 C 0.44652 0.6766 0.8354 0.0
C371 C 0.42394 0.66758 0.83794 0.0
C372 C 0.41628 0.65775 0.88096 0.0
C373 C 0.43026 0.65835 0.92155 0.0
C374 C 0.45258 0.67285 0.09479 0.0
C375 C 0.43213 0.65965 0.09743 0.0
H376 H 0.17226 0.14764 0.0985 0.0
H377 H 0.08317 0.21543 0.26631 0.0
H378 H 0.17069 0.22238 0.11205 0.0
H379 H 0.09637 0.14178 0.27629 0.0
H380 H 0.11043 0.21785 0.19978 0.0
H381 H 0.13988 0.14494 0.15402 0.0
C382 C 0.16503 0.16351 0.11289 0.0
C383 C 0.1744 0.18527 0.10099 0.0
C384 C 0.10722 0.20113 0.21629 0.0
C385 C 0.13725 0.18225 0.1645 0.0
C386 C 0.09154 0.19971 0.25398 0.0
C387 C 0.08764 0.17839 0.27696 0.0
C388 C 0.11895 0.18106 0.20133 0.0
C389 C 0.09913 0.1586 0.25992 0.0
C390 C 0.14656 0.16193 0.14466 0.0
C391 C 0.16419 0.20523 0.1206 0.0
N392 N 0.11434 0.16043 0.22323 0.0
N393 N 0.14622 0.20323 0.15156 0.0
H394 H 0.2114 0.67453 0.64024 0.0
H395 H 0.20934 0.54898 0.76301 0.0
H396 H 0.25491 0.61715 0.59785 0.0
H397 H 0.16533 0.60563 0.80715 0.0
H398 H 0.22328 0.57274 0.69708 0.0
H399 H 0.19179 0.64884 0.6969 0.0
C400 C 0.21675 0.65653 0.64261 0.0
C401 C 0.23503 0.64808 0.61458 0.0
C402 C 0.21043 0.57995 0.72093 0.0
C403 C 0.21264 0.61859 0.6793 0.0
C404 C 0.20229 0.56629 0.75843 0.0
C405 C 0.18621 0.57533 0.79096 0.0
C406 C 0.20255 0.60293 0.71587 0.0
C407 C 0.17803 0.59806 0.78348 0.0
C408 C 0.20554 0.64186 0.67497 0.0
C409 C 0.2411 0.62453 0.61902 0.0
N410 N 0.18642 0.61114 0.74695 0.0
N411 N 0.23004 0.61069 0.65092 0.0
H412 H 0.82535 0.78814 0.12248 0.0
H413 H 0.90319 0.8735 0.27896 0.0
H414 H 0.82845 0.8623 0.09923 0.0
H415 H 0.91299 0.79918 0.27776 0.0
H416 H 0.87522 0.86968 0.21373 0.0
H417 H 0.85702 0.7916 0.1803 0.0
C418 C 0.83273 0.80512 0.12937 0.0
C419 C 0.82411 0.82497 0.1062 0.0
C420 C 0.88364 0.85422 0.22742 0.0
C421 C 0.86023 0.82905 0.17238 0.0
C422 C 0.89952 0.8564 0.26472 0.0
C423 C 0.91035 0.83663 0.28375 0.0
C424 C 0.87831 0.83207 0.20947 0.0
C425 C 0.90515 0.81488 0.2638 0.0
C426 C 0.85085 0.80707 0.16226 0.0
C427 C 0.83446 0.84651 0.11631 0.0
N428 N 0.88931 0.81315 0.22801 0.0
N429 N 0.85182 0.84799 0.14891 0.0
H430 H 0.7784 0.32735 0.65728 0.0
H431 H 0.81318 0.45526 0.74194 0.0
H432 H 0.75655 0.38933 0.58272 0.0
H433 H 0.80722 0.39701 0.83871 0.0
H434 H 0.80019 0.4302 0.67685 0.0
H435 H 0.79735 0.35176 0.71739 0.0
C436 C 0.77784 0.34607 0.6532 0.0
C437 C 0.7657 0.35634 0.61517 0.0
C438 C 0.80192 0.42295 0.71236 0.0
C439 C 0.78741 0.38426 0.68356 0.0
C440 C 0.80921 0.43726 0.7497 0.0
C441 C 0.81116 0.42841 0.79634 0.0
C442 C 0.79685 0.39951 0.72142 0.0
C443 C 0.80633 0.40469 0.80351 0.0
C444 C 0.78854 0.35996 0.68763 0.0
C445 C 0.76551 0.3807 0.61175 0.0
N446 N 0.79937 0.39111 0.76654 0.0
N447 N 0.77617 0.39384 0.64554 0.0
H448 H 0.67093 0.36166 0.40463 0.0
H449 H 0.58303 0.29773 0.22693 0.0
H450 H 0.67024 0.28735 0.38312 0.0
H451 H 0.59645 0.37147 0.22395 0.0
H452 H 0.61046 0.29373 0.29323 0.0
H453 H 0.63925 0.3655 0.34736 0.0
C454 C 0.66404 0.34611 0.38812 0.0
C455 C 0.67344 0.32415 0.39842 0.0
C456 C 0.60729 0.3108 0.27825 0.0
C457 C 0.63708 0.32849 0.33279 0.0
C458 C 0.59152 0.31312 0.24069 0.0
C459 C 0.58755 0.33496 0.21984 0.0
C460 C 0.61903 0.33049 0.29531 0.0
C461 C 0.59922 0.35429 0.23866 0.0
C462 C 0.64597 0.34835 0.35532 0.0
C463 C 0.66369 0.30464 0.37598 0.0
N464 N 0.61446 0.35159 0.27528 0.0
N465 N 0.64607 0.30728 0.3441 0.0
H466 H 0.25772 0.11688 0.92281 0.0
H467 H 0.31375 0.11132 0.66678 0.0
H468 H 0.2823 0.17814 0.84964 0.0
H469 H 0.31642 0.05285 0.76368 0.0
H470 H 0.301 0.13587 0.73214 0.0
H471 H 0.27756 0.0927 0.86389 0.0
C472 C 0.26743 0.12524 0.89456 0.0
C473 C 0.26822 0.14956 0.89093 0.0
C474 C 0.30462 0.11771 0.73917 0.0
C475 C 0.29069 0.12202 0.82323 0.0
C476 C 0.31208 0.10362 0.70185 0.0
C477 C 0.31621 0.0798 0.70935 0.0
C478 C 0.30079 0.10794 0.78431 0.0
C479 C 0.31303 0.07094 0.75569 0.0
C480 C 0.27881 0.11143 0.86109 0.0
C481 C 0.2812 0.15946 0.8538 0.0
N482 N 0.30527 0.08494 0.79124 0.0
N483 N 0.29166 0.14566 0.82101 0.0
H484 H 0.32499 0.72241 0.38125 0.0
H485 H 0.40361 0.63766 0.22577 0.0
H486 H 0.32848 0.64823 0.40408 0.0
H487 H 0.41229 0.71212 0.22616 0.0
H488 H 0.37566 0.64123 0.29074 0.0
H489 H 0.35667 0.71921 0.3238 0.0
C490 C 0.33246 0.70547 0.37435 0.0
C491 C 0.32394 0.68554 0.39729 0.0
C492 C 0.38383 0.65678 0.27694 0.0
C493 C 0.36009 0.68176 0.33152 0.0
C494 C 0.3997 0.65474 0.23978 0.0
C495 C 0.41021 0.67463 0.22057 0.0
C496 C 0.37818 0.6789 0.2946 0.0
C497 C 0.4047 0.69634 0.24025 0.0
C498 C 0.35059 0.70367 0.34167 0.0
C499 C 0.3344 0.66407 0.38717 0.0
N500 N 0.38889 0.69793 0.27591 0.0
N501 N 0.35178 0.66274 0.35478 0.0
H502 H 0.7551 0.89294 0.90505 0.0
H503 H 0.66266 0.90172 0.69269 0.0
H504 H 0.71217 0.83541 0.86048 0.0
H505 H 0.70853 0.95742 0.73437 0.0
H506 H 0.67767 0.87825 0.75873 0.0
H507 H 0.73524 0.91783 0.84777 0.0
C508 C 0.74143 0.88552 0.88332 0.0
C509 C 0.73549 0.86193 0.88727 0.0
C510 C 0.68429 0.89569 0.75365 0.0
C511 C 0.71262 0.89048 0.82133 0.0
C512 C 0.67579 0.90908 0.71585 0.0
C513 C 0.68445 0.93155 0.7077 0.0
C514 C 0.70162 0.90481 0.78349 0.0
C515 C 0.70116 0.9403 0.73943 0.0
C516 C 0.73007 0.89979 0.85059 0.0
C517 C 0.71745 0.85343 0.85844 0.0
N518 N 0.7093 0.92686 0.77563 0.0
N519 N 0.70676 0.86766 0.82643 0.0
H520 H 0.84715 0.84764 0.93307 0.0
H521 H 0.88154 0.82118 0.66336 0.0
H522 H 0.80891 0.80227 0.83882 0.0
H523 H 0.93009 0.85216 0.7617 0.0
H524 H 0.8543 0.81571 0.72835 0.0
H525 H 0.87775 0.8506 0.87247 0.0
C526 C 0.84525 0.83818 0.89993 0.0
C527 C 0.82527 0.82493 0.89081 0.0
C528 C 0.8709 0.82366 0.73601 0.0
C529 C 0.86 0.82834 0.82164 0.0
C530 C 0.88639 0.82695 0.69878 0.0
C531 C 0.90796 0.83738 0.70713 0.0
C532 C 0.87685 0.83099 0.78219 0.0
C533 C 0.91357 0.84408 0.7539 0.0
C534 C 0.8627 0.83988 0.86543 0.0
C535 C 0.8238 0.81295 0.84734 0.0
N536 N 0.89799 0.84096 0.78979 0.0
N537 N 0.84079 0.8151 0.81441 0.0
H538 H 0.76765 0.33314 0.3462 0.0
H539 H 0.81475 0.45897 0.2732 0.0
H540 H 0.76233 0.39227 0.44018 0.0
H541 H 0.80432 0.40195 0.17543 0.0
H542 H 0.80039 0.43431 0.33819 0.0
H543 H 0.78668 0.35747 0.28743 0.0
C544 C 0.77053 0.35128 0.35462 0.0
C545 C 0.76304 0.36071 0.39806 0.0
C546 C 0.80145 0.42725 0.3025 0.0
C547 C 0.78496 0.38887 0.33031 0.0
C548 C 0.80955 0.44131 0.26529 0.0
C549 C 0.81086 0.43259 0.21851 0.0
C550 C 0.79473 0.40427 0.29289 0.0
C551 C 0.80415 0.40943 0.2108 0.0
C552 C 0.78143 0.3652 0.32089 0.0
C553 C 0.76765 0.3843 0.40703 0.0
N554 N 0.79639 0.39618 0.24746 0.0
N555 N 0.77819 0.39765 0.37323 0.0
H556 H 0.14955 0.18037 0.93979 0.0
H557 H 0.11701 0.14282 0.67582 0.0
H558 H 0.19993 0.17477 0.82701 0.0
H559 H 0.07315 0.19093 0.75189 0.0
H560 H 0.14462 0.14404 0.74174 0.0
H561 H 0.11839 0.17469 0.88038 0.0
C562 C 0.154 0.17779 0.90266 0.0
C563 C 0.17724 0.17819 0.88801 0.0
C564 C 0.12882 0.15413 0.74404 0.0
C565 C 0.14211 0.17113 0.82098 0.0
C566 C 0.11308 0.15359 0.70638 0.0
C567 C 0.09293 0.1673 0.70756 0.0
C568 C 0.12425 0.16808 0.78379 0.0
C569 C 0.08844 0.18013 0.74921 0.0
C570 C 0.13631 0.17464 0.869 0.0
C571 C 0.18221 0.17482 0.83961 0.0
N572 N 0.10409 0.18035 0.78567 0.0
N573 N 0.1648 0.17126 0.80788 0.0
H574 H 0.2211 0.67144 0.36085 0.0
H575 H 0.21397 0.54449 0.25301 0.0
H576 H 0.24815 0.61175 0.43599 0.0
H577 H 0.16938 0.60062 0.20749 0.0
H578 H 0.22656 0.56815 0.32074 0.0
H579 H 0.20224 0.64549 0.30405 0.0
C580 C 0.22297 0.65284 0.36552 0.0
C581 C 0.23637 0.64374 0.40296 0.0
C582 C 0.21382 0.57515 0.29617 0.0
C583 C 0.21494 0.61388 0.33775 0.0
C584 C 0.20652 0.56161 0.25759 0.0
C585 C 0.1908 0.57066 0.22398 0.0
C586 C 0.20552 0.59797 0.30093 0.0
C587 C 0.18197 0.5931 0.23168 0.0
C588 C 0.2121 0.63802 0.33319 0.0
C589 C 0.23799 0.61949 0.40758 0.0
N590 N 0.18965 0.60605 0.26894 0.0
N591 N 0.22766 0.60537 0.37493 0.0
H592 H 0.34726 0.66285 0.56972 0.0
H593 H 0.37999 0.68395 0.84261 0.0
H594 H 0.30782 0.70546 0.66682 0.0
H595 H 0.43045 0.65849 0.74223 0.0
H596 H 0.35251 0.68926 0.7777 0.0
H597 H 0.37763 0.65909 0.631 0.0
C598 C 0.34504 0.67153 0.60364 0.0
C599 C 0.32481 0.68427 0.61328 0.0
C600 C 0.36958 0.68253 0.76961 0.0
C601 C 0.35926 0.6799 0.68323 0.0
C602 C 0.38521 0.6793 0.80679 0.0
C603 C 0.40743 0.67054 0.79782 0.0
C604 C 0.37605 0.67685 0.72283 0.0
C605 C 0.41345 0.66528 0.75054 0.0
C606 C 0.36236 0.66938 0.63851 0.0
C607 C 0.32293 0.69524 0.65778 0.0
N608 N 0.39775 0.66837 0.71467 0.0
N609 N 0.33979 0.69264 0.69105 0.0
H610 H 0.74753 0.89861 0.06429 0.0
H611 H 0.66349 0.90703 0.29002 0.0
H612 H 0.72106 0.83909 0.14056 0.0
H613 H 0.70937 0.96278 0.24863 0.0
H614 H 0.67803 0.88387 0.22371 0.0
H615 H 0.7273 0.92416 0.12056 0.0
C616 C 0.73728 0.89093 0.09253 0.0
C617 C 0.73615 0.8667 0.0981 0.0
C618 C 0.68477 0.90125 0.22896 0.0
C619 C 0.71289 0.89573 0.16199 0.0
C620 C 0.67655 0.91448 0.26692 0.0
C621 C 0.6855 0.93679 0.27558 0.0
C622 C 0.70195 0.9104 0.19901 0.0
C623 C 0.7019 0.94572 0.2434 0.0
C624 C 0.72584 0.9055 0.12465 0.0
C625 C 0.72263 0.85767 0.13531 0.0
N626 N 0.70974 0.93243 0.20674 0.0
N627 N 0.71156 0.87218 0.16582 0.0
H628 H 0.65274 0.34757 0.56904 0.0
H629 H 0.61961 0.32808 0.84226 0.0
H630 H 0.69156 0.30495 0.66799 0.0
H631 H 0.5695 0.35369 0.74045 0.0
H632 H 0.64721 0.3226 0.77802 0.0
H633 H 0.6226 0.35243 0.63014 0.0
C634 C 0.6549 0.33916 0.60336 0.0
C635 C 0.67485 0.326 0.61346 0.0
C636 C 0.6302 0.32941 0.76948 0.0
C637 C 0.64066 0.33162 0.6832 0.0
C638 C 0.61449 0.33274 0.80628 0.0
C639 C 0.59232 0.34157 0.79673 0.0
C640 C 0.62387 0.33503 0.72248 0.0
C641 C 0.58645 0.34682 0.74923 0.0
C642 C 0.6377 0.34193 0.63811 0.0
C643 C 0.67665 0.31541 0.65848 0.0
N644 N 0.60223 0.34361 0.71374 0.0
N645 N 0.65992 0.3186 0.69159 0.0
H646 H 0.26754 0.11862 0.06205 0.0
H647 H 0.30555 0.10904 0.33557 0.0
H648 H 0.2647 0.17535 0.16251 0.0
H649 H 0.31769 0.05404 0.23403 0.0
H650 H 0.29144 0.1336 0.27129 0.0
H651 H 0.28662 0.0947 0.12305 0.0
C652 C 0.27103 0.1261 0.09676 0.0
C653 C 0.26429 0.149 0.10723 0.0
C654 C 0.29733 0.11622 0.26287 0.0
C655 C 0.28604 0.12171 0.17712 0.0
C656 C 0.30561 0.10218 0.29964 0.0
C657 C 0.31299 0.07937 0.29041 0.0
C658 C 0.29612 0.10746 0.21624 0.0
C659 C 0.31195 0.07138 0.24305 0.0
C660 C 0.28193 0.11243 0.13154 0.0
C661 C 0.26937 0.15777 0.15278 0.0
N662 N 0.30357 0.08537 0.20777 0.0
N663 N 0.27978 0.14409 0.18599 0.0
H664 H 0.20559 0.26987 0.91072 0.0
H665 H 0.16322 0.37834 0.06608 0.0
H666 H 0.20397 0.27013 0.0646 0.0
H667 H 0.18798 0.38505 0.92144 0.0
H668 H 0.17081 0.33664 0.06252 0.0
H669 H 0.19156 0.31015 0.91067 0.0
C670 C 0.20202 0.27829 0.94442 0.0
C671 C 0.20617 0.26673 0.98775 0.0
C672 C 0.17444 0.34726 0.03149 0.0
C673 C 0.19006 0.3126 0.98791 0.0
C674 C 0.17024 0.37112 0.03354 0.0
C675 C 0.17522 0.38542 0.99421 0.0
C676 C 0.18351 0.33749 0.98969 0.0
C677 C 0.18368 0.37481 0.95258 0.0
C678 C 0.19414 0.30128 0.94437 0.0
C679 C 0.20128 0.27848 0.0304 0.0
N680 N 0.18765 0.35152 0.95149 0.0
N681 N 0.19353 0.30076 0.0294 0.0
H682 H 0.20334 0.74437 0.57207 0.0
H683 H 0.08314 0.76138 0.43401 0.0
H684 H 0.19013 0.71583 0.4322 0.0
H685 H 0.10153 0.79725 0.56387 0.0
H686 H 0.12122 0.74276 0.43424 0.0
H687 H 0.1649 0.76159 0.57159 0.0
C688 C 0.19235 0.74166 0.5412 0.0
C689 C 0.20008 0.7287 0.50195 0.0
C690 C 0.1169 0.7547 0.46266 0.0
C691 C 0.15583 0.74851 0.50128 0.0
C692 C 0.09521 0.76545 0.46244 0.0
C693 C 0.0891 0.78096 0.49897 0.0
C694 C 0.13257 0.75941 0.49976 0.0
C695 C 0.10531 0.7852 0.53534 0.0
C696 C 0.17036 0.75157 0.54096 0.0
C697 C 0.18494 0.72575 0.46314 0.0
N698 N 0.12627 0.7745 0.53477 0.0
N699 N 0.16351 0.73562 0.46375 0.0
H700 H 0.80161 0.74196 0.92564 0.0
H701 H 0.79666 0.62231 0.07108 0.0
H702 H 0.77625 0.7354 0.06983 0.0
H703 H 0.82937 0.62857 0.93333 0.0
H704 H 0.78961 0.66399 0.07087 0.0
H705 H 0.81253 0.7008 0.92735 0.0
C706 C 0.79846 0.73195 0.95772 0.0
C707 C 0.78782 0.74217 0.99752 0.0
C708 C 0.79843 0.65631 0.04072 0.0
C709 C 0.80018 0.69507 0.99959 0.0
C710 C 0.8026 0.63246 0.04094 0.0
C711 C 0.81372 0.62181 0.00223 0.0
C712 C 0.80525 0.66978 0.00136 0.0
C713 C 0.8205 0.63593 0.96371 0.0
C714 C 0.80468 0.70845 0.95865 0.0
C715 C 0.78425 0.72832 0.03815 0.0
N716 N 0.81611 0.65917 0.9642 0.0
N717 N 0.79028 0.70552 0.03799 0.0
H718 H 0.79339 0.25949 0.56869 0.0
H719 H 0.91498 0.24927 0.43424 0.0
H720 H 0.80678 0.29074 0.4313 0.0
H721 H 0.89839 0.21212 0.56365 0.0
H722 H 0.87602 0.26583 0.43384 0.0
H723 H 0.83243 0.24345 0.56887 0.0
C724 C 0.80453 0.263 0.53848 0.0
C725 C 0.79672 0.27646 0.4998 0.0
C726 C 0.8809 0.25405 0.46231 0.0
C727 C 0.84161 0.25808 0.49993 0.0
C728 C 0.90311 0.24448 0.46245 0.0
C729 C 0.90998 0.22918 0.49896 0.0
C730 C 0.86541 0.24837 0.49901 0.0
C731 C 0.89398 0.22401 0.53509 0.0
C732 C 0.82685 0.25379 0.53864 0.0
C733 C 0.81201 0.28041 0.46179 0.0
N734 N 0.87246 0.23357 0.53415 0.0
N735 N 0.83374 0.27127 0.46282 0.0
H736 H 0.71422 0.23479 0.42986 0.0
H737 H 0.65842 0.12765 0.57089 0.0
H738 H 0.69494 0.23891 0.57833 0.0
H739 H 0.69008 0.12289 0.43184 0.0
H740 H 0.66742 0.16925 0.57224 0.0
H741 H 0.7006 0.19489 0.42776 0.0
C742 C 0.70704 0.22734 0.46211 0.0
C743 C 0.706 0.24023 0.50454 0.0
C744 C 0.67225 0.15906 0.54139 0.0
C745 C 0.6903 0.19419 0.50227 0.0
C746 C 0.66722 0.13528 0.54062 0.0
C747 C 0.67351 0.1216 0.50118 0.0
C748 C 0.68356 0.16928 0.50237 0.0
C749 C 0.68453 0.13265 0.46272 0.0
C750 C 0.69927 0.20447 0.46084 0.0
C751 C 0.69622 0.22961 0.54493 0.0
N752 N 0.68922 0.15574 0.46438 0.0
N753 N 0.68886 0.20712 0.54289 0.0
H754 H 0.30738 0.2196 0.0705 0.0
H755 H 0.39614 0.30358 0.93485 0.0
H756 H 0.29414 0.24962 0.93175 0.0
H757 H 0.41351 0.26589 0.06339 0.0
H758 H 0.35808 0.28505 0.93475 0.0
H759 H 0.34575 0.23765 0.0704 0.0
C760 C 0.31251 0.22997 0.04003 0.0
C761 C 0.29746 0.23312 0.00112 0.0
C762 C 0.37023 0.28082 0.96296 0.0
C763 C 0.34134 0.25384 0.00083 0.0
C764 C 0.39202 0.29132 0.96291 0.0
C765 C 0.4081 0.28631 0.99917 0.0
C766 C 0.36438 0.26523 0.99961 0.0
C767 C 0.40159 0.27056 0.03509 0.0
C768 C 0.33444 0.24024 0.03997 0.0
C769 C 0.30512 0.24669 0.96255 0.0
N770 N 0.38024 0.2606 0.03441 0.0
N771 N 0.32647 0.25658 0.96346 0.0
H772 H 0.30237 0.76784 0.57766 0.0
H773 H 0.29838 0.88746 0.43194 0.0
H774 H 0.27645 0.77465 0.43364 0.0
H775 H 0.33263 0.88058 0.56839 0.0
H776 H 0.29064 0.8459 0.43242 0.0
H777 H 0.31402 0.80881 0.57557 0.0
C778 C 0.29923 0.77787 0.54555 0.0
C779 C 0.28823 0.76778 0.50591 0.0
C780 C 0.29995 0.85342 0.46221 0.0
C781 C 0.30144 0.81464 0.50338 0.0
C782 C 0.30452 0.8772 0.46183 0.0
C783 C 0.31624 0.88765 0.50014 0.0
C784 C 0.30698 0.83983 0.50133 0.0
C785 C 0.32327 0.8734 0.53835 0.0
C786 C 0.30589 0.80126 0.5444 0.0
C787 C 0.28471 0.78164 0.46522 0.0
N788 N 0.31847 0.85024 0.53805 0.0
N789 N 0.29116 0.80432 0.46515 0.0
H790 H 0.70327 0.7654 0.93152 0.0
H791 H 0.58276 0.75129 0.06844 0.0
H792 H 0.69022 0.79558 0.06984 0.0
H793 H 0.60091 0.71353 0.94094 0.0
H794 H 0.621 0.76955 0.06776 0.0
H795 H 0.66462 0.74859 0.93216 0.0
C796 C 0.69227 0.76856 0.96207 0.0
C797 C 0.7001 0.78185 0.00085 0.0
C798 C 0.61659 0.75728 0.03995 0.0
C799 C 0.65563 0.76254 0.00171 0.0
C800 C 0.59481 0.74673 0.04043 0.0
C801 C 0.58858 0.73079 0.0047 0.0
C802 C 0.63226 0.75192 0.00339 0.0
C803 C 0.60478 0.72593 0.96884 0.0
C804 C 0.67016 0.75888 0.96241 0.0
C805 C 0.68496 0.78537 0.03928 0.0
N806 N 0.62584 0.73643 0.96913 0.0
N807 N 0.66343 0.77573 0.03877 0.0
loop_
_geom_bond_atom_site_label_1
_geom_bond_atom_site_label_2
_geom_bond_distance
_geom_bond_site_symmetry_2
_ccdc_geom_bond_type
Fe0 O2 1.918 . S
Fe0 O5 1.997 . S
Fe0 O6 2.002 . S
Fe0 O11 1.976 . S
Fe0 O14 1.996 . S
Fe1 O2 1.918 1_556 S
Fe1 O9 1.997 . S
Fe1 O12 1.996 . S
Fe1 O16 1.976 . S
Fe1 O19 2.002 . S
O2 Fe0 1.918 . S
O2 Fe1 1.918 1_554 S
O2 Fe3 1.918 . S
Fe3 O2 1.918 . S
Fe3 O4 2.002 . S
Fe3 O13 1.976 . S
Fe3 O17 1.996 1_554 S
Fe3 O20 1.997 1_554 S
O4 Fe3 2.002 . S
O4 C21 1.295 . S
O5 Fe0 1.997 . S
O5 C21 1.235 . S
O6 Fe0 2.002 . S
O6 C7 1.295 . S
C7 O6 1.295 . S
C7 O9 1.235 1_554 S
C8 O13 1.287 . S
C8 O14 1.255 . S
O9 Fe1 1.997 . S
O9 C7 1.235 1_556 S
C10 O16 1.287 . S
C10 O17 1.255 . S
O11 Fe0 1.976 . S
O11 C18 1.286 . S
O12 Fe1 1.996 . S
O12 C18 1.255 1_556 S
O13 Fe3 1.976 . S
O13 C8 1.287 . S
O14 Fe0 1.996 . S
O14 C8 1.255 . S
C15 O19 1.295 . S
C15 O20 1.235 . S
O16 Fe1 1.976 . S
O16 C10 1.287 . S
O17 Fe3 1.996 1_556 S
O17 C10 1.255 . S
C18 O11 1.286 . S
C18 O12 1.255 1_554 S
O19 Fe1 2.002 . S
O19 C15 1.295 . S
O20 Fe3 1.997 1_556 S
O20 C15 1.235 . S
C21 O4 1.295 . S
C21 O5 1.235 . S
Fe22 O24 1.918 . S
Fe22 O27 1.997 . S
Fe22 O28 2.002 . S
Fe22 O33 1.976 . S
Fe22 O36 1.996 . S
Fe23 O24 1.918 . S
Fe23 O31 1.997 . S
Fe23 O34 1.996 . S
Fe23 O38 1.976 . S
Fe23 O41 2.002 . S
O24 Fe22 1.918 . S
O24 Fe23 1.918 . S
O24 Fe25 1.918 . S
Fe25 O24 1.918 . S
Fe25 O26 2.002 . S
Fe25 O35 1.976 . S
Fe25 O39 1.996 . S
Fe25 O42 1.997 . S
O26 Fe25 2.002 . S
O26 C43 1.295 . S
O27 Fe22 1.997 . S
O27 C43 1.235 . S
O28 Fe22 2.002 . S
O28 C29 1.295 . S
C29 O28 1.295 . S
C29 O31 1.235 . S
C30 O35 1.287 . S
C30 O36 1.255 . S
O31 Fe23 1.997 . S
O31 C29 1.235 . S
C32 O38 1.287 . S
C32 O39 1.255 . S
O33 Fe22 1.976 . S
O33 C40 1.287 . S
O34 Fe23 1.996 . S
O34 C40 1.255 . S
O35 Fe25 1.976 . S
O35 C30 1.287 . S
O36 Fe22 1.996 . S
O36 C30 1.255 . S
C37 O41 1.295 . S
C37 O42 1.235 . S
O38 Fe23 1.976 . S
O38 C32 1.287 . S
O39 Fe25 1.996 . S
O39 C32 1.255 . S
C40 O33 1.287 . S
C40 O34 1.255 . S
O41 Fe23 2.002 . S
O41 C37 1.295 . S
O42 Fe25 1.997 . S
O42 C37 1.235 . S
C43 O26 1.295 . S
C43 O27 1.235 . S
Fe44 O46 1.897 1_556 S
Fe44 O49 1.997 . S
Fe44 O50 2.002 . S
Fe44 O55 1.976 . S
Fe44 O58 1.996 . S
Fe45 O46 1.940 . S
Fe45 O53 1.997 . S
Fe45 O56 1.996 . S
Fe45 O60 1.976 . S
Fe45 O63 2.002 . S
O46 Fe44 1.897 1_554 S
O46 Fe45 1.940 . S
O46 Fe47 1.918 . S
Fe47 O46 1.918 . S
Fe47 O48 2.002 1_554 S
Fe47 O57 1.976 1_554 S
Fe47 O61 1.996 . S
Fe47 O64 1.997 . S
O48 Fe47 2.002 1_556 S
O48 C65 1.295 . S
O49 Fe44 1.997 . S
O49 C65 1.235 . S
O50 Fe44 2.002 . S
O50 C51 1.300 . S
C51 O50 1.300 . S
C51 O53 1.231 1_556 S
C52 O57 1.287 . S
C52 O58 1.255 . S
O53 Fe45 1.997 . S
O53 C51 1.231 1_554 S
C54 O60 1.287 . S
C54 O61 1.255 . S
O55 Fe44 1.976 . S
O55 C62 1.287 1_556 S
O56 Fe45 1.996 . S
O56 C62 1.255 . S
O57 Fe47 1.976 1_556 S
O57 C52 1.287 . S
O58 Fe44 1.996 . S
O58 C52 1.255 . S
C59 O63 1.295 . S
C59 O64 1.235 . S
O60 Fe45 1.976 . S
O60 C54 1.287 . S
O61 Fe47 1.996 . S
O61 C54 1.255 . S
C62 O55 1.287 1_554 S
C62 O56 1.255 . S
O63 Fe45 2.002 . S
O63 C59 1.295 . S
O64 Fe47 1.997 . S
O64 C59 1.235 . S
C65 O48 1.295 . S
C65 O49 1.235 . S
Fe66 O68 1.918 . S
Fe66 O71 1.997 . S
Fe66 O72 2.002 . S
Fe66 O77 1.976 . S
Fe66 O80 1.996 . S
Fe67 O68 1.918 . S
Fe67 O75 1.997 . S
Fe67 O78 1.996 . S
Fe67 O82 1.976 . S
Fe67 O85 2.002 . S
O68 Fe66 1.918 . S
O68 Fe67 1.918 . S
O68 Fe69 1.918 . S
Fe69 O68 1.918 . S
Fe69 O70 2.002 . S
Fe69 O79 1.976 . S
Fe69 O83 1.996 . S
Fe69 O86 1.997 . S
O70 Fe69 2.002 . S
O70 C87 1.295 . S
O71 Fe66 1.997 . S
O71 C87 1.235 . S
O72 Fe66 2.002 . S
O72 C73 1.295 . S
C73 O72 1.295 . S
C73 O75 1.235 . S
C74 O79 1.287 . S
C74 O80 1.255 . S
O75 Fe67 1.997 . S
O75 C73 1.235 . S
C76 O82 1.287 . S
C76 O83 1.255 . S
O77 Fe66 1.976 . S
O77 C84 1.287 . S
O78 Fe67 1.996 . S
O78 C84 1.255 . S
O79 Fe69 1.976 . S
O79 C74 1.287 . S
O80 Fe66 1.996 . S
O80 C74 1.255 . S
C81 O85 1.295 . S
C81 O86 1.235 . S
O82 Fe67 1.976 . S
O82 C76 1.287 . S
O83 Fe69 1.996 . S
O83 C76 1.255 . S
C84 O77 1.287 . S
C84 O78 1.255 . S
O85 Fe67 2.002 . S
O85 C81 1.295 . S
O86 Fe69 1.997 . S
O86 C81 1.235 . S
C87 O70 1.295 . S
C87 O71 1.235 . S
C88 C89 1.384 . S
C88 H101 0.947 . S
C88 C123 1.382 . S
C89 C88 1.384 . S
C89 C90 1.378 . S
C90 C89 1.378 . S
C90 C91 1.378 . S
C90 H102 0.952 . S
C91 C90 1.378 . S
C91 H103 0.950 . S
C91 C122 1.383 . S
H92 C111 0.947 . S
H93 C112 0.946 . S
H94 C114 0.953 . S
H95 C115 0.945 . S
H96 C117 0.952 . S
H97 C118 0.949 . S
H98 C120 0.950 . S
H99 C121 0.948 . S
H100 C123 0.951 . S
H101 C88 0.947 . S
H102 C90 0.952 . S
H103 C91 0.950 . S
N104 C107 1.376 1_554 S
N104 C109 1.363 . S
N105 C107 1.377 . S
N105 C108 1.372 . S
N106 C108 1.361 . S
N106 C109 1.377 1_556 S
C107 N104 1.376 1_556 S
C107 N105 1.377 . S
C107 C110 1.480 . S
C108 N105 1.372 . S
C108 N106 1.361 . S
C108 C116 1.457 . S
C109 N104 1.363 . S
C109 N106 1.377 1_554 S
C109 C122 1.479 . S
C110 C107 1.480 . S
C110 C111 1.383 1_556 S
C110 C115 1.385 . S
C111 H92 0.947 . S
C111 C110 1.383 1_554 S
C111 C112 1.388 . S
C112 H93 0.946 . S
C112 C111 1.388 . S
C112 C113 1.384 1_554 S
C113 C112 1.384 1_556 S
C113 C114 1.377 . S
C114 H94 0.953 . S
C114 C113 1.377 . S
C114 C115 1.369 . S
C115 H95 0.945 . S
C115 C110 1.385 . S
C115 C114 1.369 . S
C116 C108 1.457 . S
C116 C117 1.372 . S
C116 C121 1.364 . S
C117 H96 0.952 . S
C117 C116 1.372 . S
C117 C118 1.389 . S
C118 H97 0.949 . S
C118 C117 1.389 . S
C118 C119 1.387 . S
C119 C118 1.387 . S
C119 C120 1.372 . S
C120 H98 0.950 . S
C120 C119 1.372 . S
C120 C121 1.379 . S
C121 H99 0.948 . S
C121 C116 1.364 . S
C121 C120 1.379 . S
C122 C91 1.383 . S
C122 C109 1.479 . S
C122 C123 1.398 . S
C123 C88 1.382 . S
C123 H100 0.951 . S
C123 C122 1.398 . S
C124 C125 1.384 . S
C124 H137 0.947 . S
C124 C159 1.382 . S
C125 C124 1.384 . S
C125 C126 1.378 . S
C126 C125 1.378 . S
C126 C127 1.378 . S
C126 H138 0.952 . S
C127 C126 1.378 . S
C127 H139 0.950 . S
C127 C158 1.383 . S
H128 C147 0.947 . S
H129 C148 0.946 . S
H130 C150 0.953 . S
H131 C151 0.945 . S
H132 C153 0.952 . S
H133 C154 0.949 . S
H134 C156 0.950 . S
H135 C157 0.948 . S
H136 C159 0.951 . S
H137 C124 0.947 . S
H138 C126 0.952 . S
H139 C127 0.950 . S
N140 C143 1.382 1_655 S
N140 C145 1.363 . S
N141 C143 1.371 1_655 S
N141 C144 1.372 . S
N142 C144 1.361 . S
N142 C145 1.377 . S
C143 N140 1.382 1_455 S
C143 N141 1.371 1_455 S
C143 C146 1.480 . S
C144 N141 1.372 . S
C144 N142 1.361 . S
C144 C152 1.457 . S
C145 N140 1.363 . S
C145 N142 1.377 . S
C145 C158 1.479 . S
C146 C143 1.480 . S
C146 C147 1.383 . S
C146 C151 1.385 . S
C147 H128 0.947 . S
C147 C146 1.383 . S
C147 C148 1.388 . S
C148 H129 0.946 . S
C148 C147 1.388 . S
C148 C149 1.384 . S
C149 C148 1.384 . S
C149 C150 1.377 . S
C150 H130 0.953 . S
C150 C149 1.377 . S
C150 C151 1.369 . S
C151 H131 0.945 . S
C151 C146 1.385 . S
C151 C150 1.369 . S
C152 C144 1.457 . S
C152 C153 1.372 . S
C152 C157 1.364 . S
C153 H132 0.952 . S
C153 C152 1.372 . S
C153 C154 1.389 . S
C154 H133 0.949 . S
C154 C153 1.389 . S
C154 C155 1.387 . S
C155 C154 1.387 . S
C155 C156 1.372 . S
C156 H134 0.950 . S
C156 C155 1.372 . S
C156 C157 1.379 . S
C157 H135 0.948 . S
C157 C152 1.364 . S
C157 C156 1.379 . S
C158 C127 1.383 . S
C158 C145 1.479 . S
C158 C159 1.398 . S
C159 C124 1.382 . S
C159 H136 0.951 . S
C159 C158 1.398 . S
C160 C161 1.384 . S
C160 H173 0.947 . S
C160 C195 1.382 . S
C161 C160 1.384 . S
C161 C162 1.378 . S
C162 C161 1.378 . S
C162 C163 1.378 . S
C162 H174 0.952 . S
C163 C162 1.378 . S
C163 H175 0.950 . S
C163 C194 1.383 . S
H164 C183 0.947 . S
H165 C184 0.946 . S
H166 C186 0.953 . S
H167 C187 0.945 . S
H168 C189 0.952 . S
H169 C190 0.949 . S
H170 C192 0.950 . S
H171 C193 0.948 . S
H172 C195 0.951 . S
H173 C160 0.947 . S
H174 C162 0.952 . S
H175 C163 0.950 . S
N176 C179 1.382 1_556 S
N176 C181 1.363 . S
N177 C179 1.371 . S
N177 C180 1.372 . S
N178 C180 1.361 . S
N178 C181 1.377 1_554 S
C179 N176 1.382 1_554 S
C179 N177 1.371 . S
C179 C182 1.480 . S
C180 N177 1.372 . S
C180 N178 1.361 . S
C180 C188 1.457 . S
C181 N176 1.363 . S
C181 N178 1.377 1_556 S
C181 C194 1.479 . S
C182 C179 1.480 . S
C182 C183 1.383 1_554 S
C182 C187 1.385 . S
C183 H164 0.947 . S
C183 C182 1.383 1_556 S
C183 C184 1.388 . S
C184 H165 0.946 . S
C184 C183 1.388 . S
C184 C185 1.384 1_556 S
C185 C184 1.384 1_554 S
C185 C186 1.377 . S
C186 H166 0.953 . S
C186 C185 1.377 . S
C186 C187 1.369 . S
C187 H167 0.945 . S
C187 C182 1.385 . S
C187 C186 1.369 . S
C188 C180 1.457 . S
C188 C189 1.372 . S
C188 C193 1.364 . S
C189 H168 0.952 . S
C189 C188 1.372 . S
C189 C190 1.389 . S
C190 H169 0.949 . S
C190 C189 1.389 . S
C190 C191 1.387 . S
C191 C190 1.387 . S
C191 C192 1.372 . S
C192 H170 0.950 . S
C192 C191 1.372 . S
C192 C193 1.379 . S
C193 H171 0.948 . S
C193 C188 1.364 . S
C193 C192 1.379 . S
C194 C163 1.383 . S
C194 C181 1.479 . S
C194 C195 1.398 . S
C195 C160 1.382 . S
C195 H172 0.951 . S
C195 C194 1.398 . S
C196 C197 1.384 . S
C196 H209 0.947 . S
C196 C231 1.382 . S
C197 C196 1.384 . S
C197 C198 1.378 . S
C198 C197 1.378 . S
C198 C199 1.378 . S
C198 H210 0.952 . S
C199 C198 1.378 . S
C199 H211 0.950 . S
C199 C230 1.383 . S
H200 C219 0.947 . S
H201 C220 0.946 . S
H202 C222 0.953 . S
H203 C223 0.945 . S
H204 C225 0.952 . S
H205 C226 0.949 . S
H206 C228 0.950 . S
H207 C229 0.948 . S
H208 C231 0.951 . S
H209 C196 0.947 . S
H210 C198 0.952 . S
H211 C199 0.950 . S
N212 C215 1.382 1_455 S
N212 C217 1.363 . S
N213 C215 1.371 1_455 S
N213 C216 1.372 . S
N214 C216 1.361 . S
N214 C217 1.377 . S
C215 N212 1.382 1_655 S
C215 N213 1.371 1_655 S
C215 C218 1.480 . S
C216 N213 1.372 . S
C216 N214 1.361 . S
C216 C224 1.457 . S
C217 N212 1.363 . S
C217 N214 1.377 . S
C217 C230 1.479 . S
C218 C215 1.480 . S
C218 C219 1.383 . S
C218 C223 1.385 . S
C219 H200 0.947 . S
C219 C218 1.383 . S
C219 C220 1.388 . S
C220 H201 0.946 . S
C220 C219 1.388 . S
C220 C221 1.384 . S
C221 C220 1.384 . S
C221 C222 1.377 . S
C222 H202 0.953 . S
C222 C221 1.377 . S
C222 C223 1.369 . S
C223 H203 0.945 . S
C223 C218 1.385 . S
C223 C222 1.369 . S
C224 C216 1.457 . S
C224 C225 1.372 . S
C224 C229 1.364 . S
C225 H204 0.952 . S
C225 C224 1.372 . S
C225 C226 1.389 . S
C226 H205 0.949 . S
C226 C225 1.389 . S
C226 C227 1.387 . S
C227 C226 1.387 . S
C227 C228 1.372 . S
C228 H206 0.950 . S
C228 C227 1.372 . S
C228 C229 1.379 . S
C229 H207 0.948 . S
C229 C224 1.364 . S
C229 C228 1.379 . S
C230 C199 1.383 . S
C230 C217 1.479 . S
C230 C231 1.398 . S
C231 C196 1.382 . S
C231 H208 0.951 . S
C231 C230 1.398 . S
C232 C233 1.384 . S
C232 H245 0.947 . S
C232 C267 1.382 . S
C233 C232 1.384 . S
C233 C234 1.378 . S
C234 C233 1.378 . S
C234 C235 1.378 . S
C234 H246 0.952 . S
C235 C234 1.378 . S
C235 H247 0.950 . S
C235 C266 1.383 . S
H236 C255 0.947 . S
H237 C256 0.946 . S
H238 C258 0.953 . S
H239 C259 0.945 . S
H240 C261 0.952 . S
H241 C262 0.949 . S
H242 C264 0.950 . S
H243 C265 0.948 . S
H244 C267 0.951 . S
H245 C232 0.947 . S
H246 C234 0.952 . S
H247 C235 0.950 . S
N248 C251 1.382 . S
N248 C253 1.363 1_545 S
N249 C251 1.371 . S
N249 C252 1.372 1_545 S
N250 C252 1.361 . S
N250 C253 1.377 . S
C251 N248 1.382 . S
C251 N249 1.371 . S
C251 C254 1.480 . S
C252 N249 1.372 1_565 S
C252 N250 1.361 . S
C252 C260 1.457 . S
C253 N248 1.363 1_565 S
C253 N250 1.377 . S
C253 C266 1.479 . S
C254 C251 1.480 . S
C254 C255 1.383 . S
C254 C259 1.385 . S
C255 H236 0.947 . S
C255 C254 1.383 . S
C255 C256 1.388 . S
C256 H237 0.946 . S
C256 C255 1.388 . S
C256 C257 1.384 . S
C257 C256 1.384 . S
C257 C258 1.377 . S
C258 H238 0.953 . S
C258 C257 1.377 . S
C258 C259 1.369 . S
C259 H239 0.945 . S
C259 C254 1.385 . S
C259 C258 1.369 . S
C260 C252 1.457 . S
C260 C261 1.372 . S
C260 C265 1.364 . S
C261 H240 0.952 . S
C261 C260 1.372 . S
C261 C262 1.389 . S
C262 H241 0.949 . S
C262 C261 1.389 . S
C262 C263 1.387 . S
C263 C262 1.387 . S
C263 C264 1.372 . S
C264 H242 0.950 . S
C264 C263 1.372 . S
C264 C265 1.379 . S
C265 H243 0.948 . S
C265 C260 1.364 . S
C265 C264 1.379 . S
C266 C235 1.383 . S
C266 C253 1.479 . S
C266 C267 1.398 . S
C267 C232 1.382 . S
C267 H244 0.951 . S
C267 C266 1.398 . S
C268 C269 1.384 . S
C268 H281 0.947 . S
C268 C303 1.382 . S
C269 C268 1.384 . S
C269 C270 1.378 . S
C270 C269 1.378 . S
C270 C271 1.378 . S
C270 H282 0.952 . S
C271 C270 1.378 . S
C271 H283 0.950 . S
C271 C302 1.383 . S
H272 C291 0.947 . S
H273 C292 0.946 . S
H274 C294 0.953 . S
H275 C295 0.945 . S
H276 C297 0.952 . S
H277 C298 0.949 . S
H278 C300 0.950 . S
H279 C301 0.948 . S
H280 C303 0.951 . S
H281 C268 0.947 . S
H282 C270 0.952 . S
H283 C271 0.950 . S
N284 C287 1.382 1_556 S
N284 C289 1.363 . S
N285 C287 1.371 . S
N285 C288 1.372 . S
N286 C288 1.361 . S
N286 C289 1.377 1_554 S
C287 N284 1.382 1_554 S
C287 N285 1.371 . S
C287 C290 1.480 . S
C288 N285 1.372 . S
C288 N286 1.361 . S
C288 C296 1.457 . S
C289 N284 1.363 . S
C289 N286 1.377 1_556 S
C289 C302 1.479 . S
C290 C287 1.480 . S
C290 C291 1.383 1_554 S
C290 C295 1.385 . S
C291 H272 0.947 . S
C291 C290 1.383 1_556 S
C291 C292 1.388 . S
C292 H273 0.946 . S
C292 C291 1.388 . S
C292 C293 1.384 1_556 S
C293 C292 1.384 1_554 S
C293 C294 1.377 . S
C294 H274 0.953 . S
C294 C293 1.377 . S
C294 C295 1.369 . S
C295 H275 0.945 . S
C295 C290 1.385 . S
C295 C294 1.369 . S
C296 C288 1.457 . S
C296 C297 1.372 . S
C296 C301 1.364 . S
C297 H276 0.952 . S
C297 C296 1.372 . S
C297 C298 1.389 . S
C298 H277 0.949 . S
C298 C297 1.389 . S
C298 C299 1.387 . S
C299 C298 1.387 . S
C299 C300 1.372 . S
C300 H278 0.950 . S
C300 C299 1.372 . S
C300 C301 1.379 . S
C301 H279 0.948 . S
C301 C296 1.364 . S
C301 C300 1.379 . S
C302 C271 1.383 . S
C302 C289 1.479 . S
C302 C303 1.398 . S
C303 C268 1.382 . S
C303 H280 0.951 . S
C303 C302 1.398 . S
C304 C305 1.384 . S
C304 H317 0.947 . S
C304 C339 1.382 . S
C305 C304 1.384 . S
C305 C306 1.378 . S
C306 C305 1.378 . S
C306 C307 1.378 . S
C306 H318 0.952 . S
C307 C306 1.378 . S
C307 H319 0.950 . S
C307 C338 1.383 . S
H308 C327 0.947 . S
H309 C328 0.946 . S
H310 C330 0.953 . S
H311 C331 0.945 . S
H312 C333 0.952 . S
H313 C334 0.949 . S
H314 C336 0.950 . S
H315 C337 0.948 . S
H316 C339 0.951 . S
H317 C304 0.947 . S
H318 C306 0.952 . S
H319 C307 0.950 . S
N320 C323 1.382 1_545 S
N320 C325 1.363 . S
N321 C323 1.371 1_545 S
N321 C324 1.370 . S
N322 C324 1.361 . S
N322 C325 1.377 . S
C323 N320 1.382 1_565 S
C323 N321 1.371 1_565 S
C323 C326 1.480 . S
C324 N321 1.370 . S
C324 N322 1.361 . S
C324 C332 1.457 . S
C325 N320 1.363 . S
C325 N322 1.377 . S
C325 C338 1.479 . S
C326 C323 1.480 . S
C326 C327 1.383 . S
C326 C331 1.385 . S
C327 H308 0.947 . S
C327 C326 1.383 . S
C327 C328 1.388 . S
C328 H309 0.946 . S
C328 C327 1.388 . S
C328 C329 1.384 . S
C329 C328 1.384 . S
C329 C330 1.377 . S
C330 H310 0.953 . S
C330 C329 1.377 . S
C330 C331 1.369 . S
C331 H311 0.945 . S
C331 C326 1.385 . S
C331 C330 1.369 . S
C332 C324 1.457 . S
C332 C333 1.372 . S
C332 C337 1.364 . S
C333 H312 0.952 . S
C333 C332 1.372 . S
C333 C334 1.389 . S
C334 H313 0.949 . S
C334 C333 1.389 . S
C334 C335 1.387 . S
C335 C334 1.387 . S
C335 C336 1.372 . S
C336 H314 0.950 . S
C336 C335 1.372 . S
C336 C337 1.379 . S
C337 H315 0.948 . S
C337 C332 1.364 . S
C337 C336 1.379 . S
C338 C307 1.383 . S
C338 C325 1.479 . S
C338 C339 1.398 . S
C339 C304 1.382 . S
C339 H316 0.951 . S
C339 C338 1.398 . S
C340 C341 1.384 . S
C340 H353 0.947 . S
C340 C375 1.382 . S
C341 C340 1.384 . S
C341 C342 1.378 . S
C342 C341 1.378 . S
C342 C343 1.378 . S
C342 H354 0.952 . S
C343 C342 1.378 . S
C343 H355 0.950 . S
C343 C374 1.383 . S
H344 C363 0.947 . S
H345 C364 0.946 . S
H346 C366 0.953 . S
H347 C367 0.945 . S
H348 C369 0.952 . S
H349 C370 0.949 . S
H350 C372 0.950 . S
H351 C373 0.948 . S
H352 C375 0.951 . S
H353 C340 0.947 . S
H354 C342 0.952 . S
H355 C343 0.950 . S
N356 C359 1.392 . S
N356 C361 1.363 . S
N357 C359 1.361 1_556 S
N357 C360 1.372 . S
N358 C360 1.361 . S
N358 C361 1.377 1_556 S
C359 N356 1.392 . S
C359 N357 1.361 1_554 S
C359 C362 1.479 1_554 S
C360 N357 1.372 . S
C360 N358 1.361 . S
C360 C368 1.457 . S
C361 N356 1.363 . S
C361 N358 1.377 1_554 S
C361 C374 1.479 . S
C362 C359 1.479 1_556 S
C362 C363 1.369 1_556 S
C362 C367 1.398 . S
C363 H344 0.947 . S
C363 C362 1.369 1_554 S
C363 C364 1.388 . S
C364 H345 0.946 . S
C364 C363 1.388 . S
C364 C365 1.373 1_554 S
C365 C364 1.373 1_556 S
C365 C366 1.387 . S
C366 H346 0.953 . S
C366 C365 1.387 . S
C366 C367 1.369 . S
C367 H347 0.945 . S
C367 C362 1.398 . S
C367 C366 1.369 . S
C368 C360 1.457 . S
C368 C369 1.372 . S
C368 C373 1.364 . S
C369 H348 0.952 . S
C369 C368 1.372 . S
C369 C370 1.389 . S
C370 H349 0.949 . S
C370 C369 1.389 . S
C370 C371 1.387 . S
C371 C370 1.387 . S
C371 C372 1.372 . S
C372 H350 0.950 . S
C372 C371 1.372 . S
C372 C373 1.379 . S
C373 H351 0.948 . S
C373 C368 1.364 . S
C373 C372 1.379 . S
C374 C343 1.383 . S
C374 C361 1.479 . S
C374 C375 1.398 . S
C375 C340 1.382 . S
C375 H352 0.951 . S
C375 C374 1.398 . S
H376 C382 0.930 . S
H377 C386 0.930 . S
H378 C391 0.929 . S
H379 C389 0.929 . S
H380 C384 0.929 . S
H381 C390 0.929 . S
C382 H376 0.930 . S
C382 C383 1.367 . S
C382 C390 1.378 . S
C383 C382 1.367 . S
C383 C391 1.433 . S
C384 H380 0.929 . S
C384 C386 1.378 . S
C384 C388 1.350 . S
C385 C388 1.463 . S
C385 C390 1.350 . S
C385 N393 1.427 . S
C386 H377 0.930 . S
C386 C384 1.378 . S
C386 C387 1.367 . S
C387 C386 1.367 . S
C387 C389 1.433 . S
C388 C384 1.350 . S
C388 C385 1.463 . S
C388 N392 1.427 . S
C389 H379 0.929 . S
C389 C387 1.433 . S
C389 N392 1.384 . S
C390 H381 0.929 . S
C390 C382 1.378 . S
C390 C385 1.350 . S
C391 H378 0.929 . S
C391 C383 1.433 . S
C391 N393 1.384 . S
N392 C388 1.427 . S
N392 C389 1.384 . S
N393 C385 1.427 . S
N393 C391 1.384 . S
H394 C400 0.930 . S
H395 C404 0.930 . S
H396 C409 0.929 . S
H397 C407 0.929 . S
H398 C402 0.929 . S
H399 C408 0.929 . S
C400 H394 0.930 . S
C400 C401 1.367 . S
C400 C408 1.378 . S
C401 C400 1.367 . S
C401 C409 1.433 . S
C402 H398 0.929 . S
C402 C404 1.378 . S
C402 C406 1.350 . S
C403 C406 1.463 . S
C403 C408 1.350 . S
C403 N411 1.427 . S
C404 H395 0.930 . S
C404 C402 1.378 . S
C404 C405 1.367 . S
C405 C404 1.367 . S
C405 C407 1.433 . S
C406 C402 1.350 . S
C406 C403 1.463 . S
C406 N410 1.427 . S
C407 H397 0.929 . S
C407 C405 1.433 . S
C407 N410 1.384 . S
C408 H399 0.929 . S
C408 C400 1.378 . S
C408 C403 1.350 . S
C409 H396 0.929 . S
C409 C401 1.433 . S
C409 N411 1.384 . S
N410 C406 1.427 . S
N410 C407 1.384 . S
N411 C403 1.427 . S
N411 C409 1.384 . S
H412 C418 0.930 . S
H413 C422 0.930 . S
H414 C427 0.929 . S
H415 C425 0.929 . S
H416 C420 0.929 . S
H417 C426 0.929 . S
C418 H412 0.930 . S
C418 C419 1.367 . S
C418 C426 1.378 . S
C419 C418 1.367 . S
C419 C427 1.433 . S
C420 H416 0.929 . S
C420 C422 1.378 . S
C420 C424 1.350 . S
C421 C424 1.463 . S
C421 C426 1.350 . S
C421 N429 1.427 . S
C422 H413 0.930 . S
C422 C420 1.378 . S
C422 C423 1.367 . S
C423 C422 1.367 . S
C423 C425 1.433 . S
C424 C420 1.350 . S
C424 C421 1.463 . S
C424 N428 1.427 . S
C425 H415 0.929 . S
C425 C423 1.433 . S
C425 N428 1.384 . S
C426 H417 0.929 . S
C426 C418 1.378 . S
C426 C421 1.350 . S
C427 H414 0.929 . S
C427 C419 1.433 . S
C427 N429 1.384 . S
N428 C424 1.427 . S
N428 C425 1.384 . S
N429 C421 1.427 . S
N429 C427 1.384 . S
H430 C436 0.930 . S
H431 C440 0.930 . S
H432 C445 0.929 . S
H433 C443 0.929 . S
H434 C438 0.929 . S
H435 C444 0.929 . S
C436 H430 0.930 . S
C436 C437 1.367 . S
C436 C444 1.378 . S
C437 C436 1.367 . S
C437 C445 1.433 . S
C438 H434 0.929 . S
C438 C440 1.378 . S
C438 C442 1.350 . S
C439 C442 1.463 . S
C439 C444 1.350 . S
C439 N447 1.427 . S
C440 H431 0.930 . S
C440 C438 1.378 . S
C440 C441 1.367 . S
C441 C440 1.367 . S
C441 C443 1.433 . S
C442 C438 1.350 . S
C442 C439 1.463 . S
C442 N446 1.427 . S
C443 H433 0.929 . S
C443 C441 1.433 . S
C443 N446 1.384 . S
C444 H435 0.929 . S
C444 C436 1.378 . S
C444 C439 1.350 . S
C445 H432 0.929 . S
C445 C437 1.433 . S
C445 N447 1.384 . S
N446 C442 1.427 . S
N446 C443 1.384 . S
N447 C439 1.427 . S
N447 C445 1.384 . S
H448 C454 0.930 . S
H449 C458 0.930 . S
H450 C463 0.929 . S
H451 C461 0.929 . S
H452 C456 0.929 . S
H453 C462 0.929 . S
C454 H448 0.930 . S
C454 C455 1.367 . S
C454 C462 1.378 . S
C455 C454 1.367 . S
C455 C463 1.433 . S
C456 H452 0.929 . S
C456 C458 1.378 . S
C456 C460 1.350 . S
C457 C460 1.463 . S
C457 C462 1.350 . S
C457 N465 1.427 . S
C458 H449 0.930 . S
C458 C456 1.378 . S
C458 C459 1.367 . S
C459 C458 1.367 . S
C459 C461 1.433 . S
C460 C456 1.350 . S
C460 C457 1.463 . S
C460 N464 1.427 . S
C461 H451 0.929 . S
C461 C459 1.433 . S
C461 N464 1.384 . S
C462 H453 0.929 . S
C462 C454 1.378 . S
C462 C457 1.350 . S
C463 H450 0.929 . S
C463 C455 1.433 . S
C463 N465 1.384 . S
N464 C460 1.427 . S
N464 C461 1.384 . S
N465 C457 1.427 . S
N465 C463 1.384 . S
H466 C472 0.930 . S
H467 C476 0.930 . S
H468 C481 0.929 . S
H469 C479 0.929 . S
H470 C474 0.929 . S
H471 C480 0.929 . S
C472 H466 0.930 . S
C472 C473 1.367 . S
C472 C480 1.378 . S
C473 C472 1.367 . S
C473 C481 1.433 . S
C474 H470 0.929 . S
C474 C476 1.378 . S
C474 C478 1.350 . S
C475 C478 1.463 . S
C475 C480 1.350 . S
C475 N483 1.427 . S
C476 H467 0.930 . S
C476 C474 1.378 . S
C476 C477 1.367 . S
C477 C476 1.367 . S
C477 C479 1.433 . S
C478 C474 1.350 . S
C478 C475 1.463 . S
C478 N482 1.427 . S
C479 H469 0.929 . S
C479 C477 1.433 . S
C479 N482 1.384 . S
C480 H471 0.929 . S
C480 C472 1.378 . S
C480 C475 1.350 . S
C481 H468 0.929 . S
C481 C473 1.433 . S
C481 N483 1.384 . S
N482 C478 1.427 . S
N482 C479 1.384 . S
N483 C475 1.427 . S
N483 C481 1.384 . S
H484 C490 0.930 . S
H485 C494 0.930 . S
H486 C499 0.929 . S
H487 C497 0.929 . S
H488 C492 0.929 . S
H489 C498 0.929 . S
C490 H484 0.930 . S
C490 C491 1.367 . S
C490 C498 1.378 . S
C491 C490 1.367 . S
C491 C499 1.433 . S
C492 H488 0.929 . S
C492 C494 1.378 . S
C492 C496 1.350 . S
C493 C496 1.463 . S
C493 C498 1.350 . S
C493 N501 1.427 . S
C494 H485 0.930 . S
C494 C492 1.378 . S
C494 C495 1.367 . S
C495 C494 1.367 . S
C495 C497 1.433 . S
C496 C492 1.350 . S
C496 C493 1.463 . S
C496 N500 1.427 . S
C497 H487 0.929 . S
C497 C495 1.433 . S
C497 N500 1.384 . S
C498 H489 0.929 . S
C498 C490 1.378 . S
C498 C493 1.350 . S
C499 H486 0.929 . S
C499 C491 1.433 . S
C499 N501 1.384 . S
N500 C496 1.427 . S
N500 C497 1.384 . S
N501 C493 1.427 . S
N501 C499 1.384 . S
H502 C508 0.930 . S
H503 C512 0.930 . S
H504 C517 0.929 . S
H505 C515 0.929 . S
H506 C510 0.929 . S
H507 C516 0.929 . S
C508 H502 0.930 . S
C508 C509 1.367 . S
C508 C516 1.378 . S
C509 C508 1.367 . S
C509 C517 1.433 . S
C510 H506 0.929 . S
C510 C512 1.378 . S
C510 C514 1.350 . S
C511 C514 1.463 . S
C511 C516 1.350 . S
C511 N519 1.427 . S
C512 H503 0.930 . S
C512 C510 1.378 . S
C512 C513 1.367 . S
C513 C512 1.367 . S
C513 C515 1.433 . S
C514 C510 1.350 . S
C514 C511 1.463 . S
C514 N518 1.427 . S
C515 H505 0.929 . S
C515 C513 1.433 . S
C515 N518 1.384 . S
C516 H507 0.929 . S
C516 C508 1.378 . S
C516 C511 1.350 . S
C517 H504 0.929 . S
C517 C509 1.433 . S
C517 N519 1.384 . S
N518 C514 1.427 . S
N518 C515 1.384 . S
N519 C511 1.427 . S
N519 C517 1.384 . S
H520 C526 0.930 . S
H521 C530 0.930 . S
H522 C535 0.929 . S
H523 C533 0.929 . S
H524 C528 0.929 . S
H525 C534 0.929 . S
C526 H520 0.930 . S
C526 C527 1.367 . S
C526 C534 1.378 . S
C527 C526 1.367 . S
C527 C535 1.433 . S
C528 H524 0.929 . S
C528 C530 1.378 . S
C528 C532 1.350 . S
C529 C532 1.463 . S
C529 C534 1.350 . S
C529 N537 1.427 . S
C530 H521 0.930 . S
C530 C528 1.378 . S
C530 C531 1.367 . S
C531 C530 1.367 . S
C531 C533 1.433 . S
C532 C528 1.350 . S
C532 C529 1.463 . S
C532 N536 1.427 . S
C533 H523 0.929 . S
C533 C531 1.433 . S
C533 N536 1.384 . S
C534 H525 0.929 . S
C534 C526 1.378 . S
C534 C529 1.350 . S
C535 H522 0.929 . S
C535 C527 1.433 . S
C535 N537 1.384 . S
N536 C532 1.427 . S
N536 C533 1.384 . S
N537 C529 1.427 . S
N537 C535 1.384 . S
H538 C544 0.930 . S
H539 C548 0.930 . S
H540 C553 0.929 . S
H541 C551 0.929 . S
H542 C546 0.929 . S
H543 C552 0.929 . S
C544 H538 0.930 . S
C544 C545 1.367 . S
C544 C552 1.378 . S
C545 C544 1.367 . S
C545 C553 1.433 . S
C546 H542 0.929 . S
C546 C548 1.378 . S
C546 C550 1.350 . S
C547 C550 1.463 . S
C547 C552 1.350 . S
C547 N555 1.427 . S
C548 H539 0.930 . S
C548 C546 1.378 . S
C548 C549 1.367 . S
C549 C548 1.367 . S
C549 C551 1.433 . S
C550 C546 1.350 . S
C550 C547 1.463 . S
C550 N554 1.427 . S
C551 H541 0.929 . S
C551 C549 1.433 . S
C551 N554 1.384 . S
C552 H543 0.929 . S
C552 C544 1.378 . S
C552 C547 1.350 . S
C553 H540 0.929 . S
C553 C545 1.433 . S
C553 N555 1.384 . S
N554 C550 1.427 . S
N554 C551 1.384 . S
N555 C547 1.427 . S
N555 C553 1.384 . S
H556 C562 0.930 . S
H557 C566 0.930 . S
H558 C571 0.929 . S
H559 C569 0.929 . S
H560 C564 0.929 . S
H561 C570 0.929 . S
C562 H556 0.930 . S
C562 C563 1.367 . S
C562 C570 1.378 . S
C563 C562 1.367 . S
C563 C571 1.433 . S
C564 H560 0.929 . S
C564 C566 1.378 . S
C564 C568 1.350 . S
C565 C568 1.463 . S
C565 C570 1.350 . S
C565 N573 1.427 . S
C566 H557 0.930 . S
C566 C564 1.378 . S
C566 C567 1.367 . S
C567 C566 1.367 . S
C567 C569 1.433 . S
C568 C564 1.350 . S
C568 C565 1.463 . S
C568 N572 1.427 . S
C569 H559 0.929 . S
C569 C567 1.433 . S
C569 N572 1.384 . S
C570 H561 0.929 . S
C570 C562 1.378 . S
C570 C565 1.350 . S
C571 H558 0.929 . S
C571 C563 1.433 . S
C571 N573 1.384 . S
N572 C568 1.427 . S
N572 C569 1.384 . S
N573 C565 1.427 . S
N573 C571 1.384 . S
H574 C580 0.930 . S
H575 C584 0.930 . S
H576 C589 0.929 . S
H577 C587 0.929 . S
H578 C582 0.929 . S
H579 C588 0.929 . S
C580 H574 0.930 . S
C580 C581 1.367 . S
C580 C588 1.378 . S
C581 C580 1.367 . S
C581 C589 1.433 . S
C582 H578 0.929 . S
C582 C584 1.378 . S
C582 C586 1.350 . S
C583 C586 1.463 . S
C583 C588 1.350 . S
C583 N591 1.427 . S
C584 H575 0.930 . S
C584 C582 1.378 . S
C584 C585 1.367 . S
C585 C584 1.367 . S
C585 C587 1.433 . S
C586 C582 1.350 . S
C586 C583 1.463 . S
C586 N590 1.427 . S
C587 H577 0.929 . S
C587 C585 1.433 . S
C587 N590 1.384 . S
C588 H579 0.929 . S
C588 C580 1.378 . S
C588 C583 1.350 . S
C589 H576 0.929 . S
C589 C581 1.433 . S
C589 N591 1.384 . S
N590 C586 1.427 . S
N590 C587 1.384 . S
N591 C583 1.427 . S
N591 C589 1.384 . S
H592 C598 0.930 . S
H593 C602 0.930 . S
H594 C607 0.929 . S
H595 C605 0.929 . S
H596 C600 0.929 . S
H597 C606 0.929 . S
C598 H592 0.930 . S
C598 C599 1.367 . S
C598 C606 1.378 . S
C599 C598 1.367 . S
C599 C607 1.433 . S
C600 H596 0.929 . S
C600 C602 1.378 . S
C600 C604 1.350 . S
C601 C604 1.463 . S
C601 C606 1.350 . S
C601 N609 1.427 . S
C602 H593 0.930 . S
C602 C600 1.378 . S
C602 C603 1.367 . S
C603 C602 1.367 . S
C603 C605 1.433 . S
C604 C600 1.350 . S
C604 C601 1.463 . S
C604 N608 1.427 . S
C605 H595 0.929 . S
C605 C603 1.433 . S
C605 N608 1.384 . S
C606 H597 0.929 . S
C606 C598 1.378 . S
C606 C601 1.350 . S
C607 H594 0.929 . S
C607 C599 1.433 . S
C607 N609 1.384 . S
N608 C604 1.427 . S
N608 C605 1.384 . S
N609 C601 1.427 . S
N609 C607 1.384 . S
H610 C616 0.930 . S
H611 C620 0.930 . S
H612 C625 0.929 . S
H613 C623 0.929 . S
H614 C618 0.929 . S
H615 C624 0.929 . S
C616 H610 0.930 . S
C616 C617 1.367 . S
C616 C624 1.378 . S
C617 C616 1.367 . S
C617 C625 1.433 . S
C618 H614 0.929 . S
C618 C620 1.378 . S
C618 C622 1.350 . S
C619 C622 1.463 . S
C619 C624 1.350 . S
C619 N627 1.427 . S
C620 H611 0.930 . S
C620 C618 1.378 . S
C620 C621 1.367 . S
C621 C620 1.367 . S
C621 C623 1.433 . S
C622 C618 1.350 . S
C622 C619 1.463 . S
C622 N626 1.427 . S
C623 H613 0.929 . S
C623 C621 1.433 . S
C623 N626 1.384 . S
C624 H615 0.929 . S
C624 C616 1.378 . S
C624 C619 1.350 . S
C625 H612 0.929 . S
C625 C617 1.433 . S
C625 N627 1.384 . S
N626 C622 1.427 . S
N626 C623 1.384 . S
N627 C619 1.427 . S
N627 C625 1.384 . S
H628 C634 0.930 . S
H629 C638 0.930 . S
H630 C643 0.929 . S
H631 C641 0.929 . S
H632 C636 0.929 . S
H633 C642 0.929 . S
C634 H628 0.930 . S
C634 C635 1.367 . S
C634 C642 1.378 . S
C635 C634 1.367 . S
C635 C643 1.433 . S
C636 H632 0.929 . S
C636 C638 1.378 . S
C636 C640 1.350 . S
C637 C640 1.463 . S
C637 C642 1.350 . S
C637 N645 1.427 . S
C638 H629 0.930 . S
C638 C636 1.378 . S
C638 C639 1.367 . S
C639 C638 1.367 . S
C639 C641 1.433 . S
C640 C636 1.350 . S
C640 C637 1.463 . S
C640 N644 1.427 . S
C641 H631 0.929 . S
C641 C639 1.433 . S
C641 N644 1.384 . S
C642 H633 0.929 . S
C642 C634 1.378 . S
C642 C637 1.350 . S
C643 H630 0.929 . S
C643 C635 1.433 . S
C643 N645 1.384 . S
N644 C640 1.427 . S
N644 C641 1.384 . S
N645 C637 1.427 . S
N645 C643 1.384 . S
H646 C652 0.930 . S
H647 C656 0.930 . S
H648 C661 0.929 . S
H649 C659 0.929 . S
H650 C654 0.929 . S
H651 C660 0.929 . S
C652 H646 0.930 . S
C652 C653 1.367 . S
C652 C660 1.378 . S
C653 C652 1.367 . S
C653 C661 1.433 . S
C654 H650 0.929 . S
C654 C656 1.378 . S
C654 C658 1.350 . S
C655 C658 1.463 . S
C655 C660 1.350 . S
C655 N663 1.427 . S
C656 H647 0.930 . S
C656 C654 1.378 . S
C656 C657 1.367 . S
C657 C656 1.367 . S
C657 C659 1.433 . S
C658 C654 1.350 . S
C658 C655 1.463 . S
C658 N662 1.427 . S
C659 H649 0.929 . S
C659 C657 1.433 . S
C659 N662 1.384 . S
C660 H651 0.929 . S
C660 C652 1.378 . S
C660 C655 1.350 . S
C661 H648 0.929 . S
C661 C653 1.433 . S
C661 N663 1.384 . S
N662 C658 1.427 . S
N662 C659 1.384 . S
N663 C655 1.427 . S
N663 C661 1.384 . S
H664 C670 0.930 . S
H665 C674 0.930 . S
H666 C679 0.929 . S
H667 C677 0.929 . S
H668 C672 0.929 . S
H669 C678 0.929 . S
C670 H664 0.930 . S
C670 C671 1.358 1_556 S
C670 C678 1.378 . S
C671 C670 1.358 1_554 S
C671 C679 1.442 . S
C672 H668 0.929 . S
C672 C674 1.378 . S
C672 C676 1.350 . S
C673 C676 1.462 1_556 S
C673 C678 1.356 . S
C673 N681 1.422 1_556 S
C674 H665 0.930 . S
C674 C672 1.378 . S
C674 C675 1.367 . S
C675 C674 1.367 . S
C675 C677 1.433 1_554 S
C676 C672 1.350 . S
C676 C673 1.462 1_554 S
C676 N680 1.427 1_554 S
C677 H667 0.929 . S
C677 C675 1.433 1_556 S
C677 N680 1.384 . S
C678 H669 0.929 . S
C678 C670 1.378 . S
C678 C673 1.356 . S
C679 H666 0.929 . S
C679 C671 1.442 . S
C679 N681 1.384 . S
N680 C676 1.427 1_556 S
N680 C677 1.384 . S
N681 C673 1.422 1_554 S
N681 C679 1.384 . S
H682 C688 0.930 . S
H683 C692 0.930 . S
H684 C697 0.929 . S
H685 C695 0.929 . S
H686 C690 0.929 . S
H687 C696 0.929 . S
C688 H682 0.930 . S
C688 C689 1.367 . S
C688 C696 1.378 . S
C689 C688 1.367 . S
C689 C697 1.433 . S
C690 H686 0.929 . S
C690 C692 1.378 . S
C690 C694 1.350 . S
C691 C694 1.463 . S
C691 C696 1.350 . S
C691 N699 1.427 . S
C692 H683 0.930 . S
C692 C690 1.378 . S
C692 C693 1.367 . S
C693 C692 1.367 . S
C693 C695 1.433 . S
C694 C690 1.350 . S
C694 C691 1.463 . S
C694 N698 1.427 . S
C695 H685 0.929 . S
C695 C693 1.433 . S
C695 N698 1.384 . S
C696 H687 0.929 . S
C696 C688 1.378 . S
C696 C691 1.350 . S
C697 H684 0.929 . S
C697 C689 1.433 . S
C697 N699 1.384 . S
N698 C694 1.427 . S
N698 C695 1.384 . S
N699 C691 1.427 . S
N699 C697 1.384 . S
H700 C706 0.930 . S
H701 C710 0.930 . S
H702 C715 0.929 . S
H703 C713 0.929 . S
H704 C708 0.929 . S
H705 C714 0.929 . S
C706 H700 0.930 . S
C706 C707 1.349 1_556 S
C706 C714 1.378 . S
C707 C706 1.349 1_554 S
C707 C715 1.451 . S
C708 H704 0.929 . S
C708 C710 1.378 . S
C708 C712 1.350 . S
C709 C712 1.463 . S
C709 C714 1.341 1_554 S
C709 N717 1.437 . S
C710 H701 0.930 . S
C710 C708 1.378 . S
C710 C711 1.367 . S
C711 C710 1.367 . S
C711 C713 1.433 1_554 S
C712 C708 1.350 . S
C712 C709 1.463 . S
C712 N716 1.427 1_554 S
C713 H703 0.929 . S
C713 C711 1.433 1_556 S
C713 N716 1.384 . S
C714 H705 0.929 . S
C714 C706 1.378 . S
C714 C709 1.341 1_556 S
C715 H702 0.929 . S
C715 C707 1.451 . S
C715 N717 1.384 . S
N716 C712 1.427 1_556 S
N716 C713 1.384 . S
N717 C709 1.437 . S
N717 C715 1.384 . S
H718 C724 0.930 . S
H719 C728 0.930 . S
H720 C733 0.929 . S
H721 C731 0.929 . S
H722 C726 0.929 . S
H723 C732 0.929 . S
C724 H718 0.930 . S
C724 C725 1.367 . S
C724 C732 1.378 . S
C725 C724 1.367 . S
C725 C733 1.433 . S
C726 H722 0.929 . S
C726 C728 1.378 . S
C726 C730 1.350 . S
C727 C730 1.463 . S
C727 C732 1.350 . S
C727 N735 1.427 . S
C728 H719 0.930 . S
C728 C726 1.378 . S
C728 C729 1.367 . S
C729 C728 1.367 . S
C729 C731 1.433 . S
C730 C726 1.350 . S
C730 C727 1.463 . S
C730 N734 1.427 . S
C731 H721 0.929 . S
C731 C729 1.433 . S
C731 N734 1.384 . S
C732 H723 0.929 . S
C732 C724 1.378 . S
C732 C727 1.350 . S
C733 H720 0.929 . S
C733 C725 1.433 . S
C733 N735 1.384 . S
N734 C730 1.427 . S
N734 C731 1.384 . S
N735 C727 1.427 . S
N735 C733 1.384 . S
H736 C742 0.930 . S
H737 C746 0.930 . S
H738 C751 0.929 . S
H739 C749 0.929 . S
H740 C744 0.929 . S
H741 C750 0.929 . S
C742 H736 0.930 . S
C742 C743 1.367 . S
C742 C750 1.378 . S
C743 C742 1.367 . S
C743 C751 1.433 . S
C744 H740 0.929 . S
C744 C746 1.378 . S
C744 C748 1.350 . S
C745 C748 1.463 . S
C745 C750 1.350 . S
C745 N753 1.427 . S
C746 H737 0.930 . S
C746 C744 1.378 . S
C746 C747 1.367 . S
C747 C746 1.367 . S
C747 C749 1.433 . S
C748 C744 1.350 . S
C748 C745 1.463 . S
C748 N752 1.427 . S
C749 H739 0.929 . S
C749 C747 1.433 . S
C749 N752 1.384 . S
C750 H741 0.929 . S
C750 C742 1.378 . S
C750 C745 1.350 . S
C751 H738 0.929 . S
C751 C743 1.433 . S
C751 N753 1.384 . S
N752 C748 1.427 . S
N752 C749 1.384 . S
N753 C745 1.427 . S
N753 C751 1.384 . S
H754 C760 0.930 . S
H755 C764 0.930 . S
H756 C769 0.929 . S
H757 C767 0.929 . S
H758 C762 0.929 . S
H759 C768 0.929 . S
C760 H754 0.930 . S
C760 C761 1.367 . S
C760 C768 1.378 . S
C761 C760 1.367 . S
C761 C769 1.433 1_554 S
C762 H758 0.929 . S
C762 C764 1.378 . S
C762 C766 1.347 1_556 S
C763 C766 1.463 . S
C763 C768 1.350 . S
C763 N771 1.427 1_554 S
C764 H755 0.930 . S
C764 C762 1.378 . S
C764 C765 1.361 1_556 S
C765 C764 1.361 1_554 S
C765 C767 1.439 . S
C766 C762 1.347 1_554 S
C766 C763 1.463 . S
C766 N770 1.431 . S
C767 H757 0.929 . S
C767 C765 1.439 . S
C767 N770 1.384 . S
C768 H759 0.929 . S
C768 C760 1.378 . S
C768 C763 1.350 . S
C769 H756 0.929 . S
C769 C761 1.433 1_556 S
C769 N771 1.384 . S
N770 C766 1.431 . S
N770 C767 1.384 . S
N771 C763 1.427 1_556 S
N771 C769 1.384 . S
H772 C778 0.930 . S
H773 C782 0.930 . S
H774 C787 0.929 . S
H775 C785 0.929 . S
H776 C780 0.929 . S
H777 C786 0.929 . S
C778 H772 0.930 . S
C778 C779 1.367 . S
C778 C786 1.378 . S
C779 C778 1.367 . S
C779 C787 1.433 . S
C780 H776 0.929 . S
C780 C782 1.378 . S
C780 C784 1.350 . S
C781 C784 1.463 . S
C781 C786 1.350 . S
C781 N789 1.427 . S
C782 H773 0.930 . S
C782 C780 1.378 . S
C782 C783 1.367 . S
C783 C782 1.367 . S
C783 C785 1.433 . S
C784 C780 1.350 . S
C784 C781 1.463 . S
C784 N788 1.427 . S
C785 H775 0.929 . S
C785 C783 1.433 . S
C785 N788 1.384 . S
C786 H777 0.929 . S
C786 C778 1.378 . S
C786 C781 1.350 . S
C787 H774 0.929 . S
C787 C779 1.433 . S
C787 N789 1.384 . S
N788 C784 1.427 . S
N788 C785 1.384 . S
N789 C781 1.427 . S
N789 C787 1.384 . S
H790 C796 0.930 . S
H791 C800 0.930 . S
H792 C805 0.929 . S
H793 C803 0.929 . S
H794 C798 0.929 . S
H795 C804 0.929 . S
C796 H790 0.930 . S
C796 C797 1.371 . S
C796 C804 1.378 . S
C797 C796 1.371 . S
C797 C805 1.429 1_556 S
C798 H794 0.929 . S
C798 C800 1.378 . S
C798 C802 1.350 . S
C799 C802 1.462 1_556 S
C799 C804 1.357 . S
C799 N807 1.420 1_556 S
C800 H791 0.930 . S
C800 C798 1.378 . S
C800 C801 1.367 . S
C801 C800 1.367 . S
C801 C803 1.433 1_554 S
C802 C798 1.350 . S
C802 C799 1.462 1_554 S
C802 N806 1.427 1_554 S
C803 H793 0.929 . S
C803 C801 1.433 1_556 S
C803 N806 1.384 . S
C804 H795 0.929 . S
C804 C796 1.378 . S
C804 C799 1.357 . S
C805 H792 0.929 . S
C805 C797 1.429 1_554 S
C805 N807 1.384 . S
N806 C802 1.427 1_556 S
N806 C803 1.384 . S
N807 C799 1.420 1_554 S
N807 C805 1.384 . S
C383 C21 1.617 . S
C387 C197 1.588 . S
C401 C40 1.737 . S
C405 C119 1.638 . S
C423 C155 1.581 . S
C419 C54 1.597 . S
C437 C73 1.774 . S
C441 C161 1.747 . S
C459 C299 1.577 . S
C455 C74 1.592 . S
C477 C305 1.696 . S
C473 C10 1.736 . S
C495 C341 1.600 . S
C491 C37 1.622 . S
C513 C263 1.685 . S
C509 C65 1.779 . S
C527 C52 1.595 . S
C531 C125 1.578 . S
C545 C87 1.773 . S
C549 C191 1.745 . S
C563 C15 1.628 . S
C567 C227 1.577 . S
C585 C89 1.647 . S
C581 C32 1.729 . S
C599 C29 1.629 . S
C603 C371 1.577 . S
C621 C233 1.704 . S
C617 C59 1.773 . S
C639 C269 1.579 . S
C635 C84 1.597 . S
C653 C8 1.732 . S
C657 C335 1.691 . S
C675 C113 1.758 1_554 S
C671 C7 1.849 . S
C693 C149 1.680 . S
C689 C30 1.680 . S
C707 C62 1.865 . S
C711 C185 1.833 . S
C725 C81 1.660 . S
C729 C221 1.634 . S
C747 C257 1.778 . S
C743 C76 1.865 . S
C761 C18 1.686 . S
C765 C293 1.686 . S
C779 C43 1.848 . S
C783 C329 1.816 . S
C797 C51 1.660 . S
C801 C365 1.635 1_554 S
