# Generated by pormake.
# Topology wbl, (4,4)-cn, num edge types: 1
# Building blocks:
#     Node 0, Type 0, BuildingBlock: MIFKUJ_clean_linker_1, # of connection points: 4
#     Node 1, Type 0, BuildingBlock: MIFKUJ_clean_linker_1, # of connection points: 4
#     Node 2, Type 0, BuildingBlock: MIFKUJ_clean_linker_1, # of connection points: 4
#     Node 3, Type 0, BuildingBlock: MIFKUJ_clean_linker_1, # of connection points: 4
#     Node 4, Type 0, BuildingBlock: MIFKUJ_clean_linker_1, # of connection points: 4
#     Node 5, Type 0, BuildingBlock: MIFKUJ_clean_linker_1, # of connection points: 4
#     Node 6, Type 0, BuildingBlock: MIFKUJ_clean_linker_1, # of connection points: 4
#     Node 7, Type 0, BuildingBlock: MIFKUJ_clean_linker_1, # of connection points: 4
#     Node 8, Type 1, BuildingBlock: GALJAG_clean_sbu_0, # of connection points: 4
#     Node 9, Type 1, BuildingBlock: GALJAG_clean_sbu_0, # of connection points: 4
#     Node 10, Type 1, BuildingBlock: GALJAG_clean_sbu_0, # of connection points: 4
#     Node 11, Type 1, BuildingBlock: GALJAG_clean_sbu_0, # of connection points: 4
#     Node 12, Type 1, BuildingBlock: GALJAG_clean_sbu_0, # of connection points: 4
#     Node 13, Type 1, BuildingBlock: GALJAG_clean_sbu_0, # of connection points: 4
#     Node 14, Type 1, BuildingBlock: GALJAG_clean_sbu_0, # of connection points: 4
#     Node 15, Type 1, BuildingBlock: GALJAG_clean_sbu_0, # of connection points: 4
#     Edge 16, Type (0, 1), BuildingBlock: XIVTED_clean_linker_0, # of connection points: 2
#     Edge 17, Type (0, 1), BuildingBlock: XIVTED_clean_linker_0, # of connection points: 2
#     Edge 18, Type (0, 1), BuildingBlock: XIVTED_clean_linker_0, # of connection points: 2
#     Edge 19, Type (0, 1), BuildingBlock: XIVTED_clean_linker_0, # of connection points: 2
#     Edge 20, Type (0, 1), BuildingBlock: XIVTED_clean_linker_0, # of connection points: 2
#     Edge 21, Type (0, 1), BuildingBlock: XIVTED_clean_linker_0, # of connection points: 2
#     Edge 22, Type (0, 1), BuildingBlock: XIVTED_clean_linker_0, # of connection points: 2
#     Edge 23, Type (0, 1), BuildingBlock: XIVTED_clean_linker_0, # of connection points: 2
#     Edge 24, Type (0, 1), BuildingBlock: XIVTED_clean_linker_0, # of connection points: 2
#     Edge 25, Type (0, 1), BuildingBlock: XIVTED_clean_linker_0, # of connection points: 2
#     Edge 26, Type (0, 1), BuildingBlock: XIVTED_clean_linker_0, # of connection points: 2
#     Edge 27, Type (0, 1), BuildingBlock: XIVTED_clean_linker_0, # of connection points: 2
#     Edge 28, Type (0, 1), BuildingBlock: XIVTED_clean_linker_0, # of connection points: 2
#     Edge 29, Type (0, 1), BuildingBlock: XIVTED_clean_linker_0, # of connection points: 2
#     Edge 30, Type (0, 1), BuildingBlock: XIVTED_clean_linker_0, # of connection points: 2
#     Edge 31, Type (0, 1), BuildingBlock: XIVTED_clean_linker_0, # of connection points: 2
#     Edge 32, Type (0, 1), BuildingBlock: XIVTED_clean_linker_0, # of connection points: 2
#     Edge 33, Type (0, 1), BuildingBlock: XIVTED_clean_linker_0, # of connection points: 2
#     Edge 34, Type (0, 1), BuildingBlock: XIVTED_clean_linker_0, # of connection points: 2
#     Edge 35, Type (0, 1), BuildingBlock: XIVTED_clean_linker_0, # of connection points: 2
#     Edge 36, Type (0, 1), BuildingBlock: XIVTED_clean_linker_0, # of connection points: 2
#     Edge 37, Type (0, 1), BuildingBlock: XIVTED_clean_linker_0, # of connection points: 2
#     Edge 38, Type (0, 1), BuildingBlock: XIVTED_clean_linker_0, # of connection points: 2
#     Edge 39, Type (0, 1), BuildingBlock: XIVTED_clean_linker_0, # of connection points: 2
#     Edge 40, Type (0, 1), BuildingBlock: XIVTED_clean_linker_0, # of connection points: 2
#     Edge 41, Type (0, 1), BuildingBlock: XIVTED_clean_linker_0, # of connection points: 2
#     Edge 42, Type (0, 1), BuildingBlock: XIVTED_clean_linker_0, # of connection points: 2
#     Edge 43, Type (0, 1), BuildingBlock: XIVTED_clean_linker_0, # of connection points: 2
#     Edge 44, Type (0, 1), BuildingBlock: XIVTED_clean_linker_0, # of connection points: 2
#     Edge 45, Type (0, 1), BuildingBlock: XIVTED_clean_linker_0, # of connection points: 2
#     Edge 46, Type (0, 1), BuildingBlock: XIVTED_clean_linker_0, # of connection points: 2
#     Edge 47, Type (0, 1), BuildingBlock: XIVTED_clean_linker_0, # of connection points: 2
# Relax obj value: 0.140
# Max RMSD: 0.144
# Mean RMSD: 0.131
data_MOF--net-wbl--node1-GALJAG_clean_sbu_0--node2-MIFKUJ_clean_linker_1--edge1-XIVTED_clean_linker_0
_symmetry_space_group_name_H-M    P1
_symmetry_Int_Tables_number       1
_symmetry_cell_setting            triclinic
loop_
_symmetry_equiv_pos_as_xyz
'x, y, z'
_cell_length_a     44.993121
_cell_length_b     45.112379
_cell_length_c     82.36649
_cell_angle_alpha  90.078168
_cell_angle_beta   90.050115
_cell_angle_gamma 90.050431
loop_
_atom_site_label
_atom_site_type_symbol
_atom_site_fract_x
_atom_site_fract_y
_atom_site_fract_z
_atom_type_partial_charge
H0 H 0.00101 0.06861 0.37698 0.0
H1 H 0.97032 0.09752 0.3956 0.0
H2 H 0.89172 0.05372 0.37721 0.0
H3 H 0.92273 0.02452 0.35868 0.0
H4 H 0.00555 0.0086 0.37812 0.0
H5 H 0.97974 0.08248 0.33935 0.0
H6 H 0.94687 0.11476 0.32372 0.0
H7 H 0.90434 0.03765 0.30282 0.0
H8 H 0.93754 0.00554 0.31837 0.0
H9 H 0.00745 0.93806 0.31943 0.0
H10 H 0.04291 0.90911 0.30316 0.0
H11 H 0.11506 0.96178 0.32239 0.0
H12 H 0.07975 0.99049 0.33849 0.0
H13 H 0.99754 0.00021 0.31822 0.0
H14 H 0.0248 0.92674 0.35867 0.0
H15 H 0.05455 0.89717 0.37753 0.0
H16 H 0.09658 0.9772 0.39521 0.0
H17 H 0.0662 0.00653 0.37667 0.0
C18 C 0.96414 0.04448 0.36645 0.0
C19 C 0.97712 0.06554 0.37681 0.0
C20 C 0.95954 0.08216 0.38737 0.0
C21 C 0.92861 0.07783 0.3879 0.0
C22 C 0.91552 0.05733 0.37716 0.0
C23 C 0.93315 0.04084 0.36649 0.0
C24 C 0.98332 0.02459 0.35672 0.0
C25 C 0.00403 0.00705 0.36499 0.0
C26 C 0.98078 0.02206 0.33966 0.0
C27 C 0.96082 0.0416 0.33018 0.0
C28 C 0.96318 0.07255 0.33148 0.0
C29 C 0.94438 0.09097 0.32254 0.0
C30 C 0.92293 0.0788 0.31203 0.0
C31 C 0.92088 0.04777 0.31062 0.0
C32 C 0.93972 0.02936 0.31956 0.0
C33 C 0.04105 0.96624 0.33021 0.0
C34 C 0.03094 0.94322 0.32014 0.0
C35 C 0.05115 0.92667 0.31093 0.0
C36 C 0.08166 0.93334 0.31147 0.0
C37 C 0.09164 0.95637 0.32161 0.0
C38 C 0.07153 0.97262 0.33091 0.0
C39 C 0.01992 0.98445 0.33968 0.0
C40 C -0.00114 0.00166 0.33135 0.0
C41 C 0.02238 0.98708 0.3567 0.0
C42 C 0.04322 0.96881 0.36636 0.0
C43 C 0.04081 0.9378 0.36643 0.0
C44 C 0.05788 0.92093 0.3772 0.0
C45 C 0.07767 0.93485 0.38805 0.0
C46 C 0.08106 0.96582 0.3873 0.0
C47 C 0.06387 0.98263 0.37664 0.0
H48 H 0.98392 0.44797 0.56407 0.0
H49 H 0.95053 0.41443 0.54955 0.0
H50 H 0.87487 0.45828 0.57111 0.0
H51 H 0.90841 0.49204 0.5855 0.0
H52 H 0.99333 0.50545 0.56427 0.0
H53 H 0.95996 0.43387 0.6035 0.0
H54 H 0.93 0.40519 0.62271 0.0
H55 H 0.8967 0.48655 0.64351 0.0
H56 H 0.9263 0.5151 0.62419 0.0
H57 H 0.99578 0.57596 0.62176 0.0
H58 H 0.02915 0.60258 0.6402 0.0
H59 H 0.10185 0.54645 0.62517 0.0
H60 H 0.06832 0.51999 0.60659 0.0
H61 H 0.98493 0.51449 0.62409 0.0
H62 H 0.02165 0.58547 0.58706 0.0
H63 H 0.0604 0.6135 0.57317 0.0
H64 H 0.08933 0.53383 0.54883 0.0
H65 H 0.05122 0.50531 0.56338 0.0
C66 C 0.94872 0.47228 0.57604 0.0
C67 C 0.96014 0.45063 0.56552 0.0
C68 C 0.94101 0.43151 0.5572 0.0
C69 C 0.91006 0.43366 0.55924 0.0
C70 C 0.89862 0.45583 0.56948 0.0
C71 C 0.91777 0.4751 0.5777 0.0
C72 C 0.96925 0.49135 0.58555 0.0
C73 C 0.99167 0.50717 0.57737 0.0
C74 C 0.96673 0.49416 0.60261 0.0
C75 C 0.94536 0.47665 0.6124 0.0
C76 C 0.94556 0.44552 0.61188 0.0
C77 C 0.92847 0.42915 0.62287 0.0
C78 C 0.91128 0.44369 0.63468 0.0
C79 C 0.91005 0.47481 0.63466 0.0
C80 C 0.9269 0.49111 0.62362 0.0
C81 C 0.02965 0.54612 0.61281 0.0
C82 C 0.019 0.56968 0.62229 0.0
C83 C 0.03809 0.58494 0.63273 0.0
C84 C 0.06805 0.57654 0.63408 0.0
C85 C 0.07882 0.55326 0.62438 0.0
C86 C 0.05978 0.53826 0.61374 0.0
C87 C 0.00871 0.52849 0.60286 0.0
C88 C 0.98635 0.51288 0.61096 0.0
C89 C 0.01141 0.52585 0.58581 0.0
C90 C 0.03394 0.54309 0.57661 0.0
C91 C 0.03663 0.57382 0.57899 0.0
C92 C 0.05869 0.58986 0.57101 0.0
C93 C 0.07803 0.5757 0.56012 0.0
C94 C 0.07471 0.54519 0.55722 0.0
C95 C 0.05293 0.52896 0.56548 0.0
H96 H 0.51178 0.56911 0.87148 0.0
H97 H 0.48196 0.59741 0.8908 0.0
H98 H 0.40242 0.55498 0.87279 0.0
H99 H 0.43247 0.52635 0.85349 0.0
H100 H 0.51458 0.51011 0.8737 0.0
H101 H 0.48286 0.58095 0.83425 0.0
H102 H 0.44528 0.60876 0.81944 0.0
H103 H 0.41641 0.52776 0.79602 0.0
H104 H 0.45195 0.49985 0.81206 0.0
H105 H 0.50991 0.43874 0.81473 0.0
H106 H 0.54041 0.40133 0.80093 0.0
H107 H 0.61865 0.4359 0.82471 0.0
H108 H 0.58855 0.47398 0.83786 0.0
H109 H 0.50712 0.49581 0.81418 0.0
H110 H 0.52871 0.42537 0.85726 0.0
H111 H 0.55569 0.39615 0.87755 0.0
H112 H 0.60173 0.47525 0.89331 0.0
H113 H 0.57448 0.50425 0.87323 0.0
C114 C 0.47437 0.54557 0.86109 0.0
C115 C 0.48786 0.56629 0.87147 0.0
C116 C 0.47085 0.58236 0.88252 0.0
C117 C 0.43998 0.57808 0.8834 0.0
C118 C 0.42617 0.55877 0.8723 0.0
C119 C 0.4433 0.54246 0.86127 0.0
C120 C 0.49325 0.52474 0.85175 0.0
C121 C 0.51328 0.50737 0.86062 0.0
C122 C 0.49074 0.52051 0.83477 0.0
C123 C 0.46976 0.5381 0.82468 0.0
C124 C 0.46807 0.5691 0.82615 0.0
C125 C 0.44684 0.58511 0.8174 0.0
C126 C 0.42736 0.57058 0.80662 0.0
C127 C 0.43029 0.53973 0.80454 0.0
C128 C 0.451 0.52369 0.81357 0.0
C129 C 0.54682 0.45887 0.8276 0.0
C130 C 0.53367 0.43842 0.81687 0.0
C131 C 0.55102 0.41704 0.80904 0.0
C132 C 0.58172 0.41555 0.81198 0.0
C133 C 0.5949 0.43624 0.82251 0.0
C134 C 0.57769 0.45793 0.83007 0.0
C135 C 0.52832 0.48113 0.83621 0.0
C136 C 0.50844 0.49875 0.82723 0.0
C137 C 0.53058 0.48551 0.85317 0.0
C138 C 0.54957 0.46698 0.86379 0.0
C139 C 0.54504 0.43625 0.86489 0.0
C140 C 0.56048 0.41959 0.87647 0.0
C141 C 0.58056 0.43347 0.88717 0.0
C142 C 0.58597 0.46401 0.88548 0.0
C143 C 0.57055 0.48059 0.87396 0.0
H144 H 0.49643 0.95052 0.06098 0.0
H145 H 0.46827 0.91589 0.04447 0.0
H146 H 0.38854 0.93817 0.07119 0.0
H147 H 0.41633 0.9752 0.08641 0.0
H148 H 0.49855 0.00502 0.06477 0.0
H149 H 0.47659 0.92599 0.10314 0.0
H150 H 0.44781 0.89231 0.12042 0.0
H151 H 0.40043 0.96722 0.1404 0.0
H152 H 0.42893 0.00057 0.12301 0.0
H153 H 0.49287 0.0637 0.12723 0.0
H154 H 0.52274 0.09327 0.14581 0.0
H155 H 0.60277 0.06089 0.12276 0.0
H156 H 0.57262 0.02973 0.10492 0.0
H157 H 0.48971 0.00639 0.12474 0.0
H158 H 0.51983 0.08503 0.08914 0.0
H159 H 0.55671 0.11667 0.07592 0.0
H160 H 0.59254 0.04047 0.05096 0.0
H161 H 0.55631 0.00859 0.06468 0.0
C162 C 0.45876 0.96511 0.07526 0.0
C163 C 0.47278 0.94834 0.06313 0.0
C164 C 0.45662 0.9281 0.05382 0.0
C165 C 0.42608 0.92354 0.05665 0.0
C166 C 0.41191 0.941 0.06852 0.0
C167 C 0.42797 0.96187 0.07752 0.0
C168 C 0.47655 0.98578 0.08549 0.0
C169 C 0.49683 0.00504 0.07791 0.0
C170 C 0.47399 0.98646 0.10262 0.0
C171 C 0.45478 0.96573 0.11178 0.0
C172 C 0.45962 0.93503 0.11105 0.0
C173 C 0.44333 0.91587 0.12098 0.0
C174 C 0.42188 0.92713 0.13177 0.0
C175 C 0.4165 0.95782 0.13208 0.0
C176 C 0.4329 0.97693 0.12224 0.0
C177 C 0.53043 0.04465 0.11458 0.0
C178 C 0.51687 0.06295 0.12619 0.0
C179 C 0.53404 0.08017 0.13669 0.0
C180 C 0.56528 0.07972 0.13577 0.0
C181 C 0.57883 0.0616 0.12397 0.0
C182 C 0.56159 0.04403 0.1136 0.0
C183 C 0.51181 0.02535 0.10406 0.0
C184 C 0.49134 0.00642 0.1116 0.0
C185 C 0.51458 0.02471 0.08693 0.0
C186 C 0.53563 0.04432 0.07815 0.0
C187 C 0.5358 0.07503 0.08097 0.0
C188 C 0.55684 0.09309 0.07341 0.0
C189 C 0.5776 0.08089 0.06257 0.0
C190 C 0.57675 0.05037 0.05928 0.0
C191 C 0.55603 0.03221 0.06707 0.0
H192 H 0.98145 0.58088 0.88738 0.0
H193 H 0.00804 0.61437 0.86918 0.0
H194 H 0.09028 0.56913 0.88022 0.0
H195 H 0.06357 0.53619 0.89869 0.0
H196 H 0.97833 0.52081 0.88276 0.0
H197 H 0.00994 0.58777 0.92467 0.0
H198 H 0.04576 0.61736 0.94008 0.0
H199 H 0.09349 0.53746 0.95266 0.0
H200 H 0.05738 0.50806 0.93741 0.0
H201 H 0.99044 0.43796 0.93547 0.0
H202 H 0.95955 0.40392 0.95162 0.0
H203 H 0.88258 0.45802 0.94163 0.0
H204 H 0.91326 0.49155 0.92541 0.0
H205 H 0.99796 0.50091 0.941 0.0
H206 H 0.96922 0.4346 0.89813 0.0
H207 H 0.93954 0.40563 0.87899 0.0
H208 H 0.88776 0.4837 0.86776 0.0
H209 H 0.91824 0.51265 0.88654 0.0
C210 C 0.02054 0.55608 0.89437 0.0
C211 C 0.00529 0.57851 0.88605 0.0
C212 C 0.0205 0.59751 0.87559 0.0
C213 C 0.05125 0.59424 0.87309 0.0
C214 C 0.06668 0.5725 0.88198 0.0
C215 C 0.05144 0.55358 0.89252 0.0
C216 C 0.00373 0.53371 0.90378 0.0
C217 C 0.98228 0.51683 0.89557 0.0
C218 C 0.00968 0.52779 0.92032 0.0
C219 C 0.03118 0.54575 0.92977 0.0
C220 C 0.02822 0.57668 0.9307 0.0
C221 C 0.04872 0.59356 0.9395 0.0
C222 C 0.07251 0.5798 0.9476 0.0
C223 C 0.07518 0.54875 0.94678 0.0
C224 C 0.05465 0.5319 0.938 0.0
C225 C 0.95403 0.46713 0.92924 0.0
C226 C 0.96688 0.4423 0.93672 0.0
C227 C 0.94928 0.4229 0.94585 0.0
C228 C 0.91881 0.42854 0.94789 0.0
C229 C 0.90608 0.45337 0.94034 0.0
C230 C 0.92351 0.4724 0.93102 0.0
C231 C 0.9724 0.48834 0.91997 0.0
C232 C 0.99405 0.50499 0.9282 0.0
C233 C 0.9667 0.49411 0.90342 0.0
C234 C 0.94596 0.47577 0.8937 0.0
C235 C 0.9511 0.4453 0.89176 0.0
C236 C 0.93403 0.42875 0.88083 0.0
C237 C 0.91142 0.44238 0.87167 0.0
C238 C 0.9054 0.47262 0.87432 0.0
C239 C 0.92265 0.48918 0.88513 0.0
H240 H 0.48809 0.5571 0.19599 0.0
H241 H 0.45507 0.58977 0.21132 0.0
H242 H 0.37885 0.54695 0.18952 0.0
H243 H 0.41201 0.51441 0.17421 0.0
H244 H 0.49579 0.49853 0.19533 0.0
H245 H 0.47004 0.57267 0.15607 0.0
H246 H 0.44067 0.60462 0.13817 0.0
H247 H 0.39668 0.52739 0.11844 0.0
H248 H 0.42593 0.49562 0.13643 0.0
H249 H 0.49088 0.43403 0.13438 0.0
H250 H 0.5214 0.40472 0.11603 0.0
H251 H 0.60068 0.44 0.13872 0.0
H252 H 0.5699 0.47089 0.15623 0.0
H253 H 0.48645 0.49115 0.13545 0.0
H254 H 0.50889 0.41764 0.17724 0.0
H255 H 0.54252 0.3856 0.19272 0.0
H256 H 0.59517 0.46186 0.20612 0.0
H257 H 0.56098 0.49403 0.19088 0.0
C258 C 0.45254 0.53361 0.18379 0.0
C259 C 0.46426 0.55463 0.19461 0.0
C260 C 0.44535 0.57318 0.20341 0.0
C261 C 0.41432 0.57098 0.20161 0.0
C262 C 0.40264 0.54949 0.191 0.0
C263 C 0.42157 0.53091 0.18223 0.0
C264 C 0.47263 0.51447 0.17413 0.0
C265 C 0.49397 0.49721 0.18222 0.0
C266 C 0.47006 0.51231 0.15707 0.0
C267 C 0.4501 0.53181 0.14757 0.0
C268 C 0.45366 0.5627 0.14811 0.0
C269 C 0.43702 0.58089 0.13782 0.0
C270 C 0.41645 0.56847 0.12689 0.0
C271 C 0.41213 0.53761 0.12685 0.0
C272 C 0.42895 0.51943 0.13703 0.0
C273 C 0.52801 0.45456 0.14679 0.0
C274 C 0.51485 0.43537 0.13545 0.0
C275 C 0.53241 0.41833 0.12506 0.0
C276 C 0.56362 0.41989 0.12585 0.0
C277 C 0.57675 0.43848 0.13758 0.0
C278 C 0.55914 0.45585 0.14783 0.0
C279 C 0.5091 0.47468 0.15664 0.0
C280 C 0.48813 0.49233 0.14858 0.0
C281 C 0.51209 0.47727 0.17368 0.0
C282 C 0.53255 0.4581 0.18295 0.0
C283 C 0.52764 0.42743 0.18354 0.0
C284 C 0.54675 0.40923 0.19239 0.0
C285 C 0.57132 0.42138 0.20058 0.0
C286 C 0.57642 0.45206 0.19984 0.0
C287 C 0.55691 0.47037 0.19124 0.0
H288 H 0.51736 0.91876 0.38675 0.0
H289 H 0.48895 0.88844 0.36765 0.0
H290 H 0.40752 0.92794 0.38506 0.0
H291 H 0.43613 0.95814 0.40425 0.0
H292 H 0.51771 0.97818 0.3844 0.0
H293 H 0.49565 0.90644 0.4249 0.0
H294 H 0.46186 0.87355 0.43954 0.0
H295 H 0.41498 0.94976 0.45836 0.0
H296 H 0.44885 0.98255 0.44365 0.0
H297 H 0.50909 0.05085 0.44282 0.0
H298 H 0.53844 0.08975 0.45625 0.0
H299 H 0.6181 0.05524 0.43404 0.0
H300 H 0.58914 0.0159 0.42122 0.0
H301 H 0.50761 0.99255 0.44384 0.0
H302 H 0.5286 0.0635 0.40058 0.0
H303 H 0.55586 0.09319 0.38062 0.0
H304 H 0.60516 0.0153 0.36619 0.0
H305 H 0.57757 0.98582 0.38591 0.0
C306 C 0.47887 0.94076 0.39687 0.0
C307 C 0.49334 0.92047 0.38666 0.0
C308 C 0.4771 0.90327 0.37572 0.0
C309 C 0.44605 0.90613 0.3747 0.0
C310 C 0.4314 0.92512 0.38563 0.0
C311 C 0.44771 0.94239 0.3966 0.0
C312 C 0.49661 0.96265 0.40619 0.0
C313 C 0.51591 0.98096 0.39746 0.0
C314 C 0.49356 0.96677 0.42313 0.0
C315 C 0.47447 0.94695 0.43298 0.0
C316 C 0.47808 0.91606 0.43218 0.0
C317 C 0.45877 0.89729 0.44054 0.0
C318 C 0.43563 0.90904 0.45002 0.0
C319 C 0.43275 0.94002 0.45129 0.0
C320 C 0.45203 0.95879 0.44286 0.0
C321 C 0.54679 0.0308 0.43071 0.0
C322 C 0.53291 0.05152 0.44096 0.0
C323 C 0.54962 0.07374 0.44859 0.0
C324 C 0.58039 0.07572 0.44593 0.0
C325 C 0.5943 0.05457 0.43599 0.0
C326 C 0.57774 0.03214 0.42863 0.0
C327 C 0.52904 0.00801 0.42199 0.0
C328 C 0.50958 0.98964 0.43081 0.0
C329 C 0.53208 0.00354 0.40507 0.0
C330 C 0.55102 0.02247 0.39465 0.0
C331 C 0.54566 0.05301 0.3933 0.0
C332 C 0.56128 0.06993 0.38191 0.0
C333 C 0.5824 0.0565 0.37169 0.0
C334 C 0.5886 0.02618 0.37364 0.0
C335 C 0.57298 0.00933 0.38496 0.0
H336 H 0.9981 0.05419 0.68968 0.0
H337 H 0.96745 0.08912 0.70491 0.0
H338 H 0.88825 0.04517 0.68729 0.0
H339 H 0.91916 0.01078 0.67178 0.0
H340 H 0.00315 0.99372 0.6906 0.0
H341 H 0.97559 0.06825 0.6517 0.0
H342 H 0.94562 0.09994 0.63402 0.0
H343 H 0.90227 0.02229 0.6143 0.0
H344 H 0.9318 0.99085 0.63226 0.0
H345 H 0.99669 0.92902 0.62986 0.0
H346 H 0.02687 0.89972 0.61129 0.0
H347 H 0.10654 0.93777 0.63211 0.0
H348 H 0.076 0.96824 0.6501 0.0
H349 H 0.99173 0.9867 0.63083 0.0
H350 H 0.02453 0.91197 0.66726 0.0
H351 H 0.06109 0.88104 0.68117 0.0
H352 H 0.09604 0.95827 0.70559 0.0
H353 H 0.06025 0.98956 0.69107 0.0
C354 C 0.9609 0.03012 0.67949 0.0
C355 C 0.97413 0.052 0.6892 0.0
C356 C 0.95654 0.07185 0.69797 0.0
C357 C 0.92533 0.07002 0.69732 0.0
C358 C 0.91218 0.04756 0.68785 0.0
C359 C 0.9298 0.02782 0.67902 0.0
C360 C 0.97963 0.00998 0.66965 0.0
C361 C 0.00094 0.99233 0.6775 0.0
C362 C 0.9762 0.00778 0.65264 0.0
C363 C 0.9558 0.0272 0.64335 0.0
C364 C 0.95916 0.05813 0.64383 0.0
C365 C 0.94223 0.07618 0.63361 0.0
C366 C 0.92168 0.06361 0.6227 0.0
C367 C 0.91766 0.0327 0.62268 0.0
C368 C 0.93464 0.01468 0.63286 0.0
C369 C 0.03405 0.95074 0.64142 0.0
C370 C 0.02067 0.931 0.63045 0.0
C371 C 0.03801 0.914 0.61995 0.0
C372 C 0.06919 0.91628 0.62021 0.0
C373 C 0.08259 0.93569 0.63144 0.0
C374 C 0.06517 0.95289 0.64188 0.0
C375 C 0.01522 0.97015 0.65171 0.0
C376 C 0.99388 0.98778 0.64394 0.0
C377 C 0.01872 0.97226 0.66878 0.0
C378 C 0.04001 0.95324 0.67782 0.0
C379 C 0.04033 0.92241 0.67538 0.0
C380 C 0.06115 0.90473 0.68336 0.0
C381 C 0.08151 0.91739 0.69429 0.0
C382 C 0.08057 0.94805 0.69719 0.0
C383 C 0.06011 0.96586 0.68894 0.0
In384 In 0.30522 0.69323 0.00333 0.0
O385 O 0.29767 0.73989 0.01387 0.0
O386 O 0.3351 0.73276 0.99874 0.0
C387 C 0.24818 0.67799 0.99778 0.0
C388 C 0.3272 0.67189 0.03145 0.0
C389 C 0.32931 0.66725 0.9769 0.0
O390 O 0.25886 0.70239 0.99304 0.0
O391 O 0.26598 0.66194 0.00566 0.0
O392 O 0.33231 0.65704 0.99105 0.0
O393 O 0.31396 0.69058 0.97601 0.0
C394 C 0.32091 0.75056 0.00758 0.0
O395 O 0.34318 0.67725 0.01923 0.0
O396 O 0.29987 0.67722 0.02955 0.0
In397 In 0.30421 0.80282 0.2534 0.0
O398 O 0.29267 0.75954 0.24025 0.0
O399 O 0.32379 0.75771 0.25955 0.0
C400 C 0.25017 0.8258 0.25989 0.0
C401 C 0.32669 0.82338 0.22521 0.0
C402 C 0.33436 0.82303 0.27953 0.0
O403 O 0.25563 0.79851 0.26159 0.0
O404 O 0.27166 0.84099 0.2547 0.0
O405 O 0.34044 0.83071 0.2652 0.0
O406 O 0.31301 0.80502 0.28075 0.0
C407 C 0.31037 0.7439 0.24845 0.0
O408 O 0.29916 0.82313 0.22814 0.0
O409 O 0.34277 0.81327 0.23647 0.0
In410 In 0.20355 0.79283 0.5027 0.0
O411 O 0.1646 0.79855 0.52011 0.0
O412 O 0.2039 0.82344 0.52473 0.0
C413 C 0.17623 0.82183 0.47814 0.0
C414 C 0.19474 0.73492 0.50954 0.0
C415 C 0.26148 0.8026 0.49579 0.0
O416 O 0.18269 0.83394 0.49147 0.0
O417 O 0.18336 0.79487 0.47714 0.0
O418 O 0.24445 0.78848 0.48639 0.0
O419 O 0.24963 0.81063 0.50892 0.0
C420 C 0.17779 0.81704 0.52911 0.0
O421 O 0.21376 0.75051 0.5169 0.0
O422 O 0.18115 0.7482 0.49832 0.0
In423 In 0.19664 0.69702 0.75436 0.0
O424 O 0.15358 0.68425 0.76704 0.0
O425 O 0.19157 0.69172 0.78183 0.0
C426 C 0.17406 0.67018 0.72769 0.0
C427 C 0.25189 0.67508 0.7592 0.0
C428 C 0.19013 0.75534 0.74804 0.0
O429 O 0.17561 0.65749 0.7413 0.0
O430 O 0.18395 0.69632 0.72751 0.0
O431 O 0.20923 0.73947 0.74094 0.0
O432 O 0.17538 0.7421 0.75884 0.0
C433 C 0.16448 0.68456 0.78115 0.0
O434 O 0.24514 0.70129 0.76308 0.0
O435 O 0.23123 0.66069 0.75256 0.0
In436 In 0.79597 0.20077 0.50654 0.0
O437 O 0.78827 0.24182 0.52252 0.0
O438 O 0.81568 0.24634 0.50176 0.0
C439 C 0.73853 0.19402 0.49747 0.0
C440 C 0.82127 0.17302 0.53213 0.0
C441 C 0.82334 0.17386 0.48133 0.0
O442 O 0.75726 0.20781 0.48898 0.0
O443 O 0.74839 0.1849 0.51088 0.0
O444 O 0.80798 0.15975 0.49154 0.0
O445 O 0.82518 0.20133 0.48397 0.0
C446 C 0.80473 0.2585 0.51414 0.0
O447 O 0.79382 0.17155 0.52914 0.0
O448 O 0.836 0.18832 0.52217 0.0
In449 In 0.80219 0.29872 0.7527 0.0
O450 O 0.8376 0.32607 0.73998 0.0
O451 O 0.80025 0.31264 0.72598 0.0
C452 C 0.82293 0.32759 0.77904 0.0
C453 C 0.82085 0.24289 0.74654 0.0
C454 C 0.74394 0.30502 0.75983 0.0
O455 O 0.81403 0.34075 0.76643 0.0
O456 O 0.82152 0.29963 0.77839 0.0
O457 O 0.76079 0.28775 0.76757 0.0
O458 O 0.75615 0.31804 0.74806 0.0
C459 C 0.82463 0.32648 0.72641 0.0
O460 O 0.79658 0.25286 0.7412 0.0
O461 O 0.83523 0.26075 0.75532 0.0
In462 In 0.69997 0.30203 0.00744 0.0
O463 O 0.71082 0.2603 0.02195 0.0
O464 O 0.67984 0.25657 0.0026 0.0
C465 C 0.75695 0.31785 0.00161 0.0
C466 C 0.67276 0.3229 0.03423 0.0
C467 C 0.67275 0.32793 0.98181 0.0
O468 O 0.74518 0.29549 0.99499 0.0
O469 O 0.74034 0.33133 0.01144 0.0
O470 O 0.67464 0.33994 0.99558 0.0
O471 O 0.68443 0.3026 0.98089 0.0
C472 C 0.69299 0.24395 0.0142 0.0
O473 O 0.65899 0.30899 0.02323 0.0
O474 O 0.70022 0.32632 0.0317 0.0
In475 In 0.69819 0.19966 0.25452 0.0
O476 O 0.67614 0.15921 0.26594 0.0
O477 O 0.68366 0.19656 0.28106 0.0
C478 C 0.67343 0.17873 0.22699 0.0
C479 C 0.75593 0.18759 0.26065 0.0
C480 C 0.68478 0.25739 0.25006 0.0
O481 O 0.65826 0.18873 0.23864 0.0
O482 O 0.70121 0.17929 0.22917 0.0
O483 O 0.70565 0.24493 0.24242 0.0
O484 O 0.67184 0.24108 0.26025 0.0
C485 C 0.6738 0.1705 0.27988 0.0
O486 O 0.74259 0.20909 0.26719 0.0
O487 O 0.74055 0.1732 0.25057 0.0
H488 H 0.12546 0.95612 0.29243 0.0
H489 H 0.20206 0.7998 0.2747 0.0
H490 H 0.08694 0.8731 0.30761 0.0
H491 H 0.23399 0.88346 0.25627 0.0
H492 H 0.15781 0.8251 0.28523 0.0
H493 H 0.1636 0.92899 0.27759 0.0
C494 C 0.12504 0.93211 0.29259 0.0
C495 C 0.10327 0.91681 0.30139 0.0
C496 C 0.17437 0.83782 0.27873 0.0
C497 C 0.14692 0.88546 0.28444 0.0
C498 C 0.19958 0.8234 0.27271 0.0
C499 C 0.22182 0.83963 0.26474 0.0
C500 C 0.17155 0.86865 0.27679 0.0
C501 C 0.21752 0.87012 0.26246 0.0
C502 C 0.14674 0.9166 0.28406 0.0
C503 C 0.10339 0.8857 0.30096 0.0
N504 N 0.19304 0.88365 0.26856 0.0
N505 N 0.12513 0.871 0.29276 0.0
H506 H 0.08957 0.57839 0.52754 0.0
H507 H 0.21031 0.70744 0.53783 0.0
H508 H 0.11891 0.61276 0.57372 0.0
H509 H 0.15766 0.69545 0.49449 0.0
H510 H 0.18718 0.66318 0.54945 0.0
H511 H 0.12435 0.6121 0.51384 0.0
C512 C 0.10371 0.59269 0.53477 0.0
C513 C 0.10124 0.59314 0.55174 0.0
C514 C 0.18107 0.66999 0.53729 0.0
C515 C 0.14094 0.6314 0.53626 0.0
C516 C 0.19437 0.69512 0.53061 0.0
C517 C 0.18558 0.7053 0.51526 0.0
C518 C 0.15902 0.65485 0.5285 0.0
C519 C 0.16483 0.68849 0.50645 0.0
C520 C 0.12341 0.61194 0.52697 0.0
C521 C 0.11993 0.6121 0.56059 0.0
N522 N 0.15202 0.66421 0.51325 0.0
N523 N 0.13891 0.63058 0.55275 0.0
H524 H 0.42795 0.62828 0.79513 0.0
H525 H 0.26688 0.61716 0.75553 0.0
H526 H 0.37139 0.55102 0.79868 0.0
H527 H 0.3015 0.70064 0.77294 0.0
H528 H 0.31135 0.59241 0.76559 0.0
H529 H 0.387 0.655 0.78208 0.0
C530 C 0.40707 0.61686 0.79322 0.0
C531 C 0.40334 0.58716 0.79805 0.0
C532 C 0.30932 0.61618 0.76711 0.0
C533 C 0.35688 0.61748 0.78269 0.0
C534 C 0.28402 0.63037 0.7613 0.0
C535 C 0.2804 0.66098 0.76354 0.0
C536 C 0.33136 0.63269 0.77508 0.0
C537 C 0.3034 0.67696 0.77107 0.0
C538 C 0.38382 0.63214 0.78568 0.0
C539 C 0.37582 0.57354 0.7949 0.0
N540 N 0.32798 0.66259 0.77664 0.0
N541 N 0.35377 0.58875 0.78739 0.0
H542 H 0.44728 0.87005 0.04563 0.0
H543 H 0.29473 0.79488 0.02555 0.0
H544 H 0.36681 0.92235 0.04739 0.0
H545 H 0.37535 0.77247 -4e-05 0.0
H546 H 0.31927 0.83986 0.03594 0.0
H547 H 0.42025 0.83143 0.03135 0.0
C548 C 0.42407 0.87378 0.04285 0.0
C549 C 0.40955 0.89992 0.04768 0.0
C550 C 0.33129 0.82524 0.02784 0.0
C551 C 0.37813 0.85482 0.03177 0.0
C552 C 0.31737 0.79965 0.02193 0.0
C553 C 0.33312 0.77986 0.01198 0.0
C554 C 0.36124 0.83052 0.02403 0.0
C555 C 0.36241 0.78704 0.00765 0.0
C556 C 0.4086 0.8515 0.03476 0.0
C557 C 0.379 0.90255 0.04417 0.0
N558 N 0.37567 0.81152 0.01391 0.0
N559 N 0.36422 0.88014 0.03656 0.0
H560 H 0.09698 0.63329 0.93897 0.0
H561 H 0.21891 0.62934 0.00909 0.0
H562 H 0.09908 0.56711 0.97677 0.0
H563 H 0.21002 0.7021 0.9755 0.0
H564 H 0.17287 0.60811 0.99855 0.0
H565 H 0.13607 0.66065 0.95313 0.0
C566 C 0.10537 0.62468 0.95035 0.0
C567 C 0.09487 0.59768 0.95661 0.0
C568 C 0.18075 0.6289 0.99359 0.0
C569 C 0.13998 0.62872 0.97276 0.0
C570 C 0.20703 0.64104 0.99962 0.0
C571 C 0.21837 0.66739 0.99306 0.0
C572 C 0.16586 0.64301 0.98075 0.0
C573 C 0.20205 0.68169 0.98086 0.0
C574 C 0.12781 0.64027 0.9584 0.0
C575 C 0.1069 0.58747 0.97131 0.0
N576 N 0.17677 0.66912 0.97495 0.0
N577 N 0.12894 0.60288 0.97881 0.0
H578 H 0.41841 0.59031 0.23312 0.0
H579 H 0.29096 0.71187 0.22226 0.0
H580 H 0.36477 0.59912 0.18993 0.0
H581 H 0.34874 0.70671 0.264 0.0
H582 H 0.31187 0.66527 0.21225 0.0
H583 H 0.38794 0.62803 0.24638 0.0
C584 C 0.40015 0.60011 0.22644 0.0
C585 C 0.39436 0.59179 0.21032 0.0
C586 C 0.31968 0.67411 0.22371 0.0
C587 C 0.35923 0.63485 0.22546 0.0
C588 C 0.30763 0.70063 0.22947 0.0
C589 C 0.3184 0.71331 0.24388 0.0
C590 C 0.34269 0.66029 0.23241 0.0
C591 C 0.34 0.69782 0.25275 0.0
C592 C 0.38265 0.62151 0.23405 0.0
C593 C 0.36999 0.60476 0.20239 0.0
N594 N 0.35169 0.6723 0.24678 0.0
N595 N 0.35352 0.62584 0.20998 0.0
H596 H 0.40941 0.85932 0.43739 0.0
H597 H 0.30002 0.83751 0.51291 0.0
H598 H 0.4118 0.91353 0.48059 0.0
H599 H 0.29081 0.79077 0.46744 0.0
H600 H 0.34596 0.85992 0.50294 0.0
H601 H 0.37087 0.82874 0.44984 0.0
C602 C 0.40212 0.86456 0.44959 0.0
C603 C 0.41374 0.88914 0.45794 0.0
C604 C 0.33408 0.84451 0.49521 0.0
C605 C 0.36935 0.85438 0.47219 0.0
C606 C 0.30792 0.8316 0.50092 0.0
C607 C 0.29146 0.81246 0.49092 0.0
C608 C 0.34383 0.83825 0.47938 0.0
C609 C 0.30274 0.80555 0.4755 0.0
C610 C 0.37998 0.84718 0.45665 0.0
C611 C 0.40314 0.89508 0.47363 0.0
N612 N 0.3281 0.81866 0.47014 0.0
N613 N 0.38145 0.87792 0.48021 0.0
H614 H 0.11965 0.87758 0.68076 0.0
H615 H 0.15412 0.79587 0.76291 0.0
H616 H 0.09268 0.9139 0.72688 0.0
H617 H 0.20645 0.78205 0.7197 0.0
H618 H 0.13266 0.84028 0.75054 0.0
H619 H 0.15241 0.84293 0.69495 0.0
C620 C 0.12086 0.87834 0.69389 0.0
C621 C 0.10336 0.89836 0.70271 0.0
C622 C 0.14927 0.82786 0.74389 0.0
C623 C 0.14049 0.85875 0.71903 0.0
C624 C 0.16154 0.80254 0.75095 0.0
C625 C 0.18187 0.78515 0.74224 0.0
C626 C 0.15698 0.83543 0.72791 0.0
C627 C 0.19076 0.79478 0.72681 0.0
C628 C 0.13966 0.85874 0.70198 0.0
C629 C 0.10588 0.89874 0.71968 0.0
N630 N 0.17784 0.81898 0.72 0.0
N631 N 0.12376 0.87887 0.72733 0.0
H632 H 0.62104 0.37773 0.82617 0.0
H633 H 0.70205 0.33845 0.74429 0.0
H634 H 0.58479 0.40226 0.77962 0.0
H635 H 0.71834 0.29095 0.78885 0.0
H636 H 0.6573 0.35989 0.75639 0.0
H637 H 0.65558 0.34411 0.81253 0.0
C638 C 0.62024 0.37577 0.81306 0.0
C639 C 0.60032 0.39289 0.80396 0.0
C640 C 0.67035 0.34433 0.76341 0.0
C641 C 0.63984 0.35478 0.78826 0.0
C642 C 0.69587 0.33208 0.75651 0.0
C643 C 0.71406 0.31318 0.76566 0.0
C644 C 0.66334 0.33801 0.77965 0.0
C645 C 0.70501 0.30558 0.7814 0.0
C646 C 0.6398 0.3565 0.80529 0.0
C647 C 0.59988 0.38939 0.78704 0.0
N648 N 0.68057 0.31845 0.78801 0.0
N649 N 0.61972 0.37105 0.77969 0.0
H650 H 0.59159 0.08435 0.03031 0.0
H651 H 0.70636 0.21788 0.0432 0.0
H652 H 0.61437 0.12107 0.07707 0.0
H653 H 0.65898 0.20286 0.99835 0.0
H654 H 0.68318 0.17341 0.05455 0.0
H655 H 0.6261 0.11935 0.01745 0.0
C656 C 0.60416 0.09954 0.03786 0.0
C657 C 0.59997 0.10016 0.05473 0.0
C658 C 0.67825 0.17962 0.04214 0.0
C659 C 0.63944 0.13985 0.0402 0.0
C660 C 0.69162 0.20484 0.03561 0.0
C661 C 0.68427 0.21421 0.01989 0.0
C662 C 0.65762 0.16358 0.03281 0.0
C663 C 0.665 0.19653 0.0106 0.0
C664 C 0.62373 0.11949 0.03054 0.0
C665 C 0.61669 0.12026 0.06399 0.0
N666 N 0.6521 0.17217 0.01725 0.0
N667 N 0.63564 0.13939 0.0566 0.0
H668 H 0.9036 0.07251 0.2806 0.0
H669 H 0.78941 0.20806 0.28608 0.0
H670 H 0.89536 0.12964 0.32245 0.0
H671 H 0.78931 0.14316 0.24755 0.0
H672 H 0.83407 0.18488 0.29735 0.0
H673 H 0.86703 0.10289 0.26638 0.0
C674 C 0.89413 0.09145 0.2868 0.0
C675 C 0.90235 0.09831 0.30282 0.0
C676 C 0.82448 0.17595 0.28631 0.0
C677 C 0.86068 0.13344 0.28652 0.0
C678 C 0.7991 0.18927 0.27983 0.0
C679 C 0.78551 0.17732 0.26596 0.0
C680 C 0.8363 0.15054 0.27884 0.0
C681 C 0.79896 0.15294 0.25835 0.0
C682 C 0.87338 0.10891 0.27864 0.0
C683 C 0.88984 0.12357 0.31009 0.0
N684 N 0.82345 0.14019 0.26497 0.0
N685 N 0.86947 0.14008 0.30193 0.0
H686 H 0.91254 0.41318 0.52796 0.0
H687 H 0.79025 0.28743 0.54234 0.0
H688 H 0.86204 0.40478 0.57223 0.0
H689 H 0.84013 0.29758 0.49797 0.0
H690 H 0.81175 0.33388 0.55237 0.0
H691 H 0.88222 0.37416 0.51573 0.0
C692 C 0.89497 0.40319 0.53508 0.0
C693 C 0.89 0.41204 0.55118 0.0
C694 C 0.8177 0.32613 0.54035 0.0
C695 C 0.8551 0.36734 0.53727 0.0
C696 C 0.80535 0.29968 0.53461 0.0
C697 C 0.81365 0.28853 0.51937 0.0
C698 C 0.83856 0.34141 0.5308 0.0
C699 C 0.83329 0.30527 0.50985 0.0
C700 C 0.87755 0.381 0.52807 0.0
C701 C 0.86656 0.39872 0.55975 0.0
N702 N 0.8453 0.33069 0.51579 0.0
N703 N 0.85018 0.37682 0.55275 0.0
H704 H 0.6199 0.1126 0.43116 0.0
H705 H 0.69412 0.16457 0.51343 0.0
H706 H 0.58177 0.09262 0.47788 0.0
H707 H 0.7167 0.20196 0.46685 0.0
H708 H 0.65045 0.14121 0.50113 0.0
H709 H 0.65346 0.14803 0.44415 0.0
C710 C 0.61849 0.11591 0.44416 0.0
C711 C 0.59834 0.09951 0.45351 0.0
C712 C 0.66465 0.15497 0.49366 0.0
C713 C 0.63676 0.13982 0.46851 0.0
C714 C 0.68955 0.16834 0.50069 0.0
C715 C 0.70922 0.18493 0.4911 0.0
C716 C 0.65968 0.15789 0.4769 0.0
C717 C 0.70222 0.18918 0.47467 0.0
C718 C 0.63752 0.13623 0.45158 0.0
C719 C 0.59707 0.10486 0.47028 0.0
N720 N 0.6783 0.17533 0.46803 0.0
N721 N 0.61638 0.12425 0.4773 0.0
H722 H 0.87342 0.09591 0.68704 0.0
H723 H 0.87034 0.21518 0.75824 0.0
H724 H 0.93469 0.09476 0.72742 0.0
H725 H 0.79919 0.20483 0.72353 0.0
H726 H 0.89333 0.17001 0.74773 0.0
H727 H 0.84492 0.13451 0.70072 0.0
C728 C 0.8807 0.10344 0.69888 0.0
C729 C 0.90668 0.09212 0.70602 0.0
C730 C 0.87252 0.17741 0.74253 0.0
C731 C 0.87435 0.13684 0.72162 0.0
C732 C 0.85939 0.20319 0.74852 0.0
C733 C 0.83294 0.21383 0.74166 0.0
C734 C 0.85928 0.16235 0.72944 0.0
C735 C 0.81964 0.19741 0.72913 0.0
C736 C 0.86446 0.12563 0.70665 0.0
C737 C 0.91519 0.1032 0.72128 0.0
N738 N 0.83314 0.17265 0.72329 0.0
N739 N 0.89922 0.12509 0.7285 0.0
H740 H 0.91261 0.36814 0.94625 0.0
H741 H 0.7851 0.36634 0.0139 0.0
H742 H 0.88254 0.44505 0.97265 0.0
H743 H 0.79511 0.29682 0.97828 0.0
H744 H 0.82921 0.39065 0.00303 0.0
H745 H 0.87749 0.33744 0.96178 0.0
C746 C 0.89889 0.37842 0.95547 0.0
C747 C 0.90011 0.40912 0.9581 0.0
C748 C 0.82197 0.36991 0.9977 0.0
C749 C 0.86034 0.37441 0.97586 0.0
C750 C 0.79686 0.35594 0.00393 0.0
C751 C 0.78623 0.32973 0.99683 0.0
C752 C 0.83661 0.35761 0.98424 0.0
C753 C 0.80247 0.31715 0.98402 0.0
C754 C 0.87885 0.36099 0.96426 0.0
C755 C 0.88191 0.42149 0.97013 0.0
N756 N 0.82674 0.33139 0.97799 0.0
N757 N 0.86272 0.40412 0.97852 0.0
H758 H 0.63176 0.416 0.19815 0.0
H759 H 0.63864 0.28649 0.26421 0.0
H760 H 0.55589 0.38252 0.22429 0.0
H761 H 0.70409 0.29543 0.22624 0.0
H762 H 0.61375 0.33084 0.2542 0.0
H763 H 0.66354 0.38022 0.21256 0.0
C764 C 0.62194 0.40136 0.20708 0.0
C765 C 0.59124 0.40188 0.21 0.0
C766 C 0.63377 0.32331 0.24818 0.0
C767 C 0.62717 0.36149 0.22651 0.0
C768 C 0.64809 0.29808 0.25392 0.0
C769 C 0.67324 0.28704 0.2459 0.0
C770 C 0.64468 0.33771 0.23432 0.0
C771 C 0.6846 0.3031 0.2327 0.0
C772 C 0.63998 0.38098 0.21522 0.0
C773 C 0.57944 0.3825 0.2216 0.0
N774 N 0.67004 0.32754 0.22719 0.0
N775 N 0.59742 0.36307 0.22942 0.0
H776 H 0.10303 0.87933 0.38578 0.0
H777 H 0.15653 0.87886 0.47855 0.0
H778 H 0.08718 0.95069 0.41968 0.0
H779 H 0.16323 0.80217 0.4474 0.0
H780 H 0.13315 0.90613 0.45644 0.0
H781 H 0.12703 0.85115 0.40757 0.0
C782 C 0.10457 0.88908 0.39778 0.0
C783 C 0.09321 0.91754 0.40085 0.0
C784 C 0.13967 0.88332 0.4544 0.0
C785 C 0.12078 0.88552 0.42576 0.0
C786 C 0.15305 0.86774 0.46703 0.0
C787 C 0.16178 0.83821 0.4648 0.0
C788 C 0.13506 0.86935 0.43936 0.0
C789 C 0.15675 0.82492 0.44962 0.0
C790 C 0.11835 0.87302 0.41018 0.0
C791 C 0.09611 0.92913 0.4166 0.0
N792 N 0.14373 0.84061 0.43744 0.0
N793 N 0.10958 0.91311 0.42842 0.0
H794 H 0.07532 0.63582 0.63994 0.0
H795 H 0.16023 0.61169 0.72355 0.0
H796 H 0.10391 0.54971 0.65639 0.0
H797 H 0.15852 0.69607 0.69896 0.0
H798 H 0.1373 0.58865 0.6997 0.0
H799 H 0.10365 0.65871 0.66207 0.0
C800 C 0.08776 0.62179 0.64816 0.0
C801 C 0.08731 0.59087 0.64638 0.0
C802 C 0.14213 0.61217 0.69949 0.0
C803 C 0.11938 0.61677 0.67177 0.0
C804 C 0.15508 0.62533 0.71311 0.0
C805 C 0.16117 0.65582 0.71321 0.0
C806 C 0.13481 0.62972 0.686 0.0
C807 C 0.15418 0.67248 0.69936 0.0
C808 C 0.10396 0.63483 0.66074 0.0
C809 C 0.10389 0.57366 0.65728 0.0
N810 N 0.14112 0.65925 0.68634 0.0
N811 N 0.11901 0.58682 0.66963 0.0
H812 H 0.45437 0.57772 0.91539 0.0
H813 H 0.32081 0.68026 0.94472 0.0
H814 H 0.38678 0.60813 0.8822 0.0
H815 H 0.37059 0.62319 0.97675 0.0
H816 H 0.34675 0.65816 0.92144 0.0
H817 H 0.42638 0.59891 0.93792 0.0
C818 C 0.43369 0.58911 0.91285 0.0
C819 C 0.42295 0.59142 0.89692 0.0
C820 C 0.35181 0.65042 0.93357 0.0
C821 C 0.39065 0.61556 0.92267 0.0
C822 C 0.33712 0.66304 0.94683 0.0
C823 C 0.34366 0.65355 0.96266 0.0
C824 C 0.37345 0.62855 0.93624 0.0
C825 C 0.36488 0.63115 0.96475 0.0
C826 C 0.4176 0.60097 0.92572 0.0
C827 C 0.39576 0.6059 0.89433 0.0
N828 N 0.37917 0.61957 0.95171 0.0
N829 N 0.38057 0.61765 0.9071 0.0
H830 H 0.44627 0.88279 0.15004 0.0
H831 H 0.29755 0.8522 0.2007 0.0
H832 H 0.36306 0.92702 0.14055 0.0
H833 H 0.38449 0.82178 0.21522 0.0
H834 H 0.31957 0.87414 0.17633 0.0
H835 H 0.42214 0.85417 0.17147 0.0
C836 C 0.42279 0.88614 0.15229 0.0
C837 C 0.40667 0.90744 0.14355 0.0
C838 C 0.33379 0.86253 0.18481 0.0
C839 C 0.37902 0.87505 0.16823 0.0
C840 C 0.32124 0.84998 0.1987 0.0
C841 C 0.33928 0.83535 0.21003 0.0
C842 C 0.36456 0.86026 0.18222 0.0
C843 C 0.36981 0.83305 0.20684 0.0
C844 C 0.4091 0.86998 0.16462 0.0
C845 C 0.3764 0.91111 0.14715 0.0
N846 N 0.3815 0.84545 0.19325 0.0
N847 N 0.36358 0.89519 0.15926 0.0
H848 H 0.03035 0.60933 0.84302 0.0
H849 H 0.18377 0.67952 0.8126 0.0
H850 H 0.10746 0.61861 0.87387 0.0
H851 H 0.10595 0.66901 0.78246 0.0
H852 H 0.1554 0.66093 0.83583 0.0
H853 H 0.05672 0.63508 0.82148 0.0
C854 C 0.0527 0.61717 0.84538 0.0
C855 C 0.06666 0.61177 0.86034 0.0
C856 C 0.14449 0.66289 0.82416 0.0
C857 C 0.09736 0.64083 0.83545 0.0
C858 C 0.16065 0.67353 0.81091 0.0
C859 C 0.14721 0.67564 0.79557 0.0
C860 C 0.11471 0.65429 0.82203 0.0
C861 C 0.11722 0.66761 0.79405 0.0
C862 C 0.06787 0.6317 0.83298 0.0
C863 C 0.09593 0.62194 0.86248 0.0
N864 N 0.10205 0.65716 0.80709 0.0
N865 N 0.11037 0.63586 0.85014 0.0
H866 H 0.35782 0.56749 0.11764 0.0
H867 H 0.38549 0.66861 0.04011 0.0
H868 H 0.44107 0.61157 0.10798 0.0
H869 H 0.29735 0.64747 0.05718 0.0
H870 H 0.40628 0.64645 0.06464 0.0
H871 H 0.33496 0.59536 0.09535 0.0
C872 C 0.37119 0.5832 0.1109 0.0
C873 C 0.40138 0.58721 0.11463 0.0
C874 C 0.38237 0.64682 0.0631 0.0
C875 C 0.37554 0.61888 0.08911 0.0
C876 C 0.37051 0.65937 0.04907 0.0
C877 C 0.33968 0.65974 0.04661 0.0
C878 C 0.36331 0.63415 0.07466 0.0
C879 C 0.32127 0.6476 0.05863 0.0
C880 C 0.35814 0.59915 0.09825 0.0
C881 C 0.41767 0.60799 0.10562 0.0
N882 N 0.33339 0.63501 0.0721 0.0
N883 N 0.40463 0.6228 0.09317 0.0
H884 H 0.39201 0.87741 0.37575 0.0
H885 H 0.38442 0.85697 0.27937 0.0
H886 H 0.46225 0.90267 0.3429 0.0
H887 H 0.32216 0.81489 0.31184 0.0
H888 H 0.41175 0.87594 0.30275 0.0
H889 H 0.36453 0.85618 0.35273 0.0
C890 C 0.40167 0.87838 0.36372 0.0
C891 C 0.42954 0.89164 0.36125 0.0
C892 C 0.39217 0.86249 0.30481 0.0
C893 C 0.39828 0.86766 0.33494 0.0
C894 C 0.37651 0.85171 0.29144 0.0
C895 C 0.35102 0.83433 0.29368 0.0
C896 C 0.38216 0.85606 0.32057 0.0
C897 C 0.34178 0.82819 0.3096 0.0
C898 C 0.38606 0.86619 0.35062 0.0
C899 C 0.44109 0.89222 0.34543 0.0
N900 N 0.3573 0.83914 0.32247 0.0
N901 N 0.42537 0.88055 0.3329 0.0
H902 H 0.06053 0.85954 0.60893 0.0
H903 H 0.19827 0.863 0.54765 0.0
H904 H 0.11933 0.93475 0.60409 0.0
H905 H 0.12515 0.80153 0.54327 0.0
H906 H 0.17365 0.8858 0.57104 0.0
H907 H 0.08813 0.83419 0.58751 0.0
C908 C 0.07923 0.87076 0.60339 0.0
C909 C 0.08739 0.8995 0.60826 0.0
C910 C 0.16305 0.86729 0.56497 0.0
C911 C 0.11935 0.87033 0.58387 0.0
C912 C 0.17709 0.85424 0.55166 0.0
C913 C 0.16362 0.83047 0.54349 0.0
C914 C 0.13549 0.85627 0.57023 0.0
C915 C 0.1362 0.81995 0.54918 0.0
C916 C 0.09504 0.8562 0.5912 0.0
C917 C 0.11233 0.91254 0.60088 0.0
N918 N 0.12303 0.83292 0.56221 0.0
N919 N 0.12735 0.89791 0.58903 0.0
H920 H 0.60444 0.37724 0.88688 0.0
H921 H 0.64629 0.38215 0.98144 0.0
H922 H 0.58745 0.45161 0.91855 0.0
H923 H 0.66675 0.30757 0.95056 0.0
H924 H 0.62364 0.40719 0.95836 0.0
H925 H 0.62634 0.35051 0.90988 0.0
C926 C 0.60528 0.38792 0.89865 0.0
C927 C 0.59432 0.4168 0.90076 0.0
C928 C 0.63303 0.38534 0.95658 0.0
C929 C 0.61931 0.38645 0.92706 0.0
C930 C 0.64596 0.37102 0.96978 0.0
C931 C 0.65845 0.34277 0.9679 0.0
C932 C 0.63255 0.37137 0.94133 0.0
C933 C 0.65737 0.32937 0.95251 0.0
C934 C 0.61786 0.37271 0.91175 0.0
C935 C 0.59613 0.42963 0.91626 0.0
N936 N 0.64466 0.34382 0.93979 0.0
N937 N 0.60835 0.41439 0.92878 0.0
H938 H 0.55338 0.13478 0.14862 0.0
H939 H 0.69874 0.14291 0.20403 0.0
H940 H 0.61874 0.06468 0.14983 0.0
H941 H 0.61662 0.18679 0.21636 0.0
H942 H 0.67416 0.12071 0.18033 0.0
H943 H 0.58102 0.16077 0.16981 0.0
C944 C 0.5735 0.12478 0.1533 0.0
C945 C 0.58342 0.09718 0.14752 0.0
C946 C 0.66164 0.13533 0.1882 0.0
C947 C 0.61554 0.12735 0.17153 0.0
C948 C 0.67563 0.14805 0.20166 0.0
C949 C 0.65958 0.16653 0.21218 0.0
C950 C 0.63159 0.14159 0.18514 0.0
C951 C 0.6297 0.17248 0.2086 0.0
C952 C 0.58932 0.13976 0.16534 0.0
C953 C 0.61025 0.08594 0.15376 0.0
N954 N 0.61666 0.16008 0.19535 0.0
N955 N 0.62532 0.10102 0.16546 0.0
H956 H 0.93157 0.13613 0.39716 0.0
H957 H 0.81967 0.11581 0.47183 0.0
H958 H 0.885 0.05456 0.40722 0.0
H959 H 0.85926 0.19953 0.45865 0.0
H960 H 0.84331 0.09288 0.4482 0.0
H961 H 0.90488 0.1599 0.41949 0.0
C962 C 0.91561 0.12327 0.40403 0.0
C963 C 0.91056 0.09331 0.40035 0.0
C964 C 0.84678 0.11628 0.45045 0.0
C965 C 0.87998 0.1203 0.42597 0.0
C966 C 0.83337 0.12934 0.46397 0.0
C967 C 0.83761 0.15958 0.46721 0.0
C968 C 0.86466 0.13357 0.44017 0.0
C969 C 0.85546 0.17612 0.4566 0.0
C970 C 0.90033 0.13685 0.41675 0.0
C971 C 0.88938 0.07778 0.40953 0.0
N972 N 0.8684 0.16289 0.44359 0.0
N973 N 0.87503 0.09139 0.42199 0.0
H974 H 0.91379 0.45536 0.66703 0.0
H975 H 0.80658 0.32398 0.6946 0.0
H976 H 0.87695 0.39331 0.63254 0.0
H977 H 0.87012 0.3662 0.72639 0.0
H978 H 0.82692 0.35245 0.67174 0.0
H979 H 0.89207 0.42662 0.6891 0.0
C980 C 0.90083 0.43581 0.66411 0.0
C981 C 0.89701 0.42675 0.64795 0.0
C982 C 0.8364 0.35534 0.68373 0.0
C983 C 0.87229 0.39359 0.67318 0.0
C984 C 0.82479 0.33921 0.69675 0.0
C985 C 0.83673 0.34278 0.71238 0.0
C986 C 0.85972 0.37545 0.68647 0.0
C987 C 0.86032 0.36272 0.71453 0.0
C988 C 0.88867 0.41928 0.67672 0.0
C989 C 0.88046 0.40095 0.64486 0.0
N990 N 0.87091 0.37843 0.70175 0.0
N991 N 0.86855 0.38527 0.65739 0.0
H992 H 0.59215 0.03803 0.34058 0.0
H993 H 0.66599 0.19017 0.31105 0.0
H994 H 0.60431 0.11353 0.37216 0.0
H995 H 0.65168 0.11422 0.2801 0.0
H996 H 0.64406 0.16273 0.33373 0.0
H997 H 0.6148 0.06573 0.31849 0.0
C998 C 0.59986 0.06038 0.34292 0.0
C999 C 0.59654 0.07338 0.3583 0.0
C1000 C 0.64573 0.15209 0.32198 0.0
C1001 C 0.62215 0.10553 0.33288 0.0
C1002 C 0.65822 0.16772 0.30904 0.0
C1003 C 0.66062 0.15441 0.29369 0.0
C1004 C 0.63561 0.12296 0.31952 0.0
C1005 C 0.65025 0.12532 0.29173 0.0
C1006 C 0.61262 0.07629 0.33024 0.0
C1007 C 0.60629 0.1027 0.36047 0.0
N1008 N 0.63821 0.11059 0.30449 0.0
N1009 N 0.61872 0.1178 0.3479 0.0
H1010 H 0.94446 0.10916 0.60467 0.0
H1011 H 0.79477 0.13609 0.55411 0.0
H1012 H 0.86335 0.06035 0.61296 0.0
H1013 H 0.87912 0.17602 0.54213 0.0
H1014 H 0.8183 0.11112 0.57713 0.0
H1015 H 0.91947 0.13733 0.58339 0.0
C1016 C 0.92126 0.10463 0.60216 0.0
C1017 C 0.90599 0.08232 0.61061 0.0
C1018 C 0.83165 0.12538 0.56948 0.0
C1019 C 0.87733 0.11423 0.58604 0.0
C1020 C 0.81824 0.13963 0.55635 0.0
C1021 C 0.83507 0.15805 0.54617 0.0
C1022 C 0.86209 0.12968 0.5725 0.0
C1023 C 0.86536 0.16191 0.54964 0.0
C1024 C 0.90707 0.12056 0.5899 0.0
C1025 C 0.87608 0.07711 0.60663 0.0
N1026 N 0.87789 0.14784 0.5625 0.0
N1027 N 0.86274 0.0929 0.59461 0.0
H1028 H 0.89474 0.4627 0.84171 0.0
H1029 H 0.84106 0.30505 0.80834 0.0
H1030 H 0.89295 0.38402 0.87152 0.0
H1031 H 0.83076 0.3872 0.78216 0.0
H1032 H 0.86076 0.33295 0.83156 0.0
H1033 H 0.87146 0.43495 0.81981 0.0
C1034 C 0.88908 0.43967 0.84378 0.0
C1035 C 0.89575 0.42578 0.85859 0.0
C1036 C 0.85407 0.34484 0.82075 0.0
C1037 C 0.86962 0.39351 0.83324 0.0
C1038 C 0.8429 0.32894 0.8075 0.0
C1039 C 0.83437 0.34385 0.7933 0.0
C1040 C 0.85686 0.37581 0.81973 0.0
C1041 C 0.83713 0.37481 0.79285 0.0
C1042 C 0.87597 0.42374 0.83117 0.0
C1043 C 0.88855 0.39561 0.86028 0.0
N1044 N 0.84823 0.38972 0.80584 0.0
N1045 N 0.87597 0.38045 0.84774 0.0
H1046 H 0.6158 0.43784 0.11153 0.0
H1047 H 0.6169 0.31025 0.0452 0.0
H1048 H 0.55379 0.36466 0.11254 0.0
H1049 H 0.69451 0.36286 0.05617 0.0
H1050 H 0.5918 0.33184 0.06878 0.0
H1051 H 0.64391 0.4123 0.09046 0.0
C1052 C 0.60826 0.41623 0.10754 0.0
C1053 C 0.58219 0.40352 0.11386 0.0
C1054 C 0.6144 0.33849 0.06608 0.0
C1055 C 0.61399 0.37455 0.08932 0.0
C1056 C 0.62866 0.32629 0.05261 0.0
C1057 C 0.65776 0.33489 0.04873 0.0
C1058 C 0.62918 0.35977 0.07558 0.0
C1059 C 0.67206 0.35565 0.05875 0.0
C1060 C 0.62427 0.40175 0.0954 0.0
C1061 C 0.57333 0.37569 0.10784 0.0
N1062 N 0.65752 0.3676 0.07165 0.0
N1063 N 0.58903 0.36228 0.09581 0.0
loop_
_geom_bond_atom_site_label_1
_geom_bond_atom_site_label_2
_geom_bond_distance
_geom_bond_site_symmetry_2
_ccdc_geom_bond_type
H0 C19 0.949 . S
H1 C20 0.950 . S
H2 C22 0.950 . S
H3 C23 0.950 . S
H4 C25 0.950 . S
H5 C28 0.950 . S
H6 C29 0.950 . S
H7 C31 0.951 . S
H8 C32 0.949 1_565 S
H9 C34 0.949 . S
H10 C35 0.950 . S
H11 C37 0.950 . S
H12 C38 0.950 . S
H13 C40 0.951 . S
H14 C43 0.950 . S
H15 C44 0.950 . S
H16 C46 0.951 . S
H17 C47 0.949 1_545 S
C18 C19 1.376 . S
C18 C23 1.386 . S
C18 C24 1.483 . S
C19 H0 0.949 . S
C19 C18 1.376 . S
C19 C20 1.397 . S
C20 H1 0.950 . S
C20 C19 1.397 . S
C20 C21 1.391 . S
C21 C20 1.391 . S
C21 C22 1.405 . S
C22 H2 0.950 . S
C22 C21 1.405 . S
C22 C23 1.367 . S
C23 H3 0.950 . S
C23 C18 1.386 . S
C23 C22 1.367 . S
C24 C18 1.483 . S
C24 C25 1.382 1_655 S
C24 C26 1.403 . S
C25 H4 0.950 . S
C25 C24 1.382 1_455 S
C25 C41 1.411 1_545 S
C26 C24 1.403 . S
C26 C27 1.489 . S
C26 C40 1.419 1_545 S
C27 C26 1.489 . S
C27 C28 1.383 . S
C27 C32 1.382 . S
C28 H5 0.950 . S
C28 C27 1.383 . S
C28 C29 1.395 . S
C29 H6 0.950 . S
C29 C28 1.395 . S
C29 C30 1.288 . S
C30 C29 1.288 . S
C30 C31 1.392 . S
C31 H7 0.951 . S
C31 C30 1.392 . S
C31 C32 1.392 . S
C32 H8 0.949 1_545 S
C32 C27 1.382 . S
C32 C31 1.392 . S
C33 C34 1.376 . S
C33 C38 1.386 . S
C33 C39 1.483 . S
C34 H9 0.949 . S
C34 C33 1.376 . S
C34 C35 1.397 . S
C35 H10 0.950 . S
C35 C34 1.397 . S
C35 C36 1.391 . S
C36 C35 1.391 . S
C36 C37 1.405 . S
C37 H11 0.950 . S
C37 C36 1.405 . S
C37 C38 1.367 . S
C38 H12 0.950 . S
C38 C33 1.386 . S
C38 C37 1.367 . S
C39 C33 1.483 . S
C39 C40 1.373 1_455 S
C39 C41 1.403 . S
C40 H13 0.951 . S
C40 C26 1.419 1_565 S
C40 C39 1.373 1_655 S
C41 C25 1.411 1_565 S
C41 C39 1.403 . S
C41 C42 1.489 . S
C42 C41 1.489 . S
C42 C43 1.383 . S
C42 C47 1.382 . S
C43 H14 0.950 . S
C43 C42 1.383 . S
C43 C44 1.395 . S
C44 H15 0.950 . S
C44 C43 1.395 . S
C44 C45 1.288 . S
C45 C44 1.288 . S
C45 C46 1.392 . S
C46 H16 0.951 . S
C46 C45 1.392 . S
C46 C47 1.392 . S
C47 H17 0.949 1_565 S
C47 C42 1.382 . S
C47 C46 1.392 . S
H48 C67 0.949 1_455 S
H49 C68 0.950 . S
H50 C70 0.950 . S
H51 C71 0.950 . S
H52 C73 0.950 . S
H53 C76 0.950 . S
H54 C77 0.950 . S
H55 C79 0.951 . S
H56 C80 0.949 . S
H57 C82 0.949 1_655 S
H58 C83 0.950 . S
H59 C85 0.950 . S
H60 C86 0.950 . S
H61 C88 0.950 . S
H62 C91 0.950 . S
H63 C92 0.950 . S
H64 C94 0.951 . S
H65 C95 0.949 . S
C66 C67 1.376 . S
C66 C71 1.386 . S
C66 C72 1.483 . S
C67 H48 0.949 1_655 S
C67 C66 1.376 . S
C67 C68 1.397 . S
C68 H49 0.950 . S
C68 C67 1.397 . S
C68 C69 1.391 . S
C69 C68 1.391 . S
C69 C70 1.405 . S
C70 H50 0.950 . S
C70 C69 1.405 . S
C70 C71 1.367 . S
C71 H51 0.950 . S
C71 C66 1.386 . S
C71 C70 1.367 . S
C72 C66 1.483 . S
C72 C73 1.382 1_655 S
C72 C74 1.403 . S
C73 H52 0.950 . S
C73 C72 1.382 1_455 S
C73 C89 1.411 . S
C74 C72 1.403 . S
C74 C75 1.489 . S
C74 C88 1.411 . S
C75 C74 1.489 . S
C75 C76 1.383 . S
C75 C80 1.382 . S
C76 H53 0.950 . S
C76 C75 1.383 . S
C76 C77 1.395 . S
C77 H54 0.950 . S
C77 C76 1.395 . S
C77 C78 1.288 . S
C78 C77 1.288 . S
C78 C79 1.392 . S
C79 H55 0.951 . S
C79 C78 1.392 . S
C79 C80 1.392 . S
C80 H56 0.949 . S
C80 C75 1.382 . S
C80 C79 1.392 . S
C81 C82 1.376 . S
C81 C86 1.386 . S
C81 C87 1.483 . S
C82 H57 0.949 1_455 S
C82 C81 1.376 . S
C82 C83 1.397 . S
C83 H58 0.950 . S
C83 C82 1.397 . S
C83 C84 1.391 . S
C84 C83 1.391 . S
C84 C85 1.405 . S
C85 H59 0.950 . S
C85 C84 1.405 . S
C85 C86 1.367 . S
C86 H60 0.950 . S
C86 C81 1.386 . S
C86 C85 1.367 . S
C87 C81 1.483 . S
C87 C88 1.382 1_455 S
C87 C89 1.403 . S
C88 H61 0.950 . S
C88 C74 1.411 . S
C88 C87 1.382 1_655 S
C89 C73 1.411 . S
C89 C87 1.403 . S
C89 C90 1.489 . S
C90 C89 1.489 . S
C90 C91 1.383 . S
C90 C95 1.382 . S
C91 H62 0.950 . S
C91 C90 1.383 . S
C91 C92 1.395 . S
C92 H63 0.950 . S
C92 C91 1.395 . S
C92 C93 1.288 . S
C93 C92 1.288 . S
C93 C94 1.392 . S
C94 H64 0.951 . S
C94 C93 1.392 . S
C94 C95 1.392 . S
C95 H65 0.949 . S
C95 C90 1.382 . S
C95 C94 1.392 . S
H96 C115 0.949 . S
H97 C116 0.950 . S
H98 C118 0.950 . S
H99 C119 0.950 . S
H100 C121 0.950 . S
H101 C124 0.950 . S
H102 C125 0.950 . S
H103 C127 0.951 . S
H104 C128 0.949 . S
H105 C130 0.949 . S
H106 C131 0.950 . S
H107 C133 0.950 . S
H108 C134 0.950 . S
H109 C136 0.950 . S
H110 C139 0.950 . S
H111 C140 0.950 . S
H112 C142 0.951 . S
H113 C143 0.949 . S
C114 C115 1.376 . S
C114 C119 1.386 . S
C114 C120 1.483 . S
C115 H96 0.949 . S
C115 C114 1.376 . S
C115 C116 1.397 . S
C116 H97 0.950 . S
C116 C115 1.397 . S
C116 C117 1.391 . S
C117 C116 1.391 . S
C117 C118 1.405 . S
C118 H98 0.950 . S
C118 C117 1.405 . S
C118 C119 1.367 . S
C119 H99 0.950 . S
C119 C114 1.386 . S
C119 C118 1.367 . S
C120 C114 1.483 . S
C120 C121 1.382 . S
C120 C122 1.403 . S
C121 H100 0.950 . S
C121 C120 1.382 . S
C121 C137 1.411 . S
C122 C120 1.403 . S
C122 C123 1.489 . S
C122 C136 1.411 . S
C123 C122 1.489 . S
C123 C124 1.383 . S
C123 C128 1.382 . S
C124 H101 0.950 . S
C124 C123 1.383 . S
C124 C125 1.395 . S
C125 H102 0.950 . S
C125 C124 1.395 . S
C125 C126 1.288 . S
C126 C125 1.288 . S
C126 C127 1.392 . S
C127 H103 0.951 . S
C127 C126 1.392 . S
C127 C128 1.392 . S
C128 H104 0.949 . S
C128 C123 1.382 . S
C128 C127 1.392 . S
C129 C130 1.376 . S
C129 C134 1.386 . S
C129 C135 1.483 . S
C130 H105 0.949 . S
C130 C129 1.376 . S
C130 C131 1.397 . S
C131 H106 0.950 . S
C131 C130 1.397 . S
C131 C132 1.391 . S
C132 C131 1.391 . S
C132 C133 1.405 . S
C133 H107 0.950 . S
C133 C132 1.405 . S
C133 C134 1.367 . S
C134 H108 0.950 . S
C134 C129 1.386 . S
C134 C133 1.367 . S
C135 C129 1.483 . S
C135 C136 1.382 . S
C135 C137 1.403 . S
C136 H109 0.950 . S
C136 C122 1.411 . S
C136 C135 1.382 . S
C137 C121 1.411 . S
C137 C135 1.403 . S
C137 C138 1.489 . S
C138 C137 1.489 . S
C138 C139 1.383 . S
C138 C143 1.382 . S
C139 H110 0.950 . S
C139 C138 1.383 . S
C139 C140 1.395 . S
C140 H111 0.950 . S
C140 C139 1.395 . S
C140 C141 1.288 . S
C141 C140 1.288 . S
C141 C142 1.392 . S
C142 H112 0.951 . S
C142 C141 1.392 . S
C142 C143 1.392 . S
C143 H113 0.949 . S
C143 C138 1.382 . S
C143 C142 1.392 . S
H144 C163 0.949 . S
H145 C164 0.950 . S
H146 C166 0.950 . S
H147 C167 0.950 . S
H148 C169 0.950 . S
H149 C172 0.950 . S
H150 C173 0.950 . S
H151 C175 0.951 . S
H152 C176 0.949 . S
H153 C178 0.949 . S
H154 C179 0.950 . S
H155 C181 0.950 . S
H156 C182 0.950 . S
H157 C184 0.950 . S
H158 C187 0.950 . S
H159 C188 0.950 . S
H160 C190 0.951 . S
H161 C191 0.949 . S
C162 C163 1.376 . S
C162 C167 1.386 . S
C162 C168 1.483 . S
C163 H144 0.949 . S
C163 C162 1.376 . S
C163 C164 1.397 . S
C164 H145 0.950 . S
C164 C163 1.397 . S
C164 C165 1.391 . S
C165 C164 1.391 . S
C165 C166 1.405 . S
C166 H146 0.950 . S
C166 C165 1.405 . S
C166 C167 1.367 . S
C167 H147 0.950 . S
C167 C162 1.386 . S
C167 C166 1.367 . S
C168 C162 1.483 . S
C168 C169 1.382 . S
C168 C170 1.403 . S
C169 H148 0.950 . S
C169 C168 1.382 . S
C169 C185 1.411 1_565 S
C170 C168 1.403 . S
C170 C171 1.489 . S
C170 C184 1.411 1_565 S
C171 C170 1.489 . S
C171 C172 1.383 . S
C171 C176 1.382 . S
C172 H149 0.950 . S
C172 C171 1.383 . S
C172 C173 1.395 . S
C173 H150 0.950 . S
C173 C172 1.395 . S
C173 C174 1.288 . S
C174 C173 1.288 . S
C174 C175 1.392 . S
C175 H151 0.951 . S
C175 C174 1.392 . S
C175 C176 1.392 . S
C176 H152 0.949 . S
C176 C171 1.382 . S
C176 C175 1.392 . S
C177 C178 1.376 . S
C177 C182 1.386 . S
C177 C183 1.483 . S
C178 H153 0.949 . S
C178 C177 1.376 . S
C178 C179 1.397 . S
C179 H154 0.950 . S
C179 C178 1.397 . S
C179 C180 1.391 . S
C180 C179 1.391 . S
C180 C181 1.405 . S
C181 H155 0.950 . S
C181 C180 1.405 . S
C181 C182 1.367 . S
C182 H156 0.950 . S
C182 C177 1.386 . S
C182 C181 1.367 . S
C183 C177 1.483 . S
C183 C184 1.382 . S
C183 C185 1.403 . S
C184 H157 0.950 . S
C184 C170 1.411 1_545 S
C184 C183 1.382 . S
C185 C169 1.411 1_545 S
C185 C183 1.403 . S
C185 C186 1.489 . S
C186 C185 1.489 . S
C186 C187 1.383 . S
C186 C191 1.382 . S
C187 H158 0.950 . S
C187 C186 1.383 . S
C187 C188 1.395 . S
C188 H159 0.950 . S
C188 C187 1.395 . S
C188 C189 1.288 . S
C189 C188 1.288 . S
C189 C190 1.392 . S
C190 H160 0.951 . S
C190 C189 1.392 . S
C190 C191 1.392 . S
C191 H161 0.949 . S
C191 C186 1.382 . S
C191 C190 1.392 . S
H192 C211 0.949 . S
H193 C212 0.950 . S
H194 C214 0.950 . S
H195 C215 0.950 . S
H196 C217 0.950 . S
H197 C220 0.950 . S
H198 C221 0.950 . S
H199 C223 0.951 . S
H200 C224 0.949 . S
H201 C226 0.949 . S
H202 C227 0.950 . S
H203 C229 0.950 . S
H204 C230 0.950 . S
H205 C232 0.950 . S
H206 C235 0.950 . S
H207 C236 0.950 . S
H208 C238 0.951 . S
H209 C239 0.949 . S
C210 C211 1.376 . S
C210 C215 1.386 . S
C210 C216 1.483 . S
C211 H192 0.949 . S
C211 C210 1.376 . S
C211 C212 1.397 . S
C212 H193 0.950 . S
C212 C211 1.397 . S
C212 C213 1.391 . S
C213 C212 1.391 . S
C213 C214 1.405 . S
C214 H194 0.950 . S
C214 C213 1.405 . S
C214 C215 1.367 . S
C215 H195 0.950 . S
C215 C210 1.386 . S
C215 C214 1.367 . S
C216 C210 1.483 . S
C216 C217 1.382 1_455 S
C216 C218 1.403 . S
C217 H196 0.950 . S
C217 C216 1.382 1_655 S
C217 C233 1.411 . S
C218 C216 1.403 . S
C218 C219 1.489 . S
C218 C232 1.411 . S
C219 C218 1.489 . S
C219 C220 1.383 . S
C219 C224 1.382 . S
C220 H197 0.950 . S
C220 C219 1.383 . S
C220 C221 1.395 . S
C221 H198 0.950 . S
C221 C220 1.395 . S
C221 C222 1.288 . S
C222 C221 1.288 . S
C222 C223 1.392 . S
C223 H199 0.951 . S
C223 C222 1.392 . S
C223 C224 1.392 . S
C224 H200 0.949 . S
C224 C219 1.382 . S
C224 C223 1.392 . S
C225 C226 1.376 . S
C225 C230 1.386 . S
C225 C231 1.483 . S
C226 H201 0.949 . S
C226 C225 1.376 . S
C226 C227 1.397 . S
C227 H202 0.950 . S
C227 C226 1.397 . S
C227 C228 1.391 . S
C228 C227 1.391 . S
C228 C229 1.405 . S
C229 H203 0.950 . S
C229 C228 1.405 . S
C229 C230 1.367 . S
C230 H204 0.950 . S
C230 C225 1.386 . S
C230 C229 1.367 . S
C231 C225 1.483 . S
C231 C232 1.382 1_655 S
C231 C233 1.403 . S
C232 H205 0.950 . S
C232 C218 1.411 . S
C232 C231 1.382 1_455 S
C233 C217 1.411 . S
C233 C231 1.403 . S
C233 C234 1.489 . S
C234 C233 1.489 . S
C234 C235 1.383 . S
C234 C239 1.382 . S
C235 H206 0.950 . S
C235 C234 1.383 . S
C235 C236 1.395 . S
C236 H207 0.950 . S
C236 C235 1.395 . S
C236 C237 1.288 . S
C237 C236 1.288 . S
C237 C238 1.392 . S
C238 H208 0.951 . S
C238 C237 1.392 . S
C238 C239 1.392 . S
C239 H209 0.949 . S
C239 C234 1.382 . S
C239 C238 1.392 . S
H240 C259 0.949 . S
H241 C260 0.950 . S
H242 C262 0.950 . S
H243 C263 0.950 . S
H244 C265 0.950 . S
H245 C268 0.950 . S
H246 C269 0.950 . S
H247 C271 0.951 . S
H248 C272 0.949 . S
H249 C274 0.949 . S
H250 C275 0.950 . S
H251 C277 0.950 . S
H252 C278 0.950 . S
H253 C280 0.950 . S
H254 C283 0.950 . S
H255 C284 0.950 . S
H256 C286 0.951 . S
H257 C287 0.949 . S
C258 C259 1.376 . S
C258 C263 1.386 . S
C258 C264 1.483 . S
C259 H240 0.949 . S
C259 C258 1.376 . S
C259 C260 1.397 . S
C260 H241 0.950 . S
C260 C259 1.397 . S
C260 C261 1.391 . S
C261 C260 1.391 . S
C261 C262 1.405 . S
C262 H242 0.950 . S
C262 C261 1.405 . S
C262 C263 1.367 . S
C263 H243 0.950 . S
C263 C258 1.386 . S
C263 C262 1.367 . S
C264 C258 1.483 . S
C264 C265 1.382 . S
C264 C266 1.403 . S
C265 H244 0.950 . S
C265 C264 1.382 . S
C265 C281 1.411 . S
C266 C264 1.403 . S
C266 C267 1.489 . S
C266 C280 1.411 . S
C267 C266 1.489 . S
C267 C268 1.383 . S
C267 C272 1.382 . S
C268 H245 0.950 . S
C268 C267 1.383 . S
C268 C269 1.395 . S
C269 H246 0.950 . S
C269 C268 1.395 . S
C269 C270 1.288 . S
C270 C269 1.288 . S
C270 C271 1.392 . S
C271 H247 0.951 . S
C271 C270 1.392 . S
C271 C272 1.392 . S
C272 H248 0.949 . S
C272 C267 1.382 . S
C272 C271 1.392 . S
C273 C274 1.376 . S
C273 C278 1.386 . S
C273 C279 1.483 . S
C274 H249 0.949 . S
C274 C273 1.376 . S
C274 C275 1.397 . S
C275 H250 0.950 . S
C275 C274 1.397 . S
C275 C276 1.391 . S
C276 C275 1.391 . S
C276 C277 1.405 . S
C277 H251 0.950 . S
C277 C276 1.405 . S
C277 C278 1.367 . S
C278 H252 0.950 . S
C278 C273 1.386 . S
C278 C277 1.367 . S
C279 C273 1.483 . S
C279 C280 1.382 . S
C279 C281 1.403 . S
C280 H253 0.950 . S
C280 C266 1.411 . S
C280 C279 1.382 . S
C281 C265 1.411 . S
C281 C279 1.403 . S
C281 C282 1.489 . S
C282 C281 1.489 . S
C282 C283 1.383 . S
C282 C287 1.382 . S
C283 H254 0.950 . S
C283 C282 1.383 . S
C283 C284 1.395 . S
C284 H255 0.950 . S
C284 C283 1.395 . S
C284 C285 1.288 . S
C285 C284 1.288 . S
C285 C286 1.392 . S
C286 H256 0.951 . S
C286 C285 1.392 . S
C286 C287 1.392 . S
C287 H257 0.949 . S
C287 C282 1.382 . S
C287 C286 1.392 . S
H288 C307 0.949 . S
H289 C308 0.950 . S
H290 C310 0.950 . S
H291 C311 0.950 . S
H292 C313 0.950 . S
H293 C316 0.950 . S
H294 C317 0.950 . S
H295 C319 0.951 . S
H296 C320 0.949 1_545 S
H297 C322 0.949 . S
H298 C323 0.950 . S
H299 C325 0.950 . S
H300 C326 0.950 . S
H301 C328 0.950 . S
H302 C331 0.950 . S
H303 C332 0.950 . S
H304 C334 0.951 . S
H305 C335 0.949 1_565 S
C306 C307 1.376 . S
C306 C311 1.386 . S
C306 C312 1.483 . S
C307 H288 0.949 . S
C307 C306 1.376 . S
C307 C308 1.397 . S
C308 H289 0.950 . S
C308 C307 1.397 . S
C308 C309 1.391 . S
C309 C308 1.391 . S
C309 C310 1.405 . S
C310 H290 0.950 . S
C310 C309 1.405 . S
C310 C311 1.367 . S
C311 H291 0.950 . S
C311 C306 1.386 . S
C311 C310 1.367 . S
C312 C306 1.483 . S
C312 C313 1.382 . S
C312 C314 1.403 . S
C313 H292 0.950 . S
C313 C312 1.382 . S
C313 C329 1.411 1_565 S
C314 C312 1.403 . S
C314 C315 1.489 . S
C314 C328 1.411 1_565 S
C315 C314 1.489 . S
C315 C316 1.383 . S
C315 C320 1.382 . S
C316 H293 0.950 . S
C316 C315 1.383 . S
C316 C317 1.395 . S
C317 H294 0.950 . S
C317 C316 1.395 . S
C317 C318 1.288 . S
C318 C317 1.288 . S
C318 C319 1.392 . S
C319 H295 0.951 . S
C319 C318 1.392 . S
C319 C320 1.392 . S
C320 H296 0.949 1_565 S
C320 C315 1.382 . S
C320 C319 1.392 . S
C321 C322 1.376 . S
C321 C326 1.386 . S
C321 C327 1.483 . S
C322 H297 0.949 . S
C322 C321 1.376 . S
C322 C323 1.397 . S
C323 H298 0.950 . S
C323 C322 1.397 . S
C323 C324 1.391 . S
C324 C323 1.391 . S
C324 C325 1.405 . S
C325 H299 0.950 . S
C325 C324 1.405 . S
C325 C326 1.367 . S
C326 H300 0.950 . S
C326 C321 1.386 . S
C326 C325 1.367 . S
C327 C321 1.483 . S
C327 C328 1.382 . S
C327 C329 1.403 . S
C328 H301 0.950 . S
C328 C314 1.411 1_545 S
C328 C327 1.382 . S
C329 C313 1.411 1_545 S
C329 C327 1.403 . S
C329 C330 1.489 . S
C330 C329 1.489 . S
C330 C331 1.383 . S
C330 C335 1.382 . S
C331 H302 0.950 . S
C331 C330 1.383 . S
C331 C332 1.395 . S
C332 H303 0.950 . S
C332 C331 1.395 . S
C332 C333 1.288 . S
C333 C332 1.288 . S
C333 C334 1.392 . S
C334 H304 0.951 . S
C334 C333 1.392 . S
C334 C335 1.392 . S
C335 H305 0.949 1_545 S
C335 C330 1.382 . S
C335 C334 1.392 . S
H336 C355 0.949 1_455 S
H337 C356 0.950 . S
H338 C358 0.950 . S
H339 C359 0.950 . S
H340 C361 0.950 . S
H341 C364 0.950 . S
H342 C365 0.950 . S
H343 C367 0.951 . S
H344 C368 0.949 . S
H345 C370 0.949 1_655 S
H346 C371 0.950 . S
H347 C373 0.950 . S
H348 C374 0.950 . S
H349 C376 0.950 . S
H350 C379 0.950 . S
H351 C380 0.950 . S
H352 C382 0.951 . S
H353 C383 0.949 . S
C354 C355 1.376 . S
C354 C359 1.386 . S
C354 C360 1.483 . S
C355 H336 0.949 1_655 S
C355 C354 1.376 . S
C355 C356 1.397 . S
C356 H337 0.950 . S
C356 C355 1.397 . S
C356 C357 1.391 . S
C357 C356 1.391 . S
C357 C358 1.405 . S
C358 H338 0.950 . S
C358 C357 1.405 . S
C358 C359 1.367 . S
C359 H339 0.950 . S
C359 C354 1.386 . S
C359 C358 1.367 . S
C360 C354 1.483 . S
C360 C361 1.382 1_655 S
C360 C362 1.403 . S
C361 H340 0.950 . S
C361 C360 1.382 1_455 S
C361 C377 1.411 1_545 S
C362 C360 1.403 . S
C362 C363 1.489 . S
C362 C376 1.411 1_545 S
C363 C362 1.489 . S
C363 C364 1.383 . S
C363 C368 1.382 . S
C364 H341 0.950 . S
C364 C363 1.383 . S
C364 C365 1.395 . S
C365 H342 0.950 . S
C365 C364 1.395 . S
C365 C366 1.288 . S
C366 C365 1.288 . S
C366 C367 1.392 . S
C367 H343 0.951 . S
C367 C366 1.392 . S
C367 C368 1.392 . S
C368 H344 0.949 . S
C368 C363 1.382 . S
C368 C367 1.392 . S
C369 C370 1.376 . S
C369 C374 1.386 . S
C369 C375 1.483 . S
C370 H345 0.949 1_455 S
C370 C369 1.376 . S
C370 C371 1.397 . S
C371 H346 0.950 . S
C371 C370 1.397 . S
C371 C372 1.391 . S
C372 C371 1.391 . S
C372 C373 1.405 . S
C373 H347 0.950 . S
C373 C372 1.405 . S
C373 C374 1.367 . S
C374 H348 0.950 . S
C374 C369 1.386 . S
C374 C373 1.367 . S
C375 C369 1.483 . S
C375 C376 1.382 1_455 S
C375 C377 1.403 . S
C376 H349 0.950 . S
C376 C362 1.411 1_565 S
C376 C375 1.382 1_655 S
C377 C361 1.411 1_565 S
C377 C375 1.403 . S
C377 C378 1.489 . S
C378 C377 1.489 . S
C378 C379 1.383 . S
C378 C383 1.382 . S
C379 H350 0.950 . S
C379 C378 1.383 . S
C379 C380 1.395 . S
C380 H351 0.950 . S
C380 C379 1.395 . S
C380 C381 1.288 . S
C381 C380 1.288 . S
C381 C382 1.392 . S
C382 H352 0.951 . S
C382 C381 1.392 . S
C382 C383 1.392 . S
C383 H353 0.949 . S
C383 C378 1.382 . S
C383 C382 1.392 . S
In384 O385 2.294 . S
In384 O386 2.326 . S
In384 O390 2.266 1_554 S
In384 O391 2.326 1_554 S
In384 O392 2.266 1_554 S
In384 O393 2.326 1_554 S
In384 O395 2.294 . S
In384 O396 2.326 . S
O385 In384 2.294 . S
O385 C394 1.240 . S
O386 In384 2.326 . S
O386 C394 1.252 . S
C387 O390 1.252 . S
C387 O391 1.260 . S
C388 O395 1.240 . S
C388 O396 1.252 . S
C389 O392 1.252 . S
C389 O393 1.260 . S
O390 In384 2.266 1_556 S
O390 C387 1.252 . S
O391 In384 2.326 1_556 S
O391 C387 1.260 . S
O392 In384 2.266 1_556 S
O392 C389 1.252 . S
O393 In384 2.326 1_556 S
O393 C389 1.260 . S
C394 O385 1.240 . S
C394 O386 1.252 . S
O395 In384 2.294 . S
O395 C388 1.240 . S
O396 In384 2.326 . S
O396 C388 1.252 . S
In397 O398 2.294 . S
In397 O399 2.326 . S
In397 O403 2.266 . S
In397 O404 2.326 . S
In397 O405 2.266 . S
In397 O406 2.326 . S
In397 O408 2.294 . S
In397 O409 2.326 . S
O398 In397 2.294 . S
O398 C407 1.240 . S
O399 In397 2.326 . S
O399 C407 1.252 . S
C400 O403 1.252 . S
C400 O404 1.260 . S
C401 O408 1.240 . S
C401 O409 1.252 . S
C402 O405 1.252 . S
C402 O406 1.260 . S
O403 In397 2.266 . S
O403 C400 1.252 . S
O404 In397 2.326 . S
O404 C400 1.260 . S
O405 In397 2.266 . S
O405 C402 1.252 . S
O406 In397 2.326 . S
O406 C402 1.260 . S
C407 O398 1.240 . S
C407 O399 1.252 . S
O408 In397 2.294 . S
O408 C401 1.240 . S
O409 In397 2.326 . S
O409 C401 1.252 . S
In410 O411 2.294 . S
In410 O412 2.326 . S
In410 O416 2.266 . S
In410 O417 2.326 . S
In410 O418 2.266 . S
In410 O419 2.326 . S
In410 O421 2.294 . S
In410 O422 2.326 . S
O411 In410 2.294 . S
O411 C420 1.240 . S
O412 In410 2.326 . S
O412 C420 1.252 . S
C413 O416 1.252 . S
C413 O417 1.260 . S
C414 O421 1.240 . S
C414 O422 1.252 . S
C415 O418 1.252 . S
C415 O419 1.260 . S
O416 In410 2.266 . S
O416 C413 1.252 . S
O417 In410 2.326 . S
O417 C413 1.260 . S
O418 In410 2.266 . S
O418 C415 1.252 . S
O419 In410 2.326 . S
O419 C415 1.260 . S
C420 O411 1.240 . S
C420 O412 1.252 . S
O421 In410 2.294 . S
O421 C414 1.240 . S
O422 In410 2.326 . S
O422 C414 1.252 . S
In423 O424 2.294 . S
In423 O425 2.326 . S
In423 O429 2.266 . S
In423 O430 2.326 . S
In423 O431 2.266 . S
In423 O432 2.326 . S
In423 O434 2.294 . S
In423 O435 2.326 . S
O424 In423 2.294 . S
O424 C433 1.240 . S
O425 In423 2.326 . S
O425 C433 1.252 . S
C426 O429 1.252 . S
C426 O430 1.260 . S
C427 O434 1.240 . S
C427 O435 1.252 . S
C428 O431 1.252 . S
C428 O432 1.260 . S
O429 In423 2.266 . S
O429 C426 1.252 . S
O430 In423 2.326 . S
O430 C426 1.260 . S
O431 In423 2.266 . S
O431 C428 1.252 . S
O432 In423 2.326 . S
O432 C428 1.260 . S
C433 O424 1.240 . S
C433 O425 1.252 . S
O434 In423 2.294 . S
O434 C427 1.240 . S
O435 In423 2.326 . S
O435 C427 1.252 . S
In436 O437 2.294 . S
In436 O438 2.326 . S
In436 O442 2.266 . S
In436 O443 2.326 . S
In436 O444 2.266 . S
In436 O445 2.326 . S
In436 O447 2.294 . S
In436 O448 2.326 . S
O437 In436 2.294 . S
O437 C446 1.240 . S
O438 In436 2.326 . S
O438 C446 1.252 . S
C439 O442 1.252 . S
C439 O443 1.260 . S
C440 O447 1.240 . S
C440 O448 1.252 . S
C441 O444 1.252 . S
C441 O445 1.260 . S
O442 In436 2.266 . S
O442 C439 1.252 . S
O443 In436 2.326 . S
O443 C439 1.260 . S
O444 In436 2.266 . S
O444 C441 1.252 . S
O445 In436 2.326 . S
O445 C441 1.260 . S
C446 O437 1.240 . S
C446 O438 1.252 . S
O447 In436 2.294 . S
O447 C440 1.240 . S
O448 In436 2.326 . S
O448 C440 1.252 . S
In449 O450 2.294 . S
In449 O451 2.326 . S
In449 O455 2.266 . S
In449 O456 2.326 . S
In449 O457 2.266 . S
In449 O458 2.326 . S
In449 O460 2.294 . S
In449 O461 2.326 . S
O450 In449 2.294 . S
O450 C459 1.240 . S
O451 In449 2.326 . S
O451 C459 1.252 . S
C452 O455 1.252 . S
C452 O456 1.260 . S
C453 O460 1.240 . S
C453 O461 1.252 . S
C454 O457 1.252 . S
C454 O458 1.260 . S
O455 In449 2.266 . S
O455 C452 1.252 . S
O456 In449 2.326 . S
O456 C452 1.260 . S
O457 In449 2.266 . S
O457 C454 1.252 . S
O458 In449 2.326 . S
O458 C454 1.260 . S
C459 O450 1.240 . S
C459 O451 1.252 . S
O460 In449 2.294 . S
O460 C453 1.240 . S
O461 In449 2.326 . S
O461 C453 1.252 . S
In462 O463 2.294 . S
In462 O464 2.326 . S
In462 O468 2.266 1_554 S
In462 O469 2.326 1_554 S
In462 O470 2.266 1_554 S
In462 O471 2.326 1_554 S
In462 O473 2.294 . S
In462 O474 2.326 . S
O463 In462 2.294 . S
O463 C472 1.240 . S
O464 In462 2.326 . S
O464 C472 1.252 . S
C465 O468 1.252 . S
C465 O469 1.260 . S
C466 O473 1.240 . S
C466 O474 1.252 . S
C467 O470 1.252 . S
C467 O471 1.260 . S
O468 In462 2.266 1_556 S
O468 C465 1.252 . S
O469 In462 2.326 1_556 S
O469 C465 1.260 . S
O470 In462 2.266 1_556 S
O470 C467 1.252 . S
O471 In462 2.326 1_556 S
O471 C467 1.260 . S
C472 O463 1.240 . S
C472 O464 1.252 . S
O473 In462 2.294 . S
O473 C466 1.240 . S
O474 In462 2.326 . S
O474 C466 1.252 . S
In475 O476 2.294 . S
In475 O477 2.326 . S
In475 O481 2.266 . S
In475 O482 2.326 . S
In475 O483 2.266 . S
In475 O484 2.326 . S
In475 O486 2.294 . S
In475 O487 2.326 . S
O476 In475 2.294 . S
O476 C485 1.240 . S
O477 In475 2.326 . S
O477 C485 1.252 . S
C478 O481 1.252 . S
C478 O482 1.260 . S
C479 O486 1.240 . S
C479 O487 1.252 . S
C480 O483 1.252 . S
C480 O484 1.260 . S
O481 In475 2.266 . S
O481 C478 1.252 . S
O482 In475 2.326 . S
O482 C478 1.260 . S
O483 In475 2.266 . S
O483 C480 1.252 . S
O484 In475 2.326 . S
O484 C480 1.260 . S
C485 O476 1.240 . S
C485 O477 1.252 . S
O486 In475 2.294 . S
O486 C479 1.240 . S
O487 In475 2.326 . S
O487 C479 1.252 . S
H488 C494 0.930 . S
H489 C498 0.930 . S
H490 C503 0.929 . S
H491 C501 0.929 . S
H492 C496 0.929 . S
H493 C502 0.929 . S
C494 H488 0.930 . S
C494 C495 1.367 . S
C494 C502 1.378 . S
C495 C494 1.367 . S
C495 C503 1.433 . S
C496 H492 0.929 . S
C496 C498 1.378 . S
C496 C500 1.350 . S
C497 C500 1.463 . S
C497 C502 1.350 . S
C497 N505 1.427 . S
C498 H489 0.930 . S
C498 C496 1.378 . S
C498 C499 1.367 . S
C499 C498 1.367 . S
C499 C501 1.433 . S
C500 C496 1.350 . S
C500 C497 1.463 . S
C500 N504 1.427 . S
C501 H491 0.929 . S
C501 C499 1.433 . S
C501 N504 1.384 . S
C502 H493 0.929 . S
C502 C494 1.378 . S
C502 C497 1.350 . S
C503 H490 0.929 . S
C503 C495 1.433 . S
C503 N505 1.384 . S
N504 C500 1.427 . S
N504 C501 1.384 . S
N505 C497 1.427 . S
N505 C503 1.384 . S
H506 C512 0.930 . S
H507 C516 0.930 . S
H508 C521 0.929 . S
H509 C519 0.929 . S
H510 C514 0.929 . S
H511 C520 0.929 . S
C512 H506 0.930 . S
C512 C513 1.367 . S
C512 C520 1.378 . S
C513 C512 1.367 . S
C513 C521 1.433 . S
C514 H510 0.929 . S
C514 C516 1.378 . S
C514 C518 1.350 . S
C515 C518 1.463 . S
C515 C520 1.350 . S
C515 N523 1.427 . S
C516 H507 0.930 . S
C516 C514 1.378 . S
C516 C517 1.367 . S
C517 C516 1.367 . S
C517 C519 1.433 . S
C518 C514 1.350 . S
C518 C515 1.463 . S
C518 N522 1.427 . S
C519 H509 0.929 . S
C519 C517 1.433 . S
C519 N522 1.384 . S
C520 H511 0.929 . S
C520 C512 1.378 . S
C520 C515 1.350 . S
C521 H508 0.929 . S
C521 C513 1.433 . S
C521 N523 1.384 . S
N522 C518 1.427 . S
N522 C519 1.384 . S
N523 C515 1.427 . S
N523 C521 1.384 . S
H524 C530 0.930 . S
H525 C534 0.930 . S
H526 C539 0.929 . S
H527 C537 0.929 . S
H528 C532 0.929 . S
H529 C538 0.929 . S
C530 H524 0.930 . S
C530 C531 1.367 . S
C530 C538 1.378 . S
C531 C530 1.367 . S
C531 C539 1.433 . S
C532 H528 0.929 . S
C532 C534 1.378 . S
C532 C536 1.350 . S
C533 C536 1.463 . S
C533 C538 1.350 . S
C533 N541 1.427 . S
C534 H525 0.930 . S
C534 C532 1.378 . S
C534 C535 1.367 . S
C535 C534 1.367 . S
C535 C537 1.433 . S
C536 C532 1.350 . S
C536 C533 1.463 . S
C536 N540 1.427 . S
C537 H527 0.929 . S
C537 C535 1.433 . S
C537 N540 1.384 . S
C538 H529 0.929 . S
C538 C530 1.378 . S
C538 C533 1.350 . S
C539 H526 0.929 . S
C539 C531 1.433 . S
C539 N541 1.384 . S
N540 C536 1.427 . S
N540 C537 1.384 . S
N541 C533 1.427 . S
N541 C539 1.384 . S
H542 C548 0.930 . S
H543 C552 0.930 . S
H544 C557 0.929 . S
H545 C555 0.929 . S
H546 C550 0.929 . S
H547 C556 0.929 . S
C548 H542 0.930 . S
C548 C549 1.367 . S
C548 C556 1.378 . S
C549 C548 1.367 . S
C549 C557 1.433 . S
C550 H546 0.929 . S
C550 C552 1.378 . S
C550 C554 1.350 . S
C551 C554 1.463 . S
C551 C556 1.350 . S
C551 N559 1.427 . S
C552 H543 0.930 . S
C552 C550 1.378 . S
C552 C553 1.367 . S
C553 C552 1.367 . S
C553 C555 1.433 . S
C554 C550 1.350 . S
C554 C551 1.463 . S
C554 N558 1.427 . S
C555 H545 0.929 . S
C555 C553 1.433 . S
C555 N558 1.384 . S
C556 H547 0.929 . S
C556 C548 1.378 . S
C556 C551 1.350 . S
C557 H544 0.929 . S
C557 C549 1.433 . S
C557 N559 1.384 . S
N558 C554 1.427 . S
N558 C555 1.384 . S
N559 C551 1.427 . S
N559 C557 1.384 . S
H560 C566 0.930 . S
H561 C570 0.991 . S
H562 C575 0.929 . S
H563 C573 0.929 . S
H564 C568 0.929 1_554 S
H565 C574 0.929 . S
C566 H560 0.930 . S
C566 C567 1.367 . S
C566 C574 1.378 . S
C567 C566 1.367 . S
C567 C575 1.433 . S
C568 H564 0.929 1_556 S
C568 C570 1.359 1_556 S
C568 C572 1.350 . S
C569 C572 1.463 . S
C569 C574 1.350 . S
C569 N577 1.427 . S
C570 H561 0.991 . S
C570 C568 1.359 1_554 S
C570 C571 1.327 1_554 S
C571 C570 1.327 1_556 S
C571 C573 1.433 . S
C572 C568 1.350 . S
C572 C569 1.463 . S
C572 N576 1.427 . S
C573 H563 0.929 . S
C573 C571 1.433 . S
C573 N576 1.384 . S
C574 H565 0.929 . S
C574 C566 1.378 . S
C574 C569 1.350 . S
C575 H562 0.929 . S
C575 C567 1.433 . S
C575 N577 1.384 . S
N576 C572 1.427 . S
N576 C573 1.384 . S
N577 C569 1.427 . S
N577 C575 1.384 . S
H578 C584 0.930 . S
H579 C588 0.930 . S
H580 C593 0.929 . S
H581 C591 0.929 . S
H582 C586 0.929 . S
H583 C592 0.929 . S
C584 H578 0.930 . S
C584 C585 1.367 . S
C584 C592 1.378 . S
C585 C584 1.367 . S
C585 C593 1.433 . S
C586 H582 0.929 . S
C586 C588 1.378 . S
C586 C590 1.350 . S
C587 C590 1.463 . S
C587 C592 1.350 . S
C587 N595 1.427 . S
C588 H579 0.930 . S
C588 C586 1.378 . S
C588 C589 1.367 . S
C589 C588 1.367 . S
C589 C591 1.433 . S
C590 C586 1.350 . S
C590 C587 1.463 . S
C590 N594 1.427 . S
C591 H581 0.929 . S
C591 C589 1.433 . S
C591 N594 1.384 . S
C592 H583 0.929 . S
C592 C584 1.378 . S
C592 C587 1.350 . S
C593 H580 0.929 . S
C593 C585 1.433 . S
C593 N595 1.384 . S
N594 C590 1.427 . S
N594 C591 1.384 . S
N595 C587 1.427 . S
N595 C593 1.384 . S
H596 C602 0.930 . S
H597 C606 0.930 . S
H598 C611 0.929 . S
H599 C609 0.929 . S
H600 C604 0.929 . S
H601 C610 0.929 . S
C602 H596 0.930 . S
C602 C603 1.367 . S
C602 C610 1.378 . S
C603 C602 1.367 . S
C603 C611 1.433 . S
C604 H600 0.929 . S
C604 C606 1.378 . S
C604 C608 1.350 . S
C605 C608 1.463 . S
C605 C610 1.350 . S
C605 N613 1.427 . S
C606 H597 0.930 . S
C606 C604 1.378 . S
C606 C607 1.367 . S
C607 C606 1.367 . S
C607 C609 1.433 . S
C608 C604 1.350 . S
C608 C605 1.463 . S
C608 N612 1.427 . S
C609 H599 0.929 . S
C609 C607 1.433 . S
C609 N612 1.384 . S
C610 H601 0.929 . S
C610 C602 1.378 . S
C610 C605 1.350 . S
C611 H598 0.929 . S
C611 C603 1.433 . S
C611 N613 1.384 . S
N612 C608 1.427 . S
N612 C609 1.384 . S
N613 C605 1.427 . S
N613 C611 1.384 . S
H614 C620 0.930 . S
H615 C624 0.930 . S
H616 C629 0.929 . S
H617 C627 0.929 . S
H618 C622 0.929 . S
H619 C628 0.929 . S
C620 H614 0.930 . S
C620 C621 1.367 . S
C620 C628 1.378 . S
C621 C620 1.367 . S
C621 C629 1.433 . S
C622 H618 0.929 . S
C622 C624 1.378 . S
C622 C626 1.350 . S
C623 C626 1.463 . S
C623 C628 1.350 . S
C623 N631 1.427 . S
C624 H615 0.930 . S
C624 C622 1.378 . S
C624 C625 1.367 . S
C625 C624 1.367 . S
C625 C627 1.433 . S
C626 C622 1.350 . S
C626 C623 1.463 . S
C626 N630 1.427 . S
C627 H617 0.929 . S
C627 C625 1.433 . S
C627 N630 1.384 . S
C628 H619 0.929 . S
C628 C620 1.378 . S
C628 C623 1.350 . S
C629 H616 0.929 . S
C629 C621 1.433 . S
C629 N631 1.384 . S
N630 C626 1.427 . S
N630 C627 1.384 . S
N631 C623 1.427 . S
N631 C629 1.384 . S
H632 C638 0.930 . S
H633 C642 0.930 . S
H634 C647 0.929 . S
H635 C645 0.929 . S
H636 C640 0.929 . S
H637 C646 0.929 . S
C638 H632 0.930 . S
C638 C639 1.367 . S
C638 C646 1.378 . S
C639 C638 1.367 . S
C639 C647 1.433 . S
C640 H636 0.929 . S
C640 C642 1.378 . S
C640 C644 1.350 . S
C641 C644 1.463 . S
C641 C646 1.350 . S
C641 N649 1.427 . S
C642 H633 0.930 . S
C642 C640 1.378 . S
C642 C643 1.367 . S
C643 C642 1.367 . S
C643 C645 1.433 . S
C644 C640 1.350 . S
C644 C641 1.463 . S
C644 N648 1.427 . S
C645 H635 0.929 . S
C645 C643 1.433 . S
C645 N648 1.384 . S
C646 H637 0.929 . S
C646 C638 1.378 . S
C646 C641 1.350 . S
C647 H634 0.929 . S
C647 C639 1.433 . S
C647 N649 1.384 . S
N648 C644 1.427 . S
N648 C645 1.384 . S
N649 C641 1.427 . S
N649 C647 1.384 . S
H650 C656 0.930 . S
H651 C660 0.930 . S
H652 C665 0.929 . S
H653 C663 0.929 1_556 S
H654 C658 0.929 . S
H655 C664 0.929 . S
C656 H650 0.930 . S
C656 C657 1.367 . S
C656 C664 1.378 . S
C657 C656 1.367 . S
C657 C665 1.433 . S
C658 H654 0.929 . S
C658 C660 1.378 . S
C658 C662 1.350 . S
C659 C662 1.463 . S
C659 C664 1.350 . S
C659 N667 1.427 . S
C660 H651 0.930 . S
C660 C658 1.378 . S
C660 C661 1.367 . S
C661 C660 1.367 . S
C661 C663 1.433 . S
C662 C658 1.350 . S
C662 C659 1.463 . S
C662 N666 1.427 . S
C663 H653 0.929 1_554 S
C663 C661 1.433 . S
C663 N666 1.384 . S
C664 H655 0.929 . S
C664 C656 1.378 . S
C664 C659 1.350 . S
C665 H652 0.929 . S
C665 C657 1.433 . S
C665 N667 1.384 . S
N666 C662 1.427 . S
N666 C663 1.384 . S
N667 C659 1.427 . S
N667 C665 1.384 . S
H668 C674 0.930 . S
H669 C678 0.930 . S
H670 C683 0.929 . S
H671 C681 0.929 . S
H672 C676 0.929 . S
H673 C682 0.929 . S
C674 H668 0.930 . S
C674 C675 1.367 . S
C674 C682 1.378 . S
C675 C674 1.367 . S
C675 C683 1.433 . S
C676 H672 0.929 . S
C676 C678 1.378 . S
C676 C680 1.350 . S
C677 C680 1.463 . S
C677 C682 1.350 . S
C677 N685 1.427 . S
C678 H669 0.930 . S
C678 C676 1.378 . S
C678 C679 1.367 . S
C679 C678 1.367 . S
C679 C681 1.433 . S
C680 C676 1.350 . S
C680 C677 1.463 . S
C680 N684 1.427 . S
C681 H671 0.929 . S
C681 C679 1.433 . S
C681 N684 1.384 . S
C682 H673 0.929 . S
C682 C674 1.378 . S
C682 C677 1.350 . S
C683 H670 0.929 . S
C683 C675 1.433 . S
C683 N685 1.384 . S
N684 C680 1.427 . S
N684 C681 1.384 . S
N685 C677 1.427 . S
N685 C683 1.384 . S
H686 C692 0.930 . S
H687 C696 0.930 . S
H688 C701 0.929 . S
H689 C699 0.929 . S
H690 C694 0.929 . S
H691 C700 0.929 . S
C692 H686 0.930 . S
C692 C693 1.367 . S
C692 C700 1.378 . S
C693 C692 1.367 . S
C693 C701 1.433 . S
C694 H690 0.929 . S
C694 C696 1.378 . S
C694 C698 1.350 . S
C695 C698 1.463 . S
C695 C700 1.350 . S
C695 N703 1.427 . S
C696 H687 0.930 . S
C696 C694 1.378 . S
C696 C697 1.367 . S
C697 C696 1.367 . S
C697 C699 1.433 . S
C698 C694 1.350 . S
C698 C695 1.463 . S
C698 N702 1.427 . S
C699 H689 0.929 . S
C699 C697 1.433 . S
C699 N702 1.384 . S
C700 H691 0.929 . S
C700 C692 1.378 . S
C700 C695 1.350 . S
C701 H688 0.929 . S
C701 C693 1.433 . S
C701 N703 1.384 . S
N702 C698 1.427 . S
N702 C699 1.384 . S
N703 C695 1.427 . S
N703 C701 1.384 . S
H704 C710 0.930 . S
H705 C714 0.930 . S
H706 C719 0.929 . S
H707 C717 0.929 . S
H708 C712 0.929 . S
H709 C718 0.929 . S
C710 H704 0.930 . S
C710 C711 1.367 . S
C710 C718 1.378 . S
C711 C710 1.367 . S
C711 C719 1.433 . S
C712 H708 0.929 . S
C712 C714 1.378 . S
C712 C716 1.350 . S
C713 C716 1.463 . S
C713 C718 1.350 . S
C713 N721 1.427 . S
C714 H705 0.930 . S
C714 C712 1.378 . S
C714 C715 1.367 . S
C715 C714 1.367 . S
C715 C717 1.433 . S
C716 C712 1.350 . S
C716 C713 1.463 . S
C716 N720 1.427 . S
C717 H707 0.929 . S
C717 C715 1.433 . S
C717 N720 1.384 . S
C718 H709 0.929 . S
C718 C710 1.378 . S
C718 C713 1.350 . S
C719 H706 0.929 . S
C719 C711 1.433 . S
C719 N721 1.384 . S
N720 C716 1.427 . S
N720 C717 1.384 . S
N721 C713 1.427 . S
N721 C719 1.384 . S
H722 C728 0.930 . S
H723 C732 0.930 . S
H724 C737 0.929 . S
H725 C735 0.929 . S
H726 C730 0.929 . S
H727 C736 0.929 . S
C728 H722 0.930 . S
C728 C729 1.367 . S
C728 C736 1.378 . S
C729 C728 1.367 . S
C729 C737 1.433 . S
C730 H726 0.929 . S
C730 C732 1.378 . S
C730 C734 1.350 . S
C731 C734 1.463 . S
C731 C736 1.350 . S
C731 N739 1.427 . S
C732 H723 0.930 . S
C732 C730 1.378 . S
C732 C733 1.367 . S
C733 C732 1.367 . S
C733 C735 1.433 . S
C734 C730 1.350 . S
C734 C731 1.463 . S
C734 N738 1.427 . S
C735 H725 0.929 . S
C735 C733 1.433 . S
C735 N738 1.384 . S
C736 H727 0.929 . S
C736 C728 1.378 . S
C736 C731 1.350 . S
C737 H724 0.929 . S
C737 C729 1.433 . S
C737 N739 1.384 . S
N738 C734 1.427 . S
N738 C735 1.384 . S
N739 C731 1.427 . S
N739 C737 1.384 . S
H740 C746 0.930 . S
H741 C750 0.930 . S
H742 C755 0.929 . S
H743 C753 0.929 . S
H744 C748 0.929 . S
H745 C754 0.929 . S
C746 H740 0.930 . S
C746 C747 1.367 . S
C746 C754 1.378 . S
C747 C746 1.367 . S
C747 C755 1.433 . S
C748 H744 0.929 . S
C748 C750 1.378 . S
C748 C752 1.350 . S
C749 C752 1.463 . S
C749 C754 1.350 . S
C749 N757 1.427 . S
C750 H741 0.930 . S
C750 C748 1.378 . S
C750 C751 1.367 . S
C751 C750 1.367 . S
C751 C753 1.433 . S
C752 C748 1.350 . S
C752 C749 1.463 . S
C752 N756 1.427 . S
C753 H743 0.929 . S
C753 C751 1.433 . S
C753 N756 1.384 . S
C754 H745 0.929 . S
C754 C746 1.378 . S
C754 C749 1.350 . S
C755 H742 0.929 . S
C755 C747 1.433 . S
C755 N757 1.384 . S
N756 C752 1.427 . S
N756 C753 1.384 . S
N757 C749 1.427 . S
N757 C755 1.384 . S
H758 C764 0.930 . S
H759 C768 0.930 . S
H760 C773 0.929 . S
H761 C771 0.929 . S
H762 C766 0.929 . S
H763 C772 0.929 . S
C764 H758 0.930 . S
C764 C765 1.367 . S
C764 C772 1.378 . S
C765 C764 1.367 . S
C765 C773 1.433 . S
C766 H762 0.929 . S
C766 C768 1.378 . S
C766 C770 1.350 . S
C767 C770 1.463 . S
C767 C772 1.350 . S
C767 N775 1.427 . S
C768 H759 0.930 . S
C768 C766 1.378 . S
C768 C769 1.367 . S
C769 C768 1.367 . S
C769 C771 1.433 . S
C770 C766 1.350 . S
C770 C767 1.463 . S
C770 N774 1.427 . S
C771 H761 0.929 . S
C771 C769 1.433 . S
C771 N774 1.384 . S
C772 H763 0.929 . S
C772 C764 1.378 . S
C772 C767 1.350 . S
C773 H760 0.929 . S
C773 C765 1.433 . S
C773 N775 1.384 . S
N774 C770 1.427 . S
N774 C771 1.384 . S
N775 C767 1.427 . S
N775 C773 1.384 . S
H776 C782 0.930 . S
H777 C786 0.930 . S
H778 C791 0.929 . S
H779 C789 0.929 . S
H780 C784 0.929 . S
H781 C790 0.929 . S
C782 H776 0.930 . S
C782 C783 1.367 . S
C782 C790 1.378 . S
C783 C782 1.367 . S
C783 C791 1.433 . S
C784 H780 0.929 . S
C784 C786 1.378 . S
C784 C788 1.350 . S
C785 C788 1.463 . S
C785 C790 1.350 . S
C785 N793 1.427 . S
C786 H777 0.930 . S
C786 C784 1.378 . S
C786 C787 1.367 . S
C787 C786 1.367 . S
C787 C789 1.433 . S
C788 C784 1.350 . S
C788 C785 1.463 . S
C788 N792 1.427 . S
C789 H779 0.929 . S
C789 C787 1.433 . S
C789 N792 1.384 . S
C790 H781 0.929 . S
C790 C782 1.378 . S
C790 C785 1.350 . S
C791 H778 0.929 . S
C791 C783 1.433 . S
C791 N793 1.384 . S
N792 C788 1.427 . S
N792 C789 1.384 . S
N793 C785 1.427 . S
N793 C791 1.384 . S
H794 C800 0.930 . S
H795 C804 0.930 . S
H796 C809 0.929 . S
H797 C807 0.929 . S
H798 C802 0.929 . S
H799 C808 0.929 . S
C800 H794 0.930 . S
C800 C801 1.367 . S
C800 C808 1.378 . S
C801 C800 1.367 . S
C801 C809 1.433 . S
C802 H798 0.929 . S
C802 C804 1.378 . S
C802 C806 1.350 . S
C803 C806 1.463 . S
C803 C808 1.350 . S
C803 N811 1.427 . S
C804 H795 0.930 . S
C804 C802 1.378 . S
C804 C805 1.367 . S
C805 C804 1.367 . S
C805 C807 1.433 . S
C806 C802 1.350 . S
C806 C803 1.463 . S
C806 N810 1.427 . S
C807 H797 0.929 . S
C807 C805 1.433 . S
C807 N810 1.384 . S
C808 H799 0.929 . S
C808 C800 1.378 . S
C808 C803 1.350 . S
C809 H796 0.929 . S
C809 C801 1.433 . S
C809 N811 1.384 . S
N810 C806 1.427 . S
N810 C807 1.384 . S
N811 C803 1.427 . S
N811 C809 1.384 . S
H812 C818 0.930 . S
H813 C822 0.930 . S
H814 C827 0.929 . S
H815 C825 0.929 . S
H816 C820 0.929 . S
H817 C826 0.929 . S
C818 H812 0.930 . S
C818 C819 1.367 . S
C818 C826 1.378 . S
C819 C818 1.367 . S
C819 C827 1.433 . S
C820 H816 0.929 . S
C820 C822 1.378 . S
C820 C824 1.350 . S
C821 C824 1.463 . S
C821 C826 1.350 . S
C821 N829 1.427 . S
C822 H813 0.930 . S
C822 C820 1.378 . S
C822 C823 1.367 . S
C823 C822 1.367 . S
C823 C825 1.433 . S
C824 C820 1.350 . S
C824 C821 1.463 . S
C824 N828 1.427 . S
C825 H815 0.929 . S
C825 C823 1.433 . S
C825 N828 1.384 . S
C826 H817 0.929 . S
C826 C818 1.378 . S
C826 C821 1.350 . S
C827 H814 0.929 . S
C827 C819 1.433 . S
C827 N829 1.384 . S
N828 C824 1.427 . S
N828 C825 1.384 . S
N829 C821 1.427 . S
N829 C827 1.384 . S
H830 C836 0.930 . S
H831 C840 0.930 . S
H832 C845 0.929 . S
H833 C843 0.929 . S
H834 C838 0.929 . S
H835 C844 0.929 . S
C836 H830 0.930 . S
C836 C837 1.367 . S
C836 C844 1.378 . S
C837 C836 1.367 . S
C837 C845 1.433 . S
C838 H834 0.929 . S
C838 C840 1.378 . S
C838 C842 1.350 . S
C839 C842 1.463 . S
C839 C844 1.350 . S
C839 N847 1.427 . S
C840 H831 0.930 . S
C840 C838 1.378 . S
C840 C841 1.367 . S
C841 C840 1.367 . S
C841 C843 1.433 . S
C842 C838 1.350 . S
C842 C839 1.463 . S
C842 N846 1.427 . S
C843 H833 0.929 . S
C843 C841 1.433 . S
C843 N846 1.384 . S
C844 H835 0.929 . S
C844 C836 1.378 . S
C844 C839 1.350 . S
C845 H832 0.929 . S
C845 C837 1.433 . S
C845 N847 1.384 . S
N846 C842 1.427 . S
N846 C843 1.384 . S
N847 C839 1.427 . S
N847 C845 1.384 . S
H848 C854 0.930 . S
H849 C858 0.930 . S
H850 C863 0.929 . S
H851 C861 0.929 . S
H852 C856 0.929 . S
H853 C862 0.929 . S
C854 H848 0.930 . S
C854 C855 1.367 . S
C854 C862 1.378 . S
C855 C854 1.367 . S
C855 C863 1.433 . S
C856 H852 0.929 . S
C856 C858 1.378 . S
C856 C860 1.350 . S
C857 C860 1.463 . S
C857 C862 1.350 . S
C857 N865 1.427 . S
C858 H849 0.930 . S
C858 C856 1.378 . S
C858 C859 1.367 . S
C859 C858 1.367 . S
C859 C861 1.433 . S
C860 C856 1.350 . S
C860 C857 1.463 . S
C860 N864 1.427 . S
C861 H851 0.929 . S
C861 C859 1.433 . S
C861 N864 1.384 . S
C862 H853 0.929 . S
C862 C854 1.378 . S
C862 C857 1.350 . S
C863 H850 0.929 . S
C863 C855 1.433 . S
C863 N865 1.384 . S
N864 C860 1.427 . S
N864 C861 1.384 . S
N865 C857 1.427 . S
N865 C863 1.384 . S
H866 C872 0.930 . S
H867 C876 0.930 . S
H868 C881 0.929 . S
H869 C879 0.929 . S
H870 C874 0.929 . S
H871 C880 0.929 . S
C872 H866 0.930 . S
C872 C873 1.367 . S
C872 C880 1.378 . S
C873 C872 1.367 . S
C873 C881 1.433 . S
C874 H870 0.929 . S
C874 C876 1.378 . S
C874 C878 1.350 . S
C875 C878 1.463 . S
C875 C880 1.350 . S
C875 N883 1.427 . S
C876 H867 0.930 . S
C876 C874 1.378 . S
C876 C877 1.367 . S
C877 C876 1.367 . S
C877 C879 1.433 . S
C878 C874 1.350 . S
C878 C875 1.463 . S
C878 N882 1.427 . S
C879 H869 0.929 . S
C879 C877 1.433 . S
C879 N882 1.384 . S
C880 H871 0.929 . S
C880 C872 1.378 . S
C880 C875 1.350 . S
C881 H868 0.929 . S
C881 C873 1.433 . S
C881 N883 1.384 . S
N882 C878 1.427 . S
N882 C879 1.384 . S
N883 C875 1.427 . S
N883 C881 1.384 . S
H884 C890 0.930 . S
H885 C894 0.930 . S
H886 C899 0.929 . S
H887 C897 0.929 . S
H888 C892 0.929 . S
H889 C898 0.929 . S
C890 H884 0.930 . S
C890 C891 1.367 . S
C890 C898 1.378 . S
C891 C890 1.367 . S
C891 C899 1.433 . S
C892 H888 0.929 . S
C892 C894 1.378 . S
C892 C896 1.350 . S
C893 C896 1.463 . S
C893 C898 1.350 . S
C893 N901 1.427 . S
C894 H885 0.930 . S
C894 C892 1.378 . S
C894 C895 1.367 . S
C895 C894 1.367 . S
C895 C897 1.433 . S
C896 C892 1.350 . S
C896 C893 1.463 . S
C896 N900 1.427 . S
C897 H887 0.929 . S
C897 C895 1.433 . S
C897 N900 1.384 . S
C898 H889 0.929 . S
C898 C890 1.378 . S
C898 C893 1.350 . S
C899 H886 0.929 . S
C899 C891 1.433 . S
C899 N901 1.384 . S
N900 C896 1.427 . S
N900 C897 1.384 . S
N901 C893 1.427 . S
N901 C899 1.384 . S
H902 C908 0.930 . S
H903 C912 0.930 . S
H904 C917 0.929 . S
H905 C915 0.929 . S
H906 C910 0.929 . S
H907 C916 0.929 . S
C908 H902 0.930 . S
C908 C909 1.367 . S
C908 C916 1.378 . S
C909 C908 1.367 . S
C909 C917 1.433 . S
C910 H906 0.929 . S
C910 C912 1.378 . S
C910 C914 1.350 . S
C911 C914 1.463 . S
C911 C916 1.350 . S
C911 N919 1.427 . S
C912 H903 0.930 . S
C912 C910 1.378 . S
C912 C913 1.367 . S
C913 C912 1.367 . S
C913 C915 1.433 . S
C914 C910 1.350 . S
C914 C911 1.463 . S
C914 N918 1.427 . S
C915 H905 0.929 . S
C915 C913 1.433 . S
C915 N918 1.384 . S
C916 H907 0.929 . S
C916 C908 1.378 . S
C916 C911 1.350 . S
C917 H904 0.929 . S
C917 C909 1.433 . S
C917 N919 1.384 . S
N918 C914 1.427 . S
N918 C915 1.384 . S
N919 C911 1.427 . S
N919 C917 1.384 . S
H920 C926 0.930 . S
H921 C930 0.930 . S
H922 C935 0.929 . S
H923 C933 0.929 . S
H924 C928 0.929 . S
H925 C934 0.929 . S
C926 H920 0.930 . S
C926 C927 1.367 . S
C926 C934 1.378 . S
C927 C926 1.367 . S
C927 C935 1.433 . S
C928 H924 0.929 . S
C928 C930 1.378 . S
C928 C932 1.350 . S
C929 C932 1.463 . S
C929 C934 1.350 . S
C929 N937 1.427 . S
C930 H921 0.930 . S
C930 C928 1.378 . S
C930 C931 1.367 . S
C931 C930 1.367 . S
C931 C933 1.433 . S
C932 C928 1.350 . S
C932 C929 1.463 . S
C932 N936 1.427 . S
C933 H923 0.929 . S
C933 C931 1.433 . S
C933 N936 1.384 . S
C934 H925 0.929 . S
C934 C926 1.378 . S
C934 C929 1.350 . S
C935 H922 0.929 . S
C935 C927 1.433 . S
C935 N937 1.384 . S
N936 C932 1.427 . S
N936 C933 1.384 . S
N937 C929 1.427 . S
N937 C935 1.384 . S
H938 C944 0.930 . S
H939 C948 0.930 . S
H940 C953 0.929 . S
H941 C951 0.929 . S
H942 C946 0.929 . S
H943 C952 0.929 . S
C944 H938 0.930 . S
C944 C945 1.367 . S
C944 C952 1.378 . S
C945 C944 1.367 . S
C945 C953 1.433 . S
C946 H942 0.929 . S
C946 C948 1.378 . S
C946 C950 1.350 . S
C947 C950 1.463 . S
C947 C952 1.350 . S
C947 N955 1.427 . S
C948 H939 0.930 . S
C948 C946 1.378 . S
C948 C949 1.367 . S
C949 C948 1.367 . S
C949 C951 1.433 . S
C950 C946 1.350 . S
C950 C947 1.463 . S
C950 N954 1.427 . S
C951 H941 0.929 . S
C951 C949 1.433 . S
C951 N954 1.384 . S
C952 H943 0.929 . S
C952 C944 1.378 . S
C952 C947 1.350 . S
C953 H940 0.929 . S
C953 C945 1.433 . S
C953 N955 1.384 . S
N954 C950 1.427 . S
N954 C951 1.384 . S
N955 C947 1.427 . S
N955 C953 1.384 . S
H956 C962 0.930 . S
H957 C966 0.930 . S
H958 C971 0.929 . S
H959 C969 0.929 . S
H960 C964 0.929 . S
H961 C970 0.929 . S
C962 H956 0.930 . S
C962 C963 1.367 . S
C962 C970 1.378 . S
C963 C962 1.367 . S
C963 C971 1.433 . S
C964 H960 0.929 . S
C964 C966 1.378 . S
C964 C968 1.350 . S
C965 C968 1.463 . S
C965 C970 1.350 . S
C965 N973 1.427 . S
C966 H957 0.930 . S
C966 C964 1.378 . S
C966 C967 1.367 . S
C967 C966 1.367 . S
C967 C969 1.433 . S
C968 C964 1.350 . S
C968 C965 1.463 . S
C968 N972 1.427 . S
C969 H959 0.929 . S
C969 C967 1.433 . S
C969 N972 1.384 . S
C970 H961 0.929 . S
C970 C962 1.378 . S
C970 C965 1.350 . S
C971 H958 0.929 . S
C971 C963 1.433 . S
C971 N973 1.384 . S
N972 C968 1.427 . S
N972 C969 1.384 . S
N973 C965 1.427 . S
N973 C971 1.384 . S
H974 C980 0.930 . S
H975 C984 0.930 . S
H976 C989 0.929 . S
H977 C987 0.929 . S
H978 C982 0.929 . S
H979 C988 0.929 . S
C980 H974 0.930 . S
C980 C981 1.367 . S
C980 C988 1.378 . S
C981 C980 1.367 . S
C981 C989 1.433 . S
C982 H978 0.929 . S
C982 C984 1.378 . S
C982 C986 1.350 . S
C983 C986 1.463 . S
C983 C988 1.350 . S
C983 N991 1.427 . S
C984 H975 0.930 . S
C984 C982 1.378 . S
C984 C985 1.367 . S
C985 C984 1.367 . S
C985 C987 1.433 . S
C986 C982 1.350 . S
C986 C983 1.463 . S
C986 N990 1.427 . S
C987 H977 0.929 . S
C987 C985 1.433 . S
C987 N990 1.384 . S
C988 H979 0.929 . S
C988 C980 1.378 . S
C988 C983 1.350 . S
C989 H976 0.929 . S
C989 C981 1.433 . S
C989 N991 1.384 . S
N990 C986 1.427 . S
N990 C987 1.384 . S
N991 C983 1.427 . S
N991 C989 1.384 . S
H992 C998 0.930 . S
H993 C1002 0.930 . S
H994 C1007 0.929 . S
H995 C1005 0.929 . S
H996 C1000 0.929 . S
H997 C1006 0.929 . S
C998 H992 0.930 . S
C998 C999 1.367 . S
C998 C1006 1.378 . S
C999 C998 1.367 . S
C999 C1007 1.433 . S
C1000 H996 0.929 . S
C1000 C1002 1.378 . S
C1000 C1004 1.350 . S
C1001 C1004 1.463 . S
C1001 C1006 1.350 . S
C1001 N1009 1.427 . S
C1002 H993 0.930 . S
C1002 C1000 1.378 . S
C1002 C1003 1.367 . S
C1003 C1002 1.367 . S
C1003 C1005 1.433 . S
C1004 C1000 1.350 . S
C1004 C1001 1.463 . S
C1004 N1008 1.427 . S
C1005 H995 0.929 . S
C1005 C1003 1.433 . S
C1005 N1008 1.384 . S
C1006 H997 0.929 . S
C1006 C998 1.378 . S
C1006 C1001 1.350 . S
C1007 H994 0.929 . S
C1007 C999 1.433 . S
C1007 N1009 1.384 . S
N1008 C1004 1.427 . S
N1008 C1005 1.384 . S
N1009 C1001 1.427 . S
N1009 C1007 1.384 . S
H1010 C1016 0.930 . S
H1011 C1020 0.930 . S
H1012 C1025 0.929 . S
H1013 C1023 0.929 . S
H1014 C1018 0.929 . S
H1015 C1024 0.929 . S
C1016 H1010 0.930 . S
C1016 C1017 1.367 . S
C1016 C1024 1.378 . S
C1017 C1016 1.367 . S
C1017 C1025 1.433 . S
C1018 H1014 0.929 . S
C1018 C1020 1.378 . S
C1018 C1022 1.350 . S
C1019 C1022 1.463 . S
C1019 C1024 1.350 . S
C1019 N1027 1.427 . S
C1020 H1011 0.930 . S
C1020 C1018 1.378 . S
C1020 C1021 1.367 . S
C1021 C1020 1.367 . S
C1021 C1023 1.433 . S
C1022 C1018 1.350 . S
C1022 C1019 1.463 . S
C1022 N1026 1.427 . S
C1023 H1013 0.929 . S
C1023 C1021 1.433 . S
C1023 N1026 1.384 . S
C1024 H1015 0.929 . S
C1024 C1016 1.378 . S
C1024 C1019 1.350 . S
C1025 H1012 0.929 . S
C1025 C1017 1.433 . S
C1025 N1027 1.384 . S
N1026 C1022 1.427 . S
N1026 C1023 1.384 . S
N1027 C1019 1.427 . S
N1027 C1025 1.384 . S
H1028 C1034 0.930 . S
H1029 C1038 0.930 . S
H1030 C1043 0.929 . S
H1031 C1041 0.929 . S
H1032 C1036 0.929 . S
H1033 C1042 0.929 . S
C1034 H1028 0.930 . S
C1034 C1035 1.367 . S
C1034 C1042 1.378 . S
C1035 C1034 1.367 . S
C1035 C1043 1.433 . S
C1036 H1032 0.929 . S
C1036 C1038 1.378 . S
C1036 C1040 1.350 . S
C1037 C1040 1.463 . S
C1037 C1042 1.350 . S
C1037 N1045 1.427 . S
C1038 H1029 0.930 . S
C1038 C1036 1.378 . S
C1038 C1039 1.367 . S
C1039 C1038 1.367 . S
C1039 C1041 1.433 . S
C1040 C1036 1.350 . S
C1040 C1037 1.463 . S
C1040 N1044 1.427 . S
C1041 H1031 0.929 . S
C1041 C1039 1.433 . S
C1041 N1044 1.384 . S
C1042 H1033 0.929 . S
C1042 C1034 1.378 . S
C1042 C1037 1.350 . S
C1043 H1030 0.929 . S
C1043 C1035 1.433 . S
C1043 N1045 1.384 . S
N1044 C1040 1.427 . S
N1044 C1041 1.384 . S
N1045 C1037 1.427 . S
N1045 C1043 1.384 . S
H1046 C1052 0.930 . S
H1047 C1056 0.930 . S
H1048 C1061 0.929 . S
H1049 C1059 0.929 . S
H1050 C1054 0.929 . S
H1051 C1060 0.929 . S
C1052 H1046 0.930 . S
C1052 C1053 1.367 . S
C1052 C1060 1.378 . S
C1053 C1052 1.367 . S
C1053 C1061 1.433 . S
C1054 H1050 0.929 . S
C1054 C1056 1.378 . S
C1054 C1058 1.350 . S
C1055 C1058 1.463 . S
C1055 C1060 1.350 . S
C1055 N1063 1.427 . S
C1056 H1047 0.930 . S
C1056 C1054 1.378 . S
C1056 C1057 1.367 . S
C1057 C1056 1.367 . S
C1057 C1059 1.433 . S
C1058 C1054 1.350 . S
C1058 C1055 1.463 . S
C1058 N1062 1.427 . S
C1059 H1049 0.929 . S
C1059 C1057 1.433 . S
C1059 N1062 1.384 . S
C1060 H1051 0.929 . S
C1060 C1052 1.378 . S
C1060 C1055 1.350 . S
C1061 H1048 0.929 . S
C1061 C1053 1.433 . S
C1061 N1063 1.384 . S
N1062 C1058 1.427 . S
N1062 C1059 1.384 . S
N1063 C1055 1.427 . S
N1063 C1061 1.384 . S
C499 C400 1.357 . S
C495 C36 1.345 . S
C517 C414 1.349 . S
C513 C93 1.350 . S
C535 C427 1.352 . S
C531 C126 1.345 . S
C549 C165 1.340 . S
C553 C394 1.360 . S
C567 C222 1.344 . S
C571 C387 1.366 . S
C585 C261 1.347 . S
C589 C407 1.359 . S
C607 C415 1.356 . S
C603 C318 1.337 . S
C625 C428 1.361 . S
C621 C381 1.353 . S
C639 C132 1.336 . S
C643 C454 1.355 . S
C661 C472 1.349 . S
C657 C189 1.350 . S
C675 C30 1.344 . S
C679 C479 1.354 . S
C697 C446 1.357 . S
C693 C69 1.345 . S
C711 C324 1.345 . S
C715 C439 1.366 . S
C729 C357 1.339 . S
C733 C453 1.359 . S
C751 C465 1.351 . S
C747 C228 1.342 . S
C765 C285 1.353 . S
C769 C480 1.357 . S
C787 C413 1.790 . S
C783 C45 1.802 . S
C805 C426 1.798 . S
C801 C84 1.813 . S
C819 C117 1.793 . S
C823 C389 1.793 . S
C837 C174 1.771 . S
C841 C401 1.782 . S
C855 C213 1.784 . S
C859 C433 1.778 . S
C877 C388 1.772 . S
C873 C270 1.764 . S
C895 C402 1.788 . S
C891 C309 1.798 . S
C913 C420 1.783 . S
C909 C372 1.803 . S
C931 C467 1.791 . S
C927 C141 1.803 . S
C949 C478 1.798 . S
C945 C180 1.812 . S
C963 C21 1.795 . S
C967 C441 1.786 . S
C985 C459 1.780 . S
C981 C78 1.760 . S
C1003 C485 1.778 . S
C999 C333 1.782 . S
C1017 C366 1.767 . S
C1021 C440 1.777 . S
C1039 C452 1.793 . S
C1035 C237 1.792 . S
C1057 C466 1.776 . S
C1053 C276 1.800 . S
