# Generated by pormake.
# Topology pyr, (3,6)-cn, num edge types: 1
# Building blocks:
#     Node 0, Type 0, BuildingBlock: KAKCAD_clean_linker_0, # of connection points: 3
#     Node 1, Type 0, BuildingBlock: KAKCAD_clean_linker_0, # of connection points: 3
#     Node 2, Type 0, BuildingBlock: KAKCAD_clean_linker_0, # of connection points: 3
#     Node 3, Type 0, BuildingBlock: KAKCAD_clean_linker_0, # of connection points: 3
#     Node 4, Type 0, BuildingBlock: KAKCAD_clean_linker_0, # of connection points: 3
#     Node 5, Type 0, BuildingBlock: KAKCAD_clean_linker_0, # of connection points: 3
#     Node 6, Type 0, BuildingBlock: KAKCAD_clean_linker_0, # of connection points: 3
#     Node 7, Type 0, BuildingBlock: KAKCAD_clean_linker_0, # of connection points: 3
#     Node 8, Type 1, BuildingBlock: LEVNOQ01_clean_sbu_1, # of connection points: 6
#     Node 9, Type 1, BuildingBlock: LEVNOQ01_clean_sbu_1, # of connection points: 6
#     Node 10, Type 1, BuildingBlock: LEVNOQ01_clean_sbu_1, # of connection points: 6
#     Node 11, Type 1, BuildingBlock: LEVNOQ01_clean_sbu_1, # of connection points: 6
#     Edge 12, Type (0, 1), None
#     Edge 13, Type (0, 1), None
#     Edge 14, Type (0, 1), None
#     Edge 15, Type (0, 1), None
#     Edge 16, Type (0, 1), None
#     Edge 17, Type (0, 1), None
#     Edge 18, Type (0, 1), None
#     Edge 19, Type (0, 1), None
#     Edge 20, Type (0, 1), None
#     Edge 21, Type (0, 1), None
#     Edge 22, Type (0, 1), None
#     Edge 23, Type (0, 1), None
#     Edge 24, Type (0, 1), None
#     Edge 25, Type (0, 1), None
#     Edge 26, Type (0, 1), None
#     Edge 27, Type (0, 1), None
#     Edge 28, Type (0, 1), None
#     Edge 29, Type (0, 1), None
#     Edge 30, Type (0, 1), None
#     Edge 31, Type (0, 1), None
#     Edge 32, Type (0, 1), None
#     Edge 33, Type (0, 1), None
#     Edge 34, Type (0, 1), None
#     Edge 35, Type (0, 1), None
# Relax obj value: 0.034
# Max RMSD: 0.109
# Mean RMSD: 0.045
data_MOF--net-pry--node1-LEVNOQ01_clean_sbu_1--node2-KAKCAD_clean_linker_0--edge1-none
_symmetry_space_group_name_H-M    P1
_symmetry_Int_Tables_number       1
_symmetry_cell_setting            triclinic
loop_
_symmetry_equiv_pos_as_xyz
'x, y, z'
_cell_length_a     26.018247
_cell_length_b     24.813549
_cell_length_c     23.937122
_cell_angle_alpha  92.963522
_cell_angle_beta   90.556348
_cell_angle_gamma 91.939624
loop_
_atom_site_label
_atom_site_type_symbol
_atom_site_fract_x
_atom_site_fract_y
_atom_site_fract_z
_atom_type_partial_charge
C0 C 0.01283 0.04337 0.27034 0.0
C1 C 0.03995 0.03614 0.32034 0.0
C2 C 0.03577 0.07064 0.22715 0.0
C3 C 0.08674 0.09041 0.23248 0.0
C4 C 0.11389 0.08407 0.28276 0.0
C5 C 0.09036 0.05773 0.32682 0.0
C6 C 0.11164 0.11526 0.18427 0.0
C7 C 0.08798 0.15712 0.15761 0.0
C8 C 0.10954 0.17889 0.10967 0.0
C9 C 0.15559 0.15806 0.08885 0.0
C10 C 0.17953 0.11536 0.11453 0.0
C11 C 0.15714 0.09451 0.16251 0.0
C12 C 0.22776 0.0927 0.09125 0.0
C13 C 0.23671 0.09109 0.03328 0.0
C14 C 0.26606 0.07397 0.12681 0.0
C15 C 0.31272 0.05637 0.10519 0.0
C16 C 0.3225 0.05834 0.04782 0.0
C17 C 0.08412 0.22379 0.08218 0.0
C18 C 0.03017 0.2245 0.07819 0.0
C19 C 0.11319 0.26765 0.06243 0.0
C20 C 0.08881 0.3126 0.04275 0.0
C21 C 0.03491 0.3148 0.04288 0.0
C22 C 0.0059 0.26952 0.05904 0.0
C23 C 0.28381 0.07488 0.01196 0.0
H24 H 0.97374 0.02748 0.26439 0.0
H25 H 0.01415 0.07476 0.18877 0.0
H26 H 0.1533 0.0992 0.28773 0.0
H27 H 0.11202 0.05256 0.36493 0.0
H28 H 0.05299 0.17321 0.17495 0.0
H29 H 0.17388 0.06067 0.18198 0.0
H30 H 0.17266 0.17518 0.05241 0.0
H31 H 0.20774 0.10333 1.00421 0.0
H32 H 0.26112 0.07506 0.17169 0.0
H33 H 0.34231 0.04453 0.1338 0.0
H34 H 0.00654 0.19085 0.0915 0.0
H35 H 0.15478 0.26865 0.065 0.0
H36 H 0.2905 0.07655 0.96746 0.0
H37 H 0.96427 0.26985 0.05931 0.0
H38 H 0.11226 0.34705 0.03107 0.0
C39 C 0.38684 0.94104 0.82503 0.0
C40 C 0.44008 0.9387 0.83341 0.0
C41 C 0.36502 0.92752 0.77229 0.0
C42 C 0.39622 0.91286 0.72644 0.0
C43 C 0.44999 0.91463 0.73454 0.0
C44 C 0.47154 0.92636 0.78762 0.0
C45 C 0.37282 0.89165 0.67194 0.0
C46 C 0.32488 0.90875 0.65387 0.0
C47 C 0.29955 0.88376 0.60665 0.0
C48 C 0.32473 0.84377 0.57433 0.0
C49 C 0.37374 0.82721 0.59055 0.0
C50 C 0.39658 0.85068 0.63996 0.0
C51 C 0.39982 0.78169 0.56048 0.0
C52 C 0.372 0.73442 0.54177 0.0
C53 C 0.45392 0.78206 0.55805 0.0
C54 C 0.47954 0.73463 0.54473 0.0
C55 C 0.45166 0.68626 0.53157 0.0
C56 C 0.24548 0.8976 0.59441 0.0
C57 C 0.21095 0.90447 0.63883 0.0
C58 C 0.2282 0.90588 0.53973 0.0
C59 C 0.17821 0.9234 0.53029 0.0
C60 C 0.14486 0.933 0.57541 0.0
C61 C 0.16152 0.92219 0.62952 0.0
C62 C 0.3978 0.68715 0.52698 0.0
H63 H 0.36181 0.94998 0.85998 0.0
H64 H 0.32352 0.92598 0.76849 0.0
H65 H 0.4756 0.90547 0.70023 0.0
H66 H 0.51285 0.92482 0.79313 0.0
H67 H 0.30647 0.94114 0.67723 0.0
H68 H 0.43195 0.83468 0.65522 0.0
H69 H 0.3056 0.82453 0.5378 0.0
H70 H 0.3304 0.73248 0.54306 0.0
H71 H 0.47662 0.81817 0.57048 0.0
H72 H 0.5211 0.73496 0.54836 0.0
H73 H 0.22242 0.8969 0.68127 0.0
H74 H 0.25385 0.90078 0.50463 0.0
H75 H 0.37539 0.65016 0.51744 0.0
H76 H 0.1366 0.92832 0.66513 0.0
H77 H 0.16642 0.93135 0.48807 0.0
C78 C 0.79055 0.45698 0.92095 0.0
C79 C 0.83281 0.42946 0.94017 0.0
C80 C 0.74948 0.42865 0.89406 0.0
C81 C 0.75038 0.37222 0.88428 0.0
C82 C 0.79125 0.34429 0.9067 0.0
C83 C 0.83205 0.37273 0.93477 0.0
C84 C 0.70974 0.34379 0.84863 0.0
C85 C 0.68997 0.36949 0.80266 0.0
C86 C 0.64609 0.34881 0.77377 0.0
C87 C 0.62451 0.29875 0.78746 0.0
C88 C 0.64409 0.27145 0.83301 0.0
C89 C 0.68721 0.29416 0.86297 0.0
C90 C 0.61377 0.22593 0.85628 0.0
C91 C 0.56007 0.22907 0.85952 0.0
C92 C 0.63775 0.18314 0.88181 0.0
C93 C 0.60885 0.14667 0.91302 0.0
C94 C 0.55583 0.15305 0.91938 0.0
C95 C 0.61724 0.38531 0.73885 0.0
C96 C 0.60523 0.43638 0.76215 0.0
C97 C 0.6003 0.37003 0.68422 0.0
C98 C 0.57206 0.4058 0.65336 0.0
C99 C 0.55952 0.45663 0.67739 0.0
C100 C 0.57662 0.47144 0.73196 0.0
C101 C 0.53161 0.19317 0.89062 0.0
H102 H 0.78998 0.50065 0.92516 0.0
H103 H 0.7176 0.45133 0.87945 0.0
H104 H 0.79296 0.30088 0.9002 0.0
H105 H 0.86444 0.35059 0.94903 0.0
H106 H 0.70681 0.40787 0.79117 0.0
H107 H 0.70057 0.2756 0.90018 0.0
H108 H 0.59 0.28335 0.76555 0.0
H109 H 0.54007 0.26169 0.84149 0.0
H110 H 0.67904 0.17936 0.87971 0.0
H111 H 0.62831 0.11609 0.93509 0.0
H112 H 0.61716 0.44889 0.80449 0.0
H113 H 0.60898 0.33074 0.66554 0.0
H114 H 0.49065 0.19876 0.89479 0.0
H115 H 0.56769 0.51024 0.75167 0.0
H116 H 0.55906 0.39323 0.61143 0.0
C117 C 0.8859 0.55686 0.20943 0.0
C118 C 0.93318 0.53146 0.20643 0.0
C119 C 0.86979 0.58047 0.26068 0.0
C120 C 0.90125 0.57973 0.30904 0.0
C121 C 0.94943 0.55648 0.30481 0.0
C122 C 0.96504 0.5325 0.25429 0.0
C123 C 0.88362 0.60056 0.36465 0.0
C124 C 0.83381 0.58832 0.38224 0.0
C125 C 0.81721 0.60681 0.43509 0.0
C126 C 0.85122 0.63614 0.47175 0.0
C127 C 0.9006 0.6523 0.45378 0.0
C128 C 0.91657 0.63286 0.40025 0.0
C129 C 0.93036 0.69799 0.48395 0.0
C130 C 0.90398 0.73881 0.514 0.0
C131 C 0.98214 0.70922 0.47041 0.0
C132 C 0.00087 0.7627 0.47126 0.0
C133 C 0.96891 0.80452 0.48859 0.0
C134 C 0.76227 0.60076 0.44812 0.0
C135 C 0.72629 0.61994 0.41066 0.0
C136 C 0.74528 0.57159 0.49354 0.0
C137 C 0.693 0.55721 0.49799 0.0
C138 C 0.65798 0.57191 0.45691 0.0
C139 C 0.67455 0.60539 0.41485 0.0
C140 C 0.92396 0.79176 0.51735 0.0
H141 H 0.86073 0.55651 0.1731 0.0
H142 H 0.83259 0.59873 0.2627 0.0
H143 H 0.97439 0.555 0.34116 0.0
H144 H 0.00203 0.51367 0.25297 0.0
H145 H 0.80753 0.56451 0.35464 0.0
H146 H 0.95341 0.64544 0.3839 0.0
H147 H 0.8374 0.64949 0.51246 0.0
H148 H 0.86493 0.73268 0.5278 0.0
H149 H 0.00575 0.6782 0.45173 0.0
H150 H 0.03665 0.77165 0.45029 0.0
H151 H 0.7387 0.64343 0.37599 0.0
H152 H 0.77265 0.55676 0.52296 0.0
H153 H 0.8992 0.82359 0.5323 0.0
H154 H 0.64796 0.61719 0.38293 0.0
H155 H 0.68078 0.53084 0.53039 0.0
C156 C 0.91355 0.89068 0.68073 0.0
C157 C 0.91043 0.94681 0.67661 0.0
C158 C 0.89539 0.86572 0.72854 0.0
C159 C 0.87361 0.89638 0.77305 0.0
C160 C 0.86928 0.95218 0.76777 0.0
C161 C 0.88719 0.97689 0.72034 0.0
C162 C 0.85584 0.87121 0.8253 0.0
C163 C 0.88383 0.83043 0.84929 0.0
C164 C 0.86731 0.80687 0.89888 0.0
C165 C 0.82334 0.82676 0.92537 0.0
C166 C 0.79448 0.86727 0.90212 0.0
C167 C 0.81093 0.88879 0.8519 0.0
C168 C 0.74543 0.88434 0.92854 0.0
C169 C 0.71395 0.84618 0.9545 0.0
C170 C 0.72876 0.93784 0.92703 0.0
C171 C 0.68135 0.95223 0.95004 0.0
C172 C 0.65029 0.91363 0.97588 0.0
C173 C 0.89364 0.75922 0.92086 0.0
C174 C 0.9157 0.72155 0.88327 0.0
C175 C 0.89466 0.74891 0.97854 0.0
C176 C 0.91666 0.70203 0.99758 0.0
C177 C 0.93931 0.66546 0.9595 0.0
C178 C 0.93858 0.67592 0.90233 0.0
C179 C 0.66765 0.86074 0.97841 0.0
H180 H 0.93139 0.86634 0.64793 0.0
H181 H 0.89866 0.8225 0.73075 0.0
H182 H 0.8534 0.97736 0.80118 0.0
H183 H 0.88409 0.02022 0.71882 0.0
H184 H 0.91897 0.8176 0.82961 0.0
H185 H 0.78782 0.91826 0.83245 0.0
H186 H 0.81054 0.80951 0.9636 0.0
H187 H 0.72412 0.80428 0.95516 0.0
H188 H 0.7522 0.96858 0.90796 0.0
H189 H 0.66892 -0.00675 0.94729 0.0
H190 H 0.91444 0.72636 0.8386 0.0
H191 H 0.8788 0.77708 0.00922 0.0
H192 H 0.64453 0.82951 0.99716 0.0
H193 H 0.95498 0.64792 0.87171 0.0
H194 H 0.91691 0.695 0.04186 0.0
C195 C 0.56077 0.0286 0.21675 0.0
C196 C 0.54101 0.06985 0.18552 0.0
C197 C 0.58208 0.04057 0.27031 0.0
C198 C 0.58459 0.09409 0.29321 0.0
C199 C 0.566 0.13517 0.26087 0.0
C200 C 0.54405 0.12316 0.20824 0.0
C201 C 0.60677 0.10819 0.35012 0.0
C202 C 0.65088 0.08356 0.3695 0.0
C203 C 0.67516 0.10169 0.42038 0.0
C204 C 0.6553 0.14596 0.45137 0.0
C205 C 0.61041 0.17014 0.43314 0.0
C206 C 0.58595 0.14998 0.3835 0.0
C207 C 0.59222 0.22126 0.45986 0.0
C208 C 0.53914 0.2289 0.46618 0.0
C209 C 0.62641 0.2662 0.46654 0.0
C210 C 0.60749 0.31824 0.4725 0.0
C211 C 0.55428 0.32594 0.47247 0.0
C212 C 0.72248 0.07522 0.4389 0.0
C213 C 0.72482 0.01877 0.43359 0.0
C214 C 0.76666 0.10558 0.45766 0.0
C215 C 0.81315 0.08003 0.46702 0.0
C216 C 0.81606 0.02385 0.45748 0.0
C217 C 0.77095 -0.00652 0.44259 0.0
C218 C 0.52027 0.28099 0.47207 0.0
H219 H 0.55901 -0.01288 0.2002 0.0
H220 H 0.5959 0.00787 0.29399 0.0
H221 H 0.56885 0.1771 0.27585 0.0
H222 H 0.53013 0.15608 0.1849 0.0
H223 H 0.66789 0.05191 0.34366 0.0
H224 H 0.55176 0.16913 0.36917 0.0
H225 H 0.67455 0.16155 0.48948 0.0
H226 H 0.51198 0.19487 0.46144 0.0
H227 H 0.66737 0.26167 0.46128 0.0
H228 H 0.63429 0.35261 0.4719 0.0
H229 H 0.69123 -0.00587 0.42053 0.0
H230 H 0.76607 0.14921 0.46212 0.0
H231 H 0.4791 0.2862 0.47125 0.0
H232 H 0.77171 0.95 0.43572 0.0
H233 H 0.84733 0.10446 0.47832 0.0
C234 C 0.13892 0.55264 0.15976 0.0
C235 C 0.12983 0.55471 0.102 0.0
C236 C 0.17672 0.58608 0.18641 0.0
C237 C 0.2074 0.62138 0.1557 0.0
C238 C 0.19823 0.62316 0.09761 0.0
C239 C 0.15925 0.59074 0.07122 0.0
C240 C 0.25116 0.65303 0.18327 0.0
C241 C 0.28055 0.63003 0.22487 0.0
C242 C 0.32708 0.65458 0.24396 0.0
C243 C 0.34451 0.70303 0.22155 0.0
C244 C 0.31544 0.72708 0.18037 0.0
C245 C 0.26782 0.70287 0.1633 0.0
C246 C 0.33927 0.77018 0.14718 0.0
C247 C 0.36943 0.81312 0.17249 0.0
C248 C 0.33656 0.76463 0.08849 0.0
C249 C 0.36559 0.79882 0.05596 0.0
C250 C 0.39785 0.83974 0.08106 0.0
C251 C 0.36266 0.62236 0.27569 0.0
C252 C 0.35184 0.60708 0.33023 0.0
C253 C 0.40524 0.60154 0.24792 0.0
C254 C 0.43623 0.56539 0.27359 0.0
C255 C 0.42597 0.54975 0.32817 0.0
C256 C 0.38395 0.5716 0.35682 0.0
C257 C 0.39823 0.84807 0.13954 0.0
H258 H 0.11571 0.52623 0.1848 0.0
H259 H 0.18173 0.58424 0.23122 0.0
H260 H 0.22176 0.64872 0.07208 0.0
H261 H 0.15254 0.59331 0.02671 0.0
H262 H 0.27005 0.5903 0.23877 0.0
H263 H 0.24523 0.72143 0.13174 0.0
H264 H 0.38261 0.71933 0.23284 0.0
H265 H 0.37215 0.81842 0.21763 0.0
H266 H 0.31452 0.73163 0.06743 0.0
H267 H 0.36459 0.79162 0.0109 0.0
H268 H 0.31853 0.62228 0.35192 0.0
H269 H 0.41366 0.61203 0.20549 0.0
H270 H 0.42316 0.87919 0.1598 0.0
H271 H 0.37545 0.56056 0.39902 0.0
H272 H 0.46867 0.55001 0.25046 0.0
C273 C 0.10179 0.1805 0.53607 0.0
C274 C 0.04899 0.17011 0.54299 0.0
C275 C 0.12248 0.23296 0.54439 0.0
C276 C 0.09045 0.27547 0.56007 0.0
C277 C 0.03679 0.26587 0.55913 0.0
C278 C 0.01619 0.21328 0.55118 0.0
C279 C 0.11308 0.32506 0.58912 0.0
C280 C 0.158 0.35068 0.56994 0.0
C281 C 0.18277 0.39318 0.60223 0.0
C282 C 0.16172 0.40986 0.65414 0.0
C283 C 0.11634 0.38524 0.67314 0.0
C284 C 0.09261 0.34283 0.64057 0.0
C285 C 0.09174 0.40484 0.72564 0.0
C286 C 0.11994 0.41507 0.77584 0.0
C287 C 0.03883 0.41381 0.7251 0.0
C288 C 0.01479 0.43403 0.77291 0.0
C289 C 0.04285 0.44561 0.82273 0.0
C290 C 0.23139 0.41914 0.58297 0.0
C291 C 0.26934 0.38823 0.55627 0.0
C292 C 0.24139 0.47476 0.59383 0.0
C293 C 0.28922 0.49815 0.58174 0.0
C294 C 0.3279 0.46673 0.55762 0.0
C295 C 0.31702 0.41192 0.54334 0.0
C296 C 0.09547 0.43495 0.8244 0.0
H297 H 0.12772 0.1474 0.5306 0.0
H298 H 0.16392 0.23896 0.54485 0.0
H299 H 0.01114 0.29816 0.57008 0.0
H300 H 0.97541 0.20586 0.55738 0.0
H301 H 0.17364 0.33729 0.53 0.0
H302 H 0.05887 0.32224 0.65662 0.0
H303 H 0.18043 0.44212 0.67985 0.0
H304 H 0.16076 0.40801 0.77739 0.0
H305 H 0.01614 0.40667 0.68707 0.0
H306 H 0.97412 0.44186 0.77048 0.0
H307 H 0.26319 0.34523 0.54763 0.0
H308 H 0.21262 0.50014 0.61282 0.0
H309 H 0.11793 0.4441 0.86224 0.0
H310 H 0.34626 0.38669 0.525 0.0
H311 H 0.29636 0.54072 0.59255 0.0
O312 O 0.94434 0.02592 0.63815 0.0
Mg313 Mg 0.01227 0.03301 0.59386 0.0
O314 O 0.95577 0.9516 0.58835 0.0
Mg315 Mg -0.00982 -0.01275 0.50222 0.0
O316 O 0.01287 0.0799 0.52611 0.0
O317 O 0.04172 0.10719 0.61241 0.0
O318 O 0.02096 0.01631 0.41542 0.0
O319 O 0.90526 0.01538 0.48377 0.0
Mg320 Mg 0.93915 0.92186 0.4003 0.0
O321 O 0.97466 0.89953 0.47121 0.0
O322 O -0.0143 0.96454 0.34623 0.0
O323 O 0.86908 0.95594 0.42162 0.0
O324 O 0.94568 0.84059 0.40353 0.0
C325 C 0.09436 0.9577 0.56776 0.0
C326 C 0.93581 0.9759 0.63096 0.0
C327 C 0.03262 0.11701 0.56109 0.0
C328 C 0.01534 0.00354 0.36318 0.0
C329 C 0.86597 -0.00317 0.45523 0.0
C330 C 0.96564 0.85012 0.45278 0.0
O331 O 0.0729 0.98019 0.60956 0.0
O332 O 0.07332 0.9593 0.51972 0.0
O333 O 0.39254 0.08405 0.99284 0.0
Mg334 Mg 0.4692 0.08647 0.02263 0.0
O335 O 0.40626 0.02038 0.04885 0.0
Mg336 Mg 0.48872 -0.00476 0.01282 0.0
O337 O 0.52615 0.07337 0.96678 0.0
O338 O 0.49641 0.15493 0.99273 0.0
O339 O 0.57299 0.96563 0.98122 0.0
O340 O 0.44679 0.97704 0.92714 0.0
Mg341 Mg 0.50163 0.90345 0.99275 0.0
O342 O 0.44949 0.91771 0.05495 0.0
O343 O 0.57441 0.8895 0.02244 0.0
O344 O 0.49425 0.90905 0.90442 0.0
O345 O 0.45643 0.83848 0.00637 0.0
C346 C 0.51764 0.05882 0.12924 0.0
C347 C 0.37493 0.05144 0.02666 0.0
C348 C 0.52591 0.12555 0.96206 0.0
C349 C 0.59813 0.92529 0.99658 0.0
C350 C 0.46221 0.9429 0.89034 0.0
C351 C 0.4357 0.86703 0.04584 0.0
O352 O 0.48848 0.0932 0.10955 0.0
O353 O 0.52814 0.01695 0.09908 0.0
O354 O 0.50306 0.62841 0.57996 0.0
Mg355 Mg 0.47374 0.55252 0.60256 0.0
O356 O 0.46169 0.59228 0.50737 0.0
Mg357 Mg 0.49396 0.50322 0.50175 0.0
O358 O 0.52129 0.48954 0.59368 0.0
O359 O 0.50273 0.53018 0.67648 0.0
O360 O 0.52319 0.41402 0.49473 0.0
O361 O 0.57661 0.54051 0.48974 0.0
Mg362 Mg 0.53258 0.47054 0.38961 0.0
O363 O 0.46851 0.51326 0.40812 0.0
O364 O 0.53747 0.38942 0.40668 0.0
O365 O 0.59866 0.51948 0.4024 0.0
O366 O 0.49135 0.48548 0.32131 0.0
C367 C 0.38059 0.48992 0.55331 0.0
C368 C 0.47702 0.63441 0.53631 0.0
C369 C 0.52684 0.49376 0.64776 0.0
C370 C 0.53562 0.37843 0.45745 0.0
C371 C 0.60818 0.54331 0.44952 0.0
C372 C 0.46142 0.51269 0.35402 0.0
O373 O 0.39483 0.5285 0.58759 0.0
O374 O 0.41239 0.46908 0.51888 0.0
O375 O 0.96801 0.37509 0.06146 0.0
Mg376 Mg -0.00838 0.45664 0.08375 0.0
O377 O 0.0328 0.40764 0.01758 0.0
Mg378 Mg -0.01405 0.49238 0.01297 0.0
O379 O 0.94596 0.51666 0.1059 0.0
O380 O 0.97358 0.45653 0.16482 0.0
O381 O 0.94205 0.58012 1.00427 0.0
O382 O 0.91314 0.44026 0.9894 0.0
Mg383 Mg 0.97368 0.52175 0.93851 0.0
O384 O 0.02587 0.46636 0.92144 0.0
O385 O 0.00302 0.60175 0.94872 0.0
O386 O 0.89197 0.50375 0.93574 0.0
O387 O -0.01616 0.50913 0.85598 0.0
C388 C 0.08642 0.52277 0.07619 0.0
C389 C 0.00946 0.36664 0.03646 0.0
C390 C 0.94965 0.49973 0.1564 0.0
C391 C 0.96476 0.61626 0.97638 0.0
C392 C 0.88013 0.46009 0.95802 0.0
C393 C 0.01702 0.47476 0.86903 0.0
O394 O 0.07126 0.47957 0.09767 0.0
O395 O 0.05871 0.54203 0.03872 0.0
loop_
_geom_bond_atom_site_label_1
_geom_bond_atom_site_label_2
_geom_bond_distance
_geom_bond_site_symmetry_2
_ccdc_geom_bond_type
C0 C1 1.386 . S
C0 C2 1.397 . S
C0 H24 0.931 1_455 S
C1 C0 1.386 . S
C1 C5 1.397 . S
C2 C0 1.397 . S
C2 C3 1.384 . S
C2 H25 0.930 . S
C3 C2 1.384 . S
C3 C4 1.377 . S
C3 C6 1.481 . S
C4 C3 1.377 . S
C4 C5 1.389 . S
C4 H26 0.929 . S
C5 C1 1.397 . S
C5 C4 1.389 . S
C5 H27 0.931 . S
C6 C3 1.481 . S
C6 C7 1.387 . S
C6 C11 1.390 . S
C7 C6 1.387 . S
C7 C8 1.401 . S
C7 H28 0.930 . S
C8 C7 1.401 . S
C8 C9 1.376 . S
C8 C17 1.511 . S
C9 C8 1.376 . S
C9 C10 1.392 . S
C9 H30 0.931 . S
C10 C9 1.392 . S
C10 C11 1.361 . S
C10 C12 1.500 . S
C11 C6 1.390 . S
C11 C10 1.361 . S
C11 H29 0.931 . S
C12 C10 1.500 . S
C12 C13 1.371 . S
C12 C14 1.365 . S
C13 C12 1.371 . S
C13 C23 1.386 . S
C13 H31 0.931 . S
C14 C12 1.365 . S
C14 C15 1.409 . S
C14 H32 0.929 . S
C15 C14 1.409 . S
C15 C16 1.380 . S
C15 H33 0.930 . S
C16 C15 1.380 . S
C16 C23 1.357 . S
C17 C8 1.511 . S
C17 C18 1.341 . S
C17 C19 1.371 . S
C18 C17 1.341 . S
C18 C22 1.394 . S
C18 H34 0.930 . S
C19 C17 1.371 . S
C19 C20 1.392 . S
C19 H35 0.931 . S
C20 C19 1.392 . S
C20 C21 1.331 . S
C20 H38 0.932 . S
C21 C20 1.331 . S
C21 C22 1.336 . S
C22 C18 1.394 . S
C22 C21 1.336 . S
C22 H37 0.929 1_455 S
C23 C13 1.386 . S
C23 C16 1.357 . S
C23 H36 0.928 1_554 S
H24 C0 0.931 1_655 S
H25 C2 0.930 . S
H26 C4 0.929 . S
H27 C5 0.931 . S
H28 C7 0.930 . S
H29 C11 0.931 . S
H30 C9 0.931 . S
H31 C13 0.931 . S
H32 C14 0.929 . S
H33 C15 0.930 . S
H34 C18 0.930 . S
H35 C19 0.931 . S
H36 C23 0.928 1_556 S
H37 C22 0.929 1_655 S
H38 C20 0.932 . S
C39 C40 1.386 . S
C39 C41 1.397 . S
C39 H63 0.931 . S
C40 C39 1.386 . S
C40 C44 1.397 . S
C41 C39 1.397 . S
C41 C42 1.384 . S
C41 H64 0.930 . S
C42 C41 1.384 . S
C42 C43 1.377 . S
C42 C45 1.481 . S
C43 C42 1.377 . S
C43 C44 1.389 . S
C43 H65 0.929 . S
C44 C40 1.397 . S
C44 C43 1.389 . S
C44 H66 0.931 . S
C45 C42 1.481 . S
C45 C46 1.387 . S
C45 C50 1.390 . S
C46 C45 1.387 . S
C46 C47 1.401 . S
C46 H67 0.930 . S
C47 C46 1.401 . S
C47 C48 1.376 . S
C47 C56 1.511 . S
C48 C47 1.376 . S
C48 C49 1.392 . S
C48 H69 0.931 . S
C49 C48 1.392 . S
C49 C50 1.361 . S
C49 C51 1.500 . S
C50 C45 1.390 . S
C50 C49 1.361 . S
C50 H68 0.931 . S
C51 C49 1.500 . S
C51 C52 1.371 . S
C51 C53 1.365 . S
C52 C51 1.371 . S
C52 C62 1.386 . S
C52 H70 0.931 . S
C53 C51 1.365 . S
C53 C54 1.409 . S
C53 H71 0.929 . S
C54 C53 1.409 . S
C54 C55 1.380 . S
C54 H72 0.930 . S
C55 C54 1.380 . S
C55 C62 1.357 . S
C56 C47 1.511 . S
C56 C57 1.341 . S
C56 C58 1.371 . S
C57 C56 1.341 . S
C57 C61 1.394 . S
C57 H73 0.930 . S
C58 C56 1.371 . S
C58 C59 1.392 . S
C58 H74 0.931 . S
C59 C58 1.392 . S
C59 C60 1.331 . S
C59 H77 0.932 . S
C60 C59 1.331 . S
C60 C61 1.336 . S
C61 C57 1.394 . S
C61 C60 1.336 . S
C61 H76 0.929 . S
C62 C52 1.386 . S
C62 C55 1.357 . S
C62 H75 0.928 . S
H63 C39 0.931 . S
H64 C41 0.930 . S
H65 C43 0.929 . S
H66 C44 0.931 . S
H67 C46 0.930 . S
H68 C50 0.931 . S
H69 C48 0.931 . S
H70 C52 0.931 . S
H71 C53 0.929 . S
H72 C54 0.930 . S
H73 C57 0.930 . S
H74 C58 0.931 . S
H75 C62 0.928 . S
H76 C61 0.929 . S
H77 C59 0.932 . S
C78 C79 1.386 . S
C78 C80 1.397 . S
C78 H102 0.931 . S
C79 C78 1.386 . S
C79 C83 1.397 . S
C80 C78 1.397 . S
C80 C81 1.384 . S
C80 H103 0.930 . S
C81 C80 1.384 . S
C81 C82 1.377 . S
C81 C84 1.481 . S
C82 C81 1.377 . S
C82 C83 1.389 . S
C82 H104 0.929 . S
C83 C79 1.397 . S
C83 C82 1.389 . S
C83 H105 0.931 . S
C84 C81 1.481 . S
C84 C85 1.387 . S
C84 C89 1.390 . S
C85 C84 1.387 . S
C85 C86 1.401 . S
C85 H106 0.930 . S
C86 C85 1.401 . S
C86 C87 1.376 . S
C86 C95 1.511 . S
C87 C86 1.376 . S
C87 C88 1.392 . S
C87 H108 0.931 . S
C88 C87 1.392 . S
C88 C89 1.361 . S
C88 C90 1.500 . S
C89 C84 1.390 . S
C89 C88 1.361 . S
C89 H107 0.931 . S
C90 C88 1.500 . S
C90 C91 1.371 . S
C90 C92 1.365 . S
C91 C90 1.371 . S
C91 C101 1.386 . S
C91 H109 0.931 . S
C92 C90 1.365 . S
C92 C93 1.409 . S
C92 H110 0.929 . S
C93 C92 1.409 . S
C93 C94 1.380 . S
C93 H111 0.930 . S
C94 C93 1.380 . S
C94 C101 1.357 . S
C95 C86 1.511 . S
C95 C96 1.341 . S
C95 C97 1.371 . S
C96 C95 1.341 . S
C96 C100 1.394 . S
C96 H112 0.930 . S
C97 C95 1.371 . S
C97 C98 1.392 . S
C97 H113 0.931 . S
C98 C97 1.392 . S
C98 C99 1.331 . S
C98 H116 0.932 . S
C99 C98 1.331 . S
C99 C100 1.336 . S
C100 C96 1.394 . S
C100 C99 1.336 . S
C100 H115 0.929 . S
C101 C91 1.386 . S
C101 C94 1.357 . S
C101 H114 0.928 . S
H102 C78 0.931 . S
H103 C80 0.930 . S
H104 C82 0.929 . S
H105 C83 0.931 . S
H106 C85 0.930 . S
H107 C89 0.931 . S
H108 C87 0.931 . S
H109 C91 0.931 . S
H110 C92 0.929 . S
H111 C93 0.930 . S
H112 C96 0.930 . S
H113 C97 0.931 . S
H114 C101 0.928 . S
H115 C100 0.929 . S
H116 C98 0.932 . S
C117 C118 1.386 . S
C117 C119 1.397 . S
C117 H141 0.931 . S
C118 C117 1.386 . S
C118 C122 1.397 . S
C119 C117 1.397 . S
C119 C120 1.384 . S
C119 H142 0.930 . S
C120 C119 1.384 . S
C120 C121 1.377 . S
C120 C123 1.481 . S
C121 C120 1.377 . S
C121 C122 1.389 . S
C121 H143 0.929 . S
C122 C118 1.397 . S
C122 C121 1.389 . S
C122 H144 0.931 1_655 S
C123 C120 1.481 . S
C123 C124 1.387 . S
C123 C128 1.390 . S
C124 C123 1.387 . S
C124 C125 1.401 . S
C124 H145 0.930 . S
C125 C124 1.401 . S
C125 C126 1.376 . S
C125 C134 1.511 . S
C126 C125 1.376 . S
C126 C127 1.392 . S
C126 H147 0.931 . S
C127 C126 1.392 . S
C127 C128 1.361 . S
C127 C129 1.500 . S
C128 C123 1.390 . S
C128 C127 1.361 . S
C128 H146 0.931 . S
C129 C127 1.500 . S
C129 C130 1.371 . S
C129 C131 1.365 . S
C130 C129 1.371 . S
C130 C140 1.386 . S
C130 H148 0.931 . S
C131 C129 1.365 . S
C131 C132 1.409 1_655 S
C131 H149 0.929 1_655 S
C132 C131 1.409 1_455 S
C132 C133 1.380 1_455 S
C132 H150 0.930 . S
C133 C132 1.380 1_655 S
C133 C140 1.357 . S
C134 C125 1.511 . S
C134 C135 1.341 . S
C134 C136 1.371 . S
C135 C134 1.341 . S
C135 C139 1.394 . S
C135 H151 0.930 . S
C136 C134 1.371 . S
C136 C137 1.392 . S
C136 H152 0.931 . S
C137 C136 1.392 . S
C137 C138 1.331 . S
C137 H155 0.932 . S
C138 C137 1.331 . S
C138 C139 1.336 . S
C139 C135 1.394 . S
C139 C138 1.336 . S
C139 H154 0.929 . S
C140 C130 1.386 . S
C140 C133 1.357 . S
C140 H153 0.928 . S
H141 C117 0.931 . S
H142 C119 0.930 . S
H143 C121 0.929 . S
H144 C122 0.931 1_455 S
H145 C124 0.930 . S
H146 C128 0.931 . S
H147 C126 0.931 . S
H148 C130 0.931 . S
H149 C131 0.929 1_455 S
H150 C132 0.930 . S
H151 C135 0.930 . S
H152 C136 0.931 . S
H153 C140 0.928 . S
H154 C139 0.929 . S
H155 C137 0.932 . S
C156 C157 1.386 . S
C156 C158 1.397 . S
C156 H180 0.931 . S
C157 C156 1.386 . S
C157 C161 1.397 1_565 S
C158 C156 1.397 . S
C158 C159 1.384 . S
C158 H181 0.930 . S
C159 C158 1.384 . S
C159 C160 1.377 . S
C159 C162 1.481 . S
C160 C159 1.377 . S
C160 C161 1.389 1_565 S
C160 H182 0.929 1_565 S
C161 C157 1.397 1_545 S
C161 C160 1.389 1_545 S
C161 H183 0.931 . S
C162 C159 1.481 . S
C162 C163 1.387 . S
C162 C167 1.390 . S
C163 C162 1.387 . S
C163 C164 1.401 . S
C163 H184 0.930 . S
C164 C163 1.401 . S
C164 C165 1.376 . S
C164 C173 1.511 . S
C165 C164 1.376 . S
C165 C166 1.392 . S
C165 H186 0.931 . S
C166 C165 1.392 . S
C166 C167 1.361 . S
C166 C168 1.500 . S
C167 C162 1.390 . S
C167 C166 1.361 . S
C167 H185 0.931 . S
C168 C166 1.500 . S
C168 C169 1.371 . S
C168 C170 1.365 . S
C169 C168 1.371 . S
C169 C179 1.386 . S
C169 H187 0.931 . S
C170 C168 1.365 . S
C170 C171 1.409 1_565 S
C170 H188 0.929 1_565 S
C171 C170 1.409 1_545 S
C171 C172 1.380 1_545 S
C171 H189 0.930 . S
C172 C171 1.380 1_565 S
C172 C179 1.357 . S
C173 C164 1.511 . S
C173 C174 1.341 . S
C173 C175 1.371 . S
C174 C173 1.341 . S
C174 C178 1.394 . S
C174 H190 0.930 . S
C175 C173 1.371 . S
C175 C176 1.392 . S
C175 H191 0.931 . S
C176 C175 1.392 . S
C176 C177 1.331 . S
C176 H194 0.932 1_556 S
C177 C176 1.331 . S
C177 C178 1.336 . S
C178 C174 1.394 . S
C178 C177 1.336 . S
C178 H193 0.929 . S
C179 C169 1.386 . S
C179 C172 1.357 . S
C179 H192 0.928 . S
H180 C156 0.931 . S
H181 C158 0.930 . S
H182 C160 0.929 1_545 S
H183 C161 0.931 . S
H184 C163 0.930 . S
H185 C167 0.931 . S
H186 C165 0.931 . S
H187 C169 0.931 . S
H188 C170 0.929 1_545 S
H189 C171 0.930 . S
H190 C174 0.930 . S
H191 C175 0.931 . S
H192 C179 0.928 . S
H193 C178 0.929 . S
H194 C176 0.932 1_554 S
C195 C196 1.386 . S
C195 C197 1.397 . S
C195 H219 0.931 1_545 S
C196 C195 1.386 . S
C196 C200 1.397 . S
C197 C195 1.397 . S
C197 C198 1.384 . S
C197 H220 0.930 . S
C198 C197 1.384 . S
C198 C199 1.377 . S
C198 C201 1.481 . S
C199 C198 1.377 . S
C199 C200 1.389 . S
C199 H221 0.929 . S
C200 C196 1.397 . S
C200 C199 1.389 . S
C200 H222 0.931 . S
C201 C198 1.481 . S
C201 C202 1.387 . S
C201 C206 1.390 . S
C202 C201 1.387 . S
C202 C203 1.401 . S
C202 H223 0.930 . S
C203 C202 1.401 . S
C203 C204 1.376 . S
C203 C212 1.511 . S
C204 C203 1.376 . S
C204 C205 1.392 . S
C204 H225 0.931 . S
C205 C204 1.392 . S
C205 C206 1.361 . S
C205 C207 1.500 . S
C206 C201 1.390 . S
C206 C205 1.361 . S
C206 H224 0.931 . S
C207 C205 1.500 . S
C207 C208 1.371 . S
C207 C209 1.365 . S
C208 C207 1.371 . S
C208 C218 1.386 . S
C208 H226 0.931 . S
C209 C207 1.365 . S
C209 C210 1.409 . S
C209 H227 0.929 . S
C210 C209 1.409 . S
C210 C211 1.380 . S
C210 H228 0.930 . S
C211 C210 1.380 . S
C211 C218 1.357 . S
C212 C203 1.511 . S
C212 C213 1.341 . S
C212 C214 1.371 . S
C213 C212 1.341 . S
C213 C217 1.394 . S
C213 H229 0.930 . S
C214 C212 1.371 . S
C214 C215 1.392 . S
C214 H230 0.931 . S
C215 C214 1.392 . S
C215 C216 1.331 . S
C215 H233 0.932 . S
C216 C215 1.331 . S
C216 C217 1.336 . S
C217 C213 1.394 . S
C217 C216 1.336 . S
C217 H232 0.929 1_545 S
C218 C208 1.386 . S
C218 C211 1.357 . S
C218 H231 0.928 . S
H219 C195 0.931 1_565 S
H220 C197 0.930 . S
H221 C199 0.929 . S
H222 C200 0.931 . S
H223 C202 0.930 . S
H224 C206 0.931 . S
H225 C204 0.931 . S
H226 C208 0.931 . S
H227 C209 0.929 . S
H228 C210 0.930 . S
H229 C213 0.930 . S
H230 C214 0.931 . S
H231 C218 0.928 . S
H232 C217 0.929 1_565 S
H233 C215 0.932 . S
C234 C235 1.386 . S
C234 C236 1.397 . S
C234 H258 0.931 . S
C235 C234 1.386 . S
C235 C239 1.397 . S
C236 C234 1.397 . S
C236 C237 1.384 . S
C236 H259 0.930 . S
C237 C236 1.384 . S
C237 C238 1.377 . S
C237 C240 1.481 . S
C238 C237 1.377 . S
C238 C239 1.389 . S
C238 H260 0.929 . S
C239 C235 1.397 . S
C239 C238 1.389 . S
C239 H261 0.931 1_554 S
C240 C237 1.481 . S
C240 C241 1.387 . S
C240 C245 1.390 . S
C241 C240 1.387 . S
C241 C242 1.401 . S
C241 H262 0.930 . S
C242 C241 1.401 . S
C242 C243 1.376 . S
C242 C251 1.511 . S
C243 C242 1.376 . S
C243 C244 1.392 . S
C243 H264 0.931 . S
C244 C243 1.392 . S
C244 C245 1.361 . S
C244 C246 1.500 . S
C245 C240 1.390 . S
C245 C244 1.361 . S
C245 H263 0.931 . S
C246 C244 1.500 . S
C246 C247 1.371 . S
C246 C248 1.365 . S
C247 C246 1.371 . S
C247 C257 1.386 . S
C247 H265 0.931 . S
C248 C246 1.365 . S
C248 C249 1.409 . S
C248 H266 0.929 . S
C249 C248 1.409 . S
C249 C250 1.380 . S
C249 H267 0.930 1_554 S
C250 C249 1.380 . S
C250 C257 1.357 . S
C251 C242 1.511 . S
C251 C252 1.341 . S
C251 C253 1.371 . S
C252 C251 1.341 . S
C252 C256 1.394 . S
C252 H268 0.930 . S
C253 C251 1.371 . S
C253 C254 1.392 . S
C253 H269 0.931 . S
C254 C253 1.392 . S
C254 C255 1.331 . S
C254 H272 0.932 . S
C255 C254 1.331 . S
C255 C256 1.336 . S
C256 C252 1.394 . S
C256 C255 1.336 . S
C256 H271 0.929 . S
C257 C247 1.386 . S
C257 C250 1.357 . S
C257 H270 0.928 . S
H258 C234 0.931 . S
H259 C236 0.930 . S
H260 C238 0.929 . S
H261 C239 0.931 1_556 S
H262 C241 0.930 . S
H263 C245 0.931 . S
H264 C243 0.931 . S
H265 C247 0.931 . S
H266 C248 0.929 . S
H267 C249 0.930 1_556 S
H268 C252 0.930 . S
H269 C253 0.931 . S
H270 C257 0.928 . S
H271 C256 0.929 . S
H272 C254 0.932 . S
C273 C274 1.386 . S
C273 C275 1.397 . S
C273 H297 0.931 . S
C274 C273 1.386 . S
C274 C278 1.397 1_455 S
C275 C273 1.397 . S
C275 C276 1.384 . S
C275 H298 0.930 . S
C276 C275 1.384 . S
C276 C277 1.377 . S
C276 C279 1.481 . S
C277 C276 1.377 . S
C277 C278 1.389 1_455 S
C277 H299 0.929 1_455 S
C278 C274 1.397 1_655 S
C278 C277 1.389 1_655 S
C278 H300 0.931 . S
C279 C276 1.481 . S
C279 C280 1.387 . S
C279 C284 1.390 . S
C280 C279 1.387 . S
C280 C281 1.401 . S
C280 H301 0.930 . S
C281 C280 1.401 . S
C281 C282 1.376 . S
C281 C290 1.511 . S
C282 C281 1.376 . S
C282 C283 1.392 . S
C282 H303 0.931 . S
C283 C282 1.392 . S
C283 C284 1.361 . S
C283 C285 1.500 . S
C284 C279 1.390 . S
C284 C283 1.361 . S
C284 H302 0.931 . S
C285 C283 1.500 . S
C285 C286 1.371 . S
C285 C287 1.365 . S
C286 C285 1.371 . S
C286 C296 1.386 . S
C286 H304 0.931 . S
C287 C285 1.365 . S
C287 C288 1.409 1_455 S
C287 H305 0.918 1_455 S
C288 C287 1.409 1_655 S
C288 C289 1.380 1_655 S
C288 H306 0.930 . S
C289 C288 1.380 1_455 S
C289 C296 1.357 . S
C290 C281 1.511 . S
C290 C291 1.341 . S
C290 C292 1.371 . S
C291 C290 1.341 . S
C291 C295 1.394 . S
C291 H307 0.930 . S
C292 C290 1.371 . S
C292 C293 1.392 . S
C292 H308 0.931 . S
C293 C292 1.392 . S
C293 C294 1.331 . S
C293 H311 0.932 . S
C294 C293 1.331 . S
C294 C295 1.336 . S
C295 C291 1.394 . S
C295 C294 1.336 . S
C295 H310 0.929 . S
C296 C286 1.386 . S
C296 C289 1.357 . S
C296 H309 0.928 . S
H297 C273 0.931 . S
H298 C275 0.930 . S
H299 C277 0.929 1_655 S
H300 C278 0.931 . S
H301 C280 0.930 . S
H302 C284 0.931 . S
H303 C282 0.931 . S
H304 C286 0.931 . S
H305 C287 0.918 1_655 S
H306 C288 0.930 . S
H307 C291 0.930 . S
H308 C292 0.931 . S
H309 C296 0.928 . S
H310 C295 0.929 . S
H311 C293 0.932 . S
O312 Mg313 1.990 . S
O312 C326 1.253 1_445 S
Mg313 O312 1.990 . S
Mg313 O316 2.180 . S
Mg313 O317 2.117 . S
Mg313 O331 2.030 1_545 S
O314 Mg315 2.072 1_665 S
O314 C326 1.260 . S
Mg315 O314 2.072 1_445 S
Mg315 O316 2.099 . S
Mg315 O318 2.079 . S
Mg315 O319 2.072 1_455 S
Mg315 O321 2.099 1_445 S
Mg315 O332 2.079 1_545 S
O316 Mg313 2.180 . S
O316 Mg315 2.099 . S
O316 C327 1.279 . S
O317 Mg313 2.117 . S
O317 C327 1.250 . S
O318 Mg315 2.079 . S
O318 C328 1.264 . S
O319 Mg315 2.072 1_655 S
O319 C329 1.260 . S
Mg320 O321 2.180 . S
Mg320 O322 2.030 1_565 S
Mg320 O323 1.990 1_565 S
Mg320 O324 2.117 . S
O321 Mg315 2.099 1_665 S
O321 Mg320 2.180 . S
O321 C330 1.279 . S
O322 Mg320 2.030 1_545 S
O322 C328 1.248 1_655 S
O323 Mg320 1.990 1_545 S
O323 C329 1.253 . S
O324 Mg320 2.117 . S
O324 C330 1.250 . S
C325 O331 1.248 . S
C325 O332 1.264 . S
C326 O312 1.253 1_665 S
C326 O314 1.260 . S
C327 O316 1.279 . S
C327 O317 1.250 . S
C328 O318 1.264 . S
C328 O322 1.248 1_455 S
C329 O319 1.260 . S
C329 O323 1.253 . S
C330 O321 1.279 . S
C330 O324 1.250 . S
O331 Mg313 2.030 1_565 S
O331 C325 1.248 . S
O332 Mg315 2.079 1_565 S
O332 C325 1.264 . S
O333 Mg334 1.990 . S
O333 C347 1.253 . S
Mg334 O333 1.990 . S
Mg334 O337 2.180 1_554 S
Mg334 O338 2.117 1_554 S
Mg334 O352 2.030 . S
O335 Mg336 2.072 . S
O335 C347 1.260 . S
Mg336 O335 2.072 . S
Mg336 O337 2.099 1_554 S
Mg336 O339 2.079 1_544 S
Mg336 O340 2.072 1_554 S
Mg336 O342 2.099 1_545 S
Mg336 O353 2.079 . S
O337 Mg334 2.180 1_556 S
O337 Mg336 2.099 1_556 S
O337 C348 1.279 . S
O338 Mg334 2.117 1_556 S
O338 C348 1.250 . S
O339 Mg336 2.079 1_566 S
O339 C349 1.264 . S
O340 Mg336 2.072 1_556 S
O340 C350 1.260 1_545 S
Mg341 O342 2.180 1_556 S
Mg341 O343 2.030 . S
Mg341 O344 1.990 . S
Mg341 O345 2.124 . S
O342 Mg336 2.099 1_565 S
O342 Mg341 2.180 1_554 S
O342 C351 1.279 . S
O343 Mg341 2.030 . S
O343 C349 1.248 . S
O344 Mg341 1.990 . S
O344 C350 1.253 . S
O345 Mg341 2.124 . S
O345 C351 1.243 1_556 S
C346 O352 1.248 . S
C346 O353 1.264 . S
C347 O333 1.253 . S
C347 O335 1.260 . S
C348 O337 1.279 . S
C348 O338 1.250 . S
C349 O339 1.264 . S
C349 O343 1.248 . S
C350 O340 1.260 1_565 S
C350 O344 1.253 . S
C351 O342 1.279 . S
C351 O345 1.243 1_554 S
O352 Mg334 2.030 . S
O352 C346 1.248 . S
O353 Mg336 2.079 . S
O353 C346 1.264 . S
O354 Mg355 1.990 . S
O354 C368 1.253 . S
Mg355 O354 1.990 . S
Mg355 O358 2.180 . S
Mg355 O359 2.117 . S
Mg355 O373 2.030 . S
O356 Mg357 2.072 . S
O356 C368 1.260 . S
Mg357 O356 2.072 . S
Mg357 O358 2.099 . S
Mg357 O360 2.079 . S
Mg357 O361 2.072 . S
Mg357 O363 2.099 . S
Mg357 O374 2.079 . S
O358 Mg355 2.180 . S
O358 Mg357 2.099 . S
O358 C369 1.279 . S
O359 Mg355 2.117 . S
O359 C369 1.250 . S
O360 Mg357 2.079 . S
O360 C370 1.264 . S
O361 Mg357 2.072 . S
O361 C371 1.260 . S
Mg362 O363 2.180 . S
Mg362 O364 2.030 . S
Mg362 O365 1.990 . S
Mg362 O366 2.117 . S
O363 Mg357 2.099 . S
O363 Mg362 2.180 . S
O363 C372 1.279 . S
O364 Mg362 2.030 . S
O364 C370 1.248 . S
O365 Mg362 1.990 . S
O365 C371 1.253 . S
O366 Mg362 2.117 . S
O366 C372 1.250 . S
C367 O373 1.248 . S
C367 O374 1.264 . S
C368 O354 1.253 . S
C368 O356 1.260 . S
C369 O358 1.279 . S
C369 O359 1.250 . S
C370 O360 1.264 . S
C370 O364 1.248 . S
C371 O361 1.260 . S
C371 O365 1.253 . S
C372 O363 1.279 . S
C372 O366 1.250 . S
O373 Mg355 2.030 . S
O373 C367 1.248 . S
O374 Mg357 2.079 . S
O374 C367 1.264 . S
O375 Mg376 1.990 . S
O375 C389 1.253 . S
Mg376 O375 1.990 . S
Mg376 O379 2.180 1_455 S
Mg376 O380 2.117 1_455 S
Mg376 O394 2.030 . S
O377 Mg378 2.072 . S
O377 C389 1.260 . S
Mg378 O377 2.072 . S
Mg378 O379 2.099 1_455 S
Mg378 O381 2.079 1_454 S
Mg378 O382 2.072 1_454 S
Mg378 O384 2.099 1_554 S
Mg378 O395 2.079 . S
O379 Mg376 2.180 1_655 S
O379 Mg378 2.099 1_655 S
O379 C390 1.279 . S
O380 Mg376 2.117 1_655 S
O380 C390 1.250 . S
O381 Mg378 2.079 1_656 S
O381 C391 1.264 . S
O382 Mg378 2.072 1_656 S
O382 C392 1.275 . S
Mg383 O384 2.180 1_655 S
Mg383 O385 2.030 . S
Mg383 O386 1.990 . S
Mg383 O387 2.118 1_655 S
O384 Mg378 2.099 1_556 S
O384 Mg383 2.180 1_455 S
O384 C393 1.279 . S
O385 Mg383 2.030 . S
O385 C391 1.248 . S
O386 Mg383 1.990 . S
O386 C392 1.253 . S
O387 Mg383 2.118 1_455 S
O387 C393 1.249 . S
C388 O394 1.248 . S
C388 O395 1.264 . S
C389 O375 1.253 . S
C389 O377 1.260 . S
C390 O379 1.279 . S
C390 O380 1.250 . S
C391 O381 1.264 . S
C391 O385 1.248 . S
C392 O382 1.275 . S
C392 O386 1.253 . S
C393 O384 1.279 . S
C393 O387 1.249 . S
O394 Mg376 2.030 . S
O394 C388 1.248 . S
O395 Mg378 2.079 . S
O395 C388 1.264 . S
C1 C328 1.574 . S
C40 C350 1.607 . S
C369 C99 1.169 . S
C118 C390 1.732 . S
C347 C16 2.082 . S
C325 C60 2.057 . S
C392 C79 1.484 . S
C371 C138 1.889 . S
C21 C389 1.955 . S
C348 C94 1.312 . S
C133 C330 2.224 . S
C55 C368 1.970 . S
C326 C157 1.596 . S
C196 C346 1.461 . S
C255 C372 1.173 . S
C289 C393 1.696 . S
C172 C349 2.015 . S
C329 C216 2.114 . S
C388 C235 1.228 . S
C367 C294 1.847 . S
C177 C391 1.746 . S
C351 C250 1.266 . S
C327 C274 1.995 . S
C211 C370 1.863 . S
