# Generated by pormake.
# Topology rtl, (3,6)-cn, num edge types: 1
# Building blocks:
#     Node 0, Type 0, BuildingBlock: CUQRIR_clean_linker_1, # of connection points: 3
#     Node 1, Type 0, BuildingBlock: CUQRIR_clean_linker_1, # of connection points: 3
#     Node 2, Type 0, BuildingBlock: CUQRIR_clean_linker_1, # of connection points: 3
#     Node 3, Type 0, BuildingBlock: CUQRIR_clean_linker_1, # of connection points: 3
#     Node 4, Type 1, BuildingBlock: VOLQOD_clean_sbu_1, # of connection points: 6
#     Node 5, Type 1, BuildingBlock: VOLQOD_clean_sbu_1, # of connection points: 6
#     Edge 6, Type (0, 1), BuildingBlock: UVAHIK_clean_linker_0, # of connection points: 2
#     Edge 7, Type (0, 1), BuildingBlock: UVAHIK_clean_linker_0, # of connection points: 2
#     Edge 8, Type (0, 1), BuildingBlock: UVAHIK_clean_linker_0, # of connection points: 2
#     Edge 9, Type (0, 1), BuildingBlock: UVAHIK_clean_linker_0, # of connection points: 2
#     Edge 10, Type (0, 1), BuildingBlock: UVAHIK_clean_linker_0, # of connection points: 2
#     Edge 11, Type (0, 1), BuildingBlock: UVAHIK_clean_linker_0, # of connection points: 2
#     Edge 12, Type (0, 1), BuildingBlock: UVAHIK_clean_linker_0, # of connection points: 2
#     Edge 13, Type (0, 1), BuildingBlock: UVAHIK_clean_linker_0, # of connection points: 2
#     Edge 14, Type (0, 1), BuildingBlock: UVAHIK_clean_linker_0, # of connection points: 2
#     Edge 15, Type (0, 1), BuildingBlock: UVAHIK_clean_linker_0, # of connection points: 2
#     Edge 16, Type (0, 1), BuildingBlock: UVAHIK_clean_linker_0, # of connection points: 2
#     Edge 17, Type (0, 1), BuildingBlock: UVAHIK_clean_linker_0, # of connection points: 2
# Relax obj value: 0.040
# Max RMSD: 0.143
# Mean RMSD: 0.106
data_MOF--net-rtl--node1-VOLQOD_clean_sbu_1--node2-CUQRIR_clean_linker_1--edge1-UVAHIK_clean_linker_0
_symmetry_space_group_name_H-M    P1
_symmetry_Int_Tables_number       1
_symmetry_cell_setting            triclinic
loop_
_symmetry_equiv_pos_as_xyz
'x, y, z'
_cell_length_a     46.232879
_cell_length_b     46.692791
_cell_length_c     26.354664
_cell_angle_alpha  90.033483
_cell_angle_beta   90.394476
_cell_angle_gamma 90.182838
loop_
_atom_site_label
_atom_site_type_symbol
_atom_site_fract_x
_atom_site_fract_y
_atom_site_fract_z
_atom_type_partial_charge
C0 C 0.21793 0.79844 0.9574 0.0
N1 N 0.19614 0.81545 0.97284 0.0
N2 N 0.2297 0.78443 0.99749 0.0
C3 C 0.22641 0.79423 0.9029 0.0
C4 C 0.2141 0.79351 0.03773 0.0
N5 N 0.1935 0.81218 0.02257 0.0
C6 C 0.22058 0.78612 0.09221 0.0
H7 H 0.23453 0.7722 0.89653 0.0
H8 H 0.24388 0.80964 0.89348 0.0
H9 H 0.20786 0.7983 0.87699 0.0
H10 H 0.24376 0.78074 0.09751 0.0
H11 H 0.20736 0.7673 0.10331 0.0
H12 H 0.21502 0.80421 0.11765 0.0
C13 C 0.72429 0.70607 0.54734 0.0
N14 N 0.70469 0.68619 0.53228 0.0
N15 N 0.73265 0.72222 0.50745 0.0
C16 C 0.7333 0.71144 0.60152 0.0
C17 C 0.71741 0.71164 0.46766 0.0
N18 N 0.7002 0.68984 0.48284 0.0
C19 C 0.72084 0.7214 0.41363 0.0
H20 H 0.7399 0.73408 0.60727 0.0
H21 H 0.75201 0.69754 0.61088 0.0
H22 H 0.71546 0.70623 0.62794 0.0
H23 H 0.74274 0.7305 0.40743 0.0
H24 H 0.70468 0.73831 0.40542 0.0
H25 H 0.71719 0.7034 0.38682 0.0
C26 C 0.7801 0.21726 0.03717 0.0
N27 N 0.79911 0.19836 0.01778 0.0
N28 N 0.76171 0.22642 0.00059 0.0
C29 C 0.77855 0.22557 0.09223 0.0
C30 C 0.77014 0.21238 0.95828 0.0
N31 N 0.7928 0.19505 0.9689 0.0
C32 C 0.7578 0.21747 0.9061 0.0
H33 H 0.7563 0.23207 0.10262 0.0
H34 H 0.79335 0.24394 0.0991 0.0
H35 H 0.78554 0.20762 0.11698 0.0
H36 H 0.74812 0.23912 0.90319 0.0
H37 H 0.7406 0.20138 0.89847 0.0
H38 H 0.77473 0.21519 0.87675 0.0
C39 C 0.30438 0.26469 0.46521 0.0
N40 N 0.32093 0.2877 0.47663 0.0
N41 N 0.29415 0.25249 0.50817 0.0
C42 C 0.2961 0.2558 0.41214 0.0
C43 C 0.30496 0.26914 0.54597 0.0
N44 N 0.32105 0.2907 0.52666 0.0
C45 C 0.30139 0.26325 0.60169 0.0
H46 H 0.27356 0.24758 0.41087 0.0
H47 H 0.31076 0.23845 0.39968 0.0
H48 H 0.29814 0.2739 0.38513 0.0
H49 H 0.29728 0.24016 0.60858 0.0
H50 H 0.28273 0.27566 0.61606 0.0
H51 H 0.32097 0.27002 0.6232 0.0
O52 O 0.93144 0.97683 0.49025 0.0
Zn53 Zn 0.95443 0.0134 0.4892 0.0
O54 O -0.00408 0.00596 0.49449 0.0
Zn55 Zn 0.01171 0.02447 0.55497 0.0
Zn56 Zn 0.00258 0.96475 0.49825 0.0
Zn57 Zn 0.01529 0.02138 0.43511 0.0
O58 O 0.04318 0.05234 0.53774 0.0
O59 O 0.04833 0.04701 0.45459 0.0
O60 O 0.94089 0.03713 0.5483 0.0
O61 O 0.98088 0.04517 0.59333 0.0
O62 O 0.02982 -0.00438 0.60179 0.0
O63 O 0.02453 0.9541 0.56153 0.0
O64 O 0.02401 0.95036 0.43701 0.0
O65 O 0.9448 0.03447 0.42466 0.0
O66 O 0.03149 0.98996 0.39241 0.0
O67 O 0.98782 0.0436 0.39105 0.0
C68 C 0.9387 0.95076 0.496 0.0
C69 C 0.05619 0.05808 0.4966 0.0
C70 C 0.03353 0.96866 0.59934 0.0
C71 C 0.95377 0.04817 0.58648 0.0
C72 C 0.03371 0.96298 0.39779 0.0
C73 C 0.96039 0.04585 0.39045 0.0
O74 O 0.96509 0.9435 0.50035 0.0
O75 O 0.55522 0.46942 0.01273 0.0
Zn76 Zn 0.53626 0.50783 0.00771 0.0
O77 O 0.49425 0.50371 0.00342 0.0
Zn78 Zn 0.48013 0.52268 0.94207 0.0
Zn79 Zn 0.48372 0.46331 0.00067 0.0
Zn80 Zn 0.47678 0.52082 0.06333 0.0
O81 O 0.45318 0.55473 0.95938 0.0
O82 O 0.44924 0.55198 0.04329 0.0
O83 O 0.55227 0.52761 0.94609 0.0
O84 O 0.5129 0.53913 0.90214 0.0
O85 O 0.45949 0.49508 0.89521 0.0
O86 O 0.46385 0.45358 0.93538 0.0
O87 O 0.45733 0.45235 0.05761 0.0
O88 O 0.54825 0.53021 0.06956 0.0
O89 O 0.45495 0.49183 0.10434 0.0
O90 O 0.50689 0.53802 0.1094 0.0
C91 C 0.54572 0.44382 0.01129 0.0
C92 C 0.44257 0.56347 0.00102 0.0
C93 C 0.45533 0.46814 0.89737 0.0
C94 C 0.54026 0.53912 0.90759 0.0
C95 C 0.44849 0.46569 0.09663 0.0
C96 C 0.53427 0.54035 0.10691 0.0
O97 O 0.51886 0.43845 0.00627 0.0
C98 C 0.24826 0.23343 0.54067 0.0
C99 C 0.27346 0.22962 0.51215 0.0
C100 C 0.22713 0.21211 0.54181 0.0
C101 C 0.1952 0.15799 0.46379 0.0
H102 H 0.16225 0.12818 0.58801 0.0
C103 C 0.10297 0.07486 0.4604 0.0
C104 C 0.08177 0.07693 0.49809 0.0
C105 C 0.12794 0.09163 0.46314 0.0
C106 C 0.17092 0.13658 0.55296 0.0
H107 H 0.29693 0.20055 0.46367 0.0
H108 H 0.25915 0.16344 0.46383 0.0
H109 H 0.20371 0.1606 0.5923 0.0
H110 H 0.06963 0.09855 0.56752 0.0
H111 H 0.11249 0.12887 0.57108 0.0
H112 H 0.16173 0.13547 0.42427 0.0
C113 C 0.25603 0.18283 0.48567 0.0
C114 C 0.19479 0.15489 0.55552 0.0
C115 C 0.27746 0.20397 0.4854 0.0
C116 C 0.08574 0.0964 0.53812 0.0
C117 C 0.11046 0.11357 0.54036 0.0
C118 C 0.171 0.14013 0.4612 0.0
C119 C 0.23065 0.1869 0.51361 0.0
C120 C 0.20695 0.16582 0.51097 0.0
C121 C 0.132 0.11123 0.50314 0.0
C122 C 0.15841 0.12937 0.50579 0.0
H123 H 0.24452 0.25329 0.56073 0.0
H124 H 0.20751 0.21578 0.56309 0.0
H125 H 0.20408 0.16655 0.42899 0.0
H126 H 0.10061 0.05976 0.42941 0.0
H127 H 0.14425 0.08886 0.43428 0.0
C128 C 0.24892 0.7374 0.02222 0.0
C129 C 0.25255 0.76368 0.99727 0.0
C130 C 0.27117 0.71735 0.02286 0.0
C131 C 0.33006 0.68987 0.95204 0.0
H132 H 0.36161 0.66368 0.08054 0.0
C133 C 0.42269 0.6077 0.96085 0.0
C134 C 0.42213 0.58758 0.00038 0.0
C135 C 0.40353 0.63073 0.96063 0.0
C136 C 0.35278 0.6704 0.04433 0.0
H137 H 0.28196 0.78977 0.95337 0.0
H138 H 0.32068 0.75386 0.95234 0.0
H139 H 0.32466 0.70083 0.0795 0.0
H140 H 0.40087 0.57535 0.07016 0.0
H141 H 0.36651 0.61461 0.06863 0.0
H142 H 0.35679 0.65859 0.91665 0.0
C143 C 0.3007 0.74911 0.9719 0.0
C144 C 0.33184 0.69182 0.04385 0.0
C145 C 0.27863 0.76946 0.97225 0.0
C146 C 0.40194 0.59072 0.03945 0.0
C147 C 0.3824 0.6134 0.03872 0.0
C148 C 0.35057 0.668 0.95248 0.0
C149 C 0.29713 0.72305 0.99755 0.0
C150 C 0.32028 0.70155 0.99775 0.0
C151 C 0.38302 0.63379 -0.00056 0.0
C152 C 0.36206 0.65785 -0.00131 0.0
H153 H 0.22878 0.73235 0.04093 0.0
H154 H 0.26797 0.69719 0.0424 0.0
H155 H 0.32114 0.69702 0.91611 0.0
H156 H 0.43827 0.60591 0.93049 0.0
H157 H 0.40505 0.64626 0.93027 0.0
C158 C 0.74296 0.77289 0.49046 0.0
C159 C 0.75221 0.74605 0.5077 0.0
C160 C 0.76194 0.79616 0.49084 0.0
C161 C 0.8304 0.8215 0.54861 0.0
H162 H 0.83166 0.87312 0.43333 0.0
C163 C 0.9235 0.9003 0.51251 0.0
C164 C 0.91614 0.92838 0.49837 0.0
C165 C 0.90232 0.87909 0.51527 0.0
C166 C 0.83128 0.85906 0.46601 0.0
H167 H 0.78801 0.72191 0.53844 0.0
H168 H 0.8217 0.76247 0.53848 0.0
H169 H 0.79686 0.83374 0.43492 0.0
H170 H 0.88079 0.95621 0.47584 0.0
H171 H 0.84373 0.91889 0.48039 0.0
H172 H 0.86527 0.84651 0.5791 0.0
C173 C 0.79968 0.76582 0.52557 0.0
C174 C 0.81137 0.83656 0.46699 0.0
C175 C 0.7806 0.74263 0.52537 0.0
C176 C 0.88714 0.93478 0.48687 0.0
C177 C 0.86596 0.91344 0.48926 0.0
C178 C 0.8504 0.84389 0.54746 0.0
C179 C 0.79053 0.79286 0.50833 0.0
C180 C 0.81089 0.8174 0.50812 0.0
C181 C 0.87338 0.88545 0.50364 0.0
C182 C 0.85118 0.8627 0.50597 0.0
H183 H 0.72093 0.77582 0.47725 0.0
H184 H 0.75413 0.81679 0.47801 0.0
H185 H 0.83019 0.80744 0.58127 0.0
H186 H 0.94563 0.89465 0.52167 0.0
H187 H 0.90865 0.85757 0.52585 0.0
C188 C 0.71041 0.239 0.99175 0.0
C189 C 0.73871 0.24668 0.00545 0.0
C190 C 0.68802 0.25879 0.99616 0.0
C191 C 0.66904 0.32735 0.05807 0.0
H192 H 0.61274 0.33262 0.9487 0.0
C193 C 0.59551 0.42508 0.02764 0.0
C194 C 0.56638 0.41986 0.01505 0.0
C195 C 0.61519 0.40256 0.03015 0.0
C196 C 0.62808 0.33113 0.97983 0.0
H197 H 0.76631 0.2805 0.03402 0.0
H198 H 0.72734 0.31556 0.04106 0.0
H199 H 0.64986 0.29573 0.94592 0.0
H200 H 0.53499 0.38684 0.99576 0.0
H201 H 0.56955 0.34751 -0.00014 0.0
H202 H 0.64762 0.36332 0.09117 0.0
C203 C 0.72216 0.29415 0.02796 0.0
C204 C 0.64931 0.30999 0.97832 0.0
C205 C 0.74446 0.27427 0.02376 0.0
C206 C 0.55729 0.39159 0.00551 0.0
C207 C 0.57706 0.36908 0.00763 0.0
C208 C 0.64792 0.3486 0.05939 0.0
C209 C 0.69368 0.28664 0.01411 0.0
C210 C 0.6702 0.30806 0.01716 0.0
C211 C 0.60619 0.3744 0.01978 0.0
C212 C 0.62744 0.35084 0.02004 0.0
H213 H 0.70571 0.21762 0.97797 0.0
H214 H 0.66627 0.25223 0.98583 0.0
H215 H 0.6845 0.32607 0.08904 0.0
H216 H 0.6032 0.4466 0.03535 0.0
H217 H 0.63762 0.40726 0.03908 0.0
C218 C 0.15478 0.80995 0.08588 0.0
C219 C 0.17264 0.82617 0.05406 0.0
C220 C 0.13635 0.8235 0.11994 0.0
C221 C 0.10135 0.89223 0.1495 0.0
H222 H 0.10569 0.8655 0.28867 0.0
C223 C 0.06128 0.96003 0.31668 0.0
C224 C 0.04753 0.94609 0.3572 0.0
C225 C 0.07415 0.94428 0.27802 0.0
C226 C 0.10381 0.87295 0.24989 0.0
H227 H 0.18507 0.86894 0.03157 0.0
H228 H 0.15247 0.89292 0.09068 0.0
H229 H 0.13154 0.83984 0.2226 0.0
H230 H 0.03627 0.9046 0.38858 0.0
H231 H 0.05843 0.87707 0.32057 0.0
H232 H 0.07375 0.92544 0.17675 0.0
C233 C 0.15253 0.86974 0.08915 0.0
C234 C 0.11864 0.85826 0.21205 0.0
C235 C 0.1711 0.85612 0.05533 0.0
C236 C 0.04686 0.916 0.35808 0.0
C237 C 0.05963 0.90022 0.31918 0.0
C238 C 0.08636 0.90683 0.18729 0.0
C239 C 0.13537 0.85354 0.12244 0.0
C240 C 0.11785 0.86796 0.16162 0.0
C241 C 0.07346 0.9142 0.27875 0.0
C242 C 0.08776 0.89759 0.23804 0.0
H243 H 0.15554 0.78678 0.08486 0.0
H244 H 0.12308 0.81051 0.1447 0.0
H245 H 0.1001 0.89995 0.11079 0.0
H246 H 0.06233 0.98319 0.31492 0.0
H247 H 0.08509 0.95572 0.24796 0.0
C248 C 0.65878 0.66754 0.56556 0.0
C249 C 0.68906 0.66687 0.56451 0.0
C250 C 0.64365 0.65041 0.59975 0.0
C251 C 0.65255 0.61643 0.7235 0.0
H252 H 0.58119 0.57721 0.68793 0.0
C253 C 0.58861 0.54933 0.86891 0.0
C254 C 0.55835 0.55217 0.86769 0.0
C255 C 0.60552 0.56111 0.83041 0.0
C256 C 0.60096 0.58825 0.69854 0.0
H257 H 0.72744 0.64737 0.59625 0.0
H258 H 0.70104 0.61738 0.65679 0.0
H259 H 0.60904 0.60114 0.62195 0.0
H260 H 0.52217 0.56987 0.82529 0.0
H261 H 0.55165 0.59086 0.75893 0.0
H262 H 0.64419 0.60425 0.80021 0.0
C263 C 0.68898 0.63128 0.63152 0.0
C264 C 0.61692 0.60186 0.66074 0.0
C265 C 0.70405 0.64829 0.59706 0.0
C266 C 0.54541 0.56716 0.82732 0.0
C267 C 0.5623 0.57902 0.789 0.0
C268 C 0.63652 0.60295 0.76135 0.0
C269 C 0.65864 0.63247 0.63367 0.0
C270 C 0.64272 0.61632 0.67295 0.0
C271 C 0.59253 0.57606 0.78999 0.0
C272 C 0.61038 0.58899 0.74938 0.0
H273 H 0.64694 0.68203 0.54105 0.0
H274 H 0.6203 0.65202 0.60096 0.0
H275 H 0.67216 0.62776 0.73412 0.0
H276 H 0.59926 0.53777 0.89932 0.0
H277 H 0.62874 0.5582 0.83199 0.0
C278 C 0.84389 0.19583 0.06796 0.0
C279 C 0.81995 0.18215 0.04599 0.0
C280 C 0.86267 0.18062 0.09959 0.0
C281 C 0.8802 0.10654 0.14491 0.0
H282 H 0.90966 0.14777 0.26231 0.0
C283 C 0.91796 0.05463 0.33347 0.0
C284 C 0.94636 0.06151 0.34848 0.0
C285 C 0.90494 0.06892 0.29285 0.0
C286 C 0.90174 0.13612 0.22943 0.0
H287 H 0.79653 0.14237 0.0383 0.0
H288 H 0.82831 0.11576 0.0956 0.0
H289 H 0.88268 0.17347 0.19716 0.0
H290 H 0.98328 0.08893 0.3334 0.0
H291 H 0.95991 0.11473 0.26339 0.0
H292 H 0.89798 0.06886 0.17956 0.0
C293 C 0.83354 0.13787 0.08738 0.0
C294 C 0.88647 0.15081 0.19179 0.0
C295 C 0.81519 0.15301 0.05486 0.0
C296 C 0.96139 0.08316 0.3225 0.0
C297 C 0.94809 0.09791 0.28263 0.0
C298 C 0.89493 0.09177 0.18318 0.0
C299 C 0.85732 0.15159 0.11085 0.0
C300 C 0.87529 0.1362 0.14913 0.0
C301 C 0.91987 0.09074 0.26738 0.0
C302 C 0.90562 0.10646 0.22577 0.0
H303 H 0.84773 0.21838 0.06104 0.0
H304 H 0.8811 0.19179 0.1158 0.0
H305 H 0.87253 0.09461 0.11222 0.0
H306 H 0.90596 0.03791 0.35264 0.0
H307 H 0.88304 0.06326 0.28177 0.0
C308 C 0.36503 0.31785 0.54885 0.0
C309 C 0.33527 0.31322 0.55439 0.0
C310 C 0.3792 0.33842 0.57848 0.0
C311 C 0.36713 0.40049 0.66389 0.0
H312 H 0.43742 0.37384 0.72937 0.0
C313 C 0.43231 0.46808 0.81071 0.0
C314 C 0.44141 0.45308 0.85422 0.0
C315 C 0.42035 0.45338 0.76929 0.0
C316 C 0.41782 0.38158 0.71137 0.0
H317 H 0.29652 0.32703 0.59249 0.0
H318 H 0.32123 0.36261 0.64548 0.0
H319 H 0.41456 0.34462 0.6639 0.0
H320 H 0.44458 0.41091 0.88858 0.0
H321 H 0.42361 0.38552 0.81682 0.0
H322 H 0.36987 0.43695 0.71311 0.0
C323 C 0.3337 0.35067 0.61807 0.0
C324 C 0.40492 0.36503 0.6734 0.0
C325 C 0.3196 0.33013 0.58837 0.0
C326 C 0.43795 0.42317 0.85565 0.0
C327 C 0.42612 0.40855 0.81433 0.0
C328 C 0.3801 0.41711 0.70191 0.0
C329 C 0.36376 0.35467 0.61412 0.0
C330 C 0.37912 0.374 0.64996 0.0
C331 C 0.41743 0.42343 0.77056 0.0
C332 C 0.4052 0.40747 0.7268 0.0
H333 H 0.37739 0.30491 0.52274 0.0
H334 H 0.40232 0.34124 0.57418 0.0
H335 H 0.34743 0.4081 0.64608 0.0
H336 H 0.43469 0.49113 0.80837 0.0
H337 H 0.41389 0.46538 0.73594 0.0
C338 C 0.6832 0.64323 0.45041 0.0
C339 C 0.68102 0.67315 0.45145 0.0
C340 C 0.66558 0.62718 0.41778 0.0
C341 C 0.64098 0.60167 0.32085 0.0
H342 H 0.56199 0.62413 0.29114 0.0
C343 C 0.57982 0.56079 0.14421 0.0
C344 C 0.5502 0.55458 0.14878 0.0
C345 C 0.59491 0.57393 0.18399 0.0
C346 C 0.58389 0.61733 0.29938 0.0
H347 H 0.65828 0.70986 0.42153 0.0
H348 H 0.62802 0.68211 0.36316 0.0
H349 H 0.58886 0.6486 0.35811 0.0
H350 H 0.51325 0.55704 0.19897 0.0
H351 H 0.53971 0.57947 0.26863 0.0
H352 H 0.63585 0.57005 0.26275 0.0
C353 C 0.64297 0.67084 0.38779 0.0
C354 C 0.59942 0.63159 0.33739 0.0
C355 C 0.66047 0.68679 0.42061 0.0
C356 C 0.53602 0.56172 0.19405 0.0
C357 C 0.55116 0.57468 0.23395 0.0
C358 C 0.6254 0.58729 0.28304 0.0
C359 C 0.64554 0.64085 0.38555 0.0
C360 C 0.62827 0.6242 0.34807 0.0
C361 C 0.58078 0.58097 0.22937 0.0
C362 C 0.59681 0.59522 0.27139 0.0
H363 H 0.69898 0.63241 0.47406 0.0
H364 H 0.66779 0.6041 0.41751 0.0
H365 H 0.66325 0.59561 0.32773 0.0
H366 H 0.59138 0.55569 0.10977 0.0
H367 H 0.61759 0.57893 0.17884 0.0
C368 C 0.83909 0.1819 0.93006 0.0
C369 C 0.80908 0.17824 0.93352 0.0
C370 C 0.85476 0.16703 0.89352 0.0
C371 C 0.85056 0.10558 0.80444 0.0
H372 H 0.91147 0.14701 0.73512 0.0
C373 C 0.90647 0.06267 0.62443 0.0
C374 C 0.93685 0.06406 0.62461 0.0
C375 C 0.89061 0.07661 0.66196 0.0
C376 C 0.89466 0.13513 0.75441 0.0
H377 H 0.77185 0.15581 0.9032 0.0
H378 H 0.79896 0.13034 0.83791 0.0
H379 H 0.88438 0.17064 0.80205 0.0
H380 H 0.97438 0.08166 0.66377 0.0
H381 H 0.94663 0.10616 0.72891 0.0
H382 H 0.86067 0.07022 0.75594 0.0
C383 C 0.81058 0.14432 0.8638 0.0
C384 C 0.87921 0.14859 0.79291 0.0
C385 C 0.79499 0.15904 0.90069 0.0
C386 C 0.951 0.08011 0.66257 0.0
C387 C 0.93513 0.09426 0.69975 0.0
C388 C 0.86587 0.0922 0.76561 0.0
C389 C 0.84063 0.1484 0.8594 0.0
C390 C 0.85706 0.13394 0.81856 0.0
C391 C 0.90482 0.09246 0.70004 0.0
C392 C 0.88813 0.10682 0.74039 0.0
H393 H 0.85027 0.19684 0.9548 0.0
H394 H 0.87793 0.17031 0.89179 0.0
H395 H 0.83392 0.09355 0.82385 0.0
H396 H 0.89491 0.05046 0.59578 0.0
H397 H 0.86723 0.07512 0.66107 0.0
C398 C 0.35749 0.29871 0.41274 0.0
C399 C 0.33365 0.3072 0.44129 0.0
C400 C 0.36911 0.31711 0.37649 0.0
C401 C 0.37884 0.35121 0.28169 0.0
H402 H 0.3785 0.43358 0.29982 0.0
C403 C 0.41567 0.42558 0.12134 0.0
C404 C 0.4317 0.44999 0.13501 0.0
C405 C 0.4014 0.40957 0.15825 0.0
C406 C 0.37907 0.41061 0.29428 0.0
H407 H 0.30293 0.34086 0.45556 0.0
H408 H 0.32223 0.37294 0.39049 0.0
H409 H 0.36036 0.4029 0.36692 0.0
H410 H 0.44512 0.4771 0.19773 0.0
H411 H 0.42144 0.4485 0.26247 0.0
H412 H 0.39914 0.3587 0.21056 0.0
C413 C 0.33274 0.35255 0.3968 0.0
C414 C 0.36822 0.39299 0.33255 0.0
C415 C 0.32153 0.33428 0.43374 0.0
C416 C 0.43273 0.45845 0.1861 0.0
C417 C 0.41898 0.44211 0.22319 0.0
C418 C 0.39016 0.36877 0.2439 0.0
C419 C 0.35659 0.34411 0.36741 0.0
C420 C 0.36802 0.36304 0.32679 0.0
C421 C 0.4034 0.41724 0.20983 0.0
C422 C 0.39044 0.39871 0.24963 0.0
H423 H 0.36701 0.2778 0.41864 0.0
H424 H 0.38789 0.3101 0.35563 0.0
H425 H 0.37853 0.32831 0.27529 0.0
H426 H 0.41425 0.41879 0.08208 0.0
H427 H 0.38899 0.39104 0.14626 0.0
C428 C 0.15058 0.82316 0.92679 0.0
C429 C 0.17808 0.83283 0.94118 0.0
C430 C 0.13389 0.83907 0.89267 0.0
C431 C 0.14145 0.89651 0.79564 0.0
H432 H 0.05761 0.89574 0.79983 0.0
C433 C 0.06852 0.96918 0.67199 0.0
C434 C 0.04883 0.95403 0.64116 0.0
C435 C 0.08361 0.95519 0.7107 0.0
C436 C 0.08102 0.89605 0.79838 0.0
H437 H 0.20981 0.86645 0.93369 0.0
H438 H 0.18024 0.8954 0.87617 0.0
H439 H 0.08517 0.87081 0.86562 0.0
H440 H 0.02889 0.91261 0.62739 0.0
H441 H 0.0548 0.88832 0.69629 0.0
H442 H 0.13704 0.92258 0.72917 0.0
C443 C 0.17169 0.87512 0.8893 0.0
C444 C 0.09686 0.88165 0.83576 0.0
C445 C 0.18854 0.85885 0.92251 0.0
C446 C 0.04406 0.92476 0.65042 0.0
C447 C 0.05869 0.91092 0.68989 0.0
C448 C 0.12562 0.91137 0.75898 0.0
C449 C 0.14433 0.8652 0.8731 0.0
C450 C 0.12731 0.88148 0.83465 0.0
C451 C 0.07877 0.92598 0.71993 0.0
C452 C 0.09532 0.91104 0.75985 0.0
H453 H 0.1425 0.80289 0.94085 0.0
H454 H 0.11321 0.83042 0.88058 0.0
H455 H 0.16479 0.89637 0.79262 0.0
H456 H 0.07268 0.99174 0.66559 0.0
H457 H 0.099 0.96717 0.73359 0.0
loop_
_geom_bond_atom_site_label_1
_geom_bond_atom_site_label_2
_geom_bond_distance
_geom_bond_site_symmetry_2
_ccdc_geom_bond_type
C0 N1 1.317 . S
C0 N2 1.348 1_556 S
C0 C3 1.485 . S
N1 C0 1.317 . S
N1 N5 1.370 1_556 S
N2 C0 1.348 1_554 S
N2 C4 1.346 . S
C3 C0 1.485 . S
C3 H7 0.960 . S
C3 H8 0.961 . S
C3 H9 0.960 . S
C4 N2 1.346 . S
C4 N5 1.307 . S
C4 C6 1.486 . S
N5 N1 1.370 1_554 S
N5 C4 1.307 . S
C6 C4 1.486 . S
C6 H10 0.960 . S
C6 H11 0.960 . S
C6 H12 0.959 . S
H7 C3 0.960 . S
H8 C3 0.961 . S
H9 C3 0.960 . S
H10 C6 0.960 . S
H11 C6 0.960 . S
H12 C6 0.959 . S
C13 N14 1.317 . S
C13 N15 1.348 . S
C13 C16 1.485 . S
N14 C13 1.317 . S
N14 N18 1.370 . S
N15 C13 1.348 . S
N15 C17 1.346 . S
C16 C13 1.485 . S
C16 H20 0.960 . S
C16 H21 0.961 . S
C16 H22 0.960 . S
C17 N15 1.346 . S
C17 N18 1.307 . S
C17 C19 1.486 . S
N18 N14 1.370 . S
N18 C17 1.307 . S
C19 C17 1.486 . S
C19 H23 0.960 . S
C19 H24 0.960 . S
C19 H25 0.959 . S
H20 C16 0.960 . S
H21 C16 0.961 . S
H22 C16 0.960 . S
H23 C19 0.960 . S
H24 C19 0.960 . S
H25 C19 0.959 . S
C26 N27 1.317 . S
C26 N28 1.348 . S
C26 C29 1.485 . S
N27 C26 1.317 . S
N27 N31 1.370 1_554 S
N28 C26 1.348 . S
N28 C30 1.346 1_554 S
C29 C26 1.485 . S
C29 H33 0.960 . S
C29 H34 0.961 . S
C29 H35 0.960 . S
C30 N28 1.346 1_556 S
C30 N31 1.307 . S
C30 C32 1.486 . S
N31 N27 1.370 1_556 S
N31 C30 1.307 . S
C32 C30 1.486 . S
C32 H36 0.960 . S
C32 H37 0.960 . S
C32 H38 0.959 . S
H33 C29 0.960 . S
H34 C29 0.961 . S
H35 C29 0.960 . S
H36 C32 0.960 . S
H37 C32 0.960 . S
H38 C32 0.959 . S
C39 N40 1.317 . S
C39 N41 1.348 . S
C39 C42 1.485 . S
N40 C39 1.317 . S
N40 N44 1.370 . S
N41 C39 1.348 . S
N41 C43 1.346 . S
C42 C39 1.485 . S
C42 H46 0.960 . S
C42 H47 0.961 . S
C42 H48 0.960 . S
C43 N41 1.346 . S
C43 N44 1.307 . S
C43 C45 1.486 . S
N44 N40 1.370 . S
N44 C43 1.307 . S
C45 C43 1.486 . S
C45 H49 0.960 . S
C45 H50 0.960 . S
C45 H51 0.959 . S
H46 C42 0.960 . S
H47 C42 0.961 . S
H48 C42 0.960 . S
H49 C45 0.960 . S
H50 C45 0.960 . S
H51 C45 0.959 . S
O52 Zn53 1.953 1_565 S
O52 C68 1.225 . S
Zn53 O52 1.953 1_545 S
Zn53 O54 1.949 1_655 S
Zn53 O60 1.919 . S
Zn53 O65 1.924 . S
O54 Zn53 1.949 1_455 S
O54 Zn55 1.923 . S
O54 Zn56 1.950 1_545 S
O54 Zn57 1.945 . S
Zn55 O54 1.923 . S
Zn55 O58 1.933 . S
Zn55 O61 1.941 . S
Zn55 O62 1.965 1_545 S
Zn56 O54 1.950 1_565 S
Zn56 O63 1.938 . S
Zn56 O64 1.906 . S
Zn56 O74 1.953 1_455 S
Zn57 O54 1.945 . S
Zn57 O59 1.932 . S
Zn57 O66 1.977 . S
Zn57 O67 1.910 1_455 S
O58 Zn55 1.933 . S
O58 C69 1.226 . S
O59 Zn57 1.932 . S
O59 C69 1.307 . S
O60 Zn53 1.919 . S
O60 C71 1.253 . S
O61 Zn55 1.941 . S
O61 C71 1.283 1_455 S
O62 Zn55 1.965 1_565 S
O62 C70 1.303 . S
O63 Zn56 1.938 . S
O63 C70 1.247 . S
O64 Zn56 1.906 . S
O64 C72 1.304 . S
O65 Zn53 1.924 . S
O65 C73 1.311 . S
O66 Zn57 1.977 . S
O66 C72 1.272 1_545 S
O67 Zn57 1.910 1_655 S
O67 C73 1.231 . S
C68 O52 1.225 . S
C68 O74 1.298 . S
C69 O58 1.226 . S
C69 O59 1.307 . S
C70 O62 1.303 . S
C70 O63 1.247 . S
C71 O60 1.253 . S
C71 O61 1.283 1_655 S
C72 O64 1.304 . S
C72 O66 1.272 1_565 S
C73 O65 1.311 . S
C73 O67 1.231 . S
O74 Zn56 1.953 1_655 S
O74 C68 1.298 . S
O75 Zn76 1.953 . S
O75 C91 1.223 1_556 S
Zn76 O75 1.953 . S
Zn76 O77 1.949 1_556 S
Zn76 O83 1.919 . S
Zn76 O88 1.924 1_556 S
O77 Zn76 1.949 1_554 S
O77 Zn78 1.923 1_554 S
O77 Zn79 1.950 . S
O77 Zn80 1.945 . S
Zn78 O77 1.923 1_556 S
Zn78 O81 1.933 . S
Zn78 O84 1.941 . S
Zn78 O85 1.965 . S
Zn79 O77 1.950 . S
Zn79 O86 1.938 1_554 S
Zn79 O87 1.906 . S
Zn79 O97 1.953 . S
Zn80 O77 1.945 . S
Zn80 O82 1.932 . S
Zn80 O89 1.977 . S
Zn80 O90 1.910 . S
O81 Zn78 1.933 . S
O81 C92 1.226 1_556 S
O82 Zn80 1.932 . S
O82 C92 1.307 . S
O83 Zn76 1.919 . S
O83 C94 1.253 . S
O84 Zn78 1.941 . S
O84 C94 1.283 . S
O85 Zn78 1.965 . S
O85 C93 1.303 . S
O86 Zn79 1.938 1_556 S
O86 C93 1.247 . S
O87 Zn79 1.906 . S
O87 C95 1.304 . S
O88 Zn76 1.924 1_554 S
O88 C96 1.311 . S
O89 Zn80 1.977 . S
O89 C95 1.272 . S
O90 Zn80 1.910 . S
O90 C96 1.231 . S
C91 O75 1.223 1_554 S
C91 O97 1.301 . S
C92 O81 1.226 1_554 S
C92 O82 1.307 . S
C93 O85 1.303 . S
C93 O86 1.247 . S
C94 O83 1.253 . S
C94 O84 1.283 . S
C95 O87 1.304 . S
C95 O89 1.272 . S
C96 O88 1.311 . S
C96 O90 1.231 . S
O97 Zn79 1.953 . S
O97 C91 1.301 . S
C98 C99 1.349 . S
C98 C100 1.327 . S
C98 H123 0.950 . S
C99 C98 1.349 . S
C99 C115 1.349 . S
C100 C98 1.327 . S
C100 C119 1.429 . S
C100 H124 0.950 . S
C101 C118 1.574 . S
C101 C120 1.368 . S
C101 H125 0.949 . S
H102 C106 0.949 . S
C103 C104 1.349 . S
C103 C105 1.327 . S
C103 H126 0.950 . S
C104 C103 1.349 . S
C104 C116 1.349 . S
C105 C103 1.327 . S
C105 C121 1.429 . S
C105 H127 0.950 . S
C106 H102 0.949 . S
C106 C114 1.574 . S
C106 C122 1.368 . S
H107 C115 0.950 . S
H108 C113 0.950 . S
H109 C114 0.949 . S
H110 C116 0.950 . S
H111 C117 0.950 . S
H112 C118 0.949 . S
C113 H108 0.950 . S
C113 C115 1.327 . S
C113 C119 1.429 . S
C114 C106 1.574 . S
C114 H109 0.949 . S
C114 C120 1.368 . S
C115 C99 1.349 . S
C115 H107 0.950 . S
C115 C113 1.327 . S
C116 C104 1.349 . S
C116 H110 0.950 . S
C116 C117 1.327 . S
C117 H111 0.950 . S
C117 C116 1.327 . S
C117 C121 1.429 . S
C118 C101 1.574 . S
C118 H112 0.949 . S
C118 C122 1.368 . S
C119 C100 1.429 . S
C119 C113 1.429 . S
C119 C120 1.523 . S
C120 C101 1.368 . S
C120 C114 1.368 . S
C120 C119 1.523 . S
C121 C105 1.429 . S
C121 C117 1.429 . S
C121 C122 1.523 . S
C122 C106 1.368 . S
C122 C118 1.368 . S
C122 C121 1.523 . S
H123 C98 0.950 . S
H124 C100 0.950 . S
H125 C101 0.949 . S
H126 C103 0.950 . S
H127 C105 0.950 . S
C128 C129 1.349 . S
C128 C130 1.327 . S
C128 H153 0.950 . S
C129 C128 1.349 . S
C129 C145 1.349 1_554 S
C130 C128 1.327 . S
C130 C149 1.429 . S
C130 H154 0.950 . S
C131 C148 1.574 . S
C131 C150 1.368 1_556 S
C131 H155 0.949 . S
H132 C136 0.949 . S
C133 C134 1.349 1_556 S
C133 C135 1.327 . S
C133 H156 0.950 . S
C134 C133 1.349 1_554 S
C134 C146 1.349 . S
C135 C133 1.327 . S
C135 C151 1.429 1_556 S
C135 H157 0.950 . S
C136 H132 0.949 . S
C136 C144 1.574 . S
C136 C152 1.368 . S
H137 C145 0.950 . S
H138 C143 0.950 . S
H139 C144 0.949 . S
H140 C146 0.950 . S
H141 C147 0.950 . S
H142 C148 0.949 . S
C143 H138 0.950 . S
C143 C145 1.327 . S
C143 C149 1.429 1_556 S
C144 C136 1.574 . S
C144 H139 0.949 . S
C144 C150 1.368 . S
C145 C129 1.349 1_556 S
C145 H137 0.950 . S
C145 C143 1.327 . S
C146 C134 1.349 . S
C146 H140 0.950 . S
C146 C147 1.327 . S
C147 H141 0.950 . S
C147 C146 1.327 . S
C147 C151 1.429 . S
C148 C131 1.574 . S
C148 H142 0.949 . S
C148 C152 1.368 1_556 S
C149 C130 1.429 . S
C149 C143 1.429 1_554 S
C149 C150 1.523 . S
C150 C131 1.368 1_554 S
C150 C144 1.368 . S
C150 C149 1.523 . S
C151 C135 1.429 1_554 S
C151 C147 1.429 . S
C151 C152 1.523 . S
C152 C136 1.368 . S
C152 C148 1.368 1_554 S
C152 C151 1.523 . S
H153 C128 0.950 . S
H154 C130 0.950 . S
H155 C131 0.949 . S
H156 C133 0.950 . S
H157 C135 0.950 . S
C158 C159 1.349 . S
C158 C160 1.327 . S
C158 H183 0.950 . S
C159 C158 1.349 . S
C159 C175 1.349 . S
C160 C158 1.327 . S
C160 C179 1.429 . S
C160 H184 0.950 . S
C161 C178 1.574 . S
C161 C180 1.368 . S
C161 H185 0.949 . S
H162 C166 0.949 . S
C163 C164 1.349 . S
C163 C165 1.327 . S
C163 H186 0.950 . S
C164 C163 1.349 . S
C164 C176 1.349 . S
C165 C163 1.327 . S
C165 C181 1.429 . S
C165 H187 0.950 . S
C166 H162 0.949 . S
C166 C174 1.574 . S
C166 C182 1.368 . S
H167 C175 0.950 . S
H168 C173 0.950 . S
H169 C174 0.949 . S
H170 C176 0.950 . S
H171 C177 0.950 . S
H172 C178 0.949 . S
C173 H168 0.950 . S
C173 C175 1.327 . S
C173 C179 1.429 . S
C174 C166 1.574 . S
C174 H169 0.949 . S
C174 C180 1.368 . S
C175 C159 1.349 . S
C175 H167 0.950 . S
C175 C173 1.327 . S
C176 C164 1.349 . S
C176 H170 0.950 . S
C176 C177 1.327 . S
C177 H171 0.950 . S
C177 C176 1.327 . S
C177 C181 1.429 . S
C178 C161 1.574 . S
C178 H172 0.949 . S
C178 C182 1.368 . S
C179 C160 1.429 . S
C179 C173 1.429 . S
C179 C180 1.523 . S
C180 C161 1.368 . S
C180 C174 1.368 . S
C180 C179 1.523 . S
C181 C165 1.429 . S
C181 C177 1.429 . S
C181 C182 1.523 . S
C182 C166 1.368 . S
C182 C178 1.368 . S
C182 C181 1.523 . S
H183 C158 0.950 . S
H184 C160 0.950 . S
H185 C161 0.949 . S
H186 C163 0.950 . S
H187 C165 0.950 . S
C188 C189 1.343 1_556 S
C188 C190 1.327 . S
C188 H213 0.950 . S
C189 C188 1.343 1_554 S
C189 C205 1.354 . S
C190 C188 1.327 . S
C190 C209 1.421 1_556 S
C190 H214 0.950 . S
C191 C208 1.574 . S
C191 C210 1.377 . S
C191 H215 0.949 . S
H192 C196 0.949 . S
C193 C194 1.362 . S
C193 C195 1.327 . S
C193 H216 0.950 . S
C194 C193 1.362 . S
C194 C206 1.335 1_554 S
C195 C193 1.327 . S
C195 C211 1.440 . S
C195 H217 0.950 . S
C196 H192 0.949 . S
C196 C204 1.574 . S
C196 C212 1.357 1_556 S
H197 C205 0.950 . S
H198 C203 0.950 . S
H199 C204 0.949 . S
H200 C206 0.950 . S
H201 C207 0.950 . S
H202 C208 0.949 . S
C203 H198 0.950 . S
C203 C205 1.327 . S
C203 C209 1.436 . S
C204 C196 1.574 . S
C204 H199 0.949 . S
C204 C210 1.359 1_556 S
C205 C189 1.354 . S
C205 H197 0.950 . S
C205 C203 1.327 . S
C206 C194 1.335 1_556 S
C206 H200 0.950 . S
C206 C207 1.327 . S
C207 H201 0.950 . S
C207 C206 1.327 . S
C207 C211 1.417 1_556 S
C208 C191 1.574 . S
C208 H202 0.949 . S
C208 C212 1.379 . S
C209 C190 1.421 1_554 S
C209 C203 1.436 . S
C209 C210 1.523 . S
C210 C191 1.377 . S
C210 C204 1.359 1_554 S
C210 C209 1.523 . S
C211 C195 1.440 . S
C211 C207 1.417 1_554 S
C211 C212 1.523 . S
C212 C196 1.357 1_554 S
C212 C208 1.379 . S
C212 C211 1.523 . S
H213 C188 0.950 . S
H214 C190 0.950 . S
H215 C191 0.949 . S
H216 C193 0.950 . S
H217 C195 0.950 . S
C218 C219 1.349 . S
C218 C220 1.327 . S
C218 H243 0.950 . S
C219 C218 1.349 . S
C219 C235 1.349 . S
C220 C218 1.327 . S
C220 C239 1.429 . S
C220 H244 0.950 . S
C221 C238 1.574 . S
C221 C240 1.368 . S
C221 H245 0.949 . S
H222 C226 0.949 . S
C223 C224 1.349 . S
C223 C225 1.327 . S
C223 H246 0.950 . S
C224 C223 1.349 . S
C224 C236 1.349 . S
C225 C223 1.327 . S
C225 C241 1.429 . S
C225 H247 0.950 . S
C226 H222 0.949 . S
C226 C234 1.574 . S
C226 C242 1.368 . S
H227 C235 0.950 . S
H228 C233 0.950 . S
H229 C234 0.949 . S
H230 C236 0.950 . S
H231 C237 0.950 . S
H232 C238 0.949 . S
C233 H228 0.950 . S
C233 C235 1.327 . S
C233 C239 1.429 . S
C234 C226 1.574 . S
C234 H229 0.949 . S
C234 C240 1.368 . S
C235 C219 1.349 . S
C235 H227 0.950 . S
C235 C233 1.327 . S
C236 C224 1.349 . S
C236 H230 0.950 . S
C236 C237 1.327 . S
C237 H231 0.950 . S
C237 C236 1.327 . S
C237 C241 1.429 . S
C238 C221 1.574 . S
C238 H232 0.949 . S
C238 C242 1.368 . S
C239 C220 1.429 . S
C239 C233 1.429 . S
C239 C240 1.523 . S
C240 C221 1.368 . S
C240 C234 1.368 . S
C240 C239 1.523 . S
C241 C225 1.429 . S
C241 C237 1.429 . S
C241 C242 1.523 . S
C242 C226 1.368 . S
C242 C238 1.368 . S
C242 C241 1.523 . S
H243 C218 0.950 . S
H244 C220 0.950 . S
H245 C221 0.949 . S
H246 C223 0.950 . S
H247 C225 0.950 . S
C248 C249 1.349 . S
C248 C250 1.327 . S
C248 H273 0.950 . S
C249 C248 1.349 . S
C249 C265 1.349 . S
C250 C248 1.327 . S
C250 C269 1.429 . S
C250 H274 0.950 . S
C251 C268 1.574 . S
C251 C270 1.368 . S
C251 H275 0.949 . S
H252 C256 0.949 . S
C253 C254 1.349 . S
C253 C255 1.327 . S
C253 H276 0.950 . S
C254 C253 1.349 . S
C254 C266 1.349 . S
C255 C253 1.327 . S
C255 C271 1.429 . S
C255 H277 0.950 . S
C256 H252 0.949 . S
C256 C264 1.574 . S
C256 C272 1.368 . S
H257 C265 0.950 . S
H258 C263 0.950 . S
H259 C264 0.949 . S
H260 C266 0.950 . S
H261 C267 0.950 . S
H262 C268 0.949 . S
C263 H258 0.950 . S
C263 C265 1.327 . S
C263 C269 1.429 . S
C264 C256 1.574 . S
C264 H259 0.949 . S
C264 C270 1.368 . S
C265 C249 1.349 . S
C265 H257 0.950 . S
C265 C263 1.327 . S
C266 C254 1.349 . S
C266 H260 0.950 . S
C266 C267 1.327 . S
C267 H261 0.950 . S
C267 C266 1.327 . S
C267 C271 1.429 . S
C268 C251 1.574 . S
C268 H262 0.949 . S
C268 C272 1.368 . S
C269 C250 1.429 . S
C269 C263 1.429 . S
C269 C270 1.523 . S
C270 C251 1.368 . S
C270 C264 1.368 . S
C270 C269 1.523 . S
C271 C255 1.429 . S
C271 C267 1.429 . S
C271 C272 1.523 . S
C272 C256 1.368 . S
C272 C268 1.368 . S
C272 C271 1.523 . S
H273 C248 0.950 . S
H274 C250 0.950 . S
H275 C251 0.949 . S
H276 C253 0.950 . S
H277 C255 0.950 . S
C278 C279 1.349 . S
C278 C280 1.327 . S
C278 H303 0.950 . S
C279 C278 1.349 . S
C279 C295 1.349 . S
C280 C278 1.327 . S
C280 C299 1.429 . S
C280 H304 0.950 . S
C281 C298 1.574 . S
C281 C300 1.368 . S
C281 H305 0.949 . S
H282 C286 0.949 . S
C283 C284 1.349 . S
C283 C285 1.327 . S
C283 H306 0.950 . S
C284 C283 1.349 . S
C284 C296 1.349 . S
C285 C283 1.327 . S
C285 C301 1.429 . S
C285 H307 0.950 . S
C286 H282 0.949 . S
C286 C294 1.574 . S
C286 C302 1.368 . S
H287 C295 0.950 . S
H288 C293 0.950 . S
H289 C294 0.949 . S
H290 C296 0.950 . S
H291 C297 0.950 . S
H292 C298 0.949 . S
C293 H288 0.950 . S
C293 C295 1.327 . S
C293 C299 1.429 . S
C294 C286 1.574 . S
C294 H289 0.949 . S
C294 C300 1.368 . S
C295 C279 1.349 . S
C295 H287 0.950 . S
C295 C293 1.327 . S
C296 C284 1.349 . S
C296 H290 0.950 . S
C296 C297 1.327 . S
C297 H291 0.950 . S
C297 C296 1.327 . S
C297 C301 1.429 . S
C298 C281 1.574 . S
C298 H292 0.949 . S
C298 C302 1.368 . S
C299 C280 1.429 . S
C299 C293 1.429 . S
C299 C300 1.523 . S
C300 C281 1.368 . S
C300 C294 1.368 . S
C300 C299 1.523 . S
C301 C285 1.429 . S
C301 C297 1.429 . S
C301 C302 1.523 . S
C302 C286 1.368 . S
C302 C298 1.368 . S
C302 C301 1.523 . S
H303 C278 0.950 . S
H304 C280 0.950 . S
H305 C281 0.949 . S
H306 C283 0.950 . S
H307 C285 0.950 . S
C308 C309 1.349 . S
C308 C310 1.327 . S
C308 H333 0.950 . S
C309 C308 1.349 . S
C309 C325 1.349 . S
C310 C308 1.327 . S
C310 C329 1.429 . S
C310 H334 0.950 . S
C311 C328 1.574 . S
C311 C330 1.368 . S
C311 H335 0.949 . S
H312 C316 0.949 . S
C313 C314 1.349 . S
C313 C315 1.327 . S
C313 H336 0.950 . S
C314 C313 1.349 . S
C314 C326 1.349 . S
C315 C313 1.327 . S
C315 C331 1.429 . S
C315 H337 0.950 . S
C316 H312 0.949 . S
C316 C324 1.574 . S
C316 C332 1.368 . S
H317 C325 0.950 . S
H318 C323 0.950 . S
H319 C324 0.949 . S
H320 C326 0.950 . S
H321 C327 0.950 . S
H322 C328 0.949 . S
C323 H318 0.950 . S
C323 C325 1.327 . S
C323 C329 1.429 . S
C324 C316 1.574 . S
C324 H319 0.949 . S
C324 C330 1.368 . S
C325 C309 1.349 . S
C325 H317 0.950 . S
C325 C323 1.327 . S
C326 C314 1.349 . S
C326 H320 0.950 . S
C326 C327 1.327 . S
C327 H321 0.950 . S
C327 C326 1.327 . S
C327 C331 1.429 . S
C328 C311 1.574 . S
C328 H322 0.949 . S
C328 C332 1.368 . S
C329 C310 1.429 . S
C329 C323 1.429 . S
C329 C330 1.523 . S
C330 C311 1.368 . S
C330 C324 1.368 . S
C330 C329 1.523 . S
C331 C315 1.429 . S
C331 C327 1.429 . S
C331 C332 1.523 . S
C332 C316 1.368 . S
C332 C328 1.368 . S
C332 C331 1.523 . S
H333 C308 0.950 . S
H334 C310 0.950 . S
H335 C311 0.949 . S
H336 C313 0.950 . S
H337 C315 0.950 . S
C338 C339 1.349 . S
C338 C340 1.327 . S
C338 H363 0.950 . S
C339 C338 1.349 . S
C339 C355 1.349 . S
C340 C338 1.327 . S
C340 C359 1.429 . S
C340 H364 0.950 . S
C341 C358 1.574 . S
C341 C360 1.368 . S
C341 H365 0.949 . S
H342 C346 0.949 . S
C343 C344 1.349 . S
C343 C345 1.327 . S
C343 H366 0.950 . S
C344 C343 1.349 . S
C344 C356 1.349 . S
C345 C343 1.327 . S
C345 C361 1.429 . S
C345 H367 0.950 . S
C346 H342 0.949 . S
C346 C354 1.574 . S
C346 C362 1.368 . S
H347 C355 0.950 . S
H348 C353 0.950 . S
H349 C354 0.949 . S
H350 C356 0.950 . S
H351 C357 0.950 . S
H352 C358 0.949 . S
C353 H348 0.950 . S
C353 C355 1.327 . S
C353 C359 1.429 . S
C354 C346 1.574 . S
C354 H349 0.949 . S
C354 C360 1.368 . S
C355 C339 1.349 . S
C355 H347 0.950 . S
C355 C353 1.327 . S
C356 C344 1.349 . S
C356 H350 0.950 . S
C356 C357 1.327 . S
C357 H351 0.950 . S
C357 C356 1.327 . S
C357 C361 1.429 . S
C358 C341 1.574 . S
C358 H352 0.949 . S
C358 C362 1.368 . S
C359 C340 1.429 . S
C359 C353 1.429 . S
C359 C360 1.523 . S
C360 C341 1.368 . S
C360 C354 1.368 . S
C360 C359 1.523 . S
C361 C345 1.429 . S
C361 C357 1.429 . S
C361 C362 1.523 . S
C362 C346 1.368 . S
C362 C358 1.368 . S
C362 C361 1.523 . S
H363 C338 0.950 . S
H364 C340 0.950 . S
H365 C341 0.949 . S
H366 C343 0.950 . S
H367 C345 0.950 . S
C368 C369 1.349 . S
C368 C370 1.327 . S
C368 H393 0.950 . S
C369 C368 1.349 . S
C369 C385 1.349 . S
C370 C368 1.327 . S
C370 C389 1.429 . S
C370 H394 0.950 . S
C371 C388 1.574 . S
C371 C390 1.368 . S
C371 H395 0.949 . S
H372 C376 0.949 . S
C373 C374 1.349 . S
C373 C375 1.327 . S
C373 H396 0.950 . S
C374 C373 1.349 . S
C374 C386 1.349 . S
C375 C373 1.327 . S
C375 C391 1.429 . S
C375 H397 0.950 . S
C376 H372 0.949 . S
C376 C384 1.574 . S
C376 C392 1.368 . S
H377 C385 0.950 . S
H378 C383 0.950 . S
H379 C384 0.949 . S
H380 C386 0.950 . S
H381 C387 0.950 . S
H382 C388 0.949 . S
C383 H378 0.950 . S
C383 C385 1.327 . S
C383 C389 1.429 . S
C384 C376 1.574 . S
C384 H379 0.949 . S
C384 C390 1.368 . S
C385 C369 1.349 . S
C385 H377 0.950 . S
C385 C383 1.327 . S
C386 C374 1.349 . S
C386 H380 0.950 . S
C386 C387 1.327 . S
C387 H381 0.950 . S
C387 C386 1.327 . S
C387 C391 1.429 . S
C388 C371 1.574 . S
C388 H382 0.949 . S
C388 C392 1.368 . S
C389 C370 1.429 . S
C389 C383 1.429 . S
C389 C390 1.523 . S
C390 C371 1.368 . S
C390 C384 1.368 . S
C390 C389 1.523 . S
C391 C375 1.429 . S
C391 C387 1.429 . S
C391 C392 1.523 . S
C392 C376 1.368 . S
C392 C388 1.368 . S
C392 C391 1.523 . S
H393 C368 0.950 . S
H394 C370 0.950 . S
H395 C371 0.949 . S
H396 C373 0.950 . S
H397 C375 0.950 . S
C398 C399 1.349 . S
C398 C400 1.327 . S
C398 H423 0.950 . S
C399 C398 1.349 . S
C399 C415 1.349 . S
C400 C398 1.327 . S
C400 C419 1.429 . S
C400 H424 0.950 . S
C401 C418 1.574 . S
C401 C420 1.368 . S
C401 H425 0.949 . S
H402 C406 0.949 . S
C403 C404 1.349 . S
C403 C405 1.327 . S
C403 H426 0.950 . S
C404 C403 1.349 . S
C404 C416 1.349 . S
C405 C403 1.327 . S
C405 C421 1.429 . S
C405 H427 0.950 . S
C406 H402 0.949 . S
C406 C414 1.574 . S
C406 C422 1.368 . S
H407 C415 0.950 . S
H408 C413 0.950 . S
H409 C414 0.949 . S
H410 C416 0.950 . S
H411 C417 0.950 . S
H412 C418 0.949 . S
C413 H408 0.950 . S
C413 C415 1.327 . S
C413 C419 1.429 . S
C414 C406 1.574 . S
C414 H409 0.949 . S
C414 C420 1.368 . S
C415 C399 1.349 . S
C415 H407 0.950 . S
C415 C413 1.327 . S
C416 C404 1.349 . S
C416 H410 0.950 . S
C416 C417 1.327 . S
C417 H411 0.950 . S
C417 C416 1.327 . S
C417 C421 1.429 . S
C418 C401 1.574 . S
C418 H412 0.949 . S
C418 C422 1.368 . S
C419 C400 1.429 . S
C419 C413 1.429 . S
C419 C420 1.523 . S
C420 C401 1.368 . S
C420 C414 1.368 . S
C420 C419 1.523 . S
C421 C405 1.429 . S
C421 C417 1.429 . S
C421 C422 1.523 . S
C422 C406 1.368 . S
C422 C418 1.368 . S
C422 C421 1.523 . S
H423 C398 0.950 . S
H424 C400 0.950 . S
H425 C401 0.949 . S
H426 C403 0.950 . S
H427 C405 0.950 . S
C428 C429 1.349 . S
C428 C430 1.327 . S
C428 H453 0.950 . S
C429 C428 1.349 . S
C429 C445 1.349 . S
C430 C428 1.327 . S
C430 C449 1.429 . S
C430 H454 0.950 . S
C431 C448 1.574 . S
C431 C450 1.368 . S
C431 H455 0.949 . S
H432 C436 0.949 . S
C433 C434 1.349 . S
C433 C435 1.327 . S
C433 H456 0.950 . S
C434 C433 1.349 . S
C434 C446 1.349 . S
C435 C433 1.327 . S
C435 C451 1.429 . S
C435 H457 0.950 . S
C436 H432 0.949 . S
C436 C444 1.574 . S
C436 C452 1.368 . S
H437 C445 0.950 . S
H438 C443 0.950 . S
H439 C444 0.949 . S
H440 C446 0.950 . S
H441 C447 0.950 . S
H442 C448 0.949 . S
C443 H438 0.950 . S
C443 C445 1.327 . S
C443 C449 1.429 . S
C444 C436 1.574 . S
C444 H439 0.949 . S
C444 C450 1.368 . S
C445 C429 1.349 . S
C445 H437 0.950 . S
C445 C443 1.327 . S
C446 C434 1.349 . S
C446 H440 0.950 . S
C446 C447 1.327 . S
C447 H441 0.950 . S
C447 C446 1.327 . S
C447 C451 1.429 . S
C448 C431 1.574 . S
C448 H442 0.949 . S
C448 C452 1.368 . S
C449 C430 1.429 . S
C449 C443 1.429 . S
C449 C450 1.523 . S
C450 C431 1.368 . S
C450 C444 1.368 . S
C450 C449 1.523 . S
C451 C435 1.429 . S
C451 C447 1.429 . S
C451 C452 1.523 . S
C452 C436 1.368 . S
C452 C448 1.368 . S
C452 C451 1.523 . S
H453 C428 0.950 . S
H454 C430 0.950 . S
H455 C431 0.949 . S
H456 C433 0.950 . S
H457 C435 0.950 . S
C104 C69 1.494 . S
C99 N41 1.495 . S
C129 N2 1.494 . S
C134 C92 1.494 . S
C159 N15 1.536 . S
C164 C68 1.536 . S
C189 N28 1.535 . S
C194 C91 1.536 . S
C224 C72 1.428 . S
C219 N5 1.461 . S
C254 C94 1.472 . S
C249 N14 1.520 . S
C279 N27 1.472 . S
C284 C73 1.429 . S
C309 N44 1.510 . S
C314 C93 1.460 . S
C344 C96 1.429 . S
C339 N18 1.471 . S
C374 C71 1.472 . S
C369 N31 1.520 . S
C404 C95 1.428 . S
C399 N40 1.463 . S
C429 N1 1.510 . S
C434 C70 1.459 . S
