# Generated by pormake.
# Topology zzz, (3,6)-cn, num edge types: 1
# Building blocks:
#     Node 0, Type 0, BuildingBlock: MIDCAF_clean_linker_0, # of connection points: 3
#     Node 1, Type 0, BuildingBlock: MIDCAF_clean_linker_0, # of connection points: 3
#     Node 2, Type 0, BuildingBlock: MIDCAF_clean_linker_0, # of connection points: 3
#     Node 3, Type 0, BuildingBlock: MIDCAF_clean_linker_0, # of connection points: 3
#     Node 4, Type 0, BuildingBlock: MIDCAF_clean_linker_0, # of connection points: 3
#     Node 5, Type 0, BuildingBlock: MIDCAF_clean_linker_0, # of connection points: 3
#     Node 6, Type 0, BuildingBlock: MIDCAF_clean_linker_0, # of connection points: 3
#     Node 7, Type 0, BuildingBlock: MIDCAF_clean_linker_0, # of connection points: 3
#     Node 8, Type 1, BuildingBlock: BETDEL_clean_sbu_0, # of connection points: 6
#     Node 9, Type 1, BuildingBlock: BETDEL_clean_sbu_0, # of connection points: 6
#     Node 10, Type 1, BuildingBlock: BETDEL_clean_sbu_0, # of connection points: 6
#     Node 11, Type 1, BuildingBlock: BETDEL_clean_sbu_0, # of connection points: 6
#     Edge 12, Type (0, 1), BuildingBlock: ZUJKAS_clean_linker_0, # of connection points: 2
#     Edge 13, Type (0, 1), BuildingBlock: ZUJKAS_clean_linker_0, # of connection points: 2
#     Edge 14, Type (0, 1), BuildingBlock: ZUJKAS_clean_linker_0, # of connection points: 2
#     Edge 15, Type (0, 1), BuildingBlock: ZUJKAS_clean_linker_0, # of connection points: 2
#     Edge 16, Type (0, 1), BuildingBlock: ZUJKAS_clean_linker_0, # of connection points: 2
#     Edge 17, Type (0, 1), BuildingBlock: ZUJKAS_clean_linker_0, # of connection points: 2
#     Edge 18, Type (0, 1), BuildingBlock: ZUJKAS_clean_linker_0, # of connection points: 2
#     Edge 19, Type (0, 1), BuildingBlock: ZUJKAS_clean_linker_0, # of connection points: 2
#     Edge 20, Type (0, 1), BuildingBlock: ZUJKAS_clean_linker_0, # of connection points: 2
#     Edge 21, Type (0, 1), BuildingBlock: ZUJKAS_clean_linker_0, # of connection points: 2
#     Edge 22, Type (0, 1), BuildingBlock: ZUJKAS_clean_linker_0, # of connection points: 2
#     Edge 23, Type (0, 1), BuildingBlock: ZUJKAS_clean_linker_0, # of connection points: 2
#     Edge 24, Type (0, 1), BuildingBlock: ZUJKAS_clean_linker_0, # of connection points: 2
#     Edge 25, Type (0, 1), BuildingBlock: ZUJKAS_clean_linker_0, # of connection points: 2
#     Edge 26, Type (0, 1), BuildingBlock: ZUJKAS_clean_linker_0, # of connection points: 2
#     Edge 27, Type (0, 1), BuildingBlock: ZUJKAS_clean_linker_0, # of connection points: 2
#     Edge 28, Type (0, 1), BuildingBlock: ZUJKAS_clean_linker_0, # of connection points: 2
#     Edge 29, Type (0, 1), BuildingBlock: ZUJKAS_clean_linker_0, # of connection points: 2
#     Edge 30, Type (0, 1), BuildingBlock: ZUJKAS_clean_linker_0, # of connection points: 2
#     Edge 31, Type (0, 1), BuildingBlock: ZUJKAS_clean_linker_0, # of connection points: 2
#     Edge 32, Type (0, 1), BuildingBlock: ZUJKAS_clean_linker_0, # of connection points: 2
#     Edge 33, Type (0, 1), BuildingBlock: ZUJKAS_clean_linker_0, # of connection points: 2
#     Edge 34, Type (0, 1), BuildingBlock: ZUJKAS_clean_linker_0, # of connection points: 2
#     Edge 35, Type (0, 1), BuildingBlock: ZUJKAS_clean_linker_0, # of connection points: 2
# Relax obj value: 0.326
# Max RMSD: 0.229
# Mean RMSD: 0.209
data_MOF--net-zzz--node1-BETDEL_clean_sbu_0--node2-MIDCAF_clean_linker_0--edge1-ZUJKAS_clean_linker_0
_symmetry_space_group_name_H-M    P1
_symmetry_Int_Tables_number       1
_symmetry_cell_setting            triclinic
loop_
_symmetry_equiv_pos_as_xyz
'x, y, z'
_cell_length_a     70.656239
_cell_length_b     69.922121
_cell_length_c     24.814924
_cell_angle_alpha  91.082915
_cell_angle_beta   89.589521
_cell_angle_gamma 96.23775
loop_
_atom_site_label
_atom_site_type_symbol
_atom_site_fract_x
_atom_site_fract_y
_atom_site_fract_z
_atom_type_partial_charge
C0 C 0.78688 0.4585 0.22573 0.0
C1 C 0.79369 0.47816 0.22592 0.0
C2 C 0.78608 0.49014 0.18848 0.0
C3 C 0.77313 0.48234 0.14913 0.0
H4 H 0.71063 0.47232 0.05593 0.0
H5 H 0.68303 0.47997 0.00414 0.0
H6 H 0.70516 0.45283 0.86284 0.0
H7 H 0.73215 0.44495 0.91396 0.0
H8 H 0.76115 0.41594 0.92223 0.0
H9 H 0.78567 0.40111 0.87208 0.0
H10 H 0.81974 0.40219 0.01624 0.0
H11 H 0.79516 0.41637 0.06659 0.0
H12 H 0.77039 0.43529 0.18466 0.0
H13 H 0.79249 0.44877 0.25343 0.0
H14 H 0.79087 0.50539 0.18792 0.0
H15 H 0.76862 0.49161 0.11833 0.0
N16 N 0.74509 0.45961 0.06921 0.0
N17 N 0.74932 0.43736 0.99894 0.0
N18 N 0.76917 0.43899 0.07384 0.0
C19 C 0.73957 0.45142 0.02054 0.0
C20 C 0.7641 0.43104 0.02526 0.0
C21 C 0.75986 0.45316 0.09617 0.0
C22 C 0.72351 0.45776 0.98948 0.0
C23 C 0.70961 0.46812 0.01373 0.0
C24 C 0.69383 0.47253 0.98402 0.0
C25 C 0.69169 0.46671 0.92951 0.0
C26 C 0.70601 0.45706 0.90504 0.0
C27 C 0.72161 0.45261 0.93452 0.0
C28 C 0.77642 0.4179 0.99812 0.0
C29 C 0.77362 0.41252 0.94363 0.0
C30 C 0.78771 0.40406 0.91477 0.0
C31 C 0.80486 0.40087 0.93981 0.0
C32 C 0.80672 0.40439 0.99557 0.0
C33 C 0.79264 0.41275 0.02443 0.0
C34 C 0.76778 0.46241 0.14631 0.0
C35 C 0.77418 0.45073 0.18625 0.0
C36 C 0.93303 0.76878 0.2813 0.0
C37 C 0.9517 0.77707 0.29223 0.0
C38 C 0.96695 0.7693 0.26599 0.0
C39 C 0.96349 0.75514 0.22554 0.0
H40 H 0.9601 0.69028 0.13233 0.0
H41 H 0.96579 0.65891 0.09302 0.0
H42 H 0.93361 0.67076 0.95245 0.0
H43 H 0.92781 0.70159 0.99137 0.0
H44 H 0.94622 0.7506 0.95973 0.0
H45 H 0.95074 0.77887 0.90274 0.0
H46 H 0.92633 0.81263 0.02743 0.0
H47 H 0.92171 0.7845 0.08413 0.0
H48 H 0.91504 0.75018 0.22896 0.0
H49 H 0.92096 0.77407 0.30159 0.0
H50 H 0.98151 0.77536 0.27302 0.0
H51 H 0.97539 0.7509 0.20206 0.0
N52 N 0.94361 0.72329 0.13844 0.0
N53 N 0.93749 0.73178 0.04929 0.0
N54 N 0.93714 0.75467 0.1188 0.0
C55 C 0.94131 0.71824 0.0852 0.0
C56 C 0.93536 0.75 0.06586 0.0
C57 C 0.94119 0.74155 0.15515 0.0
C58 C 0.94361 0.69852 0.06489 0.0
C59 C 0.95404 0.68602 0.0934 0.0
C60 C 0.95738 0.66812 0.07078 0.0
C61 C 0.95011 0.66231 0.01964 0.0
C62 C 0.93919 0.6746 0.9922 0.0
C63 C 0.93602 0.69243 0.01441 0.0
C64 C 0.9339 0.76542 0.02674 0.0
C65 C 0.9413 0.76391 0.97431 0.0
C66 C 0.94402 0.78011 0.94184 0.0
C67 C 0.93914 0.79798 0.96101 0.0
C68 C 0.93018 0.79904 0.01149 0.0
C69 C 0.92765 0.78294 0.04411 0.0
C70 C 0.94477 0.74854 0.21066 0.0
C71 C 0.92961 0.7548 0.24048 0.0
C72 C 0.71116 0.97411 0.21724 0.0
C73 C 0.71284 0.98347 0.26795 0.0
C74 C 0.72946 0.99592 0.27897 0.0
C75 C 0.74314 1.00031 0.23856 0.0
H76 H 0.79394 0.97762 0.07512 0.0
H77 H 0.82258 0.97325 0.0213 0.0
H78 H 0.82782 0.03343 0.98116 0.0
H79 H 0.79935 0.03762 0.03338 0.0
H80 H 0.75387 0.04122 0.97265 0.0
H81 H 0.73161 0.05625 0.9166 0.0
H82 H 0.68935 0.04945 0.0433 0.0
H83 H 0.71133 0.03427 0.0991 0.0
H84 H 0.72215 0.9726 0.13672 0.0
H85 H 0.69851 0.96461 0.20699 0.0
H86 H 0.73133 0.00319 0.3178 0.0
H87 H 0.75489 0.01127 0.24657 0.0
N88 N 0.76764 1.00013 0.12329 0.0
N89 N 0.76437 0.02216 0.0541 0.0
N90 N 0.73921 0.01443 0.11383 0.0
C91 C 0.7751 0.01019 0.07992 0.0
C92 C 0.74644 0.02436 0.07076 0.0
C93 C 0.74961 0.00247 0.14036 0.0
C94 C 0.79427 0.0079 0.05783 0.0
C95 C 0.80151 0.98994 0.05571 0.0
C96 C 0.81786 0.98745 0.02478 0.0
C97 C 0.8272 0.00289 0.9958 0.0
C98 C 0.82067 0.0211 0.00155 0.0
C99 C 0.8044 0.02353 0.03186 0.0
C100 C 0.73427 0.03617 0.03999 0.0
C101 C 0.73995 0.04322 0.98897 0.0
C102 C 0.72725 0.05194 0.95692 0.0
C103 C 0.70868 0.05376 0.97536 0.0
C104 C 0.70348 0.04791 0.02772 0.0
C105 C 0.71611 0.03921 0.05967 0.0
C106 C 0.74046 0.99227 0.18661 0.0
C107 C 0.72477 0.97858 0.17693 0.0
C108 C 0.6089 0.70354 0.9967 0.0
C109 C 0.60322 0.7056 0.94317 0.0
C110 C 0.60018 0.72401 0.92544 0.0
C111 C 0.60054 0.73948 0.96205 0.0
H112 H 0.60229 0.80104 0.99893 0.0
H113 H 0.59148 0.82891 0.9572 0.0
H114 H 0.54592 0.82894 0.07411 0.0
H115 H 0.55702 0.80076 0.11696 0.0
H116 H 0.55493 0.75795 0.20855 0.0
H117 H 0.54463 0.73619 0.28212 0.0
H118 H 0.59866 0.71247 0.27285 0.0
H119 H 0.60894 0.73455 0.20238 0.0
H120 H 0.61234 0.71647 0.07505 0.0
H121 H 0.61136 0.6896 0.01183 0.0
H122 H 0.5962 0.72613 0.88408 0.0
H123 H 0.59664 0.75308 0.94797 0.0
N124 N 0.59372 0.76821 0.04372 0.0
N125 N 0.58187 0.77357 0.13113 0.0
N126 N 0.59535 0.74511 0.10934 0.0
C127 C 0.58566 0.77981 0.07985 0.0
C128 C 0.58715 0.75623 0.14611 0.0
C129 C 0.59857 0.75083 0.05811 0.0
C130 C 0.58033 0.79847 0.06081 0.0
C131 C 0.59003 0.807 0.01621 0.0
C132 C 0.58378 0.82297 0.99204 0.0
C133 C 0.56757 0.83086 0.01148 0.0
C134 C 0.55843 0.82311 0.05809 0.0
C135 C 0.56479 0.80702 0.08265 0.0
C136 C 0.58267 0.74784 0.19958 0.0
C137 C 0.56479 0.74861 0.22408 0.0
C138 C 0.55882 0.73589 0.26559 0.0
C139 C 0.57063 0.72221 0.28316 0.0
C140 C 0.58911 0.72277 0.26137 0.0
C141 C 0.59504 0.73544 0.22044 0.0
C142 C 0.60392 0.73676 0.01699 0.0
C143 C 0.60929 0.71897 0.0332 0.0
C144 C 0.21584 0.54352 0.9266 0.0
C145 C 0.21558 0.52452 0.90685 0.0
C146 C 0.22829 0.51268 0.92954 0.0
C147 C 0.24021 0.51946 0.97263 0.0
H148 H 0.29709 0.56503 0.18055 0.0
H149 H 0.32451 0.55459 0.22463 0.0
H150 H 0.31593 0.50007 0.13871 0.0
H151 H 0.28793 0.51063 0.0941 0.0
H152 H 0.25147 0.57248 0.2323 0.0
H153 H 0.22871 0.58654 0.29141 0.0
H154 H 0.19449 0.59652 0.15315 0.0
H155 H 0.2173 0.58311 0.09438 0.0
H156 H 0.22688 0.5648 0.98376 0.0
H157 H 0.20614 0.55309 0.91148 0.0
H158 H 0.22871 0.49804 0.91498 0.0
H159 H 0.24916 0.5098 0.99101 0.0
N160 N 0.26492 0.53812 0.06392 0.0
N161 N 0.26329 0.55763 0.14209 0.0
N162 N 0.24011 0.55763 0.07588 0.0
C163 C 0.27241 0.54486 0.11227 0.0
C164 C 0.24712 0.56405 0.12417 0.0
C165 C 0.24876 0.54481 0.04536 0.0
C166 C 0.29023 0.53862 0.13395 0.0
C167 C 0.30104 0.55084 0.17052 0.0
C168 C 0.31693 0.54491 0.19557 0.0
C169 C 0.32248 0.52652 0.18511 0.0
C170 C 0.31194 0.51432 0.14773 0.0
C171 C 0.29602 0.52039 0.12193 0.0
C172 C 0.23595 0.57622 0.15875 0.0
C173 C 0.23937 0.57818 0.21442 0.0
C174 C 0.22628 0.58616 0.24834 0.0
C175 C 0.2096 0.59235 0.22716 0.0
C176 C 0.20719 0.59202 0.17098 0.0
C177 C 0.22022 0.58408 0.1372 0.0
C178 C 0.23954 0.53817 0.99377 0.0
C179 C 0.22768 0.55024 0.96891 0.0
C180 C 0.0939 0.23468 0.85427 0.0
C181 C 0.07505 0.22762 0.84114 0.0
C182 C 0.06007 0.23613 0.86658 0.0
C183 C 0.06384 0.24972 0.90841 0.0
H184 H 0.06482 0.31104 0.00714 0.0
H185 H 0.05689 0.34133 0.04843 0.0
H186 H 0.08494 0.32787 0.19482 0.0
H187 H 0.09301 0.2981 0.15402 0.0
H188 H 0.07903 0.24803 0.17364 0.0
H189 H 0.07448 0.21828 0.2237 0.0
H190 H 0.10521 0.18983 0.10018 0.0
H191 H 0.1092 0.21944 0.04928 0.0
H192 H 0.11219 0.25162 0.90963 0.0
H193 H 0.1058 0.22885 0.8346 0.0
H194 H 0.04538 0.23104 0.8578 0.0
H195 H 0.05202 0.25451 0.9311 0.0
N196 N 0.08184 0.2788 0.00082 0.0
N197 N 0.08829 0.26939 0.08888 0.0
N198 N 0.09096 0.24807 0.01646 0.0
C199 C 0.08352 0.28307 0.05467 0.0
C200 C 0.09206 0.25188 0.07 0.0
C201 C 0.08593 0.2613 0.98175 0.0
C202 C 0.07947 0.30204 0.07727 0.0
C203 C 0.06945 0.31468 0.04791 0.0
C204 C 0.06482 0.33197 0.07163 0.0
C205 C 0.07035 0.33706 0.12485 0.0
C206 C 0.08072 0.32459 0.15351 0.0
C207 C 0.08519 0.30736 0.13013 0.0
C208 C 0.09411 0.23594 0.10699 0.0
C209 C 0.08532 0.2356 0.15796 0.0
C210 C 0.08273 0.2185 0.18673 0.0
C211 C 0.08908 0.20154 0.16526 0.0
C212 C 0.09966 0.20251 0.11704 0.0
C213 C 0.10206 0.2195 0.08805 0.0
C214 C 0.0826 0.25491 0.92558 0.0
C215 C 0.09762 0.24801 0.89654 0.0
C216 C 0.29772 0.02442 0.90807 0.0
C217 C 0.29863 0.01204 0.86295 0.0
C218 C 0.28416 0.99668 0.85617 0.0
C219 C 0.2701 0.99285 0.89582 0.0
H220 H 0.20804 0.96195 0.08088 0.0
H221 H 0.17882 0.96521 0.13109 0.0
H222 H 0.18777 0.0269 0.11338 0.0
H223 H 0.21685 0.02339 0.06097 0.0
H224 H 0.25538 0.96851 0.17516 0.0
H225 H 0.27705 0.95753 0.24093 0.0
H226 H 0.32054 0.95662 0.11794 0.0
H227 H 0.29913 0.968 0.05247 0.0
H228 H 0.28442 0.02923 0.98441 0.0
H229 H 0.30871 0.03625 0.91497 0.0
H230 H 0.28431 0.987 0.82164 0.0
H231 H 0.2601 0.98002 0.8918 0.0
N232 N 0.24225 0.9985 0.00428 0.0
N233 N 0.24515 0.98065 0.08284 0.0
N234 N 0.27121 0.98662 0.02504 0.0
C235 C 0.2344 0.99041 0.05009 0.0
C236 C 0.26356 0.97874 0.07074 0.0
C237 C 0.26075 0.99636 0.99166 0.0
C238 C 0.21465 0.99241 0.06715 0.0
C239 C 0.20342 0.97615 0.08629 0.0
C240 C 0.18681 0.97806 0.11563 0.0
C241 C 0.18119 0.99636 0.12763 0.0
C242 C 0.19166 0.01259 0.1049 0.0
C243 C 0.20827 0.01061 0.0747 0.0
C244 C 0.27562 0.96947 0.10873 0.0
C245 C 0.26947 0.9657 0.1619 0.0
C246 C 0.28185 0.9593 0.1996 0.0
C247 C 0.30059 0.95647 0.18478 0.0
C248 C 0.30632 0.95908 0.13083 0.0
C249 C 0.29401 0.96556 0.09328 0.0
C250 C 0.27021 0.00435 0.94277 0.0
C251 C 0.28374 0.02051 0.94777 0.0
C252 C 0.41399 0.30026 0.10179 0.0
C253 C 0.41695 0.2999 0.15768 0.0
C254 C 0.42008 0.28235 0.18119 0.0
C255 C 0.42215 0.26609 0.14887 0.0
H256 H 0.42427 0.20438 0.13187 0.0
H257 H 0.43246 0.17568 0.17574 0.0
H258 H 0.47764 0.17079 0.05989 0.0
H259 H 0.46941 0.19982 0.01544 0.0
H260 H 0.47876 0.24854 0.93404 0.0
H261 H 0.49024 0.27098 0.86319 0.0
H262 H 0.43213 0.28032 0.82839 0.0
H263 H 0.42094 0.2579 0.89805 0.0
H264 H 0.41471 0.28526 0.02638 0.0
H265 H 0.41162 0.31347 0.08208 0.0
H266 H 0.42196 0.28146 0.22431 0.0
H267 H 0.42586 0.2532 0.16788 0.0
N268 N 0.43254 0.23522 0.07731 0.0
N269 N 0.44723 0.22771 0.99513 0.0
N270 N 0.43312 0.25644 0.00581 0.0
C271 C 0.44177 0.2228 0.04645 0.0
C272 C 0.44252 0.24449 0.97455 0.0
C273 C 0.42821 0.2521 0.05722 0.0
C274 C 0.44625 0.2045 0.07021 0.0
C275 C 0.4359 0.1972 0.11537 0.0
C276 C 0.44049 0.18062 0.14036 0.0
C277 C 0.45567 0.17094 0.12125 0.0
C278 C 0.46591 0.17802 0.07565 0.0
C279 C 0.46114 0.19456 0.05005 0.0
C280 C 0.44899 0.25149 0.92119 0.0
C281 C 0.4685 0.25469 0.90925 0.0
C282 C 0.47505 0.26778 0.8693 0.0
C283 C 0.46214 0.27775 0.84064 0.0
C284 C 0.44252 0.27289 0.84914 0.0
C285 C 0.43605 0.25998 0.8891 0.0
C286 C 0.42109 0.2671 0.09248 0.0
C287 C 0.41596 0.28404 0.06964 0.0
Dy288 Dy 0.01272 0.99368 0.62447 0.0
C289 C 1.00088 0.03531 0.42572 0.0
C290 C 0.00487 0.97426 0.71689 0.0
Dy291 Dy 0.99992 0.0133 0.5151 0.0
O292 O 0.02189 0.98165 0.70269 0.0
O293 O 0.99248 0.97768 0.68101 0.0
O294 O 0.04233 0.98804 0.59431 0.0
O295 O 0.02351 1.00062 0.54657 0.0
C296 C 0.03993 0.99545 0.54724 0.0
C297 C 0.97334 0.00562 0.59148 0.0
O298 O 0.99637 0.98228 0.48924 0.0
O299 O 0.99878 0.96898 0.5745 0.0
O300 O 0.99216 0.0389 0.4705 0.0
O301 O 0.00835 0.01919 0.42912 0.0
O302 O 0.9692 0.00593 0.54035 0.0
O303 O 0.99076 0.01095 0.59824 0.0
O304 O 0.01983 0.0247 0.64707 0.0
O305 O 0.01791 0.03702 0.56017 0.0
C306 C 0.99514 0.96735 0.522 0.0
C307 C 0.02235 0.03905 0.6123 0.0
Dy308 Dy 0.49289 0.98591 0.54931 0.0
C309 C 0.55515 0.03644 0.63432 0.0
C310 C 0.46 0.96582 0.51381 0.0
Dy311 Dy 0.52194 0.01714 0.59857 0.0
O312 O 0.47584 0.96804 0.48654 0.0
O313 O 0.46223 0.97444 0.56038 0.0
O314 O 0.51661 0.96885 0.52283 0.0
O315 O 0.52111 0.9991 0.52633 0.0
C316 C 0.52904 0.98394 0.5188 0.0
C317 C 0.4858 0.01877 0.6304 0.0
O318 O 0.51679 0.0307 0.52018 0.0
O319 O 0.48781 0.01268 0.50411 0.0
O320 O 0.5388 0.04336 0.63513 0.0
O321 O 0.55327 0.01908 0.61426 0.0
O322 O 0.49815 0.03392 0.62752 0.0
O323 O 0.49393 0.00386 0.62169 0.0
O324 O 0.50007 0.96991 0.6221 0.0
O325 O 0.52519 0.99183 0.65167 0.0
C326 C 0.50043 0.02771 0.49399 0.0
C327 C 0.51453 0.975 0.655 0.0
Dy328 Dy 0.50239 0.51134 0.62051 0.0
C329 C 0.491 0.47203 0.41676 0.0
C330 C 0.51124 0.53366 0.70976 0.0
Dy331 Dy 0.50766 0.49117 0.50299 0.0
O332 O 0.49644 0.53479 0.67956 0.0
O333 O 0.52069 0.51991 0.69211 0.0
O334 O 0.47053 0.50576 0.60962 0.0
O335 O 0.4889 0.5098 0.54266 0.0
C336 C 0.47185 0.50556 0.55704 0.0
C337 C 0.53816 0.49021 0.56692 0.0
O338 O 0.51546 0.52194 0.48083 0.0
O339 O 0.51605 0.53532 0.56859 0.0
O340 O 0.50903 0.47866 0.4185 0.0
O341 O 0.48254 0.47585 0.46159 0.0
O342 O 0.53793 0.48363 0.51718 0.0
O343 O 0.52258 0.49674 0.57588 0.0
O344 O 0.49841 0.48049 0.64411 0.0
O345 O 0.49649 0.46681 0.557 0.0
C346 C 0.5187 0.53672 0.51544 0.0
C347 C 0.49546 0.46544 0.61046 0.0
Dy348 Dy 0.99611 0.48323 0.6084 0.0
C349 C 0.03711 0.53511 0.46513 0.0
C350 C 0.97321 0.46281 0.68089 0.0
Dy351 Dy 0.0141 0.51253 0.53276 0.0
O352 O 0.98545 0.45566 0.64933 0.0
O353 O 0.97363 0.48117 0.67336 0.0
O354 O 0.01301 0.46102 0.5719 0.0
O355 O 0.00372 0.48221 0.52253 0.0
C356 C 0.01355 0.4682 0.524 0.0
C357 C 0.99638 0.52709 0.61769 0.0
O358 O 0.9864 0.50685 0.48967 0.0
O359 O 0.97083 0.49055 0.56045 0.0
O360 O 0.02852 0.54115 0.50737 0.0
O361 O 0.03296 0.51663 0.45918 0.0
O362 O 0.99621 0.53392 0.56948 0.0
O363 O 0.00664 0.51342 0.61873 0.0
O364 O 0.02368 0.49051 0.65151 0.0
O365 O 0.03936 0.5027 0.57546 0.0
C366 C 0.97058 0.49898 0.51295 0.0
C367 C 0.0396 0.4961 0.62511 0.0
H368 H 0.17461 0.97679 0.22111 0.0
H369 H 0.14972 0.97979 0.28804 0.0
H370 H 0.12836 0.0243 0.19544 0.0
H371 H 0.15306 0.02094 0.12669 0.0
H372 H 0.1434 0.01218 0.34951 0.0
H373 H 0.08029 0.98704 0.22392 0.0
H374 H 0.10421 0.98319 0.20381 0.0
H375 H 0.09616 0.00653 0.19761 0.0
C376 C 0.16443 0.98698 0.21416 0.0
C377 C 0.16569 0.9984 0.16786 0.0
C378 C 0.15029 0.9888 0.25289 0.0
C379 C 0.13701 0.00208 0.24653 0.0
C380 C 0.13826 0.01371 0.20075 0.0
H381 H 0.04151 0.02048 0.46392 0.0
H382 H 0.06481 0.02364 0.38993 0.0
C383 C 0.15248 0.01189 0.16173 0.0
C384 C 0.12228 0.00382 0.28894 0.0
H385 H 0.07449 0.9957 0.31426 0.0
C386 C 0.12832 0.00869 0.34172 0.0
C387 C 0.1026 0.99936 0.27871 0.0
C388 C 0.09533 0.9936 0.22309 0.0
C389 C 0.11528 0.00888 0.38466 0.0
C390 C 0.09567 0.00374 0.37483 0.0
C391 C 0.08954 0.99953 0.32177 0.0
C392 C 0.08145 0.00184 0.41939 0.0
C393 C 0.12264 0.01461 0.44024 0.0
C394 C 0.08292 0.98843 0.46022 0.0
C395 C 0.06948 0.98648 0.50201 0.0
C396 C 0.05419 0.99773 0.50336 0.0
C397 C 0.05276 0.01119 0.46269 0.0
C398 C 0.06619 0.01315 0.42082 0.0
H399 H 0.1367 0.0234 0.43841 0.0
H400 H 0.11251 0.02291 0.46275 0.0
H401 H 0.12443 0.00145 0.46312 0.0
H402 H 0.09438 0.97932 0.45949 0.0
H403 H 0.07092 0.97599 0.53289 0.0
H404 H 0.49136 0.16353 0.15086 0.0
H405 H 0.49981 0.13756 0.20813 0.0
H406 H 0.44072 0.11469 0.21707 0.0
H407 H 0.4322 0.14045 0.15952 0.0
H408 H 0.48434 0.13129 0.31557 0.0
H409 H 0.46926 0.0669 0.18179 0.0
H410 H 0.47322 0.09104 0.15621 0.0
H411 H 0.45073 0.08257 0.18621 0.0
C412 C 0.48023 0.15272 0.16405 0.0
C413 C 0.46111 0.15404 0.15071 0.0
C414 C 0.48506 0.13797 0.19699 0.0
C415 C 0.47091 0.12412 0.21648 0.0
C416 C 0.45189 0.12507 0.20189 0.0
H417 H 0.46681 0.02979 0.44082 0.0
H418 H 0.45996 0.0532 0.37346 0.0
C419 C 0.44704 0.13988 0.16935 0.0
C420 C 0.47578 0.10958 0.25538 0.0
H421 H 0.47534 0.06124 0.27373 0.0
C422 C 0.48253 0.11597 0.30635 0.0
C423 C 0.47317 0.08963 0.24338 0.0
C424 C 0.46634 0.08204 0.18881 0.0
C425 C 0.48642 0.10293 0.3461 0.0
C426 C 0.48397 0.08293 0.33405 0.0
C427 C 0.47724 0.07655 0.28295 0.0
C428 C 0.4883 0.06845 0.37401 0.0
C429 C 0.49254 0.11071 0.40116 0.0
C430 C 0.5066 0.069 0.39605 0.0
C431 C 0.51052 0.05575 0.43485 0.0
C432 C 0.49629 0.04146 0.45192 0.0
C433 C 0.4781 0.04061 0.42872 0.0
C434 C 0.47415 0.05398 0.39014 0.0
H435 H 0.48838 0.12542 0.40848 0.0
H436 H 0.48623 0.10122 0.43348 0.0
H437 H 0.50827 0.11155 0.40405 0.0
H438 H 0.51789 0.0797 0.38324 0.0
H439 H 0.52475 0.05671 0.45132 0.0
H440 H 0.35687 0.54699 0.20596 0.0
H441 H 0.38137 0.53894 0.26801 0.0
H442 H 0.34947 0.48388 0.29621 0.0
H443 H 0.32466 0.49196 0.23435 0.0
H444 H 0.37257 0.53022 0.37947 0.0
H445 H 0.40594 0.47182 0.27139 0.0
H446 H 0.39287 0.48863 0.23657 0.0
H447 H 0.38033 0.46973 0.27487 0.0
C448 C 0.35514 0.53307 0.22488 0.0
C449 C 0.33872 0.52018 0.21556 0.0
C450 C 0.36918 0.52848 0.26023 0.0
C451 C 0.36724 0.51083 0.28674 0.0
C452 C 0.35134 0.4975 0.27571 0.0
H453 H 0.43409 0.49477 0.57846 0.0
H454 H 0.40737 0.49372 0.51503 0.0
C455 C 0.33721 0.50211 0.24024 0.0
C456 C 0.38115 0.50729 0.329 0.0
H457 H 0.41764 0.4809 0.358 0.0
C458 C 0.38231 0.51932 0.37507 0.0
C459 C 0.39385 0.4931 0.32297 0.0
C460 C 0.39338 0.4801 0.27372 0.0
C461 C 0.3961 0.51783 0.41479 0.0
C462 C 0.40897 0.5038 0.40853 0.0
C463 C 0.40762 0.49152 0.36289 0.0
C464 C 0.42497 0.5029 0.44652 0.0
C465 C 0.3973 0.5318 0.46208 0.0
C466 C 0.44367 0.50809 0.42881 0.0
C467 C 0.45883 0.5088 0.46483 0.0
C468 C 0.45564 0.50406 0.51921 0.0
C469 C 0.43694 0.49849 0.53679 0.0
C470 C 0.42171 0.49789 0.50065 0.0
H471 H 0.38842 0.54376 0.45628 0.0
H472 H 0.39227 0.52407 0.49903 0.0
H473 H 0.41227 0.53799 0.46878 0.0
H474 H 0.4465 0.51208 0.38731 0.0
H475 H 0.47306 0.51331 0.45014 0.0
H476 H 0.09205 0.36264 0.18986 0.0
H477 H 0.08128 0.38834 0.24651 0.0
H478 H 0.02516 0.37752 0.17789 0.0
H479 H 0.03569 0.35131 0.12217 0.0
H480 H 0.06418 0.42223 0.22778 0.0
H481 H 0.0162 0.3681 0.3394 0.0
H482 H 0.03421 0.36136 0.29305 0.0
H483 H 0.01234 0.36862 0.26799 0.0
C484 C 0.07744 0.36579 0.18655 0.0
C485 C 0.06464 0.3547 0.15216 0.0
C486 C 0.07135 0.38059 0.21867 0.0
C487 C 0.05234 0.38461 0.21714 0.0
C488 C 0.03982 0.37444 0.18032 0.0
H489 H 0.00936 0.47655 0.41741 0.0
H490 H 0.01854 0.45768 0.33874 0.0
C491 C 0.04591 0.35958 0.14814 0.0
C492 C 0.04545 0.39832 0.25725 0.0
H493 H 0.01696 0.40031 0.36852 0.0
C494 C 0.05372 0.41753 0.25827 0.0
C495 C 0.03198 0.39205 0.29743 0.0
C496 C 0.02324 0.37139 0.29996 0.0
C497 C 0.04906 0.43056 0.29889 0.0
C498 C 0.03568 0.42423 0.33914 0.0
C499 C 0.02716 0.40514 0.33745 0.0
C500 C 0.0312 0.43663 0.38569 0.0
C501 C 0.05902 0.45077 0.2997 0.0
C502 C 0.03524 0.43107 0.43803 0.0
C503 C 0.02994 0.44171 0.48275 0.0
C504 C 0.0204 0.45809 0.47608 0.0
C505 C 0.01674 0.46398 0.42365 0.0
C506 C 0.02204 0.45327 0.37874 0.0
H507 H 0.07151 0.45229 0.27206 0.0
H508 H 0.04892 0.46087 0.28687 0.0
H509 H 0.06385 0.45509 0.34108 0.0
H510 H 0.04231 0.4183 0.44432 0.0
H511 H 0.03302 0.43687 0.52264 0.0
H512 H 0.85788 0.98199 0.0076 0.0
H513 H 0.88437 0.97953 0.94368 0.0
H514 H 0.85803 0.01487 0.83201 0.0
H515 H 0.83169 0.01726 0.89478 0.0
H516 H 0.88481 0.96661 0.83124 0.0
H517 H 0.91168 0.04368 0.85753 0.0
H518 H 0.8952 0.0312 0.90427 0.0
H519 H 0.88677 0.03974 0.84186 0.0
C520 C 0.8577 0.98909 0.96923 0.0
C521 C 0.84286 1.00015 0.95678 0.0
C522 C 0.87283 0.98771 0.93284 0.0
C523 C 0.87334 0.99736 0.88358 0.0
C524 C 0.85816 0.00769 0.87029 0.0
H525 H 0.93593 0.99084 0.58518 0.0
H526 H 0.91264 0.98702 0.65919 0.0
C527 C 0.84313 0.00909 0.90639 0.0
C528 C 0.88979 0.99718 0.84603 0.0
H529 H 0.92354 0.02726 0.78147 0.0
C530 C 0.89343 0.97982 0.82071 0.0
C531 C 0.90121 0.01437 0.83292 0.0
C532 C 0.89868 0.03328 0.86092 0.0
C533 C 0.9077 0.97936 0.78092 0.0
C534 C 0.91835 0.99676 0.76564 0.0
C535 C 0.91521 0.01396 0.79264 0.0
C536 C 0.93267 0.99765 0.72129 0.0
C537 C 0.91131 0.9603 0.75569 0.0
C538 C 0.95157 0.00518 0.73138 0.0
C539 C 0.96478 0.00754 0.68919 0.0
C540 C 0.95937 0.00241 0.63599 0.0
C541 C 0.94049 0.99479 0.62585 0.0
C542 C 0.92724 0.99244 0.66816 0.0
H543 H 0.9058 0.94807 0.78142 0.0
H544 H 0.90393 0.95849 0.7163 0.0
H545 H 0.92676 0.95965 0.74848 0.0
H546 H 0.95605 0.00944 0.77192 0.0
H547 H 0.97919 0.01364 0.69818 0.0
H548 H 0.56334 0.83268 0.90288 0.0
H549 H 0.55345 0.85908 0.8509 0.0
H550 H 0.5443 0.8907 0.99791 0.0
H551 H 0.55437 0.86415 0.05072 0.0
H552 H 0.51498 0.89154 0.91781 0.0
H553 H 0.58719 0.91063 0.83298 0.0
H554 H 0.57868 0.88563 0.82418 0.0
H555 H 0.58286 0.89554 0.891 0.0
C556 C 0.55933 0.84528 0.92431 0.0
C557 C 0.55999 0.84647 0.98095 0.0
C558 C 0.55365 0.86035 0.89448 0.0
C559 C 0.54855 0.87701 0.92047 0.0
C560 C 0.54836 0.878 0.97709 0.0
H561 H 0.54149 0.9809 0.73427 0.0
H562 H 0.54888 0.95852 0.80354 0.0
C563 C 0.55404 0.86283 0.00717 0.0
C564 C 0.54377 0.89338 0.88783 0.0
H565 H 0.56167 0.92382 0.78947 0.0
C566 C 0.52521 0.89877 0.89015 0.0
C567 C 0.55723 0.90299 0.85235 0.0
C568 C 0.57766 0.89856 0.85023 0.0
C569 C 0.51956 0.913 0.85623 0.0
C570 C 0.53274 0.92181 0.81852 0.0
C571 C 0.5515 0.91694 0.81789 0.0
C572 C 0.52737 0.93577 0.7784 0.0
C573 C 0.49954 0.91846 0.86118 0.0
C574 C 0.51289 0.93041 0.74087 0.0
C575 C 0.50857 0.94319 0.70119 0.0
C576 C 0.51879 0.96157 0.69785 0.0
C577 C 0.5333 0.96689 0.73554 0.0
C578 C 0.53755 0.95411 0.77529 0.0
H579 H 0.49335 0.915 0.90158 0.0
H580 H 0.49911 0.93404 0.8541 0.0
H581 H 0.49042 0.9102 0.83067 0.0
H582 H 0.50516 0.91616 0.74151 0.0
H583 H 0.4974 0.93854 0.6727 0.0
H584 H 0.67255 0.49903 0.92879 0.0
H585 H 0.64511 0.50455 0.87319 0.0
H586 H 0.64517 0.44785 0.80184 0.0
H587 H 0.6719 0.44197 0.85832 0.0
H588 H 0.64238 0.50488 0.76293 0.0
H589 H 0.58989 0.44804 0.84387 0.0
H590 H 0.61207 0.45574 0.87741 0.0
H591 H 0.61136 0.43869 0.82198 0.0
C592 C 0.66649 0.48763 0.90193 0.0
C593 C 0.6745 0.47008 0.89796 0.0
C594 C 0.6509 0.49085 0.8699 0.0
C595 C 0.64291 0.47652 0.83377 0.0
C596 C 0.65082 0.45899 0.83008 0.0
H597 H 0.57576 0.48733 0.54635 0.0
H598 H 0.60117 0.48516 0.61225 0.0
C599 C 0.6663 0.45575 0.86199 0.0
C600 C 0.6268 0.47999 0.79824 0.0
H601 H 0.58246 0.46077 0.75854 0.0
C602 C 0.62919 0.49537 0.76234 0.0
C603 C 0.60947 0.46775 0.79791 0.0
C604 C 0.60544 0.45176 0.83776 0.0
C605 C 0.615 0.49843 0.72493 0.0
C606 C 0.59813 0.48551 0.72256 0.0
C607 C 0.59549 0.47053 0.75971 0.0
C608 C 0.58294 0.48726 0.68221 0.0
C609 C 0.61817 0.51559 0.68873 0.0
C610 C 0.56412 0.48848 0.69935 0.0
C611 C 0.54962 0.48941 0.66176 0.0
C612 C 0.55363 0.48935 0.60629 0.0
C613 C 0.57236 0.48776 0.58896 0.0
C614 C 0.5869 0.4867 0.6266 0.0
H615 H 0.62872 0.52694 0.7061 0.0
H616 H 0.62379 0.51097 0.64927 0.0
H617 H 0.60467 0.52191 0.68162 0.0
H618 H 0.5606 0.48856 0.74192 0.0
H619 H 0.53518 0.48958 0.67613 0.0
H620 H 0.98451 0.64755 0.01526 0.0
H621 H 0.99306 0.62066 0.95867 0.0
H622 H 0.93496 0.60973 0.90471 0.0
H623 H 0.92619 0.63615 0.96232 0.0
H624 H 0.95253 0.57581 0.92036 0.0
H625 H 0.9968 0.62882 0.79515 0.0
H626 H 0.00294 0.62893 0.86529 0.0
H627 H 0.98033 0.63599 0.84555 0.0
C628 C 0.97346 0.6391 0.99246 0.0
C629 C 0.95472 0.64417 0.99271 0.0
C630 C 0.9784 0.62386 0.95973 0.0
C631 C 0.96472 0.61347 0.92663 0.0
C632 C 0.94577 0.61765 0.92962 0.0
H633 H 0.97642 0.5581 0.62012 0.0
H634 H 0.96859 0.5774 0.69865 0.0
C635 C 0.94081 0.63284 0.96229 0.0
C636 C 0.97029 0.59941 0.88546 0.0
H637 H 0.9954 0.59633 0.76811 0.0
C638 C 0.96204 0.58022 0.88729 0.0
C639 C 0.98247 0.60529 0.84193 0.0
C640 C 0.99105 0.62589 0.83633 0.0
C641 C 0.96552 0.56679 0.84641 0.0
C642 C 0.97769 0.57272 0.80294 0.0
C643 C 0.98613 0.59182 0.80162 0.0
C644 C 0.98108 0.55978 0.75655 0.0
C645 C 0.95563 0.54659 0.84898 0.0
C646 C 0.9905 0.54328 0.76306 0.0
C647 C 0.99495 0.53216 0.71806 0.0
C648 C 0.99018 0.53749 0.66593 0.0
C649 C 0.98033 0.55369 0.65977 0.0
C650 C 0.97586 0.56474 0.7046 0.0
H651 H 0.94381 0.54543 0.87891 0.0
H652 H 0.94986 0.54173 0.80892 0.0
H653 H 0.96606 0.53668 0.86086 0.0
H654 H 0.99491 0.53934 0.80267 0.0
H655 H 0.0026 0.51975 0.72391 0.0
H656 H 0.07694 0.1681 0.11151 0.0
H657 H 0.06243 0.13806 0.14926 0.0
H658 H 0.07046 0.16211 0.30978 0.0
H659 H 0.08572 0.19218 0.27238 0.0
H660 H 0.0787 0.12327 0.29808 0.0
H661 H 0.00821 0.13438 0.21339 0.0
H662 H 0.02727 0.13509 0.16491 0.0
H663 H 0.02773 0.15328 0.21713 0.0
C664 C 0.07611 0.16691 0.15493 0.0
C665 C 0.08248 0.18261 0.18896 0.0
C666 C 0.06755 0.14979 0.17635 0.0
C667 C 0.06504 0.14805 0.23213 0.0
C668 C 0.07214 0.16329 0.26649 0.0
H669 H 0.98969 0.0712 0.42032 0.0
H670 H 0.00479 0.09784 0.36724 0.0
C671 C 0.08076 0.18046 0.24509 0.0
C672 C 0.05438 0.13059 0.25444 0.0
H673 H 0.01049 0.10476 0.25623 0.0
C674 C 0.06381 0.11916 0.28889 0.0
C675 C 0.03489 0.12547 0.24271 0.0
C676 C 0.02383 0.13776 0.20791 0.0
C677 C 0.05427 0.10262 0.31189 0.0
C678 C 0.03488 0.09728 0.2993 0.0
C679 C 0.02543 0.10877 0.26504 0.0
C680 C 0.02388 0.08058 0.32453 0.0
C681 C 0.06486 0.09132 0.35071 0.0
C682 C 0.02897 0.06191 0.31594 0.0
C683 C 0.02032 0.04666 0.3461 0.0
C684 C 0.00644 0.04992 0.38503 0.0
C685 C 1.00035 0.06831 0.39052 0.0
C686 C 0.009 0.08354 0.3604 0.0
H687 H 0.0783 0.09957 0.36475 0.0
H688 H 0.05588 0.08718 0.38643 0.0
H689 H 0.06851 0.07793 0.33034 0.0
H690 H 0.04018 0.05931 0.28763 0.0
H691 H 0.02529 0.03261 0.34116 0.0
H692 H 0.33711 0.97287 0.19378 0.0
H693 H 0.36007 0.96806 0.26362 0.0
H694 H 0.31888 0.92739 0.34119 0.0
H695 H 0.29572 0.9318 0.27018 0.0
H696 H 0.35268 0.97438 0.37942 0.0
H697 H 0.36991 0.9005 0.32458 0.0
H698 H 0.36008 0.91555 0.276 0.0
H699 H 0.34535 0.90518 0.3293 0.0
C700 C 0.333 0.96259 0.22497 0.0
C701 C 0.31465 0.95257 0.22615 0.0
C702 C 0.34608 0.95999 0.2651 0.0
C703 C 0.34114 0.94733 0.30723 0.0
C704 C 0.32294 0.93712 0.30863 0.0
H705 H 0.42594 0.96127 0.56656 0.0
H706 H 0.39452 0.9526 0.52641 0.0
C707 C 0.30974 0.93974 0.26832 0.0
C708 C 0.35515 0.94561 0.35018 0.0
H709 H 0.38907 0.91776 0.38999 0.0
C710 C 0.36042 0.96187 0.38278 0.0
C711 C 0.36512 0.92926 0.35393 0.0
C712 C 0.35998 0.91157 0.31913 0.0
C713 C 0.37623 0.96272 0.41683 0.0
C714 C 0.3868 0.94667 0.41884 0.0
C715 C 0.38085 0.92997 0.38847 0.0
C716 C 0.40547 0.94808 0.44601 0.0
C717 C 0.38223 0.98128 0.44729 0.0
C718 C 0.42201 0.94729 0.41474 0.0
C719 C 0.43993 0.95198 0.43766 0.0
C720 C 0.44153 0.95759 0.49213 0.0
C721 C 0.42504 0.95711 0.5243 0.0
C722 C 0.40711 0.95225 0.50143 0.0
H723 H 0.37444 0.99329 0.4338 0.0
H724 H 0.37928 0.97923 0.49089 0.0
H725 H 0.39773 0.98555 0.4422 0.0
H726 H 0.42104 0.94407 0.3719 0.0
H727 H 0.45244 0.95218 0.4121 0.0
H728 H 0.44317 0.31019 0.23619 0.0
H729 H 0.45126 0.34198 0.27673 0.0
H730 H 0.40595 0.36365 0.18887 0.0
H731 H 0.39722 0.33159 0.14913 0.0
H732 H 0.44455 0.38419 0.17603 0.0
H733 H 0.42239 0.37362 0.38955 0.0
H734 H 0.43564 0.35526 0.36133 0.0
H735 H 0.41251 0.35818 0.3352 0.0
C736 C 0.43443 0.32147 0.2268 0.0
C737 C 0.41952 0.31827 0.18928 0.0
C738 C 0.4392 0.33969 0.24975 0.0
C739 C 0.4292 0.35509 0.23567 0.0
C740 C 0.41385 0.3519 0.20002 0.0
H741 H 0.4532 0.46518 0.40028 0.0
H742 H 0.43668 0.43891 0.34692 0.0
C743 C 0.40893 0.33359 0.17733 0.0
C744 C 0.43581 0.37471 0.2554 0.0
H745 H 0.44366 0.40152 0.37069 0.0
C746 C 0.44415 0.38814 0.21847 0.0
C747 C 0.43516 0.37974 0.31066 0.0
C748 C 0.42581 0.36602 0.35156 0.0
C749 C 0.45253 0.40632 0.23586 0.0
C750 C 0.45262 0.41101 0.29145 0.0
C751 C 0.44364 0.39782 0.32803 0.0
C752 C 0.46241 0.42922 0.31349 0.0
C753 C 0.46133 0.42029 0.19484 0.0
C754 C 0.48235 0.43294 0.31055 0.0
C755 C 0.49187 0.44809 0.34085 0.0
C756 C 0.4815 0.45944 0.37478 0.0
C757 C 0.46152 0.45652 0.37458 0.0
C758 C 0.45205 0.44153 0.34419 0.0
H759 H 0.45591 0.41656 0.15362 0.0
H760 H 0.45845 0.43521 0.20531 0.0
H761 H 0.47699 0.41989 0.19435 0.0
H762 H 0.49061 0.42341 0.28767 0.0
H763 H 0.50729 0.45 0.34075 0.0
H764 H 0.18471 0.61972 0.2171 0.0
H765 H 0.15375 0.61984 0.26213 0.0
H766 H 0.16659 0.57295 0.3612 0.0
H767 H 0.19718 0.57255 0.3164 0.0
H768 H 0.12729 0.58869 0.25327 0.0
H769 H 0.14045 0.60558 0.46869 0.0
H770 H 0.15832 0.61139 0.41738 0.0
H771 H 0.15493 0.58761 0.44507 0.0
C772 C 0.1811 0.60977 0.24944 0.0
C773 C 0.19338 0.59603 0.26285 0.0
C774 C 0.16345 0.60991 0.27522 0.0
C775 C 0.15792 0.5965 0.31524 0.0
C776 C 0.17072 0.58374 0.33135 0.0
H777 H 0.05984 0.52346 0.38452 0.0
H778 H 0.0872 0.54235 0.34352 0.0
C779 C 0.18829 0.58355 0.30559 0.0
C780 C 0.13793 0.59355 0.33419 0.0
H781 H 0.11133 0.58481 0.44794 0.0
C782 C 0.12368 0.58832 0.29583 0.0
C783 C 0.13315 0.59329 0.38958 0.0
C784 C 0.14752 0.59998 0.43245 0.0
C785 C 0.10514 0.5814 0.31157 0.0
C786 C 0.10087 0.57939 0.36702 0.0
C787 C 0.11469 0.58607 0.40534 0.0
C788 C 0.08288 0.56885 0.38627 0.0
C789 C 0.09046 0.57579 0.26866 0.0
C790 C 0.07137 0.57746 0.42382 0.0
C791 C 0.05584 0.56665 0.44752 0.0
C792 C 0.05165 0.54703 0.43424 0.0
C793 C 0.0627 0.53859 0.39512 0.0
C794 C 0.07826 0.54941 0.37149 0.0
H795 H 0.09371 0.58408 0.23134 0.0
H796 H 0.09058 0.5603 0.25818 0.0
H797 H 0.07594 0.57815 0.28282 0.0
H798 H 0.07477 0.5924 0.43598 0.0
H799 H 0.04754 0.57347 0.47769 0.0
H800 H 0.91893 0.82842 0.94167 0.0
H801 H 0.93119 0.85964 0.90465 0.0
H802 H 0.98634 0.8395 0.88194 0.0
H803 H 0.97413 0.80831 0.91793 0.0
H804 H 0.95968 0.88484 0.94577 0.0
H805 H 0.97845 0.86293 0.738 0.0
H806 H 0.96368 0.84726 0.78185 0.0
H807 H 0.98919 0.84967 0.78851 0.0
C808 C 0.93357 0.83059 0.92788 0.0
C809 C 0.94553 0.8159 0.93215 0.0
C810 C 0.94056 0.8484 0.90692 0.0
C811 C 0.95962 0.85181 0.89002 0.0
C812 C 0.97147 0.83704 0.89346 0.0
H813 H 0.02882 0.95204 0.76619 0.0
H814 H 0.01902 0.92314 0.81859 0.0
C815 C 0.96446 0.81921 0.91394 0.0
C816 C 0.96741 0.8711 0.87153 0.0
H817 H 0.99036 0.89459 0.76655 0.0
C818 C 0.96632 0.88699 0.9065 0.0
C819 C 0.97611 0.87384 0.82034 0.0
C820 C 0.97678 0.85755 0.7798 0.0
C821 C 0.97383 0.90557 0.89168 0.0
C822 C 0.98263 0.90823 0.84078 0.0
C823 C 0.98385 0.89236 0.80599 0.0
C824 C 0.98917 0.92751 0.82034 0.0
C825 C 0.97235 0.92223 0.93039 0.0
C826 C 0.97568 0.93972 0.80573 0.0
C827 C 0.98119 0.95604 0.77564 0.0
C828 C 1.00029 0.9604 0.76 0.0
C829 C 0.01405 0.94904 0.77829 0.0
C830 C 0.00847 0.93253 0.80789 0.0
H831 H 0.96893 0.91732 0.972 0.0
H832 H 0.98587 0.93197 0.93103 0.0
H833 H 0.96088 0.93066 0.91688 0.0
H834 H 0.9607 0.93593 0.81438 0.0
H835 H 0.97033 0.96458 0.76179 0.0
H836 H 0.67299 0.03618 0.96072 0.0
H837 H 0.64931 0.04389 0.89637 0.0
H838 H 0.68746 0.09203 0.84108 0.0
H839 H 0.7116 0.08408 0.90553 0.0
H840 H 0.63134 0.07613 0.88429 0.0
H841 H 0.67454 0.06182 0.70202 0.0
H842 H 0.68137 0.05526 0.76849 0.0
H843 H 0.68447 0.08001 0.74902 0.0
C844 C 0.67628 0.04859 0.93549 0.0
C845 C 0.6941 0.0596 0.93831 0.0
C846 C 0.66275 0.05296 0.89858 0.0
C847 C 0.66666 0.06845 0.86368 0.0
C848 C 0.68427 0.07982 0.86707 0.0
H849 H 0.56215 0.07334 0.6737 0.0
H850 H 0.59076 0.08743 0.72174 0.0
C851 C 0.69799 0.07532 0.90391 0.0
C852 C 0.6522 0.0718 0.82302 0.0
H853 H 0.64234 0.06511 0.68918 0.0
C854 C 0.63376 0.07414 0.84142 0.0
C855 C 0.65551 0.06925 0.7672 0.0
C856 C 0.67498 0.06633 0.7452 0.0
C857 C 0.61819 0.0722 0.8063 0.0
C858 C 0.62133 0.06851 0.75082 0.0
C859 C 0.64002 0.06792 0.73173 0.0
C860 C 0.60537 0.06183 0.71427 0.0
C861 C 0.59844 0.07242 0.82981 0.0
C862 C 0.6046 0.04323 0.69144 0.0
C863 C 0.58854 0.03537 0.66328 0.0
C864 C 0.57288 0.04589 0.65784 0.0
C865 C 0.57399 0.06488 0.67803 0.0
C866 C 0.59026 0.07288 0.70564 0.0
H867 H 0.59842 0.07212 0.87457 0.0
H868 H 0.59251 0.08573 0.81765 0.0
H869 H 0.58883 0.05988 0.81463 0.0
H870 H 0.61609 0.03443 0.69748 0.0
H871 H 0.58808 0.02074 0.64778 0.0
H872 H 0.57155 0.69925 0.8807 0.0
H873 H 0.55756 0.66863 0.84274 0.0
H874 H 0.60591 0.64137 0.89529 0.0
H875 H 0.62043 0.67225 0.93242 0.0
H876 H 0.59006 0.62956 0.78752 0.0
H877 H 0.53638 0.62654 0.95276 0.0
H878 H 0.53878 0.64843 0.91529 0.0
H879 H 0.55832 0.64239 0.95518 0.0
C880 C 0.5796 0.68696 0.88265 0.0
C881 C 0.59709 0.68818 0.90996 0.0
C882 C 0.57143 0.6694 0.86153 0.0
C883 C 0.58053 0.65275 0.86748 0.0
C884 C 0.59861 0.6541 0.89098 0.0
H885 H 0.54355 0.53417 0.76866 0.0
H886 H 0.56068 0.56222 0.81391 0.0
C887 C 0.60685 0.67171 0.91218 0.0
C888 C 0.57049 0.63384 0.85228 0.0
H889 H 0.53115 0.60306 0.8825 0.0
C890 C 0.5773 0.62362 0.80848 0.0
C891 C 0.55389 0.62622 0.88005 0.0
C892 C 0.54645 0.63634 0.92875 0.0
C893 C 0.56745 0.60622 0.79026 0.0
C894 C 0.55062 0.59878 0.81743 0.0
C895 C 0.54406 0.60883 0.86194 0.0
C896 C 0.53911 0.5811 0.79823 0.0
C897 C 0.57471 0.59633 0.74089 0.0
C898 C 0.52082 0.5822 0.77764 0.0
C899 C 0.51092 0.56616 0.75235 0.0
C900 C 0.51921 0.54885 0.74744 0.0
C901 C 0.53688 0.54739 0.77178 0.0
C902 C 0.54674 0.56341 0.79716 0.0
H903 H 0.5854 0.60595 0.7183 0.0
H904 H 0.58158 0.58359 0.75336 0.0
H905 H 0.56282 0.59127 0.71335 0.0
H906 H 0.51466 0.59573 0.77856 0.0
H907 H 0.49733 0.56765 0.73383 0.0
H908 H 0.83274 0.37757 0.96257 0.0
H909 H 0.86421 0.3786 0.91966 0.0
H910 H 0.84708 0.41772 0.80166 0.0
H911 H 0.81594 0.41691 0.84398 0.0
H912 H 0.87101 0.39145 0.75947 0.0
H913 H 0.89955 0.42853 0.94749 0.0
H914 H 0.88748 0.40468 0.95382 0.0
H915 H 0.87436 0.42407 0.93473 0.0
C916 C 0.83558 0.38607 0.92681 0.0
C917 C 0.82188 0.39735 0.90716 0.0
C918 C 0.85355 0.38665 0.90242 0.0
C919 C 0.85806 0.39856 0.85824 0.0
C920 C 0.84389 0.40845 0.83579 0.0
H921 H 0.94549 0.47598 0.74322 0.0
H922 H 0.91972 0.45679 0.79034 0.0
C923 C 0.82599 0.40787 0.85997 0.0
C924 C 0.87789 0.40285 0.83889 0.0
H925 H 0.91977 0.42928 0.87254 0.0
C926 C 0.88188 0.39933 0.78436 0.0
C927 C 0.8919 0.41331 0.87157 0.0
C928 C 0.88819 0.41803 0.93008 0.0
C929 C 0.89912 0.40694 0.76081 0.0
C930 C 0.91278 0.4181 0.79301 0.0
C931 C 0.90924 0.42065 0.84819 0.0
C932 C 0.92954 0.42936 0.76886 0.0
C933 C 0.90204 0.40413 0.70098 0.0
C934 C 0.94385 0.42028 0.74252 0.0
C935 C 0.95857 0.43125 0.71545 0.0
C936 C 0.95917 0.4514 0.71467 0.0
C937 C 0.94532 0.46047 0.74316 0.0
C938 C 0.93063 0.44953 0.77008 0.0
H939 H 0.88888 0.39759 0.6806 0.0
H940 H 0.90676 0.41809 0.68188 0.0
H941 H 0.91332 0.39447 0.6941 0.0
H942 H 0.9434 0.40475 0.74188 0.0
H943 H 0.96915 0.42393 0.6939 0.0
H944 H 0.04634 0.21824 0.76718 0.0
H945 H 0.03795 0.18698 0.72204 0.0
H946 H 0.08607 0.16499 0.79546 0.0
H947 H 0.09438 0.19582 0.84115 0.0
H948 H 0.0813 0.15431 0.68589 0.0
H949 H 0.01442 0.13926 0.80444 0.0
H950 H 0.01675 0.16142 0.76822 0.0
H951 H 0.03269 0.15832 0.82265 0.0
C952 C 0.05519 0.20679 0.77351 0.0
C953 C 0.07107 0.20965 0.80783 0.0
C954 C 0.05036 0.18893 0.74774 0.0
C955 C 0.06126 0.1736 0.756 0.0
C956 C 0.07748 0.17663 0.78846 0.0
H957 H 0.0304 0.05081 0.71668 0.0
H958 H 0.04054 0.08349 0.74977 0.0
C959 C 0.0823 0.19439 0.81424 0.0
C960 C 0.05552 0.15413 0.73272 0.0
H961 H 0.02102 0.116 0.73883 0.0
C962 C 0.06807 0.14595 0.69719 0.0
C963 C 0.03842 0.14314 0.74835 0.0
C964 C 0.02482 0.15085 0.78834 0.0
C965 C 0.06395 0.1271 0.67665 0.0
C966 C 0.04671 0.11623 0.6916 0.0
C967 C 0.03419 0.12439 0.72726 0.0
C968 C 0.0414 0.09631 0.671 0.0
C969 C 0.07829 0.1188 0.64019 0.0
C970 C 0.03852 0.09266 0.61573 0.0
C971 C 0.03276 0.07401 0.59664 0.0
C972 C 0.02964 0.05859 0.63249 0.0
C973 C 0.03272 0.06228 0.68786 0.0
C974 C 0.03847 0.08097 0.7069 0.0
H975 H 0.09262 0.12702 0.64357 0.0
H976 H 0.07947 0.10352 0.64968 0.0
H977 H 0.0736 0.11941 0.59774 0.0
H978 H 0.04037 0.10432 0.58739 0.0
H979 H 0.03047 0.07179 0.55376 0.0
H980 H 0.31832 0.98305 0.82462 0.0
H981 H 0.34877 0.98585 0.77671 0.0
H982 H 0.34874 0.04747 0.77346 0.0
H983 H 0.31826 0.0448 0.82201 0.0
H984 H 0.36155 1.00047 0.67973 0.0
H985 H 0.39857 0.04205 0.84838 0.0
H986 H 0.37467 0.0303 0.8548 0.0
H987 H 0.37894 0.05295 0.82126 0.0
C988 C 0.32457 0.9972 0.81282 0.0
C989 C 0.31584 0.01372 0.82743 0.0
C990 C 0.34207 0.99877 0.78563 0.0
C991 C 0.35128 0.01689 0.77242 0.0
C992 C 0.34217 0.03336 0.78445 0.0
H993 H 0.46545 0.04964 0.64142 0.0
H994 H 0.43227 0.04968 0.67147 0.0
C995 C 0.3247 0.03182 0.81201 0.0
C996 C 0.37072 0.01845 0.74813 0.0
H997 H 0.41685 0.03699 0.77056 0.0
C998 C 0.37363 0.0085 0.69952 0.0
C999 C 0.38654 0.02886 0.77404 0.0
C1000 C 0.38463 0.03901 0.82773 0.0
C1001 C 0.39186 0.00873 0.67612 0.0
C1002 C 0.40765 0.01901 0.70233 0.0
C1003 C 0.40471 0.02919 0.75042 0.0
C1004 C 0.42746 0.01886 0.68178 0.0
C1005 C 0.39404 0.99808 0.62334 0.0
C1006 C 0.43587 0.00158 0.67828 0.0
C1007 C 0.45482 0.00156 0.66152 0.0
C1008 C 0.46573 0.01881 0.64781 0.0
C1009 C 0.45735 0.03612 0.65156 0.0
C1010 C 0.4384 0.03615 0.66857 0.0
H1011 H 0.38031 0.99544 0.60145 0.0
H1012 H 0.40468 0.00618 0.59685 0.0
H1013 H 0.39906 0.98391 0.63138 0.0
H1014 H 0.42789 0.98814 0.68961 0.0
H1015 H 0.46103 0.98807 0.66027 0.0
H1016 H 0.49123 0.3058 0.86387 0.0
H1017 H 0.49816 0.33693 0.82076 0.0
H1018 H 0.45446 0.32066 0.70325 0.0
H1019 H 0.44768 0.28924 0.7453 0.0
H1020 H 0.50728 0.34802 0.70837 0.0
H1021 H 0.43847 0.36989 0.78475 0.0
H1022 H 0.4491 0.34973 0.81141 0.0
H1023 H 0.43714 0.34744 0.74766 0.0
C1024 C 0.48346 0.30854 0.82786 0.0
C1025 C 0.46878 0.29499 0.80833 0.0
C1026 C 0.48735 0.32644 0.80356 0.0
C1027 C 0.47658 0.33121 0.75951 0.0
C1028 C 0.46271 0.31736 0.73784 0.0
H1029 H 0.49163 0.43094 0.55542 0.0
H1030 H 0.48736 0.39868 0.59243 0.0
C1031 C 0.45887 0.29941 0.76193 0.0
C1032 C 0.47909 0.35102 0.73831 0.0
H1033 H 0.45679 0.39181 0.72862 0.0
C1034 C 0.49626 0.35761 0.71268 0.0
C1035 C 0.46478 0.36356 0.74484 0.0
C1036 C 0.44636 0.35744 0.77401 0.0
C1037 C 0.49935 0.37633 0.6924 0.0
C1038 C 0.48485 0.38871 0.69777 0.0
C1039 C 0.46782 0.38224 0.7243 0.0
C1040 C 0.48704 0.40839 0.67562 0.0
C1041 C 0.51817 0.38285 0.66591 0.0
C1042 C 0.48778 0.42459 0.71014 0.0
C1043 C 0.49023 0.44316 0.68915 0.0
C1044 C 0.49177 0.44586 0.63314 0.0
C1045 C 0.49054 0.42951 0.59875 0.0
C1046 C 0.48822 0.411 0.61979 0.0
H1047 H 0.52922 0.37327 0.67539 0.0
H1048 H 0.5163 0.38269 0.62153 0.0
H1049 H 0.52335 0.39778 0.67886 0.0
H1050 H 0.48677 0.42286 0.75339 0.0
H1051 H 0.49109 0.45538 0.71686 0.0
H1052 H 0.19596 0.48824 0.89786 0.0
H1053 H 0.16867 0.47805 0.84038 0.0
H1054 H 0.17311 0.53454 0.77122 0.0
H1055 H 0.20146 0.54402 0.82352 0.0
H1056 H 0.13622 0.48844 0.84327 0.0
H1057 H 0.16148 0.50574 0.63856 0.0
H1058 H 0.17777 0.50606 0.69418 0.0
H1059 H 0.16608 0.52709 0.67925 0.0
C1060 C 0.19165 0.49825 0.8688 0.0
C1061 C 0.20093 0.51708 0.86609 0.0
C1062 C 0.1758 0.49247 0.83633 0.0
C1063 C 0.16872 0.50542 0.8008 0.0
C1064 C 0.17841 0.52397 0.79683 0.0
H1065 H 0.04958 0.50732 0.72759 0.0
H1066 H 0.08094 0.50788 0.76908 0.0
C1067 C 0.19451 0.52956 0.82797 0.0
C1068 C 0.15027 0.50036 0.77204 0.0
H1069 H 0.1275 0.50696 0.65406 0.0
C1070 C 0.13445 0.49214 0.80149 0.0
C1071 C 0.14777 0.50463 0.71709 0.0
C1072 C 0.16428 0.51113 0.68047 0.0
C1073 C 0.11622 0.48896 0.77853 0.0
C1074 C 0.11338 0.49521 0.72542 0.0
C1075 C 0.12936 0.50255 0.69517 0.0
C1076 C 0.09407 0.49461 0.70065 0.0
C1077 C 0.10038 0.47865 0.81154 0.0
C1078 C 0.09099 0.48789 0.64725 0.0
C1079 C 0.07329 0.48846 0.62271 0.0
C1080 C 0.05813 0.49525 0.65148 0.0
C1081 C 0.061 0.50171 0.70494 0.0
C1082 C 0.0789 0.50181 0.72885 0.0
H1083 H 0.10601 0.46848 0.83964 0.0
H1084 H 0.0935 0.48932 0.83642 0.0
H1085 H 0.08946 0.47046 0.78569 0.0
H1086 H 0.10233 0.4823 0.62428 0.0
H1087 H 0.07138 0.48339 0.58138 0.0
H1088 H 0.98087 0.78863 0.36298 0.0
H1089 H 0.98787 0.82035 0.40668 0.0
H1090 H 0.9375 0.83887 0.33621 0.0
H1091 H 0.93055 0.80756 0.29198 0.0
H1092 H 0.99424 0.85582 0.35442 0.0
H1093 H 0.93275 0.855 0.49479 0.0
H1094 H 0.93975 0.83341 0.46291 0.0
H1095 H 0.92614 0.8491 0.42626 0.0
C1096 C 0.97119 0.7994 0.35717 0.0
C1097 C 0.95503 0.79539 0.32431 0.0
C1098 C 0.9752 0.8175 0.38223 0.0
C1099 C 0.96307 0.83189 0.37526 0.0
C1100 C 0.94682 0.82786 0.34323 0.0
H1101 H 0.98905 0.95616 0.41595 0.0
H1102 H 0.98135 0.92336 0.38004 0.0
C1103 C 0.94283 0.80984 0.31813 0.0
C1104 C 0.96787 0.8515 0.39877 0.0
H1105 H 0.95077 0.88539 0.48128 0.0
C1106 C 0.98481 0.86226 0.38244 0.0
C1107 C 0.95559 0.85983 0.43552 0.0
C1108 C 0.93763 0.8487 0.45636 0.0
C1109 C 0.98963 0.88126 0.4011 0.0
C1110 C 0.97704 0.8898 0.43646 0.0
C1111 C 0.96029 0.87891 0.45361 0.0
C1112 C 0.98132 0.9098 0.45774 0.0
C1113 C 0.00829 0.89192 0.38343 0.0
C1114 C 0.98333 0.91312 0.51338 0.0
C1115 C 0.9876 0.9318 0.53404 0.0
C1116 C 0.98987 0.94766 0.4995 0.0
C1117 C 0.98748 0.94432 0.44372 0.0
C1118 C 0.98321 0.92556 0.42307 0.0
H1119 H 0.01826 0.88196 0.36718 0.0
H1120 H 0.00558 0.90203 0.35114 0.0
H1121 H 0.01528 0.90042 0.41745 0.0
H1122 H 0.98183 0.9012 0.5409 0.0
H1123 H 0.98923 0.93373 0.57722 0.0
H1124 H 0.68804 0.95176 0.294 0.0
H1125 H 0.6579 0.95142 0.34388 0.0
H1126 H 0.66954 0.01232 0.376 0.0
H1127 H 0.69938 0.01292 0.32554 0.0
H1128 H 0.64889 0.96487 0.45444 0.0
H1129 H 0.61804 0.00535 0.29199 0.0
H1130 H 0.63915 0.99326 0.28204 0.0
H1131 H 0.64056 0.01591 0.31793 0.0
C1132 C 0.68428 0.96505 0.31213 0.0
C1133 C 0.69616 0.98238 0.30549 0.0
C1134 C 0.66708 0.96481 0.34078 0.0
C1135 C 0.66137 0.9819 0.36294 0.0
C1136 C 0.67359 0.99901 0.35872 0.0
H1137 H 0.55565 0.0145 0.50033 0.0
H1138 H 0.58824 0.01374 0.46661 0.0
C1139 C 0.69078 0.99926 0.33031 0.0
C1140 C 0.64219 0.98212 0.38777 0.0
H1141 H 0.59933 0.9995 0.37029 0.0
C1142 C 0.63801 0.97239 0.43609 0.0
C1143 C 0.62804 0.99196 0.36371 0.0
C1144 C 0.63152 0.00211 0.31083 0.0
C1145 C 0.62015 0.97256 0.46157 0.0
C1146 C 0.60597 0.98237 0.43737 0.0
C1147 C 0.61019 0.99205 0.38896 0.0
C1148 C 0.58656 0.98267 0.46101 0.0
C1149 C 0.61682 0.96264 0.51479 0.0
C1150 C 0.5747 0.96547 0.46902 0.0
C1151 C 0.55611 0.96589 0.48862 0.0
C1152 C 0.54894 0.9835 0.50005 0.0
C1153 C 0.56081 0.0007 0.49213 0.0
C1154 C 0.57942 1.00028 0.47277 0.0
H1155 H 0.63044 0.96079 0.53513 0.0
H1156 H 0.60806 0.97084 0.54228 0.0
H1157 H 0.60912 0.94813 0.50766 0.0
H1158 H 0.57967 0.95172 0.45904 0.0
H1159 H 0.54725 0.95241 0.49405 0.0
H1160 H 0.53452 0.70299 0.28737 0.0
H1161 H 0.52414 0.67346 0.33478 0.0
H1162 H 0.5803 0.6736 0.4019 0.0
H1163 H 0.59024 0.70402 0.35912 0.0
H1164 H 0.5348 0.64038 0.31849 0.0
H1165 H 0.55096 0.65851 0.53151 0.0
H1166 H 0.55164 0.67673 0.48091 0.0
H1167 H 0.57195 0.66366 0.49128 0.0
C1168 C 0.54449 0.69723 0.31396 0.0
C1169 C 0.56332 0.70601 0.3189 0.0
C1170 C 0.53857 0.6801 0.34054 0.0
C1171 C 0.55135 0.67119 0.37235 0.0
C1172 C 0.56995 0.68026 0.3788 0.0
H1173 H 0.53871 0.54681 0.4231 0.0
H1174 H 0.54695 0.57929 0.38861 0.0
C1175 C 0.57574 0.6976 0.35331 0.0
C1176 C 0.54577 0.65171 0.39482 0.0
H1177 H 0.54797 0.6248 0.50761 0.0
C1178 C 0.53745 0.63708 0.3601 0.0
C1179 C 0.54896 0.64727 0.44926 0.0
C1180 C 0.55617 0.66246 0.49041 0.0
C1181 C 0.53253 0.61821 0.37788 0.0
C1182 C 0.53687 0.6135 0.43137 0.0
C1183 C 0.54491 0.6282 0.46633 0.0
C1184 C 0.5326 0.59365 0.45269 0.0
C1185 C 0.52226 0.60375 0.3393 0.0
C1186 C 0.52264 0.59083 0.50159 0.0
C1187 C 0.51855 0.57238 0.52225 0.0
C1188 C 0.52404 0.55622 0.49409 0.0
C1189 C 0.53412 0.55897 0.44536 0.0
C1190 C 0.53866 0.57754 0.42536 0.0
H1191 H 0.51454 0.61096 0.30799 0.0
H1192 H 0.53279 0.59554 0.31832 0.0
H1193 H 0.51184 0.59348 0.36068 0.0
H1194 H 0.5178 0.60291 0.52367 0.0
H1195 H 0.51065 0.57076 0.55976 0.0
H1196 H 0.82502 0.5026 0.19801 0.0
H1197 H 0.85457 0.50982 0.24865 0.0
H1198 H 0.8302 0.47626 0.38093 0.0
H1199 H 0.80035 0.46941 0.3312 0.0
H1200 H 0.85281 0.51064 0.41351 0.0
H1201 H 0.89052 0.4678 0.26467 0.0
H1202 H 0.87892 0.48694 0.2367 0.0
H1203 H 0.86491 0.46695 0.26704 0.0
C1204 C 0.82572 0.49717 0.23845 0.0
C1205 C 0.81031 0.48528 0.26032 0.0
C1206 C 0.84274 0.50111 0.26708 0.0
C1207 C 0.84475 0.49321 0.31804 0.0
C1208 C 0.82903 0.48235 0.34142 0.0
H1209 H 0.93524 0.4837 0.54699 0.0
H1210 H 0.90492 0.48354 0.50026 0.0
C1211 C 0.812 0.4784 0.31285 0.0
C1212 C 0.86348 0.49534 0.34574 0.0
H1213 H 0.909 0.48339 0.33464 0.0
C1214 C 0.86511 0.50472 0.39628 0.0
C1215 C 0.87952 0.48756 0.32324 0.0
C1216 C 0.87844 0.47659 0.27016 0.0
C1217 C 0.8824 0.50669 0.42468 0.0
C1218 C 0.89839 0.49874 0.4024 0.0
C1219 C 0.89678 0.48952 0.35163 0.0
C1220 C 0.91679 0.49935 0.43153 0.0
C1221 C 0.88346 0.51753 0.47792 0.0
C1222 C 0.9337 0.50787 0.40793 0.0
C1223 C 0.95114 0.50785 0.43439 0.0
C1224 C 0.95207 0.49919 0.48491 0.0
C1225 C 0.9351 0.4906 0.50831 0.0
C1226 C 0.91768 0.49062 0.48181 0.0
H1227 H 0.87211 0.5273 0.48173 0.0
H1228 H 0.88152 0.50709 0.51116 0.0
H1229 H 0.89751 0.52614 0.48303 0.0
H1230 H 0.93339 0.51456 0.36897 0.0
H1231 H 0.96389 0.51457 0.41507 0.0
loop_
_geom_bond_atom_site_label_1
_geom_bond_atom_site_label_2
_geom_bond_distance
_geom_bond_site_symmetry_2
_ccdc_geom_bond_type
C0 C1 1.384 . S
C0 H13 0.947 . S
C0 C35 1.382 . S
C1 C0 1.384 . S
C1 C2 1.378 . S
C2 C1 1.378 . S
C2 C3 1.378 . S
C2 H14 0.952 . S
C3 C2 1.378 . S
C3 H15 0.950 . S
C3 C34 1.383 . S
H4 C23 0.947 . S
H5 C24 0.946 . S
H6 C26 0.953 . S
H7 C27 0.945 . S
H8 C29 0.952 . S
H9 C30 0.949 . S
H10 C32 0.950 . S
H11 C33 0.948 . S
H12 C35 0.951 . S
H13 C0 0.947 . S
H14 C2 0.952 . S
H15 C3 0.950 . S
N16 C19 1.382 . S
N16 C21 1.363 . S
N17 C19 1.371 1_556 S
N17 C20 1.372 . S
N18 C20 1.361 1_554 S
N18 C21 1.377 . S
C19 N16 1.382 . S
C19 N17 1.371 1_554 S
C19 C22 1.480 1_554 S
C20 N17 1.372 . S
C20 N18 1.361 1_556 S
C20 C28 1.457 . S
C21 N16 1.363 . S
C21 N18 1.377 . S
C21 C34 1.479 . S
C22 C19 1.480 1_556 S
C22 C23 1.383 1_556 S
C22 C27 1.385 . S
C23 H4 0.947 . S
C23 C22 1.383 1_554 S
C23 C24 1.388 . S
C24 H5 0.946 . S
C24 C23 1.388 . S
C24 C25 1.384 1_554 S
C25 C24 1.384 1_556 S
C25 C26 1.377 . S
C26 H6 0.953 . S
C26 C25 1.377 . S
C26 C27 1.369 . S
C27 H7 0.945 . S
C27 C22 1.385 . S
C27 C26 1.369 . S
C28 C20 1.457 . S
C28 C29 1.372 . S
C28 C33 1.364 . S
C29 H8 0.952 . S
C29 C28 1.372 . S
C29 C30 1.389 . S
C30 H9 0.949 . S
C30 C29 1.389 . S
C30 C31 1.387 . S
C31 C30 1.387 . S
C31 C32 1.372 . S
C32 H10 0.950 . S
C32 C31 1.372 . S
C32 C33 1.379 . S
C33 H11 0.948 . S
C33 C28 1.364 . S
C33 C32 1.379 . S
C34 C3 1.383 . S
C34 C21 1.479 . S
C34 C35 1.398 . S
C35 C0 1.382 . S
C35 H12 0.951 . S
C35 C34 1.398 . S
C36 C37 1.384 . S
C36 H49 0.947 . S
C36 C71 1.382 . S
C37 C36 1.384 . S
C37 C38 1.378 . S
C38 C37 1.378 . S
C38 C39 1.378 . S
C38 H50 0.952 . S
C39 C38 1.378 . S
C39 H51 0.950 . S
C39 C70 1.383 . S
H40 C59 0.947 . S
H41 C60 0.946 . S
H42 C62 0.953 . S
H43 C63 0.945 . S
H44 C65 0.952 . S
H45 C66 0.949 . S
H46 C68 0.950 . S
H47 C69 0.948 . S
H48 C71 0.951 . S
H49 C36 0.947 . S
H50 C38 0.952 . S
H51 C39 0.950 . S
N52 C55 1.382 1_554 S
N52 C57 1.363 . S
N53 C55 1.371 . S
N53 C56 1.372 . S
N54 C56 1.361 1_554 S
N54 C57 1.377 . S
C55 N52 1.382 1_556 S
C55 N53 1.371 . S
C55 C58 1.480 . S
C56 N53 1.372 . S
C56 N54 1.361 1_556 S
C56 C64 1.457 . S
C57 N52 1.363 . S
C57 N54 1.377 . S
C57 C70 1.479 . S
C58 C55 1.480 . S
C58 C59 1.383 1_556 S
C58 C63 1.385 . S
C59 H40 0.947 . S
C59 C58 1.383 1_554 S
C59 C60 1.388 . S
C60 H41 0.946 . S
C60 C59 1.388 . S
C60 C61 1.384 1_554 S
C61 C60 1.384 1_556 S
C61 C62 1.377 . S
C62 H42 0.953 . S
C62 C61 1.377 . S
C62 C63 1.369 . S
C63 H43 0.945 . S
C63 C58 1.385 . S
C63 C62 1.369 . S
C64 C56 1.457 . S
C64 C65 1.372 . S
C64 C69 1.364 . S
C65 H44 0.952 . S
C65 C64 1.372 . S
C65 C66 1.389 . S
C66 H45 0.949 . S
C66 C65 1.389 . S
C66 C67 1.387 . S
C67 C66 1.387 . S
C67 C68 1.372 . S
C68 H46 0.950 . S
C68 C67 1.372 . S
C68 C69 1.379 . S
C69 H47 0.948 . S
C69 C64 1.364 . S
C69 C68 1.379 . S
C70 C39 1.383 . S
C70 C57 1.479 . S
C70 C71 1.398 . S
C71 C36 1.382 . S
C71 H48 0.951 . S
C71 C70 1.398 . S
C72 C73 1.384 1_565 S
C72 H85 0.947 . S
C72 C107 1.382 1_565 S
C73 C72 1.384 1_545 S
C73 C74 1.378 . S
C74 C73 1.378 . S
C74 C75 1.378 . S
C74 H86 0.952 . S
C75 C74 1.378 . S
C75 H87 0.950 . S
C75 C106 1.383 . S
H76 C95 0.947 . S
H77 C96 0.954 . S
H78 C98 0.953 . S
H79 C99 0.945 . S
H80 C101 0.947 1_565 S
H81 C102 0.957 . S
H82 C104 0.950 . S
H83 C105 0.948 1_554 S
H84 C107 0.951 1_565 S
H85 C72 0.947 . S
H86 C74 0.952 . S
H87 C75 0.950 . S
N88 C91 1.382 . S
N88 C93 1.363 . S
N89 C91 1.371 1_556 S
N89 C92 1.372 . S
N90 C92 1.361 1_554 S
N90 C93 1.377 . S
C91 N88 1.382 . S
C91 N89 1.371 1_554 S
C91 C94 1.480 . S
C92 N89 1.372 . S
C92 N90 1.361 1_556 S
C92 C100 1.457 . S
C93 N88 1.363 . S
C93 N90 1.377 . S
C93 C106 1.479 . S
C94 C91 1.480 . S
C94 C95 1.383 . S
C94 C99 1.385 1_554 S
C95 H76 0.947 . S
C95 C94 1.383 . S
C95 C96 1.383 1_545 S
C96 H77 0.954 . S
C96 C95 1.383 1_565 S
C96 C97 1.382 1_564 S
C97 C96 1.382 1_546 S
C97 C98 1.377 . S
C98 H78 0.953 . S
C98 C97 1.377 . S
C98 C99 1.369 . S
C99 H79 0.945 . S
C99 C94 1.385 1_556 S
C99 C98 1.369 . S
C100 C92 1.457 . S
C100 C101 1.376 . S
C100 C105 1.364 . S
C101 H80 0.947 1_545 S
C101 C100 1.376 . S
C101 C102 1.392 1_545 S
C102 H81 0.957 . S
C102 C101 1.392 1_565 S
C102 C103 1.378 1_565 S
C103 C102 1.378 1_545 S
C103 C104 1.372 . S
C104 H82 0.950 . S
C104 C103 1.372 . S
C104 C105 1.379 . S
C105 H83 0.948 1_556 S
C105 C100 1.364 . S
C105 C104 1.379 . S
C106 C75 1.383 . S
C106 C93 1.479 . S
C106 C107 1.398 . S
C107 C72 1.382 1_545 S
C107 H84 0.951 1_545 S
C107 C106 1.398 . S
C108 C109 1.384 . S
C108 H121 0.947 . S
C108 C143 1.382 . S
C109 C108 1.384 . S
C109 C110 1.378 . S
C110 C109 1.378 . S
C110 C111 1.378 . S
C110 H122 0.952 . S
C111 C110 1.378 . S
C111 H123 0.950 . S
C111 C142 1.383 . S
H112 C131 0.947 . S
H113 C132 0.946 . S
H114 C134 0.953 . S
H115 C135 0.945 . S
H116 C137 0.952 . S
H117 C138 0.949 . S
H118 C140 0.950 . S
H119 C141 0.948 . S
H120 C143 0.951 1_554 S
H121 C108 0.947 . S
H122 C110 0.952 . S
H123 C111 0.950 . S
N124 C127 1.382 . S
N124 C129 1.363 . S
N125 C127 1.371 . S
N125 C128 1.372 . S
N126 C128 1.361 . S
N126 C129 1.377 . S
C127 N124 1.382 . S
C127 N125 1.371 . S
C127 C130 1.480 . S
C128 N125 1.372 . S
C128 N126 1.361 . S
C128 C136 1.457 . S
C129 N124 1.363 . S
C129 N126 1.377 . S
C129 C142 1.479 1_554 S
C130 C127 1.480 . S
C130 C131 1.383 1_554 S
C130 C135 1.385 . S
C131 H112 0.947 . S
C131 C130 1.383 1_556 S
C131 C132 1.388 . S
C132 H113 0.946 . S
C132 C131 1.388 . S
C132 C133 1.384 1_556 S
C133 C132 1.384 1_554 S
C133 C134 1.377 . S
C134 H114 0.953 . S
C134 C133 1.377 . S
C134 C135 1.369 . S
C135 H115 0.945 . S
C135 C130 1.385 . S
C135 C134 1.369 . S
C136 C128 1.457 . S
C136 C137 1.372 . S
C136 C141 1.364 . S
C137 H116 0.952 . S
C137 C136 1.372 . S
C137 C138 1.389 . S
C138 H117 0.949 . S
C138 C137 1.389 . S
C138 C139 1.387 . S
C139 C138 1.387 . S
C139 C140 1.372 . S
C140 H118 0.950 . S
C140 C139 1.372 . S
C140 C141 1.379 . S
C141 H119 0.948 . S
C141 C136 1.364 . S
C141 C140 1.379 . S
C142 C111 1.383 . S
C142 C129 1.479 1_556 S
C142 C143 1.398 . S
C143 C108 1.382 . S
C143 H120 0.951 1_556 S
C143 C142 1.398 . S
C144 C145 1.384 . S
C144 H157 0.947 . S
C144 C179 1.382 . S
C145 C144 1.384 . S
C145 C146 1.378 . S
C146 C145 1.378 . S
C146 C147 1.378 . S
C146 H158 0.952 . S
C147 C146 1.378 . S
C147 H159 0.950 . S
C147 C178 1.383 1_556 S
H148 C167 0.947 . S
H149 C168 0.946 . S
H150 C170 0.953 . S
H151 C171 0.945 . S
H152 C173 0.952 . S
H153 C174 0.949 . S
H154 C176 0.950 . S
H155 C177 0.948 . S
H156 C179 0.951 1_554 S
H157 C144 0.947 . S
H158 C146 0.952 . S
H159 C147 0.950 . S
N160 C163 1.382 . S
N160 C165 1.363 . S
N161 C163 1.371 . S
N161 C164 1.372 . S
N162 C164 1.361 . S
N162 C165 1.377 . S
C163 N160 1.382 . S
C163 N161 1.371 . S
C163 C166 1.480 . S
C164 N161 1.372 . S
C164 N162 1.361 . S
C164 C172 1.457 . S
C165 N160 1.363 . S
C165 N162 1.377 . S
C165 C178 1.479 . S
C166 C163 1.480 . S
C166 C167 1.383 . S
C166 C171 1.385 . S
C167 H148 0.947 . S
C167 C166 1.383 . S
C167 C168 1.388 . S
C168 H149 0.946 . S
C168 C167 1.388 . S
C168 C169 1.384 . S
C169 C168 1.384 . S
C169 C170 1.377 . S
C170 H150 0.953 . S
C170 C169 1.377 . S
C170 C171 1.369 . S
C171 H151 0.945 . S
C171 C166 1.385 . S
C171 C170 1.369 . S
C172 C164 1.457 . S
C172 C173 1.372 . S
C172 C177 1.364 . S
C173 H152 0.952 . S
C173 C172 1.372 . S
C173 C174 1.389 . S
C174 H153 0.949 . S
C174 C173 1.389 . S
C174 C175 1.387 . S
C175 C174 1.387 . S
C175 C176 1.372 . S
C176 H154 0.950 . S
C176 C175 1.372 . S
C176 C177 1.379 . S
C177 H155 0.948 . S
C177 C172 1.364 . S
C177 C176 1.379 . S
C178 C147 1.383 1_554 S
C178 C165 1.479 . S
C178 C179 1.398 1_554 S
C179 C144 1.382 . S
C179 H156 0.951 1_556 S
C179 C178 1.398 1_556 S
C180 C181 1.384 . S
C180 H193 0.947 . S
C180 C215 1.382 1_556 S
C181 C180 1.384 . S
C181 C182 1.378 . S
C182 C181 1.378 . S
C182 C183 1.378 . S
C182 H194 0.952 . S
C183 C182 1.378 . S
C183 H195 0.950 . S
C183 C214 1.383 1_556 S
H184 C203 0.947 . S
H185 C204 0.946 . S
H186 C206 0.953 . S
H187 C207 0.945 . S
H188 C209 0.952 . S
H189 C210 0.949 . S
H190 C212 0.950 . S
H191 C213 0.948 . S
H192 C215 0.951 . S
H193 C180 0.947 . S
H194 C182 0.952 . S
H195 C183 0.950 . S
N196 C199 1.382 . S
N196 C201 1.363 . S
N197 C199 1.371 . S
N197 C200 1.372 . S
N198 C200 1.361 . S
N198 C201 1.377 . S
C199 N196 1.382 . S
C199 N197 1.371 . S
C199 C202 1.480 . S
C200 N197 1.372 . S
C200 N198 1.361 . S
C200 C208 1.457 . S
C201 N196 1.363 . S
C201 N198 1.377 . S
C201 C214 1.479 . S
C202 C199 1.480 . S
C202 C203 1.383 . S
C202 C207 1.385 . S
C203 H184 0.947 . S
C203 C202 1.383 . S
C203 C204 1.388 . S
C204 H185 0.946 . S
C204 C203 1.388 . S
C204 C205 1.384 . S
C205 C204 1.384 . S
C205 C206 1.377 . S
C206 H186 0.953 . S
C206 C205 1.377 . S
C206 C207 1.369 . S
C207 H187 0.945 . S
C207 C202 1.385 . S
C207 C206 1.369 . S
C208 C200 1.457 . S
C208 C209 1.372 . S
C208 C213 1.364 . S
C209 H188 0.952 . S
C209 C208 1.372 . S
C209 C210 1.389 . S
C210 H189 0.949 . S
C210 C209 1.389 . S
C210 C211 1.387 . S
C211 C210 1.387 . S
C211 C212 1.372 . S
C212 H190 0.950 . S
C212 C211 1.372 . S
C212 C213 1.379 . S
C213 H191 0.948 . S
C213 C208 1.364 . S
C213 C212 1.379 . S
C214 C183 1.383 1_554 S
C214 C201 1.479 . S
C214 C215 1.398 . S
C215 C180 1.382 1_554 S
C215 H192 0.951 . S
C215 C214 1.398 . S
C216 C217 1.383 . S
C216 H229 0.948 1_545 S
C216 C251 1.381 . S
C217 C216 1.383 . S
C217 C218 1.378 . S
C218 C217 1.378 . S
C218 C219 1.378 . S
C218 H230 0.952 . S
C219 C218 1.378 . S
C219 H231 0.950 . S
C219 C250 1.383 . S
H220 C239 0.947 . S
H221 C240 0.947 . S
H222 C242 0.953 . S
H223 C243 0.945 . S
H224 C245 0.951 1_565 S
H225 C246 0.953 . S
H226 C248 0.950 . S
H227 C249 0.948 . S
H228 C251 0.949 1_564 S
H229 C216 0.948 1_565 S
H230 C218 0.952 . S
H231 C219 0.950 . S
N232 C235 1.382 . S
N232 C237 1.363 . S
N233 C235 1.371 . S
N233 C236 1.372 . S
N234 C236 1.361 . S
N234 C237 1.377 . S
C235 N232 1.382 . S
C235 N233 1.371 . S
C235 C238 1.480 . S
C236 N233 1.372 . S
C236 N234 1.361 . S
C236 C244 1.457 . S
C237 N232 1.363 . S
C237 N234 1.377 . S
C237 C250 1.479 1_554 S
C238 C235 1.480 . S
C238 C239 1.383 . S
C238 C243 1.385 . S
C239 H220 0.947 . S
C239 C238 1.383 . S
C239 C240 1.388 1_545 S
C240 H221 0.947 . S
C240 C239 1.388 1_565 S
C240 C241 1.382 1_565 S
C241 C240 1.382 1_545 S
C241 C242 1.377 . S
C242 H222 0.953 . S
C242 C241 1.377 . S
C242 C243 1.369 . S
C243 H223 0.945 . S
C243 C238 1.385 . S
C243 C242 1.369 . S
C244 C236 1.457 . S
C244 C245 1.378 . S
C244 C249 1.364 . S
C245 H224 0.951 1_545 S
C245 C244 1.378 . S
C245 C246 1.381 1_545 S
C246 H225 0.953 . S
C246 C245 1.381 1_565 S
C246 C247 1.387 1_565 S
C247 C246 1.387 1_545 S
C247 C248 1.372 . S
C248 H226 0.950 . S
C248 C247 1.372 . S
C248 C249 1.379 . S
C249 H227 0.948 . S
C249 C244 1.364 . S
C249 C248 1.379 . S
C250 C219 1.383 . S
C250 C237 1.479 1_556 S
C250 C251 1.400 . S
C251 C216 1.381 . S
C251 H228 0.949 1_546 S
C251 C250 1.400 . S
C252 C253 1.384 . S
C252 H265 0.947 . S
C252 C287 1.382 . S
C253 C252 1.384 . S
C253 C254 1.378 . S
C254 C253 1.378 . S
C254 C255 1.378 . S
C254 H266 0.952 . S
C255 C254 1.378 . S
C255 H267 0.950 . S
C255 C286 1.383 . S
H256 C275 0.947 . S
H257 C276 0.946 . S
H258 C278 0.953 . S
H259 C279 0.945 . S
H260 C281 0.952 . S
H261 C282 0.949 . S
H262 C284 0.950 . S
H263 C285 0.948 . S
H264 C287 0.951 . S
H265 C252 0.947 . S
H266 C254 0.952 . S
H267 C255 0.950 . S
N268 C271 1.382 . S
N268 C273 1.363 . S
N269 C271 1.371 . S
N269 C272 1.372 . S
N270 C272 1.361 . S
N270 C273 1.377 . S
C271 N268 1.382 . S
C271 N269 1.371 . S
C271 C274 1.480 . S
C272 N269 1.372 . S
C272 N270 1.361 . S
C272 C280 1.457 1_554 S
C273 N268 1.363 . S
C273 N270 1.377 . S
C273 C286 1.479 . S
C274 C271 1.480 . S
C274 C275 1.383 . S
C274 C279 1.385 . S
C275 H256 0.947 . S
C275 C274 1.383 . S
C275 C276 1.388 . S
C276 H257 0.946 . S
C276 C275 1.388 . S
C276 C277 1.384 . S
C277 C276 1.384 . S
C277 C278 1.377 . S
C278 H258 0.953 . S
C278 C277 1.377 . S
C278 C279 1.369 . S
C279 H259 0.945 . S
C279 C274 1.385 . S
C279 C278 1.369 . S
C280 C272 1.457 1_556 S
C280 C281 1.372 . S
C280 C285 1.364 . S
C281 H260 0.952 . S
C281 C280 1.372 . S
C281 C282 1.389 . S
C282 H261 0.949 . S
C282 C281 1.389 . S
C282 C283 1.387 . S
C283 C282 1.387 . S
C283 C284 1.372 . S
C284 H262 0.950 . S
C284 C283 1.372 . S
C284 C285 1.379 . S
C285 H263 0.948 . S
C285 C280 1.364 . S
C285 C284 1.379 . S
C286 C255 1.383 . S
C286 C273 1.479 . S
C286 C287 1.398 . S
C287 C252 1.382 . S
C287 H264 0.951 . S
C287 C286 1.398 . S
Dy288 O292 2.398 . S
Dy288 O293 2.491 1_455 S
Dy288 O294 2.403 . S
Dy288 O295 2.664 1_565 S
Dy288 O299 2.326 . S
Dy288 O303 2.310 1_455 S
Dy288 O304 2.351 1_565 S
C289 O300 1.185 1_455 S
C289 O301 1.355 . S
C290 O292 1.185 . S
C290 O293 1.355 1_455 S
Dy291 O295 2.286 1_655 S
Dy291 O298 2.357 1_545 S
Dy291 O300 2.405 . S
Dy291 O301 2.474 1_655 S
Dy291 O302 2.427 . S
Dy291 O303 2.672 1_545 S
Dy291 O305 2.320 1_655 S
O292 Dy288 2.398 . S
O292 C290 1.185 . S
O293 Dy288 2.491 1_655 S
O293 C290 1.355 1_655 S
O294 Dy288 2.403 . S
O294 C296 1.254 . S
O295 Dy288 2.664 1_545 S
O295 Dy291 2.286 1_455 S
O295 C296 1.268 1_545 S
C296 O294 1.254 . S
C296 O295 1.268 1_565 S
C297 O302 1.254 . S
C297 O303 1.268 1_545 S
O298 Dy291 2.357 1_565 S
O298 C306 1.249 . S
O299 Dy288 2.326 . S
O299 C306 1.267 1_455 S
O300 C289 1.185 1_655 S
O300 Dy291 2.405 . S
O301 C289 1.355 . S
O301 Dy291 2.474 1_455 S
O302 Dy291 2.427 . S
O302 C297 1.254 . S
O303 Dy288 2.310 1_655 S
O303 Dy291 2.672 1_565 S
O303 C297 1.268 1_565 S
O304 Dy288 2.351 1_545 S
O304 C307 1.249 . S
O305 Dy291 2.320 1_455 S
O305 C307 1.267 . S
C306 O298 1.249 . S
C306 O299 1.267 1_655 S
C307 O304 1.249 . S
C307 O305 1.267 . S
Dy308 O312 2.398 . S
Dy308 O313 2.491 . S
Dy308 O314 2.403 . S
Dy308 O315 2.664 . S
Dy308 O319 2.326 1_565 S
Dy308 O323 2.310 1_565 S
Dy308 O324 2.351 . S
C309 O320 1.185 . S
C309 O321 1.355 . S
C310 O312 1.185 . S
C310 O313 1.355 . S
Dy311 O315 2.310 1_545 S
Dy311 O318 2.351 . S
Dy311 O320 2.398 . S
Dy311 O321 2.491 . S
Dy311 O322 2.403 . S
Dy311 O323 2.664 . S
Dy311 O325 2.326 1_545 S
O312 Dy308 2.398 . S
O312 C310 1.185 . S
O313 Dy308 2.491 . S
O313 C310 1.355 . S
O314 Dy308 2.403 . S
O314 C316 1.254 . S
O315 Dy308 2.664 . S
O315 Dy311 2.310 1_565 S
O315 C316 1.268 . S
C316 O314 1.254 . S
C316 O315 1.268 . S
C317 O322 1.254 . S
C317 O323 1.268 . S
O318 Dy311 2.351 . S
O318 C326 1.249 . S
O319 Dy308 2.326 1_545 S
O319 C326 1.267 . S
O320 C309 1.185 . S
O320 Dy311 2.398 . S
O321 C309 1.355 . S
O321 Dy311 2.491 . S
O322 Dy311 2.403 . S
O322 C317 1.254 . S
O323 Dy308 2.310 1_545 S
O323 Dy311 2.664 . S
O323 C317 1.268 . S
O324 Dy308 2.351 . S
O324 C327 1.249 . S
O325 Dy311 2.326 1_565 S
O325 C327 1.267 . S
C326 O318 1.249 . S
C326 O319 1.267 . S
C327 O324 1.249 . S
C327 O325 1.267 . S
Dy328 O332 2.398 . S
Dy328 O333 2.491 . S
Dy328 O334 2.403 . S
Dy328 O335 2.664 . S
Dy328 O339 2.326 . S
Dy328 O343 2.310 . S
Dy328 O344 2.351 . S
C329 O340 1.185 . S
C329 O341 1.355 . S
C330 O332 1.185 . S
C330 O333 1.355 . S
Dy331 O335 2.310 . S
Dy331 O338 2.351 . S
Dy331 O340 2.398 . S
Dy331 O341 2.491 . S
Dy331 O342 2.403 . S
Dy331 O343 2.664 . S
Dy331 O345 2.326 . S
O332 Dy328 2.398 . S
O332 C330 1.185 . S
O333 Dy328 2.491 . S
O333 C330 1.355 . S
O334 Dy328 2.403 . S
O334 C336 1.254 . S
O335 Dy328 2.664 . S
O335 Dy331 2.310 . S
O335 C336 1.268 . S
C336 O334 1.254 . S
C336 O335 1.268 . S
C337 O342 1.254 . S
C337 O343 1.268 . S
O338 Dy331 2.351 . S
O338 C346 1.249 . S
O339 Dy328 2.326 . S
O339 C346 1.267 . S
O340 C329 1.185 . S
O340 Dy331 2.398 . S
O341 C329 1.355 . S
O341 Dy331 2.491 . S
O342 Dy331 2.403 . S
O342 C337 1.254 . S
O343 Dy328 2.310 . S
O343 Dy331 2.664 . S
O343 C337 1.268 . S
O344 Dy328 2.351 . S
O344 C347 1.249 . S
O345 Dy331 2.326 . S
O345 C347 1.267 . S
C346 O338 1.249 . S
C346 O339 1.267 . S
C347 O344 1.249 . S
C347 O345 1.267 . S
Dy348 O352 2.398 . S
Dy348 O353 2.491 . S
Dy348 O354 2.403 1_655 S
Dy348 O355 2.664 1_655 S
Dy348 O359 2.326 . S
Dy348 O363 2.310 . S
Dy348 O364 2.351 1_655 S
C349 O360 1.185 . S
C349 O361 1.355 . S
C350 O352 1.185 . S
C350 O353 1.355 . S
Dy351 O355 2.310 . S
Dy351 O358 2.351 1_455 S
Dy351 O360 2.398 . S
Dy351 O361 2.491 . S
Dy351 O362 2.403 . S
Dy351 O363 2.664 1_455 S
Dy351 O365 2.326 . S
O352 Dy348 2.398 . S
O352 C350 1.185 . S
O353 Dy348 2.491 . S
O353 C350 1.355 . S
O354 Dy348 2.403 1_455 S
O354 C356 1.254 . S
O355 Dy348 2.664 1_455 S
O355 Dy351 2.310 . S
O355 C356 1.268 . S
C356 O354 1.254 . S
C356 O355 1.268 . S
C357 O362 1.254 1_655 S
C357 O363 1.268 . S
O358 Dy351 2.351 1_655 S
O358 C366 1.249 . S
O359 Dy348 2.326 . S
O359 C366 1.267 . S
O360 C349 1.185 . S
O360 Dy351 2.398 . S
O361 C349 1.355 . S
O361 Dy351 2.491 . S
O362 Dy351 2.403 . S
O362 C357 1.254 1_455 S
O363 Dy348 2.310 . S
O363 Dy351 2.664 1_655 S
O363 C357 1.268 . S
O364 Dy348 2.351 1_455 S
O364 C367 1.249 . S
O365 Dy351 2.326 . S
O365 C367 1.267 . S
C366 O358 1.249 . S
C366 O359 1.267 . S
C367 O364 1.249 . S
C367 O365 1.267 . S
H368 C376 0.929 . S
H369 C378 0.930 . S
H370 C380 0.930 . S
H371 C383 0.929 . S
H372 C386 0.930 . S
H373 C388 0.960 . S
H374 C388 0.960 . S
H375 C388 0.960 . S
C376 H368 0.929 . S
C376 C377 1.392 . S
C376 C378 1.384 . S
C377 C376 1.392 . S
C377 C383 1.374 1_565 S
C378 H369 0.930 . S
C378 C376 1.384 . S
C378 C379 1.372 . S
C379 C378 1.372 . S
C379 C380 1.400 1_565 S
C379 C384 1.490 . S
C380 H370 0.930 . S
C380 C379 1.400 1_545 S
C380 C383 1.386 . S
H381 C397 0.930 . S
H382 C398 0.931 . S
C383 H371 0.929 . S
C383 C377 1.374 1_545 S
C383 C380 1.386 . S
C384 C379 1.490 . S
C384 C386 1.395 . S
C384 C387 1.403 1_565 S
H385 C391 0.930 . S
C386 H372 0.930 . S
C386 C384 1.395 . S
C386 C389 1.403 . S
C387 C384 1.403 1_545 S
C387 C388 1.524 . S
C387 C391 1.400 . S
C388 H373 0.960 . S
C388 H374 0.960 . S
C388 H375 0.960 . S
C388 C387 1.524 . S
C389 C386 1.403 . S
C389 C390 1.392 . S
C389 C393 1.495 . S
C390 C389 1.392 . S
C390 C391 1.385 1_565 S
C390 C392 1.478 . S
C391 H385 0.930 . S
C391 C387 1.400 . S
C391 C390 1.385 1_545 S
C392 C390 1.478 . S
C392 C394 1.381 . S
C392 C398 1.383 1_565 S
C393 C389 1.495 . S
C393 H399 0.959 . S
C393 H400 0.961 . S
C393 H401 0.960 . S
C394 C392 1.381 . S
C394 C395 1.394 . S
C394 H402 0.930 . S
C395 C394 1.394 . S
C395 C396 1.383 . S
C395 H403 0.929 . S
C396 C395 1.383 . S
C396 C397 1.377 1_565 S
C397 H381 0.930 . S
C397 C396 1.377 1_545 S
C397 C398 1.379 . S
C398 H382 0.931 . S
C398 C392 1.383 1_545 S
C398 C397 1.379 . S
H399 C393 0.959 . S
H400 C393 0.961 . S
H401 C393 0.960 . S
H402 C394 0.930 . S
H403 C395 0.929 . S
H404 C412 0.929 . S
H405 C414 0.930 . S
H406 C416 0.930 . S
H407 C419 0.929 . S
H408 C422 0.930 . S
H409 C424 0.960 . S
H410 C424 0.960 . S
H411 C424 0.960 . S
C412 H404 0.929 . S
C412 C413 1.377 . S
C412 C414 1.384 . S
C413 C412 1.377 . S
C413 C419 1.390 . S
C414 H405 0.930 . S
C414 C412 1.384 . S
C414 C415 1.372 . S
C415 C414 1.372 . S
C415 C416 1.400 . S
C415 C420 1.490 . S
C416 H406 0.930 . S
C416 C415 1.400 . S
C416 C419 1.386 . S
H417 C433 0.930 . S
H418 C434 0.931 . S
C419 H407 0.929 . S
C419 C413 1.390 . S
C419 C416 1.386 . S
C420 C415 1.490 . S
C420 C422 1.395 . S
C420 C423 1.403 . S
H421 C427 0.930 . S
C422 H408 0.930 . S
C422 C420 1.395 . S
C422 C425 1.403 . S
C423 C420 1.403 . S
C423 C424 1.524 . S
C423 C427 1.400 . S
C424 H409 0.960 . S
C424 H410 0.960 . S
C424 H411 0.960 . S
C424 C423 1.524 . S
C425 C422 1.403 . S
C425 C426 1.392 . S
C425 C429 1.495 . S
C426 C425 1.392 . S
C426 C427 1.385 . S
C426 C428 1.478 . S
C427 H421 0.930 . S
C427 C423 1.400 . S
C427 C426 1.385 . S
C428 C426 1.478 . S
C428 C430 1.381 . S
C428 C434 1.383 . S
C429 C425 1.495 . S
C429 H435 0.959 . S
C429 H436 0.961 . S
C429 H437 0.960 . S
C430 C428 1.381 . S
C430 C431 1.394 . S
C430 H438 0.930 . S
C431 C430 1.394 . S
C431 C432 1.383 . S
C431 H439 0.929 . S
C432 C431 1.383 . S
C432 C433 1.377 . S
C433 H417 0.930 . S
C433 C432 1.377 . S
C433 C434 1.379 . S
C434 H418 0.931 . S
C434 C428 1.383 . S
C434 C433 1.379 . S
H435 C429 0.959 . S
H436 C429 0.961 . S
H437 C429 0.960 . S
H438 C430 0.930 . S
H439 C431 0.929 . S
H440 C448 0.929 . S
H441 C450 0.930 . S
H442 C452 0.930 . S
H443 C455 0.929 . S
H444 C458 0.930 . S
H445 C460 0.960 . S
H446 C460 0.960 . S
H447 C460 0.960 . S
C448 H440 0.929 . S
C448 C449 1.377 . S
C448 C450 1.384 . S
C449 C448 1.377 . S
C449 C455 1.390 . S
C450 H441 0.930 . S
C450 C448 1.384 . S
C450 C451 1.372 . S
C451 C450 1.372 . S
C451 C452 1.400 . S
C451 C456 1.490 . S
C452 H442 0.930 . S
C452 C451 1.400 . S
C452 C455 1.386 . S
H453 C469 0.930 . S
H454 C470 0.931 . S
C455 H443 0.929 . S
C455 C449 1.390 . S
C455 C452 1.386 . S
C456 C451 1.490 . S
C456 C458 1.395 . S
C456 C459 1.403 . S
H457 C463 0.930 . S
C458 H444 0.930 . S
C458 C456 1.395 . S
C458 C461 1.403 . S
C459 C456 1.403 . S
C459 C460 1.524 . S
C459 C463 1.400 . S
C460 H445 0.960 . S
C460 H446 0.960 . S
C460 H447 0.960 . S
C460 C459 1.524 . S
C461 C458 1.403 . S
C461 C462 1.392 . S
C461 C465 1.495 . S
C462 C461 1.392 . S
C462 C463 1.385 . S
C462 C464 1.478 . S
C463 H457 0.930 . S
C463 C459 1.400 . S
C463 C462 1.385 . S
C464 C462 1.478 . S
C464 C466 1.381 . S
C464 C470 1.383 . S
C465 C461 1.495 . S
C465 H471 0.959 . S
C465 H472 0.961 . S
C465 H473 0.960 . S
C466 C464 1.381 . S
C466 C467 1.394 . S
C466 H474 0.930 . S
C467 C466 1.394 . S
C467 C468 1.383 . S
C467 H475 0.929 . S
C468 C467 1.383 . S
C468 C469 1.377 . S
C469 H453 0.930 . S
C469 C468 1.377 . S
C469 C470 1.379 . S
C470 H454 0.931 . S
C470 C464 1.383 . S
C470 C469 1.379 . S
H471 C465 0.959 . S
H472 C465 0.961 . S
H473 C465 0.960 . S
H474 C466 0.930 . S
H475 C467 0.929 . S
H476 C484 0.929 . S
H477 C486 0.930 . S
H478 C488 0.930 . S
H479 C491 0.929 . S
H480 C494 0.930 . S
H481 C496 0.960 . S
H482 C496 0.960 . S
H483 C496 0.960 . S
C484 H476 0.929 . S
C484 C485 1.377 . S
C484 C486 1.384 . S
C485 C484 1.377 . S
C485 C491 1.390 . S
C486 H477 0.930 . S
C486 C484 1.384 . S
C486 C487 1.372 . S
C487 C486 1.372 . S
C487 C488 1.400 . S
C487 C492 1.490 . S
C488 H478 0.930 . S
C488 C487 1.400 . S
C488 C491 1.386 . S
H489 C505 0.930 . S
H490 C506 0.931 . S
C491 H479 0.929 . S
C491 C485 1.390 . S
C491 C488 1.386 . S
C492 C487 1.490 . S
C492 C494 1.395 . S
C492 C495 1.403 . S
H493 C499 0.930 . S
C494 H480 0.930 . S
C494 C492 1.395 . S
C494 C497 1.403 . S
C495 C492 1.403 . S
C495 C496 1.524 . S
C495 C499 1.400 . S
C496 H481 0.960 . S
C496 H482 0.960 . S
C496 H483 0.960 . S
C496 C495 1.524 . S
C497 C494 1.403 . S
C497 C498 1.392 . S
C497 C501 1.495 . S
C498 C497 1.392 . S
C498 C499 1.385 . S
C498 C500 1.478 . S
C499 H493 0.930 . S
C499 C495 1.400 . S
C499 C498 1.385 . S
C500 C498 1.478 . S
C500 C502 1.381 . S
C500 C506 1.383 . S
C501 C497 1.495 . S
C501 H507 0.959 . S
C501 H508 0.961 . S
C501 H509 0.960 . S
C502 C500 1.381 . S
C502 C503 1.394 . S
C502 H510 0.930 . S
C503 C502 1.394 . S
C503 C504 1.383 . S
C503 H511 0.929 . S
C504 C503 1.383 . S
C504 C505 1.377 . S
C505 H489 0.930 . S
C505 C504 1.377 . S
C505 C506 1.379 . S
C506 H490 0.931 . S
C506 C500 1.383 . S
C506 C505 1.379 . S
H507 C501 0.959 . S
H508 C501 0.961 . S
H509 C501 0.960 . S
H510 C502 0.930 . S
H511 C503 0.929 . S
H512 C520 0.929 . S
H513 C522 0.930 . S
H514 C524 0.930 . S
H515 C527 0.929 . S
H516 C530 0.930 . S
H517 C532 0.960 . S
H518 C532 0.960 . S
H519 C532 0.960 . S
C520 H512 0.929 . S
C520 C521 1.387 . S
C520 C522 1.384 . S
C521 C520 1.387 . S
C521 C527 1.380 1_545 S
C522 H513 0.930 . S
C522 C520 1.384 . S
C522 C523 1.372 . S
C523 C522 1.372 . S
C523 C524 1.400 1_545 S
C523 C528 1.490 . S
C524 H514 0.930 . S
C524 C523 1.400 1_565 S
C524 C527 1.386 . S
H525 C541 0.930 . S
H526 C542 0.931 . S
C527 H515 0.929 . S
C527 C521 1.380 1_565 S
C527 C524 1.386 . S
C528 C523 1.490 . S
C528 C530 1.395 1_545 S
C528 C531 1.403 . S
H529 C535 0.930 . S
C530 H516 0.930 . S
C530 C528 1.395 1_565 S
C530 C533 1.403 . S
C531 C528 1.403 . S
C531 C532 1.524 . S
C531 C535 1.400 . S
C532 H517 0.960 . S
C532 H518 0.960 . S
C532 H519 0.960 . S
C532 C531 1.524 . S
C533 C530 1.403 . S
C533 C534 1.378 1_565 S
C533 C537 1.495 . S
C534 C533 1.378 1_545 S
C534 C535 1.402 . S
C534 C536 1.477 . S
C535 H529 0.930 . S
C535 C531 1.400 . S
C535 C534 1.402 . S
C536 C534 1.477 . S
C536 C538 1.390 . S
C536 C542 1.374 1_545 S
C537 C533 1.495 . S
C537 H543 0.959 . S
C537 H544 0.961 . S
C537 H545 0.960 . S
C538 C536 1.390 . S
C538 C539 1.394 . S
C538 H546 0.930 . S
C539 C538 1.394 . S
C539 C540 1.383 . S
C539 H547 0.929 . S
C540 C539 1.383 . S
C540 C541 1.377 1_545 S
C541 H525 0.930 . S
C541 C540 1.377 1_565 S
C541 C542 1.379 . S
C542 H526 0.931 . S
C542 C536 1.374 1_565 S
C542 C541 1.379 . S
H543 C537 0.959 . S
H544 C537 0.961 . S
H545 C537 0.960 . S
H546 C538 0.930 . S
H547 C539 0.929 . S
H548 C556 0.929 . S
H549 C558 0.930 . S
H550 C560 0.930 . S
H551 C563 0.929 . S
H552 C566 0.930 . S
H553 C568 0.960 . S
H554 C568 0.960 . S
H555 C568 0.960 . S
C556 H548 0.929 . S
C556 C557 1.377 . S
C556 C558 1.384 . S
C557 C556 1.377 . S
C557 C563 1.390 . S
C558 H549 0.930 . S
C558 C556 1.384 . S
C558 C559 1.372 . S
C559 C558 1.372 . S
C559 C560 1.400 . S
C559 C564 1.490 . S
C560 H550 0.930 . S
C560 C559 1.400 . S
C560 C563 1.386 . S
H561 C577 0.930 . S
H562 C578 0.931 . S
C563 H551 0.929 . S
C563 C557 1.390 . S
C563 C560 1.386 . S
C564 C559 1.490 . S
C564 C566 1.395 . S
C564 C567 1.403 . S
H565 C571 0.930 . S
C566 H552 0.930 . S
C566 C564 1.395 . S
C566 C569 1.403 . S
C567 C564 1.403 . S
C567 C568 1.524 . S
C567 C571 1.400 . S
C568 H553 0.960 . S
C568 H554 0.960 . S
C568 H555 0.960 . S
C568 C567 1.524 . S
C569 C566 1.403 . S
C569 C570 1.392 . S
C569 C573 1.495 . S
C570 C569 1.392 . S
C570 C571 1.385 . S
C570 C572 1.478 . S
C571 H565 0.930 . S
C571 C567 1.400 . S
C571 C570 1.385 . S
C572 C570 1.478 . S
C572 C574 1.381 . S
C572 C578 1.383 . S
C573 C569 1.495 . S
C573 H579 0.959 . S
C573 H580 0.961 . S
C573 H581 0.960 . S
C574 C572 1.381 . S
C574 C575 1.394 . S
C574 H582 0.930 . S
C575 C574 1.394 . S
C575 C576 1.383 . S
C575 H583 0.929 . S
C576 C575 1.383 . S
C576 C577 1.377 . S
C577 H561 0.930 . S
C577 C576 1.377 . S
C577 C578 1.379 . S
C578 H562 0.931 . S
C578 C572 1.383 . S
C578 C577 1.379 . S
H579 C573 0.959 . S
H580 C573 0.961 . S
H581 C573 0.960 . S
H582 C574 0.930 . S
H583 C575 0.929 . S
H584 C592 0.929 . S
H585 C594 0.930 . S
H586 C596 0.930 . S
H587 C599 0.929 . S
H588 C602 0.930 . S
H589 C604 0.960 . S
H590 C604 0.960 . S
H591 C604 0.960 . S
C592 H584 0.929 . S
C592 C593 1.377 . S
C592 C594 1.384 . S
C593 C592 1.377 . S
C593 C599 1.390 . S
C594 H585 0.930 . S
C594 C592 1.384 . S
C594 C595 1.372 . S
C595 C594 1.372 . S
C595 C596 1.400 . S
C595 C600 1.490 . S
C596 H586 0.930 . S
C596 C595 1.400 . S
C596 C599 1.386 . S
H597 C613 0.930 . S
H598 C614 0.931 . S
C599 H587 0.929 . S
C599 C593 1.390 . S
C599 C596 1.386 . S
C600 C595 1.490 . S
C600 C602 1.395 . S
C600 C603 1.403 . S
H601 C607 0.930 . S
C602 H588 0.930 . S
C602 C600 1.395 . S
C602 C605 1.403 . S
C603 C600 1.403 . S
C603 C604 1.524 . S
C603 C607 1.400 . S
C604 H589 0.960 . S
C604 H590 0.960 . S
C604 H591 0.960 . S
C604 C603 1.524 . S
C605 C602 1.403 . S
C605 C606 1.392 . S
C605 C609 1.495 . S
C606 C605 1.392 . S
C606 C607 1.385 . S
C606 C608 1.478 . S
C607 H601 0.930 . S
C607 C603 1.400 . S
C607 C606 1.385 . S
C608 C606 1.478 . S
C608 C610 1.381 . S
C608 C614 1.383 . S
C609 C605 1.495 . S
C609 H615 0.959 . S
C609 H616 0.961 . S
C609 H617 0.960 . S
C610 C608 1.381 . S
C610 C611 1.394 . S
C610 H618 0.930 . S
C611 C610 1.394 . S
C611 C612 1.383 . S
C611 H619 0.929 . S
C612 C611 1.383 . S
C612 C613 1.377 . S
C613 H597 0.930 . S
C613 C612 1.377 . S
C613 C614 1.379 . S
C614 H598 0.931 . S
C614 C608 1.383 . S
C614 C613 1.379 . S
H615 C609 0.959 . S
H616 C609 0.961 . S
H617 C609 0.960 . S
H618 C610 0.930 . S
H619 C611 0.929 . S
H620 C628 0.929 . S
H621 C630 0.930 . S
H622 C632 0.930 . S
H623 C635 0.929 . S
H624 C638 0.930 . S
H625 C640 0.960 . S
H626 C640 0.960 . S
H627 C640 0.960 . S
C628 H620 0.929 . S
C628 C629 1.377 . S
C628 C630 1.384 . S
C629 C628 1.377 . S
C629 C635 1.390 . S
C630 H621 0.930 . S
C630 C628 1.384 . S
C630 C631 1.372 . S
C631 C630 1.372 . S
C631 C632 1.400 . S
C631 C636 1.490 . S
C632 H622 0.930 . S
C632 C631 1.400 . S
C632 C635 1.386 . S
H633 C649 0.930 . S
H634 C650 0.931 . S
C635 H623 0.929 . S
C635 C629 1.390 . S
C635 C632 1.386 . S
C636 C631 1.490 . S
C636 C638 1.395 . S
C636 C639 1.403 . S
H637 C643 0.930 . S
C638 H624 0.930 . S
C638 C636 1.395 . S
C638 C641 1.403 . S
C639 C636 1.403 . S
C639 C640 1.524 . S
C639 C643 1.400 . S
C640 H625 0.960 . S
C640 H626 0.960 . S
C640 H627 0.960 . S
C640 C639 1.524 . S
C641 C638 1.403 . S
C641 C642 1.392 . S
C641 C645 1.495 . S
C642 C641 1.392 . S
C642 C643 1.385 . S
C642 C644 1.478 . S
C643 H637 0.930 . S
C643 C639 1.400 . S
C643 C642 1.385 . S
C644 C642 1.478 . S
C644 C646 1.381 . S
C644 C650 1.383 . S
C645 C641 1.495 . S
C645 H651 0.959 . S
C645 H652 0.961 . S
C645 H653 0.960 . S
C646 C644 1.381 . S
C646 C647 1.394 . S
C646 H654 0.930 . S
C647 C646 1.394 . S
C647 C648 1.383 . S
C647 H655 0.929 1_655 S
C648 C647 1.383 . S
C648 C649 1.377 . S
C649 H633 0.930 . S
C649 C648 1.377 . S
C649 C650 1.379 . S
C650 H634 0.931 . S
C650 C644 1.383 . S
C650 C649 1.379 . S
H651 C645 0.959 . S
H652 C645 0.961 . S
H653 C645 0.960 . S
H654 C646 0.930 . S
H655 C647 0.929 1_455 S
H656 C664 0.929 . S
H657 C666 0.930 . S
H658 C668 0.930 . S
H659 C671 0.929 . S
H660 C674 0.930 . S
H661 C676 0.960 . S
H662 C676 0.960 . S
H663 C676 0.960 . S
C664 H656 0.929 . S
C664 C665 1.377 . S
C664 C666 1.384 . S
C665 C664 1.377 . S
C665 C671 1.390 . S
C666 H657 0.930 . S
C666 C664 1.384 . S
C666 C667 1.372 . S
C667 C666 1.372 . S
C667 C668 1.400 . S
C667 C672 1.490 . S
C668 H658 0.930 . S
C668 C667 1.400 . S
C668 C671 1.386 . S
H669 C685 0.930 . S
H670 C686 0.931 . S
C671 H659 0.929 . S
C671 C665 1.390 . S
C671 C668 1.386 . S
C672 C667 1.490 . S
C672 C674 1.395 . S
C672 C675 1.403 . S
H673 C679 0.930 . S
C674 H660 0.930 . S
C674 C672 1.395 . S
C674 C677 1.403 . S
C675 C672 1.403 . S
C675 C676 1.524 . S
C675 C679 1.400 . S
C676 H661 0.960 . S
C676 H662 0.960 . S
C676 H663 0.960 . S
C676 C675 1.524 . S
C677 C674 1.403 . S
C677 C678 1.392 . S
C677 C681 1.495 . S
C678 C677 1.392 . S
C678 C679 1.385 . S
C678 C680 1.478 . S
C679 H673 0.930 . S
C679 C675 1.400 . S
C679 C678 1.385 . S
C680 C678 1.478 . S
C680 C682 1.381 . S
C680 C686 1.383 . S
C681 C677 1.495 . S
C681 H687 0.959 . S
C681 H688 0.961 . S
C681 H689 0.960 . S
C682 C680 1.381 . S
C682 C683 1.394 . S
C682 H690 0.930 . S
C683 C682 1.394 . S
C683 C684 1.383 . S
C683 H691 0.929 . S
C684 C683 1.383 . S
C684 C685 1.377 . S
C685 H669 0.930 . S
C685 C684 1.377 . S
C685 C686 1.379 . S
C686 H670 0.931 . S
C686 C680 1.383 . S
C686 C685 1.379 . S
H687 C681 0.959 . S
H688 C681 0.961 . S
H689 C681 0.960 . S
H690 C682 0.930 . S
H691 C683 0.929 . S
H692 C700 0.929 . S
H693 C702 0.930 . S
H694 C704 0.930 . S
H695 C707 0.929 . S
H696 C710 0.930 . S
H697 C712 0.960 . S
H698 C712 0.960 . S
H699 C712 0.960 . S
C700 H692 0.929 . S
C700 C701 1.377 . S
C700 C702 1.384 . S
C701 C700 1.377 . S
C701 C707 1.390 1_545 S
C702 H693 0.930 . S
C702 C700 1.384 . S
C702 C703 1.345 1_545 S
C703 C702 1.345 1_565 S
C703 C704 1.422 . S
C703 C708 1.495 . S
C704 H694 0.930 . S
C704 C703 1.422 . S
C704 C707 1.386 . S
H705 C721 0.930 . S
H706 C722 0.931 . S
C707 H695 0.929 . S
C707 C701 1.390 1_565 S
C707 C704 1.386 . S
C708 C703 1.495 . S
C708 C710 1.395 1_565 S
C708 C711 1.403 . S
H709 C715 0.930 . S
C710 H696 0.930 . S
C710 C708 1.395 1_545 S
C710 C713 1.403 . S
C711 C708 1.403 . S
C711 C712 1.524 . S
C711 C715 1.400 . S
C712 H697 0.960 . S
C712 H698 0.960 . S
C712 H699 0.960 . S
C712 C711 1.524 . S
C713 C710 1.403 . S
C713 C714 1.392 1_545 S
C713 C717 1.495 . S
C714 C713 1.392 1_565 S
C714 C715 1.385 . S
C714 C716 1.478 . S
C715 H709 0.930 . S
C715 C711 1.400 . S
C715 C714 1.385 . S
C716 C714 1.478 . S
C716 C718 1.381 1_565 S
C716 C722 1.383 . S
C717 C713 1.495 . S
C717 H723 0.959 . S
C717 H724 0.961 . S
C717 H725 0.960 . S
C718 C716 1.381 1_545 S
C718 C719 1.394 . S
C718 H726 0.930 . S
C719 C718 1.394 . S
C719 C720 1.383 1_545 S
C719 H727 0.929 . S
C720 C719 1.383 1_565 S
C720 C721 1.377 . S
C721 H705 0.930 . S
C721 C720 1.377 . S
C721 C722 1.379 . S
C722 H706 0.931 . S
C722 C716 1.383 . S
C722 C721 1.379 . S
H723 C717 0.959 . S
H724 C717 0.961 . S
H725 C717 0.960 . S
H726 C718 0.930 . S
H727 C719 0.929 . S
H728 C736 0.929 . S
H729 C738 0.930 . S
H730 C740 0.930 . S
H731 C743 0.929 . S
H732 C746 0.930 . S
H733 C748 0.960 . S
H734 C748 0.960 . S
H735 C748 0.960 . S
C736 H728 0.929 . S
C736 C737 1.377 . S
C736 C738 1.384 . S
C737 C736 1.377 . S
C737 C743 1.390 . S
C738 H729 0.930 . S
C738 C736 1.384 . S
C738 C739 1.372 . S
C739 C738 1.372 . S
C739 C740 1.400 . S
C739 C744 1.490 . S
C740 H730 0.930 . S
C740 C739 1.400 . S
C740 C743 1.386 . S
H741 C757 0.930 . S
H742 C758 0.931 . S
C743 H731 0.929 . S
C743 C737 1.390 . S
C743 C740 1.386 . S
C744 C739 1.490 . S
C744 C746 1.395 . S
C744 C747 1.403 . S
H745 C751 0.930 . S
C746 H732 0.930 . S
C746 C744 1.395 . S
C746 C749 1.403 . S
C747 C744 1.403 . S
C747 C748 1.524 . S
C747 C751 1.400 . S
C748 H733 0.960 . S
C748 H734 0.960 . S
C748 H735 0.960 . S
C748 C747 1.524 . S
C749 C746 1.403 . S
C749 C750 1.392 . S
C749 C753 1.495 . S
C750 C749 1.392 . S
C750 C751 1.385 . S
C750 C752 1.478 . S
C751 H745 0.930 . S
C751 C747 1.400 . S
C751 C750 1.385 . S
C752 C750 1.478 . S
C752 C754 1.381 . S
C752 C758 1.383 . S
C753 C749 1.495 . S
C753 H759 0.959 . S
C753 H760 0.961 . S
C753 H761 0.960 . S
C754 C752 1.381 . S
C754 C755 1.394 . S
C754 H762 0.930 . S
C755 C754 1.394 . S
C755 C756 1.383 . S
C755 H763 0.929 . S
C756 C755 1.383 . S
C756 C757 1.377 . S
C757 H741 0.930 . S
C757 C756 1.377 . S
C757 C758 1.379 . S
C758 H742 0.931 . S
C758 C752 1.383 . S
C758 C757 1.379 . S
H759 C753 0.959 . S
H760 C753 0.961 . S
H761 C753 0.960 . S
H762 C754 0.930 . S
H763 C755 0.929 . S
H764 C772 0.929 . S
H765 C774 0.930 . S
H766 C776 0.930 . S
H767 C779 0.929 . S
H768 C782 0.930 . S
H769 C784 0.960 . S
H770 C784 0.960 . S
H771 C784 0.960 . S
C772 H764 0.929 . S
C772 C773 1.377 . S
C772 C774 1.384 . S
C773 C772 1.377 . S
C773 C779 1.390 . S
C774 H765 0.930 . S
C774 C772 1.384 . S
C774 C775 1.372 . S
C775 C774 1.372 . S
C775 C776 1.400 . S
C775 C780 1.490 . S
C776 H766 0.930 . S
C776 C775 1.400 . S
C776 C779 1.386 . S
H777 C793 0.930 . S
H778 C794 0.931 . S
C779 H767 0.929 . S
C779 C773 1.390 . S
C779 C776 1.386 . S
C780 C775 1.490 . S
C780 C782 1.395 . S
C780 C783 1.403 . S
H781 C787 0.930 . S
C782 H768 0.930 . S
C782 C780 1.395 . S
C782 C785 1.403 . S
C783 C780 1.403 . S
C783 C784 1.524 . S
C783 C787 1.400 . S
C784 H769 0.960 . S
C784 H770 0.960 . S
C784 H771 0.960 . S
C784 C783 1.524 . S
C785 C782 1.403 . S
C785 C786 1.392 . S
C785 C789 1.495 . S
C786 C785 1.392 . S
C786 C787 1.385 . S
C786 C788 1.478 . S
C787 H781 0.930 . S
C787 C783 1.400 . S
C787 C786 1.385 . S
C788 C786 1.478 . S
C788 C790 1.381 . S
C788 C794 1.383 . S
C789 C785 1.495 . S
C789 H795 0.959 . S
C789 H796 0.961 . S
C789 H797 0.960 . S
C790 C788 1.381 . S
C790 C791 1.394 . S
C790 H798 0.930 . S
C791 C790 1.394 . S
C791 C792 1.383 . S
C791 H799 0.929 . S
C792 C791 1.383 . S
C792 C793 1.377 . S
C793 H777 0.930 . S
C793 C792 1.377 . S
C793 C794 1.379 . S
C794 H778 0.931 . S
C794 C788 1.383 . S
C794 C793 1.379 . S
H795 C789 0.959 . S
H796 C789 0.961 . S
H797 C789 0.960 . S
H798 C790 0.930 . S
H799 C791 0.929 . S
H800 C808 0.929 . S
H801 C810 0.930 . S
H802 C812 0.930 . S
H803 C815 0.929 . S
H804 C818 0.930 . S
H805 C820 0.960 . S
H806 C820 0.960 . S
H807 C820 0.960 . S
C808 H800 0.929 . S
C808 C809 1.377 . S
C808 C810 1.384 . S
C809 C808 1.377 . S
C809 C815 1.390 . S
C810 H801 0.930 . S
C810 C808 1.384 . S
C810 C811 1.372 . S
C811 C810 1.372 . S
C811 C812 1.400 . S
C811 C816 1.490 . S
C812 H802 0.930 . S
C812 C811 1.400 . S
C812 C815 1.386 . S
H813 C829 0.930 . S
H814 C830 0.912 1_455 S
C815 H803 0.929 . S
C815 C809 1.390 . S
C815 C812 1.386 . S
C816 C811 1.490 . S
C816 C818 1.395 . S
C816 C819 1.403 . S
H817 C823 0.930 . S
C818 H804 0.930 . S
C818 C816 1.395 . S
C818 C821 1.403 . S
C819 C816 1.403 . S
C819 C820 1.524 . S
C819 C823 1.400 . S
C820 H805 0.960 . S
C820 H806 0.960 . S
C820 H807 0.960 . S
C820 C819 1.524 . S
C821 C818 1.403 . S
C821 C822 1.392 . S
C821 C825 1.495 . S
C822 C821 1.392 . S
C822 C823 1.385 . S
C822 C824 1.478 . S
C823 H817 0.930 . S
C823 C819 1.400 . S
C823 C822 1.385 . S
C824 C822 1.478 . S
C824 C826 1.381 . S
C824 C830 1.383 . S
C825 C821 1.495 . S
C825 H831 0.959 . S
C825 H832 0.961 . S
C825 H833 0.960 . S
C826 C824 1.381 . S
C826 C827 1.394 . S
C826 H834 0.930 . S
C827 C826 1.394 . S
C827 C828 1.394 . S
C827 H835 0.929 . S
C828 C827 1.394 . S
C828 C829 1.372 1_655 S
C829 H813 0.930 . S
C829 C828 1.372 1_455 S
C829 C830 1.379 1_455 S
C830 H814 0.912 1_655 S
C830 C824 1.383 . S
C830 C829 1.379 1_655 S
H831 C825 0.959 . S
H832 C825 0.961 . S
H833 C825 0.960 . S
H834 C826 0.930 . S
H835 C827 0.929 . S
H836 C844 0.929 . S
H837 C846 0.930 . S
H838 C848 0.930 . S
H839 C851 0.929 . S
H840 C854 0.930 . S
H841 C856 0.960 . S
H842 C856 0.960 . S
H843 C856 0.960 . S
C844 H836 0.929 . S
C844 C845 1.377 . S
C844 C846 1.384 . S
C845 C844 1.377 . S
C845 C851 1.390 1_565 S
C846 H837 0.930 . S
C846 C844 1.384 . S
C846 C847 1.335 1_565 S
C847 C846 1.335 1_545 S
C847 C848 1.430 . S
C847 C852 1.496 . S
C848 H838 0.930 . S
C848 C847 1.430 . S
C848 C851 1.386 . S
H849 C865 0.930 . S
H850 C866 0.931 . S
C851 H839 0.929 . S
C851 C845 1.390 1_545 S
C851 C848 1.386 . S
C852 C847 1.496 . S
C852 C854 1.395 1_545 S
C852 C855 1.403 . S
H853 C859 0.930 . S
C854 H840 0.930 . S
C854 C852 1.395 1_565 S
C854 C857 1.403 . S
C855 C852 1.403 . S
C855 C856 1.524 . S
C855 C859 1.400 . S
C856 H841 0.960 . S
C856 H842 0.960 . S
C856 H843 0.960 . S
C856 C855 1.524 . S
C857 C854 1.403 . S
C857 C858 1.392 1_565 S
C857 C861 1.495 . S
C858 C857 1.392 1_545 S
C858 C859 1.385 . S
C858 C860 1.478 . S
C859 H853 0.930 . S
C859 C855 1.400 . S
C859 C858 1.385 . S
C860 C858 1.478 . S
C860 C862 1.381 1_545 S
C860 C866 1.383 . S
C861 C857 1.495 . S
C861 H867 0.959 . S
C861 H868 0.961 . S
C861 H869 0.960 . S
C862 C860 1.381 1_565 S
C862 C863 1.394 . S
C862 H870 0.930 . S
C863 C862 1.394 . S
C863 C864 1.383 1_565 S
C863 H871 0.929 . S
C864 C863 1.383 1_545 S
C864 C865 1.377 . S
C865 H849 0.930 . S
C865 C864 1.377 . S
C865 C866 1.379 . S
C866 H850 0.931 . S
C866 C860 1.383 . S
C866 C865 1.379 . S
H867 C861 0.959 . S
H868 C861 0.961 . S
H869 C861 0.960 . S
H870 C862 0.930 . S
H871 C863 0.929 . S
H872 C880 0.929 . S
H873 C882 0.930 . S
H874 C884 0.930 . S
H875 C887 0.929 . S
H876 C890 0.930 . S
H877 C892 0.960 . S
H878 C892 0.960 . S
H879 C892 0.960 . S
C880 H872 0.929 . S
C880 C881 1.377 . S
C880 C882 1.384 . S
C881 C880 1.377 . S
C881 C887 1.390 . S
C882 H873 0.930 . S
C882 C880 1.384 . S
C882 C883 1.372 . S
C883 C882 1.372 . S
C883 C884 1.400 . S
C883 C888 1.490 . S
C884 H874 0.930 . S
C884 C883 1.400 . S
C884 C887 1.386 . S
H885 C901 0.930 . S
H886 C902 0.931 . S
C887 H875 0.929 . S
C887 C881 1.390 . S
C887 C884 1.386 . S
C888 C883 1.490 . S
C888 C890 1.395 . S
C888 C891 1.403 . S
H889 C895 0.930 . S
C890 H876 0.930 . S
C890 C888 1.395 . S
C890 C893 1.403 . S
C891 C888 1.403 . S
C891 C892 1.524 . S
C891 C895 1.400 . S
C892 H877 0.960 . S
C892 H878 0.960 . S
C892 H879 0.960 . S
C892 C891 1.524 . S
C893 C890 1.403 . S
C893 C894 1.392 . S
C893 C897 1.495 . S
C894 C893 1.392 . S
C894 C895 1.385 . S
C894 C896 1.478 . S
C895 H889 0.930 . S
C895 C891 1.400 . S
C895 C894 1.385 . S
C896 C894 1.478 . S
C896 C898 1.381 . S
C896 C902 1.383 . S
C897 C893 1.495 . S
C897 H903 0.959 . S
C897 H904 0.961 . S
C897 H905 0.960 . S
C898 C896 1.381 . S
C898 C899 1.394 . S
C898 H906 0.930 . S
C899 C898 1.394 . S
C899 C900 1.383 . S
C899 H907 0.929 . S
C900 C899 1.383 . S
C900 C901 1.377 . S
C901 H885 0.930 . S
C901 C900 1.377 . S
C901 C902 1.379 . S
C902 H886 0.931 . S
C902 C896 1.383 . S
C902 C901 1.379 . S
H903 C897 0.959 . S
H904 C897 0.961 . S
H905 C897 0.960 . S
H906 C898 0.930 . S
H907 C899 0.929 . S
H908 C916 0.929 . S
H909 C918 0.930 . S
H910 C920 0.930 . S
H911 C923 0.929 . S
H912 C926 0.930 . S
H913 C928 0.960 . S
H914 C928 0.960 . S
H915 C928 0.960 . S
C916 H908 0.929 . S
C916 C917 1.377 . S
C916 C918 1.384 . S
C917 C916 1.377 . S
C917 C923 1.390 . S
C918 H909 0.930 . S
C918 C916 1.384 . S
C918 C919 1.372 . S
C919 C918 1.372 . S
C919 C920 1.400 . S
C919 C924 1.490 . S
C920 H910 0.930 . S
C920 C919 1.400 . S
C920 C923 1.386 . S
H921 C937 0.930 . S
H922 C938 0.931 . S
C923 H911 0.929 . S
C923 C917 1.390 . S
C923 C920 1.386 . S
C924 C919 1.490 . S
C924 C926 1.395 . S
C924 C927 1.403 . S
H925 C931 0.930 . S
C926 H912 0.930 . S
C926 C924 1.395 . S
C926 C929 1.403 . S
C927 C924 1.403 . S
C927 C928 1.524 . S
C927 C931 1.400 . S
C928 H913 0.960 . S
C928 H914 0.960 . S
C928 H915 0.960 . S
C928 C927 1.524 . S
C929 C926 1.403 . S
C929 C930 1.392 . S
C929 C933 1.495 . S
C930 C929 1.392 . S
C930 C931 1.385 . S
C930 C932 1.478 . S
C931 H925 0.930 . S
C931 C927 1.400 . S
C931 C930 1.385 . S
C932 C930 1.478 . S
C932 C934 1.381 . S
C932 C938 1.383 . S
C933 C929 1.495 . S
C933 H939 0.959 . S
C933 H940 0.961 . S
C933 H941 0.960 . S
C934 C932 1.381 . S
C934 C935 1.394 . S
C934 H942 0.930 . S
C935 C934 1.394 . S
C935 C936 1.383 . S
C935 H943 0.929 . S
C936 C935 1.383 . S
C936 C937 1.377 . S
C937 H921 0.930 . S
C937 C936 1.377 . S
C937 C938 1.379 . S
C938 H922 0.931 . S
C938 C932 1.383 . S
C938 C937 1.379 . S
H939 C933 0.959 . S
H940 C933 0.961 . S
H941 C933 0.960 . S
H942 C934 0.930 . S
H943 C935 0.929 . S
H944 C952 0.929 . S
H945 C954 0.930 . S
H946 C956 0.930 . S
H947 C959 0.929 . S
H948 C962 0.930 . S
H949 C964 0.960 . S
H950 C964 0.960 . S
H951 C964 0.960 . S
C952 H944 0.929 . S
C952 C953 1.377 . S
C952 C954 1.384 . S
C953 C952 1.377 . S
C953 C959 1.390 . S
C954 H945 0.930 . S
C954 C952 1.384 . S
C954 C955 1.372 . S
C955 C954 1.372 . S
C955 C956 1.400 . S
C955 C960 1.490 . S
C956 H946 0.930 . S
C956 C955 1.400 . S
C956 C959 1.386 . S
H957 C973 0.930 . S
H958 C974 0.931 . S
C959 H947 0.929 . S
C959 C953 1.390 . S
C959 C956 1.386 . S
C960 C955 1.490 . S
C960 C962 1.395 . S
C960 C963 1.403 . S
H961 C967 0.930 . S
C962 H948 0.930 . S
C962 C960 1.395 . S
C962 C965 1.403 . S
C963 C960 1.403 . S
C963 C964 1.524 . S
C963 C967 1.400 . S
C964 H949 0.960 . S
C964 H950 0.960 . S
C964 H951 0.960 . S
C964 C963 1.524 . S
C965 C962 1.403 . S
C965 C966 1.392 . S
C965 C969 1.495 . S
C966 C965 1.392 . S
C966 C967 1.385 . S
C966 C968 1.478 . S
C967 H961 0.930 . S
C967 C963 1.400 . S
C967 C966 1.385 . S
C968 C966 1.478 . S
C968 C970 1.381 . S
C968 C974 1.383 . S
C969 C965 1.495 . S
C969 H975 0.959 . S
C969 H976 0.961 . S
C969 H977 0.960 . S
C970 C968 1.381 . S
C970 C971 1.394 . S
C970 H978 0.930 . S
C971 C970 1.394 . S
C971 C972 1.383 . S
C971 H979 0.929 . S
C972 C971 1.383 . S
C972 C973 1.377 . S
C973 H957 0.930 . S
C973 C972 1.377 . S
C973 C974 1.379 . S
C974 H958 0.931 . S
C974 C968 1.383 . S
C974 C973 1.379 . S
H975 C969 0.959 . S
H976 C969 0.961 . S
H977 C969 0.960 . S
H978 C970 0.930 . S
H979 C971 0.929 . S
H980 C988 0.929 . S
H981 C990 0.930 . S
H982 C992 0.930 . S
H983 C995 0.929 . S
H984 C998 0.930 . S
H985 C1000 0.960 . S
H986 C1000 0.960 . S
H987 C1000 0.960 . S
C988 H980 0.929 . S
C988 C989 1.364 1_565 S
C988 C990 1.384 . S
C989 C988 1.364 1_545 S
C989 C995 1.402 . S
C990 H981 0.930 . S
C990 C988 1.384 . S
C990 C991 1.359 1_565 S
C991 C990 1.359 1_545 S
C991 C992 1.415 . S
C991 C996 1.488 . S
C992 H982 0.930 . S
C992 C991 1.415 . S
C992 C995 1.386 . S
H993 C1009 0.930 . S
H994 C1010 0.931 . S
C995 H983 0.929 . S
C995 C989 1.402 . S
C995 C992 1.386 . S
C996 C991 1.488 . S
C996 C998 1.393 1_545 S
C996 C999 1.404 . S
H997 C1003 0.930 . S
C998 H984 0.930 . S
C998 C996 1.393 1_565 S
C998 C1001 1.403 . S
C999 C996 1.404 . S
C999 C1000 1.524 . S
C999 C1003 1.400 . S
C1000 H985 0.960 . S
C1000 H986 0.960 . S
C1000 H987 0.960 . S
C1000 C999 1.524 . S
C1001 C998 1.403 . S
C1001 C1002 1.392 . S
C1001 C1005 1.495 . S
C1002 C1001 1.392 . S
C1002 C1003 1.385 1_565 S
C1002 C1004 1.475 . S
C1003 H997 0.930 . S
C1003 C999 1.400 . S
C1003 C1002 1.385 1_545 S
C1004 C1002 1.475 . S
C1004 C1006 1.423 . S
C1004 C1010 1.344 1_565 S
C1005 C1001 1.495 . S
C1005 H1011 0.959 . S
C1005 H1012 0.961 . S
C1005 H1013 0.960 . S
C1006 C1004 1.423 . S
C1006 C1007 1.394 . S
C1006 H1014 0.930 . S
C1007 C1006 1.394 . S
C1007 C1008 1.383 1_565 S
C1007 H1015 0.929 . S
C1008 C1007 1.383 1_545 S
C1008 C1009 1.377 . S
C1009 H993 0.930 . S
C1009 C1008 1.377 . S
C1009 C1010 1.379 . S
C1010 H994 0.931 . S
C1010 C1004 1.344 1_545 S
C1010 C1009 1.379 . S
H1011 C1005 0.959 . S
H1012 C1005 0.961 . S
H1013 C1005 0.960 . S
H1014 C1006 0.930 . S
H1015 C1007 0.929 . S
H1016 C1024 0.929 . S
H1017 C1026 0.930 . S
H1018 C1028 0.930 . S
H1019 C1031 0.929 . S
H1020 C1034 0.930 . S
H1021 C1036 0.960 . S
H1022 C1036 0.960 . S
H1023 C1036 0.960 . S
C1024 H1016 0.929 . S
C1024 C1025 1.377 . S
C1024 C1026 1.384 . S
C1025 C1024 1.377 . S
C1025 C1031 1.390 . S
C1026 H1017 0.930 . S
C1026 C1024 1.384 . S
C1026 C1027 1.372 . S
C1027 C1026 1.372 . S
C1027 C1028 1.400 . S
C1027 C1032 1.490 . S
C1028 H1018 0.930 . S
C1028 C1027 1.400 . S
C1028 C1031 1.386 . S
H1029 C1045 0.930 . S
H1030 C1046 0.931 . S
C1031 H1019 0.929 . S
C1031 C1025 1.390 . S
C1031 C1028 1.386 . S
C1032 C1027 1.490 . S
C1032 C1034 1.395 . S
C1032 C1035 1.403 . S
H1033 C1039 0.930 . S
C1034 H1020 0.930 . S
C1034 C1032 1.395 . S
C1034 C1037 1.403 . S
C1035 C1032 1.403 . S
C1035 C1036 1.524 . S
C1035 C1039 1.400 . S
C1036 H1021 0.960 . S
C1036 H1022 0.960 . S
C1036 H1023 0.960 . S
C1036 C1035 1.524 . S
C1037 C1034 1.403 . S
C1037 C1038 1.392 . S
C1037 C1041 1.495 . S
C1038 C1037 1.392 . S
C1038 C1039 1.385 . S
C1038 C1040 1.478 . S
C1039 H1033 0.930 . S
C1039 C1035 1.400 . S
C1039 C1038 1.385 . S
C1040 C1038 1.478 . S
C1040 C1042 1.381 . S
C1040 C1046 1.383 . S
C1041 C1037 1.495 . S
C1041 H1047 0.959 . S
C1041 H1048 0.961 . S
C1041 H1049 0.960 . S
C1042 C1040 1.381 . S
C1042 C1043 1.394 . S
C1042 H1050 0.930 . S
C1043 C1042 1.394 . S
C1043 C1044 1.383 . S
C1043 H1051 0.929 . S
C1044 C1043 1.383 . S
C1044 C1045 1.377 . S
C1045 H1029 0.930 . S
C1045 C1044 1.377 . S
C1045 C1046 1.379 . S
C1046 H1030 0.931 . S
C1046 C1040 1.383 . S
C1046 C1045 1.379 . S
H1047 C1041 0.959 . S
H1048 C1041 0.961 . S
H1049 C1041 0.960 . S
H1050 C1042 0.930 . S
H1051 C1043 0.929 . S
H1052 C1060 0.929 . S
H1053 C1062 0.930 . S
H1054 C1064 0.930 . S
H1055 C1067 0.929 . S
H1056 C1070 0.930 . S
H1057 C1072 0.960 . S
H1058 C1072 0.960 . S
H1059 C1072 0.960 . S
C1060 H1052 0.929 . S
C1060 C1061 1.377 . S
C1060 C1062 1.384 . S
C1061 C1060 1.377 . S
C1061 C1067 1.390 . S
C1062 H1053 0.930 . S
C1062 C1060 1.384 . S
C1062 C1063 1.372 . S
C1063 C1062 1.372 . S
C1063 C1064 1.400 . S
C1063 C1068 1.490 . S
C1064 H1054 0.930 . S
C1064 C1063 1.400 . S
C1064 C1067 1.386 . S
H1065 C1081 0.930 . S
H1066 C1082 0.931 . S
C1067 H1055 0.929 . S
C1067 C1061 1.390 . S
C1067 C1064 1.386 . S
C1068 C1063 1.490 . S
C1068 C1070 1.395 . S
C1068 C1071 1.403 . S
H1069 C1075 0.930 . S
C1070 H1056 0.930 . S
C1070 C1068 1.395 . S
C1070 C1073 1.403 . S
C1071 C1068 1.403 . S
C1071 C1072 1.524 . S
C1071 C1075 1.400 . S
C1072 H1057 0.960 . S
C1072 H1058 0.960 . S
C1072 H1059 0.960 . S
C1072 C1071 1.524 . S
C1073 C1070 1.403 . S
C1073 C1074 1.392 . S
C1073 C1077 1.495 . S
C1074 C1073 1.392 . S
C1074 C1075 1.385 . S
C1074 C1076 1.478 . S
C1075 H1069 0.930 . S
C1075 C1071 1.400 . S
C1075 C1074 1.385 . S
C1076 C1074 1.478 . S
C1076 C1078 1.381 . S
C1076 C1082 1.383 . S
C1077 C1073 1.495 . S
C1077 H1083 0.959 . S
C1077 H1084 0.961 . S
C1077 H1085 0.960 . S
C1078 C1076 1.381 . S
C1078 C1079 1.394 . S
C1078 H1086 0.930 . S
C1079 C1078 1.394 . S
C1079 C1080 1.383 . S
C1079 H1087 0.929 . S
C1080 C1079 1.383 . S
C1080 C1081 1.377 . S
C1081 H1065 0.930 . S
C1081 C1080 1.377 . S
C1081 C1082 1.379 . S
C1082 H1066 0.931 . S
C1082 C1076 1.383 . S
C1082 C1081 1.379 . S
H1083 C1077 0.959 . S
H1084 C1077 0.961 . S
H1085 C1077 0.960 . S
H1086 C1078 0.930 . S
H1087 C1079 0.929 . S
H1088 C1096 0.929 . S
H1089 C1098 0.930 . S
H1090 C1100 0.930 . S
H1091 C1103 0.929 . S
H1092 C1106 0.930 . S
H1093 C1108 0.960 . S
H1094 C1108 0.960 . S
H1095 C1108 0.960 . S
C1096 H1088 0.929 . S
C1096 C1097 1.377 . S
C1096 C1098 1.384 . S
C1097 C1096 1.377 . S
C1097 C1103 1.390 . S
C1098 H1089 0.930 . S
C1098 C1096 1.384 . S
C1098 C1099 1.372 . S
C1099 C1098 1.372 . S
C1099 C1100 1.400 . S
C1099 C1104 1.490 . S
C1100 H1090 0.930 . S
C1100 C1099 1.400 . S
C1100 C1103 1.386 . S
H1101 C1117 0.930 . S
H1102 C1118 0.931 . S
C1103 H1091 0.929 . S
C1103 C1097 1.390 . S
C1103 C1100 1.386 . S
C1104 C1099 1.490 . S
C1104 C1106 1.395 . S
C1104 C1107 1.403 . S
H1105 C1111 0.930 . S
C1106 H1092 0.930 . S
C1106 C1104 1.395 . S
C1106 C1109 1.403 . S
C1107 C1104 1.403 . S
C1107 C1108 1.524 . S
C1107 C1111 1.400 . S
C1108 H1093 0.960 . S
C1108 H1094 0.960 . S
C1108 H1095 0.960 . S
C1108 C1107 1.524 . S
C1109 C1106 1.403 . S
C1109 C1110 1.392 . S
C1109 C1113 1.495 . S
C1110 C1109 1.392 . S
C1110 C1111 1.385 . S
C1110 C1112 1.478 . S
C1111 H1105 0.930 . S
C1111 C1107 1.400 . S
C1111 C1110 1.385 . S
C1112 C1110 1.478 . S
C1112 C1114 1.381 . S
C1112 C1118 1.383 . S
C1113 C1109 1.495 . S
C1113 H1119 0.959 . S
C1113 H1120 0.961 . S
C1113 H1121 0.960 . S
C1114 C1112 1.381 . S
C1114 C1115 1.394 . S
C1114 H1122 0.930 . S
C1115 C1114 1.394 . S
C1115 C1116 1.383 . S
C1115 H1123 0.929 . S
C1116 C1115 1.383 . S
C1116 C1117 1.377 . S
C1117 H1101 0.930 . S
C1117 C1116 1.377 . S
C1117 C1118 1.379 . S
C1118 H1102 0.931 . S
C1118 C1112 1.383 . S
C1118 C1117 1.379 . S
H1119 C1113 0.959 . S
H1120 C1113 0.961 . S
H1121 C1113 0.960 . S
H1122 C1114 0.930 . S
H1123 C1115 0.929 . S
H1124 C1132 0.929 . S
H1125 C1134 0.930 . S
H1126 C1136 0.930 . S
H1127 C1139 0.929 . S
H1128 C1142 0.930 . S
H1129 C1144 0.960 . S
H1130 C1144 0.960 1_565 S
H1131 C1144 0.960 . S
C1132 H1124 0.929 . S
C1132 C1133 1.396 . S
C1132 C1134 1.384 . S
C1133 C1132 1.396 . S
C1133 C1139 1.370 1_565 S
C1134 H1125 0.930 . S
C1134 C1132 1.384 . S
C1134 C1135 1.372 . S
C1135 C1134 1.372 . S
C1135 C1136 1.400 1_565 S
C1135 C1140 1.490 . S
C1136 H1126 0.930 . S
C1136 C1135 1.400 1_545 S
C1136 C1139 1.386 . S
H1137 C1153 0.930 . S
H1138 C1154 0.931 . S
C1139 H1127 0.929 . S
C1139 C1133 1.370 1_545 S
C1139 C1136 1.386 . S
C1140 C1135 1.490 . S
C1140 C1142 1.395 . S
C1140 C1143 1.389 1_565 S
H1141 C1147 0.938 . S
C1142 H1128 0.930 . S
C1142 C1140 1.395 . S
C1142 C1145 1.403 . S
C1143 C1140 1.389 1_545 S
C1143 C1144 1.534 . S
C1143 C1147 1.402 . S
C1144 H1129 0.960 . S
C1144 H1130 0.960 1_545 S
C1144 H1131 0.960 . S
C1144 C1143 1.534 . S
C1145 C1142 1.403 . S
C1145 C1146 1.392 . S
C1145 C1149 1.495 . S
C1146 C1145 1.392 . S
C1146 C1147 1.380 1_565 S
C1146 C1148 1.478 . S
C1147 H1141 0.938 . S
C1147 C1143 1.402 . S
C1147 C1146 1.380 1_545 S
C1148 C1146 1.478 . S
C1148 C1150 1.381 . S
C1148 C1154 1.383 1_565 S
C1149 C1145 1.495 . S
C1149 H1155 0.959 . S
C1149 H1156 0.988 . S
C1149 H1157 0.960 . S
C1150 C1148 1.381 . S
C1150 C1151 1.394 . S
C1150 H1158 0.930 . S
C1151 C1150 1.394 . S
C1151 C1152 1.383 . S
C1151 H1159 0.929 . S
C1152 C1151 1.383 . S
C1152 C1153 1.377 1_565 S
C1153 H1137 0.930 . S
C1153 C1152 1.377 1_545 S
C1153 C1154 1.379 . S
C1154 H1138 0.931 . S
C1154 C1148 1.383 1_545 S
C1154 C1153 1.379 . S
H1155 C1149 0.959 . S
H1156 C1149 0.988 . S
H1157 C1149 0.960 . S
H1158 C1150 0.930 . S
H1159 C1151 0.929 . S
H1160 C1168 0.929 . S
H1161 C1170 0.930 . S
H1162 C1172 0.930 . S
H1163 C1175 0.929 . S
H1164 C1178 0.930 . S
H1165 C1180 0.960 . S
H1166 C1180 0.960 . S
H1167 C1180 0.960 . S
C1168 H1160 0.929 . S
C1168 C1169 1.377 . S
C1168 C1170 1.384 . S
C1169 C1168 1.377 . S
C1169 C1175 1.390 . S
C1170 H1161 0.930 . S
C1170 C1168 1.384 . S
C1170 C1171 1.372 . S
C1171 C1170 1.372 . S
C1171 C1172 1.400 . S
C1171 C1176 1.490 . S
C1172 H1162 0.930 . S
C1172 C1171 1.400 . S
C1172 C1175 1.386 . S
H1173 C1189 0.930 . S
H1174 C1190 0.931 . S
C1175 H1163 0.929 . S
C1175 C1169 1.390 . S
C1175 C1172 1.386 . S
C1176 C1171 1.490 . S
C1176 C1178 1.395 . S
C1176 C1179 1.403 . S
H1177 C1183 0.930 . S
C1178 H1164 0.930 . S
C1178 C1176 1.395 . S
C1178 C1181 1.403 . S
C1179 C1176 1.403 . S
C1179 C1180 1.524 . S
C1179 C1183 1.400 . S
C1180 H1165 0.960 . S
C1180 H1166 0.960 . S
C1180 H1167 0.960 . S
C1180 C1179 1.524 . S
C1181 C1178 1.403 . S
C1181 C1182 1.392 . S
C1181 C1185 1.495 . S
C1182 C1181 1.392 . S
C1182 C1183 1.385 . S
C1182 C1184 1.478 . S
C1183 H1177 0.930 . S
C1183 C1179 1.400 . S
C1183 C1182 1.385 . S
C1184 C1182 1.478 . S
C1184 C1186 1.381 . S
C1184 C1190 1.383 . S
C1185 C1181 1.495 . S
C1185 H1191 0.959 . S
C1185 H1192 0.961 . S
C1185 H1193 0.960 . S
C1186 C1184 1.381 . S
C1186 C1187 1.394 . S
C1186 H1194 0.930 . S
C1187 C1186 1.394 . S
C1187 C1188 1.383 . S
C1187 H1195 0.929 . S
C1188 C1187 1.383 . S
C1188 C1189 1.377 . S
C1189 H1173 0.930 . S
C1189 C1188 1.377 . S
C1189 C1190 1.379 . S
C1190 H1174 0.931 . S
C1190 C1184 1.383 . S
C1190 C1189 1.379 . S
H1191 C1185 0.959 . S
H1192 C1185 0.961 . S
H1193 C1185 0.960 . S
H1194 C1186 0.930 . S
H1195 C1187 0.929 . S
H1196 C1204 0.929 . S
H1197 C1206 0.930 . S
H1198 C1208 0.930 . S
H1199 C1211 0.929 . S
H1200 C1214 0.930 . S
H1201 C1216 0.960 . S
H1202 C1216 0.960 . S
H1203 C1216 0.960 . S
C1204 H1196 0.929 . S
C1204 C1205 1.377 . S
C1204 C1206 1.384 . S
C1205 C1204 1.377 . S
C1205 C1211 1.390 . S
C1206 H1197 0.930 . S
C1206 C1204 1.384 . S
C1206 C1207 1.372 . S
C1207 C1206 1.372 . S
C1207 C1208 1.400 . S
C1207 C1212 1.490 . S
C1208 H1198 0.930 . S
C1208 C1207 1.400 . S
C1208 C1211 1.386 . S
H1209 C1225 0.930 . S
H1210 C1226 0.931 . S
C1211 H1199 0.929 . S
C1211 C1205 1.390 . S
C1211 C1208 1.386 . S
C1212 C1207 1.490 . S
C1212 C1214 1.395 . S
C1212 C1215 1.403 . S
H1213 C1219 0.930 . S
C1214 H1200 0.930 . S
C1214 C1212 1.395 . S
C1214 C1217 1.403 . S
C1215 C1212 1.403 . S
C1215 C1216 1.524 . S
C1215 C1219 1.400 . S
C1216 H1201 0.960 . S
C1216 H1202 0.960 . S
C1216 H1203 0.960 . S
C1216 C1215 1.524 . S
C1217 C1214 1.403 . S
C1217 C1218 1.392 . S
C1217 C1221 1.495 . S
C1218 C1217 1.392 . S
C1218 C1219 1.385 . S
C1218 C1220 1.478 . S
C1219 H1213 0.930 . S
C1219 C1215 1.400 . S
C1219 C1218 1.385 . S
C1220 C1218 1.478 . S
C1220 C1222 1.381 . S
C1220 C1226 1.383 . S
C1221 C1217 1.495 . S
C1221 H1227 0.959 . S
C1221 H1228 0.961 . S
C1221 H1229 0.960 . S
C1222 C1220 1.381 . S
C1222 C1223 1.394 . S
C1222 H1230 0.930 . S
C1223 C1222 1.394 . S
C1223 C1224 1.383 . S
C1223 H1231 0.929 . S
C1224 C1223 1.383 . S
C1224 C1225 1.377 . S
C1225 H1209 0.930 . S
C1225 C1224 1.377 . S
C1225 C1226 1.379 . S
C1226 H1210 0.931 . S
C1226 C1220 1.383 . S
C1226 C1225 1.379 . S
H1227 C1221 0.959 . S
H1228 C1221 0.961 . S
H1229 C1221 0.960 . S
H1230 C1222 0.930 . S
H1231 C1223 0.929 . S
C377 C241 1.582 1_565 S
C396 C296 1.637 . S
C432 C326 2.390 . S
C413 C277 2.263 . S
C468 C336 1.706 . S
C449 C169 1.623 . S
C504 C356 1.595 . S
C485 C205 1.514 . S
C540 C297 1.646 . S
C521 C97 1.578 . S
C557 C133 2.333 1_556 S
C576 C327 2.378 . S
C593 C25 1.674 . S
C612 C337 1.731 . S
C629 C61 1.466 . S
C648 C357 1.596 . S
C684 C289 0.451 . S
C665 C211 0.508 . S
C720 C310 0.403 . S
C701 C247 0.506 . S
C756 C329 0.854 . S
C737 C253 0.834 . S
C773 C175 0.466 . S
C792 C349 0.264 . S
C809 C67 0.595 . S
C828 C290 0.444 1_655 S
C864 C309 0.474 . S
C845 C103 0.554 1_565 S
C900 C330 0.847 . S
C881 C109 0.830 . S
C917 C31 0.376 . S
C936 C350 0.375 . S
C953 C181 2.261 . S
C972 C307 2.383 . S
C989 C217 1.584 . S
C1008 C317 1.724 . S
C1044 C347 2.541 . S
C1025 C283 2.288 . S
C1080 C367 2.426 . S
C1061 C145 2.268 . S
C1097 C37 2.226 . S
C1116 C306 2.377 . S
C1152 C316 1.715 . S
C1133 C73 1.588 1_565 S
C1188 C346 2.545 . S
C1169 C139 2.360 . S
C1205 C1 2.297 . S
C1224 C366 2.424 . S
