# Generated by pormake.
# Topology llk, (3,12)-cn, num edge types: 1
# Building blocks:
#     Node 0, Type 0, BuildingBlock: BELTOD_clean_linker_0, # of connection points: 3
#     Node 1, Type 0, BuildingBlock: BELTOD_clean_linker_0, # of connection points: 3
#     Node 2, Type 0, BuildingBlock: BELTOD_clean_linker_0, # of connection points: 3
#     Node 3, Type 0, BuildingBlock: BELTOD_clean_linker_0, # of connection points: 3
#     Node 4, Type 0, BuildingBlock: BELTOD_clean_linker_0, # of connection points: 3
#     Node 5, Type 0, BuildingBlock: BELTOD_clean_linker_0, # of connection points: 3
#     Node 6, Type 0, BuildingBlock: BELTOD_clean_linker_0, # of connection points: 3
#     Node 7, Type 0, BuildingBlock: BELTOD_clean_linker_0, # of connection points: 3
#     Node 8, Type 0, BuildingBlock: BELTOD_clean_linker_0, # of connection points: 3
#     Node 9, Type 0, BuildingBlock: BELTOD_clean_linker_0, # of connection points: 3
#     Node 10, Type 0, BuildingBlock: BELTOD_clean_linker_0, # of connection points: 3
#     Node 11, Type 0, BuildingBlock: BELTOD_clean_linker_0, # of connection points: 3
#     Node 12, Type 0, BuildingBlock: BELTOD_clean_linker_0, # of connection points: 3
#     Node 13, Type 0, BuildingBlock: BELTOD_clean_linker_0, # of connection points: 3
#     Node 14, Type 0, BuildingBlock: BELTOD_clean_linker_0, # of connection points: 3
#     Node 15, Type 0, BuildingBlock: BELTOD_clean_linker_0, # of connection points: 3
#     Node 16, Type 0, BuildingBlock: BELTOD_clean_linker_0, # of connection points: 3
#     Node 17, Type 0, BuildingBlock: BELTOD_clean_linker_0, # of connection points: 3
#     Node 18, Type 0, BuildingBlock: BELTOD_clean_linker_0, # of connection points: 3
#     Node 19, Type 0, BuildingBlock: BELTOD_clean_linker_0, # of connection points: 3
#     Node 20, Type 0, BuildingBlock: BELTOD_clean_linker_0, # of connection points: 3
#     Node 21, Type 0, BuildingBlock: BELTOD_clean_linker_0, # of connection points: 3
#     Node 22, Type 0, BuildingBlock: BELTOD_clean_linker_0, # of connection points: 3
#     Node 23, Type 0, BuildingBlock: BELTOD_clean_linker_0, # of connection points: 3
#     Node 24, Type 1, BuildingBlock: QEWDON_clean_sbu_0, # of connection points: 12
#     Node 25, Type 1, BuildingBlock: QEWDON_clean_sbu_0, # of connection points: 12
#     Node 26, Type 1, BuildingBlock: QEWDON_clean_sbu_0, # of connection points: 12
#     Node 27, Type 1, BuildingBlock: QEWDON_clean_sbu_0, # of connection points: 12
#     Node 28, Type 1, BuildingBlock: QEWDON_clean_sbu_0, # of connection points: 12
#     Node 29, Type 1, BuildingBlock: QEWDON_clean_sbu_0, # of connection points: 12
#     Edge 30, Type (0, 1), BuildingBlock: XIVTED_clean_linker_0, # of connection points: 2
#     Edge 31, Type (0, 1), BuildingBlock: XIVTED_clean_linker_0, # of connection points: 2
#     Edge 32, Type (0, 1), BuildingBlock: XIVTED_clean_linker_0, # of connection points: 2
#     Edge 33, Type (0, 1), BuildingBlock: XIVTED_clean_linker_0, # of connection points: 2
#     Edge 34, Type (0, 1), BuildingBlock: XIVTED_clean_linker_0, # of connection points: 2
#     Edge 35, Type (0, 1), BuildingBlock: XIVTED_clean_linker_0, # of connection points: 2
#     Edge 36, Type (0, 1), BuildingBlock: XIVTED_clean_linker_0, # of connection points: 2
#     Edge 37, Type (0, 1), BuildingBlock: XIVTED_clean_linker_0, # of connection points: 2
#     Edge 38, Type (0, 1), BuildingBlock: XIVTED_clean_linker_0, # of connection points: 2
#     Edge 39, Type (0, 1), BuildingBlock: XIVTED_clean_linker_0, # of connection points: 2
#     Edge 40, Type (0, 1), BuildingBlock: XIVTED_clean_linker_0, # of connection points: 2
#     Edge 41, Type (0, 1), BuildingBlock: XIVTED_clean_linker_0, # of connection points: 2
#     Edge 42, Type (0, 1), BuildingBlock: XIVTED_clean_linker_0, # of connection points: 2
#     Edge 43, Type (0, 1), BuildingBlock: XIVTED_clean_linker_0, # of connection points: 2
#     Edge 44, Type (0, 1), BuildingBlock: XIVTED_clean_linker_0, # of connection points: 2
#     Edge 45, Type (0, 1), BuildingBlock: XIVTED_clean_linker_0, # of connection points: 2
#     Edge 46, Type (0, 1), BuildingBlock: XIVTED_clean_linker_0, # of connection points: 2
#     Edge 47, Type (0, 1), BuildingBlock: XIVTED_clean_linker_0, # of connection points: 2
#     Edge 48, Type (0, 1), BuildingBlock: XIVTED_clean_linker_0, # of connection points: 2
#     Edge 49, Type (0, 1), BuildingBlock: XIVTED_clean_linker_0, # of connection points: 2
#     Edge 50, Type (0, 1), BuildingBlock: XIVTED_clean_linker_0, # of connection points: 2
#     Edge 51, Type (0, 1), BuildingBlock: XIVTED_clean_linker_0, # of connection points: 2
#     Edge 52, Type (0, 1), BuildingBlock: XIVTED_clean_linker_0, # of connection points: 2
#     Edge 53, Type (0, 1), BuildingBlock: XIVTED_clean_linker_0, # of connection points: 2
#     Edge 54, Type (0, 1), BuildingBlock: XIVTED_clean_linker_0, # of connection points: 2
#     Edge 55, Type (0, 1), BuildingBlock: XIVTED_clean_linker_0, # of connection points: 2
#     Edge 56, Type (0, 1), BuildingBlock: XIVTED_clean_linker_0, # of connection points: 2
#     Edge 57, Type (0, 1), BuildingBlock: XIVTED_clean_linker_0, # of connection points: 2
#     Edge 58, Type (0, 1), BuildingBlock: XIVTED_clean_linker_0, # of connection points: 2
#     Edge 59, Type (0, 1), BuildingBlock: XIVTED_clean_linker_0, # of connection points: 2
#     Edge 60, Type (0, 1), BuildingBlock: XIVTED_clean_linker_0, # of connection points: 2
#     Edge 61, Type (0, 1), BuildingBlock: XIVTED_clean_linker_0, # of connection points: 2
#     Edge 62, Type (0, 1), BuildingBlock: XIVTED_clean_linker_0, # of connection points: 2
#     Edge 63, Type (0, 1), BuildingBlock: XIVTED_clean_linker_0, # of connection points: 2
#     Edge 64, Type (0, 1), BuildingBlock: XIVTED_clean_linker_0, # of connection points: 2
#     Edge 65, Type (0, 1), BuildingBlock: XIVTED_clean_linker_0, # of connection points: 2
#     Edge 66, Type (0, 1), BuildingBlock: XIVTED_clean_linker_0, # of connection points: 2
#     Edge 67, Type (0, 1), BuildingBlock: XIVTED_clean_linker_0, # of connection points: 2
#     Edge 68, Type (0, 1), BuildingBlock: XIVTED_clean_linker_0, # of connection points: 2
#     Edge 69, Type (0, 1), BuildingBlock: XIVTED_clean_linker_0, # of connection points: 2
#     Edge 70, Type (0, 1), BuildingBlock: XIVTED_clean_linker_0, # of connection points: 2
#     Edge 71, Type (0, 1), BuildingBlock: XIVTED_clean_linker_0, # of connection points: 2
#     Edge 72, Type (0, 1), BuildingBlock: XIVTED_clean_linker_0, # of connection points: 2
#     Edge 73, Type (0, 1), BuildingBlock: XIVTED_clean_linker_0, # of connection points: 2
#     Edge 74, Type (0, 1), BuildingBlock: XIVTED_clean_linker_0, # of connection points: 2
#     Edge 75, Type (0, 1), BuildingBlock: XIVTED_clean_linker_0, # of connection points: 2
#     Edge 76, Type (0, 1), BuildingBlock: XIVTED_clean_linker_0, # of connection points: 2
#     Edge 77, Type (0, 1), BuildingBlock: XIVTED_clean_linker_0, # of connection points: 2
#     Edge 78, Type (0, 1), BuildingBlock: XIVTED_clean_linker_0, # of connection points: 2
#     Edge 79, Type (0, 1), BuildingBlock: XIVTED_clean_linker_0, # of connection points: 2
#     Edge 80, Type (0, 1), BuildingBlock: XIVTED_clean_linker_0, # of connection points: 2
#     Edge 81, Type (0, 1), BuildingBlock: XIVTED_clean_linker_0, # of connection points: 2
#     Edge 82, Type (0, 1), BuildingBlock: XIVTED_clean_linker_0, # of connection points: 2
#     Edge 83, Type (0, 1), BuildingBlock: XIVTED_clean_linker_0, # of connection points: 2
#     Edge 84, Type (0, 1), BuildingBlock: XIVTED_clean_linker_0, # of connection points: 2
#     Edge 85, Type (0, 1), BuildingBlock: XIVTED_clean_linker_0, # of connection points: 2
#     Edge 86, Type (0, 1), BuildingBlock: XIVTED_clean_linker_0, # of connection points: 2
#     Edge 87, Type (0, 1), BuildingBlock: XIVTED_clean_linker_0, # of connection points: 2
#     Edge 88, Type (0, 1), BuildingBlock: XIVTED_clean_linker_0, # of connection points: 2
#     Edge 89, Type (0, 1), BuildingBlock: XIVTED_clean_linker_0, # of connection points: 2
#     Edge 90, Type (0, 1), BuildingBlock: XIVTED_clean_linker_0, # of connection points: 2
#     Edge 91, Type (0, 1), BuildingBlock: XIVTED_clean_linker_0, # of connection points: 2
#     Edge 92, Type (0, 1), BuildingBlock: XIVTED_clean_linker_0, # of connection points: 2
#     Edge 93, Type (0, 1), BuildingBlock: XIVTED_clean_linker_0, # of connection points: 2
#     Edge 94, Type (0, 1), BuildingBlock: XIVTED_clean_linker_0, # of connection points: 2
#     Edge 95, Type (0, 1), BuildingBlock: XIVTED_clean_linker_0, # of connection points: 2
#     Edge 96, Type (0, 1), BuildingBlock: XIVTED_clean_linker_0, # of connection points: 2
#     Edge 97, Type (0, 1), BuildingBlock: XIVTED_clean_linker_0, # of connection points: 2
#     Edge 98, Type (0, 1), BuildingBlock: XIVTED_clean_linker_0, # of connection points: 2
#     Edge 99, Type (0, 1), BuildingBlock: XIVTED_clean_linker_0, # of connection points: 2
#     Edge 100, Type (0, 1), BuildingBlock: XIVTED_clean_linker_0, # of connection points: 2
#     Edge 101, Type (0, 1), BuildingBlock: XIVTED_clean_linker_0, # of connection points: 2
# Relax obj value: 0.119
# Max RMSD: 0.148
# Mean RMSD: 0.135
data_MOF--net-llk--node1-QEWDON_clean_sbu_0--node2-BELTOD_clean_linker_0--edge1-XIVTED_clean_linker_0
_symmetry_space_group_name_H-M    P1
_symmetry_Int_Tables_number       1
_symmetry_cell_setting            triclinic
loop_
_symmetry_equiv_pos_as_xyz
'x, y, z'
_cell_length_a     51.220234
_cell_length_b     53.67916
_cell_length_c     52.282763
_cell_angle_alpha  90.02456
_cell_angle_beta   89.990415
_cell_angle_gamma 89.682008
loop_
_atom_site_label
_atom_site_type_symbol
_atom_site_fract_x
_atom_site_fract_y
_atom_site_fract_z
_atom_type_partial_charge
P0 P 0.00209 0.25107 0.26377 0.0
H1 H 0.99049 0.25765 0.20944 0.0
H2 H 0.00689 0.28694 0.17795 0.0
H3 H 0.06841 0.30818 0.23003 0.0
H4 H 0.0513 0.27924 0.26185 0.0
H5 H 0.97791 0.20451 0.27871 0.0
H6 H 0.99306 0.16983 0.30468 0.0
H7 H 0.07091 0.20017 0.3046 0.0
H8 H 0.05581 0.2346 0.27722 0.0
H9 H 0.96166 0.28734 0.27773 0.0
H10 H 0.03693 0.26416 0.3065 0.0
O11 O 0.97196 0.24503 0.25332 0.0
H12 H 0.95879 0.31876 0.31154 0.0
H13 H 0.03398 0.29502 0.34029 0.0
C14 C 0.01945 0.26638 0.2382 0.0
C15 C 0.00788 0.26814 0.21395 0.0
C16 C 0.01738 0.28495 0.19581 0.0
C17 C 0.03876 0.30034 0.20152 0.0
C18 C 0.05154 0.29708 0.22517 0.0
C19 C 0.04195 0.28027 0.24333 0.0
C20 C 0.01567 0.2223 0.27599 0.0
C21 C 0.99848 0.20335 0.28333 0.0
C22 C 0.00716 0.18346 0.29829 0.0
C23 C 0.03313 0.18238 0.30681 0.0
C24 C 0.05075 0.20063 0.29836 0.0
C25 C 0.04214 0.22025 0.28269 0.0
C26 C 0.99926 0.27296 0.28979 0.0
C27 C 0.97738 0.28868 0.2915 0.0
C28 C 0.97573 0.3066 0.31087 0.0
C29 C 0.99614 0.3093 0.32862 0.0
C30 C 0.01801 0.29352 0.3268 0.0
C31 C 0.01958 0.27561 0.30754 0.0
P32 P 0.77268 0.03455 0.2352 0.0
H33 H 0.77762 0.01574 0.18354 0.0
H34 H 0.76369 0.03293 0.14289 0.0
H35 H 0.74975 0.10423 0.17904 0.0
H36 H 0.76381 0.0866 0.22005 0.0
H37 H 0.82627 0.04527 0.25015 0.0
H38 H 0.84453 0.06285 0.2894 0.0
H39 H 0.76694 0.08274 0.31481 0.0
H40 H 0.74883 0.06568 0.27538 0.0
H41 H 0.72026 0.05249 0.22005 0.0
H42 H 0.75347 0.99864 0.27215 0.0
O43 O 0.79075 0.00869 0.23267 0.0
H44 H 0.67749 0.04653 0.23923 0.0
H45 H 0.71059 0.99274 0.29162 0.0
C46 C 0.77177 0.0499 0.20474 0.0
C47 C 0.77268 0.03535 0.18256 0.0
C48 C 0.76477 0.04532 0.1592 0.0
C49 C 0.75539 0.06996 0.15771 0.0
C50 C 0.75672 0.08515 0.17961 0.0
C51 C 0.76489 0.07516 0.20302 0.0
C52 C 0.78622 0.05351 0.2602 0.0
C53 C 0.81328 0.05407 0.26382 0.0
C54 C 0.82367 0.06423 0.2862 0.0
C55 C 0.80706 0.07384 0.30527 0.0
C56 C 0.78011 0.07518 0.30053 0.0
C57 C 0.76978 0.06532 0.27801 0.0
C58 C 0.74014 0.02584 0.24455 0.0
C59 C 0.71835 0.03892 0.23518 0.0
C60 C 0.69382 0.03562 0.24628 0.0
C61 C 0.69068 0.01929 0.26702 0.0
C62 C 0.71228 0.00522 0.27543 0.0
C63 C 0.73682 0.00858 0.26434 0.0
P64 P 0.06142 0.75412 0.26535 0.0
H65 H 0.04706 0.76904 0.21352 0.0
H66 H 0.02676 0.74623 0.17841 0.0
H67 H 0.00993 0.68551 0.23018 0.0
H68 H 0.02819 0.70923 0.2652 0.0
H69 H 0.08747 0.8 0.27988 0.0
H70 H 0.07337 0.83631 0.30423 0.0
H71 H 0.99508 0.80681 0.30745 0.0
H72 H 0.00933 0.77072 0.28215 0.0
H73 H 0.08711 0.70565 0.26491 0.0
H74 H 0.0497 0.7531 0.32079 0.0
O75 O 0.0897 0.75987 0.2507 0.0
H76 H 0.09061 0.67242 0.29689 0.0
H77 H 0.0533 0.7202 0.35259 0.0
C78 C 0.03991 0.74058 0.24182 0.0
C79 C 0.03825 0.75113 0.21738 0.0
C80 C 0.02691 0.73784 0.19723 0.0
C81 C 0.01742 0.71349 0.20105 0.0
C82 C 0.01699 0.70407 0.22619 0.0
C83 C 0.02785 0.7176 0.24639 0.0
C84 C 0.04935 0.78286 0.27886 0.0
C85 C 0.06711 0.80162 0.28523 0.0
C86 C 0.05907 0.82226 0.29951 0.0
C87 C 0.03314 0.82441 0.30813 0.0
C88 C 0.01513 0.80593 0.30094 0.0
C89 C 0.02321 0.78528 0.28645 0.0
C90 C 0.06796 0.73179 0.29033 0.0
C91 C 0.08015 0.70911 0.28416 0.0
C92 C 0.08206 0.69013 0.30238 0.0
C93 C 0.07218 0.69373 0.32719 0.0
C94 C 0.06134 0.71699 0.3337 0.0
C95 C 0.0591 0.73581 0.31538 0.0
P96 P 0.24781 0.92763 0.26025 0.0
H97 H 0.19498 0.91494 0.24319 0.0
H98 H 0.15295 0.93568 0.24937 0.0
H99 H 0.19263 0.9988 0.28286 0.0
H100 H 0.23432 0.97861 0.27493 0.0
H101 H 0.2642 0.90682 0.21081 0.0
H102 H 0.29602 0.92074 0.17898 0.0
H103 H 0.30935 0.98743 0.22334 0.0
H104 H 0.27797 0.97319 0.2552 0.0
H105 H 0.22916 0.94171 0.31191 0.0
H106 H 0.30183 0.92013 0.27622 0.0
O107 O 0.24195 0.89738 0.25585 0.0
H108 H 0.25231 0.95026 0.35187 0.0
H109 H 0.32485 0.92784 0.3164 0.0
C110 C 0.21763 0.94491 0.25948 0.0
C111 C 0.19458 0.9335 0.2513 0.0
C112 C 0.17052 0.94538 0.25501 0.0
C113 C 0.16913 0.96866 0.26741 0.0
C114 C 0.19263 0.98096 0.27322 0.0
C115 C 0.21666 0.96929 0.26895 0.0
C116 C 0.26902 0.93886 0.23547 0.0
C117 C 0.27388 0.92449 0.21358 0.0
C118 C 0.29197 0.93252 0.19534 0.0
C119 C 0.30542 0.95504 0.19881 0.0
C120 C 0.29969 0.96977 0.22037 0.0
C121 C 0.2816 0.96176 0.23849 0.0
C122 C 0.26395 0.93128 0.29071 0.0
C123 C 0.25008 0.93893 0.31254 0.0
C124 C 0.26327 0.94368 0.33545 0.0
C125 C 0.29037 0.93997 0.3371 0.0
C126 C 0.30393 0.93088 0.31564 0.0
C127 C 0.29082 0.92659 0.29264 0.0
P128 P 0.94794 0.76523 0.76771 0.0
H129 H 0.93501 0.75864 0.82154 0.0
H130 H 0.95366 0.73259 0.85472 0.0
H131 H 0.01931 0.7155 0.80555 0.0
H132 H -0.0003 0.74103 0.77184 0.0
H133 H 0.91941 0.80869 0.74973 0.0
H134 H 0.93293 0.84594 0.72714 0.0
H135 H 0.01379 0.82469 0.73769 0.0
H136 H -8e-05 0.7882 0.76196 0.0
H137 H 0.91407 0.72513 0.74947 0.0
H138 H 0.98695 0.75863 0.7271 0.0
O139 O 0.91659 0.76759 0.77621 0.0
H140 H 0.91751 0.69605 0.71352 0.0
H141 H 0.99078 0.7296 0.69182 0.0
C142 C 0.9657 0.75154 0.79403 0.0
C143 C 0.95365 0.7497 0.81798 0.0
C144 C 0.96456 0.73482 0.83714 0.0
C145 C 0.988 0.72158 0.83289 0.0
C146 C 0.00099 0.72494 0.80939 0.0
C147 C 0.9899 0.73976 0.79013 0.0
C148 C 0.95864 0.79561 0.75757 0.0
C149 C 0.94008 0.81243 0.74797 0.0
C150 C 0.94788 0.83361 0.73461 0.0
C151 C 0.97448 0.83812 0.72988 0.0
C152 C 0.99313 0.82199 0.74096 0.0
C153 C 0.98524 0.801 0.75484 0.0
C154 C 0.94995 0.74445 0.74072 0.0
C155 C 0.93067 0.72642 0.73673 0.0
C156 C 0.93273 0.70971 0.71626 0.0
C157 C 0.95426 0.71069 0.69958 0.0
C158 C 0.97357 0.72874 0.70382 0.0
C159 C 0.97145 0.74537 0.72419 0.0
P160 P 0.28079 0.95725 0.78438 0.0
H161 H 0.27324 0.94317 0.83802 0.0
H162 H 0.29389 0.95894 0.87688 0.0
H163 H 0.32381 0.02157 0.83428 0.0
H164 H 0.30315 0.00582 0.79576 0.0
H165 H 0.24371 0.93384 0.75031 0.0
H166 H 0.21861 0.95037 0.71461 0.0
H167 H 0.23783 0.02528 0.73789 0.0
H168 H 0.26232 0.00856 0.77422 0.0
H169 H 0.33432 0.94313 0.79703 0.0
H170 H 0.29399 0.9766 0.733 0.0
O171 O 0.27489 0.92726 0.79034 0.0
H172 H 0.3763 0.9517 0.77619 0.0
H173 H 0.33537 0.98521 0.71261 0.0
C174 C 0.28667 0.97331 0.81398 0.0
C175 C 0.2834 0.96078 0.83726 0.0
C176 C 0.29541 0.9697 0.85943 0.0
C177 C 0.31085 0.99127 0.85857 0.0
C178 C 0.3119 0.00502 0.83571 0.0
C179 C 0.29994 0.99607 0.81359 0.0
C180 C 0.25481 0.96991 0.76508 0.0
C181 C 0.24171 0.95384 0.74841 0.0
C182 C 0.22772 0.96333 0.72769 0.0
C183 C 0.22686 0.98911 0.72302 0.0
C184 C 0.2382 0.00533 0.74094 0.0
C185 C 0.25213 0.99576 0.76183 0.0
C186 C 0.31095 0.95941 0.76681 0.0
C187 C 0.33444 0.95197 0.77841 0.0
C188 C 0.35836 0.95695 0.76659 0.0
C189 C 0.35902 0.9696 0.74309 0.0
C190 C 0.33543 0.97602 0.73106 0.0
C191 C 0.31163 0.97091 0.74274 0.0
P192 P 0.06192 0.25441 0.76128 0.0
H193 H 0.08382 0.27329 0.80865 0.0
H194 H 0.06472 0.29627 0.84437 0.0
H195 H 0.9879 0.28592 0.81211 0.0
H196 H 0.00721 0.26271 0.77638 0.0
H197 H 0.06426 0.19996 0.76011 0.0
H198 H 0.04509 0.16964 0.7309 0.0
H199 H 0.99833 0.22798 0.69667 0.0
H200 H 0.01768 0.25824 0.7259 0.0
H201 H 0.03586 0.3029 0.75428 0.0
H202 H 0.09797 0.26079 0.71864 0.0
O203 O 0.09092 0.24204 0.76869 0.0
H204 H 0.03941 0.33466 0.72134 0.0
H205 H 0.10151 0.29268 0.68528 0.0
C206 C 0.04691 0.26602 0.79005 0.0
C207 C 0.06279 0.27527 0.80965 0.0
C208 C 0.05184 0.28841 0.83009 0.0
C209 C 0.02481 0.29292 0.83103 0.0
C210 C 0.00881 0.2828 0.81183 0.0
C211 C 0.01979 0.26937 0.79151 0.0
C212 C 0.04283 0.2314 0.74479 0.0
C213 C 0.04944 0.20613 0.74674 0.0
C214 C 0.03834 0.18878 0.73009 0.0
C215 C 0.02047 0.1965 0.71121 0.0
C216 C 0.01237 0.22156 0.71072 0.0
C217 C 0.02338 0.23885 0.72748 0.0
C218 C 0.06702 0.27966 0.73922 0.0
C219 C 0.05057 0.30062 0.73963 0.0
C220 C 0.05241 0.31869 0.72057 0.0
C221 C 0.07064 0.31609 0.70065 0.0
C222 C 0.08745 0.2953 0.70053 0.0
C223 C 0.08548 0.27712 0.71959 0.0
P224 P 0.78446 0.12681 0.78121 0.0
H225 H 0.77036 0.13848 0.83421 0.0
H226 H 0.73855 0.12045 0.86377 0.0
H227 H 0.71763 0.06616 0.80627 0.0
H228 H 0.74995 0.08376 0.77735 0.0
H229 H 0.83587 0.14497 0.76774 0.0
H230 H 0.87485 0.12268 0.75435 0.0
H231 H 0.84199 0.05396 0.78276 0.0
H232 H 0.8024 0.07641 0.79489 0.0
H233 H 0.7349 0.14154 0.75795 0.0
H234 H 0.80561 0.10422 0.73373 0.0
O235 O 0.78714 0.1571 0.78781 0.0
H236 H 0.71542 0.13327 0.71602 0.0
H237 H 0.78674 0.09672 0.69208 0.0
C238 C 0.76214 0.11274 0.80347 0.0
C239 C 0.75896 0.12263 0.82808 0.0
C240 C 0.74066 0.11239 0.84488 0.0
C241 C 0.72532 0.09197 0.83735 0.0
C242 C 0.72921 0.08172 0.81285 0.0
C243 C 0.74754 0.09192 0.79615 0.0
C244 C 0.81623 0.1124 0.78232 0.0
C245 C 0.83749 0.12529 0.77206 0.0
C246 C 0.8599 0.11239 0.76438 0.0
C247 C 0.8615 0.08631 0.76695 0.0
C248 C 0.84121 0.07391 0.77984 0.0
C249 C 0.81862 0.08681 0.78716 0.0
C250 C 0.77163 0.12343 0.74922 0.0
C251 C 0.74639 0.13199 0.74354 0.0
C252 C 0.73535 0.12736 0.71951 0.0
C253 C 0.74947 0.11414 0.70075 0.0
C254 C 0.77515 0.10654 0.70623 0.0
C255 C 0.78607 0.11103 0.7302 0.0
P256 P 0.25314 0.27183 0.96359 0.0
H257 H 0.2664 0.22017 0.95123 0.0
H258 H 0.30111 0.19322 0.9675 0.0
H259 H 0.31456 0.24477 0.0295 0.0
H260 H 0.27972 0.27165 0.01319 0.0
H261 H 0.20406 0.28311 0.93832 0.0
H262 H 0.16369 0.30204 0.95327 0.0
H263 H 0.19192 0.29875 0.03105 0.0
H264 H 0.23253 0.27932 0.01585 0.0
H265 H 0.30332 0.28023 0.93989 0.0
H266 H 0.25118 0.32077 0.98984 0.0
O267 O 0.24996 0.26281 0.93319 0.0
H268 H 0.33708 0.31135 0.9471 0.0
H269 H 0.28467 0.35204 0.99687 0.0
C270 C 0.27055 0.24801 0.98088 0.0
C271 C 0.27615 0.2253 0.96881 0.0
C272 C 0.2962 0.21002 0.97798 0.0
C273 C 0.31094 0.2172 0.99942 0.0
C274 C 0.30356 0.23875 0.01294 0.0
C275 C 0.28351 0.25407 0.00369 0.0
C276 C 0.22131 0.27969 0.97595 0.0
C277 C 0.20133 0.28564 0.95869 0.0
C278 C 0.17812 0.29643 0.9673 0.0
C279 C 0.1746 0.30192 0.99336 0.0
C280 C 0.19413 0.29478 0.01085 0.0
C281 C 0.21728 0.28357 0.0022 0.0
C282 C 0.27466 0.2982 0.96414 0.0
C283 C 0.29886 0.29622 0.9518 0.0
C284 C 0.31817 0.31401 0.95598 0.0
C285 C 0.31362 0.33406 0.97274 0.0
C286 C 0.2889 0.33659 0.98418 0.0
C287 C 0.2696 0.31876 0.97997 0.0
P288 P 0.22638 0.77945 0.98663 0.0
H289 H 0.17287 0.77232 0.96901 0.0
H290 H 0.13818 0.74671 0.98608 0.0
H291 H 0.17995 0.74017 0.05761 0.0
H292 H 0.21498 0.76569 0.04013 0.0
H293 H 0.2567 0.81328 0.95604 0.0
H294 H 0.28122 0.85057 0.96574 0.0
H295 H 0.25291 0.84855 0.04361 0.0
H296 H 0.22829 0.8106 0.0336 0.0
H297 H 0.24284 0.73494 0.95863 0.0
H298 H 0.26133 0.77077 0.03013 0.0
O299 O 0.22038 0.77903 0.95523 0.0
H300 H 0.2725 0.70087 0.96906 0.0
H301 H 0.28957 0.73596 0.04167 0.0
C302 C 0.19689 0.77054 0.00303 0.0
C303 C 0.17426 0.76617 0.98868 0.0
C304 C 0.15426 0.75148 0.99858 0.0
C305 C 0.15649 0.74084 0.02308 0.0
C306 C 0.17788 0.74758 0.03845 0.0
C307 C 0.19789 0.76238 0.0285 0.0
C308 C 0.24025 0.80938 0.99394 0.0
C309 C 0.25514 0.82115 0.97506 0.0
C310 C 0.26918 0.84262 0.98065 0.0
C311 C 0.26891 0.85279 0.00542 0.0
C312 C 0.25358 0.84119 0.02434 0.0
C313 C 0.23935 0.8196 0.01862 0.0
C314 C 0.25015 0.75557 0.99343 0.0
C315 C 0.25336 0.73551 0.97658 0.0
C316 C 0.27006 0.71578 0.98282 0.0
C317 C 0.2834 0.71539 0.00638 0.0
C318 C 0.28006 0.73567 0.02319 0.0
C319 C 0.26375 0.75562 0.01667 0.0
P320 P 0.82136 0.27924 0.93866 0.0
H321 H 0.86844 0.30448 0.92237 0.0
H322 H 0.90568 0.32048 0.94587 0.0
H323 H 0.87908 0.28253 0.01387 0.0
H324 H 0.8414 0.26693 0.99018 0.0
H325 H 0.76859 0.26332 0.92862 0.0
H326 H 0.74503 0.22482 0.93622 0.0
H327 H 0.81441 0.19198 0.96925 0.0
H328 H 0.83827 0.23077 0.9611 0.0
H329 H 0.78434 0.31063 0.91032 0.0
H330 H 0.80962 0.30192 0.98848 0.0
O331 O 0.82607 0.28076 0.90712 0.0
H332 H 0.75265 0.34208 0.9238 0.0
H333 H 0.77923 0.33423 0.00192 0.0
C334 C 0.85226 0.2842 0.95437 0.0
C335 C 0.87105 0.29884 0.94209 0.0
C336 C 0.89246 0.30798 0.95561 0.0
C337 C 0.89537 0.3029 0.98184 0.0
C338 C 0.87731 0.28697 0.99374 0.0
C339 C 0.85588 0.27779 0.98013 0.0
C340 C 0.80495 0.25028 0.94509 0.0
C341 C 0.77881 0.24794 0.93762 0.0
C342 C 0.7654 0.22578 0.9417 0.0
C343 C 0.77786 0.20537 0.95335 0.0
C344 C 0.80426 0.20753 0.96047 0.0
C345 C 0.81784 0.22974 0.956 0.0
C346 C 0.79976 0.3042 0.94827 0.0
C347 C 0.78351 0.31587 0.9303 0.0
C348 C 0.76545 0.33401 0.93806 0.0
C349 C 0.76336 0.34088 0.964 0.0
C350 C 0.77998 0.32927 0.98186 0.0
C351 C 0.79773 0.31093 0.9741 0.0
P352 P 0.80951 0.77239 0.04206 0.0
H353 H 0.86631 0.7681 0.03835 0.0
H354 H 0.89383 0.73869 0.01545 0.0
H355 H 0.82699 0.71427 0.97174 0.0
H356 H 0.79929 0.74272 0.996 0.0
H357 H 0.79495 0.81939 0.06549 0.0
H358 H 0.76229 0.85034 0.05435 0.0
H359 H 0.75143 0.81472 0.98093 0.0
H360 H 0.7837 0.78319 0.99273 0.0
H361 H 0.81283 0.71849 0.05016 0.0
H362 H 0.75432 0.77627 0.05777 0.0
O363 O 0.827 0.78086 0.06752 0.0
H364 H 0.77933 0.6869 0.05691 0.0
H365 H 0.721 0.74481 0.06467 0.0
C366 C 0.8307 0.7576 0.019 0.0
C367 C 0.85767 0.75695 0.02334 0.0
C368 C 0.87349 0.74012 0.01 0.0
C369 C 0.86262 0.7237 0.99192 0.0
C370 C 0.83597 0.72623 0.98586 0.0
C371 C 0.82012 0.74289 0.99944 0.0
C372 C 0.7921 0.79908 0.02987 0.0
C373 C 0.78623 0.81866 0.04664 0.0
C374 C 0.76741 0.83642 0.04019 0.0
C375 C 0.75402 0.83504 0.01672 0.0
C376 C 0.76103 0.81615 0.99931 0.0
C377 C 0.7798 0.79824 0.00592 0.0
C378 C 0.78592 0.74971 0.0523 0.0
C379 C 0.79288 0.72444 0.05352 0.0
C380 C 0.77378 0.7064 0.05747 0.0
C381 C 0.74756 0.71345 0.06088 0.0
C382 C 0.74108 0.73887 0.06206 0.0
C383 C 0.76014 0.75688 0.05782 0.0
P384 P 0.50731 0.77832 0.75545 0.0
H385 H 0.48298 0.79638 0.7086 0.0
H386 H 0.50074 0.81761 0.67164 0.0
H387 H 0.57897 0.80053 0.69755 0.0
H388 H 0.56075 0.77959 0.73519 0.0
H389 H 0.48811 0.72821 0.74559 0.0
H390 H 0.49335 0.68931 0.76918 0.0
H391 H 0.55285 0.7237 0.81591 0.0
H392 H 0.54876 0.76173 0.79092 0.0
H393 H 0.52745 0.82948 0.74957 0.0
H394 H 0.50289 0.78136 0.8111 0.0
O395 O 0.47481 0.77796 0.75326 0.0
H396 H 0.53611 0.8626 0.78022 0.0
H397 H 0.51184 0.81454 0.84189 0.0
C398 C 0.52054 0.7862 0.72458 0.0
C399 C 0.50395 0.79641 0.70599 0.0
C400 C 0.5142 0.8086 0.6847 0.0
C401 C 0.54135 0.81101 0.68161 0.0
C402 C 0.55797 0.79932 0.69949 0.0
C403 C 0.54762 0.78704 0.72084 0.0
C404 C 0.51735 0.74812 0.76713 0.0
C405 C 0.50284 0.72708 0.76042 0.0
C406 C 0.50564 0.70491 0.77421 0.0
C407 C 0.5228 0.7035 0.79525 0.0
C408 C 0.53929 0.72392 0.80005 0.0
C409 C 0.53681 0.74591 0.78586 0.0
C410 C 0.51531 0.80251 0.77808 0.0
C411 C 0.52439 0.82575 0.76967 0.0
C412 C 0.52923 0.84481 0.7872 0.0
C413 C 0.525 0.84102 0.81345 0.0
C414 C 0.51585 0.81778 0.82183 0.0
C415 C 0.5107 0.79883 0.80424 0.0
P416 P 0.30446 0.52906 0.75647 0.0
H417 H 0.32784 0.5281 0.70559 0.0
H418 H 0.31356 0.54632 0.66521 0.0
H419 H 0.25533 0.58957 0.70605 0.0
H420 H 0.27162 0.57311 0.74618 0.0
H421 H 0.35444 0.50544 0.76868 0.0
H422 H 0.38822 0.51555 0.7996 0.0
H423 H 0.34908 0.58523 0.81631 0.0
H424 H 0.31491 0.5747 0.78529 0.0
H425 H 0.24882 0.52731 0.74354 0.0
H426 H 0.29572 0.52679 0.81211 0.0
O427 O 0.30983 0.49994 0.74649 0.0
H428 H 0.20911 0.52655 0.76958 0.0
H429 H 0.25609 0.52537 0.8381 0.0
C430 C 0.29978 0.54828 0.72863 0.0
C431 C 0.31255 0.54212 0.7058 0.0
C432 C 0.30411 0.55241 0.68267 0.0
C433 C 0.28227 0.56851 0.68197 0.0
C434 C 0.27193 0.57704 0.70542 0.0
C435 C 0.28099 0.56732 0.72858 0.0
C436 C 0.33205 0.53922 0.77493 0.0
C437 C 0.35336 0.52315 0.77855 0.0
C438 C 0.37283 0.52906 0.79617 0.0
C439 C 0.37129 0.55115 0.81058 0.0
C440 C 0.35067 0.56795 0.80572 0.0
C441 C 0.33123 0.56205 0.78793 0.0
C442 C 0.27527 0.52831 0.77585 0.0
C443 C 0.25061 0.52745 0.76417 0.0
C444 C 0.22793 0.52692 0.77903 0.0
C445 C 0.22957 0.52626 0.80582 0.0
C446 C 0.2543 0.52606 0.81746 0.0
C447 C 0.27696 0.52706 0.8026 0.0
P448 P 0.51058 0.24346 0.7655 0.0
H449 H 0.52988 0.2458 0.71335 0.0
H450 H 0.52143 0.21994 0.67597 0.0
H451 H 0.456 0.18648 0.71491 0.0
H452 H 0.46451 0.21273 0.7523 0.0
H453 H 0.54627 0.28568 0.76779 0.0
H454 H 0.54179 0.32603 0.78822 0.0
H455 H 0.45872 0.31467 0.79559 0.0
H456 H 0.46337 0.27391 0.77461 0.0
H457 H 0.50574 0.19023 0.77586 0.0
H458 H 0.49313 0.25888 0.81723 0.0
O459 O 0.54278 0.23856 0.76488 0.0
H460 H 0.49612 0.16672 0.81462 0.0
H461 H 0.48222 0.23565 0.85526 0.0
C462 C 0.49825 0.23081 0.73585 0.0
C463 C 0.51321 0.23347 0.71359 0.0
C464 C 0.50832 0.2186 0.69216 0.0
C465 C 0.48831 0.20072 0.69257 0.0
C466 C 0.4719 0.19967 0.71415 0.0
C467 C 0.47668 0.21478 0.73553 0.0
C468 C 0.50521 0.2765 0.77008 0.0
C469 C 0.52688 0.29211 0.77285 0.0
C470 C 0.52429 0.31536 0.78461 0.0
C471 C 0.49997 0.32341 0.79405 0.0
C472 C 0.47779 0.30882 0.78888 0.0
C473 C 0.48036 0.28567 0.7766 0.0
C474 C 0.49917 0.22639 0.79307 0.0
C475 C 0.49991 0.20027 0.79292 0.0
C476 C 0.49431 0.18682 0.81513 0.0
C477 C 0.48819 0.19929 0.83806 0.0
C478 C 0.48691 0.22543 0.83798 0.0
C479 C 0.49277 0.23882 0.81588 0.0
P480 P 0.72564 0.47163 0.76685 0.0
H481 H 0.67124 0.45739 0.75844 0.0
H482 H 0.63074 0.47639 0.7732 0.0
H483 H 0.67347 0.5421 0.79592 0.0
H484 H 0.71342 0.52356 0.77946 0.0
H485 H 0.74479 0.45791 0.71607 0.0
H486 H 0.78308 0.47099 0.69182 0.0
H487 H 0.79827 0.52826 0.74782 0.0
H488 H 0.75988 0.51502 0.77212 0.0
H489 H 0.70695 0.48555 0.81885 0.0
H490 H 0.77572 0.45272 0.78456 0.0
O491 O 0.71968 0.44261 0.75708 0.0
H492 H 0.72954 0.48823 0.85979 0.0
H493 H 0.79799 0.4545 0.82592 0.0
C494 C 0.69543 0.48892 0.76822 0.0
C495 C 0.67172 0.4763 0.76562 0.0
C496 C 0.64854 0.48711 0.77443 0.0
C497 C 0.64881 0.51046 0.7867 0.0
C498 C 0.67225 0.52412 0.78664 0.0
C499 C 0.69531 0.5135 0.77721 0.0
C500 C 0.74957 0.48537 0.74598 0.0
C501 C 0.75599 0.47361 0.72289 0.0
C502 C 0.778 0.481 0.70913 0.0
C503 C 0.79391 0.50038 0.71816 0.0
C504 C 0.78636 0.51331 0.74037 0.0
C505 C 0.76437 0.50579 0.75422 0.0
C506 C 0.74 0.46974 0.79829 0.0
C507 C 0.72685 0.47888 0.81997 0.0
C508 C 0.73967 0.48025 0.84351 0.0
C509 C 0.76551 0.47178 0.84589 0.0
C510 C 0.778 0.46109 0.82458 0.0
C511 C 0.76534 0.46015 0.80096 0.0
P512 P 0.44852 0.26585 0.27119 0.0
H513 H 0.42217 0.2481 0.31703 0.0
H514 H 0.43673 0.2222 0.3523 0.0
H515 H 0.51641 0.22832 0.32586 0.0
H516 H 0.50139 0.25403 0.28999 0.0
H517 H 0.43066 0.31784 0.27028 0.0
H518 H 0.4467 0.35414 0.24709 0.0
H519 H 0.51558 0.31245 0.22506 0.0
H520 H 0.4997 0.27657 0.24883 0.0
H521 H 0.46015 0.21188 0.27155 0.0
H522 H 0.44681 0.26959 0.21549 0.0
O523 O 0.41642 0.27079 0.27368 0.0
H524 H 0.47231 0.18298 0.23763 0.0
H525 H 0.45942 0.24078 0.18145 0.0
C526 C 0.46069 0.25332 0.30097 0.0
C527 C 0.44288 0.24459 0.31918 0.0
C528 C 0.45131 0.22969 0.33948 0.0
C529 C 0.47781 0.22302 0.342 0.0
C530 C 0.49584 0.23286 0.32439 0.0
C531 C 0.48733 0.24787 0.30405 0.0
C532 C 0.46388 0.29441 0.26114 0.0
C533 C 0.44957 0.31674 0.26109 0.0
C534 C 0.45865 0.33744 0.24754 0.0
C535 C 0.48221 0.33614 0.23371 0.0
C536 C 0.49745 0.31429 0.23555 0.0
C537 C 0.4884 0.29367 0.24923 0.0
C538 C 0.45357 0.24324 0.24615 0.0
C539 C 0.45983 0.21842 0.25199 0.0
C540 C 0.46679 0.20184 0.23254 0.0
C541 C 0.46734 0.20973 0.20691 0.0
C542 C 0.4592 0.23411 0.20099 0.0
C543 C 0.45221 0.25067 0.22047 0.0
P544 P 0.72519 0.56401 0.26939 0.0
H545 H 0.66887 0.56525 0.26142 0.0
H546 H 0.63991 0.53881 0.2366 0.0
H547 H 0.70287 0.48592 0.22546 0.0
H548 H 0.73192 0.51289 0.25005 0.0
H549 H 0.75012 0.59765 0.30441 0.0
H550 H 0.77184 0.59109 0.34499 0.0
H551 H 0.74046 0.51645 0.34839 0.0
H552 H 0.71982 0.52298 0.3067 0.0
H553 H 0.74302 0.58618 0.22136 0.0
H554 H 0.77353 0.536 0.27857 0.0
O555 O 0.71265 0.59243 0.26484 0.0
H556 H 0.78406 0.58284 0.19754 0.0
H557 H 0.81466 0.53322 0.25549 0.0
C558 C 0.70267 0.54134 0.25704 0.0
C559 C 0.67631 0.54772 0.25411 0.0
C560 C 0.65968 0.53241 0.24001 0.0
C561 C 0.66911 0.51031 0.22867 0.0
C562 C 0.69509 0.50301 0.23348 0.0
C563 C 0.71171 0.51839 0.24763 0.0
C564 C 0.7332 0.56091 0.30268 0.0
C565 C 0.74722 0.58014 0.31428 0.0
C566 C 0.75964 0.57632 0.33768 0.0
C567 C 0.75819 0.55312 0.35012 0.0
C568 C 0.74247 0.5344 0.3392 0.0
C569 C 0.73031 0.53819 0.31551 0.0
C570 C 0.75541 0.56175 0.25196 0.0
C571 C 0.75864 0.57468 0.22893 0.0
C572 C 0.78216 0.57286 0.21543 0.0
C573 C 0.80274 0.5579 0.2247 0.0
C574 C 0.79919 0.54475 0.24768 0.0
C575 C 0.7757 0.54653 0.26106 0.0
P576 P 0.62087 0.76353 0.25645 0.0
H577 H 0.63857 0.77268 0.30903 0.0
H578 H 0.61811 0.7951 0.34449 0.0
H579 H 0.54546 0.79766 0.30261 0.0
H580 H 0.56612 0.77553 0.26712 0.0
H581 H 0.64578 0.73384 0.21716 0.0
H582 H 0.63021 0.70001 0.19012 0.0
H583 H 0.55987 0.69578 0.23551 0.0
H584 H 0.57557 0.72986 0.26239 0.0
H585 H 0.64298 0.81299 0.24769 0.0
H586 H 0.58054 0.76829 0.21716 0.0
O587 O 0.65301 0.76324 0.26173 0.0
H588 H 0.62839 0.84827 0.22135 0.0
H589 H 0.56617 0.80308 0.19088 0.0
C590 C 0.6039 0.77234 0.28537 0.0
C591 C 0.61803 0.77736 0.30776 0.0
C592 C 0.60629 0.79023 0.32807 0.0
C593 C 0.58024 0.7985 0.32623 0.0
C594 C 0.56568 0.79192 0.30446 0.0
C595 C 0.5774 0.77898 0.28425 0.0
C596 C 0.61195 0.7343 0.2419 0.0
C597 C 0.62736 0.72511 0.2218 0.0
C598 C 0.61842 0.70572 0.20631 0.0
C599 C 0.59368 0.69528 0.21047 0.0
C600 C 0.57887 0.70365 0.23155 0.0
C601 C 0.58791 0.72304 0.2471 0.0
C602 C 0.61321 0.78786 0.234 0.0
C603 C 0.62657 0.81058 0.23489 0.0
C604 C 0.61819 0.8307 0.21991 0.0
C605 C 0.59605 0.82844 0.2042 0.0
C606 C 0.58311 0.80547 0.20302 0.0
C607 C 0.59154 0.78542 0.21785 0.0
P608 P 0.29518 0.64562 0.25786 0.0
H609 H 0.27356 0.65972 0.30804 0.0
H610 H 0.24073 0.63999 0.33521 0.0
H611 H 0.24087 0.57578 0.28528 0.0
H612 H 0.27388 0.5954 0.25864 0.0
H613 H 0.34044 0.66645 0.23264 0.0
H614 H 0.3762 0.64604 0.21073 0.0
H615 H 0.35836 0.57738 0.25041 0.0
H616 H 0.32113 0.59767 0.27039 0.0
H617 H 0.23984 0.65164 0.24652 0.0
H618 H 0.30956 0.63178 0.2044 0.0
O619 O 0.2969 0.67572 0.2656 0.0
H620 H 0.21325 0.63752 0.21043 0.0
H621 H 0.28317 0.61875 0.16851 0.0
C622 C 0.27644 0.62891 0.28149 0.0
C623 C 0.26704 0.64112 0.30336 0.0
C624 C 0.24798 0.62993 0.31869 0.0
C625 C 0.23791 0.60636 0.31233 0.0
C626 C 0.24833 0.59377 0.29101 0.0
C627 C 0.26736 0.60494 0.27577 0.0
C628 C 0.32764 0.63347 0.25259 0.0
C629 C 0.34476 0.64719 0.23724 0.0
C630 C 0.36539 0.63529 0.22459 0.0
C631 C 0.36984 0.60953 0.22776 0.0
C632 C 0.35483 0.59684 0.24621 0.0
C633 C 0.33362 0.60857 0.25812 0.0
C634 C 0.27676 0.64241 0.22861 0.0
C635 C 0.24951 0.64504 0.22936 0.0
C636 C 0.23433 0.63699 0.2088 0.0
C637 C 0.2463 0.62694 0.18693 0.0
C638 C 0.27357 0.62656 0.18518 0.0
C639 C 0.28871 0.63404 0.20594 0.0
P640 P 0.76791 0.76511 0.44085 0.0
H641 H 0.77749 0.71432 0.42234 0.0
H642 H 0.80582 0.68114 0.43826 0.0
H643 H 0.81741 0.7224 0.5083 0.0
H644 H 0.78981 0.75587 0.49186 0.0
H645 H 0.71822 0.77809 0.4168 0.0
H646 H 0.6815 0.80297 0.43167 0.0
H647 H 0.71313 0.80185 0.5083 0.0
H648 H 0.75032 0.77744 0.49302 0.0
H649 H 0.82513 0.76569 0.44257 0.0
H650 H 0.76226 0.81951 0.44599 0.0
O651 O 0.76456 0.75975 0.40958 0.0
H652 H 0.85642 0.79841 0.45272 0.0
H653 H 0.7934 0.85214 0.45628 0.0
C654 C 0.7814 0.73763 0.4559 0.0
C655 C 0.78551 0.71596 0.44141 0.0
C656 C 0.80177 0.69692 0.45058 0.0
C657 C 0.81427 0.69925 0.47442 0.0
C658 C 0.8085 0.72019 0.48965 0.0
C659 C 0.79226 0.7392 0.48046 0.0
C660 C 0.73703 0.77562 0.45379 0.0
C661 C 0.7169 0.78242 0.43698 0.0
C662 C 0.69577 0.79674 0.44557 0.0
C663 C 0.69438 0.8047 0.47119 0.0
C664 C 0.71373 0.79638 0.48837 0.0
C665 C 0.73489 0.78204 0.47971 0.0
C666 C 0.7912 0.7899 0.44462 0.0
C667 C 0.81801 0.7845 0.44551 0.0
C668 C 0.8359 0.80321 0.4513 0.0
C669 C 0.82731 0.82774 0.45574 0.0
C670 C 0.80063 0.83341 0.45299 0.0
C671 C 0.78275 0.81465 0.44736 0.0
P672 P 0.76909 0.26602 0.44609 0.0
H673 H 0.71499 0.25899 0.42981 0.0
H674 H 0.67937 0.23494 0.44801 0.0
H675 H 0.72491 0.22272 0.51654 0.0
H676 H 0.76081 0.24627 0.49778 0.0
H677 H 0.79536 0.30571 0.41876 0.0
H678 H 0.81688 0.34365 0.43321 0.0
H679 H 0.7878 0.3312 0.50963 0.0
H680 H 0.76585 0.29337 0.49494 0.0
H681 H 0.78418 0.21852 0.423 0.0
H682 H 0.81099 0.26554 0.48447 0.0
O683 O 0.76349 0.26618 0.41463 0.0
H684 H 0.81661 0.18684 0.43504 0.0
H685 H 0.84323 0.23427 0.49637 0.0
C686 C 0.74068 0.25417 0.46228 0.0
C687 C 0.71713 0.2516 0.44896 0.0
C688 C 0.69666 0.2379 0.45952 0.0
C689 C 0.69934 0.22657 0.48368 0.0
C690 C 0.72235 0.23075 0.4977 0.0
C691 C 0.74284 0.24442 0.48707 0.0
C692 C 0.77875 0.29685 0.45569 0.0
C693 C 0.79283 0.31157 0.43843 0.0
C694 C 0.80518 0.33325 0.44671 0.0
C695 C 0.8041 0.34031 0.47256 0.0
C696 C 0.78903 0.3261 0.48962 0.0
C697 C 0.77633 0.30459 0.4812 0.0
C698 C 0.79541 0.24459 0.45253 0.0
C699 C 0.79738 0.22227 0.4387 0.0
C700 C 0.81588 0.2042 0.44558 0.0
C701 C 0.83236 0.20808 0.4667 0.0
C702 C 0.83063 0.23068 0.48016 0.0
C703 C 0.81229 0.24872 0.47319 0.0
P704 P 0.28455 0.74228 0.48055 0.0
H705 H 0.33585 0.7487 0.4573 0.0
H706 H 0.372 0.77619 0.46763 0.0
H707 H 0.33402 0.79643 0.53849 0.0
H708 H 0.29787 0.76848 0.52812 0.0
H709 H 0.28275 0.68798 0.47877 0.0
H710 H 0.25403 0.65844 0.49951 0.0
H711 H 0.22614 0.71659 0.55004 0.0
H712 H 0.25463 0.74637 0.52841 0.0
H713 H 0.28832 0.79656 0.4731 0.0
H714 H 0.22794 0.74077 0.47373 0.0
O715 O 0.29058 0.7286 0.45247 0.0
H716 H 0.25554 0.82891 0.46659 0.0
H717 H 0.195 0.77315 0.46673 0.0
C718 C 0.3142 0.75636 0.49204 0.0
C719 C 0.33558 0.75841 0.47545 0.0
C720 C 0.35617 0.77439 0.48124 0.0
C721 C 0.35571 0.78879 0.50369 0.0
C722 C 0.33505 0.78548 0.52111 0.0
C723 C 0.3144 0.76943 0.51527 0.0
C724 C 0.27056 0.71946 0.50177 0.0
C725 C 0.27104 0.69429 0.49477 0.0
C726 C 0.25457 0.67729 0.50684 0.0
C727 C 0.23733 0.68513 0.52627 0.0
C728 C 0.23874 0.70998 0.53482 0.0
C729 C 0.25527 0.72699 0.52267 0.0
C730 C 0.26053 0.76627 0.4748 0.0
C731 C 0.26802 0.79121 0.472 0.0
C732 C 0.24924 0.80973 0.46799 0.0
C733 C 0.22263 0.80363 0.46638 0.0
C734 C 0.21528 0.77851 0.46842 0.0
C735 C 0.23411 0.75998 0.47237 0.0
P736 P 0.28743 0.24685 0.55432 0.0
H737 H 0.34366 0.24282 0.56346 0.0
H738 H 0.37666 0.21586 0.54444 0.0
H739 H 0.32263 0.19594 0.4844 0.0
H740 H 0.28939 0.22258 0.50406 0.0
H741 H 0.27535 0.29367 0.58021 0.0
H742 H 0.25186 0.33101 0.56692 0.0
H743 H 0.24603 0.30159 0.49019 0.0
H744 H 0.26939 0.26394 0.50383 0.0
H745 H 0.29005 0.19321 0.5613 0.0
H746 H 0.22996 0.24851 0.54846 0.0
O747 O 0.29771 0.25039 0.5844 0.0
H748 H 0.25778 0.16017 0.55661 0.0
H749 H 0.19766 0.2155 0.54378 0.0
C750 C 0.31397 0.23459 0.53533 0.0
C751 C 0.33912 0.2333 0.54577 0.0
C752 C 0.35808 0.21783 0.53475 0.0
C753 C 0.35222 0.20336 0.51304 0.0
C754 C 0.32766 0.20646 0.50135 0.0
C755 C 0.30873 0.22199 0.51239 0.0
C756 C 0.27448 0.27612 0.54293 0.0
C757 C 0.26956 0.29542 0.56038 0.0
C758 C 0.25609 0.31685 0.55273 0.0
C759 C 0.24701 0.31933 0.52748 0.0
C760 C 0.25255 0.30018 0.50984 0.0
C761 C 0.26617 0.27875 0.51752 0.0
C762 C 0.26257 0.22328 0.5545 0.0
C763 C 0.26989 0.19826 0.55764 0.0
C764 C 0.25148 0.1794 0.55491 0.0
C765 C 0.22532 0.18528 0.54948 0.0
C766 C 0.21771 0.21045 0.54796 0.0
C767 C 0.23623 0.22933 0.55044 0.0
Zn768 Zn 0.95179 0.99833 0.45792 0.0
Zn769 Zn 0.96795 0.05362 0.47838 0.0
O770 O 0.98081 0.01846 0.47454 0.0
H771 H 0.99624 0.01158 0.48254 0.0
C772 C 0.9329 0.9638 0.53469 0.0
O773 O 0.935 0.98579 0.52389 0.0
Zn774 Zn 0.07188 0.0453 0.5479 0.0
Zn775 Zn 0.07107 0.98691 0.56443 0.0
O776 O 0.0488 0.01535 0.5512 0.0
H777 H 0.03285 0.01303 0.54165 0.0
Zn778 Zn 0.96295 0.98977 0.57279 0.0
O779 O 0.97471 0.0167 0.54848 0.0
Zn780 Zn 0.9801 0.04693 0.56957 0.0
H781 H 0.98211 0.0138 0.53174 0.0
Zn782 Zn 0.052 0.97755 0.45629 0.0
O783 O 0.06106 0.0058 0.48024 0.0
H784 H 0.06802 0.00404 0.49732 0.0
Zn785 Zn 0.06012 0.03626 0.45839 0.0
C786 C 0.0948 0.94471 0.44805 0.0
O787 O 0.10022 0.96357 0.43298 0.0
O788 O 0.91982 0.02 0.44856 0.0
O789 O 0.93174 0.05734 0.46284 0.0
O790 O 0.10823 0.99817 0.5728 0.0
O791 O 0.10731 0.03896 0.56488 0.0
O792 O 0.95517 0.00181 0.60964 0.0
O793 O 0.96887 0.041 0.60647 0.0
C794 C 0.01468 0.07059 0.4526 0.0
O795 O 0.05067 0.98849 0.41853 0.0
O796 O 0.06553 0.02729 0.42095 0.0
O797 O 0.05535 0.96367 0.59225 0.0
C798 C 0.91533 0.04319 0.45172 0.0
O799 O 0.96198 0.97019 0.43204 0.0
C800 C 0.03135 0.07326 0.57311 0.0
O801 O 0.94301 0.96027 0.55661 0.0
C802 C 0.11902 0.01948 0.57309 0.0
O803 O 0.07404 0.9455 0.46133 0.0
C804 C 0.9561 0.07671 0.5305 0.0
O805 O 0.99123 0.07638 0.45775 0.0
O806 O 0.02457 0.05134 0.46293 0.0
C807 C 0.95932 0.02314 0.61958 0.0
O808 O 0.05521 0.07422 0.56678 0.0
O809 O 0.01799 0.05474 0.56591 0.0
C810 C 0.09003 0.06283 0.49508 0.0
O811 O 0.95864 0.07485 0.55462 0.0
O812 O 0.96834 0.06127 0.51634 0.0
C813 C 0.05894 0.00826 0.40783 0.0
O814 O 0.08767 0.0601 0.47102 0.0
O815 O 0.07459 0.05095 0.50965 0.0
C816 C 0.03106 0.95999 0.59527 0.0
O817 O 0.01438 0.97082 0.57971 0.0
C818 C 0.98445 0.96005 0.43276 0.0
O819 O 0.00105 0.96715 0.45042 0.0
Zn820 Zn 0.47714 0.06001 0.06274 0.0
Zn821 Zn 0.49129 0.06694 0.00323 0.0
O822 O 0.49397 0.04308 0.03234 0.0
H823 H 0.50138 0.0265 0.03202 0.0
C824 C 0.55427 0.11261 0.06676 0.0
O825 O 0.54247 0.10699 0.04521 0.0
Zn826 Zn 0.5608 0.97993 0.97801 0.0
Zn827 Zn 0.57854 0.99532 0.03536 0.0
O828 O 0.55552 0.00486 0.00592 0.0
H829 H 0.54078 0.01613 0.00669 0.0
Zn830 Zn 0.59562 0.08368 0.04284 0.0
O831 O 0.57328 0.05983 0.02325 0.0
Zn832 Zn 0.58535 0.06409 0.98741 0.0
H833 H 0.55694 0.05297 0.0291 0.0
Zn834 Zn 0.47449 0.97111 0.05371 0.0
O835 O 0.49664 0.97057 0.02155 0.0
H836 H 0.51397 0.96353 0.01997 0.0
Zn837 Zn 0.4713 0.97785 0.99369 0.0
C838 C 0.51641 0.95503 0.08807 0.0
O839 O 0.53082 0.96637 0.0709 0.0
O840 O 0.46177 0.09466 0.05445 0.0
O841 O 0.47507 0.09981 0.0143 0.0
O842 O 0.59738 0.96244 0.02858 0.0
O843 O 0.58433 0.95096 0.98973 0.0
O844 O 0.6288 0.09499 0.0241 0.0
O845 O 0.62281 0.07765 0.98584 0.0
C846 C 0.45969 0.03104 0.97526 0.0
O847 O 0.43608 0.96175 0.04652 0.0
O848 O 0.43489 0.9659 0.00418 0.0
O849 O 0.60245 0.02226 0.05075 0.0
C850 C 0.46317 0.10777 0.03419 0.0
O851 O 0.4549 0.03787 0.08648 0.0
C852 C 0.58732 0.01886 0.95092 0.0
O853 O 0.57763 0.1053 0.07033 0.0
C854 C 0.598 0.94727 0.00986 0.0
O855 O 0.49173 0.95509 0.08552 0.0
C856 C 0.53681 0.08806 0.97511 0.0
O857 O 0.46591 0.05382 0.97721 0.0
O858 O 0.47235 0.01514 0.98847 0.0
C859 C 0.63678 0.09012 0.00154 0.0
O860 O 0.57964 0.99649 0.94822 0.0
O861 O 0.58026 0.03053 0.9709 0.0
C862 C 0.50782 0.95979 0.956 0.0
O863 O 0.56121 0.08879 0.97089 0.0
O864 O 0.52776 0.07127 0.98966 0.0
C865 C 0.42381 0.96041 0.02534 0.0
O866 O 0.48365 0.96018 0.96148 0.0
O867 O 0.52352 0.9704 0.9712 0.0
C868 C 0.62305 0.02796 0.03857 0.0
O869 O 0.62774 0.01728 0.01642 0.0
C870 C 0.43714 0.02421 0.07706 0.0
O871 O 0.4337 0.0239 0.05215 0.0
Zn872 Zn 0.96222 0.47946 0.96789 0.0
Zn873 Zn 0.95627 0.53893 0.96905 0.0
O874 O 0.98219 0.51149 0.96231 0.0
H875 H 0.99826 0.51242 0.9527 0.0
C876 C 0.99159 0.44348 0.05511 0.0
O877 O 0.01032 0.45365 0.04157 0.0
Zn878 Zn 0.07356 0.55352 0.05019 0.0
Zn879 Zn 0.08555 0.4972 0.07002 0.0
O880 O 0.05674 0.52039 0.05719 0.0
H881 H 0.03957 0.51529 0.05173 0.0
Zn882 Zn 0.98496 0.49469 0.07683 0.0
O883 O 0.98366 0.51716 0.0454 0.0
Zn884 Zn 0.98259 0.5509 0.06166 0.0
H885 H 0.99055 0.51301 0.02872 0.0
Zn886 Zn 0.05118 0.49508 0.9684 0.0
O887 O 0.04161 0.52617 0.98814 0.0
H888 H 0.03161 0.52634 0.0038 0.0
Zn889 Zn 0.04268 0.55388 0.9624 0.0
C890 C 0.05412 0.44272 0.9849 0.0
O891 O 0.03369 0.44093 0.96985 0.0
O892 O 0.92268 0.48534 0.96627 0.0
O893 O 0.91915 0.52654 0.96269 0.0
O894 O 0.11989 0.51581 0.07744 0.0
O895 O 0.11171 0.55287 0.06 0.0
O896 O 0.96458 0.51021 0.10707 0.0
O897 O 0.96218 0.54983 0.09484 0.0
C898 C 0.9882 0.57372 0.94349 0.0
O899 O 0.07195 0.50365 0.93598 0.0
O900 O 0.06587 0.54456 0.93181 0.0
O901 O 0.07673 0.46636 0.09294 0.0
C902 C 0.90888 0.50488 0.96293 0.0
O903 O 0.97383 0.44921 0.94592 0.0
C904 C 0.03242 0.57967 0.0751 0.0
O905 O 0.97891 0.45684 0.07096 0.0
C906 C 0.12704 0.53777 0.07146 0.0
O907 O 0.0645 0.46393 0.9882 0.0
C908 C 0.95895 0.57145 0.01512 0.0
O909 O 0.96425 0.56832 0.94625 0.0
O910 O 0.00491 0.55927 0.9537 0.0
C911 C 0.95671 0.53252 0.11066 0.0
O912 O 0.05687 0.58016 0.07149 0.0
O913 O 0.0198 0.56121 0.06637 0.0
C914 C 0.06543 0.58379 0.00212 0.0
O915 O 0.96587 0.57564 0.03806 0.0
O916 O 0.96155 0.54967 0.0058 0.0
C917 C 0.07609 0.52404 0.92421 0.0
O918 O 0.05645 0.5847 0.97947 0.0
O919 O 0.06678 0.56276 0.01333 0.0
C920 C 0.06883 0.44581 0.08372 0.0
O921 O 0.06529 0.44393 0.05892 0.0
C922 C 0.97527 0.42723 0.95481 0.0
O923 O 0.97027 0.42341 0.97912 0.0
Zn924 Zn 0.49891 0.48661 0.00047 0.0
Zn925 Zn 0.48888 0.47929 0.0608 0.0
O926 O 0.50416 0.50288 0.03526 0.0
H927 H 0.51494 0.51706 0.03922 0.0
C928 C 0.53795 0.44406 0.93358 0.0
O929 O 0.55421 0.46248 0.92947 0.0
Zn930 Zn 0.5614 0.55779 0.05163 0.0
Zn931 Zn 0.56322 0.5726 0.99477 0.0
O932 O 0.55972 0.54168 0.01705 0.0
H933 H 0.55241 0.52578 0.01232 0.0
Zn934 Zn 0.55304 0.45507 0.9868 0.0
O935 O 0.53658 0.45589 0.02228 0.0
Zn936 Zn 0.56616 0.46187 0.04676 0.0
H937 H 0.52048 0.4476 0.02657 0.0
Zn938 Zn 0.46488 0.57087 0.98694 0.0
O939 O 0.49082 0.5646 0.01551 0.0
H940 H 0.50831 0.55817 0.01319 0.0
Zn941 Zn 0.4708 0.56699 0.04853 0.0
C942 C 0.49926 0.59446 0.94771 0.0
O943 O 0.51607 0.59566 0.96664 0.0
O944 O 0.47349 0.4572 0.00226 0.0
O945 O 0.46367 0.45522 0.04367 0.0
O946 O 0.58879 0.59757 0.01074 0.0
O947 O 0.5879 0.58572 0.05147 0.0
O948 O 0.59249 0.44745 0.98921 0.0
O949 O 0.60032 0.44898 0.03117 0.0
C950 C 0.46436 0.52184 0.08539 0.0
O951 O 0.4292 0.58281 1.00005 0.0
O952 O 0.4343 0.58145 0.04237 0.0
O953 O 0.56586 0.56853 0.95536 0.0
C954 C 0.46042 0.44793 0.02062 0.0
O955 O 0.49068 0.50873 0.96903 0.0
C956 C 0.57291 0.50904 0.07569 0.0
O957 O 0.53331 0.43755 0.95654 0.0
C958 C 0.59662 0.59972 0.03376 0.0
O959 O 0.47698 0.58493 0.95169 0.0
C960 C 0.53517 0.44662 0.08861 0.0
O961 O 0.46988 0.49884 0.08813 0.0
O962 O 0.47058 0.53232 0.06437 0.0
C963 C 0.60789 0.44486 0.00821 0.0
O964 O 0.57147 0.53257 0.07814 0.0
O965 O 0.5679 0.49891 0.05422 0.0
C966 C 0.51476 0.58736 0.0739 0.0
O967 O 0.55814 0.444 0.07976 0.0
O968 O 0.51903 0.45985 0.07599 0.0
C969 C 0.42056 0.58641 0.0226 0.0
O970 O 0.49021 0.58995 0.07203 0.0
O971 O 0.52564 0.57099 0.05982 0.0
C972 C 0.5539 0.55177 0.94292 0.0
O973 O 0.53876 0.53619 0.95525 0.0
C974 C 0.46833 0.51908 0.96958 0.0
O975 O 0.45395 0.51667 0.99025 0.0
Zn976 Zn 0.954 0.49015 0.47967 0.0
Zn977 Zn 0.96562 0.54863 0.47805 0.0
O978 O 0.98331 0.51541 0.47886 0.0
H979 H 0.00148 0.51217 0.48264 0.0
C980 C 0.92862 0.4725 0.53014 0.0
O981 O 0.92277 0.4963 0.52841 0.0
Zn982 Zn 0.07351 0.56144 0.56549 0.0
Zn983 Zn 0.09401 0.50846 0.56426 0.0
O984 O 0.0616 0.52766 0.57567 0.0
H985 H 0.04388 0.52159 0.57558 0.0
Zn986 Zn 0.97023 0.49214 0.5628 0.0
O987 O 0.98302 0.52284 0.54433 0.0
Zn988 Zn 0.97928 0.55182 0.56838 0.0
H989 H 0.99559 0.52222 0.53057 0.0
Zn990 Zn 0.08721 0.49233 0.45953 0.0
O991 O 0.06763 0.51387 0.48516 0.0
H992 H 0.06239 0.50932 0.50228 0.0
Zn993 Zn 0.0636 0.54747 0.46886 0.0
C994 C 0.12956 0.46432 0.48458 0.0
O995 O 0.13654 0.48696 0.49114 0.0
O996 O 0.9191 0.50525 0.46793 0.0
O997 O 0.92864 0.54542 0.46366 0.0
O998 O 0.12777 0.52898 0.56833 0.0
O999 O 0.11125 0.56654 0.5763 0.0
O1000 O 0.95478 0.50034 0.59793 0.0
O1001 O 0.9592 0.54148 0.60079 0.0
C1002 C 0.01214 0.57038 0.45432 0.0
O1003 O 0.10163 0.51254 0.42929 0.0
O1004 O 0.08064 0.54875 0.43336 0.0
O1005 O 0.09616 0.4722 0.57756 0.0
C1006 C 0.91262 0.52734 0.46162 0.0
O1007 O 0.96132 0.45537 0.4642 0.0
C1008 C 0.02553 0.58366 0.58271 0.0
O1009 O 0.94869 0.46591 0.54281 0.0
C1010 C 0.13077 0.55174 0.57459 0.0
O1011 O 0.10885 0.46142 0.47153 0.0
C1012 C 0.95383 0.57796 0.52744 0.0
O1013 O 0.98729 0.5711 0.45539 0.0
O1014 O 0.02474 0.5559 0.46914 0.0
C1015 C 0.9511 0.52077 0.6098 0.0
O1016 O 0.04999 0.58739 0.58139 0.0
O1017 O 0.01637 0.56339 0.57405 0.0
C1018 C 0.08681 0.5745 0.51274 0.0
O1019 O 0.95817 0.57911 0.55132 0.0
O1020 O 0.96477 0.56068 0.51464 0.0
C1021 C 0.0965 0.53447 0.42133 0.0
O1022 O 0.08559 0.57158 0.48871 0.0
O1023 O 0.071 0.56299 0.52716 0.0
C1024 C 0.07552 0.45928 0.57908 0.0
O1025 O 0.05341 0.4688 0.57075 0.0
C1026 C 0.98239 0.45117 0.45211 0.0
O1027 O 0.00015 0.4687 0.45098 0.0
Zn1028 Zn 0.48281 0.97292 0.46513 0.0
Zn1029 Zn 0.46496 0.02999 0.47266 0.0
O1030 O 0.49548 0.00852 0.46178 0.0
H1031 H 0.50812 0.01262 0.44876 0.0
C1032 C 0.47354 0.93537 0.53032 0.0
O1033 O 0.4721 0.95437 0.51455 0.0
Zn1034 Zn 0.58303 0.05695 0.54003 0.0
Zn1035 Zn 0.60537 0.00149 0.55167 0.0
O1036 O 0.5726 0.02109 0.54286 0.0
H1037 H 0.55706 0.01397 0.53543 0.0
Zn1038 Zn 0.50299 0.97118 0.5625 0.0
O1039 O 0.50007 0.00132 0.53896 0.0
Zn1040 Zn 0.49595 0.03104 0.56202 0.0
H1041 H 0.50641 0.00175 0.52156 0.0
Zn1042 Zn 0.55301 0.99495 0.45734 0.0
O1043 O 0.55667 0.02591 0.47971 0.0
H1044 H 0.55559 0.00985 0.47145 0.0
Zn1045 Zn 0.54858 0.05411 0.45554 0.0
C1046 C 0.58522 0.95742 0.48544 0.0
O1047 O 0.59513 0.97726 0.49642 0.0
O1048 O 0.44287 0.97226 0.46144 0.0
O1049 O 0.43097 0.01226 0.46294 0.0
O1050 O 0.6354 0.02436 0.56345 0.0
O1051 O 0.61998 0.06196 0.55326 0.0
O1052 O 0.4949 0.97997 0.59999 0.0
O1053 O 0.48599 0.02056 0.59801 0.0
C1054 C 0.49016 0.07205 0.45096 0.0
O1055 O 0.56102 0.00313 0.41967 0.0
O1056 O 0.56063 0.04461 0.41964 0.0
O1057 O 0.601 0.96724 0.57005 0.0
C1058 C 0.42543 0.98922 0.4598 0.0
O1059 O 0.50194 0.94608 0.44285 0.0
C1060 C 0.5372 0.07094 0.56856 0.0
O1061 O 0.48613 0.93772 0.55112 0.0
C1062 C 0.6379 0.04798 0.5625 0.0
O1063 O 0.56683 0.96013 0.46933 0.0
C1064 C 0.46212 0.05413 0.52437 0.0
O1065 O 0.46744 0.06385 0.45576 0.0
O1066 O 0.50947 0.05806 0.45636 0.0
C1067 C 0.48742 1.00018 0.61055 0.0
O1068 O 0.55977 0.07823 0.56208 0.0
O1069 O 0.53003 0.0493 0.56161 0.0
C1070 C 0.57762 0.08592 0.48916 0.0
O1071 O 0.46984 0.0551 0.54745 0.0
O1072 O 0.46831 0.03533 0.51075 0.0
C1073 C 0.56417 0.02382 0.40817 0.0
O1074 O 0.56709 0.08531 0.46714 0.0
O1075 O 0.57573 0.06679 0.50337 0.0
C1076 C 0.58277 0.95225 0.56427 0.0
O1077 O 0.56633 0.95835 0.546 0.0
C1078 C 0.51045 0.92525 0.45106 0.0
O1079 O 0.50829 0.91998 0.4755 0.0
H1080 H 0.23253 0.14508 0.51837 0.0
H1081 H 0.08931 0.09056 0.53886 0.0
H1082 H 0.17519 0.18016 0.56719 0.0
H1083 H 0.13766 0.07218 0.47412 0.0
H1084 H 0.12323 0.11862 0.5545 0.0
H1085 H 0.20053 0.11335 0.50694 0.0
C1086 C 0.21327 0.14591 0.52692 0.0
C1087 C 0.20645 0.16525 0.54374 0.0
C1088 C 0.12649 0.10828 0.53698 0.0
C1089 C 0.16975 0.12915 0.53063 0.0
C1090 C 0.10726 0.09205 0.52827 0.0
C1091 C 0.11081 0.07882 0.50543 0.0
C1092 C 0.14951 0.11116 0.52276 0.0
C1093 C 0.13415 0.08208 0.49185 0.0
C1094 C 0.19499 0.12792 0.52025 0.0
C1095 C 0.18113 0.16566 0.55398 0.0
N1096 N 0.15266 0.09789 0.50075 0.0
N1097 N 0.16366 0.14783 0.54727 0.0
H1098 H 0.83976 0.19218 0.51561 0.0
H1099 H 0.95569 0.09772 0.48248 0.0
H1100 H 0.86553 0.17867 0.43824 0.0
H1101 H 0.91558 0.09937 0.55492 0.0
H1102 H 0.92496 0.12887 0.46598 0.0
H1103 H 0.86976 0.15997 0.53063 0.0
C1104 C 0.85188 0.18249 0.50179 0.0
C1105 C 0.85033 0.18822 0.47567 0.0
C1106 C 0.92278 0.12222 0.48541 0.0
C1107 C 0.88463 0.15114 0.49271 0.0
C1108 C 0.94021 0.10429 0.49475 0.0
C1109 C 0.93792 0.09552 0.51989 0.0
C1110 C 0.90316 0.13167 0.50151 0.0
C1111 C 0.91805 0.1055 0.53535 0.0
C1112 C 0.86887 0.16398 0.51035 0.0
C1113 C 0.86611 0.17474 0.45854 0.0
N1114 N 0.90148 0.12303 0.52593 0.0
N1115 N 0.88276 0.15688 0.46738 0.0
H1116 H 0.86518 0.82267 0.49214 0.0
H1117 H 0.90654 0.96612 0.48922 0.0
H1118 H 0.83097 0.87662 0.44076 0.0
H1119 H 0.92782 0.91521 0.54977 0.0
H1120 H 0.88296 0.93249 0.468 0.0
H1121 H 0.8929 0.85526 0.50985 0.0
C1122 C 0.86377 0.84131 0.48433 0.0
C1123 C 0.84571 0.84696 0.46497 0.0
C1124 C 0.89281 0.92869 0.48591 0.0
C1125 C 0.87711 0.88443 0.48543 0.0
C1126 C 0.90629 0.94787 0.49805 0.0
C1127 C 0.919 0.94351 0.52143 0.0
C1128 C 0.89218 0.90495 0.49714 0.0
C1129 C 0.91814 0.91946 0.53187 0.0
C1130 C 0.87943 0.85995 0.49461 0.0
C1131 C 0.84443 0.87153 0.45586 0.0
N1132 N 0.90493 0.90109 0.51966 0.0
N1133 N 0.85989 0.88939 0.46621 0.0
H1134 H 0.17497 0.80813 0.48989 0.0
H1135 H 0.14051 0.93785 0.42208 0.0
H1136 H 0.22482 0.8443 0.43483 0.0
H1137 H 0.09045 0.90275 0.47774 0.0
H1138 H 0.17087 0.90292 0.4256 0.0
H1139 H 0.14293 0.84166 0.4846 0.0
C1140 C 0.17909 0.82302 0.47653 0.0
C1141 C 0.20266 0.82344 0.46282 0.0
C1142 C 0.15324 0.9028 0.43703 0.0
C1143 C 0.1662 0.862 0.45689 0.0
C1144 C 0.13586 0.92276 0.43503 0.0
C1145 C 0.11294 0.92327 0.44972 0.0
C1146 C 0.1477 0.88314 0.45384 0.0
C1147 C 0.10793 0.90315 0.46611 0.0
C1148 C 0.16085 0.84223 0.47364 0.0
C1149 C 0.2071 0.84339 0.44606 0.0
N1150 N 0.12522 0.88391 0.46777 0.0
N1151 N 0.18906 0.86186 0.44359 0.0
H1152 H 0.51058 0.18004 0.21011 0.0
H1153 H 0.50544 0.13386 0.06469 0.0
H1154 H 0.44974 0.20246 0.1577 0.0
H1155 H 0.57117 0.12262 0.11517 0.0
H1156 H 0.48265 0.15608 0.09908 0.0
H1157 H 0.53058 0.15531 0.17628 0.0
C1158 C 0.5012 0.17949 0.19156 0.0
C1159 C 0.4784 0.19331 0.18676 0.0
C1160 C 0.50207 0.14875 0.10258 0.0
C1161 C 0.50156 0.16534 0.14766 0.0
C1162 C 0.51508 0.13605 0.08298 0.0
C1163 C 0.54028 0.12642 0.08705 0.0
C1164 C 0.51433 0.15169 0.12641 0.0
C1165 C 0.55183 0.12981 0.11111 0.0
C1166 C 0.51279 0.16554 0.17215 0.0
C1167 C 0.46745 0.19227 0.16215 0.0
N1168 N 0.53876 0.14213 0.12985 0.0
N1169 N 0.47916 0.17854 0.14348 0.0
H1170 H 0.82977 0.59449 0.19938 0.0
H1171 H 0.93878 0.50013 0.14703 0.0
H1172 H 0.83255 0.51598 0.21718 0.0
H1173 H 0.93238 0.57676 0.12253 0.0
H1174 H 0.90351 0.50736 0.17745 0.0
H1175 H 0.87017 0.58974 0.17485 0.0
C1176 C 0.83883 0.57625 0.19811 0.0
C1177 C 0.82764 0.55558 0.21029 0.0
C1178 C 0.90995 0.52266 0.16558 0.0
C1179 C 0.87408 0.5501 0.18256 0.0
C1180 C 0.93021 0.51858 0.14824 0.0
C1181 C 0.93836 0.53777 0.1319 0.0
C1182 C 0.89766 0.54609 0.16659 0.0
C1183 C 0.92658 0.56133 0.13455 0.0
C1184 C 0.86199 0.5736 0.18426 0.0
C1185 C 0.84055 0.5325 0.20838 0.0
N1186 N 0.90663 0.56476 0.15136 0.0
N1187 N 0.86298 0.53039 0.1947 0.0
H1188 H 0.62296 0.86244 0.17523 0.0
H1189 H 0.49234 0.93022 0.12705 0.0
H1190 H 0.54537 0.84375 0.20067 0.0
H1191 H 0.56854 0.94558 0.09562 0.0
H1192 H 0.51249 0.90215 0.15796 0.0
H1193 H 0.60441 0.8965 0.14962 0.0
C1194 C 0.60207 0.86565 0.17559 0.0
C1195 C 0.58563 0.85007 0.18979 0.0
C1196 C 0.52486 0.91176 0.14443 0.0
C1197 C 0.56431 0.88882 0.16065 0.0
C1198 C 0.51335 0.92785 0.12677 0.0
C1199 C 0.52874 0.94008 0.10854 0.0
C1200 C 0.55198 0.90776 0.14385 0.0
C1201 C 0.55591 0.93641 0.10925 0.0
C1202 C 0.59149 0.885 0.16092 0.0
C1203 C 0.5587 0.85499 0.18957 0.0
N1204 N 0.56666 0.9204 0.12648 0.0
N1205 N 0.5489 0.87384 0.17515 0.0
H1206 H 0.2133 0.58887 0.19567 0.0
H1207 H 0.15185 0.58143 0.05945 0.0
H1208 H 0.24497 0.63382 0.13492 0.0
H1209 H 0.15728 0.51728 0.10907 0.0
H1210 H 0.18478 0.60232 0.08562 0.0
H1211 H 0.1895 0.56439 0.16402 0.0
C1212 C 0.21495 0.5937 0.17562 0.0
C1213 C 0.23071 0.6135 0.16778 0.0
C1214 C 0.17913 0.58346 0.09035 0.0
C1215 C 0.2039 0.58553 0.13155 0.0
C1216 C 0.16039 0.5715 0.07544 0.0
C1217 C 0.15145 0.54772 0.08236 0.0
C1218 C 0.18849 0.57171 0.11249 0.0
C1219 C 0.16335 0.53568 0.10315 0.0
C1220 C 0.20172 0.57955 0.15758 0.0
C1221 C 0.23275 0.61876 0.14158 0.0
N1222 N 0.18083 0.54804 0.11785 0.0
N1223 N 0.21918 0.605 0.12429 0.0
H1224 H 0.50722 0.88877 0.80889 0.0
H1225 H 0.55223 0.93189 0.94847 0.0
H1226 H 0.54988 0.84028 0.85992 0.0
H1227 H 0.48269 0.9585 0.9106 0.0
H1228 H 0.5616 0.90521 0.91113 0.0
H1229 H 0.50852 0.92159 0.84133 0.0
C1230 C 0.51727 0.8852 0.82675 0.0
C1231 C 0.52826 0.86174 0.83187 0.0
C1232 C 0.54457 0.91726 0.91094 0.0
C1233 C 0.52981 0.89914 0.86895 0.0
C1234 C 0.53934 0.93253 0.93206 0.0
C1235 C 0.51657 0.94713 0.93254 0.0
C1236 C 0.52717 0.91718 0.89015 0.0
C1237 C 0.50032 0.94727 0.91098 0.0
C1238 C 0.5179 0.90387 0.84526 0.0
C1239 C 0.54086 0.85803 0.85542 0.0
N1240 N 0.50589 0.93246 0.89068 0.0
N1241 N 0.5412 0.87653 0.87321 0.0
H1242 H 0.21847 0.49378 0.84431 0.0
H1243 H 0.08983 0.56261 0.89206 0.0
H1244 H 0.18631 0.55642 0.80316 0.0
H1245 H 0.10714 0.48543 0.90864 0.0
H1246 H 0.126 0.56277 0.86119 0.0
H1247 H 0.17912 0.49265 0.87079 0.0
C1248 C 0.20309 0.50732 0.84092 0.0
C1249 C 0.20559 0.52524 0.82161 0.0
C1250 C 0.1216 0.54578 0.87144 0.0
C1251 C 0.16059 0.52416 0.85183 0.0
C1252 C 0.10098 0.54566 0.88904 0.0
C1253 C 0.09549 0.52403 0.90313 0.0
C1254 C 0.13702 0.52427 0.86828 0.0
C1255 C 0.11062 0.50259 0.89836 0.0
C1256 C 0.18059 0.50658 0.85589 0.0
C1257 C 0.18501 0.54224 0.81781 0.0
N1258 N 0.13083 0.50337 0.88162 0.0
N1259 N 0.16341 0.54145 0.83297 0.0
H1260 H 0.46505 0.15384 0.84698 0.0
H1261 H 0.54172 0.13806 0.97706 0.0
H1262 H 0.50733 0.21262 0.88489 0.0
H1263 H 0.49499 0.07982 0.94417 0.0
H1264 H 0.52141 0.16802 0.94806 0.0
H1265 H 0.46854 0.12865 0.88588 0.0
C1266 C 0.47476 0.16158 0.86355 0.0
C1267 C 0.48622 0.18527 0.86249 0.0
C1268 C 0.51504 0.14883 0.94749 0.0
C1269 C 0.49017 0.15664 0.90705 0.0
C1270 C 0.52657 0.1318 0.96413 0.0
C1271 C 0.5199 0.10661 0.96286 0.0
C1272 C 0.49735 0.14039 0.92889 0.0
C1273 C 0.50034 0.09922 0.94581 0.0
C1274 C 0.47658 0.14727 0.88581 0.0
C1275 C 0.49808 0.19455 0.88473 0.0
N1276 N 0.4901 0.11598 0.92901 0.0
N1277 N 0.50005 0.1801 0.9059 0.0
H1278 H 0.79416 0.43774 0.87285 0.0
H1279 H 0.87441 0.54028 0.94488 0.0
H1280 H 0.77071 0.515 0.8728 0.0
H1281 H 0.88064 0.46184 0.96242 0.0
H1282 H 0.83358 0.53208 0.9222 0.0
H1283 H 0.82348 0.44618 0.90868 0.0
C1284 C 0.79498 0.45641 0.88068 0.0
C1285 C 0.78024 0.47575 0.86983 0.0
C1286 C 0.84363 0.51677 0.93149 0.0
C1287 C 0.81395 0.48571 0.91047 0.0
C1288 C 0.86693 0.52145 0.94451 0.0
C1289 C 0.88135 0.50164 0.95504 0.0
C1290 C 0.83493 0.49211 0.9288 0.0
C1291 C 0.87053 0.47765 0.95412 0.0
C1292 C 0.8116 0.46124 0.90117 0.0
C1293 C 0.78179 0.49959 0.88072 0.0
N1294 N 0.84828 0.47349 0.94076 0.0
N1295 N 0.79874 0.50403 0.90017 0.0
H1296 H 0.74249 0.67607 0.02636 0.0
H1297 H 0.61065 0.61938 0.08032 0.0
H1298 H 0.70481 0.70856 0.09234 0.0
H1299 H 0.63125 0.61967 1.00022 0.0
H1300 H 0.64825 0.6464 0.08908 0.0
H1301 H 0.70552 0.64807 0.02114 0.0
C1302 C 0.72662 0.67697 0.04004 0.0
C1303 C 0.72666 0.69459 0.05984 0.0
C1304 C 0.64434 0.64056 0.06963 0.0
C1305 C 0.68422 0.66286 0.05376 0.0
C1306 C 0.62298 0.6252 0.06461 0.0
C1307 C 0.61784 0.61733 0.03949 0.0
C1308 C 0.66085 0.64749 0.04946 0.0
C1309 C 0.63438 0.6254 0.01983 0.0
C1310 C 0.70543 0.6612 0.03688 0.0
C1311 C 0.70538 0.69527 0.07677 0.0
N1312 N 0.65527 0.63983 0.02528 0.0
N1313 N 0.68491 0.67956 0.07337 0.0
H1314 H 0.32899 0.71607 0.03438 0.0
H1315 H 0.37868 0.58564 0.99042 0.0
H1316 H 0.27771 0.66573 0.99418 0.0
H1317 H 0.40626 0.61868 0.06057 0.0
H1318 H 0.34173 0.61474 0.99051 0.0
H1319 H 0.35821 0.68121 0.04345 0.0
C1320 C 0.32358 0.69772 0.02773 0.0
C1321 C 0.3008 0.69406 0.01322 0.0
C1322 C 0.35558 0.61527 0.00615 0.0
C1323 C 0.33472 0.65414 0.02309 0.0
C1324 C 0.37663 0.59869 0.00611 0.0
C1325 C 0.39558 0.5999 0.02543 0.0
C1326 C 0.35392 0.63358 0.02525 0.0
C1327 C 0.39204 0.61713 0.04534 0.0
C1328 C 0.34038 0.67781 0.0329 0.0
C1329 C 0.29533 0.66974 0.00478 0.0
N1330 N 0.3719 0.63372 0.04444 0.0
N1331 N 0.31235 0.6508 0.00951 0.0
H1332 H 0.35038 0.35439 0.94093 0.0
H1333 H 0.42489 0.42655 0.05325 0.0
H1334 H 0.32608 0.35259 0.01997 0.0
H1335 H 0.44899 0.4275 0.97406 0.0
H1336 H 0.38916 0.39865 0.04178 0.0
H1337 H 0.387 0.38088 0.95296 0.0
C1338 C 0.35275 0.35957 0.96082 0.0
C1339 C 0.3351 0.3513 0.97945 0.0
C1340 C 0.40235 0.40492 0.02695 0.0
C1341 C 0.37696 0.38168 0.99339 0.0
C1342 C 0.42282 0.42078 0.0335 0.0
C1343 C 0.43994 0.4295 0.01459 0.0
C1344 C 0.39898 0.39774 0.00131 0.0
C1345 C 0.43624 0.42138 0.9893 0.0
C1346 C 0.37363 0.37474 0.96768 0.0
C1347 C 0.33897 0.35884 0.0049 0.0
N1348 N 0.41614 0.40605 0.98342 0.0
N1349 N 0.3595 0.37356 0.01112 0.0
H1350 H 0.73466 0.34079 0.0085 0.0
H1351 H 0.63522 0.44501 0.96333 0.0
H1352 H 0.74575 0.38295 0.939 0.0
H1353 H 0.64043 0.42074 0.04187 0.0
H1354 H 0.67575 0.42266 0.95398 0.0
H1355 H 0.70028 0.36981 0.02113 0.0
C1356 C 0.7302 0.35632 0.99601 0.0
C1357 C 0.74322 0.35926 0.97252 0.0
C1358 C 0.66823 0.42248 0.97333 0.0
C1359 C 0.70322 0.39232 0.98676 0.0
C1360 C 0.64506 0.43522 0.97869 0.0
C1361 C 0.6343 0.43458 0.00338 0.0
C1362 C 0.68053 0.40861 0.99268 0.0
C1363 C 0.64801 0.42172 0.02257 0.0
C1364 C 0.71042 0.37285 0.00324 0.0
C1365 C 0.73599 0.37954 0.957 0.0
N1366 N 0.67022 0.40892 0.01672 0.0
N1367 N 0.71634 0.39513 0.96428 0.0
H1368 H 0.94372 0.66059 0.70045 0.0
H1369 H 0.02776 0.6338 0.57626 0.0
H1370 H 0.97262 0.71864 0.651 0.0
H1371 H 0.9864 0.57663 0.61703 0.0
H1372 H 0.00429 0.66547 0.60102 0.0
H1373 H 0.95501 0.62982 0.66783 0.0
C1374 C 0.95199 0.66695 0.68256 0.0
C1375 C 0.95761 0.69223 0.67865 0.0
C1376 C -0.00015 0.64601 0.60419 0.0
C1377 C 0.97107 0.65701 0.64141 0.0
C1378 C 0.01325 0.62799 0.59007 0.0
C1379 C 0.00861 0.60267 0.59445 0.0
C1380 C 0.98218 0.63858 0.62326 0.0
C1381 C 0.98984 0.59598 0.61262 0.0
C1382 C 0.95856 0.64932 0.66397 0.0
C1383 C 0.96856 0.69928 0.65513 0.0
N1384 N 0.97755 0.61383 0.62666 0.0
N1385 N 0.97524 0.68175 0.63756 0.0
H1386 H 0.40229 0.9402 0.73566 0.0
H1387 H 0.46351 0.0375 0.63795 0.0
H1388 H 0.37249 0.01446 0.72281 0.0
H1389 H 0.48704 0.96025 0.64315 0.0
H1390 H 0.43795 0.03247 0.67699 0.0
H1391 H 0.44067 0.95034 0.70975 0.0
C1392 C 0.40409 0.95876 0.72776 0.0
C1393 C 0.38402 0.97636 0.73086 0.0
C1394 C 0.44905 0.01673 0.6698 0.0
C1395 C 0.42759 0.98806 0.70123 0.0
C1396 C 0.46372 0.0196 0.64753 0.0
C1397 C 0.47686 0.99908 0.63685 0.0
C1398 C 0.44747 0.99317 0.68139 0.0
C1399 C 0.47673 0.97646 0.65036 0.0
C1400 C 0.42591 0.96453 0.71293 0.0
C1401 C 0.38728 1.00017 0.72031 0.0
N1402 N 0.46187 0.97399 0.67169 0.0
N1403 N 0.40848 0.00523 0.7057 0.0
H1404 H 0.02958 0.33722 0.67517 0.0
H1405 H 0.11775 0.4342 0.59871 0.0
H1406 H 0.11374 0.33738 0.67861 0.0
H1407 H 0.03395 0.42975 0.59122 0.0
H1408 H 0.11712 0.39704 0.62566 0.0
H1409 H 0.03112 0.36964 0.64251 0.0
C1410 C 0.0484 0.34413 0.66905 0.0
C1411 C 0.07156 0.33481 0.67983 0.0
C1412 C 0.0989 0.40406 0.61794 0.0
C1413 C 0.07351 0.37184 0.64228 0.0
C1414 C 0.09924 0.42528 0.60253 0.0
C1415 C 0.07583 0.43526 0.5929 0.0
C1416 C 0.07496 0.39282 0.6239 0.0
C1417 C 0.05246 0.42282 0.59835 0.0
C1418 C 0.04929 0.36252 0.65028 0.0
C1419 C 0.09543 0.34403 0.67078 0.0
N1420 N 0.0526 0.4024 0.61367 0.0
N1421 N 0.09578 0.3622 0.65267 0.0
H1422 H 0.71651 0.14169 0.67005 0.0
H1423 H 0.6812 0.02501 0.58252 0.0
H1424 H 0.75376 0.06956 0.67572 0.0
H1425 H 0.645 0.09739 0.57401 0.0
H1426 H 0.71235 0.04295 0.61242 0.0
H1427 H 0.69374 0.12753 0.63156 0.0
C1428 C 0.72 0.12294 0.66315 0.0
C1429 C 0.73698 0.10677 0.67625 0.0
C1430 C 0.69782 0.05501 0.60378 0.0
C1431 C 0.71115 0.0905 0.63214 0.0
C1432 C 0.68005 0.04477 0.58659 0.0
C1433 C 0.66012 0.05959 0.57605 0.0
C1434 C 0.69554 0.08022 0.61072 0.0
C1435 C 0.65984 0.08516 0.58187 0.0
C1436 C 0.70715 0.11493 0.64107 0.0
C1437 C 0.74108 0.0828 0.66617 0.0
N1438 N 0.67699 0.09458 0.59915 0.0
N1439 N 0.7281 0.07535 0.6449 0.0
H1440 H 0.0353 0.3404 0.34383 0.0
H1441 H 0.94713 0.41346 0.44589 0.0
H1442 H 0.95455 0.32298 0.35867 0.0
H1443 H 0.02462 0.43633 0.42376 0.0
H1444 H 0.95108 0.3775 0.41748 0.0
H1445 H 0.03315 0.37305 0.37627 0.0
C1446 C 0.01716 0.34332 0.35408 0.0
C1447 C 0.99506 0.32895 0.34853 0.0
C1448 C 0.96727 0.39032 0.41895 0.0
C1449 C 0.99239 0.36647 0.38558 0.0
C1450 C 0.96508 0.41081 0.43524 0.0
C1451 C 0.98551 0.42805 0.43705 0.0
C1452 C 0.99008 0.38699 0.40442 0.0
C1453 C 0.00831 0.42361 0.42284 0.0
C1454 C 0.01591 0.36205 0.37251 0.0
C1455 C 0.97196 0.33381 0.36214 0.0
N1456 N 0.00993 0.40358 0.40703 0.0
N1457 N 0.97122 0.35217 0.38003 0.0
H1458 H 0.66478 0.97896 0.28675 0.0
H1459 H 0.57743 0.06364 0.3779 0.0
H1460 H 0.6606 0.0591 0.28132 0.0
H1461 H 0.57645 0.98318 0.37879 0.0
H1462 H 0.60283 0.06224 0.3384 0.0
H1463 H 0.62791 0.97984 0.31646 0.0
C1464 C 0.65589 0.99671 0.29158 0.0
C1465 C 0.66593 0.01899 0.28174 0.0
C1466 C 0.59673 0.04489 0.34704 0.0
C1467 C 0.62386 0.02021 0.31582 0.0
C1468 C 0.58217 0.04569 0.36961 0.0
C1469 C 0.5752 0.0235 0.382 0.0
C1470 C 0.60455 0.02176 0.33691 0.0
C1471 C 0.58171 1.00079 0.37017 0.0
C1472 C 0.63478 0.99722 0.30847 0.0
C1473 C 0.65343 0.04145 0.28834 0.0
N1474 N 0.59635 1.00051 0.34852 0.0
N1475 N 0.6333 0.04151 0.30525 0.0
H1476 H 0.0845 0.69301 0.37831 0.0
H1477 H -0.00028 0.57398 0.40421 0.0
H1478 H 0.05494 0.64676 0.31747 0.0
H1479 H 0.05458 0.60053 0.46026 0.0
H1480 H 0.01979 0.60097 0.37219 0.0
H1481 H 0.07452 0.6598 0.40898 0.0
C1482 C 0.07627 0.67572 0.37139 0.0
C1483 C 0.07037 0.67265 0.34537 0.0
C1484 C 0.02774 0.60067 0.39139 0.0
C1485 C 0.0586 0.63492 0.38023 0.0
C1486 C 0.01621 0.58539 0.40964 0.0
C1487 C 0.02567 0.58508 0.43474 0.0
C1488 C 0.04839 0.6163 0.39851 0.0
C1489 C 0.04702 0.60013 0.44095 0.0
C1490 C 0.07068 0.65678 0.38885 0.0
C1491 C 0.0599 0.64985 0.33734 0.0
N1492 N 0.05747 0.6155 0.42301 0.0
N1493 N 0.05395 0.63202 0.35476 0.0
H1494 H 0.28804 0.98332 0.36456 0.0
H1495 H 0.40549 0.94227 0.45618 0.0
H1496 H 0.3257 0.9113 0.36302 0.0
H1497 H 0.38613 0.01924 0.44085 0.0
H1498 H 0.36775 0.9295 0.43116 0.0
H1499 H 0.31596 0.99525 0.40072 0.0
C1500 C 0.30187 0.96989 0.37215 0.0
C1501 C 0.3048 0.94637 0.36072 0.0
C1502 C 0.37153 0.94919 0.43357 0.0
C1503 C 0.33655 0.9598 0.40192 0.0
C1504 C 0.39304 0.95655 0.44795 0.0
C1505 C 0.39936 0.9819 0.45017 0.0
C1506 C 0.35614 0.96726 0.42129 0.0
C1507 C 0.38219 0.99949 0.43941 0.0
C1508 C 0.31783 0.97674 0.39266 0.0
C1509 C 0.32309 0.92971 0.37111 0.0
N1510 N 0.36154 0.99183 0.42507 0.0
N1511 N 0.33834 0.93678 0.39105 0.0
H1512 H 0.05672 0.19108 0.35279 0.0
H1513 H 0.02556 0.0543 0.40486 0.0
H1514 H 0.02508 0.13198 0.30656 0.0
H1515 H 0.03137 0.11874 0.45349 0.0
H1516 H 0.03849 0.07977 0.36817 0.0
H1517 H 0.06026 0.16201 0.38887 0.0
C1518 C 0.05121 0.1718 0.35004 0.0
C1519 C 0.04046 0.16391 0.32672 0.0
C1520 C 0.03762 0.08824 0.38696 0.0
C1521 C 0.04427 0.1307 0.36787 0.0
C1522 C 0.0307 0.0736 0.40795 0.0
C1523 C 0.02819 0.08435 0.43224 0.0
C1524 C 0.04173 0.11389 0.39029 0.0
C1525 C 0.03358 0.10976 0.43506 0.0
C1526 C 0.05302 0.15531 0.37068 0.0
C1527 C 0.03328 0.13883 0.32429 0.0
N1528 N 0.03998 0.12375 0.41429 0.0
N1529 N 0.03514 0.12316 0.34465 0.0
H1530 H 0.85011 0.10098 0.31887 0.0
H1531 H 0.90908 0.09172 0.43667 0.0
H1532 H 0.7882 0.05632 0.35036 0.0
H1533 H 0.87071 0.02032 0.43553 0.0
H1534 H 0.87761 0.10716 0.40513 0.0
H1535 H 0.87174 0.1006 0.36061 0.0
C1536 C 0.84074 0.09172 0.3348 0.0
C1537 C 0.81743 0.07861 0.33121 0.0
C1538 C 0.87593 0.08823 0.41206 0.0
C1539 C 0.84196 0.07797 0.37888 0.0
C1540 C 0.89366 0.07947 0.4303 0.0
C1541 C 0.89285 0.05449 0.43828 0.0
C1542 C 0.85728 0.07189 0.40196 0.0
C1543 C 0.87236 0.03954 0.42947 0.0
C1544 C 0.85295 0.09166 0.35867 0.0
C1545 C 0.80609 0.06679 0.35239 0.0
N1546 N 0.85555 0.04839 0.41154 0.0
N1547 N 0.81881 0.06621 0.37517 0.0
H1548 H 0.98714 0.85141 0.30932 0.0
H1549 H 0.03147 0.93599 0.42798 0.0
H1550 H 0.06158 0.84443 0.34745 0.0
H1551 H 0.95453 0.93979 0.3945 0.0
H1552 H 0.04337 0.90371 0.39719 0.0
H1553 H 0.97516 0.88478 0.33915 0.0
C1554 C 0.00095 0.85683 0.32395 0.0
C1555 C 0.02548 0.84509 0.32571 0.0
C1556 C 0.02386 0.91156 0.39656 0.0
C1557 C 0.01196 0.88345 0.35984 0.0
C1558 C 0.01704 0.93003 0.41418 0.0
C1559 C 0.9919 0.94057 0.41395 0.0
C1560 C 0.00543 0.90347 0.3785 0.0
C1561 C 0.9741 0.93215 0.39546 0.0
C1562 C 0.99415 0.87597 0.34091 0.0
C1563 C 0.04266 0.85316 0.34495 0.0
N1564 N 0.98119 0.91409 0.37851 0.0
N1565 N 0.03557 0.87176 0.3612 0.0
H1566 H 0.15277 0.0175 0.27465 0.0
H1567 H 0.04571 0.97185 0.37367 0.0
H1568 H 0.1277 0.94143 0.2852 0.0
H1569 H 0.08476 0.04281 0.37853 0.0
H1570 H 0.06415 0.96578 0.33117 0.0
H1571 H 0.11724 0.03128 0.30265 0.0
C1572 C 0.13963 0.0037 0.2824 0.0
C1573 C 0.14392 0.97812 0.27805 0.0
C1574 C 0.06829 0.9829 0.34132 0.0
C1575 C 0.1029 0.99393 0.30962 0.0
C1576 C 0.05776 0.98641 0.36562 0.0
C1577 C 0.06443 0.00751 0.38006 0.0
C1578 C 0.08575 1.00051 0.33143 0.0
C1579 C 0.07962 0.02598 0.36833 0.0
C1580 C 0.11925 0.01165 0.29826 0.0
C1581 C 0.12551 0.9613 0.28789 0.0
N1582 N 0.09027 0.0218 0.34488 0.0
N1583 N 0.10614 0.96947 0.30351 0.0
H1584 H 0.01831 0.868 0.73127 0.0
H1585 H 0.98145 0.94291 0.60374 0.0
H1586 H 0.94906 0.85381 0.68649 0.0
H1587 H 0.05961 0.93986 0.63453 0.0
H1588 H 0.96705 0.91489 0.63779 0.0
H1589 H 0.03174 0.89884 0.69946 0.0
C1590 C 0.00588 0.87133 0.71487 0.0
C1591 C 0.98242 0.85819 0.71175 0.0
C1592 C 0.98735 0.92039 0.63709 0.0
C1593 C 0.99757 0.8938 0.67545 0.0
C1594 C 0.99557 0.93641 0.61767 0.0
C1595 C 0.02183 0.94358 0.61613 0.0
C1596 C 0.00543 0.91167 0.65526 0.0
C1597 C 0.03923 0.93466 0.63484 0.0
C1598 C 0.01353 0.88903 0.69676 0.0
C1599 C 0.967 0.86372 0.69018 0.0
N1600 N 0.03072 0.91918 0.65362 0.0
N1601 N 0.97483 0.88105 0.67294 0.0
H1602 H 0.1957 0.03041 0.7146 0.0
H1603 H 0.1596 0.98672 0.57494 0.0
H1604 H 0.23419 0.96973 0.67537 0.0
H1605 H 0.13246 0.05647 0.60633 0.0
H1606 H 0.19178 0.98374 0.60915 0.0
H1607 H 0.17615 0.04344 0.67386 0.0
C1608 C 0.20022 0.01998 0.6974 0.0
C1609 C 0.21604 0.99857 0.6985 0.0
C1610 C 0.17924 1.00003 0.60833 0.0
C1611 C 0.19389 0.01336 0.65193 0.0
C1612 C 0.16101 0.0018 0.58865 0.0
C1613 C 0.14329 0.02175 0.58798 0.0
C1614 C 0.17927 0.01802 0.62788 0.0
C1615 C 0.14584 0.04079 0.60621 0.0
C1616 C 0.18912 0.02745 0.67416 0.0
C1617 C 0.2214 0.98585 0.6756 0.0
N1618 N 0.16306 0.03815 0.62586 0.0
N1619 N 0.21013 0.99326 0.65339 0.0
H1620 H 0.0063 0.14726 0.71464 0.0
H1621 H 0.03226 0.12357 0.56697 0.0
H1622 H 0.01859 0.20626 0.65999 0.0
H1623 H 0.00881 0.06596 0.61919 0.0
H1624 H 0.02208 0.15489 0.59967 0.0
H1625 H 0.00162 0.11779 0.67922 0.0
C1626 C 0.00765 0.15406 0.69519 0.0
C1627 C 0.01307 0.17921 0.69028 0.0
C1628 C 0.01845 0.13545 0.60381 0.0
C1629 C 0.00802 0.14561 0.64966 0.0
C1630 C 0.02418 0.11765 0.58512 0.0
C1631 C 0.02059 0.09233 0.59031 0.0
C1632 C 0.0098 0.12772 0.62807 0.0
C1633 C 0.01071 0.08541 0.61421 0.0
C1634 C 0.00492 0.13726 0.67496 0.0
C1635 C 0.0143 0.18708 0.66469 0.0
N1636 N 0.00597 0.10298 0.63237 0.0
N1637 N 0.01221 0.17028 0.64538 0.0
H1638 H 0.91295 0.09883 0.75766 0.0
H1639 H 0.92967 0.99346 0.65077 0.0
H1640 H 0.8563 0.04131 0.74251 0.0
H1641 H 0.96963 0.06406 0.64926 0.0
H1642 H 0.91092 0.00469 0.69225 0.0
H1643 H 0.94187 0.07985 0.72581 0.0
C1644 C 0.90669 0.08205 0.74801 0.0
C1645 C 0.8818 0.07204 0.75255 0.0
C1646 C 0.92411 0.01754 0.68296 0.0
C1647 C 0.91506 0.05005 0.71638 0.0
C1648 C 0.93486 0.01114 0.65929 0.0
C1649 C 0.95094 0.02802 0.64625 0.0
C1650 C 0.92962 0.04088 0.69376 0.0
C1651 C 0.95709 0.0506 0.6584 0.0
C1652 C 0.92328 0.0712 0.72989 0.0
C1653 C 0.87522 0.04979 0.7399 0.0
N1654 N 0.94624 0.05646 0.68135 0.0
N1655 N 0.89158 0.03976 0.7222 0.0
H1656 H 0.35313 0.97462 0.21 0.0
H1657 H 0.39351 0.99752 0.06408 0.0
H1658 H 0.30482 0.95293 0.14623 0.0
H1659 H 0.43989 0.01988 0.12903 0.0
H1660 H 0.36239 0.97801 0.0933 0.0
H1661 H 0.38641 0.98872 0.18013 0.0
C1662 C 0.34948 0.97293 0.18967 0.0
C1663 C 0.32602 0.96286 0.1806 0.0
C1664 C 0.37945 0.98709 0.10112 0.0
C1665 C 0.36426 0.97875 0.14616 0.0
C1666 C 0.39727 0.99817 0.08445 0.0
C1667 C 0.41924 0.01054 0.09414 0.0
C1668 C 0.38362 0.98847 0.12764 0.0
C1669 C 0.42313 0.01074 0.1207 0.0
C1670 C 0.36858 0.98083 0.1726 0.0
C1671 C 0.32265 0.96055 0.15404 0.0
N1672 N 0.40543 1.00003 0.13649 0.0
N1673 N 0.3415 0.96859 0.13773 0.0
H1674 H 0.05411 0.34767 0.21422 0.0
H1675 H 0.05334 0.39869 0.07022 0.0
H1676 H 0.0392 0.30089 0.14868 0.0
H1677 H 0.07485 0.44304 0.13574 0.0
H1678 H 0.0476 0.36275 0.09843 0.0
H1679 H 0.06223 0.38254 0.18557 0.0
C1680 C 0.05293 0.34455 0.19379 0.0
C1681 C 0.04598 0.32113 0.18396 0.0
C1682 C 0.05361 0.38033 0.10662 0.0
C1683 C 0.05467 0.36146 0.15086 0.0
C1684 C 0.05684 0.40091 0.09053 0.0
C1685 C 0.06462 0.42397 0.1006 0.0
C1686 C 0.05813 0.38281 0.13302 0.0
C1687 C 0.06883 0.42567 0.12709 0.0
C1688 C 0.05733 0.36463 0.1774 0.0
C1689 C 0.04417 0.3186 0.15723 0.0
N1690 N 0.06552 0.40542 0.14233 0.0
N1691 N 0.04838 0.33851 0.14166 0.0
H1692 H 0.70867 0.09472 0.15761 0.0
H1693 H 0.67332 0.03632 0.02292 0.0
H1694 H 0.76522 0.06137 0.10664 0.0
H1695 H 0.61778 0.05647 0.0816 0.0
H1696 H 0.7075 0.05768 0.04702 0.0
H1697 H 0.67672 0.09445 0.12321 0.0
C1698 C 0.71473 0.08816 0.13893 0.0
C1699 C 0.73952 0.07745 0.1352 0.0
C1700 C 0.68773 0.05775 0.05439 0.0
C1701 C 0.70262 0.07634 0.09596 0.0
C1702 C 0.66822 0.04553 0.04068 0.0
C1703 C 0.64283 0.04403 0.05065 0.0
C1704 C 0.68173 0.06859 0.07813 0.0
C1705 C 0.63724 0.05666 0.07351 0.0
C1706 C 0.6963 0.08774 0.11933 0.0
C1707 C 0.74608 0.06915 0.11053 0.0
N1708 N 0.6566 0.06813 0.08663 0.0
N1709 N 0.72754 0.06821 0.09198 0.0
H1710 H 0.98143 0.67501 0.1978 0.0
H1711 H 0.04069 0.62811 0.06484 0.0
H1712 H 0.03983 0.71341 0.15328 0.0
H1713 H 0.99775 0.57998 0.11536 0.0
H1714 H 0.02993 0.66352 0.09213 0.0
H1715 H 0.97794 0.64396 0.16362 0.0
C1716 C 0.99333 0.67718 0.18085 0.0
C1717 C 0.01126 0.69691 0.17882 0.0
C1718 C 0.02235 0.64535 0.09708 0.0
C1719 C 0.00682 0.66159 0.13936 0.0
C1720 C 0.02834 0.62516 0.08138 0.0
C1721 C 0.02001 0.60117 0.08787 0.0
C1722 C 0.00831 0.64151 0.11979 0.0
C1723 C 0.00419 0.59828 0.10956 0.0
C1724 C 0.99117 0.65946 0.16128 0.0
C1725 C 0.02553 0.6989 0.15593 0.0
N1726 N 0.9992 0.6182 0.12507 0.0
N1727 N 0.02314 0.68141 0.13733 0.0
H1728 H 0.32314 0.03734 0.87805 0.0
H1729 H 0.44287 0.98445 0.95994 0.0
H1730 H 0.34051 0.95903 0.88682 0.0
H1731 H 0.42432 0.0626 0.95341 0.0
H1732 H 0.40424 0.97462 0.935 0.0
H1733 H 0.35838 0.04691 0.908 0.0
C1734 C 0.33415 0.02216 0.88652 0.0
C1735 C 0.32891 0.99736 0.87984 0.0
C1736 C 0.40856 0.99393 0.93912 0.0
C1737 C 0.3694 0.00815 0.91392 0.0
C1738 C 0.43073 0.99954 0.95349 0.0
C1739 C 0.43698 0.02431 0.9591 0.0
C1740 C 0.39252 0.01332 0.93009 0.0
C1741 C 0.42044 0.04315 0.94958 0.0
C1742 C 0.35428 0.02762 0.90359 0.0
C1743 C 0.34363 0.9784 0.89159 0.0
N1744 N 0.39903 0.03727 0.93557 0.0
N1745 N 0.36335 0.98421 0.90785 0.0
H1746 H 0.99055 0.33125 0.82332 0.0
H1747 H 0.99201 0.38032 0.96774 0.0
H1748 H 0.03496 0.29463 0.88264 0.0
H1749 H 0.97255 0.42625 0.90273 0.0
H1750 H 0.00164 0.34561 0.93855 0.0
H1751 H 0.97669 0.36278 0.85423 0.0
C1752 C 0.99701 0.3296 0.84297 0.0
C1753 C 0.01395 0.3103 0.85042 0.0
C1754 C 0.99522 0.3633 0.93075 0.0
C1755 C 0.99846 0.34655 0.88583 0.0
C1756 C 0.98964 0.38304 0.94737 0.0
C1757 C 0.98148 0.40616 0.93764 0.0
C1758 C 0.99225 0.36669 0.90426 0.0
C1759 C 0.97894 0.40879 0.91106 0.0
C1760 C 0.98932 0.34775 0.86054 0.0
C1761 C 0.02206 0.30933 0.87608 0.0
N1762 N 0.98421 0.38928 0.89533 0.0
N1763 N 0.01427 0.32725 0.89289 0.0
H1764 H 0.69199 0.11737 0.8695 0.0
H1765 H 0.61872 0.99434 0.91707 0.0
H1766 H 0.71213 0.04297 0.84468 0.0
H1767 H 0.59799 0.06831 0.94233 0.0
H1768 H 0.65218 0.01213 0.88946 0.0
H1769 H 0.65767 0.09998 0.89651 0.0
C1770 C 0.68935 0.09737 0.86983 0.0
C1771 C 0.70499 0.08164 0.85465 0.0
C1772 C 0.64033 0.02452 0.90103 0.0
C1773 C 0.6653 0.06165 0.88519 0.0
C1774 C 0.62108 0.01438 0.9167 0.0
C1775 C 0.6058 0.02986 0.9324 0.0
C1776 C 0.6443 0.05039 0.90092 0.0
C1777 C 0.60976 0.05566 0.9311 0.0
C1778 C 0.66957 0.08747 0.8851 0.0
C1779 C 0.70033 0.05589 0.85566 0.0
N1780 N 0.62868 0.06513 0.91572 0.0
N1781 N 0.68092 0.04674 0.8706 0.0
H1782 H 0.98481 0.72343 0.88551 0.0
H1783 H 0.03049 0.58343 0.91235 0.0
H1784 H 0.01183 0.67611 0.82396 0.0
H1785 H 0.9615 0.61711 0.94488 0.0
H1786 H 0.03752 0.62182 0.88712 0.0
H1787 H 0.99089 0.68876 0.9152 0.0
C1788 C 0.99231 0.70592 0.87819 0.0
C1789 C 0.99707 0.70263 0.85192 0.0
C1790 C 0.02118 0.6208 0.90023 0.0
C1791 C 0.0049 0.66314 0.88615 0.0
C1792 C 0.01723 0.59907 0.91462 0.0
C1793 C 0.99533 0.5972 0.93063 0.0
C1794 C 0.00357 0.64085 0.90269 0.0
C1795 C 0.97859 0.61784 0.93279 0.0
C1796 C 0.99595 0.68623 0.89524 0.0
C1797 C 0.00777 0.67966 0.84394 0.0
N1798 N 0.98308 0.63879 0.91906 0.0
N1799 N 0.01103 0.66067 0.86094 0.0
H1800 H 0.12315 0.29852 0.9791 0.0
H1801 H 0.09759 0.4397 0.01524 0.0
H1802 H 0.17566 0.34254 0.02484 0.0
H1803 H 0.04107 0.39394 0.97634 0.0
H1804 H 0.12293 0.40242 0.02533 0.0
H1805 H 0.0896 0.33075 0.98419 0.0
C1806 C 0.12742 0.31476 0.99064 0.0
C1807 C 0.15235 0.31802 0.00125 0.0
C1808 C 0.10479 0.40044 0.01491 0.0
C1809 C 0.11421 0.35513 0.0069 0.0
C1810 C 0.09028 0.42176 0.00913 0.0
C1811 C 0.06735 0.42001 0.99457 0.0
C1812 C 0.09661 0.37718 0.00566 0.0
C1813 C 0.05879 0.39622 0.98733 0.0
C1814 C 0.10827 0.33315 0.99356 0.0
C1815 C 0.15673 0.33924 0.01632 0.0
N1816 N 0.07365 0.37579 0.99257 0.0
N1817 N 0.13803 0.35719 0.0183 0.0
H1818 H 0.16971 0.69746 0.04768 0.0
H1819 H 0.04273 0.62945 0.99774 0.0
H1820 H 0.10359 0.73598 0.01474 0.0
H1821 H 0.10735 0.59148 0.03346 0.0
H1822 H 0.0609 0.6693 0.0114 0.0
H1823 H 0.14355 0.65986 0.05094 0.0
C1824 C 0.14947 0.69829 0.04177 0.0
C1825 C 0.13901 0.71994 0.03052 0.0
C1826 C 0.07088 0.65226 0.01678 0.0
C1827 C 0.10908 0.67649 0.03355 0.0
C1828 C 0.0605 0.62951 0.00898 0.0
C1829 C 0.07358 0.60715 0.01459 0.0
C1830 C 0.09484 0.6527 0.02984 0.0
C1831 C 0.09645 0.60822 0.02922 0.0
C1832 C 0.13457 0.67664 0.04342 0.0
C1833 C 0.1127 0.7196 0.02296 0.0
N1834 N 0.10661 0.63064 0.03599 0.0
N1835 N 0.09879 0.69812 0.02422 0.0
H1836 H 0.34884 0.20194 0.9664 0.0
H1837 H 0.43245 0.12955 0.07114 0.0
H1838 H 0.32959 0.20309 0.04673 0.0
H1839 H 0.45543 0.13724 0.99205 0.0
H1840 H 0.39739 0.1598 0.06397 0.0
H1841 H 0.38956 0.18045 0.97638 0.0
C1842 C 0.35311 0.19745 0.98617 0.0
C1843 C 0.33557 0.2039 0.00573 0.0
C1844 C 0.41036 0.15515 0.0483 0.0
C1845 C 0.38254 0.17957 0.0174 0.0
C1846 C 0.4305 0.13795 0.0524 0.0
C1847 C 0.44661 0.13039 0.03202 0.0
C1848 C 0.40624 0.16474 0.02364 0.0
C1849 C 0.44329 0.14216 0.00826 0.0
C1850 C 0.37654 0.18543 0.9919 0.0
C1851 C 0.3425 0.1983 0.03107 0.0
N1852 N 0.42322 0.15841 0.00463 0.0
N1853 N 0.36536 0.18622 0.03617 0.0
H1854 H 0.94613 0.31481 0.96924 0.0
H1855 H 0.95257 0.41765 0.0787 0.0
H1856 H 0.88878 0.32385 0.02911 0.0
H1857 H 0.01062 0.41055 0.01925 0.0
H1858 H 0.93368 0.37829 0.06518 0.0
H1859 H 0.97433 0.34451 0.99139 0.0
C1860 C 0.93959 0.32278 0.98719 0.0
C1861 C 0.91486 0.31699 0.99714 0.0
C1862 C 0.95073 0.38514 0.05522 0.0
C1863 C 0.94693 0.35123 0.0224 0.0
C1864 C 0.96157 0.40768 0.06296 0.0
C1865 C 0.98283 0.41777 0.04967 0.0
C1866 C 0.96107 0.37259 0.0339 0.0
C1867 C 0.99393 0.40369 0.02975 0.0
C1868 C 0.95571 0.33975 0.99981 0.0
C1869 C 0.90767 0.32757 0.0207 0.0
N1870 N 0.98265 0.38201 0.02218 0.0
N1871 N 0.92343 0.34441 0.03229 0.0
H1872 H 0.74882 0.88434 0.02973 0.0
H1873 H 0.60777 0.91015 0.97423 0.0
H1874 H 0.70759 0.8245 0.99232 0.0
H1875 H 0.63486 0.9394 0.04649 0.0
H1876 H 0.64602 0.88206 0.97337 0.0
H1877 H 0.7094 0.90986 0.02735 0.0
C1878 C 0.73157 0.87654 0.02092 0.0
C1879 C 0.7315 0.852 0.01167 0.0
C1880 C 0.64325 0.89456 0.98942 0.0
C1881 C 0.68642 0.88143 0.00844 0.0
C1882 C 0.62146 0.91047 0.99001 0.0
C1883 C 0.61811 0.92731 0.01038 0.0
C1884 C 0.66194 0.89604 0.009 0.0
C1885 C 0.63654 0.92692 0.0303 0.0
C1886 C 0.7091 0.89116 0.01954 0.0
C1887 C 0.70866 0.84332 0.99965 0.0
N1888 N 0.65778 0.91186 0.0289 0.0
N1889 N 0.68694 0.85801 0.99845 0.0
H1890 H 0.91513 0.72079 0.98008 0.0
H1891 H 0.91506 0.5721 0.98535 0.0
H1892 H 0.84537 0.67601 0.98362 0.0
H1893 H 0.97794 0.61828 0.01219 0.0
H1894 H 0.89268 0.60955 0.96915 0.0
H1895 H 0.94112 0.68261 0.97618 0.0
C1896 C 0.90519 0.70305 0.97959 0.0
C1897 C 0.87799 0.70173 0.98287 0.0
C1898 C 0.91168 0.61135 0.97803 0.0
C1899 C 0.90765 0.65805 0.97802 0.0
C1900 C 0.9245 0.59002 0.98705 0.0
C1901 C 0.94822 0.59228 1.00013 0.0
C1902 C 0.92287 0.63489 0.98206 0.0
C1903 C 0.95952 0.6159 0.00233 0.0
C1904 C 0.92006 0.68129 0.97726 0.0
C1905 C 0.86622 0.67815 0.98123 0.0
N1906 N 0.94663 0.63635 0.99361 0.0
N1907 N 0.88115 0.65724 0.97934 0.0
H1908 H 0.27937 0.89395 0.976 0.0
H1909 H 0.39668 0.93953 0.06513 0.0
H1910 H 0.29861 0.8602 0.04856 0.0
H1911 H 0.38963 0.95777 0.98498 0.0
H1912 H 0.35493 0.91781 0.06289 0.0
H1913 H 0.31377 0.92458 0.98284 0.0
C1914 C 0.29065 0.8931 0.9935 0.0
C1915 C 0.28635 0.87412 0.01151 0.0
C1916 C 0.36242 0.92678 0.04587 0.0
C1917 C 0.32566 0.90938 0.01955 0.0
C1918 C 0.38624 0.93927 0.04712 0.0
C1919 C 0.39695 0.95019 0.02509 0.0
C1920 C 0.34909 0.9253 0.02247 0.0
C1921 C 0.38235 0.94936 0.00237 0.0
C1922 C 0.31025 0.91065 0.9974 0.0
C1923 C 0.30115 0.87444 0.03414 0.0
N1924 N 0.35929 0.93694 0.0016 0.0
N1925 N 0.32034 0.89159 0.03738 0.0
H1926 H 0.7763 0.17866 0.99792 0.0
H1927 H 0.65537 0.09567 0.95251 0.0
H1928 H 0.74456 0.18035 0.92152 0.0
H1929 H 0.67567 0.10899 0.03146 0.0
H1930 H 0.69429 0.11871 0.93935 0.0
H1931 H 0.74604 0.14508 0.0087 0.0
C1932 C 0.76332 0.17162 0.98328 0.0
C1933 C 0.76268 0.18251 0.9589 0.0
C1934 C 0.69036 0.1163 0.95955 0.0
C1935 C 0.72788 0.14431 0.97113 0.0
C1936 C 0.6682 0.10306 0.96708 0.0
C1937 C 0.66202 0.10071 0.99313 0.0
C1938 C 0.70652 0.12706 0.97822 0.0
C1939 C 0.67944 0.11064 0.01116 0.0
C1940 C 0.74593 0.15259 0.98948 0.0
C1941 C 0.74534 0.17276 0.94069 0.0
N1942 N 0.70074 0.12352 0.00337 0.0
N1943 N 0.72848 0.15437 0.94723 0.0
H1944 H 0.47943 0.67682 0.80922 0.0
H1945 H 0.54485 0.61651 0.93218 0.0
H1946 H 0.56214 0.68209 0.82453 0.0
H1947 H 0.46734 0.59845 0.90588 0.0
H1948 H 0.55259 0.63883 0.89208 0.0
H1949 H 0.47564 0.64624 0.8431 0.0
C1950 C 0.497 0.67125 0.81925 0.0
C1951 C 0.52119 0.68235 0.81381 0.0
C1952 C 0.53398 0.62978 0.895 0.0
C1953 C 0.51664 0.64758 0.85368 0.0
C1954 C 0.52952 0.61707 0.91792 0.0
C1955 C 0.50526 0.6059 0.9226 0.0
C1956 C 0.51393 0.63159 0.87674 0.0
C1957 C 0.48624 0.60702 0.90329 0.0
C1958 C 0.49471 0.65384 0.83889 0.0
C1959 C 0.54296 0.67455 0.82823 0.0
N1960 N 0.49087 0.61989 0.88139 0.0
N1961 N 0.54011 0.6579 0.84767 0.0
H1962 H 0.42417 0.54187 0.81324 0.0
H1963 H 0.42168 0.54344 0.96512 0.0
H1964 H 0.35909 0.56816 0.85843 0.0
H1965 H 0.48957 0.52179 0.92133 0.0
H1966 H 0.40111 0.55854 0.9261 0.0
H1967 H 0.45089 0.5403 0.85202 0.0
C1968 C 0.41561 0.54767 0.83125 0.0
C1969 C 0.38922 0.55483 0.83261 0.0
C1970 C 0.42062 0.55074 0.92498 0.0
C1971 C 0.41964 0.55296 0.87707 0.0
C1972 C 0.43239 0.54207 0.94731 0.0
C1973 C 0.45723 0.53097 0.94646 0.0
C1974 C 0.43355 0.54793 0.90146 0.0
C1975 C 0.47025 0.52994 0.92283 0.0
C1976 C 0.4309 0.54682 0.85337 0.0
C1977 C 0.37932 0.56257 0.85638 0.0
N1978 N 0.45809 0.53797 0.90119 0.0
N1979 N 0.3944 0.56106 0.87768 0.0
H1980 H 0.47379 0.32655 0.83964 0.0
H1981 H 0.54646 0.45157 0.88242 0.0
H1982 H 0.52436 0.36882 0.7902 0.0
H1983 H 0.50524 0.40357 0.93469 0.0
H1984 H 0.53246 0.42526 0.8469 0.0
H1985 H 0.4786 0.35853 0.87262 0.0
C1986 C 0.4854 0.34285 0.83545 0.0
C1987 C 0.4988 0.3449 0.8121 0.0
C1988 C 0.52631 0.42057 0.86611 0.0
C1989 C 0.50482 0.38142 0.85008 0.0
C1990 C 0.53428 0.43562 0.88645 0.0
C1991 C 0.52731 0.42963 0.91169 0.0
C1992 C 0.51117 0.39933 0.87093 0.0
C1993 C 0.5113 0.4088 0.91561 0.0
C1994 C 0.48837 0.36099 0.85443 0.0
C1995 C 0.51393 0.3663 0.808 0.0
N1996 N 0.50395 0.39432 0.89549 0.0
N1997 N 0.51668 0.38358 0.82685 0.0
H1998 H 0.63134 0.5583 0.79733 0.0
H1999 H 0.54142 0.51189 0.91263 0.0
H2000 H 0.6153 0.48107 0.81431 0.0
H2001 H 0.57921 0.58354 0.91051 0.0
H2002 H 0.55733 0.50356 0.86929 0.0
H2003 H 0.60132 0.57052 0.83158 0.0
C2004 C 0.62131 0.54389 0.8079 0.0
C2005 C 0.62643 0.51856 0.80307 0.0
C2006 C 0.56178 0.52126 0.8782 0.0
C2007 C 0.59168 0.53252 0.84199 0.0
C2008 C 0.55269 0.52603 0.90292 0.0
C2009 C 0.55953 0.54819 0.91542 0.0
C2010 C 0.57757 0.53888 0.86585 0.0
C2011 C 0.5739 0.566 0.90178 0.0
C2012 C 0.60409 0.55093 0.82737 0.0
C2013 C 0.61211 0.50083 0.81702 0.0
N2014 N 0.58269 0.56085 0.87782 0.0
N2015 N 0.59569 0.50815 0.836 0.0
H2016 H 0.45001 0.3639 0.2027 0.0
H2017 H 0.5671 0.42408 0.12354 0.0
H2018 H 0.53125 0.35417 0.22254 0.0
H2019 H 0.4859 0.43996 0.10824 0.0
H2020 H 0.55428 0.40028 0.16124 0.0
H2021 H 0.4626 0.39378 0.1699 0.0
C2022 C 0.47049 0.36833 0.20053 0.0
C2023 C 0.48959 0.35633 0.21551 0.0
C2024 C 0.53924 0.40906 0.14976 0.0
C2025 C 0.50419 0.3903 0.17733 0.0
C2026 C 0.54654 0.42261 0.12815 0.0
C2027 C 0.52751 0.43377 0.11251 0.0
C2028 C 0.51267 0.40644 0.15576 0.0
C2029 C 0.50121 0.43154 0.11967 0.0
C2030 C 0.47767 0.3853 0.18158 0.0
C2031 C 0.51584 0.36259 0.21127 0.0
N2032 N 0.49456 0.41793 0.14063 0.0
N2033 N 0.52236 0.37897 0.19249 0.0
H2034 H 0.61623 0.50112 0.22966 0.0
H2035 H 0.61461 0.47741 0.0795 0.0
H2036 H 0.68491 0.48966 0.18314 0.0
H2037 H 0.5513 0.50946 0.12285 0.0
H2038 H 0.63649 0.46616 0.11975 0.0
H2039 H 0.58912 0.48891 0.19331 0.0
C2040 C 0.62566 0.49562 0.21198 0.0
C2041 C 0.6529 0.49708 0.20933 0.0
C2042 C 0.61741 0.47493 0.12043 0.0
C2043 C 0.62195 0.48293 0.16768 0.0
C2044 C 0.60486 0.48111 0.0975 0.0
C2045 C 0.58135 0.49455 0.09807 0.0
C2046 C 0.60624 0.48229 0.14386 0.0
C2047 C 0.56956 0.49926 0.12177 0.0
C2048 C 0.61016 0.48854 0.19127 0.0
C2049 C 0.66402 0.48899 0.18614 0.0
N2050 N 0.58231 0.49348 0.14376 0.0
N2051 N 0.64849 0.48274 0.16608 0.0
H2052 H 0.5439 0.69481 0.19185 0.0
H2053 H 0.56359 0.57998 0.09577 0.0
H2054 H 0.61775 0.65628 0.18494 0.0
H2055 H 0.49787 0.63058 0.09499 0.0
H2056 H 0.58393 0.60566 0.12924 0.0
H2057 H 0.52611 0.66845 0.15839 0.0
C2058 C 0.55631 0.68054 0.18357 0.0
C2059 C 0.58235 0.67774 0.1914 0.0
C2060 C 0.56515 0.61116 0.12152 0.0
C2061 C 0.56215 0.64761 0.15235 0.0
C2062 C 0.55369 0.59666 0.10223 0.0
C2063 C 0.52911 0.60322 0.09234 0.0
C2064 C 0.55173 0.63212 0.1311 0.0
C2065 C 0.51681 0.62469 0.10201 0.0
C2066 C 0.54621 0.66564 0.16417 0.0
C2067 C 0.59761 0.65922 0.1794 0.0
N2068 N 0.52815 0.63821 0.12083 0.0
N2069 N 0.58729 0.64483 0.16047 0.0
H2070 H 0.36594 0.56059 0.21188 0.0
H2071 H 0.44975 0.57154 0.08866 0.0
H2072 H 0.41348 0.62621 0.20114 0.0
H2073 H 0.44958 0.50293 0.13155 0.0
H2074 H 0.4305 0.59296 0.12547 0.0
H2075 H 0.39108 0.53955 0.17896 0.0
C2076 C 0.38189 0.57061 0.20317 0.0
C2077 C 0.38732 0.59553 0.2097 0.0
C2078 C 0.43502 0.57327 0.12678 0.0
C2079 C 0.41531 0.57148 0.17064 0.0
C2080 C 0.44615 0.56104 0.10579 0.0
C2081 C 0.45199 0.5355 0.107 0.0
C2082 C 0.42884 0.55964 0.14882 0.0
C2083 C 0.44568 0.52268 0.12964 0.0
C2084 C 0.39605 0.55851 0.18404 0.0
C2085 C 0.40789 0.60734 0.19659 0.0
N2086 N 0.43421 0.53482 0.14952 0.0
N2087 N 0.42084 0.59536 0.17741 0.0
H2088 H 0.81556 0.54569 0.70553 0.0
H2089 H 0.94034 0.48124 0.64058 0.0
H2090 H 0.83046 0.46657 0.70292 0.0
H2091 H 0.92141 0.55898 0.6299 0.0
H2092 H 0.90445 0.47778 0.67083 0.0
H2093 H 0.85764 0.55276 0.68405 0.0
C2094 C 0.82773 0.52985 0.70054 0.0
C2095 C 0.81934 0.50548 0.70562 0.0
C2096 C 0.90826 0.49571 0.66214 0.0
C2097 C 0.86742 0.5134 0.68148 0.0
C2098 C 0.92889 0.49773 0.64495 0.0
C2099 C 0.93366 0.52034 0.63239 0.0
C2100 C 0.89201 0.51638 0.66674 0.0
C2101 C 0.91834 0.54115 0.63907 0.0
C2102 C 0.85168 0.53389 0.68831 0.0
C2103 C 0.83587 0.48563 0.69886 0.0
N2104 N 0.89788 0.53859 0.65551 0.0
N2105 N 0.85901 0.49003 0.68713 0.0
H2106 H 0.58233 0.84353 0.68546 0.0
H2107 H 0.54643 0.91564 0.55659 0.0
H2108 H 0.52389 0.81794 0.63221 0.0
H2109 H 0.61103 0.93551 0.6054 0.0
H2110 H 0.5393 0.87853 0.58273 0.0
H2111 H 0.59511 0.87547 0.65487 0.0
C2112 C 0.5725 0.84424 0.66714 0.0
C2113 C 0.55183 0.82801 0.66157 0.0
C2114 C 0.55517 0.8909 0.5876 0.0
C2115 C 0.56599 0.86518 0.62658 0.0
C2116 C 0.55923 0.91214 0.5727 0.0
C2117 C 0.57925 0.92886 0.57891 0.0
C2118 C 0.57114 0.88637 0.60898 0.0
C2119 C 0.59527 0.92325 0.59995 0.0
C2120 C 0.57967 0.86271 0.64973 0.0
C2121 C 0.53959 0.83029 0.6376 0.0
N2122 N 0.59075 0.90261 0.61432 0.0
N2123 N 0.54666 0.84867 0.62113 0.0
H2124 H 0.27849 0.53699 0.64065 0.0
H2125 H 0.14472 0.596 0.59732 0.0
H2126 H 0.25149 0.60893 0.66733 0.0
H2127 H 0.17717 0.52729 0.56805 0.0
H2128 H 0.1873 0.60596 0.61591 0.0
H2129 H 0.24673 0.53865 0.6067 0.0
C2130 C 0.26647 0.55355 0.63915 0.0
C2131 C 0.26751 0.57258 0.65764 0.0
C2132 C 0.18518 0.5889 0.60506 0.0
C2133 C 0.22973 0.57391 0.61889 0.0
C2134 C 0.16086 0.58318 0.59447 0.0
C2135 C 0.15715 0.56037 0.58184 0.0
C2136 C 0.20581 0.57163 0.60303 0.0
C2137 C 0.17889 0.54475 0.57826 0.0
C2138 C 0.24793 0.55431 0.61971 0.0
C2139 C 0.25086 0.59329 0.65429 0.0
N2140 N 0.20212 0.55047 0.58916 0.0
N2141 N 0.23223 0.59313 0.63573 0.0
H2142 H 0.49354 0.20755 0.64067 0.0
H2143 H 0.50804 0.06174 0.61163 0.0
H2144 H 0.47983 0.15039 0.69701 0.0
H2145 H 0.52958 0.12 0.55924 0.0
H2146 H 0.4886 0.09324 0.64007 0.0
H2147 H 0.4981 0.1753 0.60796 0.0
C2148 C 0.4912 0.18823 0.64614 0.0
C2149 C 0.48662 0.18174 0.67175 0.0
C2150 C 0.49706 0.09908 0.62208 0.0
C2151 C 0.49191 0.14453 0.63428 0.0
C2152 C 0.50779 0.08103 0.60569 0.0
C2153 C 0.52022 0.08829 0.58301 0.0
C2154 C 0.49888 0.1245 0.61568 0.0
C2155 C 0.52021 0.11366 0.57662 0.0
C2156 C 0.49376 0.16979 0.62742 0.0
C2157 C 0.48329 0.15635 0.67754 0.0
N2158 N 0.50995 0.13083 0.59292 0.0
N2159 N 0.48635 0.13868 0.65904 0.0
H2160 H 0.78287 0.50904 0.36225 0.0
H2161 H 0.88947 0.5718 0.44811 0.0
H2162 H 0.77411 0.58497 0.38861 0.0
H2163 H 0.87607 0.49243 0.44908 0.0
H2164 H 0.8477 0.57756 0.42605 0.0
H2165 H 0.81683 0.50252 0.39404 0.0
C2166 C 0.78755 0.52425 0.37503 0.0
C2167 C 0.77562 0.54775 0.37235 0.0
C2168 C 0.85379 0.55894 0.43143 0.0
C2169 C 0.81545 0.5405 0.40834 0.0
C2170 C 0.87765 0.55563 0.44399 0.0
C2171 C 0.88643 0.53159 0.45035 0.0
C2172 C 0.8389 0.53803 0.42474 0.0
C2173 C 0.87026 0.51131 0.44444 0.0
C2174 C 0.80721 0.52051 0.3931 0.0
C2175 C 0.78317 0.56674 0.38936 0.0
N2176 N 0.84749 0.51496 0.43165 0.0
N2177 N 0.80292 0.56284 0.40629 0.0
H2178 H 0.58463 0.79678 0.37882 0.0
H2179 H 0.51473 0.92912 0.39903 0.0
H2180 H 0.55127 0.84056 0.31769 0.0
H2181 H 0.53112 0.87896 0.4616 0.0
H2182 H 0.53141 0.89793 0.3692 0.0
H2183 H 0.56819 0.82756 0.40971 0.0
C2184 C 0.57378 0.81279 0.3719 0.0
C2185 C 0.56917 0.81597 0.34561 0.0
C2186 C 0.53136 0.89371 0.38945 0.0
C2187 C 0.5505 0.85131 0.38079 0.0
C2188 C 0.52189 0.91157 0.40655 0.0
C2189 C 0.52143 0.90668 0.43291 0.0
C2190 C 0.54064 0.87074 0.3987 0.0
C2191 C 0.53102 0.88353 0.44144 0.0
C2192 C 0.56434 0.8303 0.38954 0.0
C2193 C 0.55492 0.83705 0.33776 0.0
N2194 N 0.54029 0.86644 0.42439 0.0
N2195 N 0.54624 0.85392 0.35522 0.0
H2196 H 0.23029 0.5574 0.32554 0.0
H2197 H 0.09854 0.5828 0.40371 0.0
H2198 H 0.19479 0.63024 0.33225 0.0
H2199 H 0.13201 0.50977 0.39136 0.0
H2200 H 0.13149 0.60038 0.37515 0.0
H2201 H 0.19311 0.53961 0.34805 0.0
C2202 C 0.21465 0.56968 0.33165 0.0
C2203 C 0.21581 0.59541 0.32699 0.0
C2204 C 0.13142 0.58047 0.37848 0.0
C2205 C 0.17303 0.57509 0.35306 0.0
C2206 C 0.11245 0.57037 0.39465 0.0
C2207 C 0.1126 0.54476 0.40023 0.0
C2208 C 0.15073 0.56486 0.36788 0.0
C2209 C 0.13121 0.52964 0.38789 0.0
C2210 C 0.19338 0.55949 0.34457 0.0
C2211 C 0.19502 0.61037 0.33576 0.0
N2212 N 0.14965 0.53994 0.37258 0.0
N2213 N 0.17454 0.60001 0.34839 0.0
H2214 H 0.51368 0.18484 0.33715 0.0
H2215 H 0.45749 0.1116 0.45566 0.0
H2216 H 0.4599 0.21763 0.39129 0.0
H2217 H 0.52916 0.08885 0.41899 0.0
H2218 H 0.45899 0.15096 0.43256 0.0
H2219 H 0.52126 0.15042 0.36695 0.0
C2220 C 0.50386 0.18515 0.35548 0.0
C2221 C 0.48581 0.20412 0.36149 0.0
C2222 C 0.4746 0.13756 0.42971 0.0
C2223 C 0.49401 0.16435 0.39545 0.0
C2224 C 0.4737 0.11502 0.44285 0.0
C2225 C 0.49311 0.09686 0.43906 0.0
C2226 C 0.49477 0.14188 0.4121 0.0
C2227 C 0.5138 0.10236 0.42241 0.0
C2228 C 0.50811 0.16535 0.37244 0.0
C2229 C 0.47347 0.20318 0.38548 0.0
N2230 N 0.51386 0.12425 0.40917 0.0
N2231 N 0.47752 0.1835 0.40136 0.0
H2232 H 0.64281 0.80879 0.4565 0.0
H2233 H 0.62574 0.94482 0.51736 0.0
H2234 H 0.70101 0.84468 0.50328 0.0
H2235 H 0.57308 0.9135 0.46172 0.0
H2236 H 0.64943 0.90515 0.51871 0.0
H2237 H 0.61323 0.84389 0.46432 0.0
C2238 C 0.64932 0.8239 0.46861 0.0
C2239 C 0.67463 0.82379 0.479 0.0
C2240 C 0.63252 0.90687 0.50639 0.0
C2241 C 0.64072 0.86407 0.48816 0.0
C2242 C 0.61895 0.92953 0.50564 0.0
C2243 C 0.59756 0.93262 0.48913 0.0
C2244 C 0.62468 0.88714 0.49052 0.0
C2245 C 0.58952 0.91202 0.4746 0.0
C2246 C 0.63237 0.84392 0.47313 0.0
C2247 C 0.68169 0.84373 0.49498 0.0
N2248 N 0.60323 0.89027 0.47543 0.0
N2249 N 0.66496 0.86313 0.49884 0.0
H2250 H 0.70756 0.18215 0.50847 0.0
H2251 H 0.56402 0.13414 0.4803 0.0
H2252 H 0.64578 0.22915 0.47917 0.0
H2253 H 0.62429 0.08863 0.51403 0.0
H2254 H 0.59161 0.17079 0.48585 0.0
H2255 H 0.67563 0.14977 0.51719 0.0
C2256 C 0.68721 0.18594 0.50435 0.0
C2257 C 0.67947 0.20841 0.49274 0.0
C2258 C 0.59863 0.15291 0.49264 0.0
C2259 C 0.64276 0.17097 0.50217 0.0
C2260 C 0.58284 0.13202 0.48953 0.0
C2261 C 0.5918 0.10844 0.49714 0.0
C2262 C 0.62381 0.1501 0.50294 0.0
C2263 C 0.61638 0.10659 0.50873 0.0
C2264 C 0.66897 0.16729 0.50918 0.0
C2265 C 0.65279 0.21195 0.48758 0.0
N2266 N 0.63171 0.12709 0.51096 0.0
N2267 N 0.63548 0.19333 0.49202 0.0
H2268 H 0.86106 0.70919 0.49749 0.0
H2269 H 0.90889 0.56695 0.50231 0.0
H2270 H 0.81511 0.64814 0.46864 0.0
H2271 H 0.95471 0.6285 0.52939 0.0
H2272 H 0.87496 0.59628 0.48822 0.0
H2273 H 0.89568 0.67986 0.50866 0.0
C2274 C 0.85807 0.68956 0.49378 0.0
C2275 C 0.83493 0.68116 0.48229 0.0
C2276 C 0.89267 0.60346 0.49672 0.0
C2277 C 0.87499 0.64737 0.49461 0.0
C2278 C 0.91223 0.58674 0.50427 0.0
C2279 C 0.93502 0.59548 0.51592 0.0
C2280 C 0.89588 0.62909 0.50116 0.0
C2281 C 0.93761 0.62115 0.51991 0.0
C2282 C 0.87802 0.67282 0.49994 0.0
C2283 C 0.83261 0.65552 0.47734 0.0
N2284 N 0.9183 0.63707 0.5125 0.0
N2285 N 0.85235 0.63955 0.48356 0.0
H2286 H 0.38145 0.80168 0.54798 0.0
H2287 H 0.44699 0.92276 0.48671 0.0
H2288 H 0.37428 0.82176 0.46837 0.0
H2289 H 0.46608 0.89544 0.56212 0.0
H2290 H 0.42 0.88597 0.47978 0.0
H2291 H 0.41201 0.83621 0.55394 0.0
C2292 C 0.38637 0.81328 0.53176 0.0
C2293 C 0.37537 0.80873 0.50763 0.0
C2294 C 0.43022 0.88793 0.49779 0.0
C2295 C 0.41021 0.84831 0.51429 0.0
C2296 C 0.44563 0.90897 0.50177 0.0
C2297 C 0.45873 0.91228 0.52509 0.0
C2298 C 0.42767 0.87014 0.51735 0.0
C2299 C 0.4563 0.8937 0.54386 0.0
C2300 C 0.40389 0.83292 0.53513 0.0
C2301 C 0.38257 0.8243 0.48723 0.0
N2302 N 0.44092 0.87354 0.53966 0.0
N2303 N 0.39937 0.84344 0.49106 0.0
H2304 H 0.25361 0.3684 0.54087 0.0
H2305 H 0.12268 0.41527 0.47151 0.0
H2306 H 0.20294 0.32016 0.49761 0.0
H2307 H 0.17483 0.46394 0.51255 0.0
H2308 H 0.15154 0.38013 0.48129 0.0
H2309 H 0.22491 0.40357 0.53082 0.0
C2310 C 0.23646 0.36519 0.52924 0.0
C2311 C 0.2307 0.34123 0.5201 0.0
C2312 C 0.15667 0.39849 0.48817 0.0
C2313 C 0.19772 0.38153 0.50845 0.0
C2314 C 0.14015 0.41858 0.48265 0.0
C2315 C 0.14633 0.44265 0.49117 0.0
C2316 C 0.17957 0.40243 0.50238 0.0
C2317 C 0.16927 0.44576 0.50552 0.0
C2318 C 0.22011 0.38532 0.52344 0.0
C2319 C 0.20836 0.33831 0.50482 0.0
N2320 N 0.18503 0.42591 0.51064 0.0
N2321 N 0.19266 0.35818 0.49957 0.0
H2322 H 0.40593 0.20386 0.51085 0.0
H2323 H 0.4182 0.05587 0.49405 0.0
H2324 H 0.33985 0.15604 0.49727 0.0
H2325 H 0.47531 0.10225 0.53106 0.0
H2326 H 0.39276 0.09357 0.48322 0.0
H2327 H 0.43492 0.16784 0.50601 0.0
C2328 C 0.39751 0.18588 0.50652 0.0
C2329 C 0.37032 0.18299 0.50494 0.0
C2330 C 0.4111 0.09544 0.49333 0.0
C2331 C 0.40347 0.14164 0.49929 0.0
C2332 C 0.4256 0.07401 0.49937 0.0
C2333 C 0.44862 0.07608 0.51367 0.0
C2334 C 0.41998 0.11893 0.50143 0.0
C2335 C 0.45744 0.09992 0.52026 0.0
C2336 C 0.41408 0.16533 0.5037 0.0
C2337 C 0.36064 0.15927 0.49864 0.0
N2338 N 0.44306 0.12038 0.51422 0.0
N2339 N 0.37716 0.13945 0.49641 0.0
H2340 H 0.83656 0.33974 0.51384 0.0
H2341 H 0.88585 0.47952 0.49925 0.0
H2342 H 0.81028 0.38713 0.4523 0.0
H2343 H 0.93003 0.42215 0.53801 0.0
H2344 H 0.85478 0.44787 0.48498 0.0
H2345 H 0.86703 0.37215 0.52714 0.0
C2346 C 0.83695 0.35714 0.50336 0.0
C2347 C 0.82082 0.36082 0.482 0.0
C2348 C 0.87138 0.44226 0.49648 0.0
C2349 C 0.85584 0.39787 0.49693 0.0
C2350 C 0.88917 0.46028 0.50457 0.0
C2351 C 0.91065 0.45348 0.51979 0.0
C2352 C 0.87484 0.41738 0.50409 0.0
C2353 C 0.91381 0.42827 0.52627 0.0
C2354 C 0.85454 0.3755 0.51078 0.0
C2355 C 0.82246 0.38355 0.46883 0.0
N2356 N 0.89599 0.41119 0.51858 0.0
N2357 N 0.83963 0.40129 0.47655 0.0
H2358 H 0.18633 0.69743 0.53726 0.0
H2359 H 0.13767 0.5634 0.50656 0.0
H2360 H 0.23891 0.63432 0.53414 0.0
H2361 H 0.08632 0.61729 0.54159 0.0
H2362 H 0.17514 0.58886 0.51846 0.0
H2363 H 0.14974 0.6689 0.54194 0.0
C2364 C 0.19037 0.67763 0.53824 0.0
C2365 C 0.21587 0.66834 0.53477 0.0
C2366 C 0.15577 0.59503 0.52394 0.0
C2367 C 0.17373 0.63554 0.53942 0.0
C2368 C 0.13442 0.58054 0.51708 0.0
C2369 C 0.10906 0.58838 0.52314 0.0
C2370 C 0.15168 0.61799 0.53621 0.0
C2371 C 0.1057 0.61069 0.53671 0.0
C2372 C 0.16934 0.66133 0.54077 0.0
C2373 C 0.21959 0.6424 0.53596 0.0
N2374 N 0.12681 0.62502 0.54242 0.0
N2375 N 0.19874 0.62693 0.53766 0.0
loop_
_geom_bond_atom_site_label_1
_geom_bond_atom_site_label_2
_geom_bond_distance
_geom_bond_site_symmetry_2
_ccdc_geom_bond_type
P0 O11 1.490 1_455 S
P0 C14 1.812 . S
P0 C20 1.803 . S
P0 C26 1.819 . S
H1 C15 0.941 1_655 S
H2 C16 0.939 . S
H3 C18 0.940 . S
H4 C19 0.940 . S
H5 C21 0.939 1_655 S
H6 C22 0.936 1_655 S
H7 C24 0.940 . S
H8 C25 0.939 . S
H9 C27 0.941 1_655 S
H10 C31 0.939 . S
O11 P0 1.490 1_655 S
H12 C28 0.939 . S
H13 C30 0.940 . S
C14 P0 1.812 . S
C14 C15 1.389 . S
C14 C19 1.391 . S
C15 H1 0.941 1_455 S
C15 C14 1.389 . S
C15 C16 1.397 . S
C16 H2 0.939 . S
C16 C15 1.397 . S
C16 C17 1.378 . S
C17 C16 1.378 . S
C17 C18 1.378 . S
C18 H3 0.940 . S
C18 C17 1.378 . S
C18 C19 1.396 . S
C19 H4 0.940 . S
C19 C14 1.391 . S
C19 C18 1.396 . S
C20 P0 1.803 . S
C20 C21 1.378 . S
C20 C25 1.400 . S
C21 H5 0.939 1_455 S
C21 C20 1.378 . S
C21 C22 1.361 . S
C22 H6 0.936 1_455 S
C22 C21 1.361 . S
C22 C23 1.369 . S
C23 C22 1.369 . S
C23 C24 1.404 . S
C24 H7 0.940 . S
C24 C23 1.404 . S
C24 C25 1.389 . S
C25 H8 0.939 . S
C25 C20 1.400 . S
C25 C24 1.389 . S
C26 P0 1.819 . S
C26 C27 1.391 . S
C26 C31 1.391 . S
C27 H9 0.941 1_455 S
C27 C26 1.391 . S
C27 C28 1.396 . S
C28 H12 0.939 . S
C28 C27 1.396 . S
C28 C29 1.397 . S
C29 C28 1.397 . S
C29 C30 1.385 . S
C30 H13 0.940 . S
C30 C29 1.385 . S
C30 C31 1.388 . S
C31 H10 0.939 . S
C31 C26 1.391 . S
C31 C30 1.388 . S
P32 O43 1.490 1_545 S
P32 C46 1.812 . S
P32 C52 1.803 . S
P32 C58 1.819 . S
H33 C47 0.941 1_565 S
H34 C48 0.939 . S
H35 C50 0.940 . S
H36 C51 0.940 . S
H37 C53 0.939 1_565 S
H38 C54 0.935 1_565 S
H39 C56 0.940 . S
H40 C57 0.939 . S
H41 C59 0.941 1_565 S
H42 C63 0.939 . S
O43 P32 1.490 1_565 S
H44 C60 0.939 . S
H45 C62 0.940 . S
C46 P32 1.812 . S
C46 C47 1.389 . S
C46 C51 1.391 . S
C47 H33 0.941 1_545 S
C47 C46 1.389 . S
C47 C48 1.397 . S
C48 H34 0.939 . S
C48 C47 1.397 . S
C48 C49 1.378 . S
C49 C48 1.378 . S
C49 C50 1.378 . S
C50 H35 0.940 . S
C50 C49 1.378 . S
C50 C51 1.396 . S
C51 H36 0.940 . S
C51 C46 1.391 . S
C51 C50 1.396 . S
C52 P32 1.803 . S
C52 C53 1.378 . S
C52 C57 1.400 . S
C53 H37 0.939 1_545 S
C53 C52 1.378 . S
C53 C54 1.361 . S
C54 H38 0.935 1_545 S
C54 C53 1.361 . S
C54 C55 1.369 . S
C55 C54 1.369 . S
C55 C56 1.404 . S
C56 H39 0.940 . S
C56 C55 1.404 . S
C56 C57 1.389 . S
C57 H40 0.939 . S
C57 C52 1.400 . S
C57 C56 1.389 . S
C58 P32 1.819 . S
C58 C59 1.391 . S
C58 C63 1.391 . S
C59 H41 0.941 1_545 S
C59 C58 1.391 . S
C59 C60 1.396 . S
C60 H44 0.939 . S
C60 C59 1.396 . S
C60 C61 1.397 . S
C61 C60 1.397 . S
C61 C62 1.385 . S
C62 H45 0.940 . S
C62 C61 1.385 . S
C62 C63 1.388 . S
C63 H42 0.939 . S
C63 C58 1.391 . S
C63 C62 1.388 . S
P64 O75 1.490 . S
P64 C78 1.812 . S
P64 C84 1.803 . S
P64 C90 1.819 . S
H65 C79 0.941 . S
H66 C80 0.939 . S
H67 C82 0.940 1_655 S
H68 C83 0.940 . S
H69 C85 0.939 . S
H70 C86 0.942 . S
H71 C88 0.940 1_655 S
H72 C89 0.939 . S
H73 C91 0.941 . S
H74 C95 0.939 . S
O75 P64 1.490 . S
H76 C92 0.939 . S
H77 C94 0.940 . S
C78 P64 1.812 . S
C78 C79 1.389 . S
C78 C83 1.391 . S
C79 H65 0.941 . S
C79 C78 1.389 . S
C79 C80 1.397 . S
C80 H66 0.939 . S
C80 C79 1.397 . S
C80 C81 1.378 . S
C81 C80 1.378 . S
C81 C82 1.378 . S
C82 H67 0.940 1_455 S
C82 C81 1.378 . S
C82 C83 1.396 . S
C83 H68 0.940 . S
C83 C78 1.391 . S
C83 C82 1.396 . S
C84 P64 1.803 . S
C84 C85 1.378 . S
C84 C89 1.400 . S
C85 H69 0.939 . S
C85 C84 1.378 . S
C85 C86 1.361 . S
C86 H70 0.942 . S
C86 C85 1.361 . S
C86 C87 1.369 . S
C87 C86 1.369 . S
C87 C88 1.404 . S
C88 H71 0.940 1_455 S
C88 C87 1.404 . S
C88 C89 1.389 . S
C89 H72 0.939 . S
C89 C84 1.400 . S
C89 C88 1.389 . S
C90 P64 1.819 . S
C90 C91 1.391 . S
C90 C95 1.391 . S
C91 H73 0.941 . S
C91 C90 1.391 . S
C91 C92 1.396 . S
C92 H76 0.939 . S
C92 C91 1.396 . S
C92 C93 1.397 . S
C93 C92 1.397 . S
C93 C94 1.385 . S
C94 H77 0.940 . S
C94 C93 1.385 . S
C94 C95 1.388 . S
C95 H74 0.939 . S
C95 C90 1.391 . S
C95 C94 1.388 . S
P96 O107 1.490 . S
P96 C110 1.812 . S
P96 C116 1.803 . S
P96 C122 1.819 . S
H97 C111 0.941 . S
H98 C112 0.939 . S
H99 C114 0.940 . S
H100 C115 0.940 . S
H101 C117 0.939 . S
H102 C118 0.942 . S
H103 C120 0.940 . S
H104 C121 0.939 . S
H105 C123 0.941 . S
H106 C127 0.939 1_545 S
O107 P96 1.490 . S
H108 C124 0.939 . S
H109 C126 0.940 . S
C110 P96 1.812 . S
C110 C111 1.389 . S
C110 C115 1.391 1_565 S
C111 H97 0.941 . S
C111 C110 1.389 . S
C111 C112 1.397 . S
C112 H98 0.939 . S
C112 C111 1.397 . S
C112 C113 1.378 . S
C113 C112 1.378 . S
C113 C114 1.378 1_565 S
C114 H99 0.940 . S
C114 C113 1.378 1_545 S
C114 C115 1.396 . S
C115 H100 0.940 . S
C115 C110 1.391 1_545 S
C115 C114 1.396 . S
C116 P96 1.803 . S
C116 C117 1.378 . S
C116 C121 1.400 1_565 S
C117 H101 0.939 . S
C117 C116 1.378 . S
C117 C118 1.361 . S
C118 H102 0.942 . S
C118 C117 1.361 . S
C118 C119 1.369 . S
C119 C118 1.369 . S
C119 C120 1.404 1_565 S
C120 H103 0.940 . S
C120 C119 1.404 1_545 S
C120 C121 1.389 . S
C121 H104 0.939 . S
C121 C116 1.400 1_545 S
C121 C120 1.389 . S
C122 P96 1.819 . S
C122 C123 1.391 . S
C122 C127 1.391 . S
C123 H105 0.941 . S
C123 C122 1.391 . S
C123 C124 1.396 . S
C124 H108 0.939 . S
C124 C123 1.396 . S
C124 C125 1.397 . S
C125 C124 1.397 . S
C125 C126 1.385 1_565 S
C126 H109 0.940 . S
C126 C125 1.385 1_545 S
C126 C127 1.388 1_545 S
C127 H106 0.939 1_565 S
C127 C122 1.391 . S
C127 C126 1.388 1_565 S
P128 O139 1.490 . S
P128 C142 1.812 . S
P128 C148 1.803 . S
P128 C154 1.819 . S
H129 C143 0.941 . S
H130 C144 0.939 . S
H131 C146 0.940 . S
H132 C147 0.952 . S
H133 C149 0.939 . S
H134 C150 0.942 . S
H135 C152 0.940 . S
H136 C153 0.965 . S
H137 C155 0.941 . S
H138 C159 0.925 1_455 S
O139 P128 1.490 . S
H140 C156 0.939 . S
H141 C158 0.940 . S
C142 P128 1.812 . S
C142 C143 1.389 . S
C142 C147 1.373 1_655 S
C143 H129 0.941 . S
C143 C142 1.389 . S
C143 C144 1.397 . S
C144 H130 0.939 . S
C144 C143 1.397 . S
C144 C145 1.378 . S
C145 C144 1.378 . S
C145 C146 1.378 1_655 S
C146 H131 0.940 . S
C146 C145 1.378 1_455 S
C146 C147 1.403 . S
C147 H132 0.952 . S
C147 C142 1.373 1_455 S
C147 C146 1.403 . S
C148 P128 1.803 . S
C148 C149 1.378 . S
C148 C153 1.359 1_655 S
C149 H133 0.939 . S
C149 C148 1.378 . S
C149 C150 1.361 . S
C150 H134 0.942 . S
C150 C149 1.361 . S
C150 C151 1.369 . S
C151 C150 1.369 . S
C151 C152 1.404 1_655 S
C152 H135 0.940 . S
C152 C151 1.404 1_455 S
C152 C153 1.406 . S
C153 H136 0.965 . S
C153 C148 1.359 1_455 S
C153 C152 1.406 . S
C154 P128 1.819 . S
C154 C155 1.391 . S
C154 C159 1.391 . S
C155 H137 0.941 . S
C155 C154 1.391 . S
C155 C156 1.396 . S
C156 H140 0.939 . S
C156 C155 1.396 . S
C156 C157 1.397 . S
C157 C156 1.397 . S
C157 C158 1.385 1_655 S
C158 H141 0.940 . S
C158 C157 1.385 1_455 S
C158 C159 1.388 1_455 S
C159 H138 0.925 1_655 S
C159 C154 1.391 . S
C159 C158 1.388 1_655 S
P160 O171 1.490 . S
P160 C174 1.812 . S
P160 C180 1.803 . S
P160 C186 1.819 . S
H161 C175 0.941 . S
H162 C176 0.939 . S
H163 C178 0.940 . S
H164 C179 0.940 . S
H165 C181 0.939 . S
H166 C182 0.942 . S
H167 C184 0.940 . S
H168 C185 0.939 . S
H169 C187 0.941 . S
H170 C191 0.939 . S
O171 P160 1.490 . S
H172 C188 0.939 . S
H173 C190 0.940 . S
C174 P160 1.812 . S
C174 C175 1.389 . S
C174 C179 1.391 1_565 S
C175 H161 0.941 . S
C175 C174 1.389 . S
C175 C176 1.397 . S
C176 H162 0.939 . S
C176 C175 1.397 . S
C176 C177 1.378 1_565 S
C177 C176 1.378 1_545 S
C177 C178 1.378 . S
C178 H163 0.940 . S
C178 C177 1.378 . S
C178 C179 1.396 . S
C179 H164 0.940 . S
C179 C174 1.391 1_545 S
C179 C178 1.396 . S
C180 P160 1.803 . S
C180 C181 1.378 . S
C180 C185 1.400 1_565 S
C181 H165 0.939 . S
C181 C180 1.378 . S
C181 C182 1.361 . S
C182 H166 0.942 . S
C182 C181 1.361 . S
C182 C183 1.369 1_565 S
C183 C182 1.369 1_545 S
C183 C184 1.404 . S
C184 H167 0.940 . S
C184 C183 1.404 . S
C184 C185 1.389 . S
C185 H168 0.939 . S
C185 C180 1.400 1_545 S
C185 C184 1.389 . S
C186 P160 1.819 . S
C186 C187 1.391 . S
C186 C191 1.391 1_565 S
C187 H169 0.941 . S
C187 C186 1.391 . S
C187 C188 1.396 . S
C188 H172 0.939 . S
C188 C187 1.396 . S
C188 C189 1.397 1_565 S
C189 C188 1.397 1_545 S
C189 C190 1.385 . S
C190 H173 0.940 . S
C190 C189 1.385 . S
C190 C191 1.388 . S
C191 H170 0.939 . S
C191 C186 1.391 1_545 S
C191 C190 1.388 . S
P192 O203 1.490 . S
P192 C206 1.812 . S
P192 C212 1.803 . S
P192 C218 1.819 . S
H193 C207 0.941 . S
H194 C208 0.939 . S
H195 C210 0.940 1_655 S
H196 C211 0.940 . S
H197 C213 0.939 . S
H198 C214 0.942 . S
H199 C216 0.940 1_655 S
H200 C217 0.939 . S
H201 C219 0.941 . S
H202 C223 0.939 . S
O203 P192 1.490 . S
H204 C220 0.939 . S
H205 C222 0.940 . S
C206 P192 1.812 . S
C206 C207 1.389 . S
C206 C211 1.391 . S
C207 H193 0.941 . S
C207 C206 1.389 . S
C207 C208 1.397 . S
C208 H194 0.939 . S
C208 C207 1.397 . S
C208 C209 1.378 . S
C209 C208 1.378 . S
C209 C210 1.378 . S
C210 H195 0.940 1_455 S
C210 C209 1.378 . S
C210 C211 1.396 . S
C211 H196 0.940 . S
C211 C206 1.391 . S
C211 C210 1.396 . S
C212 P192 1.803 . S
C212 C213 1.378 . S
C212 C217 1.400 . S
C213 H197 0.939 . S
C213 C212 1.378 . S
C213 C214 1.361 . S
C214 H198 0.942 . S
C214 C213 1.361 . S
C214 C215 1.369 . S
C215 C214 1.369 . S
C215 C216 1.404 . S
C216 H199 0.940 1_455 S
C216 C215 1.404 . S
C216 C217 1.389 . S
C217 H200 0.939 . S
C217 C212 1.400 . S
C217 C216 1.389 . S
C218 P192 1.819 . S
C218 C219 1.391 . S
C218 C223 1.391 . S
C219 H201 0.941 . S
C219 C218 1.391 . S
C219 C220 1.396 . S
C220 H204 0.939 . S
C220 C219 1.396 . S
C220 C221 1.397 . S
C221 C220 1.397 . S
C221 C222 1.385 . S
C222 H205 0.940 . S
C222 C221 1.385 . S
C222 C223 1.388 . S
C223 H202 0.939 . S
C223 C218 1.391 . S
C223 C222 1.388 . S
P224 O235 1.490 . S
P224 C238 1.812 . S
P224 C244 1.803 . S
P224 C250 1.819 . S
H225 C239 0.941 . S
H226 C240 0.939 . S
H227 C242 0.940 . S
H228 C243 0.940 . S
H229 C245 0.939 . S
H230 C246 0.942 . S
H231 C248 0.940 . S
H232 C249 0.939 . S
H233 C251 0.941 . S
H234 C255 0.939 . S
O235 P224 1.490 . S
H236 C252 0.939 . S
H237 C254 0.940 . S
C238 P224 1.812 . S
C238 C239 1.389 . S
C238 C243 1.391 . S
C239 H225 0.941 . S
C239 C238 1.389 . S
C239 C240 1.397 . S
C240 H226 0.939 . S
C240 C239 1.397 . S
C240 C241 1.378 . S
C241 C240 1.378 . S
C241 C242 1.378 . S
C242 H227 0.940 . S
C242 C241 1.378 . S
C242 C243 1.396 . S
C243 H228 0.940 . S
C243 C238 1.391 . S
C243 C242 1.396 . S
C244 P224 1.803 . S
C244 C245 1.378 . S
C244 C249 1.400 . S
C245 H229 0.939 . S
C245 C244 1.378 . S
C245 C246 1.361 . S
C246 H230 0.942 . S
C246 C245 1.361 . S
C246 C247 1.369 . S
C247 C246 1.369 . S
C247 C248 1.404 . S
C248 H231 0.940 . S
C248 C247 1.404 . S
C248 C249 1.389 . S
C249 H232 0.939 . S
C249 C244 1.400 . S
C249 C248 1.389 . S
C250 P224 1.819 . S
C250 C251 1.391 . S
C250 C255 1.391 . S
C251 H233 0.941 . S
C251 C250 1.391 . S
C251 C252 1.396 . S
C252 H236 0.939 . S
C252 C251 1.396 . S
C252 C253 1.397 . S
C253 C252 1.397 . S
C253 C254 1.385 . S
C254 H237 0.940 . S
C254 C253 1.385 . S
C254 C255 1.388 . S
C255 H234 0.939 . S
C255 C250 1.391 . S
C255 C254 1.388 . S
P256 O267 1.490 . S
P256 C270 1.812 . S
P256 C276 1.803 . S
P256 C282 1.819 . S
H257 C271 0.941 . S
H258 C272 0.939 . S
H259 C274 0.940 . S
H260 C275 0.940 . S
H261 C277 0.939 . S
H262 C278 0.942 . S
H263 C280 0.940 . S
H264 C281 0.939 . S
H265 C283 0.941 . S
H266 C287 0.939 . S
O267 P256 1.490 . S
H268 C284 0.939 . S
H269 C286 0.940 . S
C270 P256 1.812 . S
C270 C271 1.389 . S
C270 C275 1.391 1_556 S
C271 H257 0.941 . S
C271 C270 1.389 . S
C271 C272 1.397 . S
C272 H258 0.939 . S
C272 C271 1.397 . S
C272 C273 1.378 1_556 S
C273 C272 1.378 1_554 S
C273 C274 1.378 . S
C274 H259 0.940 . S
C274 C273 1.378 . S
C274 C275 1.396 . S
C275 H260 0.940 . S
C275 C270 1.391 1_554 S
C275 C274 1.396 . S
C276 P256 1.803 . S
C276 C277 1.378 . S
C276 C281 1.400 1_556 S
C277 H261 0.939 . S
C277 C276 1.378 . S
C277 C278 1.361 . S
C278 H262 0.942 . S
C278 C277 1.361 . S
C278 C279 1.369 1_556 S
C279 C278 1.369 1_554 S
C279 C280 1.404 . S
C280 H263 0.940 . S
C280 C279 1.404 . S
C280 C281 1.389 . S
C281 H264 0.939 . S
C281 C276 1.400 1_554 S
C281 C280 1.389 . S
C282 P256 1.819 . S
C282 C283 1.391 . S
C282 C287 1.391 1_556 S
C283 H265 0.941 . S
C283 C282 1.391 . S
C283 C284 1.396 . S
C284 H268 0.939 . S
C284 C283 1.396 . S
C284 C285 1.397 1_556 S
C285 C284 1.397 1_554 S
C285 C286 1.385 . S
C286 H269 0.940 . S
C286 C285 1.385 . S
C286 C287 1.388 . S
C287 H266 0.939 . S
C287 C282 1.391 1_554 S
C287 C286 1.388 . S
P288 O299 1.490 . S
P288 C302 1.812 . S
P288 C308 1.803 . S
P288 C314 1.819 . S
H289 C303 0.941 . S
H290 C304 0.939 . S
H291 C306 0.940 . S
H292 C307 0.940 . S
H293 C309 0.939 . S
H294 C310 0.942 . S
H295 C312 0.940 . S
H296 C313 0.939 . S
H297 C315 0.941 . S
H298 C319 0.939 . S
O299 P288 1.490 . S
H300 C316 0.939 . S
H301 C318 0.940 . S
C302 P288 1.812 . S
C302 C303 1.389 . S
C302 C307 1.391 1_556 S
C303 H289 0.941 . S
C303 C302 1.389 . S
C303 C304 1.397 . S
C304 H290 0.939 . S
C304 C303 1.397 . S
C304 C305 1.378 1_556 S
C305 C304 1.378 1_554 S
C305 C306 1.378 . S
C306 H291 0.940 . S
C306 C305 1.378 . S
C306 C307 1.396 . S
C307 H292 0.940 . S
C307 C302 1.391 1_554 S
C307 C306 1.396 . S
C308 P288 1.803 . S
C308 C309 1.378 . S
C308 C313 1.400 1_556 S
C309 H293 0.939 . S
C309 C308 1.378 . S
C309 C310 1.361 . S
C310 H294 0.942 . S
C310 C309 1.361 . S
C310 C311 1.369 1_556 S
C311 C310 1.369 1_554 S
C311 C312 1.404 . S
C312 H295 0.940 . S
C312 C311 1.404 . S
C312 C313 1.389 . S
C313 H296 0.939 . S
C313 C308 1.400 1_554 S
C313 C312 1.389 . S
C314 P288 1.819 . S
C314 C315 1.391 . S
C314 C319 1.391 1_556 S
C315 H297 0.941 . S
C315 C314 1.391 . S
C315 C316 1.396 . S
C316 H300 0.939 . S
C316 C315 1.396 . S
C316 C317 1.397 1_556 S
C317 C316 1.397 1_554 S
C317 C318 1.385 . S
C318 H301 0.940 . S
C318 C317 1.385 . S
C318 C319 1.388 . S
C319 H298 0.939 . S
C319 C314 1.391 1_554 S
C319 C318 1.388 . S
P320 O331 1.490 . S
P320 C334 1.812 . S
P320 C340 1.803 . S
P320 C346 1.819 . S
H321 C335 0.941 . S
H322 C336 0.939 . S
H323 C338 0.940 . S
H324 C339 0.940 . S
H325 C341 0.939 . S
H326 C342 0.942 . S
H327 C344 0.940 . S
H328 C345 0.939 . S
H329 C347 0.941 . S
H330 C351 0.939 1_554 S
O331 P320 1.490 . S
H332 C348 0.939 . S
H333 C350 0.940 . S
C334 P320 1.812 . S
C334 C335 1.389 . S
C334 C339 1.391 1_556 S
C335 H321 0.941 . S
C335 C334 1.389 . S
C335 C336 1.397 . S
C336 H322 0.939 . S
C336 C335 1.397 . S
C336 C337 1.378 . S
C337 C336 1.378 . S
C337 C338 1.378 1_556 S
C338 H323 0.940 . S
C338 C337 1.378 1_554 S
C338 C339 1.396 . S
C339 H324 0.940 . S
C339 C334 1.391 1_554 S
C339 C338 1.396 . S
C340 P320 1.803 . S
C340 C341 1.378 . S
C340 C345 1.400 1_556 S
C341 H325 0.939 . S
C341 C340 1.378 . S
C341 C342 1.361 . S
C342 H326 0.942 . S
C342 C341 1.361 . S
C342 C343 1.369 . S
C343 C342 1.369 . S
C343 C344 1.404 1_556 S
C344 H327 0.940 . S
C344 C343 1.404 1_554 S
C344 C345 1.389 . S
C345 H328 0.939 . S
C345 C340 1.400 1_554 S
C345 C344 1.389 . S
C346 P320 1.819 . S
C346 C347 1.391 . S
C346 C351 1.391 . S
C347 H329 0.941 . S
C347 C346 1.391 . S
C347 C348 1.396 . S
C348 H332 0.939 . S
C348 C347 1.396 . S
C348 C349 1.397 . S
C349 C348 1.397 . S
C349 C350 1.385 1_556 S
C350 H333 0.940 . S
C350 C349 1.385 1_554 S
C350 C351 1.388 1_554 S
C351 H330 0.939 1_556 S
C351 C346 1.391 . S
C351 C350 1.388 1_556 S
P352 O363 1.490 . S
P352 C366 1.812 . S
P352 C372 1.803 . S
P352 C378 1.819 . S
H353 C367 0.941 . S
H354 C368 0.939 . S
H355 C370 0.940 . S
H356 C371 0.940 1_556 S
H357 C373 0.939 . S
H358 C374 0.942 . S
H359 C376 0.940 . S
H360 C377 0.939 1_556 S
H361 C379 0.941 . S
H362 C383 0.939 . S
O363 P352 1.490 . S
H364 C380 0.939 . S
H365 C382 0.911 1_556 S
C366 P352 1.812 . S
C366 C367 1.389 . S
C366 C371 1.391 . S
C367 H353 0.941 . S
C367 C366 1.389 . S
C367 C368 1.397 . S
C368 H354 0.939 . S
C368 C367 1.397 . S
C368 C369 1.378 . S
C369 C368 1.378 . S
C369 C370 1.378 1_554 S
C370 H355 0.940 . S
C370 C369 1.378 1_556 S
C370 C371 1.396 1_556 S
C371 H356 0.940 1_554 S
C371 C366 1.391 . S
C371 C370 1.396 1_554 S
C372 P352 1.803 . S
C372 C373 1.378 . S
C372 C377 1.400 . S
C373 H357 0.939 . S
C373 C372 1.378 . S
C373 C374 1.361 . S
C374 H358 0.942 . S
C374 C373 1.361 . S
C374 C375 1.369 . S
C375 C374 1.369 . S
C375 C376 1.404 1_554 S
C376 H359 0.940 . S
C376 C375 1.404 1_556 S
C376 C377 1.389 1_556 S
C377 H360 0.939 1_554 S
C377 C372 1.400 . S
C377 C376 1.389 1_554 S
C378 P352 1.819 . S
C378 C379 1.391 . S
C378 C383 1.391 . S
C379 H361 0.941 . S
C379 C378 1.391 . S
C379 C380 1.396 . S
C380 H364 0.939 . S
C380 C379 1.396 . S
C380 C381 1.397 . S
C381 C380 1.397 . S
C381 C382 1.400 . S
C382 H365 0.911 1_554 S
C382 C381 1.400 . S
C382 C383 1.403 . S
C383 H362 0.939 . S
C383 C378 1.391 . S
C383 C382 1.403 . S
P384 O395 1.490 . S
P384 C398 1.812 . S
P384 C404 1.803 . S
P384 C410 1.819 . S
H385 C399 0.941 . S
H386 C400 0.939 . S
H387 C402 0.940 . S
H388 C403 0.940 . S
H389 C405 0.939 . S
H390 C406 0.942 . S
H391 C408 0.940 . S
H392 C409 0.939 . S
H393 C411 0.941 . S
H394 C415 0.939 . S
O395 P384 1.490 . S
H396 C412 0.939 . S
H397 C414 0.940 . S
C398 P384 1.812 . S
C398 C399 1.389 . S
C398 C403 1.391 . S
C399 H385 0.941 . S
C399 C398 1.389 . S
C399 C400 1.397 . S
C400 H386 0.939 . S
C400 C399 1.397 . S
C400 C401 1.378 . S
C401 C400 1.378 . S
C401 C402 1.378 . S
C402 H387 0.940 . S
C402 C401 1.378 . S
C402 C403 1.396 . S
C403 H388 0.940 . S
C403 C398 1.391 . S
C403 C402 1.396 . S
C404 P384 1.803 . S
C404 C405 1.378 . S
C404 C409 1.400 . S
C405 H389 0.939 . S
C405 C404 1.378 . S
C405 C406 1.361 . S
C406 H390 0.942 . S
C406 C405 1.361 . S
C406 C407 1.369 . S
C407 C406 1.369 . S
C407 C408 1.404 . S
C408 H391 0.940 . S
C408 C407 1.404 . S
C408 C409 1.389 . S
C409 H392 0.939 . S
C409 C404 1.400 . S
C409 C408 1.389 . S
C410 P384 1.819 . S
C410 C411 1.391 . S
C410 C415 1.391 . S
C411 H393 0.941 . S
C411 C410 1.391 . S
C411 C412 1.396 . S
C412 H396 0.939 . S
C412 C411 1.396 . S
C412 C413 1.397 . S
C413 C412 1.397 . S
C413 C414 1.385 . S
C414 H397 0.940 . S
C414 C413 1.385 . S
C414 C415 1.388 . S
C415 H394 0.939 . S
C415 C410 1.391 . S
C415 C414 1.388 . S
P416 O427 1.490 . S
P416 C430 1.812 . S
P416 C436 1.803 . S
P416 C442 1.819 . S
H417 C431 0.941 . S
H418 C432 0.939 . S
H419 C434 0.940 . S
H420 C435 0.940 . S
H421 C437 0.939 . S
H422 C438 0.942 . S
H423 C440 0.940 . S
H424 C441 0.939 . S
H425 C443 0.941 . S
H426 C447 0.939 . S
O427 P416 1.490 . S
H428 C444 0.939 . S
H429 C446 0.940 . S
C430 P416 1.812 . S
C430 C431 1.389 . S
C430 C435 1.391 . S
C431 H417 0.941 . S
C431 C430 1.389 . S
C431 C432 1.397 . S
C432 H418 0.939 . S
C432 C431 1.397 . S
C432 C433 1.378 . S
C433 C432 1.378 . S
C433 C434 1.378 . S
C434 H419 0.940 . S
C434 C433 1.378 . S
C434 C435 1.396 . S
C435 H420 0.940 . S
C435 C430 1.391 . S
C435 C434 1.396 . S
C436 P416 1.803 . S
C436 C437 1.378 . S
C436 C441 1.400 . S
C437 H421 0.939 . S
C437 C436 1.378 . S
C437 C438 1.361 . S
C438 H422 0.942 . S
C438 C437 1.361 . S
C438 C439 1.369 . S
C439 C438 1.369 . S
C439 C440 1.404 . S
C440 H423 0.940 . S
C440 C439 1.404 . S
C440 C441 1.389 . S
C441 H424 0.939 . S
C441 C436 1.400 . S
C441 C440 1.389 . S
C442 P416 1.819 . S
C442 C443 1.391 . S
C442 C447 1.391 . S
C443 H425 0.941 . S
C443 C442 1.391 . S
C443 C444 1.396 . S
C444 H428 0.939 . S
C444 C443 1.396 . S
C444 C445 1.397 . S
C445 C444 1.397 . S
C445 C446 1.385 . S
C446 H429 0.940 . S
C446 C445 1.385 . S
C446 C447 1.388 . S
C447 H426 0.939 . S
C447 C442 1.391 . S
C447 C446 1.388 . S
P448 O459 1.490 . S
P448 C462 1.812 . S
P448 C468 1.803 . S
P448 C474 1.819 . S
H449 C463 0.941 . S
H450 C464 0.939 . S
H451 C466 0.940 . S
H452 C467 0.940 . S
H453 C469 0.939 . S
H454 C470 0.942 . S
H455 C472 0.940 . S
H456 C473 0.939 . S
H457 C475 0.941 . S
H458 C479 0.939 . S
O459 P448 1.490 . S
H460 C476 0.939 . S
H461 C478 0.940 . S
C462 P448 1.812 . S
C462 C463 1.389 . S
C462 C467 1.391 . S
C463 H449 0.941 . S
C463 C462 1.389 . S
C463 C464 1.397 . S
C464 H450 0.939 . S
C464 C463 1.397 . S
C464 C465 1.378 . S
C465 C464 1.378 . S
C465 C466 1.378 . S
C466 H451 0.940 . S
C466 C465 1.378 . S
C466 C467 1.396 . S
C467 H452 0.940 . S
C467 C462 1.391 . S
C467 C466 1.396 . S
C468 P448 1.803 . S
C468 C469 1.378 . S
C468 C473 1.400 . S
C469 H453 0.939 . S
C469 C468 1.378 . S
C469 C470 1.361 . S
C470 H454 0.942 . S
C470 C469 1.361 . S
C470 C471 1.369 . S
C471 C470 1.369 . S
C471 C472 1.404 . S
C472 H455 0.940 . S
C472 C471 1.404 . S
C472 C473 1.389 . S
C473 H456 0.939 . S
C473 C468 1.400 . S
C473 C472 1.389 . S
C474 P448 1.819 . S
C474 C475 1.391 . S
C474 C479 1.391 . S
C475 H457 0.941 . S
C475 C474 1.391 . S
C475 C476 1.396 . S
C476 H460 0.939 . S
C476 C475 1.396 . S
C476 C477 1.397 . S
C477 C476 1.397 . S
C477 C478 1.385 . S
C478 H461 0.940 . S
C478 C477 1.385 . S
C478 C479 1.388 . S
C479 H458 0.939 . S
C479 C474 1.391 . S
C479 C478 1.388 . S
P480 O491 1.490 . S
P480 C494 1.812 . S
P480 C500 1.803 . S
P480 C506 1.819 . S
H481 C495 0.941 . S
H482 C496 0.939 . S
H483 C498 0.940 . S
H484 C499 0.940 . S
H485 C501 0.939 . S
H486 C502 0.942 . S
H487 C504 0.940 . S
H488 C505 0.939 . S
H489 C507 0.941 . S
H490 C511 0.939 . S
O491 P480 1.490 . S
H492 C508 0.939 . S
H493 C510 0.940 . S
C494 P480 1.812 . S
C494 C495 1.389 . S
C494 C499 1.391 . S
C495 H481 0.941 . S
C495 C494 1.389 . S
C495 C496 1.397 . S
C496 H482 0.939 . S
C496 C495 1.397 . S
C496 C497 1.378 . S
C497 C496 1.378 . S
C497 C498 1.378 . S
C498 H483 0.940 . S
C498 C497 1.378 . S
C498 C499 1.396 . S
C499 H484 0.940 . S
C499 C494 1.391 . S
C499 C498 1.396 . S
C500 P480 1.803 . S
C500 C501 1.378 . S
C500 C505 1.400 . S
C501 H485 0.939 . S
C501 C500 1.378 . S
C501 C502 1.361 . S
C502 H486 0.942 . S
C502 C501 1.361 . S
C502 C503 1.369 . S
C503 C502 1.369 . S
C503 C504 1.404 . S
C504 H487 0.940 . S
C504 C503 1.404 . S
C504 C505 1.389 . S
C505 H488 0.939 . S
C505 C500 1.400 . S
C505 C504 1.389 . S
C506 P480 1.819 . S
C506 C507 1.391 . S
C506 C511 1.391 . S
C507 H489 0.941 . S
C507 C506 1.391 . S
C507 C508 1.396 . S
C508 H492 0.939 . S
C508 C507 1.396 . S
C508 C509 1.397 . S
C509 C508 1.397 . S
C509 C510 1.385 . S
C510 H493 0.940 . S
C510 C509 1.385 . S
C510 C511 1.388 . S
C511 H490 0.939 . S
C511 C506 1.391 . S
C511 C510 1.388 . S
P512 O523 1.490 . S
P512 C526 1.812 . S
P512 C532 1.803 . S
P512 C538 1.819 . S
H513 C527 0.941 . S
H514 C528 0.939 . S
H515 C530 0.940 . S
H516 C531 0.940 . S
H517 C533 0.939 . S
H518 C534 0.942 . S
H519 C536 0.940 . S
H520 C537 0.939 . S
H521 C539 0.941 . S
H522 C543 0.939 . S
O523 P512 1.490 . S
H524 C540 0.939 . S
H525 C542 0.940 . S
C526 P512 1.812 . S
C526 C527 1.389 . S
C526 C531 1.391 . S
C527 H513 0.941 . S
C527 C526 1.389 . S
C527 C528 1.397 . S
C528 H514 0.939 . S
C528 C527 1.397 . S
C528 C529 1.378 . S
C529 C528 1.378 . S
C529 C530 1.378 . S
C530 H515 0.940 . S
C530 C529 1.378 . S
C530 C531 1.396 . S
C531 H516 0.940 . S
C531 C526 1.391 . S
C531 C530 1.396 . S
C532 P512 1.803 . S
C532 C533 1.378 . S
C532 C537 1.400 . S
C533 H517 0.939 . S
C533 C532 1.378 . S
C533 C534 1.361 . S
C534 H518 0.942 . S
C534 C533 1.361 . S
C534 C535 1.369 . S
C535 C534 1.369 . S
C535 C536 1.404 . S
C536 H519 0.940 . S
C536 C535 1.404 . S
C536 C537 1.389 . S
C537 H520 0.939 . S
C537 C532 1.400 . S
C537 C536 1.389 . S
C538 P512 1.819 . S
C538 C539 1.391 . S
C538 C543 1.391 . S
C539 H521 0.941 . S
C539 C538 1.391 . S
C539 C540 1.396 . S
C540 H524 0.939 . S
C540 C539 1.396 . S
C540 C541 1.397 . S
C541 C540 1.397 . S
C541 C542 1.385 . S
C542 H525 0.940 . S
C542 C541 1.385 . S
C542 C543 1.388 . S
C543 H522 0.939 . S
C543 C538 1.391 . S
C543 C542 1.388 . S
P544 O555 1.490 . S
P544 C558 1.812 . S
P544 C564 1.803 . S
P544 C570 1.819 . S
H545 C559 0.941 . S
H546 C560 0.939 . S
H547 C562 0.940 . S
H548 C563 0.940 . S
H549 C565 0.939 . S
H550 C566 0.942 . S
H551 C568 0.940 . S
H552 C569 0.939 . S
H553 C571 0.941 . S
H554 C575 0.939 . S
O555 P544 1.490 . S
H556 C572 0.939 . S
H557 C574 0.940 . S
C558 P544 1.812 . S
C558 C559 1.389 . S
C558 C563 1.391 . S
C559 H545 0.941 . S
C559 C558 1.389 . S
C559 C560 1.397 . S
C560 H546 0.939 . S
C560 C559 1.397 . S
C560 C561 1.378 . S
C561 C560 1.378 . S
C561 C562 1.378 . S
C562 H547 0.940 . S
C562 C561 1.378 . S
C562 C563 1.396 . S
C563 H548 0.940 . S
C563 C558 1.391 . S
C563 C562 1.396 . S
C564 P544 1.803 . S
C564 C565 1.378 . S
C564 C569 1.400 . S
C565 H549 0.939 . S
C565 C564 1.378 . S
C565 C566 1.361 . S
C566 H550 0.942 . S
C566 C565 1.361 . S
C566 C567 1.369 . S
C567 C566 1.369 . S
C567 C568 1.404 . S
C568 H551 0.940 . S
C568 C567 1.404 . S
C568 C569 1.389 . S
C569 H552 0.939 . S
C569 C564 1.400 . S
C569 C568 1.389 . S
C570 P544 1.819 . S
C570 C571 1.391 . S
C570 C575 1.391 . S
C571 H553 0.941 . S
C571 C570 1.391 . S
C571 C572 1.396 . S
C572 H556 0.939 . S
C572 C571 1.396 . S
C572 C573 1.397 . S
C573 C572 1.397 . S
C573 C574 1.385 . S
C574 H557 0.940 . S
C574 C573 1.385 . S
C574 C575 1.388 . S
C575 H554 0.939 . S
C575 C570 1.391 . S
C575 C574 1.388 . S
P576 O587 1.490 . S
P576 C590 1.812 . S
P576 C596 1.803 . S
P576 C602 1.819 . S
H577 C591 0.941 . S
H578 C592 0.939 . S
H579 C594 0.940 . S
H580 C595 0.940 . S
H581 C597 0.939 . S
H582 C598 0.942 . S
H583 C600 0.940 . S
H584 C601 0.939 . S
H585 C603 0.941 . S
H586 C607 0.939 . S
O587 P576 1.490 . S
H588 C604 0.939 . S
H589 C606 0.940 . S
C590 P576 1.812 . S
C590 C591 1.389 . S
C590 C595 1.391 . S
C591 H577 0.941 . S
C591 C590 1.389 . S
C591 C592 1.397 . S
C592 H578 0.939 . S
C592 C591 1.397 . S
C592 C593 1.378 . S
C593 C592 1.378 . S
C593 C594 1.378 . S
C594 H579 0.940 . S
C594 C593 1.378 . S
C594 C595 1.396 . S
C595 H580 0.940 . S
C595 C590 1.391 . S
C595 C594 1.396 . S
C596 P576 1.803 . S
C596 C597 1.378 . S
C596 C601 1.400 . S
C597 H581 0.939 . S
C597 C596 1.378 . S
C597 C598 1.361 . S
C598 H582 0.942 . S
C598 C597 1.361 . S
C598 C599 1.369 . S
C599 C598 1.369 . S
C599 C600 1.404 . S
C600 H583 0.940 . S
C600 C599 1.404 . S
C600 C601 1.389 . S
C601 H584 0.939 . S
C601 C596 1.400 . S
C601 C600 1.389 . S
C602 P576 1.819 . S
C602 C603 1.391 . S
C602 C607 1.391 . S
C603 H585 0.941 . S
C603 C602 1.391 . S
C603 C604 1.396 . S
C604 H588 0.939 . S
C604 C603 1.396 . S
C604 C605 1.397 . S
C605 C604 1.397 . S
C605 C606 1.385 . S
C606 H589 0.940 . S
C606 C605 1.385 . S
C606 C607 1.388 . S
C607 H586 0.939 . S
C607 C602 1.391 . S
C607 C606 1.388 . S
P608 O619 1.490 . S
P608 C622 1.812 . S
P608 C628 1.803 . S
P608 C634 1.819 . S
H609 C623 0.941 . S
H610 C624 0.939 . S
H611 C626 0.940 . S
H612 C627 0.940 . S
H613 C629 0.939 . S
H614 C630 0.942 . S
H615 C632 0.940 . S
H616 C633 0.939 . S
H617 C635 0.941 . S
H618 C639 0.939 . S
O619 P608 1.490 . S
H620 C636 0.939 . S
H621 C638 0.940 . S
C622 P608 1.812 . S
C622 C623 1.389 . S
C622 C627 1.391 . S
C623 H609 0.941 . S
C623 C622 1.389 . S
C623 C624 1.397 . S
C624 H610 0.939 . S
C624 C623 1.397 . S
C624 C625 1.378 . S
C625 C624 1.378 . S
C625 C626 1.378 . S
C626 H611 0.940 . S
C626 C625 1.378 . S
C626 C627 1.396 . S
C627 H612 0.940 . S
C627 C622 1.391 . S
C627 C626 1.396 . S
C628 P608 1.803 . S
C628 C629 1.378 . S
C628 C633 1.400 . S
C629 H613 0.939 . S
C629 C628 1.378 . S
C629 C630 1.361 . S
C630 H614 0.942 . S
C630 C629 1.361 . S
C630 C631 1.369 . S
C631 C630 1.369 . S
C631 C632 1.404 . S
C632 H615 0.940 . S
C632 C631 1.404 . S
C632 C633 1.389 . S
C633 H616 0.939 . S
C633 C628 1.400 . S
C633 C632 1.389 . S
C634 P608 1.819 . S
C634 C635 1.391 . S
C634 C639 1.391 . S
C635 H617 0.941 . S
C635 C634 1.391 . S
C635 C636 1.396 . S
C636 H620 0.939 . S
C636 C635 1.396 . S
C636 C637 1.397 . S
C637 C636 1.397 . S
C637 C638 1.385 . S
C638 H621 0.940 . S
C638 C637 1.385 . S
C638 C639 1.388 . S
C639 H618 0.939 . S
C639 C634 1.391 . S
C639 C638 1.388 . S
P640 O651 1.490 . S
P640 C654 1.812 . S
P640 C660 1.803 . S
P640 C666 1.819 . S
H641 C655 0.941 . S
H642 C656 0.939 . S
H643 C658 0.940 . S
H644 C659 0.940 . S
H645 C661 0.939 . S
H646 C662 0.942 . S
H647 C664 0.940 . S
H648 C665 0.939 . S
H649 C667 0.941 . S
H650 C671 0.939 . S
O651 P640 1.490 . S
H652 C668 0.939 . S
H653 C670 0.940 . S
C654 P640 1.812 . S
C654 C655 1.389 . S
C654 C659 1.391 . S
C655 H641 0.941 . S
C655 C654 1.389 . S
C655 C656 1.397 . S
C656 H642 0.939 . S
C656 C655 1.397 . S
C656 C657 1.378 . S
C657 C656 1.378 . S
C657 C658 1.378 . S
C658 H643 0.940 . S
C658 C657 1.378 . S
C658 C659 1.396 . S
C659 H644 0.940 . S
C659 C654 1.391 . S
C659 C658 1.396 . S
C660 P640 1.803 . S
C660 C661 1.378 . S
C660 C665 1.400 . S
C661 H645 0.939 . S
C661 C660 1.378 . S
C661 C662 1.361 . S
C662 H646 0.942 . S
C662 C661 1.361 . S
C662 C663 1.369 . S
C663 C662 1.369 . S
C663 C664 1.404 . S
C664 H647 0.940 . S
C664 C663 1.404 . S
C664 C665 1.389 . S
C665 H648 0.939 . S
C665 C660 1.400 . S
C665 C664 1.389 . S
C666 P640 1.819 . S
C666 C667 1.391 . S
C666 C671 1.391 . S
C667 H649 0.941 . S
C667 C666 1.391 . S
C667 C668 1.396 . S
C668 H652 0.939 . S
C668 C667 1.396 . S
C668 C669 1.397 . S
C669 C668 1.397 . S
C669 C670 1.385 . S
C670 H653 0.940 . S
C670 C669 1.385 . S
C670 C671 1.388 . S
C671 H650 0.939 . S
C671 C666 1.391 . S
C671 C670 1.388 . S
P672 O683 1.490 . S
P672 C686 1.812 . S
P672 C692 1.803 . S
P672 C698 1.819 . S
H673 C687 0.941 . S
H674 C688 0.939 . S
H675 C690 0.940 . S
H676 C691 0.940 . S
H677 C693 0.939 . S
H678 C694 0.942 . S
H679 C696 0.940 . S
H680 C697 0.939 . S
H681 C699 0.941 . S
H682 C703 0.939 . S
O683 P672 1.490 . S
H684 C700 0.939 . S
H685 C702 0.940 . S
C686 P672 1.812 . S
C686 C687 1.389 . S
C686 C691 1.391 . S
C687 H673 0.941 . S
C687 C686 1.389 . S
C687 C688 1.397 . S
C688 H674 0.939 . S
C688 C687 1.397 . S
C688 C689 1.378 . S
C689 C688 1.378 . S
C689 C690 1.378 . S
C690 H675 0.940 . S
C690 C689 1.378 . S
C690 C691 1.396 . S
C691 H676 0.940 . S
C691 C686 1.391 . S
C691 C690 1.396 . S
C692 P672 1.803 . S
C692 C693 1.378 . S
C692 C697 1.400 . S
C693 H677 0.939 . S
C693 C692 1.378 . S
C693 C694 1.361 . S
C694 H678 0.942 . S
C694 C693 1.361 . S
C694 C695 1.369 . S
C695 C694 1.369 . S
C695 C696 1.404 . S
C696 H679 0.940 . S
C696 C695 1.404 . S
C696 C697 1.389 . S
C697 H680 0.939 . S
C697 C692 1.400 . S
C697 C696 1.389 . S
C698 P672 1.819 . S
C698 C699 1.391 . S
C698 C703 1.391 . S
C699 H681 0.941 . S
C699 C698 1.391 . S
C699 C700 1.396 . S
C700 H684 0.939 . S
C700 C699 1.396 . S
C700 C701 1.397 . S
C701 C700 1.397 . S
C701 C702 1.385 . S
C702 H685 0.940 . S
C702 C701 1.385 . S
C702 C703 1.388 . S
C703 H682 0.939 . S
C703 C698 1.391 . S
C703 C702 1.388 . S
P704 O715 1.490 . S
P704 C718 1.812 . S
P704 C724 1.803 . S
P704 C730 1.819 . S
H705 C719 0.941 . S
H706 C720 0.939 . S
H707 C722 0.940 . S
H708 C723 0.940 . S
H709 C725 0.939 . S
H710 C726 0.942 . S
H711 C728 0.940 . S
H712 C729 0.939 . S
H713 C731 0.941 . S
H714 C735 0.939 . S
O715 P704 1.490 . S
H716 C732 0.939 . S
H717 C734 0.940 . S
C718 P704 1.812 . S
C718 C719 1.389 . S
C718 C723 1.391 . S
C719 H705 0.941 . S
C719 C718 1.389 . S
C719 C720 1.397 . S
C720 H706 0.939 . S
C720 C719 1.397 . S
C720 C721 1.378 . S
C721 C720 1.378 . S
C721 C722 1.378 . S
C722 H707 0.940 . S
C722 C721 1.378 . S
C722 C723 1.396 . S
C723 H708 0.940 . S
C723 C718 1.391 . S
C723 C722 1.396 . S
C724 P704 1.803 . S
C724 C725 1.378 . S
C724 C729 1.400 . S
C725 H709 0.939 . S
C725 C724 1.378 . S
C725 C726 1.361 . S
C726 H710 0.942 . S
C726 C725 1.361 . S
C726 C727 1.369 . S
C727 C726 1.369 . S
C727 C728 1.404 . S
C728 H711 0.940 . S
C728 C727 1.404 . S
C728 C729 1.389 . S
C729 H712 0.939 . S
C729 C724 1.400 . S
C729 C728 1.389 . S
C730 P704 1.819 . S
C730 C731 1.391 . S
C730 C735 1.391 . S
C731 H713 0.941 . S
C731 C730 1.391 . S
C731 C732 1.396 . S
C732 H716 0.939 . S
C732 C731 1.396 . S
C732 C733 1.397 . S
C733 C732 1.397 . S
C733 C734 1.385 . S
C734 H717 0.940 . S
C734 C733 1.385 . S
C734 C735 1.388 . S
C735 H714 0.939 . S
C735 C730 1.391 . S
C735 C734 1.388 . S
P736 O747 1.490 . S
P736 C750 1.812 . S
P736 C756 1.803 . S
P736 C762 1.819 . S
H737 C751 0.941 . S
H738 C752 0.939 . S
H739 C754 0.940 . S
H740 C755 0.940 . S
H741 C757 0.939 . S
H742 C758 0.942 . S
H743 C760 0.940 . S
H744 C761 0.939 . S
H745 C763 0.941 . S
H746 C767 0.939 . S
O747 P736 1.490 . S
H748 C764 0.939 . S
H749 C766 0.940 . S
C750 P736 1.812 . S
C750 C751 1.389 . S
C750 C755 1.391 . S
C751 H737 0.941 . S
C751 C750 1.389 . S
C751 C752 1.397 . S
C752 H738 0.939 . S
C752 C751 1.397 . S
C752 C753 1.378 . S
C753 C752 1.378 . S
C753 C754 1.378 . S
C754 H739 0.940 . S
C754 C753 1.378 . S
C754 C755 1.396 . S
C755 H740 0.940 . S
C755 C750 1.391 . S
C755 C754 1.396 . S
C756 P736 1.803 . S
C756 C757 1.378 . S
C756 C761 1.400 . S
C757 H741 0.939 . S
C757 C756 1.378 . S
C757 C758 1.361 . S
C758 H742 0.942 . S
C758 C757 1.361 . S
C758 C759 1.369 . S
C759 C758 1.369 . S
C759 C760 1.404 . S
C760 H743 0.940 . S
C760 C759 1.404 . S
C760 C761 1.389 . S
C761 H744 0.939 . S
C761 C756 1.400 . S
C761 C760 1.389 . S
C762 P736 1.819 . S
C762 C763 1.391 . S
C762 C767 1.391 . S
C763 H745 0.941 . S
C763 C762 1.391 . S
C763 C764 1.396 . S
C764 H748 0.939 . S
C764 C763 1.396 . S
C764 C765 1.397 . S
C765 C764 1.397 . S
C765 C766 1.385 . S
C766 H749 0.940 . S
C766 C765 1.385 . S
C766 C767 1.388 . S
C767 H746 0.939 . S
C767 C762 1.391 . S
C767 C766 1.388 . S
Zn768 O770 1.919 1_665 S
Zn768 O788 1.977 1_565 S
Zn768 O799 1.964 . S
Zn769 O770 1.893 1_655 S
Zn769 O789 1.970 . S
Zn769 O805 1.943 1_655 S
Zn769 O812 1.981 . S
O770 Zn768 1.919 1_445 S
O770 Zn769 1.893 1_455 S
O770 H771 0.886 . S
H771 O770 0.886 . S
C772 O773 1.246 . S
C772 O801 1.276 . S
O773 C772 1.246 . S
Zn774 O776 1.911 . S
Zn774 O791 1.970 . S
Zn774 O808 1.945 . S
Zn774 O815 1.981 . S
Zn775 O776 1.933 1_565 S
Zn775 O790 1.985 . S
Zn775 O797 1.955 . S
O776 Zn774 1.911 . S
O776 Zn775 1.933 1_545 S
O776 H777 0.841 . S
H777 O776 0.841 . S
Zn778 O779 1.933 1_565 S
Zn778 O792 1.975 1_565 S
Zn778 O801 1.955 . S
O779 Zn778 1.933 1_545 S
O779 Zn780 1.911 . S
O779 H781 0.841 . S
Zn780 O779 1.911 . S
Zn780 O793 1.970 . S
Zn780 O809 1.981 1_655 S
Zn780 O811 1.945 . S
H781 O779 0.841 . S
Zn782 O783 1.933 1_565 S
Zn782 O795 1.985 . S
Zn782 O803 1.955 . S
O783 Zn782 1.933 1_545 S
O783 H784 0.841 . S
O783 Zn785 1.911 . S
H784 O783 0.841 . S
Zn785 O783 1.911 . S
Zn785 O796 1.970 . S
Zn785 O806 1.981 . S
Zn785 O814 1.945 . S
C786 O787 1.246 . S
C786 O803 1.276 . S
O787 C786 1.246 . S
O788 Zn768 1.977 1_545 S
O788 C798 1.279 . S
O789 Zn769 1.970 . S
O789 C798 1.263 . S
O790 Zn775 1.985 . S
O790 C802 1.245 1_565 S
O791 Zn774 1.970 . S
O791 C802 1.263 . S
O792 Zn778 1.975 1_545 S
O792 C807 1.288 . S
O793 Zn780 1.970 . S
O793 C807 1.263 . S
C794 O805 1.267 . S
C794 O806 1.245 . S
O795 Zn782 1.985 . S
O795 C813 1.245 1_565 S
O796 Zn785 1.970 . S
O796 C813 1.263 . S
O797 Zn775 1.955 . S
O797 C816 1.276 . S
C798 O788 1.279 . S
C798 O789 1.263 . S
O799 Zn768 1.964 . S
O799 C818 1.242 1_655 S
C800 O808 1.262 . S
C800 O809 1.245 . S
O801 C772 1.276 . S
O801 Zn778 1.955 . S
C802 O790 1.245 1_545 S
C802 O791 1.263 . S
O803 Zn782 1.955 . S
O803 C786 1.276 . S
C804 O811 1.262 . S
C804 O812 1.245 . S
O805 Zn769 1.943 1_455 S
O805 C794 1.267 . S
O806 Zn785 1.981 . S
O806 C794 1.245 . S
C807 O792 1.288 . S
C807 O793 1.263 . S
O808 Zn774 1.945 . S
O808 C800 1.262 . S
O809 Zn780 1.981 1_455 S
O809 C800 1.245 . S
C810 O814 1.262 . S
C810 O815 1.245 . S
O811 Zn780 1.945 . S
O811 C804 1.262 . S
O812 Zn769 1.981 . S
O812 C804 1.245 . S
C813 O795 1.245 1_545 S
C813 O796 1.263 . S
O814 Zn785 1.945 . S
O814 C810 1.262 . S
O815 Zn774 1.981 . S
O815 C810 1.245 . S
C816 O797 1.276 . S
C816 O817 1.246 . S
O817 C816 1.246 . S
C818 O799 1.242 1_455 S
C818 O819 1.246 . S
O819 C818 1.246 . S
Zn820 O822 1.933 . S
Zn820 O840 1.985 . S
Zn820 O851 1.955 . S
Zn821 O822 1.911 1_556 S
Zn821 O841 1.970 . S
Zn821 O857 1.945 . S
Zn821 O864 1.981 . S
O822 Zn820 1.933 . S
O822 Zn821 1.911 1_554 S
O822 H823 0.841 . S
H823 O822 0.841 . S
C824 O825 1.246 . S
C824 O853 1.276 . S
O825 C824 1.246 . S
Zn826 O828 1.914 1_556 S
Zn826 O843 1.970 . S
Zn826 O860 1.945 . S
Zn826 O867 1.981 . S
Zn827 O828 1.935 . S
Zn827 O842 1.985 . S
Zn827 O849 1.954 . S
O828 Zn826 1.914 1_554 S
O828 Zn827 1.935 . S
O828 H829 0.834 1_565 S
H829 O828 0.834 1_545 S
Zn830 O831 1.933 . S
Zn830 O844 1.985 . S
Zn830 O853 1.955 . S
O831 Zn830 1.933 . S
O831 Zn832 1.911 1_554 S
O831 H833 0.841 . S
Zn832 O831 1.911 1_556 S
Zn832 O845 1.970 . S
Zn832 O861 1.981 . S
Zn832 O863 1.945 . S
H833 O831 0.841 . S
Zn834 O835 1.933 . S
Zn834 O847 1.985 . S
Zn834 O855 1.955 . S
O835 Zn834 1.933 . S
O835 H836 0.841 . S
O835 Zn837 1.911 1_554 S
H836 O835 0.841 . S
Zn837 O835 1.911 1_556 S
Zn837 O848 1.970 . S
Zn837 O858 1.981 1_565 S
Zn837 O866 1.945 . S
C838 O839 1.246 . S
C838 O855 1.276 . S
O839 C838 1.246 . S
O840 Zn820 1.985 . S
O840 C850 1.245 . S
O841 Zn821 1.970 . S
O841 C850 1.263 1_556 S
O842 Zn827 1.985 . S
O842 C854 1.245 . S
O843 Zn826 1.970 . S
O843 C854 1.263 1_556 S
O844 Zn830 1.985 . S
O844 C859 1.245 . S
O845 Zn832 1.970 . S
O845 C859 1.263 1_556 S
C846 O857 1.262 . S
C846 O858 1.245 . S
O847 Zn834 1.985 . S
O847 C865 1.245 . S
O848 Zn837 1.970 . S
O848 C865 1.263 1_556 S
O849 Zn827 1.954 . S
O849 C868 1.280 1_565 S
C850 O840 1.245 . S
C850 O841 1.263 1_554 S
O851 Zn820 1.955 . S
O851 C870 1.276 . S
C852 O860 1.262 1_545 S
C852 O861 1.245 . S
O853 C824 1.276 . S
O853 Zn830 1.955 . S
C854 O842 1.245 . S
C854 O843 1.263 1_554 S
O855 Zn834 1.955 . S
O855 C838 1.276 . S
C856 O863 1.262 . S
C856 O864 1.245 . S
O857 Zn821 1.945 . S
O857 C846 1.262 . S
O858 Zn837 1.981 1_545 S
O858 C846 1.245 . S
C859 O844 1.245 . S
C859 O845 1.263 1_554 S
O860 Zn826 1.945 . S
O860 C852 1.262 1_565 S
O861 Zn832 1.981 . S
O861 C852 1.245 . S
C862 O866 1.262 . S
C862 O867 1.245 . S
O863 Zn832 1.945 . S
O863 C856 1.262 . S
O864 Zn821 1.981 . S
O864 C856 1.245 . S
C865 O847 1.245 . S
C865 O848 1.263 1_554 S
O866 Zn837 1.945 . S
O866 C862 1.262 . S
O867 Zn826 1.981 . S
O867 C862 1.245 . S
C868 O849 1.280 1_545 S
C868 O869 1.246 . S
O869 C868 1.246 . S
C870 O851 1.276 . S
C870 O871 1.246 . S
O871 C870 1.246 . S
Zn872 O874 1.933 . S
Zn872 O892 1.985 . S
Zn872 O903 1.952 1_655 S
Zn873 O874 1.911 . S
Zn873 O893 1.970 . S
Zn873 O909 1.945 . S
Zn873 O916 1.981 . S
O874 Zn872 1.933 . S
O874 Zn873 1.911 . S
O874 H875 0.841 1_655 S
H875 O874 0.841 1_455 S
C876 O877 1.246 1_554 S
C876 O905 1.276 . S
O877 C876 1.246 1_556 S
Zn878 O880 1.911 . S
Zn878 O895 1.970 . S
Zn878 O912 1.945 . S
Zn878 O919 1.981 . S
Zn879 O880 1.933 . S
Zn879 O894 1.985 . S
Zn879 O901 1.955 . S
O880 Zn878 1.911 . S
O880 Zn879 1.933 . S
O880 H881 0.841 . S
H881 O880 0.841 . S
Zn882 O883 1.933 . S
Zn882 O896 1.985 . S
Zn882 O905 1.955 . S
O883 Zn882 1.933 . S
O883 Zn884 1.911 . S
O883 H885 0.841 . S
Zn884 O883 1.911 . S
Zn884 O897 1.970 . S
Zn884 O913 1.981 1_655 S
Zn884 O915 1.945 . S
H885 O883 0.841 . S
Zn886 O887 1.933 . S
Zn886 O899 1.985 . S
Zn886 O907 1.955 . S
O887 Zn886 1.933 . S
O887 H888 0.841 1_556 S
O887 Zn889 1.911 . S
H888 O887 0.841 1_554 S
Zn889 O887 1.911 . S
Zn889 O900 1.970 . S
Zn889 O910 1.981 . S
Zn889 O918 1.945 . S
C890 O891 1.246 . S
C890 O907 1.276 1_554 S
O891 C890 1.246 . S
O892 Zn872 1.985 . S
O892 C902 1.245 . S
O893 Zn873 1.970 . S
O893 C902 1.263 . S
O894 Zn879 1.985 . S
O894 C906 1.245 . S
O895 Zn878 1.970 . S
O895 C906 1.263 . S
O896 Zn882 1.985 . S
O896 C911 1.245 . S
O897 Zn884 1.970 . S
O897 C911 1.263 . S
C898 O909 1.262 1_455 S
C898 O910 1.245 . S
O899 Zn886 1.985 . S
O899 C917 1.245 . S
O900 Zn889 1.970 . S
O900 C917 1.263 . S
O901 Zn879 1.955 . S
O901 C920 1.276 . S
C902 O892 1.245 . S
C902 O893 1.263 . S
O903 Zn872 1.952 1_455 S
O903 C922 1.285 . S
C904 O912 1.262 . S
C904 O913 1.245 . S
O905 C876 1.276 . S
O905 Zn882 1.955 . S
C906 O894 1.245 . S
C906 O895 1.263 . S
O907 Zn886 1.955 . S
O907 C890 1.276 1_556 S
C908 O915 1.262 . S
C908 O916 1.245 1_554 S
O909 Zn873 1.945 . S
O909 C898 1.262 1_655 S
O910 Zn889 1.981 . S
O910 C898 1.245 . S
C911 O896 1.245 . S
C911 O897 1.263 . S
O912 Zn878 1.945 . S
O912 C904 1.262 . S
O913 Zn884 1.981 1_455 S
O913 C904 1.245 . S
C914 O918 1.262 1_554 S
C914 O919 1.245 . S
O915 Zn884 1.945 . S
O915 C908 1.262 . S
O916 Zn873 1.981 . S
O916 C908 1.245 1_556 S
C917 O899 1.245 . S
C917 O900 1.263 . S
O918 Zn889 1.945 . S
O918 C914 1.262 1_556 S
O919 Zn878 1.981 . S
O919 C914 1.245 . S
C920 O901 1.276 . S
C920 O921 1.246 . S
O921 C920 1.246 . S
C922 O903 1.285 . S
C922 O923 1.246 . S
O923 C922 1.246 . S
Zn924 O926 1.933 1_556 S
Zn924 O944 1.985 . S
Zn924 O955 1.955 . S
Zn925 O926 1.911 . S
Zn925 O945 1.970 . S
Zn925 O961 1.945 . S
Zn925 O968 1.981 . S
O926 Zn924 1.933 1_554 S
O926 Zn925 1.911 . S
O926 H927 0.841 . S
H927 O926 0.841 . S
C928 O929 1.246 . S
C928 O957 1.276 . S
O929 C928 1.246 . S
Zn930 O932 1.911 . S
Zn930 O947 1.970 . S
Zn930 O964 1.945 . S
Zn930 O971 1.981 . S
Zn931 O932 1.933 1_556 S
Zn931 O946 1.985 . S
Zn931 O953 1.955 . S
O932 Zn930 1.911 . S
O932 Zn931 1.933 1_554 S
O932 H933 0.841 . S
H933 O932 0.841 . S
Zn934 O935 1.933 1_556 S
Zn934 O948 1.985 . S
Zn934 O957 1.955 . S
O935 Zn934 1.933 1_554 S
O935 Zn936 1.911 . S
O935 H937 0.841 . S
Zn936 O935 1.911 . S
Zn936 O949 1.970 . S
Zn936 O965 1.981 . S
Zn936 O967 1.945 . S
H937 O935 0.841 . S
Zn938 O939 1.933 1_556 S
Zn938 O951 1.985 . S
Zn938 O959 1.955 . S
O939 Zn938 1.933 1_554 S
O939 H940 0.841 . S
O939 Zn941 1.911 . S
H940 O939 0.841 . S
Zn941 O939 1.911 . S
Zn941 O952 1.970 . S
Zn941 O962 1.981 . S
Zn941 O970 1.945 . S
C942 O943 1.246 . S
C942 O959 1.276 . S
O943 C942 1.246 . S
O944 Zn924 1.985 . S
O944 C954 1.245 1_556 S
O945 Zn925 1.970 . S
O945 C954 1.263 . S
O946 Zn931 1.985 . S
O946 C958 1.245 1_556 S
O947 Zn930 1.970 . S
O947 C958 1.263 . S
O948 Zn934 1.985 . S
O948 C963 1.245 1_556 S
O949 Zn936 1.970 . S
O949 C963 1.263 . S
C950 O961 1.262 . S
C950 O962 1.245 . S
O951 Zn938 1.985 . S
O951 C969 1.245 1_556 S
O952 Zn941 1.970 . S
O952 C969 1.263 . S
O953 Zn931 1.955 . S
O953 C972 1.276 . S
C954 O944 1.245 1_554 S
C954 O945 1.263 . S
O955 Zn924 1.955 . S
O955 C974 1.276 . S
C956 O964 1.262 . S
C956 O965 1.245 . S
O957 C928 1.276 . S
O957 Zn934 1.955 . S
C958 O946 1.245 1_554 S
C958 O947 1.263 . S
O959 Zn938 1.955 . S
O959 C942 1.276 . S
C960 O967 1.262 . S
C960 O968 1.245 . S
O961 Zn925 1.945 . S
O961 C950 1.262 . S
O962 Zn941 1.981 . S
O962 C950 1.245 . S
C963 O948 1.245 1_554 S
C963 O949 1.263 . S
O964 Zn930 1.945 . S
O964 C956 1.262 . S
O965 Zn936 1.981 . S
O965 C956 1.245 . S
C966 O970 1.262 . S
C966 O971 1.245 . S
O967 Zn936 1.945 . S
O967 C960 1.262 . S
O968 Zn925 1.981 . S
O968 C960 1.245 . S
C969 O951 1.245 1_554 S
C969 O952 1.263 . S
O970 Zn941 1.945 . S
O970 C966 1.262 . S
O971 Zn930 1.981 . S
O971 C966 1.245 . S
C972 O953 1.276 . S
C972 O973 1.246 . S
O973 C972 1.246 . S
C974 O955 1.276 . S
C974 O975 1.246 . S
O975 C974 1.246 . S
Zn976 O978 1.928 1_655 S
Zn976 O996 1.985 . S
Zn976 O1007 1.955 1_655 S
Zn977 O978 1.904 1_655 S
Zn977 O997 1.970 . S
Zn977 O1013 1.945 . S
Zn977 O1020 1.981 . S
O978 Zn976 1.928 1_455 S
O978 Zn977 1.904 1_455 S
O978 H979 0.857 . S
H979 O978 0.857 . S
C980 O981 1.246 . S
C980 O1009 1.276 . S
O981 C980 1.246 . S
Zn982 O984 1.911 . S
Zn982 O999 1.970 . S
Zn982 O1016 1.945 . S
Zn982 O1023 1.981 . S
Zn983 O984 1.933 . S
Zn983 O998 1.985 . S
Zn983 O1005 1.955 . S
O984 Zn982 1.911 . S
O984 Zn983 1.933 . S
O984 H985 0.841 . S
H985 O984 0.841 . S
Zn986 O987 1.933 . S
Zn986 O1000 1.985 . S
Zn986 O1009 1.955 . S
O987 Zn986 1.933 . S
O987 Zn988 1.911 . S
O987 H989 0.841 . S
Zn988 O987 1.911 . S
Zn988 O1001 1.970 . S
Zn988 O1017 1.981 1_655 S
Zn988 O1019 1.945 . S
H989 O987 0.841 . S
Zn990 O991 1.933 . S
Zn990 O1003 1.985 . S
Zn990 O1011 1.955 . S
O991 Zn990 1.933 . S
O991 H992 0.841 . S
O991 Zn993 1.911 . S
H992 O991 0.841 . S
Zn993 O991 1.911 . S
Zn993 O1004 1.970 . S
Zn993 O1014 1.981 . S
Zn993 O1022 1.945 . S
C994 O995 1.246 . S
C994 O1011 1.276 . S
O995 C994 1.246 . S
O996 Zn976 1.985 . S
O996 C1006 1.245 . S
O997 Zn977 1.970 . S
O997 C1006 1.263 . S
O998 Zn983 1.985 . S
O998 C1010 1.245 . S
O999 Zn982 1.970 . S
O999 C1010 1.263 . S
O1000 Zn986 1.985 . S
O1000 C1015 1.245 . S
O1001 Zn988 1.970 . S
O1001 C1015 1.263 . S
C1002 O1013 1.262 1_455 S
C1002 O1014 1.245 . S
O1003 Zn990 1.985 . S
O1003 C1021 1.245 . S
O1004 Zn993 1.970 . S
O1004 C1021 1.263 . S
O1005 Zn983 1.955 . S
O1005 C1024 1.276 . S
C1006 O996 1.245 . S
C1006 O997 1.263 . S
O1007 Zn976 1.955 1_455 S
O1007 C1026 1.276 . S
C1008 O1016 1.262 . S
C1008 O1017 1.245 . S
O1009 C980 1.276 . S
O1009 Zn986 1.955 . S
C1010 O998 1.245 . S
C1010 O999 1.263 . S
O1011 Zn990 1.955 . S
O1011 C994 1.276 . S
C1012 O1019 1.262 . S
C1012 O1020 1.245 . S
O1013 Zn977 1.945 . S
O1013 C1002 1.262 1_655 S
O1014 Zn993 1.981 . S
O1014 C1002 1.245 . S
C1015 O1000 1.245 . S
C1015 O1001 1.263 . S
O1016 Zn982 1.945 . S
O1016 C1008 1.262 . S
O1017 Zn988 1.981 1_455 S
O1017 C1008 1.245 . S
C1018 O1022 1.262 . S
C1018 O1023 1.245 . S
O1019 Zn988 1.945 . S
O1019 C1012 1.262 . S
O1020 Zn977 1.981 . S
O1020 C1012 1.245 . S
C1021 O1003 1.245 . S
C1021 O1004 1.263 . S
O1022 Zn993 1.945 . S
O1022 C1018 1.262 . S
O1023 Zn982 1.981 . S
O1023 C1018 1.245 . S
C1024 O1005 1.276 . S
C1024 O1025 1.246 . S
O1025 C1024 1.246 . S
C1026 O1007 1.276 . S
C1026 O1027 1.246 . S
O1027 C1026 1.246 . S
Zn1028 O1030 1.933 1_565 S
Zn1028 O1048 1.985 . S
Zn1028 O1059 1.955 . S
Zn1029 O1030 1.911 . S
Zn1029 O1049 1.970 . S
Zn1029 O1065 1.945 . S
Zn1029 O1072 1.981 . S
O1030 Zn1028 1.933 1_545 S
O1030 Zn1029 1.911 . S
O1030 H1031 0.841 . S
H1031 O1030 0.841 . S
C1032 O1033 1.246 . S
C1032 O1061 1.276 . S
O1033 C1032 1.246 . S
Zn1034 O1036 1.911 . S
Zn1034 O1051 1.970 . S
Zn1034 O1068 1.945 . S
Zn1034 O1075 1.981 . S
Zn1035 O1036 1.933 1_565 S
Zn1035 O1050 1.985 1_565 S
Zn1035 O1057 1.955 . S
O1036 Zn1034 1.911 . S
O1036 Zn1035 1.933 1_545 S
O1036 H1037 0.841 . S
H1037 O1036 0.841 . S
Zn1038 O1039 1.933 1_565 S
Zn1038 O1052 1.985 . S
Zn1038 O1061 1.955 . S
O1039 Zn1038 1.933 1_545 S
O1039 Zn1040 1.911 . S
O1039 H1041 0.841 . S
Zn1040 O1039 1.911 . S
Zn1040 O1053 1.970 . S
Zn1040 O1069 1.981 . S
Zn1040 O1071 1.945 . S
H1041 O1039 0.841 . S
Zn1042 O1043 1.933 1_565 S
Zn1042 O1055 1.985 1_565 S
Zn1042 O1063 1.955 . S
O1043 Zn1042 1.933 1_545 S
O1043 H1044 0.841 . S
O1043 Zn1045 1.911 . S
H1044 O1043 0.841 . S
Zn1045 O1043 1.911 . S
Zn1045 O1056 1.970 . S
Zn1045 O1066 1.981 . S
Zn1045 O1074 1.945 . S
C1046 O1047 1.246 . S
C1046 O1063 1.276 . S
O1047 C1046 1.246 . S
O1048 Zn1028 1.985 . S
O1048 C1058 1.245 1_565 S
O1049 Zn1029 1.970 . S
O1049 C1058 1.263 . S
O1050 Zn1035 1.985 1_545 S
O1050 C1062 1.245 . S
O1051 Zn1034 1.970 . S
O1051 C1062 1.263 . S
O1052 Zn1038 1.985 . S
O1052 C1067 1.245 1_565 S
O1053 Zn1040 1.970 . S
O1053 C1067 1.263 . S
C1054 O1065 1.262 . S
C1054 O1066 1.245 . S
O1055 Zn1042 1.985 1_545 S
O1055 C1073 1.245 . S
O1056 Zn1045 1.970 . S
O1056 C1073 1.263 . S
O1057 Zn1035 1.955 . S
O1057 C1076 1.276 . S
C1058 O1048 1.245 1_545 S
C1058 O1049 1.263 . S
O1059 Zn1028 1.955 . S
O1059 C1078 1.276 . S
C1060 O1068 1.262 . S
C1060 O1069 1.245 . S
O1061 C1032 1.276 . S
O1061 Zn1038 1.955 . S
C1062 O1050 1.245 . S
C1062 O1051 1.263 . S
O1063 Zn1042 1.955 . S
O1063 C1046 1.276 . S
C1064 O1071 1.262 . S
C1064 O1072 1.245 . S
O1065 Zn1029 1.945 . S
O1065 C1054 1.262 . S
O1066 Zn1045 1.981 . S
O1066 C1054 1.245 . S
C1067 O1052 1.245 1_545 S
C1067 O1053 1.263 . S
O1068 Zn1034 1.945 . S
O1068 C1060 1.262 . S
O1069 Zn1040 1.981 . S
O1069 C1060 1.245 . S
C1070 O1074 1.262 . S
C1070 O1075 1.245 . S
O1071 Zn1040 1.945 . S
O1071 C1064 1.262 . S
O1072 Zn1029 1.981 . S
O1072 C1064 1.245 . S
C1073 O1055 1.245 . S
C1073 O1056 1.263 . S
O1074 Zn1045 1.945 . S
O1074 C1070 1.262 . S
O1075 Zn1034 1.981 . S
O1075 C1070 1.245 . S
C1076 O1057 1.276 . S
C1076 O1077 1.246 . S
O1077 C1076 1.246 . S
C1078 O1059 1.276 . S
C1078 O1079 1.246 . S
O1079 C1078 1.246 . S
H1080 C1086 0.930 . S
H1081 C1090 0.930 . S
H1082 C1095 0.929 . S
H1083 C1093 0.929 . S
H1084 C1088 0.929 . S
H1085 C1094 0.929 . S
C1086 H1080 0.930 . S
C1086 C1087 1.367 . S
C1086 C1094 1.378 . S
C1087 C1086 1.367 . S
C1087 C1095 1.433 . S
C1088 H1084 0.929 . S
C1088 C1090 1.378 . S
C1088 C1092 1.350 . S
C1089 C1092 1.463 . S
C1089 C1094 1.350 . S
C1089 N1097 1.427 . S
C1090 H1081 0.930 . S
C1090 C1088 1.378 . S
C1090 C1091 1.367 . S
C1091 C1090 1.367 . S
C1091 C1093 1.433 . S
C1092 C1088 1.350 . S
C1092 C1089 1.463 . S
C1092 N1096 1.427 . S
C1093 H1083 0.929 . S
C1093 C1091 1.433 . S
C1093 N1096 1.384 . S
C1094 H1085 0.929 . S
C1094 C1086 1.378 . S
C1094 C1089 1.350 . S
C1095 H1082 0.929 . S
C1095 C1087 1.433 . S
C1095 N1097 1.384 . S
N1096 C1092 1.427 . S
N1096 C1093 1.384 . S
N1097 C1089 1.427 . S
N1097 C1095 1.384 . S
H1098 C1104 0.930 . S
H1099 C1108 0.930 . S
H1100 C1113 0.929 . S
H1101 C1111 0.929 . S
H1102 C1106 0.929 . S
H1103 C1112 0.929 . S
C1104 H1098 0.930 . S
C1104 C1105 1.367 . S
C1104 C1112 1.378 . S
C1105 C1104 1.367 . S
C1105 C1113 1.433 . S
C1106 H1102 0.929 . S
C1106 C1108 1.378 . S
C1106 C1110 1.350 . S
C1107 C1110 1.463 . S
C1107 C1112 1.350 . S
C1107 N1115 1.427 . S
C1108 H1099 0.930 . S
C1108 C1106 1.378 . S
C1108 C1109 1.367 . S
C1109 C1108 1.367 . S
C1109 C1111 1.433 . S
C1110 C1106 1.350 . S
C1110 C1107 1.463 . S
C1110 N1114 1.427 . S
C1111 H1101 0.929 . S
C1111 C1109 1.433 . S
C1111 N1114 1.384 . S
C1112 H1103 0.929 . S
C1112 C1104 1.378 . S
C1112 C1107 1.350 . S
C1113 H1100 0.929 . S
C1113 C1105 1.433 . S
C1113 N1115 1.384 . S
N1114 C1110 1.427 . S
N1114 C1111 1.384 . S
N1115 C1107 1.427 . S
N1115 C1113 1.384 . S
H1116 C1122 0.930 . S
H1117 C1126 0.930 . S
H1118 C1131 0.929 . S
H1119 C1129 0.929 . S
H1120 C1124 0.929 . S
H1121 C1130 0.929 . S
C1122 H1116 0.930 . S
C1122 C1123 1.367 . S
C1122 C1130 1.378 . S
C1123 C1122 1.367 . S
C1123 C1131 1.433 . S
C1124 H1120 0.929 . S
C1124 C1126 1.378 . S
C1124 C1128 1.350 . S
C1125 C1128 1.463 . S
C1125 C1130 1.350 . S
C1125 N1133 1.427 . S
C1126 H1117 0.930 . S
C1126 C1124 1.378 . S
C1126 C1127 1.367 . S
C1127 C1126 1.367 . S
C1127 C1129 1.433 . S
C1128 C1124 1.350 . S
C1128 C1125 1.463 . S
C1128 N1132 1.427 . S
C1129 H1119 0.929 . S
C1129 C1127 1.433 . S
C1129 N1132 1.384 . S
C1130 H1121 0.929 . S
C1130 C1122 1.378 . S
C1130 C1125 1.350 . S
C1131 H1118 0.929 . S
C1131 C1123 1.433 . S
C1131 N1133 1.384 . S
N1132 C1128 1.427 . S
N1132 C1129 1.384 . S
N1133 C1125 1.427 . S
N1133 C1131 1.384 . S
H1134 C1140 0.930 . S
H1135 C1144 0.930 . S
H1136 C1149 0.929 . S
H1137 C1147 0.929 . S
H1138 C1142 0.929 . S
H1139 C1148 0.929 . S
C1140 H1134 0.930 . S
C1140 C1141 1.367 . S
C1140 C1148 1.378 . S
C1141 C1140 1.367 . S
C1141 C1149 1.433 . S
C1142 H1138 0.929 . S
C1142 C1144 1.378 . S
C1142 C1146 1.350 . S
C1143 C1146 1.463 . S
C1143 C1148 1.350 . S
C1143 N1151 1.427 . S
C1144 H1135 0.930 . S
C1144 C1142 1.378 . S
C1144 C1145 1.367 . S
C1145 C1144 1.367 . S
C1145 C1147 1.433 . S
C1146 C1142 1.350 . S
C1146 C1143 1.463 . S
C1146 N1150 1.427 . S
C1147 H1137 0.929 . S
C1147 C1145 1.433 . S
C1147 N1150 1.384 . S
C1148 H1139 0.929 . S
C1148 C1140 1.378 . S
C1148 C1143 1.350 . S
C1149 H1136 0.929 . S
C1149 C1141 1.433 . S
C1149 N1151 1.384 . S
N1150 C1146 1.427 . S
N1150 C1147 1.384 . S
N1151 C1143 1.427 . S
N1151 C1149 1.384 . S
H1152 C1158 0.930 . S
H1153 C1162 0.930 . S
H1154 C1167 0.929 . S
H1155 C1165 0.929 . S
H1156 C1160 0.929 . S
H1157 C1166 0.929 . S
C1158 H1152 0.930 . S
C1158 C1159 1.367 . S
C1158 C1166 1.378 . S
C1159 C1158 1.367 . S
C1159 C1167 1.433 . S
C1160 H1156 0.929 . S
C1160 C1162 1.378 . S
C1160 C1164 1.350 . S
C1161 C1164 1.463 . S
C1161 C1166 1.350 . S
C1161 N1169 1.427 . S
C1162 H1153 0.930 . S
C1162 C1160 1.378 . S
C1162 C1163 1.367 . S
C1163 C1162 1.367 . S
C1163 C1165 1.433 . S
C1164 C1160 1.350 . S
C1164 C1161 1.463 . S
C1164 N1168 1.427 . S
C1165 H1155 0.929 . S
C1165 C1163 1.433 . S
C1165 N1168 1.384 . S
C1166 H1157 0.929 . S
C1166 C1158 1.378 . S
C1166 C1161 1.350 . S
C1167 H1154 0.929 . S
C1167 C1159 1.433 . S
C1167 N1169 1.384 . S
N1168 C1164 1.427 . S
N1168 C1165 1.384 . S
N1169 C1161 1.427 . S
N1169 C1167 1.384 . S
H1170 C1176 0.930 . S
H1171 C1180 0.930 . S
H1172 C1185 0.929 . S
H1173 C1183 0.929 . S
H1174 C1178 0.929 . S
H1175 C1184 0.929 . S
C1176 H1170 0.930 . S
C1176 C1177 1.367 . S
C1176 C1184 1.378 . S
C1177 C1176 1.367 . S
C1177 C1185 1.433 . S
C1178 H1174 0.929 . S
C1178 C1180 1.378 . S
C1178 C1182 1.350 . S
C1179 C1182 1.463 . S
C1179 C1184 1.350 . S
C1179 N1187 1.427 . S
C1180 H1171 0.930 . S
C1180 C1178 1.378 . S
C1180 C1181 1.367 . S
C1181 C1180 1.367 . S
C1181 C1183 1.433 . S
C1182 C1178 1.350 . S
C1182 C1179 1.463 . S
C1182 N1186 1.427 . S
C1183 H1173 0.929 . S
C1183 C1181 1.433 . S
C1183 N1186 1.384 . S
C1184 H1175 0.929 . S
C1184 C1176 1.378 . S
C1184 C1179 1.350 . S
C1185 H1172 0.929 . S
C1185 C1177 1.433 . S
C1185 N1187 1.384 . S
N1186 C1182 1.427 . S
N1186 C1183 1.384 . S
N1187 C1179 1.427 . S
N1187 C1185 1.384 . S
H1188 C1194 0.930 . S
H1189 C1198 0.930 . S
H1190 C1203 0.929 . S
H1191 C1201 0.929 . S
H1192 C1196 0.929 . S
H1193 C1202 0.929 . S
C1194 H1188 0.930 . S
C1194 C1195 1.367 . S
C1194 C1202 1.378 . S
C1195 C1194 1.367 . S
C1195 C1203 1.433 . S
C1196 H1192 0.929 . S
C1196 C1198 1.378 . S
C1196 C1200 1.350 . S
C1197 C1200 1.463 . S
C1197 C1202 1.350 . S
C1197 N1205 1.427 . S
C1198 H1189 0.930 . S
C1198 C1196 1.378 . S
C1198 C1199 1.367 . S
C1199 C1198 1.367 . S
C1199 C1201 1.433 . S
C1200 C1196 1.350 . S
C1200 C1197 1.463 . S
C1200 N1204 1.427 . S
C1201 H1191 0.929 . S
C1201 C1199 1.433 . S
C1201 N1204 1.384 . S
C1202 H1193 0.929 . S
C1202 C1194 1.378 . S
C1202 C1197 1.350 . S
C1203 H1190 0.929 . S
C1203 C1195 1.433 . S
C1203 N1205 1.384 . S
N1204 C1200 1.427 . S
N1204 C1201 1.384 . S
N1205 C1197 1.427 . S
N1205 C1203 1.384 . S
H1206 C1212 0.930 . S
H1207 C1216 0.930 . S
H1208 C1221 0.929 . S
H1209 C1219 0.929 . S
H1210 C1214 0.929 . S
H1211 C1220 0.929 . S
C1212 H1206 0.930 . S
C1212 C1213 1.367 . S
C1212 C1220 1.378 . S
C1213 C1212 1.367 . S
C1213 C1221 1.433 . S
C1214 H1210 0.929 . S
C1214 C1216 1.378 . S
C1214 C1218 1.350 . S
C1215 C1218 1.463 . S
C1215 C1220 1.350 . S
C1215 N1223 1.427 . S
C1216 H1207 0.930 . S
C1216 C1214 1.378 . S
C1216 C1217 1.367 . S
C1217 C1216 1.367 . S
C1217 C1219 1.433 . S
C1218 C1214 1.350 . S
C1218 C1215 1.463 . S
C1218 N1222 1.427 . S
C1219 H1209 0.929 . S
C1219 C1217 1.433 . S
C1219 N1222 1.384 . S
C1220 H1211 0.929 . S
C1220 C1212 1.378 . S
C1220 C1215 1.350 . S
C1221 H1208 0.929 . S
C1221 C1213 1.433 . S
C1221 N1223 1.384 . S
N1222 C1218 1.427 . S
N1222 C1219 1.384 . S
N1223 C1215 1.427 . S
N1223 C1221 1.384 . S
H1224 C1230 0.930 . S
H1225 C1234 0.930 . S
H1226 C1239 0.929 . S
H1227 C1237 0.929 . S
H1228 C1232 0.929 . S
H1229 C1238 0.929 . S
C1230 H1224 0.930 . S
C1230 C1231 1.367 . S
C1230 C1238 1.378 . S
C1231 C1230 1.367 . S
C1231 C1239 1.433 . S
C1232 H1228 0.929 . S
C1232 C1234 1.378 . S
C1232 C1236 1.350 . S
C1233 C1236 1.463 . S
C1233 C1238 1.350 . S
C1233 N1241 1.427 . S
C1234 H1225 0.930 . S
C1234 C1232 1.378 . S
C1234 C1235 1.367 . S
C1235 C1234 1.367 . S
C1235 C1237 1.433 . S
C1236 C1232 1.350 . S
C1236 C1233 1.463 . S
C1236 N1240 1.427 . S
C1237 H1227 0.929 . S
C1237 C1235 1.433 . S
C1237 N1240 1.384 . S
C1238 H1229 0.929 . S
C1238 C1230 1.378 . S
C1238 C1233 1.350 . S
C1239 H1226 0.929 . S
C1239 C1231 1.433 . S
C1239 N1241 1.384 . S
N1240 C1236 1.427 . S
N1240 C1237 1.384 . S
N1241 C1233 1.427 . S
N1241 C1239 1.384 . S
H1242 C1248 0.930 . S
H1243 C1252 0.930 . S
H1244 C1257 0.929 . S
H1245 C1255 0.929 . S
H1246 C1250 0.929 . S
H1247 C1256 0.929 . S
C1248 H1242 0.930 . S
C1248 C1249 1.367 . S
C1248 C1256 1.378 . S
C1249 C1248 1.367 . S
C1249 C1257 1.433 . S
C1250 H1246 0.929 . S
C1250 C1252 1.378 . S
C1250 C1254 1.350 . S
C1251 C1254 1.463 . S
C1251 C1256 1.350 . S
C1251 N1259 1.427 . S
C1252 H1243 0.930 . S
C1252 C1250 1.378 . S
C1252 C1253 1.367 . S
C1253 C1252 1.367 . S
C1253 C1255 1.433 . S
C1254 C1250 1.350 . S
C1254 C1251 1.463 . S
C1254 N1258 1.427 . S
C1255 H1245 0.929 . S
C1255 C1253 1.433 . S
C1255 N1258 1.384 . S
C1256 H1247 0.929 . S
C1256 C1248 1.378 . S
C1256 C1251 1.350 . S
C1257 H1244 0.929 . S
C1257 C1249 1.433 . S
C1257 N1259 1.384 . S
N1258 C1254 1.427 . S
N1258 C1255 1.384 . S
N1259 C1251 1.427 . S
N1259 C1257 1.384 . S
H1260 C1266 0.930 . S
H1261 C1270 0.930 . S
H1262 C1275 0.929 . S
H1263 C1273 0.929 . S
H1264 C1268 0.929 . S
H1265 C1274 0.929 . S
C1266 H1260 0.930 . S
C1266 C1267 1.367 . S
C1266 C1274 1.378 . S
C1267 C1266 1.367 . S
C1267 C1275 1.433 . S
C1268 H1264 0.929 . S
C1268 C1270 1.378 . S
C1268 C1272 1.350 . S
C1269 C1272 1.463 . S
C1269 C1274 1.350 . S
C1269 N1277 1.427 . S
C1270 H1261 0.930 . S
C1270 C1268 1.378 . S
C1270 C1271 1.367 . S
C1271 C1270 1.367 . S
C1271 C1273 1.433 . S
C1272 C1268 1.350 . S
C1272 C1269 1.463 . S
C1272 N1276 1.427 . S
C1273 H1263 0.929 . S
C1273 C1271 1.433 . S
C1273 N1276 1.384 . S
C1274 H1265 0.929 . S
C1274 C1266 1.378 . S
C1274 C1269 1.350 . S
C1275 H1262 0.929 . S
C1275 C1267 1.433 . S
C1275 N1277 1.384 . S
N1276 C1272 1.427 . S
N1276 C1273 1.384 . S
N1277 C1269 1.427 . S
N1277 C1275 1.384 . S
H1278 C1284 0.930 . S
H1279 C1288 0.930 . S
H1280 C1293 0.929 . S
H1281 C1291 0.929 . S
H1282 C1286 0.929 . S
H1283 C1292 0.929 . S
C1284 H1278 0.930 . S
C1284 C1285 1.367 . S
C1284 C1292 1.378 . S
C1285 C1284 1.367 . S
C1285 C1293 1.433 . S
C1286 H1282 0.929 . S
C1286 C1288 1.378 . S
C1286 C1290 1.350 . S
C1287 C1290 1.463 . S
C1287 C1292 1.350 . S
C1287 N1295 1.427 . S
C1288 H1279 0.930 . S
C1288 C1286 1.378 . S
C1288 C1289 1.367 . S
C1289 C1288 1.367 . S
C1289 C1291 1.433 . S
C1290 C1286 1.350 . S
C1290 C1287 1.463 . S
C1290 N1294 1.427 . S
C1291 H1281 0.929 . S
C1291 C1289 1.433 . S
C1291 N1294 1.384 . S
C1292 H1283 0.929 . S
C1292 C1284 1.378 . S
C1292 C1287 1.350 . S
C1293 H1280 0.929 . S
C1293 C1285 1.433 . S
C1293 N1295 1.384 . S
N1294 C1290 1.427 . S
N1294 C1291 1.384 . S
N1295 C1287 1.427 . S
N1295 C1293 1.384 . S
H1296 C1302 0.930 . S
H1297 C1306 0.930 . S
H1298 C1311 0.929 . S
H1299 C1309 0.929 . S
H1300 C1304 0.929 . S
H1301 C1310 0.929 . S
C1302 H1296 0.930 . S
C1302 C1303 1.367 1_556 S
C1302 C1310 1.378 . S
C1303 C1302 1.367 1_554 S
C1303 C1311 1.433 . S
C1304 H1300 0.929 . S
C1304 C1306 1.378 . S
C1304 C1308 1.350 . S
C1305 C1308 1.463 . S
C1305 C1310 1.350 1_554 S
C1305 N1313 1.427 . S
C1306 H1297 0.930 . S
C1306 C1304 1.378 . S
C1306 C1307 1.367 . S
C1307 C1306 1.367 . S
C1307 C1309 1.433 1_554 S
C1308 C1304 1.350 . S
C1308 C1305 1.463 . S
C1308 N1312 1.427 1_554 S
C1309 H1299 0.929 . S
C1309 C1307 1.433 1_556 S
C1309 N1312 1.384 . S
C1310 H1301 0.929 . S
C1310 C1302 1.378 . S
C1310 C1305 1.350 1_556 S
C1311 H1298 0.929 . S
C1311 C1303 1.433 . S
C1311 N1313 1.384 . S
N1312 C1308 1.427 1_556 S
N1312 C1309 1.384 . S
N1313 C1305 1.427 . S
N1313 C1311 1.384 . S
H1314 C1320 0.930 . S
H1315 C1324 0.930 1_556 S
H1316 C1329 0.929 1_556 S
H1317 C1327 0.929 . S
H1318 C1322 0.929 1_556 S
H1319 C1328 0.929 . S
C1320 H1314 0.930 . S
C1320 C1321 1.367 . S
C1320 C1328 1.378 . S
C1321 C1320 1.367 . S
C1321 C1329 1.433 . S
C1322 H1318 0.929 1_554 S
C1322 C1324 1.378 . S
C1322 C1326 1.350 . S
C1323 C1326 1.463 . S
C1323 C1328 1.350 . S
C1323 N1331 1.427 . S
C1324 H1315 0.930 1_554 S
C1324 C1322 1.378 . S
C1324 C1325 1.367 . S
C1325 C1324 1.367 . S
C1325 C1327 1.433 . S
C1326 C1322 1.350 . S
C1326 C1323 1.463 . S
C1326 N1330 1.427 . S
C1327 H1317 0.929 . S
C1327 C1325 1.433 . S
C1327 N1330 1.384 . S
C1328 H1319 0.929 . S
C1328 C1320 1.378 . S
C1328 C1323 1.350 . S
C1329 H1316 0.929 1_554 S
C1329 C1321 1.433 . S
C1329 N1331 1.384 . S
N1330 C1326 1.427 . S
N1330 C1327 1.384 . S
N1331 C1323 1.427 . S
N1331 C1329 1.384 . S
H1332 C1338 0.930 . S
H1333 C1342 0.930 . S
H1334 C1347 0.929 . S
H1335 C1345 0.929 . S
H1336 C1340 0.929 . S
H1337 C1346 0.929 . S
C1338 H1332 0.930 . S
C1338 C1339 1.367 1_556 S
C1338 C1346 1.378 . S
C1339 C1338 1.367 1_554 S
C1339 C1347 1.433 . S
C1340 H1336 0.929 . S
C1340 C1342 1.378 . S
C1340 C1344 1.350 . S
C1341 C1344 1.463 . S
C1341 C1346 1.350 1_554 S
C1341 N1349 1.427 . S
C1342 H1333 0.930 . S
C1342 C1340 1.378 . S
C1342 C1343 1.367 . S
C1343 C1342 1.367 . S
C1343 C1345 1.433 1_554 S
C1344 C1340 1.350 . S
C1344 C1341 1.463 . S
C1344 N1348 1.427 1_554 S
C1345 H1335 0.929 . S
C1345 C1343 1.433 1_556 S
C1345 N1348 1.384 . S
C1346 H1337 0.929 . S
C1346 C1338 1.378 . S
C1346 C1341 1.350 1_556 S
C1347 H1334 0.929 . S
C1347 C1339 1.433 . S
C1347 N1349 1.384 . S
N1348 C1344 1.427 1_556 S
N1348 C1345 1.384 . S
N1349 C1341 1.427 . S
N1349 C1347 1.384 . S
H1350 C1356 0.930 . S
H1351 C1360 0.930 . S
H1352 C1365 0.929 . S
H1353 C1363 0.929 . S
H1354 C1358 0.929 . S
H1355 C1364 0.929 . S
C1356 H1350 0.930 . S
C1356 C1357 1.367 . S
C1356 C1364 1.378 . S
C1357 C1356 1.367 . S
C1357 C1365 1.433 1_554 S
C1358 H1354 0.929 . S
C1358 C1360 1.378 . S
C1358 C1362 1.350 1_556 S
C1359 C1362 1.463 . S
C1359 C1364 1.350 . S
C1359 N1367 1.427 1_554 S
C1360 H1351 0.930 . S
C1360 C1358 1.378 . S
C1360 C1361 1.367 1_556 S
C1361 C1360 1.367 1_554 S
C1361 C1363 1.433 . S
C1362 C1358 1.350 1_554 S
C1362 C1359 1.463 . S
C1362 N1366 1.427 . S
C1363 H1353 0.929 . S
C1363 C1361 1.433 . S
C1363 N1366 1.384 . S
C1364 H1355 0.929 . S
C1364 C1356 1.378 . S
C1364 C1359 1.350 . S
C1365 H1352 0.929 . S
C1365 C1357 1.433 1_556 S
C1365 N1367 1.384 . S
N1366 C1362 1.427 . S
N1366 C1363 1.384 . S
N1367 C1359 1.427 1_556 S
N1367 C1365 1.384 . S
H1368 C1374 0.930 . S
H1369 C1378 0.930 . S
H1370 C1383 0.929 . S
H1371 C1381 0.929 . S
H1372 C1376 0.929 1_655 S
H1373 C1382 0.929 . S
C1374 H1368 0.930 . S
C1374 C1375 1.367 . S
C1374 C1382 1.378 . S
C1375 C1374 1.367 . S
C1375 C1383 1.433 1_455 S
C1376 H1372 0.929 1_455 S
C1376 C1378 1.378 . S
C1376 C1380 1.350 . S
C1377 C1380 1.463 . S
C1377 C1382 1.350 . S
C1377 N1385 1.427 1_455 S
C1378 H1369 0.930 . S
C1378 C1376 1.378 . S
C1378 C1379 1.367 . S
C1379 C1378 1.367 . S
C1379 C1381 1.433 . S
C1380 C1376 1.350 . S
C1380 C1377 1.463 . S
C1380 N1384 1.427 . S
C1381 H1371 0.929 . S
C1381 C1379 1.433 . S
C1381 N1384 1.384 . S
C1382 H1373 0.929 . S
C1382 C1374 1.378 . S
C1382 C1377 1.350 . S
C1383 H1370 0.929 . S
C1383 C1375 1.433 1_655 S
C1383 N1385 1.384 . S
N1384 C1380 1.427 . S
N1384 C1381 1.384 . S
N1385 C1377 1.427 1_655 S
N1385 C1383 1.384 . S
H1386 C1392 0.930 . S
H1387 C1396 0.930 . S
H1388 C1401 0.929 . S
H1389 C1399 0.929 . S
H1390 C1394 0.929 . S
H1391 C1400 0.929 . S
C1392 H1386 0.930 . S
C1392 C1393 1.367 1_565 S
C1392 C1400 1.378 . S
C1393 C1392 1.367 1_545 S
C1393 C1401 1.433 . S
C1394 H1390 0.929 . S
C1394 C1396 1.378 . S
C1394 C1398 1.350 . S
C1395 C1398 1.463 . S
C1395 C1400 1.350 1_545 S
C1395 N1403 1.427 . S
C1396 H1387 0.930 . S
C1396 C1394 1.378 . S
C1396 C1397 1.367 . S
C1397 C1396 1.367 . S
C1397 C1399 1.433 1_545 S
C1398 C1394 1.350 . S
C1398 C1395 1.463 . S
C1398 N1402 1.427 1_545 S
C1399 H1389 0.929 . S
C1399 C1397 1.433 1_565 S
C1399 N1402 1.384 . S
C1400 H1391 0.929 . S
C1400 C1392 1.378 . S
C1400 C1395 1.350 1_565 S
C1401 H1388 0.929 . S
C1401 C1393 1.433 . S
C1401 N1403 1.384 . S
N1402 C1398 1.427 1_565 S
N1402 C1399 1.384 . S
N1403 C1395 1.427 . S
N1403 C1401 1.384 . S
H1404 C1410 0.930 . S
H1405 C1414 0.930 . S
H1406 C1419 0.929 . S
H1407 C1417 0.929 . S
H1408 C1412 0.929 . S
H1409 C1418 0.929 . S
C1410 H1404 0.930 . S
C1410 C1411 1.367 . S
C1410 C1418 1.378 . S
C1411 C1410 1.367 . S
C1411 C1419 1.433 . S
C1412 H1408 0.929 . S
C1412 C1414 1.378 . S
C1412 C1416 1.350 . S
C1413 C1416 1.463 . S
C1413 C1418 1.350 . S
C1413 N1421 1.427 . S
C1414 H1405 0.930 . S
C1414 C1412 1.378 . S
C1414 C1415 1.367 . S
C1415 C1414 1.367 . S
C1415 C1417 1.433 . S
C1416 C1412 1.350 . S
C1416 C1413 1.463 . S
C1416 N1420 1.427 . S
C1417 H1407 0.929 . S
C1417 C1415 1.433 . S
C1417 N1420 1.384 . S
C1418 H1409 0.929 . S
C1418 C1410 1.378 . S
C1418 C1413 1.350 . S
C1419 H1406 0.929 . S
C1419 C1411 1.433 . S
C1419 N1421 1.384 . S
N1420 C1416 1.427 . S
N1420 C1417 1.384 . S
N1421 C1413 1.427 . S
N1421 C1419 1.384 . S
H1422 C1428 0.930 . S
H1423 C1432 0.930 1_565 S
H1424 C1437 0.929 . S
H1425 C1435 0.929 . S
H1426 C1430 0.929 1_565 S
H1427 C1436 0.929 . S
C1428 H1422 0.930 . S
C1428 C1429 1.367 . S
C1428 C1436 1.378 . S
C1429 C1428 1.367 . S
C1429 C1437 1.433 . S
C1430 H1426 0.929 1_545 S
C1430 C1432 1.378 . S
C1430 C1434 1.350 . S
C1431 C1434 1.463 . S
C1431 C1436 1.350 . S
C1431 N1439 1.427 . S
C1432 H1423 0.930 1_545 S
C1432 C1430 1.378 . S
C1432 C1433 1.367 . S
C1433 C1432 1.367 . S
C1433 C1435 1.433 . S
C1434 C1430 1.350 . S
C1434 C1431 1.463 . S
C1434 N1438 1.427 . S
C1435 H1425 0.929 . S
C1435 C1433 1.433 . S
C1435 N1438 1.384 . S
C1436 H1427 0.929 . S
C1436 C1428 1.378 . S
C1436 C1431 1.350 . S
C1437 H1424 0.929 . S
C1437 C1429 1.433 . S
C1437 N1439 1.384 . S
N1438 C1434 1.427 . S
N1438 C1435 1.384 . S
N1439 C1431 1.427 . S
N1439 C1437 1.384 . S
H1440 C1446 0.930 . S
H1441 C1450 0.930 1_655 S
H1442 C1455 0.914 1_655 S
H1443 C1453 0.929 . S
H1444 C1448 0.929 1_655 S
H1445 C1454 0.929 . S
C1446 H1440 0.930 . S
C1446 C1447 1.367 . S
C1446 C1454 1.378 . S
C1447 C1446 1.367 . S
C1447 C1455 1.433 . S
C1448 H1444 0.929 1_455 S
C1448 C1450 1.378 . S
C1448 C1452 1.350 . S
C1449 C1452 1.463 . S
C1449 C1454 1.350 . S
C1449 N1457 1.427 . S
C1450 H1441 0.930 1_455 S
C1450 C1448 1.378 . S
C1450 C1451 1.367 . S
C1451 C1450 1.367 . S
C1451 C1453 1.433 . S
C1452 C1448 1.350 . S
C1452 C1449 1.463 . S
C1452 N1456 1.427 . S
C1453 H1443 0.929 . S
C1453 C1451 1.433 . S
C1453 N1456 1.384 . S
C1454 H1445 0.929 . S
C1454 C1446 1.378 . S
C1454 C1449 1.350 . S
C1455 H1442 0.914 1_455 S
C1455 C1447 1.433 . S
C1455 N1457 1.384 . S
N1456 C1452 1.427 . S
N1456 C1453 1.384 . S
N1457 C1449 1.427 . S
N1457 C1455 1.384 . S
H1458 C1464 0.930 . S
H1459 C1468 0.930 . S
H1460 C1473 0.929 . S
H1461 C1471 0.929 . S
H1462 C1466 0.929 . S
H1463 C1472 0.929 . S
C1464 H1458 0.930 . S
C1464 C1465 1.367 . S
C1464 C1472 1.378 . S
C1465 C1464 1.367 . S
C1465 C1473 1.433 . S
C1466 H1462 0.929 . S
C1466 C1468 1.378 . S
C1466 C1470 1.350 . S
C1467 C1470 1.463 . S
C1467 C1472 1.350 . S
C1467 N1475 1.427 . S
C1468 H1459 0.930 . S
C1468 C1466 1.378 . S
C1468 C1469 1.367 . S
C1469 C1468 1.367 . S
C1469 C1471 1.433 . S
C1470 C1466 1.350 . S
C1470 C1467 1.463 . S
C1470 N1474 1.427 . S
C1471 H1461 0.929 . S
C1471 C1469 1.433 . S
C1471 N1474 1.384 . S
C1472 H1463 0.929 . S
C1472 C1464 1.378 . S
C1472 C1467 1.350 . S
C1473 H1460 0.929 . S
C1473 C1465 1.433 . S
C1473 N1475 1.384 . S
N1474 C1470 1.427 . S
N1474 C1471 1.384 . S
N1475 C1467 1.427 . S
N1475 C1473 1.384 . S
H1476 C1482 0.930 . S
H1477 C1486 0.930 . S
H1478 C1491 0.929 . S
H1479 C1489 0.929 . S
H1480 C1484 0.929 . S
H1481 C1490 0.929 . S
C1482 H1476 0.930 . S
C1482 C1483 1.367 . S
C1482 C1490 1.378 . S
C1483 C1482 1.367 . S
C1483 C1491 1.433 . S
C1484 H1480 0.929 . S
C1484 C1486 1.378 . S
C1484 C1488 1.350 . S
C1485 C1488 1.463 . S
C1485 C1490 1.350 . S
C1485 N1493 1.427 . S
C1486 H1477 0.930 . S
C1486 C1484 1.378 . S
C1486 C1487 1.367 . S
C1487 C1486 1.367 . S
C1487 C1489 1.433 . S
C1488 C1484 1.350 . S
C1488 C1485 1.463 . S
C1488 N1492 1.427 . S
C1489 H1479 0.929 . S
C1489 C1487 1.433 . S
C1489 N1492 1.384 . S
C1490 H1481 0.929 . S
C1490 C1482 1.378 . S
C1490 C1485 1.350 . S
C1491 H1478 0.929 . S
C1491 C1483 1.433 . S
C1491 N1493 1.384 . S
N1492 C1488 1.427 . S
N1492 C1489 1.384 . S
N1493 C1485 1.427 . S
N1493 C1491 1.384 . S
H1494 C1500 0.930 . S
H1495 C1504 0.930 . S
H1496 C1509 0.929 1_565 S
H1497 C1507 0.929 . S
H1498 C1502 0.929 . S
H1499 C1508 0.929 . S
C1500 H1494 0.930 . S
C1500 C1501 1.367 . S
C1500 C1508 1.378 . S
C1501 C1500 1.367 . S
C1501 C1509 1.433 . S
C1502 H1498 0.929 . S
C1502 C1504 1.378 . S
C1502 C1506 1.350 . S
C1503 C1506 1.463 . S
C1503 C1508 1.350 . S
C1503 N1511 1.427 . S
C1504 H1495 0.930 . S
C1504 C1502 1.378 . S
C1504 C1505 1.367 . S
C1505 C1504 1.367 . S
C1505 C1507 1.433 . S
C1506 C1502 1.350 . S
C1506 C1503 1.463 . S
C1506 N1510 1.427 . S
C1507 H1497 0.929 . S
C1507 C1505 1.433 . S
C1507 N1510 1.384 . S
C1508 H1499 0.929 . S
C1508 C1500 1.378 . S
C1508 C1503 1.350 . S
C1509 H1496 0.929 1_545 S
C1509 C1501 1.433 . S
C1509 N1511 1.384 . S
N1510 C1506 1.427 . S
N1510 C1507 1.384 . S
N1511 C1503 1.427 . S
N1511 C1509 1.384 . S
H1512 C1518 0.930 . S
H1513 C1522 0.930 . S
H1514 C1527 0.929 . S
H1515 C1525 0.929 . S
H1516 C1520 0.929 . S
H1517 C1526 0.929 . S
C1518 H1512 0.930 . S
C1518 C1519 1.367 . S
C1518 C1526 1.378 . S
C1519 C1518 1.367 . S
C1519 C1527 1.433 . S
C1520 H1516 0.929 . S
C1520 C1522 1.378 . S
C1520 C1524 1.350 . S
C1521 C1524 1.463 . S
C1521 C1526 1.350 . S
C1521 N1529 1.427 . S
C1522 H1513 0.930 . S
C1522 C1520 1.378 . S
C1522 C1523 1.367 . S
C1523 C1522 1.367 . S
C1523 C1525 1.433 . S
C1524 C1520 1.350 . S
C1524 C1521 1.463 . S
C1524 N1528 1.427 . S
C1525 H1515 0.929 . S
C1525 C1523 1.433 . S
C1525 N1528 1.384 . S
C1526 H1517 0.929 . S
C1526 C1518 1.378 . S
C1526 C1521 1.350 . S
C1527 H1514 0.929 . S
C1527 C1519 1.433 . S
C1527 N1529 1.384 . S
N1528 C1524 1.427 . S
N1528 C1525 1.384 . S
N1529 C1521 1.427 . S
N1529 C1527 1.384 . S
H1530 C1536 0.930 . S
H1531 C1540 0.930 . S
H1532 C1545 0.929 . S
H1533 C1543 0.929 . S
H1534 C1538 0.929 . S
H1535 C1544 0.929 . S
C1536 H1530 0.930 . S
C1536 C1537 1.367 . S
C1536 C1544 1.378 . S
C1537 C1536 1.367 . S
C1537 C1545 1.433 . S
C1538 H1534 0.929 . S
C1538 C1540 1.378 . S
C1538 C1542 1.350 . S
C1539 C1542 1.463 . S
C1539 C1544 1.350 . S
C1539 N1547 1.427 . S
C1540 H1531 0.930 . S
C1540 C1538 1.378 . S
C1540 C1541 1.367 . S
C1541 C1540 1.367 . S
C1541 C1543 1.433 . S
C1542 C1538 1.350 . S
C1542 C1539 1.463 . S
C1542 N1546 1.427 . S
C1543 H1533 0.929 . S
C1543 C1541 1.433 . S
C1543 N1546 1.384 . S
C1544 H1535 0.929 . S
C1544 C1536 1.378 . S
C1544 C1539 1.350 . S
C1545 H1532 0.929 . S
C1545 C1537 1.433 . S
C1545 N1547 1.384 . S
N1546 C1542 1.427 . S
N1546 C1543 1.384 . S
N1547 C1539 1.427 . S
N1547 C1545 1.384 . S
H1548 C1554 0.930 1_655 S
H1549 C1558 0.930 . S
H1550 C1563 0.929 . S
H1551 C1561 0.929 1_655 S
H1552 C1556 0.929 . S
H1553 C1562 0.929 1_655 S
C1554 H1548 0.930 1_455 S
C1554 C1555 1.367 . S
C1554 C1562 1.378 . S
C1555 C1554 1.367 . S
C1555 C1563 1.433 . S
C1556 H1552 0.929 . S
C1556 C1558 1.378 . S
C1556 C1560 1.350 . S
C1557 C1560 1.463 . S
C1557 C1562 1.350 . S
C1557 N1565 1.427 . S
C1558 H1549 0.930 . S
C1558 C1556 1.378 . S
C1558 C1559 1.367 . S
C1559 C1558 1.367 . S
C1559 C1561 1.433 . S
C1560 C1556 1.350 . S
C1560 C1557 1.463 . S
C1560 N1564 1.427 . S
C1561 H1551 0.929 1_455 S
C1561 C1559 1.433 . S
C1561 N1564 1.384 . S
C1562 H1553 0.929 1_455 S
C1562 C1554 1.378 . S
C1562 C1557 1.350 . S
C1563 H1550 0.929 . S
C1563 C1555 1.433 . S
C1563 N1565 1.384 . S
N1564 C1560 1.427 . S
N1564 C1561 1.384 . S
N1565 C1557 1.427 . S
N1565 C1563 1.384 . S
H1566 C1572 0.930 . S
H1567 C1576 0.932 1_565 S
H1568 C1581 0.929 . S
H1569 C1579 0.929 . S
H1570 C1574 0.929 . S
H1571 C1580 0.929 . S
C1572 H1566 0.930 . S
C1572 C1573 1.367 . S
C1572 C1580 1.378 . S
C1573 C1572 1.367 . S
C1573 C1581 1.433 1_545 S
C1574 H1570 0.929 . S
C1574 C1576 1.378 1_565 S
C1574 C1578 1.350 1_565 S
C1575 C1578 1.463 . S
C1575 C1580 1.350 . S
C1575 N1583 1.427 1_545 S
C1576 H1567 0.932 1_545 S
C1576 C1574 1.378 1_545 S
C1576 C1577 1.365 . S
C1577 C1576 1.365 . S
C1577 C1579 1.433 . S
C1578 C1574 1.350 1_545 S
C1578 C1575 1.463 . S
C1578 N1582 1.427 . S
C1579 H1569 0.929 . S
C1579 C1577 1.433 . S
C1579 N1582 1.384 . S
C1580 H1571 0.929 . S
C1580 C1572 1.378 . S
C1580 C1575 1.350 . S
C1581 H1568 0.929 . S
C1581 C1573 1.433 1_565 S
C1581 N1583 1.384 . S
N1582 C1578 1.427 . S
N1582 C1579 1.384 . S
N1583 C1575 1.427 1_565 S
N1583 C1581 1.384 . S
H1584 C1590 0.930 . S
H1585 C1594 0.930 . S
H1586 C1599 0.929 . S
H1587 C1597 0.929 . S
H1588 C1592 0.929 . S
H1589 C1598 0.929 . S
C1590 H1584 0.930 . S
C1590 C1591 1.367 . S
C1590 C1598 1.378 . S
C1591 C1590 1.367 . S
C1591 C1599 1.433 1_455 S
C1592 H1588 0.929 . S
C1592 C1594 1.378 . S
C1592 C1596 1.350 1_655 S
C1593 C1596 1.463 . S
C1593 C1598 1.350 . S
C1593 N1601 1.427 1_455 S
C1594 H1585 0.930 . S
C1594 C1592 1.378 . S
C1594 C1595 1.367 1_655 S
C1595 C1594 1.367 1_455 S
C1595 C1597 1.433 . S
C1596 C1592 1.350 1_455 S
C1596 C1593 1.463 . S
C1596 N1600 1.427 . S
C1597 H1587 0.929 . S
C1597 C1595 1.433 . S
C1597 N1600 1.384 . S
C1598 H1589 0.929 . S
C1598 C1590 1.378 . S
C1598 C1593 1.350 . S
C1599 H1586 0.929 . S
C1599 C1591 1.433 1_655 S
C1599 N1601 1.384 . S
N1600 C1596 1.427 . S
N1600 C1597 1.384 . S
N1601 C1593 1.427 1_655 S
N1601 C1599 1.384 . S
H1602 C1608 0.930 . S
H1603 C1612 0.930 . S
H1604 C1617 0.929 1_565 S
H1605 C1615 0.929 . S
H1606 C1610 0.929 . S
H1607 C1616 0.929 . S
C1608 H1602 0.930 . S
C1608 C1609 1.367 . S
C1608 C1616 1.378 . S
C1609 C1608 1.367 . S
C1609 C1617 1.433 . S
C1610 H1606 0.929 . S
C1610 C1612 1.378 . S
C1610 C1614 1.350 . S
C1611 C1614 1.463 . S
C1611 C1616 1.350 . S
C1611 N1619 1.427 . S
C1612 H1603 0.930 . S
C1612 C1610 1.378 . S
C1612 C1613 1.367 . S
C1613 C1612 1.367 . S
C1613 C1615 1.433 . S
C1614 C1610 1.350 . S
C1614 C1611 1.463 . S
C1614 N1618 1.427 . S
C1615 H1605 0.929 . S
C1615 C1613 1.433 . S
C1615 N1618 1.384 . S
C1616 H1607 0.929 . S
C1616 C1608 1.378 . S
C1616 C1611 1.350 . S
C1617 H1604 0.929 1_545 S
C1617 C1609 1.433 . S
C1617 N1619 1.384 . S
N1618 C1614 1.427 . S
N1618 C1615 1.384 . S
N1619 C1611 1.427 . S
N1619 C1617 1.384 . S
H1620 C1626 0.934 . S
H1621 C1630 0.930 . S
H1622 C1635 0.929 . S
H1623 C1633 0.929 . S
H1624 C1628 0.929 . S
H1625 C1634 0.929 . S
C1626 H1620 0.934 . S
C1626 C1627 1.363 1_655 S
C1626 C1634 1.378 . S
C1627 C1626 1.363 1_455 S
C1627 C1635 1.433 . S
C1628 H1624 0.929 . S
C1628 C1630 1.378 . S
C1628 C1632 1.350 . S
C1629 C1632 1.463 . S
C1629 C1634 1.350 1_455 S
C1629 N1637 1.427 . S
C1630 H1621 0.930 . S
C1630 C1628 1.378 . S
C1630 C1631 1.367 . S
C1631 C1630 1.367 . S
C1631 C1633 1.433 1_455 S
C1632 C1628 1.350 . S
C1632 C1629 1.463 . S
C1632 N1636 1.427 1_455 S
C1633 H1623 0.929 . S
C1633 C1631 1.433 1_655 S
C1633 N1636 1.384 . S
C1634 H1625 0.929 . S
C1634 C1626 1.378 . S
C1634 C1629 1.350 1_655 S
C1635 H1622 0.929 . S
C1635 C1627 1.433 . S
C1635 N1637 1.384 . S
N1636 C1632 1.427 1_655 S
N1636 C1633 1.384 . S
N1637 C1629 1.427 . S
N1637 C1635 1.384 . S
H1638 C1644 0.930 . S
H1639 C1648 0.930 1_565 S
H1640 C1653 0.929 1_565 S
H1641 C1651 0.929 . S
H1642 C1646 0.929 1_565 S
H1643 C1652 0.929 . S
C1644 H1638 0.930 . S
C1644 C1645 1.367 . S
C1644 C1652 1.378 . S
C1645 C1644 1.367 . S
C1645 C1653 1.433 . S
C1646 H1642 0.929 1_545 S
C1646 C1648 1.378 . S
C1646 C1650 1.350 . S
C1647 C1650 1.463 . S
C1647 C1652 1.350 . S
C1647 N1655 1.427 . S
C1648 H1639 0.930 1_545 S
C1648 C1646 1.378 . S
C1648 C1649 1.367 . S
C1649 C1648 1.367 . S
C1649 C1651 1.433 . S
C1650 C1646 1.350 . S
C1650 C1647 1.463 . S
C1650 N1654 1.427 . S
C1651 H1641 0.929 . S
C1651 C1649 1.433 . S
C1651 N1654 1.384 . S
C1652 H1643 0.929 . S
C1652 C1644 1.378 . S
C1652 C1647 1.350 . S
C1653 H1640 0.929 1_545 S
C1653 C1645 1.433 . S
C1653 N1655 1.384 . S
N1654 C1650 1.427 . S
N1654 C1651 1.384 . S
N1655 C1647 1.427 . S
N1655 C1653 1.384 . S
H1656 C1662 0.930 . S
H1657 C1666 0.930 . S
H1658 C1671 0.929 . S
H1659 C1669 0.929 . S
H1660 C1664 0.929 . S
H1661 C1670 0.929 . S
C1662 H1656 0.930 . S
C1662 C1663 1.367 . S
C1662 C1670 1.378 . S
C1663 C1662 1.367 . S
C1663 C1671 1.433 1_545 S
C1664 H1660 0.929 . S
C1664 C1666 1.378 . S
C1664 C1668 1.350 1_565 S
C1665 C1668 1.463 . S
C1665 C1670 1.350 . S
C1665 N1673 1.427 1_545 S
C1666 H1657 0.930 . S
C1666 C1664 1.378 . S
C1666 C1667 1.367 1_565 S
C1667 C1666 1.367 1_545 S
C1667 C1669 1.433 . S
C1668 C1664 1.350 1_545 S
C1668 C1665 1.463 . S
C1668 N1672 1.427 . S
C1669 H1659 0.929 . S
C1669 C1667 1.433 . S
C1669 N1672 1.384 . S
C1670 H1661 0.929 . S
C1670 C1662 1.378 . S
C1670 C1665 1.350 . S
C1671 H1658 0.929 . S
C1671 C1663 1.433 1_565 S
C1671 N1673 1.384 . S
N1672 C1668 1.427 . S
N1672 C1669 1.384 . S
N1673 C1665 1.427 1_565 S
N1673 C1671 1.384 . S
H1674 C1680 0.930 . S
H1675 C1684 0.930 1_655 S
H1676 C1689 0.929 . S
H1677 C1687 0.929 . S
H1678 C1682 0.931 1_655 S
H1679 C1688 0.929 . S
C1680 H1674 0.930 . S
C1680 C1681 1.367 . S
C1680 C1688 1.378 . S
C1681 C1680 1.367 . S
C1681 C1689 1.433 . S
C1682 H1678 0.931 1_455 S
C1682 C1684 1.378 . S
C1682 C1686 1.350 . S
C1683 C1686 1.463 . S
C1683 C1688 1.350 . S
C1683 N1691 1.427 . S
C1684 H1675 0.930 1_455 S
C1684 C1682 1.378 . S
C1684 C1685 1.367 . S
C1685 C1684 1.367 . S
C1685 C1687 1.433 . S
C1686 C1682 1.350 . S
C1686 C1683 1.463 . S
C1686 N1690 1.427 . S
C1687 H1677 0.929 . S
C1687 C1685 1.433 . S
C1687 N1690 1.384 . S
C1688 H1679 0.929 . S
C1688 C1680 1.378 . S
C1688 C1683 1.350 . S
C1689 H1676 0.929 . S
C1689 C1681 1.433 . S
C1689 N1691 1.384 . S
N1690 C1686 1.427 . S
N1690 C1687 1.384 . S
N1691 C1683 1.427 . S
N1691 C1689 1.384 . S
H1692 C1698 0.930 . S
H1693 C1702 0.930 . S
H1694 C1707 0.929 . S
H1695 C1705 0.929 1_565 S
H1696 C1700 0.929 . S
H1697 C1706 0.929 . S
C1698 H1692 0.930 . S
C1698 C1699 1.367 . S
C1698 C1706 1.378 . S
C1699 C1698 1.367 . S
C1699 C1707 1.433 . S
C1700 H1696 0.929 . S
C1700 C1702 1.378 . S
C1700 C1704 1.350 . S
C1701 C1704 1.463 . S
C1701 C1706 1.350 . S
C1701 N1709 1.427 . S
C1702 H1693 0.930 . S
C1702 C1700 1.378 . S
C1702 C1703 1.367 . S
C1703 C1702 1.367 . S
C1703 C1705 1.433 . S
C1704 C1700 1.350 . S
C1704 C1701 1.463 . S
C1704 N1708 1.427 . S
C1705 H1695 0.929 1_545 S
C1705 C1703 1.433 . S
C1705 N1708 1.384 . S
C1706 H1697 0.929 . S
C1706 C1698 1.378 . S
C1706 C1701 1.350 . S
C1707 H1694 0.929 . S
C1707 C1699 1.433 . S
C1707 N1709 1.384 . S
N1708 C1704 1.427 . S
N1708 C1705 1.384 . S
N1709 C1701 1.427 . S
N1709 C1707 1.384 . S
H1710 C1716 0.942 . S
H1711 C1720 0.930 . S
H1712 C1725 0.929 . S
H1713 C1723 0.929 . S
H1714 C1718 0.929 . S
H1715 C1724 0.929 . S
C1716 H1710 0.942 . S
C1716 C1717 1.355 1_655 S
C1716 C1724 1.379 . S
C1717 C1716 1.355 1_455 S
C1717 C1725 1.433 . S
C1718 H1714 0.929 . S
C1718 C1720 1.378 . S
C1718 C1722 1.350 . S
C1719 C1722 1.463 . S
C1719 C1724 1.350 1_455 S
C1719 N1727 1.427 . S
C1720 H1711 0.930 . S
C1720 C1718 1.378 . S
C1720 C1721 1.367 . S
C1721 C1720 1.367 . S
C1721 C1723 1.433 1_455 S
C1722 C1718 1.350 . S
C1722 C1719 1.463 . S
C1722 N1726 1.427 1_455 S
C1723 H1713 0.929 . S
C1723 C1721 1.433 1_655 S
C1723 N1726 1.384 . S
C1724 H1715 0.929 . S
C1724 C1716 1.379 . S
C1724 C1719 1.350 1_655 S
C1725 H1712 0.929 . S
C1725 C1717 1.433 . S
C1725 N1727 1.384 . S
N1726 C1722 1.427 1_655 S
N1726 C1723 1.384 . S
N1727 C1719 1.427 . S
N1727 C1725 1.384 . S
H1728 C1734 0.930 . S
H1729 C1738 0.930 . S
H1730 C1743 0.929 . S
H1731 C1741 0.929 . S
H1732 C1736 0.929 . S
H1733 C1742 0.929 . S
C1734 H1728 0.930 . S
C1734 C1735 1.367 . S
C1734 C1742 1.378 . S
C1735 C1734 1.367 . S
C1735 C1743 1.433 1_545 S
C1736 H1732 0.929 . S
C1736 C1738 1.378 . S
C1736 C1740 1.350 1_565 S
C1737 C1740 1.463 . S
C1737 C1742 1.350 . S
C1737 N1745 1.427 1_545 S
C1738 H1729 0.930 . S
C1738 C1736 1.378 . S
C1738 C1739 1.367 1_565 S
C1739 C1738 1.367 1_545 S
C1739 C1741 1.433 . S
C1740 C1736 1.350 1_545 S
C1740 C1737 1.463 . S
C1740 N1744 1.427 . S
C1741 H1731 0.929 . S
C1741 C1739 1.433 . S
C1741 N1744 1.384 . S
C1742 H1733 0.929 . S
C1742 C1734 1.378 . S
C1742 C1737 1.350 . S
C1743 H1730 0.929 . S
C1743 C1735 1.433 1_565 S
C1743 N1745 1.384 . S
N1744 C1740 1.427 . S
N1744 C1741 1.384 . S
N1745 C1737 1.427 1_565 S
N1745 C1743 1.384 . S
H1746 C1752 0.930 . S
H1747 C1756 0.930 . S
H1748 C1761 0.929 . S
H1749 C1759 0.929 . S
H1750 C1754 0.929 . S
H1751 C1760 0.929 . S
C1752 H1746 0.930 . S
C1752 C1753 1.367 . S
C1752 C1760 1.378 . S
C1753 C1752 1.367 . S
C1753 C1761 1.433 . S
C1754 H1750 0.929 . S
C1754 C1756 1.378 . S
C1754 C1758 1.350 . S
C1755 C1758 1.463 . S
C1755 C1760 1.350 . S
C1755 N1763 1.427 . S
C1756 H1747 0.930 . S
C1756 C1754 1.378 . S
C1756 C1757 1.367 . S
C1757 C1756 1.367 . S
C1757 C1759 1.433 . S
C1758 C1754 1.350 . S
C1758 C1755 1.463 . S
C1758 N1762 1.427 . S
C1759 H1749 0.929 . S
C1759 C1757 1.433 . S
C1759 N1762 1.384 . S
C1760 H1751 0.929 . S
C1760 C1752 1.378 . S
C1760 C1755 1.350 . S
C1761 H1748 0.929 . S
C1761 C1753 1.433 . S
C1761 N1763 1.384 . S
N1762 C1758 1.427 . S
N1762 C1759 1.384 . S
N1763 C1755 1.427 . S
N1763 C1761 1.384 . S
H1764 C1770 0.930 . S
H1765 C1774 0.928 1_565 S
H1766 C1779 0.929 . S
H1767 C1777 0.929 . S
H1768 C1772 0.929 . S
H1769 C1778 0.929 . S
C1770 H1764 0.930 . S
C1770 C1771 1.367 . S
C1770 C1778 1.378 . S
C1771 C1770 1.367 . S
C1771 C1779 1.433 . S
C1772 H1768 0.929 . S
C1772 C1774 1.378 . S
C1772 C1776 1.350 . S
C1773 C1776 1.463 . S
C1773 C1778 1.350 . S
C1773 N1781 1.427 . S
C1774 H1765 0.928 1_545 S
C1774 C1772 1.378 . S
C1774 C1775 1.367 . S
C1775 C1774 1.367 . S
C1775 C1777 1.433 . S
C1776 C1772 1.350 . S
C1776 C1773 1.463 . S
C1776 N1780 1.427 . S
C1777 H1767 0.929 . S
C1777 C1775 1.433 . S
C1777 N1780 1.384 . S
C1778 H1769 0.929 . S
C1778 C1770 1.378 . S
C1778 C1773 1.350 . S
C1779 H1766 0.929 . S
C1779 C1771 1.433 . S
C1779 N1781 1.384 . S
N1780 C1776 1.427 . S
N1780 C1777 1.384 . S
N1781 C1773 1.427 . S
N1781 C1779 1.384 . S
H1782 C1788 0.930 . S
H1783 C1792 0.930 . S
H1784 C1797 0.929 . S
H1785 C1795 0.929 1_655 S
H1786 C1790 0.929 . S
H1787 C1796 0.929 . S
C1788 H1782 0.930 . S
C1788 C1789 1.367 1_655 S
C1788 C1796 1.378 . S
C1789 C1788 1.367 1_455 S
C1789 C1797 1.433 . S
C1790 H1786 0.929 . S
C1790 C1792 1.378 . S
C1790 C1794 1.350 . S
C1791 C1794 1.463 . S
C1791 C1796 1.350 1_455 S
C1791 N1799 1.427 . S
C1792 H1783 0.930 . S
C1792 C1790 1.378 . S
C1792 C1793 1.367 . S
C1793 C1792 1.367 . S
C1793 C1795 1.433 . S
C1794 C1790 1.350 . S
C1794 C1791 1.463 . S
C1794 N1798 1.429 1_455 S
C1795 H1785 0.929 1_455 S
C1795 C1793 1.433 . S
C1795 N1798 1.384 1_455 S
C1796 H1787 0.929 . S
C1796 C1788 1.378 . S
C1796 C1791 1.350 1_655 S
C1797 H1784 0.929 . S
C1797 C1789 1.433 . S
C1797 N1799 1.384 . S
N1798 C1794 1.429 1_655 S
N1798 C1795 1.384 1_655 S
N1799 C1791 1.427 . S
N1799 C1797 1.384 . S
H1800 C1806 0.930 . S
H1801 C1810 0.930 . S
H1802 C1815 0.929 . S
H1803 C1813 0.929 . S
H1804 C1808 0.929 . S
H1805 C1814 0.929 . S
C1806 H1800 0.930 . S
C1806 C1807 1.367 . S
C1806 C1814 1.378 . S
C1807 C1806 1.367 . S
C1807 C1815 1.433 . S
C1808 H1804 0.929 . S
C1808 C1810 1.378 . S
C1808 C1812 1.350 . S
C1809 C1812 1.463 . S
C1809 C1814 1.350 . S
C1809 N1817 1.427 . S
C1810 H1801 0.930 . S
C1810 C1808 1.378 . S
C1810 C1811 1.367 . S
C1811 C1810 1.367 . S
C1811 C1813 1.433 . S
C1812 C1808 1.350 . S
C1812 C1809 1.463 . S
C1812 N1816 1.427 . S
C1813 H1803 0.929 . S
C1813 C1811 1.433 . S
C1813 N1816 1.384 . S
C1814 H1805 0.929 . S
C1814 C1806 1.378 . S
C1814 C1809 1.350 . S
C1815 H1802 0.929 . S
C1815 C1807 1.433 . S
C1815 N1817 1.384 . S
N1816 C1812 1.427 . S
N1816 C1813 1.384 . S
N1817 C1809 1.427 . S
N1817 C1815 1.384 . S
H1818 C1824 0.924 1_556 S
H1819 C1828 0.930 . S
H1820 C1833 0.929 . S
H1821 C1831 0.932 1_556 S
H1822 C1826 0.929 . S
H1823 C1832 0.922 1_556 S
C1824 H1818 0.924 1_554 S
C1824 C1825 1.374 . S
C1824 C1832 1.378 . S
C1825 C1824 1.374 . S
C1825 C1833 1.433 . S
C1826 H1822 0.929 . S
C1826 C1828 1.378 . S
C1826 C1830 1.350 . S
C1827 C1830 1.463 . S
C1827 C1832 1.356 . S
C1827 N1835 1.427 . S
C1828 H1819 0.930 . S
C1828 C1826 1.378 . S
C1828 C1829 1.367 . S
C1829 C1828 1.367 . S
C1829 C1831 1.431 . S
C1830 C1826 1.350 . S
C1830 C1827 1.463 . S
C1830 N1834 1.431 . S
C1831 H1821 0.932 1_554 S
C1831 C1829 1.431 . S
C1831 N1834 1.384 . S
C1832 H1823 0.922 1_554 S
C1832 C1824 1.378 . S
C1832 C1827 1.356 . S
C1833 H1820 0.929 . S
C1833 C1825 1.433 . S
C1833 N1835 1.384 . S
N1834 C1830 1.431 . S
N1834 C1831 1.384 . S
N1835 C1827 1.427 . S
N1835 C1833 1.384 . S
H1836 C1842 0.928 1_556 S
H1837 C1846 0.930 . S
H1838 C1851 0.929 . S
H1839 C1849 0.929 . S
H1840 C1844 0.929 . S
H1841 C1850 0.929 . S
C1842 H1836 0.928 1_554 S
C1842 C1843 1.370 . S
C1842 C1850 1.378 1_554 S
C1843 C1842 1.370 . S
C1843 C1851 1.433 . S
C1844 H1840 0.929 . S
C1844 C1846 1.378 . S
C1844 C1848 1.350 . S
C1845 C1848 1.463 . S
C1845 C1850 1.350 1_554 S
C1845 N1853 1.427 . S
C1846 H1837 0.930 . S
C1846 C1844 1.378 . S
C1846 C1847 1.367 . S
C1847 C1846 1.367 . S
C1847 C1849 1.433 1_554 S
C1848 C1844 1.350 . S
C1848 C1845 1.463 . S
C1848 N1852 1.427 1_554 S
C1849 H1839 0.929 . S
C1849 C1847 1.433 1_556 S
C1849 N1852 1.384 . S
C1850 H1841 0.929 . S
C1850 C1842 1.378 1_556 S
C1850 C1845 1.350 1_556 S
C1851 H1838 0.929 . S
C1851 C1843 1.433 . S
C1851 N1853 1.384 . S
N1852 C1848 1.427 1_556 S
N1852 C1849 1.384 . S
N1853 C1845 1.427 . S
N1853 C1851 1.384 . S
H1854 C1860 0.930 . S
H1855 C1864 0.930 . S
H1856 C1869 0.929 . S
H1857 C1867 0.929 . S
H1858 C1862 0.929 . S
H1859 C1868 0.929 . S
C1860 H1854 0.930 . S
C1860 C1861 1.367 1_556 S
C1860 C1868 1.378 . S
C1861 C1860 1.367 1_554 S
C1861 C1869 1.433 . S
C1862 H1858 0.929 . S
C1862 C1864 1.378 . S
C1862 C1866 1.350 . S
C1863 C1866 1.463 . S
C1863 C1868 1.350 1_554 S
C1863 N1871 1.427 . S
C1864 H1855 0.930 . S
C1864 C1862 1.378 . S
C1864 C1865 1.367 . S
C1865 C1864 1.367 . S
C1865 C1867 1.433 1_554 S
C1866 C1862 1.350 . S
C1866 C1863 1.463 . S
C1866 N1870 1.427 1_554 S
C1867 H1857 0.929 . S
C1867 C1865 1.433 1_556 S
C1867 N1870 1.384 . S
C1868 H1859 0.929 . S
C1868 C1860 1.378 . S
C1868 C1863 1.350 1_556 S
C1869 H1856 0.929 . S
C1869 C1861 1.433 . S
C1869 N1871 1.384 . S
N1870 C1866 1.427 1_556 S
N1870 C1867 1.384 . S
N1871 C1863 1.427 . S
N1871 C1869 1.384 . S
H1872 C1878 0.930 . S
H1873 C1882 0.930 . S
H1874 C1887 0.929 . S
H1875 C1885 0.929 . S
H1876 C1880 0.929 . S
H1877 C1886 0.929 . S
C1878 H1872 0.930 . S
C1878 C1879 1.367 . S
C1878 C1886 1.378 . S
C1879 C1878 1.367 . S
C1879 C1887 1.433 1_554 S
C1880 H1876 0.929 . S
C1880 C1882 1.378 . S
C1880 C1884 1.350 1_556 S
C1881 C1884 1.463 . S
C1881 C1886 1.350 . S
C1881 N1889 1.427 1_554 S
C1882 H1873 0.930 . S
C1882 C1880 1.378 . S
C1882 C1883 1.367 1_556 S
C1883 C1882 1.367 1_554 S
C1883 C1885 1.433 . S
C1884 C1880 1.350 1_554 S
C1884 C1881 1.463 . S
C1884 N1888 1.427 . S
C1885 H1875 0.929 . S
C1885 C1883 1.433 . S
C1885 N1888 1.384 . S
C1886 H1877 0.929 . S
C1886 C1878 1.378 . S
C1886 C1881 1.350 . S
C1887 H1874 0.929 . S
C1887 C1879 1.433 1_556 S
C1887 N1889 1.384 . S
N1888 C1884 1.427 . S
N1888 C1885 1.384 . S
N1889 C1881 1.427 1_556 S
N1889 C1887 1.384 . S
H1890 C1896 0.930 . S
H1891 C1900 0.930 . S
H1892 C1905 0.929 . S
H1893 C1903 0.929 . S
H1894 C1898 0.929 . S
H1895 C1904 0.929 . S
C1896 H1890 0.930 . S
C1896 C1897 1.367 1_556 S
C1896 C1904 1.378 . S
C1897 C1896 1.367 1_554 S
C1897 C1905 1.433 . S
C1898 H1894 0.929 . S
C1898 C1900 1.378 . S
C1898 C1902 1.350 . S
C1899 C1902 1.463 . S
C1899 C1904 1.350 1_554 S
C1899 N1907 1.427 . S
C1900 H1891 0.930 . S
C1900 C1898 1.378 . S
C1900 C1901 1.367 . S
C1901 C1900 1.367 . S
C1901 C1903 1.433 1_554 S
C1902 C1898 1.350 . S
C1902 C1899 1.463 . S
C1902 N1906 1.427 1_554 S
C1903 H1893 0.929 . S
C1903 C1901 1.433 1_556 S
C1903 N1906 1.384 . S
C1904 H1895 0.929 . S
C1904 C1896 1.378 . S
C1904 C1899 1.350 1_556 S
C1905 H1892 0.929 . S
C1905 C1897 1.433 . S
C1905 N1907 1.384 . S
N1906 C1902 1.427 1_556 S
N1906 C1903 1.384 . S
N1907 C1899 1.427 . S
N1907 C1905 1.384 . S
H1908 C1914 0.930 . S
H1909 C1918 0.930 . S
H1910 C1923 0.929 . S
H1911 C1921 0.929 . S
H1912 C1916 0.929 . S
H1913 C1922 0.929 . S
C1914 H1908 0.930 . S
C1914 C1915 1.367 1_556 S
C1914 C1922 1.378 . S
C1915 C1914 1.367 1_554 S
C1915 C1923 1.433 . S
C1916 H1912 0.929 . S
C1916 C1918 1.378 . S
C1916 C1920 1.350 . S
C1917 C1920 1.463 . S
C1917 C1922 1.350 1_554 S
C1917 N1925 1.427 . S
C1918 H1909 0.930 . S
C1918 C1916 1.378 . S
C1918 C1919 1.367 . S
C1919 C1918 1.367 . S
C1919 C1921 1.433 1_554 S
C1920 C1916 1.350 . S
C1920 C1917 1.463 . S
C1920 N1924 1.427 1_554 S
C1921 H1911 0.929 . S
C1921 C1919 1.433 1_556 S
C1921 N1924 1.384 . S
C1922 H1913 0.929 . S
C1922 C1914 1.378 . S
C1922 C1917 1.350 1_556 S
C1923 H1910 0.929 . S
C1923 C1915 1.433 . S
C1923 N1925 1.384 . S
N1924 C1920 1.427 1_556 S
N1924 C1921 1.384 . S
N1925 C1917 1.427 . S
N1925 C1923 1.384 . S
H1926 C1932 0.930 . S
H1927 C1936 0.930 . S
H1928 C1941 0.929 . S
H1929 C1939 0.929 . S
H1930 C1934 0.929 . S
H1931 C1940 0.929 . S
C1932 H1926 0.930 . S
C1932 C1933 1.367 . S
C1932 C1940 1.378 . S
C1933 C1932 1.367 . S
C1933 C1941 1.433 1_554 S
C1934 H1930 0.929 . S
C1934 C1936 1.378 . S
C1934 C1938 1.350 1_556 S
C1935 C1938 1.463 . S
C1935 C1940 1.350 . S
C1935 N1943 1.427 1_554 S
C1936 H1927 0.930 . S
C1936 C1934 1.378 . S
C1936 C1937 1.367 1_556 S
C1937 C1936 1.367 1_554 S
C1937 C1939 1.433 . S
C1938 C1934 1.350 1_554 S
C1938 C1935 1.463 . S
C1938 N1942 1.427 . S
C1939 H1929 0.929 . S
C1939 C1937 1.433 . S
C1939 N1942 1.384 . S
C1940 H1931 0.929 . S
C1940 C1932 1.378 . S
C1940 C1935 1.350 . S
C1941 H1928 0.929 . S
C1941 C1933 1.433 1_556 S
C1941 N1943 1.384 . S
N1942 C1938 1.427 . S
N1942 C1939 1.384 . S
N1943 C1935 1.427 1_556 S
N1943 C1941 1.384 . S
H1944 C1950 0.930 . S
H1945 C1954 0.930 . S
H1946 C1959 0.929 . S
H1947 C1957 0.929 . S
H1948 C1952 0.929 . S
H1949 C1958 0.929 . S
C1950 H1944 0.930 . S
C1950 C1951 1.367 . S
C1950 C1958 1.378 . S
C1951 C1950 1.367 . S
C1951 C1959 1.433 . S
C1952 H1948 0.929 . S
C1952 C1954 1.378 . S
C1952 C1956 1.350 . S
C1953 C1956 1.463 . S
C1953 C1958 1.350 . S
C1953 N1961 1.427 . S
C1954 H1945 0.930 . S
C1954 C1952 1.378 . S
C1954 C1955 1.367 . S
C1955 C1954 1.367 . S
C1955 C1957 1.433 . S
C1956 C1952 1.350 . S
C1956 C1953 1.463 . S
C1956 N1960 1.427 . S
C1957 H1947 0.929 . S
C1957 C1955 1.433 . S
C1957 N1960 1.384 . S
C1958 H1949 0.929 . S
C1958 C1950 1.378 . S
C1958 C1953 1.350 . S
C1959 H1946 0.929 . S
C1959 C1951 1.433 . S
C1959 N1961 1.384 . S
N1960 C1956 1.427 . S
N1960 C1957 1.384 . S
N1961 C1953 1.427 . S
N1961 C1959 1.384 . S
H1962 C1968 0.930 . S
H1963 C1972 0.930 . S
H1964 C1977 0.929 . S
H1965 C1975 0.929 . S
H1966 C1970 0.929 . S
H1967 C1976 0.929 . S
C1968 H1962 0.930 . S
C1968 C1969 1.367 . S
C1968 C1976 1.378 . S
C1969 C1968 1.367 . S
C1969 C1977 1.433 . S
C1970 H1966 0.929 . S
C1970 C1972 1.378 . S
C1970 C1974 1.350 . S
C1971 C1974 1.463 . S
C1971 C1976 1.350 . S
C1971 N1979 1.427 . S
C1972 H1963 0.930 . S
C1972 C1970 1.378 . S
C1972 C1973 1.367 . S
C1973 C1972 1.367 . S
C1973 C1975 1.433 . S
C1974 C1970 1.350 . S
C1974 C1971 1.463 . S
C1974 N1978 1.427 . S
C1975 H1965 0.929 . S
C1975 C1973 1.433 . S
C1975 N1978 1.384 . S
C1976 H1967 0.929 . S
C1976 C1968 1.378 . S
C1976 C1971 1.350 . S
C1977 H1964 0.929 . S
C1977 C1969 1.433 . S
C1977 N1979 1.384 . S
N1978 C1974 1.427 . S
N1978 C1975 1.384 . S
N1979 C1971 1.427 . S
N1979 C1977 1.384 . S
H1980 C1986 0.930 . S
H1981 C1990 0.930 . S
H1982 C1995 0.929 . S
H1983 C1993 0.929 . S
H1984 C1988 0.929 . S
H1985 C1994 0.929 . S
C1986 H1980 0.930 . S
C1986 C1987 1.367 . S
C1986 C1994 1.378 . S
C1987 C1986 1.367 . S
C1987 C1995 1.433 . S
C1988 H1984 0.929 . S
C1988 C1990 1.378 . S
C1988 C1992 1.350 . S
C1989 C1992 1.463 . S
C1989 C1994 1.350 . S
C1989 N1997 1.427 . S
C1990 H1981 0.930 . S
C1990 C1988 1.378 . S
C1990 C1991 1.367 . S
C1991 C1990 1.367 . S
C1991 C1993 1.433 . S
C1992 C1988 1.350 . S
C1992 C1989 1.463 . S
C1992 N1996 1.427 . S
C1993 H1983 0.929 . S
C1993 C1991 1.433 . S
C1993 N1996 1.384 . S
C1994 H1985 0.929 . S
C1994 C1986 1.378 . S
C1994 C1989 1.350 . S
C1995 H1982 0.929 . S
C1995 C1987 1.433 . S
C1995 N1997 1.384 . S
N1996 C1992 1.427 . S
N1996 C1993 1.384 . S
N1997 C1989 1.427 . S
N1997 C1995 1.384 . S
H1998 C2004 0.930 . S
H1999 C2008 0.930 . S
H2000 C2013 0.929 . S
H2001 C2011 0.929 . S
H2002 C2006 0.929 . S
H2003 C2012 0.929 . S
C2004 H1998 0.930 . S
C2004 C2005 1.367 . S
C2004 C2012 1.378 . S
C2005 C2004 1.367 . S
C2005 C2013 1.433 . S
C2006 H2002 0.929 . S
C2006 C2008 1.378 . S
C2006 C2010 1.350 . S
C2007 C2010 1.463 . S
C2007 C2012 1.350 . S
C2007 N2015 1.427 . S
C2008 H1999 0.930 . S
C2008 C2006 1.378 . S
C2008 C2009 1.367 . S
C2009 C2008 1.367 . S
C2009 C2011 1.433 . S
C2010 C2006 1.350 . S
C2010 C2007 1.463 . S
C2010 N2014 1.427 . S
C2011 H2001 0.929 . S
C2011 C2009 1.433 . S
C2011 N2014 1.384 . S
C2012 H2003 0.929 . S
C2012 C2004 1.378 . S
C2012 C2007 1.350 . S
C2013 H2000 0.929 . S
C2013 C2005 1.433 . S
C2013 N2015 1.384 . S
N2014 C2010 1.427 . S
N2014 C2011 1.384 . S
N2015 C2007 1.427 . S
N2015 C2013 1.384 . S
H2016 C2022 0.930 . S
H2017 C2026 0.930 . S
H2018 C2031 0.929 . S
H2019 C2029 0.929 . S
H2020 C2024 0.929 . S
H2021 C2030 0.929 . S
C2022 H2016 0.930 . S
C2022 C2023 1.367 . S
C2022 C2030 1.378 . S
C2023 C2022 1.367 . S
C2023 C2031 1.433 . S
C2024 H2020 0.929 . S
C2024 C2026 1.378 . S
C2024 C2028 1.350 . S
C2025 C2028 1.463 . S
C2025 C2030 1.350 . S
C2025 N2033 1.427 . S
C2026 H2017 0.930 . S
C2026 C2024 1.378 . S
C2026 C2027 1.367 . S
C2027 C2026 1.367 . S
C2027 C2029 1.433 . S
C2028 C2024 1.350 . S
C2028 C2025 1.463 . S
C2028 N2032 1.427 . S
C2029 H2019 0.929 . S
C2029 C2027 1.433 . S
C2029 N2032 1.384 . S
C2030 H2021 0.929 . S
C2030 C2022 1.378 . S
C2030 C2025 1.350 . S
C2031 H2018 0.929 . S
C2031 C2023 1.433 . S
C2031 N2033 1.384 . S
N2032 C2028 1.427 . S
N2032 C2029 1.384 . S
N2033 C2025 1.427 . S
N2033 C2031 1.384 . S
H2034 C2040 0.930 . S
H2035 C2044 0.930 . S
H2036 C2049 0.929 . S
H2037 C2047 0.929 . S
H2038 C2042 0.929 . S
H2039 C2048 0.929 . S
C2040 H2034 0.930 . S
C2040 C2041 1.367 . S
C2040 C2048 1.378 . S
C2041 C2040 1.367 . S
C2041 C2049 1.433 . S
C2042 H2038 0.929 . S
C2042 C2044 1.378 . S
C2042 C2046 1.350 . S
C2043 C2046 1.463 . S
C2043 C2048 1.350 . S
C2043 N2051 1.427 . S
C2044 H2035 0.930 . S
C2044 C2042 1.378 . S
C2044 C2045 1.367 . S
C2045 C2044 1.367 . S
C2045 C2047 1.433 . S
C2046 C2042 1.350 . S
C2046 C2043 1.463 . S
C2046 N2050 1.427 . S
C2047 H2037 0.929 . S
C2047 C2045 1.433 . S
C2047 N2050 1.384 . S
C2048 H2039 0.929 . S
C2048 C2040 1.378 . S
C2048 C2043 1.350 . S
C2049 H2036 0.929 . S
C2049 C2041 1.433 . S
C2049 N2051 1.384 . S
N2050 C2046 1.427 . S
N2050 C2047 1.384 . S
N2051 C2043 1.427 . S
N2051 C2049 1.384 . S
H2052 C2058 0.930 . S
H2053 C2062 0.930 . S
H2054 C2067 0.929 . S
H2055 C2065 0.929 . S
H2056 C2060 0.929 . S
H2057 C2066 0.929 . S
C2058 H2052 0.930 . S
C2058 C2059 1.367 . S
C2058 C2066 1.378 . S
C2059 C2058 1.367 . S
C2059 C2067 1.433 . S
C2060 H2056 0.929 . S
C2060 C2062 1.378 . S
C2060 C2064 1.350 . S
C2061 C2064 1.463 . S
C2061 C2066 1.350 . S
C2061 N2069 1.427 . S
C2062 H2053 0.930 . S
C2062 C2060 1.378 . S
C2062 C2063 1.367 . S
C2063 C2062 1.367 . S
C2063 C2065 1.433 . S
C2064 C2060 1.350 . S
C2064 C2061 1.463 . S
C2064 N2068 1.427 . S
C2065 H2055 0.929 . S
C2065 C2063 1.433 . S
C2065 N2068 1.384 . S
C2066 H2057 0.929 . S
C2066 C2058 1.378 . S
C2066 C2061 1.350 . S
C2067 H2054 0.929 . S
C2067 C2059 1.433 . S
C2067 N2069 1.384 . S
N2068 C2064 1.427 . S
N2068 C2065 1.384 . S
N2069 C2061 1.427 . S
N2069 C2067 1.384 . S
H2070 C2076 0.930 . S
H2071 C2080 0.930 . S
H2072 C2085 0.929 . S
H2073 C2083 0.929 . S
H2074 C2078 0.929 . S
H2075 C2084 0.929 . S
C2076 H2070 0.930 . S
C2076 C2077 1.367 . S
C2076 C2084 1.378 . S
C2077 C2076 1.367 . S
C2077 C2085 1.433 . S
C2078 H2074 0.929 . S
C2078 C2080 1.378 . S
C2078 C2082 1.350 . S
C2079 C2082 1.463 . S
C2079 C2084 1.350 . S
C2079 N2087 1.427 . S
C2080 H2071 0.930 . S
C2080 C2078 1.378 . S
C2080 C2081 1.367 . S
C2081 C2080 1.367 . S
C2081 C2083 1.433 . S
C2082 C2078 1.350 . S
C2082 C2079 1.463 . S
C2082 N2086 1.427 . S
C2083 H2073 0.929 . S
C2083 C2081 1.433 . S
C2083 N2086 1.384 . S
C2084 H2075 0.929 . S
C2084 C2076 1.378 . S
C2084 C2079 1.350 . S
C2085 H2072 0.929 . S
C2085 C2077 1.433 . S
C2085 N2087 1.384 . S
N2086 C2082 1.427 . S
N2086 C2083 1.384 . S
N2087 C2079 1.427 . S
N2087 C2085 1.384 . S
H2088 C2094 0.930 . S
H2089 C2098 0.930 . S
H2090 C2103 0.929 . S
H2091 C2101 0.929 . S
H2092 C2096 0.929 . S
H2093 C2102 0.929 . S
C2094 H2088 0.930 . S
C2094 C2095 1.367 . S
C2094 C2102 1.378 . S
C2095 C2094 1.367 . S
C2095 C2103 1.433 . S
C2096 H2092 0.929 . S
C2096 C2098 1.378 . S
C2096 C2100 1.350 . S
C2097 C2100 1.463 . S
C2097 C2102 1.350 . S
C2097 N2105 1.427 . S
C2098 H2089 0.930 . S
C2098 C2096 1.378 . S
C2098 C2099 1.367 . S
C2099 C2098 1.367 . S
C2099 C2101 1.433 . S
C2100 C2096 1.350 . S
C2100 C2097 1.463 . S
C2100 N2104 1.427 . S
C2101 H2091 0.929 . S
C2101 C2099 1.433 . S
C2101 N2104 1.384 . S
C2102 H2093 0.929 . S
C2102 C2094 1.378 . S
C2102 C2097 1.350 . S
C2103 H2090 0.929 . S
C2103 C2095 1.433 . S
C2103 N2105 1.384 . S
N2104 C2100 1.427 . S
N2104 C2101 1.384 . S
N2105 C2097 1.427 . S
N2105 C2103 1.384 . S
H2106 C2112 0.930 . S
H2107 C2116 0.930 . S
H2108 C2121 0.929 . S
H2109 C2119 0.929 . S
H2110 C2114 0.929 . S
H2111 C2120 0.929 . S
C2112 H2106 0.930 . S
C2112 C2113 1.367 . S
C2112 C2120 1.378 . S
C2113 C2112 1.367 . S
C2113 C2121 1.433 . S
C2114 H2110 0.929 . S
C2114 C2116 1.378 . S
C2114 C2118 1.350 . S
C2115 C2118 1.463 . S
C2115 C2120 1.350 . S
C2115 N2123 1.427 . S
C2116 H2107 0.930 . S
C2116 C2114 1.378 . S
C2116 C2117 1.367 . S
C2117 C2116 1.367 . S
C2117 C2119 1.433 . S
C2118 C2114 1.350 . S
C2118 C2115 1.463 . S
C2118 N2122 1.427 . S
C2119 H2109 0.929 . S
C2119 C2117 1.433 . S
C2119 N2122 1.384 . S
C2120 H2111 0.929 . S
C2120 C2112 1.378 . S
C2120 C2115 1.350 . S
C2121 H2108 0.929 . S
C2121 C2113 1.433 . S
C2121 N2123 1.384 . S
N2122 C2118 1.427 . S
N2122 C2119 1.384 . S
N2123 C2115 1.427 . S
N2123 C2121 1.384 . S
H2124 C2130 0.930 . S
H2125 C2134 0.930 . S
H2126 C2139 0.929 . S
H2127 C2137 0.929 . S
H2128 C2132 0.929 . S
H2129 C2138 0.929 . S
C2130 H2124 0.930 . S
C2130 C2131 1.367 . S
C2130 C2138 1.378 . S
C2131 C2130 1.367 . S
C2131 C2139 1.433 . S
C2132 H2128 0.929 . S
C2132 C2134 1.378 . S
C2132 C2136 1.350 . S
C2133 C2136 1.463 . S
C2133 C2138 1.350 . S
C2133 N2141 1.427 . S
C2134 H2125 0.930 . S
C2134 C2132 1.378 . S
C2134 C2135 1.367 . S
C2135 C2134 1.367 . S
C2135 C2137 1.433 . S
C2136 C2132 1.350 . S
C2136 C2133 1.463 . S
C2136 N2140 1.427 . S
C2137 H2127 0.929 . S
C2137 C2135 1.433 . S
C2137 N2140 1.384 . S
C2138 H2129 0.929 . S
C2138 C2130 1.378 . S
C2138 C2133 1.350 . S
C2139 H2126 0.929 . S
C2139 C2131 1.433 . S
C2139 N2141 1.384 . S
N2140 C2136 1.427 . S
N2140 C2137 1.384 . S
N2141 C2133 1.427 . S
N2141 C2139 1.384 . S
H2142 C2148 0.930 . S
H2143 C2152 0.930 . S
H2144 C2157 0.929 . S
H2145 C2155 0.929 . S
H2146 C2150 0.929 . S
H2147 C2156 0.929 . S
C2148 H2142 0.930 . S
C2148 C2149 1.367 . S
C2148 C2156 1.378 . S
C2149 C2148 1.367 . S
C2149 C2157 1.433 . S
C2150 H2146 0.929 . S
C2150 C2152 1.378 . S
C2150 C2154 1.350 . S
C2151 C2154 1.463 . S
C2151 C2156 1.350 . S
C2151 N2159 1.427 . S
C2152 H2143 0.930 . S
C2152 C2150 1.378 . S
C2152 C2153 1.367 . S
C2153 C2152 1.367 . S
C2153 C2155 1.433 . S
C2154 C2150 1.350 . S
C2154 C2151 1.463 . S
C2154 N2158 1.427 . S
C2155 H2145 0.929 . S
C2155 C2153 1.433 . S
C2155 N2158 1.384 . S
C2156 H2147 0.929 . S
C2156 C2148 1.378 . S
C2156 C2151 1.350 . S
C2157 H2144 0.929 . S
C2157 C2149 1.433 . S
C2157 N2159 1.384 . S
N2158 C2154 1.427 . S
N2158 C2155 1.384 . S
N2159 C2151 1.427 . S
N2159 C2157 1.384 . S
H2160 C2166 0.930 . S
H2161 C2170 0.930 . S
H2162 C2175 0.929 . S
H2163 C2173 0.929 . S
H2164 C2168 0.929 . S
H2165 C2174 0.929 . S
C2166 H2160 0.930 . S
C2166 C2167 1.367 . S
C2166 C2174 1.378 . S
C2167 C2166 1.367 . S
C2167 C2175 1.433 . S
C2168 H2164 0.929 . S
C2168 C2170 1.378 . S
C2168 C2172 1.350 . S
C2169 C2172 1.463 . S
C2169 C2174 1.350 . S
C2169 N2177 1.427 . S
C2170 H2161 0.930 . S
C2170 C2168 1.378 . S
C2170 C2171 1.367 . S
C2171 C2170 1.367 . S
C2171 C2173 1.433 . S
C2172 C2168 1.350 . S
C2172 C2169 1.463 . S
C2172 N2176 1.427 . S
C2173 H2163 0.929 . S
C2173 C2171 1.433 . S
C2173 N2176 1.384 . S
C2174 H2165 0.929 . S
C2174 C2166 1.378 . S
C2174 C2169 1.350 . S
C2175 H2162 0.929 . S
C2175 C2167 1.433 . S
C2175 N2177 1.384 . S
N2176 C2172 1.427 . S
N2176 C2173 1.384 . S
N2177 C2169 1.427 . S
N2177 C2175 1.384 . S
H2178 C2184 0.930 . S
H2179 C2188 0.930 . S
H2180 C2193 0.929 . S
H2181 C2191 0.929 . S
H2182 C2186 0.929 . S
H2183 C2192 0.929 . S
C2184 H2178 0.930 . S
C2184 C2185 1.367 . S
C2184 C2192 1.378 . S
C2185 C2184 1.367 . S
C2185 C2193 1.433 . S
C2186 H2182 0.929 . S
C2186 C2188 1.378 . S
C2186 C2190 1.350 . S
C2187 C2190 1.463 . S
C2187 C2192 1.350 . S
C2187 N2195 1.427 . S
C2188 H2179 0.930 . S
C2188 C2186 1.378 . S
C2188 C2189 1.367 . S
C2189 C2188 1.367 . S
C2189 C2191 1.433 . S
C2190 C2186 1.350 . S
C2190 C2187 1.463 . S
C2190 N2194 1.427 . S
C2191 H2181 0.929 . S
C2191 C2189 1.433 . S
C2191 N2194 1.384 . S
C2192 H2183 0.929 . S
C2192 C2184 1.378 . S
C2192 C2187 1.350 . S
C2193 H2180 0.929 . S
C2193 C2185 1.433 . S
C2193 N2195 1.384 . S
N2194 C2190 1.427 . S
N2194 C2191 1.384 . S
N2195 C2187 1.427 . S
N2195 C2193 1.384 . S
H2196 C2202 0.930 . S
H2197 C2206 0.930 . S
H2198 C2211 0.929 . S
H2199 C2209 0.929 . S
H2200 C2204 0.929 . S
H2201 C2210 0.929 . S
C2202 H2196 0.930 . S
C2202 C2203 1.367 . S
C2202 C2210 1.378 . S
C2203 C2202 1.367 . S
C2203 C2211 1.433 . S
C2204 H2200 0.929 . S
C2204 C2206 1.378 . S
C2204 C2208 1.350 . S
C2205 C2208 1.463 . S
C2205 C2210 1.350 . S
C2205 N2213 1.427 . S
C2206 H2197 0.930 . S
C2206 C2204 1.378 . S
C2206 C2207 1.367 . S
C2207 C2206 1.367 . S
C2207 C2209 1.433 . S
C2208 C2204 1.350 . S
C2208 C2205 1.463 . S
C2208 N2212 1.427 . S
C2209 H2199 0.929 . S
C2209 C2207 1.433 . S
C2209 N2212 1.384 . S
C2210 H2201 0.929 . S
C2210 C2202 1.378 . S
C2210 C2205 1.350 . S
C2211 H2198 0.929 . S
C2211 C2203 1.433 . S
C2211 N2213 1.384 . S
N2212 C2208 1.427 . S
N2212 C2209 1.384 . S
N2213 C2205 1.427 . S
N2213 C2211 1.384 . S
H2214 C2220 0.930 . S
H2215 C2224 0.930 . S
H2216 C2229 0.929 . S
H2217 C2227 0.929 . S
H2218 C2222 0.929 . S
H2219 C2228 0.929 . S
C2220 H2214 0.930 . S
C2220 C2221 1.367 . S
C2220 C2228 1.378 . S
C2221 C2220 1.367 . S
C2221 C2229 1.433 . S
C2222 H2218 0.929 . S
C2222 C2224 1.378 . S
C2222 C2226 1.350 . S
C2223 C2226 1.463 . S
C2223 C2228 1.350 . S
C2223 N2231 1.427 . S
C2224 H2215 0.930 . S
C2224 C2222 1.378 . S
C2224 C2225 1.367 . S
C2225 C2224 1.367 . S
C2225 C2227 1.433 . S
C2226 C2222 1.350 . S
C2226 C2223 1.463 . S
C2226 N2230 1.427 . S
C2227 H2217 0.929 . S
C2227 C2225 1.433 . S
C2227 N2230 1.384 . S
C2228 H2219 0.929 . S
C2228 C2220 1.378 . S
C2228 C2223 1.350 . S
C2229 H2216 0.929 . S
C2229 C2221 1.433 . S
C2229 N2231 1.384 . S
N2230 C2226 1.427 . S
N2230 C2227 1.384 . S
N2231 C2223 1.427 . S
N2231 C2229 1.384 . S
H2232 C2238 0.930 . S
H2233 C2242 0.930 . S
H2234 C2247 0.929 . S
H2235 C2245 0.929 . S
H2236 C2240 0.929 . S
H2237 C2246 0.929 . S
C2238 H2232 0.930 . S
C2238 C2239 1.367 . S
C2238 C2246 1.378 . S
C2239 C2238 1.367 . S
C2239 C2247 1.433 . S
C2240 H2236 0.929 . S
C2240 C2242 1.378 . S
C2240 C2244 1.350 . S
C2241 C2244 1.463 . S
C2241 C2246 1.350 . S
C2241 N2249 1.427 . S
C2242 H2233 0.930 . S
C2242 C2240 1.378 . S
C2242 C2243 1.367 . S
C2243 C2242 1.367 . S
C2243 C2245 1.433 . S
C2244 C2240 1.350 . S
C2244 C2241 1.463 . S
C2244 N2248 1.427 . S
C2245 H2235 0.929 . S
C2245 C2243 1.433 . S
C2245 N2248 1.384 . S
C2246 H2237 0.929 . S
C2246 C2238 1.378 . S
C2246 C2241 1.350 . S
C2247 H2234 0.929 . S
C2247 C2239 1.433 . S
C2247 N2249 1.384 . S
N2248 C2244 1.427 . S
N2248 C2245 1.384 . S
N2249 C2241 1.427 . S
N2249 C2247 1.384 . S
H2250 C2256 0.930 . S
H2251 C2260 0.930 . S
H2252 C2265 0.929 . S
H2253 C2263 0.929 . S
H2254 C2258 0.929 . S
H2255 C2264 0.929 . S
C2256 H2250 0.930 . S
C2256 C2257 1.367 . S
C2256 C2264 1.378 . S
C2257 C2256 1.367 . S
C2257 C2265 1.433 . S
C2258 H2254 0.929 . S
C2258 C2260 1.378 . S
C2258 C2262 1.350 . S
C2259 C2262 1.463 . S
C2259 C2264 1.350 . S
C2259 N2267 1.427 . S
C2260 H2251 0.930 . S
C2260 C2258 1.378 . S
C2260 C2261 1.367 . S
C2261 C2260 1.367 . S
C2261 C2263 1.433 . S
C2262 C2258 1.350 . S
C2262 C2259 1.463 . S
C2262 N2266 1.427 . S
C2263 H2253 0.929 . S
C2263 C2261 1.433 . S
C2263 N2266 1.384 . S
C2264 H2255 0.929 . S
C2264 C2256 1.378 . S
C2264 C2259 1.350 . S
C2265 H2252 0.929 . S
C2265 C2257 1.433 . S
C2265 N2267 1.384 . S
N2266 C2262 1.427 . S
N2266 C2263 1.384 . S
N2267 C2259 1.427 . S
N2267 C2265 1.384 . S
H2268 C2274 0.930 . S
H2269 C2278 0.930 . S
H2270 C2283 0.929 . S
H2271 C2281 0.929 . S
H2272 C2276 0.929 . S
H2273 C2282 0.929 . S
C2274 H2268 0.930 . S
C2274 C2275 1.367 . S
C2274 C2282 1.378 . S
C2275 C2274 1.367 . S
C2275 C2283 1.433 . S
C2276 H2272 0.929 . S
C2276 C2278 1.378 . S
C2276 C2280 1.350 . S
C2277 C2280 1.463 . S
C2277 C2282 1.350 . S
C2277 N2285 1.427 . S
C2278 H2269 0.930 . S
C2278 C2276 1.378 . S
C2278 C2279 1.367 . S
C2279 C2278 1.367 . S
C2279 C2281 1.433 . S
C2280 C2276 1.350 . S
C2280 C2277 1.463 . S
C2280 N2284 1.427 . S
C2281 H2271 0.929 . S
C2281 C2279 1.433 . S
C2281 N2284 1.384 . S
C2282 H2273 0.929 . S
C2282 C2274 1.378 . S
C2282 C2277 1.350 . S
C2283 H2270 0.929 . S
C2283 C2275 1.433 . S
C2283 N2285 1.384 . S
N2284 C2280 1.427 . S
N2284 C2281 1.384 . S
N2285 C2277 1.427 . S
N2285 C2283 1.384 . S
H2286 C2292 0.930 . S
H2287 C2296 0.930 . S
H2288 C2301 0.929 . S
H2289 C2299 0.929 . S
H2290 C2294 0.929 . S
H2291 C2300 0.929 . S
C2292 H2286 0.930 . S
C2292 C2293 1.367 . S
C2292 C2300 1.378 . S
C2293 C2292 1.367 . S
C2293 C2301 1.433 . S
C2294 H2290 0.929 . S
C2294 C2296 1.378 . S
C2294 C2298 1.350 . S
C2295 C2298 1.463 . S
C2295 C2300 1.350 . S
C2295 N2303 1.427 . S
C2296 H2287 0.930 . S
C2296 C2294 1.378 . S
C2296 C2297 1.367 . S
C2297 C2296 1.367 . S
C2297 C2299 1.433 . S
C2298 C2294 1.350 . S
C2298 C2295 1.463 . S
C2298 N2302 1.427 . S
C2299 H2289 0.929 . S
C2299 C2297 1.433 . S
C2299 N2302 1.384 . S
C2300 H2291 0.929 . S
C2300 C2292 1.378 . S
C2300 C2295 1.350 . S
C2301 H2288 0.929 . S
C2301 C2293 1.433 . S
C2301 N2303 1.384 . S
N2302 C2298 1.427 . S
N2302 C2299 1.384 . S
N2303 C2295 1.427 . S
N2303 C2301 1.384 . S
H2304 C2310 0.930 . S
H2305 C2314 0.930 . S
H2306 C2319 0.929 . S
H2307 C2317 0.929 . S
H2308 C2312 0.929 . S
H2309 C2318 0.929 . S
C2310 H2304 0.930 . S
C2310 C2311 1.367 . S
C2310 C2318 1.378 . S
C2311 C2310 1.367 . S
C2311 C2319 1.433 . S
C2312 H2308 0.929 . S
C2312 C2314 1.378 . S
C2312 C2316 1.350 . S
C2313 C2316 1.463 . S
C2313 C2318 1.350 . S
C2313 N2321 1.427 . S
C2314 H2305 0.930 . S
C2314 C2312 1.378 . S
C2314 C2315 1.367 . S
C2315 C2314 1.367 . S
C2315 C2317 1.433 . S
C2316 C2312 1.350 . S
C2316 C2313 1.463 . S
C2316 N2320 1.427 . S
C2317 H2307 0.929 . S
C2317 C2315 1.433 . S
C2317 N2320 1.384 . S
C2318 H2309 0.929 . S
C2318 C2310 1.378 . S
C2318 C2313 1.350 . S
C2319 H2306 0.929 . S
C2319 C2311 1.433 . S
C2319 N2321 1.384 . S
N2320 C2316 1.427 . S
N2320 C2317 1.384 . S
N2321 C2313 1.427 . S
N2321 C2319 1.384 . S
H2322 C2328 0.930 . S
H2323 C2332 0.930 . S
H2324 C2337 0.929 . S
H2325 C2335 0.929 . S
H2326 C2330 0.929 . S
H2327 C2336 0.929 . S
C2328 H2322 0.930 . S
C2328 C2329 1.367 . S
C2328 C2336 1.378 . S
C2329 C2328 1.367 . S
C2329 C2337 1.433 . S
C2330 H2326 0.929 . S
C2330 C2332 1.378 . S
C2330 C2334 1.350 . S
C2331 C2334 1.463 . S
C2331 C2336 1.350 . S
C2331 N2339 1.427 . S
C2332 H2323 0.930 . S
C2332 C2330 1.378 . S
C2332 C2333 1.367 . S
C2333 C2332 1.367 . S
C2333 C2335 1.433 . S
C2334 C2330 1.350 . S
C2334 C2331 1.463 . S
C2334 N2338 1.427 . S
C2335 H2325 0.929 . S
C2335 C2333 1.433 . S
C2335 N2338 1.384 . S
C2336 H2327 0.929 . S
C2336 C2328 1.378 . S
C2336 C2331 1.350 . S
C2337 H2324 0.929 . S
C2337 C2329 1.433 . S
C2337 N2339 1.384 . S
N2338 C2334 1.427 . S
N2338 C2335 1.384 . S
N2339 C2331 1.427 . S
N2339 C2337 1.384 . S
H2340 C2346 0.930 . S
H2341 C2350 0.930 . S
H2342 C2355 0.929 . S
H2343 C2353 0.929 . S
H2344 C2348 0.929 . S
H2345 C2354 0.929 . S
C2346 H2340 0.930 . S
C2346 C2347 1.367 . S
C2346 C2354 1.378 . S
C2347 C2346 1.367 . S
C2347 C2355 1.433 . S
C2348 H2344 0.929 . S
C2348 C2350 1.378 . S
C2348 C2352 1.350 . S
C2349 C2352 1.463 . S
C2349 C2354 1.350 . S
C2349 N2357 1.427 . S
C2350 H2341 0.930 . S
C2350 C2348 1.378 . S
C2350 C2351 1.367 . S
C2351 C2350 1.367 . S
C2351 C2353 1.433 . S
C2352 C2348 1.350 . S
C2352 C2349 1.463 . S
C2352 N2356 1.427 . S
C2353 H2343 0.929 . S
C2353 C2351 1.433 . S
C2353 N2356 1.384 . S
C2354 H2345 0.929 . S
C2354 C2346 1.378 . S
C2354 C2349 1.350 . S
C2355 H2342 0.929 . S
C2355 C2347 1.433 . S
C2355 N2357 1.384 . S
N2356 C2352 1.427 . S
N2356 C2353 1.384 . S
N2357 C2349 1.427 . S
N2357 C2355 1.384 . S
H2358 C2364 0.930 . S
H2359 C2368 0.930 . S
H2360 C2373 0.929 . S
H2361 C2371 0.929 . S
H2362 C2366 0.929 . S
H2363 C2372 0.929 . S
C2364 H2358 0.930 . S
C2364 C2365 1.367 . S
C2364 C2372 1.378 . S
C2365 C2364 1.367 . S
C2365 C2373 1.433 . S
C2366 H2362 0.929 . S
C2366 C2368 1.378 . S
C2366 C2370 1.350 . S
C2367 C2370 1.463 . S
C2367 C2372 1.350 . S
C2367 N2375 1.427 . S
C2368 H2359 0.930 . S
C2368 C2366 1.378 . S
C2368 C2369 1.367 . S
C2369 C2368 1.367 . S
C2369 C2371 1.433 . S
C2370 C2366 1.350 . S
C2370 C2367 1.463 . S
C2370 N2374 1.427 . S
C2371 H2361 0.929 . S
C2371 C2369 1.433 . S
C2371 N2374 1.384 . S
C2372 H2363 0.929 . S
C2372 C2364 1.378 . S
C2372 C2367 1.350 . S
C2373 H2360 0.929 . S
C2373 C2365 1.433 . S
C2373 N2375 1.384 . S
N2374 C2370 1.427 . S
N2374 C2371 1.384 . S
N2375 C2367 1.427 . S
N2375 C2373 1.384 . S
C1091 C810 1.079 . S
C1087 C765 1.095 . S
C1105 C701 1.139 . S
C1109 C804 1.110 . S
C1127 C772 1.220 . S
C1123 C669 1.265 . S
C1141 C733 1.273 . S
C1145 C786 1.205 . S
C1163 C824 1.617 . S
C1159 C541 1.693 . S
C1181 C911 1.129 . S
C1177 C573 1.121 . S
C1195 C605 1.763 . S
C1199 C838 1.693 . S
C1217 C906 0.836 . S
C1213 C637 0.835 . S
C1231 C413 1.728 . S
C1235 C862 1.688 . S
C1253 C917 1.221 . S
C1249 C445 1.206 . S
C1267 C477 1.653 . S
C1271 C856 1.626 . S
C1285 C509 0.846 . S
C1289 C902 0.856 . S
C1307 C958 0.864 . S
C1303 C381 0.867 . S
C1321 C317 1.266 . S
C1325 C969 1.276 . S
C1339 C285 0.930 . S
C1343 C954 0.942 . S
C1361 C963 1.301 . S
C1357 C349 1.302 1_554 S
C1375 C157 1.221 1_455 S
C1379 C1008 1.193 . S
C1393 C189 0.386 . S
C1397 C1067 0.426 . S
C1411 C221 1.373 . S
C1415 C1024 1.310 . S
C1429 C253 0.805 . S
C1433 C1062 0.813 . S
C1451 C1026 1.330 . S
C1447 C29 1.388 . S
C1469 C1073 0.422 . S
C1465 C61 0.445 . S
C1483 C93 1.185 . S
C1487 C1002 1.148 . S
C1505 C1058 0.747 . S
C1501 C125 0.763 1_545 S
C1523 C794 1.738 . S
C1519 C23 1.737 . S
C1537 C55 1.458 . S
C1541 C798 1.516 . S
C1555 C87 1.787 . S
C1559 C818 1.753 . S
C1573 C113 1.199 1_545 S
C1577 C813 1.236 . S
C1591 C151 1.818 1_455 S
C1595 C816 1.785 . S
C1613 C802 1.481 . S
C1609 C183 1.453 . S
C1627 C215 1.755 . S
C1631 C800 1.716 . S
C1649 C807 1.233 . S
C1645 C247 1.163 . S
C1667 C870 1.723 . S
C1663 C119 1.761 1_545 S
C1681 C17 2.024 . S
C1685 C920 2.047 . S
C1703 C868 1.404 . S
C1699 C49 1.419 . S
C1721 C904 1.931 . S
C1717 C81 1.940 . S
C1735 C177 1.371 . S
C1739 C846 1.346 . S
C1757 C922 2.015 . S
C1753 C209 2.001 . S
C1775 C852 1.679 . S
C1771 C241 1.717 . S
C1793 C898 1.961 . S
C1789 C145 1.975 1_455 S
C1811 C890 1.774 . S
C1807 C279 1.714 . S
C1825 C305 1.566 . S
C1829 C914 1.652 . S
C1847 C850 1.451 . S
C1843 C273 1.408 . S
C1865 C876 1.666 . S
C1861 C337 1.608 1_554 S
C1879 C375 1.354 . S
C1883 C854 1.404 . S
C1897 C369 1.662 . S
C1901 C908 1.711 . S
C1919 C865 1.743 . S
C1915 C311 1.621 . S
C1937 C859 1.789 . S
C1933 C343 1.677 1_554 S
C1955 C942 2.165 . S
C1951 C407 2.092 . S
C1973 C974 1.805 . S
C1969 C439 1.712 . S
C1987 C471 2.041 . S
C1991 C928 2.140 . S
C2009 C972 1.427 . S
C2005 C497 1.402 . S
C2027 C960 2.107 . S
C2023 C535 2.043 . S
C2041 C561 1.651 . S
C2045 C956 1.717 . S
C2059 C599 2.128 . S
C2063 C966 2.196 . S
C2081 C950 1.387 . S
C2077 C631 1.338 . S
C2099 C1015 1.648 . S
C2095 C503 1.618 . S
C2113 C401 1.788 . S
C2117 C1076 1.860 . S
C2135 C1010 1.399 . S
C2131 C433 1.291 . S
C2153 C1060 1.837 . S
C2149 C465 1.735 . S
C2171 C1006 1.329 . S
C2167 C567 1.231 . S
C2185 C593 1.751 . S
C2189 C1078 1.785 . S
C2207 C1021 1.594 . S
C2203 C625 1.580 . S
C2225 C1054 1.714 . S
C2221 C529 1.685 . S
C2243 C1046 1.894 . S
C2239 C663 1.872 . S
C2257 C689 1.956 . S
C2261 C1070 1.947 . S
C2279 C1012 1.618 . S
C2275 C657 1.644 . S
C2293 C721 1.998 . S
C2297 C1032 2.004 . S
C2315 C994 1.657 . S
C2311 C759 1.684 . S
C2333 C1064 1.806 . S
C2329 C753 1.793 . S
C2351 C980 1.642 . S
C2347 C695 1.683 . S
C2365 C727 1.618 . S
C2369 C1018 1.590 . S
