# Generated by pormake.
# Topology anh, (6,3)-cn, num edge types: 1
# Building blocks:
#     Node 0, Type 0, BuildingBlock: CUWYAW_clean_sbu_0, # of connection points: 6
#     Node 1, Type 0, BuildingBlock: CUWYAW_clean_sbu_0, # of connection points: 6
#     Node 2, Type 0, BuildingBlock: CUWYAW_clean_sbu_0, # of connection points: 6
#     Node 3, Type 1, BuildingBlock: ESEHIV_clean_linker_0, # of connection points: 3
#     Node 4, Type 1, BuildingBlock: ESEHIV_clean_linker_0, # of connection points: 3
#     Node 5, Type 1, BuildingBlock: ESEHIV_clean_linker_0, # of connection points: 3
#     Node 6, Type 1, BuildingBlock: ESEHIV_clean_linker_0, # of connection points: 3
#     Node 7, Type 1, BuildingBlock: ESEHIV_clean_linker_0, # of connection points: 3
#     Node 8, Type 1, BuildingBlock: ESEHIV_clean_linker_0, # of connection points: 3
#     Edge 9, Type (0, 1), BuildingBlock: AJUNOK_clean_linker_0, # of connection points: 2
#     Edge 10, Type (0, 1), BuildingBlock: AJUNOK_clean_linker_0, # of connection points: 2
#     Edge 11, Type (0, 1), BuildingBlock: AJUNOK_clean_linker_0, # of connection points: 2
#     Edge 12, Type (0, 1), BuildingBlock: AJUNOK_clean_linker_0, # of connection points: 2
#     Edge 13, Type (0, 1), BuildingBlock: AJUNOK_clean_linker_0, # of connection points: 2
#     Edge 14, Type (0, 1), BuildingBlock: AJUNOK_clean_linker_0, # of connection points: 2
#     Edge 15, Type (0, 1), BuildingBlock: AJUNOK_clean_linker_0, # of connection points: 2
#     Edge 16, Type (0, 1), BuildingBlock: AJUNOK_clean_linker_0, # of connection points: 2
#     Edge 17, Type (0, 1), BuildingBlock: AJUNOK_clean_linker_0, # of connection points: 2
#     Edge 18, Type (0, 1), BuildingBlock: AJUNOK_clean_linker_0, # of connection points: 2
#     Edge 19, Type (0, 1), BuildingBlock: AJUNOK_clean_linker_0, # of connection points: 2
#     Edge 20, Type (0, 1), BuildingBlock: AJUNOK_clean_linker_0, # of connection points: 2
#     Edge 21, Type (0, 1), BuildingBlock: AJUNOK_clean_linker_0, # of connection points: 2
#     Edge 22, Type (0, 1), BuildingBlock: AJUNOK_clean_linker_0, # of connection points: 2
#     Edge 23, Type (0, 1), BuildingBlock: AJUNOK_clean_linker_0, # of connection points: 2
#     Edge 24, Type (0, 1), BuildingBlock: AJUNOK_clean_linker_0, # of connection points: 2
#     Edge 25, Type (0, 1), BuildingBlock: AJUNOK_clean_linker_0, # of connection points: 2
#     Edge 26, Type (0, 1), BuildingBlock: AJUNOK_clean_linker_0, # of connection points: 2
# Relax obj value: 0.452
# Max RMSD: 0.215
# Mean RMSD: 0.180
data_MOF--net-anh--node1-CUWYAW_clean_sbu_0--node2-ESEHIV_clean_linker_0--edge1-AJUNOK_clean_linker_0
_symmetry_space_group_name_H-M    P1
_symmetry_Int_Tables_number       1
_symmetry_cell_setting            triclinic
loop_
_symmetry_equiv_pos_as_xyz
'x, y, z'
_cell_length_a     21.07079
_cell_length_b     21.114402
_cell_length_c     37.914955
_cell_angle_alpha  88.883411
_cell_angle_beta   90.314862
_cell_angle_gamma 120.17287
loop_
_atom_site_label
_atom_site_type_symbol
_atom_site_fract_x
_atom_site_fract_y
_atom_site_fract_z
_atom_type_partial_charge
C0 C 1.08351 0.37723 0.15581 0.0
Eu1 Eu 0.17454 0.51681 0.14874 0.0
C2 C 1.00854 0.34357 0.16993 0.0
C3 C 0.99705 0.36134 0.20395 0.0
C4 C 0.93034 0.35561 0.21259 0.0
C5 C 0.87431 0.33189 0.18747 0.0
C6 C 0.88275 0.30649 0.15493 0.0
C7 C 0.94944 0.31167 0.14632 0.0
C8 C 0.21417 0.59224 0.21145 0.0
C9 C 1.06036 0.58749 0.13317 0.0
C10 C 0.32579 0.79411 0.12186 0.0
Eu11 Eu 0.23716 0.65351 0.13032 0.0
C12 C 0.34423 0.8581 0.14253 0.0
C13 C 0.37651 0.92761 0.12643 0.0
C14 C 0.39497 0.98871 0.1468 0.0
C15 C 0.38054 0.98014 0.18326 0.0
C16 C 0.349 0.91032 0.19916 0.0
C17 C 0.33083 0.84969 0.17888 0.0
C18 C 0.19102 0.56797 0.07233 0.0
C19 C 0.35163 0.58451 0.13162 0.0
O20 O 1.09307 0.41353 0.12624 0.0
O21 O 1.1367 0.41376 0.17796 0.0
O22 O 0.22718 0.54112 0.20244 0.0
O23 O 0.1866 0.60833 0.18484 0.0
O24 O 1.06702 0.52736 0.13594 0.0
O25 O 1.12397 0.65023 0.13445 0.0
O26 O 0.25957 0.75984 0.10912 0.0
O27 O 0.34462 0.74952 0.13625 0.0
O28 O 0.18074 0.62234 0.07721 0.0
O29 O 0.22573 0.56165 0.09774 0.0
O30 O 0.34581 0.64471 0.13153 0.0
O31 O 0.28771 0.52217 0.13597 0.0
H32 H 1.04126 0.38563 0.2229 0.0
H33 H 0.92382 0.3733 0.23829 0.0
H34 H 0.83972 0.28729 0.13533 0.0
H35 H 0.95713 0.29766 0.11995 0.0
H36 H 0.38788 0.93457 0.09834 0.0
H37 H 0.42152 1.04252 0.13425 0.0
H38 H 0.33831 0.90272 0.22728 0.0
H39 H 0.30678 0.79614 0.19152 0.0
C40 C 0.56772 0.23609 0.48055 0.0
Eu41 Eu 0.62281 0.15088 0.48138 0.0
C42 C 0.59519 0.30032 0.50261 0.0
C43 C 0.61591 0.29471 0.53737 0.0
C44 C 0.67387 0.35501 0.55302 0.0
C45 C 0.71017 0.42168 0.53444 0.0
C46 C 0.68369 0.42983 0.50163 0.0
C47 C 0.62588 0.36922 0.48581 0.0
C48 C 0.65616 0.12286 0.54848 0.0
C49 C 0.80916 0.26624 0.46689 0.0
C50 C 0.77146 1.01418 0.47878 0.0
Eu51 Eu 0.7034 1.08738 0.47319 0.0
C52 C 0.78313 0.95378 0.46937 0.0
C53 C 0.8433 0.97011 0.44742 0.0
C54 C 0.879 0.93001 0.45093 0.0
C55 C 0.85388 0.87302 0.47599 0.0
C56 C 0.78591 0.84799 0.49274 0.0
C57 C 0.75077 0.88882 0.48971 0.0
C58 C 0.66747 0.12416 0.41028 0.0
C59 C 0.51859 0.97086 0.46635 0.0
O60 O 0.61634 0.24186 0.45763 0.0
O61 O 0.53618 0.17275 0.49711 0.0
O62 O 0.59266 0.10939 0.53751 0.0
O63 O 0.70097 0.14726 0.52233 0.0
O64 O 0.74183 0.25924 0.46836 0.0
O65 O 0.8091 0.20375 0.47188 0.0
O66 O 0.71856 1.00353 0.50044 0.0
O67 O 0.78665 1.06504 0.45492 0.0
O68 O 0.73245 0.13595 0.4175 0.0
O69 O 0.62552 1.09229 0.43585 0.0
O70 O 0.5854 0.97721 0.46851 0.0
O71 O 0.51906 1.03434 0.46876 0.0
H72 H 0.59309 0.24227 0.55104 0.0
H73 H 0.69264 0.34879 0.57884 0.0
H74 H 0.71085 0.48177 0.48732 0.0
H75 H 0.61125 0.37443 0.45889 0.0
H76 H 0.86902 1.01967 0.43123 0.0
H77 H 0.93134 0.94969 0.43779 0.0
H78 H 0.76583 0.80365 0.51214 0.0
H79 H 0.704 0.87462 0.5066 0.0
C80 C 0.92823 0.75855 0.81262 0.0
Eu81 Eu 0.78866 0.70827 0.81319 0.0
C82 C 0.95951 0.71852 0.83057 0.0
C83 C 0.93649 0.69294 0.86537 0.0
C84 C 0.93539 0.63022 0.87786 0.0
C85 C 0.9588 0.59328 0.85611 0.0
C86 C 0.98945 0.62286 0.82289 0.0
C87 C 0.98983 0.68545 0.81012 0.0
C88 C 0.72616 0.67319 0.87962 0.0
C89 C 0.71823 0.5227 0.80015 0.0
C90 C 0.5054 0.56451 0.80266 0.0
Eu91 Eu 0.64655 0.62887 0.80352 0.0
C92 C 0.42546 0.52812 0.80221 0.0
C93 C 0.38472 0.46318 0.78351 0.0
C94 C 0.30917 0.42089 0.78867 0.0
C95 C 0.27431 0.44402 0.81213 0.0
C96 C 0.31357 0.51341 0.82725 0.0
C97 C 0.38924 0.55521 0.8225 0.0
C98 C 0.72149 0.67173 0.74147 0.0
C99 C 0.71484 0.81406 0.80026 0.0
O100 O 0.88633 0.72346 0.78606 0.0
O101 O 0.89785 0.78509 0.83302 0.0
O102 O 0.7747 0.73743 0.86813 0.0
O103 O 0.70634 0.62842 0.854 0.0
O104 O 0.77839 0.59019 0.80116 0.0
O105 O 0.65559 0.52245 0.80466 0.0
O106 O 0.54424 0.60508 0.82888 0.0
O107 O 0.54272 0.55631 0.77765 0.0
O108 O 0.67222 0.60491 0.74909 0.0
O109 O 0.72973 0.71156 0.76701 0.0
O110 O 0.65436 0.74705 0.80196 0.0
O111 O 0.77803 0.81367 0.80215 0.0
H112 H 0.91278 0.71697 0.88192 0.0
H113 H 0.91382 0.60903 0.90403 0.0
H114 H 1.00935 0.59537 0.80622 0.0
H115 H 1.00707 0.70368 0.78314 0.0
H116 H 0.41176 0.44229 0.76711 0.0
H117 H 0.27915 0.36745 0.77685 0.0
H118 H 0.28696 0.53188 0.84543 0.0
H119 H 0.41979 0.60636 0.83632 0.0
H120 H 0.48473 0.20267 0.31392 0.0
H121 H 0.70641 0.36877 0.29064 0.0
H122 H 0.54436 0.2931 0.20972 0.0
C123 C 0.5241 0.24643 0.29678 0.0
C124 C 0.50536 0.24482 0.26118 0.0
C125 C 0.59814 0.28588 0.30675 0.0
C126 C 0.64907 0.33869 0.28318 0.0
C127 C 0.63061 0.33701 0.24748 0.0
C128 C 0.55673 0.29761 0.23769 0.0
H129 H 0.94794 0.82954 0.61261 0.0
H130 H 0.9347 0.62971 0.64793 0.0
H131 H 1.01958 0.71506 0.5462 0.0
C132 C 0.96586 0.78996 0.60983 0.0
C133 C 0.99322 0.78339 0.57683 0.0
C134 C 0.94527 0.73465 0.63611 0.0
C135 C 0.95685 0.67595 0.62952 0.0
C136 C 0.96803 0.66338 0.59478 0.0
C137 C 1.00481 0.72411 0.57221 0.0
H138 H 0.93934 0.37167 0.97117 0.0
H139 H 1.12288 0.34797 0.94442 0.0
H140 H 0.94254 0.28152 0.87282 0.0
C141 C 0.96293 0.34732 0.95464 0.0
C142 C 0.94062 0.33456 0.91953 0.0
C143 C 1.03101 0.35477 0.96392 0.0
C144 C 1.06621 0.33255 0.93968 0.0
C145 C 1.0345 0.30581 0.90625 0.0
C146 C 0.96479 0.2964 0.89919 0.0
H147 H 1.07347 0.51142 0.37121 0.0
H148 H 0.27913 0.71438 0.37174 0.0
H149 H 0.1613 0.62166 0.47029 0.0
C150 C 1.11511 0.55647 0.38619 0.0
C151 C 1.10499 0.55561 0.42343 0.0
C152 C 0.17625 0.61356 0.36733 0.0
C153 C 0.2324 0.6726 0.38648 0.0
C154 C 0.23145 0.67944 0.42373 0.0
C155 C 0.16504 0.61963 0.44194 0.0
H156 H 0.70814 0.26649 0.70721 0.0
H157 H 0.70399 1.06072 0.70927 0.0
H158 H 0.72068 0.17014 0.80755 0.0
C159 C 0.71007 0.22373 0.72261 0.0
C160 C 0.71594 0.2307 0.76004 0.0
C161 C 0.70724 0.16388 0.70423 0.0
C162 C 0.70796 0.10629 0.72379 0.0
C163 C 0.7124 0.10418 0.76108 0.0
C164 C 0.71738 0.16881 0.77907 0.0
H165 H 0.60828 0.60812 0.04154 0.0
H166 H 0.81382 0.61493 0.03639 0.0
H167 H 0.70436 0.57965 0.13798 0.0
C168 C 0.65108 0.60364 0.05538 0.0
C169 C 0.64569 0.59389 0.09254 0.0
C170 C 0.71067 0.61039 0.03537 0.0
C171 C 0.76858 0.60644 0.05288 0.0
C172 C 0.77062 0.59334 0.08995 0.0
C173 C 0.70677 0.58808 0.10969 0.0
C174 C 0.43863 0.52505 0.12633 0.0
C175 C 0.42895 0.58771 0.12514 0.0
C176 C 0.50787 0.52745 0.11881 0.0
C177 C 0.57521 0.59291 0.10969 0.0
H178 H 0.39119 0.47215 0.1325 0.0
H179 H 0.50758 0.47604 0.11895 0.0
S180 S 0.58467 0.77429 0.10167 0.0
N181 N 0.49832 0.71881 0.11344 0.0
N182 N 0.62308 0.72286 0.09942 0.0
C183 C 0.56612 0.6558 0.10858 0.0
C184 C 0.49596 0.65348 0.1163 0.0
C185 C 0.89836 0.41537 0.46185 0.0
C186 C 0.88552 0.34206 0.45808 0.0
C187 C 0.96804 0.48257 0.45323 0.0
C188 C 1.03252 0.48398 0.43971 0.0
H189 H 0.85357 0.42151 0.47156 0.0
H190 H 0.97028 0.5345 0.45632 0.0
S191 S 1.03242 0.31009 0.42277 0.0
N192 N 0.94903 0.27974 0.43867 0.0
N193 N 1.0733 0.40039 0.42242 0.0
C194 C 1.01982 0.41116 0.43568 0.0
C195 C 0.94977 0.34323 0.44482 0.0
C196 C 0.65417 0.89162 0.77558 0.0
C197 C 0.71241 0.88875 0.79372 0.0
C198 C 0.65348 0.959 0.76734 0.0
C199 C 0.70952 1.03123 0.77731 0.0
H200 H 0.6087 0.84074 0.76631 0.0
H201 H 0.60782 0.95416 0.75199 0.0
S202 S 0.87458 1.05908 0.82728 0.0
N203 N 0.82839 0.96932 0.82222 0.0
N204 N 0.82573 1.09144 0.80813 0.0
C205 C 0.76711 1.02902 0.79646 0.0
C206 C 0.76875 0.96033 0.80416 0.0
C207 C 0.95246 0.57141 0.09024 0.0
C208 C 0.98359 0.58507 0.12464 0.0
C209 C 0.88568 0.57185 0.08073 0.0
C210 C 0.84129 0.58724 0.10416 0.0
H211 H 0.98066 0.5602 0.06964 0.0
H212 H 0.86879 0.55826 0.05371 0.0
S213 S 0.89041 0.61886 0.19981 0.0
N214 N 0.95761 0.60891 0.18371 0.0
N215 N 0.83625 0.61051 0.16634 0.0
C216 C 0.87047 0.59834 0.13934 0.0
C217 C 0.93918 0.59759 0.14914 0.0
C218 C 0.44317 0.83608 0.43924 0.0
C219 C 0.44428 0.89419 0.45854 0.0
C220 C 0.37658 0.76853 0.43003 0.0
C221 C 0.30323 0.74962 0.44002 0.0
H222 H 0.495 0.84359 0.42989 0.0
H223 H 0.3831 0.7302 0.41407 0.0
S224 S 0.27037 0.87787 0.49299 0.0
N225 N 0.36064 0.92356 0.48819 0.0
N226 N 0.23996 0.79953 0.47243 0.0
C227 C 0.30356 0.80621 0.46037 0.0
C228 C 0.37153 0.87621 0.46905 0.0
C229 C 0.7832 0.44029 0.78962 0.0
C230 C 0.71876 0.44701 0.7927 0.0
C231 C 0.78236 0.372 0.78155 0.0
C232 C 0.71705 0.30231 0.77602 0.0
H233 H 0.83613 0.48916 0.79299 0.0
H234 H 0.83478 0.37474 0.77874 0.0
S235 S 0.53153 0.28442 0.7794 0.0
N236 N 0.58621 0.37173 0.78842 0.0
N237 N 0.58526 0.24942 0.77356 0.0
C238 C 0.65267 0.30852 0.77895 0.0
C239 C 0.65334 0.37763 0.78722 0.0
C240 C 0.89971 0.78918 0.49268 0.0
C241 C 0.90708 0.85851 0.49391 0.0
C242 C 0.93566 0.76845 0.51731 0.0
C243 C 0.97828 0.81566 0.54477 0.0
H244 H 0.86208 0.74919 0.47424 0.0
H245 H 0.92352 0.71228 0.51658 0.0
S246 S 1.02074 1.0069 0.55574 0.0
N247 N 0.96554 0.9776 0.52136 0.0
N248 N 1.03237 0.9381 0.56836 0.0
C249 C 0.99069 0.88742 0.54411 0.0
C250 C 0.95501 0.90888 0.51858 0.0
C251 C 0.88467 0.46281 0.87638 0.0
C252 C 0.95351 0.52517 0.86905 0.0
C253 C 0.87979 0.39971 0.89208 0.0
C254 C 0.94368 0.39846 0.90122 0.0
H255 H 0.83464 0.46339 0.87034 0.0
H256 H 0.82629 0.35258 0.89769 0.0
S257 S 1.13663 0.55002 0.88802 0.0
N258 N 1.08575 0.58252 0.8717 0.0
N259 N 1.07792 0.4663 0.90222 0.0
C260 C 1.01275 0.46117 0.89376 0.0
C261 C 1.01734 0.52405 0.87734 0.0
C262 C 0.44286 1.05197 0.23591 0.0
C263 C 0.40203 1.04404 0.20537 0.0
C264 C 0.4693 0.11442 0.25603 0.0
C265 C 0.45629 0.17183 0.24631 0.0
H266 H 0.45787 1.01139 0.24333 0.0
H267 H 0.50544 0.11997 0.27767 0.0
S268 S 0.34464 0.17275 0.1708 0.0
N269 N 0.34322 1.09408 0.16797 0.0
N270 N 0.39447 0.21341 0.20587 0.0
C271 C 0.41182 0.16246 0.21696 0.0
C272 C 0.38462 1.09831 0.19638 0.0
C273 C 0.8387 0.47723 0.5564 0.0
C274 C 0.77599 0.48286 0.54931 0.0
C275 C 0.90175 0.53601 0.57093 0.0
C276 C 0.90283 0.60107 0.57888 0.0
H277 H 0.83897 0.42738 0.55046 0.0
H278 H 0.94941 0.53057 0.57609 0.0
S279 S 0.74999 0.64015 0.5656 0.0
N280 N 0.71757 0.55626 0.55131 0.0
N281 N 0.83414 0.66636 0.57878 0.0
C282 C 0.83946 0.60632 0.57182 0.0
C283 C 0.77641 0.54718 0.55693 0.0
C284 C 1.14261 0.39746 0.82357 0.0
C285 C 0.20441 0.39033 0.82827 0.0
C286 C 1.08284 0.36137 0.8465 0.0
C287 C 1.08407 0.3189 0.87568 0.0
H288 H 1.1427 0.43524 0.80377 0.0
H289 H 1.03918 0.37372 0.84316 0.0
S290 S 0.23049 0.27515 0.89496 0.0
N291 N 0.26104 0.33108 0.86025 0.0
N292 N 1.1487 0.26364 0.90407 0.0
C293 C 1.14307 0.30593 0.87819 0.0
C294 C 0.20346 0.34189 0.85439 0.0
C295 C 0.81643 0.40258 0.20776 0.0
C296 C 0.80863 0.33677 0.19518 0.0
C297 C 0.75609 0.40528 0.22111 0.0
C298 C 0.68622 0.34226 0.2221 0.0
H299 H 0.87023 0.45125 0.20901 0.0
H300 H 0.76503 0.4552 0.23316 0.0
S301 S 0.63692 0.15807 0.18915 0.0
N302 N 0.72599 0.20912 0.18187 0.0
N303 N 0.61213 0.21328 0.20667 0.0
C304 C 0.67709 0.27759 0.20683 0.0
C305 C 0.73856 0.27502 0.19344 0.0
C306 C 1.11483 0.52688 0.01847 0.0
C307 C 0.15604 0.51443 0.04392 0.0
C308 C 1.07547 0.47513 0.99288 0.0
C309 C 1.07444 0.40783 0.99187 0.0
H310 H 1.11218 0.57682 0.01845 0.0
H311 H 1.04561 0.48846 0.97363 0.0
S312 S 0.17765 0.3507 0.05123 0.0
N313 N 0.19767 0.43213 0.06545 0.0
N314 N 1.12167 0.3335 0.01749 0.0
C315 C 1.11737 0.39557 0.01647 0.0
C316 C 0.15839 0.44901 0.04252 0.0
C317 C 0.59203 0.17615 0.38798 0.0
C318 C 0.65185 0.16519 0.38322 0.0
C319 C 0.57979 0.22136 0.36503 0.0
C320 C 0.62324 0.25272 0.33465 0.0
H321 H 0.55448 0.15021 0.40992 0.0
H322 H 0.53391 0.22937 0.37045 0.0
S323 S 0.77906 0.22802 0.30691 0.0
N324 N 0.75273 0.18481 0.34545 0.0
N325 N 0.72404 0.2611 0.29907 0.0
C326 C 0.6814 0.23862 0.32861 0.0
C327 C 0.69651 0.19628 0.35343 0.0
C328 C 0.7687 0.63873 0.68963 0.0
C329 C 0.77574 0.69254 0.71286 0.0
C330 C 0.82363 0.65348 0.66509 0.0
C331 C 0.88853 0.72262 0.66284 0.0
H332 H 0.72108 0.58409 0.69084 0.0
H333 H 0.81474 0.60962 0.64779 0.0
S334 S 0.93011 0.88456 0.71573 0.0
N335 N 0.84933 0.8196 0.73055 0.0
N336 N 0.95384 0.8469 0.68447 0.0
C337 C 0.89476 0.77802 0.6849 0.0
C338 C 0.83818 0.76306 0.70992 0.0
C339 C 0.63042 0.15258 0.60986 0.0
C340 C 0.67528 0.13791 0.58758 0.0
C341 C 0.64277 0.16353 0.64667 0.0
C342 C 0.69968 0.15865 0.66394 0.0
H343 H 0.58438 0.15533 0.5988 0.0
H344 H 0.60563 0.17368 0.66197 0.0
S345 S 0.83412 0.12201 0.61871 0.0
N346 N 0.78075 0.12087 0.58631 0.0
N347 N 0.8026 0.13882 0.65506 0.0
C348 C 0.74536 0.14432 0.64206 0.0
C349 C 0.73369 0.1348 0.60427 0.0
C350 C 0.66075 0.59328 0.93513 0.0
C351 C 0.72189 0.65442 0.9191 0.0
C352 C 0.65673 0.5796 0.97237 0.0
C353 C 0.71439 0.62525 0.99548 0.0
H354 H 0.61495 0.55641 0.91891 0.0
H355 H 0.60817 0.5323 0.98313 0.0
S356 S 0.88684 0.79246 0.96767 0.0
N357 N 0.84148 0.76122 0.93051 0.0
N358 N 0.83399 0.73473 -0.00111 0.0
C359 C 0.77568 0.68594 0.97969 0.0
C360 C 0.77937 0.70058 0.94217 0.0
C361 C 0.18566 0.54192 0.27481 0.0
C362 C 0.2014 0.60024 0.25062 0.0
C363 C 0.17609 0.54617 0.31161 0.0
C364 C 0.18344 0.6098 0.32711 0.0
H365 H 0.18032 0.49151 0.26521 0.0
H366 H 0.16442 0.49927 0.32827 0.0
S367 S 0.22293 0.77883 0.27657 0.0
N368 N 0.22137 0.72368 0.24578 0.0
N369 N 0.20656 0.73296 0.31442 0.0
C370 C 0.19903 0.66876 0.30336 0.0
C371 C 0.20698 0.66367 0.26556 0.0
loop_
_geom_bond_atom_site_label_1
_geom_bond_atom_site_label_2
_geom_bond_distance
_geom_bond_site_symmetry_2
_ccdc_geom_bond_type
C0 Eu1 2.835 . S
C0 C2 1.500 . S
C0 O20 1.257 . S
C0 O21 1.260 . S
Eu1 C0 2.835 . S
Eu1 O20 2.473 . S
Eu1 O21 2.480 . S
Eu1 O22 2.430 . S
Eu1 O23 2.670 1_655 S
Eu1 O24 2.394 . S
Eu1 O29 2.355 1_655 S
Eu1 O31 2.374 1_655 S
C2 C0 1.500 . S
C2 C3 1.377 . S
C2 C7 1.377 . S
C3 C2 1.377 . S
C3 C4 1.395 . S
C3 H32 0.931 . S
C4 C3 1.395 . S
C4 C5 1.383 . S
C4 H33 0.931 . S
C5 C4 1.383 . S
C5 C6 1.394 . S
C6 C5 1.394 . S
C6 C7 1.378 . S
C6 H34 0.931 . S
C7 C2 1.377 . S
C7 C6 1.378 . S
C7 H35 0.931 . S
C8 O22 1.259 1_455 S
C8 O23 1.270 . S
C9 O24 1.251 . S
C9 O25 1.251 . S
C10 Eu11 2.835 . S
C10 C12 1.500 . S
C10 O26 1.257 . S
C10 O27 1.260 . S
Eu11 C10 2.835 . S
Eu11 O23 2.355 . S
Eu11 O25 2.374 1_455 S
Eu11 O26 2.473 . S
Eu11 O27 2.480 . S
Eu11 O28 2.430 . S
Eu11 O29 2.670 . S
Eu11 O30 2.394 . S
C12 C10 1.500 . S
C12 C13 1.377 . S
C12 C17 1.377 . S
C13 C12 1.377 . S
C13 C14 1.395 . S
C13 H36 0.931 . S
C14 C13 1.395 . S
C14 C15 1.383 . S
C14 H37 0.931 . S
C15 C14 1.383 . S
C15 C16 1.394 . S
C16 C15 1.394 . S
C16 C17 1.378 . S
C16 H38 0.931 . S
C17 C12 1.377 . S
C17 C16 1.378 . S
C17 H39 0.931 . S
C18 O28 1.259 . S
C18 O29 1.270 . S
C19 O30 1.251 . S
C19 O31 1.251 . S
O20 C0 1.257 . S
O20 Eu1 2.473 . S
O21 C0 1.260 . S
O21 Eu1 2.480 . S
O22 Eu1 2.430 . S
O22 C8 1.259 1_655 S
O23 Eu1 2.670 1_455 S
O23 C8 1.270 . S
O23 Eu11 2.355 . S
O24 Eu1 2.394 . S
O24 C9 1.251 . S
O25 C9 1.251 . S
O25 Eu11 2.374 1_655 S
O26 C10 1.257 . S
O26 Eu11 2.473 . S
O27 C10 1.260 . S
O27 Eu11 2.480 . S
O28 Eu11 2.430 . S
O28 C18 1.259 . S
O29 Eu1 2.355 1_455 S
O29 Eu11 2.670 . S
O29 C18 1.270 . S
O30 Eu11 2.394 . S
O30 C19 1.251 . S
O31 Eu1 2.374 1_455 S
O31 C19 1.251 . S
H32 C3 0.931 . S
H33 C4 0.931 . S
H34 C6 0.931 . S
H35 C7 0.931 . S
H36 C13 0.931 . S
H37 C14 0.931 . S
H38 C16 0.931 . S
H39 C17 0.931 . S
C40 Eu41 2.835 . S
C40 C42 1.500 . S
C40 O60 1.257 . S
C40 O61 1.260 . S
Eu41 C40 2.835 . S
Eu41 O60 2.473 . S
Eu41 O61 2.480 . S
Eu41 O62 2.430 . S
Eu41 O63 2.670 . S
Eu41 O64 2.394 . S
Eu41 O69 2.355 . S
Eu41 O71 2.374 1_545 S
C42 C40 1.500 . S
C42 C43 1.377 . S
C42 C47 1.377 . S
C43 C42 1.377 . S
C43 C44 1.395 . S
C43 H72 0.931 . S
C44 C43 1.395 . S
C44 C45 1.383 . S
C44 H73 0.931 . S
C45 C44 1.383 . S
C45 C46 1.394 . S
C46 C45 1.394 . S
C46 C47 1.378 . S
C46 H74 0.931 . S
C47 C42 1.377 . S
C47 C46 1.378 . S
C47 H75 0.931 . S
C48 O62 1.259 . S
C48 O63 1.270 . S
C49 O64 1.251 . S
C49 O65 1.251 . S
C50 Eu51 2.835 . S
C50 C52 1.500 . S
C50 O66 1.257 . S
C50 O67 1.260 . S
Eu51 C50 2.835 . S
Eu51 O63 2.355 1_565 S
Eu51 O65 2.374 1_565 S
Eu51 O66 2.473 . S
Eu51 O67 2.480 . S
Eu51 O68 2.430 . S
Eu51 O69 2.670 1_565 S
Eu51 O70 2.394 . S
C52 C50 1.500 . S
C52 C53 1.377 . S
C52 C57 1.377 . S
C53 C52 1.377 . S
C53 C54 1.395 . S
C53 H76 0.931 . S
C54 C53 1.395 . S
C54 C55 1.383 . S
C54 H77 0.931 . S
C55 C54 1.383 . S
C55 C56 1.394 . S
C56 C55 1.394 . S
C56 C57 1.378 . S
C56 H78 0.931 . S
C57 C52 1.377 . S
C57 C56 1.378 . S
C57 H79 0.931 . S
C58 O68 1.259 1_545 S
C58 O69 1.270 . S
C59 O70 1.251 . S
C59 O71 1.251 . S
O60 C40 1.257 . S
O60 Eu41 2.473 . S
O61 C40 1.260 . S
O61 Eu41 2.480 . S
O62 Eu41 2.430 . S
O62 C48 1.259 . S
O63 Eu41 2.670 . S
O63 C48 1.270 . S
O63 Eu51 2.355 1_545 S
O64 Eu41 2.394 . S
O64 C49 1.251 . S
O65 C49 1.251 . S
O65 Eu51 2.374 1_545 S
O66 C50 1.257 . S
O66 Eu51 2.473 . S
O67 C50 1.260 . S
O67 Eu51 2.480 . S
O68 Eu51 2.430 . S
O68 C58 1.259 1_565 S
O69 Eu41 2.355 . S
O69 Eu51 2.670 1_545 S
O69 C58 1.270 . S
O70 Eu51 2.394 . S
O70 C59 1.251 . S
O71 Eu41 2.374 1_565 S
O71 C59 1.251 . S
H72 C43 0.931 . S
H73 C44 0.931 . S
H74 C46 0.931 . S
H75 C47 0.931 . S
H76 C53 0.931 . S
H77 C54 0.931 . S
H78 C56 0.931 . S
H79 C57 0.931 . S
C80 Eu81 2.835 . S
C80 C82 1.500 . S
C80 O100 1.257 . S
C80 O101 1.260 . S
Eu81 C80 2.835 . S
Eu81 O100 2.473 . S
Eu81 O101 2.480 . S
Eu81 O102 2.430 . S
Eu81 O103 2.670 . S
Eu81 O104 2.394 . S
Eu81 O109 2.355 . S
Eu81 O111 2.374 . S
C82 C80 1.500 . S
C82 C83 1.377 . S
C82 C87 1.377 . S
C83 C82 1.377 . S
C83 C84 1.395 . S
C83 H112 0.931 . S
C84 C83 1.395 . S
C84 C85 1.383 . S
C84 H113 0.931 . S
C85 C84 1.383 . S
C85 C86 1.394 . S
C86 C85 1.394 . S
C86 C87 1.378 . S
C86 H114 0.931 . S
C87 C82 1.377 . S
C87 C86 1.378 . S
C87 H115 0.931 . S
C88 O102 1.259 . S
C88 O103 1.270 . S
C89 O104 1.251 . S
C89 O105 1.251 . S
C90 Eu91 2.835 . S
C90 C92 1.500 . S
C90 O106 1.257 . S
C90 O107 1.260 . S
Eu91 C90 2.835 . S
Eu91 O103 2.355 . S
Eu91 O105 2.374 . S
Eu91 O106 2.473 . S
Eu91 O107 2.480 . S
Eu91 O108 2.430 . S
Eu91 O109 2.670 . S
Eu91 O110 2.394 . S
C92 C90 1.500 . S
C92 C93 1.377 . S
C92 C97 1.377 . S
C93 C92 1.377 . S
C93 C94 1.395 . S
C93 H116 0.931 . S
C94 C93 1.395 . S
C94 C95 1.383 . S
C94 H117 0.931 . S
C95 C94 1.383 . S
C95 C96 1.394 . S
C96 C95 1.394 . S
C96 C97 1.378 . S
C96 H118 0.931 . S
C97 C92 1.377 . S
C97 C96 1.378 . S
C97 H119 0.931 . S
C98 O108 1.259 . S
C98 O109 1.270 . S
C99 O110 1.251 . S
C99 O111 1.251 . S
O100 C80 1.257 . S
O100 Eu81 2.473 . S
O101 C80 1.260 . S
O101 Eu81 2.480 . S
O102 Eu81 2.430 . S
O102 C88 1.259 . S
O103 Eu81 2.670 . S
O103 C88 1.270 . S
O103 Eu91 2.355 . S
O104 Eu81 2.394 . S
O104 C89 1.251 . S
O105 C89 1.251 . S
O105 Eu91 2.374 . S
O106 C90 1.257 . S
O106 Eu91 2.473 . S
O107 C90 1.260 . S
O107 Eu91 2.480 . S
O108 Eu91 2.430 . S
O108 C98 1.259 . S
O109 Eu81 2.355 . S
O109 Eu91 2.670 . S
O109 C98 1.270 . S
O110 Eu91 2.394 . S
O110 C99 1.251 . S
O111 Eu81 2.374 . S
O111 C99 1.251 . S
H112 C83 0.931 . S
H113 C84 0.931 . S
H114 C86 0.931 . S
H115 C87 0.931 . S
H116 C93 0.931 . S
H117 C94 0.931 . S
H118 C96 0.931 . S
H119 C97 0.931 . S
H120 C123 0.931 1_565 S
H121 C126 0.928 . S
H122 C128 0.930 . S
C123 H120 0.931 1_545 S
C123 C124 1.413 . S
C123 C125 1.360 . S
C124 C123 1.413 . S
C124 C128 1.429 . S
C125 C123 1.360 . S
C125 C126 1.372 . S
C126 H121 0.928 . S
C126 C125 1.372 . S
C126 C127 1.404 . S
C127 C126 1.404 . S
C127 C128 1.391 . S
C128 H122 0.930 . S
C128 C124 1.429 . S
C128 C127 1.391 . S
H129 C132 0.931 . S
H130 C135 0.928 . S
H131 C137 0.930 . S
C132 H129 0.931 . S
C132 C133 1.413 . S
C132 C134 1.360 . S
C133 C132 1.413 . S
C133 C137 1.429 . S
C134 C132 1.360 . S
C134 C135 1.372 . S
C135 H130 0.928 . S
C135 C134 1.372 . S
C135 C136 1.404 . S
C136 C135 1.404 . S
C136 C137 1.391 . S
C137 H131 0.930 . S
C137 C133 1.429 . S
C137 C136 1.391 . S
H138 C141 0.931 . S
H139 C144 0.928 . S
H140 C146 0.930 . S
C141 H138 0.931 . S
C141 C142 1.413 . S
C141 C143 1.360 1_655 S
C142 C141 1.413 . S
C142 C146 1.429 1_655 S
C143 C141 1.360 1_455 S
C143 C144 1.372 . S
C144 H139 0.928 . S
C144 C143 1.372 . S
C144 C145 1.404 . S
C145 C144 1.404 . S
C145 C146 1.391 . S
C146 H140 0.930 . S
C146 C142 1.429 1_455 S
C146 C145 1.391 . S
H147 C150 0.931 1_655 S
H148 C153 0.928 . S
H149 C155 0.930 . S
C150 H147 0.931 1_455 S
C150 C151 1.413 . S
C150 C152 1.360 . S
C151 C150 1.413 . S
C151 C155 1.429 . S
C152 C150 1.360 . S
C152 C153 1.372 . S
C153 H148 0.928 . S
C153 C152 1.372 . S
C153 C154 1.404 . S
C154 C153 1.404 . S
C154 C155 1.391 . S
C155 H149 0.930 . S
C155 C151 1.429 . S
C155 C154 1.391 . S
H156 C159 0.931 . S
H157 C162 0.928 . S
H158 C164 0.930 . S
C159 H156 0.931 . S
C159 C160 1.413 . S
C159 C161 1.360 . S
C160 C159 1.413 . S
C160 C164 1.429 . S
C161 C159 1.360 . S
C161 C162 1.372 1_545 S
C162 H157 0.928 . S
C162 C161 1.372 1_565 S
C162 C163 1.404 . S
C163 C162 1.404 . S
C163 C164 1.391 1_565 S
C164 H158 0.930 . S
C164 C160 1.429 . S
C164 C163 1.391 1_545 S
H165 C168 0.931 . S
H166 C171 0.928 . S
H167 C173 0.930 . S
C168 H165 0.931 . S
C168 C169 1.413 . S
C168 C170 1.360 . S
C169 C168 1.413 . S
C169 C173 1.429 . S
C170 C168 1.360 . S
C170 C171 1.372 . S
C171 H166 0.928 . S
C171 C170 1.372 . S
C171 C172 1.404 . S
C172 C171 1.404 . S
C172 C173 1.391 . S
C173 H167 0.930 . S
C173 C169 1.429 . S
C173 C172 1.391 . S
C174 C175 1.369 . S
C174 C176 1.419 . S
C174 H178 0.930 . S
C175 C174 1.369 . S
C175 C184 1.429 . S
C176 C174 1.419 . S
C176 C177 1.363 . S
C176 H179 0.929 . S
C177 C176 1.363 . S
C177 C183 1.428 . S
H178 C174 0.930 . S
H179 C176 0.929 . S
S180 N181 1.613 . S
S180 N182 1.610 . S
N181 S180 1.613 . S
N181 C184 1.350 . S
N182 S180 1.610 . S
N182 C183 1.351 . S
C183 C177 1.428 . S
C183 N182 1.351 . S
C183 C184 1.434 . S
C184 C175 1.429 . S
C184 N181 1.350 . S
C184 C183 1.434 . S
C185 C186 1.369 . S
C185 C187 1.419 . S
C185 H189 0.930 . S
C186 C185 1.369 . S
C186 C195 1.429 . S
C187 C185 1.419 . S
C187 C188 1.363 . S
C187 H190 0.929 . S
C188 C187 1.363 . S
C188 C194 1.428 . S
H189 C185 0.930 . S
H190 C187 0.929 . S
S191 N192 1.613 . S
S191 N193 1.610 . S
N192 S191 1.613 . S
N192 C195 1.350 . S
N193 S191 1.610 . S
N193 C194 1.351 . S
C194 C188 1.428 . S
C194 N193 1.351 . S
C194 C195 1.434 . S
C195 C186 1.429 . S
C195 N192 1.350 . S
C195 C194 1.434 . S
C196 C197 1.369 . S
C196 C198 1.419 . S
C196 H200 0.930 . S
C197 C196 1.369 . S
C197 C206 1.429 . S
C198 C196 1.419 . S
C198 C199 1.363 . S
C198 H201 0.929 . S
C199 C198 1.363 . S
C199 C205 1.428 . S
H200 C196 0.930 . S
H201 C198 0.929 . S
S202 N203 1.613 . S
S202 N204 1.610 . S
N203 S202 1.613 . S
N203 C206 1.350 . S
N204 S202 1.610 . S
N204 C205 1.351 . S
C205 C199 1.428 . S
C205 N204 1.351 . S
C205 C206 1.434 . S
C206 C197 1.429 . S
C206 N203 1.350 . S
C206 C205 1.434 . S
C207 C208 1.369 . S
C207 C209 1.419 . S
C207 H211 0.930 . S
C208 C207 1.369 . S
C208 C217 1.429 . S
C209 C207 1.419 . S
C209 C210 1.363 . S
C209 H212 0.929 . S
C210 C209 1.363 . S
C210 C216 1.428 . S
H211 C207 0.930 . S
H212 C209 0.929 . S
S213 N214 1.613 . S
S213 N215 1.610 . S
N214 S213 1.613 . S
N214 C217 1.350 . S
N215 S213 1.610 . S
N215 C216 1.351 . S
C216 C210 1.428 . S
C216 N215 1.351 . S
C216 C217 1.434 . S
C217 C208 1.429 . S
C217 N214 1.350 . S
C217 C216 1.434 . S
C218 C219 1.369 . S
C218 C220 1.419 . S
C218 H222 0.930 . S
C219 C218 1.369 . S
C219 C228 1.429 . S
C220 C218 1.419 . S
C220 C221 1.363 . S
C220 H223 0.929 . S
C221 C220 1.363 . S
C221 C227 1.428 . S
H222 C218 0.930 . S
H223 C220 0.929 . S
S224 N225 1.613 . S
S224 N226 1.610 . S
N225 S224 1.613 . S
N225 C228 1.350 . S
N226 S224 1.610 . S
N226 C227 1.351 . S
C227 C221 1.428 . S
C227 N226 1.351 . S
C227 C228 1.434 . S
C228 C219 1.429 . S
C228 N225 1.350 . S
C228 C227 1.434 . S
C229 C230 1.369 . S
C229 C231 1.419 . S
C229 H233 0.930 . S
C230 C229 1.369 . S
C230 C239 1.429 . S
C231 C229 1.419 . S
C231 C232 1.363 . S
C231 H234 0.929 . S
C232 C231 1.363 . S
C232 C238 1.428 . S
H233 C229 0.930 . S
H234 C231 0.929 . S
S235 N236 1.613 . S
S235 N237 1.610 . S
N236 S235 1.613 . S
N236 C239 1.350 . S
N237 S235 1.610 . S
N237 C238 1.351 . S
C238 C232 1.428 . S
C238 N237 1.351 . S
C238 C239 1.434 . S
C239 C230 1.429 . S
C239 N236 1.350 . S
C239 C238 1.434 . S
C240 C241 1.369 . S
C240 C242 1.419 . S
C240 H244 0.930 . S
C241 C240 1.369 . S
C241 C250 1.429 . S
C242 C240 1.419 . S
C242 C243 1.363 . S
C242 H245 0.929 . S
C243 C242 1.363 . S
C243 C249 1.428 . S
H244 C240 0.930 . S
H245 C242 0.929 . S
S246 N247 1.613 . S
S246 N248 1.610 . S
N247 S246 1.613 . S
N247 C250 1.350 . S
N248 S246 1.610 . S
N248 C249 1.351 . S
C249 C243 1.428 . S
C249 N248 1.351 . S
C249 C250 1.434 . S
C250 C241 1.429 . S
C250 N247 1.350 . S
C250 C249 1.434 . S
C251 C252 1.369 . S
C251 C253 1.419 . S
C251 H255 0.930 . S
C252 C251 1.369 . S
C252 C261 1.429 . S
C253 C251 1.419 . S
C253 C254 1.363 . S
C253 H256 0.929 . S
C254 C253 1.363 . S
C254 C260 1.428 . S
H255 C251 0.930 . S
H256 C253 0.929 . S
S257 N258 1.613 . S
S257 N259 1.610 . S
N258 S257 1.613 . S
N258 C261 1.350 . S
N259 S257 1.610 . S
N259 C260 1.351 . S
C260 C254 1.428 . S
C260 N259 1.351 . S
C260 C261 1.434 . S
C261 C252 1.429 . S
C261 N258 1.350 . S
C261 C260 1.434 . S
C262 C263 1.369 . S
C262 C264 1.419 . S
C262 H266 0.930 . S
C263 C262 1.369 . S
C263 C272 1.429 . S
C264 C262 1.419 . S
C264 C265 1.363 . S
C264 H267 0.929 . S
C265 C264 1.363 . S
C265 C271 1.428 . S
H266 C262 0.930 . S
H267 C264 0.929 . S
S268 N269 1.613 1_545 S
S268 N270 1.610 . S
N269 S268 1.613 1_565 S
N269 C272 1.350 . S
N270 S268 1.610 . S
N270 C271 1.351 1_545 S
C271 C265 1.428 . S
C271 N270 1.351 1_565 S
C271 C272 1.434 . S
C272 C263 1.429 . S
C272 N269 1.350 . S
C272 C271 1.434 . S
C273 C274 1.369 . S
C273 C275 1.419 . S
C273 H277 0.930 . S
C274 C273 1.369 . S
C274 C283 1.429 . S
C275 C273 1.419 . S
C275 C276 1.363 . S
C275 H278 0.929 . S
C276 C275 1.363 . S
C276 C282 1.428 . S
H277 C273 0.930 . S
H278 C275 0.929 . S
S279 N280 1.613 . S
S279 N281 1.610 . S
N280 S279 1.613 . S
N280 C283 1.350 . S
N281 S279 1.610 . S
N281 C282 1.351 . S
C282 C276 1.428 . S
C282 N281 1.351 . S
C282 C283 1.434 . S
C283 C274 1.429 . S
C283 N280 1.350 . S
C283 C282 1.434 . S
C284 C285 1.369 . S
C284 C286 1.419 . S
C284 H288 0.930 . S
C285 C284 1.369 . S
C285 C294 1.429 . S
C286 C284 1.419 . S
C286 C287 1.363 . S
C286 H289 0.929 . S
C287 C286 1.363 . S
C287 C293 1.428 . S
H288 C284 0.930 . S
H289 C286 0.929 . S
S290 N291 1.613 . S
S290 N292 1.610 . S
N291 S290 1.613 . S
N291 C294 1.350 . S
N292 S290 1.610 . S
N292 C293 1.351 . S
C293 C287 1.428 . S
C293 N292 1.351 . S
C293 C294 1.434 . S
C294 C285 1.429 . S
C294 N291 1.350 . S
C294 C293 1.434 . S
C295 C296 1.369 . S
C295 C297 1.419 . S
C295 H299 0.930 . S
C296 C295 1.369 . S
C296 C305 1.429 . S
C297 C295 1.419 . S
C297 C298 1.363 . S
C297 H300 0.929 . S
C298 C297 1.363 . S
C298 C304 1.428 . S
H299 C295 0.930 . S
H300 C297 0.929 . S
S301 N302 1.613 . S
S301 N303 1.610 . S
N302 S301 1.613 . S
N302 C305 1.350 . S
N303 S301 1.610 . S
N303 C304 1.351 . S
C304 C298 1.428 . S
C304 N303 1.351 . S
C304 C305 1.434 . S
C305 C296 1.429 . S
C305 N302 1.350 . S
C305 C304 1.434 . S
C306 C307 1.369 1_655 S
C306 C308 1.419 . S
C306 H310 0.930 . S
C307 C306 1.369 1_455 S
C307 C316 1.429 . S
C308 C306 1.419 . S
C308 C309 1.363 1_654 S
C308 H311 0.929 1_554 S
C309 C308 1.363 1_456 S
C309 C315 1.428 1_556 S
H310 C306 0.930 . S
H311 C308 0.929 1_556 S
S312 N313 1.613 . S
S312 N314 1.610 . S
N313 S312 1.613 . S
N313 C316 1.350 . S
N314 S312 1.610 . S
N314 C315 1.351 . S
C315 C309 1.428 1_554 S
C315 N314 1.351 . S
C315 C316 1.434 . S
C316 C307 1.429 . S
C316 N313 1.350 . S
C316 C315 1.434 . S
C317 C318 1.369 . S
C317 C319 1.419 . S
C317 H321 0.930 . S
C318 C317 1.369 . S
C318 C327 1.429 . S
C319 C317 1.419 . S
C319 C320 1.363 . S
C319 H322 0.929 . S
C320 C319 1.363 . S
C320 C326 1.428 . S
H321 C317 0.930 . S
H322 C319 0.929 . S
S323 N324 1.613 . S
S323 N325 1.610 . S
N324 S323 1.613 . S
N324 C327 1.350 1_565 S
N325 S323 1.610 . S
N325 C326 1.351 1_565 S
C326 C320 1.428 . S
C326 N325 1.351 1_545 S
C326 C327 1.434 . S
C327 C318 1.429 . S
C327 N324 1.350 1_545 S
C327 C326 1.434 . S
C328 C329 1.369 . S
C328 C330 1.419 . S
C328 H332 0.930 . S
C329 C328 1.369 . S
C329 C338 1.429 . S
C330 C328 1.419 . S
C330 C331 1.363 . S
C330 H333 0.929 . S
C331 C330 1.363 . S
C331 C337 1.428 . S
H332 C328 0.930 . S
H333 C330 0.929 . S
S334 N335 1.613 . S
S334 N336 1.610 . S
N335 S334 1.613 . S
N335 C338 1.350 . S
N336 S334 1.610 . S
N336 C337 1.351 . S
C337 C331 1.428 . S
C337 N336 1.351 . S
C337 C338 1.434 . S
C338 C329 1.429 . S
C338 N335 1.350 . S
C338 C337 1.434 . S
C339 C340 1.369 . S
C339 C341 1.419 . S
C339 H343 0.930 . S
C340 C339 1.369 . S
C340 C349 1.429 1_545 S
C341 C339 1.419 . S
C341 C342 1.363 . S
C341 H344 0.929 . S
C342 C341 1.363 . S
C342 C348 1.428 1_545 S
H343 C339 0.930 . S
H344 C341 0.929 . S
S345 N346 1.613 . S
S345 N347 1.610 . S
N346 S345 1.613 . S
N346 C349 1.350 . S
N347 S345 1.610 . S
N347 C348 1.351 . S
C348 C342 1.428 1_565 S
C348 N347 1.351 . S
C348 C349 1.434 . S
C349 C340 1.429 1_565 S
C349 N346 1.350 . S
C349 C348 1.434 . S
C350 C351 1.369 . S
C350 C352 1.419 . S
C350 H354 0.930 . S
C351 C350 1.369 . S
C351 C360 1.429 . S
C352 C350 1.419 . S
C352 C353 1.363 1_556 S
C352 H355 0.914 1_556 S
C353 C352 1.363 1_554 S
C353 C359 1.428 1_554 S
H354 C350 0.930 . S
H355 C352 0.914 1_554 S
S356 N357 1.613 . S
S356 N358 1.612 1_556 S
N357 S356 1.613 . S
N357 C360 1.350 . S
N358 S356 1.612 1_554 S
N358 C359 1.352 1_554 S
C359 C353 1.428 1_556 S
C359 N358 1.352 1_556 S
C359 C360 1.434 . S
C360 C351 1.429 . S
C360 N357 1.350 . S
C360 C359 1.434 . S
C361 C362 1.369 . S
C361 C363 1.419 . S
C361 H365 0.930 1_455 S
C362 C361 1.369 . S
C362 C371 1.429 . S
C363 C361 1.419 . S
C363 C364 1.363 . S
C363 H366 0.929 1_455 S
C364 C363 1.363 . S
C364 C370 1.428 . S
H365 C361 0.930 1_655 S
H366 C363 0.929 1_655 S
S367 N368 1.613 . S
S367 N369 1.610 . S
N368 S367 1.613 . S
N368 C371 1.350 . S
N369 S367 1.610 . S
N369 C370 1.351 . S
C370 C364 1.428 . S
C370 N369 1.351 . S
C370 C371 1.434 . S
C371 C362 1.429 . S
C371 N368 1.350 . S
C371 C370 1.434 . S
C175 C19 2.949 . S
C177 C169 2.954 . S
C186 C49 3.040 . S
C188 C151 3.012 1_655 S
C197 C99 2.939 . S
C199 C163 2.933 . S
C208 C9 3.029 . S
C210 C172 2.993 . S
C221 C154 2.933 . S
C219 C59 2.939 . S
C232 C160 3.014 . S
C230 C89 3.040 . S
C241 C55 0.921 . S
C243 C133 0.971 . S
C252 C85 0.958 . S
C254 C142 1.108 . S
C263 C15 0.921 . S
C265 C124 0.968 1_565 S
C276 C136 1.109 . S
C274 C45 0.946 . S
C287 C145 0.967 . S
C285 C95 0.903 . S
C296 C5 0.953 . S
C298 C127 1.106 . S
C309 C143 0.883 . S
C307 C18 0.882 . S
C318 C58 0.878 . S
C320 C125 0.881 . S
C329 C98 0.884 . S
C331 C134 0.886 . S
C342 C161 1.847 . S
C340 C48 1.746 . S
C353 C170 1.846 . S
C351 C88 1.742 . S
C362 C8 1.746 . S
C364 C152 1.848 . S
