# Generated by pormake.
# Topology pyr, (3,6)-cn, num edge types: 1
# Building blocks:
#     Node 0, Type 0, BuildingBlock: BETDAH_clean_linker_0, # of connection points: 3
#     Node 1, Type 0, BuildingBlock: BETDAH_clean_linker_0, # of connection points: 3
#     Node 2, Type 0, BuildingBlock: BETDAH_clean_linker_0, # of connection points: 3
#     Node 3, Type 0, BuildingBlock: BETDAH_clean_linker_0, # of connection points: 3
#     Node 4, Type 0, BuildingBlock: BETDAH_clean_linker_0, # of connection points: 3
#     Node 5, Type 0, BuildingBlock: BETDAH_clean_linker_0, # of connection points: 3
#     Node 6, Type 0, BuildingBlock: BETDAH_clean_linker_0, # of connection points: 3
#     Node 7, Type 0, BuildingBlock: BETDAH_clean_linker_0, # of connection points: 3
#     Node 8, Type 1, BuildingBlock: BETDEL_clean_sbu_0, # of connection points: 6
#     Node 9, Type 1, BuildingBlock: BETDEL_clean_sbu_0, # of connection points: 6
#     Node 10, Type 1, BuildingBlock: BETDEL_clean_sbu_0, # of connection points: 6
#     Node 11, Type 1, BuildingBlock: BETDEL_clean_sbu_0, # of connection points: 6
#     Edge 12, Type (0, 1), BuildingBlock: MIFKUJ_clean_linker_0, # of connection points: 2
#     Edge 13, Type (0, 1), BuildingBlock: MIFKUJ_clean_linker_0, # of connection points: 2
#     Edge 14, Type (0, 1), BuildingBlock: MIFKUJ_clean_linker_0, # of connection points: 2
#     Edge 15, Type (0, 1), BuildingBlock: MIFKUJ_clean_linker_0, # of connection points: 2
#     Edge 16, Type (0, 1), BuildingBlock: MIFKUJ_clean_linker_0, # of connection points: 2
#     Edge 17, Type (0, 1), BuildingBlock: MIFKUJ_clean_linker_0, # of connection points: 2
#     Edge 18, Type (0, 1), BuildingBlock: MIFKUJ_clean_linker_0, # of connection points: 2
#     Edge 19, Type (0, 1), BuildingBlock: MIFKUJ_clean_linker_0, # of connection points: 2
#     Edge 20, Type (0, 1), BuildingBlock: MIFKUJ_clean_linker_0, # of connection points: 2
#     Edge 21, Type (0, 1), BuildingBlock: MIFKUJ_clean_linker_0, # of connection points: 2
#     Edge 22, Type (0, 1), BuildingBlock: MIFKUJ_clean_linker_0, # of connection points: 2
#     Edge 23, Type (0, 1), BuildingBlock: MIFKUJ_clean_linker_0, # of connection points: 2
#     Edge 24, Type (0, 1), BuildingBlock: MIFKUJ_clean_linker_0, # of connection points: 2
#     Edge 25, Type (0, 1), BuildingBlock: MIFKUJ_clean_linker_0, # of connection points: 2
#     Edge 26, Type (0, 1), BuildingBlock: MIFKUJ_clean_linker_0, # of connection points: 2
#     Edge 27, Type (0, 1), BuildingBlock: MIFKUJ_clean_linker_0, # of connection points: 2
#     Edge 28, Type (0, 1), BuildingBlock: MIFKUJ_clean_linker_0, # of connection points: 2
#     Edge 29, Type (0, 1), BuildingBlock: MIFKUJ_clean_linker_0, # of connection points: 2
#     Edge 30, Type (0, 1), BuildingBlock: MIFKUJ_clean_linker_0, # of connection points: 2
#     Edge 31, Type (0, 1), BuildingBlock: MIFKUJ_clean_linker_0, # of connection points: 2
#     Edge 32, Type (0, 1), BuildingBlock: MIFKUJ_clean_linker_0, # of connection points: 2
#     Edge 33, Type (0, 1), BuildingBlock: MIFKUJ_clean_linker_0, # of connection points: 2
#     Edge 34, Type (0, 1), BuildingBlock: MIFKUJ_clean_linker_0, # of connection points: 2
#     Edge 35, Type (0, 1), BuildingBlock: MIFKUJ_clean_linker_0, # of connection points: 2
# Relax obj value: 0.069
# Max RMSD: 0.185
# Mean RMSD: 0.134
data_MOF--net-pyr--node1-BETDEL_clean_sbu_0--node2-BETDAH_clean_linker_0--edge1-MIFKUJ_clean_linker_0
_symmetry_space_group_name_H-M    P1
_symmetry_Int_Tables_number       1
_symmetry_cell_setting            triclinic
loop_
_symmetry_equiv_pos_as_xyz
'x, y, z'
_cell_length_a     46.629774
_cell_length_b     49.297573
_cell_length_c     47.045235
_cell_angle_alpha  92.35378
_cell_angle_beta   90.156051
_cell_angle_gamma 100.805
loop_
_atom_site_label
_atom_site_type_symbol
_atom_site_fract_x
_atom_site_fract_y
_atom_site_fract_z
_atom_type_partial_charge
H0 H 0.22052 0.16875 0.22034 0.0
H1 H 0.23926 0.21925 0.14814 0.0
H2 H 0.16782 0.22945 0.20255 0.0
C3 C 0.21581 0.18526 0.20763 0.0
C4 C 0.19223 0.19836 0.21474 0.0
C5 C 0.23268 0.19247 0.18354 0.0
C6 C 0.22611 0.21323 0.16662 0.0
C7 C 0.20293 0.22661 0.17321 0.0
C8 C 0.18573 0.21907 0.19724 0.0
N9 N 0.19821 0.24764 0.15503 0.0
C10 C 0.17539 0.26213 0.15631 0.0
H11 H 0.34752 0.83173 0.7358 0.0
H12 H 0.31972 0.90808 0.71788 0.0
H13 H 0.3266 0.84906 0.65016 0.0
C14 C 0.33984 0.84511 0.72099 0.0
C15 C 0.33754 0.83707 0.69194 0.0
C16 C 0.33386 0.87086 0.73081 0.0
C17 C 0.32363 0.88781 0.71117 0.0
C18 C 0.32064 0.87968 0.68223 0.0
C19 C 0.32805 0.85465 0.67271 0.0
N20 N 0.3144 0.89823 0.66195 0.0
C21 C 0.28694 0.90489 0.65868 0.0
H22 H 0.70608 0.35364 0.92736 0.0
H23 H 0.68615 0.41489 0.8714 0.0
H24 H 0.62227 0.34213 0.88569 0.0
C25 C 0.69115 0.36074 0.91297 0.0
C26 C 0.66347 0.34439 0.90766 0.0
C27 C 0.69957 0.38629 0.90009 0.0
C28 C 0.67987 0.39536 0.88155 0.0
C29 C 0.65202 0.37917 0.87628 0.0
C30 C 0.64405 0.35405 0.88949 0.0
N31 N 0.631 0.38739 0.85832 0.0
C32 C 0.63599 0.40957 0.84056 0.0
H33 H 0.82801 0.70669 0.4364 0.0
H34 H 0.89618 0.69569 0.37777 0.0
H35 H 0.82662 0.62776 0.39352 0.0
C36 C 0.83787 0.69355 0.42187 0.0
C37 C 0.82393 0.66602 0.41646 0.0
C38 C 0.86405 0.70447 0.40818 0.0
C39 C 0.87591 0.68763 0.38826 0.0
C40 C 0.86228 0.65989 0.38311 0.0
C41 C 0.83667 0.64927 0.39741 0.0
N42 N 0.87418 0.64157 0.36462 0.0
C43 C 0.89189 0.64949 0.34161 0.0
H44 H 0.89986 0.86388 0.87261 0.0
H45 H 0.83295 0.84033 0.93427 0.0
H46 H 0.82542 0.90429 0.87713 0.0
C47 C 0.87954 0.8666 0.88242 0.0
C48 C 0.86406 0.88612 0.87193 0.0
C49 C 0.86879 0.85024 0.9052 0.0
C50 C 0.84206 0.85333 0.91724 0.0
C51 C 0.82658 0.87287 0.90754 0.0
C52 C 0.8376 0.8894 0.88491 0.0
N53 N 0.79934 0.87413 0.92035 0.0
C54 C 0.78568 0.89689 0.92128 0.0
H55 H 0.74904 0.17616 0.36959 0.0
H56 H 0.77515 0.23666 0.43784 0.0
H57 H 0.70765 0.24708 0.37934 0.0
C58 C 0.74683 0.19518 0.38101 0.0
C59 C 0.72642 0.2106 0.37139 0.0
C60 C 0.76448 0.20419 0.40511 0.0
C61 C 0.76139 0.22898 0.41954 0.0
C62 C 0.7409 0.24436 0.41067 0.0
C63 C 0.72345 0.23521 0.38645 0.0
N64 N 0.73898 0.26904 0.42662 0.0
C65 C 0.71732 0.28471 0.42378 0.0
H66 H 0.3508 0.74069 0.1642 0.0
H67 H 0.36008 0.68463 0.22991 0.0
H68 H 0.43099 0.75082 0.21221 0.0
C69 C 0.36369 0.73439 0.18107 0.0
C70 C 0.39227 0.74873 0.18623 0.0
C71 C 0.35187 0.71133 0.19675 0.0
C72 C 0.36907 0.70243 0.21783 0.0
C73 C 0.39773 0.71679 0.22329 0.0
C74 C 0.40904 0.73973 0.20749 0.0
N75 N 0.4161 0.709 0.24437 0.0
C76 C 0.40804 0.68805 0.26326 0.0
H77 H 0.19218 0.36276 0.65857 0.0
H78 H 0.17361 0.42887 0.71442 0.0
H79 H 0.10739 0.35716 0.69547 0.0
C80 C 0.17752 0.37152 0.67252 0.0
C81 C 0.14906 0.35685 0.67593 0.0
C82 C 0.18654 0.39787 0.68585 0.0
C83 C 0.16688 0.4088 0.70372 0.0
C84 C 0.13832 0.39397 0.70725 0.0
C85 C 0.12947 0.36842 0.69283 0.0
N86 N 0.11761 0.40421 0.72459 0.0
C87 C 0.12467 0.42312 0.74736 0.0
Dy88 Dy 0.02425 0.04226 0.50301 0.0
C89 C 0.97715 0.00158 0.60963 0.0
C90 C 0.04536 0.06801 0.45485 0.0
Dy91 Dy 0.99713 0.02528 0.56009 0.0
O92 O 0.06107 0.06229 0.47577 0.0
O93 O 0.01785 0.05944 0.46004 0.0
O94 O 0.05199 0.00985 0.50561 0.0
O95 O 0.04107 0.02992 0.54312 0.0
C96 C 0.05343 0.01096 0.53321 0.0
C97 C 0.96839 0.05733 0.53057 0.0
O98 O 0.02659 0.06445 0.57447 0.0
O99 O 0.03222 0.08206 0.52942 0.0
O100 O 0.96091 0.00633 0.58867 0.0
O101 O 0.00451 0.0096 0.60351 0.0
O102 O 0.96974 0.0579 0.55816 0.0
O103 O 0.9804 0.03826 0.52024 0.0
O104 O 0.99591 0.00262 0.48829 0.0
O105 O 0.98841 0.98551 0.5335 0.0
C106 C 0.03502 0.08514 0.55747 0.0
C107 C 0.9866 0.98214 0.50535 0.0
Dy108 Dy 0.53745 0.06374 0.07513 0.0
C109 C 0.4542 0.99992 0.99188 0.0
C110 C 0.56878 0.093 0.11916 0.0
Dy111 Dy 0.49277 0.03618 0.02532 0.0
O112 O 0.54965 0.07041 0.12131 0.0
O113 O 0.57094 0.09988 0.09269 0.0
O114 O 0.54342 0.02098 0.08458 0.0
O115 O 0.50299 0.02706 0.06881 0.0
C116 C 0.51747 0.00918 0.0758 0.0
C117 C 0.51956 0.08773 0.01317 0.0
O118 O 0.46244 0.05056 0.05669 0.0
O119 O 0.49657 0.07979 0.08601 0.0
O120 O 0.4512 0.02482 0.99975 0.0
O121 O 0.47825 0.99463 0.00259 0.0
O122 O 0.50093 0.0722 0.99599 0.0
O123 O 0.52193 0.0744 0.03489 0.0
O124 O 0.56855 0.05493 0.04143 0.0
O125 O 0.53515 0.02318 0.01367 0.0
C126 C 0.4693 0.0699 0.07734 0.0
C127 C 0.56232 0.03553 0.02066 0.0
Dy128 Dy 0.51259 0.51783 0.53919 0.0
C129 C 0.46712 0.6081 0.59425 0.0
C130 C 0.54294 0.48118 0.51369 0.0
Dy131 Dy 0.49459 0.56802 0.57149 0.0
O132 O 0.51661 0.4749 0.52345 0.0
O133 O 0.55265 0.50752 0.51774 0.0
O134 O 0.46591 0.49547 0.5392 0.0
O135 O 0.48204 0.52343 0.57297 0.0
C136 C 0.45949 0.50826 0.56238 0.0
C137 C 0.54791 0.5769 0.54918 0.0
O138 O 0.51452 0.55049 0.60802 0.0
O139 O 0.53709 0.51999 0.58089 0.0
O140 O 0.48768 0.61187 0.57551 0.0
O141 O 0.46161 0.58231 0.60091 0.0
O142 O 0.54157 0.58921 0.57266 0.0
O143 O 0.52526 0.56242 0.53798 0.0
O144 O 0.49414 0.53711 0.50301 0.0
O145 O 0.46739 0.5629 0.53122 0.0
C146 C 0.53279 0.53287 0.60548 0.0
C147 C 0.47379 0.55251 0.50603 0.0
Dy148 Dy 0.03033 0.53308 0.05053 0.0
C149 C 0.00497 0.6355 0.01157 0.0
C150 C 0.04923 0.4866 0.06643 0.0
Dy151 Dy 0.02311 0.58878 0.02779 0.0
O152 O 0.044 0.49213 0.04035 0.0
O153 O 0.04397 0.50629 0.0836 0.0
O154 O 0.99234 0.53391 0.0795 0.0
O155 O 0.01953 0.57104 0.06936 0.0
C156 C 0.99652 0.56073 0.08195 0.0
C157 C 0.05779 0.56162 0.99717 0.0
O158 O 0.06116 0.6034 0.05703 0.0
O159 O 0.0741 0.56028 0.05917 0.0
O160 O 0.01698 0.61919 0.99509 0.0
O161 O 0.00303 0.62645 0.03719 0.0
O162 O 0.0622 0.58839 1.00027 0.0
O163 O 0.03431 0.55104 0.00893 0.0
O164 O 0.99145 0.51798 0.02293 0.0
O165 O 0.97972 0.56119 0.01691 0.0
C166 C 0.07981 0.58747 0.06412 0.0
C167 C 0.9734 0.53377 0.01419 0.0
H168 H 0.13247 0.18892 0.21984 0.0
H169 H 0.10361 0.16894 0.26003 0.0
H170 H 0.18295 0.16748 0.3068 0.0
H171 H 0.21177 0.18771 0.2671 0.0
H172 H 0.14634 0.11737 0.3046 0.0
H173 H 0.13997 0.21262 0.32576 0.0
H174 H 0.12827 0.25797 0.31534 0.0
H175 H 0.03831 0.22037 0.30128 0.0
H176 H 0.04956 0.17471 0.31124 0.0
H177 H 0.10242 0.08636 0.44324 0.0
H178 H 0.12315 0.1099 0.40129 0.0
H179 H 0.03658 0.10591 0.36676 0.0
H180 H 0.01558 0.08246 0.4092 0.0
H181 H 0.07184 0.15665 0.35936 0.0
H182 H 0.07732 0.06196 0.34072 0.0
H183 H 0.08868 0.01645 0.35092 0.0
H184 H 0.17974 0.05245 0.35913 0.0
H185 H 0.16888 0.09828 0.34939 0.0
C186 C 0.14372 0.18489 0.23893 0.0
C187 C 0.17442 0.18961 0.24014 0.0
C188 C 0.12721 0.17339 0.26184 0.0
C189 C 0.14114 0.16655 0.28635 0.0
C190 C 0.17173 0.17233 0.288 0.0
C191 C 0.18818 0.18384 0.26525 0.0
C192 C 0.12423 0.15186 0.30969 0.0
C193 C 0.13025 0.1261 0.31674 0.0
C194 C 0.10247 0.16277 0.32485 0.0
C195 C 0.09568 0.1902 0.31891 0.0
C196 C 0.11774 0.21398 0.32019 0.0
C197 C 0.11119 0.23975 0.31442 0.0
C198 C 0.08259 0.24204 0.30756 0.0
C199 C 0.06047 0.21856 0.30654 0.0
C200 C 0.06692 0.19274 0.31227 0.0
C201 C 0.08776 0.09048 0.42674 0.0
C202 C 0.05741 0.08241 0.42935 0.0
C203 C 0.09964 0.10389 0.40273 0.0
C204 C 0.08145 0.10935 0.38068 0.0
C205 C 0.05102 0.10182 0.38348 0.0
C206 C 0.03907 0.08835 0.40762 0.0
C207 C 0.09456 0.12251 0.35469 0.0
C208 C 0.08775 0.14784 0.34705 0.0
C209 C 0.11557 0.11119 0.33882 0.0
C210 C 0.12224 0.08361 0.34453 0.0
C211 C 0.09975 0.06022 0.34491 0.0
C212 C 0.1061 0.03435 0.35058 0.0
C213 C 0.13491 0.03157 0.35573 0.0
C214 C 0.15743 0.05464 0.35516 0.0
C215 C 0.15119 0.08056 0.34953 0.0
H216 H 0.13978 0.01152 0.36012 0.0
H217 H 0.07755 0.26201 0.3031 0.0
H218 H 0.30449 0.90248 0.7658 0.0
H219 H 0.31877 0.92173 0.81372 0.0
H220 H 0.39306 0.88124 0.81197 0.0
H221 H 0.37988 0.86293 0.76392 0.0
H222 H 0.36204 0.87668 0.86428 0.0
H223 H 0.40384 0.94606 0.79811 0.0
H224 H 0.40134 0.97747 0.75909 0.0
H225 H 0.34291 0.01829 0.80782 0.0
H226 H 0.34474 0.98683 0.84699 0.0
H227 H 0.46252 0.95123 0.96636 0.0
H228 H 0.43457 0.92558 0.92648 0.0
H229 H 0.37481 0.98271 0.92994 0.0
H230 H 0.40307 0.00866 0.96941 0.0
H231 H 0.3927 0.97827 0.87839 0.0
H232 H 0.34829 0.91121 0.94343 0.0
H233 H 0.34455 0.87826 0.98193 0.0
H234 H 0.40296 0.83397 0.93752 0.0
H235 H 0.40649 0.86633 0.89842 0.0
C236 C 0.32392 0.89771 0.77554 0.0
C237 C 0.34092 0.88102 0.76084 0.0
C238 C 0.33193 0.9086 0.803 0.0
C239 C 0.35698 0.90289 0.81636 0.0
C240 C 0.3735 0.88568 0.80215 0.0
C241 C 0.36575 0.87508 0.77464 0.0
C242 C 0.36699 0.91588 0.84453 0.0
C243 C 0.36893 0.89888 0.86739 0.0
C244 C 0.37509 0.94488 0.84878 0.0
C245 C 0.37415 0.96389 0.82532 0.0
C246 C 0.39026 0.96158 0.8004 0.0
C247 C 0.389 0.97942 0.77828 0.0
C248 C 0.3719 0.99981 0.78094 0.0
C249 C 0.3561 0.00245 0.80577 0.0
C250 C 0.35725 0.98463 0.82794 0.0
C251 C 0.4431 0.95797 0.95893 0.0
C252 C 0.43507 0.98202 0.97082 0.0
C253 C 0.427 0.94321 0.93623 0.0
C254 C 0.40243 0.95211 0.92516 0.0
C255 C 0.39367 0.97543 0.938 0.0
C256 C 0.40982 0.99023 0.96059 0.0
C257 C 0.388 0.93908 0.89839 0.0
C258 C 0.38543 0.95609 0.8756 0.0
C259 C 0.37887 0.91013 0.89435 0.0
C260 C 0.37785 0.8913 0.91819 0.0
C261 C 0.36046 0.89453 0.94199 0.0
C262 C 0.35819 0.87583 0.96378 0.0
C263 C 0.37358 0.85408 0.96222 0.0
C264 C 0.39108 0.85084 0.93872 0.0
C265 C 0.39306 0.86923 0.91664 0.0
H266 H 0.37198 0.83977 0.97924 0.0
H267 H 0.37096 0.01361 0.76379 0.0
H268 H 0.61308 0.45547 0.84753 0.0
H269 H 0.6018 0.48464 0.80956 0.0
H270 H 0.6441 0.43772 0.74874 0.0
H271 H 0.65559 0.40874 0.78684 0.0
H272 H 0.65255 0.49354 0.73673 0.0
H273 H 0.57308 0.41939 0.75792 0.0
H274 H 0.53739 0.39199 0.78912 0.0
H275 H 0.50106 0.46392 0.81072 0.0
H276 H 0.53685 0.49184 0.77993 0.0
H277 H 0.57543 0.50174 0.60822 0.0
H278 H 0.59869 0.48855 0.65066 0.0
H279 H 0.54884 0.53593 0.70339 0.0
H280 H 0.52513 0.54906 0.66098 0.0
H281 H 0.54571 0.4848 0.72199 0.0
H282 H 0.62183 0.55785 0.69583 0.0
H283 H 0.65726 0.58467 0.66401 0.0
H284 H 0.69954 0.51503 0.65076 0.0
H285 H 0.66411 0.48762 0.68223 0.0
C286 C 0.62073 0.45206 0.82619 0.0
C287 C 0.63526 0.43015 0.81988 0.0
C288 C 0.61417 0.46856 0.80453 0.0
C289 C 0.62178 0.46309 0.77627 0.0
C290 C 0.63809 0.44232 0.77038 0.0
C291 C 0.64465 0.42582 0.79209 0.0
C292 C 0.60991 0.47672 0.75254 0.0
C293 C 0.62921 0.49156 0.73338 0.0
C294 C 0.57945 0.47453 0.74849 0.0
C295 C 0.55785 0.45776 0.76691 0.0
C296 C 0.55764 0.4294 0.76951 0.0
C297 C 0.53737 0.41377 0.78709 0.0
C298 C 0.51703 0.42622 0.80197 0.0
C299 C 0.51687 0.45432 0.79923 0.0
C300 C 0.53713 0.47005 0.78172 0.0
C301 C 0.5695 0.50956 0.6288 0.0
C302 C 0.54826 0.52636 0.63117 0.0
C303 C 0.58303 0.50215 0.65306 0.0
C304 C 0.57571 0.51145 0.6802 0.0
C305 C 0.55487 0.52859 0.68264 0.0
C306 C 0.54137 0.53609 0.65836 0.0
C307 C 0.5883 0.50164 0.70601 0.0
C308 C 0.56908 0.48727 0.72552 0.0
C309 C 0.6188 0.50425 0.71025 0.0
C310 C 0.64017 0.52061 0.69126 0.0
C311 C 0.63853 0.54816 0.68596 0.0
C312 C 0.65865 0.56349 0.66802 0.0
C313 C 0.68062 0.55155 0.65538 0.0
C314 C 0.68251 0.52425 0.66061 0.0
C315 C 0.66244 0.50881 0.67853 0.0
H316 H 0.69624 0.5635 0.64162 0.0
H317 H 0.50135 0.41409 0.81556 0.0
H318 H 0.88063 0.67699 0.29568 0.0
H319 H 0.90089 0.6722 0.24795 0.0
H320 H 0.95757 0.62073 0.28091 0.0
H321 H 0.93776 0.62608 0.32853 0.0
H322 H 0.9844 0.65101 0.23954 0.0
H323 H 0.88992 0.59266 0.25362 0.0
H324 H 0.83746 0.58366 0.26498 0.0
H325 H 0.8204 0.63303 0.19602 0.0
H326 H 0.87286 0.64259 0.1845 0.0
H327 H 0.95472 0.53953 0.11941 0.0
H328 H 0.93754 0.56362 0.16052 0.0
H329 H 0.99006 0.64044 0.13549 0.0
H330 H 0.00809 0.61618 0.09483 0.0
H331 H 0.90895 0.60422 0.17012 0.0
H332 H 0.01762 0.67776 0.19565 0.0
H333 H 0.07016 0.6815 0.18575 0.0
H334 H 0.05928 0.59304 0.17856 0.0
H335 H 0.0068 0.58879 0.18881 0.0
C336 C 0.89811 0.66547 0.29274 0.0
C337 C 0.90788 0.65196 0.31545 0.0
C338 C 0.90952 0.66258 0.26553 0.0
C339 C 0.93043 0.64575 0.26078 0.0
C340 C 0.94153 0.63386 0.28405 0.0
C341 C 0.93023 0.63688 0.31121 0.0
C342 C 0.9383 0.63769 0.23149 0.0
C343 C 0.9679 0.64114 0.22421 0.0
C344 C 0.91681 0.6244 0.21159 0.0
C345 C 0.8853 0.61861 0.21843 0.0
C346 C 0.87499 0.60174 0.24102 0.0
C347 C 0.84527 0.59652 0.24747 0.0
C348 C 0.82562 0.60784 0.23129 0.0
C349 C 0.83565 0.62434 0.20857 0.0
C350 C 0.86537 0.62966 0.20208 0.0
C351 C 0.96232 0.56161 0.12249 0.0
C352 C 0.98295 0.57595 0.10415 0.0
C353 C 0.95242 0.57539 0.14592 0.0
C354 C 0.96287 0.60376 0.15135 0.0
C355 C 0.9821 0.61846 0.13201 0.0
C356 C 0.99224 0.60461 0.1087 0.0
C357 C 0.95506 0.61724 0.17827 0.0
C358 C 0.92545 0.61477 0.18513 0.0
C359 C 0.97658 0.63077 0.19803 0.0
C360 C 0.00825 0.63301 0.19266 0.0
C361 C 0.02649 0.65913 0.19208 0.0
C362 C 0.05625 0.66133 0.18639 0.0
C363 C 0.06803 0.63753 0.18141 0.0
C364 C 0.05011 0.61146 0.18231 0.0
C365 C 0.02037 0.60915 0.18806 0.0
H366 H 0.09105 0.63928 0.17691 0.0
H367 H 0.80261 0.60377 0.2363 0.0
H368 H 0.24316 0.17022 0.13154 0.0
H369 H 0.28384 0.14764 0.11788 0.0
H370 H 0.31779 0.15995 0.20375 0.0
H371 H 0.27691 0.18255 0.21763 0.0
H372 H 0.36005 0.17577 0.15997 0.0
H373 H 0.28692 0.09828 0.18468 0.0
H374 H 0.23775 0.06916 0.18316 0.0
H375 H 0.24544 0.05392 0.09323 0.0
H376 H 0.29451 0.0833 0.09414 0.0
H377 H 0.4693 0.09566 0.13004 0.0
H378 H 0.42946 0.11451 0.15228 0.0
H379 H 0.3758 0.08949 0.07736 0.0
H380 H 0.41498 0.06954 0.05568 0.0
H381 H 0.34383 0.07905 0.12085 0.0
H382 H 0.413 0.15879 0.09354 0.0
H383 H 0.46113 0.18966 0.0922 0.0
H384 H 0.46008 0.20274 0.18297 0.0
H385 H 0.41208 0.17166 0.18487 0.0
C386 C 0.25931 0.16812 0.1475 0.0
C387 C 0.25694 0.17813 0.17563 0.0
C388 C 0.28242 0.15512 0.13971 0.0
C389 C 0.3037 0.15205 0.15985 0.0
C390 C 0.30152 0.16212 0.18795 0.0
C391 C 0.27814 0.17483 0.19586 0.0
C392 C 0.32837 0.1386 0.15122 0.0
C393 C 0.35667 0.15447 0.15188 0.0
C394 C 0.32371 0.11107 0.14002 0.0
C395 C 0.29431 0.09316 0.13946 0.0
C396 C 0.27805 0.08888 0.16455 0.0
C397 C 0.25021 0.0723 0.1638 0.0
C398 C 0.23846 0.05974 0.13811 0.0
C399 C 0.25456 0.06368 0.11312 0.0
C400 C 0.28241 0.08026 0.11375 0.0
C401 C 0.44897 0.09416 0.11836 0.0
C402 C 0.4453 0.08118 0.09109 0.0
C403 C 0.42624 0.10506 0.13103 0.0
C404 C 0.3997 0.10386 0.11635 0.0
C405 C 0.39599 0.09066 0.0892 0.0
C406 C 0.41846 0.0793 0.07678 0.0
C407 C 0.37571 0.11634 0.129 0.0
C408 C 0.34742 0.10029 0.12914 0.0
C409 C 0.38034 0.14388 0.1405 0.0
C410 C 0.40912 0.16266 0.13938 0.0
C411 C 0.42314 0.1681 0.11323 0.0
C412 C 0.45037 0.18565 0.11237 0.0
C413 C 0.46369 0.19808 0.13749 0.0
C414 C 0.44976 0.19306 0.16353 0.0
C415 C 0.42254 0.17549 0.16451 0.0
H416 H 0.48478 0.21166 0.13678 0.0
H417 H 0.21689 0.04692 0.13757 0.0
H418 H 0.25922 0.94233 0.68528 0.0
H419 H 0.21598 0.95863 0.66748 0.0
H420 H 0.21118 0.9011 0.59518 0.0
H421 H 0.2543 0.88501 0.61293 0.0
H422 H 0.20984 0.95312 0.57943 0.0
H423 H 0.16129 0.89073 0.64813 0.0
H424 H 0.15274 0.87218 0.69589 0.0
H425 H 0.1362 0.95047 0.72818 0.0
H426 H 0.14505 0.9696 0.68067 0.0
H427 H 0.07884 0.96817 0.51518 0.0
H428 H 0.11537 0.94818 0.5402 0.0
H429 H 0.11039 0.00344 0.61282 0.0
H430 H 0.07297 0.02289 0.5881 0.0
H431 H 0.11705 0.95447 0.63034 0.0
H432 H 0.16552 0.01752 0.56369 0.0
H433 H 0.17509 0.03801 0.51691 0.0
H434 H 0.19379 0.96138 0.48217 0.0
H435 H 0.18393 0.94031 0.52867 0.0
C436 C 0.24849 0.93292 0.66589 0.0
C437 C 0.2597 0.91238 0.65046 0.0
C438 C 0.22385 0.94218 0.65574 0.0
C439 C 0.21025 0.93101 0.63002 0.0
C440 C 0.22127 0.91001 0.61505 0.0
C441 C 0.24576 0.90074 0.62522 0.0
C442 C 0.18578 0.94229 0.6176 0.0
C443 C 0.1894 0.95305 0.59042 0.0
C444 C 0.15953 0.94318 0.63236 0.0
C445 C 0.15414 0.93168 0.6609 0.0
C446 C 0.15608 0.90406 0.66546 0.0
C447 C 0.15113 0.89343 0.69248 0.0
C448 C 0.14401 0.91016 0.71507 0.0
C449 C 0.14175 0.93754 0.71067 0.0
C450 C 0.14671 0.94828 0.6837 0.0
C451 C 0.08533 0.97586 0.53659 0.0
C452 C 0.07337 0.9973 0.54957 0.0
C453 C 0.10631 0.96452 0.55084 0.0
C454 C 0.11622 0.97475 0.57816 0.0
C455 C 0.10327 0.99531 0.5917 0.0
C456 C 0.08195 0.00645 0.57755 0.0
C457 C 0.14093 0.96479 0.5919 0.0
C458 C 0.13748 0.9545 0.61935 0.0
C459 C 0.16759 0.96461 0.57756 0.0
C460 C 0.17373 0.97727 0.5496 0.0
C461 C 0.17149 0.00499 0.54602 0.0
C462 C 0.17698 0.01671 0.51957 0.0
C463 C 0.18497 0.00098 0.49656 0.0
C464 C 0.18756 0.97352 0.5 0.0
C465 C 0.18205 0.96168 0.52641 0.0
H466 H 0.18922 0.0101 0.4761 0.0
H467 H 0.14019 0.90189 0.73597 0.0
H468 H 0.75202 0.36952 0.90463 0.0
H469 H 0.7985 0.39696 0.92161 0.0
H470 H 0.75967 0.46975 0.92786 0.0
H471 H 0.71282 0.4423 0.9113 0.0
H472 H 0.81682 0.47977 0.90604 0.0
H473 H 0.76527 0.43711 0.98576 0.0
H474 H 0.73823 0.39807 0.01173 0.0
H475 H 0.81258 0.35823 0.00803 0.0
H476 H 0.83993 0.39685 0.98161 0.0
H477 H 0.92754 0.55776 0.99829 0.0
H478 H 0.8811 0.53486 0.97653 0.0
H479 H 0.90957 0.4565 0.97719 0.0
H480 H 0.95562 0.47902 0.99941 0.0
H481 H 0.85605 0.45103 0.99584 0.0
H482 H 0.90815 0.49377 0.91652 0.0
H483 H 0.93483 0.53198 0.8892 0.0
H484 H 0.85978 0.57089 0.89048 0.0
H485 H 0.83295 0.53336 0.91856 0.0
C486 C 0.75335 0.39138 0.90956 0.0
C487 C 0.7286 0.40365 0.907 0.0
C488 C 0.77995 0.40704 0.91914 0.0
C489 C 0.78237 0.43527 0.92638 0.0
C490 C 0.7582 0.44796 0.92242 0.0
C491 C 0.73149 0.43226 0.91288 0.0
C492 C 0.80965 0.45103 0.93964 0.0
C493 C 0.82529 0.4738 0.92587 0.0
C494 C 0.82081 0.44285 0.96525 0.0
C495 C 0.80455 0.41977 0.98148 0.0
C496 C 0.77578 0.41993 0.9903 0.0
C497 C 0.76041 0.39789 0.00513 0.0
C498 C 0.77365 0.37565 0.01147 0.0
C499 C 0.80234 0.37545 0.00307 0.0
C500 C 0.81779 0.39743 0.98819 0.0
C501 C 0.92394 0.53566 0.99375 0.0
C502 C 0.94532 0.52023 1.00066 0.0
C503 C 0.89742 0.52261 0.98118 0.0
C504 C 0.89192 0.49398 0.97497 0.0
C505 C 0.91327 0.47861 0.98181 0.0
C506 C 0.93965 0.49156 0.99451 0.0
C507 C 0.8637 0.4797 0.96207 0.0
C508 C 0.84771 0.45717 0.97602 0.0
C509 C 0.85235 0.48812 0.93658 0.0
C510 C 0.86866 0.51091 0.92001 0.0
C511 C 0.89747 0.51066 0.91133 0.0
C512 C 0.91262 0.53221 0.89569 0.0
C513 C 0.89909 0.55396 0.88827 0.0
C514 C 0.87033 0.55415 0.89642 0.0
C515 C 0.85516 0.53277 0.91224 0.0
H516 H 0.91083 0.57059 0.87611 0.0
H517 H 0.76171 0.3586 0.02294 0.0
H518 H 0.77542 0.63385 0.39195 0.0
H519 H 0.72909 0.61553 0.41456 0.0
H520 H 0.76245 0.65473 0.49469 0.0
H521 H 0.80918 0.6727 0.47229 0.0
H522 H 0.73243 0.60121 0.50044 0.0
H523 H 0.71771 0.68385 0.45625 0.0
H524 H 0.71796 0.71514 0.41665 0.0
H525 H 0.65746 0.6528 0.3697 0.0
H526 H 0.65718 0.62097 0.40888 0.0
H527 H 0.59913 0.6036 0.57296 0.0
H528 H 0.64665 0.61481 0.54991 0.0
H529 H 0.60919 0.57371 0.47201 0.0
H530 H 0.56154 0.56246 0.49499 0.0
H531 H 0.64109 0.62583 0.46398 0.0
H532 H 0.65299 0.54421 0.50981 0.0
H533 H 0.65248 0.51317 0.54962 0.0
H534 H 0.71819 0.57306 0.59349 0.0
H535 H 0.71855 0.60479 0.55429 0.0
C536 C 0.77301 0.63834 0.41445 0.0
C537 C 0.79592 0.65476 0.43035 0.0
C538 C 0.74647 0.62801 0.42729 0.0
C539 C 0.74229 0.63396 0.45623 0.0
C540 C 0.76526 0.64994 0.47231 0.0
C541 C 0.79181 0.66038 0.45944 0.0
C542 C 0.71369 0.62401 0.46954 0.0
C543 C 0.71248 0.60682 0.49272 0.0
C544 C 0.68762 0.63079 0.45891 0.0
C545 C 0.68767 0.64993 0.43537 0.0
C546 C 0.70465 0.67673 0.43738 0.0
C547 C 0.70477 0.69458 0.41503 0.0
C548 C 0.6878 0.68594 0.39064 0.0
C549 C 0.67063 0.65945 0.38859 0.0
C550 C 0.67047 0.6415 0.41087 0.0
C551 C 0.60111 0.5968 0.55098 0.0
C552 C 0.57676 0.58222 0.5357 0.0
C553 C 0.62825 0.6031 0.53789 0.0
C554 C 0.63143 0.59496 0.50931 0.0
C555 C 0.60715 0.58014 0.49409 0.0
C556 C 0.58004 0.57365 0.50725 0.0
C557 C 0.65979 0.60314 0.49502 0.0
C558 C 0.66098 0.62005 0.47163 0.0
C559 C 0.68579 0.59608 0.5055 0.0
C560 C 0.68557 0.57704 0.5292 0.0
C561 C 0.66709 0.55092 0.52809 0.0
C562 C 0.66683 0.53318 0.55056 0.0
C563 C 0.68519 0.54118 0.57415 0.0
C564 C 0.70387 0.56693 0.57528 0.0
C565 C 0.70411 0.58481 0.55294 0.0
H566 H 0.68501 0.52739 0.59149 0.0
H567 H 0.68791 0.69979 0.37336 0.0
H568 H 0.16689 0.30635 0.18895 0.0
H569 H 0.13995 0.34205 0.17462 0.0
H570 H 0.11304 0.2947 0.09673 0.0
H571 H 0.13989 0.25914 0.11111 0.0
H572 H 0.14014 0.34808 0.08773 0.0
H573 H 0.06345 0.30189 0.14665 0.0
H574 H 0.04263 0.28199 0.191 0.0
H575 H 0.06594 0.36132 0.23471 0.0
H576 H 0.08728 0.38163 0.19071 0.0
H577 H 0.05473 0.44034 0.03429 0.0
H578 H 0.072 0.39941 0.0502 0.0
H579 H 0.08643 0.43724 0.13474 0.0
H580 H 0.06802 0.47746 0.11917 0.0
H581 H 0.06363 0.3867 0.13987 0.0
H582 H 0.14336 0.43285 0.08532 0.0
H583 H 0.16923 0.45418 0.0438 0.0
H584 H 0.14528 0.37776 0.99488 0.0
H585 H 0.11897 0.35604 0.03603 0.0
C586 C 0.15441 0.30329 0.16923 0.0
C587 C 0.15497 0.28005 0.15121 0.0
C588 C 0.13913 0.32364 0.16101 0.0
C589 C 0.12445 0.321 0.1346 0.0
C590 C 0.12417 0.29713 0.11718 0.0
C591 C 0.13928 0.27677 0.12548 0.0
C592 C 0.11175 0.34414 0.12392 0.0
C593 C 0.12302 0.35625 0.09883 0.0
C594 C 0.09022 0.35538 0.139 0.0
C595 C 0.07719 0.34323 0.16542 0.0
C596 C 0.06434 0.31505 0.16577 0.0
C597 C 0.05241 0.3037 0.19084 0.0
C598 C 0.05303 0.32036 0.21567 0.0
C599 C 0.0655 0.34843 0.21546 0.0
C600 C 0.07749 0.35988 0.19045 0.0
C601 C 0.06155 0.43981 0.05625 0.0
C602 C 0.06002 0.46199 0.07552 0.0
C603 C 0.0716 0.4165 0.06532 0.0
C604 C 0.08089 0.41527 0.09366 0.0
C605 C 0.07932 0.43755 0.11283 0.0
C606 C 0.06889 0.4606 0.10388 0.0
C607 C 0.09207 0.39083 0.10357 0.0
C608 C 0.08059 0.37848 0.12857 0.0
C609 C 0.11388 0.37967 0.08871 0.0
C610 C 0.12896 0.3929 0.06368 0.0
C611 C 0.14338 0.42067 0.06563 0.0
C612 C 0.15822 0.43279 0.0422 0.0
C613 C 0.15898 0.4173 0.01676 0.0
C614 C 0.14476 0.3897 0.01464 0.0
C615 C 0.12987 0.37748 0.038 0.0
H616 H 0.17049 0.42673 0.99865 0.0
H617 H 0.04379 0.31154 0.23506 0.0
H618 H 0.63281 0.29634 0.88343 0.0
H619 H 0.61256 0.25389 0.90696 0.0
H620 H 0.65362 0.28831 0.98594 0.0
H621 H 0.67335 0.33145 0.96275 0.0
H622 H 0.65492 0.22781 0.97037 0.0
H623 H 0.58969 0.29266 0.98357 0.0
H624 H 0.56148 0.32671 0.96706 0.0
H625 H 0.51279 0.26524 0.90928 0.0
H626 H 0.54107 0.23093 0.92511 0.0
H627 H 0.56105 0.12202 0.04595 0.0
H628 H 0.58912 0.1672 0.03341 0.0
H629 H 0.54361 0.15968 0.95262 0.0
H630 H 0.51551 0.11505 0.96525 0.0
H631 H 0.54677 0.20998 0.9762 0.0
H632 H 0.61159 0.146 0.95944 0.0
H633 H 0.63919 0.11056 0.97327 0.0
H634 H 0.68908 0.16832 0.03376 0.0
H635 H 0.66099 0.20389 0.02101 0.0
C636 C 0.6376 0.29496 0.9058 0.0
C637 C 0.65429 0.31749 0.92131 0.0
C638 C 0.62623 0.27059 0.91913 0.0
C639 C 0.63147 0.26813 0.94817 0.0
C640 C 0.64947 0.28987 0.96346 0.0
C641 C 0.66071 0.31446 0.95015 0.0
C642 C 0.6158 0.24378 0.96274 0.0
C643 C 0.63134 0.22406 0.97225 0.0
C644 C 0.58503 0.23883 0.96461 0.0
C645 C 0.56765 0.25929 0.95538 0.0
C646 C 0.57312 0.28646 0.9672 0.0
C647 C 0.5571 0.3058 0.95798 0.0
C648 C 0.5354 0.29816 0.93709 0.0
C649 C 0.52962 0.27113 0.92544 0.0
C650 C 0.54561 0.25172 0.93455 0.0
C651 C 0.55709 0.13015 0.02564 0.0
C652 C 0.53624 0.11512 0.00657 0.0
C653 C 0.57313 0.15586 0.01844 0.0
C654 C 0.56856 0.16672 0.99199 0.0
C655 C 0.54744 0.15176 0.97316 0.0
C656 C 0.53147 0.12622 0.98037 0.0
C657 C 0.58571 0.19352 0.98341 0.0
C658 C 0.57041 0.21381 0.97493 0.0
C659 C 0.61662 0.19872 0.98221 0.0
C660 C 0.63391 0.17752 0.98954 0.0
C661 C 0.62825 0.1511 0.97589 0.0
C662 C 0.644 0.13097 0.98352 0.0
C663 C 0.66591 0.13718 0.00435 0.0
C664 C 0.67207 0.16353 0.01764 0.0
C665 C 0.65618 0.18366 0.01029 0.0
H666 H 0.67814 0.12157 0.01016 0.0
H667 H 0.52303 0.31316 0.92998 0.0
H668 H 0.87361 0.72935 0.46095 0.0
H669 H 0.89507 0.77742 0.47328 0.0
H670 H 0.91006 0.79297 0.38448 0.0
H671 H 0.88854 0.74454 0.37192 0.0
H672 H 0.95635 0.81845 0.41808 0.0
H673 H 0.85309 0.81317 0.41659 0.0
H674 H 0.80191 0.79416 0.42812 0.0
H675 H 0.82076 0.81226 0.51701 0.0
H676 H 0.87218 0.831 0.50605 0.0
H677 H 0.98274 0.96511 0.4489 0.0
H678 H 0.96249 0.91891 0.42867 0.0
H679 H 0.94238 0.89013 0.51297 0.0
H680 H 0.96227 0.93609 0.53334 0.0
H681 H 0.89707 0.87313 0.47629 0.0
H682 H 1.00103 0.87517 0.47777 0.0
H683 H 0.05231 0.89388 0.46628 0.0
H684 H 0.03185 0.88219 0.37704 0.0
H685 H 0.98032 0.86377 0.38802 0.0
C686 C 0.88139 0.743 0.444 0.0
C687 C 0.879 0.73328 0.41542 0.0
C688 C 0.89369 0.77046 0.45109 0.0
C689 C 0.90363 0.78892 0.42976 0.0
C690 C 0.90237 0.77909 0.40125 0.0
C691 C 0.89013 0.75145 0.39412 0.0
C692 C 0.9146 0.81855 0.43752 0.0
C693 C 0.94324 0.83059 0.43037 0.0
C694 C 0.89758 0.83428 0.45383 0.0
C695 C 0.86656 0.82332 0.4605 0.0
C696 C 0.84637 0.81294 0.43861 0.0
C697 C 0.81731 0.80223 0.44504 0.0
C698 C 0.8081 0.80196 0.47328 0.0
C699 C 0.82793 0.81247 0.49515 0.0
C700 C 0.85703 0.82317 0.48883 0.0
C701 C 0.97398 0.94897 0.46315 0.0
C702 C 0.97419 0.95434 0.49277 0.0
C703 C 0.96252 0.92254 0.45154 0.0
C704 C 0.95112 0.90103 0.46933 0.0
C705 C 0.95105 0.90643 0.49884 0.0
C706 C 0.96254 0.93274 0.51045 0.0
C707 C 0.93904 0.87284 0.45744 0.0
C708 C 0.91011 0.8611 0.46375 0.0
C709 C 0.95578 0.85748 0.44033 0.0
C710 C 0.98677 0.8684 0.43372 0.0
C711 C 0.00742 0.8768 0.4557 0.0
C712 C 0.03654 0.88732 0.44928 0.0
C713 C 0.04532 0.8893 0.42095 0.0
C714 C 0.02501 0.88069 0.39898 0.0
C715 C 0.99585 0.8702 0.40529 0.0
H716 H 0.06787 0.89744 0.41602 0.0
H717 H 0.78559 0.79364 0.47822 0.0
H718 H 0.37235 0.83068 0.64656 0.0
H719 H 0.39043 0.78931 0.63065 0.0
H720 H 0.34325 0.74402 0.69793 0.0
H721 H 0.32534 0.78565 0.7142 0.0
H722 H 0.39642 0.73334 0.69505 0.0
H723 H 0.32018 0.73359 0.62732 0.0
H724 H 0.29195 0.753 0.59152 0.0
H725 H 0.36684 0.76718 0.53744 0.0
H726 H 0.39567 0.74822 0.5731 0.0
H727 H 0.42559 0.60443 0.63568 0.0
H728 H 0.40006 0.64104 0.65318 0.0
H729 H 0.44851 0.69722 0.59486 0.0
H730 H 0.47396 0.66087 0.5774 0.0
H731 H 0.39018 0.69899 0.5942 0.0
H732 H 0.46693 0.70181 0.66404 0.0
H733 H 0.49485 0.68219 0.69997 0.0
H734 H 0.41758 0.66132 0.75001 0.0
H735 H 0.3891 0.6805 0.71416 0.0
C736 C 0.36544 0.81181 0.65771 0.0
C737 C 0.34722 0.81138 0.68151 0.0
C738 C 0.37581 0.78813 0.6486 0.0
C739 C 0.36787 0.76336 0.6628 0.0
C740 C 0.34964 0.76286 0.68658 0.0
C741 C 0.33942 0.78664 0.69586 0.0
C742 C 0.37945 0.73836 0.65332 0.0
C743 C 0.39454 0.72552 0.6731 0.0
C744 C 0.37746 0.72834 0.62458 0.0
C745 C 0.36015 0.73967 0.603 0.0
C746 C 0.3307 0.74103 0.60788 0.0
C747 C 0.31457 0.75193 0.5876 0.0
C748 C 0.32761 0.76137 0.56224 0.0
C749 C 0.35678 0.75988 0.55709 0.0
C750 C 0.37301 0.74903 0.57733 0.0
C751 C 0.43078 0.62464 0.6267 0.0
C752 C 0.4518 0.6299 0.60529 0.0
C753 C 0.41626 0.64551 0.63672 0.0
C754 C 0.4225 0.6719 0.6254 0.0
C755 C 0.44333 0.67702 0.60386 0.0
C756 C 0.45794 0.65627 0.594 0.0
C757 C 0.40744 0.69434 0.63582 0.0
C758 C 0.39171 0.70667 0.6162 0.0
C759 C 0.40872 0.70377 0.66469 0.0
C760 C 0.42582 0.69228 0.68626 0.0
C761 C 0.45584 0.69281 0.68258 0.0
C762 C 0.47178 0.68182 0.70296 0.0
C763 C 0.45798 0.67043 0.72721 0.0
C764 C 0.42822 0.67009 0.73118 0.0
C765 C 0.41218 0.68103 0.71085 0.0
H766 H 0.47035 0.66194 0.74297 0.0
H767 H 0.31508 0.7698 0.54657 0.0
H768 H 0.83273 0.89728 0.82586 0.0
H769 H 0.85164 0.91904 0.7822 0.0
H770 H 0.93926 0.93117 0.81636 0.0
H771 H 0.92042 0.91039 0.86046 0.0
H772 H 0.93177 0.9751 0.78792 0.0
H773 H 0.91302 0.87674 0.77003 0.0
H774 H 0.88343 0.82966 0.76825 0.0
H775 H 0.82366 0.85464 0.70954 0.0
H776 H 0.85269 0.90201 0.71129 0.0
H777 H 0.00831 0.99352 0.65687 0.0
H778 H 0.98896 0.97541 0.7022 0.0
H779 H 0.90121 0.96558 0.66873 0.0
H780 H 0.92044 0.98343 0.62344 0.0
H781 H 0.90875 0.92082 0.69686 0.0
H782 H 0.9284 0.01932 0.71446 0.0
H783 H 0.95864 0.06612 0.71618 0.0
H784 H 0.01758 0.04044 0.77528 0.0
H785 H 0.98789 0.99335 0.77361 0.0
C786 C 0.85596 0.90509 0.82432 0.0
C787 C 0.87508 0.90186 0.84658 0.0
C788 C 0.86678 0.91725 0.79921 0.0
C789 C 0.89695 0.92626 0.79576 0.0
C790 C 0.91594 0.92421 0.81843 0.0
C791 C 0.90514 0.91212 0.84355 0.0
C792 C 0.90886 0.93692 0.76822 0.0
C793 C 0.92699 0.9631 0.76806 0.0
C794 C 0.9023 0.92147 0.74219 0.0
C795 C 0.88486 0.89299 0.74103 0.0
C796 C 0.89344 0.87225 0.75691 0.0
C797 C 0.87679 0.8455 0.75588 0.0
C798 C 0.85164 0.83918 0.73885 0.0
C799 C 0.84312 0.85958 0.72276 0.0
C800 C 0.85967 0.88638 0.72375 0.0
C801 C 0.98492 0.98741 0.65922 0.0
C802 C 0.96586 0.98992 0.63672 0.0
C803 C 0.97387 0.9772 0.68513 0.0
C804 C 0.94359 0.96941 0.68897 0.0
C805 C 0.92462 0.97149 0.66628 0.0
C806 C 0.93564 0.98174 0.64045 0.0
C807 C 0.93158 0.95902 0.71655 0.0
C808 C 0.91347 0.93285 0.71672 0.0
C809 C 0.93826 0.97443 0.74256 0.0
C810 C 0.95608 0.00274 0.74368 0.0
C811 C 0.94794 0.02359 0.72765 0.0
C812 C 0.96495 0.05018 0.72865 0.0
C813 C 0.99006 0.05623 0.74577 0.0
C814 C 0.99815 0.03571 0.76199 0.0
C815 C 0.98123 0.00908 0.76104 0.0
H816 H 0.0032 0.07682 0.74652 0.0
H817 H 0.83878 0.81846 0.73807 0.0
H818 H 0.71611 0.24096 0.32628 0.0
H819 H 0.68989 0.2242 0.28191 0.0
H820 H 0.67044 0.14185 0.31343 0.0
H821 H 0.69698 0.15843 0.35753 0.0
H822 H 0.68911 0.13952 0.26147 0.0
H823 H 0.61821 0.18399 0.3087 0.0
H824 H 0.59975 0.22236 0.33316 0.0
H825 H 0.61759 0.27093 0.25933 0.0
H826 H 0.63654 0.23295 0.23456 0.0
H827 H 0.5724 0.07464 0.17223 0.0
H828 H 0.60056 0.09823 0.21289 0.0
H829 H 0.63117 0.16865 0.1623 0.0
H830 H 0.60323 0.14476 0.12105 0.0
H831 H 0.60953 0.18029 0.2204 0.0
H832 H 0.67757 0.13254 0.17261 0.0
H833 H 0.69346 0.09228 0.1492 0.0
H834 H 0.6781 0.04789 0.22601 0.0
H835 H 0.66167 0.08775 0.24977 0.0
C836 C 0.7059 0.21936 0.32385 0.0
C837 C 0.70866 0.20099 0.34535 0.0
C838 C 0.69091 0.20979 0.29848 0.0
C839 C 0.67802 0.18174 0.29431 0.0
C840 C 0.68033 0.16353 0.31603 0.0
C841 C 0.6955 0.17302 0.34124 0.0
C842 C 0.66295 0.17103 0.26704 0.0
C843 C 0.67154 0.14834 0.2527 0.0
C844 C 0.6405 0.1829 0.25507 0.0
C845 C 0.62911 0.20575 0.2699 0.0
C846 C 0.61843 0.20294 0.29777 0.0
C847 C 0.60783 0.2246 0.31167 0.0
C848 C 0.60759 0.2491 0.29784 0.0
C849 C 0.61785 0.25196 0.27004 0.0
C850 C 0.62851 0.23037 0.25605 0.0
C851 C 0.58511 0.09515 0.16971 0.0
C852 C 0.58574 0.10787 0.14348 0.0
C853 C 0.60119 0.10858 0.19296 0.0
C854 C 0.61799 0.13511 0.19055 0.0
C855 C 0.6183 0.14816 0.16453 0.0
C856 C 0.60248 0.1345 0.14103 0.0
C857 C 0.63548 0.14868 0.21533 0.0
C858 C 0.62734 0.17179 0.22914 0.0
C859 C 0.65812 0.13703 0.22706 0.0
C860 C 0.66816 0.11307 0.21289 0.0
C861 C 0.67734 0.11411 0.18444 0.0
C862 C 0.68649 0.09138 0.17112 0.0
C863 C 0.68673 0.06752 0.18608 0.0
C864 C 0.67788 0.06638 0.21443 0.0
C865 C 0.66868 0.08905 0.22785 0.0
H866 H 0.69382 0.04994 0.17573 0.0
H867 H 0.59937 0.26585 0.30864 0.0
H868 H 0.43637 0.64572 0.26657 0.0
H869 H 0.43791 0.61685 0.30746 0.0
H870 H 0.37476 0.65733 0.35042 0.0
H871 H 0.37374 0.68664 0.30951 0.0
H872 H 0.42027 0.65778 0.38362 0.0
H873 H 0.35789 0.58803 0.32771 0.0
H874 H 0.34127 0.55847 0.28506 0.0
H875 H 0.41872 0.5233 0.28814 0.0
H876 H 0.43603 0.55293 0.33059 0.0
H877 H 0.42633 0.57771 0.50359 0.0
H878 H 0.40581 0.59498 0.46166 0.0
H879 H 0.46802 0.5628 0.40856 0.0
H880 H 0.48825 0.5449 0.45029 0.0
H881 H 0.41581 0.55638 0.38195 0.0
H882 H 0.48069 0.63059 0.4333 0.0
H883 H 0.49791 0.66019 0.4758 0.0
H884 H 0.41556 0.68706 0.48065 0.0
H885 H 0.39772 0.65732 0.43836 0.0
C886 C 0.42228 0.64786 0.28448 0.0
C887 C 0.40474 0.66802 0.28504 0.0
C888 C 0.42309 0.63135 0.3078 0.0
C889 C 0.40623 0.63469 0.33198 0.0
C890 C 0.38785 0.65429 0.33199 0.0
C891 C 0.38713 0.67088 0.30864 0.0
C892 C 0.41018 0.61979 0.35814 0.0
C893 C 0.41859 0.63552 0.38337 0.0
C894 C 0.40871 0.59082 0.35774 0.0
C895 C 0.39835 0.57287 0.33225 0.0
C896 C 0.37149 0.57414 0.31918 0.0
C897 C 0.36192 0.55734 0.29506 0.0
C898 C 0.37895 0.53905 0.28387 0.0
C899 C 0.40555 0.53748 0.29683 0.0
C900 C 0.41523 0.55425 0.32095 0.0
C901 C 0.43545 0.574 0.48296 0.0
C902 C 0.45919 0.5602 0.48036 0.0
C903 C 0.4237 0.58394 0.459 0.0
C904 C 0.43573 0.58065 0.43203 0.0
C905 C 0.45842 0.56565 0.42917 0.0
C906 C 0.47003 0.55548 0.45309 0.0
C907 C 0.42618 0.59445 0.40714 0.0
C908 C 0.4169 0.57857 0.38221 0.0
C909 C 0.4269 0.62331 0.40773 0.0
C910 C 0.43777 0.64152 0.43287 0.0
C911 C 0.4662 0.64269 0.44353 0.0
C912 C 0.47608 0.6595 0.46757 0.0
C913 C 0.45781 0.67543 0.48097 0.0
C914 C 0.42967 0.67467 0.47028 0.0
C915 C 0.41967 0.65786 0.44627 0.0
H916 H 0.46548 0.6884 0.4996 0.0
H917 H 0.37151 0.52606 0.26519 0.0
H918 H 0.09175 0.46057 0.76086 0.0
H919 H 0.09139 0.48637 0.80635 0.0
H920 H 0.16297 0.45064 0.83661 0.0
H921 H 0.16279 0.42428 0.79097 0.0
H922 H 0.12198 0.44728 0.87544 0.0
H923 H 0.17356 0.51964 0.82216 0.0
H924 H 0.18468 0.54965 0.78145 0.0
H925 H 0.10438 0.57908 0.79369 0.0
H926 H 0.09255 0.54895 0.83423 0.0
H927 H 0.11043 0.58003 0.97318 0.0
H928 H 0.13331 0.55749 0.93433 0.0
H929 H 0.06087 0.48851 0.93319 0.0
H930 H 0.03882 0.51034 0.97284 0.0
H931 H 0.11606 0.54674 0.88318 0.0
H932 H 0.07905 0.4299 0.90736 0.0
H933 H 0.07005 0.40191 0.9498 0.0
H934 H 0.1289 0.46388 0.99884 0.0
H935 H 0.13912 0.49175 0.95653 0.0
C936 C 0.10775 0.45873 0.77708 0.0
C937 C 0.12751 0.44089 0.77262 0.0
C938 C 0.1076 0.47346 0.80302 0.0
C939 C 0.12741 0.47073 0.82483 0.0
C940 C 0.14759 0.45316 0.82007 0.0
C941 C 0.14764 0.43831 0.79405 0.0
C942 C 0.12553 0.48499 0.85299 0.0
C943 C 0.12101 0.46909 0.87726 0.0
C944 C 0.12509 0.51361 0.85552 0.0
C945 C 0.13212 0.53191 0.8312 0.0
C946 C 0.15818 0.53238 0.81608 0.0
C947 C 0.16462 0.54944 0.79303 0.0
C948 C 0.14524 0.56624 0.78497 0.0
C949 C 0.11939 0.56606 0.79997 0.0
C950 C 0.11283 0.54903 0.82302 0.0
C951 C 0.09976 0.5598 0.96493 0.0
C952 C 0.07292 0.54688 0.9759 0.0
C953 C 0.11275 0.547 0.9427 0.0
C954 C 0.09898 0.52118 0.93091 0.0
C955 C 0.07234 0.50809 0.94229 0.0
C956 C 0.05964 0.52065 0.96486 0.0
C957 C 0.1112 0.5088 0.90542 0.0
C958 C 0.11765 0.52506 0.88163 0.0
C959 C 0.11414 0.48069 0.90358 0.0
C960 C 0.10968 0.46306 0.92871 0.0
C961 C 0.09043 0.43739 0.92707 0.0
C962 C 0.08509 0.42153 0.95114 0.0
C963 C 0.09885 0.43112 0.97702 0.0
C964 C 0.11826 0.45643 0.9788 0.0
C965 C 0.1239 0.47223 0.95474 0.0
H966 H 0.09445 0.41895 0.9957 0.0
H967 H 0.15026 0.57943 0.76712 0.0
H968 H 0.76788 0.90973 0.97295 0.0
H969 H 0.73167 0.93841 0.98483 0.0
H970 H 0.72615 0.95756 0.89656 0.0
H971 H 0.76251 0.92848 0.88458 0.0
H972 H 0.72473 0.00406 0.93843 0.0
H973 H 0.67687 0.9106 0.9152 0.0
H974 H 0.66896 0.8599 0.91798 0.0
H975 H 0.65249 0.86703 0.00748 0.0
H976 H 0.66075 0.91783 0.00531 0.0
H977 H 0.55878 0.99808 0.97565 0.0
H978 H 0.59845 0.97982 0.95285 0.0
H979 H 0.66082 0.03271 0.00825 0.0
H980 H 0.62126 0.05154 0.03091 0.0
H981 H 0.63281 0.95087 0.97634 0.0
H982 H 0.72701 0.04589 0.97681 0.0
H983 H 0.73393 0.09633 0.97184 0.0
H984 H 0.65468 0.08587 0.92257 0.0
H985 H 0.64738 0.03538 0.92711 0.0
C986 C 0.75936 0.92056 0.95621 0.0
C987 C 0.76782 0.91715 0.92795 0.0
C988 C 0.7387 0.93685 0.96298 0.0
C989 C 0.72616 0.94997 0.94155 0.0
C990 C 0.73571 0.94768 0.91338 0.0
C991 C 0.75635 0.93113 0.90656 0.0
C992 C 0.70127 0.96377 0.94851 0.0
C993 C 0.70455 0.99251 0.94662 0.0
C994 C 0.67483 0.94857 0.95876 0.0
C995 C 0.66969 0.91802 0.96013 0.0
C996 C 0.67181 0.90137 0.93552 0.0
C997 C 0.66722 0.87261 0.93698 0.0
C998 C 0.6603 0.86025 0.9629 0.0
C999 C 0.65789 0.87663 0.98741 0.0
C1000 C 0.66249 0.90541 0.98608 0.0
C1001 C 0.58094 0.00613 0.98284 0.0
C1002 C 0.58674 0.02617 0.00532 0.0
C1003 C 0.60363 0.99563 0.96974 0.0
C1004 C 0.63266 0.00491 0.97873 0.0
C1005 C 0.63866 0.02549 1.00063 0.0
C1006 C 0.61594 0.03611 0.01371 0.0
C1007 C 0.65622 0.99141 0.96678 0.0
C1008 C 0.65279 0.96258 0.96791 0.0
C1009 C 0.68227 0.00656 0.95552 0.0
C1010 C 0.68658 0.03687 0.95247 0.0
C1011 C 0.71113 0.05435 0.96482 0.0
C1012 C 0.7151 0.08295 0.96211 0.0
C1013 C 0.69476 0.09429 0.9469 0.0
C1014 C 0.6704 0.07706 0.93437 0.0
C1015 C 0.66629 0.04846 0.93709 0.0
H1016 H 0.69785 0.11644 0.94485 0.0
H1017 H 0.65674 0.83799 0.96398 0.0
H1018 H 0.7779 0.19479 0.46015 0.0
H1019 H 0.81508 0.17027 0.47702 0.0
H1020 H 0.83697 0.15135 0.39041 0.0
H1021 H 0.80025 0.17656 0.37321 0.0
H1022 H 0.83264 0.10599 0.42597 0.0
H1023 H 0.88093 0.20079 0.42558 0.0
H1024 H 0.88655 0.25087 0.43649 0.0
H1025 H 0.88474 0.23656 0.52594 0.0
H1026 H 0.87864 0.18633 0.51557 0.0
H1027 H 0.95881 0.05609 0.47285 0.0
H1028 H 0.9271 0.08154 0.44718 0.0
H1029 H 0.90451 0.11852 0.52678 0.0
H1030 H 0.93685 0.09409 0.55216 0.0
H1031 H 0.9124 0.15582 0.48917 0.0
H1032 H 0.85901 0.06195 0.4908 0.0
H1033 H 0.85148 0.0115 0.48146 0.0
H1034 H 0.86105 0.02345 0.39184 0.0
H1035 H 0.86901 0.07402 0.4007 0.0
C1036 C 0.79077 0.18569 0.44461 0.0
C1037 C 0.78621 0.18796 0.41528 0.0
C1038 C 0.81193 0.17154 0.45432 0.0
C1039 C 0.82902 0.15926 0.43498 0.0
C1040 C 0.82403 0.1607 0.4057 0.0
C1041 C 0.80293 0.17504 0.39592 0.0
C1042 C 0.85233 0.14532 0.44556 0.0
C1043 C 0.8504 0.11694 0.43939 0.0
C1044 C 0.87519 0.15954 0.46346 0.0
C1045 C 0.8791 0.18977 0.46978 0.0
C1046 C 0.88151 0.2083 0.44758 0.0
C1047 C 0.88482 0.23672 0.45367 0.0
C1048 C 0.88594 0.24688 0.48189 0.0
C1049 C 0.88384 0.22865 0.50409 0.0
C1050 C 0.88049 0.20021 0.49811 0.0
C1051 C 0.94724 0.06985 0.48475 0.0
C1052 C 0.9502 0.07306 0.51449 0.0
C1053 C 0.92895 0.08423 0.47012 0.0
C1054 C 0.91302 0.1017 0.48506 0.0
C1055 C 0.91651 0.10521 0.51472 0.0
C1056 C 0.93493 0.09112 0.52924 0.0
C1057 C 0.89239 0.11623 0.47022 0.0
C1058 C 0.89485 0.14483 0.47553 0.0
C1059 C 0.86986 0.10212 0.4518 0.0
C1060 C 0.86494 0.07175 0.44644 0.0
C1061 C 0.85972 0.05382 0.46912 0.0
C1062 C 0.85534 0.02521 0.46391 0.0
C1063 C 0.85588 0.01428 0.43608 0.0
C1064 C 0.8607 0.03195 0.41339 0.0
C1065 C 0.86513 0.06058 0.41849 0.0
H1066 H 0.85249 0.99212 0.43209 0.0
H1067 H 0.8885 0.26889 0.48656 0.0
H1068 H 0.30303 0.73342 0.19046 0.0
H1069 H 0.25522 0.70997 0.17237 0.0
H1070 H 0.28507 0.63219 0.16934 0.0
H1071 H 0.33321 0.65573 0.18717 0.0
H1072 H 0.26123 0.6425 0.11905 0.0
H1073 H 0.23434 0.64372 0.21685 0.0
H1074 H 0.22961 0.66405 0.26496 0.0
H1075 H 0.17646 0.71787 0.23157 0.0
H1076 H 0.18123 0.69816 0.18316 0.0
H1077 H 0.12449 0.56178 0.07844 0.0
H1078 H 0.16928 0.58155 0.10441 0.0
H1079 H 0.14289 0.6609 0.10975 0.0
H1080 H 0.09758 0.64116 0.08398 0.0
H1081 H 0.16461 0.64802 0.1604 0.0
H1082 H 0.19382 0.64914 0.06272 0.0
H1083 H 0.19835 0.62928 0.01434 0.0
H1084 H 0.24734 0.57182 0.04745 0.0
H1085 H 0.24272 0.59109 0.09611 0.0
C1086 C 0.29924 0.71125 0.1863 0.0
C1087 C 0.32183 0.69638 0.19004 0.0
C1088 C 0.27188 0.69785 0.17615 0.0
C1089 C 0.26656 0.66932 0.16958 0.0
C1090 C 0.28874 0.65422 0.17433 0.0
C1091 C 0.31612 0.66762 0.18468 0.0
C1092 C 0.23876 0.65587 0.15545 0.0
C1093 C 0.2401 0.64323 0.12834 0.0
C1094 C 0.21123 0.65764 0.16721 0.0
C1095 C 0.20839 0.66963 0.1963 0.0
C1096 C 0.22188 0.66007 0.2197 0.0
C1097 C 0.21914 0.67145 0.24705 0.0
C1098 C 0.20281 0.69229 0.25131 0.0
C1099 C 0.18913 0.70175 0.22824 0.0
C1100 C 0.19182 0.69046 0.20084 0.0
C1101 C 0.12815 0.58347 0.08501 0.0
C1102 C 0.10748 0.59993 0.07894 0.0
C1103 C 0.15385 0.59475 0.09984 0.0
C1104 C 0.15955 0.62275 0.10877 0.0
C1105 C 0.1389 0.63924 0.10299 0.0
C1106 C 0.11313 0.62796 0.0881 0.0
C1107 C 0.18716 0.63473 0.12404 0.0
C1108 C 0.18577 0.64715 0.15125 0.0
C1109 C 0.2147 0.63289 0.11236 0.0
C1110 C 0.21767 0.62138 0.08309 0.0
C1111 C 0.20536 0.63213 0.05971 0.0
C1112 C 0.20798 0.621 0.03224 0.0
C1113 C 0.22306 0.59925 0.02784 0.0
C1114 C 0.23562 0.58864 0.0509 0.0
C1115 C 0.23304 0.59967 0.07843 0.0
H1116 H 0.22506 0.59066 0.00655 0.0
H1117 H 0.2007 0.70105 0.2725 0.0
H1118 H 0.23846 0.37974 0.68163 0.0
H1119 H 0.285 0.40514 0.66517 0.0
H1120 H 0.24786 0.47865 0.65992 0.0
H1121 H 0.20077 0.45298 0.67529 0.0
H1122 H 0.27595 0.47118 0.61319 0.0
H1123 H 0.29925 0.47358 0.71141 0.0
H1124 H 0.3029 0.45549 0.75911 0.0
H1125 H 0.36031 0.40307 0.7269 0.0
H1126 H 0.35668 0.42055 0.6789 0.0
H1127 H 0.44568 0.5279 0.61461 0.0
H1128 H 0.39918 0.51633 0.63945 0.0
H1129 H 0.36354 0.46222 0.56839 0.0
H1130 H 0.40971 0.47432 0.54322 0.0
H1131 H 0.3719 0.46891 0.65794 0.0
H1132 H 0.29151 0.4604 0.56146 0.0
H1133 H 0.28824 0.48282 0.51595 0.0
H1134 H 0.34514 0.55605 0.54917 0.0
H1135 H 0.34839 0.53425 0.595 0.0
C1136 C 0.2402 0.40135 0.6771 0.0
C1137 C 0.21583 0.41428 0.67963 0.0
C1138 C 0.26695 0.41595 0.66796 0.0
C1139 C 0.27005 0.4439 0.66148 0.0
C1140 C 0.24601 0.45712 0.66483 0.0
C1141 C 0.21918 0.44248 0.67389 0.0
C1142 C 0.29782 0.45862 0.64945 0.0
C1143 C 0.29692 0.47085 0.62309 0.0
C1144 C 0.3252 0.45883 0.66264 0.0
C1145 C 0.32753 0.44826 0.69149 0.0
C1146 C 0.31249 0.45805 0.71445 0.0
C1147 C 0.31458 0.44793 0.74155 0.0
C1148 C 0.33179 0.42811 0.74602 0.0
C1149 C 0.34698 0.41841 0.7234 0.0
C1150 C 0.34495 0.42845 0.69625 0.0
C1151 C 0.42776 0.51385 0.60415 0.0
C1152 C 0.43118 0.50212 0.57693 0.0
C1153 C 0.40129 0.50713 0.61843 0.0
C1154 C 0.37776 0.4886 0.60571 0.0
C1155 C 0.38119 0.47694 0.57845 0.0
C1156 C 0.40761 0.48374 0.56413 0.0
C1157 C 0.34999 0.48054 0.62126 0.0
C1158 C 0.35091 0.46954 0.64823 0.0
C1159 C 0.32263 0.4821 0.60898 0.0
C1160 C 0.32035 0.49557 0.58161 0.0
C1161 C 0.30318 0.48134 0.55912 0.0
C1162 C 0.30136 0.49394 0.53325 0.0
C1163 C 0.31653 0.52082 0.52965 0.0
C1164 C 0.33347 0.5352 0.55195 0.0
C1165 C 0.33533 0.52272 0.57787 0.0
H1166 H 0.31513 0.53051 0.50959 0.0
H1167 H 0.33338 0.4203 0.76702 0.0
H1168 H 0.87761 0.83933 0.96074 0.0
H1169 H 0.90232 0.80406 0.97905 0.0
H1170 H 0.92212 0.77953 0.89334 0.0
H1171 H 0.89649 0.81421 0.87479 0.0
H1172 H 0.90194 0.73532 0.92359 0.0
H1173 H 0.97483 0.81728 0.93725 0.0
H1174 H 0.99463 0.86523 0.9539 0.0
H1175 H 0.97689 0.84334 0.04036 0.0
H1176 H 0.95659 0.79531 0.02419 0.0
H1177 H 0.00479 0.65312 0.9577 0.0
H1178 H 0.98329 0.69105 0.94056 0.0
H1179 H 0.95758 0.70991 0.02603 0.0
H1180 H 0.97919 0.67181 0.04338 0.0
H1181 H 0.98106 0.75709 0.99639 0.0
H1182 H 0.90788 0.67506 0.98222 0.0
H1183 H 0.88925 0.62695 0.96529 0.0
H1184 H 0.90846 0.64922 0.87918 0.0
H1185 H 0.92762 0.69741 0.89564 0.0
C1186 C 0.8871 0.82636 0.94575 0.0
C1187 C 0.88505 0.82958 0.91628 0.0
C1188 C 0.90148 0.80638 0.95628 0.0
C1189 C 0.91436 0.78934 0.93759 0.0
C1190 C 0.91243 0.79252 0.90816 0.0
C1191 C 0.898 0.81251 0.8976 0.0
C1192 C 0.92916 0.76773 0.94877 0.0
C1193 C 0.91953 0.74017 0.93919 0.0
C1194 C 0.95164 0.77392 0.96967 0.0
C1195 C 0.96393 0.80276 0.97948 0.0
C1196 C 0.97494 0.82274 0.9598 0.0
C1197 C 0.98629 0.84992 0.96915 0.0
C1198 C 0.98695 0.85734 0.99817 0.0
C1199 C 0.97633 0.83757 0.01789 0.0
C1200 C 0.96492 0.81036 0.00865 0.0
C1201 C 0.99472 0.66545 0.97288 0.0
C1202 C 0.9935 0.65949 0.00184 0.0
C1203 C 0.98239 0.68706 0.96305 0.0
C1204 C 0.96857 0.70308 0.98198 0.0
C1205 C 0.96811 0.69774 0.01109 0.0
C1206 C 0.98037 0.67598 0.02094 0.0
C1207 C 0.95387 0.72483 0.9711 0.0
C1208 C 0.96348 0.75234 0.98077 0.0
C1209 C 0.93142 0.71864 0.95022 0.0
C1210 C 0.91944 0.68979 0.9402 0.0
C1211 C 0.90831 0.66966 0.95969 0.0
C1212 C 0.89764 0.64239 0.95018 0.0
C1213 C 0.89776 0.63504 0.9212 0.0
C1214 C 0.90843 0.65496 0.90164 0.0
C1215 C 0.91917 0.68226 0.91104 0.0
H1216 H 0.88955 0.61392 0.9139 0.0
H1217 H 0.99575 0.8784 0.00537 0.0
H1218 H 0.44765 0.76281 0.16538 0.0
H1219 H 0.46872 0.8046 0.14095 0.0
H1220 H 0.38587 0.83137 0.14415 0.0
H1221 H 0.36472 0.78997 0.16927 0.0
H1222 H 0.4156 0.84071 0.09108 0.0
H1223 H 0.43334 0.85699 0.19227 0.0
H1224 H 0.45079 0.84632 0.23931 0.0
H1225 H 0.53754 0.85163 0.20682 0.0
H1226 H 0.52049 0.86194 0.15945 0.0
H1227 H 0.4599 0.98506 0.07536 0.0
H1228 H 0.43895 0.93827 0.08907 0.0
H1229 H 0.52562 0.92071 0.09931 0.0
H1230 H 0.5466 0.96796 0.08684 0.0
H1231 H 0.49476 0.90497 0.1434 0.0
H1232 H 0.4787 0.89073 0.04281 0.0
H1233 H 0.4626 0.90452 0.99646 0.0
H1234 H 0.37484 0.89654 0.02693 0.0
H1235 H 0.39042 0.88278 0.07349 0.0
C1236 C 0.43389 0.7776 0.16099 0.0
C1237 C 0.40457 0.77317 0.1696 0.0
C1238 C 0.44591 0.80133 0.1468 0.0
C1239 C 0.42886 0.82107 0.14089 0.0
C1240 C 0.39931 0.81626 0.14838 0.0
C1241 C 0.38729 0.79258 0.16273 0.0
C1242 C 0.44246 0.84771 0.129 0.0
C1243 C 0.4328 0.85487 0.10252 0.0
C1244 C 0.46525 0.86588 0.14373 0.0
C1245 C 0.47557 0.85993 0.17226 0.0
C1246 C 0.45608 0.85566 0.19511 0.0
C1247 C 0.46591 0.84971 0.22183 0.0
C1248 C 0.49524 0.84822 0.22603 0.0
C1249 C 0.51482 0.85275 0.20353 0.0
C1250 C 0.50509 0.85866 0.17674 0.0
C1251 C 0.47443 0.97106 0.08017 0.0
C1252 C 0.50482 0.98004 0.08021 0.0
C1253 C 0.46246 0.94427 0.08787 0.0
C1254 C 0.48071 0.92583 0.095 0.0
C1255 C 0.51112 0.93457 0.09398 0.0
C1256 C 0.52307 0.96149 0.08675 0.0
C1257 C 0.46815 0.89808 0.10529 0.0
C1258 C 0.47788 0.89072 0.13163 0.0
C1259 C 0.44567 0.8797 0.09028 0.0
C1260 C 0.43576 0.88588 0.06168 0.0
C1261 C 0.45594 0.89181 0.03957 0.0
C1262 C 0.44692 0.89966 0.01328 0.0
C1263 C 0.41776 0.90152 0.0088 0.0
C1264 C 0.39743 0.89509 0.03043 0.0
C1265 C 0.40631 0.88715 0.05675 0.0
H1266 H 0.41095 0.90797 0.98857 0.0
H1267 H 0.50281 0.84362 0.24674 0.0
H1268 H 0.17024 0.3103 0.68517 0.0
H1269 H 0.15192 0.26365 0.665 0.0
H1270 H 0.08892 0.29525 0.61456 0.0
H1271 H 0.1062 0.34155 0.63614 0.0
H1272 H 0.06306 0.25107 0.63486 0.0
H1273 H 0.15351 0.27464 0.58647 0.0
H1274 H 0.20653 0.29069 0.58134 0.0
H1275 H 0.22328 0.2229 0.62921 0.0
H1276 H 0.17034 0.20665 0.63496 0.0
H1277 H 0.03493 0.1349 0.53456 0.0
H1278 H 0.05556 0.18082 0.55528 0.0
H1279 H 0.08472 0.14373 0.6288 0.0
H1280 H 0.06344 0.0976 0.60856 0.0
H1281 H 0.12779 0.18932 0.59672 0.0
H1282 H 0.03371 0.16746 0.64374 0.0
H1283 H 0.98024 0.1521 0.64336 0.0
H1284 H 0.97064 0.21887 0.59048 0.0
H1285 H 0.02414 0.23436 0.59021 0.0
C1286 C 0.15265 0.30715 0.66959 0.0
C1287 C 0.13961 0.32928 0.66201 0.0
C1288 C 0.14227 0.28058 0.65795 0.0
C1289 C 0.11928 0.27589 0.63786 0.0
C1290 C 0.10662 0.29825 0.63002 0.0
C1291 C 0.11653 0.32468 0.64218 0.0
C1292 C 0.10765 0.24756 0.62586 0.0
C1293 C 0.07732 0.23781 0.62623 0.0
C1294 C 0.1261 0.22992 0.61484 0.0
C1295 C 0.15796 0.23959 0.61138 0.0
C1296 C 0.1685 0.26327 0.59608 0.0
C1297 C 0.19854 0.27239 0.59304 0.0
C1298 C 0.21826 0.25787 0.60501 0.0
C1299 C 0.20797 0.23415 0.61999 0.0
C1300 C 0.17796 0.22496 0.62313 0.0
C1301 C 0.04577 0.13651 0.55513 0.0
C1302 C 0.04758 0.11273 0.57 0.0
C1303 C 0.05749 0.1627 0.56689 0.0
C1304 C 0.07162 0.16549 0.59346 0.0
C1305 C 0.07389 0.14183 0.60822 0.0
C1306 C 0.06162 0.1156 0.59673 0.0
C1307 C 0.08359 0.19327 0.60591 0.0
C1308 C 0.11382 0.2028 0.6055 0.0
C1309 C 0.06508 0.21096 0.61623 0.0
C1310 C 0.03292 0.20188 0.61671 0.0
C1311 C 0.02021 0.17871 0.63182 0.0
C1312 C 0.9899 0.17001 0.63177 0.0
C1313 C 0.97206 0.18445 0.61683 0.0
C1314 C 0.98449 0.20768 0.602 0.0
C1315 C 0.0148 0.21644 0.60197 0.0
H1316 H 0.94859 0.17768 0.6168 0.0
H1317 H 0.2415 0.26496 0.60263 0.0
H1318 H 0.7299 0.33922 0.41581 0.0
H1319 H 0.6984 0.3729 0.42661 0.0
H1320 H 0.62853 0.30663 0.44824 0.0
H1321 H 0.66012 0.2729 0.43722 0.0
H1322 H 0.60847 0.34757 0.41925 0.0
H1323 H 0.67014 0.34133 0.49983 0.0
H1324 H 0.71691 0.3421 0.52472 0.0
H1325 H 0.74695 0.42602 0.50183 0.0
H1326 H 0.70048 0.42561 0.47644 0.0
H1327 H 0.5256 0.42539 0.5062 0.0
H1328 H 0.55394 0.39209 0.48658 0.0
H1329 H 0.62626 0.45863 0.47235 0.0
H1330 H 0.59814 0.49194 0.49255 0.0
H1331 H 0.64495 0.41765 0.49608 0.0
H1332 H 0.58235 0.42463 0.41688 0.0
H1333 H 0.53549 0.42378 0.39213 0.0
H1334 H 0.50695 0.33887 0.4123 0.0
H1335 H 0.5535 0.33932 0.43752 0.0
C1336 C 0.70758 0.33189 0.42225 0.0
C1337 C 0.6972 0.30366 0.42559 0.0
C1338 C 0.68969 0.35109 0.42858 0.0
C1339 C 0.66123 0.34231 0.4386 0.0
C1340 C 0.6504 0.31386 0.44056 0.0
C1341 C 0.66837 0.29464 0.43425 0.0
C1342 C 0.64361 0.3629 0.44883 0.0
C1343 C 0.61627 0.36274 0.43623 0.0
C1344 C 0.65404 0.38301 0.47065 0.0
C1345 C 0.68196 0.38334 0.48598 0.0
C1346 C 0.68681 0.35987 0.4999 0.0
C1347 C 0.71325 0.36025 0.51414 0.0
C1348 C 0.73492 0.38407 0.51479 0.0
C1349 C 0.73016 0.40757 0.50127 0.0
C1350 C 0.70377 0.40728 0.48697 0.0
C1351 C 0.54748 0.4329 0.49872 0.0
C1352 C 0.55966 0.46123 0.50082 0.0
C1353 C 0.56362 0.41387 0.48736 0.0
C1354 C 0.59215 0.42284 0.4776 0.0
C1355 C 0.60428 0.4512 0.47964 0.0
C1356 C 0.58819 0.47022 0.49111 0.0
C1357 C 0.60976 0.40256 0.46639 0.0
C1358 C 0.63713 0.40266 0.47893 0.0
C1359 C 0.59931 0.38245 0.44453 0.0
C1360 C 0.57132 0.38209 0.42932 0.0
C1361 C 0.56599 0.40584 0.41623 0.0
C1362 C 0.5395 0.40542 0.40208 0.0
C1363 C 0.51822 0.38131 0.4007 0.0
C1364 C 0.52343 0.35754 0.41341 0.0
C1365 C 0.54988 0.35786 0.42761 0.0
H1366 H 0.49773 0.38102 0.38974 0.0
H1367 H 0.75537 0.38433 0.52583 0.0
loop_
_geom_bond_atom_site_label_1
_geom_bond_atom_site_label_2
_geom_bond_distance
_geom_bond_site_symmetry_2
_ccdc_geom_bond_type
H0 C3 0.929 . S
H1 C6 0.929 . S
H2 C8 0.930 . S
C3 H0 0.929 . S
C3 C4 1.398 . S
C3 C5 1.396 . S
C4 C3 1.398 . S
C4 C8 1.407 . S
C5 C3 1.396 . S
C5 C6 1.394 . S
C6 H1 0.929 . S
C6 C5 1.394 . S
C6 C7 1.382 . S
C7 C6 1.382 . S
C7 C8 1.392 . S
C7 N9 1.420 . S
C8 H2 0.930 . S
C8 C4 1.407 . S
C8 C7 1.392 . S
N9 C7 1.420 . S
N9 C10 1.244 . S
C10 N9 1.244 . S
H11 C14 0.929 . S
H12 C17 0.929 . S
H13 C19 0.930 . S
C14 H11 0.929 . S
C14 C15 1.398 . S
C14 C16 1.396 . S
C15 C14 1.398 . S
C15 C19 1.407 . S
C16 C14 1.396 . S
C16 C17 1.394 . S
C17 H12 0.929 . S
C17 C16 1.394 . S
C17 C18 1.382 . S
C18 C17 1.382 . S
C18 C19 1.392 . S
C18 N20 1.420 . S
C19 H13 0.930 . S
C19 C15 1.407 . S
C19 C18 1.392 . S
N20 C18 1.420 . S
N20 C21 1.244 . S
C21 N20 1.244 . S
H22 C25 0.929 . S
H23 C28 0.929 . S
H24 C30 0.930 . S
C25 H22 0.929 . S
C25 C26 1.398 . S
C25 C27 1.396 . S
C26 C25 1.398 . S
C26 C30 1.407 . S
C27 C25 1.396 . S
C27 C28 1.394 . S
C28 H23 0.929 . S
C28 C27 1.394 . S
C28 C29 1.382 . S
C29 C28 1.382 . S
C29 C30 1.392 . S
C29 N31 1.420 . S
C30 H24 0.930 . S
C30 C26 1.407 . S
C30 C29 1.392 . S
N31 C29 1.420 . S
N31 C32 1.244 . S
C32 N31 1.244 . S
H33 C36 0.929 . S
H34 C39 0.929 . S
H35 C41 0.930 . S
C36 H33 0.929 . S
C36 C37 1.398 . S
C36 C38 1.396 . S
C37 C36 1.398 . S
C37 C41 1.407 . S
C38 C36 1.396 . S
C38 C39 1.394 . S
C39 H34 0.929 . S
C39 C38 1.394 . S
C39 C40 1.382 . S
C40 C39 1.382 . S
C40 C41 1.392 . S
C40 N42 1.420 . S
C41 H35 0.930 . S
C41 C37 1.407 . S
C41 C40 1.392 . S
N42 C40 1.420 . S
N42 C43 1.244 . S
C43 N42 1.244 . S
H44 C47 0.929 . S
H45 C50 0.929 . S
H46 C52 0.930 . S
C47 H44 0.929 . S
C47 C48 1.398 . S
C47 C49 1.396 . S
C48 C47 1.398 . S
C48 C52 1.407 . S
C49 C47 1.396 . S
C49 C50 1.394 . S
C50 H45 0.929 . S
C50 C49 1.394 . S
C50 C51 1.382 . S
C51 C50 1.382 . S
C51 C52 1.392 . S
C51 N53 1.420 . S
C52 H46 0.930 . S
C52 C48 1.407 . S
C52 C51 1.392 . S
N53 C51 1.420 . S
N53 C54 1.244 . S
C54 N53 1.244 . S
H55 C58 0.929 . S
H56 C61 0.929 . S
H57 C63 0.930 . S
C58 H55 0.929 . S
C58 C59 1.398 . S
C58 C60 1.396 . S
C59 C58 1.398 . S
C59 C63 1.407 . S
C60 C58 1.396 . S
C60 C61 1.394 . S
C61 H56 0.929 . S
C61 C60 1.394 . S
C61 C62 1.382 . S
C62 C61 1.382 . S
C62 C63 1.392 . S
C62 N64 1.420 . S
C63 H57 0.930 . S
C63 C59 1.407 . S
C63 C62 1.392 . S
N64 C62 1.420 . S
N64 C65 1.244 . S
C65 N64 1.244 . S
H66 C69 0.929 . S
H67 C72 0.929 . S
H68 C74 0.930 . S
C69 H66 0.929 . S
C69 C70 1.398 . S
C69 C71 1.396 . S
C70 C69 1.398 . S
C70 C74 1.407 . S
C71 C69 1.396 . S
C71 C72 1.394 . S
C72 H67 0.929 . S
C72 C71 1.394 . S
C72 C73 1.382 . S
C73 C72 1.382 . S
C73 C74 1.392 . S
C73 N75 1.420 . S
C74 H68 0.930 . S
C74 C70 1.407 . S
C74 C73 1.392 . S
N75 C73 1.420 . S
N75 C76 1.244 . S
C76 N75 1.244 . S
H77 C80 0.929 . S
H78 C83 0.929 . S
H79 C85 0.930 . S
C80 H77 0.929 . S
C80 C81 1.398 . S
C80 C82 1.396 . S
C81 C80 1.398 . S
C81 C85 1.407 . S
C82 C80 1.396 . S
C82 C83 1.394 . S
C83 H78 0.929 . S
C83 C82 1.394 . S
C83 C84 1.382 . S
C84 C83 1.382 . S
C84 C85 1.392 . S
C84 N86 1.420 . S
C85 H79 0.930 . S
C85 C81 1.407 . S
C85 C84 1.392 . S
N86 C84 1.420 . S
N86 C87 1.244 . S
C87 N86 1.244 . S
Dy88 O92 2.398 . S
Dy88 O93 2.491 . S
Dy88 O94 2.403 . S
Dy88 O95 2.664 . S
Dy88 O99 2.326 . S
Dy88 O103 2.310 1_455 S
Dy88 O104 2.351 1_545 S
C89 O100 1.215 . S
C89 O101 1.355 . S
C90 O92 1.185 . S
C90 O93 1.355 . S
Dy91 O95 2.310 1_655 S
Dy91 O98 2.351 1_655 S
Dy91 O100 2.383 1_545 S
Dy91 O101 2.491 1_545 S
Dy91 O102 2.403 . S
Dy91 O103 2.664 . S
Dy91 O105 2.326 1_545 S
O92 Dy88 2.398 . S
O92 C90 1.185 . S
O93 Dy88 2.491 . S
O93 C90 1.355 . S
O94 Dy88 2.403 . S
O94 C96 1.254 . S
O95 Dy88 2.664 . S
O95 Dy91 2.310 1_455 S
O95 C96 1.268 . S
C96 O94 1.254 . S
C96 O95 1.268 . S
C97 O102 1.254 . S
C97 O103 1.268 . S
O98 Dy91 2.351 1_455 S
O98 C106 1.249 . S
O99 Dy88 2.326 . S
O99 C106 1.267 . S
O100 C89 1.215 . S
O100 Dy91 2.383 1_565 S
O101 C89 1.355 . S
O101 Dy91 2.491 1_565 S
O102 Dy91 2.403 . S
O102 C97 1.254 . S
O103 Dy88 2.310 1_655 S
O103 Dy91 2.664 . S
O103 C97 1.268 . S
O104 Dy88 2.351 1_565 S
O104 C107 1.249 1_455 S
O105 Dy91 2.326 1_565 S
O105 C107 1.267 . S
C106 O98 1.249 . S
C106 O99 1.267 . S
C107 O104 1.249 1_655 S
C107 O105 1.267 . S
Dy108 O112 2.398 . S
Dy108 O113 2.491 . S
Dy108 O114 2.403 1_545 S
Dy108 O115 2.664 . S
Dy108 O119 2.326 . S
Dy108 O123 2.310 . S
Dy108 O124 2.351 . S
C109 O120 1.185 1_565 S
C109 O121 1.355 . S
C110 O112 1.185 . S
C110 O113 1.355 . S
Dy111 O115 2.310 . S
Dy111 O118 2.351 . S
Dy111 O120 2.398 1_554 S
Dy111 O121 2.491 1_544 S
Dy111 O122 2.403 . S
Dy111 O123 2.664 . S
Dy111 O125 2.326 . S
O112 Dy108 2.398 . S
O112 C110 1.185 . S
O113 Dy108 2.491 . S
O113 C110 1.355 . S
O114 Dy108 2.403 1_565 S
O114 C116 1.254 . S
O115 Dy108 2.664 . S
O115 Dy111 2.310 . S
O115 C116 1.268 1_545 S
C116 O114 1.254 . S
C116 O115 1.268 1_565 S
C117 O122 1.254 . S
C117 O123 1.268 . S
O118 Dy111 2.351 . S
O118 C126 1.249 . S
O119 Dy108 2.326 . S
O119 C126 1.267 . S
O120 C109 1.185 1_545 S
O120 Dy111 2.398 1_556 S
O121 C109 1.355 . S
O121 Dy111 2.491 1_566 S
O122 Dy111 2.403 . S
O122 C117 1.254 . S
O123 Dy108 2.310 . S
O123 Dy111 2.664 . S
O123 C117 1.268 . S
O124 Dy108 2.351 . S
O124 C127 1.249 . S
O125 Dy111 2.326 . S
O125 C127 1.267 . S
C126 O118 1.249 . S
C126 O119 1.267 . S
C127 O124 1.249 . S
C127 O125 1.267 . S
Dy128 O132 2.398 . S
Dy128 O133 2.491 . S
Dy128 O134 2.403 . S
Dy128 O135 2.664 . S
Dy128 O139 2.326 . S
Dy128 O143 2.310 . S
Dy128 O144 2.351 . S
C129 O140 1.185 . S
C129 O141 1.355 . S
C130 O132 1.185 . S
C130 O133 1.355 . S
Dy131 O135 2.310 . S
Dy131 O138 2.351 . S
Dy131 O140 2.398 . S
Dy131 O141 2.491 . S
Dy131 O142 2.403 . S
Dy131 O143 2.664 . S
Dy131 O145 2.326 . S
O132 Dy128 2.398 . S
O132 C130 1.185 . S
O133 Dy128 2.491 . S
O133 C130 1.355 . S
O134 Dy128 2.403 . S
O134 C136 1.254 . S
O135 Dy128 2.664 . S
O135 Dy131 2.310 . S
O135 C136 1.268 . S
C136 O134 1.254 . S
C136 O135 1.268 . S
C137 O142 1.254 . S
C137 O143 1.268 . S
O138 Dy131 2.351 . S
O138 C146 1.249 . S
O139 Dy128 2.326 . S
O139 C146 1.267 . S
O140 C129 1.185 . S
O140 Dy131 2.398 . S
O141 C129 1.355 . S
O141 Dy131 2.491 . S
O142 Dy131 2.403 . S
O142 C137 1.254 . S
O143 Dy128 2.310 . S
O143 Dy131 2.664 . S
O143 C137 1.268 . S
O144 Dy128 2.351 . S
O144 C147 1.249 . S
O145 Dy131 2.326 . S
O145 C147 1.267 . S
C146 O138 1.249 . S
C146 O139 1.267 . S
C147 O144 1.249 . S
C147 O145 1.267 . S
Dy148 O152 2.398 . S
Dy148 O153 2.491 . S
Dy148 O154 2.403 . S
Dy148 O155 2.664 . S
Dy148 O159 2.326 . S
Dy148 O163 2.310 . S
Dy148 O164 2.351 1_455 S
C149 O160 1.183 1_655 S
C149 O161 1.355 1_556 S
C150 O152 1.185 . S
C150 O153 1.355 . S
Dy151 O155 2.310 . S
Dy151 O158 2.351 . S
Dy151 O160 2.399 1_554 S
Dy151 O161 2.491 1_455 S
Dy151 O162 2.403 1_554 S
Dy151 O163 2.664 . S
Dy151 O165 2.326 1_454 S
O152 Dy148 2.398 . S
O152 C150 1.185 . S
O153 Dy148 2.491 . S
O153 C150 1.355 . S
O154 Dy148 2.403 . S
O154 C156 1.254 . S
O155 Dy148 2.664 . S
O155 Dy151 2.310 . S
O155 C156 1.268 . S
C156 O154 1.254 . S
C156 O155 1.268 . S
C157 O162 1.254 . S
C157 O163 1.268 1_556 S
O158 Dy151 2.351 . S
O158 C166 1.249 . S
O159 Dy148 2.326 . S
O159 C166 1.267 . S
O160 C149 1.183 1_455 S
O160 Dy151 2.399 1_556 S
O161 C149 1.355 1_554 S
O161 Dy151 2.491 1_655 S
O162 Dy151 2.403 1_556 S
O162 C157 1.254 . S
O163 Dy148 2.310 . S
O163 Dy151 2.664 . S
O163 C157 1.268 1_554 S
O164 Dy148 2.351 1_655 S
O164 C167 1.249 . S
O165 Dy151 2.326 1_656 S
O165 C167 1.267 1_556 S
C166 O158 1.249 . S
C166 O159 1.267 . S
C167 O164 1.249 . S
C167 O165 1.267 1_554 S
H168 C186 0.951 . S
H169 C188 0.951 . S
H170 C190 0.950 . S
H171 C191 0.950 . S
H172 C193 0.950 . S
H173 C196 0.950 . S
H174 C197 0.950 . S
H175 C199 0.950 . S
H176 C200 0.950 . S
H177 C201 0.951 . S
H178 C203 0.951 . S
H179 C205 0.950 . S
H180 C206 0.950 . S
H181 C208 0.950 . S
H182 C211 0.950 . S
H183 C212 0.950 . S
H184 C214 0.950 . S
H185 C215 0.950 . S
C186 H168 0.951 . S
C186 C187 1.366 . S
C186 C188 1.388 . S
C187 C186 1.366 . S
C187 C191 1.385 . S
C188 H169 0.951 . S
C188 C186 1.388 . S
C188 C189 1.366 . S
C189 C188 1.366 . S
C189 C190 1.414 . S
C189 C192 1.499 . S
C190 H170 0.950 . S
C190 C189 1.414 . S
C190 C191 1.374 . S
C191 H171 0.950 . S
C191 C187 1.385 . S
C191 C190 1.374 . S
C192 C189 1.499 . S
C192 C193 1.373 . S
C192 C194 1.389 . S
C193 H172 0.950 . S
C193 C192 1.373 . S
C193 C209 1.377 . S
C194 C192 1.389 . S
C194 C195 1.524 . S
C194 C208 1.377 . S
C195 C194 1.524 . S
C195 C196 1.397 . S
C195 C200 1.363 . S
C196 H173 0.950 . S
C196 C195 1.397 . S
C196 C197 1.334 . S
C197 H174 0.950 . S
C197 C196 1.334 . S
C197 C198 1.287 . S
C198 C197 1.287 . S
C198 C199 1.524 . S
C198 H217 0.913 . S
C199 H175 0.950 . S
C199 C198 1.524 . S
C199 C200 1.415 . S
C200 H176 0.950 . S
C200 C195 1.363 . S
C200 C199 1.415 . S
C201 H177 0.951 . S
C201 C202 1.366 . S
C201 C203 1.388 . S
C202 C201 1.366 . S
C202 C206 1.385 . S
C203 H178 0.951 . S
C203 C201 1.388 . S
C203 C204 1.366 . S
C204 C203 1.366 . S
C204 C205 1.414 . S
C204 C207 1.499 . S
C205 H179 0.950 . S
C205 C204 1.414 . S
C205 C206 1.374 . S
C206 H180 0.950 . S
C206 C202 1.385 . S
C206 C205 1.374 . S
C207 C204 1.499 . S
C207 C208 1.373 . S
C207 C209 1.389 . S
C208 H181 0.950 . S
C208 C194 1.377 . S
C208 C207 1.373 . S
C209 C193 1.377 . S
C209 C207 1.389 . S
C209 C210 1.524 . S
C210 C209 1.524 . S
C210 C211 1.397 . S
C210 C215 1.363 . S
C211 H182 0.950 . S
C211 C210 1.397 . S
C211 C212 1.334 . S
C212 H183 0.950 . S
C212 C211 1.334 . S
C212 C213 1.287 . S
C213 C212 1.287 . S
C213 C214 1.524 . S
C213 H216 0.999 . S
C214 H184 0.950 . S
C214 C213 1.524 . S
C214 C215 1.415 . S
C215 H185 0.950 . S
C215 C210 1.363 . S
C215 C214 1.415 . S
H216 C213 0.999 . S
H217 C198 0.913 . S
H218 C236 0.951 . S
H219 C238 0.951 . S
H220 C240 0.950 . S
H221 C241 0.950 . S
H222 C243 0.950 . S
H223 C246 0.955 . S
H224 C247 0.950 . S
H225 C249 0.950 . S
H226 C250 0.950 . S
H227 C251 0.951 . S
H228 C253 0.951 . S
H229 C255 0.950 . S
H230 C256 0.964 . S
H231 C258 0.950 . S
H232 C261 0.950 . S
H233 C262 0.950 . S
H234 C264 0.950 . S
H235 C265 0.950 . S
C236 H218 0.951 . S
C236 C237 1.366 . S
C236 C238 1.388 . S
C237 C236 1.366 . S
C237 C241 1.385 . S
C238 H219 0.951 . S
C238 C236 1.388 . S
C238 C239 1.366 . S
C239 C238 1.366 . S
C239 C240 1.414 . S
C239 C242 1.499 . S
C240 H220 0.950 . S
C240 C239 1.414 . S
C240 C241 1.374 . S
C241 H221 0.950 . S
C241 C237 1.385 . S
C241 C240 1.374 . S
C242 C239 1.499 . S
C242 C243 1.373 . S
C242 C244 1.389 . S
C243 H222 0.950 . S
C243 C242 1.373 . S
C243 C259 1.377 . S
C244 C242 1.389 . S
C244 C245 1.524 . S
C244 C258 1.377 . S
C245 C244 1.524 . S
C245 C246 1.398 . S
C245 C250 1.363 1_565 S
C246 H223 0.955 . S
C246 C245 1.398 . S
C246 C247 1.328 1_565 S
C247 H224 0.950 . S
C247 C246 1.328 1_545 S
C247 C248 1.287 . S
C248 C247 1.287 . S
C248 C249 1.524 . S
C248 H267 0.913 . S
C249 H225 0.950 . S
C249 C248 1.524 . S
C249 C250 1.415 . S
C250 H226 0.950 . S
C250 C245 1.363 1_545 S
C250 C249 1.415 . S
C251 H227 0.951 . S
C251 C252 1.366 . S
C251 C253 1.388 . S
C252 C251 1.366 . S
C252 C256 1.385 . S
C253 H228 0.951 . S
C253 C251 1.388 . S
C253 C254 1.366 . S
C254 C253 1.366 . S
C254 C255 1.414 . S
C254 C257 1.499 . S
C255 H229 0.950 . S
C255 C254 1.414 . S
C255 C256 1.374 . S
C256 H230 0.964 . S
C256 C252 1.385 . S
C256 C255 1.374 . S
C257 C254 1.499 . S
C257 C258 1.373 . S
C257 C259 1.389 . S
C258 H231 0.950 . S
C258 C244 1.377 . S
C258 C257 1.373 . S
C259 C243 1.377 . S
C259 C257 1.389 . S
C259 C260 1.524 . S
C260 C259 1.524 . S
C260 C261 1.397 . S
C260 C265 1.363 . S
C261 H232 0.950 . S
C261 C260 1.397 . S
C261 C262 1.334 . S
C262 H233 0.950 . S
C262 C261 1.334 . S
C262 C263 1.287 . S
C263 C262 1.287 . S
C263 C264 1.524 . S
C263 H266 0.999 . S
C264 H234 0.950 . S
C264 C263 1.524 . S
C264 C265 1.415 . S
C265 H235 0.950 . S
C265 C260 1.363 . S
C265 C264 1.415 . S
H266 C263 0.999 . S
H267 C248 0.913 . S
H268 C286 0.951 . S
H269 C288 0.951 . S
H270 C290 0.950 . S
H271 C291 0.950 . S
H272 C293 0.950 . S
H273 C296 0.950 . S
H274 C297 0.950 . S
H275 C299 0.950 . S
H276 C300 0.950 . S
H277 C301 0.951 . S
H278 C303 0.951 . S
H279 C305 0.950 . S
H280 C306 0.950 . S
H281 C308 0.950 . S
H282 C311 0.950 . S
H283 C312 0.950 . S
H284 C314 0.950 . S
H285 C315 0.950 . S
C286 H268 0.951 . S
C286 C287 1.366 . S
C286 C288 1.388 . S
C287 C286 1.366 . S
C287 C291 1.385 . S
C288 H269 0.951 . S
C288 C286 1.388 . S
C288 C289 1.366 . S
C289 C288 1.366 . S
C289 C290 1.414 . S
C289 C292 1.499 . S
C290 H270 0.950 . S
C290 C289 1.414 . S
C290 C291 1.374 . S
C291 H271 0.950 . S
C291 C287 1.385 . S
C291 C290 1.374 . S
C292 C289 1.499 . S
C292 C293 1.373 . S
C292 C294 1.389 . S
C293 H272 0.950 . S
C293 C292 1.373 . S
C293 C309 1.377 . S
C294 C292 1.389 . S
C294 C295 1.524 . S
C294 C308 1.377 . S
C295 C294 1.524 . S
C295 C296 1.397 . S
C295 C300 1.363 . S
C296 H273 0.950 . S
C296 C295 1.397 . S
C296 C297 1.334 . S
C297 H274 0.950 . S
C297 C296 1.334 . S
C297 C298 1.287 . S
C298 C297 1.287 . S
C298 C299 1.524 . S
C298 H317 0.913 . S
C299 H275 0.950 . S
C299 C298 1.524 . S
C299 C300 1.415 . S
C300 H276 0.950 . S
C300 C295 1.363 . S
C300 C299 1.415 . S
C301 H277 0.951 . S
C301 C302 1.366 . S
C301 C303 1.388 . S
C302 C301 1.366 . S
C302 C306 1.385 . S
C303 H278 0.951 . S
C303 C301 1.388 . S
C303 C304 1.366 . S
C304 C303 1.366 . S
C304 C305 1.414 . S
C304 C307 1.499 . S
C305 H279 0.950 . S
C305 C304 1.414 . S
C305 C306 1.374 . S
C306 H280 0.950 . S
C306 C302 1.385 . S
C306 C305 1.374 . S
C307 C304 1.499 . S
C307 C308 1.373 . S
C307 C309 1.389 . S
C308 H281 0.950 . S
C308 C294 1.377 . S
C308 C307 1.373 . S
C309 C293 1.377 . S
C309 C307 1.389 . S
C309 C310 1.524 . S
C310 C309 1.524 . S
C310 C311 1.397 . S
C310 C315 1.363 . S
C311 H282 0.950 . S
C311 C310 1.397 . S
C311 C312 1.334 . S
C312 H283 0.950 . S
C312 C311 1.334 . S
C312 C313 1.287 . S
C313 C312 1.287 . S
C313 C314 1.524 . S
C313 H316 0.999 . S
C314 H284 0.950 . S
C314 C313 1.524 . S
C314 C315 1.415 . S
C315 H285 0.950 . S
C315 C310 1.363 . S
C315 C314 1.415 . S
H316 C313 0.999 . S
H317 C298 0.913 . S
H318 C336 0.951 . S
H319 C338 0.951 . S
H320 C340 0.950 . S
H321 C341 0.950 . S
H322 C343 0.950 . S
H323 C346 0.950 . S
H324 C347 0.950 . S
H325 C349 0.950 . S
H326 C350 0.950 . S
H327 C351 0.951 . S
H328 C353 0.951 1_455 S
H329 C355 0.950 . S
H330 C356 0.950 . S
H331 C358 0.950 . S
H332 C361 0.968 . S
H333 C362 0.950 . S
H334 C364 0.950 . S
H335 C365 0.950 . S
C336 H318 0.951 . S
C336 C337 1.366 . S
C336 C338 1.388 . S
C337 C336 1.366 . S
C337 C341 1.385 . S
C338 H319 0.951 . S
C338 C336 1.388 . S
C338 C339 1.366 . S
C339 C338 1.366 . S
C339 C340 1.414 . S
C339 C342 1.499 . S
C340 H320 0.950 . S
C340 C339 1.414 . S
C340 C341 1.374 . S
C341 H321 0.950 . S
C341 C337 1.385 . S
C341 C340 1.374 . S
C342 C339 1.499 . S
C342 C343 1.373 . S
C342 C344 1.389 . S
C343 H322 0.950 . S
C343 C342 1.373 . S
C343 C359 1.377 . S
C344 C342 1.389 . S
C344 C345 1.524 . S
C344 C358 1.377 . S
C345 C344 1.524 . S
C345 C346 1.397 . S
C345 C350 1.363 . S
C346 H323 0.950 . S
C346 C345 1.397 . S
C346 C347 1.334 . S
C347 H324 0.950 . S
C347 C346 1.334 . S
C347 C348 1.287 . S
C348 C347 1.287 . S
C348 C349 1.524 . S
C348 H367 0.913 . S
C349 H325 0.950 . S
C349 C348 1.524 . S
C349 C350 1.415 . S
C350 H326 0.950 . S
C350 C345 1.363 . S
C350 C349 1.415 . S
C351 H327 0.951 . S
C351 C352 1.366 1_455 S
C351 C353 1.388 1_455 S
C352 C351 1.366 1_655 S
C352 C356 1.385 . S
C353 H328 0.951 1_655 S
C353 C351 1.388 1_655 S
C353 C354 1.366 . S
C354 C353 1.366 . S
C354 C355 1.414 . S
C354 C357 1.499 . S
C355 H329 0.950 . S
C355 C354 1.414 . S
C355 C356 1.374 . S
C356 H330 0.950 . S
C356 C352 1.385 . S
C356 C355 1.374 . S
C357 C354 1.499 . S
C357 C358 1.373 . S
C357 C359 1.389 . S
C358 H331 0.950 . S
C358 C344 1.377 . S
C358 C357 1.373 . S
C359 C343 1.377 . S
C359 C357 1.389 . S
C359 C360 1.553 . S
C360 C359 1.553 . S
C360 C361 1.398 . S
C360 C365 1.335 1_655 S
C361 H332 0.968 . S
C361 C360 1.398 . S
C361 C362 1.318 1_655 S
C362 H333 0.950 . S
C362 C361 1.318 1_455 S
C362 C363 1.287 . S
C363 C362 1.287 . S
C363 C364 1.524 . S
C363 H366 0.999 . S
C364 H334 0.950 . S
C364 C363 1.524 . S
C364 C365 1.415 . S
C365 H335 0.950 . S
C365 C360 1.335 1_455 S
C365 C364 1.415 . S
H366 C363 0.999 . S
H367 C348 0.913 . S
H368 C386 0.951 . S
H369 C388 0.951 . S
H370 C390 0.950 . S
H371 C391 0.950 . S
H372 C393 0.950 . S
H373 C396 0.950 . S
H374 C397 0.950 . S
H375 C399 0.950 . S
H376 C400 0.950 . S
H377 C401 0.951 . S
H378 C403 0.951 . S
H379 C405 0.950 . S
H380 C406 0.950 . S
H381 C408 0.950 . S
H382 C411 0.950 . S
H383 C412 0.950 . S
H384 C414 0.950 . S
H385 C415 0.950 . S
C386 H368 0.951 . S
C386 C387 1.366 . S
C386 C388 1.388 . S
C387 C386 1.366 . S
C387 C391 1.385 . S
C388 H369 0.951 . S
C388 C386 1.388 . S
C388 C389 1.366 . S
C389 C388 1.366 . S
C389 C390 1.414 . S
C389 C392 1.499 . S
C390 H370 0.950 . S
C390 C389 1.414 . S
C390 C391 1.374 . S
C391 H371 0.950 . S
C391 C387 1.385 . S
C391 C390 1.374 . S
C392 C389 1.499 . S
C392 C393 1.373 . S
C392 C394 1.389 . S
C393 H372 0.950 . S
C393 C392 1.373 . S
C393 C409 1.377 . S
C394 C392 1.389 . S
C394 C395 1.524 . S
C394 C408 1.377 . S
C395 C394 1.524 . S
C395 C396 1.397 . S
C395 C400 1.363 . S
C396 H373 0.950 . S
C396 C395 1.397 . S
C396 C397 1.334 . S
C397 H374 0.950 . S
C397 C396 1.334 . S
C397 C398 1.287 . S
C398 C397 1.287 . S
C398 C399 1.524 . S
C398 H417 0.913 . S
C399 H375 0.950 . S
C399 C398 1.524 . S
C399 C400 1.415 . S
C400 H376 0.950 . S
C400 C395 1.363 . S
C400 C399 1.415 . S
C401 H377 0.951 . S
C401 C402 1.366 . S
C401 C403 1.388 . S
C402 C401 1.366 . S
C402 C406 1.385 . S
C403 H378 0.951 . S
C403 C401 1.388 . S
C403 C404 1.366 . S
C404 C403 1.366 . S
C404 C405 1.414 . S
C404 C407 1.499 . S
C405 H379 0.950 . S
C405 C404 1.414 . S
C405 C406 1.374 . S
C406 H380 0.950 . S
C406 C402 1.385 . S
C406 C405 1.374 . S
C407 C404 1.499 . S
C407 C408 1.373 . S
C407 C409 1.389 . S
C408 H381 0.950 . S
C408 C394 1.377 . S
C408 C407 1.373 . S
C409 C393 1.377 . S
C409 C407 1.389 . S
C409 C410 1.524 . S
C410 C409 1.524 . S
C410 C411 1.397 . S
C410 C415 1.363 . S
C411 H382 0.950 . S
C411 C410 1.397 . S
C411 C412 1.334 . S
C412 H383 0.950 . S
C412 C411 1.334 . S
C412 C413 1.287 . S
C413 C412 1.287 . S
C413 C414 1.524 . S
C413 H416 0.999 . S
C414 H384 0.950 . S
C414 C413 1.524 . S
C414 C415 1.415 . S
C415 H385 0.950 . S
C415 C410 1.363 . S
C415 C414 1.415 . S
H416 C413 0.999 . S
H417 C398 0.913 . S
H418 C436 0.951 . S
H419 C438 0.951 . S
H420 C440 0.950 . S
H421 C441 0.950 . S
H422 C443 0.950 . S
H423 C446 0.950 . S
H424 C447 0.950 . S
H425 C449 0.950 1_545 S
H426 C450 0.950 1_545 S
H427 C451 0.951 . S
H428 C453 0.951 . S
H429 C455 0.950 . S
H430 C456 0.950 . S
H431 C458 0.950 . S
H432 C461 0.950 1_545 S
H433 C462 0.950 1_545 S
H434 C464 0.950 . S
H435 C465 0.950 . S
C436 H418 0.951 . S
C436 C437 1.366 . S
C436 C438 1.388 . S
C437 C436 1.366 . S
C437 C441 1.385 . S
C438 H419 0.951 . S
C438 C436 1.388 . S
C438 C439 1.366 . S
C439 C438 1.366 . S
C439 C440 1.414 . S
C439 C442 1.499 . S
C440 H420 0.950 . S
C440 C439 1.414 . S
C440 C441 1.374 . S
C441 H421 0.950 . S
C441 C437 1.385 . S
C441 C440 1.374 . S
C442 C439 1.499 . S
C442 C443 1.373 . S
C442 C444 1.389 . S
C443 H422 0.950 . S
C443 C442 1.373 . S
C443 C459 1.377 . S
C444 C442 1.389 . S
C444 C445 1.524 . S
C444 C458 1.377 . S
C445 C444 1.524 . S
C445 C446 1.397 . S
C445 C450 1.363 . S
C446 H423 0.950 . S
C446 C445 1.397 . S
C446 C447 1.334 . S
C447 H424 0.950 . S
C447 C446 1.334 . S
C447 C448 1.287 . S
C448 C447 1.287 . S
C448 C449 1.524 . S
C448 H467 0.913 . S
C449 H425 0.950 1_565 S
C449 C448 1.524 . S
C449 C450 1.415 . S
C450 H426 0.950 1_565 S
C450 C445 1.363 . S
C450 C449 1.415 . S
C451 H427 0.951 . S
C451 C452 1.366 1_565 S
C451 C453 1.388 . S
C452 C451 1.366 1_545 S
C452 C456 1.385 . S
C453 H428 0.951 . S
C453 C451 1.388 . S
C453 C454 1.366 . S
C454 C453 1.366 . S
C454 C455 1.414 1_565 S
C454 C457 1.499 . S
C455 H429 0.950 . S
C455 C454 1.414 1_545 S
C455 C456 1.374 . S
C456 H430 0.950 . S
C456 C452 1.385 . S
C456 C455 1.374 . S
C457 C454 1.499 . S
C457 C458 1.373 . S
C457 C459 1.389 . S
C458 H431 0.950 . S
C458 C444 1.377 . S
C458 C457 1.373 . S
C459 C443 1.377 . S
C459 C457 1.389 . S
C459 C460 1.524 . S
C460 C459 1.524 . S
C460 C461 1.397 . S
C460 C465 1.363 . S
C461 H432 0.950 1_565 S
C461 C460 1.397 . S
C461 C462 1.334 . S
C462 H433 0.950 1_565 S
C462 C461 1.334 . S
C462 C463 1.287 . S
C463 C462 1.287 . S
C463 C464 1.524 . S
C463 H466 0.999 . S
C464 H434 0.950 . S
C464 C463 1.524 . S
C464 C465 1.415 . S
C465 H435 0.950 . S
C465 C460 1.363 . S
C465 C464 1.415 . S
H466 C463 0.999 . S
H467 C448 0.913 . S
H468 C486 0.951 . S
H469 C488 0.951 . S
H470 C490 0.950 . S
H471 C491 0.950 . S
H472 C493 0.950 . S
H473 C496 0.950 . S
H474 C497 0.950 . S
H475 C499 0.950 . S
H476 C500 0.950 . S
H477 C501 0.951 . S
H478 C503 0.951 . S
H479 C505 0.950 . S
H480 C506 0.950 . S
H481 C508 0.950 . S
H482 C511 0.950 . S
H483 C512 0.950 . S
H484 C514 0.950 . S
H485 C515 0.950 . S
C486 H468 0.951 . S
C486 C487 1.366 . S
C486 C488 1.388 . S
C487 C486 1.366 . S
C487 C491 1.385 . S
C488 H469 0.951 . S
C488 C486 1.388 . S
C488 C489 1.366 . S
C489 C488 1.366 . S
C489 C490 1.414 . S
C489 C492 1.499 . S
C490 H470 0.950 . S
C490 C489 1.414 . S
C490 C491 1.374 . S
C491 H471 0.950 . S
C491 C487 1.385 . S
C491 C490 1.374 . S
C492 C489 1.499 . S
C492 C493 1.373 . S
C492 C494 1.389 . S
C493 H472 0.950 . S
C493 C492 1.373 . S
C493 C509 1.377 . S
C494 C492 1.389 . S
C494 C495 1.524 . S
C494 C508 1.377 . S
C495 C494 1.524 . S
C495 C496 1.397 . S
C495 C500 1.363 . S
C496 H473 0.950 . S
C496 C495 1.397 . S
C496 C497 1.334 1_556 S
C497 H474 0.950 . S
C497 C496 1.334 1_554 S
C497 C498 1.287 . S
C498 C497 1.287 . S
C498 C499 1.524 . S
C498 H517 0.913 . S
C499 H475 0.950 . S
C499 C498 1.524 . S
C499 C500 1.415 1_554 S
C500 H476 0.950 . S
C500 C495 1.363 . S
C500 C499 1.415 1_556 S
C501 H477 0.951 . S
C501 C502 1.366 . S
C501 C503 1.388 . S
C502 C501 1.366 . S
C502 C506 1.385 . S
C503 H478 0.951 . S
C503 C501 1.388 . S
C503 C504 1.366 . S
C504 C503 1.366 . S
C504 C505 1.414 . S
C504 C507 1.499 . S
C505 H479 0.950 . S
C505 C504 1.414 . S
C505 C506 1.374 . S
C506 H480 0.950 . S
C506 C502 1.385 . S
C506 C505 1.374 . S
C507 C504 1.499 . S
C507 C508 1.373 . S
C507 C509 1.389 . S
C508 H481 0.950 . S
C508 C494 1.377 . S
C508 C507 1.373 . S
C509 C493 1.377 . S
C509 C507 1.389 . S
C509 C510 1.524 . S
C510 C509 1.524 . S
C510 C511 1.397 . S
C510 C515 1.363 . S
C511 H482 0.950 . S
C511 C510 1.397 . S
C511 C512 1.334 . S
C512 H483 0.950 . S
C512 C511 1.334 . S
C512 C513 1.287 . S
C513 C512 1.287 . S
C513 C514 1.524 . S
C513 H516 0.999 . S
C514 H484 0.950 . S
C514 C513 1.524 . S
C514 C515 1.415 . S
C515 H485 0.950 . S
C515 C510 1.363 . S
C515 C514 1.415 . S
H516 C513 0.999 . S
H517 C498 0.913 . S
H518 C536 0.951 . S
H519 C538 0.951 . S
H520 C540 0.950 . S
H521 C541 0.950 . S
H522 C543 0.950 . S
H523 C546 0.950 . S
H524 C547 0.950 . S
H525 C549 0.950 . S
H526 C550 0.950 . S
H527 C551 0.951 . S
H528 C553 0.951 . S
H529 C555 0.950 . S
H530 C556 0.950 . S
H531 C558 0.950 . S
H532 C561 0.950 . S
H533 C562 0.950 . S
H534 C564 0.950 . S
H535 C565 0.950 . S
C536 H518 0.951 . S
C536 C537 1.366 . S
C536 C538 1.388 . S
C537 C536 1.366 . S
C537 C541 1.385 . S
C538 H519 0.951 . S
C538 C536 1.388 . S
C538 C539 1.366 . S
C539 C538 1.366 . S
C539 C540 1.414 . S
C539 C542 1.499 . S
C540 H520 0.950 . S
C540 C539 1.414 . S
C540 C541 1.374 . S
C541 H521 0.950 . S
C541 C537 1.385 . S
C541 C540 1.374 . S
C542 C539 1.499 . S
C542 C543 1.373 . S
C542 C544 1.389 . S
C543 H522 0.950 . S
C543 C542 1.373 . S
C543 C559 1.377 . S
C544 C542 1.389 . S
C544 C545 1.524 . S
C544 C558 1.377 . S
C545 C544 1.524 . S
C545 C546 1.397 . S
C545 C550 1.363 . S
C546 H523 0.950 . S
C546 C545 1.397 . S
C546 C547 1.334 . S
C547 H524 0.950 . S
C547 C546 1.334 . S
C547 C548 1.287 . S
C548 C547 1.287 . S
C548 C549 1.524 . S
C548 H567 0.913 . S
C549 H525 0.950 . S
C549 C548 1.524 . S
C549 C550 1.415 . S
C550 H526 0.950 . S
C550 C545 1.363 . S
C550 C549 1.415 . S
C551 H527 0.951 . S
C551 C552 1.366 . S
C551 C553 1.388 . S
C552 C551 1.366 . S
C552 C556 1.385 . S
C553 H528 0.951 . S
C553 C551 1.388 . S
C553 C554 1.366 . S
C554 C553 1.366 . S
C554 C555 1.414 . S
C554 C557 1.499 . S
C555 H529 0.950 . S
C555 C554 1.414 . S
C555 C556 1.374 . S
C556 H530 0.950 . S
C556 C552 1.385 . S
C556 C555 1.374 . S
C557 C554 1.499 . S
C557 C558 1.373 . S
C557 C559 1.389 . S
C558 H531 0.950 . S
C558 C544 1.377 . S
C558 C557 1.373 . S
C559 C543 1.377 . S
C559 C557 1.389 . S
C559 C560 1.524 . S
C560 C559 1.524 . S
C560 C561 1.397 . S
C560 C565 1.363 . S
C561 H532 0.950 . S
C561 C560 1.397 . S
C561 C562 1.334 . S
C562 H533 0.950 . S
C562 C561 1.334 . S
C562 C563 1.287 . S
C563 C562 1.287 . S
C563 C564 1.524 . S
C563 H566 0.999 . S
C564 H534 0.950 . S
C564 C563 1.524 . S
C564 C565 1.415 . S
C565 H535 0.950 . S
C565 C560 1.363 . S
C565 C564 1.415 . S
H566 C563 0.999 . S
H567 C548 0.913 . S
H568 C586 0.951 . S
H569 C588 0.951 . S
H570 C590 0.950 . S
H571 C591 0.950 . S
H572 C593 0.950 . S
H573 C596 0.950 . S
H574 C597 0.950 . S
H575 C599 0.950 . S
H576 C600 0.950 . S
H577 C601 0.951 . S
H578 C603 0.951 . S
H579 C605 0.950 . S
H580 C606 0.950 . S
H581 C608 0.950 . S
H582 C611 0.950 . S
H583 C612 0.950 . S
H584 C614 0.950 . S
H585 C615 0.950 . S
C586 H568 0.951 . S
C586 C587 1.366 . S
C586 C588 1.388 . S
C587 C586 1.366 . S
C587 C591 1.385 . S
C588 H569 0.951 . S
C588 C586 1.388 . S
C588 C589 1.366 . S
C589 C588 1.366 . S
C589 C590 1.414 . S
C589 C592 1.499 . S
C590 H570 0.950 . S
C590 C589 1.414 . S
C590 C591 1.374 . S
C591 H571 0.950 . S
C591 C587 1.385 . S
C591 C590 1.374 . S
C592 C589 1.499 . S
C592 C593 1.373 . S
C592 C594 1.389 . S
C593 H572 0.950 . S
C593 C592 1.373 . S
C593 C609 1.377 . S
C594 C592 1.389 . S
C594 C595 1.524 . S
C594 C608 1.377 . S
C595 C594 1.524 . S
C595 C596 1.397 . S
C595 C600 1.363 . S
C596 H573 0.950 . S
C596 C595 1.397 . S
C596 C597 1.334 . S
C597 H574 0.950 . S
C597 C596 1.334 . S
C597 C598 1.287 . S
C598 C597 1.287 . S
C598 C599 1.524 . S
C598 H617 0.913 . S
C599 H575 0.950 . S
C599 C598 1.524 . S
C599 C600 1.415 . S
C600 H576 0.950 . S
C600 C595 1.363 . S
C600 C599 1.415 . S
C601 H577 0.951 . S
C601 C602 1.366 . S
C601 C603 1.388 . S
C602 C601 1.366 . S
C602 C606 1.385 . S
C603 H578 0.951 . S
C603 C601 1.388 . S
C603 C604 1.366 . S
C604 C603 1.366 . S
C604 C605 1.414 . S
C604 C607 1.499 . S
C605 H579 0.950 . S
C605 C604 1.414 . S
C605 C606 1.374 . S
C606 H580 0.950 . S
C606 C602 1.385 . S
C606 C605 1.374 . S
C607 C604 1.499 . S
C607 C608 1.373 . S
C607 C609 1.389 . S
C608 H581 0.950 . S
C608 C594 1.377 . S
C608 C607 1.373 . S
C609 C593 1.377 . S
C609 C607 1.389 . S
C609 C610 1.524 . S
C610 C609 1.524 . S
C610 C611 1.397 . S
C610 C615 1.363 . S
C611 H582 0.950 . S
C611 C610 1.397 . S
C611 C612 1.334 . S
C612 H583 0.950 . S
C612 C611 1.334 . S
C612 C613 1.287 . S
C613 C612 1.287 . S
C613 C614 1.524 . S
C613 H616 0.999 . S
C614 H584 0.950 . S
C614 C613 1.524 . S
C614 C615 1.415 . S
C615 H585 0.950 . S
C615 C610 1.363 . S
C615 C614 1.415 . S
H616 C613 0.999 . S
H617 C598 0.913 . S
H618 C636 0.951 . S
H619 C638 0.951 . S
H620 C640 0.950 . S
H621 C641 0.950 . S
H622 C643 0.950 . S
H623 C646 0.950 . S
H624 C647 0.950 . S
H625 C649 0.950 . S
H626 C650 0.950 . S
H627 C651 0.951 . S
H628 C653 0.951 . S
H629 C655 0.950 . S
H630 C656 0.950 . S
H631 C658 0.950 . S
H632 C661 0.927 1_556 S
H633 C662 0.950 . S
H634 C664 0.950 . S
H635 C665 0.950 . S
C636 H618 0.951 . S
C636 C637 1.366 . S
C636 C638 1.388 . S
C637 C636 1.366 . S
C637 C641 1.385 . S
C638 H619 0.951 . S
C638 C636 1.388 . S
C638 C639 1.366 . S
C639 C638 1.366 . S
C639 C640 1.414 . S
C639 C642 1.499 . S
C640 H620 0.950 . S
C640 C639 1.414 . S
C640 C641 1.374 . S
C641 H621 0.950 . S
C641 C637 1.385 . S
C641 C640 1.374 . S
C642 C639 1.499 . S
C642 C643 1.373 . S
C642 C644 1.389 . S
C643 H622 0.950 . S
C643 C642 1.373 . S
C643 C659 1.377 . S
C644 C642 1.389 . S
C644 C645 1.524 . S
C644 C658 1.377 . S
C645 C644 1.524 . S
C645 C646 1.397 . S
C645 C650 1.363 . S
C646 H623 0.950 . S
C646 C645 1.397 . S
C646 C647 1.334 . S
C647 H624 0.950 . S
C647 C646 1.334 . S
C647 C648 1.287 . S
C648 C647 1.287 . S
C648 C649 1.524 . S
C648 H667 0.913 . S
C649 H625 0.950 . S
C649 C648 1.524 . S
C649 C650 1.415 . S
C650 H626 0.950 . S
C650 C645 1.363 . S
C650 C649 1.415 . S
C651 H627 0.951 . S
C651 C652 1.366 . S
C651 C653 1.388 . S
C652 C651 1.366 . S
C652 C656 1.385 1_554 S
C653 H628 0.951 . S
C653 C651 1.388 . S
C653 C654 1.366 1_554 S
C654 C653 1.366 1_556 S
C654 C655 1.414 . S
C654 C657 1.499 . S
C655 H629 0.950 . S
C655 C654 1.414 . S
C655 C656 1.374 . S
C656 H630 0.950 . S
C656 C652 1.385 1_556 S
C656 C655 1.374 . S
C657 C654 1.499 . S
C657 C658 1.373 . S
C657 C659 1.389 . S
C658 H631 0.950 . S
C658 C644 1.377 . S
C658 C657 1.373 . S
C659 C643 1.377 . S
C659 C657 1.389 . S
C659 C660 1.524 1_556 S
C660 C659 1.524 1_554 S
C660 C661 1.397 . S
C660 C665 1.363 . S
C661 H632 0.927 1_554 S
C661 C660 1.397 . S
C661 C662 1.334 . S
C662 H633 0.950 . S
C662 C661 1.334 . S
C662 C663 1.287 . S
C663 C662 1.287 . S
C663 C664 1.524 . S
C663 H666 0.999 . S
C664 H634 0.950 . S
C664 C663 1.524 . S
C664 C665 1.415 . S
C665 H635 0.950 . S
C665 C660 1.363 . S
C665 C664 1.415 . S
H666 C663 0.999 . S
H667 C648 0.913 . S
H668 C686 0.951 . S
H669 C688 0.951 . S
H670 C690 0.950 . S
H671 C691 0.950 . S
H672 C693 0.950 . S
H673 C696 0.950 . S
H674 C697 0.950 . S
H675 C699 0.950 . S
H676 C700 0.950 . S
H677 C701 0.951 . S
H678 C703 0.951 . S
H679 C705 0.950 . S
H680 C706 0.950 . S
H681 C708 0.950 . S
H682 C711 0.950 1_655 S
H683 C712 0.950 . S
H684 C714 0.950 . S
H685 C715 0.950 1_655 S
C686 H668 0.951 . S
C686 C687 1.366 . S
C686 C688 1.388 . S
C687 C686 1.366 . S
C687 C691 1.385 . S
C688 H669 0.951 . S
C688 C686 1.388 . S
C688 C689 1.366 . S
C689 C688 1.366 . S
C689 C690 1.414 . S
C689 C692 1.499 . S
C690 H670 0.950 . S
C690 C689 1.414 . S
C690 C691 1.374 . S
C691 H671 0.950 . S
C691 C687 1.385 . S
C691 C690 1.374 . S
C692 C689 1.499 . S
C692 C693 1.373 . S
C692 C694 1.389 . S
C693 H672 0.950 . S
C693 C692 1.373 . S
C693 C709 1.377 . S
C694 C692 1.389 . S
C694 C695 1.524 . S
C694 C708 1.377 . S
C695 C694 1.524 . S
C695 C696 1.397 . S
C695 C700 1.363 . S
C696 H673 0.950 . S
C696 C695 1.397 . S
C696 C697 1.334 . S
C697 H674 0.950 . S
C697 C696 1.334 . S
C697 C698 1.287 . S
C698 C697 1.287 . S
C698 C699 1.524 . S
C698 H717 0.913 . S
C699 H675 0.950 . S
C699 C698 1.524 . S
C699 C700 1.415 . S
C700 H676 0.950 . S
C700 C695 1.363 . S
C700 C699 1.415 . S
C701 H677 0.951 . S
C701 C702 1.366 . S
C701 C703 1.388 . S
C702 C701 1.366 . S
C702 C706 1.385 . S
C703 H678 0.951 . S
C703 C701 1.388 . S
C703 C704 1.366 . S
C704 C703 1.366 . S
C704 C705 1.414 . S
C704 C707 1.499 . S
C705 H679 0.950 . S
C705 C704 1.414 . S
C705 C706 1.374 . S
C706 H680 0.950 . S
C706 C702 1.385 . S
C706 C705 1.374 . S
C707 C704 1.499 . S
C707 C708 1.373 . S
C707 C709 1.389 . S
C708 H681 0.950 . S
C708 C694 1.377 . S
C708 C707 1.373 . S
C709 C693 1.377 . S
C709 C707 1.389 . S
C709 C710 1.524 . S
C710 C709 1.524 . S
C710 C711 1.397 1_655 S
C710 C715 1.363 1_655 S
C711 H682 0.950 1_455 S
C711 C710 1.397 1_455 S
C711 C712 1.334 . S
C712 H683 0.950 . S
C712 C711 1.334 . S
C712 C713 1.287 . S
C713 C712 1.287 . S
C713 C714 1.524 . S
C713 H716 0.999 . S
C714 H684 0.950 . S
C714 C713 1.524 . S
C714 C715 1.415 . S
C715 H685 0.950 1_455 S
C715 C710 1.363 1_455 S
C715 C714 1.415 . S
H716 C713 0.999 . S
H717 C698 0.913 . S
H718 C736 0.951 . S
H719 C738 0.951 . S
H720 C740 0.950 . S
H721 C741 0.950 . S
H722 C743 0.950 . S
H723 C746 0.950 . S
H724 C747 0.950 . S
H725 C749 0.950 . S
H726 C750 0.950 . S
H727 C751 0.951 . S
H728 C753 0.951 . S
H729 C755 0.950 . S
H730 C756 0.950 . S
H731 C758 0.950 . S
H732 C761 0.950 . S
H733 C762 0.950 . S
H734 C764 0.950 . S
H735 C765 0.950 . S
C736 H718 0.951 . S
C736 C737 1.366 . S
C736 C738 1.388 . S
C737 C736 1.366 . S
C737 C741 1.385 . S
C738 H719 0.951 . S
C738 C736 1.388 . S
C738 C739 1.366 . S
C739 C738 1.366 . S
C739 C740 1.414 . S
C739 C742 1.499 . S
C740 H720 0.950 . S
C740 C739 1.414 . S
C740 C741 1.374 . S
C741 H721 0.950 . S
C741 C737 1.385 . S
C741 C740 1.374 . S
C742 C739 1.499 . S
C742 C743 1.373 . S
C742 C744 1.389 . S
C743 H722 0.950 . S
C743 C742 1.373 . S
C743 C759 1.377 . S
C744 C742 1.389 . S
C744 C745 1.524 . S
C744 C758 1.377 . S
C745 C744 1.524 . S
C745 C746 1.397 . S
C745 C750 1.363 . S
C746 H723 0.950 . S
C746 C745 1.397 . S
C746 C747 1.334 . S
C747 H724 0.950 . S
C747 C746 1.334 . S
C747 C748 1.287 . S
C748 C747 1.287 . S
C748 C749 1.524 . S
C748 H767 0.913 . S
C749 H725 0.950 . S
C749 C748 1.524 . S
C749 C750 1.415 . S
C750 H726 0.950 . S
C750 C745 1.363 . S
C750 C749 1.415 . S
C751 H727 0.951 . S
C751 C752 1.366 . S
C751 C753 1.388 . S
C752 C751 1.366 . S
C752 C756 1.385 . S
C753 H728 0.951 . S
C753 C751 1.388 . S
C753 C754 1.366 . S
C754 C753 1.366 . S
C754 C755 1.414 . S
C754 C757 1.499 . S
C755 H729 0.950 . S
C755 C754 1.414 . S
C755 C756 1.374 . S
C756 H730 0.950 . S
C756 C752 1.385 . S
C756 C755 1.374 . S
C757 C754 1.499 . S
C757 C758 1.373 . S
C757 C759 1.389 . S
C758 H731 0.950 . S
C758 C744 1.377 . S
C758 C757 1.373 . S
C759 C743 1.377 . S
C759 C757 1.389 . S
C759 C760 1.524 . S
C760 C759 1.524 . S
C760 C761 1.397 . S
C760 C765 1.363 . S
C761 H732 0.950 . S
C761 C760 1.397 . S
C761 C762 1.334 . S
C762 H733 0.950 . S
C762 C761 1.334 . S
C762 C763 1.287 . S
C763 C762 1.287 . S
C763 C764 1.524 . S
C763 H766 0.999 . S
C764 H734 0.950 . S
C764 C763 1.524 . S
C764 C765 1.415 . S
C765 H735 0.950 . S
C765 C760 1.363 . S
C765 C764 1.415 . S
H766 C763 0.999 . S
H767 C748 0.913 . S
H768 C786 0.951 . S
H769 C788 0.951 . S
H770 C790 0.950 . S
H771 C791 0.950 . S
H772 C793 0.950 . S
H773 C796 0.950 . S
H774 C797 0.950 . S
H775 C799 0.950 . S
H776 C800 0.950 . S
H777 C801 0.951 . S
H778 C803 0.951 . S
H779 C805 0.950 . S
H780 C806 0.950 . S
H781 C808 0.950 . S
H782 C811 0.950 . S
H783 C812 0.950 1_545 S
H784 C814 0.950 . S
H785 C815 0.950 . S
C786 H768 0.951 . S
C786 C787 1.366 . S
C786 C788 1.388 . S
C787 C786 1.366 . S
C787 C791 1.385 . S
C788 H769 0.951 . S
C788 C786 1.388 . S
C788 C789 1.366 . S
C789 C788 1.366 . S
C789 C790 1.414 . S
C789 C792 1.499 . S
C790 H770 0.950 . S
C790 C789 1.414 . S
C790 C791 1.374 . S
C791 H771 0.950 . S
C791 C787 1.385 . S
C791 C790 1.374 . S
C792 C789 1.499 . S
C792 C793 1.373 . S
C792 C794 1.389 . S
C793 H772 0.950 . S
C793 C792 1.373 . S
C793 C809 1.377 . S
C794 C792 1.389 . S
C794 C795 1.524 . S
C794 C808 1.377 . S
C795 C794 1.524 . S
C795 C796 1.397 . S
C795 C800 1.363 . S
C796 H773 0.950 . S
C796 C795 1.397 . S
C796 C797 1.334 . S
C797 H774 0.950 . S
C797 C796 1.334 . S
C797 C798 1.287 . S
C798 C797 1.287 . S
C798 C799 1.524 . S
C798 H817 0.913 . S
C799 H775 0.950 . S
C799 C798 1.524 . S
C799 C800 1.415 . S
C800 H776 0.950 . S
C800 C795 1.363 . S
C800 C799 1.415 . S
C801 H777 0.951 . S
C801 C802 1.366 . S
C801 C803 1.388 . S
C802 C801 1.366 . S
C802 C806 1.385 . S
C803 H778 0.951 . S
C803 C801 1.388 . S
C803 C804 1.366 . S
C804 C803 1.366 . S
C804 C805 1.414 . S
C804 C807 1.499 . S
C805 H779 0.950 . S
C805 C804 1.414 . S
C805 C806 1.374 . S
C806 H780 0.950 . S
C806 C802 1.385 . S
C806 C805 1.374 . S
C807 C804 1.499 . S
C807 C808 1.373 . S
C807 C809 1.389 . S
C808 H781 0.950 . S
C808 C794 1.377 . S
C808 C807 1.373 . S
C809 C793 1.377 . S
C809 C807 1.389 . S
C809 C810 1.524 . S
C810 C809 1.524 . S
C810 C811 1.397 . S
C810 C815 1.363 . S
C811 H782 0.950 . S
C811 C810 1.397 . S
C811 C812 1.334 . S
C812 H783 0.950 1_565 S
C812 C811 1.334 . S
C812 C813 1.287 1_565 S
C813 C812 1.287 1_545 S
C813 C814 1.524 1_545 S
C813 H816 0.999 . S
C814 H784 0.950 . S
C814 C813 1.524 1_565 S
C814 C815 1.415 . S
C815 H785 0.950 . S
C815 C810 1.363 . S
C815 C814 1.415 . S
H816 C813 0.999 . S
H817 C798 0.913 . S
H818 C836 0.951 . S
H819 C838 0.951 . S
H820 C840 0.950 . S
H821 C841 0.950 . S
H822 C843 0.950 . S
H823 C846 0.950 . S
H824 C847 0.950 . S
H825 C849 0.950 . S
H826 C850 0.950 . S
H827 C851 0.951 . S
H828 C853 0.951 . S
H829 C855 0.950 . S
H830 C856 0.950 . S
H831 C858 0.950 . S
H832 C861 0.950 . S
H833 C862 0.950 . S
H834 C864 0.950 . S
H835 C865 0.950 . S
C836 H818 0.951 . S
C836 C837 1.366 . S
C836 C838 1.388 . S
C837 C836 1.366 . S
C837 C841 1.385 . S
C838 H819 0.951 . S
C838 C836 1.388 . S
C838 C839 1.366 . S
C839 C838 1.366 . S
C839 C840 1.414 . S
C839 C842 1.499 . S
C840 H820 0.950 . S
C840 C839 1.414 . S
C840 C841 1.374 . S
C841 H821 0.950 . S
C841 C837 1.385 . S
C841 C840 1.374 . S
C842 C839 1.499 . S
C842 C843 1.373 . S
C842 C844 1.389 . S
C843 H822 0.950 . S
C843 C842 1.373 . S
C843 C859 1.377 . S
C844 C842 1.389 . S
C844 C845 1.524 . S
C844 C858 1.377 . S
C845 C844 1.524 . S
C845 C846 1.397 . S
C845 C850 1.363 . S
C846 H823 0.950 . S
C846 C845 1.397 . S
C846 C847 1.334 . S
C847 H824 0.950 . S
C847 C846 1.334 . S
C847 C848 1.287 . S
C848 C847 1.287 . S
C848 C849 1.524 . S
C848 H867 0.913 . S
C849 H825 0.950 . S
C849 C848 1.524 . S
C849 C850 1.415 . S
C850 H826 0.950 . S
C850 C845 1.363 . S
C850 C849 1.415 . S
C851 H827 0.951 . S
C851 C852 1.366 . S
C851 C853 1.388 . S
C852 C851 1.366 . S
C852 C856 1.385 . S
C853 H828 0.951 . S
C853 C851 1.388 . S
C853 C854 1.366 . S
C854 C853 1.366 . S
C854 C855 1.414 . S
C854 C857 1.499 . S
C855 H829 0.950 . S
C855 C854 1.414 . S
C855 C856 1.374 . S
C856 H830 0.950 . S
C856 C852 1.385 . S
C856 C855 1.374 . S
C857 C854 1.499 . S
C857 C858 1.373 . S
C857 C859 1.389 . S
C858 H831 0.950 . S
C858 C844 1.377 . S
C858 C857 1.373 . S
C859 C843 1.377 . S
C859 C857 1.389 . S
C859 C860 1.524 . S
C860 C859 1.524 . S
C860 C861 1.397 . S
C860 C865 1.363 . S
C861 H832 0.950 . S
C861 C860 1.397 . S
C861 C862 1.334 . S
C862 H833 0.950 . S
C862 C861 1.334 . S
C862 C863 1.287 . S
C863 C862 1.287 . S
C863 C864 1.524 . S
C863 H866 0.999 . S
C864 H834 0.950 . S
C864 C863 1.524 . S
C864 C865 1.415 . S
C865 H835 0.950 . S
C865 C860 1.363 . S
C865 C864 1.415 . S
H866 C863 0.999 . S
H867 C848 0.913 . S
H868 C886 0.951 . S
H869 C888 0.951 . S
H870 C890 0.950 . S
H871 C891 0.950 . S
H872 C893 0.950 . S
H873 C896 0.950 . S
H874 C897 0.950 . S
H875 C899 0.950 . S
H876 C900 0.950 . S
H877 C901 0.951 . S
H878 C903 0.951 . S
H879 C905 0.950 . S
H880 C906 0.950 . S
H881 C908 0.950 . S
H882 C911 0.950 . S
H883 C912 0.950 . S
H884 C914 0.950 . S
H885 C915 0.950 . S
C886 H868 0.951 . S
C886 C887 1.366 . S
C886 C888 1.388 . S
C887 C886 1.366 . S
C887 C891 1.385 . S
C888 H869 0.951 . S
C888 C886 1.388 . S
C888 C889 1.366 . S
C889 C888 1.366 . S
C889 C890 1.414 . S
C889 C892 1.499 . S
C890 H870 0.950 . S
C890 C889 1.414 . S
C890 C891 1.374 . S
C891 H871 0.950 . S
C891 C887 1.385 . S
C891 C890 1.374 . S
C892 C889 1.499 . S
C892 C893 1.373 . S
C892 C894 1.389 . S
C893 H872 0.950 . S
C893 C892 1.373 . S
C893 C909 1.377 . S
C894 C892 1.389 . S
C894 C895 1.524 . S
C894 C908 1.377 . S
C895 C894 1.524 . S
C895 C896 1.397 . S
C895 C900 1.363 . S
C896 H873 0.950 . S
C896 C895 1.397 . S
C896 C897 1.334 . S
C897 H874 0.950 . S
C897 C896 1.334 . S
C897 C898 1.287 . S
C898 C897 1.287 . S
C898 C899 1.524 . S
C898 H917 0.913 . S
C899 H875 0.950 . S
C899 C898 1.524 . S
C899 C900 1.415 . S
C900 H876 0.950 . S
C900 C895 1.363 . S
C900 C899 1.415 . S
C901 H877 0.951 . S
C901 C902 1.366 . S
C901 C903 1.388 . S
C902 C901 1.366 . S
C902 C906 1.385 . S
C903 H878 0.951 . S
C903 C901 1.388 . S
C903 C904 1.366 . S
C904 C903 1.366 . S
C904 C905 1.414 . S
C904 C907 1.499 . S
C905 H879 0.950 . S
C905 C904 1.414 . S
C905 C906 1.374 . S
C906 H880 0.950 . S
C906 C902 1.385 . S
C906 C905 1.374 . S
C907 C904 1.499 . S
C907 C908 1.373 . S
C907 C909 1.389 . S
C908 H881 0.950 . S
C908 C894 1.377 . S
C908 C907 1.373 . S
C909 C893 1.377 . S
C909 C907 1.389 . S
C909 C910 1.524 . S
C910 C909 1.524 . S
C910 C911 1.397 . S
C910 C915 1.363 . S
C911 H882 0.950 . S
C911 C910 1.397 . S
C911 C912 1.334 . S
C912 H883 0.950 . S
C912 C911 1.334 . S
C912 C913 1.287 . S
C913 C912 1.287 . S
C913 C914 1.524 . S
C913 H916 0.999 . S
C914 H884 0.950 . S
C914 C913 1.524 . S
C914 C915 1.415 . S
C915 H885 0.950 . S
C915 C910 1.363 . S
C915 C914 1.415 . S
H916 C913 0.999 . S
H917 C898 0.913 . S
H918 C936 0.951 . S
H919 C938 0.951 . S
H920 C940 0.950 . S
H921 C941 0.950 . S
H922 C943 0.950 . S
H923 C946 0.950 . S
H924 C947 0.950 . S
H925 C949 0.950 . S
H926 C950 0.950 . S
H927 C951 0.951 . S
H928 C953 0.951 . S
H929 C955 0.950 . S
H930 C956 0.950 . S
H931 C958 0.950 . S
H932 C961 0.950 . S
H933 C962 0.950 . S
H934 C964 0.950 . S
H935 C965 0.950 . S
C936 H918 0.951 . S
C936 C937 1.366 . S
C936 C938 1.388 . S
C937 C936 1.366 . S
C937 C941 1.385 . S
C938 H919 0.951 . S
C938 C936 1.388 . S
C938 C939 1.366 . S
C939 C938 1.366 . S
C939 C940 1.414 . S
C939 C942 1.499 . S
C940 H920 0.950 . S
C940 C939 1.414 . S
C940 C941 1.374 . S
C941 H921 0.950 . S
C941 C937 1.385 . S
C941 C940 1.374 . S
C942 C939 1.499 . S
C942 C943 1.373 . S
C942 C944 1.389 . S
C943 H922 0.950 . S
C943 C942 1.373 . S
C943 C959 1.377 . S
C944 C942 1.389 . S
C944 C945 1.524 . S
C944 C958 1.377 . S
C945 C944 1.524 . S
C945 C946 1.397 . S
C945 C950 1.363 . S
C946 H923 0.950 . S
C946 C945 1.397 . S
C946 C947 1.334 . S
C947 H924 0.950 . S
C947 C946 1.334 . S
C947 C948 1.287 . S
C948 C947 1.287 . S
C948 C949 1.524 . S
C948 H967 0.913 . S
C949 H925 0.950 . S
C949 C948 1.524 . S
C949 C950 1.415 . S
C950 H926 0.950 . S
C950 C945 1.363 . S
C950 C949 1.415 . S
C951 H927 0.951 . S
C951 C952 1.366 . S
C951 C953 1.388 . S
C952 C951 1.366 . S
C952 C956 1.385 . S
C953 H928 0.951 . S
C953 C951 1.388 . S
C953 C954 1.366 . S
C954 C953 1.366 . S
C954 C955 1.414 . S
C954 C957 1.499 . S
C955 H929 0.950 . S
C955 C954 1.414 . S
C955 C956 1.374 . S
C956 H930 0.950 . S
C956 C952 1.385 . S
C956 C955 1.374 . S
C957 C954 1.499 . S
C957 C958 1.373 . S
C957 C959 1.389 . S
C958 H931 0.950 . S
C958 C944 1.377 . S
C958 C957 1.373 . S
C959 C943 1.377 . S
C959 C957 1.389 . S
C959 C960 1.524 . S
C960 C959 1.524 . S
C960 C961 1.397 . S
C960 C965 1.363 . S
C961 H932 0.950 . S
C961 C960 1.397 . S
C961 C962 1.334 . S
C962 H933 0.950 . S
C962 C961 1.334 . S
C962 C963 1.287 . S
C963 C962 1.287 . S
C963 C964 1.524 . S
C963 H966 0.999 . S
C964 H934 0.950 . S
C964 C963 1.524 . S
C964 C965 1.415 . S
C965 H935 0.950 . S
C965 C960 1.363 . S
C965 C964 1.415 . S
H966 C963 0.999 . S
H967 C948 0.913 . S
H968 C986 0.951 . S
H969 C988 0.951 . S
H970 C990 0.950 . S
H971 C991 0.950 . S
H972 C993 0.950 . S
H973 C996 0.950 . S
H974 C997 0.950 . S
H975 C999 0.950 . S
H976 C1000 0.950 . S
H977 C1001 0.951 1_545 S
H978 C1003 0.951 . S
H979 C1005 0.950 . S
H980 C1006 0.950 . S
H981 C1008 0.950 . S
H982 C1011 0.950 . S
H983 C1012 0.950 . S
H984 C1014 0.950 . S
H985 C1015 0.950 . S
C986 H968 0.951 . S
C986 C987 1.366 . S
C986 C988 1.388 . S
C987 C986 1.366 . S
C987 C991 1.385 . S
C988 H969 0.951 . S
C988 C986 1.388 . S
C988 C989 1.366 . S
C989 C988 1.366 . S
C989 C990 1.414 . S
C989 C992 1.499 . S
C990 H970 0.950 . S
C990 C989 1.414 . S
C990 C991 1.374 . S
C991 H971 0.950 . S
C991 C987 1.385 . S
C991 C990 1.374 . S
C992 C989 1.499 . S
C992 C993 1.373 . S
C992 C994 1.389 . S
C993 H972 0.950 . S
C993 C992 1.373 . S
C993 C1009 1.377 . S
C994 C992 1.389 . S
C994 C995 1.524 . S
C994 C1008 1.377 . S
C995 C994 1.524 . S
C995 C996 1.397 . S
C995 C1000 1.363 . S
C996 H973 0.950 . S
C996 C995 1.397 . S
C996 C997 1.334 . S
C997 H974 0.950 . S
C997 C996 1.334 . S
C997 C998 1.287 . S
C998 C997 1.287 . S
C998 C999 1.524 . S
C998 H1017 0.913 . S
C999 H975 0.950 . S
C999 C998 1.524 . S
C999 C1000 1.415 . S
C1000 H976 0.950 . S
C1000 C995 1.363 . S
C1000 C999 1.415 . S
C1001 H977 0.951 1_565 S
C1001 C1002 1.366 1_556 S
C1001 C1003 1.388 . S
C1002 C1001 1.366 1_554 S
C1002 C1006 1.385 . S
C1003 H978 0.951 . S
C1003 C1001 1.388 . S
C1003 C1004 1.366 . S
C1004 C1003 1.366 . S
C1004 C1005 1.414 1_556 S
C1004 C1007 1.499 . S
C1005 H979 0.950 . S
C1005 C1004 1.414 1_554 S
C1005 C1006 1.374 . S
C1006 H980 0.950 . S
C1006 C1002 1.385 . S
C1006 C1005 1.374 . S
C1007 C1004 1.499 . S
C1007 C1008 1.373 . S
C1007 C1009 1.389 . S
C1008 H981 0.950 . S
C1008 C994 1.377 . S
C1008 C1007 1.373 . S
C1009 C993 1.377 . S
C1009 C1007 1.389 . S
C1009 C1010 1.524 . S
C1010 C1009 1.524 . S
C1010 C1011 1.397 . S
C1010 C1015 1.363 . S
C1011 H982 0.950 . S
C1011 C1010 1.397 . S
C1011 C1012 1.334 1_565 S
C1012 H983 0.950 . S
C1012 C1011 1.334 1_545 S
C1012 C1013 1.287 . S
C1013 C1012 1.287 . S
C1013 C1014 1.524 . S
C1013 H1016 0.999 . S
C1014 H984 0.950 . S
C1014 C1013 1.524 . S
C1014 C1015 1.415 1_545 S
C1015 H985 0.950 . S
C1015 C1010 1.363 . S
C1015 C1014 1.415 1_565 S
H1016 C1013 0.999 . S
H1017 C998 0.913 . S
H1018 C1036 0.951 . S
H1019 C1038 0.951 . S
H1020 C1040 0.950 . S
H1021 C1041 0.950 . S
H1022 C1043 0.950 . S
H1023 C1046 0.950 . S
H1024 C1047 0.950 . S
H1025 C1049 0.950 . S
H1026 C1050 0.950 . S
H1027 C1051 0.951 . S
H1028 C1053 0.951 . S
H1029 C1055 0.950 . S
H1030 C1056 0.950 . S
H1031 C1058 0.950 . S
H1032 C1061 0.950 . S
H1033 C1062 0.950 . S
H1034 C1064 0.950 . S
H1035 C1065 0.950 . S
C1036 H1018 0.951 . S
C1036 C1037 1.366 . S
C1036 C1038 1.388 . S
C1037 C1036 1.366 . S
C1037 C1041 1.385 . S
C1038 H1019 0.951 . S
C1038 C1036 1.388 . S
C1038 C1039 1.366 . S
C1039 C1038 1.366 . S
C1039 C1040 1.414 . S
C1039 C1042 1.499 . S
C1040 H1020 0.950 . S
C1040 C1039 1.414 . S
C1040 C1041 1.374 . S
C1041 H1021 0.950 . S
C1041 C1037 1.385 . S
C1041 C1040 1.374 . S
C1042 C1039 1.499 . S
C1042 C1043 1.373 . S
C1042 C1044 1.389 . S
C1043 H1022 0.950 . S
C1043 C1042 1.373 . S
C1043 C1059 1.377 . S
C1044 C1042 1.389 . S
C1044 C1045 1.524 . S
C1044 C1058 1.377 . S
C1045 C1044 1.524 . S
C1045 C1046 1.397 . S
C1045 C1050 1.363 . S
C1046 H1023 0.950 . S
C1046 C1045 1.397 . S
C1046 C1047 1.334 . S
C1047 H1024 0.950 . S
C1047 C1046 1.334 . S
C1047 C1048 1.287 . S
C1048 C1047 1.287 . S
C1048 C1049 1.524 . S
C1048 H1067 0.913 . S
C1049 H1025 0.950 . S
C1049 C1048 1.524 . S
C1049 C1050 1.415 . S
C1050 H1026 0.950 . S
C1050 C1045 1.363 . S
C1050 C1049 1.415 . S
C1051 H1027 0.951 . S
C1051 C1052 1.366 . S
C1051 C1053 1.388 . S
C1052 C1051 1.366 . S
C1052 C1056 1.385 . S
C1053 H1028 0.951 . S
C1053 C1051 1.388 . S
C1053 C1054 1.366 . S
C1054 C1053 1.366 . S
C1054 C1055 1.414 . S
C1054 C1057 1.499 . S
C1055 H1029 0.950 . S
C1055 C1054 1.414 . S
C1055 C1056 1.374 . S
C1056 H1030 0.950 . S
C1056 C1052 1.385 . S
C1056 C1055 1.374 . S
C1057 C1054 1.499 . S
C1057 C1058 1.373 . S
C1057 C1059 1.389 . S
C1058 H1031 0.950 . S
C1058 C1044 1.377 . S
C1058 C1057 1.373 . S
C1059 C1043 1.377 . S
C1059 C1057 1.389 . S
C1059 C1060 1.524 . S
C1060 C1059 1.524 . S
C1060 C1061 1.397 . S
C1060 C1065 1.363 . S
C1061 H1032 0.950 . S
C1061 C1060 1.397 . S
C1061 C1062 1.334 . S
C1062 H1033 0.950 . S
C1062 C1061 1.334 . S
C1062 C1063 1.287 . S
C1063 C1062 1.287 . S
C1063 C1064 1.524 . S
C1063 H1066 0.999 1_545 S
C1064 H1034 0.950 . S
C1064 C1063 1.524 . S
C1064 C1065 1.415 . S
C1065 H1035 0.950 . S
C1065 C1060 1.363 . S
C1065 C1064 1.415 . S
H1066 C1063 0.999 1_565 S
H1067 C1048 0.913 . S
H1068 C1086 0.951 . S
H1069 C1088 0.951 . S
H1070 C1090 0.950 . S
H1071 C1091 0.950 . S
H1072 C1093 0.950 . S
H1073 C1096 0.950 . S
H1074 C1097 0.950 . S
H1075 C1099 0.950 . S
H1076 C1100 0.950 . S
H1077 C1101 0.951 . S
H1078 C1103 0.951 . S
H1079 C1105 0.950 . S
H1080 C1106 0.950 . S
H1081 C1108 0.950 . S
H1082 C1111 0.950 . S
H1083 C1112 0.950 . S
H1084 C1114 0.950 . S
H1085 C1115 0.950 . S
C1086 H1068 0.951 . S
C1086 C1087 1.366 . S
C1086 C1088 1.388 . S
C1087 C1086 1.366 . S
C1087 C1091 1.385 . S
C1088 H1069 0.951 . S
C1088 C1086 1.388 . S
C1088 C1089 1.366 . S
C1089 C1088 1.366 . S
C1089 C1090 1.414 . S
C1089 C1092 1.499 . S
C1090 H1070 0.950 . S
C1090 C1089 1.414 . S
C1090 C1091 1.374 . S
C1091 H1071 0.950 . S
C1091 C1087 1.385 . S
C1091 C1090 1.374 . S
C1092 C1089 1.499 . S
C1092 C1093 1.373 . S
C1092 C1094 1.389 . S
C1093 H1072 0.950 . S
C1093 C1092 1.373 . S
C1093 C1109 1.377 . S
C1094 C1092 1.389 . S
C1094 C1095 1.524 . S
C1094 C1108 1.377 . S
C1095 C1094 1.524 . S
C1095 C1096 1.397 . S
C1095 C1100 1.363 . S
C1096 H1073 0.950 . S
C1096 C1095 1.397 . S
C1096 C1097 1.334 . S
C1097 H1074 0.950 . S
C1097 C1096 1.334 . S
C1097 C1098 1.287 . S
C1098 C1097 1.287 . S
C1098 C1099 1.524 . S
C1098 H1117 0.913 . S
C1099 H1075 0.950 . S
C1099 C1098 1.524 . S
C1099 C1100 1.415 . S
C1100 H1076 0.950 . S
C1100 C1095 1.363 . S
C1100 C1099 1.415 . S
C1101 H1077 0.951 . S
C1101 C1102 1.366 . S
C1101 C1103 1.388 . S
C1102 C1101 1.366 . S
C1102 C1106 1.385 . S
C1103 H1078 0.951 . S
C1103 C1101 1.388 . S
C1103 C1104 1.366 . S
C1104 C1103 1.366 . S
C1104 C1105 1.414 . S
C1104 C1107 1.499 . S
C1105 H1079 0.950 . S
C1105 C1104 1.414 . S
C1105 C1106 1.374 . S
C1106 H1080 0.950 . S
C1106 C1102 1.385 . S
C1106 C1105 1.374 . S
C1107 C1104 1.499 . S
C1107 C1108 1.373 . S
C1107 C1109 1.389 . S
C1108 H1081 0.950 . S
C1108 C1094 1.377 . S
C1108 C1107 1.373 . S
C1109 C1093 1.377 . S
C1109 C1107 1.389 . S
C1109 C1110 1.524 . S
C1110 C1109 1.524 . S
C1110 C1111 1.397 . S
C1110 C1115 1.363 . S
C1111 H1082 0.950 . S
C1111 C1110 1.397 . S
C1111 C1112 1.334 . S
C1112 H1083 0.950 . S
C1112 C1111 1.334 . S
C1112 C1113 1.287 . S
C1113 C1112 1.287 . S
C1113 C1114 1.524 . S
C1113 H1116 0.999 1_554 S
C1114 H1084 0.950 . S
C1114 C1113 1.524 . S
C1114 C1115 1.415 . S
C1115 H1085 0.950 . S
C1115 C1110 1.363 . S
C1115 C1114 1.415 . S
H1116 C1113 0.999 1_556 S
H1117 C1098 0.913 . S
H1118 C1136 0.951 . S
H1119 C1138 0.951 . S
H1120 C1140 0.950 . S
H1121 C1141 0.950 . S
H1122 C1143 0.950 . S
H1123 C1146 0.950 . S
H1124 C1147 0.950 . S
H1125 C1149 0.950 . S
H1126 C1150 0.950 . S
H1127 C1151 0.951 . S
H1128 C1153 0.951 . S
H1129 C1155 0.950 . S
H1130 C1156 0.950 . S
H1131 C1158 0.950 . S
H1132 C1161 0.950 . S
H1133 C1162 0.950 . S
H1134 C1164 0.950 . S
H1135 C1165 0.950 . S
C1136 H1118 0.951 . S
C1136 C1137 1.366 . S
C1136 C1138 1.388 . S
C1137 C1136 1.366 . S
C1137 C1141 1.385 . S
C1138 H1119 0.951 . S
C1138 C1136 1.388 . S
C1138 C1139 1.366 . S
C1139 C1138 1.366 . S
C1139 C1140 1.414 . S
C1139 C1142 1.499 . S
C1140 H1120 0.950 . S
C1140 C1139 1.414 . S
C1140 C1141 1.374 . S
C1141 H1121 0.950 . S
C1141 C1137 1.385 . S
C1141 C1140 1.374 . S
C1142 C1139 1.499 . S
C1142 C1143 1.373 . S
C1142 C1144 1.389 . S
C1143 H1122 0.950 . S
C1143 C1142 1.373 . S
C1143 C1159 1.377 . S
C1144 C1142 1.389 . S
C1144 C1145 1.524 . S
C1144 C1158 1.377 . S
C1145 C1144 1.524 . S
C1145 C1146 1.397 . S
C1145 C1150 1.363 . S
C1146 H1123 0.950 . S
C1146 C1145 1.397 . S
C1146 C1147 1.334 . S
C1147 H1124 0.950 . S
C1147 C1146 1.334 . S
C1147 C1148 1.287 . S
C1148 C1147 1.287 . S
C1148 C1149 1.524 . S
C1148 H1167 0.913 . S
C1149 H1125 0.950 . S
C1149 C1148 1.524 . S
C1149 C1150 1.415 . S
C1150 H1126 0.950 . S
C1150 C1145 1.363 . S
C1150 C1149 1.415 . S
C1151 H1127 0.951 . S
C1151 C1152 1.366 . S
C1151 C1153 1.388 . S
C1152 C1151 1.366 . S
C1152 C1156 1.385 . S
C1153 H1128 0.951 . S
C1153 C1151 1.388 . S
C1153 C1154 1.366 . S
C1154 C1153 1.366 . S
C1154 C1155 1.414 . S
C1154 C1157 1.499 . S
C1155 H1129 0.950 . S
C1155 C1154 1.414 . S
C1155 C1156 1.374 . S
C1156 H1130 0.950 . S
C1156 C1152 1.385 . S
C1156 C1155 1.374 . S
C1157 C1154 1.499 . S
C1157 C1158 1.373 . S
C1157 C1159 1.389 . S
C1158 H1131 0.950 . S
C1158 C1144 1.377 . S
C1158 C1157 1.373 . S
C1159 C1143 1.377 . S
C1159 C1157 1.389 . S
C1159 C1160 1.524 . S
C1160 C1159 1.524 . S
C1160 C1161 1.397 . S
C1160 C1165 1.363 . S
C1161 H1132 0.950 . S
C1161 C1160 1.397 . S
C1161 C1162 1.334 . S
C1162 H1133 0.950 . S
C1162 C1161 1.334 . S
C1162 C1163 1.287 . S
C1163 C1162 1.287 . S
C1163 C1164 1.524 . S
C1163 H1166 0.999 . S
C1164 H1134 0.950 . S
C1164 C1163 1.524 . S
C1164 C1165 1.415 . S
C1165 H1135 0.950 . S
C1165 C1160 1.363 . S
C1165 C1164 1.415 . S
H1166 C1163 0.999 . S
H1167 C1148 0.913 . S
H1168 C1186 0.951 . S
H1169 C1188 0.951 . S
H1170 C1190 0.950 . S
H1171 C1191 0.950 . S
H1172 C1193 0.950 . S
H1173 C1196 0.950 . S
H1174 C1197 0.950 . S
H1175 C1199 0.950 . S
H1176 C1200 0.950 . S
H1177 C1201 0.951 . S
H1178 C1203 0.951 . S
H1179 C1205 0.950 . S
H1180 C1206 0.950 . S
H1181 C1208 0.950 . S
H1182 C1211 0.950 . S
H1183 C1212 0.950 . S
H1184 C1214 0.950 . S
H1185 C1215 0.950 . S
C1186 H1168 0.951 . S
C1186 C1187 1.366 . S
C1186 C1188 1.388 . S
C1187 C1186 1.366 . S
C1187 C1191 1.385 . S
C1188 H1169 0.951 . S
C1188 C1186 1.388 . S
C1188 C1189 1.366 . S
C1189 C1188 1.366 . S
C1189 C1190 1.414 . S
C1189 C1192 1.499 . S
C1190 H1170 0.950 . S
C1190 C1189 1.414 . S
C1190 C1191 1.374 . S
C1191 H1171 0.950 . S
C1191 C1187 1.385 . S
C1191 C1190 1.374 . S
C1192 C1189 1.499 . S
C1192 C1193 1.373 . S
C1192 C1194 1.389 . S
C1193 H1172 0.950 . S
C1193 C1192 1.373 . S
C1193 C1209 1.377 . S
C1194 C1192 1.389 . S
C1194 C1195 1.524 . S
C1194 C1208 1.377 . S
C1195 C1194 1.524 . S
C1195 C1196 1.397 . S
C1195 C1200 1.363 . S
C1196 H1173 0.950 . S
C1196 C1195 1.397 . S
C1196 C1197 1.334 . S
C1197 H1174 0.950 . S
C1197 C1196 1.334 . S
C1197 C1198 1.287 . S
C1198 C1197 1.287 . S
C1198 C1199 1.524 . S
C1198 H1217 0.913 . S
C1199 H1175 0.950 . S
C1199 C1198 1.524 . S
C1199 C1200 1.415 . S
C1200 H1176 0.950 . S
C1200 C1195 1.363 . S
C1200 C1199 1.415 . S
C1201 H1177 0.951 . S
C1201 C1202 1.366 . S
C1201 C1203 1.388 . S
C1202 C1201 1.366 . S
C1202 C1206 1.385 . S
C1203 H1178 0.951 . S
C1203 C1201 1.388 . S
C1203 C1204 1.366 . S
C1204 C1203 1.366 . S
C1204 C1205 1.414 . S
C1204 C1207 1.499 . S
C1205 H1179 0.950 . S
C1205 C1204 1.414 . S
C1205 C1206 1.374 . S
C1206 H1180 0.950 . S
C1206 C1202 1.385 . S
C1206 C1205 1.374 . S
C1207 C1204 1.499 . S
C1207 C1208 1.373 . S
C1207 C1209 1.389 . S
C1208 H1181 0.950 . S
C1208 C1194 1.377 . S
C1208 C1207 1.373 . S
C1209 C1193 1.377 . S
C1209 C1207 1.389 . S
C1209 C1210 1.524 . S
C1210 C1209 1.524 . S
C1210 C1211 1.397 . S
C1210 C1215 1.363 . S
C1211 H1182 0.950 . S
C1211 C1210 1.397 . S
C1211 C1212 1.334 . S
C1212 H1183 0.950 . S
C1212 C1211 1.334 . S
C1212 C1213 1.287 . S
C1213 C1212 1.287 . S
C1213 C1214 1.524 . S
C1213 H1216 0.999 . S
C1214 H1184 0.950 . S
C1214 C1213 1.524 . S
C1214 C1215 1.415 . S
C1215 H1185 0.950 . S
C1215 C1210 1.363 . S
C1215 C1214 1.415 . S
H1216 C1213 0.999 . S
H1217 C1198 0.913 . S
H1218 C1236 0.951 . S
H1219 C1238 0.951 . S
H1220 C1240 0.950 . S
H1221 C1241 0.950 . S
H1222 C1243 0.950 . S
H1223 C1246 0.950 . S
H1224 C1247 0.950 . S
H1225 C1249 0.950 . S
H1226 C1250 0.950 . S
H1227 C1251 0.951 . S
H1228 C1253 0.951 . S
H1229 C1255 0.950 . S
H1230 C1256 0.950 . S
H1231 C1258 0.950 . S
H1232 C1261 0.950 . S
H1233 C1262 0.950 . S
H1234 C1264 0.950 . S
H1235 C1265 0.950 . S
C1236 H1218 0.951 . S
C1236 C1237 1.366 . S
C1236 C1238 1.388 . S
C1237 C1236 1.366 . S
C1237 C1241 1.385 . S
C1238 H1219 0.951 . S
C1238 C1236 1.388 . S
C1238 C1239 1.366 . S
C1239 C1238 1.366 . S
C1239 C1240 1.414 . S
C1239 C1242 1.499 . S
C1240 H1220 0.950 . S
C1240 C1239 1.414 . S
C1240 C1241 1.374 . S
C1241 H1221 0.950 . S
C1241 C1237 1.385 . S
C1241 C1240 1.374 . S
C1242 C1239 1.499 . S
C1242 C1243 1.373 . S
C1242 C1244 1.389 . S
C1243 H1222 0.950 . S
C1243 C1242 1.373 . S
C1243 C1259 1.377 . S
C1244 C1242 1.389 . S
C1244 C1245 1.524 . S
C1244 C1258 1.377 . S
C1245 C1244 1.524 . S
C1245 C1246 1.397 . S
C1245 C1250 1.363 . S
C1246 H1223 0.950 . S
C1246 C1245 1.397 . S
C1246 C1247 1.334 . S
C1247 H1224 0.950 . S
C1247 C1246 1.334 . S
C1247 C1248 1.287 . S
C1248 C1247 1.287 . S
C1248 C1249 1.524 . S
C1248 H1267 0.913 . S
C1249 H1225 0.950 . S
C1249 C1248 1.524 . S
C1249 C1250 1.415 . S
C1250 H1226 0.950 . S
C1250 C1245 1.363 . S
C1250 C1249 1.415 . S
C1251 H1227 0.951 . S
C1251 C1252 1.366 . S
C1251 C1253 1.388 . S
C1252 C1251 1.366 . S
C1252 C1256 1.385 . S
C1253 H1228 0.951 . S
C1253 C1251 1.388 . S
C1253 C1254 1.366 . S
C1254 C1253 1.366 . S
C1254 C1255 1.414 . S
C1254 C1257 1.499 . S
C1255 H1229 0.950 . S
C1255 C1254 1.414 . S
C1255 C1256 1.374 . S
C1256 H1230 0.950 . S
C1256 C1252 1.385 . S
C1256 C1255 1.374 . S
C1257 C1254 1.499 . S
C1257 C1258 1.373 . S
C1257 C1259 1.389 . S
C1258 H1231 0.950 . S
C1258 C1244 1.377 . S
C1258 C1257 1.373 . S
C1259 C1243 1.377 . S
C1259 C1257 1.389 . S
C1259 C1260 1.524 . S
C1260 C1259 1.524 . S
C1260 C1261 1.397 . S
C1260 C1265 1.363 . S
C1261 H1232 0.950 . S
C1261 C1260 1.397 . S
C1261 C1262 1.334 . S
C1262 H1233 0.950 . S
C1262 C1261 1.334 . S
C1262 C1263 1.287 . S
C1263 C1262 1.287 . S
C1263 C1264 1.524 . S
C1263 H1266 0.999 . S
C1264 H1234 0.950 . S
C1264 C1263 1.524 . S
C1264 C1265 1.415 . S
C1265 H1235 0.950 . S
C1265 C1260 1.363 . S
C1265 C1264 1.415 . S
H1266 C1263 0.999 . S
H1267 C1248 0.913 . S
H1268 C1286 0.951 . S
H1269 C1288 0.951 . S
H1270 C1290 0.950 . S
H1271 C1291 0.950 . S
H1272 C1293 0.950 . S
H1273 C1296 0.950 . S
H1274 C1297 0.950 . S
H1275 C1299 0.950 . S
H1276 C1300 0.950 . S
H1277 C1301 0.951 . S
H1278 C1303 0.951 . S
H1279 C1305 0.950 . S
H1280 C1306 0.950 . S
H1281 C1308 0.950 . S
H1282 C1311 0.950 . S
H1283 C1312 0.950 1_655 S
H1284 C1314 0.950 . S
H1285 C1315 0.950 . S
C1286 H1268 0.951 . S
C1286 C1287 1.366 . S
C1286 C1288 1.388 . S
C1287 C1286 1.366 . S
C1287 C1291 1.385 . S
C1288 H1269 0.951 . S
C1288 C1286 1.388 . S
C1288 C1289 1.366 . S
C1289 C1288 1.366 . S
C1289 C1290 1.414 . S
C1289 C1292 1.499 . S
C1290 H1270 0.950 . S
C1290 C1289 1.414 . S
C1290 C1291 1.374 . S
C1291 H1271 0.950 . S
C1291 C1287 1.385 . S
C1291 C1290 1.374 . S
C1292 C1289 1.499 . S
C1292 C1293 1.373 . S
C1292 C1294 1.389 . S
C1293 H1272 0.950 . S
C1293 C1292 1.373 . S
C1293 C1309 1.377 . S
C1294 C1292 1.389 . S
C1294 C1295 1.524 . S
C1294 C1308 1.377 . S
C1295 C1294 1.524 . S
C1295 C1296 1.397 . S
C1295 C1300 1.363 . S
C1296 H1273 0.950 . S
C1296 C1295 1.397 . S
C1296 C1297 1.334 . S
C1297 H1274 0.950 . S
C1297 C1296 1.334 . S
C1297 C1298 1.287 . S
C1298 C1297 1.287 . S
C1298 C1299 1.524 . S
C1298 H1317 0.913 . S
C1299 H1275 0.950 . S
C1299 C1298 1.524 . S
C1299 C1300 1.415 . S
C1300 H1276 0.950 . S
C1300 C1295 1.363 . S
C1300 C1299 1.415 . S
C1301 H1277 0.951 . S
C1301 C1302 1.366 . S
C1301 C1303 1.388 . S
C1302 C1301 1.366 . S
C1302 C1306 1.385 . S
C1303 H1278 0.951 . S
C1303 C1301 1.388 . S
C1303 C1304 1.366 . S
C1304 C1303 1.366 . S
C1304 C1305 1.414 . S
C1304 C1307 1.499 . S
C1305 H1279 0.950 . S
C1305 C1304 1.414 . S
C1305 C1306 1.374 . S
C1306 H1280 0.950 . S
C1306 C1302 1.385 . S
C1306 C1305 1.374 . S
C1307 C1304 1.499 . S
C1307 C1308 1.373 . S
C1307 C1309 1.389 . S
C1308 H1281 0.950 . S
C1308 C1294 1.377 . S
C1308 C1307 1.373 . S
C1309 C1293 1.377 . S
C1309 C1307 1.389 . S
C1309 C1310 1.524 . S
C1310 C1309 1.524 . S
C1310 C1311 1.397 . S
C1310 C1315 1.363 . S
C1311 H1282 0.950 . S
C1311 C1310 1.397 . S
C1311 C1312 1.334 . S
C1312 H1283 0.950 1_455 S
C1312 C1311 1.334 . S
C1312 C1313 1.287 1_455 S
C1313 C1312 1.287 1_655 S
C1313 C1314 1.524 . S
C1313 H1316 0.999 . S
C1314 H1284 0.950 . S
C1314 C1313 1.524 . S
C1314 C1315 1.415 1_655 S
C1315 H1285 0.950 . S
C1315 C1310 1.363 . S
C1315 C1314 1.415 1_455 S
H1316 C1313 0.999 . S
H1317 C1298 0.913 . S
H1318 C1336 0.951 . S
H1319 C1338 0.951 . S
H1320 C1340 0.950 . S
H1321 C1341 0.950 . S
H1322 C1343 0.950 . S
H1323 C1346 0.950 . S
H1324 C1347 0.950 . S
H1325 C1349 0.950 . S
H1326 C1350 0.950 . S
H1327 C1351 0.951 . S
H1328 C1353 0.951 . S
H1329 C1355 0.950 . S
H1330 C1356 0.950 . S
H1331 C1358 0.950 . S
H1332 C1361 0.950 . S
H1333 C1362 0.950 . S
H1334 C1364 0.950 . S
H1335 C1365 0.950 . S
C1336 H1318 0.951 . S
C1336 C1337 1.366 . S
C1336 C1338 1.388 . S
C1337 C1336 1.366 . S
C1337 C1341 1.385 . S
C1338 H1319 0.951 . S
C1338 C1336 1.388 . S
C1338 C1339 1.366 . S
C1339 C1338 1.366 . S
C1339 C1340 1.414 . S
C1339 C1342 1.499 . S
C1340 H1320 0.950 . S
C1340 C1339 1.414 . S
C1340 C1341 1.374 . S
C1341 H1321 0.950 . S
C1341 C1337 1.385 . S
C1341 C1340 1.374 . S
C1342 C1339 1.499 . S
C1342 C1343 1.373 . S
C1342 C1344 1.389 . S
C1343 H1322 0.950 . S
C1343 C1342 1.373 . S
C1343 C1359 1.377 . S
C1344 C1342 1.389 . S
C1344 C1345 1.524 . S
C1344 C1358 1.377 . S
C1345 C1344 1.524 . S
C1345 C1346 1.397 . S
C1345 C1350 1.363 . S
C1346 H1323 0.950 . S
C1346 C1345 1.397 . S
C1346 C1347 1.334 . S
C1347 H1324 0.950 . S
C1347 C1346 1.334 . S
C1347 C1348 1.287 . S
C1348 C1347 1.287 . S
C1348 C1349 1.524 . S
C1348 H1367 0.913 . S
C1349 H1325 0.950 . S
C1349 C1348 1.524 . S
C1349 C1350 1.415 . S
C1350 H1326 0.950 . S
C1350 C1345 1.363 . S
C1350 C1349 1.415 . S
C1351 H1327 0.951 . S
C1351 C1352 1.366 . S
C1351 C1353 1.388 . S
C1352 C1351 1.366 . S
C1352 C1356 1.385 . S
C1353 H1328 0.951 . S
C1353 C1351 1.388 . S
C1353 C1354 1.366 . S
C1354 C1353 1.366 . S
C1354 C1355 1.414 . S
C1354 C1357 1.499 . S
C1355 H1329 0.950 . S
C1355 C1354 1.414 . S
C1355 C1356 1.374 . S
C1356 H1330 0.950 . S
C1356 C1352 1.385 . S
C1356 C1355 1.374 . S
C1357 C1354 1.499 . S
C1357 C1358 1.373 . S
C1357 C1359 1.389 . S
C1358 H1331 0.950 . S
C1358 C1344 1.377 . S
C1358 C1357 1.373 . S
C1359 C1343 1.377 . S
C1359 C1357 1.389 . S
C1359 C1360 1.524 . S
C1360 C1359 1.524 . S
C1360 C1361 1.397 . S
C1360 C1365 1.363 . S
C1361 H1332 0.950 . S
C1361 C1360 1.397 . S
C1361 C1362 1.334 . S
C1362 H1333 0.950 . S
C1362 C1361 1.334 . S
C1362 C1363 1.287 . S
C1363 C1362 1.287 . S
C1363 C1364 1.524 . S
C1363 H1366 0.999 . S
C1364 H1334 0.950 . S
C1364 C1363 1.524 . S
C1364 C1365 1.415 . S
C1365 H1335 0.950 . S
C1365 C1360 1.363 . S
C1365 C1364 1.415 . S
H1366 C1363 0.999 . S
H1367 C1348 0.913 . S
C187 C4 1.557 . S
C202 C90 1.554 . S
C237 C16 1.678 . S
C252 C109 1.648 . S
C302 C146 1.272 . S
C287 C32 1.284 . S
C337 C43 1.488 . S
C352 C156 1.449 1_655 S
C402 C126 2.435 . S
C387 C5 2.399 . S
C452 C96 1.207 . S
C437 C21 1.230 . S
C502 C167 1.381 1_556 S
C487 C27 1.401 . S
C552 C137 1.227 . S
C537 C37 1.239 . S
C587 C10 1.693 . S
C602 C150 1.685 . S
C652 C117 1.837 . S
C637 C26 1.899 . S
C687 C38 1.509 . S
C702 C107 1.505 . S
C737 C15 1.359 . S
C752 C129 1.345 . S
C802 C89 1.710 . S
C787 C48 1.723 . S
C837 C59 1.457 . S
C852 C110 1.433 . S
C887 C76 1.639 . S
C902 C147 1.615 . S
C937 C87 1.327 . S
C952 C157 1.307 . S
C987 C54 1.722 . S
C1002 C127 1.736 1_565 S
C1052 C97 1.969 . S
C1037 C60 2.028 . S
C1102 C166 1.293 . S
C1087 C71 1.309 . S
C1152 C136 1.160 . S
C1137 C82 1.191 . S
C1187 C49 1.945 . S
C1202 C149 1.970 . S
C1252 C116 1.364 . S
C1237 C70 1.412 . S
C1302 C106 1.893 . S
C1287 C81 1.903 . S
C1337 C65 1.273 . S
C1352 C130 1.256 . S
