# Generated by pormake.
# Topology anh, (6,3)-cn, num edge types: 1
# Building blocks:
#     Node 0, Type 0, BuildingBlock: BETDIP_clean_sbu_0, # of connection points: 6
#     Node 1, Type 0, BuildingBlock: BETDIP_clean_sbu_0, # of connection points: 6
#     Node 2, Type 0, BuildingBlock: BETDIP_clean_sbu_0, # of connection points: 6
#     Node 3, Type 1, BuildingBlock: CUQRIR_clean_linker_1, # of connection points: 3
#     Node 4, Type 1, BuildingBlock: CUQRIR_clean_linker_1, # of connection points: 3
#     Node 5, Type 1, BuildingBlock: CUQRIR_clean_linker_1, # of connection points: 3
#     Node 6, Type 1, BuildingBlock: CUQRIR_clean_linker_1, # of connection points: 3
#     Node 7, Type 1, BuildingBlock: CUQRIR_clean_linker_1, # of connection points: 3
#     Node 8, Type 1, BuildingBlock: CUQRIR_clean_linker_1, # of connection points: 3
#     Edge 9, Type (0, 1), BuildingBlock: CIFDUS_clean_linker_0, # of connection points: 2
#     Edge 10, Type (0, 1), BuildingBlock: CIFDUS_clean_linker_0, # of connection points: 2
#     Edge 11, Type (0, 1), BuildingBlock: CIFDUS_clean_linker_0, # of connection points: 2
#     Edge 12, Type (0, 1), BuildingBlock: CIFDUS_clean_linker_0, # of connection points: 2
#     Edge 13, Type (0, 1), BuildingBlock: CIFDUS_clean_linker_0, # of connection points: 2
#     Edge 14, Type (0, 1), BuildingBlock: CIFDUS_clean_linker_0, # of connection points: 2
#     Edge 15, Type (0, 1), BuildingBlock: CIFDUS_clean_linker_0, # of connection points: 2
#     Edge 16, Type (0, 1), BuildingBlock: CIFDUS_clean_linker_0, # of connection points: 2
#     Edge 17, Type (0, 1), BuildingBlock: CIFDUS_clean_linker_0, # of connection points: 2
#     Edge 18, Type (0, 1), BuildingBlock: CIFDUS_clean_linker_0, # of connection points: 2
#     Edge 19, Type (0, 1), BuildingBlock: CIFDUS_clean_linker_0, # of connection points: 2
#     Edge 20, Type (0, 1), BuildingBlock: CIFDUS_clean_linker_0, # of connection points: 2
#     Edge 21, Type (0, 1), BuildingBlock: CIFDUS_clean_linker_0, # of connection points: 2
#     Edge 22, Type (0, 1), BuildingBlock: CIFDUS_clean_linker_0, # of connection points: 2
#     Edge 23, Type (0, 1), BuildingBlock: CIFDUS_clean_linker_0, # of connection points: 2
#     Edge 24, Type (0, 1), BuildingBlock: CIFDUS_clean_linker_0, # of connection points: 2
#     Edge 25, Type (0, 1), BuildingBlock: CIFDUS_clean_linker_0, # of connection points: 2
#     Edge 26, Type (0, 1), BuildingBlock: CIFDUS_clean_linker_0, # of connection points: 2
# Relax obj value: 0.355
# Max RMSD: 0.209
# Mean RMSD: 0.158
data_MOF--net-anh--node1-BETDIP_clean_sbu_0--node2-CUQRIR_clean_linker_1--edge1-CIFDUS_clean_linker_0
_symmetry_space_group_name_H-M    P1
_symmetry_Int_Tables_number       1
_symmetry_cell_setting            triclinic
loop_
_symmetry_equiv_pos_as_xyz
'x, y, z'
_cell_length_a     24.133152
_cell_length_b     23.906857
_cell_length_c     39.992017
_cell_angle_alpha  84.726678
_cell_angle_beta   91.996887
_cell_angle_gamma 120.24609
loop_
_atom_site_label
_atom_site_type_symbol
_atom_site_fract_x
_atom_site_fract_y
_atom_site_fract_z
_atom_type_partial_charge
Tb0 Tb 0.22691 0.65449 0.15775 0.0
Tb1 Tb 1.1609 0.51565 0.15751 0.0
C2 C 0.28977 0.76874 0.17417 0.0
C3 C 0.27411 0.81866 0.18178 0.0
C4 C 0.275 0.83306 0.21515 0.0
C5 C 0.26879 0.88577 0.22231 0.0
C6 C 0.26231 0.92546 0.19618 0.0
C7 C 0.25656 0.90817 0.16307 0.0
C8 C 0.26243 0.85529 0.15591 0.0
C9 C 0.20051 0.61299 0.09713 0.0
C10 C 0.31157 0.58269 0.15269 0.0
C11 C 1.08118 0.40013 0.14808 0.0
C12 C 1.01102 0.36896 0.15304 0.0
C13 C 0.97446 0.38432 0.1298 0.0
C14 C 0.9162 0.37719 0.1397 0.0
C15 C 0.89342 0.35366 0.17263 0.0
C16 C 0.9252 0.32994 0.19434 0.0
C17 C 0.98359 0.33729 0.18456 0.0
C18 C 0.18931 0.55565 0.21856 0.0
C19 C 1.07773 0.59059 0.15008 0.0
O20 O 0.2834 0.75381 0.14306 0.0
O21 O 0.26912 0.71757 0.19582 0.0
O22 O 0.21991 0.5914 0.12169 0.0
O23 O 0.19472 0.66067 0.10596 0.0
O24 O 0.31074 0.63566 0.16053 0.0
O25 O 0.25619 0.53016 0.14656 0.0
O26 O 1.10623 0.44634 0.12363 0.0
O27 O 1.11483 0.41719 0.17544 0.0
O28 O 1.16737 0.57819 0.19512 0.0
O29 O 0.19573 0.50986 0.20783 0.0
O30 O 1.08075 0.53689 0.14771 0.0
O31 O 1.13035 0.64428 0.15774 0.0
H32 H 0.28378 0.80561 0.2356 0.0
H33 H 0.27452 0.89866 0.24798 0.0
H34 H 0.25192 0.93828 0.14249 0.0
H35 H 0.26093 0.84524 0.12993 0.0
H36 H 0.99337 0.40733 0.10502 0.0
H37 H 0.89082 0.39356 0.12231 0.0
H38 H 0.90746 0.31043 0.21974 0.0
H39 H 1.01 0.32384 0.20282 0.0
Tb40 Tb 0.74192 1.10126 0.48121 0.0
Tb41 Tb 0.67434 0.16727 0.49424 0.0
C42 C 0.80055 1.0392 0.48485 0.0
C43 C 0.80408 0.9863 0.50479 0.0
C44 C 0.81626 0.98903 0.53945 0.0
C45 C 0.83442 0.94728 0.55644 0.0
C46 C 0.8398 0.90171 0.53918 0.0
C47 C 0.82292 0.89573 0.50518 0.0
C48 C 0.80556 0.93806 0.48807 0.0
C49 C 0.71479 0.15404 0.42663 0.0
C50 C 0.58964 1.01269 0.48747 0.0
C51 C 0.6181 0.22813 0.5007 0.0
C52 C 0.65382 0.29295 0.51382 0.0
C53 C 0.69043 0.34724 0.491 0.0
C54 C 0.74987 0.3973 0.5004 0.0
C55 C 0.77243 0.39492 0.53307 0.0
C56 C 0.73054 0.34691 0.55729 0.0
C57 C 0.6713 0.2967 0.54784 0.0
C58 C 0.73782 0.15222 0.54767 0.0
C59 C 0.82292 0.25527 0.47588 0.0
O60 O 0.81839 1.0919 0.49994 0.0
O61 O 0.75089 1.02428 0.46552 0.0
O62 O 0.68022 0.12506 0.45194 0.0
O63 O 0.76513 0.1482 0.42926 0.0
O64 O 0.64546 1.01433 0.48664 0.0
O65 O 0.58898 1.06772 0.48983 0.0
O66 O 0.63912 0.22534 0.47139 0.0
O67 O 0.60898 0.17888 0.52199 0.0
O68 O 0.70436 1.11047 0.52736 0.0
O69 O 0.73775 0.2047 0.53709 0.0
O70 O 0.76661 0.25275 0.47393 0.0
O71 O 0.82362 0.20077 0.48428 0.0
H72 H 0.81516 1.02559 0.55307 0.0
H73 H 0.84651 0.95212 0.58276 0.0
H74 H 0.82699 0.86106 0.49134 0.0
H75 H 0.7968 0.93544 0.46134 0.0
H76 H 0.67766 0.34672 0.46473 0.0
H77 H 0.78026 0.43448 0.48123 0.0
H78 H 0.74524 0.34573 0.58313 0.0
H79 H 0.64332 0.25681 0.56643 0.0
Tb80 Tb 0.73019 0.68518 0.82842 0.0
Tb81 Tb 0.87238 0.7579 0.82775 0.0
C82 C 0.61982 0.64146 0.85208 0.0
C83 C 0.57007 0.58415 0.87237 0.0
C84 C 0.55203 0.59245 0.90375 0.0
C85 C 0.49633 0.54305 0.9202 0.0
C86 C 0.45757 0.48481 0.90533 0.0
C87 C 0.47916 0.47407 0.87567 0.0
C88 C 0.53491 0.52336 0.85926 0.0
C89 C 0.78213 0.71627 0.76838 0.0
C90 C 0.80865 0.84665 0.81964 0.0
C91 C 0.98531 0.78775 0.81542 0.0
C92 C 1.00651 0.7398 0.81349 0.0
C93 C 1.00848 0.71769 0.78227 0.0
C94 C 1.00704 0.65863 0.78089 0.0
C95 C 1.00318 0.62107 0.81072 0.0
C96 C 1.00764 0.64615 0.84167 0.0
C97 C 1.00986 0.70514 0.84308 0.0
C98 C 0.81901 0.71959 0.8886 0.0
C99 C 0.79398 0.60145 0.81843 0.0
O100 O 0.6723 0.67997 0.86773 0.0
O101 O 0.63091 0.63385 0.82139 0.0
O102 O 0.80118 0.74951 0.79325 0.0
O103 O 0.7273 0.66394 0.77585 0.0
O104 O 0.75261 0.79035 0.82395 0.0
O105 O 0.86322 0.84541 0.81899 0.0
O106 O 0.94548 0.78612 0.79212 0.0
O107 O 0.96634 0.7914 0.84501 0.0
O108 O 0.80076 0.68785 0.86294 0.0
O109 O 0.87022 0.77486 0.8806 0.0
O110 O 0.84751 0.65918 0.81424 0.0
O111 O 0.74049 0.59784 0.82899 0.0
H112 H 0.5785 0.6388 0.91446 0.0
H113 H 0.48049 0.55286 0.94284 0.0
H114 H 0.45003 0.42944 0.86376 0.0
H115 H 0.54793 0.51514 0.83531 0.0
H116 H 1.00628 0.74352 0.75903 0.0
H117 H 1.00465 0.64041 0.75674 0.0
H118 H 1.00666 0.61861 0.86497 0.0
H119 H 1.00919 0.72086 0.86755 0.0
C120 C 0.53998 0.31766 0.23871 0.0
N121 N 0.58804 0.32258 0.25885 0.0
N122 N 0.48157 0.2691 0.25044 0.0
C123 C 0.55114 0.35814 0.20579 0.0
C124 C 0.49596 0.2534 0.28188 0.0
N125 N 0.56002 0.2858 0.28687 0.0
C126 C 0.44788 0.20256 0.30699 0.0
H127 H 0.5051 0.34817 0.19396 0.0
H128 H 0.57999 0.349 0.18839 0.0
H129 H 0.57964 0.41033 0.21036 0.0
H130 H 0.42963 0.15353 0.29833 0.0
H131 H 0.407 0.21076 0.30954 0.0
H132 H 0.46907 0.20432 0.33219 0.0
C133 C 1.08306 0.7451 0.59823 0.0
N134 N 1.05093 0.759 0.61992 0.0
N135 N 1.0664 0.68139 0.60202 0.0
C136 C 1.127 0.79314 0.57081 0.0
C137 C 1.03422 0.66205 0.63201 0.0
N138 N 1.02145 0.70711 0.64175 0.0
C139 C 1.01962 0.60059 0.65313 0.0
H140 H 1.10185 0.81374 0.55492 0.0
H141 H 1.14585 0.77034 0.55507 0.0
H142 H 1.16773 0.83435 0.58247 0.0
H143 H 1.06024 0.59159 0.65154 0.0
H144 H 0.97603 0.55855 0.64386 0.0
H145 H 1.01176 0.60415 0.67985 0.0
C146 C 1.03875 0.32618 0.9068 0.0
N147 N 1.08926 0.358 0.92737 0.0
N148 N 0.99887 0.35065 0.9057 0.0
C149 C 1.03116 0.27457 0.88511 0.0
C150 C 1.02495 0.39654 0.92799 0.0
N151 N 1.07877 0.40023 0.94154 0.0
C152 C 1.00569 0.44724 0.9309 0.0
H153 H 1.05093 0.29651 0.85959 0.0
H154 H 0.97948 0.2386 0.88253 0.0
H155 H 1.05685 0.24976 0.89609 0.0
H156 H 1.00327 0.46925 0.90568 0.0
H157 H 1.03998 0.4878 0.94543 0.0
H158 H 0.95734 0.42369 0.94275 0.0
C159 C 0.18728 0.65241 0.45962 0.0
N160 N 1.15012 0.60721 0.43755 0.0
N161 N 0.24609 0.698 0.44596 0.0
C162 C 1.16688 0.65116 0.49483 0.0
C163 C 0.24252 0.67928 0.41454 0.0
N164 N 0.18544 0.62469 0.40942 0.0
C165 C 0.29296 0.71816 0.38758 0.0
H166 H 1.13821 0.67576 0.49435 0.0
H167 H 0.20918 0.67712 0.51093 0.0
H168 H 1.13636 0.60036 0.50574 0.0
H169 H 0.32243 0.76991 0.39274 0.0
H170 H 0.27084 0.71587 0.36258 0.0
H171 H 0.325 0.69757 0.38657 0.0
C172 C 0.77569 0.21018 0.79315 0.0
N173 N 0.77787 0.1702 0.77125 0.0
N174 N 0.77591 0.26353 0.77675 0.0
C175 C 0.77564 0.1981 0.83062 0.0
C176 C 0.77713 0.25313 0.74394 0.0
N177 N 0.77858 0.19765 0.74052 0.0
C178 C 0.77247 0.29502 0.71469 0.0
H179 H 0.7253 0.16842 0.83987 0.0
H180 H 0.79894 0.2446 0.8426 0.0
H181 H 0.80078 0.1708 0.838 0.0
H182 H 0.74483 0.31786 0.72171 0.0
H183 H 0.74894 0.26617 0.69301 0.0
H184 H 0.8215 0.33386 0.70664 0.0
C185 C 0.71266 0.61912 0.13626 0.0
N186 N 0.75821 0.62466 0.11426 0.0
N187 N 0.66143 0.61871 0.11992 0.0
C188 C 0.71708 0.61206 0.17375 0.0
C189 C 0.67824 0.62526 0.08713 0.0
N190 N 0.73572 0.62805 0.08352 0.0
C191 C 0.64184 0.63699 0.05851 0.0
H192 H 0.66856 0.58592 0.18557 0.0
H193 H 0.744 0.66113 0.18302 0.0
H194 H 0.74307 0.5857 0.18129 0.0
H195 H 0.61138 0.65552 0.06711 0.0
H196 H 0.61052 0.59056 0.04721 0.0
H197 H 0.67511 0.67282 0.03874 0.0
H198 H 0.44093 0.66609 0.17221 0.0
H199 H 0.32471 0.49747 0.11783 0.0
H200 H 0.41898 0.49173 0.10467 0.0
H201 H 0.53621 0.53471 0.10642 0.0
H202 H 0.6552 0.70028 0.16146 0.0
H203 H 0.5602 0.70612 0.17658 0.0
C204 C 0.43601 0.62795 0.15755 0.0
C205 C 0.37386 0.58233 0.14618 0.0
C206 C 0.49189 0.62388 0.15016 0.0
C207 C 0.37033 0.53343 0.12733 0.0
C208 C 0.42489 0.52994 0.1196 0.0
C209 C 0.54139 0.57162 0.12213 0.0
C210 C 0.60374 0.61671 0.13287 0.0
C211 C 0.48607 0.57476 0.13069 0.0
C212 C 0.60852 0.66426 0.15311 0.0
C213 C 0.55378 0.66793 0.16151 0.0
H214 H 0.85875 0.38847 0.47434 0.0
H215 H 0.93444 0.26431 0.45653 0.0
H216 H 1.03867 0.35901 0.44182 0.0
H217 H 1.11215 0.47896 0.43438 0.0
H218 H 1.04096 0.60478 0.45541 0.0
H219 H 0.93379 0.50999 0.46768 0.0
C220 C 0.89783 0.38194 0.46719 0.0
C221 C 0.88695 0.31758 0.46676 0.0
C222 C 0.95985 0.43801 0.45914 0.0
C223 C 0.93979 0.31191 0.4575 0.0
C224 C 1.00019 0.36665 0.44889 0.0
C225 C 1.07312 0.4857 0.4415 0.0
C226 C 1.08546 0.5499 0.44362 0.0
C227 C 1.01131 0.43017 0.44964 0.0
C228 C 1.03369 0.55668 0.45344 0.0
C229 C 0.97202 0.50201 0.46065 0.0
H230 H 0.7094 0.87739 0.81443 0.0
H231 H 0.91476 0.96625 0.80418 0.0
H232 H 0.92369 1.07105 0.7876 0.0
H233 H 0.87443 0.14103 0.77546 0.0
H234 H 0.67041 1.05487 0.78689 0.0
H235 H 0.6601 0.94818 0.80308 0.0
C236 C 0.75626 0.91956 0.80877 0.0
C237 C 0.8113 0.91203 0.81096 0.0
C238 C 0.76153 0.98153 0.79907 0.0
C239 C 0.87113 0.96871 0.80315 0.0
C240 C 0.87649 1.02952 0.79344 0.0
C241 C 0.82769 1.09879 0.78129 0.0
C242 C 0.77305 1.10649 0.7795 0.0
C243 C 0.82223 1.03698 0.79115 0.0
C244 C 0.71314 1.05078 0.78768 0.0
C245 C 0.70734 0.98949 0.79709 0.0
H246 H 1.03285 0.67406 0.16665 0.0
H247 H 0.97871 0.50725 0.11202 0.0
H248 H 0.87913 0.5036 0.09536 0.0
H249 H 0.8038 0.54686 0.09578 0.0
H250 H 0.85418 0.71052 0.15207 0.0
H251 H 0.95599 0.71619 0.16803 0.0
C252 C 0.99937 0.6367 0.15117 0.0
C253 C 1.01493 0.59042 0.1411 0.0
C254 C 0.94009 0.63431 0.14166 0.0
C255 C 0.96945 0.54308 0.12086 0.0
C256 C 0.91178 0.54114 0.111 0.0
C257 C 0.83714 0.58402 0.11141 0.0
C258 C 0.82025 0.62837 0.12253 0.0
C259 C 0.89607 0.58631 0.12116 0.0
C260 C 0.86479 0.67551 0.14312 0.0
C261 C 0.92353 0.67878 0.15229 0.0
H262 H 0.4582 0.97737 0.49022 0.0
H263 H 0.58051 0.89927 0.4724 0.0
H264 H 0.48753 0.79685 0.45996 0.0
H265 H 0.37069 0.72801 0.45123 0.0
H266 H 0.24531 0.80082 0.47022 0.0
H267 H 0.33815 0.90393 0.48527 0.0
C268 C 0.4647 0.93791 0.48391 0.0
C269 C 0.52816 0.94798 0.48239 0.0
C270 C 0.40951 0.87689 0.47689 0.0
C271 C 0.53374 0.89482 0.47405 0.0
C272 C 0.47997 0.83537 0.46676 0.0
C273 C 0.36347 0.76606 0.45914 0.0
C274 C 0.30017 0.75564 0.45965 0.0
C275 C 0.41757 0.82568 0.46776 0.0
C276 C 0.29266 0.80635 0.4699 0.0
C277 C 0.34626 0.8659 0.47826 0.0
H278 H 0.72169 0.4678 0.842 0.0
H279 H 0.86928 0.59946 0.77024 0.0
H280 H 0.87774 0.50985 0.75174 0.0
H281 H 0.84753 0.39382 0.75677 0.0
H282 H 0.69813 0.25906 0.82661 0.0
H283 H 0.68906 0.3488 0.8459 0.0
C284 C 0.75572 0.477 0.82233 0.0
C285 C 0.79522 0.54198 0.80793 0.0
C286 C 0.76136 0.42404 0.81182 0.0
C287 C 0.83864 0.55131 0.78234 0.0
C288 C 0.84341 0.49948 0.7715 0.0
C289 C 0.81224 0.38348 0.77593 0.0
C290 C 0.77353 0.31827 0.78994 0.0
C291 C 0.8058 0.43562 0.78627 0.0
C292 C 0.72952 0.30782 0.81547 0.0
C293 C 0.72376 0.35957 0.8263 0.0
H294 H 0.95135 0.94977 0.57302 0.0
H295 H 0.79368 0.77164 0.54083 0.0
H296 H 0.84607 0.7118 0.56375 0.0
H297 H 0.93814 0.71118 0.59103 0.0
H298 H 1.09762 0.88811 0.62203 0.0
H299 H 1.04348 0.94856 0.60135 0.0
C300 C 0.92817 0.89768 0.57156 0.0
C301 C 0.86869 0.86478 0.55553 0.0
C302 C 0.95912 0.86403 0.58422 0.0
C303 C 0.83947 0.79765 0.55307 0.0
C304 C 0.86937 0.76361 0.56609 0.0
C305 C 0.9605 0.763 0.59327 0.0
C306 C 1.02098 0.79574 0.60801 0.0
C307 C 0.92936 0.79648 0.58133 0.0
C308 C 1.05083 0.86268 0.61073 0.0
C309 C 1.01985 0.89674 0.59904 0.0
H310 H 0.90408 0.51171 0.83945 0.0
H311 H 1.07881 0.58299 0.78272 0.0
H312 H 1.07877 0.48169 0.79905 0.0
H313 H 1.04773 0.3938 0.84358 0.0
H314 H 0.87666 0.32631 0.90247 0.0
H315 H 0.85234 0.40173 0.86875 0.0
C316 C 0.94041 0.50359 0.82942 0.0
C317 C 0.9922 0.55465 0.81066 0.0
C318 C 0.94004 0.44568 0.83907 0.0
C319 C 1.03899 0.54424 0.79751 0.0
C320 C 1.03892 0.48646 0.8069 0.0
C321 C 1.00294 0.39245 0.84759 0.0
C322 C 0.96558 0.3572 0.8764 0.0
C323 C 0.99233 0.43926 0.82972 0.0
C324 C 0.90682 0.35447 0.88087 0.0
C325 C 0.89385 0.39872 0.86208 0.0
H326 H 0.35269 1.0351 0.1645 0.0
H327 H 0.21058 0.96391 0.24353 0.0
H328 H 0.25884 1.07391 0.26224 0.0
H329 H 0.35286 0.18548 0.26148 0.0
H330 H 0.50729 0.23855 0.19115 0.0
H331 H 0.44095 0.1447 0.16202 0.0
C332 C 0.33078 1.04404 0.18506 0.0
C333 C 0.27819 0.99189 0.20251 0.0
C334 C 0.3614 1.10549 0.1971 0.0
C335 C 0.25118 1.0037 0.22969 0.0
C336 C 0.27903 1.06641 0.24046 0.0
C337 C 0.37221 0.17652 0.23995 0.0
C338 C 0.43591 0.22056 0.22913 0.0
C339 C 0.33627 1.11705 0.22537 0.0
C340 C 0.45841 0.20843 0.20002 0.0
C341 C 0.42072 0.15311 0.1835 0.0
H342 H 0.84474 0.52303 0.51251 0.0
H343 H 0.85327 0.36727 0.57156 0.0
H344 H 0.96045 0.44412 0.59056 0.0
H345 H 1.04287 0.55797 0.59742 0.0
H346 H 1.02254 0.7106 0.54204 0.0
H347 H 0.93531 0.63284 0.51157 0.0
C348 C 0.87044 0.50545 0.52893 0.0
C349 C 0.84012 0.44005 0.54151 0.0
C350 C 0.93167 0.5496 0.53982 0.0
C351 C 0.87457 0.41811 0.56258 0.0
C352 C 0.93625 0.46182 0.57309 0.0
C353 C 1.01972 0.57436 0.57858 0.0
C354 C 1.03804 0.64062 0.5743 0.0
C355 C 0.96404 0.52831 0.56308 0.0
C356 C 1.01036 0.66069 0.54741 0.0
C357 C 0.95849 0.61565 0.53007 0.0
H358 H 0.35858 0.45601 0.86525 0.0
H359 H 0.40413 0.42834 0.96825 0.0
H360 H 0.29009 0.37774 0.98427 0.0
H361 H 0.17814 0.35104 0.96879 0.0
H362 H 1.14419 0.40037 0.8667 0.0
H363 H 0.25177 0.43073 0.85021 0.0
C364 C 0.34337 0.43716 0.89107 0.0
C365 C 0.38913 0.4445 0.9154 0.0
C366 C 0.27931 0.41186 0.90016 0.0
C367 C 0.36925 0.42228 0.94902 0.0
C368 C 0.30426 0.39378 0.95815 0.0
C369 C 0.19452 0.36747 0.94297 0.0
C370 C 1.15257 0.37139 0.91874 0.0
C371 C 0.25888 0.38968 0.93397 0.0
C372 C 0.17461 0.39451 0.88547 0.0
C373 C 0.23651 0.41277 0.87608 0.0
H374 H 0.78038 0.25652 0.19736 0.0
H375 H 0.89012 0.46443 0.17762 0.0
H376 H 0.80549 0.47521 0.20326 0.0
H377 H 0.70003 0.42388 0.23337 0.0
H378 H 0.5895 0.21519 0.2487 0.0
H379 H 0.67445 0.2058 0.2236 0.0
C380 C 0.78523 0.30396 0.19855 0.0
C381 C 0.84041 0.35946 0.18552 0.0
C382 C 0.73673 0.30956 0.21326 0.0
C383 C 0.84695 0.42101 0.18703 0.0
C384 C 0.79901 0.42718 0.20199 0.0
C385 C 0.69544 0.37683 0.23133 0.0
C386 C 0.64043 0.32041 0.24419 0.0
C387 C 0.74377 0.3717 0.21554 0.0
C388 C 0.6332 0.25919 0.24042 0.0
C389 C 0.68119 0.25374 0.22565 0.0
H390 H 0.25926 0.59827 0.04456 0.0
H391 H 1.07428 0.54557 0.08419 0.0
H392 H 1.02128 0.46504 0.04343 0.0
H393 H 1.02815 0.40813 0.99743 0.0
H394 H 0.20849 0.48677 0.94493 0.0
H395 H 0.26396 0.55604 0.99034 0.0
C396 C 0.20735 0.56975 0.04375 0.0
C397 C 1.17025 0.57601 0.06791 0.0
C398 C 0.17714 0.52682 0.01855 0.0
C399 C 1.10331 0.54014 0.06638 0.0
C400 C 1.07319 0.49411 0.04312 0.0
C401 C 1.07968 0.44055 0.99591 0.0
C402 C 1.11423 0.43965 0.96857 0.0
C403 C 1.10976 0.48641 0.01945 0.0
C404 C 0.18086 0.48289 0.96658 0.0
C405 C 0.21243 0.5241 0.99213 0.0
H406 H 0.73921 0.27272 0.40131 0.0
H407 H 0.63039 1.06949 0.38496 0.0
H408 H 0.57106 1.09204 0.33993 0.0
H409 H 0.54643 0.16905 0.30743 0.0
H410 H 0.65418 0.3722 0.32345 0.0
H411 H 0.71794 0.35091 0.36656 0.0
C412 C 0.70364 0.23392 0.38716 0.0
C413 C 0.68982 0.16989 0.39557 0.0
C414 C 0.66878 0.24718 0.36194 0.0
C415 C 0.64248 0.11931 0.37809 0.0
C416 C 0.60818 0.13211 0.35271 0.0
C417 C 0.58321 0.20828 0.32082 0.0
C418 C 0.59451 0.27178 0.31336 0.0
C419 C 0.62 0.19563 0.34493 0.0
C420 C 0.64405 0.32286 0.32963 0.0
C421 C 0.68058 0.3107 0.35397 0.0
H422 H 0.77821 0.62431 0.73135 0.0
H423 H 0.88312 0.82958 0.74377 0.0
H424 H 0.97013 0.84362 0.70809 0.0
H425 H 1.02021 0.79563 0.67768 0.0
H426 H 0.90652 0.59545 0.65568 0.0
H427 H 0.82129 0.58 0.69273 0.0
C428 C 0.81947 0.67226 0.72556 0.0
C429 C 0.82536 0.72563 0.74071 0.0
C430 C 0.86903 0.68015 0.7047 0.0
C431 C 0.87836 0.78769 0.73269 0.0
C432 C 0.92831 0.79565 0.71259 0.0
C433 C 0.97653 0.7488 0.68073 0.0
C434 C 0.97147 0.69632 0.66497 0.0
C435 C 0.92496 0.74184 0.69933 0.0
C436 C 0.91408 0.63592 0.66902 0.0
C437 C 0.86423 0.62742 0.6895 0.0
H438 H 0.83837 0.21588 0.58885 0.0
H439 H 0.64289 1.05845 0.58963 0.0
H440 H 0.63991 1.05147 0.65122 0.0
H441 H 0.68894 1.10161 0.70471 0.0
H442 H 0.88571 0.25554 0.70325 0.0
H443 H 0.89308 0.25157 0.64273 0.0
C444 C 0.79581 0.17869 0.60259 0.0
C445 C 0.74106 0.13753 0.58458 0.0
C446 C 0.79473 0.17457 0.63812 0.0
C447 C 0.68599 1.09013 0.60278 0.0
C448 C 0.68414 1.08652 0.63809 0.0
C449 C 0.73408 0.13206 0.6913 0.0
C450 C 0.78713 0.17837 0.70859 0.0
C451 C 0.73765 0.12977 0.65609 0.0
C452 C 0.84483 0.21879 0.69064 0.0
C453 C 0.84868 0.21714 0.65591 0.0
H454 H 0.87734 0.77096 0.94717 0.0
H455 H 0.7158 0.60217 0.90956 0.0
H456 H 0.68172 0.55382 0.96708 0.0
H457 H 0.69363 0.56244 0.02837 0.0
H458 H 0.85148 0.73269 0.06626 0.0
H459 H 0.89304 0.77609 0.00882 0.0
C460 C 0.83475 0.72351 0.95156 0.0
C461 C 0.79882 0.69059 0.9239 0.0
C462 C 0.81554 0.69567 0.98492 0.0
C463 C 0.74412 0.62886 0.9302 0.0
C464 C 0.72477 0.60101 0.96317 0.0
C465 C 0.73807 0.60826 0.02399 0.0
C466 C 0.76966 0.64413 0.05163 0.0
C467 C 0.75973 0.63414 0.99074 0.0
C468 C 0.82692 0.70365 0.04561 0.0
C469 C 0.84993 0.72895 0.01265 0.0
H470 H 1.11842 0.5907 0.25646 0.0
H471 H 0.26698 0.54033 0.26324 0.0
H472 H 0.27246 0.54777 0.32374 0.0
H473 H 0.23895 0.57298 0.3749 0.0
H474 H 1.09137 0.62358 0.3701 0.0
H475 H 1.0796 0.60946 0.30953 0.0
C476 C 1.15224 0.58192 0.27122 0.0
C477 C 0.19299 0.56586 0.25509 0.0
C478 C 1.15422 0.58483 0.30666 0.0
C479 C 0.23552 0.55329 0.27482 0.0
C480 C 0.23843 0.55711 0.30955 0.0
C481 C 0.20285 0.57886 0.36069 0.0
C482 C 1.16537 0.59825 0.37706 0.0
C483 C 0.19813 0.57277 0.32579 0.0
C484 C 1.11969 0.60716 0.35825 0.0
C485 C 1.11392 0.60027 0.32347 0.0
loop_
_geom_bond_atom_site_label_1
_geom_bond_atom_site_label_2
_geom_bond_distance
_geom_bond_site_symmetry_2
_ccdc_geom_bond_type
Tb0 C2 2.809 . S
Tb0 O20 2.484 . S
Tb0 O21 2.440 . S
Tb0 O22 2.658 . S
Tb0 O23 2.409 . S
Tb0 O24 2.378 . S
Tb0 O28 2.325 . S
Tb0 O31 2.341 1_455 S
Tb1 C11 2.809 . S
Tb1 O22 2.325 1_655 S
Tb1 O25 2.341 1_655 S
Tb1 O26 2.484 . S
Tb1 O27 2.440 . S
Tb1 O28 2.658 1_655 S
Tb1 O29 2.409 . S
Tb1 O30 2.378 . S
C2 Tb0 2.809 . S
C2 C3 1.514 . S
C2 O20 1.248 . S
C2 O21 1.266 . S
C3 C2 1.514 . S
C3 C4 1.359 . S
C3 C8 1.348 . S
C4 C3 1.359 . S
C4 C5 1.380 . S
C4 H32 0.929 . S
C5 C4 1.380 . S
C5 C6 1.347 . S
C5 H33 0.931 . S
C6 C5 1.347 . S
C6 C7 1.369 . S
C7 C6 1.369 . S
C7 C8 1.408 . S
C7 H34 0.930 . S
C8 C3 1.348 . S
C8 C7 1.408 . S
C8 H35 0.930 . S
C9 O22 1.281 . S
C9 O23 1.254 . S
C10 O24 1.236 . S
C10 O25 1.266 . S
C11 Tb1 2.809 . S
C11 C12 1.514 . S
C11 O26 1.248 . S
C11 O27 1.266 . S
C12 C11 1.514 . S
C12 C13 1.359 . S
C12 C17 1.348 . S
C13 C12 1.359 . S
C13 C14 1.380 . S
C13 H36 0.929 . S
C14 C13 1.380 . S
C14 C15 1.347 . S
C14 H37 0.931 . S
C15 C14 1.347 . S
C15 C16 1.369 . S
C16 C15 1.369 . S
C16 C17 1.408 . S
C16 H38 0.930 . S
C17 C12 1.348 . S
C17 C16 1.408 . S
C17 H39 0.930 . S
C18 O28 1.281 . S
C18 O29 1.254 1_455 S
C19 O30 1.236 . S
C19 O31 1.266 . S
O20 Tb0 2.484 . S
O20 C2 1.248 . S
O21 Tb0 2.440 . S
O21 C2 1.266 . S
O22 Tb0 2.658 . S
O22 Tb1 2.325 1_455 S
O22 C9 1.281 . S
O23 Tb0 2.409 . S
O23 C9 1.254 . S
O24 Tb0 2.378 . S
O24 C10 1.236 . S
O25 Tb1 2.341 1_455 S
O25 C10 1.266 . S
O26 Tb1 2.484 . S
O26 C11 1.248 . S
O27 Tb1 2.440 . S
O27 C11 1.266 . S
O28 Tb0 2.325 . S
O28 Tb1 2.658 1_455 S
O28 C18 1.281 . S
O29 Tb1 2.409 . S
O29 C18 1.254 1_655 S
O30 Tb1 2.378 . S
O30 C19 1.236 . S
O31 Tb0 2.341 1_655 S
O31 C19 1.266 . S
H32 C4 0.929 . S
H33 C5 0.931 . S
H34 C7 0.930 . S
H35 C8 0.930 . S
H36 C13 0.929 . S
H37 C14 0.931 . S
H38 C16 0.930 . S
H39 C17 0.930 . S
Tb40 C42 2.809 . S
Tb40 O60 2.484 . S
Tb40 O61 2.440 . S
Tb40 O62 2.658 1_565 S
Tb40 O63 2.409 1_565 S
Tb40 O64 2.378 . S
Tb40 O68 2.325 1_565 S
Tb40 O71 2.341 1_565 S
Tb41 C51 2.809 . S
Tb41 O62 2.325 . S
Tb41 O65 2.341 1_545 S
Tb41 O66 2.484 . S
Tb41 O67 2.440 . S
Tb41 O68 2.658 . S
Tb41 O69 2.409 . S
Tb41 O70 2.378 . S
C42 Tb40 2.809 . S
C42 C43 1.514 . S
C42 O60 1.248 . S
C42 O61 1.266 . S
C43 C42 1.514 . S
C43 C44 1.359 . S
C43 C48 1.348 . S
C44 C43 1.359 . S
C44 C45 1.380 . S
C44 H72 0.929 . S
C45 C44 1.380 . S
C45 C46 1.347 . S
C45 H73 0.931 . S
C46 C45 1.347 . S
C46 C47 1.369 . S
C47 C46 1.369 . S
C47 C48 1.408 . S
C47 H74 0.930 . S
C48 C43 1.348 . S
C48 C47 1.408 . S
C48 H75 0.930 . S
C49 O62 1.281 . S
C49 O63 1.254 . S
C50 O64 1.236 . S
C50 O65 1.266 . S
C51 Tb41 2.809 . S
C51 C52 1.514 . S
C51 O66 1.248 . S
C51 O67 1.266 . S
C52 C51 1.514 . S
C52 C53 1.359 . S
C52 C57 1.348 . S
C53 C52 1.359 . S
C53 C54 1.380 . S
C53 H76 0.929 . S
C54 C53 1.380 . S
C54 C55 1.347 . S
C54 H77 0.931 . S
C55 C54 1.347 . S
C55 C56 1.369 . S
C56 C55 1.369 . S
C56 C57 1.408 . S
C56 H78 0.930 . S
C57 C52 1.348 . S
C57 C56 1.408 . S
C57 H79 0.930 . S
C58 O68 1.281 . S
C58 O69 1.254 . S
C59 O70 1.236 . S
C59 O71 1.266 . S
O60 Tb40 2.484 . S
O60 C42 1.248 . S
O61 Tb40 2.440 . S
O61 C42 1.266 . S
O62 Tb40 2.658 1_545 S
O62 Tb41 2.325 . S
O62 C49 1.281 . S
O63 Tb40 2.409 1_545 S
O63 C49 1.254 . S
O64 Tb40 2.378 . S
O64 C50 1.236 . S
O65 Tb41 2.341 1_565 S
O65 C50 1.266 . S
O66 Tb41 2.484 . S
O66 C51 1.248 . S
O67 Tb41 2.440 . S
O67 C51 1.266 . S
O68 Tb40 2.325 1_545 S
O68 Tb41 2.658 . S
O68 C58 1.281 . S
O69 Tb41 2.409 . S
O69 C58 1.254 . S
O70 Tb41 2.378 . S
O70 C59 1.236 . S
O71 Tb40 2.341 1_545 S
O71 C59 1.266 . S
H72 C44 0.929 . S
H73 C45 0.931 . S
H74 C47 0.930 . S
H75 C48 0.930 . S
H76 C53 0.929 . S
H77 C54 0.931 . S
H78 C56 0.930 . S
H79 C57 0.930 . S
Tb80 C82 2.809 . S
Tb80 O100 2.484 . S
Tb80 O101 2.440 . S
Tb80 O102 2.658 . S
Tb80 O103 2.409 . S
Tb80 O104 2.378 . S
Tb80 O108 2.325 . S
Tb80 O111 2.341 . S
Tb81 C91 2.809 . S
Tb81 O102 2.325 . S
Tb81 O105 2.341 . S
Tb81 O106 2.484 . S
Tb81 O107 2.440 . S
Tb81 O108 2.658 . S
Tb81 O109 2.409 . S
Tb81 O110 2.378 . S
C82 Tb80 2.809 . S
C82 C83 1.514 . S
C82 O100 1.248 . S
C82 O101 1.266 . S
C83 C82 1.514 . S
C83 C84 1.359 . S
C83 C88 1.348 . S
C84 C83 1.359 . S
C84 C85 1.380 . S
C84 H112 0.929 . S
C85 C84 1.380 . S
C85 C86 1.347 . S
C85 H113 0.931 . S
C86 C85 1.347 . S
C86 C87 1.369 . S
C87 C86 1.369 . S
C87 C88 1.408 . S
C87 H114 0.930 . S
C88 C83 1.348 . S
C88 C87 1.408 . S
C88 H115 0.930 . S
C89 O102 1.281 . S
C89 O103 1.254 . S
C90 O104 1.236 . S
C90 O105 1.266 . S
C91 Tb81 2.809 . S
C91 C92 1.514 . S
C91 O106 1.248 . S
C91 O107 1.266 . S
C92 C91 1.514 . S
C92 C93 1.359 . S
C92 C97 1.348 . S
C93 C92 1.359 . S
C93 C94 1.380 . S
C93 H116 0.929 . S
C94 C93 1.380 . S
C94 C95 1.347 . S
C94 H117 0.931 . S
C95 C94 1.347 . S
C95 C96 1.369 . S
C96 C95 1.369 . S
C96 C97 1.408 . S
C96 H118 0.930 . S
C97 C92 1.348 . S
C97 C96 1.408 . S
C97 H119 0.930 . S
C98 O108 1.281 . S
C98 O109 1.254 . S
C99 O110 1.236 . S
C99 O111 1.266 . S
O100 Tb80 2.484 . S
O100 C82 1.248 . S
O101 Tb80 2.440 . S
O101 C82 1.266 . S
O102 Tb80 2.658 . S
O102 Tb81 2.325 . S
O102 C89 1.281 . S
O103 Tb80 2.409 . S
O103 C89 1.254 . S
O104 Tb80 2.378 . S
O104 C90 1.236 . S
O105 Tb81 2.341 . S
O105 C90 1.266 . S
O106 Tb81 2.484 . S
O106 C91 1.248 . S
O107 Tb81 2.440 . S
O107 C91 1.266 . S
O108 Tb80 2.325 . S
O108 Tb81 2.658 . S
O108 C98 1.281 . S
O109 Tb81 2.409 . S
O109 C98 1.254 . S
O110 Tb81 2.378 . S
O110 C99 1.236 . S
O111 Tb80 2.341 . S
O111 C99 1.266 . S
H112 C84 0.929 . S
H113 C85 0.931 . S
H114 C87 0.930 . S
H115 C88 0.930 . S
H116 C93 0.929 . S
H117 C94 0.931 . S
H118 C96 0.930 . S
H119 C97 0.930 . S
C120 N121 1.317 . S
C120 N122 1.348 1_545 S
C120 C123 1.485 . S
N121 C120 1.317 . S
N121 N125 1.370 . S
N122 C120 1.348 1_565 S
N122 C124 1.346 . S
C123 C120 1.485 . S
C123 H127 0.960 . S
C123 H128 0.961 . S
C123 H129 0.960 . S
C124 N122 1.346 . S
C124 N125 1.307 1_565 S
C124 C126 1.486 . S
N125 N121 1.370 . S
N125 C124 1.307 1_545 S
C126 C124 1.486 . S
C126 H130 0.960 . S
C126 H131 0.960 . S
C126 H132 0.959 . S
H127 C123 0.960 . S
H128 C123 0.961 . S
H129 C123 0.960 . S
H130 C126 0.960 . S
H131 C126 0.960 . S
H132 C126 0.959 . S
C133 N134 1.317 . S
C133 N135 1.348 . S
C133 C136 1.485 . S
N134 C133 1.317 . S
N134 N138 1.370 . S
N135 C133 1.348 . S
N135 C137 1.346 . S
C136 C133 1.485 . S
C136 H140 0.960 . S
C136 H141 0.961 . S
C136 H142 0.960 . S
C137 N135 1.346 . S
C137 N138 1.307 . S
C137 C139 1.486 . S
N138 N134 1.370 . S
N138 C137 1.307 . S
C139 C137 1.486 . S
C139 H143 0.960 . S
C139 H144 0.960 . S
C139 H145 0.959 . S
H140 C136 0.960 . S
H141 C136 0.961 . S
H142 C136 0.960 . S
H143 C139 0.960 . S
H144 C139 0.960 . S
H145 C139 0.959 . S
C146 N147 1.317 . S
C146 N148 1.348 1_455 S
C146 C149 1.485 . S
N147 C146 1.317 . S
N147 N151 1.370 . S
N148 C146 1.348 1_655 S
N148 C150 1.346 . S
C149 C146 1.485 . S
C149 H153 0.960 . S
C149 H154 0.961 1_455 S
C149 H155 0.960 . S
C150 N148 1.346 . S
C150 N151 1.307 1_655 S
C150 C152 1.486 . S
N151 N147 1.370 . S
N151 C150 1.307 1_455 S
C152 C150 1.486 . S
C152 H156 0.960 . S
C152 H157 0.960 . S
C152 H158 0.959 . S
H153 C149 0.960 . S
H154 C149 0.961 1_655 S
H155 C149 0.960 . S
H156 C152 0.960 . S
H157 C152 0.960 . S
H158 C152 0.959 . S
C159 N160 1.317 . S
C159 N161 1.348 . S
C159 C162 1.485 . S
N160 C159 1.317 . S
N160 N164 1.370 . S
N161 C159 1.348 . S
N161 C163 1.346 . S
C162 C159 1.485 . S
C162 H166 0.960 . S
C162 H167 0.961 . S
C162 H168 0.960 . S
C163 N161 1.346 . S
C163 N164 1.307 . S
C163 C165 1.486 . S
N164 N160 1.370 . S
N164 C163 1.307 . S
C165 C163 1.486 . S
C165 H169 0.960 . S
C165 H170 0.960 . S
C165 H171 0.959 . S
H166 C162 0.960 . S
H167 C162 0.961 . S
H168 C162 0.960 . S
H169 C165 0.960 . S
H170 C165 0.960 . S
H171 C165 0.959 . S
C172 N173 1.317 . S
C172 N174 1.348 . S
C172 C175 1.485 . S
N173 C172 1.317 . S
N173 N177 1.370 . S
N174 C172 1.348 . S
N174 C176 1.346 . S
C175 C172 1.485 . S
C175 H179 0.960 . S
C175 H180 0.961 . S
C175 H181 0.960 1_545 S
C176 N174 1.346 . S
C176 N177 1.307 . S
C176 C178 1.486 . S
N177 N173 1.370 . S
N177 C176 1.307 . S
C178 C176 1.486 . S
C178 H182 0.960 . S
C178 H183 0.960 . S
C178 H184 0.959 . S
H179 C175 0.960 . S
H180 C175 0.961 . S
H181 C175 0.960 1_565 S
H182 C178 0.960 . S
H183 C178 0.960 . S
H184 C178 0.959 . S
C185 N186 1.317 . S
C185 N187 1.348 . S
C185 C188 1.485 . S
N186 C185 1.317 . S
N186 N190 1.370 . S
N187 C185 1.348 . S
N187 C189 1.346 . S
C188 C185 1.485 . S
C188 H192 0.960 . S
C188 H193 0.961 . S
C188 H194 0.960 . S
C189 N187 1.346 . S
C189 N190 1.307 . S
C189 C191 1.486 . S
N190 N186 1.370 . S
N190 C189 1.307 . S
C191 C189 1.486 . S
C191 H195 0.960 . S
C191 H196 0.960 . S
C191 H197 0.959 . S
H192 C188 0.960 . S
H193 C188 0.961 . S
H194 C188 0.960 . S
H195 C191 0.960 . S
H196 C191 0.960 . S
H197 C191 0.959 . S
H198 C204 0.930 . S
H199 C207 0.930 . S
H200 C208 0.930 . S
H201 C209 0.930 . S
H202 C212 0.930 . S
H203 C213 0.930 . S
C204 H198 0.930 . S
C204 C205 1.355 . S
C204 C206 1.415 . S
C205 C204 1.355 . S
C205 C207 1.419 . S
C206 C204 1.415 . S
C206 C211 1.425 . S
C206 C213 1.409 . S
C207 H199 0.930 . S
C207 C205 1.419 . S
C207 C208 1.362 . S
C208 H200 0.930 . S
C208 C207 1.362 . S
C208 C211 1.409 . S
C209 H201 0.930 . S
C209 C210 1.355 . S
C209 C211 1.415 . S
C210 C209 1.355 . S
C210 C212 1.419 . S
C211 C206 1.425 . S
C211 C208 1.409 . S
C211 C209 1.415 . S
C212 H202 0.930 . S
C212 C210 1.419 . S
C212 C213 1.362 . S
C213 H203 0.930 . S
C213 C206 1.409 . S
C213 C212 1.362 . S
H214 C220 0.930 . S
H215 C223 0.930 . S
H216 C224 0.930 . S
H217 C225 0.930 . S
H218 C228 0.930 . S
H219 C229 0.930 . S
C220 H214 0.930 . S
C220 C221 1.355 . S
C220 C222 1.415 . S
C221 C220 1.355 . S
C221 C223 1.419 . S
C222 C220 1.415 . S
C222 C227 1.425 . S
C222 C229 1.409 . S
C223 H215 0.930 . S
C223 C221 1.419 . S
C223 C224 1.362 . S
C224 H216 0.930 . S
C224 C223 1.362 . S
C224 C227 1.409 . S
C225 H217 0.930 . S
C225 C226 1.355 . S
C225 C227 1.415 . S
C226 C225 1.355 . S
C226 C228 1.419 . S
C227 C222 1.425 . S
C227 C224 1.409 . S
C227 C225 1.415 . S
C228 H218 0.930 . S
C228 C226 1.419 . S
C228 C229 1.362 . S
C229 H219 0.930 . S
C229 C222 1.409 . S
C229 C228 1.362 . S
H230 C236 0.930 . S
H231 C239 0.930 . S
H232 C240 0.930 . S
H233 C241 0.930 . S
H234 C244 0.930 . S
H235 C245 0.930 . S
C236 H230 0.930 . S
C236 C237 1.355 . S
C236 C238 1.415 . S
C237 C236 1.355 . S
C237 C239 1.419 . S
C238 C236 1.415 . S
C238 C243 1.425 . S
C238 C245 1.409 . S
C239 H231 0.930 . S
C239 C237 1.419 . S
C239 C240 1.362 . S
C240 H232 0.930 . S
C240 C239 1.362 . S
C240 C243 1.409 . S
C241 H233 0.930 . S
C241 C242 1.355 . S
C241 C243 1.415 . S
C242 C241 1.355 . S
C242 C244 1.419 . S
C243 C238 1.425 . S
C243 C240 1.409 . S
C243 C241 1.415 . S
C244 H234 0.930 . S
C244 C242 1.419 . S
C244 C245 1.362 . S
C245 H235 0.930 . S
C245 C238 1.409 . S
C245 C244 1.362 . S
H246 C252 0.930 . S
H247 C255 0.930 . S
H248 C256 0.930 . S
H249 C257 0.930 . S
H250 C260 0.930 . S
H251 C261 0.930 . S
C252 H246 0.930 . S
C252 C253 1.355 . S
C252 C254 1.415 . S
C253 C252 1.355 . S
C253 C255 1.419 . S
C254 C252 1.415 . S
C254 C259 1.425 . S
C254 C261 1.409 . S
C255 H247 0.930 . S
C255 C253 1.419 . S
C255 C256 1.362 . S
C256 H248 0.930 . S
C256 C255 1.362 . S
C256 C259 1.409 . S
C257 H249 0.930 . S
C257 C258 1.355 . S
C257 C259 1.415 . S
C258 C257 1.355 . S
C258 C260 1.419 . S
C259 C254 1.425 . S
C259 C256 1.409 . S
C259 C257 1.415 . S
C260 H250 0.930 . S
C260 C258 1.419 . S
C260 C261 1.362 . S
C261 H251 0.930 . S
C261 C254 1.409 . S
C261 C260 1.362 . S
H262 C268 0.930 . S
H263 C271 0.930 . S
H264 C272 0.930 . S
H265 C273 0.930 . S
H266 C276 0.930 . S
H267 C277 0.930 . S
C268 H262 0.930 . S
C268 C269 1.355 . S
C268 C270 1.415 . S
C269 C268 1.355 . S
C269 C271 1.419 . S
C270 C268 1.415 . S
C270 C275 1.425 . S
C270 C277 1.409 . S
C271 H263 0.930 . S
C271 C269 1.419 . S
C271 C272 1.362 . S
C272 H264 0.930 . S
C272 C271 1.362 . S
C272 C275 1.409 . S
C273 H265 0.930 . S
C273 C274 1.355 . S
C273 C275 1.415 . S
C274 C273 1.355 . S
C274 C276 1.419 . S
C275 C270 1.425 . S
C275 C272 1.409 . S
C275 C273 1.415 . S
C276 H266 0.930 . S
C276 C274 1.419 . S
C276 C277 1.362 . S
C277 H267 0.930 . S
C277 C270 1.409 . S
C277 C276 1.362 . S
H278 C284 0.930 . S
H279 C287 0.930 . S
H280 C288 0.930 . S
H281 C289 0.930 . S
H282 C292 0.930 . S
H283 C293 0.930 . S
C284 H278 0.930 . S
C284 C285 1.355 . S
C284 C286 1.415 . S
C285 C284 1.355 . S
C285 C287 1.419 . S
C286 C284 1.415 . S
C286 C291 1.425 . S
C286 C293 1.409 . S
C287 H279 0.930 . S
C287 C285 1.419 . S
C287 C288 1.362 . S
C288 H280 0.930 . S
C288 C287 1.362 . S
C288 C291 1.409 . S
C289 H281 0.930 . S
C289 C290 1.355 . S
C289 C291 1.415 . S
C290 C289 1.355 . S
C290 C292 1.419 . S
C291 C286 1.425 . S
C291 C288 1.409 . S
C291 C289 1.415 . S
C292 H282 0.930 . S
C292 C290 1.419 . S
C292 C293 1.362 . S
C293 H283 0.930 . S
C293 C286 1.409 . S
C293 C292 1.362 . S
H294 C300 0.930 . S
H295 C303 0.930 . S
H296 C304 0.930 . S
H297 C305 0.930 . S
H298 C308 0.930 . S
H299 C309 0.930 . S
C300 H294 0.930 . S
C300 C301 1.355 . S
C300 C302 1.415 . S
C301 C300 1.355 . S
C301 C303 1.419 . S
C302 C300 1.415 . S
C302 C307 1.425 . S
C302 C309 1.409 . S
C303 H295 0.930 . S
C303 C301 1.419 . S
C303 C304 1.362 . S
C304 H296 0.930 . S
C304 C303 1.362 . S
C304 C307 1.409 . S
C305 H297 0.930 . S
C305 C306 1.355 . S
C305 C307 1.415 . S
C306 C305 1.355 . S
C306 C308 1.419 . S
C307 C302 1.425 . S
C307 C304 1.409 . S
C307 C305 1.415 . S
C308 H298 0.930 . S
C308 C306 1.419 . S
C308 C309 1.362 . S
C309 H299 0.930 . S
C309 C302 1.409 . S
C309 C308 1.362 . S
H310 C316 0.930 . S
H311 C319 0.930 . S
H312 C320 0.930 . S
H313 C321 0.930 . S
H314 C324 0.930 . S
H315 C325 0.930 . S
C316 H310 0.930 . S
C316 C317 1.355 . S
C316 C318 1.415 . S
C317 C316 1.355 . S
C317 C319 1.419 . S
C318 C316 1.415 . S
C318 C323 1.425 . S
C318 C325 1.409 . S
C319 H311 0.930 . S
C319 C317 1.419 . S
C319 C320 1.362 . S
C320 H312 0.930 . S
C320 C319 1.362 . S
C320 C323 1.409 . S
C321 H313 0.930 . S
C321 C322 1.355 . S
C321 C323 1.415 . S
C322 C321 1.355 . S
C322 C324 1.419 . S
C323 C318 1.425 . S
C323 C320 1.409 . S
C323 C321 1.415 . S
C324 H314 0.930 . S
C324 C322 1.419 . S
C324 C325 1.362 . S
C325 H315 0.930 . S
C325 C318 1.409 . S
C325 C324 1.362 . S
H326 C332 0.930 . S
H327 C335 0.930 . S
H328 C336 0.930 . S
H329 C337 0.930 . S
H330 C340 0.930 . S
H331 C341 0.930 . S
C332 H326 0.930 . S
C332 C333 1.355 . S
C332 C334 1.415 . S
C333 C332 1.355 . S
C333 C335 1.419 . S
C334 C332 1.415 . S
C334 C339 1.425 . S
C334 C341 1.409 . S
C335 H327 0.930 . S
C335 C333 1.419 . S
C335 C336 1.362 . S
C336 H328 0.930 . S
C336 C335 1.362 . S
C336 C339 1.409 . S
C337 H329 0.930 . S
C337 C338 1.355 . S
C337 C339 1.415 . S
C338 C337 1.355 . S
C338 C340 1.419 . S
C339 C334 1.425 . S
C339 C336 1.409 . S
C339 C337 1.415 . S
C340 H330 0.930 . S
C340 C338 1.419 . S
C340 C341 1.362 . S
C341 H331 0.930 . S
C341 C334 1.409 . S
C341 C340 1.362 . S
H342 C348 0.930 . S
H343 C351 0.930 . S
H344 C352 0.930 . S
H345 C353 0.930 . S
H346 C356 0.930 . S
H347 C357 0.930 . S
C348 H342 0.930 . S
C348 C349 1.355 . S
C348 C350 1.415 . S
C349 C348 1.355 . S
C349 C351 1.419 . S
C350 C348 1.415 . S
C350 C355 1.425 . S
C350 C357 1.409 . S
C351 H343 0.930 . S
C351 C349 1.419 . S
C351 C352 1.362 . S
C352 H344 0.930 . S
C352 C351 1.362 . S
C352 C355 1.409 . S
C353 H345 0.930 . S
C353 C354 1.355 . S
C353 C355 1.415 . S
C354 C353 1.355 . S
C354 C356 1.419 . S
C355 C350 1.425 . S
C355 C352 1.409 . S
C355 C353 1.415 . S
C356 H346 0.930 . S
C356 C354 1.419 . S
C356 C357 1.362 . S
C357 H347 0.930 . S
C357 C350 1.409 . S
C357 C356 1.362 . S
H358 C364 0.930 . S
H359 C367 0.930 . S
H360 C368 0.930 . S
H361 C369 0.930 . S
H362 C372 0.930 . S
H363 C373 0.930 . S
C364 H358 0.930 . S
C364 C365 1.355 . S
C364 C366 1.415 . S
C365 C364 1.355 . S
C365 C367 1.419 . S
C366 C364 1.415 . S
C366 C371 1.425 . S
C366 C373 1.409 . S
C367 H359 0.930 . S
C367 C365 1.419 . S
C367 C368 1.362 . S
C368 H360 0.930 . S
C368 C367 1.362 . S
C368 C371 1.409 . S
C369 H361 0.930 . S
C369 C370 1.355 . S
C369 C371 1.415 . S
C370 C369 1.355 . S
C370 C372 1.419 . S
C371 C366 1.425 . S
C371 C368 1.409 . S
C371 C369 1.415 . S
C372 H362 0.930 . S
C372 C370 1.419 . S
C372 C373 1.362 . S
C373 H363 0.930 . S
C373 C366 1.409 . S
C373 C372 1.362 . S
H374 C380 0.930 . S
H375 C383 0.930 . S
H376 C384 0.930 . S
H377 C385 0.930 . S
H378 C388 0.930 . S
H379 C389 0.930 . S
C380 H374 0.930 . S
C380 C381 1.355 . S
C380 C382 1.415 . S
C381 C380 1.355 . S
C381 C383 1.419 . S
C382 C380 1.415 . S
C382 C387 1.425 . S
C382 C389 1.409 . S
C383 H375 0.930 . S
C383 C381 1.419 . S
C383 C384 1.362 . S
C384 H376 0.930 . S
C384 C383 1.362 . S
C384 C387 1.409 . S
C385 H377 0.930 . S
C385 C386 1.355 . S
C385 C387 1.415 . S
C386 C385 1.355 . S
C386 C388 1.419 . S
C387 C382 1.425 . S
C387 C384 1.409 . S
C387 C385 1.415 . S
C388 H378 0.930 . S
C388 C386 1.419 . S
C388 C389 1.362 . S
C389 H379 0.930 . S
C389 C382 1.409 . S
C389 C388 1.362 . S
H390 C396 0.930 . S
H391 C399 0.930 . S
H392 C400 0.930 . S
H393 C401 0.930 . S
H394 C404 0.930 . S
H395 C405 0.930 . S
C396 H390 0.930 . S
C396 C397 1.355 . S
C396 C398 1.415 . S
C397 C396 1.355 . S
C397 C399 1.419 1_455 S
C398 C396 1.415 . S
C398 C403 1.429 . S
C398 C405 1.409 1_554 S
C399 H391 0.930 . S
C399 C397 1.419 1_655 S
C399 C400 1.362 . S
C400 H392 0.930 . S
C400 C399 1.362 . S
C400 C403 1.405 1_655 S
C401 H393 0.930 . S
C401 C402 1.355 1_655 S
C401 C403 1.415 1_656 S
C402 C401 1.355 1_455 S
C402 C404 1.419 . S
C403 C398 1.429 . S
C403 C400 1.405 1_455 S
C403 C401 1.415 1_454 S
C404 H394 0.930 . S
C404 C402 1.419 . S
C404 C405 1.362 . S
C405 H395 0.930 . S
C405 C398 1.409 1_556 S
C405 C404 1.362 . S
H406 C412 0.930 . S
H407 C415 0.930 . S
H408 C416 0.930 . S
H409 C417 0.930 1_565 S
H410 C420 0.930 . S
H411 C421 0.930 . S
C412 H406 0.930 . S
C412 C413 1.355 . S
C412 C414 1.415 . S
C413 C412 1.355 . S
C413 C415 1.419 1_545 S
C414 C412 1.415 . S
C414 C419 1.425 . S
C414 C421 1.409 . S
C415 H407 0.930 . S
C415 C413 1.419 1_565 S
C415 C416 1.362 . S
C416 H408 0.930 . S
C416 C415 1.362 . S
C416 C419 1.409 1_565 S
C417 H409 0.930 1_545 S
C417 C418 1.355 . S
C417 C419 1.415 . S
C418 C417 1.355 . S
C418 C420 1.419 . S
C419 C414 1.425 . S
C419 C416 1.409 1_545 S
C419 C417 1.415 . S
C420 H410 0.930 . S
C420 C418 1.419 . S
C420 C421 1.362 . S
C421 H411 0.930 . S
C421 C414 1.409 . S
C421 C420 1.362 . S
H422 C428 0.930 . S
H423 C431 0.930 . S
H424 C432 0.930 . S
H425 C433 0.930 . S
H426 C436 0.930 . S
H427 C437 0.930 . S
C428 H422 0.930 . S
C428 C429 1.355 . S
C428 C430 1.415 . S
C429 C428 1.355 . S
C429 C431 1.419 . S
C430 C428 1.415 . S
C430 C435 1.425 . S
C430 C437 1.409 . S
C431 H423 0.930 . S
C431 C429 1.419 . S
C431 C432 1.362 . S
C432 H424 0.930 . S
C432 C431 1.362 . S
C432 C435 1.409 . S
C433 H425 0.930 . S
C433 C434 1.355 . S
C433 C435 1.415 . S
C434 C433 1.355 . S
C434 C436 1.419 . S
C435 C430 1.425 . S
C435 C432 1.409 . S
C435 C433 1.415 . S
C436 H426 0.930 . S
C436 C434 1.419 . S
C436 C437 1.362 . S
C437 H427 0.930 . S
C437 C430 1.409 . S
C437 C436 1.362 . S
H438 C444 0.930 1_565 S
H439 C447 0.930 . S
H440 C448 0.930 . S
H441 C449 0.930 . S
H442 C452 0.930 1_565 S
H443 C453 0.930 1_565 S
C444 H438 0.930 1_545 S
C444 C445 1.355 . S
C444 C446 1.415 . S
C445 C444 1.355 . S
C445 C447 1.419 . S
C446 C444 1.415 . S
C446 C451 1.425 . S
C446 C453 1.409 . S
C447 H439 0.930 . S
C447 C445 1.419 . S
C447 C448 1.362 . S
C448 H440 0.930 . S
C448 C447 1.362 . S
C448 C451 1.409 . S
C449 H441 0.930 . S
C449 C450 1.355 . S
C449 C451 1.415 . S
C450 C449 1.355 . S
C450 C452 1.419 . S
C451 C446 1.425 . S
C451 C448 1.409 . S
C451 C449 1.415 . S
C452 H442 0.930 1_545 S
C452 C450 1.419 . S
C452 C453 1.362 . S
C453 H443 0.930 1_545 S
C453 C446 1.409 . S
C453 C452 1.362 . S
H454 C460 0.930 . S
H455 C463 0.930 . S
H456 C464 0.930 . S
H457 C465 0.930 . S
H458 C468 0.930 . S
H459 C469 0.941 . S
C460 H454 0.930 . S
C460 C461 1.355 . S
C460 C462 1.415 . S
C461 C460 1.355 . S
C461 C463 1.419 . S
C462 C460 1.415 . S
C462 C467 1.425 1_556 S
C462 C469 1.409 1_556 S
C463 H455 0.930 . S
C463 C461 1.419 . S
C463 C464 1.362 . S
C464 H456 0.930 . S
C464 C463 1.362 . S
C464 C467 1.409 1_556 S
C465 H457 0.930 . S
C465 C466 1.355 . S
C465 C467 1.415 . S
C466 C465 1.355 . S
C466 C468 1.419 . S
C467 C462 1.425 1_554 S
C467 C464 1.409 1_554 S
C467 C465 1.415 . S
C468 H458 0.930 . S
C468 C466 1.419 . S
C468 C469 1.362 . S
C469 H459 0.941 . S
C469 C462 1.409 1_554 S
C469 C468 1.362 . S
H470 C476 0.930 . S
H471 C479 0.930 . S
H472 C480 0.930 . S
H473 C481 0.930 . S
H474 C484 0.930 . S
H475 C485 0.930 . S
C476 H470 0.930 . S
C476 C477 1.355 . S
C476 C478 1.415 . S
C477 C476 1.355 . S
C477 C479 1.419 . S
C478 C476 1.415 . S
C478 C483 1.425 . S
C478 C485 1.409 . S
C479 H471 0.930 . S
C479 C477 1.419 . S
C479 C480 1.362 . S
C480 H472 0.930 . S
C480 C479 1.362 . S
C480 C483 1.409 . S
C481 H473 0.930 . S
C481 C482 1.355 . S
C481 C483 1.415 . S
C482 C481 1.355 . S
C482 C484 1.419 . S
C483 C478 1.425 . S
C483 C480 1.409 . S
C483 C481 1.415 . S
C484 H474 0.930 . S
C484 C482 1.419 . S
C484 C485 1.362 . S
C485 H475 0.930 . S
C485 C478 1.409 . S
C485 C484 1.362 . S
C205 C10 2.776 . S
C210 N187 2.764 . S
C221 C59 2.976 . S
C226 N160 2.988 1_655 S
C237 C90 2.910 . S
C242 N173 2.947 1_565 S
C253 C19 3.313 . S
C258 N186 3.317 . S
C274 N161 3.062 . S
C269 C50 3.054 . S
C290 N174 3.111 . S
C285 C99 3.137 . S
C301 C46 0.436 . S
C306 N134 0.350 . S
C317 C95 0.359 . S
C322 N148 0.271 . S
C333 C6 0.686 . S
C338 N122 0.636 . S
C354 N135 0.631 . S
C349 C55 0.671 . S
C370 N147 0.745 . S
C365 C86 0.734 . S
C381 C15 0.583 . S
C386 N121 0.517 . S
C402 N151 1.160 . S
C397 C9 1.173 . S
C413 C49 1.217 . S
C418 N125 1.261 . S
C429 C89 1.155 . S
C434 N138 1.157 . S
C450 N177 1.824 . S
C445 C58 1.660 . S
C466 N190 1.748 . S
C461 C98 1.730 . S
C477 C18 1.678 . S
C482 N164 1.732 . S
