# Generated by pormake.
# Topology dag, (6,3)-cn, num edge types: 1
# Building blocks:
#     Node 0, Type 0, BuildingBlock: OJICUG_clean_sbu_0, # of connection points: 6
#     Node 1, Type 0, BuildingBlock: OJICUG_clean_sbu_0, # of connection points: 6
#     Node 2, Type 0, BuildingBlock: OJICUG_clean_sbu_0, # of connection points: 6
#     Node 3, Type 0, BuildingBlock: OJICUG_clean_sbu_0, # of connection points: 6
#     Node 4, Type 1, BuildingBlock: BETDAH_clean_linker_0, # of connection points: 3
#     Node 5, Type 1, BuildingBlock: BETDAH_clean_linker_0, # of connection points: 3
#     Node 6, Type 1, BuildingBlock: BETDAH_clean_linker_0, # of connection points: 3
#     Node 7, Type 1, BuildingBlock: BETDAH_clean_linker_0, # of connection points: 3
#     Node 8, Type 1, BuildingBlock: BETDAH_clean_linker_0, # of connection points: 3
#     Node 9, Type 1, BuildingBlock: BETDAH_clean_linker_0, # of connection points: 3
#     Node 10, Type 1, BuildingBlock: BETDAH_clean_linker_0, # of connection points: 3
#     Node 11, Type 1, BuildingBlock: BETDAH_clean_linker_0, # of connection points: 3
#     Edge 12, Type (0, 1), BuildingBlock: KIFKEQ_clean_linker_1, # of connection points: 2
#     Edge 13, Type (0, 1), BuildingBlock: KIFKEQ_clean_linker_1, # of connection points: 2
#     Edge 14, Type (0, 1), BuildingBlock: KIFKEQ_clean_linker_1, # of connection points: 2
#     Edge 15, Type (0, 1), BuildingBlock: KIFKEQ_clean_linker_1, # of connection points: 2
#     Edge 16, Type (0, 1), BuildingBlock: KIFKEQ_clean_linker_1, # of connection points: 2
#     Edge 17, Type (0, 1), BuildingBlock: KIFKEQ_clean_linker_1, # of connection points: 2
#     Edge 18, Type (0, 1), BuildingBlock: KIFKEQ_clean_linker_1, # of connection points: 2
#     Edge 19, Type (0, 1), BuildingBlock: KIFKEQ_clean_linker_1, # of connection points: 2
#     Edge 20, Type (0, 1), BuildingBlock: KIFKEQ_clean_linker_1, # of connection points: 2
#     Edge 21, Type (0, 1), BuildingBlock: KIFKEQ_clean_linker_1, # of connection points: 2
#     Edge 22, Type (0, 1), BuildingBlock: KIFKEQ_clean_linker_1, # of connection points: 2
#     Edge 23, Type (0, 1), BuildingBlock: KIFKEQ_clean_linker_1, # of connection points: 2
#     Edge 24, Type (0, 1), BuildingBlock: KIFKEQ_clean_linker_1, # of connection points: 2
#     Edge 25, Type (0, 1), BuildingBlock: KIFKEQ_clean_linker_1, # of connection points: 2
#     Edge 26, Type (0, 1), BuildingBlock: KIFKEQ_clean_linker_1, # of connection points: 2
#     Edge 27, Type (0, 1), BuildingBlock: KIFKEQ_clean_linker_1, # of connection points: 2
#     Edge 28, Type (0, 1), BuildingBlock: KIFKEQ_clean_linker_1, # of connection points: 2
#     Edge 29, Type (0, 1), BuildingBlock: KIFKEQ_clean_linker_1, # of connection points: 2
#     Edge 30, Type (0, 1), BuildingBlock: KIFKEQ_clean_linker_1, # of connection points: 2
#     Edge 31, Type (0, 1), BuildingBlock: KIFKEQ_clean_linker_1, # of connection points: 2
#     Edge 32, Type (0, 1), BuildingBlock: KIFKEQ_clean_linker_1, # of connection points: 2
#     Edge 33, Type (0, 1), BuildingBlock: KIFKEQ_clean_linker_1, # of connection points: 2
#     Edge 34, Type (0, 1), BuildingBlock: KIFKEQ_clean_linker_1, # of connection points: 2
#     Edge 35, Type (0, 1), BuildingBlock: KIFKEQ_clean_linker_1, # of connection points: 2
# Relax obj value: 0.096
# Max RMSD: 0.110
# Mean RMSD: 0.094
data_MOF--net-dag--node1-OJICUG_clean_sbu_0--node2-BETDAH_clean_linker_0--edge1-KIFKEQ_clean_linker_1
_symmetry_space_group_name_H-M    P1
_symmetry_Int_Tables_number       1
_symmetry_cell_setting            triclinic
loop_
_symmetry_equiv_pos_as_xyz
'x, y, z'
_cell_length_a     37.176993
_cell_length_b     39.793093
_cell_length_c     39.498044
_cell_angle_alpha  94.164767
_cell_angle_beta   89.990374
_cell_angle_gamma 90.011187
loop_
_atom_site_label
_atom_site_type_symbol
_atom_site_fract_x
_atom_site_fract_y
_atom_site_fract_z
_atom_type_partial_charge
Sc0 Sc 0.10219 0.88297 0.07131 0.0
Sc1 Sc 0.11632 0.79553 0.06746 0.0
Sc2 Sc 0.18829 0.85203 0.0887 0.0
O3 O 0.13565 0.84346 0.07581 0.0
C4 C 0.17411 0.90819 0.03676 0.0
C5 C 0.07547 0.83247 0.0097 0.0
C6 C 0.19394 0.78974 0.03262 0.0
C7 C 0.05112 0.83232 0.10788 0.0
C8 C 0.14917 0.90979 0.13551 0.0
C9 C 0.16736 0.79041 0.13223 0.0
O10 O 0.14022 0.90827 0.04109 0.0
O11 O 0.08826 0.80598 0.02134 0.0
O12 O 0.20717 0.81482 0.0502 0.0
O13 O 0.06082 0.86165 0.10091 0.0
O14 O 0.17611 0.8908 0.12859 0.0
O15 O 0.14175 0.77993 0.11285 0.0
O16 O 0.1211 0.90924 0.11718 0.0
O17 O 0.06813 0.80581 0.09736 0.0
O18 O 0.1865 0.8159 0.12659 0.0
O19 O 0.07868 0.86146 0.0251 0.0
O20 O 0.19527 0.88943 0.05228 0.0
O21 O 0.16169 0.77991 0.03611 0.0
Sc22 Sc 0.6898 0.6454 0.45667 0.0
Sc23 Sc 0.61905 0.70277 0.47942 0.0
Sc24 Sc 0.60464 0.61546 0.4786 0.0
O25 O 0.63788 0.65461 0.47157 0.0
C26 C 0.64792 0.58722 0.41266 0.0
C27 C 0.66703 0.70593 0.41237 0.0
C28 C 0.5517 0.6655 0.4432 0.0
C29 C 0.69842 0.70915 0.51061 0.0
C30 C 0.6782 0.59043 0.51027 0.0
C31 C 0.58217 0.66736 0.54057 0.0
O32 O 0.6754 0.60586 0.41831 0.0
O33 O 0.64231 0.71705 0.43249 0.0
O34 O 0.56147 0.63647 0.45101 0.0
O35 O 0.71061 0.68344 0.49328 0.0
O36 O 0.64419 0.59025 0.50707 0.0
O37 O 0.59328 0.69354 0.52707 0.0
O38 O 0.69865 0.60898 0.49377 0.0
O39 O 0.66604 0.71907 0.5083 0.0
O40 O 0.58475 0.63795 0.52595 0.0
O41 O 0.68631 0.68052 0.41793 0.0
O42 O 0.62061 0.58846 0.43204 0.0
O43 O 0.56951 0.69209 0.45178 0.0
Sc44 Sc 0.88214 0.20458 0.97602 0.0
Sc45 Sc 0.81001 0.14822 0.95527 0.0
Sc46 Sc 0.89613 0.11705 0.97198 0.0
O47 O 0.86274 0.15667 0.96775 0.0
C48 C 0.94794 0.16801 0.93652 0.0
C49 C 0.83152 0.20904 0.91087 0.0
C50 C 0.84909 0.09052 0.90802 0.0
C51 C 0.8044 0.21112 0.01048 0.0
C52 C 0.92124 0.16713 0.03458 0.0
C53 C 0.82407 0.09195 0.00678 0.0
O54 O 0.93052 0.19441 0.94651 0.0
O55 O 0.81228 0.18369 0.91681 0.0
O56 O 0.87794 0.09156 0.92528 0.0
O57 O 0.83676 0.22065 0.00717 0.0
O58 O 0.91811 0.13812 0.01915 0.0
O59 O 0.80288 0.11159 0.99242 0.0
O60 O 0.90963 0.19381 0.02233 0.0
O61 O 0.79112 0.18602 0.99303 0.0
O62 O 0.85775 0.09106 0.00119 0.0
O63 O 0.85701 0.21985 0.93028 0.0
O64 O 0.93831 0.13869 0.94355 0.0
O65 O 0.82191 0.10881 0.9161 0.0
Sc66 Sc 0.39652 0.38059 0.56861 0.0
Sc67 Sc 0.31098 0.35048 0.58919 0.0
Sc68 Sc 0.382 0.29327 0.56686 0.0
O69 O 0.36314 0.34139 0.57493 0.0
C70 C 0.41943 0.32923 0.50637 0.0
C71 C 0.32339 0.40587 0.53623 0.0
C72 C 0.30326 0.28735 0.53438 0.0
C73 C 0.35234 0.4084 0.63414 0.0
C74 C 0.44908 0.33009 0.60389 0.0
C75 C 0.33319 0.28965 0.63333 0.0
O76 O 0.41676 0.35854 0.52121 0.0
O77 O 0.30267 0.38709 0.55218 0.0
O78 O 0.33556 0.27742 0.53713 0.0
O79 O 0.38004 0.40715 0.61525 0.0
O80 O 0.43121 0.30362 0.59506 0.0
O81 O 0.314 0.31512 0.62775 0.0
O82 O 0.43946 0.35924 0.59628 0.0
O83 O 0.32487 0.38988 0.62791 0.0
O84 O 0.3581 0.27863 0.61337 0.0
O85 O 0.35733 0.40614 0.54004 0.0
O86 O 0.4083 0.30292 0.51961 0.0
O87 O 0.29066 0.31273 0.55196 0.0
H88 H 0.08263 0.11025 0.22568 0.0
H89 H 0.16334 0.14722 0.29693 0.0
H90 H 0.08991 0.21633 0.25405 0.0
C91 C 0.09456 0.13107 0.24103 0.0
C92 C 0.08216 0.16392 0.23775 0.0
C93 C 0.12389 0.12489 0.26201 0.0
C94 C 0.14035 0.15186 0.28108 0.0
C95 C 0.12755 0.18495 0.27853 0.0
C96 C 0.09908 0.19075 0.25641 0.0
N97 N 0.14353 0.21332 0.29641 0.0
C98 C 0.16259 0.21264 0.3266 0.0
H99 H 0.4214 0.61132 0.72947 0.0
H100 H 0.40506 0.71721 0.75367 0.0
H101 H 0.33321 0.64507 0.79376 0.0
C102 C 0.40713 0.63166 0.74348 0.0
C103 C 0.37664 0.62421 0.7625 0.0
C104 C 0.41755 0.66506 0.7399 0.0
C105 C 0.39755 0.69122 0.75642 0.0
C106 C 0.36797 0.68425 0.7768 0.0
C107 C 0.35715 0.6506 0.77954 0.0
N108 N 0.34849 0.71188 0.79223 0.0
C109 C 0.33046 0.71171 0.82303 0.0
H110 H 0.8189 0.90118 0.14684 0.0
H111 H 0.76769 0.8105 0.1746 0.0
H112 H 0.70396 0.89109 0.13872 0.0
C113 C 0.79451 0.88692 0.15058 0.0
C114 C 0.76115 0.90025 0.14185 0.0
C115 C 0.79708 0.85452 0.16201 0.0
C116 C 0.76573 0.83566 0.16598 0.0
C117 C 0.73194 0.84922 0.15825 0.0
C118 C 0.72994 0.881 0.14522 0.0
N119 N 0.69963 0.83152 0.1637 0.0
C120 C 0.69568 0.81198 0.19115 0.0
H121 H 0.68501 0.39708 0.64203 0.0
H122 H 0.73295 0.30365 0.66631 0.0
H123 H 0.79937 0.38331 0.63226 0.0
C124 C 0.70881 0.38177 0.64494 0.0
C125 C 0.7426 0.39426 0.63635 0.0
C126 C 0.70506 0.34903 0.65527 0.0
C127 C 0.73572 0.329 0.65833 0.0
C128 C 0.76994 0.34169 0.65069 0.0
C129 C 0.77308 0.37383 0.63864 0.0
N130 N 0.80154 0.32287 0.65575 0.0
C131 C 0.80541 0.30479 0.68425 0.0
H132 H 0.57646 0.38605 0.31534 0.0
H133 H 0.663 0.35262 0.24891 0.0
H134 H 0.59124 0.28034 0.28894 0.0
C135 C 0.59024 0.36581 0.30072 0.0
C136 C 0.57958 0.33241 0.30389 0.0
C137 C 0.6204 0.37332 0.28129 0.0
C138 C 0.63931 0.34703 0.26346 0.0
C139 C 0.62821 0.3134 0.26579 0.0
C140 C 0.59896 0.30633 0.28653 0.0
N141 N 0.647 0.28581 0.24944 0.0
C142 C 0.66546 0.28669 0.21893 0.0
H143 H 0.18122 0.10169 0.90072 0.0
H144 H 0.23252 0.19276 0.87398 0.0
H145 H 0.29579 0.11281 0.91173 0.0
C146 C 0.20556 0.11621 0.89765 0.0
C147 C 0.23879 0.10312 0.90708 0.0
C148 C 0.20303 0.14861 0.88622 0.0
C149 C 0.23434 0.16771 0.88293 0.0
C150 C 0.26799 0.15449 0.89164 0.0
C151 C 0.26991 0.12271 0.90467 0.0
N152 N 0.30024 0.17243 0.88678 0.0
C153 C 0.30535 0.18968 0.8579 0.0
H154 H 0.3175 0.59717 0.40076 0.0
H155 H 0.26879 0.68914 0.37311 0.0
H156 H 0.20284 0.60977 0.40844 0.0
C157 C 0.29356 0.61206 0.39703 0.0
C158 C 0.25978 0.59937 0.40537 0.0
C159 C 0.29709 0.64453 0.38595 0.0
C160 C 0.26623 0.66404 0.3818 0.0
C161 C 0.23206 0.65119 0.38937 0.0
C162 C 0.22912 0.61936 0.40216 0.0
N163 N 0.20033 0.6696 0.38372 0.0
C164 C 0.19643 0.68707 0.35483 0.0
H165 H 0.89616 0.88303 0.83177 0.0
H166 H 0.92608 0.79104 0.77492 0.0
H167 H 0.85527 0.86178 0.73086 0.0
C168 C 0.8939 0.86591 0.80921 0.0
C169 C 0.8731 0.87548 0.78197 0.0
C170 C 0.91321 0.83558 0.80711 0.0
C171 C 0.91135 0.8146 0.77704 0.0
C172 C 0.89001 0.8234 0.74971 0.0
C173 C 0.87102 0.85419 0.75207 0.0
N174 N 0.88918 0.80091 0.72014 0.0
C175 C 0.86336 0.80106 0.6947 0.0
H176 H 0.09256 0.94042 0.16839 0.0
H177 H 0.20868 0.93691 0.16897 0.0
H178 H 0.0936 0.98816 0.20986 0.0
H179 H 0.20979 0.98494 0.21153 0.0
H180 H 0.0938 0.06951 0.28657 0.0
H181 H 0.10594 0.01122 0.26605 0.0
H182 H 0.19659 0.04469 0.20879 0.0
H183 H 0.18506 0.10266 0.23061 0.0
C184 C 0.11839 0.94946 0.17791 0.0
C185 C 0.15055 0.93511 0.16497 0.0
C186 C 0.11901 0.97673 0.20212 0.0
C187 C 0.15181 0.99056 0.21415 0.0
C188 C 0.18407 0.97507 0.20262 0.0
C189 C 0.18343 0.94746 0.17838 0.0
C190 C 0.11735 0.06404 0.27097 0.0
C191 C 0.13859 0.09035 0.26019 0.0
C192 C 0.12407 0.03077 0.25882 0.0
C193 C 0.15168 0.02333 0.23503 0.0
C194 C 0.1752 0.04937 0.22713 0.0
C195 C 0.1687 0.08264 0.23967 0.0
H196 H 0.56411 0.61718 0.58084 0.0
H197 H 0.55889 0.72531 0.57633 0.0
H198 H 0.5292 0.6214 0.63271 0.0
H199 H 0.52424 0.72956 0.62915 0.0
H200 H 0.48385 0.63562 0.73601 0.0
H201 H 0.52915 0.64046 0.69192 0.0
H202 H 0.46337 0.71438 0.64617 0.0
H203 H 0.41841 0.70989 0.69065 0.0
C204 C 0.55591 0.64197 0.59113 0.0
C205 C 0.56406 0.67088 0.57413 0.0
C206 C 0.53612 0.64442 0.62118 0.0
C207 C 0.5239 0.67583 0.63517 0.0
C208 C 0.53299 0.70495 0.61885 0.0
C209 C 0.553 0.70252 0.58869 0.0
C210 C 0.47939 0.65326 0.71679 0.0
C211 C 0.44746 0.6721 0.71654 0.0
C212 C 0.50525 0.65599 0.6915 0.0
C213 C 0.49964 0.67742 0.66521 0.0
C214 C 0.4687 0.69782 0.66617 0.0
C215 C 0.44289 0.69523 0.69164 0.0
H216 H 0.75373 0.07259 0.01483 0.0
H217 H 0.86123 0.05835 0.05303 0.0
H218 H 0.73105 0.03072 0.05209 0.0
H219 H 0.83879 0.01673 0.08954 0.0
H220 H 0.7918 0.95844 0.16801 0.0
H221 H 0.80086 0.00998 0.13922 0.0
H222 H 0.73811 0.96828 0.05419 0.0
H223 H 0.7286 0.91686 0.0834 0.0
C224 C 0.77242 0.06084 0.03137 0.0
C225 C 0.80932 0.06861 0.03077 0.0
C226 C 0.75945 0.03682 0.05257 0.0
C227 C 0.7831 0.02057 0.07383 0.0
C228 C 0.81974 0.02918 0.07389 0.0
C229 C 0.83269 0.05283 0.05263 0.0
C230 C 0.77932 0.96066 0.14349 0.0
C231 C 0.75998 0.9336 0.12765 0.0
C232 C 0.78455 0.99006 0.12698 0.0
C233 C 0.77077 0.99288 0.09419 0.0
C234 C 0.74894 0.96689 0.0795 0.0
C235 C 0.74352 0.93745 0.09616 0.0
H236 H 0.48867 0.38084 0.63519 0.0
H237 H 0.48864 0.27288 0.61285 0.0
H238 H 0.54944 0.3782 0.65645 0.0
H239 H 0.54984 0.27009 0.63527 0.0
H240 H 0.67273 0.29694 0.61896 0.0
H241 H 0.60809 0.28655 0.61495 0.0
H242 H 0.59025 0.36149 0.69811 0.0
H243 H 0.6548 0.37272 0.70083 0.0
C244 C 0.50139 0.35637 0.63542 0.0
C245 C 0.48389 0.32714 0.62179 0.0
C246 C 0.53628 0.35479 0.64806 0.0
C247 C 0.55473 0.3239 0.64757 0.0
C248 C 0.53655 0.29433 0.63569 0.0
C249 C 0.50141 0.29592 0.62301 0.0
C250 C 0.65498 0.31026 0.63709 0.0
C251 C 0.66845 0.33578 0.65999 0.0
C252 C 0.61792 0.30434 0.63487 0.0
C253 C 0.59383 0.32372 0.65574 0.0
C254 C 0.60794 0.34673 0.68107 0.0
C255 C 0.64487 0.35297 0.68291 0.0
H256 H 0.70544 0.56161 0.37503 0.0
H257 H 0.58989 0.55466 0.38406 0.0
H258 H 0.70474 0.51424 0.33175 0.0
H259 H 0.58926 0.50754 0.34183 0.0
H260 H 0.58634 0.42909 0.26169 0.0
H261 H 0.59782 0.48694 0.28402 0.0
H262 H 0.69392 0.45383 0.33338 0.0
H263 H 0.68292 0.39631 0.30983 0.0
C264 C 0.67988 0.55039 0.36742 0.0
C265 C 0.64777 0.56168 0.38332 0.0
C266 C 0.6795 0.52317 0.34274 0.0
C267 C 0.64697 0.507 0.33323 0.0
C268 C 0.61479 0.51959 0.34796 0.0
C269 C 0.61519 0.54648 0.37261 0.0
C270 C 0.61077 0.4346 0.276 0.0
C271 C 0.63374 0.40841 0.28414 0.0
C272 C 0.61716 0.4676 0.28917 0.0
C273 C 0.64626 0.4749 0.31129 0.0
C274 C 0.6713 0.44921 0.31641 0.0
C275 C 0.6651 0.41622 0.30286 0.0
H276 H 0.98702 0.11775 0.90369 0.0
H277 H 0.98737 0.22542 0.92808 0.0
H278 H 0.0477 0.12068 0.88225 0.0
H279 H 0.04843 0.22853 0.90545 0.0
H280 H 0.17094 0.20087 0.9223 0.0
H281 H 0.10638 0.21169 0.92564 0.0
H282 H 0.08906 0.13786 0.84139 0.0
H283 H 0.15354 0.12615 0.83938 0.0
C284 C 0.99978 0.14224 0.90383 0.0
C285 C 0.98245 0.17126 0.91817 0.0
C286 C 0.03463 0.144 0.89109 0.0
C287 C 0.05318 0.17487 0.89217 0.0
C288 C 0.03508 0.20429 0.9046 0.0
C289 C 1e-05 0.20252 0.9174 0.0
C290 C 0.15334 0.18795 0.90375 0.0
C291 C 0.16691 0.16258 0.88075 0.0
C292 C 0.11632 0.19411 0.90559 0.0
C293 C 0.09235 0.17509 0.88425 0.0
C294 C 0.10663 0.15233 0.85878 0.0
C295 C 0.14353 0.14584 0.85733 0.0
H296 H 0.25309 0.4266 0.53143 0.0
H297 H 0.35857 0.43781 0.4875 0.0
H298 H 0.22938 0.46875 0.49503 0.0
H299 H 0.33518 0.47974 0.45192 0.0
H300 H 0.22866 0.58287 0.46447 0.0
H301 H 0.23764 0.53069 0.49255 0.0
H302 H 0.29527 0.48825 0.40453 0.0
H303 H 0.28696 0.54063 0.37699 0.0
C304 C 0.27108 0.43772 0.51379 0.0
C305 C 0.30778 0.42908 0.51257 0.0
C306 C 0.25753 0.4619 0.49309 0.0
C307 C 0.28036 0.47746 0.47053 0.0
C308 C 0.3167 0.46786 0.46858 0.0
C309 C 0.33023 0.44403 0.48931 0.0
C310 C 0.24229 0.56196 0.45085 0.0
C311 C 0.25763 0.56578 0.41889 0.0
C312 C 0.24739 0.53208 0.46685 0.0
C313 C 0.26775 0.50562 0.45096 0.0
C314 C 0.28016 0.50849 0.41768 0.0
C315 C 0.27532 0.53835 0.40188 0.0
H316 H 0.03286 0.88065 0.98503 0.0
H317 H 0.06872 0.77801 0.96268 0.0
H318 H 0.99387 0.87579 0.9357 0.0
H319 H 0.02938 0.77349 0.91254 0.0
H320 H 0.98187 0.80973 0.8055 0.0
H321 H 0.02232 0.80464 0.85395 0.0
H322 H 0.93709 0.83831 0.92239 0.0
H323 H 0.89654 0.84259 0.87446 0.0
C324 C 0.03271 0.85708 0.96949 0.0
C325 C 0.05387 0.82964 0.97803 0.0
C326 C 0.01013 0.85429 0.9413 0.0
C327 C 0.00834 0.82415 0.92064 0.0
C328 C 0.03029 0.79696 0.92822 0.0
C329 C 0.05267 0.79957 0.9569 0.0
C330 C 0.97153 0.81516 0.83094 0.0
C331 C 0.93618 0.82714 0.83613 0.0
C332 C 0.9947 0.81232 0.8586 0.0
C333 C 0.98289 0.82162 0.89174 0.0
C334 C 0.94699 0.83154 0.897 0.0
C335 C 0.92385 0.83408 0.86955 0.0
H336 H 0.9043 0.06157 0.87114 0.0
H337 H 0.7884 0.06159 0.87901 0.0
H338 H 0.9015 0.01342 0.8297 0.0
H339 H 0.78562 0.01304 0.83725 0.0
H340 H 0.89376 0.9312 0.75136 0.0
H341 H 0.88163 0.98944 0.77275 0.0
H342 H 0.80512 0.95357 0.84413 0.0
H343 H 0.81739 0.89566 0.82266 0.0
C344 C 0.87814 0.05169 0.8635 0.0
C345 C 0.84661 0.06514 0.87872 0.0
C346 C 0.87651 0.02426 0.83944 0.0
C347 C 0.84332 0.00934 0.83021 0.0
C348 C 0.81158 0.02394 0.84396 0.0
C349 C 0.81319 0.05178 0.86779 0.0
C350 C 0.87308 0.93603 0.77043 0.0
C351 C 0.85632 0.90917 0.78531 0.0
C352 C 0.86642 0.96927 0.78295 0.0
C353 C 0.8428 0.97607 0.81045 0.0
C354 C 0.82325 0.94927 0.82279 0.0
C355 C 0.83016 0.91609 0.81047 0.0
H356 H 0.44142 0.27146 0.46951 0.0
H357 H 0.43811 0.37986 0.46688 0.0
H358 H 0.47489 0.26747 0.41601 0.0
H359 H 0.47182 0.37587 0.41431 0.0
H360 H 0.57946 0.28671 0.3523 0.0
H361 H 0.53566 0.2821 0.39777 0.0
H362 H 0.46956 0.35753 0.3548 0.0
H363 H 0.51369 0.36245 0.3097 0.0
C364 C 0.44753 0.29437 0.45746 0.0
C365 C 0.43729 0.32599 0.4727 0.0
C366 C 0.46683 0.29209 0.4269 0.0
C367 C 0.47602 0.32134 0.41086 0.0
C368 C 0.46476 0.35277 0.42562 0.0
C369 C 0.44567 0.35507 0.45607 0.0
C370 C 0.55512 0.30167 0.35213 0.0
C371 C 0.55017 0.32524 0.32772 0.0
C372 C 0.52999 0.29901 0.37817 0.0
C373 C 0.49936 0.31981 0.38021 0.0
C374 C 0.49327 0.34168 0.35439 0.0
C375 C 0.51845 0.34445 0.32851 0.0
H376 H 0.24435 0.92867 0.03107 0.0
H377 H 0.13809 0.94142 0.9894 0.0
H378 H 0.26761 0.97145 0.99522 0.0
H379 H 0.16111 0.984 0.95427 0.0
H380 H 0.20993 0.04499 0.87887 0.0
H381 H 0.20062 0.99267 0.90626 0.0
H382 H 0.2596 0.03369 0.99404 0.0
H383 H 0.2694 0.08589 0.96621 0.0
C384 C 0.22607 0.94027 0.01403 0.0
C385 C 0.1893 0.93182 0.01328 0.0
C386 C 0.23937 0.96482 0.99365 0.0
C387 C 0.21623 0.98099 0.97187 0.0
C388 C 0.17979 0.97165 0.97036 0.0
C389 C 0.16649 0.94743 0.99081 0.0
C390 C 0.22154 0.04246 0.90372 0.0
C391 C 0.2399 0.06951 0.9207 0.0
C392 C 0.21615 0.01262 0.91942 0.0
C393 C 0.22878 0.00934 0.95255 0.0
C394 C 0.24967 0.03542 0.96845 0.0
C395 C 0.25525 0.0653 0.95259 0.0
H396 H 0.51194 0.72239 0.43318 0.0
H397 H 0.51267 0.61427 0.41211 0.0
H398 H 0.45127 0.72469 0.40938 0.0
H399 H 0.45245 0.61643 0.38947 0.0
H400 H 0.34875 0.62092 0.34183 0.0
H401 H 0.41313 0.63258 0.34628 0.0
H402 H 0.39232 0.70818 0.42817 0.0
H403 H 0.32788 0.69735 0.42242 0.0
C404 C 0.49944 0.69921 0.42306 0.0
C405 C 0.51704 0.6681 0.42497 0.0
C406 C 0.46462 0.70052 0.40957 0.0
C407 C 0.44684 0.67077 0.39754 0.0
C408 C 0.46533 0.63997 0.39792 0.0
C409 C 0.4999 0.63867 0.41136 0.0
C410 C 0.35801 0.64093 0.3598 0.0
C411 C 0.33363 0.65818 0.38188 0.0
C412 C 0.39484 0.64741 0.36265 0.0
C413 C 0.40803 0.67071 0.38819 0.0
C414 C 0.38321 0.69017 0.40814 0.0
C415 C 0.34626 0.684 0.4049 0.0
H416 H 0.29406 0.43428 0.67047 0.0
H417 H 0.40981 0.44101 0.66377 0.0
H418 H 0.29385 0.48222 0.71308 0.0
H419 H 0.40957 0.48873 0.70529 0.0
H420 H 0.31484 0.60028 0.73324 0.0
H421 H 0.30455 0.54236 0.71063 0.0
H422 H 0.3999 0.51081 0.76228 0.0
H423 H 0.41072 0.56907 0.78362 0.0
C424 C 0.31947 0.44555 0.67848 0.0
C425 C 0.35191 0.43405 0.66338 0.0
C426 C 0.31933 0.47312 0.70277 0.0
C427 C 0.35166 0.48947 0.71266 0.0
C428 C 0.38415 0.4766 0.69884 0.0
C429 C 0.38427 0.44934 0.6746 0.0
C430 C 0.33265 0.58065 0.74089 0.0
C431 C 0.36363 0.58901 0.75998 0.0
C432 C 0.32685 0.54741 0.72789 0.0
C433 C 0.3519 0.52199 0.73395 0.0
C434 C 0.38058 0.5299 0.7564 0.0
C435 C 0.38659 0.56315 0.769 0.0
H436 H 0.01101 0.7753 0.11628 0.0
H437 H 0.01352 0.88271 0.14212 0.0
H438 H 0.95027 0.77282 0.13981 0.0
H439 H 0.95316 0.88044 0.16438 0.0
H440 H 0.84762 0.87624 0.20811 0.0
H441 H 0.91189 0.86365 0.20525 0.0
H442 H 0.8924 0.79061 0.12074 0.0
H443 H 0.82806 0.80225 0.125 0.0
C444 C 0.99892 0.79825 0.12747 0.0
C445 C 0.01696 0.82929 0.12683 0.0
C446 C 0.96403 0.79686 0.14077 0.0
C447 C 0.94659 0.82643 0.15382 0.0
C448 C 0.96569 0.85701 0.15505 0.0
C449 C 0.00036 0.8584 0.14184 0.0
C450 C 0.85712 0.85654 0.18991 0.0
C451 C 0.83319 0.84024 0.16671 0.0
C452 C 0.89389 0.84955 0.18796 0.0
C453 C 0.90751 0.82673 0.16219 0.0
C454 C 0.883 0.8082 0.14102 0.0
C455 C 0.84609 0.81484 0.14337 0.0
H456 H 0.74844 0.56915 0.51344 0.0
H457 H 0.64405 0.55879 0.55984 0.0
H458 H 0.77262 0.52637 0.54881 0.0
H459 H 0.66787 0.51619 0.59438 0.0
H460 H 0.71691 0.4528 0.66657 0.0
H461 H 0.70872 0.50597 0.64043 0.0
H462 H 0.76372 0.46462 0.55043 0.0
H463 H 0.77264 0.41167 0.57712 0.0
C464 C 0.7308 0.55811 0.53143 0.0
C465 C 0.69424 0.56714 0.5336 0.0
C466 C 0.74461 0.53355 0.55154 0.0
C467 C 0.7222 0.51797 0.57443 0.0
C468 C 0.68606 0.52805 0.57743 0.0
C469 C 0.67227 0.55228 0.5573 0.0
C470 C 0.72802 0.45548 0.64155 0.0
C471 C 0.74495 0.42817 0.6236 0.0
C472 C 0.72325 0.4858 0.62654 0.0
C473 C 0.73492 0.48923 0.59312 0.0
C474 C 0.75455 0.46281 0.57626 0.0
C475 C 0.75961 0.43249 0.59146 0.0
H476 H 0.94362 0.11546 0.07116 0.0
H477 H 0.94181 0.22426 0.07333 0.0
H478 H 0.97813 0.11857 0.12328 0.0
H479 H 0.97605 0.2273 0.12636 0.0
H480 H 0.08062 0.21075 0.1904 0.0
H481 H 0.0374 0.2146 0.14429 0.0
H482 H 0.97509 0.13425 0.18328 0.0
H483 H 0.01861 0.13013 0.22899 0.0
C484 C 0.95025 0.14012 0.08291 0.0
C485 C 0.9401 0.16962 0.06779 0.0
C486 C 0.96982 0.14189 0.11309 0.0
C487 C 0.9798 0.17319 0.1291 0.0
C488 C 0.96903 0.20279 0.11449 0.0
C489 C 0.94928 0.20103 0.08419 0.0
C490 C 0.05725 0.19444 0.1895 0.0
C491 C 0.05319 0.16987 0.21303 0.0
C492 C 0.03245 0.19666 0.16311 0.0
C493 C 0.00304 0.17441 0.15982 0.0
C494 C 0.99788 0.15125 0.18464 0.0
C495 C 0.02273 0.14894 0.21086 0.0
H496 H 0.13104 0.73665 0.15525 0.0
H497 H 0.21815 0.8059 0.18117 0.0
H498 H 0.13878 0.71162 0.20918 0.0
H499 H 0.22618 0.78036 0.23483 0.0
H500 H 0.19962 0.75311 0.3436 0.0
H501 H 0.1938 0.77756 0.28861 0.0
H502 H 0.18091 0.67762 0.23937 0.0
H503 H 0.18609 0.65361 0.29446 0.0
C504 C 0.1521 0.74632 0.17223 0.0
C505 C 0.1739 0.77338 0.16382 0.0
C506 C 0.1566 0.73187 0.20312 0.0
C507 C 0.18298 0.74412 0.22634 0.0
C508 C 0.20525 0.77071 0.21769 0.0
C509 C 0.20079 0.78516 0.18679 0.0
C510 C 0.19547 0.73661 0.32089 0.0
C511 C 0.19304 0.70172 0.32281 0.0
C512 C 0.1924 0.75045 0.28947 0.0
C513 C 0.18688 0.72949 0.25963 0.0
C514 C 0.18466 0.69445 0.2619 0.0
C515 C 0.18775 0.6807 0.29328 0.0
H516 H 0.77039 0.69877 0.52035 0.0
H517 H 0.68149 0.76093 0.55777 0.0
H518 H 0.80924 0.72597 0.56361 0.0
H519 H 0.72073 0.78849 0.60086 0.0
H520 H 0.79179 0.79134 0.69938 0.0
H521 H 0.75108 0.773 0.65285 0.0
H522 H 0.83851 0.7792 0.5814 0.0
H523 H 0.87905 0.797 0.62818 0.0
C524 C 0.75916 0.71847 0.53755 0.0
C525 C 0.72268 0.72749 0.53555 0.0
C526 C 0.78157 0.73427 0.56226 0.0
C527 C 0.76813 0.75945 0.58571 0.0
C528 C 0.73184 0.76897 0.58337 0.0
C529 C 0.70941 0.75326 0.55852 0.0
C530 C 0.80191 0.7894 0.67358 0.0
C531 C 0.83824 0.79561 0.66705 0.0
C532 C 0.77869 0.77898 0.64694 0.0
C533 C 0.79161 0.77439 0.6134 0.0
C534 C 0.82783 0.78203 0.60696 0.0
C535 C 0.85095 0.79249 0.6336 0.0
H536 H 0.73159 0.20619 0.01919 0.0
H537 H 0.8262 0.25496 0.06329 0.0
H538 H 0.69581 0.2292 0.06697 0.0
H539 H 0.79058 0.2771 0.11164 0.0
H540 H 0.71167 0.32772 0.18788 0.0
H541 H 0.74336 0.31416 0.13394 0.0
H542 H 0.69077 0.21694 0.12485 0.0
H543 H 0.65887 0.2311 0.17782 0.0
C544 C 0.74476 0.22198 0.03897 0.0
C545 C 0.78189 0.22839 0.03751 0.0
C546 C 0.72424 0.23505 0.0665 0.0
C547 C 0.74037 0.25461 0.09349 0.0
C548 C 0.77716 0.26237 0.09125 0.0
C549 C 0.79766 0.24951 0.06353 0.0
C550 C 0.7068 0.30371 0.17391 0.0
C551 C 0.68298 0.28039 0.18656 0.0
C552 C 0.72499 0.29581 0.14322 0.0
C553 C 0.71955 0.26447 0.1249 0.0
C554 C 0.69514 0.24154 0.13776 0.0
C555 C 0.67704 0.24948 0.16822 0.0
H556 H 0.28243 0.30497 0.68231 0.0
H557 H 0.37142 0.23759 0.65749 0.0
H558 H 0.27545 0.28043 0.73658 0.0
H559 H 0.36475 0.21359 0.71209 0.0
H560 H 0.31831 0.15577 0.79826 0.0
H561 H 0.32386 0.17911 0.74287 0.0
H562 H 0.30747 0.27927 0.79049 0.0
H563 H 0.30124 0.25546 0.84576 0.0
C564 C 0.30047 0.28488 0.68832 0.0
C565 C 0.32752 0.27329 0.66544 0.0
C566 C 0.29661 0.27101 0.71959 0.0
C567 C 0.31968 0.24522 0.72873 0.0
C568 C 0.34632 0.23321 0.70566 0.0
C569 C 0.35019 0.24706 0.67437 0.0
C570 C 0.31605 0.18277 0.79667 0.0
C571 C 0.30958 0.20403 0.82581 0.0
C572 C 0.31934 0.19614 0.76512 0.0
C573 C 0.31614 0.23104 0.76229 0.0
C574 C 0.30963 0.25225 0.79177 0.0
C575 C 0.30634 0.23878 0.82336 0.0
H576 H 0.71801 0.69097 0.36354 0.0
H577 H 0.6284 0.7577 0.38808 0.0
H578 H 0.7249 0.71552 0.30925 0.0
H579 H 0.63582 0.78254 0.33394 0.0
H580 H 0.63403 0.79214 0.21915 0.0
H581 H 0.62749 0.76616 0.2732 0.0
H582 H 0.74298 0.76855 0.2861 0.0
H583 H 0.74921 0.79407 0.23188 0.0
C584 C 0.69994 0.71104 0.35754 0.0
C585 C 0.6726 0.7223 0.38025 0.0
C586 C 0.70401 0.72518 0.32643 0.0
C587 C 0.6808 0.75084 0.31726 0.0
C588 C 0.65377 0.76243 0.34009 0.0
C589 C 0.64974 0.74836 0.37125 0.0
C590 C 0.65789 0.7867 0.23354 0.0
C591 C 0.69207 0.79464 0.22163 0.0
C592 C 0.6542 0.77217 0.26451 0.0
C593 C 0.68473 0.76544 0.28396 0.0
C594 C 0.71901 0.77308 0.27154 0.0
C595 C 0.72262 0.78768 0.24061 0.0
H596 H 0.77901 0.19455 0.86345 0.0
H597 H 0.8707 0.25961 0.88492 0.0
H598 H 0.77248 0.21718 0.80822 0.0
H599 H 0.86362 0.28258 0.82979 0.0
H600 H 0.86634 0.2854 0.71391 0.0
H601 H 0.87175 0.26288 0.76982 0.0
H602 H 0.75629 0.26897 0.782 0.0
H603 H 0.75118 0.29096 0.72593 0.0
C604 C 0.79755 0.21394 0.85662 0.0
C605 C 0.82548 0.22515 0.87868 0.0
C606 C 0.79369 0.22697 0.82495 0.0
C607 C 0.81769 0.25148 0.81456 0.0
C608 C 0.84507 0.2633 0.83688 0.0
C609 C 0.84891 0.25034 0.86861 0.0
C610 C 0.84224 0.28151 0.72857 0.0
C611 C 0.80838 0.28942 0.71592 0.0
C612 C 0.84528 0.26899 0.76059 0.0
C613 C 0.81444 0.2643 0.78037 0.0
C614 C 0.78048 0.27197 0.76724 0.0
C615 C 0.77752 0.28453 0.73525 0.0
H616 H 0.23078 0.29505 0.52501 0.0
H617 H 0.32339 0.24135 0.48277 0.0
H618 H 0.19452 0.27257 0.47731 0.0
H619 H 0.28733 0.2197 0.43458 0.0
H620 H 0.20658 0.17063 0.35896 0.0
H621 H 0.23844 0.18419 0.41281 0.0
H622 H 0.19113 0.28375 0.41887 0.0
H623 H 0.15906 0.26966 0.36596 0.0
C624 C 0.24339 0.27827 0.5057 0.0
C625 C 0.28015 0.27035 0.50763 0.0
C626 C 0.22261 0.26551 0.47821 0.0
C627 C 0.2381 0.24471 0.45178 0.0
C628 C 0.27441 0.23543 0.45454 0.0
C629 C 0.29517 0.24802 0.48218 0.0
C630 C 0.20294 0.1952 0.37221 0.0
C631 C 0.18054 0.21918 0.35874 0.0
C632 C 0.22121 0.20307 0.40285 0.0
C633 C 0.21725 0.23505 0.42033 0.0
C634 C 0.19431 0.25869 0.40662 0.0
C635 C 0.17614 0.25078 0.37618 0.0
H636 H 0.17234 0.74415 0.9812 0.0
H637 H 0.26624 0.79699 0.02177 0.0
H638 H 0.20739 0.72185 0.93257 0.0
H639 H 0.30149 0.77387 0.97366 0.0
H640 H 0.33581 0.76895 0.86188 0.0
H641 H 0.30462 0.78416 0.91504 0.0
H642 H 0.25535 0.68545 0.91064 0.0
H643 H 0.2863 0.67078 0.85653 0.0
C644 C 0.20062 0.75053 0.98012 0.0
C645 C 0.21631 0.77274 0.00528 0.0
C646 C 0.2208 0.73756 0.95224 0.0
C647 C 0.25721 0.74634 0.94892 0.0
C648 C 0.27331 0.76716 0.97498 0.0
C649 C 0.25311 0.7803 0.00271 0.0
C650 C 0.31851 0.75048 0.87254 0.0
C651 C 0.31329 0.71881 0.85548 0.0
C652 C 0.30083 0.75904 0.90311 0.0
C653 C 0.27756 0.73599 0.91735 0.0
C654 C 0.27282 0.70391 0.90028 0.0
C655 C 0.29059 0.69539 0.8695 0.0
loop_
_geom_bond_atom_site_label_1
_geom_bond_atom_site_label_2
_geom_bond_distance
_geom_bond_site_symmetry_2
_ccdc_geom_bond_type
Sc0 O3 2.025 . S
Sc0 O10 2.105 . S
Sc0 O13 2.105 . S
Sc0 O16 2.105 . S
Sc0 O19 2.105 1_554 S
Sc1 O3 2.025 . S
Sc1 O11 2.105 1_554 S
Sc1 O15 2.105 . S
Sc1 O17 2.105 . S
Sc1 O21 2.105 . S
Sc2 O3 2.025 . S
Sc2 O12 2.105 . S
Sc2 O14 2.105 . S
Sc2 O18 2.105 . S
Sc2 O20 2.105 . S
O3 Sc0 2.025 . S
O3 Sc1 2.025 . S
O3 Sc2 2.025 . S
C4 O10 1.268 . S
C4 O20 1.268 . S
C5 O11 1.268 . S
C5 O19 1.268 . S
C6 O12 1.258 1_556 S
C6 O21 1.265 1_556 S
C7 O13 1.268 . S
C7 O17 1.268 . S
C8 O14 1.268 . S
C8 O16 1.268 . S
C9 O15 1.268 . S
C9 O18 1.268 . S
O10 Sc0 2.105 . S
O10 C4 1.268 . S
O11 Sc1 2.105 1_556 S
O11 C5 1.268 . S
O12 Sc2 2.105 . S
O12 C6 1.258 1_554 S
O13 Sc0 2.105 . S
O13 C7 1.268 . S
O14 Sc2 2.105 . S
O14 C8 1.268 . S
O15 Sc1 2.105 . S
O15 C9 1.268 . S
O16 Sc0 2.105 . S
O16 C8 1.268 . S
O17 Sc1 2.105 . S
O17 C7 1.268 . S
O18 Sc2 2.105 . S
O18 C9 1.268 . S
O19 Sc0 2.105 1_556 S
O19 C5 1.268 . S
O20 Sc2 2.105 . S
O20 C4 1.268 . S
O21 Sc1 2.105 . S
O21 C6 1.265 1_554 S
Sc22 O25 2.025 . S
Sc22 O32 2.105 . S
Sc22 O35 2.105 . S
Sc22 O38 2.105 . S
Sc22 O41 2.105 . S
Sc23 O25 2.025 . S
Sc23 O33 2.105 . S
Sc23 O37 2.105 . S
Sc23 O39 2.105 . S
Sc23 O43 2.105 . S
Sc24 O25 2.025 . S
Sc24 O34 2.105 . S
Sc24 O36 2.105 . S
Sc24 O40 2.105 . S
Sc24 O42 2.105 . S
O25 Sc22 2.025 . S
O25 Sc23 2.025 . S
O25 Sc24 2.025 . S
C26 O32 1.268 . S
C26 O42 1.268 . S
C27 O33 1.268 . S
C27 O41 1.268 . S
C28 O34 1.268 . S
C28 O43 1.268 . S
C29 O35 1.268 . S
C29 O39 1.268 . S
C30 O36 1.268 . S
C30 O38 1.268 . S
C31 O37 1.268 . S
C31 O40 1.268 . S
O32 Sc22 2.105 . S
O32 C26 1.268 . S
O33 Sc23 2.105 . S
O33 C27 1.268 . S
O34 Sc24 2.105 . S
O34 C28 1.268 . S
O35 Sc22 2.105 . S
O35 C29 1.268 . S
O36 Sc24 2.105 . S
O36 C30 1.268 . S
O37 Sc23 2.105 . S
O37 C31 1.268 . S
O38 Sc22 2.105 . S
O38 C30 1.268 . S
O39 Sc23 2.105 . S
O39 C29 1.268 . S
O40 Sc24 2.105 . S
O40 C31 1.268 . S
O41 Sc22 2.105 . S
O41 C27 1.268 . S
O42 Sc24 2.105 . S
O42 C26 1.268 . S
O43 Sc23 2.105 . S
O43 C28 1.268 . S
Sc44 O47 2.025 . S
Sc44 O54 2.105 1_554 S
Sc44 O57 2.105 . S
Sc44 O60 2.105 . S
Sc44 O63 2.105 1_554 S
Sc45 O47 2.025 1_556 S
Sc45 O55 2.105 . S
Sc45 O59 2.105 1_556 S
Sc45 O61 2.105 1_556 S
Sc45 O65 2.105 . S
Sc46 O47 2.025 . S
Sc46 O56 2.105 1_554 S
Sc46 O58 2.105 . S
Sc46 O62 2.105 . S
Sc46 O64 2.105 1_554 S
O47 Sc44 2.025 . S
O47 Sc45 2.025 1_554 S
O47 Sc46 2.025 . S
C48 O54 1.268 . S
C48 O64 1.268 . S
C49 O55 1.268 . S
C49 O63 1.268 . S
C50 O56 1.268 . S
C50 O65 1.268 . S
C51 O57 1.268 . S
C51 O61 1.268 . S
C52 O58 1.268 . S
C52 O60 1.268 . S
C53 O59 1.268 . S
C53 O62 1.268 . S
O54 Sc44 2.105 1_556 S
O54 C48 1.268 . S
O55 Sc45 2.105 . S
O55 C49 1.268 . S
O56 Sc46 2.105 1_556 S
O56 C50 1.268 . S
O57 Sc44 2.105 . S
O57 C51 1.268 . S
O58 Sc46 2.105 . S
O58 C52 1.268 . S
O59 Sc45 2.105 1_554 S
O59 C53 1.268 . S
O60 Sc44 2.105 . S
O60 C52 1.268 . S
O61 Sc45 2.105 1_554 S
O61 C51 1.268 . S
O62 Sc46 2.105 . S
O62 C53 1.268 . S
O63 Sc44 2.105 1_556 S
O63 C49 1.268 . S
O64 Sc46 2.105 1_556 S
O64 C48 1.268 . S
O65 Sc45 2.105 . S
O65 C50 1.268 . S
Sc66 O69 2.025 . S
Sc66 O76 2.105 . S
Sc66 O79 2.105 . S
Sc66 O82 2.105 . S
Sc66 O85 2.105 . S
Sc67 O69 2.025 . S
Sc67 O77 2.105 . S
Sc67 O81 2.105 . S
Sc67 O83 2.105 . S
Sc67 O87 2.105 . S
Sc68 O69 2.025 . S
Sc68 O78 2.105 . S
Sc68 O80 2.105 . S
Sc68 O84 2.105 . S
Sc68 O86 2.105 . S
O69 Sc66 2.025 . S
O69 Sc67 2.025 . S
O69 Sc68 2.025 . S
C70 O76 1.268 . S
C70 O86 1.268 . S
C71 O77 1.268 . S
C71 O85 1.268 . S
C72 O78 1.268 . S
C72 O87 1.268 . S
C73 O79 1.268 . S
C73 O83 1.268 . S
C74 O80 1.268 . S
C74 O82 1.268 . S
C75 O81 1.268 . S
C75 O84 1.268 . S
O76 Sc66 2.105 . S
O76 C70 1.268 . S
O77 Sc67 2.105 . S
O77 C71 1.268 . S
O78 Sc68 2.105 . S
O78 C72 1.268 . S
O79 Sc66 2.105 . S
O79 C73 1.268 . S
O80 Sc68 2.105 . S
O80 C74 1.268 . S
O81 Sc67 2.105 . S
O81 C75 1.268 . S
O82 Sc66 2.105 . S
O82 C74 1.268 . S
O83 Sc67 2.105 . S
O83 C73 1.268 . S
O84 Sc68 2.105 . S
O84 C75 1.268 . S
O85 Sc66 2.105 . S
O85 C71 1.268 . S
O86 Sc68 2.105 . S
O86 C70 1.268 . S
O87 Sc67 2.105 . S
O87 C72 1.268 . S
H88 C91 0.929 . S
H89 C94 0.929 . S
H90 C96 0.930 . S
C91 H88 0.929 . S
C91 C92 1.398 . S
C91 C93 1.396 . S
C92 C91 1.398 . S
C92 C96 1.407 . S
C93 C91 1.396 . S
C93 C94 1.394 . S
C94 H89 0.929 . S
C94 C93 1.394 . S
C94 C95 1.382 . S
C95 C94 1.382 . S
C95 C96 1.392 . S
C95 N97 1.420 . S
C96 H90 0.930 . S
C96 C92 1.407 . S
C96 C95 1.392 . S
N97 C95 1.420 . S
N97 C98 1.244 . S
C98 N97 1.244 . S
H99 C102 0.929 . S
H100 C105 0.929 . S
H101 C107 0.930 . S
C102 H99 0.929 . S
C102 C103 1.398 . S
C102 C104 1.396 . S
C103 C102 1.398 . S
C103 C107 1.407 . S
C104 C102 1.396 . S
C104 C105 1.394 . S
C105 H100 0.929 . S
C105 C104 1.394 . S
C105 C106 1.382 . S
C106 C105 1.382 . S
C106 C107 1.392 . S
C106 N108 1.420 . S
C107 H101 0.930 . S
C107 C103 1.407 . S
C107 C106 1.392 . S
N108 C106 1.420 . S
N108 C109 1.244 . S
C109 N108 1.244 . S
H110 C113 0.929 . S
H111 C116 0.929 . S
H112 C118 0.930 . S
C113 H110 0.929 . S
C113 C114 1.398 . S
C113 C115 1.396 . S
C114 C113 1.398 . S
C114 C118 1.407 . S
C115 C113 1.396 . S
C115 C116 1.394 . S
C116 H111 0.929 . S
C116 C115 1.394 . S
C116 C117 1.382 . S
C117 C116 1.382 . S
C117 C118 1.392 . S
C117 N119 1.420 . S
C118 H112 0.930 . S
C118 C114 1.407 . S
C118 C117 1.392 . S
N119 C117 1.420 . S
N119 C120 1.244 . S
C120 N119 1.244 . S
H121 C124 0.929 . S
H122 C127 0.929 . S
H123 C129 0.930 . S
C124 H121 0.929 . S
C124 C125 1.398 . S
C124 C126 1.396 . S
C125 C124 1.398 . S
C125 C129 1.407 . S
C126 C124 1.396 . S
C126 C127 1.394 . S
C127 H122 0.929 . S
C127 C126 1.394 . S
C127 C128 1.382 . S
C128 C127 1.382 . S
C128 C129 1.392 . S
C128 N130 1.420 . S
C129 H123 0.930 . S
C129 C125 1.407 . S
C129 C128 1.392 . S
N130 C128 1.420 . S
N130 C131 1.244 . S
C131 N130 1.244 . S
H132 C135 0.929 . S
H133 C138 0.929 . S
H134 C140 0.930 . S
C135 H132 0.929 . S
C135 C136 1.398 . S
C135 C137 1.396 . S
C136 C135 1.398 . S
C136 C140 1.407 . S
C137 C135 1.396 . S
C137 C138 1.394 . S
C138 H133 0.929 . S
C138 C137 1.394 . S
C138 C139 1.382 . S
C139 C138 1.382 . S
C139 C140 1.392 . S
C139 N141 1.420 . S
C140 H134 0.930 . S
C140 C136 1.407 . S
C140 C139 1.392 . S
N141 C139 1.420 . S
N141 C142 1.244 . S
C142 N141 1.244 . S
H143 C146 0.929 . S
H144 C149 0.929 . S
H145 C151 0.930 . S
C146 H143 0.929 . S
C146 C147 1.398 . S
C146 C148 1.396 . S
C147 C146 1.398 . S
C147 C151 1.407 . S
C148 C146 1.396 . S
C148 C149 1.394 . S
C149 H144 0.929 . S
C149 C148 1.394 . S
C149 C150 1.382 . S
C150 C149 1.382 . S
C150 C151 1.392 . S
C150 N152 1.420 . S
C151 H145 0.930 . S
C151 C147 1.407 . S
C151 C150 1.392 . S
N152 C150 1.420 . S
N152 C153 1.244 . S
C153 N152 1.244 . S
H154 C157 0.929 . S
H155 C160 0.929 . S
H156 C162 0.930 . S
C157 H154 0.929 . S
C157 C158 1.398 . S
C157 C159 1.396 . S
C158 C157 1.398 . S
C158 C162 1.407 . S
C159 C157 1.396 . S
C159 C160 1.394 . S
C160 H155 0.929 . S
C160 C159 1.394 . S
C160 C161 1.382 . S
C161 C160 1.382 . S
C161 C162 1.392 . S
C161 N163 1.420 . S
C162 H156 0.930 . S
C162 C158 1.407 . S
C162 C161 1.392 . S
N163 C161 1.420 . S
N163 C164 1.244 . S
C164 N163 1.244 . S
H165 C168 0.929 . S
H166 C171 0.929 . S
H167 C173 0.930 . S
C168 H165 0.929 . S
C168 C169 1.398 . S
C168 C170 1.396 . S
C169 C168 1.398 . S
C169 C173 1.407 . S
C170 C168 1.396 . S
C170 C171 1.394 . S
C171 H166 0.929 . S
C171 C170 1.394 . S
C171 C172 1.382 . S
C172 C171 1.382 . S
C172 C173 1.392 . S
C172 N174 1.420 . S
C173 H167 0.930 . S
C173 C169 1.407 . S
C173 C172 1.392 . S
N174 C172 1.420 . S
N174 C175 1.244 . S
C175 N174 1.244 . S
H176 C184 0.950 . S
H177 C189 0.950 . S
H178 C186 0.963 . S
H179 C188 0.950 . S
H180 C190 0.950 . S
H181 C192 0.950 . S
H182 C194 0.950 . S
H183 C195 0.950 . S
C184 H176 0.950 . S
C184 C185 1.386 . S
C184 C186 1.391 . S
C185 C184 1.386 . S
C185 C189 1.393 . S
C186 H178 0.963 . S
C186 C184 1.391 . S
C186 C187 1.400 . S
C187 C186 1.400 . S
C187 C188 1.398 . S
C187 C193 1.491 1_565 S
C188 H179 0.950 . S
C188 C187 1.398 . S
C188 C189 1.391 . S
C189 H177 0.950 . S
C189 C185 1.393 . S
C189 C188 1.391 . S
C190 H180 0.950 . S
C190 C191 1.386 . S
C190 C192 1.391 . S
C191 C190 1.386 . S
C191 C195 1.393 . S
C192 H181 0.950 . S
C192 C190 1.391 . S
C192 C193 1.400 . S
C193 C187 1.491 1_545 S
C193 C192 1.400 . S
C193 C194 1.398 . S
C194 H182 0.950 . S
C194 C193 1.398 . S
C194 C195 1.391 . S
C195 H183 0.950 . S
C195 C191 1.393 . S
C195 C194 1.391 . S
H196 C204 0.950 . S
H197 C209 0.950 . S
H198 C206 0.950 . S
H199 C208 0.950 . S
H200 C210 0.950 . S
H201 C212 0.950 . S
H202 C214 0.950 . S
H203 C215 0.950 . S
C204 H196 0.950 . S
C204 C205 1.386 . S
C204 C206 1.391 . S
C205 C204 1.386 . S
C205 C209 1.393 . S
C206 H198 0.950 . S
C206 C204 1.391 . S
C206 C207 1.400 . S
C207 C206 1.400 . S
C207 C208 1.398 . S
C207 C213 1.491 . S
C208 H199 0.950 . S
C208 C207 1.398 . S
C208 C209 1.391 . S
C209 H197 0.950 . S
C209 C205 1.393 . S
C209 C208 1.391 . S
C210 H200 0.950 . S
C210 C211 1.386 . S
C210 C212 1.391 . S
C211 C210 1.386 . S
C211 C215 1.393 . S
C212 H201 0.950 . S
C212 C210 1.391 . S
C212 C213 1.400 . S
C213 C207 1.491 . S
C213 C212 1.400 . S
C213 C214 1.398 . S
C214 H202 0.950 . S
C214 C213 1.398 . S
C214 C215 1.391 . S
C215 H203 0.950 . S
C215 C211 1.393 . S
C215 C214 1.391 . S
H216 C224 0.950 . S
H217 C229 0.950 . S
H218 C226 0.950 . S
H219 C228 0.950 1_565 S
H220 C230 0.950 . S
H221 C232 0.950 . S
H222 C234 0.950 . S
H223 C235 0.950 . S
C224 H216 0.950 . S
C224 C225 1.386 . S
C224 C226 1.391 . S
C225 C224 1.386 . S
C225 C229 1.393 . S
C226 H218 0.950 . S
C226 C224 1.391 . S
C226 C227 1.400 . S
C227 C226 1.400 . S
C227 C228 1.398 . S
C227 C233 1.491 1_545 S
C228 H219 0.950 1_545 S
C228 C227 1.398 . S
C228 C229 1.391 . S
C229 H217 0.950 . S
C229 C225 1.393 . S
C229 C228 1.391 . S
C230 H220 0.950 . S
C230 C231 1.386 . S
C230 C232 1.391 . S
C231 C230 1.386 . S
C231 C235 1.393 . S
C232 H221 0.950 . S
C232 C230 1.391 . S
C232 C233 1.400 . S
C233 C227 1.491 1_565 S
C233 C232 1.400 . S
C233 C234 1.398 . S
C234 H222 0.950 . S
C234 C233 1.398 . S
C234 C235 1.391 . S
C235 H223 0.950 . S
C235 C231 1.393 . S
C235 C234 1.391 . S
H236 C244 0.950 . S
H237 C249 0.950 . S
H238 C246 0.950 . S
H239 C248 0.950 . S
H240 C250 0.950 . S
H241 C252 0.950 . S
H242 C254 0.950 . S
H243 C255 0.950 . S
C244 H236 0.950 . S
C244 C245 1.386 . S
C244 C246 1.391 . S
C245 C244 1.386 . S
C245 C249 1.393 . S
C246 H238 0.950 . S
C246 C244 1.391 . S
C246 C247 1.400 . S
C247 C246 1.400 . S
C247 C248 1.398 . S
C247 C253 1.491 . S
C248 H239 0.950 . S
C248 C247 1.398 . S
C248 C249 1.391 . S
C249 H237 0.950 . S
C249 C245 1.393 . S
C249 C248 1.391 . S
C250 H240 0.950 . S
C250 C251 1.386 . S
C250 C252 1.391 . S
C251 C250 1.386 . S
C251 C255 1.393 . S
C252 H241 0.950 . S
C252 C250 1.391 . S
C252 C253 1.400 . S
C253 C247 1.491 . S
C253 C252 1.400 . S
C253 C254 1.398 . S
C254 H242 0.950 . S
C254 C253 1.398 . S
C254 C255 1.391 . S
C255 H243 0.950 . S
C255 C251 1.393 . S
C255 C254 1.391 . S
H256 C264 0.950 . S
H257 C269 0.950 . S
H258 C266 0.950 . S
H259 C268 0.950 . S
H260 C270 0.950 . S
H261 C272 0.950 . S
H262 C274 0.950 . S
H263 C275 0.950 . S
C264 H256 0.950 . S
C264 C265 1.386 . S
C264 C266 1.391 . S
C265 C264 1.386 . S
C265 C269 1.393 . S
C266 H258 0.950 . S
C266 C264 1.391 . S
C266 C267 1.400 . S
C267 C266 1.400 . S
C267 C268 1.398 . S
C267 C273 1.491 . S
C268 H259 0.950 . S
C268 C267 1.398 . S
C268 C269 1.391 . S
C269 H257 0.950 . S
C269 C265 1.393 . S
C269 C268 1.391 . S
C270 H260 0.950 . S
C270 C271 1.386 . S
C270 C272 1.391 . S
C271 C270 1.386 . S
C271 C275 1.393 . S
C272 H261 0.950 . S
C272 C270 1.391 . S
C272 C273 1.400 . S
C273 C267 1.491 . S
C273 C272 1.400 . S
C273 C274 1.398 . S
C274 H262 0.950 . S
C274 C273 1.398 . S
C274 C275 1.391 . S
C275 H263 0.950 . S
C275 C271 1.393 . S
C275 C274 1.391 . S
H276 C284 0.950 . S
H277 C289 0.950 . S
H278 C286 0.950 . S
H279 C288 0.950 . S
H280 C290 0.950 . S
H281 C292 0.950 . S
H282 C294 0.950 . S
H283 C295 0.950 . S
C284 H276 0.950 . S
C284 C285 1.386 . S
C284 C286 1.391 1_655 S
C285 C284 1.386 . S
C285 C289 1.393 . S
C286 H278 0.950 . S
C286 C284 1.391 1_455 S
C286 C287 1.400 . S
C287 C286 1.400 . S
C287 C288 1.398 . S
C287 C293 1.491 . S
C288 H279 0.950 . S
C288 C287 1.398 . S
C288 C289 1.391 1_455 S
C289 H277 0.950 . S
C289 C285 1.393 . S
C289 C288 1.391 1_655 S
C290 H280 0.950 . S
C290 C291 1.386 . S
C290 C292 1.391 . S
C291 C290 1.386 . S
C291 C295 1.393 . S
C292 H281 0.950 . S
C292 C290 1.391 . S
C292 C293 1.400 . S
C293 C287 1.491 . S
C293 C292 1.400 . S
C293 C294 1.398 . S
C294 H282 0.950 . S
C294 C293 1.398 . S
C294 C295 1.391 . S
C295 H283 0.950 . S
C295 C291 1.393 . S
C295 C294 1.391 . S
H296 C304 0.950 . S
H297 C309 0.950 . S
H298 C306 0.950 . S
H299 C308 0.950 . S
H300 C310 0.950 . S
H301 C312 0.950 . S
H302 C314 0.950 . S
H303 C315 0.950 . S
C304 H296 0.950 . S
C304 C305 1.386 . S
C304 C306 1.391 . S
C305 C304 1.386 . S
C305 C309 1.393 . S
C306 H298 0.950 . S
C306 C304 1.391 . S
C306 C307 1.400 . S
C307 C306 1.400 . S
C307 C308 1.398 . S
C307 C313 1.491 . S
C308 H299 0.950 . S
C308 C307 1.398 . S
C308 C309 1.391 . S
C309 H297 0.950 . S
C309 C305 1.393 . S
C309 C308 1.391 . S
C310 H300 0.950 . S
C310 C311 1.386 . S
C310 C312 1.391 . S
C311 C310 1.386 . S
C311 C315 1.393 . S
C312 H301 0.950 . S
C312 C310 1.391 . S
C312 C313 1.400 . S
C313 C307 1.491 . S
C313 C312 1.400 . S
C313 C314 1.398 . S
C314 H302 0.950 . S
C314 C313 1.398 . S
C314 C315 1.391 . S
C315 H303 0.950 . S
C315 C311 1.393 . S
C315 C314 1.391 . S
H316 C324 0.950 . S
H317 C329 0.950 . S
H318 C326 0.950 . S
H319 C328 0.950 . S
H320 C330 0.950 . S
H321 C332 0.950 1_455 S
H322 C334 0.950 . S
H323 C335 0.950 . S
C324 H316 0.950 . S
C324 C325 1.386 . S
C324 C326 1.391 . S
C325 C324 1.386 . S
C325 C329 1.393 . S
C326 H318 0.950 . S
C326 C324 1.391 . S
C326 C327 1.400 . S
C327 C326 1.400 . S
C327 C328 1.398 . S
C327 C333 1.494 . S
C328 H319 0.950 . S
C328 C327 1.398 . S
C328 C329 1.391 . S
C329 H317 0.950 . S
C329 C325 1.393 . S
C329 C328 1.391 . S
C330 H320 0.950 . S
C330 C331 1.386 . S
C330 C332 1.391 . S
C331 C330 1.386 . S
C331 C335 1.393 . S
C332 H321 0.950 1_655 S
C332 C330 1.391 . S
C332 C333 1.400 1_655 S
C333 C327 1.494 . S
C333 C332 1.400 1_455 S
C333 C334 1.395 1_455 S
C334 H322 0.950 . S
C334 C333 1.395 1_655 S
C334 C335 1.391 . S
C335 H323 0.950 . S
C335 C331 1.393 . S
C335 C334 1.391 . S
H336 C344 0.950 . S
H337 C349 0.950 . S
H338 C346 0.950 1_565 S
H339 C348 0.950 . S
H340 C350 0.950 . S
H341 C352 0.950 1_545 S
H342 C354 0.950 . S
H343 C355 0.950 . S
C344 H336 0.950 . S
C344 C345 1.386 . S
C344 C346 1.391 . S
C345 C344 1.386 . S
C345 C349 1.393 . S
C346 H338 0.950 1_545 S
C346 C344 1.391 . S
C346 C347 1.400 . S
C347 C346 1.400 . S
C347 C348 1.398 . S
C347 C353 1.491 1_545 S
C348 H339 0.950 . S
C348 C347 1.398 . S
C348 C349 1.391 . S
C349 H337 0.950 . S
C349 C345 1.393 . S
C349 C348 1.391 . S
C350 H340 0.950 . S
C350 C351 1.386 . S
C350 C352 1.391 . S
C351 C350 1.386 . S
C351 C355 1.393 . S
C352 H341 0.950 1_565 S
C352 C350 1.391 . S
C352 C353 1.400 . S
C353 C347 1.491 1_565 S
C353 C352 1.400 . S
C353 C354 1.398 . S
C354 H342 0.950 . S
C354 C353 1.398 . S
C354 C355 1.391 . S
C355 H343 0.950 . S
C355 C351 1.393 . S
C355 C354 1.391 . S
H356 C364 0.950 . S
H357 C369 0.950 . S
H358 C366 0.950 . S
H359 C368 0.950 . S
H360 C370 0.950 . S
H361 C372 0.950 . S
H362 C374 0.950 . S
H363 C375 0.950 . S
C364 H356 0.950 . S
C364 C365 1.386 . S
C364 C366 1.391 . S
C365 C364 1.386 . S
C365 C369 1.393 . S
C366 H358 0.950 . S
C366 C364 1.391 . S
C366 C367 1.400 . S
C367 C366 1.400 . S
C367 C368 1.398 . S
C367 C373 1.491 . S
C368 H359 0.950 . S
C368 C367 1.398 . S
C368 C369 1.391 . S
C369 H357 0.950 . S
C369 C365 1.393 . S
C369 C368 1.391 . S
C370 H360 0.950 . S
C370 C371 1.386 . S
C370 C372 1.391 . S
C371 C370 1.386 . S
C371 C375 1.393 . S
C372 H361 0.950 . S
C372 C370 1.391 . S
C372 C373 1.400 . S
C373 C367 1.491 . S
C373 C372 1.400 . S
C373 C374 1.398 . S
C374 H362 0.950 . S
C374 C373 1.398 . S
C374 C375 1.391 . S
C375 H363 0.950 . S
C375 C371 1.393 . S
C375 C374 1.391 . S
H376 C384 0.950 . S
H377 C389 0.950 . S
H378 C386 0.950 . S
H379 C388 0.950 1_545 S
H380 C390 0.950 . S
H381 C392 0.950 . S
H382 C394 0.950 . S
H383 C395 0.950 . S
C384 H376 0.950 . S
C384 C385 1.386 . S
C384 C386 1.391 . S
C385 C384 1.386 . S
C385 C389 1.393 . S
C386 H378 0.950 . S
C386 C384 1.391 . S
C386 C387 1.396 1_565 S
C387 C386 1.396 1_545 S
C387 C388 1.396 1_545 S
C387 C393 1.497 . S
C388 H379 0.950 1_565 S
C388 C387 1.396 1_565 S
C388 C389 1.391 . S
C389 H377 0.950 . S
C389 C385 1.393 . S
C389 C388 1.391 . S
C390 H380 0.950 . S
C390 C391 1.386 . S
C390 C392 1.391 . S
C391 C390 1.386 . S
C391 C395 1.393 . S
C392 H381 0.950 . S
C392 C390 1.391 . S
C392 C393 1.400 . S
C393 C387 1.497 . S
C393 C392 1.400 . S
C393 C394 1.398 . S
C394 H382 0.950 . S
C394 C393 1.398 . S
C394 C395 1.391 . S
C395 H383 0.950 . S
C395 C391 1.393 . S
C395 C394 1.391 . S
H396 C404 0.950 . S
H397 C409 0.950 . S
H398 C406 0.950 . S
H399 C408 0.950 . S
H400 C410 0.950 . S
H401 C412 0.950 . S
H402 C414 0.950 . S
H403 C415 0.950 . S
C404 H396 0.950 . S
C404 C405 1.386 . S
C404 C406 1.391 . S
C405 C404 1.386 . S
C405 C409 1.393 . S
C406 H398 0.950 . S
C406 C404 1.391 . S
C406 C407 1.400 . S
C407 C406 1.400 . S
C407 C408 1.398 . S
C407 C413 1.491 . S
C408 H399 0.950 . S
C408 C407 1.398 . S
C408 C409 1.391 . S
C409 H397 0.950 . S
C409 C405 1.393 . S
C409 C408 1.391 . S
C410 H400 0.950 . S
C410 C411 1.386 . S
C410 C412 1.391 . S
C411 C410 1.386 . S
C411 C415 1.393 . S
C412 H401 0.950 . S
C412 C410 1.391 . S
C412 C413 1.400 . S
C413 C407 1.491 . S
C413 C412 1.400 . S
C413 C414 1.398 . S
C414 H402 0.950 . S
C414 C413 1.398 . S
C414 C415 1.391 . S
C415 H403 0.950 . S
C415 C411 1.393 . S
C415 C414 1.391 . S
H416 C424 0.950 . S
H417 C429 0.950 . S
H418 C426 0.950 . S
H419 C428 0.950 . S
H420 C430 0.950 . S
H421 C432 0.950 . S
H422 C434 0.950 . S
H423 C435 0.950 . S
C424 H416 0.950 . S
C424 C425 1.386 . S
C424 C426 1.391 . S
C425 C424 1.386 . S
C425 C429 1.393 . S
C426 H418 0.950 . S
C426 C424 1.391 . S
C426 C427 1.400 . S
C427 C426 1.400 . S
C427 C428 1.398 . S
C427 C433 1.491 . S
C428 H419 0.950 . S
C428 C427 1.398 . S
C428 C429 1.391 . S
C429 H417 0.950 . S
C429 C425 1.393 . S
C429 C428 1.391 . S
C430 H420 0.950 . S
C430 C431 1.386 . S
C430 C432 1.391 . S
C431 C430 1.386 . S
C431 C435 1.393 . S
C432 H421 0.950 . S
C432 C430 1.391 . S
C432 C433 1.400 . S
C433 C427 1.491 . S
C433 C432 1.400 . S
C433 C434 1.398 . S
C434 H422 0.950 . S
C434 C433 1.398 . S
C434 C435 1.391 . S
C435 H423 0.950 . S
C435 C431 1.393 . S
C435 C434 1.391 . S
H436 C444 0.948 1_455 S
H437 C449 0.950 . S
H438 C446 0.950 . S
H439 C448 0.950 . S
H440 C450 0.950 . S
H441 C452 0.950 . S
H442 C454 0.950 . S
H443 C455 0.950 . S
C444 H436 0.948 1_655 S
C444 C445 1.386 1_655 S
C444 C446 1.391 . S
C445 C444 1.386 1_455 S
C445 C449 1.393 . S
C446 H438 0.950 . S
C446 C444 1.391 . S
C446 C447 1.400 . S
C447 C446 1.400 . S
C447 C448 1.398 . S
C447 C453 1.491 . S
C448 H439 0.950 . S
C448 C447 1.398 . S
C448 C449 1.391 1_655 S
C449 H437 0.950 . S
C449 C445 1.393 . S
C449 C448 1.391 1_455 S
C450 H440 0.950 . S
C450 C451 1.386 . S
C450 C452 1.391 . S
C451 C450 1.386 . S
C451 C455 1.393 . S
C452 H441 0.950 . S
C452 C450 1.391 . S
C452 C453 1.400 . S
C453 C447 1.491 . S
C453 C452 1.400 . S
C453 C454 1.398 . S
C454 H442 0.950 . S
C454 C453 1.398 . S
C454 C455 1.391 . S
C455 H443 0.950 . S
C455 C451 1.393 . S
C455 C454 1.391 . S
H456 C464 0.950 . S
H457 C469 0.950 . S
H458 C466 0.950 . S
H459 C468 0.950 . S
H460 C470 0.950 . S
H461 C472 0.950 . S
H462 C474 0.950 . S
H463 C475 0.950 . S
C464 H456 0.950 . S
C464 C465 1.386 . S
C464 C466 1.391 . S
C465 C464 1.386 . S
C465 C469 1.393 . S
C466 H458 0.950 . S
C466 C464 1.391 . S
C466 C467 1.400 . S
C467 C466 1.400 . S
C467 C468 1.398 . S
C467 C473 1.491 . S
C468 H459 0.950 . S
C468 C467 1.398 . S
C468 C469 1.391 . S
C469 H457 0.950 . S
C469 C465 1.393 . S
C469 C468 1.391 . S
C470 H460 0.950 . S
C470 C471 1.386 . S
C470 C472 1.391 . S
C471 C470 1.386 . S
C471 C475 1.393 . S
C472 H461 0.950 . S
C472 C470 1.391 . S
C472 C473 1.400 . S
C473 C467 1.491 . S
C473 C472 1.400 . S
C473 C474 1.398 . S
C474 H462 0.950 . S
C474 C473 1.398 . S
C474 C475 1.391 . S
C475 H463 0.950 . S
C475 C471 1.393 . S
C475 C474 1.391 . S
H476 C484 0.950 . S
H477 C489 0.950 . S
H478 C486 0.950 . S
H479 C488 0.950 1_455 S
H480 C490 0.950 . S
H481 C492 0.950 . S
H482 C494 0.950 . S
H483 C495 0.950 1_655 S
C484 H476 0.950 . S
C484 C485 1.386 . S
C484 C486 1.391 . S
C485 C484 1.386 . S
C485 C489 1.393 . S
C486 H478 0.950 . S
C486 C484 1.391 . S
C486 C487 1.400 . S
C487 C486 1.400 . S
C487 C488 1.398 . S
C487 C493 1.491 . S
C488 H479 0.950 1_655 S
C488 C487 1.398 . S
C488 C489 1.391 . S
C489 H477 0.950 . S
C489 C485 1.393 . S
C489 C488 1.391 . S
C490 H480 0.950 . S
C490 C491 1.386 . S
C490 C492 1.391 . S
C491 C490 1.386 . S
C491 C495 1.393 . S
C492 H481 0.950 . S
C492 C490 1.391 . S
C492 C493 1.400 1_455 S
C493 C487 1.491 . S
C493 C492 1.400 1_655 S
C493 C494 1.398 . S
C494 H482 0.950 . S
C494 C493 1.398 . S
C494 C495 1.391 1_655 S
C495 H483 0.950 1_455 S
C495 C491 1.393 . S
C495 C494 1.391 1_455 S
H496 C504 0.950 . S
H497 C509 0.950 . S
H498 C506 0.950 . S
H499 C508 0.950 . S
H500 C510 0.950 . S
H501 C512 0.950 . S
H502 C514 0.950 . S
H503 C515 0.950 . S
C504 H496 0.950 . S
C504 C505 1.386 . S
C504 C506 1.391 . S
C505 C504 1.386 . S
C505 C509 1.393 . S
C506 H498 0.950 . S
C506 C504 1.391 . S
C506 C507 1.400 . S
C507 C506 1.400 . S
C507 C508 1.398 . S
C507 C513 1.491 . S
C508 H499 0.950 . S
C508 C507 1.398 . S
C508 C509 1.391 . S
C509 H497 0.950 . S
C509 C505 1.393 . S
C509 C508 1.391 . S
C510 H500 0.950 . S
C510 C511 1.386 . S
C510 C512 1.391 . S
C511 C510 1.386 . S
C511 C515 1.393 . S
C512 H501 0.950 . S
C512 C510 1.391 . S
C512 C513 1.400 . S
C513 C507 1.491 . S
C513 C512 1.400 . S
C513 C514 1.398 . S
C514 H502 0.950 . S
C514 C513 1.398 . S
C514 C515 1.391 . S
C515 H503 0.950 . S
C515 C511 1.393 . S
C515 C514 1.391 . S
H516 C524 0.950 . S
H517 C529 0.950 . S
H518 C526 0.950 . S
H519 C528 0.950 . S
H520 C530 0.950 . S
H521 C532 0.950 . S
H522 C534 0.950 . S
H523 C535 0.950 . S
C524 H516 0.950 . S
C524 C525 1.386 . S
C524 C526 1.391 . S
C525 C524 1.386 . S
C525 C529 1.393 . S
C526 H518 0.950 . S
C526 C524 1.391 . S
C526 C527 1.400 . S
C527 C526 1.400 . S
C527 C528 1.398 . S
C527 C533 1.491 . S
C528 H519 0.950 . S
C528 C527 1.398 . S
C528 C529 1.391 . S
C529 H517 0.950 . S
C529 C525 1.393 . S
C529 C528 1.391 . S
C530 H520 0.950 . S
C530 C531 1.386 . S
C530 C532 1.391 . S
C531 C530 1.386 . S
C531 C535 1.393 . S
C532 H521 0.950 . S
C532 C530 1.391 . S
C532 C533 1.400 . S
C533 C527 1.491 . S
C533 C532 1.400 . S
C533 C534 1.398 . S
C534 H522 0.950 . S
C534 C533 1.398 . S
C534 C535 1.391 . S
C535 H523 0.950 . S
C535 C531 1.393 . S
C535 C534 1.391 . S
H536 C544 0.950 . S
H537 C549 0.950 . S
H538 C546 0.950 . S
H539 C548 0.950 . S
H540 C550 0.950 . S
H541 C552 0.950 . S
H542 C554 0.950 . S
H543 C555 0.950 . S
C544 H536 0.950 . S
C544 C545 1.386 . S
C544 C546 1.391 . S
C545 C544 1.386 . S
C545 C549 1.393 . S
C546 H538 0.950 . S
C546 C544 1.391 . S
C546 C547 1.400 . S
C547 C546 1.400 . S
C547 C548 1.398 . S
C547 C553 1.491 . S
C548 H539 0.950 . S
C548 C547 1.398 . S
C548 C549 1.391 . S
C549 H537 0.950 . S
C549 C545 1.393 . S
C549 C548 1.391 . S
C550 H540 0.950 . S
C550 C551 1.386 . S
C550 C552 1.391 . S
C551 C550 1.386 . S
C551 C555 1.393 . S
C552 H541 0.950 . S
C552 C550 1.391 . S
C552 C553 1.400 . S
C553 C547 1.491 . S
C553 C552 1.400 . S
C553 C554 1.398 . S
C554 H542 0.950 . S
C554 C553 1.398 . S
C554 C555 1.391 . S
C555 H543 0.950 . S
C555 C551 1.393 . S
C555 C554 1.391 . S
H556 C564 0.950 . S
H557 C569 0.950 . S
H558 C566 0.950 . S
H559 C568 0.950 . S
H560 C570 0.950 . S
H561 C572 0.950 . S
H562 C574 0.950 . S
H563 C575 0.950 . S
C564 H556 0.950 . S
C564 C565 1.386 . S
C564 C566 1.391 . S
C565 C564 1.386 . S
C565 C569 1.393 . S
C566 H558 0.950 . S
C566 C564 1.391 . S
C566 C567 1.400 . S
C567 C566 1.400 . S
C567 C568 1.398 . S
C567 C573 1.491 . S
C568 H559 0.950 . S
C568 C567 1.398 . S
C568 C569 1.391 . S
C569 H557 0.950 . S
C569 C565 1.393 . S
C569 C568 1.391 . S
C570 H560 0.950 . S
C570 C571 1.386 . S
C570 C572 1.391 . S
C571 C570 1.386 . S
C571 C575 1.393 . S
C572 H561 0.950 . S
C572 C570 1.391 . S
C572 C573 1.400 . S
C573 C567 1.491 . S
C573 C572 1.400 . S
C573 C574 1.398 . S
C574 H562 0.950 . S
C574 C573 1.398 . S
C574 C575 1.391 . S
C575 H563 0.950 . S
C575 C571 1.393 . S
C575 C574 1.391 . S
H576 C584 0.950 . S
H577 C589 0.950 . S
H578 C586 0.950 . S
H579 C588 0.950 . S
H580 C590 0.950 . S
H581 C592 0.950 . S
H582 C594 0.950 . S
H583 C595 0.950 . S
C584 H576 0.950 . S
C584 C585 1.386 . S
C584 C586 1.391 . S
C585 C584 1.386 . S
C585 C589 1.393 . S
C586 H578 0.950 . S
C586 C584 1.391 . S
C586 C587 1.400 . S
C587 C586 1.400 . S
C587 C588 1.398 . S
C587 C593 1.491 . S
C588 H579 0.950 . S
C588 C587 1.398 . S
C588 C589 1.391 . S
C589 H577 0.950 . S
C589 C585 1.393 . S
C589 C588 1.391 . S
C590 H580 0.950 . S
C590 C591 1.386 . S
C590 C592 1.391 . S
C591 C590 1.386 . S
C591 C595 1.393 . S
C592 H581 0.950 . S
C592 C590 1.391 . S
C592 C593 1.400 . S
C593 C587 1.491 . S
C593 C592 1.400 . S
C593 C594 1.398 . S
C594 H582 0.950 . S
C594 C593 1.398 . S
C594 C595 1.391 . S
C595 H583 0.950 . S
C595 C591 1.393 . S
C595 C594 1.391 . S
H596 C604 0.950 . S
H597 C609 0.950 . S
H598 C606 0.950 . S
H599 C608 0.950 . S
H600 C610 0.950 . S
H601 C612 0.950 . S
H602 C614 0.950 . S
H603 C615 0.950 . S
C604 H596 0.950 . S
C604 C605 1.386 . S
C604 C606 1.391 . S
C605 C604 1.386 . S
C605 C609 1.393 . S
C606 H598 0.950 . S
C606 C604 1.391 . S
C606 C607 1.400 . S
C607 C606 1.400 . S
C607 C608 1.398 . S
C607 C613 1.491 . S
C608 H599 0.950 . S
C608 C607 1.398 . S
C608 C609 1.391 . S
C609 H597 0.950 . S
C609 C605 1.393 . S
C609 C608 1.391 . S
C610 H600 0.950 . S
C610 C611 1.386 . S
C610 C612 1.391 . S
C611 C610 1.386 . S
C611 C615 1.393 . S
C612 H601 0.950 . S
C612 C610 1.391 . S
C612 C613 1.400 . S
C613 C607 1.491 . S
C613 C612 1.400 . S
C613 C614 1.398 . S
C614 H602 0.950 . S
C614 C613 1.398 . S
C614 C615 1.391 . S
C615 H603 0.950 . S
C615 C611 1.393 . S
C615 C614 1.391 . S
H616 C624 0.950 . S
H617 C629 0.950 . S
H618 C626 0.950 . S
H619 C628 0.950 . S
H620 C630 0.950 . S
H621 C632 0.950 . S
H622 C634 0.950 . S
H623 C635 0.950 . S
C624 H616 0.950 . S
C624 C625 1.386 . S
C624 C626 1.391 . S
C625 C624 1.386 . S
C625 C629 1.393 . S
C626 H618 0.950 . S
C626 C624 1.391 . S
C626 C627 1.400 . S
C627 C626 1.400 . S
C627 C628 1.398 . S
C627 C633 1.491 . S
C628 H619 0.950 . S
C628 C627 1.398 . S
C628 C629 1.391 . S
C629 H617 0.950 . S
C629 C625 1.393 . S
C629 C628 1.391 . S
C630 H620 0.950 . S
C630 C631 1.386 . S
C630 C632 1.391 . S
C631 C630 1.386 . S
C631 C635 1.393 . S
C632 H621 0.950 . S
C632 C630 1.391 . S
C632 C633 1.400 . S
C633 C627 1.491 . S
C633 C632 1.400 . S
C633 C634 1.398 . S
C634 H622 0.950 . S
C634 C633 1.398 . S
C634 C635 1.391 . S
C635 H623 0.950 . S
C635 C631 1.393 . S
C635 C634 1.391 . S
H636 C644 0.950 . S
H637 C649 0.928 1_554 S
H638 C646 0.950 . S
H639 C648 0.950 . S
H640 C650 0.950 . S
H641 C652 0.950 . S
H642 C654 0.950 . S
H643 C655 0.950 . S
C644 H636 0.950 . S
C644 C645 1.386 . S
C644 C646 1.391 . S
C645 C644 1.386 . S
C645 C649 1.393 . S
C646 H638 0.950 . S
C646 C644 1.391 . S
C646 C647 1.400 . S
C647 C646 1.400 . S
C647 C648 1.398 . S
C647 C653 1.491 . S
C648 H639 0.950 . S
C648 C647 1.398 . S
C648 C649 1.391 . S
C649 H637 0.928 1_556 S
C649 C645 1.393 . S
C649 C648 1.391 . S
C650 H640 0.950 . S
C650 C651 1.386 . S
C650 C652 1.391 . S
C651 C650 1.386 . S
C651 C655 1.393 . S
C652 H641 0.950 . S
C652 C650 1.391 . S
C652 C653 1.400 . S
C653 C647 1.491 . S
C653 C652 1.400 . S
C653 C654 1.398 . S
C654 H642 0.950 . S
C654 C653 1.398 . S
C654 C655 1.391 . S
C655 H643 0.950 . S
C655 C651 1.393 . S
C655 C654 1.391 . S
C185 C8 1.440 . S
C191 C93 1.371 . S
C205 C31 1.372 . S
C211 C104 1.319 . S
C225 C53 1.355 . S
C231 C114 1.322 . S
C251 C126 1.351 . S
C245 C74 1.371 . S
C271 C137 1.396 . S
C265 C26 1.424 . S
C285 C48 1.372 . S
C291 C148 1.346 . S
C305 C71 1.367 . S
C311 C158 1.308 . S
C325 C5 1.383 . S
C331 C170 1.295 . S
C345 C50 1.296 . S
C351 C169 1.277 . S
C371 C136 1.177 . S
C365 C70 1.196 . S
C391 C147 1.295 . S
C385 C4 1.339 1_556 S
C405 C28 1.380 . S
C411 C159 1.363 . S
C431 C103 1.268 . S
C425 C73 1.304 . S
C445 C7 1.382 . S
C451 C115 1.348 . S
C471 C125 1.290 . S
C465 C30 1.339 . S
C491 C92 1.185 . S
C485 C52 1.190 . S
C511 C164 1.433 . S
C505 C9 1.443 . S
C531 C175 1.422 . S
C525 C29 1.411 . S
C545 C51 1.373 . S
C551 C142 1.373 . S
C571 C153 1.380 . S
C565 C75 1.398 . S
C591 C120 1.422 . S
C585 C27 1.449 . S
C605 C49 1.399 . S
C611 C131 1.377 . S
C631 C98 1.376 . S
C625 C72 1.374 . S
C651 C109 1.429 . S
C645 C6 1.434 . S
