# Generated by pormake.
# Topology tsx, (6,3)-cn, num edge types: 1
# Building blocks:
#     Node 0, Type 0, BuildingBlock: CIFDUS_clean_sbu_1, # of connection points: 6
#     Node 1, Type 0, BuildingBlock: CIFDUS_clean_sbu_1, # of connection points: 6
#     Node 2, Type 1, BuildingBlock: VETTIZ_charged_linker_0, # of connection points: 3
#     Node 3, Type 1, BuildingBlock: VETTIZ_charged_linker_0, # of connection points: 3
#     Node 4, Type 1, BuildingBlock: VETTIZ_charged_linker_0, # of connection points: 3
#     Node 5, Type 1, BuildingBlock: VETTIZ_charged_linker_0, # of connection points: 3
#     Edge 6, Type (0, 1), BuildingBlock: EZIPEK_clean_linker_0, # of connection points: 2
#     Edge 7, Type (0, 1), BuildingBlock: EZIPEK_clean_linker_0, # of connection points: 2
#     Edge 8, Type (0, 1), BuildingBlock: EZIPEK_clean_linker_0, # of connection points: 2
#     Edge 9, Type (0, 1), BuildingBlock: EZIPEK_clean_linker_0, # of connection points: 2
#     Edge 10, Type (0, 1), BuildingBlock: EZIPEK_clean_linker_0, # of connection points: 2
#     Edge 11, Type (0, 1), BuildingBlock: EZIPEK_clean_linker_0, # of connection points: 2
#     Edge 12, Type (0, 1), BuildingBlock: EZIPEK_clean_linker_0, # of connection points: 2
#     Edge 13, Type (0, 1), BuildingBlock: EZIPEK_clean_linker_0, # of connection points: 2
#     Edge 14, Type (0, 1), BuildingBlock: EZIPEK_clean_linker_0, # of connection points: 2
#     Edge 15, Type (0, 1), BuildingBlock: EZIPEK_clean_linker_0, # of connection points: 2
#     Edge 16, Type (0, 1), BuildingBlock: EZIPEK_clean_linker_0, # of connection points: 2
#     Edge 17, Type (0, 1), BuildingBlock: EZIPEK_clean_linker_0, # of connection points: 2
# Relax obj value: 0.132
# Max RMSD: 0.158
# Mean RMSD: 0.121
data_MOF--net-tsx--node1-CIFDUS_clean_sbu_1--node2-VETTIZ_charged_linker_0--edge1-EZIPEK_clean_linker_0
_symmetry_space_group_name_H-M    P1
_symmetry_Int_Tables_number       1
_symmetry_cell_setting            triclinic
loop_
_symmetry_equiv_pos_as_xyz
'x, y, z'
_cell_length_a     16.898351
_cell_length_b     20.343908
_cell_length_c     36.988789
_cell_angle_alpha  96.840013
_cell_angle_beta   91.936965
_cell_angle_gamma 91.575372
loop_
_atom_site_label
_atom_site_type_symbol
_atom_site_fract_x
_atom_site_fract_y
_atom_site_fract_z
_atom_type_partial_charge
O0 O 0.98853 0.13281 -0.02035 0.0
Mn1 Mn 0.05478 0.04687 -0.02474 0.0
O2 O 0.89751 0.10754 0.93364 0.0
Mn3 Mn 0.9225 0.0195 0.92195 0.0
O4 O 0.11373 0.95616 0.96861 0.0
O5 O 0.15543 0.10497 -0.01227 0.0
Mn6 Mn 0.22236 0.05241 0.00721 0.0
O7 O 0.04449 0.03725 0.03013 0.0
O8 O 0.2429 0.97858 -0.02506 0.0
O9 O 0.08083 0.0603 0.92218 0.0
O10 O 0.99335 1.00092 0.88601 0.0
O11 O 0.27727 0.13132 0.00744 0.0
O12 O 0.17352 0.03387 0.04905 0.0
C13 C 0.88401 0.95336 0.95629 0.0
C14 C 0.92914 0.14753 0.95967 0.0
C15 C 0.18549 0.93802 0.96552 0.0
C16 C 0.21152 0.15088 -0.00603 0.0
C17 C 0.09927 0.03122 0.05456 0.0
C18 C 0.05931 0.03139 0.891 0.0
O19 O 0.95006 0.98947 0.96372 0.0
O20 O 0.84719 0.95728 0.92533 0.0
O21 O 0.47265 0.6315 0.48129 0.0
Mn22 Mn 0.54412 0.54821 0.47885 0.0
O23 O 0.38393 0.60255 0.43469 0.0
Mn24 Mn 0.41395 0.51593 0.42237 0.0
O25 O 0.60858 0.45982 0.47449 0.0
O26 O 0.63938 0.61089 0.49438 0.0
Mn27 Mn 0.70616 0.55859 0.51401 0.0
O28 O 0.52698 0.53832 0.53329 0.0
O29 O 0.73462 0.49134 0.47944 0.0
O30 O 0.57485 0.56121 0.42595 0.0
O31 O 0.48883 0.50285 0.38771 0.0
O32 O 0.75835 0.63888 0.51824 0.0
O33 O 0.65431 0.53191 0.55351 0.0
C34 C 0.38299 0.44752 0.45764 0.0
C35 C 0.41285 0.64397 0.46082 0.0
C36 C 0.68177 0.44655 0.47065 0.0
C37 C 0.6942 0.65723 0.50272 0.0
C38 C 0.57964 0.52987 0.55823 0.0
C39 C 0.55413 0.53433 0.39405 0.0
O40 O 0.44525 0.48774 0.46393 0.0
O41 O 0.34388 0.44907 0.42702 0.0
C42 C 0.15257 0.87421 0.43308 0.0
C43 C 0.22914 0.85373 0.42363 0.0
C44 C 0.26396 0.87798 0.39355 0.0
C45 C 0.1453 0.9364 0.38127 0.0
C46 C 0.1115 0.91563 0.41138 0.0
C47 C 0.03071 0.94496 0.41705 0.0
H48 H 0.81184 0.21252 0.3719 0.0
C49 C 0.09077 0.98057 0.36521 0.0
C50 C 0.02948 0.99602 0.38943 0.0
H51 H 0.82962 0.15084 0.47909 0.0
H52 H 0.91191 0.05959 0.45581 0.0
H53 H 0.98329 0.20318 0.35181 0.0
H54 H 0.78549 0.0671 0.33169 0.0
H55 H 0.84914 0.03982 0.29683 0.0
H56 H 0.81033 0.12216 0.29932 0.0
H57 H 0.90046 0.21144 0.32109 0.0
H58 H 0.98666 0.16796 0.30606 0.0
C59 C 0.02478 0.9731 0.45699 0.0
C60 C 0.96705 0.8904 0.40553 0.0
C61 C 0.0947 0.9839 0.22856 0.0
C62 C 0.04523 0.01432 0.20476 0.0
C63 C 0.98401 0.05416 0.21823 0.0
C64 C 0.97221 0.06457 0.25543 0.0
C65 C 0.02196 0.03448 0.2793 0.0
C66 C 0.08205 0.99487 0.26595 0.0
C67 C 0.13053 0.9694 0.2959 0.0
C68 C 0.08465 0.99628 0.32905 0.0
C69 C 0.02229 0.03455 0.31887 0.0
C70 C 0.21604 0.99984 0.29654 0.0
C71 C 0.12766 0.89286 0.28954 0.0
C72 C 0.83269 0.17878 0.39042 0.0
C73 C 0.81543 0.18932 0.4273 0.0
C74 C 0.84298 0.14389 0.45051 0.0
C75 C 0.89134 0.09143 0.43729 0.0
C76 C 0.91208 0.08363 0.40072 0.0
C77 C 0.88068 0.12643 0.37791 0.0
C78 C 0.90754 0.11251 0.33993 0.0
C79 C 0.96832 0.06062 0.34467 0.0
C80 C 0.97019 0.04126 0.37995 0.0
C81 C 0.9462 0.17696 0.32881 0.0
C82 C 0.83473 0.08427 0.31552 0.0
H83 H 0.25356 0.94013 0.35157 0.0
H84 H 0.12525 0.85674 0.45634 0.0
H85 H 0.9068 0.90999 0.40947 0.0
H86 H 0.97554 0.84836 0.42164 0.0
H87 H 0.97127 0.87091 0.37626 0.0
H88 H 0.05462 0.02231 0.46066 0.0
H89 H 0.05412 0.94279 0.47616 0.0
H90 H 0.96284 0.97324 0.46541 0.0
H91 H 0.14375 0.95485 0.21837 0.0
H92 H 0.9471 0.07909 0.19993 0.0
H93 H 0.92638 0.09738 0.26404 0.0
H94 H 0.22434 0.03316 0.27512 0.0
H95 H 0.26057 0.96085 0.29186 0.0
H96 H 0.2314 0.03059 0.32285 0.0
H97 H 0.06551 0.87334 0.2894 0.0
H98 H 0.16198 0.8707 0.31064 0.0
H99 H 0.15303 0.87487 0.26298 0.0
H100 H 0.32312 0.86405 0.38597 0.0
C101 C 0.2233 0.92068 0.37309 0.0
C102 C 0.13915 0.24899 0.5346 0.0
C103 C 0.21249 0.28058 0.54672 0.0
C104 C 0.24577 0.26987 0.58065 0.0
C105 C 0.13905 0.1914 0.58834 0.0
C106 C 0.1029 0.2048 0.5562 0.0
C107 C 0.02984 0.16038 0.54658 0.0
H108 H 0.84887 0.86163 0.57239 0.0
C109 C 0.09601 0.13488 0.60094 0.0
C110 C 0.0336 0.11321 0.5758 0.0
H111 H 0.78049 0.98427 0.49007 0.0
H112 H 0.87379 0.07227 0.51807 0.0
H113 H 0.0386 0.88889 0.57856 0.0
H114 H 0.83903 0.97398 0.63249 0.0
H115 H 0.91786 0.99424 0.66427 0.0
H116 H 0.89045 0.9083 0.65006 0.0
H117 H 0.97493 0.84847 0.60764 0.0
H118 H 0.05969 0.89824 0.62607 0.0
C119 C 0.03774 0.12505 0.50826 0.0
C120 C 0.95577 0.20263 0.55026 0.0
C121 C 0.16869 0.07333 0.725 0.0
C122 C 0.13185 0.02906 0.74567 0.0
C123 C 0.08157 0.97762 0.72861 0.0
C124 C 0.06153 0.97452 0.69149 0.0
C125 C 0.09083 0.02431 0.67185 0.0
C126 C 0.14594 0.07096 0.68826 0.0
C127 C 0.1682 0.12151 0.66384 0.0
C128 C 0.11133 0.1014 0.63156 0.0
C129 C 0.06715 0.04414 0.63612 0.0
C130 C 0.25611 0.11129 0.65401 0.0
C131 C 0.15076 0.19128 0.68334 0.0
C132 C 0.85554 0.90657 0.55956 0.0
C133 C 0.80953 0.91493 0.52836 0.0
C134 C 0.81704 0.97578 0.51358 0.0
C135 C 0.87233 0.02592 0.5291 0.0
C136 C 0.92245 0.01435 0.55875 0.0
C137 C 0.91037 0.95636 0.57428 0.0
C138 C 0.9576 0.95583 0.60914 0.0
C139 C 1.00639 0.01969 0.61029 0.0
C140 C 0.98727 0.05449 0.58056 0.0
C141 C 1.01042 0.89452 0.60546 0.0
C142 C 0.89874 0.95783 0.6407 0.0
H143 H 0.23969 0.2186 0.62648 0.0
H144 H 0.11235 0.2571 0.50856 0.0
H145 H 0.90056 0.17221 0.54484 0.0
H146 H 0.95699 0.24038 0.53102 0.0
H147 H 0.95351 0.22907 0.57829 0.0
H148 H 0.0981 0.10521 0.50495 0.0
H149 H 0.02648 0.1587 0.48721 0.0
H150 H 0.9955 0.0832 0.50373 0.0
H151 H 0.20733 0.11319 0.73807 0.0
H152 H 0.05346 0.94286 0.74458 0.0
H153 H 0.02109 0.93549 0.68005 0.0
H154 H 0.27697 0.06187 0.65948 0.0
H155 H 0.29615 0.14901 0.67003 0.0
H156 H 0.26525 0.11266 0.62456 0.0
H157 H 0.09396 0.19011 0.69766 0.0
H158 H 0.14341 0.2291 0.66456 0.0
H159 H 0.1984 0.20895 0.7039 0.0
H160 H 0.30115 0.29477 0.59066 0.0
C161 C 0.20994 0.22524 0.6013 0.0
C162 C 0.678 0.38974 0.93988 0.0
C163 C 0.71864 0.33429 0.9247 0.0
C164 C 0.70134 0.30814 0.88821 0.0
C165 C 0.61005 0.39589 0.88137 0.0
C166 C 0.6227 0.41876 0.91785 0.0
C167 C 0.5717 0.47644 0.92923 0.0
H168 H 0.37342 0.73588 0.89248 0.0
C169 C 0.55381 0.43981 0.86539 0.0
C170 C 0.5229 0.48162 0.89429 0.0
H171 H 0.26923 0.6055 0.96236 0.0
H172 H 0.36435 0.52082 0.94219 0.0
H173 H 0.55626 0.68255 0.86935 0.0
H174 H 0.31458 0.61743 0.8436 0.0
H175 H 0.36558 0.58719 0.80568 0.0
H176 H 0.3627 0.67588 0.81827 0.0
H177 H 0.48561 0.72667 0.84485 0.0
H178 H 0.54319 0.66258 0.82162 0.0
C179 C 0.62599 0.53862 0.9386 0.0
C180 C 0.52231 0.46028 0.96129 0.0
C181 C 0.55299 0.45916 0.72887 0.0
C182 C 0.52601 0.50913 0.70879 0.0
C183 C 0.4933 0.56615 0.72677 0.0
C184 C 0.48752 0.5739 0.76443 0.0
C185 C 0.51199 0.52302 0.78426 0.0
C186 C 0.54543 0.46726 0.7668 0.0
C187 C 0.57378 0.4214 0.79338 0.0
C188 C 0.54514 0.45641 0.82914 0.0
C189 C 0.50963 0.51603 0.82317 0.0
C190 C 0.66512 0.42057 0.79206 0.0
C191 C 0.53264 0.35262 0.78321 0.0
C192 C 0.37514 0.69166 0.90614 0.0
C193 C 0.3211 0.68224 0.93337 0.0
C194 C 0.31711 0.61877 0.94566 0.0
C195 C 0.37252 0.57013 0.93466 0.0
C196 C 0.4304 0.58348 0.90999 0.0
C197 C 0.42261 0.63949 0.89255 0.0
C198 C 0.44528 0.62606 0.85335 0.0
C199 C 0.4768 0.55663 0.85222 0.0
C200 C 0.47502 0.53508 0.88649 0.0
C201 C 0.51083 0.67724 0.84661 0.0
C202 C 0.36884 0.62723 0.82872 0.0
H203 H 0.63425 0.31545 0.83924 0.0
H204 H 0.68916 0.40975 0.96811 0.0
H205 H 0.47746 0.49725 0.96766 0.0
H206 H 0.56044 0.45903 -0.01374 0.0
H207 H 0.49204 0.41103 0.95478 0.0
H208 H 0.59097 0.5839 0.94106 0.0
H209 H 0.66809 0.54362 0.91652 0.0
H210 H 0.66143 0.53614 0.96422 0.0
H211 H 0.58094 0.41606 0.71546 0.0
H212 H 0.47493 0.60594 0.71163 0.0
H213 H 0.46571 0.61992 0.77658 0.0
H214 H 0.69104 0.47175 0.79787 0.0
H215 H 0.68355 0.39956 0.76462 0.0
H216 H 0.69294 0.39124 0.81176 0.0
H217 H 0.46995 0.35767 0.77403 0.0
H218 H 0.52991 0.32378 0.80662 0.0
H219 H 0.56312 0.32349 0.76076 0.0
H220 H 0.7307 0.26442 0.87641 0.0
C221 C 0.64646 0.33813 0.86662 0.0
C222 C 0.634 0.75161 0.03048 0.0
C223 C 0.70228 0.78923 0.04446 0.0
C224 C 0.72744 0.78682 0.08085 0.0
C225 C 0.62472 0.70391 0.08738 0.0
C226 C 0.59548 0.70966 0.05269 0.0
C227 C 0.5227 0.66475 0.04332 0.0
H228 H 0.36122 0.36026 0.06711 0.0
C229 C 0.58092 0.64869 0.10114 0.0
C230 C 0.52333 0.62215 0.07462 0.0
H231 H 0.2761 0.48503 -0.011 0.0
H232 H 0.36299 0.57683 0.0182 0.0
H233 H 0.5511 0.40441 0.08038 0.0
H234 H 0.33348 0.46895 0.12681 0.0
H235 H 0.4059 0.49636 0.16076 0.0
H236 H 0.39088 0.40869 0.14637 0.0
H237 H 0.48588 0.35674 0.10538 0.0
H238 H 0.5608 0.41212 0.1286 0.0
C239 C 0.53115 0.62479 0.00618 0.0
C240 C 0.4493 0.70759 0.04459 0.0
C241 C 0.64743 0.59466 0.22803 0.0
C242 C 0.61516 0.54723 0.24825 0.0
C243 C 0.56892 0.49365 0.23051 0.0
C244 C 0.54937 0.49032 0.19327 0.0
C245 C 0.57517 0.54182 0.17398 0.0
C246 C 0.62534 0.59172 0.19111 0.0
C247 C 0.64572 0.64278 0.1666 0.0
C248 C 0.59401 0.61827 0.1331 0.0
C249 C 0.55347 0.55897 0.13738 0.0
C250 C 0.73561 0.63883 0.15926 0.0
C251 C 0.6198 0.71126 0.18459 0.0
C252 C 0.3641 0.40612 0.05494 0.0
C253 C 0.31632 0.41356 0.02399 0.0
C254 C 0.31629 0.47652 0.01126 0.0
C255 C 0.36782 0.52895 0.02743 0.0
C256 C 0.42079 0.51819 0.0562 0.0
C257 C 0.4138 0.45892 0.07094 0.0
C258 C 0.45678 0.46195 0.10731 0.0
C259 C 0.49835 0.52957 0.10997 0.0
C260 C 0.47973 0.56223 0.07942 0.0
C261 C 0.51678 0.40569 0.10559 0.0
C262 C 0.39407 0.4585 0.13693 0.0
H263 H 0.71271 0.74426 0.12948 0.0
H264 H 0.61214 0.75484 0.00294 0.0
H265 H 0.45268 0.74594 0.06873 0.0
H266 H 0.39551 0.67677 0.04734 0.0
H267 H 0.44358 0.73315 0.01973 0.0
H268 H 0.58029 0.59009 0.00766 0.0
H269 H 0.5425 0.6579 -0.01494 0.0
H270 H 0.47651 0.59691 -0.0029 0.0
H271 H 0.68354 0.63594 0.24138 0.0
H272 H 0.54475 0.45619 0.2459 0.0
H273 H 0.51303 0.44896 0.18123 0.0
H274 H 0.76084 0.59184 0.16634 0.0
H275 H 0.77015 0.68004 0.17551 0.0
H276 H 0.74774 0.63932 0.13003 0.0
H277 H 0.56089 0.70678 0.1968 0.0
H278 H 0.61273 0.74782 0.165 0.0
H279 H 0.6628 0.73213 0.20664 0.0
H280 H 0.77824 0.81674 0.09241 0.0
C281 C 0.68949 0.74427 0.10222 0.0
C282 C 0.17149 0.2651 0.01885 0.0
C283 C 0.20455 0.22307 -0.0097 0.0
C284 C 0.28672 0.31674 -0.02537 0.0
C285 C 0.26445 0.35534 0.00714 0.0
N286 N 0.17108 0.37432 0.05446 0.0
N287 N 0.27288 0.21204 0.93457 0.0
C288 C 0.20124 0.33209 0.02719 0.0
C289 C 0.25502 0.25053 0.96588 0.0
N290 N 0.11397 0.23956 0.03864 0.0
N291 N 0.34069 0.34257 0.95315 0.0
H292 H 0.24829 0.16424 0.928 0.0
H293 H 0.3067 0.22804 0.91415 0.0
H294 H 0.35951 0.39208 0.95743 0.0
H295 H 0.36649 0.31594 0.9311 0.0
H296 H 0.08962 0.26458 0.06156 0.0
H297 H 0.08944 0.19205 0.03132 0.0
H298 H 0.12434 0.36244 0.07029 0.0
H299 H 0.19101 0.42363 0.06009 0.0
C300 C 0.23879 0.83491 -0.01257 0.0
C301 C 0.20273 0.86583 0.95888 0.0
C302 C 0.21905 0.76441 0.91666 0.0
C303 C 0.26396 0.73683 0.94421 0.0
N304 N 0.28265 0.73418 0.00897 0.0
N305 N 0.13734 0.85366 0.89958 0.0
C306 C 0.26356 0.76841 -0.01941 0.0
C307 C 0.18577 0.82837 0.92446 0.0
N308 N 0.25028 0.86946 0.02133 0.0
N309 N 0.20823 0.72868 0.8831 0.0
H310 H 0.11078 0.89917 0.90508 0.0
H311 H 0.1187 0.82837 0.87453 0.0
H312 H 0.22275 0.67897 0.87844 0.0
H313 H 0.1853 0.74741 0.86012 0.0
H314 H 0.28722 0.85412 0.04162 0.0
H315 H 0.22527 0.91507 0.02885 0.0
H316 H 0.27408 0.75176 0.03611 0.0
H317 H 0.29852 0.68516 0.00559 0.0
C318 C 0.76131 0.92988 -0.01043 0.0
C319 C 0.84235 0.91603 -0.0171 0.0
C320 C 0.8288 0.81562 0.01363 0.0
C321 C 0.74902 0.8313 0.02165 0.0
N322 N 0.64237 0.90756 0.02159 0.0
N323 N 0.95497 0.84836 -0.00995 0.0
C324 C 0.71591 0.88925 0.01049 0.0
C325 C 0.87684 0.86003 -0.00421 0.0
N326 N 0.72723 0.98218 -0.02436 0.0
N327 N 0.8571 0.75632 0.02145 0.0
H328 H 0.99009 0.87716 -0.02494 0.0
H329 H 0.98691 0.81301 0.0019 0.0
H330 H 0.82282 0.72148 0.03302 0.0
H331 H 0.91219 0.7387 0.01414 0.0
H332 H 0.66624 0.98732 0.97297 0.0
H333 H 0.75989 0.01979 0.96555 0.0
H334 H 0.61778 0.95264 0.01772 0.0
H335 H 0.60739 0.87995 0.03731 0.0
C336 C 0.81445 0.21167 -0.01883 0.0
C337 C 0.89075 0.21204 0.96662 0.0
C338 C 0.86096 0.31239 0.93894 0.0
C339 C 0.77978 0.3024 0.94617 0.0
N340 N 0.67886 0.24775 -0.02265 0.0
N341 N 0.99268 0.2665 0.93665 0.0
C342 C 0.75666 0.25465 0.96913 0.0
C343 C 0.91651 0.26479 0.94782 0.0
N344 N 0.79751 0.16836 0.00557 0.0
N345 N 0.88391 0.36684 0.92312 0.0
H346 H 0.03447 0.23351 0.94445 0.0
H347 H 0.01412 0.29905 0.91936 0.0
H348 H 0.84386 0.40219 0.91663 0.0
H349 H 0.94262 0.37981 0.91902 0.0
H350 H 0.74487 0.16747 0.01933 0.0
H351 H 0.83999 0.13676 0.01429 0.0
H352 H 0.65631 0.20951 -0.0093 0.0
H353 H 0.63563 0.27943 0.96958 0.0
C354 C 0.74055 0.75191 0.47255 0.0
C355 C 0.68816 0.72826 0.49721 0.0
C356 C 0.68867 0.83987 0.53119 0.0
C357 C 0.75575 0.85812 0.51196 0.0
N358 N 0.84611 0.83027 0.46395 0.0
N359 N 0.6018 0.75049 0.54686 0.0
C360 C 0.78027 0.81461 0.48176 0.0
C361 C 0.65749 0.77314 0.52511 0.0
N362 N 0.75422 0.71266 0.44096 0.0
N363 N 0.65642 0.8862 0.55567 0.0
H364 H 0.57586 0.70304 0.54119 0.0
H365 H 0.58246 0.7776 0.57038 0.0
H366 H 0.67864 0.935 0.5602 0.0
H367 H 0.60467 0.87805 0.56916 0.0
H368 H 0.78693 0.7285 0.42006 0.0
H369 H 0.72542 0.66642 0.43445 0.0
H370 H 0.87279 0.79632 0.44528 0.0
H371 H 0.87704 0.87545 0.46989 0.0
C372 C 0.77551 0.35621 0.48129 0.0
C373 C 0.70747 0.37638 0.46229 0.0
C374 C 0.69854 0.26508 0.42756 0.0
C375 C 0.77504 0.25134 0.44147 0.0
N376 N 0.89423 0.29379 0.47533 0.0
N377 N 0.60725 0.34932 0.41394 0.0
C378 C 0.81573 0.29954 0.46669 0.0
C379 C 0.6691 0.33043 0.43465 0.0
N380 N 0.80024 0.38929 0.51423 0.0
N381 N 0.65354 0.21551 0.408 0.0
H382 H 0.58362 0.3962 0.41769 0.0
H383 H 0.58355 0.32006 0.39088 0.0
H384 H 0.67286 0.16712 0.40289 0.0
H385 H 0.59451 0.22085 0.40012 0.0
H386 H 0.84627 0.37293 0.53005 0.0
H387 H 0.76823 0.42715 0.52784 0.0
H388 H 0.92757 0.33157 0.49089 0.0
H389 H 0.92787 0.25489 0.46401 0.0
C390 C 0.26959 0.4279 0.49723 0.0
C391 C 0.34634 0.41024 0.48528 0.0
C392 C 0.33105 0.30439 0.51019 0.0
C393 C 0.25686 0.32426 0.52428 0.0
N394 N 0.1631 0.41022 0.53756 0.0
N395 N 0.45508 0.33644 0.48467 0.0
C396 C 0.22832 0.38758 0.51964 0.0
C397 C 0.37889 0.35013 0.49341 0.0
N398 N 0.23462 0.48226 0.48612 0.0
N399 N 0.35388 0.24067 0.51126 0.0
H400 H 0.49044 0.36832 0.47156 0.0
H401 H 0.48535 0.29669 0.49305 0.0
H402 H 0.31938 0.20529 0.52232 0.0
H403 H 0.40325 0.22103 0.49835 0.0
H404 H 0.17514 0.49247 0.4897 0.0
H405 H 0.26348 0.51497 0.471 0.0
H406 H 0.14485 0.45887 0.53858 0.0
H407 H 0.13081 0.38214 0.55411 0.0
C408 C 0.40466 0.76881 0.46269 0.0
C409 C 0.36948 0.70669 0.4675 0.0
C410 C 0.23957 0.74418 0.45 0.0
C411 C 0.27381 0.80656 0.44428 0.0
N412 N 0.3827 0.88549 0.45989 0.0
N413 N 0.25222 0.65012 0.48384 0.0
C414 C 0.3545 0.82144 0.45565 0.0
C415 C 0.28616 0.70011 0.46772 0.0
N416 N 0.48506 0.77678 0.46281 0.0
N417 N 0.1661 0.72372 0.4358 0.0
H418 H 0.28684 0.62001 0.49853 0.0
H419 H 0.19118 0.64473 0.4864 0.0
H420 H 0.13226 0.75067 0.41911 0.0
H421 H 0.14288 0.67609 0.43715 0.0
H422 H 0.51349 0.81916 0.45559 0.0
H423 H 0.52303 0.73949 0.46839 0.0
H424 H 0.43925 0.89946 0.47071 0.0
H425 H 0.34628 0.92503 0.45634 0.0
C426 C 0.03879 0.97012 0.10228 0.0
C427 C 0.07867 0.02723 0.09243 0.0
C428 C 0.10985 0.06681 0.15633 0.0
C429 C 0.06329 0.01355 0.16628 0.0
N430 N 0.9771 0.91743 0.15018 0.0
N431 N 0.13994 0.1357 0.1096 0.0
C432 C 0.02575 0.9659 0.13966 0.0
C433 C 0.11074 0.07724 0.11937 0.0
N434 N 0.01687 0.91898 0.07619 0.0
N435 N 0.1541 0.10693 0.18222 0.0
H436 H 0.14146 0.14548 0.08264 0.0
H437 H 0.15587 0.17677 0.12826 0.0
H438 H 0.15423 0.10151 0.20991 0.0
H439 H 0.19619 0.14178 0.17596 0.0
H440 H 0.99485 0.87325 0.08199 0.0
H441 H 0.02609 0.92067 0.04861 0.0
H442 H 0.94113 0.88568 0.13204 0.0
H443 H 0.96941 0.91133 0.17748 0.0
C444 C 0.16446 0.01305 0.84557 0.0
C445 C 0.09904 0.04899 0.85879 0.0
C446 C 0.07405 0.08918 0.80041 0.0
C447 C 0.13128 0.04479 0.78544 0.0
N448 N 0.23886 0.97192 0.79278 0.0
N449 N 0.01384 0.14048 0.85495 0.0
C450 C 0.18021 0.00985 0.80794 0.0
C451 C 0.06142 0.09381 0.83813 0.0
N452 N 0.21095 0.98312 0.86926 0.0
N453 N 0.02778 0.12281 0.7782 0.0
H454 H 1.00513 0.14475 0.88291 0.0
H455 H 0.98963 0.17872 0.84229 0.0
H456 H 0.03538 0.12162 0.7503 0.0
H457 H 0.97872 0.1493 0.7869 0.0
H458 H 0.261 0.95668 0.86214 0.0
H459 H 0.20187 0.98923 0.89719 0.0
H460 H 0.27357 0.9412 0.80681 0.0
H461 H 0.25256 0.97089 0.76542 0.0
C462 C 0.59695 0.56986 0.62371 0.0
C463 C 0.55688 0.52576 0.59604 0.0
C464 C 0.49356 0.46881 0.64271 0.0
C465 C 0.54147 0.5082 0.66973 0.0
N466 N 0.65272 0.58446 0.68509 0.0
N467 N 0.47461 0.42744 0.57858 0.0
C468 C 0.59766 0.55499 0.65991 0.0
C469 C 0.50679 0.47358 0.60526 0.0
N470 N 0.63237 0.62725 0.61553 0.0
N471 N 0.43463 0.42823 0.65281 0.0
H472 H 0.48319 0.4296 0.55097 0.0
H473 H 0.44412 0.38464 0.58388 0.0
H474 H 0.42481 0.42256 0.67997 0.0
H475 H 0.39246 0.40366 0.63447 0.0
H476 H 0.65601 0.66392 0.63534 0.0
H477 H 0.63028 0.64157 0.58938 0.0
H478 H 0.69984 0.6142 0.67831 0.0
H479 H 0.65622 0.57357 0.71196 0.0
C480 C 0.56477 0.60613 0.34538 0.0
C481 C 0.59556 0.55341 0.36244 0.0
C482 C 0.66557 0.51472 0.30767 0.0
C483 C 0.61993 0.55764 0.28846 0.0
N484 N 0.52483 0.64468 0.28849 0.0
N485 N 0.68495 0.46419 0.3636 0.0
C486 C 0.57075 0.60488 0.30727 0.0
C487 C 0.65021 0.51028 0.34485 0.0
N488 N 0.52821 0.65624 0.36568 0.0
N489 N 0.72266 0.47837 0.2901 0.0
H490 H 0.67894 0.46462 0.3916 0.0
H491 H 0.71873 0.42598 0.35175 0.0
H492 H 0.73488 0.48167 0.26289 0.0
H493 H 0.76155 0.44895 0.30289 0.0
H494 H 0.51041 0.69926 0.35547 0.0
H495 H 0.52322 0.65769 0.39381 0.0
H496 H 0.481 0.6741 0.30038 0.0
H497 H 0.52606 0.64519 0.26039 0.0
loop_
_geom_bond_atom_site_label_1
_geom_bond_atom_site_label_2
_geom_bond_distance
_geom_bond_site_symmetry_2
_ccdc_geom_bond_type
O0 Mn1 2.163 1_654 S
O0 C14 1.244 1_554 S
Mn1 O0 2.163 1_456 S
Mn1 O4 2.160 1_545 S
Mn1 O5 2.221 1_556 S
Mn1 O7 2.163 1_556 S
Mn1 O9 2.160 . S
Mn1 O19 2.221 1_445 S
O2 Mn3 2.087 . S
O2 C14 1.256 . S
Mn3 O2 2.087 . S
Mn3 O10 2.089 . S
Mn3 O19 2.290 1_545 S
Mn3 O20 2.251 1_545 S
O4 Mn1 2.160 1_565 S
O4 C15 1.239 1_556 S
O5 Mn1 2.221 1_554 S
O5 Mn6 2.290 . S
O5 C16 1.278 . S
Mn6 O5 2.290 . S
Mn6 O8 2.089 1_545 S
Mn6 O11 2.251 . S
Mn6 O12 2.087 . S
O7 Mn1 2.163 1_554 S
O7 C17 1.244 . S
O8 Mn6 2.089 1_565 S
O8 C15 1.256 . S
O9 Mn1 2.160 . S
O9 C18 1.239 . S
O10 Mn3 2.089 . S
O10 C18 1.256 1_655 S
O11 Mn6 2.251 . S
O11 C16 1.241 . S
O12 Mn6 2.087 . S
O12 C17 1.256 . S
C13 O19 1.265 1_554 S
C13 O20 1.235 1_554 S
C14 O0 1.244 1_556 S
C14 O2 1.256 . S
C15 O4 1.239 1_554 S
C15 O8 1.256 . S
C16 O5 1.278 . S
C16 O11 1.241 . S
C17 O7 1.244 . S
C17 O12 1.256 . S
C18 O9 1.239 . S
C18 O10 1.256 1_455 S
O19 Mn1 2.221 1_665 S
O19 Mn3 2.290 1_565 S
O19 C13 1.265 1_556 S
O20 Mn3 2.251 1_565 S
O20 C13 1.235 1_556 S
O21 Mn22 2.163 . S
O21 C35 1.244 . S
Mn22 O21 2.163 . S
Mn22 O25 2.160 . S
Mn22 O26 2.221 . S
Mn22 O28 2.163 . S
Mn22 O30 2.160 . S
Mn22 O40 2.221 . S
O23 Mn24 2.087 . S
O23 C35 1.256 . S
Mn24 O23 2.087 . S
Mn24 O31 2.089 . S
Mn24 O40 2.290 . S
Mn24 O41 2.251 . S
O25 Mn22 2.160 . S
O25 C36 1.239 . S
O26 Mn22 2.221 . S
O26 Mn27 2.290 . S
O26 C37 1.278 . S
Mn27 O26 2.290 . S
Mn27 O29 2.089 . S
Mn27 O32 2.251 . S
Mn27 O33 2.087 . S
O28 Mn22 2.163 . S
O28 C38 1.244 . S
O29 Mn27 2.089 . S
O29 C36 1.256 . S
O30 Mn22 2.160 . S
O30 C39 1.239 . S
O31 Mn24 2.089 . S
O31 C39 1.256 . S
O32 Mn27 2.251 . S
O32 C37 1.241 . S
O33 Mn27 2.087 . S
O33 C38 1.256 . S
C34 O40 1.278 . S
C34 O41 1.241 . S
C35 O21 1.244 . S
C35 O23 1.256 . S
C36 O25 1.239 . S
C36 O29 1.256 . S
C37 O26 1.278 . S
C37 O32 1.241 . S
C38 O28 1.244 . S
C38 O33 1.256 . S
C39 O30 1.239 . S
C39 O31 1.256 . S
O40 Mn22 2.221 . S
O40 Mn24 2.290 . S
O40 C34 1.278 . S
O41 Mn24 2.251 . S
O41 C34 1.241 . S
C42 C43 1.391 . S
C42 C46 1.391 . S
C42 H84 0.948 . S
C43 C42 1.391 . S
C43 C44 1.391 . S
C44 C43 1.391 . S
C44 H100 0.947 . S
C44 C101 1.392 . S
C45 C46 1.391 . S
C45 C49 1.397 . S
C45 C101 1.419 . S
C46 C42 1.391 . S
C46 C45 1.391 . S
C46 C47 1.399 . S
C47 C46 1.399 . S
C47 C50 1.396 . S
C47 C59 1.453 1_565 S
C47 C60 1.684 . S
H48 C72 0.948 . S
C49 C45 1.397 . S
C49 C50 1.394 . S
C49 C68 1.723 . S
C50 C47 1.396 . S
C50 C49 1.394 . S
C50 C80 1.723 1_565 S
H51 C74 0.947 . S
H52 C75 0.948 . S
H53 C81 0.982 1_455 S
H54 C82 0.979 . S
H55 C82 0.980 . S
H56 C82 0.983 . S
H57 C81 0.979 . S
H58 C81 0.977 . S
C59 C47 1.453 1_545 S
C59 H88 0.982 . S
C59 H89 0.979 1_545 S
C59 H90 0.977 . S
C60 C47 1.684 . S
C60 H85 0.979 1_455 S
C60 H86 0.980 1_455 S
C60 H87 0.983 . S
C61 C62 1.391 . S
C61 C66 1.391 . S
C61 H91 0.948 . S
C62 C61 1.391 . S
C62 C63 1.391 1_465 S
C63 C62 1.391 1_645 S
C63 C64 1.392 . S
C63 H92 0.947 . S
C64 C63 1.392 . S
C64 C65 1.419 1_655 S
C64 H93 0.948 . S
C65 C64 1.419 1_455 S
C65 C66 1.391 1_545 S
C65 C69 1.397 . S
C66 C61 1.391 . S
C66 C65 1.391 1_565 S
C66 C67 1.399 . S
C67 C66 1.399 . S
C67 C68 1.396 . S
C67 C70 1.453 . S
C67 C71 1.684 . S
C68 C49 1.723 . S
C68 C67 1.396 . S
C68 C69 1.394 1_565 S
C69 C65 1.397 . S
C69 C68 1.394 1_545 S
C69 C79 1.723 1_455 S
C70 C67 1.453 . S
C70 H94 0.982 . S
C70 H95 0.979 . S
C70 H96 0.977 . S
C71 C67 1.684 . S
C71 H97 0.979 . S
C71 H98 0.980 . S
C71 H99 0.983 . S
C72 H48 0.948 . S
C72 C73 1.391 . S
C72 C77 1.391 . S
C73 C72 1.391 . S
C73 C74 1.391 . S
C74 H51 0.947 . S
C74 C73 1.391 . S
C74 C75 1.392 . S
C75 H52 0.948 . S
C75 C74 1.392 . S
C75 C76 1.419 . S
C76 C75 1.419 . S
C76 C77 1.391 . S
C76 C80 1.397 1_655 S
C77 C72 1.391 . S
C77 C76 1.391 . S
C77 C78 1.399 . S
C78 C77 1.399 . S
C78 C79 1.396 . S
C78 C81 1.453 . S
C78 C82 1.684 . S
C79 C69 1.723 1_655 S
C79 C78 1.396 . S
C79 C80 1.394 1_655 S
C80 C50 1.723 1_545 S
C80 C76 1.397 1_455 S
C80 C79 1.394 1_455 S
C81 H53 0.982 1_655 S
C81 H57 0.979 . S
C81 H58 0.977 . S
C81 C78 1.453 . S
C82 H54 0.979 . S
C82 H55 0.980 . S
C82 H56 0.983 . S
C82 C78 1.684 . S
H83 C101 0.948 . S
H84 C42 0.948 . S
H85 C60 0.979 1_655 S
H86 C60 0.980 1_655 S
H87 C60 0.983 . S
H88 C59 0.982 . S
H89 C59 0.979 1_565 S
H90 C59 0.977 . S
H91 C61 0.948 . S
H92 C63 0.947 . S
H93 C64 0.948 . S
H94 C70 0.982 . S
H95 C70 0.979 . S
H96 C70 0.977 . S
H97 C71 0.979 . S
H98 C71 0.980 . S
H99 C71 0.983 . S
H100 C44 0.947 . S
C101 C44 1.392 . S
C101 C45 1.419 . S
C101 H83 0.948 . S
C102 C103 1.391 . S
C102 C106 1.391 . S
C102 H144 0.948 . S
C103 C102 1.391 . S
C103 C104 1.391 . S
C104 C103 1.391 . S
C104 H160 0.947 . S
C104 C161 1.392 . S
C105 C106 1.391 . S
C105 C109 1.397 . S
C105 C161 1.419 . S
C106 C102 1.391 . S
C106 C105 1.391 . S
C106 C107 1.399 . S
C107 C106 1.399 . S
C107 C110 1.396 . S
C107 C119 1.453 . S
C107 C120 1.684 1_455 S
H108 C132 0.948 . S
C109 C105 1.397 . S
C109 C110 1.394 . S
C109 C128 1.723 . S
C110 C107 1.396 . S
C110 C109 1.394 . S
C110 C140 1.723 1_455 S
H111 C134 0.947 . S
H112 C135 0.948 1_545 S
H113 C141 0.982 . S
H114 C142 0.979 1_545 S
H115 C142 0.980 . S
H116 C142 0.983 . S
H117 C141 0.979 . S
H118 C141 0.977 . S
C119 C107 1.453 . S
C119 H148 0.982 . S
C119 H149 0.979 . S
C119 H150 0.977 . S
C120 C107 1.684 1_655 S
C120 H145 0.979 . S
C120 H146 0.980 . S
C120 H147 0.983 . S
C121 C122 1.391 1_455 S
C121 C126 1.391 . S
C121 H151 0.948 . S
C122 C121 1.391 1_655 S
C122 C123 1.391 . S
C123 C122 1.391 . S
C123 C124 1.392 . S
C123 H152 0.947 . S
C124 C123 1.392 . S
C124 C125 1.419 . S
C124 H153 0.948 . S
C125 C124 1.419 . S
C125 C126 1.391 1_655 S
C125 C129 1.397 . S
C126 C121 1.391 . S
C126 C125 1.391 1_455 S
C126 C127 1.399 . S
C127 C126 1.399 . S
C127 C128 1.396 . S
C127 C130 1.453 . S
C127 C131 1.684 . S
C128 C109 1.723 . S
C128 C127 1.396 . S
C128 C129 1.394 1_455 S
C129 C125 1.397 . S
C129 C128 1.394 1_655 S
C129 C139 1.723 . S
C130 C127 1.453 . S
C130 H154 0.982 . S
C130 H155 0.979 . S
C130 H156 0.977 . S
C131 C127 1.684 . S
C131 H157 0.979 . S
C131 H158 0.980 . S
C131 H159 0.983 . S
C132 H108 0.948 . S
C132 C133 1.391 . S
C132 C137 1.391 . S
C133 C132 1.391 . S
C133 C134 1.391 . S
C134 H111 0.947 . S
C134 C133 1.391 . S
C134 C135 1.392 . S
C135 H112 0.948 1_565 S
C135 C134 1.392 . S
C135 C136 1.419 . S
C136 C135 1.419 . S
C136 C137 1.391 . S
C136 C140 1.397 1_565 S
C137 C132 1.391 . S
C137 C136 1.391 . S
C137 C138 1.399 . S
C138 C137 1.399 . S
C138 C139 1.396 1_565 S
C138 C141 1.453 . S
C138 C142 1.684 . S
C139 C129 1.723 . S
C139 C138 1.396 1_545 S
C139 C140 1.394 . S
C140 C110 1.723 1_655 S
C140 C136 1.397 1_545 S
C140 C139 1.394 . S
C141 H113 0.982 . S
C141 H117 0.979 . S
C141 H118 0.977 . S
C141 C138 1.453 . S
C142 H114 0.979 1_565 S
C142 H115 0.980 . S
C142 H116 0.983 . S
C142 C138 1.684 . S
H143 C161 0.948 . S
H144 C102 0.948 . S
H145 C120 0.979 . S
H146 C120 0.980 . S
H147 C120 0.983 . S
H148 C119 0.982 . S
H149 C119 0.979 . S
H150 C119 0.977 . S
H151 C121 0.948 . S
H152 C123 0.947 . S
H153 C124 0.948 . S
H154 C130 0.982 . S
H155 C130 0.979 . S
H156 C130 0.977 . S
H157 C131 0.979 . S
H158 C131 0.980 . S
H159 C131 0.983 . S
H160 C104 0.947 . S
C161 C104 1.392 . S
C161 C105 1.419 . S
C161 H143 0.948 . S
C162 C163 1.391 . S
C162 C166 1.391 . S
C162 H204 0.948 1_556 S
C163 C162 1.391 . S
C163 C164 1.391 . S
C164 C163 1.391 . S
C164 H220 0.947 . S
C164 C221 1.392 . S
C165 C166 1.391 . S
C165 C169 1.397 . S
C165 C221 1.419 . S
C166 C162 1.391 . S
C166 C165 1.391 . S
C166 C167 1.399 . S
C167 C166 1.399 . S
C167 C170 1.396 . S
C167 C179 1.453 1_556 S
C167 C180 1.684 1_556 S
H168 C192 0.948 . S
C169 C165 1.397 . S
C169 C170 1.394 . S
C169 C188 1.723 . S
C170 C167 1.396 . S
C170 C169 1.394 . S
C170 C200 1.723 . S
H171 C194 0.947 . S
H172 C195 0.948 . S
H173 C201 0.982 . S
H174 C202 0.979 . S
H175 C202 0.980 . S
H176 C202 0.983 . S
H177 C201 0.979 . S
H178 C201 0.977 . S
C179 C167 1.453 1_554 S
C179 H208 0.982 . S
C179 H209 0.979 . S
C179 H210 0.977 . S
C180 C167 1.684 1_554 S
C180 H205 0.979 . S
C180 H206 0.980 . S
C180 H207 0.983 . S
C181 C182 1.391 . S
C181 C186 1.391 . S
C181 H211 0.948 . S
C182 C181 1.391 . S
C182 C183 1.391 . S
C183 C182 1.391 . S
C183 C184 1.392 . S
C183 H212 0.947 . S
C184 C183 1.392 . S
C184 C185 1.419 . S
C184 H213 0.948 . S
C185 C184 1.419 . S
C185 C186 1.391 . S
C185 C189 1.397 . S
C186 C181 1.391 . S
C186 C185 1.391 . S
C186 C187 1.399 . S
C187 C186 1.399 . S
C187 C188 1.396 . S
C187 C190 1.453 . S
C187 C191 1.684 . S
C188 C169 1.723 . S
C188 C187 1.396 . S
C188 C189 1.394 . S
C189 C185 1.397 . S
C189 C188 1.394 . S
C189 C199 1.723 . S
C190 C187 1.453 . S
C190 H214 0.982 . S
C190 H215 0.979 . S
C190 H216 0.977 . S
C191 C187 1.684 . S
C191 H217 0.979 . S
C191 H218 0.980 . S
C191 H219 0.983 . S
C192 H168 0.948 . S
C192 C193 1.391 1_556 S
C192 C197 1.391 . S
C193 C192 1.391 1_554 S
C193 C194 1.391 . S
C194 H171 0.947 . S
C194 C193 1.391 . S
C194 C195 1.392 . S
C195 H172 0.948 . S
C195 C194 1.392 . S
C195 C196 1.419 1_554 S
C196 C195 1.419 1_556 S
C196 C197 1.391 . S
C196 C200 1.397 . S
C197 C192 1.391 . S
C197 C196 1.391 . S
C197 C198 1.399 . S
C198 C197 1.399 . S
C198 C199 1.396 . S
C198 C201 1.453 . S
C198 C202 1.684 . S
C199 C189 1.723 . S
C199 C198 1.396 . S
C199 C200 1.394 . S
C200 C170 1.723 . S
C200 C196 1.397 . S
C200 C199 1.394 . S
C201 H173 0.982 . S
C201 H177 0.979 . S
C201 H178 0.977 . S
C201 C198 1.453 . S
C202 H174 0.979 . S
C202 H175 0.980 . S
C202 H176 0.983 . S
C202 C198 1.684 . S
H203 C221 0.948 . S
H204 C162 0.948 1_554 S
H205 C180 0.979 . S
H206 C180 0.980 . S
H207 C180 0.983 . S
H208 C179 0.982 . S
H209 C179 0.979 . S
H210 C179 0.977 . S
H211 C181 0.948 . S
H212 C183 0.947 . S
H213 C184 0.948 . S
H214 C190 0.982 . S
H215 C190 0.979 . S
H216 C190 0.977 . S
H217 C191 0.979 . S
H218 C191 0.980 . S
H219 C191 0.983 . S
H220 C164 0.947 . S
C221 C164 1.392 . S
C221 C165 1.419 . S
C221 H203 0.948 . S
C222 C223 1.391 . S
C222 C226 1.391 . S
C222 H264 0.948 1_554 S
C223 C222 1.391 . S
C223 C224 1.391 . S
C224 C223 1.391 . S
C224 H280 0.947 . S
C224 C281 1.392 . S
C225 C226 1.391 . S
C225 C229 1.397 . S
C225 C281 1.419 . S
C226 C222 1.391 . S
C226 C225 1.391 . S
C226 C227 1.399 . S
C227 C226 1.399 . S
C227 C230 1.396 . S
C227 C239 1.453 1_554 S
C227 C240 1.684 1_554 S
H228 C252 0.948 . S
C229 C225 1.397 . S
C229 C230 1.394 . S
C229 C248 1.723 . S
C230 C227 1.396 . S
C230 C229 1.394 . S
C230 C260 1.723 . S
H231 C254 0.947 . S
H232 C255 0.948 1_556 S
H233 C261 0.982 . S
H234 C262 0.979 . S
H235 C262 0.980 . S
H236 C262 0.983 . S
H237 C261 0.979 . S
H238 C261 0.977 . S
C239 C227 1.453 1_556 S
C239 H268 0.982 1_556 S
C239 H269 0.979 . S
C239 H270 0.977 . S
C240 C227 1.684 1_556 S
C240 H265 0.979 . S
C240 H266 0.980 . S
C240 H267 0.983 . S
C241 C242 1.391 . S
C241 C246 1.391 . S
C241 H271 0.948 . S
C242 C241 1.391 . S
C242 C243 1.391 . S
C243 C242 1.391 . S
C243 C244 1.392 . S
C243 H272 0.947 . S
C244 C243 1.392 . S
C244 C245 1.419 . S
C244 H273 0.948 . S
C245 C244 1.419 . S
C245 C246 1.391 . S
C245 C249 1.397 . S
C246 C241 1.391 . S
C246 C245 1.391 . S
C246 C247 1.399 . S
C247 C246 1.399 . S
C247 C248 1.396 . S
C247 C250 1.453 . S
C247 C251 1.684 . S
C248 C229 1.723 . S
C248 C247 1.396 . S
C248 C249 1.394 . S
C249 C245 1.397 . S
C249 C248 1.394 . S
C249 C259 1.723 . S
C250 C247 1.453 . S
C250 H274 0.982 . S
C250 H275 0.979 . S
C250 H276 0.977 . S
C251 C247 1.684 . S
C251 H277 0.979 . S
C251 H278 0.980 . S
C251 H279 0.983 . S
C252 H228 0.948 . S
C252 C253 1.391 . S
C252 C257 1.391 . S
C253 C252 1.391 . S
C253 C254 1.391 1_554 S
C254 H231 0.947 . S
C254 C253 1.391 1_556 S
C254 C255 1.392 1_556 S
C255 H232 0.948 1_554 S
C255 C254 1.392 1_554 S
C255 C256 1.419 . S
C256 C255 1.419 . S
C256 C257 1.391 . S
C256 C260 1.397 . S
C257 C252 1.391 . S
C257 C256 1.391 . S
C257 C258 1.399 . S
C258 C257 1.399 . S
C258 C259 1.396 . S
C258 C261 1.453 . S
C258 C262 1.684 . S
C259 C249 1.723 . S
C259 C258 1.396 . S
C259 C260 1.394 . S
C260 C230 1.723 . S
C260 C256 1.397 . S
C260 C259 1.394 . S
C261 H233 0.982 . S
C261 H237 0.979 . S
C261 H238 0.977 . S
C261 C258 1.453 . S
C262 H234 0.979 . S
C262 H235 0.980 . S
C262 H236 0.983 . S
C262 C258 1.684 . S
H263 C281 0.948 . S
H264 C222 0.948 1_556 S
H265 C240 0.979 . S
H266 C240 0.980 . S
H267 C240 0.983 . S
H268 C239 0.982 1_554 S
H269 C239 0.979 . S
H270 C239 0.977 . S
H271 C241 0.948 . S
H272 C243 0.947 . S
H273 C244 0.948 . S
H274 C250 0.982 . S
H275 C250 0.979 . S
H276 C250 0.977 . S
H277 C251 0.979 . S
H278 C251 0.980 . S
H279 C251 0.983 . S
H280 C224 0.947 . S
C281 C224 1.392 . S
C281 C225 1.419 . S
C281 H263 0.948 . S
C282 C283 1.363 . S
C282 C288 1.379 . S
C282 N290 1.356 . S
C283 C282 1.363 . S
C283 C289 1.363 1_554 S
C284 C285 1.363 1_556 S
C284 C289 1.379 . S
C284 N291 1.356 . S
C285 C284 1.363 1_554 S
C285 C288 1.363 . S
N286 C288 1.356 . S
N286 H298 0.984 . S
N286 H299 0.985 . S
N287 C289 1.356 . S
N287 H292 0.984 . S
N287 H293 0.985 . S
C288 C282 1.379 . S
C288 C285 1.363 . S
C288 N286 1.356 . S
C289 C283 1.363 1_556 S
C289 C284 1.379 . S
C289 N287 1.356 . S
N290 C282 1.356 . S
N290 H296 0.984 . S
N290 H297 0.984 . S
N291 C284 1.356 . S
N291 H294 0.984 . S
N291 H295 0.985 . S
H292 N287 0.984 . S
H293 N287 0.985 . S
H294 N291 0.984 . S
H295 N291 0.985 . S
H296 N290 0.984 . S
H297 N290 0.984 . S
H298 N286 0.984 . S
H299 N286 0.985 . S
C300 C301 1.363 . S
C300 C306 1.379 . S
C300 N308 1.356 . S
C301 C300 1.363 . S
C301 C307 1.363 1_554 S
C302 C303 1.363 1_556 S
C302 C307 1.379 . S
C302 N309 1.356 . S
C303 C302 1.363 1_554 S
C303 C306 1.363 . S
N304 C306 1.356 . S
N304 H316 0.984 . S
N304 H317 0.985 . S
N305 C307 1.356 . S
N305 H310 0.984 . S
N305 H311 0.985 . S
C306 C300 1.379 . S
C306 C303 1.363 . S
C306 N304 1.356 . S
C307 C301 1.363 1_556 S
C307 C302 1.379 . S
C307 N305 1.356 . S
N308 C300 1.356 . S
N308 H314 0.984 . S
N308 H315 0.984 . S
N309 C302 1.356 . S
N309 H312 0.984 . S
N309 H313 0.985 . S
H310 N305 0.984 . S
H311 N305 0.985 . S
H312 N309 0.984 . S
H313 N309 0.985 . S
H314 N308 0.984 . S
H315 N308 0.984 . S
H316 N304 0.984 . S
H317 N304 0.985 . S
C318 C319 1.363 1_556 S
C318 C324 1.379 . S
C318 N326 1.356 . S
C319 C318 1.363 1_554 S
C319 C325 1.363 . S
C320 C321 1.363 . S
C320 C325 1.379 . S
C320 N327 1.356 . S
C321 C320 1.363 . S
C321 C324 1.363 1_554 S
N322 C324 1.356 . S
N322 H334 0.984 . S
N322 H335 0.985 . S
N323 C325 1.356 . S
N323 H328 0.984 . S
N323 H329 0.985 . S
C324 C318 1.379 . S
C324 C321 1.363 1_556 S
C324 N322 1.356 . S
C325 C319 1.363 . S
C325 C320 1.379 . S
C325 N323 1.356 . S
N326 C318 1.356 . S
N326 H332 0.984 . S
N326 H333 0.984 . S
N327 C320 1.356 . S
N327 H330 0.984 . S
N327 H331 0.985 . S
H328 N323 0.984 . S
H329 N323 0.985 . S
H330 N327 0.984 . S
H331 N327 0.985 . S
H332 N326 0.984 . S
H333 N326 0.984 . S
H334 N322 0.984 . S
H335 N322 0.985 . S
C336 C337 1.363 1_554 S
C336 C342 1.379 . S
C336 N344 1.356 . S
C337 C336 1.363 1_556 S
C337 C343 1.363 . S
C338 C339 1.363 . S
C338 C343 1.379 . S
C338 N345 1.356 . S
C339 C338 1.363 . S
C339 C342 1.363 1_556 S
N340 C342 1.356 . S
N340 H352 0.984 . S
N340 H353 0.985 . S
N341 C343 1.356 . S
N341 H346 0.984 . S
N341 H347 0.985 . S
C342 C336 1.379 . S
C342 C339 1.363 1_554 S
C342 N340 1.356 . S
C343 C337 1.363 . S
C343 C338 1.379 . S
C343 N341 1.356 . S
N344 C336 1.356 . S
N344 H350 0.984 . S
N344 H351 0.984 . S
N345 C338 1.356 . S
N345 H348 0.984 . S
N345 H349 0.985 . S
H346 N341 0.984 . S
H347 N341 0.985 . S
H348 N345 0.984 . S
H349 N345 0.985 . S
H350 N344 0.984 . S
H351 N344 0.984 . S
H352 N340 0.984 . S
H353 N340 0.985 . S
C354 C355 1.363 . S
C354 C360 1.379 . S
C354 N362 1.356 . S
C355 C354 1.363 . S
C355 C361 1.363 . S
C356 C357 1.363 . S
C356 C361 1.379 . S
C356 N363 1.356 . S
C357 C356 1.363 . S
C357 C360 1.363 . S
N358 C360 1.356 . S
N358 H370 0.984 . S
N358 H371 0.985 . S
N359 C361 1.356 . S
N359 H364 0.984 . S
N359 H365 0.985 . S
C360 C354 1.379 . S
C360 C357 1.363 . S
C360 N358 1.356 . S
C361 C355 1.363 . S
C361 C356 1.379 . S
C361 N359 1.356 . S
N362 C354 1.356 . S
N362 H368 0.984 . S
N362 H369 0.984 . S
N363 C356 1.356 . S
N363 H366 0.984 . S
N363 H367 0.985 . S
H364 N359 0.984 . S
H365 N359 0.985 . S
H366 N363 0.984 . S
H367 N363 0.985 . S
H368 N362 0.984 . S
H369 N362 0.984 . S
H370 N358 0.984 . S
H371 N358 0.985 . S
C372 C373 1.363 . S
C372 C378 1.379 . S
C372 N380 1.356 . S
C373 C372 1.363 . S
C373 C379 1.363 . S
C374 C375 1.363 . S
C374 C379 1.379 . S
C374 N381 1.356 . S
C375 C374 1.363 . S
C375 C378 1.363 . S
N376 C378 1.356 . S
N376 H388 0.984 . S
N376 H389 0.985 . S
N377 C379 1.356 . S
N377 H382 0.984 . S
N377 H383 0.985 . S
C378 C372 1.379 . S
C378 C375 1.363 . S
C378 N376 1.356 . S
C379 C373 1.363 . S
C379 C374 1.379 . S
C379 N377 1.356 . S
N380 C372 1.356 . S
N380 H386 0.984 . S
N380 H387 0.984 . S
N381 C374 1.356 . S
N381 H384 0.984 . S
N381 H385 0.985 . S
H382 N377 0.984 . S
H383 N377 0.985 . S
H384 N381 0.984 . S
H385 N381 0.985 . S
H386 N380 0.984 . S
H387 N380 0.984 . S
H388 N376 0.984 . S
H389 N376 0.985 . S
C390 C391 1.363 . S
C390 C396 1.379 . S
C390 N398 1.356 . S
C391 C390 1.363 . S
C391 C397 1.363 . S
C392 C393 1.363 . S
C392 C397 1.379 . S
C392 N399 1.356 . S
C393 C392 1.363 . S
C393 C396 1.363 . S
N394 C396 1.356 . S
N394 H406 0.984 . S
N394 H407 0.985 . S
N395 C397 1.356 . S
N395 H400 0.984 . S
N395 H401 0.985 . S
C396 C390 1.379 . S
C396 C393 1.363 . S
C396 N394 1.356 . S
C397 C391 1.363 . S
C397 C392 1.379 . S
C397 N395 1.356 . S
N398 C390 1.356 . S
N398 H404 0.984 . S
N398 H405 0.984 . S
N399 C392 1.356 . S
N399 H402 0.984 . S
N399 H403 0.985 . S
H400 N395 0.984 . S
H401 N395 0.985 . S
H402 N399 0.984 . S
H403 N399 0.985 . S
H404 N398 0.984 . S
H405 N398 0.984 . S
H406 N394 0.984 . S
H407 N394 0.985 . S
C408 C409 1.363 . S
C408 C414 1.379 . S
C408 N416 1.356 . S
C409 C408 1.363 . S
C409 C415 1.363 . S
C410 C411 1.363 . S
C410 C415 1.379 . S
C410 N417 1.356 . S
C411 C410 1.363 . S
C411 C414 1.363 . S
N412 C414 1.356 . S
N412 H424 0.984 . S
N412 H425 0.985 . S
N413 C415 1.356 . S
N413 H418 0.984 . S
N413 H419 0.985 . S
C414 C408 1.379 . S
C414 C411 1.363 . S
C414 N412 1.356 . S
C415 C409 1.363 . S
C415 C410 1.379 . S
C415 N413 1.356 . S
N416 C408 1.356 . S
N416 H422 0.984 . S
N416 H423 0.984 . S
N417 C410 1.356 . S
N417 H420 0.984 . S
N417 H421 0.985 . S
H418 N413 0.984 . S
H419 N413 0.985 . S
H420 N417 0.984 . S
H421 N417 0.985 . S
H422 N416 0.984 . S
H423 N416 0.984 . S
H424 N412 0.984 . S
H425 N412 0.985 . S
C426 C427 1.363 1_565 S
C426 C432 1.379 . S
C426 N434 1.356 1_455 S
C427 C426 1.363 1_545 S
C427 C433 1.363 . S
C428 C429 1.363 1_545 S
C428 C433 1.379 . S
C428 N435 1.356 . S
C429 C428 1.363 1_565 S
C429 C432 1.363 . S
N430 C432 1.356 1_655 S
N430 H442 0.984 . S
N430 H443 0.985 . S
N431 C433 1.356 . S
N431 H436 0.984 . S
N431 H437 0.985 . S
C432 C426 1.379 . S
C432 C429 1.363 . S
C432 N430 1.356 1_455 S
C433 C427 1.363 . S
C433 C428 1.379 . S
C433 N431 1.356 . S
N434 C426 1.356 1_655 S
N434 H440 0.984 . S
N434 H441 0.986 . S
N435 C428 1.356 . S
N435 H438 0.984 . S
N435 H439 0.985 . S
H436 N431 0.984 . S
H437 N431 0.985 . S
H438 N435 0.984 . S
H439 N435 0.985 . S
H440 N434 0.984 . S
H441 N434 0.986 . S
H442 N430 0.984 . S
H443 N430 0.985 . S
C444 C445 1.363 . S
C444 C450 1.379 . S
C444 N452 1.356 1_545 S
C445 C444 1.363 . S
C445 C451 1.363 1_455 S
C446 C447 1.363 1_655 S
C446 C451 1.379 . S
C446 N453 1.356 . S
C447 C446 1.363 1_455 S
C447 C450 1.363 . S
N448 C450 1.356 . S
N448 H460 0.984 . S
N448 H461 0.985 . S
N449 C451 1.356 . S
N449 H454 0.984 . S
N449 H455 0.985 . S
C450 C444 1.379 . S
C450 C447 1.363 . S
C450 N448 1.356 . S
C451 C445 1.363 1_655 S
C451 C446 1.379 . S
C451 N449 1.356 . S
N452 C444 1.356 1_565 S
N452 H458 0.984 . S
N452 H459 0.984 . S
N453 C446 1.356 . S
N453 H456 0.984 . S
N453 H457 0.985 . S
H454 N449 0.984 . S
H455 N449 0.985 . S
H456 N453 0.984 . S
H457 N453 0.985 . S
H458 N452 0.984 . S
H459 N452 0.984 . S
H460 N448 0.984 . S
H461 N448 0.985 . S
C462 C463 1.363 . S
C462 C468 1.379 . S
C462 N470 1.356 . S
C463 C462 1.363 . S
C463 C469 1.363 . S
C464 C465 1.363 . S
C464 C469 1.379 . S
C464 N471 1.356 . S
C465 C464 1.363 . S
C465 C468 1.363 . S
N466 C468 1.356 . S
N466 H478 0.984 . S
N466 H479 0.985 . S
N467 C469 1.356 . S
N467 H472 0.984 . S
N467 H473 0.985 . S
C468 C462 1.379 . S
C468 C465 1.363 . S
C468 N466 1.356 . S
C469 C463 1.363 . S
C469 C464 1.379 . S
C469 N467 1.356 . S
N470 C462 1.356 . S
N470 H476 0.984 . S
N470 H477 0.984 . S
N471 C464 1.356 . S
N471 H474 0.984 . S
N471 H475 0.985 . S
H472 N467 0.984 . S
H473 N467 0.985 . S
H474 N471 0.984 . S
H475 N471 0.985 . S
H476 N470 0.984 . S
H477 N470 0.984 . S
H478 N466 0.984 . S
H479 N466 0.985 . S
C480 C481 1.363 . S
C480 C486 1.379 . S
C480 N488 1.356 . S
C481 C480 1.363 . S
C481 C487 1.363 . S
C482 C483 1.363 . S
C482 C487 1.379 . S
C482 N489 1.356 . S
C483 C482 1.363 . S
C483 C486 1.363 . S
N484 C486 1.356 . S
N484 H496 0.984 . S
N484 H497 0.985 . S
N485 C487 1.356 . S
N485 H490 0.984 . S
N485 H491 0.985 . S
C486 C480 1.379 . S
C486 C483 1.363 . S
C486 N484 1.356 . S
C487 C481 1.363 . S
C487 C482 1.379 . S
C487 N485 1.356 . S
N488 C480 1.356 . S
N488 H494 0.984 . S
N488 H495 0.984 . S
N489 C482 1.356 . S
N489 H492 0.984 . S
N489 H493 0.985 . S
H490 N485 0.984 . S
H491 N485 0.985 . S
H492 N489 0.984 . S
H493 N489 0.985 . S
H494 N488 0.984 . S
H495 N488 0.984 . S
H496 N484 0.984 . S
H497 N484 0.985 . S
C285 C253 1.618 . S
C283 C16 1.507 . S
C301 C15 1.618 . S
C303 C193 1.635 . S
C319 C13 1.319 . S
C321 C223 1.466 . S
C337 C14 1.418 . S
C339 C163 1.377 . S
C355 C37 1.507 . S
C357 C133 1.619 . S
C373 C36 1.618 . S
C375 C73 1.635 . S
C393 C103 1.466 . S
C391 C34 1.307 . S
C411 C43 1.377 . S
C409 C35 1.418 . S
C427 C17 1.521 . S
C429 C62 1.524 . S
C445 C18 1.409 . S
C447 C122 1.436 1_455 S
C465 C182 1.524 . S
C463 C38 1.521 . S
C481 C39 1.409 . S
C483 C242 1.437 . S
