# Generated by pormake.
# Topology tsx, (6,3)-cn, num edge types: 1
# Building blocks:
#     Node 0, Type 0, BuildingBlock: FUNLAD_clean_sbu_0, # of connection points: 6
#     Node 1, Type 0, BuildingBlock: FUNLAD_clean_sbu_0, # of connection points: 6
#     Node 2, Type 1, BuildingBlock: BETDAH_clean_linker_0, # of connection points: 3
#     Node 3, Type 1, BuildingBlock: BETDAH_clean_linker_0, # of connection points: 3
#     Node 4, Type 1, BuildingBlock: BETDAH_clean_linker_0, # of connection points: 3
#     Node 5, Type 1, BuildingBlock: BETDAH_clean_linker_0, # of connection points: 3
#     Edge 6, Type (0, 1), BuildingBlock: CIFDUS_clean_linker_0, # of connection points: 2
#     Edge 7, Type (0, 1), BuildingBlock: CIFDUS_clean_linker_0, # of connection points: 2
#     Edge 8, Type (0, 1), BuildingBlock: CIFDUS_clean_linker_0, # of connection points: 2
#     Edge 9, Type (0, 1), BuildingBlock: CIFDUS_clean_linker_0, # of connection points: 2
#     Edge 10, Type (0, 1), BuildingBlock: CIFDUS_clean_linker_0, # of connection points: 2
#     Edge 11, Type (0, 1), BuildingBlock: CIFDUS_clean_linker_0, # of connection points: 2
#     Edge 12, Type (0, 1), BuildingBlock: CIFDUS_clean_linker_0, # of connection points: 2
#     Edge 13, Type (0, 1), BuildingBlock: CIFDUS_clean_linker_0, # of connection points: 2
#     Edge 14, Type (0, 1), BuildingBlock: CIFDUS_clean_linker_0, # of connection points: 2
#     Edge 15, Type (0, 1), BuildingBlock: CIFDUS_clean_linker_0, # of connection points: 2
#     Edge 16, Type (0, 1), BuildingBlock: CIFDUS_clean_linker_0, # of connection points: 2
#     Edge 17, Type (0, 1), BuildingBlock: CIFDUS_clean_linker_0, # of connection points: 2
# Relax obj value: 0.109
# Max RMSD: 0.113
# Mean RMSD: 0.110
data_MOF--net-tsx--node1-FUNLAD_clean_sbu_0--node2-BETDAH_clean_linker_0--edge1-CIFDUS_clean_linker_0
_symmetry_space_group_name_H-M    P1
_symmetry_Int_Tables_number       1
_symmetry_cell_setting            triclinic
loop_
_symmetry_equiv_pos_as_xyz
'x, y, z'
_cell_length_a     17.121616
_cell_length_b     18.700513
_cell_length_c     35.716586
_cell_angle_alpha  90.845776
_cell_angle_beta   101.34061
_cell_angle_gamma 89.822192
loop_
_atom_site_label
_atom_site_type_symbol
_atom_site_fract_x
_atom_site_fract_y
_atom_site_fract_z
_atom_type_partial_charge
C0 C 0.95234 0.89512 0.98646 0.0
N1 N 0.07923 0.99345 0.08424 0.0
C2 C 0.00795 0.00298 0.09497 0.0
C3 C 0.00365 0.00927 0.1333 0.0
C4 C 0.07289 0.00265 0.16162 0.0
C5 C 0.14573 0.99027 0.14977 0.0
C6 C 0.14766 0.98666 0.11073 0.0
Zn7 Zn 0.07612 0.99643 0.0267 0.0
C8 C 0.18429 0.89577 -0.00291 0.0
N9 N 0.05435 0.00971 0.90654 0.0
C10 C 0.98146 0.0133 0.88324 0.0
C11 C 0.12245 0.01774 0.89277 0.0
C12 C 0.11871 0.03202 0.85424 0.0
C13 C 0.04417 0.03837 0.82984 0.0
C14 C 0.97497 0.0277 0.84461 0.0
Zn15 Zn 0.06098 0.00261 0.96368 0.0
O16 O 0.98748 0.91948 0.01863 0.0
C17 C 0.95466 0.1052 -0.00991 0.0
O18 O 0.97118 0.91915 0.9562 0.0
H19 H 0.17976 0.01508 0.91191 0.0
H20 H 0.95383 0.00728 0.0737 0.0
H21 H 0.92818 0.00686 0.89485 0.0
O22 O 0.98721 0.08005 0.02224 0.0
O23 O 0.97404 0.0809 0.96001 0.0
H24 H 0.20377 0.97907 0.1016 0.0
O25 O 0.14904 0.08486 0.97279 0.0
O26 O 0.16524 0.07414 0.03491 0.0
O27 O 0.14941 0.92581 0.96677 0.0
O28 O 0.16514 0.91269 0.02886 0.0
C29 C 0.18359 0.1042 0.00621 0.0
H30 H 0.9462 0.02074 0.1403 0.0
H31 H 0.20074 0.98339 0.17027 0.0
H32 H 0.17338 0.03999 0.84391 0.0
H33 H 0.91638 0.03069 0.8265 0.0
C34 C 0.36252 0.41351 0.47844 0.0
N35 N 0.46949 0.52351 0.5777 0.0
C36 C 0.39826 0.52337 0.58917 0.0
C37 C 0.3955 0.52298 0.62797 0.0
C38 C 0.46675 0.52225 0.65531 0.0
C39 C 0.53942 0.52199 0.64256 0.0
C40 C 0.53941 0.52287 0.60349 0.0
Zn41 Zn 0.47095 0.5266 0.52073 0.0
C42 C 0.59246 0.42862 0.49727 0.0
N43 N 0.46924 0.53149 0.40147 0.0
C44 C 0.40199 0.52283 0.37436 0.0
C45 C 0.53892 0.55192 0.39198 0.0
C46 C 0.54205 0.56804 0.3544 0.0
C47 C 0.47362 0.56023 0.32558 0.0
C48 C 0.40313 0.53592 0.33605 0.0
Zn49 Zn 0.46688 0.52448 0.45819 0.0
O50 O 0.38883 0.44307 0.51066 0.0
C51 C 0.34277 0.61895 0.4782 0.0
O52 O 0.38588 0.4359 0.44897 0.0
H53 H 0.59217 0.55775 0.41377 0.0
H54 H 0.34333 0.52384 0.56818 0.0
H55 H 0.34709 0.50681 0.38252 0.0
O56 O 0.37452 0.60329 0.51237 0.0
O57 O 0.37123 0.59305 0.45079 0.0
H58 H 0.59534 0.52297 0.59374 0.0
O59 O 0.54675 0.61281 0.46897 0.0
O60 O 0.55323 0.6105 0.53077 0.0
O61 O 0.56179 0.45469 0.46519 0.0
O62 O 0.56641 0.44843 0.52689 0.0
C63 C 0.57468 0.6377 0.50211 0.0
H64 H 0.33812 0.5239 0.6364 0.0
H65 H 0.59585 0.52001 0.66251 0.0
H66 H 0.59761 0.58771 0.34844 0.0
H67 H 0.34917 0.52691 0.31503 0.0
H68 H 0.08621 0.93388 0.38117 0.0
H69 H 0.86913 0.05499 0.37088 0.0
H70 H 0.95406 0.93222 0.47151 0.0
C71 C 0.03732 0.95416 0.39352 0.0
C72 C 0.02858 0.93041 0.42952 0.0
C73 C 0.97972 0.99825 0.37189 0.0
C74 C 0.91506 0.02215 0.38759 0.0
C75 C 0.90668 0.99933 0.42385 0.0
C76 C 0.96289 0.95283 0.44448 0.0
N77 N 0.83784 0.01666 0.43827 0.0
C78 C 0.81417 0.08676 0.44239 0.0
H79 H 0.92161 0.93307 0.62507 0.0
H80 H 0.05072 0.10015 0.58338 0.0
H81 H 0.85976 0.99283 0.50755 0.0
C82 C 0.9312 0.96553 0.60147 0.0
C83 C 0.88384 0.95553 0.56513 0.0
C84 C 0.99036 0.01817 0.60802 0.0
C85 C 0.00513 0.05951 0.57779 0.0
C86 C 0.95913 0.04896 0.54089 0.0
C87 C 0.89757 0.99852 0.53528 0.0
N88 N 0.97205 0.08826 0.50894 0.0
C89 C 0.03685 0.13292 0.5094 0.0
H90 H 0.66336 0.43983 0.87027 0.0
H91 H 0.45682 0.54295 0.89789 0.0
H92 H 0.60048 0.40683 0.97931 0.0
C93 C 0.62649 0.45151 0.89102 0.0
C94 C 0.64204 0.41823 0.92673 0.0
C95 C 0.56032 0.49666 0.88061 0.0
C96 C 0.50908 0.50965 0.90622 0.0
C97 C 0.52395 0.47665 0.94196 0.0
C98 C 0.58967 0.43131 0.9517 0.0
N99 N 0.47123 0.48337 0.96781 0.0
C100 C 0.43225 0.54595 0.9746 0.0
H101 H 0.44221 0.45874 0.12598 0.0
H102 H 0.62605 0.59047 0.09674 0.0
H103 H 0.54028 0.40583 0.02791 0.0
C104 C 0.48169 0.47133 0.1067 0.0
C105 C 0.4833 0.42663 0.07515 0.0
C106 C 0.53423 0.52937 0.11511 0.0
C107 C 0.58523 0.54593 0.09008 0.0
C108 C 0.5853 0.50267 0.05748 0.0
C109 C 0.5365 0.44199 0.05127 0.0
N110 N 0.6351 0.51665 0.031 0.0
C111 C 0.67584 0.58023 0.02935 0.0
H112 H 0.27363 0.14989 0.07315 0.0
H113 H 0.22329 0.19209 0.95224 0.0
H114 H 0.31247 0.29543 0.96291 0.0
H115 H 0.40014 0.37645 0.00702 0.0
H116 H 0.45216 0.33155 0.12761 0.0
H117 H 0.36547 0.22709 0.11659 0.0
C118 C 0.28235 0.18141 0.04904 0.0
C119 C 0.24161 0.16352 0.01199 0.0
C120 C 0.33323 0.24068 0.05536 0.0
C121 C 0.25398 0.20473 0.98108 0.0
C122 C 0.30472 0.26394 0.98715 0.0
C123 C 0.3932 0.34334 0.03081 0.0
C124 C 0.43197 0.3622 0.06811 0.0
C125 C 0.34403 0.28277 0.02424 0.0
C126 C 0.42171 0.31913 0.09871 0.0
C127 C 0.37267 0.25905 0.09242 0.0
H128 H 0.22421 0.77552 0.03985 0.0
H129 H 0.27959 0.89334 0.94542 0.0
H130 H 0.36474 0.79658 0.93098 0.0
H131 H 0.41498 0.67398 0.94146 0.0
H132 H 0.35914 0.55345 0.03449 0.0
H133 H 0.28316 0.65488 0.0533 0.0
C134 C 0.25627 0.78033 0.01667 0.0
C135 C 0.24524 0.84123 -0.00637 0.0
C136 C 0.30417 0.72343 0.00787 0.0
C137 C 0.28659 0.84666 0.96341 0.0
C138 C 0.3352 0.79129 0.955 0.0
C139 C 0.38637 0.6705 0.96593 0.0
C140 C 0.39114 0.60699 0.98638 0.0
C141 C 0.34281 0.7287 0.97636 0.0
C142 C 0.35495 0.60229 0.01823 0.0
C143 C 0.3118 0.66016 0.02899 0.0
H144 H 0.88754 0.85378 0.04551 0.0
H145 H 0.88212 0.80797 0.92622 0.0
H146 H 0.79185 0.707 0.92858 0.0
H147 H 0.72082 0.62761 0.96615 0.0
H148 H 0.73103 0.67448 0.08553 0.0
H149 H 0.81366 0.77958 0.08167 0.0
C150 C 0.86661 0.82203 0.01985 0.0
C151 C 0.89223 0.838 0.98577 0.0
C152 C 0.81595 0.76416 0.0216 0.0
C153 C 0.86345 0.79674 0.95279 0.0
C154 C 0.81214 0.73889 0.95421 0.0
C155 C 0.74095 0.66147 -0.0089 0.0
C156 C 0.72054 0.64412 0.02611 0.0
C157 C 0.78901 0.72147 -0.01136 0.0
C158 C 0.74633 0.68744 0.0584 0.0
C159 C 0.79352 0.74727 0.05617 0.0
H160 H 0.95116 0.22455 0.94914 0.0
H161 H 0.8246 0.1122 0.02323 0.0
H162 H 0.71537 0.19923 0.00977 0.0
H163 H 0.65288 0.30055 0.9729 0.0
H164 H 0.78789 0.42213 0.90527 0.0
H165 H 0.89621 0.33626 0.91934 0.0
C166 C 0.89996 0.21993 0.96268 0.0
C167 C 0.89495 0.16233 0.98685 0.0
C168 C 0.83866 0.27064 0.95538 0.0
C169 C 0.8293 0.1566 0.00465 0.0
C170 C 0.76688 0.20593 -0.00327 0.0
C171 C 0.7065 0.31014 0.96195 0.0
C172 C 0.71075 0.36805 0.93746 0.0
C173 C 0.77046 0.26247 0.97161 0.0
C174 C 0.78097 0.37723 0.92311 0.0
C175 C 0.8437 0.32854 0.93153 0.0
H176 H 0.61292 0.72675 0.56336 0.0
H177 H 0.66633 0.68077 0.4523 0.0
H178 H 0.76663 0.77545 0.46197 0.0
H179 H 0.84193 0.86808 0.50285 0.0
H180 H 0.78235 0.91913 0.61223 0.0
H181 H 0.6824 0.82462 0.60251 0.0
C182 C 0.64649 0.73755 0.54127 0.0
C183 C 0.63275 0.69669 0.50732 0.0
C184 C 0.70324 0.79247 0.5468 0.0
C185 C 0.67588 0.71168 0.47871 0.0
C186 C 0.73332 0.76561 0.48424 0.0
C187 C 0.8063 0.85943 0.52434 0.0
C188 C 0.82032 0.90033 0.55837 0.0
C189 C 0.74773 0.80606 0.51826 0.0
C190 C 0.77418 0.88747 0.58612 0.0
C191 C 0.71654 0.83378 0.58049 0.0
H192 H 0.673 0.39374 0.44195 0.0
H193 H 0.6408 0.33019 0.55361 0.0
H194 H 0.71428 0.21923 0.54753 0.0
H195 H 0.77286 0.13415 0.50677 0.0
H196 H 0.79745 0.19676 0.39407 0.0
H197 H 0.74106 0.31459 0.40399 0.0
C198 C 0.68292 0.35616 0.46527 0.0
C199 C 0.65055 0.3697 0.498 0.0
C200 C 0.7227 0.29199 0.46102 0.0
C201 C 0.66503 0.32098 0.52813 0.0
C202 C 0.70637 0.25728 0.52449 0.0
C203 C 0.7664 0.17424 0.4847 0.0
C204 C 0.78796 0.15771 0.44964 0.0
C205 C 0.73301 0.24122 0.49052 0.0
C206 C 0.78038 0.20907 0.42111 0.0
C207 C 0.74832 0.27611 0.42682 0.0
H208 H 0.32415 0.34385 0.53767 0.0
H209 H 0.26794 0.35277 0.41461 0.0
H210 H 0.16253 0.26349 0.41318 0.0
H211 H 0.08188 0.1875 0.44779 0.0
H212 H 0.13953 0.18315 0.57081 0.0
H213 H 0.24909 0.26633 0.57146 0.0
C214 C 0.28919 0.32626 0.5104 0.0
C215 C 0.30343 0.35533 0.47629 0.0
C216 C 0.22875 0.27599 0.5099 0.0
C217 C 0.2581 0.33118 0.44127 0.0
C218 C 0.19768 0.28042 0.44048 0.0
C219 C 0.119 0.20482 0.47459 0.0
C220 C 0.10316 0.17987 0.50923 0.0
C221 C 0.18176 0.25323 0.47469 0.0
C222 C 0.15088 0.20189 0.54388 0.0
C223 C 0.21345 0.24946 0.54425 0.0
H224 H 0.2986 0.73214 0.51938 0.0
H225 H 0.22785 0.60748 0.41555 0.0
H226 H 0.11959 0.69 0.39323 0.0
H227 H 0.05351 0.80298 0.39973 0.0
H228 H 0.12207 0.93263 0.50143 0.0
H229 H 0.22204 0.84274 0.52844 0.0
C230 C 0.25846 0.72276 0.49224 0.0
C231 C 0.2717 0.66461 0.46886 0.0
C232 C 0.19666 0.77158 0.47905 0.0
C233 C 0.21951 0.65264 0.43374 0.0
C234 C 0.15754 0.69969 0.42091 0.0
C235 C 0.09016 0.81119 0.42793 0.0
C236 C 0.08224 0.87429 0.44837 0.0
C237 C 0.14716 0.76026 0.44275 0.0
C238 C 0.12824 0.88425 0.48519 0.0
C239 C 0.18529 0.83311 0.50048 0.0
H240 H 0.94825 0.96647 0.19524 0.0
H241 H 0.1867 0.05376 0.22185 0.0
H242 H 0.17777 0.06354 0.28899 0.0
H243 H 0.10261 0.04522 0.34056 0.0
H244 H 0.86057 0.96864 0.31186 0.0
H245 H 0.86901 0.9613 0.2445 0.0
C246 C -0.0021 0.98962 0.2152 0.0
C247 C 0.06814 0.00919 0.20289 0.0
C248 C 0.99118 0.99831 0.25345 0.0
C249 C 0.13235 0.03654 0.23015 0.0
C250 C 0.127 0.04315 0.26864 0.0
C251 C 0.05141 0.02825 0.31934 0.0
C252 C 0.98098 0.00778 0.331 0.0
C253 C 0.05675 0.024 0.28061 0.0
C254 C 0.91494 0.98572 0.30344 0.0
C255 C 0.9201 0.98064 0.26502 0.0
H256 H 0.13053 0.98169 0.78047 0.0
H257 H 0.94376 0.13359 0.78794 0.0
H258 H 0.92107 0.15098 0.71906 0.0
H259 H 0.94187 0.11042 0.65618 0.0
H260 H 0.12212 0.95333 0.648 0.0
H261 H 0.16234 0.95215 0.71783 0.0
C262 C 0.08615 0.01976 0.76709 0.0
C263 C 0.03794 0.05539 0.78905 0.0
C264 C 0.07271 0.02871 0.72743 0.0
C265 C 0.98032 0.10434 0.7714 0.0
C266 C 0.96764 0.11462 0.73211 0.0
C267 C 0.99184 0.07807 0.66988 0.0
C268 C 0.03001 0.03276 0.64759 0.0
C269 C 0.01174 0.07543 0.70976 0.0
C270 C 0.09325 0.98938 0.66504 0.0
C271 C 0.11535 0.98812 0.70482 0.0
H272 H 0.56596 0.59109 0.71374 0.0
H273 H 0.36459 0.44756 0.69034 0.0
H274 H 0.3682 0.43656 0.75857 0.0
H275 H 0.43743 0.45729 0.82503 0.0
H276 H 0.64578 0.59144 0.84829 0.0
H277 H 0.63082 0.61679 0.7801 0.0
C278 C 0.52295 0.55724 0.72352 0.0
C279 C 0.46554 0.5198 0.69682 0.0
C280 C 0.52666 0.54958 0.76286 0.0
C281 C 0.40908 0.47754 0.71011 0.0
C282 C 0.41136 0.4708 0.74919 0.0
C283 C 0.47805 0.49355 0.81506 0.0
C284 C 0.54192 0.52332 0.84126 0.0
C285 C 0.47083 0.50539 0.77582 0.0
C286 C 0.5957 0.56883 0.82836 0.0
C287 C 0.58748 0.58274 0.78947 0.0
H288 H 0.60124 0.54745 0.29002 0.0
H289 H 0.35277 0.60887 0.26882 0.0
H290 H 0.35322 0.61775 0.20097 0.0
H291 H 0.41966 0.59187 0.14703 0.0
H292 H 0.66873 0.53614 0.16924 0.0
H293 H 0.67386 0.54677 0.2379 0.0
C294 C 0.54749 0.56519 0.27114 0.0
C295 C 0.47645 0.57536 0.28492 0.0
C296 C 0.54856 0.57237 0.23226 0.0
C297 C 0.40767 0.5975 0.25918 0.0
C298 C 0.40801 0.60369 0.2203 0.0
C299 C 0.47561 0.58483 0.16702 0.0
C300 C 0.54352 0.56266 0.1534 0.0
C301 C 0.47745 0.58891 0.20641 0.0
C302 C 0.6159 0.55369 0.17922 0.0
C303 C 0.61846 0.55854 0.21845 0.0
loop_
_geom_bond_atom_site_label_1
_geom_bond_atom_site_label_2
_geom_bond_distance
_geom_bond_site_symmetry_2
_ccdc_geom_bond_type
C0 O16 1.251 . S
C0 O18 1.254 1_554 S
N1 C2 1.333 1_445 S
N1 C6 1.307 . S
N1 Zn7 2.020 . S
C2 N1 1.333 1_665 S
C2 C3 1.379 . S
C2 H20 0.952 . S
C3 C2 1.379 . S
C3 C4 1.390 1_665 S
C3 H30 0.949 . S
C4 C3 1.390 1_445 S
C4 C5 1.357 . S
C5 C4 1.357 . S
C5 C6 1.370 . S
C5 H31 0.950 . S
C6 N1 1.307 . S
C6 C5 1.370 . S
C6 H24 0.948 . S
Zn7 N1 2.020 . S
Zn7 O16 2.039 1_445 S
Zn7 O22 2.034 1_455 S
Zn7 O26 2.025 . S
Zn7 O28 2.024 1_545 S
C8 O27 1.246 1_554 S
C8 O28 1.249 . S
N9 C10 1.307 1_545 S
N9 C11 1.333 1_655 S
N9 Zn15 2.020 1_655 S
C10 N9 1.307 1_565 S
C10 C14 1.370 . S
C10 H21 0.948 . S
C11 N9 1.333 1_455 S
C11 C12 1.379 . S
C11 H19 0.952 . S
C12 C11 1.379 . S
C12 C13 1.390 1_455 S
C12 H32 0.949 . S
C13 C12 1.390 1_655 S
C13 C14 1.357 1_545 S
C14 C10 1.370 . S
C14 C13 1.357 1_565 S
C14 H33 0.950 . S
Zn15 N9 2.020 1_455 S
Zn15 O18 2.025 1_445 S
Zn15 O23 2.024 1_455 S
Zn15 O25 2.039 . S
Zn15 O27 2.034 1_545 S
O16 C0 1.251 . S
O16 Zn7 2.039 1_665 S
C17 O22 1.246 . S
C17 O23 1.249 1_554 S
O18 C0 1.254 1_556 S
O18 Zn15 2.025 1_665 S
H19 C11 0.952 . S
H20 C2 0.952 . S
H21 C10 0.948 . S
O22 Zn7 2.034 1_655 S
O22 C17 1.246 . S
O23 Zn15 2.024 1_655 S
O23 C17 1.249 1_556 S
H24 C6 0.948 . S
O25 Zn15 2.039 . S
O25 C29 1.251 1_556 S
O26 Zn7 2.025 . S
O26 C29 1.254 . S
O27 C8 1.246 1_556 S
O27 Zn15 2.034 1_565 S
O28 Zn7 2.024 1_565 S
O28 C8 1.249 . S
C29 O25 1.251 1_554 S
C29 O26 1.254 . S
H30 C3 0.949 . S
H31 C5 0.950 . S
H32 C12 0.949 . S
H33 C14 0.950 . S
C34 O50 1.251 . S
C34 O52 1.254 . S
N35 C36 1.333 . S
N35 C40 1.307 . S
N35 Zn41 2.020 . S
C36 N35 1.333 . S
C36 C37 1.379 . S
C36 H54 0.952 . S
C37 C36 1.379 . S
C37 C38 1.390 . S
C37 H64 0.949 . S
C38 C37 1.390 . S
C38 C39 1.357 . S
C39 C38 1.357 . S
C39 C40 1.370 . S
C39 H65 0.950 . S
C40 N35 1.307 . S
C40 C39 1.370 . S
C40 H58 0.948 . S
Zn41 N35 2.020 . S
Zn41 O50 2.039 . S
Zn41 O56 2.034 . S
Zn41 O60 2.025 . S
Zn41 O62 2.024 . S
C42 O61 1.246 . S
C42 O62 1.249 . S
N43 C44 1.307 . S
N43 C45 1.333 . S
N43 Zn49 2.020 . S
C44 N43 1.307 . S
C44 C48 1.370 . S
C44 H55 0.948 . S
C45 N43 1.333 . S
C45 C46 1.379 . S
C45 H53 0.952 . S
C46 C45 1.379 . S
C46 C47 1.390 . S
C46 H66 0.949 . S
C47 C46 1.390 . S
C47 C48 1.357 . S
C48 C44 1.370 . S
C48 C47 1.357 . S
C48 H67 0.950 . S
Zn49 N43 2.020 . S
Zn49 O52 2.025 . S
Zn49 O57 2.024 . S
Zn49 O59 2.039 . S
Zn49 O61 2.034 . S
O50 C34 1.251 . S
O50 Zn41 2.039 . S
C51 O56 1.246 . S
C51 O57 1.249 . S
O52 C34 1.254 . S
O52 Zn49 2.025 . S
H53 C45 0.952 . S
H54 C36 0.952 . S
H55 C44 0.948 . S
O56 Zn41 2.034 . S
O56 C51 1.246 . S
O57 Zn49 2.024 . S
O57 C51 1.249 . S
H58 C40 0.948 . S
O59 Zn49 2.039 . S
O59 C63 1.251 . S
O60 Zn41 2.025 . S
O60 C63 1.254 . S
O61 C42 1.246 . S
O61 Zn49 2.034 . S
O62 Zn41 2.024 . S
O62 C42 1.249 . S
C63 O59 1.251 . S
C63 O60 1.254 . S
H64 C37 0.949 . S
H65 C39 0.950 . S
H66 C46 0.949 . S
H67 C48 0.950 . S
H68 C71 0.929 . S
H69 C74 0.929 1_655 S
H70 C76 0.930 . S
C71 H68 0.929 . S
C71 C72 1.398 . S
C71 C73 1.396 1_565 S
C72 C71 1.398 . S
C72 C76 1.407 . S
C73 C71 1.396 1_545 S
C73 C74 1.394 . S
C74 H69 0.929 1_455 S
C74 C73 1.394 . S
C74 C75 1.382 . S
C75 C74 1.382 . S
C75 C76 1.392 1_545 S
C75 N77 1.420 1_455 S
C76 H70 0.930 . S
C76 C72 1.407 . S
C76 C75 1.392 1_565 S
N77 C75 1.420 1_655 S
N77 C78 1.244 . S
C78 N77 1.244 . S
H79 C82 0.929 . S
H80 C85 0.929 . S
H81 C87 0.930 . S
C82 H79 0.929 . S
C82 C83 1.398 . S
C82 C84 1.396 1_565 S
C83 C82 1.398 . S
C83 C87 1.407 . S
C84 C82 1.396 1_545 S
C84 C85 1.394 1_655 S
C85 H80 0.929 . S
C85 C84 1.394 1_455 S
C85 C86 1.382 . S
C86 C85 1.382 . S
C86 C87 1.392 1_445 S
C86 N88 1.420 . S
C87 H81 0.930 . S
C87 C83 1.407 . S
C87 C86 1.392 1_665 S
N88 C86 1.420 . S
N88 C89 1.244 . S
C89 N88 1.244 . S
H90 C93 0.929 . S
H91 C96 0.929 . S
H92 C98 0.930 1_554 S
C93 H90 0.929 . S
C93 C94 1.398 . S
C93 C95 1.396 . S
C94 C93 1.398 . S
C94 C98 1.407 . S
C95 C93 1.396 . S
C95 C96 1.394 . S
C96 H91 0.929 . S
C96 C95 1.394 . S
C96 C97 1.382 . S
C97 C96 1.382 . S
C97 C98 1.392 . S
C97 N99 1.435 . S
C98 H92 0.930 1_556 S
C98 C94 1.407 . S
C98 C97 1.392 . S
N99 C97 1.435 . S
N99 C100 1.248 . S
C100 N99 1.248 . S
H101 C104 0.929 . S
H102 C107 0.929 . S
H103 C109 0.930 1_556 S
C104 H101 0.929 . S
C104 C105 1.398 . S
C104 C106 1.396 . S
C105 C104 1.398 . S
C105 C109 1.407 . S
C106 C104 1.396 . S
C106 C107 1.394 . S
C107 H102 0.929 . S
C107 C106 1.394 . S
C107 C108 1.382 . S
C108 C107 1.382 . S
C108 C109 1.392 . S
C108 N110 1.420 . S
C109 H103 0.930 1_554 S
C109 C105 1.407 . S
C109 C108 1.392 . S
N110 C108 1.420 . S
N110 C111 1.244 . S
C111 N110 1.244 . S
H112 C118 0.930 . S
H113 C121 0.930 . S
H114 C122 0.930 . S
H115 C123 0.943 . S
H116 C126 0.930 . S
H117 C127 0.930 . S
C118 H112 0.930 . S
C118 C119 1.355 . S
C118 C120 1.415 . S
C119 C118 1.355 . S
C119 C121 1.419 1_554 S
C120 C118 1.415 . S
C120 C125 1.425 . S
C120 C127 1.409 . S
C121 H113 0.930 . S
C121 C119 1.419 1_556 S
C121 C122 1.362 . S
C122 H114 0.930 . S
C122 C121 1.362 . S
C122 C125 1.409 1_556 S
C123 H115 0.943 . S
C123 C124 1.345 1_556 S
C123 C125 1.411 1_556 S
C124 C123 1.345 1_554 S
C124 C126 1.419 . S
C125 C120 1.425 . S
C125 C122 1.409 1_554 S
C125 C123 1.411 1_554 S
C126 H116 0.930 . S
C126 C124 1.419 . S
C126 C127 1.362 . S
C127 H117 0.930 . S
C127 C120 1.409 . S
C127 C126 1.362 . S
H128 C134 0.930 . S
H129 C137 0.930 . S
H130 C138 0.930 . S
H131 C139 0.930 . S
H132 C142 0.930 . S
H133 C143 0.934 1_556 S
C134 H128 0.930 . S
C134 C135 1.355 . S
C134 C136 1.415 . S
C135 C134 1.355 . S
C135 C137 1.419 . S
C136 C134 1.415 . S
C136 C141 1.425 . S
C136 C143 1.412 . S
C137 H129 0.930 . S
C137 C135 1.419 . S
C137 C138 1.362 . S
C138 H130 0.930 . S
C138 C137 1.362 . S
C138 C141 1.409 . S
C139 H131 0.930 . S
C139 C140 1.355 . S
C139 C141 1.415 . S
C140 C139 1.355 . S
C140 C142 1.419 1_554 S
C141 C136 1.425 . S
C141 C138 1.409 . S
C141 C139 1.415 . S
C142 H132 0.930 . S
C142 C140 1.419 1_556 S
C142 C143 1.357 1_556 S
C143 H133 0.934 1_554 S
C143 C136 1.412 . S
C143 C142 1.357 1_554 S
H144 C150 0.930 . S
H145 C153 0.930 . S
H146 C154 0.930 . S
H147 C155 0.930 . S
H148 C158 0.930 . S
H149 C159 0.930 . S
C150 H144 0.930 . S
C150 C151 1.355 . S
C150 C152 1.415 . S
C151 C150 1.355 . S
C151 C153 1.419 1_554 S
C152 C150 1.415 . S
C152 C157 1.425 1_554 S
C152 C159 1.409 . S
C153 H145 0.930 . S
C153 C151 1.419 1_556 S
C153 C154 1.362 . S
C154 H146 0.930 . S
C154 C153 1.362 . S
C154 C157 1.409 . S
C155 H147 0.930 . S
C155 C156 1.355 1_556 S
C155 C157 1.415 . S
C156 C155 1.355 1_554 S
C156 C158 1.419 . S
C157 C152 1.425 1_556 S
C157 C154 1.409 . S
C157 C155 1.415 . S
C158 H148 0.930 . S
C158 C156 1.419 . S
C158 C159 1.362 . S
C159 H149 0.930 . S
C159 C152 1.409 . S
C159 C158 1.362 . S
H160 C166 0.930 . S
H161 C169 0.930 . S
H162 C170 0.930 . S
H163 C171 0.930 . S
H164 C174 0.930 . S
H165 C175 0.930 . S
C166 H160 0.930 . S
C166 C167 1.355 1_556 S
C166 C168 1.415 . S
C167 C166 1.355 1_554 S
C167 C169 1.419 . S
C168 C166 1.415 . S
C168 C173 1.425 1_556 S
C168 C175 1.409 . S
C169 H161 0.930 . S
C169 C167 1.419 . S
C169 C170 1.362 . S
C170 H162 0.930 . S
C170 C169 1.362 . S
C170 C173 1.409 . S
C171 H163 0.930 . S
C171 C172 1.355 1_554 S
C171 C173 1.415 . S
C172 C171 1.355 1_556 S
C172 C174 1.419 . S
C173 C168 1.425 1_554 S
C173 C170 1.409 . S
C173 C171 1.415 . S
C174 H164 0.930 . S
C174 C172 1.419 . S
C174 C175 1.362 . S
C175 H165 0.930 . S
C175 C168 1.409 . S
C175 C174 1.362 . S
H176 C182 0.930 . S
H177 C185 0.930 . S
H178 C186 0.930 . S
H179 C187 0.930 . S
H180 C190 0.930 . S
H181 C191 0.930 . S
C182 H176 0.930 . S
C182 C183 1.355 . S
C182 C184 1.415 . S
C183 C182 1.355 . S
C183 C185 1.419 . S
C184 C182 1.415 . S
C184 C189 1.425 . S
C184 C191 1.409 . S
C185 H177 0.930 . S
C185 C183 1.419 . S
C185 C186 1.362 . S
C186 H178 0.930 . S
C186 C185 1.362 . S
C186 C189 1.409 . S
C187 H179 0.930 . S
C187 C188 1.355 . S
C187 C189 1.415 . S
C188 C187 1.355 . S
C188 C190 1.419 . S
C189 C184 1.425 . S
C189 C186 1.409 . S
C189 C187 1.415 . S
C190 H180 0.930 . S
C190 C188 1.419 . S
C190 C191 1.362 . S
C191 H181 0.930 . S
C191 C184 1.409 . S
C191 C190 1.362 . S
H192 C198 0.930 . S
H193 C201 0.930 . S
H194 C202 0.930 . S
H195 C203 0.930 . S
H196 C206 0.930 . S
H197 C207 0.930 . S
C198 H192 0.930 . S
C198 C199 1.355 . S
C198 C200 1.415 . S
C199 C198 1.355 . S
C199 C201 1.419 . S
C200 C198 1.415 . S
C200 C205 1.425 . S
C200 C207 1.409 . S
C201 H193 0.930 . S
C201 C199 1.419 . S
C201 C202 1.362 . S
C202 H194 0.930 . S
C202 C201 1.362 . S
C202 C205 1.409 . S
C203 H195 0.930 . S
C203 C204 1.355 . S
C203 C205 1.415 . S
C204 C203 1.355 . S
C204 C206 1.419 . S
C205 C200 1.425 . S
C205 C202 1.409 . S
C205 C203 1.415 . S
C206 H196 0.930 . S
C206 C204 1.419 . S
C206 C207 1.362 . S
C207 H197 0.930 . S
C207 C200 1.409 . S
C207 C206 1.362 . S
H208 C214 0.930 . S
H209 C217 0.930 . S
H210 C218 0.930 . S
H211 C219 0.930 . S
H212 C222 0.930 . S
H213 C223 0.930 . S
C214 H208 0.930 . S
C214 C215 1.355 . S
C214 C216 1.415 . S
C215 C214 1.355 . S
C215 C217 1.419 . S
C216 C214 1.415 . S
C216 C221 1.425 . S
C216 C223 1.409 . S
C217 H209 0.930 . S
C217 C215 1.419 . S
C217 C218 1.362 . S
C218 H210 0.930 . S
C218 C217 1.362 . S
C218 C221 1.409 . S
C219 H211 0.930 . S
C219 C220 1.355 . S
C219 C221 1.415 . S
C220 C219 1.355 . S
C220 C222 1.419 . S
C221 C216 1.425 . S
C221 C218 1.409 . S
C221 C219 1.415 . S
C222 H212 0.930 . S
C222 C220 1.419 . S
C222 C223 1.362 . S
C223 H213 0.930 . S
C223 C216 1.409 . S
C223 C222 1.362 . S
H224 C230 0.930 . S
H225 C233 0.930 . S
H226 C234 0.930 . S
H227 C235 0.930 . S
H228 C238 0.930 . S
H229 C239 0.930 . S
C230 H224 0.930 . S
C230 C231 1.355 . S
C230 C232 1.415 . S
C231 C230 1.355 . S
C231 C233 1.419 . S
C232 C230 1.415 . S
C232 C237 1.425 . S
C232 C239 1.409 . S
C233 H225 0.930 . S
C233 C231 1.419 . S
C233 C234 1.362 . S
C234 H226 0.930 . S
C234 C233 1.362 . S
C234 C237 1.409 . S
C235 H227 0.930 . S
C235 C236 1.355 . S
C235 C237 1.415 . S
C236 C235 1.355 . S
C236 C238 1.419 . S
C237 C232 1.425 . S
C237 C234 1.409 . S
C237 C235 1.415 . S
C238 H228 0.930 . S
C238 C236 1.419 . S
C238 C239 1.362 . S
C239 H229 0.930 . S
C239 C232 1.409 . S
C239 C238 1.362 . S
H240 C246 0.930 1_655 S
H241 C249 0.930 . S
H242 C250 0.930 . S
H243 C251 0.930 . S
H244 C254 0.930 1_655 S
H245 C255 0.930 1_655 S
C246 H240 0.930 1_455 S
C246 C247 1.355 1_565 S
C246 C248 1.415 . S
C247 C246 1.355 1_545 S
C247 C249 1.419 . S
C248 C246 1.415 . S
C248 C253 1.425 1_565 S
C248 C255 1.409 . S
C249 H241 0.930 . S
C249 C247 1.419 . S
C249 C250 1.362 . S
C250 H242 0.930 . S
C250 C249 1.362 . S
C250 C253 1.409 . S
C251 H243 0.930 . S
C251 C252 1.359 . S
C251 C253 1.415 . S
C252 C251 1.359 . S
C252 C254 1.413 1_545 S
C253 C248 1.425 1_545 S
C253 C250 1.409 . S
C253 C251 1.415 . S
C254 H244 0.930 1_455 S
C254 C252 1.413 1_565 S
C254 C255 1.362 . S
C255 H245 0.930 1_455 S
C255 C248 1.409 . S
C255 C254 1.362 . S
H256 C262 0.930 . S
H257 C265 0.930 . S
H258 C266 0.930 . S
H259 C267 0.930 . S
H260 C270 0.930 . S
H261 C271 0.930 . S
C262 H256 0.930 . S
C262 C263 1.355 1_455 S
C262 C264 1.415 . S
C263 C262 1.355 1_655 S
C263 C265 1.419 . S
C264 C262 1.415 . S
C264 C269 1.425 1_455 S
C264 C271 1.409 . S
C265 H257 0.930 . S
C265 C263 1.419 . S
C265 C266 1.362 . S
C266 H258 0.930 . S
C266 C265 1.362 . S
C266 C269 1.409 . S
C267 H259 0.930 . S
C267 C268 1.355 . S
C267 C269 1.415 . S
C268 C267 1.355 . S
C268 C270 1.419 1_655 S
C269 C264 1.425 1_655 S
C269 C266 1.409 . S
C269 C267 1.415 . S
C270 H260 0.930 . S
C270 C268 1.419 1_455 S
C270 C271 1.362 . S
C271 H261 0.930 . S
C271 C264 1.409 . S
C271 C270 1.362 . S
H272 C278 0.930 . S
H273 C281 0.930 . S
H274 C282 0.930 . S
H275 C283 0.930 . S
H276 C286 0.930 . S
H277 C287 0.930 . S
C278 H272 0.930 . S
C278 C279 1.355 . S
C278 C280 1.415 . S
C279 C278 1.355 . S
C279 C281 1.419 . S
C280 C278 1.415 . S
C280 C285 1.425 . S
C280 C287 1.409 . S
C281 H273 0.930 . S
C281 C279 1.419 . S
C281 C282 1.362 . S
C282 H274 0.930 . S
C282 C281 1.362 . S
C282 C285 1.409 . S
C283 H275 0.930 . S
C283 C284 1.355 . S
C283 C285 1.415 . S
C284 C283 1.355 . S
C284 C286 1.419 . S
C285 C280 1.425 . S
C285 C282 1.409 . S
C285 C283 1.415 . S
C286 H276 0.930 . S
C286 C284 1.419 . S
C286 C287 1.362 . S
C287 H277 0.930 . S
C287 C280 1.409 . S
C287 C286 1.362 . S
H288 C294 0.930 . S
H289 C297 0.930 . S
H290 C298 0.930 . S
H291 C299 0.930 . S
H292 C302 0.930 . S
H293 C303 0.930 . S
C294 H288 0.930 . S
C294 C295 1.355 . S
C294 C296 1.415 . S
C295 C294 1.355 . S
C295 C297 1.419 . S
C296 C294 1.415 . S
C296 C301 1.425 . S
C296 C303 1.409 . S
C297 H289 0.930 . S
C297 C295 1.419 . S
C297 C298 1.362 . S
C298 H290 0.930 . S
C298 C297 1.362 . S
C298 C301 1.409 . S
C299 H291 0.930 . S
C299 C300 1.355 . S
C299 C301 1.415 . S
C300 C299 1.355 . S
C300 C302 1.419 . S
C301 C296 1.425 . S
C301 C298 1.409 . S
C301 C299 1.415 . S
C302 H292 0.930 . S
C302 C300 1.419 . S
C302 C303 1.362 . S
C303 H293 0.930 . S
C303 C296 1.409 . S
C303 C302 1.362 . S
C124 C105 1.436 . S
C119 C29 1.490 . S
C135 C8 1.415 . S
C140 C100 1.371 1_554 S
C151 C0 1.437 . S
C156 C111 1.367 . S
C167 C17 1.495 . S
C172 C94 1.438 . S
C183 C63 1.497 . S
C188 C83 1.440 . S
C199 C42 1.432 . S
C204 C78 1.393 . S
C220 C89 1.360 . S
C215 C34 1.429 . S
C236 C72 1.470 . S
C231 C51 1.488 . S
C247 C4 1.508 . S
C252 C73 1.500 . S
C263 C13 1.509 . S
C268 C84 1.504 . S
C284 C95 1.516 . S
C279 C38 1.518 . S
C295 C47 1.510 . S
C300 C106 1.502 . S
