# Generated by pormake.
# Topology pyr, (3,6)-cn, num edge types: 1
# Building blocks:
#     Node 0, Type 0, BuildingBlock: BELTOD_clean_linker_0, # of connection points: 3
#     Node 1, Type 0, BuildingBlock: BELTOD_clean_linker_0, # of connection points: 3
#     Node 2, Type 0, BuildingBlock: BELTOD_clean_linker_0, # of connection points: 3
#     Node 3, Type 0, BuildingBlock: BELTOD_clean_linker_0, # of connection points: 3
#     Node 4, Type 0, BuildingBlock: BELTOD_clean_linker_0, # of connection points: 3
#     Node 5, Type 0, BuildingBlock: BELTOD_clean_linker_0, # of connection points: 3
#     Node 6, Type 0, BuildingBlock: BELTOD_clean_linker_0, # of connection points: 3
#     Node 7, Type 0, BuildingBlock: BELTOD_clean_linker_0, # of connection points: 3
#     Node 8, Type 1, BuildingBlock: JUFBIX_clean_sbu_0, # of connection points: 6
#     Node 9, Type 1, BuildingBlock: JUFBIX_clean_sbu_0, # of connection points: 6
#     Node 10, Type 1, BuildingBlock: JUFBIX_clean_sbu_0, # of connection points: 6
#     Node 11, Type 1, BuildingBlock: JUFBIX_clean_sbu_0, # of connection points: 6
#     Edge 12, Type (0, 1), BuildingBlock: KIFKEQ_clean_linker_1, # of connection points: 2
#     Edge 13, Type (0, 1), BuildingBlock: KIFKEQ_clean_linker_1, # of connection points: 2
#     Edge 14, Type (0, 1), BuildingBlock: KIFKEQ_clean_linker_1, # of connection points: 2
#     Edge 15, Type (0, 1), BuildingBlock: KIFKEQ_clean_linker_1, # of connection points: 2
#     Edge 16, Type (0, 1), BuildingBlock: KIFKEQ_clean_linker_1, # of connection points: 2
#     Edge 17, Type (0, 1), BuildingBlock: KIFKEQ_clean_linker_1, # of connection points: 2
#     Edge 18, Type (0, 1), BuildingBlock: KIFKEQ_clean_linker_1, # of connection points: 2
#     Edge 19, Type (0, 1), BuildingBlock: KIFKEQ_clean_linker_1, # of connection points: 2
#     Edge 20, Type (0, 1), BuildingBlock: KIFKEQ_clean_linker_1, # of connection points: 2
#     Edge 21, Type (0, 1), BuildingBlock: KIFKEQ_clean_linker_1, # of connection points: 2
#     Edge 22, Type (0, 1), BuildingBlock: KIFKEQ_clean_linker_1, # of connection points: 2
#     Edge 23, Type (0, 1), BuildingBlock: KIFKEQ_clean_linker_1, # of connection points: 2
#     Edge 24, Type (0, 1), BuildingBlock: KIFKEQ_clean_linker_1, # of connection points: 2
#     Edge 25, Type (0, 1), BuildingBlock: KIFKEQ_clean_linker_1, # of connection points: 2
#     Edge 26, Type (0, 1), BuildingBlock: KIFKEQ_clean_linker_1, # of connection points: 2
#     Edge 27, Type (0, 1), BuildingBlock: KIFKEQ_clean_linker_1, # of connection points: 2
#     Edge 28, Type (0, 1), BuildingBlock: KIFKEQ_clean_linker_1, # of connection points: 2
#     Edge 29, Type (0, 1), BuildingBlock: KIFKEQ_clean_linker_1, # of connection points: 2
#     Edge 30, Type (0, 1), BuildingBlock: KIFKEQ_clean_linker_1, # of connection points: 2
#     Edge 31, Type (0, 1), BuildingBlock: KIFKEQ_clean_linker_1, # of connection points: 2
#     Edge 32, Type (0, 1), BuildingBlock: KIFKEQ_clean_linker_1, # of connection points: 2
#     Edge 33, Type (0, 1), BuildingBlock: KIFKEQ_clean_linker_1, # of connection points: 2
#     Edge 34, Type (0, 1), BuildingBlock: KIFKEQ_clean_linker_1, # of connection points: 2
#     Edge 35, Type (0, 1), BuildingBlock: KIFKEQ_clean_linker_1, # of connection points: 2
# Relax obj value: 0.051
# Max RMSD: 0.092
# Mean RMSD: 0.040
data_MOF--net-pyr--node1-JUFBIX_clean_sbu_0--node2-BELTOD_clean_linker_0--edge1-KIFKEQ_clean_linker_1
_symmetry_space_group_name_H-M    P1
_symmetry_Int_Tables_number       1
_symmetry_cell_setting            triclinic
loop_
_symmetry_equiv_pos_as_xyz
'x, y, z'
_cell_length_a     43.389692
_cell_length_b     41.472882
_cell_length_c     43.047102
_cell_angle_alpha  84.378178
_cell_angle_beta   90.078376
_cell_angle_gamma 91.370709
loop_
_atom_site_label
_atom_site_type_symbol
_atom_site_fract_x
_atom_site_fract_y
_atom_site_fract_z
_atom_type_partial_charge
P0 P 0.20954 0.18725 0.19975 0.0
H1 H 0.25946 0.2125 0.15879 0.0
H2 H 0.29954 0.187 0.13062 0.0
H3 H 0.2595 0.09275 0.16078 0.0
H4 H 0.21895 0.11867 0.18842 0.0
H5 H 0.16034 0.22733 0.21888 0.0
H6 H 0.12825 0.26806 0.19078 0.0
H7 H 0.16836 0.24648 0.10362 0.0
H8 H 0.20037 0.2056 0.13196 0.0
H9 H 0.23199 0.15171 0.25657 0.0
H10 H 0.1454 0.16127 0.20778 0.0
O11 O 0.2311 0.21221 0.2194 0.0
H12 H 0.20633 0.1197 0.30013 0.0
H13 H 0.11928 0.13005 0.2517 0.0
C14 C 0.23626 0.16756 0.17585 0.0
C15 C 0.25908 0.18635 0.15904 0.0
C16 C 0.28219 0.17167 0.14314 0.0
C17 C 0.28314 0.13771 0.14371 0.0
C18 C 0.25949 0.11894 0.15967 0.0
C19 C 0.23628 0.13374 0.17561 0.0
C20 C 0.18258 0.21309 0.17761 0.0
C21 C 0.16177 0.23085 0.19365 0.0
C22 C 0.1434 0.25419 0.17751 0.0
C23 C 0.14571 0.26067 0.14489 0.0
C24 C 0.16619 0.24236 0.12877 0.0
C25 C 0.18442 0.21877 0.14497 0.0
C26 C 0.19058 0.15941 0.22915 0.0
C27 C 0.20743 0.14675 0.25516 0.0
C28 C 0.19263 0.12866 0.28021 0.0
C29 C 0.16055 0.12273 0.27984 0.0
C30 C 0.14398 0.13405 0.2529 0.0
C31 C 0.15889 0.15212 0.22776 0.0
P32 P 0.45188 0.92544 0.58747 0.0
H33 H 0.50519 0.94106 0.62522 0.0
H34 H 0.51015 0.95604 0.67887 0.0
H35 H 0.41132 0.94713 0.68992 0.0
H36 H 0.40653 0.93165 0.63692 0.0
H37 H 0.48939 0.89032 0.54624 0.0
H38 H 0.497 0.83271 0.54293 0.0
H39 H 0.43772 0.8099 0.62319 0.0
H40 H 0.43145 0.86775 0.62709 0.0
H41 H 0.41739 0.98487 0.57882 0.0
H42 H 0.40128 0.8839 0.56614 0.0
O43 O 0.47684 0.94802 0.56471 0.0
H44 H 0.36278 0.99519 0.56898 0.0
H45 H 0.34701 0.89409 0.55619 0.0
C46 C 0.45547 0.93619 0.62681 0.0
C47 C 0.48463 0.94248 0.63922 0.0
C48 C 0.48745 0.95088 0.66981 0.0
C49 C 0.46106 0.95322 0.68828 0.0
C50 C 0.43196 0.94619 0.67593 0.0
C51 C 0.42923 0.93739 0.64559 0.0
C52 C 0.46013 0.88323 0.58707 0.0
C53 C 0.47848 0.87293 0.56343 0.0
C54 C 0.48248 0.83991 0.56136 0.0
C55 C 0.46771 0.81654 0.5826 0.0
C56 C 0.44977 0.82712 0.60668 0.0
C57 C 0.4461 0.8602 0.60892 0.0
C58 C 0.41338 0.93361 0.57366 0.0
C59 C 0.40226 0.96509 0.57325 0.0
C60 C 0.37107 0.97095 0.56757 0.0
C61 C 0.35055 0.94534 0.56221 0.0
C62 C 0.36218 0.91417 0.56084 0.0
C63 C 0.39334 0.90836 0.56649 0.0
P64 P 0.70626 0.33384 0.83859 0.0
H65 H 0.75408 0.30756 0.88027 0.0
H66 H 0.79459 0.33252 0.9101 0.0
H67 H 0.75961 0.42718 0.88015 0.0
H68 H 0.7191 0.40201 0.85036 0.0
H69 H 0.66055 0.28773 0.81923 0.0
H70 H 0.62781 0.24613 0.84781 0.0
H71 H 0.6616 0.27658 0.93501 0.0
H72 H 0.69414 0.31831 0.90627 0.0
H73 H 0.72509 0.37464 0.78272 0.0
H74 H 0.64246 0.35724 0.83793 0.0
O75 O 0.72671 0.31182 0.81598 0.0
H76 H 0.69688 0.41 0.7444 0.0
H77 H 0.61405 0.39272 0.79976 0.0
C78 C 0.73362 0.35287 0.86306 0.0
C79 C 0.75492 0.33367 0.88044 0.0
C80 C 0.778 0.34797 0.89758 0.0
C81 C 0.78041 0.38186 0.89743 0.0
C82 C 0.75859 0.40103 0.88045 0.0
C83 C 0.73531 0.38664 0.86351 0.0
C84 C 0.68001 0.3059 0.86055 0.0
C85 C 0.66065 0.28567 0.84451 0.0
C86 C 0.64185 0.262 0.86089 0.0
C87 C 0.64223 0.25793 0.8937 0.0
C88 C 0.6611 0.27884 0.90974 0.0
C89 C 0.6797 0.30277 0.89329 0.0
C90 C 0.68576 0.36284 0.81282 0.0
C91 C 0.70091 0.3787 0.78672 0.0
C92 C 0.68478 0.39907 0.76493 0.0
C93 C 0.65311 0.40396 0.76884 0.0
C94 C 0.6383 0.38902 0.79578 0.0
C95 C 0.65454 0.36878 0.81767 0.0
P96 P 0.92174 0.65052 0.41419 0.0
H97 H 0.96751 0.69885 0.39111 0.0
H98 H 0.99783 0.73848 0.41701 0.0
H99 H 0.96923 0.69151 0.50677 0.0
H100 H 0.93854 0.65203 0.48051 0.0
H101 H 0.8916 0.60259 0.37964 0.0
H102 H 0.90972 0.5683 0.34109 0.0
H103 H 1.00328 0.60162 0.35549 0.0
H104 H 0.98495 0.63572 0.39472 0.0
H105 H 0.86983 0.67715 0.44463 0.0
H106 H 0.9103 0.58345 0.44232 0.0
O107 O 0.90375 0.67754 0.38969 0.0
H108 H 0.82474 0.65173 0.47161 0.0
H109 H 0.86491 0.55771 0.469 0.0
C110 C 0.95046 0.67288 0.43387 0.0
C111 C 0.9685 0.69651 0.41638 0.0
C112 C 0.98601 0.71906 0.43127 0.0
C113 C 0.98567 0.7184 0.464 0.0
C114 C 0.96959 0.69292 0.48152 0.0
C115 C 0.95208 0.67029 0.46653 0.0
C116 C 0.93692 0.62138 0.39036 0.0
C117 C 0.91614 0.60181 0.37526 0.0
C118 C 0.92655 0.58213 0.35325 0.0
C119 C 0.95796 0.58212 0.34541 0.0
C120 C 0.97895 0.60116 0.36114 0.0
C121 C 0.96848 0.62062 0.38356 0.0
C122 C 0.89281 0.63207 0.44057 0.0
C123 C 0.86925 0.65114 0.45049 0.0
C124 C 0.84358 0.63658 0.46612 0.0
C125 C 0.84113 0.60267 0.472 0.0
C126 C 0.86603 0.58385 0.46433 0.0
C127 C 0.8919 0.59854 0.44902 0.0
P128 P 0.84858 0.87328 0.87845 0.0
H129 H 0.81685 0.86227 0.93786 0.0
H130 H 0.76528 0.87435 0.95493 0.0
H131 H 0.73986 0.90272 0.85914 0.0
H132 H 0.79214 0.89163 0.84249 0.0
H133 H 0.90818 0.85431 0.90461 0.0
H134 H 0.92962 0.80235 0.92402 0.0
H135 H 0.84544 0.75346 0.89923 0.0
H136 H 0.82391 0.80602 0.87983 0.0
H137 H 0.84969 0.93624 0.84225 0.0
H138 H 0.86665 0.83753 0.82515 0.0
O139 O 0.86708 0.90023 0.89856 0.0
H140 H 0.86811 0.95508 0.78981 0.0
H141 H 0.88533 0.85625 0.77256 0.0
C142 C 0.8084 0.87588 0.88892 0.0
C143 C 0.79999 0.87053 0.92045 0.0
C144 C 0.7703 0.87741 0.93018 0.0
C145 C 0.74809 0.88973 0.90852 0.0
C146 C 0.75634 0.89385 0.87665 0.0
C147 C 0.78624 0.88715 0.86698 0.0
C148 C 0.86418 0.83414 0.89136 0.0
C149 C 0.89419 0.83249 0.90345 0.0
C150 C 0.90644 0.80271 0.91464 0.0
C151 C 0.88913 0.77374 0.91358 0.0
C152 C 0.85938 0.77532 0.9004 0.0
C153 C 0.84698 0.80532 0.88944 0.0
C154 C 0.85708 0.88554 0.83779 0.0
C155 C 0.85704 0.91856 0.82705 0.0
C156 C 0.86778 0.92933 0.79711 0.0
C157 C 0.87865 0.90724 0.77709 0.0
C158 C 0.87708 0.87391 0.78733 0.0
C159 C 0.86646 0.86316 0.81747 0.0
P160 P 0.63309 0.19692 0.38118 0.0
H161 H 0.65107 0.23216 0.4338 0.0
H162 H 0.62306 0.26906 0.46369 0.0
H163 H 0.53886 0.24527 0.41654 0.0
H164 H 0.56683 0.20778 0.38714 0.0
H165 H 0.69051 0.17977 0.35411 0.0
H166 H 0.73406 0.14809 0.37459 0.0
H167 H 0.69148 0.13626 0.46571 0.0
H168 H 0.64731 0.16751 0.44484 0.0
H169 H 0.59014 0.20515 0.32909 0.0
H170 H 0.62686 0.12572 0.38905 0.0
O171 O 0.64599 0.22598 0.35448 0.0
H172 H 0.56698 0.16663 0.29574 0.0
H173 H 0.60442 0.08727 0.35531 0.0
C174 C 0.61097 0.21668 0.40869 0.0
C175 C 0.62635 0.23378 0.43082 0.0
C176 C 0.61033 0.25492 0.44787 0.0
C177 C 0.57881 0.25993 0.44241 0.0
C178 C 0.56316 0.24176 0.42118 0.0
C179 C 0.57915 0.22026 0.40445 0.0
C180 C 0.66617 0.17675 0.39816 0.0
C181 C 0.69071 0.1708 0.37861 0.0
C182 C 0.71542 0.1525 0.39024 0.0
C183 C 0.71603 0.13985 0.42169 0.0
C184 C 0.69159 0.14609 0.44145 0.0
C185 C 0.66652 0.16404 0.4296 0.0
C186 C 0.61072 0.16835 0.36113 0.0
C187 C 0.5927 0.17943 0.33541 0.0
C188 C 0.57937 0.15742 0.31648 0.0
C189 C 0.58421 0.12407 0.32288 0.0
C190 C 0.6006 0.11292 0.34981 0.0
C191 C 0.61348 0.13492 0.36902 0.0
P192 P 0.35474 0.6336 0.17097 0.0
H193 H 0.32585 0.64056 0.11025 0.0
H194 H 0.27344 0.63115 0.0923 0.0
H195 H 0.24336 0.61034 0.18806 0.0
H196 H 0.29635 0.61894 0.20573 0.0
H197 H 0.41481 0.65497 0.14522 0.0
H198 H 0.43635 0.70803 0.12561 0.0
H199 H 0.35145 0.75258 0.14865 0.0
H200 H 0.32996 0.69916 0.16828 0.0
H201 H 0.35923 0.57227 0.20957 0.0
H202 H 0.36387 0.67383 0.22334 0.0
O203 O 0.37364 0.60641 0.15265 0.0
H204 H 0.37436 0.55844 0.26377 0.0
H205 H 0.37832 0.66024 0.27788 0.0
C206 C 0.31499 0.63038 0.15925 0.0
C207 C 0.30789 0.6343 0.12739 0.0
C208 C 0.27778 0.62909 0.11718 0.0
C209 C 0.25399 0.61993 0.13868 0.0
C210 C 0.26112 0.61691 0.17079 0.0
C211 C 0.2914 0.62204 0.18098 0.0
C212 C 0.37059 0.6731 0.15763 0.0
C213 C 0.40076 0.67611 0.14596 0.0
C214 C 0.41303 0.70645 0.13469 0.0
C215 C 0.39549 0.73445 0.13529 0.0
C216 C 0.36555 0.73146 0.14794 0.0
C217 C 0.35318 0.70098 0.15898 0.0
C218 C 0.36103 0.62406 0.21224 0.0
C219 C 0.36307 0.59159 0.22443 0.0
C220 C 0.37155 0.58372 0.25555 0.0
C221 C 0.37794 0.60823 0.27521 0.0
C222 C 0.37422 0.64076 0.26326 0.0
C223 C 0.36577 0.64859 0.23207 0.0
P224 P 0.10711 0.36256 0.63697 0.0
H225 H 0.12288 0.32544 0.5857 0.0
H226 H 0.09456 0.28347 0.56085 0.0
H227 H 0.01239 0.3041 0.61108 0.0
H228 H 0.04075 0.34649 0.63557 0.0
H229 H 0.15421 0.40297 0.66115 0.0
H230 H 0.19574 0.43696 0.63702 0.0
H231 H 0.16148 0.41951 0.54569 0.0
H232 H 0.11939 0.38561 0.57024 0.0
H233 H 0.08361 0.34293 0.69936 0.0
H234 H 0.08102 0.42754 0.63279 0.0
O235 O 0.12821 0.33557 0.6584 0.0
H236 H 0.06144 0.37331 0.73902 0.0
H237 H 0.05798 0.45822 0.67233 0.0
C238 C 0.08386 0.33956 0.61203 0.0
C239 C 0.09842 0.322 0.59029 0.0
C240 C 0.0822 0.29792 0.57614 0.0
C241 C 0.05125 0.29049 0.58406 0.0
C242 C 0.03623 0.30931 0.6046 0.0
C243 C 0.05243 0.33367 0.61848 0.0
C244 C 0.13417 0.39122 0.61754 0.0
C245 C 0.15528 0.4069 0.63592 0.0
C246 C 0.17888 0.4266 0.62205 0.0
C247 C 0.18195 0.43089 0.5894 0.0
C248 C 0.15981 0.4164 0.57091 0.0
C249 C 0.13587 0.39687 0.58492 0.0
C250 C 0.08466 0.38327 0.6635 0.0
C251 C 0.07766 0.36794 0.69313 0.0
C252 C 0.06467 0.38534 0.71573 0.0
C253 C 0.05821 0.41838 0.70898 0.0
C254 C 0.0632 0.43299 0.67844 0.0
C255 C 0.07624 0.41548 0.6558 0.0
Co256 Co 0.99507 0.00755 0.51111 0.0
C257 C 0.02008 0.94577 0.51304 0.0
Co258 Co 0.03895 1.00189 0.53659 0.0
C259 C 0.93328 0.02683 0.49262 0.0
C260 C 0.95416 0.99659 0.46141 0.0
N261 N 0.95907 0.0103 0.48817 0.0
N262 N 0.91262 0.02416 0.46945 0.0
C263 C 0.92569 1.00502 0.44988 0.0
H264 H 0.93018 0.04141 0.51186 0.0
H265 H 0.97052 0.98187 0.45061 0.0
C266 C 0.01368 0.06343 0.53531 0.0
N267 N 0.07525 0.99888 0.55895 0.0
C268 C 0.10273 0.98904 0.54931 0.0
C269 C 0.08027 0.00701 0.58813 0.0
N270 N 0.12476 0.99073 0.57128 0.0
C271 C 0.11068 1.00193 0.59582 0.0
C272 C 0.04724 0.02312 0.47383 0.0
O273 O 0.99267 0.05175 0.51881 0.0
O274 O 0.03562 0.04558 0.54548 0.0
O275 O 0.06152 0.01614 0.49931 0.0
O276 O 0.018 0.0205 0.47376 0.0
O277 O 0.04209 0.95798 0.52781 0.0
H278 H 0.06303 0.01648 0.6027 0.0
H279 H 0.10645 0.98069 0.52659 0.0
O280 O 0.99775 0.96346 0.5038 0.0
O281 O 0.97223 0.99457 0.54859 0.0
O282 O 0.01605 0.98784 0.57353 0.0
C283 C 0.98672 0.98648 0.5738 0.0
H284 H 0.91549 0.99779 0.42859 0.0
H285 H 0.12172 0.00687 0.61747 0.0
Co286 Co 0.49506 1.00249 0.99936 0.0
C287 C 0.48617 0.95027 0.04473 0.0
Co288 Co 0.52172 0.00661 0.04256 0.0
C289 C 0.48142 1.00096 0.9339 0.0
C290 C 0.4419 0.98948 0.96293 0.0
N291 N 0.47194 0.99829 0.9639 0.0
N292 N 0.45851 0.9939 0.91417 0.0
C293 C 0.43358 0.98676 0.93249 0.0
H294 H 0.50484 0.00755 0.92685 0.0
H295 H 0.42722 0.9844 0.9832 0.0
C296 C 0.53079 0.05882 0.99726 0.0
N297 N 0.54491 0.01028 0.07859 0.0
C298 C 0.53488 0.01712 0.10687 0.0
C299 C 0.57565 0.00677 0.08218 0.0
N300 N 0.55799 0.01784 0.12774 0.0
C301 C 0.58369 0.01122 0.11239 0.0
C302 C 0.55316 0.97579 0.99731 0.0
O303 O 0.51128 0.04334 0.98193 0.0
O304 O 0.53866 0.04697 0.02444 0.0
O305 O 0.55458 0.98425 0.02487 0.0
O306 O 0.52877 0.98146 0.98153 0.0
O307 O 0.50468 0.96639 0.06052 0.0
H308 H 0.59149 1.00187 0.06396 0.0
H309 H 0.51111 0.02154 0.11227 0.0
O310 O 0.47921 0.96155 0.01715 0.0
O311 O 0.46139 0.02366 0.01727 0.0
O312 O 0.48842 0.02882 0.05947 0.0
C313 C 0.46347 0.03334 0.04434 0.0
H314 H 0.41117 0.97885 0.92472 0.0
H315 H 0.60675 0.01086 0.12204 0.0
Co316 Co 0.5315 0.53537 0.5219 0.0
C317 C 0.48063 0.54098 0.4821 0.0
Co318 Co 0.48767 0.51783 0.5443 0.0
C319 C 0.59679 0.54277 0.50856 0.0
C320 C 0.56989 0.57696 0.48035 0.0
N321 N 0.56752 0.55206 0.50294 0.0
N322 N 0.61719 0.56074 0.4902 0.0
C323 C 0.60037 0.58221 0.47234 0.0
H324 H 0.60306 0.52313 0.52567 0.0
H325 H 0.55074 0.59075 0.47056 0.0
C326 C 0.53867 0.51197 0.58396 0.0
N327 N 0.45172 0.50049 0.5631 0.0
C328 C 0.42204 0.50644 0.55534 0.0
C329 C 0.45026 0.47478 0.58488 0.0
N330 N 0.40234 0.48507 0.57105 0.0
C331 C 0.42002 0.4653 0.58981 0.0
C332 C 0.52049 0.47108 0.51633 0.0
O333 O 0.55325 0.52425 0.5599 0.0
O334 O 0.50966 0.50775 0.58227 0.0
O335 O 0.49649 0.47611 0.53188 0.0
O336 O 0.53949 0.49432 0.50901 0.0
O337 O 0.46606 0.52821 0.50596 0.0
H338 H 0.46999 0.46249 0.59531 0.0
H339 H 0.41511 0.52471 0.53715 0.0
O340 O 0.50949 0.54607 0.48416 0.0
O341 O 0.5232 0.57646 0.53467 0.0
O342 O 0.47922 0.55968 0.55656 0.0
C343 C 0.4989 0.58244 0.54931 0.0
H344 H 0.60956 0.60092 0.45532 0.0
H345 H 0.41174 0.44472 0.60522 0.0
Co346 Co 0.02312 0.50987 1.00163 0.0
C347 C 0.96506 0.48005 1.00078 0.0
Co348 Co 0.99731 0.51127 0.04542 0.0
C349 C 0.03365 0.50893 0.93582 0.0
C350 C 0.0753 0.50295 0.96222 0.0
N351 N 0.04493 0.50802 0.96509 0.0
N352 N 0.05569 0.50422 0.91472 0.0
C353 C 0.08199 0.50061 0.93132 0.0
H354 H 1.00954 0.51228 0.93027 0.0
H355 H 0.09133 0.49993 0.9815 0.0
C356 C 0.05538 0.5411 0.04625 0.0
N357 N 0.97553 0.51302 0.08195 0.0
C358 C 0.98671 0.51092 0.11131 0.0
C359 C 0.94519 0.51825 0.08491 0.0
N360 N 0.9646 0.51486 0.13254 0.0
C361 C 0.93839 0.51937 0.11597 0.0
C362 C 0.03368 0.45703 0.04566 0.0
O363 O 0.0566 0.53316 0.01852 0.0
O364 O 0.03115 0.53409 0.06226 0.0
O365 O 0.01455 0.47117 0.06176 0.0
O366 O 0.04058 0.46977 0.01838 0.0
O367 O 0.9636 0.48835 0.02837 0.0
H368 H 0.92921 0.52189 0.06564 0.0
H369 H 0.01073 0.50695 0.11689 0.0
O370 O 0.9895 0.48669 0.98501 0.0
O371 O 1.00552 0.54979 0.98509 0.0
O372 O 0.98021 0.55153 0.02888 0.0
C373 C 0.98672 0.56409 1.00144 0.0
H374 H 0.10422 0.49501 0.92214 0.0
H375 H 0.91613 0.52448 0.12541 0.0
H376 H 0.172 0.1301 0.34142 0.0
H377 H 0.11216 0.07819 0.28224 0.0
H378 H 0.14534 0.10449 0.38734 0.0
H379 H 0.08537 0.05246 0.32839 0.0
H380 H 0.02334 0.04214 0.41615 0.0
H381 H 0.05086 0.0647 0.36935 0.0
H382 H 0.13731 0.05376 0.4187 0.0
H383 H 0.10971 0.03182 0.46572 0.0
C384 C 0.15344 0.11284 0.33816 0.0
C385 C 0.14441 0.10619 0.30796 0.0
C386 C 0.13808 0.09811 0.36461 0.0
C387 C 0.11317 0.07625 0.36174 0.0
C388 C 0.10417 0.06947 0.33156 0.0
C389 C 0.11956 0.08424 0.30504 0.0
C390 C 0.04824 0.0444 0.41701 0.0
C391 C 0.06425 0.03526 0.44482 0.0
C392 C 0.06408 0.0572 0.39005 0.0
C393 C 0.09638 0.06122 0.39012 0.0
C394 C 0.11242 0.05153 0.41783 0.0
C395 C 0.09658 0.03873 0.4448 0.0
H396 H 0.49935 0.92892 0.73475 0.0
H397 H 0.42832 0.99888 0.71419 0.0
H398 H 0.50026 0.94149 0.78899 0.0
H399 H 0.42983 0.0124 0.76801 0.0
H400 H 0.41145 0.99649 0.87252 0.0
H401 H 0.41403 0.98849 0.81762 0.0
H402 H 0.513 0.98049 0.82441 0.0
H403 H 0.51021 0.98648 0.87996 0.0
C404 C 0.48434 0.94741 0.74178 0.0
C405 C 0.46357 0.96273 0.72045 0.0
C406 C 0.48491 0.95474 0.7728 0.0
C407 C 0.46493 0.97781 0.783 0.0
C408 C 0.44502 0.99398 0.7612 0.0
C409 C 0.44421 0.98636 0.73034 0.0
C410 C 0.43378 0.9928 0.86248 0.0
C411 C 0.46055 0.99185 0.88095 0.0
C412 C 0.43532 0.98868 0.83076 0.0
C413 C 0.46374 0.98383 0.81648 0.0
C414 C 0.49066 0.98373 0.83471 0.0
C415 C 0.48909 0.98761 0.86657 0.0
H416 H 0.59629 0.38937 0.74582 0.0
H417 H 0.66995 0.46148 0.73541 0.0
H418 H 0.56868 0.4182 0.70285 0.0
H419 H 0.6421 0.49072 0.69252 0.0
H420 H 0.60109 0.50917 0.59319 0.0
H421 H 0.62813 0.48546 0.63927 0.0
H422 H 0.54096 0.46588 0.68667 0.0
H423 H 0.51395 0.48867 0.64032 0.0
C424 C 0.60634 0.41174 0.73473 0.0
C425 C 0.63535 0.42309 0.74408 0.0
C426 C 0.59047 0.42835 0.71004 0.0
C427 C 0.60311 0.45686 0.69409 0.0
C428 C 0.63187 0.46859 0.70389 0.0
C429 C 0.64781 0.45187 0.72853 0.0
C430 C 0.58772 0.50008 0.61355 0.0
C431 C 0.55533 0.50065 0.61297 0.0
C432 C 0.60324 0.4866 0.64008 0.0
C433 C 0.58677 0.47349 0.66672 0.0
C434 C 0.55441 0.47513 0.66643 0.0
C435 C 0.5389 0.48844 0.63988 0.0
H436 H 0.94186 0.52082 0.33217 0.0
H437 H 0.99516 0.60589 0.29721 0.0
H438 H 0.94873 0.49798 0.28253 0.0
H439 H 1.00168 0.58344 0.24758 0.0
H440 H 0.92158 0.50222 0.17776 0.0
H441 H 0.92603 0.51285 0.23211 0.0
H442 H 0.02142 0.54253 0.217 0.0
H443 H 0.01654 0.53317 0.16218 0.0
C444 C 0.95551 0.53434 0.31405 0.0
C445 C 0.9677 0.56526 0.3184 0.0
C446 C 0.95935 0.52135 0.28562 0.0
C447 C 0.97531 0.53911 0.26092 0.0
C448 C 0.98947 0.56896 0.26616 0.0
C449 C 0.98575 0.58187 0.29465 0.0
C450 C 0.94353 0.5109 0.18603 0.0
C451 C 0.96853 0.51726 0.16549 0.0
C452 C 0.94625 0.51655 0.21734 0.0
C453 C 0.97409 0.52864 0.22891 0.0
C454 C 0.99957 0.53352 0.20873 0.0
C455 C 0.99683 0.52787 0.17735 0.0
H456 H 0.34439 0.15548 0.14364 0.0
H457 H 0.28153 0.08452 0.10993 0.0
H458 H 0.38722 0.13093 0.11904 0.0
H459 H 0.32473 0.05918 0.08611 0.0
H460 H 0.40556 0.04339 0.01999 0.0
H461 H 0.36202 0.06829 0.04358 0.0
H462 H 0.4176 0.08276 0.12458 0.0
H463 H 0.46117 0.0584 0.10085 0.0
C464 C 0.33963 0.1347 0.13087 0.0
C465 C 0.30933 0.12217 0.1287 0.0
C466 C 0.36434 0.12032 0.11705 0.0
C467 C 0.35958 0.09296 0.10058 0.0
C468 C 0.32929 0.0804 0.09833 0.0
C469 C 0.30452 0.09474 0.11229 0.0
C470 C 0.40853 0.05198 0.0428 0.0
C471 C 0.43698 0.04894 0.05843 0.0
C472 C 0.38345 0.06606 0.05644 0.0
C473 C 0.38618 0.07761 0.08604 0.0
C474 C 0.41468 0.07458 0.10161 0.0
C475 C 0.4397 0.06042 0.08803 0.0
H476 H 0.32004 0.99555 0.53051 0.0
H477 H 0.30505 0.90712 0.59096 0.0
H478 H 0.26478 0.00582 0.53166 0.0
H479 H 0.24994 0.91699 0.59151 0.0
H480 H 0.16267 0.96869 0.61808 0.0
H481 H 0.21726 0.95703 0.6141 0.0
H482 H 0.21405 0.98345 0.51459 0.0
H483 H 0.15951 0.9958 0.5187 0.0
C484 C 0.30492 0.97822 0.54382 0.0
C485 C 0.31687 0.95054 0.56063 0.0
C486 C 0.2733 0.98396 0.54429 0.0
C487 C 0.2531 0.96227 0.5618 0.0
C488 C 0.265 0.9343 0.57809 0.0
C489 C 0.29651 0.92847 0.57747 0.0
C490 C 0.17365 0.97216 0.5954 0.0
C491 C 0.1568 0.98316 0.56873 0.0
C492 C 0.20482 0.96518 0.59306 0.0
C493 C 0.21988 0.96925 0.564 0.0
C494 C 0.20307 0.98028 0.5373 0.0
C495 C 0.1718 0.98703 0.53962 0.0
H496 H 0.80345 0.36347 0.95566 0.0
H497 H 0.81644 0.43436 0.87608 0.0
H498 H 0.84811 0.38648 0.98108 0.0
H499 H 0.86066 0.45775 0.90174 0.0
H500 H 0.95869 0.46532 0.94054 0.0
H501 H 0.91365 0.44189 0.91642 0.0
H502 H 0.86516 0.43631 1.0044 0.0
H503 H 0.91034 0.45959 0.02869 0.0
C504 C 0.81578 0.38403 0.94365 0.0
C505 C 0.80641 0.39705 0.91382 0.0
C506 C 0.84122 0.39736 0.95831 0.0
C507 C 0.85804 0.42385 0.94338 0.0
C508 C 0.84842 0.43711 0.91372 0.0
C509 C 0.82286 0.42394 0.89917 0.0
C510 C 0.93851 0.45895 0.95483 0.0
C511 C 0.93815 0.46433 0.98658 0.0
C512 C 0.91259 0.44574 0.94092 0.0
C513 C 0.88574 0.4374 0.95844 0.0
C514 C 0.88556 0.44226 0.99032 0.0
C515 C 0.91142 0.45569 1.00421 0.0
H516 H 0.8113 0.55312 0.44669 0.0
H517 H 0.80264 0.61824 0.51843 0.0
H518 H 0.75758 0.53557 0.45465 0.0
H519 H 0.7487 0.60073 0.52624 0.0
H520 H 0.65403 0.54933 0.54062 0.0
H521 H 0.71066 0.55207 0.54107 0.0
H522 H 0.71102 0.57101 0.44062 0.0
H523 H 0.65476 0.56853 0.44032 0.0
C524 C 0.79822 0.56292 0.46486 0.0
C525 C 0.81108 0.58722 0.48181 0.0
C526 C 0.76741 0.55306 0.46921 0.0
C527 C 0.74898 0.56705 0.49081 0.0
C528 C 0.76246 0.58946 0.50952 0.0
C529 C 0.79322 0.59961 0.50493 0.0
C530 C 0.66637 0.5535 0.51869 0.0
C531 C 0.6502 0.55891 0.49042 0.0
C532 C 0.69863 0.55521 0.51896 0.0
C533 C 0.71514 0.56164 0.49089 0.0
C534 C 0.69889 0.56564 0.46258 0.0
C535 C 0.66676 0.56452 0.46238 0.0
H536 H 0.16574 0.30621 0.09834 0.0
H537 H 0.0854 0.2762 0.15379 0.0
H538 H 0.13795 0.35225 0.07365 0.0
H539 H 0.05734 0.32192 0.12876 0.0
H540 H 0.02885 0.42719 0.10515 0.0
H541 H 0.05499 0.37912 0.12768 0.0
H542 H 0.0979 0.36956 0.03862 0.0
H543 H 0.07244 0.4183 0.01637 0.0
C544 C 0.14195 0.30911 0.10489 0.0
C545 C 0.12788 0.28748 0.12815 0.0
C546 C 0.12593 0.33558 0.09068 0.0
C547 C 0.09531 0.3411 0.09921 0.0
C548 C 0.08104 0.31897 0.12197 0.0
C549 C 0.09712 0.29262 0.13629 0.0
C550 C 0.04375 0.41477 0.09031 0.0
C551 C 0.04852 0.42672 0.05892 0.0
C552 C 0.05866 0.38699 0.10321 0.0
C553 C 0.07867 0.37022 0.08506 0.0
C554 C 0.08309 0.38199 0.05352 0.0
C555 C 0.06828 0.40989 0.04066 0.0
H556 H 0.58255 0.23862 0.88345 0.0
H557 H 0.66108 0.21602 0.94259 0.0
H558 H 0.55398 0.19238 0.90966 0.0
H559 H 0.63295 0.16939 0.96833 0.0
H560 H 0.56708 0.10187 0.02598 0.0
H561 H 0.59194 0.15171 1.00259 0.0
H562 H 0.55253 0.13492 0.91314 0.0
H563 H 0.52683 0.08575 0.93682 0.0
C564 C 0.59372 0.2237 0.90203 0.0
C565 C 0.62409 0.23098 0.91092 0.0
C566 C 0.5774 0.19709 0.917 0.0
C567 C 0.59113 0.1769 0.94108 0.0
C568 C 0.62136 0.18459 0.95028 0.0
C569 C 0.63757 0.21135 0.93548 0.0
C570 C 0.56357 0.10894 1.00135 0.0
C571 C 0.54499 0.08978 0.98327 0.0
C572 C 0.578 0.13745 0.98786 0.0
C573 C 0.57444 0.14741 0.95587 0.0
C574 C 0.55548 0.12839 0.93792 0.0
C575 C 0.54085 0.10002 0.95147 0.0
H576 H 0.95797 0.74831 0.50965 0.0
H577 H 0.03931 0.75406 0.45133 0.0
H578 H 0.9704 0.80174 0.52553 0.0
H579 H 0.05137 0.8082 0.46697 0.0
H580 H 0.06643 0.90153 0.52139 0.0
H581 H 0.06272 0.84332 0.51474 0.0
H582 H 0.96738 0.85381 0.48772 0.0
H583 H 0.97096 0.91129 0.49388 0.0
C584 C 0.97906 0.76046 0.50099 0.0
C585 C 0.99749 0.74702 0.47896 0.0
C586 C 0.98599 0.79123 0.50988 0.0
C587 C 0.01153 0.8092 0.49705 0.0
C588 C 0.03151 0.7948 0.47715 0.0
C589 C 0.02449 0.76395 0.46808 0.0
C590 C 0.04475 0.89131 0.51396 0.0
C591 C 0.01899 0.91098 0.50818 0.0
C592 C 0.04267 0.85811 0.51018 0.0
C593 C 0.01465 0.84412 0.50119 0.0
C594 C 0.98909 0.86388 0.49524 0.0
C595 C 0.99126 0.8969 0.49852 0.0
H596 H 0.4721 0.76579 0.62858 0.0
H597 H 0.46863 0.78745 0.5283 0.0
H598 H 0.47751 0.70828 0.62188 0.0
H599 H 0.47514 0.73039 0.52187 0.0
H600 H 0.53004 0.63683 0.52562 0.0
H601 H 0.52074 0.69261 0.53493 0.0
H602 H 0.44645 0.66056 0.59794 0.0
H603 H 0.45552 0.60411 0.58842 0.0
C604 C 0.47225 0.75836 0.60516 0.0
C605 C 0.47031 0.7814 0.57896 0.0
C606 C 0.47537 0.72546 0.60139 0.0
C607 C 0.47697 0.71507 0.57138 0.0
C608 C 0.47442 0.73789 0.54526 0.0
C609 C 0.47093 0.77062 0.54899 0.0
C610 C 0.51176 0.6415 0.54158 0.0
C611 C 0.49346 0.61603 0.55627 0.0
C612 C 0.50637 0.6735 0.54675 0.0
C613 C 0.48279 0.68082 0.56698 0.0
C614 C 0.46482 0.65544 0.58228 0.0
C615 C 0.46994 0.62325 0.57675 0.0
H616 H 0.91951 0.95805 0.76514 0.0
H617 H 0.87107 0.88341 0.71996 0.0
H618 H 0.94434 0.97744 0.71585 0.0
H619 H 0.89636 0.90269 0.67046 0.0
H620 H 0.92513 0.97049 0.5815 0.0
H621 H 0.89818 0.95126 0.63004 0.0
H622 H 0.98354 0.95758 0.68093 0.0
H623 H 1.01041 0.97669 0.6327 0.0
C624 C 0.91395 0.94591 0.74461 0.0
C625 C 0.89317 0.91922 0.74654 0.0
C626 C 0.92845 0.95686 0.71639 0.0
C627 C 0.92243 0.94158 0.68919 0.0
C628 C 0.90134 0.91513 0.69093 0.0
C629 C 0.88705 0.90393 0.71933 0.0
C630 C 0.93812 0.96783 0.60306 0.0
C631 C 0.96995 0.97522 0.60316 0.0
C632 C 0.9227 0.95662 0.63084 0.0
C633 C 0.93867 0.95294 0.6594 0.0
C634 C 0.97045 0.96046 0.65944 0.0
C635 C 0.9859 0.9713 0.6317 0.0
H636 H 0.52846 0.11629 0.29434 0.0
H637 H 0.62179 0.08257 0.29762 0.0
H638 H 0.51739 0.08455 0.25053 0.0
H639 H 0.61168 0.0525 0.25305 0.0
H640 H 0.58734 0.99078 0.17852 0.0
H641 H 0.58873 0.01018 0.23024 0.0
H642 H 0.52794 0.08758 0.19759 0.0
H643 H 0.52527 0.06658 0.14679 0.0
C644 C 0.54647 0.10181 0.28578 0.0
C645 C 0.57591 0.10174 0.29931 0.0
C646 C 0.5403 0.08384 0.26053 0.0
C647 C 0.56368 0.06607 0.24785 0.0
C648 C 0.59281 0.06522 0.26234 0.0
C649 C 0.59874 0.08262 0.2879 0.0
C650 C 0.57397 0.01161 0.18281 0.0
C651 C 0.55637 0.02736 0.15884 0.0
C652 C 0.57486 0.02293 0.2123 0.0
C653 C 0.55883 0.05085 0.21819 0.0
C654 C 0.54025 0.06577 0.19433 0.0
C655 C 0.53881 0.05392 0.16508 0.0
H656 H 0.42346 0.64012 0.30502 0.0
H657 H 0.361 0.55719 0.31796 0.0
H658 H 0.44639 0.62471 0.35572 0.0
H659 H 0.38498 0.54092 0.36819 0.0
H660 H 0.41853 0.53719 0.47002 0.0
H661 H 0.39206 0.55467 0.42131 0.0
H662 H 0.47966 0.58331 0.37823 0.0
H663 H 0.50592 0.56662 0.42686 0.0
C664 C 0.41436 0.61876 0.31879 0.0
C665 C 0.39036 0.59989 0.30727 0.0
C666 C 0.42785 0.60965 0.34774 0.0
C667 C 0.41781 0.58134 0.36596 0.0
C668 C 0.39322 0.56294 0.35489 0.0
C669 C 0.37967 0.5721 0.3259 0.0
C670 C 0.43211 0.5472 0.45012 0.0
C671 C 0.46435 0.55056 0.4524 0.0
C672 C 0.41695 0.55711 0.42215 0.0
C673 C 0.43368 0.57061 0.39584 0.0
C674 C 0.46594 0.57363 0.39814 0.0
C675 C 0.48105 0.5638 0.42603 0.0
H676 H 0.07891 0.47947 0.71841 0.0
H677 H 0.01908 0.4014 0.75815 0.0
H678 H 0.07302 0.50723 0.76519 0.0
H679 H 0.01463 0.42823 0.80563 0.0
H680 H 1.00301 0.48575 0.8862 0.0
H681 H 0.99772 0.47218 0.83274 0.0
H682 H 0.09407 0.49674 0.81628 0.0
H683 H 0.09892 0.51196 0.8691 0.0
C684 C 0.06393 0.46853 0.73681 0.0
C685 C 0.0498 0.43795 0.73469 0.0
C686 C 0.06091 0.48427 0.76385 0.0
C687 C 0.04386 0.4697 0.78944 0.0
C688 C 0.02788 0.44027 0.78639 0.0
C689 C 0.03073 0.42465 0.75927 0.0
C690 C 0.02289 0.4891 0.871 0.0
C691 C 0.05155 0.4996 0.88218 0.0
C692 C 0.0199 0.48096 0.84037 0.0
C693 C 0.04551 0.48303 0.82025 0.0
C694 C 0.07374 0.4951 0.83096 0.0
C695 C 0.07668 0.50338 0.86149 0.0
H696 H 0.71266 0.86125 0.95734 0.0
H697 H 0.71322 0.94125 0.88496 0.0
H698 H 0.66492 0.88046 0.97803 0.0
H699 H 0.66494 0.9597 0.9052 0.0
H700 H 0.5633 0.96654 0.93588 0.0
H701 H 0.60881 0.94404 0.9132 0.0
H702 H 0.64951 0.92856 1.00483 0.0
H703 H 0.60424 0.95111 0.02748 0.0
C704 C 0.70272 0.88291 0.94576 0.0
C705 C 0.71723 0.89973 0.9195 0.0
C706 C 0.67521 0.89386 0.95763 0.0
C707 C 0.66114 0.92172 0.9434 0.0
C708 C 0.67498 0.93797 0.91657 0.0
C709 C 0.70269 0.92724 0.90488 0.0
C710 C 0.58187 0.95814 0.95122 0.0
C711 C 0.58006 0.96065 0.98354 0.0
C712 C 0.60803 0.94542 0.93818 0.0
C713 C 0.63283 0.93446 0.95718 0.0
C714 C 0.63073 0.93645 0.98955 0.0
C715 C 0.6048 0.94954 1.00252 0.0
H716 H 0.73712 0.08703 0.39699 0.0
H717 H 0.75316 0.14709 0.47203 0.0
H718 H 0.78331 0.05695 0.41153 0.0
H719 H 0.80026 0.11762 0.4862 0.0
H720 H 0.87349 0.04051 0.51419 0.0
H721 H 0.82349 0.06631 0.50589 0.0
H722 H 0.83712 0.07025 0.40614 0.0
H723 H 0.88632 0.04437 0.41446 0.0
C724 C 0.75059 0.09366 0.4167 0.0
C725 C 0.74195 0.11956 0.43317 0.0
C726 C 0.7771 0.07659 0.42496 0.0
C727 C 0.79583 0.08534 0.44961 0.0
C728 C 0.7863 0.11023 0.46715 0.0
C729 C 0.75944 0.12714 0.45904 0.0
C730 C 0.8657 0.04704 0.49056 0.0
C731 C 0.88361 0.04007 0.46497 0.0
C732 C 0.83714 0.06178 0.4858 0.0
C733 C 0.8261 0.06988 0.45535 0.0
C734 C 0.84444 0.06347 0.42989 0.0
C735 C 0.87274 0.04867 0.43465 0.0
H736 H 0.22244 0.6504 0.0892 0.0
H737 H 0.2139 0.57136 0.16218 0.0
H738 H 0.17318 0.63405 0.06753 0.0
H739 H 0.16435 0.55555 0.14083 0.0
H740 H 0.06417 0.55181 0.10745 0.0
H741 H 0.11038 0.57372 0.13111 0.0
H742 H 0.15433 0.5868 0.04067 0.0
H743 H 0.10822 0.56499 0.01697 0.0
C744 C 0.21009 0.62959 0.1007 0.0
C745 C 0.22241 0.61207 0.12734 0.0
C746 C 0.1818 0.62028 0.08829 0.0
C747 C 0.16493 0.59339 0.10234 0.0
C748 C 0.17662 0.57659 0.12962 0.0
C749 C 0.20504 0.58574 0.14192 0.0
C750 C 0.08358 0.55965 0.09255 0.0
C751 C 0.0825 0.5566 0.0603 0.0
C752 C 0.11011 0.57202 0.10616 0.0
C753 C 0.13604 0.58195 0.08779 0.0
C754 C 0.13464 0.57969 0.05543 0.0
C755 C 0.10825 0.56703 0.04187 0.0
H756 H 0.21808 0.41047 0.54375 0.0
H757 H 0.21048 0.48694 0.6044 0.0
H758 H 0.27079 0.4285 0.53081 0.0
H759 H 0.26355 0.50439 0.59212 0.0
H760 H 0.36088 0.53243 0.55851 0.0
H761 H 0.30475 0.52507 0.55355 0.0
H762 H 0.31482 0.42125 0.56725 0.0
H763 H 0.37027 0.42867 0.57186 0.0
C764 C 0.22728 0.43178 0.55353 0.0
C765 C 0.21033 0.44695 0.57551 0.0
C766 C 0.25759 0.4419 0.54635 0.0
C767 C 0.27148 0.46741 0.56096 0.0
C768 C 0.2535 0.48465 0.5805 0.0
C769 C 0.2232 0.47448 0.58773 0.0
C770 C 0.35094 0.50813 0.56 0.0
C771 C 0.36975 0.48113 0.56603 0.0
C772 C 0.31894 0.50391 0.55724 0.0
C773 C 0.30541 0.47259 0.55987 0.0
C774 C 0.32452 0.44568 0.56464 0.0
C775 C 0.35626 0.44991 0.56778 0.0
H776 H 0.88809 0.71549 0.88805 0.0
H777 H 0.91978 0.76082 0.96874 0.0
H778 H 0.91104 0.66453 0.90915 0.0
H779 H 0.94293 0.71019 0.98959 0.0
H780 H 0.95178 0.60483 0.03241 0.0
H781 H 0.92725 0.65461 0.01118 0.0
H782 H 0.96362 0.64228 0.91992 0.0
H783 H 0.98819 0.59241 0.94111 0.0
C784 C 0.89979 0.71453 0.91035 0.0
C785 C 0.90217 0.74227 0.92664 0.0
C786 C 0.91318 0.68543 0.92231 0.0
C787 C 0.92889 0.68326 0.95106 0.0
C788 C 0.93082 0.7109 0.96753 0.0
C789 C 0.91776 0.74002 0.95543 0.0
C790 C 0.95461 0.61272 1.00782 0.0
C791 C 0.97209 0.59463 0.98852 0.0
C792 C 0.94062 0.64134 0.99567 0.0
C793 C 0.94345 0.65248 0.96383 0.0
C794 C 0.96072 0.63425 0.94447 0.0
C795 C 0.97499 0.60578 0.95669 0.0
H796 H 0.3935 0.79251 0.16061 0.0
H797 H 0.42648 0.74872 0.08036 0.0
H798 H 0.41507 0.84502 0.1389 0.0
H799 H 0.44832 0.80096 0.05892 0.0
H800 H 0.45191 0.90651 0.01496 0.0
H801 H 0.42953 0.85483 0.03712 0.0
H802 H 0.46725 0.87113 0.12728 0.0
H803 H 0.48967 0.92296 0.10517 0.0
C804 C 0.40526 0.79414 0.13831 0.0
C805 C 0.40834 0.76648 0.12222 0.0
C806 C 0.41783 0.82411 0.12602 0.0
C807 C 0.4334 0.82711 0.09721 0.0
C808 C 0.43625 0.79949 0.08104 0.0
C809 C 0.42398 0.76952 0.09346 0.0
C810 C 0.45546 0.89911 0.03951 0.0
C811 C 0.47266 0.91884 0.05827 0.0
C812 C 0.44274 0.86942 0.05217 0.0
C813 C 0.44666 0.85889 0.08394 0.0
C814 C 0.46361 0.87873 0.10278 0.0
C815 C 0.47661 0.90831 0.09006 0.0
H816 H 0.0203 0.24395 0.62137 0.0
H817 H 0.05032 0.2682 0.52614 0.0
H818 H 1.0052 0.18962 0.60904 0.0
H819 H 0.0351 0.21358 0.51384 0.0
H820 H 0.98489 0.11432 0.50287 0.0
H821 H 0.9875 0.17149 0.51344 0.0
H822 H 0.04365 0.14595 0.59458 0.0
H823 H 0.04161 0.08933 0.58383 0.0
C824 C 0.02278 0.23801 0.59757 0.0
C825 C 0.03658 0.26027 0.57472 0.0
C826 C 0.01436 0.20684 0.59061 0.0
C827 C 0.01923 0.19744 0.56059 0.0
C828 C 0.03099 0.22034 0.53713 0.0
C829 C 0.03982 0.25146 0.5442 0.0
C830 C 0.99753 0.12098 0.52309 0.0
C831 C 0.01316 0.09748 0.54248 0.0
C832 C 0.99908 0.15359 0.52904 0.0
C833 C 0.01562 0.16296 0.55488 0.0
C834 C 0.03044 0.13928 0.5747 0.0
C835 C 0.02944 0.10693 0.56842 0.0
H836 H 0.5786 0.27478 0.50301 0.0
H837 H 0.54622 0.30735 0.41058 0.0
H838 H 0.56071 0.32501 0.52209 0.0
H839 H 0.52879 0.35745 0.42956 0.0
H840 H 0.55659 0.45646 0.4684 0.0
H841 H 0.56596 0.40298 0.45167 0.0
H842 H 0.50716 0.35894 0.52554 0.0
H843 H 0.49707 0.41273 0.54204 0.0
C844 C 0.56715 0.29239 0.487 0.0
C845 C 0.56372 0.28726 0.45538 0.0
C846 C 0.55688 0.32096 0.49789 0.0
C847 C 0.54362 0.34496 0.47716 0.0
C848 C 0.53906 0.33924 0.44589 0.0
C849 C 0.54881 0.31053 0.43514 0.0
C850 C 0.5456 0.43541 0.48104 0.0
C851 C 0.5261 0.43869 0.50648 0.0
C852 C 0.55082 0.4049 0.47136 0.0
C853 C 0.53712 0.37707 0.48729 0.0
C854 C 0.5179 0.38017 0.51296 0.0
C855 C 0.51212 0.41084 0.52227 0.0
loop_
_geom_bond_atom_site_label_1
_geom_bond_atom_site_label_2
_geom_bond_distance
_geom_bond_site_symmetry_2
_ccdc_geom_bond_type
P0 O11 1.490 . S
P0 C14 1.812 . S
P0 C20 1.803 . S
P0 C26 1.819 . S
H1 C15 0.941 . S
H2 C16 0.939 . S
H3 C18 0.940 . S
H4 C19 0.940 . S
H5 C21 0.939 . S
H6 C22 0.942 . S
H7 C24 0.940 . S
H8 C25 0.939 . S
H9 C27 0.941 . S
H10 C31 0.939 . S
O11 P0 1.490 . S
H12 C28 0.939 . S
H13 C30 0.940 . S
C14 P0 1.812 . S
C14 C15 1.389 . S
C14 C19 1.391 . S
C15 H1 0.941 . S
C15 C14 1.389 . S
C15 C16 1.397 . S
C16 H2 0.939 . S
C16 C15 1.397 . S
C16 C17 1.378 . S
C17 C16 1.378 . S
C17 C18 1.378 . S
C18 H3 0.940 . S
C18 C17 1.378 . S
C18 C19 1.396 . S
C19 H4 0.940 . S
C19 C14 1.391 . S
C19 C18 1.396 . S
C20 P0 1.803 . S
C20 C21 1.378 . S
C20 C25 1.400 . S
C21 H5 0.939 . S
C21 C20 1.378 . S
C21 C22 1.361 . S
C22 H6 0.942 . S
C22 C21 1.361 . S
C22 C23 1.369 . S
C23 C22 1.369 . S
C23 C24 1.404 . S
C24 H7 0.940 . S
C24 C23 1.404 . S
C24 C25 1.389 . S
C25 H8 0.939 . S
C25 C20 1.400 . S
C25 C24 1.389 . S
C26 P0 1.819 . S
C26 C27 1.391 . S
C26 C31 1.391 . S
C27 H9 0.941 . S
C27 C26 1.391 . S
C27 C28 1.396 . S
C28 H12 0.939 . S
C28 C27 1.396 . S
C28 C29 1.397 . S
C29 C28 1.397 . S
C29 C30 1.385 . S
C30 H13 0.940 . S
C30 C29 1.385 . S
C30 C31 1.388 . S
C31 H10 0.939 . S
C31 C26 1.391 . S
C31 C30 1.388 . S
P32 O43 1.490 . S
P32 C46 1.812 . S
P32 C52 1.803 . S
P32 C58 1.819 . S
H33 C47 0.941 . S
H34 C48 0.939 . S
H35 C50 0.940 . S
H36 C51 0.940 . S
H37 C53 0.939 . S
H38 C54 0.942 . S
H39 C56 0.940 . S
H40 C57 0.939 . S
H41 C59 0.941 . S
H42 C63 0.939 . S
O43 P32 1.490 . S
H44 C60 0.939 . S
H45 C62 0.940 . S
C46 P32 1.812 . S
C46 C47 1.389 . S
C46 C51 1.391 . S
C47 H33 0.941 . S
C47 C46 1.389 . S
C47 C48 1.397 . S
C48 H34 0.939 . S
C48 C47 1.397 . S
C48 C49 1.378 . S
C49 C48 1.378 . S
C49 C50 1.378 . S
C50 H35 0.940 . S
C50 C49 1.378 . S
C50 C51 1.396 . S
C51 H36 0.940 . S
C51 C46 1.391 . S
C51 C50 1.396 . S
C52 P32 1.803 . S
C52 C53 1.378 . S
C52 C57 1.400 . S
C53 H37 0.939 . S
C53 C52 1.378 . S
C53 C54 1.361 . S
C54 H38 0.942 . S
C54 C53 1.361 . S
C54 C55 1.369 . S
C55 C54 1.369 . S
C55 C56 1.404 . S
C56 H39 0.940 . S
C56 C55 1.404 . S
C56 C57 1.389 . S
C57 H40 0.939 . S
C57 C52 1.400 . S
C57 C56 1.389 . S
C58 P32 1.819 . S
C58 C59 1.391 . S
C58 C63 1.391 . S
C59 H41 0.941 . S
C59 C58 1.391 . S
C59 C60 1.396 . S
C60 H44 0.939 . S
C60 C59 1.396 . S
C60 C61 1.397 . S
C61 C60 1.397 . S
C61 C62 1.385 . S
C62 H45 0.940 . S
C62 C61 1.385 . S
C62 C63 1.388 . S
C63 H42 0.939 . S
C63 C58 1.391 . S
C63 C62 1.388 . S
P64 O75 1.490 . S
P64 C78 1.812 . S
P64 C84 1.803 . S
P64 C90 1.819 . S
H65 C79 0.941 . S
H66 C80 0.939 . S
H67 C82 0.940 . S
H68 C83 0.940 . S
H69 C85 0.939 . S
H70 C86 0.942 . S
H71 C88 0.940 . S
H72 C89 0.939 . S
H73 C91 0.941 . S
H74 C95 0.939 . S
O75 P64 1.490 . S
H76 C92 0.939 . S
H77 C94 0.940 . S
C78 P64 1.812 . S
C78 C79 1.389 . S
C78 C83 1.391 . S
C79 H65 0.941 . S
C79 C78 1.389 . S
C79 C80 1.397 . S
C80 H66 0.939 . S
C80 C79 1.397 . S
C80 C81 1.378 . S
C81 C80 1.378 . S
C81 C82 1.378 . S
C82 H67 0.940 . S
C82 C81 1.378 . S
C82 C83 1.396 . S
C83 H68 0.940 . S
C83 C78 1.391 . S
C83 C82 1.396 . S
C84 P64 1.803 . S
C84 C85 1.378 . S
C84 C89 1.400 . S
C85 H69 0.939 . S
C85 C84 1.378 . S
C85 C86 1.361 . S
C86 H70 0.942 . S
C86 C85 1.361 . S
C86 C87 1.369 . S
C87 C86 1.369 . S
C87 C88 1.404 . S
C88 H71 0.940 . S
C88 C87 1.404 . S
C88 C89 1.389 . S
C89 H72 0.939 . S
C89 C84 1.400 . S
C89 C88 1.389 . S
C90 P64 1.819 . S
C90 C91 1.391 . S
C90 C95 1.391 . S
C91 H73 0.941 . S
C91 C90 1.391 . S
C91 C92 1.396 . S
C92 H76 0.939 . S
C92 C91 1.396 . S
C92 C93 1.397 . S
C93 C92 1.397 . S
C93 C94 1.385 . S
C94 H77 0.940 . S
C94 C93 1.385 . S
C94 C95 1.388 . S
C95 H74 0.939 . S
C95 C90 1.391 . S
C95 C94 1.388 . S
P96 O107 1.490 . S
P96 C110 1.812 . S
P96 C116 1.803 . S
P96 C122 1.819 . S
H97 C111 0.941 . S
H98 C112 0.939 . S
H99 C114 0.940 . S
H100 C115 0.940 . S
H101 C117 0.939 . S
H102 C118 0.942 . S
H103 C120 0.940 . S
H104 C121 0.939 . S
H105 C123 0.941 . S
H106 C127 0.939 . S
O107 P96 1.490 . S
H108 C124 0.939 . S
H109 C126 0.940 . S
C110 P96 1.812 . S
C110 C111 1.389 . S
C110 C115 1.391 . S
C111 H97 0.941 . S
C111 C110 1.389 . S
C111 C112 1.397 . S
C112 H98 0.939 . S
C112 C111 1.397 . S
C112 C113 1.378 . S
C113 C112 1.378 . S
C113 C114 1.378 . S
C114 H99 0.940 . S
C114 C113 1.378 . S
C114 C115 1.396 . S
C115 H100 0.940 . S
C115 C110 1.391 . S
C115 C114 1.396 . S
C116 P96 1.803 . S
C116 C117 1.378 . S
C116 C121 1.400 . S
C117 H101 0.939 . S
C117 C116 1.378 . S
C117 C118 1.361 . S
C118 H102 0.942 . S
C118 C117 1.361 . S
C118 C119 1.369 . S
C119 C118 1.369 . S
C119 C120 1.404 . S
C120 H103 0.940 . S
C120 C119 1.404 . S
C120 C121 1.389 . S
C121 H104 0.939 . S
C121 C116 1.400 . S
C121 C120 1.389 . S
C122 P96 1.819 . S
C122 C123 1.391 . S
C122 C127 1.391 . S
C123 H105 0.941 . S
C123 C122 1.391 . S
C123 C124 1.396 . S
C124 H108 0.939 . S
C124 C123 1.396 . S
C124 C125 1.397 . S
C125 C124 1.397 . S
C125 C126 1.385 . S
C126 H109 0.940 . S
C126 C125 1.385 . S
C126 C127 1.388 . S
C127 H106 0.939 . S
C127 C122 1.391 . S
C127 C126 1.388 . S
P128 O139 1.490 . S
P128 C142 1.812 . S
P128 C148 1.803 . S
P128 C154 1.819 . S
H129 C143 0.941 . S
H130 C144 0.939 . S
H131 C146 0.940 . S
H132 C147 0.940 . S
H133 C149 0.939 . S
H134 C150 0.942 . S
H135 C152 0.940 . S
H136 C153 0.939 . S
H137 C155 0.941 . S
H138 C159 0.939 . S
O139 P128 1.490 . S
H140 C156 0.939 . S
H141 C158 0.940 . S
C142 P128 1.812 . S
C142 C143 1.389 . S
C142 C147 1.391 . S
C143 H129 0.941 . S
C143 C142 1.389 . S
C143 C144 1.397 . S
C144 H130 0.939 . S
C144 C143 1.397 . S
C144 C145 1.378 . S
C145 C144 1.378 . S
C145 C146 1.378 . S
C146 H131 0.940 . S
C146 C145 1.378 . S
C146 C147 1.396 . S
C147 H132 0.940 . S
C147 C142 1.391 . S
C147 C146 1.396 . S
C148 P128 1.803 . S
C148 C149 1.378 . S
C148 C153 1.400 . S
C149 H133 0.939 . S
C149 C148 1.378 . S
C149 C150 1.361 . S
C150 H134 0.942 . S
C150 C149 1.361 . S
C150 C151 1.369 . S
C151 C150 1.369 . S
C151 C152 1.404 . S
C152 H135 0.940 . S
C152 C151 1.404 . S
C152 C153 1.389 . S
C153 H136 0.939 . S
C153 C148 1.400 . S
C153 C152 1.389 . S
C154 P128 1.819 . S
C154 C155 1.391 . S
C154 C159 1.391 . S
C155 H137 0.941 . S
C155 C154 1.391 . S
C155 C156 1.396 . S
C156 H140 0.939 . S
C156 C155 1.396 . S
C156 C157 1.397 . S
C157 C156 1.397 . S
C157 C158 1.385 . S
C158 H141 0.940 . S
C158 C157 1.385 . S
C158 C159 1.388 . S
C159 H138 0.939 . S
C159 C154 1.391 . S
C159 C158 1.388 . S
P160 O171 1.490 . S
P160 C174 1.812 . S
P160 C180 1.803 . S
P160 C186 1.819 . S
H161 C175 0.941 . S
H162 C176 0.939 . S
H163 C178 0.940 . S
H164 C179 0.940 . S
H165 C181 0.939 . S
H166 C182 0.942 . S
H167 C184 0.940 . S
H168 C185 0.939 . S
H169 C187 0.941 . S
H170 C191 0.939 . S
O171 P160 1.490 . S
H172 C188 0.939 . S
H173 C190 0.940 . S
C174 P160 1.812 . S
C174 C175 1.389 . S
C174 C179 1.391 . S
C175 H161 0.941 . S
C175 C174 1.389 . S
C175 C176 1.397 . S
C176 H162 0.939 . S
C176 C175 1.397 . S
C176 C177 1.378 . S
C177 C176 1.378 . S
C177 C178 1.378 . S
C178 H163 0.940 . S
C178 C177 1.378 . S
C178 C179 1.396 . S
C179 H164 0.940 . S
C179 C174 1.391 . S
C179 C178 1.396 . S
C180 P160 1.803 . S
C180 C181 1.378 . S
C180 C185 1.400 . S
C181 H165 0.939 . S
C181 C180 1.378 . S
C181 C182 1.361 . S
C182 H166 0.942 . S
C182 C181 1.361 . S
C182 C183 1.369 . S
C183 C182 1.369 . S
C183 C184 1.404 . S
C184 H167 0.940 . S
C184 C183 1.404 . S
C184 C185 1.389 . S
C185 H168 0.939 . S
C185 C180 1.400 . S
C185 C184 1.389 . S
C186 P160 1.819 . S
C186 C187 1.391 . S
C186 C191 1.391 . S
C187 H169 0.941 . S
C187 C186 1.391 . S
C187 C188 1.396 . S
C188 H172 0.939 . S
C188 C187 1.396 . S
C188 C189 1.397 . S
C189 C188 1.397 . S
C189 C190 1.385 . S
C190 H173 0.940 . S
C190 C189 1.385 . S
C190 C191 1.388 . S
C191 H170 0.939 . S
C191 C186 1.391 . S
C191 C190 1.388 . S
P192 O203 1.490 . S
P192 C206 1.812 . S
P192 C212 1.803 . S
P192 C218 1.819 . S
H193 C207 0.941 . S
H194 C208 0.939 . S
H195 C210 0.940 . S
H196 C211 0.940 . S
H197 C213 0.939 . S
H198 C214 0.942 . S
H199 C216 0.940 . S
H200 C217 0.939 . S
H201 C219 0.941 . S
H202 C223 0.939 . S
O203 P192 1.490 . S
H204 C220 0.939 . S
H205 C222 0.940 . S
C206 P192 1.812 . S
C206 C207 1.389 . S
C206 C211 1.391 . S
C207 H193 0.941 . S
C207 C206 1.389 . S
C207 C208 1.397 . S
C208 H194 0.939 . S
C208 C207 1.397 . S
C208 C209 1.378 . S
C209 C208 1.378 . S
C209 C210 1.378 . S
C210 H195 0.940 . S
C210 C209 1.378 . S
C210 C211 1.396 . S
C211 H196 0.940 . S
C211 C206 1.391 . S
C211 C210 1.396 . S
C212 P192 1.803 . S
C212 C213 1.378 . S
C212 C217 1.400 . S
C213 H197 0.939 . S
C213 C212 1.378 . S
C213 C214 1.361 . S
C214 H198 0.942 . S
C214 C213 1.361 . S
C214 C215 1.369 . S
C215 C214 1.369 . S
C215 C216 1.404 . S
C216 H199 0.940 . S
C216 C215 1.404 . S
C216 C217 1.389 . S
C217 H200 0.939 . S
C217 C212 1.400 . S
C217 C216 1.389 . S
C218 P192 1.819 . S
C218 C219 1.391 . S
C218 C223 1.391 . S
C219 H201 0.941 . S
C219 C218 1.391 . S
C219 C220 1.396 . S
C220 H204 0.939 . S
C220 C219 1.396 . S
C220 C221 1.397 . S
C221 C220 1.397 . S
C221 C222 1.385 . S
C222 H205 0.940 . S
C222 C221 1.385 . S
C222 C223 1.388 . S
C223 H202 0.939 . S
C223 C218 1.391 . S
C223 C222 1.388 . S
P224 O235 1.490 . S
P224 C238 1.812 . S
P224 C244 1.803 . S
P224 C250 1.819 . S
H225 C239 0.941 . S
H226 C240 0.939 . S
H227 C242 0.940 . S
H228 C243 0.940 . S
H229 C245 0.939 . S
H230 C246 0.942 . S
H231 C248 0.940 . S
H232 C249 0.939 . S
H233 C251 0.941 . S
H234 C255 0.939 . S
O235 P224 1.490 . S
H236 C252 0.939 . S
H237 C254 0.940 . S
C238 P224 1.812 . S
C238 C239 1.389 . S
C238 C243 1.391 . S
C239 H225 0.941 . S
C239 C238 1.389 . S
C239 C240 1.397 . S
C240 H226 0.939 . S
C240 C239 1.397 . S
C240 C241 1.378 . S
C241 C240 1.378 . S
C241 C242 1.378 . S
C242 H227 0.940 . S
C242 C241 1.378 . S
C242 C243 1.396 . S
C243 H228 0.940 . S
C243 C238 1.391 . S
C243 C242 1.396 . S
C244 P224 1.803 . S
C244 C245 1.378 . S
C244 C249 1.400 . S
C245 H229 0.939 . S
C245 C244 1.378 . S
C245 C246 1.361 . S
C246 H230 0.942 . S
C246 C245 1.361 . S
C246 C247 1.369 . S
C247 C246 1.369 . S
C247 C248 1.404 . S
C248 H231 0.940 . S
C248 C247 1.404 . S
C248 C249 1.389 . S
C249 H232 0.939 . S
C249 C244 1.400 . S
C249 C248 1.389 . S
C250 P224 1.819 . S
C250 C251 1.391 . S
C250 C255 1.391 . S
C251 H233 0.941 . S
C251 C250 1.391 . S
C251 C252 1.396 . S
C252 H236 0.939 . S
C252 C251 1.396 . S
C252 C253 1.397 . S
C253 C252 1.397 . S
C253 C254 1.385 . S
C254 H237 0.940 . S
C254 C253 1.385 . S
C254 C255 1.388 . S
C255 H234 0.939 . S
C255 C250 1.391 . S
C255 C254 1.388 . S
Co256 N261 2.057 . S
Co256 O273 2.021 . S
Co256 O276 2.062 . S
Co256 O280 2.117 1_545 S
Co256 O281 2.020 . S
C257 O277 1.259 1_655 S
C257 O280 1.258 . S
Co258 N267 2.057 . S
Co258 O274 2.117 1_565 S
Co258 O275 2.020 1_565 S
Co258 O277 2.021 . S
Co258 O282 2.062 . S
C259 N261 1.316 . S
C259 N262 1.347 . S
C259 H264 0.931 . S
C260 N261 1.397 . S
C260 C263 1.364 . S
C260 H265 0.899 1_545 S
N261 Co256 2.057 . S
N261 C259 1.316 . S
N261 C260 1.397 . S
N262 C259 1.347 . S
N262 C263 1.373 . S
C263 C260 1.364 . S
C263 N262 1.373 . S
C263 H284 0.931 . S
H264 C259 0.931 . S
H265 C260 0.899 1_565 S
C266 O273 1.259 1_455 S
C266 O274 1.258 . S
N267 Co258 2.057 . S
N267 C268 1.316 . S
N267 C269 1.375 1_565 S
C268 N267 1.316 . S
C268 N270 1.347 . S
C268 H279 0.931 . S
C269 N267 1.375 1_545 S
C269 C271 1.350 1_545 S
C269 H278 0.930 . S
N270 C268 1.347 . S
N270 C271 1.373 . S
C271 C269 1.350 1_565 S
C271 N270 1.373 . S
C271 H285 0.931 1_565 S
C272 O275 1.256 . S
C272 O276 1.255 1_455 S
O273 Co256 2.021 . S
O273 C266 1.259 1_655 S
O274 Co258 2.117 1_545 S
O274 C266 1.258 . S
O275 Co258 2.020 1_545 S
O275 C272 1.256 . S
O276 Co256 2.062 . S
O276 C272 1.255 1_655 S
O277 C257 1.259 1_455 S
O277 Co258 2.021 . S
H278 C269 0.930 . S
H279 C268 0.931 . S
O280 Co256 2.117 1_565 S
O280 C257 1.258 . S
O281 Co256 2.020 . S
O281 C283 1.256 1_545 S
O282 Co258 2.062 . S
O282 C283 1.255 1_455 S
C283 O281 1.256 1_565 S
C283 O282 1.255 1_655 S
H284 C263 0.931 . S
H285 C271 0.931 1_545 S
Co286 N291 2.057 1_545 S
Co286 O303 2.021 . S
Co286 O306 2.062 1_545 S
Co286 O310 2.117 1_546 S
Co286 O311 2.020 1_556 S
C287 O307 1.259 . S
C287 O310 1.258 . S
Co288 N297 2.057 . S
Co288 O304 2.117 . S
Co288 O305 2.020 1_545 S
Co288 O307 2.021 1_545 S
Co288 O312 2.062 . S
C289 N291 1.316 . S
C289 N292 1.347 . S
C289 H294 0.931 1_565 S
C290 N291 1.375 . S
C290 C293 1.350 . S
C290 H295 0.930 . S
N291 Co286 2.057 1_565 S
N291 C289 1.316 . S
N291 C290 1.375 . S
N292 C289 1.347 . S
N292 C293 1.373 . S
C293 C290 1.350 . S
C293 N292 1.373 . S
C293 H314 0.931 . S
H294 C289 0.931 1_545 S
H295 C290 0.930 . S
C296 O303 1.259 . S
C296 O304 1.258 1_556 S
N297 Co288 2.057 . S
N297 C298 1.316 . S
N297 C299 1.375 . S
C298 N297 1.316 . S
C298 N300 1.347 . S
C298 H309 0.931 . S
C299 N297 1.375 . S
C299 C301 1.350 . S
C299 H308 0.930 . S
N300 C298 1.347 . S
N300 C301 1.373 . S
C301 C299 1.350 . S
C301 N300 1.373 . S
C301 H315 0.931 . S
C302 O305 1.256 1_556 S
C302 O306 1.255 . S
O303 Co286 2.021 . S
O303 C296 1.259 . S
O304 Co288 2.117 . S
O304 C296 1.258 1_554 S
O305 Co288 2.020 1_565 S
O305 C302 1.256 1_554 S
O306 Co286 2.062 1_565 S
O306 C302 1.255 . S
O307 C287 1.259 . S
O307 Co288 2.021 1_565 S
H308 C299 0.930 . S
H309 C298 0.931 . S
O310 Co286 2.117 1_564 S
O310 C287 1.258 . S
O311 Co286 2.020 1_554 S
O311 C313 1.256 . S
O312 Co288 2.062 . S
O312 C313 1.255 . S
C313 O311 1.256 . S
C313 O312 1.255 . S
H314 C293 0.931 . S
H315 C301 0.931 . S
Co316 N321 2.057 . S
Co316 O333 2.021 . S
Co316 O336 2.062 . S
Co316 O340 2.117 . S
Co316 O341 2.020 . S
C317 O337 1.259 . S
C317 O340 1.258 . S
Co318 N327 2.057 . S
Co318 O334 2.117 . S
Co318 O335 2.020 . S
Co318 O337 2.021 . S
Co318 O342 2.062 . S
C319 N321 1.316 . S
C319 N322 1.347 . S
C319 H324 0.931 . S
C320 N321 1.375 . S
C320 C323 1.350 . S
C320 H325 0.930 . S
N321 Co316 2.057 . S
N321 C319 1.316 . S
N321 C320 1.375 . S
N322 C319 1.347 . S
N322 C323 1.373 . S
C323 C320 1.350 . S
C323 N322 1.373 . S
C323 H344 0.931 . S
H324 C319 0.931 . S
H325 C320 0.930 . S
C326 O333 1.259 . S
C326 O334 1.258 . S
N327 Co318 2.057 . S
N327 C328 1.316 . S
N327 C329 1.375 . S
C328 N327 1.316 . S
C328 N330 1.347 . S
C328 H339 0.931 . S
C329 N327 1.375 . S
C329 C331 1.350 . S
C329 H338 0.930 . S
N330 C328 1.347 . S
N330 C331 1.373 . S
C331 C329 1.350 . S
C331 N330 1.373 . S
C331 H345 0.931 . S
C332 O335 1.256 . S
C332 O336 1.255 . S
O333 Co316 2.021 . S
O333 C326 1.259 . S
O334 Co318 2.117 . S
O334 C326 1.258 . S
O335 Co318 2.020 . S
O335 C332 1.256 . S
O336 Co316 2.062 . S
O336 C332 1.255 . S
O337 C317 1.259 . S
O337 Co318 2.021 . S
H338 C329 0.930 . S
H339 C328 0.931 . S
O340 Co316 2.117 . S
O340 C317 1.258 . S
O341 Co316 2.020 . S
O341 C343 1.256 . S
O342 Co318 2.062 . S
O342 C343 1.255 . S
C343 O341 1.256 . S
C343 O342 1.255 . S
H344 C323 0.931 . S
H345 C331 0.931 . S
Co346 N351 2.057 . S
Co346 O363 2.021 . S
Co346 O366 2.050 1_556 S
Co346 O370 2.117 1_455 S
Co346 O371 2.020 1_455 S
C347 O367 1.279 . S
C347 O370 1.246 1_554 S
Co348 N357 2.057 . S
Co348 O364 2.117 1_655 S
Co348 O365 2.020 1_655 S
Co348 O367 2.021 . S
Co348 O372 2.062 . S
C349 N351 1.316 . S
C349 N352 1.347 . S
C349 H354 0.931 . S
C350 N351 1.375 1_655 S
C350 C353 1.350 1_655 S
C350 H355 0.930 . S
N351 Co346 2.057 . S
N351 C349 1.316 . S
N351 C350 1.375 1_455 S
N352 C349 1.347 . S
N352 C353 1.373 . S
C353 C350 1.350 1_455 S
C353 N352 1.373 . S
C353 H374 0.931 1_455 S
H354 C349 0.931 . S
H355 C350 0.930 . S
C356 O363 1.259 1_554 S
C356 O364 1.258 . S
N357 Co348 2.057 . S
N357 C358 1.316 . S
N357 C359 1.375 1_655 S
C358 N357 1.316 . S
C358 N360 1.347 . S
C358 H369 0.931 . S
C359 N357 1.375 1_455 S
C359 C361 1.350 1_455 S
C359 H368 0.930 . S
N360 C358 1.347 . S
N360 C361 1.373 . S
C361 C359 1.350 1_655 S
C361 N360 1.373 . S
C361 H375 0.931 1_655 S
C362 O365 1.256 . S
C362 O366 1.282 . S
O363 Co346 2.021 . S
O363 C356 1.259 1_556 S
O364 Co348 2.117 1_455 S
O364 C356 1.258 . S
O365 Co348 2.020 1_455 S
O365 C362 1.256 . S
O366 Co346 2.050 1_554 S
O366 C362 1.282 . S
O367 C347 1.279 . S
O367 Co348 2.021 . S
H368 C359 0.930 . S
H369 C358 0.931 . S
O370 Co346 2.117 1_655 S
O370 C347 1.246 1_556 S
O371 Co346 2.020 1_655 S
O371 C373 1.256 . S
O372 Co348 2.062 . S
O372 C373 1.255 1_554 S
C373 O371 1.256 . S
C373 O372 1.255 1_556 S
H374 C353 0.931 1_655 S
H375 C361 0.931 1_455 S
H376 C384 0.950 . S
H377 C389 0.950 . S
H378 C386 0.950 . S
H379 C388 0.950 . S
H380 C390 0.950 1_655 S
H381 C392 0.950 . S
H382 C394 0.950 . S
H383 C395 0.950 . S
C384 H376 0.950 . S
C384 C385 1.386 . S
C384 C386 1.391 . S
C385 C384 1.386 . S
C385 C389 1.393 . S
C386 H378 0.950 . S
C386 C384 1.391 . S
C386 C387 1.400 . S
C387 C386 1.400 . S
C387 C388 1.398 . S
C387 C393 1.491 . S
C388 H379 0.950 . S
C388 C387 1.398 . S
C388 C389 1.391 . S
C389 H377 0.950 . S
C389 C385 1.393 . S
C389 C388 1.391 . S
C390 H380 0.950 1_455 S
C390 C391 1.386 . S
C390 C392 1.391 . S
C391 C390 1.386 . S
C391 C395 1.393 . S
C392 H381 0.950 . S
C392 C390 1.391 . S
C392 C393 1.400 . S
C393 C387 1.491 . S
C393 C392 1.400 . S
C393 C394 1.398 . S
C394 H382 0.950 . S
C394 C393 1.398 . S
C394 C395 1.391 . S
C395 H383 0.950 . S
C395 C391 1.393 . S
C395 C394 1.391 . S
H396 C404 0.950 . S
H397 C409 0.950 . S
H398 C406 0.950 . S
H399 C408 0.950 . S
H400 C410 0.950 . S
H401 C412 0.950 . S
H402 C414 0.950 . S
H403 C415 0.950 . S
C404 H396 0.950 . S
C404 C405 1.386 . S
C404 C406 1.391 . S
C405 C404 1.386 . S
C405 C409 1.393 . S
C406 H398 0.950 . S
C406 C404 1.391 . S
C406 C407 1.400 . S
C407 C406 1.400 . S
C407 C408 1.398 . S
C407 C413 1.491 . S
C408 H399 0.950 . S
C408 C407 1.398 . S
C408 C409 1.391 . S
C409 H397 0.950 . S
C409 C405 1.393 . S
C409 C408 1.391 . S
C410 H400 0.950 . S
C410 C411 1.386 . S
C410 C412 1.391 . S
C411 C410 1.386 . S
C411 C415 1.393 . S
C412 H401 0.950 . S
C412 C410 1.391 . S
C412 C413 1.400 . S
C413 C407 1.491 . S
C413 C412 1.400 . S
C413 C414 1.398 . S
C414 H402 0.950 . S
C414 C413 1.398 . S
C414 C415 1.391 . S
C415 H403 0.950 . S
C415 C411 1.393 . S
C415 C414 1.391 . S
H416 C424 0.950 . S
H417 C429 0.950 . S
H418 C426 0.950 . S
H419 C428 0.950 . S
H420 C430 0.950 . S
H421 C432 0.950 . S
H422 C434 0.950 . S
H423 C435 0.950 . S
C424 H416 0.950 . S
C424 C425 1.386 . S
C424 C426 1.391 . S
C425 C424 1.386 . S
C425 C429 1.393 . S
C426 H418 0.950 . S
C426 C424 1.391 . S
C426 C427 1.400 . S
C427 C426 1.400 . S
C427 C428 1.398 . S
C427 C433 1.491 . S
C428 H419 0.950 . S
C428 C427 1.398 . S
C428 C429 1.391 . S
C429 H417 0.950 . S
C429 C425 1.393 . S
C429 C428 1.391 . S
C430 H420 0.950 . S
C430 C431 1.386 . S
C430 C432 1.391 . S
C431 C430 1.386 . S
C431 C435 1.393 . S
C432 H421 0.950 . S
C432 C430 1.391 . S
C432 C433 1.400 . S
C433 C427 1.491 . S
C433 C432 1.400 . S
C433 C434 1.398 . S
C434 H422 0.950 . S
C434 C433 1.398 . S
C434 C435 1.391 . S
C435 H423 0.950 . S
C435 C431 1.393 . S
C435 C434 1.391 . S
H436 C444 0.950 . S
H437 C449 0.950 . S
H438 C446 0.950 . S
H439 C448 0.950 . S
H440 C450 0.950 . S
H441 C452 0.950 . S
H442 C454 0.950 . S
H443 C455 0.950 . S
C444 H436 0.950 . S
C444 C445 1.386 . S
C444 C446 1.391 . S
C445 C444 1.386 . S
C445 C449 1.393 . S
C446 H438 0.950 . S
C446 C444 1.391 . S
C446 C447 1.400 . S
C447 C446 1.400 . S
C447 C448 1.398 . S
C447 C453 1.491 . S
C448 H439 0.950 . S
C448 C447 1.398 . S
C448 C449 1.391 . S
C449 H437 0.950 . S
C449 C445 1.393 . S
C449 C448 1.391 . S
C450 H440 0.950 . S
C450 C451 1.386 . S
C450 C452 1.391 . S
C451 C450 1.386 . S
C451 C455 1.393 . S
C452 H441 0.950 . S
C452 C450 1.391 . S
C452 C453 1.400 . S
C453 C447 1.491 . S
C453 C452 1.400 . S
C453 C454 1.398 . S
C454 H442 0.950 . S
C454 C453 1.398 . S
C454 C455 1.391 . S
C455 H443 0.950 . S
C455 C451 1.393 . S
C455 C454 1.391 . S
H456 C464 0.950 . S
H457 C469 0.950 . S
H458 C466 0.950 . S
H459 C468 0.950 . S
H460 C470 0.950 1_565 S
H461 C472 0.950 . S
H462 C474 0.950 . S
H463 C475 0.950 . S
C464 H456 0.950 . S
C464 C465 1.386 . S
C464 C466 1.391 . S
C465 C464 1.386 . S
C465 C469 1.393 . S
C466 H458 0.950 . S
C466 C464 1.391 . S
C466 C467 1.400 . S
C467 C466 1.400 . S
C467 C468 1.398 . S
C467 C473 1.491 . S
C468 H459 0.950 . S
C468 C467 1.398 . S
C468 C469 1.391 . S
C469 H457 0.950 . S
C469 C465 1.393 . S
C469 C468 1.391 . S
C470 H460 0.950 1_545 S
C470 C471 1.386 . S
C470 C472 1.391 . S
C471 C470 1.386 . S
C471 C475 1.393 . S
C472 H461 0.950 . S
C472 C470 1.391 . S
C472 C473 1.400 . S
C473 C467 1.491 . S
C473 C472 1.400 . S
C473 C474 1.398 . S
C474 H462 0.950 . S
C474 C473 1.398 . S
C474 C475 1.391 . S
C475 H463 0.950 . S
C475 C471 1.393 . S
C475 C474 1.391 . S
H476 C484 0.950 . S
H477 C489 0.950 . S
H478 C486 0.950 . S
H479 C488 0.950 . S
H480 C490 0.950 . S
H481 C492 0.950 . S
H482 C494 0.950 . S
H483 C495 0.950 . S
C484 H476 0.950 . S
C484 C485 1.386 . S
C484 C486 1.391 . S
C485 C484 1.386 . S
C485 C489 1.393 . S
C486 H478 0.950 . S
C486 C484 1.391 . S
C486 C487 1.400 . S
C487 C486 1.400 . S
C487 C488 1.398 . S
C487 C493 1.491 . S
C488 H479 0.950 . S
C488 C487 1.398 . S
C488 C489 1.391 . S
C489 H477 0.950 . S
C489 C485 1.393 . S
C489 C488 1.391 . S
C490 H480 0.950 . S
C490 C491 1.386 . S
C490 C492 1.391 . S
C491 C490 1.386 . S
C491 C495 1.393 . S
C492 H481 0.950 . S
C492 C490 1.391 . S
C492 C493 1.400 . S
C493 C487 1.491 . S
C493 C492 1.400 . S
C493 C494 1.398 . S
C494 H482 0.950 . S
C494 C493 1.398 . S
C494 C495 1.391 . S
C495 H483 0.950 . S
C495 C491 1.393 . S
C495 C494 1.391 . S
H496 C504 0.950 . S
H497 C509 0.950 . S
H498 C506 0.950 . S
H499 C508 0.950 . S
H500 C510 0.950 . S
H501 C512 0.950 . S
H502 C514 0.950 1_554 S
H503 C515 0.950 . S
C504 H496 0.950 . S
C504 C505 1.386 . S
C504 C506 1.391 . S
C505 C504 1.386 . S
C505 C509 1.393 . S
C506 H498 0.950 . S
C506 C504 1.391 . S
C506 C507 1.400 . S
C507 C506 1.400 . S
C507 C508 1.398 . S
C507 C513 1.491 . S
C508 H499 0.950 . S
C508 C507 1.398 . S
C508 C509 1.391 . S
C509 H497 0.950 . S
C509 C505 1.393 . S
C509 C508 1.391 . S
C510 H500 0.950 . S
C510 C511 1.386 . S
C510 C512 1.391 . S
C511 C510 1.386 . S
C511 C515 1.393 1_556 S
C512 H501 0.950 . S
C512 C510 1.391 . S
C512 C513 1.400 . S
C513 C507 1.491 . S
C513 C512 1.400 . S
C513 C514 1.398 . S
C514 H502 0.950 1_556 S
C514 C513 1.398 . S
C514 C515 1.391 1_556 S
C515 H503 0.950 . S
C515 C511 1.393 1_554 S
C515 C514 1.391 1_554 S
H516 C524 0.950 . S
H517 C529 0.950 . S
H518 C526 0.950 . S
H519 C528 0.950 . S
H520 C530 0.950 . S
H521 C532 0.950 . S
H522 C534 0.950 . S
H523 C535 0.950 . S
C524 H516 0.950 . S
C524 C525 1.386 . S
C524 C526 1.391 . S
C525 C524 1.386 . S
C525 C529 1.393 . S
C526 H518 0.950 . S
C526 C524 1.391 . S
C526 C527 1.400 . S
C527 C526 1.400 . S
C527 C528 1.398 . S
C527 C533 1.491 . S
C528 H519 0.950 . S
C528 C527 1.398 . S
C528 C529 1.391 . S
C529 H517 0.950 . S
C529 C525 1.393 . S
C529 C528 1.391 . S
C530 H520 0.950 . S
C530 C531 1.386 . S
C530 C532 1.391 . S
C531 C530 1.386 . S
C531 C535 1.393 . S
C532 H521 0.950 . S
C532 C530 1.391 . S
C532 C533 1.400 . S
C533 C527 1.491 . S
C533 C532 1.400 . S
C533 C534 1.398 . S
C534 H522 0.950 . S
C534 C533 1.398 . S
C534 C535 1.391 . S
C535 H523 0.950 . S
C535 C531 1.393 . S
C535 C534 1.391 . S
H536 C544 0.950 . S
H537 C549 0.950 . S
H538 C546 0.950 . S
H539 C548 0.950 . S
H540 C550 0.950 . S
H541 C552 0.950 . S
H542 C554 0.950 . S
H543 C555 0.950 1_556 S
C544 H536 0.950 . S
C544 C545 1.386 . S
C544 C546 1.391 . S
C545 C544 1.386 . S
C545 C549 1.393 . S
C546 H538 0.950 . S
C546 C544 1.391 . S
C546 C547 1.400 . S
C547 C546 1.400 . S
C547 C548 1.398 . S
C547 C553 1.491 . S
C548 H539 0.950 . S
C548 C547 1.398 . S
C548 C549 1.391 . S
C549 H537 0.950 . S
C549 C545 1.393 . S
C549 C548 1.391 . S
C550 H540 0.950 . S
C550 C551 1.386 . S
C550 C552 1.391 . S
C551 C550 1.386 . S
C551 C555 1.393 . S
C552 H541 0.950 . S
C552 C550 1.391 . S
C552 C553 1.400 . S
C553 C547 1.491 . S
C553 C552 1.400 . S
C553 C554 1.398 . S
C554 H542 0.950 . S
C554 C553 1.398 . S
C554 C555 1.391 . S
C555 H543 0.950 1_554 S
C555 C551 1.393 . S
C555 C554 1.391 . S
H556 C564 0.950 . S
H557 C569 0.950 . S
H558 C566 0.950 . S
H559 C568 0.950 . S
H560 C570 0.950 1_554 S
H561 C572 0.957 . S
H562 C574 0.950 . S
H563 C575 0.950 . S
C564 H556 0.950 . S
C564 C565 1.386 . S
C564 C566 1.391 . S
C565 C564 1.386 . S
C565 C569 1.393 . S
C566 H558 0.950 . S
C566 C564 1.391 . S
C566 C567 1.400 . S
C567 C566 1.400 . S
C567 C568 1.398 . S
C567 C573 1.491 . S
C568 H559 0.950 . S
C568 C567 1.398 . S
C568 C569 1.391 . S
C569 H557 0.950 . S
C569 C565 1.393 . S
C569 C568 1.391 . S
C570 H560 0.950 1_556 S
C570 C571 1.386 . S
C570 C572 1.391 . S
C571 C570 1.386 . S
C571 C575 1.393 . S
C572 H561 0.957 . S
C572 C570 1.391 . S
C572 C573 1.400 . S
C573 C567 1.491 . S
C573 C572 1.400 . S
C573 C574 1.398 . S
C574 H562 0.950 . S
C574 C573 1.398 . S
C574 C575 1.391 . S
C575 H563 0.950 . S
C575 C571 1.393 . S
C575 C574 1.391 . S
H576 C584 0.950 . S
H577 C589 0.950 . S
H578 C586 0.950 . S
H579 C588 0.950 1_455 S
H580 C590 0.950 . S
H581 C592 0.950 1_455 S
H582 C594 0.950 . S
H583 C595 0.950 . S
C584 H576 0.950 . S
C584 C585 1.386 . S
C584 C586 1.391 . S
C585 C584 1.386 . S
C585 C589 1.393 . S
C586 H578 0.950 . S
C586 C584 1.391 . S
C586 C587 1.400 . S
C587 C586 1.400 . S
C587 C588 1.398 . S
C587 C593 1.491 . S
C588 H579 0.950 1_655 S
C588 C587 1.398 . S
C588 C589 1.391 . S
C589 H577 0.950 . S
C589 C585 1.393 . S
C589 C588 1.391 . S
C590 H580 0.950 . S
C590 C591 1.386 1_455 S
C590 C592 1.391 1_455 S
C591 C590 1.386 1_655 S
C591 C595 1.393 . S
C592 H581 0.950 1_655 S
C592 C590 1.391 1_655 S
C592 C593 1.400 . S
C593 C587 1.491 . S
C593 C592 1.400 . S
C593 C594 1.398 . S
C594 H582 0.950 . S
C594 C593 1.398 . S
C594 C595 1.391 . S
C595 H583 0.950 . S
C595 C591 1.393 . S
C595 C594 1.391 . S
H596 C604 0.950 . S
H597 C609 0.950 . S
H598 C606 0.950 . S
H599 C608 0.950 . S
H600 C610 0.950 . S
H601 C612 0.950 . S
H602 C614 0.950 . S
H603 C615 0.950 . S
C604 H596 0.950 . S
C604 C605 1.386 . S
C604 C606 1.391 . S
C605 C604 1.386 . S
C605 C609 1.393 . S
C606 H598 0.950 . S
C606 C604 1.391 . S
C606 C607 1.400 . S
C607 C606 1.400 . S
C607 C608 1.398 . S
C607 C613 1.491 . S
C608 H599 0.950 . S
C608 C607 1.398 . S
C608 C609 1.391 . S
C609 H597 0.950 . S
C609 C605 1.393 . S
C609 C608 1.391 . S
C610 H600 0.950 . S
C610 C611 1.386 . S
C610 C612 1.391 . S
C611 C610 1.386 . S
C611 C615 1.393 . S
C612 H601 0.950 . S
C612 C610 1.391 . S
C612 C613 1.400 . S
C613 C607 1.491 . S
C613 C612 1.400 . S
C613 C614 1.398 . S
C614 H602 0.950 . S
C614 C613 1.398 . S
C614 C615 1.391 . S
C615 H603 0.950 . S
C615 C611 1.393 . S
C615 C614 1.391 . S
H616 C624 0.950 . S
H617 C629 0.950 . S
H618 C626 0.950 . S
H619 C628 0.950 . S
H620 C630 0.950 . S
H621 C632 0.950 . S
H622 C634 0.950 1_545 S
H623 C635 0.950 1_545 S
C624 H616 0.950 . S
C624 C625 1.386 . S
C624 C626 1.391 . S
C625 C624 1.386 . S
C625 C629 1.393 . S
C626 H618 0.950 . S
C626 C624 1.391 . S
C626 C627 1.400 . S
C627 C626 1.400 . S
C627 C628 1.398 . S
C627 C633 1.491 . S
C628 H619 0.950 . S
C628 C627 1.398 . S
C628 C629 1.391 . S
C629 H617 0.950 . S
C629 C625 1.393 . S
C629 C628 1.391 . S
C630 H620 0.950 . S
C630 C631 1.386 . S
C630 C632 1.391 . S
C631 C630 1.386 . S
C631 C635 1.393 . S
C632 H621 0.950 . S
C632 C630 1.391 . S
C632 C633 1.400 . S
C633 C627 1.491 . S
C633 C632 1.400 . S
C633 C634 1.398 . S
C634 H622 0.950 1_565 S
C634 C633 1.398 . S
C634 C635 1.391 . S
C635 H623 0.950 1_565 S
C635 C631 1.393 . S
C635 C634 1.391 . S
H636 C644 0.950 . S
H637 C649 0.950 . S
H638 C646 0.950 . S
H639 C648 0.950 . S
H640 C650 0.950 . S
H641 C652 0.950 . S
H642 C654 0.950 . S
H643 C655 0.950 . S
C644 H636 0.950 . S
C644 C645 1.386 . S
C644 C646 1.391 . S
C645 C644 1.386 . S
C645 C649 1.393 . S
C646 H638 0.950 . S
C646 C644 1.391 . S
C646 C647 1.400 . S
C647 C646 1.400 . S
C647 C648 1.398 . S
C647 C653 1.491 . S
C648 H639 0.950 . S
C648 C647 1.398 . S
C648 C649 1.391 . S
C649 H637 0.950 . S
C649 C645 1.393 . S
C649 C648 1.391 . S
C650 H640 0.950 . S
C650 C651 1.386 . S
C650 C652 1.391 . S
C651 C650 1.386 . S
C651 C655 1.393 . S
C652 H641 0.950 . S
C652 C650 1.391 . S
C652 C653 1.400 . S
C653 C647 1.491 . S
C653 C652 1.400 . S
C653 C654 1.398 . S
C654 H642 0.950 . S
C654 C653 1.398 . S
C654 C655 1.391 . S
C655 H643 0.950 . S
C655 C651 1.393 . S
C655 C654 1.391 . S
H656 C664 0.950 . S
H657 C669 0.950 . S
H658 C666 0.950 . S
H659 C668 0.950 . S
H660 C670 0.950 . S
H661 C672 0.950 . S
H662 C674 0.950 . S
H663 C675 0.950 . S
C664 H656 0.950 . S
C664 C665 1.386 . S
C664 C666 1.391 . S
C665 C664 1.386 . S
C665 C669 1.393 . S
C666 H658 0.950 . S
C666 C664 1.391 . S
C666 C667 1.400 . S
C667 C666 1.400 . S
C667 C668 1.398 . S
C667 C673 1.491 . S
C668 H659 0.950 . S
C668 C667 1.398 . S
C668 C669 1.391 . S
C669 H657 0.950 . S
C669 C665 1.393 . S
C669 C668 1.391 . S
C670 H660 0.950 . S
C670 C671 1.386 . S
C670 C672 1.391 . S
C671 C670 1.386 . S
C671 C675 1.393 . S
C672 H661 0.950 . S
C672 C670 1.391 . S
C672 C673 1.400 . S
C673 C667 1.491 . S
C673 C672 1.400 . S
C673 C674 1.398 . S
C674 H662 0.950 . S
C674 C673 1.398 . S
C674 C675 1.391 . S
C675 H663 0.950 . S
C675 C671 1.393 . S
C675 C674 1.391 . S
H676 C684 0.950 . S
H677 C689 0.950 . S
H678 C686 0.950 . S
H679 C688 0.950 . S
H680 C690 0.950 . S
H681 C692 0.950 . S
H682 C694 0.950 . S
H683 C695 0.950 . S
C684 H676 0.950 . S
C684 C685 1.386 . S
C684 C686 1.391 . S
C685 C684 1.386 . S
C685 C689 1.393 . S
C686 H678 0.950 . S
C686 C684 1.391 . S
C686 C687 1.400 . S
C687 C686 1.400 . S
C687 C688 1.398 . S
C687 C693 1.491 . S
C688 H679 0.950 . S
C688 C687 1.398 . S
C688 C689 1.391 . S
C689 H677 0.950 . S
C689 C685 1.393 . S
C689 C688 1.391 . S
C690 H680 0.950 . S
C690 C691 1.386 . S
C690 C692 1.391 . S
C691 C690 1.386 . S
C691 C695 1.393 . S
C692 H681 0.950 . S
C692 C690 1.391 . S
C692 C693 1.400 . S
C693 C687 1.491 . S
C693 C692 1.400 . S
C693 C694 1.398 . S
C694 H682 0.950 . S
C694 C693 1.398 . S
C694 C695 1.391 . S
C695 H683 0.950 . S
C695 C691 1.393 . S
C695 C694 1.391 . S
H696 C704 0.950 . S
H697 C709 0.950 . S
H698 C706 0.950 . S
H699 C708 0.950 . S
H700 C710 0.950 1_545 S
H701 C712 0.950 . S
H702 C714 0.950 1_554 S
H703 C715 0.950 . S
C704 H696 0.950 . S
C704 C705 1.386 . S
C704 C706 1.391 . S
C705 C704 1.386 . S
C705 C709 1.393 . S
C706 H698 0.950 . S
C706 C704 1.391 . S
C706 C707 1.400 . S
C707 C706 1.400 . S
C707 C708 1.398 . S
C707 C713 1.491 . S
C708 H699 0.950 . S
C708 C707 1.398 . S
C708 C709 1.391 . S
C709 H697 0.950 . S
C709 C705 1.393 . S
C709 C708 1.391 . S
C710 H700 0.950 1_565 S
C710 C711 1.386 . S
C710 C712 1.391 . S
C711 C710 1.386 . S
C711 C715 1.393 1_556 S
C712 H701 0.950 . S
C712 C710 1.391 . S
C712 C713 1.400 . S
C713 C707 1.491 . S
C713 C712 1.400 . S
C713 C714 1.398 . S
C714 H702 0.950 1_556 S
C714 C713 1.398 . S
C714 C715 1.391 1_556 S
C715 H703 0.950 . S
C715 C711 1.393 1_554 S
C715 C714 1.391 1_554 S
H716 C724 0.950 . S
H717 C729 0.950 . S
H718 C726 0.950 . S
H719 C728 0.950 . S
H720 C730 0.950 . S
H721 C732 0.950 . S
H722 C734 0.950 . S
H723 C735 0.950 . S
C724 H716 0.950 . S
C724 C725 1.386 . S
C724 C726 1.391 . S
C725 C724 1.386 . S
C725 C729 1.393 . S
C726 H718 0.950 . S
C726 C724 1.391 . S
C726 C727 1.400 . S
C727 C726 1.400 . S
C727 C728 1.398 . S
C727 C733 1.491 . S
C728 H719 0.950 . S
C728 C727 1.398 . S
C728 C729 1.391 . S
C729 H717 0.950 . S
C729 C725 1.393 . S
C729 C728 1.391 . S
C730 H720 0.950 . S
C730 C731 1.386 . S
C730 C732 1.391 . S
C731 C730 1.386 . S
C731 C735 1.393 . S
C732 H721 0.950 . S
C732 C730 1.391 . S
C732 C733 1.400 . S
C733 C727 1.491 . S
C733 C732 1.400 . S
C733 C734 1.398 . S
C734 H722 0.950 . S
C734 C733 1.398 . S
C734 C735 1.391 . S
C735 H723 0.950 . S
C735 C731 1.393 . S
C735 C734 1.391 . S
H736 C744 0.950 . S
H737 C749 0.950 . S
H738 C746 0.950 . S
H739 C748 0.950 . S
H740 C750 0.950 . S
H741 C752 0.950 . S
H742 C754 0.950 . S
H743 C755 0.950 1_556 S
C744 H736 0.950 . S
C744 C745 1.386 . S
C744 C746 1.391 . S
C745 C744 1.386 . S
C745 C749 1.393 . S
C746 H738 0.950 . S
C746 C744 1.391 . S
C746 C747 1.400 . S
C747 C746 1.400 . S
C747 C748 1.398 . S
C747 C753 1.491 . S
C748 H739 0.950 . S
C748 C747 1.398 . S
C748 C749 1.391 . S
C749 H737 0.950 . S
C749 C745 1.393 . S
C749 C748 1.391 . S
C750 H740 0.950 . S
C750 C751 1.386 . S
C750 C752 1.391 . S
C751 C750 1.386 . S
C751 C755 1.393 . S
C752 H741 0.950 . S
C752 C750 1.391 . S
C752 C753 1.400 . S
C753 C747 1.491 . S
C753 C752 1.400 . S
C753 C754 1.398 . S
C754 H742 0.950 . S
C754 C753 1.398 . S
C754 C755 1.391 . S
C755 H743 0.950 1_554 S
C755 C751 1.393 . S
C755 C754 1.391 . S
H756 C764 0.950 . S
H757 C769 0.950 . S
H758 C766 0.950 . S
H759 C768 0.950 . S
H760 C770 0.950 . S
H761 C772 0.950 . S
H762 C774 0.950 . S
H763 C775 0.950 . S
C764 H756 0.950 . S
C764 C765 1.386 . S
C764 C766 1.391 . S
C765 C764 1.386 . S
C765 C769 1.393 . S
C766 H758 0.950 . S
C766 C764 1.391 . S
C766 C767 1.400 . S
C767 C766 1.400 . S
C767 C768 1.398 . S
C767 C773 1.491 . S
C768 H759 0.950 . S
C768 C767 1.398 . S
C768 C769 1.391 . S
C769 H757 0.950 . S
C769 C765 1.393 . S
C769 C768 1.391 . S
C770 H760 0.950 . S
C770 C771 1.386 . S
C770 C772 1.391 . S
C771 C770 1.386 . S
C771 C775 1.393 . S
C772 H761 0.950 . S
C772 C770 1.391 . S
C772 C773 1.400 . S
C773 C767 1.491 . S
C773 C772 1.400 . S
C773 C774 1.398 . S
C774 H762 0.950 . S
C774 C773 1.398 . S
C774 C775 1.391 . S
C775 H763 0.950 . S
C775 C771 1.393 . S
C775 C774 1.391 . S
H776 C784 0.950 . S
H777 C789 0.950 . S
H778 C786 0.950 . S
H779 C788 0.950 . S
H780 C790 0.950 . S
H781 C792 0.950 1_554 S
H782 C794 0.950 . S
H783 C795 0.950 . S
C784 H776 0.950 . S
C784 C785 1.386 . S
C784 C786 1.391 . S
C785 C784 1.386 . S
C785 C789 1.393 . S
C786 H778 0.950 . S
C786 C784 1.391 . S
C786 C787 1.400 . S
C787 C786 1.400 . S
C787 C788 1.398 . S
C787 C793 1.491 . S
C788 H779 0.950 . S
C788 C787 1.398 . S
C788 C789 1.391 . S
C789 H777 0.950 . S
C789 C785 1.393 . S
C789 C788 1.391 . S
C790 H780 0.950 . S
C790 C791 1.386 1_554 S
C790 C792 1.391 1_554 S
C791 C790 1.386 1_556 S
C791 C795 1.393 . S
C792 H781 0.950 1_556 S
C792 C790 1.391 1_556 S
C792 C793 1.400 . S
C793 C787 1.491 . S
C793 C792 1.400 . S
C793 C794 1.398 . S
C794 H782 0.950 . S
C794 C793 1.398 . S
C794 C795 1.391 . S
C795 H783 0.950 . S
C795 C791 1.393 . S
C795 C794 1.391 . S
H796 C804 0.950 . S
H797 C809 0.950 . S
H798 C806 0.950 . S
H799 C808 0.950 . S
H800 C810 0.950 . S
H801 C812 0.950 . S
H802 C814 0.950 . S
H803 C815 0.950 . S
C804 H796 0.950 . S
C804 C805 1.386 . S
C804 C806 1.391 . S
C805 C804 1.386 . S
C805 C809 1.393 . S
C806 H798 0.950 . S
C806 C804 1.391 . S
C806 C807 1.400 . S
C807 C806 1.400 . S
C807 C808 1.398 . S
C807 C813 1.491 . S
C808 H799 0.950 . S
C808 C807 1.398 . S
C808 C809 1.391 . S
C809 H797 0.950 . S
C809 C805 1.393 . S
C809 C808 1.391 . S
C810 H800 0.950 . S
C810 C811 1.386 . S
C810 C812 1.391 . S
C811 C810 1.386 . S
C811 C815 1.393 . S
C812 H801 0.950 . S
C812 C810 1.391 . S
C812 C813 1.400 . S
C813 C807 1.491 . S
C813 C812 1.400 . S
C813 C814 1.398 . S
C814 H802 0.950 . S
C814 C813 1.398 . S
C814 C815 1.391 . S
C815 H803 0.950 . S
C815 C811 1.393 . S
C815 C814 1.391 . S
H816 C824 0.950 . S
H817 C829 0.950 . S
H818 C826 0.950 . S
H819 C828 0.950 . S
H820 C830 0.950 . S
H821 C832 0.950 . S
H822 C834 0.950 . S
H823 C835 0.950 . S
C824 H816 0.950 . S
C824 C825 1.386 . S
C824 C826 1.391 . S
C825 C824 1.386 . S
C825 C829 1.393 . S
C826 H818 0.950 . S
C826 C824 1.391 . S
C826 C827 1.400 . S
C827 C826 1.400 . S
C827 C828 1.398 . S
C827 C833 1.491 . S
C828 H819 0.950 . S
C828 C827 1.398 . S
C828 C829 1.391 . S
C829 H817 0.950 . S
C829 C825 1.393 . S
C829 C828 1.391 . S
C830 H820 0.950 . S
C830 C831 1.386 . S
C830 C832 1.391 . S
C831 C830 1.386 . S
C831 C835 1.393 . S
C832 H821 0.950 . S
C832 C830 1.391 . S
C832 C833 1.400 . S
C833 C827 1.491 . S
C833 C832 1.400 . S
C833 C834 1.398 . S
C834 H822 0.950 . S
C834 C833 1.398 . S
C834 C835 1.391 . S
C835 H823 0.950 . S
C835 C831 1.393 . S
C835 C834 1.391 . S
H836 C844 0.950 . S
H837 C849 0.950 . S
H838 C846 0.950 . S
H839 C848 0.950 . S
H840 C850 0.950 . S
H841 C852 0.950 . S
H842 C854 0.950 . S
H843 C855 0.950 . S
C844 H836 0.950 . S
C844 C845 1.386 . S
C844 C846 1.391 . S
C845 C844 1.386 . S
C845 C849 1.393 . S
C846 H838 0.950 . S
C846 C844 1.391 . S
C846 C847 1.400 . S
C847 C846 1.400 . S
C847 C848 1.398 . S
C847 C853 1.491 . S
C848 H839 0.950 . S
C848 C847 1.398 . S
C848 C849 1.391 . S
C849 H837 0.950 . S
C849 C845 1.393 . S
C849 C848 1.391 . S
C850 H840 0.950 . S
C850 C851 1.386 . S
C850 C852 1.391 . S
C851 C850 1.386 . S
C851 C855 1.393 . S
C852 H841 0.950 . S
C852 C850 1.391 . S
C852 C853 1.400 . S
C853 C847 1.491 . S
C853 C852 1.400 . S
C853 C854 1.398 . S
C854 H842 0.950 . S
C854 C853 1.398 . S
C854 C855 1.391 . S
C855 H843 0.950 . S
C855 C851 1.393 . S
C855 C854 1.391 . S
C385 C29 2.082 . S
C391 C272 2.202 . S
C405 C49 1.081 . S
C411 N292 1.052 . S
C431 C326 2.015 . S
C425 C93 1.924 . S
C445 C119 1.188 . S
C451 N360 1.186 . S
C471 C313 2.303 . S
C465 C17 2.203 . S
C491 N270 1.177 . S
C485 C61 1.239 . S
C511 C347 1.970 1_556 S
C505 C81 1.881 . S
C531 N322 1.040 . S
C525 C125 1.016 . S
C545 C23 1.718 . S
C551 C362 1.796 . S
C571 C296 1.677 . S
C565 C87 1.581 . S
C585 C113 1.406 . S
C591 C257 1.480 . S
C605 C55 1.433 . S
C611 C343 1.426 . S
C631 C283 2.135 . S
C625 C157 2.122 . S
C645 C189 1.063 . S
C651 N300 1.123 . S
C665 C221 1.979 . S
C671 C317 1.978 . S
C685 C253 1.244 . S
C691 N352 1.262 . S
C705 C145 2.348 . S
C711 C302 2.352 . S
C731 N262 1.095 . S
C725 C183 1.078 . S
C751 C356 2.009 . S
C745 C209 1.998 . S
C771 N330 0.993 . S
C765 C247 0.982 . S
C785 C151 1.811 . S
C791 C373 1.812 . S
C811 C287 1.687 . S
C805 C215 1.688 . S
C831 C266 1.472 . S
C825 C241 1.385 . S
C845 C177 1.369 . S
C851 C332 1.460 . S
