# Generated by pormake.
# Topology nom, (4,4)-cn, num edge types: 1
# Building blocks:
#     Node 0, Type 0, BuildingBlock: AZAVOO_clean_linker_0, # of connection points: 4
#     Node 1, Type 0, BuildingBlock: AZAVOO_clean_linker_0, # of connection points: 4
#     Node 2, Type 0, BuildingBlock: AZAVOO_clean_linker_0, # of connection points: 4
#     Node 3, Type 0, BuildingBlock: AZAVOO_clean_linker_0, # of connection points: 4
#     Node 4, Type 0, BuildingBlock: AZAVOO_clean_linker_0, # of connection points: 4
#     Node 5, Type 0, BuildingBlock: AZAVOO_clean_linker_0, # of connection points: 4
#     Node 6, Type 1, BuildingBlock: KUFVIS_clean_sbu_0, # of connection points: 4
#     Node 7, Type 1, BuildingBlock: KUFVIS_clean_sbu_0, # of connection points: 4
#     Node 8, Type 1, BuildingBlock: KUFVIS_clean_sbu_0, # of connection points: 4
#     Node 9, Type 1, BuildingBlock: KUFVIS_clean_sbu_0, # of connection points: 4
#     Node 10, Type 1, BuildingBlock: KUFVIS_clean_sbu_0, # of connection points: 4
#     Node 11, Type 1, BuildingBlock: KUFVIS_clean_sbu_0, # of connection points: 4
#     Edge 12, Type (0, 1), BuildingBlock: XIVTED_clean_linker_0, # of connection points: 2
#     Edge 13, Type (0, 1), BuildingBlock: XIVTED_clean_linker_0, # of connection points: 2
#     Edge 14, Type (0, 1), BuildingBlock: XIVTED_clean_linker_0, # of connection points: 2
#     Edge 15, Type (0, 1), BuildingBlock: XIVTED_clean_linker_0, # of connection points: 2
#     Edge 16, Type (0, 1), BuildingBlock: XIVTED_clean_linker_0, # of connection points: 2
#     Edge 17, Type (0, 1), BuildingBlock: XIVTED_clean_linker_0, # of connection points: 2
#     Edge 18, Type (0, 1), BuildingBlock: XIVTED_clean_linker_0, # of connection points: 2
#     Edge 19, Type (0, 1), BuildingBlock: XIVTED_clean_linker_0, # of connection points: 2
#     Edge 20, Type (0, 1), BuildingBlock: XIVTED_clean_linker_0, # of connection points: 2
#     Edge 21, Type (0, 1), BuildingBlock: XIVTED_clean_linker_0, # of connection points: 2
#     Edge 22, Type (0, 1), BuildingBlock: XIVTED_clean_linker_0, # of connection points: 2
#     Edge 23, Type (0, 1), BuildingBlock: XIVTED_clean_linker_0, # of connection points: 2
#     Edge 24, Type (0, 1), BuildingBlock: XIVTED_clean_linker_0, # of connection points: 2
#     Edge 25, Type (0, 1), BuildingBlock: XIVTED_clean_linker_0, # of connection points: 2
#     Edge 26, Type (0, 1), BuildingBlock: XIVTED_clean_linker_0, # of connection points: 2
#     Edge 27, Type (0, 1), BuildingBlock: XIVTED_clean_linker_0, # of connection points: 2
#     Edge 28, Type (0, 1), BuildingBlock: XIVTED_clean_linker_0, # of connection points: 2
#     Edge 29, Type (0, 1), BuildingBlock: XIVTED_clean_linker_0, # of connection points: 2
#     Edge 30, Type (0, 1), BuildingBlock: XIVTED_clean_linker_0, # of connection points: 2
#     Edge 31, Type (0, 1), BuildingBlock: XIVTED_clean_linker_0, # of connection points: 2
#     Edge 32, Type (0, 1), BuildingBlock: XIVTED_clean_linker_0, # of connection points: 2
#     Edge 33, Type (0, 1), BuildingBlock: XIVTED_clean_linker_0, # of connection points: 2
#     Edge 34, Type (0, 1), BuildingBlock: XIVTED_clean_linker_0, # of connection points: 2
#     Edge 35, Type (0, 1), BuildingBlock: XIVTED_clean_linker_0, # of connection points: 2
# Relax obj value: 0.143
# Max RMSD: 0.225
# Mean RMSD: 0.145
data_MOF--net-nom--node1-KUFVIS_clean_sbu_0--node2-AZAVOO_clean_linker_0--edge1-XIVTED_clean_linker_0
_symmetry_space_group_name_H-M    P1
_symmetry_Int_Tables_number       1
_symmetry_cell_setting            triclinic
loop_
_symmetry_equiv_pos_as_xyz
'x, y, z'
_cell_length_a     47.778352
_cell_length_b     49.942009
_cell_length_c     60.137773
_cell_angle_alpha  90.734484
_cell_angle_beta   90.66744
_cell_angle_gamma 121.36681
loop_
_atom_site_label
_atom_site_type_symbol
_atom_site_fract_x
_atom_site_fract_y
_atom_site_fract_z
_atom_type_partial_charge
H0 H 0.09419 0.46378 0.17834 0.0
H1 H 0.21752 0.64068 0.40571 0.0
H2 H -0.00066 0.44205 0.27826 0.0
H3 H 0.9634 0.42144 0.24515 0.0
H4 H 0.95821 0.50521 0.24385 0.0
H5 H 0.99412 0.52562 0.27703 0.0
H6 H 0.08187 0.47536 0.27414 0.0
H7 H 0.09043 0.46481 0.23576 0.0
H8 H 0.05733 0.52548 0.21237 0.0
H9 H 0.04952 0.5363 0.25081 0.0
H10 H 0.1413 0.5267 0.31339 0.0
H11 H 0.19731 0.56287 0.30158 0.0
H12 H 0.16129 0.60805 0.25879 0.0
H13 H 0.10682 0.5748 0.27289 0.0
H14 H 0.10307 0.507 0.35594 0.0
H15 H 0.14615 0.53432 0.38452 0.0
H16 H 0.16495 0.62331 0.3604 0.0
H17 H 0.12169 0.59562 0.33191 0.0
H18 H 0.03186 0.47637 0.36463 0.0
H19 H 0.04513 0.48673 0.40446 0.0
H20 H 0.07151 0.58279 0.39615 0.0
H21 H 0.05858 0.57237 0.35636 0.0
H22 H 0.96408 0.44938 0.32069 0.0
H23 H 0.91015 0.44032 0.33054 0.0
H24 H 0.9539 0.53996 0.34279 0.0
H25 H 0.00673 0.54877 0.33166 0.0
O26 O 0.09077 0.46838 0.1934 0.0
O27 O 0.07321 0.49952 0.18223 0.0
O28 O 0.18972 0.58292 0.40624 0.0
O29 O 0.20103 0.62935 0.39416 0.0
C30 C 0.027 0.50077 0.29621 0.0
C31 C 0.05919 0.51212 0.28867 0.0
C32 C 0.08638 0.52951 0.30329 0.0
C33 C 0.08115 0.53253 0.32598 0.0
C34 C 0.04895 0.52068 0.3336 0.0
C35 C 0.02197 0.50615 0.31854 0.0
C36 C -0.00074 0.48528 0.27998 0.0
C37 C 0.98954 0.45544 0.27123 0.0
C38 C 0.96914 0.44378 0.25232 0.0
C39 C 0.95843 0.46196 0.24183 0.0
C40 C 0.96649 0.49095 0.2515 0.0
C41 C 0.98662 0.50244 0.27055 0.0
C42 C 0.06465 0.50623 0.26526 0.0
C43 C 0.07654 0.48638 0.2607 0.0
C44 C 0.08135 0.48036 0.23876 0.0
C45 C 0.07441 0.49418 0.22098 0.0
C46 C 0.06277 0.51433 0.22565 0.0
C47 C 0.05809 0.5204 0.24759 0.0
C48 C 0.1199 0.54822 0.29419 0.0
C49 C 0.14572 0.54467 0.30163 0.0
C50 C 0.17772 0.56517 0.29459 0.0
C51 C 0.18426 0.58898 0.27946 0.0
C52 C 0.15777 0.59096 0.27107 0.0
C53 C 0.12625 0.57138 0.27874 0.0
C54 C 0.10935 0.54936 0.34189 0.0
C55 C 0.11673 0.5324 0.35676 0.0
C56 C 0.14127 0.54806 0.37309 0.0
C57 C 0.15885 0.58101 0.37485 0.0
C58 C 0.15182 0.59794 0.35956 0.0
C59 C 0.12726 0.58222 0.34321 0.0
C60 C 0.04435 0.52363 0.35765 0.0
C61 C 0.03889 0.49919 0.37161 0.0
C62 C 0.04676 0.50521 0.39428 0.0
C63 C 0.05972 0.53564 0.40324 0.0
C64 C 0.06136 0.55909 0.38969 0.0
C65 C 0.05384 0.55315 0.36698 0.0
C66 C 0.98939 0.49972 0.32561 0.0
C67 C 0.96185 0.46917 0.32546 0.0
C68 C 0.93112 0.46405 0.33123 0.0
C69 C 0.92754 0.48942 0.33734 0.0
C70 C 0.95544 0.51988 0.33774 0.0
C71 C 0.98588 0.52496 0.33174 0.0
C72 C 0.07938 0.48761 0.19768 0.0
C73 C 0.18413 0.59769 0.39269 0.0
H74 H 0.56149 0.08673 0.34734 0.0
H75 H 0.50716 0.18844 0.57592 0.0
H76 H 0.52448 0.0011 0.45397 0.0
H77 H 0.51994 0.96834 0.4219 0.0
H78 H 0.41635 0.93408 0.4161 0.0
H79 H 0.42117 0.96699 0.44835 0.0
H80 H 0.55191 0.0736 0.44393 0.0
H81 H 0.56582 0.08398 0.40468 0.0
H82 H 0.4626 0.03536 0.38687 0.0
H83 H 0.44908 0.02556 0.4262 0.0
H84 H 0.5574 0.11817 0.48748 0.0
H85 H 0.58023 0.17162 0.47499 0.0
H86 H 0.49409 0.14074 0.43296 0.0
H87 H 0.47022 0.08807 0.4474 0.0
H88 H 0.54052 0.08558 0.5309 0.0
H89 H 0.55267 0.12645 0.55881 0.0
H90 H 0.4735 0.1351 0.5318 0.0
H91 H 0.46118 0.0937 0.50422 0.0
H92 H 0.51201 0.01223 0.53301 0.0
H93 H 0.52112 0.021 0.57313 0.0
H94 H 0.44684 0.04558 0.57589 0.0
H95 H 0.43684 0.03534 0.53585 0.0
H96 H 0.49507 0.96616 0.49351 0.0
H97 H 0.46824 0.91244 0.50705 0.0
H98 H 0.38228 0.91633 0.52244 0.0
H99 H 0.40921 0.96989 0.50879 0.0
O100 O 0.55545 0.08252 0.36277 0.0
O101 O 0.50208 0.05706 0.35449 0.0
O102 O 0.54303 0.16655 0.57846 0.0
O103 O 0.50303 0.17238 0.56495 0.0
C104 C 0.47774 0.01115 0.46937 0.0
C105 C 0.49119 0.04207 0.46169 0.0
C106 C 0.49769 0.0667 0.47672 0.0
C107 C 0.49134 0.06041 0.49954 0.0
C108 C 0.47742 0.02932 0.50718 0.0
C109 C 0.47011 0.00457 0.49202 0.0
C110 C 0.47314 0.98629 0.45343 0.0
C111 C 0.50063 0.98576 0.44617 0.0
C112 C 0.498 0.96709 0.42787 0.0
C113 C 0.46785 0.94891 0.41642 0.0
C114 C 0.43994 0.94814 0.42452 0.0
C115 C 0.44255 0.96661 0.44301 0.0
C116 C 0.49951 0.04878 0.43787 0.0
C117 C 0.53237 0.06535 0.43152 0.0
C118 C 0.54023 0.07117 0.40909 0.0
C119 C 0.51532 0.06045 0.39263 0.0
C120 C 0.48238 0.04391 0.39911 0.0
C121 C 0.47458 0.03821 0.42155 0.0
C122 C 0.51197 0.09921 0.46856 0.0
C123 C 0.54326 0.12312 0.47586 0.0
C124 C 0.55652 0.15366 0.46834 0.0
C125 C 0.5392 0.16085 0.4528 0.0
C126 C 0.50803 0.13654 0.44524 0.0
C127 C 0.49443 0.1062 0.45326 0.0
C128 C 0.49984 0.08655 0.51563 0.0
C129 C 0.52582 0.09632 0.53105 0.0
C130 C 0.53274 0.11971 0.54695 0.0
C131 C 0.51399 0.13401 0.54757 0.0
C132 C 0.48836 0.12454 0.53181 0.0
C133 C 0.48134 0.10099 0.51599 0.0
C134 C 0.47428 0.02382 0.53148 0.0
C135 C 0.49654 0.01796 0.54242 0.0
C136 C 0.50197 0.02332 0.56532 0.0
C137 C 0.4854 0.0349 0.57752 0.0
C138 C 0.46006 0.03675 0.56696 0.0
C139 C 0.45438 0.03101 0.54406 0.0
C140 C 0.45397 0.97183 0.49994 0.0
C141 C 0.47033 0.95527 0.49959 0.0
C142 C 0.45499 0.92462 0.50737 0.0
C143 C 0.42314 0.91012 0.51585 0.0
C144 C 0.40697 0.92694 0.5163 0.0
C145 C 0.42222 0.95746 0.50838 0.0
C146 C 0.52374 0.06651 0.36881 0.0
C147 C 0.52101 0.15861 0.56461 0.0
H148 H 0.58126 0.51254 0.79135 0.0
H149 H 0.60709 0.45129 0.53138 0.0
H150 H 0.56606 0.59329 0.67989 0.0
H151 H 0.55661 0.61037 0.71578 0.0
H152 H 0.46987 0.51876 0.72358 0.0
H153 H 0.47976 0.50187 0.68762 0.0
H154 H 0.59253 0.55773 0.70072 0.0
H155 H 0.59554 0.54762 0.74012 0.0
H156 H 0.51631 0.45159 0.72943 0.0
H157 H 0.51331 0.46219 0.69011 0.0
H158 H 0.61665 0.51918 0.67609 0.0
H159 H 0.63291 0.48212 0.68782 0.0
H160 H 0.54857 0.40715 0.6525 0.0
H161 H 0.532 0.4439 0.64148 0.0
H162 H 0.62369 0.54214 0.61909 0.0
H163 H 0.64845 0.52919 0.58858 0.0
H164 H 0.55333 0.44905 0.57043 0.0
H165 H 0.52902 0.46209 0.60112 0.0
H166 H 0.58958 0.58089 0.60352 0.0
H167 H 0.60226 0.58283 0.56413 0.0
H168 H 0.51125 0.4948 0.55249 0.0
H169 H 0.49858 0.4935 0.5917 0.0
H170 H 0.53841 0.59743 0.64346 0.0
H171 H 0.49696 0.61126 0.63539 0.0
H172 H 0.42841 0.51511 0.61477 0.0
H173 H 0.46913 0.50145 0.62387 0.0
O174 O 0.57977 0.51597 0.77569 0.0
O175 O 0.53934 0.4667 0.76925 0.0
O176 O 0.64683 0.49683 0.55471 0.0
O177 O 0.59815 0.45639 0.54398 0.0
C178 C 0.53468 0.53406 0.66316 0.0
C179 C 0.55006 0.51729 0.66893 0.0
C180 C 0.56144 0.50557 0.65213 0.0
C181 C 0.55947 0.51248 0.62975 0.0
C182 C 0.54372 0.52893 0.624 0.0
C183 C 0.53007 0.53858 0.64061 0.0
C184 C 0.52347 0.54646 0.68117 0.0
C185 C 0.5443 0.57736 0.68895 0.0
C186 C 0.53894 0.58699 0.70951 0.0
C187 C 0.51275 0.56575 0.72263 0.0
C188 C 0.49055 0.53547 0.71398 0.0
C189 C 0.49586 0.52591 0.69336 0.0
C190 C 0.5527 0.5107 0.69263 0.0
C191 C 0.57586 0.53455 0.70695 0.0
C192 C 0.57753 0.52869 0.72943 0.0
C193 C 0.55614 0.4988 0.73794 0.0
C194 C 0.53313 0.47487 0.72343 0.0
C195 C 0.53142 0.48081 0.70097 0.0
C196 C 0.57326 0.48424 0.65781 0.0
C197 C 0.60184 0.49478 0.67082 0.0
C198 C 0.61104 0.47366 0.67751 0.0
C199 C 0.59205 0.44186 0.67095 0.0
C200 C 0.5639 0.43162 0.6575 0.0
C201 C 0.55447 0.45257 0.65116 0.0
C202 C 0.57461 0.50311 0.61224 0.0
C203 C 0.60835 0.52161 0.60864 0.0
C204 C 0.62238 0.51421 0.59117 0.0
C205 C 0.60283 0.48813 0.57701 0.0
C206 C 0.56908 0.46931 0.58098 0.0
C207 C 0.55514 0.47668 0.59851 0.0
C208 C 0.54336 0.5369 0.60044 0.0
C209 C 0.57151 0.56302 0.59219 0.0
C210 C 0.5789 0.56386 0.56974 0.0
C211 C 0.55824 0.53848 0.55537 0.0
C212 C 0.52771 0.51472 0.56309 0.0
C213 C 0.52029 0.51398 0.58555 0.0
C214 C 0.5067 0.54841 0.63432 0.0
C215 C 0.51438 0.57945 0.63725 0.0
C216 C 0.49075 0.58732 0.63249 0.0
C217 C 0.45916 0.56421 0.62468 0.0
C218 C 0.45213 0.53337 0.62124 0.0
C219 C 0.47553 0.52556 0.62616 0.0
C220 C 0.55781 0.49273 0.76187 0.0
C221 C 0.6174 0.48077 0.55797 0.0
H222 H 0.0671 0.46448 0.9654 0.0
H223 H 0.19347 0.54201 0.71141 0.0
H224 H 0.98042 0.473 0.84801 0.0
H225 H 0.94424 0.45339 0.87974 0.0
H226 H 0.96201 0.3771 0.88498 0.0
H227 H 0.99609 0.3957 0.85222 0.0
H228 H 0.04476 0.49502 0.87592 0.0
H229 H 0.05212 0.48886 0.91546 0.0
H230 H 0.07742 0.41971 0.89855 0.0
H231 H 0.0695 0.42578 0.85906 0.0
H232 H 0.11749 0.5232 0.85693 0.0
H233 H 0.17188 0.53563 0.87017 0.0
H234 H 0.1662 0.46443 0.82556 0.0
H235 H 0.11151 0.45139 0.81295 0.0
H236 H 0.11854 0.54488 0.80362 0.0
H237 H 0.16189 0.57266 0.7766 0.0
H238 H 0.13178 0.48448 0.74279 0.0
H239 H 0.08898 0.45701 0.77012 0.0
H240 H 0.05282 0.5266 0.77884 0.0
H241 H 0.06972 0.54309 0.74098 0.0
H242 H 0.0353 0.44704 0.72139 0.0
H243 H 0.02052 0.43123 0.75973 0.0
H244 H 0.96596 0.4702 0.80665 0.0
H245 H 0.90829 0.43519 0.79521 0.0
H246 H 0.92861 0.36231 0.77926 0.0
H247 H 0.98522 0.3967 0.79188 0.0
O248 O 0.06449 0.46665 0.94966 0.0
O249 O 0.07782 0.4316 0.94009 0.0
O250 O 0.19392 0.57598 0.74184 0.0
O251 O 0.17745 0.53153 0.72284 0.0
C252 C 0.01864 0.45182 0.83238 0.0
C253 C 0.05096 0.46398 0.84071 0.0
C254 C 0.07756 0.47815 0.82616 0.0
C255 C 0.07224 0.48266 0.80378 0.0
C256 C 0.04003 0.47146 0.79558 0.0
C257 C 0.01313 0.45468 0.80962 0.0
C258 C 0.99089 0.4358 0.84782 0.0
C259 C 0.97533 0.45131 0.85544 0.0
C260 C 0.95519 0.44037 0.8739 0.0
C261 C 0.9508 0.41407 0.88538 0.0
C262 C 0.96456 0.39729 0.87661 0.0
C263 C 0.98417 0.40792 0.85788 0.0
C264 C 0.0567 0.46093 0.86465 0.0
C265 C 0.05193 0.47859 0.8808 0.0
C266 C 0.05616 0.47502 0.90337 0.0
C267 C 0.06537 0.4538 0.91017 0.0
C268 C 0.07034 0.43628 0.89388 0.0
C269 C 0.06597 0.43978 0.87132 0.0
C270 C 0.11072 0.48653 0.83392 0.0
C271 C 0.12795 0.51019 0.85015 0.0
C272 C 0.15881 0.51715 0.85772 0.0
C273 C 0.17299 0.5009 0.84884 0.0
C274 C 0.15576 0.47735 0.83252 0.0
C275 C 0.12472 0.47002 0.82528 0.0
C276 C 0.1005 0.49901 0.78869 0.0
C277 C 0.12167 0.53161 0.79054 0.0
C278 C 0.14627 0.5474 0.77502 0.0
C279 C 0.15009 0.5308 0.7574 0.0
C280 C 0.12939 0.498 0.75604 0.0
C281 C 0.10494 0.48225 0.77163 0.0
C282 C 0.03564 0.47775 0.77213 0.0
C283 C 0.04751 0.50888 0.76615 0.0
C284 C 0.05734 0.51831 0.74441 0.0
C285 C 0.05483 0.49656 0.7282 0.0
C286 C 0.03855 0.46459 0.73362 0.0
C287 C 0.02928 0.45529 0.75547 0.0
C288 C 0.97958 0.43586 0.8001 0.0
C289 C 0.95781 0.44672 0.80053 0.0
C290 C 0.92498 0.42673 0.79389 0.0
C291 C 0.91366 0.39574 0.7866 0.0
C292 C 0.93617 0.38567 0.78532 0.0
C293 C 0.96866 0.40542 0.79223 0.0
C294 C 0.06965 0.44993 0.93417 0.0
C295 C 0.17522 0.54756 0.74031 0.0
H296 H 0.40463 0.96903 0.83773 0.0
H297 H 0.40626 0.7959 0.04237 0.0
H298 H 0.45821 0.03794 0.94601 0.0
H299 H 0.48407 0.07561 0.91628 0.0
H300 H 0.57565 0.08077 0.93059 0.0
H301 H 0.54916 0.04184 0.95925 0.0
H302 H 0.40617 0.96234 0.93477 0.0
H303 H 0.39577 0.96195 0.89477 0.0
H304 H 0.4974 0.99397 0.88254 0.0
H305 H 0.50729 0.99368 0.92248 0.0
H306 H 0.38756 0.89918 0.96704 0.0
H307 H 0.36783 0.84783 0.94878 0.0
H308 H 0.46317 0.88404 0.92008 0.0
H309 H 0.4826 0.93436 0.93854 0.0
H310 H 0.40665 0.92662 0.0197 0.0
H311 H 0.38396 0.87765 0.04001 0.0
H312 H 0.4521 0.85813 0.00778 0.0
H313 H 0.47481 0.90732 0.98783 0.0
H314 H 0.45564 0.9968 0.03799 0.0
H315 H 0.46444 0.99013 0.07733 0.0
H316 H 0.52435 0.95254 0.05799 0.0
H317 H 0.51586 0.95979 0.01893 0.0
H318 H 0.48892 0.06009 0.00024 0.0
H319 H 0.53379 0.11045 0.01532 0.0
H320 H 0.59577 0.07126 0.01971 0.0
H321 H 0.55101 0.02138 0.00492 0.0
O322 O 0.40923 0.96921 0.85346 0.0
O323 O 0.4618 0.98607 0.84812 0.0
O324 O 0.38033 0.82657 0.05076 0.0
O325 O 0.41474 0.81537 0.03455 0.0
C326 C 0.48415 0.00766 0.96756 0.0
C327 C 0.4637 0.9789 0.95591 0.0
C328 C 0.4506 0.95028 0.9671 0.0
C329 C 0.45614 0.95037 0.99023 0.0
C330 C 0.4766 0.97903 0.00189 0.0
C331 C 0.49114 0.00762 0.99048 0.0
C332 C 0.50171 0.03697 0.95471 0.0
C333 C 0.48411 0.04799 0.94316 0.0
C334 C 0.49897 0.06957 0.9262 0.0
C335 C 0.53175 0.08067 0.92077 0.0
C336 C 0.55015 0.07209 0.93403 0.0
C337 C 0.53519 0.05022 0.95071 0.0
C338 C 0.45755 0.97844 0.93155 0.0
C339 C 0.42612 0.96921 0.92341 0.0
C340 C 0.42028 0.96906 0.90056 0.0
C341 C 0.4458 0.97807 0.88546 0.0
C342 C 0.47723 0.98701 0.8937 0.0
C343 C 0.48298 0.98702 0.91652 0.0
C344 C 0.43643 0.92053 0.95397 0.0
C345 C 0.40385 0.89603 0.95645 0.0
C346 C 0.39268 0.86684 0.94604 0.0
C347 C 0.41387 0.86203 0.93283 0.0
C348 C 0.44598 0.88715 0.92968 0.0
C349 C 0.45717 0.91596 0.94026 0.0
C350 C 0.44212 0.92032 0.00216 0.0
C351 C 0.41657 0.91168 0.01704 0.0
C352 C 0.40368 0.88372 0.0286 0.0
C353 C 0.41616 0.86392 0.02547 0.0
C354 C 0.44186 0.87276 0.01055 0.0
C355 C 0.45479 0.90078 -0.00094 0.0
C356 C 0.48491 0.97854 0.02568 0.0
C357 C 0.4711 0.98765 0.04235 0.0
C358 C 0.47601 0.98366 0.06475 0.0
C359 C 0.49497 0.97067 0.07077 0.0
C360 C 0.50996 0.96294 0.05397 0.0
C361 C 0.50494 0.96683 0.03164 0.0
C362 C 0.51663 0.03702 0.00177 0.0
C363 C 0.51206 0.06237 0.00485 0.0
C364 C 0.53774 0.09109 0.01329 0.0
C365 C 0.56832 0.09482 0.01875 0.0
C366 C 0.57239 0.06904 0.01611 0.0
C367 C 0.54681 0.04048 0.00768 0.0
C368 C 0.43956 0.97807 0.86122 0.0
C369 C 0.40258 0.8342 0.03772 0.0
H370 H 0.55542 0.51713 0.9981 0.0
H371 H 0.66931 0.4675 0.23095 0.0
H372 H 0.52968 0.56281 0.11089 0.0
H373 H 0.51936 0.59023 0.08156 0.0
H374 H 0.6208 0.66567 0.08599 0.0
H375 H 0.63087 0.63782 0.11538 0.0
H376 H 0.54632 0.50897 0.09498 0.0
H377 H 0.54183 0.50356 0.05437 0.0
H378 H 0.63478 0.59078 0.04945 0.0
H379 H 0.63908 0.59567 0.09007 0.0
H380 H 0.56677 0.47395 0.13427 0.0
H381 H 0.58424 0.43882 0.11986 0.0
H382 H 0.67313 0.51902 0.09621 0.0
H383 H 0.65576 0.5538 0.11088 0.0
H384 H 0.55811 0.48972 0.18037 0.0
H385 H 0.57119 0.46021 0.2063 0.0
H386 H 0.67408 0.5201 0.19202 0.0
H387 H 0.66064 0.54967 0.16636 0.0
H388 H 0.54303 0.53421 0.19458 0.0
H389 H 0.54701 0.52674 0.23445 0.0
H390 H 0.65196 0.59042 0.23283 0.0
H391 H 0.64762 0.59775 0.19314 0.0
H392 H 0.52928 0.57308 0.16484 0.0
H393 H 0.5172 0.61267 0.17767 0.0
H394 H 0.62021 0.68377 0.17466 0.0
H395 H 0.63198 0.64373 0.16239 0.0
O396 O 0.55804 0.51934 0.01412 0.0
O397 O 0.6061 0.5641 0.01252 0.0
O398 O 0.61026 0.44865 0.22753 0.0
O399 O 0.66341 0.47852 0.22059 0.0
C400 C 0.58822 0.57912 0.12968 0.0
C401 C 0.59441 0.55686 0.11998 0.0
C402 C 0.60096 0.53796 0.13366 0.0
C403 C 0.60064 0.54096 0.15701 0.0
C404 C 0.59415 0.5631 0.16663 0.0
C405 C 0.58814 0.58231 0.15298 0.0
C406 C 0.58094 0.59843 0.11514 0.0
C407 C 0.5494 0.58565 0.10592 0.0
C408 C 0.54359 0.60138 0.08924 0.0
C409 C 0.56935 0.63005 0.08148 0.0
C410 C 0.60061 0.64352 0.09158 0.0
C411 C 0.60633 0.62783 0.10841 0.0
C412 C 0.59293 0.55275 0.09541 0.0
C413 C 0.56579 0.52671 0.08508 0.0
C414 C 0.56325 0.52376 0.06189 0.0
C415 C 0.58787 0.54683 0.04865 0.0
C416 C 0.61533 0.57264 0.05914 0.0
C417 C 0.61785 0.57552 0.08232 0.0
C418 C 0.61003 0.51637 0.1236 0.0
C419 C 0.58991 0.48381 0.12587 0.0
C420 C 0.5999 0.46385 0.11767 0.0
C421 C 0.62996 0.47621 0.10685 0.0
C422 C 0.6496 0.50879 0.10414 0.0
C423 C 0.63978 0.52869 0.11254 0.0
C424 C 0.60845 0.52182 0.17157 0.0
C425 C 0.58344 0.49635 0.18285 0.0
C426 C 0.59098 0.47956 0.19764 0.0
C427 C 0.62371 0.48786 0.20128 0.0
C428 C 0.64865 0.51312 0.18963 0.0
C429 C 0.64106 0.52997 0.17491 0.0
C430 C 0.59506 0.56648 0.1911 0.0
C431 C 0.56663 0.54751 0.2031 0.0
C432 C 0.56902 0.543 0.22575 0.0
C433 C 0.59984 0.55766 0.23665 0.0
C434 C 0.62785 0.57898 0.22495 0.0
C435 C 0.62545 0.58329 0.2023 0.0
C436 C 0.58147 0.60563 0.16284 0.0
C437 C 0.54921 0.59714 0.16731 0.0
C438 C 0.54238 0.61985 0.1744 0.0
C439 C 0.56772 0.65146 0.17702 0.0
C440 C 0.60018 0.65963 0.17304 0.0
C441 C 0.60697 0.63686 0.166 0.0
C442 C 0.5847 0.54404 0.02402 0.0
C443 C 0.63191 0.47041 0.21725 0.0
Mn444 Mn 0.65118 0.43728 0.40542 0.0
Mn445 Mn 0.70257 0.51429 0.41808 0.0
C446 C 0.63592 0.46173 0.43099 0.0
C447 C 0.63424 0.38499 0.41087 0.0
C448 C 0.6592 0.49098 0.37661 0.0
O449 O 0.69433 0.44607 0.39285 0.0
O450 O 0.7268 0.49688 0.40307 0.0
C451 C 0.74317 0.50663 0.45196 0.0
N452 N 0.72376 0.51801 0.44607 0.0
C453 C 0.7302 0.54144 0.48244 0.0
C454 C 0.75046 0.53017 0.48885 0.0
C455 C 0.7569 0.51262 0.47356 0.0
C456 C 0.71723 0.53474 0.46069 0.0
H457 H 0.74809 0.49306 0.44027 0.0
C458 C 0.72211 0.47154 0.39388 0.0
O459 O 0.62775 0.39395 0.39234 0.0
O460 O 0.6509 0.40641 0.42605 0.0
N461 N 0.68334 0.53496 0.43268 0.0
C462 C 0.66266 0.54346 0.42404 0.0
C463 C 0.65343 0.56085 0.43729 0.0
C464 C 0.66594 0.56973 0.45915 0.0
C465 C 0.68776 0.56131 0.46752 0.0
C466 C 0.69623 0.54413 0.45348 0.0
H467 H 0.65307 0.53684 0.40722 0.0
O468 O 0.6141 0.43557 0.42132 0.0
O469 O 0.66642 0.47242 0.42608 0.0
O470 O 0.64575 0.4617 0.38025 0.0
O471 O 0.68103 0.51245 0.38949 0.0
C472 C 0.70091 0.56872 0.48937 0.0
C473 C 0.72201 0.55869 0.49685 0.0
H474 H 0.76103 0.53467 0.50551 0.0
H475 H 0.77238 0.50372 0.47842 0.0
H476 H 0.63666 0.56734 0.43069 0.0
H477 H 0.65851 0.58286 0.4694 0.0
H478 H 0.69461 0.58177 0.50065 0.0
H479 H 0.73166 0.56421 0.51377 0.0
Mn480 Mn 0.24612 0.63363 0.56559 0.0
Mn481 Mn 0.21144 0.55697 0.55128 0.0
C482 C 0.20437 0.61117 0.53908 0.0
C483 C 0.28707 0.6859 0.56061 0.0
C484 C 0.19595 0.5796 0.5938 0.0
O485 O 0.27901 0.62291 0.57782 0.0
O486 O 0.25504 0.57265 0.56574 0.0
C487 C 0.25781 0.56335 0.51655 0.0
N488 N 0.22659 0.55313 0.52284 0.0
C489 C 0.20505 0.53073 0.48644 0.0
C490 C 0.23695 0.54083 0.4796 0.0
C491 C 0.26345 0.55729 0.49471 0.0
C492 C 0.20093 0.53738 0.50842 0.0
H493 H 0.27823 0.57606 0.52812 0.0
C494 C 0.27841 0.59715 0.57565 0.0
O495 O 0.27143 0.67679 0.57916 0.0
O496 O 0.27944 0.66455 0.5453 0.0
N497 N 0.16916 0.53847 0.53705 0.0
C498 C 0.1402 0.53194 0.54591 0.0
C499 C 0.11136 0.5163 0.53275 0.0
C500 C 0.11254 0.50726 0.51074 0.0
C501 C 0.14255 0.51386 0.50208 0.0
C502 C 0.17046 0.52936 0.51601 0.0
H503 H 0.13914 0.53875 0.56284 0.0
O504 O 0.21128 0.63689 0.54946 0.0
O505 O 0.22241 0.59959 0.54428 0.0
O506 O 0.21408 0.609 0.59048 0.0
O507 O 0.19386 0.55853 0.58041 0.0
C508 C 0.14601 0.5063 0.48003 0.0
C509 C 0.17725 0.51482 0.47219 0.0
H510 H 0.24143 0.53631 0.46274 0.0
H511 H 0.28816 0.5653 0.48953 0.0
H512 H 0.08829 0.51129 0.53956 0.0
H513 H 0.0903 0.49547 0.50058 0.0
H514 H 0.12489 0.49441 0.46884 0.0
H515 H 0.17967 0.50935 0.45509 0.0
Mn516 Mn 0.61111 0.21857 0.7341 0.0
Mn517 Mn 0.63657 0.16728 0.72851 0.0
C518 C 0.58093 0.17366 0.71242 0.0
C519 C 0.61307 0.26381 0.72274 0.0
C520 C 0.60439 0.17308 0.77001 0.0
O521 O 0.65869 0.24386 0.74459 0.0
O522 O 0.67439 0.20909 0.73786 0.0
C523 C 0.67987 0.19491 0.69003 0.0
N524 N 0.65363 0.17 0.6995 0.0
C525 C 0.64338 0.13755 0.66685 0.0
C526 C 0.67043 0.1628 0.65679 0.0
C527 C 0.6887 0.19161 0.66842 0.0
C528 C 0.63587 0.14217 0.68846 0.0
H529 H 0.69391 0.21712 0.69889 0.0
C530 C 0.68037 0.23626 0.74412 0.0
O531 O 0.60458 0.25351 0.74275 0.0
O532 O 0.62045 0.24787 0.70943 0.0
N533 N 0.60245 0.12599 0.71933 0.0
C534 C 0.57595 0.10461 0.73087 0.0
C535 C 0.5545 0.07483 0.72128 0.0
C536 C 0.56061 0.0673 0.70001 0.0
C537 C 0.58818 0.08961 0.68853 0.0
C538 C 0.60883 0.11881 0.699 0.0
H539 H 0.57113 0.11027 0.74722 0.0
O540 O 0.56721 0.18835 0.72019 0.0
O541 O 0.61178 0.18583 0.71752 0.0
O542 O 0.59867 0.19372 0.76282 0.0
O543 O 0.61886 0.1622 0.75866 0.0
C544 C 0.59564 0.08423 0.66695 0.0
C545 C 0.6232 0.10819 0.6561 0.0
H546 H 0.6772 0.16041 0.64008 0.0
H547 H 0.7095 0.21125 0.66073 0.0
H548 H 0.53324 0.05776 0.73022 0.0
H549 H 0.54383 0.04442 0.69258 0.0
H550 H 0.58004 0.06192 0.65839 0.0
H551 H 0.62837 0.10393 0.63938 0.0
Mn552 Mn 0.46389 0.65281 0.9049 0.0
Mn553 Mn 0.45796 0.58743 0.9242 0.0
C554 C 0.49709 0.65664 0.93431 0.0
C555 C 0.44285 0.68549 0.90488 0.0
C556 C 0.48763 0.61637 0.87976 0.0
O557 O 0.42137 0.61715 0.89157 0.0
O558 O 0.41428 0.57625 0.91169 0.0
C559 C 0.41266 0.57289 0.9615 0.0
N560 N 0.4423 0.57949 0.95394 0.0
C561 C 0.45997 0.57518 0.99066 0.0
C562 C 0.42954 0.56811 -0.00119 0.0
C563 C 0.40583 0.56707 0.98418 0.0
C564 C 0.46537 0.58076 0.9679 0.0
H565 H 0.39444 0.57218 0.95031 0.0
C566 C 0.40416 0.58882 0.89779 0.0
O567 O 0.45872 0.684 0.88796 0.0
O568 O 0.43959 0.66826 0.92176 0.0
N569 N 0.4987 0.59569 0.93699 0.0
C570 C 0.52753 0.60485 0.92676 0.0
C571 C 0.5542 0.6081 0.93924 0.0
C572 C 0.55092 0.60171 0.96205 0.0
C573 C 0.52097 0.59217 0.97221 0.0
C574 C 0.49521 0.58925 0.95891 0.0
H575 H 0.53019 0.60964 0.90921 0.0
O576 O 0.50468 0.68135 0.9229 0.0
O577 O 0.4703 0.63108 0.92818 0.0
O578 O 0.48918 0.64235 0.88314 0.0
O579 O 0.47485 0.59383 0.89347 0.0
C580 C 0.51585 0.58597 0.99507 0.0
C581 C 0.4854 0.57758 0.00431 0.0
H582 H 0.42423 0.56375 0.01631 0.0
H583 H 0.38236 0.56182 0.99037 0.0
H584 H 0.57725 0.6155 0.93128 0.0
H585 H 0.5716 0.60442 0.97165 0.0
H586 H 0.53534 0.58812 0.00578 0.0
H587 H 0.48198 0.57347 0.02198 0.0
Mn588 Mn 0.80293 0.37044 0.06641 0.0
Mn589 Mn 0.83924 0.33012 0.07938 0.0
C590 C 0.84364 0.38993 0.09354 0.0
C591 C 0.76056 0.37987 0.0706 0.0
C592 C 0.85119 0.36601 0.03666 0.0
O593 O 0.77167 0.32669 0.05363 0.0
O594 O 0.79424 0.30021 0.06752 0.0
C595 C 0.79823 0.29184 0.1164 0.0
N596 N 0.82813 0.31366 0.10862 0.0
C597 C 0.85405 0.31853 0.14423 0.0
C598 C 0.82357 0.29597 0.15259 0.0
C599 C 0.79555 0.2826 0.13861 0.0
C600 C 0.85528 0.32657 0.12189 0.0
H601 H 0.77659 0.28164 0.10576 0.0
C602 C 0.77111 0.30127 0.0573 0.0
O603 O 0.77719 0.38681 0.05246 0.0
O604 O 0.76829 0.36704 0.08625 0.0
N605 N 0.88261 0.35696 0.09147 0.0
C606 C 0.9096 0.38016 0.08136 0.0
C607 C 0.93942 0.39692 0.09338 0.0
C608 C 0.9412 0.38966 0.11564 0.0
C609 C 0.91311 0.36566 0.12569 0.0
C610 C 0.88413 0.34957 0.11283 0.0
H611 H 0.90836 0.38598 0.0643 0.0
O612 O 0.83657 0.40862 0.08352 0.0
O613 O 0.82669 0.36062 0.08725 0.0
O614 O 0.83519 0.37894 0.04187 0.0
O615 O 0.85299 0.34623 0.04892 0.0
C616 C 0.91256 0.35756 0.14811 0.0
C617 C 0.88306 0.33399 0.15737 0.0
H618 H 0.82134 0.289 0.16977 0.0
H619 H 0.77191 0.26531 0.14498 0.0
H620 H 0.96096 0.4155 0.08553 0.0
H621 H 0.96417 0.40285 0.12491 0.0
H622 H 0.93457 0.36967 0.15848 0.0
H623 H 0.88284 0.32833 0.17472 0.0
Mn624 Mn 0.45318 0.81509 0.24094 0.0
Mn625 Mn 0.53162 0.8688 0.25501 0.0
C626 C 0.46408 0.84951 0.27012 0.0
C627 C 0.40706 0.76515 0.24288 0.0
C628 C 0.49603 0.87428 0.21485 0.0
O629 O 0.47906 0.79882 0.22551 0.0
O630 O 0.53016 0.83298 0.23871 0.0
C631 C 0.54513 0.83216 0.28704 0.0
N632 N 0.54356 0.85798 0.28241 0.0
C633 C 0.56081 0.87846 0.31976 0.0
C634 C 0.56286 0.85221 0.32487 0.0
C635 C 0.55494 0.82895 0.30845 0.0
C636 C 0.55118 0.88054 0.29808 0.0
H637 H 0.53886 0.81411 0.27451 0.0
C638 C 0.50942 0.80816 0.22761 0.0
O639 O 0.41195 0.78276 0.22592 0.0
O640 O 0.42952 0.7762 0.25853 0.0
N641 N 0.53619 0.90416 0.27122 0.0
C642 C 0.5309 0.92696 0.26403 0.0
C643 C 0.53651 0.95144 0.27871 0.0
C644 C 0.54762 0.95231 0.30059 0.0
C645 C 0.55313 0.92873 0.30756 0.0
C646 C 0.54738 0.90506 0.29214 0.0
H647 H 0.52222 0.92636 0.24727 0.0
O648 O 0.43558 0.83541 0.26011 0.0
O649 O 0.48525 0.84263 0.26293 0.0
O650 O 0.46836 0.85001 0.2187 0.0
O651 O 0.52177 0.88279 0.22676 0.0
C652 C 0.56339 0.9274 0.32937 0.0
C653 C 0.56722 0.90229 0.33546 0.0
H654 H 0.57016 0.84952 0.34142 0.0
H655 H 0.55627 0.80852 0.3123 0.0
H656 H 0.53213 0.96952 0.27321 0.0
H657 H 0.55159 0.97105 0.31193 0.0
H658 H 0.56792 0.94532 0.34168 0.0
H659 H 0.57467 0.90129 0.35237 0.0
H660 H 0.23807 0.58208 0.27551 0.0
H661 H 0.34994 0.74578 0.22021 0.0
H662 H 0.20926 0.65075 0.26933 0.0
H663 H 0.3927 0.7171 0.2712 0.0
H664 H 0.29614 0.70011 0.22784 0.0
H665 H 0.29388 0.62246 0.26523 0.0
C666 C 0.24321 0.60541 0.27204 0.0
C667 C 0.21842 0.61265 0.27308 0.0
C668 C 0.31746 0.70366 0.23709 0.0
C669 C 0.28171 0.65817 0.26051 0.0
C670 C 0.34813 0.72956 0.23272 0.0
C671 C 0.3757 0.73534 0.24527 0.0
C672 C 0.31445 0.6831 0.2538 0.0
C673 C 0.37191 0.71355 0.26132 0.0
C674 C 0.275 0.62826 0.26603 0.0
C675 C 0.22683 0.64338 0.26804 0.0
N676 N 0.34168 0.68826 0.26521 0.0
N677 N 0.25758 0.66481 0.26177 0.0
H678 H 0.50681 0.19088 0.4402 0.0
H679 H 0.66107 0.36108 0.4385 0.0
H680 H 0.60433 0.20607 0.44691 0.0
H681 H 0.57963 0.33348 0.39298 0.0
H682 H 0.63862 0.3057 0.44702 0.0
H683 H 0.53082 0.24456 0.4276 0.0
C684 C 0.53318 0.20516 0.43885 0.0
C685 C 0.55343 0.19353 0.44474 0.0
C686 C 0.62586 0.31184 0.43505 0.0
C687 C 0.58095 0.25555 0.43105 0.0
C688 C 0.63854 0.34332 0.43025 0.0
C689 C 0.62214 0.35172 0.41501 0.0
C690 C 0.59612 0.28878 0.42503 0.0
C691 C 0.59307 0.32788 0.40473 0.0
C692 C 0.54681 0.23592 0.43176 0.0
C693 C 0.58757 0.2139 0.44314 0.0
N694 N 0.58067 0.29743 0.41017 0.0
N695 N 0.60025 0.24399 0.4367 0.0
H696 H 0.39388 0.52825 0.63369 0.0
H697 H 0.34221 0.64463 0.58451 0.0
H698 H 0.46506 0.61724 0.60614 0.0
H699 H 0.27707 0.54434 0.58816 0.0
H700 H 0.38736 0.63888 0.59859 0.0
H701 H 0.35057 0.53804 0.62357 0.0
C702 C 0.40046 0.54985 0.62544 0.0
C703 C 0.4332 0.57164 0.62034 0.0
C704 C 0.36311 0.61824 0.59634 0.0
C705 C 0.3835 0.58327 0.6091 0.0
C706 C 0.33735 0.62149 0.58842 0.0
C707 C 0.30587 0.59489 0.58505 0.0
C708 C 0.35707 0.58829 0.60129 0.0
C709 C 0.30097 0.56547 0.5903 0.0
C710 C 0.37568 0.55548 0.61977 0.0
C711 C 0.4402 0.59974 0.61037 0.0
N712 N 0.32622 0.563 0.59819 0.0
N713 N 0.41551 0.6047 0.60494 0.0
H714 H 0.86957 0.40711 0.76519 0.0
H715 H 0.72965 0.22653 0.75606 0.0
H716 H 0.87714 0.33329 0.79582 0.0
H717 H 0.70867 0.30018 0.74776 0.0
H718 H 0.78585 0.26593 0.76699 0.0
H719 H 0.81201 0.36883 0.75558 0.0
C720 C 0.85917 0.38298 0.77001 0.0
C721 C 0.87844 0.37339 0.7811 0.0
C722 C 0.76892 0.27347 0.76286 0.0
C723 C 0.81293 0.32955 0.76984 0.0
C724 C 0.73685 0.251 0.75652 0.0
C725 C 0.71437 0.26005 0.75101 0.0
C726 C 0.77883 0.30532 0.76344 0.0
C727 C 0.72514 0.29214 0.75199 0.0
C728 C 0.82638 0.36116 0.76444 0.0
C729 C 0.86363 0.3417 0.78674 0.0
N730 N 0.75671 0.31369 0.75797 0.0
N731 N 0.8319 0.32094 0.78092 0.0
H732 H 0.38235 0.80712 0.95531 0.0
H733 H 0.44871 0.72734 0.87348 0.0
H734 H 0.42551 0.84507 0.89204 0.0
H735 H 0.40667 0.69097 0.93732 0.0
H736 H 0.43092 0.76514 0.87661 0.0
H737 H 0.38009 0.75856 0.94522 0.0
C738 C 0.39047 0.8049 0.93902 0.0
C739 C 0.40467 0.83034 0.92464 0.0
C740 C 0.42525 0.74863 0.88981 0.0
C741 C 0.40309 0.77522 0.91326 0.0
C742 C 0.43547 0.72712 0.88805 0.0
C743 C 0.42968 0.70641 0.90535 0.0
C744 C 0.40924 0.74945 0.90904 0.0
C745 C 0.41211 0.70687 0.92374 0.0
C746 C 0.3895 0.77727 0.93335 0.0
C747 C 0.41504 0.82622 0.90381 0.0
N748 N 0.40284 0.72829 0.92521 0.0
N749 N 0.4146 0.7994 0.8989 0.0
H750 H 0.62927 0.42885 0.12966 0.0
H751 H 0.74081 0.40841 0.04128 0.0
H752 H 0.65841 0.47716 0.06744 0.0
H753 H 0.72277 0.36985 0.10704 0.0
H754 H 0.70297 0.42644 0.04815 0.0
H755 H 0.6554 0.39963 0.11906 0.0
C756 C 0.64068 0.43289 0.1136 0.0
C757 C 0.64198 0.45565 0.09948 0.0
C758 C 0.70706 0.41381 0.06102 0.0
C759 C 0.67221 0.42267 0.08739 0.0
C760 C 0.72865 0.40347 0.0571 0.0
C761 C 0.73523 0.38795 0.07373 0.0
C762 C 0.69199 0.40862 0.08173 0.0
C763 C 0.71861 0.38199 0.09384 0.0
C764 C 0.65578 0.41639 0.10763 0.0
C765 C 0.65734 0.46019 0.07896 0.0
N766 N 0.69793 0.39258 0.09736 0.0
N767 N 0.67206 0.44401 0.0736 0.0
H768 H 0.42223 0.85949 0.49685 0.0
H769 H 0.30163 0.73754 0.58637 0.0
H770 H 0.3861 0.8862 0.5531 0.0
H771 H 0.32674 0.71035 0.52489 0.0
H772 H 0.3377 0.79273 0.57691 0.0
H773 H 0.39263 0.80535 0.50936 0.0
C774 C 0.40833 0.85403 0.51196 0.0
C775 C 0.40651 0.87741 0.52387 0.0
C776 C 0.33545 0.77466 0.56557 0.0
C777 C 0.37229 0.81535 0.53822 0.0
C778 C 0.31497 0.74317 0.571 0.0
C779 C 0.31102 0.71931 0.55633 0.0
C780 C 0.35219 0.78232 0.54538 0.0
C781 C 0.32889 0.72796 0.53663 0.0
C782 C 0.39126 0.82306 0.51903 0.0
C783 C 0.38779 0.86885 0.54321 0.0
N784 N 0.34857 0.75872 0.53171 0.0
N785 N 0.37136 0.83852 0.54975 0.0
H786 H 0.60763 0.43414 0.71333 0.0
H787 H 0.62171 0.28587 0.68056 0.0
H788 H 0.59506 0.39715 0.64633 0.0
H789 H 0.60619 0.30629 0.74768 0.0
H790 H 0.62081 0.3317 0.66795 0.0
H791 H 0.61637 0.39265 0.72635 0.0
C792 C 0.60719 0.41753 0.70134 0.0
C793 C 0.6005 0.41891 0.67875 0.0
C794 C 0.6177 0.32621 0.68545 0.0
C795 C 0.61023 0.37148 0.69348 0.0
C796 C 0.61827 0.30009 0.69267 0.0
C797 C 0.61379 0.29216 0.71518 0.0
C798 C 0.61288 0.34471 0.70087 0.0
C799 C 0.6095 0.31146 0.73014 0.0
C800 C 0.6119 0.39377 0.70879 0.0
C801 C 0.59982 0.39667 0.66392 0.0
N802 N 0.60912 0.33687 0.72271 0.0
N803 N 0.60457 0.37383 0.67155 0.0
H804 H 0.19653 0.50612 0.89128 0.0
H805 H 0.38122 0.59281 0.85722 0.0
H806 H 0.22459 0.51455 0.82264 0.0
H807 H 0.35004 0.54359 0.91901 0.0
H808 H 0.32398 0.5668 0.84464 0.0
H809 H 0.25286 0.5226 0.90271 0.0
C810 C 0.21459 0.51134 0.87867 0.0
C811 C 0.20618 0.50918 0.85604 0.0
C812 C 0.3297 0.56139 0.86084 0.0
C813 C 0.27017 0.52807 0.86886 0.0
C814 C 0.36227 0.57627 0.86804 0.0
C815 C 0.37021 0.5704 0.8892 0.0
C816 C 0.30488 0.54109 0.87512 0.0
C817 C 0.34485 0.54866 0.90255 0.0
C818 C 0.24652 0.52046 0.88516 0.0
C819 C 0.23021 0.51588 0.84026 0.0
N820 N 0.31313 0.53512 0.89543 0.0
N821 N 0.2613 0.52544 0.84698 0.0
H822 H 0.61459 0.10724 0.05111 0.0
H823 H 0.71868 0.29199 0.03166 0.0
H824 H 0.58667 0.15282 0.0028 0.0
H825 H 0.755 0.24195 0.06828 0.0
H826 H 0.66813 0.24214 0.02309 0.0
H827 H 0.66387 0.15764 0.0603 0.0
C828 C 0.6188 0.12786 0.04245 0.0
C829 C 0.59657 0.12574 0.02603 0.0
C830 C 0.68725 0.24213 0.03293 0.0
C831 C 0.65289 0.18359 0.03658 0.0
C832 C 0.71615 0.27056 0.03781 0.0
C833 C 0.74123 0.27122 0.05069 0.0
C834 C 0.68328 0.2142 0.04114 0.0
C835 C 0.73648 0.24267 0.05822 0.0
C836 C 0.64693 0.15664 0.04773 0.0
C837 C 0.60297 0.15339 0.0157 0.0
N838 N 0.70804 0.21537 0.05341 0.0
N839 N 0.63063 0.18117 0.02109 0.0
H840 H 0.51622 0.65655 0.16237 0.0
H841 H 0.56839 0.81203 0.23459 0.0
H842 H 0.60216 0.70233 0.20549 0.0
H843 H 0.47591 0.75793 0.19877 0.0
H844 H 0.58407 0.77536 0.22107 0.0
H845 H 0.50363 0.69636 0.173 0.0
C846 C 0.53235 0.67486 0.1742 0.0
C847 C 0.56015 0.67588 0.18321 0.0
C848 C 0.56043 0.77166 0.21609 0.0
C849 C 0.54612 0.72196 0.19518 0.0
C850 C 0.5515 0.79267 0.22371 0.0
C851 C 0.52067 0.78802 0.21792 0.0
C852 C 0.53846 0.74587 0.20252 0.0
C853 C 0.49982 0.76241 0.20382 0.0
C854 C 0.52526 0.69773 0.18014 0.0
C855 C 0.58059 0.70069 0.19802 0.0
N856 N 0.50905 0.74229 0.19668 0.0
N857 N 0.57312 0.72268 0.2036 0.0
H858 H 0.90285 0.52683 0.32768 0.0
H859 H 0.73092 0.4221 0.386 0.0
H860 H 0.87772 0.4408 0.36037 0.0
H861 H 0.7783 0.52238 0.37931 0.0
H862 H 0.77953 0.42452 0.37052 0.0
H863 H 0.85181 0.5212 0.34024 0.0
C864 C 0.88672 0.50678 0.33756 0.0
C865 C 0.89506 0.48457 0.34331 0.0
C866 C 0.77913 0.4459 0.37243 0.0
C867 C 0.83598 0.47765 0.35726 0.0
C868 C 0.75142 0.44456 0.38116 0.0
C869 C 0.75064 0.47212 0.38403 0.0
C870 C 0.80586 0.4749 0.36616 0.0
C871 C 0.77793 0.5006 0.37756 0.0
C872 C 0.85747 0.50353 0.34462 0.0
C873 C 0.8724 0.45849 0.35547 0.0
N874 N 0.80434 0.50122 0.36885 0.0
N875 N 0.84391 0.45579 0.36212 0.0
H876 H 0.05454 0.56918 0.43795 0.0
H877 H 0.21798 0.60054 0.49755 0.0
H878 H 0.1058 0.52331 0.41742 0.0
H879 H 0.1423 0.60049 0.53581 0.0
H880 H 0.18101 0.58164 0.46489 0.0
H881 H 0.08948 0.58857 0.47189 0.0
C882 C 0.07285 0.56292 0.44075 0.0
C883 C 0.07715 0.5444 0.42505 0.0
C884 C 0.17241 0.58557 0.48047 0.0
C885 C 0.11752 0.56718 0.46306 0.0
C886 C 0.19335 0.59612 0.49905 0.0
C887 C 0.18236 0.60042 0.51947 0.0
C888 C 0.14058 0.58004 0.48228 0.0
C889 C 0.15107 0.59633 0.5204 0.0
C890 C 0.09271 0.57398 0.45999 0.0
C891 C 0.10138 0.53715 0.42926 0.0
N892 N 0.13099 0.58604 0.50203 0.0
N893 N 0.12091 0.54886 0.44773 0.0
H894 H 0.54942 0.07403 0.58927 0.0
H895 H 0.51978 0.1203 0.71055 0.0
H896 H 0.45196 0.03313 0.61524 0.0
H897 H 0.60565 0.17711 0.67191 0.0
H898 H 0.49508 0.0831 0.67864 0.0
H899 H 0.57167 0.10567 0.62309 0.0
C900 C 0.53269 0.07112 0.60233 0.0
C901 C 0.49874 0.05066 0.59947 0.0
C902 C 0.51936 0.10367 0.67726 0.0
C903 C 0.52418 0.08774 0.63816 0.0
C904 C 0.53338 0.12474 0.69537 0.0
C905 C 0.56517 0.15092 0.69394 0.0
C906 C 0.53733 0.1093 0.65774 0.0
C907 C 0.58158 0.15644 0.67386 0.0
C908 C 0.54543 0.08958 0.62155 0.0
C909 C 0.47828 0.04869 0.61678 0.0
N910 N 0.56761 0.13565 0.65662 0.0
N911 N 0.49133 0.0671 0.63545 0.0
H912 H 0.52168 0.62127 0.73902 0.0
H913 H 0.48649 0.56367 0.86466 0.0
H914 H 0.49966 0.52984 0.7594 0.0
H915 H 0.51108 0.65608 0.84455 0.0
H916 H 0.4949 0.55211 0.82664 0.0
H917 H 0.52042 0.63536 0.77793 0.0
C918 C 0.51654 0.60416 0.75169 0.0
C919 C 0.51043 0.57424 0.74594 0.0
C920 C 0.49872 0.57501 0.8306 0.0
C921 C 0.50904 0.59018 0.79049 0.0
C922 C 0.49406 0.5817 0.85236 0.0
C923 C 0.49772 0.6108 0.85784 0.0
C924 C 0.50699 0.59752 0.81415 0.0
C925 C 0.50773 0.63324 0.84114 0.0
C926 C 0.51584 0.6122 0.77389 0.0
C927 C 0.50379 0.55293 0.76302 0.0
N928 N 0.5117 0.62601 0.82003 0.0
N929 N 0.50324 0.56131 0.78451 0.0
H930 H 0.91224 0.35555 0.9035 0.0
H931 H 0.87157 0.41898 0.01287 0.0
H932 H 0.95318 0.45422 0.91796 0.0
H933 H 0.86759 0.33062 0.01088 0.0
H934 H 0.8954 0.43028 0.97596 0.0
H935 H 0.88942 0.34383 0.94082 0.0
C936 C 0.91646 0.37477 0.91442 0.0
C937 C 0.93463 0.40597 0.90737 0.0
C938 C 0.88946 0.40849 0.98365 0.0
C939 C 0.90809 0.39254 0.94997 0.0
C940 C 0.87581 0.40198 0.00469 0.0
C941 C 0.8676 0.37381 0.01497 0.0
C942 C 0.89445 0.38646 0.97258 0.0
C943 C 0.87375 0.3527 0.00361 0.0
C944 C 0.90337 0.368 0.93571 0.0
C945 C 0.93876 0.42976 0.92228 0.0
N946 N 0.88655 0.35933 0.98289 0.0
N947 N 0.92552 0.42253 0.94278 0.0
H948 H 0.44552 0.94419 0.10065 0.0
H949 H 0.551 0.91965 0.19372 0.0
H950 H 0.5485 0.97796 0.09411 0.0
H951 H 0.4453 0.87222 0.19192 0.0
H952 H 0.55242 0.94801 0.1603 0.0
H953 H 0.44721 0.92528 0.13751 0.0
C954 C 0.46866 0.94814 0.10712 0.0
C955 C 0.49688 0.96256 0.0942 0.0
C956 C 0.52898 0.93149 0.16735 0.0
C957 C 0.49884 0.94034 0.13632 0.0
C958 C 0.52814 0.91535 0.18643 0.0
C959 C 0.49797 0.89322 0.19551 0.0
C960 C 0.49946 0.92567 0.15747 0.0
C961 C 0.46914 0.8887 0.18538 0.0
C962 C 0.46954 0.93705 0.12811 0.0
C963 C 0.52605 0.96656 0.10337 0.0
N964 N 0.47061 0.90468 0.16692 0.0
N965 N 0.52624 0.95534 0.12383 0.0
H966 H 0.57098 0.49805 0.25203 0.0
H967 H 0.67966 0.55089 0.36414 0.0
H968 H 0.63817 0.59459 0.27183 0.0
H969 H 0.61418 0.45402 0.34391 0.0
H970 H 0.66192 0.56714 0.33164 0.0
H971 H 0.58284 0.48145 0.28709 0.0
C972 C 0.58771 0.51579 0.26398 0.0
C973 C 0.60357 0.54778 0.25905 0.0
C974 C 0.65138 0.54232 0.33431 0.0
C975 C 0.61785 0.5289 0.29898 0.0
C976 C 0.66157 0.53296 0.35286 0.0
C977 C 0.64859 0.50096 0.35676 0.0
C978 C 0.62801 0.5196 0.31941 0.0
C979 C 0.62502 0.47893 0.34157 0.0
C980 C 0.59473 0.50628 0.28389 0.0
C981 C 0.62561 0.5697 0.27491 0.0
N982 N 0.61557 0.48868 0.32353 0.0
N983 N 0.63222 0.55984 0.29412 0.0
H984 H 0.43866 0.94989 0.37748 0.0
H985 H 0.48348 0.83896 0.30996 0.0
H986 H 0.49449 0.91311 0.40653 0.0
H987 H 0.45054 0.89506 0.27858 0.0
H988 H 0.48513 0.86335 0.34598 0.0
H989 H 0.43914 0.92666 0.34159 0.0
C990 C 0.45066 0.93656 0.37634 0.0
C991 C 0.46632 0.93317 0.39502 0.0
C992 C 0.47793 0.87064 0.3312 0.0
C993 C 0.46739 0.90692 0.35395 0.0
C994 C 0.47734 0.85699 0.31068 0.0
C995 C 0.46815 0.86608 0.29134 0.0
C996 C 0.46832 0.89284 0.33237 0.0
C997 C 0.45857 0.88814 0.29315 0.0
C998 C 0.45124 0.92361 0.35581 0.0
C999 C 0.48216 0.91628 0.39251 0.0
N1000 N 0.45898 0.90087 0.31334 0.0
N1001 N 0.4822 0.90368 0.37235 0.0
H1002 H 0.52653 0.51535 0.51479 0.0
H1003 H 0.65903 0.4762 0.47359 0.0
H1004 H 0.61908 0.54805 0.54902 0.0
H1005 H 0.58778 0.47515 0.42848 0.0
H1006 H 0.64105 0.49814 0.50288 0.0
H1007 H 0.54588 0.49767 0.48348 0.0
C1008 C 0.55105 0.51927 0.51556 0.0
C1009 C 0.57119 0.53321 0.53455 0.0
C1010 C 0.62953 0.49341 0.48652 0.0
C1011 C 0.59309 0.51254 0.49918 0.0
C1012 C 0.63992 0.4811 0.46986 0.0
C1013 C 0.62581 0.47539 0.44851 0.0
C1014 C 0.60437 0.49932 0.48182 0.0
C1015 C 0.59985 0.4803 0.44467 0.0
C1016 C 0.56204 0.50916 0.49775 0.0
C1017 C 0.60281 0.5378 0.53466 0.0
N1018 N 0.59004 0.49224 0.46116 0.0
N1019 N 0.6126 0.52714 0.51739 0.0
H1020 H 0.08844 0.47348 0.70691 0.0
H1021 H 0.17653 0.61188 0.62074 0.0
H1022 H 0.06516 0.54602 0.70204 0.0
H1023 H 0.16884 0.52223 0.61265 0.0
H1024 H 0.14084 0.59159 0.65307 0.0
H1025 H 0.12249 0.49409 0.67447 0.0
C1026 C 0.08985 0.49335 0.6988 0.0
C1027 C 0.07332 0.50766 0.70716 0.0
C1028 C 0.14703 0.57646 0.64414 0.0
C1029 C 0.11356 0.53217 0.6702 0.0
C1030 C 0.16754 0.58806 0.62581 0.0
C1031 C 0.17569 0.56873 0.61394 0.0
C1032 C 0.13506 0.54553 0.65079 0.0
C1033 C 0.16314 0.53797 0.62118 0.0
C1034 C 0.10968 0.50535 0.68035 0.0
C1035 C 0.07745 0.53424 0.69629 0.0
N1036 N 0.14363 0.52742 0.63914 0.0
N1037 N 0.09727 0.54573 0.67842 0.0
H1038 H 0.56873 0.07135 0.89117 0.0
H1039 H 0.57259 0.18904 0.80056 0.0
H1040 H 0.52449 0.12686 0.90178 0.0
H1041 H 0.61279 0.12972 0.79142 0.0
H1042 H 0.55646 0.16868 0.83808 0.0
H1043 H 0.5876 0.09537 0.85533 0.0
C1044 C 0.56346 0.08906 0.88615 0.0
C1045 C 0.54527 0.09733 0.89968 0.0
C1046 C 0.56885 0.16022 0.82782 0.0
C1047 C 0.56612 0.12443 0.85807 0.0
C1048 C 0.57805 0.17178 0.80639 0.0
C1049 C 0.59408 0.16109 0.79272 0.0
C1050 C 0.5758 0.13786 0.83564 0.0
C1051 C 0.6005 0.13872 0.80124 0.0
C1052 C 0.57396 0.10254 0.86549 0.0
C1053 C 0.53835 0.11971 0.89186 0.0
N1054 N 0.59135 0.12791 0.82208 0.0
N1055 N 0.54875 0.13247 0.87152 0.0
H1056 H 0.60825 0.65304 0.0452 0.0
H1057 H 0.46543 0.6463 0.97267 0.0
H1058 H 0.51791 0.6378 0.07218 0.0
H1059 H 0.56063 0.67661 0.94634 0.0
H1060 H 0.48693 0.64902 0.01011 0.0
H1061 H 0.59451 0.66777 0.00995 0.0
C1062 C 0.58592 0.65357 0.04387 0.0
C1063 C 0.56402 0.64397 0.06155 0.0
C1064 C 0.50336 0.65541 0.99626 0.0
C1065 C 0.54798 0.66032 0.02126 0.0
C1066 C 0.491 0.65361 0.97493 0.0
C1067 C 0.51116 0.66021 0.95662 0.0
C1068 C 0.53609 0.66358 -0.00076 0.0
C1069 C 0.54429 0.6706 0.9602 0.0
C1070 C 0.57802 0.66184 0.02372 0.0
C1071 C 0.5352 0.64459 0.05884 0.0
N1072 N 0.55569 0.67137 0.98118 0.0
N1073 N 0.52785 0.65227 0.03898 0.0
H1074 H 0.97197 0.4967 0.20449 0.0
H1075 H 0.82234 0.36162 0.13287 0.0
H1076 H 0.90661 0.40411 0.22927 0.0
H1077 H 0.9038 0.44188 0.10299 0.0
H1078 H 0.85047 0.37885 0.16909 0.0
H1079 H 0.9448 0.47922 0.16789 0.0
C1080 C 0.95165 0.47277 0.20225 0.0
C1081 C 0.94125 0.45185 0.21993 0.0
C1082 C 0.86242 0.39258 0.15462 0.0
C1083 C 0.91036 0.43169 0.17817 0.0
C1084 C 0.84651 0.38263 0.13397 0.0
C1085 C 0.86151 0.39977 0.11496 0.0
C1086 C 0.8932 0.42037 0.15634 0.0
C1087 C 0.89195 0.42769 0.1173 0.0
C1088 C 0.9364 0.46275 0.18134 0.0
C1089 C 0.91532 0.42094 0.21605 0.0
N1090 N 0.90695 0.43714 0.13768 0.0
N1091 N 0.90063 0.41182 0.1956 0.0
loop_
_geom_bond_atom_site_label_1
_geom_bond_atom_site_label_2
_geom_bond_distance
_geom_bond_site_symmetry_2
_ccdc_geom_bond_type
H0 O26 0.856 . S
H1 O29 0.854 . S
H2 C37 0.930 1_455 S
H3 C38 0.930 . S
H4 C40 0.930 . S
H5 C41 0.930 . S
H6 C43 0.931 . S
H7 C44 0.930 . S
H8 C46 0.930 . S
H9 C47 0.929 . S
H10 C49 0.930 . S
H11 C50 0.931 . S
H12 C52 0.930 . S
H13 C53 0.929 . S
H14 C55 0.931 . S
H15 C56 0.930 . S
H16 C58 0.930 . S
H17 C59 0.932 . S
H18 C61 0.930 . S
H19 C62 0.929 . S
H20 C64 0.931 . S
H21 C65 0.930 . S
H22 C67 0.929 . S
H23 C68 0.931 . S
H24 C70 0.930 . S
H25 C71 0.926 1_455 S
O26 H0 0.856 . S
O26 C72 1.300 . S
O27 C72 1.209 . S
O28 C73 1.199 . S
O29 H1 0.854 . S
O29 C73 1.297 . S
C30 C31 1.404 . S
C30 C35 1.397 . S
C30 C36 1.492 . S
C31 C30 1.404 . S
C31 C32 1.396 . S
C31 C42 1.492 . S
C32 C31 1.396 . S
C32 C33 1.397 . S
C32 C48 1.509 . S
C33 C32 1.397 . S
C33 C34 1.412 . S
C33 C54 1.485 . S
C34 C33 1.412 . S
C34 C35 1.388 . S
C34 C60 1.490 . S
C35 C30 1.397 . S
C35 C34 1.388 . S
C35 C66 1.519 1_455 S
C36 C30 1.492 . S
C36 C37 1.363 1_455 S
C36 C41 1.390 1_455 S
C37 H2 0.930 1_655 S
C37 C36 1.363 1_655 S
C37 C38 1.372 . S
C38 H3 0.930 . S
C38 C37 1.372 . S
C38 C39 1.383 . S
C39 C38 1.383 . S
C39 C40 1.395 . S
C40 H4 0.930 . S
C40 C39 1.395 . S
C40 C41 1.362 . S
C41 H5 0.930 . S
C41 C36 1.390 1_655 S
C41 C40 1.362 . S
C42 C31 1.492 . S
C42 C43 1.377 . S
C42 C47 1.397 . S
C43 H6 0.931 . S
C43 C42 1.377 . S
C43 C44 1.376 . S
C44 H7 0.930 . S
C44 C43 1.376 . S
C44 C45 1.376 . S
C45 C44 1.376 . S
C45 C46 1.378 . S
C45 C72 1.486 . S
C46 H8 0.930 . S
C46 C45 1.378 . S
C46 C47 1.376 . S
C47 H9 0.929 . S
C47 C42 1.397 . S
C47 C46 1.376 . S
C48 C32 1.509 . S
C48 C49 1.391 . S
C48 C53 1.386 . S
C49 H10 0.930 . S
C49 C48 1.391 . S
C49 C50 1.375 . S
C50 H11 0.931 . S
C50 C49 1.375 . S
C50 C51 1.375 . S
C51 C50 1.375 . S
C51 C52 1.361 . S
C52 H12 0.930 . S
C52 C51 1.361 . S
C52 C53 1.399 . S
C53 H13 0.929 . S
C53 C48 1.386 . S
C53 C52 1.399 . S
C54 C33 1.485 . S
C54 C55 1.394 . S
C54 C59 1.360 . S
C55 H14 0.931 . S
C55 C54 1.394 . S
C55 C56 1.372 . S
C56 H15 0.930 . S
C56 C55 1.372 . S
C56 C57 1.397 . S
C57 C56 1.397 . S
C57 C58 1.390 . S
C57 C73 1.476 . S
C58 H16 0.930 . S
C58 C57 1.390 . S
C58 C59 1.366 . S
C59 H17 0.932 . S
C59 C54 1.360 . S
C59 C58 1.366 . S
C60 C34 1.490 . S
C60 C61 1.380 . S
C60 C65 1.386 . S
C61 H18 0.930 . S
C61 C60 1.380 . S
C61 C62 1.381 . S
C62 H19 0.929 . S
C62 C61 1.381 . S
C62 C63 1.371 . S
C63 C62 1.371 . S
C63 C64 1.380 . S
C64 H20 0.931 . S
C64 C63 1.380 . S
C64 C65 1.387 . S
C65 H21 0.930 . S
C65 C60 1.386 . S
C65 C64 1.387 . S
C66 C35 1.519 1_655 S
C66 C67 1.377 . S
C66 C71 1.361 . S
C67 H22 0.929 . S
C67 C66 1.377 . S
C67 C68 1.386 . S
C68 H23 0.931 . S
C68 C67 1.386 . S
C68 C69 1.363 . S
C69 C68 1.363 . S
C69 C70 1.385 . S
C70 H24 0.930 . S
C70 C69 1.385 . S
C70 C71 1.396 . S
C71 H25 0.926 1_655 S
C71 C66 1.361 . S
C71 C70 1.396 . S
C72 O26 1.300 . S
C72 O27 1.209 . S
C72 C45 1.486 . S
C73 O28 1.199 . S
C73 O29 1.297 . S
C73 C57 1.476 . S
H74 O100 0.856 . S
H75 O103 0.854 . S
H76 C111 0.930 . S
H77 C112 0.930 . S
H78 C114 0.930 . S
H79 C115 0.930 . S
H80 C117 0.931 . S
H81 C118 0.930 . S
H82 C120 0.930 . S
H83 C121 0.929 . S
H84 C123 0.930 . S
H85 C124 0.931 . S
H86 C126 0.930 . S
H87 C127 0.929 . S
H88 C129 0.931 . S
H89 C130 0.930 . S
H90 C132 0.930 . S
H91 C133 0.932 . S
H92 C135 0.930 . S
H93 C136 0.929 . S
H94 C138 0.931 . S
H95 C139 0.930 . S
H96 C141 0.929 . S
H97 C142 0.931 . S
H98 C144 0.930 . S
H99 C145 0.941 . S
O100 H74 0.856 . S
O100 C146 1.300 . S
O101 C146 1.209 . S
O102 C147 1.199 . S
O103 H75 0.854 . S
O103 C147 1.297 . S
C104 C105 1.404 . S
C104 C109 1.397 . S
C104 C110 1.492 . S
C105 C104 1.404 . S
C105 C106 1.396 . S
C105 C116 1.492 . S
C106 C105 1.396 . S
C106 C107 1.397 . S
C106 C122 1.509 . S
C107 C106 1.397 . S
C107 C108 1.412 . S
C107 C128 1.485 . S
C108 C107 1.412 . S
C108 C109 1.388 . S
C108 C134 1.490 . S
C109 C104 1.397 . S
C109 C108 1.388 . S
C109 C140 1.519 1_545 S
C110 C104 1.492 . S
C110 C111 1.363 . S
C110 C115 1.390 1_545 S
C111 H76 0.930 . S
C111 C110 1.363 . S
C111 C112 1.372 1_545 S
C112 H77 0.930 . S
C112 C111 1.372 1_565 S
C112 C113 1.383 . S
C113 C112 1.383 . S
C113 C114 1.395 . S
C114 H78 0.930 . S
C114 C113 1.395 . S
C114 C115 1.362 . S
C115 H79 0.930 . S
C115 C110 1.390 1_565 S
C115 C114 1.362 . S
C116 C105 1.492 . S
C116 C117 1.377 . S
C116 C121 1.397 . S
C117 H80 0.931 . S
C117 C116 1.377 . S
C117 C118 1.376 . S
C118 H81 0.930 . S
C118 C117 1.376 . S
C118 C119 1.376 . S
C119 C118 1.376 . S
C119 C120 1.378 . S
C119 C146 1.486 . S
C120 H82 0.930 . S
C120 C119 1.378 . S
C120 C121 1.376 . S
C121 H83 0.929 . S
C121 C116 1.397 . S
C121 C120 1.376 . S
C122 C106 1.509 . S
C122 C123 1.391 . S
C122 C127 1.386 . S
C123 H84 0.930 . S
C123 C122 1.391 . S
C123 C124 1.375 . S
C124 H85 0.931 . S
C124 C123 1.375 . S
C124 C125 1.375 . S
C125 C124 1.375 . S
C125 C126 1.361 . S
C126 H86 0.930 . S
C126 C125 1.361 . S
C126 C127 1.399 . S
C127 H87 0.929 . S
C127 C122 1.386 . S
C127 C126 1.399 . S
C128 C107 1.485 . S
C128 C129 1.394 . S
C128 C133 1.360 . S
C129 H88 0.931 . S
C129 C128 1.394 . S
C129 C130 1.372 . S
C130 H89 0.930 . S
C130 C129 1.372 . S
C130 C131 1.397 . S
C131 C130 1.397 . S
C131 C132 1.390 . S
C131 C147 1.476 . S
C132 H90 0.930 . S
C132 C131 1.390 . S
C132 C133 1.366 . S
C133 H91 0.932 . S
C133 C128 1.360 . S
C133 C132 1.366 . S
C134 C108 1.490 . S
C134 C135 1.380 . S
C134 C139 1.386 . S
C135 H92 0.930 . S
C135 C134 1.380 . S
C135 C136 1.381 . S
C136 H93 0.929 . S
C136 C135 1.381 . S
C136 C137 1.371 . S
C137 C136 1.371 . S
C137 C138 1.380 . S
C138 H94 0.931 . S
C138 C137 1.380 . S
C138 C139 1.387 . S
C139 H95 0.930 . S
C139 C134 1.386 . S
C139 C138 1.387 . S
C140 C109 1.519 1_565 S
C140 C141 1.377 . S
C140 C145 1.361 . S
C141 H96 0.929 . S
C141 C140 1.377 . S
C141 C142 1.386 . S
C142 H97 0.931 . S
C142 C141 1.386 . S
C142 C143 1.363 . S
C143 C142 1.363 . S
C143 C144 1.385 . S
C144 H98 0.930 . S
C144 C143 1.385 . S
C144 C145 1.396 . S
C145 H99 0.941 . S
C145 C140 1.361 . S
C145 C144 1.396 . S
C146 O100 1.300 . S
C146 O101 1.209 . S
C146 C119 1.486 . S
C147 O102 1.199 . S
C147 O103 1.297 . S
C147 C131 1.476 . S
H148 O174 0.856 . S
H149 O177 0.854 . S
H150 C185 0.930 . S
H151 C186 0.930 . S
H152 C188 0.930 . S
H153 C189 0.930 . S
H154 C191 0.931 . S
H155 C192 0.930 . S
H156 C194 0.930 . S
H157 C195 0.929 . S
H158 C197 0.930 . S
H159 C198 0.931 . S
H160 C200 0.930 . S
H161 C201 0.929 . S
H162 C203 0.931 . S
H163 C204 0.930 . S
H164 C206 0.930 . S
H165 C207 0.932 . S
H166 C209 0.930 . S
H167 C210 0.929 . S
H168 C212 0.931 . S
H169 C213 0.930 . S
H170 C215 0.929 . S
H171 C216 0.931 . S
H172 C218 0.930 . S
H173 C219 0.929 . S
O174 H148 0.856 . S
O174 C220 1.300 . S
O175 C220 1.209 . S
O176 C221 1.199 . S
O177 H149 0.854 . S
O177 C221 1.297 . S
C178 C179 1.404 . S
C178 C183 1.397 . S
C178 C184 1.492 . S
C179 C178 1.404 . S
C179 C180 1.396 . S
C179 C190 1.492 . S
C180 C179 1.396 . S
C180 C181 1.397 . S
C180 C196 1.509 . S
C181 C180 1.397 . S
C181 C182 1.412 . S
C181 C202 1.485 . S
C182 C181 1.412 . S
C182 C183 1.388 . S
C182 C208 1.490 . S
C183 C178 1.397 . S
C183 C182 1.388 . S
C183 C214 1.519 . S
C184 C178 1.492 . S
C184 C185 1.363 . S
C184 C189 1.390 . S
C185 H150 0.930 . S
C185 C184 1.363 . S
C185 C186 1.372 . S
C186 H151 0.930 . S
C186 C185 1.372 . S
C186 C187 1.383 . S
C187 C186 1.383 . S
C187 C188 1.395 . S
C188 H152 0.930 . S
C188 C187 1.395 . S
C188 C189 1.362 . S
C189 H153 0.930 . S
C189 C184 1.390 . S
C189 C188 1.362 . S
C190 C179 1.492 . S
C190 C191 1.377 . S
C190 C195 1.397 . S
C191 H154 0.931 . S
C191 C190 1.377 . S
C191 C192 1.376 . S
C192 H155 0.930 . S
C192 C191 1.376 . S
C192 C193 1.376 . S
C193 C192 1.376 . S
C193 C194 1.378 . S
C193 C220 1.486 . S
C194 H156 0.930 . S
C194 C193 1.378 . S
C194 C195 1.376 . S
C195 H157 0.929 . S
C195 C190 1.397 . S
C195 C194 1.376 . S
C196 C180 1.509 . S
C196 C197 1.391 . S
C196 C201 1.386 . S
C197 H158 0.930 . S
C197 C196 1.391 . S
C197 C198 1.375 . S
C198 H159 0.931 . S
C198 C197 1.375 . S
C198 C199 1.375 . S
C199 C198 1.375 . S
C199 C200 1.361 . S
C200 H160 0.930 . S
C200 C199 1.361 . S
C200 C201 1.399 . S
C201 H161 0.929 . S
C201 C196 1.386 . S
C201 C200 1.399 . S
C202 C181 1.485 . S
C202 C203 1.394 . S
C202 C207 1.360 . S
C203 H162 0.931 . S
C203 C202 1.394 . S
C203 C204 1.372 . S
C204 H163 0.930 . S
C204 C203 1.372 . S
C204 C205 1.397 . S
C205 C204 1.397 . S
C205 C206 1.390 . S
C205 C221 1.476 . S
C206 H164 0.930 . S
C206 C205 1.390 . S
C206 C207 1.366 . S
C207 H165 0.932 . S
C207 C202 1.360 . S
C207 C206 1.366 . S
C208 C182 1.490 . S
C208 C209 1.380 . S
C208 C213 1.386 . S
C209 H166 0.930 . S
C209 C208 1.380 . S
C209 C210 1.381 . S
C210 H167 0.929 . S
C210 C209 1.381 . S
C210 C211 1.371 . S
C211 C210 1.371 . S
C211 C212 1.380 . S
C212 H168 0.931 . S
C212 C211 1.380 . S
C212 C213 1.387 . S
C213 H169 0.930 . S
C213 C208 1.386 . S
C213 C212 1.387 . S
C214 C183 1.519 . S
C214 C215 1.377 . S
C214 C219 1.361 . S
C215 H170 0.929 . S
C215 C214 1.377 . S
C215 C216 1.386 . S
C216 H171 0.931 . S
C216 C215 1.386 . S
C216 C217 1.363 . S
C217 C216 1.363 . S
C217 C218 1.385 . S
C218 H172 0.930 . S
C218 C217 1.385 . S
C218 C219 1.396 . S
C219 H173 0.929 . S
C219 C214 1.361 . S
C219 C218 1.396 . S
C220 O174 1.300 . S
C220 O175 1.209 . S
C220 C193 1.486 . S
C221 O176 1.199 . S
C221 O177 1.297 . S
C221 C205 1.476 . S
H222 O248 0.856 . S
H223 O251 0.854 . S
H224 C259 0.930 1_455 S
H225 C260 0.930 . S
H226 C262 0.930 . S
H227 C263 0.930 . S
H228 C265 0.931 . S
H229 C266 0.930 . S
H230 C268 0.930 . S
H231 C269 0.929 . S
H232 C271 0.930 . S
H233 C272 0.931 . S
H234 C274 0.930 . S
H235 C275 0.929 . S
H236 C277 0.931 . S
H237 C278 0.930 . S
H238 C280 0.930 . S
H239 C281 0.932 . S
H240 C283 0.930 . S
H241 C284 0.929 . S
H242 C286 0.931 . S
H243 C287 0.930 . S
H244 C289 0.929 . S
H245 C290 0.931 . S
H246 C292 0.930 . S
H247 C293 0.950 . S
O248 H222 0.856 . S
O248 C294 1.300 . S
O249 C294 1.209 . S
O250 C295 1.199 . S
O251 H223 0.854 . S
O251 C295 1.297 . S
C252 C253 1.404 . S
C252 C257 1.397 . S
C252 C258 1.492 . S
C253 C252 1.404 . S
C253 C254 1.396 . S
C253 C264 1.492 . S
C254 C253 1.396 . S
C254 C255 1.397 . S
C254 C270 1.509 . S
C255 C254 1.397 . S
C255 C256 1.412 . S
C255 C276 1.485 . S
C256 C255 1.412 . S
C256 C257 1.388 . S
C256 C282 1.490 . S
C257 C252 1.397 . S
C257 C256 1.388 . S
C257 C288 1.519 1_455 S
C258 C252 1.492 . S
C258 C259 1.363 1_455 S
C258 C263 1.390 1_455 S
C259 H224 0.930 1_655 S
C259 C258 1.363 1_655 S
C259 C260 1.372 . S
C260 H225 0.930 . S
C260 C259 1.372 . S
C260 C261 1.383 . S
C261 C260 1.383 . S
C261 C262 1.395 . S
C262 H226 0.930 . S
C262 C261 1.395 . S
C262 C263 1.362 . S
C263 H227 0.930 . S
C263 C258 1.390 1_655 S
C263 C262 1.362 . S
C264 C253 1.492 . S
C264 C265 1.377 . S
C264 C269 1.397 . S
C265 H228 0.931 . S
C265 C264 1.377 . S
C265 C266 1.376 . S
C266 H229 0.930 . S
C266 C265 1.376 . S
C266 C267 1.376 . S
C267 C266 1.376 . S
C267 C268 1.378 . S
C267 C294 1.486 . S
C268 H230 0.930 . S
C268 C267 1.378 . S
C268 C269 1.376 . S
C269 H231 0.929 . S
C269 C264 1.397 . S
C269 C268 1.376 . S
C270 C254 1.509 . S
C270 C271 1.391 . S
C270 C275 1.386 . S
C271 H232 0.930 . S
C271 C270 1.391 . S
C271 C272 1.375 . S
C272 H233 0.931 . S
C272 C271 1.375 . S
C272 C273 1.375 . S
C273 C272 1.375 . S
C273 C274 1.361 . S
C274 H234 0.930 . S
C274 C273 1.361 . S
C274 C275 1.399 . S
C275 H235 0.929 . S
C275 C270 1.386 . S
C275 C274 1.399 . S
C276 C255 1.485 . S
C276 C277 1.394 . S
C276 C281 1.360 . S
C277 H236 0.931 . S
C277 C276 1.394 . S
C277 C278 1.372 . S
C278 H237 0.930 . S
C278 C277 1.372 . S
C278 C279 1.397 . S
C279 C278 1.397 . S
C279 C280 1.390 . S
C279 C295 1.476 . S
C280 H238 0.930 . S
C280 C279 1.390 . S
C280 C281 1.366 . S
C281 H239 0.932 . S
C281 C276 1.360 . S
C281 C280 1.366 . S
C282 C256 1.490 . S
C282 C283 1.380 . S
C282 C287 1.386 . S
C283 H240 0.930 . S
C283 C282 1.380 . S
C283 C284 1.381 . S
C284 H241 0.929 . S
C284 C283 1.381 . S
C284 C285 1.371 . S
C285 C284 1.371 . S
C285 C286 1.380 . S
C286 H242 0.931 . S
C286 C285 1.380 . S
C286 C287 1.387 . S
C287 H243 0.930 . S
C287 C282 1.386 . S
C287 C286 1.387 . S
C288 C257 1.519 1_655 S
C288 C289 1.377 . S
C288 C293 1.361 . S
C289 H244 0.929 . S
C289 C288 1.377 . S
C289 C290 1.386 . S
C290 H245 0.931 . S
C290 C289 1.386 . S
C290 C291 1.363 . S
C291 C290 1.363 . S
C291 C292 1.385 . S
C292 H246 0.930 . S
C292 C291 1.385 . S
C292 C293 1.396 . S
C293 H247 0.950 . S
C293 C288 1.361 . S
C293 C292 1.396 . S
C294 O248 1.300 . S
C294 O249 1.209 . S
C294 C267 1.486 . S
C295 O250 1.199 . S
C295 O251 1.297 . S
C295 C279 1.476 . S
H296 O322 0.856 . S
H297 O325 0.854 . S
H298 C333 0.930 . S
H299 C334 0.930 . S
H300 C336 0.930 . S
H301 C337 0.930 . S
H302 C339 0.931 . S
H303 C340 0.930 . S
H304 C342 0.930 . S
H305 C343 0.929 . S
H306 C345 0.930 . S
H307 C346 0.931 . S
H308 C348 0.930 . S
H309 C349 0.929 . S
H310 C351 0.931 . S
H311 C352 0.930 . S
H312 C354 0.930 . S
H313 C355 0.932 . S
H314 C357 0.930 . S
H315 C358 0.929 1_545 S
H316 C360 0.931 . S
H317 C361 0.930 . S
H318 C363 0.922 1_556 S
H319 C364 0.931 . S
H320 C366 0.930 . S
H321 C367 0.929 . S
O322 H296 0.856 . S
O322 C368 1.300 . S
O323 C368 1.209 . S
O324 C369 1.199 . S
O325 H297 0.854 . S
O325 C369 1.297 . S
C326 C327 1.404 1_545 S
C326 C331 1.397 . S
C326 C332 1.492 . S
C327 C326 1.404 1_565 S
C327 C328 1.396 . S
C327 C338 1.492 . S
C328 C327 1.396 . S
C328 C329 1.397 . S
C328 C344 1.509 . S
C329 C328 1.397 . S
C329 C330 1.412 1_556 S
C329 C350 1.485 1_556 S
C330 C329 1.412 1_554 S
C330 C331 1.388 1_564 S
C330 C356 1.490 . S
C331 C326 1.397 . S
C331 C330 1.388 1_546 S
C331 C362 1.519 1_556 S
C332 C326 1.492 . S
C332 C333 1.363 . S
C332 C337 1.390 . S
C333 H298 0.930 . S
C333 C332 1.363 . S
C333 C334 1.372 . S
C334 H299 0.930 . S
C334 C333 1.372 . S
C334 C335 1.383 . S
C335 C334 1.383 . S
C335 C336 1.395 . S
C336 H300 0.930 . S
C336 C335 1.395 . S
C336 C337 1.362 . S
C337 H301 0.930 . S
C337 C332 1.390 . S
C337 C336 1.362 . S
C338 C327 1.492 . S
C338 C339 1.377 . S
C338 C343 1.397 . S
C339 H302 0.931 . S
C339 C338 1.377 . S
C339 C340 1.376 . S
C340 H303 0.930 . S
C340 C339 1.376 . S
C340 C341 1.376 . S
C341 C340 1.376 . S
C341 C342 1.378 . S
C341 C368 1.486 . S
C342 H304 0.930 . S
C342 C341 1.378 . S
C342 C343 1.376 . S
C343 H305 0.929 . S
C343 C338 1.397 . S
C343 C342 1.376 . S
C344 C328 1.509 . S
C344 C345 1.391 . S
C344 C349 1.386 . S
C345 H306 0.930 . S
C345 C344 1.391 . S
C345 C346 1.375 . S
C346 H307 0.931 . S
C346 C345 1.375 . S
C346 C347 1.375 . S
C347 C346 1.375 . S
C347 C348 1.361 . S
C348 H308 0.930 . S
C348 C347 1.361 . S
C348 C349 1.399 . S
C349 H309 0.929 . S
C349 C344 1.386 . S
C349 C348 1.399 . S
C350 C329 1.485 1_554 S
C350 C351 1.394 . S
C350 C355 1.360 . S
C351 H310 0.931 . S
C351 C350 1.394 . S
C351 C352 1.372 . S
C352 H311 0.930 . S
C352 C351 1.372 . S
C352 C353 1.397 . S
C353 C352 1.397 . S
C353 C354 1.390 . S
C353 C369 1.476 . S
C354 H312 0.930 . S
C354 C353 1.390 . S
C354 C355 1.366 . S
C355 H313 0.932 . S
C355 C350 1.360 . S
C355 C354 1.366 . S
C356 C330 1.490 . S
C356 C357 1.380 . S
C356 C361 1.386 . S
C357 H314 0.930 . S
C357 C356 1.380 . S
C357 C358 1.381 . S
C358 H315 0.929 1_565 S
C358 C357 1.381 . S
C358 C359 1.371 . S
C359 C358 1.371 . S
C359 C360 1.380 . S
C360 H316 0.931 . S
C360 C359 1.380 . S
C360 C361 1.387 . S
C361 H317 0.930 . S
C361 C356 1.386 . S
C361 C360 1.387 . S
C362 C331 1.519 1_554 S
C362 C363 1.378 . S
C362 C367 1.361 . S
C363 H318 0.922 1_554 S
C363 C362 1.378 . S
C363 C364 1.393 . S
C364 H319 0.931 . S
C364 C363 1.393 . S
C364 C365 1.363 . S
C365 C364 1.363 . S
C365 C366 1.385 . S
C366 H320 0.930 . S
C366 C365 1.385 . S
C366 C367 1.396 . S
C367 H321 0.929 . S
C367 C362 1.361 . S
C367 C366 1.396 . S
C368 O322 1.300 . S
C368 O323 1.209 . S
C368 C341 1.486 . S
C369 O324 1.199 . S
C369 O325 1.297 . S
C369 C353 1.476 . S
H370 O396 0.856 1_556 S
H371 O399 0.854 . S
H372 C407 0.930 . S
H373 C408 0.930 . S
H374 C410 0.930 . S
H375 C411 0.930 . S
H376 C413 0.931 . S
H377 C414 0.930 . S
H378 C416 0.930 . S
H379 C417 0.929 . S
H380 C419 0.930 . S
H381 C420 0.931 . S
H382 C422 0.930 . S
H383 C423 0.929 . S
H384 C425 0.931 . S
H385 C426 0.930 . S
H386 C428 0.930 . S
H387 C429 0.932 . S
H388 C431 0.930 . S
H389 C432 0.929 . S
H390 C434 0.931 . S
H391 C435 0.930 . S
H392 C437 0.929 . S
H393 C438 0.931 . S
H394 C440 0.930 . S
H395 C441 0.929 . S
O396 H370 0.856 1_554 S
O396 C442 1.300 . S
O397 C442 1.209 . S
O398 C443 1.199 . S
O399 H371 0.854 . S
O399 C443 1.297 . S
C400 C401 1.404 . S
C400 C405 1.397 . S
C400 C406 1.492 . S
C401 C400 1.404 . S
C401 C402 1.396 . S
C401 C412 1.492 . S
C402 C401 1.396 . S
C402 C403 1.397 . S
C402 C418 1.509 . S
C403 C402 1.397 . S
C403 C404 1.412 . S
C403 C424 1.485 . S
C404 C403 1.412 . S
C404 C405 1.388 . S
C404 C430 1.490 . S
C405 C400 1.397 . S
C405 C404 1.388 . S
C405 C436 1.519 . S
C406 C400 1.492 . S
C406 C407 1.363 . S
C406 C411 1.390 . S
C407 H372 0.930 . S
C407 C406 1.363 . S
C407 C408 1.372 . S
C408 H373 0.930 . S
C408 C407 1.372 . S
C408 C409 1.383 . S
C409 C408 1.383 . S
C409 C410 1.395 . S
C410 H374 0.930 . S
C410 C409 1.395 . S
C410 C411 1.362 . S
C411 H375 0.930 . S
C411 C406 1.390 . S
C411 C410 1.362 . S
C412 C401 1.492 . S
C412 C413 1.377 . S
C412 C417 1.397 . S
C413 H376 0.931 . S
C413 C412 1.377 . S
C413 C414 1.376 . S
C414 H377 0.930 . S
C414 C413 1.376 . S
C414 C415 1.376 . S
C415 C414 1.376 . S
C415 C416 1.378 . S
C415 C442 1.486 . S
C416 H378 0.930 . S
C416 C415 1.378 . S
C416 C417 1.376 . S
C417 H379 0.929 . S
C417 C412 1.397 . S
C417 C416 1.376 . S
C418 C402 1.509 . S
C418 C419 1.391 . S
C418 C423 1.386 . S
C419 H380 0.930 . S
C419 C418 1.391 . S
C419 C420 1.375 . S
C420 H381 0.931 . S
C420 C419 1.375 . S
C420 C421 1.375 . S
C421 C420 1.375 . S
C421 C422 1.361 . S
C422 H382 0.930 . S
C422 C421 1.361 . S
C422 C423 1.399 . S
C423 H383 0.929 . S
C423 C418 1.386 . S
C423 C422 1.399 . S
C424 C403 1.485 . S
C424 C425 1.394 . S
C424 C429 1.360 . S
C425 H384 0.931 . S
C425 C424 1.394 . S
C425 C426 1.372 . S
C426 H385 0.930 . S
C426 C425 1.372 . S
C426 C427 1.397 . S
C427 C426 1.397 . S
C427 C428 1.390 . S
C427 C443 1.476 . S
C428 H386 0.930 . S
C428 C427 1.390 . S
C428 C429 1.366 . S
C429 H387 0.932 . S
C429 C424 1.360 . S
C429 C428 1.366 . S
C430 C404 1.490 . S
C430 C431 1.380 . S
C430 C435 1.386 . S
C431 H388 0.930 . S
C431 C430 1.380 . S
C431 C432 1.381 . S
C432 H389 0.929 . S
C432 C431 1.381 . S
C432 C433 1.371 . S
C433 C432 1.371 . S
C433 C434 1.380 . S
C434 H390 0.931 . S
C434 C433 1.380 . S
C434 C435 1.387 . S
C435 H391 0.930 . S
C435 C430 1.386 . S
C435 C434 1.387 . S
C436 C405 1.519 . S
C436 C437 1.377 . S
C436 C441 1.361 . S
C437 H392 0.929 . S
C437 C436 1.377 . S
C437 C438 1.386 . S
C438 H393 0.931 . S
C438 C437 1.386 . S
C438 C439 1.363 . S
C439 C438 1.363 . S
C439 C440 1.385 . S
C440 H394 0.930 . S
C440 C439 1.385 . S
C440 C441 1.396 . S
C441 H395 0.929 . S
C441 C436 1.361 . S
C441 C440 1.396 . S
C442 O396 1.300 . S
C442 O397 1.209 . S
C442 C415 1.486 . S
C443 O398 1.199 . S
C443 O399 1.297 . S
C443 C427 1.476 . S
Mn444 O449 2.095 . S
Mn444 O459 2.162 . S
Mn444 O460 2.297 . S
Mn444 O468 2.385 . S
Mn444 O469 2.209 . S
Mn444 O470 2.094 . S
Mn445 O450 2.121 . S
Mn445 N452 2.257 . S
Mn445 N461 2.282 . S
Mn445 O469 2.215 . S
Mn445 O471 2.117 . S
C446 O468 1.234 . S
C446 O469 1.283 . S
C447 O459 1.281 . S
C447 O460 1.236 . S
C448 O470 1.240 . S
C448 O471 1.264 . S
O449 Mn444 2.095 . S
O449 C458 1.250 . S
O450 Mn445 2.121 . S
O450 C458 1.258 . S
C451 N452 1.326 . S
C451 C455 1.460 . S
C451 H457 0.929 . S
N452 Mn445 2.257 . S
N452 C451 1.326 . S
N452 C456 1.362 . S
C453 C454 1.258 . S
C453 C456 1.431 . S
C453 C473 1.449 . S
C454 C453 1.258 . S
C454 C455 1.477 . S
C454 H474 0.931 . S
C455 C451 1.460 . S
C455 C454 1.477 . S
C455 H475 0.930 . S
C456 N452 1.362 . S
C456 C453 1.431 . S
C456 C466 1.476 . S
H457 C451 0.929 . S
C458 O449 1.250 . S
C458 O450 1.258 . S
O459 Mn444 2.162 . S
O459 C447 1.281 . S
O460 Mn444 2.297 . S
O460 C447 1.236 . S
N461 Mn445 2.282 . S
N461 C462 1.328 . S
N461 C466 1.318 . S
C462 N461 1.328 . S
C462 C463 1.457 . S
C462 H467 0.929 . S
C463 C462 1.457 . S
C463 C464 1.291 . S
C463 H476 0.931 . S
C464 C463 1.291 . S
C464 C465 1.373 . S
C464 H477 0.929 . S
C465 C464 1.373 . S
C465 C466 1.396 . S
C465 C472 1.403 . S
C466 C456 1.476 . S
C466 N461 1.318 . S
C466 C465 1.396 . S
H467 C462 0.929 . S
O468 Mn444 2.385 . S
O468 C446 1.234 . S
O469 Mn444 2.209 . S
O469 Mn445 2.215 . S
O469 C446 1.283 . S
O470 Mn444 2.094 . S
O470 C448 1.240 . S
O471 Mn445 2.117 . S
O471 C448 1.264 . S
C472 C465 1.403 . S
C472 C473 1.399 . S
C472 H478 0.929 . S
C473 C453 1.449 . S
C473 C472 1.399 . S
C473 H479 0.930 . S
H474 C454 0.931 . S
H475 C455 0.930 . S
H476 C463 0.931 . S
H477 C464 0.929 . S
H478 C472 0.929 . S
H479 C473 0.930 . S
Mn480 O485 2.095 . S
Mn480 O495 2.162 . S
Mn480 O496 2.297 . S
Mn480 O504 2.385 . S
Mn480 O505 2.209 . S
Mn480 O506 2.094 . S
Mn481 O486 2.121 . S
Mn481 N488 2.257 . S
Mn481 N497 2.282 . S
Mn481 O505 2.215 . S
Mn481 O507 2.117 . S
C482 O504 1.234 . S
C482 O505 1.283 . S
C483 O495 1.281 . S
C483 O496 1.236 . S
C484 O506 1.240 . S
C484 O507 1.264 . S
O485 Mn480 2.095 . S
O485 C494 1.250 . S
O486 Mn481 2.121 . S
O486 C494 1.258 . S
C487 N488 1.326 . S
C487 C491 1.460 . S
C487 H493 0.929 . S
N488 Mn481 2.257 . S
N488 C487 1.326 . S
N488 C492 1.362 . S
C489 C490 1.258 . S
C489 C492 1.431 . S
C489 C509 1.449 . S
C490 C489 1.258 . S
C490 C491 1.477 . S
C490 H510 0.931 . S
C491 C487 1.460 . S
C491 C490 1.477 . S
C491 H511 0.930 . S
C492 N488 1.362 . S
C492 C489 1.431 . S
C492 C502 1.476 . S
H493 C487 0.929 . S
C494 O485 1.250 . S
C494 O486 1.258 . S
O495 Mn480 2.162 . S
O495 C483 1.281 . S
O496 Mn480 2.297 . S
O496 C483 1.236 . S
N497 Mn481 2.282 . S
N497 C498 1.328 . S
N497 C502 1.318 . S
C498 N497 1.328 . S
C498 C499 1.457 . S
C498 H503 0.929 . S
C499 C498 1.457 . S
C499 C500 1.291 . S
C499 H512 0.931 . S
C500 C499 1.291 . S
C500 C501 1.373 . S
C500 H513 0.929 . S
C501 C500 1.373 . S
C501 C502 1.396 . S
C501 C508 1.403 . S
C502 C492 1.476 . S
C502 N497 1.318 . S
C502 C501 1.396 . S
H503 C498 0.929 . S
O504 Mn480 2.385 . S
O504 C482 1.234 . S
O505 Mn480 2.209 . S
O505 Mn481 2.215 . S
O505 C482 1.283 . S
O506 Mn480 2.094 . S
O506 C484 1.240 . S
O507 Mn481 2.117 . S
O507 C484 1.264 . S
C508 C501 1.403 . S
C508 C509 1.399 . S
C508 H514 0.929 . S
C509 C489 1.449 . S
C509 C508 1.399 . S
C509 H515 0.930 . S
H510 C490 0.931 . S
H511 C491 0.930 . S
H512 C499 0.931 . S
H513 C500 0.929 . S
H514 C508 0.929 . S
H515 C509 0.930 . S
Mn516 O521 2.095 . S
Mn516 O531 2.162 . S
Mn516 O532 2.297 . S
Mn516 O540 2.385 . S
Mn516 O541 2.209 . S
Mn516 O542 2.094 . S
Mn517 O522 2.121 . S
Mn517 N524 2.257 . S
Mn517 N533 2.282 . S
Mn517 O541 2.215 . S
Mn517 O543 2.117 . S
C518 O540 1.234 . S
C518 O541 1.283 . S
C519 O531 1.281 . S
C519 O532 1.236 . S
C520 O542 1.240 . S
C520 O543 1.264 . S
O521 Mn516 2.095 . S
O521 C530 1.250 . S
O522 Mn517 2.121 . S
O522 C530 1.258 . S
C523 N524 1.326 . S
C523 C527 1.460 . S
C523 H529 0.929 . S
N524 Mn517 2.257 . S
N524 C523 1.326 . S
N524 C528 1.362 . S
C525 C526 1.258 . S
C525 C528 1.431 . S
C525 C545 1.449 . S
C526 C525 1.258 . S
C526 C527 1.477 . S
C526 H546 0.931 . S
C527 C523 1.460 . S
C527 C526 1.477 . S
C527 H547 0.930 . S
C528 N524 1.362 . S
C528 C525 1.431 . S
C528 C538 1.476 . S
H529 C523 0.929 . S
C530 O521 1.250 . S
C530 O522 1.258 . S
O531 Mn516 2.162 . S
O531 C519 1.281 . S
O532 Mn516 2.297 . S
O532 C519 1.236 . S
N533 Mn517 2.282 . S
N533 C534 1.328 . S
N533 C538 1.318 . S
C534 N533 1.328 . S
C534 C535 1.457 . S
C534 H539 0.929 . S
C535 C534 1.457 . S
C535 C536 1.291 . S
C535 H548 0.931 . S
C536 C535 1.291 . S
C536 C537 1.373 . S
C536 H549 0.929 . S
C537 C536 1.373 . S
C537 C538 1.396 . S
C537 C544 1.403 . S
C538 C528 1.476 . S
C538 N533 1.318 . S
C538 C537 1.396 . S
H539 C534 0.929 . S
O540 Mn516 2.385 . S
O540 C518 1.234 . S
O541 Mn516 2.209 . S
O541 Mn517 2.215 . S
O541 C518 1.283 . S
O542 Mn516 2.094 . S
O542 C520 1.240 . S
O543 Mn517 2.117 . S
O543 C520 1.264 . S
C544 C537 1.403 . S
C544 C545 1.399 . S
C544 H550 0.929 . S
C545 C525 1.449 . S
C545 C544 1.399 . S
C545 H551 0.930 . S
H546 C526 0.931 . S
H547 C527 0.930 . S
H548 C535 0.931 . S
H549 C536 0.929 . S
H550 C544 0.929 . S
H551 C545 0.930 . S
Mn552 O557 2.095 . S
Mn552 O567 2.162 . S
Mn552 O568 2.297 . S
Mn552 O576 2.385 . S
Mn552 O577 2.209 . S
Mn552 O578 2.094 . S
Mn553 O558 2.121 . S
Mn553 N560 2.257 . S
Mn553 N569 2.282 . S
Mn553 O577 2.215 . S
Mn553 O579 2.117 . S
C554 O576 1.234 . S
C554 O577 1.283 . S
C555 O567 1.281 . S
C555 O568 1.236 . S
C556 O578 1.240 . S
C556 O579 1.264 . S
O557 Mn552 2.095 . S
O557 C566 1.250 . S
O558 Mn553 2.121 . S
O558 C566 1.258 . S
C559 N560 1.326 . S
C559 C563 1.460 . S
C559 H565 0.929 . S
N560 Mn553 2.257 . S
N560 C559 1.326 . S
N560 C564 1.362 . S
C561 C562 1.258 . S
C561 C564 1.431 . S
C561 C581 1.449 . S
C562 C561 1.258 . S
C562 C563 1.477 . S
C562 H582 0.931 . S
C563 C559 1.460 . S
C563 C562 1.477 . S
C563 H583 0.930 . S
C564 N560 1.362 . S
C564 C561 1.431 . S
C564 C574 1.476 . S
H565 C559 0.929 . S
C566 O557 1.250 . S
C566 O558 1.258 . S
O567 Mn552 2.162 . S
O567 C555 1.281 . S
O568 Mn552 2.297 . S
O568 C555 1.236 . S
N569 Mn553 2.282 . S
N569 C570 1.328 . S
N569 C574 1.318 . S
C570 N569 1.328 . S
C570 C571 1.457 . S
C570 H575 0.929 . S
C571 C570 1.457 . S
C571 C572 1.291 . S
C571 H584 0.931 . S
C572 C571 1.291 . S
C572 C573 1.373 . S
C572 H585 0.929 . S
C573 C572 1.373 . S
C573 C574 1.396 . S
C573 C580 1.403 . S
C574 C564 1.476 . S
C574 N569 1.318 . S
C574 C573 1.396 . S
H575 C570 0.929 . S
O576 Mn552 2.385 . S
O576 C554 1.234 . S
O577 Mn552 2.209 . S
O577 Mn553 2.215 . S
O577 C554 1.283 . S
O578 Mn552 2.094 . S
O578 C556 1.240 . S
O579 Mn553 2.117 . S
O579 C556 1.264 . S
C580 C573 1.403 . S
C580 C581 1.399 . S
C580 H586 0.929 . S
C581 C561 1.449 . S
C581 C580 1.399 . S
C581 H587 0.930 . S
H582 C562 0.931 . S
H583 C563 0.930 . S
H584 C571 0.931 . S
H585 C572 0.929 . S
H586 C580 0.929 . S
H587 C581 0.930 . S
Mn588 O593 2.095 . S
Mn588 O603 2.162 . S
Mn588 O604 2.297 . S
Mn588 O612 2.385 . S
Mn588 O613 2.209 . S
Mn588 O614 2.094 . S
Mn589 O594 2.121 . S
Mn589 N596 2.257 . S
Mn589 N605 2.282 . S
Mn589 O613 2.215 . S
Mn589 O615 2.117 . S
C590 O612 1.234 . S
C590 O613 1.283 . S
C591 O603 1.281 . S
C591 O604 1.236 . S
C592 O614 1.240 . S
C592 O615 1.264 . S
O593 Mn588 2.095 . S
O593 C602 1.250 . S
O594 Mn589 2.121 . S
O594 C602 1.258 . S
C595 N596 1.326 . S
C595 C599 1.460 . S
C595 H601 0.929 . S
N596 Mn589 2.257 . S
N596 C595 1.326 . S
N596 C600 1.362 . S
C597 C598 1.258 . S
C597 C600 1.431 . S
C597 C617 1.449 . S
C598 C597 1.258 . S
C598 C599 1.477 . S
C598 H618 0.931 . S
C599 C595 1.460 . S
C599 C598 1.477 . S
C599 H619 0.930 . S
C600 N596 1.362 . S
C600 C597 1.431 . S
C600 C610 1.476 . S
H601 C595 0.929 . S
C602 O593 1.250 . S
C602 O594 1.258 . S
O603 Mn588 2.162 . S
O603 C591 1.281 . S
O604 Mn588 2.297 . S
O604 C591 1.236 . S
N605 Mn589 2.282 . S
N605 C606 1.328 . S
N605 C610 1.318 . S
C606 N605 1.328 . S
C606 C607 1.457 . S
C606 H611 0.929 . S
C607 C606 1.457 . S
C607 C608 1.291 . S
C607 H620 0.931 . S
C608 C607 1.291 . S
C608 C609 1.373 . S
C608 H621 0.929 . S
C609 C608 1.373 . S
C609 C610 1.396 . S
C609 C616 1.403 . S
C610 C600 1.476 . S
C610 N605 1.318 . S
C610 C609 1.396 . S
H611 C606 0.929 . S
O612 Mn588 2.385 . S
O612 C590 1.234 . S
O613 Mn588 2.209 . S
O613 Mn589 2.215 . S
O613 C590 1.283 . S
O614 Mn588 2.094 . S
O614 C592 1.240 . S
O615 Mn589 2.117 . S
O615 C592 1.264 . S
C616 C609 1.403 . S
C616 C617 1.399 . S
C616 H622 0.929 . S
C617 C597 1.449 . S
C617 C616 1.399 . S
C617 H623 0.930 . S
H618 C598 0.931 . S
H619 C599 0.930 . S
H620 C607 0.931 . S
H621 C608 0.929 . S
H622 C616 0.929 . S
H623 C617 0.930 . S
Mn624 O629 2.095 . S
Mn624 O639 2.162 . S
Mn624 O640 2.297 . S
Mn624 O648 2.385 . S
Mn624 O649 2.209 . S
Mn624 O650 2.094 . S
Mn625 O630 2.121 . S
Mn625 N632 2.257 . S
Mn625 N641 2.282 . S
Mn625 O649 2.215 . S
Mn625 O651 2.117 . S
C626 O648 1.234 . S
C626 O649 1.283 . S
C627 O639 1.281 . S
C627 O640 1.236 . S
C628 O650 1.240 . S
C628 O651 1.264 . S
O629 Mn624 2.095 . S
O629 C638 1.250 . S
O630 Mn625 2.121 . S
O630 C638 1.258 . S
C631 N632 1.326 . S
C631 C635 1.460 . S
C631 H637 0.929 . S
N632 Mn625 2.257 . S
N632 C631 1.326 . S
N632 C636 1.362 . S
C633 C634 1.258 . S
C633 C636 1.431 . S
C633 C653 1.449 . S
C634 C633 1.258 . S
C634 C635 1.477 . S
C634 H654 0.931 . S
C635 C631 1.460 . S
C635 C634 1.477 . S
C635 H655 0.930 . S
C636 N632 1.362 . S
C636 C633 1.431 . S
C636 C646 1.476 . S
H637 C631 0.929 . S
C638 O629 1.250 . S
C638 O630 1.258 . S
O639 Mn624 2.162 . S
O639 C627 1.281 . S
O640 Mn624 2.297 . S
O640 C627 1.236 . S
N641 Mn625 2.282 . S
N641 C642 1.328 . S
N641 C646 1.318 . S
C642 N641 1.328 . S
C642 C643 1.457 . S
C642 H647 0.929 . S
C643 C642 1.457 . S
C643 C644 1.291 . S
C643 H656 0.931 . S
C644 C643 1.291 . S
C644 C645 1.373 . S
C644 H657 0.929 1_565 S
C645 C644 1.373 . S
C645 C646 1.396 . S
C645 C652 1.403 . S
C646 C636 1.476 . S
C646 N641 1.318 . S
C646 C645 1.396 . S
H647 C642 0.929 . S
O648 Mn624 2.385 . S
O648 C626 1.234 . S
O649 Mn624 2.209 . S
O649 Mn625 2.215 . S
O649 C626 1.283 . S
O650 Mn624 2.094 . S
O650 C628 1.240 . S
O651 Mn625 2.117 . S
O651 C628 1.264 . S
C652 C645 1.403 . S
C652 C653 1.399 . S
C652 H658 0.929 . S
C653 C633 1.449 . S
C653 C652 1.399 . S
C653 H659 0.930 . S
H654 C634 0.931 . S
H655 C635 0.930 . S
H656 C643 0.931 . S
H657 C644 0.929 1_545 S
H658 C652 0.929 . S
H659 C653 0.930 . S
H660 C666 0.930 . S
H661 C670 0.930 . S
H662 C675 0.929 . S
H663 C673 0.929 . S
H664 C668 0.929 . S
H665 C674 0.929 . S
C666 H660 0.930 . S
C666 C667 1.367 . S
C666 C674 1.378 . S
C667 C666 1.367 . S
C667 C675 1.433 . S
C668 H664 0.929 . S
C668 C670 1.378 . S
C668 C672 1.350 . S
C669 C672 1.463 . S
C669 C674 1.350 . S
C669 N677 1.427 . S
C670 H661 0.930 . S
C670 C668 1.378 . S
C670 C671 1.367 . S
C671 C670 1.367 . S
C671 C673 1.433 . S
C672 C668 1.350 . S
C672 C669 1.463 . S
C672 N676 1.427 . S
C673 H663 0.929 . S
C673 C671 1.433 . S
C673 N676 1.384 . S
C674 H665 0.929 . S
C674 C666 1.378 . S
C674 C669 1.350 . S
C675 H662 0.929 . S
C675 C667 1.433 . S
C675 N677 1.384 . S
N676 C672 1.427 . S
N676 C673 1.384 . S
N677 C669 1.427 . S
N677 C675 1.384 . S
H678 C684 0.930 . S
H679 C688 0.930 . S
H680 C693 0.929 . S
H681 C691 0.929 . S
H682 C686 0.929 . S
H683 C692 0.929 . S
C684 H678 0.930 . S
C684 C685 1.367 . S
C684 C692 1.378 . S
C685 C684 1.367 . S
C685 C693 1.433 . S
C686 H682 0.929 . S
C686 C688 1.378 . S
C686 C690 1.350 . S
C687 C690 1.463 . S
C687 C692 1.350 . S
C687 N695 1.427 . S
C688 H679 0.930 . S
C688 C686 1.378 . S
C688 C689 1.367 . S
C689 C688 1.367 . S
C689 C691 1.433 . S
C690 C686 1.350 . S
C690 C687 1.463 . S
C690 N694 1.427 . S
C691 H681 0.929 . S
C691 C689 1.433 . S
C691 N694 1.384 . S
C692 H683 0.929 . S
C692 C684 1.378 . S
C692 C687 1.350 . S
C693 H680 0.929 . S
C693 C685 1.433 . S
C693 N695 1.384 . S
N694 C690 1.427 . S
N694 C691 1.384 . S
N695 C687 1.427 . S
N695 C693 1.384 . S
H696 C702 0.930 . S
H697 C706 0.930 . S
H698 C711 0.929 . S
H699 C709 0.929 . S
H700 C704 0.929 . S
H701 C710 0.929 . S
C702 H696 0.930 . S
C702 C703 1.367 . S
C702 C710 1.378 . S
C703 C702 1.367 . S
C703 C711 1.433 . S
C704 H700 0.929 . S
C704 C706 1.378 . S
C704 C708 1.350 . S
C705 C708 1.463 . S
C705 C710 1.350 . S
C705 N713 1.427 . S
C706 H697 0.930 . S
C706 C704 1.378 . S
C706 C707 1.367 . S
C707 C706 1.367 . S
C707 C709 1.433 . S
C708 C704 1.350 . S
C708 C705 1.463 . S
C708 N712 1.427 . S
C709 H699 0.929 . S
C709 C707 1.433 . S
C709 N712 1.384 . S
C710 H701 0.929 . S
C710 C702 1.378 . S
C710 C705 1.350 . S
C711 H698 0.929 . S
C711 C703 1.433 . S
C711 N713 1.384 . S
N712 C708 1.427 . S
N712 C709 1.384 . S
N713 C705 1.427 . S
N713 C711 1.384 . S
H714 C720 0.930 . S
H715 C724 0.930 . S
H716 C729 0.929 . S
H717 C727 0.929 . S
H718 C722 0.929 . S
H719 C728 0.929 . S
C720 H714 0.930 . S
C720 C721 1.367 . S
C720 C728 1.378 . S
C721 C720 1.367 . S
C721 C729 1.433 . S
C722 H718 0.929 . S
C722 C724 1.378 . S
C722 C726 1.350 . S
C723 C726 1.463 . S
C723 C728 1.350 . S
C723 N731 1.427 . S
C724 H715 0.930 . S
C724 C722 1.378 . S
C724 C725 1.367 . S
C725 C724 1.367 . S
C725 C727 1.433 . S
C726 C722 1.350 . S
C726 C723 1.463 . S
C726 N730 1.427 . S
C727 H717 0.929 . S
C727 C725 1.433 . S
C727 N730 1.384 . S
C728 H719 0.929 . S
C728 C720 1.378 . S
C728 C723 1.350 . S
C729 H716 0.929 . S
C729 C721 1.433 . S
C729 N731 1.384 . S
N730 C726 1.427 . S
N730 C727 1.384 . S
N731 C723 1.427 . S
N731 C729 1.384 . S
H732 C738 0.930 . S
H733 C742 0.930 . S
H734 C747 0.929 . S
H735 C745 0.929 . S
H736 C740 0.929 . S
H737 C746 0.929 . S
C738 H732 0.930 . S
C738 C739 1.367 . S
C738 C746 1.378 . S
C739 C738 1.367 . S
C739 C747 1.433 . S
C740 H736 0.929 . S
C740 C742 1.378 . S
C740 C744 1.350 . S
C741 C744 1.463 . S
C741 C746 1.350 . S
C741 N749 1.427 . S
C742 H733 0.930 . S
C742 C740 1.378 . S
C742 C743 1.367 . S
C743 C742 1.367 . S
C743 C745 1.433 . S
C744 C740 1.350 . S
C744 C741 1.463 . S
C744 N748 1.427 . S
C745 H735 0.929 . S
C745 C743 1.433 . S
C745 N748 1.384 . S
C746 H737 0.929 . S
C746 C738 1.378 . S
C746 C741 1.350 . S
C747 H734 0.929 . S
C747 C739 1.433 . S
C747 N749 1.384 . S
N748 C744 1.427 . S
N748 C745 1.384 . S
N749 C741 1.427 . S
N749 C747 1.384 . S
H750 C756 0.930 . S
H751 C760 0.930 . S
H752 C765 0.929 . S
H753 C763 0.929 . S
H754 C758 0.929 . S
H755 C764 0.929 . S
C756 H750 0.930 . S
C756 C757 1.367 . S
C756 C764 1.378 . S
C757 C756 1.367 . S
C757 C765 1.433 . S
C758 H754 0.929 . S
C758 C760 1.378 . S
C758 C762 1.350 . S
C759 C762 1.463 . S
C759 C764 1.350 . S
C759 N767 1.427 . S
C760 H751 0.930 . S
C760 C758 1.378 . S
C760 C761 1.367 . S
C761 C760 1.367 . S
C761 C763 1.433 . S
C762 C758 1.350 . S
C762 C759 1.463 . S
C762 N766 1.427 . S
C763 H753 0.929 . S
C763 C761 1.433 . S
C763 N766 1.384 . S
C764 H755 0.929 . S
C764 C756 1.378 . S
C764 C759 1.350 . S
C765 H752 0.929 . S
C765 C757 1.433 . S
C765 N767 1.384 . S
N766 C762 1.427 . S
N766 C763 1.384 . S
N767 C759 1.427 . S
N767 C765 1.384 . S
H768 C774 0.930 . S
H769 C778 0.930 . S
H770 C783 0.929 . S
H771 C781 0.929 . S
H772 C776 0.929 . S
H773 C782 0.929 . S
C774 H768 0.930 . S
C774 C775 1.367 . S
C774 C782 1.378 . S
C775 C774 1.367 . S
C775 C783 1.433 . S
C776 H772 0.929 . S
C776 C778 1.378 . S
C776 C780 1.350 . S
C777 C780 1.463 . S
C777 C782 1.350 . S
C777 N785 1.427 . S
C778 H769 0.930 . S
C778 C776 1.378 . S
C778 C779 1.367 . S
C779 C778 1.367 . S
C779 C781 1.433 . S
C780 C776 1.350 . S
C780 C777 1.463 . S
C780 N784 1.427 . S
C781 H771 0.929 . S
C781 C779 1.433 . S
C781 N784 1.384 . S
C782 H773 0.929 . S
C782 C774 1.378 . S
C782 C777 1.350 . S
C783 H770 0.929 . S
C783 C775 1.433 . S
C783 N785 1.384 . S
N784 C780 1.427 . S
N784 C781 1.384 . S
N785 C777 1.427 . S
N785 C783 1.384 . S
H786 C792 0.930 . S
H787 C796 0.930 . S
H788 C801 0.929 . S
H789 C799 0.929 . S
H790 C794 0.929 . S
H791 C800 0.929 . S
C792 H786 0.930 . S
C792 C793 1.367 . S
C792 C800 1.378 . S
C793 C792 1.367 . S
C793 C801 1.433 . S
C794 H790 0.929 . S
C794 C796 1.378 . S
C794 C798 1.350 . S
C795 C798 1.463 . S
C795 C800 1.350 . S
C795 N803 1.427 . S
C796 H787 0.930 . S
C796 C794 1.378 . S
C796 C797 1.367 . S
C797 C796 1.367 . S
C797 C799 1.433 . S
C798 C794 1.350 . S
C798 C795 1.463 . S
C798 N802 1.427 . S
C799 H789 0.929 . S
C799 C797 1.433 . S
C799 N802 1.384 . S
C800 H791 0.929 . S
C800 C792 1.378 . S
C800 C795 1.350 . S
C801 H788 0.929 . S
C801 C793 1.433 . S
C801 N803 1.384 . S
N802 C798 1.427 . S
N802 C799 1.384 . S
N803 C795 1.427 . S
N803 C801 1.384 . S
H804 C810 0.930 . S
H805 C814 0.930 . S
H806 C819 0.929 . S
H807 C817 0.929 . S
H808 C812 0.929 . S
H809 C818 0.929 . S
C810 H804 0.930 . S
C810 C811 1.367 . S
C810 C818 1.378 . S
C811 C810 1.367 . S
C811 C819 1.433 . S
C812 H808 0.929 . S
C812 C814 1.378 . S
C812 C816 1.350 . S
C813 C816 1.463 . S
C813 C818 1.350 . S
C813 N821 1.427 . S
C814 H805 0.930 . S
C814 C812 1.378 . S
C814 C815 1.367 . S
C815 C814 1.367 . S
C815 C817 1.433 . S
C816 C812 1.350 . S
C816 C813 1.463 . S
C816 N820 1.427 . S
C817 H807 0.929 . S
C817 C815 1.433 . S
C817 N820 1.384 . S
C818 H809 0.929 . S
C818 C810 1.378 . S
C818 C813 1.350 . S
C819 H806 0.929 . S
C819 C811 1.433 . S
C819 N821 1.384 . S
N820 C816 1.427 . S
N820 C817 1.384 . S
N821 C813 1.427 . S
N821 C819 1.384 . S
H822 C828 0.930 . S
H823 C832 0.930 . S
H824 C837 0.929 1_556 S
H825 C835 0.929 . S
H826 C830 0.929 . S
H827 C836 0.929 . S
C828 H822 0.930 . S
C828 C829 1.367 . S
C828 C836 1.378 . S
C829 C828 1.367 . S
C829 C837 1.433 . S
C830 H826 0.929 . S
C830 C832 1.378 . S
C830 C834 1.350 . S
C831 C834 1.463 . S
C831 C836 1.350 . S
C831 N839 1.427 . S
C832 H823 0.930 . S
C832 C830 1.378 . S
C832 C833 1.367 . S
C833 C832 1.367 . S
C833 C835 1.433 . S
C834 C830 1.350 . S
C834 C831 1.463 . S
C834 N838 1.427 . S
C835 H825 0.929 . S
C835 C833 1.433 . S
C835 N838 1.384 . S
C836 H827 0.929 . S
C836 C828 1.378 . S
C836 C831 1.350 . S
C837 H824 0.929 1_554 S
C837 C829 1.433 . S
C837 N839 1.384 . S
N838 C834 1.427 . S
N838 C835 1.384 . S
N839 C831 1.427 . S
N839 C837 1.384 . S
H840 C846 0.930 . S
H841 C850 0.930 . S
H842 C855 0.929 . S
H843 C853 0.929 . S
H844 C848 0.929 . S
H845 C854 0.929 . S
C846 H840 0.930 . S
C846 C847 1.367 . S
C846 C854 1.378 . S
C847 C846 1.367 . S
C847 C855 1.433 . S
C848 H844 0.929 . S
C848 C850 1.378 . S
C848 C852 1.350 . S
C849 C852 1.463 . S
C849 C854 1.350 . S
C849 N857 1.427 . S
C850 H841 0.930 . S
C850 C848 1.378 . S
C850 C851 1.367 . S
C851 C850 1.367 . S
C851 C853 1.433 . S
C852 C848 1.350 . S
C852 C849 1.463 . S
C852 N856 1.427 . S
C853 H843 0.929 . S
C853 C851 1.433 . S
C853 N856 1.384 . S
C854 H845 0.929 . S
C854 C846 1.378 . S
C854 C849 1.350 . S
C855 H842 0.929 . S
C855 C847 1.433 . S
C855 N857 1.384 . S
N856 C852 1.427 . S
N856 C853 1.384 . S
N857 C849 1.427 . S
N857 C855 1.384 . S
H858 C864 0.930 . S
H859 C868 0.930 . S
H860 C873 0.929 . S
H861 C871 0.929 . S
H862 C866 0.929 . S
H863 C872 0.929 . S
C864 H858 0.930 . S
C864 C865 1.367 . S
C864 C872 1.378 . S
C865 C864 1.367 . S
C865 C873 1.433 . S
C866 H862 0.929 . S
C866 C868 1.378 . S
C866 C870 1.350 . S
C867 C870 1.463 . S
C867 C872 1.350 . S
C867 N875 1.427 . S
C868 H859 0.930 . S
C868 C866 1.378 . S
C868 C869 1.367 . S
C869 C868 1.367 . S
C869 C871 1.433 . S
C870 C866 1.350 . S
C870 C867 1.463 . S
C870 N874 1.427 . S
C871 H861 0.929 . S
C871 C869 1.433 . S
C871 N874 1.384 . S
C872 H863 0.929 . S
C872 C864 1.378 . S
C872 C867 1.350 . S
C873 H860 0.929 . S
C873 C865 1.433 . S
C873 N875 1.384 . S
N874 C870 1.427 . S
N874 C871 1.384 . S
N875 C867 1.427 . S
N875 C873 1.384 . S
H876 C882 0.930 . S
H877 C886 0.930 . S
H878 C891 0.929 . S
H879 C889 0.929 . S
H880 C884 0.929 . S
H881 C890 0.929 . S
C882 H876 0.930 . S
C882 C883 1.367 . S
C882 C890 1.378 . S
C883 C882 1.367 . S
C883 C891 1.433 . S
C884 H880 0.929 . S
C884 C886 1.378 . S
C884 C888 1.350 . S
C885 C888 1.463 . S
C885 C890 1.350 . S
C885 N893 1.427 . S
C886 H877 0.930 . S
C886 C884 1.378 . S
C886 C887 1.367 . S
C887 C886 1.367 . S
C887 C889 1.433 . S
C888 C884 1.350 . S
C888 C885 1.463 . S
C888 N892 1.427 . S
C889 H879 0.929 . S
C889 C887 1.433 . S
C889 N892 1.384 . S
C890 H881 0.929 . S
C890 C882 1.378 . S
C890 C885 1.350 . S
C891 H878 0.929 . S
C891 C883 1.433 . S
C891 N893 1.384 . S
N892 C888 1.427 . S
N892 C889 1.384 . S
N893 C885 1.427 . S
N893 C891 1.384 . S
H894 C900 0.930 . S
H895 C904 0.930 . S
H896 C909 0.929 . S
H897 C907 0.929 . S
H898 C902 0.929 . S
H899 C908 0.929 . S
C900 H894 0.930 . S
C900 C901 1.367 . S
C900 C908 1.378 . S
C901 C900 1.367 . S
C901 C909 1.433 . S
C902 H898 0.929 . S
C902 C904 1.378 . S
C902 C906 1.350 . S
C903 C906 1.463 . S
C903 C908 1.350 . S
C903 N911 1.427 . S
C904 H895 0.930 . S
C904 C902 1.378 . S
C904 C905 1.367 . S
C905 C904 1.367 . S
C905 C907 1.433 . S
C906 C902 1.350 . S
C906 C903 1.463 . S
C906 N910 1.427 . S
C907 H897 0.929 . S
C907 C905 1.433 . S
C907 N910 1.384 . S
C908 H899 0.929 . S
C908 C900 1.378 . S
C908 C903 1.350 . S
C909 H896 0.929 . S
C909 C901 1.433 . S
C909 N911 1.384 . S
N910 C906 1.427 . S
N910 C907 1.384 . S
N911 C903 1.427 . S
N911 C909 1.384 . S
H912 C918 0.930 . S
H913 C922 0.930 . S
H914 C927 0.929 . S
H915 C925 0.929 . S
H916 C920 0.929 . S
H917 C926 0.929 . S
C918 H912 0.930 . S
C918 C919 1.367 . S
C918 C926 1.378 . S
C919 C918 1.367 . S
C919 C927 1.433 . S
C920 H916 0.929 . S
C920 C922 1.378 . S
C920 C924 1.350 . S
C921 C924 1.463 . S
C921 C926 1.350 . S
C921 N929 1.427 . S
C922 H913 0.930 . S
C922 C920 1.378 . S
C922 C923 1.367 . S
C923 C922 1.367 . S
C923 C925 1.433 . S
C924 C920 1.350 . S
C924 C921 1.463 . S
C924 N928 1.427 . S
C925 H915 0.929 . S
C925 C923 1.433 . S
C925 N928 1.384 . S
C926 H917 0.929 . S
C926 C918 1.378 . S
C926 C921 1.350 . S
C927 H914 0.929 . S
C927 C919 1.433 . S
C927 N929 1.384 . S
N928 C924 1.427 . S
N928 C925 1.384 . S
N929 C921 1.427 . S
N929 C927 1.384 . S
H930 C936 0.930 . S
H931 C940 0.930 . S
H932 C945 0.929 . S
H933 C943 0.929 . S
H934 C938 0.929 . S
H935 C944 0.929 . S
C936 H930 0.930 . S
C936 C937 1.367 . S
C936 C944 1.378 . S
C937 C936 1.367 . S
C937 C945 1.433 . S
C938 H934 0.929 . S
C938 C940 1.378 1_556 S
C938 C942 1.350 . S
C939 C942 1.463 . S
C939 C944 1.350 . S
C939 N947 1.427 . S
C940 H931 0.930 . S
C940 C938 1.378 1_554 S
C940 C941 1.367 . S
C941 C940 1.367 . S
C941 C943 1.433 1_554 S
C942 C938 1.350 . S
C942 C939 1.463 . S
C942 N946 1.427 . S
C943 H933 0.929 . S
C943 C941 1.433 1_556 S
C943 N946 1.384 . S
C944 H935 0.929 . S
C944 C936 1.378 . S
C944 C939 1.350 . S
C945 H932 0.929 . S
C945 C937 1.433 . S
C945 N947 1.384 . S
N946 C942 1.427 . S
N946 C943 1.384 . S
N947 C939 1.427 . S
N947 C945 1.384 . S
H948 C954 0.930 . S
H949 C958 0.930 . S
H950 C963 0.929 1_545 S
H951 C961 0.929 . S
H952 C956 0.929 . S
H953 C962 0.929 . S
C954 H948 0.930 . S
C954 C955 1.367 . S
C954 C962 1.378 . S
C955 C954 1.367 . S
C955 C963 1.433 . S
C956 H952 0.929 . S
C956 C958 1.378 . S
C956 C960 1.350 . S
C957 C960 1.463 . S
C957 C962 1.350 . S
C957 N965 1.427 . S
C958 H949 0.930 . S
C958 C956 1.378 . S
C958 C959 1.367 . S
C959 C958 1.367 . S
C959 C961 1.433 . S
C960 C956 1.350 . S
C960 C957 1.463 . S
C960 N964 1.427 . S
C961 H951 0.929 . S
C961 C959 1.433 . S
C961 N964 1.384 . S
C962 H953 0.929 . S
C962 C954 1.378 . S
C962 C957 1.350 . S
C963 H950 0.929 1_565 S
C963 C955 1.433 . S
C963 N965 1.384 . S
N964 C960 1.427 . S
N964 C961 1.384 . S
N965 C957 1.427 . S
N965 C963 1.384 . S
H966 C972 0.930 . S
H967 C976 0.930 . S
H968 C981 0.929 . S
H969 C979 0.929 . S
H970 C974 0.929 . S
H971 C980 0.929 . S
C972 H966 0.930 . S
C972 C973 1.367 . S
C972 C980 1.378 . S
C973 C972 1.367 . S
C973 C981 1.433 . S
C974 H970 0.929 . S
C974 C976 1.378 . S
C974 C978 1.350 . S
C975 C978 1.463 . S
C975 C980 1.350 . S
C975 N983 1.427 . S
C976 H967 0.930 . S
C976 C974 1.378 . S
C976 C977 1.367 . S
C977 C976 1.367 . S
C977 C979 1.433 . S
C978 C974 1.350 . S
C978 C975 1.463 . S
C978 N982 1.427 . S
C979 H969 0.929 . S
C979 C977 1.433 . S
C979 N982 1.384 . S
C980 H971 0.929 . S
C980 C972 1.378 . S
C980 C975 1.350 . S
C981 H968 0.929 . S
C981 C973 1.433 . S
C981 N983 1.384 . S
N982 C978 1.427 . S
N982 C979 1.384 . S
N983 C975 1.427 . S
N983 C981 1.384 . S
H984 C990 0.930 . S
H985 C994 0.930 . S
H986 C999 0.929 . S
H987 C997 0.929 . S
H988 C992 0.929 . S
H989 C998 0.929 . S
C990 H984 0.930 . S
C990 C991 1.367 . S
C990 C998 1.378 . S
C991 C990 1.367 . S
C991 C999 1.433 . S
C992 H988 0.929 . S
C992 C994 1.378 . S
C992 C996 1.350 . S
C993 C996 1.463 . S
C993 C998 1.350 . S
C993 N1001 1.427 . S
C994 H985 0.930 . S
C994 C992 1.378 . S
C994 C995 1.367 . S
C995 C994 1.367 . S
C995 C997 1.433 . S
C996 C992 1.350 . S
C996 C993 1.463 . S
C996 N1000 1.427 . S
C997 H987 0.929 . S
C997 C995 1.433 . S
C997 N1000 1.384 . S
C998 H989 0.929 . S
C998 C990 1.378 . S
C998 C993 1.350 . S
C999 H986 0.929 . S
C999 C991 1.433 . S
C999 N1001 1.384 . S
N1000 C996 1.427 . S
N1000 C997 1.384 . S
N1001 C993 1.427 . S
N1001 C999 1.384 . S
H1002 C1008 0.930 . S
H1003 C1012 0.930 . S
H1004 C1017 0.929 . S
H1005 C1015 0.929 . S
H1006 C1010 0.929 . S
H1007 C1016 0.929 . S
C1008 H1002 0.930 . S
C1008 C1009 1.367 . S
C1008 C1016 1.378 . S
C1009 C1008 1.367 . S
C1009 C1017 1.433 . S
C1010 H1006 0.929 . S
C1010 C1012 1.378 . S
C1010 C1014 1.350 . S
C1011 C1014 1.463 . S
C1011 C1016 1.350 . S
C1011 N1019 1.427 . S
C1012 H1003 0.930 . S
C1012 C1010 1.378 . S
C1012 C1013 1.367 . S
C1013 C1012 1.367 . S
C1013 C1015 1.433 . S
C1014 C1010 1.350 . S
C1014 C1011 1.463 . S
C1014 N1018 1.427 . S
C1015 H1005 0.929 . S
C1015 C1013 1.433 . S
C1015 N1018 1.384 . S
C1016 H1007 0.929 . S
C1016 C1008 1.378 . S
C1016 C1011 1.350 . S
C1017 H1004 0.929 . S
C1017 C1009 1.433 . S
C1017 N1019 1.384 . S
N1018 C1014 1.427 . S
N1018 C1015 1.384 . S
N1019 C1011 1.427 . S
N1019 C1017 1.384 . S
H1020 C1026 0.930 . S
H1021 C1030 0.930 . S
H1022 C1035 0.929 . S
H1023 C1033 0.929 . S
H1024 C1028 0.929 . S
H1025 C1034 0.929 . S
C1026 H1020 0.930 . S
C1026 C1027 1.367 . S
C1026 C1034 1.378 . S
C1027 C1026 1.367 . S
C1027 C1035 1.433 . S
C1028 H1024 0.929 . S
C1028 C1030 1.378 . S
C1028 C1032 1.350 . S
C1029 C1032 1.463 . S
C1029 C1034 1.350 . S
C1029 N1037 1.427 . S
C1030 H1021 0.930 . S
C1030 C1028 1.378 . S
C1030 C1031 1.367 . S
C1031 C1030 1.367 . S
C1031 C1033 1.433 . S
C1032 C1028 1.350 . S
C1032 C1029 1.463 . S
C1032 N1036 1.427 . S
C1033 H1023 0.929 . S
C1033 C1031 1.433 . S
C1033 N1036 1.384 . S
C1034 H1025 0.929 . S
C1034 C1026 1.378 . S
C1034 C1029 1.350 . S
C1035 H1022 0.929 . S
C1035 C1027 1.433 . S
C1035 N1037 1.384 . S
N1036 C1032 1.427 . S
N1036 C1033 1.384 . S
N1037 C1029 1.427 . S
N1037 C1035 1.384 . S
H1038 C1044 0.930 . S
H1039 C1048 0.930 . S
H1040 C1053 0.929 . S
H1041 C1051 0.929 . S
H1042 C1046 0.929 . S
H1043 C1052 0.929 . S
C1044 H1038 0.930 . S
C1044 C1045 1.367 . S
C1044 C1052 1.378 . S
C1045 C1044 1.367 . S
C1045 C1053 1.433 . S
C1046 H1042 0.929 . S
C1046 C1048 1.378 . S
C1046 C1050 1.350 . S
C1047 C1050 1.463 . S
C1047 C1052 1.350 . S
C1047 N1055 1.427 . S
C1048 H1039 0.930 . S
C1048 C1046 1.378 . S
C1048 C1049 1.367 . S
C1049 C1048 1.367 . S
C1049 C1051 1.433 . S
C1050 C1046 1.350 . S
C1050 C1047 1.463 . S
C1050 N1054 1.427 . S
C1051 H1041 0.929 . S
C1051 C1049 1.433 . S
C1051 N1054 1.384 . S
C1052 H1043 0.929 . S
C1052 C1044 1.378 . S
C1052 C1047 1.350 . S
C1053 H1040 0.929 . S
C1053 C1045 1.433 . S
C1053 N1055 1.384 . S
N1054 C1050 1.427 . S
N1054 C1051 1.384 . S
N1055 C1047 1.427 . S
N1055 C1053 1.384 . S
H1056 C1062 0.930 . S
H1057 C1066 0.930 . S
H1058 C1071 0.929 . S
H1059 C1069 0.929 . S
H1060 C1064 0.929 . S
H1061 C1070 0.929 . S
C1062 H1056 0.930 . S
C1062 C1063 1.367 . S
C1062 C1070 1.378 . S
C1063 C1062 1.367 . S
C1063 C1071 1.433 . S
C1064 H1060 0.929 . S
C1064 C1066 1.378 . S
C1064 C1068 1.350 . S
C1065 C1068 1.463 1_554 S
C1065 C1070 1.350 . S
C1065 N1073 1.427 . S
C1066 H1057 0.930 . S
C1066 C1064 1.378 . S
C1066 C1067 1.367 . S
C1067 C1066 1.367 . S
C1067 C1069 1.433 . S
C1068 C1064 1.350 . S
C1068 C1065 1.463 1_556 S
C1068 N1072 1.427 . S
C1069 H1059 0.929 . S
C1069 C1067 1.433 . S
C1069 N1072 1.384 . S
C1070 H1061 0.929 . S
C1070 C1062 1.378 . S
C1070 C1065 1.350 . S
C1071 H1058 0.929 . S
C1071 C1063 1.433 . S
C1071 N1073 1.384 . S
N1072 C1068 1.427 . S
N1072 C1069 1.384 . S
N1073 C1065 1.427 . S
N1073 C1071 1.384 . S
H1074 C1080 0.930 . S
H1075 C1084 0.930 . S
H1076 C1089 0.929 . S
H1077 C1087 0.929 . S
H1078 C1082 0.929 . S
H1079 C1088 0.929 . S
C1080 H1074 0.930 . S
C1080 C1081 1.367 . S
C1080 C1088 1.378 . S
C1081 C1080 1.367 . S
C1081 C1089 1.433 . S
C1082 H1078 0.929 . S
C1082 C1084 1.378 . S
C1082 C1086 1.350 . S
C1083 C1086 1.463 . S
C1083 C1088 1.350 . S
C1083 N1091 1.427 . S
C1084 H1075 0.930 . S
C1084 C1082 1.378 . S
C1084 C1085 1.367 . S
C1085 C1084 1.367 . S
C1085 C1087 1.433 . S
C1086 C1082 1.350 . S
C1086 C1083 1.463 . S
C1086 N1090 1.427 . S
C1087 H1077 0.929 . S
C1087 C1085 1.433 . S
C1087 N1090 1.384 . S
C1088 H1079 0.929 . S
C1088 C1080 1.378 . S
C1088 C1083 1.350 . S
C1089 H1076 0.929 . S
C1089 C1081 1.433 . S
C1089 N1091 1.384 . S
N1090 C1086 1.427 . S
N1090 C1087 1.384 . S
N1091 C1083 1.427 . S
N1091 C1089 1.384 . S
C671 C627 1.363 . S
C667 C51 1.345 . S
C685 C125 1.465 . S
C689 C447 1.460 . S
C703 C217 2.609 . S
C707 C494 2.621 . S
C721 C291 1.523 . S
C725 C530 1.500 . S
C743 C555 0.876 . S
C739 C347 0.868 . S
C757 C421 0.890 . S
C761 C591 0.895 . S
C775 C143 2.319 . S
C779 C483 2.318 . S
C793 C199 1.497 . S
C797 C519 1.508 . S
C811 C273 0.527 . S
C815 C566 0.538 . S
C833 C602 1.668 . S
C829 C365 1.652 . S
C851 C638 1.826 . S
C847 C439 1.845 . S
C869 C458 2.507 . S
C865 C69 2.455 . S
C883 C63 1.417 . S
C887 C482 1.527 . S
C901 C137 1.522 . S
C905 C518 1.592 . S
C923 C556 1.406 . S
C919 C187 1.354 . S
C937 C261 1.480 . S
C941 C592 1.516 . S
C959 C628 1.556 . S
C955 C359 1.420 . S
C977 C448 1.163 . S
C973 C433 1.096 . S
C995 C626 1.601 . S
C991 C113 1.596 . S
C1009 C211 1.298 . S
C1013 C446 1.384 . S
C1031 C484 1.580 . S
C1027 C285 1.485 . S
C1045 C335 1.370 . S
C1049 C520 1.461 . S
C1063 C409 1.359 . S
C1067 C554 1.401 . S
C1081 C39 1.642 . S
C1085 C590 1.687 . S
