# Generated by pormake.
# Topology zzz, (3,6)-cn, num edge types: 1
# Building blocks:
#     Node 0, Type 0, BuildingBlock: MIDCAF_clean_linker_0, # of connection points: 3
#     Node 1, Type 0, BuildingBlock: MIDCAF_clean_linker_0, # of connection points: 3
#     Node 2, Type 0, BuildingBlock: MIDCAF_clean_linker_0, # of connection points: 3
#     Node 3, Type 0, BuildingBlock: MIDCAF_clean_linker_0, # of connection points: 3
#     Node 4, Type 0, BuildingBlock: MIDCAF_clean_linker_0, # of connection points: 3
#     Node 5, Type 0, BuildingBlock: MIDCAF_clean_linker_0, # of connection points: 3
#     Node 6, Type 0, BuildingBlock: MIDCAF_clean_linker_0, # of connection points: 3
#     Node 7, Type 0, BuildingBlock: MIDCAF_clean_linker_0, # of connection points: 3
#     Node 8, Type 1, BuildingBlock: BETFAJ_clean_sbu_0, # of connection points: 6
#     Node 9, Type 1, BuildingBlock: BETFAJ_clean_sbu_0, # of connection points: 6
#     Node 10, Type 1, BuildingBlock: BETFAJ_clean_sbu_0, # of connection points: 6
#     Node 11, Type 1, BuildingBlock: BETFAJ_clean_sbu_0, # of connection points: 6
#     Edge 12, Type (0, 1), BuildingBlock: MIFKUJ_clean_linker_0, # of connection points: 2
#     Edge 13, Type (0, 1), BuildingBlock: MIFKUJ_clean_linker_0, # of connection points: 2
#     Edge 14, Type (0, 1), BuildingBlock: MIFKUJ_clean_linker_0, # of connection points: 2
#     Edge 15, Type (0, 1), BuildingBlock: MIFKUJ_clean_linker_0, # of connection points: 2
#     Edge 16, Type (0, 1), BuildingBlock: MIFKUJ_clean_linker_0, # of connection points: 2
#     Edge 17, Type (0, 1), BuildingBlock: MIFKUJ_clean_linker_0, # of connection points: 2
#     Edge 18, Type (0, 1), BuildingBlock: MIFKUJ_clean_linker_0, # of connection points: 2
#     Edge 19, Type (0, 1), BuildingBlock: MIFKUJ_clean_linker_0, # of connection points: 2
#     Edge 20, Type (0, 1), BuildingBlock: MIFKUJ_clean_linker_0, # of connection points: 2
#     Edge 21, Type (0, 1), BuildingBlock: MIFKUJ_clean_linker_0, # of connection points: 2
#     Edge 22, Type (0, 1), BuildingBlock: MIFKUJ_clean_linker_0, # of connection points: 2
#     Edge 23, Type (0, 1), BuildingBlock: MIFKUJ_clean_linker_0, # of connection points: 2
#     Edge 24, Type (0, 1), BuildingBlock: MIFKUJ_clean_linker_0, # of connection points: 2
#     Edge 25, Type (0, 1), BuildingBlock: MIFKUJ_clean_linker_0, # of connection points: 2
#     Edge 26, Type (0, 1), BuildingBlock: MIFKUJ_clean_linker_0, # of connection points: 2
#     Edge 27, Type (0, 1), BuildingBlock: MIFKUJ_clean_linker_0, # of connection points: 2
#     Edge 28, Type (0, 1), BuildingBlock: MIFKUJ_clean_linker_0, # of connection points: 2
#     Edge 29, Type (0, 1), BuildingBlock: MIFKUJ_clean_linker_0, # of connection points: 2
#     Edge 30, Type (0, 1), BuildingBlock: MIFKUJ_clean_linker_0, # of connection points: 2
#     Edge 31, Type (0, 1), BuildingBlock: MIFKUJ_clean_linker_0, # of connection points: 2
#     Edge 32, Type (0, 1), BuildingBlock: MIFKUJ_clean_linker_0, # of connection points: 2
#     Edge 33, Type (0, 1), BuildingBlock: MIFKUJ_clean_linker_0, # of connection points: 2
#     Edge 34, Type (0, 1), BuildingBlock: MIFKUJ_clean_linker_0, # of connection points: 2
#     Edge 35, Type (0, 1), BuildingBlock: MIFKUJ_clean_linker_0, # of connection points: 2
# Relax obj value: 0.418
# Max RMSD: 0.276
# Mean RMSD: 0.253
data_MOF--net-zzz--node1-BETFAJ_clean_sbu_0--node2-MIDCAF_clean_linker_0--edge1-MIFKUJ_clean_linker_0
_symmetry_space_group_name_H-M    P1
_symmetry_Int_Tables_number       1
_symmetry_cell_setting            triclinic
loop_
_symmetry_equiv_pos_as_xyz
'x, y, z'
_cell_length_a     74.933424
_cell_length_b     74.870912
_cell_length_c     22.700329
_cell_angle_alpha  89.790441
_cell_angle_beta   89.914942
_cell_angle_gamma 90.103661
loop_
_atom_site_label
_atom_site_type_symbol
_atom_site_fract_x
_atom_site_fract_y
_atom_site_fract_z
_atom_type_partial_charge
C0 C 0.77192 0.52884 0.3717 0.0
C1 C 0.78086 0.51421 0.3974 0.0
C2 C 0.77466 0.49689 0.38528 0.0
C3 C 0.76085 0.49417 0.34504 0.0
H4 H 0.7107 0.54116 0.13999 0.0
H5 H 0.68248 0.54904 0.09243 0.0
H6 H 0.65733 0.5033 0.17479 0.0
H7 H 0.68542 0.49597 0.22337 0.0
H8 H 0.73763 0.49441 0.05037 0.0
H9 H 0.75672 0.48066 0.97616 0.0
H10 H 0.78298 0.45002 0.11243 0.0
H11 H 0.76445 0.46431 0.18655 0.0
H12 H 0.75193 0.53751 0.30992 0.0
H13 H 0.77632 0.54236 0.38044 0.0
H14 H 0.78132 0.48532 0.40369 0.0
H15 H 0.75724 0.48061 0.33348 0.0
N16 N 0.72621 0.51366 0.25175 0.0
N17 N 0.72512 0.49961 0.15896 0.0
N18 N 0.74911 0.49421 0.22209 0.0
C19 C 0.71763 0.51052 0.19972 0.0
C20 C 0.74084 0.49138 0.16998 0.0
C21 C 0.74205 0.50532 0.26296 0.0
C22 C 0.70005 0.51821 0.18617 0.0
C23 C 0.69889 0.53332 0.14972 0.0
C24 C 0.68279 0.53761 0.12178 0.0
C25 C 0.6676 0.52668 0.129 0.0
C26 C 0.6686 0.51218 0.16859 0.0
C27 C 0.68468 0.50797 0.1967 0.0
C28 C 0.7498 0.48067 0.12429 0.0
C29 C 0.74725 0.48448 0.06423 0.0
C30 C 0.75815 0.47654 0.02168 0.0
C31 C 0.77163 0.46451 0.0385 0.0
C32 C 0.77308 0.45962 0.09817 0.0
C33 C 0.76241 0.46774 0.14064 0.0
C34 C 0.75266 0.5087 0.31664 0.0
C35 C 0.75782 0.5261 0.33195 0.0
C36 C 0.96804 0.78505 0.37121 0.0
C37 C 0.98253 0.78942 0.40794 0.0
C38 C 0.99698 0.77739 0.41086 0.0
C39 C 0.99751 0.76223 0.37449 0.0
H40 H 0.96372 0.69483 0.24132 0.0
H41 H 0.96524 0.66476 0.20015 0.0
H42 H 0.02277 0.66839 0.19629 0.0
H43 H 0.02104 0.69862 0.236 0.0
H44 H 0.00608 0.72973 0.08265 0.0
H45 H 0.01201 0.74458 0.98857 0.0
H46 H 0.98692 0.79249 0.05375 0.0
H47 H 0.98098 0.77779 0.14744 0.0
H48 H 0.95792 0.7679 0.30355 0.0
H49 H 0.95646 0.79365 0.36874 0.0
H50 H 0.00844 0.7803 0.43821 0.0
H51 H 0.00936 0.75397 0.37436 0.0
N52 N 0.9881 0.72869 0.29004 0.0
N53 N 0.99259 0.72638 0.18759 0.0
N54 N 0.98774 0.75436 0.22958 0.0
C55 C 0.99107 0.71849 0.24116 0.0
C56 C 0.99092 0.74425 0.1813 0.0
C57 C 0.98644 0.7468 0.28389 0.0
C58 C 0.99228 0.69888 0.24282 0.0
C59 C 0.97669 0.68878 0.23462 0.0
C60 C 0.97759 0.67159 0.21047 0.0
C61 C 0.99413 0.66425 0.19373 0.0
C62 C 0.00979 0.67375 0.20756 0.0
C63 C 0.00886 0.69093 0.23141 0.0
C64 C 0.99318 0.75265 0.12273 0.0
C65 C 1.00159 0.74336 0.0766 0.0
C66 C 0.00502 0.75182 0.02276 0.0
C67 C 0.99984 0.76961 0.01377 0.0
C68 C 0.99081 0.77865 0.05906 0.0
C69 C 0.98759 0.7703 0.11302 0.0
C70 C 0.98364 0.75885 0.3345 0.0
C71 C 0.9687 0.77012 0.33446 0.0
C72 C 0.72503 1.00164 0.3993 0.0
C73 C 0.71457 0.98683 0.41658 0.0
C74 C 0.72025 0.96968 0.39987 0.0
C75 C 0.73487 0.9675 0.36234 0.0
H76 H 0.81212 0.96409 0.24379 0.0
H77 H 0.84034 0.96997 0.1932 0.0
H78 H 0.82148 0.02247 0.14469 0.0
H79 H 0.79318 0.01634 0.19496 0.0
H80 H 0.77022 0.96689 0.07697 0.0
H81 H 0.75306 0.96164 0.98751 0.0
H82 H 0.70554 0.95385 0.09288 0.0
H83 H 0.72262 0.95844 0.18149 0.0
H84 H 0.74681 0.0111 0.34539 0.0
H85 H 0.72104 0.01504 0.41116 0.0
H86 H 0.71282 0.95794 0.41338 0.0
H87 H 0.73805 0.9542 0.34684 0.0
N88 N 0.77283 0.98626 0.28403 0.0
N89 N 0.77412 0.9759 0.1861 0.0
N90 N 0.74804 0.97208 0.24087 0.0
C91 C 0.78214 0.98382 0.23277 0.0
C92 C 0.75707 0.97004 0.18964 0.0
C93 C 0.75568 0.98008 0.28809 0.0
C94 C 0.80067 0.98992 0.22436 0.0
C95 C 0.81442 0.97721 0.22491 0.0
C96 C 0.83054 0.98056 0.19546 0.0
C97 C 0.83312 0.99661 0.16408 0.0
C98 C 0.81985 0.00988 0.16773 0.0
C99 C 0.80377 0.00653 0.1974 0.0
C100 C 0.74772 0.96347 0.13648 0.0
C101 C 0.75619 0.9636 0.08107 0.0
C102 C 0.74635 0.96064 0.02969 0.0
C103 C 0.72787 0.9575 0.03272 0.0
C104 C 0.71978 0.95598 0.0885 0.0
C105 C 0.72958 0.95884 0.13966 0.0
C106 C 0.74445 0.98234 0.34126 0.0
C107 C 0.73987 0.9994 0.36191 0.0
C108 C 0.55427 0.73365 0.07635 0.0
C109 C 0.55215 0.74256 0.02216 0.0
C110 C 0.5483 0.76092 0.0223 0.0
C111 C 0.54518 0.76981 0.07537 0.0
H112 H 0.49318 0.80415 0.18775 0.0
H113 H 0.4878 0.83347 0.14373 0.0
H114 H 0.53806 0.85222 0.21331 0.0
H115 H 0.5434 0.82271 0.25643 0.0
H116 H 0.4992 0.76081 0.35328 0.0
H117 H 0.4939 0.73594 0.42235 0.0
H118 H 0.54755 0.71708 0.39177 0.0
H119 H 0.55273 0.74168 0.32388 0.0
H120 H 0.55197 0.73492 0.16988 0.0
H121 H 0.55698 0.71946 0.07802 0.0
H122 H 0.54677 0.76818 0.98127 0.0
H123 H 0.5413 0.78373 0.0737 0.0
N124 N 0.53279 0.78567 0.18353 0.0
N125 N 0.52238 0.78253 0.28109 0.0
N126 N 0.53692 0.75874 0.23349 0.0
C127 C 0.52471 0.79273 0.23154 0.0
C128 C 0.52875 0.7654 0.28209 0.0
C129 C 0.53893 0.7687 0.18401 0.0
C130 C 0.51849 0.81133 0.22662 0.0
C131 C 0.5026 0.81484 0.19607 0.0
C132 C 0.49963 0.83163 0.17043 0.0
C133 C 0.51262 0.8452 0.17417 0.0
C134 C 0.52789 0.84203 0.20878 0.0
C135 C 0.53082 0.82524 0.23447 0.0
C136 C 0.52639 0.75321 0.33328 0.0
C137 C 0.50998 0.75163 0.3629 0.0
C138 C 0.5069 0.73726 0.40186 0.0
C139 C 0.52028 0.72441 0.41254 0.0
C140 C 0.53699 0.72675 0.38539 0.0
C141 C 0.53996 0.74087 0.34619 0.0
C142 C 0.54579 0.76047 0.12927 0.0
C143 C 0.55116 0.74251 0.12926 0.0
C144 C 0.22413 0.48373 0.94124 0.0
C145 C 0.20958 0.49525 0.95104 0.0
C146 C 0.21036 0.50718 0.99847 0.0
C147 C 0.22454 0.50665 0.03803 0.0
H148 H 0.29603 0.45432 0.14303 0.0
H149 H 0.32657 0.45172 0.17945 0.0
H150 H 0.33449 0.5082 0.14946 0.0
H151 H 0.30408 0.5105 0.11143 0.0
H152 H 0.26963 0.49553 0.29193 0.0
H153 H 0.2552 0.50124 0.38692 0.0
H154 H 0.20363 0.49325 0.3062 0.0
H155 H 0.21786 0.48745 0.21243 0.0
H156 H 0.24893 0.47338 0.9753 0.0
H157 H 0.22388 0.47441 0.90486 0.0
H158 H 0.19955 0.51645 0.00649 0.0
H159 H 0.22418 0.51545 0.0758 0.0
N160 N 0.26829 0.48772 0.0762 0.0
N161 N 0.27081 0.48629 0.1798 0.0
N162 N 0.24317 0.49193 0.13678 0.0
C163 C 0.27845 0.48531 0.12564 0.0
C164 C 0.25316 0.48951 0.1857 0.0
C165 C 0.25045 0.49109 0.08212 0.0
C166 C 0.29787 0.48253 0.12354 0.0
C167 C 0.30467 0.46593 0.1413 0.0
C168 C 0.32206 0.46454 0.16311 0.0
C169 C 0.3329 0.47982 0.16865 0.0
C170 C 0.32661 0.49612 0.14555 0.0
C171 C 0.30921 0.49746 0.12332 0.0
C172 C 0.24487 0.49119 0.24454 0.0
C173 C 0.25523 0.4947 0.29486 0.0
C174 C 0.24699 0.49803 0.34915 0.0
C175 C 0.2283 0.49761 0.3541 0.0
C176 C 0.21807 0.49337 0.30421 0.0
C177 C 0.22624 0.49024 0.25015 0.0
C178 C 0.2384 0.49419 0.03136 0.0
C179 C 0.23849 0.48319 0.98128 0.0
C180 C 0.00453 0.23356 0.93402 0.0
C181 C 0.019 0.22228 0.92009 0.0
C182 C 0.03592 0.2266 0.94282 0.0
C183 C 0.03804 0.24071 0.98225 0.0
H184 H 0.03978 0.31932 0.07895 0.0
H185 H 0.03465 0.349 0.12045 0.0
H186 H 0.98312 0.3317 0.18419 0.0
H187 H 0.98839 0.302 0.14262 0.0
H188 H 0.03092 0.27699 0.26339 0.0
H189 H 0.03946 0.26077 0.35249 0.0
H190 H 0.0651 0.2206 0.24601 0.0
H191 H 0.05657 0.23667 0.15707 0.0
H192 H 0.9952 0.25571 0.98591 0.0
H193 H 0.99128 0.23066 0.9176 0.0
H194 H 0.04751 0.21864 0.93185 0.0
H195 H 0.05107 0.24297 1.00153 0.0
N196 N 0.01842 0.27993 0.05251 0.0
N197 N 0.02844 0.2828 0.15042 0.0
N198 N 0.03359 0.2563 0.09935 0.0
C199 C 0.02027 0.28988 0.1025 0.0
C200 C 0.03513 0.26604 0.14928 0.0
C201 C 0.02524 0.26301 0.05104 0.0
C202 C 0.01431 0.30856 0.10657 0.0
C203 C 0.02701 0.32218 0.09928 0.0
C204 C 0.02416 0.33906 0.12379 0.0
C205 C 0.00857 0.34263 0.15622 0.0
C206 C 0.9952 0.32943 0.15908 0.0
C207 C 0.99813 0.31247 0.13492 0.0
C208 C 0.04281 0.25794 0.20309 0.0
C209 C 0.03874 0.26492 0.25899 0.0
C210 C 0.04362 0.25566 0.31005 0.0
C211 C 0.05291 0.23944 0.30614 0.0
C212 C 0.05813 0.23318 0.25043 0.0
C213 C 0.05305 0.24229 0.19942 0.0
C214 C 0.02342 0.25122 0.99912 0.0
C215 C 0.00675 0.24796 0.97303 0.0
C216 C 0.26884 0.03104 0.93984 0.0
C217 C 0.28401 0.02095 0.95557 0.0
C218 C 0.28356 0.01127 0.00873 0.0
C219 C 0.26911 0.01274 0.04724 0.0
H220 H 0.19108 0.0038 0.0919 0.0
H221 H 0.15999 1.0003 0.12392 0.0
H222 H 0.15917 0.05561 0.17736 0.0
H223 H 0.18997 0.05896 0.14504 0.0
H224 H 0.21989 0.0283 0.28682 0.0
H225 H 0.23333 0.02547 0.3845 0.0
H226 H 0.28465 0.03973 0.3111 0.0
H227 H 0.27136 0.04245 0.21392 0.0
H228 H 0.24315 0.04108 0.96714 0.0
H229 H 0.26871 0.03865 0.89919 0.0
H230 H 0.29471 1.00295 0.02165 0.0
H231 H 0.2697 0.00574 0.08906 0.0
N232 N 0.22349 0.02851 0.07251 0.0
N233 N 0.2195 0.03475 0.17344 0.0
N234 N 0.2482 0.03066 0.13616 0.0
C235 C 0.21246 0.03209 0.11917 0.0
C236 C 0.2373 0.0341 0.18234 0.0
C237 C 0.24156 0.02795 0.08124 0.0
C238 C 0.19281 0.03172 0.11521 0.0
C239 C 0.18389 0.01539 0.10763 0.0
C240 C 0.1662 0.01333 0.12704 0.0
C241 C 0.15711 0.0276 0.15416 0.0
C242 C 0.1656 0.04435 0.15639 0.0
C243 C 0.18326 0.04634 0.13751 0.0
C244 C 0.24465 0.03536 0.24254 0.0
C245 C 0.23396 0.03126 0.29184 0.0
C246 C 0.24162 0.02962 0.34775 0.0
C247 C 0.25999 0.0324 0.35542 0.0
C248 C 0.27038 0.03775 0.30679 0.0
C249 C 0.26281 0.03911 0.25091 0.0
C250 C 0.2545 0.02373 0.03363 0.0
C251 C 0.25417 0.0324 0.97858 0.0
C252 C 0.52702 0.27682 0.26345 0.0
C253 C 0.52581 0.26733 0.31692 0.0
C254 C 0.5189 0.24989 0.31652 0.0
C255 C 0.51288 0.24229 0.26398 0.0
H256 H 0.46274 0.20974 0.16855 0.0
H257 H 0.45856 0.17956 0.20689 0.0
H258 H 0.50176 0.16104 0.09688 0.0
H259 H 0.50588 0.19147 0.0588 0.0
H260 H 0.46969 0.25522 0.98134 0.0
H261 H 0.46756 0.28024 0.91102 0.0
H262 H 0.52243 0.29413 0.94698 0.0
H263 H 0.52444 0.26943 0.01642 0.0
H264 H 0.5218 0.27716 0.17111 0.0
H265 H 0.53194 0.29042 0.26227 0.0
H266 H 0.51791 0.24221 0.35693 0.0
H267 H 0.50733 0.22893 0.26543 0.0
N268 N 0.49871 0.22807 0.15565 0.0
N269 N 0.49056 0.23142 0.05597 0.0
N270 N 0.50545 0.25456 0.10605 0.0
C271 C 0.49117 0.22131 0.10628 0.0
C272 C 0.49781 0.24823 0.05608 0.0
C273 C 0.50592 0.24463 0.156 0.0
C274 C 0.48438 0.20284 0.10987 0.0
C275 C 0.47071 0.19902 0.15037 0.0
C276 C 0.46842 0.18171 0.17263 0.0
C277 C 0.47997 0.16786 0.15559 0.0
C278 C 0.49276 0.17143 0.11145 0.0
C279 C 0.49493 0.18877 0.08877 0.0
C280 C 0.49725 0.26033 0.00416 0.0
C281 C 0.4814 0.26332 0.97265 0.0
C282 C 0.48014 0.27778 0.93299 0.0
C283 C 0.49481 0.28928 0.92344 0.0
C284 C 0.51092 0.2855 0.95253 0.0
C285 C 0.51207 0.27133 0.99253 0.0
C286 C 0.51357 0.25203 0.21084 0.0
C287 C 0.52101 0.26926 0.21109 0.0
Sm288 Sm 0.00656 1.0023 0.70947 0.0
Sm289 Sm 0.9835 0.01335 0.59768 0.0
C290 C 0.01945 0.99206 0.81168 0.0
C291 C 0.01984 0.97359 0.8336 0.0
C292 C 0.00584 0.96199 0.81866 0.0
C293 C 0.00758 0.94367 0.82675 0.0
C294 C 0.02335 0.93649 0.85026 0.0
C295 C 0.03707 0.94818 0.86788 0.0
C296 C 0.03534 0.96663 0.85937 0.0
C297 C 0.02485 0.00597 0.6052 0.0
C298 C 0.99133 0.97086 0.6231 0.0
C299 C 0.97645 0.02724 0.49434 0.0
C300 C 0.98225 0.04521 0.47464 0.0
C301 C 0.99797 0.04722 0.44144 0.0
C302 C 0.0066 0.06378 0.43849 0.0
C303 C 0.9995 0.07864 0.46805 0.0
C304 C 0.98293 0.07698 0.49644 0.0
C305 C 0.97434 0.06049 0.49941 0.0
C306 C 0.96096 0.00432 0.69024 0.0
C307 C 0.99754 0.04501 0.68847 0.0
O308 O 0.00358 0.9992 0.80628 0.0
O309 O 0.02965 0.99498 0.7658 0.0
O310 O 0.01251 0.01612 0.62298 0.0
O311 O 0.02837 0.99373 0.64411 0.0
O312 O 0.99594 0.97509 0.67764 0.0
O313 O 0.98793 0.98318 0.58248 0.0
O314 O 0.98925 0.01548 0.50176 0.0
O315 O 0.96474 0.02697 0.53729 0.0
O316 O 0.97774 0.00413 0.68941 0.0
O317 O 0.95526 0.00911 0.63853 0.0
O318 O 0.98928 0.04089 0.63881 0.0
O319 O 0.00492 0.03279 0.72301 0.0
H320 H 0.99386 0.96694 0.79754 0.0
H321 H 0.99689 0.9351 0.81156 0.0
H322 H 0.0493 0.94304 0.88678 0.0
H323 H 0.0464 0.97534 0.87034 0.0
H324 H 0.00429 0.03575 0.42134 0.0
H325 H 0.01914 0.0648 0.41493 0.0
H326 H 0.97709 0.08816 0.51964 0.0
H327 H 0.96216 0.05954 0.52496 0.0
Sm328 Sm 0.50259 0.01933 0.71473 0.0
Sm329 Sm 0.49093 0.99452 0.60823 0.0
C330 C 0.51357 0.03256 0.81539 0.0
C331 C 0.53095 0.02878 0.84347 0.0
C332 C 0.53566 0.01108 0.85719 0.0
C333 C 0.55341 0.0065 0.86686 0.0
C334 C 0.5669 0.01952 0.86379 0.0
C335 C 0.56202 0.03749 0.85519 0.0
C336 C 0.54419 0.04207 0.84507 0.0
C337 C 0.49785 0.03617 0.608 0.0
C338 C 0.53337 1.00248 0.63028 0.0
C339 C 0.47812 0.98338 0.5069 0.0
C340 C 0.4596 0.98364 0.485 0.0
C341 C 0.45081 0.9999 0.47397 0.0
C342 C 0.43224 1.00034 0.46935 0.0
C343 C 0.42226 0.9846 0.47624 0.0
C344 C 0.43108 0.96822 0.48247 0.0
C345 C 0.44963 0.96772 0.48604 0.0
C346 C 0.50036 0.97355 0.70461 0.0
C347 C 0.45965 0.00988 0.69814 0.0
O348 O 0.50229 0.0192 0.81255 0.0
O349 O 0.51453 0.04158 0.76596 0.0
O350 O 0.48804 0.02392 0.62869 0.0
O351 O 0.51014 0.0406 0.64544 0.0
O352 O 0.52929 0.00715 0.68485 0.0
O353 O 0.52091 0.99934 0.5902 0.0
O354 O 0.48634 0.99879 0.51231 0.0
O355 O 0.4806 0.97283 0.5522 0.0
O356 O 0.5006 0.99028 0.70032 0.0
O357 O 0.49525 0.967 0.65462 0.0
O358 O 0.46339 1.00091 0.64936 0.0
O359 O 0.47214 0.01778 0.73035 0.0
H360 H 0.52587 1.00046 0.85645 0.0
H361 H 0.55659 0.99251 0.87289 0.0
H362 H 0.57206 0.04791 0.85394 0.0
H363 H 0.54093 0.05582 0.83468 0.0
H364 H 0.45809 0.0124 0.47264 0.0
H365 H 0.42562 0.01311 0.4643 0.0
H366 H 0.42356 0.95591 0.48707 0.0
H367 H 0.45609 0.955 0.49406 0.0
Sm368 Sm 0.4869 0.51137 0.7098 0.0
Sm369 Sm 0.50837 0.50143 0.6043 0.0
C370 C 0.47555 0.52864 0.80323 0.0
C371 C 0.48183 0.54624 0.82276 0.0
C372 C 0.49979 0.55095 0.81393 0.0
C373 C 0.50535 0.56855 0.82055 0.0
C374 C 0.49309 0.5819 0.83602 0.0
C375 C 0.47523 0.57706 0.8472 0.0
C376 C 0.46963 0.55934 0.84044 0.0
C377 C 0.46653 0.50064 0.61591 0.0
C378 C 0.50173 0.54294 0.61885 0.0
C379 C 0.52021 0.48437 0.51102 0.0
C380 C 0.52264 0.46493 0.50394 0.0
C381 C 0.50792 0.45329 0.50829 0.0
C382 C 0.51051 0.43497 0.51465 0.0
C383 C 0.52783 0.42787 0.51677 0.0
C384 C 0.5425 0.43934 0.50876 0.0
C385 C 0.53992 0.45773 0.50234 0.0
C386 C 0.52886 0.51264 0.69729 0.0
C387 C 0.49486 0.46954 0.69828 0.0
O388 O 0.48724 0.51569 0.80647 0.0
O389 O 0.46692 0.52884 0.75322 0.0
O390 O 0.48002 0.51071 0.61293 0.0
O391 O 0.46282 0.49653 0.67022 0.0
O392 O 0.49806 0.5384 0.67394 0.0
O393 O 0.50403 0.53059 0.57834 0.0
O394 O 0.50373 0.48998 0.51566 0.0
O395 O 0.5309 0.49197 0.54897 0.0
O396 O 0.51545 0.50244 0.70126 0.0
O397 O 0.53234 0.51662 0.64266 0.0
O398 O 0.5017 0.47383 0.64635 0.0
O399 O 0.4888 0.48181 0.73464 0.0
H400 H 0.50941 0.54121 0.79872 0.0
H401 H 0.5191 0.5718 0.81041 0.0
H402 H 0.46551 0.58701 0.85995 0.0
H403 H 0.45567 0.55601 0.84656 0.0
H404 H 0.49439 0.45834 0.50953 0.0
H405 H 0.49893 0.42638 0.51917 0.0
H406 H 0.55601 0.43423 0.5101 0.0
H407 H 0.55147 0.4664 0.49923 0.0
Sm408 Sm 0.99295 0.49387 0.70602 0.0
Sm409 Sm 1.00131 0.52048 0.61952 0.0
C410 C 0.9787 0.47257 0.78632 0.0
C411 C 0.96324 0.46063 0.78289 0.0
C412 C 0.95356 0.45645 0.8338 0.0
C413 C 0.93744 0.44717 0.82957 0.0
C414 C 0.93074 0.44196 0.77423 0.0
C415 C 0.94093 0.44552 0.72352 0.0
C416 C 0.95702 0.45485 0.7278 0.0
C417 C 1.00246 0.47914 0.59915 0.0
C418 C 0.96017 0.51028 0.62463 0.0
C419 C 0.01681 0.53994 0.53665 0.0
C420 C 0.03511 0.547 0.53213 0.0
C421 C 0.04571 0.54214 0.48394 0.0
C422 C 0.06402 0.54553 0.4843 0.0
C423 C 0.07208 0.55404 0.53271 0.0
C424 C 0.0612 0.55993 0.57923 0.0
C425 C 0.04291 0.55633 0.57918 0.0
C426 C 0.9915 0.53531 0.72589 0.0
C427 C 0.03366 0.50509 0.70331 0.0
O428 O 0.97498 0.4896 0.78269 0.0
O429 O 0.99243 0.46806 0.75421 0.0
O430 O 0.99192 0.49211 0.60573 0.0
O431 O 0.00862 0.47387 0.64946 0.0
O432 O 0.96464 0.50266 0.67507 0.0
O433 O 0.97257 0.51659 0.5891 0.0
O434 O 0.01554 0.52255 0.53395 0.0
O435 O 0.00659 0.5468 0.57737 0.0
O436 O 1.00195 0.52223 0.7199 0.0
O437 O 0.98592 0.54095 0.6751 0.0
O438 O 0.02942 0.511 0.65031 0.0
O439 O 0.02096 0.5002 0.74006 0.0
H440 H 0.95808 0.46102 0.8765 0.0
H441 H 0.92975 0.44504 0.86941 0.0
H442 H 0.93616 0.44166 0.68038 0.0
H443 H 0.96427 0.45815 0.68785 0.0
H444 H 0.04 0.53478 0.44749 0.0
H445 H 0.07195 0.54053 0.44806 0.0
H446 H 0.06689 0.56679 0.61671 0.0
H447 H 0.03508 0.56017 0.61721 0.0
H448 H 0.14801 0.99915 0.22413 0.0
H449 H 0.1222 0.99612 0.28882 0.0
H450 H 0.10182 0.04653 0.22587 0.0
H451 H 0.12777 0.04968 0.16086 0.0
H452 H 0.10067 0.04581 0.34132 0.0
H453 H 0.08121 0.00595 0.19177 0.0
H454 H 0.08341 0.98102 0.12146 0.0
H455 H 0.09137 0.94421 0.26445 0.0
H456 H 0.08948 0.96895 0.33561 0.0
H457 H 0.02368 0.03399 0.52663 0.0
H458 H 0.04242 0.03842 0.43875 0.0
H459 H 0.06958 0.98887 0.47596 0.0
H460 H 0.05055 0.98417 0.56188 0.0
H461 H 0.0639 0.99106 0.36311 0.0
H462 H 0.0862 0.03193 0.51126 0.0
H463 H 0.08477 0.0573 0.58017 0.0
H464 H 0.07169 0.09258 0.43731 0.0
H465 H 0.07255 0.06742 0.36783 0.0
C466 C 0.13783 0.00939 0.22267 0.0
C467 C 0.14001 0.02464 0.18689 0.0
C468 C 0.12303 0.00766 0.25999 0.0
C469 C 0.10989 0.02102 0.26213 0.0
C470 C 0.11175 0.03603 0.22523 0.0
C471 C 0.12661 0.03781 0.188 0.0
C472 C 0.09494 0.01981 0.30568 0.0
C473 C 0.09238 0.03397 0.34526 0.0
C474 C 0.08423 0.00429 0.31166 0.0
C475 C 0.08532 0.98934 0.26902 0.0
C476 C 0.08356 0.99256 0.20821 0.0
C477 C 0.08473 0.97845 0.1682 0.0
C478 C 0.08756 0.96105 0.18847 0.0
C479 C 0.08918 0.9577 0.24881 0.0
C480 C 0.08804 0.97176 0.28901 0.0
C481 C 0.03349 0.02397 0.51539 0.0
C482 C 0.03559 0.00871 0.55095 0.0
C483 C 0.04432 0.02657 0.46549 0.0
C484 C 0.05761 0.01406 0.45077 0.0
C485 C 0.05945 0.99871 0.486 0.0
C486 C 0.04859 0.99607 0.5354 0.0
C487 C 0.06995 0.01687 0.39971 0.0
C488 C 0.07201 1.003 0.35864 0.0
C489 C 0.08017 0.03268 0.3923 0.0
C490 C 0.07923 0.04773 0.43446 0.0
C491 C 0.08279 0.04506 0.49468 0.0
C492 C 0.08208 0.05942 0.53384 0.0
C493 C 0.07808 0.07654 0.51314 0.0
C494 C 0.07471 0.07933 0.45332 0.0
C495 C 0.07526 0.06502 0.41406 0.0
H496 H 0.07769 0.08767 0.54336 0.0
H497 H 0.08846 0.95015 0.15742 0.0
H498 H 0.45138 0.14778 0.1942 0.0
H499 H 0.45195 0.12203 0.26106 0.0
H500 H 0.50948 0.12377 0.26238 0.0
H501 H 0.509 0.14929 0.19526 0.0
H502 H 0.49895 0.09022 0.26314 0.0
H503 H 0.48338 0.14296 0.37316 0.0
H504 H 0.46548 0.16962 0.39667 0.0
H505 H 0.41906 0.13671 0.42151 0.0
H506 H 0.43665 0.10987 0.39734 0.0
H507 H 0.52135 0.05671 0.5471 0.0
H508 H 0.51566 0.07519 0.46 0.0
H509 H 0.46089 0.05747 0.45824 0.0
H510 H 0.46667 0.03852 0.54506 0.0
H511 H 0.46658 0.09633 0.45284 0.0
H512 H 0.48399 0.04301 0.35517 0.0
H513 H 0.50278 0.01678 0.33458 0.0
H514 H 0.54667 0.05119 0.28952 0.0
H515 H 0.52825 0.07764 0.31099 0.0
C516 C 0.46416 0.14255 0.20825 0.0
C517 C 0.48014 0.15068 0.18935 0.0
C518 C 0.46447 0.12784 0.24666 0.0
C519 C 0.48076 0.12109 0.26784 0.0
C520 C 0.49673 0.12866 0.24683 0.0
C521 C 0.49643 0.14326 0.20811 0.0
C522 C 0.4813 0.10682 0.31406 0.0
C523 C 0.49193 0.09163 0.30468 0.0
C524 C 0.47184 0.10835 0.36802 0.0
C525 C 0.46127 0.12445 0.38276 0.0
C526 C 0.46932 0.14143 0.38321 0.0
C527 C 0.45924 0.15657 0.39671 0.0
C528 C 0.44113 0.15487 0.41039 0.0
C529 C 0.43308 0.13801 0.41077 0.0
C530 C 0.4431 0.12284 0.39719 0.0
C531 C 0.50814 0.0566 0.52779 0.0
C532 C 0.49445 0.0462 0.55282 0.0
C533 C 0.50492 0.06714 0.47797 0.0
C534 C 0.48786 0.06772 0.45259 0.0
C535 C 0.47415 0.05721 0.47713 0.0
C536 C 0.47748 0.04635 0.52646 0.0
C537 C 0.48441 0.07996 0.40206 0.0
C538 C 0.47333 0.0948 0.41084 0.0
C539 C 0.49356 0.07819 0.34785 0.0
C540 C 0.50476 0.06232 0.33515 0.0
C541 C 0.49771 0.04499 0.34147 0.0
C542 C 0.50828 0.03008 0.32956 0.0
C543 C 0.52591 0.03231 0.31084 0.0
C544 C 0.53301 0.04947 0.30408 0.0
C545 C 0.5225 0.06444 0.31609 0.0
H546 H 0.53404 0.02074 0.30138 0.0
H547 H 0.43334 0.1666 0.42086 0.0
H548 H 0.33742 0.46215 0.2729 0.0
H549 H 0.36228 0.4643 0.34141 0.0
H550 H 0.39006 0.49928 0.22103 0.0
H551 H 0.36518 0.49695 0.15102 0.0
H552 H 0.41281 0.47349 0.2818 0.0
H553 H 0.36864 0.51821 0.32426 0.0
H554 H 0.33813 0.52912 0.34287 0.0
H555 H 0.3341 0.49512 0.49505 0.0
H556 H 0.3645 0.48378 0.47677 0.0
H557 H 0.47032 0.51139 0.50126 0.0
H558 H 0.44947 0.50651 0.41976 0.0
H559 H 0.41475 0.47673 0.53598 0.0
H560 H 0.43546 0.4817 0.61757 0.0
H561 H 0.39629 0.50072 0.47328 0.0
H562 H 0.44006 0.45594 0.43304 0.0
H563 H 0.47055 0.44468 0.41645 0.0
H564 H 0.47544 0.47779 0.26238 0.0
H565 H 0.44509 0.48952 0.27872 0.0
C566 C 0.34899 0.46991 0.25991 0.0
C567 C 0.34925 0.47936 0.20617 0.0
C568 C 0.36316 0.47123 0.29952 0.0
C569 C 0.37795 0.48207 0.28661 0.0
C570 C 0.37876 0.49084 0.23187 0.0
C571 C 0.36448 0.48959 0.19211 0.0
C572 C 0.39167 0.48533 0.33264 0.0
C573 C 0.4093 0.47967 0.32336 0.0
C574 C 0.38699 0.49308 0.38731 0.0
C575 C 0.36878 0.50003 0.39882 0.0
C576 C 0.36119 0.51296 0.36143 0.0
C577 C 0.34393 0.51923 0.37195 0.0
C578 C 0.33416 0.51279 0.42003 0.0
C579 C 0.34167 0.50008 0.45779 0.0
C580 C 0.35892 0.49374 0.44739 0.0
C581 C 0.4583 0.5037 0.50926 0.0
C582 C 0.45448 0.49696 0.5658 0.0
C583 C 0.44642 0.50087 0.46263 0.0
C584 C 0.43056 0.49118 0.47161 0.0
C585 C 0.42687 0.48428 0.52798 0.0
C586 C 0.43873 0.48709 0.57454 0.0
C587 C 0.41747 0.4887 0.42299 0.0
C588 C 0.3999 0.49457 0.43174 0.0
C589 C 0.42224 0.48106 0.36814 0.0
C590 C 0.44035 0.47375 0.35745 0.0
C591 C 0.44768 0.46092 0.39585 0.0
C592 C 0.46493 0.45445 0.38649 0.0
C593 C 0.47494 0.46055 0.33848 0.0
C594 C 0.46768 0.47309 0.29961 0.0
C595 C 0.45045 0.47966 0.30889 0.0
H596 H 0.4883 0.45553 0.33133 0.0
H597 H 0.32079 0.51766 0.42811 0.0
H598 H 0.98028 0.36577 0.16968 0.0
H599 H 0.97811 0.39103 0.23847 0.0
H600 H 0.03175 0.38078 0.29785 0.0
H601 H 0.03408 0.35583 0.22924 0.0
H602 H 0.00495 0.38335 0.3895 0.0
H603 H 0.02614 0.4149 0.21573 0.0
H604 H 0.02436 0.42451 0.1119 0.0
H605 H 0.97364 0.44913 0.14525 0.0
H606 H 0.97501 0.43942 0.24917 0.0
H607 H 0.02709 0.4538 0.57432 0.0
H608 H 0.02712 0.4327 0.49257 0.0
H609 H 0.97936 0.45706 0.42338 0.0
H610 H 0.97974 0.47877 0.50431 0.0
H611 H 0.99982 0.44738 0.33497 0.0
H612 H 0.9778 0.41789 0.5057 0.0
H613 H 0.97734 0.40803 0.60944 0.0
H614 H 0.02585 0.37872 0.58248 0.0
H615 H 0.02675 0.38863 0.47875 0.0
C616 C 0.99166 0.36907 0.19698 0.0
C617 C 0.0074 0.3589 0.19364 0.0
C618 C 0.99042 0.3835 0.23611 0.0
C619 C 0.00479 0.38778 0.2732 0.0
C620 C 0.02052 0.37773 0.26955 0.0
C621 C 0.02188 0.36356 0.22994 0.0
C622 C 0.00334 0.40217 0.31791 0.0
C623 C 0.00399 0.39737 0.37763 0.0
C624 C 1.00137 0.42038 0.30239 0.0
C625 C 1.00058 0.42625 0.24003 0.0
C626 C 0.01452 0.4222 0.20079 0.0
C627 C 0.01361 0.42771 0.14196 0.0
C628 C 0.99887 0.43737 0.12194 0.0
C629 C 0.98504 0.44161 0.16078 0.0
C630 C 0.98588 0.43612 0.21966 0.0
C631 C 0.01671 0.45479 0.54128 0.0
C632 C 0.00333 0.46781 0.54594 0.0
C633 C 0.01666 0.44264 0.49472 0.0
C634 C 0.00295 0.44291 0.4525 0.0
C635 C 0.99 0.45646 0.45553 0.0
C636 C 0.99022 0.46886 0.50179 0.0
C637 C 1.00191 0.42862 0.40689 0.0
C638 C 1.00067 0.43338 0.34706 0.0
C639 C 0.00297 0.41027 0.42227 0.0
C640 C 1.00241 0.40413 0.48453 0.0
C641 C 0.98843 0.40943 0.52198 0.0
C642 C 0.98809 0.40383 0.58077 0.0
C643 C 1.00158 0.39278 0.60256 0.0
C644 C 0.01542 0.38729 0.56555 0.0
C645 C 0.01585 0.39288 0.50672 0.0
H646 H 1.00129 0.38846 0.6481 0.0
H647 H 0.99819 0.44163 0.07638 0.0
H648 H 0.8321 0.00985 0.05188 0.0
H649 H 0.85582 0.01 0.97822 0.0
H650 H 0.89215 0.98705 0.10444 0.0
H651 H 0.86838 0.98702 0.17918 0.0
H652 H 0.90787 0.01439 0.03283 0.0
H653 H 0.87469 0.96026 0.0094 0.0
H654 H 0.84755 0.94191 0.99861 0.0
H655 H 0.83474 0.96937 0.8378 0.0
H656 H 0.86168 0.98809 0.84812 0.0
H657 H 0.97011 0.99309 0.80188 0.0
H658 H 0.95045 0.99043 0.88815 0.0
H659 H 0.90568 0.00679 0.78168 0.0
H660 H 0.92519 0.00927 0.69592 0.0
H661 H 0.89615 0.98004 0.85036 0.0
H662 H 0.92757 0.03575 0.8773 0.0
H663 H 0.95429 0.05475 0.88765 0.0
H664 H 0.97015 0.02494 0.04075 0.0
H665 H 0.94363 0.00558 0.03079 0.0
C666 C 0.84522 0.00519 0.06463 0.0
C667 C 0.8483 0.99846 0.1217 0.0
C668 C 0.85875 0.00513 0.02215 0.0
C669 C 0.87573 0.99836 0.03553 0.0
C670 C 0.87914 0.99229 0.09306 0.0
C671 C 0.86552 0.99221 0.13563 0.0
C672 C 0.8895 0.99693 0.98834 0.0
C673 C 0.90547 0.00664 0.99334 0.0
C674 C 0.88628 0.987 0.93643 0.0
C675 C 0.87013 0.97568 0.92981 0.0
C676 C 0.86602 0.96248 0.97198 0.0
C677 C 0.85068 0.952 0.96591 0.0
C678 C 0.83941 0.95449 0.91761 0.0
C679 C 0.84348 0.96746 0.87521 0.0
C680 C 0.85879 0.978 0.88112 0.0
C681 C 0.95611 0.99613 0.79708 0.0
C682 C 0.94926 1.00157 0.74229 0.0
C683 C 0.94485 0.99463 0.8464 0.0
C684 C 0.92656 0.99864 0.8418 0.0
C685 C 0.9197 0.00363 0.78661 0.0
C686 C 0.9309 0.00507 0.73752 0.0
C687 C 0.91441 0.99785 0.894 0.0
C688 C 0.8987 0.98767 0.89002 0.0
C689 C 0.91786 0.0074 0.94663 0.0
C690 C 0.93373 0.01909 0.95289 0.0
C691 C 0.93683 0.03316 0.9129 0.0
C692 C 0.95192 0.044 0.91873 0.0
C693 C 0.96394 0.04102 0.96472 0.0
C694 C 0.96085 0.02721 0.00508 0.0
C695 C 0.94579 0.0163 0.99938 0.0
H696 H 0.97562 0.04943 0.96916 0.0
H697 H 0.82754 0.94636 0.91299 0.0
H698 H 0.53914 0.86148 0.11057 0.0
H699 H 0.53656 0.88618 0.04094 0.0
H700 H 0.48044 0.89059 0.0807 0.0
H701 H 0.48292 0.86567 0.15046 0.0
H702 H 0.48455 0.89123 0.9678 0.0
H703 H 0.51172 0.92289 0.12476 0.0
H704 H 0.53365 0.92906 0.20299 0.0
H705 H 0.57556 0.93188 0.0741 0.0
H706 H 0.55393 0.92547 0.99514 0.0
H707 H 0.50009 0.98443 0.82006 0.0
H708 H 0.50198 0.96547 0.90848 0.0
H709 H 0.50829 0.91908 0.79829 0.0
H710 H 0.50638 0.93795 0.71053 0.0
H711 H 0.52617 0.94274 0.95556 0.0
H712 H 0.48529 0.88449 0.85404 0.0
H713 H 0.46141 0.8802 0.78071 0.0
H714 H 0.44318 0.9338 0.80947 0.0
H715 H 0.46677 0.93833 0.88355 0.0
C716 C 0.52631 0.86795 0.10571 0.0
C717 C 0.51125 0.86159 0.1366 0.0
C718 C 0.52485 0.88212 0.06563 0.0
C719 C 0.50834 0.89048 0.05571 0.0
C720 C 0.49334 0.88441 0.08737 0.0
C721 C 0.49477 0.87014 0.1273 0.0
C722 C 0.50657 0.90468 0.00959 0.0
C723 C 0.49363 0.90252 0.96547 0.0
C724 C 0.51813 0.91969 0.00672 0.0
C725 C 0.53121 0.92356 0.05406 0.0
C726 C 0.52563 0.92469 0.11313 0.0
C727 C 0.53801 0.92826 0.1576 0.0
C728 C 0.55599 0.93083 0.14354 0.0
C729 C 0.56163 0.92988 0.08494 0.0
C730 C 0.54931 0.9263 0.04029 0.0
C731 C 0.50229 0.97027 0.81497 0.0
C732 C 0.50322 0.96271 0.75851 0.0
C733 C 0.50325 0.9594 0.86544 0.0
C734 C 0.50501 0.94077 0.86018 0.0
C735 C 0.5066 0.93335 0.80366 0.0
C736 C 0.50559 0.94417 0.75347 0.0
C737 C 0.50456 0.92889 0.91314 0.0
C738 C 0.51706 0.9315 0.95835 0.0
C739 C 0.49233 0.91449 0.91782 0.0
C740 C 0.4779 0.91178 0.874 0.0
C741 C 0.47613 0.89533 0.84494 0.0
C742 C 0.46265 0.89286 0.8032 0.0
C743 C 0.45081 0.90673 0.79032 0.0
C744 C 0.45239 0.92309 0.81933 0.0
C745 C 0.46582 0.92562 0.86116 0.0
H746 H 0.44041 0.9048 0.75795 0.0
H747 H 0.56555 0.93359 0.17804 0.0
H748 H 0.63213 0.52227 0.15846 0.0
H749 H 0.60637 0.52273 0.09222 0.0
H750 H 0.64079 0.53691 0.947 0.0
H751 H 0.66656 0.5362 0.01232 0.0
H752 H 0.60945 0.55527 0.94227 0.0
H753 H 0.62822 0.49403 0.96907 0.0
H754 H 0.63533 0.46712 0.02741 0.0
H755 H 0.582 0.46627 0.09688 0.0
H756 H 0.57465 0.49334 0.03953 0.0
H757 H 0.56185 0.52775 0.69038 0.0
H758 H 0.58307 0.53277 0.77002 0.0
H759 H 0.54491 0.51197 0.89544 0.0
H760 H 0.52392 0.50609 0.81499 0.0
H761 H 0.57573 0.49867 0.91871 0.0
H762 H 0.55592 0.5583 0.88 0.0
H763 H 0.54937 0.58476 0.81862 0.0
H764 H 0.60458 0.58893 0.77052 0.0
H765 H 0.6115 0.5623 0.83042 0.0
C766 C 0.63423 0.52556 0.11248 0.0
C767 C 0.65152 0.52912 0.09091 0.0
C768 C 0.61946 0.52586 0.07467 0.0
C769 C 0.62165 0.52966 0.01441 0.0
C770 C 0.63874 0.534 0.9933 0.0
C771 C 0.65349 0.53366 0.03097 0.0
C772 C 0.60644 0.52816 0.9725 0.0
C773 C 0.6021 0.54289 0.93685 0.0
C774 C 0.59657 0.51213 0.96635 0.0
C775 C 0.60095 0.49582 1.00058 0.0
C776 C 0.61805 0.48818 0.99716 0.0
C777 C 0.62212 0.47289 0.02998 0.0
C778 C 0.60914 0.46503 0.06598 0.0
C779 C 0.59205 0.4724 0.06908 0.0
C780 C 0.58792 0.48772 0.03642 0.0
C781 C 0.55794 0.52433 0.73497 0.0
C782 C 0.54122 0.51654 0.74647 0.0
C783 C 0.57005 0.52735 0.78068 0.0
C784 C 0.56555 0.52309 0.83923 0.0
C785 C 0.54873 0.51545 0.85081 0.0
C786 C 0.53671 0.51213 0.80485 0.0
C787 C 0.57876 0.52576 0.88764 0.0
C788 C 0.58279 0.51121 0.92455 0.0
C789 C 0.58833 0.54198 0.89485 0.0
C790 C 0.58421 0.5582 0.85952 0.0
C791 C 0.56666 0.56479 0.85612 0.0
C792 C 0.56288 0.57982 0.82162 0.0
C793 C 0.57653 0.58849 0.79078 0.0
C794 C 0.59402 0.58219 0.79445 0.0
C795 C 0.59789 0.56713 0.82869 0.0
H796 H 0.57353 0.60007 0.76402 0.0
H797 H 0.61231 0.45319 0.09134 0.0
H798 H 0.01544 0.65908 0.09758 0.0
H799 H 0.01467 0.63465 0.02723 0.0
H800 H 0.97354 0.60862 0.12942 0.0
H801 H 0.97416 0.63326 0.2003 0.0
H802 H 0.02073 0.60043 0.02725 0.0
H803 H 0.94481 0.58729 0.03572 0.0
H804 H 0.91695 0.60316 0.06031 0.0
H805 H 0.94172 0.65329 0.01696 0.0
H806 H 0.96963 0.63769 0.99139 0.0
H807 H 0.00419 0.52718 0.83591 0.0
H808 H 0.00382 0.54622 0.92362 0.0
H809 H 0.9761 0.58709 0.8255 0.0
H810 H 0.97592 0.56791 0.73872 0.0
H811 H 0.9631 0.58614 0.93085 0.0
H812 H 0.02249 0.5879 0.84999 0.0
H813 H 0.05082 0.57487 0.81535 0.0
H814 H 0.06025 0.55278 0.98732 0.0
H815 H 0.03183 0.56549 0.02277 0.0
C816 C 0.00648 0.648 0.10605 0.0
C817 C 0.99488 0.64818 0.15492 0.0
C818 C 0.00601 0.63402 0.06544 0.0
C819 C 0.99392 0.61982 0.0724 0.0
C820 C 0.98279 0.61955 0.12239 0.0
C821 C 0.98317 0.63364 0.16298 0.0
C822 C 0.99251 0.6059 0.02565 0.0
C823 C 0.00809 0.59721 0.00658 0.0
C824 C 0.97611 0.60183 0.99765 0.0
C825 C 0.95936 0.61134 0.01241 0.0
C826 C 0.94429 0.60169 0.03134 0.0
C827 C 0.92849 0.61064 0.04543 0.0
C828 C 0.92759 0.62923 0.04042 0.0
C829 C 0.94246 0.6389 0.02106 0.0
C830 C 0.95827 0.63002 0.00682 0.0
C831 C 0.99787 0.54016 0.83335 0.0
C832 C 0.9902 0.54611 0.78031 0.0
C833 C 0.99774 0.55108 0.88341 0.0
C834 C 0.99019 0.56828 0.88113 0.0
C835 C 0.98202 0.57393 0.82862 0.0
C836 C 0.98198 0.56296 0.77886 0.0
C837 C 0.99133 0.58071 0.93231 0.0
C838 C 0.9757 0.58913 0.95218 0.0
C839 C 0.00777 0.58493 0.95984 0.0
C840 C 0.02496 0.57748 0.93884 0.0
C841 C 0.03056 0.58018 0.88031 0.0
C842 C 0.04663 0.57286 0.86054 0.0
C843 C 0.0573 0.56296 0.89906 0.0
C844 C 0.05195 0.56042 0.9575 0.0
C845 C 0.03587 0.56769 0.97747 0.0
H846 H 0.06973 0.55729 0.88366 0.0
H847 H 0.91536 0.63613 0.0514 0.0
H848 H 0.02691 0.23063 0.38415 0.0
H849 H 0.02652 0.20483 0.4489 0.0
H850 H 0.0821 0.19505 0.41029 0.0
H851 H 0.08228 0.22073 0.34316 0.0
H852 H 0.06515 0.16801 0.38167 0.0
H853 H 0.06517 0.19966 0.55764 0.0
H854 H 0.05862 0.2223 0.63306 0.0
H855 H 0.00394 0.2052 0.63906 0.0
H856 H 0.01 0.18274 0.56269 0.0
H857 H 0.03525 0.08282 0.48837 0.0
H858 H 0.05199 0.11096 0.49489 0.0
H859 H 0.00349 0.14055 0.46676 0.0
H860 H 0.98671 0.11268 0.45915 0.0
H861 H 0.02705 0.15516 0.55551 0.0
H862 H 0.02848 0.13006 0.35474 0.0
H863 H 0.03665 0.10652 0.28401 0.0
H864 H 0.09175 0.11173 0.33282 0.0
H865 H 0.08383 0.13501 0.40499 0.0
C866 C 0.03927 0.22346 0.39134 0.0
C867 C 0.05456 0.22751 0.35802 0.0
C868 C 0.03908 0.20869 0.42889 0.0
C869 C 0.05428 0.19784 0.43463 0.0
C870 C 0.07017 0.20311 0.40636 0.0
C871 C 0.07027 0.21775 0.36797 0.0
C872 C 0.05222 0.17938 0.45802 0.0
C873 C 0.05736 0.16527 0.421 0.0
C874 C 0.04205 0.17556 0.50928 0.0
C875 C 0.03808 0.18947 0.55409 0.0
C876 C 0.0517 0.20083 0.57448 0.0
C877 C 0.04807 0.21364 0.61753 0.0
C878 C 0.03088 0.21519 0.64083 0.0
C879 C 0.01726 0.20398 0.62099 0.0
C880 C 0.02079 0.19119 0.57782 0.0
C881 C 0.02819 0.09533 0.48305 0.0
C882 C 0.0097 0.09555 0.47225 0.0
C883 C 0.03774 0.11131 0.4875 0.0
C884 C 0.02895 0.1277 0.48119 0.0
C885 C 0.01045 0.12798 0.47237 0.0
C886 C 1.00091 0.11206 0.46769 0.0
C887 C 0.03906 0.14458 0.4771 0.0
C888 C 0.03544 0.15816 0.51773 0.0
C889 C 0.05083 0.14794 0.42971 0.0
C890 C 0.05553 0.13405 0.38596 0.0
C891 C 0.04231 0.12604 0.35088 0.0
C892 C 0.0469 0.11276 0.31049 0.0
C893 C 0.0647 0.10758 0.3041 0.0
C894 C 0.07796 0.11574 0.33788 0.0
C895 C 0.07342 0.12893 0.37867 0.0
H896 H 0.06822 0.09728 0.27286 0.0
H897 H 0.02812 0.22507 0.6743 0.0
H898 H 0.25532 1.00155 0.41741 0.0
H899 H 0.2772 0.98813 0.48355 0.0
H900 H 0.30761 0.03712 0.4813 0.0
H901 H 0.28565 0.05065 0.41603 0.0
H902 H 0.30762 0.98354 0.43042 0.0
H903 H 0.33834 0.03837 0.58824 0.0
H904 H 0.32805 0.0581 0.66789 0.0
H905 H 0.28172 0.02516 0.69343 0.0
H906 H 0.29186 0.005 0.61469 0.0
H907 H 0.39852 0.99886 0.39897 0.0
H908 H 0.36611 1.00136 0.4117 0.0
H909 H 0.36993 0.97557 0.58152 0.0
H910 H 0.40238 0.9728 0.56844 0.0
H911 H 0.34936 0.00783 0.57929 0.0
H912 H 0.3522 0.95162 0.48439 0.0
H913 H 0.36253 0.92989 0.41054 0.0
H914 H 0.34001 0.96189 0.27214 0.0
H915 H 0.32978 0.98397 0.34505 0.0
C916 C 0.26615 0.00978 0.43357 0.0
C917 C 0.26906 0.027 0.41056 0.0
C918 C 0.27867 1.00206 0.47139 0.0
C919 C 0.29418 0.0115 0.48672 0.0
C920 C 0.29573 0.02956 0.47043 0.0
C921 C 0.28326 0.03725 0.43253 0.0
C922 C 0.31055 1.0017 0.50349 0.0
C923 C 0.31653 0.9885 0.46426 0.0
C924 C 0.32211 0.00787 0.54824 0.0
C925 C 0.31581 0.02022 0.59497 0.0
C926 C 0.32598 0.03526 0.61088 0.0
C927 C 0.32016 0.04655 0.65589 0.0
C928 C 0.30417 0.04296 0.68539 0.0
C929 C 0.29402 0.02802 0.67015 0.0
C930 C 0.29979 0.01667 0.62524 0.0
C931 C 0.39237 0.99361 0.43864 0.0
C932 C 0.40274 0.98547 0.48241 0.0
C933 C 0.37395 0.99499 0.44588 0.0
C934 C 0.36573 0.98847 0.49729 0.0
C935 C 0.37609 0.98052 0.54143 0.0
C936 C 0.3945 0.97887 0.53376 0.0
C937 C 0.34631 0.99053 0.50474 0.0
C938 C 0.34001 1.00232 0.54779 0.0
C939 C 0.33429 0.98279 0.46446 0.0
C940 C 0.34025 0.96948 0.42027 0.0
C941 C 0.34953 0.95408 0.43818 0.0
C942 C 0.35536 0.94169 0.39648 0.0
C943 C 0.35193 0.94451 0.33669 0.0
C944 C 0.34264 0.95972 0.31848 0.0
C945 C 0.33679 0.97216 0.36001 0.0
H946 H 0.35646 0.93491 0.30447 0.0
H947 H 0.29972 0.05168 0.72036 0.0
H948 H 0.5541 0.28933 0.33882 0.0
H949 H 0.55686 0.31023 0.4196 0.0
H950 H 0.51093 0.28648 0.50451 0.0
H951 H 0.50745 0.26617 0.42134 0.0
H952 H 0.50484 0.31906 0.49178 0.0
H953 H 0.55315 0.29026 0.5778 0.0
H954 H 0.58123 0.27339 0.58651 0.0
H955 H 0.61013 0.31726 0.50988 0.0
H956 H 0.58223 0.33432 0.49975 0.0
H957 H 0.5104 0.40713 0.59727 0.0
H958 H 0.51305 0.37488 0.61218 0.0
H959 H 0.55339 0.37287 0.47639 0.0
H960 H 0.5512 0.40515 0.46303 0.0
H961 H 0.55998 0.34834 0.56403 0.0
H962 H 0.50727 0.36758 0.44278 0.0
H963 H 0.47886 0.38409 0.43447 0.0
H964 H 0.45861 0.35674 0.58726 0.0
H965 H 0.48695 0.34013 0.59646 0.0
C966 C 0.54479 0.28831 0.37524 0.0
C967 C 0.5303 0.27641 0.37295 0.0
C968 C 0.54657 0.30009 0.42221 0.0
C969 C 0.53412 0.29998 0.46859 0.0
C970 C 0.5207 0.28685 0.46928 0.0
C971 C 0.51877 0.27518 0.42177 0.0
C972 C 0.53305 0.31573 0.50803 0.0
C973 C 0.51682 0.32509 0.50971 0.0
C974 C 0.54855 0.32371 0.5321 0.0
C975 C 0.56552 0.3136 0.53813 0.0
C976 C 0.56547 0.2963 0.56252 0.0
C977 C 0.58137 0.2867 0.56773 0.0
C978 C 0.59746 0.29425 0.54881 0.0
C979 C 0.59767 0.31144 0.52467 0.0
C980 C 0.5818 0.32111 0.51934 0.0
C981 C 0.52005 0.39981 0.57147 0.0
C982 C 0.53047 0.4086 0.52869 0.0
C983 C 0.5216 0.38142 0.58015 0.0
C984 C 0.53327 0.37145 0.54493 0.0
C985 C 0.54438 0.38033 0.50437 0.0
C986 C 0.54304 0.39876 0.49643 0.0
C987 C 0.53222 0.35173 0.54303 0.0
C988 C 0.54796 0.34176 0.54877 0.0
C989 C 0.51625 0.34301 0.5266 0.0
C990 C 0.49916 0.3527 0.52035 0.0
C991 C 0.49672 0.3651 0.47447 0.0
C992 C 0.48066 0.37446 0.46964 0.0
C993 C 0.46692 0.37141 0.51019 0.0
C994 C 0.46923 0.35902 0.55573 0.0
C995 C 0.48527 0.34962 0.56076 0.0
H996 H 0.45449 0.37866 0.50634 0.0
H997 H 0.60975 0.28679 0.55285 0.0
H998 H 0.23604 0.52624 0.42428 0.0
H999 H 0.21621 0.53977 0.49712 0.0
H1000 H 0.1793 0.49587 0.47593 0.0
H1001 H 0.19947 0.48196 0.40637 0.0
H1002 H 0.18752 0.55322 0.47015 0.0
H1003 H 0.14913 0.49099 0.57484 0.0
H1004 H 0.15645 0.46455 0.63488 0.0
H1005 H 0.20696 0.48778 0.68054 0.0
H1006 H 0.19985 0.51454 0.6217 0.0
H1007 H 0.09617 0.56027 0.44392 0.0
H1008 H 0.12822 0.55577 0.44745 0.0
H1009 H 0.1252 0.54677 0.63525 0.0
H1010 H 0.09287 0.54961 0.63106 0.0
H1011 H 0.14259 0.52208 0.59351 0.0
H1012 H 0.14906 0.5839 0.57003 0.0
H1013 H 0.14347 0.61414 0.53095 0.0
H1014 H 0.1615 0.59772 0.35993 0.0
H1015 H 0.16695 0.56731 0.39765 0.0
C1016 C 0.22408 0.5191 0.43734 0.0
C1017 C 0.2191 0.50322 0.40881 0.0
C1018 C 0.21267 0.52692 0.4787 0.0
C1019 C 0.19611 0.519 0.49193 0.0
C1020 C 0.19204 0.50224 0.46758 0.0
C1021 C 0.20349 0.49437 0.42691 0.0
C1022 C 0.18165 0.52942 0.5206 0.0
C1023 C 0.17795 0.54661 0.49873 0.0
C1024 C 0.16942 0.52128 0.55992 0.0
C1025 C 0.174 0.50478 0.59332 0.0
C1026 C 0.1618 0.49052 0.59772 0.0
C1027 C 0.16591 0.47545 0.63159 0.0
C1028 C 0.18219 0.47445 0.66131 0.0
C1029 C 0.1944 0.48852 0.65717 0.0
C1030 C 0.19035 0.50363 0.62344 0.0
C1031 C 0.1023 0.55744 0.48609 0.0
C1032 C 0.09185 0.55507 0.53697 0.0
C1033 C 0.12076 0.55521 0.4883 0.0
C1034 C 0.12926 0.5511 0.54177 0.0
C1035 C 0.11899 0.54995 0.59344 0.0
C1036 C 0.10046 0.55178 0.59103 0.0
C1037 C 0.14828 0.54553 0.54176 0.0
C1038 C 0.15263 0.52913 0.56807 0.0
C1039 C 0.16155 0.55497 0.50994 0.0
C1040 C 0.15841 0.57328 0.48677 0.0
C1041 C 0.15176 0.5867 0.52401 0.0
C1042 C 0.14862 0.60388 0.50209 0.0
C1043 C 0.15213 0.60784 0.443 0.0
C1044 C 0.15881 0.59464 0.40572 0.0
C1045 C 0.16197 0.57743 0.4274 0.0
H1046 H 0.14967 0.62115 0.42611 0.0
H1047 H 0.18532 0.46281 0.68771 0.0
H1048 H 0.97954 0.79171 0.94585 0.0
H1049 H 0.99063 0.81456 0.8787 0.0
H1050 H 0.04386 0.79308 0.89393 0.0
H1051 H 0.03279 0.77038 0.9626 0.0
H1052 H 0.04352 0.82521 0.93232 0.0
H1053 H 0.02559 0.80097 0.75324 0.0
H1054 H 0.00803 0.78591 0.67623 0.0
H1055 H 0.96748 0.82613 0.68953 0.0
H1056 H 0.98452 0.84115 0.76774 0.0
H1057 H 0.05343 0.91703 0.82507 0.0
H1058 H 0.05623 0.88439 0.82212 0.0
H1059 H 1.00118 0.87906 0.87477 0.0
H1060 H 0.99838 0.91141 0.87997 0.0
H1061 H 0.01309 0.85765 0.77063 0.0
H1062 H 0.02905 0.87388 0.97522 0.0
H1063 H 0.04816 0.88943 0.04714 0.0
H1064 H 0.0944 0.86321 0.97673 0.0
H1065 H 0.07554 0.84767 0.90388 0.0
C1066 C 0.99349 0.7915 0.93329 0.0
C1067 C 0.00538 0.77957 0.96035 0.0
C1068 C 0.99982 0.80444 0.89417 0.0
C1069 C 0.01814 0.80563 0.88136 0.0
C1070 C 0.02968 0.79241 0.90317 0.0
C1071 C 0.02333 0.77943 0.94237 0.0
C1072 C 0.02534 0.8228 0.85888 0.0
C1073 C 0.03734 0.83204 0.89539 0.0
C1074 C 0.01737 0.83184 0.81083 0.0
C1075 C 0.00644 0.82228 0.7663 0.0
C1076 C 0.01283 0.80651 0.7403 0.0
C1077 C 0.00296 0.79797 0.69634 0.0
C1078 C 0.98666 0.80507 0.6779 0.0
C1079 C 0.98012 0.82065 0.70373 0.0
C1080 C 0.9899 0.8292 0.74785 0.0
C1081 C 0.04201 0.9089 0.83692 0.0
C1082 C 0.02565 0.91683 0.85261 0.0
C1083 C 0.04358 0.89031 0.83441 0.0
C1084 C 0.0288 0.87947 0.84706 0.0
C1085 C 0.0126 0.8873 0.86349 0.0
C1086 C 0.01105 0.90578 0.86664 0.0
C1087 C 0.03007 0.85985 0.84637 0.0
C1088 C 0.01974 0.85038 0.80559 0.0
C1089 C 0.03969 0.85051 0.88994 0.0
C1090 C 0.05096 0.85984 0.93366 0.0
C1091 C 0.04332 0.87158 0.97474 0.0
C1092 C 0.05409 0.88035 0.01574 0.0
C1093 C 0.0725 0.87737 0.01635 0.0
C1094 C 0.08015 0.86555 0.97609 0.0
C1095 C 0.06943 0.85676 0.93495 0.0
H1096 H 0.08082 0.88417 0.04814 0.0
H1097 H 0.97911 0.79851 0.6436 0.0
H1098 H 0.73182 0.97993 0.93772 0.0
H1099 H 0.70827 0.9888 0.86997 0.0
H1100 H 0.67388 0.94794 0.94215 0.0
H1101 H 0.69781 0.93806 0.00681 0.0
H1102 H 0.6632 0.95601 0.83473 0.0
H1103 H 0.67924 0.98922 0.01151 0.0
H1104 H 0.70003 0.00633 0.07394 0.0
H1105 H 0.70702 0.04494 0.93536 0.0
H1106 H 0.68646 0.02786 0.8718 0.0
H1107 H 0.58231 0.9933 0.931 0.0
H1108 H 0.61277 0.98208 0.92456 0.0
H1109 H 0.62544 0.02216 0.79427 0.0
H1110 H 0.59461 0.03297 0.79777 0.0
H1111 H 0.64961 0.01764 0.90094 0.0
H1112 H 0.6237 0.98684 0.74121 0.0
H1113 H 0.601 0.96902 0.68901 0.0
H1114 H 0.61041 0.92494 0.80629 0.0
H1115 H 0.63291 0.94262 0.85975 0.0
C1116 C 0.71962 0.97216 0.93716 0.0
C1117 C 0.71645 0.95869 0.97938 0.0
C1118 C 0.70608 0.97739 0.89858 0.0
C1119 C 0.68909 0.96957 0.90295 0.0
C1120 C 0.68678 0.95443 0.93878 0.0
C1121 C 0.70043 0.94893 0.97636 0.0
C1122 C 0.67307 0.97905 0.88093 0.0
C1123 C 0.66024 0.96951 0.84881 0.0
C1124 C 0.66933 0.99683 0.8985 0.0
C1125 C 0.68153 0.00718 0.93675 0.0
C1126 C 0.68529 1.00132 0.99432 0.0
C1127 C 0.69703 0.01099 0.02987 0.0
C1128 C 0.70488 0.02669 0.00856 0.0
C1129 C 0.70097 0.03275 0.95172 0.0
C1130 C 0.68929 0.02308 0.9159 0.0
C1131 C 0.59146 0.99966 0.90046 0.0
C1132 C 0.58594 0.01401 0.86475 0.0
C1133 C 0.60886 0.99323 0.89692 0.0
C1134 C 0.62116 1.00117 0.85835 0.0
C1135 C 0.61601 0.01585 0.82401 0.0
C1136 C 0.59846 0.02212 0.8267 0.0
C1137 C 0.63959 0.99437 0.85658 0.0
C1138 C 0.65279 0.00439 0.88482 0.0
C1139 C 0.64345 0.97693 0.83662 0.0
C1140 C 0.62998 0.96613 0.80454 0.0
C1141 C 0.62085 0.97339 0.756 0.0
C1142 C 0.60803 0.96331 0.72618 0.0
C1143 C 0.60428 0.94586 0.7443 0.0
C1144 C 0.61335 0.93846 0.79225 0.0
C1145 C 0.62616 0.94851 0.82228 0.0
H1146 H 0.59435 0.93806 0.7212 0.0
H1147 H 0.71396 0.03417 0.03615 0.0
H1148 H 0.52756 0.74619 0.93443 0.0
H1149 H 0.51866 0.72292 0.86586 0.0
H1150 H 0.56365 0.69097 0.91946 0.0
H1151 H 0.57308 0.71452 0.9868 0.0
H1152 H 0.55167 0.68279 0.80446 0.0
H1153 H 0.52864 0.68989 0.00383 0.0
H1154 H 0.51445 0.70731 0.08303 0.0
H1155 H 0.46794 0.71483 0.97543 0.0
H1156 H 0.48206 0.69773 0.89508 0.0
H1157 H 0.52448 0.59529 0.87823 0.0
H1158 H 0.5349 0.62617 0.87497 0.0
H1159 H 0.48504 0.64251 0.79738 0.0
H1160 H 0.47486 0.61135 0.79706 0.0
H1161 H 0.49607 0.66142 0.90125 0.0
H1162 H 0.51791 0.64508 0.71329 0.0
H1163 H 0.53347 0.62661 0.64 0.0
H1164 H 0.58313 0.63491 0.72953 0.0
H1165 H 0.56785 0.65298 0.80475 0.0
C1166 C 0.53616 0.73468 0.92944 0.0
C1167 C 0.55075 0.73194 0.96733 0.0
C1168 C 0.53098 0.72134 0.89023 0.0
C1169 C 0.54021 0.70507 0.889 0.0
C1170 C 0.55625 0.70339 0.92024 0.0
C1171 C 0.56152 0.71679 0.95918 0.0
C1172 C 0.53118 0.68874 0.86787 0.0
C1173 C 0.53947 0.6781 0.82516 0.0
C1174 C 0.51513 0.6828 0.89465 0.0
C1175 C 0.50648 0.69276 0.94325 0.0
C1176 C 0.51544 0.69536 0.99696 0.0
C1177 C 0.50741 0.70517 0.04203 0.0
C1178 C 0.49032 0.71221 0.03421 0.0
C1179 C 0.4812 0.70941 0.98135 0.0
C1180 C 0.48921 0.69968 0.936 0.0
C1181 C 0.51588 0.60535 0.85913 0.0
C1182 C 0.4989 0.60083 0.8374 0.0
C1183 C 0.52184 0.62298 0.85741 0.0
C1184 C 0.51083 0.63648 0.83493 0.0
C1185 C 0.49376 0.63216 0.81417 0.0
C1186 C 0.4879 0.61443 0.8148 0.0
C1187 C 0.51671 0.65525 0.83852 0.0
C1188 C 0.50791 0.6663 0.87869 0.0
C1189 C 0.53239 0.66134 0.80997 0.0
C1190 C 0.54167 0.65035 0.76502 0.0
C1191 C 0.53211 0.64283 0.71785 0.0
C1192 C 0.54089 0.63245 0.67582 0.0
C1193 C 0.55926 0.62963 0.67994 0.0
C1194 C 0.5689 0.63715 0.72629 0.0
C1195 C 0.56018 0.64744 0.76874 0.0
H1196 H 0.56602 0.6216 0.64725 0.0
H1197 H 0.48412 0.7198 0.06916 0.0
H1198 H 0.76719 0.45473 0.92229 0.0
H1199 H 0.79071 0.44728 0.85105 0.0
H1200 H 0.83039 0.45347 0.98702 0.0
H1201 H 0.80734 0.46157 0.05707 0.0
H1202 H 0.84017 0.47076 0.89075 0.0
H1203 H 0.81625 0.4122 0.94034 0.0
H1204 H 0.79248 0.38944 0.94716 0.0
H1205 H 0.78465 0.39236 0.76001 0.0
H1206 H 0.80825 0.4153 0.75223 0.0
H1207 H 0.91358 0.41794 0.84604 0.0
H1208 H 0.8813 0.4157 0.85857 0.0
H1209 H 0.87349 0.44831 0.70404 0.0
H1210 H 0.90566 0.45129 0.69243 0.0
H1211 H 0.84467 0.41265 0.78686 0.0
H1212 H 0.86588 0.47998 0.75588 0.0
H1213 H 0.89357 0.49805 0.75673 0.0
H1214 H 0.90891 0.47401 0.92083 0.0
H1215 H 0.88158 0.45551 0.92016 0.0
C1216 C 0.78094 0.4545 0.93684 0.0
C1217 C 0.78535 0.45861 0.99553 0.0
C1218 C 0.79433 0.45015 0.89622 0.0
C1219 C 0.81228 0.44982 0.91382 0.0
C1220 C 0.81663 0.4537 0.97243 0.0
C1221 C 0.80336 0.45809 0.01272 0.0
C1222 C 0.82687 0.44581 0.87187 0.0
C1223 C 0.84088 0.45821 0.86707 0.0
C1224 C 0.82794 0.42941 0.8411 0.0
C1225 C 0.81383 0.41561 0.84581 0.0
C1226 C 0.80935 0.40809 0.90073 0.0
C1227 C 0.79593 0.39514 0.90475 0.0
C1228 C 0.78701 0.3895 0.85408 0.0
C1229 C 0.79154 0.39676 0.79924 0.0
C1230 C 0.80493 0.40973 0.79499 0.0
C1231 C 0.90499 0.42412 0.81351 0.0
C1232 C 0.91216 0.43527 0.76946 0.0
C1233 C 0.88654 0.42255 0.82012 0.0
C1234 C 0.8751 0.43205 0.78264 0.0
C1235 C 0.88217 0.44086 0.73327 0.0
C1236 C 0.90062 0.4426 0.7269 0.0
C1237 C 0.85764 0.43761 0.80616 0.0
C1238 C 0.84336 0.42553 0.80818 0.0
C1239 C 0.85626 0.45421 0.83511 0.0
C1240 C 0.87168 0.46656 0.83827 0.0
C1241 C 0.87507 0.47877 0.79248 0.0
C1242 C 0.89073 0.48897 0.79271 0.0
C1243 C 0.90289 0.48728 0.83898 0.0
C1244 C 0.89943 0.47539 0.88518 0.0
C1245 C 0.88389 0.46502 0.88487 0.0
H1246 H 0.91503 0.49513 0.83889 0.0
H1247 H 0.77663 0.37948 0.85728 0.0
H1248 H 0.99691 0.21574 0.8247 0.0
H1249 H 0.9924 0.18732 0.77307 0.0
H1250 H 0.03064 0.16201 0.88772 0.0
H1251 H 0.03494 0.18996 0.93992 0.0
H1252 H 0.03585 0.15228 0.77341 0.0
H1253 H 0.98629 0.157 0.91039 0.0
H1254 H 0.95962 0.17131 0.95291 0.0
H1255 H 0.93335 0.16881 0.78512 0.0
H1256 H 0.95999 0.15469 0.74142 0.0
H1257 H 0.01786 0.05981 0.77608 0.0
H1258 H 0.02065 0.09134 0.80203 0.0
H1259 H 0.98344 0.10537 0.6649 0.0
H1260 H 0.98062 0.07381 0.63818 0.0
H1261 H 0.97656 0.12266 0.77369 0.0
H1262 H 0.02459 0.11373 0.64045 0.0
H1263 H 0.05075 0.09805 0.60024 0.0
H1264 H 0.07998 0.10857 0.7588 0.0
H1265 H 0.05376 0.12373 0.80113 0.0
C1266 C 0.00432 0.20412 0.83905 0.0
C1267 C 0.0164 0.2053 0.8864 0.0
C1268 C 1.00176 0.18787 0.80933 0.0
C1269 C 0.01118 0.17247 0.82651 0.0
C1270 C 0.02335 0.1737 0.87319 0.0
C1271 C 0.02585 0.18981 0.9029 0.0
C1272 C 0.00817 0.15485 0.79765 0.0
C1273 C 0.02289 0.14579 0.77366 0.0
C1274 C 0.99118 0.14653 0.79627 0.0
C1275 C 0.9752 0.15502 0.82248 0.0
C1276 C 0.97489 0.15965 0.88245 0.0
C1277 C 0.95977 0.1677 0.90679 0.0
C1278 C 0.94482 0.17102 0.87169 0.0
C1279 C 0.94495 0.16626 0.81222 0.0
C1280 C 0.96005 0.15824 0.78765 0.0
C1281 C 0.01022 0.06955 0.75139 0.0
C1282 C 0.99902 0.06419 0.70498 0.0
C1283 C 0.01188 0.08761 0.76619 0.0
C1284 C 1.00232 0.10075 0.73523 0.0
C1285 C 0.99093 0.09547 0.68942 0.0
C1286 C 0.9894 0.07741 0.67412 0.0
C1287 C 0.00434 0.11993 0.75113 0.0
C1288 C 0.98946 0.12927 0.77253 0.0
C1289 C 0.02117 0.12854 0.74999 0.0
C1290 C 0.03713 0.11975 0.72423 0.0
C1291 C 0.03654 0.11258 0.66703 0.0
C1292 C 0.05139 0.1038 0.64378 0.0
C1293 C 0.06703 0.10237 0.6768 0.0
C1294 C 0.06785 0.1097 0.73325 0.0
C1295 C 0.05298 0.11836 0.75697 0.0
H1296 H 0.07852 0.09556 0.65868 0.0
H1297 H 0.93312 0.17724 0.89062 0.0
H1298 H 0.2882 0.01963 0.83421 0.0
H1299 H 0.31635 0.01943 0.77835 0.0
H1300 H 0.34592 0.02295 0.94064 0.0
H1301 H 0.31815 0.02359 0.99612 0.0
H1302 H 0.35977 0.04497 0.86137 0.0
H1303 H 0.33973 0.98188 0.85771 0.0
H1304 H 0.31775 0.95868 0.83088 0.0
H1305 H 0.3203 0.97544 0.64983 0.0
H1306 H 0.3422 0.99876 0.67612 0.0
H1307 H 0.44699 0.01753 0.80802 0.0
H1308 H 0.41609 0.0205 0.83981 0.0
H1309 H 0.39817 0.00953 0.66297 0.0
H1310 H 0.42924 0.00566 0.6315 0.0
H1311 H 0.37629 0.9943 0.73231 0.0
H1312 H 0.39814 0.05343 0.72622 0.0
H1313 H 0.41867 0.07862 0.74389 0.0
H1314 H 0.41078 0.07313 0.93048 0.0
H1315 H 0.39039 0.04775 0.914 0.0
C1316 C 0.30071 0.02049 0.85788 0.0
C1317 C 0.30085 0.02136 0.91987 0.0
C1318 C 0.31681 0.02027 0.82588 0.0
C1319 C 0.33336 0.02099 0.85515 0.0
C1320 C 0.33342 0.0223 0.9168 0.0
C1321 C 0.31745 0.02248 0.94862 0.0
C1322 C 0.35077 0.02035 0.82281 0.0
C1323 C 0.36343 0.03381 0.83357 0.0
C1324 C 0.35535 0.00633 0.78393 0.0
C1325 C 0.34251 0.99205 0.76868 0.0
C1326 C 0.33557 0.98059 0.81224 0.0
C1327 C 0.32313 0.96744 0.79719 0.0
C1328 C 0.31762 0.96558 0.7387 0.0
C1329 C 0.32458 0.97685 0.69511 0.0
C1330 C 0.33702 0.99 0.71001 0.0
C1331 C 0.43651 0.01579 0.77575 0.0
C1332 C 0.44067 0.01153 0.71706 0.0
C1333 C 0.41875 0.01762 0.79393 0.0
C1334 C 0.40461 0.01578 0.75362 0.0
C1335 C 0.40872 0.01118 0.69507 0.0
C1336 C 0.42654 0.00899 0.67705 0.0
C1337 C 0.38568 0.0185 0.77333 0.0
C1338 C 0.37269 0.00555 0.75983 0.0
C1339 C 0.38062 0.03327 0.80861 0.0
C1340 C 0.39282 0.0486 0.81885 0.0
C1341 C 0.40087 0.05752 0.77104 0.0
C1342 C 0.41247 0.07184 0.78085 0.0
C1343 C 0.41605 0.07745 0.83827 0.0
C1344 C 0.408 0.06877 0.88602 0.0
C1345 C 0.3964 0.05443 0.87647 0.0
H1346 H 0.42504 0.08854 0.84577 0.0
H1347 H 0.30797 0.95542 0.72716 0.0
H1348 H 0.51881 0.3032 0.84395 0.0
H1349 H 0.5182 0.33263 0.79689 0.0
H1350 H 0.46685 0.34302 0.87548 0.0
H1351 H 0.46734 0.31351 0.92244 0.0
H1352 H 0.46844 0.35673 0.76468 0.0
H1353 H 0.5056 0.35853 0.93829 0.0
H1354 H 0.5304 0.34875 1.00197 0.0
H1355 H 0.56791 0.36083 0.86424 0.0
H1356 H 0.5433 0.37044 0.79943 0.0
H1357 H 0.47042 0.45253 0.76876 0.0
H1358 H 0.46985 0.42086 0.79744 0.0
H1359 H 0.51842 0.41201 0.70007 0.0
H1360 H 0.51851 0.44338 0.6684 0.0
H1361 H 0.51878 0.39713 0.81414 0.0
H1362 H 0.48239 0.39697 0.64266 0.0
H1363 H 0.45806 0.40719 0.57805 0.0
H1364 H 0.41948 0.39183 0.7089 0.0
H1365 H 0.44367 0.38202 0.7751 0.0
C1366 C 0.50729 0.31167 0.85082 0.0
C1367 C 0.4932 0.30601 0.88754 0.0
C1368 C 0.50697 0.32854 0.82389 0.0
C1369 C 0.49265 0.34027 0.83353 0.0
C1370 C 0.47809 0.33428 0.86743 0.0
C1371 C 0.47836 0.31734 0.89416 0.0
C1372 C 0.49333 0.3591 0.81135 0.0
C1373 C 0.47935 0.3656 0.77609 0.0
C1374 C 0.50778 0.37066 0.82477 0.0
C1375 C 0.5226 0.36504 0.86385 0.0
C1376 C 0.51913 0.35899 0.92147 0.0
C1377 C 0.53315 0.35348 0.95777 0.0
C1378 C 0.55072 0.35412 0.93711 0.0
C1379 C 0.5543 0.36031 0.88015 0.0
C1380 C 0.54032 0.3658 0.84363 0.0
C1381 C 0.4809 0.44379 0.75312 0.0
C1382 C 0.49446 0.45044 0.71616 0.0
C1383 C 0.48053 0.42569 0.76938 0.0
C1384 C 0.49398 0.41398 0.75025 0.0
C1385 C 0.50778 0.42072 0.71459 0.0
C1386 C 0.50781 0.43865 0.69664 0.0
C1387 C 0.49379 0.39479 0.76824 0.0
C1388 C 0.50789 0.38824 0.80263 0.0
C1389 C 0.47949 0.38321 0.75387 0.0
C1390 C 0.46488 0.389 0.71418 0.0
C1391 C 0.46875 0.396 0.658 0.0
C1392 C 0.45497 0.4017 0.62105 0.0
C1393 C 0.43723 0.40019 0.63938 0.0
C1394 C 0.43323 0.39301 0.69478 0.0
C1395 C 0.44698 0.38741 0.73209 0.0
H1396 H 0.42657 0.40455 0.61062 0.0
H1397 H 0.56155 0.34986 0.96528 0.0
H1398 H 0.20512 0.4958 0.83025 0.0
H1399 H 0.17664 0.49578 0.77596 0.0
H1400 H 0.14789 0.49166 0.94016 0.0
H1401 H 0.17603 0.4917 0.99406 0.0
H1402 H 0.13441 0.46899 0.854 0.0
H1403 H 0.14981 0.53333 0.87307 0.0
H1404 H 0.1709 0.55836 0.85784 0.0
H1405 H 0.1742 0.5458 0.67361 0.0
H1406 H 0.15329 0.52056 0.6888 0.0
H1407 H 0.04671 0.497 0.81246 0.0
H1408 H 0.07776 0.49423 0.84271 0.0
H1409 H 0.09501 0.50763 0.66659 0.0
H1410 H 0.06378 0.51098 0.63629 0.0
H1411 H 0.11638 0.52315 0.74246 0.0
H1412 H 0.0957 0.46363 0.71883 0.0
H1413 H 0.07544 0.43786 0.73054 0.0
H1414 H 0.08368 0.43855 0.91767 0.0
H1415 H 0.1038 0.46448 0.9072 0.0
C1416 C 0.1927 0.49473 0.85449 0.0
C1417 C 0.19278 0.49395 0.9164 0.0
C1418 C 0.17646 0.4948 0.82355 0.0
C1419 C 0.16011 0.49385 0.85406 0.0
C1420 C 0.16029 0.49242 0.91565 0.0
C1421 C 0.1764 0.49255 0.94642 0.0
C1422 C 0.14265 0.49489 0.82298 0.0
C1423 C 0.13041 0.48084 0.82979 0.0
C1424 C 0.13761 0.51008 0.78985 0.0
C1425 C 0.14994 0.5253 0.78152 0.0
C1426 C 0.15504 0.53599 0.82937 0.0
C1427 C 0.16697 0.55015 0.82089 0.0
C1428 C 0.17384 0.55372 0.76474 0.0
C1429 C 0.16881 0.54311 0.71701 0.0
C1430 C 0.1569 0.52894 0.72544 0.0
C1431 C 0.05706 0.49936 0.78 0.0
C1432 C 0.05269 0.50398 0.7217 0.0
C1433 C 0.07488 0.49767 0.79734 0.0
C1434 C 0.08883 0.50023 0.75665 0.0
C1435 C 0.08454 0.50539 0.69875 0.0
C1436 C 0.06665 0.50725 0.68144 0.0
C1437 C 0.10777 0.49743 0.77515 0.0
C1438 C 0.12033 0.51115 0.76596 0.0
C1439 C 0.11316 0.48178 0.8057 0.0
C1440 C 0.10117 0.46608 0.81223 0.0
C1441 C 0.09311 0.45835 0.76252 0.0
C1442 C 0.08166 0.44371 0.76893 0.0
C1443 C 0.07825 0.43659 0.82482 0.0
C1444 C 0.08633 0.44408 0.8744 0.0
C1445 C 0.09778 0.45874 0.86825 0.0
H1446 H 0.06938 0.42526 0.82969 0.0
H1447 H 0.18309 0.56467 0.75826 0.0
H1448 H 0.97078 0.82153 0.3652 0.0
H1449 H 0.97297 0.85086 0.40982 0.0
H1450 H 0.99913 0.82796 0.56127 0.0
H1451 H 0.99626 0.7981 0.51768 0.0
H1452 H 0.97628 0.85382 0.59512 0.0
H1453 H 0.0233 0.8498 0.45544 0.0
H1454 H 0.03753 0.84359 0.35971 0.0
H1455 H 0.00519 0.8838 0.2773 0.0
H1456 H 0.99056 0.89008 0.3724 0.0
H1457 H 0.00291 0.94179 0.68663 0.0
H1458 H 0.00261 0.91041 0.65736 0.0
H1459 H 0.97721 0.9248 0.49353 0.0
H1460 H 0.97795 0.95623 0.52173 0.0
H1461 H 0.00291 0.9021 0.47294 0.0
H1462 H 0.95454 0.90421 0.61623 0.0
H1463 H 0.94207 0.91052 0.71464 0.0
H1464 H 0.97925 0.87392 0.79291 0.0
H1465 H 0.99209 0.8676 0.69492 0.0
C1466 C 0.97668 0.82252 0.40856 0.0
C1467 C 0.98328 0.80726 0.43771 0.0
C1468 C 0.97815 0.83946 0.43376 0.0
C1469 C 0.98654 0.84178 0.48847 0.0
C1470 C 0.99273 0.82658 0.51876 0.0
C1471 C 0.9912 0.80951 0.49354 0.0
C1472 C 0.98906 0.86017 0.51258 0.0
C1473 C 0.98233 0.86432 0.5687 0.0
C1474 C 0.99692 0.87398 0.47835 0.0
C1475 C 0.00573 0.87031 0.42102 0.0
C1476 C 0.01913 0.85723 0.41683 0.0
C1477 C 0.02728 0.85371 0.36269 0.0
C1478 C 0.02224 0.86327 0.31244 0.0
C1479 C 0.00907 0.8764 0.31626 0.0
C1480 C 1.00085 0.87996 0.37029 0.0
C1481 C 0.99714 0.9383 0.64449 0.0
C1482 C 0.9904 0.95162 0.60663 0.0
C1483 C 0.99692 0.92027 0.62787 0.0
C1484 C 0.98968 0.91508 0.5734 0.0
C1485 C 0.98288 0.92837 0.53575 0.0
C1486 C 0.98326 0.9464 0.55205 0.0
C1487 C 0.98952 0.89594 0.55452 0.0
C1488 C 0.99685 0.89162 0.49941 0.0
C1489 C 0.98238 0.882 0.58996 0.0
C1490 C 0.97436 0.88553 0.64846 0.0
C1491 C 0.9601 0.89757 0.65449 0.0
C1492 C 0.95298 0.90116 0.71017 0.0
C1493 C 0.95992 0.89268 0.76004 0.0
C1494 C 0.97394 0.88053 0.7543 0.0
C1495 C 0.98112 0.87691 0.69874 0.0
H1496 H 0.95441 0.89548 0.80311 0.0
H1497 H 0.02857 0.86053 0.27055 0.0
H1498 H 0.70506 0.00986 0.50665 0.0
H1499 H 0.67524 0.01407 0.54997 0.0
H1500 H 0.65416 0.97342 0.43529 0.0
H1501 H 0.68353 0.96939 0.39156 0.0
H1502 H 0.63405 0.00342 0.433 0.0
H1503 H 0.66123 0.96573 0.58345 0.0
H1504 H 0.68318 0.95816 0.66043 0.0
H1505 H 0.66917 0.00551 0.75592 0.0
H1506 H 0.64723 0.01344 0.67929 0.0
H1507 H 0.54782 0.98487 0.53616 0.0
H1508 H 0.57908 0.98361 0.50629 0.0
H1509 H 0.59351 0.01681 0.65392 0.0
H1510 H 0.56233 0.01724 0.68578 0.0
H1511 H 0.61797 0.99484 0.64284 0.0
H1512 H 0.59039 0.03238 0.50204 0.0
H1513 H 0.56879 0.04232 0.42691 0.0
H1514 H 0.58407 0.99882 0.31507 0.0
H1515 H 0.60556 0.98843 0.38984 0.0
C1516 C 0.69407 1.00179 0.49088 0.0
C1517 C 0.69681 0.98916 0.4459 0.0
C1518 C 0.67704 0.00412 0.51597 0.0
C1519 C 0.66241 0.99397 0.49623 0.0
C1520 C 0.66519 0.98137 0.45154 0.0
C1521 C 0.6821 0.97897 0.42686 0.0
C1522 C 0.64396 0.99684 0.51927 0.0
C1523 C 0.6305 1.00131 0.47885 0.0
C1524 C 0.6394 0.99498 0.57956 0.0
C1525 C 0.65281 0.99034 0.62507 0.0
C1526 C 0.66298 0.97464 0.62049 0.0
C1527 C 0.67537 0.97025 0.66419 0.0
C1528 C 0.67765 0.9814 0.71284 0.0
C1529 C 0.66747 0.99693 0.71806 0.0
C1530 C 0.65505 1.00138 0.67452 0.0
C1531 C 0.55765 0.99188 0.56234 0.0
C1532 C 0.5525 1.00127 0.61309 0.0
C1533 C 0.57558 0.9913 0.5449 0.0
C1534 C 0.58878 1.00059 0.57659 0.0
C1535 C 0.58369 0.00964 0.62816 0.0
C1536 C 0.56579 0.0099 0.64636 0.0
C1537 C 0.60785 1.00061 0.55626 0.0
C1538 C 0.62146 0.9969 0.59709 0.0
C1539 C 0.61264 0.00351 0.4965 0.0
C1540 C 0.59951 0.00955 0.45178 0.0
C1541 C 0.58904 0.02484 0.46165 0.0
C1542 C 0.57683 0.03057 0.4191 0.0
C1543 C 0.57508 0.0212 0.3663 0.0
C1544 C 0.58546 0.00605 0.356 0.0
C1545 C 0.59766 1.00025 0.39843 0.0
H1546 H 0.56574 0.02572 0.33323 0.0
H1547 H 0.68724 0.97797 0.74663 0.0
H1548 H 0.54212 0.70769 0.4927 0.0
H1549 H 0.53822 0.67808 0.53682 0.0
H1550 H 0.48657 0.67352 0.45478 0.0
H1551 H 0.49039 0.70313 0.41036 0.0
H1552 H 0.48647 0.65859 0.56544 0.0
H1553 H 0.52325 0.65551 0.38974 0.0
H1554 H 0.54913 0.6638 0.32806 0.0
H1555 H 0.58478 0.64602 0.46403 0.0
H1556 H 0.55909 0.63786 0.52685 0.0
H1557 H 0.50635 0.55751 0.50897 0.0
H1558 H 0.50855 0.58905 0.48218 0.0
H1559 H 0.5038 0.60364 0.66523 0.0
H1560 H 0.50109 0.57208 0.69216 0.0
H1561 H 0.53188 0.61394 0.50629 0.0
H1562 H 0.48357 0.64522 0.67517 0.0
H1563 H 0.45693 0.63699 0.73332 0.0
H1564 H 0.44296 0.59739 0.60501 0.0
H1565 H 0.46921 0.60572 0.54525 0.0
C1566 C 0.52984 0.70048 0.48447 0.0
C1567 C 0.51665 0.70777 0.44734 0.0
C1568 C 0.52762 0.68353 0.50981 0.0
C1569 C 0.51223 0.67338 0.49833 0.0
C1570 C 0.49858 0.68105 0.46428 0.0
C1571 C 0.50076 0.69804 0.43901 0.0
C1572 C 0.51096 0.65434 0.51789 0.0
C1573 C 0.49645 0.64884 0.55283 0.0
C1574 C 0.52385 0.64151 0.50108 0.0
C1575 C 0.53927 0.64622 0.46311 0.0
C1576 C 0.53662 0.65347 0.40657 0.0
C1577 C 0.55124 0.65813 0.37142 0.0
C1578 C 0.56859 0.65547 0.39216 0.0
C1579 C 0.57134 0.64809 0.44805 0.0
C1580 C 0.55676 0.64343 0.48343 0.0
C1581 C 0.50574 0.56739 0.54362 0.0
C1582 C 0.50348 0.56218 0.60276 0.0
C1583 C 0.50705 0.58548 0.52821 0.0
C1584 C 0.50614 0.59884 0.57145 0.0
C1585 C 0.50419 0.59367 0.63076 0.0
C1586 C 0.50275 0.57556 0.64617 0.0
C1587 C 0.50738 0.61809 0.55403 0.0
C1588 C 0.52192 0.62366 0.51938 0.0
C1589 C 0.49447 0.63092 0.57104 0.0
C1590 C 0.47848 0.62597 0.60611 0.0
C1591 C 0.47476 0.63482 0.65922 0.0
C1592 C 0.45972 0.63015 0.69242 0.0
C1593 C 0.44833 0.6166 0.67308 0.0
C1594 C 0.45185 0.60782 0.62013 0.0
C1595 C 0.46679 0.61253 0.58651 0.0
H1596 H 0.43675 0.61295 0.69901 0.0
H1597 H 0.5799 0.65909 0.36489 0.0
H1598 H 0.80909 0.53587 0.36979 0.0
H1599 H 0.8386 0.53637 0.41568 0.0
H1600 H 0.82088 0.49801 0.54531 0.0
H1601 H 0.79121 0.49755 0.49983 0.0
H1602 H 0.84324 0.5248 0.59262 0.0
H1603 H 0.84291 0.48322 0.43188 0.0
H1604 H 0.83777 0.47375 0.32938 0.0
H1605 H 0.87516 0.51316 0.26779 0.0
H1606 H 0.88032 0.52306 0.36993 0.0
H1607 H 0.93084 0.49518 0.67881 0.0
H1608 H 0.8996 0.49685 0.64727 0.0
H1609 H 0.91504 0.53003 0.50004 0.0
H1610 H 0.94618 0.52812 0.53031 0.0
H1611 H 0.8931 0.50519 0.46444 0.0
H1612 H 0.89477 0.54598 0.62564 0.0
H1613 H 0.89912 0.55647 0.72734 0.0
H1614 H 0.85868 0.52017 0.78852 0.0
H1615 H 0.85452 0.50898 0.68748 0.0
C1616 C 0.8113 0.52788 0.40895 0.0
C1617 C 0.79778 0.51663 0.43102 0.0
C1618 C 0.82825 0.52806 0.43484 0.0
C1619 C 0.83203 0.51704 0.48347 0.0
C1620 C 0.81829 0.50656 0.50771 0.0
C1621 C 0.80137 0.50626 0.48152 0.0
C1622 C 0.85059 0.51559 0.50639 0.0
C1623 C 0.85415 0.52029 0.56501 0.0
C1624 C 0.86485 0.51001 0.46992 0.0
C1625 C 0.86186 0.504 0.4085 0.0
C1626 C 0.84993 0.48997 0.39644 0.0
C1627 C 0.84702 0.4845 0.33841 0.0
C1628 C 0.85609 0.49288 0.29208 0.0
C1629 C 0.86812 0.5067 0.30371 0.0
C1630 C 0.87105 0.51224 0.36167 0.0
C1631 C 0.92757 0.50291 0.63986 0.0
C1632 C 0.94108 0.51152 0.6071 0.0
C1633 C 0.90967 0.50392 0.62206 0.0
C1634 C 0.90487 0.51374 0.57157 0.0
C1635 C 0.91835 0.52237 0.5391 0.0
C1636 C 0.9362 0.52128 0.55657 0.0
C1637 C 0.88597 0.51461 0.55092 0.0
C1638 C 0.88228 0.5097 0.49249 0.0
C1639 C 0.87166 0.52006 0.58773 0.0
C1640 C 0.87454 0.52642 0.64891 0.0
C1641 C 0.88701 0.54 0.66085 0.0
C1642 C 0.88942 0.5461 0.71843 0.0
C1643 C 0.87923 0.53894 0.7644 0.0
C1644 C 0.86658 0.52569 0.75287 0.0
C1645 C 0.86425 0.5194 0.69548 0.0
H1646 H 0.88109 0.54371 0.80893 0.0
H1647 H 0.85383 0.48862 0.24719 0.0
loop_
_geom_bond_atom_site_label_1
_geom_bond_atom_site_label_2
_geom_bond_distance
_geom_bond_site_symmetry_2
_ccdc_geom_bond_type
C0 C1 1.384 . S
C0 H13 0.947 . S
C0 C35 1.382 . S
C1 C0 1.384 . S
C1 C2 1.378 . S
C2 C1 1.378 . S
C2 C3 1.378 . S
C2 H14 0.952 . S
C3 C2 1.378 . S
C3 H15 0.950 . S
C3 C34 1.383 . S
H4 C23 0.947 . S
H5 C24 0.946 . S
H6 C26 0.953 . S
H7 C27 0.945 . S
H8 C29 0.952 . S
H9 C30 0.949 . S
H10 C32 0.950 . S
H11 C33 0.948 . S
H12 C35 0.951 . S
H13 C0 0.947 . S
H14 C2 0.952 . S
H15 C3 0.950 . S
N16 C19 1.382 . S
N16 C21 1.363 . S
N17 C19 1.371 . S
N17 C20 1.372 . S
N18 C20 1.361 . S
N18 C21 1.377 . S
C19 N16 1.382 . S
C19 N17 1.371 . S
C19 C22 1.480 . S
C20 N17 1.372 . S
C20 N18 1.361 . S
C20 C28 1.457 . S
C21 N16 1.363 . S
C21 N18 1.377 . S
C21 C34 1.479 . S
C22 C19 1.480 . S
C22 C23 1.383 . S
C22 C27 1.385 . S
C23 H4 0.947 . S
C23 C22 1.383 . S
C23 C24 1.388 . S
C24 H5 0.946 . S
C24 C23 1.388 . S
C24 C25 1.384 . S
C25 C24 1.384 . S
C25 C26 1.377 . S
C26 H6 0.953 . S
C26 C25 1.377 . S
C26 C27 1.369 . S
C27 H7 0.945 . S
C27 C22 1.385 . S
C27 C26 1.369 . S
C28 C20 1.457 . S
C28 C29 1.372 . S
C28 C33 1.364 . S
C29 H8 0.952 . S
C29 C28 1.372 . S
C29 C30 1.389 . S
C30 H9 0.949 . S
C30 C29 1.389 . S
C30 C31 1.387 . S
C31 C30 1.387 . S
C31 C32 1.372 . S
C32 H10 0.950 . S
C32 C31 1.372 . S
C32 C33 1.379 . S
C33 H11 0.948 . S
C33 C28 1.364 . S
C33 C32 1.379 . S
C34 C3 1.383 . S
C34 C21 1.479 . S
C34 C35 1.398 . S
C35 C0 1.382 . S
C35 H12 0.951 . S
C35 C34 1.398 . S
C36 C37 1.381 1_655 S
C36 H49 0.948 . S
C36 C71 1.382 1_655 S
C37 C36 1.381 1_455 S
C37 C38 1.388 . S
C38 C37 1.388 . S
C38 C39 1.378 . S
C38 H50 0.952 . S
C39 C38 1.378 . S
C39 H51 0.950 . S
C39 C70 1.383 . S
H40 C59 0.947 . S
H41 C60 0.952 . S
H42 C62 0.953 . S
H43 C63 0.945 . S
H44 C65 0.949 1_655 S
H45 C66 0.956 . S
H46 C68 0.950 . S
H47 C69 0.948 . S
H48 C71 0.952 1_655 S
H49 C36 0.948 . S
H50 C38 0.952 . S
H51 C39 0.950 . S
N52 C55 1.382 . S
N52 C57 1.363 . S
N53 C55 1.371 . S
N53 C56 1.372 . S
N54 C56 1.361 . S
N54 C57 1.377 . S
C55 N52 1.382 . S
C55 N53 1.371 . S
C55 C58 1.480 . S
C56 N53 1.372 . S
C56 N54 1.361 . S
C56 C64 1.457 . S
C57 N52 1.363 . S
C57 N54 1.377 . S
C57 C70 1.479 . S
C58 C55 1.480 . S
C58 C59 1.383 . S
C58 C63 1.385 . S
C59 H40 0.947 . S
C59 C58 1.383 . S
C59 C60 1.386 1_455 S
C60 H41 0.952 . S
C60 C59 1.386 1_655 S
C60 C61 1.381 1_655 S
C61 C60 1.381 1_455 S
C61 C62 1.377 . S
C62 H42 0.953 . S
C62 C61 1.377 . S
C62 C63 1.369 . S
C63 H43 0.945 . S
C63 C58 1.385 . S
C63 C62 1.369 . S
C64 C56 1.457 . S
C64 C65 1.375 . S
C64 C69 1.364 . S
C65 H44 0.949 1_455 S
C65 C64 1.375 . S
C65 C66 1.386 1_455 S
C66 H45 0.956 . S
C66 C65 1.386 1_655 S
C66 C67 1.383 1_655 S
C67 C66 1.383 1_455 S
C67 C68 1.372 . S
C68 H46 0.950 . S
C68 C67 1.372 . S
C68 C69 1.379 . S
C69 H47 0.948 . S
C69 C64 1.364 . S
C69 C68 1.379 . S
C70 C39 1.383 . S
C70 C57 1.479 . S
C70 C71 1.397 . S
C71 C36 1.382 1_455 S
C71 H48 0.952 1_455 S
C71 C70 1.397 . S
C72 C73 1.384 . S
C72 H85 0.947 . S
C72 C107 1.382 . S
C73 C72 1.384 . S
C73 C74 1.382 . S
C74 C73 1.382 . S
C74 C75 1.374 1_565 S
C74 H86 0.952 . S
C75 C74 1.374 1_545 S
C75 H87 0.964 . S
C75 C106 1.377 1_545 S
H76 C95 0.947 . S
H77 C96 0.946 . S
H78 C98 0.953 1_545 S
H79 C99 0.945 . S
H80 C101 0.952 . S
H81 C102 0.949 . S
H82 C104 0.955 . S
H83 C105 0.948 . S
H84 C107 0.951 . S
H85 C72 0.947 . S
H86 C74 0.952 . S
H87 C75 0.964 . S
N88 C91 1.382 . S
N88 C93 1.362 1_565 S
N89 C91 1.370 . S
N89 C92 1.365 1_565 S
N90 C92 1.358 1_565 S
N90 C93 1.376 1_565 S
C91 N88 1.382 . S
C91 N89 1.370 . S
C91 C94 1.479 . S
C92 N89 1.365 1_545 S
C92 N90 1.358 1_545 S
C92 C100 1.457 . S
C93 N88 1.362 1_545 S
C93 N90 1.376 1_545 S
C93 C106 1.476 1_545 S
C94 C91 1.479 . S
C94 C95 1.386 . S
C94 C99 1.383 1_565 S
C95 H76 0.947 . S
C95 C94 1.386 . S
C95 C96 1.388 . S
C96 H77 0.946 . S
C96 C95 1.388 . S
C96 C97 1.384 . S
C97 C96 1.384 . S
C97 C98 1.379 . S
C98 H78 0.953 1_565 S
C98 C97 1.379 . S
C98 C99 1.367 1_565 S
C99 H79 0.945 . S
C99 C94 1.383 1_545 S
C99 C98 1.367 1_545 S
C100 C92 1.457 . S
C100 C101 1.365 1_545 S
C100 C105 1.367 . S
C101 H80 0.952 . S
C101 C100 1.365 1_565 S
C101 C102 1.389 . S
C102 H81 0.949 . S
C102 C101 1.389 . S
C102 C103 1.387 . S
C103 C102 1.387 . S
C103 C104 1.365 1_565 S
C104 H82 0.955 . S
C104 C103 1.365 1_545 S
C104 C105 1.382 . S
C105 H83 0.948 . S
C105 C100 1.367 . S
C105 C104 1.382 . S
C106 C75 1.377 1_565 S
C106 C93 1.476 1_565 S
C106 C107 1.398 . S
C107 C72 1.382 . S
C107 H84 0.951 . S
C107 C106 1.398 . S
C108 C109 1.384 . S
C108 H121 0.947 . S
C108 C143 1.382 . S
C109 C108 1.384 . S
C109 C110 1.378 . S
C110 C109 1.378 . S
C110 C111 1.378 . S
C110 H122 0.952 . S
C111 C110 1.378 . S
C111 H123 0.950 . S
C111 C142 1.383 . S
H112 C131 0.947 . S
H113 C132 0.946 . S
H114 C134 0.953 . S
H115 C135 0.945 . S
H116 C137 0.952 . S
H117 C138 0.949 . S
H118 C140 0.950 . S
H119 C141 0.948 . S
H120 C143 0.951 . S
H121 C108 0.947 . S
H122 C110 0.952 . S
H123 C111 0.950 . S
N124 C127 1.382 . S
N124 C129 1.363 . S
N125 C127 1.371 . S
N125 C128 1.372 . S
N126 C128 1.361 . S
N126 C129 1.377 . S
C127 N124 1.382 . S
C127 N125 1.371 . S
C127 C130 1.480 . S
C128 N125 1.372 . S
C128 N126 1.361 . S
C128 C136 1.457 . S
C129 N124 1.363 . S
C129 N126 1.377 . S
C129 C142 1.479 . S
C130 C127 1.480 . S
C130 C131 1.383 . S
C130 C135 1.385 . S
C131 H112 0.947 . S
C131 C130 1.383 . S
C131 C132 1.388 . S
C132 H113 0.946 . S
C132 C131 1.388 . S
C132 C133 1.384 . S
C133 C132 1.384 . S
C133 C134 1.377 . S
C134 H114 0.953 . S
C134 C133 1.377 . S
C134 C135 1.369 . S
C135 H115 0.945 . S
C135 C130 1.385 . S
C135 C134 1.369 . S
C136 C128 1.457 . S
C136 C137 1.372 . S
C136 C141 1.364 . S
C137 H116 0.952 . S
C137 C136 1.372 . S
C137 C138 1.389 . S
C138 H117 0.949 . S
C138 C137 1.389 . S
C138 C139 1.387 . S
C139 C138 1.387 . S
C139 C140 1.372 . S
C140 H118 0.950 . S
C140 C139 1.372 . S
C140 C141 1.379 . S
C141 H119 0.948 . S
C141 C136 1.364 . S
C141 C140 1.379 . S
C142 C111 1.383 . S
C142 C129 1.479 . S
C142 C143 1.398 . S
C143 C108 1.382 . S
C143 H120 0.951 . S
C143 C142 1.398 . S
C144 C145 1.384 . S
C144 H157 0.947 . S
C144 C179 1.382 . S
C145 C144 1.384 . S
C145 C146 1.378 . S
C146 C145 1.378 . S
C146 C147 1.378 . S
C146 H158 0.952 . S
C147 C146 1.378 . S
C147 H159 0.950 . S
C147 C178 1.383 . S
H148 C167 0.947 1_556 S
H149 C168 0.946 . S
H150 C170 0.953 . S
H151 C171 0.945 . S
H152 C173 0.952 . S
H153 C174 0.949 . S
H154 C176 0.950 . S
H155 C177 0.948 . S
H156 C179 0.951 . S
H157 C144 0.947 . S
H158 C146 0.952 . S
H159 C147 0.950 . S
N160 C163 1.382 1_556 S
N160 C165 1.363 . S
N161 C163 1.371 . S
N161 C164 1.372 . S
N162 C164 1.361 . S
N162 C165 1.377 1_554 S
C163 N160 1.382 1_554 S
C163 N161 1.371 . S
C163 C166 1.480 . S
C164 N161 1.372 . S
C164 N162 1.361 . S
C164 C172 1.457 . S
C165 N160 1.363 . S
C165 N162 1.377 1_556 S
C165 C178 1.479 . S
C166 C163 1.480 . S
C166 C167 1.383 . S
C166 C171 1.385 . S
C167 H148 0.947 1_554 S
C167 C166 1.383 . S
C167 C168 1.388 . S
C168 H149 0.946 . S
C168 C167 1.388 . S
C168 C169 1.384 . S
C169 C168 1.384 . S
C169 C170 1.377 . S
C170 H150 0.953 . S
C170 C169 1.377 . S
C170 C171 1.369 . S
C171 H151 0.945 . S
C171 C166 1.385 . S
C171 C170 1.369 . S
C172 C164 1.457 . S
C172 C173 1.372 . S
C172 C177 1.364 . S
C173 H152 0.952 . S
C173 C172 1.372 . S
C173 C174 1.389 . S
C174 H153 0.949 . S
C174 C173 1.389 . S
C174 C175 1.387 . S
C175 C174 1.387 . S
C175 C176 1.372 . S
C176 H154 0.950 . S
C176 C175 1.372 . S
C176 C177 1.379 . S
C177 H155 0.948 . S
C177 C172 1.364 . S
C177 C176 1.379 . S
C178 C147 1.383 . S
C178 C165 1.479 . S
C178 C179 1.398 . S
C179 C144 1.382 . S
C179 H156 0.951 . S
C179 C178 1.398 . S
C180 C181 1.384 . S
C180 H193 0.948 1_455 S
C180 C215 1.382 . S
C181 C180 1.384 . S
C181 C182 1.378 . S
C182 C181 1.378 . S
C182 C183 1.378 . S
C182 H194 0.952 . S
C183 C182 1.378 . S
C183 H195 0.950 . S
C183 C214 1.383 . S
H184 C203 0.947 1_556 S
H185 C204 0.948 . S
H186 C206 0.953 . S
H187 C207 0.945 . S
H188 C209 0.947 1_655 S
H189 C210 0.953 . S
H190 C212 0.950 . S
H191 C213 0.948 . S
H192 C215 0.950 1_655 S
H193 C180 0.948 1_655 S
H194 C182 0.952 . S
H195 C183 0.950 . S
N196 C199 1.382 1_556 S
N196 C201 1.363 . S
N197 C199 1.371 . S
N197 C200 1.372 . S
N198 C200 1.361 . S
N198 C201 1.377 1_554 S
C199 N196 1.382 1_554 S
C199 N197 1.371 . S
C199 C202 1.480 . S
C200 N197 1.372 . S
C200 N198 1.361 . S
C200 C208 1.457 . S
C201 N196 1.363 . S
C201 N198 1.377 1_556 S
C201 C214 1.479 . S
C202 C199 1.480 . S
C202 C203 1.383 . S
C202 C207 1.385 . S
C203 H184 0.947 1_554 S
C203 C202 1.383 . S
C203 C204 1.387 1_455 S
C204 H185 0.948 . S
C204 C203 1.387 1_655 S
C204 C205 1.383 1_655 S
C205 C204 1.383 1_455 S
C205 C206 1.377 . S
C206 H186 0.953 . S
C206 C205 1.377 . S
C206 C207 1.369 . S
C207 H187 0.945 . S
C207 C202 1.385 . S
C207 C206 1.369 . S
C208 C200 1.457 . S
C208 C209 1.379 . S
C208 C213 1.364 . S
C209 H188 0.947 1_455 S
C209 C208 1.379 . S
C209 C210 1.387 1_455 S
C210 H189 0.953 . S
C210 C209 1.387 1_655 S
C210 C211 1.384 1_655 S
C211 C210 1.384 1_455 S
C211 C212 1.372 . S
C212 H190 0.950 . S
C212 C211 1.372 . S
C212 C213 1.379 . S
C213 H191 0.948 . S
C213 C208 1.364 . S
C213 C212 1.379 . S
C214 C183 1.383 . S
C214 C201 1.479 . S
C214 C215 1.399 . S
C215 C180 1.382 . S
C215 H192 0.950 1_455 S
C215 C214 1.399 . S
C216 C217 1.384 . S
C216 H229 0.947 . S
C216 C251 1.382 . S
C217 C216 1.384 . S
C217 C218 1.378 . S
C218 C217 1.378 . S
C218 C219 1.378 . S
C218 H230 0.952 . S
C219 C218 1.378 . S
C219 H231 0.950 . S
C219 C250 1.383 . S
H220 C239 0.947 1_556 S
H221 C240 0.946 . S
H222 C242 0.953 . S
H223 C243 0.945 . S
H224 C245 0.952 . S
H225 C246 0.949 . S
H226 C248 0.950 . S
H227 C249 0.948 . S
H228 C251 0.951 . S
H229 C216 0.947 . S
H230 C218 0.952 . S
H231 C219 0.950 . S
N232 C235 1.382 1_556 S
N232 C237 1.363 . S
N233 C235 1.371 . S
N233 C236 1.372 . S
N234 C236 1.361 . S
N234 C237 1.377 1_554 S
C235 N232 1.382 1_554 S
C235 N233 1.371 . S
C235 C238 1.480 . S
C236 N233 1.372 . S
C236 N234 1.361 . S
C236 C244 1.457 . S
C237 N232 1.363 . S
C237 N234 1.377 1_556 S
C237 C250 1.479 . S
C238 C235 1.480 . S
C238 C239 1.383 . S
C238 C243 1.385 . S
C239 H220 0.947 1_554 S
C239 C238 1.383 . S
C239 C240 1.388 . S
C240 H221 0.946 . S
C240 C239 1.388 . S
C240 C241 1.384 . S
C241 C240 1.384 . S
C241 C242 1.377 . S
C242 H222 0.953 . S
C242 C241 1.377 . S
C242 C243 1.369 . S
C243 H223 0.945 . S
C243 C238 1.385 . S
C243 C242 1.369 . S
C244 C236 1.457 . S
C244 C245 1.372 . S
C244 C249 1.364 . S
C245 H224 0.952 . S
C245 C244 1.372 . S
C245 C246 1.389 . S
C246 H225 0.949 . S
C246 C245 1.389 . S
C246 C247 1.387 . S
C247 C246 1.387 . S
C247 C248 1.372 . S
C248 H226 0.950 . S
C248 C247 1.372 . S
C248 C249 1.379 . S
C249 H227 0.948 . S
C249 C244 1.364 . S
C249 C248 1.379 . S
C250 C219 1.383 . S
C250 C237 1.479 . S
C250 C251 1.398 . S
C251 C216 1.382 . S
C251 H228 0.951 . S
C251 C250 1.398 . S
C252 C253 1.384 . S
C252 H265 0.947 . S
C252 C287 1.382 . S
C253 C252 1.384 . S
C253 C254 1.378 . S
C254 C253 1.378 . S
C254 C255 1.378 . S
C254 H266 0.952 . S
C255 C254 1.378 . S
C255 H267 0.950 . S
C255 C286 1.383 . S
H256 C275 0.947 . S
H257 C276 0.946 . S
H258 C278 0.953 1_556 S
H259 C279 0.945 1_556 S
H260 C281 0.952 . S
H261 C282 0.949 . S
H262 C284 0.950 . S
H263 C285 0.948 . S
H264 C287 0.951 . S
H265 C252 0.947 . S
H266 C254 0.952 . S
H267 C255 0.950 . S
N268 C271 1.382 . S
N268 C273 1.363 . S
N269 C271 1.371 1_556 S
N269 C272 1.372 . S
N270 C272 1.361 1_554 S
N270 C273 1.377 . S
C271 N268 1.382 . S
C271 N269 1.371 1_554 S
C271 C274 1.480 . S
C272 N269 1.372 . S
C272 N270 1.361 1_556 S
C272 C280 1.457 . S
C273 N268 1.363 . S
C273 N270 1.377 . S
C273 C286 1.479 . S
C274 C271 1.480 . S
C274 C275 1.383 . S
C274 C279 1.385 . S
C275 H256 0.947 . S
C275 C274 1.383 . S
C275 C276 1.388 . S
C276 H257 0.946 . S
C276 C275 1.388 . S
C276 C277 1.384 . S
C277 C276 1.384 . S
C277 C278 1.377 . S
C278 H258 0.953 1_554 S
C278 C277 1.377 . S
C278 C279 1.369 . S
C279 H259 0.945 1_554 S
C279 C274 1.385 . S
C279 C278 1.369 . S
C280 C272 1.457 . S
C280 C281 1.372 . S
C280 C285 1.364 . S
C281 H260 0.952 . S
C281 C280 1.372 . S
C281 C282 1.389 . S
C282 H261 0.949 . S
C282 C281 1.389 . S
C282 C283 1.387 . S
C283 C282 1.387 . S
C283 C284 1.372 . S
C284 H262 0.950 . S
C284 C283 1.372 . S
C284 C285 1.379 . S
C285 H263 0.948 . S
C285 C280 1.364 . S
C285 C284 1.379 . S
C286 C255 1.383 . S
C286 C273 1.479 . S
C286 C287 1.398 . S
C287 C252 1.382 . S
C287 H264 0.951 . S
C287 C286 1.398 . S
Sm288 C290 2.846 . S
Sm288 O308 2.543 . S
Sm288 O309 2.450 . S
Sm288 O310 2.681 1_565 S
Sm288 O311 2.464 . S
Sm288 O312 2.396 . S
Sm288 O316 2.386 1_455 S
Sm288 O319 2.408 1_565 S
Sm289 C299 2.846 . S
Sm289 O310 2.386 1_655 S
Sm289 O313 2.408 1_545 S
Sm289 O314 2.543 . S
Sm289 O315 2.450 . S
Sm289 O316 2.681 1_545 S
Sm289 O317 2.464 . S
Sm289 O318 2.396 . S
C290 Sm288 2.846 . S
C290 C291 1.506 . S
C290 O308 1.261 . S
C290 O309 1.242 . S
C291 C290 1.506 . S
C291 C292 1.358 . S
C291 C296 1.382 . S
C292 C291 1.358 . S
C292 C293 1.385 . S
C292 H320 0.930 1_455 S
C293 C292 1.385 . S
C293 C294 1.395 . S
C293 H321 0.929 1_455 S
C294 C293 1.395 . S
C294 C295 1.335 . S
C295 C294 1.335 . S
C295 C296 1.398 . S
C295 H322 0.930 . S
C296 C291 1.382 . S
C296 C295 1.398 . S
C296 H323 0.929 . S
C297 O310 1.269 . S
C297 O311 1.255 1_545 S
C298 O312 1.252 1_655 S
C298 O313 1.272 . S
C299 Sm289 2.846 . S
C299 C300 1.506 . S
C299 O314 1.261 . S
C299 O315 1.242 . S
C300 C299 1.506 . S
C300 C301 1.358 . S
C300 C305 1.382 . S
C301 C300 1.358 . S
C301 C302 1.385 . S
C301 H324 0.930 1_655 S
C302 C301 1.385 . S
C302 C303 1.395 . S
C302 H325 0.929 1_655 S
C303 C302 1.395 . S
C303 C304 1.335 . S
C304 C303 1.335 . S
C304 C305 1.398 . S
C304 H326 0.930 . S
C305 C300 1.382 . S
C305 C304 1.398 . S
C305 H327 0.929 . S
C306 O316 1.271 1_545 S
C306 O317 1.251 . S
C307 O318 1.252 1_455 S
C307 O319 1.272 . S
O308 Sm288 2.543 . S
O308 C290 1.261 . S
O309 Sm288 2.450 . S
O309 C290 1.242 . S
O310 Sm288 2.681 1_545 S
O310 Sm289 2.386 1_455 S
O310 C297 1.269 . S
O311 Sm288 2.464 . S
O311 C297 1.255 1_565 S
O312 Sm288 2.396 . S
O312 C298 1.252 1_455 S
O313 Sm289 2.408 1_565 S
O313 C298 1.272 . S
O314 Sm289 2.543 . S
O314 C299 1.261 . S
O315 Sm289 2.450 . S
O315 C299 1.242 . S
O316 Sm288 2.386 1_655 S
O316 Sm289 2.681 1_565 S
O316 C306 1.271 1_565 S
O317 Sm289 2.464 . S
O317 C306 1.251 . S
O318 Sm289 2.396 . S
O318 C307 1.252 1_655 S
O319 Sm288 2.408 1_545 S
O319 C307 1.272 . S
H320 C292 0.930 1_655 S
H321 C293 0.929 1_655 S
H322 C295 0.930 . S
H323 C296 0.929 . S
H324 C301 0.930 1_455 S
H325 C302 0.929 1_455 S
H326 C304 0.930 . S
H327 C305 0.929 . S
Sm328 C330 2.846 . S
Sm328 O348 2.543 . S
Sm328 O349 2.450 . S
Sm328 O350 2.681 . S
Sm328 O351 2.464 . S
Sm328 O352 2.396 . S
Sm328 O356 2.386 1_545 S
Sm328 O359 2.408 . S
Sm329 C339 2.846 . S
Sm329 O350 2.386 1_565 S
Sm329 O353 2.408 . S
Sm329 O354 2.543 . S
Sm329 O355 2.450 . S
Sm329 O356 2.681 . S
Sm329 O357 2.464 . S
Sm329 O358 2.396 . S
C330 Sm328 2.846 . S
C330 C331 1.506 . S
C330 O348 1.261 . S
C330 O349 1.242 . S
C331 C330 1.506 . S
C331 C332 1.358 . S
C331 C336 1.382 . S
C332 C331 1.358 . S
C332 C333 1.385 . S
C332 H360 0.930 1_545 S
C333 C332 1.385 . S
C333 C334 1.395 . S
C333 H361 0.929 1_545 S
C334 C333 1.395 . S
C334 C335 1.335 . S
C335 C334 1.335 . S
C335 C336 1.398 . S
C335 H362 0.930 . S
C336 C331 1.382 . S
C336 C335 1.398 . S
C336 H363 0.929 . S
C337 O350 1.271 . S
C337 O351 1.251 . S
C338 O352 1.252 1_565 S
C338 O353 1.272 . S
C339 Sm329 2.846 . S
C339 C340 1.506 . S
C339 O354 1.262 . S
C339 O355 1.242 . S
C340 C339 1.506 . S
C340 C341 1.358 . S
C340 C345 1.382 . S
C341 C340 1.358 . S
C341 C342 1.385 . S
C341 H364 0.930 1_565 S
C342 C341 1.385 . S
C342 C343 1.395 . S
C342 H365 0.929 1_565 S
C343 C342 1.395 . S
C343 C344 1.335 . S
C344 C343 1.335 . S
C344 C345 1.398 . S
C344 H366 0.930 . S
C345 C340 1.382 . S
C345 C344 1.398 . S
C345 H367 0.929 . S
C346 O356 1.271 . S
C346 O357 1.251 . S
C347 O358 1.252 1_545 S
C347 O359 1.272 . S
O348 Sm328 2.543 . S
O348 C330 1.261 . S
O349 Sm328 2.450 . S
O349 C330 1.242 . S
O350 Sm328 2.681 . S
O350 Sm329 2.386 1_545 S
O350 C337 1.271 . S
O351 Sm328 2.464 . S
O351 C337 1.251 . S
O352 Sm328 2.396 . S
O352 C338 1.252 1_545 S
O353 Sm329 2.408 . S
O353 C338 1.272 . S
O354 Sm329 2.543 . S
O354 C339 1.262 . S
O355 Sm329 2.450 . S
O355 C339 1.242 . S
O356 Sm328 2.386 1_565 S
O356 Sm329 2.681 . S
O356 C346 1.271 . S
O357 Sm329 2.464 . S
O357 C346 1.251 . S
O358 Sm329 2.396 . S
O358 C347 1.252 1_565 S
O359 Sm328 2.408 . S
O359 C347 1.272 . S
H360 C332 0.930 1_565 S
H361 C333 0.929 1_565 S
H362 C335 0.930 . S
H363 C336 0.929 . S
H364 C341 0.930 1_545 S
H365 C342 0.929 1_545 S
H366 C344 0.930 . S
H367 C345 0.929 . S
Sm368 C370 2.846 . S
Sm368 O388 2.543 . S
Sm368 O389 2.450 . S
Sm368 O390 2.681 . S
Sm368 O391 2.464 . S
Sm368 O392 2.396 . S
Sm368 O396 2.386 . S
Sm368 O399 2.408 . S
Sm369 C379 2.846 . S
Sm369 O390 2.386 . S
Sm369 O393 2.408 . S
Sm369 O394 2.543 . S
Sm369 O395 2.450 . S
Sm369 O396 2.681 . S
Sm369 O397 2.464 . S
Sm369 O398 2.396 . S
C370 Sm368 2.846 . S
C370 C371 1.506 . S
C370 O388 1.261 . S
C370 O389 1.242 . S
C371 C370 1.506 . S
C371 C372 1.358 . S
C371 C376 1.382 . S
C372 C371 1.358 . S
C372 C373 1.385 . S
C372 H400 0.930 . S
C373 C372 1.385 . S
C373 C374 1.395 . S
C373 H401 0.929 . S
C374 C373 1.395 . S
C374 C375 1.335 . S
C375 C374 1.335 . S
C375 C376 1.398 . S
C375 H402 0.930 . S
C376 C371 1.382 . S
C376 C375 1.398 . S
C376 H403 0.929 . S
C377 O390 1.271 . S
C377 O391 1.251 . S
C378 O392 1.252 . S
C378 O393 1.272 . S
C379 Sm369 2.846 . S
C379 C380 1.506 . S
C379 O394 1.261 . S
C379 O395 1.242 . S
C380 C379 1.506 . S
C380 C381 1.358 . S
C380 C385 1.382 . S
C381 C380 1.358 . S
C381 C382 1.385 . S
C381 H404 0.930 . S
C382 C381 1.385 . S
C382 C383 1.395 . S
C382 H405 0.929 . S
C383 C382 1.395 . S
C383 C384 1.335 . S
C384 C383 1.335 . S
C384 C385 1.398 . S
C384 H406 0.930 . S
C385 C380 1.382 . S
C385 C384 1.398 . S
C385 H407 0.929 . S
C386 O396 1.271 . S
C386 O397 1.251 . S
C387 O398 1.252 . S
C387 O399 1.272 . S
O388 Sm368 2.543 . S
O388 C370 1.261 . S
O389 Sm368 2.450 . S
O389 C370 1.242 . S
O390 Sm368 2.681 . S
O390 Sm369 2.386 . S
O390 C377 1.271 . S
O391 Sm368 2.464 . S
O391 C377 1.251 . S
O392 Sm368 2.396 . S
O392 C378 1.252 . S
O393 Sm369 2.408 . S
O393 C378 1.272 . S
O394 Sm369 2.543 . S
O394 C379 1.261 . S
O395 Sm369 2.450 . S
O395 C379 1.242 . S
O396 Sm368 2.386 . S
O396 Sm369 2.681 . S
O396 C386 1.271 . S
O397 Sm369 2.464 . S
O397 C386 1.251 . S
O398 Sm369 2.396 . S
O398 C387 1.252 . S
O399 Sm368 2.408 . S
O399 C387 1.272 . S
H400 C372 0.930 . S
H401 C373 0.929 . S
H402 C375 0.930 . S
H403 C376 0.929 . S
H404 C381 0.930 . S
H405 C382 0.929 . S
H406 C384 0.930 . S
H407 C385 0.929 . S
Sm408 C410 2.846 . S
Sm408 O428 2.543 . S
Sm408 O429 2.450 . S
Sm408 O430 2.681 1_655 S
Sm408 O431 2.464 . S
Sm408 O432 2.396 . S
Sm408 O436 2.386 . S
Sm408 O439 2.408 1_655 S
Sm409 C419 2.846 . S
Sm409 O430 2.386 . S
Sm409 O433 2.408 1_455 S
Sm409 O434 2.543 . S
Sm409 O435 2.450 . S
Sm409 O436 2.681 1_455 S
Sm409 O437 2.464 . S
Sm409 O438 2.396 . S
C410 Sm408 2.846 . S
C410 C411 1.506 . S
C410 O428 1.261 . S
C410 O429 1.242 . S
C411 C410 1.506 . S
C411 C412 1.358 . S
C411 C416 1.382 . S
C412 C411 1.358 . S
C412 C413 1.385 . S
C412 H440 0.930 . S
C413 C412 1.385 . S
C413 C414 1.395 . S
C413 H441 0.929 . S
C414 C413 1.395 . S
C414 C415 1.335 . S
C415 C414 1.335 . S
C415 C416 1.398 . S
C415 H442 0.930 . S
C416 C411 1.382 . S
C416 C415 1.398 . S
C416 H443 0.929 . S
C417 O430 1.271 1_655 S
C417 O431 1.251 . S
C418 O432 1.252 . S
C418 O433 1.272 . S
C419 Sm409 2.846 . S
C419 C420 1.506 . S
C419 O434 1.261 . S
C419 O435 1.242 . S
C420 C419 1.506 . S
C420 C421 1.358 . S
C420 C425 1.382 . S
C421 C420 1.358 . S
C421 C422 1.385 . S
C421 H444 0.930 . S
C422 C421 1.385 . S
C422 C423 1.395 . S
C422 H445 0.929 . S
C423 C422 1.395 . S
C423 C424 1.335 . S
C424 C423 1.335 . S
C424 C425 1.398 . S
C424 H446 0.930 . S
C425 C420 1.382 . S
C425 C424 1.398 . S
C425 H447 0.929 . S
C426 O436 1.271 1_455 S
C426 O437 1.251 . S
C427 O438 1.252 . S
C427 O439 1.272 . S
O428 Sm408 2.543 . S
O428 C410 1.261 . S
O429 Sm408 2.450 . S
O429 C410 1.242 . S
O430 Sm408 2.681 1_455 S
O430 Sm409 2.386 . S
O430 C417 1.271 1_455 S
O431 Sm408 2.464 . S
O431 C417 1.251 . S
O432 Sm408 2.396 . S
O432 C418 1.252 . S
O433 Sm409 2.408 1_655 S
O433 C418 1.272 . S
O434 Sm409 2.543 . S
O434 C419 1.261 . S
O435 Sm409 2.450 . S
O435 C419 1.242 . S
O436 Sm408 2.386 . S
O436 Sm409 2.681 1_655 S
O436 C426 1.271 1_655 S
O437 Sm409 2.464 . S
O437 C426 1.251 . S
O438 Sm409 2.396 . S
O438 C427 1.252 . S
O439 Sm408 2.408 1_455 S
O439 C427 1.272 . S
H440 C412 0.930 . S
H441 C413 0.929 . S
H442 C415 0.930 . S
H443 C416 0.929 . S
H444 C421 0.930 . S
H445 C422 0.929 . S
H446 C424 0.930 . S
H447 C425 0.929 . S
H448 C466 0.951 . S
H449 C468 0.951 . S
H450 C470 0.950 . S
H451 C471 0.950 . S
H452 C473 0.950 . S
H453 C476 0.950 . S
H454 C477 0.950 . S
H455 C479 0.950 . S
H456 C480 0.950 . S
H457 C481 0.951 . S
H458 C483 0.951 . S
H459 C485 0.950 . S
H460 C486 0.950 . S
H461 C488 0.950 . S
H462 C491 0.950 . S
H463 C492 0.950 . S
H464 C494 0.950 . S
H465 C495 0.950 . S
C466 H448 0.951 . S
C466 C467 1.366 1_565 S
C466 C468 1.388 . S
C467 C466 1.366 1_545 S
C467 C471 1.385 . S
C468 H449 0.951 . S
C468 C466 1.388 . S
C468 C469 1.366 1_565 S
C469 C468 1.366 1_545 S
C469 C470 1.414 . S
C469 C472 1.499 . S
C470 H450 0.950 . S
C470 C469 1.414 . S
C470 C471 1.374 . S
C471 H451 0.950 . S
C471 C467 1.385 . S
C471 C470 1.374 . S
C472 C469 1.499 . S
C472 C473 1.373 . S
C472 C474 1.389 1_545 S
C473 H452 0.950 . S
C473 C472 1.373 . S
C473 C489 1.377 . S
C474 C472 1.389 1_565 S
C474 C475 1.524 . S
C474 C488 1.377 . S
C475 C474 1.524 . S
C475 C476 1.397 . S
C475 C480 1.363 . S
C476 H453 0.950 . S
C476 C475 1.397 . S
C476 C477 1.334 . S
C477 H454 0.950 . S
C477 C476 1.334 . S
C477 C478 1.287 . S
C478 C477 1.287 . S
C478 C479 1.524 . S
C478 H497 0.913 . S
C479 H455 0.950 . S
C479 C478 1.524 . S
C479 C480 1.415 . S
C480 H456 0.950 . S
C480 C475 1.363 . S
C480 C479 1.415 . S
C481 H457 0.951 . S
C481 C482 1.366 . S
C481 C483 1.388 . S
C482 C481 1.366 . S
C482 C486 1.385 1_545 S
C483 H458 0.951 . S
C483 C481 1.388 . S
C483 C484 1.366 . S
C484 C483 1.366 . S
C484 C485 1.414 1_545 S
C484 C487 1.499 . S
C485 H459 0.950 . S
C485 C484 1.414 1_565 S
C485 C486 1.374 . S
C486 H460 0.950 . S
C486 C482 1.385 1_565 S
C486 C485 1.374 . S
C487 C484 1.499 . S
C487 C488 1.373 1_545 S
C487 C489 1.389 . S
C488 H461 0.950 . S
C488 C474 1.377 . S
C488 C487 1.373 1_565 S
C489 C473 1.377 . S
C489 C487 1.389 . S
C489 C490 1.524 . S
C490 C489 1.524 . S
C490 C491 1.397 . S
C490 C495 1.363 . S
C491 H462 0.950 . S
C491 C490 1.397 . S
C491 C492 1.334 . S
C492 H463 0.950 . S
C492 C491 1.334 . S
C492 C493 1.287 . S
C493 C492 1.287 . S
C493 C494 1.524 . S
C493 H496 0.999 . S
C494 H464 0.950 . S
C494 C493 1.524 . S
C494 C495 1.415 . S
C495 H465 0.950 . S
C495 C490 1.363 . S
C495 C494 1.415 . S
H496 C493 0.999 . S
H497 C478 0.913 . S
H498 C516 0.951 . S
H499 C518 0.951 . S
H500 C520 0.950 . S
H501 C521 0.950 . S
H502 C523 0.950 . S
H503 C526 0.950 . S
H504 C527 0.950 . S
H505 C529 0.950 . S
H506 C530 0.950 . S
H507 C531 0.951 . S
H508 C533 0.951 . S
H509 C535 0.950 . S
H510 C536 0.950 . S
H511 C538 0.950 . S
H512 C541 0.950 . S
H513 C542 0.950 . S
H514 C544 0.950 . S
H515 C545 0.950 . S
C516 H498 0.951 . S
C516 C517 1.366 . S
C516 C518 1.388 . S
C517 C516 1.366 . S
C517 C521 1.385 . S
C518 H499 0.951 . S
C518 C516 1.388 . S
C518 C519 1.366 . S
C519 C518 1.366 . S
C519 C520 1.414 . S
C519 C522 1.499 . S
C520 H500 0.950 . S
C520 C519 1.414 . S
C520 C521 1.374 . S
C521 H501 0.950 . S
C521 C517 1.385 . S
C521 C520 1.374 . S
C522 C519 1.499 . S
C522 C523 1.373 . S
C522 C524 1.389 . S
C523 H502 0.950 . S
C523 C522 1.373 . S
C523 C539 1.377 . S
C524 C522 1.389 . S
C524 C525 1.524 . S
C524 C538 1.377 . S
C525 C524 1.524 . S
C525 C526 1.397 . S
C525 C530 1.363 . S
C526 H503 0.950 . S
C526 C525 1.397 . S
C526 C527 1.334 . S
C527 H504 0.950 . S
C527 C526 1.334 . S
C527 C528 1.287 . S
C528 C527 1.287 . S
C528 C529 1.524 . S
C528 H547 0.913 . S
C529 H505 0.950 . S
C529 C528 1.524 . S
C529 C530 1.415 . S
C530 H506 0.950 . S
C530 C525 1.363 . S
C530 C529 1.415 . S
C531 H507 0.951 . S
C531 C532 1.366 . S
C531 C533 1.388 . S
C532 C531 1.366 . S
C532 C536 1.385 . S
C533 H508 0.951 . S
C533 C531 1.388 . S
C533 C534 1.366 . S
C534 C533 1.366 . S
C534 C535 1.414 . S
C534 C537 1.499 . S
C535 H509 0.950 . S
C535 C534 1.414 . S
C535 C536 1.374 . S
C536 H510 0.950 . S
C536 C532 1.385 . S
C536 C535 1.374 . S
C537 C534 1.499 . S
C537 C538 1.373 . S
C537 C539 1.389 . S
C538 H511 0.950 . S
C538 C524 1.377 . S
C538 C537 1.373 . S
C539 C523 1.377 . S
C539 C537 1.389 . S
C539 C540 1.524 . S
C540 C539 1.524 . S
C540 C541 1.397 . S
C540 C545 1.363 . S
C541 H512 0.950 . S
C541 C540 1.397 . S
C541 C542 1.334 . S
C542 H513 0.950 . S
C542 C541 1.334 . S
C542 C543 1.287 . S
C543 C542 1.287 . S
C543 C544 1.524 . S
C543 H546 0.999 . S
C544 H514 0.950 . S
C544 C543 1.524 . S
C544 C545 1.415 . S
C545 H515 0.950 . S
C545 C540 1.363 . S
C545 C544 1.415 . S
H546 C543 0.999 . S
H547 C528 0.913 . S
H548 C566 0.951 . S
H549 C568 0.951 . S
H550 C570 0.950 . S
H551 C571 0.950 . S
H552 C573 0.950 . S
H553 C576 0.950 . S
H554 C577 0.950 . S
H555 C579 0.950 . S
H556 C580 0.950 . S
H557 C581 0.951 . S
H558 C583 0.951 . S
H559 C585 0.950 . S
H560 C586 0.950 . S
H561 C588 0.950 . S
H562 C591 0.950 . S
H563 C592 0.950 . S
H564 C594 0.950 . S
H565 C595 0.950 . S
C566 H548 0.951 . S
C566 C567 1.366 . S
C566 C568 1.388 . S
C567 C566 1.366 . S
C567 C571 1.385 . S
C568 H549 0.951 . S
C568 C566 1.388 . S
C568 C569 1.366 . S
C569 C568 1.366 . S
C569 C570 1.414 . S
C569 C572 1.499 . S
C570 H550 0.950 . S
C570 C569 1.414 . S
C570 C571 1.374 . S
C571 H551 0.950 . S
C571 C567 1.385 . S
C571 C570 1.374 . S
C572 C569 1.499 . S
C572 C573 1.373 . S
C572 C574 1.389 . S
C573 H552 0.950 . S
C573 C572 1.373 . S
C573 C589 1.377 . S
C574 C572 1.389 . S
C574 C575 1.524 . S
C574 C588 1.377 . S
C575 C574 1.524 . S
C575 C576 1.397 . S
C575 C580 1.363 . S
C576 H553 0.950 . S
C576 C575 1.397 . S
C576 C577 1.334 . S
C577 H554 0.950 . S
C577 C576 1.334 . S
C577 C578 1.287 . S
C578 C577 1.287 . S
C578 C579 1.524 . S
C578 H597 0.913 . S
C579 H555 0.950 . S
C579 C578 1.524 . S
C579 C580 1.415 . S
C580 H556 0.950 . S
C580 C575 1.363 . S
C580 C579 1.415 . S
C581 H557 0.951 . S
C581 C582 1.366 . S
C581 C583 1.388 . S
C582 C581 1.366 . S
C582 C586 1.385 . S
C583 H558 0.951 . S
C583 C581 1.388 . S
C583 C584 1.366 . S
C584 C583 1.366 . S
C584 C585 1.414 . S
C584 C587 1.499 . S
C585 H559 0.950 . S
C585 C584 1.414 . S
C585 C586 1.374 . S
C586 H560 0.950 . S
C586 C582 1.385 . S
C586 C585 1.374 . S
C587 C584 1.499 . S
C587 C588 1.373 . S
C587 C589 1.389 . S
C588 H561 0.950 . S
C588 C574 1.377 . S
C588 C587 1.373 . S
C589 C573 1.377 . S
C589 C587 1.389 . S
C589 C590 1.524 . S
C590 C589 1.524 . S
C590 C591 1.397 . S
C590 C595 1.363 . S
C591 H562 0.950 . S
C591 C590 1.397 . S
C591 C592 1.334 . S
C592 H563 0.950 . S
C592 C591 1.334 . S
C592 C593 1.287 . S
C593 C592 1.287 . S
C593 C594 1.524 . S
C593 H596 0.999 . S
C594 H564 0.950 . S
C594 C593 1.524 . S
C594 C595 1.415 . S
C595 H565 0.950 . S
C595 C590 1.363 . S
C595 C594 1.415 . S
H596 C593 0.999 . S
H597 C578 0.913 . S
H598 C616 0.951 . S
H599 C618 0.951 . S
H600 C620 0.950 . S
H601 C621 0.950 . S
H602 C623 0.950 . S
H603 C626 0.950 . S
H604 C627 0.950 . S
H605 C629 0.950 . S
H606 C630 0.950 . S
H607 C631 0.951 . S
H608 C633 0.951 . S
H609 C635 0.950 . S
H610 C636 0.950 . S
H611 C638 0.950 . S
H612 C641 0.950 . S
H613 C642 0.950 . S
H614 C644 0.950 . S
H615 C645 0.950 . S
C616 H598 0.951 . S
C616 C617 1.362 1_655 S
C616 C618 1.388 . S
C617 C616 1.362 1_455 S
C617 C621 1.389 . S
C618 H599 0.951 . S
C618 C616 1.388 . S
C618 C619 1.324 1_655 S
C619 C618 1.324 1_455 S
C619 C620 1.455 . S
C619 C622 1.501 . S
C620 H600 0.950 . S
C620 C619 1.455 . S
C620 C621 1.374 . S
C621 H601 0.950 . S
C621 C617 1.389 . S
C621 C620 1.374 . S
C622 C619 1.501 . S
C622 C623 1.373 . S
C622 C624 1.389 1_455 S
C623 H602 0.950 . S
C623 C622 1.373 . S
C623 C639 1.377 . S
C624 C622 1.389 1_655 S
C624 C625 1.524 . S
C624 C638 1.377 . S
C625 C624 1.524 . S
C625 C626 1.397 1_655 S
C625 C630 1.363 . S
C626 H603 0.950 . S
C626 C625 1.397 1_455 S
C626 C627 1.334 . S
C627 H604 0.950 . S
C627 C626 1.334 . S
C627 C628 1.287 1_455 S
C628 C627 1.287 1_655 S
C628 C629 1.524 . S
C628 H647 0.913 . S
C629 H605 0.950 . S
C629 C628 1.524 . S
C629 C630 1.415 . S
C630 H606 0.950 . S
C630 C625 1.363 . S
C630 C629 1.415 . S
C631 H607 0.951 . S
C631 C632 1.415 . S
C631 C633 1.388 . S
C632 C631 1.415 . S
C632 C636 1.335 1_455 S
C633 H608 0.951 . S
C633 C631 1.388 . S
C633 C634 1.378 . S
C634 C633 1.378 . S
C634 C635 1.402 1_455 S
C634 C637 1.498 1_455 S
C635 H609 0.950 . S
C635 C634 1.402 1_655 S
C635 C636 1.374 . S
C636 H610 0.950 . S
C636 C632 1.335 1_655 S
C636 C635 1.374 . S
C637 C634 1.498 1_655 S
C637 C638 1.377 . S
C637 C639 1.385 1_655 S
C638 H611 0.950 . S
C638 C624 1.377 . S
C638 C637 1.377 . S
C639 C623 1.377 . S
C639 C637 1.385 1_455 S
C639 C640 1.524 . S
C640 C639 1.524 . S
C640 C641 1.397 1_455 S
C640 C645 1.363 . S
C641 H612 0.950 . S
C641 C640 1.397 1_655 S
C641 C642 1.334 . S
C642 H613 0.950 . S
C642 C641 1.334 . S
C642 C643 1.287 1_655 S
C643 C642 1.287 1_455 S
C643 C644 1.524 . S
C643 H646 0.999 . S
C644 H614 0.950 . S
C644 C643 1.524 . S
C644 C645 1.415 . S
C645 H615 0.950 . S
C645 C640 1.363 . S
C645 C644 1.415 . S
H646 C643 0.999 . S
H647 C628 0.913 . S
H648 C666 0.951 . S
H649 C668 0.951 . S
H650 C670 0.950 . S
H651 C671 0.950 . S
H652 C673 0.950 . S
H653 C676 0.950 . S
H654 C677 0.950 . S
H655 C679 0.950 . S
H656 C680 0.950 . S
H657 C681 0.951 . S
H658 C683 0.951 . S
H659 C685 0.950 . S
H660 C686 0.950 . S
H661 C688 0.950 . S
H662 C691 0.950 . S
H663 C692 0.950 . S
H664 C694 0.950 1_554 S
H665 C695 0.950 1_554 S
C666 H648 0.951 . S
C666 C667 1.366 . S
C666 C668 1.388 . S
C667 C666 1.366 . S
C667 C671 1.385 1_565 S
C668 H649 0.951 . S
C668 C666 1.388 . S
C668 C669 1.366 . S
C669 C668 1.366 . S
C669 C670 1.414 1_565 S
C669 C672 1.499 . S
C670 H650 0.950 . S
C670 C669 1.414 1_545 S
C670 C671 1.374 . S
C671 H651 0.950 . S
C671 C667 1.385 1_545 S
C671 C670 1.374 . S
C672 C669 1.499 . S
C672 C673 1.373 1_565 S
C672 C674 1.389 1_554 S
C673 H652 0.950 . S
C673 C672 1.373 1_545 S
C673 C689 1.377 1_554 S
C674 C672 1.389 1_556 S
C674 C675 1.524 1_556 S
C674 C688 1.377 . S
C675 C674 1.524 1_554 S
C675 C676 1.397 . S
C675 C680 1.363 1_554 S
C676 H653 0.950 . S
C676 C675 1.397 . S
C676 C677 1.334 . S
C677 H654 0.950 . S
C677 C676 1.334 . S
C677 C678 1.287 . S
C678 C677 1.287 . S
C678 C679 1.524 1_554 S
C678 H697 0.913 . S
C679 H655 0.950 . S
C679 C678 1.524 1_556 S
C679 C680 1.415 . S
C680 H656 0.950 . S
C680 C675 1.363 1_556 S
C680 C679 1.415 . S
C681 H657 0.951 . S
C681 C682 1.366 1_545 S
C681 C683 1.388 . S
C682 C681 1.366 1_565 S
C682 C686 1.385 . S
C683 H658 0.951 . S
C683 C681 1.388 . S
C683 C684 1.346 1_545 S
C684 C683 1.346 1_565 S
C684 C685 1.438 . S
C684 C687 1.501 . S
C685 H659 0.950 . S
C685 C684 1.438 . S
C685 C686 1.374 . S
C686 H660 0.950 . S
C686 C682 1.385 . S
C686 C685 1.374 . S
C687 C684 1.501 . S
C687 C688 1.373 . S
C687 C689 1.389 1_565 S
C688 H661 0.950 . S
C688 C674 1.377 . S
C688 C687 1.373 . S
C689 C673 1.377 1_556 S
C689 C687 1.389 1_545 S
C689 C690 1.524 . S
C690 C689 1.524 . S
C690 C691 1.397 . S
C690 C695 1.363 . S
C691 H662 0.950 . S
C691 C690 1.397 . S
C691 C692 1.334 . S
C692 H663 0.950 . S
C692 C691 1.334 . S
C692 C693 1.287 . S
C693 C692 1.287 . S
C693 C694 1.524 . S
C693 H696 0.999 . S
C694 H664 0.950 1_556 S
C694 C693 1.524 . S
C694 C695 1.415 . S
C695 H665 0.950 1_556 S
C695 C690 1.363 . S
C695 C694 1.415 . S
H696 C693 0.999 . S
H697 C678 0.913 . S
H698 C716 0.951 . S
H699 C718 0.951 . S
H700 C720 0.950 . S
H701 C721 0.950 . S
H702 C723 0.950 1_554 S
H703 C726 0.950 . S
H704 C727 0.950 . S
H705 C729 0.950 . S
H706 C730 0.950 . S
H707 C731 0.951 . S
H708 C733 0.951 . S
H709 C735 0.950 . S
H710 C736 0.950 . S
H711 C738 0.950 . S
H712 C741 0.950 . S
H713 C742 0.950 . S
H714 C744 0.950 . S
H715 C745 0.950 . S
C716 H698 0.951 . S
C716 C717 1.366 . S
C716 C718 1.388 . S
C717 C716 1.366 . S
C717 C721 1.385 . S
C718 H699 0.951 . S
C718 C716 1.388 . S
C718 C719 1.366 . S
C719 C718 1.366 . S
C719 C720 1.414 . S
C719 C722 1.499 . S
C720 H700 0.950 . S
C720 C719 1.414 . S
C720 C721 1.374 . S
C721 H701 0.950 . S
C721 C717 1.385 . S
C721 C720 1.374 . S
C722 C719 1.499 . S
C722 C723 1.373 1_554 S
C722 C724 1.389 . S
C723 H702 0.950 1_556 S
C723 C722 1.373 1_556 S
C723 C739 1.377 . S
C724 C722 1.389 . S
C724 C725 1.524 . S
C724 C738 1.377 1_554 S
C725 C724 1.524 . S
C725 C726 1.397 . S
C725 C730 1.363 . S
C726 H703 0.950 . S
C726 C725 1.397 . S
C726 C727 1.334 . S
C727 H704 0.950 . S
C727 C726 1.334 . S
C727 C728 1.287 . S
C728 C727 1.287 . S
C728 C729 1.524 . S
C728 H747 0.913 . S
C729 H705 0.950 . S
C729 C728 1.524 . S
C729 C730 1.415 . S
C730 H706 0.950 . S
C730 C725 1.363 . S
C730 C729 1.415 . S
C731 H707 0.951 . S
C731 C732 1.366 . S
C731 C733 1.388 . S
C732 C731 1.366 . S
C732 C736 1.385 . S
C733 H708 0.951 . S
C733 C731 1.388 . S
C733 C734 1.366 . S
C734 C733 1.366 . S
C734 C735 1.414 . S
C734 C737 1.499 . S
C735 H709 0.950 . S
C735 C734 1.414 . S
C735 C736 1.374 . S
C736 H710 0.950 . S
C736 C732 1.385 . S
C736 C735 1.374 . S
C737 C734 1.499 . S
C737 C738 1.373 . S
C737 C739 1.389 . S
C738 H711 0.950 . S
C738 C724 1.377 1_556 S
C738 C737 1.373 . S
C739 C723 1.377 . S
C739 C737 1.389 . S
C739 C740 1.524 . S
C740 C739 1.524 . S
C740 C741 1.397 . S
C740 C745 1.363 . S
C741 H712 0.950 . S
C741 C740 1.397 . S
C741 C742 1.334 . S
C742 H713 0.950 . S
C742 C741 1.334 . S
C742 C743 1.287 . S
C743 C742 1.287 . S
C743 C744 1.524 . S
C743 H746 0.999 . S
C744 H714 0.950 . S
C744 C743 1.524 . S
C744 C745 1.415 . S
C745 H715 0.950 . S
C745 C740 1.363 . S
C745 C744 1.415 . S
H746 C743 0.999 . S
H747 C728 0.913 . S
H748 C766 0.951 . S
H749 C768 0.951 . S
H750 C770 0.950 . S
H751 C771 0.950 . S
H752 C773 0.950 . S
H753 C776 0.950 . S
H754 C777 0.950 . S
H755 C779 0.950 . S
H756 C780 0.950 . S
H757 C781 0.951 . S
H758 C783 0.951 . S
H759 C785 0.950 . S
H760 C786 0.950 . S
H761 C788 0.950 . S
H762 C791 0.950 . S
H763 C792 0.950 . S
H764 C794 0.950 . S
H765 C795 0.950 . S
C766 H748 0.951 . S
C766 C767 1.366 . S
C766 C768 1.388 . S
C767 C766 1.366 . S
C767 C771 1.385 . S
C768 H749 0.951 . S
C768 C766 1.388 . S
C768 C769 1.366 . S
C769 C768 1.366 . S
C769 C770 1.414 . S
C769 C772 1.499 . S
C770 H750 0.950 . S
C770 C769 1.414 . S
C770 C771 1.374 . S
C771 H751 0.950 . S
C771 C767 1.385 . S
C771 C770 1.374 . S
C772 C769 1.499 . S
C772 C773 1.373 . S
C772 C774 1.389 . S
C773 H752 0.950 . S
C773 C772 1.373 . S
C773 C789 1.377 1_554 S
C774 C772 1.389 . S
C774 C775 1.524 . S
C774 C788 1.377 1_554 S
C775 C774 1.524 . S
C775 C776 1.397 . S
C775 C780 1.363 . S
C776 H753 0.950 . S
C776 C775 1.397 . S
C776 C777 1.334 . S
C777 H754 0.950 . S
C777 C776 1.334 . S
C777 C778 1.287 . S
C778 C777 1.287 . S
C778 C779 1.524 . S
C778 H797 0.913 . S
C779 H755 0.950 . S
C779 C778 1.524 . S
C779 C780 1.415 . S
C780 H756 0.950 . S
C780 C775 1.363 . S
C780 C779 1.415 . S
C781 H757 0.951 . S
C781 C782 1.366 . S
C781 C783 1.388 . S
C782 C781 1.366 . S
C782 C786 1.385 . S
C783 H758 0.951 . S
C783 C781 1.388 . S
C783 C784 1.366 . S
C784 C783 1.366 . S
C784 C785 1.414 . S
C784 C787 1.499 . S
C785 H759 0.950 . S
C785 C784 1.414 . S
C785 C786 1.374 . S
C786 H760 0.950 . S
C786 C782 1.385 . S
C786 C785 1.374 . S
C787 C784 1.499 . S
C787 C788 1.373 . S
C787 C789 1.389 . S
C788 H761 0.950 . S
C788 C774 1.377 1_556 S
C788 C787 1.373 . S
C789 C773 1.377 1_556 S
C789 C787 1.389 . S
C789 C790 1.524 . S
C790 C789 1.524 . S
C790 C791 1.397 . S
C790 C795 1.363 . S
C791 H762 0.950 . S
C791 C790 1.397 . S
C791 C792 1.334 . S
C792 H763 0.950 . S
C792 C791 1.334 . S
C792 C793 1.287 . S
C793 C792 1.287 . S
C793 C794 1.524 . S
C793 H796 0.999 . S
C794 H764 0.950 . S
C794 C793 1.524 . S
C794 C795 1.415 . S
C795 H765 0.950 . S
C795 C790 1.363 . S
C795 C794 1.415 . S
H796 C793 0.999 . S
H797 C778 0.913 . S
H798 C816 0.951 . S
H799 C818 0.951 . S
H800 C820 0.950 . S
H801 C821 0.950 . S
H802 C823 0.950 . S
H803 C826 0.950 . S
H804 C827 0.950 . S
H805 C829 0.950 . S
H806 C830 0.950 . S
H807 C831 0.951 . S
H808 C833 0.951 . S
H809 C835 0.950 . S
H810 C836 0.950 . S
H811 C838 0.950 . S
H812 C841 0.950 . S
H813 C842 0.950 . S
H814 C844 0.950 . S
H815 C845 0.950 . S
C816 H798 0.951 . S
C816 C817 1.365 1_455 S
C816 C818 1.388 . S
C817 C816 1.365 1_655 S
C817 C821 1.385 . S
C818 H799 0.951 . S
C818 C816 1.388 . S
C818 C819 1.366 1_455 S
C819 C818 1.366 1_655 S
C819 C820 1.414 . S
C819 C822 1.499 . S
C820 H800 0.950 . S
C820 C819 1.414 . S
C820 C821 1.374 . S
C821 H801 0.950 . S
C821 C817 1.385 . S
C821 C820 1.374 . S
C822 C819 1.499 . S
C822 C823 1.373 1_655 S
C822 C824 1.389 1_554 S
C823 H802 0.950 . S
C823 C822 1.373 1_455 S
C823 C839 1.377 1_554 S
C824 C822 1.389 1_556 S
C824 C825 1.524 . S
C824 C838 1.377 . S
C825 C824 1.524 . S
C825 C826 1.397 1_556 S
C825 C830 1.363 . S
C826 H803 0.950 . S
C826 C825 1.397 1_554 S
C826 C827 1.334 . S
C827 H804 0.950 . S
C827 C826 1.334 . S
C827 C828 1.287 1_554 S
C828 C827 1.287 1_556 S
C828 C829 1.524 . S
C828 H847 0.913 . S
C829 H805 0.950 . S
C829 C828 1.524 . S
C829 C830 1.415 . S
C830 H806 0.950 . S
C830 C825 1.363 . S
C830 C829 1.415 . S
C831 H807 0.951 . S
C831 C832 1.374 . S
C831 C833 1.388 . S
C832 C831 1.374 . S
C832 C836 1.378 1_655 S
C833 H808 0.951 . S
C833 C831 1.388 . S
C833 C834 1.365 1_655 S
C834 C833 1.365 1_455 S
C834 C835 1.415 . S
C834 C837 1.499 . S
C835 H809 0.950 . S
C835 C834 1.415 . S
C835 C836 1.374 . S
C836 H810 0.950 . S
C836 C832 1.378 1_455 S
C836 C835 1.374 . S
C837 C834 1.499 . S
C837 C838 1.358 1_455 S
C837 C839 1.404 . S
C838 H811 0.950 . S
C838 C824 1.377 . S
C838 C837 1.358 1_655 S
C839 C823 1.377 1_556 S
C839 C837 1.404 . S
C839 C840 1.524 . S
C840 C839 1.524 . S
C840 C841 1.397 . S
C840 C845 1.363 1_556 S
C841 H812 0.950 . S
C841 C840 1.397 . S
C841 C842 1.334 . S
C842 H813 0.950 . S
C842 C841 1.334 . S
C842 C843 1.287 . S
C843 C842 1.287 . S
C843 C844 1.524 1_556 S
C843 H846 0.999 . S
C844 H814 0.950 . S
C844 C843 1.524 1_554 S
C844 C845 1.415 . S
C845 H815 0.950 . S
C845 C840 1.363 1_554 S
C845 C844 1.415 . S
H846 C843 0.999 . S
H847 C828 0.913 . S
H848 C866 0.951 . S
H849 C868 0.951 . S
H850 C870 0.950 . S
H851 C871 0.950 . S
H852 C873 0.935 1_455 S
H853 C876 0.950 . S
H854 C877 0.950 . S
H855 C879 0.950 . S
H856 C880 0.950 . S
H857 C881 0.980 . S
H858 C883 0.951 1_455 S
H859 C885 0.950 . S
H860 C886 0.950 . S
H861 C888 0.950 . S
H862 C891 0.950 . S
H863 C892 0.983 . S
H864 C894 0.950 . S
H865 C895 0.950 . S
C866 H848 0.951 . S
C866 C867 1.366 1_655 S
C866 C868 1.388 . S
C867 C866 1.366 1_455 S
C867 C871 1.385 . S
C868 H849 0.951 . S
C868 C866 1.388 . S
C868 C869 1.366 . S
C869 C868 1.366 . S
C869 C870 1.414 1_655 S
C869 C872 1.499 . S
C870 H850 0.950 . S
C870 C869 1.414 1_455 S
C870 C871 1.374 . S
C871 H851 0.950 . S
C871 C867 1.385 . S
C871 C870 1.374 . S
C872 C869 1.499 . S
C872 C873 1.384 . S
C872 C874 1.389 . S
C873 H852 0.935 1_655 S
C873 C872 1.384 . S
C873 C889 1.382 . S
C874 C872 1.389 . S
C874 C875 1.524 . S
C874 C888 1.377 . S
C875 C874 1.524 . S
C875 C876 1.397 . S
C875 C880 1.363 . S
C876 H853 0.950 . S
C876 C875 1.397 . S
C876 C877 1.334 . S
C877 H854 0.950 . S
C877 C876 1.334 . S
C877 C878 1.287 . S
C878 C877 1.287 . S
C878 C879 1.524 . S
C878 H897 0.913 . S
C879 H855 0.950 . S
C879 C878 1.524 . S
C879 C880 1.415 . S
C880 H856 0.950 . S
C880 C875 1.363 . S
C880 C879 1.415 . S
C881 H857 0.980 . S
C881 C882 1.366 . S
C881 C883 1.388 . S
C882 C881 1.366 . S
C882 C886 1.385 . S
C883 H858 0.951 1_655 S
C883 C881 1.388 . S
C883 C884 1.366 . S
C884 C883 1.366 . S
C884 C885 1.414 . S
C884 C887 1.499 . S
C885 H859 0.950 . S
C885 C884 1.414 . S
C885 C886 1.374 . S
C886 H860 0.950 . S
C886 C882 1.385 . S
C886 C885 1.374 . S
C887 C884 1.499 . S
C887 C888 1.373 . S
C887 C889 1.389 . S
C888 H861 0.950 . S
C888 C874 1.377 . S
C888 C887 1.373 . S
C889 C873 1.382 . S
C889 C887 1.389 . S
C889 C890 1.524 1_655 S
C890 C889 1.524 1_455 S
C890 C891 1.397 1_455 S
C890 C895 1.363 . S
C891 H862 0.950 . S
C891 C890 1.397 1_655 S
C891 C892 1.354 . S
C892 H863 0.983 . S
C892 C891 1.354 . S
C892 C893 1.235 1_655 S
C893 C892 1.235 1_455 S
C893 C894 1.524 . S
C893 H896 0.999 . S
C894 H864 0.950 . S
C894 C893 1.524 . S
C894 C895 1.415 . S
C895 H865 0.950 . S
C895 C890 1.363 . S
C895 C894 1.415 . S
H896 C893 0.999 . S
H897 C878 0.913 . S
H898 C916 0.950 . S
H899 C918 0.951 . S
H900 C920 0.950 . S
H901 C921 0.950 . S
H902 C923 0.950 . S
H903 C926 0.950 . S
H904 C927 0.950 . S
H905 C929 0.950 . S
H906 C930 0.894 1_565 S
H907 C931 0.951 . S
H908 C933 0.951 . S
H909 C935 0.950 . S
H910 C936 0.950 . S
H911 C938 0.959 . S
H912 C941 0.950 . S
H913 C942 0.950 . S
H914 C944 0.950 . S
H915 C945 0.950 . S
C916 H898 0.950 . S
C916 C917 1.367 1_565 S
C916 C918 1.387 . S
C917 C916 1.367 1_545 S
C917 C921 1.385 . S
C918 H899 0.951 . S
C918 C916 1.387 . S
C918 C919 1.368 . S
C919 C918 1.368 . S
C919 C920 1.409 1_565 S
C919 C922 1.501 . S
C920 H900 0.950 . S
C920 C919 1.409 1_545 S
C920 C921 1.374 . S
C921 H901 0.950 . S
C921 C917 1.385 . S
C921 C920 1.374 . S
C922 C919 1.501 . S
C922 C923 1.373 . S
C922 C924 1.372 1_565 S
C923 H902 0.950 . S
C923 C922 1.373 . S
C923 C939 1.377 . S
C924 C922 1.372 1_545 S
C924 C925 1.567 . S
C924 C938 1.360 1_545 S
C925 C924 1.567 . S
C925 C926 1.397 . S
C925 C930 1.363 . S
C926 H903 0.950 . S
C926 C925 1.397 . S
C926 C927 1.334 . S
C927 H904 0.950 . S
C927 C926 1.334 . S
C927 C928 1.287 . S
C928 C927 1.287 . S
C928 C929 1.524 . S
C928 H947 0.913 . S
C929 H905 0.950 . S
C929 C928 1.524 . S
C929 C930 1.415 . S
C930 H906 0.894 1_545 S
C930 C925 1.363 . S
C930 C929 1.415 . S
C931 H907 0.951 . S
C931 C932 1.366 . S
C931 C933 1.388 . S
C932 C931 1.366 . S
C932 C936 1.385 . S
C933 H908 0.951 . S
C933 C931 1.388 . S
C933 C934 1.366 . S
C934 C933 1.366 . S
C934 C935 1.414 . S
C934 C937 1.499 . S
C935 H909 0.950 . S
C935 C934 1.414 . S
C935 C936 1.374 . S
C936 H910 0.950 . S
C936 C932 1.385 . S
C936 C935 1.374 . S
C937 C934 1.499 . S
C937 C938 1.373 . S
C937 C939 1.389 . S
C938 H911 0.959 . S
C938 C924 1.360 1_565 S
C938 C937 1.373 . S
C939 C923 1.377 . S
C939 C937 1.389 . S
C939 C940 1.524 . S
C940 C939 1.524 . S
C940 C941 1.397 . S
C940 C945 1.363 . S
C941 H912 0.950 . S
C941 C940 1.397 . S
C941 C942 1.334 . S
C942 H913 0.950 . S
C942 C941 1.334 . S
C942 C943 1.287 . S
C943 C942 1.287 . S
C943 C944 1.524 . S
C943 H946 0.999 . S
C944 H914 0.950 . S
C944 C943 1.524 . S
C944 C945 1.415 . S
C945 H915 0.950 . S
C945 C940 1.363 . S
C945 C944 1.415 . S
H946 C943 0.999 . S
H947 C928 0.913 . S
H948 C966 0.951 . S
H949 C968 0.951 . S
H950 C970 0.950 . S
H951 C971 0.950 . S
H952 C973 0.950 . S
H953 C976 0.950 . S
H954 C977 0.950 . S
H955 C979 0.950 . S
H956 C980 0.950 . S
H957 C981 0.951 . S
H958 C983 0.951 . S
H959 C985 0.950 . S
H960 C986 0.950 . S
H961 C988 0.950 . S
H962 C991 0.950 . S
H963 C992 0.950 . S
H964 C994 0.950 . S
H965 C995 0.950 . S
C966 H948 0.951 . S
C966 C967 1.366 . S
C966 C968 1.388 . S
C967 C966 1.366 . S
C967 C971 1.385 . S
C968 H949 0.951 . S
C968 C966 1.388 . S
C968 C969 1.366 . S
C969 C968 1.366 . S
C969 C970 1.414 . S
C969 C972 1.499 . S
C970 H950 0.950 . S
C970 C969 1.414 . S
C970 C971 1.374 . S
C971 H951 0.950 . S
C971 C967 1.385 . S
C971 C970 1.374 . S
C972 C969 1.499 . S
C972 C973 1.373 . S
C972 C974 1.389 . S
C973 H952 0.950 . S
C973 C972 1.373 . S
C973 C989 1.377 . S
C974 C972 1.389 . S
C974 C975 1.524 . S
C974 C988 1.377 . S
C975 C974 1.524 . S
C975 C976 1.397 . S
C975 C980 1.363 . S
C976 H953 0.950 . S
C976 C975 1.397 . S
C976 C977 1.334 . S
C977 H954 0.950 . S
C977 C976 1.334 . S
C977 C978 1.287 . S
C978 C977 1.287 . S
C978 C979 1.524 . S
C978 H997 0.913 . S
C979 H955 0.950 . S
C979 C978 1.524 . S
C979 C980 1.415 . S
C980 H956 0.950 . S
C980 C975 1.363 . S
C980 C979 1.415 . S
C981 H957 0.951 . S
C981 C982 1.366 . S
C981 C983 1.388 . S
C982 C981 1.366 . S
C982 C986 1.385 . S
C983 H958 0.951 . S
C983 C981 1.388 . S
C983 C984 1.366 . S
C984 C983 1.366 . S
C984 C985 1.414 . S
C984 C987 1.499 . S
C985 H959 0.950 . S
C985 C984 1.414 . S
C985 C986 1.374 . S
C986 H960 0.950 . S
C986 C982 1.385 . S
C986 C985 1.374 . S
C987 C984 1.499 . S
C987 C988 1.373 . S
C987 C989 1.389 . S
C988 H961 0.950 . S
C988 C974 1.377 . S
C988 C987 1.373 . S
C989 C973 1.377 . S
C989 C987 1.389 . S
C989 C990 1.524 . S
C990 C989 1.524 . S
C990 C991 1.397 . S
C990 C995 1.363 . S
C991 H962 0.950 . S
C991 C990 1.397 . S
C991 C992 1.334 . S
C992 H963 0.950 . S
C992 C991 1.334 . S
C992 C993 1.287 . S
C993 C992 1.287 . S
C993 C994 1.524 . S
C993 H996 0.999 . S
C994 H964 0.950 . S
C994 C993 1.524 . S
C994 C995 1.415 . S
C995 H965 0.950 . S
C995 C990 1.363 . S
C995 C994 1.415 . S
H996 C993 0.999 . S
H997 C978 0.913 . S
H998 C1016 0.951 . S
H999 C1018 0.951 . S
H1000 C1020 0.950 . S
H1001 C1021 0.950 . S
H1002 C1023 0.950 . S
H1003 C1026 0.950 . S
H1004 C1027 0.950 . S
H1005 C1029 0.950 . S
H1006 C1030 0.950 . S
H1007 C1031 0.951 . S
H1008 C1033 0.951 . S
H1009 C1035 0.950 . S
H1010 C1036 0.950 . S
H1011 C1038 0.950 . S
H1012 C1041 0.950 . S
H1013 C1042 0.950 . S
H1014 C1044 0.950 . S
H1015 C1045 0.950 . S
C1016 H998 0.951 . S
C1016 C1017 1.366 . S
C1016 C1018 1.388 . S
C1017 C1016 1.366 . S
C1017 C1021 1.385 . S
C1018 H999 0.951 . S
C1018 C1016 1.388 . S
C1018 C1019 1.366 . S
C1019 C1018 1.366 . S
C1019 C1020 1.414 . S
C1019 C1022 1.499 . S
C1020 H1000 0.950 . S
C1020 C1019 1.414 . S
C1020 C1021 1.374 . S
C1021 H1001 0.950 . S
C1021 C1017 1.385 . S
C1021 C1020 1.374 . S
C1022 C1019 1.499 . S
C1022 C1023 1.373 . S
C1022 C1024 1.389 . S
C1023 H1002 0.950 . S
C1023 C1022 1.373 . S
C1023 C1039 1.377 . S
C1024 C1022 1.389 . S
C1024 C1025 1.524 . S
C1024 C1038 1.377 . S
C1025 C1024 1.524 . S
C1025 C1026 1.397 . S
C1025 C1030 1.363 . S
C1026 H1003 0.950 . S
C1026 C1025 1.397 . S
C1026 C1027 1.334 . S
C1027 H1004 0.950 . S
C1027 C1026 1.334 . S
C1027 C1028 1.287 . S
C1028 C1027 1.287 . S
C1028 C1029 1.524 . S
C1028 H1047 0.913 . S
C1029 H1005 0.950 . S
C1029 C1028 1.524 . S
C1029 C1030 1.415 . S
C1030 H1006 0.950 . S
C1030 C1025 1.363 . S
C1030 C1029 1.415 . S
C1031 H1007 0.951 . S
C1031 C1032 1.366 . S
C1031 C1033 1.388 . S
C1032 C1031 1.366 . S
C1032 C1036 1.385 . S
C1033 H1008 0.951 . S
C1033 C1031 1.388 . S
C1033 C1034 1.366 . S
C1034 C1033 1.366 . S
C1034 C1035 1.414 . S
C1034 C1037 1.499 . S
C1035 H1009 0.950 . S
C1035 C1034 1.414 . S
C1035 C1036 1.374 . S
C1036 H1010 0.950 . S
C1036 C1032 1.385 . S
C1036 C1035 1.374 . S
C1037 C1034 1.499 . S
C1037 C1038 1.373 . S
C1037 C1039 1.389 . S
C1038 H1011 0.950 . S
C1038 C1024 1.377 . S
C1038 C1037 1.373 . S
C1039 C1023 1.377 . S
C1039 C1037 1.389 . S
C1039 C1040 1.524 . S
C1040 C1039 1.524 . S
C1040 C1041 1.397 . S
C1040 C1045 1.363 . S
C1041 H1012 0.950 . S
C1041 C1040 1.397 . S
C1041 C1042 1.334 . S
C1042 H1013 0.950 . S
C1042 C1041 1.334 . S
C1042 C1043 1.287 . S
C1043 C1042 1.287 . S
C1043 C1044 1.524 . S
C1043 H1046 0.999 . S
C1044 H1014 0.950 . S
C1044 C1043 1.524 . S
C1044 C1045 1.415 . S
C1045 H1015 0.950 . S
C1045 C1040 1.363 . S
C1045 C1044 1.415 . S
H1046 C1043 0.999 . S
H1047 C1028 0.913 . S
H1048 C1066 0.951 . S
H1049 C1068 0.951 . S
H1050 C1070 0.950 . S
H1051 C1071 0.950 . S
H1052 C1073 0.950 . S
H1053 C1076 0.950 . S
H1054 C1077 0.950 . S
H1055 C1079 0.950 . S
H1056 C1080 0.950 . S
H1057 C1081 0.951 . S
H1058 C1083 0.951 . S
H1059 C1085 0.936 1_655 S
H1060 C1086 0.950 . S
H1061 C1088 0.969 . S
H1062 C1091 0.950 . S
H1063 C1092 0.950 . S
H1064 C1094 0.950 . S
H1065 C1095 0.950 . S
C1066 H1048 0.951 . S
C1066 C1067 1.366 . S
C1066 C1068 1.388 . S
C1067 C1066 1.366 . S
C1067 C1071 1.385 1_655 S
C1068 H1049 0.951 . S
C1068 C1066 1.388 . S
C1068 C1069 1.366 1_655 S
C1069 C1068 1.366 1_455 S
C1069 C1070 1.414 . S
C1069 C1072 1.499 . S
C1070 H1050 0.950 . S
C1070 C1069 1.414 . S
C1070 C1071 1.374 . S
C1071 H1051 0.950 . S
C1071 C1067 1.385 1_455 S
C1071 C1070 1.374 . S
C1072 C1069 1.499 . S
C1072 C1073 1.373 . S
C1072 C1074 1.389 1_454 S
C1073 H1052 0.950 . S
C1073 C1072 1.373 . S
C1073 C1089 1.377 1_554 S
C1074 C1072 1.389 1_656 S
C1074 C1075 1.524 . S
C1074 C1088 1.382 . S
C1075 C1074 1.524 . S
C1075 C1076 1.397 . S
C1075 C1080 1.363 . S
C1076 H1053 0.950 . S
C1076 C1075 1.397 . S
C1076 C1077 1.334 . S
C1077 H1054 0.950 . S
C1077 C1076 1.334 . S
C1077 C1078 1.287 . S
C1078 C1077 1.287 . S
C1078 C1079 1.524 . S
C1078 H1097 0.913 . S
C1079 H1055 0.950 . S
C1079 C1078 1.524 . S
C1079 C1080 1.415 . S
C1080 H1056 0.950 . S
C1080 C1075 1.363 . S
C1080 C1079 1.415 . S
C1081 H1057 0.951 . S
C1081 C1082 1.366 . S
C1081 C1083 1.388 . S
C1082 C1081 1.366 . S
C1082 C1086 1.385 . S
C1083 H1058 0.951 . S
C1083 C1081 1.388 . S
C1083 C1084 1.366 . S
C1084 C1083 1.366 . S
C1084 C1085 1.414 . S
C1084 C1087 1.499 . S
C1085 H1059 0.936 1_455 S
C1085 C1084 1.414 . S
C1085 C1086 1.374 . S
C1086 H1060 0.950 . S
C1086 C1082 1.385 . S
C1086 C1085 1.374 . S
C1087 C1084 1.499 . S
C1087 C1088 1.350 1_455 S
C1087 C1089 1.389 . S
C1088 H1061 0.969 . S
C1088 C1074 1.382 . S
C1088 C1087 1.350 1_655 S
C1089 C1073 1.377 1_556 S
C1089 C1087 1.389 . S
C1089 C1090 1.524 . S
C1090 C1089 1.524 . S
C1090 C1091 1.397 1_556 S
C1090 C1095 1.363 . S
C1091 H1062 0.950 . S
C1091 C1090 1.397 1_554 S
C1091 C1092 1.334 . S
C1092 H1063 0.950 . S
C1092 C1091 1.334 . S
C1092 C1093 1.287 . S
C1093 C1092 1.287 . S
C1093 C1094 1.524 1_554 S
C1093 H1096 0.999 . S
C1094 H1064 0.950 . S
C1094 C1093 1.524 1_556 S
C1094 C1095 1.415 . S
C1095 H1065 0.950 . S
C1095 C1090 1.363 . S
C1095 C1094 1.415 . S
H1096 C1093 0.999 . S
H1097 C1078 0.913 . S
H1098 C1116 0.951 . S
H1099 C1118 0.951 . S
H1100 C1120 0.950 . S
H1101 C1121 0.950 . S
H1102 C1123 0.950 . S
H1103 C1126 0.950 . S
H1104 C1127 0.950 . S
H1105 C1129 0.950 . S
H1106 C1130 0.950 . S
H1107 C1131 0.946 1_565 S
H1108 C1133 0.951 1_565 S
H1109 C1135 0.950 . S
H1110 C1136 0.950 . S
H1111 C1138 0.950 1_554 S
H1112 C1141 0.950 . S
H1113 C1142 0.918 1_545 S
H1114 C1144 0.950 . S
H1115 C1145 0.950 . S
C1116 H1098 0.951 . S
C1116 C1117 1.366 1_545 S
C1116 C1118 1.388 . S
C1117 C1116 1.366 1_565 S
C1117 C1121 1.385 . S
C1118 H1099 0.951 . S
C1118 C1116 1.388 . S
C1118 C1119 1.366 . S
C1119 C1118 1.366 . S
C1119 C1120 1.414 1_545 S
C1119 C1122 1.499 . S
C1120 H1100 0.950 . S
C1120 C1119 1.414 1_565 S
C1120 C1121 1.374 . S
C1121 H1101 0.950 . S
C1121 C1117 1.385 . S
C1121 C1120 1.374 . S
C1122 C1119 1.499 . S
C1122 C1123 1.373 1_544 S
C1122 C1124 1.389 . S
C1123 H1102 0.950 . S
C1123 C1122 1.373 1_566 S
C1123 C1139 1.377 1_565 S
C1124 C1122 1.389 . S
C1124 C1125 1.524 . S
C1124 C1138 1.377 1_554 S
C1125 C1124 1.524 . S
C1125 C1126 1.397 . S
C1125 C1130 1.363 . S
C1126 H1103 0.950 . S
C1126 C1125 1.397 . S
C1126 C1127 1.334 . S
C1127 H1104 0.950 . S
C1127 C1126 1.334 . S
C1127 C1128 1.287 . S
C1128 C1127 1.287 . S
C1128 C1129 1.524 . S
C1128 H1147 0.913 . S
C1129 H1105 0.950 . S
C1129 C1128 1.524 . S
C1129 C1130 1.415 . S
C1130 H1106 0.950 . S
C1130 C1125 1.363 . S
C1130 C1129 1.415 . S
C1131 H1107 0.946 1_545 S
C1131 C1132 1.366 . S
C1131 C1133 1.388 . S
C1132 C1131 1.366 . S
C1132 C1136 1.385 . S
C1133 H1108 0.951 1_545 S
C1133 C1131 1.388 . S
C1133 C1134 1.366 . S
C1134 C1133 1.366 . S
C1134 C1135 1.414 . S
C1134 C1137 1.499 . S
C1135 H1109 0.950 . S
C1135 C1134 1.414 . S
C1135 C1136 1.374 . S
C1136 H1110 0.950 . S
C1136 C1132 1.385 . S
C1136 C1135 1.374 . S
C1137 C1134 1.499 . S
C1137 C1138 1.373 . S
C1137 C1139 1.389 . S
C1138 H1111 0.950 1_556 S
C1138 C1124 1.377 1_556 S
C1138 C1137 1.373 . S
C1139 C1123 1.377 1_545 S
C1139 C1137 1.389 . S
C1139 C1140 1.524 1_545 S
C1140 C1139 1.524 1_565 S
C1140 C1141 1.397 1_565 S
C1140 C1145 1.363 . S
C1141 H1112 0.950 . S
C1141 C1140 1.397 1_545 S
C1141 C1142 1.334 1_545 S
C1142 H1113 0.918 1_565 S
C1142 C1141 1.334 1_565 S
C1142 C1143 1.287 . S
C1143 C1142 1.287 . S
C1143 C1144 1.524 . S
C1143 H1146 0.999 . S
C1144 H1114 0.950 . S
C1144 C1143 1.524 . S
C1144 C1145 1.415 . S
C1145 H1115 0.950 . S
C1145 C1140 1.363 . S
C1145 C1144 1.415 . S
H1146 C1143 0.999 . S
H1147 C1128 0.913 . S
H1148 C1166 0.951 . S
H1149 C1168 0.951 . S
H1150 C1170 0.950 . S
H1151 C1171 0.950 . S
H1152 C1173 0.950 . S
H1153 C1176 0.950 . S
H1154 C1177 0.950 . S
H1155 C1179 0.950 . S
H1156 C1180 0.950 . S
H1157 C1181 0.951 . S
H1158 C1183 0.951 . S
H1159 C1185 0.950 . S
H1160 C1186 0.950 . S
H1161 C1188 0.950 . S
H1162 C1191 0.950 . S
H1163 C1192 0.950 . S
H1164 C1194 0.950 . S
H1165 C1195 0.950 . S
C1166 H1148 0.951 . S
C1166 C1167 1.366 . S
C1166 C1168 1.388 . S
C1167 C1166 1.366 . S
C1167 C1171 1.385 . S
C1168 H1149 0.951 . S
C1168 C1166 1.388 . S
C1168 C1169 1.366 . S
C1169 C1168 1.366 . S
C1169 C1170 1.414 . S
C1169 C1172 1.499 . S
C1170 H1150 0.950 . S
C1170 C1169 1.414 . S
C1170 C1171 1.374 . S
C1171 H1151 0.950 . S
C1171 C1167 1.385 . S
C1171 C1170 1.374 . S
C1172 C1169 1.499 . S
C1172 C1173 1.373 1_554 S
C1172 C1174 1.389 . S
C1173 H1152 0.950 . S
C1173 C1172 1.373 1_556 S
C1173 C1189 1.377 . S
C1174 C1172 1.389 . S
C1174 C1175 1.524 . S
C1174 C1188 1.377 1_554 S
C1175 C1174 1.524 . S
C1175 C1176 1.397 . S
C1175 C1180 1.363 . S
C1176 H1153 0.950 . S
C1176 C1175 1.397 . S
C1176 C1177 1.334 . S
C1177 H1154 0.950 . S
C1177 C1176 1.334 . S
C1177 C1178 1.287 . S
C1178 C1177 1.287 . S
C1178 C1179 1.524 . S
C1178 H1197 0.913 . S
C1179 H1155 0.950 . S
C1179 C1178 1.524 . S
C1179 C1180 1.415 . S
C1180 H1156 0.950 . S
C1180 C1175 1.363 . S
C1180 C1179 1.415 . S
C1181 H1157 0.951 . S
C1181 C1182 1.366 . S
C1181 C1183 1.388 . S
C1182 C1181 1.366 . S
C1182 C1186 1.385 . S
C1183 H1158 0.951 . S
C1183 C1181 1.388 . S
C1183 C1184 1.366 . S
C1184 C1183 1.366 . S
C1184 C1185 1.414 . S
C1184 C1187 1.499 . S
C1185 H1159 0.950 . S
C1185 C1184 1.414 . S
C1185 C1186 1.374 . S
C1186 H1160 0.950 . S
C1186 C1182 1.385 . S
C1186 C1185 1.374 . S
C1187 C1184 1.499 . S
C1187 C1188 1.373 . S
C1187 C1189 1.389 . S
C1188 H1161 0.950 . S
C1188 C1174 1.377 1_556 S
C1188 C1187 1.373 . S
C1189 C1173 1.377 . S
C1189 C1187 1.389 . S
C1189 C1190 1.524 . S
C1190 C1189 1.524 . S
C1190 C1191 1.397 . S
C1190 C1195 1.363 . S
C1191 H1162 0.950 . S
C1191 C1190 1.397 . S
C1191 C1192 1.334 . S
C1192 H1163 0.950 . S
C1192 C1191 1.334 . S
C1192 C1193 1.287 . S
C1193 C1192 1.287 . S
C1193 C1194 1.524 . S
C1193 H1196 0.999 . S
C1194 H1164 0.950 . S
C1194 C1193 1.524 . S
C1194 C1195 1.415 . S
C1195 H1165 0.950 . S
C1195 C1190 1.363 . S
C1195 C1194 1.415 . S
H1196 C1193 0.999 . S
H1197 C1178 0.913 . S
H1198 C1216 0.951 . S
H1199 C1218 0.951 1_556 S
H1200 C1220 0.950 . S
H1201 C1221 0.950 . S
H1202 C1223 0.950 . S
H1203 C1226 0.950 . S
H1204 C1227 0.950 . S
H1205 C1229 0.950 . S
H1206 C1230 0.950 . S
H1207 C1231 0.951 . S
H1208 C1233 0.951 . S
H1209 C1235 0.950 . S
H1210 C1236 0.950 . S
H1211 C1238 0.950 . S
H1212 C1241 0.950 . S
H1213 C1242 0.950 . S
H1214 C1244 0.950 . S
H1215 C1245 0.950 . S
C1216 H1198 0.951 . S
C1216 C1217 1.366 . S
C1216 C1218 1.388 . S
C1217 C1216 1.366 . S
C1217 C1221 1.385 . S
C1218 H1199 0.951 1_554 S
C1218 C1216 1.388 . S
C1218 C1219 1.366 . S
C1219 C1218 1.366 . S
C1219 C1220 1.414 . S
C1219 C1222 1.499 . S
C1220 H1200 0.950 . S
C1220 C1219 1.414 . S
C1220 C1221 1.374 . S
C1221 H1201 0.950 . S
C1221 C1217 1.385 . S
C1221 C1220 1.374 . S
C1222 C1219 1.499 . S
C1222 C1223 1.373 . S
C1222 C1224 1.389 1_554 S
C1223 H1202 0.950 . S
C1223 C1222 1.373 . S
C1223 C1239 1.377 1_554 S
C1224 C1222 1.389 1_556 S
C1224 C1225 1.524 . S
C1224 C1238 1.377 . S
C1225 C1224 1.524 . S
C1225 C1226 1.397 1_556 S
C1225 C1230 1.363 . S
C1226 H1203 0.950 . S
C1226 C1225 1.397 1_554 S
C1226 C1227 1.334 . S
C1227 H1204 0.950 . S
C1227 C1226 1.334 . S
C1227 C1228 1.287 1_554 S
C1228 C1227 1.287 1_556 S
C1228 C1229 1.524 . S
C1228 H1247 0.913 . S
C1229 H1205 0.950 . S
C1229 C1228 1.524 . S
C1229 C1230 1.415 . S
C1230 H1206 0.950 . S
C1230 C1225 1.363 . S
C1230 C1229 1.415 . S
C1231 H1207 0.951 . S
C1231 C1232 1.366 . S
C1231 C1233 1.388 . S
C1232 C1231 1.366 . S
C1232 C1236 1.385 . S
C1233 H1208 0.951 . S
C1233 C1231 1.388 . S
C1233 C1234 1.366 . S
C1234 C1233 1.366 . S
C1234 C1235 1.414 . S
C1234 C1237 1.499 . S
C1235 H1209 0.950 . S
C1235 C1234 1.414 . S
C1235 C1236 1.374 . S
C1236 H1210 0.950 . S
C1236 C1232 1.385 . S
C1236 C1235 1.374 . S
C1237 C1234 1.499 . S
C1237 C1238 1.373 . S
C1237 C1239 1.389 . S
C1238 H1211 0.950 . S
C1238 C1224 1.377 . S
C1238 C1237 1.373 . S
C1239 C1223 1.377 1_556 S
C1239 C1237 1.389 . S
C1239 C1240 1.524 . S
C1240 C1239 1.524 . S
C1240 C1241 1.397 . S
C1240 C1245 1.363 1_556 S
C1241 H1212 0.950 . S
C1241 C1240 1.397 . S
C1241 C1242 1.334 . S
C1242 H1213 0.950 . S
C1242 C1241 1.334 . S
C1242 C1243 1.287 . S
C1243 C1242 1.287 . S
C1243 C1244 1.524 1_556 S
C1243 H1246 0.999 . S
C1244 H1214 0.950 . S
C1244 C1243 1.524 1_554 S
C1244 C1245 1.415 . S
C1245 H1215 0.950 . S
C1245 C1240 1.363 1_554 S
C1245 C1244 1.415 . S
H1246 C1243 0.999 . S
H1247 C1228 0.913 . S
H1248 C1266 0.951 . S
H1249 C1268 0.951 . S
H1250 C1270 0.950 . S
H1251 C1271 0.950 . S
H1252 C1273 0.950 . S
H1253 C1276 0.950 1_455 S
H1254 C1277 0.950 . S
H1255 C1279 0.950 . S
H1256 C1280 0.950 . S
H1257 C1281 0.951 . S
H1258 C1283 0.951 . S
H1259 C1285 0.950 . S
H1260 C1286 0.950 . S
H1261 C1288 0.950 . S
H1262 C1291 0.950 . S
H1263 C1292 0.950 . S
H1264 C1294 0.950 . S
H1265 C1295 0.950 . S
C1266 H1248 0.951 . S
C1266 C1267 1.366 1_655 S
C1266 C1268 1.388 . S
C1267 C1266 1.366 1_455 S
C1267 C1271 1.385 . S
C1268 H1249 0.951 . S
C1268 C1266 1.388 . S
C1268 C1269 1.366 1_655 S
C1269 C1268 1.366 1_455 S
C1269 C1270 1.414 . S
C1269 C1272 1.499 . S
C1270 H1250 0.950 . S
C1270 C1269 1.414 . S
C1270 C1271 1.374 . S
C1271 H1251 0.950 . S
C1271 C1267 1.385 . S
C1271 C1270 1.374 . S
C1272 C1269 1.499 . S
C1272 C1273 1.373 . S
C1272 C1274 1.389 1_455 S
C1273 H1252 0.950 . S
C1273 C1272 1.373 . S
C1273 C1289 1.377 . S
C1274 C1272 1.389 1_655 S
C1274 C1275 1.524 . S
C1274 C1288 1.377 . S
C1275 C1274 1.524 . S
C1275 C1276 1.397 . S
C1275 C1280 1.363 . S
C1276 H1253 0.950 1_655 S
C1276 C1275 1.397 . S
C1276 C1277 1.334 . S
C1277 H1254 0.950 . S
C1277 C1276 1.334 . S
C1277 C1278 1.287 . S
C1278 C1277 1.287 . S
C1278 C1279 1.524 . S
C1278 H1297 0.913 . S
C1279 H1255 0.950 . S
C1279 C1278 1.524 . S
C1279 C1280 1.415 . S
C1280 H1256 0.950 . S
C1280 C1275 1.363 . S
C1280 C1279 1.415 . S
C1281 H1257 0.951 . S
C1281 C1282 1.366 . S
C1281 C1283 1.388 . S
C1282 C1281 1.366 . S
C1282 C1286 1.385 1_455 S
C1283 H1258 0.951 . S
C1283 C1281 1.388 . S
C1283 C1284 1.366 . S
C1284 C1283 1.366 . S
C1284 C1285 1.414 1_455 S
C1284 C1287 1.499 . S
C1285 H1259 0.950 . S
C1285 C1284 1.414 1_655 S
C1285 C1286 1.374 . S
C1286 H1260 0.950 . S
C1286 C1282 1.385 1_655 S
C1286 C1285 1.374 . S
C1287 C1284 1.499 . S
C1287 C1288 1.373 1_455 S
C1287 C1289 1.389 . S
C1288 H1261 0.950 . S
C1288 C1274 1.377 . S
C1288 C1287 1.373 1_655 S
C1289 C1273 1.377 . S
C1289 C1287 1.389 . S
C1289 C1290 1.524 . S
C1290 C1289 1.524 . S
C1290 C1291 1.397 . S
C1290 C1295 1.363 . S
C1291 H1262 0.950 . S
C1291 C1290 1.397 . S
C1291 C1292 1.334 . S
C1292 H1263 0.950 . S
C1292 C1291 1.334 . S
C1292 C1293 1.287 . S
C1293 C1292 1.287 . S
C1293 C1294 1.524 . S
C1293 H1296 0.999 . S
C1294 H1264 0.950 . S
C1294 C1293 1.524 . S
C1294 C1295 1.415 . S
C1295 H1265 0.950 . S
C1295 C1290 1.363 . S
C1295 C1294 1.415 . S
H1296 C1293 0.999 . S
H1297 C1278 0.913 . S
H1298 C1316 0.951 . S
H1299 C1318 0.951 . S
H1300 C1320 0.967 . S
H1301 C1321 0.974 . S
H1302 C1323 0.950 . S
H1303 C1326 0.950 . S
H1304 C1327 0.950 . S
H1305 C1329 0.950 . S
H1306 C1330 0.950 1_545 S
H1307 C1331 0.951 1_565 S
H1308 C1333 0.951 1_565 S
H1309 C1335 0.950 . S
H1310 C1336 0.950 . S
H1311 C1338 0.950 1_565 S
H1312 C1341 0.950 . S
H1313 C1342 0.950 . S
H1314 C1344 0.950 . S
H1315 C1345 0.950 . S
C1316 H1298 0.951 . S
C1316 C1317 1.366 . S
C1316 C1318 1.388 . S
C1317 C1316 1.366 . S
C1317 C1321 1.364 1_545 S
C1318 H1299 0.951 . S
C1318 C1316 1.388 . S
C1318 C1319 1.366 . S
C1319 C1318 1.366 . S
C1319 C1320 1.399 1_545 S
C1319 C1322 1.499 . S
C1320 H1300 0.967 . S
C1320 C1319 1.399 1_565 S
C1320 C1321 1.374 . S
C1321 H1301 0.974 . S
C1321 C1317 1.364 1_565 S
C1321 C1320 1.374 . S
C1322 C1319 1.499 . S
C1322 C1323 1.373 . S
C1322 C1324 1.392 . S
C1323 H1302 0.950 . S
C1323 C1322 1.373 . S
C1323 C1339 1.377 . S
C1324 C1322 1.392 . S
C1324 C1325 1.521 1_545 S
C1324 C1338 1.377 . S
C1325 C1324 1.521 1_565 S
C1325 C1326 1.397 . S
C1325 C1330 1.363 . S
C1326 H1303 0.950 . S
C1326 C1325 1.397 . S
C1326 C1327 1.334 . S
C1327 H1304 0.950 . S
C1327 C1326 1.334 . S
C1327 C1328 1.287 . S
C1328 C1327 1.287 . S
C1328 C1329 1.524 . S
C1328 H1347 0.913 . S
C1329 H1305 0.950 . S
C1329 C1328 1.524 . S
C1329 C1330 1.415 . S
C1330 H1306 0.950 1_565 S
C1330 C1325 1.363 . S
C1330 C1329 1.415 . S
C1331 H1307 0.951 1_545 S
C1331 C1332 1.366 . S
C1331 C1333 1.388 . S
C1332 C1331 1.366 . S
C1332 C1336 1.385 . S
C1333 H1308 0.951 1_545 S
C1333 C1331 1.388 . S
C1333 C1334 1.366 . S
C1334 C1333 1.366 . S
C1334 C1335 1.414 . S
C1334 C1337 1.499 . S
C1335 H1309 0.950 . S
C1335 C1334 1.414 . S
C1335 C1336 1.374 . S
C1336 H1310 0.950 . S
C1336 C1332 1.385 . S
C1336 C1335 1.374 . S
C1337 C1334 1.499 . S
C1337 C1338 1.373 . S
C1337 C1339 1.389 . S
C1338 H1311 0.950 1_545 S
C1338 C1324 1.377 . S
C1338 C1337 1.373 . S
C1339 C1323 1.377 . S
C1339 C1337 1.389 . S
C1339 C1340 1.524 . S
C1340 C1339 1.524 . S
C1340 C1341 1.397 . S
C1340 C1345 1.363 . S
C1341 H1312 0.950 . S
C1341 C1340 1.397 . S
C1341 C1342 1.334 . S
C1342 H1313 0.950 . S
C1342 C1341 1.334 . S
C1342 C1343 1.287 . S
C1343 C1342 1.287 . S
C1343 C1344 1.524 . S
C1343 H1346 0.999 . S
C1344 H1314 0.950 . S
C1344 C1343 1.524 . S
C1344 C1345 1.415 . S
C1345 H1315 0.950 . S
C1345 C1340 1.363 . S
C1345 C1344 1.415 . S
H1346 C1343 0.999 . S
H1347 C1328 0.913 . S
H1348 C1366 0.951 . S
H1349 C1368 0.951 . S
H1350 C1370 0.950 . S
H1351 C1371 0.950 . S
H1352 C1373 0.950 . S
H1353 C1376 0.950 . S
H1354 C1377 0.950 . S
H1355 C1379 0.950 . S
H1356 C1380 0.950 . S
H1357 C1381 0.951 . S
H1358 C1383 0.951 . S
H1359 C1385 0.950 . S
H1360 C1386 0.950 . S
H1361 C1388 0.950 . S
H1362 C1391 0.950 . S
H1363 C1392 0.950 . S
H1364 C1394 0.950 . S
H1365 C1395 0.950 . S
C1366 H1348 0.951 . S
C1366 C1367 1.366 . S
C1366 C1368 1.388 . S
C1367 C1366 1.366 . S
C1367 C1371 1.385 . S
C1368 H1349 0.951 . S
C1368 C1366 1.388 . S
C1368 C1369 1.366 . S
C1369 C1368 1.366 . S
C1369 C1370 1.414 . S
C1369 C1372 1.499 . S
C1370 H1350 0.950 . S
C1370 C1369 1.414 . S
C1370 C1371 1.374 . S
C1371 H1351 0.950 . S
C1371 C1367 1.385 . S
C1371 C1370 1.374 . S
C1372 C1369 1.499 . S
C1372 C1373 1.373 . S
C1372 C1374 1.389 . S
C1373 H1352 0.950 . S
C1373 C1372 1.373 . S
C1373 C1389 1.377 . S
C1374 C1372 1.389 . S
C1374 C1375 1.524 . S
C1374 C1388 1.377 . S
C1375 C1374 1.524 . S
C1375 C1376 1.397 . S
C1375 C1380 1.363 . S
C1376 H1353 0.950 . S
C1376 C1375 1.397 . S
C1376 C1377 1.334 . S
C1377 H1354 0.950 . S
C1377 C1376 1.334 . S
C1377 C1378 1.287 . S
C1378 C1377 1.287 . S
C1378 C1379 1.524 . S
C1378 H1397 0.913 . S
C1379 H1355 0.950 . S
C1379 C1378 1.524 . S
C1379 C1380 1.415 . S
C1380 H1356 0.950 . S
C1380 C1375 1.363 . S
C1380 C1379 1.415 . S
C1381 H1357 0.951 . S
C1381 C1382 1.366 . S
C1381 C1383 1.388 . S
C1382 C1381 1.366 . S
C1382 C1386 1.385 . S
C1383 H1358 0.951 . S
C1383 C1381 1.388 . S
C1383 C1384 1.366 . S
C1384 C1383 1.366 . S
C1384 C1385 1.414 . S
C1384 C1387 1.499 . S
C1385 H1359 0.950 . S
C1385 C1384 1.414 . S
C1385 C1386 1.374 . S
C1386 H1360 0.950 . S
C1386 C1382 1.385 . S
C1386 C1385 1.374 . S
C1387 C1384 1.499 . S
C1387 C1388 1.373 . S
C1387 C1389 1.389 . S
C1388 H1361 0.950 . S
C1388 C1374 1.377 . S
C1388 C1387 1.373 . S
C1389 C1373 1.377 . S
C1389 C1387 1.389 . S
C1389 C1390 1.524 . S
C1390 C1389 1.524 . S
C1390 C1391 1.397 . S
C1390 C1395 1.363 . S
C1391 H1362 0.950 . S
C1391 C1390 1.397 . S
C1391 C1392 1.334 . S
C1392 H1363 0.950 . S
C1392 C1391 1.334 . S
C1392 C1393 1.287 . S
C1393 C1392 1.287 . S
C1393 C1394 1.524 . S
C1393 H1396 0.999 . S
C1394 H1364 0.950 . S
C1394 C1393 1.524 . S
C1394 C1395 1.415 . S
C1395 H1365 0.950 . S
C1395 C1390 1.363 . S
C1395 C1394 1.415 . S
H1396 C1393 0.999 . S
H1397 C1378 0.913 . S
H1398 C1416 0.951 . S
H1399 C1418 0.951 . S
H1400 C1420 0.950 . S
H1401 C1421 0.950 . S
H1402 C1423 0.950 . S
H1403 C1426 0.950 . S
H1404 C1427 0.950 . S
H1405 C1429 0.950 . S
H1406 C1430 0.950 . S
H1407 C1431 0.951 . S
H1408 C1433 0.951 . S
H1409 C1435 0.950 . S
H1410 C1436 0.950 . S
H1411 C1438 0.950 . S
H1412 C1441 0.950 . S
H1413 C1442 0.950 . S
H1414 C1444 0.950 . S
H1415 C1445 0.950 . S
C1416 H1398 0.951 . S
C1416 C1417 1.366 . S
C1416 C1418 1.388 . S
C1417 C1416 1.366 . S
C1417 C1421 1.385 . S
C1418 H1399 0.951 . S
C1418 C1416 1.388 . S
C1418 C1419 1.366 . S
C1419 C1418 1.366 . S
C1419 C1420 1.414 . S
C1419 C1422 1.499 . S
C1420 H1400 0.950 . S
C1420 C1419 1.414 . S
C1420 C1421 1.374 . S
C1421 H1401 0.950 . S
C1421 C1417 1.385 . S
C1421 C1420 1.374 . S
C1422 C1419 1.499 . S
C1422 C1423 1.373 . S
C1422 C1424 1.389 . S
C1423 H1402 0.950 . S
C1423 C1422 1.373 . S
C1423 C1439 1.377 . S
C1424 C1422 1.389 . S
C1424 C1425 1.524 . S
C1424 C1438 1.377 . S
C1425 C1424 1.524 . S
C1425 C1426 1.397 . S
C1425 C1430 1.363 . S
C1426 H1403 0.950 . S
C1426 C1425 1.397 . S
C1426 C1427 1.334 . S
C1427 H1404 0.950 . S
C1427 C1426 1.334 . S
C1427 C1428 1.287 . S
C1428 C1427 1.287 . S
C1428 C1429 1.524 . S
C1428 H1447 0.913 . S
C1429 H1405 0.950 . S
C1429 C1428 1.524 . S
C1429 C1430 1.415 . S
C1430 H1406 0.950 . S
C1430 C1425 1.363 . S
C1430 C1429 1.415 . S
C1431 H1407 0.951 . S
C1431 C1432 1.366 . S
C1431 C1433 1.388 . S
C1432 C1431 1.366 . S
C1432 C1436 1.385 . S
C1433 H1408 0.951 . S
C1433 C1431 1.388 . S
C1433 C1434 1.366 . S
C1434 C1433 1.366 . S
C1434 C1435 1.414 . S
C1434 C1437 1.499 . S
C1435 H1409 0.950 . S
C1435 C1434 1.414 . S
C1435 C1436 1.374 . S
C1436 H1410 0.950 . S
C1436 C1432 1.385 . S
C1436 C1435 1.374 . S
C1437 C1434 1.499 . S
C1437 C1438 1.373 . S
C1437 C1439 1.389 . S
C1438 H1411 0.950 . S
C1438 C1424 1.377 . S
C1438 C1437 1.373 . S
C1439 C1423 1.377 . S
C1439 C1437 1.389 . S
C1439 C1440 1.524 . S
C1440 C1439 1.524 . S
C1440 C1441 1.397 . S
C1440 C1445 1.363 . S
C1441 H1412 0.950 . S
C1441 C1440 1.397 . S
C1441 C1442 1.334 . S
C1442 H1413 0.950 . S
C1442 C1441 1.334 . S
C1442 C1443 1.287 . S
C1443 C1442 1.287 . S
C1443 C1444 1.524 . S
C1443 H1446 0.999 . S
C1444 H1414 0.950 . S
C1444 C1443 1.524 . S
C1444 C1445 1.415 . S
C1445 H1415 0.950 . S
C1445 C1440 1.363 . S
C1445 C1444 1.415 . S
H1446 C1443 0.999 . S
H1447 C1428 0.913 . S
H1448 C1466 0.951 . S
H1449 C1468 0.951 . S
H1450 C1470 0.950 . S
H1451 C1471 0.950 . S
H1452 C1473 0.950 . S
H1453 C1476 0.950 . S
H1454 C1477 0.950 . S
H1455 C1479 0.950 . S
H1456 C1480 0.950 . S
H1457 C1481 0.951 . S
H1458 C1483 0.951 . S
H1459 C1485 0.950 . S
H1460 C1486 0.950 . S
H1461 C1488 0.950 . S
H1462 C1491 0.950 . S
H1463 C1492 0.950 . S
H1464 C1494 0.950 . S
H1465 C1495 0.950 . S
C1466 H1448 0.951 . S
C1466 C1467 1.366 . S
C1466 C1468 1.388 . S
C1467 C1466 1.366 . S
C1467 C1471 1.385 . S
C1468 H1449 0.951 . S
C1468 C1466 1.388 . S
C1468 C1469 1.366 . S
C1469 C1468 1.366 . S
C1469 C1470 1.414 . S
C1469 C1472 1.499 . S
C1470 H1450 0.950 . S
C1470 C1469 1.414 . S
C1470 C1471 1.374 . S
C1471 H1451 0.950 . S
C1471 C1467 1.385 . S
C1471 C1470 1.374 . S
C1472 C1469 1.499 . S
C1472 C1473 1.373 . S
C1472 C1474 1.389 1_655 S
C1473 H1452 0.950 . S
C1473 C1472 1.373 . S
C1473 C1489 1.377 . S
C1474 C1472 1.389 1_455 S
C1474 C1475 1.524 . S
C1474 C1488 1.377 . S
C1475 C1474 1.524 . S
C1475 C1476 1.397 . S
C1475 C1480 1.363 . S
C1476 H1453 0.950 . S
C1476 C1475 1.397 . S
C1476 C1477 1.334 . S
C1477 H1454 0.950 . S
C1477 C1476 1.334 . S
C1477 C1478 1.287 . S
C1478 C1477 1.287 . S
C1478 C1479 1.524 . S
C1478 H1497 0.913 . S
C1479 H1455 0.950 . S
C1479 C1478 1.524 . S
C1479 C1480 1.415 . S
C1480 H1456 0.950 . S
C1480 C1475 1.363 . S
C1480 C1479 1.415 . S
C1481 H1457 0.951 . S
C1481 C1482 1.366 . S
C1481 C1483 1.388 . S
C1482 C1481 1.366 . S
C1482 C1486 1.385 . S
C1483 H1458 0.951 . S
C1483 C1481 1.388 . S
C1483 C1484 1.366 . S
C1484 C1483 1.366 . S
C1484 C1485 1.414 . S
C1484 C1487 1.499 . S
C1485 H1459 0.950 . S
C1485 C1484 1.414 . S
C1485 C1486 1.374 . S
C1486 H1460 0.950 . S
C1486 C1482 1.385 . S
C1486 C1485 1.374 . S
C1487 C1484 1.499 . S
C1487 C1488 1.373 1_655 S
C1487 C1489 1.389 . S
C1488 H1461 0.950 . S
C1488 C1474 1.377 . S
C1488 C1487 1.373 1_455 S
C1489 C1473 1.377 . S
C1489 C1487 1.389 . S
C1489 C1490 1.524 . S
C1490 C1489 1.524 . S
C1490 C1491 1.397 . S
C1490 C1495 1.363 . S
C1491 H1462 0.950 . S
C1491 C1490 1.397 . S
C1491 C1492 1.334 . S
C1492 H1463 0.950 . S
C1492 C1491 1.334 . S
C1492 C1493 1.287 . S
C1493 C1492 1.287 . S
C1493 C1494 1.524 . S
C1493 H1496 0.999 . S
C1494 H1464 0.950 . S
C1494 C1493 1.524 . S
C1494 C1495 1.415 . S
C1495 H1465 0.950 . S
C1495 C1490 1.363 . S
C1495 C1494 1.415 . S
H1496 C1493 0.999 . S
H1497 C1478 0.913 . S
H1498 C1516 0.951 . S
H1499 C1518 0.951 . S
H1500 C1520 0.950 . S
H1501 C1521 0.950 . S
H1502 C1523 0.950 . S
H1503 C1526 0.950 . S
H1504 C1527 0.950 . S
H1505 C1529 0.950 . S
H1506 C1530 0.950 1_545 S
H1507 C1531 0.951 . S
H1508 C1533 0.951 . S
H1509 C1535 0.950 . S
H1510 C1536 0.950 . S
H1511 C1538 0.950 . S
H1512 C1541 0.950 . S
H1513 C1542 0.950 . S
H1514 C1544 0.966 . S
H1515 C1545 0.950 . S
C1516 H1498 0.951 . S
C1516 C1517 1.366 1_545 S
C1516 C1518 1.388 . S
C1517 C1516 1.366 1_565 S
C1517 C1521 1.385 . S
C1518 H1499 0.951 . S
C1518 C1516 1.388 . S
C1518 C1519 1.366 1_545 S
C1519 C1518 1.366 1_565 S
C1519 C1520 1.414 . S
C1519 C1522 1.499 . S
C1520 H1500 0.950 . S
C1520 C1519 1.414 . S
C1520 C1521 1.374 . S
C1521 H1501 0.950 . S
C1521 C1517 1.385 . S
C1521 C1520 1.374 . S
C1522 C1519 1.499 . S
C1522 C1523 1.373 . S
C1522 C1524 1.389 . S
C1523 H1502 0.950 . S
C1523 C1522 1.373 . S
C1523 C1539 1.377 . S
C1524 C1522 1.389 . S
C1524 C1525 1.524 . S
C1524 C1538 1.377 . S
C1525 C1524 1.524 . S
C1525 C1526 1.397 . S
C1525 C1530 1.363 . S
C1526 H1503 0.950 . S
C1526 C1525 1.397 . S
C1526 C1527 1.334 . S
C1527 H1504 0.950 . S
C1527 C1526 1.334 . S
C1527 C1528 1.287 . S
C1528 C1527 1.287 . S
C1528 C1529 1.524 . S
C1528 H1547 0.913 . S
C1529 H1505 0.950 . S
C1529 C1528 1.524 . S
C1529 C1530 1.415 . S
C1530 H1506 0.950 1_565 S
C1530 C1525 1.363 . S
C1530 C1529 1.415 . S
C1531 H1507 0.951 . S
C1531 C1532 1.366 . S
C1531 C1533 1.388 . S
C1532 C1531 1.366 . S
C1532 C1536 1.385 1_565 S
C1533 H1508 0.951 . S
C1533 C1531 1.388 . S
C1533 C1534 1.366 . S
C1534 C1533 1.366 . S
C1534 C1535 1.414 1_565 S
C1534 C1537 1.499 . S
C1535 H1509 0.950 . S
C1535 C1534 1.414 1_545 S
C1535 C1536 1.374 . S
C1536 H1510 0.950 . S
C1536 C1532 1.385 1_545 S
C1536 C1535 1.374 . S
C1537 C1534 1.499 . S
C1537 C1538 1.373 . S
C1537 C1539 1.389 . S
C1538 H1511 0.950 . S
C1538 C1524 1.377 . S
C1538 C1537 1.373 . S
C1539 C1523 1.377 . S
C1539 C1537 1.389 . S
C1539 C1540 1.524 1_565 S
C1540 C1539 1.524 1_545 S
C1540 C1541 1.397 . S
C1540 C1545 1.363 1_545 S
C1541 H1512 0.950 . S
C1541 C1540 1.397 . S
C1541 C1542 1.334 . S
C1542 H1513 0.950 . S
C1542 C1541 1.334 . S
C1542 C1543 1.287 . S
C1543 C1542 1.287 . S
C1543 C1544 1.496 1_545 S
C1543 H1546 0.999 . S
C1544 H1514 0.966 . S
C1544 C1543 1.496 1_565 S
C1544 C1545 1.426 . S
C1545 H1515 0.950 . S
C1545 C1540 1.363 1_565 S
C1545 C1544 1.426 . S
H1546 C1543 0.999 . S
H1547 C1528 0.913 . S
H1548 C1566 0.951 . S
H1549 C1568 0.951 . S
H1550 C1570 0.950 . S
H1551 C1571 0.950 . S
H1552 C1573 0.950 . S
H1553 C1576 0.950 . S
H1554 C1577 0.950 . S
H1555 C1579 0.950 . S
H1556 C1580 0.950 . S
H1557 C1581 0.951 . S
H1558 C1583 0.951 . S
H1559 C1585 0.950 . S
H1560 C1586 0.950 . S
H1561 C1588 0.950 . S
H1562 C1591 0.950 . S
H1563 C1592 0.950 . S
H1564 C1594 0.950 . S
H1565 C1595 0.950 . S
C1566 H1548 0.951 . S
C1566 C1567 1.366 . S
C1566 C1568 1.388 . S
C1567 C1566 1.366 . S
C1567 C1571 1.385 . S
C1568 H1549 0.951 . S
C1568 C1566 1.388 . S
C1568 C1569 1.366 . S
C1569 C1568 1.366 . S
C1569 C1570 1.414 . S
C1569 C1572 1.499 . S
C1570 H1550 0.950 . S
C1570 C1569 1.414 . S
C1570 C1571 1.374 . S
C1571 H1551 0.950 . S
C1571 C1567 1.385 . S
C1571 C1570 1.374 . S
C1572 C1569 1.499 . S
C1572 C1573 1.373 . S
C1572 C1574 1.389 . S
C1573 H1552 0.950 . S
C1573 C1572 1.373 . S
C1573 C1589 1.377 . S
C1574 C1572 1.389 . S
C1574 C1575 1.524 . S
C1574 C1588 1.377 . S
C1575 C1574 1.524 . S
C1575 C1576 1.397 . S
C1575 C1580 1.363 . S
C1576 H1553 0.950 . S
C1576 C1575 1.397 . S
C1576 C1577 1.334 . S
C1577 H1554 0.950 . S
C1577 C1576 1.334 . S
C1577 C1578 1.287 . S
C1578 C1577 1.287 . S
C1578 C1579 1.524 . S
C1578 H1597 0.913 . S
C1579 H1555 0.950 . S
C1579 C1578 1.524 . S
C1579 C1580 1.415 . S
C1580 H1556 0.950 . S
C1580 C1575 1.363 . S
C1580 C1579 1.415 . S
C1581 H1557 0.951 . S
C1581 C1582 1.366 . S
C1581 C1583 1.388 . S
C1582 C1581 1.366 . S
C1582 C1586 1.385 . S
C1583 H1558 0.951 . S
C1583 C1581 1.388 . S
C1583 C1584 1.366 . S
C1584 C1583 1.366 . S
C1584 C1585 1.414 . S
C1584 C1587 1.499 . S
C1585 H1559 0.950 . S
C1585 C1584 1.414 . S
C1585 C1586 1.374 . S
C1586 H1560 0.950 . S
C1586 C1582 1.385 . S
C1586 C1585 1.374 . S
C1587 C1584 1.499 . S
C1587 C1588 1.373 . S
C1587 C1589 1.389 . S
C1588 H1561 0.950 . S
C1588 C1574 1.377 . S
C1588 C1587 1.373 . S
C1589 C1573 1.377 . S
C1589 C1587 1.389 . S
C1589 C1590 1.524 . S
C1590 C1589 1.524 . S
C1590 C1591 1.397 . S
C1590 C1595 1.363 . S
C1591 H1562 0.950 . S
C1591 C1590 1.397 . S
C1591 C1592 1.334 . S
C1592 H1563 0.950 . S
C1592 C1591 1.334 . S
C1592 C1593 1.287 . S
C1593 C1592 1.287 . S
C1593 C1594 1.524 . S
C1593 H1596 0.999 . S
C1594 H1564 0.950 . S
C1594 C1593 1.524 . S
C1594 C1595 1.415 . S
C1595 H1565 0.950 . S
C1595 C1590 1.363 . S
C1595 C1594 1.415 . S
H1596 C1593 0.999 . S
H1597 C1578 0.913 . S
H1598 C1616 0.951 . S
H1599 C1618 0.951 . S
H1600 C1620 0.950 . S
H1601 C1621 0.950 . S
H1602 C1623 0.950 . S
H1603 C1626 0.950 . S
H1604 C1627 0.950 . S
H1605 C1629 0.950 . S
H1606 C1630 0.950 . S
H1607 C1631 0.951 . S
H1608 C1633 0.951 . S
H1609 C1635 0.950 . S
H1610 C1636 0.950 . S
H1611 C1638 0.950 . S
H1612 C1641 0.950 . S
H1613 C1642 0.950 . S
H1614 C1644 0.950 . S
H1615 C1645 0.950 . S
C1616 H1598 0.951 . S
C1616 C1617 1.366 . S
C1616 C1618 1.388 . S
C1617 C1616 1.366 . S
C1617 C1621 1.385 . S
C1618 H1599 0.951 . S
C1618 C1616 1.388 . S
C1618 C1619 1.366 . S
C1619 C1618 1.366 . S
C1619 C1620 1.414 . S
C1619 C1622 1.499 . S
C1620 H1600 0.950 . S
C1620 C1619 1.414 . S
C1620 C1621 1.374 . S
C1621 H1601 0.950 . S
C1621 C1617 1.385 . S
C1621 C1620 1.374 . S
C1622 C1619 1.499 . S
C1622 C1623 1.373 . S
C1622 C1624 1.389 . S
C1623 H1602 0.950 . S
C1623 C1622 1.373 . S
C1623 C1639 1.377 . S
C1624 C1622 1.389 . S
C1624 C1625 1.524 . S
C1624 C1638 1.377 . S
C1625 C1624 1.524 . S
C1625 C1626 1.397 . S
C1625 C1630 1.363 . S
C1626 H1603 0.950 . S
C1626 C1625 1.397 . S
C1626 C1627 1.334 . S
C1627 H1604 0.950 . S
C1627 C1626 1.334 . S
C1627 C1628 1.287 . S
C1628 C1627 1.287 . S
C1628 C1629 1.524 . S
C1628 H1647 0.913 . S
C1629 H1605 0.950 . S
C1629 C1628 1.524 . S
C1629 C1630 1.415 . S
C1630 H1606 0.950 . S
C1630 C1625 1.363 . S
C1630 C1629 1.415 . S
C1631 H1607 0.951 . S
C1631 C1632 1.366 . S
C1631 C1633 1.388 . S
C1632 C1631 1.366 . S
C1632 C1636 1.385 . S
C1633 H1608 0.951 . S
C1633 C1631 1.388 . S
C1633 C1634 1.366 . S
C1634 C1633 1.366 . S
C1634 C1635 1.414 . S
C1634 C1637 1.499 . S
C1635 H1609 0.950 . S
C1635 C1634 1.414 . S
C1635 C1636 1.374 . S
C1636 H1610 0.950 . S
C1636 C1632 1.385 . S
C1636 C1635 1.374 . S
C1637 C1634 1.499 . S
C1637 C1638 1.373 . S
C1637 C1639 1.389 . S
C1638 H1611 0.950 . S
C1638 C1624 1.377 . S
C1638 C1637 1.373 . S
C1639 C1623 1.377 . S
C1639 C1637 1.389 . S
C1639 C1640 1.524 . S
C1640 C1639 1.524 . S
C1640 C1641 1.397 . S
C1640 C1645 1.363 . S
C1641 H1612 0.950 . S
C1641 C1640 1.397 . S
C1641 C1642 1.334 . S
C1642 H1613 0.950 . S
C1642 C1641 1.334 . S
C1642 C1643 1.287 . S
C1643 C1642 1.287 . S
C1643 C1644 1.524 . S
C1643 H1646 0.999 . S
C1644 H1614 0.950 . S
C1644 C1643 1.524 . S
C1644 C1645 1.415 . S
C1645 H1615 0.950 . S
C1645 C1640 1.363 . S
C1645 C1644 1.415 . S
H1646 C1643 0.999 . S
H1647 C1628 0.913 . S
C467 C241 1.854 . S
C482 C297 1.997 . S
C532 C337 2.014 . S
C517 C277 1.913 . S
C582 C377 2.003 . S
C567 C169 1.857 . S
C632 C417 2.008 1_455 S
C617 C205 1.864 . S
C682 C306 2.003 1_565 S
C667 C97 1.859 . S
C717 C133 1.911 . S
C732 C346 2.014 . S
C767 C25 1.854 . S
C782 C386 2.002 . S
C817 C61 1.864 1_655 S
C832 C426 2.008 1_655 S
C882 C303 0.259 . S
C867 C211 0.267 . S
C932 C343 0.262 . S
C917 C247 0.270 . S
C982 C383 0.257 . S
C967 C253 0.279 . S
C1017 C175 0.269 . S
C1032 C423 0.261 . S
C1067 C67 0.350 1_655 S
C1082 C294 0.243 . S
C1132 C334 0.264 . S
C1117 C103 0.361 . S
C1182 C374 0.257 . S
C1167 C109 0.198 . S
C1217 C31 0.360 . S
C1232 C414 0.270 . S
C1267 C181 2.533 . S
C1282 C307 2.807 . S
C1317 C217 2.517 . S
C1332 C347 2.791 . S
C1382 C387 2.802 . S
C1367 C283 2.466 . S
C1432 C427 2.796 . S
C1417 C145 2.516 . S
C1467 C37 2.535 1_655 S
C1482 C298 2.808 . S
C1532 C338 2.792 . S
C1517 C73 2.522 . S
C1582 C378 2.802 . S
C1567 C139 2.458 . S
C1617 C1 2.526 . S
C1632 C418 2.802 . S
