# Generated by pormake.
# Topology pyr, (3,6)-cn, num edge types: 1
# Building blocks:
#     Node 0, Type 0, BuildingBlock: CUQRIR_clean_linker_1, # of connection points: 3
#     Node 1, Type 0, BuildingBlock: CUQRIR_clean_linker_1, # of connection points: 3
#     Node 2, Type 0, BuildingBlock: CUQRIR_clean_linker_1, # of connection points: 3
#     Node 3, Type 0, BuildingBlock: CUQRIR_clean_linker_1, # of connection points: 3
#     Node 4, Type 0, BuildingBlock: CUQRIR_clean_linker_1, # of connection points: 3
#     Node 5, Type 0, BuildingBlock: CUQRIR_clean_linker_1, # of connection points: 3
#     Node 6, Type 0, BuildingBlock: CUQRIR_clean_linker_1, # of connection points: 3
#     Node 7, Type 0, BuildingBlock: CUQRIR_clean_linker_1, # of connection points: 3
#     Node 8, Type 1, BuildingBlock: BETDEL_clean_sbu_0, # of connection points: 6
#     Node 9, Type 1, BuildingBlock: BETDEL_clean_sbu_0, # of connection points: 6
#     Node 10, Type 1, BuildingBlock: BETDEL_clean_sbu_0, # of connection points: 6
#     Node 11, Type 1, BuildingBlock: BETDEL_clean_sbu_0, # of connection points: 6
#     Edge 12, Type (0, 1), BuildingBlock: XUDNAN_clean_linker_2, # of connection points: 2
#     Edge 13, Type (0, 1), BuildingBlock: XUDNAN_clean_linker_2, # of connection points: 2
#     Edge 14, Type (0, 1), BuildingBlock: XUDNAN_clean_linker_2, # of connection points: 2
#     Edge 15, Type (0, 1), BuildingBlock: XUDNAN_clean_linker_2, # of connection points: 2
#     Edge 16, Type (0, 1), BuildingBlock: XUDNAN_clean_linker_2, # of connection points: 2
#     Edge 17, Type (0, 1), BuildingBlock: XUDNAN_clean_linker_2, # of connection points: 2
#     Edge 18, Type (0, 1), BuildingBlock: XUDNAN_clean_linker_2, # of connection points: 2
#     Edge 19, Type (0, 1), BuildingBlock: XUDNAN_clean_linker_2, # of connection points: 2
#     Edge 20, Type (0, 1), BuildingBlock: XUDNAN_clean_linker_2, # of connection points: 2
#     Edge 21, Type (0, 1), BuildingBlock: XUDNAN_clean_linker_2, # of connection points: 2
#     Edge 22, Type (0, 1), BuildingBlock: XUDNAN_clean_linker_2, # of connection points: 2
#     Edge 23, Type (0, 1), BuildingBlock: XUDNAN_clean_linker_2, # of connection points: 2
#     Edge 24, Type (0, 1), BuildingBlock: XUDNAN_clean_linker_2, # of connection points: 2
#     Edge 25, Type (0, 1), BuildingBlock: XUDNAN_clean_linker_2, # of connection points: 2
#     Edge 26, Type (0, 1), BuildingBlock: XUDNAN_clean_linker_2, # of connection points: 2
#     Edge 27, Type (0, 1), BuildingBlock: XUDNAN_clean_linker_2, # of connection points: 2
#     Edge 28, Type (0, 1), BuildingBlock: XUDNAN_clean_linker_2, # of connection points: 2
#     Edge 29, Type (0, 1), BuildingBlock: XUDNAN_clean_linker_2, # of connection points: 2
#     Edge 30, Type (0, 1), BuildingBlock: XUDNAN_clean_linker_2, # of connection points: 2
#     Edge 31, Type (0, 1), BuildingBlock: XUDNAN_clean_linker_2, # of connection points: 2
#     Edge 32, Type (0, 1), BuildingBlock: XUDNAN_clean_linker_2, # of connection points: 2
#     Edge 33, Type (0, 1), BuildingBlock: XUDNAN_clean_linker_2, # of connection points: 2
#     Edge 34, Type (0, 1), BuildingBlock: XUDNAN_clean_linker_2, # of connection points: 2
#     Edge 35, Type (0, 1), BuildingBlock: XUDNAN_clean_linker_2, # of connection points: 2
# Relax obj value: 0.101
# Max RMSD: 0.229
# Mean RMSD: 0.155
data_MOF--net-pyr--node1-BETDEL_clean_sbu_0--node2-CUQRIR_clean_linker_1--edge1-XUDNAN_clean_linker_2
_symmetry_space_group_name_H-M    P1
_symmetry_Int_Tables_number       1
_symmetry_cell_setting            triclinic
loop_
_symmetry_equiv_pos_as_xyz
'x, y, z'
_cell_length_a     33.673615
_cell_length_b     35.096337
_cell_length_c     31.747155
_cell_angle_alpha  90.273904
_cell_angle_beta   90.379606
_cell_angle_gamma 99.069773
loop_
_atom_site_label
_atom_site_type_symbol
_atom_site_fract_x
_atom_site_fract_y
_atom_site_fract_z
_atom_type_partial_charge
C0 C 0.22189 0.28106 0.165 0.0
N1 N 0.24258 0.25466 0.18152 0.0
N2 N 0.23468 0.29066 0.12565 0.0
C3 C 0.18727 0.29578 0.18592 0.0
C4 C 0.26405 0.26927 0.11875 0.0
N5 N 0.26924 0.24774 0.15298 0.0
C6 C 0.28357 0.26528 0.07687 0.0
H7 H 0.15868 0.27808 0.1753 0.0
H8 H 0.18645 0.3261 0.17665 0.0
H9 H 0.18954 0.29401 0.22072 0.0
H10 H 0.27598 0.28687 0.05398 0.0
H11 H 0.27341 0.23582 0.06416 0.0
H12 H 0.31669 0.26889 0.08097 0.0
C13 C 0.29205 0.83817 0.6632 0.0
N14 N 0.29012 0.87138 0.68443 0.0
N15 N 0.31717 0.81739 0.68287 0.0
C16 C 0.27202 0.82793 0.62124 0.0
C17 C 0.33065 0.83914 0.71691 0.0
N18 N 0.31404 0.87203 0.71817 0.0
C19 C 0.36128 0.82885 0.74799 0.0
H20 H 0.23949 0.82978 0.62346 0.0
H21 H 0.27577 0.79868 0.61035 0.0
H22 H 0.2851 0.84926 0.59743 0.0
H23 H 0.38019 0.80898 0.73419 0.0
H24 H 0.34537 0.81403 0.77527 0.0
H25 H 0.38106 0.85516 0.75959 0.0
C26 C 0.61242 0.3543 0.85391 0.0
N27 N 0.63562 0.35004 0.88814 0.0
N28 N 0.6251 0.38825 0.83462 0.0
C29 C 0.57682 0.32578 0.83934 0.0
C30 C 0.65707 0.40457 0.85799 0.0
N31 N 0.66316 0.38171 0.8911 0.0
C32 C 0.68531 0.44027 0.84514 0.0
H33 H 0.58728 0.30451 0.81778 0.0
H34 H 0.55509 0.34059 0.82183 0.0
H35 H 0.56145 0.31009 0.86644 0.0
H36 H 0.67796 0.46536 0.86317 0.0
H37 H 0.68245 0.4464 0.81112 0.0
H38 H 0.71699 0.43722 0.85207 0.0
C39 C 0.84077 0.67246 0.32259 0.0
N40 N 0.87542 0.69735 0.31612 0.0
N41 N 0.81826 0.68554 0.35319 0.0
C42 C 0.83063 0.63353 0.30148 0.0
C43 C 0.84084 0.7193 0.36558 0.0
N44 N 0.87611 0.72627 0.3439 0.0
C45 C 0.82626 0.74752 0.39543 0.0
H46 H 0.81536 0.6369 0.27096 0.0
H47 H 0.81046 0.61307 0.32132 0.0
H48 H 0.85828 0.62105 0.295 0.0
H49 H 0.83608 0.74187 0.42792 0.0
H50 H 0.79296 0.74436 0.39493 0.0
H51 H 0.83873 0.7777 0.38715 0.0
C52 C 0.76504 0.84261 0.8624 0.0
N53 N 0.7975 0.83451 0.84138 0.0
N54 N 0.75141 0.87343 0.84541 0.0
C55 C 0.7516 0.82538 0.90426 0.0
C56 C 0.77661 0.88347 0.81296 0.0
N57 N 0.80506 0.86028 0.81087 0.0
C58 C 0.77447 0.91766 0.78513 0.0
H59 H 0.71942 0.82711 0.90965 0.0
H60 H 0.76968 0.84181 0.92966 0.0
H61 H 0.75626 0.79482 0.90594 0.0
H62 H 0.79123 0.94402 0.80019 0.0
H63 H 0.74272 0.92204 0.78116 0.0
H64 H 0.78774 0.91363 0.75382 0.0
C65 C 0.78063 0.25081 0.42318 0.0
N66 N 0.78952 0.22101 0.3994 0.0
N67 N 0.74821 0.26448 0.4071 0.0
C68 C 0.80391 0.26695 0.46146 0.0
C69 C 0.73811 0.24247 0.37248 0.0
N70 N 0.76348 0.21646 0.36741 0.0
C71 C 0.70303 0.24618 0.34376 0.0
H72 H 0.79359 0.24881 0.48901 0.0
H73 H 0.79909 0.29692 0.46816 0.0
H74 H 0.83648 0.26623 0.45722 0.0
H75 H 0.71407 0.2641 0.31628 0.0
H76 H 0.67992 0.2602 0.35961 0.0
H77 H 0.68859 0.21744 0.33208 0.0
C78 C 0.33367 0.68326 0.18838 0.0
N79 N 0.36847 0.70435 0.20263 0.0
N80 N 0.32003 0.69982 0.15394 0.0
C81 C 0.31476 0.64501 0.20604 0.0
C82 C 0.34763 0.73144 0.14739 0.0
N83 N 0.37764 0.73388 0.17637 0.0
C84 C 0.34319 0.76159 0.11472 0.0
H85 H 0.33823 0.62724 0.21399 0.0
H86 H 0.2929 0.62882 0.18359 0.0
H87 H 0.29878 0.65012 0.23549 0.0
H88 H 0.31166 0.75922 0.10338 0.0
H89 H 0.36258 0.75766 0.08744 0.0
H90 H 0.35268 0.79103 0.12777 0.0
C91 C 0.1416 0.37182 0.71061 0.0
N92 N 0.1675 0.36008 0.68234 0.0
N93 N 0.15246 0.40964 0.7209 0.0
C94 C 0.10449 0.34671 0.72665 0.0
C95 C 0.18601 0.42052 0.69749 0.0
N96 N 0.19512 0.39067 0.67374 0.0
C97 C 0.21223 0.45937 0.70117 0.0
H98 H 0.08042 0.36408 0.73333 0.0
H99 H 0.11209 0.33285 0.75634 0.0
H100 H 0.0931 0.32368 0.70354 0.0
H101 H 0.208 0.47325 0.73194 0.0
H102 H 0.20417 0.47833 0.67567 0.0
H103 H 0.24445 0.45664 0.69786 0.0
Dy104 Dy 0.07635 0.05272 0.47125 0.0
C105 C 1.00469 0.97271 0.61575 0.0
C106 C 0.12045 0.09654 0.41247 0.0
Dy107 Dy 0.02766 0.01802 0.54814 0.0
O108 O 0.13378 0.08667 0.4485 0.0
O109 O 0.08245 0.08247 0.40812 0.0
O110 O 0.11403 1.00581 0.47736 0.0
O111 O 0.09116 0.02732 0.53159 0.0
C112 C 0.11115 1.00243 0.51795 0.0
C113 C 0.98115 0.05841 0.50173 0.0
O114 O 0.06439 0.0712 0.57734 0.0
O115 O 0.08085 0.10426 0.51508 0.0
O116 O 1.00305 1.00944 0.61358 0.0
O117 O 0.01937 0.96093 0.58118 0.0
O118 O 0.96922 0.04075 0.53636 0.0
O119 O 0.01656 0.05286 0.49478 0.0
O120 O 0.03777 1.00286 0.43868 0.0
O121 O 0.01701 0.96944 0.49973 0.0
C122 C 0.07906 0.10336 0.55686 0.0
C123 C 0.02001 0.97118 0.45795 0.0
Dy124 Dy 0.54918 0.05666 0.09492 0.0
C125 C 0.43718 1.00957 0.96188 0.0
C126 C 0.6111 0.0792 0.15027 0.0
Dy127 Dy 0.49453 0.03202 0.02298 0.0
O128 O 0.59053 0.0449 0.14725 0.0
O129 O 0.5976 0.10185 0.12321 0.0
O130 O 0.50798 0.02157 0.13838 0.0
O131 O 0.51437 0.99981 0.07706 0.0
C132 C 0.49675 0.99335 0.1123 0.0
C133 C 0.5468 0.09792 0.01055 0.0
O134 O 0.45249 0.05141 0.06999 0.0
O135 O 0.50021 0.09047 0.11042 0.0
O136 O 0.4553 0.0444 0.96877 0.0
O137 O 0.44968 0.98658 0.98924 0.0
O138 O 0.53685 0.0718 0.98177 0.0
O139 O 0.52755 0.08817 0.04357 0.0
O140 O 0.59006 0.03558 0.04747 0.0
O141 O 0.54217 0.99792 1.00655 0.0
C142 C 0.46233 0.0784 0.09916 0.0
C143 C 0.57995 1.00914 0.01782 0.0
Dy144 Dy 0.51327 0.49537 0.47562 0.0
C145 C 0.44622 0.60797 0.5703 0.0
C146 C 0.56376 0.45011 0.44052 0.0
Dy147 Dy 0.4916 0.56119 0.52988 0.0
O148 O 0.56957 0.48749 0.44146 0.0
O149 O 0.52896 0.43713 0.45693 0.0
O150 O 0.44877 0.4662 0.47515 0.0
O151 O 0.47154 0.49867 0.52787 0.0
C152 C 0.43975 0.48024 0.5114 0.0
C153 C 0.56447 0.57571 0.49281 0.0
O154 O 0.51563 0.5274 0.58143 0.0
O155 O 0.54806 0.4914 0.5355 0.0
O156 O 0.48486 0.61608 0.56468 0.0
O157 O 0.43265 0.57433 0.5542 0.0
O158 O 0.557 0.59052 0.5291 0.0
O159 O 0.53221 0.55723 0.4782 0.0
O160 O 0.48982 0.52828 0.42349 0.0
O161 O 0.46263 0.5714 0.46656 0.0
C162 C 0.5407 0.50256 0.57417 0.0
C163 C 0.46893 0.55705 0.42862 0.0
Dy164 Dy 0.01351 0.51562 0.02782 0.0
C165 C 0.93514 0.64294 0.97414 0.0
C166 C 0.05732 0.45709 0.02995 0.0
Dy167 Dy 0.97517 0.58371 0.9932 0.0
O168 O 0.0185 0.45272 0.03431 0.0
O169 O 0.07203 0.49321 0.02538 0.0
O170 O 1.00688 0.52675 0.09824 0.0
O171 O 0.98521 0.56147 0.05469 0.0
C172 C 0.98883 0.55667 0.0937 0.0
C173 C 0.0195 0.55063 0.9364 0.0
O174 O 0.03296 0.61394 0.02106 0.0
O175 O 0.06588 0.5611 0.01503 0.0
O176 O 0.93075 0.61008 0.95433 0.0
O177 O 0.96073 0.64313 1.00493 0.0
O178 O 0.01514 0.58671 0.93673 0.0
O179 O 0.9971 0.53318 0.96447 0.0
O180 O 0.95293 0.48483 1.00914 0.0
O181 O 0.92058 0.53834 1.00192 0.0
C182 C 0.06622 0.59837 0.0208 0.0
C183 C 0.91991 0.50041 1.0037 0.0
H184 H 0.17056 0.21289 0.19943 0.0
H185 H 0.29227 0.24506 0.24616 0.0
H186 H 0.27454 0.20649 0.31073 0.0
H187 H 0.12103 0.21818 0.29827 0.0
H188 H 0.08262 0.17741 0.28719 0.0
H189 H 0.10563 0.20647 0.24465 0.0
H190 H 0.12547 0.14552 0.2093 0.0
H191 H 0.1026 0.11623 0.25177 0.0
H192 H 0.15452 0.11562 0.2387 0.0
H193 H 0.2426 0.16621 0.37027 0.0
H194 H 0.19956 0.12592 0.42087 0.0
H195 H 0.09798 0.1207 0.33504 0.0
C196 C 0.1932 0.21208 0.22362 0.0
C197 C 0.2325 0.23228 0.21876 0.0
C198 C 0.26197 0.22984 0.25002 0.0
C199 C 0.25212 0.20811 0.28651 0.0
C200 C 0.21276 0.18899 0.29074 0.0
C201 C 0.18381 0.19067 0.26008 0.0
C202 C 0.14369 0.16775 0.27228 0.0
C203 C 0.11134 0.19403 0.27582 0.0
C204 C 0.13083 0.13429 0.24116 0.0
C205 C 0.15441 0.15313 0.31493 0.0
C206 C 0.19443 0.16563 0.32489 0.0
C207 C 0.21129 0.15617 0.36278 0.0
C208 C 0.1866 0.13333 0.39127 0.0
C209 C 0.14556 0.12029 0.38169 0.0
C210 C 0.1293 0.13028 0.34303 0.0
H211 H 0.30904 0.86176 0.80237 0.0
H212 H 0.33965 0.94893 0.70699 0.0
H213 H 0.3642 0.99663 0.76211 0.0
H214 H 0.28821 0.92446 0.89231 0.0
H215 H 0.31413 0.89797 0.92919 0.0
H216 H 0.28889 0.87372 0.88398 0.0
H217 H 0.35517 0.85065 0.862 0.0
H218 H 0.38071 0.87503 0.90679 0.0
H219 H 0.39972 0.88574 0.85451 0.0
H220 H 0.39289 0.03278 0.82663 0.0
H221 H 0.42836 0.05313 0.89316 0.0
H222 H 0.38944 0.93953 0.9454 0.0
C223 C 0.32003 0.89117 0.79326 0.0
C224 C 0.32146 0.90176 0.75028 0.0
C225 C 0.33651 0.94037 0.73953 0.0
C226 C 0.35105 0.96761 0.77079 0.0
C227 C 0.35108 0.95561 0.81265 0.0
C228 C 0.33624 0.91814 0.82389 0.0
C229 C 0.34573 0.91075 0.86967 0.0
C230 C 0.30692 0.90117 0.8953 0.0
C231 C 0.37189 0.87866 0.87344 0.0
C232 C 0.36906 0.9497 0.88228 0.0
C233 C 0.37075 0.97545 0.84922 0.0
C234 C 0.39151 1.01293 0.85276 0.0
C235 C 0.41157 0.02422 0.89072 0.0
C236 C 0.41165 0.9979 0.92441 0.0
C237 C 0.3897 0.96028 0.92023 0.0
H238 H 0.589 0.44955 0.81388 0.0
H239 H 0.63766 0.35238 0.76251 0.0
H240 H 0.62319 0.37285 0.69017 0.0
H241 H 0.50705 0.44583 0.73763 0.0
H242 H 0.51004 0.49749 0.73488 0.0
H243 H 0.52473 0.47554 0.78251 0.0
H244 H 0.59455 0.51869 0.77974 0.0
H245 H 0.58018 0.54057 0.73192 0.0
H246 H 0.6248 0.51817 0.73317 0.0
H247 H 0.60616 0.40453 0.62468 0.0
H248 H 0.58137 0.44167 0.56793 0.0
H249 H 0.53953 0.51797 0.66026 0.0
C250 C 0.59622 0.43269 0.78716 0.0
C251 C 0.61423 0.39938 0.79315 0.0
C252 C 0.62356 0.37776 0.75801 0.0
C253 C 0.61566 0.3893 0.71706 0.0
C254 C 0.5981 0.42241 0.71199 0.0
C255 C 0.58795 0.4436 0.74594 0.0
C256 C 0.5683 0.47742 0.73132 0.0
C257 C 0.52495 0.47384 0.74755 0.0
C258 C 0.59347 0.516 0.74485 0.0
C259 C 0.56912 0.4719 0.68387 0.0
C260 C 0.58692 0.4402 0.67368 0.0
C261 C 0.59194 0.42928 0.6322 0.0
C262 C 0.57779 0.45083 0.60012 0.0
C263 C 0.5583 0.48289 0.60942 0.0
C264 C 0.55421 0.49367 0.65203 0.0
H265 H 0.86597 0.6913 0.2315 0.0
H266 H 0.95085 0.68369 0.33255 0.0
H267 H 0.9929 0.65164 0.28391 0.0
H268 H 0.86668 0.60126 0.19032 0.0
H269 H 0.86278 0.61336 0.13548 0.0
H270 H 0.84355 0.64214 0.17523 0.0
H271 H 0.888 0.70362 0.1475 0.0
H272 H 0.90693 0.67522 0.107 0.0
H273 H 0.94141 0.70448 0.14222 0.0
H274 H 0.01868 0.60995 0.22768 0.0
H275 H 0.03053 0.56878 0.1672 0.0
H276 H 0.93017 0.60449 0.10024 0.0
C277 C 0.89451 0.68461 0.24265 0.0
C278 C 0.90573 0.6909 0.28566 0.0
C279 C 0.94237 0.68029 0.29963 0.0
C280 C 0.9661 0.6616 0.27221 0.0
C281 C 0.95306 0.65401 0.23057 0.0
C282 C 0.9185 0.666 0.21555 0.0
C283 C 0.90934 0.65168 0.17053 0.0
C284 C 0.86815 0.62556 0.16775 0.0
C285 C 0.91156 0.68579 0.14 0.0
C286 C 0.94344 0.62877 0.16281 0.0
C287 C 0.96829 0.63052 0.19793 0.0
C288 C 0.99987 0.60916 0.19982 0.0
C289 C 1.00626 0.58562 0.16527 0.0
C290 C 0.98165 0.5836 0.12865 0.0
C291 C 0.95004 0.60595 0.12736 0.0
H292 H 0.34989 0.25418 0.15224 0.0
H293 H 0.23985 0.17202 0.15545 0.0
H294 H 0.27914 0.11804 0.15179 0.0
H295 H 0.39806 0.20652 0.07732 0.0
H296 H 0.44777 0.21772 0.10002 0.0
H297 H 0.41151 0.24929 0.10925 0.0
H298 H 0.42061 0.24243 0.18985 0.0
H299 H 0.45701 0.21076 0.18086 0.0
H300 H 0.41364 0.19506 0.21301 0.0
H301 H 0.32889 0.07449 0.13742 0.0
H302 H 0.38619 0.04341 0.11494 0.0
H303 H 0.465 0.15355 0.1232 0.0
C304 C 0.33448 0.22469 0.15307 0.0
C305 C 0.29224 0.21672 0.15453 0.0
C306 C 0.27238 0.17818 0.15497 0.0
C307 C 0.29441 0.14757 0.15293 0.0
C308 C 0.3362 0.15627 0.15083 0.0
C309 C 0.35611 0.19388 0.15123 0.0
C310 C 0.4009 0.19543 0.14518 0.0
C311 C 0.41538 0.21859 0.10559 0.0
C312 C 0.42442 0.21189 0.18458 0.0
C313 C 0.40286 0.15292 0.13956 0.0
C314 C 0.36523 0.13083 0.14335 0.0
C315 C 0.35865 0.09129 0.13533 0.0
C316 C 0.39126 0.07395 0.12243 0.0
C317 C 0.42988 0.09612 0.11796 0.0
C318 C 0.43593 0.13588 0.12755 0.0
H319 H 0.2127 0.88274 0.6919 0.0
H320 H 0.32625 0.9262 0.63356 0.0
H321 H 0.29286 0.96908 0.58852 0.0
H322 H 0.15603 0.87631 0.60099 0.0
H323 H 0.11143 0.89105 0.62262 0.0
H324 H 0.14463 0.86902 0.65605 0.0
H325 H 0.15262 0.92791 0.70652 0.0
H326 H 0.11873 0.94985 0.67368 0.0
H327 H 0.16814 0.97564 0.68584 0.0
H328 H 0.24665 0.99828 0.5424 0.0
H329 H 0.19067 0.01803 0.50181 0.0
H330 H 0.10523 0.95809 0.59002 0.0
C331 C 0.23056 0.90291 0.67117 0.0
C332 C 0.27237 0.9028 0.66746 0.0
C333 C 0.29464 0.9275 0.63809 0.0
C334 C 0.2758 0.95152 0.61214 0.0
C335 C 0.23441 0.95034 0.61571 0.0
C336 C 0.21198 0.92719 0.6449 0.0
C337 C 0.16738 0.92905 0.63945 0.0
C338 C 0.14348 0.88897 0.62916 0.0
C339 C 0.15074 0.94667 0.67871 0.0
C340 C 0.16828 0.9559 0.60193 0.0
C341 C 0.20735 0.9677 0.58884 0.0
C342 C 0.21601 0.98993 0.55286 0.0
C343 C 0.18401 1.00073 0.52981 0.0
C344 C 0.14379 0.98969 0.54293 0.0
C345 C 0.13581 0.96726 0.57969 0.0
H346 H 0.68989 0.44663 0.93551 0.0
H347 H 0.71502 0.33196 0.90803 0.0
H348 H 0.78051 0.34754 0.9449 0.0
H349 H 0.78346 0.49196 0.90768 0.0
H350 H 0.78742 0.53029 0.94621 0.0
H351 H 0.73874 0.50748 0.92799 0.0
H352 H 0.71719 0.49071 1.00473 0.0
H353 H 0.76577 0.51388 0.02338 0.0
H354 H 0.74757 0.46449 0.03724 0.0
H355 H 0.84674 0.37845 0.97521 0.0
H356 H 0.909 0.42185 0.99435 0.0
H357 H 0.84354 0.51906 0.99567 0.0
C358 C 0.70882 0.42455 0.93841 0.0
C359 C 0.69725 0.38793 0.91952 0.0
C360 C 0.72282 0.35978 0.92332 0.0
C361 C 0.76021 0.36855 0.94393 0.0
C362 C 0.77164 0.40569 0.96025 0.0
C363 C 0.74664 0.43328 0.95774 0.0
C364 C 0.76813 0.47252 0.97201 0.0
C365 C 0.76952 0.5023 0.93635 0.0
C366 C 0.74849 0.4862 0.01171 0.0
C367 C 0.80956 0.46302 0.98173 0.0
C368 C 0.81065 0.42415 0.97567 0.0
C369 C 0.84608 0.40882 0.98057 0.0
C370 C 0.88139 0.43385 0.9914 0.0
C371 C 0.88134 0.47403 0.99659 0.0
C372 C 0.84467 0.48854 0.99223 0.0
H373 H 0.79065 0.67513 0.43427 0.0
H374 H 0.75451 0.65828 0.30339 0.0
H375 H 0.68724 0.62652 0.32539 0.0
H376 H 0.73508 0.58717 0.4754 0.0
H377 H 0.72015 0.60884 0.52316 0.0
H378 H 0.76622 0.62908 0.49754 0.0
H379 H 0.74214 0.69549 0.49375 0.0
H380 H 0.69611 0.67551 0.51962 0.0
H381 H 0.69433 0.69896 0.46941 0.0
H382 H 0.6249 0.59432 0.36107 0.0
H383 H 0.56864 0.56989 0.4077 0.0
H384 H 0.641 0.6123 0.51674 0.0
C385 C 0.76843 0.665 0.41032 0.0
C386 C 0.77824 0.66857 0.36692 0.0
C387 C 0.74818 0.65495 0.33665 0.0
C388 C 0.70977 0.63706 0.34891 0.0
C389 C 0.70125 0.63354 0.39176 0.0
C390 C 0.72942 0.64765 0.4221 0.0
C391 C 0.7116 0.64136 0.46601 0.0
C392 C 0.73465 0.61505 0.49206 0.0
C393 C 0.71101 0.68014 0.48853 0.0
C394 C 0.66915 0.62133 0.45555 0.0
C395 C 0.66421 0.61676 0.41246 0.0
C396 C 0.62833 0.5981 0.39482 0.0
C397 C 0.59648 0.58418 0.4217 0.0
C398 C 0.6001 0.58933 0.46596 0.0
C399 C 0.63713 0.60815 0.48306 0.0
H400 H 0.24361 0.36547 0.10524 0.0
H401 H 0.17263 0.25391 0.081 0.0
H402 H 0.12223 0.28485 0.0423 0.0
H403 H 0.16808 0.41164 0.13009 0.0
H404 H 0.18605 0.45738 0.1058 0.0
H405 H 0.22117 0.42666 0.12191 0.0
H406 H 0.24953 0.42674 0.04624 0.0
H407 H 0.21495 0.45827 0.0299 0.0
H408 H 0.21576 0.41332 1.00246 0.0
H409 H 0.07344 0.32789 0.02244 0.0
H410 H 0.03247 0.3803 0.01546 0.0
H411 H 0.13655 0.46435 0.04898 0.0
C412 C 0.21843 0.34781 0.0897 0.0
C413 C 0.21185 0.30762 0.09489 0.0
C414 C 0.17805 0.2848 0.0761 0.0
C415 C 0.14945 0.30213 0.0543 0.0
C416 C 0.15569 0.34222 0.0512 0.0
C417 C 0.18985 0.36479 0.06752 0.0
C418 C 0.18708 0.40727 0.06443 0.0
C419 C 0.19079 0.42685 0.10815 0.0
C420 C 0.21871 0.42759 0.03393 0.0
C421 C 0.1451 0.40496 0.0464 0.0
C422 C 0.1276 0.36723 0.03855 0.0
C423 C 0.08718 0.35764 0.02708 0.0
C424 C 0.06408 0.38741 0.02358 0.0
C425 C 0.08169 0.42606 0.03132 0.0
C426 C 0.12276 0.43497 0.04202 0.0
H427 H 0.63259 0.27544 0.86471 0.0
H428 H 0.62865 0.34993 0.97301 0.0
H429 H 0.61236 0.29235 0.01869 0.0
H430 H 0.54833 0.20945 0.89066 0.0
H431 H 0.56724 0.16748 0.87118 0.0
H432 H 0.58476 0.21407 0.84889 0.0
H433 H 0.65841 0.20622 0.86581 0.0
H434 H 0.64114 0.15943 0.88806 0.0
H435 H 0.67229 0.19584 0.91899 0.0
H436 H 0.58881 0.22637 0.05051 0.0
H437 H 0.56068 0.15848 0.06599 0.0
H438 H 0.57801 0.1274 0.9358 0.0
C439 C 0.62878 0.27948 0.89816 0.0
C440 C 0.63161 0.31694 0.91553 0.0
C441 C 0.62684 0.32137 0.95939 0.0
C442 C 0.6175 0.28886 0.98539 0.0
C443 C 0.61333 0.25219 0.96694 0.0
C444 C 0.61913 0.24741 0.9243 0.0
C445 C 0.60979 0.20529 0.91144 0.0
C446 C 0.57549 0.1987 0.87862 0.0
C447 C 0.64767 0.19085 0.89512 0.0
C448 C 0.59669 0.18703 0.95326 0.0
C449 C 0.59943 0.21447 0.98503 0.0
C450 C 0.58704 0.20466 0.02595 0.0
C451 C 0.57106 0.16603 0.03444 0.0
C452 C 0.56728 0.13768 1.00213 0.0
C453 C 0.58087 0.14836 0.96122 0.0
H454 H 0.91078 0.75282 0.4179 0.0
H455 H 0.90944 0.77727 0.28458 0.0
H456 H 0.95009 0.84176 0.29824 0.0
H457 H 0.8941 0.84386 0.45106 0.0
H458 H 0.92511 0.84589 0.49778 0.0
H459 H 0.90203 0.79994 0.47671 0.0
H460 H 0.97166 0.77781 0.47192 0.0
H461 H 0.99497 0.82354 0.49353 0.0
H462 H 0.01168 0.80699 0.44382 0.0
H463 H 0.98573 0.90708 0.32877 0.0
H464 H 0.0138 0.96436 0.37134 0.0
H465 H 0.98791 0.89787 0.4855 0.0
C466 C 0.91995 0.77142 0.39146 0.0
C467 C 0.90716 0.7598 0.35002 0.0
C468 C 0.91947 0.78513 0.31637 0.0
C469 C 0.94222 0.82202 0.32403 0.0
C470 C 0.95254 0.83329 0.36561 0.0
C471 C 0.94199 0.80842 0.39872 0.0
C472 C 0.95381 0.82809 0.44076 0.0
C473 C 0.91655 0.82953 0.46818 0.0
C474 C 0.98488 0.8079 0.46387 0.0
C475 C 0.97235 0.86819 0.42648 0.0
C476 C 0.97169 0.87062 0.38301 0.0
C477 C 0.98653 0.90517 0.36277 0.0
C478 C 1.00244 0.93775 0.38736 0.0
C479 C 1.00329 0.9361 0.43205 0.0
C480 C 0.98791 0.90052 0.45154 0.0
H481 H 0.39066 0.80786 0.65497 0.0
H482 H 0.27065 0.74777 0.67836 0.0
H483 H 0.29081 0.68655 0.653 0.0
H484 H 0.40899 0.75694 0.56079 0.0
H485 H 0.46118 0.75588 0.57289 0.0
H486 H 0.43708 0.79447 0.59291 0.0
H487 H 0.45747 0.7788 0.66897 0.0
H488 H 0.48165 0.74014 0.64919 0.0
H489 H 0.44337 0.73057 0.68885 0.0
H490 H 0.32393 0.63274 0.62331 0.0
H491 H 0.36766 0.58957 0.59275 0.0
H492 H 0.46731 0.68438 0.59147 0.0
C493 C 0.36893 0.7816 0.65496 0.0
C494 C 0.32926 0.78198 0.66876 0.0
C495 C 0.30117 0.74755 0.66798 0.0
C496 C 0.3124 0.71288 0.65371 0.0
C497 C 0.35192 0.7133 0.64055 0.0
C498 C 0.37982 0.74673 0.64121 0.0
C499 C 0.42033 0.7394 0.62544 0.0
C500 C 0.4326 0.76308 0.58564 0.0
C501 C 0.45261 0.74772 0.66019 0.0
C502 C 0.41086 0.69665 0.6155 0.0
C503 C 0.37119 0.68218 0.62432 0.0
C504 C 0.35509 0.6437 0.61657 0.0
C505 C 0.38012 0.61942 0.59921 0.0
C506 C 0.42084 0.63364 0.59008 0.0
C507 C 0.43639 0.67269 0.59859 0.0
H508 H 0.85729 0.92681 0.8063 0.0
H509 H 0.83479 0.80872 0.76167 0.0
H510 H 0.89352 0.82237 0.71403 0.0
H511 H 0.87451 0.96736 0.70896 0.0
H512 H 0.9125 1.00662 0.72586 0.0
H513 H 0.87507 0.98516 0.76236 0.0
H514 H 0.93116 0.97122 0.81372 0.0
H515 H 0.96892 0.99263 0.77721 0.0
H516 H 0.96898 0.94409 0.79549 0.0
H517 H 0.94815 0.85167 0.66461 0.0
H518 H 0.99101 0.89398 0.6153 0.0
H519 H 0.97424 0.99392 0.68987 0.0
C520 C 0.86504 0.90384 0.78667 0.0
C521 C 0.84147 0.86695 0.78676 0.0
C522 C 0.85275 0.83717 0.76164 0.0
C523 C 0.886 0.8447 0.73475 0.0
C524 C 0.90762 0.88207 0.7339 0.0
C525 C 0.89756 0.91111 0.75937 0.0
C526 C 0.92188 0.94984 0.74894 0.0
C527 C 0.89435 0.97893 0.73573 0.0
C528 C 0.94938 0.96535 0.78606 0.0
C529 C 0.94602 0.9385 0.71229 0.0
C530 C 0.93825 0.89914 0.70479 0.0
C531 C 0.95494 0.88239 0.67063 0.0
C532 C 0.97923 0.90662 0.64281 0.0
C533 C 0.98587 0.94709 0.64902 0.0
C534 C 0.96995 0.963 0.68476 0.0
H535 H 0.76198 0.22759 0.28392 0.0
H536 H 0.75325 0.13955 0.37949 0.0
H537 H 0.72478 0.09038 0.32684 0.0
H538 H 0.66945 0.20121 0.24853 0.0
H539 H 0.67787 0.21166 0.19348 0.0
H540 H 0.71102 0.2369 0.23245 0.0
H541 H 0.7725 0.21472 0.19677 0.0
H542 H 0.73962 0.19001 0.15684 0.0
H543 H 0.77238 0.16411 0.18666 0.0
H544 H 0.68336 0.05481 0.26985 0.0
H545 H 0.63327 0.03518 0.21368 0.0
H546 H 0.66163 0.14836 0.15722 0.0
C547 C 0.75575 0.19756 0.29295 0.0
C548 C 0.75982 0.18701 0.33536 0.0
C549 C 0.75094 0.14782 0.34686 0.0
C550 C 0.73455 0.11987 0.31717 0.0
C551 C 0.7273 0.13181 0.2763 0.0
C552 C 0.73801 0.16979 0.26403 0.0
C553 C 0.71997 0.17696 0.22146 0.0
C554 C 0.69298 0.20852 0.2242 0.0
C555 C 0.7531 0.18703 0.18848 0.0
C556 C 0.6955 0.13773 0.21277 0.0
C557 C 0.70119 0.11178 0.24409 0.0
C558 C 0.67935 0.07463 0.24473 0.0
C559 C 0.65079 0.06383 0.21284 0.0
C560 C 0.64369 0.09034 0.18125 0.0
C561 C 0.66677 0.12751 0.18088 0.0
H562 H 0.35178 0.69196 0.28523 0.0
H563 H 0.44176 0.68565 0.19004 0.0
H564 H 0.47846 0.64818 0.23873 0.0
H565 H 0.42283 0.69902 0.37813 0.0
H566 H 0.38597 0.67029 0.41055 0.0
H567 H 0.37005 0.70046 0.37 0.0
H568 H 0.32439 0.6409 0.33815 0.0
H569 H 0.34083 0.61032 0.37789 0.0
H570 H 0.34621 0.59922 0.32292 0.0
H571 H 0.49857 0.6029 0.293 0.0
H572 H 0.50873 0.56246 0.35409 0.0
H573 H 0.40809 0.60095 0.41727 0.0
C574 C 0.38005 0.68383 0.27549 0.0
C575 C 0.39446 0.69191 0.23423 0.0
C576 C 0.43094 0.68028 0.22184 0.0
C577 C 0.4516 0.65869 0.24913 0.0
C578 C 0.43564 0.64959 0.28897 0.0
C579 C 0.40131 0.66272 0.30265 0.0
C580 C 0.38984 0.64783 0.3465 0.0
C581 C 0.39234 0.6814 0.37817 0.0
C582 C 0.34783 0.6231 0.34633 0.0
C583 C 0.42242 0.62339 0.35489 0.0
C584 C 0.44825 0.62458 0.32106 0.0
C585 C 0.47903 0.60237 0.31999 0.0
C586 C 0.48427 0.57912 0.35476 0.0
C587 C 0.45926 0.5785 0.3906 0.0
C588 C 0.42785 0.60098 0.39049 0.0
H589 H 0.12536 0.39622 0.80228 0.0
H590 H 0.13148 0.47799 0.69977 0.0
H591 H 0.09847 0.52155 0.74408 0.0
H592 H 0.02586 0.41142 0.83943 0.0
H593 H 0.03783 0.40681 0.89443 0.0
H594 H 0.0624 0.38171 0.85513 0.0
H595 H 0.13172 0.41403 0.88385 0.0
H596 H 0.10724 0.43926 0.92308 0.0
H597 H 0.14274 0.46591 0.88758 0.0
H598 H 0.06774 0.55754 0.79905 0.0
H599 H 0.03681 0.58324 0.86058 0.0
H600 H 0.04484 0.47802 0.92931 0.0
C601 C 0.11938 0.42317 0.78919 0.0
C602 C 0.13153 0.43392 0.74745 0.0
C603 C 0.12324 0.4695 0.73166 0.0
C604 C 0.10429 0.49433 0.75661 0.0
C605 C 0.09313 0.48323 0.79752 0.0
C606 C 0.09994 0.44841 0.81382 0.0
C607 C 0.08418 0.44381 0.85891 0.0
C608 C 0.05056 0.40885 0.86216 0.0
C609 C 0.11852 0.44056 0.8902 0.0
C610 C 0.06774 0.48158 0.86527 0.0
C611 C 0.07365 0.50377 0.8293 0.0
C612 C 0.06262 0.54029 0.82723 0.0
C613 C 0.04505 0.55469 0.86259 0.0
C614 C 0.0379 0.53271 0.89992 0.0
C615 C 0.04936 0.49541 0.90115 0.0
H616 H 0.67173 0.86837 0.86003 0.0
H617 H 0.78811 0.93659 0.88527 0.0
H618 H 0.75664 0.9796 0.93221 0.0
H619 H 0.61443 0.94919 0.86022 0.0
H620 H 0.5715 0.92176 0.88558 0.0
H621 H 0.6031 0.8977 0.85239 0.0
H622 H 0.61401 0.85207 0.91391 0.0
H623 H 0.5828 0.87624 0.94742 0.0
H624 H 0.63343 0.87238 0.96358 0.0
H625 H 0.71364 1.01227 0.97905 0.0
H626 H 0.66059 0.03615 0.01999 0.0
H627 H 0.57131 0.94725 0.96371 0.0
C628 C 0.69013 0.89284 0.87501 0.0
C629 C 0.73197 0.89994 0.86901 0.0
C630 C 0.75581 0.93155 0.88934 0.0
C631 C 0.73828 0.95581 0.91607 0.0
C632 C 0.6969 0.94791 0.9219 0.0
C633 C 0.67299 0.91748 0.90171 0.0
C634 C 0.62937 0.91513 0.91417 0.0
C635 C 0.60306 0.92133 0.8758 0.0
C636 C 0.61402 0.87667 0.93608 0.0
C637 C 0.63268 0.94874 0.94474 0.0
C638 C 0.67191 0.96712 0.94882 0.0
C639 C 0.6827 0.99836 0.97595 0.0
C640 C 0.6524 1.01157 0.99921 0.0
C641 C 0.61184 0.99363 0.99493 0.0
C642 C 0.60202 0.9617 0.96746 0.0
H643 H 0.80105 0.1789 0.46831 0.0
H644 H 0.84952 0.21235 0.3458 0.0
H645 H 0.905 0.17446 0.35781 0.0
H646 H 0.89525 0.18159 0.52326 0.0
H647 H 0.87776 0.13987 0.55489 0.0
H648 H 0.84272 0.16995 0.53631 0.0
H649 H 0.79936 0.11039 0.5015 0.0
H650 H 0.83428 0.08014 0.51993 0.0
H651 H 0.82222 0.08136 0.4646 0.0
H652 H 0.95686 0.13391 0.38542 0.0
H653 H 0.99727 0.0916 0.42387 0.0
H654 H 0.9123 0.08295 0.52666 0.0
C655 C 0.8236 0.17835 0.44427 0.0
C656 C 0.82152 0.19871 0.40633 0.0
C657 C 0.8509 0.19688 0.37506 0.0
C658 C 0.88244 0.17555 0.38171 0.0
C659 C 0.88386 0.15586 0.41969 0.0
C660 C 0.85491 0.15684 0.45025 0.0
C661 C 0.86248 0.13252 0.48786 0.0
C662 C 0.87001 0.15748 0.52794 0.0
C663 C 0.82751 0.09912 0.4938 0.0
C664 C 0.90034 0.11786 0.47396 0.0
C665 C 0.9125 0.13177 0.43469 0.0
C666 C 0.94737 0.12268 0.41605 0.0
C667 C 0.97019 0.09871 0.43806 0.0
C668 C 0.95778 0.08382 0.47804 0.0
C669 C 0.92239 0.09362 0.49597 0.0
H670 H 0.2414 0.69007 0.17491 0.0
H671 H 0.32354 0.6788 0.07307 0.0
H672 H 0.26597 0.65799 0.02482 0.0
H673 H 0.16848 0.60781 0.14815 0.0
H674 H 0.12576 0.63018 0.16233 0.0
H675 H 0.17355 0.64509 0.18798 0.0
H676 H 0.17114 0.71575 0.16599 0.0
H677 H 0.12361 0.70084 0.13965 0.0
H678 H 0.16534 0.72687 0.11112 0.0
H679 H 0.20062 0.6345 0.98966 0.0
H680 H 0.13062 0.60762 0.96972 0.0
H681 H 0.08986 0.63762 0.09283 0.0
C682 C 0.24687 0.68299 0.14245 0.0
C683 C 0.28641 0.68565 0.12726 0.0
C684 C 0.29314 0.67664 0.08476 0.0
C685 C 0.26077 0.66511 0.05731 0.0
C686 C 0.22197 0.66319 0.07295 0.0
C687 C 0.21479 0.67179 0.11451 0.0
C688 C 0.17011 0.66631 0.12342 0.0
C689 C 0.15882 0.63551 0.15747 0.0
C690 C 0.15678 0.70474 0.13577 0.0
C691 C 0.15339 0.65246 0.08063 0.0
C692 C 0.1839 0.65111 0.05195 0.0
C693 C 0.17636 0.63619 0.01144 0.0
C694 C 0.13667 0.62122 1.00031 0.0
C695 C 0.10523 0.6219 0.02936 0.0
C696 C 0.11344 0.6384 0.06964 0.0
H697 H 0.21747 0.44094 0.61017 0.0
H698 H 0.25355 0.34558 0.67857 0.0
H699 H 0.31958 0.35662 0.64255 0.0
H700 H 0.27044 0.42724 0.51078 0.0
H701 H 0.28397 0.47839 0.50244 0.0
H702 H 0.23851 0.46 0.53019 0.0
H703 H 0.26251 0.505 0.59328 0.0
H704 H 0.30826 0.52318 0.56601 0.0
H705 H 0.31052 0.50245 0.61763 0.0
H706 H 0.38473 0.38292 0.60391 0.0
H707 H 0.44063 0.41823 0.56211 0.0
H708 H 0.36256 0.4971 0.51881 0.0
C709 C 0.23901 0.42186 0.61676 0.0
C710 C 0.23016 0.39204 0.64691 0.0
C711 C 0.25927 0.36796 0.65505 0.0
C712 C 0.29704 0.37439 0.63501 0.0
C713 C 0.30535 0.40501 0.60667 0.0
C714 C 0.27686 0.42805 0.59716 0.0
C715 C 0.29375 0.46008 0.56701 0.0
C716 C 0.27027 0.45619 0.52511 0.0
C717 C 0.29375 0.50003 0.58719 0.0
C718 C 0.33638 0.45184 0.56123 0.0
C719 C 0.34251 0.41996 0.58447 0.0
C720 C 0.37995 0.40759 0.58532 0.0
C721 C 0.41162 0.42788 0.5616 0.0
C722 C 0.40591 0.46023 0.53714 0.0
C723 C 0.36772 0.47232 0.53705 0.0
H724 H 0.79637 0.7579 0.8348 0.0
H725 H 0.86118 0.86298 0.889 0.0
H726 H 0.90439 0.82502 0.92968 0.0
H727 H 0.79404 0.70102 0.92529 0.0
H728 H 0.80154 0.65723 0.89872 0.0
H729 H 0.77802 0.69263 0.87128 0.0
H730 H 0.83153 0.69666 0.81248 0.0
H731 H 0.85478 0.66066 0.83928 0.0
H732 H 0.88415 0.70655 0.82641 0.0
H733 H 0.93508 0.77537 0.96937 0.0
H734 H 0.9582 0.71752 0.99889 0.0
H735 H 0.87504 0.64457 0.91646 0.0
C736 C 0.82047 0.77262 0.85443 0.0
C737 C 0.82629 0.81299 0.85885 0.0
C738 C 0.85722 0.83192 0.88521 0.0
C739 C 0.88149 0.81065 0.90845 0.0
C740 C 0.87438 0.7706 0.90444 0.0
C741 C 0.84518 0.75177 0.87749 0.0
C742 C 0.84324 0.70846 0.87961 0.0
C743 C 0.80175 0.68869 0.89462 0.0
C744 C 0.85409 0.69213 0.83691 0.0
C745 C 0.87545 0.70586 0.91244 0.0
C746 C 0.8928 0.74201 0.92661 0.0
C747 C 0.92214 0.74692 0.95815 0.0
C748 C 0.93484 0.71397 0.97492 0.0
C749 C 0.91843 0.67683 0.95973 0.0
C750 C 0.88815 0.67275 0.92842 0.0
H751 H 0.43181 0.76404 0.11856 0.0
H752 H 0.38942 0.77976 0.24467 0.0
H753 H 0.42166 0.84813 0.24356 0.0
H754 H 0.52802 0.83878 0.12454 0.0
H755 H 0.52071 0.85338 0.07105 0.0
H756 H 0.50452 0.80401 0.0864 0.0
H757 H 0.4331 0.80875 0.05851 0.0
H758 H 0.44843 0.85845 0.0445 0.0
H759 H 0.40661 0.84535 0.07949 0.0
H760 H 0.44354 0.91604 0.2229 0.0
H761 H 0.46455 0.97874 0.18923 0.0
H762 H 0.4919 0.921 0.0742 0.0
C763 C 0.4314 0.78156 0.14666 0.0
C764 C 0.40853 0.76688 0.1819 0.0
C765 C 0.40751 0.79044 0.21788 0.0
C766 C 0.42526 0.82938 0.21717 0.0
C767 C 0.44425 0.84397 0.18034 0.0
C768 C 0.44842 0.82063 0.14603 0.0
C769 C 0.46575 0.84435 0.10856 0.0
C770 C 0.50722 0.83455 0.09696 0.0
C771 C 0.43673 0.83888 0.07054 0.0
C772 C 0.46921 0.88482 0.12663 0.0
C773 C 0.45682 0.88373 0.16815 0.0
C774 C 0.45434 0.91721 0.19084 0.0
C775 C 0.46607 0.95274 0.1712 0.0
C776 C 0.48031 0.95484 0.12919 0.0
C777 C 0.48142 0.92032 0.10641 0.0
H778 H 0.14792 0.33143 0.6032 0.0
H779 H 0.1798 0.29957 0.7289 0.0
H780 H 0.16269 0.23043 0.70978 0.0
H781 H 0.06376 0.2594 0.59006 0.0
H782 H 0.07159 0.24929 0.53528 0.0
H783 H 0.09042 0.29626 0.55685 0.0
H784 H 0.16226 0.2903 0.53211 0.0
H785 H 0.14354 0.24351 0.50984 0.0
H786 H 0.18441 0.24888 0.54745 0.0
H787 H 0.13443 0.16515 0.67993 0.0
H788 H 0.10433 0.10765 0.63914 0.0
H789 H 0.09241 0.17989 0.53067 0.0
C790 C 0.15266 0.30974 0.626 0.0
C791 C 0.166 0.32074 0.6674 0.0
C792 C 0.17043 0.29162 0.69693 0.0
C793 C 0.16046 0.25233 0.68637 0.0
C794 C 0.14617 0.24227 0.64584 0.0
C795 C 0.14293 0.27005 0.61577 0.0
C796 C 0.12529 0.25113 0.57501 0.0
C797 C 0.0854 0.26484 0.56365 0.0
C798 C 0.15569 0.25892 0.53896 0.0
C799 C 0.11846 0.20862 0.58717 0.0
C800 C 0.13058 0.2043 0.62829 0.0
C801 C 0.12541 0.16818 0.6475 0.0
C802 C 0.10798 0.13559 0.62407 0.0
C803 C 0.09605 0.13887 0.58151 0.0
C804 C 0.10153 0.17613 0.56296 0.0
H805 H 0.67606 0.26509 0.44343 0.0
H806 H 0.78029 0.33832 0.39381 0.0
H807 H 0.74433 0.39473 0.39794 0.0
H808 H 0.60497 0.30495 0.38607 0.0
H809 H 0.56739 0.30179 0.42662 0.0
H810 H 0.60289 0.26843 0.42608 0.0
H811 H 0.62565 0.28825 0.50224 0.0
H812 H 0.58945 0.32097 0.50351 0.0
H813 H 0.64169 0.3385 0.51476 0.0
H814 H 0.69466 0.44105 0.40032 0.0
H815 H 0.63713 0.47628 0.40753 0.0
H816 H 0.56374 0.37257 0.45426 0.0
C817 C 0.6916 0.29342 0.43513 0.0
C818 C 0.73108 0.29792 0.41913 0.0
C819 C 0.75037 0.33486 0.407 0.0
C820 C 0.73002 0.36679 0.40887 0.0
C821 C 0.69037 0.36113 0.42299 0.0
C822 C 0.67152 0.3255 0.43657 0.0
C823 C 0.628 0.32669 0.44787 0.0
C824 C 0.59912 0.29881 0.41999 0.0
C825 C 0.62078 0.31811 0.49489 0.0
C826 C 0.62509 0.36839 0.43791 0.0
C827 C 0.66146 0.3877 0.42365 0.0
C828 C 0.66617 0.4263 0.41179 0.0
C829 C 0.63321 0.44599 0.41569 0.0
C830 C 0.59593 0.4271 0.4312 0.0
C831 C 0.59176 0.38764 0.44193 0.0
loop_
_geom_bond_atom_site_label_1
_geom_bond_atom_site_label_2
_geom_bond_distance
_geom_bond_site_symmetry_2
_ccdc_geom_bond_type
C0 N1 1.317 . S
C0 N2 1.348 . S
C0 C3 1.485 . S
N1 C0 1.317 . S
N1 N5 1.370 . S
N2 C0 1.348 . S
N2 C4 1.346 . S
C3 C0 1.485 . S
C3 H7 0.960 . S
C3 H8 0.961 . S
C3 H9 0.960 . S
C4 N2 1.346 . S
C4 N5 1.307 . S
C4 C6 1.486 . S
N5 N1 1.370 . S
N5 C4 1.307 . S
C6 C4 1.486 . S
C6 H10 0.960 . S
C6 H11 0.960 . S
C6 H12 0.959 . S
H7 C3 0.960 . S
H8 C3 0.961 . S
H9 C3 0.960 . S
H10 C6 0.960 . S
H11 C6 0.960 . S
H12 C6 0.959 . S
C13 N14 1.317 . S
C13 N15 1.348 . S
C13 C16 1.485 . S
N14 C13 1.317 . S
N14 N18 1.370 . S
N15 C13 1.348 . S
N15 C17 1.346 . S
C16 C13 1.485 . S
C16 H20 0.960 . S
C16 H21 0.961 . S
C16 H22 0.960 . S
C17 N15 1.346 . S
C17 N18 1.307 . S
C17 C19 1.486 . S
N18 N14 1.370 . S
N18 C17 1.307 . S
C19 C17 1.486 . S
C19 H23 0.960 . S
C19 H24 0.960 . S
C19 H25 0.959 . S
H20 C16 0.960 . S
H21 C16 0.961 . S
H22 C16 0.960 . S
H23 C19 0.960 . S
H24 C19 0.960 . S
H25 C19 0.959 . S
C26 N27 1.317 . S
C26 N28 1.348 . S
C26 C29 1.485 . S
N27 C26 1.317 . S
N27 N31 1.370 . S
N28 C26 1.348 . S
N28 C30 1.346 . S
C29 C26 1.485 . S
C29 H33 0.960 . S
C29 H34 0.961 . S
C29 H35 0.960 . S
C30 N28 1.346 . S
C30 N31 1.307 . S
C30 C32 1.486 . S
N31 N27 1.370 . S
N31 C30 1.307 . S
C32 C30 1.486 . S
C32 H36 0.960 . S
C32 H37 0.960 . S
C32 H38 0.959 . S
H33 C29 0.960 . S
H34 C29 0.961 . S
H35 C29 0.960 . S
H36 C32 0.960 . S
H37 C32 0.960 . S
H38 C32 0.959 . S
C39 N40 1.317 . S
C39 N41 1.348 . S
C39 C42 1.485 . S
N40 C39 1.317 . S
N40 N44 1.370 . S
N41 C39 1.348 . S
N41 C43 1.346 . S
C42 C39 1.485 . S
C42 H46 0.960 . S
C42 H47 0.961 . S
C42 H48 0.960 . S
C43 N41 1.346 . S
C43 N44 1.307 . S
C43 C45 1.486 . S
N44 N40 1.370 . S
N44 C43 1.307 . S
C45 C43 1.486 . S
C45 H49 0.960 . S
C45 H50 0.960 . S
C45 H51 0.959 . S
H46 C42 0.960 . S
H47 C42 0.961 . S
H48 C42 0.960 . S
H49 C45 0.960 . S
H50 C45 0.960 . S
H51 C45 0.959 . S
C52 N53 1.317 . S
C52 N54 1.348 . S
C52 C55 1.485 . S
N53 C52 1.317 . S
N53 N57 1.370 . S
N54 C52 1.348 . S
N54 C56 1.346 . S
C55 C52 1.485 . S
C55 H59 0.960 . S
C55 H60 0.961 . S
C55 H61 0.960 . S
C56 N54 1.346 . S
C56 N57 1.307 . S
C56 C58 1.486 . S
N57 N53 1.370 . S
N57 C56 1.307 . S
C58 C56 1.486 . S
C58 H62 0.960 . S
C58 H63 0.960 . S
C58 H64 0.959 . S
H59 C55 0.960 . S
H60 C55 0.961 . S
H61 C55 0.960 . S
H62 C58 0.960 . S
H63 C58 0.960 . S
H64 C58 0.959 . S
C65 N66 1.317 . S
C65 N67 1.348 . S
C65 C68 1.485 . S
N66 C65 1.317 . S
N66 N70 1.370 . S
N67 C65 1.348 . S
N67 C69 1.346 . S
C68 C65 1.485 . S
C68 H72 0.960 . S
C68 H73 0.961 . S
C68 H74 0.960 . S
C69 N67 1.346 . S
C69 N70 1.307 . S
C69 C71 1.486 . S
N70 N66 1.370 . S
N70 C69 1.307 . S
C71 C69 1.486 . S
C71 H75 0.960 . S
C71 H76 0.960 . S
C71 H77 0.959 . S
H72 C68 0.960 . S
H73 C68 0.961 . S
H74 C68 0.960 . S
H75 C71 0.960 . S
H76 C71 0.960 . S
H77 C71 0.959 . S
C78 N79 1.317 . S
C78 N80 1.348 . S
C78 C81 1.485 . S
N79 C78 1.317 . S
N79 N83 1.370 . S
N80 C78 1.348 . S
N80 C82 1.346 . S
C81 C78 1.485 . S
C81 H85 0.960 . S
C81 H86 0.961 . S
C81 H87 0.960 . S
C82 N80 1.346 . S
C82 N83 1.307 . S
C82 C84 1.486 . S
N83 N79 1.370 . S
N83 C82 1.307 . S
C84 C82 1.486 . S
C84 H88 0.960 . S
C84 H89 0.960 . S
C84 H90 0.959 . S
H85 C81 0.960 . S
H86 C81 0.961 . S
H87 C81 0.960 . S
H88 C84 0.960 . S
H89 C84 0.960 . S
H90 C84 0.959 . S
C91 N92 1.317 . S
C91 N93 1.348 . S
C91 C94 1.485 . S
N92 C91 1.317 . S
N92 N96 1.370 . S
N93 C91 1.348 . S
N93 C95 1.346 . S
C94 C91 1.485 . S
C94 H98 0.960 . S
C94 H99 0.961 . S
C94 H100 0.960 . S
C95 N93 1.346 . S
C95 N96 1.307 . S
C95 C97 1.486 . S
N96 N92 1.370 . S
N96 C95 1.307 . S
C97 C95 1.486 . S
C97 H101 0.960 . S
C97 H102 0.960 . S
C97 H103 0.959 . S
H98 C94 0.960 . S
H99 C94 0.961 . S
H100 C94 0.960 . S
H101 C97 0.960 . S
H102 C97 0.960 . S
H103 C97 0.959 . S
Dy104 O108 2.398 . S
Dy104 O109 2.491 . S
Dy104 O110 2.404 1_545 S
Dy104 O111 2.664 1_545 S
Dy104 O115 2.326 . S
Dy104 O119 2.310 . S
Dy104 O120 2.351 1_545 S
C105 O116 1.185 . S
C105 O117 1.355 1_655 S
C106 O108 1.185 . S
C106 O109 1.355 . S
Dy107 O111 2.310 1_545 S
Dy107 O114 2.351 . S
Dy107 O116 2.398 1_445 S
Dy107 O117 2.491 1_545 S
Dy107 O118 2.403 1_455 S
Dy107 O119 2.664 . S
Dy107 O121 2.326 1_445 S
O108 Dy104 2.398 . S
O108 C106 1.185 . S
O109 Dy104 2.491 . S
O109 C106 1.355 . S
O110 Dy104 2.404 1_565 S
O110 C112 1.254 . S
O111 Dy104 2.664 1_565 S
O111 Dy107 2.310 1_565 S
O111 C112 1.268 . S
C112 O110 1.254 . S
C112 O111 1.268 . S
C113 O118 1.254 . S
C113 O119 1.268 1_655 S
O114 Dy107 2.351 . S
O114 C122 1.249 . S
O115 Dy104 2.326 . S
O115 C122 1.267 . S
O116 C105 1.185 . S
O116 Dy107 2.398 1_665 S
O117 C105 1.355 1_455 S
O117 Dy107 2.491 1_565 S
O118 Dy107 2.403 1_655 S
O118 C113 1.254 . S
O119 Dy104 2.310 . S
O119 Dy107 2.664 . S
O119 C113 1.268 1_455 S
O120 Dy104 2.351 1_565 S
O120 C123 1.233 1_455 S
O121 Dy107 2.326 1_665 S
O121 C123 1.281 . S
C122 O114 1.249 . S
C122 O115 1.267 . S
C123 O120 1.233 1_655 S
C123 O121 1.281 . S
Dy124 O128 2.398 . S
Dy124 O129 2.491 . S
Dy124 O130 2.403 1_545 S
Dy124 O131 2.664 1_545 S
Dy124 O135 2.326 . S
Dy124 O139 2.310 . S
Dy124 O140 2.351 1_545 S
C125 O136 1.185 1_565 S
C125 O137 1.355 . S
C126 O128 1.185 . S
C126 O129 1.355 . S
Dy127 O131 2.310 1_546 S
Dy127 O134 2.351 1_556 S
Dy127 O136 2.398 . S
Dy127 O137 2.491 1_545 S
Dy127 O138 2.403 . S
Dy127 O139 2.664 1_556 S
Dy127 O141 2.326 . S
O128 Dy124 2.398 . S
O128 C126 1.185 . S
O129 Dy124 2.491 . S
O129 C126 1.355 . S
O130 Dy124 2.403 1_565 S
O130 C132 1.254 . S
O131 Dy124 2.664 1_565 S
O131 Dy127 2.310 1_564 S
O131 C132 1.268 . S
C132 O130 1.254 . S
C132 O131 1.268 . S
C133 O138 1.254 . S
C133 O139 1.268 1_556 S
O134 Dy127 2.351 1_554 S
O134 C142 1.249 . S
O135 Dy124 2.326 . S
O135 C142 1.267 . S
O136 C125 1.185 1_545 S
O136 Dy127 2.398 . S
O137 C125 1.355 . S
O137 Dy127 2.491 1_565 S
O138 Dy127 2.403 . S
O138 C133 1.254 . S
O139 Dy124 2.310 . S
O139 Dy127 2.664 1_554 S
O139 C133 1.268 1_554 S
O140 Dy124 2.351 1_565 S
O140 C143 1.249 1_554 S
O141 Dy127 2.326 . S
O141 C143 1.267 1_545 S
C142 O134 1.249 . S
C142 O135 1.267 . S
C143 O140 1.249 1_556 S
C143 O141 1.267 1_565 S
Dy144 O148 2.398 . S
Dy144 O149 2.491 . S
Dy144 O150 2.403 . S
Dy144 O151 2.664 . S
Dy144 O155 2.326 . S
Dy144 O159 2.310 . S
Dy144 O160 2.351 . S
C145 O156 1.185 . S
C145 O157 1.355 . S
C146 O148 1.185 . S
C146 O149 1.355 . S
Dy147 O151 2.310 . S
Dy147 O154 2.351 . S
Dy147 O156 2.398 . S
Dy147 O157 2.491 . S
Dy147 O158 2.403 . S
Dy147 O159 2.664 . S
Dy147 O161 2.326 . S
O148 Dy144 2.398 . S
O148 C146 1.185 . S
O149 Dy144 2.491 . S
O149 C146 1.355 . S
O150 Dy144 2.403 . S
O150 C152 1.254 . S
O151 Dy144 2.664 . S
O151 Dy147 2.310 . S
O151 C152 1.268 . S
C152 O150 1.254 . S
C152 O151 1.268 . S
C153 O158 1.254 . S
C153 O159 1.268 . S
O154 Dy147 2.351 . S
O154 C162 1.249 . S
O155 Dy144 2.326 . S
O155 C162 1.267 . S
O156 C145 1.185 . S
O156 Dy147 2.398 . S
O157 C145 1.355 . S
O157 Dy147 2.491 . S
O158 Dy147 2.403 . S
O158 C153 1.254 . S
O159 Dy144 2.310 . S
O159 Dy147 2.664 . S
O159 C153 1.268 . S
O160 Dy144 2.351 . S
O160 C163 1.249 . S
O161 Dy147 2.326 . S
O161 C163 1.267 . S
C162 O154 1.249 . S
C162 O155 1.267 . S
C163 O160 1.249 . S
C163 O161 1.267 . S
Dy164 O168 2.398 . S
Dy164 O169 2.491 . S
Dy164 O170 2.403 1_455 S
Dy164 O171 2.664 1_455 S
Dy164 O175 2.326 . S
Dy164 O179 2.310 1_554 S
Dy164 O180 2.351 1_454 S
C165 O176 1.185 . S
C165 O177 1.355 . S
C166 O168 1.185 . S
C166 O169 1.355 . S
Dy167 O171 2.310 1_556 S
Dy167 O174 2.351 1_656 S
Dy167 O176 2.398 . S
Dy167 O177 2.491 . S
Dy167 O178 2.403 1_655 S
Dy167 O179 2.664 1_655 S
Dy167 O181 2.326 . S
O168 Dy164 2.398 . S
O168 C166 1.185 . S
O169 Dy164 2.491 . S
O169 C166 1.355 . S
O170 Dy164 2.403 1_655 S
O170 C172 1.254 . S
O171 Dy164 2.664 1_655 S
O171 Dy167 2.310 1_554 S
O171 C172 1.268 . S
C172 O170 1.254 . S
C172 O171 1.268 . S
C173 O178 1.254 . S
C173 O179 1.268 . S
O174 Dy167 2.351 1_454 S
O174 C182 1.249 . S
O175 Dy164 2.326 . S
O175 C182 1.267 . S
O176 C165 1.185 . S
O176 Dy167 2.398 . S
O177 C165 1.355 . S
O177 Dy167 2.491 . S
O178 Dy167 2.403 1_455 S
O178 C173 1.254 . S
O179 Dy164 2.310 1_556 S
O179 Dy167 2.664 1_455 S
O179 C173 1.268 . S
O180 Dy164 2.351 1_656 S
O180 C183 1.249 . S
O181 Dy167 2.326 . S
O181 C183 1.267 . S
C182 O174 1.249 . S
C182 O175 1.267 . S
C183 O180 1.249 . S
C183 O181 1.267 . S
H184 C196 0.930 . S
H185 C198 0.930 . S
H186 C199 0.930 . S
H187 C203 0.959 . S
H188 C203 0.959 . S
H189 C203 0.961 . S
H190 C204 0.960 . S
H191 C204 0.961 . S
H192 C204 0.959 . S
H193 C207 0.929 . S
H194 C208 0.931 . S
H195 C210 0.930 . S
C196 H184 0.930 . S
C196 C197 1.399 . S
C196 C201 1.399 . S
C197 C196 1.399 . S
C197 C198 1.376 . S
C198 H185 0.930 . S
C198 C197 1.376 . S
C198 C199 1.388 . S
C199 H186 0.930 . S
C199 C198 1.388 . S
C199 C200 1.390 . S
C200 C199 1.390 . S
C200 C201 1.394 . S
C200 C206 1.465 . S
C201 C196 1.399 . S
C201 C200 1.394 . S
C201 C202 1.516 . S
C202 C201 1.516 . S
C202 C203 1.502 . S
C202 C204 1.561 . S
C202 C205 1.526 . S
C203 H187 0.959 . S
C203 H188 0.959 . S
C203 H189 0.961 . S
C203 C202 1.502 . S
C204 H190 0.960 . S
C204 H191 0.961 . S
C204 H192 0.959 . S
C204 C202 1.561 . S
C205 C202 1.526 . S
C205 C206 1.396 . S
C205 C210 1.390 . S
C206 C200 1.465 . S
C206 C205 1.396 . S
C206 C207 1.399 . S
C207 H193 0.929 . S
C207 C206 1.399 . S
C207 C208 1.385 . S
C208 H194 0.931 . S
C208 C207 1.385 . S
C208 C209 1.389 . S
C209 C208 1.389 . S
C209 C210 1.387 . S
C210 H195 0.930 . S
C210 C205 1.390 . S
C210 C209 1.387 . S
H211 C223 0.930 . S
H212 C225 0.930 . S
H213 C226 0.930 . S
H214 C230 0.959 . S
H215 C230 0.959 . S
H216 C230 0.961 . S
H217 C231 0.960 . S
H218 C231 0.961 . S
H219 C231 0.959 . S
H220 C234 0.929 1_545 S
H221 C235 0.931 1_545 S
H222 C237 0.930 . S
C223 H211 0.930 . S
C223 C224 1.399 . S
C223 C228 1.399 . S
C224 C223 1.399 . S
C224 C225 1.376 . S
C225 H212 0.930 . S
C225 C224 1.376 . S
C225 C226 1.388 . S
C226 H213 0.930 . S
C226 C225 1.388 . S
C226 C227 1.390 . S
C227 C226 1.390 . S
C227 C228 1.394 . S
C227 C233 1.465 . S
C228 C223 1.399 . S
C228 C227 1.394 . S
C228 C229 1.516 . S
C229 C228 1.516 . S
C229 C230 1.502 . S
C229 C231 1.561 . S
C229 C232 1.526 . S
C230 H214 0.959 . S
C230 H215 0.959 . S
C230 H216 0.961 . S
C230 C229 1.502 . S
C231 H217 0.960 . S
C231 H218 0.961 . S
C231 H219 0.959 . S
C231 C229 1.561 . S
C232 C229 1.526 . S
C232 C233 1.396 . S
C232 C237 1.390 . S
C233 C227 1.465 . S
C233 C232 1.396 . S
C233 C234 1.399 . S
C234 H220 0.929 1_565 S
C234 C233 1.399 . S
C234 C235 1.385 . S
C235 H221 0.931 1_565 S
C235 C234 1.385 . S
C235 C236 1.389 . S
C236 C235 1.389 . S
C236 C237 1.387 . S
C237 H222 0.930 . S
C237 C232 1.390 . S
C237 C236 1.387 . S
H238 C250 0.930 . S
H239 C252 0.930 . S
H240 C253 0.930 . S
H241 C257 0.959 . S
H242 C257 0.959 . S
H243 C257 0.961 . S
H244 C258 0.960 . S
H245 C258 0.961 . S
H246 C258 0.959 . S
H247 C261 0.929 . S
H248 C262 0.931 . S
H249 C264 0.930 . S
C250 H238 0.930 . S
C250 C251 1.399 . S
C250 C255 1.399 . S
C251 C250 1.399 . S
C251 C252 1.376 . S
C252 H239 0.930 . S
C252 C251 1.376 . S
C252 C253 1.388 . S
C253 H240 0.930 . S
C253 C252 1.388 . S
C253 C254 1.390 . S
C254 C253 1.390 . S
C254 C255 1.394 . S
C254 C260 1.465 . S
C255 C250 1.399 . S
C255 C254 1.394 . S
C255 C256 1.516 . S
C256 C255 1.516 . S
C256 C257 1.502 . S
C256 C258 1.561 . S
C256 C259 1.526 . S
C257 H241 0.959 . S
C257 H242 0.959 . S
C257 H243 0.961 . S
C257 C256 1.502 . S
C258 H244 0.960 . S
C258 H245 0.961 . S
C258 H246 0.959 . S
C258 C256 1.561 . S
C259 C256 1.526 . S
C259 C260 1.396 . S
C259 C264 1.390 . S
C260 C254 1.465 . S
C260 C259 1.396 . S
C260 C261 1.399 . S
C261 H247 0.929 . S
C261 C260 1.399 . S
C261 C262 1.385 . S
C262 H248 0.931 . S
C262 C261 1.385 . S
C262 C263 1.389 . S
C263 C262 1.389 . S
C263 C264 1.387 . S
C264 H249 0.930 . S
C264 C259 1.390 . S
C264 C263 1.387 . S
H265 C277 0.930 . S
H266 C279 0.930 . S
H267 C280 0.930 . S
H268 C284 0.959 . S
H269 C284 0.959 . S
H270 C284 0.961 . S
H271 C285 0.960 . S
H272 C285 0.961 . S
H273 C285 0.959 . S
H274 C288 0.929 . S
H275 C289 0.931 . S
H276 C291 0.930 . S
C277 H265 0.930 . S
C277 C278 1.399 . S
C277 C282 1.399 . S
C278 C277 1.399 . S
C278 C279 1.376 . S
C279 H266 0.930 . S
C279 C278 1.376 . S
C279 C280 1.388 . S
C280 H267 0.930 . S
C280 C279 1.388 . S
C280 C281 1.390 . S
C281 C280 1.390 . S
C281 C282 1.394 . S
C281 C287 1.465 . S
C282 C277 1.399 . S
C282 C281 1.394 . S
C282 C283 1.516 . S
C283 C282 1.516 . S
C283 C284 1.502 . S
C283 C285 1.561 . S
C283 C286 1.526 . S
C284 H268 0.959 . S
C284 H269 0.959 . S
C284 H270 0.961 . S
C284 C283 1.502 . S
C285 H271 0.960 . S
C285 H272 0.961 . S
C285 H273 0.959 . S
C285 C283 1.561 . S
C286 C283 1.526 . S
C286 C287 1.396 . S
C286 C291 1.390 . S
C287 C281 1.465 . S
C287 C286 1.396 . S
C287 C288 1.399 . S
C288 H274 0.929 . S
C288 C287 1.399 . S
C288 C289 1.385 . S
C289 H275 0.931 . S
C289 C288 1.385 . S
C289 C290 1.389 . S
C290 C289 1.389 . S
C290 C291 1.387 . S
C291 H276 0.930 . S
C291 C286 1.390 . S
C291 C290 1.387 . S
H292 C304 0.930 . S
H293 C306 0.930 . S
H294 C307 0.930 . S
H295 C311 0.959 . S
H296 C311 0.959 . S
H297 C311 0.961 . S
H298 C312 0.960 . S
H299 C312 0.961 . S
H300 C312 0.959 . S
H301 C315 0.929 . S
H302 C316 0.931 . S
H303 C318 0.930 . S
C304 H292 0.930 . S
C304 C305 1.399 . S
C304 C309 1.399 . S
C305 C304 1.399 . S
C305 C306 1.376 . S
C306 H293 0.930 . S
C306 C305 1.376 . S
C306 C307 1.388 . S
C307 H294 0.930 . S
C307 C306 1.388 . S
C307 C308 1.390 . S
C308 C307 1.390 . S
C308 C309 1.394 . S
C308 C314 1.465 . S
C309 C304 1.399 . S
C309 C308 1.394 . S
C309 C310 1.516 . S
C310 C309 1.516 . S
C310 C311 1.502 . S
C310 C312 1.561 . S
C310 C313 1.526 . S
C311 H295 0.959 . S
C311 H296 0.959 . S
C311 H297 0.961 . S
C311 C310 1.502 . S
C312 H298 0.960 . S
C312 H299 0.961 . S
C312 H300 0.959 . S
C312 C310 1.561 . S
C313 C310 1.526 . S
C313 C314 1.396 . S
C313 C318 1.390 . S
C314 C308 1.465 . S
C314 C313 1.396 . S
C314 C315 1.399 . S
C315 H301 0.929 . S
C315 C314 1.399 . S
C315 C316 1.385 . S
C316 H302 0.931 . S
C316 C315 1.385 . S
C316 C317 1.389 . S
C317 C316 1.389 . S
C317 C318 1.387 . S
C318 H303 0.930 . S
C318 C313 1.390 . S
C318 C317 1.387 . S
H319 C331 0.930 . S
H320 C333 0.930 . S
H321 C334 0.930 . S
H322 C338 0.959 . S
H323 C338 0.959 . S
H324 C338 0.961 . S
H325 C339 0.960 . S
H326 C339 0.961 . S
H327 C339 0.959 . S
H328 C342 0.929 1_545 S
H329 C343 0.931 1_545 S
H330 C345 0.930 . S
C331 H319 0.930 . S
C331 C332 1.399 . S
C331 C336 1.399 . S
C332 C331 1.399 . S
C332 C333 1.376 . S
C333 H320 0.930 . S
C333 C332 1.376 . S
C333 C334 1.388 . S
C334 H321 0.930 . S
C334 C333 1.388 . S
C334 C335 1.390 . S
C335 C334 1.390 . S
C335 C336 1.394 . S
C335 C341 1.465 . S
C336 C331 1.399 . S
C336 C335 1.394 . S
C336 C337 1.516 . S
C337 C336 1.516 . S
C337 C338 1.502 . S
C337 C339 1.561 . S
C337 C340 1.526 . S
C338 H322 0.959 . S
C338 H323 0.959 . S
C338 H324 0.961 . S
C338 C337 1.502 . S
C339 H325 0.960 . S
C339 H326 0.961 . S
C339 H327 0.959 . S
C339 C337 1.561 . S
C340 C337 1.526 . S
C340 C341 1.396 . S
C340 C345 1.390 . S
C341 C335 1.465 . S
C341 C340 1.396 . S
C341 C342 1.399 . S
C342 H328 0.929 1_565 S
C342 C341 1.399 . S
C342 C343 1.385 . S
C343 H329 0.931 1_565 S
C343 C342 1.385 . S
C343 C344 1.389 . S
C344 C343 1.389 . S
C344 C345 1.387 . S
C345 H330 0.930 . S
C345 C340 1.390 . S
C345 C344 1.387 . S
H346 C358 0.930 . S
H347 C360 0.930 . S
H348 C361 0.930 . S
H349 C365 0.959 . S
H350 C365 0.959 . S
H351 C365 0.961 . S
H352 C366 0.960 . S
H353 C366 0.961 . S
H354 C366 0.959 . S
H355 C369 0.929 . S
H356 C370 0.931 . S
H357 C372 0.930 . S
C358 H346 0.930 . S
C358 C359 1.399 . S
C358 C363 1.399 . S
C359 C358 1.399 . S
C359 C360 1.376 . S
C360 H347 0.930 . S
C360 C359 1.376 . S
C360 C361 1.388 . S
C361 H348 0.930 . S
C361 C360 1.388 . S
C361 C362 1.390 . S
C362 C361 1.390 . S
C362 C363 1.394 . S
C362 C368 1.465 . S
C363 C358 1.399 . S
C363 C362 1.394 . S
C363 C364 1.516 . S
C364 C363 1.516 . S
C364 C365 1.502 . S
C364 C366 1.561 . S
C364 C367 1.526 . S
C365 H349 0.959 . S
C365 H350 0.959 . S
C365 H351 0.961 . S
C365 C364 1.502 . S
C366 H352 0.960 . S
C366 H353 0.961 . S
C366 H354 0.959 . S
C366 C364 1.561 . S
C367 C364 1.526 . S
C367 C368 1.396 . S
C367 C372 1.390 . S
C368 C362 1.465 . S
C368 C367 1.396 . S
C368 C369 1.399 . S
C369 H355 0.929 . S
C369 C368 1.399 . S
C369 C370 1.385 . S
C370 H356 0.931 . S
C370 C369 1.385 . S
C370 C371 1.389 . S
C371 C370 1.389 . S
C371 C372 1.387 . S
C372 H357 0.930 . S
C372 C367 1.390 . S
C372 C371 1.387 . S
H373 C385 0.930 . S
H374 C387 0.930 . S
H375 C388 0.930 . S
H376 C392 0.959 . S
H377 C392 0.959 . S
H378 C392 0.961 . S
H379 C393 0.960 . S
H380 C393 0.961 . S
H381 C393 0.959 . S
H382 C396 0.929 . S
H383 C397 0.931 . S
H384 C399 0.930 . S
C385 H373 0.930 . S
C385 C386 1.399 . S
C385 C390 1.399 . S
C386 C385 1.399 . S
C386 C387 1.376 . S
C387 H374 0.930 . S
C387 C386 1.376 . S
C387 C388 1.388 . S
C388 H375 0.930 . S
C388 C387 1.388 . S
C388 C389 1.390 . S
C389 C388 1.390 . S
C389 C390 1.394 . S
C389 C395 1.465 . S
C390 C385 1.399 . S
C390 C389 1.394 . S
C390 C391 1.516 . S
C391 C390 1.516 . S
C391 C392 1.502 . S
C391 C393 1.561 . S
C391 C394 1.526 . S
C392 H376 0.959 . S
C392 H377 0.959 . S
C392 H378 0.961 . S
C392 C391 1.502 . S
C393 H379 0.960 . S
C393 H380 0.961 . S
C393 H381 0.959 . S
C393 C391 1.561 . S
C394 C391 1.526 . S
C394 C395 1.396 . S
C394 C399 1.390 . S
C395 C389 1.465 . S
C395 C394 1.396 . S
C395 C396 1.399 . S
C396 H382 0.929 . S
C396 C395 1.399 . S
C396 C397 1.385 . S
C397 H383 0.931 . S
C397 C396 1.385 . S
C397 C398 1.389 . S
C398 C397 1.389 . S
C398 C399 1.387 . S
C399 H384 0.930 . S
C399 C394 1.390 . S
C399 C398 1.387 . S
H400 C412 0.930 . S
H401 C414 0.930 . S
H402 C415 0.930 . S
H403 C419 0.959 . S
H404 C419 0.959 . S
H405 C419 0.961 . S
H406 C420 0.960 . S
H407 C420 0.961 . S
H408 C420 0.959 . S
H409 C423 0.929 . S
H410 C424 0.931 . S
H411 C426 0.930 . S
C412 H400 0.930 . S
C412 C413 1.399 . S
C412 C417 1.399 . S
C413 C412 1.399 . S
C413 C414 1.376 . S
C414 H401 0.930 . S
C414 C413 1.376 . S
C414 C415 1.388 . S
C415 H402 0.930 . S
C415 C414 1.388 . S
C415 C416 1.390 . S
C416 C415 1.390 . S
C416 C417 1.394 . S
C416 C422 1.465 . S
C417 C412 1.399 . S
C417 C416 1.394 . S
C417 C418 1.516 . S
C418 C417 1.516 . S
C418 C419 1.502 . S
C418 C420 1.561 . S
C418 C421 1.526 . S
C419 H403 0.959 . S
C419 H404 0.959 . S
C419 H405 0.961 . S
C419 C418 1.502 . S
C420 H406 0.960 . S
C420 H407 0.961 . S
C420 H408 0.959 . S
C420 C418 1.561 . S
C421 C418 1.526 . S
C421 C422 1.396 . S
C421 C426 1.390 . S
C422 C416 1.465 . S
C422 C421 1.396 . S
C422 C423 1.399 . S
C423 H409 0.929 . S
C423 C422 1.399 . S
C423 C424 1.385 . S
C424 H410 0.931 . S
C424 C423 1.385 . S
C424 C425 1.389 . S
C425 C424 1.389 . S
C425 C426 1.387 . S
C426 H411 0.930 . S
C426 C421 1.390 . S
C426 C425 1.387 . S
H427 C439 0.930 . S
H428 C441 0.930 . S
H429 C442 0.930 . S
H430 C446 0.959 . S
H431 C446 0.959 . S
H432 C446 0.961 . S
H433 C447 0.960 . S
H434 C447 0.961 . S
H435 C447 0.959 . S
H436 C450 0.929 . S
H437 C451 0.931 1_554 S
H438 C453 0.930 . S
C439 H427 0.930 . S
C439 C440 1.399 . S
C439 C444 1.399 . S
C440 C439 1.399 . S
C440 C441 1.376 . S
C441 H428 0.930 . S
C441 C440 1.376 . S
C441 C442 1.388 . S
C442 H429 0.930 . S
C442 C441 1.388 . S
C442 C443 1.390 . S
C443 C442 1.390 . S
C443 C444 1.394 . S
C443 C449 1.465 . S
C444 C439 1.399 . S
C444 C443 1.394 . S
C444 C445 1.516 . S
C445 C444 1.516 . S
C445 C446 1.502 . S
C445 C447 1.561 . S
C445 C448 1.526 . S
C446 H430 0.959 . S
C446 H431 0.959 . S
C446 H432 0.961 . S
C446 C445 1.502 . S
C447 H433 0.960 . S
C447 H434 0.961 . S
C447 H435 0.959 . S
C447 C445 1.561 . S
C448 C445 1.526 . S
C448 C449 1.396 . S
C448 C453 1.390 . S
C449 C443 1.465 . S
C449 C448 1.396 . S
C449 C450 1.399 . S
C450 H436 0.929 . S
C450 C449 1.399 . S
C450 C451 1.385 . S
C451 H437 0.931 1_556 S
C451 C450 1.385 . S
C451 C452 1.389 . S
C452 C451 1.389 . S
C452 C453 1.387 . S
C453 H438 0.930 . S
C453 C448 1.390 . S
C453 C452 1.387 . S
H454 C466 0.930 . S
H455 C468 0.930 . S
H456 C469 0.930 . S
H457 C473 0.959 . S
H458 C473 0.959 . S
H459 C473 0.961 . S
H460 C474 0.960 . S
H461 C474 0.961 . S
H462 C474 0.959 . S
H463 C477 0.929 . S
H464 C478 0.931 . S
H465 C480 0.930 . S
C466 H454 0.930 . S
C466 C467 1.399 . S
C466 C471 1.399 . S
C467 C466 1.399 . S
C467 C468 1.376 . S
C468 H455 0.930 . S
C468 C467 1.376 . S
C468 C469 1.388 . S
C469 H456 0.930 . S
C469 C468 1.388 . S
C469 C470 1.390 . S
C470 C469 1.390 . S
C470 C471 1.394 . S
C470 C476 1.465 . S
C471 C466 1.399 . S
C471 C470 1.394 . S
C471 C472 1.516 . S
C472 C471 1.516 . S
C472 C473 1.502 . S
C472 C474 1.561 . S
C472 C475 1.526 . S
C473 H457 0.959 . S
C473 H458 0.959 . S
C473 H459 0.961 . S
C473 C472 1.502 . S
C474 H460 0.960 . S
C474 H461 0.961 . S
C474 H462 0.959 . S
C474 C472 1.561 . S
C475 C472 1.526 . S
C475 C476 1.396 . S
C475 C480 1.390 . S
C476 C470 1.465 . S
C476 C475 1.396 . S
C476 C477 1.399 . S
C477 H463 0.929 . S
C477 C476 1.399 . S
C477 C478 1.385 . S
C478 H464 0.931 . S
C478 C477 1.385 . S
C478 C479 1.389 . S
C479 C478 1.389 . S
C479 C480 1.387 . S
C480 H465 0.930 . S
C480 C475 1.390 . S
C480 C479 1.387 . S
H481 C493 0.930 . S
H482 C495 0.930 . S
H483 C496 0.930 . S
H484 C500 0.959 . S
H485 C500 0.959 . S
H486 C500 0.961 . S
H487 C501 0.960 . S
H488 C501 0.961 . S
H489 C501 0.959 . S
H490 C504 0.929 . S
H491 C505 0.931 . S
H492 C507 0.930 . S
C493 H481 0.930 . S
C493 C494 1.399 . S
C493 C498 1.399 . S
C494 C493 1.399 . S
C494 C495 1.376 . S
C495 H482 0.930 . S
C495 C494 1.376 . S
C495 C496 1.388 . S
C496 H483 0.930 . S
C496 C495 1.388 . S
C496 C497 1.390 . S
C497 C496 1.390 . S
C497 C498 1.394 . S
C497 C503 1.465 . S
C498 C493 1.399 . S
C498 C497 1.394 . S
C498 C499 1.516 . S
C499 C498 1.516 . S
C499 C500 1.502 . S
C499 C501 1.561 . S
C499 C502 1.526 . S
C500 H484 0.959 . S
C500 H485 0.959 . S
C500 H486 0.961 . S
C500 C499 1.502 . S
C501 H487 0.960 . S
C501 H488 0.961 . S
C501 H489 0.959 . S
C501 C499 1.561 . S
C502 C499 1.526 . S
C502 C503 1.396 . S
C502 C507 1.390 . S
C503 C497 1.465 . S
C503 C502 1.396 . S
C503 C504 1.399 . S
C504 H490 0.929 . S
C504 C503 1.399 . S
C504 C505 1.385 . S
C505 H491 0.931 . S
C505 C504 1.385 . S
C505 C506 1.389 . S
C506 C505 1.389 . S
C506 C507 1.387 . S
C507 H492 0.930 . S
C507 C502 1.390 . S
C507 C506 1.387 . S
H508 C520 0.930 . S
H509 C522 0.930 . S
H510 C523 0.930 . S
H511 C527 0.959 . S
H512 C527 0.959 . S
H513 C527 0.961 . S
H514 C528 0.960 . S
H515 C528 0.961 . S
H516 C528 0.959 . S
H517 C531 0.929 . S
H518 C532 0.931 . S
H519 C534 0.930 . S
C520 H508 0.930 . S
C520 C521 1.399 . S
C520 C525 1.399 . S
C521 C520 1.399 . S
C521 C522 1.376 . S
C522 H509 0.930 . S
C522 C521 1.376 . S
C522 C523 1.388 . S
C523 H510 0.930 . S
C523 C522 1.388 . S
C523 C524 1.390 . S
C524 C523 1.390 . S
C524 C525 1.394 . S
C524 C530 1.465 . S
C525 C520 1.399 . S
C525 C524 1.394 . S
C525 C526 1.516 . S
C526 C525 1.516 . S
C526 C527 1.502 . S
C526 C528 1.561 . S
C526 C529 1.526 . S
C527 H511 0.959 . S
C527 H512 0.959 . S
C527 H513 0.961 . S
C527 C526 1.502 . S
C528 H514 0.960 . S
C528 H515 0.961 . S
C528 H516 0.959 . S
C528 C526 1.561 . S
C529 C526 1.526 . S
C529 C530 1.396 . S
C529 C534 1.390 . S
C530 C524 1.465 . S
C530 C529 1.396 . S
C530 C531 1.399 . S
C531 H517 0.929 . S
C531 C530 1.399 . S
C531 C532 1.385 . S
C532 H518 0.931 . S
C532 C531 1.385 . S
C532 C533 1.389 . S
C533 C532 1.389 . S
C533 C534 1.387 . S
C534 H519 0.930 . S
C534 C529 1.390 . S
C534 C533 1.387 . S
H535 C547 0.930 . S
H536 C549 0.930 . S
H537 C550 0.930 . S
H538 C554 0.959 . S
H539 C554 0.959 . S
H540 C554 0.961 . S
H541 C555 0.960 . S
H542 C555 0.961 . S
H543 C555 0.959 . S
H544 C558 0.929 . S
H545 C559 0.931 . S
H546 C561 0.930 . S
C547 H535 0.930 . S
C547 C548 1.399 . S
C547 C552 1.399 . S
C548 C547 1.399 . S
C548 C549 1.376 . S
C549 H536 0.930 . S
C549 C548 1.376 . S
C549 C550 1.388 . S
C550 H537 0.930 . S
C550 C549 1.388 . S
C550 C551 1.390 . S
C551 C550 1.390 . S
C551 C552 1.394 . S
C551 C557 1.465 . S
C552 C547 1.399 . S
C552 C551 1.394 . S
C552 C553 1.516 . S
C553 C552 1.516 . S
C553 C554 1.502 . S
C553 C555 1.561 . S
C553 C556 1.526 . S
C554 H538 0.959 . S
C554 H539 0.959 . S
C554 H540 0.961 . S
C554 C553 1.502 . S
C555 H541 0.960 . S
C555 H542 0.961 . S
C555 H543 0.959 . S
C555 C553 1.561 . S
C556 C553 1.526 . S
C556 C557 1.396 . S
C556 C561 1.390 . S
C557 C551 1.465 . S
C557 C556 1.396 . S
C557 C558 1.399 . S
C558 H544 0.929 . S
C558 C557 1.399 . S
C558 C559 1.385 . S
C559 H545 0.931 . S
C559 C558 1.385 . S
C559 C560 1.389 . S
C560 C559 1.389 . S
C560 C561 1.387 . S
C561 H546 0.930 . S
C561 C556 1.390 . S
C561 C560 1.387 . S
H562 C574 0.930 . S
H563 C576 0.930 . S
H564 C577 0.930 . S
H565 C581 0.959 . S
H566 C581 0.959 . S
H567 C581 0.961 . S
H568 C582 0.960 . S
H569 C582 0.961 . S
H570 C582 0.959 . S
H571 C585 0.929 . S
H572 C586 0.931 . S
H573 C588 0.930 . S
C574 H562 0.930 . S
C574 C575 1.399 . S
C574 C579 1.399 . S
C575 C574 1.399 . S
C575 C576 1.376 . S
C576 H563 0.930 . S
C576 C575 1.376 . S
C576 C577 1.388 . S
C577 H564 0.930 . S
C577 C576 1.388 . S
C577 C578 1.390 . S
C578 C577 1.390 . S
C578 C579 1.394 . S
C578 C584 1.465 . S
C579 C574 1.399 . S
C579 C578 1.394 . S
C579 C580 1.516 . S
C580 C579 1.516 . S
C580 C581 1.502 . S
C580 C582 1.561 . S
C580 C583 1.526 . S
C581 H565 0.959 . S
C581 H566 0.959 . S
C581 H567 0.961 . S
C581 C580 1.502 . S
C582 H568 0.960 . S
C582 H569 0.961 . S
C582 H570 0.959 . S
C582 C580 1.561 . S
C583 C580 1.526 . S
C583 C584 1.396 . S
C583 C588 1.390 . S
C584 C578 1.465 . S
C584 C583 1.396 . S
C584 C585 1.399 . S
C585 H571 0.929 . S
C585 C584 1.399 . S
C585 C586 1.385 . S
C586 H572 0.931 . S
C586 C585 1.385 . S
C586 C587 1.389 . S
C587 C586 1.389 . S
C587 C588 1.387 . S
C588 H573 0.930 . S
C588 C583 1.390 . S
C588 C587 1.387 . S
H589 C601 0.930 . S
H590 C603 0.930 . S
H591 C604 0.930 . S
H592 C608 0.959 . S
H593 C608 0.959 . S
H594 C608 0.961 . S
H595 C609 0.960 . S
H596 C609 0.961 . S
H597 C609 0.959 . S
H598 C612 0.929 . S
H599 C613 0.931 . S
H600 C615 0.930 . S
C601 H589 0.930 . S
C601 C602 1.399 . S
C601 C606 1.399 . S
C602 C601 1.399 . S
C602 C603 1.376 . S
C603 H590 0.930 . S
C603 C602 1.376 . S
C603 C604 1.388 . S
C604 H591 0.930 . S
C604 C603 1.388 . S
C604 C605 1.390 . S
C605 C604 1.390 . S
C605 C606 1.394 . S
C605 C611 1.465 . S
C606 C601 1.399 . S
C606 C605 1.394 . S
C606 C607 1.516 . S
C607 C606 1.516 . S
C607 C608 1.502 . S
C607 C609 1.561 . S
C607 C610 1.526 . S
C608 H592 0.959 . S
C608 H593 0.959 . S
C608 H594 0.961 . S
C608 C607 1.502 . S
C609 H595 0.960 . S
C609 H596 0.961 . S
C609 H597 0.959 . S
C609 C607 1.561 . S
C610 C607 1.526 . S
C610 C611 1.396 . S
C610 C615 1.390 . S
C611 C605 1.465 . S
C611 C610 1.396 . S
C611 C612 1.399 . S
C612 H598 0.929 . S
C612 C611 1.399 . S
C612 C613 1.385 . S
C613 H599 0.931 . S
C613 C612 1.385 . S
C613 C614 1.389 . S
C614 C613 1.389 . S
C614 C615 1.387 . S
C615 H600 0.930 . S
C615 C610 1.390 . S
C615 C614 1.387 . S
H616 C628 0.930 . S
H617 C630 0.930 . S
H618 C631 0.930 . S
H619 C635 0.959 . S
H620 C635 0.959 . S
H621 C635 0.961 . S
H622 C636 0.960 . S
H623 C636 0.961 . S
H624 C636 0.959 . S
H625 C639 0.929 . S
H626 C640 0.931 1_545 S
H627 C642 0.930 . S
C628 H616 0.930 . S
C628 C629 1.399 . S
C628 C633 1.399 . S
C629 C628 1.399 . S
C629 C630 1.376 . S
C630 H617 0.930 . S
C630 C629 1.376 . S
C630 C631 1.388 . S
C631 H618 0.930 . S
C631 C630 1.388 . S
C631 C632 1.390 . S
C632 C631 1.390 . S
C632 C633 1.394 . S
C632 C638 1.465 . S
C633 C628 1.399 . S
C633 C632 1.394 . S
C633 C634 1.516 . S
C634 C633 1.516 . S
C634 C635 1.502 . S
C634 C636 1.561 . S
C634 C637 1.526 . S
C635 H619 0.959 . S
C635 H620 0.959 . S
C635 H621 0.961 . S
C635 C634 1.502 . S
C636 H622 0.960 . S
C636 H623 0.961 . S
C636 H624 0.959 . S
C636 C634 1.561 . S
C637 C634 1.526 . S
C637 C638 1.396 . S
C637 C642 1.390 . S
C638 C632 1.465 . S
C638 C637 1.396 . S
C638 C639 1.399 . S
C639 H625 0.929 . S
C639 C638 1.399 . S
C639 C640 1.385 . S
C640 H626 0.931 1_565 S
C640 C639 1.385 . S
C640 C641 1.389 . S
C641 C640 1.389 . S
C641 C642 1.387 . S
C642 H627 0.930 . S
C642 C637 1.390 . S
C642 C641 1.387 . S
H643 C655 0.930 . S
H644 C657 0.930 . S
H645 C658 0.930 . S
H646 C662 0.959 . S
H647 C662 0.959 . S
H648 C662 0.961 . S
H649 C663 0.960 . S
H650 C663 0.961 . S
H651 C663 0.959 . S
H652 C666 0.929 . S
H653 C667 0.931 . S
H654 C669 0.930 . S
C655 H643 0.930 . S
C655 C656 1.399 . S
C655 C660 1.399 . S
C656 C655 1.399 . S
C656 C657 1.376 . S
C657 H644 0.930 . S
C657 C656 1.376 . S
C657 C658 1.388 . S
C658 H645 0.930 . S
C658 C657 1.388 . S
C658 C659 1.390 . S
C659 C658 1.390 . S
C659 C660 1.394 . S
C659 C665 1.465 . S
C660 C655 1.399 . S
C660 C659 1.394 . S
C660 C661 1.516 . S
C661 C660 1.516 . S
C661 C662 1.502 . S
C661 C663 1.561 . S
C661 C664 1.526 . S
C662 H646 0.959 . S
C662 H647 0.959 . S
C662 H648 0.961 . S
C662 C661 1.502 . S
C663 H649 0.960 . S
C663 H650 0.961 . S
C663 H651 0.959 . S
C663 C661 1.561 . S
C664 C661 1.526 . S
C664 C665 1.396 . S
C664 C669 1.390 . S
C665 C659 1.465 . S
C665 C664 1.396 . S
C665 C666 1.399 . S
C666 H652 0.929 . S
C666 C665 1.399 . S
C666 C667 1.385 . S
C667 H653 0.931 . S
C667 C666 1.385 . S
C667 C668 1.389 . S
C668 C667 1.389 . S
C668 C669 1.387 . S
C669 H654 0.930 . S
C669 C664 1.390 . S
C669 C668 1.387 . S
H670 C682 0.930 . S
H671 C684 0.930 . S
H672 C685 0.930 . S
H673 C689 0.959 . S
H674 C689 0.959 . S
H675 C689 0.961 . S
H676 C690 0.960 . S
H677 C690 0.961 . S
H678 C690 0.959 . S
H679 C693 0.929 . S
H680 C694 0.931 1_556 S
H681 C696 0.930 . S
C682 H670 0.930 . S
C682 C683 1.399 . S
C682 C687 1.399 . S
C683 C682 1.399 . S
C683 C684 1.376 . S
C684 H671 0.930 . S
C684 C683 1.376 . S
C684 C685 1.388 . S
C685 H672 0.930 . S
C685 C684 1.388 . S
C685 C686 1.390 . S
C686 C685 1.390 . S
C686 C687 1.394 . S
C686 C692 1.465 . S
C687 C682 1.399 . S
C687 C686 1.394 . S
C687 C688 1.516 . S
C688 C687 1.516 . S
C688 C689 1.502 . S
C688 C690 1.561 . S
C688 C691 1.526 . S
C689 H673 0.959 . S
C689 H674 0.959 . S
C689 H675 0.961 . S
C689 C688 1.502 . S
C690 H676 0.960 . S
C690 H677 0.961 . S
C690 H678 0.959 . S
C690 C688 1.561 . S
C691 C688 1.526 . S
C691 C692 1.396 . S
C691 C696 1.390 . S
C692 C686 1.465 . S
C692 C691 1.396 . S
C692 C693 1.399 . S
C693 H679 0.929 . S
C693 C692 1.399 . S
C693 C694 1.385 . S
C694 H680 0.931 1_554 S
C694 C693 1.385 . S
C694 C695 1.389 . S
C695 C694 1.389 . S
C695 C696 1.387 . S
C696 H681 0.930 . S
C696 C691 1.390 . S
C696 C695 1.387 . S
H697 C709 0.930 . S
H698 C711 0.930 . S
H699 C712 0.930 . S
H700 C716 0.959 . S
H701 C716 0.959 . S
H702 C716 0.961 . S
H703 C717 0.960 . S
H704 C717 0.961 . S
H705 C717 0.959 . S
H706 C720 0.929 . S
H707 C721 0.931 . S
H708 C723 0.930 . S
C709 H697 0.930 . S
C709 C710 1.399 . S
C709 C714 1.399 . S
C710 C709 1.399 . S
C710 C711 1.376 . S
C711 H698 0.930 . S
C711 C710 1.376 . S
C711 C712 1.388 . S
C712 H699 0.930 . S
C712 C711 1.388 . S
C712 C713 1.390 . S
C713 C712 1.390 . S
C713 C714 1.394 . S
C713 C719 1.465 . S
C714 C709 1.399 . S
C714 C713 1.394 . S
C714 C715 1.516 . S
C715 C714 1.516 . S
C715 C716 1.502 . S
C715 C717 1.561 . S
C715 C718 1.526 . S
C716 H700 0.959 . S
C716 H701 0.959 . S
C716 H702 0.961 . S
C716 C715 1.502 . S
C717 H703 0.960 . S
C717 H704 0.961 . S
C717 H705 0.959 . S
C717 C715 1.561 . S
C718 C715 1.526 . S
C718 C719 1.396 . S
C718 C723 1.390 . S
C719 C713 1.465 . S
C719 C718 1.396 . S
C719 C720 1.399 . S
C720 H706 0.929 . S
C720 C719 1.399 . S
C720 C721 1.385 . S
C721 H707 0.931 . S
C721 C720 1.385 . S
C721 C722 1.389 . S
C722 C721 1.389 . S
C722 C723 1.387 . S
C723 H708 0.930 . S
C723 C718 1.390 . S
C723 C722 1.387 . S
H724 C736 0.930 . S
H725 C738 0.930 . S
H726 C739 0.930 . S
H727 C743 0.959 . S
H728 C743 0.959 . S
H729 C743 0.961 . S
H730 C744 0.960 . S
H731 C744 0.961 . S
H732 C744 0.959 . S
H733 C747 0.929 . S
H734 C748 0.931 . S
H735 C750 0.930 . S
C736 H724 0.930 . S
C736 C737 1.399 . S
C736 C741 1.399 . S
C737 C736 1.399 . S
C737 C738 1.376 . S
C738 H725 0.930 . S
C738 C737 1.376 . S
C738 C739 1.388 . S
C739 H726 0.930 . S
C739 C738 1.388 . S
C739 C740 1.390 . S
C740 C739 1.390 . S
C740 C741 1.394 . S
C740 C746 1.465 . S
C741 C736 1.399 . S
C741 C740 1.394 . S
C741 C742 1.516 . S
C742 C741 1.516 . S
C742 C743 1.502 . S
C742 C744 1.561 . S
C742 C745 1.526 . S
C743 H727 0.959 . S
C743 H728 0.959 . S
C743 H729 0.961 . S
C743 C742 1.502 . S
C744 H730 0.960 . S
C744 H731 0.961 . S
C744 H732 0.959 . S
C744 C742 1.561 . S
C745 C742 1.526 . S
C745 C746 1.396 . S
C745 C750 1.390 . S
C746 C740 1.465 . S
C746 C745 1.396 . S
C746 C747 1.399 . S
C747 H733 0.929 . S
C747 C746 1.399 . S
C747 C748 1.385 . S
C748 H734 0.931 . S
C748 C747 1.385 . S
C748 C749 1.389 . S
C749 C748 1.389 . S
C749 C750 1.387 . S
C750 H735 0.930 . S
C750 C745 1.390 . S
C750 C749 1.387 . S
H751 C763 0.930 . S
H752 C765 0.930 . S
H753 C766 0.930 . S
H754 C770 0.959 . S
H755 C770 0.959 . S
H756 C770 0.961 . S
H757 C771 0.960 . S
H758 C771 0.961 . S
H759 C771 0.959 . S
H760 C774 0.929 . S
H761 C775 0.931 . S
H762 C777 0.930 . S
C763 H751 0.930 . S
C763 C764 1.399 . S
C763 C768 1.399 . S
C764 C763 1.399 . S
C764 C765 1.376 . S
C765 H752 0.930 . S
C765 C764 1.376 . S
C765 C766 1.388 . S
C766 H753 0.930 . S
C766 C765 1.388 . S
C766 C767 1.390 . S
C767 C766 1.390 . S
C767 C768 1.394 . S
C767 C773 1.465 . S
C768 C763 1.399 . S
C768 C767 1.394 . S
C768 C769 1.516 . S
C769 C768 1.516 . S
C769 C770 1.502 . S
C769 C771 1.561 . S
C769 C772 1.526 . S
C770 H754 0.959 . S
C770 H755 0.959 . S
C770 H756 0.961 . S
C770 C769 1.502 . S
C771 H757 0.960 . S
C771 H758 0.961 . S
C771 H759 0.959 . S
C771 C769 1.561 . S
C772 C769 1.526 . S
C772 C773 1.396 . S
C772 C777 1.390 . S
C773 C767 1.465 . S
C773 C772 1.396 . S
C773 C774 1.399 . S
C774 H760 0.929 . S
C774 C773 1.399 . S
C774 C775 1.385 . S
C775 H761 0.931 . S
C775 C774 1.385 . S
C775 C776 1.389 . S
C776 C775 1.389 . S
C776 C777 1.387 . S
C777 H762 0.930 . S
C777 C772 1.390 . S
C777 C776 1.387 . S
H778 C790 0.930 . S
H779 C792 0.930 . S
H780 C793 0.930 . S
H781 C797 0.959 . S
H782 C797 0.959 . S
H783 C797 0.961 . S
H784 C798 0.960 . S
H785 C798 0.961 . S
H786 C798 0.959 . S
H787 C801 0.929 . S
H788 C802 0.931 . S
H789 C804 0.930 . S
C790 H778 0.930 . S
C790 C791 1.399 . S
C790 C795 1.399 . S
C791 C790 1.399 . S
C791 C792 1.376 . S
C792 H779 0.930 . S
C792 C791 1.376 . S
C792 C793 1.388 . S
C793 H780 0.930 . S
C793 C792 1.388 . S
C793 C794 1.390 . S
C794 C793 1.390 . S
C794 C795 1.394 . S
C794 C800 1.465 . S
C795 C790 1.399 . S
C795 C794 1.394 . S
C795 C796 1.516 . S
C796 C795 1.516 . S
C796 C797 1.502 . S
C796 C798 1.561 . S
C796 C799 1.526 . S
C797 H781 0.959 . S
C797 H782 0.959 . S
C797 H783 0.961 . S
C797 C796 1.502 . S
C798 H784 0.960 . S
C798 H785 0.961 . S
C798 H786 0.959 . S
C798 C796 1.561 . S
C799 C796 1.526 . S
C799 C800 1.396 . S
C799 C804 1.390 . S
C800 C794 1.465 . S
C800 C799 1.396 . S
C800 C801 1.399 . S
C801 H787 0.929 . S
C801 C800 1.399 . S
C801 C802 1.385 . S
C802 H788 0.931 . S
C802 C801 1.385 . S
C802 C803 1.389 . S
C803 C802 1.389 . S
C803 C804 1.387 . S
C804 H789 0.930 . S
C804 C799 1.390 . S
C804 C803 1.387 . S
H805 C817 0.930 . S
H806 C819 0.930 . S
H807 C820 0.930 . S
H808 C824 0.959 . S
H809 C824 0.959 . S
H810 C824 0.961 . S
H811 C825 0.960 . S
H812 C825 0.961 . S
H813 C825 0.959 . S
H814 C828 0.929 . S
H815 C829 0.931 . S
H816 C831 0.930 . S
C817 H805 0.930 . S
C817 C818 1.399 . S
C817 C822 1.399 . S
C818 C817 1.399 . S
C818 C819 1.376 . S
C819 H806 0.930 . S
C819 C818 1.376 . S
C819 C820 1.388 . S
C820 H807 0.930 . S
C820 C819 1.388 . S
C820 C821 1.390 . S
C821 C820 1.390 . S
C821 C822 1.394 . S
C821 C827 1.465 . S
C822 C817 1.399 . S
C822 C821 1.394 . S
C822 C823 1.516 . S
C823 C822 1.516 . S
C823 C824 1.502 . S
C823 C825 1.561 . S
C823 C826 1.526 . S
C824 H808 0.959 . S
C824 H809 0.959 . S
C824 H810 0.961 . S
C824 C823 1.502 . S
C825 H811 0.960 . S
C825 H812 0.961 . S
C825 H813 0.959 . S
C825 C823 1.561 . S
C826 C823 1.526 . S
C826 C827 1.396 . S
C826 C831 1.390 . S
C827 C821 1.465 . S
C827 C826 1.396 . S
C827 C828 1.399 . S
C828 H814 0.929 . S
C828 C827 1.399 . S
C828 C829 1.385 . S
C829 H815 0.931 . S
C829 C828 1.385 . S
C829 C830 1.389 . S
C830 C829 1.389 . S
C830 C831 1.387 . S
C831 H816 0.930 . S
C831 C826 1.390 . S
C831 C830 1.387 . S
C197 N1 1.370 . S
C209 C106 1.347 . S
C224 N18 1.558 . S
C236 C125 1.520 . S
C263 C162 1.392 . S
C251 N28 1.404 . S
C278 N40 1.847 . S
C290 C172 1.807 . S
C317 C142 2.129 . S
C305 N5 2.102 . S
C344 C112 1.408 . S
C332 N14 1.479 . S
C371 C183 1.575 . S
C359 N31 1.610 . S
C398 C153 1.164 . S
C386 N41 1.146 . S
C413 N2 1.479 . S
C425 C166 1.499 . S
C452 C133 1.769 . S
C440 N27 1.822 . S
C467 N44 1.810 . S
C479 C123 1.809 . S
C494 N15 1.087 . S
C506 C145 1.028 . S
C533 C105 1.672 . S
C521 N57 1.674 . S
C548 N70 1.268 . S
C560 C126 1.204 . S
C575 N79 1.621 . S
C587 C163 1.629 . S
C602 N93 1.626 . S
C614 C173 1.598 . S
C629 N54 1.635 . S
C641 C143 1.686 . S
C668 C113 1.843 . S
C656 N66 1.921 . S
C695 C182 1.073 . S
C683 N80 1.047 . S
C722 C152 1.464 . S
C710 N96 1.440 . S
C737 N53 1.488 . S
C749 C165 1.534 . S
C776 C132 1.613 . S
C764 N83 1.614 . S
C803 C122 1.932 . S
C791 N92 1.901 . S
C818 N67 1.148 . S
C830 C146 1.178 . S
