# Generated by pormake.
# Topology hwx, (6,3)-cn, num edge types: 1
# Building blocks:
#     Node 0, Type 0, BuildingBlock: IZENUY_clean_sbu_0, # of connection points: 6
#     Node 1, Type 0, BuildingBlock: IZENUY_clean_sbu_0, # of connection points: 6
#     Node 2, Type 0, BuildingBlock: IZENUY_clean_sbu_0, # of connection points: 6
#     Node 3, Type 0, BuildingBlock: IZENUY_clean_sbu_0, # of connection points: 6
#     Node 4, Type 1, BuildingBlock: CUQRIR_clean_linker_1, # of connection points: 3
#     Node 5, Type 1, BuildingBlock: CUQRIR_clean_linker_1, # of connection points: 3
#     Node 6, Type 1, BuildingBlock: CUQRIR_clean_linker_1, # of connection points: 3
#     Node 7, Type 1, BuildingBlock: CUQRIR_clean_linker_1, # of connection points: 3
#     Node 8, Type 1, BuildingBlock: CUQRIR_clean_linker_1, # of connection points: 3
#     Node 9, Type 1, BuildingBlock: CUQRIR_clean_linker_1, # of connection points: 3
#     Node 10, Type 1, BuildingBlock: CUQRIR_clean_linker_1, # of connection points: 3
#     Node 11, Type 1, BuildingBlock: CUQRIR_clean_linker_1, # of connection points: 3
#     Edge 12, Type (0, 1), BuildingBlock: EZIPEK_clean_linker_0, # of connection points: 2
#     Edge 13, Type (0, 1), BuildingBlock: EZIPEK_clean_linker_0, # of connection points: 2
#     Edge 14, Type (0, 1), BuildingBlock: EZIPEK_clean_linker_0, # of connection points: 2
#     Edge 15, Type (0, 1), BuildingBlock: EZIPEK_clean_linker_0, # of connection points: 2
#     Edge 16, Type (0, 1), BuildingBlock: EZIPEK_clean_linker_0, # of connection points: 2
#     Edge 17, Type (0, 1), BuildingBlock: EZIPEK_clean_linker_0, # of connection points: 2
#     Edge 18, Type (0, 1), BuildingBlock: EZIPEK_clean_linker_0, # of connection points: 2
#     Edge 19, Type (0, 1), BuildingBlock: EZIPEK_clean_linker_0, # of connection points: 2
#     Edge 20, Type (0, 1), BuildingBlock: EZIPEK_clean_linker_0, # of connection points: 2
#     Edge 21, Type (0, 1), BuildingBlock: EZIPEK_clean_linker_0, # of connection points: 2
#     Edge 22, Type (0, 1), BuildingBlock: EZIPEK_clean_linker_0, # of connection points: 2
#     Edge 23, Type (0, 1), BuildingBlock: EZIPEK_clean_linker_0, # of connection points: 2
#     Edge 24, Type (0, 1), BuildingBlock: EZIPEK_clean_linker_0, # of connection points: 2
#     Edge 25, Type (0, 1), BuildingBlock: EZIPEK_clean_linker_0, # of connection points: 2
#     Edge 26, Type (0, 1), BuildingBlock: EZIPEK_clean_linker_0, # of connection points: 2
#     Edge 27, Type (0, 1), BuildingBlock: EZIPEK_clean_linker_0, # of connection points: 2
#     Edge 28, Type (0, 1), BuildingBlock: EZIPEK_clean_linker_0, # of connection points: 2
#     Edge 29, Type (0, 1), BuildingBlock: EZIPEK_clean_linker_0, # of connection points: 2
#     Edge 30, Type (0, 1), BuildingBlock: EZIPEK_clean_linker_0, # of connection points: 2
#     Edge 31, Type (0, 1), BuildingBlock: EZIPEK_clean_linker_0, # of connection points: 2
#     Edge 32, Type (0, 1), BuildingBlock: EZIPEK_clean_linker_0, # of connection points: 2
#     Edge 33, Type (0, 1), BuildingBlock: EZIPEK_clean_linker_0, # of connection points: 2
#     Edge 34, Type (0, 1), BuildingBlock: EZIPEK_clean_linker_0, # of connection points: 2
#     Edge 35, Type (0, 1), BuildingBlock: EZIPEK_clean_linker_0, # of connection points: 2
# Relax obj value: 0.001
# Max RMSD: 0.068
# Mean RMSD: 0.051
data_MOF--net-hwx--node1-IZENUY_clean_sbu_0--node2-CUQRIR_clean_linker_1--edge1-EZIPEK_clean_linker_0
_symmetry_space_group_name_H-M    P1
_symmetry_Int_Tables_number       1
_symmetry_cell_setting            triclinic
loop_
_symmetry_equiv_pos_as_xyz
'x, y, z'
_cell_length_a     34.399597
_cell_length_b     34.358138
_cell_length_c     13.086304
_cell_angle_alpha  89.996335
_cell_angle_beta   90.536934
_cell_angle_gamma 90.019596
loop_
_atom_site_label
_atom_site_type_symbol
_atom_site_fract_x
_atom_site_fract_y
_atom_site_fract_z
_atom_type_partial_charge
Fe0 Fe 0.24726 0.25117 0.12675 0.0
Fe1 Fe 0.24776 0.252 0.89024 0.0
O2 O 0.22887 0.23396 1.00729 0.0
Fe3 Fe 0.19171 0.19804 1.00655 0.0
O4 O 0.1587 0.23011 0.07523 0.0
O5 O 0.20097 0.24618 0.19482 0.0
O6 O 0.23369 0.30108 0.09672 0.0
C7 C 0.24221 0.31946 1.01612 0.0
C8 C 0.23986 0.17423 0.17414 0.0
O9 O 0.25367 0.30191 0.93684 0.0
C10 C 0.23817 0.17059 0.85266 0.0
O11 O 0.29676 0.25939 0.08444 0.0
O12 O 0.29741 0.23884 0.92584 0.0
O13 O 0.20761 0.17448 0.12676 0.0
O14 O 0.26289 0.20245 0.16385 0.0
C15 C 0.17094 0.245 0.8343 0.0
O16 O 0.24441 0.20514 0.82309 0.0
O17 O 0.22216 0.16368 0.93745 0.0
C18 C 0.31509 0.24836 1.00699 0.0
O19 O 0.20012 0.26698 0.84272 0.0
O20 O 0.16843 0.2142 0.88663 0.0
C21 C 0.1662 0.24367 0.16315 0.0
Fe22 Fe 0.2626 0.75201 0.64664 0.0
Fe23 Fe 0.31856 0.69828 0.52942 0.0
O24 O 0.28125 0.73404 0.52925 0.0
Fe25 Fe 0.26248 0.75118 0.41007 0.0
O26 O 0.27599 0.80113 0.43982 0.0
O27 O 0.25645 0.80189 0.60009 0.0
O28 O 0.31029 0.76719 0.6934 0.0
C29 C 0.33959 0.74536 0.70139 0.0
C30 C 0.19488 0.74804 0.53127 0.0
O31 O 0.34211 0.71456 0.64898 0.0
C32 C 0.27007 0.67428 0.36258 0.0
O33 O 0.26621 0.70514 0.71375 0.0
O34 O 0.28842 0.6638 0.59908 0.0
O35 O 0.21293 0.75923 0.45337 0.0
O36 O 0.21288 0.73865 0.61199 0.0
C37 C 0.34361 0.74388 0.37208 0.0
O38 O 0.30241 0.67464 0.40956 0.0
O39 O 0.24695 0.70239 0.37321 0.0
C40 C 0.2725 0.67063 0.68401 0.0
O41 O 0.35132 0.73043 0.46 0.0
O42 O 0.30872 0.74639 0.3411 0.0
C43 C 0.26772 0.81948 0.52063 0.0
Fe44 Fe 0.76498 0.77694 0.91625 0.0
Fe45 Fe 0.76443 0.77628 0.1523 0.0
O46 O 0.78253 0.79511 0.03536 0.0
Fe47 Fe 0.81879 0.83191 0.03845 0.0
O48 O 0.80319 0.85563 0.91871 0.0
O49 O 0.7497 0.82496 0.87321 0.0
O50 O 0.71489 0.7693 0.9608 0.0
C51 C 0.69695 0.78091 0.03931 0.0
C52 C 0.8464 0.78613 0.88394 0.0
O53 O 0.71489 0.79032 0.12019 0.0
C54 C 0.84108 0.78293 0.20535 0.0
O55 O 0.77904 0.72752 0.94788 0.0
O56 O 0.75654 0.72668 0.10445 0.0
O57 O 0.85308 0.80134 0.97021 0.0
O58 O 0.81196 0.78121 0.85116 0.0
C59 C 0.77266 0.85761 0.19288 0.0
O60 O 0.81268 0.76026 0.19246 0.0
O61 O 0.8416 0.81534 0.15923 0.0
C62 C 0.76979 0.70927 0.02731 0.0
O63 O 0.76896 0.82269 0.22298 0.0
O64 O 0.78694 0.86506 0.10644 0.0
C65 C 0.77206 0.85391 0.86672 0.0
Fe66 Fe 0.6891 0.32997 0.50767 0.0
Fe67 Fe 0.74697 0.28087 0.63629 0.0
O68 O 0.72734 0.29507 0.51492 0.0
Fe69 Fe 0.74565 0.27389 0.40021 0.0
O70 O 0.73933 0.31787 0.32113 0.0
O71 O 0.71736 0.36228 0.42716 0.0
O72 O 0.70589 0.3588 0.6165 0.0
C73 C 0.73604 0.35915 0.67206 0.0
C74 C 0.66803 0.27554 0.3506 0.0
O75 O 0.7597 0.33087 0.67087 0.0
C76 C 0.7442 0.21017 0.53751 0.0
O77 O 0.65751 0.3009 0.5898 0.0
O78 O 0.70144 0.2844 0.70517 0.0
O79 O 0.698 0.25497 0.36336 0.0
O80 O 0.66514 0.30807 0.39538 0.0
C81 C 0.81376 0.28341 0.50855 0.0
O82 O 0.7349 0.23002 0.61435 0.0
O83 O 0.75561 0.22606 0.45626 0.0
C84 C 0.66646 0.28815 0.67789 0.0
O85 O 0.79675 0.27395 0.59016 0.0
O86 O 0.79482 0.29049 0.42763 0.0
C87 C 0.7332 0.35312 0.34401 0.0
C88 C 0.23886 0.51062 0.94304 0.0
N89 N 0.24252 0.54802 0.97393 0.0
N90 N 0.23259 0.48693 0.02358 0.0
C91 C 0.24433 0.49684 0.83506 0.0
C92 C 0.23226 0.51124 0.10494 0.0
N93 N 0.23918 0.54857 0.07557 0.0
C94 C 0.22664 0.49789 0.21323 0.0
H95 H 0.23084 0.51749 0.78009 0.0
H96 H 0.23168 0.46744 0.82355 0.0
H97 H 0.27592 0.49562 0.81893 0.0
H98 H 0.25402 0.48464 0.24206 0.0
H99 H 0.20382 0.4751 0.21593 0.0
H100 H 0.21835 0.52239 0.26373 0.0
C101 C 1.005 0.74871 0.62527 0.0
N102 N 0.96743 0.75284 0.59544 0.0
N103 N 0.02774 0.74061 0.54438 0.0
C104 C 0.0198 0.75566 0.73214 0.0
C105 C 1.00266 0.73977 0.46412 0.0
N106 N 0.96587 0.74822 0.49409 0.0
C107 C 0.0148 0.73179 0.35606 0.0
H108 H 0.0513 0.74925 0.73947 0.0
H109 H 1.0035 0.73724 0.78663 0.0
H110 H 0.01448 0.78649 0.75311 0.0
H111 H 0.03688 0.70825 0.35519 0.0
H112 H 0.02855 0.75825 0.32389 0.0
H113 H 0.98962 0.72328 0.30741 0.0
C114 C 0.76805 0.51688 0.10301 0.0
N115 N 0.76308 0.48017 0.06734 0.0
N116 N 0.77244 0.54223 0.02482 0.0
C117 C 0.76559 0.52849 0.21337 0.0
C118 C 0.77066 0.51967 0.94023 0.0
N119 N 0.76511 0.48188 0.96566 0.0
C120 C 0.77064 0.53504 0.83271 0.0
H121 H 0.73476 0.53443 0.23202 0.0
H122 H 0.78267 0.55535 0.22808 0.0
H123 H 0.7762 0.50473 0.26382 0.0
H124 H 0.78397 0.56441 0.8292 0.0
H125 H 0.74016 0.53696 0.80467 0.0
H126 H 0.78655 0.51498 0.78156 0.0
C127 C 1.00443 0.27324 0.42216 0.0
N128 N 0.04186 0.26695 0.45062 0.0
N129 N 0.98077 0.27164 0.50398 0.0
C130 C 0.99081 0.28036 0.31432 0.0
C131 C 1.00517 0.26495 0.58385 0.0
N132 N 0.0425 0.26285 0.55202 0.0
C133 C 0.9924 0.25971 0.69248 0.0
H134 H 0.96524 0.30005 0.31344 0.0
H135 H 0.98187 0.25228 0.27944 0.0
H136 H 0.0144 0.29309 0.26769 0.0
H137 H 0.96296 0.24653 0.69505 0.0
H138 H 0.9911 0.28861 0.73008 0.0
H139 H 0.01326 0.24119 0.73562 0.0
C140 C 0.7509 0.01836 0.61859 0.0
N141 N 0.75247 0.98111 0.58471 0.0
N142 N 0.74509 0.04318 0.53987 0.0
C143 C 0.75586 0.03077 0.72814 0.0
C144 C 0.74338 0.01997 0.45654 0.0
N145 N 0.74875 0.98217 0.48307 0.0
C146 C 0.73848 0.0347 0.34909 0.0
H147 H 0.72672 0.03434 0.76256 0.0
H148 H 0.77102 0.05921 0.73301 0.0
H149 H 0.77238 0.00876 0.77283 0.0
H150 H 0.76619 0.04804 0.32407 0.0
H151 H 0.71585 0.05769 0.34652 0.0
H152 H 0.73044 0.0109 0.29563 0.0
C153 C 0.5054 0.25183 0.92736 0.0
N154 N 0.54297 0.25334 0.95926 0.0
N155 N 0.48209 0.24045 1.00415 0.0
C156 C 0.49105 0.26321 0.82256 0.0
C157 C 0.50662 0.23507 0.08421 0.0
N158 N 0.54378 0.24395 0.05844 0.0
C159 C 0.49363 0.22213 0.18823 0.0
H160 H 0.4618 0.27666 0.8264 0.0
H161 H 0.48859 0.23667 0.77464 0.0
H162 H 0.51141 0.28377 0.78548 0.0
H163 H 0.47171 0.1986 0.18028 0.0
H164 H 0.47937 0.24682 0.22761 0.0
H165 H 0.51843 0.21156 0.23538 0.0
C166 C 0.27799 0.0112 0.43153 0.0
N167 N 0.27113 0.04853 0.46093 0.0
N168 N 0.27785 0.98692 0.51295 0.0
C169 C 0.28338 0.99782 0.32318 0.0
C170 C 0.27177 0.01063 0.59355 0.0
N171 N 0.26803 0.048 0.56263 0.0
C172 C 0.26651 0.99687 0.70163 0.0
H173 H 0.25595 0.98452 0.29481 0.0
H174 H 0.30622 0.97507 0.32017 0.0
H175 H 0.29154 0.02232 0.27248 0.0
H176 H 0.2801 0.01755 0.75637 0.0
H177 H 0.27921 0.96749 0.71304 0.0
H178 H 0.23496 0.9956 0.71818 0.0
C179 C 0.5061 0.77335 0.11437 0.0
N180 N 0.46861 0.76742 0.08553 0.0
N181 N 0.52977 0.77254 0.03249 0.0
C182 C 0.5199 0.77911 0.22261 0.0
C183 C 0.50539 0.76668 0.95219 0.0
N184 N 0.46802 0.7643 0.98383 0.0
C185 C 0.5183 0.76246 0.8434 0.0
H186 H 0.49606 0.78981 0.27174 0.0
H187 H 0.54451 0.79999 0.22495 0.0
H188 H 0.5305 0.75092 0.25338 0.0
H189 H 0.5473 0.74841 0.84031 0.0
H190 H 0.52076 0.7918 0.80868 0.0
H191 H 0.49703 0.74519 0.79804 0.0
C192 C 0.1314 0.2857 0.2927 0.0
C193 C 0.13424 0.2499 0.23793 0.0
C194 C 0.07582 0.22592 0.32401 0.0
C195 C 0.07402 0.26075 0.3819 0.0
N196 N 0.09922 0.32365 0.42437 0.0
N197 N 0.11444 0.18254 0.22173 0.0
C198 C 0.10181 0.29048 0.36742 0.0
C199 C 0.10776 0.21916 0.25863 0.0
N200 N 0.15609 0.31564 0.27061 0.0
N201 N 0.04645 0.19932 0.33018 0.0
H202 H 0.13778 0.17544 0.17555 0.0
H203 H 0.09903 0.15807 0.2452 0.0
H204 H 0.02401 0.20159 0.38245 0.0
H205 H 0.04298 0.17629 0.27913 0.0
H206 H 0.15329 0.3438 0.29867 0.0
H207 H 0.17884 0.31303 0.21955 0.0
H208 H 0.12067 0.34494 0.42854 0.0
H209 H 0.0755 0.32931 0.47085 0.0
C210 C 0.29627 0.61716 0.80206 0.0
C211 C 0.26479 0.63816 0.75681 0.0
C212 C 0.21886 0.59752 0.85144 0.0
C213 C 0.25004 0.5805 0.90673 0.0
N214 N 0.31844 0.57473 0.93929 0.0
N215 N 0.19591 0.65215 0.75235 0.0
C216 C 0.28879 0.59071 0.88353 0.0
C217 C 0.22605 0.62962 0.78613 0.0
N218 N 0.3332 0.6219 0.76647 0.0
N219 N 0.18257 0.58159 0.85692 0.0
H220 H 0.19963 0.67532 0.70245 0.0
H221 H 0.16775 0.64971 0.78036 0.0
H222 H 0.17638 0.55749 0.90246 0.0
H223 H 0.15956 0.59003 0.80955 0.0
H224 H 0.35649 0.60437 0.78846 0.0
H225 H 0.34045 0.64184 0.70993 0.0
H226 H 0.34717 0.5841 0.93542 0.0
H227 H 0.31366 0.55357 0.99467 0.0
C228 C 0.86578 0.75027 0.37005 0.0
C229 C 0.87282 0.77349 0.2815 0.0
C230 C 0.93815 0.78679 0.34962 0.0
C231 C 0.93346 0.75811 0.42652 0.0
N232 N 0.8953 0.70452 0.48767 0.0
N233 N 0.92236 0.80304 0.17557 0.0
C234 C 0.89793 0.73748 0.43056 0.0
C235 C 0.91088 0.78886 0.26797 0.0
N236 N 0.82888 0.74191 0.40056 0.0
N237 N 0.9686 0.81216 0.35371 0.0
H238 H 0.90545 0.80076 0.10956 0.0
H239 H 0.95085 0.8118 0.16159 0.0
H240 H 0.98897 0.81205 0.4129 0.0
H241 H 0.97113 0.83561 0.30356 0.0
H242 H 0.82322 0.72718 0.46852 0.0
H243 H 0.8042 0.75411 0.36694 0.0
H244 H 0.87059 0.68691 0.48755 0.0
H245 H 0.91959 0.69251 0.52364 0.0
C246 C 0.78034 0.40853 0.7559 0.0
C247 C 0.74243 0.39278 0.74369 0.0
C248 C 0.71885 0.44185 0.86541 0.0
C249 C 0.75753 0.45069 0.89393 0.0
N250 N 0.82594 0.44347 0.86418 0.0
N251 N 0.67409 0.3956 0.79295 0.0
C252 C 0.78858 0.43388 0.83928 0.0
C253 C 0.71115 0.40974 0.79991 0.0
N254 N 0.80726 0.40281 0.6815 0.0
N255 N 0.68954 0.46602 0.89466 0.0
H256 H 0.66522 0.37323 0.74491 0.0
H257 H 0.65219 0.40402 0.84283 0.0
H258 H 0.6948 0.49158 0.93502 0.0
H259 H 0.66106 0.4636 0.86763 0.0
H260 H 0.83441 0.41627 0.68161 0.0
H261 H 0.8003 0.38887 0.61287 0.0
H262 H 0.84992 0.42899 0.83435 0.0
H263 H 0.83269 0.46463 0.91857 0.0
C264 C 0.64382 0.24322 0.18382 0.0
C265 C 0.6363 0.26359 0.27701 0.0
C266 C 0.57023 0.27615 0.21464 0.0
C267 C 0.57567 0.25086 0.13031 0.0
N268 N 0.61568 0.20241 0.05098 0.0
N269 N 0.58635 0.28671 0.39145 0.0
C270 C 0.61188 0.23183 0.11993 0.0
C271 C 0.59767 0.27617 0.29567 0.0
N272 N 0.68092 0.23681 0.15178 0.0
N273 N 0.53955 0.30125 0.21658 0.0
H274 H 0.60424 0.28351 0.45547 0.0
H275 H 0.55757 0.29343 0.4087 0.0
H276 H 0.52007 0.30404 0.15573 0.0
H277 H 0.53638 0.32227 0.27338 0.0
H278 H 0.68702 0.22496 0.08037 0.0
H279 H 0.70543 0.24753 0.18942 0.0
H280 H 0.64075 0.18552 0.04581 0.0
H281 H 0.59218 0.19245 1.00728 0.0
C282 C 0.28455 0.12986 0.74959 0.0
C283 C 0.24584 0.1382 0.77961 0.0
C284 C 0.22178 0.09058 0.65337 0.0
C285 C 0.26051 0.08048 0.62983 0.0
N286 N 0.32806 0.08187 0.67893 0.0
N287 N 0.17744 0.12172 0.77062 0.0
C288 C 0.29172 0.09768 0.68462 0.0
C289 C 0.21435 0.11706 0.7348 0.0
N290 N 0.31465 0.15271 0.78217 0.0
N291 N 0.19209 0.07447 0.59797 0.0
H292 H 0.17018 0.14172 0.82693 0.0
H293 H 0.15418 0.10407 0.74902 0.0
H294 H 0.19684 0.05329 0.54264 0.0
H295 H 0.16334 0.08375 0.60204 0.0
H296 H 0.34274 0.1503 0.75369 0.0
H297 H 0.31094 0.17615 0.83118 0.0
H298 H 0.3511 0.0905 0.72598 0.0
H299 H 0.33424 0.05772 0.63364 0.0
C300 C 0.37849 0.7859 0.24212 0.0
C301 C 0.37553 0.75008 0.2968 0.0
C302 C 0.43426 0.72623 0.21152 0.0
C303 C 0.43625 0.76111 0.15382 0.0
N304 N 0.41113 0.82406 0.11151 0.0
N305 N 0.39535 0.68276 0.313 0.0
C306 C 0.40835 0.7908 0.16801 0.0
C307 C 0.4021 0.7194 0.27632 0.0
N308 N 0.35368 0.81577 0.26381 0.0
N309 N 0.46366 0.69965 0.20587 0.0
H310 H 0.37187 0.67564 0.35869 0.0
H311 H 0.41082 0.65831 0.28974 0.0
H312 H 0.48637 0.70201 0.15438 0.0
H313 H 0.46694 0.67656 0.25682 0.0
H314 H 0.35649 0.84393 0.23582 0.0
H315 H 0.33078 0.81308 0.3144 0.0
H316 H 0.3897 0.84534 0.10706 0.0
H317 H 0.43504 0.82985 0.0658 0.0
C318 C 0.79011 0.8886 0.70471 0.0
C319 C 0.76444 0.88439 0.78829 0.0
C320 C 0.72613 0.93902 0.72184 0.0
C321 C 0.75533 0.94678 0.64857 0.0
N322 N 0.82068 0.93508 0.59326 0.0
N323 N 0.71265 0.91167 0.88833 0.0
C324 C 0.78884 0.92312 0.64573 0.0
C325 C 0.73343 0.91111 0.79999 0.0
N326 N 0.8152 0.85947 0.68003 0.0
N327 N 0.69164 0.95855 0.71724 0.0
H328 H 0.71919 0.89351 0.94999 0.0
H329 H 0.6919 0.93285 0.90436 0.0
H330 H 0.68555 0.97931 0.66119 0.0
H331 H 0.66808 0.9516 0.76329 0.0
H332 H 0.83239 0.86022 0.61483 0.0
H333 H 0.8154 0.83294 0.71821 0.0
H334 H 0.84705 0.92013 0.59501 0.0
H335 H 0.82196 0.96251 0.55978 0.0
C336 C 0.89832 0.8086 0.7626 0.0
C337 C 0.87913 0.77763 0.81377 0.0
C338 C 0.92004 0.73051 0.7238 0.0
C339 C 0.93556 0.761 0.66355 0.0
N340 N 0.93922 0.8288 0.62185 0.0
N341 N 0.86958 0.70873 0.83818 0.0
C342 C 0.9244 0.79999 0.68171 0.0
C343 C 0.88928 0.73845 0.79254 0.0
N344 N 0.89256 0.84617 0.79326 0.0
N345 N 0.93611 0.69421 0.71873 0.0
H346 H 0.84897 0.71334 0.89461 0.0
H347 H 0.87221 0.6797 0.81638 0.0
H348 H 0.95854 0.68731 0.6688 0.0
H349 H 0.92933 0.67176 0.76897 0.0
H350 H 0.9085 0.86971 0.76624 0.0
H351 H 0.87367 0.85377 0.8516 0.0
H352 H 0.92904 0.85733 0.62178 0.0
H353 H 0.96042 0.82343 0.56744 0.0
C354 C 0.77996 0.39445 0.24288 0.0
C355 C 0.7411 0.38405 0.26701 0.0
C356 C 0.71701 0.43794 0.16111 0.0
C357 C 0.75539 0.44607 0.12914 0.0
N358 N 0.82359 0.43192 0.1357 0.0
N359 N 0.67248 0.3907 0.23105 0.0
C360 C 0.78688 0.42385 0.1681 0.0
C361 C 0.70958 0.40419 0.22047 0.0
N362 N 0.81015 0.37795 0.29589 0.0
N363 N 0.68797 0.46387 0.14057 0.0
H364 H 0.66579 0.36594 0.27329 0.0
H365 H 0.64893 0.40183 0.1898 0.0
H366 H 0.69299 0.49016 0.10353 0.0
H367 H 0.6601 0.46146 0.17038 0.0
H368 H 0.83896 0.38678 0.28953 0.0
H369 H 0.80606 0.35731 0.353 0.0
H370 H 0.84755 0.41429 0.15097 0.0
H371 H 0.82967 0.4557 0.08915 0.0
C372 C 0.1345 0.22494 0.67537 0.0
C373 C 0.14078 0.25277 0.75401 0.0
C374 C 0.08615 0.29107 0.68542 0.0
C375 C 0.07673 0.26019 0.6172 0.0
N376 N 0.08674 0.19388 0.56635 0.0
N377 N 0.12023 0.31117 0.83985 0.0
C378 C 0.09961 0.22611 0.61702 0.0
C379 C 0.11614 0.2858 0.76019 0.0
N380 N 0.16251 0.1982 0.65374 0.0
N381 N 0.06652 0.3255 0.67826 0.0
H382 H 0.14202 0.30828 0.895 0.0
H383 H 0.1005 0.33332 0.85541 0.0
H384 H 0.04396 0.33001 0.62591 0.0
H385 H 0.07455 0.35048 0.71824 0.0
H386 H 0.16069 0.17929 0.59159 0.0
H387 H 0.18944 0.19829 0.69058 0.0
H388 H 0.10075 0.16703 0.57049 0.0
H389 H 0.05955 0.19304 0.53081 0.0
C390 C 0.23717 0.64815 0.19948 0.0
C391 C 0.26154 0.64218 0.28713 0.0
C392 C 0.27756 0.57768 0.21866 0.0
C393 C 0.24793 0.5811 0.1432 0.0
N394 N 0.19133 0.6162 0.08656 0.0
N395 N 0.29445 0.59375 0.3922 0.0
C396 C 0.2253 0.61541 0.1405 0.0
C397 C 0.27897 0.60483 0.30024 0.0
N398 N 0.2268 0.68461 0.16815 0.0
N399 N 0.3043 0.54849 0.2135 0.0
H400 H 0.29164 0.61017 0.45851 0.0
H401 H 0.3049 0.56571 0.40567 0.0
H402 H 0.3045 0.5282 0.15447 0.0
H403 H 0.3283 0.54699 0.26266 0.0
H404 H 0.21097 0.6894 0.10092 0.0
H405 H 0.23842 0.70993 0.19964 0.0
H406 H 0.17251 0.63999 0.08758 0.0
H407 H 0.17994 0.59111 0.05327 0.0
C408 C 0.39416 0.7866 0.77551 0.0
C409 C 0.36986 0.75329 0.78145 0.0
C410 C 0.41133 0.72697 0.91829 0.0
C411 C 0.43384 0.76133 0.91846 0.0
N412 N 0.44346 0.82675 0.8576 0.0
N413 N 0.3487 0.69845 0.8816 0.0
C414 C 0.42412 0.79214 0.85033 0.0
C415 C 0.37644 0.72548 0.85995 0.0
N416 N 0.38979 0.81202 0.69604 0.0
N417 N 0.42457 0.69481 0.96859 0.0
H418 H 0.32175 0.6983 0.84489 0.0
H419 H 0.35073 0.67951 0.94369 0.0
H420 H 0.45178 0.69422 1.00403 0.0
H421 H 0.41083 0.66781 0.96419 0.0
H422 H 0.40927 0.83443 0.68065 0.0
H423 H 0.36803 0.80894 0.64086 0.0
H424 H 0.43519 0.85168 0.81774 0.0
H425 H 0.46604 0.83142 0.90983 0.0
C426 C 0.79717 0.9157 0.29258 0.0
C427 C 0.76616 0.88998 0.26707 0.0
C428 C 0.72494 0.92288 0.39374 0.0
C429 C 0.755 0.95014 0.4129 0.0
N430 N 0.81675 0.97745 0.36452 0.0
N431 N 0.69839 0.87304 0.28144 0.0
C432 C 0.79012 0.94806 0.35718 0.0
C433 C 0.72946 0.89445 0.31506 0.0
N434 N 0.83408 0.90821 0.26013 0.0
N435 N 0.69174 0.92483 0.4497 0.0
H436 H 0.70028 0.8532 0.22152 0.0
H437 H 0.67005 0.87728 0.30618 0.0
H438 H 0.68666 0.94721 0.50156 0.0
H439 H 0.67033 0.90341 0.44882 0.0
H440 H 0.85842 0.92319 0.28716 0.0
H441 H 0.84125 0.88471 0.21406 0.0
H442 H 0.84022 0.98021 0.31528 0.0
H443 H 0.81412 1.00059 0.41528 0.0
C444 C 0.60882 0.24757 0.73145 0.0
C445 C 0.63581 0.27784 0.75335 0.0
C446 C 0.60043 0.29267 0.91042 0.0
C447 C 0.57591 0.26043 0.89369 0.0
N448 N 0.56353 0.20091 0.80209 0.0
N449 N 0.66457 0.31841 0.88695 0.0
C450 C 0.58217 0.23593 0.80813 0.0
C451 C 0.63412 0.29699 0.85009 0.0
N452 N 0.60881 0.22949 0.63856 0.0
N453 N 0.5906 0.32039 0.98002 0.0
H454 H 0.6906 0.32216 0.8485 0.0
H455 H 0.66516 0.32954 0.96112 0.0
H456 H 0.56441 0.31943 1.01934 0.0
H457 H 0.60619 0.34622 0.98918 0.0
H458 H 0.58706 0.21027 0.61508 0.0
H459 H 0.62905 0.2356 0.5822 0.0
H460 H 0.56954 0.18014 0.74648 0.0
H461 H 0.54498 0.19102 0.85917 0.0
C462 C 0.27284 0.14814 0.33716 0.0
C463 C 0.2484 0.14214 0.24963 0.0
C464 C 0.23253 0.07761 0.31819 0.0
C465 C 0.26226 0.08105 0.39338 0.0
N466 N 0.3189 0.11624 0.44949 0.0
N467 N 0.21547 0.09364 0.14475 0.0
C468 C 0.28484 0.1154 0.39592 0.0
C469 C 0.23101 0.10476 0.23662 0.0
N470 N 0.28315 0.18461 0.3686 0.0
N471 N 0.20581 0.04839 0.32358 0.0
H472 H 0.21824 0.11003 0.07837 0.0
H473 H 0.20504 0.06557 0.1314 0.0
H474 H 0.20569 0.02809 0.38261 0.0
H475 H 0.18175 0.04686 0.27462 0.0
H476 H 0.29905 0.1894 0.43571 0.0
H477 H 0.27139 0.20991 0.33739 0.0
H478 H 0.33767 0.14008 0.44834 0.0
H479 H 0.33039 0.09115 0.48252 0.0
C480 C 0.27269 0.38599 0.99398 0.0
C481 C 0.23928 0.36282 1.01444 0.0
C482 C 0.20045 0.42268 0.03239 0.0
C483 C 0.23476 0.44501 0.02449 0.0
N484 N 0.30431 0.44847 1.01541 0.0
N485 N 0.17072 0.35919 0.0525 0.0
C486 C 0.27108 0.42675 1.01058 0.0
C487 C 0.20296 0.38125 0.03421 0.0
N488 N 0.30565 0.36971 0.95513 0.0
N489 N 0.16542 0.44138 0.03428 0.0
H490 H 0.17041 0.32901 0.04532 0.0
H491 H 0.14462 0.37049 0.07899 0.0
H492 H 0.1632 0.47167 0.03385 0.0
H493 H 0.1387 0.42727 0.02948 0.0
H494 H 0.32897 0.3861 0.92869 0.0
H495 H 0.30869 0.34028 0.93921 0.0
H496 H 0.33206 0.43635 1.018 0.0
H497 H 0.30405 0.47851 0.0263 0.0
C498 C 0.1289 0.77968 0.50837 0.0
C499 C 0.15157 0.74571 0.52706 0.0
C500 C 0.0916 0.70766 0.55025 0.0
C501 C 0.06962 0.74219 0.53976 0.0
N502 N 0.06668 0.8118 0.52655 0.0
N503 N 0.15436 0.67574 0.53564 0.0
C504 C 0.08811 0.77836 0.52335 0.0
C505 C 0.13287 0.70914 0.54055 0.0
N506 N 0.14577 0.81273 0.47119 0.0
N507 N 0.07275 0.67375 0.5724 0.0
H508 H 0.1842 0.67581 0.522 0.0
H509 H 0.14259 0.64786 0.53658 0.0
H510 H 0.04252 0.67219 0.57766 0.0
H511 H 0.08673 0.64788 0.59153 0.0
H512 H 0.13001 0.83675 0.44559 0.0
H513 H 0.17518 0.81511 0.45516 0.0
H514 H 0.07886 0.83955 0.52774 0.0
H515 H 0.03678 0.81186 0.53811 0.0
C516 C 0.73593 0.64517 1.00627 0.0
C517 C 0.77066 0.6662 0.02663 0.0
C518 C 0.80688 0.60493 0.04245 0.0
C519 C 0.77174 0.58415 0.02903 0.0
N520 N 0.70217 0.58327 1.01383 0.0
N521 N 0.83828 0.66693 0.07703 0.0
C522 C 0.73603 0.60399 1.0156 0.0
C523 C 0.80598 0.64631 0.04832 0.0
N524 N 0.70324 0.66446 0.97452 0.0
N525 N 0.8411 0.58486 0.04726 0.0
H526 H 0.83876 0.69726 0.0805 0.0
H527 H 0.86383 0.65411 0.10375 0.0
H528 H 0.84214 0.5545 0.04542 0.0
H529 H 0.86833 0.59805 0.04646 0.0
H530 H 0.67812 0.65058 0.94856 0.0
H531 H 0.70217 0.69458 0.96615 0.0
H532 H 0.67471 0.59597 1.01515 0.0
H533 H 0.70158 0.55304 1.01945 0.0
C534 C 0.88018 0.30755 0.56254 0.0
C535 C 0.85695 0.28092 0.50542 0.0
C536 C 0.91594 0.24502 0.46012 0.0
C537 C 0.93895 0.27467 0.5049 0.0
N538 N 0.94344 0.33781 0.58249 0.0
N539 N 0.85368 0.2262 0.38886 0.0
C540 C 0.92116 0.30708 0.55132 0.0
C541 C 0.87514 0.25039 0.45007 0.0
N542 N 0.86338 0.33243 0.63012 0.0
N543 N 0.93295 0.21079 0.4324 0.0
H544 H 0.82357 0.2277 0.38236 0.0
H545 H 0.86612 0.20635 0.33866 0.0
H546 H 0.96245 0.2055 0.44426 0.0
H547 H 0.91733 0.18641 0.4085 0.0
H548 H 0.87928 0.34981 0.68066 0.0
H549 H 0.83367 0.33259 0.64314 0.0
H550 H 0.93173 0.36399 0.60809 0.0
H551 H 0.97353 0.33836 0.57353 0.0
C552 C 0.78012 0.14695 0.55293 0.0
C553 C 0.74425 0.16714 0.54366 0.0
C554 C 0.70896 0.1051 0.54224 0.0
C555 C 0.74482 0.08509 0.54274 0.0
N556 N 0.81453 0.08555 0.5372 0.0
N557 N 0.67502 0.16602 0.51349 0.0
C558 C 0.78045 0.10568 0.54493 0.0
C559 C 0.7087 0.14638 0.53446 0.0
N560 N 0.81362 0.1672 0.57213 0.0
N561 N 0.67525 0.08438 0.5504 0.0
H562 H 0.6741 0.19615 0.50495 0.0
H563 H 0.64873 0.15241 0.4962 0.0
H564 H 0.67491 0.05404 0.55431 0.0
H565 H 0.64814 0.09715 0.56083 0.0
H566 H 0.84017 0.15411 0.58917 0.0
H567 H 0.81432 0.19741 0.579 0.0
H568 H 0.84147 0.09871 0.52699 0.0
H569 H 0.81551 0.05524 0.53427 0.0
C570 C 0.37697 0.20962 0.99721 0.0
C571 C 0.35829 0.24603 1.01301 0.0
C572 C 0.4219 0.27811 0.028 0.0
C573 C 0.44026 0.2422 1.00711 0.0
N574 N 0.43695 0.17478 0.96193 0.0
N575 N 0.36355 0.31234 0.0754 0.0
C576 C 0.41821 0.20817 0.98934 0.0
C577 C 0.38086 0.27959 0.03772 0.0
N578 N 0.35548 0.17614 0.99867 0.0
N579 N 0.44381 0.31123 0.03399 0.0
H580 H 0.33383 0.31518 0.08602 0.0
H581 H 0.3789 0.33577 0.10601 0.0
H582 H 0.47397 0.31112 0.02811 0.0
H583 H 0.43215 0.33917 0.03559 0.0
H584 H 0.36743 0.14834 0.99688 0.0
H585 H 0.32557 0.17598 1.01131 0.0
H586 H 0.42277 0.14976 0.93672 0.0
H587 H 0.4672 0.1731 0.95782 0.0
C588 C 0.23758 0.8861 0.54388 0.0
C589 C 0.27081 0.86283 0.52244 0.0
C590 C 0.30976 0.92259 0.50339 0.0
C591 C 0.27556 0.945 0.51211 0.0
N592 N 0.20605 0.9486 0.52278 0.0
N593 N 0.33919 0.85903 0.48232 0.0
C594 C 0.23923 0.92682 0.52697 0.0
C595 C 0.30711 0.88116 0.5016 0.0
N596 N 0.20478 0.86995 0.584 0.0
N597 N 0.34484 0.94118 0.50071 0.0
H598 H 0.33945 0.82884 0.4895 0.0
H599 H 0.3652 0.87028 0.45504 0.0
H600 H 0.34717 0.97147 0.50113 0.0
H601 H 0.37153 0.927 0.50492 0.0
H602 H 0.18163 0.88643 0.61102 0.0
H603 H 0.20177 0.84056 0.60051 0.0
H604 H 0.17827 0.93652 0.52097 0.0
H605 H 0.20634 0.97862 0.51156 0.0
C606 C 0.63453 0.74673 0.08261 0.0
C607 C 0.65373 0.77933 0.03929 0.0
C608 C 0.5904 0.80864 0.99752 0.0
C609 C 0.57168 0.77459 0.03235 0.0
N610 N 0.57562 0.70805 0.08689 0.0
N611 N 0.65019 0.83858 0.94094 0.0
C612 C 0.5937 0.74271 0.06909 0.0
C613 C 0.63169 0.80951 0.99225 0.0
N614 N 0.6551 0.71986 0.13779 0.0
N615 N 0.56857 0.84046 0.97226 0.0
H616 H 0.6803 0.84005 0.9366 0.0
H617 H 0.63581 0.85926 0.89637 0.0
H618 H 0.53828 0.84038 0.97566 0.0
H619 H 0.58043 0.86762 0.95594 0.0
H620 H 0.64207 0.69769 0.17959 0.0
H621 H 0.68504 0.72156 0.14894 0.0
H622 H 0.59045 0.68244 0.10438 0.0
H623 H 0.54597 0.7041 0.07357 0.0
loop_
_geom_bond_atom_site_label_1
_geom_bond_atom_site_label_2
_geom_bond_distance
_geom_bond_site_symmetry_2
_ccdc_geom_bond_type
Fe0 O2 1.920 . S
Fe0 O5 1.997 . S
Fe0 O6 2.002 . S
Fe0 O11 1.976 . S
Fe0 O14 1.996 . S
Fe1 O2 1.916 1_556 S
Fe1 O9 1.997 . S
Fe1 O12 1.996 . S
Fe1 O16 1.976 . S
Fe1 O19 2.002 . S
O2 Fe0 1.920 . S
O2 Fe1 1.916 1_554 S
O2 Fe3 1.918 1_554 S
Fe3 O2 1.918 1_556 S
Fe3 O4 1.996 1_556 S
Fe3 O13 1.969 1_556 S
Fe3 O17 2.002 . S
Fe3 O20 2.003 . S
O4 Fe3 1.996 1_554 S
O4 C21 1.295 . S
O5 Fe0 1.997 . S
O5 C21 1.235 . S
O6 Fe0 2.002 . S
O6 C7 1.295 . S
C7 O6 1.295 . S
C7 O9 1.235 1_554 S
C8 O13 1.287 . S
C8 O14 1.255 . S
O9 Fe1 1.997 . S
O9 C7 1.235 1_556 S
C10 O16 1.287 . S
C10 O17 1.255 . S
O11 Fe0 1.976 . S
O11 C18 1.287 1_554 S
O12 Fe1 1.996 . S
O12 C18 1.255 . S
O13 Fe3 1.969 1_554 S
O13 C8 1.287 . S
O14 Fe0 1.996 . S
O14 C8 1.255 . S
C15 O19 1.295 . S
C15 O20 1.235 . S
O16 Fe1 1.976 . S
O16 C10 1.287 . S
O17 Fe3 2.002 . S
O17 C10 1.255 . S
C18 O11 1.287 1_556 S
C18 O12 1.255 . S
O19 Fe1 2.002 . S
O19 C15 1.295 . S
O20 Fe3 2.003 . S
O20 C15 1.235 . S
C21 O4 1.295 . S
C21 O5 1.235 . S
Fe22 O24 1.918 . S
Fe22 O27 1.997 . S
Fe22 O28 2.002 . S
Fe22 O33 1.976 . S
Fe22 O36 1.996 . S
Fe23 O24 1.918 . S
Fe23 O31 1.997 . S
Fe23 O34 1.996 . S
Fe23 O38 1.976 . S
Fe23 O41 2.002 . S
O24 Fe22 1.918 . S
O24 Fe23 1.918 . S
O24 Fe25 1.918 . S
Fe25 O24 1.918 . S
Fe25 O26 2.002 . S
Fe25 O35 1.976 . S
Fe25 O39 1.996 . S
Fe25 O42 1.997 . S
O26 Fe25 2.002 . S
O26 C43 1.295 . S
O27 Fe22 1.997 . S
O27 C43 1.235 . S
O28 Fe22 2.002 . S
O28 C29 1.295 . S
C29 O28 1.295 . S
C29 O31 1.235 . S
C30 O35 1.287 . S
C30 O36 1.255 . S
O31 Fe23 1.997 . S
O31 C29 1.235 . S
C32 O38 1.287 . S
C32 O39 1.255 . S
O33 Fe22 1.976 . S
O33 C40 1.287 . S
O34 Fe23 1.996 . S
O34 C40 1.255 . S
O35 Fe25 1.976 . S
O35 C30 1.287 . S
O36 Fe22 1.996 . S
O36 C30 1.255 . S
C37 O41 1.295 . S
C37 O42 1.235 . S
O38 Fe23 1.976 . S
O38 C32 1.287 . S
O39 Fe25 1.996 . S
O39 C32 1.255 . S
C40 O33 1.287 . S
C40 O34 1.255 . S
O41 Fe23 2.002 . S
O41 C37 1.295 . S
O42 Fe25 1.997 . S
O42 C37 1.235 . S
C43 O26 1.295 . S
C43 O27 1.235 . S
Fe44 O46 1.911 1_556 S
Fe44 O49 1.997 . S
Fe44 O50 2.002 . S
Fe44 O55 1.976 . S
Fe44 O58 1.996 . S
Fe45 O46 1.925 . S
Fe45 O53 1.997 . S
Fe45 O56 1.996 . S
Fe45 O60 1.976 . S
Fe45 O63 2.002 . S
O46 Fe44 1.911 1_554 S
O46 Fe45 1.925 . S
O46 Fe47 1.918 . S
Fe47 O46 1.918 . S
Fe47 O48 2.002 1_554 S
Fe47 O57 1.976 1_554 S
Fe47 O61 1.996 . S
Fe47 O64 1.997 . S
O48 Fe47 2.002 1_556 S
O48 C65 1.295 . S
O49 Fe44 1.997 . S
O49 C65 1.235 . S
O50 Fe44 2.002 . S
O50 C51 1.295 . S
C51 O50 1.295 . S
C51 O53 1.235 1_556 S
C52 O57 1.287 . S
C52 O58 1.255 . S
O53 Fe45 1.997 . S
O53 C51 1.235 1_554 S
C54 O60 1.287 . S
C54 O61 1.255 . S
O55 Fe44 1.976 . S
O55 C62 1.287 1_556 S
O56 Fe45 1.996 . S
O56 C62 1.255 . S
O57 Fe47 1.976 1_556 S
O57 C52 1.287 . S
O58 Fe44 1.996 . S
O58 C52 1.255 . S
C59 O63 1.295 . S
C59 O64 1.235 . S
O60 Fe45 1.976 . S
O60 C54 1.287 . S
O61 Fe47 1.996 . S
O61 C54 1.255 . S
C62 O55 1.287 1_554 S
C62 O56 1.255 . S
O63 Fe45 2.002 . S
O63 C59 1.295 . S
O64 Fe47 1.997 . S
O64 C59 1.235 . S
C65 O48 1.295 . S
C65 O49 1.235 . S
Fe66 O68 1.918 . S
Fe66 O71 1.997 . S
Fe66 O72 2.002 . S
Fe66 O77 1.976 . S
Fe66 O80 1.996 . S
Fe67 O68 1.918 . S
Fe67 O75 1.997 . S
Fe67 O78 1.996 . S
Fe67 O82 1.976 . S
Fe67 O85 2.002 . S
O68 Fe66 1.918 . S
O68 Fe67 1.918 . S
O68 Fe69 1.918 . S
Fe69 O68 1.918 . S
Fe69 O70 2.002 . S
Fe69 O79 1.976 . S
Fe69 O83 1.996 . S
Fe69 O86 1.997 . S
O70 Fe69 2.002 . S
O70 C87 1.295 . S
O71 Fe66 1.997 . S
O71 C87 1.235 . S
O72 Fe66 2.002 . S
O72 C73 1.295 . S
C73 O72 1.295 . S
C73 O75 1.235 . S
C74 O79 1.287 . S
C74 O80 1.255 . S
O75 Fe67 1.997 . S
O75 C73 1.235 . S
C76 O82 1.287 . S
C76 O83 1.255 . S
O77 Fe66 1.976 . S
O77 C84 1.287 . S
O78 Fe67 1.996 . S
O78 C84 1.255 . S
O79 Fe69 1.976 . S
O79 C74 1.287 . S
O80 Fe66 1.996 . S
O80 C74 1.255 . S
C81 O85 1.295 . S
C81 O86 1.235 . S
O82 Fe67 1.976 . S
O82 C76 1.287 . S
O83 Fe69 1.996 . S
O83 C76 1.255 . S
C84 O77 1.287 . S
C84 O78 1.255 . S
O85 Fe67 2.002 . S
O85 C81 1.295 . S
O86 Fe69 1.997 . S
O86 C81 1.235 . S
C87 O70 1.295 . S
C87 O71 1.235 . S
C88 N89 1.317 . S
C88 N90 1.348 . S
C88 C91 1.485 . S
N89 C88 1.317 . S
N89 N93 1.370 1_556 S
N90 C88 1.348 . S
N90 C92 1.346 1_556 S
C91 C88 1.485 . S
C91 H95 0.960 . S
C91 H96 0.961 . S
C91 H97 0.960 . S
C92 N90 1.346 1_554 S
C92 N93 1.307 . S
C92 C94 1.486 . S
N93 N89 1.370 1_554 S
N93 C92 1.307 . S
C94 C92 1.486 . S
C94 H98 0.960 . S
C94 H99 0.960 . S
C94 H100 0.959 . S
H95 C91 0.960 . S
H96 C91 0.961 . S
H97 C91 0.960 . S
H98 C94 0.960 . S
H99 C94 0.960 . S
H100 C94 0.959 . S
C101 N102 1.317 1_455 S
C101 N103 1.348 . S
C101 C104 1.485 . S
N102 C101 1.317 1_655 S
N102 N106 1.370 . S
N103 C101 1.348 . S
N103 C105 1.346 . S
C104 C101 1.485 . S
C104 H108 0.960 . S
C104 H109 0.961 . S
C104 H110 0.960 1_455 S
C105 N103 1.346 . S
C105 N106 1.307 1_455 S
C105 C107 1.486 . S
N106 N102 1.370 . S
N106 C105 1.307 1_655 S
C107 C105 1.486 . S
C107 H111 0.960 . S
C107 H112 0.960 . S
C107 H113 0.959 . S
H108 C104 0.960 . S
H109 C104 0.961 . S
H110 C104 0.960 1_655 S
H111 C107 0.960 . S
H112 C107 0.960 . S
H113 C107 0.959 . S
C114 N115 1.317 . S
C114 N116 1.348 . S
C114 C117 1.485 . S
N115 C114 1.317 . S
N115 N119 1.370 1_554 S
N116 C114 1.348 . S
N116 C118 1.346 1_554 S
C117 C114 1.485 . S
C117 H121 0.960 . S
C117 H122 0.961 . S
C117 H123 0.960 . S
C118 N116 1.346 1_556 S
C118 N119 1.307 . S
C118 C120 1.486 . S
N119 N115 1.370 1_556 S
N119 C118 1.307 . S
C120 C118 1.486 . S
C120 H124 0.960 . S
C120 H125 0.960 . S
C120 H126 0.959 . S
H121 C117 0.960 . S
H122 C117 0.961 . S
H123 C117 0.960 . S
H124 C120 0.960 . S
H125 C120 0.960 . S
H126 C120 0.959 . S
C127 N128 1.317 1_655 S
C127 N129 1.348 . S
C127 C130 1.485 . S
N128 C127 1.317 1_455 S
N128 N132 1.370 . S
N129 C127 1.348 . S
N129 C131 1.346 . S
C130 C127 1.485 . S
C130 H134 0.960 . S
C130 H135 0.961 . S
C130 H136 0.960 . S
C131 N129 1.346 . S
C131 N132 1.307 1_655 S
C131 C133 1.486 . S
N132 N128 1.370 . S
N132 C131 1.307 1_455 S
C133 C131 1.486 . S
C133 H137 0.960 . S
C133 H138 0.960 . S
C133 H139 0.959 . S
H134 C130 0.960 . S
H135 C130 0.961 . S
H136 C130 0.960 . S
H137 C133 0.960 . S
H138 C133 0.960 . S
H139 C133 0.959 . S
C140 N141 1.317 1_545 S
C140 N142 1.348 . S
C140 C143 1.485 . S
N141 C140 1.317 1_565 S
N141 N145 1.370 . S
N142 C140 1.348 . S
N142 C144 1.346 . S
C143 C140 1.485 . S
C143 H147 0.960 . S
C143 H148 0.961 . S
C143 H149 0.960 . S
C144 N142 1.346 . S
C144 N145 1.307 1_545 S
C144 C146 1.486 . S
N145 N141 1.370 . S
N145 C144 1.307 1_565 S
C146 C144 1.486 . S
C146 H150 0.960 . S
C146 H151 0.960 . S
C146 H152 0.959 . S
H147 C143 0.960 . S
H148 C143 0.961 . S
H149 C143 0.960 . S
H150 C146 0.960 . S
H151 C146 0.960 . S
H152 C146 0.959 . S
C153 N154 1.317 . S
C153 N155 1.348 . S
C153 C156 1.485 . S
N154 C153 1.317 . S
N154 N158 1.370 1_556 S
N155 C153 1.348 . S
N155 C157 1.346 1_556 S
C156 C153 1.485 . S
C156 H160 0.960 . S
C156 H161 0.961 . S
C156 H162 0.960 . S
C157 N155 1.346 1_554 S
C157 N158 1.307 . S
C157 C159 1.486 . S
N158 N154 1.370 1_554 S
N158 C157 1.307 . S
C159 C157 1.486 . S
C159 H163 0.960 . S
C159 H164 0.960 . S
C159 H165 0.959 . S
H160 C156 0.960 . S
H161 C156 0.961 . S
H162 C156 0.960 . S
H163 C159 0.960 . S
H164 C159 0.960 . S
H165 C159 0.959 . S
C166 N167 1.317 1_565 S
C166 N168 1.348 . S
C166 C169 1.485 . S
N167 C166 1.317 1_545 S
N167 N171 1.370 . S
N168 C166 1.348 . S
N168 C170 1.346 . S
C169 C166 1.485 . S
C169 H173 0.960 . S
C169 H174 0.961 . S
C169 H175 0.960 1_565 S
C170 N168 1.346 . S
C170 N171 1.307 1_565 S
C170 C172 1.486 . S
N171 N167 1.370 . S
N171 C170 1.307 1_545 S
C172 C170 1.486 . S
C172 H176 0.960 . S
C172 H177 0.960 . S
C172 H178 0.949 1_565 S
H173 C169 0.960 . S
H174 C169 0.961 . S
H175 C169 0.960 1_545 S
H176 C172 0.960 . S
H177 C172 0.960 . S
H178 C172 0.949 1_545 S
C179 N180 1.317 . S
C179 N181 1.348 . S
C179 C182 1.485 . S
N180 C179 1.317 . S
N180 N184 1.370 1_554 S
N181 C179 1.348 . S
N181 C183 1.346 1_554 S
C182 C179 1.485 . S
C182 H186 0.960 . S
C182 H187 0.961 . S
C182 H188 0.960 . S
C183 N181 1.346 1_556 S
C183 N184 1.307 . S
C183 C185 1.486 . S
N184 N180 1.370 1_556 S
N184 C183 1.307 . S
C185 C183 1.486 . S
C185 H189 0.960 . S
C185 H190 0.960 . S
C185 H191 0.959 . S
H186 C182 0.960 . S
H187 C182 0.961 . S
H188 C182 0.960 . S
H189 C185 0.960 . S
H190 C185 0.960 . S
H191 C185 0.959 . S
C192 C193 1.363 . S
C192 C198 1.379 . S
C192 N200 1.356 . S
C193 C192 1.363 . S
C193 C199 1.363 . S
C194 C195 1.363 . S
C194 C199 1.379 . S
C194 N201 1.356 . S
C195 C194 1.363 . S
C195 C198 1.363 . S
N196 C198 1.356 . S
N196 H208 0.984 . S
N196 H209 0.985 . S
N197 C199 1.356 . S
N197 H202 0.984 . S
N197 H203 0.985 . S
C198 C192 1.379 . S
C198 C195 1.363 . S
C198 N196 1.356 . S
C199 C193 1.363 . S
C199 C194 1.379 . S
C199 N197 1.356 . S
N200 C192 1.356 . S
N200 H206 0.984 . S
N200 H207 0.984 . S
N201 C194 1.356 . S
N201 H204 0.984 . S
N201 H205 0.985 . S
H202 N197 0.984 . S
H203 N197 0.985 . S
H204 N201 0.984 . S
H205 N201 0.985 . S
H206 N200 0.984 . S
H207 N200 0.984 . S
H208 N196 0.984 . S
H209 N196 0.985 . S
C210 C211 1.363 . S
C210 C216 1.379 . S
C210 N218 1.356 . S
C211 C210 1.363 . S
C211 C217 1.363 . S
C212 C213 1.363 . S
C212 C217 1.379 . S
C212 N219 1.356 . S
C213 C212 1.363 . S
C213 C216 1.363 . S
N214 C216 1.356 . S
N214 H226 0.984 1_556 S
N214 H227 0.985 1_556 S
N215 C217 1.356 . S
N215 H220 0.984 . S
N215 H221 0.985 . S
C216 C210 1.379 . S
C216 C213 1.363 . S
C216 N214 1.356 . S
C217 C211 1.363 . S
C217 C212 1.379 . S
C217 N215 1.356 . S
N218 C210 1.356 . S
N218 H224 0.984 . S
N218 H225 0.984 . S
N219 C212 1.356 . S
N219 H222 0.984 . S
N219 H223 0.985 . S
H220 N215 0.984 . S
H221 N215 0.985 . S
H222 N219 0.984 . S
H223 N219 0.985 . S
H224 N218 0.984 . S
H225 N218 0.984 . S
H226 N214 0.984 1_554 S
H227 N214 0.985 1_554 S
C228 C229 1.363 . S
C228 C234 1.379 . S
C228 N236 1.356 . S
C229 C228 1.363 . S
C229 C235 1.363 . S
C230 C231 1.363 . S
C230 C235 1.379 . S
C230 N237 1.356 . S
C231 C230 1.363 . S
C231 C234 1.363 . S
N232 C234 1.356 . S
N232 H244 0.984 . S
N232 H245 0.985 . S
N233 C235 1.356 . S
N233 H238 0.984 . S
N233 H239 0.985 . S
C234 C228 1.379 . S
C234 C231 1.363 . S
C234 N232 1.356 . S
C235 C229 1.363 . S
C235 C230 1.379 . S
C235 N233 1.356 . S
N236 C228 1.356 . S
N236 H242 0.984 . S
N236 H243 0.984 . S
N237 C230 1.356 . S
N237 H240 0.984 . S
N237 H241 0.985 . S
H238 N233 0.984 . S
H239 N233 0.985 . S
H240 N237 0.984 . S
H241 N237 0.985 . S
H242 N236 0.984 . S
H243 N236 0.984 . S
H244 N232 0.984 . S
H245 N232 0.985 . S
C246 C247 1.363 . S
C246 C252 1.379 . S
C246 N254 1.356 . S
C247 C246 1.363 . S
C247 C253 1.363 . S
C248 C249 1.363 . S
C248 C253 1.379 . S
C248 N255 1.356 . S
C249 C248 1.363 . S
C249 C252 1.363 . S
N250 C252 1.356 . S
N250 H262 0.984 . S
N250 H263 0.985 . S
N251 C253 1.356 . S
N251 H256 0.984 . S
N251 H257 0.985 . S
C252 C246 1.379 . S
C252 C249 1.363 . S
C252 N250 1.356 . S
C253 C247 1.363 . S
C253 C248 1.379 . S
C253 N251 1.356 . S
N254 C246 1.356 . S
N254 H260 0.984 . S
N254 H261 0.984 . S
N255 C248 1.356 . S
N255 H258 0.984 . S
N255 H259 0.985 . S
H256 N251 0.984 . S
H257 N251 0.985 . S
H258 N255 0.984 . S
H259 N255 0.985 . S
H260 N254 0.984 . S
H261 N254 0.984 . S
H262 N250 0.984 . S
H263 N250 0.985 . S
C264 C265 1.363 . S
C264 C270 1.379 . S
C264 N272 1.356 . S
C265 C264 1.363 . S
C265 C271 1.363 . S
C266 C267 1.363 . S
C266 C271 1.379 . S
C266 N273 1.356 . S
C267 C266 1.363 . S
C267 C270 1.363 . S
N268 C270 1.356 . S
N268 H280 0.984 1_554 S
N268 H281 0.985 1_554 S
N269 C271 1.356 . S
N269 H274 0.984 . S
N269 H275 0.985 . S
C270 C264 1.379 . S
C270 C267 1.363 . S
C270 N268 1.356 . S
C271 C265 1.363 . S
C271 C266 1.379 . S
C271 N269 1.356 . S
N272 C264 1.356 . S
N272 H278 0.984 . S
N272 H279 0.984 . S
N273 C266 1.356 . S
N273 H276 0.984 . S
N273 H277 0.985 . S
H274 N269 0.984 . S
H275 N269 0.985 . S
H276 N273 0.984 . S
H277 N273 0.985 . S
H278 N272 0.984 . S
H279 N272 0.984 . S
H280 N268 0.984 1_556 S
H281 N268 0.985 1_556 S
C282 C283 1.363 . S
C282 C288 1.379 . S
C282 N290 1.356 . S
C283 C282 1.363 . S
C283 C289 1.363 . S
C284 C285 1.363 . S
C284 C289 1.379 . S
C284 N291 1.356 . S
C285 C284 1.363 . S
C285 C288 1.363 . S
N286 C288 1.356 . S
N286 H298 0.984 . S
N286 H299 0.985 . S
N287 C289 1.356 . S
N287 H292 0.984 . S
N287 H293 0.985 . S
C288 C282 1.379 . S
C288 C285 1.363 . S
C288 N286 1.356 . S
C289 C283 1.363 . S
C289 C284 1.379 . S
C289 N287 1.356 . S
N290 C282 1.356 . S
N290 H296 0.984 . S
N290 H297 0.984 . S
N291 C284 1.356 . S
N291 H294 0.984 . S
N291 H295 0.985 . S
H292 N287 0.984 . S
H293 N287 0.985 . S
H294 N291 0.984 . S
H295 N291 0.985 . S
H296 N290 0.984 . S
H297 N290 0.984 . S
H298 N286 0.984 . S
H299 N286 0.985 . S
C300 C301 1.363 . S
C300 C306 1.379 . S
C300 N308 1.356 . S
C301 C300 1.363 . S
C301 C307 1.363 . S
C302 C303 1.363 . S
C302 C307 1.379 . S
C302 N309 1.356 . S
C303 C302 1.363 . S
C303 C306 1.363 . S
N304 C306 1.356 . S
N304 H316 0.984 . S
N304 H317 0.985 . S
N305 C307 1.356 . S
N305 H310 0.984 . S
N305 H311 0.985 . S
C306 C300 1.379 . S
C306 C303 1.363 . S
C306 N304 1.356 . S
C307 C301 1.363 . S
C307 C302 1.379 . S
C307 N305 1.356 . S
N308 C300 1.356 . S
N308 H314 0.984 . S
N308 H315 0.984 . S
N309 C302 1.356 . S
N309 H312 0.984 . S
N309 H313 0.985 . S
H310 N305 0.984 . S
H311 N305 0.985 . S
H312 N309 0.984 . S
H313 N309 0.985 . S
H314 N308 0.984 . S
H315 N308 0.984 . S
H316 N304 0.984 . S
H317 N304 0.985 . S
C318 C319 1.363 . S
C318 C324 1.379 . S
C318 N326 1.356 . S
C319 C318 1.363 . S
C319 C325 1.363 . S
C320 C321 1.363 . S
C320 C325 1.379 . S
C320 N327 1.356 . S
C321 C320 1.363 . S
C321 C324 1.363 . S
N322 C324 1.356 . S
N322 H334 0.984 . S
N322 H335 0.985 . S
N323 C325 1.356 . S
N323 H328 0.984 . S
N323 H329 0.985 . S
C324 C318 1.379 . S
C324 C321 1.363 . S
C324 N322 1.356 . S
C325 C319 1.363 . S
C325 C320 1.379 . S
C325 N323 1.356 . S
N326 C318 1.356 . S
N326 H332 0.984 . S
N326 H333 0.984 . S
N327 C320 1.356 . S
N327 H330 0.984 . S
N327 H331 0.985 . S
H328 N323 0.984 . S
H329 N323 0.985 . S
H330 N327 0.984 . S
H331 N327 0.985 . S
H332 N326 0.984 . S
H333 N326 0.984 . S
H334 N322 0.984 . S
H335 N322 0.985 . S
C336 C337 1.363 . S
C336 C342 1.379 . S
C336 N344 1.356 . S
C337 C336 1.363 . S
C337 C343 1.363 . S
C338 C339 1.363 . S
C338 C343 1.379 . S
C338 N345 1.356 . S
C339 C338 1.363 . S
C339 C342 1.363 . S
N340 C342 1.356 . S
N340 H352 0.984 . S
N340 H353 0.985 . S
N341 C343 1.356 . S
N341 H346 0.984 . S
N341 H347 0.985 . S
C342 C336 1.379 . S
C342 C339 1.363 . S
C342 N340 1.356 . S
C343 C337 1.363 . S
C343 C338 1.379 . S
C343 N341 1.356 . S
N344 C336 1.356 . S
N344 H350 0.984 . S
N344 H351 0.984 . S
N345 C338 1.356 . S
N345 H348 0.984 . S
N345 H349 0.985 . S
H346 N341 0.984 . S
H347 N341 0.985 . S
H348 N345 0.984 . S
H349 N345 0.985 . S
H350 N344 0.984 . S
H351 N344 0.984 . S
H352 N340 0.984 . S
H353 N340 0.985 . S
C354 C355 1.363 . S
C354 C360 1.379 . S
C354 N362 1.356 . S
C355 C354 1.363 . S
C355 C361 1.363 . S
C356 C357 1.363 . S
C356 C361 1.379 . S
C356 N363 1.356 . S
C357 C356 1.363 . S
C357 C360 1.363 . S
N358 C360 1.356 . S
N358 H370 0.984 . S
N358 H371 0.988 . S
N359 C361 1.356 . S
N359 H364 0.984 . S
N359 H365 0.985 . S
C360 C354 1.379 . S
C360 C357 1.363 . S
C360 N358 1.356 . S
C361 C355 1.363 . S
C361 C356 1.379 . S
C361 N359 1.356 . S
N362 C354 1.356 . S
N362 H368 0.984 . S
N362 H369 0.984 . S
N363 C356 1.356 . S
N363 H366 0.984 . S
N363 H367 0.985 . S
H364 N359 0.984 . S
H365 N359 0.985 . S
H366 N363 0.984 . S
H367 N363 0.985 . S
H368 N362 0.984 . S
H369 N362 0.984 . S
H370 N358 0.984 . S
H371 N358 0.988 . S
C372 C373 1.363 . S
C372 C378 1.379 . S
C372 N380 1.356 . S
C373 C372 1.363 . S
C373 C379 1.363 . S
C374 C375 1.363 . S
C374 C379 1.379 . S
C374 N381 1.356 . S
C375 C374 1.363 . S
C375 C378 1.363 . S
N376 C378 1.356 . S
N376 H388 0.984 . S
N376 H389 0.985 . S
N377 C379 1.356 . S
N377 H382 0.984 . S
N377 H383 0.985 . S
C378 C372 1.379 . S
C378 C375 1.363 . S
C378 N376 1.356 . S
C379 C373 1.363 . S
C379 C374 1.379 . S
C379 N377 1.356 . S
N380 C372 1.356 . S
N380 H386 0.984 . S
N380 H387 0.984 . S
N381 C374 1.356 . S
N381 H384 0.984 . S
N381 H385 0.985 . S
H382 N377 0.984 . S
H383 N377 0.985 . S
H384 N381 0.984 . S
H385 N381 0.985 . S
H386 N380 0.984 . S
H387 N380 0.984 . S
H388 N376 0.984 . S
H389 N376 0.985 . S
C390 C391 1.363 . S
C390 C396 1.379 . S
C390 N398 1.356 . S
C391 C390 1.363 . S
C391 C397 1.363 . S
C392 C393 1.363 . S
C392 C397 1.379 . S
C392 N399 1.356 . S
C393 C392 1.363 . S
C393 C396 1.363 . S
N394 C396 1.356 . S
N394 H406 0.984 1_554 S
N394 H407 0.985 1_554 S
N395 C397 1.356 . S
N395 H400 0.984 . S
N395 H401 0.985 . S
C396 C390 1.379 . S
C396 C393 1.363 . S
C396 N394 1.356 . S
C397 C391 1.363 . S
C397 C392 1.379 . S
C397 N395 1.356 . S
N398 C390 1.356 . S
N398 H404 0.984 . S
N398 H405 0.984 . S
N399 C392 1.356 . S
N399 H402 0.984 . S
N399 H403 0.985 . S
H400 N395 0.984 . S
H401 N395 0.985 . S
H402 N399 0.984 . S
H403 N399 0.985 . S
H404 N398 0.984 . S
H405 N398 0.984 . S
H406 N394 0.984 1_556 S
H407 N394 0.985 1_556 S
C408 C409 1.363 . S
C408 C414 1.379 . S
C408 N416 1.356 . S
C409 C408 1.363 . S
C409 C415 1.363 . S
C410 C411 1.363 . S
C410 C415 1.379 . S
C410 N417 1.356 . S
C411 C410 1.363 . S
C411 C414 1.363 . S
N412 C414 1.356 . S
N412 H424 0.984 . S
N412 H425 0.985 . S
N413 C415 1.356 . S
N413 H418 0.984 . S
N413 H419 0.985 . S
C414 C408 1.379 . S
C414 C411 1.363 . S
C414 N412 1.356 . S
C415 C409 1.363 . S
C415 C410 1.379 . S
C415 N413 1.356 . S
N416 C408 1.356 . S
N416 H422 0.984 . S
N416 H423 0.984 . S
N417 C410 1.356 . S
N417 H420 0.984 1_556 S
N417 H421 0.985 1_556 S
H418 N413 0.984 . S
H419 N413 0.985 . S
H420 N417 0.984 1_554 S
H421 N417 0.985 1_554 S
H422 N416 0.984 . S
H423 N416 0.984 . S
H424 N412 0.984 . S
H425 N412 0.985 . S
C426 C427 1.363 . S
C426 C432 1.379 . S
C426 N434 1.356 . S
C427 C426 1.363 . S
C427 C433 1.363 . S
C428 C429 1.363 . S
C428 C433 1.379 . S
C428 N435 1.356 . S
C429 C428 1.363 . S
C429 C432 1.363 . S
N430 C432 1.356 . S
N430 H442 0.984 1_565 S
N430 H443 0.985 1_565 S
N431 C433 1.356 . S
N431 H436 0.984 . S
N431 H437 0.985 . S
C432 C426 1.379 . S
C432 C429 1.363 . S
C432 N430 1.356 . S
C433 C427 1.363 . S
C433 C428 1.379 . S
C433 N431 1.356 . S
N434 C426 1.356 . S
N434 H440 0.984 . S
N434 H441 0.984 . S
N435 C428 1.356 . S
N435 H438 0.984 . S
N435 H439 0.985 . S
H436 N431 0.984 . S
H437 N431 0.985 . S
H438 N435 0.984 . S
H439 N435 0.985 . S
H440 N434 0.984 . S
H441 N434 0.984 . S
H442 N430 0.984 1_545 S
H443 N430 0.985 1_545 S
C444 C445 1.363 . S
C444 C450 1.379 . S
C444 N452 1.356 . S
C445 C444 1.363 . S
C445 C451 1.363 . S
C446 C447 1.363 . S
C446 C451 1.379 . S
C446 N453 1.356 . S
C447 C446 1.363 . S
C447 C450 1.363 . S
N448 C450 1.356 . S
N448 H460 0.984 . S
N448 H461 0.985 . S
N449 C451 1.356 . S
N449 H454 0.984 . S
N449 H455 0.985 . S
C450 C444 1.379 . S
C450 C447 1.363 . S
C450 N448 1.356 . S
C451 C445 1.363 . S
C451 C446 1.379 . S
C451 N449 1.356 . S
N452 C444 1.356 . S
N452 H458 0.984 . S
N452 H459 0.984 . S
N453 C446 1.356 . S
N453 H456 0.984 1_556 S
N453 H457 0.985 . S
H454 N449 0.984 . S
H455 N449 0.985 . S
H456 N453 0.984 1_554 S
H457 N453 0.985 . S
H458 N452 0.984 . S
H459 N452 0.984 . S
H460 N448 0.984 . S
H461 N448 0.985 . S
C462 C463 1.363 . S
C462 C468 1.379 . S
C462 N470 1.356 . S
C463 C462 1.363 . S
C463 C469 1.363 . S
C464 C465 1.363 . S
C464 C469 1.379 . S
C464 N471 1.356 . S
C465 C464 1.363 . S
C465 C468 1.363 . S
N466 C468 1.356 . S
N466 H478 0.984 . S
N466 H479 0.985 . S
N467 C469 1.356 . S
N467 H472 0.984 . S
N467 H473 0.985 . S
C468 C462 1.379 . S
C468 C465 1.363 . S
C468 N466 1.356 . S
C469 C463 1.363 . S
C469 C464 1.379 . S
C469 N467 1.356 . S
N470 C462 1.356 . S
N470 H476 0.984 . S
N470 H477 0.984 . S
N471 C464 1.356 . S
N471 H474 0.984 . S
N471 H475 0.978 1_545 S
H472 N467 0.984 . S
H473 N467 0.985 . S
H474 N471 0.984 . S
H475 N471 0.978 1_565 S
H476 N470 0.984 . S
H477 N470 0.984 . S
H478 N466 0.984 . S
H479 N466 0.985 . S
C480 C481 1.363 1_556 S
C480 C486 1.379 . S
C480 N488 1.356 . S
C481 C480 1.363 1_554 S
C481 C487 1.363 . S
C482 C483 1.368 . S
C482 C487 1.379 . S
C482 N489 1.356 . S
C483 C482 1.368 . S
C483 C486 1.358 1_554 S
N484 C486 1.356 . S
N484 H496 0.984 . S
N484 H497 0.985 . S
N485 C487 1.356 . S
N485 H490 0.984 . S
N485 H491 0.985 . S
C486 C480 1.379 . S
C486 C483 1.358 1_556 S
C486 N484 1.356 . S
C487 C481 1.363 . S
C487 C482 1.379 . S
C487 N485 1.356 . S
N488 C480 1.356 . S
N488 H494 0.984 . S
N488 H495 0.984 . S
N489 C482 1.356 . S
N489 H492 0.984 . S
N489 H493 0.985 . S
H490 N485 0.984 . S
H491 N485 0.985 . S
H492 N489 0.984 . S
H493 N489 0.985 . S
H494 N488 0.984 . S
H495 N488 0.984 . S
H496 N484 0.984 . S
H497 N484 0.985 . S
C498 C499 1.363 . S
C498 C504 1.379 . S
C498 N506 1.356 . S
C499 C498 1.363 . S
C499 C505 1.363 . S
C500 C501 1.363 . S
C500 C505 1.379 . S
C500 N507 1.356 . S
C501 C500 1.363 . S
C501 C504 1.363 . S
N502 C504 1.356 . S
N502 H514 0.984 . S
N502 H515 0.985 . S
N503 C505 1.356 . S
N503 H508 0.984 . S
N503 H509 0.985 . S
C504 C498 1.379 . S
C504 C501 1.363 . S
C504 N502 1.356 . S
C505 C499 1.363 . S
C505 C500 1.379 . S
C505 N503 1.356 . S
N506 C498 1.356 . S
N506 H512 0.984 . S
N506 H513 0.984 . S
N507 C500 1.356 . S
N507 H510 0.984 . S
N507 H511 0.985 . S
H508 N503 0.984 . S
H509 N503 0.985 . S
H510 N507 0.984 . S
H511 N507 0.985 . S
H512 N506 0.984 . S
H513 N506 0.984 . S
H514 N502 0.984 . S
H515 N502 0.985 . S
C516 C517 1.363 1_556 S
C516 C522 1.379 . S
C516 N524 1.356 . S
C517 C516 1.363 1_554 S
C517 C523 1.363 . S
C518 C519 1.369 . S
C518 C523 1.379 . S
C518 N525 1.356 . S
C519 C518 1.369 . S
C519 C522 1.357 1_554 S
N520 C522 1.356 . S
N520 H532 0.984 . S
N520 H533 0.985 . S
N521 C523 1.356 . S
N521 H526 0.984 . S
N521 H527 0.985 . S
C522 C516 1.379 . S
C522 C519 1.357 1_556 S
C522 N520 1.356 . S
C523 C517 1.363 . S
C523 C518 1.379 . S
C523 N521 1.356 . S
N524 C516 1.356 . S
N524 H530 0.984 . S
N524 H531 0.984 . S
N525 C518 1.356 . S
N525 H528 0.984 . S
N525 H529 0.985 . S
H526 N521 0.984 . S
H527 N521 0.985 . S
H528 N525 0.984 . S
H529 N525 0.985 . S
H530 N524 0.984 . S
H531 N524 0.984 . S
H532 N520 0.984 . S
H533 N520 0.985 . S
C534 C535 1.363 . S
C534 C540 1.379 . S
C534 N542 1.356 . S
C535 C534 1.363 . S
C535 C541 1.363 . S
C536 C537 1.363 . S
C536 C541 1.379 . S
C536 N543 1.356 . S
C537 C536 1.363 . S
C537 C540 1.363 . S
N538 C540 1.356 . S
N538 H550 0.984 . S
N538 H551 0.985 . S
N539 C541 1.356 . S
N539 H544 0.984 . S
N539 H545 0.985 . S
C540 C534 1.379 . S
C540 C537 1.363 . S
C540 N538 1.356 . S
C541 C535 1.363 . S
C541 C536 1.379 . S
C541 N539 1.356 . S
N542 C534 1.356 . S
N542 H548 0.984 . S
N542 H549 0.984 . S
N543 C536 1.356 . S
N543 H546 0.984 . S
N543 H547 0.985 . S
H544 N539 0.984 . S
H545 N539 0.985 . S
H546 N543 0.984 . S
H547 N543 0.985 . S
H548 N542 0.984 . S
H549 N542 0.984 . S
H550 N538 0.984 . S
H551 N538 0.985 . S
C552 C553 1.363 . S
C552 C558 1.379 . S
C552 N560 1.356 . S
C553 C552 1.363 . S
C553 C559 1.363 . S
C554 C555 1.363 . S
C554 C559 1.379 . S
C554 N561 1.356 . S
C555 C554 1.363 . S
C555 C558 1.363 . S
N556 C558 1.356 . S
N556 H568 0.984 . S
N556 H569 0.985 . S
N557 C559 1.356 . S
N557 H562 0.984 . S
N557 H563 0.985 . S
C558 C552 1.379 . S
C558 C555 1.363 . S
C558 N556 1.356 . S
C559 C553 1.363 . S
C559 C554 1.379 . S
C559 N557 1.356 . S
N560 C552 1.356 . S
N560 H566 0.984 . S
N560 H567 0.984 . S
N561 C554 1.356 . S
N561 H564 0.984 . S
N561 H565 0.985 . S
H562 N557 0.984 . S
H563 N557 0.985 . S
H564 N561 0.984 . S
H565 N561 0.985 . S
H566 N560 0.984 . S
H567 N560 0.984 . S
H568 N556 0.984 . S
H569 N556 0.985 . S
C570 C571 1.366 . S
C570 C576 1.379 . S
C570 N578 1.356 . S
C571 C570 1.366 . S
C571 C577 1.360 1_556 S
C572 C573 1.365 . S
C572 C577 1.379 . S
C572 N579 1.356 . S
C573 C572 1.365 . S
C573 C576 1.361 1_554 S
N574 C576 1.356 . S
N574 H586 0.984 . S
N574 H587 0.985 . S
N575 C577 1.356 . S
N575 H580 0.984 . S
N575 H581 0.985 . S
C576 C570 1.379 . S
C576 C573 1.361 1_556 S
C576 N574 1.356 . S
C577 C571 1.360 1_554 S
C577 C572 1.379 . S
C577 N575 1.356 . S
N578 C570 1.356 . S
N578 H584 0.984 . S
N578 H585 0.984 . S
N579 C572 1.356 . S
N579 H582 0.984 . S
N579 H583 0.985 . S
H580 N575 0.984 . S
H581 N575 0.985 . S
H582 N579 0.984 . S
H583 N579 0.985 . S
H584 N578 0.984 . S
H585 N578 0.984 . S
H586 N574 0.984 . S
H587 N574 0.985 . S
C588 C589 1.363 . S
C588 C594 1.379 . S
C588 N596 1.356 . S
C589 C588 1.363 . S
C589 C595 1.363 . S
C590 C591 1.363 . S
C590 C595 1.379 . S
C590 N597 1.356 . S
C591 C590 1.363 . S
C591 C594 1.363 . S
N592 C594 1.356 . S
N592 H604 0.984 . S
N592 H605 0.985 . S
N593 C595 1.356 . S
N593 H598 0.984 . S
N593 H599 0.985 . S
C594 C588 1.379 . S
C594 C591 1.363 . S
C594 N592 1.356 . S
C595 C589 1.363 . S
C595 C590 1.379 . S
C595 N593 1.356 . S
N596 C588 1.356 . S
N596 H602 0.984 . S
N596 H603 0.984 . S
N597 C590 1.356 . S
N597 H600 0.984 . S
N597 H601 0.985 . S
H598 N593 0.984 . S
H599 N593 0.985 . S
H600 N597 0.984 . S
H601 N597 0.985 . S
H602 N596 0.984 . S
H603 N596 0.984 . S
H604 N592 0.984 . S
H605 N592 0.985 . S
C606 C607 1.361 1_554 S
C606 C612 1.379 . S
C606 N614 1.356 . S
C607 C606 1.361 1_556 S
C607 C613 1.365 . S
C608 C609 1.361 1_556 S
C608 C613 1.379 . S
C608 N615 1.356 . S
C609 C608 1.361 1_554 S
C609 C612 1.365 . S
N610 C612 1.356 . S
N610 H622 0.984 . S
N610 H623 0.985 . S
N611 C613 1.356 . S
N611 H616 0.984 . S
N611 H617 0.985 . S
C612 C606 1.379 . S
C612 C609 1.365 . S
C612 N610 1.356 . S
C613 C607 1.365 . S
C613 C608 1.379 . S
C613 N611 1.356 . S
N614 C606 1.356 . S
N614 H620 0.984 . S
N614 H621 0.984 . S
N615 C608 1.356 . S
N615 H618 0.984 . S
N615 H619 0.985 . S
H616 N611 0.984 . S
H617 N611 0.985 . S
H618 N615 0.984 . S
H619 N615 0.985 . S
H620 N614 0.984 . S
H621 N614 0.984 . S
H622 N610 0.984 . S
H623 N610 0.985 . S
C193 C21 1.506 . S
C195 N128 1.513 . S
C211 C40 1.489 . S
C213 N89 1.479 . S
C231 N106 1.468 . S
C229 C54 1.469 . S
C247 C73 1.505 . S
C249 N119 1.511 . S
C267 N158 1.468 . S
C265 C74 1.469 . S
C285 N171 1.486 . S
C283 C10 1.490 . S
C303 N180 1.513 . S
C301 C37 1.506 . S
C321 N141 1.504 . S
C319 C65 1.505 . S
C337 C52 1.469 . S
C339 N102 1.466 . S
C355 C87 1.503 . S
C357 N115 1.512 . S
C373 C15 1.506 . S
C375 N132 1.515 . S
C393 N93 1.485 . S
C391 C32 1.489 . S
C409 C29 1.505 . S
C411 N184 1.515 . S
C429 N145 1.509 . S
C427 C59 1.504 . S
C447 N154 1.466 . S
C445 C84 1.469 . S
C463 C8 1.488 . S
C465 N167 1.487 . S
C483 N90 1.511 1_554 S
C481 C7 1.505 . S
C501 N103 1.484 . S
C499 C30 1.483 . S
C517 C62 1.505 . S
C519 N116 1.504 . S
C535 C81 1.502 . S
C537 N129 1.512 . S
C555 N142 1.499 . S
C553 C76 1.505 . S
C571 C18 1.483 . S
C573 N155 1.484 1_554 S
C589 C43 1.505 . S
C591 N168 1.514 . S
C607 C51 1.502 . S
C609 N181 1.512 . S
