# Generated by pormake.
# Topology eea, (3,6)-cn, num edge types: 1
# Building blocks:
#     Node 0, Type 0, BuildingBlock: VETTIZ_charged_linker_0, # of connection points: 3
#     Node 1, Type 0, BuildingBlock: VETTIZ_charged_linker_0, # of connection points: 3
#     Node 2, Type 0, BuildingBlock: VETTIZ_charged_linker_0, # of connection points: 3
#     Node 3, Type 0, BuildingBlock: VETTIZ_charged_linker_0, # of connection points: 3
#     Node 4, Type 0, BuildingBlock: VETTIZ_charged_linker_0, # of connection points: 3
#     Node 5, Type 0, BuildingBlock: VETTIZ_charged_linker_0, # of connection points: 3
#     Node 6, Type 0, BuildingBlock: VETTIZ_charged_linker_0, # of connection points: 3
#     Node 7, Type 0, BuildingBlock: VETTIZ_charged_linker_0, # of connection points: 3
#     Node 8, Type 0, BuildingBlock: VETTIZ_charged_linker_0, # of connection points: 3
#     Node 9, Type 0, BuildingBlock: VETTIZ_charged_linker_0, # of connection points: 3
#     Node 10, Type 0, BuildingBlock: VETTIZ_charged_linker_0, # of connection points: 3
#     Node 11, Type 0, BuildingBlock: VETTIZ_charged_linker_0, # of connection points: 3
#     Node 12, Type 0, BuildingBlock: VETTIZ_charged_linker_0, # of connection points: 3
#     Node 13, Type 0, BuildingBlock: VETTIZ_charged_linker_0, # of connection points: 3
#     Node 14, Type 0, BuildingBlock: VETTIZ_charged_linker_0, # of connection points: 3
#     Node 15, Type 0, BuildingBlock: VETTIZ_charged_linker_0, # of connection points: 3
#     Node 16, Type 0, BuildingBlock: VETTIZ_charged_linker_0, # of connection points: 3
#     Node 17, Type 0, BuildingBlock: VETTIZ_charged_linker_0, # of connection points: 3
#     Node 18, Type 1, BuildingBlock: NUHQIS_clean_sbu_0, # of connection points: 6
#     Node 19, Type 1, BuildingBlock: NUHQIS_clean_sbu_0, # of connection points: 6
#     Node 20, Type 1, BuildingBlock: NUHQIS_clean_sbu_0, # of connection points: 6
#     Node 21, Type 1, BuildingBlock: NUHQIS_clean_sbu_0, # of connection points: 6
#     Node 22, Type 1, BuildingBlock: NUHQIS_clean_sbu_0, # of connection points: 6
#     Node 23, Type 1, BuildingBlock: NUHQIS_clean_sbu_0, # of connection points: 6
#     Node 24, Type 1, BuildingBlock: NUHQIS_clean_sbu_0, # of connection points: 6
#     Node 25, Type 1, BuildingBlock: NUHQIS_clean_sbu_0, # of connection points: 6
#     Node 26, Type 1, BuildingBlock: NUHQIS_clean_sbu_0, # of connection points: 6
#     Edge 27, Type (0, 1), BuildingBlock: OJICUG_clean_linker_0, # of connection points: 2
#     Edge 28, Type (0, 1), BuildingBlock: OJICUG_clean_linker_0, # of connection points: 2
#     Edge 29, Type (0, 1), BuildingBlock: OJICUG_clean_linker_0, # of connection points: 2
#     Edge 30, Type (0, 1), BuildingBlock: OJICUG_clean_linker_0, # of connection points: 2
#     Edge 31, Type (0, 1), BuildingBlock: OJICUG_clean_linker_0, # of connection points: 2
#     Edge 32, Type (0, 1), BuildingBlock: OJICUG_clean_linker_0, # of connection points: 2
#     Edge 33, Type (0, 1), BuildingBlock: OJICUG_clean_linker_0, # of connection points: 2
#     Edge 34, Type (0, 1), BuildingBlock: OJICUG_clean_linker_0, # of connection points: 2
#     Edge 35, Type (0, 1), BuildingBlock: OJICUG_clean_linker_0, # of connection points: 2
#     Edge 36, Type (0, 1), BuildingBlock: OJICUG_clean_linker_0, # of connection points: 2
#     Edge 37, Type (0, 1), BuildingBlock: OJICUG_clean_linker_0, # of connection points: 2
#     Edge 38, Type (0, 1), BuildingBlock: OJICUG_clean_linker_0, # of connection points: 2
#     Edge 39, Type (0, 1), BuildingBlock: OJICUG_clean_linker_0, # of connection points: 2
#     Edge 40, Type (0, 1), BuildingBlock: OJICUG_clean_linker_0, # of connection points: 2
#     Edge 41, Type (0, 1), BuildingBlock: OJICUG_clean_linker_0, # of connection points: 2
#     Edge 42, Type (0, 1), BuildingBlock: OJICUG_clean_linker_0, # of connection points: 2
#     Edge 43, Type (0, 1), BuildingBlock: OJICUG_clean_linker_0, # of connection points: 2
#     Edge 44, Type (0, 1), BuildingBlock: OJICUG_clean_linker_0, # of connection points: 2
#     Edge 45, Type (0, 1), BuildingBlock: OJICUG_clean_linker_0, # of connection points: 2
#     Edge 46, Type (0, 1), BuildingBlock: OJICUG_clean_linker_0, # of connection points: 2
#     Edge 47, Type (0, 1), BuildingBlock: OJICUG_clean_linker_0, # of connection points: 2
#     Edge 48, Type (0, 1), BuildingBlock: OJICUG_clean_linker_0, # of connection points: 2
#     Edge 49, Type (0, 1), BuildingBlock: OJICUG_clean_linker_0, # of connection points: 2
#     Edge 50, Type (0, 1), BuildingBlock: OJICUG_clean_linker_0, # of connection points: 2
#     Edge 51, Type (0, 1), BuildingBlock: OJICUG_clean_linker_0, # of connection points: 2
#     Edge 52, Type (0, 1), BuildingBlock: OJICUG_clean_linker_0, # of connection points: 2
#     Edge 53, Type (0, 1), BuildingBlock: OJICUG_clean_linker_0, # of connection points: 2
#     Edge 54, Type (0, 1), BuildingBlock: OJICUG_clean_linker_0, # of connection points: 2
#     Edge 55, Type (0, 1), BuildingBlock: OJICUG_clean_linker_0, # of connection points: 2
#     Edge 56, Type (0, 1), BuildingBlock: OJICUG_clean_linker_0, # of connection points: 2
#     Edge 57, Type (0, 1), BuildingBlock: OJICUG_clean_linker_0, # of connection points: 2
#     Edge 58, Type (0, 1), BuildingBlock: OJICUG_clean_linker_0, # of connection points: 2
#     Edge 59, Type (0, 1), BuildingBlock: OJICUG_clean_linker_0, # of connection points: 2
#     Edge 60, Type (0, 1), BuildingBlock: OJICUG_clean_linker_0, # of connection points: 2
#     Edge 61, Type (0, 1), BuildingBlock: OJICUG_clean_linker_0, # of connection points: 2
#     Edge 62, Type (0, 1), BuildingBlock: OJICUG_clean_linker_0, # of connection points: 2
#     Edge 63, Type (0, 1), BuildingBlock: OJICUG_clean_linker_0, # of connection points: 2
#     Edge 64, Type (0, 1), BuildingBlock: OJICUG_clean_linker_0, # of connection points: 2
#     Edge 65, Type (0, 1), BuildingBlock: OJICUG_clean_linker_0, # of connection points: 2
#     Edge 66, Type (0, 1), BuildingBlock: OJICUG_clean_linker_0, # of connection points: 2
#     Edge 67, Type (0, 1), BuildingBlock: OJICUG_clean_linker_0, # of connection points: 2
#     Edge 68, Type (0, 1), BuildingBlock: OJICUG_clean_linker_0, # of connection points: 2
#     Edge 69, Type (0, 1), BuildingBlock: OJICUG_clean_linker_0, # of connection points: 2
#     Edge 70, Type (0, 1), BuildingBlock: OJICUG_clean_linker_0, # of connection points: 2
#     Edge 71, Type (0, 1), BuildingBlock: OJICUG_clean_linker_0, # of connection points: 2
#     Edge 72, Type (0, 1), BuildingBlock: OJICUG_clean_linker_0, # of connection points: 2
#     Edge 73, Type (0, 1), BuildingBlock: OJICUG_clean_linker_0, # of connection points: 2
#     Edge 74, Type (0, 1), BuildingBlock: OJICUG_clean_linker_0, # of connection points: 2
#     Edge 75, Type (0, 1), BuildingBlock: OJICUG_clean_linker_0, # of connection points: 2
#     Edge 76, Type (0, 1), BuildingBlock: OJICUG_clean_linker_0, # of connection points: 2
#     Edge 77, Type (0, 1), BuildingBlock: OJICUG_clean_linker_0, # of connection points: 2
#     Edge 78, Type (0, 1), BuildingBlock: OJICUG_clean_linker_0, # of connection points: 2
#     Edge 79, Type (0, 1), BuildingBlock: OJICUG_clean_linker_0, # of connection points: 2
#     Edge 80, Type (0, 1), BuildingBlock: OJICUG_clean_linker_0, # of connection points: 2
# Relax obj value: 0.035
# Max RMSD: 0.132
# Mean RMSD: 0.088
data_MOF--net-eea--node1-NUHQIS_clean_sbu_0--node2-VETTIZ_charged_linker_0--edge1-OJICUG_clean_linker_0
_symmetry_space_group_name_H-M    P1
_symmetry_Int_Tables_number       1
_symmetry_cell_setting            triclinic
loop_
_symmetry_equiv_pos_as_xyz
'x, y, z'
_cell_length_a     48.06388
_cell_length_b     47.68928
_cell_length_c     73.003507
_cell_angle_alpha  93.305173
_cell_angle_beta   93.513717
_cell_angle_gamma 119.69874
loop_
_atom_site_label
_atom_site_type_symbol
_atom_site_fract_x
_atom_site_fract_y
_atom_site_fract_z
_atom_type_partial_charge
C0 C 0.2498 0.20643 0.38563 0.0
C1 C 0.25205 0.23471 0.39416 0.0
C2 C 0.26873 0.24707 0.41195 0.0
C3 C 0.27846 0.20192 0.41282 0.0
C4 C 0.2631 0.19055 0.39515 0.0
C5 C 0.26104 0.15924 0.38833 0.0
H6 H 0.27731 0.03118 0.40668 0.0
C7 C 0.28767 0.17852 0.41921 0.0
C8 C 0.27777 0.15366 0.40481 0.0
H9 H 0.23358 0.04476 0.35693 0.0
H10 H 0.25062 0.09957 0.36889 0.0
H11 H 0.34074 0.10119 0.41183 0.0
H12 H 0.24934 0.0619 0.43374 0.0
H13 H 0.27902 0.08494 0.45207 0.0
H14 H 0.27905 0.05091 0.44018 0.0
H15 H 0.33215 0.07778 0.4312 0.0
H16 H 0.34906 0.1213 0.43409 0.0
C17 C 0.28016 0.1651 0.37126 0.0
C18 C 0.22487 0.13291 0.38465 0.0
C19 C 0.33196 0.18891 0.48598 0.0
C20 C 0.33975 0.16875 0.49578 0.0
C21 C 0.33996 0.14245 0.48612 0.0
C22 C 0.33084 0.13517 0.46716 0.0
C23 C 0.32091 0.15406 0.45776 0.0
C24 C 0.32255 0.18106 0.46696 0.0
C25 C 0.31143 0.1984 0.45442 0.0
C26 C 0.30198 0.17667 0.43639 0.0
C27 C 0.30721 0.15055 0.43861 0.0
C28 C 0.34031 0.23266 0.45299 0.0
C29 C 0.28209 0.19834 0.46212 0.0
C30 C 0.2715 0.04603 0.39835 0.0
C31 C 0.25375 0.03352 0.38096 0.0
C32 C 0.24733 0.05385 0.37036 0.0
C33 C 0.25699 0.0856 0.37741 0.0
C34 C 0.27291 0.09704 0.39532 0.0
C35 C 0.28063 0.07765 0.40527 0.0
C36 C 0.29685 0.09346 0.42422 0.0
C37 C 0.29696 0.12533 0.42413 0.0
C38 C 0.2827 0.12713 0.40724 0.0
C39 C 0.33143 0.0986 0.42558 0.0
C40 C 0.27528 0.07181 0.43842 0.0
H41 H 0.29409 0.24123 0.43487 0.0
H42 H 0.23682 0.19604 0.37209 0.0
H43 H 0.21027 0.13756 0.39434 0.0
H44 H 0.22018 0.10833 0.38695 0.0
H45 H 0.21498 0.13245 0.37041 0.0
H46 H 0.30175 0.18983 0.37282 0.0
H47 H 0.26513 0.16295 0.35849 0.0
H48 H 0.28976 0.14845 0.36931 0.0
H49 H 0.33179 0.2094 0.49309 0.0
H50 H 0.34662 0.12709 0.49335 0.0
H51 H 0.3309 0.11446 0.46069 0.0
H52 H 0.36335 0.23234 0.45373 0.0
H53 H 0.34239 0.25023 0.46441 0.0
H54 H 0.33891 0.24198 0.43966 0.0
H55 H 0.26568 0.17435 0.4669 0.0
H56 H 0.26709 0.20233 0.45175 0.0
H57 H 0.28988 0.21705 0.47404 0.0
H58 H 0.27127 0.26916 0.4187 0.0
C59 C 0.28205 0.23089 0.42129 0.0
C60 C 0.97703 0.19169 0.39234 0.0
C61 C 0.00374 0.22155 0.39943 0.0
C62 C 0.004 0.23469 0.41737 0.0
C63 C 0.95133 0.18867 0.42049 0.0
C64 C 0.95137 0.17588 0.40298 0.0
C65 C 0.92132 0.1442 0.39707 0.0
H66 H 0.77753 0.02353 0.41546 0.0
C67 C 0.92051 0.16601 0.42763 0.0
C68 C 0.90302 0.14 0.4138 0.0
H69 H 0.82671 0.03042 0.36678 0.0
H70 H 0.86986 0.08319 0.3791 0.0
H71 H 0.83689 0.04707 0.44332 0.0
H72 H 0.79307 0.09763 0.41946 0.0
H73 H 0.80533 0.11415 0.44257 0.0
H74 H 0.7765 0.07146 0.4373 0.0
H75 H 0.80172 0.04544 0.45144 0.0
H76 H 0.84179 0.07618 0.46091 0.0
C77 C 0.93091 0.11773 0.39409 0.0
C78 C 0.90389 0.14853 0.37979 0.0
C79 C 0.89385 0.18631 0.49242 0.0
C80 C 0.86714 0.16748 0.50208 0.0
C81 C 0.84107 0.13872 0.49306 0.0
C82 C 0.84159 0.12824 0.47494 0.0
C83 C 0.86863 0.14645 0.46559 0.0
C84 C 0.89416 0.17514 0.47415 0.0
C85 C 0.92085 0.19065 0.46172 0.0
C86 C 0.90707 0.16626 0.44453 0.0
C87 C 0.87645 0.14054 0.44707 0.0
C88 C 0.95155 0.1927 0.4712 0.0
C89 C 0.92491 0.22389 0.45777 0.0
C90 C 0.79765 0.03637 0.40747 0.0
C91 C 0.7987 0.02272 0.39014 0.0
C92 C 0.8251 0.04052 0.38009 0.0
C93 C 0.85033 0.07109 0.38735 0.0
C94 C 0.84931 0.08406 0.40491 0.0
C95 C 0.82314 0.06685 0.41457 0.0
C96 C 0.8264 0.08407 0.43313 0.0
C97 C 0.85907 0.11436 0.43311 0.0
C98 C 0.87226 0.11419 0.41657 0.0
C99 C 0.8265 0.06219 0.44807 0.0
C100 C 0.79887 0.09216 0.43333 0.0
H101 H 0.97958 0.22968 0.44139 0.0
H102 H 0.97567 0.18106 0.37856 0.0
H103 H 0.90684 0.17325 0.38068 0.0
H104 H 0.87758 0.13187 0.37831 0.0
H105 H 0.91379 0.14525 0.367 0.0
H106 H 0.95257 0.12339 0.40347 0.0
H107 H 0.93661 0.11573 0.37972 0.0
H108 H 0.91221 0.09361 0.39735 0.0
H109 H 0.91421 0.20854 0.49909 0.0
H110 H 0.82017 0.12414 0.50016 0.0
H111 H 0.82095 0.106 0.46903 0.0
H112 H 0.94551 0.16994 0.47752 0.0
H113 H 0.96335 0.21313 0.48232 0.0
H114 H 0.96923 0.19552 0.46148 0.0
H115 H 0.901 0.22202 0.45499 0.0
H116 H 0.93744 0.23299 0.44543 0.0
H117 H 0.93822 0.2423 0.46978 0.0
H118 H 0.02443 0.25754 0.42331 0.0
C119 C 0.97799 0.21844 0.42791 0.0
C120 C 0.98021 0.79881 0.39902 0.0
C121 C 0.00599 0.79461 0.4054 0.0
C122 C 0.00491 0.78237 0.42276 0.0
C123 C 0.95287 0.77798 0.42638 0.0
C124 C 0.95436 0.79062 0.40964 0.0
C125 C 0.92576 0.79437 0.40457 0.0
H126 H 0.7784 0.7685 0.41982 0.0
C127 C 0.92192 0.77122 0.43355 0.0
C128 C 0.9062 0.78098 0.42067 0.0
H129 H 0.83734 0.81916 0.37705 0.0
H130 H 0.87925 0.81053 0.38951 0.0
H131 H 0.79704 0.71227 0.42118 0.0
H132 H 0.83563 0.80569 0.45187 0.0
H133 H 0.83763 0.77999 0.46747 0.0
H134 H 0.79891 0.77117 0.45674 0.0
H135 H 0.77609 0.72083 0.43818 0.0
H136 H 0.80435 0.70762 0.44438 0.0
C137 C 0.90824 0.77307 0.38615 0.0
C138 C 0.93777 0.8311 0.40393 0.0
C139 C 0.88758 0.71936 0.49413 0.0
C140 C 0.85914 0.70902 0.50297 0.0
C141 C 0.83441 0.71326 0.4946 0.0
C142 C 0.83758 0.72718 0.47794 0.0
C143 C 0.86581 0.73719 0.46924 0.0
C144 C 0.89028 0.73314 0.47721 0.0
C145 C 0.91818 0.74476 0.46548 0.0
C146 C 0.90658 0.75696 0.44946 0.0
C147 C 0.87578 0.75238 0.45188 0.0
C148 C 0.92172 0.71535 0.45904 0.0
C149 C 0.94853 0.77253 0.4769 0.0
C150 C 0.80038 0.77801 0.41317 0.0
C151 C 0.80377 0.79388 0.397 0.0
C152 C 0.83313 0.80579 0.38903 0.0
C153 C 0.8579 0.80116 0.39648 0.0
C154 C 0.85392 0.78487 0.41237 0.0
C155 C 0.82581 0.77413 0.42066 0.0
C156 C 0.82686 0.75908 0.43812 0.0
C157 C 0.86007 0.76224 0.43871 0.0
C158 C 0.87548 0.77691 0.42342 0.0
C159 C 0.7996 0.7231 0.43553 0.0
C160 C 0.82441 0.77972 0.45448 0.0
H161 H 0.9793 0.76486 0.4462 0.0
H162 H 0.97964 0.80775 0.3858 0.0
H163 H 0.96104 0.8465 0.41263 0.0
H164 H 0.92114 0.8383 0.40962 0.0
H165 H 0.94153 0.83809 0.38966 0.0
H166 H 0.90738 0.74931 0.38607 0.0
H167 H 0.9209 0.78513 0.37424 0.0
H168 H 0.88289 0.76697 0.38378 0.0
H169 H 0.90699 0.71631 0.50007 0.0
H170 H 0.81254 0.70614 0.50112 0.0
H171 H 0.81776 0.72962 0.47247 0.0
H172 H 0.8977 0.69374 0.45456 0.0
H173 H 0.93338 0.70899 0.4704 0.0
H174 H 0.93562 0.71943 0.44704 0.0
H175 H 0.94255 0.78942 0.48452 0.0
H176 H 0.96745 0.78757 0.46825 0.0
H177 H 0.95871 0.76285 0.48717 0.0
H178 H 0.02455 0.77943 0.42841 0.0
C179 C 0.97859 0.77401 0.4332 0.0
C180 C 0.18019 0.21071 0.62504 0.0
C181 C 0.21032 0.21826 0.61918 0.0
C182 C 0.21954 0.23487 0.60321 0.0
C183 C 0.16912 0.2352 0.59933 0.0
C184 C 0.16045 0.21978 0.61517 0.0
C185 C 0.1288 0.21518 0.62038 0.0
H186 H 0.99605 0.22767 0.60241 0.0
C187 C 0.14279 0.2408 0.59229 0.0
C188 C 0.1193 0.22939 0.60471 0.0
H189 H 0.02502 0.19523 0.65044 0.0
H190 H 0.07275 0.2044 0.63745 0.0
H191 H 0.06909 0.29077 0.59998 0.0
H192 H 0.02124 0.19403 0.57134 0.0
H193 H 0.03986 0.22305 0.55566 0.0
H194 H 0.00763 0.22233 0.56738 0.0
H195 H 0.03418 0.27636 0.58364 0.0
H196 H 0.07389 0.29275 0.57625 0.0
C197 C 0.1351 0.2352 0.63928 0.0
C198 C 0.10522 0.17827 0.62022 0.0
C199 C 0.14901 0.28914 0.5313 0.0
C200 C 0.12833 0.29626 0.52059 0.0
C201 C 0.09881 0.2895 0.52724 0.0
C202 C 0.09025 0.27615 0.54414 0.0
C203 C 0.11131 0.26929 0.55465 0.0
C204 C 0.14011 0.27579 0.54809 0.0
C205 C 0.15959 0.26681 0.56084 0.0
C206 C 0.13785 0.25377 0.57613 0.0
C207 C 0.10946 0.25528 0.57258 0.0
C208 C 0.19174 0.29808 0.56782 0.0
C209 C 0.16361 0.24012 0.5503 0.0
C210 C 0.01277 0.22275 0.61021 0.0
C211 C 0.00591 0.20995 0.62748 0.0
C212 C 0.02865 0.20398 0.63694 0.0
C213 C 0.05689 0.20981 0.62945 0.0
C214 C 0.06327 0.2223 0.6123 0.0
C215 C 0.04164 0.22889 0.60296 0.0
C216 C 0.0535 0.24313 0.58509 0.0
C217 C 0.08578 0.24408 0.58544 0.0
C218 C 0.09098 0.23148 0.60142 0.0
C219 C 0.05779 0.27753 0.58611 0.0
C220 C 0.02931 0.21965 0.56892 0.0
H221 H 0.20761 0.2556 0.58125 0.0
H222 H 0.17176 0.19782 0.63705 0.0
H223 H 0.10788 0.16462 0.60822 0.0
H224 H 0.07967 0.17176 0.61874 0.0
H225 H 0.11001 0.16899 0.63294 0.0
H226 H 0.1605 0.25536 0.64197 0.0
H227 H 0.13028 0.21979 0.65085 0.0
H228 H 0.12066 0.24743 0.63991 0.0
H229 H 0.17161 0.2934 0.52663 0.0
H230 H 0.08243 0.29494 0.51949 0.0
H231 H 0.06757 0.27173 0.5484 0.0
H232 H 0.18847 0.31962 0.56898 0.0
H233 H 0.21036 0.30288 0.55825 0.0
H234 H 0.20119 0.2973 0.58185 0.0
H235 H 0.14078 0.22227 0.54187 0.0
H236 H 0.16928 0.22569 0.5595 0.0
H237 H 0.18267 0.25075 0.54081 0.0
H238 H 0.24281 0.24202 0.59846 0.0
C239 C 0.19912 0.24313 0.59325 0.0
C240 C 0.76121 0.80844 0.63835 0.0
C241 C 0.76012 0.78103 0.62936 0.0
C242 C 0.74529 0.77019 0.61108 0.0
C243 C 0.73361 0.81408 0.61105 0.0
C244 C 0.74796 0.82452 0.62898 0.0
C245 C 0.74842 0.85478 0.63637 0.0
H246 H 0.7253 0.97965 0.62027 0.0
C247 C 0.723 0.83671 0.60519 0.0
C248 C 0.73156 0.86054 0.62001 0.0
H249 H 0.7728 0.96756 0.66891 0.0
H250 H 0.75709 0.91325 0.65651 0.0
H251 H 0.7543 0.95282 0.59243 0.0
H252 H 0.66324 0.90662 0.61492 0.0
H253 H 0.65569 0.88877 0.59212 0.0
H254 H 0.67034 0.93178 0.59643 0.0
H255 H 0.72252 0.96116 0.58646 0.0
H256 H 0.72495 0.92883 0.57414 0.0
C257 C 0.78414 0.8821 0.6407 0.0
C258 C 0.72853 0.84697 0.65317 0.0
C259 C 0.67454 0.8249 0.53929 0.0
C260 C 0.66445 0.84382 0.52992 0.0
C261 C 0.66365 0.86953 0.53991 0.0
C262 C 0.6741 0.87729 0.55874 0.0
C263 C 0.68588 0.85943 0.5677 0.0
C264 C 0.68517 0.83317 0.55815 0.0
C265 C 0.6984 0.81693 0.57014 0.0
C266 C 0.70773 0.83825 0.58829 0.0
C267 C 0.70064 0.86327 0.58664 0.0
C268 C 0.72812 0.81898 0.56175 0.0
C269 C 0.67095 0.78193 0.5717 0.0
C270 C 0.7321 0.96518 0.6283 0.0
C271 C 0.75071 0.97805 0.64544 0.0
C272 C 0.75844 0.95821 0.65567 0.0
C273 C 0.74962 0.9268 0.64834 0.0
C274 C 0.73323 0.91527 0.63053 0.0
C275 C 0.72395 0.93402 0.62105 0.0
C276 C 0.70779 0.91844 0.60205 0.0
C277 C 0.7098 0.88765 0.60149 0.0
C278 C 0.72481 0.88604 0.61816 0.0
C279 C 0.72811 0.94137 0.58791 0.0
C280 C 0.67248 0.91114 0.60115 0.0
H281 H 0.72119 0.77716 0.58802 0.0
H282 H 0.77205 0.81723 0.65244 0.0
H283 H 0.7068 0.82237 0.65066 0.0
H284 H 0.7192 0.86364 0.65592 0.0
H285 H 0.74294 0.84746 0.6658 0.0
H286 H 0.80005 0.87809 0.63177 0.0
H287 H 0.79318 0.88329 0.65526 0.0
H288 H 0.78806 0.90624 0.63788 0.0
H289 H 0.67539 0.80498 0.53196 0.0
H290 H 0.65533 0.88398 0.53305 0.0
H291 H 0.6734 0.89748 0.56547 0.0
H292 H 0.74227 0.84262 0.55602 0.0
H293 H 0.72073 0.79941 0.55036 0.0
H294 H 0.7453 0.81786 0.57199 0.0
H295 H 0.64746 0.78112 0.57217 0.0
H296 H 0.67423 0.77226 0.58453 0.0
H297 H 0.66848 0.76521 0.55968 0.0
H298 H 0.74446 0.74937 0.60372 0.0
C299 C 0.73193 0.78647 0.60193 0.0
C300 C 0.03211 0.80548 0.63296 0.0
C301 C 1.003 0.77844 0.62513 0.0
C302 C 1.00054 0.76783 0.60625 0.0
C303 C 0.05501 0.81104 0.60366 0.0
C304 C 0.05722 0.82159 0.62201 0.0
C305 C 0.08799 0.85257 0.62807 0.0
H306 H 0.22704 0.97748 0.60707 0.0
C307 C 0.08526 0.83402 0.59617 0.0
C308 C 0.10434 0.85857 0.61047 0.0
H309 H 0.18328 0.96602 0.65821 0.0
H310 H 0.14083 0.91272 0.64618 0.0
H311 H 0.21534 0.90585 0.60109 0.0
H312 H 0.16353 0.95153 0.5812 0.0
H313 H 0.16188 0.92583 0.56249 0.0
H314 H 0.20045 0.95812 0.5729 0.0
H315 H 0.22671 0.92959 0.58188 0.0
H316 H 0.19838 0.88648 0.57884 0.0
C317 C 0.10683 0.84597 0.64358 0.0
C318 C 0.0795 0.87915 0.63374 0.0
C319 C 0.10686 0.81687 0.52964 0.0
C320 C 0.13312 0.83575 0.51973 0.0
C321 C 0.15982 0.86404 0.52868 0.0
C322 C 0.16045 0.87394 0.5471 0.0
C323 C 0.13392 0.85562 0.55678 0.0
C324 C 0.10772 0.82743 0.54822 0.0
C325 C 0.08166 0.81182 0.56099 0.0
C326 C 0.09702 0.83503 0.57858 0.0
C327 C 0.1275 0.86068 0.57578 0.0
C328 C 0.07632 0.77769 0.5637 0.0
C329 C 0.05124 0.81175 0.55264 0.0
C330 C 0.20823 0.96355 0.61565 0.0
C331 C 0.20846 0.97613 0.63356 0.0
C332 C 0.18387 0.95686 0.6444 0.0
C333 C 0.15898 0.92598 0.63731 0.0
C334 C 0.1584 0.91429 0.61911 0.0
C335 C 0.18302 0.93279 0.60872 0.0
C336 C 0.17828 0.91664 0.58963 0.0
C337 C 0.14615 0.88587 0.59007 0.0
C338 C 0.13472 0.88465 0.60734 0.0
C339 C 0.20611 0.90937 0.58757 0.0
C340 C 0.17611 0.93907 0.5757 0.0
H341 H 0.02298 0.77451 0.58137 0.0
H342 H 0.03552 0.81443 0.64735 0.0
H343 H 0.05573 0.87351 0.62688 0.0
H344 H 0.09661 0.90313 0.62945 0.0
H345 H 0.07838 0.88156 0.64887 0.0
H346 H 0.10514 0.82204 0.64037 0.0
H347 H 0.09697 0.84558 0.65699 0.0
H348 H 0.13286 0.86385 0.64526 0.0
H349 H 0.08601 0.79503 0.52299 0.0
H350 H 0.18035 0.87866 0.52131 0.0
H351 H 0.18152 0.89584 0.55296 0.0
H352 H 0.09982 0.7787 0.5666 0.0
H353 H 0.06346 0.76069 0.55109 0.0
H354 H 0.06263 0.76727 0.57549 0.0
H355 H 0.05791 0.83416 0.54578 0.0
H356 H 0.0357 0.8117 0.56317 0.0
H357 H 0.03688 0.79063 0.54216 0.0
H358 H 0.97839 0.74762 0.59948 0.0
C359 C 0.02641 0.78373 0.59558 0.0
C360 C 0.91658 0.54729 0.72189 0.0
C361 C 0.91983 0.57598 0.73051 0.0
C362 C 0.9371 0.58815 0.74817 0.0
C363 C 0.94639 0.54264 0.74848 0.0
C364 C 0.93003 0.5312 0.73103 0.0
C365 C 0.9277 0.49992 0.72387 0.0
H366 H 0.9579 0.37865 0.73736 0.0
C367 C 0.95666 0.51964 0.75421 0.0
C368 C 0.94615 0.49488 0.73968 0.0
H369 H 0.89733 0.38448 0.69299 0.0
H370 H 0.91328 0.43861 0.70501 0.0
H371 H 0.01747 0.4568 0.74185 0.0
H372 H 0.93059 0.39782 0.76608 0.0
H373 H 0.95475 0.42857 0.78362 0.0
H374 H 0.96808 0.40159 0.77477 0.0
H375 H 0.01208 0.42628 0.75681 0.0
H376 H 0.02574 0.46755 0.76587 0.0
C377 C 0.94501 0.5056 0.7061 0.0
C378 C 0.89155 0.4732 0.7212 0.0
C379 C 0.00488 0.5293 0.81989 0.0
C380 C 0.01426 0.50953 0.82893 0.0
C381 C 0.01614 0.4849 0.81843 0.0
C382 C 0.00686 0.47861 0.79947 0.0
C383 C 0.99525 0.49688 0.79087 0.0
C384 C 0.99545 0.52251 0.80084 0.0
C385 C 0.98271 0.53947 0.78905 0.0
C386 C 0.97305 0.51842 0.77076 0.0
C387 C 0.9803 0.49344 0.77205 0.0
C388 C 0.01055 0.57435 0.78768 0.0
C389 C 0.95327 0.53793 0.7975 0.0
C390 C 0.94794 0.3914 0.73015 0.0
C391 C 0.92608 0.37671 0.71416 0.0
C392 C 0.91453 0.39493 0.70515 0.0
C393 C 0.92341 0.42639 0.71234 0.0
C394 C 0.9434 0.43968 0.729 0.0
C395 C 0.9555 0.42233 0.73754 0.0
C396 C 0.97353 0.43868 0.7561 0.0
C397 C 0.97004 0.46867 0.75729 0.0
C398 C 0.95284 0.4693 0.74127 0.0
C399 C 0.00909 0.44771 0.7553 0.0
C400 C 0.95618 0.41564 0.77098 0.0
H401 H 0.96314 0.58196 0.77063 0.0
H402 H 0.90302 0.53695 0.70849 0.0
H403 H 0.87686 0.47948 0.72994 0.0
H404 H 0.88747 0.44968 0.7255 0.0
H405 H 0.88124 0.46955 0.70665 0.0
H406 H 0.96789 0.5293 0.70783 0.0
H407 H 0.92971 0.50595 0.69417 0.0
H408 H 0.95197 0.48725 0.70256 0.0
H409 H 0.00344 0.54856 0.82759 0.0
H410 H 0.02414 0.46996 0.82501 0.0
H411 H 0.00808 0.45901 0.79236 0.0
H412 H 0.03419 0.57528 0.78834 0.0
H413 H 0.0119 0.59146 0.79915 0.0
H414 H 0.00851 0.58348 0.77437 0.0
H415 H 0.93726 0.51322 0.80156 0.0
H416 H 0.93805 0.5428 0.78781 0.0
H417 H 0.96101 0.55544 0.81003 0.0
H418 H 0.9403 0.61046 0.75503 0.0
C419 C 0.95048 0.57169 0.75717 0.0
C420 C 0.65017 0.52977 0.72892 0.0
C421 C 0.67545 0.56071 0.73574 0.0
C422 C 0.67419 0.57422 0.75323 0.0
C423 C 0.62231 0.52688 0.75614 0.0
C424 C 0.62409 0.51352 0.73921 0.0
C425 C 0.59512 0.48097 0.73334 0.0
H426 H 0.44606 0.36419 0.74651 0.0
C427 C 0.59092 0.5041 0.76267 0.0
C428 C 0.57503 0.47733 0.74917 0.0
H429 H 0.50557 0.36419 0.70425 0.0
H430 H 0.54768 0.41688 0.71689 0.0
H431 H 0.4994 0.38538 0.77798 0.0
H432 H 0.46603 0.43973 0.74825 0.0
H433 H 0.47339 0.45546 0.7715 0.0
H434 H 0.44406 0.41327 0.76499 0.0
H435 H 0.46475 0.3876 0.78366 0.0
H436 H 0.50475 0.4166 0.79419 0.0
C437 C 0.60613 0.45536 0.73233 0.0
C438 C 0.57878 0.48319 0.71492 0.0
C439 C 0.5567 0.52699 0.8245 0.0
C440 C 0.52772 0.50993 0.83272 0.0
C441 C 0.50202 0.48158 0.82302 0.0
C442 C 0.5049 0.47008 0.80567 0.0
C443 C 0.53386 0.48691 0.7977 0.0
C444 C 0.5591 0.51516 0.80684 0.0
C445 C 0.58739 0.53015 0.79544 0.0
C446 C 0.57533 0.50526 0.77852 0.0
C447 C 0.54392 0.48007 0.78013 0.0
C448 C 0.61705 0.53245 0.80645 0.0
C449 C 0.59218 0.56325 0.79052 0.0
C450 C 0.46817 0.37531 0.73998 0.0
C451 C 0.472 0.3598 0.72413 0.0
C452 C 0.50132 0.37566 0.71614 0.0
C453 C 0.52612 0.40624 0.72368 0.0
C454 C 0.52197 0.42116 0.73959 0.0
C455 C 0.49353 0.40554 0.74758 0.0
C456 C 0.49436 0.42393 0.76521 0.0
C457 C 0.52799 0.45331 0.76638 0.0
C458 C 0.54372 0.45175 0.75119 0.0
C459 C 0.49042 0.40241 0.78115 0.0
C460 C 0.46801 0.43352 0.76255 0.0
H461 H 0.64823 0.569 0.77662 0.0
H462 H 0.65005 0.51872 0.71552 0.0
H463 H 0.57874 0.50653 0.71523 0.0
H464 H 0.55325 0.46415 0.71206 0.0
H465 H 0.59176 0.48195 0.7031 0.0
H466 H 0.62891 0.46362 0.74131 0.0
H467 H 0.61041 0.45031 0.71804 0.0
H468 H 0.58865 0.43227 0.73744 0.0
H469 H 0.57677 0.54903 0.83156 0.0
H470 H 0.47967 0.46774 0.82908 0.0
H471 H 0.48441 0.44824 0.79922 0.0
H472 H 0.61033 0.50943 0.81264 0.0
H473 H 0.62704 0.55241 0.81783 0.0
H474 H 0.63637 0.53629 0.79775 0.0
H475 H 0.56854 0.56173 0.78715 0.0
H476 H 0.60506 0.57133 0.77817 0.0
H477 H 0.60537 0.58229 0.80226 0.0
H478 H 0.69359 0.59785 0.75901 0.0
C479 C 0.64783 0.55747 0.76346 0.0
C480 C 0.64986 0.13199 0.73315 0.0
C481 C 0.67523 0.12718 0.73947 0.0
C482 C 0.67339 0.11352 0.75639 0.0
C483 C 0.6216 0.10978 0.76002 0.0
C484 C 0.62366 0.12326 0.74351 0.0
C485 C 0.59535 0.12746 0.73846 0.0
H486 H 0.45144 0.10958 0.75564 0.0
C487 C 0.59087 0.10361 0.76724 0.0
C488 C 0.57565 0.11411 0.75449 0.0
H489 H 0.50669 0.15144 0.71003 0.0
H490 H 0.54838 0.14209 0.72246 0.0
H491 H 0.46395 0.05071 0.75654 0.0
H492 H 0.51251 0.1451 0.78698 0.0
H493 H 0.51013 0.11749 0.80256 0.0
H494 H 0.47357 0.11361 0.79155 0.0
H495 H 0.44738 0.06098 0.77542 0.0
H496 H 0.47428 0.04513 0.77895 0.0
C497 C 0.57777 0.10638 0.71997 0.0
C498 C 0.6078 0.16429 0.73798 0.0
C499 C 0.55594 0.05228 0.82788 0.0
C500 C 0.52784 0.04308 0.83689 0.0
C501 C 0.50399 0.04894 0.82888 0.0
C502 C 0.50762 0.06328 0.81235 0.0
C503 C 0.53544 0.07204 0.80343 0.0
C504 C 0.5591 0.06648 0.81109 0.0
C505 C 0.58665 0.07701 0.79914 0.0
C506 C 0.57562 0.08996 0.78328 0.0
C507 C 0.54554 0.08697 0.78604 0.0
C508 C 0.5887 0.04679 0.79252 0.0
C509 C 0.61767 0.10401 0.81044 0.0
C510 C 0.47267 0.11698 0.74844 0.0
C511 C 0.47546 0.13097 0.73167 0.0
C512 C 0.50348 0.14001 0.72274 0.0
C513 C 0.52789 0.13473 0.73007 0.0
C514 C 0.52456 0.12025 0.74662 0.0
C515 C 0.49744 0.11185 0.7556 0.0
C516 C 0.49832 0.09688 0.7731 0.0
C517 C 0.53042 0.0977 0.77306 0.0
C518 C 0.54552 0.11131 0.75748 0.0
C519 C 0.46945 0.06166 0.77111 0.0
C520 C 0.49841 0.11911 0.78949 0.0
H521 H 0.64684 0.09453 0.77934 0.0
H522 H 0.65055 0.14298 0.72048 0.0
H523 H 0.62962 0.17914 0.74791 0.0
H524 H 0.59031 0.1714 0.74227 0.0
H525 H 0.61432 0.17195 0.72405 0.0
H526 H 0.57859 0.08343 0.7192 0.0
H527 H 0.58917 0.11942 0.70801 0.0
H528 H 0.55185 0.09847 0.71828 0.0
H529 H 0.57468 0.048 0.83358 0.0
H530 H 0.48244 0.04272 0.83557 0.0
H531 H 0.48845 0.06696 0.80716 0.0
H532 H 0.56422 0.02576 0.78822 0.0
H533 H 0.6001 0.03985 0.80373 0.0
H534 H 0.60214 0.05028 0.78035 0.0
H535 H 0.61275 0.12168 0.8181 0.0
H536 H 0.63677 0.11834 0.80172 0.0
H537 H 0.62719 0.09367 0.82068 0.0
H538 H 0.6924 0.10926 0.76163 0.0
C539 C 0.64679 0.1048 0.76664 0.0
C540 C 0.84721 0.5444 0.95863 0.0
C541 C 0.87588 0.54937 0.95175 0.0
C542 C 0.88368 0.56318 0.93489 0.0
C543 C 0.83485 0.56671 0.93225 0.0
C544 C 0.8273 0.55323 0.94875 0.0
C545 C 0.79621 0.54961 0.95436 0.0
H546 H 0.66296 0.56123 0.93645 0.0
C547 C 0.80882 0.57297 0.92553 0.0
C548 C 0.78617 0.56298 0.93847 0.0
H549 H 0.6922 0.52918 0.98455 0.0
H550 H 0.74053 0.53947 0.97181 0.0
H551 H 0.73554 0.62475 0.93503 0.0
H552 H 0.68886 0.52919 0.90504 0.0
H553 H 0.70671 0.55924 0.88977 0.0
H554 H 0.67458 0.55724 0.90209 0.0
H555 H 0.70227 0.61171 0.91766 0.0
H556 H 0.74299 0.62832 0.91174 0.0
C557 C 0.80374 0.57095 0.97288 0.0
C558 C 0.77243 0.51294 0.95507 0.0
C559 C 0.81468 0.622 0.86483 0.0
C560 C 0.79476 0.63089 0.85481 0.0
C561 C 0.76624 0.62587 0.8621 0.0
C562 C 0.75767 0.61208 0.87887 0.0
C563 C 0.77788 0.6033 0.88866 0.0
C564 C 0.80592 0.60848 0.88157 0.0
C565 C 0.82487 0.5982 0.89381 0.0
C566 C 0.80376 0.58602 0.90944 0.0
C567 C 0.77604 0.58886 0.90642 0.0
C568 C 0.85795 0.62855 0.90045 0.0
C569 C 0.82693 0.57057 0.88287 0.0
C570 C 0.67982 0.55655 0.9443 0.0
C571 C 0.67287 0.54347 0.96149 0.0
C572 C 0.69589 0.53804 0.97108 0.0
C573 C 0.7244 0.54443 0.96372 0.0
C574 C 0.73067 0.55683 0.94653 0.0
C575 C 0.70889 0.56319 0.93717 0.0
C576 C 0.72081 0.57782 0.91941 0.0
C577 C 0.75287 0.57838 0.91957 0.0
C578 C 0.7582 0.56581 0.93552 0.0
C579 C 0.72553 0.61242 0.92084 0.0
C580 C 0.69649 0.5549 0.90312 0.0
H581 H 0.87079 0.58231 0.91244 0.0
H582 H 0.84011 0.53348 0.97138 0.0
H583 H 0.77514 0.49818 0.94369 0.0
H584 H 0.74692 0.50647 0.95311 0.0
H585 H 0.77689 0.50471 0.9683 0.0
H586 H 0.82867 0.59208 0.97434 0.0
H587 H 0.80149 0.55689 0.98487 0.0
H588 H 0.78822 0.58191 0.97395 0.0
H589 H 0.83699 0.6259 0.85988 0.0
H590 H 0.75023 0.63216 0.85466 0.0
H591 H 0.73557 0.60866 0.88355 0.0
H592 H 0.8555 0.65045 0.90286 0.0
H593 H 0.8753 0.63348 0.89003 0.0
H594 H 0.86861 0.62657 0.9138 0.0
H595 H 0.80412 0.55445 0.87392 0.0
H596 H 0.83017 0.55433 0.89185 0.0
H597 H 0.84676 0.58048 0.87383 0.0
H598 H 0.90576 0.56775 0.92933 0.0
C599 C 0.86339 0.57184 0.92513 0.0
C600 C 0.4167 0.13246 0.97369 0.0
C601 C 0.41489 0.1044 0.96511 0.0
C602 C 0.39941 0.09278 0.947 0.0
C603 C 0.38972 0.13796 0.94607 0.0
C604 C 0.40418 0.14881 0.96396 0.0
C605 C 0.40622 0.18012 0.97078 0.0
H606 H 0.39159 0.30895 0.95194 0.0
C607 C 0.38079 0.16152 0.93962 0.0
C608 C 0.39031 0.18617 0.9541 0.0
H609 H 0.43565 0.29568 1.00164 0.0
H610 H 0.4177 0.24046 0.98996 0.0
H611 H 0.41898 0.27757 0.92491 0.0
H612 H 0.32778 0.23928 0.947 0.0
H613 H 0.31925 0.21853 0.92489 0.0
H614 H 0.33622 0.26207 0.92737 0.0
H615 H 0.38965 0.2892 0.91875 0.0
H616 H 0.38896 0.25498 0.90664 0.0
C617 C 0.44239 0.20629 0.97503 0.0
C618 C 0.38629 0.17404 0.98749 0.0
C619 C 0.33644 0.15101 0.87284 0.0
C620 C 0.32823 0.17091 0.86305 0.0
C621 C 0.32784 0.19709 0.87274 0.0
C622 C 0.33721 0.20454 0.89168 0.0
C623 C 0.34749 0.1859 0.90105 0.0
C624 C 0.34598 0.15897 0.89185 0.0
C625 C 0.35724 0.14174 0.90438 0.0
C626 C 0.36662 0.16344 0.92241 0.0
C627 C 0.36125 0.18947 0.9202 0.0
C628 C 0.38666 0.14194 0.89668 0.0
C629 C 0.32844 0.10744 0.90581 0.0
C630 C 0.39728 0.29409 0.96033 0.0
C631 C 0.41546 0.30683 0.97759 0.0
C632 C 0.42164 0.28646 0.9883 0.0
C633 C 0.41149 0.25448 0.9814 0.0
C634 C 0.39534 0.2429 0.96354 0.0
C635 C 0.38777 0.26233 0.95353 0.0
C636 C 0.37152 0.2465 0.93459 0.0
C637 C 0.37135 0.21461 0.93471 0.0
C638 C 0.38547 0.21275 0.95164 0.0
C639 C 0.39308 0.26805 0.92036 0.0
C640 C 0.33696 0.24144 0.93322 0.0
H641 H 0.37564 0.09956 0.92367 0.0
H642 H 0.42799 0.14183 0.98765 0.0
H643 H 0.36382 0.14999 0.98518 0.0
H644 H 0.37815 0.19181 0.98983 0.0
H645 H 0.40017 0.17427 1.00029 0.0
H646 H 0.45775 0.20081 0.96641 0.0
H647 H 0.45107 0.20778 0.9897 0.0
H648 H 0.44758 0.23063 0.97173 0.0
H649 H 0.33678 0.13061 0.86576 0.0
H650 H 0.3208 0.21223 0.86556 0.0
H651 H 0.33701 0.22517 0.89816 0.0
H652 H 0.40253 0.1656 0.89139 0.0
H653 H 0.37891 0.1226 0.88511 0.0
H654 H 0.40227 0.13906 0.90721 0.0
H655 H 0.30549 0.10788 0.90555 0.0
H656 H 0.33027 0.09774 0.91892 0.0
H657 H 0.3259 0.0901 0.89411 0.0
H658 H 0.39789 0.07136 0.93998 0.0
C659 C 0.3867 0.10933 0.93748 0.0
C660 C 0.69492 0.13959 0.96434 0.0
C661 C 0.66617 0.11221 0.9564 0.0
C662 C 0.6648 0.1009 0.93778 0.0
C663 C 0.71999 0.14335 0.93594 0.0
C664 C 0.72089 0.15495 0.95388 0.0
C665 C 0.75152 0.18594 0.96011 0.0
H666 H 0.89805 0.30351 0.94309 0.0
C667 C 0.75152 0.16504 0.92918 0.0
C668 C 0.76979 0.19013 0.94337 0.0
H669 H 0.84466 0.3003 0.98941 0.0
H670 H 0.80247 0.24728 0.97756 0.0
H671 H 0.88285 0.23179 0.94069 0.0
H672 H 0.83718 0.27738 0.91282 0.0
H673 H 0.84044 0.25125 0.89621 0.0
H674 H 0.87635 0.28376 0.90896 0.0
H675 H 0.89714 0.25124 0.92025 0.0
H676 H 0.86677 0.20883 0.91916 0.0
C677 C 0.76834 0.18036 0.97715 0.0
C678 C 0.74311 0.21324 0.96361 0.0
C679 C 0.77992 0.14156 0.86562 0.0
C680 C 0.80887 0.15681 0.85722 0.0
C681 C 0.83611 0.18367 0.86699 0.0
C682 C 0.83474 0.19555 0.88461 0.0
C683 C 0.80578 0.18059 0.89274 0.0
C684 C 0.77908 0.15363 0.88355 0.0
C685 C 0.75104 0.14026 0.89515 0.0
C686 C 0.7654 0.16401 0.91258 0.0
C687 C 0.79734 0.18783 0.91078 0.0
C688 C 0.74274 0.10556 0.89894 0.0
C689 C 0.72292 0.14204 0.88492 0.0
C690 C 0.87717 0.29159 0.95063 0.0
C691 C 0.87508 0.30647 0.96731 0.0
C692 C 0.84755 0.28949 0.97675 0.0
C693 C 0.82258 0.25873 0.96965 0.0
C694 C 0.82455 0.24479 0.95269 0.0
C695 C 0.85155 0.26108 0.94351 0.0
C696 C 0.84882 0.24296 0.92532 0.0
C697 C 0.81523 0.21365 0.92489 0.0
C698 C 0.8014 0.21479 0.94102 0.0
C699 C 0.8753 0.2333 0.92623 0.0
C700 C 0.85098 0.26483 0.90992 0.0
H701 H 0.68893 0.10636 0.91359 0.0
H702 H 0.69757 0.14923 0.97852 0.0
H703 H 0.71938 0.20682 0.95631 0.0
H704 H 0.76039 0.23614 0.95824 0.0
H705 H 0.74198 0.21815 0.97853 0.0
H706 H 0.76705 0.15642 0.97508 0.0
H707 H 0.75661 0.18062 0.98976 0.0
H708 H 0.79424 0.19845 0.97978 0.0
H709 H 0.75866 0.12071 0.85848 0.0
H710 H 0.85852 0.1961 0.86078 0.0
H711 H 0.85631 0.21625 0.89111 0.0
H712 H 0.76507 0.10481 0.90292 0.0
H713 H 0.73002 0.08821 0.88644 0.0
H714 H 0.7278 0.09669 0.91044 0.0
H715 H 0.73203 0.16513 0.87841 0.0
H716 H 0.70562 0.14187 0.89423 0.0
H717 H 0.70983 0.12168 0.87384 0.0
H718 H 0.64293 0.08055 0.93085 0.0
C719 C 0.69155 0.1161 0.92762 0.0
C720 C 0.58553 0.87807 0.05258 0.0
C721 C 0.58526 0.90464 0.06181 0.0
C722 C 0.59786 0.91379 0.08057 0.0
C723 C 0.61005 0.87025 0.08044 0.0
C724 C 0.5975 0.86108 0.06216 0.0
C725 C 0.59649 0.83051 0.05477 0.0
H726 H 0.6224 0.70692 0.0701 0.0
C727 C 0.61997 0.84714 0.08637 0.0
C728 C 0.61213 0.82386 0.07135 0.0
H729 H 0.56734 0.71542 0.02364 0.0
H730 H 0.5841 0.76993 0.0355 0.0
H731 H 0.68264 0.78267 0.07589 0.0
H732 H 0.59181 0.7288 0.09779 0.0
H733 H 0.61874 0.75512 0.11627 0.0
H734 H 0.62617 0.72523 0.10501 0.0
H735 H 0.67602 0.75452 0.09267 0.0
H736 H 0.68921 0.79665 0.09942 0.0
C737 C 0.61713 0.83807 0.03834 0.0
C738 C 0.56063 0.80378 0.04985 0.0
C739 C 0.66434 0.85548 0.15283 0.0
C740 C 0.67426 0.83626 0.16201 0.0
C741 C 0.67708 0.81211 0.15165 0.0
C742 C 0.66845 0.80588 0.13262 0.0
C743 C 0.65643 0.82368 0.12383 0.0
C744 C 0.65556 0.84876 0.13373 0.0
C745 C 0.64262 0.86534 0.1218 0.0
C746 C 0.6347 0.84513 0.10335 0.0
C747 C 0.64252 0.82057 0.10477 0.0
C748 C 0.6699 0.90074 0.12111 0.0
C749 C 0.61204 0.86217 0.12963 0.0
C750 C 0.61369 0.72027 0.06242 0.0
C751 C 0.59299 0.70616 0.04597 0.0
C752 C 0.5834 0.72529 0.03627 0.0
C753 C 0.59264 0.75692 0.04337 0.0
C754 C 0.6108 0.76935 0.06064 0.0
C755 C 0.62141 0.75127 0.06973 0.0
C756 C 0.63745 0.76671 0.08877 0.0
C757 C 0.63414 0.79677 0.08971 0.0
C758 C 0.61894 0.79838 0.07312 0.0
C759 C 0.67317 0.77548 0.08941 0.0
C760 C 0.6179 0.7429 0.1028 0.0
H761 H 0.61953 0.90509 0.10408 0.0
H762 H 0.57636 0.87025 0.03819 0.0
H763 H 0.54395 0.80982 0.05673 0.0
H764 H 0.55538 0.7802 0.05465 0.0
H765 H 0.55352 0.80031 0.03476 0.0
H766 H 0.64042 0.8611 0.04178 0.0
H767 H 0.60447 0.84083 0.02592 0.0
H768 H 0.62342 0.81924 0.03471 0.0
H769 H 0.66209 0.87432 0.16043 0.0
H770 H 0.68545 0.79757 0.15837 0.0
H771 H 0.67047 0.7867 0.1256 0.0
H772 H 0.69358 0.90196 0.12068 0.0
H773 H 0.67173 0.91647 0.13349 0.0
H774 H 0.66695 0.91134 0.10861 0.0
H775 H 0.59792 0.83818 0.13501 0.0
H776 H 0.59517 0.8632 0.11911 0.0
H777 H 0.61843 0.88125 0.14116 0.0
H778 H 0.59733 0.93352 0.08834 0.0
C779 C 0.61052 0.897 0.08983 0.0
C780 C 0.31379 0.8602 0.06172 0.0
C781 C 0.33911 0.89142 0.0681 0.0
C782 C 0.33678 0.90665 0.08472 0.0
C783 C 0.28482 0.85977 0.08803 0.0
C784 C 0.28708 0.84514 0.0717 0.0
C785 C 0.25811 0.81242 0.06623 0.0
H786 H 0.11267 0.69238 0.08298 0.0
C787 C 0.25358 0.83728 0.09482 0.0
C788 C 0.23794 0.80966 0.08189 0.0
H789 H 0.16709 0.69612 0.03722 0.0
H790 H 0.20923 0.74947 0.04931 0.0
H791 H 0.17308 0.72225 0.11386 0.0
H792 H 0.12515 0.76322 0.08341 0.0
H793 H 0.13729 0.78504 0.10533 0.0
H794 H 0.10942 0.74184 0.1031 0.0
H795 H 0.13423 0.71612 0.11826 0.0
H796 H 0.17086 0.75018 0.12954 0.0
C797 C 0.26916 0.78685 0.06604 0.0
C798 C 0.24186 0.81369 0.04749 0.0
C799 C 0.22076 0.86307 0.15639 0.0
C800 C 0.19247 0.84599 0.1652 0.0
C801 C 0.16725 0.81633 0.1564 0.0
C802 C 0.16992 0.80364 0.13934 0.0
C803 C 0.1982 0.82059 0.13076 0.0
C804 C 0.22295 0.85003 0.13905 0.0
C805 C 0.25052 0.86484 0.12715 0.0
C806 C 0.23848 0.83884 0.1108 0.0
C807 C 0.20783 0.813 0.11321 0.0
C808 C 0.28109 0.86895 0.13809 0.0
C809 C 0.25383 0.89697 0.12139 0.0
C810 C 0.13378 0.70466 0.07565 0.0
C811 C 0.13649 0.69004 0.05909 0.0
C812 C 0.16418 0.70702 0.04985 0.0
C813 C 0.18877 0.73799 0.05698 0.0
C814 C 0.18579 0.75226 0.07357 0.0
C815 C 0.15863 0.73566 0.08258 0.0
C816 C 0.15976 0.75458 0.10007 0.0
C817 C 0.19216 0.78527 0.10007 0.0
C818 C 0.2072 0.78368 0.08454 0.0
C819 C 0.15924 0.73489 0.11637 0.0
C820 C 0.1314 0.76145 0.09807 0.0
H821 H 0.30963 0.90377 0.10722 0.0
H822 H 0.31469 0.84738 0.04924 0.0
H823 H 0.24484 0.83817 0.04633 0.0
H824 H 0.21553 0.79709 0.04574 0.0
H825 H 0.25259 0.8082 0.03573 0.0
H826 H 0.28956 0.79409 0.07682 0.0
H827 H 0.27737 0.78403 0.05252 0.0
H828 H 0.25029 0.76284 0.06932 0.0
H829 H 0.24046 0.88606 0.16274 0.0
H830 H 0.14547 0.80242 0.16295 0.0
H831 H 0.14983 0.78087 0.13358 0.0
H832 H 0.27548 0.84662 0.14479 0.0
H833 H 0.29084 0.88954 0.14907 0.0
H834 H 0.30028 0.87291 0.12926 0.0
H835 H 0.22973 0.89461 0.11848 0.0
H836 H 0.26538 0.90397 0.10853 0.0
H837 H 0.26762 0.91709 0.13252 0.0
H838 H 0.35554 0.93095 0.08992 0.0
C839 C 0.30992 0.89097 0.09472 0.0
C840 C 0.31481 0.4618 0.06581 0.0
C841 C 0.33991 0.45654 0.07205 0.0
C842 C 0.33773 0.44239 0.08882 0.0
C843 C 0.28588 0.43858 0.09232 0.0
C844 C 0.28838 0.45277 0.07603 0.0
C845 C 0.26029 0.45737 0.07104 0.0
H846 H 0.11278 0.43211 0.08534 0.0
C847 C 0.25475 0.43174 0.09926 0.0
C848 C 0.23985 0.44275 0.08665 0.0
H849 H 0.17399 0.48539 0.044 0.0
H850 H 0.21498 0.47531 0.05633 0.0
H851 H 0.12961 0.37511 0.08557 0.0
H852 H 0.17015 0.46702 0.11831 0.0
H853 H 0.16918 0.4391 0.13324 0.0
H854 H 0.13196 0.43306 0.12183 0.0
H855 H 0.10903 0.38282 0.10314 0.0
H856 H 0.13682 0.3686 0.10839 0.0
C857 C 0.24343 0.43762 0.05214 0.0
C858 C 0.27287 0.49436 0.07141 0.0
C859 C 0.2186 0.37828 0.15917 0.0
C860 C 0.18985 0.3676 0.1677 0.0
C861 C 0.16511 0.37153 0.1591 0.0
C862 C 0.16872 0.38588 0.14256 0.0
C863 C 0.1974 0.39651 0.13422 0.0
C864 C 0.2217 0.39233 0.14233 0.0
C865 C 0.2498 0.40392 0.13076 0.0
C866 C 0.23876 0.41675 0.11485 0.0
C867 C 0.20797 0.41234 0.1171 0.0
C868 C 0.25294 0.37434 0.12412 0.0
C869 C 0.28018 0.4312 0.1424 0.0
C870 C 0.13506 0.44187 0.07897 0.0
C871 C 0.13937 0.45892 0.06322 0.0
C872 C 0.16908 0.47113 0.05562 0.0
C873 C 0.19329 0.46561 0.063 0.0
C874 C 0.18838 0.44808 0.07842 0.0
C875 C 0.15994 0.43709 0.0864 0.0
C876 C 0.16004 0.42073 0.10347 0.0
C877 C 0.19301 0.42331 0.10415 0.0
C878 C 0.20917 0.43892 0.08926 0.0
C879 C 0.13236 0.38498 0.10018 0.0
C880 C 0.15748 0.44067 0.12015 0.0
H881 H 0.31073 0.42276 0.11153 0.0
H882 H 0.31586 0.47329 0.0533 0.0
H883 H 0.29571 0.50887 0.08061 0.0
H884 H 0.25608 0.50135 0.07711 0.0
H885 H 0.27763 0.50261 0.05744 0.0
H886 H 0.24229 0.41369 0.05141 0.0
H887 H 0.25677 0.45069 0.04065 0.0
H888 H 0.21821 0.43184 0.04959 0.0
H889 H 0.23794 0.37527 0.16529 0.0
H890 H 0.14291 0.36385 0.16537 0.0
H891 H 0.14891 0.38817 0.1369 0.0
H892 H 0.22878 0.35275 0.11993 0.0
H893 H 0.26502 0.36802 0.13527 0.0
H894 H 0.26618 0.37819 0.11184 0.0
H895 H 0.27454 0.44854 0.1498 0.0
H896 H 0.29965 0.44578 0.13394 0.0
H897 H 0.28954 0.42109 0.15287 0.0
H898 H 0.3566 0.4379 0.09402 0.0
C899 C 0.31093 0.43338 0.09893 0.0
C900 C 0.50924 0.87497 0.29096 0.0
C901 C 0.53842 0.88054 0.28458 0.0
C902 C 0.54724 0.89542 0.26809 0.0
C903 C 0.49846 0.89897 0.26489 0.0
C904 C 0.48986 0.88436 0.281 0.0
C905 C 0.45836 0.8803 0.28613 0.0
H906 H 0.32974 0.90038 0.2695 0.0
C907 C 0.47288 0.90578 0.25804 0.0
C908 C 0.44938 0.89489 0.27047 0.0
H909 H 0.35193 0.85677 0.31436 0.0
H910 H 0.40044 0.86658 0.30192 0.0
H911 H 0.40429 0.96073 0.26819 0.0
H912 H 0.35252 0.8662 0.23692 0.0
H913 H 0.37284 0.8963 0.2221 0.0
H914 H 0.34134 0.89662 0.23411 0.0
H915 H 0.37011 0.94942 0.25179 0.0
H916 H 0.40983 0.96452 0.24461 0.0
C917 C 0.46493 0.90042 0.30499 0.0
C918 C 0.43428 0.84343 0.28593 0.0
C919 C 0.48277 0.959 0.19857 0.0
C920 C 0.46335 0.96824 0.18832 0.0
C921 C 0.43452 0.96313 0.19525 0.0
C922 C 0.42516 0.94886 0.21183 0.0
C923 C 0.44476 0.93949 0.22175 0.0
C924 C 0.47309 0.94477 0.21502 0.0
C925 C 0.49113 0.93343 0.2272 0.0
C926 C 0.46901 0.92026 0.2423 0.0
C927 C 0.44172 0.92381 0.23916 0.0
C928 C 0.52406 0.96329 0.23467 0.0
C929 C 0.4935 0.90632 0.21587 0.0
C930 C 0.34505 0.89285 0.27656 0.0
C931 C 0.33696 0.87816 0.29321 0.0
C932 C 0.35771 0.86882 0.30187 0.0
C933 C 0.38595 0.87434 0.2945 0.0
C934 C 0.39397 0.88936 0.27813 0.0
C935 C 0.37371 0.89828 0.26931 0.0
C936 C 0.38658 0.91377 0.2519 0.0
C937 C 0.41785 0.91274 0.2519 0.0
C938 C 0.42182 0.89836 0.26739 0.0
C939 C 0.39294 0.94895 0.25405 0.0
C940 C 0.36208 0.89236 0.23529 0.0
H941 H 0.5357 0.91595 0.24587 0.0
H942 H 0.50135 0.86321 0.3034 0.0
H943 H 0.43914 0.82906 0.27537 0.0
H944 H 0.40905 0.83692 0.28205 0.0
H945 H 0.43601 0.8347 0.2995 0.0
H946 H 0.48906 0.92276 0.30638 0.0
H947 H 0.46436 0.88622 0.31664 0.0
H948 H 0.44793 0.90939 0.30671 0.0
H949 H 0.50533 0.96297 0.19398 0.0
H950 H 0.41882 0.96963 0.18767 0.0
H951 H 0.40292 0.94551 0.21625 0.0
H952 H 0.52177 0.98524 0.23733 0.0
H953 H 0.54209 0.96874 0.22461 0.0
H954 H 0.5338 0.96038 0.24807 0.0
H955 H 0.47111 0.89089 0.20646 0.0
H956 H 0.49599 0.88933 0.22455 0.0
H957 H 0.51394 0.91675 0.20727 0.0
H958 H 0.56973 0.90043 0.26291 0.0
C959 C 0.5275 0.90463 0.25825 0.0
C960 C 0.09599 0.46784 0.30172 0.0
C961 C 0.09348 0.43965 0.2929 0.0
C962 C 0.07714 0.42807 0.27498 0.0
C963 C 0.06631 0.47255 0.27509 0.0
C964 C 0.08237 0.4838 0.29262 0.0
C965 C 0.08377 0.51448 0.30004 0.0
H966 H 0.05146 0.63433 0.28719 0.0
C967 C 0.05493 0.49481 0.26967 0.0
C968 C 0.0649 0.51922 0.28432 0.0
H969 H 0.11293 0.62893 0.33118 0.0
H970 H 0.0968 0.57473 0.31924 0.0
H971 H 0.07906 0.61184 0.25745 0.0
H972 H 0.99242 0.55791 0.28339 0.0
H973 H 0.98305 0.54359 0.25983 0.0
H974 H 0.99634 0.58566 0.2668 0.0
H975 H 0.0436 0.61444 0.25189 0.0
H976 H 0.05013 0.58437 0.24002 0.0
C977 C 0.11967 0.54186 0.30285 0.0
C978 C 0.0663 0.50793 0.31778 0.0
C979 C 1.00159 0.48186 0.20499 0.0
C980 C 0.99048 0.50048 0.19618 0.0
C981 C 0.98857 0.52502 0.20675 0.0
C982 C 0.9994 0.53231 0.22554 0.0
C983 C 0.0127 0.5152 0.23384 0.0
C984 C 0.0126 0.48967 0.22382 0.0
C985 C 0.02721 0.47394 0.23523 0.0
C986 C 0.03748 0.49536 0.2534 0.0
C987 C 0.02914 0.51962 0.25237 0.0
C988 C 0.05643 0.47649 0.22599 0.0
C989 C 1.00053 0.43876 0.23717 0.0
C990 C 0.06161 0.62165 0.29431 0.0
C991 C 0.08387 0.6365 0.31012 0.0
C992 C 0.09554 0.61837 0.31911 0.0
C993 C 0.08658 0.5869 0.31194 0.0
C994 C 0.06642 0.57356 0.29534 0.0
C995 C 0.05395 0.5907 0.28692 0.0
C996 C 0.03556 0.57415 0.26847 0.0
C997 C 0.03939 0.54439 0.26715 0.0
C998 C 0.0572 0.54412 0.283 0.0
C999 C 0.05259 0.59722 0.25359 0.0
C1000 C 0.99998 0.56495 0.26949 0.0
H1001 H 0.05143 0.43439 0.25244 0.0
H1002 H 0.10801 0.47722 0.31555 0.0
H1003 H 0.04382 0.48386 0.31592 0.0
H1004 H 0.05862 0.52567 0.32143 0.0
H1005 H 0.08181 0.50787 0.32969 0.0
H1006 H 0.13499 0.536 0.29441 0.0
H1007 H 0.12976 0.54598 0.31748 0.0
H1008 H 0.12323 0.56506 0.2983 0.0
H1009 H 1.00319 0.46275 0.19722 0.0
H1010 H 0.97937 0.53914 0.20033 0.0
H1011 H 0.99802 0.55178 0.23272 0.0
H1012 H 0.0705 0.50071 0.22086 0.0
H1013 H 0.04848 0.4578 0.21404 0.0
H1014 H 0.07371 0.47421 0.23555 0.0
H1015 H 0.97672 0.43719 0.23775 0.0
H1016 H 0.00453 0.42977 0.25012 0.0
H1017 H 0.99826 0.42189 0.22528 0.0
H1018 H 0.07518 0.40658 0.26775 0.0
C1019 C 0.06345 0.44429 0.26606 0.0
C1020 C 0.36259 0.46363 0.29834 0.0
C1021 C 0.33645 0.43372 0.29078 0.0
C1022 C 0.33797 0.42051 0.27327 0.0
C1023 C 0.39097 0.46697 0.27133 0.0
C1024 C 0.38932 0.47964 0.2885 0.0
C1025 C 0.41838 0.51198 0.29469 0.0
H1026 H 0.56414 0.6335 0.27964 0.0
C1027 C 0.42232 0.49009 0.26491 0.0
C1028 C 0.43841 0.51629 0.27876 0.0
H1029 H 0.50633 0.62936 0.3238 0.0
H1030 H 0.46615 0.57532 0.31197 0.0
H1031 H 0.54912 0.55922 0.27777 0.0
H1032 H 0.5086 0.60912 0.24966 0.0
H1033 H 0.50528 0.57951 0.233 0.0
H1034 H 0.54461 0.61021 0.24347 0.0
H1035 H 0.56806 0.58493 0.2601 0.0
H1036 H 0.53959 0.54214 0.25471 0.0
C1037 C 0.43472 0.5089 0.31284 0.0
C1038 C 0.40751 0.53769 0.29633 0.0
C1039 C 0.45249 0.47416 0.20049 0.0
C1040 C 0.4802 0.49342 0.19167 0.0
C1041 C 0.5071 0.51972 0.20202 0.0
C1042 C 0.50601 0.52816 0.22044 0.0
C1043 C 0.4776 0.51037 0.22874 0.0
C1044 C 0.45173 0.48316 0.21913 0.0
C1045 C 0.42418 0.46691 0.23091 0.0
C1046 C 0.43727 0.49012 0.24859 0.0
C1047 C 0.46853 0.51558 0.24698 0.0
C1048 C 0.41946 0.43314 0.23415 0.0
C1049 C 0.39409 0.46579 0.22122 0.0
C1050 C 0.54283 0.62113 0.28679 0.0
C1051 C 0.53884 0.63605 0.30283 0.0
C1052 C 0.51068 0.61852 0.31168 0.0
C1053 C 0.48697 0.58711 0.30462 0.0
C1054 C 0.49092 0.57304 0.28829 0.0
C1055 C 0.51847 0.59001 0.27967 0.0
C1056 C 0.51745 0.57229 0.26173 0.0
C1057 C 0.48461 0.54188 0.261 0.0
C1058 C 0.46946 0.54233 0.27669 0.0
C1059 C 0.54505 0.56432 0.26347 0.0
C1060 C 0.51928 0.59373 0.24608 0.0
H1061 H 0.36478 0.42579 0.25027 0.0
H1062 H 0.36202 0.4749 0.31152 0.0
H1063 H 0.38471 0.52985 0.28747 0.0
H1064 H 0.42498 0.56103 0.29148 0.0
H1065 H 0.40336 0.54216 0.31074 0.0
H1066 H 0.43474 0.48553 0.31204 0.0
H1067 H 0.42174 0.50955 0.32478 0.0
H1068 H 0.46027 0.52791 0.31576 0.0
H1069 H 0.43161 0.45355 0.19288 0.0
H1070 H 0.52893 0.53435 0.19566 0.0
H1071 H 0.52713 0.54893 0.22731 0.0
H1072 H 0.4431 0.4342 0.23627 0.0
H1073 H 0.40526 0.41516 0.2221 0.0
H1074 H 0.40766 0.42397 0.2467 0.0
H1075 H 0.40059 0.48959 0.2161 0.0
H1076 H 0.3753 0.46095 0.2305 0.0
H1077 H 0.38345 0.44698 0.20921 0.0
H1078 H 0.31822 0.39738 0.26712 0.0
C1079 C 0.36509 0.43693 0.26353 0.0
Tb1080 Tb 0.48978 0.98339 0.99379 0.0
Eu1081 Eu 0.5167 0.03308 0.03379 0.0
C1082 C 0.52729 0.97202 0.02737 0.0
C1083 C 0.44929 0.9634 0.02789 0.0
C1084 C 0.48442 0.9671 0.94298 0.0
C1085 C 0.48131 0.95653 0.90962 0.0
C1086 C 0.47296 0.94532 0.92694 0.0
C1087 C 0.50457 1.00033 0.9414 0.0
C1088 C 0.51308 0.01156 0.92412 0.0
C1089 C 0.50149 0.98985 0.90793 0.0
C1090 C 0.47627 0.95498 0.9613 0.0
O1091 O 0.46331 0.00921 0.99597 0.0
O1092 O 0.50105 0.05663 0.01284 0.0
O1093 O 0.55922 0.05086 0.017 0.0
O1094 O 0.5292 0.03019 0.98885 0.0
C1095 C 0.47542 0.04031 1.00087 0.0
O1096 O 0.50707 0.06016 0.05527 0.0
O1097 O 0.5505 0.05719 0.05857 0.0
O1098 O 0.52228 0.99053 0.03902 0.0
O1099 O 0.52003 0.96903 1.00943 0.0
O1100 O 0.45622 0.9529 0.01264 0.0
O1101 O 0.46603 0.99351 0.03547 0.0
C1102 C 0.55687 0.04784 0.99887 0.0
O1103 O 0.50048 0.95956 0.9726 0.0
O1104 O 0.45709 0.96207 0.96973 0.0
C1105 C 0.52202 0.051 0.08476 0.0
C1106 C 0.5026 0.02455 0.11872 0.0
C1107 C 0.51573 0.05808 0.11732 0.0
C1108 C 0.5253 0.07114 0.10051 0.0
C1109 C 0.50892 0.01762 0.08609 0.0
C1110 C 0.49929 0.00455 0.1028 0.0
C1111 C 0.53094 0.06414 0.06677 0.0
H1112 H 0.47217 0.93899 0.89755 0.0
H1113 H 0.45762 0.91957 0.92781 0.0
H1114 H 0.51373 0.01768 0.95353 0.0
H1115 H 0.52825 0.03738 0.92342 0.0
H1116 H 0.51901 0.07436 0.12927 0.0
H1117 H 0.53521 0.09694 0.09981 0.0
H1118 H 0.50592 1.00154 0.0741 0.0
H1119 H 0.48878 0.97861 0.10313 0.0
Tb1120 Tb 0.02236 0.50977 0.99399 0.0
Eu1121 Eu 0.9799 0.4925 0.03003 0.0
C1122 C 0.04099 0.56036 0.02853 0.0
C1123 C 0.04377 0.48619 0.02935 0.0
C1124 C 0.04916 0.52433 0.9469 0.0
C1125 C 0.06821 0.54118 0.91727 0.0
C1126 C 0.07418 0.54302 0.93639 0.0
C1127 C 0.01801 0.50376 0.93818 0.0
C1128 C 0.01202 0.50181 0.91905 0.0
C1129 C 0.03708 0.52054 0.9084 0.0
C1130 C 0.05561 0.52774 0.967 0.0
O1131 O 0.99105 0.45741 0.98932 0.0
O1132 O 0.95246 0.44983 1.00892 0.0
O1133 O 0.96278 0.51764 1.01077 0.0
O1134 O 0.97611 0.50345 0.98357 0.0
C1135 C 0.96334 0.43923 0.99577 0.0
O1136 O 0.94985 0.45835 0.04868 0.0
O1137 O 0.95834 0.50758 0.05101 0.0
O1138 O 0.0269 0.53735 0.03928 0.0
O1139 O 0.03431 0.55443 1.01057 0.0
O1140 O 0.05221 0.50377 0.01529 0.0
O1141 O 0.0159 0.47614 0.03598 0.0
C1142 C 0.95975 0.51396 0.99263 0.0
O1143 O 0.0457 0.54499 0.97591 0.0
O1144 O 0.04877 0.50136 0.97466 0.0
C1145 C 0.95291 0.48215 0.07831 0.0
C1146 C 0.96509 0.48604 0.1168 0.0
C1147 C 0.93389 0.46549 0.10799 0.0
C1148 C 0.92785 0.46364 0.08886 0.0
C1149 C 0.98421 0.50219 0.08698 0.0
C1150 C 0.99023 0.50423 0.10609 0.0
C1151 C 0.94626 0.48005 0.05827 0.0
H1152 H 0.08804 0.5556 0.90941 0.0
H1153 H 0.09833 0.55915 0.94298 0.0
H1154 H 0.99834 0.48947 0.94619 0.0
H1155 H 0.98773 0.48596 0.91261 0.0
H1156 H 0.91406 0.4514 0.11592 0.0
H1157 H 0.90359 0.44791 0.08232 0.0
H1158 H 0.00392 0.51635 0.07897 0.0
H1159 H 0.01457 0.51994 0.11251 0.0
Tb1160 Tb 0.51881 0.49972 0.03156 0.0
Eu1161 Eu 0.48782 0.51197 0.99308 0.0
C1162 C 0.47677 0.44376 1.00101 0.0
C1163 C 0.5575 0.51701 0.99657 0.0
C1164 C 0.52542 0.48613 0.08026 0.0
C1165 C 0.51914 0.46599 0.11049 0.0
C1166 C 0.53054 0.46795 0.0931 0.0
C1167 C 0.50803 0.50156 0.08484 0.0
C1168 C 0.4964 0.49938 0.10206 0.0
C1169 C 0.50232 0.4821 0.11528 0.0
C1170 C 0.53783 0.4889 0.06207 0.0
O1171 O 0.54369 0.55178 0.02987 0.0
O1172 O 0.50426 0.55586 0.01291 0.0
O1173 O 0.44751 0.49139 1.01183 0.0
O1174 O 0.47913 0.50601 0.03952 0.0
C1175 C 0.53091 0.5688 0.02402 0.0
O1176 O 0.48867 0.54524 0.97353 0.0
O1177 O 0.4546 0.49385 0.96784 0.0
O1178 O 0.48684 0.46465 0.98873 0.0
O1179 O 0.47981 0.45363 0.01849 0.0
O1180 O 0.54959 0.49937 1.01068 0.0
O1181 O 0.5401 0.52921 0.9901 0.0
C1182 C 0.45094 0.49526 0.03006 0.0
O1183 O 0.51899 0.4662 0.04913 0.0
O1184 O 0.54993 0.51744 0.05613 0.0
C1185 C 0.47841 0.52318 0.94266 0.0
C1186 C 0.50001 0.52727 0.90718 0.0
C1187 C 0.48151 0.54149 0.91207 0.0
C1188 C 0.47082 0.53943 0.92962 0.0
C1189 C 0.49734 0.50947 0.93804 0.0
C1190 C 0.50794 0.51138 0.92046 0.0
C1191 C 0.46795 0.52207 0.9613 0.0
H1192 H 0.52444 0.45278 0.12039 0.0
H1193 H 0.54379 0.45574 0.08979 0.0
H1194 H 0.50389 0.51578 0.07517 0.0
H1195 H 0.48311 0.51166 0.1051 0.0
H1196 H 0.47534 0.55435 0.90235 0.0
H1197 H 0.45669 0.55064 0.93304 0.0
H1198 H 0.50384 0.49716 0.94801 0.0
H1199 H 0.52173 0.49976 0.91718 0.0
Tb1200 Tb 0.15457 0.30846 0.32438 0.0
Eu1201 Eu 0.18063 0.35661 0.36401 0.0
C1202 C 0.1868 0.2943 0.35843 0.0
C1203 C 0.11023 0.29358 0.35635 0.0
C1204 C 0.1477 0.29118 0.2738 0.0
C1205 C 0.14873 0.28127 0.24075 0.0
C1206 C 0.14089 0.26964 0.25805 0.0
C1207 C 0.16249 0.32458 0.27195 0.0
C1208 C 0.17074 0.33627 0.25473 0.0
C1209 C 0.16395 0.31478 0.23886 0.0
C1210 C 0.14083 0.279 0.2922 0.0
O1211 O 0.13274 0.33884 0.3244 0.0
O1212 O 0.17002 0.38417 0.34329 0.0
O1213 O 0.22387 0.37146 0.34784 0.0
O1214 O 0.19469 0.35488 0.31951 0.0
C1215 C 0.14593 0.36982 0.33012 0.0
O1216 O 0.17415 0.3856 0.38586 0.0
O1217 O 0.21318 0.3755 0.38955 0.0
O1218 O 0.17567 0.30869 0.36899 0.0
O1219 O 0.18626 0.29646 0.34058 0.0
O1220 O 0.11971 0.28033 0.34355 0.0
O1221 O 0.12711 0.32461 0.36205 0.0
C1222 C 0.22237 0.37085 0.32973 0.0
O1223 O 0.16597 0.2852 0.30322 0.0
O1224 O 0.12096 0.28467 0.30091 0.0
C1225 C 0.18534 0.37357 0.41551 0.0
C1226 C 0.16567 0.34929 0.44994 0.0
C1227 C 0.18958 0.3819 0.44906 0.0
C1228 C 0.19928 0.39386 0.43205 0.0
C1229 C 0.16138 0.34112 0.41624 0.0
C1230 C 0.15165 0.32913 0.43323 0.0
C1231 C 0.19602 0.38597 0.39756 0.0
H1232 H 0.14329 0.26401 0.22889 0.0
H1233 H 0.12968 0.2438 0.25913 0.0
H1234 H 0.16773 0.34166 0.28386 0.0
H1235 H 0.18197 0.36215 0.25379 0.0
H1236 H 0.20067 0.39835 0.46153 0.0
H1237 H 0.21775 0.41898 0.43182 0.0
H1238 H 0.15034 0.32494 0.40365 0.0
H1239 H 0.13354 0.30384 0.43325 0.0
Tb1240 Tb 0.68394 0.8403 0.32728 0.0
Eu1241 Eu 0.64249 0.82461 0.36368 0.0
C1242 C 0.70313 0.89223 0.36104 0.0
C1243 C 0.70629 0.81826 0.36291 0.0
C1244 C 0.70989 0.85305 0.27994 0.0
C1245 C 0.7285 0.86936 0.25016 0.0
C1246 C 0.73473 0.87157 0.26928 0.0
C1247 C 0.67867 0.83226 0.27138 0.0
C1248 C 0.67243 0.82991 0.25224 0.0
C1249 C 0.6973 0.8485 0.24145 0.0
C1250 C 0.71664 0.8569 0.30002 0.0
O1251 O 0.65252 0.78789 0.32346 0.0
O1252 O 0.61428 0.78133 0.3431 0.0
O1253 O 0.62461 0.84873 0.34408 0.0
O1254 O 0.63762 0.83387 0.31694 0.0
C1255 C 0.62488 0.77012 0.3301 0.0
O1256 O 0.61334 0.79158 0.38304 0.0
O1257 O 0.62179 0.84079 0.38466 0.0
O1258 O 0.68968 0.86967 0.37212 0.0
O1259 O 0.69586 0.88556 0.34315 0.0
O1260 O 0.71443 0.83552 0.34871 0.0
O1261 O 0.67849 0.80822 0.36961 0.0
C1262 C 0.62137 0.84459 0.32594 0.0
O1263 O 0.70731 0.87476 0.30882 0.0
O1264 O 0.7095 0.83066 0.3079 0.0
C1265 C 0.61847 0.8172 0.41243 0.0
C1266 C 0.63383 0.82368 0.45079 0.0
C1267 C 0.60186 0.80374 0.44293 0.0
C1268 C 0.59424 0.8006 0.42386 0.0
C1269 C 0.6505 0.8366 0.42016 0.0
C1270 C 0.65811 0.83993 0.4392 0.0
C1271 C 0.6103 0.8138 0.39247 0.0
H1272 H 0.74817 0.88367 0.24218 0.0
H1273 H 0.75892 0.88788 0.27575 0.0
H1274 H 0.65915 0.81809 0.2795 0.0
H1275 H 0.64809 0.81388 0.24591 0.0
H1276 H 0.58267 0.79116 0.45155 0.0
H1277 H 0.56942 0.78538 0.41805 0.0
H1278 H 0.66957 0.84926 0.41146 0.0
H1279 H 0.683 0.85511 0.44488 0.0
Tb1280 Tb 0.18093 0.82962 0.36284 0.0
Eu1281 Eu 0.14997 0.84176 0.32439 0.0
C1282 C 0.14068 0.77308 0.33245 0.0
C1283 C 0.21998 0.84725 0.3276 0.0
C1284 C 0.18623 0.8199 0.41183 0.0
C1285 C 0.18417 0.80918 0.444 0.0
C1286 C 0.19706 0.81025 0.42718 0.0
C1287 C 0.16196 0.82788 0.41338 0.0
C1288 C 0.14905 0.82678 0.43012 0.0
C1289 C 0.1602 0.81773 0.44571 0.0
C1290 C 0.19912 0.82053 0.394 0.0
O1291 O 0.18186 0.87557 0.36689 0.0
O1292 O 0.19058 0.88908 0.33765 0.0
O1293 O 0.11801 0.84066 0.34652 0.0
O1294 O 0.13001 0.81045 0.36542 0.0
C1295 C 0.19369 0.89764 0.35529 0.0
O1296 O 0.14542 0.87467 0.30624 0.0
O1297 O 0.121 0.82319 0.29778 0.0
O1298 O 0.12613 0.78829 0.32637 0.0
O1299 O 0.16757 0.78787 0.34345 0.0
O1300 O 0.22114 0.84943 0.34579 0.0
O1301 O 0.19326 0.83848 0.317 0.0
C1302 C 0.11184 0.82266 0.36045 0.0
O1303 O 0.1795 0.79721 0.38154 0.0
O1304 O 0.21266 0.84849 0.38723 0.0
C1305 C 0.14372 0.85821 0.27478 0.0
C1306 C 0.16687 0.86634 0.23961 0.0
C1307 C 0.14619 0.87791 0.24459 0.0
C1308 C 0.1347 0.87382 0.262 0.0
C1309 C 0.1653 0.84778 0.27016 0.0
C1310 C 0.17671 0.85173 0.25278 0.0
C1311 C 0.12999 0.85193 0.29264 0.0
H1312 H 0.19358 0.80251 0.45579 0.0
H1313 H 0.2156 0.80376 0.42618 0.0
H1314 H 0.15304 0.83508 0.40162 0.0
H1315 H 0.13039 0.83314 0.43088 0.0
H1316 H 0.13847 0.88971 0.23493 0.0
H1317 H 0.11829 0.8823 0.26534 0.0
H1318 H 0.17264 0.8357 0.27983 0.0
H1319 H 0.19218 0.84208 0.24945 0.0
Tb1320 Tb 0.82501 0.6516 0.66036 0.0
Eu1321 Eu 0.84905 0.69982 0.70015 0.0
C1322 C 0.85759 0.63854 0.69479 0.0
C1323 C 0.78003 0.63542 0.692 0.0
C1324 C 0.81979 0.63417 0.60979 0.0
C1325 C 0.81601 0.62346 0.57638 0.0
C1326 C 0.8084 0.61229 0.59379 0.0
C1327 C 0.83912 0.66748 0.60806 0.0
C1328 C 0.84688 0.67867 0.59069 0.0
C1329 C 0.83536 0.65686 0.57454 0.0
C1330 C 0.81236 0.62218 0.62822 0.0
O1331 O 0.80268 0.68162 0.65989 0.0
O1332 O 0.83864 0.72706 0.67919 0.0
O1333 O 0.89315 0.71689 0.68459 0.0
O1334 O 0.86543 0.69777 0.65574 0.0
C1335 C 0.81513 0.7125 0.66573 0.0
O1336 O 0.83958 0.72637 0.72204 0.0
O1337 O 0.88121 0.72036 0.72576 0.0
O1338 O 0.84622 0.6528 0.70527 0.0
O1339 O 0.85695 0.64035 0.6769 0.0
O1340 O 0.79045 0.62275 0.67945 0.0
O1341 O 0.79562 0.66662 0.69729 0.0
C1342 C 0.89239 0.71478 0.66648 0.0
O1343 O 0.83713 0.62838 0.63958 0.0
O1344 O 0.79217 0.62789 0.63655 0.0
C1345 C 0.85178 0.71444 0.75145 0.0
C1346 C 0.832 0.6873 0.78517 0.0
C1347 C 0.84831 0.7212 0.78445 0.0
C1348 C 0.85817 0.7346 0.76777 0.0
C1349 C 0.83513 0.68064 0.75205 0.0
C1350 C 0.82547 0.66724 0.76869 0.0
C1351 C 0.8622 0.7283 0.7338 0.0
H1352 H 0.80695 0.60583 0.56436 0.0
H1353 H 0.79367 0.58648 0.59476 0.0
H1354 H 0.84821 0.68492 0.62015 0.0
H1355 H 0.86141 0.70454 0.58989 0.0
H1356 H 0.85401 0.73742 0.79686 0.0
H1357 H 0.8709 0.76073 0.76764 0.0
H1358 H 0.8296 0.66454 0.73961 0.0
H1359 H 0.81256 0.64108 0.7686 0.0
Tb1360 Tb 0.3569 0.17595 0.66059 0.0
Eu1361 Eu 0.31514 0.16056 0.69682 0.0
C1362 C 0.37698 0.22992 0.69388 0.0
C1363 C 0.37873 0.15567 0.69702 0.0
C1364 C 0.38052 0.18596 0.61308 0.0
C1365 C 0.39807 0.20043 0.58288 0.0
C1366 C 0.40532 0.20136 0.6018 0.0
C1367 C 0.34834 0.1701 0.60538 0.0
C1368 C 0.34107 0.16897 0.58646 0.0
C1369 C 0.36588 0.18393 0.57501 0.0
C1370 C 0.38841 0.18716 0.63289 0.0
O1371 O 0.31165 0.13143 0.65237 0.0
O1372 O 0.30405 0.11398 0.68099 0.0
O1373 O 0.28482 0.16601 0.67399 0.0
O1374 O 0.32345 0.19316 0.65442 0.0
C1375 C 0.29874 0.10797 0.66304 0.0
O1376 O 0.28877 0.12552 0.71598 0.0
O1377 O 0.29 0.17156 0.71746 0.0
O1378 O 0.34904 0.21422 0.70044 0.0
O1379 O 0.38615 0.21673 0.68107 0.0
O1380 O 0.37424 0.152 0.67887 0.0
O1381 O 0.36259 0.16531 0.70698 0.0
C1382 C 0.29473 0.18316 0.65987 0.0
O1383 O 0.38651 0.20932 0.64311 0.0
O1384 O 0.37518 0.15937 0.63985 0.0
C1385 C 0.28875 0.14833 0.74518 0.0
C1386 C 0.3024 0.15365 0.78363 0.0
C1387 C 0.27063 0.13427 0.77532 0.0
C1388 C 0.26388 0.13167 0.75622 0.0
C1389 C 0.32053 0.1674 0.75334 0.0
C1390 C 0.3273 0.17011 0.77244 0.0
C1391 C 0.28152 0.14484 0.72515 0.0
H1392 H 0.41764 0.21188 0.57434 0.0
H1393 H 0.43028 0.2139 0.60762 0.0
H1394 H 0.3289 0.15847 0.61399 0.0
H1395 H 0.31605 0.15639 0.58076 0.0
H1396 H 0.25095 0.1216 0.78363 0.0
H1397 H 0.23924 0.1167 0.75006 0.0
H1398 H 0.34005 0.18011 0.74493 0.0
H1399 H 0.35205 0.18491 0.77844 0.0
Tb1400 Tb 0.85441 0.17115 0.69915 0.0
Eu1401 Eu 0.82351 0.18296 0.66057 0.0
C1402 C 0.81176 0.11481 0.66914 0.0
C1403 C 0.89299 0.18765 0.66406 0.0
C1404 C 0.85934 0.15429 0.74752 0.0
C1405 C 0.85045 0.12738 0.77566 0.0
C1406 C 0.86288 0.13289 0.75853 0.0
C1407 C 0.84234 0.16934 0.75366 0.0
C1408 C 0.82989 0.16384 0.77073 0.0
C1409 C 0.83418 0.14316 0.78211 0.0
C1410 C 0.87353 0.16102 0.72979 0.0
O1411 O 0.87985 0.22301 0.69669 0.0
O1412 O 0.83988 0.22695 0.68028 0.0
O1413 O 0.78297 0.16298 0.67919 0.0
O1414 O 0.81424 0.17661 0.70698 0.0
C1415 C 0.86679 0.23999 0.69118 0.0
O1416 O 0.82517 0.2155 0.6403 0.0
O1417 O 0.79014 0.16431 0.63538 0.0
O1418 O 0.82246 0.13558 0.65683 0.0
O1419 O 0.8148 0.12495 0.68658 0.0
O1420 O 0.8853 0.17053 0.67839 0.0
O1421 O 0.87574 0.19999 0.6576 0.0
C1422 C 0.78623 0.16637 0.69743 0.0
O1423 O 0.85831 0.13857 0.71607 0.0
O1424 O 0.88247 0.18974 0.72469 0.0
C1425 C 0.8165 0.19092 0.61018 0.0
C1426 C 0.84045 0.18961 0.57591 0.0
C1427 C 0.81795 0.20012 0.57774 0.0
C1428 C 0.80606 0.20075 0.59475 0.0
C1429 C 0.83939 0.18105 0.60851 0.0
C1430 C 0.85122 0.18038 0.59157 0.0
C1431 C 0.80462 0.19189 0.62821 0.0
H1432 H 0.85389 0.11101 0.78395 0.0
H1433 H 0.87566 0.1208 0.75399 0.0
H1434 H 0.8393 0.18601 0.74544 0.0
H1435 H 0.818 0.17685 0.7753 0.0
H1436 H 0.80889 0.20705 0.56592 0.0
H1437 H 0.78861 0.2087 0.59582 0.0
H1438 H 0.84807 0.17376 0.62033 0.0
H1439 H 0.86881 0.17256 0.59074 0.0
C1440 C 0.39848 0.92835 0.06681 0.0
C1441 C 0.36771 0.90787 0.05749 0.0
H1442 H 0.44818 0.96138 0.06464 0.0
C1443 C 0.36462 0.90346 0.038 0.0
H1444 H 0.40218 0.93173 0.08173 0.0
C1445 C 0.39146 0.9199 0.02816 0.0
C1446 C 0.42173 0.94144 0.03761 0.0
H1447 H 0.3413 0.88819 0.03027 0.0
H1448 H 0.38823 0.91705 0.01322 0.0
C1449 C 0.42501 0.94507 0.057 0.0
C1450 C 0.11064 0.4664 0.03546 0.0
C1451 C 0.1135 0.46434 0.05461 0.0
H1452 H 0.08693 0.47537 0.01268 0.0
C1453 C 0.092 0.46831 0.0653 0.0
H1454 H 0.12578 0.4624 0.02654 0.0
C1455 C 0.0688 0.4747 0.0571 0.0
C1456 C 0.06705 0.47796 0.03812 0.0
H1457 H 0.0935 0.46731 0.08007 0.0
H1458 H 0.05287 0.47804 0.0657 0.0
C1459 C 0.0881 0.47359 0.02741 0.0
C1460 C 0.56913 0.65876 0.02134 0.0
C1461 C 0.57894 0.67094 0.04005 0.0
H1462 H 0.5454 0.61655 1.0017 0.0
C1463 C 0.5733 0.64877 0.0533 0.0
H1464 H 0.57359 0.67486 1.01065 0.0
C1465 C 0.55839 0.61557 0.048 0.0
C1466 C 0.54771 0.60372 0.02947 0.0
H1467 H 0.57943 0.65675 0.0679 0.0
H1468 H 0.55418 0.59905 0.05845 0.0
C1469 C 0.55315 0.6254 0.01615 0.0
C1470 C 0.9168 0.36368 0.96243 0.0
C1471 C 0.90046 0.34004 0.97452 0.0
H1472 H 0.9501 0.41383 0.95976 0.0
C1473 C 0.90718 0.34927 0.99364 0.0
H1474 H 0.91205 0.3577 0.94762 0.0
C1475 C 0.92799 0.38152 1.00043 0.0
C1476 C 0.9434 0.4051 0.98833 0.0
H1477 H 0.89601 0.33171 1.00344 0.0
H1478 H 0.93199 0.38809 0.01521 0.0
C1479 C 0.93843 0.39589 0.96931 0.0
C1480 C 0.62802 0.50995 0.98085 0.0
C1481 C 0.64235 0.53587 0.96978 0.0
H1482 H 0.59064 0.48398 0.99812 0.0
C1483 C 0.62786 0.555 0.96738 0.0
H1484 H 0.63772 0.49399 0.98271 0.0
C1485 C 0.60029 0.54869 0.97596 0.0
C1486 C 0.58662 0.52335 0.9874 0.0
H1487 H 0.63819 0.57538 0.95921 0.0
H1488 H 0.59002 0.56414 0.97388 0.0
C1489 C 0.6008 0.50401 0.98968 0.0
C1490 C 0.41482 0.05398 0.9732 0.0
C1491 C 0.42994 0.08797 0.9748 0.0
H1492 H 0.41717 0.01233 0.98024 0.0
C1493 C 0.45983 0.10623 0.98557 0.0
H1494 H 0.39158 0.0392 0.96527 0.0
C1495 C 0.47438 0.09082 0.99438 0.0
C1496 C 0.45946 0.05685 0.99249 0.0
H1497 H 0.47238 0.1325 0.98688 0.0
H1498 H 0.4976 0.10556 1.00234 0.0
C1499 C 0.42944 0.0386 0.98189 0.0
C1500 C 0.63361 0.11312 0.98239 0.0
C1501 C 0.63806 0.09582 0.96753 0.0
H1502 H 0.60509 0.11139 1.00437 0.0
C1503 C 0.6156 0.06249 0.96363 0.0
H1504 H 0.6495 0.13895 0.98566 0.0
C1505 C 0.58945 0.04723 0.97397 0.0
C1506 C 0.58556 0.0645 0.98887 0.0
H1507 H 0.61818 0.04786 0.95273 0.0
H1508 H 0.57235 0.02164 0.97043 0.0
C1509 C 0.60799 0.09748 0.99314 0.0
C1510 C 0.90227 0.54519 0.98159 0.0
C1511 C 0.89748 0.5403 0.96219 0.0
H1512 H 0.9254 0.54072 1.00634 0.0
C1513 C 0.9133 0.52647 0.95291 0.0
H1514 H 0.89095 0.55624 0.98922 0.0
C1515 C 0.93335 0.51778 0.96276 0.0
C1516 C 0.93804 0.52262 0.98216 0.0
H1517 H 0.90988 0.52192 0.93801 0.0
H1518 H 0.94511 0.50719 0.95513 0.0
C1519 C 0.92221 0.53641 0.99143 0.0
C1520 C 0.43167 0.35269 1.00217 0.0
C1521 C 0.43018 0.34183 0.98365 0.0
H1522 H 0.44758 0.3935 0.0222 0.0
C1523 C 0.44403 0.36478 0.97091 0.0
H1524 H 0.42102 0.33556 0.01226 0.0
C1525 C 0.45904 0.39787 0.97654 0.0
C1526 C 0.46069 0.40874 0.99506 0.0
H1527 H 0.44389 0.35721 0.95661 0.0
H1528 H 0.46964 0.41489 0.96639 0.0
C1529 C 0.44681 0.38585 1.00783 0.0
C1530 C 0.09635 0.63226 0.06308 0.0
C1531 C 0.11084 0.65711 0.05148 0.0
H1532 H 0.06289 0.58208 0.06493 0.0
C1533 C 0.10128 0.65012 0.03244 0.0
H1534 H 0.10346 0.63689 0.0778 0.0
C1535 C 0.07826 0.6188 0.02507 0.0
C1536 C 0.06421 0.59376 0.03659 0.0
H1537 H 0.11162 0.6689 0.0232 0.0
H1538 H 0.07171 0.61422 1.0103 0.0
C1539 C 0.07325 0.60085 0.0557 0.0
C1540 C 0.36434 0.46182 0.04174 0.0
C1541 C 0.36829 0.46635 0.0612 0.0
H1542 H 0.38693 0.46729 0.01667 0.0
C1543 C 0.3997 0.48116 0.07016 0.0
H1544 H 0.34051 0.45022 0.03433 0.0
C1545 C 0.42629 0.49108 0.06001 0.0
C1546 C 0.42241 0.48634 0.04057 0.0
H1547 H 0.40384 0.48559 0.08506 0.0
H1548 H 0.44996 0.50248 0.06752 0.0
C1549 C 0.39101 0.47162 0.03157 0.0
C1550 C 0.58316 0.95542 0.05708 0.0
C1551 C 0.5712 0.92218 0.05213 0.0
H1552 H 0.5782 0.99693 0.05321 0.0
C1553 C 0.54529 0.90582 0.03813 0.0
H1554 H 0.60359 0.96923 0.06734 0.0
C1555 C 0.53164 0.92224 0.02948 0.0
C1556 C 0.54298 0.95499 0.03506 0.0
H1557 H 0.53486 0.88013 0.03411 0.0
H1558 H 0.51147 0.90906 0.01896 0.0
C1559 C 0.56887 0.97147 0.04885 0.0
C1560 C 0.04162 0.22301 0.37637 0.0
C1561 C 0.03047 0.2394 0.38785 0.0
H1562 H 0.07542 0.22708 0.35721 0.0
C1563 C 0.04451 0.2731 0.38783 0.0
H1564 H 0.0314 0.197 0.37611 0.0
C1565 C 0.06943 0.29013 0.37702 0.0
C1566 C 0.0812 0.27402 0.36588 0.0
H1567 H 0.03608 0.28644 0.39609 0.0
H1568 H 0.07975 0.31619 0.37763 0.0
C1569 C 0.06674 0.24016 0.36548 0.0
C1570 C 0.75609 0.80278 0.39909 0.0
C1571 C 0.77733 0.79839 0.38835 0.0
H1572 H 0.71673 0.81216 0.39946 0.0
C1573 C 0.77365 0.79923 0.36912 0.0
H1574 H 0.7582 0.8027 0.41392 0.0
C1575 C 0.75064 0.80571 0.36099 0.0
C1576 C 0.7299 0.81054 0.37174 0.0
H1577 H 0.78855 0.79486 0.36018 0.0
H1578 H 0.74888 0.80662 0.34619 0.0
C1579 C 0.7324 0.80843 0.39083 0.0
C1580 C 0.23925 0.98894 0.35592 0.0
C1581 C 0.23988 0.99878 0.3745 0.0
H1582 H 0.22419 0.94923 0.33527 0.0
C1583 C 0.22579 0.97508 0.38682 0.0
H1584 H 0.25021 0.00667 0.34616 0.0
C1585 C 0.21104 0.9422 0.38063 0.0
C1586 C 0.20995 0.93236 0.36199 0.0
H1587 H 0.22542 0.98191 0.40118 0.0
H1588 H 0.20009 0.92452 0.39042 0.0
C1589 C 0.22441 0.95605 0.34971 0.0
C1590 C 0.57984 0.69332 0.29761 0.0
C1591 C 0.56294 0.67018 0.30985 0.0
H1592 H 0.61323 0.74322 0.2945 0.0
C1593 C 0.56822 0.68031 0.32884 0.0
H1594 H 0.5761 0.68671 0.28286 0.0
C1595 C 0.58853 0.71282 0.33532 0.0
C1596 C 0.6048 0.73579 0.32305 0.0
H1597 H 0.55653 0.6632 0.33878 0.0
H1598 H 0.59163 0.72001 0.34999 0.0
C1599 C 0.60094 0.72577 0.3042 0.0
C1600 C 0.27762 0.86038 0.29097 0.0
C1601 C 0.30717 0.87203 0.30177 0.0
H1602 H 0.22704 0.84306 0.29054 0.0
C1603 C 0.30778 0.87614 0.32109 0.0
H1604 H 0.27611 0.85665 0.27609 0.0
C1605 C 0.27962 0.86803 0.32942 0.0
C1606 C 0.24994 0.85572 0.31868 0.0
H1607 H 0.33016 0.88565 0.32988 0.0
H1608 H 0.28121 0.87146 0.34432 0.0
C1609 C 0.24937 0.85231 0.29932 0.0
C1610 C 0.13694 0.43903 0.31362 0.0
C1611 C 0.10722 0.42206 0.30256 0.0
H1612 H 0.17253 0.43586 0.33118 0.0
C1613 C 0.09026 0.38805 0.3011 0.0
H1614 H 0.15078 0.46529 0.31487 0.0
C1615 C 0.10281 0.37133 0.31028 0.0
C1616 C 0.13255 0.38821 0.32125 0.0
H1617 H 0.06702 0.37426 0.29304 0.0
H1618 H 0.08901 0.34506 0.30877 0.0
C1619 C 0.14944 0.42224 0.32295 0.0
C1620 C 0.31023 0.41695 0.32022 0.0
C1621 C 0.30738 0.41726 0.3009 0.0
H1622 H 0.28578 0.40228 0.34456 0.0
C1623 C 0.27649 0.40288 0.29139 0.0
H1624 H 0.33371 0.4276 0.32798 0.0
C1625 C 0.24917 0.38853 0.30088 0.0
C1626 C 0.25189 0.38803 0.32017 0.0
H1627 H 0.27335 0.40319 0.27659 0.0
H1628 H 0.22584 0.37777 0.29297 0.0
C1629 C 0.28278 0.40248 0.32976 0.0
C1630 C 0.57589 0.85774 0.28597 0.0
C1631 C 0.55956 0.87109 0.29515 0.0
H1632 H 0.60791 0.83875 0.28839 0.0
C1633 C 0.56352 0.87526 0.31456 0.0
H1634 H 0.5731 0.85375 0.27106 0.0
C1635 C 0.58326 0.86638 0.32453 0.0
C1636 C 0.59967 0.85314 0.31536 0.0
H1637 H 0.55173 0.88589 0.32211 0.0
H1638 H 0.58587 0.87019 0.33945 0.0
C1639 C 0.59569 0.84889 0.29594 0.0
C1640 C 0.10076 0.69336 0.30306 0.0
C1641 C 0.09713 0.67149 0.31616 0.0
H1642 H 0.11704 0.7427 0.29812 0.0
C1643 C 0.10801 0.68376 0.33479 0.0
H1644 H 0.09373 0.68527 0.28851 0.0
C1645 C 0.12287 0.71702 0.34006 0.0
C1646 C 0.12609 0.73839 0.3269 0.0
H1647 H 0.1051 0.66779 0.34537 0.0
H1648 H 0.13125 0.72597 0.35445 0.0
C1649 C 0.11456 0.72639 0.30845 0.0
C1650 C 0.76165 0.98238 0.36402 0.0
C1651 C 0.77303 0.9896 0.38284 0.0
H1652 H 0.73057 0.94602 0.34239 0.0
C1653 C 0.7604 0.96471 0.39457 0.0
H1654 H 0.77055 1.00114 0.3547 0.0
C1655 C 0.73725 0.93315 0.38756 0.0
C1656 C 0.72637 0.92584 0.36868 0.0
H1657 H 0.769 0.96941 0.4091 0.0
H1658 H 0.72836 0.91441 0.3969 0.0
C1659 C 0.73861 0.95082 0.357 0.0
C1660 C 0.04352 0.82728 0.382 0.0
C1661 C 0.03327 0.80222 0.3938 0.0
H1662 H 0.07582 0.85321 0.36208 0.0
C1663 C 0.04882 0.78383 0.39402 0.0
H1664 H 0.03271 0.84249 0.38157 0.0
C1665 C 0.07381 0.79036 0.38303 0.0
C1666 C 0.08397 0.81528 0.37123 0.0
H1667 H 0.04145 0.76391 0.4025 0.0
H1668 H 0.08513 0.77561 0.38378 0.0
C1669 C 0.06838 0.83358 0.37079 0.0
C1670 C 0.21831 0.26116 0.39499 0.0
C1671 C 0.23558 0.25017 0.38488 0.0
H1672 H 0.18902 0.28319 0.39454 0.0
C1673 C 0.23588 0.25287 0.3658 0.0
H1674 H 0.21705 0.25881 0.40963 0.0
C1675 C 0.21942 0.26652 0.35704 0.0
C1676 C 0.20241 0.27777 0.36722 0.0
H1677 H 0.24916 0.2448 0.35766 0.0
H1678 H 0.22047 0.2687 0.34238 0.0
C1679 C 0.20194 0.27482 0.38627 0.0
C1680 C 0.71386 0.61259 0.7234 0.0
C1681 C 0.70199 0.5793 0.72416 0.0
H1682 H 0.74687 0.65592 0.71236 0.0
C1683 C 0.71478 0.5639 0.71324 0.0
H1684 H 0.7041 0.62512 0.7312 0.0
C1685 C 0.7393 0.58161 0.70211 0.0
C1686 C 0.75153 0.61507 0.70172 0.0
H1687 H 0.70628 0.53825 0.71356 0.0
H1688 H 0.74928 0.56934 0.69428 0.0
C1689 C 0.73822 0.63019 0.71236 0.0
C1690 C 0.43325 0.14758 0.7339 0.0
C1691 C 0.44939 0.13586 0.72317 0.0
H1692 H 0.39837 0.16322 0.73412 0.0
C1693 C 0.44113 0.12966 0.70397 0.0
H1694 H 0.43915 0.15278 0.74871 0.0
C1695 C 0.41806 0.13581 0.69563 0.0
C1696 C 0.4024 0.14823 0.70624 0.0
H1697 H 0.45256 0.11999 0.69532 0.0
H1698 H 0.41266 0.13093 0.68078 0.0
C1699 C 0.41 0.15372 0.72552 0.0
C1700 C 0.90239 0.32985 0.68924 0.0
C1701 C 0.9131 0.34178 0.70793 0.0
H1702 H 0.87854 0.28794 0.66941 0.0
C1703 C 0.90937 0.31959 0.72086 0.0
H1704 H 0.90548 0.34603 0.67877 0.0
C1705 C 0.89518 0.28653 0.71528 0.0
C1706 C 0.88339 0.27485 0.69682 0.0
H1707 H 0.91637 0.32739 0.73543 0.0
H1708 H 0.89227 0.26994 0.72551 0.0
C1709 C 0.88714 0.29662 0.68381 0.0
C1710 C 0.24329 0.03503 0.62926 0.0
C1711 C 0.23338 0.00968 0.6407 0.0
H1712 H 0.27188 0.08612 0.62732 0.0
C1713 C 0.24643 0.01683 0.65922 0.0
H1714 H 0.23338 0.03035 0.61496 0.0
C1715 C 0.2681 0.04872 0.66632 0.0
C1716 C 0.27737 0.07417 0.65502 0.0
H1717 H 0.23976 0.99778 0.66829 0.0
H1718 H 0.27737 0.05341 0.68074 0.0
C1719 C 0.2652 0.067 0.63634 0.0
C1720 C 0.96149 0.17784 0.64744 0.0
C1721 C 0.97586 0.20331 0.63607 0.0
H1722 H 0.92479 0.1533 0.66535 0.0
C1723 C 0.96203 0.22304 0.63376 0.0
H1724 H 0.97062 0.16139 0.64923 0.0
C1725 C 0.93513 0.21782 0.64276 0.0
C1726 C 0.92153 0.19301 0.65454 0.0
H1727 H 0.97239 0.2431 0.62537 0.0
H1728 H 0.92533 0.23368 0.64073 0.0
C1729 C 0.93499 0.17301 0.65669 0.0
C1730 C 0.75859 0.72973 0.6367 0.0
C1731 C 0.77426 0.76374 0.639 0.0
H1732 H 0.75908 0.68705 0.64335 0.0
C1733 C 0.80338 0.78096 0.65058 0.0
H1734 H 0.73584 0.71569 0.6282 0.0
C1735 C 0.8166 0.76445 0.65956 0.0
C1736 C 0.80107 0.73046 0.65699 0.0
H1737 H 0.81625 0.80723 0.65248 0.0
H1738 H 0.8392 0.77833 0.66822 0.0
C1739 C 0.77188 0.71331 0.64552 0.0
C1740 C 0.97106 0.77923 0.65144 0.0
C1741 C 0.97535 0.76195 0.6365 0.0
H1742 H 0.94193 0.7777 0.67305 0.0
C1743 C 0.95272 0.72872 0.63247 0.0
H1744 H 0.98728 0.80498 0.65486 0.0
C1745 C 0.92623 0.71363 0.64254 0.0
C1746 C 0.92209 0.73097 0.6573 0.0
H1747 H 0.9553 0.71414 0.62153 0.0
H1748 H 0.90883 0.68818 0.63877 0.0
C1749 C 0.94496 0.76375 0.66191 0.0
C1750 C 0.23136 0.20674 0.64886 0.0
C1751 C 0.23197 0.20905 0.62967 0.0
H1752 H 0.25014 0.19618 0.6733 0.0
C1753 C 0.25343 0.20232 0.62064 0.0
H1754 H 0.21598 0.21244 0.65656 0.0
C1755 C 0.27388 0.19413 0.63048 0.0
C1756 C 0.27283 0.19153 0.64952 0.0
H1757 H 0.25432 0.20295 0.60589 0.0
H1758 H 0.29017 0.18927 0.6231 0.0
C1759 C 0.25117 0.19762 0.65858 0.0
C1760 C 0.76705 0.02366 0.67026 0.0
C1761 C 0.76487 0.01293 0.65163 0.0
H1762 H 0.7836 0.06443 0.69046 0.0
C1763 C 0.77793 0.03595 0.63886 0.0
H1764 H 0.75706 0.00645 0.68038 0.0
C1765 C 0.79296 0.06898 0.64457 0.0
C1766 C 0.79541 0.07977 0.6632 0.0
H1767 H 0.77728 0.0285 0.62446 0.0
H1768 H 0.80299 0.08603 0.63436 0.0
C1769 C 0.78219 0.05682 0.676 0.0
C1770 C 0.42623 0.30398 0.72782 0.0
C1771 C 0.44615 0.32686 0.71628 0.0
H1772 H 0.38824 0.25534 0.72967 0.0
C1773 C 0.44184 0.31763 0.6972 0.0
H1774 H 0.42912 0.30984 0.74261 0.0
C1775 C 0.41923 0.28608 0.68997 0.0
C1776 C 0.39975 0.26337 0.70156 0.0
H1777 H 0.45597 0.33469 0.68777 0.0
H1778 H 0.41681 0.27947 0.67527 0.0
C1779 C 0.40293 0.27265 0.72048 0.0
C1780 C 0.735 0.15192 0.73752 0.0
C1781 C 0.70358 0.13706 0.72858 0.0
H1782 H 0.78528 0.17331 0.73487 0.0
C1783 C 0.69961 0.13262 0.70912 0.0
H1784 H 0.73919 0.1563 0.75243 0.0
C1785 C 0.72628 0.1426 0.69893 0.0
C1786 C 0.75768 0.15736 0.70792 0.0
H1787 H 0.67578 0.12096 0.7017 0.0
H1788 H 0.72221 0.13835 0.68402 0.0
C1789 C 0.76159 0.16195 0.72737 0.0
C1790 C 0.90456 0.59493 0.7022 0.0
C1791 C 0.90426 0.59236 0.72131 0.0
H1792 H 0.88989 0.61132 0.67878 0.0
C1793 C 0.88799 0.60452 0.73147 0.0
H1794 H 0.91716 0.58603 0.69402 0.0
C1795 C 0.87243 0.61901 0.72276 0.0
C1796 C 0.87277 0.62167 0.70366 0.0
H1797 H 0.88682 0.6024 0.74613 0.0
H1798 H 0.86018 0.62818 0.73106 0.0
C1799 C 0.88894 0.60941 0.69346 0.0
C1800 C 0.46799 0.00797 0.16535 0.0
C1801 C 0.47308 0.98268 0.17044 0.0
H1802 H 0.47302 0.04084 0.14523 0.0
C1803 C 0.48794 0.97142 0.15833 0.0
H1804 H 0.45692 0.01756 0.17434 0.0
C1805 C 0.49755 0.98505 0.14174 0.0
C1806 C 0.49254 0.01037 0.13663 0.0
H1807 H 0.49194 0.95174 0.16155 0.0
H1808 H 0.50926 0.97587 0.13299 0.0
C1809 C 0.47763 0.02165 0.14872 0.0
C1810 C 0.9649 0.46529 0.16621 0.0
C1811 C 0.98329 0.49628 0.17588 0.0
H1812 H 0.94458 0.43771 0.13982 0.0
C1813 C 0.99566 0.52369 0.16599 0.0
H1814 H 0.95506 0.44378 0.17352 0.0
C1815 C 0.98979 0.52025 0.14684 0.0
C1816 C 0.97129 0.48933 0.13714 0.0
H1817 H 0.01032 0.54786 0.17306 0.0
H1818 H 0.99949 0.54186 0.13962 0.0
C1819 C 0.95876 0.46185 0.14699 0.0
C1820 C 0.47568 0.45861 0.16299 0.0
C1821 C 0.48144 0.4884 0.17156 0.0
H1822 H 0.47774 0.43308 0.13834 0.0
C1823 C 0.49176 0.51507 0.16117 0.0
H1824 H 0.46782 0.43773 0.17075 0.0
C1825 C 0.49765 0.51259 0.14287 0.0
C1826 C 0.49327 0.48329 0.13437 0.0
H1827 H 0.49625 0.5383 0.16742 0.0
H1828 H 0.5069 0.53416 0.13564 0.0
C1829 C 0.48171 0.45611 0.14455 0.0
C1830 C 0.00674 0.48499 0.85882 0.0
C1831 C 0.02007 0.51285 0.8493 0.0
H1832 H 1.00182 0.4656 0.88487 0.0
C1833 C 0.03857 0.54345 0.85938 0.0
H1834 H 0.99195 0.4611 0.85144 0.0
C1835 C 0.04408 0.54604 0.8786 0.0
C1836 C 0.03091 0.51809 0.88807 0.0
H1837 H 0.04913 0.56531 0.85238 0.0
H1838 H 0.05845 0.56991 0.88607 0.0
C1839 C 0.01207 0.48758 0.87798 0.0
C1840 C 0.49466 0.51927 0.85485 0.0
C1841 C 0.52359 0.52016 0.85153 0.0
H1842 H 0.46438 0.52023 0.87477 0.0
C1843 C 0.54625 0.52664 0.8666 0.0
H1844 H 0.47681 0.51458 0.8435 0.0
C1845 C 0.53921 0.53013 0.88468 0.0
C1846 C 0.5094 0.52736 0.88804 0.0
H1847 H 0.56868 0.52732 0.86447 0.0
H1848 H 0.55681 0.53427 0.89604 0.0
C1849 C 0.48763 0.52275 0.87283 0.0
C1850 C 0.54681 0.04007 0.86951 0.0
C1851 C 0.52263 0.02752 0.85457 0.0
H1852 H 0.55928 0.03817 0.898 0.0
C1853 C 0.49219 1.00132 0.85708 0.0
H1854 H 0.57046 0.0603 0.8681 0.0
C1855 C 0.48569 0.98876 0.87417 0.0
C1856 C 0.50941 1.00202 0.88936 0.0
H1857 H 0.47305 0.9908 0.84584 0.0
H1858 H 0.46164 0.96928 0.87561 0.0
C1859 C 0.54024 0.02759 0.88672 0.0
C1860 C 0.11456 0.30085 0.48719 0.0
C1861 C 0.13758 0.3105 0.50259 0.0
H1862 H 0.10506 0.30547 0.45876 0.0
C1863 C 0.16977 0.33351 0.50055 0.0
H1864 H 0.0896 0.28301 0.48809 0.0
C1865 C 0.17874 0.34616 0.48364 0.0
C1866 C 0.15582 0.33625 0.46816 0.0
H1867 H 0.1882 0.34195 0.5121 0.0
H1868 H 0.20387 0.36333 0.48264 0.0
C1869 C 0.12354 0.31348 0.47023 0.0
C1870 C 0.66922 0.8646 0.49901 0.0
C1871 C 0.65651 0.83819 0.50966 0.0
H1872 H 0.67191 0.88066 0.4721 0.0
C1873 C 0.63653 0.80674 0.50082 0.0
H1874 H 0.68503 0.88907 0.50544 0.0
C1875 C 0.62905 0.80192 0.48166 0.0
C1876 C 0.64177 0.82842 0.47105 0.0
H1877 H 0.62638 0.78599 0.50873 0.0
H1878 H 0.61356 0.77747 0.47514 0.0
C1879 C 0.66199 0.85977 0.47991 0.0
C1880 C 0.13504 0.79968 0.49408 0.0
C1881 C 0.13356 0.82739 0.49998 0.0
H1882 H 0.14465 0.77475 0.47212 0.0
C1883 C 0.13793 0.85017 0.48747 0.0
H1884 H 0.13212 0.78201 0.50358 0.0
C1885 C 0.14521 0.84622 0.46965 0.0
C1886 C 0.14855 0.81947 0.46393 0.0
H1887 H 0.13717 0.87188 0.49181 0.0
H1888 H 0.14991 0.86507 0.46067 0.0
C1889 C 0.14262 0.79581 0.4762 0.0
C1890 C 0.66695 0.81211 0.19201 0.0
C1891 C 0.67992 0.83984 0.18238 0.0
H1892 H 0.66238 0.79316 0.21819 0.0
C1893 C 0.69807 0.87059 0.19232 0.0
H1894 H 0.65246 0.78811 0.18471 0.0
C1895 C 0.70365 0.87348 0.21154 0.0
C1896 C 0.69088 0.84568 0.22114 0.0
H1897 H 0.70836 0.89233 0.18522 0.0
H1898 H 0.7178 0.89747 0.21891 0.0
C1899 C 0.67232 0.81501 0.21118 0.0
C1900 C 0.15931 0.85532 0.18729 0.0
C1901 C 0.18875 0.85754 0.18378 0.0
H1902 H 0.12923 0.85593 0.20744 0.0
C1903 C 0.21259 0.86668 0.19861 0.0
H1904 H 0.14057 0.84866 0.17611 0.0
C1905 C 0.20619 0.87119 0.21671 0.0
C1906 C 0.17585 0.86675 0.22033 0.0
H1907 H 0.23547 0.86853 0.19635 0.0
H1908 H 0.22466 0.87715 0.22791 0.0
C1909 C 0.15291 0.85979 0.20529 0.0
C1910 C 0.20795 0.36748 0.20099 0.0
C1911 C 0.18496 0.35252 0.18552 0.0
H1912 H 0.21935 0.36757 0.22995 0.0
C1913 C 0.1558 0.32422 0.18758 0.0
H1914 H 0.23054 0.38941 0.19992 0.0
C1915 C 0.14942 0.31165 0.20469 0.0
C1916 C 0.17185 0.32721 0.22036 0.0
H1917 H 0.13761 0.31198 0.17593 0.0
H1918 H 0.1264 0.29025 0.20577 0.0
C1919 C 0.20137 0.35514 0.21823 0.0
C1920 C 0.81679 0.63281 0.82409 0.0
C1921 C 0.80376 0.64516 0.83686 0.0
H1922 H 0.83597 0.63632 0.79804 0.0
C1923 C 0.79991 0.67147 0.83242 0.0
H1924 H 0.81985 0.6124 0.82691 0.0
C1925 C 0.80915 0.68522 0.81577 0.0
C1926 C 0.82218 0.67284 0.803 0.0
H1927 H 0.79022 0.68181 0.84195 0.0
H1928 H 0.80575 0.70538 0.8128 0.0
C1929 C 0.82576 0.64636 0.80741 0.0
C1930 C 0.33622 0.1926 0.83235 0.0
C1931 C 0.32187 0.16588 0.8427 0.0
H1932 H 0.34116 0.20966 0.80565 0.0
C1933 C 0.30158 0.13482 0.83348 0.0
H1934 H 0.35235 0.21678 0.83908 0.0
C1935 C 0.29527 0.13071 0.81425 0.0
C1936 C 0.30944 0.15756 0.80395 0.0
H1937 H 0.29019 0.11384 0.84114 0.0
H1938 H 0.27945 0.10654 0.80744 0.0
C1939 C 0.33011 0.18849 0.8132 0.0
C1940 C 0.78947 0.14332 0.82341 0.0
C1941 C 0.81137 0.14639 0.83811 0.0
H1942 H 0.77922 0.13945 0.79407 0.0
C1943 C 0.83849 0.14411 0.83417 0.0
H1944 H 0.76843 0.14509 0.82603 0.0
C1945 C 0.84489 0.14124 0.81597 0.0
C1946 C 0.82429 0.14056 0.8012 0.0
H1947 H 0.85567 0.14614 0.84525 0.0
H1948 H 0.86704 0.14155 0.81356 0.0
C1949 C 0.79591 0.1405 0.80512 0.0
C1950 C 0.32994 0.14679 0.52632 0.0
C1951 C 0.34573 0.17348 0.51612 0.0
H1952 H 0.32401 0.12926 0.5529 0.0
C1953 C 0.36734 0.20411 0.52543 0.0
H1954 H 0.31285 0.12298 0.51947 0.0
C1955 C 0.37375 0.20771 0.54464 0.0
C1956 C 0.35827 0.18083 0.55479 0.0
H1957 H 0.37978 0.22503 0.51784 0.0
H1958 H 0.3908 0.23147 0.55156 0.0
C1959 C 0.33608 0.15043 0.54545 0.0
C1960 C 0.85983 0.1534 0.5344 0.0
C1961 C 0.86575 0.17624 0.52167 0.0
H1962 H 0.84704 0.1396 0.56128 0.0
C1963 C 0.86573 0.20489 0.52726 0.0
H1964 H 0.85954 0.13102 0.53036 0.0
C1965 C 0.85829 0.20979 0.54505 0.0
C1966 C 0.85112 0.18626 0.55757 0.0
H1967 H 0.8699 0.22268 0.51762 0.0
H1968 H 0.85759 0.23169 0.54889 0.0
C1969 C 0.85272 0.15838 0.55212 0.0
C1970 C 0.87888 0.70737 0.53572 0.0
C1971 C 0.85453 0.69399 0.52084 0.0
H1972 H 0.89212 0.70633 0.56422 0.0
C1973 C 0.82456 0.66726 0.52357 0.0
H1974 H 0.90219 0.72803 0.53417 0.0
C1975 C 0.81869 0.65494 0.54077 0.0
C1976 C 0.84258 0.66896 0.55587 0.0
H1977 H 0.80531 0.65604 0.51241 0.0
H1978 H 0.79497 0.63498 0.54234 0.0
C1979 C 0.87294 0.69514 0.55303 0.0
loop_
_geom_bond_atom_site_label_1
_geom_bond_atom_site_label_2
_geom_bond_distance
_geom_bond_site_symmetry_2
_ccdc_geom_bond_type
C0 C1 1.391 . S
C0 C4 1.391 . S
C0 H42 0.948 . S
C1 C0 1.391 . S
C1 C2 1.391 . S
C2 C1 1.391 . S
C2 H58 0.947 . S
C2 C59 1.392 . S
C3 C4 1.391 . S
C3 C7 1.397 . S
C3 C59 1.419 . S
C4 C0 1.391 . S
C4 C3 1.391 . S
C4 C5 1.399 . S
C5 C4 1.399 . S
C5 C8 1.396 . S
C5 C17 1.453 . S
C5 C18 1.684 . S
H6 C30 0.948 . S
C7 C3 1.397 . S
C7 C8 1.394 . S
C7 C26 1.723 . S
C8 C5 1.396 . S
C8 C7 1.394 . S
C8 C38 1.723 . S
H9 C32 0.947 . S
H10 C33 0.948 . S
H11 C39 0.982 . S
H12 C40 0.979 . S
H13 C40 0.980 . S
H14 C40 0.983 . S
H15 C39 0.979 . S
H16 C39 0.977 . S
C17 C5 1.453 . S
C17 H46 0.982 . S
C17 H47 0.979 . S
C17 H48 0.977 . S
C18 C5 1.684 . S
C18 H43 0.979 . S
C18 H44 0.980 . S
C18 H45 0.983 . S
C19 C20 1.391 . S
C19 C24 1.391 . S
C19 H49 0.948 . S
C20 C19 1.391 . S
C20 C21 1.391 . S
C21 C20 1.391 . S
C21 C22 1.392 . S
C21 H50 0.947 . S
C22 C21 1.392 . S
C22 C23 1.419 . S
C22 H51 0.948 . S
C23 C22 1.419 . S
C23 C24 1.391 . S
C23 C27 1.397 . S
C24 C19 1.391 . S
C24 C23 1.391 . S
C24 C25 1.399 . S
C25 C24 1.399 . S
C25 C26 1.396 . S
C25 C28 1.453 . S
C25 C29 1.684 . S
C26 C7 1.723 . S
C26 C25 1.396 . S
C26 C27 1.394 . S
C27 C23 1.397 . S
C27 C26 1.394 . S
C27 C37 1.723 . S
C28 C25 1.453 . S
C28 H52 0.982 . S
C28 H53 0.979 . S
C28 H54 0.977 . S
C29 C25 1.684 . S
C29 H55 0.979 . S
C29 H56 0.980 . S
C29 H57 0.983 . S
C30 H6 0.948 . S
C30 C31 1.391 . S
C30 C35 1.391 . S
C31 C30 1.391 . S
C31 C32 1.391 . S
C32 H9 0.947 . S
C32 C31 1.391 . S
C32 C33 1.392 . S
C33 H10 0.948 . S
C33 C32 1.392 . S
C33 C34 1.419 . S
C34 C33 1.419 . S
C34 C35 1.391 . S
C34 C38 1.397 . S
C35 C30 1.391 . S
C35 C34 1.391 . S
C35 C36 1.399 . S
C36 C35 1.399 . S
C36 C37 1.396 . S
C36 C39 1.453 . S
C36 C40 1.684 . S
C37 C27 1.723 . S
C37 C36 1.396 . S
C37 C38 1.394 . S
C38 C8 1.723 . S
C38 C34 1.397 . S
C38 C37 1.394 . S
C39 H11 0.982 . S
C39 H15 0.979 . S
C39 H16 0.977 . S
C39 C36 1.453 . S
C40 H12 0.979 . S
C40 H13 0.980 . S
C40 H14 0.983 . S
C40 C36 1.684 . S
H41 C59 0.948 . S
H42 C0 0.948 . S
H43 C18 0.979 . S
H44 C18 0.980 . S
H45 C18 0.983 . S
H46 C17 0.982 . S
H47 C17 0.979 . S
H48 C17 0.977 . S
H49 C19 0.948 . S
H50 C21 0.947 . S
H51 C22 0.948 . S
H52 C28 0.982 . S
H53 C28 0.979 . S
H54 C28 0.977 . S
H55 C29 0.979 . S
H56 C29 0.980 . S
H57 C29 0.983 . S
H58 C2 0.947 . S
C59 C2 1.392 . S
C59 C3 1.419 . S
C59 H41 0.948 . S
C60 C61 1.391 . S
C60 C64 1.391 . S
C60 H102 0.948 . S
C61 C60 1.391 . S
C61 C62 1.391 . S
C62 C61 1.391 . S
C62 H118 0.947 . S
C62 C119 1.392 . S
C63 C64 1.391 . S
C63 C67 1.397 . S
C63 C119 1.419 . S
C64 C60 1.391 . S
C64 C63 1.391 . S
C64 C65 1.399 . S
C65 C64 1.399 . S
C65 C68 1.396 . S
C65 C77 1.453 . S
C65 C78 1.684 . S
H66 C90 0.948 . S
C67 C63 1.397 . S
C67 C68 1.394 . S
C67 C86 1.723 . S
C68 C65 1.396 . S
C68 C67 1.394 . S
C68 C98 1.723 . S
H69 C92 0.947 . S
H70 C93 0.948 . S
H71 C99 0.982 . S
H72 C100 0.979 . S
H73 C100 0.980 . S
H74 C100 0.983 . S
H75 C99 0.979 . S
H76 C99 0.977 . S
C77 C65 1.453 . S
C77 H106 0.982 . S
C77 H107 0.979 . S
C77 H108 0.977 . S
C78 C65 1.684 . S
C78 H103 0.979 . S
C78 H104 0.980 . S
C78 H105 0.983 . S
C79 C80 1.391 . S
C79 C84 1.391 . S
C79 H109 0.948 . S
C80 C79 1.391 . S
C80 C81 1.391 . S
C81 C80 1.391 . S
C81 C82 1.392 . S
C81 H110 0.947 . S
C82 C81 1.392 . S
C82 C83 1.419 . S
C82 H111 0.948 . S
C83 C82 1.419 . S
C83 C84 1.391 . S
C83 C87 1.397 . S
C84 C79 1.391 . S
C84 C83 1.391 . S
C84 C85 1.399 . S
C85 C84 1.399 . S
C85 C86 1.396 . S
C85 C88 1.453 . S
C85 C89 1.684 . S
C86 C67 1.723 . S
C86 C85 1.396 . S
C86 C87 1.394 . S
C87 C83 1.397 . S
C87 C86 1.394 . S
C87 C97 1.723 . S
C88 C85 1.453 . S
C88 H112 0.982 . S
C88 H113 0.979 . S
C88 H114 0.977 . S
C89 C85 1.684 . S
C89 H115 0.979 . S
C89 H116 0.980 . S
C89 H117 0.983 . S
C90 H66 0.948 . S
C90 C91 1.391 . S
C90 C95 1.391 . S
C91 C90 1.391 . S
C91 C92 1.391 . S
C92 H69 0.947 . S
C92 C91 1.391 . S
C92 C93 1.392 . S
C93 H70 0.948 . S
C93 C92 1.392 . S
C93 C94 1.419 . S
C94 C93 1.419 . S
C94 C95 1.391 . S
C94 C98 1.397 . S
C95 C90 1.391 . S
C95 C94 1.391 . S
C95 C96 1.399 . S
C96 C95 1.399 . S
C96 C97 1.396 . S
C96 C99 1.453 . S
C96 C100 1.684 . S
C97 C87 1.723 . S
C97 C96 1.396 . S
C97 C98 1.394 . S
C98 C68 1.723 . S
C98 C94 1.397 . S
C98 C97 1.394 . S
C99 H71 0.982 . S
C99 H75 0.979 . S
C99 H76 0.977 . S
C99 C96 1.453 . S
C100 H72 0.979 . S
C100 H73 0.980 . S
C100 H74 0.983 . S
C100 C96 1.684 . S
H101 C119 0.948 . S
H102 C60 0.948 . S
H103 C78 0.979 . S
H104 C78 0.980 . S
H105 C78 0.983 . S
H106 C77 0.982 . S
H107 C77 0.979 . S
H108 C77 0.977 . S
H109 C79 0.948 . S
H110 C81 0.947 . S
H111 C82 0.948 . S
H112 C88 0.982 . S
H113 C88 0.979 . S
H114 C88 0.977 . S
H115 C89 0.979 . S
H116 C89 0.980 . S
H117 C89 0.983 . S
H118 C62 0.947 . S
C119 C62 1.392 . S
C119 C63 1.419 . S
C119 H101 0.948 . S
C120 C121 1.391 . S
C120 C124 1.391 . S
C120 H162 0.948 . S
C121 C120 1.391 . S
C121 C122 1.391 . S
C122 C121 1.391 . S
C122 H178 0.947 1_655 S
C122 C179 1.392 . S
C123 C124 1.391 . S
C123 C127 1.397 . S
C123 C179 1.419 . S
C124 C120 1.391 . S
C124 C123 1.391 . S
C124 C125 1.399 . S
C125 C124 1.399 . S
C125 C128 1.396 . S
C125 C137 1.453 . S
C125 C138 1.684 . S
H126 C150 0.948 . S
C127 C123 1.397 . S
C127 C128 1.394 . S
C127 C146 1.723 . S
C128 C125 1.396 . S
C128 C127 1.394 . S
C128 C158 1.723 . S
H129 C152 0.947 . S
H130 C153 0.948 . S
H131 C159 0.982 . S
H132 C160 0.979 . S
H133 C160 0.980 . S
H134 C160 0.983 . S
H135 C159 0.979 . S
H136 C159 0.977 . S
C137 C125 1.453 . S
C137 H166 0.982 . S
C137 H167 0.979 . S
C137 H168 0.977 . S
C138 C125 1.684 . S
C138 H163 0.979 . S
C138 H164 0.980 . S
C138 H165 0.983 . S
C139 C140 1.391 . S
C139 C144 1.391 . S
C139 H169 0.948 . S
C140 C139 1.391 . S
C140 C141 1.391 . S
C141 C140 1.391 . S
C141 C142 1.392 . S
C141 H170 0.947 . S
C142 C141 1.392 . S
C142 C143 1.419 . S
C142 H171 0.948 . S
C143 C142 1.419 . S
C143 C144 1.391 . S
C143 C147 1.397 . S
C144 C139 1.391 . S
C144 C143 1.391 . S
C144 C145 1.399 . S
C145 C144 1.399 . S
C145 C146 1.396 . S
C145 C148 1.453 . S
C145 C149 1.684 . S
C146 C127 1.723 . S
C146 C145 1.396 . S
C146 C147 1.394 . S
C147 C143 1.397 . S
C147 C146 1.394 . S
C147 C157 1.723 . S
C148 C145 1.453 . S
C148 H172 0.982 . S
C148 H173 0.979 . S
C148 H174 0.977 . S
C149 C145 1.684 . S
C149 H175 0.979 . S
C149 H176 0.980 . S
C149 H177 0.983 . S
C150 H126 0.948 . S
C150 C151 1.391 . S
C150 C155 1.391 . S
C151 C150 1.391 . S
C151 C152 1.391 . S
C152 H129 0.947 . S
C152 C151 1.391 . S
C152 C153 1.392 . S
C153 H130 0.948 . S
C153 C152 1.392 . S
C153 C154 1.419 . S
C154 C153 1.419 . S
C154 C155 1.391 . S
C154 C158 1.397 . S
C155 C150 1.391 . S
C155 C154 1.391 . S
C155 C156 1.399 . S
C156 C155 1.399 . S
C156 C157 1.396 . S
C156 C159 1.453 . S
C156 C160 1.684 . S
C157 C147 1.723 . S
C157 C156 1.396 . S
C157 C158 1.394 . S
C158 C128 1.723 . S
C158 C154 1.397 . S
C158 C157 1.394 . S
C159 H131 0.982 . S
C159 H135 0.979 . S
C159 H136 0.977 . S
C159 C156 1.453 . S
C160 H132 0.979 . S
C160 H133 0.980 . S
C160 H134 0.983 . S
C160 C156 1.684 . S
H161 C179 0.948 . S
H162 C120 0.948 . S
H163 C138 0.979 . S
H164 C138 0.980 . S
H165 C138 0.983 . S
H166 C137 0.982 . S
H167 C137 0.979 . S
H168 C137 0.977 . S
H169 C139 0.948 . S
H170 C141 0.947 . S
H171 C142 0.948 . S
H172 C148 0.982 . S
H173 C148 0.979 . S
H174 C148 0.977 . S
H175 C149 0.979 . S
H176 C149 0.980 . S
H177 C149 0.983 . S
H178 C122 0.947 1_455 S
C179 C122 1.392 . S
C179 C123 1.419 . S
C179 H161 0.948 . S
C180 C181 1.391 . S
C180 C184 1.391 . S
C180 H222 0.948 . S
C181 C180 1.391 . S
C181 C182 1.391 . S
C182 C181 1.391 . S
C182 H238 0.947 . S
C182 C239 1.392 . S
C183 C184 1.391 . S
C183 C187 1.397 . S
C183 C239 1.419 . S
C184 C180 1.391 . S
C184 C183 1.391 . S
C184 C185 1.399 . S
C185 C184 1.399 . S
C185 C188 1.396 . S
C185 C197 1.453 . S
C185 C198 1.684 . S
H186 C210 0.918 1_655 S
C187 C183 1.397 . S
C187 C188 1.394 . S
C187 C206 1.723 . S
C188 C185 1.396 . S
C188 C187 1.394 . S
C188 C218 1.723 . S
H189 C212 0.947 . S
H190 C213 0.948 . S
H191 C219 0.982 . S
H192 C220 0.979 . S
H193 C220 0.980 . S
H194 C220 0.983 . S
H195 C219 0.979 . S
H196 C219 0.977 . S
C197 C185 1.453 . S
C197 H226 0.982 . S
C197 H227 0.979 . S
C197 H228 0.977 . S
C198 C185 1.684 . S
C198 H223 0.979 . S
C198 H224 0.980 . S
C198 H225 0.983 . S
C199 C200 1.391 . S
C199 C204 1.391 . S
C199 H229 0.948 . S
C200 C199 1.391 . S
C200 C201 1.391 . S
C201 C200 1.391 . S
C201 C202 1.392 . S
C201 H230 0.947 . S
C202 C201 1.392 . S
C202 C203 1.419 . S
C202 H231 0.948 . S
C203 C202 1.419 . S
C203 C204 1.391 . S
C203 C207 1.397 . S
C204 C199 1.391 . S
C204 C203 1.391 . S
C204 C205 1.399 . S
C205 C204 1.399 . S
C205 C206 1.396 . S
C205 C208 1.453 . S
C205 C209 1.684 . S
C206 C187 1.723 . S
C206 C205 1.396 . S
C206 C207 1.394 . S
C207 C203 1.397 . S
C207 C206 1.394 . S
C207 C217 1.723 . S
C208 C205 1.453 . S
C208 H232 0.982 . S
C208 H233 0.979 . S
C208 H234 0.977 . S
C209 C205 1.684 . S
C209 H235 0.979 . S
C209 H236 0.980 . S
C209 H237 0.983 . S
C210 H186 0.918 1_455 S
C210 C211 1.391 . S
C210 C215 1.391 . S
C211 C210 1.391 . S
C211 C212 1.391 . S
C212 H189 0.947 . S
C212 C211 1.391 . S
C212 C213 1.392 . S
C213 H190 0.948 . S
C213 C212 1.392 . S
C213 C214 1.419 . S
C214 C213 1.419 . S
C214 C215 1.391 . S
C214 C218 1.397 . S
C215 C210 1.391 . S
C215 C214 1.391 . S
C215 C216 1.399 . S
C216 C215 1.399 . S
C216 C217 1.396 . S
C216 C219 1.453 . S
C216 C220 1.684 . S
C217 C207 1.723 . S
C217 C216 1.396 . S
C217 C218 1.394 . S
C218 C188 1.723 . S
C218 C214 1.397 . S
C218 C217 1.394 . S
C219 H191 0.982 . S
C219 H195 0.979 . S
C219 H196 0.977 . S
C219 C216 1.453 . S
C220 H192 0.979 . S
C220 H193 0.980 . S
C220 H194 0.983 . S
C220 C216 1.684 . S
H221 C239 0.948 . S
H222 C180 0.948 . S
H223 C198 0.979 . S
H224 C198 0.980 . S
H225 C198 0.983 . S
H226 C197 0.982 . S
H227 C197 0.979 . S
H228 C197 0.977 . S
H229 C199 0.948 . S
H230 C201 0.947 . S
H231 C202 0.948 . S
H232 C208 0.982 . S
H233 C208 0.979 . S
H234 C208 0.977 . S
H235 C209 0.979 . S
H236 C209 0.980 . S
H237 C209 0.983 . S
H238 C182 0.947 . S
C239 C182 1.392 . S
C239 C183 1.419 . S
C239 H221 0.948 . S
C240 C241 1.391 . S
C240 C244 1.391 . S
C240 H282 0.948 . S
C241 C240 1.391 . S
C241 C242 1.391 . S
C242 C241 1.391 . S
C242 H298 0.947 . S
C242 C299 1.392 . S
C243 C244 1.391 . S
C243 C247 1.397 . S
C243 C299 1.419 . S
C244 C240 1.391 . S
C244 C243 1.391 . S
C244 C245 1.399 . S
C245 C244 1.399 . S
C245 C248 1.396 . S
C245 C257 1.453 . S
C245 C258 1.684 . S
H246 C270 0.948 . S
C247 C243 1.397 . S
C247 C248 1.394 . S
C247 C266 1.723 . S
C248 C245 1.396 . S
C248 C247 1.394 . S
C248 C278 1.723 . S
H249 C272 0.947 . S
H250 C273 0.948 . S
H251 C279 0.982 . S
H252 C280 0.979 . S
H253 C280 0.980 . S
H254 C280 0.983 . S
H255 C279 0.979 . S
H256 C279 0.977 . S
C257 C245 1.453 . S
C257 H286 0.982 . S
C257 H287 0.979 . S
C257 H288 0.977 . S
C258 C245 1.684 . S
C258 H283 0.979 . S
C258 H284 0.980 . S
C258 H285 0.983 . S
C259 C260 1.391 . S
C259 C264 1.391 . S
C259 H289 0.948 . S
C260 C259 1.391 . S
C260 C261 1.391 . S
C261 C260 1.391 . S
C261 C262 1.392 . S
C261 H290 0.947 . S
C262 C261 1.392 . S
C262 C263 1.419 . S
C262 H291 0.948 . S
C263 C262 1.419 . S
C263 C264 1.391 . S
C263 C267 1.397 . S
C264 C259 1.391 . S
C264 C263 1.391 . S
C264 C265 1.399 . S
C265 C264 1.399 . S
C265 C266 1.396 . S
C265 C268 1.453 . S
C265 C269 1.684 . S
C266 C247 1.723 . S
C266 C265 1.396 . S
C266 C267 1.394 . S
C267 C263 1.397 . S
C267 C266 1.394 . S
C267 C277 1.723 . S
C268 C265 1.453 . S
C268 H292 0.982 . S
C268 H293 0.979 . S
C268 H294 0.977 . S
C269 C265 1.684 . S
C269 H295 0.979 . S
C269 H296 0.980 . S
C269 H297 0.983 . S
C270 H246 0.948 . S
C270 C271 1.391 . S
C270 C275 1.391 . S
C271 C270 1.391 . S
C271 C272 1.391 . S
C272 H249 0.947 . S
C272 C271 1.391 . S
C272 C273 1.392 . S
C273 H250 0.948 . S
C273 C272 1.392 . S
C273 C274 1.419 . S
C274 C273 1.419 . S
C274 C275 1.391 . S
C274 C278 1.397 . S
C275 C270 1.391 . S
C275 C274 1.391 . S
C275 C276 1.399 . S
C276 C275 1.399 . S
C276 C277 1.396 . S
C276 C279 1.453 . S
C276 C280 1.684 . S
C277 C267 1.723 . S
C277 C276 1.396 . S
C277 C278 1.394 . S
C278 C248 1.723 . S
C278 C274 1.397 . S
C278 C277 1.394 . S
C279 H251 0.982 . S
C279 H255 0.979 . S
C279 H256 0.977 . S
C279 C276 1.453 . S
C280 H252 0.979 . S
C280 H253 0.980 . S
C280 H254 0.983 . S
C280 C276 1.684 . S
H281 C299 0.948 . S
H282 C240 0.948 . S
H283 C258 0.979 . S
H284 C258 0.980 . S
H285 C258 0.983 . S
H286 C257 0.982 . S
H287 C257 0.979 . S
H288 C257 0.977 . S
H289 C259 0.948 . S
H290 C261 0.947 . S
H291 C262 0.948 . S
H292 C268 0.982 . S
H293 C268 0.979 . S
H294 C268 0.977 . S
H295 C269 0.979 . S
H296 C269 0.980 . S
H297 C269 0.983 . S
H298 C242 0.947 . S
C299 C242 1.392 . S
C299 C243 1.419 . S
C299 H281 0.948 . S
C300 C301 1.391 . S
C300 C304 1.391 . S
C300 H342 0.948 . S
C301 C300 1.391 . S
C301 C302 1.391 . S
C302 C301 1.391 . S
C302 H358 0.947 . S
C302 C359 1.392 . S
C303 C304 1.391 . S
C303 C307 1.397 . S
C303 C359 1.419 . S
C304 C300 1.391 . S
C304 C303 1.391 . S
C304 C305 1.399 . S
C305 C304 1.399 . S
C305 C308 1.396 . S
C305 C317 1.453 . S
C305 C318 1.684 . S
H306 C330 0.948 . S
C307 C303 1.397 . S
C307 C308 1.394 . S
C307 C326 1.723 . S
C308 C305 1.396 . S
C308 C307 1.394 . S
C308 C338 1.723 . S
H309 C332 0.947 . S
H310 C333 0.948 . S
H311 C339 0.982 . S
H312 C340 0.979 . S
H313 C340 0.980 . S
H314 C340 0.983 . S
H315 C339 0.979 . S
H316 C339 0.977 . S
C317 C305 1.453 . S
C317 H346 0.982 . S
C317 H347 0.979 . S
C317 H348 0.977 . S
C318 C305 1.684 . S
C318 H343 0.979 . S
C318 H344 0.980 . S
C318 H345 0.983 . S
C319 C320 1.391 . S
C319 C324 1.391 . S
C319 H349 0.948 . S
C320 C319 1.391 . S
C320 C321 1.391 . S
C321 C320 1.391 . S
C321 C322 1.392 . S
C321 H350 0.947 . S
C322 C321 1.392 . S
C322 C323 1.419 . S
C322 H351 0.948 . S
C323 C322 1.419 . S
C323 C324 1.391 . S
C323 C327 1.397 . S
C324 C319 1.391 . S
C324 C323 1.391 . S
C324 C325 1.399 . S
C325 C324 1.399 . S
C325 C326 1.396 . S
C325 C328 1.453 . S
C325 C329 1.684 . S
C326 C307 1.723 . S
C326 C325 1.396 . S
C326 C327 1.394 . S
C327 C323 1.397 . S
C327 C326 1.394 . S
C327 C337 1.723 . S
C328 C325 1.453 . S
C328 H352 0.982 . S
C328 H353 0.979 . S
C328 H354 0.977 . S
C329 C325 1.684 . S
C329 H355 0.979 . S
C329 H356 0.980 . S
C329 H357 0.983 . S
C330 H306 0.948 . S
C330 C331 1.391 . S
C330 C335 1.391 . S
C331 C330 1.391 . S
C331 C332 1.391 . S
C332 H309 0.947 . S
C332 C331 1.391 . S
C332 C333 1.392 . S
C333 H310 0.948 . S
C333 C332 1.392 . S
C333 C334 1.419 . S
C334 C333 1.419 . S
C334 C335 1.391 . S
C334 C338 1.397 . S
C335 C330 1.391 . S
C335 C334 1.391 . S
C335 C336 1.399 . S
C336 C335 1.399 . S
C336 C337 1.396 . S
C336 C339 1.453 . S
C336 C340 1.684 . S
C337 C327 1.723 . S
C337 C336 1.396 . S
C337 C338 1.394 . S
C338 C308 1.723 . S
C338 C334 1.397 . S
C338 C337 1.394 . S
C339 H311 0.982 . S
C339 H315 0.979 . S
C339 H316 0.977 . S
C339 C336 1.453 . S
C340 H312 0.979 . S
C340 H313 0.980 . S
C340 H314 0.983 . S
C340 C336 1.684 . S
H341 C359 0.948 . S
H342 C300 0.948 . S
H343 C318 0.979 . S
H344 C318 0.980 . S
H345 C318 0.983 . S
H346 C317 0.982 . S
H347 C317 0.979 . S
H348 C317 0.977 . S
H349 C319 0.948 . S
H350 C321 0.947 . S
H351 C322 0.948 . S
H352 C328 0.982 . S
H353 C328 0.979 . S
H354 C328 0.977 . S
H355 C329 0.979 . S
H356 C329 0.980 . S
H357 C329 0.983 . S
H358 C302 0.947 . S
C359 C302 1.392 . S
C359 C303 1.419 . S
C359 H341 0.948 . S
C360 C361 1.391 . S
C360 C364 1.391 . S
C360 H402 0.948 . S
C361 C360 1.391 . S
C361 C362 1.391 . S
C362 C361 1.391 . S
C362 H418 0.947 . S
C362 C419 1.392 . S
C363 C364 1.391 . S
C363 C367 1.397 . S
C363 C419 1.419 . S
C364 C360 1.391 . S
C364 C363 1.391 . S
C364 C365 1.399 . S
C365 C364 1.399 . S
C365 C368 1.396 . S
C365 C377 1.453 . S
C365 C378 1.684 . S
H366 C390 0.948 . S
C367 C363 1.397 . S
C367 C368 1.394 . S
C367 C386 1.723 . S
C368 C365 1.396 . S
C368 C367 1.394 . S
C368 C398 1.723 . S
H369 C392 0.947 . S
H370 C393 0.948 . S
H371 C399 0.982 1_455 S
H372 C400 0.979 . S
H373 C400 0.980 . S
H374 C400 0.983 . S
H375 C399 0.979 . S
H376 C399 0.977 . S
C377 C365 1.453 . S
C377 H406 0.982 . S
C377 H407 0.979 . S
C377 H408 0.977 . S
C378 C365 1.684 . S
C378 H403 0.979 . S
C378 H404 0.980 . S
C378 H405 0.983 . S
C379 C380 1.391 . S
C379 C384 1.391 . S
C379 H409 0.948 . S
C380 C379 1.391 . S
C380 C381 1.391 . S
C381 C380 1.391 . S
C381 C382 1.392 . S
C381 H410 0.947 . S
C382 C381 1.392 . S
C382 C383 1.419 . S
C382 H411 0.948 . S
C383 C382 1.419 . S
C383 C384 1.391 . S
C383 C387 1.397 . S
C384 C379 1.391 . S
C384 C383 1.391 . S
C384 C385 1.399 . S
C385 C384 1.399 . S
C385 C386 1.396 . S
C385 C388 1.456 . S
C385 C389 1.684 . S
C386 C367 1.723 . S
C386 C385 1.396 . S
C386 C387 1.394 . S
C387 C383 1.397 . S
C387 C386 1.394 . S
C387 C397 1.723 . S
C388 C385 1.456 . S
C388 H412 0.974 1_655 S
C388 H413 0.980 1_655 S
C388 H414 0.981 . S
C389 C385 1.684 . S
C389 H415 0.979 . S
C389 H416 0.980 . S
C389 H417 0.983 . S
C390 H366 0.948 . S
C390 C391 1.391 . S
C390 C395 1.391 . S
C391 C390 1.391 . S
C391 C392 1.391 . S
C392 H369 0.947 . S
C392 C391 1.391 . S
C392 C393 1.392 . S
C393 H370 0.948 . S
C393 C392 1.392 . S
C393 C394 1.419 . S
C394 C393 1.419 . S
C394 C395 1.391 . S
C394 C398 1.397 . S
C395 C390 1.391 . S
C395 C394 1.391 . S
C395 C396 1.399 . S
C396 C395 1.399 . S
C396 C397 1.396 . S
C396 C399 1.453 . S
C396 C400 1.684 . S
C397 C387 1.723 . S
C397 C396 1.396 . S
C397 C398 1.394 . S
C398 C368 1.723 . S
C398 C394 1.397 . S
C398 C397 1.394 . S
C399 H371 0.982 1_655 S
C399 H375 0.979 . S
C399 H376 0.977 . S
C399 C396 1.453 . S
C400 H372 0.979 . S
C400 H373 0.980 . S
C400 H374 0.983 . S
C400 C396 1.684 . S
H401 C419 0.948 . S
H402 C360 0.948 . S
H403 C378 0.979 . S
H404 C378 0.980 . S
H405 C378 0.983 . S
H406 C377 0.982 . S
H407 C377 0.979 . S
H408 C377 0.977 . S
H409 C379 0.948 . S
H410 C381 0.947 . S
H411 C382 0.948 . S
H412 C388 0.974 1_455 S
H413 C388 0.980 1_455 S
H414 C388 0.981 . S
H415 C389 0.979 . S
H416 C389 0.980 . S
H417 C389 0.983 . S
H418 C362 0.947 . S
C419 C362 1.392 . S
C419 C363 1.419 . S
C419 H401 0.948 . S
C420 C421 1.391 . S
C420 C424 1.391 . S
C420 H462 0.948 . S
C421 C420 1.391 . S
C421 C422 1.391 . S
C422 C421 1.391 . S
C422 H478 0.947 . S
C422 C479 1.392 . S
C423 C424 1.391 . S
C423 C427 1.397 . S
C423 C479 1.419 . S
C424 C420 1.391 . S
C424 C423 1.391 . S
C424 C425 1.399 . S
C425 C424 1.399 . S
C425 C428 1.396 . S
C425 C437 1.453 . S
C425 C438 1.684 . S
H426 C450 0.948 . S
C427 C423 1.397 . S
C427 C428 1.394 . S
C427 C446 1.723 . S
C428 C425 1.396 . S
C428 C427 1.394 . S
C428 C458 1.723 . S
H429 C452 0.947 . S
H430 C453 0.948 . S
H431 C459 0.982 . S
H432 C460 0.979 . S
H433 C460 0.980 . S
H434 C460 0.983 . S
H435 C459 0.979 . S
H436 C459 0.977 . S
C437 C425 1.453 . S
C437 H466 0.982 . S
C437 H467 0.979 . S
C437 H468 0.977 . S
C438 C425 1.684 . S
C438 H463 0.979 . S
C438 H464 0.980 . S
C438 H465 0.983 . S
C439 C440 1.391 . S
C439 C444 1.391 . S
C439 H469 0.948 . S
C440 C439 1.391 . S
C440 C441 1.391 . S
C441 C440 1.391 . S
C441 C442 1.392 . S
C441 H470 0.947 . S
C442 C441 1.392 . S
C442 C443 1.419 . S
C442 H471 0.948 . S
C443 C442 1.419 . S
C443 C444 1.391 . S
C443 C447 1.397 . S
C444 C439 1.391 . S
C444 C443 1.391 . S
C444 C445 1.399 . S
C445 C444 1.399 . S
C445 C446 1.396 . S
C445 C448 1.453 . S
C445 C449 1.684 . S
C446 C427 1.723 . S
C446 C445 1.396 . S
C446 C447 1.394 . S
C447 C443 1.397 . S
C447 C446 1.394 . S
C447 C457 1.723 . S
C448 C445 1.453 . S
C448 H472 0.982 . S
C448 H473 0.979 . S
C448 H474 0.977 . S
C449 C445 1.684 . S
C449 H475 0.979 . S
C449 H476 0.980 . S
C449 H477 0.983 . S
C450 H426 0.948 . S
C450 C451 1.391 . S
C450 C455 1.391 . S
C451 C450 1.391 . S
C451 C452 1.391 . S
C452 H429 0.947 . S
C452 C451 1.391 . S
C452 C453 1.392 . S
C453 H430 0.948 . S
C453 C452 1.392 . S
C453 C454 1.419 . S
C454 C453 1.419 . S
C454 C455 1.391 . S
C454 C458 1.397 . S
C455 C450 1.391 . S
C455 C454 1.391 . S
C455 C456 1.399 . S
C456 C455 1.399 . S
C456 C457 1.396 . S
C456 C459 1.453 . S
C456 C460 1.684 . S
C457 C447 1.723 . S
C457 C456 1.396 . S
C457 C458 1.394 . S
C458 C428 1.723 . S
C458 C454 1.397 . S
C458 C457 1.394 . S
C459 H431 0.982 . S
C459 H435 0.979 . S
C459 H436 0.977 . S
C459 C456 1.453 . S
C460 H432 0.979 . S
C460 H433 0.980 . S
C460 H434 0.983 . S
C460 C456 1.684 . S
H461 C479 0.948 . S
H462 C420 0.948 . S
H463 C438 0.979 . S
H464 C438 0.980 . S
H465 C438 0.983 . S
H466 C437 0.982 . S
H467 C437 0.979 . S
H468 C437 0.977 . S
H469 C439 0.948 . S
H470 C441 0.947 . S
H471 C442 0.948 . S
H472 C448 0.982 . S
H473 C448 0.979 . S
H474 C448 0.977 . S
H475 C449 0.979 . S
H476 C449 0.980 . S
H477 C449 0.983 . S
H478 C422 0.947 . S
C479 C422 1.392 . S
C479 C423 1.419 . S
C479 H461 0.948 . S
C480 C481 1.391 . S
C480 C484 1.391 . S
C480 H522 0.948 . S
C481 C480 1.391 . S
C481 C482 1.391 . S
C482 C481 1.391 . S
C482 H538 0.947 . S
C482 C539 1.392 . S
C483 C484 1.391 . S
C483 C487 1.397 . S
C483 C539 1.419 . S
C484 C480 1.391 . S
C484 C483 1.391 . S
C484 C485 1.399 . S
C485 C484 1.399 . S
C485 C488 1.396 . S
C485 C497 1.453 . S
C485 C498 1.684 . S
H486 C510 0.948 . S
C487 C483 1.397 . S
C487 C488 1.394 . S
C487 C506 1.723 . S
C488 C485 1.396 . S
C488 C487 1.394 . S
C488 C518 1.723 . S
H489 C512 0.947 . S
H490 C513 0.948 . S
H491 C519 0.982 . S
H492 C520 0.979 . S
H493 C520 0.980 . S
H494 C520 0.983 . S
H495 C519 0.979 . S
H496 C519 0.977 . S
C497 C485 1.453 . S
C497 H526 0.982 . S
C497 H527 0.979 . S
C497 H528 0.977 . S
C498 C485 1.684 . S
C498 H523 0.979 . S
C498 H524 0.980 . S
C498 H525 0.983 . S
C499 C500 1.391 . S
C499 C504 1.391 . S
C499 H529 0.948 . S
C500 C499 1.391 . S
C500 C501 1.391 . S
C501 C500 1.391 . S
C501 C502 1.392 . S
C501 H530 0.947 . S
C502 C501 1.392 . S
C502 C503 1.419 . S
C502 H531 0.948 . S
C503 C502 1.419 . S
C503 C504 1.391 . S
C503 C507 1.397 . S
C504 C499 1.391 . S
C504 C503 1.391 . S
C504 C505 1.399 . S
C505 C504 1.399 . S
C505 C506 1.396 . S
C505 C508 1.453 . S
C505 C509 1.684 . S
C506 C487 1.723 . S
C506 C505 1.396 . S
C506 C507 1.394 . S
C507 C503 1.397 . S
C507 C506 1.394 . S
C507 C517 1.723 . S
C508 C505 1.453 . S
C508 H532 0.982 . S
C508 H533 0.979 . S
C508 H534 0.977 . S
C509 C505 1.684 . S
C509 H535 0.979 . S
C509 H536 0.980 . S
C509 H537 0.983 . S
C510 H486 0.948 . S
C510 C511 1.391 . S
C510 C515 1.391 . S
C511 C510 1.391 . S
C511 C512 1.391 . S
C512 H489 0.947 . S
C512 C511 1.391 . S
C512 C513 1.392 . S
C513 H490 0.948 . S
C513 C512 1.392 . S
C513 C514 1.419 . S
C514 C513 1.419 . S
C514 C515 1.391 . S
C514 C518 1.397 . S
C515 C510 1.391 . S
C515 C514 1.391 . S
C515 C516 1.399 . S
C516 C515 1.399 . S
C516 C517 1.396 . S
C516 C519 1.453 . S
C516 C520 1.684 . S
C517 C507 1.723 . S
C517 C516 1.396 . S
C517 C518 1.394 . S
C518 C488 1.723 . S
C518 C514 1.397 . S
C518 C517 1.394 . S
C519 H491 0.982 . S
C519 H495 0.979 . S
C519 H496 0.977 . S
C519 C516 1.453 . S
C520 H492 0.979 . S
C520 H493 0.980 . S
C520 H494 0.983 . S
C520 C516 1.684 . S
H521 C539 0.948 . S
H522 C480 0.948 . S
H523 C498 0.979 . S
H524 C498 0.980 . S
H525 C498 0.983 . S
H526 C497 0.982 . S
H527 C497 0.979 . S
H528 C497 0.977 . S
H529 C499 0.948 . S
H530 C501 0.947 . S
H531 C502 0.948 . S
H532 C508 0.982 . S
H533 C508 0.979 . S
H534 C508 0.977 . S
H535 C509 0.979 . S
H536 C509 0.980 . S
H537 C509 0.983 . S
H538 C482 0.947 . S
C539 C482 1.392 . S
C539 C483 1.419 . S
C539 H521 0.948 . S
C540 C541 1.391 . S
C540 C544 1.391 . S
C540 H582 0.948 . S
C541 C540 1.391 . S
C541 C542 1.391 . S
C542 C541 1.391 . S
C542 H598 0.947 . S
C542 C599 1.392 . S
C543 C544 1.391 . S
C543 C547 1.397 . S
C543 C599 1.419 . S
C544 C540 1.391 . S
C544 C543 1.391 . S
C544 C545 1.399 . S
C545 C544 1.399 . S
C545 C548 1.396 . S
C545 C557 1.453 . S
C545 C558 1.684 . S
H546 C570 0.948 . S
C547 C543 1.397 . S
C547 C548 1.394 . S
C547 C566 1.723 . S
C548 C545 1.396 . S
C548 C547 1.394 . S
C548 C578 1.723 . S
H549 C572 0.947 . S
H550 C573 0.948 . S
H551 C579 0.982 . S
H552 C580 0.979 . S
H553 C580 0.980 . S
H554 C580 0.983 . S
H555 C579 0.979 . S
H556 C579 0.977 . S
C557 C545 1.453 . S
C557 H586 0.982 . S
C557 H587 0.979 . S
C557 H588 0.977 . S
C558 C545 1.684 . S
C558 H583 0.979 . S
C558 H584 0.980 . S
C558 H585 0.983 . S
C559 C560 1.391 . S
C559 C564 1.391 . S
C559 H589 0.948 . S
C560 C559 1.391 . S
C560 C561 1.391 . S
C561 C560 1.391 . S
C561 C562 1.392 . S
C561 H590 0.947 . S
C562 C561 1.392 . S
C562 C563 1.419 . S
C562 H591 0.948 . S
C563 C562 1.419 . S
C563 C564 1.391 . S
C563 C567 1.397 . S
C564 C559 1.391 . S
C564 C563 1.391 . S
C564 C565 1.399 . S
C565 C564 1.399 . S
C565 C566 1.396 . S
C565 C568 1.453 . S
C565 C569 1.684 . S
C566 C547 1.723 . S
C566 C565 1.396 . S
C566 C567 1.394 . S
C567 C563 1.397 . S
C567 C566 1.394 . S
C567 C577 1.723 . S
C568 C565 1.453 . S
C568 H592 0.982 . S
C568 H593 0.979 . S
C568 H594 0.977 . S
C569 C565 1.684 . S
C569 H595 0.979 . S
C569 H596 0.980 . S
C569 H597 0.983 . S
C570 H546 0.948 . S
C570 C571 1.391 . S
C570 C575 1.391 . S
C571 C570 1.391 . S
C571 C572 1.391 . S
C572 H549 0.947 . S
C572 C571 1.391 . S
C572 C573 1.392 . S
C573 H550 0.948 . S
C573 C572 1.392 . S
C573 C574 1.419 . S
C574 C573 1.419 . S
C574 C575 1.391 . S
C574 C578 1.397 . S
C575 C570 1.391 . S
C575 C574 1.391 . S
C575 C576 1.399 . S
C576 C575 1.399 . S
C576 C577 1.396 . S
C576 C579 1.453 . S
C576 C580 1.684 . S
C577 C567 1.723 . S
C577 C576 1.396 . S
C577 C578 1.394 . S
C578 C548 1.723 . S
C578 C574 1.397 . S
C578 C577 1.394 . S
C579 H551 0.982 . S
C579 H555 0.979 . S
C579 H556 0.977 . S
C579 C576 1.453 . S
C580 H552 0.979 . S
C580 H553 0.980 . S
C580 H554 0.983 . S
C580 C576 1.684 . S
H581 C599 0.948 . S
H582 C540 0.948 . S
H583 C558 0.979 . S
H584 C558 0.980 . S
H585 C558 0.983 . S
H586 C557 0.982 . S
H587 C557 0.979 . S
H588 C557 0.977 . S
H589 C559 0.948 . S
H590 C561 0.947 . S
H591 C562 0.948 . S
H592 C568 0.982 . S
H593 C568 0.979 . S
H594 C568 0.977 . S
H595 C569 0.979 . S
H596 C569 0.980 . S
H597 C569 0.983 . S
H598 C542 0.947 . S
C599 C542 1.392 . S
C599 C543 1.419 . S
C599 H581 0.948 . S
C600 C601 1.391 . S
C600 C604 1.391 . S
C600 H642 0.948 . S
C601 C600 1.391 . S
C601 C602 1.391 . S
C602 C601 1.391 . S
C602 H658 0.947 . S
C602 C659 1.392 . S
C603 C604 1.391 . S
C603 C607 1.397 . S
C603 C659 1.419 . S
C604 C600 1.391 . S
C604 C603 1.391 . S
C604 C605 1.399 . S
C605 C604 1.399 . S
C605 C608 1.396 . S
C605 C617 1.453 . S
C605 C618 1.684 . S
H606 C630 0.948 . S
C607 C603 1.397 . S
C607 C608 1.394 . S
C607 C626 1.723 . S
C608 C605 1.396 . S
C608 C607 1.394 . S
C608 C638 1.723 . S
H609 C632 0.947 1_554 S
H610 C633 0.948 . S
H611 C639 0.982 . S
H612 C640 0.979 . S
H613 C640 0.980 . S
H614 C640 0.983 . S
H615 C639 0.979 . S
H616 C639 0.977 . S
C617 C605 1.453 . S
C617 H646 0.982 . S
C617 H647 0.979 . S
C617 H648 0.977 . S
C618 C605 1.684 . S
C618 H643 0.979 . S
C618 H644 0.980 . S
C618 H645 0.983 1_556 S
C619 C620 1.391 . S
C619 C624 1.391 . S
C619 H649 0.948 . S
C620 C619 1.391 . S
C620 C621 1.391 . S
C621 C620 1.391 . S
C621 C622 1.392 . S
C621 H650 0.947 . S
C622 C621 1.392 . S
C622 C623 1.419 . S
C622 H651 0.948 . S
C623 C622 1.419 . S
C623 C624 1.391 . S
C623 C627 1.397 . S
C624 C619 1.391 . S
C624 C623 1.391 . S
C624 C625 1.399 . S
C625 C624 1.399 . S
C625 C626 1.396 . S
C625 C628 1.453 . S
C625 C629 1.684 . S
C626 C607 1.723 . S
C626 C625 1.396 . S
C626 C627 1.394 . S
C627 C623 1.397 . S
C627 C626 1.394 . S
C627 C637 1.723 . S
C628 C625 1.453 . S
C628 H652 0.982 . S
C628 H653 0.979 . S
C628 H654 0.977 . S
C629 C625 1.684 . S
C629 H655 0.979 . S
C629 H656 0.980 . S
C629 H657 0.983 . S
C630 H606 0.948 . S
C630 C631 1.391 . S
C630 C635 1.391 . S
C631 C630 1.391 . S
C631 C632 1.391 . S
C632 H609 0.947 1_556 S
C632 C631 1.391 . S
C632 C633 1.392 . S
C633 H610 0.948 . S
C633 C632 1.392 . S
C633 C634 1.419 . S
C634 C633 1.419 . S
C634 C635 1.391 . S
C634 C638 1.397 . S
C635 C630 1.391 . S
C635 C634 1.391 . S
C635 C636 1.399 . S
C636 C635 1.399 . S
C636 C637 1.396 . S
C636 C639 1.453 . S
C636 C640 1.684 . S
C637 C627 1.723 . S
C637 C636 1.396 . S
C637 C638 1.394 . S
C638 C608 1.723 . S
C638 C634 1.397 . S
C638 C637 1.394 . S
C639 H611 0.982 . S
C639 H615 0.979 . S
C639 H616 0.977 . S
C639 C636 1.453 . S
C640 H612 0.979 . S
C640 H613 0.980 . S
C640 H614 0.983 . S
C640 C636 1.684 . S
H641 C659 0.948 . S
H642 C600 0.948 . S
H643 C618 0.979 . S
H644 C618 0.980 . S
H645 C618 0.983 1_554 S
H646 C617 0.982 . S
H647 C617 0.979 . S
H648 C617 0.977 . S
H649 C619 0.948 . S
H650 C621 0.947 . S
H651 C622 0.948 . S
H652 C628 0.982 . S
H653 C628 0.979 . S
H654 C628 0.977 . S
H655 C629 0.979 . S
H656 C629 0.980 . S
H657 C629 0.983 . S
H658 C602 0.947 . S
C659 C602 1.392 . S
C659 C603 1.419 . S
C659 H641 0.948 . S
C660 C661 1.391 . S
C660 C664 1.391 . S
C660 H702 0.948 . S
C661 C660 1.391 . S
C661 C662 1.391 . S
C662 C661 1.391 . S
C662 H718 0.947 . S
C662 C719 1.392 . S
C663 C664 1.391 . S
C663 C667 1.397 . S
C663 C719 1.419 . S
C664 C660 1.391 . S
C664 C663 1.391 . S
C664 C665 1.399 . S
C665 C664 1.399 . S
C665 C668 1.396 . S
C665 C677 1.453 . S
C665 C678 1.684 . S
H666 C690 0.948 . S
C667 C663 1.397 . S
C667 C668 1.394 . S
C667 C686 1.723 . S
C668 C665 1.396 . S
C668 C667 1.394 . S
C668 C698 1.723 . S
H669 C692 0.947 . S
H670 C693 0.948 . S
H671 C699 0.982 . S
H672 C700 0.979 . S
H673 C700 0.980 . S
H674 C700 0.983 . S
H675 C699 0.979 . S
H676 C699 0.977 . S
C677 C665 1.453 . S
C677 H706 0.982 . S
C677 H707 0.979 . S
C677 H708 0.977 . S
C678 C665 1.684 . S
C678 H703 0.979 . S
C678 H704 0.980 . S
C678 H705 0.983 . S
C679 C680 1.391 . S
C679 C684 1.391 . S
C679 H709 0.948 . S
C680 C679 1.391 . S
C680 C681 1.391 . S
C681 C680 1.391 . S
C681 C682 1.392 . S
C681 H710 0.947 . S
C682 C681 1.392 . S
C682 C683 1.419 . S
C682 H711 0.948 . S
C683 C682 1.419 . S
C683 C684 1.391 . S
C683 C687 1.397 . S
C684 C679 1.391 . S
C684 C683 1.391 . S
C684 C685 1.399 . S
C685 C684 1.399 . S
C685 C686 1.396 . S
C685 C688 1.453 . S
C685 C689 1.684 . S
C686 C667 1.723 . S
C686 C685 1.396 . S
C686 C687 1.394 . S
C687 C683 1.397 . S
C687 C686 1.394 . S
C687 C697 1.723 . S
C688 C685 1.453 . S
C688 H712 0.982 . S
C688 H713 0.979 . S
C688 H714 0.977 . S
C689 C685 1.684 . S
C689 H715 0.979 . S
C689 H716 0.980 . S
C689 H717 0.983 . S
C690 H666 0.948 . S
C690 C691 1.391 . S
C690 C695 1.391 . S
C691 C690 1.391 . S
C691 C692 1.391 . S
C692 H669 0.947 . S
C692 C691 1.391 . S
C692 C693 1.392 . S
C693 H670 0.948 . S
C693 C692 1.392 . S
C693 C694 1.419 . S
C694 C693 1.419 . S
C694 C695 1.391 . S
C694 C698 1.397 . S
C695 C690 1.391 . S
C695 C694 1.391 . S
C695 C696 1.399 . S
C696 C695 1.399 . S
C696 C697 1.396 . S
C696 C699 1.453 . S
C696 C700 1.684 . S
C697 C687 1.723 . S
C697 C696 1.396 . S
C697 C698 1.394 . S
C698 C668 1.723 . S
C698 C694 1.397 . S
C698 C697 1.394 . S
C699 H671 0.982 . S
C699 H675 0.979 . S
C699 H676 0.977 . S
C699 C696 1.453 . S
C700 H672 0.979 . S
C700 H673 0.980 . S
C700 H674 0.983 . S
C700 C696 1.684 . S
H701 C719 0.948 . S
H702 C660 0.948 . S
H703 C678 0.979 . S
H704 C678 0.980 . S
H705 C678 0.983 . S
H706 C677 0.982 . S
H707 C677 0.979 . S
H708 C677 0.977 . S
H709 C679 0.948 . S
H710 C681 0.947 . S
H711 C682 0.948 . S
H712 C688 0.982 . S
H713 C688 0.979 . S
H714 C688 0.977 . S
H715 C689 0.979 . S
H716 C689 0.980 . S
H717 C689 0.983 . S
H718 C662 0.947 . S
C719 C662 1.392 . S
C719 C663 1.419 . S
C719 H701 0.948 . S
C720 C721 1.391 . S
C720 C724 1.391 . S
C720 H762 0.948 . S
C721 C720 1.391 . S
C721 C722 1.391 . S
C722 C721 1.391 . S
C722 H778 0.947 . S
C722 C779 1.392 . S
C723 C724 1.391 . S
C723 C727 1.397 . S
C723 C779 1.419 . S
C724 C720 1.391 . S
C724 C723 1.391 . S
C724 C725 1.399 . S
C725 C724 1.399 . S
C725 C728 1.396 . S
C725 C737 1.453 . S
C725 C738 1.684 . S
H726 C750 0.948 . S
C727 C723 1.397 . S
C727 C728 1.394 . S
C727 C746 1.723 . S
C728 C725 1.396 . S
C728 C727 1.394 . S
C728 C758 1.723 . S
H729 C752 0.947 1_556 S
H730 C753 0.948 . S
H731 C759 0.982 . S
H732 C760 0.979 . S
H733 C760 0.980 . S
H734 C760 0.983 . S
H735 C759 0.979 . S
H736 C759 0.977 . S
C737 C725 1.453 . S
C737 H766 0.982 . S
C737 H767 0.996 . S
C737 H768 0.977 . S
C738 C725 1.684 . S
C738 H763 0.979 . S
C738 H764 0.980 . S
C738 H765 0.979 . S
C739 C740 1.391 . S
C739 C744 1.391 . S
C739 H769 0.948 . S
C740 C739 1.391 . S
C740 C741 1.391 . S
C741 C740 1.391 . S
C741 C742 1.392 . S
C741 H770 0.947 . S
C742 C741 1.392 . S
C742 C743 1.419 . S
C742 H771 0.948 . S
C743 C742 1.419 . S
C743 C744 1.391 . S
C743 C747 1.397 . S
C744 C739 1.391 . S
C744 C743 1.391 . S
C744 C745 1.399 . S
C745 C744 1.399 . S
C745 C746 1.396 . S
C745 C748 1.453 . S
C745 C749 1.684 . S
C746 C727 1.723 . S
C746 C745 1.396 . S
C746 C747 1.394 . S
C747 C743 1.397 . S
C747 C746 1.394 . S
C747 C757 1.723 . S
C748 C745 1.453 . S
C748 H772 0.982 . S
C748 H773 0.979 . S
C748 H774 0.977 . S
C749 C745 1.684 . S
C749 H775 0.979 . S
C749 H776 0.980 . S
C749 H777 0.983 . S
C750 H726 0.948 . S
C750 C751 1.391 . S
C750 C755 1.391 . S
C751 C750 1.391 . S
C751 C752 1.391 . S
C752 H729 0.947 1_554 S
C752 C751 1.391 . S
C752 C753 1.392 . S
C753 H730 0.948 . S
C753 C752 1.392 . S
C753 C754 1.419 . S
C754 C753 1.419 . S
C754 C755 1.391 . S
C754 C758 1.397 . S
C755 C750 1.391 . S
C755 C754 1.391 . S
C755 C756 1.399 . S
C756 C755 1.399 . S
C756 C757 1.396 . S
C756 C759 1.453 . S
C756 C760 1.684 . S
C757 C747 1.723 . S
C757 C756 1.396 . S
C757 C758 1.394 . S
C758 C728 1.723 . S
C758 C754 1.397 . S
C758 C757 1.394 . S
C759 H731 0.982 . S
C759 H735 0.979 . S
C759 H736 0.977 . S
C759 C756 1.453 . S
C760 H732 0.979 . S
C760 H733 0.980 . S
C760 H734 0.983 . S
C760 C756 1.684 . S
H761 C779 0.948 . S
H762 C720 0.948 . S
H763 C738 0.979 . S
H764 C738 0.980 . S
H765 C738 0.979 . S
H766 C737 0.982 . S
H767 C737 0.996 . S
H768 C737 0.977 . S
H769 C739 0.948 . S
H770 C741 0.947 . S
H771 C742 0.948 . S
H772 C748 0.982 . S
H773 C748 0.979 . S
H774 C748 0.977 . S
H775 C749 0.979 . S
H776 C749 0.980 . S
H777 C749 0.983 . S
H778 C722 0.947 . S
C779 C722 1.392 . S
C779 C723 1.419 . S
C779 H761 0.948 . S
C780 C781 1.391 . S
C780 C784 1.391 . S
C780 H822 0.948 . S
C781 C780 1.391 . S
C781 C782 1.391 . S
C782 C781 1.391 . S
C782 H838 0.947 . S
C782 C839 1.392 . S
C783 C784 1.391 . S
C783 C787 1.397 . S
C783 C839 1.419 . S
C784 C780 1.391 . S
C784 C783 1.391 . S
C784 C785 1.399 . S
C785 C784 1.399 . S
C785 C788 1.396 . S
C785 C797 1.453 . S
C785 C798 1.684 . S
H786 C810 0.948 . S
C787 C783 1.397 . S
C787 C788 1.394 . S
C787 C806 1.723 . S
C788 C785 1.396 . S
C788 C787 1.394 . S
C788 C818 1.723 . S
H789 C812 0.947 . S
H790 C813 0.948 . S
H791 C819 0.982 . S
H792 C820 0.979 . S
H793 C820 0.980 . S
H794 C820 0.983 . S
H795 C819 0.979 . S
H796 C819 0.977 . S
C797 C785 1.453 . S
C797 H826 0.982 . S
C797 H827 0.979 . S
C797 H828 0.977 . S
C798 C785 1.684 . S
C798 H823 0.979 . S
C798 H824 0.980 . S
C798 H825 0.983 . S
C799 C800 1.391 . S
C799 C804 1.391 . S
C799 H829 0.948 . S
C800 C799 1.391 . S
C800 C801 1.391 . S
C801 C800 1.391 . S
C801 C802 1.392 . S
C801 H830 0.947 . S
C802 C801 1.392 . S
C802 C803 1.419 . S
C802 H831 0.948 . S
C803 C802 1.419 . S
C803 C804 1.391 . S
C803 C807 1.397 . S
C804 C799 1.391 . S
C804 C803 1.391 . S
C804 C805 1.399 . S
C805 C804 1.399 . S
C805 C806 1.396 . S
C805 C808 1.453 . S
C805 C809 1.684 . S
C806 C787 1.723 . S
C806 C805 1.396 . S
C806 C807 1.394 . S
C807 C803 1.397 . S
C807 C806 1.394 . S
C807 C817 1.723 . S
C808 C805 1.453 . S
C808 H832 0.982 . S
C808 H833 0.979 . S
C808 H834 0.977 . S
C809 C805 1.684 . S
C809 H835 0.979 . S
C809 H836 0.980 . S
C809 H837 0.983 . S
C810 H786 0.948 . S
C810 C811 1.391 . S
C810 C815 1.391 . S
C811 C810 1.391 . S
C811 C812 1.391 . S
C812 H789 0.947 . S
C812 C811 1.391 . S
C812 C813 1.392 . S
C813 H790 0.948 . S
C813 C812 1.392 . S
C813 C814 1.419 . S
C814 C813 1.419 . S
C814 C815 1.391 . S
C814 C818 1.397 . S
C815 C810 1.391 . S
C815 C814 1.391 . S
C815 C816 1.399 . S
C816 C815 1.399 . S
C816 C817 1.396 . S
C816 C819 1.453 . S
C816 C820 1.684 . S
C817 C807 1.723 . S
C817 C816 1.396 . S
C817 C818 1.394 . S
C818 C788 1.723 . S
C818 C814 1.397 . S
C818 C817 1.394 . S
C819 H791 0.982 . S
C819 H795 0.979 . S
C819 H796 0.977 . S
C819 C816 1.453 . S
C820 H792 0.979 . S
C820 H793 0.980 . S
C820 H794 0.983 . S
C820 C816 1.684 . S
H821 C839 0.948 . S
H822 C780 0.948 . S
H823 C798 0.979 . S
H824 C798 0.980 . S
H825 C798 0.983 . S
H826 C797 0.982 . S
H827 C797 0.979 . S
H828 C797 0.977 . S
H829 C799 0.948 . S
H830 C801 0.947 . S
H831 C802 0.948 . S
H832 C808 0.982 . S
H833 C808 0.979 . S
H834 C808 0.977 . S
H835 C809 0.979 . S
H836 C809 0.980 . S
H837 C809 0.983 . S
H838 C782 0.947 . S
C839 C782 1.392 . S
C839 C783 1.419 . S
C839 H821 0.948 . S
C840 C841 1.391 . S
C840 C844 1.391 . S
C840 H882 0.948 . S
C841 C840 1.391 . S
C841 C842 1.391 . S
C842 C841 1.391 . S
C842 H898 0.947 . S
C842 C899 1.392 . S
C843 C844 1.391 . S
C843 C847 1.397 . S
C843 C899 1.419 . S
C844 C840 1.391 . S
C844 C843 1.391 . S
C844 C845 1.399 . S
C845 C844 1.399 . S
C845 C848 1.396 . S
C845 C857 1.453 . S
C845 C858 1.684 . S
H846 C870 0.948 . S
C847 C843 1.397 . S
C847 C848 1.394 . S
C847 C866 1.723 . S
C848 C845 1.396 . S
C848 C847 1.394 . S
C848 C878 1.723 . S
H849 C872 0.947 . S
H850 C873 0.948 . S
H851 C879 0.982 . S
H852 C880 0.979 . S
H853 C880 0.980 . S
H854 C880 0.983 . S
H855 C879 0.979 . S
H856 C879 0.977 . S
C857 C845 1.453 . S
C857 H886 0.982 . S
C857 H887 0.979 . S
C857 H888 0.977 . S
C858 C845 1.684 . S
C858 H883 0.979 . S
C858 H884 0.980 . S
C858 H885 0.983 . S
C859 C860 1.391 . S
C859 C864 1.391 . S
C859 H889 0.948 . S
C860 C859 1.391 . S
C860 C861 1.391 . S
C861 C860 1.391 . S
C861 C862 1.392 . S
C861 H890 0.947 . S
C862 C861 1.392 . S
C862 C863 1.419 . S
C862 H891 0.948 . S
C863 C862 1.419 . S
C863 C864 1.391 . S
C863 C867 1.397 . S
C864 C859 1.391 . S
C864 C863 1.391 . S
C864 C865 1.399 . S
C865 C864 1.399 . S
C865 C866 1.396 . S
C865 C868 1.453 . S
C865 C869 1.684 . S
C866 C847 1.723 . S
C866 C865 1.396 . S
C866 C867 1.394 . S
C867 C863 1.397 . S
C867 C866 1.394 . S
C867 C877 1.723 . S
C868 C865 1.453 . S
C868 H892 0.982 . S
C868 H893 0.979 . S
C868 H894 0.977 . S
C869 C865 1.684 . S
C869 H895 0.979 . S
C869 H896 0.980 . S
C869 H897 0.983 . S
C870 H846 0.948 . S
C870 C871 1.391 . S
C870 C875 1.391 . S
C871 C870 1.391 . S
C871 C872 1.391 . S
C872 H849 0.947 . S
C872 C871 1.391 . S
C872 C873 1.392 . S
C873 H850 0.948 . S
C873 C872 1.392 . S
C873 C874 1.419 . S
C874 C873 1.419 . S
C874 C875 1.391 . S
C874 C878 1.397 . S
C875 C870 1.391 . S
C875 C874 1.391 . S
C875 C876 1.399 . S
C876 C875 1.399 . S
C876 C877 1.396 . S
C876 C879 1.453 . S
C876 C880 1.684 . S
C877 C867 1.723 . S
C877 C876 1.396 . S
C877 C878 1.394 . S
C878 C848 1.723 . S
C878 C874 1.397 . S
C878 C877 1.394 . S
C879 H851 0.982 . S
C879 H855 0.979 . S
C879 H856 0.977 . S
C879 C876 1.453 . S
C880 H852 0.979 . S
C880 H853 0.980 . S
C880 H854 0.983 . S
C880 C876 1.684 . S
H881 C899 0.948 . S
H882 C840 0.948 . S
H883 C858 0.979 . S
H884 C858 0.980 . S
H885 C858 0.983 . S
H886 C857 0.982 . S
H887 C857 0.979 . S
H888 C857 0.977 . S
H889 C859 0.948 . S
H890 C861 0.947 . S
H891 C862 0.948 . S
H892 C868 0.982 . S
H893 C868 0.979 . S
H894 C868 0.977 . S
H895 C869 0.979 . S
H896 C869 0.980 . S
H897 C869 0.983 . S
H898 C842 0.947 . S
C899 C842 1.392 . S
C899 C843 1.419 . S
C899 H881 0.948 . S
C900 C901 1.391 . S
C900 C904 1.391 . S
C900 H942 0.948 . S
C901 C900 1.391 . S
C901 C902 1.391 . S
C902 C901 1.391 . S
C902 H958 0.947 . S
C902 C959 1.392 . S
C903 C904 1.391 . S
C903 C907 1.397 . S
C903 C959 1.419 . S
C904 C900 1.391 . S
C904 C903 1.391 . S
C904 C905 1.399 . S
C905 C904 1.399 . S
C905 C908 1.396 . S
C905 C917 1.453 . S
C905 C918 1.684 . S
H906 C930 0.948 . S
C907 C903 1.397 . S
C907 C908 1.394 . S
C907 C926 1.723 . S
C908 C905 1.396 . S
C908 C907 1.394 . S
C908 C938 1.723 . S
H909 C932 0.947 . S
H910 C933 0.948 . S
H911 C939 0.982 . S
H912 C940 0.979 . S
H913 C940 0.980 . S
H914 C940 0.983 . S
H915 C939 0.979 . S
H916 C939 0.977 . S
C917 C905 1.453 . S
C917 H946 0.982 . S
C917 H947 0.979 . S
C917 H948 0.977 . S
C918 C905 1.684 . S
C918 H943 0.979 . S
C918 H944 0.980 . S
C918 H945 0.983 . S
C919 C920 1.391 . S
C919 C924 1.391 . S
C919 H949 0.948 . S
C920 C919 1.391 . S
C920 C921 1.391 . S
C921 C920 1.391 . S
C921 C922 1.392 . S
C921 H950 0.947 . S
C922 C921 1.392 . S
C922 C923 1.419 . S
C922 H951 0.948 . S
C923 C922 1.419 . S
C923 C924 1.391 . S
C923 C927 1.397 . S
C924 C919 1.391 . S
C924 C923 1.391 . S
C924 C925 1.399 . S
C925 C924 1.399 . S
C925 C926 1.396 . S
C925 C928 1.453 . S
C925 C929 1.684 . S
C926 C907 1.723 . S
C926 C925 1.396 . S
C926 C927 1.394 . S
C927 C923 1.397 . S
C927 C926 1.394 . S
C927 C937 1.723 . S
C928 C925 1.453 . S
C928 H952 0.982 . S
C928 H953 0.979 . S
C928 H954 0.977 . S
C929 C925 1.684 . S
C929 H955 0.979 . S
C929 H956 0.980 . S
C929 H957 0.983 . S
C930 H906 0.948 . S
C930 C931 1.391 . S
C930 C935 1.391 . S
C931 C930 1.391 . S
C931 C932 1.391 . S
C932 H909 0.947 . S
C932 C931 1.391 . S
C932 C933 1.392 . S
C933 H910 0.948 . S
C933 C932 1.392 . S
C933 C934 1.419 . S
C934 C933 1.419 . S
C934 C935 1.391 . S
C934 C938 1.397 . S
C935 C930 1.391 . S
C935 C934 1.391 . S
C935 C936 1.399 . S
C936 C935 1.399 . S
C936 C937 1.396 . S
C936 C939 1.453 . S
C936 C940 1.684 . S
C937 C927 1.723 . S
C937 C936 1.396 . S
C937 C938 1.394 . S
C938 C908 1.723 . S
C938 C934 1.397 . S
C938 C937 1.394 . S
C939 H911 0.982 . S
C939 H915 0.979 . S
C939 H916 0.977 . S
C939 C936 1.453 . S
C940 H912 0.979 . S
C940 H913 0.980 . S
C940 H914 0.983 . S
C940 C936 1.684 . S
H941 C959 0.948 . S
H942 C900 0.948 . S
H943 C918 0.979 . S
H944 C918 0.980 . S
H945 C918 0.983 . S
H946 C917 0.982 . S
H947 C917 0.979 . S
H948 C917 0.977 . S
H949 C919 0.948 . S
H950 C921 0.947 . S
H951 C922 0.948 . S
H952 C928 0.982 . S
H953 C928 0.979 . S
H954 C928 0.977 . S
H955 C929 0.979 . S
H956 C929 0.980 . S
H957 C929 0.983 . S
H958 C902 0.947 . S
C959 C902 1.392 . S
C959 C903 1.419 . S
C959 H941 0.948 . S
C960 C961 1.391 . S
C960 C964 1.391 . S
C960 H1002 0.948 . S
C961 C960 1.391 . S
C961 C962 1.391 . S
C962 C961 1.391 . S
C962 H1018 0.947 . S
C962 C1019 1.392 . S
C963 C964 1.391 . S
C963 C967 1.397 . S
C963 C1019 1.419 . S
C964 C960 1.391 . S
C964 C963 1.391 . S
C964 C965 1.399 . S
C965 C964 1.399 . S
C965 C968 1.396 . S
C965 C977 1.453 . S
C965 C978 1.684 . S
H966 C990 0.948 . S
C967 C963 1.397 . S
C967 C968 1.394 . S
C967 C986 1.723 . S
C968 C965 1.396 . S
C968 C967 1.394 . S
C968 C998 1.723 . S
H969 C992 0.947 . S
H970 C993 0.948 . S
H971 C999 0.982 . S
H972 C1000 0.979 1_655 S
H973 C1000 0.979 . S
H974 C1000 0.983 . S
H975 C999 0.979 . S
H976 C999 0.977 . S
C977 C965 1.453 . S
C977 H1006 0.982 . S
C977 H1007 0.979 . S
C977 H1008 0.977 . S
C978 C965 1.684 . S
C978 H1003 0.979 . S
C978 H1004 0.980 . S
C978 H1005 0.983 . S
C979 C980 1.391 1_455 S
C979 C984 1.391 . S
C979 H1009 0.954 1_455 S
C980 C979 1.391 1_655 S
C980 C981 1.391 1_655 S
C981 C980 1.391 1_455 S
C981 C982 1.392 . S
C981 H1010 0.935 1_455 S
C982 C981 1.392 . S
C982 C983 1.419 . S
C982 H1011 0.948 . S
C983 C982 1.419 . S
C983 C984 1.391 . S
C983 C987 1.397 . S
C984 C979 1.391 . S
C984 C983 1.391 . S
C984 C985 1.399 . S
C985 C984 1.399 . S
C985 C986 1.396 . S
C985 C988 1.453 . S
C985 C989 1.684 1_455 S
C986 C967 1.723 . S
C986 C985 1.396 . S
C986 C987 1.394 . S
C987 C983 1.397 . S
C987 C986 1.394 . S
C987 C997 1.723 . S
C988 C985 1.453 . S
C988 H1012 0.982 . S
C988 H1013 0.979 . S
C988 H1014 0.977 . S
C989 C985 1.684 1_655 S
C989 H1015 0.979 . S
C989 H1016 0.980 1_655 S
C989 H1017 0.983 . S
C990 H966 0.948 . S
C990 C991 1.391 . S
C990 C995 1.391 . S
C991 C990 1.391 . S
C991 C992 1.391 . S
C992 H969 0.947 . S
C992 C991 1.391 . S
C992 C993 1.392 . S
C993 H970 0.948 . S
C993 C992 1.392 . S
C993 C994 1.419 . S
C994 C993 1.419 . S
C994 C995 1.391 . S
C994 C998 1.397 . S
C995 C990 1.391 . S
C995 C994 1.391 . S
C995 C996 1.399 . S
C996 C995 1.399 . S
C996 C997 1.396 . S
C996 C999 1.453 . S
C996 C1000 1.684 . S
C997 C987 1.723 . S
C997 C996 1.396 . S
C997 C998 1.394 . S
C998 C968 1.723 . S
C998 C994 1.397 . S
C998 C997 1.394 . S
C999 H971 0.982 . S
C999 H975 0.979 . S
C999 H976 0.977 . S
C999 C996 1.453 . S
C1000 H972 0.979 1_455 S
C1000 H973 0.979 . S
C1000 H974 0.983 . S
C1000 C996 1.684 . S
H1001 C1019 0.948 . S
H1002 C960 0.948 . S
H1003 C978 0.979 . S
H1004 C978 0.980 . S
H1005 C978 0.983 . S
H1006 C977 0.982 . S
H1007 C977 0.979 . S
H1008 C977 0.977 . S
H1009 C979 0.954 1_655 S
H1010 C981 0.935 1_655 S
H1011 C982 0.948 . S
H1012 C988 0.982 . S
H1013 C988 0.979 . S
H1014 C988 0.977 . S
H1015 C989 0.979 . S
H1016 C989 0.980 1_455 S
H1017 C989 0.983 . S
H1018 C962 0.947 . S
C1019 C962 1.392 . S
C1019 C963 1.419 . S
C1019 H1001 0.948 . S
C1020 C1021 1.391 . S
C1020 C1024 1.391 . S
C1020 H1062 0.948 . S
C1021 C1020 1.391 . S
C1021 C1022 1.391 . S
C1022 C1021 1.391 . S
C1022 H1078 0.947 . S
C1022 C1079 1.392 . S
C1023 C1024 1.391 . S
C1023 C1027 1.397 . S
C1023 C1079 1.419 . S
C1024 C1020 1.391 . S
C1024 C1023 1.391 . S
C1024 C1025 1.399 . S
C1025 C1024 1.399 . S
C1025 C1028 1.396 . S
C1025 C1037 1.453 . S
C1025 C1038 1.684 . S
H1026 C1050 0.948 . S
C1027 C1023 1.397 . S
C1027 C1028 1.394 . S
C1027 C1046 1.723 . S
C1028 C1025 1.396 . S
C1028 C1027 1.394 . S
C1028 C1058 1.723 . S
H1029 C1052 0.947 . S
H1030 C1053 0.948 . S
H1031 C1059 0.982 . S
H1032 C1060 0.979 . S
H1033 C1060 0.980 . S
H1034 C1060 0.983 . S
H1035 C1059 0.979 . S
H1036 C1059 0.977 . S
C1037 C1025 1.453 . S
C1037 H1066 0.982 . S
C1037 H1067 0.979 . S
C1037 H1068 0.977 . S
C1038 C1025 1.684 . S
C1038 H1063 0.979 . S
C1038 H1064 0.980 . S
C1038 H1065 0.983 . S
C1039 C1040 1.391 . S
C1039 C1044 1.391 . S
C1039 H1069 0.948 . S
C1040 C1039 1.391 . S
C1040 C1041 1.391 . S
C1041 C1040 1.391 . S
C1041 C1042 1.392 . S
C1041 H1070 0.947 . S
C1042 C1041 1.392 . S
C1042 C1043 1.419 . S
C1042 H1071 0.948 . S
C1043 C1042 1.419 . S
C1043 C1044 1.391 . S
C1043 C1047 1.397 . S
C1044 C1039 1.391 . S
C1044 C1043 1.391 . S
C1044 C1045 1.399 . S
C1045 C1044 1.399 . S
C1045 C1046 1.396 . S
C1045 C1048 1.453 . S
C1045 C1049 1.684 . S
C1046 C1027 1.723 . S
C1046 C1045 1.396 . S
C1046 C1047 1.394 . S
C1047 C1043 1.397 . S
C1047 C1046 1.394 . S
C1047 C1057 1.723 . S
C1048 C1045 1.453 . S
C1048 H1072 0.982 . S
C1048 H1073 0.979 . S
C1048 H1074 0.977 . S
C1049 C1045 1.684 . S
C1049 H1075 0.979 . S
C1049 H1076 0.980 . S
C1049 H1077 0.983 . S
C1050 H1026 0.948 . S
C1050 C1051 1.391 . S
C1050 C1055 1.391 . S
C1051 C1050 1.391 . S
C1051 C1052 1.391 . S
C1052 H1029 0.947 . S
C1052 C1051 1.391 . S
C1052 C1053 1.392 . S
C1053 H1030 0.948 . S
C1053 C1052 1.392 . S
C1053 C1054 1.419 . S
C1054 C1053 1.419 . S
C1054 C1055 1.391 . S
C1054 C1058 1.397 . S
C1055 C1050 1.391 . S
C1055 C1054 1.391 . S
C1055 C1056 1.399 . S
C1056 C1055 1.399 . S
C1056 C1057 1.396 . S
C1056 C1059 1.453 . S
C1056 C1060 1.684 . S
C1057 C1047 1.723 . S
C1057 C1056 1.396 . S
C1057 C1058 1.394 . S
C1058 C1028 1.723 . S
C1058 C1054 1.397 . S
C1058 C1057 1.394 . S
C1059 H1031 0.982 . S
C1059 H1035 0.979 . S
C1059 H1036 0.977 . S
C1059 C1056 1.453 . S
C1060 H1032 0.979 . S
C1060 H1033 0.980 . S
C1060 H1034 0.983 . S
C1060 C1056 1.684 . S
H1061 C1079 0.948 . S
H1062 C1020 0.948 . S
H1063 C1038 0.979 . S
H1064 C1038 0.980 . S
H1065 C1038 0.983 . S
H1066 C1037 0.982 . S
H1067 C1037 0.979 . S
H1068 C1037 0.977 . S
H1069 C1039 0.948 . S
H1070 C1041 0.947 . S
H1071 C1042 0.948 . S
H1072 C1048 0.982 . S
H1073 C1048 0.979 . S
H1074 C1048 0.977 . S
H1075 C1049 0.979 . S
H1076 C1049 0.980 . S
H1077 C1049 0.983 . S
H1078 C1022 0.947 . S
C1079 C1022 1.392 . S
C1079 C1023 1.419 . S
C1079 H1061 0.948 . S
Tb1080 C1090 2.825 . S
Tb1080 O1091 2.347 1_565 S
Tb1080 O1094 2.366 1_565 S
Tb1080 O1099 2.418 . S
Tb1080 O1100 2.384 . S
Tb1080 O1103 2.479 . S
Tb1080 O1104 2.478 . S
Eu1081 O1092 2.418 . S
Eu1081 O1093 2.384 . S
Eu1081 O1096 2.479 . S
Eu1081 O1097 2.483 . S
Eu1081 O1098 2.347 1_545 S
Eu1081 O1101 2.366 1_545 S
Eu1081 C1111 2.825 . S
C1082 O1098 1.259 . S
C1082 O1099 1.265 1_554 S
C1083 O1100 1.255 1_554 S
C1083 O1101 1.265 . S
C1084 C1086 1.380 . S
C1084 C1087 1.374 1_565 S
C1084 C1090 1.507 . S
C1085 C1086 1.384 . S
C1085 C1089 1.387 1_565 S
C1085 H1112 0.930 . S
C1086 C1084 1.380 . S
C1086 C1085 1.384 . S
C1086 H1113 0.931 . S
C1087 C1084 1.374 1_545 S
C1087 C1088 1.390 . S
C1087 H1114 0.930 . S
C1088 C1087 1.390 . S
C1088 C1089 1.391 . S
C1088 H1115 0.930 . S
C1089 C1085 1.387 1_545 S
C1089 C1088 1.391 . S
C1090 Tb1080 2.825 . S
C1090 C1084 1.507 . S
C1090 O1103 1.238 . S
C1090 O1104 1.258 . S
O1091 Tb1080 2.347 1_545 S
O1091 C1095 1.259 . S
O1092 Eu1081 2.418 . S
O1092 C1095 1.265 1_554 S
O1093 Eu1081 2.384 . S
O1093 C1102 1.255 1_554 S
O1094 Tb1080 2.366 1_545 S
O1094 C1102 1.265 . S
C1095 O1091 1.259 . S
C1095 O1092 1.265 1_556 S
O1096 Eu1081 2.479 . S
O1096 C1111 1.238 . S
O1097 Eu1081 2.483 . S
O1097 C1111 1.265 . S
O1098 Eu1081 2.347 1_565 S
O1098 C1082 1.259 . S
O1099 Tb1080 2.418 . S
O1099 C1082 1.265 1_556 S
O1100 Tb1080 2.384 . S
O1100 C1083 1.255 1_556 S
O1101 Eu1081 2.366 1_565 S
O1101 C1083 1.265 . S
C1102 O1093 1.255 1_556 S
C1102 O1094 1.265 . S
O1103 Tb1080 2.479 . S
O1103 C1090 1.238 . S
O1104 Tb1080 2.478 . S
O1104 C1090 1.258 . S
C1105 C1108 1.380 . S
C1105 C1109 1.374 1_545 S
C1105 C1111 1.507 . S
C1106 C1107 1.387 1_565 S
C1106 C1110 1.391 . S
C1107 C1106 1.387 1_545 S
C1107 C1108 1.384 . S
C1107 H1116 0.930 . S
C1108 C1105 1.380 . S
C1108 C1107 1.384 . S
C1108 H1117 0.931 . S
C1109 C1105 1.374 1_565 S
C1109 C1110 1.390 . S
C1109 H1118 0.930 . S
C1110 C1106 1.391 . S
C1110 C1109 1.390 . S
C1110 H1119 0.930 . S
C1111 Eu1081 2.825 . S
C1111 O1096 1.238 . S
C1111 O1097 1.265 . S
C1111 C1105 1.507 . S
H1112 C1085 0.930 . S
H1113 C1086 0.931 . S
H1114 C1087 0.930 . S
H1115 C1088 0.930 . S
H1116 C1107 0.930 . S
H1117 C1108 0.931 . S
H1118 C1109 0.930 . S
H1119 C1110 0.930 . S
Tb1120 C1130 2.825 . S
Tb1120 O1131 2.347 1_455 S
Tb1120 O1134 2.366 1_455 S
Tb1120 O1139 2.418 . S
Tb1120 O1140 2.384 1_556 S
Tb1120 O1143 2.479 . S
Tb1120 O1144 2.471 1_455 S
Eu1121 O1132 2.418 . S
Eu1121 O1133 2.384 1_554 S
Eu1121 O1136 2.479 . S
Eu1121 O1137 2.471 1_655 S
Eu1121 O1138 2.347 1_655 S
Eu1121 O1141 2.366 1_655 S
Eu1121 C1151 2.825 . S
C1122 O1138 1.259 . S
C1122 O1139 1.265 1_554 S
C1123 O1140 1.255 . S
C1123 O1141 1.265 . S
C1124 C1126 1.380 . S
C1124 C1127 1.374 1_455 S
C1124 C1130 1.507 . S
C1125 C1126 1.384 . S
C1125 C1129 1.387 1_455 S
C1125 H1152 0.930 . S
C1126 C1124 1.380 . S
C1126 C1125 1.384 . S
C1126 H1153 0.931 . S
C1127 C1124 1.374 1_655 S
C1127 C1128 1.390 . S
C1127 H1154 0.930 . S
C1128 C1127 1.390 . S
C1128 C1129 1.391 . S
C1128 H1155 0.930 . S
C1129 C1125 1.387 1_655 S
C1129 C1128 1.391 . S
C1130 Tb1120 2.825 . S
C1130 C1124 1.507 . S
C1130 O1143 1.238 . S
C1130 O1144 1.247 1_455 S
O1131 Tb1120 2.347 1_655 S
O1131 C1135 1.259 . S
O1132 Eu1121 2.418 . S
O1132 C1135 1.265 1_554 S
O1133 Eu1121 2.384 1_556 S
O1133 C1142 1.255 . S
O1134 Tb1120 2.366 1_655 S
O1134 C1142 1.265 . S
C1135 O1131 1.259 . S
C1135 O1132 1.265 1_556 S
O1136 Eu1121 2.479 . S
O1136 C1151 1.238 . S
O1137 Eu1121 2.471 1_455 S
O1137 C1151 1.247 1_455 S
O1138 Eu1121 2.347 1_455 S
O1138 C1122 1.259 . S
O1139 Tb1120 2.418 . S
O1139 C1122 1.265 1_556 S
O1140 Tb1120 2.384 1_554 S
O1140 C1123 1.255 . S
O1141 Eu1121 2.366 1_455 S
O1141 C1123 1.265 . S
C1142 O1133 1.255 . S
C1142 O1134 1.265 . S
O1143 Tb1120 2.479 . S
O1143 C1130 1.238 . S
O1144 Tb1120 2.471 1_655 S
O1144 C1130 1.247 1_655 S
C1145 C1148 1.380 . S
C1145 C1149 1.374 1_655 S
C1145 C1151 1.507 . S
C1146 C1147 1.387 1_455 S
C1146 C1150 1.391 . S
C1147 C1146 1.387 1_655 S
C1147 C1148 1.384 . S
C1147 H1156 0.930 . S
C1148 C1145 1.380 . S
C1148 C1147 1.384 . S
C1148 H1157 0.931 . S
C1149 C1145 1.374 1_455 S
C1149 C1150 1.390 . S
C1149 H1158 0.930 . S
C1150 C1146 1.391 . S
C1150 C1149 1.390 . S
C1150 H1159 0.930 . S
C1151 Eu1121 2.825 . S
C1151 O1136 1.238 . S
C1151 O1137 1.247 1_655 S
C1151 C1145 1.507 . S
H1152 C1125 0.930 . S
H1153 C1126 0.931 . S
H1154 C1127 0.930 . S
H1155 C1128 0.930 . S
H1156 C1147 0.930 . S
H1157 C1148 0.931 . S
H1158 C1149 0.930 . S
H1159 C1150 0.930 . S
Tb1160 C1170 2.825 . S
Tb1160 O1171 2.347 . S
Tb1160 O1174 2.366 . S
Tb1160 O1179 2.418 . S
Tb1160 O1180 2.386 1_554 S
Tb1160 O1183 2.479 . S
Tb1160 O1184 2.471 . S
Eu1161 O1172 2.418 . S
Eu1161 O1173 2.384 1_556 S
Eu1161 O1176 2.479 . S
Eu1161 O1177 2.471 . S
Eu1161 O1178 2.347 . S
Eu1161 O1181 2.366 . S
Eu1161 C1191 2.825 . S
C1162 O1178 1.259 . S
C1162 O1179 1.265 1_556 S
C1163 O1180 1.253 . S
C1163 O1181 1.265 . S
C1164 C1166 1.380 . S
C1164 C1167 1.374 . S
C1164 C1170 1.507 . S
C1165 C1166 1.384 . S
C1165 C1169 1.387 . S
C1165 H1192 0.930 . S
C1166 C1164 1.380 . S
C1166 C1165 1.384 . S
C1166 H1193 0.931 . S
C1167 C1164 1.374 . S
C1167 C1168 1.390 . S
C1167 H1194 0.930 . S
C1168 C1167 1.390 . S
C1168 C1169 1.391 . S
C1168 H1195 0.930 . S
C1169 C1165 1.387 . S
C1169 C1168 1.391 . S
C1170 Tb1160 2.825 . S
C1170 C1164 1.507 . S
C1170 O1183 1.238 . S
C1170 O1184 1.247 . S
O1171 Tb1160 2.347 . S
O1171 C1175 1.259 . S
O1172 Eu1161 2.418 . S
O1172 C1175 1.265 1_556 S
O1173 Eu1161 2.384 1_554 S
O1173 C1182 1.255 . S
O1174 Tb1160 2.366 . S
O1174 C1182 1.265 . S
C1175 O1171 1.259 . S
C1175 O1172 1.265 1_554 S
O1176 Eu1161 2.479 . S
O1176 C1191 1.238 . S
O1177 Eu1161 2.471 . S
O1177 C1191 1.247 . S
O1178 Eu1161 2.347 . S
O1178 C1162 1.259 . S
O1179 Tb1160 2.418 . S
O1179 C1162 1.265 1_554 S
O1180 Tb1160 2.386 1_556 S
O1180 C1163 1.253 . S
O1181 Eu1161 2.366 . S
O1181 C1163 1.265 . S
C1182 O1173 1.255 . S
C1182 O1174 1.265 . S
O1183 Tb1160 2.479 . S
O1183 C1170 1.238 . S
O1184 Tb1160 2.471 . S
O1184 C1170 1.247 . S
C1185 C1188 1.380 . S
C1185 C1189 1.374 . S
C1185 C1191 1.507 . S
C1186 C1187 1.387 . S
C1186 C1190 1.391 . S
C1187 C1186 1.387 . S
C1187 C1188 1.384 . S
C1187 H1196 0.930 . S
C1188 C1185 1.380 . S
C1188 C1187 1.384 . S
C1188 H1197 0.931 . S
C1189 C1185 1.374 . S
C1189 C1190 1.390 . S
C1189 H1198 0.930 . S
C1190 C1186 1.391 . S
C1190 C1189 1.390 . S
C1190 H1199 0.930 . S
C1191 Eu1161 2.825 . S
C1191 O1176 1.238 . S
C1191 O1177 1.247 . S
C1191 C1185 1.507 . S
H1192 C1165 0.930 . S
H1193 C1166 0.931 . S
H1194 C1167 0.930 . S
H1195 C1168 0.930 . S
H1196 C1187 0.930 . S
H1197 C1188 0.931 . S
H1198 C1189 0.930 . S
H1199 C1190 0.930 . S
Tb1200 C1210 2.825 . S
Tb1200 O1211 2.347 . S
Tb1200 O1214 2.366 . S
Tb1200 O1219 2.418 . S
Tb1200 O1220 2.384 . S
Tb1200 O1223 2.479 . S
Tb1200 O1224 2.471 . S
Eu1201 O1212 2.418 . S
Eu1201 O1213 2.384 . S
Eu1201 O1216 2.479 . S
Eu1201 O1217 2.471 . S
Eu1201 O1218 2.347 . S
Eu1201 O1221 2.366 . S
Eu1201 C1231 2.825 . S
C1202 O1218 1.259 . S
C1202 O1219 1.265 . S
C1203 O1220 1.255 . S
C1203 O1221 1.265 . S
C1204 C1206 1.380 . S
C1204 C1207 1.374 . S
C1204 C1210 1.507 . S
C1205 C1206 1.384 . S
C1205 C1209 1.387 . S
C1205 H1232 0.930 . S
C1206 C1204 1.380 . S
C1206 C1205 1.384 . S
C1206 H1233 0.931 . S
C1207 C1204 1.374 . S
C1207 C1208 1.390 . S
C1207 H1234 0.930 . S
C1208 C1207 1.390 . S
C1208 C1209 1.391 . S
C1208 H1235 0.930 . S
C1209 C1205 1.387 . S
C1209 C1208 1.391 . S
C1210 Tb1200 2.825 . S
C1210 C1204 1.507 . S
C1210 O1223 1.238 . S
C1210 O1224 1.247 . S
O1211 Tb1200 2.347 . S
O1211 C1215 1.259 . S
O1212 Eu1201 2.418 . S
O1212 C1215 1.265 . S
O1213 Eu1201 2.384 . S
O1213 C1222 1.255 . S
O1214 Tb1200 2.366 . S
O1214 C1222 1.265 . S
C1215 O1211 1.259 . S
C1215 O1212 1.265 . S
O1216 Eu1201 2.479 . S
O1216 C1231 1.238 . S
O1217 Eu1201 2.471 . S
O1217 C1231 1.247 . S
O1218 Eu1201 2.347 . S
O1218 C1202 1.259 . S
O1219 Tb1200 2.418 . S
O1219 C1202 1.265 . S
O1220 Tb1200 2.384 . S
O1220 C1203 1.255 . S
O1221 Eu1201 2.366 . S
O1221 C1203 1.265 . S
C1222 O1213 1.255 . S
C1222 O1214 1.265 . S
O1223 Tb1200 2.479 . S
O1223 C1210 1.238 . S
O1224 Tb1200 2.471 . S
O1224 C1210 1.247 . S
C1225 C1228 1.380 . S
C1225 C1229 1.374 . S
C1225 C1231 1.507 . S
C1226 C1227 1.387 . S
C1226 C1230 1.391 . S
C1227 C1226 1.387 . S
C1227 C1228 1.384 . S
C1227 H1236 0.930 . S
C1228 C1225 1.380 . S
C1228 C1227 1.384 . S
C1228 H1237 0.931 . S
C1229 C1225 1.374 . S
C1229 C1230 1.390 . S
C1229 H1238 0.930 . S
C1230 C1226 1.391 . S
C1230 C1229 1.390 . S
C1230 H1239 0.930 . S
C1231 Eu1201 2.825 . S
C1231 O1216 1.238 . S
C1231 O1217 1.247 . S
C1231 C1225 1.507 . S
H1232 C1205 0.930 . S
H1233 C1206 0.931 . S
H1234 C1207 0.930 . S
H1235 C1208 0.930 . S
H1236 C1227 0.930 . S
H1237 C1228 0.931 . S
H1238 C1229 0.930 . S
H1239 C1230 0.930 . S
Tb1240 C1250 2.825 . S
Tb1240 O1251 2.347 . S
Tb1240 O1254 2.366 . S
Tb1240 O1259 2.418 . S
Tb1240 O1260 2.384 . S
Tb1240 O1263 2.479 . S
Tb1240 O1264 2.471 . S
Eu1241 O1252 2.418 . S
Eu1241 O1253 2.384 . S
Eu1241 O1256 2.479 . S
Eu1241 O1257 2.471 . S
Eu1241 O1258 2.347 . S
Eu1241 O1261 2.366 . S
Eu1241 C1271 2.825 . S
C1242 O1258 1.259 . S
C1242 O1259 1.265 . S
C1243 O1260 1.255 . S
C1243 O1261 1.265 . S
C1244 C1246 1.380 . S
C1244 C1247 1.374 . S
C1244 C1250 1.507 . S
C1245 C1246 1.384 . S
C1245 C1249 1.387 . S
C1245 H1272 0.930 . S
C1246 C1244 1.380 . S
C1246 C1245 1.384 . S
C1246 H1273 0.931 . S
C1247 C1244 1.374 . S
C1247 C1248 1.390 . S
C1247 H1274 0.930 . S
C1248 C1247 1.390 . S
C1248 C1249 1.391 . S
C1248 H1275 0.930 . S
C1249 C1245 1.387 . S
C1249 C1248 1.391 . S
C1250 Tb1240 2.825 . S
C1250 C1244 1.507 . S
C1250 O1263 1.238 . S
C1250 O1264 1.247 . S
O1251 Tb1240 2.347 . S
O1251 C1255 1.259 . S
O1252 Eu1241 2.418 . S
O1252 C1255 1.265 . S
O1253 Eu1241 2.384 . S
O1253 C1262 1.255 . S
O1254 Tb1240 2.366 . S
O1254 C1262 1.265 . S
C1255 O1251 1.259 . S
C1255 O1252 1.265 . S
O1256 Eu1241 2.479 . S
O1256 C1271 1.238 . S
O1257 Eu1241 2.471 . S
O1257 C1271 1.247 . S
O1258 Eu1241 2.347 . S
O1258 C1242 1.259 . S
O1259 Tb1240 2.418 . S
O1259 C1242 1.265 . S
O1260 Tb1240 2.384 . S
O1260 C1243 1.255 . S
O1261 Eu1241 2.366 . S
O1261 C1243 1.265 . S
C1262 O1253 1.255 . S
C1262 O1254 1.265 . S
O1263 Tb1240 2.479 . S
O1263 C1250 1.238 . S
O1264 Tb1240 2.471 . S
O1264 C1250 1.247 . S
C1265 C1268 1.380 . S
C1265 C1269 1.374 . S
C1265 C1271 1.507 . S
C1266 C1267 1.387 . S
C1266 C1270 1.391 . S
C1267 C1266 1.387 . S
C1267 C1268 1.384 . S
C1267 H1276 0.930 . S
C1268 C1265 1.380 . S
C1268 C1267 1.384 . S
C1268 H1277 0.931 . S
C1269 C1265 1.374 . S
C1269 C1270 1.390 . S
C1269 H1278 0.930 . S
C1270 C1266 1.391 . S
C1270 C1269 1.390 . S
C1270 H1279 0.930 . S
C1271 Eu1241 2.825 . S
C1271 O1256 1.238 . S
C1271 O1257 1.247 . S
C1271 C1265 1.507 . S
H1272 C1245 0.930 . S
H1273 C1246 0.931 . S
H1274 C1247 0.930 . S
H1275 C1248 0.930 . S
H1276 C1267 0.930 . S
H1277 C1268 0.931 . S
H1278 C1269 0.930 . S
H1279 C1270 0.930 . S
Tb1280 C1290 2.825 . S
Tb1280 O1291 2.347 . S
Tb1280 O1294 2.366 . S
Tb1280 O1299 2.418 . S
Tb1280 O1300 2.384 . S
Tb1280 O1303 2.479 . S
Tb1280 O1304 2.471 . S
Eu1281 O1292 2.418 . S
Eu1281 O1293 2.384 . S
Eu1281 O1296 2.479 . S
Eu1281 O1297 2.471 . S
Eu1281 O1298 2.347 . S
Eu1281 O1301 2.366 . S
Eu1281 C1311 2.825 . S
C1282 O1298 1.259 . S
C1282 O1299 1.265 . S
C1283 O1300 1.255 . S
C1283 O1301 1.265 . S
C1284 C1286 1.380 . S
C1284 C1287 1.374 . S
C1284 C1290 1.507 . S
C1285 C1286 1.384 . S
C1285 C1289 1.387 . S
C1285 H1312 0.930 . S
C1286 C1284 1.380 . S
C1286 C1285 1.384 . S
C1286 H1313 0.931 . S
C1287 C1284 1.374 . S
C1287 C1288 1.390 . S
C1287 H1314 0.930 . S
C1288 C1287 1.390 . S
C1288 C1289 1.391 . S
C1288 H1315 0.930 . S
C1289 C1285 1.387 . S
C1289 C1288 1.391 . S
C1290 Tb1280 2.825 . S
C1290 C1284 1.507 . S
C1290 O1303 1.238 . S
C1290 O1304 1.247 . S
O1291 Tb1280 2.347 . S
O1291 C1295 1.259 . S
O1292 Eu1281 2.418 . S
O1292 C1295 1.265 . S
O1293 Eu1281 2.384 . S
O1293 C1302 1.255 . S
O1294 Tb1280 2.366 . S
O1294 C1302 1.265 . S
C1295 O1291 1.259 . S
C1295 O1292 1.265 . S
O1296 Eu1281 2.479 . S
O1296 C1311 1.238 . S
O1297 Eu1281 2.471 . S
O1297 C1311 1.247 . S
O1298 Eu1281 2.347 . S
O1298 C1282 1.259 . S
O1299 Tb1280 2.418 . S
O1299 C1282 1.265 . S
O1300 Tb1280 2.384 . S
O1300 C1283 1.255 . S
O1301 Eu1281 2.366 . S
O1301 C1283 1.265 . S
C1302 O1293 1.255 . S
C1302 O1294 1.265 . S
O1303 Tb1280 2.479 . S
O1303 C1290 1.238 . S
O1304 Tb1280 2.471 . S
O1304 C1290 1.247 . S
C1305 C1308 1.380 . S
C1305 C1309 1.374 . S
C1305 C1311 1.507 . S
C1306 C1307 1.387 . S
C1306 C1310 1.391 . S
C1307 C1306 1.387 . S
C1307 C1308 1.384 . S
C1307 H1316 0.930 . S
C1308 C1305 1.380 . S
C1308 C1307 1.384 . S
C1308 H1317 0.931 . S
C1309 C1305 1.374 . S
C1309 C1310 1.390 . S
C1309 H1318 0.930 . S
C1310 C1306 1.391 . S
C1310 C1309 1.390 . S
C1310 H1319 0.930 . S
C1311 Eu1281 2.825 . S
C1311 O1296 1.238 . S
C1311 O1297 1.247 . S
C1311 C1305 1.507 . S
H1312 C1285 0.930 . S
H1313 C1286 0.931 . S
H1314 C1287 0.930 . S
H1315 C1288 0.930 . S
H1316 C1307 0.930 . S
H1317 C1308 0.931 . S
H1318 C1309 0.930 . S
H1319 C1310 0.930 . S
Tb1320 C1330 2.825 . S
Tb1320 O1331 2.347 . S
Tb1320 O1334 2.366 . S
Tb1320 O1339 2.418 . S
Tb1320 O1340 2.384 . S
Tb1320 O1343 2.479 . S
Tb1320 O1344 2.471 . S
Eu1321 O1332 2.418 . S
Eu1321 O1333 2.384 . S
Eu1321 O1336 2.479 . S
Eu1321 O1337 2.471 . S
Eu1321 O1338 2.347 . S
Eu1321 O1341 2.366 . S
Eu1321 C1351 2.825 . S
C1322 O1338 1.259 . S
C1322 O1339 1.265 . S
C1323 O1340 1.255 . S
C1323 O1341 1.265 . S
C1324 C1326 1.380 . S
C1324 C1327 1.374 . S
C1324 C1330 1.507 . S
C1325 C1326 1.384 . S
C1325 C1329 1.387 . S
C1325 H1352 0.930 . S
C1326 C1324 1.380 . S
C1326 C1325 1.384 . S
C1326 H1353 0.931 . S
C1327 C1324 1.374 . S
C1327 C1328 1.390 . S
C1327 H1354 0.930 . S
C1328 C1327 1.390 . S
C1328 C1329 1.391 . S
C1328 H1355 0.930 . S
C1329 C1325 1.387 . S
C1329 C1328 1.391 . S
C1330 Tb1320 2.825 . S
C1330 C1324 1.507 . S
C1330 O1343 1.238 . S
C1330 O1344 1.247 . S
O1331 Tb1320 2.347 . S
O1331 C1335 1.259 . S
O1332 Eu1321 2.418 . S
O1332 C1335 1.265 . S
O1333 Eu1321 2.384 . S
O1333 C1342 1.255 . S
O1334 Tb1320 2.366 . S
O1334 C1342 1.265 . S
C1335 O1331 1.259 . S
C1335 O1332 1.265 . S
O1336 Eu1321 2.479 . S
O1336 C1351 1.238 . S
O1337 Eu1321 2.471 . S
O1337 C1351 1.247 . S
O1338 Eu1321 2.347 . S
O1338 C1322 1.259 . S
O1339 Tb1320 2.418 . S
O1339 C1322 1.265 . S
O1340 Tb1320 2.384 . S
O1340 C1323 1.255 . S
O1341 Eu1321 2.366 . S
O1341 C1323 1.265 . S
C1342 O1333 1.255 . S
C1342 O1334 1.265 . S
O1343 Tb1320 2.479 . S
O1343 C1330 1.238 . S
O1344 Tb1320 2.471 . S
O1344 C1330 1.247 . S
C1345 C1348 1.380 . S
C1345 C1349 1.374 . S
C1345 C1351 1.507 . S
C1346 C1347 1.387 . S
C1346 C1350 1.391 . S
C1347 C1346 1.387 . S
C1347 C1348 1.384 . S
C1347 H1356 0.930 . S
C1348 C1345 1.380 . S
C1348 C1347 1.384 . S
C1348 H1357 0.931 . S
C1349 C1345 1.374 . S
C1349 C1350 1.390 . S
C1349 H1358 0.930 . S
C1350 C1346 1.391 . S
C1350 C1349 1.390 . S
C1350 H1359 0.930 . S
C1351 Eu1321 2.825 . S
C1351 O1336 1.238 . S
C1351 O1337 1.247 . S
C1351 C1345 1.507 . S
H1352 C1325 0.930 . S
H1353 C1326 0.931 . S
H1354 C1327 0.930 . S
H1355 C1328 0.930 . S
H1356 C1347 0.930 . S
H1357 C1348 0.931 . S
H1358 C1349 0.930 . S
H1359 C1350 0.930 . S
Tb1360 C1370 2.825 . S
Tb1360 O1371 2.347 . S
Tb1360 O1374 2.366 . S
Tb1360 O1379 2.418 . S
Tb1360 O1380 2.384 . S
Tb1360 O1383 2.479 . S
Tb1360 O1384 2.471 . S
Eu1361 O1372 2.418 . S
Eu1361 O1373 2.384 . S
Eu1361 O1376 2.479 . S
Eu1361 O1377 2.471 . S
Eu1361 O1378 2.347 . S
Eu1361 O1381 2.366 . S
Eu1361 C1391 2.825 . S
C1362 O1378 1.259 . S
C1362 O1379 1.265 . S
C1363 O1380 1.255 . S
C1363 O1381 1.265 . S
C1364 C1366 1.380 . S
C1364 C1367 1.374 . S
C1364 C1370 1.507 . S
C1365 C1366 1.384 . S
C1365 C1369 1.387 . S
C1365 H1392 0.930 . S
C1366 C1364 1.380 . S
C1366 C1365 1.384 . S
C1366 H1393 0.931 . S
C1367 C1364 1.374 . S
C1367 C1368 1.390 . S
C1367 H1394 0.930 . S
C1368 C1367 1.390 . S
C1368 C1369 1.391 . S
C1368 H1395 0.930 . S
C1369 C1365 1.387 . S
C1369 C1368 1.391 . S
C1370 Tb1360 2.825 . S
C1370 C1364 1.507 . S
C1370 O1383 1.238 . S
C1370 O1384 1.247 . S
O1371 Tb1360 2.347 . S
O1371 C1375 1.259 . S
O1372 Eu1361 2.418 . S
O1372 C1375 1.265 . S
O1373 Eu1361 2.384 . S
O1373 C1382 1.255 . S
O1374 Tb1360 2.366 . S
O1374 C1382 1.265 . S
C1375 O1371 1.259 . S
C1375 O1372 1.265 . S
O1376 Eu1361 2.479 . S
O1376 C1391 1.238 . S
O1377 Eu1361 2.471 . S
O1377 C1391 1.247 . S
O1378 Eu1361 2.347 . S
O1378 C1362 1.259 . S
O1379 Tb1360 2.418 . S
O1379 C1362 1.265 . S
O1380 Tb1360 2.384 . S
O1380 C1363 1.255 . S
O1381 Eu1361 2.366 . S
O1381 C1363 1.265 . S
C1382 O1373 1.255 . S
C1382 O1374 1.265 . S
O1383 Tb1360 2.479 . S
O1383 C1370 1.238 . S
O1384 Tb1360 2.471 . S
O1384 C1370 1.247 . S
C1385 C1388 1.380 . S
C1385 C1389 1.374 . S
C1385 C1391 1.507 . S
C1386 C1387 1.387 . S
C1386 C1390 1.391 . S
C1387 C1386 1.387 . S
C1387 C1388 1.384 . S
C1387 H1396 0.930 . S
C1388 C1385 1.380 . S
C1388 C1387 1.384 . S
C1388 H1397 0.931 . S
C1389 C1385 1.374 . S
C1389 C1390 1.390 . S
C1389 H1398 0.930 . S
C1390 C1386 1.391 . S
C1390 C1389 1.390 . S
C1390 H1399 0.930 . S
C1391 Eu1361 2.825 . S
C1391 O1376 1.238 . S
C1391 O1377 1.247 . S
C1391 C1385 1.507 . S
H1392 C1365 0.930 . S
H1393 C1366 0.931 . S
H1394 C1367 0.930 . S
H1395 C1368 0.930 . S
H1396 C1387 0.930 . S
H1397 C1388 0.931 . S
H1398 C1389 0.930 . S
H1399 C1390 0.930 . S
Tb1400 C1410 2.825 . S
Tb1400 O1411 2.347 . S
Tb1400 O1414 2.366 . S
Tb1400 O1419 2.418 . S
Tb1400 O1420 2.384 . S
Tb1400 O1423 2.479 . S
Tb1400 O1424 2.471 . S
Eu1401 O1412 2.418 . S
Eu1401 O1413 2.384 . S
Eu1401 O1416 2.479 . S
Eu1401 O1417 2.471 . S
Eu1401 O1418 2.347 . S
Eu1401 O1421 2.366 . S
Eu1401 C1431 2.825 . S
C1402 O1418 1.259 . S
C1402 O1419 1.265 . S
C1403 O1420 1.255 . S
C1403 O1421 1.265 . S
C1404 C1406 1.380 . S
C1404 C1407 1.374 . S
C1404 C1410 1.507 . S
C1405 C1406 1.384 . S
C1405 C1409 1.387 . S
C1405 H1432 0.930 . S
C1406 C1404 1.380 . S
C1406 C1405 1.384 . S
C1406 H1433 0.931 . S
C1407 C1404 1.374 . S
C1407 C1408 1.390 . S
C1407 H1434 0.930 . S
C1408 C1407 1.390 . S
C1408 C1409 1.391 . S
C1408 H1435 0.930 . S
C1409 C1405 1.387 . S
C1409 C1408 1.391 . S
C1410 Tb1400 2.825 . S
C1410 C1404 1.507 . S
C1410 O1423 1.238 . S
C1410 O1424 1.247 . S
O1411 Tb1400 2.347 . S
O1411 C1415 1.259 . S
O1412 Eu1401 2.418 . S
O1412 C1415 1.265 . S
O1413 Eu1401 2.384 . S
O1413 C1422 1.255 . S
O1414 Tb1400 2.366 . S
O1414 C1422 1.265 . S
C1415 O1411 1.259 . S
C1415 O1412 1.265 . S
O1416 Eu1401 2.479 . S
O1416 C1431 1.238 . S
O1417 Eu1401 2.471 . S
O1417 C1431 1.247 . S
O1418 Eu1401 2.347 . S
O1418 C1402 1.259 . S
O1419 Tb1400 2.418 . S
O1419 C1402 1.265 . S
O1420 Tb1400 2.384 . S
O1420 C1403 1.255 . S
O1421 Eu1401 2.366 . S
O1421 C1403 1.265 . S
C1422 O1413 1.255 . S
C1422 O1414 1.265 . S
O1423 Tb1400 2.479 . S
O1423 C1410 1.238 . S
O1424 Tb1400 2.471 . S
O1424 C1410 1.247 . S
C1425 C1428 1.380 . S
C1425 C1429 1.374 . S
C1425 C1431 1.507 . S
C1426 C1427 1.387 . S
C1426 C1430 1.391 . S
C1427 C1426 1.387 . S
C1427 C1428 1.384 . S
C1427 H1436 0.930 . S
C1428 C1425 1.380 . S
C1428 C1427 1.384 . S
C1428 H1437 0.931 . S
C1429 C1425 1.374 . S
C1429 C1430 1.390 . S
C1429 H1438 0.930 . S
C1430 C1426 1.391 . S
C1430 C1429 1.390 . S
C1430 H1439 0.930 . S
C1431 Eu1401 2.825 . S
C1431 O1416 1.238 . S
C1431 O1417 1.247 . S
C1431 C1425 1.507 . S
H1432 C1405 0.930 . S
H1433 C1406 0.931 . S
H1434 C1407 0.930 . S
H1435 C1408 0.930 . S
H1436 C1427 0.930 . S
H1437 C1428 0.931 . S
H1438 C1429 0.930 . S
H1439 C1430 0.930 . S
C1440 C1441 1.387 . S
C1440 H1444 0.950 . S
C1440 C1449 1.390 . S
C1441 C1440 1.387 . S
C1441 C1443 1.387 . S
H1442 C1449 0.950 . S
C1443 C1441 1.387 . S
C1443 C1445 1.390 . S
C1443 H1447 0.950 . S
H1444 C1440 0.950 . S
C1445 C1443 1.390 . S
C1445 C1446 1.387 . S
C1445 H1448 0.950 1_554 S
C1446 C1445 1.387 . S
C1446 C1449 1.387 . S
H1447 C1443 0.950 . S
H1448 C1445 0.950 1_556 S
C1449 C1440 1.390 . S
C1449 H1442 0.950 . S
C1449 C1446 1.387 . S
C1450 C1451 1.387 . S
C1450 H1454 0.950 . S
C1450 C1459 1.390 . S
C1451 C1450 1.387 . S
C1451 C1453 1.387 . S
H1452 C1459 0.950 . S
C1453 C1451 1.387 . S
C1453 C1455 1.390 . S
C1453 H1457 0.950 . S
H1454 C1450 0.950 . S
C1455 C1453 1.390 . S
C1455 C1456 1.387 . S
C1455 H1458 0.950 . S
C1456 C1455 1.387 . S
C1456 C1459 1.387 . S
H1457 C1453 0.950 . S
H1458 C1455 0.950 . S
C1459 C1450 1.390 . S
C1459 H1452 0.950 . S
C1459 C1456 1.387 . S
C1460 C1461 1.387 1_556 S
C1460 H1464 0.950 . S
C1460 C1469 1.390 . S
C1461 C1460 1.387 1_554 S
C1461 C1463 1.387 . S
H1462 C1469 0.950 . S
C1463 C1461 1.387 . S
C1463 C1465 1.390 . S
C1463 H1467 0.950 . S
H1464 C1460 0.950 . S
C1465 C1463 1.390 . S
C1465 C1466 1.387 . S
C1465 H1468 0.950 . S
C1466 C1465 1.387 . S
C1466 C1469 1.387 1_554 S
H1467 C1463 0.950 . S
H1468 C1465 0.950 . S
C1469 C1460 1.390 . S
C1469 H1462 0.950 . S
C1469 C1466 1.387 1_556 S
C1470 C1471 1.387 . S
C1470 H1474 0.950 . S
C1470 C1479 1.390 . S
C1471 C1470 1.387 . S
C1471 C1473 1.387 . S
H1472 C1479 0.950 . S
C1473 C1471 1.387 . S
C1473 C1475 1.390 . S
C1473 H1477 0.950 1_556 S
H1474 C1470 0.950 . S
C1475 C1473 1.390 . S
C1475 C1476 1.387 . S
C1475 H1478 0.950 1_556 S
C1476 C1475 1.387 . S
C1476 C1479 1.387 . S
H1477 C1473 0.950 1_554 S
H1478 C1475 0.950 1_554 S
C1479 C1470 1.390 . S
C1479 H1472 0.950 . S
C1479 C1476 1.387 . S
C1480 C1481 1.387 . S
C1480 H1484 0.950 . S
C1480 C1489 1.390 . S
C1481 C1480 1.387 . S
C1481 C1483 1.387 . S
H1482 C1489 0.950 . S
C1483 C1481 1.387 . S
C1483 C1485 1.390 . S
C1483 H1487 0.950 . S
H1484 C1480 0.950 . S
C1485 C1483 1.390 . S
C1485 C1486 1.387 . S
C1485 H1488 0.950 . S
C1486 C1485 1.387 . S
C1486 C1489 1.387 . S
H1487 C1483 0.950 . S
H1488 C1485 0.950 . S
C1489 C1480 1.390 . S
C1489 H1482 0.950 . S
C1489 C1486 1.387 . S
C1490 C1491 1.387 . S
C1490 H1494 0.950 . S
C1490 C1499 1.390 . S
C1491 C1490 1.387 . S
C1491 C1493 1.387 . S
H1492 C1499 0.950 . S
C1493 C1491 1.387 . S
C1493 C1495 1.390 . S
C1493 H1497 0.952 1_556 S
H1494 C1490 0.950 . S
C1495 C1493 1.390 . S
C1495 C1496 1.387 . S
C1495 H1498 0.950 1_556 S
C1496 C1495 1.387 . S
C1496 C1499 1.387 . S
H1497 C1493 0.952 1_554 S
H1498 C1495 0.950 1_554 S
C1499 C1490 1.390 . S
C1499 H1492 0.950 . S
C1499 C1496 1.387 . S
C1500 C1501 1.387 . S
C1500 H1504 0.950 . S
C1500 C1509 1.390 . S
C1501 C1500 1.387 . S
C1501 C1503 1.387 . S
H1502 C1509 0.950 . S
C1503 C1501 1.387 . S
C1503 C1505 1.390 . S
C1503 H1507 0.950 . S
H1504 C1500 0.950 . S
C1505 C1503 1.390 . S
C1505 C1506 1.387 . S
C1505 H1508 0.950 . S
C1506 C1505 1.387 . S
C1506 C1509 1.387 . S
H1507 C1503 0.950 . S
H1508 C1505 0.950 . S
C1509 C1500 1.390 . S
C1509 H1502 0.950 . S
C1509 C1506 1.387 . S
C1510 C1511 1.387 . S
C1510 H1514 0.950 . S
C1510 C1519 1.390 . S
C1511 C1510 1.387 . S
C1511 C1513 1.387 . S
H1512 C1519 0.950 . S
C1513 C1511 1.387 . S
C1513 C1515 1.390 . S
C1513 H1517 0.950 . S
H1514 C1510 0.950 . S
C1515 C1513 1.390 . S
C1515 C1516 1.387 . S
C1515 H1518 0.950 . S
C1516 C1515 1.387 . S
C1516 C1519 1.387 . S
H1517 C1513 0.950 . S
H1518 C1515 0.950 . S
C1519 C1510 1.390 . S
C1519 H1512 0.950 . S
C1519 C1516 1.387 . S
C1520 C1521 1.387 1_554 S
C1520 H1524 0.950 . S
C1520 C1529 1.390 . S
C1521 C1520 1.387 1_556 S
C1521 C1523 1.387 . S
H1522 C1529 0.950 . S
C1523 C1521 1.387 . S
C1523 C1525 1.390 . S
C1523 H1527 0.950 . S
H1524 C1520 0.950 . S
C1525 C1523 1.390 . S
C1525 C1526 1.387 . S
C1525 H1528 0.950 . S
C1526 C1525 1.387 . S
C1526 C1529 1.387 1_556 S
H1527 C1523 0.950 . S
H1528 C1525 0.950 . S
C1529 C1520 1.390 . S
C1529 H1522 0.950 . S
C1529 C1526 1.387 1_554 S
C1530 C1531 1.387 . S
C1530 H1534 0.950 . S
C1530 C1539 1.390 . S
C1531 C1530 1.387 . S
C1531 C1533 1.387 . S
H1532 C1539 0.950 . S
C1533 C1531 1.387 . S
C1533 C1535 1.390 . S
C1533 H1537 0.950 1_554 S
H1534 C1530 0.950 . S
C1535 C1533 1.390 . S
C1535 C1536 1.387 . S
C1535 H1538 0.950 1_554 S
C1536 C1535 1.387 . S
C1536 C1539 1.387 . S
H1537 C1533 0.950 1_556 S
H1538 C1535 0.950 1_556 S
C1539 C1530 1.390 . S
C1539 H1532 0.950 . S
C1539 C1536 1.387 . S
C1540 C1541 1.387 . S
C1540 H1544 0.950 . S
C1540 C1549 1.390 . S
C1541 C1540 1.387 . S
C1541 C1543 1.387 . S
H1542 C1549 0.950 . S
C1543 C1541 1.387 . S
C1543 C1545 1.390 . S
C1543 H1547 0.950 . S
H1544 C1540 0.950 . S
C1545 C1543 1.390 . S
C1545 C1546 1.387 . S
C1545 H1548 0.950 . S
C1546 C1545 1.387 . S
C1546 C1549 1.387 . S
H1547 C1543 0.950 . S
H1548 C1545 0.950 . S
C1549 C1540 1.390 . S
C1549 H1542 0.950 . S
C1549 C1546 1.387 . S
C1550 C1551 1.387 . S
C1550 H1554 0.950 . S
C1550 C1559 1.390 . S
C1551 C1550 1.387 . S
C1551 C1553 1.387 . S
H1552 C1559 0.950 . S
C1553 C1551 1.387 . S
C1553 C1555 1.391 . S
C1553 H1557 0.950 1_554 S
H1554 C1550 0.950 . S
C1555 C1553 1.391 . S
C1555 C1556 1.391 . S
C1555 H1558 0.945 1_554 S
C1556 C1555 1.391 . S
C1556 C1559 1.387 . S
H1557 C1553 0.950 1_556 S
H1558 C1555 0.945 1_556 S
C1559 C1550 1.390 . S
C1559 H1552 0.950 . S
C1559 C1556 1.387 . S
C1560 C1561 1.387 . S
C1560 H1564 0.950 1_455 S
C1560 C1569 1.390 . S
C1561 C1560 1.387 . S
C1561 C1563 1.387 . S
H1562 C1569 0.950 . S
C1563 C1561 1.387 . S
C1563 C1565 1.390 . S
C1563 H1567 0.950 . S
H1564 C1560 0.950 1_655 S
C1565 C1563 1.390 . S
C1565 C1566 1.387 . S
C1565 H1568 0.950 . S
C1566 C1565 1.387 . S
C1566 C1569 1.387 . S
H1567 C1563 0.950 . S
H1568 C1565 0.950 . S
C1569 C1560 1.390 . S
C1569 H1562 0.950 . S
C1569 C1566 1.387 . S
C1570 C1571 1.387 . S
C1570 H1574 0.950 . S
C1570 C1579 1.390 . S
C1571 C1570 1.387 . S
C1571 C1573 1.387 . S
H1572 C1579 0.950 . S
C1573 C1571 1.387 . S
C1573 C1575 1.390 . S
C1573 H1577 0.950 . S
H1574 C1570 0.950 . S
C1575 C1573 1.390 . S
C1575 C1576 1.387 . S
C1575 H1578 0.950 . S
C1576 C1575 1.387 . S
C1576 C1579 1.387 . S
H1577 C1573 0.950 . S
H1578 C1575 0.950 . S
C1579 C1570 1.390 . S
C1579 H1572 0.950 . S
C1579 C1576 1.387 . S
C1580 C1581 1.387 1_565 S
C1580 H1584 0.950 . S
C1580 C1589 1.390 . S
C1581 C1580 1.387 1_545 S
C1581 C1583 1.387 1_545 S
H1582 C1589 0.950 . S
C1583 C1581 1.387 1_565 S
C1583 C1585 1.390 . S
C1583 H1587 0.950 1_565 S
H1584 C1580 0.950 . S
C1585 C1583 1.390 . S
C1585 C1586 1.387 . S
C1585 H1588 0.950 . S
C1586 C1585 1.387 . S
C1586 C1589 1.387 . S
H1587 C1583 0.950 1_545 S
H1588 C1585 0.950 . S
C1589 C1580 1.390 . S
C1589 H1582 0.950 . S
C1589 C1586 1.387 . S
C1590 C1591 1.387 . S
C1590 H1594 0.950 . S
C1590 C1599 1.390 . S
C1591 C1590 1.387 . S
C1591 C1593 1.387 . S
H1592 C1599 0.950 . S
C1593 C1591 1.387 . S
C1593 C1595 1.390 . S
C1593 H1597 0.950 . S
H1594 C1590 0.950 . S
C1595 C1593 1.390 . S
C1595 C1596 1.387 . S
C1595 H1598 0.950 . S
C1596 C1595 1.387 . S
C1596 C1599 1.387 . S
H1597 C1593 0.950 . S
H1598 C1595 0.950 . S
C1599 C1590 1.390 . S
C1599 H1592 0.950 . S
C1599 C1596 1.387 . S
C1600 C1601 1.387 . S
C1600 H1604 0.950 . S
C1600 C1609 1.390 . S
C1601 C1600 1.387 . S
C1601 C1603 1.387 . S
H1602 C1609 0.950 . S
C1603 C1601 1.387 . S
C1603 C1605 1.390 . S
C1603 H1607 0.950 . S
H1604 C1600 0.950 . S
C1605 C1603 1.390 . S
C1605 C1606 1.387 . S
C1605 H1608 0.950 . S
C1606 C1605 1.387 . S
C1606 C1609 1.387 . S
H1607 C1603 0.950 . S
H1608 C1605 0.950 . S
C1609 C1600 1.390 . S
C1609 H1602 0.950 . S
C1609 C1606 1.387 . S
C1610 C1611 1.387 . S
C1610 H1614 0.950 . S
C1610 C1619 1.390 . S
C1611 C1610 1.387 . S
C1611 C1613 1.387 . S
H1612 C1619 0.950 . S
C1613 C1611 1.387 . S
C1613 C1615 1.390 . S
C1613 H1617 0.950 . S
H1614 C1610 0.950 . S
C1615 C1613 1.390 . S
C1615 C1616 1.387 . S
C1615 H1618 0.950 . S
C1616 C1615 1.387 . S
C1616 C1619 1.387 . S
H1617 C1613 0.950 . S
H1618 C1615 0.950 . S
C1619 C1610 1.390 . S
C1619 H1612 0.950 . S
C1619 C1616 1.387 . S
C1620 C1621 1.387 . S
C1620 H1624 0.950 . S
C1620 C1629 1.390 . S
C1621 C1620 1.387 . S
C1621 C1623 1.387 . S
H1622 C1629 0.950 . S
C1623 C1621 1.387 . S
C1623 C1625 1.390 . S
C1623 H1627 0.950 . S
H1624 C1620 0.950 . S
C1625 C1623 1.390 . S
C1625 C1626 1.387 . S
C1625 H1628 0.950 . S
C1626 C1625 1.387 . S
C1626 C1629 1.387 . S
H1627 C1623 0.950 . S
H1628 C1625 0.950 . S
C1629 C1620 1.390 . S
C1629 H1622 0.950 . S
C1629 C1626 1.387 . S
C1630 C1631 1.387 . S
C1630 H1634 0.950 . S
C1630 C1639 1.390 . S
C1631 C1630 1.387 . S
C1631 C1633 1.387 . S
H1632 C1639 0.950 . S
C1633 C1631 1.387 . S
C1633 C1635 1.390 . S
C1633 H1637 0.950 . S
H1634 C1630 0.950 . S
C1635 C1633 1.390 . S
C1635 C1636 1.387 . S
C1635 H1638 0.950 . S
C1636 C1635 1.387 . S
C1636 C1639 1.387 . S
H1637 C1633 0.950 . S
H1638 C1635 0.950 . S
C1639 C1630 1.390 . S
C1639 H1632 0.950 . S
C1639 C1636 1.387 . S
C1640 C1641 1.387 . S
C1640 H1644 0.950 . S
C1640 C1649 1.390 . S
C1641 C1640 1.387 . S
C1641 C1643 1.387 . S
H1642 C1649 0.950 . S
C1643 C1641 1.387 . S
C1643 C1645 1.390 . S
C1643 H1647 0.950 . S
H1644 C1640 0.950 . S
C1645 C1643 1.390 . S
C1645 C1646 1.387 . S
C1645 H1648 0.950 . S
C1646 C1645 1.387 . S
C1646 C1649 1.387 . S
H1647 C1643 0.950 . S
H1648 C1645 0.950 . S
C1649 C1640 1.390 . S
C1649 H1642 0.950 . S
C1649 C1646 1.387 . S
C1650 C1651 1.386 1_565 S
C1650 H1654 0.950 . S
C1650 C1659 1.390 . S
C1651 C1650 1.386 1_545 S
C1651 C1653 1.382 1_545 S
H1652 C1659 0.950 . S
C1653 C1651 1.382 1_565 S
C1653 C1655 1.390 . S
C1653 H1657 0.950 . S
H1654 C1650 0.950 . S
C1655 C1653 1.390 . S
C1655 C1656 1.387 . S
C1655 H1658 0.950 . S
C1656 C1655 1.387 . S
C1656 C1659 1.387 . S
H1657 C1653 0.950 . S
H1658 C1655 0.950 . S
C1659 C1650 1.390 . S
C1659 H1652 0.950 . S
C1659 C1656 1.387 . S
C1660 C1661 1.387 . S
C1660 H1664 0.950 . S
C1660 C1669 1.390 . S
C1661 C1660 1.387 . S
C1661 C1663 1.387 . S
H1662 C1669 0.950 . S
C1663 C1661 1.387 . S
C1663 C1665 1.390 . S
C1663 H1667 0.950 . S
H1664 C1660 0.950 . S
C1665 C1663 1.390 . S
C1665 C1666 1.387 . S
C1665 H1668 0.950 . S
C1666 C1665 1.387 . S
C1666 C1669 1.387 . S
H1667 C1663 0.950 . S
H1668 C1665 0.950 . S
C1669 C1660 1.390 . S
C1669 H1662 0.950 . S
C1669 C1666 1.387 . S
C1670 C1671 1.387 . S
C1670 H1674 0.950 . S
C1670 C1679 1.390 . S
C1671 C1670 1.387 . S
C1671 C1673 1.387 . S
H1672 C1679 0.950 . S
C1673 C1671 1.387 . S
C1673 C1675 1.390 . S
C1673 H1677 0.950 . S
H1674 C1670 0.950 . S
C1675 C1673 1.390 . S
C1675 C1676 1.387 . S
C1675 H1678 0.950 . S
C1676 C1675 1.387 . S
C1676 C1679 1.387 . S
H1677 C1673 0.950 . S
H1678 C1675 0.950 . S
C1679 C1670 1.390 . S
C1679 H1672 0.950 . S
C1679 C1676 1.387 . S
C1680 C1681 1.387 . S
C1680 H1684 0.950 . S
C1680 C1689 1.390 . S
C1681 C1680 1.387 . S
C1681 C1683 1.387 . S
H1682 C1689 0.950 . S
C1683 C1681 1.387 . S
C1683 C1685 1.390 . S
C1683 H1687 0.950 . S
H1684 C1680 0.950 . S
C1685 C1683 1.390 . S
C1685 C1686 1.387 . S
C1685 H1688 0.950 . S
C1686 C1685 1.387 . S
C1686 C1689 1.387 . S
H1687 C1683 0.950 . S
H1688 C1685 0.950 . S
C1689 C1680 1.390 . S
C1689 H1682 0.950 . S
C1689 C1686 1.387 . S
C1690 C1691 1.387 . S
C1690 H1694 0.950 . S
C1690 C1699 1.390 . S
C1691 C1690 1.387 . S
C1691 C1693 1.387 . S
H1692 C1699 0.950 . S
C1693 C1691 1.387 . S
C1693 C1695 1.390 . S
C1693 H1697 0.950 . S
H1694 C1690 0.950 . S
C1695 C1693 1.390 . S
C1695 C1696 1.387 . S
C1695 H1698 0.950 . S
C1696 C1695 1.387 . S
C1696 C1699 1.387 . S
H1697 C1693 0.950 . S
H1698 C1695 0.950 . S
C1699 C1690 1.390 . S
C1699 H1692 0.950 . S
C1699 C1696 1.387 . S
C1700 C1701 1.387 . S
C1700 H1704 0.950 . S
C1700 C1709 1.390 . S
C1701 C1700 1.387 . S
C1701 C1703 1.387 . S
H1702 C1709 0.950 . S
C1703 C1701 1.387 . S
C1703 C1705 1.390 . S
C1703 H1707 0.950 . S
H1704 C1700 0.950 . S
C1705 C1703 1.390 . S
C1705 C1706 1.387 . S
C1705 H1708 0.950 . S
C1706 C1705 1.387 . S
C1706 C1709 1.387 . S
H1707 C1703 0.950 . S
H1708 C1705 0.950 . S
C1709 C1700 1.390 . S
C1709 H1702 0.950 . S
C1709 C1706 1.387 . S
C1710 C1711 1.384 1_545 S
C1710 H1714 0.950 . S
C1710 C1719 1.390 . S
C1711 C1710 1.384 1_565 S
C1711 C1713 1.386 1_565 S
H1712 C1719 0.950 . S
C1713 C1711 1.386 1_545 S
C1713 C1715 1.390 . S
C1713 H1717 0.950 . S
H1714 C1710 0.950 . S
C1715 C1713 1.390 . S
C1715 C1716 1.387 . S
C1715 H1718 0.950 . S
C1716 C1715 1.387 . S
C1716 C1719 1.387 . S
H1717 C1713 0.950 . S
H1718 C1715 0.950 . S
C1719 C1710 1.390 . S
C1719 H1712 0.950 . S
C1719 C1716 1.387 . S
C1720 C1721 1.387 . S
C1720 H1724 0.950 . S
C1720 C1729 1.390 . S
C1721 C1720 1.387 . S
C1721 C1723 1.387 . S
H1722 C1729 0.950 . S
C1723 C1721 1.387 . S
C1723 C1725 1.390 . S
C1723 H1727 0.950 . S
H1724 C1720 0.950 . S
C1725 C1723 1.390 . S
C1725 C1726 1.387 . S
C1725 H1728 0.950 . S
C1726 C1725 1.387 . S
C1726 C1729 1.387 . S
H1727 C1723 0.950 . S
H1728 C1725 0.950 . S
C1729 C1720 1.390 . S
C1729 H1722 0.950 . S
C1729 C1726 1.387 . S
C1730 C1731 1.387 . S
C1730 H1734 0.950 . S
C1730 C1739 1.390 . S
C1731 C1730 1.387 . S
C1731 C1733 1.387 . S
H1732 C1739 0.950 . S
C1733 C1731 1.387 . S
C1733 C1735 1.390 . S
C1733 H1737 0.950 . S
H1734 C1730 0.950 . S
C1735 C1733 1.390 . S
C1735 C1736 1.387 . S
C1735 H1738 0.950 . S
C1736 C1735 1.387 . S
C1736 C1739 1.387 . S
H1737 C1733 0.950 . S
H1738 C1735 0.950 . S
C1739 C1730 1.390 . S
C1739 H1732 0.950 . S
C1739 C1736 1.387 . S
C1740 C1741 1.387 . S
C1740 H1744 0.950 . S
C1740 C1749 1.390 . S
C1741 C1740 1.387 . S
C1741 C1743 1.387 . S
H1742 C1749 0.950 . S
C1743 C1741 1.387 . S
C1743 C1745 1.390 . S
C1743 H1747 0.950 . S
H1744 C1740 0.950 . S
C1745 C1743 1.390 . S
C1745 C1746 1.387 . S
C1745 H1748 0.950 . S
C1746 C1745 1.387 . S
C1746 C1749 1.387 . S
H1747 C1743 0.950 . S
H1748 C1745 0.950 . S
C1749 C1740 1.390 . S
C1749 H1742 0.950 . S
C1749 C1746 1.387 . S
C1750 C1751 1.387 . S
C1750 H1754 0.950 . S
C1750 C1759 1.390 . S
C1751 C1750 1.387 . S
C1751 C1753 1.387 . S
H1752 C1759 0.950 . S
C1753 C1751 1.387 . S
C1753 C1755 1.390 . S
C1753 H1757 0.950 . S
H1754 C1750 0.950 . S
C1755 C1753 1.390 . S
C1755 C1756 1.387 . S
C1755 H1758 0.950 . S
C1756 C1755 1.387 . S
C1756 C1759 1.387 . S
H1757 C1753 0.950 . S
H1758 C1755 0.950 . S
C1759 C1750 1.390 . S
C1759 H1752 0.950 . S
C1759 C1756 1.387 . S
C1760 C1761 1.387 1_545 S
C1760 H1764 0.950 . S
C1760 C1769 1.390 . S
C1761 C1760 1.387 1_565 S
C1761 C1763 1.387 1_565 S
H1762 C1769 0.950 . S
C1763 C1761 1.387 1_545 S
C1763 C1765 1.390 . S
C1763 H1767 0.950 1_545 S
H1764 C1760 0.950 . S
C1765 C1763 1.390 . S
C1765 C1766 1.387 . S
C1765 H1768 0.950 . S
C1766 C1765 1.387 . S
C1766 C1769 1.387 . S
H1767 C1763 0.950 1_565 S
H1768 C1765 0.950 . S
C1769 C1760 1.390 . S
C1769 H1762 0.950 . S
C1769 C1766 1.387 . S
C1770 C1771 1.387 . S
C1770 H1774 0.950 . S
C1770 C1779 1.390 . S
C1771 C1770 1.387 . S
C1771 C1773 1.387 . S
H1772 C1779 0.950 . S
C1773 C1771 1.387 . S
C1773 C1775 1.390 . S
C1773 H1777 0.950 . S
H1774 C1770 0.950 . S
C1775 C1773 1.390 . S
C1775 C1776 1.387 . S
C1775 H1778 0.950 . S
C1776 C1775 1.387 . S
C1776 C1779 1.387 . S
H1777 C1773 0.950 . S
H1778 C1775 0.950 . S
C1779 C1770 1.390 . S
C1779 H1772 0.950 . S
C1779 C1776 1.387 . S
C1780 C1781 1.387 . S
C1780 H1784 0.950 . S
C1780 C1789 1.390 . S
C1781 C1780 1.387 . S
C1781 C1783 1.387 . S
H1782 C1789 0.950 . S
C1783 C1781 1.387 . S
C1783 C1785 1.390 . S
C1783 H1787 0.950 . S
H1784 C1780 0.950 . S
C1785 C1783 1.390 . S
C1785 C1786 1.387 . S
C1785 H1788 0.950 . S
C1786 C1785 1.387 . S
C1786 C1789 1.387 . S
H1787 C1783 0.950 . S
H1788 C1785 0.950 . S
C1789 C1780 1.390 . S
C1789 H1782 0.950 . S
C1789 C1786 1.387 . S
C1790 C1791 1.387 . S
C1790 H1794 0.950 . S
C1790 C1799 1.390 . S
C1791 C1790 1.387 . S
C1791 C1793 1.387 . S
H1792 C1799 0.950 . S
C1793 C1791 1.387 . S
C1793 C1795 1.390 . S
C1793 H1797 0.950 . S
H1794 C1790 0.950 . S
C1795 C1793 1.390 . S
C1795 C1796 1.387 . S
C1795 H1798 0.950 . S
C1796 C1795 1.387 . S
C1796 C1799 1.387 . S
H1797 C1793 0.950 . S
H1798 C1795 0.950 . S
C1799 C1790 1.390 . S
C1799 H1792 0.950 . S
C1799 C1796 1.387 . S
C1800 C1801 1.387 . S
C1800 H1804 0.950 . S
C1800 C1809 1.390 . S
C1801 C1800 1.387 . S
C1801 C1803 1.387 . S
H1802 C1809 0.950 1_545 S
C1803 C1801 1.387 . S
C1803 C1805 1.390 . S
C1803 H1807 0.950 . S
H1804 C1800 0.950 . S
C1805 C1803 1.390 . S
C1805 C1806 1.387 . S
C1805 H1808 0.950 . S
C1806 C1805 1.387 . S
C1806 C1809 1.387 . S
H1807 C1803 0.950 . S
H1808 C1805 0.950 . S
C1809 C1800 1.390 . S
C1809 H1802 0.950 1_565 S
C1809 C1806 1.387 . S
C1810 C1811 1.387 1_655 S
C1810 H1814 0.950 . S
C1810 C1819 1.400 . S
C1811 C1810 1.387 1_455 S
C1811 C1813 1.387 . S
H1812 C1819 0.941 . S
C1813 C1811 1.387 . S
C1813 C1815 1.390 . S
C1813 H1817 0.950 . S
H1814 C1810 0.950 . S
C1815 C1813 1.390 . S
C1815 C1816 1.387 . S
C1815 H1818 0.950 . S
C1816 C1815 1.387 . S
C1816 C1819 1.388 1_455 S
H1817 C1813 0.950 . S
H1818 C1815 0.950 . S
C1819 C1810 1.400 . S
C1819 H1812 0.941 . S
C1819 C1816 1.388 1_655 S
C1820 C1821 1.387 . S
C1820 H1824 0.950 . S
C1820 C1829 1.390 . S
C1821 C1820 1.387 . S
C1821 C1823 1.387 . S
H1822 C1829 0.950 . S
C1823 C1821 1.387 . S
C1823 C1825 1.390 . S
C1823 H1827 0.950 . S
H1824 C1820 0.950 . S
C1825 C1823 1.390 . S
C1825 C1826 1.387 . S
C1825 H1828 0.950 . S
C1826 C1825 1.387 . S
C1826 C1829 1.387 . S
H1827 C1823 0.950 . S
H1828 C1825 0.950 . S
C1829 C1820 1.390 . S
C1829 H1822 0.950 . S
C1829 C1826 1.387 . S
C1830 C1831 1.387 . S
C1830 H1834 0.950 . S
C1830 C1839 1.390 . S
C1831 C1830 1.387 . S
C1831 C1833 1.387 1_655 S
H1832 C1839 0.950 . S
C1833 C1831 1.387 1_455 S
C1833 C1835 1.390 . S
C1833 H1837 0.950 . S
H1834 C1830 0.950 . S
C1835 C1833 1.390 . S
C1835 C1836 1.387 1_455 S
C1835 H1838 0.950 . S
C1836 C1835 1.387 1_655 S
C1836 C1839 1.387 . S
H1837 C1833 0.950 . S
H1838 C1835 0.950 . S
C1839 C1830 1.390 . S
C1839 H1832 0.950 . S
C1839 C1836 1.387 . S
C1840 C1841 1.387 . S
C1840 H1844 0.950 . S
C1840 C1849 1.390 . S
C1841 C1840 1.387 . S
C1841 C1843 1.387 . S
H1842 C1849 0.950 . S
C1843 C1841 1.387 . S
C1843 C1845 1.390 . S
C1843 H1847 0.950 . S
H1844 C1840 0.950 . S
C1845 C1843 1.390 . S
C1845 C1846 1.387 . S
C1845 H1848 0.950 . S
C1846 C1845 1.387 . S
C1846 C1849 1.387 . S
H1847 C1843 0.950 . S
H1848 C1845 0.950 . S
C1849 C1840 1.390 . S
C1849 H1842 0.950 . S
C1849 C1846 1.387 . S
C1850 C1851 1.387 . S
C1850 H1854 0.950 . S
C1850 C1859 1.390 . S
C1851 C1850 1.387 . S
C1851 C1853 1.387 . S
H1852 C1859 0.950 . S
C1853 C1851 1.387 . S
C1853 C1855 1.402 . S
C1853 H1857 0.950 . S
H1854 C1850 0.950 . S
C1855 C1853 1.402 . S
C1855 C1856 1.382 . S
C1855 H1858 0.945 1_545 S
C1856 C1855 1.382 . S
C1856 C1859 1.387 . S
H1857 C1853 0.950 . S
H1858 C1855 0.945 1_565 S
C1859 C1850 1.390 . S
C1859 H1852 0.950 . S
C1859 C1856 1.387 . S
C1860 C1861 1.387 . S
C1860 H1864 0.950 . S
C1860 C1869 1.390 . S
C1861 C1860 1.387 . S
C1861 C1863 1.387 . S
H1862 C1869 0.950 . S
C1863 C1861 1.387 . S
C1863 C1865 1.390 . S
C1863 H1867 0.950 . S
H1864 C1860 0.950 . S
C1865 C1863 1.390 . S
C1865 C1866 1.387 . S
C1865 H1868 0.950 . S
C1866 C1865 1.387 . S
C1866 C1869 1.387 . S
H1867 C1863 0.950 . S
H1868 C1865 0.950 . S
C1869 C1860 1.390 . S
C1869 H1862 0.950 . S
C1869 C1866 1.387 . S
C1870 C1871 1.387 . S
C1870 H1874 0.950 . S
C1870 C1879 1.390 . S
C1871 C1870 1.387 . S
C1871 C1873 1.387 . S
H1872 C1879 0.950 . S
C1873 C1871 1.387 . S
C1873 C1875 1.390 . S
C1873 H1877 0.950 . S
H1874 C1870 0.950 . S
C1875 C1873 1.390 . S
C1875 C1876 1.387 . S
C1875 H1878 0.950 . S
C1876 C1875 1.387 . S
C1876 C1879 1.387 . S
H1877 C1873 0.950 . S
H1878 C1875 0.950 . S
C1879 C1870 1.390 . S
C1879 H1872 0.950 . S
C1879 C1876 1.387 . S
C1880 C1881 1.387 . S
C1880 H1884 0.950 . S
C1880 C1889 1.390 . S
C1881 C1880 1.387 . S
C1881 C1883 1.387 . S
H1882 C1889 0.950 . S
C1883 C1881 1.387 . S
C1883 C1885 1.390 . S
C1883 H1887 0.950 . S
H1884 C1880 0.950 . S
C1885 C1883 1.390 . S
C1885 C1886 1.387 . S
C1885 H1888 0.950 . S
C1886 C1885 1.387 . S
C1886 C1889 1.387 . S
H1887 C1883 0.950 . S
H1888 C1885 0.950 . S
C1889 C1880 1.390 . S
C1889 H1882 0.950 . S
C1889 C1886 1.387 . S
C1890 C1891 1.387 . S
C1890 H1894 0.950 . S
C1890 C1899 1.390 . S
C1891 C1890 1.387 . S
C1891 C1893 1.387 . S
H1892 C1899 0.950 . S
C1893 C1891 1.387 . S
C1893 C1895 1.390 . S
C1893 H1897 0.950 . S
H1894 C1890 0.950 . S
C1895 C1893 1.390 . S
C1895 C1896 1.387 . S
C1895 H1898 0.950 . S
C1896 C1895 1.387 . S
C1896 C1899 1.387 . S
H1897 C1893 0.950 . S
H1898 C1895 0.950 . S
C1899 C1890 1.390 . S
C1899 H1892 0.950 . S
C1899 C1896 1.387 . S
C1900 C1901 1.387 . S
C1900 H1904 0.950 . S
C1900 C1909 1.390 . S
C1901 C1900 1.387 . S
C1901 C1903 1.387 . S
H1902 C1909 0.950 . S
C1903 C1901 1.387 . S
C1903 C1905 1.390 . S
C1903 H1907 0.950 . S
H1904 C1900 0.950 . S
C1905 C1903 1.390 . S
C1905 C1906 1.387 . S
C1905 H1908 0.950 . S
C1906 C1905 1.387 . S
C1906 C1909 1.387 . S
H1907 C1903 0.950 . S
H1908 C1905 0.950 . S
C1909 C1900 1.390 . S
C1909 H1902 0.950 . S
C1909 C1906 1.387 . S
C1910 C1911 1.387 . S
C1910 H1914 0.950 . S
C1910 C1919 1.390 . S
C1911 C1910 1.387 . S
C1911 C1913 1.387 . S
H1912 C1919 0.950 . S
C1913 C1911 1.387 . S
C1913 C1915 1.390 . S
C1913 H1917 0.950 . S
H1914 C1910 0.950 . S
C1915 C1913 1.390 . S
C1915 C1916 1.387 . S
C1915 H1918 0.950 . S
C1916 C1915 1.387 . S
C1916 C1919 1.387 . S
H1917 C1913 0.950 . S
H1918 C1915 0.950 . S
C1919 C1910 1.390 . S
C1919 H1912 0.950 . S
C1919 C1916 1.387 . S
C1920 C1921 1.387 . S
C1920 H1924 0.950 . S
C1920 C1929 1.390 . S
C1921 C1920 1.387 . S
C1921 C1923 1.387 . S
H1922 C1929 0.950 . S
C1923 C1921 1.387 . S
C1923 C1925 1.390 . S
C1923 H1927 0.950 . S
H1924 C1920 0.950 . S
C1925 C1923 1.390 . S
C1925 C1926 1.387 . S
C1925 H1928 0.950 . S
C1926 C1925 1.387 . S
C1926 C1929 1.387 . S
H1927 C1923 0.950 . S
H1928 C1925 0.950 . S
C1929 C1920 1.390 . S
C1929 H1922 0.950 . S
C1929 C1926 1.387 . S
C1930 C1931 1.387 . S
C1930 H1934 0.950 . S
C1930 C1939 1.390 . S
C1931 C1930 1.387 . S
C1931 C1933 1.387 . S
H1932 C1939 0.950 . S
C1933 C1931 1.387 . S
C1933 C1935 1.390 . S
C1933 H1937 0.950 . S
H1934 C1930 0.950 . S
C1935 C1933 1.390 . S
C1935 C1936 1.387 . S
C1935 H1938 0.950 . S
C1936 C1935 1.387 . S
C1936 C1939 1.387 . S
H1937 C1933 0.950 . S
H1938 C1935 0.950 . S
C1939 C1930 1.390 . S
C1939 H1932 0.950 . S
C1939 C1936 1.387 . S
C1940 C1941 1.387 . S
C1940 H1944 0.950 . S
C1940 C1949 1.390 . S
C1941 C1940 1.387 . S
C1941 C1943 1.387 . S
H1942 C1949 0.950 . S
C1943 C1941 1.387 . S
C1943 C1945 1.390 . S
C1943 H1947 0.950 . S
H1944 C1940 0.950 . S
C1945 C1943 1.390 . S
C1945 C1946 1.387 . S
C1945 H1948 0.950 . S
C1946 C1945 1.387 . S
C1946 C1949 1.387 . S
H1947 C1943 0.950 . S
H1948 C1945 0.950 . S
C1949 C1940 1.390 . S
C1949 H1942 0.950 . S
C1949 C1946 1.387 . S
C1950 C1951 1.387 . S
C1950 H1954 0.950 . S
C1950 C1959 1.390 . S
C1951 C1950 1.387 . S
C1951 C1953 1.387 . S
H1952 C1959 0.950 . S
C1953 C1951 1.387 . S
C1953 C1955 1.390 . S
C1953 H1957 0.950 . S
H1954 C1950 0.950 . S
C1955 C1953 1.390 . S
C1955 C1956 1.387 . S
C1955 H1958 0.950 . S
C1956 C1955 1.387 . S
C1956 C1959 1.387 . S
H1957 C1953 0.950 . S
H1958 C1955 0.950 . S
C1959 C1950 1.390 . S
C1959 H1952 0.950 . S
C1959 C1956 1.387 . S
C1960 C1961 1.387 . S
C1960 H1964 0.950 . S
C1960 C1969 1.390 . S
C1961 C1960 1.387 . S
C1961 C1963 1.387 . S
H1962 C1969 0.950 . S
C1963 C1961 1.387 . S
C1963 C1965 1.390 . S
C1963 H1967 0.950 . S
H1964 C1960 0.950 . S
C1965 C1963 1.390 . S
C1965 C1966 1.387 . S
C1965 H1968 0.950 . S
C1966 C1965 1.387 . S
C1966 C1969 1.387 . S
H1967 C1963 0.950 . S
H1968 C1965 0.950 . S
C1969 C1960 1.390 . S
C1969 H1962 0.950 . S
C1969 C1966 1.387 . S
C1970 C1971 1.387 . S
C1970 H1974 0.950 . S
C1970 C1979 1.390 . S
C1971 C1970 1.387 . S
C1971 C1973 1.387 . S
H1972 C1979 0.950 . S
C1973 C1971 1.387 . S
C1973 C1975 1.390 . S
C1973 H1977 0.950 . S
H1974 C1970 0.950 . S
C1975 C1973 1.390 . S
C1975 C1976 1.387 . S
C1975 H1978 0.950 . S
C1976 C1975 1.387 . S
C1976 C1979 1.387 . S
H1977 C1973 0.950 . S
H1978 C1975 0.950 . S
C1979 C1970 1.390 . S
C1979 H1972 0.950 . S
C1979 C1976 1.387 . S
C1441 C781 1.754 . S
C1446 C1083 1.756 . S
C1451 C871 1.733 . S
C1456 C1123 1.782 . S
C1461 C751 1.745 . S
C1466 C1175 1.824 . S
C1471 C691 1.584 . S
C1476 C1135 1.641 . S
C1486 C1163 1.533 . S
C1481 C571 1.441 . S
C1491 C601 1.556 . S
C1496 C1095 1.584 . S
C1506 C1102 1.756 . S
C1501 C661 1.658 . S
C1516 C1142 1.785 . S
C1511 C541 1.707 . S
C1521 C631 1.855 . S
C1526 C1162 1.825 . S
C1531 C811 1.667 . S
C1536 C1122 1.640 . S
C1541 C841 1.484 . S
C1546 C1182 1.534 . S
C1556 C1082 1.584 . S
C1551 C721 1.445 . S
C1566 C1203 1.754 . S
C1561 C61 1.753 1_455 S
C1571 C151 1.735 . S
C1576 C1243 1.786 . S
C1581 C31 1.745 . S
C1586 C1295 1.825 . S
C1591 C1051 1.583 . S
C1596 C1255 1.641 . S
C1601 C931 1.443 . S
C1606 C1283 1.535 . S
C1611 C961 1.553 . S
C1616 C1215 1.583 . S
C1621 C1021 1.657 . S
C1626 C1222 1.756 . S
C1631 C901 1.705 . S
C1636 C1262 1.786 . S
C1646 C1282 1.824 . S
C1641 C991 1.853 . S
C1651 C91 1.675 . S
C1656 C1242 1.640 . S
C1666 C1302 1.534 . S
C1661 C121 1.486 1_455 S
C1671 C1 1.443 . S
C1676 C1202 1.584 . S
C1686 C1323 1.756 . S
C1681 C421 1.755 . S
C1691 C511 1.735 . S
C1696 C1363 1.786 . S
C1706 C1415 1.824 . S
C1701 C391 1.745 . S
C1716 C1375 1.640 . S
C1711 C331 1.587 . S
C1726 C1403 1.533 . S
C1721 C211 1.440 1_655 S
C1731 C241 1.557 . S
C1736 C1335 1.587 . S
C1741 C301 1.658 1_655 S
C1746 C1342 1.755 . S
C1751 C181 1.705 . S
C1756 C1382 1.786 . S
C1766 C1402 1.825 . S
C1761 C271 1.855 . S
C1771 C451 1.667 . S
C1776 C1362 1.640 . S
C1781 C481 1.483 . S
C1786 C1422 1.533 . S
C1791 C361 1.447 . S
C1796 C1322 1.586 . S
C1801 C920 1.371 . S
C1806 C1106 1.388 . S
C1816 C1146 1.818 . S
C1811 C980 1.851 1_455 S
C1821 C1040 1.516 . S
C1826 C1169 1.578 . S
C1831 C380 1.775 . S
C1836 C1129 1.818 . S
C1841 C440 1.558 . S
C1846 C1186 1.578 . S
C1856 C1089 1.387 . S
C1851 C500 1.391 . S
C1861 C200 1.371 . S
C1866 C1226 1.388 . S
C1871 C260 1.851 . S
C1876 C1266 1.821 . S
C1881 C320 1.515 . S
C1886 C1289 1.578 . S
C1891 C740 1.775 . S
C1896 C1249 1.818 . S
C1906 C1306 1.577 . S
C1901 C800 1.558 . S
C1911 C860 1.392 . S
C1916 C1209 1.387 . S
C1921 C560 1.373 . S
C1926 C1346 1.388 . S
C1931 C620 1.851 . S
C1936 C1386 1.821 . S
C1946 C1409 1.577 . S
C1941 C680 1.517 . S
C1951 C20 1.776 . S
C1956 C1369 1.818 . S
C1961 C80 1.557 . S
C1966 C1426 1.578 . S
C1971 C140 1.392 . S
C1976 C1329 1.387 . S
