# Generated by pormake.
# Topology pth, (4,4)-cn, num edge types: 1
# Building blocks:
#     Node 0, Type 0, BuildingBlock: QUQFOY_clean_sbu_1, # of connection points: 4
#     Node 1, Type 0, BuildingBlock: QUQFOY_clean_sbu_1, # of connection points: 4
#     Node 2, Type 0, BuildingBlock: QUQFOY_clean_sbu_1, # of connection points: 4
#     Node 3, Type 1, BuildingBlock: AZAVOO_clean_linker_0, # of connection points: 4
#     Node 4, Type 1, BuildingBlock: AZAVOO_clean_linker_0, # of connection points: 4
#     Node 5, Type 1, BuildingBlock: AZAVOO_clean_linker_0, # of connection points: 4
#     Edge 6, Type (0, 1), BuildingBlock: FUNLAD_clean_linker_0, # of connection points: 2
#     Edge 7, Type (0, 1), BuildingBlock: FUNLAD_clean_linker_0, # of connection points: 2
#     Edge 8, Type (0, 1), BuildingBlock: FUNLAD_clean_linker_0, # of connection points: 2
#     Edge 9, Type (0, 1), BuildingBlock: FUNLAD_clean_linker_0, # of connection points: 2
#     Edge 10, Type (0, 1), BuildingBlock: FUNLAD_clean_linker_0, # of connection points: 2
#     Edge 11, Type (0, 1), BuildingBlock: FUNLAD_clean_linker_0, # of connection points: 2
#     Edge 12, Type (0, 1), BuildingBlock: FUNLAD_clean_linker_0, # of connection points: 2
#     Edge 13, Type (0, 1), BuildingBlock: FUNLAD_clean_linker_0, # of connection points: 2
#     Edge 14, Type (0, 1), BuildingBlock: FUNLAD_clean_linker_0, # of connection points: 2
#     Edge 15, Type (0, 1), BuildingBlock: FUNLAD_clean_linker_0, # of connection points: 2
#     Edge 16, Type (0, 1), BuildingBlock: FUNLAD_clean_linker_0, # of connection points: 2
#     Edge 17, Type (0, 1), BuildingBlock: FUNLAD_clean_linker_0, # of connection points: 2
# Relax obj value: 0.111
# Max RMSD: 0.231
# Mean RMSD: 0.169
data_MOF--net-pth--node1-QUQFOY_clean_sbu_1--node2-AZAVOO_clean_linker_0--edge1-FUNLAD_clean_linker_0
_symmetry_space_group_name_H-M    P1
_symmetry_Int_Tables_number       1
_symmetry_cell_setting            triclinic
loop_
_symmetry_equiv_pos_as_xyz
'x, y, z'
_cell_length_a     28.776844
_cell_length_b     31.602607
_cell_length_c     83.335718
_cell_angle_alpha  92.394294
_cell_angle_beta   89.064837
_cell_angle_gamma 120.38139
loop_
_atom_site_label
_atom_site_type_symbol
_atom_site_fract_x
_atom_site_fract_y
_atom_site_fract_z
_atom_type_partial_charge
O0 O 0.10387 0.12568 0.99448 0.0
Cd1 Cd 0.03518 0.07069 0.00473 0.0
Cd2 Cd 0.08819 0.02184 0.0004 0.0
O3 O 0.15035 0.0876 0.99283 0.0
O4 O -0.00098 0.10409 0.01529 0.0
O5 O 0.0323 0.06641 0.02873 0.0
C6 C 0.00884 0.09206 0.02888 0.0
C7 C 0.09873 0.98217 0.02165 0.0
C8 C 0.14681 0.12551 0.99079 0.0
C9 C 0.98548 0.9835 0.98182 0.0
O10 O 0.02717 0.9804 0.98418 0.0
O11 O 0.97918 0.01586 0.9895 0.0
O12 O 0.11732 0.98036 0.00759 0.0
O13 O 0.07521 0.00761 0.02366 0.0
O14 O 0.99039 0.07756 0.33868 0.0
Cd15 Cd 0.04941 0.08413 0.32295 0.0
Cd16 Cd -0.00318 0.98573 0.32539 0.0
O17 O 0.94127 0.99671 0.33791 0.0
O18 O 0.08089 0.1511 0.31455 0.0
O19 O 0.03614 0.08336 0.29927 0.0
C20 C 0.06134 0.13073 0.30067 0.0
C21 C 0.97099 0.9214 0.30642 0.0
C22 C 0.94884 0.0383 0.3429 0.0
C23 C 0.10933 0.04362 0.33891 0.0
O24 O 0.06559 0.00274 0.33773 0.0
O25 O 0.11326 0.08143 0.33277 0.0
O26 O 0.96151 0.91347 0.32148 0.0
O27 O 0.99277 0.96613 0.30195 0.0
O28 O 0.97179 0.00791 0.65008 0.0
Cd29 Cd 0.02091 0.99736 0.6651 0.0
Cd30 Cd 0.0845 0.09524 0.66247 0.0
O31 O 0.0205 0.08858 0.6495 0.0
O32 O 0.9733 0.93164 0.67388 0.0
O33 O 0.011 0.00019 0.689 0.0
C34 C 0.97979 0.95309 0.68785 0.0
C35 C 0.12413 0.1543 0.68318 0.0
C36 C 0.97845 0.04838 0.64542 0.0
C37 C 0.12867 0.0318 0.6502 0.0
O38 O 0.13489 0.07456 0.65148 0.0
O39 O 0.08605 0.99517 0.65532 0.0
O40 O 0.13163 0.1661 0.66834 0.0
O41 O 0.09203 0.10875 0.68629 0.0
H42 H 0.97621 0.45952 0.05827 0.0
H43 H 0.14734 0.84844 0.19666 0.0
H44 H 0.92411 0.42096 0.14774 0.0
H45 H 0.90023 0.34258 0.13413 0.0
H46 H 0.06402 0.37443 0.14011 0.0
H47 H 0.08668 0.45194 0.15437 0.0
H48 H 0.95471 0.51234 0.12498 0.0
H49 H 0.94961 0.49005 0.09631 0.0
H50 H 0.10042 0.492 0.10008 0.0
H51 H 0.10521 0.51475 0.1287 0.0
H52 H 0.98076 0.61145 0.14307 0.0
H53 H 0.00124 0.67588 0.12419 0.0
H54 H 0.15545 0.68806 0.11437 0.0
H55 H 0.13434 0.62333 0.13323 0.0
H56 H 0.97231 0.61258 0.1785 0.0
H57 H 0.99025 0.69298 0.18899 0.0
H58 H 0.16007 0.75298 0.17967 0.0
H59 H 0.14156 0.67213 0.16942 0.0
H60 H 0.9464 0.5252 0.19714 0.0
H61 H 0.94075 0.57311 0.22001 0.0
H62 H 0.11461 0.65767 0.22268 0.0
H63 H 0.11965 0.61013 0.19952 0.0
H64 H 0.93782 0.41639 0.18162 0.0
H65 H 0.93584 0.35425 0.19865 0.0
H66 H 0.10309 0.45308 0.21122 0.0
H67 H 0.1052 0.51385 0.19359 0.0
O68 O 0.97915 0.46856 0.06961 0.0
O69 O 0.05668 0.4699 0.0722 0.0
O70 O 0.05133 0.78371 0.19694 0.0
O71 O 0.13902 0.81645 0.19234 0.0
C72 C 0.02272 0.49239 0.15773 0.0
C73 C 0.03276 0.52786 0.1463 0.0
C74 C 0.04453 0.57531 0.15143 0.0
C75 C 0.04505 0.58701 0.16794 0.0
C76 C 0.03583 0.55179 0.17941 0.0
C77 C 0.02562 0.50467 0.17434 0.0
C78 C 0.00705 0.44194 0.15198 0.0
C79 C 0.95438 0.41031 0.14645 0.0
C80 C 0.94103 0.36582 0.13854 0.0
C81 C 0.98042 0.35252 0.13578 0.0
C82 C 0.03257 0.38326 0.14214 0.0
C83 C 0.04571 0.42762 0.15024 0.0
C84 C 0.03023 0.51499 0.12888 0.0
C85 C 0.98665 0.50809 0.11956 0.0
C86 C 0.98381 0.49527 0.1032 0.0
C87 C 0.02456 0.48915 0.0959 0.0
C88 C 0.06832 0.49634 0.10532 0.0
C89 C 0.07113 0.50924 0.12166 0.0
C90 C 0.05614 0.61293 0.13951 0.0
C91 C 0.01891 0.62808 0.13682 0.0
C92 C 0.03081 0.66499 0.12611 0.0
C93 C 0.0801 0.68722 0.11786 0.0
C94 C 0.11697 0.67135 0.12043 0.0
C95 C 0.10509 0.63453 0.1312 0.0
C96 C 0.05569 0.63659 0.1733 0.0
C97 C 0.01332 0.6432 0.17871 0.0
C98 C 0.02369 0.68914 0.18468 0.0
C99 C 0.07665 0.72941 0.1852 0.0
C100 C 0.11886 0.72276 0.17946 0.0
C101 C 0.10843 0.67671 0.17355 0.0
C102 C 0.03339 0.56458 0.19659 0.0
C103 C 0.9832 0.55234 0.20319 0.0
C104 C 0.98011 0.58008 0.21623 0.0
C105 C 0.02728 0.62017 0.22287 0.0
C106 C 0.07755 0.62785 0.21755 0.0
C107 C 0.08057 0.6002 0.20449 0.0
C108 C 0.02178 0.46945 0.18626 0.0
C109 C 0.97391 0.42458 0.18811 0.0
C110 C 0.9728 0.38926 0.19794 0.0
C111 C 0.0195 0.39841 0.20619 0.0
C112 C 0.06672 0.44434 0.20478 0.0
C113 C 0.06785 0.47941 0.19488 0.0
C114 C 0.0213 0.47531 0.07854 0.0
C115 C 0.088 0.77807 0.19183 0.0
H116 H 0.59602 0.03079 0.39098 0.0
H117 H 0.27681 0.12455 0.52149 0.0
H118 H 0.58083 0.98253 0.47808 0.0
H119 H 0.64628 0.97491 0.46114 0.0
H120 H 0.76364 0.12716 0.47215 0.0
H121 H 0.69708 0.1345 0.48894 0.0
H122 H 0.50655 2e-05 0.45582 0.0
H123 H 0.531 0.99934 0.42758 0.0
H124 H 0.66701 0.14636 0.43467 0.0
H125 H 0.64157 0.14676 0.46282 0.0
H126 H 0.41548 0.0083 0.47218 0.0
H127 H 0.36539 0.01501 0.44997 0.0
H128 H 0.49065 0.16628 0.44488 0.0
H129 H 0.54102 0.15855 0.46685 0.0
H130 H 0.40692 0.00048 0.51146 0.0
H131 H 0.32635 0.00278 0.5199 0.0
H132 H 0.4032 0.15493 0.50728 0.0
H133 H 0.48374 0.15227 0.49906 0.0
H134 H 0.49884 0.9918 0.53029 0.0
H135 H 0.46196 0.98213 0.55743 0.0
H136 H 0.49187 0.13078 0.55774 0.0
H137 H 0.53077 0.14063 0.53096 0.0
H138 H 0.5957 0.99235 0.51319 0.0
H139 H 0.65773 0.99317 0.53316 0.0
H140 H 0.70271 0.14189 0.54795 0.0
H141 H 0.64198 0.14116 0.52762 0.0
O142 O 0.58662 0.03209 0.40212 0.0
O143 O 0.65654 0.10732 0.40648 0.0
O144 O 0.27055 0.04442 0.5246 0.0
O145 O 0.30814 0.12262 0.51824 0.0
C146 C 0.59008 0.06687 0.49022 0.0
C147 C 0.55878 0.0728 0.47863 0.0
C148 C 0.51426 0.07725 0.48343 0.0
C149 C 0.50019 0.07478 0.4998 0.0
C150 C 0.53247 0.07019 0.51146 0.0
C151 C 0.57807 0.06712 0.50668 0.0
C152 C 0.63431 0.05906 0.48464 0.0
C153 C 0.62138 0.01364 0.47734 0.0
C154 C 0.65887 0.00943 0.46765 0.0
C155 C 0.70987 0.05067 0.46511 0.0
C156 C 0.72433 0.09498 0.47369 0.0
C157 C 0.68671 0.09912 0.48343 0.0
C158 C 0.57232 0.07341 0.46133 0.0
C159 C 0.54131 0.03217 0.4512 0.0
C160 C 0.5555 0.03183 0.43509 0.0
C161 C 0.60107 0.07275 0.42887 0.0
C162 C 0.63173 0.11422 0.43907 0.0
C163 C 0.61732 0.11457 0.45515 0.0
C164 C 0.48164 0.08296 0.47109 0.0
C165 C 0.43164 0.04299 0.46637 0.0
C166 C 0.40311 0.04701 0.45371 0.0
C167 C 0.42408 0.09121 0.44562 0.0
C168 C 0.47376 0.13155 0.45069 0.0
C169 C 0.50235 0.12738 0.46331 0.0
C170 C 0.45111 0.0762 0.50466 0.0
C171 C 0.40626 0.03428 0.51056 0.0
C172 C 0.3603 0.03569 0.51535 0.0
C173 C 0.35833 0.07908 0.51426 0.0
C174 C 0.40335 0.12095 0.50827 0.0
C175 C 0.44934 0.11951 0.50352 0.0
C176 C 0.51704 0.06678 0.52864 0.0
C177 C 0.49859 0.0226 0.53642 0.0
C178 C 0.47709 0.01702 0.55185 0.0
C179 C 0.47342 0.0555 0.55971 0.0
C180 C 0.49457 0.10056 0.55215 0.0
C181 C 0.51641 0.10619 0.53678 0.0
C182 C 0.61467 0.0668 0.51891 0.0
C183 C 0.61925 0.02513 0.52069 0.0
C184 C 0.65431 0.02556 0.53219 0.0
C185 C 0.68525 0.06767 0.54212 0.0
C186 C 0.6801 0.10916 0.54034 0.0
C187 C 0.64517 0.10872 0.52883 0.0
C188 C 0.61657 0.07197 0.41183 0.0
C189 C 0.30962 0.08079 0.51936 0.0
H190 H 0.58491 0.64551 0.94164 0.0
H191 H 0.3105 0.22974 0.81046 0.0
H192 H 0.57862 0.66332 0.85485 0.0
H193 H 0.64477 0.73533 0.87062 0.0
H194 H 0.76502 0.69478 0.8601 0.0
H195 H 0.69859 0.6231 0.84418 0.0
H196 H 0.50065 0.57558 0.87652 0.0
H197 H 0.52189 0.60495 0.90457 0.0
H198 H 0.66868 0.59913 0.90094 0.0
H199 H 0.6465 0.5691 0.87298 0.0
H200 H 0.41502 0.47262 0.86083 0.0
H201 H 0.36741 0.41567 0.88229 0.0
H202 H 0.50985 0.40721 0.89155 0.0
H203 H 0.55648 0.46311 0.86983 0.0
H204 H 0.40873 0.47042 0.82239 0.0
H205 H 0.33615 0.38992 0.81278 0.0
H206 H 0.42827 0.32429 0.82746 0.0
H207 H 0.50092 0.40519 0.8368 0.0
H208 H 0.48941 0.55813 0.80256 0.0
H209 H 0.4405 0.51578 0.77777 0.0
H210 H 0.4995 0.41482 0.78043 0.0
H211 H 0.54842 0.45751 0.80516 0.0
H212 H 0.59287 0.66064 0.81808 0.0
H213 H 0.65483 0.7149 0.79783 0.0
H214 H 0.71067 0.61252 0.78819 0.0
H215 H 0.64836 0.55854 0.80826 0.0
O216 O 0.57689 0.63319 0.93061 0.0
O217 O 0.65226 0.63023 0.92803 0.0
O218 O 0.29282 0.29757 0.80689 0.0
O219 O 0.33819 0.26187 0.81442 0.0
C220 C 0.59068 0.58805 0.84347 0.0
C221 C 0.56029 0.55489 0.85549 0.0
C222 C 0.51851 0.50718 0.85117 0.0
C223 C 0.50574 0.49307 0.83484 0.0
C224 C 0.53683 0.52594 0.82278 0.0
C225 C 0.58003 0.57317 0.82709 0.0
C226 C 0.63389 0.63804 0.84848 0.0
C227 C 0.61982 0.67112 0.85545 0.0
C228 C 0.65744 0.71184 0.86458 0.0
C229 C 0.70972 0.72009 0.86684 0.0
C230 C 0.7251 0.68946 0.85853 0.0
C231 C 0.68732 0.64861 0.84939 0.0
C232 C 0.57214 0.57043 0.87274 0.0
C233 C 0.53713 0.58032 0.88186 0.0
C234 C 0.54949 0.59725 0.89785 0.0
C235 C 0.59712 0.6046 0.90498 0.0
C236 C 0.63176 0.59401 0.89581 0.0
C237 C 0.61923 0.5769 0.87985 0.0
C238 C 0.48904 0.4718 0.86382 0.0
C239 C 0.43565 0.45811 0.86745 0.0
C240 C 0.40878 0.42598 0.87977 0.0
C241 C 0.43499 0.40711 0.88863 0.0
C242 C 0.48841 0.4207 0.88483 0.0
C243 C 0.51518 0.45278 0.87252 0.0
C244 C 0.46001 0.44357 0.83027 0.0
C245 C 0.41299 0.43855 0.82359 0.0
C246 C 0.37166 0.39255 0.8181 0.0
C247 C 0.37649 0.35066 0.81931 0.0
C248 C 0.42328 0.35577 0.82633 0.0
C249 C 0.46471 0.40186 0.83175 0.0
C250 C 0.52194 0.51053 0.8057 0.0
C251 C 0.49349 0.52812 0.79743 0.0
C252 C 0.46541 0.50375 0.78332 0.0
C253 C 0.46539 0.46144 0.77739 0.0
C254 C 0.49808 0.44681 0.78492 0.0
C255 C 0.52643 0.47139 0.79893 0.0
C256 C 0.61605 0.60564 0.81457 0.0
C257 C 0.61848 0.65004 0.81155 0.0
C258 C 0.65406 0.68103 0.80006 0.0
C259 C 0.68763 0.66799 0.79139 0.0
C260 C 0.68481 0.62332 0.79447 0.0
C261 C 0.64935 0.59248 0.80595 0.0
C262 C 0.61059 0.6234 0.92189 0.0
C263 C 0.33319 0.30188 0.81317 0.0
C264 C 0.96936 0.13629 0.04395 0.0
C265 C -0.00332 0.11 0.04414 0.0
C266 C 0.96284 0.15804 0.05806 0.0
C267 C 0.9833 0.15377 0.07276 0.0
C268 C 0.0094 0.1264 0.07301 0.0
C269 C 0.01573 0.10441 0.05887 0.0
C270 C 0.98302 0.18159 0.08757 0.0
C271 C 0.94701 0.19646 0.09007 0.0
C272 C 0.95273 0.23297 0.10288 0.0
C273 C 0.92887 0.26136 0.1003 0.0
C274 C 0.93694 0.29927 0.11115 0.0
C275 C 0.96847 0.30935 0.12505 0.0
H276 H 0.00042 0.21966 0.11975 0.0
C277 C 0.99057 0.2796 0.12802 0.0
C278 C 0.98276 0.24172 0.11706 0.0
H279 H 0.0142 0.28578 0.13876 0.0
H280 H 0.95445 0.14148 0.03279 0.0
H281 H 0.94405 0.18007 0.05717 0.0
H282 H 0.02601 0.12293 0.08413 0.0
H283 H 0.03717 0.08452 0.0594 0.0
H284 H 0.01552 0.19232 0.09611 0.0
H285 H 0.91418 0.1848 0.08157 0.0
H286 H 0.90551 0.25544 0.08951 0.0
H287 H 0.92 0.32184 0.1083 0.0
C288 C 0.87804 2e-05 0.36395 0.0
C289 C 0.91249 0.04119 0.35506 0.0
C290 C 0.8497 0.0045 0.37705 0.0
C291 C 0.85503 0.05022 0.38142 0.0
C292 C 0.88672 0.09056 0.37194 0.0
C293 C 0.91565 0.08627 0.35898 0.0
C294 C 0.82855 0.05716 0.39586 0.0
C295 C 0.82202 0.03298 0.40942 0.0
C296 C 0.79701 0.04022 0.42424 0.0
C297 C 0.77579 0.00321 0.4355 0.0
C298 C 0.74947 0.00737 0.44919 0.0
C299 C 0.74428 0.04893 0.45197 0.0
H300 H 0.81153 0.11316 0.41944 0.0
C301 C 0.76768 0.08699 0.44109 0.0
C302 C 0.794 0.08287 0.42743 0.0
H303 H 0.76391 0.1193 0.44279 0.0
H304 H 0.87452 0.96471 0.36119 0.0
H305 H 0.82406 0.97227 0.38379 0.0
H306 H 0.89078 0.12598 0.37494 0.0
H307 H 0.94152 0.11859 0.35228 0.0
H308 H 0.81645 0.08448 0.39536 0.0
H309 H 0.83487 0.00606 0.40969 0.0
H310 H 0.77829 0.97032 0.43349 0.0
H311 H 0.73228 0.97764 0.45744 0.0
C312 C 0.91573 0.87333 0.69998 0.0
C313 C 0.95049 0.92428 0.70188 0.0
C314 C 0.88554 0.8459 0.71286 0.0
C315 C 0.88978 0.86867 0.72808 0.0
C316 C 0.9246 0.91963 0.73 0.0
C317 C 0.95488 0.94719 0.71706 0.0
C318 C 0.85619 0.84075 0.74185 0.0
C319 C 0.83601 0.7921 0.74306 0.0
C320 C 0.7984 0.76193 0.75582 0.0
C321 C 0.76847 0.71082 0.75309 0.0
C322 C 0.73232 0.68053 0.76454 0.0
C323 C 0.72544 0.70058 0.77912 0.0
H324 H 0.8149 0.82111 0.77331 0.0
C325 C 0.75552 0.75172 0.78196 0.0
C326 C 0.79175 0.78214 0.77047 0.0
H327 H 0.75184 0.7682 0.79322 0.0
H328 H 0.91092 0.85457 0.68841 0.0
H329 H 0.85778 0.80714 0.71062 0.0
H330 H 0.92823 0.93822 0.74153 0.0
H331 H 0.98108 0.98646 0.71889 0.0
H332 H 0.84761 0.86118 0.75102 0.0
H333 H 0.84608 0.7725 0.73396 0.0
H334 H 0.77266 0.69415 0.74194 0.0
H335 H 0.70933 0.64135 0.76188 0.0
C336 C 0.12405 0.92357 0.03221 0.0
C337 C 0.10199 0.954 0.03487 0.0
C338 C 0.12338 0.89394 0.0443 0.0
C339 C 0.10095 0.89443 0.05941 0.0
C340 C 0.07985 0.92561 0.06212 0.0
C341 C 0.08046 0.95517 0.05002 0.0
C342 C 0.09531 0.86081 0.07224 0.0
C343 C 0.12363 0.83752 0.07279 0.0
C344 C 0.11389 0.80066 0.08488 0.0
C345 C 0.12748 0.7646 0.08101 0.0
C346 C 0.11696 0.728 0.09174 0.0
C347 C 0.0929 0.72689 0.10664 0.0
H348 H 0.08222 0.82862 0.10376 0.0
C349 C 0.08076 0.76381 0.11073 0.0
C350 C 0.09133 0.80044 0.10002 0.0
H351 H 0.06348 0.76465 0.1223 0.0
H352 H 0.14061 0.92158 0.02062 0.0
H353 H 0.13877 0.86964 0.04144 0.0
H354 H 0.06206 0.9266 0.07359 0.0
H355 H 0.06307 0.97819 0.05245 0.0
H356 H 0.06528 0.85425 0.08136 0.0
H357 H 0.15352 0.84366 0.06368 0.0
H358 H 0.14526 0.76409 0.0695 0.0
H359 H 0.12658 0.69995 0.08821 0.0
C360 C 0.19698 0.09377 0.35376 0.0
C361 C 0.15356 0.04765 0.34887 0.0
C362 C 0.23405 0.09741 0.36519 0.0
C363 C 0.22851 0.05484 0.37184 0.0
C364 C 0.1867 0.00882 0.36632 0.0
C365 C 0.14974 0.0052 0.35495 0.0
C366 C 0.26174 0.0566 0.38555 0.0
C367 C 0.30947 0.09577 0.38993 0.0
C368 C 0.33854 0.09595 0.40447 0.0
C369 C 0.39497 0.12066 0.40456 0.0
C370 C 0.42291 0.11966 0.41797 0.0
C371 C 0.39483 0.09457 0.43167 0.0
H372 H 0.26703 0.05435 0.41888 0.0
C373 C 0.33836 0.07151 0.43177 0.0
C374 C 0.31052 0.07218 0.41834 0.0
H375 H 0.31559 0.053 0.44227 0.0
H376 H 0.20091 0.12718 0.34935 0.0
H377 H 0.26511 0.13364 0.3693 0.0
H378 H 0.1815 0.97544 0.3712 0.0
H379 H 0.11698 0.96905 0.35138 0.0
H380 H 0.2459 0.02357 0.3924 0.0
H381 H 0.32886 0.12748 0.38247 0.0
H382 H 0.41742 0.13964 0.39407 0.0
H383 H 0.4664 0.13749 0.41744 0.0
C384 C 0.18836 0.24095 0.69234 0.0
C385 C 0.15481 0.19148 0.69605 0.0
C386 C 0.22228 0.27537 0.70402 0.0
C387 C 0.22377 0.26092 0.71966 0.0
C388 C 0.18816 0.21197 0.72355 0.0
C389 C 0.15409 0.17756 0.71187 0.0
C390 C 0.26235 0.29508 0.73217 0.0
C391 C 0.30812 0.33714 0.72894 0.0
C392 C 0.3483 0.36847 0.74149 0.0
C393 C 0.38102 0.41905 0.73924 0.0
C394 C 0.41957 0.44945 0.75078 0.0
C395 C 0.42682 0.42956 0.76463 0.0
H396 H 0.33297 0.30956 0.75721 0.0
C397 C 0.39485 0.3788 0.76672 0.0
C398 C 0.3561 0.34855 0.75528 0.0
H399 H 0.3991 0.36252 0.77738 0.0
H400 H 0.18931 0.25301 0.6803 0.0
H401 H 0.24728 0.31298 0.7006 0.0
H402 H 0.18787 0.19988 0.73554 0.0
H403 H 0.12854 0.13976 0.71513 0.0
H404 H 0.25358 0.28381 0.74451 0.0
H405 H 0.3173 0.34947 0.71674 0.0
H406 H 0.37629 0.4352 0.72862 0.0
H407 H 0.44382 0.48842 0.74886 0.0
C408 C 0.94737 0.09159 0.62769 0.0
C409 C 0.93763 0.04832 0.63481 0.0
C410 C 0.90979 0.09087 0.6171 0.0
C411 C 0.86165 0.04677 0.6134 0.0
C412 C 0.85121 0.00395 0.62091 0.0
C413 C 0.88889 0.00458 0.63142 0.0
C414 C 0.82114 0.04404 0.60194 0.0
C415 C 0.83421 0.07394 0.58952 0.0
C416 C 0.79465 0.07095 0.57758 0.0
C417 C 0.80951 0.11155 0.56811 0.0
C418 C 0.77411 0.11047 0.55662 0.0
C419 C 0.72298 0.06855 0.55426 0.0
H420 H 0.73096 0.99592 0.58169 0.0
C421 C 0.70824 0.0276 0.56357 0.0
C422 C 0.74367 0.02865 0.57507 0.0
H423 H 0.66906 0.9948 0.56207 0.0
H424 H 0.98429 0.12599 0.63016 0.0
H425 H 0.91845 0.12501 0.61198 0.0
H426 H 0.81419 0.96963 0.61842 0.0
H427 H 0.87988 0.97064 0.63679 0.0
H428 H 0.77973 0.01529 0.60364 0.0
H429 H 0.87596 0.10223 0.5879 0.0
H430 H 0.84869 0.14439 0.56963 0.0
H431 H 0.78711 0.14233 0.54945 0.0
C432 C 0.95507 0.91824 0.95992 0.0
C433 C 0.94585 0.95113 0.96938 0.0
C434 C 0.91985 0.89005 0.94743 0.0
C435 C 0.87464 0.89426 0.94407 0.0
C436 C 0.86437 0.92581 0.95387 0.0
C437 C 0.89976 0.95422 0.96634 0.0
C438 C 0.8367 0.86517 0.93078 0.0
C439 C 0.85183 0.84987 0.91741 0.0
C440 C 0.81402 0.81899 0.90428 0.0
C441 C 0.83487 0.81726 0.88906 0.0
C442 C 0.80099 0.78628 0.87669 0.0
C443 C 0.74551 0.75632 0.87932 0.0
H444 H 0.74077 0.7878 0.91853 0.0
C445 C 0.72456 0.75826 0.89451 0.0
C446 C 0.75835 0.78907 0.90687 0.0
H447 H 0.68219 0.73447 0.89706 0.0
H448 H 0.9899 0.91457 0.96202 0.0
H449 H 0.92801 0.86475 0.94054 0.0
H450 H 0.82938 0.92918 0.95168 0.0
H451 H 0.8913 0.97899 0.97345 0.0
H452 H 0.79577 0.85813 0.93184 0.0
H453 H 0.89404 0.86129 0.91574 0.0
H454 H 0.87764 0.83959 0.88678 0.0
H455 H 0.81825 0.78543 0.86511 0.0
C456 C 0.98845 0.89058 0.28016 0.0
C457 C 0.96213 0.8808 0.29505 0.0
C458 C 0.98735 0.85255 0.27064 0.0
C459 C 0.95962 0.80401 0.27583 0.0
C460 C 0.93027 0.79388 0.29015 0.0
C461 C 0.93191 0.83192 0.29975 0.0
C462 C 0.96167 0.76341 0.26684 0.0
C463 C 0.00598 0.77032 0.25888 0.0
C464 C 0.01112 0.73049 0.25041 0.0
C465 C 0.05212 0.74371 0.239 0.0
C466 C 0.0584 0.70793 0.23053 0.0
C467 C 0.02398 0.65785 0.23331 0.0
H468 H 0.94659 0.66853 0.26263 0.0
C469 C 0.9838 0.64451 0.24504 0.0
C470 C 0.97753 0.68041 0.25357 0.0
H471 H 0.95702 0.60627 0.24758 0.0
H472 H 0.01183 0.92784 0.27618 0.0
H473 H 0.00885 0.86137 0.25937 0.0
H474 H 0.90795 0.75671 0.29428 0.0
H475 H 0.91084 0.82316 0.31111 0.0
H476 H 0.92686 0.72687 0.26766 0.0
H477 H 0.04065 0.8072 0.25848 0.0
H478 H 0.07882 0.78191 0.23637 0.0
H479 H 0.08918 0.71959 0.22138 0.0
C480 C 0.221 0.06568 0.63871 0.0
C481 C 0.17084 0.0248 0.64231 0.0
C482 C 0.25978 0.05968 0.63033 0.0
C483 C 0.24927 0.01254 0.62536 0.0
C484 C 0.19951 0.97162 0.62918 0.0
C485 C 0.16081 0.9776 0.6377 0.0
C486 C 0.28682 0.00549 0.61469 0.0
C487 C 0.34035 0.03738 0.61452 0.0
C488 C 0.37703 0.03754 0.60168 0.0
C489 C 0.42743 0.08029 0.60007 0.0
C490 C 0.46017 0.0853 0.58688 0.0
C491 C 0.44325 0.04752 0.57499 0.0
H492 H 0.32451 0.96395 0.59133 0.0
C493 C 0.39455 0.00342 0.57715 0.0
C494 C 0.36194 0.9983 0.59038 0.0
H495 H 0.38017 0.97353 0.56822 0.0
H496 H 0.23002 0.10256 0.64207 0.0
H497 H 0.29688 0.09227 0.62718 0.0
H498 H 0.19017 0.93497 0.62532 0.0
H499 H 0.1225 0.94535 0.64024 0.0
H500 H 0.26858 0.97432 0.60624 0.0
H501 H 0.35762 0.06741 0.62347 0.0
H502 H 0.44061 0.1109 0.60869 0.0
H503 H 0.49803 0.11935 0.58577 0.0
C504 C 0.23388 0.16518 0.97573 0.0
C505 C 0.19097 0.16821 0.98285 0.0
C506 C 0.27173 0.20308 0.96644 0.0
C507 C 0.26735 0.24475 0.96408 0.0
C508 C 0.22663 0.24918 0.97205 0.0
C509 C 0.18857 0.21118 0.98125 0.0
C510 C 0.30298 0.2833 0.95294 0.0
C511 C 0.32307 0.27333 0.93953 0.0
C512 C 0.35308 0.30957 0.92707 0.0
C513 C 0.385 0.30034 0.91621 0.0
C514 C 0.41181 0.33208 0.90379 0.0
C515 C 0.40689 0.37361 0.90189 0.0
H516 H 0.32258 0.35895 0.93288 0.0
C517 C 0.37483 0.38285 0.91271 0.0
C518 C 0.34805 0.35115 0.92514 0.0
H519 H 0.37052 0.41473 0.9116 0.0
H520 H 0.23728 0.13283 0.97689 0.0
H521 H 0.30386 0.19927 0.96097 0.0
H522 H 0.22284 0.28123 0.9706 0.0
H523 H 0.15637 0.21494 0.98672 0.0
H524 H 0.3093 0.31984 0.95533 0.0
H525 H 0.31612 0.23648 0.93723 0.0
H526 H 0.38901 0.26828 0.91727 0.0
H527 H 0.43562 0.32359 0.89551 0.0
C528 C 0.02856 0.14137 0.27428 0.0
C529 C 0.06535 0.1612 0.28716 0.0
C530 C 0.02884 0.17182 0.26249 0.0
C531 C 0.06642 0.22251 0.2633 0.0
C532 C 0.10479 0.24171 0.27573 0.0
C533 C 0.10389 0.21153 0.28764 0.0
C534 C 0.06664 0.25657 0.25153 0.0
C535 C 0.02131 0.25072 0.24487 0.0
C536 C 0.02116 0.28786 0.23453 0.0
C537 C 0.97562 0.29321 0.23438 0.0
C538 C 0.97493 0.32901 0.22522 0.0
C539 C 0.01963 0.35989 0.21585 0.0
H540 H 0.10047 0.31375 0.22424 0.0
C541 C 0.0646 0.35349 0.21566 0.0
C542 C 0.0654 0.31793 0.22487 0.0
H543 H 0.09911 0.37561 0.20822 0.0
H544 H -0.00155 0.10268 0.2736 0.0
H545 H -0.00039 0.15568 0.25281 0.0
H546 H 0.13451 0.28052 0.27652 0.0
H547 H 0.13299 0.2278 0.29736 0.0
H548 H 0.10476 0.28992 0.24956 0.0
H549 H 0.98257 0.21991 0.24817 0.0
H550 H 0.94086 0.27031 0.24163 0.0
H551 H 0.93973 0.33304 0.22573 0.0
loop_
_geom_bond_atom_site_label_1
_geom_bond_atom_site_label_2
_geom_bond_distance
_geom_bond_site_symmetry_2
_ccdc_geom_bond_type
O0 Cd1 2.223 1_556 S
O0 C8 1.315 . S
Cd1 O0 2.223 1_554 S
Cd1 O4 2.297 . S
Cd1 O5 2.439 . S
Cd1 O11 2.240 1_554 S
Cd2 O3 2.240 1_554 S
Cd2 O10 2.223 1_544 S
Cd2 O12 2.297 1_545 S
Cd2 O13 2.439 1_545 S
O3 Cd2 2.240 1_556 S
O3 C8 1.279 . S
O4 Cd1 2.297 . S
O4 C6 1.247 . S
O5 Cd1 2.439 . S
O5 C6 1.208 . S
C6 O4 1.247 . S
C6 O5 1.208 . S
C7 O12 1.247 . S
C7 O13 1.208 . S
C8 O0 1.315 . S
C8 O3 1.279 . S
C9 O10 1.315 . S
C9 O11 1.279 1_565 S
O10 Cd2 2.223 1_566 S
O10 C9 1.315 . S
O11 Cd1 2.240 1_556 S
O11 C9 1.279 1_545 S
O12 Cd2 2.297 1_565 S
O12 C7 1.247 . S
O13 Cd2 2.439 1_565 S
O13 C7 1.208 . S
O14 Cd15 2.223 . S
O14 C22 1.315 1_455 S
Cd15 O14 2.223 . S
Cd15 O18 2.297 . S
Cd15 O19 2.439 . S
Cd15 O25 2.240 . S
Cd16 O17 2.240 1_565 S
Cd16 O24 2.223 1_655 S
Cd16 O26 2.297 1_655 S
Cd16 O27 2.439 1_655 S
O17 Cd16 2.240 1_545 S
O17 C22 1.279 . S
O18 Cd15 2.297 . S
O18 C20 1.247 . S
O19 Cd15 2.439 . S
O19 C20 1.208 . S
C20 O18 1.247 . S
C20 O19 1.208 . S
C21 O26 1.247 . S
C21 O27 1.208 . S
C22 O14 1.315 1_655 S
C22 O17 1.279 . S
C23 O24 1.315 1_545 S
C23 O25 1.279 . S
O24 Cd16 2.223 1_455 S
O24 C23 1.315 1_565 S
O25 Cd15 2.240 . S
O25 C23 1.279 . S
O26 Cd16 2.297 1_455 S
O26 C21 1.247 . S
O27 Cd16 2.439 1_455 S
O27 C21 1.208 . S
O28 Cd29 2.223 1_545 S
O28 C36 1.315 . S
Cd29 O28 2.223 1_565 S
Cd29 O32 2.297 1_455 S
Cd29 O33 2.439 1_565 S
Cd29 O39 2.240 1_565 S
Cd30 O31 2.240 . S
Cd30 O38 2.223 . S
Cd30 O40 2.297 . S
Cd30 O41 2.439 . S
O31 Cd30 2.240 . S
O31 C36 1.279 . S
O32 Cd29 2.297 1_655 S
O32 C34 1.247 . S
O33 Cd29 2.439 1_545 S
O33 C34 1.208 1_445 S
C34 O32 1.247 . S
C34 O33 1.208 1_665 S
C35 O40 1.247 . S
C35 O41 1.208 . S
C36 O28 1.315 . S
C36 O31 1.279 . S
C37 O38 1.315 . S
C37 O39 1.279 . S
O38 Cd30 2.223 . S
O38 C37 1.315 . S
O39 Cd29 2.240 1_545 S
O39 C37 1.279 . S
O40 Cd30 2.297 . S
O40 C35 1.247 . S
O41 Cd30 2.439 . S
O41 C35 1.208 . S
H42 O68 0.856 . S
H43 O71 0.854 . S
H44 C79 0.930 . S
H45 C80 0.930 . S
H46 C82 0.930 . S
H47 C83 0.930 . S
H48 C85 0.931 1_655 S
H49 C86 0.930 1_655 S
H50 C88 0.930 . S
H51 C89 0.929 . S
H52 C91 0.930 1_655 S
H53 C92 0.931 1_655 S
H54 C94 0.930 . S
H55 C95 0.929 . S
H56 C97 0.938 . S
H57 C98 0.930 1_655 S
H58 C100 0.930 . S
H59 C101 0.932 . S
H60 C103 0.930 . S
H61 C104 0.929 . S
H62 C106 0.931 . S
H63 C107 0.930 . S
H64 C109 0.929 . S
H65 C110 0.931 . S
H66 C112 0.930 . S
H67 C113 0.929 . S
O68 H42 0.856 . S
O68 C114 1.300 . S
O69 C114 1.209 . S
O70 C115 1.199 . S
O71 H43 0.854 . S
O71 C115 1.297 . S
C72 C73 1.404 . S
C72 C77 1.397 . S
C72 C78 1.492 . S
C73 C72 1.404 . S
C73 C74 1.396 . S
C73 C84 1.492 . S
C74 C73 1.396 . S
C74 C75 1.397 . S
C74 C90 1.509 . S
C75 C74 1.397 . S
C75 C76 1.412 . S
C75 C96 1.485 . S
C76 C75 1.412 . S
C76 C77 1.388 . S
C76 C102 1.490 . S
C77 C72 1.397 . S
C77 C76 1.388 . S
C77 C108 1.519 . S
C78 C72 1.492 . S
C78 C79 1.363 1_455 S
C78 C83 1.390 . S
C79 H44 0.930 . S
C79 C78 1.363 1_655 S
C79 C80 1.372 . S
C80 H45 0.930 . S
C80 C79 1.372 . S
C80 C81 1.383 1_655 S
C81 C80 1.383 1_455 S
C81 C82 1.395 . S
C82 H46 0.930 . S
C82 C81 1.395 . S
C82 C83 1.362 . S
C83 H47 0.930 . S
C83 C78 1.390 . S
C83 C82 1.362 . S
C84 C73 1.492 . S
C84 C85 1.377 . S
C84 C89 1.397 . S
C85 H48 0.931 1_455 S
C85 C84 1.377 . S
C85 C86 1.376 . S
C86 H49 0.930 1_455 S
C86 C85 1.376 . S
C86 C87 1.376 . S
C87 C86 1.376 . S
C87 C88 1.378 . S
C87 C114 1.486 . S
C88 H50 0.930 . S
C88 C87 1.378 . S
C88 C89 1.376 . S
C89 H51 0.929 . S
C89 C84 1.397 . S
C89 C88 1.376 . S
C90 C74 1.509 . S
C90 C91 1.391 . S
C90 C95 1.386 . S
C91 H52 0.930 1_455 S
C91 C90 1.391 . S
C91 C92 1.375 . S
C92 H53 0.931 1_455 S
C92 C91 1.375 . S
C92 C93 1.375 . S
C93 C92 1.375 . S
C93 C94 1.361 . S
C94 H54 0.930 . S
C94 C93 1.361 . S
C94 C95 1.399 . S
C95 H55 0.929 . S
C95 C90 1.386 . S
C95 C94 1.399 . S
C96 C75 1.485 . S
C96 C97 1.382 1_455 S
C96 C101 1.360 . S
C97 H56 0.938 . S
C97 C96 1.382 1_655 S
C97 C98 1.378 1_655 S
C98 H57 0.930 1_455 S
C98 C97 1.378 1_455 S
C98 C99 1.397 . S
C99 C98 1.397 . S
C99 C100 1.390 . S
C99 C115 1.476 . S
C100 H58 0.930 . S
C100 C99 1.390 . S
C100 C101 1.366 . S
C101 H59 0.932 . S
C101 C96 1.360 . S
C101 C100 1.366 . S
C102 C76 1.490 . S
C102 C103 1.380 1_455 S
C102 C107 1.386 . S
C103 H60 0.930 . S
C103 C102 1.380 1_655 S
C103 C104 1.381 . S
C104 H61 0.929 . S
C104 C103 1.381 . S
C104 C105 1.371 1_655 S
C105 C104 1.371 1_455 S
C105 C106 1.380 . S
C106 H62 0.931 . S
C106 C105 1.380 . S
C106 C107 1.387 . S
C107 H63 0.930 . S
C107 C102 1.386 . S
C107 C106 1.387 . S
C108 C77 1.519 . S
C108 C109 1.377 1_455 S
C108 C113 1.361 . S
C109 H64 0.929 . S
C109 C108 1.377 1_655 S
C109 C110 1.386 . S
C110 H65 0.931 . S
C110 C109 1.386 . S
C110 C111 1.363 1_655 S
C111 C110 1.363 1_455 S
C111 C112 1.385 . S
C112 H66 0.930 . S
C112 C111 1.385 . S
C112 C113 1.396 . S
C113 H67 0.929 . S
C113 C108 1.361 . S
C113 C112 1.396 . S
C114 O68 1.300 . S
C114 O69 1.209 . S
C114 C87 1.486 . S
C115 O70 1.199 . S
C115 O71 1.297 . S
C115 C99 1.476 . S
H116 O142 0.856 . S
H117 O145 0.854 . S
H118 C153 0.930 1_565 S
H119 C154 0.930 . S
H120 C156 0.930 . S
H121 C157 0.930 . S
H122 C159 0.931 1_565 S
H123 C160 0.930 1_565 S
H124 C162 0.930 . S
H125 C163 0.929 . S
H126 C165 0.930 1_565 S
H127 C166 0.931 . S
H128 C168 0.930 . S
H129 C169 0.929 . S
H130 C171 0.931 1_565 S
H131 C172 0.930 . S
H132 C174 0.930 . S
H133 C175 0.932 . S
H134 C177 0.930 1_565 S
H135 C178 0.929 1_565 S
H136 C180 0.931 . S
H137 C181 0.930 . S
H138 C183 0.929 1_565 S
H139 C184 0.931 . S
H140 C186 0.930 . S
H141 C187 0.929 . S
O142 H116 0.856 . S
O142 C188 1.300 . S
O143 C188 1.209 . S
O144 C189 1.199 . S
O145 H117 0.854 . S
O145 C189 1.297 . S
C146 C147 1.404 . S
C146 C151 1.397 . S
C146 C152 1.492 . S
C147 C146 1.404 . S
C147 C148 1.396 . S
C147 C158 1.492 . S
C148 C147 1.396 . S
C148 C149 1.397 . S
C148 C164 1.509 . S
C149 C148 1.397 . S
C149 C150 1.412 . S
C149 C170 1.485 . S
C150 C149 1.412 . S
C150 C151 1.388 . S
C150 C176 1.490 . S
C151 C146 1.397 . S
C151 C150 1.388 . S
C151 C182 1.519 . S
C152 C146 1.492 . S
C152 C153 1.363 . S
C152 C157 1.390 . S
C153 H118 0.930 1_545 S
C153 C152 1.363 . S
C153 C154 1.372 1_545 S
C154 H119 0.930 . S
C154 C153 1.372 1_565 S
C154 C155 1.383 1_565 S
C155 C154 1.383 1_545 S
C155 C156 1.395 . S
C156 H120 0.930 . S
C156 C155 1.395 . S
C156 C157 1.362 . S
C157 H121 0.930 . S
C157 C152 1.390 . S
C157 C156 1.362 . S
C158 C147 1.492 . S
C158 C159 1.377 . S
C158 C163 1.397 . S
C159 H122 0.931 1_545 S
C159 C158 1.377 . S
C159 C160 1.376 . S
C160 H123 0.930 1_545 S
C160 C159 1.376 . S
C160 C161 1.376 . S
C161 C160 1.376 . S
C161 C162 1.378 . S
C161 C188 1.486 . S
C162 H124 0.930 . S
C162 C161 1.378 . S
C162 C163 1.376 . S
C163 H125 0.929 . S
C163 C158 1.397 . S
C163 C162 1.376 . S
C164 C148 1.509 . S
C164 C165 1.391 . S
C164 C169 1.386 . S
C165 H126 0.930 1_545 S
C165 C164 1.391 . S
C165 C166 1.375 . S
C166 H127 0.931 . S
C166 C165 1.375 . S
C166 C167 1.375 . S
C167 C166 1.375 . S
C167 C168 1.361 . S
C168 H128 0.930 . S
C168 C167 1.361 . S
C168 C169 1.399 . S
C169 H129 0.929 . S
C169 C164 1.386 . S
C169 C168 1.399 . S
C170 C149 1.485 . S
C170 C171 1.394 . S
C170 C175 1.360 . S
C171 H130 0.931 1_545 S
C171 C170 1.394 . S
C171 C172 1.372 . S
C172 H131 0.930 . S
C172 C171 1.372 . S
C172 C173 1.397 . S
C173 C172 1.397 . S
C173 C174 1.390 . S
C173 C189 1.476 . S
C174 H132 0.930 . S
C174 C173 1.390 . S
C174 C175 1.366 . S
C175 H133 0.932 . S
C175 C170 1.360 . S
C175 C174 1.366 . S
C176 C150 1.490 . S
C176 C177 1.380 . S
C176 C181 1.386 . S
C177 H134 0.930 1_545 S
C177 C176 1.380 . S
C177 C178 1.381 . S
C178 H135 0.929 1_545 S
C178 C177 1.381 . S
C178 C179 1.371 . S
C179 C178 1.371 . S
C179 C180 1.380 . S
C180 H136 0.931 . S
C180 C179 1.380 . S
C180 C181 1.387 . S
C181 H137 0.930 . S
C181 C176 1.386 . S
C181 C180 1.387 . S
C182 C151 1.519 . S
C182 C183 1.377 . S
C182 C187 1.361 . S
C183 H138 0.929 1_545 S
C183 C182 1.377 . S
C183 C184 1.386 . S
C184 H139 0.931 . S
C184 C183 1.386 . S
C184 C185 1.363 . S
C185 C184 1.363 . S
C185 C186 1.385 . S
C186 H140 0.930 . S
C186 C185 1.385 . S
C186 C187 1.396 . S
C187 H141 0.929 . S
C187 C182 1.361 . S
C187 C186 1.396 . S
C188 O142 1.300 . S
C188 O143 1.209 . S
C188 C161 1.486 . S
C189 O144 1.199 . S
C189 O145 1.297 . S
C189 C173 1.476 . S
H190 O216 0.856 . S
H191 O219 0.854 . S
H192 C227 0.930 . S
H193 C228 0.930 . S
H194 C230 0.930 . S
H195 C231 0.930 . S
H196 C233 0.931 . S
H197 C234 0.930 . S
H198 C236 0.930 . S
H199 C237 0.929 . S
H200 C239 0.930 . S
H201 C240 0.931 . S
H202 C242 0.930 . S
H203 C243 0.929 . S
H204 C245 0.931 . S
H205 C246 0.930 . S
H206 C248 0.930 . S
H207 C249 0.932 . S
H208 C251 0.930 . S
H209 C252 0.929 . S
H210 C254 0.931 . S
H211 C255 0.930 . S
H212 C257 0.929 . S
H213 C258 0.931 . S
H214 C260 0.930 . S
H215 C261 0.929 . S
O216 H190 0.856 . S
O216 C262 1.300 . S
O217 C262 1.209 . S
O218 C263 1.199 . S
O219 H191 0.854 . S
O219 C263 1.297 . S
C220 C221 1.404 . S
C220 C225 1.397 . S
C220 C226 1.492 . S
C221 C220 1.404 . S
C221 C222 1.396 . S
C221 C232 1.492 . S
C222 C221 1.396 . S
C222 C223 1.397 . S
C222 C238 1.509 . S
C223 C222 1.397 . S
C223 C224 1.412 . S
C223 C244 1.485 . S
C224 C223 1.412 . S
C224 C225 1.388 . S
C224 C250 1.490 . S
C225 C220 1.397 . S
C225 C224 1.388 . S
C225 C256 1.519 . S
C226 C220 1.492 . S
C226 C227 1.363 . S
C226 C231 1.390 . S
C227 H192 0.930 . S
C227 C226 1.363 . S
C227 C228 1.372 . S
C228 H193 0.930 . S
C228 C227 1.372 . S
C228 C229 1.383 . S
C229 C228 1.383 . S
C229 C230 1.395 . S
C230 H194 0.930 . S
C230 C229 1.395 . S
C230 C231 1.362 . S
C231 H195 0.930 . S
C231 C226 1.390 . S
C231 C230 1.362 . S
C232 C221 1.492 . S
C232 C233 1.377 . S
C232 C237 1.397 . S
C233 H196 0.931 . S
C233 C232 1.377 . S
C233 C234 1.376 . S
C234 H197 0.930 . S
C234 C233 1.376 . S
C234 C235 1.376 . S
C235 C234 1.376 . S
C235 C236 1.378 . S
C235 C262 1.486 . S
C236 H198 0.930 . S
C236 C235 1.378 . S
C236 C237 1.376 . S
C237 H199 0.929 . S
C237 C232 1.397 . S
C237 C236 1.376 . S
C238 C222 1.509 . S
C238 C239 1.391 . S
C238 C243 1.386 . S
C239 H200 0.930 . S
C239 C238 1.391 . S
C239 C240 1.375 . S
C240 H201 0.931 . S
C240 C239 1.375 . S
C240 C241 1.375 . S
C241 C240 1.375 . S
C241 C242 1.361 . S
C242 H202 0.930 . S
C242 C241 1.361 . S
C242 C243 1.399 . S
C243 H203 0.929 . S
C243 C238 1.386 . S
C243 C242 1.399 . S
C244 C223 1.485 . S
C244 C245 1.394 . S
C244 C249 1.360 . S
C245 H204 0.931 . S
C245 C244 1.394 . S
C245 C246 1.372 . S
C246 H205 0.930 . S
C246 C245 1.372 . S
C246 C247 1.397 . S
C247 C246 1.397 . S
C247 C248 1.390 . S
C247 C263 1.476 . S
C248 H206 0.930 . S
C248 C247 1.390 . S
C248 C249 1.366 . S
C249 H207 0.932 . S
C249 C244 1.360 . S
C249 C248 1.366 . S
C250 C224 1.490 . S
C250 C251 1.380 . S
C250 C255 1.386 . S
C251 H208 0.930 . S
C251 C250 1.380 . S
C251 C252 1.381 . S
C252 H209 0.929 . S
C252 C251 1.381 . S
C252 C253 1.371 . S
C253 C252 1.371 . S
C253 C254 1.380 . S
C254 H210 0.931 . S
C254 C253 1.380 . S
C254 C255 1.387 . S
C255 H211 0.930 . S
C255 C250 1.386 . S
C255 C254 1.387 . S
C256 C225 1.519 . S
C256 C257 1.377 . S
C256 C261 1.361 . S
C257 H212 0.929 . S
C257 C256 1.377 . S
C257 C258 1.386 . S
C258 H213 0.931 . S
C258 C257 1.386 . S
C258 C259 1.363 . S
C259 C258 1.363 . S
C259 C260 1.385 . S
C260 H214 0.930 . S
C260 C259 1.385 . S
C260 C261 1.396 . S
C261 H215 0.929 . S
C261 C256 1.361 . S
C261 C260 1.396 . S
C262 O216 1.300 . S
C262 O217 1.209 . S
C262 C235 1.486 . S
C263 O218 1.199 . S
C263 O219 1.297 . S
C263 C247 1.476 . S
C264 C265 1.386 . S
C264 C266 1.383 . S
C264 H280 0.951 . S
C265 C264 1.386 . S
C265 C269 1.383 . S
C266 C264 1.383 . S
C266 C267 1.402 . S
C266 H281 0.951 . S
C267 C266 1.402 . S
C267 C268 1.375 . S
C267 C270 1.481 . S
C268 C267 1.375 . S
C268 C269 1.367 . S
C268 H282 0.951 . S
C269 C265 1.383 . S
C269 C268 1.367 . S
C269 H283 0.950 . S
C270 C267 1.481 . S
C270 C271 1.297 . S
C270 H284 0.950 . S
C271 C270 1.297 . S
C271 C272 1.479 . S
C271 H285 0.950 . S
C272 C271 1.479 . S
C272 C273 1.375 . S
C272 C278 1.404 . S
C273 C272 1.375 . S
C273 C274 1.369 . S
C273 H286 0.950 . S
C274 C273 1.369 . S
C274 C275 1.392 . S
C274 H287 0.951 . S
C275 C274 1.392 . S
C275 C277 1.384 . S
H276 C278 0.949 1_655 S
C277 C275 1.384 . S
C277 C278 1.385 . S
C277 H279 0.950 1_455 S
C278 C272 1.404 . S
C278 H276 0.949 1_455 S
C278 C277 1.385 . S
H279 C277 0.950 1_655 S
H280 C264 0.951 . S
H281 C266 0.951 . S
H282 C268 0.951 . S
H283 C269 0.950 . S
H284 C270 0.950 . S
H285 C271 0.950 . S
H286 C273 0.950 . S
H287 C274 0.951 . S
C288 C289 1.386 1_565 S
C288 C290 1.387 . S
C288 H304 0.951 . S
C289 C288 1.386 1_545 S
C289 C293 1.383 . S
C290 C288 1.387 . S
C290 C291 1.389 1_565 S
C290 H305 0.959 . S
C291 C290 1.389 1_545 S
C291 C292 1.375 . S
C291 C294 1.481 . S
C292 C291 1.375 . S
C292 C293 1.367 . S
C292 H306 0.951 . S
C293 C289 1.383 . S
C293 C292 1.367 . S
C293 H307 0.950 . S
C294 C291 1.481 . S
C294 C295 1.297 . S
C294 H308 0.950 . S
C295 C294 1.297 . S
C295 C296 1.479 . S
C295 H309 0.950 1_545 S
C296 C295 1.479 . S
C296 C297 1.375 1_545 S
C296 C302 1.404 . S
C297 C296 1.375 1_565 S
C297 C298 1.369 . S
C297 H310 0.950 . S
C298 C297 1.369 . S
C298 C299 1.392 1_565 S
C298 H311 0.951 . S
C299 C298 1.392 1_545 S
C299 C301 1.384 . S
H300 C302 0.949 . S
C301 C299 1.384 . S
C301 C302 1.385 . S
C301 H303 0.950 . S
C302 C296 1.404 . S
C302 H300 0.949 . S
C302 C301 1.385 . S
H303 C301 0.950 . S
H304 C288 0.951 . S
H305 C290 0.959 . S
H306 C292 0.951 . S
H307 C293 0.950 . S
H308 C294 0.950 . S
H309 C295 0.950 1_565 S
H310 C297 0.950 . S
H311 C298 0.951 . S
C312 C313 1.386 . S
C312 C314 1.383 . S
C312 H328 0.951 . S
C313 C312 1.386 . S
C313 C317 1.383 . S
C314 C312 1.383 . S
C314 C315 1.402 . S
C314 H329 0.951 . S
C315 C314 1.402 . S
C315 C316 1.375 . S
C315 C318 1.481 . S
C316 C315 1.375 . S
C316 C317 1.367 . S
C316 H330 0.951 . S
C317 C313 1.383 . S
C317 C316 1.367 . S
C317 H331 0.950 . S
C318 C315 1.481 . S
C318 C319 1.297 . S
C318 H332 0.950 . S
C319 C318 1.297 . S
C319 C320 1.479 . S
C319 H333 0.950 . S
C320 C319 1.479 . S
C320 C321 1.375 . S
C320 C326 1.404 . S
C321 C320 1.375 . S
C321 C322 1.369 . S
C321 H334 0.950 . S
C322 C321 1.369 . S
C322 C323 1.392 . S
C322 H335 0.951 . S
C323 C322 1.392 . S
C323 C325 1.384 . S
H324 C326 0.949 . S
C325 C323 1.384 . S
C325 C326 1.385 . S
C325 H327 0.950 . S
C326 C320 1.404 . S
C326 H324 0.949 . S
C326 C325 1.385 . S
H327 C325 0.950 . S
H328 C312 0.951 . S
H329 C314 0.951 . S
H330 C316 0.951 . S
H331 C317 0.950 . S
H332 C318 0.950 . S
H333 C319 0.950 . S
H334 C321 0.950 . S
H335 C322 0.951 . S
C336 C337 1.386 . S
C336 C338 1.383 . S
C336 H352 0.951 . S
C337 C336 1.386 . S
C337 C341 1.383 . S
C338 C336 1.383 . S
C338 C339 1.402 . S
C338 H353 0.951 . S
C339 C338 1.402 . S
C339 C340 1.375 . S
C339 C342 1.481 . S
C340 C339 1.375 . S
C340 C341 1.367 . S
C340 H354 0.951 . S
C341 C337 1.383 . S
C341 C340 1.367 . S
C341 H355 0.950 . S
C342 C339 1.481 . S
C342 C343 1.297 . S
C342 H356 0.950 . S
C343 C342 1.297 . S
C343 C344 1.479 . S
C343 H357 0.950 . S
C344 C343 1.479 . S
C344 C345 1.375 . S
C344 C350 1.404 . S
C345 C344 1.375 . S
C345 C346 1.369 . S
C345 H358 0.950 . S
C346 C345 1.369 . S
C346 C347 1.392 . S
C346 H359 0.951 . S
C347 C346 1.392 . S
C347 C349 1.384 . S
H348 C350 0.949 . S
C349 C347 1.384 . S
C349 C350 1.385 . S
C349 H351 0.950 . S
C350 C344 1.404 . S
C350 H348 0.949 . S
C350 C349 1.385 . S
H351 C349 0.950 . S
H352 C336 0.951 . S
H353 C338 0.951 . S
H354 C340 0.951 . S
H355 C341 0.950 . S
H356 C342 0.950 . S
H357 C343 0.950 . S
H358 C345 0.950 . S
H359 C346 0.951 . S
C360 C361 1.386 . S
C360 C362 1.383 . S
C360 H376 0.951 . S
C361 C360 1.386 . S
C361 C365 1.383 1_545 S
C362 C360 1.383 . S
C362 C363 1.402 . S
C362 H377 0.951 . S
C363 C362 1.402 . S
C363 C364 1.375 1_545 S
C363 C366 1.481 . S
C364 C363 1.375 1_565 S
C364 C365 1.367 . S
C364 H378 0.951 . S
C365 C361 1.383 1_565 S
C365 C364 1.367 . S
C365 H379 0.950 . S
C366 C363 1.481 . S
C366 C367 1.297 . S
C366 H380 0.950 . S
C367 C366 1.297 . S
C367 C368 1.479 . S
C367 H381 0.950 . S
C368 C367 1.479 . S
C368 C369 1.375 . S
C368 C374 1.404 . S
C369 C368 1.375 . S
C369 C370 1.369 . S
C369 H382 0.950 . S
C370 C369 1.369 . S
C370 C371 1.392 . S
C370 H383 0.951 . S
C371 C370 1.392 . S
C371 C373 1.384 . S
H372 C374 0.949 . S
C373 C371 1.384 . S
C373 C374 1.385 . S
C373 H375 0.950 . S
C374 C368 1.404 . S
C374 H372 0.949 . S
C374 C373 1.385 . S
H375 C373 0.950 . S
H376 C360 0.951 . S
H377 C362 0.951 . S
H378 C364 0.951 . S
H379 C365 0.950 . S
H380 C366 0.950 . S
H381 C367 0.950 . S
H382 C369 0.950 . S
H383 C370 0.951 . S
C384 C385 1.386 . S
C384 C386 1.383 . S
C384 H400 0.951 . S
C385 C384 1.386 . S
C385 C389 1.383 . S
C386 C384 1.383 . S
C386 C387 1.402 . S
C386 H401 0.951 . S
C387 C386 1.402 . S
C387 C388 1.375 . S
C387 C390 1.481 . S
C388 C387 1.375 . S
C388 C389 1.367 . S
C388 H402 0.951 . S
C389 C385 1.383 . S
C389 C388 1.367 . S
C389 H403 0.950 . S
C390 C387 1.481 . S
C390 C391 1.297 . S
C390 H404 0.950 . S
C391 C390 1.297 . S
C391 C392 1.479 . S
C391 H405 0.950 . S
C392 C391 1.479 . S
C392 C393 1.375 . S
C392 C398 1.404 . S
C393 C392 1.375 . S
C393 C394 1.369 . S
C393 H406 0.950 . S
C394 C393 1.369 . S
C394 C395 1.392 . S
C394 H407 0.951 . S
C395 C394 1.392 . S
C395 C397 1.384 . S
H396 C398 0.949 . S
C397 C395 1.384 . S
C397 C398 1.385 . S
C397 H399 0.950 . S
C398 C392 1.404 . S
C398 H396 0.949 . S
C398 C397 1.385 . S
H399 C397 0.950 . S
H400 C384 0.951 . S
H401 C386 0.951 . S
H402 C388 0.951 . S
H403 C389 0.950 . S
H404 C390 0.950 . S
H405 C391 0.950 . S
H406 C393 0.950 . S
H407 C394 0.951 . S
C408 C409 1.386 . S
C408 C410 1.383 . S
C408 H424 0.951 1_655 S
C409 C408 1.386 . S
C409 C413 1.383 . S
C410 C408 1.383 . S
C410 C411 1.402 . S
C410 H425 0.951 . S
C411 C410 1.402 . S
C411 C412 1.375 . S
C411 C414 1.481 . S
C412 C411 1.375 . S
C412 C413 1.367 . S
C412 H426 0.951 1_545 S
C413 C409 1.383 . S
C413 C412 1.367 . S
C413 H427 0.950 1_545 S
C414 C411 1.481 . S
C414 C415 1.297 . S
C414 H428 0.950 . S
C415 C414 1.297 . S
C415 C416 1.479 . S
C415 H429 0.950 . S
C416 C415 1.479 . S
C416 C417 1.375 . S
C416 C422 1.404 . S
C417 C416 1.375 . S
C417 C418 1.369 . S
C417 H430 0.950 . S
C418 C417 1.369 . S
C418 C419 1.392 . S
C418 H431 0.951 . S
C419 C418 1.392 . S
C419 C421 1.384 . S
H420 C422 0.949 1_565 S
C421 C419 1.384 . S
C421 C422 1.385 . S
C421 H423 0.961 . S
C422 C416 1.404 . S
C422 H420 0.949 1_545 S
C422 C421 1.385 . S
H423 C421 0.961 . S
H424 C408 0.951 1_455 S
H425 C410 0.951 . S
H426 C412 0.951 1_565 S
H427 C413 0.950 1_565 S
H428 C414 0.950 . S
H429 C415 0.950 . S
H430 C417 0.950 . S
H431 C418 0.951 . S
C432 C433 1.386 . S
C432 C434 1.383 . S
C432 H448 0.951 1_655 S
C433 C432 1.386 . S
C433 C437 1.383 . S
C434 C432 1.383 . S
C434 C435 1.402 . S
C434 H449 0.951 . S
C435 C434 1.402 . S
C435 C436 1.375 . S
C435 C438 1.481 . S
C436 C435 1.375 . S
C436 C437 1.367 . S
C436 H450 0.951 . S
C437 C433 1.383 . S
C437 C436 1.367 . S
C437 H451 0.950 . S
C438 C435 1.481 . S
C438 C439 1.297 . S
C438 H452 0.950 . S
C439 C438 1.297 . S
C439 C440 1.479 . S
C439 H453 0.950 . S
C440 C439 1.479 . S
C440 C441 1.375 . S
C440 C446 1.404 . S
C441 C440 1.375 . S
C441 C442 1.369 . S
C441 H454 0.950 . S
C442 C441 1.369 . S
C442 C443 1.392 . S
C442 H455 0.951 . S
C443 C442 1.392 . S
C443 C445 1.384 . S
H444 C446 0.949 . S
C445 C443 1.384 . S
C445 C446 1.385 . S
C445 H447 0.950 . S
C446 C440 1.404 . S
C446 H444 0.949 . S
C446 C445 1.385 . S
H447 C445 0.950 . S
H448 C432 0.951 1_455 S
H449 C434 0.951 . S
H450 C436 0.951 . S
H451 C437 0.950 . S
H452 C438 0.950 . S
H453 C439 0.950 . S
H454 C441 0.950 . S
H455 C442 0.951 . S
C456 C457 1.386 . S
C456 C458 1.383 . S
C456 H472 0.951 . S
C457 C456 1.386 . S
C457 C461 1.383 . S
C458 C456 1.383 . S
C458 C459 1.402 . S
C458 H473 0.951 . S
C459 C458 1.402 . S
C459 C460 1.375 . S
C459 C462 1.481 . S
C460 C459 1.375 . S
C460 C461 1.367 . S
C460 H474 0.951 1_455 S
C461 C457 1.383 . S
C461 C460 1.367 . S
C461 H475 0.950 1_455 S
C462 C459 1.481 . S
C462 C463 1.297 . S
C462 H476 0.950 1_455 S
C463 C462 1.297 . S
C463 C464 1.479 . S
C463 H477 0.950 . S
C464 C463 1.479 . S
C464 C465 1.375 . S
C464 C470 1.404 . S
C465 C464 1.375 . S
C465 C466 1.369 . S
C465 H478 0.950 . S
C466 C465 1.369 . S
C466 C467 1.392 . S
C466 H479 0.951 . S
C467 C466 1.392 . S
C467 C469 1.384 1_455 S
H468 C470 0.949 1_655 S
C469 C467 1.384 1_655 S
C469 C470 1.385 1_655 S
C469 H471 0.950 . S
C470 C464 1.404 . S
C470 H468 0.949 1_455 S
C470 C469 1.385 1_455 S
H471 C469 0.950 . S
H472 C456 0.951 . S
H473 C458 0.951 . S
H474 C460 0.951 1_655 S
H475 C461 0.950 1_655 S
H476 C462 0.950 1_655 S
H477 C463 0.950 . S
H478 C465 0.950 . S
H479 C466 0.951 . S
C480 C481 1.386 . S
C480 C482 1.383 . S
C480 H496 0.951 . S
C481 C480 1.386 . S
C481 C485 1.383 . S
C482 C480 1.383 . S
C482 C483 1.402 . S
C482 H497 0.951 . S
C483 C482 1.402 . S
C483 C484 1.375 . S
C483 C486 1.481 . S
C484 C483 1.375 . S
C484 C485 1.367 . S
C484 H498 0.951 . S
C485 C481 1.383 . S
C485 C484 1.367 . S
C485 H499 0.950 . S
C486 C483 1.481 . S
C486 C487 1.297 . S
C486 H500 0.950 . S
C487 C486 1.297 . S
C487 C488 1.479 . S
C487 H501 0.950 . S
C488 C487 1.479 . S
C488 C489 1.375 . S
C488 C494 1.404 . S
C489 C488 1.375 . S
C489 C490 1.369 . S
C489 H502 0.950 . S
C490 C489 1.369 . S
C490 C491 1.392 . S
C490 H503 0.951 . S
C491 C490 1.392 . S
C491 C493 1.384 . S
H492 C494 0.949 1_565 S
C493 C491 1.384 . S
C493 C494 1.385 . S
C493 H495 0.950 1_545 S
C494 C488 1.404 . S
C494 H492 0.949 1_545 S
C494 C493 1.385 . S
H495 C493 0.950 1_565 S
H496 C480 0.951 . S
H497 C482 0.951 . S
H498 C484 0.951 . S
H499 C485 0.950 . S
H500 C486 0.950 . S
H501 C487 0.950 . S
H502 C489 0.950 . S
H503 C490 0.951 . S
C504 C505 1.386 . S
C504 C506 1.383 . S
C504 H520 0.951 . S
C505 C504 1.386 . S
C505 C509 1.383 . S
C506 C504 1.383 . S
C506 C507 1.402 . S
C506 H521 0.951 . S
C507 C506 1.402 . S
C507 C508 1.375 . S
C507 C510 1.481 . S
C508 C507 1.375 . S
C508 C509 1.367 . S
C508 H522 0.951 . S
C509 C505 1.383 . S
C509 C508 1.367 . S
C509 H523 0.950 . S
C510 C507 1.481 . S
C510 C511 1.297 . S
C510 H524 0.950 . S
C511 C510 1.297 . S
C511 C512 1.479 . S
C511 H525 0.950 . S
C512 C511 1.479 . S
C512 C513 1.375 . S
C512 C518 1.404 . S
C513 C512 1.375 . S
C513 C514 1.369 . S
C513 H526 0.950 . S
C514 C513 1.369 . S
C514 C515 1.392 . S
C514 H527 0.951 . S
C515 C514 1.392 . S
C515 C517 1.384 . S
H516 C518 0.949 . S
C517 C515 1.384 . S
C517 C518 1.385 . S
C517 H519 0.950 . S
C518 C512 1.404 . S
C518 H516 0.949 . S
C518 C517 1.385 . S
H519 C517 0.950 . S
H520 C504 0.951 . S
H521 C506 0.951 . S
H522 C508 0.951 . S
H523 C509 0.950 . S
H524 C510 0.950 . S
H525 C511 0.950 . S
H526 C513 0.950 . S
H527 C514 0.951 . S
C528 C529 1.386 1_655 S
C528 C530 1.383 . S
C528 H544 0.951 . S
C529 C528 1.386 1_455 S
C529 C533 1.383 . S
C530 C528 1.383 . S
C530 C531 1.402 1_655 S
C530 H545 0.951 . S
C531 C530 1.402 1_455 S
C531 C532 1.375 . S
C531 C534 1.481 . S
C532 C531 1.375 . S
C532 C533 1.367 . S
C532 H546 0.951 . S
C533 C529 1.383 . S
C533 C532 1.367 . S
C533 H547 0.950 . S
C534 C531 1.481 . S
C534 C535 1.297 . S
C534 H548 0.950 . S
C535 C534 1.297 . S
C535 C536 1.479 . S
C535 H549 0.950 1_455 S
C536 C535 1.479 . S
C536 C537 1.375 1_455 S
C536 C542 1.404 . S
C537 C536 1.375 1_655 S
C537 C538 1.369 . S
C537 H550 0.950 . S
C538 C537 1.369 . S
C538 C539 1.392 1_655 S
C538 H551 0.951 . S
C539 C538 1.392 1_455 S
C539 C541 1.384 . S
H540 C542 0.949 . S
C541 C539 1.384 . S
C541 C542 1.385 . S
C541 H543 0.950 . S
C542 C536 1.404 . S
C542 H540 0.949 . S
C542 C541 1.385 . S
H543 C541 0.950 . S
H544 C528 0.951 . S
H545 C530 0.951 . S
H546 C532 0.951 . S
H547 C533 0.950 . S
H548 C534 0.950 . S
H549 C535 0.950 1_655 S
H550 C537 0.950 . S
H551 C538 0.951 . S
C275 C81 1.411 . S
C265 C6 1.449 . S
C289 C22 1.506 . S
C299 C155 1.505 . S
C313 C34 1.934 . S
C323 C259 1.950 . S
C337 C7 0.767 . S
C347 C93 0.795 . S
C371 C167 0.880 . S
C361 C23 0.867 . S
C385 C35 1.244 . S
C395 C253 1.124 . S
C419 C185 2.212 . S
C409 C36 2.209 1_655 S
C433 C9 1.801 1_655 S
C443 C229 1.668 . S
C467 C105 1.439 . S
C457 C21 1.491 . S
C491 C179 1.476 . S
C481 C37 1.524 . S
C515 C241 1.055 . S
C505 C8 1.044 . S
C529 C20 2.209 . S
C539 C111 2.235 . S
