# Generated by pormake.
# Topology dag, (6,3)-cn, num edge types: 1
# Building blocks:
#     Node 0, Type 0, BuildingBlock: MIDCAF_clean_sbu_0, # of connection points: 6
#     Node 1, Type 0, BuildingBlock: MIDCAF_clean_sbu_0, # of connection points: 6
#     Node 2, Type 0, BuildingBlock: MIDCAF_clean_sbu_0, # of connection points: 6
#     Node 3, Type 0, BuildingBlock: MIDCAF_clean_sbu_0, # of connection points: 6
#     Node 4, Type 1, BuildingBlock: VETTIZ_charged_linker_0, # of connection points: 3
#     Node 5, Type 1, BuildingBlock: VETTIZ_charged_linker_0, # of connection points: 3
#     Node 6, Type 1, BuildingBlock: VETTIZ_charged_linker_0, # of connection points: 3
#     Node 7, Type 1, BuildingBlock: VETTIZ_charged_linker_0, # of connection points: 3
#     Node 8, Type 1, BuildingBlock: VETTIZ_charged_linker_0, # of connection points: 3
#     Node 9, Type 1, BuildingBlock: VETTIZ_charged_linker_0, # of connection points: 3
#     Node 10, Type 1, BuildingBlock: VETTIZ_charged_linker_0, # of connection points: 3
#     Node 11, Type 1, BuildingBlock: VETTIZ_charged_linker_0, # of connection points: 3
#     Edge 12, Type (0, 1), BuildingBlock: TEMPAE_clean_linker_10, # of connection points: 2
#     Edge 13, Type (0, 1), BuildingBlock: TEMPAE_clean_linker_10, # of connection points: 2
#     Edge 14, Type (0, 1), BuildingBlock: TEMPAE_clean_linker_10, # of connection points: 2
#     Edge 15, Type (0, 1), BuildingBlock: TEMPAE_clean_linker_10, # of connection points: 2
#     Edge 16, Type (0, 1), BuildingBlock: TEMPAE_clean_linker_10, # of connection points: 2
#     Edge 17, Type (0, 1), BuildingBlock: TEMPAE_clean_linker_10, # of connection points: 2
#     Edge 18, Type (0, 1), BuildingBlock: TEMPAE_clean_linker_10, # of connection points: 2
#     Edge 19, Type (0, 1), BuildingBlock: TEMPAE_clean_linker_10, # of connection points: 2
#     Edge 20, Type (0, 1), BuildingBlock: TEMPAE_clean_linker_10, # of connection points: 2
#     Edge 21, Type (0, 1), BuildingBlock: TEMPAE_clean_linker_10, # of connection points: 2
#     Edge 22, Type (0, 1), BuildingBlock: TEMPAE_clean_linker_10, # of connection points: 2
#     Edge 23, Type (0, 1), BuildingBlock: TEMPAE_clean_linker_10, # of connection points: 2
#     Edge 24, Type (0, 1), BuildingBlock: TEMPAE_clean_linker_10, # of connection points: 2
#     Edge 25, Type (0, 1), BuildingBlock: TEMPAE_clean_linker_10, # of connection points: 2
#     Edge 26, Type (0, 1), BuildingBlock: TEMPAE_clean_linker_10, # of connection points: 2
#     Edge 27, Type (0, 1), BuildingBlock: TEMPAE_clean_linker_10, # of connection points: 2
#     Edge 28, Type (0, 1), BuildingBlock: TEMPAE_clean_linker_10, # of connection points: 2
#     Edge 29, Type (0, 1), BuildingBlock: TEMPAE_clean_linker_10, # of connection points: 2
#     Edge 30, Type (0, 1), BuildingBlock: TEMPAE_clean_linker_10, # of connection points: 2
#     Edge 31, Type (0, 1), BuildingBlock: TEMPAE_clean_linker_10, # of connection points: 2
#     Edge 32, Type (0, 1), BuildingBlock: TEMPAE_clean_linker_10, # of connection points: 2
#     Edge 33, Type (0, 1), BuildingBlock: TEMPAE_clean_linker_10, # of connection points: 2
#     Edge 34, Type (0, 1), BuildingBlock: TEMPAE_clean_linker_10, # of connection points: 2
#     Edge 35, Type (0, 1), BuildingBlock: TEMPAE_clean_linker_10, # of connection points: 2
# Relax obj value: 0.316
# Max RMSD: 0.190
# Mean RMSD: 0.179
data_MOF--net-dag--node1-MIDCAF_clean_sbu_0--node2-VETTIZ_charged_linker_0--edge1-TEMPAE_clean_linker_10
_symmetry_space_group_name_H-M    P1
_symmetry_Int_Tables_number       1
_symmetry_cell_setting            triclinic
loop_
_symmetry_equiv_pos_as_xyz
'x, y, z'
_cell_length_a     49.552221
_cell_length_b     49.522018
_cell_length_c     38.380312
_cell_angle_alpha  89.903166
_cell_angle_beta   90.208575
_cell_angle_gamma 90.004611
loop_
_atom_site_label
_atom_site_type_symbol
_atom_site_fract_x
_atom_site_fract_y
_atom_site_fract_z
_atom_type_partial_charge
Zn0 Zn 0.16049 0.79967 0.07744 0.0
Zn1 Zn 0.13315 0.86569 0.9421 0.0
Zn2 Zn 0.15172 0.8492 0.00306 0.0
C3 C 0.14434 0.91085 0.98105 0.0
C4 C 0.09779 0.82677 0.96723 0.0
O5 O 0.186 0.82174 0.00078 0.0
O6 O 0.16037 0.79162 0.02504 0.0
C7 C 0.18607 0.84731 0.0763 0.0
O8 O 0.15618 0.8929 0.99957 0.0
O9 O 0.12889 0.90385 0.95645 0.0
O10 O 0.10151 0.84128 0.94063 0.0
O11 O 0.11366 0.82848 0.9936 0.0
O12 O 0.18817 0.82772 0.09736 0.0
O13 O 0.17154 0.8438 0.04953 0.0
O14 O 0.11515 0.83525 0.03221 0.0
O15 O 0.12184 0.81207 0.0822 0.0
C16 C 0.10634 0.82434 0.06081 0.0
O17 O 0.17796 0.83313 0.96365 0.0
O18 O 0.16648 0.85453 0.91552 0.0
C19 C 0.183 0.79759 0.01238 0.0
C20 C 0.18201 0.83841 0.93151 0.0
Zn21 Zn 0.64137 0.62833 0.43978 0.0
Zn22 Zn 0.69571 0.65412 0.58126 0.0
Zn23 Zn 0.65071 0.64884 0.50353 0.0
C24 C 0.67304 0.60112 0.5622 0.0
C25 C 0.64684 0.68132 0.57926 0.0
O26 O 0.66871 0.67614 0.46694 0.0
O27 O 0.65812 0.66007 0.41523 0.0
C28 C 0.67686 0.59415 0.47246 0.0
O29 O 0.6627 0.61184 0.53428 0.0
O30 O 0.68557 0.61503 0.58491 0.0
O31 O 0.66629 0.67962 0.60066 0.0
O32 O 0.64836 0.66895 0.55048 0.0
O33 O 0.66353 0.59554 0.44446 0.0
O34 O 0.67367 0.61179 0.4965 0.0
O35 O 0.60773 0.65185 0.49252 0.0
O36 O 0.60181 0.627 0.44553 0.0
C37 C 0.59215 0.64125 0.46972 0.0
O38 O 0.67657 0.68418 0.50622 0.0
O39 O 0.70686 0.65852 0.53049 0.0
C40 C 0.6693 0.67798 0.4338 0.0
C41 C 0.70022 0.68156 0.51948 0.0
Zn42 Zn 0.87057 0.1283 0.96762 0.0
Zn43 Zn 0.83121 0.19592 0.09006 0.0
Zn44 Zn 0.84321 0.14973 0.00903 0.0
C45 C 0.88614 0.16443 0.06892 0.0
C46 C 0.80424 0.15028 0.07596 0.0
O47 O 0.83128 0.17122 0.96307 0.0
O48 O 0.84087 0.13649 0.9295 0.0
C49 C 0.88811 0.17942 0.97161 0.0
O50 O 0.87887 0.15241 0.04072 0.0
O51 O 0.87008 0.17943 0.08645 0.0
O52 O 0.80081 0.16718 0.10025 0.0
O53 O 0.82143 0.15628 0.05306 0.0
O54 O 0.89964 0.15665 0.97384 0.0
O55 O 0.86276 0.18083 0.97723 0.0
O56 O 0.82905 0.11008 0.99451 0.0
O57 O 0.86928 0.09235 0.99309 0.0
C58 C 0.84398 0.08915 0.99394 0.0
O59 O 0.82353 0.18728 0.9932 0.0
O60 O 0.84351 0.20204 0.03954 0.0
C61 C 0.82826 0.15848 0.93424 0.0
C62 C 0.82593 0.20585 0.01616 0.0
Zn63 Zn 0.3657 0.36013 0.52831 0.0
Zn64 Zn 0.33726 0.33296 0.41893 0.0
Zn65 Zn 0.34384 0.3447 0.47955 0.0
C66 C 0.39244 0.34206 0.42807 0.0
C67 C 0.30375 0.37745 0.43364 0.0
O68 O 0.32766 0.31902 0.52029 0.0
O69 O 0.33392 0.3499 0.56084 0.0
C70 C 0.38082 0.30783 0.51806 0.0
O71 O 0.3837 0.34871 0.45807 0.0
O72 O 0.37607 0.33355 0.40528 0.0
O73 O 0.31334 0.36447 0.40817 0.0
O74 O 0.31195 0.37237 0.46465 0.0
O75 O 0.39298 0.33026 0.52112 0.0
O76 O 0.35581 0.30782 0.50861 0.0
O77 O 0.32761 0.38364 0.49687 0.0
O78 O 0.36771 0.39877 0.51142 0.0
C79 C 0.34299 0.40339 0.50553 0.0
O80 O 0.32607 0.30461 0.48735 0.0
O81 O 0.31936 0.29814 0.43094 0.0
C82 C 0.32163 0.329 0.55027 0.0
C83 C 0.31682 0.29027 0.46211 0.0
C84 C 0.23713 0.0483 0.15776 0.0
C85 C 0.22628 0.0325 0.13066 0.0
C86 C 0.20249 0.0411 0.11379 0.0
C87 C 0.19931 0.07931 0.15259 0.0
C88 C 0.22346 0.07186 0.16795 0.0
C89 C 0.23149 0.091 0.19668 0.0
H90 H 0.19721 0.19357 0.30455 0.0
C91 C 0.18887 0.10323 0.17094 0.0
C92 C 0.20772 0.11052 0.19654 0.0
H93 H 0.27065 0.14677 0.30446 0.0
H94 H 0.25587 0.12304 0.2527 0.0
H95 H 0.19706 0.20347 0.21995 0.0
H96 H 0.15566 0.14516 0.28433 0.0
H97 H 0.13258 0.16018 0.2551 0.0
H98 H 0.1494 0.18085 0.28675 0.0
H99 H 0.16872 0.21276 0.24635 0.0
H100 H 0.16433 0.19908 0.20308 0.0
C101 C 0.25805 0.10516 0.18583 0.0
C102 C 0.23345 0.07467 0.23107 0.0
C103 C 0.09411 0.13526 0.14386 0.0
C104 C 0.07838 0.15682 0.15577 0.0
C105 C 0.08964 0.17539 0.17949 0.0
C106 C 0.11605 0.17175 0.19225 0.0
C107 C 0.13126 0.1494 0.18098 0.0
C108 C 0.1204 0.13212 0.15641 0.0
C109 C 0.13982 0.11062 0.14532 0.0
C110 C 0.16404 0.11729 0.16797 0.0
C111 C 0.15876 0.13957 0.18948 0.0
C112 C 0.14579 0.11446 0.1059 0.0
C113 C 0.12737 0.08288 0.15493 0.0
C114 C 0.20988 0.17807 0.29327 0.0
C115 C 0.23474 0.1714 0.30861 0.0
C116 C 0.25124 0.15176 0.29307 0.0
C117 C 0.24261 0.1381 0.26311 0.0
C118 C 0.21727 0.14425 0.24855 0.0
C119 C 0.20162 0.1644 0.26311 0.0
C120 C 0.1757 0.16879 0.24331 0.0
C121 C 0.17787 0.14718 0.21539 0.0
C122 C 0.20227 0.13283 0.21871 0.0
C123 C 0.1762 0.19756 0.22744 0.0
C124 C 0.15194 0.16365 0.26852 0.0
H125 H 0.17048 0.06904 0.11151 0.0
H126 H 0.25536 0.0421 0.17119 0.0
H127 H 0.21724 0.05915 0.23235 0.0
H128 H 0.2306 0.08713 0.25454 0.0
H129 H 0.25314 0.06405 0.23313 0.0
H130 H 0.25859 0.10862 0.15718 0.0
H131 H 0.27591 0.09272 0.19286 0.0
H132 H 0.26027 0.12548 0.19735 0.0
H133 H 0.08607 0.12111 0.12497 0.0
H134 H 0.07779 0.19229 0.18872 0.0
H135 H 0.12353 0.18627 0.21064 0.0
H136 H 0.14077 0.1352 0.09675 0.0
H137 H 0.13388 0.10013 0.08975 0.0
H138 H 0.16751 0.11204 0.09985 0.0
H139 H 0.1186 0.08347 0.18157 0.0
H140 H 0.14222 0.06631 0.15545 0.0
H141 H 0.11096 0.07738 0.13647 0.0
H142 H 0.19347 0.02903 0.09329 0.0
C143 C 0.18897 0.0643 0.12463 0.0
C144 C 0.33009 0.58583 0.66039 0.0
C145 C 0.34486 0.56957 0.63726 0.0
C146 C 0.37049 0.57809 0.62609 0.0
C147 C 0.36591 0.61936 0.65901 0.0
C148 C 0.34124 0.61054 0.67134 0.0
C149 C 0.32913 0.63039 0.69668 0.0
H150 H 0.33389 0.75417 0.7719 0.0
C151 C 0.37112 0.64649 0.67321 0.0
C152 C 0.3499 0.65308 0.69566 0.0
H153 H 0.277 0.68966 0.79161 0.0
H154 H 0.30053 0.661 0.75101 0.0
H155 H 0.38745 0.71459 0.77344 0.0
H156 H 0.3376 0.74709 0.69122 0.0
H157 H 0.37104 0.74755 0.67626 0.0
H158 H 0.36198 0.76742 0.71384 0.0
H159 H 0.38644 0.74988 0.76272 0.0
H160 H 0.40861 0.72699 0.74033 0.0
C161 C 0.32771 0.61677 0.73306 0.0
C162 C 0.30145 0.63961 0.6822 0.0
C163 C 0.45227 0.69856 0.6304 0.0
C164 C 0.46198 0.72486 0.63602 0.0
C165 C 0.44736 0.74226 0.65806 0.0
C166 C 0.42353 0.73339 0.67427 0.0
C167 C 0.41436 0.70683 0.6685 0.0
C168 C 0.42864 0.6901 0.64657 0.0
C169 C 0.41608 0.66272 0.64277 0.0
C170 C 0.39168 0.66561 0.66605 0.0
C171 C 0.39092 0.69128 0.68143 0.0
C172 C 0.43624 0.64147 0.65727 0.0
C173 C 0.40824 0.65887 0.60387 0.0
C174 C 0.32667 0.73376 0.76791 0.0
C175 C 0.30342 0.72429 0.78484 0.0
C176 C 0.29458 0.69765 0.77843 0.0
C177 C 0.30833 0.68096 0.75501 0.0
C178 C 0.33123 0.69093 0.73786 0.0
C179 C 0.34027 0.71678 0.74483 0.0
C180 C 0.36537 0.72375 0.72492 0.0
C181 C 0.36995 0.69778 0.70497 0.0
C182 C 0.34973 0.67869 0.71236 0.0
C183 C 0.38827 0.7293 0.75152 0.0
C184 C 0.35893 0.74781 0.70036 0.0
H185 H 0.40047 0.60833 0.62677 0.0
H186 H 0.3105 0.57941 0.6697 0.0
H187 H 0.30307 0.64479 0.65407 0.0
H188 H 0.29366 0.65787 0.69512 0.0
H189 H 0.28618 0.62331 0.68486 0.0
H190 H 0.34305 0.6005 0.73585 0.0
H191 H 0.3076 0.60754 0.73762 0.0
H192 H 0.33232 0.63102 0.75446 0.0
H193 H 0.46328 0.68429 0.61448 0.0
H194 H 0.45444 0.7626 0.6629 0.0
H195 H 0.41328 0.74747 0.69084 0.0
H196 H 0.4478 0.64971 0.67978 0.0
H197 H 0.45105 0.63535 0.63712 0.0
H198 H 0.42615 0.62326 0.66764 0.0
H199 H 0.40305 0.6785 0.59137 0.0
H200 H 0.39001 0.64636 0.60022 0.0
H201 H 0.42513 0.6499 0.58887 0.0
H202 H 0.38211 0.56577 0.6083 0.0
C203 C 0.38105 0.60286 0.63674 0.0
C204 C 0.76105 0.83768 0.27887 0.0
C205 C 0.77031 0.81288 0.29252 0.0
C206 C 0.79289 0.80047 0.27685 0.0
C207 C 0.79693 0.83743 0.23602 0.0
C208 C 0.77429 0.84924 0.2503 0.0
C209 C 0.76561 0.87403 0.23042 0.0
H210 H 0.79086 0.9629 0.10004 0.0
C211 C 0.80597 0.8543 0.20669 0.0
C212 C 0.78733 0.87548 0.20264 0.0
H213 H 0.72338 0.96362 0.17091 0.0
H214 H 0.7396 0.92219 0.19781 0.0
H215 H 0.83214 0.95155 0.15704 0.0
H216 H 0.79295 0.89888 0.08405 0.0
H217 H 0.827 0.889 0.08582 0.0
H218 H 0.81852 0.92277 0.072 0.0
H219 H 0.84343 0.94857 0.1129 0.0
H220 H 0.85623 0.92691 0.14709 0.0
C221 C 0.76686 0.89848 0.2554 0.0
C222 C 0.73726 0.86874 0.21466 0.0
C223 C 0.89694 0.83601 0.15015 0.0
C224 C 0.91193 0.8507 0.1256 0.0
C225 C 0.90042 0.87347 0.10946 0.0
C226 C 0.87438 0.88189 0.11802 0.0
C227 C 0.85981 0.86765 0.14344 0.0
C228 C 0.87102 0.84506 0.159 0.0
C229 C 0.85289 0.83333 0.18658 0.0
C230 C 0.82932 0.85303 0.1854 0.0
C231 C 0.83345 0.8728 0.15984 0.0
C232 C 0.86821 0.83443 0.22181 0.0
C233 C 0.84441 0.80451 0.17518 0.0
C234 C 0.77903 0.95365 0.12055 0.0
C235 C 0.75548 0.96604 0.1328 0.0
C236 C 0.74138 0.9541 0.16073 0.0
C237 C 0.75093 0.93021 0.17638 0.0
C238 C 0.77505 0.91851 0.16432 0.0
C239 C 0.78852 0.93029 0.13675 0.0
C240 C 0.81472 0.91658 0.12875 0.0
C241 C 0.8142 0.89361 0.15477 0.0
C242 C 0.79115 0.89494 0.17589 0.0
C243 C 0.83795 0.93682 0.13651 0.0
C244 C 0.81353 0.90634 0.09063 0.0
H245 H 0.82313 0.80206 0.23816 0.0
H246 H 0.7437 0.84785 0.28978 0.0
H247 H 0.73446 0.84699 0.20836 0.0
H248 H 0.73404 0.87936 0.18965 0.0
H249 H 0.72109 0.87457 0.23314 0.0
H250 H 0.78583 0.89804 0.27099 0.0
H251 H 0.74964 0.8982 0.27385 0.0
H252 H 0.76691 0.91804 0.2416 0.0
H253 H 0.90561 0.81857 0.16307 0.0
H254 H 0.91181 0.88494 0.09046 0.0
H255 H 0.86684 0.89947 0.10489 0.0
H256 H 0.87824 0.85437 0.22514 0.0
H257 H 0.88407 0.8186 0.22307 0.0
H258 H 0.85499 0.83208 0.24462 0.0
H259 H 0.84529 0.80213 0.14638 0.0
H260 H 0.82321 0.79987 0.18196 0.0
H261 H 0.85783 0.78894 0.18684 0.0
H262 H 0.79995 0.78087 0.28542 0.0
C263 C 0.80625 0.81264 0.24894 0.0
C264 C 0.66881 0.25202 0.77873 0.0
C265 C 0.69341 0.26195 0.79188 0.0
C266 C 0.7017 0.28825 0.78292 0.0
C267 C 0.66246 0.29341 0.74567 0.0
C268 C 0.65354 0.26817 0.75598 0.0
C269 C 0.62676 0.26102 0.73966 0.0
H270 H 0.52662 0.29544 0.62684 0.0
C271 C 0.64332 0.30401 0.71944 0.0
C272 C 0.62227 0.28512 0.71579 0.0
H273 H 0.52723 0.22746 0.69731 0.0
H274 H 0.57255 0.23972 0.71679 0.0
H275 H 0.55066 0.33825 0.67996 0.0
H276 H 0.58535 0.28895 0.59993 0.0
H277 H 0.60566 0.31799 0.60127 0.0
H278 H 0.57032 0.32097 0.58999 0.0
H279 H 0.54422 0.34246 0.63419 0.0
H280 H 0.57225 0.35879 0.6551 0.0
C281 C 0.60539 0.25959 0.76895 0.0
C282 C 0.62998 0.23447 0.71894 0.0
C283 C 0.66164 0.39397 0.65886 0.0
C284 C 0.64887 0.40699 0.63068 0.0
C285 C 0.6273 0.39419 0.61352 0.0
C286 C 0.61772 0.3692 0.62509 0.0
C287 C 0.62991 0.35677 0.65407 0.0
C288 C 0.65209 0.36862 0.66972 0.0
C289 C 0.66375 0.35106 0.69816 0.0
C290 C 0.64406 0.32744 0.69798 0.0
C291 C 0.62407 0.33128 0.67257 0.0
C292 C 0.66268 0.36693 0.73285 0.0
C293 C 0.69253 0.34248 0.68695 0.0
C294 C 0.53647 0.28322 0.64659 0.0
C295 C 0.5233 0.26086 0.66114 0.0
C296 C 0.53699 0.24497 0.68604 0.0
C297 C 0.56313 0.25226 0.6974 0.0
C298 C 0.57554 0.27554 0.68351 0.0
C299 C 0.5622 0.29027 0.65816 0.0
C300 C 0.57772 0.31455 0.64631 0.0
C301 C 0.60229 0.31283 0.66971 0.0
C302 C 0.6012 0.2899 0.69129 0.0
C303 C 0.56044 0.33996 0.65399 0.0
C304 C 0.58507 0.31067 0.60734 0.0
H305 H 0.69402 0.32367 0.75351 0.0
H306 H 0.66179 0.23204 0.78581 0.0
H307 H 0.64886 0.2349 0.70336 0.0
H308 H 0.61346 0.23111 0.70011 0.0
H309 H 0.63104 0.2168 0.73677 0.0
H310 H 0.60988 0.27444 0.78991 0.0
H311 H 0.60491 0.23921 0.78108 0.0
H312 H 0.58493 0.2649 0.75975 0.0
H313 H 0.67857 0.40334 0.67208 0.0
H314 H 0.61731 0.40399 0.59175 0.0
H315 H 0.60084 0.36079 0.61138 0.0
H316 H 0.6436 0.37869 0.73468 0.0
H317 H 0.67973 0.38141 0.73486 0.0
H318 H 0.6628 0.35368 0.75601 0.0
H319 H 0.6938 0.34016 0.65816 0.0
H320 H 0.69854 0.32258 0.69737 0.0
H321 H 0.70775 0.35778 0.69484 0.0
H322 H 0.72055 0.29627 0.79287 0.0
C323 C 0.6864 0.30399 0.75982 0.0
C324 C 0.7485 0.44315 0.32579 0.0
C325 C 0.73801 0.46205 0.34945 0.0
C326 C 0.71201 0.45832 0.36309 0.0
C327 C 0.70726 0.41681 0.3315 0.0
C328 C 0.73243 0.4207 0.31681 0.0
C329 C 0.73904 0.39859 0.29122 0.0
H330 H 0.69694 0.28788 0.20227 0.0
C331 C 0.69579 0.39159 0.31806 0.0
C332 C 0.71405 0.38068 0.29421 0.0
H333 H 0.77267 0.33028 0.19268 0.0
H334 H 0.76054 0.35964 0.2405 0.0
H335 H 0.69939 0.2871 0.28904 0.0
H336 H 0.65873 0.33813 0.21421 0.0
H337 H 0.63597 0.33021 0.24781 0.0
H338 H 0.64935 0.30351 0.22122 0.0
H339 H 0.67097 0.27552 0.26408 0.0
H340 H 0.66668 0.29358 0.30449 0.0
C341 C 0.76493 0.38398 0.30385 0.0
C342 C 0.74146 0.41169 0.25471 0.0
C343 C 0.60459 0.3619 0.36239 0.0
C344 C 0.58701 0.34077 0.35362 0.0
C345 C 0.59568 0.3211 0.32953 0.0
C346 C 0.6211 0.32317 0.31354 0.0
C347 C 0.63791 0.34524 0.32155 0.0
C348 C 0.62953 0.3639 0.3459 0.0
C349 C 0.64915 0.38659 0.35057 0.0
C350 C 0.67119 0.37827 0.32555 0.0
C351 C 0.66455 0.35419 0.30842 0.0
C352 C 0.65899 0.38614 0.389 0.0
C353 C 0.63498 0.41319 0.339 0.0
C354 C 0.71075 0.30356 0.21063 0.0
C355 C 0.73548 0.30732 0.19372 0.0
C356 C 0.75341 0.3274 0.20544 0.0
C357 C 0.74626 0.34444 0.23295 0.0
C358 C 0.721 0.34118 0.2489 0.0
C359 C 0.70407 0.32049 0.23842 0.0
C360 C 0.67862 0.31928 0.25955 0.0
C361 C 0.68243 0.34349 0.28317 0.0
C362 C 0.70725 0.35638 0.2766 0.0
C363 C 0.67862 0.29244 0.28031 0.0
C364 C 0.65424 0.32278 0.2346 0.0
H365 H 0.67732 0.43431 0.36647 0.0
H366 H 0.76839 0.4458 0.31471 0.0
H367 H 0.72517 0.42685 0.25058 0.0
H368 H 0.73915 0.39716 0.2332 0.0
H369 H 0.76111 0.42225 0.25183 0.0
H370 H 0.766 0.38352 0.33281 0.0
H371 H 0.78334 0.39436 0.29426 0.0
H372 H 0.76555 0.36255 0.29592 0.0
H373 H 0.59881 0.37713 0.38117 0.0
H374 H 0.58246 0.30464 0.32215 0.0
H375 H 0.6264 0.30793 0.29492 0.0
H376 H 0.66143 0.36502 0.39847 0.0
H377 H 0.64427 0.39632 0.40635 0.0
H378 H 0.67902 0.39547 0.39271 0.0
H379 H 0.61795 0.4093 0.3207 0.0
H380 H 0.64856 0.42679 0.32426 0.0
H381 H 0.62663 0.42427 0.36167 0.0
H382 H 0.70358 0.4728 0.38098 0.0
C383 C 0.69672 0.43587 0.35451 0.0
C384 C 0.17079 0.23229 0.71451 0.0
C385 C 0.19623 0.22303 0.70361 0.0
C386 C 0.2066 0.19897 0.71818 0.0
C387 C 0.16738 0.19495 0.75534 0.0
C388 C 0.15687 0.2181 0.74036 0.0
C389 C 0.13017 0.22592 0.75578 0.0
H390 H 0.02964 0.19875 0.86904 0.0
C391 C 0.14856 0.18593 0.78277 0.0
C392 C 0.12669 0.20403 0.78305 0.0
H393 H 0.03274 0.26357 0.79391 0.0
H394 H 0.0777 0.2493 0.77635 0.0
H395 H 0.0559 0.15231 0.82015 0.0
H396 H 0.0865 0.20626 0.89813 0.0
H397 H 0.10801 0.17814 0.90008 0.0
H398 H 0.07255 0.17412 0.9097 0.0
H399 H 0.04753 0.15079 0.86561 0.0
H400 H 0.07666 0.13365 0.84879 0.0
C401 C 0.10844 0.22419 0.72673 0.0
C402 C 0.1331 0.25423 0.7725 0.0
C403 C 0.17035 0.10337 0.85786 0.0
C404 C 0.1574 0.0922 0.88713 0.0
C405 C 0.13357 0.10418 0.89953 0.0
C406 C 0.12245 0.12672 0.88293 0.0
C407 C 0.13537 0.13769 0.85367 0.0
C408 C 0.15917 0.1264 0.84187 0.0
C409 C 0.17073 0.14212 0.8117 0.0
C410 C 0.14967 0.16428 0.80716 0.0
C411 C 0.12888 0.16121 0.83154 0.0
C412 C 0.17185 0.12327 0.77962 0.0
C413 C 0.1985 0.15355 0.82309 0.0
C414 C 0.04008 0.20981 0.84875 0.0
C415 C 0.02781 0.23198 0.83236 0.0
C416 C 0.04197 0.24633 0.80662 0.0
C417 C 0.0679 0.23789 0.79647 0.0
C418 C 0.07963 0.21503 0.81249 0.0
C419 C 0.06579 0.20173 0.83853 0.0
C420 C 0.08125 0.17829 0.8534 0.0
C421 C 0.10648 0.17906 0.83124 0.0
C422 C 0.10541 0.20047 0.80725 0.0
C423 C 0.06455 0.15229 0.84695 0.0
C424 C 0.08733 0.18426 0.89236 0.0
H425 H 0.20136 0.16685 0.75412 0.0
H426 H 0.16198 0.2504 0.70345 0.0
H427 H 0.15321 0.25647 0.78517 0.0
H428 H 0.11836 0.25791 0.79346 0.0
H429 H 0.13115 0.27043 0.7526 0.0
H430 H 0.11285 0.20735 0.70847 0.0
H431 H 0.10767 0.24314 0.71123 0.0
H432 H 0.0881 0.21976 0.73687 0.0
H433 H 0.18876 0.09452 0.84791 0.0
H434 H 0.12313 0.09562 0.92172 0.0
H435 H 0.10404 0.13455 0.8934 0.0
H436 H 0.15338 0.11054 0.77811 0.0
H437 H 0.18954 0.10954 0.78113 0.0
H438 H 0.1725 0.13439 0.75469 0.0
H439 H 0.19856 0.15871 0.8513 0.0
H440 H 0.2037 0.17263 0.80981 0.0
H441 H 0.21485 0.13861 0.81869 0.0
H442 H 0.22623 0.19146 0.71053 0.0
C443 C 0.19227 0.18485 0.74383 0.0
C444 C 0.26329 0.68132 0.21503 0.0
C445 C 0.27706 0.70263 0.19862 0.0
C446 C 0.30187 0.71158 0.21211 0.0
C447 C 0.3003 0.67675 0.25614 0.0
C448 C 0.27546 0.6684 0.24359 0.0
C449 C 0.265 0.64403 0.26297 0.0
H450 H 0.29361 0.54205 0.37522 0.0
C451 C 0.30897 0.65771 0.2833 0.0
C452 C 0.28865 0.6381 0.28714 0.0
H453 H 0.21553 0.55994 0.33034 0.0
H454 H 0.23508 0.59831 0.29922 0.0
H455 H 0.33238 0.55979 0.30698 0.0
H456 H 0.30283 0.59311 0.40211 0.0
H457 H 0.33144 0.61269 0.39375 0.0
H458 H 0.33498 0.57678 0.40065 0.0
H459 H 0.34207 0.54941 0.35011 0.0
H460 H 0.35943 0.57641 0.32796 0.0
C461 C 0.26012 0.62091 0.23668 0.0
C462 C 0.23944 0.65238 0.28336 0.0
C463 C 0.39811 0.67201 0.34714 0.0
C464 C 0.41155 0.65632 0.37234 0.0
C465 C 0.40188 0.63033 0.38031 0.0
C466 C 0.37845 0.62045 0.36466 0.0
C467 C 0.36412 0.63693 0.34133 0.0
C468 C 0.37428 0.66192 0.33209 0.0
C469 C 0.35673 0.67575 0.30536 0.0
C470 C 0.33347 0.65573 0.30237 0.0
C471 C 0.33799 0.63323 0.32361 0.0
C472 C 0.37298 0.67828 0.27095 0.0
C473 C 0.34724 0.70306 0.32055 0.0
C474 C 0.28047 0.55419 0.35887 0.0
C475 C 0.25285 0.54846 0.35603 0.0
C476 C 0.23682 0.56428 0.33343 0.0
C477 C 0.24817 0.58652 0.31561 0.0
C478 C 0.2757 0.59279 0.32061 0.0
C479 C 0.29117 0.57661 0.34212 0.0
C480 C 0.31894 0.58746 0.34837 0.0
C481 C 0.31781 0.61319 0.32727 0.0
C482 C 0.2929 0.61588 0.30997 0.0
C483 C 0.33946 0.56723 0.3328 0.0
C484 C 0.32246 0.5927 0.38814 0.0
H485 H 0.33243 0.70654 0.24998 0.0
H486 H 0.2441 0.67425 0.20498 0.0
H487 H 0.24036 0.67398 0.29123 0.0
H488 H 0.23725 0.64109 0.30806 0.0
H489 H 0.22095 0.64962 0.26732 0.0
H490 H 0.27803 0.61827 0.21963 0.0
H491 H 0.24243 0.62537 0.21975 0.0
H492 H 0.25661 0.60128 0.24945 0.0
H493 H 0.40564 0.69178 0.33997 0.0
H494 H 0.41255 0.61762 0.39879 0.0
H495 H 0.37226 0.60047 0.3717 0.0
H496 H 0.391 0.66487 0.27071 0.0
H497 H 0.38032 0.69924 0.26686 0.0
H498 H 0.36098 0.672 0.24792 0.0
H499 H 0.34017 0.7004 0.34783 0.0
H500 H 0.33007 0.71187 0.30608 0.0
H501 H 0.36399 0.71797 0.3208 0.0
H502 H 0.31245 0.72825 0.19994 0.0
C503 C 0.31347 0.69887 0.24095 0.0
C504 C 0.83328 0.90196 0.84804 0.0
C505 C 0.85011 0.91618 0.8712 0.0
C506 C 0.8753 0.90511 0.88055 0.0
C507 C 0.86641 0.86584 0.84488 0.0
C508 C 0.84199 0.87698 0.83492 0.0
C509 C 0.82744 0.8596 0.80874 0.0
H510 H 0.82473 0.74692 0.70913 0.0
C511 C 0.86917 0.83941 0.82752 0.0
C512 C 0.84658 0.83565 0.80611 0.0
H513 H 0.77063 0.81532 0.70675 0.0
H514 H 0.79441 0.83552 0.75503 0.0
H515 H 0.87988 0.78148 0.71884 0.0
H516 H 0.82878 0.74287 0.79512 0.0
H517 H 0.86259 0.73848 0.80796 0.0
H518 H 0.85089 0.72376 0.76762 0.0
H519 H 0.87517 0.74553 0.72095 0.0
H520 H 0.89967 0.76214 0.74799 0.0
C521 C 0.82531 0.87554 0.77393 0.0
C522 C 0.79994 0.85124 0.82443 0.0
C523 C 0.94913 0.78063 0.85732 0.0
C524 C 0.95637 0.75408 0.84928 0.0
C525 C 0.94011 0.73887 0.8265 0.0
C526 C 0.91655 0.75034 0.81201 0.0
C527 C 0.90948 0.77714 0.82059 0.0
C528 C 0.92577 0.79163 0.84308 0.0
C529 C 0.91492 0.81912 0.8512 0.0
C530 C 0.88905 0.81891 0.83025 0.0
C531 C 0.88613 0.7946 0.81171 0.0
C532 C 0.93518 0.8403 0.83704 0.0
C533 C 0.90978 0.82076 0.89105 0.0
C534 C 0.81802 0.76614 0.71937 0.0
C535 C 0.79603 0.77979 0.7042 0.0
C536 C 0.78777 0.80475 0.7179 0.0
C537 C 0.80163 0.81644 0.74582 0.0
C538 C 0.82424 0.80322 0.75986 0.0
C539 C 0.83203 0.77836 0.74695 0.0
C540 C 0.85711 0.76783 0.76469 0.0
C541 C 0.86363 0.79106 0.78915 0.0
C542 C 0.84408 0.81154 0.78638 0.0
C543 C 0.87922 0.76384 0.73681 0.0
C544 C 0.8497 0.74176 0.78479 0.0
H545 H 0.90281 0.87271 0.87601 0.0
H546 H 0.81403 0.91027 0.83996 0.0
H547 H 0.80242 0.84508 0.85215 0.0
H548 H 0.79081 0.83369 0.81116 0.0
H549 H 0.7854 0.8683 0.82354 0.0
H550 H 0.84054 0.89201 0.77239 0.0
H551 H 0.80511 0.88498 0.7708 0.0
H552 H 0.8295 0.86274 0.75096 0.0
H553 H 0.96131 0.79256 0.87506 0.0
H554 H 0.94555 0.71828 0.82015 0.0
H555 H 0.90469 0.73795 0.79488 0.0
H556 H 0.9438 0.83364 0.81173 0.0
H557 H 0.95225 0.84329 0.85547 0.0
H558 H 0.92573 0.86003 0.83142 0.0
H559 H 0.90534 0.8005 0.90225 0.0
H560 H 0.8919 0.83302 0.89766 0.0
H561 H 0.92767 0.8289 0.90504 0.0
H562 H 0.88853 0.91572 0.89842 0.0
C563 C 0.8835 0.88006 0.86761 0.0
C564 C 0.18355 0.8964 0.08568 0.0
C565 C 0.1994 0.87323 0.0828 0.0
C566 C 0.19526 0.92138 0.09354 0.0
C567 C 0.22371 0.92337 0.09714 0.0
C568 C 0.23994 0.90008 0.09269 0.0
C569 C 0.22746 0.87501 0.08647 0.0
C570 C 0.17705 0.94557 0.0984 0.0
C571 C 0.27033 0.90155 0.09447 0.0
C572 C 0.23909 0.99702 0.08789 0.0
C573 C 0.23673 0.00523 0.12266 0.0
C574 C 0.23883 0.96955 0.07917 0.0
C575 C 0.2357 0.95007 0.10584 0.0
C576 C 0.23743 0.95817 0.14116 0.0
C577 C 0.23799 0.98581 0.1492 0.0
C578 C 0.23817 0.9618 0.04124 0.0
C579 C 0.2349 0.93802 0.17047 0.0
H580 H 0.16182 0.89479 0.08279 0.0
H581 H 0.2396 0.85694 0.08383 0.0
H582 H 0.18083 0.95493 0.12422 0.0
H583 H 0.18144 0.961 0.07822 0.0
H584 H 0.15533 0.94018 0.0966 0.0
H585 H 0.27992 0.88318 0.08348 0.0
H586 H 0.27788 0.9195 0.08014 0.0
H587 H 0.27684 0.90356 0.12201 0.0
H588 H 0.2386 0.01207 0.06733 0.0
H589 H 0.23637 0.99212 0.17616 0.0
H590 H 0.21684 0.96052 0.0326 0.0
H591 H 0.24771 0.94183 0.03685 0.0
H592 H 0.2485 0.97716 0.02492 0.0
H593 H 0.2134 0.93212 0.17325 0.0
H594 H 0.24193 0.94658 0.19566 0.0
H595 H 0.24662 0.91948 0.16489 0.0
C596 C 0.61545 0.72006 0.57179 0.0
C597 C 0.62201 0.69562 0.58812 0.0
C598 C 0.59029 0.73232 0.57749 0.0
C599 C 0.57118 0.71918 0.59897 0.0
C600 C 0.57797 0.69444 0.61552 0.0
C601 C 0.60351 0.68317 0.61022 0.0
C602 C 0.584 0.75898 0.56017 0.0
C603 C 0.55784 0.67923 0.63762 0.0
C604 C 0.50828 0.74469 0.64224 0.0
C605 C 0.48859 0.7324 0.62125 0.0
C606 C 0.53562 0.74381 0.63279 0.0
C607 C 0.54324 0.72963 0.60239 0.0
C608 C 0.52314 0.72027 0.57911 0.0
C609 C 0.49597 0.72248 0.58843 0.0
C610 C 0.55648 0.75525 0.65738 0.0
C611 C 0.53022 0.70456 0.54676 0.0
H612 H 0.62984 0.72937 0.55429 0.0
H613 H 0.60865 0.66396 0.62216 0.0
H614 H 0.5664 0.75683 0.54246 0.0
H615 H 0.57847 0.77412 0.58018 0.0
H616 H 0.60134 0.76683 0.54492 0.0
H617 H 0.56627 0.66011 0.64822 0.0
H618 H 0.55123 0.69196 0.65974 0.0
H619 H 0.53965 0.67433 0.62189 0.0
H620 H 0.50276 0.7528 0.66743 0.0
H621 H 0.48065 0.71392 0.57148 0.0
H622 H 0.5735 0.76435 0.64276 0.0
H623 H 0.56477 0.73876 0.67384 0.0
H624 H 0.54763 0.77078 0.6748 0.0
H625 H 0.51258 0.70226 0.52914 0.0
H626 H 0.53727 0.68409 0.55432 0.0
H627 H 0.54682 0.71446 0.53233 0.0
C628 C 0.7629 0.12148 0.07641 0.0
C629 C 0.79104 0.1238 0.07629 0.0
C630 C 0.75057 0.09602 0.07961 0.0
C631 C 0.7669 0.07288 0.08492 0.0
C632 C 0.79541 0.07525 0.08357 0.0
C633 C 0.80708 0.10068 0.0785 0.0
C634 C 0.7202 0.0941 0.07834 0.0
C635 C 0.8137 0.05123 0.08956 0.0
C636 C 0.74785 0.01484 0.14331 0.0
C637 C 0.74883 0.99336 0.11973 0.0
C638 C 0.75107 0.04153 0.13181 0.0
C639 C 0.75487 0.04671 0.09581 0.0
C640 C 0.75226 0.02537 0.07154 0.0
C641 C 0.74953 -0.00118 0.08385 0.0
C642 C 0.75371 0.06365 0.15863 0.0
C643 C 0.75489 0.03015 0.03284 0.0
H644 H 0.75061 0.13951 0.07409 0.0
H645 H 0.82888 0.10272 0.07822 0.0
H646 H 0.71361 0.07528 0.06513 0.0
H647 H 0.71212 0.09375 0.10524 0.0
H648 H 0.7112 0.11168 0.06455 0.0
H649 H 0.83541 0.05669 0.08804 0.0
H650 H 0.80973 0.04235 0.11562 0.0
H651 H 0.80957 0.03536 0.06992 0.0
H652 H 0.74737 0.01064 0.17104 0.0
H653 H 0.74994 0.98216 0.06555 0.0
H654 H 0.74124 0.08134 0.15124 0.0
H655 H 0.77504 0.07046 0.15991 0.0
H656 H 0.74754 0.0568 0.185 0.0
H657 H 0.74558 0.04966 0.02515 0.0
H658 H 0.74533 0.01362 0.01762 0.0
H659 H 0.77655 0.03091 0.02569 0.0
C660 C 0.42219 0.28126 0.52542 0.0
C661 C 0.39465 0.284 0.53247 0.0
C662 C 0.43941 0.26809 0.54889 0.0
C663 C 0.42865 0.25711 0.58005 0.0
C664 C 0.40024 0.25616 0.58445 0.0
C665 C 0.38345 0.2699 0.5606 0.0
C666 C 0.46947 0.26954 0.54263 0.0
C667 C 0.38769 0.2434 0.61617 0.0
C668 C 0.4878 0.23168 0.6332 0.0
C669 C 0.49506 0.25562 0.65026 0.0
C670 C 0.46374 0.23031 0.61354 0.0
C671 C 0.44729 0.25362 0.61034 0.0
C672 C 0.453 0.27652 0.63122 0.0
C673 C 0.47668 0.27708 0.65116 0.0
C674 C 0.45734 0.20483 0.59378 0.0
C675 C 0.43598 0.30182 0.62929 0.0
H676 H 0.43074 0.29213 0.50349 0.0
H677 H 0.3621 0.27203 0.56613 0.0
H678 H 0.47879 0.28382 0.56144 0.0
H679 H 0.47892 0.24951 0.54675 0.0
H680 H 0.47431 0.27653 0.51584 0.0
H681 H 0.36751 0.23493 0.60975 0.0
H682 H 0.40061 0.22713 0.62711 0.0
H683 H 0.38476 0.259 0.63652 0.0
H684 H 0.50181 0.21487 0.63291 0.0
H685 H 0.48209 0.29537 0.66505 0.0
H686 H 0.4667 0.2058 0.5676 0.0
H687 H 0.43524 0.20223 0.59032 0.0
H688 H 0.46564 0.18683 0.60744 0.0
H689 H 0.43797 0.31112 0.60308 0.0
H690 H 0.44207 0.31702 0.64908 0.0
H691 H 0.4144 0.29689 0.63324 0.0
C692 C 0.69172 0.54707 0.47003 0.0
C693 C 0.69842 0.57413 0.47456 0.0
C694 C 0.71009 0.52927 0.4548 0.0
C695 C 0.73551 0.5392 0.44341 0.0
C696 C 0.74385 0.56535 0.45364 0.0
C697 C 0.72501 0.5827 0.4692 0.0
C698 C 0.69999 0.50143 0.44588 0.0
C699 C 0.77119 0.57639 0.44408 0.0
C700 C 0.76705 0.48248 0.39393 0.0
C701 C 0.75301 0.48563 0.36242 0.0
C702 C 0.76533 0.50235 0.41993 0.0
C703 C 0.74899 0.5253 0.41387 0.0
C704 C 0.73967 0.53082 0.3796 0.0
C705 C 0.74235 0.51096 0.35391 0.0
C706 C 0.77713 0.4966 0.45539 0.0
C707 C 0.7229 0.55553 0.37142 0.0
H708 H 0.67111 0.54057 0.47461 0.0
H709 H 0.73014 0.60378 0.47305 0.0
H710 H 0.68816 0.50274 0.42135 0.0
H711 H 0.7165 0.48661 0.44263 0.0
H712 H 0.68613 0.49384 0.46632 0.0
H713 H 0.77841 0.59079 0.46423 0.0
H714 H 0.78634 0.56009 0.44094 0.0
H715 H 0.76961 0.58761 0.41912 0.0
H716 H 0.77569 0.46296 0.40034 0.0
H717 H 0.73182 0.51343 0.32927 0.0
H718 H 0.7618 0.4862 0.47161 0.0
H719 H 0.78299 0.51555 0.46884 0.0
H720 H 0.79504 0.48321 0.45344 0.0
H721 H 0.7027 0.55342 0.38357 0.0
H722 H 0.72005 0.5584 0.34292 0.0
H723 H 0.73248 0.57392 0.38225 0.0
C724 C 0.89123 0.22016 0.9334 0.0
C725 C 0.90332 0.2023 0.95714 0.0
C726 C 0.90726 0.23613 0.91131 0.0
C727 C 0.93573 0.23378 0.91317 0.0
C728 C 0.94765 0.21883 0.94078 0.0
C729 C 0.93123 0.20319 0.96238 0.0
C730 C 0.8936 0.25314 0.88384 0.0
C731 C 0.97792 0.21636 0.94477 0.0
C732 C 0.98015 0.21873 0.83772 0.0
C733 C -0.00013 0.23862 0.84213 0.0
C734 C 0.95661 0.21901 0.85765 0.0
C735 C 0.95279 0.23989 0.88238 0.0
C736 C 0.9705 0.26233 0.88257 0.0
C737 C 0.99429 0.26127 0.86269 0.0
C738 C 0.93794 0.19492 0.8557 0.0
C739 C 0.96598 0.28602 0.90644 0.0
H740 H 0.86951 0.21988 0.92981 0.0
H741 H 0.94042 0.1899 0.98154 0.0
H742 H 0.90692 0.26956 0.8743 0.0
H743 H 0.88788 0.24019 0.86144 0.0
H744 H 0.87474 0.26214 0.89423 0.0
H745 H 0.98374 0.20597 0.96935 0.0
H746 H 0.98626 0.2047 0.92259 0.0
H747 H 0.98747 0.23659 0.94453 0.0
H748 H 0.98449 0.20144 0.82133 0.0
H749 H 0.00946 0.27687 0.86569 0.0
H750 H 0.91664 0.2016 0.85389 0.0
H751 H 0.9401 0.18258 0.87973 0.0
H752 H 0.94238 0.18184 0.83294 0.0
H753 H 0.94422 0.28887 0.91217 0.0
H754 H 0.97412 0.30485 0.89474 0.0
H755 H 0.97679 0.28255 0.93141 0.0
C756 C 0.29296 0.41755 0.39839 0.0
C757 C 0.28643 0.40089 0.42651 0.0
C758 C 0.27839 0.44108 0.39159 0.0
C759 C 0.25579 0.44756 0.4126 0.0
C760 C 0.24822 0.43003 0.44013 0.0
C761 C 0.26408 0.40705 0.44727 0.0
C762 C 0.28811 0.45951 0.36273 0.0
C763 C 0.22318 0.435 0.46143 0.0
C764 C 0.25221 0.52228 0.41117 0.0
C765 C 0.24211 0.5258 0.37723 0.0
C766 C 0.25371 0.49657 0.42611 0.0
C767 C 0.2429 0.47437 0.4076 0.0
C768 C 0.22688 0.47911 0.37753 0.0
C769 C 0.22735 0.50481 0.36184 0.0
C770 C 0.27098 0.49274 0.4583 0.0
C771 C 0.21241 0.45629 0.35949 0.0
H772 H 0.31034 0.41272 0.38247 0.0
H773 H 0.25882 0.39375 0.46866 0.0
H774 H 0.27277 0.46056 0.3417 0.0
H775 H 0.29126 0.48028 0.37277 0.0
H776 H 0.30735 0.45247 0.35105 0.0
H777 H 0.22381 0.42388 0.48659 0.0
H778 H 0.22003 0.45676 0.46673 0.0
H779 H 0.20539 0.42782 0.44643 0.0
H780 H 0.2624 0.53898 0.42392 0.0
H781 H 0.21854 0.5076 0.3362 0.0
H782 H 0.29039 0.48314 0.45092 0.0
H783 H 0.26093 0.47927 0.47732 0.0
H784 H 0.27557 0.51223 0.4713 0.0
H785 H 0.22644 0.44599 0.3414 0.0
H786 H 0.19499 0.4639 0.34405 0.0
H787 H 0.20516 0.44117 0.37871 0.0
C788 C 0.08352 0.77898 0.96362 0.0
C789 C 0.07648 0.80632 0.9657 0.0
C790 C 0.0654 0.7601 0.94939 0.0
C791 C 0.03981 0.76901 0.93753 0.0
C792 C 0.0316 0.796 0.94404 0.0
C793 C 0.05027 0.81443 0.9575 0.0
C794 C 0.07487 0.7315 0.94381 0.0
C795 C 0.00422 0.8064 0.93294 0.0
C796 C 0.00572 0.75279 0.85344 0.0
C797 C 0.98094 0.74354 0.86603 0.0
C798 C 0.02728 0.75749 0.87637 0.0
C799 C 0.02367 0.75271 0.91249 0.0
C800 C 0.00048 0.73869 0.92401 0.0
C801 C 0.97912 0.73442 0.90051 0.0
C802 C 0.0521 0.77159 0.86269 0.0
C803 C 0.99648 0.73191 0.96193 0.0
H804 H 0.10399 0.77284 0.96983 0.0
H805 H 0.04504 0.83566 0.95911 0.0
H806 H 0.05781 0.717 0.94341 0.0
H807 H 0.08544 0.73022 0.91843 0.0
H808 H 0.08941 0.72537 0.96446 0.0
H809 H -0.00045 0.82626 0.94492 0.0
H810 H 0.00385 0.80886 0.90419 0.0
H811 H 0.98808 0.79196 0.94016 0.0
H812 H 0.00703 0.75986 0.82673 0.0
H813 H 0.95987 0.72724 0.91019 0.0
H814 H 0.07061 0.76311 0.87478 0.0
H815 H 0.05113 0.79335 0.86947 0.0
H816 H 0.05375 0.76983 0.83392 0.0
H817 H 0.0159 0.72659 0.97469 0.0
H818 H 0.98211 0.71486 0.9651 0.0
H819 H 0.98804 0.74974 0.97556 0.0
C820 C 0.81711 0.06193 0.95237 0.0
C821 C 0.83308 0.06295 0.98256 0.0
C822 C 0.81403 0.03768 0.93383 0.0
C823 C 0.8266 0.01391 0.94648 0.0
C824 C 0.83993 0.01435 0.97923 0.0
C825 C 0.8435 0.03903 0.99655 0.0
C826 C 0.79996 0.03831 0.8989 0.0
C827 C 0.85271 0.98925 0.99433 0.0
C828 C 0.8175 0.94487 0.90448 0.0
C829 C 0.84181 0.94242 0.88617 0.0
C830 C 0.81153 0.96853 0.92321 0.0
C831 C 0.83023 0.99017 0.9232 0.0
C832 C 0.85396 0.98832 0.90282 0.0
C833 C 0.85953 0.9644 0.88479 0.0
C834 C 0.78603 0.96976 0.94451 0.0
C835 C 0.87416 0.01114 0.90131 0.0
H836 H 0.80932 0.08054 0.94131 0.0
H837 H 0.85581 0.03989 0.01994 0.0
H838 H 0.81533 0.03906 0.87796 0.0
H839 H 0.78767 0.01986 0.89481 0.0
H840 H 0.78672 0.05631 0.89616 0.0
H841 H 0.85813 0.99186 0.02223 0.0
H842 H 0.83888 0.97173 0.99185 0.0
H843 H 0.87136 0.98444 0.97966 0.0
H844 H 0.80383 0.92781 0.90559 0.0
H845 H 0.87816 0.96259 0.87024 0.0
H846 H 0.77552 0.98929 0.94047 0.0
H847 H 0.79124 0.96833 0.97259 0.0
H848 H 0.77192 0.95306 0.93797 0.0
H849 H 0.86388 0.03039 0.89472 0.0
H850 H 0.89025 0.00745 0.8818 0.0
H851 H 0.88381 0.0137 0.92723 0.0
C852 C 0.42991 0.33932 0.38522 0.0
C853 C 0.42156 0.34294 0.41979 0.0
C854 C 0.45729 0.33848 0.37658 0.0
C855 C 0.47692 0.3413 0.40316 0.0
C856 C 0.46873 0.34511 0.43814 0.0
C857 C 0.44107 0.34596 0.44607 0.0
C858 C 0.46519 0.33459 0.33892 0.0
C859 C 0.48918 0.3482 0.46711 0.0
C860 C 0.54692 0.31656 0.37886 0.0
C861 C 0.55921 0.34062 0.36795 0.0
C862 C 0.52041 0.31657 0.39174 0.0
C863 C 0.50595 0.34121 0.39369 0.0
C864 C 0.51847 0.36558 0.38341 0.0
C865 C 0.54482 0.36496 0.37045 0.0
C866 C 0.5076 0.29017 0.40238 0.0
C867 C 0.50372 0.39226 0.38495 0.0
H868 H 0.41498 0.33704 0.36473 0.0
H869 H 0.43475 0.34856 0.47286 0.0
H870 H 0.4772 0.35212 0.32982 0.0
H871 H 0.47809 0.31639 0.33633 0.0
H872 H 0.4474 0.33228 0.32149 0.0
H873 H 0.4795 0.35102 0.49292 0.0
H874 H 0.5023 0.33008 0.46833 0.0
H875 H 0.50241 0.3658 0.4618 0.0
H876 H 0.55803 0.29775 0.37734 0.0
H877 H 0.55394 0.38359 0.36144 0.0
H878 H 0.49029 0.28566 0.38492 0.0
H879 H 0.49957 0.29167 0.42926 0.0
H880 H 0.52204 0.27304 0.40125 0.0
H881 H 0.4867 0.39216 0.36609 0.0
H882 H 0.51708 0.40962 0.37876 0.0
H883 H 0.49504 0.39535 0.41125 0.0
C884 C 0.13203 0.95908 0.97833 0.0
C885 C 0.15216 0.9395 0.98227 0.0
C886 C 0.13827 0.98518 0.96676 0.0
C887 C 0.16534 0.99173 0.95846 0.0
C888 C 0.18606 0.97265 0.96494 0.0
C889 C 0.17922 0.94671 0.97715 0.0
C890 C 0.11551 0.00489 0.96035 0.0
C891 C 0.21509 0.97896 0.95642 0.0
C892 C 0.16653 0.04285 0.88515 0.0
C893 C 0.167 0.06705 0.90388 0.0
C894 C 0.16827 0.01791 0.90247 0.0
C895 C 0.17095 0.01731 0.9393 0.0
C896 C 0.17433 0.04179 0.95778 0.0
C897 C 0.17192 0.06643 0.93988 0.0
C898 C 0.16451 0.99232 0.88165 0.0
C899 C 0.17812 0.04205 0.99682 0.0
H900 H 0.11109 0.95334 0.98187 0.0
H901 H 0.19474 0.93138 0.97958 0.0
H902 H 0.12014 0.02467 0.97249 0.0
H903 H 0.11314 0.00832 0.93191 0.0
H904 H 0.09599 0.99748 0.97082 0.0
H905 H 0.22886 0.96207 0.96333 0.0
H906 H 0.21716 0.9832 0.92817 0.0
H907 H 0.2216 0.99738 0.97054 0.0
H908 H 0.16257 0.04338 0.85735 0.0
H909 H 0.17241 0.08524 0.95429 0.0
H910 H 0.14401 0.98412 0.88648 0.0
H911 H 0.17927 0.97669 0.88982 0.0
H912 H 0.16672 0.9959 0.85322 0.0
H913 H 0.15845 0.03819 0.00962 0.0
H914 H 0.18591 0.06181 0.00613 0.0
H915 H 0.19224 0.02589 0.00522 0.0
C916 C 0.54532 0.62834 0.45554 0.0
C917 C 0.5633 0.64816 0.46727 0.0
C918 C 0.51965 0.63523 0.44315 0.0
C919 C 0.51175 0.66271 0.44236 0.0
C920 C 0.52925 0.68275 0.45592 0.0
C921 C 0.5549 0.67518 0.46851 0.0
C922 C 0.50169 0.61318 0.42876 0.0
C923 C 0.5216 0.71224 0.45491 0.0
C924 C 0.4595 0.67139 0.37159 0.0
C925 C 0.43599 0.66605 0.3904 0.0
C926 C 0.48449 0.67333 0.38875 0.0
C927 C 0.48569 0.66994 0.42546 0.0
C928 C 0.46151 0.66774 0.44472 0.0
C929 C 0.4369 0.66559 0.42688 0.0
C930 C 0.50972 0.67583 0.36708 0.0
C931 C 0.46181 0.66479 0.48386 0.0
H932 H 0.55197 0.6075 0.45426 0.0
H933 H 0.56906 0.69059 0.47685 0.0
H934 H 0.48168 0.6137 0.44158 0.0
H935 H 0.49835 0.6165 0.40046 0.0
H936 H 0.51051 0.59275 0.43245 0.0
H937 H 0.53632 0.72508 0.46916 0.0
H938 H 0.52063 0.71927 0.42748 0.0
H939 H 0.50125 0.71523 0.46625 0.0
H940 H 0.45869 0.67177 0.34335 0.0
H941 H 0.41852 0.66178 0.44134 0.0
H942 H 0.51822 0.65539 0.36265 0.0
H943 H 0.52534 0.68805 0.38051 0.0
H944 H 0.50537 0.68509 0.34128 0.0
H945 H 0.46878 0.64419 0.49091 0.0
H946 H 0.44147 0.66791 0.49525 0.0
H947 H 0.47605 0.6794 0.49576 0.0
C948 C 0.34547 0.45336 0.50872 0.0
C949 C 0.33171 0.42949 0.51656 0.0
C950 C 0.3402 0.47717 0.52722 0.0
C951 C 0.32155 0.47665 0.55513 0.0
C952 C 0.30577 0.45324 0.56084 0.0
C953 C 0.31081 0.42992 0.54107 0.0
C954 C 0.35653 0.50212 0.51913 0.0
C955 C 0.28564 0.45183 0.59018 0.0
C956 C 0.34838 0.52015 0.62813 0.0
C957 C 0.33395 0.54411 0.62307 0.0
C958 C 0.34285 0.49722 0.608 0.0
C959 C 0.32268 0.4985 0.58174 0.0
C960 C 0.30657 0.52201 0.57851 0.0
C961 C 0.3124 0.54463 0.59936 0.0
C962 C 0.36016 0.47239 0.61297 0.0
C963 C 0.28486 0.52436 0.55105 0.0
H964 H 0.36151 0.45299 0.48957 0.0
H965 H 0.30026 0.41134 0.54724 0.0
H966 H 0.34344 0.52029 0.51903 0.0
H967 H 0.37215 0.50497 0.5396 0.0
H968 H 0.36678 0.50061 0.4935 0.0
H969 H 0.27145 0.43464 0.58692 0.0
H970 H 0.29662 0.44913 0.6152 0.0
H971 H 0.27389 0.47084 0.592 0.0
H972 H 0.36506 0.51987 0.6465 0.0
H973 H 0.30143 0.56332 0.59527 0.0
H974 H 0.37402 0.47025 0.5905 0.0
H975 H 0.34742 0.45398 0.61402 0.0
H976 H 0.37248 0.47344 0.63717 0.0
H977 H 0.29414 0.53152 0.52645 0.0
H978 H 0.26921 0.53924 0.55876 0.0
H979 H 0.275 0.50467 0.54583 0.0
C980 C 0.05881 0.8388 0.0473 0.0
C981 C 0.07716 0.82546 0.06926 0.0
C982 C 0.03134 0.84042 0.05586 0.0
C983 C 0.02212 0.82894 0.08747 0.0
C984 C 0.0404 0.81511 0.10949 0.0
C985 C 0.06762 0.8134 0.10004 0.0
C986 C 0.01225 0.8549 0.03142 0.0
C987 C 0.03142 0.80293 0.14366 0.0
C988 C 0.96057 0.86207 0.12683 0.0
C989 C 0.94019 0.84373 0.11812 0.0
C990 C 0.98744 0.85708 0.11777 0.0
C991 C 0.99389 0.83341 0.0989 0.0
C992 C 0.97337 0.81454 0.09058 0.0
C993 C 0.94665 0.81984 0.10061 0.0
C994 C 0.00883 0.8774 0.1278 0.0
C995 C 0.97952 0.78921 0.07026 0.0
H996 H 0.06589 0.84838 0.02368 0.0
H997 H 0.08153 0.80299 0.11728 0.0
H998 H 0.99586 0.841 0.02322 0.0
H999 H 0.00267 0.87217 0.04499 0.0
H1000 H 0.02257 0.86263 0.00778 0.0
H1001 H 0.04774 0.79123 0.15664 0.0
H1002 H 0.02484 0.81922 0.16154 0.0
H1003 H 0.01386 0.78941 0.1395 0.0
H1004 H 0.95536 0.88047 0.14054 0.0
H1005 H 0.93068 0.80581 0.09382 0.0
H1006 H 0.01794 0.88621 0.10398 0.0
H1007 H 0.02526 0.86731 0.14261 0.0
H1008 H 0.00061 0.89408 0.14391 0.0
H1009 H 0.98663 0.79471 0.04379 0.0
H1010 H 0.9616 0.77587 0.06766 0.0
H1011 H 0.996 0.77769 0.08308 0.0
C1012 C 0.693 0.55837 0.58458 0.0
C1013 C 0.67168 0.57163 0.56759 0.0
C1014 C 0.69138 0.53084 0.59285 0.0
C1015 C 0.66754 0.5164 0.58478 0.0
C1016 C 0.64624 0.5295 0.56667 0.0
C1017 C 0.64874 0.55695 0.5578 0.0
C1018 C 0.71489 0.51742 0.61106 0.0
C1019 C 0.62034 0.51488 0.55811 0.0
C1020 C 0.66675 0.43961 0.58687 0.0
C1021 C 0.65648 0.43461 0.6202 0.0
C1022 C 0.6712 0.46615 0.57527 0.0
C1023 C 0.66433 0.48808 0.59716 0.0
C1024 C 0.6542 0.483 0.63104 0.0
C1025 C 0.6507 0.45626 0.6423 0.0
C1026 C 0.6826 0.47074 0.53934 0.0
C1027 C 0.64624 0.5058 0.65498 0.0
H1028 H 0.71096 0.56962 0.59168 0.0
H1029 H 0.63227 0.56723 0.54468 0.0
H1030 H 0.70899 0.51158 0.63789 0.0
H1031 H 0.72065 0.49866 0.59717 0.0
H1032 H 0.73282 0.53084 0.61267 0.0
H1033 H 0.60608 0.52767 0.54294 0.0
H1034 H 0.62465 0.49635 0.54294 0.0
H1035 H 0.61031 0.50848 0.58258 0.0
H1036 H 0.67101 0.42273 0.5698 0.0
H1037 H 0.64237 0.45223 0.66788 0.0
H1038 H 0.69979 0.48509 0.54046 0.0
H1039 H 0.6669 0.4799 0.52241 0.0
H1040 H 0.68955 0.45167 0.52708 0.0
H1041 H 0.6638 0.51918 0.65986 0.0
H1042 H 0.63857 0.4984 0.68043 0.0
H1043 H 0.63032 0.51825 0.64241 0.0
C1044 C 0.92157 0.173 0.11399 0.0
C1045 C 0.91453 0.16261 0.08115 0.0
C1046 C 0.94836 0.17297 0.12572 0.0
C1047 C 0.96878 0.1623 0.10413 0.0
C1048 C 0.96196 0.15181 0.07091 0.0
C1049 C 0.93486 0.15197 0.05985 0.0
C1050 C 0.95475 0.18421 0.16139 0.0
C1051 C 0.98329 0.14044 0.04709 0.0
C1052 C 0.04113 0.18207 0.12591 0.0
C1053 C 0.0501 0.15909 0.14381 0.0
C1054 C 0.01481 0.18324 0.11217 0.0
C1055 C 0.99706 0.16112 0.11717 0.0
C1056 C 0.006 0.13811 0.13584 0.0
C1057 C 0.0325 0.13729 0.14866 0.0
C1058 C 0.00607 0.20797 0.09204 0.0
C1059 C 0.98755 0.11436 0.14235 0.0
H1060 H 0.90608 0.18127 0.13075 0.0
H1061 H 0.9297 0.1441 0.03436 0.0
H1062 H 0.96374 0.16819 0.17801 0.0
H1063 H 0.96987 0.20065 0.15923 0.0
H1064 H 0.93658 0.19229 0.17466 0.0
H1065 H 0.97485 0.13409 0.02153 0.0
H1066 H -0.00075 0.15574 0.04251 0.0
H1067 H 0.99307 0.12275 0.0596 0.0
H1068 H 0.05493 0.19876 0.1219 0.0
H1069 H 0.03953 0.11957 0.16263 0.0
H1070 H 0.98836 0.21739 0.10476 0.0
H1071 H -0.00025 0.20213 0.06534 0.0
H1072 H 0.0224 0.22327 0.0901 0.0
H1073 H 0.96941 0.12109 0.15681 0.0
H1074 H 0.99761 0.09809 0.15754 0.0
H1075 H 0.98052 0.10585 0.1172 0.0
C1076 C 0.20333 0.75419 0.0286 0.0
C1077 C 0.20618 0.7822 0.02546 0.0
C1078 C 0.21905 0.73963 0.05236 0.0
C1079 C 0.2378 0.75363 0.07349 0.0
C1080 C 0.24315 0.78132 0.06712 0.0
C1081 C 0.22734 0.79533 0.04268 0.0
C1082 C 0.21323 0.70997 0.05765 0.0
C1083 C 0.26312 0.797 0.08888 0.0
C1084 C 0.24178 0.72841 0.16651 0.0
C1085 C 0.26653 0.71492 0.16646 0.0
C1086 C 0.23247 0.74154 0.13642 0.0
C1087 C 0.24811 0.74052 0.10556 0.0
C1088 C 0.2729 0.72644 0.10531 0.0
C1089 C 0.28198 0.714 0.13599 0.0
C1090 C 0.20601 0.75668 0.13772 0.0
C1091 C 0.28974 0.72452 0.07272 0.0
H1092 H 0.18707 0.74407 0.01482 0.0
H1093 H 0.22965 0.817 0.03997 0.0
H1094 H 0.23214 0.69845 0.06201 0.0
H1095 H 0.20044 0.70739 0.0811 0.0
H1096 H 0.20235 0.70116 0.035 0.0
H1097 H 0.27026 0.81533 0.07496 0.0
H1098 H 0.25312 0.80354 0.11329 0.0
H1099 H 0.28084 0.78449 0.09612 0.0
H1100 H 0.23007 0.72918 0.19031 0.0
H1101 H 0.30112 0.70338 0.1362 0.0
H1102 H 0.19157 0.74795 0.11867 0.0
H1103 H 0.20925 0.77811 0.13033 0.0
H1104 H 0.19668 0.75604 0.16398 0.0
H1105 H 0.27782 0.71498 0.05153 0.0
H1106 H 0.30846 0.71258 0.07687 0.0
H1107 H 0.29537 0.74504 0.06367 0.0
C1108 C 0.70031 0.72417 0.55349 0.0
C1109 C 0.71446 0.70474 0.5345 0.0
C1110 C 0.7137 0.74003 0.57839 0.0
C1111 C 0.74191 0.73693 0.58304 0.0
C1112 C 0.75663 0.71985 0.56054 0.0
C1113 C 0.74262 0.70363 0.53681 0.0
C1114 C 0.69722 0.75776 0.60214 0.0
C1115 C 0.78683 0.71661 0.56383 0.0
C1116 C 0.77989 0.7845 0.64301 0.0
C1117 C 0.78226 0.76875 0.67324 0.0
C1118 C 0.76682 0.77446 0.61329 0.0
C1119 C 0.75541 0.74831 0.61426 0.0
C1120 C 0.75758 0.7324 0.64491 0.0
C1121 C 0.77129 0.74274 0.67397 0.0
C1122 C 0.76554 0.79161 0.58077 0.0
C1123 C 0.7454 0.70447 0.64699 0.0
H1124 H 0.67855 0.72508 0.55145 0.0
H1125 H 0.7535 0.68864 0.5218 0.0
H1126 H 0.69575 0.74802 0.62814 0.0
H1127 H 0.70707 0.77766 0.60583 0.0
H1128 H 0.67644 0.76099 0.59197 0.0
H1129 H 0.79564 0.70687 0.54042 0.0
H1130 H 0.79677 0.73644 0.56783 0.0
H1131 H 0.79152 0.70379 0.58681 0.0
H1132 H 0.78868 0.80455 0.6425 0.0
H1133 H 0.77307 0.7307 0.6975 0.0
H1134 H 0.74421 0.79517 0.57321 0.0
H1135 H 0.77529 0.78083 0.55883 0.0
H1136 H 0.77566 0.81144 0.58425 0.0
H1137 H 0.72359 0.7053 0.64038 0.0
H1138 H 0.74772 0.69532 0.67328 0.0
H1139 H 0.7552 0.69101 0.62773 0.0
C1140 C 0.80809 0.25016 0.03171 0.0
C1141 C 0.80302 0.22292 0.02507 0.0
C1142 C 0.79139 0.26481 0.05404 0.0
C1143 C 0.76975 0.25142 0.07076 0.0
C1144 C 0.76276 0.22478 0.06083 0.0
C1145 C 0.77941 0.21088 0.03747 0.0
C1146 C 0.7991 0.29344 0.06317 0.0
C1147 C 0.74004 0.20967 0.07818 0.0
C1148 C 0.76452 0.27352 0.16458 0.0
C1149 C 0.74239 0.29093 0.16319 0.0
C1150 C 0.77262 0.2593 0.13493 0.0
C1151 C 0.75858 0.26326 0.10305 0.0
C1152 C 0.7357 0.2803 0.10184 0.0
C1153 C 0.72769 0.29383 0.13218 0.0
C1154 C 0.79678 0.24076 0.13745 0.0
C1155 C 0.72057 0.28529 0.06826 0.0
H1156 H 0.82654 0.25927 0.02208 0.0
H1157 H 0.77569 0.18969 0.03228 0.0
H1158 H 0.78093 0.30636 0.06562 0.0
H1159 H 0.80976 0.29357 0.08866 0.0
H1160 H 0.81272 0.30243 0.04334 0.0
H1161 H 0.73317 0.19232 0.06211 0.0
H1162 H 0.74723 0.20168 0.1036 0.0
H1163 H 0.7226 0.2231 0.08329 0.0
H1164 H 0.77565 0.27131 0.1888 0.0
H1165 H 0.71061 0.3075 0.1314 0.0
H1166 H 0.81352 0.24885 0.1214 0.0
H1167 H 0.79157 0.22051 0.12711 0.0
H1168 H 0.80413 0.23842 0.16467 0.0
H1169 H 0.73343 0.2972 0.0503 0.0
H1170 H 0.70147 0.29653 0.07254 0.0
H1171 H 0.71586 0.26592 0.0551 0.0
C1172 C 0.2765 0.30917 0.55942 0.0
C1173 C 0.30226 0.31491 0.57245 0.0
C1174 C 0.25773 0.295 0.57964 0.0
C1175 C 0.26544 0.28552 0.61304 0.0
C1176 C 0.29171 0.29099 0.62601 0.0
C1177 C 0.30972 0.30611 0.6057 0.0
C1178 C 0.22967 0.29036 0.56537 0.0
C1179 C 0.30095 0.28041 0.66098 0.0
C1180 C 0.21341 0.26737 0.68133 0.0
C1181 C 0.21251 0.23912 0.6786 0.0
C1182 C 0.2299 0.28281 0.65937 0.0
C1183 C 0.24619 0.26966 0.63442 0.0
C1184 C 0.24492 0.24124 0.6309 0.0
C1185 C 0.22799 0.22631 0.65294 0.0
C1186 C 0.23039 0.31314 0.66346 0.0
C1187 C 0.26199 0.22654 0.60448 0.0
H1188 H 0.27097 0.3161 0.53353 0.0
H1189 H 0.3299 0.31031 0.61528 0.0
H1190 H 0.22507 0.26845 0.56474 0.0
H1191 H 0.21463 0.29998 0.58274 0.0
H1192 H 0.22712 0.29871 0.53867 0.0
H1193 H 0.32226 0.28581 0.66678 0.0
H1194 H 0.28796 0.28863 0.68191 0.0
H1195 H 0.29898 0.25809 0.66168 0.0
H1196 H 0.2018 0.27745 0.70134 0.0
H1197 H 0.22703 0.20455 0.65026 0.0
H1198 H 0.22697 0.32309 0.6379 0.0
H1199 H 0.25052 0.31963 0.67301 0.0
H1200 H 0.21488 0.32039 0.68206 0.0
H1201 H 0.25809 0.23463 0.57797 0.0
H1202 H 0.25804 0.20446 0.60433 0.0
H1203 H 0.28368 0.22991 0.6103 0.0
C1204 C 0.69071 0.72373 0.43614 0.0
C1205 C 0.68367 0.70061 0.41706 0.0
C1206 C 0.70479 0.74507 0.42043 0.0
C1207 C 0.71206 0.74305 0.38492 0.0
C1208 C 0.70499 0.71975 0.36559 0.0
C1209 C 0.69073 0.69891 0.38185 0.0
C1210 C 0.71161 0.76979 0.44167 0.0
C1211 C 0.71271 0.7167 0.32774 0.0
C1212 C 0.7274 0.80061 0.32375 0.0
C1213 C 0.75563 0.79879 0.32113 0.0
C1214 C 0.71308 0.78432 0.34718 0.0
C1215 C 0.72716 0.76503 0.36744 0.0
C1216 C 0.75567 0.7643 0.36676 0.0
C1217 C 0.76957 0.78162 0.34418 0.0
C1218 C 0.68269 0.7864 0.3483 0.0
C1219 C 0.77142 0.74375 0.38769 0.0
H1220 H 0.685 0.72534 0.46327 0.0
H1221 H 0.68546 0.68104 0.36702 0.0
H1222 H 0.73359 0.77389 0.44069 0.0
H1223 H 0.70123 0.78767 0.43045 0.0
H1224 H 0.70554 0.76763 0.46939 0.0
H1225 H 0.70636 0.69694 0.31677 0.0
H1226 H 0.70326 0.73299 0.31203 0.0
H1227 H 0.73491 0.71865 0.32485 0.0
H1228 H 0.71618 0.81364 0.30626 0.0
H1229 H 0.7914 0.78078 0.34358 0.0
H1230 H 0.67536 0.7854 0.37556 0.0
H1231 H 0.67368 0.76915 0.33397 0.0
H1232 H 0.67531 0.80543 0.33622 0.0
H1233 H 0.76442 0.74324 0.41508 0.0
H1234 H 0.79345 0.74792 0.38749 0.0
H1235 H 0.768 0.72336 0.37655 0.0
C1236 C 0.81698 0.18805 0.88406 0.0
C1237 C 0.80889 0.16901 0.9088 0.0
C1238 C 0.79771 0.20211 0.86413 0.0
C1239 C 0.76985 0.19715 0.86964 0.0
C1240 C 0.76176 0.17748 0.89431 0.0
C1241 C 0.78146 0.16365 0.91364 0.0
C1242 C 0.80714 0.22293 0.83811 0.0
C1243 C 0.73232 0.17191 0.90139 0.0
C1244 C 0.72162 0.25378 0.84505 0.0
C1245 C 0.71134 0.24456 0.81316 0.0
C1246 C 0.7402 0.23823 0.86415 0.0
C1247 C 0.74917 0.21322 0.85054 0.0
C1248 C 0.73858 0.20372 0.81851 0.0
C1249 C 0.71958 0.21941 0.80036 0.0
C1250 C 0.75048 0.24872 0.89867 0.0
C1251 C 0.74787 0.17733 0.80301 0.0
H1252 H 0.83827 0.19259 0.88121 0.0
H1253 H 0.77541 0.14936 0.9336 0.0
H1254 H 0.79807 0.21885 0.81217 0.0
H1255 H 0.80031 0.24328 0.84629 0.0
H1256 H 0.82946 0.22324 0.83554 0.0
H1257 H 0.72946 0.15529 0.9205 0.0
H1258 H 0.72255 0.19039 0.91171 0.0
H1259 H 0.72173 0.16653 0.87686 0.0
H1260 H 0.71512 0.2732 0.85497 0.0
H1261 H 0.71182 0.21246 0.77548 0.0
H1262 H 0.77251 0.2525 0.89708 0.0
H1263 H 0.74731 0.2334 0.91939 0.0
H1264 H 0.74033 0.26775 0.90651 0.0
H1265 H 0.76992 0.17814 0.79815 0.0
H1266 H 0.7374 0.17263 0.77811 0.0
H1267 H 0.74425 0.16056 0.82161 0.0
C1268 C 0.31102 0.24104 0.46416 0.0
C1269 C 0.29962 0.2667 0.4677 0.0
C1270 C 0.29655 0.22035 0.44746 0.0
C1271 C 0.2709 0.22624 0.43288 0.0
C1272 C 0.2578 0.25066 0.44181 0.0
C1273 C 0.27223 0.2704 0.46014 0.0
C1274 C 0.3104 0.19378 0.44074 0.0
C1275 C 0.23064 0.25818 0.42674 0.0
C1276 C 0.26351 0.20517 0.33845 0.0
C1277 C 0.24379 0.18514 0.34053 0.0
C1278 C 0.27243 0.2186 0.36845 0.0
C1279 C 0.26172 0.21127 0.40143 0.0
C1280 C 0.24201 0.19065 0.40363 0.0
C1281 C 0.23306 0.17794 0.37295 0.0
C1282 C 0.29318 0.2408 0.36469 0.0
C1283 C 0.23081 0.18166 0.43827 0.0
H1284 H 0.33221 0.23814 0.47026 0.0
H1285 H 0.2635 0.29037 0.46308 0.0
H1286 H 0.29561 0.17697 0.43982 0.0
H1287 H 0.32082 0.19467 0.41522 0.0
H1288 H 0.32575 0.1894 0.46115 0.0
H1289 H 0.22065 0.2741 0.44247 0.0
H1290 H 0.23354 0.26618 0.39997 0.0
H1291 H 0.21703 0.24048 0.42498 0.0
H1292 H 0.27173 0.21052 0.3132 0.0
H1293 H 0.21794 0.16215 0.37427 0.0
H1294 H 0.31207 0.23498 0.37835 0.0
H1295 H 0.28572 0.25969 0.37683 0.0
H1296 H 0.29811 0.24507 0.33701 0.0
H1297 H 0.247 0.17159 0.45354 0.0
H1298 H 0.21372 0.16734 0.4352 0.0
H1299 H 0.2239 0.19923 0.45372 0.0
C1300 C 0.21481 0.80053 0.92572 0.0
C1301 C 0.20402 0.8247 0.91268 0.0
C1302 C 0.23382 0.78581 0.9068 0.0
C1303 C 0.24223 0.79549 0.87392 0.0
C1304 C 0.23264 0.82065 0.86143 0.0
C1305 C 0.21345 0.83491 0.8809 0.0
C1306 C 0.24349 0.75903 0.92106 0.0
C1307 C 0.24165 0.83186 0.82678 0.0
C1308 C 0.30132 0.76028 0.83078 0.0
C1309 C 0.28796 0.74243 0.80814 0.0
C1310 C 0.28677 0.77807 0.85204 0.0
C1311 C 0.25825 0.77771 0.85089 0.0
C1312 C 0.24467 0.75967 0.82827 0.0
C1313 C 0.25968 0.74239 0.80703 0.0
C1314 C 0.30187 0.79708 0.87588 0.0
C1315 C 0.21421 0.75859 0.82653 0.0
H1316 H 0.20748 0.79228 0.94994 0.0
H1317 H 0.20544 0.85377 0.8709 0.0
H1318 H 0.2344 0.7424 0.90564 0.0
H1319 H 0.26572 0.75726 0.91872 0.0
H1320 H 0.23788 0.75619 0.94883 0.0
H1321 H 0.23508 0.85311 0.82293 0.0
H1322 H 0.26395 0.8309 0.82456 0.0
H1323 H 0.23306 0.81943 0.80541 0.0
H1324 H 0.32317 0.76019 0.8321 0.0
H1325 H 0.24922 0.72906 0.78915 0.0
H1326 H 0.29752 0.79195 0.90344 0.0
H1327 H 0.29501 0.81815 0.87156 0.0
H1328 H 0.32405 0.79615 0.87189 0.0
H1329 H 0.20593 0.7537 0.85262 0.0
H1330 H 0.20679 0.7433 0.80765 0.0
H1331 H 0.20609 0.77862 0.81887 0.0
loop_
_geom_bond_atom_site_label_1
_geom_bond_atom_site_label_2
_geom_bond_distance
_geom_bond_site_symmetry_2
_ccdc_geom_bond_type
Zn0 O6 1.920 . S
Zn0 O12 1.898 . S
Zn0 O15 1.905 . S
Zn1 O9 1.905 . S
Zn1 O10 1.898 . S
Zn1 O18 1.920 . S
Zn2 O5 2.080 . S
Zn2 O8 2.114 1_554 S
Zn2 O11 2.120 1_554 S
Zn2 O13 2.120 . S
Zn2 O14 2.114 . S
Zn2 O17 2.080 1_554 S
C3 O8 1.166 . S
C3 O9 1.182 . S
C4 O10 1.167 . S
C4 O11 1.299 . S
O5 Zn2 2.080 . S
O5 C19 1.305 . S
O6 Zn0 1.920 . S
O6 C19 1.234 . S
C7 O12 1.167 . S
C7 O13 1.299 . S
O8 Zn2 2.114 1_556 S
O8 C3 1.166 . S
O9 Zn1 1.905 . S
O9 C3 1.182 . S
O10 Zn1 1.898 . S
O10 C4 1.167 . S
O11 Zn2 2.120 1_556 S
O11 C4 1.299 . S
O12 Zn0 1.898 . S
O12 C7 1.167 . S
O13 Zn2 2.120 . S
O13 C7 1.299 . S
O14 Zn2 2.114 . S
O14 C16 1.166 . S
O15 Zn0 1.905 . S
O15 C16 1.182 . S
C16 O14 1.166 . S
C16 O15 1.182 . S
O17 Zn2 2.080 1_556 S
O17 C20 1.305 . S
O18 Zn1 1.920 . S
O18 C20 1.234 . S
C19 O5 1.305 . S
C19 O6 1.234 . S
C20 O17 1.305 . S
C20 O18 1.234 . S
Zn21 O27 1.920 . S
Zn21 O33 1.898 . S
Zn21 O36 1.905 . S
Zn22 O30 1.905 . S
Zn22 O31 1.898 . S
Zn22 O39 1.920 . S
Zn23 O26 2.080 . S
Zn23 O29 2.114 . S
Zn23 O32 2.120 . S
Zn23 O34 2.120 . S
Zn23 O35 2.114 . S
Zn23 O38 2.080 . S
C24 O29 1.166 . S
C24 O30 1.182 . S
C25 O31 1.167 . S
C25 O32 1.299 . S
O26 Zn23 2.080 . S
O26 C40 1.305 . S
O27 Zn21 1.920 . S
O27 C40 1.234 . S
C28 O33 1.167 . S
C28 O34 1.299 . S
O29 Zn23 2.114 . S
O29 C24 1.166 . S
O30 Zn22 1.905 . S
O30 C24 1.182 . S
O31 Zn22 1.898 . S
O31 C25 1.167 . S
O32 Zn23 2.120 . S
O32 C25 1.299 . S
O33 Zn21 1.898 . S
O33 C28 1.167 . S
O34 Zn23 2.120 . S
O34 C28 1.299 . S
O35 Zn23 2.114 . S
O35 C37 1.166 . S
O36 Zn21 1.905 . S
O36 C37 1.182 . S
C37 O35 1.166 . S
C37 O36 1.182 . S
O38 Zn23 2.080 . S
O38 C41 1.305 . S
O39 Zn22 1.920 . S
O39 C41 1.234 . S
C40 O26 1.305 . S
C40 O27 1.234 . S
C41 O38 1.305 . S
C41 O39 1.234 . S
Zn42 O48 1.920 . S
Zn42 O54 1.898 . S
Zn42 O57 1.905 . S
Zn43 O51 1.905 . S
Zn43 O52 1.898 . S
Zn43 O60 1.920 . S
Zn44 O47 2.080 1_554 S
Zn44 O50 2.114 . S
Zn44 O53 2.120 . S
Zn44 O55 2.120 1_554 S
Zn44 O56 2.114 1_554 S
Zn44 O59 2.080 . S
C45 O50 1.166 . S
C45 O51 1.182 . S
C46 O52 1.167 . S
C46 O53 1.299 . S
O47 Zn44 2.080 1_556 S
O47 C61 1.305 . S
O48 Zn42 1.920 . S
O48 C61 1.234 . S
C49 O54 1.167 . S
C49 O55 1.299 . S
O50 Zn44 2.114 . S
O50 C45 1.166 . S
O51 Zn43 1.905 . S
O51 C45 1.182 . S
O52 Zn43 1.898 . S
O52 C46 1.167 . S
O53 Zn44 2.120 . S
O53 C46 1.299 . S
O54 Zn42 1.898 . S
O54 C49 1.167 . S
O55 Zn44 2.120 1_556 S
O55 C49 1.299 . S
O56 Zn44 2.114 1_556 S
O56 C58 1.166 . S
O57 Zn42 1.905 . S
O57 C58 1.182 . S
C58 O56 1.166 . S
C58 O57 1.182 . S
O59 Zn44 2.080 . S
O59 C62 1.305 . S
O60 Zn43 1.920 . S
O60 C62 1.234 . S
C61 O47 1.305 . S
C61 O48 1.234 . S
C62 O59 1.305 . S
C62 O60 1.234 . S
Zn63 O69 1.920 . S
Zn63 O75 1.898 . S
Zn63 O78 1.905 . S
Zn64 O72 1.905 . S
Zn64 O73 1.898 . S
Zn64 O81 1.920 . S
Zn65 O68 2.080 . S
Zn65 O71 2.114 . S
Zn65 O74 2.120 . S
Zn65 O76 2.120 . S
Zn65 O77 2.114 . S
Zn65 O80 2.080 . S
C66 O71 1.166 . S
C66 O72 1.182 . S
C67 O73 1.167 . S
C67 O74 1.299 . S
O68 Zn65 2.080 . S
O68 C82 1.305 . S
O69 Zn63 1.920 . S
O69 C82 1.234 . S
C70 O75 1.167 . S
C70 O76 1.299 . S
O71 Zn65 2.114 . S
O71 C66 1.166 . S
O72 Zn64 1.905 . S
O72 C66 1.182 . S
O73 Zn64 1.898 . S
O73 C67 1.167 . S
O74 Zn65 2.120 . S
O74 C67 1.299 . S
O75 Zn63 1.898 . S
O75 C70 1.167 . S
O76 Zn65 2.120 . S
O76 C70 1.299 . S
O77 Zn65 2.114 . S
O77 C79 1.166 . S
O78 Zn63 1.905 . S
O78 C79 1.182 . S
C79 O77 1.166 . S
C79 O78 1.182 . S
O80 Zn65 2.080 . S
O80 C83 1.305 . S
O81 Zn64 1.920 . S
O81 C83 1.234 . S
C82 O68 1.305 . S
C82 O69 1.234 . S
C83 O80 1.305 . S
C83 O81 1.234 . S
C84 C85 1.391 . S
C84 C88 1.391 . S
C84 H126 0.948 . S
C85 C84 1.391 . S
C85 C86 1.391 . S
C86 C85 1.391 . S
C86 H142 0.947 . S
C86 C143 1.392 . S
C87 C88 1.391 . S
C87 C91 1.397 . S
C87 C143 1.419 . S
C88 C84 1.391 . S
C88 C87 1.391 . S
C88 C89 1.399 . S
C89 C88 1.399 . S
C89 C92 1.396 . S
C89 C101 1.453 . S
C89 C102 1.684 . S
H90 C114 0.948 . S
C91 C87 1.397 . S
C91 C92 1.394 . S
C91 C110 1.723 . S
C92 C89 1.396 . S
C92 C91 1.394 . S
C92 C122 1.723 . S
H93 C116 0.947 . S
H94 C117 0.948 . S
H95 C123 0.982 . S
H96 C124 0.979 . S
H97 C124 0.980 . S
H98 C124 0.983 . S
H99 C123 0.979 . S
H100 C123 0.977 . S
C101 C89 1.453 . S
C101 H130 0.982 . S
C101 H131 0.979 . S
C101 H132 0.977 . S
C102 C89 1.684 . S
C102 H127 0.979 . S
C102 H128 0.980 . S
C102 H129 0.983 . S
C103 C104 1.391 . S
C103 C108 1.391 . S
C103 H133 0.948 . S
C104 C103 1.391 . S
C104 C105 1.391 . S
C105 C104 1.391 . S
C105 C106 1.392 . S
C105 H134 0.947 . S
C106 C105 1.392 . S
C106 C107 1.419 . S
C106 H135 0.948 . S
C107 C106 1.419 . S
C107 C108 1.391 . S
C107 C111 1.397 . S
C108 C103 1.391 . S
C108 C107 1.391 . S
C108 C109 1.399 . S
C109 C108 1.399 . S
C109 C110 1.396 . S
C109 C112 1.453 . S
C109 C113 1.684 . S
C110 C91 1.723 . S
C110 C109 1.396 . S
C110 C111 1.394 . S
C111 C107 1.397 . S
C111 C110 1.394 . S
C111 C121 1.723 . S
C112 C109 1.453 . S
C112 H136 0.982 . S
C112 H137 0.979 . S
C112 H138 0.977 . S
C113 C109 1.684 . S
C113 H139 0.979 . S
C113 H140 0.980 . S
C113 H141 0.983 . S
C114 H90 0.948 . S
C114 C115 1.391 . S
C114 C119 1.391 . S
C115 C114 1.391 . S
C115 C116 1.391 . S
C116 H93 0.947 . S
C116 C115 1.391 . S
C116 C117 1.392 . S
C117 H94 0.948 . S
C117 C116 1.392 . S
C117 C118 1.419 . S
C118 C117 1.419 . S
C118 C119 1.391 . S
C118 C122 1.397 . S
C119 C114 1.391 . S
C119 C118 1.391 . S
C119 C120 1.399 . S
C120 C119 1.399 . S
C120 C121 1.396 . S
C120 C123 1.453 . S
C120 C124 1.684 . S
C121 C111 1.723 . S
C121 C120 1.396 . S
C121 C122 1.394 . S
C122 C92 1.723 . S
C122 C118 1.397 . S
C122 C121 1.394 . S
C123 H95 0.982 . S
C123 H99 0.979 . S
C123 H100 0.977 . S
C123 C120 1.453 . S
C124 H96 0.979 . S
C124 H97 0.980 . S
C124 H98 0.983 . S
C124 C120 1.684 . S
H125 C143 0.948 . S
H126 C84 0.948 . S
H127 C102 0.979 . S
H128 C102 0.980 . S
H129 C102 0.983 . S
H130 C101 0.982 . S
H131 C101 0.979 . S
H132 C101 0.977 . S
H133 C103 0.948 . S
H134 C105 0.947 . S
H135 C106 0.948 . S
H136 C112 0.982 . S
H137 C112 0.979 . S
H138 C112 0.977 . S
H139 C113 0.979 . S
H140 C113 0.980 . S
H141 C113 0.983 . S
H142 C86 0.947 . S
C143 C86 1.392 . S
C143 C87 1.419 . S
C143 H125 0.948 . S
C144 C145 1.391 . S
C144 C148 1.391 . S
C144 H186 0.948 . S
C145 C144 1.391 . S
C145 C146 1.391 . S
C146 C145 1.391 . S
C146 H202 0.947 . S
C146 C203 1.392 . S
C147 C148 1.391 . S
C147 C151 1.397 . S
C147 C203 1.419 . S
C148 C144 1.391 . S
C148 C147 1.391 . S
C148 C149 1.399 . S
C149 C148 1.399 . S
C149 C152 1.396 . S
C149 C161 1.453 . S
C149 C162 1.684 . S
H150 C174 0.948 . S
C151 C147 1.397 . S
C151 C152 1.394 . S
C151 C170 1.723 . S
C152 C149 1.396 . S
C152 C151 1.394 . S
C152 C182 1.723 . S
H153 C176 0.947 . S
H154 C177 0.948 . S
H155 C183 0.982 . S
H156 C184 0.979 . S
H157 C184 0.980 . S
H158 C184 0.983 . S
H159 C183 0.979 . S
H160 C183 0.977 . S
C161 C149 1.453 . S
C161 H190 0.982 . S
C161 H191 0.979 . S
C161 H192 0.977 . S
C162 C149 1.684 . S
C162 H187 0.979 . S
C162 H188 0.980 . S
C162 H189 0.983 . S
C163 C164 1.391 . S
C163 C168 1.391 . S
C163 H193 0.948 . S
C164 C163 1.391 . S
C164 C165 1.391 . S
C165 C164 1.391 . S
C165 C166 1.392 . S
C165 H194 0.947 . S
C166 C165 1.392 . S
C166 C167 1.419 . S
C166 H195 0.948 . S
C167 C166 1.419 . S
C167 C168 1.391 . S
C167 C171 1.397 . S
C168 C163 1.391 . S
C168 C167 1.391 . S
C168 C169 1.399 . S
C169 C168 1.399 . S
C169 C170 1.396 . S
C169 C172 1.453 . S
C169 C173 1.684 . S
C170 C151 1.723 . S
C170 C169 1.396 . S
C170 C171 1.394 . S
C171 C167 1.397 . S
C171 C170 1.394 . S
C171 C181 1.723 . S
C172 C169 1.453 . S
C172 H196 0.982 . S
C172 H197 0.979 . S
C172 H198 0.977 . S
C173 C169 1.684 . S
C173 H199 0.979 . S
C173 H200 0.980 . S
C173 H201 0.983 . S
C174 H150 0.948 . S
C174 C175 1.391 . S
C174 C179 1.391 . S
C175 C174 1.391 . S
C175 C176 1.391 . S
C176 H153 0.947 . S
C176 C175 1.391 . S
C176 C177 1.392 . S
C177 H154 0.948 . S
C177 C176 1.392 . S
C177 C178 1.419 . S
C178 C177 1.419 . S
C178 C179 1.391 . S
C178 C182 1.397 . S
C179 C174 1.391 . S
C179 C178 1.391 . S
C179 C180 1.399 . S
C180 C179 1.399 . S
C180 C181 1.396 . S
C180 C183 1.453 . S
C180 C184 1.684 . S
C181 C171 1.723 . S
C181 C180 1.396 . S
C181 C182 1.394 . S
C182 C152 1.723 . S
C182 C178 1.397 . S
C182 C181 1.394 . S
C183 H155 0.982 . S
C183 H159 0.979 . S
C183 H160 0.977 . S
C183 C180 1.453 . S
C184 H156 0.979 . S
C184 H157 0.980 . S
C184 H158 0.983 . S
C184 C180 1.684 . S
H185 C203 0.948 . S
H186 C144 0.948 . S
H187 C162 0.979 . S
H188 C162 0.980 . S
H189 C162 0.983 . S
H190 C161 0.982 . S
H191 C161 0.979 . S
H192 C161 0.977 . S
H193 C163 0.948 . S
H194 C165 0.947 . S
H195 C166 0.948 . S
H196 C172 0.982 . S
H197 C172 0.979 . S
H198 C172 0.977 . S
H199 C173 0.979 . S
H200 C173 0.980 . S
H201 C173 0.983 . S
H202 C146 0.947 . S
C203 C146 1.392 . S
C203 C147 1.419 . S
C203 H185 0.948 . S
C204 C205 1.391 . S
C204 C208 1.391 . S
C204 H246 0.948 . S
C205 C204 1.391 . S
C205 C206 1.391 . S
C206 C205 1.391 . S
C206 H262 0.947 . S
C206 C263 1.392 . S
C207 C208 1.391 . S
C207 C211 1.397 . S
C207 C263 1.419 . S
C208 C204 1.391 . S
C208 C207 1.391 . S
C208 C209 1.399 . S
C209 C208 1.399 . S
C209 C212 1.396 . S
C209 C221 1.453 . S
C209 C222 1.684 . S
H210 C234 0.948 . S
C211 C207 1.397 . S
C211 C212 1.394 . S
C211 C230 1.723 . S
C212 C209 1.396 . S
C212 C211 1.394 . S
C212 C242 1.723 . S
H213 C236 0.947 . S
H214 C237 0.948 . S
H215 C243 0.982 . S
H216 C244 0.979 . S
H217 C244 0.980 . S
H218 C244 0.983 . S
H219 C243 0.979 . S
H220 C243 0.977 . S
C221 C209 1.453 . S
C221 H250 0.982 . S
C221 H251 0.979 . S
C221 H252 0.977 . S
C222 C209 1.684 . S
C222 H247 0.979 . S
C222 H248 0.980 . S
C222 H249 0.983 . S
C223 C224 1.391 . S
C223 C228 1.391 . S
C223 H253 0.948 . S
C224 C223 1.391 . S
C224 C225 1.391 . S
C225 C224 1.391 . S
C225 C226 1.392 . S
C225 H254 0.947 . S
C226 C225 1.392 . S
C226 C227 1.419 . S
C226 H255 0.948 . S
C227 C226 1.419 . S
C227 C228 1.391 . S
C227 C231 1.397 . S
C228 C223 1.391 . S
C228 C227 1.391 . S
C228 C229 1.399 . S
C229 C228 1.399 . S
C229 C230 1.396 . S
C229 C232 1.453 . S
C229 C233 1.684 . S
C230 C211 1.723 . S
C230 C229 1.396 . S
C230 C231 1.394 . S
C231 C227 1.397 . S
C231 C230 1.394 . S
C231 C241 1.723 . S
C232 C229 1.453 . S
C232 H256 0.982 . S
C232 H257 0.979 . S
C232 H258 0.977 . S
C233 C229 1.684 . S
C233 H259 0.979 . S
C233 H260 0.980 . S
C233 H261 0.983 . S
C234 H210 0.948 . S
C234 C235 1.391 . S
C234 C239 1.391 . S
C235 C234 1.391 . S
C235 C236 1.391 . S
C236 H213 0.947 . S
C236 C235 1.391 . S
C236 C237 1.392 . S
C237 H214 0.948 . S
C237 C236 1.392 . S
C237 C238 1.419 . S
C238 C237 1.419 . S
C238 C239 1.391 . S
C238 C242 1.397 . S
C239 C234 1.391 . S
C239 C238 1.391 . S
C239 C240 1.399 . S
C240 C239 1.399 . S
C240 C241 1.396 . S
C240 C243 1.453 . S
C240 C244 1.684 . S
C241 C231 1.723 . S
C241 C240 1.396 . S
C241 C242 1.394 . S
C242 C212 1.723 . S
C242 C238 1.397 . S
C242 C241 1.394 . S
C243 H215 0.982 . S
C243 H219 0.979 . S
C243 H220 0.977 . S
C243 C240 1.453 . S
C244 H216 0.979 . S
C244 H217 0.980 . S
C244 H218 0.983 . S
C244 C240 1.684 . S
H245 C263 0.948 . S
H246 C204 0.948 . S
H247 C222 0.979 . S
H248 C222 0.980 . S
H249 C222 0.983 . S
H250 C221 0.982 . S
H251 C221 0.979 . S
H252 C221 0.977 . S
H253 C223 0.948 . S
H254 C225 0.947 . S
H255 C226 0.948 . S
H256 C232 0.982 . S
H257 C232 0.979 . S
H258 C232 0.977 . S
H259 C233 0.979 . S
H260 C233 0.980 . S
H261 C233 0.983 . S
H262 C206 0.947 . S
C263 C206 1.392 . S
C263 C207 1.419 . S
C263 H245 0.948 . S
C264 C265 1.391 . S
C264 C268 1.391 . S
C264 H306 0.948 . S
C265 C264 1.391 . S
C265 C266 1.391 . S
C266 C265 1.391 . S
C266 H322 0.947 . S
C266 C323 1.392 . S
C267 C268 1.391 . S
C267 C271 1.397 . S
C267 C323 1.419 . S
C268 C264 1.391 . S
C268 C267 1.391 . S
C268 C269 1.399 . S
C269 C268 1.399 . S
C269 C272 1.396 . S
C269 C281 1.453 . S
C269 C282 1.684 . S
H270 C294 0.948 . S
C271 C267 1.397 . S
C271 C272 1.394 . S
C271 C290 1.723 . S
C272 C269 1.396 . S
C272 C271 1.394 . S
C272 C302 1.723 . S
H273 C296 0.947 . S
H274 C297 0.948 . S
H275 C303 0.982 . S
H276 C304 0.979 . S
H277 C304 0.980 . S
H278 C304 0.983 . S
H279 C303 0.979 . S
H280 C303 0.977 . S
C281 C269 1.453 . S
C281 H310 0.982 . S
C281 H311 0.979 . S
C281 H312 0.977 . S
C282 C269 1.684 . S
C282 H307 0.979 . S
C282 H308 0.980 . S
C282 H309 0.983 . S
C283 C284 1.391 . S
C283 C288 1.391 . S
C283 H313 0.948 . S
C284 C283 1.391 . S
C284 C285 1.391 . S
C285 C284 1.391 . S
C285 C286 1.392 . S
C285 H314 0.947 . S
C286 C285 1.392 . S
C286 C287 1.419 . S
C286 H315 0.948 . S
C287 C286 1.419 . S
C287 C288 1.391 . S
C287 C291 1.397 . S
C288 C283 1.391 . S
C288 C287 1.391 . S
C288 C289 1.399 . S
C289 C288 1.399 . S
C289 C290 1.396 . S
C289 C292 1.453 . S
C289 C293 1.684 . S
C290 C271 1.723 . S
C290 C289 1.396 . S
C290 C291 1.394 . S
C291 C287 1.397 . S
C291 C290 1.394 . S
C291 C301 1.723 . S
C292 C289 1.453 . S
C292 H316 0.982 . S
C292 H317 0.979 . S
C292 H318 0.977 . S
C293 C289 1.684 . S
C293 H319 0.979 . S
C293 H320 0.980 . S
C293 H321 0.983 . S
C294 H270 0.948 . S
C294 C295 1.391 . S
C294 C299 1.391 . S
C295 C294 1.391 . S
C295 C296 1.391 . S
C296 H273 0.947 . S
C296 C295 1.391 . S
C296 C297 1.392 . S
C297 H274 0.948 . S
C297 C296 1.392 . S
C297 C298 1.419 . S
C298 C297 1.419 . S
C298 C299 1.391 . S
C298 C302 1.397 . S
C299 C294 1.391 . S
C299 C298 1.391 . S
C299 C300 1.399 . S
C300 C299 1.399 . S
C300 C301 1.396 . S
C300 C303 1.453 . S
C300 C304 1.684 . S
C301 C291 1.723 . S
C301 C300 1.396 . S
C301 C302 1.394 . S
C302 C272 1.723 . S
C302 C298 1.397 . S
C302 C301 1.394 . S
C303 H275 0.982 . S
C303 H279 0.979 . S
C303 H280 0.977 . S
C303 C300 1.453 . S
C304 H276 0.979 . S
C304 H277 0.980 . S
C304 H278 0.983 . S
C304 C300 1.684 . S
H305 C323 0.948 . S
H306 C264 0.948 . S
H307 C282 0.979 . S
H308 C282 0.980 . S
H309 C282 0.983 . S
H310 C281 0.982 . S
H311 C281 0.979 . S
H312 C281 0.977 . S
H313 C283 0.948 . S
H314 C285 0.947 . S
H315 C286 0.948 . S
H316 C292 0.982 . S
H317 C292 0.979 . S
H318 C292 0.977 . S
H319 C293 0.979 . S
H320 C293 0.980 . S
H321 C293 0.983 . S
H322 C266 0.947 . S
C323 C266 1.392 . S
C323 C267 1.419 . S
C323 H305 0.948 . S
C324 C325 1.391 . S
C324 C328 1.391 . S
C324 H366 0.948 . S
C325 C324 1.391 . S
C325 C326 1.391 . S
C326 C325 1.391 . S
C326 H382 0.947 . S
C326 C383 1.392 . S
C327 C328 1.391 . S
C327 C331 1.397 . S
C327 C383 1.419 . S
C328 C324 1.391 . S
C328 C327 1.391 . S
C328 C329 1.399 . S
C329 C328 1.399 . S
C329 C332 1.396 . S
C329 C341 1.453 . S
C329 C342 1.684 . S
H330 C354 0.948 . S
C331 C327 1.397 . S
C331 C332 1.394 . S
C331 C350 1.723 . S
C332 C329 1.396 . S
C332 C331 1.394 . S
C332 C362 1.723 . S
H333 C356 0.947 . S
H334 C357 0.948 . S
H335 C363 0.982 . S
H336 C364 0.979 . S
H337 C364 0.980 . S
H338 C364 0.983 . S
H339 C363 0.979 . S
H340 C363 0.977 . S
C341 C329 1.453 . S
C341 H370 0.982 . S
C341 H371 0.979 . S
C341 H372 0.977 . S
C342 C329 1.684 . S
C342 H367 0.979 . S
C342 H368 0.980 . S
C342 H369 0.983 . S
C343 C344 1.391 . S
C343 C348 1.391 . S
C343 H373 0.948 . S
C344 C343 1.391 . S
C344 C345 1.391 . S
C345 C344 1.391 . S
C345 C346 1.392 . S
C345 H374 0.947 . S
C346 C345 1.392 . S
C346 C347 1.419 . S
C346 H375 0.948 . S
C347 C346 1.419 . S
C347 C348 1.391 . S
C347 C351 1.397 . S
C348 C343 1.391 . S
C348 C347 1.391 . S
C348 C349 1.399 . S
C349 C348 1.399 . S
C349 C350 1.396 . S
C349 C352 1.453 . S
C349 C353 1.684 . S
C350 C331 1.723 . S
C350 C349 1.396 . S
C350 C351 1.394 . S
C351 C347 1.397 . S
C351 C350 1.394 . S
C351 C361 1.723 . S
C352 C349 1.453 . S
C352 H376 0.982 . S
C352 H377 0.979 . S
C352 H378 0.977 . S
C353 C349 1.684 . S
C353 H379 0.979 . S
C353 H380 0.980 . S
C353 H381 0.983 . S
C354 H330 0.948 . S
C354 C355 1.391 . S
C354 C359 1.391 . S
C355 C354 1.391 . S
C355 C356 1.391 . S
C356 H333 0.947 . S
C356 C355 1.391 . S
C356 C357 1.392 . S
C357 H334 0.948 . S
C357 C356 1.392 . S
C357 C358 1.419 . S
C358 C357 1.419 . S
C358 C359 1.391 . S
C358 C362 1.397 . S
C359 C354 1.391 . S
C359 C358 1.391 . S
C359 C360 1.399 . S
C360 C359 1.399 . S
C360 C361 1.396 . S
C360 C363 1.453 . S
C360 C364 1.684 . S
C361 C351 1.723 . S
C361 C360 1.396 . S
C361 C362 1.394 . S
C362 C332 1.723 . S
C362 C358 1.397 . S
C362 C361 1.394 . S
C363 H335 0.982 . S
C363 H339 0.979 . S
C363 H340 0.977 . S
C363 C360 1.453 . S
C364 H336 0.979 . S
C364 H337 0.980 . S
C364 H338 0.983 . S
C364 C360 1.684 . S
H365 C383 0.948 . S
H366 C324 0.948 . S
H367 C342 0.979 . S
H368 C342 0.980 . S
H369 C342 0.983 . S
H370 C341 0.982 . S
H371 C341 0.979 . S
H372 C341 0.977 . S
H373 C343 0.948 . S
H374 C345 0.947 . S
H375 C346 0.948 . S
H376 C352 0.982 . S
H377 C352 0.979 . S
H378 C352 0.977 . S
H379 C353 0.979 . S
H380 C353 0.980 . S
H381 C353 0.983 . S
H382 C326 0.947 . S
C383 C326 1.392 . S
C383 C327 1.419 . S
C383 H365 0.948 . S
C384 C385 1.391 . S
C384 C388 1.391 . S
C384 H426 0.948 . S
C385 C384 1.391 . S
C385 C386 1.391 . S
C386 C385 1.391 . S
C386 H442 0.947 . S
C386 C443 1.392 . S
C387 C388 1.391 . S
C387 C391 1.397 . S
C387 C443 1.419 . S
C388 C384 1.391 . S
C388 C387 1.391 . S
C388 C389 1.399 . S
C389 C388 1.399 . S
C389 C392 1.396 . S
C389 C401 1.453 . S
C389 C402 1.684 . S
H390 C414 0.948 . S
C391 C387 1.397 . S
C391 C392 1.394 . S
C391 C410 1.723 . S
C392 C389 1.396 . S
C392 C391 1.394 . S
C392 C422 1.723 . S
H393 C416 0.947 . S
H394 C417 0.948 . S
H395 C423 0.982 . S
H396 C424 0.979 . S
H397 C424 0.980 . S
H398 C424 0.983 . S
H399 C423 0.979 . S
H400 C423 0.977 . S
C401 C389 1.453 . S
C401 H430 0.982 . S
C401 H431 0.979 . S
C401 H432 0.977 . S
C402 C389 1.684 . S
C402 H427 0.979 . S
C402 H428 0.980 . S
C402 H429 0.983 . S
C403 C404 1.391 . S
C403 C408 1.391 . S
C403 H433 0.948 . S
C404 C403 1.391 . S
C404 C405 1.391 . S
C405 C404 1.391 . S
C405 C406 1.392 . S
C405 H434 0.947 . S
C406 C405 1.392 . S
C406 C407 1.419 . S
C406 H435 0.948 . S
C407 C406 1.419 . S
C407 C408 1.391 . S
C407 C411 1.397 . S
C408 C403 1.391 . S
C408 C407 1.391 . S
C408 C409 1.399 . S
C409 C408 1.399 . S
C409 C410 1.396 . S
C409 C412 1.453 . S
C409 C413 1.684 . S
C410 C391 1.723 . S
C410 C409 1.396 . S
C410 C411 1.394 . S
C411 C407 1.397 . S
C411 C410 1.394 . S
C411 C421 1.723 . S
C412 C409 1.453 . S
C412 H436 0.982 . S
C412 H437 0.979 . S
C412 H438 0.977 . S
C413 C409 1.684 . S
C413 H439 0.979 . S
C413 H440 0.980 . S
C413 H441 0.983 . S
C414 H390 0.948 . S
C414 C415 1.391 . S
C414 C419 1.391 . S
C415 C414 1.391 . S
C415 C416 1.391 . S
C416 H393 0.947 . S
C416 C415 1.391 . S
C416 C417 1.392 . S
C417 H394 0.948 . S
C417 C416 1.392 . S
C417 C418 1.419 . S
C418 C417 1.419 . S
C418 C419 1.391 . S
C418 C422 1.397 . S
C419 C414 1.391 . S
C419 C418 1.391 . S
C419 C420 1.399 . S
C420 C419 1.399 . S
C420 C421 1.396 . S
C420 C423 1.453 . S
C420 C424 1.684 . S
C421 C411 1.723 . S
C421 C420 1.396 . S
C421 C422 1.394 . S
C422 C392 1.723 . S
C422 C418 1.397 . S
C422 C421 1.394 . S
C423 H395 0.982 . S
C423 H399 0.979 . S
C423 H400 0.977 . S
C423 C420 1.453 . S
C424 H396 0.979 . S
C424 H397 0.980 . S
C424 H398 0.983 . S
C424 C420 1.684 . S
H425 C443 0.948 . S
H426 C384 0.948 . S
H427 C402 0.979 . S
H428 C402 0.980 . S
H429 C402 0.983 . S
H430 C401 0.982 . S
H431 C401 0.979 . S
H432 C401 0.977 . S
H433 C403 0.948 . S
H434 C405 0.947 . S
H435 C406 0.948 . S
H436 C412 0.982 . S
H437 C412 0.979 . S
H438 C412 0.977 . S
H439 C413 0.979 . S
H440 C413 0.980 . S
H441 C413 0.983 . S
H442 C386 0.947 . S
C443 C386 1.392 . S
C443 C387 1.419 . S
C443 H425 0.948 . S
C444 C445 1.391 . S
C444 C448 1.391 . S
C444 H486 0.948 . S
C445 C444 1.391 . S
C445 C446 1.391 . S
C446 C445 1.391 . S
C446 H502 0.947 . S
C446 C503 1.392 . S
C447 C448 1.391 . S
C447 C451 1.397 . S
C447 C503 1.419 . S
C448 C444 1.391 . S
C448 C447 1.391 . S
C448 C449 1.399 . S
C449 C448 1.399 . S
C449 C452 1.396 . S
C449 C461 1.453 . S
C449 C462 1.684 . S
H450 C474 0.948 . S
C451 C447 1.397 . S
C451 C452 1.394 . S
C451 C470 1.723 . S
C452 C449 1.396 . S
C452 C451 1.394 . S
C452 C482 1.723 . S
H453 C476 0.947 . S
H454 C477 0.948 . S
H455 C483 0.982 . S
H456 C484 0.979 . S
H457 C484 0.980 . S
H458 C484 0.983 . S
H459 C483 0.979 . S
H460 C483 0.977 . S
C461 C449 1.453 . S
C461 H490 0.982 . S
C461 H491 0.979 . S
C461 H492 0.977 . S
C462 C449 1.684 . S
C462 H487 0.979 . S
C462 H488 0.980 . S
C462 H489 0.983 . S
C463 C464 1.391 . S
C463 C468 1.391 . S
C463 H493 0.948 . S
C464 C463 1.391 . S
C464 C465 1.391 . S
C465 C464 1.391 . S
C465 C466 1.392 . S
C465 H494 0.947 . S
C466 C465 1.392 . S
C466 C467 1.419 . S
C466 H495 0.948 . S
C467 C466 1.419 . S
C467 C468 1.391 . S
C467 C471 1.397 . S
C468 C463 1.391 . S
C468 C467 1.391 . S
C468 C469 1.399 . S
C469 C468 1.399 . S
C469 C470 1.396 . S
C469 C472 1.453 . S
C469 C473 1.684 . S
C470 C451 1.723 . S
C470 C469 1.396 . S
C470 C471 1.394 . S
C471 C467 1.397 . S
C471 C470 1.394 . S
C471 C481 1.723 . S
C472 C469 1.453 . S
C472 H496 0.982 . S
C472 H497 0.979 . S
C472 H498 0.977 . S
C473 C469 1.684 . S
C473 H499 0.979 . S
C473 H500 0.980 . S
C473 H501 0.983 . S
C474 H450 0.948 . S
C474 C475 1.391 . S
C474 C479 1.391 . S
C475 C474 1.391 . S
C475 C476 1.391 . S
C476 H453 0.947 . S
C476 C475 1.391 . S
C476 C477 1.392 . S
C477 H454 0.948 . S
C477 C476 1.392 . S
C477 C478 1.419 . S
C478 C477 1.419 . S
C478 C479 1.391 . S
C478 C482 1.397 . S
C479 C474 1.391 . S
C479 C478 1.391 . S
C479 C480 1.399 . S
C480 C479 1.399 . S
C480 C481 1.396 . S
C480 C483 1.453 . S
C480 C484 1.684 . S
C481 C471 1.723 . S
C481 C480 1.396 . S
C481 C482 1.394 . S
C482 C452 1.723 . S
C482 C478 1.397 . S
C482 C481 1.394 . S
C483 H455 0.982 . S
C483 H459 0.979 . S
C483 H460 0.977 . S
C483 C480 1.453 . S
C484 H456 0.979 . S
C484 H457 0.980 . S
C484 H458 0.983 . S
C484 C480 1.684 . S
H485 C503 0.948 . S
H486 C444 0.948 . S
H487 C462 0.979 . S
H488 C462 0.980 . S
H489 C462 0.983 . S
H490 C461 0.982 . S
H491 C461 0.979 . S
H492 C461 0.977 . S
H493 C463 0.948 . S
H494 C465 0.947 . S
H495 C466 0.948 . S
H496 C472 0.982 . S
H497 C472 0.979 . S
H498 C472 0.977 . S
H499 C473 0.979 . S
H500 C473 0.980 . S
H501 C473 0.983 . S
H502 C446 0.947 . S
C503 C446 1.392 . S
C503 C447 1.419 . S
C503 H485 0.948 . S
C504 C505 1.391 . S
C504 C508 1.391 . S
C504 H546 0.948 . S
C505 C504 1.391 . S
C505 C506 1.391 . S
C506 C505 1.391 . S
C506 H562 0.947 . S
C506 C563 1.392 . S
C507 C508 1.391 . S
C507 C511 1.397 . S
C507 C563 1.419 . S
C508 C504 1.391 . S
C508 C507 1.391 . S
C508 C509 1.399 . S
C509 C508 1.399 . S
C509 C512 1.396 . S
C509 C521 1.453 . S
C509 C522 1.684 . S
H510 C534 0.948 . S
C511 C507 1.397 . S
C511 C512 1.394 . S
C511 C530 1.723 . S
C512 C509 1.396 . S
C512 C511 1.394 . S
C512 C542 1.723 . S
H513 C536 0.947 . S
H514 C537 0.948 . S
H515 C543 0.982 . S
H516 C544 0.979 . S
H517 C544 0.980 . S
H518 C544 0.983 . S
H519 C543 0.979 . S
H520 C543 0.977 . S
C521 C509 1.453 . S
C521 H550 0.982 . S
C521 H551 0.979 . S
C521 H552 0.977 . S
C522 C509 1.684 . S
C522 H547 0.979 . S
C522 H548 0.980 . S
C522 H549 0.983 . S
C523 C524 1.391 . S
C523 C528 1.391 . S
C523 H553 0.948 . S
C524 C523 1.391 . S
C524 C525 1.391 . S
C525 C524 1.391 . S
C525 C526 1.392 . S
C525 H554 0.947 . S
C526 C525 1.392 . S
C526 C527 1.419 . S
C526 H555 0.948 . S
C527 C526 1.419 . S
C527 C528 1.391 . S
C527 C531 1.397 . S
C528 C523 1.391 . S
C528 C527 1.391 . S
C528 C529 1.399 . S
C529 C528 1.399 . S
C529 C530 1.396 . S
C529 C532 1.453 . S
C529 C533 1.684 . S
C530 C511 1.723 . S
C530 C529 1.396 . S
C530 C531 1.394 . S
C531 C527 1.397 . S
C531 C530 1.394 . S
C531 C541 1.723 . S
C532 C529 1.453 . S
C532 H556 0.982 . S
C532 H557 0.979 . S
C532 H558 0.977 . S
C533 C529 1.684 . S
C533 H559 0.979 . S
C533 H560 0.980 . S
C533 H561 0.983 . S
C534 H510 0.948 . S
C534 C535 1.391 . S
C534 C539 1.391 . S
C535 C534 1.391 . S
C535 C536 1.391 . S
C536 H513 0.947 . S
C536 C535 1.391 . S
C536 C537 1.392 . S
C537 H514 0.948 . S
C537 C536 1.392 . S
C537 C538 1.419 . S
C538 C537 1.419 . S
C538 C539 1.391 . S
C538 C542 1.397 . S
C539 C534 1.391 . S
C539 C538 1.391 . S
C539 C540 1.399 . S
C540 C539 1.399 . S
C540 C541 1.396 . S
C540 C543 1.453 . S
C540 C544 1.684 . S
C541 C531 1.723 . S
C541 C540 1.396 . S
C541 C542 1.394 . S
C542 C512 1.723 . S
C542 C538 1.397 . S
C542 C541 1.394 . S
C543 H515 0.982 . S
C543 H519 0.979 . S
C543 H520 0.977 . S
C543 C540 1.453 . S
C544 H516 0.979 . S
C544 H517 0.980 . S
C544 H518 0.983 . S
C544 C540 1.684 . S
H545 C563 0.948 . S
H546 C504 0.948 . S
H547 C522 0.979 . S
H548 C522 0.980 . S
H549 C522 0.983 . S
H550 C521 0.982 . S
H551 C521 0.979 . S
H552 C521 0.977 . S
H553 C523 0.948 . S
H554 C525 0.947 . S
H555 C526 0.948 . S
H556 C532 0.982 . S
H557 C532 0.979 . S
H558 C532 0.977 . S
H559 C533 0.979 . S
H560 C533 0.980 . S
H561 C533 0.983 . S
H562 C506 0.947 . S
C563 C506 1.392 . S
C563 C507 1.419 . S
C563 H545 0.948 . S
C564 C565 1.391 . S
C564 C566 1.394 . S
C564 H580 0.931 . S
C565 C564 1.391 . S
C565 C569 1.376 . S
C566 C564 1.394 . S
C566 C567 1.369 . S
C566 C570 1.531 . S
C567 C566 1.369 . S
C567 C568 1.410 . S
C567 C575 1.503 . S
C568 C567 1.410 . S
C568 C569 1.392 . S
C568 C571 1.511 . S
C569 C565 1.376 . S
C569 C568 1.392 . S
C569 H581 0.929 . S
C570 C566 1.531 . S
C570 H582 0.960 . S
C570 H583 0.962 . S
C570 H584 0.960 . S
C571 C568 1.511 . S
C571 H585 0.961 . S
C571 H586 0.961 . S
C571 H587 0.961 . S
C572 C573 1.370 . S
C572 C574 1.363 1_545 S
C572 H588 0.931 . S
C573 C572 1.370 . S
C573 C577 1.408 1_545 S
C574 C572 1.363 1_565 S
C574 C575 1.370 . S
C574 C578 1.524 . S
C575 C567 1.503 . S
C575 C574 1.370 . S
C575 C576 1.403 . S
C576 C575 1.403 . S
C576 C577 1.404 . S
C576 C579 1.539 . S
C577 C573 1.408 1_565 S
C577 C576 1.404 . S
C577 H589 0.930 . S
C578 C574 1.524 . S
C578 H590 0.956 . S
C578 H591 0.961 . S
C578 H592 0.961 1_565 S
C579 C576 1.539 . S
C579 H593 0.958 . S
C579 H594 0.961 . S
C579 H595 0.960 . S
H580 C564 0.931 . S
H581 C569 0.929 . S
H582 C570 0.960 . S
H583 C570 0.962 . S
H584 C570 0.960 . S
H585 C571 0.961 . S
H586 C571 0.961 . S
H587 C571 0.961 . S
H588 C572 0.931 . S
H589 C577 0.930 . S
H590 C578 0.956 . S
H591 C578 0.961 . S
H592 C578 0.961 1_545 S
H593 C579 0.958 . S
H594 C579 0.961 . S
H595 C579 0.960 . S
C596 C597 1.391 . S
C596 C598 1.394 . S
C596 H612 0.931 . S
C597 C596 1.391 . S
C597 C601 1.376 . S
C598 C596 1.394 . S
C598 C599 1.369 . S
C598 C602 1.531 . S
C599 C598 1.369 . S
C599 C600 1.410 . S
C599 C607 1.503 . S
C600 C599 1.410 . S
C600 C601 1.392 . S
C600 C603 1.511 . S
C601 C597 1.376 . S
C601 C600 1.392 . S
C601 H613 0.929 . S
C602 C598 1.531 . S
C602 H614 0.960 . S
C602 H615 0.962 . S
C602 H616 0.960 . S
C603 C600 1.511 . S
C603 H617 0.961 . S
C603 H618 0.961 . S
C603 H619 0.961 . S
C604 C605 1.370 . S
C604 C606 1.363 . S
C604 H620 0.931 . S
C605 C604 1.370 . S
C605 C609 1.408 . S
C606 C604 1.363 . S
C606 C607 1.370 . S
C606 C610 1.524 . S
C607 C599 1.503 . S
C607 C606 1.370 . S
C607 C608 1.403 . S
C608 C607 1.403 . S
C608 C609 1.404 . S
C608 C611 1.539 . S
C609 C605 1.408 . S
C609 C608 1.404 . S
C609 H621 0.930 . S
C610 C606 1.524 . S
C610 H622 0.956 . S
C610 H623 0.961 . S
C610 H624 0.961 . S
C611 C608 1.539 . S
C611 H625 0.958 . S
C611 H626 0.961 . S
C611 H627 0.960 . S
H612 C596 0.931 . S
H613 C601 0.929 . S
H614 C602 0.960 . S
H615 C602 0.962 . S
H616 C602 0.960 . S
H617 C603 0.961 . S
H618 C603 0.961 . S
H619 C603 0.961 . S
H620 C604 0.931 . S
H621 C609 0.930 . S
H622 C610 0.956 . S
H623 C610 0.961 . S
H624 C610 0.961 . S
H625 C611 0.958 . S
H626 C611 0.961 . S
H627 C611 0.960 . S
C628 C629 1.391 . S
C628 C630 1.394 . S
C628 H644 0.931 . S
C629 C628 1.391 . S
C629 C633 1.376 . S
C630 C628 1.394 . S
C630 C631 1.369 . S
C630 C634 1.531 . S
C631 C630 1.369 . S
C631 C632 1.410 . S
C631 C639 1.503 . S
C632 C631 1.410 . S
C632 C633 1.392 . S
C632 C635 1.511 . S
C633 C629 1.376 . S
C633 C632 1.392 . S
C633 H645 0.929 . S
C634 C630 1.531 . S
C634 H646 0.960 . S
C634 H647 0.962 . S
C634 H648 0.960 . S
C635 C632 1.511 . S
C635 H649 0.961 . S
C635 H650 0.961 . S
C635 H651 0.961 . S
C636 C637 1.370 1_545 S
C636 C638 1.363 . S
C636 H652 0.931 . S
C637 C636 1.370 1_565 S
C637 C641 1.408 . S
C638 C636 1.363 . S
C638 C639 1.370 . S
C638 C642 1.524 . S
C639 C631 1.503 . S
C639 C638 1.370 . S
C639 C640 1.403 . S
C640 C639 1.403 . S
C640 C641 1.404 1_545 S
C640 C643 1.539 1_545 S
C641 C637 1.408 . S
C641 C640 1.404 1_565 S
C641 H653 0.930 . S
C642 C638 1.524 . S
C642 H654 0.956 . S
C642 H655 0.961 . S
C642 H656 0.961 . S
C643 C640 1.539 1_565 S
C643 H657 0.958 . S
C643 H658 0.961 . S
C643 H659 0.960 1_565 S
H644 C628 0.931 . S
H645 C633 0.929 . S
H646 C634 0.960 . S
H647 C634 0.962 . S
H648 C634 0.960 . S
H649 C635 0.961 . S
H650 C635 0.961 . S
H651 C635 0.961 . S
H652 C636 0.931 . S
H653 C641 0.930 . S
H654 C642 0.956 . S
H655 C642 0.961 . S
H656 C642 0.961 . S
H657 C643 0.958 . S
H658 C643 0.961 . S
H659 C643 0.960 1_545 S
C660 C661 1.391 . S
C660 C662 1.394 . S
C660 H676 0.931 . S
C661 C660 1.391 . S
C661 C665 1.376 . S
C662 C660 1.394 . S
C662 C663 1.369 . S
C662 C666 1.531 . S
C663 C662 1.369 . S
C663 C664 1.410 . S
C663 C671 1.503 . S
C664 C663 1.410 . S
C664 C665 1.392 . S
C664 C667 1.511 . S
C665 C661 1.376 . S
C665 C664 1.392 . S
C665 H677 0.929 . S
C666 C662 1.531 . S
C666 H678 0.960 . S
C666 H679 0.962 . S
C666 H680 0.960 . S
C667 C664 1.511 . S
C667 H681 0.961 . S
C667 H682 0.961 . S
C667 H683 0.961 . S
C668 C669 1.370 . S
C668 C670 1.363 . S
C668 H684 0.931 . S
C669 C668 1.370 . S
C669 C673 1.408 . S
C670 C668 1.363 . S
C670 C671 1.370 . S
C670 C674 1.524 . S
C671 C663 1.503 . S
C671 C670 1.370 . S
C671 C672 1.403 . S
C672 C671 1.403 . S
C672 C673 1.404 . S
C672 C675 1.539 . S
C673 C669 1.408 . S
C673 C672 1.404 . S
C673 H685 0.930 . S
C674 C670 1.524 . S
C674 H686 0.956 . S
C674 H687 0.961 . S
C674 H688 0.961 . S
C675 C672 1.539 . S
C675 H689 0.958 . S
C675 H690 0.961 . S
C675 H691 0.960 . S
H676 C660 0.931 . S
H677 C665 0.929 . S
H678 C666 0.960 . S
H679 C666 0.962 . S
H680 C666 0.960 . S
H681 C667 0.961 . S
H682 C667 0.961 . S
H683 C667 0.961 . S
H684 C668 0.931 . S
H685 C673 0.930 . S
H686 C674 0.956 . S
H687 C674 0.961 . S
H688 C674 0.961 . S
H689 C675 0.958 . S
H690 C675 0.961 . S
H691 C675 0.960 . S
C692 C693 1.391 . S
C692 C694 1.394 . S
C692 H708 0.931 . S
C693 C692 1.391 . S
C693 C697 1.376 . S
C694 C692 1.394 . S
C694 C695 1.369 . S
C694 C698 1.531 . S
C695 C694 1.369 . S
C695 C696 1.410 . S
C695 C703 1.503 . S
C696 C695 1.410 . S
C696 C697 1.392 . S
C696 C699 1.511 . S
C697 C693 1.376 . S
C697 C696 1.392 . S
C697 H709 0.929 . S
C698 C694 1.531 . S
C698 H710 0.960 . S
C698 H711 0.962 . S
C698 H712 0.960 . S
C699 C696 1.511 . S
C699 H713 0.961 . S
C699 H714 0.961 . S
C699 H715 0.961 . S
C700 C701 1.370 . S
C700 C702 1.363 . S
C700 H716 0.931 . S
C701 C700 1.370 . S
C701 C705 1.408 . S
C702 C700 1.363 . S
C702 C703 1.370 . S
C702 C706 1.524 . S
C703 C695 1.503 . S
C703 C702 1.370 . S
C703 C704 1.403 . S
C704 C703 1.403 . S
C704 C705 1.404 . S
C704 C707 1.539 . S
C705 C701 1.408 . S
C705 C704 1.404 . S
C705 H717 0.930 . S
C706 C702 1.524 . S
C706 H718 0.956 . S
C706 H719 0.961 . S
C706 H720 0.961 . S
C707 C704 1.539 . S
C707 H721 0.958 . S
C707 H722 0.961 . S
C707 H723 0.960 . S
H708 C692 0.931 . S
H709 C697 0.929 . S
H710 C698 0.960 . S
H711 C698 0.962 . S
H712 C698 0.960 . S
H713 C699 0.961 . S
H714 C699 0.961 . S
H715 C699 0.961 . S
H716 C700 0.931 . S
H717 C705 0.930 . S
H718 C706 0.956 . S
H719 C706 0.961 . S
H720 C706 0.961 . S
H721 C707 0.958 . S
H722 C707 0.961 . S
H723 C707 0.960 . S
C724 C725 1.391 . S
C724 C726 1.394 . S
C724 H740 0.931 . S
C725 C724 1.391 . S
C725 C729 1.376 . S
C726 C724 1.394 . S
C726 C727 1.369 . S
C726 C730 1.531 . S
C727 C726 1.369 . S
C727 C728 1.410 . S
C727 C735 1.503 . S
C728 C727 1.410 . S
C728 C729 1.392 . S
C728 C731 1.511 . S
C729 C725 1.376 . S
C729 C728 1.392 . S
C729 H741 0.929 . S
C730 C726 1.531 . S
C730 H742 0.960 . S
C730 H743 0.962 . S
C730 H744 0.960 . S
C731 C728 1.511 . S
C731 H745 0.961 . S
C731 H746 0.961 . S
C731 H747 0.961 . S
C732 C733 1.370 . S
C732 C734 1.363 1_455 S
C732 H748 0.931 . S
C733 C732 1.370 . S
C733 C737 1.408 1_455 S
C734 C732 1.363 1_655 S
C734 C735 1.370 . S
C734 C738 1.524 . S
C735 C727 1.503 . S
C735 C734 1.370 . S
C735 C736 1.403 . S
C736 C735 1.403 . S
C736 C737 1.404 . S
C736 C739 1.539 . S
C737 C733 1.408 1_655 S
C737 C736 1.404 . S
C737 H749 0.930 . S
C738 C734 1.524 . S
C738 H750 0.956 . S
C738 H751 0.961 . S
C738 H752 0.961 . S
C739 C736 1.539 . S
C739 H753 0.958 . S
C739 H754 0.961 . S
C739 H755 0.960 . S
H740 C724 0.931 . S
H741 C729 0.929 . S
H742 C730 0.960 . S
H743 C730 0.962 . S
H744 C730 0.960 . S
H745 C731 0.961 . S
H746 C731 0.961 . S
H747 C731 0.961 . S
H748 C732 0.931 . S
H749 C737 0.930 . S
H750 C738 0.956 . S
H751 C738 0.961 . S
H752 C738 0.961 . S
H753 C739 0.958 . S
H754 C739 0.961 . S
H755 C739 0.960 . S
C756 C757 1.391 . S
C756 C758 1.394 . S
C756 H772 0.931 . S
C757 C756 1.391 . S
C757 C761 1.376 . S
C758 C756 1.394 . S
C758 C759 1.369 . S
C758 C762 1.531 . S
C759 C758 1.369 . S
C759 C760 1.410 . S
C759 C767 1.503 . S
C760 C759 1.410 . S
C760 C761 1.392 . S
C760 C763 1.511 . S
C761 C757 1.376 . S
C761 C760 1.392 . S
C761 H773 0.929 . S
C762 C758 1.531 . S
C762 H774 0.960 . S
C762 H775 0.962 . S
C762 H776 0.960 . S
C763 C760 1.511 . S
C763 H777 0.961 . S
C763 H778 0.961 . S
C763 H779 0.961 . S
C764 C765 1.370 . S
C764 C766 1.363 . S
C764 H780 0.931 . S
C765 C764 1.370 . S
C765 C769 1.408 . S
C766 C764 1.363 . S
C766 C767 1.370 . S
C766 C770 1.524 . S
C767 C759 1.503 . S
C767 C766 1.370 . S
C767 C768 1.403 . S
C768 C767 1.403 . S
C768 C769 1.404 . S
C768 C771 1.539 . S
C769 C765 1.408 . S
C769 C768 1.404 . S
C769 H781 0.930 . S
C770 C766 1.524 . S
C770 H782 0.956 . S
C770 H783 0.961 . S
C770 H784 0.961 . S
C771 C768 1.539 . S
C771 H785 0.958 . S
C771 H786 0.961 . S
C771 H787 0.960 . S
H772 C756 0.931 . S
H773 C761 0.929 . S
H774 C762 0.960 . S
H775 C762 0.962 . S
H776 C762 0.960 . S
H777 C763 0.961 . S
H778 C763 0.961 . S
H779 C763 0.961 . S
H780 C764 0.931 . S
H781 C769 0.930 . S
H782 C770 0.956 . S
H783 C770 0.961 . S
H784 C770 0.961 . S
H785 C771 0.958 . S
H786 C771 0.961 . S
H787 C771 0.960 . S
C788 C789 1.391 . S
C788 C790 1.394 . S
C788 H804 0.931 . S
C789 C788 1.391 . S
C789 C793 1.376 . S
C790 C788 1.394 . S
C790 C791 1.369 . S
C790 C794 1.531 . S
C791 C790 1.369 . S
C791 C792 1.410 . S
C791 C799 1.503 . S
C792 C791 1.410 . S
C792 C793 1.392 . S
C792 C795 1.511 . S
C793 C789 1.376 . S
C793 C792 1.392 . S
C793 H805 0.929 . S
C794 C790 1.531 . S
C794 H806 0.960 . S
C794 H807 0.962 . S
C794 H808 0.960 . S
C795 C792 1.511 . S
C795 H809 0.961 . S
C795 H810 0.961 . S
C795 H811 0.961 . S
C796 C797 1.370 1_455 S
C796 C798 1.363 . S
C796 H812 0.931 . S
C797 C796 1.370 1_655 S
C797 C801 1.408 . S
C798 C796 1.363 . S
C798 C799 1.370 . S
C798 C802 1.524 . S
C799 C791 1.503 . S
C799 C798 1.370 . S
C799 C800 1.403 . S
C800 C799 1.403 . S
C800 C801 1.404 1_455 S
C800 C803 1.539 . S
C801 C797 1.408 . S
C801 C800 1.404 1_655 S
C801 H813 0.930 . S
C802 C798 1.524 . S
C802 H814 0.956 . S
C802 H815 0.961 . S
C802 H816 0.961 . S
C803 C800 1.539 . S
C803 H817 0.958 . S
C803 H818 0.961 1_455 S
C803 H819 0.960 . S
H804 C788 0.931 . S
H805 C793 0.929 . S
H806 C794 0.960 . S
H807 C794 0.962 . S
H808 C794 0.960 . S
H809 C795 0.961 . S
H810 C795 0.961 . S
H811 C795 0.961 . S
H812 C796 0.931 . S
H813 C801 0.930 . S
H814 C802 0.956 . S
H815 C802 0.961 . S
H816 C802 0.961 . S
H817 C803 0.958 . S
H818 C803 0.961 1_655 S
H819 C803 0.960 . S
C820 C821 1.391 . S
C820 C822 1.394 . S
C820 H836 0.931 . S
C821 C820 1.391 . S
C821 C825 1.376 . S
C822 C820 1.394 . S
C822 C823 1.369 . S
C822 C826 1.531 . S
C823 C822 1.369 . S
C823 C824 1.410 . S
C823 C831 1.503 1_545 S
C824 C823 1.410 . S
C824 C825 1.392 . S
C824 C827 1.511 . S
C825 C821 1.376 . S
C825 C824 1.392 . S
C825 H837 0.929 . S
C826 C822 1.531 . S
C826 H838 0.960 . S
C826 H839 0.962 . S
C826 H840 0.960 . S
C827 C824 1.511 . S
C827 H841 0.961 . S
C827 H842 0.961 1_545 S
C827 H843 0.963 . S
C828 C829 1.370 . S
C828 C830 1.363 . S
C828 H844 0.931 . S
C829 C828 1.370 . S
C829 C833 1.408 . S
C830 C828 1.363 . S
C830 C831 1.370 . S
C830 C834 1.524 . S
C831 C823 1.503 1_565 S
C831 C830 1.370 . S
C831 C832 1.403 . S
C832 C831 1.403 . S
C832 C833 1.404 . S
C832 C835 1.545 . S
C833 C829 1.408 . S
C833 C832 1.404 . S
C833 H845 0.930 . S
C834 C830 1.524 . S
C834 H846 0.956 1_565 S
C834 H847 0.961 1_565 S
C834 H848 0.961 . S
C835 C832 1.545 . S
C835 H849 0.951 1_565 S
C835 H850 0.971 . S
C835 H851 0.952 1_565 S
H836 C820 0.931 . S
H837 C825 0.929 . S
H838 C826 0.960 . S
H839 C826 0.962 . S
H840 C826 0.960 . S
H841 C827 0.961 . S
H842 C827 0.961 1_565 S
H843 C827 0.963 . S
H844 C828 0.931 . S
H845 C833 0.930 . S
H846 C834 0.956 1_545 S
H847 C834 0.961 1_545 S
H848 C834 0.961 . S
H849 C835 0.951 1_545 S
H850 C835 0.971 . S
H851 C835 0.952 1_545 S
C852 C853 1.391 . S
C852 C854 1.394 . S
C852 H868 0.931 . S
C853 C852 1.391 . S
C853 C857 1.376 . S
C854 C852 1.394 . S
C854 C855 1.369 . S
C854 C858 1.531 . S
C855 C854 1.369 . S
C855 C856 1.410 . S
C855 C863 1.503 . S
C856 C855 1.410 . S
C856 C857 1.392 . S
C856 C859 1.511 . S
C857 C853 1.376 . S
C857 C856 1.392 . S
C857 H869 0.929 . S
C858 C854 1.531 . S
C858 H870 0.960 . S
C858 H871 0.962 . S
C858 H872 0.960 . S
C859 C856 1.511 . S
C859 H873 0.961 . S
C859 H874 0.961 . S
C859 H875 0.961 . S
C860 C861 1.370 . S
C860 C862 1.363 . S
C860 H876 0.931 . S
C861 C860 1.370 . S
C861 C865 1.408 . S
C862 C860 1.363 . S
C862 C863 1.370 . S
C862 C866 1.524 . S
C863 C855 1.503 . S
C863 C862 1.370 . S
C863 C864 1.403 . S
C864 C863 1.403 . S
C864 C865 1.404 . S
C864 C867 1.539 . S
C865 C861 1.408 . S
C865 C864 1.404 . S
C865 H877 0.930 . S
C866 C862 1.524 . S
C866 H878 0.956 . S
C866 H879 0.961 . S
C866 H880 0.961 . S
C867 C864 1.539 . S
C867 H881 0.958 . S
C867 H882 0.961 . S
C867 H883 0.960 . S
H868 C852 0.931 . S
H869 C857 0.929 . S
H870 C858 0.960 . S
H871 C858 0.962 . S
H872 C858 0.960 . S
H873 C859 0.961 . S
H874 C859 0.961 . S
H875 C859 0.961 . S
H876 C860 0.931 . S
H877 C865 0.930 . S
H878 C866 0.956 . S
H879 C866 0.961 . S
H880 C866 0.961 . S
H881 C867 0.958 . S
H882 C867 0.961 . S
H883 C867 0.960 . S
C884 C885 1.391 . S
C884 C886 1.394 . S
C884 H900 0.931 . S
C885 C884 1.391 . S
C885 C889 1.376 . S
C886 C884 1.394 . S
C886 C887 1.369 . S
C886 C890 1.531 . S
C887 C886 1.369 . S
C887 C888 1.410 . S
C887 C895 1.503 1_565 S
C888 C887 1.410 . S
C888 C889 1.392 . S
C888 C891 1.511 . S
C889 C885 1.376 . S
C889 C888 1.392 . S
C889 H901 0.929 . S
C890 C886 1.531 . S
C890 H902 0.985 . S
C890 H903 0.962 . S
C890 H904 0.960 . S
C891 C888 1.511 . S
C891 H905 0.961 . S
C891 H906 0.961 . S
C891 H907 0.961 . S
C892 C893 1.370 . S
C892 C894 1.363 . S
C892 H908 0.931 . S
C893 C892 1.370 . S
C893 C897 1.408 . S
C894 C892 1.363 . S
C894 C895 1.370 . S
C894 C898 1.524 1_545 S
C895 C887 1.503 1_545 S
C895 C894 1.370 . S
C895 C896 1.403 . S
C896 C895 1.403 . S
C896 C897 1.404 . S
C896 C899 1.539 . S
C897 C893 1.408 . S
C897 C896 1.404 . S
C897 H909 0.930 . S
C898 C894 1.524 1_565 S
C898 H910 0.956 . S
C898 H911 0.961 . S
C898 H912 0.961 . S
C899 C896 1.539 . S
C899 H913 0.958 . S
C899 H914 0.961 . S
C899 H915 0.960 . S
H900 C884 0.931 . S
H901 C889 0.929 . S
H902 C890 0.985 . S
H903 C890 0.962 . S
H904 C890 0.960 . S
H905 C891 0.961 . S
H906 C891 0.961 . S
H907 C891 0.961 . S
H908 C892 0.931 . S
H909 C897 0.930 . S
H910 C898 0.956 . S
H911 C898 0.961 . S
H912 C898 0.961 . S
H913 C899 0.958 . S
H914 C899 0.961 . S
H915 C899 0.960 . S
C916 C917 1.391 . S
C916 C918 1.394 . S
C916 H932 0.931 . S
C917 C916 1.391 . S
C917 C921 1.376 . S
C918 C916 1.394 . S
C918 C919 1.369 . S
C918 C922 1.531 . S
C919 C918 1.369 . S
C919 C920 1.410 . S
C919 C927 1.503 . S
C920 C919 1.410 . S
C920 C921 1.392 . S
C920 C923 1.511 . S
C921 C917 1.376 . S
C921 C920 1.392 . S
C921 H933 0.929 . S
C922 C918 1.531 . S
C922 H934 0.960 . S
C922 H935 0.962 . S
C922 H936 0.960 . S
C923 C920 1.511 . S
C923 H937 0.961 . S
C923 H938 0.961 . S
C923 H939 0.961 . S
C924 C925 1.370 . S
C924 C926 1.363 . S
C924 H940 0.931 . S
C925 C924 1.370 . S
C925 C929 1.408 . S
C926 C924 1.363 . S
C926 C927 1.370 . S
C926 C930 1.524 . S
C927 C919 1.503 . S
C927 C926 1.370 . S
C927 C928 1.403 . S
C928 C927 1.403 . S
C928 C929 1.404 . S
C928 C931 1.539 . S
C929 C925 1.408 . S
C929 C928 1.404 . S
C929 H941 0.930 . S
C930 C926 1.524 . S
C930 H942 0.956 . S
C930 H943 0.961 . S
C930 H944 0.961 . S
C931 C928 1.539 . S
C931 H945 0.958 . S
C931 H946 0.961 . S
C931 H947 0.960 . S
H932 C916 0.931 . S
H933 C921 0.929 . S
H934 C922 0.960 . S
H935 C922 0.962 . S
H936 C922 0.960 . S
H937 C923 0.961 . S
H938 C923 0.961 . S
H939 C923 0.961 . S
H940 C924 0.931 . S
H941 C929 0.930 . S
H942 C930 0.956 . S
H943 C930 0.961 . S
H944 C930 0.961 . S
H945 C931 0.958 . S
H946 C931 0.961 . S
H947 C931 0.960 . S
C948 C949 1.391 . S
C948 C950 1.394 . S
C948 H964 0.931 . S
C949 C948 1.391 . S
C949 C953 1.376 . S
C950 C948 1.394 . S
C950 C951 1.369 . S
C950 C954 1.531 . S
C951 C950 1.369 . S
C951 C952 1.410 . S
C951 C959 1.503 . S
C952 C951 1.410 . S
C952 C953 1.392 . S
C952 C955 1.511 . S
C953 C949 1.376 . S
C953 C952 1.392 . S
C953 H965 0.929 . S
C954 C950 1.531 . S
C954 H966 0.960 . S
C954 H967 0.962 . S
C954 H968 0.960 . S
C955 C952 1.511 . S
C955 H969 0.961 . S
C955 H970 0.961 . S
C955 H971 0.961 . S
C956 C957 1.370 . S
C956 C958 1.363 . S
C956 H972 0.931 . S
C957 C956 1.370 . S
C957 C961 1.408 . S
C958 C956 1.363 . S
C958 C959 1.370 . S
C958 C962 1.524 . S
C959 C951 1.503 . S
C959 C958 1.370 . S
C959 C960 1.403 . S
C960 C959 1.403 . S
C960 C961 1.404 . S
C960 C963 1.539 . S
C961 C957 1.408 . S
C961 C960 1.404 . S
C961 H973 0.930 . S
C962 C958 1.524 . S
C962 H974 0.956 . S
C962 H975 0.961 . S
C962 H976 0.961 . S
C963 C960 1.539 . S
C963 H977 0.958 . S
C963 H978 0.961 . S
C963 H979 0.960 . S
H964 C948 0.931 . S
H965 C953 0.929 . S
H966 C954 0.960 . S
H967 C954 0.962 . S
H968 C954 0.960 . S
H969 C955 0.961 . S
H970 C955 0.961 . S
H971 C955 0.961 . S
H972 C956 0.931 . S
H973 C961 0.930 . S
H974 C962 0.956 . S
H975 C962 0.961 . S
H976 C962 0.961 . S
H977 C963 0.958 . S
H978 C963 0.961 . S
H979 C963 0.960 . S
C980 C981 1.391 . S
C980 C982 1.394 . S
C980 H996 0.931 . S
C981 C980 1.391 . S
C981 C985 1.376 . S
C982 C980 1.394 . S
C982 C983 1.369 . S
C982 C986 1.531 . S
C983 C982 1.369 . S
C983 C984 1.410 . S
C983 C991 1.503 1_455 S
C984 C983 1.410 . S
C984 C985 1.392 . S
C984 C987 1.511 . S
C985 C981 1.376 . S
C985 C984 1.392 . S
C985 H997 0.929 . S
C986 C982 1.531 . S
C986 H998 0.960 1_455 S
C986 H999 0.962 1_455 S
C986 H1000 0.960 . S
C987 C984 1.511 . S
C987 H1001 0.961 . S
C987 H1002 0.961 . S
C987 H1003 0.961 . S
C988 C989 1.370 . S
C988 C990 1.363 . S
C988 H1004 0.931 . S
C989 C988 1.370 . S
C989 C993 1.408 . S
C990 C988 1.363 . S
C990 C991 1.370 . S
C990 C994 1.524 1_655 S
C991 C983 1.503 1_655 S
C991 C990 1.370 . S
C991 C992 1.403 . S
C992 C991 1.403 . S
C992 C993 1.404 . S
C992 C995 1.539 . S
C993 C989 1.408 . S
C993 C992 1.404 . S
C993 H1005 0.930 . S
C994 C990 1.524 1_455 S
C994 H1006 0.956 . S
C994 H1007 0.961 . S
C994 H1008 0.961 1_455 S
C995 C992 1.539 . S
C995 H1009 0.958 . S
C995 H1010 0.961 . S
C995 H1011 0.960 1_655 S
H996 C980 0.931 . S
H997 C985 0.929 . S
H998 C986 0.960 1_655 S
H999 C986 0.962 1_655 S
H1000 C986 0.960 . S
H1001 C987 0.961 . S
H1002 C987 0.961 . S
H1003 C987 0.961 . S
H1004 C988 0.931 . S
H1005 C993 0.930 . S
H1006 C994 0.956 . S
H1007 C994 0.961 . S
H1008 C994 0.961 1_655 S
H1009 C995 0.958 . S
H1010 C995 0.961 . S
H1011 C995 0.960 1_455 S
C1012 C1013 1.391 . S
C1012 C1014 1.394 . S
C1012 H1028 0.931 . S
C1013 C1012 1.391 . S
C1013 C1017 1.376 . S
C1014 C1012 1.394 . S
C1014 C1015 1.369 . S
C1014 C1018 1.531 . S
C1015 C1014 1.369 . S
C1015 C1016 1.410 . S
C1015 C1023 1.503 . S
C1016 C1015 1.410 . S
C1016 C1017 1.392 . S
C1016 C1019 1.511 . S
C1017 C1013 1.376 . S
C1017 C1016 1.392 . S
C1017 H1029 0.929 . S
C1018 C1014 1.531 . S
C1018 H1030 0.960 . S
C1018 H1031 0.962 . S
C1018 H1032 0.960 . S
C1019 C1016 1.511 . S
C1019 H1033 0.961 . S
C1019 H1034 0.961 . S
C1019 H1035 0.961 . S
C1020 C1021 1.370 . S
C1020 C1022 1.363 . S
C1020 H1036 0.931 . S
C1021 C1020 1.370 . S
C1021 C1025 1.408 . S
C1022 C1020 1.363 . S
C1022 C1023 1.370 . S
C1022 C1026 1.524 . S
C1023 C1015 1.503 . S
C1023 C1022 1.370 . S
C1023 C1024 1.403 . S
C1024 C1023 1.403 . S
C1024 C1025 1.404 . S
C1024 C1027 1.539 . S
C1025 C1021 1.408 . S
C1025 C1024 1.404 . S
C1025 H1037 0.930 . S
C1026 C1022 1.524 . S
C1026 H1038 0.956 . S
C1026 H1039 0.961 . S
C1026 H1040 0.961 . S
C1027 C1024 1.539 . S
C1027 H1041 0.958 . S
C1027 H1042 0.961 . S
C1027 H1043 0.960 . S
H1028 C1012 0.931 . S
H1029 C1017 0.929 . S
H1030 C1018 0.960 . S
H1031 C1018 0.962 . S
H1032 C1018 0.960 . S
H1033 C1019 0.961 . S
H1034 C1019 0.961 . S
H1035 C1019 0.961 . S
H1036 C1020 0.931 . S
H1037 C1025 0.930 . S
H1038 C1026 0.956 . S
H1039 C1026 0.961 . S
H1040 C1026 0.961 . S
H1041 C1027 0.958 . S
H1042 C1027 0.961 . S
H1043 C1027 0.960 . S
C1044 C1045 1.391 . S
C1044 C1046 1.394 . S
C1044 H1060 0.931 . S
C1045 C1044 1.391 . S
C1045 C1049 1.376 . S
C1046 C1044 1.394 . S
C1046 C1047 1.369 . S
C1046 C1050 1.531 . S
C1047 C1046 1.369 . S
C1047 C1048 1.410 . S
C1047 C1055 1.465 1_655 S
C1048 C1047 1.410 . S
C1048 C1049 1.392 . S
C1048 C1051 1.511 . S
C1049 C1045 1.376 . S
C1049 C1048 1.392 . S
C1049 H1061 0.929 . S
C1050 C1046 1.531 . S
C1050 H1062 0.960 . S
C1050 H1063 0.962 . S
C1050 H1064 0.960 . S
C1051 C1048 1.511 . S
C1051 H1065 0.961 . S
C1051 H1066 0.961 1_655 S
C1051 H1067 0.961 . S
C1052 C1053 1.370 . S
C1052 C1054 1.363 . S
C1052 H1068 0.931 . S
C1053 C1052 1.370 . S
C1053 C1057 1.408 . S
C1054 C1052 1.363 . S
C1054 C1055 1.393 . S
C1054 C1058 1.524 . S
C1055 C1047 1.465 1_455 S
C1055 C1054 1.393 . S
C1055 C1056 1.419 . S
C1056 C1055 1.419 . S
C1056 C1057 1.404 . S
C1056 C1059 1.539 1_455 S
C1057 C1053 1.408 . S
C1057 C1056 1.404 . S
C1057 H1069 0.930 . S
C1058 C1054 1.524 . S
C1058 H1070 0.956 1_455 S
C1058 H1071 0.950 1_455 S
C1058 H1072 0.961 . S
C1059 C1056 1.539 1_655 S
C1059 H1073 0.958 . S
C1059 H1074 0.961 1_655 S
C1059 H1075 0.960 . S
H1060 C1044 0.931 . S
H1061 C1049 0.929 . S
H1062 C1050 0.960 . S
H1063 C1050 0.962 . S
H1064 C1050 0.960 . S
H1065 C1051 0.961 . S
H1066 C1051 0.961 1_455 S
H1067 C1051 0.961 . S
H1068 C1052 0.931 . S
H1069 C1057 0.930 . S
H1070 C1058 0.956 1_655 S
H1071 C1058 0.950 1_655 S
H1072 C1058 0.961 . S
H1073 C1059 0.958 . S
H1074 C1059 0.961 1_455 S
H1075 C1059 0.960 . S
C1076 C1077 1.391 . S
C1076 C1078 1.394 . S
C1076 H1092 0.931 . S
C1077 C1076 1.391 . S
C1077 C1081 1.376 . S
C1078 C1076 1.394 . S
C1078 C1079 1.369 . S
C1078 C1082 1.531 . S
C1079 C1078 1.369 . S
C1079 C1080 1.410 . S
C1079 C1087 1.503 . S
C1080 C1079 1.410 . S
C1080 C1081 1.392 . S
C1080 C1083 1.511 . S
C1081 C1077 1.376 . S
C1081 C1080 1.392 . S
C1081 H1093 0.929 . S
C1082 C1078 1.531 . S
C1082 H1094 0.960 . S
C1082 H1095 0.962 . S
C1082 H1096 0.960 . S
C1083 C1080 1.511 . S
C1083 H1097 0.961 . S
C1083 H1098 0.961 . S
C1083 H1099 0.961 . S
C1084 C1085 1.370 . S
C1084 C1086 1.363 . S
C1084 H1100 0.931 . S
C1085 C1084 1.370 . S
C1085 C1089 1.408 . S
C1086 C1084 1.363 . S
C1086 C1087 1.370 . S
C1086 C1090 1.524 . S
C1087 C1079 1.503 . S
C1087 C1086 1.370 . S
C1087 C1088 1.403 . S
C1088 C1087 1.403 . S
C1088 C1089 1.404 . S
C1088 C1091 1.539 . S
C1089 C1085 1.408 . S
C1089 C1088 1.404 . S
C1089 H1101 0.930 . S
C1090 C1086 1.524 . S
C1090 H1102 0.956 . S
C1090 H1103 0.961 . S
C1090 H1104 0.961 . S
C1091 C1088 1.539 . S
C1091 H1105 0.958 . S
C1091 H1106 0.961 . S
C1091 H1107 0.960 . S
H1092 C1076 0.931 . S
H1093 C1081 0.929 . S
H1094 C1082 0.960 . S
H1095 C1082 0.962 . S
H1096 C1082 0.960 . S
H1097 C1083 0.961 . S
H1098 C1083 0.961 . S
H1099 C1083 0.961 . S
H1100 C1084 0.931 . S
H1101 C1089 0.930 . S
H1102 C1090 0.956 . S
H1103 C1090 0.961 . S
H1104 C1090 0.961 . S
H1105 C1091 0.958 . S
H1106 C1091 0.961 . S
H1107 C1091 0.960 . S
C1108 C1109 1.391 . S
C1108 C1110 1.394 . S
C1108 H1124 0.931 . S
C1109 C1108 1.391 . S
C1109 C1113 1.376 . S
C1110 C1108 1.394 . S
C1110 C1111 1.369 . S
C1110 C1114 1.531 . S
C1111 C1110 1.369 . S
C1111 C1112 1.410 . S
C1111 C1119 1.503 . S
C1112 C1111 1.410 . S
C1112 C1113 1.392 . S
C1112 C1115 1.511 . S
C1113 C1109 1.376 . S
C1113 C1112 1.392 . S
C1113 H1125 0.929 . S
C1114 C1110 1.531 . S
C1114 H1126 0.960 . S
C1114 H1127 0.962 . S
C1114 H1128 0.960 . S
C1115 C1112 1.511 . S
C1115 H1129 0.961 . S
C1115 H1130 0.961 . S
C1115 H1131 0.961 . S
C1116 C1117 1.370 . S
C1116 C1118 1.363 . S
C1116 H1132 0.931 . S
C1117 C1116 1.370 . S
C1117 C1121 1.408 . S
C1118 C1116 1.363 . S
C1118 C1119 1.370 . S
C1118 C1122 1.524 . S
C1119 C1111 1.503 . S
C1119 C1118 1.370 . S
C1119 C1120 1.403 . S
C1120 C1119 1.403 . S
C1120 C1121 1.404 . S
C1120 C1123 1.539 . S
C1121 C1117 1.408 . S
C1121 C1120 1.404 . S
C1121 H1133 0.930 . S
C1122 C1118 1.524 . S
C1122 H1134 0.956 . S
C1122 H1135 0.961 . S
C1122 H1136 0.961 . S
C1123 C1120 1.539 . S
C1123 H1137 0.958 . S
C1123 H1138 0.961 . S
C1123 H1139 0.960 . S
H1124 C1108 0.931 . S
H1125 C1113 0.929 . S
H1126 C1114 0.960 . S
H1127 C1114 0.962 . S
H1128 C1114 0.960 . S
H1129 C1115 0.961 . S
H1130 C1115 0.961 . S
H1131 C1115 0.961 . S
H1132 C1116 0.931 . S
H1133 C1121 0.930 . S
H1134 C1122 0.956 . S
H1135 C1122 0.961 . S
H1136 C1122 0.961 . S
H1137 C1123 0.958 . S
H1138 C1123 0.961 . S
H1139 C1123 0.960 . S
C1140 C1141 1.391 . S
C1140 C1142 1.394 . S
C1140 H1156 0.931 . S
C1141 C1140 1.391 . S
C1141 C1145 1.376 . S
C1142 C1140 1.394 . S
C1142 C1143 1.369 . S
C1142 C1146 1.531 . S
C1143 C1142 1.369 . S
C1143 C1144 1.410 . S
C1143 C1151 1.503 . S
C1144 C1143 1.410 . S
C1144 C1145 1.392 . S
C1144 C1147 1.511 . S
C1145 C1141 1.376 . S
C1145 C1144 1.392 . S
C1145 H1157 0.929 . S
C1146 C1142 1.531 . S
C1146 H1158 0.960 . S
C1146 H1159 0.962 . S
C1146 H1160 0.960 . S
C1147 C1144 1.511 . S
C1147 H1161 0.961 . S
C1147 H1162 0.961 . S
C1147 H1163 0.961 . S
C1148 C1149 1.370 . S
C1148 C1150 1.363 . S
C1148 H1164 0.931 . S
C1149 C1148 1.370 . S
C1149 C1153 1.408 . S
C1150 C1148 1.363 . S
C1150 C1151 1.370 . S
C1150 C1154 1.524 . S
C1151 C1143 1.503 . S
C1151 C1150 1.370 . S
C1151 C1152 1.403 . S
C1152 C1151 1.403 . S
C1152 C1153 1.404 . S
C1152 C1155 1.539 . S
C1153 C1149 1.408 . S
C1153 C1152 1.404 . S
C1153 H1165 0.930 . S
C1154 C1150 1.524 . S
C1154 H1166 0.956 . S
C1154 H1167 0.961 . S
C1154 H1168 0.961 . S
C1155 C1152 1.539 . S
C1155 H1169 0.958 . S
C1155 H1170 0.961 . S
C1155 H1171 0.960 . S
H1156 C1140 0.931 . S
H1157 C1145 0.929 . S
H1158 C1146 0.960 . S
H1159 C1146 0.962 . S
H1160 C1146 0.960 . S
H1161 C1147 0.961 . S
H1162 C1147 0.961 . S
H1163 C1147 0.961 . S
H1164 C1148 0.931 . S
H1165 C1153 0.930 . S
H1166 C1154 0.956 . S
H1167 C1154 0.961 . S
H1168 C1154 0.961 . S
H1169 C1155 0.958 . S
H1170 C1155 0.961 . S
H1171 C1155 0.960 . S
C1172 C1173 1.391 . S
C1172 C1174 1.394 . S
C1172 H1188 0.931 . S
C1173 C1172 1.391 . S
C1173 C1177 1.376 . S
C1174 C1172 1.394 . S
C1174 C1175 1.369 . S
C1174 C1178 1.531 . S
C1175 C1174 1.369 . S
C1175 C1176 1.410 . S
C1175 C1183 1.503 . S
C1176 C1175 1.410 . S
C1176 C1177 1.392 . S
C1176 C1179 1.511 . S
C1177 C1173 1.376 . S
C1177 C1176 1.392 . S
C1177 H1189 0.929 . S
C1178 C1174 1.531 . S
C1178 H1190 0.960 . S
C1178 H1191 0.962 . S
C1178 H1192 0.960 . S
C1179 C1176 1.511 . S
C1179 H1193 0.961 . S
C1179 H1194 0.961 . S
C1179 H1195 0.961 . S
C1180 C1181 1.370 . S
C1180 C1182 1.363 . S
C1180 H1196 0.931 . S
C1181 C1180 1.370 . S
C1181 C1185 1.408 . S
C1182 C1180 1.363 . S
C1182 C1183 1.370 . S
C1182 C1186 1.524 . S
C1183 C1175 1.503 . S
C1183 C1182 1.370 . S
C1183 C1184 1.403 . S
C1184 C1183 1.403 . S
C1184 C1185 1.404 . S
C1184 C1187 1.539 . S
C1185 C1181 1.408 . S
C1185 C1184 1.404 . S
C1185 H1197 0.930 . S
C1186 C1182 1.524 . S
C1186 H1198 0.956 . S
C1186 H1199 0.961 . S
C1186 H1200 0.961 . S
C1187 C1184 1.539 . S
C1187 H1201 0.958 . S
C1187 H1202 0.961 . S
C1187 H1203 0.960 . S
H1188 C1172 0.931 . S
H1189 C1177 0.929 . S
H1190 C1178 0.960 . S
H1191 C1178 0.962 . S
H1192 C1178 0.960 . S
H1193 C1179 0.961 . S
H1194 C1179 0.961 . S
H1195 C1179 0.961 . S
H1196 C1180 0.931 . S
H1197 C1185 0.930 . S
H1198 C1186 0.956 . S
H1199 C1186 0.961 . S
H1200 C1186 0.961 . S
H1201 C1187 0.958 . S
H1202 C1187 0.961 . S
H1203 C1187 0.960 . S
C1204 C1205 1.391 . S
C1204 C1206 1.394 . S
C1204 H1220 0.931 . S
C1205 C1204 1.391 . S
C1205 C1209 1.376 . S
C1206 C1204 1.394 . S
C1206 C1207 1.369 . S
C1206 C1210 1.531 . S
C1207 C1206 1.369 . S
C1207 C1208 1.410 . S
C1207 C1215 1.503 . S
C1208 C1207 1.410 . S
C1208 C1209 1.392 . S
C1208 C1211 1.511 . S
C1209 C1205 1.376 . S
C1209 C1208 1.392 . S
C1209 H1221 0.929 . S
C1210 C1206 1.531 . S
C1210 H1222 0.960 . S
C1210 H1223 0.962 . S
C1210 H1224 0.960 . S
C1211 C1208 1.511 . S
C1211 H1225 0.961 . S
C1211 H1226 0.961 . S
C1211 H1227 0.961 . S
C1212 C1213 1.370 . S
C1212 C1214 1.363 . S
C1212 H1228 0.931 . S
C1213 C1212 1.370 . S
C1213 C1217 1.408 . S
C1214 C1212 1.363 . S
C1214 C1215 1.370 . S
C1214 C1218 1.524 . S
C1215 C1207 1.503 . S
C1215 C1214 1.370 . S
C1215 C1216 1.403 . S
C1216 C1215 1.403 . S
C1216 C1217 1.404 . S
C1216 C1219 1.539 . S
C1217 C1213 1.408 . S
C1217 C1216 1.404 . S
C1217 H1229 0.930 . S
C1218 C1214 1.524 . S
C1218 H1230 0.956 . S
C1218 H1231 0.961 . S
C1218 H1232 0.961 . S
C1219 C1216 1.539 . S
C1219 H1233 0.958 . S
C1219 H1234 0.961 . S
C1219 H1235 0.960 . S
H1220 C1204 0.931 . S
H1221 C1209 0.929 . S
H1222 C1210 0.960 . S
H1223 C1210 0.962 . S
H1224 C1210 0.960 . S
H1225 C1211 0.961 . S
H1226 C1211 0.961 . S
H1227 C1211 0.961 . S
H1228 C1212 0.931 . S
H1229 C1217 0.930 . S
H1230 C1218 0.956 . S
H1231 C1218 0.961 . S
H1232 C1218 0.961 . S
H1233 C1219 0.958 . S
H1234 C1219 0.961 . S
H1235 C1219 0.960 . S
C1236 C1237 1.391 . S
C1236 C1238 1.394 . S
C1236 H1252 0.931 . S
C1237 C1236 1.391 . S
C1237 C1241 1.376 . S
C1238 C1236 1.394 . S
C1238 C1239 1.369 . S
C1238 C1242 1.531 . S
C1239 C1238 1.369 . S
C1239 C1240 1.410 . S
C1239 C1247 1.503 . S
C1240 C1239 1.410 . S
C1240 C1241 1.392 . S
C1240 C1243 1.511 . S
C1241 C1237 1.376 . S
C1241 C1240 1.392 . S
C1241 H1253 0.929 . S
C1242 C1238 1.531 . S
C1242 H1254 0.960 . S
C1242 H1255 0.962 . S
C1242 H1256 0.960 . S
C1243 C1240 1.511 . S
C1243 H1257 0.961 . S
C1243 H1258 0.961 . S
C1243 H1259 0.961 . S
C1244 C1245 1.370 . S
C1244 C1246 1.363 . S
C1244 H1260 0.931 . S
C1245 C1244 1.370 . S
C1245 C1249 1.408 . S
C1246 C1244 1.363 . S
C1246 C1247 1.370 . S
C1246 C1250 1.524 . S
C1247 C1239 1.503 . S
C1247 C1246 1.370 . S
C1247 C1248 1.403 . S
C1248 C1247 1.403 . S
C1248 C1249 1.404 . S
C1248 C1251 1.539 . S
C1249 C1245 1.408 . S
C1249 C1248 1.404 . S
C1249 H1261 0.930 . S
C1250 C1246 1.524 . S
C1250 H1262 0.956 . S
C1250 H1263 0.961 . S
C1250 H1264 0.961 . S
C1251 C1248 1.539 . S
C1251 H1265 0.958 . S
C1251 H1266 0.961 . S
C1251 H1267 0.960 . S
H1252 C1236 0.931 . S
H1253 C1241 0.929 . S
H1254 C1242 0.960 . S
H1255 C1242 0.962 . S
H1256 C1242 0.960 . S
H1257 C1243 0.961 . S
H1258 C1243 0.961 . S
H1259 C1243 0.961 . S
H1260 C1244 0.931 . S
H1261 C1249 0.930 . S
H1262 C1250 0.956 . S
H1263 C1250 0.961 . S
H1264 C1250 0.961 . S
H1265 C1251 0.958 . S
H1266 C1251 0.961 . S
H1267 C1251 0.960 . S
C1268 C1269 1.391 . S
C1268 C1270 1.394 . S
C1268 H1284 0.931 . S
C1269 C1268 1.391 . S
C1269 C1273 1.376 . S
C1270 C1268 1.394 . S
C1270 C1271 1.369 . S
C1270 C1274 1.531 . S
C1271 C1270 1.369 . S
C1271 C1272 1.410 . S
C1271 C1279 1.503 . S
C1272 C1271 1.410 . S
C1272 C1273 1.392 . S
C1272 C1275 1.511 . S
C1273 C1269 1.376 . S
C1273 C1272 1.392 . S
C1273 H1285 0.929 . S
C1274 C1270 1.531 . S
C1274 H1286 0.960 . S
C1274 H1287 0.962 . S
C1274 H1288 0.960 . S
C1275 C1272 1.511 . S
C1275 H1289 0.961 . S
C1275 H1290 0.961 . S
C1275 H1291 0.961 . S
C1276 C1277 1.370 . S
C1276 C1278 1.363 . S
C1276 H1292 0.931 . S
C1277 C1276 1.370 . S
C1277 C1281 1.408 . S
C1278 C1276 1.363 . S
C1278 C1279 1.370 . S
C1278 C1282 1.524 . S
C1279 C1271 1.503 . S
C1279 C1278 1.370 . S
C1279 C1280 1.403 . S
C1280 C1279 1.403 . S
C1280 C1281 1.404 . S
C1280 C1283 1.539 . S
C1281 C1277 1.408 . S
C1281 C1280 1.404 . S
C1281 H1293 0.930 . S
C1282 C1278 1.524 . S
C1282 H1294 0.956 . S
C1282 H1295 0.961 . S
C1282 H1296 0.961 . S
C1283 C1280 1.539 . S
C1283 H1297 0.958 . S
C1283 H1298 0.961 . S
C1283 H1299 0.960 . S
H1284 C1268 0.931 . S
H1285 C1273 0.929 . S
H1286 C1274 0.960 . S
H1287 C1274 0.962 . S
H1288 C1274 0.960 . S
H1289 C1275 0.961 . S
H1290 C1275 0.961 . S
H1291 C1275 0.961 . S
H1292 C1276 0.931 . S
H1293 C1281 0.930 . S
H1294 C1282 0.956 . S
H1295 C1282 0.961 . S
H1296 C1282 0.961 . S
H1297 C1283 0.958 . S
H1298 C1283 0.961 . S
H1299 C1283 0.960 . S
C1300 C1301 1.391 . S
C1300 C1302 1.394 . S
C1300 H1316 0.931 . S
C1301 C1300 1.391 . S
C1301 C1305 1.376 . S
C1302 C1300 1.394 . S
C1302 C1303 1.369 . S
C1302 C1306 1.531 . S
C1303 C1302 1.369 . S
C1303 C1304 1.410 . S
C1303 C1311 1.503 . S
C1304 C1303 1.410 . S
C1304 C1305 1.392 . S
C1304 C1307 1.511 . S
C1305 C1301 1.376 . S
C1305 C1304 1.392 . S
C1305 H1317 0.929 . S
C1306 C1302 1.531 . S
C1306 H1318 0.960 . S
C1306 H1319 0.962 . S
C1306 H1320 0.960 . S
C1307 C1304 1.511 . S
C1307 H1321 0.961 . S
C1307 H1322 0.961 . S
C1307 H1323 0.961 . S
C1308 C1309 1.370 . S
C1308 C1310 1.363 . S
C1308 H1324 0.931 . S
C1309 C1308 1.370 . S
C1309 C1313 1.408 . S
C1310 C1308 1.363 . S
C1310 C1311 1.370 . S
C1310 C1314 1.524 . S
C1311 C1303 1.503 . S
C1311 C1310 1.370 . S
C1311 C1312 1.403 . S
C1312 C1311 1.403 . S
C1312 C1313 1.404 . S
C1312 C1315 1.539 . S
C1313 C1309 1.408 . S
C1313 C1312 1.404 . S
C1313 H1325 0.930 . S
C1314 C1310 1.524 . S
C1314 H1326 0.956 . S
C1314 H1327 0.961 . S
C1314 H1328 0.961 . S
C1315 C1312 1.539 . S
C1315 H1329 0.958 . S
C1315 H1330 0.961 . S
C1315 H1331 0.960 . S
H1316 C1300 0.931 . S
H1317 C1305 0.929 . S
H1318 C1306 0.960 . S
H1319 C1306 0.962 . S
H1320 C1306 0.960 . S
H1321 C1307 0.961 . S
H1322 C1307 0.961 . S
H1323 C1307 0.961 . S
H1324 C1308 0.931 . S
H1325 C1313 0.930 . S
H1326 C1314 0.956 . S
H1327 C1314 0.961 . S
H1328 C1314 0.961 . S
H1329 C1315 0.958 . S
H1330 C1315 0.961 . S
H1331 C1315 0.960 . S
C565 C7 0.728 . S
C573 C85 0.806 . S
C597 C25 0.830 . S
C605 C164 0.780 . S
C629 C46 0.849 . S
C637 C235 0.779 . S
C669 C295 0.789 . S
C661 C70 0.752 . S
C701 C325 0.762 . S
C693 C28 0.709 . S
C725 C49 0.814 . S
C733 C415 0.810 . S
C757 C67 0.763 . S
C765 C475 0.814 . S
C789 C4 0.864 . S
C797 C524 0.794 . S
C821 C58 1.685 . S
C829 C505 1.677 . S
C861 C344 1.778 . S
C853 C66 1.693 . S
C893 C404 1.679 . S
C885 C3 1.727 . S
C917 C37 1.719 . S
C925 C464 1.673 . S
C957 C145 1.695 . S
C949 C79 1.708 . S
C981 C16 1.701 . S
C989 C224 1.696 . S
C1021 C284 1.687 . S
C1013 C24 1.663 . S
C1053 C104 1.776 . S
C1045 C45 1.679 . S
C1085 C445 1.100 . S
C1077 C19 1.066 . S
C1117 C535 1.114 . S
C1109 C41 0.946 . S
C1141 C62 1.066 . S
C1149 C355 1.108 . S
C1181 C385 1.094 . S
C1173 C82 1.040 . S
C1213 C205 1.090 . S
C1205 C40 0.985 . S
C1237 C61 0.930 . S
C1245 C265 1.113 . S
C1277 C115 1.113 . S
C1269 C83 1.054 . S
C1309 C175 1.090 . S
C1301 C20 0.968 . S
