# Generated by pormake.
# Topology ptr, (4,4)-cn, num edge types: 1
# Building blocks:
#     Node 0, Type 0, BuildingBlock: KUFVIS_clean_sbu_0, # of connection points: 4
#     Node 1, Type 0, BuildingBlock: KUFVIS_clean_sbu_0, # of connection points: 4
#     Node 2, Type 0, BuildingBlock: KUFVIS_clean_sbu_0, # of connection points: 4
#     Node 3, Type 0, BuildingBlock: KUFVIS_clean_sbu_0, # of connection points: 4
#     Node 4, Type 0, BuildingBlock: KUFVIS_clean_sbu_0, # of connection points: 4
#     Node 5, Type 0, BuildingBlock: KUFVIS_clean_sbu_0, # of connection points: 4
#     Node 6, Type 0, BuildingBlock: KUFVIS_clean_sbu_0, # of connection points: 4
#     Node 7, Type 0, BuildingBlock: KUFVIS_clean_sbu_0, # of connection points: 4
#     Node 8, Type 0, BuildingBlock: KUFVIS_clean_sbu_0, # of connection points: 4
#     Node 9, Type 0, BuildingBlock: KUFVIS_clean_sbu_0, # of connection points: 4
#     Node 10, Type 0, BuildingBlock: KUFVIS_clean_sbu_0, # of connection points: 4
#     Node 11, Type 0, BuildingBlock: KUFVIS_clean_sbu_0, # of connection points: 4
#     Node 12, Type 0, BuildingBlock: KUFVIS_clean_sbu_0, # of connection points: 4
#     Node 13, Type 0, BuildingBlock: KUFVIS_clean_sbu_0, # of connection points: 4
#     Node 14, Type 0, BuildingBlock: KUFVIS_clean_sbu_0, # of connection points: 4
#     Node 15, Type 0, BuildingBlock: KUFVIS_clean_sbu_0, # of connection points: 4
#     Node 16, Type 0, BuildingBlock: KUFVIS_clean_sbu_0, # of connection points: 4
#     Node 17, Type 0, BuildingBlock: KUFVIS_clean_sbu_0, # of connection points: 4
#     Node 18, Type 1, BuildingBlock: MUDLON_clean_linker_0, # of connection points: 4
#     Node 19, Type 1, BuildingBlock: MUDLON_clean_linker_0, # of connection points: 4
#     Node 20, Type 1, BuildingBlock: MUDLON_clean_linker_0, # of connection points: 4
#     Node 21, Type 1, BuildingBlock: MUDLON_clean_linker_0, # of connection points: 4
#     Node 22, Type 1, BuildingBlock: MUDLON_clean_linker_0, # of connection points: 4
#     Node 23, Type 1, BuildingBlock: MUDLON_clean_linker_0, # of connection points: 4
#     Node 24, Type 1, BuildingBlock: MUDLON_clean_linker_0, # of connection points: 4
#     Node 25, Type 1, BuildingBlock: MUDLON_clean_linker_0, # of connection points: 4
#     Node 26, Type 1, BuildingBlock: MUDLON_clean_linker_0, # of connection points: 4
#     Node 27, Type 1, BuildingBlock: MUDLON_clean_linker_0, # of connection points: 4
#     Node 28, Type 1, BuildingBlock: MUDLON_clean_linker_0, # of connection points: 4
#     Node 29, Type 1, BuildingBlock: MUDLON_clean_linker_0, # of connection points: 4
#     Node 30, Type 1, BuildingBlock: MUDLON_clean_linker_0, # of connection points: 4
#     Node 31, Type 1, BuildingBlock: MUDLON_clean_linker_0, # of connection points: 4
#     Node 32, Type 1, BuildingBlock: MUDLON_clean_linker_0, # of connection points: 4
#     Node 33, Type 1, BuildingBlock: MUDLON_clean_linker_0, # of connection points: 4
#     Node 34, Type 1, BuildingBlock: MUDLON_clean_linker_0, # of connection points: 4
#     Node 35, Type 1, BuildingBlock: MUDLON_clean_linker_0, # of connection points: 4
#     Edge 36, Type (0, 1), BuildingBlock: AJUNOK_clean_linker_0, # of connection points: 2
#     Edge 37, Type (0, 1), BuildingBlock: AJUNOK_clean_linker_0, # of connection points: 2
#     Edge 38, Type (0, 1), BuildingBlock: AJUNOK_clean_linker_0, # of connection points: 2
#     Edge 39, Type (0, 1), BuildingBlock: AJUNOK_clean_linker_0, # of connection points: 2
#     Edge 40, Type (0, 1), BuildingBlock: AJUNOK_clean_linker_0, # of connection points: 2
#     Edge 41, Type (0, 1), BuildingBlock: AJUNOK_clean_linker_0, # of connection points: 2
#     Edge 42, Type (0, 1), BuildingBlock: AJUNOK_clean_linker_0, # of connection points: 2
#     Edge 43, Type (0, 1), BuildingBlock: AJUNOK_clean_linker_0, # of connection points: 2
#     Edge 44, Type (0, 1), BuildingBlock: AJUNOK_clean_linker_0, # of connection points: 2
#     Edge 45, Type (0, 1), BuildingBlock: AJUNOK_clean_linker_0, # of connection points: 2
#     Edge 46, Type (0, 1), BuildingBlock: AJUNOK_clean_linker_0, # of connection points: 2
#     Edge 47, Type (0, 1), BuildingBlock: AJUNOK_clean_linker_0, # of connection points: 2
#     Edge 48, Type (0, 1), BuildingBlock: AJUNOK_clean_linker_0, # of connection points: 2
#     Edge 49, Type (0, 1), BuildingBlock: AJUNOK_clean_linker_0, # of connection points: 2
#     Edge 50, Type (0, 1), BuildingBlock: AJUNOK_clean_linker_0, # of connection points: 2
#     Edge 51, Type (0, 1), BuildingBlock: AJUNOK_clean_linker_0, # of connection points: 2
#     Edge 52, Type (0, 1), BuildingBlock: AJUNOK_clean_linker_0, # of connection points: 2
#     Edge 53, Type (0, 1), BuildingBlock: AJUNOK_clean_linker_0, # of connection points: 2
#     Edge 54, Type (0, 1), BuildingBlock: AJUNOK_clean_linker_0, # of connection points: 2
#     Edge 55, Type (0, 1), BuildingBlock: AJUNOK_clean_linker_0, # of connection points: 2
#     Edge 56, Type (0, 1), BuildingBlock: AJUNOK_clean_linker_0, # of connection points: 2
#     Edge 57, Type (0, 1), BuildingBlock: AJUNOK_clean_linker_0, # of connection points: 2
#     Edge 58, Type (0, 1), BuildingBlock: AJUNOK_clean_linker_0, # of connection points: 2
#     Edge 59, Type (0, 1), BuildingBlock: AJUNOK_clean_linker_0, # of connection points: 2
#     Edge 60, Type (0, 1), BuildingBlock: AJUNOK_clean_linker_0, # of connection points: 2
#     Edge 61, Type (0, 1), BuildingBlock: AJUNOK_clean_linker_0, # of connection points: 2
#     Edge 62, Type (0, 1), BuildingBlock: AJUNOK_clean_linker_0, # of connection points: 2
#     Edge 63, Type (0, 1), BuildingBlock: AJUNOK_clean_linker_0, # of connection points: 2
#     Edge 64, Type (0, 1), BuildingBlock: AJUNOK_clean_linker_0, # of connection points: 2
#     Edge 65, Type (0, 1), BuildingBlock: AJUNOK_clean_linker_0, # of connection points: 2
#     Edge 66, Type (0, 1), BuildingBlock: AJUNOK_clean_linker_0, # of connection points: 2
#     Edge 67, Type (0, 1), BuildingBlock: AJUNOK_clean_linker_0, # of connection points: 2
#     Edge 68, Type (0, 1), BuildingBlock: AJUNOK_clean_linker_0, # of connection points: 2
#     Edge 69, Type (0, 1), BuildingBlock: AJUNOK_clean_linker_0, # of connection points: 2
#     Edge 70, Type (0, 1), BuildingBlock: AJUNOK_clean_linker_0, # of connection points: 2
#     Edge 71, Type (0, 1), BuildingBlock: AJUNOK_clean_linker_0, # of connection points: 2
#     Edge 72, Type (0, 1), BuildingBlock: AJUNOK_clean_linker_0, # of connection points: 2
#     Edge 73, Type (0, 1), BuildingBlock: AJUNOK_clean_linker_0, # of connection points: 2
#     Edge 74, Type (0, 1), BuildingBlock: AJUNOK_clean_linker_0, # of connection points: 2
#     Edge 75, Type (0, 1), BuildingBlock: AJUNOK_clean_linker_0, # of connection points: 2
#     Edge 76, Type (0, 1), BuildingBlock: AJUNOK_clean_linker_0, # of connection points: 2
#     Edge 77, Type (0, 1), BuildingBlock: AJUNOK_clean_linker_0, # of connection points: 2
#     Edge 78, Type (0, 1), BuildingBlock: AJUNOK_clean_linker_0, # of connection points: 2
#     Edge 79, Type (0, 1), BuildingBlock: AJUNOK_clean_linker_0, # of connection points: 2
#     Edge 80, Type (0, 1), BuildingBlock: AJUNOK_clean_linker_0, # of connection points: 2
#     Edge 81, Type (0, 1), BuildingBlock: AJUNOK_clean_linker_0, # of connection points: 2
#     Edge 82, Type (0, 1), BuildingBlock: AJUNOK_clean_linker_0, # of connection points: 2
#     Edge 83, Type (0, 1), BuildingBlock: AJUNOK_clean_linker_0, # of connection points: 2
#     Edge 84, Type (0, 1), BuildingBlock: AJUNOK_clean_linker_0, # of connection points: 2
#     Edge 85, Type (0, 1), BuildingBlock: AJUNOK_clean_linker_0, # of connection points: 2
#     Edge 86, Type (0, 1), BuildingBlock: AJUNOK_clean_linker_0, # of connection points: 2
#     Edge 87, Type (0, 1), BuildingBlock: AJUNOK_clean_linker_0, # of connection points: 2
#     Edge 88, Type (0, 1), BuildingBlock: AJUNOK_clean_linker_0, # of connection points: 2
#     Edge 89, Type (0, 1), BuildingBlock: AJUNOK_clean_linker_0, # of connection points: 2
#     Edge 90, Type (0, 1), BuildingBlock: AJUNOK_clean_linker_0, # of connection points: 2
#     Edge 91, Type (0, 1), BuildingBlock: AJUNOK_clean_linker_0, # of connection points: 2
#     Edge 92, Type (0, 1), BuildingBlock: AJUNOK_clean_linker_0, # of connection points: 2
#     Edge 93, Type (0, 1), BuildingBlock: AJUNOK_clean_linker_0, # of connection points: 2
#     Edge 94, Type (0, 1), BuildingBlock: AJUNOK_clean_linker_0, # of connection points: 2
#     Edge 95, Type (0, 1), BuildingBlock: AJUNOK_clean_linker_0, # of connection points: 2
#     Edge 96, Type (0, 1), BuildingBlock: AJUNOK_clean_linker_0, # of connection points: 2
#     Edge 97, Type (0, 1), BuildingBlock: AJUNOK_clean_linker_0, # of connection points: 2
#     Edge 98, Type (0, 1), BuildingBlock: AJUNOK_clean_linker_0, # of connection points: 2
#     Edge 99, Type (0, 1), BuildingBlock: AJUNOK_clean_linker_0, # of connection points: 2
#     Edge 100, Type (0, 1), BuildingBlock: AJUNOK_clean_linker_0, # of connection points: 2
#     Edge 101, Type (0, 1), BuildingBlock: AJUNOK_clean_linker_0, # of connection points: 2
#     Edge 102, Type (0, 1), BuildingBlock: AJUNOK_clean_linker_0, # of connection points: 2
#     Edge 103, Type (0, 1), BuildingBlock: AJUNOK_clean_linker_0, # of connection points: 2
#     Edge 104, Type (0, 1), BuildingBlock: AJUNOK_clean_linker_0, # of connection points: 2
#     Edge 105, Type (0, 1), BuildingBlock: AJUNOK_clean_linker_0, # of connection points: 2
#     Edge 106, Type (0, 1), BuildingBlock: AJUNOK_clean_linker_0, # of connection points: 2
#     Edge 107, Type (0, 1), BuildingBlock: AJUNOK_clean_linker_0, # of connection points: 2
# Relax obj value: 0.036
# Max RMSD: 0.128
# Mean RMSD: 0.074
data_MOF--net-ptr--node1-KUFVIS_clean_sbu_0--node2-MUDLON_clean_linker_0--edge1-AJUNOK_clean_linker_0
_symmetry_space_group_name_H-M    P1
_symmetry_Int_Tables_number       1
_symmetry_cell_setting            triclinic
loop_
_symmetry_equiv_pos_as_xyz
'x, y, z'
_cell_length_a     84.24946
_cell_length_b     83.893257
_cell_length_c     50.952858
_cell_angle_alpha  89.599904
_cell_angle_beta   90.812218
_cell_angle_gamma 119.48973
loop_
_atom_site_label
_atom_site_type_symbol
_atom_site_fract_x
_atom_site_fract_y
_atom_site_fract_z
_atom_type_partial_charge
Mn0 Mn 0.00363 0.36291 0.00249 0.0
Mn1 Mn 0.0445 0.40172 0.0028 0.0
C2 C 0.00923 0.38583 0.97255 0.0
C3 C 0.98462 0.33272 0.98878 0.0
C4 C 0.01513 0.39384 0.04259 0.0
O5 O 0.01979 0.35586 0.024 0.0
O6 O 0.04686 0.38188 0.02098 0.0
C7 C 0.06443 0.38965 0.96808 0.0
N8 N 0.05844 0.40164 0.97362 0.0
C9 C 0.07279 0.41954 0.93519 0.0
C10 C 0.07922 0.40745 0.92916 0.0
C11 C 0.07497 0.39241 0.94564 0.0
C12 C 0.06238 0.41611 0.95783 0.0
H13 H 0.06116 0.37806 0.98068 0.0
C14 C 0.03692 0.36527 0.02855 0.0
O15 O 0.98143 0.33903 0.01007 0.0
O16 O 0.99911 0.34381 0.97589 0.0
N17 N 0.04429 0.42202 0.98579 0.0
C18 C 0.03611 0.43173 0.99352 0.0
C19 C 0.03845 0.44687 0.97861 0.0
C20 C 0.04933 0.45198 0.95611 0.0
C21 C 0.05779 0.44192 0.94875 0.0
C22 C 0.05497 0.42697 0.96438 0.0
H23 H 0.02775 0.42787 0.0108 0.0
O24 O 0.99263 0.37367 0.97823 0.0
O25 O 0.0221 0.38407 0.98431 0.0
O26 O 1.00312 0.37857 0.03287 0.0
O27 O 0.03112 0.40334 0.03327 0.0
C28 C 0.06866 0.44594 0.92627 0.0
C29 C 0.07608 0.43471 0.91941 0.0
H30 H 0.08731 0.40951 0.91183 0.0
H31 H 0.07981 0.38297 0.94105 0.0
H32 H 0.03185 0.45454 0.98439 0.0
H33 H 0.05099 0.46358 0.94455 0.0
H34 H 0.07123 0.45751 0.91395 0.0
H35 H 0.08415 0.43776 0.90183 0.0
Mn36 Mn 0.64628 0.64342 0.02534 0.0
Mn37 Mn 0.64663 0.60336 0.02767 0.0
C38 C 0.62733 0.62054 0.05391 0.0
C39 C 0.65742 0.67362 0.03934 0.0
C40 C 0.62811 0.61313 0.98396 0.0
O41 O 0.67004 0.64956 0.00717 0.0
O42 O 0.66959 0.62259 0.0115 0.0
C43 C 0.67688 0.614 0.0661 0.0
N44 N 0.6592 0.6027 0.05883 0.0
C45 C 0.65377 0.58449 0.09785 0.0
C46 C 0.672 0.59578 0.10556 0.0
C47 C 0.68357 0.61066 0.08968 0.0
C48 C 0.64788 0.5885 0.07414 0.0
H49 H 0.68579 0.62552 0.05404 0.0
C50 C 0.67725 0.63938 0.00415 0.0
O51 O 0.64913 0.66796 0.01685 0.0
O52 O 0.65971 0.66187 0.05325 0.0
N53 N 0.6254 0.58363 0.04312 0.0
C54 C 0.60805 0.57441 0.0333 0.0
C55 C 0.59464 0.55941 0.0472 0.0
C56 C 0.59922 0.55397 0.07094 0.0
C57 C 0.6172 0.56356 0.08052 0.0
C58 C 0.63 0.57835 0.06577 0.0
H59 H 0.60443 0.57857 0.01515 0.0
O60 O 0.62359 0.6332 0.04675 0.0
O61 O 0.64205 0.62171 0.04419 0.0
O62 O 0.63178 0.62868 0.99321 0.0
O63 O 0.633 0.60254 0.99521 0.0
C64 C 0.6229 0.55908 0.10421 0.0
C65 C 0.64115 0.56959 0.11293 0.0
H66 H 0.6772 0.59328 0.12378 0.0
H67 H 0.69761 0.61954 0.09562 0.0
H68 H 0.58078 0.5521 0.03969 0.0
H69 H 0.58882 0.54247 0.08169 0.0
H70 H 0.61331 0.54768 0.116 0.0
H71 H 0.64531 0.56616 0.13137 0.0
Mn72 Mn 0.35662 0.99849 0.02182 0.0
Mn73 Mn 0.39629 0.03837 0.02448 0.0
C74 C 0.37917 1.00195 0.05149 0.0
C75 C 0.32641 0.98055 0.03536 0.0
C76 C 0.38677 0.00997 0.98157 0.0
O77 O 0.35101 0.01631 0.00147 0.0
O78 O 0.37698 0.04285 0.00908 0.0
C79 C 0.38597 0.05686 0.06459 0.0
N80 N 0.39752 0.05104 0.05612 0.0
C81 C 0.41626 0.06267 0.095 0.0
C82 C 0.40483 0.06921 0.10381 0.0
C83 C 0.38954 0.06618 0.08862 0.0
C84 C 0.41202 0.05351 0.07086 0.0
H85 H 0.37401 0.0542 0.05324 0.0
C86 C 0.36068 0.03375 0.99988 0.0
O87 O 0.332 0.97725 0.01349 0.0
O88 O 0.33819 0.99463 0.04871 0.0
N89 N 0.41623 0.03622 0.03905 0.0
C90 C 0.42534 0.02823 0.0284 0.0
C91 C 0.44061 0.02939 0.04165 0.0
C92 C 0.44644 0.03889 0.06557 0.0
C93 C 0.43704 0.04727 0.07591 0.0
C94 C 0.42201 0.04578 0.06172 0.0
H95 H 0.42098 0.02095 0.00999 0.0
O96 O 0.36628 0.98573 0.04501 0.0
O97 O 0.37819 0.01556 0.04085 0.0
O98 O 0.37171 0.99777 0.99118 0.0
O99 O 0.39643 0.0259 0.99162 0.0
C100 C 0.44189 0.0569 0.09987 0.0
C101 C 0.43145 0.06452 0.10947 0.0
H102 H 0.40749 0.07632 0.1224 0.0
H103 H 0.38049 0.07092 0.09549 0.0
H104 H 0.44783 0.02293 0.0335 0.0
H105 H 0.45812 0.03961 0.07586 0.0
H106 H 0.45344 0.05827 0.11128 0.0
H107 H 0.4351 0.07157 0.12817 0.0
Mn108 Mn 1.00117 0.64452 1.00046 0.0
Mn109 Mn 0.04157 0.64518 0.00163 0.0
C110 C 0.00643 0.62678 0.97108 0.0
C111 C 0.98314 0.65693 0.98563 0.0
C112 C 0.01179 0.62457 0.04155 0.0
O113 O 0.01751 0.66718 0.02227 0.0
O114 O 0.04443 0.66772 0.01887 0.0
C115 C 0.06235 0.67673 0.96634 0.0
N116 N 0.05582 0.65874 0.97231 0.0
C117 C 0.07053 0.65458 0.93491 0.0
C118 C 0.07758 0.67312 0.92853 0.0
C119 C 0.07338 0.68421 0.94423 0.0
C120 C 0.05958 0.64788 0.95714 0.0
H121 H 0.05915 0.68529 0.97835 0.0
C122 C 0.03465 0.67456 0.02668 0.0
O123 O 0.97925 0.64723 0.00698 0.0
O124 O 0.99764 0.65968 0.97333 0.0
N125 N 0.04094 0.62435 0.98544 0.0
C126 C 0.03268 0.60666 0.99391 0.0
C127 C 0.03502 0.59363 0.97984 0.0
C128 C 0.04599 0.59898 0.95744 0.0
C129 C 0.05457 0.61733 0.94935 0.0
C130 C 0.05173 0.62969 0.96412 0.0
H131 H 0.02429 0.60248 0.01116 0.0
O132 O 0.98991 0.62297 0.97628 0.0
O133 O 0.0194 0.64107 0.98287 0.0
O134 O 1.0 0.62815 0.03126 0.0
O135 O 0.02776 0.63056 0.03227 0.0
C136 C 0.06581 0.62383 0.92717 0.0
C137 C 0.07371 0.64242 0.91987 0.0
H138 H 0.08607 0.67893 0.91146 0.0
H139 H 0.07865 0.69849 0.93931 0.0
H140 H 0.02837 0.57951 0.98624 0.0
H141 H 0.0477 0.58888 0.94658 0.0
H142 H 0.06838 0.61461 0.91549 0.0
H143 H 0.08213 0.64719 0.90258 0.0
Mn144 Mn 0.35873 0.3608 0.02247 0.0
Mn145 Mn 0.39844 0.36004 0.02644 0.0
C146 C 0.38074 0.37881 0.05312 0.0
C147 C 0.3283 0.34911 0.03482 0.0
C148 C 0.39006 0.38022 0.98368 0.0
O149 O 0.35306 0.33762 0.0022 0.0
O150 O 0.37973 0.33774 0.00792 0.0
C151 C 0.38699 0.3284 0.06221 0.0
N152 N 0.3983 0.34642 0.05673 0.0
C153 C 0.41552 0.35053 0.09662 0.0
C154 C 0.40412 0.33198 0.10264 0.0
C155 C 0.38975 0.3209 0.0854 0.0
C156 C 0.41207 0.35724 0.07326 0.0
H157 H 0.37596 0.31984 0.04897 0.0
C158 C 0.36338 0.33064 0.99888 0.0
O159 O 0.33443 0.35826 0.01318 0.0
O160 O 0.33968 0.34625 0.04871 0.0
N161 N 0.41778 0.38077 0.04389 0.0
C162 C 0.4274 0.3984 0.03532 0.0
C163 C 0.44201 0.41138 0.05062 0.0
C164 C 0.44671 0.40605 0.07436 0.0
C165 C 0.43683 0.38774 0.0825 0.0
C166 C 0.42242 0.37542 0.06643 0.0
H167 H 0.42389 0.40256 0.01704 0.0
O168 O 0.36825 0.38272 0.04582 0.0
O169 O 0.37986 0.36433 0.04249 0.0
O170 O 0.37444 0.37674 0.99199 0.0
O171 O 0.39998 0.37456 0.99501 0.0
C172 C 0.44067 0.38125 0.10596 0.0
C173 C 0.42999 0.36267 0.11306 0.0
H174 H 0.40619 0.32615 0.12053 0.0
H175 H 0.38084 0.3066 0.08997 0.0
H176 H 0.44961 0.42547 0.04414 0.0
H177 H 0.45793 0.41611 0.08616 0.0
H178 H 0.45177 0.39044 0.11873 0.0
H179 H 0.43297 0.35788 0.13128 0.0
Mn180 Mn 0.64585 0.00789 0.00512 0.0
Mn181 Mn 0.60713 0.96706 0.0046 0.0
C182 C 0.6225 0.00276 0.97597 0.0
C183 C 0.67561 0.02656 0.99046 0.0
C184 C 0.61621 0.99606 0.0464 0.0
O185 O 0.65295 0.99119 0.02543 0.0
O186 O 0.62726 0.96407 0.02033 0.0
C187 C 0.61767 0.94756 0.96649 0.0
N188 N 0.60614 0.95369 0.97384 0.0
C189 C 0.58732 0.94064 0.93535 0.0
C190 C 0.59894 0.93409 0.92745 0.0
C191 C 0.61421 0.93761 0.94305 0.0
C192 C 0.59147 0.95047 0.9589 0.0
H193 H 0.62945 0.95028 0.97841 0.0
C194 C 0.6438 0.97382 0.02837 0.0
O195 O 0.67011 0.02994 0.01235 0.0
O196 O 0.66399 0.01209 0.97765 0.0
N197 N 0.5866 0.96794 0.98967 0.0
C198 C 0.57715 0.9758 0.99956 0.0
C199 C 0.56169 0.97391 0.98598 0.0
C200 C 0.55603 0.96384 0.96251 0.0
C201 C 0.56582 0.95565 0.95292 0.0
C202 C 0.58106 0.95792 0.96737 0.0
H203 H 0.58141 0.98354 0.01761 0.0
O204 O 0.63485 0.01934 0.98193 0.0
O205 O 0.62437 0.98976 0.98701 0.0
O206 O 0.63101 0.00838 0.03632 0.0
O207 O 0.60671 0.98001 0.0367 0.0
C208 C 0.56116 0.94547 0.92945 0.0
C209 C 0.57194 0.93802 0.92062 0.0
H210 H 0.59634 0.92645 0.90935 0.0
H211 H 0.62329 0.93267 0.93702 0.0
H212 H 0.55419 0.98025 0.99353 0.0
H213 H 0.54419 0.96254 0.95197 0.0
H214 H 0.54945 0.94348 0.91786 0.0
H215 H 0.56837 0.93046 0.90234 0.0
Mn216 Mn 0.66914 0.69408 0.33525 0.0
Mn217 Mn 0.70988 0.73291 0.33692 0.0
C218 C 0.67503 0.71725 0.30557 0.0
C219 C 0.65096 0.66394 0.32078 0.0
C220 C 0.68001 0.72385 0.37647 0.0
O221 O 0.68523 0.68723 0.35756 0.0
O222 O 0.71252 0.71273 0.35321 0.0
C223 C 0.73094 0.72294 0.30108 0.0
N224 N 0.72413 0.73414 0.30735 0.0
C225 C 0.73874 0.75365 0.27034 0.0
C226 C 0.746 0.74238 0.26356 0.0
C227 C 0.74201 0.72691 0.27893 0.0
C228 C 0.72779 0.74899 0.29261 0.0
H229 H 0.72797 0.71108 0.31292 0.0
C230 C 0.70248 0.69628 0.36135 0.0
O231 O 0.64704 0.66988 0.34183 0.0
O232 O 0.66559 0.67541 0.30852 0.0
N233 N 0.70919 0.75344 0.32154 0.0
C234 C 0.70082 0.76268 0.33045 0.0
C235 C 0.703 0.77822 0.31682 0.0
C236 C 0.7139 0.78422 0.29436 0.0
C237 C 0.72257 0.77462 0.28577 0.0
C238 C 0.71988 0.75922 0.30013 0.0
H239 H 0.69249 0.75819 0.34777 0.0
O240 O 0.65837 0.70484 0.31043 0.0
O241 O 0.68772 0.7155 0.31788 0.0
O242 O 0.66775 0.70926 0.36552 0.0
O243 O 0.69627 0.73321 0.36805 0.0
C244 C 0.73373 0.7797 0.26348 0.0
C245 C 0.74175 0.76919 0.25571 0.0
H246 H 0.75451 0.74538 0.24646 0.0
H247 H 0.74748 0.7181 0.27375 0.0
H248 H 0.69628 0.78557 0.3236 0.0
H249 H 0.7155 0.79617 0.28385 0.0
H250 H 0.73614 0.79162 0.25209 0.0
H251 H 0.75014 0.77313 0.23837 0.0
Mn252 Mn 0.30981 0.97558 0.354 0.0
Mn253 Mn 0.31061 0.93575 0.35631 0.0
C254 C 0.29153 0.95296 0.38337 0.0
C255 C 0.32121 0.00595 0.3673 0.0
C256 C 0.29094 0.94483 0.31345 0.0
O257 O 0.3331 0.98161 0.33459 0.0
O258 O 0.33327 0.95499 0.3395 0.0
C259 C 0.34139 0.94683 0.39387 0.0
N260 N 0.32365 0.93535 0.38707 0.0
C261 C 0.31884 0.91746 0.42628 0.0
C262 C 0.3371 0.92902 0.43363 0.0
C263 C 0.3484 0.9438 0.41738 0.0
C264 C 0.31262 0.92117 0.40263 0.0
H265 H 0.35011 0.95822 0.38146 0.0
C266 C 0.34047 0.97161 0.33145 0.0
O267 O 0.31232 0.99995 0.34528 0.0
O268 O 0.32391 0.99444 0.38115 0.0
N269 N 0.28969 0.91596 0.37226 0.0
C270 C 0.27221 0.9066 0.36293 0.0
C271 C 0.25906 0.89163 0.37718 0.0
C272 C 0.26403 0.88635 0.40073 0.0
C273 C 0.28214 0.89605 0.40976 0.0
C274 C 0.29467 0.91081 0.39468 0.0
H275 H 0.26829 0.91061 0.34489 0.0
O276 O 0.28766 0.96559 0.37647 0.0
O277 O 0.3061 0.95409 0.3731 0.0
O278 O 0.29449 0.96036 0.32267 0.0
O279 O 0.29648 0.93465 0.32431 0.0
C280 C 0.28821 0.89178 0.43328 0.0
C281 C 0.30652 0.90254 0.44163 0.0
H282 H 0.34255 0.92675 0.45177 0.0
H283 H 0.36248 0.95283 0.42298 0.0
H284 H 0.2451 0.88423 0.37009 0.0
H285 H 0.25381 0.87489 0.41177 0.0
H286 H 0.27884 0.88039 0.44529 0.0
H287 H 0.31094 0.8993 0.45997 0.0
Mn288 Mn 0.02805 0.33593 0.35795 0.0
Mn289 Mn 0.06843 0.37528 0.35945 0.0
C290 C 0.05034 0.33964 0.38818 0.0
C291 C 0.99778 0.31843 0.37178 0.0
C292 C 0.05937 0.34548 0.31934 0.0
O293 O 0.02239 0.35339 0.33715 0.0
O294 O 0.05014 0.37871 0.33862 0.0
C295 C 0.05682 0.39712 0.39109 0.0
N296 N 0.06817 0.39009 0.38757 0.0
C297 C 0.08528 0.40487 0.42673 0.0
C298 C 0.07386 0.41237 0.43068 0.0
C299 C 0.05951 0.4084 0.41285 0.0
C300 C 0.08188 0.39365 0.40477 0.0
H301 H 0.04582 0.39416 0.37738 0.0
C302 C 0.03337 0.37006 0.33133 0.0
O303 O 1.00325 0.31463 0.35017 0.0
O304 O 0.00975 0.33259 0.38475 0.0
N305 N 0.08755 0.3743 0.37887 0.0
C306 C 0.09708 0.36567 0.37256 0.0
C307 C 0.11161 0.36783 0.38882 0.0
C308 C 0.11633 0.37901 0.41119 0.0
C309 C 0.10653 0.38802 0.41703 0.0
C310 C 0.09218 0.38534 0.40012 0.0
H311 H 0.09347 0.35701 0.35545 0.0
O312 O 0.03755 0.3234 0.38159 0.0
O313 O 0.04966 0.35332 0.37705 0.0
O314 O 0.04311 0.33474 0.32712 0.0
O315 O 0.06999 0.36078 0.3304 0.0
C316 C 0.1104 0.39951 0.43901 0.0
C317 C 0.09974 0.40787 0.44392 0.0
H318 H 0.07588 0.42107 0.44744 0.0
H319 H 0.05058 0.41406 0.41583 0.0
H320 H 0.11912 0.36085 0.38416 0.0
H321 H 0.12748 0.38057 0.42376 0.0
H322 H 0.12151 0.40196 0.45232 0.0
H323 H 0.10272 0.4165 0.46105 0.0
Mn324 Mn 0.67317 0.97766 0.33744 0.0
Mn325 Mn 0.71383 0.97895 0.33802 0.0
C326 C 0.67843 0.95936 0.30918 0.0
C327 C 0.65356 0.98771 0.32096 0.0
C328 C 0.68499 0.95859 0.3789 0.0
O329 O 0.6896 1.0016 0.35665 0.0
O330 O 0.71603 1.00089 0.3563 0.0
C331 C 0.73336 0.01111 0.30326 0.0
N332 N 0.72742 0.99313 0.3086 0.0
C333 C 0.74072 0.98969 0.26904 0.0
C334 C 0.7471 0.00821 0.26323 0.0
C335 C 0.74335 0.01894 0.28038 0.0
C336 C 0.73085 0.98264 0.29214 0.0
H337 H 0.73046 0.0194 0.31633 0.0
C338 C 0.70653 0.00842 0.36241 0.0
O339 O 0.65084 0.97977 0.34373 0.0
O340 O 0.66815 0.99072 0.30873 0.0
N341 N 0.71379 0.9587 0.32084 0.0
C342 C 0.70642 0.941 0.32906 0.0
C343 C 0.70879 0.92841 0.31396 0.0
C344 C 0.71877 0.93415 0.29064 0.0
C345 C 0.7264 0.95248 0.28273 0.0
C346 C 0.72374 0.96445 0.29871 0.0
H347 H 0.69861 0.93648 0.34685 0.0
O348 O 0.66191 0.95499 0.31538 0.0
O349 O 0.69133 0.97422 0.31984 0.0
O350 O 0.67344 0.96296 0.36974 0.0
O351 O 0.70046 0.96374 0.3684 0.0
C352 C 0.73645 0.95931 0.25952 0.0
C353 C 0.74354 0.97788 0.25263 0.0
H354 H 0.75475 0.01428 0.24554 0.0
H355 H 0.74812 0.03321 0.27594 0.0
H356 H 0.70284 0.91428 0.3202 0.0
H357 H 0.72042 0.92435 0.2789 0.0
H358 H 0.73868 0.95036 0.24673 0.0
H359 H 0.75108 0.98292 0.23459 0.0
Mn360 Mn 0.02654 0.69331 0.35797 0.0
Mn361 Mn 0.06672 0.69346 0.35737 0.0
C362 C 0.04955 0.71143 0.38727 0.0
C363 C 0.9966 0.68117 0.37281 0.0
C364 C 0.05659 0.71402 0.31748 0.0
O365 O 0.02034 0.67022 0.33731 0.0
O366 O 0.04766 0.67141 0.33853 0.0
C367 C 0.05652 0.66091 0.39082 0.0
N368 N 0.06755 0.67909 0.38608 0.0
C369 C 0.08591 0.6823 0.42441 0.0
C370 C 0.07482 0.66357 0.4296 0.0
C371 C 0.06001 0.65286 0.4128 0.0
C372 C 0.08173 0.68956 0.40225 0.0
H373 H 0.04515 0.65261 0.37792 0.0
C374 C 0.03077 0.66371 0.33181 0.0
O375 O 1.00181 0.69039 0.35105 0.0
O376 O 0.00866 0.67865 0.38542 0.0
N377 N 0.08638 0.71383 0.37501 0.0
C378 C 0.09555 0.73173 0.3675 0.0
C379 C 0.11046 0.74439 0.38266 0.0
C380 C 0.11592 0.73848 0.40516 0.0
C381 C 0.10647 0.71993 0.41222 0.0
C382 C 0.09172 0.70795 0.39637 0.0
H383 H 0.09143 0.73635 0.35022 0.0
O384 O 0.03673 0.71521 0.3814 0.0
O385 O 0.04848 0.69707 0.37594 0.0
O386 O 0.04085 0.70931 0.32666 0.0
O387 O 0.0673 0.70888 0.32758 0.0
C388 C 0.11108 0.71287 0.43441 0.0
C389 C 0.10077 0.69408 0.44056 0.0
H390 H 0.07744 0.65732 0.44656 0.0
H391 H 0.05133 0.63842 0.41676 0.0
H392 H 0.11771 0.75868 0.37704 0.0
H393 H 0.12737 0.7483 0.41687 0.0
H394 H 0.12249 0.72179 0.44694 0.0
H395 H 0.10433 0.68886 0.45783 0.0
Mn396 Mn 0.30785 0.33662 0.33704 0.0
Mn397 Mn 0.26848 0.29646 0.33403 0.0
C398 C 0.28528 0.33274 0.30705 0.0
C399 C 0.33799 0.35498 0.32353 0.0
C400 C 0.27741 0.32461 0.37721 0.0
O401 O 0.31393 0.31904 0.35694 0.0
O402 O 0.28784 0.29245 0.35033 0.0
C403 C 0.27944 0.27768 0.29527 0.0
N404 N 0.26775 0.28355 0.30289 0.0
C405 C 0.24918 0.27097 0.26408 0.0
C406 C 0.26081 0.26445 0.25607 0.0
C407 C 0.27607 0.26793 0.27166 0.0
C408 C 0.25322 0.28057 0.28781 0.0
H409 H 0.29132 0.28056 0.30701 0.0
C410 C 0.30427 0.30163 0.35905 0.0
O411 O 0.3323 0.35816 0.3454 0.0
O412 O 0.32632 0.34091 0.31006 0.0
N413 N 0.24858 0.29824 0.31849 0.0
C414 C 0.23955 0.30666 0.32798 0.0
C415 C 0.22438 0.30522 0.31411 0.0
C416 C 0.2186 0.29508 0.29071 0.0
C417 C 0.22804 0.28644 0.28142 0.0
C418 C 0.243 0.28827 0.29616 0.0
H419 H 0.24398 0.31457 0.34586 0.0
O420 O 0.29776 0.34905 0.31396 0.0
O421 O 0.28653 0.31929 0.31774 0.0
O422 O 0.29267 0.33681 0.36808 0.0
O423 O 0.26773 0.30898 0.36637 0.0
C424 C 0.22335 0.2763 0.25792 0.0
C425 C 0.23397 0.26864 0.24919 0.0
H426 H 0.2583 0.257 0.23782 0.0
H427 H 0.28525 0.26316 0.26545 0.0
H428 H 0.21721 0.312 0.32136 0.0
H429 H 0.207 0.29414 0.27993 0.0
H430 H 0.21181 0.27459 0.24616 0.0
H431 H 0.23045 0.26121 0.23079 0.0
Mn432 Mn 0.33561 0.02786 0.6683 0.0
Mn433 Mn 0.37439 0.06867 0.66756 0.0
C434 C 0.33906 0.05005 0.63805 0.0
C435 C 0.3186 0.99741 0.65445 0.0
C436 C 0.34494 0.05835 0.70836 0.0
O437 O 0.35345 0.0229 0.68963 0.0
O438 O 0.37903 0.05017 0.6854 0.0
C439 C 0.39604 0.05914 0.63218 0.0
N440 N 0.38857 0.06985 0.63791 0.0
C441 C 0.40138 0.08814 0.59925 0.0
C442 C 0.40942 0.07747 0.59312 0.0
C443 C 0.40665 0.06284 0.60958 0.0
C444 C 0.39093 0.08379 0.62201 0.0
H445 H 0.39387 0.04783 0.64471 0.0
C446 C 0.37055 0.03354 0.69344 0.0
O447 O 0.31474 0.00298 0.67591 0.0
O448 O 0.33264 0.0094 0.64158 0.0
N449 N 0.37191 0.08779 0.65066 0.0
C450 C 0.36289 0.09651 0.65905 0.0
C451 C 0.36388 0.11121 0.64439 0.0
C452 C 0.37429 0.11691 0.62144 0.0
C453 C 0.38365 0.10788 0.6134 0.0
C454 C 0.38218 0.09334 0.62882 0.0
H455 H 0.35492 0.09225 0.67672 0.0
O456 O 0.32292 0.03701 0.64404 0.0
O457 O 0.35261 0.04961 0.64982 0.0
O458 O 0.33384 0.04265 0.69884 0.0
O459 O 0.36051 0.06895 0.6984 0.0
C460 C 0.39435 0.1127 0.59065 0.0
C461 C 0.40313 0.10279 0.5835 0.0
H462 H 0.41758 0.08025 0.57567 0.0
H463 H 0.41267 0.05443 0.60486 0.0
H464 H 0.35664 0.11813 0.65075 0.0
H465 H 0.37496 0.12819 0.61011 0.0
H466 H 0.39576 0.12391 0.57837 0.0
H467 H 0.41112 0.10647 0.56577 0.0
Mn468 Mn 0.97632 0.30854 0.68646 0.0
Mn469 Mn 0.97609 0.2682 0.68965 0.0
C470 C 0.95779 0.28631 0.71605 0.0
C471 C 0.98793 0.33896 0.70001 0.0
C472 C 0.9561 0.2769 0.64705 0.0
O473 O 0.99972 0.31429 0.66758 0.0
O474 O 0.99801 0.28664 0.67053 0.0
C475 C 0.00835 0.28027 0.72462 0.0
N476 N 0.99035 0.26867 0.71944 0.0
C477 C 0.98717 0.25189 0.75933 0.0
C478 C 0.0057 0.26358 0.76501 0.0
C479 C 0.01631 0.27787 0.74763 0.0
C480 C 0.97998 0.25497 0.73614 0.0
H481 H 0.01655 0.29127 0.71131 0.0
C482 C 0.00588 0.3034 0.66304 0.0
O483 O 0.97926 0.33318 0.67777 0.0
O484 O 0.99034 0.32725 0.71375 0.0
N485 N 0.95584 0.24903 0.7077 0.0
C486 C 0.93798 0.23959 0.70009 0.0
C487 C 0.92544 0.22504 0.71561 0.0
C488 C 0.9314 0.22029 0.73872 0.0
C489 C 0.94987 0.23013 0.74609 0.0
C490 C 0.96174 0.24445 0.72978 0.0
H491 H 0.93328 0.24336 0.68258 0.0
O492 O 0.95406 0.29892 0.70857 0.0
O493 O 0.97229 0.2871 0.70606 0.0
O494 O 0.96101 0.29316 0.65487 0.0
O495 O 0.96081 0.26637 0.65884 0.0
C496 C 0.95691 0.22646 0.76916 0.0
C497 C 0.97552 0.2374 0.77587 0.0
H498 H 0.0119 0.26177 0.78274 0.0
H499 H 0.0306 0.287 0.75193 0.0
H500 H 0.9112 0.2176 0.70987 0.0
H501 H 0.92166 0.20917 0.75078 0.0
H502 H 0.94807 0.21539 0.78206 0.0
H503 H 0.9807 0.23462 0.79389 0.0
Mn504 Mn 0.69314 0.66949 0.68829 0.0
Mn505 Mn 0.73316 0.70924 0.68681 0.0
C506 C 0.71627 0.67442 0.71765 0.0
C507 C 0.66324 0.65213 0.70344 0.0
C508 C 0.72284 0.67859 0.64753 0.0
O509 O 0.68691 0.68635 0.66685 0.0
O510 O 0.71386 0.71265 0.66892 0.0
C511 C 0.72344 0.73117 0.72155 0.0
N512 N 0.73447 0.72407 0.71595 0.0
C513 C 0.75267 0.7375 0.75485 0.0
C514 C 0.74159 0.74508 0.76093 0.0
C515 C 0.72689 0.74187 0.74422 0.0
C516 C 0.74864 0.72706 0.7319 0.0
H517 H 0.71206 0.72863 0.70886 0.0
C518 C 0.69704 0.70338 0.66188 0.0
O519 O 0.6684 0.64786 0.68196 0.0
O520 O 0.67529 0.66672 0.71557 0.0
N521 N 0.75297 0.70793 0.70358 0.0
C522 C 0.7618 0.69893 0.69557 0.0
C523 C 0.77656 0.70031 0.71052 0.0
C524 C 0.78214 0.711 0.73345 0.0
C525 C 0.773 0.72034 0.74109 0.0
C526 C 0.75851 0.7186 0.72526 0.0
H527 H 0.75752 0.69062 0.67804 0.0
O528 O 0.70341 0.6579 0.71245 0.0
O529 O 0.71508 0.68754 0.70568 0.0
O530 O 0.70748 0.66738 0.65752 0.0
O531 O 0.73322 0.69468 0.65653 0.0
C532 C 0.77748 0.73101 0.76407 0.0
C533 C 0.76731 0.73958 0.77096 0.0
H534 H 0.74412 0.75323 0.77849 0.0
H535 H 0.71821 0.74757 0.74887 0.0
H536 H 0.78353 0.69304 0.70451 0.0
H537 H 0.79337 0.71183 0.74512 0.0
H538 H 0.78854 0.73252 0.77678 0.0
H539 H 0.77072 0.74754 0.78886 0.0
Mn540 Mn 0.34286 0.31365 0.67029 0.0
Mn541 Mn 0.38308 0.31397 0.67033 0.0
C542 C 0.34762 0.29564 0.64085 0.0
C543 C 0.32462 0.32579 0.65502 0.0
C544 C 0.35373 0.29332 0.71072 0.0
O545 O 0.35955 0.3366 0.69124 0.0
O546 O 0.38602 0.33621 0.68866 0.0
C547 C 0.40376 0.34613 0.63602 0.0
N548 N 0.39715 0.328 0.64116 0.0
C549 C 0.41106 0.32434 0.60243 0.0
C550 C 0.41814 0.343 0.59683 0.0
C551 C 0.41441 0.35391 0.61365 0.0
C552 C 0.40056 0.31735 0.62502 0.0
H553 H 0.40093 0.35457 0.64889 0.0
C554 C 0.3766 0.34354 0.69615 0.0
O555 O 0.32102 0.31661 0.67685 0.0
O556 O 0.33908 0.32836 0.64282 0.0
N557 N 0.38235 0.29341 0.65305 0.0
C558 C 0.37408 0.27557 0.66082 0.0
C559 C 0.37608 0.26273 0.64574 0.0
C560 C 0.38662 0.26838 0.62292 0.0
C561 C 0.39515 0.28686 0.61546 0.0
C562 C 0.39276 0.29904 0.63134 0.0
H563 H 0.36583 0.27111 0.67819 0.0
O564 O 0.3312 0.29182 0.64674 0.0
O565 O 0.36079 0.31001 0.6522 0.0
O566 O 0.34213 0.29759 0.70146 0.0
O567 O 0.3694 0.29888 0.70063 0.0
C568 C 0.40583 0.29363 0.59278 0.0
C569 C 0.41375 0.31235 0.58624 0.0
H570 H 0.42629 0.34904 0.57954 0.0
H571 H 0.41972 0.3683 0.60937 0.0
H572 H 0.36942 0.24849 0.65161 0.0
H573 H 0.388 0.25842 0.61121 0.0
H574 H 0.40793 0.28453 0.58013 0.0
H575 H 0.42177 0.31735 0.5686 0.0
Mn576 Mn 0.69219 0.02824 0.68883 0.0
Mn577 Mn 0.73176 0.02708 0.68957 0.0
C578 C 0.71497 0.04579 0.71888 0.0
C579 C 0.66204 0.01663 0.7025 0.0
C580 C 0.72262 0.04791 0.6489 0.0
O581 O 0.6859 0.00522 0.66759 0.0
O582 O 0.71243 0.00487 0.6717 0.0
C583 C 0.72128 0.99529 0.72472 0.0
N584 N 0.73246 0.01332 0.71916 0.0
C585 C 0.75111 0.01712 0.75736 0.0
C586 C 0.73986 0.99856 0.76343 0.0
C587 C 0.72483 0.98763 0.7471 0.0
C588 C 0.74686 0.024 0.73485 0.0
H589 H 0.70977 0.98683 0.71213 0.0
C590 C 0.69591 0.99798 0.66344 0.0
O591 O 0.66789 0.02606 0.68102 0.0
O592 O 0.67354 0.01344 0.7155 0.0
N593 N 0.75165 0.04771 0.70635 0.0
C594 C 0.76095 0.06542 0.69798 0.0
C595 C 0.77608 0.07829 0.71258 0.0
C596 C 0.78164 0.07276 0.73538 0.0
C597 C 0.77203 0.0544 0.74334 0.0
C598 C 0.75704 0.04221 0.72806 0.0
H599 H 0.7568 0.06971 0.6804 0.0
O600 O 0.70238 0.04986 0.71286 0.0
O601 O 0.71371 0.03139 0.70742 0.0
O602 O 0.70734 0.04459 0.65833 0.0
O603 O 0.73256 0.04173 0.65862 0.0
C604 C 0.77673 0.04772 0.76586 0.0
C605 C 0.76624 0.02911 0.77294 0.0
H606 H 0.74254 0.99261 0.78069 0.0
H607 H 0.71603 0.97332 0.75172 0.0
H608 H 0.78345 0.09242 0.70626 0.0
H609 H 0.79328 0.08274 0.74662 0.0
H610 H 0.78836 0.05679 0.77793 0.0
H611 H 0.76987 0.02419 0.79046 0.0
Mn612 Mn 0.97725 0.67333 0.67239 0.0
Mn613 Mn 0.93757 0.63319 0.67336 0.0
C614 C 0.95409 0.66816 0.64289 0.0
C615 C 0.00715 0.69153 0.65773 0.0
C616 C 0.94726 0.66343 0.71299 0.0
O617 O 0.98388 0.65664 0.6936 0.0
O618 O 0.957 0.63025 0.69145 0.0
C619 C 0.94802 0.61177 0.63877 0.0
N620 N 0.93666 0.61849 0.64431 0.0
C621 C 0.91801 0.60388 0.60621 0.0
C622 C 0.92945 0.59671 0.60018 0.0
C623 C 0.94455 0.60072 0.61648 0.0
C624 C 0.92217 0.61481 0.62866 0.0
H625 H 0.95964 0.61483 0.65127 0.0
C626 C 0.97374 0.63963 0.69872 0.0
O627 O 1.00164 0.69522 0.67933 0.0
O628 O 0.99547 0.67692 0.6452 0.0
N629 N 0.91754 0.63399 0.65647 0.0
C630 C 0.90839 0.6427 0.66436 0.0
C631 C 0.8932 0.64054 0.64973 0.0
C632 C 0.88746 0.62929 0.62737 0.0
C633 C 0.89693 0.62025 0.61988 0.0
C634 C 0.91196 0.62292 0.63522 0.0
H635 H 0.91272 0.65132 0.68158 0.0
O636 O 0.96668 0.68474 0.64842 0.0
O637 O 0.9555 0.6551 0.65464 0.0
O638 O 0.96261 0.67485 0.70324 0.0
O639 O 0.93702 0.64743 0.70365 0.0
C640 C 0.89219 0.60888 0.59762 0.0
C641 C 0.90279 0.60079 0.59068 0.0
H642 H 0.92683 0.5882 0.58298 0.0
H643 H 0.95348 0.5953 0.61189 0.0
H644 H 0.88597 0.64757 0.65564 0.0
H645 H 0.87581 0.62775 0.61604 0.0
H646 H 0.88054 0.60644 0.5855 0.0
H647 H 0.89918 0.59233 0.57326 0.0
H648 H 0.23348 0.34773 0.16593 0.0
N649 N 0.21664 0.31617 0.13736 0.0
H650 H 0.24945 0.352 0.20806 0.0
H651 H 0.21811 0.2906 0.16645 0.0
H652 H 0.23369 0.29458 0.20873 0.0
H653 H 0.22106 0.29271 0.10799 0.0
H654 H 0.24634 0.29981 0.07824 0.0
H655 H 0.24119 0.35034 0.11973 0.0
H656 H 0.26639 0.35753 0.08999 0.0
H657 H 0.21254 0.34635 0.12976 0.0
H658 H 0.18329 0.28785 0.14 0.0
H659 H 0.18377 0.34687 0.12932 0.0
H660 H 0.15452 0.28817 0.14078 0.0
H661 H 0.10567 0.34858 0.1671 0.0
H662 H 0.09703 0.35526 0.20942 0.0
H663 H 0.07268 0.29818 0.23077 0.0
H664 H 0.08118 0.2915 0.18792 0.0
H665 H 0.06268 0.29831 0.13353 0.0
H666 H 0.04797 0.30967 0.10293 0.0
H667 H 0.1005 0.35625 0.08549 0.0
H668 H 0.1149 0.34537 0.11743 0.0
H669 H 0.1314 0.34291 0.16306 0.0
H670 H 0.16042 0.34368 0.15763 0.0
H671 H 0.13276 0.29188 0.11665 0.0
N672 N 0.09742 0.3148 0.14857 0.0
H673 H 0.10359 0.29078 0.12354 0.0
C674 C 0.22459 0.31879 0.16321 0.0
C675 C 0.23328 0.33604 0.17537 0.0
C676 C 0.24226 0.33841 0.19957 0.0
C677 C 0.2426 0.32355 0.21203 0.0
C678 C 0.2336 0.30627 0.19984 0.0
C679 C 0.22466 0.30394 0.17573 0.0
C680 C 0.22906 0.32092 0.11584 0.0
C681 C 0.23057 0.30688 0.10342 0.0
C682 C 0.24507 0.31095 0.08663 0.0
C683 C 0.2583 0.32922 0.08177 0.0
C684 C 0.25623 0.34334 0.09303 0.0
C685 C 0.24177 0.33923 0.11003 0.0
C686 C 0.20001 0.31696 0.13456 0.0
C687 C 0.19992 0.33358 0.13161 0.0
C688 C 0.1834 0.33385 0.13169 0.0
C689 C 0.16667 0.31755 0.13502 0.0
C690 C 0.16696 0.30097 0.1376 0.0
C691 C 0.18341 0.30073 0.13729 0.0
C692 C 0.0942 0.3195 0.17443 0.0
C693 C 0.09874 0.33753 0.18098 0.0
C694 C 0.09382 0.34134 0.20524 0.0
C695 C 0.08432 0.32726 0.22351 0.0
C696 C 0.07998 0.30929 0.21706 0.0
C697 C 0.08493 0.30548 0.19276 0.0
C698 C 0.08986 0.32077 0.12758 0.0
C699 C 0.07103 0.3108 0.12272 0.0
C700 C 0.06267 0.31726 0.10504 0.0
C701 C 0.07307 0.33376 0.09137 0.0
C702 C 0.09207 0.34352 0.09572 0.0
C703 C 0.10038 0.3372 0.11381 0.0
C704 C 0.11512 0.31649 0.14421 0.0
C705 C 0.13148 0.33164 0.15305 0.0
C706 C 0.14822 0.33218 0.14961 0.0
C707 C 0.14905 0.31775 0.13691 0.0
C708 C 0.13271 0.30304 0.12711 0.0
C709 C 0.11599 0.30242 0.13085 0.0
H710 H 0.65945 0.766 0.16518 0.0
N711 N 0.69124 0.7879 0.13955 0.0
H712 H 0.65651 0.75086 0.20747 0.0
H713 H 0.718 0.79219 0.17201 0.0
H714 H 0.71507 0.7764 0.2139 0.0
H715 H 0.6579 0.7659 0.11705 0.0
H716 H 0.65014 0.73938 0.08874 0.0
H717 H 0.71441 0.77998 0.11632 0.0
H718 H 0.70689 0.75376 0.08775 0.0
H719 H 0.71643 0.81919 0.11911 0.0
H720 H 0.66199 0.7928 0.14977 0.0
H721 H 0.71592 0.84796 0.11528 0.0
H722 H 0.66173 0.82169 0.14785 0.0
H723 H 0.66395 0.89117 0.17302 0.0
H724 H 0.66101 0.90347 0.21499 0.0
H725 H 0.7163 0.94802 0.20818 0.0
H726 H 0.71867 0.93617 0.16556 0.0
H727 H 0.65724 0.89971 0.13205 0.0
H728 H 0.64664 0.91569 0.1028 0.0
H729 H 0.70112 0.94804 0.07285 0.0
H730 H 0.71179 0.93208 0.10272 0.0
H731 H 0.71976 0.90056 0.14525 0.0
H732 H 0.71849 0.87097 0.1429 0.0
H733 H 0.66093 0.84523 0.12376 0.0
N734 N 0.69275 0.9078 0.13959 0.0
H735 H 0.66225 0.87483 0.12765 0.0
C736 C 0.68903 0.78059 0.16572 0.0
C737 C 0.67168 0.76893 0.17608 0.0
C738 C 0.66999 0.76017 0.20017 0.0
C739 C 0.68557 0.76254 0.2139 0.0
C740 C 0.70288 0.77444 0.20375 0.0
C741 C 0.70456 0.78348 0.17995 0.0
C742 C 0.68676 0.77485 0.11871 0.0
C743 C 0.66868 0.76357 0.11016 0.0
C744 C 0.6643 0.74848 0.09393 0.0
C745 C 0.67793 0.7445 0.08612 0.0
C746 C 0.69611 0.75645 0.09358 0.0
C747 C 0.70045 0.77148 0.10967 0.0
C748 C 0.68947 0.80394 0.13515 0.0
C749 C 0.70436 0.81963 0.12499 0.0
C750 C 0.70408 0.83612 0.12314 0.0
C751 C 0.68895 0.8374 0.13185 0.0
C752 C 0.67363 0.82134 0.14088 0.0
C753 C 0.67382 0.80474 0.14228 0.0
C754 C 0.69145 0.91304 0.16597 0.0
C755 C 0.6754 0.90358 0.18058 0.0
C756 C 0.6738 0.91056 0.20467 0.0
C757 C 0.68828 0.92698 0.21465 0.0
C758 C 0.7047 0.93568 0.2007 0.0
C759 C 0.70617 0.92885 0.17651 0.0
C760 C 0.68539 0.91464 0.11952 0.0
C761 C 0.66689 0.90993 0.1189 0.0
C762 C 0.66082 0.91915 0.10216 0.0
C763 C 0.6731 0.93332 0.08583 0.0
C764 C 0.69142 0.93744 0.08561 0.0
C765 C 0.69748 0.92819 0.10237 0.0
C766 C 0.69126 0.89005 0.13635 0.0
C767 C 0.70691 0.88852 0.14039 0.0
C768 C 0.70614 0.87154 0.1388 0.0
C769 C 0.68963 0.85556 0.13281 0.0
C770 C 0.67387 0.85713 0.12862 0.0
C771 C 0.67464 0.87417 0.13059 0.0
H772 H 0.10788 0.758 0.1693 0.0
N773 N 0.09987 0.7831 0.14698 0.0
H774 H 0.0973 0.74276 0.21137 0.0
H775 H 0.08142 0.78993 0.18308 0.0
H776 H 0.07107 0.7749 0.22589 0.0
H777 H 0.06863 0.77365 0.12198 0.0
H778 H 0.0528 0.74889 0.09009 0.0
H779 H 0.11389 0.76334 0.1242 0.0
H780 H 0.09765 0.73766 0.09381 0.0
H781 H 0.13331 0.78801 0.16345 0.0
H782 H 0.10696 0.81351 0.12149 0.0
H783 H 0.16244 0.81615 0.16052 0.0
H784 H 0.13628 0.84144 0.11683 0.0
H785 H 0.24149 0.88931 0.16573 0.0
H786 H 0.25861 0.90004 0.20711 0.0
H787 H 0.23181 0.9316 0.22227 0.0
H788 H 0.21534 0.92137 0.18027 0.0
H789 H 0.22382 0.93105 0.12128 0.0
H790 H 0.24768 0.94992 0.08994 0.0
H791 H 0.26469 0.9091 0.088 0.0
H792 H 0.24072 0.89027 0.11888 0.0
H793 H 0.21555 0.86655 0.13882 0.0
H794 H 0.18716 0.83734 0.13578 0.0
H795 H 0.15655 0.86607 0.14225 0.0
N796 N 0.21869 0.90047 0.14434 0.0
H797 H 0.18502 0.89512 0.1437 0.0
C798 C 0.09541 0.77516 0.17292 0.0
C799 C 0.09998 0.76193 0.18145 0.0
C800 C 0.09394 0.75321 0.20563 0.0
C801 C 0.08316 0.75746 0.22181 0.0
C802 C 0.07903 0.77107 0.21361 0.0
C803 C 0.08509 0.77979 0.18935 0.0
C804 C 0.09224 0.77013 0.12574 0.0
C805 C 0.07514 0.76602 0.11548 0.0
C806 C 0.06601 0.75169 0.0976 0.0
C807 C 0.07366 0.74085 0.09006 0.0
C808 C 0.09129 0.74562 0.09933 0.0
C809 C 0.10056 0.76023 0.11686 0.0
C810 C 0.11775 0.79876 0.14321 0.0
C811 C 0.13376 0.79957 0.15332 0.0
C812 C 0.15057 0.81574 0.15134 0.0
C813 C 0.15183 0.83134 0.13877 0.0
C814 C 0.13589 0.83001 0.12738 0.0
C815 C 0.11909 0.81398 0.12976 0.0
C816 C 0.2273 0.90476 0.16986 0.0
C817 C 0.23927 0.89849 0.17798 0.0
C818 C 0.249 0.90459 0.20169 0.0
C819 C 0.24685 0.91699 0.2177 0.0
C820 C 0.23419 0.9225 0.21002 0.0
C821 C 0.22461 0.91653 0.18625 0.0
C822 C 0.23039 0.90925 0.12235 0.0
C823 C 0.23236 0.92596 0.11343 0.0
C824 C 0.24604 0.93674 0.09571 0.0
C825 C 0.25805 0.93098 0.08648 0.0
C826 C 0.25547 0.91377 0.09438 0.0
C827 C 0.24176 0.90299 0.11218 0.0
C828 C 0.20236 0.88306 0.14101 0.0
C829 C 0.20274 0.86656 0.13895 0.0
C830 C 0.18641 0.84979 0.13758 0.0
C831 C 0.16938 0.84917 0.13867 0.0
C832 C 0.16924 0.86584 0.14067 0.0
C833 C 0.18552 0.88252 0.14169 0.0
H834 H 0.3543 0.24723 0.86465 0.0
N835 N 0.32015 0.22142 0.87993 0.0
H836 H 0.3623 0.26378 0.82301 0.0
H837 H 0.29838 0.21564 0.83853 0.0
H838 H 0.3064 0.23185 0.79629 0.0
H839 H 0.30197 0.23838 0.89348 0.0
H840 H 0.31185 0.26411 0.9239 0.0
H841 H 0.34931 0.23382 0.91473 0.0
H842 H 0.35872 0.2588 0.94587 0.0
H843 H 0.35087 0.21785 0.87814 0.0
H844 H 0.29272 0.18803 0.88865 0.0
H845 H 0.35209 0.18953 0.88202 0.0
H846 H 0.29346 0.15937 0.89055 0.0
H847 H 0.3518 0.10844 0.85857 0.0
H848 H 0.35676 0.09795 0.81665 0.0
H849 H 0.2993 0.0735 0.79823 0.0
H850 H 0.2943 0.08368 0.8409 0.0
H851 H 0.29756 0.0695 0.90186 0.0
H852 H 0.30642 0.05358 0.93438 0.0
H853 H 0.36147 0.09922 0.93448 0.0
H854 H 0.35209 0.11547 0.90349 0.0
H855 H 0.34518 0.13412 0.85749 0.0
H856 H 0.3461 0.16336 0.86005 0.0
H857 H 0.30046 0.13987 0.91305 0.0
N858 N 0.31891 0.10135 0.87868 0.0
H859 H 0.29875 0.11013 0.90856 0.0
C860 C 0.32569 0.23012 0.85463 0.0
C861 C 0.34381 0.24358 0.84974 0.0
C862 C 0.34838 0.253 0.82584 0.0
C863 C 0.335 0.24901 0.80626 0.0
C864 C 0.31698 0.23527 0.81104 0.0
C865 C 0.31241 0.22593 0.835 0.0
C866 C 0.32479 0.23408 0.90159 0.0
C867 C 0.31422 0.24259 0.90521 0.0
C868 C 0.31989 0.25728 0.92259 0.0
C869 C 0.33629 0.26377 0.93689 0.0
C870 C 0.3463 0.25449 0.93454 0.0
C871 C 0.34075 0.23995 0.91687 0.0
C872 C 0.32167 0.20513 0.88363 0.0
C873 C 0.33835 0.20521 0.88153 0.0
C874 C 0.33896 0.18885 0.88335 0.0
C875 C 0.32287 0.17191 0.88659 0.0
C876 C 0.30625 0.17201 0.88873 0.0
C877 C 0.30573 0.18841 0.88745 0.0
C878 C 0.32256 0.09672 0.85303 0.0
C879 C 0.34022 0.10083 0.84565 0.0
C880 C 0.34308 0.09491 0.82154 0.0
C881 C 0.32839 0.08471 0.80428 0.0
C882 C 0.31083 0.08102 0.81136 0.0
C883 C 0.30797 0.08695 0.83555 0.0
C884 C 0.32413 0.09358 0.90022 0.0
C885 C 0.31141 0.07621 0.90949 0.0
C886 C 0.31656 0.06708 0.92784 0.0
C887 C 0.33467 0.07507 0.93714 0.0
C888 C 0.34731 0.09277 0.9283 0.0
C889 C 0.34204 0.10203 0.9103 0.0
C890 C 0.32153 0.1196 0.8824 0.0
C891 C 0.33529 0.1351 0.86963 0.0
C892 C 0.33595 0.15208 0.87139 0.0
C893 C 0.32319 0.15417 0.88649 0.0
C894 C 0.31018 0.13884 0.90052 0.0
C895 C 0.3093 0.1218 0.89827 0.0
H896 H 0.79033 0.08007 0.85335 0.0
N897 N 0.78609 0.10317 0.88397 0.0
H898 H 0.7742 0.06645 0.81196 0.0
H899 H 0.76366 0.11257 0.85692 0.0
H900 H 0.74804 0.0995 0.81516 0.0
H901 H 0.77949 0.07309 0.90991 0.0
H902 H 0.75448 0.05558 0.94029 0.0
H903 H 0.76402 0.11488 0.90487 0.0
H904 H 0.73864 0.09725 0.9349 0.0
H905 H 0.79125 0.13703 0.86994 0.0
H906 H 0.817 0.10912 0.90679 0.0
H907 H 0.81991 0.16587 0.8722 0.0
H908 H 0.84548 0.13809 0.91086 0.0
H909 H 0.89096 0.23744 0.85505 0.0
H910 H 0.90286 0.25278 0.81303 0.0
H911 H 0.94263 0.23444 0.81466 0.0
H912 H 0.93099 0.21969 0.85702 0.0
H913 H 0.93236 0.22409 0.91591 0.0
H914 H 0.95091 0.24972 0.94565 0.0
H915 H 0.91528 0.27209 0.93009 0.0
H916 H 0.897 0.24666 0.90033 0.0
H917 H 0.87198 0.21817 0.89371 0.0
H918 H 0.84251 0.19019 0.89692 0.0
H919 H 0.86909 0.15805 0.88417 0.0
N920 N 0.90505 0.22025 0.88513 0.0
H921 H 0.89846 0.18608 0.88251 0.0
C922 C 0.77848 0.09753 0.85799 0.0
C923 C 0.78139 0.08462 0.84481 0.0
C924 C 0.77214 0.07682 0.8213 0.0
C925 C 0.75994 0.08198 0.81039 0.0
C926 C 0.75753 0.09544 0.82306 0.0
C927 C 0.76655 0.103 0.84685 0.0
C928 C 0.77353 0.09517 0.9052 0.0
C929 C 0.77091 0.07866 0.91592 0.0
C930 C 0.75659 0.06865 0.93308 0.0
C931 C 0.74459 0.07502 0.93989 0.0
C932 C 0.74782 0.09212 0.93026 0.0
C933 C 0.76222 0.10215 0.91302 0.0
C934 C 0.80211 0.12079 0.88766 0.0
C935 C 0.80301 0.13711 0.8788 0.0
C936 C 0.81946 0.15372 0.8804 0.0
C937 C 0.83525 0.15441 0.89135 0.0
C938 C 0.83387 0.13813 0.90155 0.0
C939 C 0.81754 0.12155 0.89952 0.0
C940 C 0.91018 0.22747 0.85906 0.0
C941 C 0.90209 0.23656 0.84616 0.0
C942 C 0.9088 0.24518 0.822 0.0
C943 C 0.92358 0.24465 0.81027 0.0
C944 C 0.93124 0.23508 0.82306 0.0
C945 C 0.92459 0.22659 0.84718 0.0
C946 C 0.91317 0.23327 0.90619 0.0
C947 C 0.92826 0.23424 0.91959 0.0
C948 C 0.93888 0.24891 0.93637 0.0
C949 C 0.93446 0.26282 0.94024 0.0
C950 C 0.9188 0.26138 0.92783 0.0
C951 C 0.90828 0.24678 0.91084 0.0
C952 C 0.8875 0.20417 0.88833 0.0
C953 C 0.87149 0.20511 0.89214 0.0
C954 C 0.85456 0.18902 0.89365 0.0
C955 C 0.85327 0.17169 0.89097 0.0
C956 C 0.86943 0.17098 0.88705 0.0
C957 C 0.88628 0.18701 0.8859 0.0
H958 H 0.75027 0.68335 0.87826 0.0
N959 N 0.78588 0.69217 0.88783 0.0
H960 H 0.73496 0.67893 0.83657 0.0
H961 H 0.80025 0.69593 0.83847 0.0
H962 H 0.7846 0.69196 0.79642 0.0
H963 H 0.76394 0.65581 0.89845 0.0
H964 H 0.73917 0.6431 0.93005 0.0
H965 H 0.78069 0.71021 0.92643 0.0
H966 H 0.75618 0.69758 0.95873 0.0
H967 H 0.81822 0.71785 0.90517 0.0
H968 H 0.79044 0.66317 0.87357 0.0
H969 H 0.84695 0.7173 0.90593 0.0
H970 H 0.81925 0.66261 0.87343 0.0
H971 H 0.93633 0.71382 0.85622 0.0
H972 H 0.94651 0.70738 0.81496 0.0
H973 H 0.89442 0.65809 0.80581 0.0
H974 H 0.8848 0.66414 0.84791 0.0
H975 H 0.89838 0.65832 0.89205 0.0
H976 H 0.91634 0.6503 0.9221 0.0
H977 H 0.94758 0.70679 0.94633 0.0
H978 H 0.92948 0.71471 0.91629 0.0
H979 H 0.89785 0.71988 0.87239 0.0
H980 H 0.86848 0.71886 0.87522 0.0
H981 H 0.84333 0.6621 0.899 0.0
N982 N 0.90522 0.69304 0.88076 0.0
H983 H 0.87277 0.66317 0.89521 0.0
C984 C 0.77641 0.68866 0.86242 0.0
C985 C 0.75803 0.68466 0.86086 0.0
C986 C 0.74917 0.6824 0.83676 0.0
C987 C 0.75845 0.68467 0.81324 0.0
C988 C 0.77693 0.68946 0.81432 0.0
C989 C 0.78586 0.69165 0.83856 0.0
C990 C 0.77421 0.684 0.91018 0.0
C991 C 0.76279 0.66494 0.9122 0.0
C992 C 0.74856 0.6577 0.93027 0.0
C993 C 0.74568 0.66935 0.9469 0.0
C994 C 0.75795 0.68828 0.94603 0.0
C995 C 0.77206 0.6955 0.92784 0.0
C996 C 0.80227 0.6907 0.88915 0.0
C997 C 0.81837 0.70571 0.89843 0.0
C998 C 0.83479 0.70539 0.89864 0.0
C999 C 0.83555 0.69001 0.88937 0.0
C1000 C 0.81921 0.67464 0.8809 0.0
C1001 C 0.8027 0.67494 0.88091 0.0
C1002 C 0.90977 0.68968 0.85496 0.0
C1003 C 0.92704 0.70178 0.84506 0.0
C1004 C 0.93277 0.69813 0.82137 0.0
C1005 C 0.92117 0.68237 0.80677 0.0
C1006 C 0.90369 0.67035 0.81656 0.0
C1007 C 0.89809 0.67388 0.84053 0.0
C1008 C 0.91256 0.68716 0.90206 0.0
C1009 C 0.90862 0.66886 0.90449 0.0
C1010 C 0.91895 0.6643 0.92158 0.0
C1011 C 0.93348 0.67798 0.93624 0.0
C1012 C 0.93658 0.69603 0.93503 0.0
C1013 C 0.92619 0.70054 0.91809 0.0
C1014 C 0.88762 0.69176 0.88382 0.0
C1015 C 0.886 0.70727 0.87835 0.0
C1016 C 0.86918 0.70665 0.88015 0.0
C1017 C 0.85346 0.69044 0.88762 0.0
C1018 C 0.85508 0.67479 0.89304 0.0
C1019 C 0.87199 0.67542 0.8911 0.0
H1020 H 0.7328 0.62754 0.50443 0.0
N1021 N 0.76456 0.64735 0.48096 0.0
H1022 H 0.72275 0.63421 0.54564 0.0
H1023 H 0.78594 0.67479 0.5155 0.0
H1024 H 0.77632 0.68105 0.55747 0.0
H1025 H 0.77185 0.68272 0.4745 0.0
H1026 H 0.75688 0.69341 0.44328 0.0
H1027 H 0.7421 0.62842 0.44169 0.0
H1028 H 0.72719 0.63914 0.40995 0.0
H1029 H 0.77307 0.62162 0.49257 0.0
H1030 H 0.79638 0.67676 0.46295 0.0
H1031 H 0.80252 0.62298 0.48883 0.0
H1032 H 0.82561 0.67792 0.45766 0.0
H1033 H 0.90569 0.68248 0.49967 0.0
H1034 H 0.92092 0.68643 0.54217 0.0
H1035 H 0.8974 0.62781 0.54889 0.0
H1036 H 0.88191 0.62394 0.50639 0.0
H1037 H 0.90786 0.68341 0.45273 0.0
H1038 H 0.93374 0.68987 0.42442 0.0
H1039 H 0.91508 0.63195 0.41929 0.0
H1040 H 0.88967 0.62571 0.44823 0.0
H1041 H 0.85213 0.62266 0.46062 0.0
H1042 H 0.82307 0.62251 0.45936 0.0
H1043 H 0.85114 0.68002 0.47978 0.0
N1044 N 0.8846 0.65012 0.47407 0.0
H1045 H 0.88016 0.68017 0.47912 0.0
C1046 C 0.76012 0.65045 0.50701 0.0
C1047 C 0.74244 0.63904 0.51619 0.0
C1048 C 0.73677 0.64282 0.53984 0.0
C1049 C 0.74881 0.65802 0.5551 0.0
C1050 C 0.76671 0.66925 0.54617 0.0
C1051 C 0.77229 0.66559 0.52228 0.0
C1052 C 0.75809 0.6547 0.46037 0.0
C1053 C 0.76238 0.67317 0.46022 0.0
C1054 C 0.75378 0.67927 0.44238 0.0
C1055 C 0.74067 0.66704 0.42445 0.0
C1056 C 0.73697 0.64878 0.4239 0.0
C1057 C 0.7456 0.64269 0.44175 0.0
C1058 C 0.7823 0.64889 0.47781 0.0
C1059 C 0.78451 0.63394 0.48492 0.0
C1060 C 0.80137 0.63472 0.48249 0.0
C1061 C 0.81655 0.65049 0.47255 0.0
C1062 C 0.81435 0.66558 0.46555 0.0
C1063 C 0.79748 0.66486 0.46835 0.0
C1064 C 0.89237 0.65283 0.50008 0.0
C1065 C 0.90337 0.67044 0.51055 0.0
C1066 C 0.91208 0.67269 0.5349 0.0
C1067 C 0.91009 0.65739 0.54907 0.0
C1068 C 0.899 0.63981 0.53859 0.0
C1069 C 0.89014 0.63758 0.51439 0.0
C1070 C 0.897 0.65406 0.45276 0.0
C1071 C 0.90917 0.67212 0.44507 0.0
C1072 C 0.9239 0.67577 0.42887 0.0
C1073 C 0.92664 0.66143 0.42018 0.0
C1074 C 0.91355 0.6433 0.42619 0.0
C1075 C 0.89894 0.63969 0.44243 0.0
C1076 C 0.86824 0.65129 0.4703 0.0
C1077 C 0.85197 0.63528 0.46431 0.0
C1078 C 0.83535 0.63521 0.46398 0.0
C1079 C 0.83456 0.65116 0.4701 0.0
C1080 C 0.85109 0.66746 0.47491 0.0
C1081 C 0.86778 0.66756 0.47479 0.0
H1082 H 0.3805 0.11799 0.49848 0.0
N1083 N 0.35455 0.11892 0.46965 0.0
H1084 H 0.37703 0.10209 0.54017 0.0
H1085 H 0.32355 0.10234 0.49869 0.0
H1086 H 0.31981 0.08605 0.54034 0.0
H1087 H 0.32039 0.09368 0.45256 0.0
H1088 H 0.31311 0.06814 0.4229 0.0
H1089 H 0.37773 0.11441 0.44018 0.0
H1090 H 0.37051 0.08868 0.41061 0.0
H1091 H 0.38238 0.15264 0.47219 0.0
H1092 H 0.3241 0.12232 0.46136 0.0
H1093 H 0.38162 0.18131 0.47107 0.0
H1094 H 0.32316 0.15096 0.4589 0.0
H1095 H 0.32476 0.22917 0.50293 0.0
H1096 H 0.32443 0.24233 0.54528 0.0
H1097 H 0.38311 0.27483 0.54434 0.0
H1098 H 0.38344 0.26126 0.5019 0.0
H1099 H 0.31929 0.2243 0.45742 0.0
H1100 H 0.30731 0.23932 0.42842 0.0
H1101 H 0.36224 0.28255 0.41363 0.0
H1102 H 0.37398 0.26788 0.44396 0.0
H1103 H 0.37858 0.23136 0.44923 0.0
H1104 H 0.37761 0.20193 0.44464 0.0
H1105 H 0.3261 0.17543 0.48505 0.0
N1106 N 0.35486 0.23826 0.47297 0.0
H1107 H 0.32675 0.20468 0.48806 0.0
C1108 C 0.35233 0.11127 0.49554 0.0
C1109 C 0.3673 0.11127 0.50778 0.0
C1110 C 0.36523 0.10207 0.53147 0.0
C1111 C 0.34808 0.09258 0.54338 0.0
C1112 C 0.33319 0.09324 0.53163 0.0
C1113 C 0.33529 0.10249 0.50782 0.0
C1114 C 0.34967 0.10615 0.44829 0.0
C1115 C 0.3314 0.09316 0.44273 0.0
C1116 C 0.32725 0.07849 0.42581 0.0
C1117 C 0.34126 0.07648 0.41443 0.0
C1118 C 0.35946 0.08994 0.41909 0.0
C1119 C 0.36359 0.10467 0.43577 0.0
C1120 C 0.35341 0.13539 0.46657 0.0
C1121 C 0.36945 0.15224 0.46901 0.0
C1122 C 0.36896 0.16863 0.46819 0.0
C1123 C 0.35232 0.16859 0.46468 0.0
C1124 C 0.3362 0.15159 0.46189 0.0
C1125 C 0.33672 0.13514 0.46299 0.0
C1126 C 0.35423 0.24407 0.49931 0.0
C1127 C 0.33762 0.23869 0.51201 0.0
C1128 C 0.33742 0.24628 0.53625 0.0
C1129 C 0.35374 0.25961 0.54798 0.0
C1130 C 0.37034 0.26462 0.53563 0.0
C1131 C 0.37056 0.25685 0.51154 0.0
C1132 C 0.34755 0.24507 0.4529 0.0
C1133 C 0.32874 0.23691 0.44778 0.0
C1134 C 0.32193 0.24545 0.43095 0.0
C1135 C 0.33384 0.26212 0.41854 0.0
C1136 C 0.3527 0.26983 0.42301 0.0
C1137 C 0.35945 0.2614 0.44008 0.0
C1138 C 0.35299 0.22038 0.46936 0.0
C1139 C 0.36701 0.21913 0.45682 0.0
C1140 C 0.36648 0.20228 0.45445 0.0
C1141 C 0.35193 0.18622 0.46489 0.0
C1142 C 0.3375 0.18741 0.47663 0.0
C1143 C 0.33795 0.20428 0.47866 0.0
H1144 H 0.77933 0.09571 0.50388 0.0
N1145 N 0.76896 0.11868 0.48061 0.0
H1146 H 0.76933 0.08051 0.54622 0.0
H1147 H 0.74786 0.12285 0.515 0.0
H1148 H 0.73642 0.10646 0.55639 0.0
H1149 H 0.73488 0.10293 0.46282 0.0
H1150 H 0.71981 0.07706 0.43273 0.0
H1151 H 0.78579 0.10343 0.45285 0.0
H1152 H 0.77113 0.07825 0.42126 0.0
H1153 H 0.80313 0.12446 0.49507 0.0
H1154 H 0.7748 0.14919 0.45641 0.0
H1155 H 0.83182 0.15286 0.49094 0.0
H1156 H 0.80371 0.17749 0.45074 0.0
H1157 H 0.90783 0.2239 0.49707 0.0
H1158 H 0.92421 0.23341 0.53892 0.0
H1159 H 0.90068 0.26815 0.55281 0.0
H1160 H 0.88517 0.25932 0.50991 0.0
H1161 H 0.89109 0.26656 0.44927 0.0
H1162 H 0.9158 0.28604 0.41947 0.0
H1163 H 0.93564 0.24743 0.42277 0.0
H1164 H 0.91068 0.22784 0.4518 0.0
H1165 H 0.88379 0.20331 0.46631 0.0
H1166 H 0.85544 0.17403 0.46427 0.0
H1167 H 0.82483 0.20233 0.47555 0.0
N1168 N 0.88696 0.23706 0.47463 0.0
H1169 H 0.85323 0.23149 0.47626 0.0
C1170 C 0.7648 0.11093 0.50665 0.0
C1171 C 0.77061 0.09875 0.51573 0.0
C1172 C 0.76456 0.08978 0.53979 0.0
C1173 C 0.75215 0.09233 0.55499 0.0
C1174 C 0.74642 0.10457 0.5458 0.0
C1175 C 0.75284 0.11389 0.52204 0.0
C1176 C 0.76146 0.10529 0.45983 0.0
C1177 C 0.74292 0.0978 0.4534 0.0
C1178 C 0.73436 0.08308 0.436 0.0
C1179 C 0.74428 0.07569 0.42412 0.0
C1180 C 0.76305 0.08356 0.43007 0.0
C1181 C 0.77153 0.0981 0.44793 0.0
C1182 C 0.78657 0.13473 0.47655 0.0
C1183 C 0.80301 0.1359 0.48548 0.0
C1184 C 0.81959 0.15224 0.48278 0.0
C1185 C 0.82023 0.16771 0.47073 0.0
C1186 C 0.80383 0.16613 0.46075 0.0
C1187 C 0.78726 0.14989 0.46376 0.0
C1188 C 0.89533 0.24101 0.50033 0.0
C1189 C 0.90616 0.23353 0.50907 0.0
C1190 C 0.91536 0.23884 0.53323 0.0
C1191 C 0.91359 0.25139 0.54943 0.0
C1192 C 0.90243 0.25854 0.54078 0.0
C1193 C 0.89345 0.25342 0.51643 0.0
C1194 C 0.89903 0.24582 0.45295 0.0
C1195 C 0.90046 0.26206 0.44291 0.0
C1196 C 0.91469 0.27325 0.42615 0.0
C1197 C 0.92791 0.26847 0.41931 0.0
C1198 C 0.92569 0.2515 0.42777 0.0
C1199 C 0.91138 0.24027 0.44447 0.0
C1200 C 0.87061 0.21967 0.47105 0.0
C1201 C 0.87098 0.20324 0.46774 0.0
C1202 C 0.85467 0.18642 0.46692 0.0
C1203 C 0.83767 0.18564 0.46974 0.0
C1204 C 0.83749 0.20224 0.47273 0.0
C1205 C 0.85374 0.21898 0.47327 0.0
H1206 H 0.01861 0.58098 0.19346 0.0
N1207 N 0.98565 0.55462 0.21195 0.0
H1208 H 0.0241 0.59677 0.15127 0.0
H1209 H 0.9619 0.54705 0.17257 0.0
H1210 H 0.96737 0.56256 0.12992 0.0
H1211 H 0.96731 0.57086 0.22781 0.0
H1212 H 0.97747 0.59636 0.25847 0.0
H1213 H 0.01661 0.56859 0.24285 0.0
H1214 H 0.02644 0.59343 0.2748 0.0
H1215 H 0.01514 0.55043 0.20005 0.0
H1216 H 0.96116 0.52289 0.23242 0.0
H1217 H 0.01646 0.52207 0.20228 0.0
H1218 H 0.96264 0.49457 0.23598 0.0
H1219 H 0.0178 0.45756 0.17954 0.0
H1220 H 0.02302 0.44797 0.13675 0.0
H1221 H 0.97378 0.39588 0.1454 0.0
H1222 H 0.96821 0.40602 0.18741 0.0
H1223 H 0.96964 0.41026 0.24565 0.0
H1224 H 0.98019 0.3941 0.27502 0.0
H1225 H 0.03595 0.43287 0.25548 0.0
H1226 H 0.02515 0.4477 0.22442 0.0
H1227 H 0.01872 0.47087 0.22549 0.0
H1228 H 0.01843 0.49967 0.2286 0.0
H1229 H 0.96106 0.47157 0.20805 0.0
N1230 N 0.9895 0.4371 0.21251 0.0
H1231 H 0.96138 0.44266 0.20607 0.0
C1232 C 0.98976 0.56285 0.18619 0.0
C1233 C 0.00739 0.57674 0.17964 0.0
C1234 C 0.01051 0.58576 0.1555 0.0
C1235 C 0.9961 0.5811 0.13747 0.0
C1236 C 0.97865 0.56673 0.14366 0.0
C1237 C 0.97554 0.55774 0.16784 0.0
C1238 C 0.991 0.56762 0.23323 0.0
C1239 C 0.98006 0.57549 0.23844 0.0
C1240 C 0.98585 0.59001 0.25613 0.0
C1241 C 1.00267 0.59682 0.26948 0.0
C1242 C 0.01343 0.58855 0.26483 0.0
C1243 C 0.00773 0.57419 0.24674 0.0
C1244 C 0.98785 0.53872 0.2157 0.0
C1245 C 0.00363 0.53834 0.20795 0.0
C1246 C 0.00443 0.52206 0.20947 0.0
C1247 C 0.98956 0.50584 0.21903 0.0
C1248 C 0.97418 0.50659 0.2279 0.0
C1249 C 0.97335 0.52281 0.22614 0.0
C1250 C 0.99239 0.43257 0.18643 0.0
C1251 C 0.00792 0.44427 0.17192 0.0
C1252 C 0.01096 0.43869 0.14755 0.0
C1253 C 0.99869 0.42124 0.13742 0.0
C1254 C 0.9832 0.40962 0.1521 0.0
C1255 C 0.98005 0.41531 0.17621 0.0
C1256 C 0.99653 0.4304 0.23322 0.0
C1257 C 0.98414 0.4154 0.2481 0.0
C1258 C 0.99022 0.40618 0.26484 0.0
C1259 C 0.00893 0.4119 0.26727 0.0
C1260 C 0.02141 0.42764 0.25347 0.0
C1261 C 0.01527 0.43655 0.2362 0.0
C1262 C 0.98993 0.4544 0.21583 0.0
C1263 C 0.006 0.47076 0.22205 0.0
C1264 C 0.00586 0.48737 0.22356 0.0
C1265 C 0.98971 0.48807 0.21866 0.0
C1266 C 0.97369 0.47163 0.21253 0.0
C1267 C 0.97383 0.45506 0.21121 0.0
H1268 H 0.59815 0.55184 0.1936 0.0
N1269 N 0.57046 0.5508 0.21906 0.0
H1270 H 0.61134 0.56765 0.15243 0.0
H1271 H 0.55588 0.56639 0.18648 0.0
H1272 H 0.56926 0.58271 0.14541 0.0
H1273 H 0.56467 0.57941 0.2302 0.0
H1274 H 0.58345 0.60506 0.25938 0.0
H1275 H 0.59526 0.55283 0.25361 0.0
H1276 H 0.61432 0.5787 0.28272 0.0
H1277 H 0.56116 0.51606 0.21225 0.0
H1278 H 0.53873 0.55088 0.23103 0.0
H1279 H 0.53085 0.48925 0.21424 0.0
H1280 H 0.50845 0.5241 0.23457 0.0
H1281 H 0.42703 0.44913 0.18858 0.0
H1282 H 0.41243 0.43495 0.14661 0.0
H1283 H 0.4357 0.39928 0.1523 0.0
H1284 H 0.45048 0.41376 0.19411 0.0
H1285 H 0.42097 0.44606 0.23913 0.0
H1286 H 0.39633 0.42605 0.26889 0.0
H1287 H 0.42103 0.39184 0.27858 0.0
H1288 H 0.44536 0.41174 0.24847 0.0
H1289 H 0.47774 0.44196 0.23889 0.0
H1290 H 0.50761 0.46958 0.24179 0.0
H1291 H 0.48406 0.50141 0.21018 0.0
N1292 N 0.44675 0.43927 0.22009 0.0
H1293 H 0.45411 0.4738 0.20905 0.0
C1294 C 0.57617 0.55804 0.1931 0.0
C1295 C 0.59162 0.55828 0.18288 0.0
C1296 C 0.5992 0.56745 0.1595 0.0
C1297 C 0.59155 0.57673 0.14589 0.0
C1298 C 0.57549 0.57573 0.15548 0.0
C1299 C 0.56786 0.56646 0.17896 0.0
C1300 C 0.57843 0.56402 0.23994 0.0
C1301 C 0.57497 0.57873 0.24228 0.0
C1302 C 0.58579 0.59348 0.25887 0.0
C1303 C 0.60042 0.5939 0.27305 0.0
C1304 C 0.60321 0.57874 0.27181 0.0
C1305 C 0.59227 0.56393 0.25543 0.0
C1306 C 0.55233 0.53544 0.22176 0.0
C1307 C 0.54968 0.51785 0.21724 0.0
C1308 C 0.53231 0.50251 0.21863 0.0
C1309 C 0.51705 0.50434 0.22488 0.0
C1310 C 0.51976 0.52208 0.22948 0.0
C1311 C 0.5372 0.53749 0.22772 0.0
C1312 C 0.43995 0.43257 0.19417 0.0
C1313 C 0.42933 0.43858 0.18042 0.0
C1314 C 0.42097 0.43044 0.15654 0.0
C1315 C 0.42288 0.41596 0.1463 0.0
C1316 C 0.43392 0.41032 0.15982 0.0
C1317 C 0.44243 0.41861 0.18355 0.0
C1318 C 0.43488 0.43029 0.24171 0.0
C1319 C 0.42129 0.43454 0.24829 0.0
C1320 C 0.40726 0.4231 0.26523 0.0
C1321 C 0.40663 0.40723 0.27567 0.0
C1322 C 0.42102 0.40381 0.27047 0.0
C1323 C 0.43499 0.41522 0.25354 0.0
C1324 C 0.46382 0.45586 0.22363 0.0
C1325 C 0.47906 0.45499 0.23302 0.0
C1326 C 0.49616 0.47079 0.23434 0.0
C1327 C 0.49846 0.48782 0.22581 0.0
C1328 C 0.48292 0.48867 0.21715 0.0
C1329 C 0.46576 0.47286 0.21625 0.0
H1330 H 0.55134 0.99035 0.18125 0.0
N1331 N 0.57071 0.01762 0.21733 0.0
H1332 H 0.5621 0.98657 0.13895 0.0
H1333 H 0.60228 0.03996 0.19475 0.0
H1334 H 0.61359 0.03569 0.1529 0.0
H1335 H 0.59194 0.0371 0.25723 0.0
H1336 H 0.61009 0.02856 0.28629 0.0
H1337 H 0.56574 0.98308 0.22322 0.0
H1338 H 0.58419 0.97467 0.25172 0.0
H1339 H 0.53732 0.98661 0.22194 0.0
H1340 H 0.56451 0.0455 0.22111 0.0
H1341 H 0.50771 0.98538 0.22241 0.0
H1342 H 0.53526 0.04463 0.22394 0.0
H1343 H 0.43629 0.98579 0.18552 0.0
H1344 H 0.41934 0.98209 0.14451 0.0
H1345 H 0.43102 0.03825 0.15027 0.0
H1346 H 0.4468 0.04128 0.19206 0.0
H1347 H 0.44667 0.0362 0.25369 0.0
H1348 H 0.42142 0.02654 0.28449 0.0
H1349 H 0.39948 0.97065 0.25847 0.0
H1350 H 0.42497 0.98031 0.2285 0.0
H1351 H 0.45667 0.98928 0.24105 0.0
H1352 H 0.48567 0.98942 0.24371 0.0
H1353 H 0.51086 0.03939 0.1981 0.0
N1354 N 0.45062 0.01571 0.21761 0.0
H1355 H 0.48225 0.03979 0.19731 0.0
C1356 C 0.57589 0.01573 0.19111 0.0
C1357 C 0.56473 1.00062 0.17505 0.0
C1358 C 0.57101 0.99834 0.15086 0.0
C1359 C 0.58866 0.01091 0.14234 0.0
C1360 C 0.59974 0.02603 0.15841 0.0
C1361 C 0.59335 0.02845 0.18241 0.0
C1362 C 0.57764 0.01082 0.23799 0.0
C1363 C 0.5897 0.02324 0.25665 0.0
C1364 C 0.60005 0.01837 0.27315 0.0
C1365 C 0.59858 1.00104 0.27099 0.0
C1366 C 0.58553 0.98813 0.25365 0.0
C1367 C 0.57498 0.99291 0.23743 0.0
C1368 C 0.5531 0.01621 0.2207 0.0
C1369 C 0.5369 0.99929 0.22206 0.0
C1370 C 0.51994 0.99865 0.22269 0.0
C1371 C 0.51887 0.01492 0.22265 0.0
C1372 C 0.5353 0.03176 0.22295 0.0
C1373 C 0.55213 0.03235 0.22168 0.0
C1374 C 0.44258 0.01378 0.19189 0.0
C1375 C 0.43518 0.99726 0.17784 0.0
C1376 C 0.42574 0.99529 0.15415 0.0
C1377 C 0.42396 0.00996 0.14378 0.0
C1378 C 0.43202 0.02665 0.1576 0.0
C1379 C 0.44113 0.02847 0.18142 0.0
C1380 C 0.43776 0.00905 0.23881 0.0
C1381 C 0.43665 0.02181 0.25519 0.0
C1382 C 0.42209 0.01631 0.27245 0.0
C1383 C 0.40823 0.99789 0.27345 0.0
C1384 C 0.40991 0.98494 0.2581 0.0
C1385 C 0.42451 0.99046 0.24092 0.0
C1386 C 0.46726 0.01473 0.21919 0.0
C1387 C 0.46844 1.00037 0.23184 0.0
C1388 C 0.48512 1.00038 0.23315 0.0
C1389 C 0.50089 0.01455 0.22142 0.0
C1390 C 0.49936 0.02854 0.20819 0.0
C1391 C 0.48289 0.02871 0.2074 0.0
H1392 H 0.40205 0.96459 0.8359 0.0
N1393 N 0.43383 0.98642 0.81371 0.0
H1394 H 0.39046 0.96945 0.87707 0.0
H1395 H 0.45332 0.01375 0.8497 0.0
H1396 H 0.44224 0.01816 0.89139 0.0
H1397 H 0.44295 0.02216 0.80613 0.0
H1398 H 0.42846 0.03344 0.77492 0.0
H1399 H 0.41037 0.96755 0.77553 0.0
H1400 H 0.39601 0.9788 0.74373 0.0
H1401 H 0.43815 0.95746 0.80811 0.0
H1402 H 0.46825 0.01635 0.81095 0.0
H1403 H 0.46649 0.95664 0.80348 0.0
H1404 H 0.49686 0.01579 0.80871 0.0
H1405 H 0.5549 0.95818 0.83626 0.0
H1406 H 0.57087 0.9628 0.87833 0.0
H1407 H 0.58323 0.0193 0.87856 0.0
H1408 H 0.56648 0.0142 0.83691 0.0
H1409 H 0.57658 0.01726 0.79236 0.0
H1410 H 0.60157 0.02471 0.76214 0.0
H1411 H 0.57996 0.96721 0.74613 0.0
H1412 H 0.55478 0.95983 0.77628 0.0
H1413 H 0.51908 0.95826 0.82626 0.0
H1414 H 0.49099 0.95969 0.82705 0.0
H1415 H 0.51756 0.01121 0.78514 0.0
N1416 N 0.55117 0.9828 0.80797 0.0
H1417 H 0.54599 0.01018 0.78625 0.0
C1418 C 0.42861 0.98855 0.83976 0.0
C1419 C 0.41098 0.97612 0.8482 0.0
C1420 C 0.40443 0.97888 0.87181 0.0
C1421 C 0.41551 0.99408 0.88775 0.0
C1422 C 0.43334 0.00634 0.87954 0.0
C1423 C 0.43979 0.0037 0.85572 0.0
C1424 C 0.4278 0.994 0.79296 0.0
C1425 C 0.43306 0.0127 0.79218 0.0
C1426 C 0.42475 0.01912 0.77429 0.0
C1427 C 0.41114 0.00701 0.75678 0.0
C1428 C 0.40638 0.98843 0.75706 0.0
C1429 C 0.41467 0.98203 0.77498 0.0
C1430 C 0.45103 0.98684 0.81053 0.0
C1431 C 0.45096 0.97022 0.8081 0.0
C1432 C 0.46727 0.96983 0.80573 0.0
C1433 C 0.48423 0.98614 0.8063 0.0
C1434 C 0.4842 0.0029 0.80806 0.0
C1435 C 0.46778 0.00326 0.8098 0.0
C1436 C 0.55958 0.98581 0.83356 0.0
C1437 C 0.56082 0.97145 0.84569 0.0
C1438 C 0.56999 0.97416 0.86967 0.0
C1439 C 0.5782 0.99137 0.88204 0.0
C1440 C 0.57671 0.00575 0.86996 0.0
C1441 C 0.56735 0.00295 0.84599 0.0
C1442 C 0.56357 0.98792 0.78628 0.0
C1443 C 0.57675 0.00628 0.78163 0.0
C1444 C 0.5911 0.01054 0.76437 0.0
C1445 C 0.59267 0.99653 0.75174 0.0
C1446 C 0.57905 0.97827 0.75557 0.0
C1447 C 0.56461 0.97405 0.77258 0.0
C1448 C 0.53463 0.98393 0.80602 0.0
C1449 C 0.51879 0.96982 0.81714 0.0
C1450 C 0.50263 0.97063 0.81734 0.0
C1451 C 0.5017 0.98548 0.80586 0.0
C1452 C 0.51766 0.99963 0.79448 0.0
C1453 C 0.534 0.99897 0.79481 0.0
H1454 H 0.9893 0.56013 0.83336 0.0
N1455 N 0.02095 0.5708 0.8068 0.0
H1456 H 0.98647 0.57263 0.87527 0.0
H1457 H 0.04779 0.59305 0.83871 0.0
H1458 H 0.04501 0.606 0.88024 0.0
H1459 H 0.04049 0.60431 0.78753 0.0
H1460 H 0.02955 0.62124 0.76046 0.0
H1461 H 0.98759 0.556 0.78153 0.0
H1462 H 0.97696 0.57239 0.7533 0.0
H1463 H 0.99028 0.53681 0.81038 0.0
H1464 H 0.04791 0.56453 0.79524 0.0
H1465 H 0.98874 0.50738 0.80452 0.0
H1466 H 0.04695 0.53513 0.79155 0.0
H1467 H 0.99121 0.42793 0.82727 0.0
H1468 H 0.98881 0.41369 0.87018 0.0
H1469 H 0.04731 0.44435 0.87941 0.0
H1470 H 0.04964 0.45906 0.83665 0.0
H1471 H 0.04555 0.44434 0.77953 0.0
H1472 H 0.03788 0.41854 0.75005 0.0
H1473 H 0.98129 0.40478 0.75101 0.0
H1474 H 0.98925 0.43101 0.78007 0.0
H1475 H 0.99647 0.45859 0.82571 0.0
H1476 H 0.99526 0.48675 0.82432 0.0
H1477 H 0.03912 0.50902 0.76827 0.0
N1478 N 0.02265 0.45253 0.803 0.0
H1479 H 0.04123 0.48109 0.77164 0.0
C1480 C 0.01884 0.5755 0.83314 0.0
C1481 C 1.00155 0.5696 0.84391 0.0
C1482 C 0.99994 0.57684 0.86776 0.0
C1483 C 0.01554 0.59032 0.88088 0.0
C1484 C 0.0328 0.59566 0.87052 0.0
C1485 C 0.03441 0.58823 0.84694 0.0
C1486 C 0.01499 0.57888 0.7866 0.0
C1487 C 0.02669 0.5972 0.77971 0.0
C1488 C 0.02041 0.60685 0.76428 0.0
C1489 C 1.00224 0.5983 0.75523 0.0
C1490 C 0.99086 0.57958 0.7607 0.0
C1491 C 0.99706 0.57003 0.77656 0.0
C1492 C 0.01923 0.55301 0.80266 0.0
C1493 C 1.00262 0.53663 0.80553 0.0
C1494 C 1.00183 0.51966 0.80259 0.0
C1495 C 0.01771 0.51861 0.79751 0.0
C1496 C 0.03428 0.53514 0.79474 0.0
C1497 C 0.03495 0.55205 0.79709 0.0
C1498 C 0.02065 0.44486 0.82898 0.0
C1499 C 1.0035 0.43192 0.83871 0.0
C1500 C 1.00213 0.42379 0.86323 0.0
C1501 C 0.01788 0.42814 0.87816 0.0
C1502 C 0.03499 0.44095 0.86836 0.0
C1503 C 0.03632 0.44935 0.84407 0.0
C1504 C 0.01801 0.43953 0.78199 0.0
C1505 C 0.03159 0.43606 0.77274 0.0
C1506 C 0.02716 0.42127 0.75608 0.0
C1507 C 0.00898 0.40959 0.74831 0.0
C1508 C 0.99546 0.41367 0.75641 0.0
C1509 C 0.99994 0.42856 0.77311 0.0
C1510 C 0.01931 0.46774 0.79917 0.0
C1511 C 0.00587 0.46941 0.81307 0.0
C1512 C 0.00505 0.48567 0.81201 0.0
C1513 C 0.01729 0.50054 0.7965 0.0
C1514 C 0.02983 0.49824 0.78116 0.0
C1515 C 0.03091 0.48214 0.78273 0.0
H1516 H 0.45805 0.44399 0.85291 0.0
N1517 N 0.43871 0.45231 0.81662 0.0
H1518 H 0.44665 0.42782 0.89416 0.0
H1519 H 0.40677 0.44247 0.83855 0.0
H1520 H 0.39488 0.42538 0.87948 0.0
H1521 H 0.41631 0.44914 0.77731 0.0
H1522 H 0.40189 0.42405 0.74543 0.0
H1523 H 0.44737 0.42524 0.80949 0.0
H1524 H 0.43273 0.3999 0.77818 0.0
H1525 H 0.47302 0.45618 0.81387 0.0
H1526 H 0.44333 0.48576 0.81187 0.0
H1527 H 0.50179 0.48497 0.81238 0.0
H1528 H 0.47183 0.51457 0.80803 0.0
H1529 H 0.57449 0.55598 0.83812 0.0
H1530 H 0.59227 0.56633 0.87915 0.0
H1531 H 0.57522 0.60686 0.88815 0.0
H1532 H 0.55856 0.59718 0.84631 0.0
H1533 H 0.55764 0.59845 0.78448 0.0
H1534 H 0.58128 0.61756 0.75298 0.0
H1535 H 0.60581 0.58322 0.76269 0.0
H1536 H 0.58205 0.56409 0.79373 0.0
H1537 H 0.55135 0.53963 0.79144 0.0
H1538 H 0.52281 0.51053 0.78954 0.0
H1539 H 0.49621 0.53503 0.83233 0.0
N1540 N 0.55649 0.57161 0.81384 0.0
H1541 H 0.52441 0.56419 0.8323 0.0
C1542 C 0.43329 0.44464 0.84257 0.0
C1543 C 0.44441 0.4404 0.85865 0.0
C1544 C 0.43774 0.43085 0.88218 0.0
C1545 C 0.4197 0.42495 0.88985 0.0
C1546 C 0.40884 0.42974 0.87418 0.0
C1547 C 0.41559 0.43949 0.85081 0.0
C1548 C 0.43284 0.43906 0.79573 0.0
C1549 C 0.42021 0.43861 0.77718 0.0
C1550 C 0.41184 0.42418 0.75925 0.0
C1551 C 0.41588 0.40979 0.75971 0.0
C1552 C 0.42931 0.41077 0.77739 0.0
C1553 C 0.43773 0.42528 0.79527 0.0
C1554 C 0.45599 0.46887 0.8138 0.0
C1555 C 0.47268 0.46889 0.81305 0.0
C1556 C 0.4892 0.48546 0.81176 0.0
C1557 C 0.48937 0.50235 0.81049 0.0
C1558 C 0.47249 0.50205 0.80992 0.0
C1559 C 0.45609 0.48555 0.81183 0.0
C1560 C 0.56557 0.57614 0.83902 0.0
C1561 C 0.57479 0.56721 0.84884 0.0
C1562 C 0.5848 0.57305 0.87238 0.0
C1563 C 0.58555 0.58774 0.88662 0.0
C1564 C 0.57552 0.59598 0.87724 0.0
C1565 C 0.5658 0.59034 0.85355 0.0
C1566 C 0.568 0.57986 0.79146 0.0
C1567 C 0.5678 0.59475 0.77917 0.0
C1568 C 0.58141 0.60575 0.76144 0.0
C1569 C 0.59558 0.60207 0.75577 0.0
C1570 C 0.59506 0.58638 0.76668 0.0
C1571 C 0.58144 0.5754 0.78444 0.0
C1572 C 0.53993 0.55424 0.81163 0.0
C1573 C 0.5393 0.5388 0.79998 0.0
C1574 C 0.52291 0.52202 0.79921 0.0
C1575 C 0.50693 0.52023 0.8106 0.0
C1576 C 0.50789 0.53577 0.82259 0.0
C1577 C 0.52409 0.55251 0.82284 0.0
H1578 H 0.68405 0.91292 0.53386 0.0
N1579 N 0.64973 0.8868 0.54816 0.0
H1580 H 0.69261 0.92948 0.49228 0.0
H1581 H 0.6286 0.88089 0.50594 0.0
H1582 H 0.6372 0.89714 0.46376 0.0
H1583 H 0.63218 0.9046 0.56062 0.0
H1584 H 0.64256 0.93077 0.59031 0.0
H1585 H 0.67826 0.89842 0.58407 0.0
H1586 H 0.68815 0.92389 0.61442 0.0
H1587 H 0.68064 0.88355 0.54648 0.0
H1588 H 0.62247 0.85325 0.55678 0.0
H1589 H 0.68205 0.85531 0.54924 0.0
H1590 H 0.62345 0.82466 0.55779 0.0
H1591 H 0.68447 0.77831 0.52386 0.0
H1592 H 0.69158 0.76868 0.48273 0.0
H1593 H 0.63398 0.73598 0.4651 0.0
H1594 H 0.62709 0.74699 0.50547 0.0
H1595 H 0.63218 0.73343 0.55958 0.0
H1596 H 0.64267 0.71804 0.59026 0.0
H1597 H 0.69174 0.76946 0.60526 0.0
H1598 H 0.68152 0.78451 0.57317 0.0
H1599 H 0.67545 0.80105 0.52074 0.0
H1600 H 0.67572 0.82978 0.52487 0.0
H1601 H 0.63107 0.80493 0.57937 0.0
N1602 N 0.65049 0.76772 0.54276 0.0
H1603 H 0.63009 0.77556 0.5737 0.0
C1604 C 0.65562 0.8956 0.52296 0.0
C1605 C 0.67378 0.90919 0.51859 0.0
C1606 C 0.67868 0.91861 0.49472 0.0
C1607 C 0.6656 0.91451 0.47465 0.0
C1608 C 0.64755 0.90064 0.4789 0.0
C1609 C 0.64264 0.89129 0.50283 0.0
C1610 C 0.65436 0.89948 0.5698 0.0
C1611 C 0.64422 0.90853 0.5727 0.0
C1612 C 0.65018 0.92349 0.58966 0.0
C1613 C 0.66643 0.9297 0.60425 0.0
C1614 C 0.67588 0.91981 0.6028 0.0
C1615 C 0.67006 0.905 0.58557 0.0
C1616 C 0.6514 0.87058 0.55186 0.0
C1617 C 0.66815 0.87083 0.54962 0.0
C1618 C 0.66888 0.85452 0.55081 0.0
C1619 C 0.65285 0.83748 0.55358 0.0
C1620 C 0.63617 0.8374 0.55617 0.0
C1621 C 0.63552 0.85375 0.55545 0.0
C1622 C 0.6552 0.76363 0.5175 0.0
C1623 C 0.67339 0.76943 0.51085 0.0
C1624 C 0.67742 0.76358 0.48752 0.0
C1625 C 0.66334 0.75115 0.47085 0.0
C1626 C 0.64517 0.7456 0.47738 0.0
C1627 C 0.64119 0.75186 0.50041 0.0
C1628 C 0.6559 0.7601 0.56431 0.0
C1629 C 0.64501 0.74143 0.56996 0.0
C1630 C 0.651 0.73269 0.58767 0.0
C1631 C 0.66796 0.74253 0.60061 0.0
C1632 C 0.67863 0.76145 0.5956 0.0
C1633 C 0.67274 0.77014 0.57747 0.0
C1634 C 0.65245 0.78574 0.54665 0.0
C1635 C 0.66564 0.80152 0.53364 0.0
C1636 C 0.66594 0.81826 0.53626 0.0
C1637 C 0.65334 0.81987 0.55235 0.0
C1638 C 0.64073 0.80426 0.56627 0.0
C1639 C 0.64024 0.78744 0.56327 0.0
H1640 H 0.26475 0.88508 0.52327 0.0
N1641 N 0.23835 0.88497 0.5511 0.0
H1642 H 0.27655 0.9002 0.48118 0.0
H1643 H 0.22385 0.90166 0.52079 0.0
H1644 H 0.23584 0.91731 0.47895 0.0
H1645 H 0.23144 0.91223 0.56578 0.0
H1646 H 0.25044 0.93768 0.59526 0.0
H1647 H 0.26491 0.88768 0.58264 0.0
H1648 H 0.28407 0.91321 0.61218 0.0
H1649 H 0.23126 0.85065 0.54785 0.0
H1650 H 0.20565 0.88335 0.56103 0.0
H1651 H 0.20178 0.82282 0.55071 0.0
H1652 H 0.17606 0.85554 0.5653 0.0
H1653 H 0.12432 0.74596 0.52245 0.0
H1654 H 0.10875 0.73264 0.4806 0.0
H1655 H 0.08134 0.7645 0.48428 0.0
H1656 H 0.09653 0.77738 0.52635 0.0
H1657 H 0.09721 0.78021 0.57432 0.0
H1658 H 0.07126 0.76239 0.60336 0.0
H1659 H 0.08606 0.71994 0.60794 0.0
H1660 H 0.11167 0.73768 0.57859 0.0
H1661 H 0.15025 0.77439 0.5758 0.0
H1662 H 0.17883 0.80336 0.57892 0.0
H1663 H 0.15271 0.83098 0.54138 0.0
N1664 N 0.11915 0.76829 0.55346 0.0
H1665 H 0.12398 0.80213 0.53999 0.0
C1666 C 0.24346 0.89221 0.52501 0.0
C1667 C 0.25817 0.89177 0.51334 0.0
C1668 C 0.26491 0.90048 0.48936 0.0
C1669 C 0.25704 0.90982 0.47648 0.0
C1670 C 0.24196 0.90989 0.48798 0.0
C1671 C 0.23518 0.90108 0.51202 0.0
C1672 C 0.24671 0.89795 0.57216 0.0
C1673 C 0.24249 0.91197 0.57645 0.0
C1674 C 0.25341 0.92657 0.59324 0.0
C1675 C 0.26883 0.92749 0.60572 0.0
C1676 C 0.27238 0.91292 0.60257 0.0
C1677 C 0.26139 0.89829 0.58594 0.0
C1678 C 0.22073 0.86902 0.55452 0.0
C1679 C 0.21924 0.85176 0.55185 0.0
C1680 C 0.20234 0.83585 0.55371 0.0
C1681 C 0.1864 0.83678 0.55857 0.0
C1682 C 0.18794 0.85421 0.56136 0.0
C1683 C 0.20494 0.87019 0.55919 0.0
C1684 C 0.11181 0.76281 0.52732 0.0
C1685 C 0.11522 0.75031 0.51392 0.0
C1686 C 0.10628 0.74267 0.49017 0.0
C1687 C 0.09386 0.74756 0.47929 0.0
C1688 C 0.09098 0.76065 0.49217 0.0
C1689 C 0.09973 0.76808 0.51615 0.0
C1690 C 0.1063 0.76018 0.57437 0.0
C1691 C 0.09507 0.76728 0.58211 0.0
C1692 C 0.08032 0.75711 0.59877 0.0
C1693 C 0.07663 0.73974 0.60788 0.0
C1694 C 0.08851 0.73321 0.60113 0.0
C1695 C 0.10319 0.74336 0.58457 0.0
C1696 C 0.13508 0.78598 0.55729 0.0
C1697 C 0.15068 0.78679 0.56865 0.0
C1698 C 0.16706 0.80337 0.57011 0.0
C1699 C 0.16832 0.81958 0.55984 0.0
C1700 C 0.15236 0.81888 0.54957 0.0
C1701 C 0.13586 0.80226 0.5485 0.0
H1702 H 0.23326 0.31916 0.53272 0.0
N1703 N 0.23905 0.35238 0.55033 0.0
H1704 H 0.24227 0.31284 0.49052 0.0
H1705 H 0.25399 0.37555 0.5104 0.0
H1706 H 0.26254 0.36914 0.46741 0.0
H1707 H 0.2709 0.37778 0.56961 0.0
H1708 H 0.29138 0.37318 0.59935 0.0
H1709 H 0.22991 0.32122 0.57863 0.0
H1710 H 0.25072 0.3162 0.6074 0.0
H1711 H 0.2066 0.32639 0.52728 0.0
H1712 H 0.22944 0.36972 0.58485 0.0
H1713 H 0.17723 0.3246 0.53125 0.0
H1714 H 0.19952 0.36697 0.59055 0.0
H1715 H 0.09715 0.31791 0.52758 0.0
H1716 H 0.0818 0.31588 0.48542 0.0
H1717 H 0.10893 0.37485 0.48138 0.0
H1718 H 0.12447 0.3768 0.52329 0.0
H1719 H 0.10471 0.36859 0.57377 0.0
H1720 H 0.07767 0.35755 0.60103 0.0
H1721 H 0.07579 0.30534 0.60884 0.0
H1722 H 0.102 0.31606 0.58019 0.0
H1723 H 0.12263 0.31863 0.54898 0.0
H1724 H 0.15071 0.31714 0.55283 0.0
H1725 H 0.18051 0.37526 0.56933 0.0
N1726 N 0.11912 0.34931 0.55474 0.0
H1727 H 0.15205 0.37615 0.56738 0.0
C1728 C 0.24297 0.34791 0.52476 0.0
C1729 C 0.23964 0.33018 0.51868 0.0
C1730 C 0.24462 0.32652 0.49437 0.0
C1731 C 0.25292 0.34045 0.47551 0.0
C1732 C 0.25618 0.35814 0.48157 0.0
C1733 C 0.25122 0.3618 0.50596 0.0
C1734 C 0.24909 0.34982 0.57156 0.0
C1735 C 0.26626 0.36443 0.57834 0.0
C1736 C 0.27799 0.36171 0.59509 0.0
C1737 C 0.27287 0.34419 0.60504 0.0
C1738 C 0.25509 0.32982 0.59985 0.0
C1739 C 0.24324 0.33263 0.5833 0.0
C1740 C 0.2206 0.34849 0.55553 0.0
C1741 C 0.20535 0.3353 0.54129 0.0
C1742 C 0.18827 0.33414 0.54378 0.0
C1743 C 0.18582 0.34583 0.56096 0.0
C1744 C 0.20083 0.3581 0.57648 0.0
C1745 C 0.21798 0.35953 0.57355 0.0
C1746 C 0.11209 0.34757 0.52838 0.0
C1747 C 0.10022 0.33038 0.51723 0.0
C1748 C 0.09139 0.32924 0.49324 0.0
C1749 C 0.0941 0.34523 0.48033 0.0
C1750 C 0.10653 0.36235 0.49104 0.0
C1751 C 0.11547 0.36348 0.51481 0.0
C1752 C 0.10551 0.34328 0.57491 0.0
C1753 C 0.0986 0.35485 0.58173 0.0
C1754 C 0.08313 0.3485 0.59731 0.0
C1755 C 0.07426 0.3304 0.6067 0.0
C1756 C 0.08187 0.31915 0.6012 0.0
C1757 C 0.09715 0.32541 0.58511 0.0
C1758 C 0.13517 0.3475 0.55844 0.0
C1759 C 0.1351 0.33093 0.55418 0.0
C1760 C 0.15135 0.33018 0.55598 0.0
C1761 C 0.16813 0.34608 0.5614 0.0
C1762 C 0.16798 0.36258 0.56579 0.0
C1763 C 0.1517 0.3632 0.56448 0.0
C1764 C 0.02422 0.41117 0.08489 0.0
C1765 C 0.01055 0.40095 0.06616 0.0
C1766 C 0.02029 0.41782 0.10763 0.0
C1767 C 1.00259 0.41475 0.11242 0.0
H1768 H 0.03802 0.41372 0.08226 0.0
H1769 H 0.03118 0.42511 0.12183 0.0
S1770 S 0.9624 0.39053 0.06797 0.0
N1771 N 0.97886 0.38899 0.05306 0.0
N1772 N 0.97157 0.402 0.09537 0.0
C1773 C 0.9889 0.40501 0.09342 0.0
C1774 C 0.99286 0.398 0.07042 0.0
C1775 C 0.59936 0.59755 0.07728 0.0
C1776 C 0.61833 0.60916 0.07702 0.0
C1777 C 0.59073 0.58697 0.09954 0.0
C1778 C 0.60078 0.58805 0.12246 0.0
H1779 H 0.59121 0.59636 0.06 0.0
H1780 H 0.57615 0.57775 0.0987 0.0
S1781 S 0.65031 0.61949 0.13318 0.0
N1782 N 0.64655 0.62301 0.10236 0.0
N1783 N 0.63043 0.60361 0.14439 0.0
C1784 C 0.61966 0.60044 0.12275 0.0
C1785 C 0.6284 0.61096 0.10003 0.0
C1786 C 0.39044 0.01346 0.09646 0.0
C1787 C 0.39117 0.00422 0.07409 0.0
C1788 C 0.40106 0.01519 0.11878 0.0
C1789 C 0.41287 0.00775 0.11958 0.0
H1790 H 0.38147 0.01928 0.0968 0.0
H1791 H 0.39982 0.02226 0.13565 0.0
S1792 S 0.41932 0.98197 0.06565 0.0
N1793 N 0.40382 0.98688 0.05404 0.0
N1794 N 0.42463 0.99088 0.09544 0.0
C1795 C 0.41353 0.99829 0.09722 0.0
C1796 C 0.4024 0.99626 0.07467 0.0
C1797 C 0.4044 0.01933 0.93983 0.0
C1798 C 0.39373 0.00545 0.95778 0.0
C1799 C 0.41139 0.01553 0.91738 0.0
C1800 C 0.4082 0.99772 0.91211 0.0
H1801 H 0.4072 0.03325 0.94295 0.0
H1802 H 0.41916 0.02661 0.90385 0.0
S1803 S 0.38256 0.95685 0.95433 0.0
N1804 N 0.38105 0.97336 0.96952 0.0
N1805 N 0.39461 0.9663 0.92774 0.0
C1806 C 0.39786 0.98377 0.93022 0.0
C1807 C 0.39053 0.98762 0.95292 0.0
C1808 C 0.0232 0.39782 0.92899 0.0
C1809 C 0.01252 0.39796 0.94981 0.0
C1810 C 0.02536 0.40812 0.9062 0.0
C1811 C 0.01646 0.41848 0.9032 0.0
H1812 H 0.02971 0.38945 0.93016 0.0
H1813 H 0.03363 0.40758 0.89052 0.0
S1814 S 0.98674 0.42313 0.95192 0.0
N1815 N 0.99285 0.40914 0.96602 0.0
N1816 N 0.99669 0.42838 0.92301 0.0
C1817 C 0.00562 0.41861 0.92381 0.0
C1818 C 1.00358 0.40825 0.94709 0.0
C1819 C 0.60673 0.58818 0.9534 0.0
C1820 C 0.61761 0.60699 0.9589 0.0
C1821 C 0.59644 0.58208 0.93006 0.0
C1822 C 0.5968 0.59453 0.91109 0.0
H1823 H 0.60591 0.57804 0.96738 0.0
H1824 H 0.58795 0.56747 0.92703 0.0
S1825 S 0.62483 0.64521 0.91448 0.0
N1826 N 0.62905 0.63802 0.94258 0.0
N1827 N 0.61024 0.62656 0.89843 0.0
C1828 C 0.60808 0.61337 0.91597 0.0
C1829 C 0.61835 0.61959 0.93989 0.0
C1830 C 1.00165 0.59857 0.94796 0.0
C1831 C 0.00967 0.61774 0.94875 0.0
C1832 C 0.00379 0.58972 0.92609 0.0
C1833 C 0.01376 0.59979 0.90419 0.0
H1834 H 0.99381 0.5904 0.96445 0.0
H1835 H 0.99763 0.57495 0.92631 0.0
S1836 S 0.03428 0.64992 0.8947 0.0
N1837 N 0.02584 0.64624 0.92459 0.0
N1838 N 0.02996 0.62972 0.88354 0.0
C1839 C 0.02121 0.61891 0.90441 0.0
C1840 C 0.01905 0.62786 0.92663 0.0
C1841 C 0.39424 0.40598 0.95398 0.0
C1842 C 0.39717 0.39117 0.95942 0.0
C1843 C 0.4016 0.41689 0.93153 0.0
C1844 C 0.41202 0.41327 0.91359 0.0
H1845 H 0.38653 0.40941 0.96744 0.0
H1846 H 0.39933 0.4284 0.9284 0.0
S1847 S 0.42159 0.37456 0.91729 0.0
N1848 N 0.41006 0.37263 0.94416 0.0
N1849 N 0.4234 0.3927 0.90174 0.0
C1850 C 0.41451 0.3981 0.91845 0.0
C1851 C 0.40721 0.38717 0.9414 0.0
C1852 C 0.61169 0.98988 0.93144 0.0
C1853 C 0.61051 0.99954 0.953 0.0
C1854 C 0.60117 0.98732 0.90871 0.0
C1855 C 0.58911 0.99439 0.90662 0.0
H1856 H 0.62095 0.98439 0.93207 0.0
H1857 H 0.6027 0.97991 0.89251 0.0
S1858 S 0.58137 0.02097 0.95794 0.0
N1859 N 0.59702 0.01676 0.9709 0.0
N1860 N 0.57657 0.01137 0.92857 0.0
C1861 C 0.58798 0.00427 0.92811 0.0
C1862 C 0.59893 0.00707 0.95114 0.0
C1863 C 0.59932 0.98636 0.08869 0.0
C1864 C 0.60954 1.00038 0.07066 0.0
C1865 C 0.59267 0.98992 0.11169 0.0
C1866 C 0.59575 0.00761 0.1175 0.0
H1867 H 0.59662 0.97251 0.0852 0.0
H1868 H 0.58524 0.97871 0.1252 0.0
S1869 S 0.62041 0.04884 0.07558 0.0
N1870 N 0.62181 0.03253 0.05959 0.0
N1871 N 0.60886 0.03913 0.10245 0.0
C1872 C 0.6057 0.02172 0.0994 0.0
C1873 C 0.61269 0.01813 0.0761 0.0
C1874 C 0.01799 0.60552 0.07387 0.0
C1875 C 0.00696 0.61297 0.06559 0.0
C1876 C 0.01424 0.59506 0.09686 0.0
C1877 C 0.99929 0.59156 0.11258 0.0
H1878 H 0.02972 0.6078 0.06256 0.0
H1879 H 0.02314 0.58965 0.10237 0.0
S1880 S 0.96651 0.60839 0.10059 0.0
N1881 N 0.98052 0.61627 0.07552 0.0
N1882 N 0.97366 0.59677 0.11881 0.0
C1883 C 0.98809 0.59884 0.10462 0.0
C1884 C 0.99188 0.60948 0.08115 0.0
C1885 C 0.40314 0.4071 0.0769 0.0
C1886 C 0.39219 0.38795 0.07632 0.0
C1887 C 0.41334 0.41608 0.09944 0.0
C1888 C 0.4126 0.40621 0.12228 0.0
H1889 H 0.40395 0.41514 0.05973 0.0
H1890 H 0.42184 0.43083 0.09901 0.0
S1891 S 0.38319 0.35622 0.13215 0.0
N1892 N 0.37939 0.35967 0.10129 0.0
N1893 N 0.39846 0.37647 0.14371 0.0
C1894 C 0.40112 0.38711 0.12218 0.0
C1895 C 0.39084 0.37801 0.09922 0.0
C1896 C 0.66178 0.73505 0.4005 0.0
C1897 C 0.67547 0.73014 0.40065 0.0
C1898 C 0.65797 0.74188 0.42322 0.0
C1899 C 0.66754 0.74374 0.44699 0.0
H1900 H 0.65427 0.734 0.38255 0.0
H1901 H 0.64764 0.74599 0.42203 0.0
S1902 S 0.70333 0.73061 0.45779 0.0
N1903 N 0.69798 0.72659 0.42632 0.0
N1904 N 0.69028 0.73846 0.46942 0.0
C1905 C 0.68089 0.73824 0.4474 0.0
C1906 C 0.68498 0.73167 0.42413 0.0
C1907 C 0.29279 0.94179 0.42823 0.0
C1908 C 0.28239 0.94123 0.40614 0.0
C1909 C 0.28446 0.93151 0.45072 0.0
C1910 C 0.26537 0.92038 0.45207 0.0
H1911 H 0.30749 0.95037 0.4282 0.0
H1912 H 0.29307 0.93251 0.46735 0.0
S1913 S 0.23214 0.91447 0.39918 0.0
N1914 N 0.25216 0.92922 0.38694 0.0
N1915 N 0.23638 0.90935 0.42889 0.0
C1916 C 0.25482 0.91989 0.43007 0.0
C1917 C 0.26336 0.93053 0.40725 0.0
C1918 C 0.07211 0.33256 0.41239 0.0
C1919 C 0.062 0.34179 0.4112 0.0
C1920 C 0.08264 0.33383 0.43473 0.0
C1921 C 0.0831 0.34411 0.45672 0.0
H1922 H 0.07207 0.32453 0.39581 0.0
H1923 H 0.09054 0.32683 0.43477 0.0
S1924 S 0.05596 0.36755 0.46526 0.0
N1925 N 0.05104 0.35932 0.43508 0.0
N1926 N 0.07083 0.36181 0.47701 0.0
C1927 C 0.07236 0.35268 0.45613 0.0
C1928 C 0.06171 0.35141 0.43343 0.0
C1929 C 0.05429 0.3254 0.27998 0.0
C1930 C 0.06628 0.34033 0.29585 0.0
C1931 C 0.0603 0.32098 0.25697 0.0
C1932 C 0.07852 0.33131 0.24888 0.0
H1933 H 0.04004 0.31725 0.285 0.0
H1934 H 0.05048 0.30969 0.24505 0.0
S1935 S 0.11592 0.37055 0.28437 0.0
N1936 N 0.09772 0.36473 0.3023 0.0
N1937 N 0.10881 0.35618 0.25939 0.0
C1938 C 0.09078 0.34585 0.2649 0.0
C1939 C 0.08473 0.35041 0.28826 0.0
C1940 C 0.67118 0.74116 0.28151 0.0
C1941 C 0.67876 0.72955 0.28296 0.0
C1942 C 0.67372 0.75213 0.25928 0.0
C1943 C 0.68369 0.75157 0.23773 0.0
H1944 H 0.66333 0.74184 0.2977 0.0
H1945 H 0.66782 0.76105 0.2589 0.0
S1946 S 0.70329 0.72087 0.23011 0.0
N1947 N 0.69461 0.71642 0.25987 0.0
N1948 N 0.69952 0.73708 0.21819 0.0
C1949 C 0.69079 0.73953 0.23867 0.0
C1950 C 0.68819 0.72841 0.26123 0.0
C1951 C 0.2708 0.91933 0.28269 0.0
C1952 C 0.27973 0.93813 0.28897 0.0
C1953 C 0.26016 0.91261 0.25976 0.0
C1954 C 0.25807 0.92441 0.24206 0.0
H1955 H 0.27189 0.90963 0.29568 0.0
H1956 H 0.25338 0.89802 0.25599 0.0
S1957 S 0.27979 0.97495 0.24797 0.0
N1958 N 0.28639 0.96855 0.27476 0.0
N1959 N 0.26671 0.95594 0.23151 0.0
C1960 C 0.26714 0.94326 0.24781 0.0
C1961 C 0.27788 0.9501 0.27126 0.0
C1962 C 0.675 0.93236 0.28393 0.0
C1963 C 0.68149 0.95128 0.28558 0.0
C1964 C 0.67746 0.92459 0.26109 0.0
C1965 C 0.686 0.93543 0.23889 0.0
H1966 H 0.66831 0.92361 0.30058 0.0
H1967 H 0.67276 0.91003 0.26089 0.0
S1968 S 0.70189 0.98513 0.23193 0.0
N1969 N 0.69472 0.98028 0.26245 0.0
N1970 N 0.69879 0.96574 0.21921 0.0
C1971 C 0.69166 0.95426 0.24002 0.0
C1972 C 0.68942 0.96214 0.26338 0.0
C1973 C 0.08154 0.73443 0.28694 0.0
C1974 C 0.06297 0.72593 0.29376 0.0
C1975 C 0.08796 0.74493 0.26406 0.0
C1976 C 0.07613 0.7474 0.24692 0.0
H1977 H 0.09128 0.73289 0.29926 0.0
H1978 H 0.10233 0.75106 0.25966 0.0
S1979 S 0.0263 0.72806 0.25518 0.0
N1980 N 0.03283 0.72087 0.28126 0.0
N1981 N 0.04494 0.74044 0.23809 0.0
C1982 C 0.0576 0.73927 0.25356 0.0
C1983 C 0.05102 0.72858 0.27697 0.0
C1984 C 0.27481 0.32044 0.26215 0.0
C1985 C 0.27383 0.33025 0.28366 0.0
C1986 C 0.26462 0.31832 0.2392 0.0
C1987 C 0.25317 0.32609 0.23681 0.0
H1988 H 0.28362 0.31442 0.26301 0.0
H1989 H 0.26592 0.31071 0.22307 0.0
S1990 S 0.24621 0.3534 0.28777 0.0
N1991 N 0.26116 0.34834 0.30117 0.0
N1992 N 0.24146 0.34394 0.25831 0.0
C1993 C 0.25229 0.33617 0.25819 0.0
C1994 C 0.26285 0.33845 0.28149 0.0
C1995 C 0.28215 0.34421 0.41693 0.0
C1996 C 0.27059 0.32866 0.40176 0.0
C1997 C 0.27626 0.34808 0.44047 0.0
C1998 C 0.25856 0.33658 0.44985 0.0
H1999 H 0.296 0.35339 0.41084 0.0
H2000 H 0.28578 0.35997 0.45171 0.0
S2001 S 0.22232 0.29504 0.41682 0.0
N2002 N 0.24012 0.30217 0.39754 0.0
N2003 N 0.22912 0.30972 0.44142 0.0
C2004 C 0.2467 0.32127 0.43466 0.0
C2005 C 0.25268 0.31726 0.41075 0.0
C2006 C 0.66446 0.94309 0.41712 0.0
C2007 C 0.68024 0.947 0.40299 0.0
C2008 C 0.65975 0.93243 0.44001 0.0
C2009 C 0.67058 0.92519 0.44978 0.0
H2010 H 0.65571 0.94846 0.41067 0.0
H2011 H 0.64767 0.93012 0.45042 0.0
S2012 S 0.71259 0.93015 0.41963 0.0
N2013 N 0.70639 0.94204 0.40031 0.0
N2014 N 0.69722 0.92178 0.44298 0.0
C2015 C 0.68619 0.92865 0.43573 0.0
C2016 C 0.69108 0.93958 0.41246 0.0
C2017 C 0.072 0.73958 0.41135 0.0
C2018 C 0.06155 0.7204 0.41009 0.0
C2019 C 0.0827 0.74833 0.43363 0.0
C2020 C 0.08304 0.73816 0.4555 0.0
H2021 H 0.072 0.74784 0.3949 0.0
H2022 H 0.09077 0.76314 0.43379 0.0
S2023 S 0.05528 0.68785 0.46374 0.0
N2024 N 0.0503 0.69169 0.43372 0.0
N2025 N 0.07046 0.70805 0.47553 0.0
C2026 C 0.07208 0.719 0.45479 0.0
C2027 C 0.06123 0.71014 0.43214 0.0
C2028 C 0.35 0.08323 0.74003 0.0
C2029 C 0.33973 0.06474 0.73229 0.0
C2030 C 0.346 0.0896 0.76298 0.0
C2031 C 0.33156 0.07779 0.77921 0.0
H2032 H 0.36134 0.09295 0.72837 0.0
H2033 H 0.35435 0.10392 0.76811 0.0
S2034 S 0.30066 0.02809 0.76849 0.0
N2035 N 0.31442 0.03464 0.74309 0.0
N2036 N 0.30711 0.04668 0.78632 0.0
C2037 C 0.32104 0.05933 0.7717 0.0
C2038 C 0.32508 0.0528 0.74826 0.0
C2039 C 0.95919 0.27555 0.76112 0.0
C2040 C 0.94868 0.27506 0.73921 0.0
C2041 C 0.95093 0.26563 0.78389 0.0
C2042 C 0.93182 0.25493 0.78566 0.0
H2043 H 0.97392 0.28379 0.76074 0.0
H2044 H 0.95961 0.26656 0.80035 0.0
S2045 S 0.89834 0.24935 0.73335 0.0
N2046 N 0.91835 0.2636 0.72061 0.0
N2047 N 0.90268 0.24437 0.76308 0.0
C2048 C 0.92117 0.25453 0.76384 0.0
C2049 C 0.92963 0.26483 0.74076 0.0
C2050 C 0.72783 0.68861 0.7613 0.0
C2051 C 0.72814 0.6777 0.74077 0.0
C2052 C 0.73804 0.69112 0.78433 0.0
C2053 C 0.74874 0.6826 0.78784 0.0
H2054 H 0.71951 0.69513 0.75962 0.0
H2055 H 0.73752 0.69979 0.79956 0.0
S2056 S 0.75305 0.65165 0.74039 0.0
N2057 N 0.73918 0.65762 0.72561 0.0
N2058 N 0.75846 0.66227 0.76904 0.0
C2059 C 0.74896 0.67146 0.7675 0.0
C2060 C 0.73847 0.66886 0.74405 0.0
C2061 C 0.74035 0.68602 0.60581 0.0
C2062 C 0.72917 0.67284 0.62428 0.0
C2063 C 0.74672 0.68111 0.58372 0.0
C2064 C 0.74237 0.66285 0.57933 0.0
H2065 H 0.74401 0.70025 0.60819 0.0
H2066 H 0.75487 0.69171 0.56974 0.0
S2067 S 0.71499 0.62339 0.62317 0.0
N2068 N 0.71476 0.64088 0.63746 0.0
N2069 N 0.72715 0.63171 0.59635 0.0
C2070 C 0.73153 0.64958 0.59798 0.0
C2071 C 0.72484 0.65456 0.62033 0.0
C2072 C 0.33364 0.07229 0.61183 0.0
C2073 C 0.34154 0.061 0.61421 0.0
C2074 C 0.33585 0.08256 0.58891 0.0
C2075 C 0.34564 0.08149 0.56743 0.0
H2076 H 0.32606 0.07348 0.62798 0.0
H2077 H 0.33005 0.09157 0.58813 0.0
S2078 S 0.36557 0.05081 0.56229 0.0
N2079 N 0.35742 0.04745 0.59232 0.0
N2080 N 0.36119 0.06627 0.54903 0.0
C2081 C 0.35271 0.06941 0.56922 0.0
C2082 C 0.35066 0.0592 0.59261 0.0
C2083 C 0.94319 0.28224 0.60521 0.0
C2084 C 0.94464 0.26995 0.62275 0.0
C2085 C 0.93303 0.27612 0.58176 0.0
C2086 C 0.92375 0.25744 0.5749 0.0
H2087 H 0.95024 0.29679 0.60932 0.0
H2088 H 0.93275 0.2862 0.56864 0.0
S2089 S 0.92175 0.21934 0.61484 0.0
N2090 N 0.9352 0.23795 0.63185 0.0
N2091 N 0.91561 0.22654 0.58841 0.0
C2092 C 0.92466 0.24493 0.59253 0.0
C2093 C 0.9352 0.25115 0.61624 0.0
C2094 C 0.34224 0.2676 0.61677 0.0
C2095 C 0.35043 0.28677 0.61795 0.0
C2096 C 0.34376 0.25888 0.5943 0.0
C2097 C 0.35323 0.26906 0.57215 0.0
H2098 H 0.3347 0.25933 0.63337 0.0
H2099 H 0.3374 0.24409 0.59417 0.0
S2100 S 0.37405 0.31931 0.56383 0.0
N2101 N 0.36632 0.31546 0.59414 0.0
N2102 N 0.36925 0.29915 0.55191 0.0
C2103 C 0.36094 0.28821 0.57286 0.0
C2104 C 0.35941 0.29704 0.59571 0.0
C2105 C 0.73234 0.05193 0.60238 0.0
C2106 C 0.72929 0.05929 0.62514 0.0
C2107 C 0.73955 0.06266 0.57984 0.0
C2108 C 0.7444 0.08133 0.57938 0.0
H2109 H 0.72902 0.0377 0.60196 0.0
H2110 H 0.74121 0.05619 0.56258 0.0
S2111 S 0.74037 0.10734 0.63524 0.0
N2112 N 0.73203 0.08625 0.64654 0.0
N2113 N 0.74643 0.10684 0.60469 0.0
C2114 C 0.74162 0.08889 0.60236 0.0
C2115 C 0.73389 0.07778 0.62512 0.0
C2116 C 0.94181 0.65379 0.59942 0.0
C2117 C 0.94195 0.66486 0.62007 0.0
C2118 C 0.93117 0.65117 0.57679 0.0
C2119 C 0.92056 0.65981 0.57381 0.0
H2120 H 0.95014 0.64725 0.60067 0.0
H2121 H 0.93154 0.6426 0.56127 0.0
S2122 S 0.9165 0.69033 0.62235 0.0
N2123 N 0.93096 0.68476 0.63617 0.0
N2124 N 0.91074 0.67974 0.59369 0.0
C2125 C 0.92074 0.67106 0.5943 0.0
C2126 C 0.93161 0.67372 0.61734 0.0
C2127 C 0.93061 0.65544 0.75544 0.0
C2128 C 0.94084 0.66875 0.73654 0.0
C2129 C 0.92425 0.65996 0.77791 0.0
C2130 C 0.92763 0.67793 0.78223 0.0
H2131 H 0.92773 0.64143 0.7531 0.0
H2132 H 0.91687 0.64931 0.79221 0.0
S2133 S 0.95228 0.71745 0.73728 0.0
N2134 N 0.95335 0.70044 0.72287 0.0
N2135 N 0.94088 0.70886 0.76464 0.0
C2136 C 0.93751 0.6913 0.76312 0.0
C2137 C 0.94423 0.68673 0.74041 0.0
C2138 C 0.33336 0.27766 0.74908 0.0
C2139 C 0.34895 0.28147 0.73455 0.0
C2140 C 0.32883 0.26699 0.77198 0.0
C2141 C 0.33967 0.25962 0.78132 0.0
H2142 H 0.32466 0.28319 0.743 0.0
H2143 H 0.31693 0.26479 0.78275 0.0
S2144 S 0.38109 0.26412 0.74979 0.0
N2145 N 0.37483 0.27616 0.7309 0.0
N2146 N 0.366 0.25587 0.77352 0.0
C2147 C 0.35504 0.26292 0.76677 0.0
C2148 C 0.35974 0.27386 0.74353 0.0
C2149 C 0.738 0.07388 0.74247 0.0
C2150 C 0.7271 0.05473 0.7416 0.0
C2151 C 0.74885 0.08266 0.76464 0.0
C2152 C 0.74889 0.07254 0.78676 0.0
H2153 H 0.73825 0.0821 0.72581 0.0
H2154 H 0.75727 0.09743 0.76449 0.0
S2155 S 0.71998 0.02245 0.79601 0.0
N2156 N 0.71515 0.0262 0.76584 0.0
N2157 N 0.73559 0.04259 0.80743 0.0
C2158 C 0.7375 0.05344 0.78643 0.0
C2159 C 0.72649 0.04456 0.76391 0.0
C2160 C 0.06064 0.36774 0.06076 0.0
C2161 C 0.04596 0.35682 0.04384 0.0
C2162 C 0.06938 0.36019 0.07575 0.0
C2163 C 0.064 0.34145 0.07416 0.0
H2164 H 0.0652 0.38221 0.06288 0.0
H2165 H 0.08022 0.3691 0.08911 0.0
S2166 S 0.02744 0.30734 0.03066 0.0
N2167 N 0.02697 0.32653 0.02526 0.0
N2168 N 0.04382 0.31241 0.05268 0.0
C2169 C 0.04962 0.33046 0.05672 0.0
C2170 C 0.04052 0.33812 0.04176 0.0
C2171 C 0.67449 0.69851 0.07213 0.0
C2172 C 0.66327 0.69228 0.04956 0.0
C2173 C 0.67939 0.71553 0.08338 0.0
C2174 C 0.67315 0.72699 0.0727 0.0
H2175 H 0.67942 0.6901 0.08143 0.0
H2176 H 0.6878 0.71956 0.10101 0.0
S2177 S 0.64401 0.71756 0.01325 0.0
N2178 N 0.64647 0.69928 0.01645 0.0
N2179 N 0.65565 0.73127 0.03784 0.0
C2180 C 0.66213 0.72111 0.04996 0.0
C2181 C 0.65725 0.7038 0.0383 0.0
C2182 C 0.30218 0.97358 0.06837 0.0
C2183 C 0.30795 0.96821 0.04596 0.0
C2184 C 0.28574 0.96166 0.08068 0.0
C2185 C 0.2744 0.94378 0.07124 0.0
H2186 H 0.31061 0.987 0.07693 0.0
H2187 H 0.28222 0.96628 0.09835 0.0
S2188 S 0.28241 0.92331 0.01212 0.0
N2189 N 0.30039 0.94402 0.01394 0.0
N2190 N 0.26948 0.92162 0.03722 0.0
C2191 C 0.27966 0.93838 0.04838 0.0
C2192 C 0.29638 0.95059 0.03567 0.0
C2193 C 0.34055 0.03587 0.96482 0.0
C2194 C 0.35311 0.04413 0.98562 0.0
C2195 C 0.33448 0.04588 0.94959 0.0
C2196 C 0.3405 0.06451 0.95472 0.0
H2197 H 0.33584 0.02172 0.95965 0.0
H2198 H 0.32537 0.03906 0.93316 0.0
S2199 S 0.37161 0.09194 0.00907 0.0
N2200 N 0.37043 0.07177 0.01164 0.0
N2201 N 0.35842 0.09027 0.98379 0.0
C2202 C 0.35245 0.0727 0.97618 0.0
C2203 C 0.35888 0.0626 0.99142 0.0
C2204 C 0.97766 0.30651 0.95887 0.0
C2205 C 0.97189 0.31408 0.97864 0.0
C2206 C 0.9656 0.28962 0.94729 0.0
C2207 C 0.94723 0.27973 0.95477 0.0
H2208 H 0.99156 0.31381 0.95195 0.0
H2209 H 0.97056 0.28457 0.9317 0.0
S2210 S 0.92536 0.29291 0.00646 0.0
N2211 N 0.94664 0.30987 0.006 0.0
N2212 N 0.92398 0.27821 0.98391 0.0
C2213 C 0.94134 0.28687 0.97491 0.0
C2214 C 0.95368 0.30399 0.98696 0.0
C2215 C 0.70178 0.66345 0.97618 0.0
C2216 C 0.69525 0.64722 0.99097 0.0
C2217 C 0.71824 0.67066 0.96254 0.0
C2218 C 0.72897 0.66204 0.96318 0.0
H2219 H 0.69392 0.67047 0.97457 0.0
H2220 H 0.72234 0.68285 0.95079 0.0
S2221 S 0.71912 0.62027 1.00094 0.0
N2222 N 0.70156 0.62334 0.0066 0.0
N2223 N 0.73259 0.63715 0.9813 0.0
C2224 C 0.72294 0.64614 0.97848 0.0
C2225 C 0.70611 0.6387 0.99229 0.0
C2226 C 0.95242 0.65477 0.98133 0.0
C2227 C 0.97102 0.66359 0.97476 0.0
C2228 C 0.94033 0.65964 0.96916 0.0
C2229 C 0.9465 0.67378 0.95044 0.0
H2230 H 0.94702 0.64359 0.99531 0.0
H2231 H 0.92604 0.6522 0.97423 0.0
S2232 S 0.99396 0.70167 0.92711 0.0
N2233 N 0.99506 0.68751 0.94878 0.0
N2234 N 0.97243 0.69675 0.92624 0.0
C2235 C 0.96514 0.68305 0.94428 0.0
C2236 C 0.97737 0.67794 0.95635 0.0
C2237 C 0.33819 0.29984 0.98418 0.0
C2238 C 0.35654 0.31373 0.98298 0.0
C2239 C 0.33177 0.28362 0.96953 0.0
C2240 C 0.34342 0.28079 0.95294 0.0
H2241 H 0.32881 0.30138 0.99682 0.0
H2242 H 0.31761 0.27317 0.97134 0.0
S2243 S 0.39212 0.31403 0.94052 0.0
N2244 N 0.38595 0.32414 0.96263 0.0
N2245 N 0.37383 0.29405 0.93464 0.0
C2246 C 0.36168 0.29484 0.95111 0.0
C2247 C 0.36824 0.3112 0.96621 0.0
C2248 C 0.69991 0.03312 0.95786 0.0
C2249 C 0.69392 0.03895 0.97954 0.0
C2250 C 0.71646 0.04478 0.94567 0.0
C2251 C 0.72769 0.06284 0.95448 0.0
H2252 H 0.69165 0.01946 0.94993 0.0
H2253 H 0.72025 0.03974 0.9287 0.0
S2254 S 0.71885 0.0847 0.01117 0.0
N2255 N 0.70096 0.0639 0.00993 0.0
N2256 N 0.73209 0.08584 0.9868 0.0
C2257 C 0.7221 0.06881 0.97641 0.0
C2258 C 0.70525 0.05685 0.98903 0.0
C2259 C 0.64362 0.94481 0.04117 0.0
C2260 C 0.65239 0.96411 0.04196 0.0
C2261 C 0.65063 0.93505 0.05487 0.0
C2262 C 0.66677 0.94412 0.0699 0.0
H2263 H 0.63107 0.93704 0.03005 0.0
H2264 H 0.64328 0.92023 0.0538 0.0
S2265 S 0.69512 0.99439 0.07878 0.0
N2266 N 0.67833 0.99191 0.05907 0.0
N2267 N 0.69137 0.97348 0.08496 0.0
C2268 C 0.67591 0.96339 0.07058 0.0
C2269 C 0.66876 0.97338 0.0566 0.0
C2270 C 0.06239 0.70446 0.03768 0.0
C2271 C 0.0439 0.6918 0.04209 0.0
C2272 C 0.07177 0.72041 0.05286 0.0
C2273 C 0.06312 0.72427 0.07331 0.0
H2274 H 0.06973 0.70203 0.02236 0.0
H2275 H 0.08595 0.72976 0.04854 0.0
S2276 S 0.01512 0.69488 0.09405 0.0
N2277 N 0.01737 0.68398 0.06879 0.0
N2278 N 0.0351 0.71356 0.09791 0.0
C2279 C 0.04462 0.71166 0.07801 0.0
C2280 C 0.035 0.69555 0.06228 0.0
C2281 C 0.30253 0.3302 0.0649 0.0
C2282 C 0.30961 0.3431 0.04442 0.0
C2283 C 0.28566 0.32539 0.07615 0.0
C2284 C 0.27526 0.33343 0.06764 0.0
H2285 H 0.3102 0.32395 0.07266 0.0
H2286 H 0.28101 0.31572 0.09229 0.0
S2287 S 0.28709 0.36726 0.01386 0.0
N2288 N 0.30442 0.36327 0.01533 0.0
N2289 N 0.2728 0.35432 0.0368 0.0
C2290 C 0.28192 0.34603 0.04681 0.0
C2291 C 0.29904 0.35079 0.03508 0.0
C2292 C 0.7309 0.6967 0.37773 0.0
C2293 C 0.71168 0.68769 0.37631 0.0
C2294 C 0.74011 0.68971 0.39282 0.0
C2295 C 0.73055 0.67336 0.40707 0.0
H2296 H 0.73903 0.70943 0.36731 0.0
H2297 H 0.75488 0.69726 0.39347 0.0
S2298 S 0.68025 0.64427 0.41023 0.0
N2299 N 0.68342 0.66125 0.39048 0.0
N2300 N 0.70083 0.64826 0.41896 0.0
C2301 C 0.71138 0.66397 0.40553 0.0
C2302 C 0.70193 0.67109 0.39016 0.0
C2303 C 0.34009 0.0319 0.39778 0.0
C2304 C 0.3272 0.02471 0.37713 0.0
C2305 C 0.34499 0.04893 0.40902 0.0
C2306 C 0.33702 0.05937 0.40032 0.0
H2307 H 0.34628 0.02419 0.40563 0.0
H2308 H 0.35466 0.0537 0.42527 0.0
S2309 S 0.30321 0.04728 0.34614 0.0
N2310 N 0.3071 0.02982 0.34772 0.0
N2311 N 0.31619 0.06175 0.36922 0.0
C2312 C 0.32442 0.05259 0.37936 0.0
C2313 C 0.31958 0.03532 0.36763 0.0
C2314 C 0.96814 0.28866 0.37244 0.0
C2315 C 0.97918 0.30651 0.38231 0.0
C2316 C 0.95138 0.27652 0.38406 0.0
C2317 C 0.9449 0.28185 0.40573 0.0
H2318 H 0.97271 0.2838 0.35614 0.0
H2319 H 0.94353 0.26278 0.37622 0.0
S2320 S 0.96827 0.32722 0.4386 0.0
N2321 N 0.98205 0.32902 0.41466 0.0
N2322 N 0.95078 0.30626 0.43643 0.0
C2323 C 0.95557 0.2998 0.41532 0.0
C2324 C 0.97264 0.3121 0.40364 0.0
C2325 C 0.01275 0.38316 0.323 0.0
C2326 C 0.02676 0.38001 0.31456 0.0
C2327 C 0.00719 0.39361 0.30775 0.0
C2328 C 0.01524 0.40103 0.28333 0.0
H2329 H 0.00638 0.37789 0.34177 0.0
H2330 H 0.99666 0.39609 0.31535 0.0
S2331 S 0.05123 0.39471 0.25157 0.0
N2332 N 0.048 0.38419 0.28011 0.0
N2333 N 0.03699 0.40292 0.2507 0.0
C2334 C 0.02892 0.39738 0.27445 0.0
C2335 C 0.0348 0.38709 0.29025 0.0
C2336 C 0.62021 0.63578 0.31746 0.0
C2337 C 0.63869 0.64532 0.31025 0.0
C2338 C 0.60792 0.61895 0.30577 0.0
C2339 C 0.61375 0.61089 0.28687 0.0
H2340 H 0.61504 0.64162 0.3316 0.0
H2341 H 0.59371 0.6123 0.31132 0.0
S2342 S 0.66077 0.6298 0.2619 0.0
N2343 N 0.66226 0.64509 0.28348 0.0
N2344 N 0.63922 0.61345 0.26182 0.0
C2345 C 0.63227 0.61999 0.28007 0.0
C2346 C 0.64472 0.6372 0.29168 0.0
C2347 C 0.36852 0.97023 0.3191 0.0
C2348 C 0.35822 0.97932 0.31758 0.0
C2349 C 0.38482 0.97653 0.30528 0.0
C2350 C 0.39157 0.99222 0.28935 0.0
H2351 H 0.36395 0.95802 0.33098 0.0
H2352 H 0.39216 0.96898 0.307 0.0
S2353 S 0.3698 0.02089 0.27791 0.0
N2354 N 0.3561 0.00493 0.29855 0.0
N2355 N 0.38657 0.01657 0.27239 0.0
C2356 C 0.38158 1.00159 0.2878 0.0
C2357 C 0.36497 0.99521 0.30193 0.0
C2358 C 0.62711 0.99369 0.32334 0.0
C2359 C 0.63988 0.99162 0.30826 0.0
C2360 C 0.61373 0.9968 0.3113 0.0
C2361 C 0.61239 0.99743 0.28381 0.0
H2362 H 0.62754 0.99303 0.34456 0.0
H2363 H 0.60427 0.99854 0.32351 0.0
S2364 S 0.64224 0.99269 0.23545 0.0
N2365 N 0.65021 0.99052 0.26424 0.0
N2366 N 0.62491 0.99596 0.24191 0.0
C2367 C 0.62497 0.99532 0.26858 0.0
C2368 C 0.63875 0.99252 0.28073 0.0
C2369 C 0.03451 0.64356 0.29943 0.0
C2370 C 0.0232 0.64641 0.3166 0.0
C2371 C 0.02781 0.62745 0.28463 0.0
C2372 C 0.00957 0.61335 0.28662 0.0
H2373 H 0.04861 0.65405 0.29699 0.0
H2374 H 0.03695 0.62623 0.27109 0.0
S2375 S 0.97486 0.61326 0.33091 0.0
N2376 N 0.99315 0.63341 0.33587 0.0
N2377 N 0.98068 0.60284 0.30876 0.0
C2378 C 0.99824 0.61582 0.30431 0.0
C2379 C 0.00502 0.63239 0.31911 0.0
C2380 C 0.36639 0.38574 0.32227 0.0
C2381 C 0.35644 0.36755 0.31318 0.0
C2382 C 0.38283 0.39846 0.31048 0.0
C2383 C 0.39009 0.39337 0.28951 0.0
H2384 H 0.36112 0.39039 0.33796 0.0
H2385 H 0.38981 0.41244 0.31759 0.0
S2386 S 0.36981 0.34728 0.2591 0.0
N2387 N 0.35547 0.34499 0.28247 0.0
N2388 N 0.38626 0.36882 0.26048 0.0
C2389 C 0.38058 0.37509 0.28081 0.0
C2390 C 0.3638 0.36221 0.2926 0.0
C2391 C 0.32663 0.30049 0.39107 0.0
C2392 C 0.31218 0.29142 0.37293 0.0
C2393 C 0.33364 0.29096 0.40545 0.0
C2394 C 0.32663 0.27199 0.40213 0.0
H2395 H 0.3323 0.315 0.39473 0.0
H2396 H 0.34439 0.29848 0.41975 0.0
S2397 S 0.29012 0.2421 0.35513 0.0
N2398 N 0.29181 0.26244 0.35141 0.0
N2399 N 0.3054 0.24477 0.37782 0.0
C2400 C 0.3126 0.26286 0.38346 0.0
C2401 C 0.3053 0.2725 0.36902 0.0
C2402 C 0.72974 0.02853 0.39567 0.0
C2403 C 0.71588 0.02578 0.3775 0.0
C2404 C 0.73891 0.04472 0.41034 0.0
C2405 C 0.73482 0.05902 0.4072 0.0
H2406 H 0.73333 0.01792 0.39898 0.0
H2407 H 0.74904 0.04586 0.42465 0.0
S2408 S 0.70085 0.05932 0.36015 0.0
N2409 N 0.69907 0.03898 0.35619 0.0
N2410 N 0.71676 0.06975 0.38297 0.0
C2411 C 0.72128 0.05661 0.38855 0.0
C2412 C 0.71171 0.03994 0.37392 0.0
C2413 C 0.96708 0.68178 0.37378 0.0
C2414 C 0.97816 0.67483 0.38373 0.0
C2415 C 0.95033 0.67726 0.38539 0.0
C2416 C 0.94391 0.66541 0.40711 0.0
H2417 H 0.97157 0.69118 0.35733 0.0
H2418 H 0.94238 0.68315 0.37739 0.0
S2419 S 0.96749 0.64326 0.44044 0.0
N2420 N 0.98123 0.6552 0.41642 0.0
N2421 N 0.94993 0.64683 0.43814 0.0
C2422 C 0.95468 0.6581 0.41692 0.0
C2423 C 0.97174 0.66278 0.40526 0.0
C2424 C 0.3722 0.01031 0.72317 0.0
C2425 C 0.38123 0.02655 0.70835 0.0
C2426 C 0.38197 0.00394 0.73836 0.0
C2427 C 0.40117 0.0135 0.73933 0.0
H2428 H 0.35744 0.00262 0.72352 0.0
H2429 H 0.3744 0.99165 0.74995 0.0
S2430 S 0.43153 0.05566 0.70231 0.0
N2431 N 0.41073 0.05141 0.69449 0.0
N2432 N 0.42889 0.03921 0.72277 0.0
C2433 C 0.4104 0.02941 0.72407 0.0
C2434 C 0.4005 0.03596 0.70866 0.0
C2435 C 0.0055 0.36378 0.73265 0.0
C2436 C 0.994 0.35765 0.71034 0.0
C2437 C 0.01047 0.38069 0.74432 0.0
C2438 C 0.00408 0.3922 0.73434 0.0
H2439 H 0.01056 0.35534 0.74148 0.0
H2440 H 0.01906 0.38456 0.76178 0.0
S2441 S 0.97428 0.38311 0.67569 0.0
N2442 N 0.9768 0.36483 0.67817 0.0
N2443 N 0.98618 0.39666 0.70028 0.0
C2444 C 0.99282 0.38646 0.71181 0.0
C2445 C 0.98784 0.36923 0.69972 0.0
C2446 C 0.63467 0.62166 0.70712 0.0
C2447 C 0.64498 0.64013 0.71488 0.0
C2448 C 0.61845 0.6095 0.71993 0.0
C2449 C 0.61177 0.61541 0.74069 0.0
H2450 H 0.63949 0.61636 0.69168 0.0
H2451 H 0.61123 0.59529 0.71383 0.0
S2452 S 0.63309 0.66257 0.76769 0.0
N2453 N 0.64685 0.66387 0.74401 0.0
N2454 N 0.6165 0.64107 0.76797 0.0
C2455 C 0.62161 0.63398 0.74801 0.0
C2456 C 0.63817 0.64631 0.73515 0.0
C2457 C 0.7003 0.72734 0.6296 0.0
C2458 C 0.68922 0.71315 0.6469 0.0
C2459 C 0.69337 0.73687 0.61509 0.0
C2460 C 0.67513 0.73282 0.61753 0.0
H2461 H 0.71439 0.73089 0.62684 0.0
H2462 H 0.70233 0.74724 0.6014 0.0
S2463 S 0.641 0.69814 0.66239 0.0
N2464 N 0.65939 0.69614 0.66681 0.0
N2465 N 0.6465 0.71447 0.64029 0.0
C2466 C 0.66403 0.71898 0.63538 0.0
C2467 C 0.67103 0.70906 0.64986 0.0
C2468 C 0.28842 0.96849 0.65187 0.0
C2469 C 0.30669 0.97872 0.64385 0.0
C2470 C 0.27628 0.95172 0.63986 0.0
C2471 C 0.28208 0.94441 0.6198 0.0
H2472 H 0.28324 0.97376 0.66685 0.0
H2473 H 0.26221 0.94454 0.64608 0.0
S2474 S 0.32865 0.96531 0.59242 0.0
N2475 N 0.33007 0.97992 0.61511 0.0
N2476 N 0.30734 0.94843 0.59283 0.0
C2477 C 0.30043 0.95419 0.61221 0.0
C2478 C 0.31271 0.97133 0.62416 0.0
C2479 C 0.03789 0.32775 0.65329 0.0
C2480 C 0.02303 0.31024 0.64826 0.0
C2481 C 0.05447 0.33404 0.64012 0.0
C2482 C 0.05673 0.32318 0.62112 0.0
H2483 H 0.03682 0.33649 0.66789 0.0
H2484 H 0.06565 0.34748 0.64503 0.0
S2485 S 0.02107 0.27705 0.59885 0.0
N2486 N 0.01119 0.28252 0.62215 0.0
N2487 N 0.04195 0.29457 0.59661 0.0
C2488 C 0.04172 0.30582 0.61549 0.0
C2489 C 0.02498 0.29932 0.62921 0.0
C2490 C 0.29504 0.32644 0.65447 0.0
C2491 C 0.31219 0.33189 0.64334 0.0
C2492 C 0.28245 0.33064 0.64228 0.0
C2493 C 0.28659 0.3406 0.61863 0.0
H2494 H 0.29111 0.3185 0.67242 0.0
H2495 H 0.26933 0.32597 0.65134 0.0
S2496 S 0.32953 0.35806 0.5813 0.0
N2497 N 0.33263 0.34801 0.60728 0.0
N2498 N 0.30897 0.35558 0.58439 0.0
C2499 C 0.30377 0.34634 0.60752 0.0
C2500 C 0.31655 0.34208 0.61986 0.0
C2501 C 0.66986 0.96744 0.64947 0.0
C2502 C 0.68839 0.98082 0.64793 0.0
C2503 C 0.66285 0.95086 0.63556 0.0
C2504 C 0.67409 0.94711 0.61945 0.0
H2505 H 0.66078 0.96965 0.66187 0.0
H2506 H 0.64856 0.94083 0.63762 0.0
S2507 S 0.72308 0.97865 0.60627 0.0
N2508 N 0.71754 0.98974 0.62762 0.0
N2509 N 0.70433 0.95894 0.60109 0.0
C2510 C 0.69252 0.96064 0.6172 0.0
C2511 C 0.69967 0.97738 0.63151 0.0
C2512 C 0.03145 0.69804 0.625 0.0
C2513 C 0.02552 0.70381 0.64681 0.0
C2514 C 0.04811 0.70965 0.61298 0.0
C2515 C 0.05952 0.7276 0.62211 0.0
H2516 H 0.02306 0.68448 0.61684 0.0
H2517 H 0.05187 0.70465 0.59594 0.0
S2518 S 0.05088 0.74928 0.67922 0.0
N2519 N 0.03281 0.72863 0.67761 0.0
N2520 N 0.06412 0.75043 0.65485 0.0
C2521 C 0.05397 0.73351 0.64414 0.0
C2522 C 0.03702 0.72162 0.65657 0.0
C2523 C 0.9986 0.63213 0.70836 0.0
C2524 C 0.98138 0.62993 0.71412 0.0
C2525 C 0.00525 0.62181 0.72162 0.0
C2526 C 0.99499 0.60911 0.7413 0.0
H2527 H 0.00675 0.64147 0.69302 0.0
H2528 H 0.0184 0.62358 0.71611 0.0
S2529 S 0.95009 0.60032 0.76592 0.0
N2530 N 0.95478 0.61525 0.74193 0.0
N2531 N 0.96749 0.59645 0.76753 0.0
C2532 C 0.97804 0.60741 0.74785 0.0
C2533 C 0.97119 0.61768 0.73411 0.0
C2534 C 0.40541 0.37054 0.71298 0.0
C2535 C 0.38617 0.36086 0.71159 0.0
C2536 C 0.41488 0.38643 0.72823 0.0
C2537 C 0.40557 0.3934 0.7427 0.0
H2538 H 0.4133 0.36579 0.70228 0.0
H2539 H 0.42965 0.39333 0.7287 0.0
S2540 S 0.35533 0.37316 0.74669 0.0
N2541 N 0.35819 0.35951 0.7265 0.0
N2542 N 0.37604 0.38923 0.75528 0.0
C2543 C 0.38638 0.384 0.74144 0.0
C2544 C 0.37669 0.3678 0.72589 0.0
C2545 C 0.63642 0.99724 0.73263 0.0
C2546 C 0.64351 0.01063 0.71278 0.0
C2547 C 0.61967 0.99233 0.74439 0.0
C2548 C 0.60943 1.0008 0.73704 0.0
H2549 H 0.644 0.99065 0.73948 0.0
H2550 H 0.615 0.98226 0.76 0.0
S2551 S 0.62135 0.03606 0.68535 0.0
N2552 N 0.63849 0.03175 0.68557 0.0
N2553 N 0.60713 0.02266 0.70802 0.0
C2554 C 0.61611 0.01391 0.71687 0.0
C2555 C 0.63308 0.01876 0.70462 0.0
loop_
_geom_bond_atom_site_label_1
_geom_bond_atom_site_label_2
_geom_bond_distance
_geom_bond_site_symmetry_2
_ccdc_geom_bond_type
Mn0 O5 2.095 1_655 S
Mn0 O15 2.162 . S
Mn0 O16 2.297 1_554 S
Mn0 O24 2.385 1_554 S
Mn0 O25 2.209 1_654 S
Mn0 O26 2.094 . S
Mn1 O6 2.121 . S
Mn1 N8 2.257 1_554 S
Mn1 N17 2.297 . S
Mn1 O25 2.215 1_554 S
Mn1 O27 2.117 . S
C2 O24 1.234 1_455 S
C2 O25 1.283 . S
C3 O15 1.281 1_556 S
C3 O16 1.236 . S
C4 O26 1.231 1_455 S
C4 O27 1.287 . S
O5 Mn0 2.095 1_455 S
O5 C14 1.250 . S
O6 Mn1 2.121 . S
O6 C14 1.258 . S
C7 N8 1.326 . S
C7 C11 1.460 . S
C7 H13 0.929 . S
N8 Mn1 2.257 1_556 S
N8 C7 1.326 . S
N8 C12 1.362 . S
C9 C10 1.258 . S
C9 C12 1.431 . S
C9 C29 1.449 . S
C10 C9 1.258 . S
C10 C11 1.477 . S
C10 H30 0.931 . S
C11 C7 1.460 . S
C11 C10 1.477 . S
C11 H31 0.930 . S
C12 N8 1.362 . S
C12 C9 1.431 . S
C12 C22 1.476 . S
H13 C7 0.929 . S
C14 O5 1.250 . S
C14 O6 1.258 . S
O15 Mn0 2.162 . S
O15 C3 1.281 1_554 S
O16 Mn0 2.297 1_556 S
O16 C3 1.236 . S
N17 Mn1 2.297 . S
N17 C18 1.341 . S
N17 C22 1.286 1_554 S
C18 N17 1.341 . S
C18 C19 1.457 1_554 S
C18 H23 0.929 . S
C19 C18 1.457 1_556 S
C19 C20 1.291 . S
C19 H32 0.940 . S
C20 C19 1.291 . S
C20 C21 1.373 . S
C20 H33 0.929 . S
C21 C20 1.373 . S
C21 C22 1.396 . S
C21 C28 1.403 . S
C22 C12 1.476 . S
C22 N17 1.286 1_556 S
C22 C21 1.396 . S
H23 C18 0.929 . S
O24 Mn0 2.385 1_556 S
O24 C2 1.234 1_655 S
O25 Mn0 2.209 1_456 S
O25 Mn1 2.215 1_556 S
O25 C2 1.283 . S
O26 Mn0 2.094 . S
O26 C4 1.231 1_655 S
O27 Mn1 2.117 . S
O27 C4 1.287 . S
C28 C21 1.403 . S
C28 C29 1.399 . S
C28 H34 0.929 . S
C29 C9 1.449 . S
C29 C28 1.399 . S
C29 H35 0.930 . S
H30 C10 0.931 . S
H31 C11 0.930 . S
H32 C19 0.940 . S
H33 C20 0.929 . S
H34 C28 0.929 . S
H35 C29 0.930 . S
Mn36 O41 2.095 1_554 S
Mn36 O51 2.162 . S
Mn36 O52 2.297 . S
Mn36 O60 2.385 . S
Mn36 O61 2.209 . S
Mn36 O62 2.094 1_554 S
Mn37 O42 2.121 1_554 S
Mn37 N44 2.257 . S
Mn37 N53 2.282 . S
Mn37 O61 2.215 . S
Mn37 O63 2.117 1_554 S
C38 O60 1.234 . S
C38 O61 1.283 . S
C39 O51 1.281 . S
C39 O52 1.236 . S
C40 O62 1.240 . S
C40 O63 1.264 . S
O41 Mn36 2.095 1_556 S
O41 C50 1.250 . S
O42 Mn37 2.121 1_556 S
O42 C50 1.258 . S
C43 N44 1.326 . S
C43 C47 1.460 . S
C43 H49 0.929 . S
N44 Mn37 2.257 . S
N44 C43 1.326 . S
N44 C48 1.362 . S
C45 C46 1.258 . S
C45 C48 1.431 . S
C45 C65 1.449 . S
C46 C45 1.258 . S
C46 C47 1.477 . S
C46 H66 0.931 . S
C47 C43 1.460 . S
C47 C46 1.477 . S
C47 H67 0.930 . S
C48 N44 1.362 . S
C48 C45 1.431 . S
C48 C58 1.476 . S
H49 C43 0.929 . S
C50 O41 1.250 . S
C50 O42 1.258 . S
O51 Mn36 2.162 . S
O51 C39 1.281 . S
O52 Mn36 2.297 . S
O52 C39 1.236 . S
N53 Mn37 2.282 . S
N53 C54 1.328 . S
N53 C58 1.318 . S
C54 N53 1.328 . S
C54 C55 1.457 . S
C54 H59 0.935 . S
C55 C54 1.457 . S
C55 C56 1.291 . S
C55 H68 0.931 . S
C56 C55 1.291 . S
C56 C57 1.373 . S
C56 H69 0.929 . S
C57 C56 1.373 . S
C57 C58 1.396 . S
C57 C64 1.403 . S
C58 C48 1.476 . S
C58 N53 1.318 . S
C58 C57 1.396 . S
H59 C54 0.935 . S
O60 Mn36 2.385 . S
O60 C38 1.234 . S
O61 Mn36 2.209 . S
O61 Mn37 2.215 . S
O61 C38 1.283 . S
O62 Mn36 2.094 1_556 S
O62 C40 1.240 . S
O63 Mn37 2.117 1_556 S
O63 C40 1.264 . S
C64 C57 1.403 . S
C64 C65 1.399 . S
C64 H70 0.929 . S
C65 C45 1.449 . S
C65 C64 1.399 . S
C65 H71 0.930 . S
H66 C46 0.931 . S
H67 C47 0.930 . S
H68 C55 0.931 . S
H69 C56 0.929 . S
H70 C64 0.929 . S
H71 C65 0.930 . S
Mn72 O77 2.095 1_564 S
Mn72 O87 2.162 . S
Mn72 O88 2.297 . S
Mn72 O96 2.385 . S
Mn72 O97 2.209 1_565 S
Mn72 O98 2.094 1_554 S
Mn73 O78 2.126 . S
Mn73 N80 2.257 . S
Mn73 N89 2.282 . S
Mn73 O97 2.215 . S
Mn73 O99 2.117 1_554 S
C74 O96 1.213 1_545 S
C74 O97 1.305 . S
C75 O87 1.281 . S
C75 O88 1.236 . S
C76 O98 1.245 . S
C76 O99 1.254 1_565 S
O77 Mn72 2.095 1_546 S
O77 C86 1.250 . S
O78 Mn73 2.126 . S
O78 C86 1.247 1_554 S
C79 N80 1.326 . S
C79 C83 1.460 . S
C79 H85 0.929 . S
N80 Mn73 2.257 . S
N80 C79 1.326 . S
N80 C84 1.362 . S
C81 C82 1.258 . S
C81 C84 1.431 . S
C81 C101 1.449 . S
C82 C81 1.258 . S
C82 C83 1.477 . S
C82 H102 0.931 . S
C83 C79 1.460 . S
C83 C82 1.477 . S
C83 H103 0.930 . S
C84 N80 1.362 . S
C84 C81 1.431 . S
C84 C94 1.476 . S
H85 C79 0.929 . S
C86 O77 1.250 . S
C86 O78 1.247 1_556 S
O87 Mn72 2.162 . S
O87 C75 1.281 . S
O88 Mn72 2.297 . S
O88 C75 1.236 . S
N89 Mn73 2.282 . S
N89 C90 1.328 . S
N89 C94 1.318 . S
C90 N89 1.328 . S
C90 C91 1.457 . S
C90 H95 0.929 . S
C91 C90 1.457 . S
C91 C92 1.291 . S
C91 H104 0.931 . S
C92 C91 1.291 . S
C92 C93 1.373 . S
C92 H105 0.929 . S
C93 C92 1.373 . S
C93 C94 1.396 . S
C93 C100 1.403 . S
C94 C84 1.476 . S
C94 N89 1.318 . S
C94 C93 1.396 . S
H95 C90 0.929 . S
O96 Mn72 2.385 . S
O96 C74 1.213 1_565 S
O97 Mn72 2.209 1_545 S
O97 Mn73 2.215 . S
O97 C74 1.305 . S
O98 Mn72 2.094 1_556 S
O98 C76 1.245 . S
O99 Mn73 2.117 1_556 S
O99 C76 1.254 1_545 S
C100 C93 1.403 . S
C100 C101 1.399 . S
C100 H106 0.929 . S
C101 C81 1.449 . S
C101 C100 1.399 . S
C101 H107 0.930 . S
H102 C82 0.931 . S
H103 C83 0.930 . S
H104 C91 0.931 . S
H105 C92 0.929 . S
H106 C100 0.929 . S
H107 C101 0.930 . S
Mn108 O113 2.095 1_655 S
Mn108 O123 2.162 . S
Mn108 O124 2.297 1_554 S
Mn108 O132 2.385 1_554 S
Mn108 O133 2.209 1_654 S
Mn108 O134 2.094 . S
Mn109 O114 2.121 . S
Mn109 N116 2.257 1_554 S
Mn109 N125 2.282 . S
Mn109 O133 2.215 1_554 S
Mn109 O135 2.117 . S
C110 O132 1.185 1_455 S
C110 O133 1.305 . S
C111 O123 1.281 1_556 S
C111 O124 1.236 . S
C112 O134 1.226 1_455 S
C112 O135 1.277 . S
O113 Mn108 2.095 1_455 S
O113 C122 1.250 . S
O114 Mn109 2.121 . S
O114 C122 1.258 . S
C115 N116 1.326 . S
C115 C119 1.460 . S
C115 H121 0.929 . S
N116 Mn109 2.257 1_556 S
N116 C115 1.326 . S
N116 C120 1.362 . S
C117 C118 1.258 . S
C117 C120 1.431 . S
C117 C137 1.449 . S
C118 C117 1.258 . S
C118 C119 1.477 . S
C118 H138 0.931 . S
C119 C115 1.460 . S
C119 C118 1.477 . S
C119 H139 0.930 . S
C120 N116 1.362 . S
C120 C117 1.431 . S
C120 C130 1.476 . S
H121 C115 0.929 . S
C122 O113 1.250 . S
C122 O114 1.258 . S
O123 Mn108 2.162 . S
O123 C111 1.281 1_554 S
O124 Mn108 2.297 1_556 S
O124 C111 1.236 . S
N125 Mn109 2.282 . S
N125 C126 1.328 . S
N125 C130 1.318 1_554 S
C126 N125 1.328 . S
C126 C127 1.457 1_554 S
C126 H131 0.929 . S
C127 C126 1.457 1_556 S
C127 C128 1.291 . S
C127 H140 0.933 . S
C128 C127 1.291 . S
C128 C129 1.373 . S
C128 H141 0.929 . S
C129 C128 1.373 . S
C129 C130 1.396 . S
C129 C136 1.403 . S
C130 C120 1.476 . S
C130 N125 1.318 1_556 S
C130 C129 1.396 . S
H131 C126 0.929 . S
O132 Mn108 2.385 1_556 S
O132 C110 1.185 1_655 S
O133 Mn108 2.209 1_456 S
O133 Mn109 2.215 1_556 S
O133 C110 1.305 . S
O134 Mn108 2.094 . S
O134 C112 1.226 1_655 S
O135 Mn109 2.117 . S
O135 C112 1.277 . S
C136 C129 1.403 . S
C136 C137 1.399 . S
C136 H142 0.929 . S
C137 C117 1.449 . S
C137 C136 1.399 . S
C137 H143 0.930 . S
H138 C118 0.931 . S
H139 C119 0.930 . S
H140 C127 0.933 . S
H141 C128 0.929 . S
H142 C136 0.929 . S
H143 C137 0.930 . S
Mn144 O149 2.095 1_554 S
Mn144 O159 2.162 . S
Mn144 O160 2.297 . S
Mn144 O168 2.385 . S
Mn144 O169 2.209 . S
Mn144 O170 2.094 1_554 S
Mn145 O150 2.119 1_554 S
Mn145 N152 2.257 . S
Mn145 N161 2.282 . S
Mn145 O169 2.215 . S
Mn145 O171 2.117 1_554 S
C146 O168 1.234 . S
C146 O169 1.283 . S
C147 O159 1.281 . S
C147 O160 1.236 . S
C148 O170 1.240 . S
C148 O171 1.264 . S
O149 Mn144 2.095 1_556 S
O149 C158 1.250 . S
O150 Mn145 2.119 1_556 S
O150 C158 1.263 . S
C151 N152 1.326 . S
C151 C155 1.460 . S
C151 H157 0.929 . S
N152 Mn145 2.257 . S
N152 C151 1.326 . S
N152 C156 1.362 . S
C153 C154 1.258 . S
C153 C156 1.431 . S
C153 C173 1.449 . S
C154 C153 1.258 . S
C154 C155 1.477 . S
C154 H174 0.931 . S
C155 C151 1.460 . S
C155 C154 1.477 . S
C155 H175 0.930 . S
C156 N152 1.362 . S
C156 C153 1.431 . S
C156 C166 1.476 . S
H157 C151 0.929 . S
C158 O149 1.250 . S
C158 O150 1.263 . S
O159 Mn144 2.162 . S
O159 C147 1.281 . S
O160 Mn144 2.297 . S
O160 C147 1.236 . S
N161 Mn145 2.282 . S
N161 C162 1.328 . S
N161 C166 1.318 . S
C162 N161 1.328 . S
C162 C163 1.457 . S
C162 H167 0.929 . S
C163 C162 1.457 . S
C163 C164 1.291 . S
C163 H176 0.931 . S
C164 C163 1.291 . S
C164 C165 1.373 . S
C164 H177 0.929 . S
C165 C164 1.373 . S
C165 C166 1.396 . S
C165 C172 1.403 . S
C166 C156 1.476 . S
C166 N161 1.318 . S
C166 C165 1.396 . S
H167 C162 0.929 . S
O168 Mn144 2.385 . S
O168 C146 1.234 . S
O169 Mn144 2.209 . S
O169 Mn145 2.215 . S
O169 C146 1.283 . S
O170 Mn144 2.094 1_556 S
O170 C148 1.240 . S
O171 Mn145 2.117 1_556 S
O171 C148 1.264 . S
C172 C165 1.403 . S
C172 C173 1.399 . S
C172 H178 0.929 . S
C173 C153 1.449 . S
C173 C172 1.399 . S
C173 H179 0.930 . S
H174 C154 0.931 . S
H175 C155 0.930 . S
H176 C163 0.931 . S
H177 C164 0.929 . S
H178 C172 0.929 . S
H179 C173 0.930 . S
Mn180 O185 2.095 1_545 S
Mn180 O195 2.162 . S
Mn180 O196 2.297 1_554 S
Mn180 O204 2.385 1_554 S
Mn180 O205 2.209 1_544 S
Mn180 O206 2.094 . S
Mn181 O186 2.121 . S
Mn181 N188 2.257 1_554 S
Mn181 N197 2.282 . S
Mn181 O205 2.215 1_554 S
Mn181 O207 2.117 . S
C182 O204 1.234 . S
C182 O205 1.283 1_545 S
C183 O195 1.281 1_556 S
C183 O196 1.236 . S
C184 O206 1.240 . S
C184 O207 1.264 1_545 S
O185 Mn180 2.095 1_565 S
O185 C194 1.250 . S
O186 Mn181 2.121 . S
O186 C194 1.258 . S
C187 N188 1.326 . S
C187 C191 1.460 . S
C187 H193 0.929 . S
N188 Mn181 2.257 1_556 S
N188 C187 1.326 . S
N188 C192 1.362 . S
C189 C190 1.258 . S
C189 C192 1.431 . S
C189 C209 1.449 . S
C190 C189 1.258 . S
C190 C191 1.477 . S
C190 H210 0.931 . S
C191 C187 1.460 . S
C191 C190 1.477 . S
C191 H211 0.930 . S
C192 N188 1.362 . S
C192 C189 1.431 . S
C192 C202 1.476 . S
H193 C187 0.929 . S
C194 O185 1.250 . S
C194 O186 1.258 . S
O195 Mn180 2.162 . S
O195 C183 1.281 1_554 S
O196 Mn180 2.297 1_556 S
O196 C183 1.236 . S
N197 Mn181 2.282 . S
N197 C198 1.328 . S
N197 C202 1.318 1_554 S
C198 N197 1.328 . S
C198 C199 1.457 1_554 S
C198 H203 0.929 . S
C199 C198 1.457 1_556 S
C199 C200 1.291 . S
C199 H212 0.931 . S
C200 C199 1.291 . S
C200 C201 1.373 . S
C200 H213 0.929 . S
C201 C200 1.373 . S
C201 C202 1.396 . S
C201 C208 1.403 . S
C202 C192 1.476 . S
C202 N197 1.318 1_556 S
C202 C201 1.396 . S
H203 C198 0.929 . S
O204 Mn180 2.385 1_556 S
O204 C182 1.234 . S
O205 Mn180 2.209 1_566 S
O205 Mn181 2.215 1_556 S
O205 C182 1.283 1_565 S
O206 Mn180 2.094 . S
O206 C184 1.240 . S
O207 Mn181 2.117 . S
O207 C184 1.264 1_565 S
C208 C201 1.403 . S
C208 C209 1.399 . S
C208 H214 0.929 . S
C209 C189 1.449 . S
C209 C208 1.399 . S
C209 H215 0.930 . S
H210 C190 0.931 . S
H211 C191 0.930 . S
H212 C199 0.931 . S
H213 C200 0.929 . S
H214 C208 0.929 . S
H215 C209 0.930 . S
Mn216 O221 2.095 . S
Mn216 O231 2.162 . S
Mn216 O232 2.297 . S
Mn216 O240 2.385 . S
Mn216 O241 2.209 . S
Mn216 O242 2.094 . S
Mn217 O222 2.121 . S
Mn217 N224 2.257 . S
Mn217 N233 2.282 . S
Mn217 O241 2.215 . S
Mn217 O243 2.117 . S
C218 O240 1.234 . S
C218 O241 1.283 . S
C219 O231 1.281 . S
C219 O232 1.236 . S
C220 O242 1.240 . S
C220 O243 1.264 . S
O221 Mn216 2.095 . S
O221 C230 1.250 . S
O222 Mn217 2.121 . S
O222 C230 1.258 . S
C223 N224 1.326 . S
C223 C227 1.460 . S
C223 H229 0.929 . S
N224 Mn217 2.257 . S
N224 C223 1.326 . S
N224 C228 1.362 . S
C225 C226 1.258 . S
C225 C228 1.431 . S
C225 C245 1.449 . S
C226 C225 1.258 . S
C226 C227 1.477 . S
C226 H246 0.931 . S
C227 C223 1.460 . S
C227 C226 1.477 . S
C227 H247 0.930 . S
C228 N224 1.362 . S
C228 C225 1.431 . S
C228 C238 1.476 . S
H229 C223 0.929 . S
C230 O221 1.250 . S
C230 O222 1.258 . S
O231 Mn216 2.162 . S
O231 C219 1.281 . S
O232 Mn216 2.297 . S
O232 C219 1.236 . S
N233 Mn217 2.282 . S
N233 C234 1.328 . S
N233 C238 1.318 . S
C234 N233 1.328 . S
C234 C235 1.457 . S
C234 H239 0.929 . S
C235 C234 1.457 . S
C235 C236 1.291 . S
C235 H248 0.931 . S
C236 C235 1.291 . S
C236 C237 1.373 . S
C236 H249 0.929 . S
C237 C236 1.373 . S
C237 C238 1.396 . S
C237 C244 1.403 . S
C238 C228 1.476 . S
C238 N233 1.318 . S
C238 C237 1.396 . S
H239 C234 0.929 . S
O240 Mn216 2.385 . S
O240 C218 1.234 . S
O241 Mn216 2.209 . S
O241 Mn217 2.215 . S
O241 C218 1.283 . S
O242 Mn216 2.094 . S
O242 C220 1.240 . S
O243 Mn217 2.117 . S
O243 C220 1.264 . S
C244 C237 1.403 . S
C244 C245 1.399 . S
C244 H250 0.929 . S
C245 C225 1.449 . S
C245 C244 1.399 . S
C245 H251 0.930 . S
H246 C226 0.931 . S
H247 C227 0.930 . S
H248 C235 0.931 . S
H249 C236 0.929 . S
H250 C244 0.929 . S
H251 C245 0.930 . S
Mn252 O257 2.095 . S
Mn252 O267 2.162 1_565 S
Mn252 O268 2.325 . S
Mn252 O276 2.385 . S
Mn252 O277 2.209 . S
Mn252 O278 2.094 . S
Mn253 O258 2.121 . S
Mn253 N260 2.257 . S
Mn253 N269 2.282 . S
Mn253 O277 2.215 . S
Mn253 O279 2.117 . S
C254 O276 1.234 . S
C254 O277 1.283 . S
C255 O267 1.281 . S
C255 O268 1.184 1_545 S
C256 O278 1.240 . S
C256 O279 1.264 . S
O257 Mn252 2.095 . S
O257 C266 1.250 . S
O258 Mn253 2.121 . S
O258 C266 1.258 . S
C259 N260 1.326 . S
C259 C263 1.460 . S
C259 H265 0.929 . S
N260 Mn253 2.257 . S
N260 C259 1.326 . S
N260 C264 1.362 . S
C261 C262 1.258 . S
C261 C264 1.431 . S
C261 C281 1.449 . S
C262 C261 1.258 . S
C262 C263 1.477 . S
C262 H282 0.931 . S
C263 C259 1.460 . S
C263 C262 1.477 . S
C263 H283 0.930 . S
C264 N260 1.362 . S
C264 C261 1.431 . S
C264 C274 1.476 . S
H265 C259 0.929 . S
C266 O257 1.250 . S
C266 O258 1.258 . S
O267 Mn252 2.162 1_545 S
O267 C255 1.281 . S
O268 Mn252 2.325 . S
O268 C255 1.184 1_565 S
N269 Mn253 2.282 . S
N269 C270 1.328 . S
N269 C274 1.318 . S
C270 N269 1.328 . S
C270 C271 1.457 . S
C270 H275 0.929 . S
C271 C270 1.457 . S
C271 C272 1.291 . S
C271 H284 0.931 . S
C272 C271 1.291 . S
C272 C273 1.373 . S
C272 H285 0.929 . S
C273 C272 1.373 . S
C273 C274 1.396 . S
C273 C280 1.403 . S
C274 C264 1.476 . S
C274 N269 1.318 . S
C274 C273 1.396 . S
H275 C270 0.929 . S
O276 Mn252 2.385 . S
O276 C254 1.234 . S
O277 Mn252 2.209 . S
O277 Mn253 2.215 . S
O277 C254 1.283 . S
O278 Mn252 2.094 . S
O278 C256 1.240 . S
O279 Mn253 2.117 . S
O279 C256 1.264 . S
C280 C273 1.403 . S
C280 C281 1.399 . S
C280 H286 0.929 . S
C281 C261 1.449 . S
C281 C280 1.399 . S
C281 H287 0.930 . S
H282 C262 0.931 . S
H283 C263 0.930 . S
H284 C271 0.931 . S
H285 C272 0.929 . S
H286 C280 0.929 . S
H287 C281 0.930 . S
Mn288 O293 2.095 . S
Mn288 O303 2.162 1_455 S
Mn288 O304 2.276 1_455 S
Mn288 O312 2.385 . S
Mn288 O313 2.209 . S
Mn288 O314 2.094 . S
Mn289 O294 2.121 . S
Mn289 N296 2.257 . S
Mn289 N305 2.282 . S
Mn289 O313 2.215 . S
Mn289 O315 2.117 . S
C290 O312 1.234 . S
C290 O313 1.283 . S
C291 O303 1.281 . S
C291 O304 1.240 . S
C292 O314 1.240 . S
C292 O315 1.264 . S
O293 Mn288 2.095 . S
O293 C302 1.250 . S
O294 Mn289 2.121 . S
O294 C302 1.258 . S
C295 N296 1.326 . S
C295 C299 1.460 . S
C295 H301 0.929 . S
N296 Mn289 2.257 . S
N296 C295 1.326 . S
N296 C300 1.362 . S
C297 C298 1.258 . S
C297 C300 1.431 . S
C297 C317 1.449 . S
C298 C297 1.258 . S
C298 C299 1.477 . S
C298 H318 0.931 . S
C299 C295 1.460 . S
C299 C298 1.477 . S
C299 H319 0.930 . S
C300 N296 1.362 . S
C300 C297 1.431 . S
C300 C310 1.476 . S
H301 C295 0.929 . S
C302 O293 1.250 . S
C302 O294 1.258 . S
O303 Mn288 2.162 1_655 S
O303 C291 1.281 . S
O304 Mn288 2.276 1_655 S
O304 C291 1.240 . S
N305 Mn289 2.282 . S
N305 C306 1.328 . S
N305 C310 1.318 . S
C306 N305 1.328 . S
C306 C307 1.457 . S
C306 H311 0.929 . S
C307 C306 1.457 . S
C307 C308 1.291 . S
C307 H320 0.931 . S
C308 C307 1.291 . S
C308 C309 1.373 . S
C308 H321 0.929 . S
C309 C308 1.373 . S
C309 C310 1.396 . S
C309 C316 1.403 . S
C310 C300 1.476 . S
C310 N305 1.318 . S
C310 C309 1.396 . S
H311 C306 0.929 . S
O312 Mn288 2.385 . S
O312 C290 1.234 . S
O313 Mn288 2.209 . S
O313 Mn289 2.215 . S
O313 C290 1.283 . S
O314 Mn288 2.094 . S
O314 C292 1.240 . S
O315 Mn289 2.117 . S
O315 C292 1.264 . S
C316 C309 1.403 . S
C316 C317 1.399 . S
C316 H322 0.929 . S
C317 C297 1.449 . S
C317 C316 1.399 . S
C317 H323 0.930 . S
H318 C298 0.931 . S
H319 C299 0.930 . S
H320 C307 0.931 . S
H321 C308 0.929 . S
H322 C316 0.929 . S
H323 C317 0.930 . S
Mn324 O329 2.095 . S
Mn324 O339 2.162 . S
Mn324 O340 2.297 . S
Mn324 O348 2.385 . S
Mn324 O349 2.209 . S
Mn324 O350 2.094 . S
Mn325 O330 2.121 . S
Mn325 N332 2.257 . S
Mn325 N341 2.282 . S
Mn325 O349 2.215 . S
Mn325 O351 2.117 . S
C326 O348 1.234 . S
C326 O349 1.283 . S
C327 O339 1.281 . S
C327 O340 1.236 . S
C328 O350 1.240 . S
C328 O351 1.264 . S
O329 Mn324 2.095 . S
O329 C338 1.250 1_565 S
O330 Mn325 2.121 . S
O330 C338 1.258 1_565 S
C331 N332 1.326 . S
C331 C335 1.460 1_565 S
C331 H337 0.929 1_565 S
N332 Mn325 2.257 . S
N332 C331 1.326 . S
N332 C336 1.362 . S
C333 C334 1.258 . S
C333 C336 1.431 . S
C333 C353 1.449 . S
C334 C333 1.258 . S
C334 C335 1.477 1_565 S
C334 H354 0.931 . S
C335 C331 1.460 1_545 S
C335 C334 1.477 1_545 S
C335 H355 0.930 . S
C336 N332 1.362 . S
C336 C333 1.431 . S
C336 C346 1.476 . S
H337 C331 0.929 1_545 S
C338 O329 1.250 1_545 S
C338 O330 1.258 1_545 S
O339 Mn324 2.162 . S
O339 C327 1.281 . S
O340 Mn324 2.297 . S
O340 C327 1.236 . S
N341 Mn325 2.282 . S
N341 C342 1.328 . S
N341 C346 1.318 . S
C342 N341 1.328 . S
C342 C343 1.457 . S
C342 H347 0.929 . S
C343 C342 1.457 . S
C343 C344 1.291 . S
C343 H356 0.931 . S
C344 C343 1.291 . S
C344 C345 1.373 . S
C344 H357 0.929 . S
C345 C344 1.373 . S
C345 C346 1.396 . S
C345 C352 1.403 . S
C346 C336 1.476 . S
C346 N341 1.318 . S
C346 C345 1.396 . S
H347 C342 0.929 . S
O348 Mn324 2.385 . S
O348 C326 1.234 . S
O349 Mn324 2.209 . S
O349 Mn325 2.215 . S
O349 C326 1.283 . S
O350 Mn324 2.094 . S
O350 C328 1.240 . S
O351 Mn325 2.117 . S
O351 C328 1.264 . S
C352 C345 1.403 . S
C352 C353 1.399 . S
C352 H358 0.929 . S
C353 C333 1.449 . S
C353 C352 1.399 . S
C353 H359 0.930 . S
H354 C334 0.931 . S
H355 C335 0.930 . S
H356 C343 0.931 . S
H357 C344 0.929 . S
H358 C352 0.929 . S
H359 C353 0.930 . S
Mn360 O365 2.095 . S
Mn360 O375 2.162 1_455 S
Mn360 O376 2.297 . S
Mn360 O384 2.385 . S
Mn360 O385 2.209 . S
Mn360 O386 2.094 . S
Mn361 O366 2.121 . S
Mn361 N368 2.257 . S
Mn361 N377 2.282 . S
Mn361 O385 2.215 . S
Mn361 O387 2.117 . S
C362 O384 1.234 . S
C362 O385 1.283 . S
C363 O375 1.281 . S
C363 O376 1.236 1_655 S
C364 O386 1.240 . S
C364 O387 1.264 . S
O365 Mn360 2.095 . S
O365 C374 1.250 . S
O366 Mn361 2.121 . S
O366 C374 1.258 . S
C367 N368 1.326 . S
C367 C371 1.460 . S
C367 H373 0.929 . S
N368 Mn361 2.257 . S
N368 C367 1.326 . S
N368 C372 1.362 . S
C369 C370 1.258 . S
C369 C372 1.431 . S
C369 C389 1.449 . S
C370 C369 1.258 . S
C370 C371 1.477 . S
C370 H390 0.931 . S
C371 C367 1.460 . S
C371 C370 1.477 . S
C371 H391 0.930 . S
C372 N368 1.362 . S
C372 C369 1.431 . S
C372 C382 1.476 . S
H373 C367 0.929 . S
C374 O365 1.250 . S
C374 O366 1.258 . S
O375 Mn360 2.162 1_655 S
O375 C363 1.281 . S
O376 Mn360 2.297 . S
O376 C363 1.236 1_455 S
N377 Mn361 2.282 . S
N377 C378 1.328 . S
N377 C382 1.318 . S
C378 N377 1.328 . S
C378 C379 1.457 . S
C378 H383 0.929 . S
C379 C378 1.457 . S
C379 C380 1.291 . S
C379 H392 0.931 . S
C380 C379 1.291 . S
C380 C381 1.373 . S
C380 H393 0.929 . S
C381 C380 1.373 . S
C381 C382 1.396 . S
C381 C388 1.403 . S
C382 C372 1.476 . S
C382 N377 1.318 . S
C382 C381 1.396 . S
H383 C378 0.929 . S
O384 Mn360 2.385 . S
O384 C362 1.234 . S
O385 Mn360 2.209 . S
O385 Mn361 2.215 . S
O385 C362 1.283 . S
O386 Mn360 2.094 . S
O386 C364 1.240 . S
O387 Mn361 2.117 . S
O387 C364 1.264 . S
C388 C381 1.403 . S
C388 C389 1.399 . S
C388 H394 0.929 . S
C389 C369 1.449 . S
C389 C388 1.399 . S
C389 H395 0.930 . S
H390 C370 0.931 . S
H391 C371 0.930 . S
H392 C379 0.931 . S
H393 C380 0.929 . S
H394 C388 0.929 . S
H395 C389 0.930 . S
Mn396 O401 2.095 . S
Mn396 O411 2.162 . S
Mn396 O412 2.297 . S
Mn396 O420 2.385 . S
Mn396 O421 2.209 . S
Mn396 O422 2.094 . S
Mn397 O402 2.121 . S
Mn397 N404 2.257 . S
Mn397 N413 2.282 . S
Mn397 O421 2.215 . S
Mn397 O423 2.117 . S
C398 O420 1.234 . S
C398 O421 1.283 . S
C399 O411 1.281 . S
C399 O412 1.236 . S
C400 O422 1.240 . S
C400 O423 1.264 . S
O401 Mn396 2.095 . S
O401 C410 1.250 . S
O402 Mn397 2.121 . S
O402 C410 1.258 . S
C403 N404 1.326 . S
C403 C407 1.460 . S
C403 H409 0.929 . S
N404 Mn397 2.257 . S
N404 C403 1.326 . S
N404 C408 1.362 . S
C405 C406 1.258 . S
C405 C408 1.431 . S
C405 C425 1.449 . S
C406 C405 1.258 . S
C406 C407 1.477 . S
C406 H426 0.931 . S
C407 C403 1.460 . S
C407 C406 1.477 . S
C407 H427 0.930 . S
C408 N404 1.362 . S
C408 C405 1.431 . S
C408 C418 1.476 . S
H409 C403 0.929 . S
C410 O401 1.250 . S
C410 O402 1.258 . S
O411 Mn396 2.162 . S
O411 C399 1.281 . S
O412 Mn396 2.297 . S
O412 C399 1.236 . S
N413 Mn397 2.282 . S
N413 C414 1.328 . S
N413 C418 1.318 . S
C414 N413 1.328 . S
C414 C415 1.457 . S
C414 H419 0.929 . S
C415 C414 1.457 . S
C415 C416 1.291 . S
C415 H428 0.931 . S
C416 C415 1.291 . S
C416 C417 1.373 . S
C416 H429 0.929 . S
C417 C416 1.373 . S
C417 C418 1.396 . S
C417 C424 1.403 . S
C418 C408 1.476 . S
C418 N413 1.318 . S
C418 C417 1.396 . S
H419 C414 0.929 . S
O420 Mn396 2.385 . S
O420 C398 1.234 . S
O421 Mn396 2.209 . S
O421 Mn397 2.215 . S
O421 C398 1.283 . S
O422 Mn396 2.094 . S
O422 C400 1.240 . S
O423 Mn397 2.117 . S
O423 C400 1.264 . S
C424 C417 1.403 . S
C424 C425 1.399 . S
C424 H430 0.929 . S
C425 C405 1.449 . S
C425 C424 1.399 . S
C425 H431 0.930 . S
H426 C406 0.931 . S
H427 C407 0.930 . S
H428 C415 0.931 . S
H429 C416 0.929 . S
H430 C424 0.929 . S
H431 C425 0.930 . S
Mn432 O437 2.095 . S
Mn432 O447 2.162 1_545 S
Mn432 O448 2.297 . S
Mn432 O456 2.385 . S
Mn432 O457 2.209 . S
Mn432 O458 2.094 . S
Mn433 O438 2.121 . S
Mn433 N440 2.257 . S
Mn433 N449 2.282 . S
Mn433 O457 2.215 . S
Mn433 O459 2.117 . S
C434 O456 1.234 . S
C434 O457 1.283 . S
C435 O447 1.281 . S
C435 O448 1.236 1_565 S
C436 O458 1.240 . S
C436 O459 1.264 . S
O437 Mn432 2.095 . S
O437 C446 1.250 . S
O438 Mn433 2.121 . S
O438 C446 1.258 . S
C439 N440 1.326 . S
C439 C443 1.460 . S
C439 H445 0.929 . S
N440 Mn433 2.257 . S
N440 C439 1.326 . S
N440 C444 1.362 . S
C441 C442 1.258 . S
C441 C444 1.431 . S
C441 C461 1.449 . S
C442 C441 1.258 . S
C442 C443 1.477 . S
C442 H462 0.931 . S
C443 C439 1.460 . S
C443 C442 1.477 . S
C443 H463 0.930 . S
C444 N440 1.362 . S
C444 C441 1.431 . S
C444 C454 1.476 . S
H445 C439 0.929 . S
C446 O437 1.250 . S
C446 O438 1.258 . S
O447 Mn432 2.162 1_565 S
O447 C435 1.281 . S
O448 Mn432 2.297 . S
O448 C435 1.236 1_545 S
N449 Mn433 2.282 . S
N449 C450 1.328 . S
N449 C454 1.318 . S
C450 N449 1.328 . S
C450 C451 1.457 . S
C450 H455 0.929 . S
C451 C450 1.457 . S
C451 C452 1.291 . S
C451 H464 0.931 . S
C452 C451 1.291 . S
C452 C453 1.373 . S
C452 H465 0.929 . S
C453 C452 1.373 . S
C453 C454 1.396 . S
C453 C460 1.403 . S
C454 C444 1.476 . S
C454 N449 1.318 . S
C454 C453 1.396 . S
H455 C450 0.929 . S
O456 Mn432 2.385 . S
O456 C434 1.234 . S
O457 Mn432 2.209 . S
O457 Mn433 2.215 . S
O457 C434 1.283 . S
O458 Mn432 2.094 . S
O458 C436 1.240 . S
O459 Mn433 2.117 . S
O459 C436 1.264 . S
C460 C453 1.403 . S
C460 C461 1.399 . S
C460 H466 0.929 . S
C461 C441 1.449 . S
C461 C460 1.399 . S
C461 H467 0.930 . S
H462 C442 0.931 . S
H463 C443 0.930 . S
H464 C451 0.931 . S
H465 C452 0.929 . S
H466 C460 0.929 . S
H467 C461 0.930 . S
Mn468 O473 2.095 . S
Mn468 O483 2.162 . S
Mn468 O484 2.297 . S
Mn468 O492 2.385 . S
Mn468 O493 2.209 . S
Mn468 O494 2.094 . S
Mn469 O474 2.121 . S
Mn469 N476 2.257 . S
Mn469 N485 2.282 . S
Mn469 O493 2.215 . S
Mn469 O495 2.117 . S
C470 O492 1.234 . S
C470 O493 1.283 . S
C471 O483 1.281 . S
C471 O484 1.236 . S
C472 O494 1.240 . S
C472 O495 1.264 . S
O473 Mn468 2.095 . S
O473 C482 1.209 1_655 S
O474 Mn469 2.121 . S
O474 C482 1.269 1_655 S
C475 N476 1.326 . S
C475 C479 1.460 1_655 S
C475 H481 0.929 1_655 S
N476 Mn469 2.257 . S
N476 C475 1.326 . S
N476 C480 1.362 . S
C477 C478 1.258 . S
C477 C480 1.431 . S
C477 C497 1.449 . S
C478 C477 1.258 . S
C478 C479 1.477 1_655 S
C478 H498 0.931 . S
C479 C475 1.460 1_455 S
C479 C478 1.477 1_455 S
C479 H499 0.930 . S
C480 N476 1.362 . S
C480 C477 1.431 . S
C480 C490 1.476 . S
H481 C475 0.929 1_455 S
C482 O473 1.209 1_455 S
C482 O474 1.269 1_455 S
O483 Mn468 2.162 . S
O483 C471 1.281 . S
O484 Mn468 2.297 . S
O484 C471 1.236 . S
N485 Mn469 2.282 . S
N485 C486 1.328 . S
N485 C490 1.318 . S
C486 N485 1.328 . S
C486 C487 1.457 . S
C486 H491 0.929 . S
C487 C486 1.457 . S
C487 C488 1.291 . S
C487 H500 0.931 . S
C488 C487 1.291 . S
C488 C489 1.373 . S
C488 H501 0.929 . S
C489 C488 1.373 . S
C489 C490 1.396 . S
C489 C496 1.403 . S
C490 C480 1.476 . S
C490 N485 1.318 . S
C490 C489 1.396 . S
H491 C486 0.929 . S
O492 Mn468 2.385 . S
O492 C470 1.234 . S
O493 Mn468 2.209 . S
O493 Mn469 2.215 . S
O493 C470 1.283 . S
O494 Mn468 2.094 . S
O494 C472 1.240 . S
O495 Mn469 2.117 . S
O495 C472 1.264 . S
C496 C489 1.403 . S
C496 C497 1.399 . S
C496 H502 0.929 . S
C497 C477 1.449 . S
C497 C496 1.399 . S
C497 H503 0.930 . S
H498 C478 0.931 . S
H499 C479 0.930 . S
H500 C487 0.931 . S
H501 C488 0.929 . S
H502 C496 0.929 . S
H503 C497 0.930 . S
Mn504 O509 2.095 . S
Mn504 O519 2.162 . S
Mn504 O520 2.297 . S
Mn504 O528 2.385 . S
Mn504 O529 2.209 . S
Mn504 O530 2.094 . S
Mn505 O510 2.121 . S
Mn505 N512 2.257 . S
Mn505 N521 2.282 . S
Mn505 O529 2.215 . S
Mn505 O531 2.117 . S
C506 O528 1.234 . S
C506 O529 1.283 . S
C507 O519 1.281 . S
C507 O520 1.236 . S
C508 O530 1.240 . S
C508 O531 1.264 . S
O509 Mn504 2.095 . S
O509 C518 1.250 . S
O510 Mn505 2.121 . S
O510 C518 1.258 . S
C511 N512 1.326 . S
C511 C515 1.460 . S
C511 H517 0.929 . S
N512 Mn505 2.257 . S
N512 C511 1.326 . S
N512 C516 1.362 . S
C513 C514 1.258 . S
C513 C516 1.431 . S
C513 C533 1.449 . S
C514 C513 1.258 . S
C514 C515 1.477 . S
C514 H534 0.931 . S
C515 C511 1.460 . S
C515 C514 1.477 . S
C515 H535 0.930 . S
C516 N512 1.362 . S
C516 C513 1.431 . S
C516 C526 1.476 . S
H517 C511 0.929 . S
C518 O509 1.250 . S
C518 O510 1.258 . S
O519 Mn504 2.162 . S
O519 C507 1.281 . S
O520 Mn504 2.297 . S
O520 C507 1.236 . S
N521 Mn505 2.282 . S
N521 C522 1.328 . S
N521 C526 1.318 . S
C522 N521 1.328 . S
C522 C523 1.457 . S
C522 H527 0.929 . S
C523 C522 1.457 . S
C523 C524 1.291 . S
C523 H536 0.931 . S
C524 C523 1.291 . S
C524 C525 1.373 . S
C524 H537 0.929 . S
C525 C524 1.373 . S
C525 C526 1.396 . S
C525 C532 1.403 . S
C526 C516 1.476 . S
C526 N521 1.318 . S
C526 C525 1.396 . S
H527 C522 0.929 . S
O528 Mn504 2.385 . S
O528 C506 1.234 . S
O529 Mn504 2.209 . S
O529 Mn505 2.215 . S
O529 C506 1.283 . S
O530 Mn504 2.094 . S
O530 C508 1.240 . S
O531 Mn505 2.117 . S
O531 C508 1.264 . S
C532 C525 1.403 . S
C532 C533 1.399 . S
C532 H538 0.929 . S
C533 C513 1.449 . S
C533 C532 1.399 . S
C533 H539 0.930 . S
H534 C514 0.931 . S
H535 C515 0.930 . S
H536 C523 0.931 . S
H537 C524 0.929 . S
H538 C532 0.929 . S
H539 C533 0.930 . S
Mn540 O545 2.095 . S
Mn540 O555 2.162 . S
Mn540 O556 2.297 . S
Mn540 O564 2.385 . S
Mn540 O565 2.209 . S
Mn540 O566 2.094 . S
Mn541 O546 2.121 . S
Mn541 N548 2.257 . S
Mn541 N557 2.282 . S
Mn541 O565 2.215 . S
Mn541 O567 2.117 . S
C542 O564 1.234 . S
C542 O565 1.283 . S
C543 O555 1.281 . S
C543 O556 1.236 . S
C544 O566 1.240 . S
C544 O567 1.264 . S
O545 Mn540 2.095 . S
O545 C554 1.250 . S
O546 Mn541 2.121 . S
O546 C554 1.258 . S
C547 N548 1.326 . S
C547 C551 1.460 . S
C547 H553 0.929 . S
N548 Mn541 2.257 . S
N548 C547 1.326 . S
N548 C552 1.362 . S
C549 C550 1.258 . S
C549 C552 1.431 . S
C549 C569 1.449 . S
C550 C549 1.258 . S
C550 C551 1.477 . S
C550 H570 0.931 . S
C551 C547 1.460 . S
C551 C550 1.477 . S
C551 H571 0.930 . S
C552 N548 1.362 . S
C552 C549 1.431 . S
C552 C562 1.476 . S
H553 C547 0.929 . S
C554 O545 1.250 . S
C554 O546 1.258 . S
O555 Mn540 2.162 . S
O555 C543 1.281 . S
O556 Mn540 2.297 . S
O556 C543 1.236 . S
N557 Mn541 2.282 . S
N557 C558 1.328 . S
N557 C562 1.318 . S
C558 N557 1.328 . S
C558 C559 1.457 . S
C558 H563 0.929 . S
C559 C558 1.457 . S
C559 C560 1.291 . S
C559 H572 0.931 . S
C560 C559 1.291 . S
C560 C561 1.373 . S
C560 H573 0.929 . S
C561 C560 1.373 . S
C561 C562 1.396 . S
C561 C568 1.403 . S
C562 C552 1.476 . S
C562 N557 1.318 . S
C562 C561 1.396 . S
H563 C558 0.929 . S
O564 Mn540 2.385 . S
O564 C542 1.234 . S
O565 Mn540 2.209 . S
O565 Mn541 2.215 . S
O565 C542 1.283 . S
O566 Mn540 2.094 . S
O566 C544 1.240 . S
O567 Mn541 2.117 . S
O567 C544 1.264 . S
C568 C561 1.403 . S
C568 C569 1.399 . S
C568 H574 0.929 . S
C569 C549 1.449 . S
C569 C568 1.399 . S
C569 H575 0.930 . S
H570 C550 0.931 . S
H571 C551 0.930 . S
H572 C559 0.931 . S
H573 C560 0.929 . S
H574 C568 0.929 . S
H575 C569 0.930 . S
Mn576 O581 2.095 . S
Mn576 O591 2.162 . S
Mn576 O592 2.297 . S
Mn576 O600 2.385 . S
Mn576 O601 2.209 . S
Mn576 O602 2.094 . S
Mn577 O582 2.121 . S
Mn577 N584 2.257 . S
Mn577 N593 2.282 . S
Mn577 O601 2.215 . S
Mn577 O603 2.117 . S
C578 O600 1.234 . S
C578 O601 1.283 . S
C579 O591 1.281 . S
C579 O592 1.236 . S
C580 O602 1.240 . S
C580 O603 1.264 . S
O581 Mn576 2.095 . S
O581 C590 1.250 1_545 S
O582 Mn577 2.121 . S
O582 C590 1.258 1_545 S
C583 N584 1.326 . S
C583 C587 1.460 1_545 S
C583 H589 0.929 1_545 S
N584 Mn577 2.257 . S
N584 C583 1.326 . S
N584 C588 1.362 . S
C585 C586 1.258 . S
C585 C588 1.431 . S
C585 C605 1.449 . S
C586 C585 1.258 . S
C586 C587 1.477 1_545 S
C586 H606 0.931 . S
C587 C583 1.460 1_565 S
C587 C586 1.477 1_565 S
C587 H607 0.930 . S
C588 N584 1.362 . S
C588 C585 1.431 . S
C588 C598 1.476 . S
H589 C583 0.929 1_565 S
C590 O581 1.250 1_565 S
C590 O582 1.258 1_565 S
O591 Mn576 2.162 . S
O591 C579 1.281 . S
O592 Mn576 2.297 . S
O592 C579 1.236 . S
N593 Mn577 2.282 . S
N593 C594 1.328 . S
N593 C598 1.318 . S
C594 N593 1.328 . S
C594 C595 1.457 . S
C594 H599 0.929 . S
C595 C594 1.457 . S
C595 C596 1.291 . S
C595 H608 0.931 . S
C596 C595 1.291 . S
C596 C597 1.373 . S
C596 H609 0.929 . S
C597 C596 1.373 . S
C597 C598 1.396 . S
C597 C604 1.403 . S
C598 C588 1.476 . S
C598 N593 1.318 . S
C598 C597 1.396 . S
H599 C594 0.929 . S
O600 Mn576 2.385 . S
O600 C578 1.234 . S
O601 Mn576 2.209 . S
O601 Mn577 2.215 . S
O601 C578 1.283 . S
O602 Mn576 2.094 . S
O602 C580 1.240 . S
O603 Mn577 2.117 . S
O603 C580 1.264 . S
C604 C597 1.403 . S
C604 C605 1.399 . S
C604 H610 0.929 . S
C605 C585 1.449 . S
C605 C604 1.399 . S
C605 H611 0.930 . S
H606 C586 0.931 . S
H607 C587 0.930 . S
H608 C595 0.931 . S
H609 C596 0.929 . S
H610 C604 0.929 . S
H611 C605 0.930 . S
Mn612 O617 2.095 . S
Mn612 O627 2.162 1_655 S
Mn612 O628 2.347 . S
Mn612 O636 2.385 . S
Mn612 O637 2.209 . S
Mn612 O638 2.094 . S
Mn613 O618 2.121 . S
Mn613 N620 2.257 . S
Mn613 N629 2.282 . S
Mn613 O637 2.215 . S
Mn613 O639 2.117 . S
C614 O636 1.234 . S
C614 O637 1.283 . S
C615 O627 1.281 . S
C615 O628 1.226 1_455 S
C616 O638 1.240 . S
C616 O639 1.264 . S
O617 Mn612 2.095 . S
O617 C626 1.250 . S
O618 Mn613 2.121 . S
O618 C626 1.258 . S
C619 N620 1.326 . S
C619 C623 1.460 . S
C619 H625 0.929 . S
N620 Mn613 2.257 . S
N620 C619 1.326 . S
N620 C624 1.362 . S
C621 C622 1.258 . S
C621 C624 1.431 . S
C621 C641 1.449 . S
C622 C621 1.258 . S
C622 C623 1.477 . S
C622 H642 0.931 . S
C623 C619 1.460 . S
C623 C622 1.477 . S
C623 H643 0.930 . S
C624 N620 1.362 . S
C624 C621 1.431 . S
C624 C634 1.476 . S
H625 C619 0.929 . S
C626 O617 1.250 . S
C626 O618 1.258 . S
O627 Mn612 2.162 1_455 S
O627 C615 1.281 . S
O628 Mn612 2.347 . S
O628 C615 1.226 1_655 S
N629 Mn613 2.282 . S
N629 C630 1.328 . S
N629 C634 1.318 . S
C630 N629 1.328 . S
C630 C631 1.457 . S
C630 H635 0.929 . S
C631 C630 1.457 . S
C631 C632 1.291 . S
C631 H644 0.931 . S
C632 C631 1.291 . S
C632 C633 1.373 . S
C632 H645 0.929 . S
C633 C632 1.373 . S
C633 C634 1.396 . S
C633 C640 1.403 . S
C634 C624 1.476 . S
C634 N629 1.318 . S
C634 C633 1.396 . S
H635 C630 0.929 . S
O636 Mn612 2.385 . S
O636 C614 1.234 . S
O637 Mn612 2.209 . S
O637 Mn613 2.215 . S
O637 C614 1.283 . S
O638 Mn612 2.094 . S
O638 C616 1.240 . S
O639 Mn613 2.117 . S
O639 C616 1.264 . S
C640 C633 1.403 . S
C640 C641 1.399 . S
C640 H646 0.929 . S
C641 C621 1.449 . S
C641 C640 1.399 . S
C641 H647 0.930 . S
H642 C622 0.931 . S
H643 C623 0.930 . S
H644 C631 0.931 . S
H645 C632 0.929 . S
H646 C640 0.929 . S
H647 C641 0.930 . S
H648 C675 0.929 . S
N649 C674 1.433 . S
N649 C680 1.435 . S
N649 C686 1.423 . S
H650 C676 0.930 . S
H651 C679 0.931 . S
H652 C678 0.929 . S
H653 C681 0.930 . S
H654 C682 0.932 . S
H655 C685 0.929 . S
H656 C684 0.931 . S
H657 C687 0.929 . S
H658 C691 0.932 . S
H659 C688 0.931 . S
H660 C690 0.929 . S
H661 C693 0.929 . S
H662 C694 0.930 . S
H663 C696 0.929 . S
H664 C697 0.931 . S
H665 C699 0.930 . S
H666 C700 0.932 . S
H667 C702 0.931 . S
H668 C703 0.929 . S
H669 C705 0.929 . S
H670 C706 0.931 . S
H671 C708 0.929 . S
N672 C692 1.433 . S
N672 C698 1.435 . S
N672 C704 1.423 . S
H673 C709 0.932 . S
C674 N649 1.433 . S
C674 C675 1.363 . S
C674 C679 1.370 . S
C675 H648 0.929 . S
C675 C674 1.363 . S
C675 C676 1.385 . S
C676 H650 0.930 . S
C676 C675 1.385 . S
C676 C677 1.357 . S
C677 C676 1.357 . S
C677 C678 1.406 . S
C678 H652 0.929 . S
C678 C677 1.406 . S
C678 C679 1.391 . S
C679 H651 0.931 . S
C679 C674 1.370 . S
C679 C678 1.391 . S
C680 N649 1.435 . S
C680 C681 1.358 . S
C680 C685 1.371 . S
C681 H653 0.930 . S
C681 C680 1.358 . S
C681 C682 1.405 . S
C682 H654 0.932 . S
C682 C681 1.405 . S
C682 C683 1.383 . S
C683 C682 1.383 . S
C683 C684 1.393 . S
C684 H656 0.931 . S
C684 C683 1.393 . S
C684 C685 1.382 . S
C685 H655 0.929 . S
C685 C680 1.371 . S
C685 C684 1.382 . S
C686 N649 1.423 . S
C686 C687 1.362 . S
C686 C691 1.388 . S
C687 H657 0.929 . S
C687 C686 1.362 . S
C687 C688 1.376 . S
C688 H659 0.931 . S
C688 C687 1.376 . S
C688 C689 1.396 . S
C689 C688 1.396 . S
C689 C690 1.348 . S
C689 C707 1.472 . S
C690 H660 0.929 . S
C690 C689 1.348 . S
C690 C691 1.443 . S
C691 H658 0.932 . S
C691 C686 1.388 . S
C691 C690 1.443 . S
C692 N672 1.433 . S
C692 C693 1.363 . S
C692 C697 1.370 . S
C693 H661 0.929 . S
C693 C692 1.363 . S
C693 C694 1.385 . S
C694 H662 0.930 . S
C694 C693 1.385 . S
C694 C695 1.357 . S
C695 C694 1.357 . S
C695 C696 1.406 . S
C696 H663 0.929 . S
C696 C695 1.406 . S
C696 C697 1.391 . S
C697 H664 0.931 . S
C697 C692 1.370 . S
C697 C696 1.391 . S
C698 N672 1.435 . S
C698 C699 1.358 . S
C698 C703 1.371 . S
C699 H665 0.930 . S
C699 C698 1.358 . S
C699 C700 1.405 . S
C700 H666 0.932 . S
C700 C699 1.405 . S
C700 C701 1.383 . S
C701 C700 1.383 . S
C701 C702 1.393 . S
C702 H667 0.931 . S
C702 C701 1.393 . S
C702 C703 1.382 . S
C703 H668 0.929 . S
C703 C698 1.371 . S
C703 C702 1.382 . S
C704 N672 1.423 . S
C704 C705 1.362 . S
C704 C709 1.388 . S
C705 H669 0.929 . S
C705 C704 1.362 . S
C705 C706 1.376 . S
C706 H670 0.931 . S
C706 C705 1.376 . S
C706 C707 1.396 . S
C707 C689 1.472 . S
C707 C706 1.396 . S
C707 C708 1.348 . S
C708 H671 0.929 . S
C708 C707 1.348 . S
C708 C709 1.443 . S
C709 H673 0.932 . S
C709 C704 1.388 . S
C709 C708 1.443 . S
H710 C737 0.929 . S
N711 C736 1.433 . S
N711 C742 1.435 . S
N711 C748 1.423 . S
H712 C738 0.930 . S
H713 C741 0.931 . S
H714 C740 0.929 . S
H715 C743 0.930 . S
H716 C744 0.932 . S
H717 C747 0.929 . S
H718 C746 0.931 . S
H719 C749 0.929 . S
H720 C753 0.932 . S
H721 C750 0.931 . S
H722 C752 0.929 . S
H723 C755 0.929 . S
H724 C756 0.930 . S
H725 C758 0.929 . S
H726 C759 0.931 . S
H727 C761 0.930 . S
H728 C762 0.932 . S
H729 C764 0.931 . S
H730 C765 0.929 . S
H731 C767 0.929 . S
H732 C768 0.931 . S
H733 C770 0.929 . S
N734 C754 1.433 . S
N734 C760 1.435 . S
N734 C766 1.423 . S
H735 C771 0.932 . S
C736 N711 1.433 . S
C736 C737 1.363 . S
C736 C741 1.370 . S
C737 H710 0.929 . S
C737 C736 1.363 . S
C737 C738 1.385 . S
C738 H712 0.930 . S
C738 C737 1.385 . S
C738 C739 1.357 . S
C739 C738 1.357 . S
C739 C740 1.406 . S
C740 H714 0.929 . S
C740 C739 1.406 . S
C740 C741 1.391 . S
C741 H713 0.931 . S
C741 C736 1.370 . S
C741 C740 1.391 . S
C742 N711 1.435 . S
C742 C743 1.358 . S
C742 C747 1.371 . S
C743 H715 0.930 . S
C743 C742 1.358 . S
C743 C744 1.405 . S
C744 H716 0.932 . S
C744 C743 1.405 . S
C744 C745 1.383 . S
C745 C744 1.383 . S
C745 C746 1.393 . S
C746 H718 0.931 . S
C746 C745 1.393 . S
C746 C747 1.382 . S
C747 H717 0.929 . S
C747 C742 1.371 . S
C747 C746 1.382 . S
C748 N711 1.423 . S
C748 C749 1.362 . S
C748 C753 1.388 . S
C749 H719 0.929 . S
C749 C748 1.362 . S
C749 C750 1.376 . S
C750 H721 0.931 . S
C750 C749 1.376 . S
C750 C751 1.396 . S
C751 C750 1.396 . S
C751 C752 1.348 . S
C751 C769 1.472 . S
C752 H722 0.929 . S
C752 C751 1.348 . S
C752 C753 1.443 . S
C753 H720 0.932 . S
C753 C748 1.388 . S
C753 C752 1.443 . S
C754 N734 1.433 . S
C754 C755 1.363 . S
C754 C759 1.370 . S
C755 H723 0.929 . S
C755 C754 1.363 . S
C755 C756 1.385 . S
C756 H724 0.930 . S
C756 C755 1.385 . S
C756 C757 1.357 . S
C757 C756 1.357 . S
C757 C758 1.406 . S
C758 H725 0.929 . S
C758 C757 1.406 . S
C758 C759 1.391 . S
C759 H726 0.931 . S
C759 C754 1.370 . S
C759 C758 1.391 . S
C760 N734 1.435 . S
C760 C761 1.358 . S
C760 C765 1.371 . S
C761 H727 0.930 . S
C761 C760 1.358 . S
C761 C762 1.405 . S
C762 H728 0.932 . S
C762 C761 1.405 . S
C762 C763 1.383 . S
C763 C762 1.383 . S
C763 C764 1.393 . S
C764 H729 0.931 . S
C764 C763 1.393 . S
C764 C765 1.382 . S
C765 H730 0.929 . S
C765 C760 1.371 . S
C765 C764 1.382 . S
C766 N734 1.423 . S
C766 C767 1.362 . S
C766 C771 1.388 . S
C767 H731 0.929 . S
C767 C766 1.362 . S
C767 C768 1.376 . S
C768 H732 0.931 . S
C768 C767 1.376 . S
C768 C769 1.396 . S
C769 C751 1.472 . S
C769 C768 1.396 . S
C769 C770 1.348 . S
C770 H733 0.929 . S
C770 C769 1.348 . S
C770 C771 1.443 . S
C771 H735 0.932 . S
C771 C766 1.388 . S
C771 C770 1.443 . S
H772 C799 0.929 . S
N773 C798 1.433 . S
N773 C804 1.435 . S
N773 C810 1.423 . S
H774 C800 0.930 . S
H775 C803 0.931 . S
H776 C802 0.929 . S
H777 C805 0.930 . S
H778 C806 0.932 . S
H779 C809 0.929 . S
H780 C808 0.931 . S
H781 C811 0.929 . S
H782 C815 0.932 . S
H783 C812 0.931 . S
H784 C814 0.929 . S
H785 C817 0.929 . S
H786 C818 0.930 . S
H787 C820 0.929 . S
H788 C821 0.931 . S
H789 C823 0.930 . S
H790 C824 0.932 . S
H791 C826 0.931 . S
H792 C827 0.929 . S
H793 C829 0.929 . S
H794 C830 0.931 . S
H795 C832 0.929 . S
N796 C816 1.433 . S
N796 C822 1.435 . S
N796 C828 1.423 . S
H797 C833 0.932 . S
C798 N773 1.433 . S
C798 C799 1.363 . S
C798 C803 1.370 . S
C799 H772 0.929 . S
C799 C798 1.363 . S
C799 C800 1.385 . S
C800 H774 0.930 . S
C800 C799 1.385 . S
C800 C801 1.357 . S
C801 C800 1.357 . S
C801 C802 1.406 . S
C802 H776 0.929 . S
C802 C801 1.406 . S
C802 C803 1.391 . S
C803 H775 0.931 . S
C803 C798 1.370 . S
C803 C802 1.391 . S
C804 N773 1.435 . S
C804 C805 1.358 . S
C804 C809 1.371 . S
C805 H777 0.930 . S
C805 C804 1.358 . S
C805 C806 1.405 . S
C806 H778 0.932 . S
C806 C805 1.405 . S
C806 C807 1.383 . S
C807 C806 1.383 . S
C807 C808 1.393 . S
C808 H780 0.931 . S
C808 C807 1.393 . S
C808 C809 1.382 . S
C809 H779 0.929 . S
C809 C804 1.371 . S
C809 C808 1.382 . S
C810 N773 1.423 . S
C810 C811 1.362 . S
C810 C815 1.388 . S
C811 H781 0.929 . S
C811 C810 1.362 . S
C811 C812 1.376 . S
C812 H783 0.931 . S
C812 C811 1.376 . S
C812 C813 1.396 . S
C813 C812 1.396 . S
C813 C814 1.348 . S
C813 C831 1.472 . S
C814 H784 0.929 . S
C814 C813 1.348 . S
C814 C815 1.443 . S
C815 H782 0.932 . S
C815 C810 1.388 . S
C815 C814 1.443 . S
C816 N796 1.433 . S
C816 C817 1.363 . S
C816 C821 1.370 . S
C817 H785 0.929 . S
C817 C816 1.363 . S
C817 C818 1.385 . S
C818 H786 0.930 . S
C818 C817 1.385 . S
C818 C819 1.357 . S
C819 C818 1.357 . S
C819 C820 1.406 . S
C820 H787 0.929 . S
C820 C819 1.406 . S
C820 C821 1.391 . S
C821 H788 0.931 . S
C821 C816 1.370 . S
C821 C820 1.391 . S
C822 N796 1.435 . S
C822 C823 1.358 . S
C822 C827 1.371 . S
C823 H789 0.930 . S
C823 C822 1.358 . S
C823 C824 1.405 . S
C824 H790 0.932 . S
C824 C823 1.405 . S
C824 C825 1.383 . S
C825 C824 1.383 . S
C825 C826 1.393 . S
C826 H791 0.931 . S
C826 C825 1.393 . S
C826 C827 1.382 . S
C827 H792 0.929 . S
C827 C822 1.371 . S
C827 C826 1.382 . S
C828 N796 1.423 . S
C828 C829 1.362 . S
C828 C833 1.388 . S
C829 H793 0.929 . S
C829 C828 1.362 . S
C829 C830 1.376 . S
C830 H794 0.931 . S
C830 C829 1.376 . S
C830 C831 1.396 . S
C831 C813 1.472 . S
C831 C830 1.396 . S
C831 C832 1.348 . S
C832 H795 0.929 . S
C832 C831 1.348 . S
C832 C833 1.443 . S
C833 H797 0.932 . S
C833 C828 1.388 . S
C833 C832 1.443 . S
H834 C861 0.929 . S
N835 C860 1.433 . S
N835 C866 1.435 . S
N835 C872 1.423 . S
H836 C862 0.930 . S
H837 C865 0.931 . S
H838 C864 0.929 . S
H839 C867 0.930 . S
H840 C868 0.932 . S
H841 C871 0.929 . S
H842 C870 0.931 . S
H843 C873 0.929 . S
H844 C877 0.932 . S
H845 C874 0.931 . S
H846 C876 0.929 . S
H847 C879 0.929 . S
H848 C880 0.930 . S
H849 C882 0.929 . S
H850 C883 0.931 . S
H851 C885 0.930 . S
H852 C886 0.932 . S
H853 C888 0.931 . S
H854 C889 0.929 . S
H855 C891 0.929 . S
H856 C892 0.931 . S
H857 C894 0.929 . S
N858 C878 1.433 . S
N858 C884 1.435 . S
N858 C890 1.423 . S
H859 C895 0.932 . S
C860 N835 1.433 . S
C860 C861 1.363 . S
C860 C865 1.370 . S
C861 H834 0.929 . S
C861 C860 1.363 . S
C861 C862 1.385 . S
C862 H836 0.930 . S
C862 C861 1.385 . S
C862 C863 1.357 . S
C863 C862 1.357 . S
C863 C864 1.406 . S
C864 H838 0.929 . S
C864 C863 1.406 . S
C864 C865 1.391 . S
C865 H837 0.931 . S
C865 C860 1.370 . S
C865 C864 1.391 . S
C866 N835 1.435 . S
C866 C867 1.358 . S
C866 C871 1.371 . S
C867 H839 0.930 . S
C867 C866 1.358 . S
C867 C868 1.405 . S
C868 H840 0.932 . S
C868 C867 1.405 . S
C868 C869 1.383 . S
C869 C868 1.383 . S
C869 C870 1.393 . S
C870 H842 0.931 . S
C870 C869 1.393 . S
C870 C871 1.382 . S
C871 H841 0.929 . S
C871 C866 1.371 . S
C871 C870 1.382 . S
C872 N835 1.423 . S
C872 C873 1.362 . S
C872 C877 1.388 . S
C873 H843 0.929 . S
C873 C872 1.362 . S
C873 C874 1.376 . S
C874 H845 0.931 . S
C874 C873 1.376 . S
C874 C875 1.396 . S
C875 C874 1.396 . S
C875 C876 1.348 . S
C875 C893 1.472 . S
C876 H846 0.929 . S
C876 C875 1.348 . S
C876 C877 1.443 . S
C877 H844 0.932 . S
C877 C872 1.388 . S
C877 C876 1.443 . S
C878 N858 1.433 . S
C878 C879 1.363 . S
C878 C883 1.370 . S
C879 H847 0.929 . S
C879 C878 1.363 . S
C879 C880 1.385 . S
C880 H848 0.930 . S
C880 C879 1.385 . S
C880 C881 1.357 . S
C881 C880 1.357 . S
C881 C882 1.406 . S
C882 H849 0.929 . S
C882 C881 1.406 . S
C882 C883 1.391 . S
C883 H850 0.931 . S
C883 C878 1.370 . S
C883 C882 1.391 . S
C884 N858 1.435 . S
C884 C885 1.358 . S
C884 C889 1.371 . S
C885 H851 0.930 . S
C885 C884 1.358 . S
C885 C886 1.405 . S
C886 H852 0.932 . S
C886 C885 1.405 . S
C886 C887 1.383 . S
C887 C886 1.383 . S
C887 C888 1.393 . S
C888 H853 0.931 . S
C888 C887 1.393 . S
C888 C889 1.382 . S
C889 H854 0.929 . S
C889 C884 1.371 . S
C889 C888 1.382 . S
C890 N858 1.423 . S
C890 C891 1.362 . S
C890 C895 1.388 . S
C891 H855 0.929 . S
C891 C890 1.362 . S
C891 C892 1.376 . S
C892 H856 0.931 . S
C892 C891 1.376 . S
C892 C893 1.396 . S
C893 C875 1.472 . S
C893 C892 1.396 . S
C893 C894 1.348 . S
C894 H857 0.929 . S
C894 C893 1.348 . S
C894 C895 1.443 . S
C895 H859 0.932 . S
C895 C890 1.388 . S
C895 C894 1.443 . S
H896 C923 0.929 . S
N897 C922 1.433 . S
N897 C928 1.435 . S
N897 C934 1.423 . S
H898 C924 0.930 . S
H899 C927 0.931 . S
H900 C926 0.929 . S
H901 C929 0.930 . S
H902 C930 0.932 . S
H903 C933 0.929 . S
H904 C932 0.931 . S
H905 C935 0.929 . S
H906 C939 0.932 . S
H907 C936 0.931 . S
H908 C938 0.929 . S
H909 C941 0.929 . S
H910 C942 0.930 . S
H911 C944 0.929 . S
H912 C945 0.931 . S
H913 C947 0.930 . S
H914 C948 0.932 . S
H915 C950 0.931 . S
H916 C951 0.929 . S
H917 C953 0.929 . S
H918 C954 0.931 . S
H919 C956 0.929 . S
N920 C940 1.433 . S
N920 C946 1.435 . S
N920 C952 1.423 . S
H921 C957 0.932 . S
C922 N897 1.433 . S
C922 C923 1.363 . S
C922 C927 1.370 . S
C923 H896 0.929 . S
C923 C922 1.363 . S
C923 C924 1.385 . S
C924 H898 0.930 . S
C924 C923 1.385 . S
C924 C925 1.357 . S
C925 C924 1.357 . S
C925 C926 1.406 . S
C926 H900 0.929 . S
C926 C925 1.406 . S
C926 C927 1.391 . S
C927 H899 0.931 . S
C927 C922 1.370 . S
C927 C926 1.391 . S
C928 N897 1.435 . S
C928 C929 1.358 . S
C928 C933 1.371 . S
C929 H901 0.930 . S
C929 C928 1.358 . S
C929 C930 1.405 . S
C930 H902 0.932 . S
C930 C929 1.405 . S
C930 C931 1.383 . S
C931 C930 1.383 . S
C931 C932 1.393 . S
C932 H904 0.931 . S
C932 C931 1.393 . S
C932 C933 1.382 . S
C933 H903 0.929 . S
C933 C928 1.371 . S
C933 C932 1.382 . S
C934 N897 1.423 . S
C934 C935 1.362 . S
C934 C939 1.388 . S
C935 H905 0.929 . S
C935 C934 1.362 . S
C935 C936 1.376 . S
C936 H907 0.931 . S
C936 C935 1.376 . S
C936 C937 1.396 . S
C937 C936 1.396 . S
C937 C938 1.348 . S
C937 C955 1.472 . S
C938 H908 0.929 . S
C938 C937 1.348 . S
C938 C939 1.443 . S
C939 H906 0.932 . S
C939 C934 1.388 . S
C939 C938 1.443 . S
C940 N920 1.433 . S
C940 C941 1.363 . S
C940 C945 1.370 . S
C941 H909 0.929 . S
C941 C940 1.363 . S
C941 C942 1.385 . S
C942 H910 0.930 . S
C942 C941 1.385 . S
C942 C943 1.357 . S
C943 C942 1.357 . S
C943 C944 1.406 . S
C944 H911 0.929 . S
C944 C943 1.406 . S
C944 C945 1.391 . S
C945 H912 0.931 . S
C945 C940 1.370 . S
C945 C944 1.391 . S
C946 N920 1.435 . S
C946 C947 1.358 . S
C946 C951 1.371 . S
C947 H913 0.930 . S
C947 C946 1.358 . S
C947 C948 1.405 . S
C948 H914 0.932 . S
C948 C947 1.405 . S
C948 C949 1.383 . S
C949 C948 1.383 . S
C949 C950 1.393 . S
C950 H915 0.931 . S
C950 C949 1.393 . S
C950 C951 1.382 . S
C951 H916 0.929 . S
C951 C946 1.371 . S
C951 C950 1.382 . S
C952 N920 1.423 . S
C952 C953 1.362 . S
C952 C957 1.388 . S
C953 H917 0.929 . S
C953 C952 1.362 . S
C953 C954 1.376 . S
C954 H918 0.931 . S
C954 C953 1.376 . S
C954 C955 1.396 . S
C955 C937 1.472 . S
C955 C954 1.396 . S
C955 C956 1.348 . S
C956 H919 0.929 . S
C956 C955 1.348 . S
C956 C957 1.443 . S
C957 H921 0.932 . S
C957 C952 1.388 . S
C957 C956 1.443 . S
H958 C985 0.929 . S
N959 C984 1.433 . S
N959 C990 1.435 . S
N959 C996 1.423 . S
H960 C986 0.930 . S
H961 C989 0.931 . S
H962 C988 0.929 . S
H963 C991 0.930 . S
H964 C992 0.932 . S
H965 C995 0.929 . S
H966 C994 0.931 . S
H967 C997 0.929 . S
H968 C1001 0.932 . S
H969 C998 0.931 . S
H970 C1000 0.929 . S
H971 C1003 0.929 . S
H972 C1004 0.930 . S
H973 C1006 0.929 . S
H974 C1007 0.931 . S
H975 C1009 0.930 . S
H976 C1010 0.932 . S
H977 C1012 0.931 . S
H978 C1013 0.929 . S
H979 C1015 0.929 . S
H980 C1016 0.931 . S
H981 C1018 0.929 . S
N982 C1002 1.433 . S
N982 C1008 1.435 . S
N982 C1014 1.423 . S
H983 C1019 0.932 . S
C984 N959 1.433 . S
C984 C985 1.363 . S
C984 C989 1.370 . S
C985 H958 0.929 . S
C985 C984 1.363 . S
C985 C986 1.385 . S
C986 H960 0.930 . S
C986 C985 1.385 . S
C986 C987 1.357 . S
C987 C986 1.357 . S
C987 C988 1.406 . S
C988 H962 0.929 . S
C988 C987 1.406 . S
C988 C989 1.391 . S
C989 H961 0.931 . S
C989 C984 1.370 . S
C989 C988 1.391 . S
C990 N959 1.435 . S
C990 C991 1.358 . S
C990 C995 1.371 . S
C991 H963 0.930 . S
C991 C990 1.358 . S
C991 C992 1.405 . S
C992 H964 0.932 . S
C992 C991 1.405 . S
C992 C993 1.383 . S
C993 C992 1.383 . S
C993 C994 1.393 . S
C994 H966 0.931 . S
C994 C993 1.393 . S
C994 C995 1.382 . S
C995 H965 0.929 . S
C995 C990 1.371 . S
C995 C994 1.382 . S
C996 N959 1.423 . S
C996 C997 1.362 . S
C996 C1001 1.388 . S
C997 H967 0.929 . S
C997 C996 1.362 . S
C997 C998 1.376 . S
C998 H969 0.931 . S
C998 C997 1.376 . S
C998 C999 1.396 . S
C999 C998 1.396 . S
C999 C1000 1.348 . S
C999 C1017 1.472 . S
C1000 H970 0.929 . S
C1000 C999 1.348 . S
C1000 C1001 1.443 . S
C1001 H968 0.932 . S
C1001 C996 1.388 . S
C1001 C1000 1.443 . S
C1002 N982 1.433 . S
C1002 C1003 1.363 . S
C1002 C1007 1.370 . S
C1003 H971 0.929 . S
C1003 C1002 1.363 . S
C1003 C1004 1.385 . S
C1004 H972 0.930 . S
C1004 C1003 1.385 . S
C1004 C1005 1.357 . S
C1005 C1004 1.357 . S
C1005 C1006 1.406 . S
C1006 H973 0.929 . S
C1006 C1005 1.406 . S
C1006 C1007 1.391 . S
C1007 H974 0.931 . S
C1007 C1002 1.370 . S
C1007 C1006 1.391 . S
C1008 N982 1.435 . S
C1008 C1009 1.358 . S
C1008 C1013 1.371 . S
C1009 H975 0.930 . S
C1009 C1008 1.358 . S
C1009 C1010 1.405 . S
C1010 H976 0.932 . S
C1010 C1009 1.405 . S
C1010 C1011 1.383 . S
C1011 C1010 1.383 . S
C1011 C1012 1.393 . S
C1012 H977 0.931 . S
C1012 C1011 1.393 . S
C1012 C1013 1.382 . S
C1013 H978 0.929 . S
C1013 C1008 1.371 . S
C1013 C1012 1.382 . S
C1014 N982 1.423 . S
C1014 C1015 1.362 . S
C1014 C1019 1.388 . S
C1015 H979 0.929 . S
C1015 C1014 1.362 . S
C1015 C1016 1.376 . S
C1016 H980 0.931 . S
C1016 C1015 1.376 . S
C1016 C1017 1.396 . S
C1017 C999 1.472 . S
C1017 C1016 1.396 . S
C1017 C1018 1.348 . S
C1018 H981 0.929 . S
C1018 C1017 1.348 . S
C1018 C1019 1.443 . S
C1019 H983 0.932 . S
C1019 C1014 1.388 . S
C1019 C1018 1.443 . S
H1020 C1047 0.929 . S
N1021 C1046 1.433 . S
N1021 C1052 1.435 . S
N1021 C1058 1.423 . S
H1022 C1048 0.930 . S
H1023 C1051 0.931 . S
H1024 C1050 0.929 . S
H1025 C1053 0.930 . S
H1026 C1054 0.932 . S
H1027 C1057 0.929 . S
H1028 C1056 0.931 . S
H1029 C1059 0.929 . S
H1030 C1063 0.932 . S
H1031 C1060 0.931 . S
H1032 C1062 0.929 . S
H1033 C1065 0.929 . S
H1034 C1066 0.930 . S
H1035 C1068 0.929 . S
H1036 C1069 0.931 . S
H1037 C1071 0.930 . S
H1038 C1072 0.932 . S
H1039 C1074 0.931 . S
H1040 C1075 0.929 . S
H1041 C1077 0.929 . S
H1042 C1078 0.931 . S
H1043 C1080 0.929 . S
N1044 C1064 1.433 . S
N1044 C1070 1.435 . S
N1044 C1076 1.423 . S
H1045 C1081 0.932 . S
C1046 N1021 1.433 . S
C1046 C1047 1.363 . S
C1046 C1051 1.370 . S
C1047 H1020 0.929 . S
C1047 C1046 1.363 . S
C1047 C1048 1.385 . S
C1048 H1022 0.930 . S
C1048 C1047 1.385 . S
C1048 C1049 1.357 . S
C1049 C1048 1.357 . S
C1049 C1050 1.406 . S
C1050 H1024 0.929 . S
C1050 C1049 1.406 . S
C1050 C1051 1.391 . S
C1051 H1023 0.931 . S
C1051 C1046 1.370 . S
C1051 C1050 1.391 . S
C1052 N1021 1.435 . S
C1052 C1053 1.358 . S
C1052 C1057 1.371 . S
C1053 H1025 0.930 . S
C1053 C1052 1.358 . S
C1053 C1054 1.405 . S
C1054 H1026 0.932 . S
C1054 C1053 1.405 . S
C1054 C1055 1.383 . S
C1055 C1054 1.383 . S
C1055 C1056 1.393 . S
C1056 H1028 0.931 . S
C1056 C1055 1.393 . S
C1056 C1057 1.382 . S
C1057 H1027 0.929 . S
C1057 C1052 1.371 . S
C1057 C1056 1.382 . S
C1058 N1021 1.423 . S
C1058 C1059 1.362 . S
C1058 C1063 1.388 . S
C1059 H1029 0.929 . S
C1059 C1058 1.362 . S
C1059 C1060 1.376 . S
C1060 H1031 0.931 . S
C1060 C1059 1.376 . S
C1060 C1061 1.396 . S
C1061 C1060 1.396 . S
C1061 C1062 1.348 . S
C1061 C1079 1.472 . S
C1062 H1032 0.929 . S
C1062 C1061 1.348 . S
C1062 C1063 1.443 . S
C1063 H1030 0.932 . S
C1063 C1058 1.388 . S
C1063 C1062 1.443 . S
C1064 N1044 1.433 . S
C1064 C1065 1.363 . S
C1064 C1069 1.370 . S
C1065 H1033 0.929 . S
C1065 C1064 1.363 . S
C1065 C1066 1.385 . S
C1066 H1034 0.930 . S
C1066 C1065 1.385 . S
C1066 C1067 1.357 . S
C1067 C1066 1.357 . S
C1067 C1068 1.406 . S
C1068 H1035 0.929 . S
C1068 C1067 1.406 . S
C1068 C1069 1.391 . S
C1069 H1036 0.931 . S
C1069 C1064 1.370 . S
C1069 C1068 1.391 . S
C1070 N1044 1.435 . S
C1070 C1071 1.358 . S
C1070 C1075 1.371 . S
C1071 H1037 0.930 . S
C1071 C1070 1.358 . S
C1071 C1072 1.405 . S
C1072 H1038 0.932 . S
C1072 C1071 1.405 . S
C1072 C1073 1.383 . S
C1073 C1072 1.383 . S
C1073 C1074 1.393 . S
C1074 H1039 0.931 . S
C1074 C1073 1.393 . S
C1074 C1075 1.382 . S
C1075 H1040 0.929 . S
C1075 C1070 1.371 . S
C1075 C1074 1.382 . S
C1076 N1044 1.423 . S
C1076 C1077 1.362 . S
C1076 C1081 1.388 . S
C1077 H1041 0.929 . S
C1077 C1076 1.362 . S
C1077 C1078 1.376 . S
C1078 H1042 0.931 . S
C1078 C1077 1.376 . S
C1078 C1079 1.396 . S
C1079 C1061 1.472 . S
C1079 C1078 1.396 . S
C1079 C1080 1.348 . S
C1080 H1043 0.929 . S
C1080 C1079 1.348 . S
C1080 C1081 1.443 . S
C1081 H1045 0.932 . S
C1081 C1076 1.388 . S
C1081 C1080 1.443 . S
H1082 C1109 0.929 . S
N1083 C1108 1.433 . S
N1083 C1114 1.435 . S
N1083 C1120 1.423 . S
H1084 C1110 0.930 . S
H1085 C1113 0.931 . S
H1086 C1112 0.929 . S
H1087 C1115 0.930 . S
H1088 C1116 0.932 . S
H1089 C1119 0.929 . S
H1090 C1118 0.931 . S
H1091 C1121 0.929 . S
H1092 C1125 0.932 . S
H1093 C1122 0.931 . S
H1094 C1124 0.929 . S
H1095 C1127 0.929 . S
H1096 C1128 0.930 . S
H1097 C1130 0.929 . S
H1098 C1131 0.931 . S
H1099 C1133 0.930 . S
H1100 C1134 0.932 . S
H1101 C1136 0.931 . S
H1102 C1137 0.929 . S
H1103 C1139 0.929 . S
H1104 C1140 0.931 . S
H1105 C1142 0.929 . S
N1106 C1126 1.433 . S
N1106 C1132 1.435 . S
N1106 C1138 1.423 . S
H1107 C1143 0.932 . S
C1108 N1083 1.433 . S
C1108 C1109 1.363 . S
C1108 C1113 1.370 . S
C1109 H1082 0.929 . S
C1109 C1108 1.363 . S
C1109 C1110 1.385 . S
C1110 H1084 0.930 . S
C1110 C1109 1.385 . S
C1110 C1111 1.357 . S
C1111 C1110 1.357 . S
C1111 C1112 1.406 . S
C1112 H1086 0.929 . S
C1112 C1111 1.406 . S
C1112 C1113 1.391 . S
C1113 H1085 0.931 . S
C1113 C1108 1.370 . S
C1113 C1112 1.391 . S
C1114 N1083 1.435 . S
C1114 C1115 1.358 . S
C1114 C1119 1.371 . S
C1115 H1087 0.930 . S
C1115 C1114 1.358 . S
C1115 C1116 1.405 . S
C1116 H1088 0.932 . S
C1116 C1115 1.405 . S
C1116 C1117 1.383 . S
C1117 C1116 1.383 . S
C1117 C1118 1.393 . S
C1118 H1090 0.931 . S
C1118 C1117 1.393 . S
C1118 C1119 1.382 . S
C1119 H1089 0.929 . S
C1119 C1114 1.371 . S
C1119 C1118 1.382 . S
C1120 N1083 1.423 . S
C1120 C1121 1.362 . S
C1120 C1125 1.388 . S
C1121 H1091 0.929 . S
C1121 C1120 1.362 . S
C1121 C1122 1.376 . S
C1122 H1093 0.931 . S
C1122 C1121 1.376 . S
C1122 C1123 1.396 . S
C1123 C1122 1.396 . S
C1123 C1124 1.348 . S
C1123 C1141 1.472 . S
C1124 H1094 0.929 . S
C1124 C1123 1.348 . S
C1124 C1125 1.443 . S
C1125 H1092 0.932 . S
C1125 C1120 1.388 . S
C1125 C1124 1.443 . S
C1126 N1106 1.433 . S
C1126 C1127 1.363 . S
C1126 C1131 1.370 . S
C1127 H1095 0.929 . S
C1127 C1126 1.363 . S
C1127 C1128 1.385 . S
C1128 H1096 0.930 . S
C1128 C1127 1.385 . S
C1128 C1129 1.357 . S
C1129 C1128 1.357 . S
C1129 C1130 1.406 . S
C1130 H1097 0.929 . S
C1130 C1129 1.406 . S
C1130 C1131 1.391 . S
C1131 H1098 0.931 . S
C1131 C1126 1.370 . S
C1131 C1130 1.391 . S
C1132 N1106 1.435 . S
C1132 C1133 1.358 . S
C1132 C1137 1.371 . S
C1133 H1099 0.930 . S
C1133 C1132 1.358 . S
C1133 C1134 1.405 . S
C1134 H1100 0.932 . S
C1134 C1133 1.405 . S
C1134 C1135 1.383 . S
C1135 C1134 1.383 . S
C1135 C1136 1.393 . S
C1136 H1101 0.931 . S
C1136 C1135 1.393 . S
C1136 C1137 1.382 . S
C1137 H1102 0.929 . S
C1137 C1132 1.371 . S
C1137 C1136 1.382 . S
C1138 N1106 1.423 . S
C1138 C1139 1.362 . S
C1138 C1143 1.388 . S
C1139 H1103 0.929 . S
C1139 C1138 1.362 . S
C1139 C1140 1.376 . S
C1140 H1104 0.931 . S
C1140 C1139 1.376 . S
C1140 C1141 1.396 . S
C1141 C1123 1.472 . S
C1141 C1140 1.396 . S
C1141 C1142 1.348 . S
C1142 H1105 0.929 . S
C1142 C1141 1.348 . S
C1142 C1143 1.443 . S
C1143 H1107 0.932 . S
C1143 C1138 1.388 . S
C1143 C1142 1.443 . S
H1144 C1171 0.929 . S
N1145 C1170 1.433 . S
N1145 C1176 1.435 . S
N1145 C1182 1.423 . S
H1146 C1172 0.930 . S
H1147 C1175 0.931 . S
H1148 C1174 0.929 . S
H1149 C1177 0.930 . S
H1150 C1178 0.932 . S
H1151 C1181 0.929 . S
H1152 C1180 0.931 . S
H1153 C1183 0.929 . S
H1154 C1187 0.932 . S
H1155 C1184 0.931 . S
H1156 C1186 0.929 . S
H1157 C1189 0.929 . S
H1158 C1190 0.930 . S
H1159 C1192 0.929 . S
H1160 C1193 0.931 . S
H1161 C1195 0.930 . S
H1162 C1196 0.932 . S
H1163 C1198 0.931 . S
H1164 C1199 0.929 . S
H1165 C1201 0.929 . S
H1166 C1202 0.931 . S
H1167 C1204 0.929 . S
N1168 C1188 1.433 . S
N1168 C1194 1.435 . S
N1168 C1200 1.423 . S
H1169 C1205 0.932 . S
C1170 N1145 1.433 . S
C1170 C1171 1.363 . S
C1170 C1175 1.370 . S
C1171 H1144 0.929 . S
C1171 C1170 1.363 . S
C1171 C1172 1.385 . S
C1172 H1146 0.930 . S
C1172 C1171 1.385 . S
C1172 C1173 1.357 . S
C1173 C1172 1.357 . S
C1173 C1174 1.406 . S
C1174 H1148 0.929 . S
C1174 C1173 1.406 . S
C1174 C1175 1.391 . S
C1175 H1147 0.931 . S
C1175 C1170 1.370 . S
C1175 C1174 1.391 . S
C1176 N1145 1.435 . S
C1176 C1177 1.358 . S
C1176 C1181 1.371 . S
C1177 H1149 0.930 . S
C1177 C1176 1.358 . S
C1177 C1178 1.405 . S
C1178 H1150 0.932 . S
C1178 C1177 1.405 . S
C1178 C1179 1.383 . S
C1179 C1178 1.383 . S
C1179 C1180 1.393 . S
C1180 H1152 0.931 . S
C1180 C1179 1.393 . S
C1180 C1181 1.382 . S
C1181 H1151 0.929 . S
C1181 C1176 1.371 . S
C1181 C1180 1.382 . S
C1182 N1145 1.423 . S
C1182 C1183 1.362 . S
C1182 C1187 1.388 . S
C1183 H1153 0.929 . S
C1183 C1182 1.362 . S
C1183 C1184 1.376 . S
C1184 H1155 0.931 . S
C1184 C1183 1.376 . S
C1184 C1185 1.396 . S
C1185 C1184 1.396 . S
C1185 C1186 1.348 . S
C1185 C1203 1.472 . S
C1186 H1156 0.929 . S
C1186 C1185 1.348 . S
C1186 C1187 1.443 . S
C1187 H1154 0.932 . S
C1187 C1182 1.388 . S
C1187 C1186 1.443 . S
C1188 N1168 1.433 . S
C1188 C1189 1.363 . S
C1188 C1193 1.370 . S
C1189 H1157 0.929 . S
C1189 C1188 1.363 . S
C1189 C1190 1.385 . S
C1190 H1158 0.930 . S
C1190 C1189 1.385 . S
C1190 C1191 1.357 . S
C1191 C1190 1.357 . S
C1191 C1192 1.406 . S
C1192 H1159 0.929 . S
C1192 C1191 1.406 . S
C1192 C1193 1.391 . S
C1193 H1160 0.931 . S
C1193 C1188 1.370 . S
C1193 C1192 1.391 . S
C1194 N1168 1.435 . S
C1194 C1195 1.358 . S
C1194 C1199 1.371 . S
C1195 H1161 0.930 . S
C1195 C1194 1.358 . S
C1195 C1196 1.405 . S
C1196 H1162 0.932 . S
C1196 C1195 1.405 . S
C1196 C1197 1.383 . S
C1197 C1196 1.383 . S
C1197 C1198 1.393 . S
C1198 H1163 0.931 . S
C1198 C1197 1.393 . S
C1198 C1199 1.382 . S
C1199 H1164 0.929 . S
C1199 C1194 1.371 . S
C1199 C1198 1.382 . S
C1200 N1168 1.423 . S
C1200 C1201 1.362 . S
C1200 C1205 1.388 . S
C1201 H1165 0.929 . S
C1201 C1200 1.362 . S
C1201 C1202 1.376 . S
C1202 H1166 0.931 . S
C1202 C1201 1.376 . S
C1202 C1203 1.396 . S
C1203 C1185 1.472 . S
C1203 C1202 1.396 . S
C1203 C1204 1.348 . S
C1204 H1167 0.929 . S
C1204 C1203 1.348 . S
C1204 C1205 1.443 . S
C1205 H1169 0.932 . S
C1205 C1200 1.388 . S
C1205 C1204 1.443 . S
H1206 C1233 0.929 . S
N1207 C1232 1.433 . S
N1207 C1238 1.435 . S
N1207 C1244 1.423 . S
H1208 C1234 0.930 . S
H1209 C1237 0.931 . S
H1210 C1236 0.929 . S
H1211 C1239 0.930 . S
H1212 C1240 0.932 . S
H1213 C1243 0.929 . S
H1214 C1242 0.931 . S
H1215 C1245 0.929 . S
H1216 C1249 0.932 1_655 S
H1217 C1246 0.931 . S
H1218 C1248 0.929 . S
H1219 C1251 0.929 . S
H1220 C1252 0.930 . S
H1221 C1254 0.929 . S
H1222 C1255 0.931 . S
H1223 C1257 0.930 . S
H1224 C1258 0.932 . S
H1225 C1260 0.931 . S
H1226 C1261 0.929 . S
H1227 C1263 0.929 . S
H1228 C1264 0.931 . S
H1229 C1266 0.929 . S
N1230 C1250 1.433 . S
N1230 C1256 1.435 . S
N1230 C1262 1.423 . S
H1231 C1267 0.932 1_655 S
C1232 N1207 1.433 . S
C1232 C1233 1.363 . S
C1232 C1237 1.370 1_455 S
C1233 H1206 0.929 . S
C1233 C1232 1.363 . S
C1233 C1234 1.385 . S
C1234 H1208 0.930 . S
C1234 C1233 1.385 . S
C1234 C1235 1.357 1_455 S
C1235 C1234 1.357 1_655 S
C1235 C1236 1.406 . S
C1236 H1210 0.929 . S
C1236 C1235 1.406 . S
C1236 C1237 1.391 . S
C1237 H1209 0.931 . S
C1237 C1232 1.370 1_655 S
C1237 C1236 1.391 . S
C1238 N1207 1.435 . S
C1238 C1239 1.358 1_455 S
C1238 C1243 1.371 . S
C1239 H1211 0.930 . S
C1239 C1238 1.358 1_655 S
C1239 C1240 1.405 . S
C1240 H1212 0.932 . S
C1240 C1239 1.405 . S
C1240 C1241 1.383 1_655 S
C1241 C1240 1.383 1_455 S
C1241 C1242 1.393 . S
C1242 H1214 0.931 . S
C1242 C1241 1.393 . S
C1242 C1243 1.382 . S
C1243 H1213 0.929 . S
C1243 C1238 1.371 . S
C1243 C1242 1.382 . S
C1244 N1207 1.423 . S
C1244 C1245 1.362 . S
C1244 C1249 1.388 . S
C1245 H1215 0.929 . S
C1245 C1244 1.362 . S
C1245 C1246 1.376 . S
C1246 H1217 0.931 . S
C1246 C1245 1.376 . S
C1246 C1247 1.396 . S
C1247 C1246 1.396 . S
C1247 C1248 1.348 . S
C1247 C1265 1.472 . S
C1248 H1218 0.929 . S
C1248 C1247 1.348 . S
C1248 C1249 1.443 . S
C1249 H1216 0.932 1_455 S
C1249 C1244 1.388 . S
C1249 C1248 1.443 . S
C1250 N1230 1.433 . S
C1250 C1251 1.363 . S
C1250 C1255 1.370 1_455 S
C1251 H1219 0.929 . S
C1251 C1250 1.363 . S
C1251 C1252 1.385 . S
C1252 H1220 0.930 . S
C1252 C1251 1.385 . S
C1252 C1253 1.357 1_455 S
C1253 C1252 1.357 1_655 S
C1253 C1254 1.406 . S
C1254 H1221 0.929 . S
C1254 C1253 1.406 . S
C1254 C1255 1.391 . S
C1255 H1222 0.931 . S
C1255 C1250 1.370 1_655 S
C1255 C1254 1.391 . S
C1256 N1230 1.435 . S
C1256 C1257 1.358 1_455 S
C1256 C1261 1.371 . S
C1257 H1223 0.930 . S
C1257 C1256 1.358 1_655 S
C1257 C1258 1.405 . S
C1258 H1224 0.932 . S
C1258 C1257 1.405 . S
C1258 C1259 1.383 1_655 S
C1259 C1258 1.383 1_455 S
C1259 C1260 1.393 . S
C1260 H1225 0.931 . S
C1260 C1259 1.393 . S
C1260 C1261 1.382 . S
C1261 H1226 0.929 . S
C1261 C1256 1.371 . S
C1261 C1260 1.382 . S
C1262 N1230 1.423 . S
C1262 C1263 1.362 . S
C1262 C1267 1.388 . S
C1263 H1227 0.929 . S
C1263 C1262 1.362 . S
C1263 C1264 1.376 . S
C1264 H1228 0.931 . S
C1264 C1263 1.376 . S
C1264 C1265 1.396 . S
C1265 C1247 1.472 . S
C1265 C1264 1.396 . S
C1265 C1266 1.348 . S
C1266 H1229 0.929 . S
C1266 C1265 1.348 . S
C1266 C1267 1.443 . S
C1267 H1231 0.932 1_455 S
C1267 C1262 1.388 . S
C1267 C1266 1.443 . S
H1268 C1295 0.929 . S
N1269 C1294 1.433 . S
N1269 C1300 1.435 . S
N1269 C1306 1.423 . S
H1270 C1296 0.930 . S
H1271 C1299 0.931 . S
H1272 C1298 0.929 . S
H1273 C1301 0.930 . S
H1274 C1302 0.932 . S
H1275 C1305 0.929 . S
H1276 C1304 0.931 . S
H1277 C1307 0.929 . S
H1278 C1311 0.932 . S
H1279 C1308 0.931 . S
H1280 C1310 0.929 . S
H1281 C1313 0.929 . S
H1282 C1314 0.930 . S
H1283 C1316 0.929 . S
H1284 C1317 0.931 . S
H1285 C1319 0.930 . S
H1286 C1320 0.932 . S
H1287 C1322 0.931 . S
H1288 C1323 0.929 . S
H1289 C1325 0.929 . S
H1290 C1326 0.931 . S
H1291 C1328 0.929 . S
N1292 C1312 1.433 . S
N1292 C1318 1.435 . S
N1292 C1324 1.423 . S
H1293 C1329 0.932 . S
C1294 N1269 1.433 . S
C1294 C1295 1.363 . S
C1294 C1299 1.370 . S
C1295 H1268 0.929 . S
C1295 C1294 1.363 . S
C1295 C1296 1.385 . S
C1296 H1270 0.930 . S
C1296 C1295 1.385 . S
C1296 C1297 1.357 . S
C1297 C1296 1.357 . S
C1297 C1298 1.406 . S
C1298 H1272 0.929 . S
C1298 C1297 1.406 . S
C1298 C1299 1.391 . S
C1299 H1271 0.931 . S
C1299 C1294 1.370 . S
C1299 C1298 1.391 . S
C1300 N1269 1.435 . S
C1300 C1301 1.358 . S
C1300 C1305 1.371 . S
C1301 H1273 0.930 . S
C1301 C1300 1.358 . S
C1301 C1302 1.405 . S
C1302 H1274 0.932 . S
C1302 C1301 1.405 . S
C1302 C1303 1.383 . S
C1303 C1302 1.383 . S
C1303 C1304 1.393 . S
C1304 H1276 0.931 . S
C1304 C1303 1.393 . S
C1304 C1305 1.382 . S
C1305 H1275 0.929 . S
C1305 C1300 1.371 . S
C1305 C1304 1.382 . S
C1306 N1269 1.423 . S
C1306 C1307 1.362 . S
C1306 C1311 1.388 . S
C1307 H1277 0.929 . S
C1307 C1306 1.362 . S
C1307 C1308 1.376 . S
C1308 H1279 0.931 . S
C1308 C1307 1.376 . S
C1308 C1309 1.396 . S
C1309 C1308 1.396 . S
C1309 C1310 1.348 . S
C1309 C1327 1.472 . S
C1310 H1280 0.929 . S
C1310 C1309 1.348 . S
C1310 C1311 1.443 . S
C1311 H1278 0.932 . S
C1311 C1306 1.388 . S
C1311 C1310 1.443 . S
C1312 N1292 1.433 . S
C1312 C1313 1.363 . S
C1312 C1317 1.370 . S
C1313 H1281 0.929 . S
C1313 C1312 1.363 . S
C1313 C1314 1.385 . S
C1314 H1282 0.930 . S
C1314 C1313 1.385 . S
C1314 C1315 1.357 . S
C1315 C1314 1.357 . S
C1315 C1316 1.406 . S
C1316 H1283 0.929 . S
C1316 C1315 1.406 . S
C1316 C1317 1.391 . S
C1317 H1284 0.931 . S
C1317 C1312 1.370 . S
C1317 C1316 1.391 . S
C1318 N1292 1.435 . S
C1318 C1319 1.358 . S
C1318 C1323 1.371 . S
C1319 H1285 0.930 . S
C1319 C1318 1.358 . S
C1319 C1320 1.405 . S
C1320 H1286 0.932 . S
C1320 C1319 1.405 . S
C1320 C1321 1.383 . S
C1321 C1320 1.383 . S
C1321 C1322 1.393 . S
C1322 H1287 0.931 . S
C1322 C1321 1.393 . S
C1322 C1323 1.382 . S
C1323 H1288 0.929 . S
C1323 C1318 1.371 . S
C1323 C1322 1.382 . S
C1324 N1292 1.423 . S
C1324 C1325 1.362 . S
C1324 C1329 1.388 . S
C1325 H1289 0.929 . S
C1325 C1324 1.362 . S
C1325 C1326 1.376 . S
C1326 H1290 0.931 . S
C1326 C1325 1.376 . S
C1326 C1327 1.396 . S
C1327 C1309 1.472 . S
C1327 C1326 1.396 . S
C1327 C1328 1.348 . S
C1328 H1291 0.929 . S
C1328 C1327 1.348 . S
C1328 C1329 1.443 . S
C1329 H1293 0.932 . S
C1329 C1324 1.388 . S
C1329 C1328 1.443 . S
H1330 C1357 0.929 . S
N1331 C1356 1.433 . S
N1331 C1362 1.435 . S
N1331 C1368 1.423 . S
H1332 C1358 0.930 . S
H1333 C1361 0.931 . S
H1334 C1360 0.929 . S
H1335 C1363 0.930 . S
H1336 C1364 0.932 . S
H1337 C1367 0.929 . S
H1338 C1366 0.931 . S
H1339 C1369 0.929 . S
H1340 C1373 0.932 1_545 S
H1341 C1370 0.931 . S
H1342 C1372 0.929 . S
H1343 C1375 0.929 . S
H1344 C1376 0.930 . S
H1345 C1378 0.929 . S
H1346 C1379 0.931 . S
H1347 C1381 0.930 . S
H1348 C1382 0.932 . S
H1349 C1384 0.931 . S
H1350 C1385 0.929 . S
H1351 C1387 0.929 . S
H1352 C1388 0.931 . S
H1353 C1390 0.929 . S
N1354 C1374 1.433 . S
N1354 C1380 1.435 . S
N1354 C1386 1.423 . S
H1355 C1391 0.932 1_545 S
C1356 N1331 1.433 . S
C1356 C1357 1.363 . S
C1356 C1361 1.370 1_565 S
C1357 H1330 0.929 . S
C1357 C1356 1.363 . S
C1357 C1358 1.385 . S
C1358 H1332 0.930 . S
C1358 C1357 1.385 . S
C1358 C1359 1.357 1_565 S
C1359 C1358 1.357 1_545 S
C1359 C1360 1.406 . S
C1360 H1334 0.929 . S
C1360 C1359 1.406 . S
C1360 C1361 1.391 . S
C1361 H1333 0.931 . S
C1361 C1356 1.370 1_545 S
C1361 C1360 1.391 . S
C1362 N1331 1.435 . S
C1362 C1363 1.358 1_565 S
C1362 C1367 1.371 . S
C1363 H1335 0.930 . S
C1363 C1362 1.358 1_545 S
C1363 C1364 1.405 . S
C1364 H1336 0.932 . S
C1364 C1363 1.405 . S
C1364 C1365 1.383 1_545 S
C1365 C1364 1.383 1_565 S
C1365 C1366 1.393 . S
C1366 H1338 0.931 . S
C1366 C1365 1.393 . S
C1366 C1367 1.382 . S
C1367 H1337 0.929 . S
C1367 C1362 1.371 . S
C1367 C1366 1.382 . S
C1368 N1331 1.423 . S
C1368 C1369 1.362 . S
C1368 C1373 1.388 . S
C1369 H1339 0.929 . S
C1369 C1368 1.362 . S
C1369 C1370 1.376 . S
C1370 H1341 0.931 . S
C1370 C1369 1.376 . S
C1370 C1371 1.396 . S
C1371 C1370 1.396 . S
C1371 C1372 1.348 . S
C1371 C1389 1.472 . S
C1372 H1342 0.929 . S
C1372 C1371 1.348 . S
C1372 C1373 1.443 . S
C1373 H1340 0.932 1_565 S
C1373 C1368 1.388 . S
C1373 C1372 1.443 . S
C1374 N1354 1.433 . S
C1374 C1375 1.363 . S
C1374 C1379 1.370 1_565 S
C1375 H1343 0.929 . S
C1375 C1374 1.363 . S
C1375 C1376 1.385 . S
C1376 H1344 0.930 . S
C1376 C1375 1.385 . S
C1376 C1377 1.357 1_565 S
C1377 C1376 1.357 1_545 S
C1377 C1378 1.406 . S
C1378 H1345 0.929 . S
C1378 C1377 1.406 . S
C1378 C1379 1.391 . S
C1379 H1346 0.931 . S
C1379 C1374 1.370 1_545 S
C1379 C1378 1.391 . S
C1380 N1354 1.435 . S
C1380 C1381 1.358 1_565 S
C1380 C1385 1.371 . S
C1381 H1347 0.930 . S
C1381 C1380 1.358 1_545 S
C1381 C1382 1.405 . S
C1382 H1348 0.932 . S
C1382 C1381 1.405 . S
C1382 C1383 1.383 1_545 S
C1383 C1382 1.383 1_565 S
C1383 C1384 1.393 . S
C1384 H1349 0.931 . S
C1384 C1383 1.393 . S
C1384 C1385 1.382 . S
C1385 H1350 0.929 . S
C1385 C1380 1.371 . S
C1385 C1384 1.382 . S
C1386 N1354 1.423 . S
C1386 C1387 1.362 . S
C1386 C1391 1.388 . S
C1387 H1351 0.929 . S
C1387 C1386 1.362 . S
C1387 C1388 1.376 . S
C1388 H1352 0.931 . S
C1388 C1387 1.376 . S
C1388 C1389 1.396 . S
C1389 C1371 1.472 . S
C1389 C1388 1.396 . S
C1389 C1390 1.348 . S
C1390 H1353 0.929 . S
C1390 C1389 1.348 . S
C1390 C1391 1.443 . S
C1391 H1355 0.932 1_565 S
C1391 C1386 1.388 . S
C1391 C1390 1.443 . S
H1392 C1419 0.929 . S
N1393 C1418 1.433 . S
N1393 C1424 1.435 . S
N1393 C1430 1.423 . S
H1394 C1420 0.930 . S
H1395 C1423 0.930 . S
H1396 C1422 0.929 . S
H1397 C1425 0.930 . S
H1398 C1426 0.932 . S
H1399 C1429 0.929 . S
H1400 C1428 0.931 . S
H1401 C1431 0.929 . S
H1402 C1435 0.932 . S
H1403 C1432 0.931 . S
H1404 C1434 0.917 1_545 S
H1405 C1437 0.929 . S
H1406 C1438 0.930 . S
H1407 C1440 0.929 . S
H1408 C1441 0.931 . S
H1409 C1443 0.930 . S
H1410 C1444 0.932 . S
H1411 C1446 0.931 . S
H1412 C1447 0.929 . S
H1413 C1449 0.929 . S
H1414 C1450 0.931 . S
H1415 C1452 0.891 1_545 S
N1416 C1436 1.433 . S
N1416 C1442 1.435 . S
N1416 C1448 1.423 . S
H1417 C1453 0.932 . S
C1418 N1393 1.433 . S
C1418 C1419 1.363 . S
C1418 C1423 1.361 1_565 S
C1419 H1392 0.929 . S
C1419 C1418 1.363 . S
C1419 C1420 1.385 . S
C1420 H1394 0.930 . S
C1420 C1419 1.385 . S
C1420 C1421 1.357 . S
C1421 C1420 1.357 . S
C1421 C1422 1.406 1_565 S
C1422 H1396 0.929 . S
C1422 C1421 1.406 1_545 S
C1422 C1423 1.407 . S
C1423 H1395 0.930 . S
C1423 C1418 1.361 1_545 S
C1423 C1422 1.407 . S
C1424 N1393 1.435 . S
C1424 C1425 1.358 1_565 S
C1424 C1429 1.371 . S
C1425 H1397 0.930 . S
C1425 C1424 1.358 1_545 S
C1425 C1426 1.405 . S
C1426 H1398 0.932 . S
C1426 C1425 1.405 . S
C1426 C1427 1.383 . S
C1427 C1426 1.383 . S
C1427 C1428 1.393 1_545 S
C1428 H1400 0.931 . S
C1428 C1427 1.393 1_565 S
C1428 C1429 1.382 . S
C1429 H1399 0.929 . S
C1429 C1424 1.371 . S
C1429 C1428 1.382 . S
C1430 N1393 1.423 . S
C1430 C1431 1.362 . S
C1430 C1435 1.388 1_565 S
C1431 H1401 0.929 . S
C1431 C1430 1.362 . S
C1431 C1432 1.376 . S
C1432 H1403 0.931 . S
C1432 C1431 1.376 . S
C1432 C1433 1.396 . S
C1433 C1432 1.396 . S
C1433 C1434 1.396 . S
C1433 C1451 1.472 . S
C1434 H1404 0.917 1_565 S
C1434 C1433 1.396 . S
C1434 C1435 1.409 1_565 S
C1435 H1402 0.932 . S
C1435 C1430 1.388 1_545 S
C1435 C1434 1.409 1_545 S
C1436 N1416 1.433 . S
C1436 C1437 1.363 . S
C1436 C1441 1.370 1_565 S
C1437 H1405 0.929 . S
C1437 C1436 1.363 . S
C1437 C1438 1.385 . S
C1438 H1406 0.930 . S
C1438 C1437 1.385 . S
C1438 C1439 1.357 . S
C1439 C1438 1.357 . S
C1439 C1440 1.406 1_565 S
C1440 H1407 0.929 . S
C1440 C1439 1.406 1_545 S
C1440 C1441 1.391 . S
C1441 H1408 0.931 . S
C1441 C1436 1.370 1_545 S
C1441 C1440 1.391 . S
C1442 N1416 1.435 . S
C1442 C1443 1.358 1_565 S
C1442 C1447 1.371 . S
C1443 H1409 0.930 . S
C1443 C1442 1.358 1_545 S
C1443 C1444 1.405 . S
C1444 H1410 0.932 . S
C1444 C1443 1.405 . S
C1444 C1445 1.383 . S
C1445 C1444 1.383 . S
C1445 C1446 1.393 1_545 S
C1446 H1411 0.931 . S
C1446 C1445 1.393 1_565 S
C1446 C1447 1.382 . S
C1447 H1412 0.929 . S
C1447 C1442 1.371 . S
C1447 C1446 1.382 . S
C1448 N1416 1.423 . S
C1448 C1449 1.362 . S
C1448 C1453 1.388 1_565 S
C1449 H1413 0.929 . S
C1449 C1448 1.362 . S
C1449 C1450 1.376 . S
C1450 H1414 0.931 . S
C1450 C1449 1.376 . S
C1450 C1451 1.396 . S
C1451 C1433 1.472 . S
C1451 C1450 1.396 . S
C1451 C1452 1.364 . S
C1452 H1415 0.891 1_565 S
C1452 C1451 1.364 . S
C1452 C1453 1.465 1_565 S
C1453 H1417 0.932 . S
C1453 C1448 1.388 1_545 S
C1453 C1452 1.465 1_545 S
H1454 C1481 0.929 . S
N1455 C1480 1.433 . S
N1455 C1486 1.435 . S
N1455 C1492 1.423 . S
H1456 C1482 0.930 . S
H1457 C1485 0.931 . S
H1458 C1484 0.929 . S
H1459 C1487 0.930 . S
H1460 C1488 0.932 . S
H1461 C1491 0.929 . S
H1462 C1490 0.931 . S
H1463 C1493 0.929 . S
H1464 C1497 0.932 1_455 S
H1465 C1494 0.931 . S
H1466 C1496 0.929 . S
H1467 C1499 0.929 . S
H1468 C1500 0.930 . S
H1469 C1502 0.929 . S
H1470 C1503 0.931 . S
H1471 C1505 0.930 . S
H1472 C1506 0.932 . S
H1473 C1508 0.931 . S
H1474 C1509 0.929 . S
H1475 C1511 0.929 . S
H1476 C1512 0.931 . S
H1477 C1514 0.929 . S
N1478 C1498 1.433 . S
N1478 C1504 1.435 . S
N1478 C1510 1.423 . S
H1479 C1515 0.932 1_455 S
C1480 N1455 1.433 . S
C1480 C1481 1.363 . S
C1480 C1485 1.370 1_655 S
C1481 H1454 0.929 . S
C1481 C1480 1.363 . S
C1481 C1482 1.385 . S
C1482 H1456 0.930 . S
C1482 C1481 1.385 . S
C1482 C1483 1.357 1_655 S
C1483 C1482 1.357 1_455 S
C1483 C1484 1.406 . S
C1484 H1458 0.929 . S
C1484 C1483 1.406 . S
C1484 C1485 1.391 . S
C1485 H1457 0.931 . S
C1485 C1480 1.370 1_455 S
C1485 C1484 1.391 . S
C1486 N1455 1.435 . S
C1486 C1487 1.358 1_655 S
C1486 C1491 1.371 . S
C1487 H1459 0.930 . S
C1487 C1486 1.358 1_455 S
C1487 C1488 1.405 . S
C1488 H1460 0.932 . S
C1488 C1487 1.405 . S
C1488 C1489 1.383 1_455 S
C1489 C1488 1.383 1_655 S
C1489 C1490 1.393 . S
C1490 H1462 0.931 . S
C1490 C1489 1.393 . S
C1490 C1491 1.382 . S
C1491 H1461 0.929 . S
C1491 C1486 1.371 . S
C1491 C1490 1.382 . S
C1492 N1455 1.423 . S
C1492 C1493 1.362 . S
C1492 C1497 1.388 . S
C1493 H1463 0.929 . S
C1493 C1492 1.362 . S
C1493 C1494 1.376 . S
C1494 H1465 0.931 . S
C1494 C1493 1.376 . S
C1494 C1495 1.396 . S
C1495 C1494 1.396 . S
C1495 C1496 1.348 . S
C1495 C1513 1.472 . S
C1496 H1466 0.929 . S
C1496 C1495 1.348 . S
C1496 C1497 1.443 . S
C1497 H1464 0.932 1_655 S
C1497 C1492 1.388 . S
C1497 C1496 1.443 . S
C1498 N1478 1.433 . S
C1498 C1499 1.363 . S
C1498 C1503 1.370 1_655 S
C1499 H1467 0.929 . S
C1499 C1498 1.363 . S
C1499 C1500 1.385 . S
C1500 H1468 0.930 . S
C1500 C1499 1.385 . S
C1500 C1501 1.357 1_655 S
C1501 C1500 1.357 1_455 S
C1501 C1502 1.406 . S
C1502 H1469 0.929 . S
C1502 C1501 1.406 . S
C1502 C1503 1.391 . S
C1503 H1470 0.931 . S
C1503 C1498 1.370 1_455 S
C1503 C1502 1.391 . S
C1504 N1478 1.435 . S
C1504 C1505 1.358 1_655 S
C1504 C1509 1.371 . S
C1505 H1471 0.930 . S
C1505 C1504 1.358 1_455 S
C1505 C1506 1.405 . S
C1506 H1472 0.932 . S
C1506 C1505 1.405 . S
C1506 C1507 1.383 1_455 S
C1507 C1506 1.383 1_655 S
C1507 C1508 1.393 . S
C1508 H1473 0.931 . S
C1508 C1507 1.393 . S
C1508 C1509 1.382 . S
C1509 H1474 0.929 . S
C1509 C1504 1.371 . S
C1509 C1508 1.382 . S
C1510 N1478 1.423 . S
C1510 C1511 1.362 . S
C1510 C1515 1.388 . S
C1511 H1475 0.929 . S
C1511 C1510 1.362 . S
C1511 C1512 1.376 . S
C1512 H1476 0.931 . S
C1512 C1511 1.376 . S
C1512 C1513 1.396 . S
C1513 C1495 1.472 . S
C1513 C1512 1.396 . S
C1513 C1514 1.348 . S
C1514 H1477 0.929 . S
C1514 C1513 1.348 . S
C1514 C1515 1.443 . S
C1515 H1479 0.932 1_655 S
C1515 C1510 1.388 . S
C1515 C1514 1.443 . S
H1516 C1543 0.929 . S
N1517 C1542 1.433 . S
N1517 C1548 1.435 . S
N1517 C1554 1.423 . S
H1518 C1544 0.930 . S
H1519 C1547 0.931 . S
H1520 C1546 0.929 . S
H1521 C1549 0.930 . S
H1522 C1550 0.932 . S
H1523 C1553 0.929 . S
H1524 C1552 0.931 . S
H1525 C1555 0.929 . S
H1526 C1559 0.932 . S
H1527 C1556 0.931 . S
H1528 C1558 0.929 . S
H1529 C1561 0.929 . S
H1530 C1562 0.930 . S
H1531 C1564 0.929 . S
H1532 C1565 0.931 . S
H1533 C1567 0.930 . S
H1534 C1568 0.932 . S
H1535 C1570 0.931 . S
H1536 C1571 0.929 . S
H1537 C1573 0.929 . S
H1538 C1574 0.931 . S
H1539 C1576 0.929 . S
N1540 C1560 1.433 . S
N1540 C1566 1.435 . S
N1540 C1572 1.423 . S
H1541 C1577 0.932 . S
C1542 N1517 1.433 . S
C1542 C1543 1.363 . S
C1542 C1547 1.370 . S
C1543 H1516 0.929 . S
C1543 C1542 1.363 . S
C1543 C1544 1.385 . S
C1544 H1518 0.930 . S
C1544 C1543 1.385 . S
C1544 C1545 1.357 . S
C1545 C1544 1.357 . S
C1545 C1546 1.406 . S
C1546 H1520 0.929 . S
C1546 C1545 1.406 . S
C1546 C1547 1.391 . S
C1547 H1519 0.931 . S
C1547 C1542 1.370 . S
C1547 C1546 1.391 . S
C1548 N1517 1.435 . S
C1548 C1549 1.358 . S
C1548 C1553 1.371 . S
C1549 H1521 0.930 . S
C1549 C1548 1.358 . S
C1549 C1550 1.405 . S
C1550 H1522 0.932 . S
C1550 C1549 1.405 . S
C1550 C1551 1.383 . S
C1551 C1550 1.383 . S
C1551 C1552 1.393 . S
C1552 H1524 0.931 . S
C1552 C1551 1.393 . S
C1552 C1553 1.382 . S
C1553 H1523 0.929 . S
C1553 C1548 1.371 . S
C1553 C1552 1.382 . S
C1554 N1517 1.423 . S
C1554 C1555 1.362 . S
C1554 C1559 1.388 . S
C1555 H1525 0.929 . S
C1555 C1554 1.362 . S
C1555 C1556 1.376 . S
C1556 H1527 0.931 . S
C1556 C1555 1.376 . S
C1556 C1557 1.396 . S
C1557 C1556 1.396 . S
C1557 C1558 1.348 . S
C1557 C1575 1.472 . S
C1558 H1528 0.929 . S
C1558 C1557 1.348 . S
C1558 C1559 1.443 . S
C1559 H1526 0.932 . S
C1559 C1554 1.388 . S
C1559 C1558 1.443 . S
C1560 N1540 1.433 . S
C1560 C1561 1.363 . S
C1560 C1565 1.370 . S
C1561 H1529 0.929 . S
C1561 C1560 1.363 . S
C1561 C1562 1.385 . S
C1562 H1530 0.930 . S
C1562 C1561 1.385 . S
C1562 C1563 1.357 . S
C1563 C1562 1.357 . S
C1563 C1564 1.406 . S
C1564 H1531 0.929 . S
C1564 C1563 1.406 . S
C1564 C1565 1.391 . S
C1565 H1532 0.931 . S
C1565 C1560 1.370 . S
C1565 C1564 1.391 . S
C1566 N1540 1.435 . S
C1566 C1567 1.358 . S
C1566 C1571 1.371 . S
C1567 H1533 0.930 . S
C1567 C1566 1.358 . S
C1567 C1568 1.405 . S
C1568 H1534 0.932 . S
C1568 C1567 1.405 . S
C1568 C1569 1.383 . S
C1569 C1568 1.383 . S
C1569 C1570 1.393 . S
C1570 H1535 0.931 . S
C1570 C1569 1.393 . S
C1570 C1571 1.382 . S
C1571 H1536 0.929 . S
C1571 C1566 1.371 . S
C1571 C1570 1.382 . S
C1572 N1540 1.423 . S
C1572 C1573 1.362 . S
C1572 C1577 1.388 . S
C1573 H1537 0.929 . S
C1573 C1572 1.362 . S
C1573 C1574 1.376 . S
C1574 H1538 0.931 . S
C1574 C1573 1.376 . S
C1574 C1575 1.396 . S
C1575 C1557 1.472 . S
C1575 C1574 1.396 . S
C1575 C1576 1.348 . S
C1576 H1539 0.929 . S
C1576 C1575 1.348 . S
C1576 C1577 1.443 . S
C1577 H1541 0.932 . S
C1577 C1572 1.388 . S
C1577 C1576 1.443 . S
H1578 C1605 0.929 . S
N1579 C1604 1.433 . S
N1579 C1610 1.435 . S
N1579 C1616 1.423 . S
H1580 C1606 0.930 . S
H1581 C1609 0.931 . S
H1582 C1608 0.929 . S
H1583 C1611 0.930 . S
H1584 C1612 0.932 . S
H1585 C1615 0.929 . S
H1586 C1614 0.931 . S
H1587 C1617 0.929 . S
H1588 C1621 0.932 . S
H1589 C1618 0.931 . S
H1590 C1620 0.929 . S
H1591 C1623 0.929 . S
H1592 C1624 0.930 . S
H1593 C1626 0.929 . S
H1594 C1627 0.931 . S
H1595 C1629 0.930 . S
H1596 C1630 0.932 . S
H1597 C1632 0.931 . S
H1598 C1633 0.929 . S
H1599 C1635 0.929 . S
H1600 C1636 0.931 . S
H1601 C1638 0.929 . S
N1602 C1622 1.433 . S
N1602 C1628 1.435 . S
N1602 C1634 1.423 . S
H1603 C1639 0.932 . S
C1604 N1579 1.433 . S
C1604 C1605 1.363 . S
C1604 C1609 1.370 . S
C1605 H1578 0.929 . S
C1605 C1604 1.363 . S
C1605 C1606 1.385 . S
C1606 H1580 0.930 . S
C1606 C1605 1.385 . S
C1606 C1607 1.357 . S
C1607 C1606 1.357 . S
C1607 C1608 1.406 . S
C1608 H1582 0.929 . S
C1608 C1607 1.406 . S
C1608 C1609 1.391 . S
C1609 H1581 0.931 . S
C1609 C1604 1.370 . S
C1609 C1608 1.391 . S
C1610 N1579 1.435 . S
C1610 C1611 1.358 . S
C1610 C1615 1.371 . S
C1611 H1583 0.930 . S
C1611 C1610 1.358 . S
C1611 C1612 1.405 . S
C1612 H1584 0.932 . S
C1612 C1611 1.405 . S
C1612 C1613 1.383 . S
C1613 C1612 1.383 . S
C1613 C1614 1.393 . S
C1614 H1586 0.931 . S
C1614 C1613 1.393 . S
C1614 C1615 1.382 . S
C1615 H1585 0.929 . S
C1615 C1610 1.371 . S
C1615 C1614 1.382 . S
C1616 N1579 1.423 . S
C1616 C1617 1.362 . S
C1616 C1621 1.388 . S
C1617 H1587 0.929 . S
C1617 C1616 1.362 . S
C1617 C1618 1.376 . S
C1618 H1589 0.931 . S
C1618 C1617 1.376 . S
C1618 C1619 1.396 . S
C1619 C1618 1.396 . S
C1619 C1620 1.348 . S
C1619 C1637 1.472 . S
C1620 H1590 0.929 . S
C1620 C1619 1.348 . S
C1620 C1621 1.443 . S
C1621 H1588 0.932 . S
C1621 C1616 1.388 . S
C1621 C1620 1.443 . S
C1622 N1602 1.433 . S
C1622 C1623 1.363 . S
C1622 C1627 1.370 . S
C1623 H1591 0.929 . S
C1623 C1622 1.363 . S
C1623 C1624 1.385 . S
C1624 H1592 0.930 . S
C1624 C1623 1.385 . S
C1624 C1625 1.357 . S
C1625 C1624 1.357 . S
C1625 C1626 1.406 . S
C1626 H1593 0.929 . S
C1626 C1625 1.406 . S
C1626 C1627 1.391 . S
C1627 H1594 0.931 . S
C1627 C1622 1.370 . S
C1627 C1626 1.391 . S
C1628 N1602 1.435 . S
C1628 C1629 1.358 . S
C1628 C1633 1.371 . S
C1629 H1595 0.930 . S
C1629 C1628 1.358 . S
C1629 C1630 1.405 . S
C1630 H1596 0.932 . S
C1630 C1629 1.405 . S
C1630 C1631 1.383 . S
C1631 C1630 1.383 . S
C1631 C1632 1.393 . S
C1632 H1597 0.931 . S
C1632 C1631 1.393 . S
C1632 C1633 1.382 . S
C1633 H1598 0.929 . S
C1633 C1628 1.371 . S
C1633 C1632 1.382 . S
C1634 N1602 1.423 . S
C1634 C1635 1.362 . S
C1634 C1639 1.388 . S
C1635 H1599 0.929 . S
C1635 C1634 1.362 . S
C1635 C1636 1.376 . S
C1636 H1600 0.931 . S
C1636 C1635 1.376 . S
C1636 C1637 1.396 . S
C1637 C1619 1.472 . S
C1637 C1636 1.396 . S
C1637 C1638 1.348 . S
C1638 H1601 0.929 . S
C1638 C1637 1.348 . S
C1638 C1639 1.443 . S
C1639 H1603 0.932 . S
C1639 C1634 1.388 . S
C1639 C1638 1.443 . S
H1640 C1667 0.929 . S
N1641 C1666 1.433 . S
N1641 C1672 1.435 . S
N1641 C1678 1.423 . S
H1642 C1668 0.930 . S
H1643 C1671 0.931 . S
H1644 C1670 0.929 . S
H1645 C1673 0.930 . S
H1646 C1674 0.932 . S
H1647 C1677 0.929 . S
H1648 C1676 0.931 . S
H1649 C1679 0.929 . S
H1650 C1683 0.932 . S
H1651 C1680 0.931 . S
H1652 C1682 0.929 . S
H1653 C1685 0.929 . S
H1654 C1686 0.930 . S
H1655 C1688 0.929 . S
H1656 C1689 0.931 . S
H1657 C1691 0.930 . S
H1658 C1692 0.932 . S
H1659 C1694 0.931 . S
H1660 C1695 0.929 . S
H1661 C1697 0.929 . S
H1662 C1698 0.931 . S
H1663 C1700 0.929 . S
N1664 C1684 1.433 . S
N1664 C1690 1.435 . S
N1664 C1696 1.423 . S
H1665 C1701 0.932 . S
C1666 N1641 1.433 . S
C1666 C1667 1.363 . S
C1666 C1671 1.370 . S
C1667 H1640 0.929 . S
C1667 C1666 1.363 . S
C1667 C1668 1.385 . S
C1668 H1642 0.930 . S
C1668 C1667 1.385 . S
C1668 C1669 1.357 . S
C1669 C1668 1.357 . S
C1669 C1670 1.406 . S
C1670 H1644 0.929 . S
C1670 C1669 1.406 . S
C1670 C1671 1.391 . S
C1671 H1643 0.931 . S
C1671 C1666 1.370 . S
C1671 C1670 1.391 . S
C1672 N1641 1.435 . S
C1672 C1673 1.358 . S
C1672 C1677 1.371 . S
C1673 H1645 0.930 . S
C1673 C1672 1.358 . S
C1673 C1674 1.405 . S
C1674 H1646 0.932 . S
C1674 C1673 1.405 . S
C1674 C1675 1.383 . S
C1675 C1674 1.383 . S
C1675 C1676 1.393 . S
C1676 H1648 0.931 . S
C1676 C1675 1.393 . S
C1676 C1677 1.382 . S
C1677 H1647 0.929 . S
C1677 C1672 1.371 . S
C1677 C1676 1.382 . S
C1678 N1641 1.423 . S
C1678 C1679 1.362 . S
C1678 C1683 1.388 . S
C1679 H1649 0.929 . S
C1679 C1678 1.362 . S
C1679 C1680 1.376 . S
C1680 H1651 0.931 . S
C1680 C1679 1.376 . S
C1680 C1681 1.396 . S
C1681 C1680 1.396 . S
C1681 C1682 1.348 . S
C1681 C1699 1.472 . S
C1682 H1652 0.929 . S
C1682 C1681 1.348 . S
C1682 C1683 1.443 . S
C1683 H1650 0.932 . S
C1683 C1678 1.388 . S
C1683 C1682 1.443 . S
C1684 N1664 1.433 . S
C1684 C1685 1.363 . S
C1684 C1689 1.370 . S
C1685 H1653 0.929 . S
C1685 C1684 1.363 . S
C1685 C1686 1.385 . S
C1686 H1654 0.930 . S
C1686 C1685 1.385 . S
C1686 C1687 1.357 . S
C1687 C1686 1.357 . S
C1687 C1688 1.406 . S
C1688 H1655 0.929 . S
C1688 C1687 1.406 . S
C1688 C1689 1.391 . S
C1689 H1656 0.931 . S
C1689 C1684 1.370 . S
C1689 C1688 1.391 . S
C1690 N1664 1.435 . S
C1690 C1691 1.358 . S
C1690 C1695 1.371 . S
C1691 H1657 0.930 . S
C1691 C1690 1.358 . S
C1691 C1692 1.405 . S
C1692 H1658 0.932 . S
C1692 C1691 1.405 . S
C1692 C1693 1.383 . S
C1693 C1692 1.383 . S
C1693 C1694 1.393 . S
C1694 H1659 0.931 . S
C1694 C1693 1.393 . S
C1694 C1695 1.382 . S
C1695 H1660 0.929 . S
C1695 C1690 1.371 . S
C1695 C1694 1.382 . S
C1696 N1664 1.423 . S
C1696 C1697 1.362 . S
C1696 C1701 1.388 . S
C1697 H1661 0.929 . S
C1697 C1696 1.362 . S
C1697 C1698 1.376 . S
C1698 H1662 0.931 . S
C1698 C1697 1.376 . S
C1698 C1699 1.396 . S
C1699 C1681 1.472 . S
C1699 C1698 1.396 . S
C1699 C1700 1.348 . S
C1700 H1663 0.929 . S
C1700 C1699 1.348 . S
C1700 C1701 1.443 . S
C1701 H1665 0.932 . S
C1701 C1696 1.388 . S
C1701 C1700 1.443 . S
H1702 C1729 0.929 . S
N1703 C1728 1.433 . S
N1703 C1734 1.435 . S
N1703 C1740 1.423 . S
H1704 C1730 0.930 . S
H1705 C1733 0.931 . S
H1706 C1732 0.929 . S
H1707 C1735 0.930 . S
H1708 C1736 0.932 . S
H1709 C1739 0.929 . S
H1710 C1738 0.931 . S
H1711 C1741 0.929 . S
H1712 C1745 0.932 . S
H1713 C1742 0.931 . S
H1714 C1744 0.929 . S
H1715 C1747 0.929 . S
H1716 C1748 0.930 . S
H1717 C1750 0.929 . S
H1718 C1751 0.931 . S
H1719 C1753 0.930 . S
H1720 C1754 0.932 . S
H1721 C1756 0.931 . S
H1722 C1757 0.929 . S
H1723 C1759 0.929 . S
H1724 C1760 0.931 . S
H1725 C1762 0.929 . S
N1726 C1746 1.433 . S
N1726 C1752 1.435 . S
N1726 C1758 1.423 . S
H1727 C1763 0.932 . S
C1728 N1703 1.433 . S
C1728 C1729 1.363 . S
C1728 C1733 1.370 . S
C1729 H1702 0.929 . S
C1729 C1728 1.363 . S
C1729 C1730 1.385 . S
C1730 H1704 0.930 . S
C1730 C1729 1.385 . S
C1730 C1731 1.357 . S
C1731 C1730 1.357 . S
C1731 C1732 1.406 . S
C1732 H1706 0.929 . S
C1732 C1731 1.406 . S
C1732 C1733 1.391 . S
C1733 H1705 0.931 . S
C1733 C1728 1.370 . S
C1733 C1732 1.391 . S
C1734 N1703 1.435 . S
C1734 C1735 1.358 . S
C1734 C1739 1.371 . S
C1735 H1707 0.930 . S
C1735 C1734 1.358 . S
C1735 C1736 1.405 . S
C1736 H1708 0.932 . S
C1736 C1735 1.405 . S
C1736 C1737 1.383 . S
C1737 C1736 1.383 . S
C1737 C1738 1.393 . S
C1738 H1710 0.931 . S
C1738 C1737 1.393 . S
C1738 C1739 1.382 . S
C1739 H1709 0.929 . S
C1739 C1734 1.371 . S
C1739 C1738 1.382 . S
C1740 N1703 1.423 . S
C1740 C1741 1.362 . S
C1740 C1745 1.388 . S
C1741 H1711 0.929 . S
C1741 C1740 1.362 . S
C1741 C1742 1.376 . S
C1742 H1713 0.931 . S
C1742 C1741 1.376 . S
C1742 C1743 1.396 . S
C1743 C1742 1.396 . S
C1743 C1744 1.348 . S
C1743 C1761 1.472 . S
C1744 H1714 0.929 . S
C1744 C1743 1.348 . S
C1744 C1745 1.443 . S
C1745 H1712 0.932 . S
C1745 C1740 1.388 . S
C1745 C1744 1.443 . S
C1746 N1726 1.433 . S
C1746 C1747 1.363 . S
C1746 C1751 1.370 . S
C1747 H1715 0.929 . S
C1747 C1746 1.363 . S
C1747 C1748 1.385 . S
C1748 H1716 0.930 . S
C1748 C1747 1.385 . S
C1748 C1749 1.357 . S
C1749 C1748 1.357 . S
C1749 C1750 1.406 . S
C1750 H1717 0.929 . S
C1750 C1749 1.406 . S
C1750 C1751 1.391 . S
C1751 H1718 0.931 . S
C1751 C1746 1.370 . S
C1751 C1750 1.391 . S
C1752 N1726 1.435 . S
C1752 C1753 1.358 . S
C1752 C1757 1.371 . S
C1753 H1719 0.930 . S
C1753 C1752 1.358 . S
C1753 C1754 1.405 . S
C1754 H1720 0.932 . S
C1754 C1753 1.405 . S
C1754 C1755 1.383 . S
C1755 C1754 1.383 . S
C1755 C1756 1.393 . S
C1756 H1721 0.931 . S
C1756 C1755 1.393 . S
C1756 C1757 1.382 . S
C1757 H1722 0.929 . S
C1757 C1752 1.371 . S
C1757 C1756 1.382 . S
C1758 N1726 1.423 . S
C1758 C1759 1.362 . S
C1758 C1763 1.388 . S
C1759 H1723 0.929 . S
C1759 C1758 1.362 . S
C1759 C1760 1.376 . S
C1760 H1724 0.931 . S
C1760 C1759 1.376 . S
C1760 C1761 1.396 . S
C1761 C1743 1.472 . S
C1761 C1760 1.396 . S
C1761 C1762 1.348 . S
C1762 H1725 0.929 . S
C1762 C1761 1.348 . S
C1762 C1763 1.443 . S
C1763 H1727 0.932 . S
C1763 C1758 1.388 . S
C1763 C1762 1.443 . S
C1764 C1765 1.354 1_455 S
C1764 C1766 1.379 1_455 S
C1764 H1768 0.972 . S
C1765 C1764 1.354 1_655 S
C1765 C1774 1.429 . S
C1766 C1764 1.379 1_655 S
C1766 C1767 1.399 . S
C1766 H1769 0.914 1_655 S
C1767 C1766 1.399 . S
C1767 C1773 1.428 . S
H1768 C1764 0.972 . S
H1769 C1766 0.914 1_455 S
S1770 N1771 1.613 . S
S1770 N1772 1.610 . S
N1771 S1770 1.613 . S
N1771 C1774 1.350 . S
N1772 S1770 1.610 . S
N1772 C1773 1.351 . S
C1773 C1767 1.428 . S
C1773 N1772 1.351 . S
C1773 C1774 1.434 . S
C1774 C1765 1.429 . S
C1774 N1771 1.350 . S
C1774 C1773 1.434 . S
C1775 C1776 1.369 . S
C1775 C1777 1.419 . S
C1775 H1779 0.930 . S
C1776 C1775 1.369 . S
C1776 C1785 1.429 . S
C1777 C1775 1.419 . S
C1777 C1778 1.363 . S
C1777 H1780 0.929 . S
C1778 C1777 1.363 . S
C1778 C1784 1.428 . S
H1779 C1775 0.930 . S
H1780 C1777 0.929 . S
S1781 N1782 1.613 . S
S1781 N1783 1.610 . S
N1782 S1781 1.613 . S
N1782 C1785 1.350 . S
N1783 S1781 1.610 . S
N1783 C1784 1.351 . S
C1784 C1778 1.428 . S
C1784 N1783 1.351 . S
C1784 C1785 1.434 . S
C1785 C1776 1.429 . S
C1785 N1782 1.350 . S
C1785 C1784 1.434 . S
C1786 C1787 1.369 . S
C1786 C1788 1.419 . S
C1786 H1790 0.930 . S
C1787 C1786 1.369 . S
C1787 C1796 1.429 1_545 S
C1788 C1786 1.419 . S
C1788 C1789 1.363 . S
C1788 H1791 0.929 . S
C1789 C1788 1.363 . S
C1789 C1795 1.424 1_545 S
H1790 C1786 0.930 . S
H1791 C1788 0.929 . S
S1792 N1793 1.613 . S
S1792 N1794 1.610 . S
N1793 S1792 1.613 . S
N1793 C1796 1.350 . S
N1794 S1792 1.610 . S
N1794 C1795 1.359 . S
C1795 C1789 1.424 1_565 S
C1795 N1794 1.359 . S
C1795 C1796 1.431 . S
C1796 C1787 1.429 1_565 S
C1796 N1793 1.350 . S
C1796 C1795 1.431 . S
C1797 C1798 1.369 1_545 S
C1797 C1799 1.419 . S
C1797 H1801 0.930 . S
C1798 C1797 1.369 1_565 S
C1798 C1807 1.429 . S
C1799 C1797 1.419 . S
C1799 C1800 1.363 1_545 S
C1799 H1802 0.929 . S
C1800 C1799 1.363 1_565 S
C1800 C1806 1.428 . S
H1801 C1797 0.930 . S
H1802 C1799 0.929 . S
S1803 N1804 1.613 . S
S1803 N1805 1.610 . S
N1804 S1803 1.613 . S
N1804 C1807 1.350 . S
N1805 S1803 1.610 . S
N1805 C1806 1.351 . S
C1806 C1800 1.428 . S
C1806 N1805 1.351 . S
C1806 C1807 1.434 . S
C1807 C1798 1.429 . S
C1807 N1804 1.350 . S
C1807 C1806 1.434 . S
C1808 C1809 1.369 . S
C1808 C1810 1.419 . S
C1808 H1812 0.930 . S
C1809 C1808 1.369 . S
C1809 C1818 1.429 1_455 S
C1810 C1808 1.419 . S
C1810 C1811 1.363 . S
C1810 H1813 0.929 . S
C1811 C1810 1.363 . S
C1811 C1817 1.428 1_455 S
H1812 C1808 0.930 . S
H1813 C1810 0.929 . S
S1814 N1815 1.613 . S
S1814 N1816 1.610 . S
N1815 S1814 1.613 . S
N1815 C1818 1.350 . S
N1816 S1814 1.610 . S
N1816 C1817 1.351 . S
C1817 C1811 1.428 1_655 S
C1817 N1816 1.351 . S
C1817 C1818 1.434 . S
C1818 C1809 1.429 1_655 S
C1818 N1815 1.350 . S
C1818 C1817 1.434 . S
C1819 C1820 1.369 . S
C1819 C1821 1.419 . S
C1819 H1823 0.930 . S
C1820 C1819 1.369 . S
C1820 C1829 1.429 . S
C1821 C1819 1.419 . S
C1821 C1822 1.363 . S
C1821 H1824 0.929 . S
C1822 C1821 1.363 . S
C1822 C1828 1.428 . S
H1823 C1819 0.930 . S
H1824 C1821 0.929 . S
S1825 N1826 1.613 . S
S1825 N1827 1.610 . S
N1826 S1825 1.613 . S
N1826 C1829 1.350 . S
N1827 S1825 1.610 . S
N1827 C1828 1.351 . S
C1828 C1822 1.428 . S
C1828 N1827 1.351 . S
C1828 C1829 1.434 . S
C1829 C1820 1.429 . S
C1829 N1826 1.350 . S
C1829 C1828 1.434 . S
C1830 C1831 1.369 1_655 S
C1830 C1832 1.419 . S
C1830 H1834 0.930 . S
C1831 C1830 1.369 1_455 S
C1831 C1840 1.429 . S
C1832 C1830 1.419 . S
C1832 C1833 1.363 1_655 S
C1832 H1835 0.929 . S
C1833 C1832 1.363 1_455 S
C1833 C1839 1.428 . S
H1834 C1830 0.930 . S
H1835 C1832 0.929 . S
S1836 N1837 1.613 . S
S1836 N1838 1.610 . S
N1837 S1836 1.613 . S
N1837 C1840 1.350 . S
N1838 S1836 1.610 . S
N1838 C1839 1.351 . S
C1839 C1833 1.428 . S
C1839 N1838 1.351 . S
C1839 C1840 1.434 . S
C1840 C1831 1.429 . S
C1840 N1837 1.350 . S
C1840 C1839 1.434 . S
C1841 C1842 1.369 . S
C1841 C1843 1.419 . S
C1841 H1845 0.930 . S
C1842 C1841 1.369 . S
C1842 C1851 1.429 . S
C1843 C1841 1.419 . S
C1843 C1844 1.363 . S
C1843 H1846 0.929 . S
C1844 C1843 1.363 . S
C1844 C1850 1.428 . S
H1845 C1841 0.930 . S
H1846 C1843 0.929 . S
S1847 N1848 1.613 . S
S1847 N1849 1.610 . S
N1848 S1847 1.613 . S
N1848 C1851 1.350 . S
N1849 S1847 1.610 . S
N1849 C1850 1.351 . S
C1850 C1844 1.428 . S
C1850 N1849 1.351 . S
C1850 C1851 1.434 . S
C1851 C1842 1.429 . S
C1851 N1848 1.350 . S
C1851 C1850 1.434 . S
C1852 C1853 1.369 1_545 S
C1852 C1854 1.419 . S
C1852 H1856 0.930 . S
C1853 C1852 1.369 1_565 S
C1853 C1862 1.429 . S
C1854 C1852 1.419 . S
C1854 C1855 1.363 1_545 S
C1854 H1857 0.929 . S
C1855 C1854 1.363 1_565 S
C1855 C1861 1.428 . S
H1856 C1852 0.930 . S
H1857 C1854 0.929 . S
S1858 N1859 1.613 . S
S1858 N1860 1.610 . S
N1859 S1858 1.613 . S
N1859 C1862 1.350 . S
N1860 S1858 1.610 . S
N1860 C1861 1.351 . S
C1861 C1855 1.428 . S
C1861 N1860 1.351 . S
C1861 C1862 1.434 . S
C1862 C1853 1.429 . S
C1862 N1859 1.350 . S
C1862 C1861 1.434 . S
C1863 C1864 1.391 . S
C1863 C1865 1.444 . S
C1863 H1867 0.884 1_545 S
C1864 C1863 1.391 . S
C1864 C1873 1.429 . S
C1865 C1863 1.444 . S
C1865 C1866 1.363 . S
C1865 H1868 0.929 1_545 S
C1866 C1865 1.363 . S
C1866 C1872 1.428 . S
H1867 C1863 0.884 1_565 S
H1868 C1865 0.929 1_565 S
S1869 N1870 1.613 . S
S1869 N1871 1.610 . S
N1870 S1869 1.613 . S
N1870 C1873 1.350 . S
N1871 S1869 1.610 . S
N1871 C1872 1.351 . S
C1872 C1866 1.428 . S
C1872 N1871 1.351 . S
C1872 C1873 1.434 . S
C1873 C1864 1.429 . S
C1873 N1870 1.350 . S
C1873 C1872 1.434 . S
C1874 C1875 1.369 . S
C1874 C1876 1.419 . S
C1874 H1878 0.932 . S
C1875 C1874 1.369 . S
C1875 C1884 1.429 . S
C1876 C1874 1.419 . S
C1876 C1877 1.363 . S
C1876 H1879 0.929 . S
C1877 C1876 1.363 . S
C1877 C1883 1.428 . S
H1878 C1874 0.932 . S
H1879 C1876 0.929 . S
S1880 N1881 1.613 . S
S1880 N1882 1.610 . S
N1881 S1880 1.613 . S
N1881 C1884 1.350 . S
N1882 S1880 1.610 . S
N1882 C1883 1.351 . S
C1883 C1877 1.428 . S
C1883 N1882 1.351 . S
C1883 C1884 1.434 . S
C1884 C1875 1.429 . S
C1884 N1881 1.350 . S
C1884 C1883 1.434 . S
C1885 C1886 1.369 . S
C1885 C1887 1.419 . S
C1885 H1889 0.930 . S
C1886 C1885 1.369 . S
C1886 C1895 1.429 . S
C1887 C1885 1.419 . S
C1887 C1888 1.363 . S
C1887 H1890 0.929 . S
C1888 C1887 1.363 . S
C1888 C1894 1.428 . S
H1889 C1885 0.930 . S
H1890 C1887 0.929 . S
S1891 N1892 1.613 . S
S1891 N1893 1.610 . S
N1892 S1891 1.613 . S
N1892 C1895 1.350 . S
N1893 S1891 1.610 . S
N1893 C1894 1.351 . S
C1894 C1888 1.428 . S
C1894 N1893 1.351 . S
C1894 C1895 1.434 . S
C1895 C1886 1.429 . S
C1895 N1892 1.350 . S
C1895 C1894 1.434 . S
C1896 C1897 1.369 . S
C1896 C1898 1.419 . S
C1896 H1900 0.930 . S
C1897 C1896 1.369 . S
C1897 C1906 1.429 . S
C1898 C1896 1.419 . S
C1898 C1899 1.363 . S
C1898 H1901 0.929 . S
C1899 C1898 1.363 . S
C1899 C1905 1.428 . S
H1900 C1896 0.930 . S
H1901 C1898 0.929 . S
S1902 N1903 1.613 . S
S1902 N1904 1.610 . S
N1903 S1902 1.613 . S
N1903 C1906 1.350 . S
N1904 S1902 1.610 . S
N1904 C1905 1.351 . S
C1905 C1899 1.428 . S
C1905 N1904 1.351 . S
C1905 C1906 1.434 . S
C1906 C1897 1.429 . S
C1906 N1903 1.350 . S
C1906 C1905 1.434 . S
C1907 C1908 1.369 . S
C1907 C1909 1.419 . S
C1907 H1911 0.930 . S
C1908 C1907 1.369 . S
C1908 C1917 1.429 . S
C1909 C1907 1.419 . S
C1909 C1910 1.363 . S
C1909 H1912 0.929 . S
C1910 C1909 1.363 . S
C1910 C1916 1.428 . S
H1911 C1907 0.930 . S
H1912 C1909 0.929 . S
S1913 N1914 1.613 . S
S1913 N1915 1.610 . S
N1914 S1913 1.613 . S
N1914 C1917 1.350 . S
N1915 S1913 1.610 . S
N1915 C1916 1.351 . S
C1916 C1910 1.428 . S
C1916 N1915 1.351 . S
C1916 C1917 1.434 . S
C1917 C1908 1.429 . S
C1917 N1914 1.350 . S
C1917 C1916 1.434 . S
C1918 C1919 1.369 . S
C1918 C1920 1.419 . S
C1918 H1922 0.930 . S
C1919 C1918 1.369 . S
C1919 C1928 1.429 . S
C1920 C1918 1.419 . S
C1920 C1921 1.363 . S
C1920 H1923 0.929 . S
C1921 C1920 1.363 . S
C1921 C1927 1.428 . S
H1922 C1918 0.930 . S
H1923 C1920 0.929 . S
S1924 N1925 1.613 . S
S1924 N1926 1.610 . S
N1925 S1924 1.613 . S
N1925 C1928 1.350 . S
N1926 S1924 1.610 . S
N1926 C1927 1.351 . S
C1927 C1921 1.428 . S
C1927 N1926 1.351 . S
C1927 C1928 1.434 . S
C1928 C1919 1.429 . S
C1928 N1925 1.350 . S
C1928 C1927 1.434 . S
C1929 C1930 1.369 . S
C1929 C1931 1.419 . S
C1929 H1933 0.930 . S
C1930 C1929 1.369 . S
C1930 C1939 1.429 . S
C1931 C1929 1.419 . S
C1931 C1932 1.363 . S
C1931 H1934 0.929 . S
C1932 C1931 1.363 . S
C1932 C1938 1.428 . S
H1933 C1929 0.930 . S
H1934 C1931 0.929 . S
S1935 N1936 1.613 . S
S1935 N1937 1.610 . S
N1936 S1935 1.613 . S
N1936 C1939 1.350 . S
N1937 S1935 1.610 . S
N1937 C1938 1.351 . S
C1938 C1932 1.428 . S
C1938 N1937 1.351 . S
C1938 C1939 1.434 . S
C1939 C1930 1.429 . S
C1939 N1936 1.350 . S
C1939 C1938 1.434 . S
C1940 C1941 1.369 . S
C1940 C1942 1.419 . S
C1940 H1944 0.930 . S
C1941 C1940 1.369 . S
C1941 C1950 1.429 . S
C1942 C1940 1.419 . S
C1942 C1943 1.363 . S
C1942 H1945 0.929 . S
C1943 C1942 1.363 . S
C1943 C1949 1.428 . S
H1944 C1940 0.930 . S
H1945 C1942 0.929 . S
S1946 N1947 1.613 . S
S1946 N1948 1.610 . S
N1947 S1946 1.613 . S
N1947 C1950 1.350 . S
N1948 S1946 1.610 . S
N1948 C1949 1.351 . S
C1949 C1943 1.428 . S
C1949 N1948 1.351 . S
C1949 C1950 1.434 . S
C1950 C1941 1.429 . S
C1950 N1947 1.350 . S
C1950 C1949 1.434 . S
C1951 C1952 1.369 . S
C1951 C1953 1.419 . S
C1951 H1955 0.930 . S
C1952 C1951 1.369 . S
C1952 C1961 1.429 . S
C1953 C1951 1.419 . S
C1953 C1954 1.363 . S
C1953 H1956 0.929 . S
C1954 C1953 1.363 . S
C1954 C1960 1.428 . S
H1955 C1951 0.930 . S
H1956 C1953 0.929 . S
S1957 N1958 1.613 . S
S1957 N1959 1.610 . S
N1958 S1957 1.613 . S
N1958 C1961 1.350 . S
N1959 S1957 1.610 . S
N1959 C1960 1.351 . S
C1960 C1954 1.428 . S
C1960 N1959 1.351 . S
C1960 C1961 1.434 . S
C1961 C1952 1.429 . S
C1961 N1958 1.350 . S
C1961 C1960 1.434 . S
C1962 C1963 1.369 . S
C1962 C1964 1.419 . S
C1962 H1966 0.930 . S
C1963 C1962 1.369 . S
C1963 C1972 1.429 . S
C1964 C1962 1.419 . S
C1964 C1965 1.363 . S
C1964 H1967 0.929 . S
C1965 C1964 1.363 . S
C1965 C1971 1.428 . S
H1966 C1962 0.930 . S
H1967 C1964 0.929 . S
S1968 N1969 1.613 . S
S1968 N1970 1.610 . S
N1969 S1968 1.613 . S
N1969 C1972 1.350 . S
N1970 S1968 1.610 . S
N1970 C1971 1.351 . S
C1971 C1965 1.428 . S
C1971 N1970 1.351 . S
C1971 C1972 1.434 . S
C1972 C1963 1.429 . S
C1972 N1969 1.350 . S
C1972 C1971 1.434 . S
C1973 C1974 1.369 . S
C1973 C1975 1.419 . S
C1973 H1977 0.930 . S
C1974 C1973 1.369 . S
C1974 C1983 1.429 . S
C1975 C1973 1.419 . S
C1975 C1976 1.363 . S
C1975 H1978 0.929 . S
C1976 C1975 1.363 . S
C1976 C1982 1.428 . S
H1977 C1973 0.930 . S
H1978 C1975 0.929 . S
S1979 N1980 1.613 . S
S1979 N1981 1.610 . S
N1980 S1979 1.613 . S
N1980 C1983 1.350 . S
N1981 S1979 1.610 . S
N1981 C1982 1.351 . S
C1982 C1976 1.428 . S
C1982 N1981 1.351 . S
C1982 C1983 1.434 . S
C1983 C1974 1.429 . S
C1983 N1980 1.350 . S
C1983 C1982 1.434 . S
C1984 C1985 1.369 . S
C1984 C1986 1.419 . S
C1984 H1988 0.930 . S
C1985 C1984 1.369 . S
C1985 C1994 1.429 . S
C1986 C1984 1.419 . S
C1986 C1987 1.363 . S
C1986 H1989 0.929 . S
C1987 C1986 1.363 . S
C1987 C1993 1.428 . S
H1988 C1984 0.930 . S
H1989 C1986 0.929 . S
S1990 N1991 1.613 . S
S1990 N1992 1.610 . S
N1991 S1990 1.613 . S
N1991 C1994 1.350 . S
N1992 S1990 1.610 . S
N1992 C1993 1.351 . S
C1993 C1987 1.428 . S
C1993 N1992 1.351 . S
C1993 C1994 1.434 . S
C1994 C1985 1.429 . S
C1994 N1991 1.350 . S
C1994 C1993 1.434 . S
C1995 C1996 1.369 . S
C1995 C1997 1.419 . S
C1995 H1999 0.930 . S
C1996 C1995 1.369 . S
C1996 C2005 1.429 . S
C1997 C1995 1.419 . S
C1997 C1998 1.363 . S
C1997 H2000 0.929 . S
C1998 C1997 1.363 . S
C1998 C2004 1.428 . S
H1999 C1995 0.930 . S
H2000 C1997 0.929 . S
S2001 N2002 1.613 . S
S2001 N2003 1.610 . S
N2002 S2001 1.613 . S
N2002 C2005 1.350 . S
N2003 S2001 1.610 . S
N2003 C2004 1.351 . S
C2004 C1998 1.428 . S
C2004 N2003 1.351 . S
C2004 C2005 1.434 . S
C2005 C1996 1.429 . S
C2005 N2002 1.350 . S
C2005 C2004 1.434 . S
C2006 C2007 1.369 . S
C2006 C2008 1.419 . S
C2006 H2010 0.930 . S
C2007 C2006 1.369 . S
C2007 C2016 1.429 . S
C2008 C2006 1.419 . S
C2008 C2009 1.363 . S
C2008 H2011 0.929 . S
C2009 C2008 1.363 . S
C2009 C2015 1.428 . S
H2010 C2006 0.930 . S
H2011 C2008 0.929 . S
S2012 N2013 1.613 . S
S2012 N2014 1.610 . S
N2013 S2012 1.613 . S
N2013 C2016 1.350 . S
N2014 S2012 1.610 . S
N2014 C2015 1.351 . S
C2015 C2009 1.428 . S
C2015 N2014 1.351 . S
C2015 C2016 1.434 . S
C2016 C2007 1.429 . S
C2016 N2013 1.350 . S
C2016 C2015 1.434 . S
C2017 C2018 1.369 . S
C2017 C2019 1.419 . S
C2017 H2021 0.930 . S
C2018 C2017 1.369 . S
C2018 C2027 1.429 . S
C2019 C2017 1.419 . S
C2019 C2020 1.363 . S
C2019 H2022 0.929 . S
C2020 C2019 1.363 . S
C2020 C2026 1.428 . S
H2021 C2017 0.930 . S
H2022 C2019 0.929 . S
S2023 N2024 1.613 . S
S2023 N2025 1.610 . S
N2024 S2023 1.613 . S
N2024 C2027 1.350 . S
N2025 S2023 1.610 . S
N2025 C2026 1.351 . S
C2026 C2020 1.428 . S
C2026 N2025 1.351 . S
C2026 C2027 1.434 . S
C2027 C2018 1.429 . S
C2027 N2024 1.350 . S
C2027 C2026 1.434 . S
C2028 C2029 1.369 . S
C2028 C2030 1.419 . S
C2028 H2032 0.930 . S
C2029 C2028 1.369 . S
C2029 C2038 1.429 . S
C2030 C2028 1.419 . S
C2030 C2031 1.363 . S
C2030 H2033 0.929 . S
C2031 C2030 1.363 . S
C2031 C2037 1.428 . S
H2032 C2028 0.930 . S
H2033 C2030 0.929 . S
S2034 N2035 1.613 . S
S2034 N2036 1.610 . S
N2035 S2034 1.613 . S
N2035 C2038 1.350 . S
N2036 S2034 1.610 . S
N2036 C2037 1.351 . S
C2037 C2031 1.428 . S
C2037 N2036 1.351 . S
C2037 C2038 1.434 . S
C2038 C2029 1.429 . S
C2038 N2035 1.350 . S
C2038 C2037 1.434 . S
C2039 C2040 1.369 . S
C2039 C2041 1.419 . S
C2039 H2043 0.930 . S
C2040 C2039 1.369 . S
C2040 C2049 1.429 . S
C2041 C2039 1.419 . S
C2041 C2042 1.363 . S
C2041 H2044 0.929 . S
C2042 C2041 1.363 . S
C2042 C2048 1.428 . S
H2043 C2039 0.930 . S
H2044 C2041 0.929 . S
S2045 N2046 1.613 . S
S2045 N2047 1.610 . S
N2046 S2045 1.613 . S
N2046 C2049 1.350 . S
N2047 S2045 1.610 . S
N2047 C2048 1.351 . S
C2048 C2042 1.428 . S
C2048 N2047 1.351 . S
C2048 C2049 1.434 . S
C2049 C2040 1.429 . S
C2049 N2046 1.350 . S
C2049 C2048 1.434 . S
C2050 C2051 1.369 . S
C2050 C2052 1.419 . S
C2050 H2054 0.930 . S
C2051 C2050 1.369 . S
C2051 C2060 1.429 . S
C2052 C2050 1.419 . S
C2052 C2053 1.363 . S
C2052 H2055 0.929 . S
C2053 C2052 1.363 . S
C2053 C2059 1.428 . S
H2054 C2050 0.930 . S
H2055 C2052 0.929 . S
S2056 N2057 1.613 . S
S2056 N2058 1.610 . S
N2057 S2056 1.613 . S
N2057 C2060 1.350 . S
N2058 S2056 1.610 . S
N2058 C2059 1.351 . S
C2059 C2053 1.428 . S
C2059 N2058 1.351 . S
C2059 C2060 1.434 . S
C2060 C2051 1.429 . S
C2060 N2057 1.350 . S
C2060 C2059 1.434 . S
C2061 C2062 1.369 . S
C2061 C2063 1.419 . S
C2061 H2065 0.930 . S
C2062 C2061 1.369 . S
C2062 C2071 1.429 . S
C2063 C2061 1.419 . S
C2063 C2064 1.363 . S
C2063 H2066 0.929 . S
C2064 C2063 1.363 . S
C2064 C2070 1.428 . S
H2065 C2061 0.930 . S
H2066 C2063 0.929 . S
S2067 N2068 1.613 . S
S2067 N2069 1.610 . S
N2068 S2067 1.613 . S
N2068 C2071 1.350 . S
N2069 S2067 1.610 . S
N2069 C2070 1.351 . S
C2070 C2064 1.428 . S
C2070 N2069 1.351 . S
C2070 C2071 1.434 . S
C2071 C2062 1.429 . S
C2071 N2068 1.350 . S
C2071 C2070 1.434 . S
C2072 C2073 1.369 . S
C2072 C2074 1.419 . S
C2072 H2076 0.930 . S
C2073 C2072 1.369 . S
C2073 C2082 1.429 . S
C2074 C2072 1.419 . S
C2074 C2075 1.363 . S
C2074 H2077 0.929 . S
C2075 C2074 1.363 . S
C2075 C2081 1.428 . S
H2076 C2072 0.930 . S
H2077 C2074 0.929 . S
S2078 N2079 1.613 . S
S2078 N2080 1.610 . S
N2079 S2078 1.613 . S
N2079 C2082 1.350 . S
N2080 S2078 1.610 . S
N2080 C2081 1.351 . S
C2081 C2075 1.428 . S
C2081 N2080 1.351 . S
C2081 C2082 1.434 . S
C2082 C2073 1.429 . S
C2082 N2079 1.350 . S
C2082 C2081 1.434 . S
C2083 C2084 1.369 . S
C2083 C2085 1.419 . S
C2083 H2087 0.930 . S
C2084 C2083 1.369 . S
C2084 C2093 1.429 . S
C2085 C2083 1.419 . S
C2085 C2086 1.363 . S
C2085 H2088 0.929 . S
C2086 C2085 1.363 . S
C2086 C2092 1.428 . S
H2087 C2083 0.930 . S
H2088 C2085 0.929 . S
S2089 N2090 1.613 . S
S2089 N2091 1.610 . S
N2090 S2089 1.613 . S
N2090 C2093 1.350 . S
N2091 S2089 1.610 . S
N2091 C2092 1.351 . S
C2092 C2086 1.428 . S
C2092 N2091 1.351 . S
C2092 C2093 1.434 . S
C2093 C2084 1.429 . S
C2093 N2090 1.350 . S
C2093 C2092 1.434 . S
C2094 C2095 1.369 . S
C2094 C2096 1.419 . S
C2094 H2098 0.930 . S
C2095 C2094 1.369 . S
C2095 C2104 1.429 . S
C2096 C2094 1.419 . S
C2096 C2097 1.363 . S
C2096 H2099 0.929 . S
C2097 C2096 1.363 . S
C2097 C2103 1.428 . S
H2098 C2094 0.930 . S
H2099 C2096 0.929 . S
S2100 N2101 1.613 . S
S2100 N2102 1.610 . S
N2101 S2100 1.613 . S
N2101 C2104 1.350 . S
N2102 S2100 1.610 . S
N2102 C2103 1.351 . S
C2103 C2097 1.428 . S
C2103 N2102 1.351 . S
C2103 C2104 1.434 . S
C2104 C2095 1.429 . S
C2104 N2101 1.350 . S
C2104 C2103 1.434 . S
C2105 C2106 1.369 . S
C2105 C2107 1.419 . S
C2105 H2109 0.930 . S
C2106 C2105 1.369 . S
C2106 C2115 1.429 . S
C2107 C2105 1.419 . S
C2107 C2108 1.363 . S
C2107 H2110 0.929 . S
C2108 C2107 1.363 . S
C2108 C2114 1.428 . S
H2109 C2105 0.930 . S
H2110 C2107 0.929 . S
S2111 N2112 1.613 . S
S2111 N2113 1.610 . S
N2112 S2111 1.613 . S
N2112 C2115 1.350 . S
N2113 S2111 1.610 . S
N2113 C2114 1.351 . S
C2114 C2108 1.428 . S
C2114 N2113 1.351 . S
C2114 C2115 1.434 . S
C2115 C2106 1.429 . S
C2115 N2112 1.350 . S
C2115 C2114 1.434 . S
C2116 C2117 1.369 . S
C2116 C2118 1.419 . S
C2116 H2120 0.930 . S
C2117 C2116 1.369 . S
C2117 C2126 1.429 . S
C2118 C2116 1.419 . S
C2118 C2119 1.363 . S
C2118 H2121 0.929 . S
C2119 C2118 1.363 . S
C2119 C2125 1.428 . S
H2120 C2116 0.930 . S
H2121 C2118 0.929 . S
S2122 N2123 1.613 . S
S2122 N2124 1.610 . S
N2123 S2122 1.613 . S
N2123 C2126 1.350 . S
N2124 S2122 1.610 . S
N2124 C2125 1.351 . S
C2125 C2119 1.428 . S
C2125 N2124 1.351 . S
C2125 C2126 1.434 . S
C2126 C2117 1.429 . S
C2126 N2123 1.350 . S
C2126 C2125 1.434 . S
C2127 C2128 1.369 . S
C2127 C2129 1.419 . S
C2127 H2131 0.930 . S
C2128 C2127 1.369 . S
C2128 C2137 1.429 . S
C2129 C2127 1.419 . S
C2129 C2130 1.363 . S
C2129 H2132 0.929 . S
C2130 C2129 1.363 . S
C2130 C2136 1.428 . S
H2131 C2127 0.930 . S
H2132 C2129 0.929 . S
S2133 N2134 1.613 . S
S2133 N2135 1.610 . S
N2134 S2133 1.613 . S
N2134 C2137 1.350 . S
N2135 S2133 1.610 . S
N2135 C2136 1.351 . S
C2136 C2130 1.428 . S
C2136 N2135 1.351 . S
C2136 C2137 1.434 . S
C2137 C2128 1.429 . S
C2137 N2134 1.350 . S
C2137 C2136 1.434 . S
C2138 C2139 1.369 . S
C2138 C2140 1.419 . S
C2138 H2142 0.930 . S
C2139 C2138 1.369 . S
C2139 C2148 1.429 . S
C2140 C2138 1.419 . S
C2140 C2141 1.363 . S
C2140 H2143 0.929 . S
C2141 C2140 1.363 . S
C2141 C2147 1.428 . S
H2142 C2138 0.930 . S
H2143 C2140 0.929 . S
S2144 N2145 1.613 . S
S2144 N2146 1.610 . S
N2145 S2144 1.613 . S
N2145 C2148 1.350 . S
N2146 S2144 1.610 . S
N2146 C2147 1.351 . S
C2147 C2141 1.428 . S
C2147 N2146 1.351 . S
C2147 C2148 1.434 . S
C2148 C2139 1.429 . S
C2148 N2145 1.350 . S
C2148 C2147 1.434 . S
C2149 C2150 1.369 . S
C2149 C2151 1.419 . S
C2149 H2153 0.930 . S
C2150 C2149 1.369 . S
C2150 C2159 1.429 . S
C2151 C2149 1.419 . S
C2151 C2152 1.363 . S
C2151 H2154 0.929 . S
C2152 C2151 1.363 . S
C2152 C2158 1.428 . S
H2153 C2149 0.930 . S
H2154 C2151 0.929 . S
S2155 N2156 1.613 . S
S2155 N2157 1.610 . S
N2156 S2155 1.613 . S
N2156 C2159 1.350 . S
N2157 S2155 1.610 . S
N2157 C2158 1.351 . S
C2158 C2152 1.428 . S
C2158 N2157 1.351 . S
C2158 C2159 1.434 . S
C2159 C2150 1.429 . S
C2159 N2156 1.350 . S
C2159 C2158 1.434 . S
C2160 C2161 1.369 . S
C2160 C2162 1.419 . S
C2160 H2164 0.930 . S
C2161 C2160 1.369 . S
C2161 C2170 1.429 . S
C2162 C2160 1.419 . S
C2162 C2163 1.363 . S
C2162 H2165 0.929 . S
C2163 C2162 1.363 . S
C2163 C2169 1.428 . S
H2164 C2160 0.930 . S
H2165 C2162 0.929 . S
S2166 N2167 1.613 . S
S2166 N2168 1.610 1_556 S
N2167 S2166 1.613 . S
N2167 C2170 1.350 1_556 S
N2168 S2166 1.610 1_554 S
N2168 C2169 1.351 . S
C2169 C2163 1.428 . S
C2169 N2168 1.351 . S
C2169 C2170 1.434 . S
C2170 C2161 1.429 . S
C2170 N2167 1.350 1_554 S
C2170 C2169 1.434 . S
C2171 C2172 1.369 . S
C2171 C2173 1.419 . S
C2171 H2175 0.930 . S
C2172 C2171 1.369 . S
C2172 C2181 1.429 . S
C2173 C2171 1.419 . S
C2173 C2174 1.363 . S
C2173 H2176 0.929 . S
C2174 C2173 1.363 . S
C2174 C2180 1.428 . S
H2175 C2171 0.930 . S
H2176 C2173 0.929 . S
S2177 N2178 1.613 . S
S2177 N2179 1.610 . S
N2178 S2177 1.613 . S
N2178 C2181 1.350 . S
N2179 S2177 1.610 . S
N2179 C2180 1.351 . S
C2180 C2174 1.428 . S
C2180 N2179 1.351 . S
C2180 C2181 1.434 . S
C2181 C2172 1.429 . S
C2181 N2178 1.350 . S
C2181 C2180 1.434 . S
C2182 C2183 1.369 . S
C2182 C2184 1.419 . S
C2182 H2186 0.930 . S
C2183 C2182 1.369 . S
C2183 C2192 1.429 . S
C2184 C2182 1.419 . S
C2184 C2185 1.363 . S
C2184 H2187 0.929 . S
C2185 C2184 1.363 . S
C2185 C2191 1.428 . S
H2186 C2182 0.930 . S
H2187 C2184 0.929 . S
S2188 N2189 1.613 . S
S2188 N2190 1.610 1_556 S
N2189 S2188 1.613 . S
N2189 C2192 1.350 1_556 S
N2190 S2188 1.610 1_554 S
N2190 C2191 1.351 . S
C2191 C2185 1.428 . S
C2191 N2190 1.351 . S
C2191 C2192 1.434 . S
C2192 C2183 1.429 . S
C2192 N2189 1.350 1_554 S
C2192 C2191 1.434 . S
C2193 C2194 1.369 . S
C2193 C2195 1.419 . S
C2193 H2197 0.930 . S
C2194 C2193 1.369 . S
C2194 C2203 1.429 1_556 S
C2195 C2193 1.419 . S
C2195 C2196 1.363 . S
C2195 H2198 0.929 . S
C2196 C2195 1.363 . S
C2196 C2202 1.409 1_556 S
H2197 C2193 0.930 . S
H2198 C2195 0.929 . S
S2199 N2200 1.613 . S
S2199 N2201 1.610 . S
N2200 S2199 1.613 . S
N2200 C2203 1.350 . S
N2201 S2199 1.610 . S
N2201 C2202 1.368 . S
C2202 C2196 1.409 1_554 S
C2202 N2201 1.368 . S
C2202 C2203 1.439 . S
C2203 C2194 1.429 1_554 S
C2203 N2200 1.350 . S
C2203 C2202 1.439 . S
C2204 C2205 1.369 . S
C2204 C2206 1.419 . S
C2204 H2208 0.930 . S
C2205 C2204 1.369 . S
C2205 C2214 1.435 . S
C2206 C2204 1.419 . S
C2206 C2207 1.363 . S
C2206 H2209 0.929 . S
C2207 C2206 1.363 . S
C2207 C2213 1.428 . S
H2208 C2204 0.930 . S
H2209 C2206 0.929 . S
S2210 N2211 1.613 . S
S2210 N2212 1.610 . S
N2211 S2210 1.613 . S
N2211 C2214 1.340 1_554 S
N2212 S2210 1.610 . S
N2212 C2213 1.351 1_554 S
C2213 C2207 1.428 . S
C2213 N2212 1.351 1_556 S
C2213 C2214 1.437 . S
C2214 C2205 1.435 . S
C2214 N2211 1.340 1_556 S
C2214 C2213 1.437 . S
C2215 C2216 1.369 . S
C2215 C2217 1.419 . S
C2215 H2219 0.930 1_556 S
C2216 C2215 1.369 . S
C2216 C2225 1.429 . S
C2217 C2215 1.419 . S
C2217 C2218 1.363 . S
C2217 H2220 0.902 1_556 S
C2218 C2217 1.363 . S
C2218 C2224 1.428 . S
H2219 C2215 0.930 1_554 S
H2220 C2217 0.902 1_554 S
S2221 N2222 1.613 . S
S2221 N2223 1.610 . S
N2222 S2221 1.613 . S
N2222 C2225 1.350 . S
N2223 S2221 1.610 . S
N2223 C2224 1.351 . S
C2224 C2218 1.428 . S
C2224 N2223 1.351 . S
C2224 C2225 1.434 . S
C2225 C2216 1.429 . S
C2225 N2222 1.350 . S
C2225 C2224 1.434 . S
C2226 C2227 1.369 . S
C2226 C2228 1.419 . S
C2226 H2230 0.930 1_556 S
C2227 C2226 1.369 . S
C2227 C2236 1.429 . S
C2228 C2226 1.419 . S
C2228 C2229 1.363 . S
C2228 H2231 0.929 . S
C2229 C2228 1.363 . S
C2229 C2235 1.428 . S
H2230 C2226 0.930 1_554 S
H2231 C2228 0.929 . S
S2232 N2233 1.613 . S
S2232 N2234 1.610 . S
N2233 S2232 1.613 . S
N2233 C2236 1.350 . S
N2234 S2232 1.610 . S
N2234 C2235 1.351 . S
C2235 C2229 1.428 . S
C2235 N2234 1.351 . S
C2235 C2236 1.434 . S
C2236 C2227 1.429 . S
C2236 N2233 1.350 . S
C2236 C2235 1.434 . S
C2237 C2238 1.369 . S
C2237 C2239 1.419 . S
C2237 H2241 0.930 1_556 S
C2238 C2237 1.369 . S
C2238 C2247 1.429 . S
C2239 C2237 1.419 . S
C2239 C2240 1.363 . S
C2239 H2242 0.929 . S
C2240 C2239 1.363 . S
C2240 C2246 1.428 . S
H2241 C2237 0.930 1_554 S
H2242 C2239 0.929 . S
S2243 N2244 1.613 . S
S2243 N2245 1.610 . S
N2244 S2243 1.613 . S
N2244 C2247 1.350 . S
N2245 S2243 1.610 . S
N2245 C2246 1.351 . S
C2246 C2240 1.428 . S
C2246 N2245 1.351 . S
C2246 C2247 1.434 . S
C2247 C2238 1.429 . S
C2247 N2244 1.350 . S
C2247 C2246 1.434 . S
C2248 C2249 1.369 . S
C2248 C2250 1.419 . S
C2248 H2252 0.930 . S
C2249 C2248 1.369 . S
C2249 C2258 1.429 . S
C2250 C2248 1.419 . S
C2250 C2251 1.363 . S
C2250 H2253 0.929 . S
C2251 C2250 1.363 . S
C2251 C2257 1.428 . S
H2252 C2248 0.930 . S
H2253 C2250 0.929 . S
S2254 N2255 1.613 . S
S2254 N2256 1.610 . S
N2255 S2254 1.613 . S
N2255 C2258 1.350 1_554 S
N2256 S2254 1.610 . S
N2256 C2257 1.351 1_554 S
C2257 C2251 1.428 . S
C2257 N2256 1.351 1_556 S
C2257 C2258 1.434 . S
C2258 C2249 1.429 . S
C2258 N2255 1.350 1_556 S
C2258 C2257 1.434 . S
C2259 C2260 1.369 . S
C2259 C2261 1.419 . S
C2259 H2263 0.930 . S
C2260 C2259 1.369 . S
C2260 C2269 1.429 . S
C2261 C2259 1.419 . S
C2261 C2262 1.363 . S
C2261 H2264 0.929 . S
C2262 C2261 1.363 . S
C2262 C2268 1.428 . S
H2263 C2259 0.930 . S
H2264 C2261 0.929 . S
S2265 N2266 1.613 . S
S2265 N2267 1.610 . S
N2266 S2265 1.613 . S
N2266 C2269 1.350 . S
N2267 S2265 1.610 . S
N2267 C2268 1.351 . S
C2268 C2262 1.428 . S
C2268 N2267 1.351 . S
C2268 C2269 1.434 . S
C2269 C2260 1.429 . S
C2269 N2266 1.350 . S
C2269 C2268 1.434 . S
C2270 C2271 1.369 . S
C2270 C2272 1.419 . S
C2270 H2274 0.930 . S
C2271 C2270 1.369 . S
C2271 C2280 1.429 . S
C2272 C2270 1.419 . S
C2272 C2273 1.363 . S
C2272 H2275 0.929 . S
C2273 C2272 1.363 . S
C2273 C2279 1.428 . S
H2274 C2270 0.930 . S
H2275 C2272 0.929 . S
S2276 N2277 1.613 . S
S2276 N2278 1.610 . S
N2277 S2276 1.613 . S
N2277 C2280 1.350 . S
N2278 S2276 1.610 . S
N2278 C2279 1.351 . S
C2279 C2273 1.428 . S
C2279 N2278 1.351 . S
C2279 C2280 1.434 . S
C2280 C2271 1.429 . S
C2280 N2277 1.350 . S
C2280 C2279 1.434 . S
C2281 C2282 1.369 . S
C2281 C2283 1.419 . S
C2281 H2285 0.930 . S
C2282 C2281 1.369 . S
C2282 C2291 1.429 . S
C2283 C2281 1.419 . S
C2283 C2284 1.363 . S
C2283 H2286 0.929 . S
C2284 C2283 1.363 . S
C2284 C2290 1.428 . S
H2285 C2281 0.930 . S
H2286 C2283 0.929 . S
S2287 N2288 1.613 . S
S2287 N2289 1.610 . S
N2288 S2287 1.613 . S
N2288 C2291 1.350 . S
N2289 S2287 1.610 . S
N2289 C2290 1.351 . S
C2290 C2284 1.428 . S
C2290 N2289 1.351 . S
C2290 C2291 1.434 . S
C2291 C2282 1.429 . S
C2291 N2288 1.350 . S
C2291 C2290 1.434 . S
C2292 C2293 1.369 . S
C2292 C2294 1.419 . S
C2292 H2296 0.930 . S
C2293 C2292 1.369 . S
C2293 C2302 1.429 . S
C2294 C2292 1.419 . S
C2294 C2295 1.363 . S
C2294 H2297 0.929 . S
C2295 C2294 1.363 . S
C2295 C2301 1.428 . S
H2296 C2292 0.930 . S
H2297 C2294 0.929 . S
S2298 N2299 1.613 . S
S2298 N2300 1.610 . S
N2299 S2298 1.613 . S
N2299 C2302 1.350 . S
N2300 S2298 1.610 . S
N2300 C2301 1.351 . S
C2301 C2295 1.428 . S
C2301 N2300 1.351 . S
C2301 C2302 1.434 . S
C2302 C2293 1.429 . S
C2302 N2299 1.350 . S
C2302 C2301 1.434 . S
C2303 C2304 1.369 . S
C2303 C2305 1.419 . S
C2303 H2307 0.930 . S
C2304 C2303 1.369 . S
C2304 C2313 1.429 . S
C2305 C2303 1.419 . S
C2305 C2306 1.363 . S
C2305 H2308 0.929 . S
C2306 C2305 1.363 . S
C2306 C2312 1.428 . S
H2307 C2303 0.930 . S
H2308 C2305 0.929 . S
S2309 N2310 1.613 . S
S2309 N2311 1.610 . S
N2310 S2309 1.613 . S
N2310 C2313 1.350 . S
N2311 S2309 1.610 . S
N2311 C2312 1.351 . S
C2312 C2306 1.428 . S
C2312 N2311 1.351 . S
C2312 C2313 1.434 . S
C2313 C2304 1.429 . S
C2313 N2310 1.350 . S
C2313 C2312 1.434 . S
C2314 C2315 1.369 . S
C2314 C2316 1.419 . S
C2314 H2318 0.930 . S
C2315 C2314 1.369 . S
C2315 C2324 1.429 . S
C2316 C2314 1.419 . S
C2316 C2317 1.363 . S
C2316 H2319 0.929 . S
C2317 C2316 1.363 . S
C2317 C2323 1.428 . S
H2318 C2314 0.930 . S
H2319 C2316 0.929 . S
S2320 N2321 1.613 . S
S2320 N2322 1.610 . S
N2321 S2320 1.613 . S
N2321 C2324 1.350 . S
N2322 S2320 1.610 . S
N2322 C2323 1.351 . S
C2323 C2317 1.428 . S
C2323 N2322 1.351 . S
C2323 C2324 1.434 . S
C2324 C2315 1.429 . S
C2324 N2321 1.350 . S
C2324 C2323 1.434 . S
C2325 C2326 1.371 . S
C2325 C2327 1.417 1_455 S
C2325 H2329 0.930 1_455 S
C2326 C2325 1.371 . S
C2326 C2335 1.429 . S
C2327 C2325 1.417 1_655 S
C2327 C2328 1.363 1_655 S
C2327 H2330 0.929 . S
C2328 C2327 1.363 1_455 S
C2328 C2334 1.428 . S
H2329 C2325 0.930 1_655 S
H2330 C2327 0.929 . S
S2331 N2332 1.613 . S
S2331 N2333 1.610 . S
N2332 S2331 1.613 . S
N2332 C2335 1.350 . S
N2333 S2331 1.610 . S
N2333 C2334 1.351 . S
C2334 C2328 1.428 . S
C2334 N2333 1.351 . S
C2334 C2335 1.434 . S
C2335 C2326 1.429 . S
C2335 N2332 1.350 . S
C2335 C2334 1.434 . S
C2336 C2337 1.369 . S
C2336 C2338 1.419 . S
C2336 H2340 0.930 . S
C2337 C2336 1.369 . S
C2337 C2346 1.429 . S
C2338 C2336 1.419 . S
C2338 C2339 1.363 . S
C2338 H2341 0.929 . S
C2339 C2338 1.363 . S
C2339 C2345 1.428 . S
H2340 C2336 0.930 . S
H2341 C2338 0.929 . S
S2342 N2343 1.613 . S
S2342 N2344 1.610 . S
N2343 S2342 1.613 . S
N2343 C2346 1.350 . S
N2344 S2342 1.610 . S
N2344 C2345 1.351 . S
C2345 C2339 1.428 . S
C2345 N2344 1.351 . S
C2345 C2346 1.434 . S
C2346 C2337 1.429 . S
C2346 N2343 1.350 . S
C2346 C2345 1.434 . S
C2347 C2348 1.369 . S
C2347 C2349 1.419 . S
C2347 H2351 0.930 . S
C2348 C2347 1.369 . S
C2348 C2357 1.429 . S
C2349 C2347 1.419 . S
C2349 C2350 1.363 . S
C2349 H2352 0.929 . S
C2350 C2349 1.363 . S
C2350 C2356 1.428 . S
H2351 C2347 0.930 . S
H2352 C2349 0.929 . S
S2353 N2354 1.613 . S
S2353 N2355 1.610 . S
N2354 S2353 1.613 . S
N2354 C2357 1.350 . S
N2355 S2353 1.610 . S
N2355 C2356 1.351 . S
C2356 C2350 1.428 . S
C2356 N2355 1.351 . S
C2356 C2357 1.434 . S
C2357 C2348 1.429 . S
C2357 N2354 1.350 . S
C2357 C2356 1.434 . S
C2358 C2359 1.399 . S
C2358 C2360 1.398 1_565 S
C2358 H2362 0.921 1_565 S
C2359 C2358 1.399 . S
C2359 C2368 1.429 . S
C2360 C2358 1.398 1_545 S
C2360 C2361 1.363 1_545 S
C2360 H2363 0.929 . S
C2361 C2360 1.363 1_565 S
C2361 C2367 1.428 . S
H2362 C2358 0.921 1_545 S
H2363 C2360 0.929 . S
S2364 N2365 1.613 . S
S2364 N2366 1.610 . S
N2365 S2364 1.613 . S
N2365 C2368 1.350 . S
N2366 S2364 1.610 . S
N2366 C2367 1.351 . S
C2367 C2361 1.428 . S
C2367 N2366 1.351 . S
C2367 C2368 1.434 . S
C2368 C2359 1.429 . S
C2368 N2365 1.350 . S
C2368 C2367 1.434 . S
C2369 C2370 1.369 . S
C2369 C2371 1.419 . S
C2369 H2373 0.930 . S
C2370 C2369 1.369 . S
C2370 C2379 1.429 . S
C2371 C2369 1.419 . S
C2371 C2372 1.363 . S
C2371 H2374 0.929 . S
C2372 C2371 1.363 . S
C2372 C2378 1.428 . S
H2373 C2369 0.930 . S
H2374 C2371 0.929 . S
S2375 N2376 1.613 1_655 S
S2375 N2377 1.610 . S
N2376 S2375 1.613 1_455 S
N2376 C2379 1.350 . S
N2377 S2375 1.610 . S
N2377 C2378 1.351 1_655 S
C2378 C2372 1.428 . S
C2378 N2377 1.351 1_455 S
C2378 C2379 1.434 . S
C2379 C2370 1.429 . S
C2379 N2376 1.350 . S
C2379 C2378 1.434 . S
C2380 C2381 1.369 . S
C2380 C2382 1.419 . S
C2380 H2384 0.930 . S
C2381 C2380 1.369 . S
C2381 C2390 1.429 . S
C2382 C2380 1.419 . S
C2382 C2383 1.363 . S
C2382 H2385 0.929 . S
C2383 C2382 1.363 . S
C2383 C2389 1.428 . S
H2384 C2380 0.930 . S
H2385 C2382 0.929 . S
S2386 N2387 1.613 . S
S2386 N2388 1.610 . S
N2387 S2386 1.613 . S
N2387 C2390 1.350 . S
N2388 S2386 1.610 . S
N2388 C2389 1.351 . S
C2389 C2383 1.428 . S
C2389 N2388 1.351 . S
C2389 C2390 1.434 . S
C2390 C2381 1.429 . S
C2390 N2387 1.350 . S
C2390 C2389 1.434 . S
C2391 C2392 1.369 . S
C2391 C2393 1.419 . S
C2391 H2395 0.930 . S
C2392 C2391 1.369 . S
C2392 C2401 1.429 . S
C2393 C2391 1.419 . S
C2393 C2394 1.363 . S
C2393 H2396 0.929 . S
C2394 C2393 1.363 . S
C2394 C2400 1.428 . S
H2395 C2391 0.930 . S
H2396 C2393 0.929 . S
S2397 N2398 1.613 . S
S2397 N2399 1.610 . S
N2398 S2397 1.613 . S
N2398 C2401 1.350 . S
N2399 S2397 1.610 . S
N2399 C2400 1.351 . S
C2400 C2394 1.428 . S
C2400 N2399 1.351 . S
C2400 C2401 1.434 . S
C2401 C2392 1.429 . S
C2401 N2398 1.350 . S
C2401 C2400 1.434 . S
C2402 C2403 1.369 . S
C2402 C2404 1.419 . S
C2402 H2406 0.930 . S
C2403 C2402 1.369 . S
C2403 C2412 1.429 . S
C2404 C2402 1.419 . S
C2404 C2405 1.363 . S
C2404 H2407 0.929 . S
C2405 C2404 1.363 . S
C2405 C2411 1.428 . S
H2406 C2402 0.930 . S
H2407 C2404 0.929 . S
S2408 N2409 1.613 . S
S2408 N2410 1.610 . S
N2409 S2408 1.613 . S
N2409 C2412 1.350 . S
N2410 S2408 1.610 . S
N2410 C2411 1.351 . S
C2411 C2405 1.428 . S
C2411 N2410 1.351 . S
C2411 C2412 1.434 . S
C2412 C2403 1.429 . S
C2412 N2409 1.350 . S
C2412 C2411 1.434 . S
C2413 C2414 1.369 . S
C2413 C2415 1.419 . S
C2413 H2417 0.930 . S
C2414 C2413 1.369 . S
C2414 C2423 1.429 . S
C2415 C2413 1.419 . S
C2415 C2416 1.363 . S
C2415 H2418 0.929 . S
C2416 C2415 1.363 . S
C2416 C2422 1.428 . S
H2417 C2413 0.930 . S
H2418 C2415 0.929 . S
S2419 N2420 1.613 . S
S2419 N2421 1.610 . S
N2420 S2419 1.613 . S
N2420 C2423 1.350 . S
N2421 S2419 1.610 . S
N2421 C2422 1.351 . S
C2422 C2416 1.428 . S
C2422 N2421 1.351 . S
C2422 C2423 1.434 . S
C2423 C2414 1.429 . S
C2423 N2420 1.350 . S
C2423 C2422 1.434 . S
C2424 C2425 1.369 . S
C2424 C2426 1.419 . S
C2424 H2428 0.939 . S
C2425 C2424 1.369 . S
C2425 C2434 1.429 . S
C2426 C2424 1.419 . S
C2426 C2427 1.363 . S
C2426 H2429 0.929 1_545 S
C2427 C2426 1.363 . S
C2427 C2433 1.428 . S
H2428 C2424 0.939 . S
H2429 C2426 0.929 1_565 S
S2430 N2431 1.613 . S
S2430 N2432 1.610 . S
N2431 S2430 1.613 . S
N2431 C2434 1.350 . S
N2432 S2430 1.610 . S
N2432 C2433 1.351 . S
C2433 C2427 1.428 . S
C2433 N2432 1.351 . S
C2433 C2434 1.434 . S
C2434 C2425 1.429 . S
C2434 N2431 1.350 . S
C2434 C2433 1.434 . S
C2435 C2436 1.369 . S
C2435 C2437 1.419 . S
C2435 H2439 0.930 . S
C2436 C2435 1.369 . S
C2436 C2445 1.429 . S
C2437 C2435 1.419 . S
C2437 C2438 1.363 . S
C2437 H2440 0.929 . S
C2438 C2437 1.363 . S
C2438 C2444 1.428 . S
H2439 C2435 0.930 . S
H2440 C2437 0.929 . S
S2441 N2442 1.613 1_455 S
S2441 N2443 1.610 . S
N2442 S2441 1.613 1_655 S
N2442 C2445 1.350 . S
N2443 S2441 1.610 . S
N2443 C2444 1.351 1_455 S
C2444 C2438 1.428 . S
C2444 N2443 1.351 1_655 S
C2444 C2445 1.434 . S
C2445 C2436 1.429 . S
C2445 N2442 1.350 . S
C2445 C2444 1.434 . S
C2446 C2447 1.369 . S
C2446 C2448 1.419 . S
C2446 H2450 0.930 . S
C2447 C2446 1.369 . S
C2447 C2456 1.429 . S
C2448 C2446 1.419 . S
C2448 C2449 1.363 . S
C2448 H2451 0.929 . S
C2449 C2448 1.363 . S
C2449 C2455 1.428 . S
H2450 C2446 0.930 . S
H2451 C2448 0.929 . S
S2452 N2453 1.613 . S
S2452 N2454 1.610 . S
N2453 S2452 1.613 . S
N2453 C2456 1.350 . S
N2454 S2452 1.610 . S
N2454 C2455 1.351 . S
C2455 C2449 1.428 . S
C2455 N2454 1.351 . S
C2455 C2456 1.434 . S
C2456 C2447 1.429 . S
C2456 N2453 1.350 . S
C2456 C2455 1.434 . S
C2457 C2458 1.369 . S
C2457 C2459 1.419 . S
C2457 H2461 0.930 . S
C2458 C2457 1.369 . S
C2458 C2467 1.429 . S
C2459 C2457 1.419 . S
C2459 C2460 1.363 . S
C2459 H2462 0.929 . S
C2460 C2459 1.363 . S
C2460 C2466 1.428 . S
H2461 C2457 0.930 . S
H2462 C2459 0.929 . S
S2463 N2464 1.613 . S
S2463 N2465 1.610 . S
N2464 S2463 1.613 . S
N2464 C2467 1.350 . S
N2465 S2463 1.610 . S
N2465 C2466 1.351 . S
C2466 C2460 1.428 . S
C2466 N2465 1.351 . S
C2466 C2467 1.434 . S
C2467 C2458 1.429 . S
C2467 N2464 1.350 . S
C2467 C2466 1.434 . S
C2468 C2469 1.369 . S
C2468 C2470 1.419 . S
C2468 H2472 0.930 . S
C2469 C2468 1.369 . S
C2469 C2478 1.429 . S
C2470 C2468 1.419 . S
C2470 C2471 1.363 . S
C2470 H2473 0.929 . S
C2471 C2470 1.363 . S
C2471 C2477 1.428 . S
H2472 C2468 0.930 . S
H2473 C2470 0.929 . S
S2474 N2475 1.613 . S
S2474 N2476 1.610 . S
N2475 S2474 1.613 . S
N2475 C2478 1.350 . S
N2476 S2474 1.610 . S
N2476 C2477 1.351 . S
C2477 C2471 1.428 . S
C2477 N2476 1.351 . S
C2477 C2478 1.434 . S
C2478 C2469 1.429 . S
C2478 N2475 1.350 . S
C2478 C2477 1.434 . S
C2479 C2480 1.369 . S
C2479 C2481 1.419 . S
C2479 H2483 0.930 . S
C2480 C2479 1.369 . S
C2480 C2489 1.429 . S
C2481 C2479 1.419 . S
C2481 C2482 1.363 . S
C2481 H2484 0.929 . S
C2482 C2481 1.363 . S
C2482 C2488 1.428 . S
H2483 C2479 0.930 . S
H2484 C2481 0.929 . S
S2485 N2486 1.613 . S
S2485 N2487 1.610 . S
N2486 S2485 1.613 . S
N2486 C2489 1.350 . S
N2487 S2485 1.610 . S
N2487 C2488 1.351 . S
C2488 C2482 1.428 . S
C2488 N2487 1.351 . S
C2488 C2489 1.434 . S
C2489 C2480 1.429 . S
C2489 N2486 1.350 . S
C2489 C2488 1.434 . S
C2490 C2491 1.369 . S
C2490 C2492 1.419 . S
C2490 H2494 0.930 . S
C2491 C2490 1.369 . S
C2491 C2500 1.429 . S
C2492 C2490 1.419 . S
C2492 C2493 1.363 . S
C2492 H2495 0.929 . S
C2493 C2492 1.363 . S
C2493 C2499 1.428 . S
H2494 C2490 0.930 . S
H2495 C2492 0.929 . S
S2496 N2497 1.613 . S
S2496 N2498 1.610 . S
N2497 S2496 1.613 . S
N2497 C2500 1.350 . S
N2498 S2496 1.610 . S
N2498 C2499 1.351 . S
C2499 C2493 1.428 . S
C2499 N2498 1.351 . S
C2499 C2500 1.434 . S
C2500 C2491 1.429 . S
C2500 N2497 1.350 . S
C2500 C2499 1.434 . S
C2501 C2502 1.369 . S
C2501 C2503 1.419 . S
C2501 H2505 0.930 . S
C2502 C2501 1.369 . S
C2502 C2511 1.429 . S
C2503 C2501 1.419 . S
C2503 C2504 1.363 . S
C2503 H2506 0.929 . S
C2504 C2503 1.363 . S
C2504 C2510 1.428 . S
H2505 C2501 0.930 . S
H2506 C2503 0.929 . S
S2507 N2508 1.613 . S
S2507 N2509 1.610 . S
N2508 S2507 1.613 . S
N2508 C2511 1.350 . S
N2509 S2507 1.610 . S
N2509 C2510 1.351 . S
C2510 C2504 1.428 . S
C2510 N2509 1.351 . S
C2510 C2511 1.434 . S
C2511 C2502 1.429 . S
C2511 N2508 1.350 . S
C2511 C2510 1.434 . S
C2512 C2513 1.369 . S
C2512 C2514 1.419 . S
C2512 H2516 0.930 . S
C2513 C2512 1.369 . S
C2513 C2522 1.429 . S
C2514 C2512 1.419 . S
C2514 C2515 1.363 . S
C2514 H2517 0.929 . S
C2515 C2514 1.363 . S
C2515 C2521 1.428 . S
H2516 C2512 0.930 . S
H2517 C2514 0.929 . S
S2518 N2519 1.613 . S
S2518 N2520 1.610 . S
N2519 S2518 1.613 . S
N2519 C2522 1.350 . S
N2520 S2518 1.610 . S
N2520 C2521 1.351 . S
C2521 C2515 1.428 . S
C2521 N2520 1.351 . S
C2521 C2522 1.434 . S
C2522 C2513 1.429 . S
C2522 N2519 1.350 . S
C2522 C2521 1.434 . S
C2523 C2524 1.375 1_455 S
C2523 C2525 1.415 . S
C2523 H2527 0.928 . S
C2524 C2523 1.375 1_655 S
C2524 C2533 1.429 . S
C2525 C2523 1.415 . S
C2525 C2526 1.363 1_455 S
C2525 H2528 0.929 . S
C2526 C2525 1.363 1_655 S
C2526 C2532 1.428 . S
H2527 C2523 0.928 . S
H2528 C2525 0.929 . S
S2529 N2530 1.613 . S
S2529 N2531 1.610 . S
N2530 S2529 1.613 . S
N2530 C2533 1.350 . S
N2531 S2529 1.610 . S
N2531 C2532 1.351 . S
C2532 C2526 1.428 . S
C2532 N2531 1.351 . S
C2532 C2533 1.434 . S
C2533 C2524 1.429 . S
C2533 N2530 1.350 . S
C2533 C2532 1.434 . S
C2534 C2535 1.369 . S
C2534 C2536 1.419 . S
C2534 H2538 0.930 . S
C2535 C2534 1.369 . S
C2535 C2544 1.429 . S
C2536 C2534 1.419 . S
C2536 C2537 1.363 . S
C2536 H2539 0.929 . S
C2537 C2536 1.363 . S
C2537 C2543 1.428 . S
H2538 C2534 0.930 . S
H2539 C2536 0.929 . S
S2540 N2541 1.613 . S
S2540 N2542 1.610 . S
N2541 S2540 1.613 . S
N2541 C2544 1.350 . S
N2542 S2540 1.610 . S
N2542 C2543 1.351 . S
C2543 C2537 1.428 . S
C2543 N2542 1.351 . S
C2543 C2544 1.434 . S
C2544 C2535 1.429 . S
C2544 N2541 1.350 . S
C2544 C2543 1.434 . S
C2545 C2546 1.369 . S
C2545 C2547 1.429 1_545 S
C2545 H2549 0.930 1_545 S
C2546 C2545 1.369 . S
C2546 C2555 1.429 . S
C2547 C2545 1.429 1_565 S
C2547 C2548 1.335 1_565 S
C2547 H2550 0.949 . S
C2548 C2547 1.335 1_545 S
C2548 C2554 1.428 . S
H2549 C2545 0.930 1_565 S
H2550 C2547 0.949 . S
S2551 N2552 1.613 . S
S2551 N2553 1.610 . S
N2552 S2551 1.613 . S
N2552 C2555 1.350 . S
N2553 S2551 1.610 . S
N2553 C2554 1.351 . S
C2554 C2548 1.428 . S
C2554 N2553 1.351 . S
C2554 C2555 1.434 . S
C2555 C2546 1.429 . S
C2555 N2552 1.350 . S
C2555 C2554 1.434 . S
C1765 C4 1.564 1_655 S
C1767 C1253 1.530 . S
C1776 C38 1.764 . S
C1778 C1297 1.718 . S
C1789 C1377 1.540 . S
C1787 C74 1.576 . S
C1798 C76 1.550 . S
C1800 C1421 1.513 . S
C1809 C2 1.653 . S
C1811 C1501 1.611 . S
C1820 C40 1.610 . S
C1822 C1563 1.541 . S
C1831 C110 1.662 . S
C1833 C1483 1.580 . S
C1844 C1545 1.533 . S
C1842 C148 1.619 . S
C1855 C1439 1.628 . S
C1853 C182 1.648 1_565 S
C1864 C184 1.583 . S
C1866 C1359 1.541 . S
C1877 C1235 1.504 . S
C1875 C112 1.556 1_655 S
C1886 C146 1.701 . S
C1888 C1315 1.662 . S
C1897 C220 1.673 . S
C1899 C1625 1.594 . S
C1908 C254 1.809 . S
C1910 C1669 1.767 . S
C1921 C1749 1.626 . S
C1919 C290 1.708 . S
C1930 C292 1.605 . S
C1932 C695 1.527 . S
C1941 C218 1.734 . S
C1943 C739 1.701 . S
C1952 C256 1.627 . S
C1954 C819 1.553 . S
C1963 C326 1.743 . S
C1965 C757 1.701 . S
C1974 C364 1.664 . S
C1976 C801 1.577 . S
C1987 C677 1.663 . S
C1985 C398 1.747 . S
C1998 C1731 1.599 . S
C1996 C400 1.684 . S
C2009 C1607 1.527 . S
C2007 C328 1.592 . S
C2020 C1687 1.703 . S
C2018 C362 1.746 . S
C2029 C436 1.648 . S
C2031 C881 1.578 . S
C2040 C470 1.798 . S
C2042 C943 1.698 . S
C2051 C506 1.706 . S
C2053 C987 1.673 . S
C2062 C508 1.631 . S
C2064 C1049 1.593 . S
C2075 C1111 1.700 . S
C2073 C434 1.739 . S
C2086 C1191 1.567 . S
C2084 C472 1.644 . S
C2097 C1129 1.735 . S
C2095 C542 1.777 . S
C2108 C1173 1.581 . S
C2106 C580 1.665 . S
C2117 C614 1.743 . S
C2119 C1067 1.712 . S
C2130 C1005 1.613 . S
C2128 C616 1.649 . S
C2139 C544 1.594 . S
C2141 C863 1.527 . S
C2152 C925 1.634 . S
C2150 C578 1.725 . S
C2163 C701 1.527 . S
C2161 C14 1.627 . S
C2172 C39 1.578 . S
C2174 C745 1.510 . S
C2185 C825 1.468 . S
C2183 C75 1.571 . S
C2196 C887 1.394 . S
C2194 C86 1.478 . S
C2207 C949 1.506 . S
C2205 C3 1.587 . S
C2218 C993 1.507 . S
C2216 C50 1.569 . S
C2227 C111 1.586 . S
C2229 C1011 1.513 . S
C2238 C158 1.545 . S
C2240 C869 1.432 . S
C2249 C183 1.658 . S
C2251 C931 1.574 . S
C2260 C194 1.588 . S
C2262 C763 1.537 . S
C2273 C807 1.438 . S
C2271 C122 1.544 . S
C2282 C147 1.502 . S
C2284 C683 1.421 . S
C2295 C1055 1.532 . S
C2293 C230 1.612 . S
C2304 C255 1.616 . S
C2306 C1117 1.555 . S
C2315 C291 1.589 . S
C2317 C1197 1.471 . S
C2328 C1259 1.354 . S
C2326 C302 1.406 . S
C2337 C219 1.576 . S
C2339 C1303 1.511 . S
C2348 C266 1.451 . S
C2350 C1383 1.418 . S
C2359 C327 1.447 . S
C2361 C1365 1.358 . S
C2370 C374 1.464 . S
C2372 C1241 1.400 . S
C2383 C1321 1.583 . S
C2381 C399 1.638 . S
C2392 C410 1.587 . S
C2394 C1135 1.532 . S
C2403 C338 1.581 . S
C2405 C1179 1.479 . S
C2416 C1073 1.477 . S
C2414 C363 1.542 . S
C2427 C1427 1.446 . S
C2425 C446 1.482 . S
C2436 C471 1.485 . S
C2438 C1507 1.422 . S
C2447 C507 1.548 . S
C2449 C1569 1.438 . S
C2460 C1631 1.400 . S
C2458 C518 1.496 . S
C2471 C1675 1.554 . S
C2469 C435 1.621 . S
C2480 C482 1.636 . S
C2482 C1755 1.521 . S
C2491 C543 1.565 . S
C2493 C1737 1.452 . S
C2502 C590 1.579 . S
C2504 C1613 1.470 . S
C2515 C1693 1.605 . S
C2513 C615 1.675 . S
C2526 C1489 1.426 . S
C2524 C626 1.453 . S
C2537 C1551 1.451 . S
C2535 C554 1.550 . S
C2546 C579 1.439 . S
C2548 C1445 1.381 . S
