# Generated by pormake.
# Topology pyr, (3,6)-cn, num edge types: 1
# Building blocks:
#     Node 0, Type 0, BuildingBlock: VETTIZ_charged_linker_0, # of connection points: 3
#     Node 1, Type 0, BuildingBlock: VETTIZ_charged_linker_0, # of connection points: 3
#     Node 2, Type 0, BuildingBlock: VETTIZ_charged_linker_0, # of connection points: 3
#     Node 3, Type 0, BuildingBlock: VETTIZ_charged_linker_0, # of connection points: 3
#     Node 4, Type 0, BuildingBlock: VETTIZ_charged_linker_0, # of connection points: 3
#     Node 5, Type 0, BuildingBlock: VETTIZ_charged_linker_0, # of connection points: 3
#     Node 6, Type 0, BuildingBlock: VETTIZ_charged_linker_0, # of connection points: 3
#     Node 7, Type 0, BuildingBlock: VETTIZ_charged_linker_0, # of connection points: 3
#     Node 8, Type 1, BuildingBlock: INOVEN_clean_sbu_0, # of connection points: 6
#     Node 9, Type 1, BuildingBlock: INOVEN_clean_sbu_0, # of connection points: 6
#     Node 10, Type 1, BuildingBlock: INOVEN_clean_sbu_0, # of connection points: 6
#     Node 11, Type 1, BuildingBlock: INOVEN_clean_sbu_0, # of connection points: 6
#     Edge 12, Type (0, 1), BuildingBlock: AJUNOK_clean_linker_0, # of connection points: 2
#     Edge 13, Type (0, 1), BuildingBlock: AJUNOK_clean_linker_0, # of connection points: 2
#     Edge 14, Type (0, 1), BuildingBlock: AJUNOK_clean_linker_0, # of connection points: 2
#     Edge 15, Type (0, 1), BuildingBlock: AJUNOK_clean_linker_0, # of connection points: 2
#     Edge 16, Type (0, 1), BuildingBlock: AJUNOK_clean_linker_0, # of connection points: 2
#     Edge 17, Type (0, 1), BuildingBlock: AJUNOK_clean_linker_0, # of connection points: 2
#     Edge 18, Type (0, 1), BuildingBlock: AJUNOK_clean_linker_0, # of connection points: 2
#     Edge 19, Type (0, 1), BuildingBlock: AJUNOK_clean_linker_0, # of connection points: 2
#     Edge 20, Type (0, 1), BuildingBlock: AJUNOK_clean_linker_0, # of connection points: 2
#     Edge 21, Type (0, 1), BuildingBlock: AJUNOK_clean_linker_0, # of connection points: 2
#     Edge 22, Type (0, 1), BuildingBlock: AJUNOK_clean_linker_0, # of connection points: 2
#     Edge 23, Type (0, 1), BuildingBlock: AJUNOK_clean_linker_0, # of connection points: 2
#     Edge 24, Type (0, 1), BuildingBlock: AJUNOK_clean_linker_0, # of connection points: 2
#     Edge 25, Type (0, 1), BuildingBlock: AJUNOK_clean_linker_0, # of connection points: 2
#     Edge 26, Type (0, 1), BuildingBlock: AJUNOK_clean_linker_0, # of connection points: 2
#     Edge 27, Type (0, 1), BuildingBlock: AJUNOK_clean_linker_0, # of connection points: 2
#     Edge 28, Type (0, 1), BuildingBlock: AJUNOK_clean_linker_0, # of connection points: 2
#     Edge 29, Type (0, 1), BuildingBlock: AJUNOK_clean_linker_0, # of connection points: 2
#     Edge 30, Type (0, 1), BuildingBlock: AJUNOK_clean_linker_0, # of connection points: 2
#     Edge 31, Type (0, 1), BuildingBlock: AJUNOK_clean_linker_0, # of connection points: 2
#     Edge 32, Type (0, 1), BuildingBlock: AJUNOK_clean_linker_0, # of connection points: 2
#     Edge 33, Type (0, 1), BuildingBlock: AJUNOK_clean_linker_0, # of connection points: 2
#     Edge 34, Type (0, 1), BuildingBlock: AJUNOK_clean_linker_0, # of connection points: 2
#     Edge 35, Type (0, 1), BuildingBlock: AJUNOK_clean_linker_0, # of connection points: 2
# Relax obj value: 0.131
# Max RMSD: 0.140
# Mean RMSD: 0.065
data_MOF--net-pyr--node1-INOVEN_clean_sbu_0--node2-VETTIZ_charged_linker_0--edge1-AJUNOK_clean_linker_0
_symmetry_space_group_name_H-M    P1
_symmetry_Int_Tables_number       1
_symmetry_cell_setting            triclinic
loop_
_symmetry_equiv_pos_as_xyz
'x, y, z'
_cell_length_a     36.215937
_cell_length_b     39.054933
_cell_length_c     36.17312
_cell_angle_alpha  91.599236
_cell_angle_beta   88.621398
_cell_angle_gamma 99.678565
loop_
_atom_site_label
_atom_site_type_symbol
_atom_site_fract_x
_atom_site_fract_y
_atom_site_fract_z
_atom_type_partial_charge
C0 C 0.31528 0.23752 0.34011 0.0
C1 C 0.28306 0.24847 0.35549 0.0
C2 C 0.27481 0.28095 0.34572 0.0
C3 C 0.3216 0.2842 0.2966 0.0
C4 C 0.33344 0.25509 0.30975 0.0
C5 C 0.36143 0.24196 0.28383 0.0
H6 H 0.41449 0.21822 0.10859 0.0
C7 C 0.33744 0.29027 0.25893 0.0
C8 C 0.36123 0.26596 0.25133 0.0
H9 H 0.45394 0.1763 0.20678 0.0
H10 H 0.42449 0.21626 0.24508 0.0
H11 H 0.4328 0.30045 0.14137 0.0
H12 H 0.33141 0.22439 0.13765 0.0
H13 H 0.32197 0.26455 0.12277 0.0
H14 H 0.35465 0.24308 0.09671 0.0
H15 H 0.40869 0.28842 0.09896 0.0
H16 H 0.39551 0.32155 0.12997 0.0
C17 C 0.4 0.24733 0.30283 0.0
C18 C 0.34616 0.2035 0.27319 0.0
C19 C 0.27512 0.36559 0.17689 0.0
C20 C 0.27418 0.36912 0.13849 0.0
C21 C 0.29811 0.35239 0.11558 0.0
C22 C 0.32203 0.33185 0.13088 0.0
C23 C 0.32133 0.32736 0.16939 0.0
C24 C 0.29839 0.34451 0.19162 0.0
C25 C 0.29866 0.33499 0.23146 0.0
C26 C 0.32648 0.30991 0.2299 0.0
C27 C 0.33961 0.30531 0.19349 0.0
C28 C 0.31383 0.36823 0.25436 0.0
C29 C 0.25832 0.31729 0.24301 0.0
C30 C 0.41654 0.2176 0.13838 0.0
C31 C 0.43544 0.1934 0.15487 0.0
C32 C 0.43902 0.19432 0.19357 0.0
C33 C 0.42168 0.21716 0.21574 0.0
C34 C 0.39997 0.23878 0.19911 0.0
C35 C 0.3994 0.24037 0.16108 0.0
C36 C 0.37754 0.26756 0.14881 0.0
C37 C 0.36401 0.28087 0.18585 0.0
C38 C 0.37618 0.26276 0.215 0.0
C39 C 0.40478 0.29601 0.12844 0.0
C40 C 0.34469 0.24923 0.12502 0.0
H41 H 0.28584 0.32292 0.3091 0.0
H42 H 0.32309 0.21337 0.34851 0.0
H43 H 0.31676 0.20073 0.26378 0.0
H44 H 0.36215 0.19297 0.25065 0.0
H45 H 0.3466 0.18643 0.29715 0.0
H46 H 0.40086 0.265 0.32757 0.0
H47 H 0.40689 0.22233 0.31218 0.0
H48 H 0.42289 0.25975 0.28423 0.0
H49 H 0.25617 0.37711 0.19514 0.0
H50 H 0.29767 0.35463 0.08582 0.0
H51 H 0.33921 0.31935 0.11207 0.0
H52 H 0.33823 0.3838 0.23992 0.0
H53 H 0.29199 0.3849 0.25853 0.0
H54 H 0.32417 0.36245 0.28162 0.0
H55 H 0.23919 0.31202 0.21916 0.0
H56 H 0.25787 0.2914 0.25495 0.0
H57 H 0.24506 0.33377 0.26309 0.0
H58 H 0.25074 0.29052 0.35785 0.0
C59 C 0.29452 0.29925 0.3167 0.0
C60 C 0.16606 0.89809 0.59763 0.0
C61 C 0.14511 0.91991 0.61747 0.0
C62 C 0.14276 0.91816 0.6564 0.0
C63 C 0.18406 0.87538 0.65485 0.0
C64 C 0.18453 0.87571 0.61671 0.0
C65 C 0.20624 0.84971 0.59945 0.0
H66 H 0.31759 0.73032 0.62061 0.0
C67 C 0.20688 0.84969 0.66598 0.0
C68 C 0.21894 0.83384 0.63363 0.0
H69 H 0.28267 0.76818 0.51835 0.0
H70 H 0.24416 0.8038 0.55274 0.0
H71 H 0.33373 0.80503 0.65797 0.0
H72 H 0.24016 0.72155 0.66564 0.0
H73 H 0.2458 0.74048 0.71023 0.0
H74 H 0.2831 0.72081 0.68909 0.0
H75 H 0.33587 0.76537 0.68107 0.0
H76 H 0.32061 0.80171 0.70477 0.0
C77 C 0.23963 0.86979 0.577 0.0
C78 C 0.17899 0.82299 0.57638 0.0
C79 C 0.25448 0.85209 0.79654 0.0
C80 C 0.28021 0.83405 0.81279 0.0
C81 C 0.28874 0.80372 0.79506 0.0
C82 C 0.27538 0.79388 0.7597 0.0
C83 C 0.25353 0.81474 0.74192 0.0
C84 C 0.24147 0.84201 0.76109 0.0
C85 C 0.21686 0.86019 0.7381 0.0
C86 C 0.21945 0.84145 0.70096 0.0
C87 C 0.2414 0.81524 0.70337 0.0
C88 C 0.23427 0.89915 0.73632 0.0
C89 C 0.17653 0.85351 0.75482 0.0
C90 C 0.30091 0.74577 0.60572 0.0
C91 C 0.30235 0.74634 0.56701 0.0
C92 C 0.28146 0.76739 0.54828 0.0
C93 C 0.25933 0.78796 0.56833 0.0
C94 C 0.25895 0.7878 0.60732 0.0
C95 C 0.27948 0.76681 0.62525 0.0
C96 C 0.27857 0.7719 0.6665 0.0
C97 C 0.25278 0.79857 0.67072 0.0
C98 C 0.24164 0.80789 0.63603 0.0
C99 C 0.31915 0.78655 0.67859 0.0
C100 C 0.2613 0.73693 0.68406 0.0
H101 H 0.15998 0.89607 0.7048 0.0
H102 H 0.16837 0.8985 0.56773 0.0
H103 H 0.15053 0.81836 0.58948 0.0
H104 H 0.18741 0.79708 0.57451 0.0
H105 H 0.17621 0.83234 0.54803 0.0
H106 H 0.25082 0.89503 0.59096 0.0
H107 H 0.23095 0.87548 0.54888 0.0
H108 H 0.2638 0.85598 0.57448 0.0
H109 H 0.24692 0.87515 0.80992 0.0
H110 H 0.30745 0.78874 0.8077 0.0
H111 H 0.28426 0.7715 0.74676 0.0
H112 H 0.26453 0.90215 0.72851 0.0
H113 H 0.23176 0.9125 0.76355 0.0
H114 H 0.2211 0.91325 0.71574 0.0
H115 H 0.17191 0.83065 0.77307 0.0
H116 H 0.15508 0.84725 0.7332 0.0
H117 H 0.17053 0.87622 0.77168 0.0
H118 H 0.12559 0.93358 0.67235 0.0
C119 C 0.16232 0.89611 0.6752 0.0
C120 C 0.63126 0.25195 0.91281 0.0
C121 C 0.59724 0.22892 0.90479 0.0
C122 C 0.57669 0.24019 0.87532 0.0
C123 C 0.62246 0.29463 0.86513 0.0
C124 C 0.64261 0.28389 0.89364 0.0
C125 C 0.67721 0.31031 0.90145 0.0
H126 H 0.791 0.46695 0.88358 0.0
C127 C 0.64291 0.33027 0.8513 0.0
C128 C 0.67492 0.33897 0.87389 0.0
H129 H 0.80359 0.38135 0.95292 0.0
H130 H 0.74817 0.34784 0.92841 0.0
H131 H 0.6966 0.45829 0.88668 0.0
H132 H 0.76796 0.41241 0.80891 0.0
H133 H 0.73341 0.4297 0.78549 0.0
H134 H 0.76813 0.45846 0.81144 0.0
H135 H 0.72924 0.4843 0.8563 0.0
H136 H 0.6839 0.46368 0.84058 0.0
C137 C 0.67382 0.32353 0.942 0.0
C138 C 0.7119 0.29261 0.89321 0.0
C139 C 0.5995 0.39817 0.73877 0.0
C140 C 0.61287 0.43157 0.72241 0.0
C141 C 0.64471 0.45104 0.73992 0.0
C142 C 0.6624 0.43889 0.77066 0.0
C143 C 0.64907 0.40612 0.78619 0.0
C144 C 0.61764 0.38624 0.77052 0.0
C145 C 0.60661 0.35257 0.79262 0.0
C146 C 0.63709 0.35478 0.82254 0.0
C147 C 0.66231 0.38691 0.81853 0.0
C148 C 0.56767 0.35266 0.81054 0.0
C149 C 0.60722 0.32093 0.76648 0.0
C150 C 0.78179 0.44104 0.89373 0.0
C151 C 0.80195 0.42844 0.92282 0.0
C152 C 0.78853 0.39372 0.93314 0.0
C153 C 0.75606 0.37353 0.91802 0.0
C154 C 0.73559 0.38679 0.89065 0.0
C155 C 0.74906 0.41976 0.87804 0.0
C156 C 0.72473 0.42791 0.84637 0.0
C157 C 0.69406 0.39518 0.84313 0.0
C158 C 0.70055 0.37123 0.86984 0.0
C159 C 0.70776 0.46042 0.85776 0.0
C160 C 0.74971 0.43266 0.81106 0.0
H161 H 0.57159 0.27818 0.83403 0.0
H162 H 0.64977 0.24535 0.93343 0.0
H163 H 0.70621 0.27241 0.87082 0.0
H164 H 0.73633 0.31093 0.88276 0.0
H165 H 0.72004 0.27976 0.91804 0.0
H166 H 0.64445 0.32663 0.94896 0.0
H167 H 0.68204 0.30497 0.96171 0.0
H168 H 0.69053 0.34944 0.94736 0.0
H169 H 0.57495 0.38187 0.72766 0.0
H170 H 0.65675 0.47623 0.72939 0.0
H171 H 0.68623 0.45592 0.78152 0.0
H172 H 0.56723 0.37724 0.8267 0.0
H173 H 0.54587 0.35043 0.78909 0.0
H174 H 0.55994 0.33109 0.82982 0.0
H175 H 0.63501 0.3227 0.75225 0.0
H176 H 0.60207 0.29637 0.78169 0.0
H177 H 0.5855 0.31961 0.74506 0.0
H178 H 0.55045 0.22454 0.86729 0.0
C179 C 0.58889 0.27201 0.85583 0.0
C180 C 0.9356 0.8095 0.38401 0.0
C181 C 0.92288 0.82725 0.41612 0.0
C182 C 0.88994 0.80997 0.43379 0.0
C183 C 0.88354 0.76017 0.38981 0.0
C184 C 0.91563 0.77605 0.37153 0.0
C185 C 0.92485 0.75258 0.33884 0.0
H186 H 0.87442 0.6007 0.23158 0.0
C187 C 0.86871 0.72575 0.3707 0.0
C188 C 0.89283 0.7208 0.34022 0.0
H189 H 0.97425 0.67736 0.21648 0.0
H190 H 0.95491 0.71111 0.26872 0.0
H191 H 0.88091 0.59993 0.32376 0.0
H192 H 0.81633 0.65456 0.25359 0.0
H193 H 0.78791 0.63469 0.28994 0.0
H194 H 0.8078 0.60799 0.2561 0.0
H195 H 0.84435 0.57739 0.29505 0.0
H196 H 0.834 0.59523 0.33979 0.0
C197 C 0.96315 0.74194 0.34557 0.0
C198 C 0.92435 0.77249 0.30277 0.0
C199 C 0.74869 0.65202 0.4248 0.0
C200 C 0.72594 0.61983 0.41506 0.0
C201 C 0.73706 0.60276 0.38252 0.0
C202 C 0.76955 0.61652 0.36125 0.0
C203 C 0.79214 0.64833 0.37181 0.0
C204 C 0.78105 0.66554 0.40311 0.0
C205 C 0.8073 0.69948 0.41005 0.0
C206 C 0.83636 0.69987 0.37847 0.0
C207 C 0.82775 0.66967 0.35576 0.0
C208 C 0.8252 0.69757 0.44825 0.0
C209 C 0.78438 0.7294 0.40696 0.0
C210 C 0.89319 0.62412 0.23945 0.0
C211 C 0.92695 0.63499 0.21839 0.0
C212 C 0.94819 0.66729 0.23063 0.0
C213 C 0.93701 0.68712 0.26165 0.0
C214 C 0.90382 0.67534 0.28234 0.0
C215 C 0.88271 0.64397 0.27089 0.0
C216 C 0.84862 0.63435 0.29618 0.0
C217 C 0.85223 0.66465 0.32453 0.0
C218 C 0.8848 0.68953 0.31655 0.0
C219 C 0.85176 0.59978 0.31464 0.0
C220 C 0.81311 0.63252 0.27288 0.0
H221 H 0.84601 0.76676 0.43666 0.0
H222 H 0.96083 0.82096 0.36934 0.0
H223 H 0.89768 0.78284 0.30092 0.0
H224 H 0.92642 0.7557 0.27803 0.0
H225 H 0.94789 0.79475 0.30174 0.0
H226 H 0.96387 0.73176 0.37391 0.0
H227 H 0.98608 0.76457 0.34287 0.0
H228 H 0.96904 0.72115 0.32618 0.0
H229 H 0.74124 0.66691 0.44869 0.0
H230 H 0.72085 0.57816 0.37368 0.0
H231 H 0.77597 0.60172 0.33718 0.0
H232 H 0.83111 0.67097 0.45282 0.0
H233 H 0.80621 0.70394 0.47106 0.0
H234 H 0.8526 0.7147 0.45081 0.0
H235 H 0.76207 0.72283 0.38607 0.0
H236 H 0.80147 0.75372 0.39718 0.0
H237 H 0.77055 0.73466 0.43377 0.0
H238 H 0.87835 0.822 0.45772 0.0
C239 C 0.87066 0.77741 0.42115 0.0
C240 C 0.74226 0.70924 0.91394 0.0
C241 C 0.76237 0.6847 0.89739 0.0
C242 C 0.75739 0.67583 0.85961 0.0
C243 C 0.7202 0.72107 0.85374 0.0
C244 C 0.72059 0.72663 0.89154 0.0
C245 C 0.69749 0.75398 0.90336 0.0
H246 H 0.6122 0.88757 0.85463 0.0
C247 C 0.70186 0.74754 0.83712 0.0
C248 C 0.68675 0.76601 0.86593 0.0
H249 H 0.61855 0.84702 0.96366 0.0
H250 H 0.64962 0.80104 0.93808 0.0
H251 H 0.59391 0.81119 0.80685 0.0
H252 H 0.68825 0.88788 0.83355 0.0
H253 H 0.70551 0.86504 0.79635 0.0
H254 H 0.66675 0.88773 0.78964 0.0
H255 H 0.60396 0.85505 0.79098 0.0
H256 H 0.62218 0.82048 0.76653 0.0
C257 C 0.66284 0.73627 0.92577 0.0
C258 C 0.72281 0.78327 0.92499 0.0
C259 C 0.74692 0.78709 0.71004 0.0
C260 C 0.74635 0.81886 0.69303 0.0
C261 C 0.71836 0.8384 0.70389 0.0
C262 C 0.69449 0.8285 0.73419 0.0
C263 C 0.69968 0.79967 0.7546 0.0
C264 C 0.72432 0.77851 0.74148 0.0
C265 C 0.72867 0.75071 0.76823 0.0
C266 C 0.70427 0.76017 0.80059 0.0
C267 C 0.68764 0.78899 0.79246 0.0
C268 C 0.71315 0.7147 0.75046 0.0
C269 C 0.77068 0.75519 0.77832 0.0
C270 C 0.61955 0.86825 0.87277 0.0
C271 C 0.61259 0.87042 0.911 0.0
C272 C 0.62357 0.84558 0.93405 0.0
C273 C 0.64153 0.81899 0.91919 0.0
C274 C 0.64928 0.8177 0.88096 0.0
C275 C 0.6381 0.84194 0.85842 0.0
C276 C 0.65088 0.83804 0.81892 0.0
C277 C 0.66946 0.80604 0.82102 0.0
C278 C 0.6689 0.79453 0.85754 0.0
C279 C 0.61599 0.83097 0.79426 0.0
C280 C 0.67913 0.87126 0.80885 0.0
H281 H 0.73396 0.6868 0.80896 0.0
H282 H 0.74475 0.71571 0.94318 0.0
H283 H 0.7499 0.79104 0.90986 0.0
H284 H 0.71039 0.80707 0.9287 0.0
H285 H 0.72903 0.77452 0.95278 0.0
H286 H 0.6554 0.70819 0.91817 0.0
H287 H 0.66802 0.73823 0.95596 0.0
H288 H 0.63737 0.74726 0.92007 0.0
H289 H 0.76767 0.77132 0.70155 0.0
H290 H 0.71711 0.86299 0.6913 0.0
H291 H 0.67476 0.84506 0.74218 0.0
H292 H 0.69731 0.71689 0.7249 0.0
H293 H 0.73609 0.70007 0.7427 0.0
H294 H 0.69303 0.69868 0.76928 0.0
H295 H 0.78122 0.78251 0.78724 0.0
H296 H 0.7764 0.73871 0.80086 0.0
H297 H 0.788 0.74867 0.75423 0.0
H298 H 0.77229 0.65686 0.8463 0.0
C299 C 0.73584 0.69357 0.83783 0.0
C300 C 0.86718 0.16922 0.45422 0.0
C301 C 0.89254 0.15164 0.43463 0.0
C302 C 0.89854 0.15725 0.39643 0.0
C303 C 0.85184 0.19501 0.39775 0.0
C304 C 0.84771 0.191 0.43548 0.0
C305 C 0.82002 0.21154 0.4526 0.0
H306 H 0.68596 0.30848 0.43025 0.0
C307 C 0.82612 0.21822 0.38666 0.0
C308 C 0.80824 0.22873 0.41886 0.0
H309 H 0.71872 0.26724 0.53171 0.0
H310 H 0.76958 0.24554 0.49894 0.0
H311 H 0.6823 0.25403 0.3839 0.0
H312 H 0.77511 0.33459 0.39727 0.0
H313 H 0.77063 0.32463 0.34949 0.0
H314 H 0.73145 0.33662 0.37559 0.0
H315 H 0.6928 0.2862 0.34948 0.0
H316 H 0.70996 0.24549 0.34536 0.0
C317 C 0.78735 0.18558 0.46978 0.0
C318 C 0.8409 0.23848 0.48044 0.0
C319 C 0.78793 0.22044 0.25332 0.0
C320 C 0.7603 0.23605 0.23678 0.0
C321 C 0.74651 0.26333 0.25593 0.0
C322 C 0.75664 0.27205 0.29249 0.0
C323 C 0.78062 0.2532 0.31005 0.0
C324 C 0.79785 0.22955 0.28995 0.0
C325 C 0.82355 0.21299 0.31342 0.0
C326 C 0.81549 0.22797 0.35148 0.0
C327 C 0.78979 0.25098 0.34924 0.0
C328 C 0.81139 0.17304 0.31115 0.0
C329 C 0.86454 0.22552 0.3003 0.0
C330 C 0.70416 0.29471 0.44536 0.0
C331 C 0.69819 0.28882 0.48328 0.0
C332 C 0.72279 0.27167 0.50235 0.0
C333 C 0.75211 0.25909 0.48321 0.0
C334 C 0.75646 0.26359 0.44472 0.0
C335 C 0.73304 0.28169 0.42662 0.0
C336 C 0.74087 0.2834 0.38568 0.0
C337 C 0.77222 0.26212 0.38186 0.0
C338 C 0.78135 0.25092 0.41648 0.0
C339 C 0.70483 0.26661 0.3649 0.0
C340 C 0.75508 0.32183 0.37621 0.0
H341 H 0.88337 0.18188 0.34871 0.0
H342 H 0.86188 0.16558 0.48357 0.0
H343 H 0.8699 0.24836 0.47034 0.0
H344 H 0.82767 0.26189 0.48417 0.0
H345 H 0.84297 0.22679 0.5078 0.0
H346 H 0.78235 0.1607 0.45347 0.0
H347 H 0.79356 0.17937 0.49852 0.0
H348 H 0.76023 0.1949 0.46976 0.0
H349 H 0.79906 0.19942 0.23936 0.0
H350 H 0.72589 0.27629 0.24345 0.0
H351 H 0.74388 0.29178 0.30636 0.0
H352 H 0.78067 0.16597 0.31622 0.0
H353 H 0.81809 0.16251 0.28342 0.0
H354 H 0.82494 0.15927 0.33172 0.0
H355 H 0.86742 0.25012 0.28489 0.0
H356 H 0.8838 0.23162 0.3238 0.0
H357 H 0.87477 0.2059 0.28165 0.0
H358 H 0.91887 0.14493 0.38092 0.0
C359 C 0.87824 0.17888 0.37786 0.0
C360 C 0.43952 0.66762 0.31107 0.0
C361 C 0.42587 0.63412 0.32705 0.0
C362 C 0.39345 0.6153 0.30996 0.0
C363 C 0.38969 0.66051 0.26394 0.0
C364 C 0.42134 0.68003 0.27959 0.0
C365 C 0.43243 0.71391 0.25783 0.0
H366 H 0.39254 0.8214 0.11518 0.0
C367 C 0.37662 0.68002 0.23178 0.0
C368 C 0.40191 0.71206 0.22794 0.0
H369 H 0.48864 0.84263 0.18543 0.0
H370 H 0.46713 0.78844 0.21773 0.0
H371 H 0.33324 0.79467 0.1788 0.0
H372 H 0.39545 0.73919 0.10203 0.0
H373 H 0.34858 0.71802 0.10261 0.0
H374 H 0.35943 0.76241 0.0883 0.0
H375 H 0.32033 0.78763 0.13129 0.0
H376 H 0.30317 0.75631 0.16617 0.0
C377 C 0.43185 0.74526 0.28438 0.0
C378 C 0.47136 0.71391 0.23984 0.0
C379 C 0.2575 0.62575 0.15689 0.0
C380 C 0.23626 0.63821 0.12846 0.0
C381 C 0.25004 0.67281 0.11752 0.0
C382 C 0.28285 0.69309 0.13212 0.0
C383 C 0.3035 0.68013 0.15953 0.0
C384 C 0.29021 0.6472 0.17223 0.0
C385 C 0.31448 0.63913 0.20391 0.0
C386 C 0.34499 0.67188 0.20711 0.0
C387 C 0.33858 0.69583 0.18034 0.0
C388 C 0.28943 0.6344 0.23921 0.0
C389 C 0.33162 0.60668 0.19255 0.0
C390 C 0.40915 0.81519 0.13773 0.0
C391 C 0.44278 0.83819 0.14701 0.0
C392 C 0.46288 0.82663 0.17654 0.0
C393 C 0.45028 0.79473 0.19564 0.0
C394 C 0.41681 0.7723 0.18569 0.0
C395 C 0.39717 0.78318 0.1568 0.0
C396 C 0.36255 0.75678 0.14864 0.0
C397 C 0.36432 0.72809 0.1764 0.0
C398 C 0.39618 0.73669 0.19926 0.0
C399 C 0.32787 0.77459 0.15626 0.0
C400 C 0.36628 0.74339 0.10824 0.0
H401 H 0.35169 0.61118 0.26873 0.0
H402 H 0.46426 0.68354 0.32229 0.0
H403 H 0.47176 0.68943 0.22348 0.0
H404 H 0.47912 0.7356 0.22073 0.0
H405 H 0.49316 0.71594 0.26127 0.0
H406 H 0.40414 0.74323 0.29882 0.0
H407 H 0.45372 0.74644 0.30562 0.0
H408 H 0.43672 0.77 0.2695 0.0
H409 H 0.24958 0.5998 0.16707 0.0
H410 H 0.2352 0.68519 0.09762 0.0
H411 H 0.29082 0.71866 0.12139 0.0
H412 H 0.27011 0.65376 0.24063 0.0
H413 H 0.27206 0.60809 0.23956 0.0
H414 H 0.30559 0.63882 0.26485 0.0
H415 H 0.34259 0.60872 0.16357 0.0
H416 H 0.35565 0.60362 0.2096 0.0
H417 H 0.31028 0.58271 0.19423 0.0
H418 H 0.38098 0.59027 0.32059 0.0
C419 C 0.37586 0.62785 0.27944 0.0
C420 C 0.10072 0.25692 0.66817 0.0
C421 C 0.11278 0.23927 0.6357 0.0
C422 C 0.14543 0.25657 0.61754 0.0
C423 C 0.15265 0.30629 0.66166 0.0
C424 C 0.12091 0.29033 0.68044 0.0
C425 C 0.1125 0.31345 0.71371 0.0
H426 H 0.15721 0.46992 0.81429 0.0
C427 C 0.16764 0.3408 0.68056 0.0
C428 C 0.144 0.34559 0.71149 0.0
H429 H 0.06711 0.38578 0.8396 0.0
H430 H 0.08526 0.35301 0.78622 0.0
H431 H 0.15131 0.46556 0.72357 0.0
H432 H 0.21958 0.41738 0.79625 0.0
H433 H 0.24694 0.43593 0.75868 0.0
H434 H 0.22636 0.46364 0.79095 0.0
H435 H 0.18713 0.49062 0.75136 0.0
H436 H 0.1983 0.47175 0.70739 0.0
C437 C 0.07362 0.32352 0.7088 0.0
C438 C 0.11493 0.29334 0.74935 0.0
C439 C 0.28768 0.4146 0.62595 0.0
C440 C 0.31005 0.44708 0.63541 0.0
C441 C 0.29732 0.46525 0.66647 0.0
C442 C 0.26452 0.45172 0.68734 0.0
C443 C 0.24301 0.41913 0.6778 0.0
C444 C 0.25493 0.40128 0.64733 0.0
C445 C 0.22888 0.36711 0.6408 0.0
C446 C 0.19958 0.36697 0.67217 0.0
C447 C 0.20763 0.3977 0.69417 0.0
C448 C 0.21119 0.36828 0.60236 0.0
C449 C 0.25196 0.33745 0.64466 0.0
C450 C 0.14142 0.44422 0.80961 0.0
C451 C 0.11016 0.43142 0.83334 0.0
C452 C 0.0908 0.39771 0.82301 0.0
C453 C 0.10162 0.37815 0.79164 0.0
C454 C 0.13289 0.39137 0.76896 0.0
C455 C 0.15234 0.42402 0.77862 0.0
C456 C 0.18578 0.43405 0.75258 0.0
C457 C 0.18325 0.40283 0.72546 0.0
C458 C 0.15173 0.37721 0.73463 0.0
C459 C 0.18071 0.4674 0.7327 0.0
C460 C 0.22173 0.43827 0.77563 0.0
H461 H 0.18938 0.29978 0.61415 0.0
H462 H 0.07581 0.24541 0.68332 0.0
H463 H 0.14152 0.28265 0.74942 0.0
H464 H 0.11472 0.31006 0.77441 0.0
H465 H 0.09126 0.27129 0.7515 0.0
H466 H 0.07171 0.33429 0.6809 0.0
H467 H 0.0512 0.30048 0.7116 0.0
H468 H 0.06791 0.34365 0.72912 0.0
H469 H 0.29575 0.39944 0.60253 0.0
H470 H 0.31241 0.49058 0.67446 0.0
H471 H 0.25695 0.46739 0.71025 0.0
H472 H 0.20646 0.39501 0.59651 0.0
H473 H 0.22969 0.36029 0.57995 0.0
H474 H 0.18319 0.35205 0.60045 0.0
H475 H 0.2727 0.34376 0.66708 0.0
H476 H 0.23463 0.31264 0.65269 0.0
H477 H 0.26768 0.33323 0.61865 0.0
H478 H 0.15659 0.24459 0.59334 0.0
C479 C 0.16496 0.28912 0.63 0.0
Gd480 Gd 0.03283 0.04654 0.4902 0.0
Gd481 Gd 0.99917 1.02092 0.56179 0.0
C482 C 0.04631 0.09928 0.56578 0.0
C483 C 0.05457 0.08306 0.43301 0.0
C484 C 0.08551 0.11155 0.4262 0.0
C485 C 0.11189 0.1226 0.45374 0.0
C486 C 0.0907 0.12569 0.39101 0.0
C487 C 0.15052 0.15897 0.40958 0.0
C488 C 0.12296 0.14938 0.38277 0.0
C489 C 0.14422 0.14634 0.4455 0.0
C490 C 0.07665 1.01315 0.53006 0.0
C491 C 0.98693 0.96774 0.48642 0.0
C492 C 0.97425 0.98424 0.61788 0.0
C493 C 0.9411 0.95689 0.62321 0.0
C494 C 0.90496 0.96553 0.62659 0.0
C495 C 0.94517 0.92178 0.62429 0.0
C496 C 0.87774 0.90468 0.63259 0.0
C497 C 0.91377 0.89591 0.62894 0.0
C498 C 0.8737 0.93973 0.63127 0.0
C499 C 0.95568 0.05452 0.52149 0.0
O500 O 0.04607 0.096 0.52883 0.0
O501 O 0.03362 0.07132 0.58557 0.0
O502 O 0.06485 0.05322 0.43912 0.0
O503 O 0.028 0.09005 0.45574 0.0
O504 O 0.07459 1.01019 0.49442 0.0
O505 O 0.05712 0.0346 0.54258 0.0
O506 O 0.98681 0.97121 0.52335 0.0
O507 O 0.99948 0.99564 0.46655 0.0
O508 O 0.96748 1.01568 0.61314 0.0
O509 O 1.001 0.97635 0.59586 0.0
O510 O 0.95767 0.05754 0.55711 0.0
O511 O 0.97502 0.03277 0.50943 0.0
H512 H 0.10821 0.11177 0.48109 0.0
H513 H 0.07052 0.11746 0.36955 0.0
H514 H 0.12703 0.15933 0.35504 0.0
H515 H 0.16509 0.15347 0.46655 0.0
H516 H 0.9007 0.9923 0.62604 0.0
H517 H 0.97264 0.91435 0.62176 0.0
H518 H 0.91766 0.86906 0.63019 0.0
H519 H 0.84644 0.94738 0.63516 0.0
Gd520 Gd 0.55062 0.03595 0.04513 0.0
Gd521 Gd 0.49149 1.03103 1.00659 0.0
C522 C 0.48998 0.08087 0.07288 0.0
C523 C 0.60959 0.05362 0.08525 0.0
C524 C 0.63387 0.08536 0.09805 0.0
C525 C 0.6693 0.08301 0.11136 0.0
C526 C 0.62176 0.11766 0.0984 0.0
C527 C 0.67933 0.14451 0.12819 0.0
C528 C 0.64432 0.14705 0.11348 0.0
C529 C 0.69186 0.11233 0.12638 0.0
C530 C 0.50677 0.97183 0.06423 0.0
C531 C 0.55247 0.98678 0.97834 0.0
C532 C 0.43248 1.01369 0.96655 0.0
C533 C 0.4084 0.9822 0.95307 0.0
C534 C 0.37471 0.98525 0.93639 0.0
C535 C 0.41921 0.94946 0.95522 0.0
C536 C 0.36429 0.92357 0.92073 0.0
C537 C 0.39728 0.92026 0.93902 0.0
C538 C 0.35273 0.95614 0.9204 0.0
C539 C 0.5361 0.09494 0.98778 0.0
O540 O 0.5261 0.08161 0.06862 0.0
O541 O 0.46756 0.05678 0.05497 0.0
O542 O 0.57546 0.04821 0.09877 0.0
O543 O 0.61108 0.04645 0.04995 0.0
O544 O 0.54239 0.9782 0.05764 0.0
O545 O 0.49449 1.00047 0.05915 0.0
O546 O 0.5163 0.98565 0.98279 0.0
O547 O 0.5748 1.01078 0.99651 0.0
O548 O 0.46655 1.01942 0.95295 0.0
O549 O 0.43104 1.0201 1.00201 0.0
O550 O 0.50031 0.08888 0.99328 0.0
O551 O 0.54762 0.06596 0.99256 0.0
H552 H 0.67902 0.05823 0.11124 0.0
H553 H 0.59451 0.11993 0.08801 0.0
H554 H 0.63397 0.17153 0.11469 0.0
H555 H 0.71826 0.10939 0.13832 0.0
H556 H 0.36597 1.01037 0.93472 0.0
H557 H 0.44499 0.94668 0.9685 0.0
H558 H 0.40656 0.89534 0.93987 0.0
H559 H 0.32762 0.95943 0.90618 0.0
Gd560 Gd 0.51361 0.50286 0.50543 0.0
Gd561 Gd 0.52288 0.56129 0.54405 0.0
C562 C 0.55192 0.50056 0.58913 0.0
C563 C 0.52494 0.44504 0.47484 0.0
C564 C 0.54559 0.41859 0.48832 0.0
C565 C 0.52675 0.38502 0.49595 0.0
C566 C 0.58418 0.42702 0.49477 0.0
C567 C 0.58548 0.36797 0.51318 0.0
C568 C 0.60389 0.40196 0.50678 0.0
C569 C 0.54654 0.3599 0.50839 0.0
C570 C 0.44795 0.50489 0.54495 0.0
C571 C 0.48642 0.56343 0.45918 0.0
C572 C 0.50741 0.61738 0.57559 0.0
C573 C 0.47901 0.63738 0.56413 0.0
C574 C 0.48235 0.67293 0.57249 0.0
C575 C 0.44827 0.62057 0.5439 0.0
C576 C 0.4232 0.67414 0.54213 0.0
C577 C 0.42106 0.63888 0.53242 0.0
C578 C 0.45436 0.69118 0.56192 0.0
C579 C 0.58895 0.55987 0.50554 0.0
O580 O 0.54398 0.48449 0.55653 0.0
O581 O 0.54581 0.53313 0.59204 0.0
O582 O 0.49399 0.44817 0.49271 0.0
O583 O 0.545 0.47503 0.467 0.0
O584 O 0.45012 0.49777 0.50974 0.0
O585 O 0.48122 0.51346 0.55683 0.0
O586 O 0.49302 0.57921 0.49211 0.0
O587 O 0.49355 0.53126 0.45632 0.0
O588 O 0.53575 0.61735 0.55274 0.0
O589 O 0.49404 0.58641 0.58729 0.0
O590 O 0.58609 0.5675 0.54061 0.0
O591 O 0.55592 0.55075 0.49295 0.0
H592 H 0.49689 0.37809 0.49168 0.0
H593 H 0.59956 0.45277 0.48967 0.0
H594 H 0.634 0.40887 0.50892 0.0
H595 H 0.53168 0.33383 0.51294 0.0
H596 H 0.5059 0.68628 0.58806 0.0
H597 H 0.44466 0.59296 0.53772 0.0
H598 H 0.39739 0.62505 0.51733 0.0
H599 H 0.45625 0.71809 0.57083 0.0
Gd600 Gd 1.01677 0.50583 0.04626 0.0
Gd601 Gd 0.02079 0.56073 1.0048 0.0
C602 C 0.09342 0.56531 0.05449 0.0
C603 C 0.03491 0.4516 0.07616 0.0
C604 C 0.07157 0.44109 0.0829 0.0
C605 C 0.08415 0.44014 0.11921 0.0
C606 C 0.09478 0.43284 0.0533 0.0
C607 C 0.1424 0.42318 0.09625 0.0
C608 C 0.12974 0.42384 0.05996 0.0
C609 C 0.11923 0.43132 0.12582 0.0
C610 C 0.97945 0.5521 0.08599 0.0
C611 C 0.94429 0.50088 0.9963 0.0
C612 C 1.00332 0.6154 0.97494 0.0
C613 C 0.96687 0.62487 0.96639 0.0
C614 C 0.96469 0.65054 0.94065 0.0
C615 C 0.93398 0.60846 0.98426 0.0
C616 C 0.897 0.64292 0.95026 0.0
C617 C 0.89931 0.6173 0.97613 0.0
C618 C 0.93 0.65963 0.93276 0.0
C619 C 0.05776 0.51354 0.96609 0.0
O620 O 0.07666 0.53326 0.06167 0.0
O621 O 0.07659 0.58318 0.03161 0.0
O622 O 0.02709 0.47825 0.09544 0.0
O623 O 0.02527 0.4523 0.04174 0.0
O624 O 0.96794 0.5189 0.08153 0.0
O625 O 1.01003 0.55975 0.06697 0.0
O626 O 0.96174 0.5323 0.98753 0.0
O627 O 0.96049 0.48369 1.02038 0.0
O628 O 1.01303 0.58955 0.95566 0.0
O629 O 1.00968 0.6134 1.01002 0.0
O630 O 0.07046 0.54654 0.97091 0.0
O631 O 0.02659 0.50686 0.98415 0.0
H632 H 0.06685 0.44627 0.14251 0.0
H633 H 0.08611 0.43344 1.02492 0.0
H634 H 0.14703 0.41761 0.03669 0.0
H635 H 0.12798 0.4303 0.15414 0.0
H636 H 0.98976 0.66354 0.92671 0.0
H637 H 0.93509 0.58896 1.00471 0.0
H638 H 0.87437 0.60441 0.99036 0.0
H639 H 0.92886 0.67941 0.9126 0.0
C640 C 0.23314 0.23291 0.4046 0.0
C641 C 0.2534 0.22311 0.37346 0.0
C642 C 0.20051 0.21142 0.41732 0.0
C643 C 0.18693 0.1798 0.39891 0.0
H644 H 0.24187 0.25782 0.41839 0.0
H645 H 0.18497 0.22025 0.44065 0.0
S646 S 0.2305 0.14117 0.31768 0.0
N647 N 0.25788 0.17876 0.32553 0.0
N648 N 0.19734 0.13841 0.35006 0.0
C649 C 0.20777 0.169 0.36892 0.0
C650 C 0.24083 0.19065 0.35604 0.0
C651 C 0.28409 0.86446 0.87479 0.0
C652 C 0.30215 0.85014 0.84473 0.0
C653 C 0.30462 0.88634 0.90108 0.0
C654 C 0.3439 0.89455 0.89824 0.0
H655 H 0.25377 0.86006 0.87697 0.0
H656 H 0.28958 0.89826 0.92278 0.0
S657 S 0.40473 0.86273 0.82571 0.0
N658 N 0.36178 0.84472 0.81451 0.0
N659 N 0.40022 0.88557 0.86413 0.0
C660 C 0.36245 0.87878 0.86964 0.0
C661 C 0.34159 0.85662 0.8428 0.0
C662 C 0.59381 0.48395 0.68679 0.0
C663 C 0.59514 0.44762 0.68837 0.0
C664 C 0.5801 0.50019 0.65571 0.0
C665 C 0.56694 0.48187 0.62272 0.0
H666 H 0.60336 0.50052 0.71032 0.0
H667 H 0.58016 0.52791 0.65767 0.0
S668 S 0.56379 0.38616 0.61012 0.0
N669 N 0.58105 0.39406 0.65196 0.0
N670 N 0.55645 0.42384 0.59472 0.0
C671 C 0.56802 0.44548 0.62371 0.0
C672 C 0.58154 0.42879 0.65574 0.0
C673 C 0.963 0.62928 0.15475 0.0
C674 C 0.94016 0.61343 0.18447 0.0
C675 C 0.97567 0.61005 0.12373 0.0
C676 C 0.96622 0.57338 0.1196 0.0
H677 H 0.9711 0.65723 0.15499 0.0
H678 H 0.99284 0.62432 0.10248 0.0
S679 S 0.90984 0.51739 0.18953 0.0
N680 N 0.91143 0.55696 0.2073 0.0
N681 N 0.93318 0.52209 0.14977 0.0
C682 C 0.94367 0.55714 0.14902 0.0
C683 C 0.93129 0.57657 0.18082 0.0
C684 C 0.48636 0.15987 0.1359 0.0
C685 C 0.44931 0.16563 0.13248 0.0
C686 C 0.4992 0.13231 0.11666 0.0
C687 C 0.47529 0.10913 0.09377 0.0
H688 H 0.50556 0.17683 0.15356 0.0
H689 H 0.52807 0.12908 0.11998 0.0
S690 S 0.3753 0.11271 0.07634 0.0
N691 N 0.38871 0.14586 0.10501 0.0
N692 N 0.41252 0.09399 0.06898 0.0
C693 C 0.43805 0.1146 0.09031 0.0
C694 C 0.42518 0.1429 0.10957 0.0
C695 C 0.10842 0.93268 0.56339 0.0
C696 C 0.12587 0.94398 0.59702 0.0
C697 C 0.09299 0.95544 0.54163 0.0
C698 C 0.09352 0.99005 0.55319 0.0
H699 H 0.10682 0.90601 0.55361 0.0
H700 H 0.08009 0.94574 0.51582 0.0
S701 S 0.13497 0.03298 0.63863 0.0
N702 N 0.14311 0.99269 0.64031 0.0
N703 N 0.11175 0.03483 0.6002 0.0
C704 C 0.10966 1.00162 0.58708 0.0
C705 C 0.12635 0.97871 0.60888 0.0
C706 C 0.86466 0.47335 0.92369 0.0
C707 C 0.83684 0.44964 0.94245 0.0
C708 C 0.89833 0.49036 0.94113 0.0
C709 C 0.90684 0.48447 0.97836 0.0
H710 H 0.86099 0.47824 0.89482 0.0
H711 H 0.91848 0.50759 0.92476 0.0
S712 S 0.8418 0.43001 0.0426 0.0
N713 N 0.81922 0.4259 1.00321 0.0
N714 N 0.8821 0.45549 0.03412 0.0
C715 C 0.87882 0.46197 0.99775 0.0
C716 C 0.84427 0.44537 0.98046 0.0
C717 C 0.65722 0.58788 0.42195 0.0
C718 C 0.69121 0.60402 0.43842 0.0
C719 C 0.62479 0.57343 0.44323 0.0
C720 C 0.62433 0.57378 0.48242 0.0
H721 H 0.65531 0.58691 0.3921 0.0
H722 H 0.59969 0.56214 0.4287 0.0
S723 S 0.7064 0.60993 0.53995 0.0
N724 N 0.72206 0.61725 0.49718 0.0
N725 N 0.66243 0.59053 0.53644 0.0
C726 C 0.65838 0.58909 0.49916 0.0
C727 C 0.69118 0.604 0.47756 0.0
C728 C 0.2196 0.3684 0.09733 0.0
C729 C 0.24481 0.38652 0.12293 0.0
C730 C 0.18724 0.38115 0.08771 0.0
C731 C 0.17892 0.41241 0.10341 0.0
H732 H 0.22378 0.34325 0.08624 0.0
H733 H 0.1677 0.36558 0.06921 0.0
S734 S 0.23894 0.47235 0.16714 0.0
N735 N 0.26152 0.43922 0.16046 0.0
N736 N 0.20069 0.46317 0.14234 0.0
C737 C 0.20506 0.43181 0.12724 0.0
C738 C 0.23801 0.41888 0.13698 0.0
C739 C 0.55902 0.16519 0.9101 0.0
C740 C 0.58349 0.19394 0.92624 0.0
C741 C 0.54537 0.13346 0.92914 0.0
C742 C 0.55563 0.12718 0.96574 0.0
H743 H 0.5499 0.16695 0.88207 0.0
H744 H 0.52603 0.11357 0.91489 0.0
S745 S 0.61604 0.19304 1.02368 0.0
N746 N 0.61475 0.21287 0.98411 0.0
N747 N 0.5907 0.15406 1.01793 0.0
C748 C 0.57984 0.15536 0.98241 0.0
C749 C 0.59333 0.188 0.96338 0.0
C750 C 0.94362 0.86925 0.47162 0.0
C751 C 0.9423 0.86296 0.43265 0.0
C752 C 0.95797 0.90232 0.48824 0.0
C753 C 0.97209 0.93202 0.46732 0.0
H754 H 0.93329 0.84818 0.48994 0.0
H755 H 0.95766 0.90455 0.51815 0.0
S756 S 0.97585 0.93121 0.36415 0.0
N757 N 0.95725 0.89078 0.37377 0.0
N758 N 0.98388 0.95193 0.40435 0.0
C759 C 0.97146 0.92616 0.42828 0.0
C760 C 0.95692 0.89226 0.41131 0.0
C761 C 0.32432 0.69091 0.55359 0.0
C762 C 0.32843 0.72667 0.54771 0.0
C763 C 0.35464 0.67339 0.54857 0.0
C764 C 0.39012 0.69115 0.53744 0.0
H765 H 0.29844 0.6771 0.56548 0.0
H766 H 0.35096 0.64656 0.55667 0.0
S767 S 0.41284 0.78345 0.51108 0.0
N768 N 0.36852 0.77831 0.5251 0.0
N769 N 0.42577 0.74508 0.51457 0.0
C770 C 0.39337 0.72608 0.52751 0.0
C771 C 0.36236 0.74395 0.53277 0.0
C772 C 0.81553 0.83548 0.6865 0.0
C773 C 0.77986 0.8354 0.67171 0.0
C774 C 0.84741 0.85635 0.67202 0.0
C775 C 0.84495 0.87811 0.64227 0.0
H776 H 0.81865 0.82106 0.71106 0.0
H777 H 0.87377 0.85707 0.68582 0.0
S778 S 0.7595 0.88322 0.58958 0.0
N779 N 0.74475 0.85568 0.62275 0.0
N780 N 0.80499 0.89519 0.59543 0.0
C781 C 0.81 0.87655 0.62552 0.0
C782 C 0.7774 0.85517 0.64028 0.0
C783 C 0.70108 0.21124 0.20529 0.0
C784 C 0.74048 0.21923 0.20386 0.0
C785 C 0.68135 0.18896 0.17897 0.0
C786 C 0.70024 0.17364 0.15026 0.0
H787 H 0.68536 0.22029 0.22837 0.0
H788 H 0.65129 0.18181 0.18269 0.0
S789 S 0.80246 0.191 0.13013 0.0
N790 N 0.79722 0.21388 0.16843 0.0
N791 N 0.75997 0.17152 0.11892 0.0
C792 C 0.73932 0.18342 0.14679 0.0
C793 C 0.75948 0.2063 0.1736 0.0
C794 C 0.45375 0.63451 0.39479 0.0
C795 C 0.44396 0.61723 0.3602 0.0
C796 C 0.46682 0.61755 0.42599 0.0
C797 C 0.47169 0.58191 0.42527 0.0
H798 H 0.45043 0.66145 0.39829 0.0
H799 H 0.47313 0.6328 0.45119 0.0
S800 S 0.45272 0.52438 0.34142 0.0
N801 N 0.44219 0.56159 0.32807 0.0
N802 N 0.46616 0.53089 0.38469 0.0
C803 C 0.46269 0.5647 0.39062 0.0
C804 C 0.44916 0.58178 0.35913 0.0
C805 C 0.05962 0.44701 0.8818 0.0
C806 C 0.09744 0.45232 0.86803 0.0
C807 C 0.04719 0.46563 0.91334 0.0
C808 C 0.07142 0.49153 0.93347 0.0
H809 H 0.03871 0.42851 0.86772 0.0
H810 H 0.01786 0.46013 0.92146 0.0
S811 S 0.17365 0.51483 0.91315 0.0
N812 N 0.15938 0.48487 0.88116 0.0
N813 N 0.13594 0.52007 0.93774 0.0
C814 C 0.10919 0.49696 0.92054 0.0
C815 C 0.12207 0.47761 0.8889 0.0
C816 C 0.61735 0.92278 0.95267 0.0
C817 C 0.59655 0.90006 0.92713 0.0
C818 C 0.60332 0.95144 0.96803 0.0
C819 C 0.56767 0.95813 0.95887 0.0
H820 H 0.6448 0.91846 0.96069 0.0
H821 H 0.62027 0.96795 0.98794 0.0
S822 S 0.50229 0.90629 0.89298 0.0
N823 N 0.53898 0.8862 0.89272 0.0
N824 N 0.51208 0.93972 0.92216 0.0
C825 C 0.54665 0.93562 0.93316 0.0
C826 C 0.56124 0.9067 0.9171 0.0
C827 C 0.92518 0.1364 0.49029 0.0
C828 C 0.91168 0.12721 0.45456 0.0
C829 C 0.93911 0.11254 0.51186 0.0
C830 C 0.94082 0.0789 0.49818 0.0
H831 H 0.92449 0.16214 0.50195 0.0
H832 H 0.94882 0.12062 0.53936 0.0
S833 S 0.91039 0.04184 0.40635 0.0
N834 N 0.90113 0.08183 0.40655 0.0
N835 N 0.92929 0.03754 0.4467 0.0
C836 C 0.92883 0.0696 0.46215 0.0
C837 C 0.91387 0.09367 0.44036 0.0
C838 C 0.18854 0.62642 0.07454 0.0
C839 C 0.20036 0.61708 0.10975 0.0
C840 C 0.15486 0.60991 0.05736 0.0
C841 C 0.13059 0.58168 0.0731 0.0
H842 H 0.20552 0.64688 0.05923 0.0
H843 H 0.14799 0.61935 0.03095 0.0
S844 S 0.1468 0.54394 0.16352 0.0
N845 N 0.18272 0.57584 0.15907 0.0
N846 N 0.12181 0.54411 0.12598 0.0
C847 C 0.14228 0.57085 0.10744 0.0
C848 C 0.17621 0.58838 0.12566 0.0
C849 C 0.34711 0.45991 0.57379 0.0
C850 C 0.34578 0.46218 0.61298 0.0
C851 C 0.37948 0.47414 0.55249 0.0
C852 C 0.41302 0.49135 0.56882 0.0
H853 H 0.32258 0.44731 0.55917 0.0
H854 H 0.37818 0.47133 0.52267 0.0
S855 S 0.42628 0.50332 0.67024 0.0
N856 N 0.38275 0.4826 0.66694 0.0
N857 N 0.44252 0.50886 0.62739 0.0
C858 C 0.41229 0.49362 0.60792 0.0
C859 C 0.37923 0.47931 0.62967 0.0
C860 C 0.82219 0.6971 0.93148 0.0
C861 C 0.79287 0.67244 0.91713 0.0
C862 C 0.85541 0.6872 0.94309 0.0
C863 C 0.8603 0.65224 0.94121 0.0
H864 H 0.8203 0.72451 0.93178 0.0
H865 H 0.87782 0.70715 0.95278 0.0
S866 S 0.79079 0.5773 0.90872 0.0
N867 N 0.76988 0.61134 0.90385 0.0
N868 N 0.83231 0.59264 0.92594 0.0
C869 C 0.83047 0.62709 0.92873 0.0
C870 C 0.79677 0.63722 0.91659 0.0
C871 C 0.4964 0.88438 0.11893 0.0
C872 C 0.45753 0.87295 0.12592 0.0
C873 C 0.511 0.91551 0.0995 0.0
C874 C 0.48831 0.93864 0.08577 0.0
H875 H 0.51622 0.86867 0.12802 0.0
H876 H 0.54107 0.9215 0.09526 0.0
S877 S 0.3844 0.92312 0.09653 0.0
N878 N 0.39647 0.88937 0.11686 0.0
N879 N 0.42373 0.9469 0.08152 0.0
C880 C 0.44937 0.92795 0.09273 0.0
C881 C 0.43427 0.89578 0.11219 0.0
C882 C 0.09106 0.19739 0.58039 0.0
C883 C 0.09293 0.20364 0.61934 0.0
C884 C 0.07613 0.16443 0.56387 0.0
C885 C 0.06188 0.13482 0.58486 0.0
H886 H 0.10136 0.21841 0.562 0.0
H887 H 0.07605 0.16224 0.53396 0.0
S888 S 0.05945 0.13551 0.68802 0.0
N889 N 0.07842 0.17583 0.6783 0.0
N890 N 0.05066 0.1149 0.64787 0.0
C891 C 0.06309 0.14062 0.62388 0.0
C892 C 0.07826 0.1744 0.64077 0.0
C893 C 0.63052 0.29185 0.48524 0.0
C894 C 0.66572 0.3007 0.50167 0.0
C895 C 0.6022 0.31134 0.49293 0.0
C896 C 0.60823 0.34024 0.51742 0.0
H897 H 0.62612 0.27186 0.46364 0.0
H898 H 0.5772 0.30599 0.4765 0.0
S899 S 0.6916 0.36743 0.57544 0.0
N900 N 0.70256 0.33539 0.54884 0.0
N901 N 0.64856 0.3715 0.56447 0.0
C902 C 0.64121 0.3459 0.53815 0.0
C903 C 0.67026 0.32621 0.52998 0.0
loop_
_geom_bond_atom_site_label_1
_geom_bond_atom_site_label_2
_geom_bond_distance
_geom_bond_site_symmetry_2
_ccdc_geom_bond_type
C0 C1 1.391 . S
C0 C4 1.391 . S
C0 H42 0.948 . S
C1 C0 1.391 . S
C1 C2 1.391 . S
C2 C1 1.391 . S
C2 H58 0.947 . S
C2 C59 1.392 . S
C3 C4 1.391 . S
C3 C7 1.397 . S
C3 C59 1.419 . S
C4 C0 1.391 . S
C4 C3 1.391 . S
C4 C5 1.399 . S
C5 C4 1.399 . S
C5 C8 1.396 . S
C5 C17 1.453 . S
C5 C18 1.684 . S
H6 C30 0.948 . S
C7 C3 1.397 . S
C7 C8 1.394 . S
C7 C26 1.723 . S
C8 C5 1.396 . S
C8 C7 1.394 . S
C8 C38 1.723 . S
H9 C32 0.947 . S
H10 C33 0.948 . S
H11 C39 0.982 . S
H12 C40 0.979 . S
H13 C40 0.980 . S
H14 C40 0.983 . S
H15 C39 0.979 . S
H16 C39 0.977 . S
C17 C5 1.453 . S
C17 H46 0.982 . S
C17 H47 0.979 . S
C17 H48 0.977 . S
C18 C5 1.684 . S
C18 H43 0.979 . S
C18 H44 0.980 . S
C18 H45 0.983 . S
C19 C20 1.391 . S
C19 C24 1.391 . S
C19 H49 0.948 . S
C20 C19 1.391 . S
C20 C21 1.391 . S
C21 C20 1.391 . S
C21 C22 1.392 . S
C21 H50 0.947 . S
C22 C21 1.392 . S
C22 C23 1.419 . S
C22 H51 0.948 . S
C23 C22 1.419 . S
C23 C24 1.391 . S
C23 C27 1.397 . S
C24 C19 1.391 . S
C24 C23 1.391 . S
C24 C25 1.399 . S
C25 C24 1.399 . S
C25 C26 1.396 . S
C25 C28 1.453 . S
C25 C29 1.684 . S
C26 C7 1.723 . S
C26 C25 1.396 . S
C26 C27 1.394 . S
C27 C23 1.397 . S
C27 C26 1.394 . S
C27 C37 1.723 . S
C28 C25 1.453 . S
C28 H52 0.982 . S
C28 H53 0.979 . S
C28 H54 0.977 . S
C29 C25 1.684 . S
C29 H55 0.979 . S
C29 H56 0.980 . S
C29 H57 0.983 . S
C30 H6 0.948 . S
C30 C31 1.391 . S
C30 C35 1.391 . S
C31 C30 1.391 . S
C31 C32 1.391 . S
C32 H9 0.947 . S
C32 C31 1.391 . S
C32 C33 1.392 . S
C33 H10 0.948 . S
C33 C32 1.392 . S
C33 C34 1.419 . S
C34 C33 1.419 . S
C34 C35 1.391 . S
C34 C38 1.397 . S
C35 C30 1.391 . S
C35 C34 1.391 . S
C35 C36 1.399 . S
C36 C35 1.399 . S
C36 C37 1.396 . S
C36 C39 1.453 . S
C36 C40 1.684 . S
C37 C27 1.723 . S
C37 C36 1.396 . S
C37 C38 1.394 . S
C38 C8 1.723 . S
C38 C34 1.397 . S
C38 C37 1.394 . S
C39 H11 0.982 . S
C39 H15 0.979 . S
C39 H16 0.977 . S
C39 C36 1.453 . S
C40 H12 0.979 . S
C40 H13 0.980 . S
C40 H14 0.983 . S
C40 C36 1.684 . S
H41 C59 0.948 . S
H42 C0 0.948 . S
H43 C18 0.979 . S
H44 C18 0.980 . S
H45 C18 0.983 . S
H46 C17 0.982 . S
H47 C17 0.979 . S
H48 C17 0.977 . S
H49 C19 0.948 . S
H50 C21 0.947 . S
H51 C22 0.948 . S
H52 C28 0.982 . S
H53 C28 0.979 . S
H54 C28 0.977 . S
H55 C29 0.979 . S
H56 C29 0.980 . S
H57 C29 0.983 . S
H58 C2 0.947 . S
C59 C2 1.392 . S
C59 C3 1.419 . S
C59 H41 0.948 . S
C60 C61 1.391 . S
C60 C64 1.391 . S
C60 H102 0.948 . S
C61 C60 1.391 . S
C61 C62 1.391 . S
C62 C61 1.391 . S
C62 H118 0.947 . S
C62 C119 1.392 . S
C63 C64 1.391 . S
C63 C67 1.397 . S
C63 C119 1.419 . S
C64 C60 1.391 . S
C64 C63 1.391 . S
C64 C65 1.399 . S
C65 C64 1.399 . S
C65 C68 1.396 . S
C65 C77 1.453 . S
C65 C78 1.684 . S
H66 C90 0.948 . S
C67 C63 1.397 . S
C67 C68 1.394 . S
C67 C86 1.723 . S
C68 C65 1.396 . S
C68 C67 1.394 . S
C68 C98 1.723 . S
H69 C92 0.947 . S
H70 C93 0.948 . S
H71 C99 0.982 . S
H72 C100 0.979 . S
H73 C100 0.980 . S
H74 C100 0.983 . S
H75 C99 0.979 . S
H76 C99 0.977 . S
C77 C65 1.453 . S
C77 H106 0.982 . S
C77 H107 0.979 . S
C77 H108 0.977 . S
C78 C65 1.684 . S
C78 H103 0.979 . S
C78 H104 0.980 . S
C78 H105 0.983 . S
C79 C80 1.391 . S
C79 C84 1.391 . S
C79 H109 0.948 . S
C80 C79 1.391 . S
C80 C81 1.391 . S
C81 C80 1.391 . S
C81 C82 1.392 . S
C81 H110 0.947 . S
C82 C81 1.392 . S
C82 C83 1.419 . S
C82 H111 0.948 . S
C83 C82 1.419 . S
C83 C84 1.391 . S
C83 C87 1.397 . S
C84 C79 1.391 . S
C84 C83 1.391 . S
C84 C85 1.399 . S
C85 C84 1.399 . S
C85 C86 1.396 . S
C85 C88 1.453 . S
C85 C89 1.684 . S
C86 C67 1.723 . S
C86 C85 1.396 . S
C86 C87 1.394 . S
C87 C83 1.397 . S
C87 C86 1.394 . S
C87 C97 1.723 . S
C88 C85 1.453 . S
C88 H112 0.982 . S
C88 H113 0.979 . S
C88 H114 0.977 . S
C89 C85 1.684 . S
C89 H115 0.979 . S
C89 H116 0.980 . S
C89 H117 0.983 . S
C90 H66 0.948 . S
C90 C91 1.391 . S
C90 C95 1.391 . S
C91 C90 1.391 . S
C91 C92 1.391 . S
C92 H69 0.947 . S
C92 C91 1.391 . S
C92 C93 1.392 . S
C93 H70 0.948 . S
C93 C92 1.392 . S
C93 C94 1.419 . S
C94 C93 1.419 . S
C94 C95 1.391 . S
C94 C98 1.397 . S
C95 C90 1.391 . S
C95 C94 1.391 . S
C95 C96 1.399 . S
C96 C95 1.399 . S
C96 C97 1.396 . S
C96 C99 1.453 . S
C96 C100 1.684 . S
C97 C87 1.723 . S
C97 C96 1.396 . S
C97 C98 1.394 . S
C98 C68 1.723 . S
C98 C94 1.397 . S
C98 C97 1.394 . S
C99 H71 0.982 . S
C99 H75 0.979 . S
C99 H76 0.977 . S
C99 C96 1.453 . S
C100 H72 0.979 . S
C100 H73 0.980 . S
C100 H74 0.983 . S
C100 C96 1.684 . S
H101 C119 0.948 . S
H102 C60 0.948 . S
H103 C78 0.979 . S
H104 C78 0.980 . S
H105 C78 0.983 . S
H106 C77 0.982 . S
H107 C77 0.979 . S
H108 C77 0.977 . S
H109 C79 0.948 . S
H110 C81 0.947 . S
H111 C82 0.948 . S
H112 C88 0.982 . S
H113 C88 0.979 . S
H114 C88 0.977 . S
H115 C89 0.979 . S
H116 C89 0.980 . S
H117 C89 0.983 . S
H118 C62 0.947 . S
C119 C62 1.392 . S
C119 C63 1.419 . S
C119 H101 0.948 . S
C120 C121 1.391 . S
C120 C124 1.391 . S
C120 H162 0.948 . S
C121 C120 1.391 . S
C121 C122 1.391 . S
C122 C121 1.391 . S
C122 H178 0.947 . S
C122 C179 1.392 . S
C123 C124 1.391 . S
C123 C127 1.397 . S
C123 C179 1.419 . S
C124 C120 1.391 . S
C124 C123 1.391 . S
C124 C125 1.399 . S
C125 C124 1.399 . S
C125 C128 1.396 . S
C125 C137 1.453 . S
C125 C138 1.684 . S
H126 C150 0.948 . S
C127 C123 1.397 . S
C127 C128 1.394 . S
C127 C146 1.723 . S
C128 C125 1.396 . S
C128 C127 1.394 . S
C128 C158 1.723 . S
H129 C152 0.947 . S
H130 C153 0.948 . S
H131 C159 0.982 . S
H132 C160 0.979 . S
H133 C160 0.980 . S
H134 C160 0.983 . S
H135 C159 0.979 . S
H136 C159 0.977 . S
C137 C125 1.453 . S
C137 H166 0.982 . S
C137 H167 0.979 . S
C137 H168 0.977 . S
C138 C125 1.684 . S
C138 H163 0.979 . S
C138 H164 0.980 . S
C138 H165 0.983 . S
C139 C140 1.391 . S
C139 C144 1.391 . S
C139 H169 0.948 . S
C140 C139 1.391 . S
C140 C141 1.391 . S
C141 C140 1.391 . S
C141 C142 1.392 . S
C141 H170 0.947 . S
C142 C141 1.392 . S
C142 C143 1.419 . S
C142 H171 0.948 . S
C143 C142 1.419 . S
C143 C144 1.391 . S
C143 C147 1.397 . S
C144 C139 1.391 . S
C144 C143 1.391 . S
C144 C145 1.399 . S
C145 C144 1.399 . S
C145 C146 1.396 . S
C145 C148 1.453 . S
C145 C149 1.684 . S
C146 C127 1.723 . S
C146 C145 1.396 . S
C146 C147 1.394 . S
C147 C143 1.397 . S
C147 C146 1.394 . S
C147 C157 1.723 . S
C148 C145 1.453 . S
C148 H172 0.982 . S
C148 H173 0.979 . S
C148 H174 0.977 . S
C149 C145 1.684 . S
C149 H175 0.979 . S
C149 H176 0.980 . S
C149 H177 0.983 . S
C150 H126 0.948 . S
C150 C151 1.391 . S
C150 C155 1.391 . S
C151 C150 1.391 . S
C151 C152 1.391 . S
C152 H129 0.947 . S
C152 C151 1.391 . S
C152 C153 1.392 . S
C153 H130 0.948 . S
C153 C152 1.392 . S
C153 C154 1.419 . S
C154 C153 1.419 . S
C154 C155 1.391 . S
C154 C158 1.397 . S
C155 C150 1.391 . S
C155 C154 1.391 . S
C155 C156 1.399 . S
C156 C155 1.399 . S
C156 C157 1.396 . S
C156 C159 1.453 . S
C156 C160 1.684 . S
C157 C147 1.723 . S
C157 C156 1.396 . S
C157 C158 1.394 . S
C158 C128 1.723 . S
C158 C154 1.397 . S
C158 C157 1.394 . S
C159 H131 0.982 . S
C159 H135 0.979 . S
C159 H136 0.977 . S
C159 C156 1.453 . S
C160 H132 0.979 . S
C160 H133 0.980 . S
C160 H134 0.983 . S
C160 C156 1.684 . S
H161 C179 0.948 . S
H162 C120 0.948 . S
H163 C138 0.979 . S
H164 C138 0.980 . S
H165 C138 0.983 . S
H166 C137 0.982 . S
H167 C137 0.979 . S
H168 C137 0.977 . S
H169 C139 0.948 . S
H170 C141 0.947 . S
H171 C142 0.948 . S
H172 C148 0.982 . S
H173 C148 0.979 . S
H174 C148 0.977 . S
H175 C149 0.979 . S
H176 C149 0.980 . S
H177 C149 0.983 . S
H178 C122 0.947 . S
C179 C122 1.392 . S
C179 C123 1.419 . S
C179 H161 0.948 . S
C180 C181 1.391 . S
C180 C184 1.391 . S
C180 H222 0.948 . S
C181 C180 1.391 . S
C181 C182 1.391 . S
C182 C181 1.391 . S
C182 H238 0.947 . S
C182 C239 1.392 . S
C183 C184 1.391 . S
C183 C187 1.397 . S
C183 C239 1.419 . S
C184 C180 1.391 . S
C184 C183 1.391 . S
C184 C185 1.399 . S
C185 C184 1.399 . S
C185 C188 1.396 . S
C185 C197 1.453 . S
C185 C198 1.684 . S
H186 C210 0.948 . S
C187 C183 1.397 . S
C187 C188 1.394 . S
C187 C206 1.723 . S
C188 C185 1.396 . S
C188 C187 1.394 . S
C188 C218 1.723 . S
H189 C212 0.947 . S
H190 C213 0.948 . S
H191 C219 0.982 . S
H192 C220 0.979 . S
H193 C220 0.980 . S
H194 C220 0.983 . S
H195 C219 0.979 . S
H196 C219 0.977 . S
C197 C185 1.453 . S
C197 H226 0.982 . S
C197 H227 0.979 . S
C197 H228 0.977 . S
C198 C185 1.684 . S
C198 H223 0.979 . S
C198 H224 0.980 . S
C198 H225 0.983 . S
C199 C200 1.391 . S
C199 C204 1.391 . S
C199 H229 0.948 . S
C200 C199 1.391 . S
C200 C201 1.391 . S
C201 C200 1.391 . S
C201 C202 1.392 . S
C201 H230 0.947 . S
C202 C201 1.392 . S
C202 C203 1.419 . S
C202 H231 0.948 . S
C203 C202 1.419 . S
C203 C204 1.391 . S
C203 C207 1.397 . S
C204 C199 1.391 . S
C204 C203 1.391 . S
C204 C205 1.399 . S
C205 C204 1.399 . S
C205 C206 1.396 . S
C205 C208 1.453 . S
C205 C209 1.684 . S
C206 C187 1.723 . S
C206 C205 1.396 . S
C206 C207 1.394 . S
C207 C203 1.397 . S
C207 C206 1.394 . S
C207 C217 1.723 . S
C208 C205 1.453 . S
C208 H232 0.982 . S
C208 H233 0.979 . S
C208 H234 0.977 . S
C209 C205 1.684 . S
C209 H235 0.979 . S
C209 H236 0.980 . S
C209 H237 0.983 . S
C210 H186 0.948 . S
C210 C211 1.391 . S
C210 C215 1.391 . S
C211 C210 1.391 . S
C211 C212 1.391 . S
C212 H189 0.947 . S
C212 C211 1.391 . S
C212 C213 1.392 . S
C213 H190 0.948 . S
C213 C212 1.392 . S
C213 C214 1.419 . S
C214 C213 1.419 . S
C214 C215 1.391 . S
C214 C218 1.397 . S
C215 C210 1.391 . S
C215 C214 1.391 . S
C215 C216 1.399 . S
C216 C215 1.399 . S
C216 C217 1.396 . S
C216 C219 1.453 . S
C216 C220 1.684 . S
C217 C207 1.723 . S
C217 C216 1.396 . S
C217 C218 1.394 . S
C218 C188 1.723 . S
C218 C214 1.397 . S
C218 C217 1.394 . S
C219 H191 0.982 . S
C219 H195 0.979 . S
C219 H196 0.977 . S
C219 C216 1.453 . S
C220 H192 0.979 . S
C220 H193 0.980 . S
C220 H194 0.983 . S
C220 C216 1.684 . S
H221 C239 0.948 . S
H222 C180 0.948 . S
H223 C198 0.979 . S
H224 C198 0.980 . S
H225 C198 0.983 . S
H226 C197 0.982 . S
H227 C197 0.979 . S
H228 C197 0.977 . S
H229 C199 0.948 . S
H230 C201 0.947 . S
H231 C202 0.948 . S
H232 C208 0.982 . S
H233 C208 0.979 . S
H234 C208 0.977 . S
H235 C209 0.979 . S
H236 C209 0.980 . S
H237 C209 0.983 . S
H238 C182 0.947 . S
C239 C182 1.392 . S
C239 C183 1.419 . S
C239 H221 0.948 . S
C240 C241 1.391 . S
C240 C244 1.391 . S
C240 H282 0.948 . S
C241 C240 1.391 . S
C241 C242 1.391 . S
C242 C241 1.391 . S
C242 H298 0.947 . S
C242 C299 1.392 . S
C243 C244 1.391 . S
C243 C247 1.397 . S
C243 C299 1.419 . S
C244 C240 1.391 . S
C244 C243 1.391 . S
C244 C245 1.399 . S
C245 C244 1.399 . S
C245 C248 1.396 . S
C245 C257 1.453 . S
C245 C258 1.684 . S
H246 C270 0.948 . S
C247 C243 1.397 . S
C247 C248 1.394 . S
C247 C266 1.723 . S
C248 C245 1.396 . S
C248 C247 1.394 . S
C248 C278 1.723 . S
H249 C272 0.947 . S
H250 C273 0.948 . S
H251 C279 0.982 . S
H252 C280 0.979 . S
H253 C280 0.980 . S
H254 C280 0.983 . S
H255 C279 0.979 . S
H256 C279 0.977 . S
C257 C245 1.453 . S
C257 H286 0.982 . S
C257 H287 0.979 . S
C257 H288 0.977 . S
C258 C245 1.684 . S
C258 H283 0.979 . S
C258 H284 0.980 . S
C258 H285 0.983 . S
C259 C260 1.391 . S
C259 C264 1.391 . S
C259 H289 0.948 . S
C260 C259 1.391 . S
C260 C261 1.391 . S
C261 C260 1.391 . S
C261 C262 1.392 . S
C261 H290 0.947 . S
C262 C261 1.392 . S
C262 C263 1.419 . S
C262 H291 0.948 . S
C263 C262 1.419 . S
C263 C264 1.391 . S
C263 C267 1.397 . S
C264 C259 1.391 . S
C264 C263 1.391 . S
C264 C265 1.399 . S
C265 C264 1.399 . S
C265 C266 1.396 . S
C265 C268 1.453 . S
C265 C269 1.684 . S
C266 C247 1.723 . S
C266 C265 1.396 . S
C266 C267 1.394 . S
C267 C263 1.397 . S
C267 C266 1.394 . S
C267 C277 1.723 . S
C268 C265 1.453 . S
C268 H292 0.982 . S
C268 H293 0.979 . S
C268 H294 0.977 . S
C269 C265 1.684 . S
C269 H295 0.979 . S
C269 H296 0.980 . S
C269 H297 0.983 . S
C270 H246 0.948 . S
C270 C271 1.391 . S
C270 C275 1.391 . S
C271 C270 1.391 . S
C271 C272 1.391 . S
C272 H249 0.947 . S
C272 C271 1.391 . S
C272 C273 1.392 . S
C273 H250 0.948 . S
C273 C272 1.392 . S
C273 C274 1.419 . S
C274 C273 1.419 . S
C274 C275 1.391 . S
C274 C278 1.397 . S
C275 C270 1.391 . S
C275 C274 1.391 . S
C275 C276 1.399 . S
C276 C275 1.399 . S
C276 C277 1.396 . S
C276 C279 1.453 . S
C276 C280 1.684 . S
C277 C267 1.723 . S
C277 C276 1.396 . S
C277 C278 1.394 . S
C278 C248 1.723 . S
C278 C274 1.397 . S
C278 C277 1.394 . S
C279 H251 0.982 . S
C279 H255 0.979 . S
C279 H256 0.977 . S
C279 C276 1.453 . S
C280 H252 0.979 . S
C280 H253 0.980 . S
C280 H254 0.983 . S
C280 C276 1.684 . S
H281 C299 0.948 . S
H282 C240 0.948 . S
H283 C258 0.979 . S
H284 C258 0.980 . S
H285 C258 0.983 . S
H286 C257 0.982 . S
H287 C257 0.979 . S
H288 C257 0.977 . S
H289 C259 0.948 . S
H290 C261 0.947 . S
H291 C262 0.948 . S
H292 C268 0.982 . S
H293 C268 0.979 . S
H294 C268 0.977 . S
H295 C269 0.979 . S
H296 C269 0.980 . S
H297 C269 0.983 . S
H298 C242 0.947 . S
C299 C242 1.392 . S
C299 C243 1.419 . S
C299 H281 0.948 . S
C300 C301 1.391 . S
C300 C304 1.391 . S
C300 H342 0.948 . S
C301 C300 1.391 . S
C301 C302 1.391 . S
C302 C301 1.391 . S
C302 H358 0.947 . S
C302 C359 1.392 . S
C303 C304 1.391 . S
C303 C307 1.397 . S
C303 C359 1.419 . S
C304 C300 1.391 . S
C304 C303 1.391 . S
C304 C305 1.399 . S
C305 C304 1.399 . S
C305 C308 1.396 . S
C305 C317 1.453 . S
C305 C318 1.684 . S
H306 C330 0.948 . S
C307 C303 1.397 . S
C307 C308 1.394 . S
C307 C326 1.723 . S
C308 C305 1.396 . S
C308 C307 1.394 . S
C308 C338 1.723 . S
H309 C332 0.947 . S
H310 C333 0.948 . S
H311 C339 0.982 . S
H312 C340 0.979 . S
H313 C340 0.980 . S
H314 C340 0.983 . S
H315 C339 0.979 . S
H316 C339 0.977 . S
C317 C305 1.453 . S
C317 H346 0.982 . S
C317 H347 0.979 . S
C317 H348 0.977 . S
C318 C305 1.684 . S
C318 H343 0.979 . S
C318 H344 0.980 . S
C318 H345 0.983 . S
C319 C320 1.391 . S
C319 C324 1.391 . S
C319 H349 0.948 . S
C320 C319 1.391 . S
C320 C321 1.391 . S
C321 C320 1.391 . S
C321 C322 1.392 . S
C321 H350 0.947 . S
C322 C321 1.392 . S
C322 C323 1.419 . S
C322 H351 0.948 . S
C323 C322 1.419 . S
C323 C324 1.391 . S
C323 C327 1.397 . S
C324 C319 1.391 . S
C324 C323 1.391 . S
C324 C325 1.399 . S
C325 C324 1.399 . S
C325 C326 1.396 . S
C325 C328 1.453 . S
C325 C329 1.684 . S
C326 C307 1.723 . S
C326 C325 1.396 . S
C326 C327 1.394 . S
C327 C323 1.397 . S
C327 C326 1.394 . S
C327 C337 1.723 . S
C328 C325 1.453 . S
C328 H352 0.982 . S
C328 H353 0.979 . S
C328 H354 0.977 . S
C329 C325 1.684 . S
C329 H355 0.979 . S
C329 H356 0.980 . S
C329 H357 0.983 . S
C330 H306 0.948 . S
C330 C331 1.391 . S
C330 C335 1.391 . S
C331 C330 1.391 . S
C331 C332 1.391 . S
C332 H309 0.947 . S
C332 C331 1.391 . S
C332 C333 1.392 . S
C333 H310 0.948 . S
C333 C332 1.392 . S
C333 C334 1.419 . S
C334 C333 1.419 . S
C334 C335 1.391 . S
C334 C338 1.397 . S
C335 C330 1.391 . S
C335 C334 1.391 . S
C335 C336 1.399 . S
C336 C335 1.399 . S
C336 C337 1.396 . S
C336 C339 1.453 . S
C336 C340 1.684 . S
C337 C327 1.723 . S
C337 C336 1.396 . S
C337 C338 1.394 . S
C338 C308 1.723 . S
C338 C334 1.397 . S
C338 C337 1.394 . S
C339 H311 0.982 . S
C339 H315 0.979 . S
C339 H316 0.977 . S
C339 C336 1.453 . S
C340 H312 0.979 . S
C340 H313 0.980 . S
C340 H314 0.983 . S
C340 C336 1.684 . S
H341 C359 0.948 . S
H342 C300 0.948 . S
H343 C318 0.979 . S
H344 C318 0.980 . S
H345 C318 0.983 . S
H346 C317 0.982 . S
H347 C317 0.979 . S
H348 C317 0.977 . S
H349 C319 0.948 . S
H350 C321 0.947 . S
H351 C322 0.948 . S
H352 C328 0.982 . S
H353 C328 0.979 . S
H354 C328 0.977 . S
H355 C329 0.979 . S
H356 C329 0.980 . S
H357 C329 0.983 . S
H358 C302 0.947 . S
C359 C302 1.392 . S
C359 C303 1.419 . S
C359 H341 0.948 . S
C360 C361 1.391 . S
C360 C364 1.391 . S
C360 H402 0.948 . S
C361 C360 1.391 . S
C361 C362 1.391 . S
C362 C361 1.391 . S
C362 H418 0.947 . S
C362 C419 1.392 . S
C363 C364 1.391 . S
C363 C367 1.397 . S
C363 C419 1.419 . S
C364 C360 1.391 . S
C364 C363 1.391 . S
C364 C365 1.399 . S
C365 C364 1.399 . S
C365 C368 1.396 . S
C365 C377 1.453 . S
C365 C378 1.684 . S
H366 C390 0.948 . S
C367 C363 1.397 . S
C367 C368 1.394 . S
C367 C386 1.723 . S
C368 C365 1.396 . S
C368 C367 1.394 . S
C368 C398 1.723 . S
H369 C392 0.947 . S
H370 C393 0.948 . S
H371 C399 0.982 . S
H372 C400 0.979 . S
H373 C400 0.980 . S
H374 C400 0.983 . S
H375 C399 0.979 . S
H376 C399 0.977 . S
C377 C365 1.453 . S
C377 H406 0.982 . S
C377 H407 0.979 . S
C377 H408 0.977 . S
C378 C365 1.684 . S
C378 H403 0.979 . S
C378 H404 0.980 . S
C378 H405 0.983 . S
C379 C380 1.391 . S
C379 C384 1.391 . S
C379 H409 0.948 . S
C380 C379 1.391 . S
C380 C381 1.391 . S
C381 C380 1.391 . S
C381 C382 1.392 . S
C381 H410 0.947 . S
C382 C381 1.392 . S
C382 C383 1.419 . S
C382 H411 0.948 . S
C383 C382 1.419 . S
C383 C384 1.391 . S
C383 C387 1.397 . S
C384 C379 1.391 . S
C384 C383 1.391 . S
C384 C385 1.399 . S
C385 C384 1.399 . S
C385 C386 1.396 . S
C385 C388 1.453 . S
C385 C389 1.684 . S
C386 C367 1.723 . S
C386 C385 1.396 . S
C386 C387 1.394 . S
C387 C383 1.397 . S
C387 C386 1.394 . S
C387 C397 1.723 . S
C388 C385 1.453 . S
C388 H412 0.982 . S
C388 H413 0.979 . S
C388 H414 0.977 . S
C389 C385 1.684 . S
C389 H415 0.979 . S
C389 H416 0.980 . S
C389 H417 0.983 . S
C390 H366 0.948 . S
C390 C391 1.391 . S
C390 C395 1.391 . S
C391 C390 1.391 . S
C391 C392 1.391 . S
C392 H369 0.947 . S
C392 C391 1.391 . S
C392 C393 1.392 . S
C393 H370 0.948 . S
C393 C392 1.392 . S
C393 C394 1.419 . S
C394 C393 1.419 . S
C394 C395 1.391 . S
C394 C398 1.397 . S
C395 C390 1.391 . S
C395 C394 1.391 . S
C395 C396 1.399 . S
C396 C395 1.399 . S
C396 C397 1.396 . S
C396 C399 1.453 . S
C396 C400 1.684 . S
C397 C387 1.723 . S
C397 C396 1.396 . S
C397 C398 1.394 . S
C398 C368 1.723 . S
C398 C394 1.397 . S
C398 C397 1.394 . S
C399 H371 0.982 . S
C399 H375 0.979 . S
C399 H376 0.977 . S
C399 C396 1.453 . S
C400 H372 0.979 . S
C400 H373 0.980 . S
C400 H374 0.983 . S
C400 C396 1.684 . S
H401 C419 0.948 . S
H402 C360 0.948 . S
H403 C378 0.979 . S
H404 C378 0.980 . S
H405 C378 0.983 . S
H406 C377 0.982 . S
H407 C377 0.979 . S
H408 C377 0.977 . S
H409 C379 0.948 . S
H410 C381 0.947 . S
H411 C382 0.948 . S
H412 C388 0.982 . S
H413 C388 0.979 . S
H414 C388 0.977 . S
H415 C389 0.979 . S
H416 C389 0.980 . S
H417 C389 0.983 . S
H418 C362 0.947 . S
C419 C362 1.392 . S
C419 C363 1.419 . S
C419 H401 0.948 . S
C420 C421 1.391 . S
C420 C424 1.391 . S
C420 H462 0.948 . S
C421 C420 1.391 . S
C421 C422 1.391 . S
C422 C421 1.391 . S
C422 H478 0.947 . S
C422 C479 1.392 . S
C423 C424 1.391 . S
C423 C427 1.397 . S
C423 C479 1.419 . S
C424 C420 1.391 . S
C424 C423 1.391 . S
C424 C425 1.399 . S
C425 C424 1.399 . S
C425 C428 1.396 . S
C425 C437 1.453 . S
C425 C438 1.684 . S
H426 C450 0.948 . S
C427 C423 1.397 . S
C427 C428 1.394 . S
C427 C446 1.723 . S
C428 C425 1.396 . S
C428 C427 1.394 . S
C428 C458 1.723 . S
H429 C452 0.947 . S
H430 C453 0.948 . S
H431 C459 0.982 . S
H432 C460 0.979 . S
H433 C460 0.980 . S
H434 C460 0.983 . S
H435 C459 0.979 . S
H436 C459 0.977 . S
C437 C425 1.453 . S
C437 H466 0.982 . S
C437 H467 0.979 . S
C437 H468 0.977 . S
C438 C425 1.684 . S
C438 H463 0.979 . S
C438 H464 0.980 . S
C438 H465 0.983 . S
C439 C440 1.391 . S
C439 C444 1.391 . S
C439 H469 0.948 . S
C440 C439 1.391 . S
C440 C441 1.391 . S
C441 C440 1.391 . S
C441 C442 1.392 . S
C441 H470 0.947 . S
C442 C441 1.392 . S
C442 C443 1.419 . S
C442 H471 0.948 . S
C443 C442 1.419 . S
C443 C444 1.391 . S
C443 C447 1.397 . S
C444 C439 1.391 . S
C444 C443 1.391 . S
C444 C445 1.399 . S
C445 C444 1.399 . S
C445 C446 1.396 . S
C445 C448 1.453 . S
C445 C449 1.684 . S
C446 C427 1.723 . S
C446 C445 1.396 . S
C446 C447 1.394 . S
C447 C443 1.397 . S
C447 C446 1.394 . S
C447 C457 1.723 . S
C448 C445 1.453 . S
C448 H472 0.982 . S
C448 H473 0.979 . S
C448 H474 0.977 . S
C449 C445 1.684 . S
C449 H475 0.979 . S
C449 H476 0.980 . S
C449 H477 0.983 . S
C450 H426 0.948 . S
C450 C451 1.391 . S
C450 C455 1.391 . S
C451 C450 1.391 . S
C451 C452 1.391 . S
C452 H429 0.947 . S
C452 C451 1.391 . S
C452 C453 1.392 . S
C453 H430 0.948 . S
C453 C452 1.392 . S
C453 C454 1.419 . S
C454 C453 1.419 . S
C454 C455 1.391 . S
C454 C458 1.397 . S
C455 C450 1.391 . S
C455 C454 1.391 . S
C455 C456 1.399 . S
C456 C455 1.399 . S
C456 C457 1.396 . S
C456 C459 1.453 . S
C456 C460 1.684 . S
C457 C447 1.723 . S
C457 C456 1.396 . S
C457 C458 1.394 . S
C458 C428 1.723 . S
C458 C454 1.397 . S
C458 C457 1.394 . S
C459 H431 0.982 . S
C459 H435 0.979 . S
C459 H436 0.977 . S
C459 C456 1.453 . S
C460 H432 0.979 . S
C460 H433 0.980 . S
C460 H434 0.983 . S
C460 C456 1.684 . S
H461 C479 0.948 . S
H462 C420 0.948 . S
H463 C438 0.979 . S
H464 C438 0.980 . S
H465 C438 0.983 . S
H466 C437 0.982 . S
H467 C437 0.979 . S
H468 C437 0.977 . S
H469 C439 0.948 . S
H470 C441 0.947 . S
H471 C442 0.948 . S
H472 C448 0.982 . S
H473 C448 0.979 . S
H474 C448 0.977 . S
H475 C449 0.979 . S
H476 C449 0.980 . S
H477 C449 0.983 . S
H478 C422 0.947 . S
C479 C422 1.392 . S
C479 C423 1.419 . S
C479 H461 0.948 . S
Gd480 C483 2.818 . S
Gd480 O500 2.377 . S
Gd480 O502 2.448 . S
Gd480 O503 2.506 . S
Gd480 O504 2.435 1_545 S
Gd480 O505 2.717 1_545 S
Gd480 O507 2.395 1_445 S
Gd480 O511 2.327 1_455 S
Gd481 C492 2.818 . S
Gd481 O501 2.395 1_665 S
Gd481 O505 2.327 1_655 S
Gd481 O506 2.377 . S
Gd481 O508 2.448 . S
Gd481 O509 2.506 . S
Gd481 O510 2.435 1_565 S
Gd481 O511 2.717 1_565 S
C482 O500 1.240 . S
C482 O501 1.240 . S
C483 Gd480 2.818 . S
C483 C484 1.510 . S
C483 O502 1.249 . S
C483 O503 1.252 . S
C484 C483 1.510 . S
C484 C485 1.404 . S
C484 C486 1.352 . S
C485 C484 1.404 . S
C485 C489 1.389 . S
C485 H512 0.930 . S
C486 C484 1.352 . S
C486 C488 1.374 . S
C486 H513 0.931 . S
C487 C488 1.359 . S
C487 C489 1.364 . S
C488 C486 1.374 . S
C488 C487 1.359 . S
C488 H514 0.931 . S
C489 C485 1.389 . S
C489 C487 1.364 . S
C489 H515 0.931 . S
C490 O504 1.256 . S
C490 O505 1.257 . S
C491 O506 1.240 . S
C491 O507 1.240 . S
C492 Gd481 2.818 . S
C492 C493 1.510 . S
C492 O508 1.249 . S
C492 O509 1.252 . S
C493 C492 1.510 . S
C493 C494 1.404 . S
C493 C495 1.352 . S
C494 C493 1.404 . S
C494 C498 1.389 . S
C494 H516 0.930 . S
C495 C493 1.352 . S
C495 C497 1.374 . S
C495 H517 0.931 . S
C496 C497 1.359 . S
C496 C498 1.364 . S
C497 C495 1.374 . S
C497 C496 1.359 . S
C497 H518 0.931 . S
C498 C494 1.389 . S
C498 C496 1.364 . S
C498 H519 0.931 . S
C499 O510 1.256 . S
C499 O511 1.257 . S
O500 Gd480 2.377 . S
O500 C482 1.240 . S
O501 Gd481 2.395 1_445 S
O501 C482 1.240 . S
O502 Gd480 2.448 . S
O502 C483 1.249 . S
O503 Gd480 2.506 . S
O503 C483 1.252 . S
O504 Gd480 2.435 1_565 S
O504 C490 1.256 . S
O505 Gd480 2.717 1_565 S
O505 Gd481 2.327 1_455 S
O505 C490 1.257 . S
O506 Gd481 2.377 . S
O506 C491 1.240 . S
O507 Gd480 2.395 1_665 S
O507 C491 1.240 . S
O508 Gd481 2.448 . S
O508 C492 1.249 . S
O509 Gd481 2.506 . S
O509 C492 1.252 . S
O510 Gd481 2.435 1_545 S
O510 C499 1.256 . S
O511 Gd480 2.327 1_655 S
O511 Gd481 2.717 1_545 S
O511 C499 1.257 . S
H512 C485 0.930 . S
H513 C486 0.931 . S
H514 C488 0.931 . S
H515 C489 0.931 . S
H516 C494 0.930 . S
H517 C495 0.931 . S
H518 C497 0.931 . S
H519 C498 0.931 . S
Gd520 C523 2.818 1_565 S
Gd520 O540 2.377 1_565 S
Gd520 O542 2.448 1_565 S
Gd520 O543 2.506 1_565 S
Gd520 O544 2.435 . S
Gd520 O545 2.717 . S
Gd520 O547 2.395 1_554 S
Gd520 O551 2.327 1_564 S
Gd521 C532 2.818 1_545 S
Gd521 O541 2.395 1_556 S
Gd521 O545 2.327 1_546 S
Gd521 O546 2.377 1_545 S
Gd521 O548 2.448 1_545 S
Gd521 O549 2.506 1_545 S
Gd521 O550 2.435 . S
Gd521 O551 2.717 . S
C522 O540 1.240 . S
C522 O541 1.240 . S
C523 Gd520 2.818 1_545 S
C523 C524 1.510 . S
C523 O542 1.249 . S
C523 O543 1.252 . S
C524 C523 1.510 . S
C524 C525 1.404 . S
C524 C526 1.352 . S
C525 C524 1.404 . S
C525 C529 1.389 . S
C525 H552 0.930 . S
C526 C524 1.352 . S
C526 C528 1.374 . S
C526 H553 0.931 . S
C527 C528 1.359 . S
C527 C529 1.364 . S
C528 C526 1.374 . S
C528 C527 1.359 . S
C528 H554 0.931 . S
C529 C525 1.389 . S
C529 C527 1.364 . S
C529 H555 0.931 . S
C530 O544 1.256 . S
C530 O545 1.257 . S
C531 O546 1.240 . S
C531 O547 1.240 . S
C532 Gd521 2.818 1_565 S
C532 C533 1.510 . S
C532 O548 1.249 . S
C532 O549 1.252 . S
C533 C532 1.510 . S
C533 C534 1.404 . S
C533 C535 1.352 . S
C534 C533 1.404 . S
C534 C538 1.389 . S
C534 H556 0.930 . S
C535 C533 1.352 . S
C535 C537 1.374 . S
C535 H557 0.931 . S
C536 C537 1.359 . S
C536 C538 1.364 . S
C537 C535 1.374 . S
C537 C536 1.359 . S
C537 H558 0.931 . S
C538 C534 1.389 . S
C538 C536 1.364 . S
C538 H559 0.931 . S
C539 O550 1.256 . S
C539 O551 1.257 . S
O540 Gd520 2.377 1_545 S
O540 C522 1.240 . S
O541 Gd521 2.395 1_554 S
O541 C522 1.240 . S
O542 Gd520 2.448 1_545 S
O542 C523 1.249 . S
O543 Gd520 2.506 1_545 S
O543 C523 1.252 . S
O544 Gd520 2.435 . S
O544 C530 1.256 . S
O545 Gd520 2.717 . S
O545 Gd521 2.327 1_564 S
O545 C530 1.257 . S
O546 Gd521 2.377 1_565 S
O546 C531 1.240 . S
O547 Gd520 2.395 1_556 S
O547 C531 1.240 . S
O548 Gd521 2.448 1_565 S
O548 C532 1.249 . S
O549 Gd521 2.506 1_565 S
O549 C532 1.252 . S
O550 Gd521 2.435 . S
O550 C539 1.256 . S
O551 Gd520 2.327 1_546 S
O551 Gd521 2.717 . S
O551 C539 1.257 . S
H552 C525 0.930 . S
H553 C526 0.931 . S
H554 C528 0.931 . S
H555 C529 0.931 . S
H556 C534 0.930 . S
H557 C535 0.931 . S
H558 C537 0.931 . S
H559 C538 0.931 . S
Gd560 C563 2.818 . S
Gd560 O580 2.377 . S
Gd560 O582 2.448 . S
Gd560 O583 2.506 . S
Gd560 O584 2.435 . S
Gd560 O585 2.717 . S
Gd560 O587 2.395 . S
Gd560 O591 2.327 . S
Gd561 C572 2.818 . S
Gd561 O581 2.395 . S
Gd561 O585 2.327 . S
Gd561 O586 2.377 . S
Gd561 O588 2.448 . S
Gd561 O589 2.506 . S
Gd561 O590 2.435 . S
Gd561 O591 2.717 . S
C562 O580 1.240 . S
C562 O581 1.240 . S
C563 Gd560 2.818 . S
C563 C564 1.510 . S
C563 O582 1.249 . S
C563 O583 1.252 . S
C564 C563 1.510 . S
C564 C565 1.404 . S
C564 C566 1.352 . S
C565 C564 1.404 . S
C565 C569 1.389 . S
C565 H592 0.930 . S
C566 C564 1.352 . S
C566 C568 1.374 . S
C566 H593 0.931 . S
C567 C568 1.359 . S
C567 C569 1.364 . S
C568 C566 1.374 . S
C568 C567 1.359 . S
C568 H594 0.931 . S
C569 C565 1.389 . S
C569 C567 1.364 . S
C569 H595 0.931 . S
C570 O584 1.256 . S
C570 O585 1.257 . S
C571 O586 1.240 . S
C571 O587 1.240 . S
C572 Gd561 2.818 . S
C572 C573 1.510 . S
C572 O588 1.249 . S
C572 O589 1.252 . S
C573 C572 1.510 . S
C573 C574 1.404 . S
C573 C575 1.352 . S
C574 C573 1.404 . S
C574 C578 1.389 . S
C574 H596 0.930 . S
C575 C573 1.352 . S
C575 C577 1.374 . S
C575 H597 0.931 . S
C576 C577 1.359 . S
C576 C578 1.364 . S
C577 C575 1.374 . S
C577 C576 1.359 . S
C577 H598 0.931 . S
C578 C574 1.389 . S
C578 C576 1.364 . S
C578 H599 0.931 . S
C579 O590 1.256 . S
C579 O591 1.257 . S
O580 Gd560 2.377 . S
O580 C562 1.240 . S
O581 Gd561 2.395 . S
O581 C562 1.240 . S
O582 Gd560 2.448 . S
O582 C563 1.249 . S
O583 Gd560 2.506 . S
O583 C563 1.252 . S
O584 Gd560 2.435 . S
O584 C570 1.256 . S
O585 Gd560 2.717 . S
O585 Gd561 2.327 . S
O585 C570 1.257 . S
O586 Gd561 2.377 . S
O586 C571 1.240 . S
O587 Gd560 2.395 . S
O587 C571 1.240 . S
O588 Gd561 2.448 . S
O588 C572 1.249 . S
O589 Gd561 2.506 . S
O589 C572 1.252 . S
O590 Gd561 2.435 . S
O590 C579 1.256 . S
O591 Gd560 2.327 . S
O591 Gd561 2.717 . S
O591 C579 1.257 . S
H592 C565 0.930 . S
H593 C566 0.931 . S
H594 C568 0.931 . S
H595 C569 0.931 . S
H596 C574 0.930 . S
H597 C575 0.931 . S
H598 C577 0.931 . S
H599 C578 0.931 . S
Gd600 C603 2.818 . S
Gd600 O620 2.377 . S
Gd600 O622 2.448 . S
Gd600 O623 2.506 . S
Gd600 O624 2.435 1_455 S
Gd600 O625 2.717 1_455 S
Gd600 O627 2.395 1_454 S
Gd600 O631 2.327 1_554 S
Gd601 C612 2.818 . S
Gd601 O621 2.395 1_656 S
Gd601 O625 2.327 1_556 S
Gd601 O626 2.377 . S
Gd601 O628 2.448 . S
Gd601 O629 2.506 . S
Gd601 O630 2.435 1_655 S
Gd601 O631 2.717 1_655 S
C602 O620 1.240 . S
C602 O621 1.240 . S
C603 Gd600 2.818 . S
C603 C604 1.510 . S
C603 O622 1.249 . S
C603 O623 1.252 . S
C604 C603 1.510 . S
C604 C605 1.404 . S
C604 C606 1.352 . S
C605 C604 1.404 . S
C605 C609 1.389 . S
C605 H632 0.930 . S
C606 C604 1.352 . S
C606 C608 1.374 . S
C606 H633 0.931 . S
C607 C608 1.359 . S
C607 C609 1.364 . S
C608 C606 1.374 . S
C608 C607 1.359 . S
C608 H634 0.931 . S
C609 C605 1.389 . S
C609 C607 1.364 . S
C609 H635 0.931 . S
C610 O624 1.256 . S
C610 O625 1.257 . S
C611 O626 1.240 . S
C611 O627 1.240 . S
C612 Gd601 2.818 . S
C612 C613 1.510 . S
C612 O628 1.249 . S
C612 O629 1.252 . S
C613 C612 1.510 . S
C613 C614 1.404 . S
C613 C615 1.352 . S
C614 C613 1.404 . S
C614 C618 1.389 . S
C614 H636 0.930 . S
C615 C613 1.352 . S
C615 C617 1.374 . S
C615 H637 0.931 . S
C616 C617 1.359 . S
C616 C618 1.364 . S
C617 C615 1.374 . S
C617 C616 1.359 . S
C617 H638 0.931 . S
C618 C614 1.389 . S
C618 C616 1.364 . S
C618 H639 0.931 . S
C619 O630 1.256 . S
C619 O631 1.257 . S
O620 Gd600 2.377 . S
O620 C602 1.240 . S
O621 Gd601 2.395 1_454 S
O621 C602 1.240 . S
O622 Gd600 2.448 . S
O622 C603 1.249 . S
O623 Gd600 2.506 . S
O623 C603 1.252 . S
O624 Gd600 2.435 1_655 S
O624 C610 1.256 . S
O625 Gd600 2.717 1_655 S
O625 Gd601 2.327 1_554 S
O625 C610 1.257 . S
O626 Gd601 2.377 . S
O626 C611 1.240 . S
O627 Gd600 2.395 1_656 S
O627 C611 1.240 . S
O628 Gd601 2.448 . S
O628 C612 1.249 . S
O629 Gd601 2.506 . S
O629 C612 1.252 . S
O630 Gd601 2.435 1_455 S
O630 C619 1.256 . S
O631 Gd600 2.327 1_556 S
O631 Gd601 2.717 1_455 S
O631 C619 1.257 . S
H632 C605 0.930 . S
H633 C606 0.931 . S
H634 C608 0.931 . S
H635 C609 0.931 . S
H636 C614 0.930 . S
H637 C615 0.931 . S
H638 C617 0.931 . S
H639 C618 0.931 . S
C640 C641 1.369 . S
C640 C642 1.419 . S
C640 H644 0.930 . S
C641 C640 1.369 . S
C641 C650 1.429 . S
C642 C640 1.419 . S
C642 C643 1.363 . S
C642 H645 0.929 . S
C643 C642 1.363 . S
C643 C649 1.428 . S
H644 C640 0.930 . S
H645 C642 0.929 . S
S646 N647 1.613 . S
S646 N648 1.610 . S
N647 S646 1.613 . S
N647 C650 1.350 . S
N648 S646 1.610 . S
N648 C649 1.351 . S
C649 C643 1.428 . S
C649 N648 1.351 . S
C649 C650 1.434 . S
C650 C641 1.429 . S
C650 N647 1.350 . S
C650 C649 1.434 . S
C651 C652 1.369 . S
C651 C653 1.419 . S
C651 H655 0.930 . S
C652 C651 1.369 . S
C652 C661 1.429 . S
C653 C651 1.419 . S
C653 C654 1.363 . S
C653 H656 0.929 . S
C654 C653 1.363 . S
C654 C660 1.428 . S
H655 C651 0.930 . S
H656 C653 0.929 . S
S657 N658 1.613 . S
S657 N659 1.610 . S
N658 S657 1.613 . S
N658 C661 1.350 . S
N659 S657 1.610 . S
N659 C660 1.351 . S
C660 C654 1.428 . S
C660 N659 1.351 . S
C660 C661 1.434 . S
C661 C652 1.429 . S
C661 N658 1.350 . S
C661 C660 1.434 . S
C662 C663 1.369 . S
C662 C664 1.419 . S
C662 H666 0.930 . S
C663 C662 1.369 . S
C663 C672 1.429 . S
C664 C662 1.419 . S
C664 C665 1.363 . S
C664 H667 0.929 . S
C665 C664 1.363 . S
C665 C671 1.428 . S
H666 C662 0.930 . S
H667 C664 0.929 . S
S668 N669 1.613 . S
S668 N670 1.610 . S
N669 S668 1.613 . S
N669 C672 1.350 . S
N670 S668 1.610 . S
N670 C671 1.351 . S
C671 C665 1.428 . S
C671 N670 1.351 . S
C671 C672 1.434 . S
C672 C663 1.429 . S
C672 N669 1.350 . S
C672 C671 1.434 . S
C673 C674 1.369 . S
C673 C675 1.419 . S
C673 H677 0.930 . S
C674 C673 1.369 . S
C674 C683 1.429 . S
C675 C673 1.419 . S
C675 C676 1.363 . S
C675 H678 0.929 . S
C676 C675 1.363 . S
C676 C682 1.428 . S
H677 C673 0.930 . S
H678 C675 0.929 . S
S679 N680 1.613 . S
S679 N681 1.610 . S
N680 S679 1.613 . S
N680 C683 1.350 . S
N681 S679 1.610 . S
N681 C682 1.351 . S
C682 C676 1.428 . S
C682 N681 1.351 . S
C682 C683 1.434 . S
C683 C674 1.429 . S
C683 N680 1.350 . S
C683 C682 1.434 . S
C684 C685 1.369 . S
C684 C686 1.419 . S
C684 H688 0.930 . S
C685 C684 1.369 . S
C685 C694 1.429 . S
C686 C684 1.419 . S
C686 C687 1.363 . S
C686 H689 0.929 . S
C687 C686 1.363 . S
C687 C693 1.428 . S
H688 C684 0.930 . S
H689 C686 0.929 . S
S690 N691 1.613 . S
S690 N692 1.610 . S
N691 S690 1.613 . S
N691 C694 1.350 . S
N692 S690 1.610 . S
N692 C693 1.351 . S
C693 C687 1.428 . S
C693 N692 1.351 . S
C693 C694 1.434 . S
C694 C685 1.429 . S
C694 N691 1.350 . S
C694 C693 1.434 . S
C695 C696 1.369 . S
C695 C697 1.419 . S
C695 H699 0.930 . S
C696 C695 1.369 . S
C696 C705 1.429 . S
C697 C695 1.419 . S
C697 C698 1.363 . S
C697 H700 0.929 . S
C698 C697 1.363 . S
C698 C704 1.428 . S
H699 C695 0.930 . S
H700 C697 0.929 . S
S701 N702 1.613 . S
S701 N703 1.610 . S
N702 S701 1.613 . S
N702 C705 1.350 . S
N703 S701 1.610 . S
N703 C704 1.351 . S
C704 C698 1.428 . S
C704 N703 1.351 . S
C704 C705 1.434 . S
C705 C696 1.429 . S
C705 N702 1.350 . S
C705 C704 1.434 . S
C706 C707 1.369 . S
C706 C708 1.419 . S
C706 H710 0.930 . S
C707 C706 1.369 . S
C707 C716 1.429 . S
C708 C706 1.419 . S
C708 C709 1.363 . S
C708 H711 0.929 . S
C709 C708 1.363 . S
C709 C715 1.428 . S
H710 C706 0.930 . S
H711 C708 0.929 . S
S712 N713 1.613 . S
S712 N714 1.610 . S
N713 S712 1.613 . S
N713 C716 1.350 . S
N714 S712 1.610 . S
N714 C715 1.351 . S
C715 C709 1.428 . S
C715 N714 1.351 . S
C715 C716 1.434 . S
C716 C707 1.429 . S
C716 N713 1.350 . S
C716 C715 1.434 . S
C717 C718 1.369 . S
C717 C719 1.419 . S
C717 H721 0.930 . S
C718 C717 1.369 . S
C718 C727 1.429 . S
C719 C717 1.419 . S
C719 C720 1.363 . S
C719 H722 0.929 . S
C720 C719 1.363 . S
C720 C726 1.428 . S
H721 C717 0.930 . S
H722 C719 0.929 . S
S723 N724 1.613 . S
S723 N725 1.610 . S
N724 S723 1.613 . S
N724 C727 1.350 . S
N725 S723 1.610 . S
N725 C726 1.351 . S
C726 C720 1.428 . S
C726 N725 1.351 . S
C726 C727 1.434 . S
C727 C718 1.429 . S
C727 N724 1.350 . S
C727 C726 1.434 . S
C728 C729 1.369 . S
C728 C730 1.419 . S
C728 H732 0.930 . S
C729 C728 1.369 . S
C729 C738 1.429 . S
C730 C728 1.419 . S
C730 C731 1.363 . S
C730 H733 0.929 . S
C731 C730 1.363 . S
C731 C737 1.428 . S
H732 C728 0.930 . S
H733 C730 0.929 . S
S734 N735 1.613 . S
S734 N736 1.610 . S
N735 S734 1.613 . S
N735 C738 1.350 . S
N736 S734 1.610 . S
N736 C737 1.351 . S
C737 C731 1.428 . S
C737 N736 1.351 . S
C737 C738 1.434 . S
C738 C729 1.429 . S
C738 N735 1.350 . S
C738 C737 1.434 . S
C739 C740 1.369 . S
C739 C741 1.419 . S
C739 H743 0.930 . S
C740 C739 1.369 . S
C740 C749 1.429 . S
C741 C739 1.419 . S
C741 C742 1.363 . S
C741 H744 0.929 . S
C742 C741 1.363 . S
C742 C748 1.428 . S
H743 C739 0.930 . S
H744 C741 0.929 . S
S745 N746 1.617 . S
S745 N747 1.611 . S
N746 S745 1.617 . S
N746 C749 1.350 . S
N747 S745 1.611 . S
N747 C748 1.351 . S
C748 C742 1.428 . S
C748 N747 1.351 . S
C748 C749 1.434 . S
C749 C740 1.429 . S
C749 N746 1.350 . S
C749 C748 1.434 . S
C750 C751 1.369 . S
C750 C752 1.419 . S
C750 H754 0.930 . S
C751 C750 1.369 . S
C751 C760 1.429 . S
C752 C750 1.419 . S
C752 C753 1.363 . S
C752 H755 0.929 . S
C753 C752 1.363 . S
C753 C759 1.428 . S
H754 C750 0.930 . S
H755 C752 0.929 . S
S756 N757 1.613 . S
S756 N758 1.610 . S
N757 S756 1.613 . S
N757 C760 1.350 . S
N758 S756 1.610 . S
N758 C759 1.351 . S
C759 C753 1.428 . S
C759 N758 1.351 . S
C759 C760 1.434 . S
C760 C751 1.429 . S
C760 N757 1.350 . S
C760 C759 1.434 . S
C761 C762 1.369 . S
C761 C763 1.419 . S
C761 H765 0.930 . S
C762 C761 1.369 . S
C762 C771 1.429 . S
C763 C761 1.419 . S
C763 C764 1.363 . S
C763 H766 0.929 . S
C764 C763 1.363 . S
C764 C770 1.428 . S
H765 C761 0.930 . S
H766 C763 0.929 . S
S767 N768 1.613 . S
S767 N769 1.610 . S
N768 S767 1.613 . S
N768 C771 1.350 . S
N769 S767 1.610 . S
N769 C770 1.351 . S
C770 C764 1.428 . S
C770 N769 1.351 . S
C770 C771 1.434 . S
C771 C762 1.429 . S
C771 N768 1.350 . S
C771 C770 1.434 . S
C772 C773 1.369 . S
C772 C774 1.419 . S
C772 H776 0.930 . S
C773 C772 1.369 . S
C773 C782 1.429 . S
C774 C772 1.419 . S
C774 C775 1.363 . S
C774 H777 0.929 . S
C775 C774 1.363 . S
C775 C781 1.428 . S
H776 C772 0.930 . S
H777 C774 0.929 . S
S778 N779 1.613 . S
S778 N780 1.610 . S
N779 S778 1.613 . S
N779 C782 1.350 . S
N780 S778 1.610 . S
N780 C781 1.351 . S
C781 C775 1.428 . S
C781 N780 1.351 . S
C781 C782 1.434 . S
C782 C773 1.429 . S
C782 N779 1.350 . S
C782 C781 1.434 . S
C783 C784 1.369 . S
C783 C785 1.419 . S
C783 H787 0.930 . S
C784 C783 1.369 . S
C784 C793 1.429 . S
C785 C783 1.419 . S
C785 C786 1.363 . S
C785 H788 0.929 . S
C786 C785 1.363 . S
C786 C792 1.428 . S
H787 C783 0.930 . S
H788 C785 0.929 . S
S789 N790 1.613 . S
S789 N791 1.610 . S
N790 S789 1.613 . S
N790 C793 1.350 . S
N791 S789 1.610 . S
N791 C792 1.351 . S
C792 C786 1.428 . S
C792 N791 1.351 . S
C792 C793 1.434 . S
C793 C784 1.429 . S
C793 N790 1.350 . S
C793 C792 1.434 . S
C794 C795 1.369 . S
C794 C796 1.419 . S
C794 H798 0.930 . S
C795 C794 1.369 . S
C795 C804 1.429 . S
C796 C794 1.419 . S
C796 C797 1.363 . S
C796 H799 0.929 . S
C797 C796 1.363 . S
C797 C803 1.428 . S
H798 C794 0.930 . S
H799 C796 0.929 . S
S800 N801 1.613 . S
S800 N802 1.610 . S
N801 S800 1.613 . S
N801 C804 1.350 . S
N802 S800 1.610 . S
N802 C803 1.351 . S
C803 C797 1.428 . S
C803 N802 1.351 . S
C803 C804 1.434 . S
C804 C795 1.429 . S
C804 N801 1.350 . S
C804 C803 1.434 . S
C805 C806 1.369 . S
C805 C807 1.419 . S
C805 H809 0.930 . S
C806 C805 1.369 . S
C806 C815 1.429 . S
C807 C805 1.419 . S
C807 C808 1.363 . S
C807 H810 0.929 . S
C808 C807 1.363 . S
C808 C814 1.428 . S
H809 C805 0.930 . S
H810 C807 0.929 . S
S811 N812 1.613 . S
S811 N813 1.610 . S
N812 S811 1.613 . S
N812 C815 1.350 . S
N813 S811 1.610 . S
N813 C814 1.351 . S
C814 C808 1.428 . S
C814 N813 1.351 . S
C814 C815 1.434 . S
C815 C806 1.429 . S
C815 N812 1.350 . S
C815 C814 1.434 . S
C816 C817 1.369 . S
C816 C818 1.419 . S
C816 H820 0.930 . S
C817 C816 1.369 . S
C817 C826 1.429 . S
C818 C816 1.419 . S
C818 C819 1.363 . S
C818 H821 0.929 . S
C819 C818 1.363 . S
C819 C825 1.428 . S
H820 C816 0.930 . S
H821 C818 0.929 . S
S822 N823 1.613 . S
S822 N824 1.610 . S
N823 S822 1.613 . S
N823 C826 1.350 . S
N824 S822 1.610 . S
N824 C825 1.351 . S
C825 C819 1.428 . S
C825 N824 1.351 . S
C825 C826 1.434 . S
C826 C817 1.429 . S
C826 N823 1.350 . S
C826 C825 1.434 . S
C827 C828 1.369 . S
C827 C829 1.419 . S
C827 H831 0.930 . S
C828 C827 1.369 . S
C828 C837 1.429 . S
C829 C827 1.419 . S
C829 C830 1.363 . S
C829 H832 0.929 . S
C830 C829 1.363 . S
C830 C836 1.428 . S
H831 C827 0.930 . S
H832 C829 0.929 . S
S833 N834 1.613 . S
S833 N835 1.610 . S
N834 S833 1.613 . S
N834 C837 1.350 . S
N835 S833 1.610 . S
N835 C836 1.351 . S
C836 C830 1.428 . S
C836 N835 1.351 . S
C836 C837 1.434 . S
C837 C828 1.429 . S
C837 N834 1.350 . S
C837 C836 1.434 . S
C838 C839 1.369 . S
C838 C840 1.419 . S
C838 H842 0.930 . S
C839 C838 1.369 . S
C839 C848 1.429 . S
C840 C838 1.419 . S
C840 C841 1.363 . S
C840 H843 0.929 . S
C841 C840 1.363 . S
C841 C847 1.428 . S
H842 C838 0.930 . S
H843 C840 0.929 . S
S844 N845 1.613 . S
S844 N846 1.610 . S
N845 S844 1.613 . S
N845 C848 1.350 . S
N846 S844 1.610 . S
N846 C847 1.351 . S
C847 C841 1.428 . S
C847 N846 1.351 . S
C847 C848 1.434 . S
C848 C839 1.429 . S
C848 N845 1.350 . S
C848 C847 1.434 . S
C849 C850 1.369 . S
C849 C851 1.419 . S
C849 H853 0.930 . S
C850 C849 1.369 . S
C850 C859 1.429 . S
C851 C849 1.419 . S
C851 C852 1.363 . S
C851 H854 0.929 . S
C852 C851 1.363 . S
C852 C858 1.428 . S
H853 C849 0.930 . S
H854 C851 0.929 . S
S855 N856 1.613 . S
S855 N857 1.610 . S
N856 S855 1.613 . S
N856 C859 1.350 . S
N857 S855 1.610 . S
N857 C858 1.351 . S
C858 C852 1.428 . S
C858 N857 1.351 . S
C858 C859 1.434 . S
C859 C850 1.429 . S
C859 N856 1.350 . S
C859 C858 1.434 . S
C860 C861 1.369 . S
C860 C862 1.419 . S
C860 H864 0.930 . S
C861 C860 1.369 . S
C861 C870 1.429 . S
C862 C860 1.419 . S
C862 C863 1.363 . S
C862 H865 0.929 . S
C863 C862 1.363 . S
C863 C869 1.428 . S
H864 C860 0.930 . S
H865 C862 0.929 . S
S866 N867 1.613 . S
S866 N868 1.610 . S
N867 S866 1.613 . S
N867 C870 1.350 . S
N868 S866 1.610 . S
N868 C869 1.351 . S
C869 C863 1.428 . S
C869 N868 1.351 . S
C869 C870 1.434 . S
C870 C861 1.429 . S
C870 N867 1.350 . S
C870 C869 1.434 . S
C871 C872 1.369 . S
C871 C873 1.419 . S
C871 H875 0.930 . S
C872 C871 1.369 . S
C872 C881 1.429 . S
C873 C871 1.419 . S
C873 C874 1.363 . S
C873 H876 0.929 . S
C874 C873 1.363 . S
C874 C880 1.428 . S
H875 C871 0.930 . S
H876 C873 0.929 . S
S877 N878 1.613 . S
S877 N879 1.610 . S
N878 S877 1.613 . S
N878 C881 1.350 . S
N879 S877 1.610 . S
N879 C880 1.351 . S
C880 C874 1.428 . S
C880 N879 1.351 . S
C880 C881 1.434 . S
C881 C872 1.429 . S
C881 N878 1.350 . S
C881 C880 1.434 . S
C882 C883 1.369 . S
C882 C884 1.419 . S
C882 H886 0.930 . S
C883 C882 1.369 . S
C883 C892 1.429 . S
C884 C882 1.419 . S
C884 C885 1.363 . S
C884 H887 0.929 . S
C885 C884 1.363 . S
C885 C891 1.428 . S
H886 C882 0.930 . S
H887 C884 0.929 . S
S888 N889 1.613 . S
S888 N890 1.610 . S
N889 S888 1.613 . S
N889 C892 1.350 . S
N890 S888 1.610 . S
N890 C891 1.351 . S
C891 C885 1.428 . S
C891 N890 1.351 . S
C891 C892 1.434 . S
C892 C883 1.429 . S
C892 N889 1.350 . S
C892 C891 1.434 . S
C893 C894 1.369 . S
C893 C895 1.419 . S
C893 H897 0.930 . S
C894 C893 1.369 . S
C894 C903 1.429 . S
C895 C893 1.419 . S
C895 C896 1.363 . S
C895 H898 0.929 . S
C896 C895 1.363 . S
C896 C902 1.428 . S
H897 C893 0.930 . S
H898 C895 0.929 . S
S899 N900 1.613 . S
S899 N901 1.610 . S
N900 S899 1.613 . S
N900 C903 1.350 . S
N901 S899 1.610 . S
N901 C902 1.351 . S
C902 C896 1.428 . S
C902 N901 1.351 . S
C902 C903 1.434 . S
C903 C894 1.429 . S
C903 N900 1.350 . S
C903 C902 1.434 . S
C641 C1 1.190 . S
C643 C487 1.415 . S
C652 C80 1.048 . S
C654 C536 1.111 . S
C665 C562 2.481 . S
C663 C140 2.461 . S
C674 C211 2.425 . S
C676 C610 2.391 . S
C687 C522 2.612 . S
C685 C31 2.233 . S
C698 C490 0.919 . S
C696 C61 0.887 . S
C709 C611 1.933 . S
C707 C151 1.947 . S
C720 C579 1.684 . S
C718 C200 1.688 . S
C729 C20 1.713 . S
C731 C607 1.847 . S
C742 C539 2.334 . S
C740 C121 2.416 . S
C751 C181 2.293 . S
C753 C491 2.339 . S
C762 C91 1.220 . S
C764 C576 1.182 . S
C775 C496 1.411 . S
C773 C260 1.286 . S
C784 C320 1.053 . S
C786 C527 1.104 . S
C795 C361 2.461 . S
C797 C571 2.479 . S
C806 C451 2.422 . S
C808 C619 2.396 . S
C817 C271 2.335 . S
C819 C531 2.613 . S
C830 C499 0.915 . S
C828 C301 0.895 . S
C841 C602 1.930 . S
C839 C380 1.917 . S
C852 C570 1.683 . S
C850 C440 1.684 . S
C861 C241 1.582 . S
C863 C616 1.846 . S
C874 C530 2.334 . S
C872 C391 2.409 . S
C885 C482 2.339 . S
C883 C421 2.291 . S
C894 C331 1.222 . S
C896 C567 1.179 . S
