# Generated by pormake.
# Topology anh, (6,3)-cn, num edge types: 1
# Building blocks:
#     Node 0, Type 0, BuildingBlock: BETDIP_clean_sbu_0, # of connection points: 6
#     Node 1, Type 0, BuildingBlock: BETDIP_clean_sbu_0, # of connection points: 6
#     Node 2, Type 0, BuildingBlock: BETDIP_clean_sbu_0, # of connection points: 6
#     Node 3, Type 1, BuildingBlock: KAKCAD_clean_linker_0, # of connection points: 3
#     Node 4, Type 1, BuildingBlock: KAKCAD_clean_linker_0, # of connection points: 3
#     Node 5, Type 1, BuildingBlock: KAKCAD_clean_linker_0, # of connection points: 3
#     Node 6, Type 1, BuildingBlock: KAKCAD_clean_linker_0, # of connection points: 3
#     Node 7, Type 1, BuildingBlock: KAKCAD_clean_linker_0, # of connection points: 3
#     Node 8, Type 1, BuildingBlock: KAKCAD_clean_linker_0, # of connection points: 3
#     Edge 9, Type (0, 1), None
#     Edge 10, Type (0, 1), None
#     Edge 11, Type (0, 1), None
#     Edge 12, Type (0, 1), None
#     Edge 13, Type (0, 1), None
#     Edge 14, Type (0, 1), None
#     Edge 15, Type (0, 1), None
#     Edge 16, Type (0, 1), None
#     Edge 17, Type (0, 1), None
#     Edge 18, Type (0, 1), None
#     Edge 19, Type (0, 1), None
#     Edge 20, Type (0, 1), None
#     Edge 21, Type (0, 1), None
#     Edge 22, Type (0, 1), None
#     Edge 23, Type (0, 1), None
#     Edge 24, Type (0, 1), None
#     Edge 25, Type (0, 1), None
#     Edge 26, Type (0, 1), None
# Relax obj value: 0.455
# Max RMSD: 0.213
# Mean RMSD: 0.180
data_MOF--net-anh--node1-BETDIP_clean_sbu_0--node2-KAKCAD_clean_linker_0--edge1-none
_symmetry_space_group_name_H-M    P1
_symmetry_Int_Tables_number       1
_symmetry_cell_setting            triclinic
loop_
_symmetry_equiv_pos_as_xyz
'x, y, z'
_cell_length_a     20.450902
_cell_length_b     20.463663
_cell_length_c     37.930173
_cell_angle_alpha  89.695004
_cell_angle_beta   90.222978
_cell_angle_gamma 120.33694
loop_
_atom_site_label
_atom_site_type_symbol
_atom_site_fract_x
_atom_site_fract_y
_atom_site_fract_z
_atom_type_partial_charge
Tb0 Tb 0.21749 0.6859 0.13584 0.0
Tb1 Tb 1.13434 0.52806 0.14651 0.0
C2 C 0.27475 0.82651 0.14153 0.0
C3 C 0.25318 0.88026 0.1547 0.0
C4 C 0.20475 0.86291 0.18378 0.0
C5 C 0.20034 0.92069 0.20119 0.0
C6 C 0.24491 0.99641 0.18989 0.0
C7 C 0.28529 1.01112 0.158 0.0
C8 C 0.28958 0.95352 0.1407 0.0
C9 C 0.18551 0.60575 0.078 0.0
C10 C 0.32078 0.60879 0.13045 0.0
C11 C 1.06265 0.3863 0.14343 0.0
C12 C 0.97989 0.33721 0.13998 0.0
C13 C 0.93989 0.35525 0.11522 0.0
C14 C 0.86288 0.32871 0.11979 0.0
C15 C 0.82474 0.28354 0.14904 0.0
C16 C 0.86231 0.25752 0.17111 0.0
C17 C 0.93956 0.28435 0.16662 0.0
C18 C 1.15371 0.60215 0.2072 0.0
C19 C 1.03068 0.60479 0.132 0.0
O20 O 0.24076 0.78925 0.113 0.0
O21 O 0.28207 0.784 0.16531 0.0
O22 O 1.14305 0.59532 0.10354 0.0
O23 O 0.25081 0.6658 0.08348 0.0
O24 O 0.32077 0.67408 0.13087 0.0
O25 O 0.25366 0.54506 0.13633 0.0
O26 O 1.09786 0.42967 0.1164 0.0
O27 O 1.08474 0.42356 0.17307 0.0
O28 O 0.20405 0.6192 0.18333 0.0
O29 O 1.09172 0.54425 0.19621 0.0
O30 O 1.03321 0.54054 0.13142 0.0
O31 O 1.09725 0.66881 0.13755 0.0
H32 H 0.17489 0.80601 0.19455 0.0
H33 H 1.16756 0.90714 0.22524 0.0
H34 H 0.3207 1.06839 0.14834 0.0
H35 H 0.32644 0.9676 0.11801 0.0
H36 H 0.96908 0.39536 0.0942 0.0
H37 H 0.83465 0.3485 0.10219 0.0
H38 H 0.83409 0.22277 0.19398 0.0
H39 H 0.96912 0.26969 0.18602 0.0
Tb40 Tb 0.72193 1.11144 0.4666 0.0
Tb41 Tb 0.6373 0.17797 0.48366 0.0
C42 C 0.787 1.03549 0.46718 0.0
C43 C 0.86345 1.05384 0.47744 0.0
C44 C 0.89018 1.00588 0.46749 0.0
C45 C 0.95723 1.0155 0.48201 0.0
C46 C 0.99787 1.07286 0.50697 0.0
C47 C 0.97492 0.12568 0.51391 0.0
C48 C 0.90796 0.11616 0.49923 0.0
C49 C 0.68028 0.16035 0.41179 0.0
C50 C 0.53376 1.00008 0.46466 0.0
C51 C 0.59426 0.27233 0.48764 0.0
C52 C 0.64363 0.35258 0.49762 0.0
C53 C 0.68055 0.40817 0.47133 0.0
C54 C 0.74374 0.47822 0.47974 0.0
C55 C 0.77103 0.49335 0.51448 0.0
C56 C 0.73015 0.44059 0.54114 0.0
C57 C 0.66687 0.37116 0.53286 0.0
C58 C 0.67705 0.13284 0.5422 0.0
C59 C 0.82342 0.28944 0.46732 0.0
O60 O 0.74406 1.03463 0.49295 0.0
O61 O 0.78289 1.07071 0.43924 0.0
O62 O 0.64075 0.12464 0.43771 0.0
O63 O 0.747 0.16852 0.41484 0.0
O64 O 0.60244 1.00595 0.46373 0.0
O65 O 0.53341 1.06453 0.47048 0.0
O66 O 0.61146 0.25315 0.4578 0.0
O67 O 0.58101 0.22234 0.51234 0.0
O68 O 0.7197 0.16634 0.51563 0.0
O69 O 0.61051 0.122 0.535 0.0
O70 O 0.75459 0.28245 0.47079 0.0
O71 O 0.82559 0.22584 0.46937 0.0
H72 H 0.85682 0.95815 0.45031 0.0
H73 H 0.97278 0.97327 0.4764 0.0
H74 H 1.00519 0.17035 0.53298 0.0
H75 H 0.88848 0.15447 0.50674 0.0
H76 H 0.66384 0.39562 0.44393 0.0
H77 H 0.77371 0.51866 0.45884 0.0
H78 H 0.74852 0.45215 0.56837 0.0
H79 H 0.6394 0.3303 0.5539 0.0
Tb80 Tb 0.66783 0.62025 0.79774 0.0
Tb81 Tb 0.81992 0.69213 0.81798 0.0
C82 C 0.52678 0.53452 0.79472 0.0
C83 C 0.4735 0.45826 0.80759 0.0
C84 C 0.49458 0.42531 0.83456 0.0
C85 C 0.43897 0.36346 0.85345 0.0
C86 C 0.36189 0.33475 0.84572 0.0
C87 C 0.34244 0.3615 0.81545 0.0
C88 C 0.39799 0.42328 0.79667 0.0
C89 C 0.76403 0.67836 0.74525 0.0
C90 C 0.7449 0.80079 0.7975 0.0
C91 C 0.96043 0.7583 0.82477 0.0
C92 C 1.00287 0.71776 0.82871 0.0
C93 C 1.00883 0.67737 0.80003 0.0
C94 C 1.02112 0.61691 0.80591 0.0
C95 C 1.02775 0.59652 0.84042 0.0
C96 C 1.03068 0.64202 0.86861 0.0
C97 C 1.01922 0.70276 0.86277 0.0
C98 C 0.73027 0.62699 0.87392 0.0
C99 C 0.74655 0.51335 0.79882 0.0
O100 O 0.57248 0.53972 0.76956 0.0
O101 O 0.56142 0.58508 0.81938 0.0
O102 O 0.7667 0.64177 0.77101 0.0
O103 O 0.7028 0.68224 0.74698 0.0
O104 O 0.68007 0.73526 0.79415 0.0
O105 O 0.80685 0.79668 0.80644 0.0
O106 O 0.92736 0.75096 0.79431 0.0
O107 O 0.91501 0.74921 0.85092 0.0
O108 O 0.7198 0.66435 0.84949 0.0
O109 O 0.78933 0.62315 0.8655 0.0
O110 O 0.81092 0.57958 0.80357 0.0
O111 O 0.68232 0.51617 0.79941 0.0
H112 H 0.5531 0.45136 0.84303 0.0
H113 H 0.45568 0.34345 0.87634 0.0
H114 H 0.28374 0.34113 0.80872 0.0
H115 H 0.38108 0.44776 0.77564 0.0
H116 H 0.99751 0.688 0.77334 0.0
H117 H 1.01982 0.58285 0.78385 0.0
H118 H 1.03734 0.62774 0.89543 0.0
H119 H 1.01584 0.73319 0.88533 0.0
C120 C 0.70391 0.25632 0.36512 0.0
C121 C 0.65363 0.19056 0.38363 0.0
C122 C 0.677 0.28368 0.33824 0.0
C123 C 0.5997 0.24415 0.32863 0.0
C124 C 0.54941 0.17993 0.34848 0.0
C125 C 0.57602 0.15414 0.37595 0.0
C126 C 0.57378 0.26123 0.29482 0.0
C127 C 0.62087 0.28034 0.26517 0.0
C128 C 0.59211 0.27533 0.23124 0.0
C129 C 0.51606 0.25321 0.22653 0.0
C130 C 0.46743 0.2344 0.25577 0.0
C131 C 0.49779 0.24226 0.28993 0.0
C132 C 0.38472 0.18509 0.2496 0.0
C133 C 0.35104 0.19603 0.21946 0.0
C134 C 0.34712 1.11421 0.26657 0.0
C135 C 0.28875 1.05192 0.24936 0.0
C136 C 0.26758 1.05998 0.21499 0.0
C137 C 0.63761 0.27469 0.20158 0.0
C138 C 0.6934 0.34287 0.18671 0.0
C139 C 0.63615 0.207 0.19374 0.0
C140 C 0.69398 0.2084 0.17375 0.0
C141 C 0.75334 0.27748 0.16111 0.0
C142 C 0.75064 0.34417 0.16627 0.0
C143 C 0.29236 0.13354 0.20223 0.0
H144 H 0.76381 0.28645 0.37141 0.0
H145 H 0.71726 0.33431 0.32417 0.0
H146 H 0.48994 0.14664 0.34174 0.0
H147 H 0.53611 1.10363 0.39027 0.0
H148 H 0.67817 0.2908 0.26784 0.0
H149 H 0.4602 0.22617 0.31242 0.0
H150 H 0.49347 0.24253 0.19993 0.0
H151 H 0.37708 0.25077 0.2065 0.0
H152 H 0.37014 1.10366 0.29026 0.0
H153 H 0.26975 0.9965 0.26067 0.0
H154 H 0.69588 0.39564 0.19305 0.0
H155 H 0.59376 0.15402 0.20551 0.0
H156 H 0.27453 0.14193 0.1765 0.0
H157 H 0.79646 0.39837 0.15732 0.0
H158 H 0.69509 0.15647 0.1702 0.0
C159 C 0.83275 0.77398 0.6976 0.0
C160 C 0.82595 0.71563 0.71957 0.0
C161 C 0.89182 0.8074 0.67309 0.0
C162 C 0.9443 0.78239 0.67011 0.0
C163 C 0.93899 0.72614 0.69313 0.0
C164 C 0.88044 0.69318 0.71766 0.0
C165 C 0.99205 0.80206 0.63827 0.0
C166 C 1.03537 0.87734 0.62687 0.0
C167 C 1.057 0.89424 0.59119 0.0
C168 C 1.03955 0.8337 0.568 0.0
C169 C 0.99871 0.75846 0.57966 0.0
C170 C 0.97757 0.7434 0.6151 0.0
C171 C 0.95896 0.69564 0.55435 0.0
C172 C 0.9115 0.70013 0.52867 0.0
C173 C 0.95302 0.62544 0.56132 0.0
C174 C 0.89494 0.55977 0.54604 0.0
C175 C 0.84205 0.5634 0.52357 0.0
C176 C 1.07643 0.96942 0.57596 0.0
C177 C 1.1115 0.99194 0.54267 0.0
C178 C 1.04145 1.00807 0.58966 0.0
C179 C 1.02774 1.0549 0.568 0.0
C180 C 1.04731 1.0626 0.53219 0.0
C181 C 1.09566 1.03712 0.52057 0.0
C182 C 0.85339 0.63432 0.51333 0.0
H183 H 0.79186 0.79273 0.69894 0.0
H184 H 0.89376 0.84956 0.65503 0.0
H185 H 0.97802 0.70518 0.69095 0.0
H186 H 0.87654 0.64837 0.73446 0.0
H187 H 1.0456 0.92192 0.6452 0.0
H188 H 0.9402 0.68531 0.62347 0.0
H189 H 1.04984 0.84371 0.53998 0.0
H190 H 0.9143 0.75345 0.52305 0.0
H191 H 0.98918 0.62066 0.58086 0.0
H192 H 0.88838 0.50563 0.55358 0.0
H193 H 1.1429 0.96703 0.53195 0.0
H194 H 1.01473 0.99469 0.61528 0.0
H195 H 0.81361 0.63852 0.49587 0.0
H196 H 1.11351 1.04436 0.49327 0.0
H197 H 0.99141 1.07488 0.57803 0.0
C198 C 0.22248 0.54124 0.03296 0.0
C199 C 1.16641 0.54847 0.05062 0.0
C200 C 0.20178 0.4837 0.00809 0.0
C201 C 1.12484 0.43311 0.00056 0.0
C202 C 1.06913 0.43945 0.01911 0.0
C203 C 1.08978 0.49681 0.04373 0.0
C204 C 1.10347 0.38523 0.96873 0.0
C205 C 1.13702 0.3419 0.96083 0.0
C206 C 1.13342 0.31483 0.92634 0.0
C207 C 1.09306 0.32975 0.9003 0.0
C208 C 1.0581 0.37152 0.90834 0.0
C209 C 1.06137 0.3966 0.94285 0.0
C210 C 1.03666 0.40773 0.8804 0.0
C211 C 1.09247 0.45703 0.85645 0.0
C212 C 0.9703 0.41125 0.88428 0.0
C213 C 0.96462 0.4697 0.86837 0.0
C214 C 1.02479 0.52462 0.84811 0.0
C215 C 0.18674 0.28968 0.9149 0.0
C216 C 0.26181 0.32856 0.92737 0.0
C217 C 1.1697 0.2422 0.88542 0.0
C218 C 0.22818 0.24651 0.86473 0.0
C219 C 0.304 0.29756 0.87369 0.0
C220 C 0.31992 0.33191 0.90704 0.0
C221 C 1.08654 0.51545 0.84036 0.0
H222 H 0.28194 0.57997 0.03828 0.0
H223 H 0.24586 0.48107 -0.00647 0.0
H224 H 1.00957 0.40186 0.01347 0.0
H225 H 1.04563 0.50168 0.057 0.0
H226 H 1.17049 0.33432 0.9809 0.0
H227 H 1.03946 0.43395 0.94842 0.0
H228 H 1.09495 0.31576 0.87295 0.0
H229 H 1.14452 0.45591 0.85328 0.0
H230 H 0.92664 0.37385 0.90259 0.0
H231 H 0.91602 0.47562 0.8742 0.0
H232 H 0.27778 0.36513 0.95015 0.0
H233 H 1.11198 0.20894 0.87595 0.0
H234 H 1.13325 0.5573 0.82464 0.0
H235 H 0.37765 0.37098 0.91513 0.0
H236 H 0.21424 0.21748 0.83963 0.0
C237 C 1.10018 0.59748 0.26777 0.0
C238 C 1.1648 0.6205 0.24649 0.0
C239 C 1.10495 0.60502 0.30482 0.0
C240 C 0.17474 0.63555 0.32294 0.0
C241 C 0.24024 0.66099 0.30156 0.0
C242 C 0.23538 0.65362 0.26407 0.0
C243 C 0.17752 0.63907 0.36357 0.0
C244 C 1.1167 0.58175 0.38382 0.0
C245 C 1.11368 0.5818 0.42119 0.0
C246 C 0.1781 0.64617 0.43874 0.0
C247 C 0.24284 0.70654 0.41934 0.0
C248 C 0.23951 0.69936 0.3819 0.0
C249 C 0.31592 0.77781 0.4356 0.0
C250 C 0.31508 0.83899 0.45307 0.0
C251 C 0.39064 0.79207 0.42873 0.0
C252 C 0.45871 0.86086 0.43881 0.0
C253 C 0.45818 0.92269 0.45567 0.0
C254 C 1.04193 0.51209 0.43917 0.0
C255 C 0.96865 0.50489 0.43955 0.0
C256 C 1.04061 0.44418 0.44911 0.0
C257 C 0.97206 0.37508 0.45872 0.0
C258 C 0.89875 0.36773 0.4591 0.0
C259 C 0.90004 0.43588 0.44949 0.0
C260 C 0.38345 0.90884 0.46247 0.0
H261 H 1.04462 0.57219 0.25568 0.0
H262 H 1.05293 0.58654 0.31927 0.0
H263 H 0.29545 0.68471 0.3138 0.0
H264 H 0.28666 0.67174 0.24904 0.0
H265 H 1.07052 0.53454 0.37018 0.0
H266 H 0.28555 0.7432 0.36662 0.0
H267 H 0.1783 0.64881 0.46722 0.0
H268 H 0.2609 0.83421 0.4585 0.0
H269 H 0.39686 0.74951 0.41478 0.0
H270 H 0.51272 0.86625 0.43231 0.0
H271 H 0.96368 0.5528 0.43108 0.0
H272 H 1.0931 0.44336 0.44829 0.0
H273 H 0.37735 0.95282 0.47504 0.0
H274 H 0.84699 0.43549 0.44843 0.0
H275 H 0.97675 0.32606 0.4653 0.0
C276 C 0.6568 1.0749 0.60334 0.0
C277 C 0.70072 0.13662 0.58061 0.0
C278 C 0.669 1.07967 0.64027 0.0
C279 C 0.72417 0.14736 0.65651 0.0
C280 C 0.76846 0.20941 0.63374 0.0
C281 C 0.7575 0.20393 0.5965 0.0
C282 C 0.73415 0.15259 0.69676 0.0
C283 C 0.7363 1.09371 0.71593 0.0
C284 C 0.74504 1.09405 0.75317 0.0
C285 C 0.75037 0.16008 0.77155 0.0
C286 C 0.74588 0.22154 0.75311 0.0
C287 C 0.73874 0.21468 0.71573 0.0
C288 C 0.74486 0.29252 0.77013 0.0
C289 C 0.68098 0.30271 0.76641 0.0
C290 C 0.80979 0.35768 0.78437 0.0
C291 C 0.81046 0.42688 0.79382 0.0
C292 C 0.74611 0.4366 0.79013 0.0
C293 C 0.74422 1.02157 0.7699 0.0
C294 C 0.68226 0.94689 0.76393 0.0
C295 C 0.80785 1.02186 0.78596 0.0
C296 C 0.80897 0.95307 0.79505 0.0
C297 C 0.74635 0.87835 0.78901 0.0
C298 C 0.6829 0.87875 0.77342 0.0
C299 C 0.68119 0.371 0.77643 0.0
H300 H 0.61143 1.02261 0.59252 0.0
H301 H 0.63302 1.03058 0.65634 0.0
H302 H 0.81172 0.26264 0.64476 0.0
H303 H 0.79135 0.25353 0.58033 0.0
H304 H 0.73218 1.04647 0.70125 0.0
H305 H 0.73522 0.25831 0.70099 0.0
H306 H 0.75557 0.16243 0.79997 0.0
H307 H 0.62967 0.25725 0.75489 0.0
H308 H 0.86187 0.3565 0.78719 0.0
H309 H 0.86273 0.47373 0.8038 0.0
H310 H 0.63214 0.94065 0.75099 0.0
H311 H 0.85867 1.07585 0.79052 0.0
H312 H 0.62972 0.37284 0.77235 0.0
H313 H 0.63271 0.82508 0.76753 0.0
H314 H 0.86009 0.95888 0.80661 0.0
C315 C 0.724 0.57324 0.93482 0.0
C316 C 0.70699 0.61844 0.91269 0.0
C317 C 0.71391 0.57027 0.97171 0.0
C318 C 0.68647 0.61273 0.98889 0.0
C319 C 0.66625 0.65592 0.96668 0.0
C320 C 0.6765 0.6589 0.9293 0.0
C321 C 0.68227 0.61281 0.02949 0.0
C322 C 0.73958 0.61014 0.04989 0.0
C323 C 0.7399 0.60762 0.08724 0.0
C324 C 0.6751 0.60686 0.10466 0.0
C325 C 0.61415 0.61007 0.0851 0.0
C326 C 0.62176 0.61404 0.04759 0.0
C327 C 0.54218 0.6109 0.10125 0.0
C328 C 0.47852 0.54705 0.11725 0.0
C329 C 0.52986 0.67294 0.09563 0.0
C330 C 0.46125 0.67221 0.10565 0.0
C331 C 0.39714 0.60842 0.12124 0.0
C332 C 0.80955 0.60484 0.10494 0.0
C333 C 0.81771 0.53964 0.10257 0.0
C334 C 0.87697 0.67045 0.117 0.0
C335 C 0.94612 0.67051 0.12613 0.0
C336 C 0.95396 0.60504 0.12378 0.0
C337 C 0.88641 0.53955 0.11191 0.0
C338 C 0.40878 0.54569 0.12663 0.0
H339 H 0.74711 0.54065 0.92355 0.0
H340 H 0.72845 0.53445 0.98689 0.0
H341 H 0.64494 0.68975 0.97826 0.0
H342 H 0.66305 0.69497 0.91364 0.0
H343 H 0.78656 0.61121 0.03626 0.0
H344 H 0.5782 0.61594 0.03205 0.0
H345 H 0.67237 0.60431 0.13314 0.0
H346 H 0.48138 0.49624 0.12163 0.0
H347 H 0.57399 0.72325 0.08276 0.0
H348 H 0.45798 0.72244 0.10014 0.0
H349 H 0.77063 0.48779 0.09236 0.0
H350 H 0.87745 0.72352 0.11829 0.0
H351 H 0.36327 0.49431 0.13812 0.0
H352 H 0.88701 0.48739 0.10873 0.0
H353 H 0.99458 0.72334 0.13455 0.0
loop_
_geom_bond_atom_site_label_1
_geom_bond_atom_site_label_2
_geom_bond_distance
_geom_bond_site_symmetry_2
_ccdc_geom_bond_type
Tb0 C2 2.809 . S
Tb0 O20 2.484 . S
Tb0 O21 2.440 . S
Tb0 O22 2.658 . S
Tb0 O23 2.409 . S
Tb0 O24 2.378 . S
Tb0 O28 2.325 . S
Tb0 O31 2.341 1_455 S
Tb1 C11 2.809 . S
Tb1 O22 2.325 1_655 S
Tb1 O25 2.341 1_655 S
Tb1 O26 2.484 . S
Tb1 O27 2.440 . S
Tb1 O28 2.658 1_655 S
Tb1 O29 2.409 . S
Tb1 O30 2.378 . S
C2 Tb0 2.809 . S
C2 C3 1.514 . S
C2 O20 1.248 . S
C2 O21 1.266 . S
C3 C2 1.514 . S
C3 C4 1.359 . S
C3 C8 1.348 . S
C4 C3 1.359 . S
C4 C5 1.380 . S
C4 H32 0.929 . S
C5 C4 1.380 . S
C5 C6 1.347 . S
C5 H33 0.931 . S
C6 C5 1.347 . S
C6 C7 1.369 . S
C7 C6 1.369 . S
C7 C8 1.408 . S
C7 H34 0.930 . S
C8 C3 1.348 . S
C8 C7 1.408 . S
C8 H35 0.930 . S
C9 O22 1.281 . S
C9 O23 1.254 . S
C10 O24 1.236 . S
C10 O25 1.266 . S
C11 Tb1 2.809 . S
C11 C12 1.514 . S
C11 O26 1.248 . S
C11 O27 1.266 . S
C12 C11 1.514 . S
C12 C13 1.359 . S
C12 C17 1.348 . S
C13 C12 1.359 . S
C13 C14 1.380 . S
C13 H36 0.929 . S
C14 C13 1.380 . S
C14 C15 1.347 . S
C14 H37 0.931 . S
C15 C14 1.347 . S
C15 C16 1.369 . S
C16 C15 1.369 . S
C16 C17 1.408 . S
C16 H38 0.930 . S
C17 C12 1.348 . S
C17 C16 1.408 . S
C17 H39 0.930 . S
C18 O28 1.281 . S
C18 O29 1.254 1_455 S
C19 O30 1.236 . S
C19 O31 1.266 . S
O20 Tb0 2.484 . S
O20 C2 1.248 . S
O21 Tb0 2.440 . S
O21 C2 1.266 . S
O22 Tb0 2.658 . S
O22 Tb1 2.325 1_455 S
O22 C9 1.281 . S
O23 Tb0 2.409 . S
O23 C9 1.254 . S
O24 Tb0 2.378 . S
O24 C10 1.236 . S
O25 Tb1 2.341 1_455 S
O25 C10 1.266 . S
O26 Tb1 2.484 . S
O26 C11 1.248 . S
O27 Tb1 2.440 . S
O27 C11 1.266 . S
O28 Tb0 2.325 . S
O28 Tb1 2.658 1_455 S
O28 C18 1.281 . S
O29 Tb1 2.409 . S
O29 C18 1.254 1_655 S
O30 Tb1 2.378 . S
O30 C19 1.236 . S
O31 Tb0 2.341 1_655 S
O31 C19 1.266 . S
H32 C4 0.929 . S
H33 C5 0.931 . S
H34 C7 0.930 . S
H35 C8 0.930 . S
H36 C13 0.929 . S
H37 C14 0.931 . S
H38 C16 0.930 . S
H39 C17 0.930 . S
Tb40 C42 2.809 . S
Tb40 O60 2.484 . S
Tb40 O61 2.440 . S
Tb40 O62 2.658 1_565 S
Tb40 O63 2.409 . S
Tb40 O64 2.378 . S
Tb40 O68 2.325 1_565 S
Tb40 O71 2.341 1_565 S
Tb41 C51 2.809 . S
Tb41 O62 2.325 . S
Tb41 O65 2.341 1_545 S
Tb41 O66 2.484 . S
Tb41 O67 2.440 . S
Tb41 O68 2.658 . S
Tb41 O69 2.409 . S
Tb41 O70 2.378 . S
C42 Tb40 2.809 . S
C42 C43 1.514 . S
C42 O60 1.248 . S
C42 O61 1.266 . S
C43 C42 1.514 . S
C43 C44 1.359 . S
C43 C48 1.348 . S
C44 C43 1.359 . S
C44 C45 1.380 . S
C44 H72 0.929 . S
C45 C44 1.380 . S
C45 C46 1.347 . S
C45 H73 0.931 . S
C46 C45 1.347 . S
C46 C47 1.369 . S
C47 C46 1.369 . S
C47 C48 1.408 . S
C47 H74 0.930 . S
C48 C43 1.348 . S
C48 C47 1.408 . S
C48 H75 0.930 . S
C49 O62 1.281 . S
C49 O63 1.254 1_545 S
C50 O64 1.236 . S
C50 O65 1.266 . S
C51 Tb41 2.809 . S
C51 C52 1.514 . S
C51 O66 1.248 . S
C51 O67 1.266 . S
C52 C51 1.514 . S
C52 C53 1.359 . S
C52 C57 1.348 . S
C53 C52 1.359 . S
C53 C54 1.380 . S
C53 H76 0.929 . S
C54 C53 1.380 . S
C54 C55 1.347 . S
C54 H77 0.931 . S
C55 C54 1.347 . S
C55 C56 1.369 . S
C56 C55 1.369 . S
C56 C57 1.408 . S
C56 H78 0.930 . S
C57 C52 1.348 . S
C57 C56 1.408 . S
C57 H79 0.930 . S
C58 O68 1.281 . S
C58 O69 1.254 . S
C59 O70 1.236 . S
C59 O71 1.266 . S
O60 Tb40 2.484 . S
O60 C42 1.248 . S
O61 Tb40 2.440 . S
O61 C42 1.266 . S
O62 Tb40 2.658 1_545 S
O62 Tb41 2.325 . S
O62 C49 1.281 . S
O63 Tb40 2.409 . S
O63 C49 1.254 1_565 S
O64 Tb40 2.378 . S
O64 C50 1.236 . S
O65 Tb41 2.341 1_565 S
O65 C50 1.266 . S
O66 Tb41 2.484 . S
O66 C51 1.248 . S
O67 Tb41 2.440 . S
O67 C51 1.266 . S
O68 Tb40 2.325 1_545 S
O68 Tb41 2.658 . S
O68 C58 1.281 . S
O69 Tb41 2.409 . S
O69 C58 1.254 . S
O70 Tb41 2.378 . S
O70 C59 1.236 . S
O71 Tb40 2.341 1_545 S
O71 C59 1.266 . S
H72 C44 0.929 . S
H73 C45 0.931 . S
H74 C47 0.930 . S
H75 C48 0.930 . S
H76 C53 0.929 . S
H77 C54 0.931 . S
H78 C56 0.930 . S
H79 C57 0.930 . S
Tb80 C82 2.809 . S
Tb80 O100 2.484 . S
Tb80 O101 2.440 . S
Tb80 O102 2.658 . S
Tb80 O103 2.409 . S
Tb80 O104 2.378 . S
Tb80 O108 2.325 . S
Tb80 O111 2.341 . S
Tb81 C91 2.809 . S
Tb81 O102 2.325 . S
Tb81 O105 2.341 . S
Tb81 O106 2.484 . S
Tb81 O107 2.440 . S
Tb81 O108 2.658 . S
Tb81 O109 2.409 . S
Tb81 O110 2.378 . S
C82 Tb80 2.809 . S
C82 C83 1.514 . S
C82 O100 1.248 . S
C82 O101 1.266 . S
C83 C82 1.514 . S
C83 C84 1.359 . S
C83 C88 1.348 . S
C84 C83 1.359 . S
C84 C85 1.380 . S
C84 H112 0.929 . S
C85 C84 1.380 . S
C85 C86 1.347 . S
C85 H113 0.931 . S
C86 C85 1.347 . S
C86 C87 1.369 . S
C87 C86 1.369 . S
C87 C88 1.408 . S
C87 H114 0.930 . S
C88 C83 1.348 . S
C88 C87 1.408 . S
C88 H115 0.930 . S
C89 O102 1.281 . S
C89 O103 1.254 . S
C90 O104 1.236 . S
C90 O105 1.266 . S
C91 Tb81 2.809 . S
C91 C92 1.514 . S
C91 O106 1.248 . S
C91 O107 1.266 . S
C92 C91 1.514 . S
C92 C93 1.359 . S
C92 C97 1.348 . S
C93 C92 1.359 . S
C93 C94 1.380 . S
C93 H116 0.929 . S
C94 C93 1.380 . S
C94 C95 1.347 . S
C94 H117 0.931 . S
C95 C94 1.347 . S
C95 C96 1.369 . S
C96 C95 1.369 . S
C96 C97 1.408 . S
C96 H118 0.930 . S
C97 C92 1.348 . S
C97 C96 1.408 . S
C97 H119 0.930 . S
C98 O108 1.281 . S
C98 O109 1.254 . S
C99 O110 1.236 . S
C99 O111 1.266 . S
O100 Tb80 2.484 . S
O100 C82 1.248 . S
O101 Tb80 2.440 . S
O101 C82 1.266 . S
O102 Tb80 2.658 . S
O102 Tb81 2.325 . S
O102 C89 1.281 . S
O103 Tb80 2.409 . S
O103 C89 1.254 . S
O104 Tb80 2.378 . S
O104 C90 1.236 . S
O105 Tb81 2.341 . S
O105 C90 1.266 . S
O106 Tb81 2.484 . S
O106 C91 1.248 . S
O107 Tb81 2.440 . S
O107 C91 1.266 . S
O108 Tb80 2.325 . S
O108 Tb81 2.658 . S
O108 C98 1.281 . S
O109 Tb81 2.409 . S
O109 C98 1.254 . S
O110 Tb81 2.378 . S
O110 C99 1.236 . S
O111 Tb80 2.341 . S
O111 C99 1.266 . S
H112 C84 0.929 . S
H113 C85 0.931 . S
H114 C87 0.930 . S
H115 C88 0.930 . S
H116 C93 0.929 . S
H117 C94 0.931 . S
H118 C96 0.930 . S
H119 C97 0.930 . S
C120 C121 1.386 . S
C120 C122 1.397 . S
C120 H144 0.931 . S
C121 C120 1.386 . S
C121 C125 1.397 1_545 S
C122 C120 1.397 . S
C122 C123 1.384 . S
C122 H145 0.930 . S
C123 C122 1.384 . S
C123 C124 1.377 1_545 S
C123 C126 1.481 . S
C124 C123 1.377 1_565 S
C124 C125 1.389 . S
C124 H146 0.929 . S
C125 C121 1.397 1_565 S
C125 C124 1.389 . S
C125 H147 0.931 . S
C126 C123 1.481 . S
C126 C127 1.387 . S
C126 C131 1.390 . S
C127 C126 1.387 . S
C127 C128 1.401 . S
C127 H148 0.930 . S
C128 C127 1.401 . S
C128 C129 1.376 . S
C128 C137 1.511 . S
C129 C128 1.376 . S
C129 C130 1.392 . S
C129 H150 0.931 . S
C130 C129 1.392 . S
C130 C131 1.361 . S
C130 C132 1.500 1_545 S
C131 C126 1.390 . S
C131 C130 1.361 . S
C131 H149 0.931 1_545 S
C132 C130 1.500 1_565 S
C132 C133 1.371 . S
C132 C134 1.365 . S
C133 C132 1.371 . S
C133 C143 1.386 . S
C133 H151 0.931 . S
C134 C132 1.365 . S
C134 C135 1.409 . S
C134 H152 0.929 . S
C135 C134 1.409 . S
C135 C136 1.380 . S
C135 H153 0.930 . S
C136 C135 1.380 . S
C136 C143 1.357 . S
C137 C128 1.511 . S
C137 C138 1.341 . S
C137 C139 1.371 . S
C138 C137 1.341 . S
C138 C142 1.394 . S
C138 H154 0.930 . S
C139 C137 1.371 . S
C139 C140 1.392 . S
C139 H155 0.931 . S
C140 C139 1.392 . S
C140 C141 1.331 . S
C140 H158 0.932 . S
C141 C140 1.331 . S
C141 C142 1.336 . S
C142 C138 1.394 . S
C142 C141 1.336 . S
C142 H157 0.929 . S
C143 C133 1.386 . S
C143 C136 1.357 . S
C143 H156 0.928 . S
H144 C120 0.931 . S
H145 C122 0.930 . S
H146 C124 0.929 . S
H147 C125 0.931 . S
H148 C127 0.930 . S
H149 C131 0.931 1_565 S
H150 C129 0.931 . S
H151 C133 0.931 . S
H152 C134 0.929 . S
H153 C135 0.930 . S
H154 C138 0.930 . S
H155 C139 0.931 . S
H156 C143 0.928 . S
H157 C142 0.929 . S
H158 C140 0.932 . S
C159 C160 1.386 . S
C159 C161 1.397 . S
C159 H183 0.931 . S
C160 C159 1.386 . S
C160 C164 1.397 . S
C161 C159 1.397 . S
C161 C162 1.384 . S
C161 H184 0.930 . S
C162 C161 1.384 . S
C162 C163 1.377 . S
C162 C165 1.481 . S
C163 C162 1.377 . S
C163 C164 1.389 . S
C163 H185 0.929 . S
C164 C160 1.397 . S
C164 C163 1.389 . S
C164 H186 0.931 . S
C165 C162 1.481 . S
C165 C166 1.387 . S
C165 C170 1.390 . S
C166 C165 1.387 . S
C166 C167 1.401 . S
C166 H187 0.930 . S
C167 C166 1.401 . S
C167 C168 1.376 . S
C167 C176 1.511 . S
C168 C167 1.376 . S
C168 C169 1.392 . S
C168 H189 0.931 . S
C169 C168 1.392 . S
C169 C170 1.361 . S
C169 C171 1.500 . S
C170 C165 1.390 . S
C170 C169 1.361 . S
C170 H188 0.931 . S
C171 C169 1.500 . S
C171 C172 1.371 . S
C171 C173 1.365 . S
C172 C171 1.371 . S
C172 C182 1.386 . S
C172 H190 0.931 . S
C173 C171 1.365 . S
C173 C174 1.409 . S
C173 H191 0.929 . S
C174 C173 1.409 . S
C174 C175 1.380 . S
C174 H192 0.930 . S
C175 C174 1.380 . S
C175 C182 1.357 . S
C176 C167 1.511 . S
C176 C177 1.341 . S
C176 C178 1.371 . S
C177 C176 1.341 . S
C177 C181 1.394 . S
C177 H193 0.930 . S
C178 C176 1.371 . S
C178 C179 1.392 . S
C178 H194 0.931 . S
C179 C178 1.392 . S
C179 C180 1.331 . S
C179 H197 0.932 . S
C180 C179 1.331 . S
C180 C181 1.336 . S
C181 C177 1.394 . S
C181 C180 1.336 . S
C181 H196 0.929 . S
C182 C172 1.386 . S
C182 C175 1.357 . S
C182 H195 0.928 . S
H183 C159 0.931 . S
H184 C161 0.930 . S
H185 C163 0.929 . S
H186 C164 0.931 . S
H187 C166 0.930 . S
H188 C170 0.931 . S
H189 C168 0.931 . S
H190 C172 0.931 . S
H191 C173 0.929 . S
H192 C174 0.930 . S
H193 C177 0.930 . S
H194 C178 0.931 . S
H195 C182 0.928 . S
H196 C181 0.929 . S
H197 C179 0.932 . S
C198 C199 1.386 . S
C198 C200 1.397 . S
C198 H222 0.931 . S
C199 C198 1.386 . S
C199 C203 1.397 1_455 S
C200 C198 1.397 . S
C200 C201 1.384 . S
C200 H223 0.930 . S
C201 C200 1.384 . S
C201 C202 1.377 1_455 S
C201 C204 1.481 1_554 S
C202 C201 1.377 1_655 S
C202 C203 1.389 . S
C202 H224 0.929 . S
C203 C199 1.397 1_655 S
C203 C202 1.389 . S
C203 H225 0.931 . S
C204 C201 1.481 1_556 S
C204 C205 1.387 . S
C204 C209 1.390 1_455 S
C205 C204 1.387 . S
C205 C206 1.401 . S
C205 H226 0.930 . S
C206 C205 1.401 . S
C206 C207 1.376 . S
C206 C215 1.511 . S
C207 C206 1.376 . S
C207 C208 1.392 1_455 S
C207 H228 0.931 . S
C208 C207 1.392 1_655 S
C208 C209 1.361 . S
C208 C210 1.500 . S
C209 C204 1.390 1_655 S
C209 C208 1.361 . S
C209 H227 0.931 . S
C210 C208 1.500 . S
C210 C211 1.371 . S
C210 C212 1.365 . S
C211 C210 1.371 . S
C211 C221 1.386 . S
C211 H229 0.931 . S
C212 C210 1.365 . S
C212 C213 1.409 . S
C212 H230 0.929 . S
C213 C212 1.409 . S
C213 C214 1.380 . S
C213 H231 0.930 . S
C214 C213 1.380 . S
C214 C221 1.357 . S
C215 C206 1.511 . S
C215 C216 1.341 . S
C215 C217 1.371 . S
C216 C215 1.341 . S
C216 C220 1.394 . S
C216 H232 0.930 . S
C217 C215 1.371 . S
C217 C218 1.392 . S
C217 H233 0.931 . S
C218 C217 1.392 . S
C218 C219 1.331 . S
C218 H236 0.932 . S
C219 C218 1.331 . S
C219 C220 1.336 . S
C220 C216 1.394 . S
C220 C219 1.336 . S
C220 H235 0.929 . S
C221 C211 1.386 . S
C221 C214 1.357 . S
C221 H234 0.928 . S
H222 C198 0.931 . S
H223 C200 0.930 . S
H224 C202 0.929 . S
H225 C203 0.931 . S
H226 C205 0.930 . S
H227 C209 0.931 . S
H228 C207 0.931 . S
H229 C211 0.931 . S
H230 C212 0.929 . S
H231 C213 0.930 . S
H232 C216 0.930 . S
H233 C217 0.931 . S
H234 C221 0.928 . S
H235 C220 0.929 . S
H236 C218 0.932 . S
C237 C238 1.386 1_655 S
C237 C239 1.397 . S
C237 H261 0.931 . S
C238 C237 1.386 1_455 S
C238 C242 1.397 . S
C239 C237 1.397 . S
C239 C240 1.384 1_655 S
C239 H262 0.930 . S
C240 C239 1.384 1_455 S
C240 C241 1.377 . S
C240 C243 1.481 . S
C241 C240 1.377 . S
C241 C242 1.389 . S
C241 H263 0.929 . S
C242 C238 1.397 . S
C242 C241 1.389 . S
C242 H264 0.931 . S
C243 C240 1.481 . S
C243 C244 1.387 1_455 S
C243 C248 1.390 . S
C244 C243 1.387 1_655 S
C244 C245 1.401 . S
C244 H265 0.930 . S
C245 C244 1.401 . S
C245 C246 1.376 1_655 S
C245 C254 1.511 . S
C246 C245 1.376 1_455 S
C246 C247 1.392 . S
C246 H267 0.931 . S
C247 C246 1.392 . S
C247 C248 1.361 . S
C247 C249 1.500 . S
C248 C243 1.390 . S
C248 C247 1.361 . S
C248 H266 0.931 . S
C249 C247 1.500 . S
C249 C250 1.371 . S
C249 C251 1.365 . S
C250 C249 1.371 . S
C250 C260 1.386 . S
C250 H268 0.931 . S
C251 C249 1.365 . S
C251 C252 1.409 . S
C251 H269 0.929 . S
C252 C251 1.409 . S
C252 C253 1.380 . S
C252 H270 0.930 . S
C253 C252 1.380 . S
C253 C260 1.357 . S
C254 C245 1.511 . S
C254 C255 1.341 . S
C254 C256 1.371 . S
C255 C254 1.341 . S
C255 C259 1.394 . S
C255 H271 0.930 . S
C256 C254 1.371 . S
C256 C257 1.392 . S
C256 H272 0.931 . S
C257 C256 1.392 . S
C257 C258 1.331 . S
C257 H275 0.932 . S
C258 C257 1.331 . S
C258 C259 1.336 . S
C259 C255 1.394 . S
C259 C258 1.336 . S
C259 H274 0.929 . S
C260 C250 1.386 . S
C260 C253 1.357 . S
C260 H273 0.928 . S
H261 C237 0.931 . S
H262 C239 0.930 . S
H263 C241 0.929 . S
H264 C242 0.931 . S
H265 C244 0.930 . S
H266 C248 0.931 . S
H267 C246 0.931 . S
H268 C250 0.931 . S
H269 C251 0.929 . S
H270 C252 0.930 . S
H271 C255 0.930 . S
H272 C256 0.931 . S
H273 C260 0.928 . S
H274 C259 0.929 . S
H275 C257 0.932 . S
C276 C277 1.386 1_565 S
C276 C278 1.397 . S
C276 H300 0.931 . S
C277 C276 1.386 1_545 S
C277 C281 1.397 . S
C278 C276 1.397 . S
C278 C279 1.384 1_565 S
C278 H301 0.930 . S
C279 C278 1.384 1_545 S
C279 C280 1.377 . S
C279 C282 1.481 . S
C280 C279 1.377 . S
C280 C281 1.389 . S
C280 H302 0.929 . S
C281 C277 1.397 . S
C281 C280 1.389 . S
C281 H303 0.931 . S
C282 C279 1.481 . S
C282 C283 1.387 1_545 S
C282 C287 1.390 . S
C283 C282 1.387 1_565 S
C283 C284 1.401 . S
C283 H304 0.930 . S
C284 C283 1.401 . S
C284 C285 1.369 1_565 S
C284 C293 1.511 . S
C285 C284 1.369 1_545 S
C285 C286 1.400 . S
C285 H306 0.931 1_545 S
C286 C285 1.400 . S
C286 C287 1.361 . S
C286 C288 1.500 . S
C287 C282 1.390 . S
C287 C286 1.361 . S
C287 H305 0.931 . S
C288 C286 1.500 . S
C288 C289 1.371 . S
C288 C290 1.365 . S
C289 C288 1.371 . S
C289 C299 1.386 . S
C289 H307 0.931 . S
C290 C288 1.365 . S
C290 C291 1.409 . S
C290 H308 0.929 . S
C291 C290 1.409 . S
C291 C292 1.380 . S
C291 H309 0.930 . S
C292 C291 1.380 . S
C292 C299 1.357 . S
C293 C284 1.511 . S
C293 C294 1.341 . S
C293 C295 1.371 . S
C294 C293 1.341 . S
C294 C298 1.394 . S
C294 H310 0.930 . S
C295 C293 1.371 . S
C295 C296 1.392 . S
C295 H311 0.931 . S
C296 C295 1.392 . S
C296 C297 1.331 . S
C296 H314 0.932 . S
C297 C296 1.331 . S
C297 C298 1.336 . S
C298 C294 1.394 . S
C298 C297 1.336 . S
C298 H313 0.929 . S
C299 C289 1.386 . S
C299 C292 1.357 . S
C299 H312 0.928 . S
H300 C276 0.931 . S
H301 C278 0.930 . S
H302 C280 0.929 . S
H303 C281 0.931 . S
H304 C283 0.930 . S
H305 C287 0.931 . S
H306 C285 0.931 1_565 S
H307 C289 0.931 . S
H308 C290 0.929 . S
H309 C291 0.930 . S
H310 C294 0.930 . S
H311 C295 0.931 . S
H312 C299 0.928 . S
H313 C298 0.929 . S
H314 C296 0.932 . S
C315 C316 1.386 . S
C315 C317 1.397 . S
C315 H339 0.931 . S
C316 C315 1.386 . S
C316 C320 1.397 . S
C317 C315 1.397 . S
C317 C318 1.384 1_556 S
C317 H340 0.930 1_556 S
C318 C317 1.384 1_554 S
C318 C319 1.377 1_554 S
C318 C321 1.481 . S
C319 C318 1.377 1_556 S
C319 C320 1.389 . S
C319 H341 0.929 1_556 S
C320 C316 1.397 . S
C320 C319 1.389 . S
C320 H342 0.931 . S
C321 C318 1.481 . S
C321 C322 1.387 . S
C321 C326 1.390 . S
C322 C321 1.387 . S
C322 C323 1.401 . S
C322 H343 0.930 . S
C323 C322 1.401 . S
C323 C324 1.376 . S
C323 C332 1.511 . S
C324 C323 1.376 . S
C324 C325 1.392 . S
C324 H345 0.931 . S
C325 C324 1.392 . S
C325 C326 1.361 . S
C325 C327 1.500 . S
C326 C321 1.390 . S
C326 C325 1.361 . S
C326 H344 0.931 . S
C327 C325 1.500 . S
C327 C328 1.371 . S
C327 C329 1.365 . S
C328 C327 1.371 . S
C328 C338 1.386 . S
C328 H346 0.931 . S
C329 C327 1.365 . S
C329 C330 1.409 . S
C329 H347 0.929 . S
C330 C329 1.409 . S
C330 C331 1.380 . S
C330 H348 0.930 . S
C331 C330 1.380 . S
C331 C338 1.357 . S
C332 C323 1.511 . S
C332 C333 1.341 . S
C332 C334 1.371 . S
C333 C332 1.341 . S
C333 C337 1.394 . S
C333 H349 0.930 . S
C334 C332 1.371 . S
C334 C335 1.392 . S
C334 H350 0.931 . S
C335 C334 1.392 . S
C335 C336 1.331 . S
C335 H353 0.932 . S
C336 C335 1.331 . S
C336 C337 1.336 . S
C337 C333 1.394 . S
C337 C336 1.336 . S
C337 H352 0.929 . S
C338 C328 1.386 . S
C338 C331 1.357 . S
C338 H351 0.928 . S
H339 C315 0.931 . S
H340 C317 0.930 1_554 S
H341 C319 0.929 1_554 S
H342 C320 0.931 . S
H343 C322 0.930 . S
H344 C326 0.931 . S
H345 C324 0.931 . S
H346 C328 0.931 . S
H347 C329 0.929 . S
H348 C330 0.930 . S
H349 C333 0.930 . S
H350 C334 0.931 . S
H351 C338 0.928 . S
H352 C337 0.929 . S
H353 C335 0.932 . S
C10 C331 4.939 . S
C59 C258 5.001 . S
C90 C297 4.948 . S
C19 C336 4.986 . S
C253 C50 4.924 . S
C292 C99 4.980 . S
C46 C180 1.852 . S
C95 C214 1.881 . S
C6 C136 1.851 . S
C175 C55 1.880 . S
C219 C86 1.804 . S
C15 C141 1.823 . S
C199 C9 1.031 . S
C49 C121 1.033 . S
C89 C160 1.073 . S
C277 C58 2.058 . S
C316 C98 2.067 . S
C18 C238 2.059 . S
