# Generated by pormake.
# Topology pts, (4,4)-cn, num edge types: 1
# Building blocks:
#     Node 0, Type 0, BuildingBlock: KUFVIS_clean_linker_0, # of connection points: 4
#     Node 1, Type 0, BuildingBlock: KUFVIS_clean_linker_0, # of connection points: 4
#     Node 2, Type 1, BuildingBlock: QUQFOY_clean_sbu_1, # of connection points: 4
#     Node 3, Type 1, BuildingBlock: QUQFOY_clean_sbu_1, # of connection points: 4
#     Edge 4, Type (0, 1), BuildingBlock: ZUJKAS_clean_linker_0, # of connection points: 2
#     Edge 5, Type (0, 1), BuildingBlock: ZUJKAS_clean_linker_0, # of connection points: 2
#     Edge 6, Type (0, 1), BuildingBlock: ZUJKAS_clean_linker_0, # of connection points: 2
#     Edge 7, Type (0, 1), BuildingBlock: ZUJKAS_clean_linker_0, # of connection points: 2
#     Edge 8, Type (0, 1), BuildingBlock: ZUJKAS_clean_linker_0, # of connection points: 2
#     Edge 9, Type (0, 1), BuildingBlock: ZUJKAS_clean_linker_0, # of connection points: 2
#     Edge 10, Type (0, 1), BuildingBlock: ZUJKAS_clean_linker_0, # of connection points: 2
#     Edge 11, Type (0, 1), BuildingBlock: ZUJKAS_clean_linker_0, # of connection points: 2
# Relax obj value: 0.104
# Max RMSD: 0.274
# Mean RMSD: 0.186
data_MOF--net-pts--node1-QUQFOY_clean_sbu_1--node2-KUFVIS_clean_linker_0--edge1-ZUJKAS_clean_linker_0
_symmetry_space_group_name_H-M    P1
_symmetry_Int_Tables_number       1
_symmetry_cell_setting            triclinic
loop_
_symmetry_equiv_pos_as_xyz
'x, y, z'
_cell_length_a     31.493046
_cell_length_b     34.309188
_cell_length_c     47.03815
_cell_angle_alpha  89.888564
_cell_angle_beta   90.035644
_cell_angle_gamma 89.835769
loop_
_atom_site_label
_atom_site_type_symbol
_atom_site_fract_x
_atom_site_fract_y
_atom_site_fract_z
_atom_type_partial_charge
H0 H 0.36294 0.03633 0.98928 0.0
H1 H 0.47742 1.00093 0.94828 0.0
H2 H 0.47889 0.03718 0.03659 0.0
H3 H 0.53653 1.00364 0.03944 0.0
H4 H 0.65603 1.00128 -0.00308 0.0
H5 H 0.54271 0.01827 0.9481 0.0
C6 C 0.39707 0.03216 -0.00981 0.0
C7 C 0.41857 0.03673 0.016 0.0
C8 C 0.41861 0.02029 0.96573 0.0
C9 C 0.46217 1.01202 0.96719 0.0
C10 C 0.48537 0.01839 -0.00746 0.0
C11 C 0.46273 0.0311 0.01684 0.0
C12 C 0.53275 1.01228 -0.00642 0.0
C13 C 0.55392 1.00605 0.01972 0.0
C14 C 0.59819 1.00227 0.02087 0.0
C15 C 0.62171 1.00309 -0.00431 0.0
C16 C 0.60178 1.00767 0.96924 0.0
C17 C 0.5575 1.0132 0.96846 0.0
H18 H 0.98413 0.65182 0.49058 0.0
H19 H 0.01874 0.54884 0.53609 0.0
H20 H 0.99398 0.54456 0.44526 0.0
H21 H 0.02933 0.49151 0.44548 0.0
H22 H 0.03876 0.38444 0.49132 0.0
H23 H 1.00428 0.48771 0.53627 0.0
C24 C 0.98947 0.62056 0.49069 0.0
C25 C 0.98895 0.6001 0.46507 0.0
C26 C 0.99916 0.6019 0.51629 0.0
C27 C 0.00927 0.562 0.51619 0.0
C28 C 1.00712 0.53982 0.49079 0.0
C29 C 0.99667 0.55977 0.46525 0.0
C30 C 0.01606 0.49648 0.49094 0.0
C31 C 0.02656 0.47641 0.46554 0.0
C32 C 0.03419 0.43608 0.4656 0.0
C33 C 0.03354 0.41572 0.49131 0.0
C34 C 0.02379 0.43449 0.51681 0.0
C35 C 0.0138 0.47443 0.51647 0.0
O36 O 0.95624 0.98462 0.22152 0.0
Cd37 Cd 0.01244 0.97402 0.2426 0.0
Cd38 Cd 0.00746 0.06121 0.24571 0.0
O39 O 0.94967 0.04833 0.22715 0.0
O40 O 0.01403 0.91596 0.24446 0.0
O41 O 0.01074 0.95304 0.28272 0.0
C42 C 0.01186 0.91858 0.27172 0.0
C43 C 0.00869 0.11651 0.27492 0.0
C44 C 0.93529 0.01601 0.21822 0.0
C45 C 0.08357 0.02167 0.21702 0.0
O46 O 0.06332 0.05245 0.22359 0.0
O47 O 0.06903 0.98822 0.22327 0.0
O48 O 1.00568 0.11923 0.24772 0.0
O49 O 0.01034 0.082 0.28589 0.0
O50 O 0.95561 0.05206 0.76547 0.0
Cd51 Cd 0.0108 0.06372 0.74383 0.0
Cd52 Cd 0.00717 0.97678 0.7378 0.0
O53 O 0.9491 0.98901 0.75654 0.0
O54 O 0.01141 0.12175 0.74169 0.0
O55 O 0.00895 0.0842 0.70363 0.0
C56 C 0.00976 0.11879 0.71443 0.0
C57 C 0.00824 0.92126 0.70878 0.0
C58 C 0.93488 0.02046 0.76719 0.0
C59 C 0.08318 0.0159 0.76727 0.0
O60 O 0.06365 0.98533 0.75952 0.0
O61 O 0.06763 0.04951 0.7626 0.0
O62 O 1.00606 0.91875 0.73602 0.0
O63 O 0.00927 0.95568 0.69766 0.0
H64 H 0.42634 1.00035 0.06742 0.0
H65 H 0.37571 1.00256 0.10693 0.0
H66 H 0.30341 0.09096 0.06303 0.0
H67 H 0.35407 0.0893 0.02359 0.0
H68 H 0.33644 0.0686 0.14227 0.0
H69 H 0.22709 0.9888 0.07 0.0
H70 H 0.28358 0.99151 0.06379 0.0
H71 H 0.25024 0.0327 0.05602 0.0
C72 C 0.40045 0.02118 0.0666 0.0
C73 C 0.39381 0.04429 0.04226 0.0
C74 C 0.37151 0.02229 0.08913 0.0
C75 C 0.33565 0.04651 0.0876 0.0
C76 C 0.33075 0.07181 0.06438 0.0
H77 H 0.12596 0.08819 0.20204 0.0
H78 H 0.19009 0.09355 0.1731 0.0
C79 C 0.35961 0.07074 0.04189 0.0
C80 C 0.30089 0.04206 0.1084 0.0
H81 H 0.19978 1.00767 0.11458 0.0
C82 C 0.30654 0.05527 0.13634 0.0
C83 C 0.26229 0.02409 0.10056 0.0
C84 C 0.25529 1.00813 0.07104 0.0
C85 C 0.27394 0.0517 0.15658 0.0
C86 C 0.23491 0.03467 0.14848 0.0
C87 C 0.22972 0.02081 0.12067 0.0
C88 C 0.19853 0.03134 0.16822 0.0
C89 C 0.28158 0.06575 0.1865 0.0
C90 C 0.18187 0.99456 0.17488 0.0
C91 C 0.14509 0.99133 0.1913 0.0
C92 C 0.12404 0.02491 0.20114 0.0
C93 C 0.14132 0.06172 0.19482 0.0
C94 C 0.17819 0.06488 0.17847 0.0
H95 H 0.31598 0.06918 0.19108 0.0
H96 H 0.26602 0.09454 0.18934 0.0
H97 H 0.26773 0.04525 0.20224 0.0
H98 H 0.19701 0.96833 0.16697 0.0
H99 H 0.13271 0.96254 0.19575 0.0
H100 H 0.08456 0.38464 0.5358 0.0
H101 H 0.07861 0.33688 0.57409 0.0
H102 H 0.95556 0.38324 0.59625 0.0
H103 H 0.96093 0.43071 0.55719 0.0
H104 H 0.06681 0.34083 0.63185 0.0
H105 H 0.93022 0.26891 0.57855 0.0
H106 H 0.96205 0.30547 0.56114 0.0
H107 H 0.92288 0.31955 0.58693 0.0
C108 C 0.05642 0.38494 0.54904 0.0
C109 C 0.02295 0.411 0.54332 0.0
C110 C 0.05311 0.35772 0.57096 0.0
C111 C 0.01627 0.35595 0.58762 0.0
C112 C 0.98389 0.38362 0.58323 0.0
H113 H 1.00288 0.19436 0.73178 0.0
H114 H 1.00224 0.25305 0.70234 0.0
C115 C 0.98718 0.41098 0.56117 0.0
C116 C 0.01139 0.32356 0.60829 0.0
H117 H 0.9547 0.24063 0.62113 0.0
C118 C 0.04207 0.31909 0.62972 0.0
C119 C 0.97953 0.29488 0.60508 0.0
C120 C 0.94695 0.29707 0.58157 0.0
C121 C 0.04215 0.28645 0.64777 0.0
C122 C 0.01012 0.2579 0.64468 0.0
C123 C 0.97909 0.26265 0.62352 0.0
C124 C 0.00913 0.22221 0.66253 0.0
C125 C 0.07753 0.28212 0.66923 0.0
C126 C 0.01181 0.18523 0.64986 0.0
C127 C 0.01172 0.15149 0.66663 0.0
C128 C 0.00893 0.15418 0.69638 0.0
C129 C 1.00552 0.19126 0.70894 0.0
C130 C 1.00535 0.2249 0.69216 0.0
H131 H 0.1051 0.30092 0.66395 0.0
H132 H 0.06569 0.29085 0.6905 0.0
H133 H 0.0886 0.25141 0.67054 0.0
H134 H 0.01454 0.18251 0.62699 0.0
H135 H 0.01426 0.12339 0.65632 0.0
H136 H 0.65716 0.94828 0.03667 0.0
H137 H 0.70381 0.95062 0.0783 0.0
H138 H 0.63855 0.05345 0.10792 0.0
H139 H 0.59146 0.05106 0.06629 0.0
H140 H 0.73088 0.05901 0.09818 0.0
H141 H 0.68635 0.93314 0.16616 0.0
H142 H 0.69007 0.9231 0.12872 0.0
H143 H 0.64978 0.95582 0.14146 0.0
C144 C 0.65213 0.97078 0.05246 0.0
C145 C 0.62085 0.99952 0.04836 0.0
C146 C 0.67858 0.97198 0.07625 0.0
C147 C 0.67434 1.00203 0.09622 0.0
C148 C 0.64195 0.02983 0.09283 0.0
H149 H 0.87396 0.07276 0.21618 0.0
H150 H 0.80682 0.07123 0.18999 0.0
C151 C 0.61507 0.02837 0.06917 0.0
C152 C 0.70727 1.00707 0.11828 0.0
H153 H 0.75407 0.96173 0.17482 0.0
C154 C 0.73565 0.03821 0.1153 0.0
C155 C 0.71342 0.97958 0.14027 0.0
C156 C 0.68314 0.94613 0.14461 0.0
C157 C 0.77144 0.04155 0.13288 0.0
C158 C 0.77821 1.01356 0.1546 0.0
C159 C 0.74885 0.98317 0.15819 0.0
C160 C 0.8171 1.01371 0.1724 0.0
C161 C 0.80283 0.07374 0.12692 0.0
C162 C 0.84431 0.98125 0.1722 0.0
C163 C 0.8823 0.98177 0.1875 0.0
C164 C 0.89399 1.01489 0.20319 0.0
C165 C 0.86615 0.04701 0.20398 0.0
C166 C 0.82785 0.04626 0.18893 0.0
H167 H 0.79842 0.08641 0.10535 0.0
H168 H 0.79824 0.09748 0.14261 0.0
H169 H 0.83599 0.06296 0.12876 0.0
H170 H 0.8366 0.95578 0.15965 0.0
H171 H 0.90294 0.9565 0.18648 0.0
H172 H 0.06253 0.60738 0.5561 0.0
H173 H 0.06709 0.65493 0.59505 0.0
H174 H 0.94244 0.69828 0.57342 0.0
H175 H 0.93746 0.6506 0.53519 0.0
H176 H 0.06547 0.73418 0.58722 0.0
H177 H 0.93486 0.69135 0.6591 0.0
H178 H 0.95571 0.65906 0.6322 0.0
H179 H 0.9171 0.69581 0.62301 0.0
C180 C 0.03568 0.62631 0.56031 0.0
C181 C 0.99966 0.62541 0.54269 0.0
C182 C 0.0384 0.65358 0.58237 0.0
C183 C 1.00493 0.67991 0.58731 0.0
C184 C 0.96829 0.67781 0.57043 0.0
H185 H 1.00675 0.91533 0.6506 0.0
H186 H 0.00883 0.85553 0.62222 0.0
C187 C 0.9656 0.65074 0.54846 0.0
C188 C 0.0095 0.71217 0.60801 0.0
H189 H 0.95847 0.75793 0.66259 0.0
C190 C 0.04248 0.73908 0.604 0.0
C191 C 0.97972 0.71838 0.63005 0.0
C192 C 0.94513 0.68937 0.63655 0.0
C193 C 0.04542 0.77288 0.62066 0.0
C194 C 0.01402 0.78033 0.64147 0.0
C195 C 0.98214 0.75256 0.64631 0.0
C196 C 0.0135 0.81672 0.65847 0.0
C197 C 0.08213 0.80025 0.61579 0.0
C198 C 0.01429 0.81475 0.68823 0.0
C199 C 0.01256 0.84875 0.70445 0.0
C200 C 0.00994 0.88551 0.69124 0.0
C201 C 0.00902 0.88749 0.6614 0.0
C202 C 0.01052 0.85335 0.64516 0.0
H203 H 0.10937 0.78511 0.6056 0.0
H204 H 0.07182 0.82414 0.6014 0.0
H205 H 0.0931 0.81336 0.63606 0.0
H206 H 0.01635 0.78682 0.69896 0.0
H207 H 0.01337 0.84615 0.7274 0.0
H208 H 0.41294 0.95681 0.93075 0.0
H209 H 0.36587 0.94937 0.8893 0.0
H210 H 0.32328 0.06814 0.89941 0.0
H211 H 0.36982 0.07555 0.94065 0.0
H212 H 0.27462 0.96166 0.89412 0.0
H213 H 0.34732 0.05746 0.81271 0.0
H214 H 0.377 0.03744 0.84226 0.0
H215 H 0.34337 0.07927 0.8473 0.0
C216 C 0.39415 0.98146 0.92364 0.0
C217 C 0.39478 0.01671 0.93878 0.0
C218 C 0.36732 0.97719 0.9001 0.0
C219 C 0.34156 1.00837 0.89117 0.0
C220 C 0.34346 0.04397 0.90568 0.0
H221 H 0.12781 0.0735 0.79388 0.0
H222 H 0.19337 0.06694 0.82118 0.0
C223 C 0.36977 0.04809 0.9293 0.0
C224 C 0.30918 1.00304 0.86877 0.0
H225 H 0.27358 0.04227 0.80645 0.0
C226 C 0.27468 0.97857 0.87461 0.0
C227 C 0.30943 0.02539 0.84353 0.0
C228 C 0.34645 0.05114 0.83588 0.0
C229 C 0.23902 0.97772 0.85672 0.0
C230 C 0.23849 1.0013 0.83198 0.0
C231 C 0.27399 0.02432 0.82546 0.0
C232 C 0.20011 1.00496 0.81392 0.0
C233 C 0.20125 0.95346 0.86542 0.0
C234 C 0.18253 0.97239 0.80035 0.0
C235 C 0.14471 0.97595 0.78495 0.0
C236 C 0.12414 1.01228 0.78254 0.0
C237 C 0.14271 0.04507 0.79536 0.0
C238 C 0.18027 0.04141 0.81092 0.0
H239 H 0.20322 0.94406 0.888 0.0
H240 H 0.17119 0.96993 0.86234 0.0
H241 H 0.19995 0.9269 0.85204 0.0
H242 H 0.19784 0.94416 0.80186 0.0
H243 H 0.13153 0.95019 0.77506 0.0
H244 H 0.09554 0.38272 0.45275 0.0
H245 H 0.0932 0.33437 0.41465 0.0
H246 H 0.98041 0.38899 0.38085 0.0
H247 H 0.98241 0.43731 0.4192 0.0
H248 H 0.97104 0.30961 0.39415 0.0
H249 H 0.11477 0.33376 0.32848 0.0
H250 H 0.12511 0.33211 0.36602 0.0
H251 H 0.093 0.37078 0.35159 0.0
C252 C 0.07101 0.38508 0.43667 0.0
C253 C 0.03912 0.41368 0.4389 0.0
C254 C 0.06978 0.35755 0.41487 0.0
C255 C 0.03672 0.35818 0.39488 0.0
C256 C 1.00629 0.38814 0.39602 0.0
H257 H 0.00923 0.19194 0.25665 0.0
H258 H 0.01458 0.25098 0.28531 0.0
C259 C 0.00765 0.41589 0.41777 0.0
C260 C 0.03104 0.32486 0.37526 0.0
H261 H 0.08046 0.27203 0.32345 0.0
C262 C 0.99473 0.30161 0.37846 0.0
C263 C 0.06196 0.31455 0.35482 0.0
C264 C 0.10074 0.33928 0.34977 0.0
C265 C 0.98903 0.26771 0.36227 0.0
C266 C 0.02072 0.25657 0.34262 0.0
C267 C 0.05646 0.28041 0.33881 0.0
C268 C 0.0171 0.2205 0.32554 0.0
C269 C 0.94908 0.24415 0.36627 0.0
C270 C 0.01697 0.18371 0.33871 0.0
C271 C 0.01392 0.14976 0.32237 0.0
C272 C 0.01103 0.15211 0.2926 0.0
C273 C 0.01126 0.18906 0.27955 0.0
C274 C 0.01442 0.22288 0.29586 0.0
H275 H 0.92375 0.26128 0.37698 0.0
H276 H 0.93681 0.23363 0.34553 0.0
H277 H 0.95631 0.21833 0.37969 0.0
H278 H 0.01965 0.18126 0.3616 0.0
H279 H 0.01405 0.12176 0.33304 0.0
H280 H 0.59074 0.05039 0.91981 0.0
H281 H 0.63513 0.04964 0.87732 0.0
H282 H 0.71861 0.96595 0.91729 0.0
H283 H 0.67222 0.9632 0.95824 0.0
H284 H 0.70937 0.07252 0.86947 0.0
H285 H 0.71344 0.91704 0.84264 0.0
H286 H 0.67669 0.93606 0.86854 0.0
H287 H 0.72976 0.92164 0.87889 0.0
C288 C 0.61772 0.0308 0.91923 0.0
C289 C 0.62771 1.00688 0.94268 0.0
C290 C 0.64341 0.03073 0.89495 0.0
C291 C 0.67993 1.00715 0.89371 0.0
C292 C 0.68993 0.98341 0.91711 0.0
H293 H 0.9141 0.06214 0.81412 0.0
H294 H 0.84812 0.05969 0.84112 0.0
C295 C 0.66375 0.98263 0.94097 0.0
C296 C 0.70974 1.00963 0.86924 0.0
H297 H 0.77651 0.95419 0.82895 0.0
C298 C 0.72334 0.04658 0.86018 0.0
C299 C 0.72722 0.97603 0.85621 0.0
C300 C 0.71051 0.93558 0.86189 0.0
C301 C 0.75582 0.05075 0.84001 0.0
C302 C 0.77697 0.01708 0.82975 0.0
C303 C 0.76133 0.98017 0.83729 0.0
C304 C 0.81665 0.01934 0.81266 0.0
C305 C 0.76685 0.0913 0.83 0.0
C306 C 0.82212 0.996 0.78837 0.0
C307 C 0.86067 0.99611 0.77361 0.0
C308 C 0.89408 0.02021 0.78251 0.0
C309 C 0.88854 0.04379 0.80656 0.0
C310 C 0.85057 0.04274 0.82181 0.0
H311 H 0.73829 0.1104 0.82998 0.0
H312 H 0.79015 0.10436 0.84487 0.0
H313 H 0.78052 0.09116 0.80825 0.0
H314 H 0.79667 0.97747 0.78092 0.0
H315 H 0.86422 0.97769 0.75507 0.0
H316 H 0.03985 0.59799 0.41817 0.0
H317 H 0.04197 0.64636 0.37969 0.0
H318 H 0.93048 0.7023 0.41399 0.0
H319 H 0.92786 0.6538 0.45215 0.0
H320 H 0.93385 0.70079 0.35306 0.0
H321 H 0.08162 0.75729 0.40293 0.0
H322 H 0.08238 0.70668 0.3931 0.0
H323 H 0.0472 0.72305 0.42067 0.0
C324 C 0.01499 0.61982 0.4169 0.0
C325 C 0.98392 0.62243 0.43825 0.0
C326 C 0.0165 0.64765 0.39512 0.0
C327 C 0.98693 0.67836 0.39442 0.0
C328 C 0.95377 0.679 0.41429 0.0
H329 H 1.006 0.91338 0.32978 0.0
H330 H 0.99989 0.85399 0.35854 0.0
C331 C 0.95231 0.65132 0.43606 0.0
C332 C 0.9926 0.71191 0.37492 0.0
H333 H 0.05671 0.79018 0.36222 0.0
C334 C 0.96085 0.72019 0.35485 0.0
C335 C 0.02748 0.73755 0.37777 0.0
C336 C 0.06152 0.73106 0.3999 0.0
C337 C 0.9631 0.75348 0.33747 0.0
C338 C 0.99822 0.77887 0.34012 0.0
C339 C 0.02995 0.77054 0.36017 0.0
C340 C 1.00227 0.81467 0.32265 0.0
C341 C 0.9273 0.76182 0.31699 0.0
C342 C 1.00635 0.81216 0.29304 0.0
C343 C 0.0099 0.84594 0.27661 0.0
C344 C 0.00961 0.88295 0.28948 0.0
C345 C 1.00624 0.88536 0.31922 0.0
C346 C 1.00274 0.85147 0.33567 0.0
H347 H 0.89839 0.74475 0.3222 0.0
H348 H 0.91901 0.7933 0.31701 0.0
H349 H 0.93745 0.75385 0.29517 0.0
H350 H 1.00691 0.78402 0.28264 0.0
H351 H 0.01265 0.843 0.25376 0.0
loop_
_geom_bond_atom_site_label_1
_geom_bond_atom_site_label_2
_geom_bond_distance
_geom_bond_site_symmetry_2
_ccdc_geom_bond_type
H0 C6 0.928 1_565 S
H1 C9 0.931 . S
H2 C11 0.931 1_565 S
H3 C13 0.930 . S
H4 C15 0.930 . S
H5 C17 0.930 1_565 S
C6 H0 0.928 1_545 S
C6 C7 1.380 1_545 S
C6 C8 1.394 1_554 S
C7 C6 1.380 1_565 S
C7 C11 1.382 1_565 S
C8 C6 1.394 1_556 S
C8 C9 1.400 . S
C9 H1 0.931 . S
C9 C8 1.400 . S
C9 C10 1.375 1_556 S
C10 C9 1.375 1_554 S
C10 C11 1.415 . S
C10 C12 1.501 . S
C11 H2 0.931 1_545 S
C11 C7 1.382 1_545 S
C11 C10 1.415 . S
C12 C10 1.501 . S
C12 C13 1.384 . S
C12 C17 1.408 1_554 S
C13 H3 0.930 . S
C13 C12 1.384 . S
C13 C14 1.389 . S
C14 C13 1.389 . S
C14 C15 1.405 . S
C15 H4 0.930 . S
C15 C14 1.405 . S
C15 C16 1.365 1_544 S
C16 C15 1.365 1_566 S
C16 C17 1.400 1_565 S
C17 H5 0.930 1_545 S
C17 C12 1.408 1_556 S
C17 C16 1.400 1_545 S
H18 C24 0.930 . S
H19 C27 0.931 . S
H20 C29 0.931 . S
H21 C31 0.930 . S
H22 C33 0.931 . S
H23 C35 0.931 . S
C24 H18 0.930 . S
C24 C25 1.380 . S
C24 C26 1.394 1_455 S
C25 C24 1.380 . S
C25 C29 1.382 . S
C26 C24 1.394 1_655 S
C26 C27 1.400 . S
C27 H19 0.931 . S
C27 C26 1.400 . S
C27 C28 1.375 . S
C28 C27 1.375 . S
C28 C29 1.415 1_655 S
C28 C30 1.501 . S
C29 H20 0.931 . S
C29 C25 1.382 . S
C29 C28 1.415 1_455 S
C30 C28 1.501 . S
C30 C31 1.384 . S
C30 C35 1.408 1_655 S
C31 H21 0.930 . S
C31 C30 1.384 . S
C31 C32 1.389 . S
C32 C31 1.389 . S
C32 C33 1.406 . S
C33 H22 0.931 . S
C33 C32 1.406 . S
C33 C34 1.362 1_655 S
C34 C33 1.362 1_455 S
C34 C35 1.400 . S
C35 H23 0.931 . S
C35 C30 1.408 1_455 S
C35 C34 1.400 . S
O36 Cd37 2.223 1_655 S
O36 C44 1.315 . S
Cd37 O36 2.223 1_455 S
Cd37 O40 2.297 1_455 S
Cd37 O41 2.439 1_455 S
Cd37 O47 2.240 1_565 S
Cd38 O39 2.240 1_545 S
Cd38 O46 2.223 1_655 S
Cd38 O48 2.297 1_655 S
Cd38 O49 2.439 1_655 S
O39 Cd38 2.240 1_565 S
O39 C44 1.279 . S
O40 Cd37 2.297 1_655 S
O40 C42 1.247 . S
O41 Cd37 2.439 1_655 S
O41 C42 1.208 . S
C42 O40 1.247 . S
C42 O41 1.208 . S
C43 O48 1.247 . S
C43 O49 1.208 . S
C44 O36 1.315 . S
C44 O39 1.279 . S
C45 O46 1.315 . S
C45 O47 1.279 . S
O46 Cd38 2.223 1_455 S
O46 C45 1.315 . S
O47 Cd37 2.240 1_545 S
O47 C45 1.279 . S
O48 Cd38 2.297 1_455 S
O48 C43 1.247 . S
O49 Cd38 2.439 1_455 S
O49 C43 1.208 . S
O50 Cd51 2.223 1_655 S
O50 C58 1.315 . S
Cd51 O50 2.223 1_455 S
Cd51 O54 2.297 1_455 S
Cd51 O55 2.439 1_455 S
Cd51 O61 2.240 1_545 S
Cd52 O53 2.240 1_565 S
Cd52 O60 2.223 1_655 S
Cd52 O62 2.297 1_655 S
Cd52 O63 2.439 1_655 S
O53 Cd52 2.240 1_545 S
O53 C58 1.279 . S
O54 Cd51 2.297 1_655 S
O54 C56 1.247 . S
O55 Cd51 2.439 1_655 S
O55 C56 1.208 . S
C56 O54 1.247 . S
C56 O55 1.208 . S
C57 O62 1.247 . S
C57 O63 1.208 . S
C58 O50 1.315 . S
C58 O53 1.279 . S
C59 O60 1.315 . S
C59 O61 1.279 . S
O60 Cd52 2.223 1_455 S
O60 C59 1.315 . S
O61 Cd51 2.240 1_565 S
O61 C59 1.279 . S
O62 Cd52 2.297 1_455 S
O62 C57 1.247 . S
O63 Cd52 2.439 1_455 S
O63 C57 1.208 . S
H64 C72 0.929 . S
H65 C74 0.930 . S
H66 C76 0.930 . S
H67 C79 0.929 . S
H68 C82 0.930 . S
H69 C84 0.960 . S
H70 C84 0.960 1_565 S
H71 C84 0.960 . S
C72 H64 0.929 . S
C72 C73 1.377 . S
C72 C74 1.384 . S
C73 C72 1.377 . S
C73 C79 1.390 1_565 S
C74 H65 0.930 . S
C74 C72 1.384 . S
C74 C75 1.372 1_565 S
C75 C74 1.372 1_545 S
C75 C76 1.400 . S
C75 C80 1.490 . S
C76 H66 0.930 . S
C76 C75 1.400 . S
C76 C79 1.386 . S
H77 C93 0.930 . S
H78 C94 0.931 . S
C79 H67 0.929 . S
C79 C73 1.390 1_545 S
C79 C76 1.386 . S
C80 C75 1.490 . S
C80 C82 1.395 . S
C80 C83 1.403 . S
H81 C87 0.930 . S
C82 H68 0.930 . S
C82 C80 1.395 . S
C82 C85 1.403 . S
C83 C80 1.403 . S
C83 C84 1.524 . S
C83 C87 1.400 . S
C84 H69 0.960 . S
C84 H70 0.960 1_545 S
C84 H71 0.960 . S
C84 C83 1.524 . S
C85 C82 1.403 . S
C85 C86 1.392 . S
C85 C89 1.495 . S
C86 C85 1.392 . S
C86 C87 1.385 . S
C86 C88 1.478 . S
C87 H81 0.930 . S
C87 C83 1.400 . S
C87 C86 1.385 . S
C88 C86 1.478 . S
C88 C90 1.381 1_545 S
C88 C94 1.383 . S
C89 C85 1.495 . S
C89 H95 0.959 . S
C89 H96 0.961 . S
C89 H97 0.960 1_545 S
C90 C88 1.381 1_565 S
C90 C91 1.394 . S
C90 H98 0.930 . S
C91 C90 1.394 . S
C91 C92 1.383 1_565 S
C91 H99 0.929 . S
C92 C91 1.383 1_545 S
C92 C93 1.377 . S
C93 H77 0.930 . S
C93 C92 1.377 . S
C93 C94 1.379 . S
C94 H78 0.931 . S
C94 C88 1.383 . S
C94 C93 1.379 . S
H95 C89 0.959 . S
H96 C89 0.961 . S
H97 C89 0.960 1_565 S
H98 C90 0.930 . S
H99 C91 0.929 . S
H100 C108 0.929 . S
H101 C110 0.930 . S
H102 C112 0.930 . S
H103 C115 0.929 . S
H104 C118 0.930 . S
H105 C120 0.960 . S
H106 C120 0.960 . S
H107 C120 0.960 . S
C108 H100 0.929 . S
C108 C109 1.377 . S
C108 C110 1.384 . S
C109 C108 1.377 . S
C109 C115 1.390 1_455 S
C110 H101 0.930 . S
C110 C108 1.384 . S
C110 C111 1.373 1_455 S
C111 C110 1.373 1_655 S
C111 C112 1.399 . S
C111 C116 1.490 . S
C112 H102 0.930 . S
C112 C111 1.399 . S
C112 C115 1.386 . S
H113 C129 0.930 . S
H114 C130 0.931 . S
C115 H103 0.929 . S
C115 C109 1.390 1_655 S
C115 C112 1.386 . S
C116 C111 1.490 . S
C116 C118 1.395 1_655 S
C116 C119 1.403 . S
H117 C123 0.930 . S
C118 H104 0.930 . S
C118 C116 1.395 1_455 S
C118 C121 1.403 . S
C119 C116 1.403 . S
C119 C120 1.524 . S
C119 C123 1.400 . S
C120 H105 0.960 . S
C120 H106 0.960 . S
C120 H107 0.960 . S
C120 C119 1.524 . S
C121 C118 1.403 . S
C121 C122 1.392 1_455 S
C121 C125 1.495 . S
C122 C121 1.392 1_655 S
C122 C123 1.385 . S
C122 C124 1.478 . S
C123 H117 0.930 . S
C123 C119 1.400 . S
C123 C122 1.385 . S
C124 C122 1.478 . S
C124 C126 1.381 1_655 S
C124 C130 1.383 . S
C125 C121 1.495 . S
C125 H131 0.959 . S
C125 H132 0.961 . S
C125 H133 0.960 . S
C126 C124 1.381 1_455 S
C126 C127 1.394 . S
C126 H134 0.930 . S
C127 C126 1.394 . S
C127 C128 1.383 1_455 S
C127 H135 0.929 . S
C128 C127 1.383 1_655 S
C128 C129 1.377 . S
C129 H113 0.930 . S
C129 C128 1.377 . S
C129 C130 1.379 . S
C130 H114 0.931 . S
C130 C124 1.383 . S
C130 C129 1.379 . S
H131 C125 0.959 . S
H132 C125 0.961 . S
H133 C125 0.960 . S
H134 C126 0.930 . S
H135 C127 0.929 . S
H136 C144 0.929 . S
H137 C146 0.930 . S
H138 C148 0.930 . S
H139 C151 0.929 . S
H140 C154 0.930 . S
H141 C156 0.960 . S
H142 C156 0.960 . S
H143 C156 0.960 . S
C144 H136 0.929 . S
C144 C145 1.377 1_565 S
C144 C146 1.384 . S
C145 C144 1.377 1_545 S
C145 C151 1.390 . S
C146 H137 0.930 . S
C146 C144 1.384 . S
C146 C147 1.375 . S
C147 C146 1.375 . S
C147 C148 1.396 1_565 S
C147 C152 1.491 . S
C148 H138 0.930 . S
C148 C147 1.396 1_545 S
C148 C151 1.386 . S
H149 C165 0.930 1_545 S
H150 C166 0.931 . S
C151 H139 0.929 . S
C151 C145 1.390 . S
C151 C148 1.386 . S
C152 C147 1.491 . S
C152 C154 1.395 1_565 S
C152 C155 1.403 . S
H153 C159 0.930 . S
C154 H140 0.930 . S
C154 C152 1.395 1_545 S
C154 C157 1.403 . S
C155 C152 1.403 . S
C155 C156 1.524 . S
C155 C159 1.400 . S
C156 H141 0.960 . S
C156 H142 0.960 . S
C156 H143 0.960 . S
C156 C155 1.524 . S
C157 C154 1.403 . S
C157 C158 1.392 1_545 S
C157 C161 1.495 . S
C158 C157 1.392 1_565 S
C158 C159 1.385 . S
C158 C160 1.478 . S
C159 H153 0.930 . S
C159 C155 1.400 . S
C159 C158 1.385 . S
C160 C158 1.478 . S
C160 C162 1.381 . S
C160 C166 1.383 1_565 S
C161 C157 1.495 . S
C161 H167 0.959 . S
C161 H168 0.961 . S
C161 H169 0.960 . S
C162 C160 1.381 . S
C162 C163 1.394 . S
C162 H170 0.930 . S
C163 C162 1.394 . S
C163 C164 1.383 . S
C163 H171 0.929 . S
C164 C163 1.383 . S
C164 C165 1.377 . S
C165 H149 0.930 1_565 S
C165 C164 1.377 . S
C165 C166 1.379 1_565 S
C166 H150 0.931 . S
C166 C160 1.383 1_545 S
C166 C165 1.379 1_545 S
H167 C161 0.959 . S
H168 C161 0.961 . S
H169 C161 0.960 . S
H170 C162 0.930 . S
H171 C163 0.929 . S
H172 C180 0.930 . S
H173 C182 0.930 . S
H174 C184 0.930 . S
H175 C187 0.929 . S
H176 C190 0.930 . S
H177 C192 0.960 . S
H178 C192 0.960 . S
H179 C192 0.960 . S
C180 H172 0.930 . S
C180 C181 1.377 1_455 S
C180 C182 1.384 . S
C181 C180 1.377 1_655 S
C181 C187 1.390 . S
C182 H173 0.930 . S
C182 C180 1.384 . S
C182 C183 1.372 . S
C183 C182 1.372 . S
C183 C184 1.400 . S
C183 C188 1.490 . S
C184 H174 0.930 . S
C184 C183 1.400 . S
C184 C187 1.386 1_455 S
H185 C201 0.930 . S
H186 C202 0.931 . S
C187 H175 0.929 . S
C187 C181 1.390 . S
C187 C184 1.386 1_655 S
C188 C183 1.490 . S
C188 C190 1.395 . S
C188 C191 1.403 1_455 S
H189 C195 0.930 . S
C190 H176 0.930 . S
C190 C188 1.395 . S
C190 C193 1.403 . S
C191 C188 1.403 1_655 S
C191 C192 1.524 . S
C191 C195 1.400 . S
C192 H177 0.960 . S
C192 H178 0.960 . S
C192 H179 0.960 . S
C192 C191 1.524 . S
C193 C190 1.403 . S
C193 C194 1.392 . S
C193 C197 1.495 . S
C194 C193 1.392 . S
C194 C195 1.385 1_455 S
C194 C196 1.478 . S
C195 H189 0.930 . S
C195 C191 1.400 . S
C195 C194 1.385 1_655 S
C196 C194 1.478 . S
C196 C198 1.381 . S
C196 C202 1.383 . S
C197 C193 1.495 . S
C197 H203 0.959 . S
C197 H204 0.961 . S
C197 H205 0.960 . S
C198 C196 1.381 . S
C198 C199 1.394 . S
C198 H206 0.930 . S
C199 C198 1.394 . S
C199 C200 1.383 . S
C199 H207 0.929 . S
C200 C199 1.383 . S
C200 C201 1.377 . S
C201 H185 0.930 . S
C201 C200 1.377 . S
C201 C202 1.379 . S
C202 H186 0.931 . S
C202 C196 1.383 . S
C202 C201 1.379 . S
H203 C197 0.959 . S
H204 C197 0.961 . S
H205 C197 0.960 . S
H206 C198 0.930 . S
H207 C199 0.929 . S
H208 C216 0.929 . S
H209 C218 0.930 . S
H210 C220 0.930 . S
H211 C223 0.929 . S
H212 C226 0.930 . S
H213 C228 0.960 . S
H214 C228 0.960 . S
H215 C228 0.960 . S
C216 H208 0.929 . S
C216 C217 1.377 1_565 S
C216 C218 1.384 . S
C217 C216 1.377 1_545 S
C217 C223 1.390 . S
C218 H209 0.930 . S
C218 C216 1.384 . S
C218 C219 1.372 . S
C219 C218 1.372 . S
C219 C220 1.400 1_565 S
C219 C224 1.490 . S
C220 H210 0.930 . S
C220 C219 1.400 1_545 S
C220 C223 1.386 . S
H221 C237 0.930 . S
H222 C238 0.931 . S
C223 H211 0.929 . S
C223 C217 1.390 . S
C223 C220 1.386 . S
C224 C219 1.490 . S
C224 C226 1.395 . S
C224 C227 1.403 1_565 S
H225 C231 0.930 . S
C226 H212 0.930 . S
C226 C224 1.395 . S
C226 C229 1.403 . S
C227 C224 1.403 1_545 S
C227 C228 1.524 . S
C227 C231 1.400 . S
C228 H213 0.960 . S
C228 H214 0.960 . S
C228 H215 0.960 . S
C228 C227 1.524 . S
C229 C226 1.403 . S
C229 C230 1.392 . S
C229 C233 1.495 . S
C230 C229 1.392 . S
C230 C231 1.385 1_565 S
C230 C232 1.478 . S
C231 H225 0.930 . S
C231 C227 1.400 . S
C231 C230 1.385 1_545 S
C232 C230 1.478 . S
C232 C234 1.381 . S
C232 C238 1.383 1_565 S
C233 C229 1.495 . S
C233 H239 0.959 . S
C233 H240 0.961 . S
C233 H241 0.960 . S
C234 C232 1.381 . S
C234 C235 1.394 . S
C234 H242 0.930 . S
C235 C234 1.394 . S
C235 C236 1.383 . S
C235 H243 0.929 . S
C236 C235 1.383 . S
C236 C237 1.377 1_565 S
C237 H221 0.930 . S
C237 C236 1.377 1_545 S
C237 C238 1.379 . S
C238 H222 0.931 . S
C238 C232 1.383 1_545 S
C238 C237 1.379 . S
H239 C233 0.959 . S
H240 C233 0.961 . S
H241 C233 0.960 . S
H242 C234 0.930 . S
H243 C235 0.929 . S
H244 C252 0.929 . S
H245 C254 0.930 . S
H246 C256 0.930 . S
H247 C259 0.929 . S
H248 C262 0.930 . S
H249 C264 0.960 . S
H250 C264 0.960 . S
H251 C264 0.960 1_655 S
C252 H244 0.929 . S
C252 C253 1.355 1_455 S
C252 C254 1.384 . S
C253 C252 1.355 1_655 S
C253 C259 1.410 . S
C254 H245 0.930 . S
C254 C252 1.384 . S
C254 C255 1.372 . S
C255 C254 1.372 . S
C255 C256 1.400 1_455 S
C255 C260 1.490 . S
C256 H246 0.930 . S
C256 C255 1.400 1_655 S
C256 C259 1.386 . S
H257 C273 0.930 . S
H258 C274 0.931 . S
C259 H247 0.929 . S
C259 C253 1.410 . S
C259 C256 1.386 . S
C260 C255 1.490 . S
C260 C262 1.395 . S
C260 C263 1.403 . S
H261 C267 0.930 . S
C262 H248 0.930 . S
C262 C260 1.395 . S
C262 C265 1.403 . S
C263 C260 1.403 . S
C263 C264 1.524 . S
C263 C267 1.400 . S
C264 H249 0.960 . S
C264 H250 0.960 . S
C264 H251 0.960 1_455 S
C264 C263 1.524 . S
C265 C262 1.403 . S
C265 C266 1.392 . S
C265 C269 1.495 . S
C266 C265 1.392 . S
C266 C267 1.385 . S
C266 C268 1.478 . S
C267 H261 0.930 . S
C267 C263 1.400 . S
C267 C266 1.385 . S
C268 C266 1.478 . S
C268 C270 1.381 . S
C268 C274 1.383 1_455 S
C269 C265 1.495 . S
C269 H275 0.959 . S
C269 H276 0.961 . S
C269 H277 0.960 . S
C270 C268 1.381 . S
C270 C271 1.394 . S
C270 H278 0.930 . S
C271 C270 1.394 . S
C271 C272 1.383 . S
C271 H279 0.929 . S
C272 C271 1.383 . S
C272 C273 1.377 1_455 S
C273 H257 0.930 . S
C273 C272 1.377 1_655 S
C273 C274 1.379 . S
C274 H258 0.931 . S
C274 C268 1.383 1_655 S
C274 C273 1.379 . S
H275 C269 0.959 . S
H276 C269 0.961 . S
H277 C269 0.960 . S
H278 C270 0.930 . S
H279 C271 0.929 . S
H280 C288 0.929 . S
H281 C290 0.930 . S
H282 C292 0.930 . S
H283 C295 0.929 . S
H284 C298 0.930 . S
H285 C300 0.960 . S
H286 C300 0.960 . S
H287 C300 0.960 . S
C288 H280 0.929 . S
C288 C289 1.377 . S
C288 C290 1.384 . S
C289 C288 1.377 . S
C289 C295 1.390 1_565 S
C290 H281 0.930 . S
C290 C288 1.384 . S
C290 C291 1.372 1_565 S
C291 C290 1.372 1_545 S
C291 C292 1.400 . S
C291 C296 1.490 . S
C292 H282 0.930 . S
C292 C291 1.400 . S
C292 C295 1.386 . S
H293 C309 0.930 . S
H294 C310 0.931 . S
C295 H283 0.929 . S
C295 C289 1.390 1_545 S
C295 C292 1.386 . S
C296 C291 1.490 . S
C296 C298 1.395 . S
C296 C299 1.403 1_545 S
H297 C303 0.930 . S
C298 H284 0.930 . S
C298 C296 1.395 . S
C298 C301 1.403 . S
C299 C296 1.403 1_565 S
C299 C300 1.524 . S
C299 C303 1.400 . S
C300 H285 0.960 . S
C300 H286 0.960 . S
C300 H287 0.960 . S
C300 C299 1.524 . S
C301 C298 1.403 . S
C301 C302 1.392 . S
C301 C305 1.495 . S
C302 C301 1.392 . S
C302 C303 1.385 1_545 S
C302 C304 1.478 . S
C303 H297 0.930 . S
C303 C299 1.400 . S
C303 C302 1.385 1_565 S
C304 C302 1.478 . S
C304 C306 1.381 . S
C304 C310 1.383 . S
C305 C301 1.495 . S
C305 H311 0.959 . S
C305 H312 0.961 . S
C305 H313 0.960 . S
C306 C304 1.381 . S
C306 C307 1.394 . S
C306 H314 0.930 . S
C307 C306 1.394 . S
C307 C308 1.383 . S
C307 H315 0.929 . S
C308 C307 1.383 . S
C308 C309 1.377 . S
C309 H293 0.930 . S
C309 C308 1.377 . S
C309 C310 1.379 . S
C310 H294 0.931 . S
C310 C304 1.383 . S
C310 C309 1.379 . S
H311 C305 0.959 . S
H312 C305 0.961 . S
H313 C305 0.960 . S
H314 C306 0.930 . S
H315 C307 0.929 . S
H316 C324 0.929 . S
H317 C326 0.930 . S
H318 C328 0.930 . S
H319 C331 0.929 . S
H320 C334 0.930 . S
H321 C336 0.960 . S
H322 C336 0.960 . S
H323 C336 0.960 . S
C324 H316 0.929 . S
C324 C325 1.377 1_655 S
C324 C326 1.384 . S
C325 C324 1.377 1_455 S
C325 C331 1.390 . S
C326 H317 0.930 . S
C326 C324 1.384 . S
C326 C327 1.372 . S
C327 C326 1.372 . S
C327 C328 1.400 1_655 S
C327 C332 1.490 . S
C328 H318 0.930 . S
C328 C327 1.400 1_455 S
C328 C331 1.386 . S
H329 C345 0.930 . S
H330 C346 0.931 . S
C331 H319 0.929 . S
C331 C325 1.390 . S
C331 C328 1.386 . S
C332 C327 1.490 . S
C332 C334 1.395 . S
C332 C335 1.403 1_655 S
H333 C339 0.930 . S
C334 H320 0.930 . S
C334 C332 1.395 . S
C334 C337 1.403 . S
C335 C332 1.403 1_455 S
C335 C336 1.524 . S
C335 C339 1.400 . S
C336 H321 0.960 . S
C336 H322 0.960 . S
C336 H323 0.960 . S
C336 C335 1.524 . S
C337 C334 1.403 . S
C337 C338 1.392 . S
C337 C341 1.495 . S
C338 C337 1.392 . S
C338 C339 1.385 1_655 S
C338 C340 1.478 . S
C339 H333 0.930 . S
C339 C335 1.400 . S
C339 C338 1.385 1_455 S
C340 C338 1.478 . S
C340 C342 1.381 . S
C340 C346 1.383 . S
C341 C337 1.495 . S
C341 H347 0.959 . S
C341 H348 0.961 . S
C341 H349 0.960 . S
C342 C340 1.381 . S
C342 C343 1.394 . S
C342 H350 0.930 . S
C343 C342 1.394 . S
C343 C344 1.383 . S
C343 H351 0.929 . S
C344 C343 1.383 . S
C344 C345 1.377 . S
C345 H329 0.930 . S
C345 C344 1.377 . S
C345 C346 1.379 . S
C346 H330 0.931 . S
C346 C340 1.383 . S
C346 C345 1.379 . S
H347 C341 0.959 . S
H348 C341 0.961 . S
H349 C341 0.960 . S
H350 C342 0.930 . S
H351 C343 0.929 . S
C92 C45 1.669 . S
C73 C7 1.637 . S
C128 C56 1.552 . S
C109 C34 1.596 . S
C164 C44 1.683 . S
C145 C14 1.644 . S
C200 C57 1.589 . S
C181 C26 1.610 . S
C236 C59 1.673 . S
C217 C8 1.641 . S
C272 C43 1.603 . S
C253 C32 1.619 . S
C308 C58 1.666 . S
C289 C16 1.636 . S
C325 C25 1.610 . S
C344 C42 1.600 . S
