# Generated by pormake.
# Topology ftw, (4,12)-cn, num edge types: 1
# Building blocks:
#     Node 0, Type 0, BuildingBlock: MUDLON_clean_linker_0, # of connection points: 4
#     Node 1, Type 0, BuildingBlock: MUDLON_clean_linker_0, # of connection points: 4
#     Node 2, Type 0, BuildingBlock: MUDLON_clean_linker_0, # of connection points: 4
#     Node 3, Type 1, BuildingBlock: EZIPEK_clean_sbu_0, # of connection points: 12
#     Edge 4, Type (0, 1), BuildingBlock: XIVTED_clean_linker_0, # of connection points: 2
#     Edge 5, Type (0, 1), BuildingBlock: XIVTED_clean_linker_0, # of connection points: 2
#     Edge 6, Type (0, 1), BuildingBlock: XIVTED_clean_linker_0, # of connection points: 2
#     Edge 7, Type (0, 1), BuildingBlock: XIVTED_clean_linker_0, # of connection points: 2
#     Edge 8, Type (0, 1), BuildingBlock: XIVTED_clean_linker_0, # of connection points: 2
#     Edge 9, Type (0, 1), BuildingBlock: XIVTED_clean_linker_0, # of connection points: 2
#     Edge 10, Type (0, 1), BuildingBlock: XIVTED_clean_linker_0, # of connection points: 2
#     Edge 11, Type (0, 1), BuildingBlock: XIVTED_clean_linker_0, # of connection points: 2
#     Edge 12, Type (0, 1), BuildingBlock: XIVTED_clean_linker_0, # of connection points: 2
#     Edge 13, Type (0, 1), BuildingBlock: XIVTED_clean_linker_0, # of connection points: 2
#     Edge 14, Type (0, 1), BuildingBlock: XIVTED_clean_linker_0, # of connection points: 2
#     Edge 15, Type (0, 1), BuildingBlock: XIVTED_clean_linker_0, # of connection points: 2
# Relax obj value: 0.080
# Max RMSD: 0.225
# Mean RMSD: 0.171
data_MOF--net-ftw--node1-EZIPEK_clean_sbu_0--node2-MUDLON_clean_linker_0--edge1-XIVTED_clean_linker_0
_symmetry_space_group_name_H-M    P1
_symmetry_Int_Tables_number       1
_symmetry_cell_setting            triclinic
loop_
_symmetry_equiv_pos_as_xyz
'x, y, z'
_cell_length_a     29.77031
_cell_length_b     32.380371
_cell_length_c     30.163509
_cell_angle_alpha  89.849695
_cell_angle_beta   89.876549
_cell_angle_gamma 89.830388
loop_
_atom_site_label
_atom_site_type_symbol
_atom_site_fract_x
_atom_site_fract_y
_atom_site_fract_z
_atom_type_partial_charge
H0 H 0.95813 0.71118 0.56769 0.0
N1 N 0.03708 0.67964 0.53604 0.0
H2 H 0.948 0.75124 0.63597 0.0
H3 H 0.09952 0.69982 0.59484 0.0
H4 H 0.08985 0.73947 0.66333 0.0
H5 H 0.10687 0.70391 0.48773 0.0
H6 H 0.10592 0.73987 0.41617 0.0
H7 H 0.96222 0.70285 0.48932 0.0
H8 H 0.96084 0.73883 0.41788 0.0
H9 H 0.95631 0.64089 0.52776 0.0
H10 H 0.09764 0.62024 0.54799 0.0
H11 H 0.9434 0.56656 0.52707 0.0
H12 H 0.08506 0.5457 0.55048 0.0
H13 H 0.91975 0.33486 0.5883 0.0
H14 H 0.93066 0.30036 0.65996 0.0
H15 H 0.07152 0.3317 0.65582 0.0
H16 H 0.06005 0.36669 0.58446 0.0
H17 H 0.05833 0.33469 0.51325 0.0
H18 H 0.06996 0.29598 0.4448 0.0
H19 H 0.93369 0.32331 0.40516 0.0
H20 H 0.92248 0.36228 0.47387 0.0
H21 H 0.92628 0.43292 0.56876 0.0
H22 H 0.9396 0.50728 0.57009 0.0
H23 H 0.06926 0.48766 0.50842 0.0
N24 N 0.98066 0.37387 0.53937 0.0
H25 H 0.05656 0.41335 0.51004 0.0
C26 C 0.02977 0.70296 0.57602 0.0
C27 C 0.98701 0.71746 0.58824 0.0
C28 C 0.98131 0.74034 0.62732 0.0
C29 C 0.01813 0.74857 0.65519 0.0
C30 C 0.0607 0.73335 0.64299 0.0
C31 C 0.06638 0.71095 0.60378 0.0
C32 C 0.03483 0.70075 0.49396 0.0
C33 C 0.07493 0.71146 0.47257 0.0
C34 C 0.07425 0.73205 0.43176 0.0
C35 C 0.03326 0.7423 0.41125 0.0
C36 C -0.00704 0.73099 0.43248 0.0
C37 C -0.00628 0.71058 0.47356 0.0
C38 C 0.02813 0.636 0.53719 0.0
C39 C 0.98459 0.6203 0.53213 0.0
C40 C 0.97725 0.57758 0.53237 0.0
C41 C 0.01318 0.54964 0.5386 0.0
C42 C 0.05661 0.56585 0.54456 0.0
C43 C 0.06392 0.6085 0.54359 0.0
C44 C 0.98902 0.35282 0.58079 0.0
C45 C 0.95295 0.33414 0.60289 0.0
C46 C 0.9592 0.31479 0.64394 0.0
C47 C 0.00195 0.31337 0.66366 0.0
C48 C 0.03826 0.33197 0.64133 0.0
C49 C 0.03181 0.35184 0.60046 0.0
C50 C 0.98917 0.35112 0.49902 0.0
C51 C 0.03087 0.33233 0.49004 0.0
C52 C 0.03748 0.31008 0.45075 0.0
C53 C 0.00272 0.30636 0.4194 0.0
C54 C 0.96137 0.32585 0.42822 0.0
C55 C 0.95475 0.34789 0.46759 0.0
C56 C -0.01002 0.41759 0.53886 0.0
C57 C 0.95757 0.44484 0.55565 0.0
C58 C 0.96519 0.48743 0.55598 0.0
C59 C 0.00542 0.50396 0.53896 0.0
C60 C 0.03809 0.47635 0.52236 0.0
C61 C 0.03069 0.43364 0.52275 0.0
H62 H 0.46176 0.86134 0.34835 0.0
N63 N 0.51791 0.91487 0.38634 0.0
H64 H 0.38962 0.87662 0.3118 0.0
H65 H 0.47429 0.9906 0.38152 0.0
H66 H 0.40364 1.00509 0.34664 0.0
H67 H 0.5286 0.97054 0.31734 0.0
H68 H 0.59643 0.9828 0.276 0.0
H69 H 0.59244 0.86924 0.38642 0.0
H70 H 0.66139 0.88115 0.3436 0.0
H71 H 0.50241 0.88466 0.46726 0.0
H72 H 0.55295 0.99232 0.39932 0.0
H73 H 0.5081 0.92106 0.53781 0.0
H74 H 0.55387 0.03006 0.46745 0.0
H75 H 0.50348 0.03112 0.74041 0.0
H76 H 0.43375 1.02179 0.77995 0.0
H77 H 0.36732 0.10511 0.6887 0.0
H78 H 0.43888 0.11676 0.6509 0.0
H79 H 0.55966 0.14442 0.70014 0.0
H80 H 0.63209 0.14461 0.73904 0.0
H81 H 0.64003 1.01197 0.72576 0.0
H82 H 0.56795 1.01195 0.68749 0.0
H83 H 0.46773 1.00927 0.64619 0.0
H84 H 0.47317 0.96857 0.57982 0.0
H85 H 0.58139 0.04667 0.53303 0.0
N86 N 0.51707 0.0796 0.66607 0.0
H87 H 0.57138 0.0907 0.59711 0.0
C88 C 0.47407 0.92436 0.36795 0.0
C89 C 0.44893 0.89266 0.34841 0.0
C90 C 0.40779 0.90136 0.32781 0.0
C91 C 0.39145 0.94209 0.32621 0.0
C92 C 0.41575 0.97349 0.34699 0.0
C93 C 0.45644 0.9649 0.36749 0.0
C94 C 0.55493 0.91854 0.35536 0.0
C95 C 0.55662 0.94997 0.32298 0.0
C96 C 0.59585 0.95707 0.29901 0.0
C97 C 0.63446 0.93302 0.30652 0.0
C98 C 0.63235 0.90054 0.33744 0.0
C99 C 0.5929 0.89339 0.36152 0.0
C100 C 0.52649 0.93563 0.42785 0.0
C101 C 0.51469 0.9161 0.4676 0.0
C102 C 0.51734 0.93734 0.5078 0.0
C103 C 0.53055 0.97915 0.50881 0.0
C104 C 0.54425 0.99791 0.46891 0.0
C105 C 0.54328 0.97621 0.42926 0.0
C106 C 0.47689 0.07549 0.69279 0.0
C107 C 0.47447 0.0483 0.72925 0.0
C108 C 0.43397 0.04231 0.75157 0.0
C109 C 0.39448 0.06225 0.73735 0.0
C110 C 0.39702 0.08962 0.70111 0.0
C111 C 0.43787 0.0963 0.67934 0.0
C112 C 0.55853 0.07842 0.69084 0.0
C113 C 0.57706 0.11549 0.7059 0.0
C114 C 0.6183 0.11552 0.7279 0.0
C115 C 0.64179 0.07834 0.73481 0.0
C116 C 0.62305 0.04114 0.72002 0.0
C117 C 0.58174 0.04109 0.69847 0.0
C118 C 0.51864 0.05414 0.62661 0.0
C119 C 0.492 1.01853 0.6214 0.0
C120 C 0.49587 0.99435 0.58337 0.0
C121 C 0.52775 1.00391 0.55038 0.0
C122 C 0.55533 0.0387 0.55654 0.0
C123 C 0.54998 0.06393 0.59351 0.0
H124 H 0.46859 0.34524 0.14708 0.0
N125 N 0.51704 0.38059 0.0833 0.0
H126 H 0.39862 0.30591 0.13927 0.0
H127 H 0.47088 0.36615 1.00586 0.0
H128 H 0.40174 0.32704 0.99793 0.0
H129 H 0.5367 0.32292 1.0186 0.0
H130 H 0.60635 0.28533 1.00977 0.0
H131 H 0.59202 0.38857 0.12994 0.0
H132 H 0.66376 0.35351 0.11901 0.0
H133 H 0.50721 0.4462 0.13495 0.0
H134 H 0.52986 0.41049 0.99938 0.0
H135 H 0.50983 0.51884 0.11355 0.0
H136 H 0.52773 0.48251 0.9765 0.0
H137 H 0.49615 0.73664 0.04893 0.0
H138 H 0.42598 0.77341 0.05679 0.0
H139 H 0.37006 0.703 0.94848 0.0
H140 H 0.44239 0.66846 0.93855 0.0
H141 H 0.56546 0.71696 0.9251 0.0
H142 H 0.63523 0.75577 0.9361 0.0
H143 H 0.63012 0.72793 0.07611 0.0
H144 H 0.56075 0.68864 0.06467 0.0
H145 H 0.47481 0.64501 0.05936 0.0
H146 H 0.47372 0.57291 0.08152 0.0
H147 H 0.56455 0.54352 0.9737 0.0
N148 N 0.51692 0.67762 0.98598 0.0
H149 H 0.56161 0.61524 0.94939 0.0
C150 C 0.47535 0.35852 0.07728 0.0
C151 C 0.45397 0.3415 0.1145 0.0
C152 C 0.41397 0.31928 0.11 0.0
C153 C 0.39483 0.3133 0.06794 0.0
C154 C 0.41594 0.33081 0.0307 0.0
C155 C 0.45555 0.35344 0.03531 0.0
C156 C 0.55848 0.35822 0.07581 0.0
C157 C 0.56379 0.32958 0.04117 0.0
C158 C 0.60438 0.30832 0.03567 0.0
C159 C 0.64128 0.31601 0.06367 0.0
C160 C 0.63612 0.34568 0.09739 0.0
C161 C 0.59516 0.36613 0.10354 0.0
C162 C 0.51724 0.42301 0.06878 0.0
C163 C 0.51174 0.4542 0.10034 0.0
C164 C 0.51284 0.49578 0.08782 0.0
C165 C 0.51852 0.50717 0.04302 0.0
C166 C 0.52395 0.47549 1.01139 0.0
C167 C 0.52416 0.43396 1.02423 0.0
C168 C 0.47522 0.70009 0.99226 0.0
C169 C 0.46932 0.72932 0.02628 0.0
C170 C 0.42842 0.75008 0.03128 0.0
C171 C 0.39175 0.7414 1.00338 0.0
C172 C 0.39752 0.71142 0.97007 0.0
C173 C 0.43882 0.69134 0.96445 0.0
C174 C 0.55783 0.70027 0.99394 0.0
C175 C 0.57954 0.71922 0.95808 0.0
C176 C 0.61941 0.7411 0.9644 0.0
C177 C 0.63806 0.74484 1.00697 0.0
C178 C 0.61631 0.72577 0.04301 0.0
C179 C 0.57679 0.70331 0.03651 0.0
C180 C 0.51756 0.63547 1.00189 0.0
C181 C 0.49398 0.62298 0.04009 0.0
C182 C 0.49396 0.5815 0.05316 0.0
C183 C 0.51881 0.55168 0.02939 0.0
C184 C 0.54378 0.56486 0.99223 0.0
C185 C 0.54265 0.60606 0.97846 0.0
C186 C 0.02162 0.13238 0.93261 0.0
C187 C 0.02028 0.12398 0.14971 0.0
C188 C 0.01031 0.93265 0.9237 0.0
C189 C 0.01858 0.92431 0.14085 0.0
C190 C 0.12291 0.92564 0.03244 0.0
C191 C 0.12924 0.12494 0.0389 0.0
C192 C 0.90412 0.93205 0.0347 0.0
C193 C 0.91069 0.13136 0.04146 0.0
C194 C 0.90888 1.02345 0.14407 0.0
C195 C 0.12672 1.01977 0.14115 0.0
C196 C 0.90683 0.04052 0.93203 0.0
C197 C 0.12376 0.02753 0.92788 0.0
Eu198 Eu 0.01923 0.10784 0.04034 0.0
O199 O 0.05797 0.06292 0.07711 0.0
O200 O 0.97846 0.06827 0.99957 0.0
Eu201 Eu 0.10041 0.026 0.03506 0.0
Eu202 Eu 0.93327 0.03099 0.03771 0.0
O203 O 0.05648 0.06592 0.99838 0.0
O204 O 0.97869 0.06545 0.07855 0.0
Eu205 Eu 0.01559 0.03163 0.95272 0.0
Eu206 Eu 0.01764 0.02508 0.12033 0.0
O207 O 0.05451 0.99136 0.99476 0.0
O208 O 0.05492 0.98883 0.07318 0.0
O209 O 0.97692 0.99081 0.07461 0.0
O210 O 0.97547 0.99362 0.99596 0.0
Eu211 Eu 0.0142 0.94877 0.033 0.0
O212 O 0.01983 0.14448 0.97508 0.0
O213 O 0.01985 0.13912 0.10831 0.0
O214 O 0.01218 0.91756 0.96508 0.0
O215 O 0.01569 0.91205 0.09846 0.0
O216 O 0.13676 0.96462 0.03586 0.0
O217 O 0.14055 0.0852 0.03495 0.0
O218 O 0.89282 0.97193 0.0367 0.0
O219 O 0.89671 0.09234 0.03896 0.0
O220 O 0.95136 1.02043 0.15798 0.0
O221 O 0.08449 1.01931 0.15613 0.0
O222 O 0.94897 0.03927 0.91684 0.0
O223 O 0.08125 0.03099 0.91448 0.0
O224 O 0.94601 0.91713 0.03264 0.0
O225 O 0.08024 0.91321 0.02939 0.0
O226 O 0.95343 0.14374 0.04326 0.0
O227 O 0.08735 0.13964 0.04231 0.0
O228 O 0.01976 0.08396 0.16052 0.0
O229 O 0.01942 0.96337 0.15464 0.0
O230 O 0.02103 0.09341 0.91839 0.0
O231 O 0.01062 0.97266 0.91277 0.0
O232 O 0.13748 0.02454 0.96978 0.0
O233 O 0.13915 1.0233 0.09889 0.0
O234 O 0.89455 0.03661 0.97426 0.0
O235 O 0.89602 0.02916 0.1023 0.0
H236 H 0.04538 0.23159 0.41089 0.0
H237 H -0.00251 0.20681 0.15042 0.0
H238 H 0.97425 0.32349 0.33433 0.0
H239 H 0.0449 0.10852 0.23541 0.0
H240 H -0.00415 0.25307 0.21489 0.0
H241 H 0.05298 0.18942 0.34433 0.0
C242 C 0.03171 0.24314 0.38 0.0
C243 C 0.00904 0.28121 0.3784 0.0
C244 C 0.00671 0.22138 0.21927 0.0
C245 C 0.01725 0.23262 0.30172 0.0
C246 C 0.00785 0.195 0.18245 0.0
C247 C 0.02109 0.15355 0.1874 0.0
C248 C 0.01936 0.20633 0.26124 0.0
C249 C 0.03398 0.14002 0.22987 0.0
C250 C 0.03578 0.21886 0.34198 0.0
C251 C -0.00852 0.29414 0.33734 0.0
N252 N 0.03279 0.16625 0.26494 0.0
N253 N -0.00406 0.26993 0.30068 0.0
H254 H 0.6457 0.95717 0.22038 0.0
H255 H 0.91064 0.98082 0.22339 0.0
H256 H 0.72028 0.9335 0.34048 0.0
H257 H 0.82244 0.04916 0.13632 0.0
H258 H 0.84451 0.95788 0.26589 0.0
H259 H 0.71399 0.9827 0.18561 0.0
C260 C 0.67646 0.95733 0.23948 0.0
C261 C 0.67705 0.9437 0.28363 0.0
C262 C 0.83998 0.97836 0.2378 0.0
C263 C 0.75568 0.97266 0.24377 0.0
C264 C 0.87761 0.99172 0.21381 0.0
C265 C 0.87195 1.01647 0.17591 0.0
C266 C 0.79682 0.98962 0.22329 0.0
C267 C 0.8284 0.02948 0.16479 0.0
C268 C 0.71546 0.97197 0.21962 0.0
C269 C 0.71832 0.94355 0.30629 0.0
N270 N 0.79257 1.01546 0.18796 0.0
N271 N 0.75612 0.95796 0.28611 0.0
H272 H 0.08529 0.80854 0.38921 0.0
H273 H 0.98735 0.84335 0.14424 0.0
H274 H 0.9802 0.73125 0.33705 0.0
H275 H 0.05929 0.9344 0.22015 0.0
H276 H -0.00824 0.7959 0.20851 0.0
H277 H 0.08414 0.84883 0.32101 0.0
C278 C 0.0622 0.79976 0.36321 0.0
C279 C 0.03285 0.76636 0.36899 0.0
C280 C 0.00667 0.82628 0.21073 0.0
C281 C 0.031 0.81294 0.29036 0.0
C282 C 0.00441 0.8532 0.17406 0.0
C283 C 0.02281 0.89303 0.1768 0.0
C284 C 0.02821 0.83919 0.24983 0.0
C285 C 0.04433 0.90423 0.21638 0.0
C286 C 0.06133 0.823 0.32427 0.0
C287 C 0.00313 0.75699 0.33418 0.0
N288 N 0.04645 0.8776 0.25102 0.0
N289 N 0.00298 0.78013 0.29628 0.0
H290 H 0.30811 0.90558 0.32837 0.0
H291 H 0.21237 0.04761 0.13421 0.0
H292 H 0.38293 1.00377 0.26592 0.0
H293 H 0.1251 0.97715 0.21992 0.0
H294 H 0.2758 0.02926 0.18101 0.0
H295 H 0.24105 0.9274 0.28667 0.0
C296 C 0.31037 0.93156 0.30579 0.0
C297 C 0.35086 0.95309 0.30063 0.0
C298 C 0.24276 1.01803 0.18993 0.0
C299 C 0.27498 0.97811 0.25333 0.0
C300 C 0.20651 0.02853 0.1632 0.0
C301 C 0.16348 1.01363 0.1731 0.0
C302 C 0.23618 0.99192 0.22656 0.0
C303 C 0.15776 0.98927 0.21123 0.0
C304 C 0.27217 0.9442 0.28239 0.0
C305 C 0.35217 0.98666 0.27122 0.0
N306 N 0.1939 0.97867 0.2364 0.0
N307 N 0.31487 0.99803 0.24863 0.0
H308 H 0.96967 0.82003 0.66626 0.0
H309 H 0.03442 0.85028 0.92234 0.0
H310 H 0.05438 0.73462 0.73775 0.0
H311 H 0.98081 0.94725 0.83924 0.0
H312 H 0.03334 0.80356 0.85834 0.0
H313 H 0.96442 0.86287 0.7328 0.0
C314 C 0.9868 0.81005 0.69608 0.0
C315 C 0.01266 0.77372 0.69626 0.0
C316 C 0.02172 0.83505 0.85426 0.0
C317 C 0.00698 0.82284 0.77273 0.0
C318 C 0.02213 0.8617 0.89083 0.0
C319 C 0.00796 0.90292 0.88623 0.0
C320 C 0.00648 0.84954 0.81292 0.0
C321 C -0.00747 0.91593 0.84441 0.0
C322 C 0.98406 0.83468 0.73401 0.0
C323 C 0.03453 0.76264 0.73587 0.0
N324 N -0.00783 0.88941 0.80955 0.0
N325 N 0.0312 0.78705 0.77246 0.0
H326 H 0.36506 0.98945 0.77434 0.0
H327 H 0.12529 0.07158 0.85046 0.0
H328 H 0.32385 0.11595 0.75199 0.0
H329 H 0.20297 0.98555 0.92857 0.0
H330 H 0.18889 0.07804 0.79879 0.0
H331 H 0.29622 0.97801 0.81649 0.0
C332 C 0.34179 1.01493 0.7783 0.0
C333 C 0.35099 0.05406 0.76015 0.0
C334 C 0.19163 0.0575 0.82707 0.0
C335 C 0.27126 0.04036 0.80695 0.0
C336 C 0.15544 0.05363 0.8563 0.0
C337 C 0.15923 0.02828 0.89388 0.0
C338 C 0.23116 0.03502 0.83506 0.0
C339 C 0.199 1.00574 0.90016 0.0
C340 C 0.30233 1.00814 0.80204 0.0
C341 C 0.31836 0.08524 0.76507 0.0
N342 N 0.23346 1.00956 0.87096 0.0
N343 N 0.27993 0.07773 0.7881 0.0
H344 H 0.94975 0.31788 0.73881 0.0
H345 H 0.06842 0.12694 0.85571 0.0
H346 H 0.06898 0.25933 0.68684 0.0
H347 H 0.98137 0.20929 0.92827 0.0
H348 H 0.06758 0.17469 0.79316 0.0
H349 H 0.95862 0.27824 0.80771 0.0
C350 C 0.97788 0.29679 0.74195 0.0
C351 C 0.00854 0.29175 0.70685 0.0
C352 C 0.04899 0.18269 0.82284 0.0
C353 C 0.01877 0.24624 0.78556 0.0
C354 C 0.04939 0.15536 0.85859 0.0
C355 C 0.02482 0.16409 0.89722 0.0
C356 C 0.02305 0.21887 0.8251 0.0
C357 C 0.00093 0.20149 0.89916 0.0
C358 C 0.98306 0.27441 0.78139 0.0
C359 C 0.04466 0.26438 0.71302 0.0
N360 N 8e-05 0.22729 0.8633 0.0
N361 N 0.04846 0.24237 0.75132 0.0
H362 H 0.71941 0.03726 0.71339 0.0
H363 H 0.8233 0.06924 0.95124 0.0
H364 H 0.66138 0.11778 0.81198 0.0
H365 H 0.90638 0.03093 0.84106 0.0
H366 H 0.76227 0.08317 0.90041 0.0
H367 H 0.78741 0.03129 0.75885 0.0
C368 C 0.7212 0.05391 0.74444 0.0
C369 C 0.68473 0.07782 0.75922 0.0
C370 C 0.79389 0.07198 0.88718 0.0
C371 C 0.7618 0.07096 0.8111 0.0
C372 C 0.82881 0.06373 0.91626 0.0
C373 C 0.87011 0.04877 0.90041 0.0
C374 C 0.79974 0.06459 0.84181 0.0
C375 C 0.87509 0.04247 0.85464 0.0
C376 C 0.75998 0.05067 0.77014 0.0
C377 C 0.6888 0.09917 0.79932 0.0
N378 N 0.84003 0.05003 0.82682 0.0
N379 N 0.72644 0.09483 0.82413 0.0
H380 H 0.31667 0.31594 0.11647 0.0
H381 H 0.21319 0.11553 1.00387 0.0
H382 H 0.37994 0.25231 1.0074 0.0
H383 H 0.13127 0.202 0.07707 0.0
H384 H 0.2765 0.16285 1.0095 0.0
H385 H 0.25019 0.272 0.10755 0.0
C386 C 0.31654 0.29272 0.09069 0.0
C387 C 0.35384 0.28775 0.06261 0.0
C388 C 0.24464 0.17163 1.02414 0.0
C389 C 0.27822 0.23742 0.05237 0.0
C390 C 0.20847 0.14455 1.02109 0.0
C391 C 0.16684 0.15477 0.04013 0.0
C392 C 0.23954 0.20904 0.04701 0.0
C393 C 0.16269 0.19298 0.06173 0.0
C394 C 0.27856 0.26788 0.08544 0.0
C395 C 0.35179 0.25744 0.02951 0.0
N396 N 0.19875 0.2186 0.06498 0.0
N397 N 0.31481 0.23325 0.02553 0.0
H398 H 0.3299 0.76309 0.93897 0.0
H399 H 0.19746 0.92268 0.08391 0.0
H400 H 0.35312 0.77168 0.08013 0.0
H401 H 0.12974 0.85749 0.97914 0.0
H402 H 0.25998 0.87352 0.07884 0.0
H403 H 0.26065 0.80274 0.94847 0.0
C404 C 0.32048 0.77272 0.97204 0.0
C405 C 0.34813 0.76399 1.00873 0.0
C406 C 0.23124 0.86975 0.05727 0.0
C407 C 0.2693 0.81068 1.01927 0.0
C408 C 0.19573 0.89778 0.06003 0.0
C409 C 0.15854 0.89394 0.03192 0.0
C410 C 0.23015 0.8384 0.02529 0.0
C411 C 0.15778 0.8612 1.00158 0.0
C412 C 0.28092 0.79557 0.97728 0.0
C413 C 0.334 0.77841 0.05052 0.0
N414 N 0.1935 0.83496 0.99852 0.0
N415 N 0.29599 0.80146 0.05452 0.0
H416 H 0.67921 0.28511 0.98675 0.0
H417 H 0.90469 0.19968 0.09455 0.0
H418 H 0.70301 0.29345 0.12787 0.0
H419 H 0.83604 0.13491 0.99015 0.0
H420 H 0.84112 0.24852 0.09889 0.0
H421 H 0.74705 0.24316 0.97965 0.0
C422 C 0.69833 0.27822 1.01634 0.0
C423 C 0.68447 0.29272 0.05817 0.0
C424 C 0.84033 0.22374 0.07486 0.0
C425 C 0.76351 0.24597 0.04953 0.0
C426 C 0.87653 0.19615 0.07219 0.0
C427 C 0.87523 0.16322 0.04214 0.0
C428 C 0.80344 0.21884 0.0464 0.0
C429 C 0.83797 0.1597 1.01404 0.0
C430 C 0.73735 0.25453 1.01204 0.0
C431 C 0.71216 0.28367 0.0948 0.0
N432 N 0.80361 0.18728 1.01668 0.0
N433 N 0.75033 0.26097 0.08961 0.0
H434 H 0.7165 0.74161 0.95945 0.0
H435 H 0.82046 0.942 0.07031 0.0
H436 H 0.65371 0.80401 0.06958 0.0
H437 H 0.90206 0.85434 0.99842 0.0
H438 H 0.75724 0.89423 0.06641 0.0
H439 H 0.78323 0.78492 0.96898 0.0
C440 C 0.71685 0.76439 0.98568 0.0
C441 C 0.67954 0.76933 1.01372 0.0
C442 C 0.78904 0.88532 0.05172 0.0
C443 C 0.75546 0.81906 0.0246 0.0
C444 C 0.8251 0.91265 0.05372 0.0
C445 C 0.86656 0.90221 0.03445 0.0
C446 C 0.79411 0.84751 0.0296 0.0
C447 C 0.87073 0.86357 1.01381 0.0
C448 C 0.75497 0.7889 0.99125 0.0
C449 C 0.68186 0.79904 0.04743 0.0
N450 N 0.83478 0.83777 1.01149 0.0
N451 N 0.71898 0.82306 0.05165 0.0
loop_
_geom_bond_atom_site_label_1
_geom_bond_atom_site_label_2
_geom_bond_distance
_geom_bond_site_symmetry_2
_ccdc_geom_bond_type
H0 C27 0.929 . S
N1 C26 1.433 . S
N1 C32 1.435 . S
N1 C38 1.423 . S
H2 C28 0.930 1_655 S
H3 C31 0.931 . S
H4 C30 0.929 . S
H5 C33 0.930 . S
H6 C34 0.932 . S
H7 C37 0.929 . S
H8 C36 0.931 . S
H9 C39 0.929 . S
H10 C43 0.932 . S
H11 C40 0.931 . S
H12 C42 0.929 . S
H13 C45 0.929 . S
H14 C46 0.930 1_655 S
H15 C48 0.929 . S
H16 C49 0.931 . S
H17 C51 0.930 . S
H18 C52 0.932 . S
H19 C54 0.931 . S
H20 C55 0.929 . S
H21 C57 0.929 . S
H22 C58 0.931 . S
H23 C60 0.929 . S
N24 C44 1.433 . S
N24 C50 1.435 . S
N24 C56 1.423 . S
H25 C61 0.932 . S
C26 N1 1.433 . S
C26 C27 1.363 1_455 S
C26 C31 1.370 . S
C27 H0 0.929 . S
C27 C26 1.363 1_655 S
C27 C28 1.385 1_655 S
C28 H2 0.930 1_455 S
C28 C27 1.385 1_455 S
C28 C29 1.357 . S
C29 C28 1.357 . S
C29 C30 1.406 . S
C30 H4 0.929 . S
C30 C29 1.406 . S
C30 C31 1.391 . S
C31 H3 0.931 . S
C31 C26 1.370 . S
C31 C30 1.391 . S
C32 N1 1.435 . S
C32 C33 1.358 . S
C32 C37 1.371 1_455 S
C33 H5 0.930 . S
C33 C32 1.358 . S
C33 C34 1.405 . S
C34 H6 0.932 . S
C34 C33 1.405 . S
C34 C35 1.383 . S
C35 C34 1.383 . S
C35 C36 1.393 1_455 S
C36 H8 0.931 . S
C36 C35 1.393 1_655 S
C36 C37 1.382 . S
C37 H7 0.929 . S
C37 C32 1.371 1_655 S
C37 C36 1.382 . S
C38 N1 1.423 . S
C38 C39 1.362 1_455 S
C38 C43 1.388 . S
C39 H9 0.929 . S
C39 C38 1.362 1_655 S
C39 C40 1.376 . S
C40 H11 0.931 . S
C40 C39 1.376 . S
C40 C41 1.396 . S
C41 C40 1.396 . S
C41 C42 1.348 1_655 S
C41 C59 1.472 . S
C42 H12 0.929 . S
C42 C41 1.348 1_455 S
C42 C43 1.443 . S
C43 H10 0.932 . S
C43 C38 1.388 . S
C43 C42 1.443 . S
C44 N24 1.433 . S
C44 C45 1.363 1_455 S
C44 C49 1.370 . S
C45 H13 0.929 . S
C45 C44 1.363 1_655 S
C45 C46 1.385 1_655 S
C46 H14 0.930 1_455 S
C46 C45 1.385 1_455 S
C46 C47 1.357 . S
C47 C46 1.357 . S
C47 C48 1.406 . S
C48 H15 0.929 . S
C48 C47 1.406 . S
C48 C49 1.391 . S
C49 H16 0.931 . S
C49 C44 1.370 . S
C49 C48 1.391 . S
C50 N24 1.435 . S
C50 C51 1.358 . S
C50 C55 1.371 1_455 S
C51 H17 0.930 . S
C51 C50 1.358 . S
C51 C52 1.405 . S
C52 H18 0.932 . S
C52 C51 1.405 . S
C52 C53 1.383 . S
C53 C52 1.383 . S
C53 C54 1.393 1_455 S
C54 H19 0.931 . S
C54 C53 1.393 1_655 S
C54 C55 1.382 . S
C55 H20 0.929 . S
C55 C50 1.371 1_655 S
C55 C54 1.382 . S
C56 N24 1.423 . S
C56 C57 1.362 1_455 S
C56 C61 1.388 . S
C57 H21 0.929 . S
C57 C56 1.362 1_655 S
C57 C58 1.376 . S
C58 H22 0.931 . S
C58 C57 1.376 . S
C58 C59 1.396 . S
C59 C41 1.472 . S
C59 C58 1.396 . S
C59 C60 1.348 1_655 S
C60 H23 0.929 . S
C60 C59 1.348 1_455 S
C60 C61 1.443 . S
C61 H25 0.932 . S
C61 C56 1.388 . S
C61 C60 1.443 . S
H62 C89 0.929 . S
N63 C88 1.433 . S
N63 C94 1.435 . S
N63 C100 1.423 . S
H64 C90 0.930 . S
H65 C93 0.931 . S
H66 C92 0.929 . S
H67 C95 0.930 . S
H68 C96 0.932 . S
H69 C99 0.929 . S
H70 C98 0.931 . S
H71 C101 0.929 . S
H72 C105 0.932 1_545 S
H73 C102 0.931 . S
H74 C104 0.929 1_545 S
H75 C107 0.929 . S
H76 C108 0.930 . S
H77 C110 0.929 . S
H78 C111 0.931 . S
H79 C113 0.930 . S
H80 C114 0.932 . S
H81 C116 0.931 . S
H82 C117 0.929 . S
H83 C119 0.929 . S
H84 C120 0.931 . S
H85 C122 0.929 1_545 S
N86 C106 1.433 . S
N86 C112 1.435 . S
N86 C118 1.423 . S
H87 C123 0.932 1_545 S
C88 N63 1.433 . S
C88 C89 1.363 . S
C88 C93 1.370 1_565 S
C89 H62 0.929 . S
C89 C88 1.363 . S
C89 C90 1.385 . S
C90 H64 0.930 . S
C90 C89 1.385 . S
C90 C91 1.357 . S
C91 C90 1.357 . S
C91 C92 1.406 1_565 S
C92 H66 0.929 . S
C92 C91 1.406 1_545 S
C92 C93 1.391 . S
C93 H65 0.931 . S
C93 C88 1.370 1_545 S
C93 C92 1.391 . S
C94 N63 1.435 . S
C94 C95 1.358 1_565 S
C94 C99 1.371 . S
C95 H67 0.930 . S
C95 C94 1.358 1_545 S
C95 C96 1.405 . S
C96 H68 0.932 . S
C96 C95 1.405 . S
C96 C97 1.383 1_545 S
C97 C96 1.383 1_565 S
C97 C98 1.393 . S
C98 H70 0.931 . S
C98 C97 1.393 . S
C98 C99 1.382 . S
C99 H69 0.929 . S
C99 C94 1.371 . S
C99 C98 1.382 . S
C100 N63 1.423 . S
C100 C101 1.362 . S
C100 C105 1.388 . S
C101 H71 0.929 . S
C101 C100 1.362 . S
C101 C102 1.376 . S
C102 H73 0.931 . S
C102 C101 1.376 . S
C102 C103 1.396 . S
C103 C102 1.396 . S
C103 C104 1.348 . S
C103 C121 1.472 . S
C104 H74 0.929 1_565 S
C104 C103 1.348 . S
C104 C105 1.443 . S
C105 H72 0.932 1_565 S
C105 C100 1.388 . S
C105 C104 1.443 . S
C106 N86 1.433 . S
C106 C107 1.363 . S
C106 C111 1.370 1_565 S
C107 H75 0.929 . S
C107 C106 1.363 . S
C107 C108 1.385 . S
C108 H76 0.930 . S
C108 C107 1.385 . S
C108 C109 1.357 . S
C109 C108 1.357 . S
C109 C110 1.406 1_565 S
C110 H77 0.929 . S
C110 C109 1.406 1_545 S
C110 C111 1.391 . S
C111 H78 0.931 . S
C111 C106 1.370 1_545 S
C111 C110 1.391 . S
C112 N86 1.435 . S
C112 C113 1.358 1_565 S
C112 C117 1.371 . S
C113 H79 0.930 . S
C113 C112 1.358 1_545 S
C113 C114 1.405 . S
C114 H80 0.932 . S
C114 C113 1.405 . S
C114 C115 1.383 1_545 S
C115 C114 1.383 1_565 S
C115 C116 1.393 . S
C116 H81 0.931 . S
C116 C115 1.393 . S
C116 C117 1.382 . S
C117 H82 0.929 . S
C117 C112 1.371 . S
C117 C116 1.382 . S
C118 N86 1.423 . S
C118 C119 1.362 . S
C118 C123 1.388 . S
C119 H83 0.929 . S
C119 C118 1.362 . S
C119 C120 1.376 . S
C120 H84 0.931 . S
C120 C119 1.376 . S
C120 C121 1.396 . S
C121 C103 1.472 . S
C121 C120 1.396 . S
C121 C122 1.348 . S
C122 H85 0.929 1_565 S
C122 C121 1.348 . S
C122 C123 1.443 . S
C123 H87 0.932 1_565 S
C123 C118 1.388 . S
C123 C122 1.443 . S
H124 C151 0.929 . S
N125 C150 1.433 . S
N125 C156 1.435 . S
N125 C162 1.423 . S
H126 C152 0.930 . S
H127 C155 0.931 . S
H128 C154 0.929 . S
H129 C157 0.930 . S
H130 C158 0.932 . S
H131 C161 0.929 . S
H132 C160 0.931 . S
H133 C163 0.929 . S
H134 C167 0.932 1_556 S
H135 C164 0.931 . S
H136 C166 0.929 . S
H137 C169 0.929 . S
H138 C170 0.930 . S
H139 C172 0.929 . S
H140 C173 0.931 . S
H141 C175 0.930 . S
H142 C176 0.932 . S
H143 C178 0.931 . S
H144 C179 0.929 . S
H145 C181 0.929 . S
H146 C182 0.931 . S
H147 C184 0.929 . S
N148 C168 1.433 . S
N148 C174 1.435 . S
N148 C180 1.423 . S
H149 C185 0.932 1_556 S
C150 N125 1.433 . S
C150 C151 1.363 . S
C150 C155 1.370 1_554 S
C151 H124 0.929 . S
C151 C150 1.363 . S
C151 C152 1.385 . S
C152 H126 0.930 . S
C152 C151 1.385 . S
C152 C153 1.357 . S
C153 C152 1.357 . S
C153 C154 1.406 1_554 S
C154 H128 0.929 . S
C154 C153 1.406 1_556 S
C154 C155 1.391 . S
C155 H127 0.931 . S
C155 C150 1.370 1_556 S
C155 C154 1.391 . S
C156 N125 1.435 . S
C156 C157 1.358 1_554 S
C156 C161 1.371 . S
C157 H129 0.930 . S
C157 C156 1.358 1_556 S
C157 C158 1.405 . S
C158 H130 0.932 . S
C158 C157 1.405 . S
C158 C159 1.383 1_556 S
C159 C158 1.383 1_554 S
C159 C160 1.393 . S
C160 H132 0.931 . S
C160 C159 1.393 . S
C160 C161 1.382 . S
C161 H131 0.929 . S
C161 C156 1.371 . S
C161 C160 1.382 . S
C162 N125 1.423 . S
C162 C163 1.362 . S
C162 C167 1.388 . S
C163 H133 0.929 . S
C163 C162 1.362 . S
C163 C164 1.376 . S
C164 H135 0.931 . S
C164 C163 1.376 . S
C164 C165 1.396 . S
C165 C164 1.396 . S
C165 C166 1.348 . S
C165 C183 1.472 . S
C166 H136 0.929 . S
C166 C165 1.348 . S
C166 C167 1.443 . S
C167 H134 0.932 1_554 S
C167 C162 1.388 . S
C167 C166 1.443 . S
C168 N148 1.433 . S
C168 C169 1.363 . S
C168 C173 1.370 1_554 S
C169 H137 0.929 . S
C169 C168 1.363 . S
C169 C170 1.385 . S
C170 H138 0.930 . S
C170 C169 1.385 . S
C170 C171 1.357 . S
C171 C170 1.357 . S
C171 C172 1.406 1_554 S
C172 H139 0.929 . S
C172 C171 1.406 1_556 S
C172 C173 1.391 . S
C173 H140 0.931 . S
C173 C168 1.370 1_556 S
C173 C172 1.391 . S
C174 N148 1.435 . S
C174 C175 1.358 1_554 S
C174 C179 1.371 . S
C175 H141 0.930 . S
C175 C174 1.358 1_556 S
C175 C176 1.405 . S
C176 H142 0.932 . S
C176 C175 1.405 . S
C176 C177 1.383 1_556 S
C177 C176 1.383 1_554 S
C177 C178 1.393 . S
C178 H143 0.931 . S
C178 C177 1.393 . S
C178 C179 1.382 . S
C179 H144 0.929 . S
C179 C174 1.371 . S
C179 C178 1.382 . S
C180 N148 1.423 . S
C180 C181 1.362 . S
C180 C185 1.388 . S
C181 H145 0.929 . S
C181 C180 1.362 . S
C181 C182 1.376 . S
C182 H146 0.931 . S
C182 C181 1.376 . S
C182 C183 1.396 . S
C183 C165 1.472 . S
C183 C182 1.396 . S
C183 C184 1.348 . S
C184 H147 0.929 . S
C184 C183 1.348 . S
C184 C185 1.443 . S
C185 H149 0.932 1_554 S
C185 C180 1.388 . S
C185 C184 1.443 . S
C186 O212 1.283 . S
C186 O230 1.283 . S
C187 O213 1.283 . S
C187 O228 1.283 . S
C188 O214 1.283 . S
C188 O231 1.283 . S
C189 O215 1.283 . S
C189 O229 1.283 . S
C190 O216 1.283 . S
C190 O225 1.283 . S
C191 O217 1.283 . S
C191 O227 1.283 . S
C192 O218 1.283 . S
C192 O224 1.283 . S
C193 O219 1.283 . S
C193 O226 1.283 . S
C194 O220 1.283 . S
C194 O235 1.283 . S
C195 O221 1.283 . S
C195 O233 1.283 . S
C196 O222 1.283 . S
C196 O234 1.283 . S
C197 O223 1.283 . S
C197 O232 1.283 . S
Eu198 O199 2.370 . S
Eu198 O200 2.370 1_454 S
Eu198 O203 2.370 1_554 S
Eu198 O204 2.370 1_455 S
Eu198 O212 2.363 1_554 S
Eu198 O213 2.363 . S
Eu198 O226 2.363 1_455 S
Eu198 O227 2.363 . S
O199 Eu198 2.370 . S
O199 Eu201 2.370 . S
O199 Eu206 2.370 . S
O200 Eu198 2.370 1_656 S
O200 Eu202 2.370 1_556 S
O200 Eu205 2.370 1_655 S
Eu201 O199 2.370 . S
Eu201 O203 2.370 1_554 S
Eu201 O207 2.370 1_544 S
Eu201 O208 2.370 1_545 S
Eu201 O216 2.363 1_545 S
Eu201 O217 2.363 . S
Eu201 O232 2.363 1_554 S
Eu201 O233 2.363 . S
Eu202 O200 2.370 1_554 S
Eu202 O204 2.370 . S
Eu202 O209 2.370 1_545 S
Eu202 O210 2.370 1_544 S
Eu202 O218 2.363 1_545 S
Eu202 O219 2.363 . S
Eu202 O234 2.363 1_554 S
Eu202 O235 2.363 . S
O203 Eu198 2.370 1_556 S
O203 Eu201 2.370 1_556 S
O203 Eu205 2.370 . S
O204 Eu198 2.370 1_655 S
O204 Eu202 2.370 . S
O204 Eu206 2.370 1_655 S
Eu205 O200 2.370 1_455 S
Eu205 O203 2.370 . S
Eu205 O207 2.370 1_545 S
Eu205 O210 2.370 1_445 S
Eu205 O222 2.363 1_455 S
Eu205 O223 2.363 . S
Eu205 O230 2.363 . S
Eu205 O231 2.363 1_545 S
Eu206 O199 2.370 . S
Eu206 O204 2.370 1_455 S
Eu206 O208 2.370 1_545 S
Eu206 O209 2.370 1_445 S
Eu206 O220 2.363 1_455 S
Eu206 O221 2.363 . S
Eu206 O228 2.363 . S
Eu206 O229 2.363 1_545 S
O207 Eu201 2.370 1_566 S
O207 Eu205 2.370 1_565 S
O207 Eu211 2.370 1_556 S
O208 Eu201 2.370 1_565 S
O208 Eu206 2.370 1_565 S
O208 Eu211 2.370 . S
O209 Eu202 2.370 1_565 S
O209 Eu206 2.370 1_665 S
O209 Eu211 2.370 1_655 S
O210 Eu202 2.370 1_566 S
O210 Eu205 2.370 1_665 S
O210 Eu211 2.370 1_656 S
Eu211 O207 2.370 1_554 S
Eu211 O208 2.370 . S
Eu211 O209 2.370 1_455 S
Eu211 O210 2.370 1_454 S
Eu211 O214 2.363 1_554 S
Eu211 O215 2.363 . S
Eu211 O224 2.363 1_455 S
Eu211 O225 2.363 . S
O212 C186 1.283 . S
O212 Eu198 2.363 1_556 S
O213 C187 1.283 . S
O213 Eu198 2.363 . S
O214 C188 1.283 . S
O214 Eu211 2.363 1_556 S
O215 C189 1.283 . S
O215 Eu211 2.363 . S
O216 C190 1.283 . S
O216 Eu201 2.363 1_565 S
O217 C191 1.283 . S
O217 Eu201 2.363 . S
O218 C192 1.283 . S
O218 Eu202 2.363 1_565 S
O219 C193 1.283 . S
O219 Eu202 2.363 . S
O220 C194 1.283 . S
O220 Eu206 2.363 1_655 S
O221 C195 1.283 . S
O221 Eu206 2.363 . S
O222 C196 1.283 . S
O222 Eu205 2.363 1_655 S
O223 C197 1.283 . S
O223 Eu205 2.363 . S
O224 C192 1.283 . S
O224 Eu211 2.363 1_655 S
O225 C190 1.283 . S
O225 Eu211 2.363 . S
O226 C193 1.283 . S
O226 Eu198 2.363 1_655 S
O227 C191 1.283 . S
O227 Eu198 2.363 . S
O228 C187 1.283 . S
O228 Eu206 2.363 . S
O229 C189 1.283 . S
O229 Eu206 2.363 1_565 S
O230 C186 1.283 . S
O230 Eu205 2.363 . S
O231 C188 1.283 . S
O231 Eu205 2.363 1_565 S
O232 C197 1.283 . S
O232 Eu201 2.363 1_556 S
O233 C195 1.283 . S
O233 Eu201 2.363 . S
O234 C196 1.283 . S
O234 Eu202 2.363 1_556 S
O235 C194 1.283 . S
O235 Eu202 2.363 . S
H236 C242 0.930 1_655 S
H237 C246 0.930 . S
H238 C251 0.929 . S
H239 C249 0.929 1_655 S
H240 C244 0.929 . S
H241 C250 0.929 1_655 S
C242 H236 0.930 1_455 S
C242 C243 1.367 . S
C242 C250 1.378 . S
C243 C242 1.367 . S
C243 C251 1.433 . S
C244 H240 0.929 . S
C244 C246 1.378 . S
C244 C248 1.350 . S
C245 C248 1.463 . S
C245 C250 1.350 . S
C245 N253 1.427 . S
C246 H237 0.930 . S
C246 C244 1.378 . S
C246 C247 1.367 . S
C247 C246 1.367 . S
C247 C249 1.433 . S
C248 C244 1.350 . S
C248 C245 1.463 . S
C248 N252 1.427 . S
C249 H239 0.929 1_455 S
C249 C247 1.433 . S
C249 N252 1.384 . S
C250 H241 0.929 1_455 S
C250 C242 1.378 . S
C250 C245 1.350 . S
C251 H238 0.929 . S
C251 C243 1.433 . S
C251 N253 1.384 . S
N252 C248 1.427 . S
N252 C249 1.384 . S
N253 C245 1.427 . S
N253 C251 1.384 . S
H254 C260 0.930 . S
H255 C264 0.930 . S
H256 C269 0.929 . S
H257 C267 0.929 . S
H258 C262 0.929 . S
H259 C268 0.929 . S
C260 H254 0.930 . S
C260 C261 1.372 . S
C260 C268 1.378 . S
C261 C260 1.372 . S
C261 C269 1.428 1_565 S
C262 H258 0.929 . S
C262 C264 1.378 . S
C262 C266 1.362 . S
C263 C266 1.462 1_565 S
C263 C268 1.359 . S
C263 N271 1.419 1_565 S
C264 H255 0.930 . S
C264 C262 1.378 . S
C264 C265 1.375 . S
C265 C264 1.375 . S
C265 C267 1.425 1_545 S
C266 C262 1.362 . S
C266 C263 1.462 1_545 S
C266 N270 1.415 1_545 S
C267 H257 0.929 . S
C267 C265 1.425 1_565 S
C267 N270 1.384 . S
C268 H259 0.929 . S
C268 C260 1.378 . S
C268 C263 1.359 . S
C269 H256 0.929 . S
C269 C261 1.428 1_545 S
C269 N271 1.384 . S
N270 C266 1.415 1_565 S
N270 C267 1.384 . S
N271 C263 1.419 1_545 S
N271 C269 1.384 . S
H272 C278 0.930 . S
H273 C282 0.930 1_655 S
H274 C287 0.929 1_655 S
H275 C285 0.929 . S
H276 C280 0.929 1_655 S
H277 C286 0.929 . S
C278 H272 0.930 . S
C278 C279 1.367 . S
C278 C286 1.378 . S
C279 C278 1.367 . S
C279 C287 1.433 . S
C280 H276 0.929 1_455 S
C280 C282 1.378 . S
C280 C284 1.350 . S
C281 C284 1.463 . S
C281 C286 1.350 . S
C281 N289 1.427 . S
C282 H273 0.930 1_455 S
C282 C280 1.378 . S
C282 C283 1.367 . S
C283 C282 1.367 . S
C283 C285 1.433 . S
C284 C280 1.350 . S
C284 C281 1.463 . S
C284 N288 1.427 . S
C285 H275 0.929 . S
C285 C283 1.433 . S
C285 N288 1.384 . S
C286 H277 0.929 . S
C286 C278 1.378 . S
C286 C281 1.350 . S
C287 H274 0.929 1_455 S
C287 C279 1.433 . S
C287 N289 1.384 . S
N288 C284 1.427 . S
N288 C285 1.384 . S
N289 C281 1.427 . S
N289 C287 1.384 . S
H290 C296 0.930 . S
H291 C300 0.930 . S
H292 C305 0.929 . S
H293 C303 0.929 . S
H294 C298 0.929 . S
H295 C304 0.929 . S
C296 H290 0.930 . S
C296 C297 1.380 . S
C296 C304 1.378 . S
C297 C296 1.380 . S
C297 C305 1.420 1_565 S
C298 H294 0.929 . S
C298 C300 1.378 . S
C298 C302 1.350 . S
C299 C302 1.461 1_565 S
C299 C304 1.371 . S
C299 N307 1.406 1_565 S
C300 H291 0.930 . S
C300 C298 1.378 . S
C300 C301 1.385 . S
C301 C300 1.385 . S
C301 C303 1.415 1_545 S
C302 C298 1.350 . S
C302 C299 1.461 1_545 S
C302 N306 1.427 1_545 S
C303 H293 0.929 . S
C303 C301 1.415 1_565 S
C303 N306 1.384 . S
C304 H295 0.929 . S
C304 C296 1.378 . S
C304 C299 1.371 . S
C305 H292 0.929 . S
C305 C297 1.420 1_545 S
C305 N307 1.384 . S
N306 C302 1.427 1_565 S
N306 C303 1.384 . S
N307 C299 1.406 1_545 S
N307 C305 1.384 . S
H308 C314 0.930 . S
H309 C318 0.930 . S
H310 C323 0.929 . S
H311 C321 0.929 . S
H312 C316 0.929 . S
H313 C322 0.929 . S
C314 H308 0.930 . S
C314 C315 1.367 . S
C314 C322 1.378 . S
C315 C314 1.367 . S
C315 C323 1.433 . S
C316 H312 0.929 . S
C316 C318 1.378 . S
C316 C320 1.350 . S
C317 C320 1.463 . S
C317 C322 1.350 . S
C317 N325 1.427 . S
C318 H309 0.930 . S
C318 C316 1.378 . S
C318 C319 1.367 . S
C319 C318 1.367 . S
C319 C321 1.433 . S
C320 C316 1.350 . S
C320 C317 1.463 . S
C320 N324 1.427 . S
C321 H311 0.929 . S
C321 C319 1.433 . S
C321 N324 1.384 . S
C322 H313 0.929 . S
C322 C314 1.378 . S
C322 C317 1.350 . S
C323 H310 0.929 . S
C323 C315 1.433 . S
C323 N325 1.384 . S
N324 C320 1.427 . S
N324 C321 1.384 . S
N325 C317 1.427 . S
N325 C323 1.384 . S
H326 C332 0.930 . S
H327 C336 0.930 . S
H328 C341 0.929 . S
H329 C339 0.929 . S
H330 C334 0.929 . S
H331 C340 0.929 . S
C332 H326 0.930 . S
C332 C333 1.381 . S
C332 C340 1.378 . S
C333 C332 1.381 . S
C333 C341 1.419 1_565 S
C334 H330 0.929 . S
C334 C336 1.378 . S
C334 C338 1.350 . S
C335 C338 1.461 1_565 S
C335 C340 1.373 . S
C335 N343 1.404 1_565 S
C336 H327 0.930 . S
C336 C334 1.378 . S
C336 C337 1.386 . S
C337 C336 1.386 . S
C337 C339 1.413 1_545 S
C338 C334 1.350 . S
C338 C335 1.461 1_545 S
C338 N342 1.427 1_545 S
C339 H329 0.929 . S
C339 C337 1.413 1_565 S
C339 N342 1.384 . S
C340 H331 0.929 . S
C340 C332 1.378 . S
C340 C335 1.373 . S
C341 H328 0.929 . S
C341 C333 1.419 1_545 S
C341 N343 1.384 . S
N342 C338 1.427 1_565 S
N342 C339 1.384 . S
N343 C335 1.404 1_545 S
N343 C341 1.384 . S
H344 C350 0.930 . S
H345 C354 0.930 . S
H346 C359 0.929 . S
H347 C357 0.929 . S
H348 C352 0.929 . S
H349 C358 0.929 . S
C350 H344 0.930 . S
C350 C351 1.367 1_655 S
C350 C358 1.378 . S
C351 C350 1.367 1_455 S
C351 C359 1.433 . S
C352 H348 0.929 . S
C352 C354 1.378 . S
C352 C356 1.350 . S
C353 C356 1.463 . S
C353 C358 1.350 1_455 S
C353 N361 1.427 . S
C354 H345 0.930 . S
C354 C352 1.378 . S
C354 C355 1.367 . S
C355 C354 1.367 . S
C355 C357 1.433 1_455 S
C356 C352 1.350 . S
C356 C353 1.463 . S
C356 N360 1.427 1_455 S
C357 H347 0.929 . S
C357 C355 1.433 1_655 S
C357 N360 1.384 . S
C358 H349 0.929 . S
C358 C350 1.378 . S
C358 C353 1.350 1_655 S
C359 H346 0.929 . S
C359 C351 1.433 . S
C359 N361 1.384 . S
N360 C356 1.427 1_655 S
N360 C357 1.384 . S
N361 C353 1.427 . S
N361 C359 1.384 . S
H362 C368 0.930 . S
H363 C372 0.930 . S
H364 C377 0.929 . S
H365 C375 0.929 . S
H366 C370 0.929 . S
H367 C376 0.929 . S
C368 H362 0.930 . S
C368 C369 1.369 . S
C368 C376 1.378 . S
C369 C368 1.369 . S
C369 C377 1.431 1_565 S
C370 H366 0.929 . S
C370 C372 1.378 . S
C370 C374 1.357 . S
C371 C374 1.462 1_565 S
C371 C376 1.355 . S
C371 N379 1.423 1_565 S
C372 H363 0.930 . S
C372 C370 1.378 . S
C372 C373 1.372 . S
C373 C372 1.372 . S
C373 C375 1.428 1_545 S
C374 C370 1.357 . S
C374 C371 1.462 1_545 S
C374 N378 1.420 1_545 S
C375 H365 0.929 . S
C375 C373 1.428 1_565 S
C375 N378 1.384 . S
C376 H367 0.929 . S
C376 C368 1.378 . S
C376 C371 1.355 . S
C377 H364 0.929 . S
C377 C369 1.431 1_545 S
C377 N379 1.384 . S
N378 C374 1.420 1_565 S
N378 C375 1.384 . S
N379 C371 1.423 1_545 S
N379 C377 1.384 . S
H380 C386 0.930 . S
H381 C390 0.930 . S
H382 C395 0.929 . S
H383 C393 0.929 . S
H384 C388 0.929 . S
H385 C394 0.929 . S
C386 H380 0.930 . S
C386 C387 1.367 . S
C386 C394 1.378 . S
C387 C386 1.367 . S
C387 C395 1.433 1_554 S
C388 H384 0.929 . S
C388 C390 1.378 . S
C388 C392 1.350 1_556 S
C389 C392 1.463 . S
C389 C394 1.350 . S
C389 N397 1.427 1_554 S
C390 H381 0.930 . S
C390 C388 1.378 . S
C390 C391 1.367 1_556 S
C391 C390 1.367 1_554 S
C391 C393 1.433 . S
C392 C388 1.350 1_554 S
C392 C389 1.463 . S
C392 N396 1.427 . S
C393 H383 0.929 . S
C393 C391 1.433 . S
C393 N396 1.384 . S
C394 H385 0.929 . S
C394 C386 1.378 . S
C394 C389 1.350 . S
C395 H382 0.929 . S
C395 C387 1.433 1_556 S
C395 N397 1.384 . S
N396 C392 1.427 . S
N396 C393 1.384 . S
N397 C389 1.427 1_556 S
N397 C395 1.384 . S
H398 C404 0.930 . S
H399 C408 0.930 . S
H400 C413 0.929 . S
H401 C411 0.929 . S
H402 C406 0.929 . S
H403 C412 0.929 . S
C404 H398 0.930 . S
C404 C405 1.367 1_556 S
C404 C412 1.378 . S
C405 C404 1.367 1_554 S
C405 C413 1.433 . S
C406 H402 0.929 . S
C406 C408 1.378 . S
C406 C410 1.350 . S
C407 C410 1.463 . S
C407 C412 1.350 1_554 S
C407 N415 1.427 . S
C408 H399 0.930 . S
C408 C406 1.378 . S
C408 C409 1.367 . S
C409 C408 1.367 . S
C409 C411 1.433 1_554 S
C410 C406 1.350 . S
C410 C407 1.463 . S
C410 N414 1.427 1_554 S
C411 H401 0.929 . S
C411 C409 1.433 1_556 S
C411 N414 1.384 . S
C412 H403 0.929 . S
C412 C404 1.378 . S
C412 C407 1.350 1_556 S
C413 H400 0.929 . S
C413 C405 1.433 . S
C413 N415 1.384 . S
N414 C410 1.427 1_556 S
N414 C411 1.384 . S
N415 C407 1.427 . S
N415 C413 1.384 . S
H416 C422 0.930 . S
H417 C426 0.930 . S
H418 C431 0.929 . S
H419 C429 0.929 . S
H420 C424 0.929 . S
H421 C430 0.929 . S
C422 H416 0.930 . S
C422 C423 1.367 1_556 S
C422 C430 1.378 . S
C423 C422 1.367 1_554 S
C423 C431 1.433 . S
C424 H420 0.929 . S
C424 C426 1.378 . S
C424 C428 1.350 . S
C425 C428 1.463 . S
C425 C430 1.350 1_554 S
C425 N433 1.427 . S
C426 H417 0.930 . S
C426 C424 1.378 . S
C426 C427 1.367 . S
C427 C426 1.367 . S
C427 C429 1.433 1_554 S
C428 C424 1.350 . S
C428 C425 1.463 . S
C428 N432 1.427 1_554 S
C429 H419 0.929 . S
C429 C427 1.433 1_556 S
C429 N432 1.384 . S
C430 H421 0.929 . S
C430 C422 1.378 . S
C430 C425 1.350 1_556 S
C431 H418 0.929 . S
C431 C423 1.433 . S
C431 N433 1.384 . S
N432 C428 1.427 1_556 S
N432 C429 1.384 . S
N433 C425 1.427 . S
N433 C431 1.384 . S
H434 C440 0.930 . S
H435 C444 0.930 . S
H436 C449 0.929 . S
H437 C447 0.929 . S
H438 C442 0.929 . S
H439 C448 0.929 . S
C440 H434 0.930 . S
C440 C441 1.367 1_556 S
C440 C448 1.378 . S
C441 C440 1.367 1_554 S
C441 C449 1.433 . S
C442 H438 0.929 . S
C442 C444 1.378 . S
C442 C446 1.350 . S
C443 C446 1.463 . S
C443 C448 1.350 1_554 S
C443 N451 1.427 . S
C444 H435 0.930 . S
C444 C442 1.378 . S
C444 C445 1.367 . S
C445 C444 1.367 . S
C445 C447 1.433 1_554 S
C446 C442 1.350 . S
C446 C443 1.463 . S
C446 N450 1.427 1_554 S
C447 H437 0.929 . S
C447 C445 1.433 1_556 S
C447 N450 1.384 . S
C448 H439 0.929 . S
C448 C440 1.378 . S
C448 C443 1.350 1_556 S
C449 H436 0.929 . S
C449 C441 1.433 . S
C449 N451 1.384 . S
N450 C446 1.427 1_556 S
N450 C447 1.384 . S
N451 C443 1.427 . S
N451 C449 1.384 . S
C247 C187 2.033 . S
C243 C53 2.038 . S
C265 C194 1.219 . S
C261 C97 1.223 . S
C283 C189 2.033 . S
C279 C35 2.042 . S
C301 C195 1.318 . S
C297 C91 1.290 . S
C315 C29 2.133 . S
C319 C188 2.187 . S
C337 C197 1.319 . S
C333 C109 1.284 . S
C351 C47 2.137 . S
C355 C186 2.182 . S
C369 C115 1.221 . S
C373 C196 1.211 . S
C387 C153 1.661 . S
C391 C191 1.720 . S
C405 C171 1.665 . S
C409 C190 1.724 . S
C427 C193 1.539 . S
C423 C159 1.540 . S
C445 C192 1.539 . S
C441 C177 1.544 . S
