# Generated by pormake.
# Topology pth, (4,4)-cn, num edge types: 1
# Building blocks:
#     Node 0, Type 0, BuildingBlock: NAHDIM_clean_sbu_0, # of connection points: 4
#     Node 1, Type 0, BuildingBlock: NAHDIM_clean_sbu_0, # of connection points: 4
#     Node 2, Type 0, BuildingBlock: NAHDIM_clean_sbu_0, # of connection points: 4
#     Node 3, Type 1, BuildingBlock: NAWXER_clean_linker_0, # of connection points: 4
#     Node 4, Type 1, BuildingBlock: NAWXER_clean_linker_0, # of connection points: 4
#     Node 5, Type 1, BuildingBlock: NAWXER_clean_linker_0, # of connection points: 4
#     Edge 6, Type (0, 1), BuildingBlock: FUNLAD_clean_linker_1, # of connection points: 2
#     Edge 7, Type (0, 1), BuildingBlock: FUNLAD_clean_linker_1, # of connection points: 2
#     Edge 8, Type (0, 1), BuildingBlock: FUNLAD_clean_linker_1, # of connection points: 2
#     Edge 9, Type (0, 1), BuildingBlock: FUNLAD_clean_linker_1, # of connection points: 2
#     Edge 10, Type (0, 1), BuildingBlock: FUNLAD_clean_linker_1, # of connection points: 2
#     Edge 11, Type (0, 1), BuildingBlock: FUNLAD_clean_linker_1, # of connection points: 2
#     Edge 12, Type (0, 1), BuildingBlock: FUNLAD_clean_linker_1, # of connection points: 2
#     Edge 13, Type (0, 1), BuildingBlock: FUNLAD_clean_linker_1, # of connection points: 2
#     Edge 14, Type (0, 1), BuildingBlock: FUNLAD_clean_linker_1, # of connection points: 2
#     Edge 15, Type (0, 1), BuildingBlock: FUNLAD_clean_linker_1, # of connection points: 2
#     Edge 16, Type (0, 1), BuildingBlock: FUNLAD_clean_linker_1, # of connection points: 2
#     Edge 17, Type (0, 1), BuildingBlock: FUNLAD_clean_linker_1, # of connection points: 2
# Relax obj value: 0.041
# Max RMSD: 0.165
# Mean RMSD: 0.085
data_MOF--net-pth--node1-NAHDIM_clean_sbu_0--node2-NAWXER_clean_linker_0--edge1-FUNLAD_clean_linker_1
_symmetry_space_group_name_H-M    P1
_symmetry_Int_Tables_number       1
_symmetry_cell_setting            triclinic
loop_
_symmetry_equiv_pos_as_xyz
'x, y, z'
_cell_length_a     29.921752
_cell_length_b     30.064728
_cell_length_c     66.642192
_cell_angle_alpha  91.866322
_cell_angle_beta   90.029026
_cell_angle_gamma 120.58065
loop_
_atom_site_label
_atom_site_type_symbol
_atom_site_fract_x
_atom_site_fract_y
_atom_site_fract_z
_atom_type_partial_charge
C0 C 0.05357 0.97851 0.07299 0.0
O1 O 0.06503 0.02069 0.08361 0.0
O2 O 0.03447 0.08122 0.06045 0.0
Zn3 Zn 0.03489 0.02977 0.04043 0.0
O4 O 0.96908 0.99345 0.02358 0.0
C5 C 0.09622 0.10787 0.01403 0.0
O6 O 0.06001 0.11893 0.01828 0.0
O7 O 0.04141 0.9749 0.05451 0.0
C8 C 0.93974 0.01097 0.01912 0.0
O9 O 0.95077 0.05689 0.02602 0.0
C10 C 0.99637 0.07343 0.07122 0.0
O11 O 0.95284 0.02861 0.0699 0.0
O12 O 0.09473 0.06934 0.022 0.0
C13 C 0.0466 0.11815 0.3452 0.0
O14 O 0.01013 0.07099 0.33971 0.0
O15 O 0.04761 0.00525 0.35517 0.0
Zn16 Zn 0.05794 0.06111 0.37535 0.0
O17 O 0.99322 0.0401 0.39114 0.0
C18 C 0.10793 0.03407 0.40397 0.0
O19 O 0.06327 0.9907 0.40174 0.0
O20 O 0.07459 0.12503 0.36065 0.0
C21 C 0.99728 0.06352 0.40784 0.0
O22 O 0.04334 0.09998 0.41447 0.0
C23 C 0.00906 0.95942 0.35488 0.0
O24 O 0.97229 0.94637 0.3681 0.0
O25 O 0.11603 0.0729 0.3941 0.0
C26 C 0.09262 0.01029 0.68258 0.0
O27 O 0.08462 0.04786 0.67794 0.0
O28 O 0.98692 0.02216 0.69413 0.0
Zn29 Zn 0.02853 0.00724 0.71373 0.0
O30 O 0.07834 0.07154 0.72975 0.0
C31 C 0.99537 0.94788 0.74966 0.0
O32 O 0.04443 0.97669 0.75511 0.0
O33 O 0.07125 0.9845 0.69799 0.0
C34 C 0.06699 0.10383 0.7372 0.0
O35 O 0.02012 0.09633 0.73447 0.0
C36 C 0.93854 0.00449 0.69571 0.0
O37 O 0.91384 0.97668 0.71111 0.0
O38 O 0.98041 0.9531 0.73251 0.0
C39 C 0.96358 0.34953 0.23564 0.0
C40 C 0.0035 0.36324 0.24993 0.0
C41 C 0.96068 0.38746 0.2251 0.0
C42 C 0.99824 0.43985 0.22845 0.0
C43 C 0.04111 0.41589 0.2532 0.0
C44 C 0.03813 0.45373 0.24268 0.0
C45 C 0.99582 0.4808 0.21768 0.0
C46 C 0.02359 0.38463 0.17205 0.0
C47 C 0.98156 0.35793 0.15829 0.0
C48 C 0.02786 0.42527 0.18433 0.0
C49 C 0.99033 0.43995 0.18314 0.0
C50 C 0.9451 0.37403 0.15677 0.0
C51 C 0.94955 0.41474 0.169 0.0
C52 C 0.99301 0.48138 0.19654 0.0
C53 C 0.04501 0.70037 0.18552 0.0
C54 C 0.01561 0.69394 0.16812 0.0
C55 C 0.03852 0.65753 0.19556 0.0
C56 C 0.00137 0.6072 0.18873 0.0
C57 C 0.97879 0.64351 0.1611 0.0
C58 C 0.97203 0.60057 0.17128 0.0
C59 C 0.99488 0.56161 0.19924 0.0
C60 C 0.9423 0.64104 0.24286 0.0
C61 C 0.97374 0.66266 0.26019 0.0
C62 C 0.94911 0.6078 0.2298 0.0
C63 C 0.98764 0.59556 0.23381 0.0
C64 C 0.01151 0.64937 0.26445 0.0
C65 C 0.01822 0.61599 0.25139 0.0
C66 C 0.99391 0.55902 0.22039 0.0
H67 H 0.93413 0.30934 0.23279 0.0
H68 H 0.92893 0.3759 0.21447 0.0
H69 H 0.07338 0.42831 0.26361 0.0
H70 H 0.06751 0.49399 0.24546 0.0
H71 H 0.05354 0.37491 0.17343 0.0
H72 H 0.06045 0.44519 0.19479 0.0
H73 H 0.91268 0.35472 0.1462 0.0
H74 H 0.92045 0.42584 0.16772 0.0
H75 H 0.0737 0.73872 0.19121 0.0
H76 H 0.063 0.66384 0.20858 0.0
H77 H 0.95453 0.63696 0.14801 0.0
H78 H 0.94337 0.56215 0.16565 0.0
H79 H 0.91241 0.64998 0.23938 0.0
H80 H 0.9238 0.59114 0.21668 0.0
H81 H 0.03527 0.6637 0.27801 0.0
H82 H 0.04742 0.6062 0.255 0.0
N83 N 0.99566 0.51938 0.22879 0.0
N84 N 0.99313 0.52202 0.1881 0.0
C85 C 0.72626 0.08855 0.52088 0.0
C86 C 0.71875 0.05545 0.50421 0.0
C87 C 0.68387 0.08534 0.53099 0.0
C88 C 0.63304 0.04838 0.52478 0.0
C89 C 0.66761 0.01831 0.49807 0.0
C90 C 0.62527 0.01524 0.50817 0.0
C91 C 0.58772 0.04519 0.53498 0.0
C92 C 0.66799 0.00027 0.58093 0.0
C93 C 0.68261 0.03099 0.59883 0.0
C94 C 0.63561 0.00389 0.56673 0.0
C95 C 0.61787 0.03866 0.57009 0.0
C96 C 0.66416 0.06507 0.60221 0.0
C97 C 0.63223 0.06894 0.588 0.0
C98 C 0.5812 0.04137 0.55598 0.0
C99 C 0.36288 -0.00052 0.56558 0.0
C100 C 0.36973 0.02558 0.58419 0.0
C101 C 0.40572 0.00472 0.55514 0.0
C102 C 0.45632 0.0375 0.56288 0.0
C103 C 0.42037 0.05829 0.59192 0.0
C104 C 0.46314 0.06393 0.5814 0.0
C105 C 0.50229 0.04227 0.55254 0.0
C106 C 0.43149 0.10384 0.51093 0.0
C107 C 0.41139 0.07471 0.49288 0.0
C108 C 0.46368 0.09551 0.52348 0.0
C109 C 0.47617 0.05752 0.51829 0.0
C110 C 0.42571 0.03809 0.48731 0.0
C111 C 0.4579 0.02973 0.49991 0.0
C112 C 0.50979 0.04809 0.53164 0.0
H113 H 0.7651 0.11751 0.52596 0.0
H114 H 0.69083 0.1121 0.54352 0.0
H115 H 0.65971 0.9911 0.48567 0.0
H116 H 0.58631 0.98649 0.50313 0.0
H117 H 0.67997 0.97227 0.5781 0.0
H118 H 0.62347 0.97862 0.55341 0.0
H119 H 0.67442 0.08879 0.61594 0.0
H120 H 0.6185 0.09556 0.59105 0.0
H121 H 0.32424 0.9742 0.5593 0.0
H122 H 0.39918 0.98259 0.54119 0.0
H123 H 0.42722 0.08026 0.60593 0.0
H124 H 0.50173 0.08934 0.58771 0.0
H125 H 0.42185 0.13286 0.51546 0.0
H126 H 0.47882 0.11881 0.53726 0.0
H127 H 0.41275 0.01612 0.47321 0.0
H128 H 0.46805 0.00108 0.4954 0.0
N129 N 0.55178 0.04847 0.52363 0.0
N130 N 0.53865 0.03986 0.56385 0.0
C131 C 0.34721 0.40205 0.84107 0.0
C132 C 0.32078 0.41848 0.82859 0.0
C133 C 0.38983 0.43796 0.85285 0.0
C134 C 0.40633 0.49078 0.85264 0.0
C135 C 0.33744 0.47136 0.82844 0.0
C136 C 0.38018 0.50726 0.84019 0.0
C137 C 0.45154 0.52921 0.86493 0.0
C138 C 0.32724 0.43077 0.90846 0.0
C139 C 0.3416 0.4032 0.92097 0.0
C140 C 0.36417 0.47017 0.89683 0.0
C141 C 0.4162 0.48265 0.89751 0.0
C142 C 0.39398 0.41645 0.92186 0.0
C143 C 0.43084 0.45587 0.91027 0.0
C144 C 0.45629 0.52505 0.88578 0.0
C145 C 0.63918 0.73275 0.90964 0.0
C146 C 0.66145 0.71805 0.92476 0.0
C147 C 0.59984 0.69533 0.89698 0.0
C148 C 0.58251 0.64265 0.899 0.0
C149 C 0.64436 0.6654 0.92659 0.0
C150 C 0.60492 0.62802 0.91398 0.0
C151 C 0.53905 0.60249 0.88641 0.0
C152 C 0.67003 0.68451 0.8442 0.0
C153 C 0.66145 0.71084 0.82897 0.0
C154 C 0.6293 0.65089 0.85621 0.0
C155 C 0.57923 0.64306 0.85338 0.0
C156 C 0.61113 0.7022 0.82594 0.0
C157 C 0.57037 0.66857 0.838 0.0
C158 C 0.53545 0.60532 0.8654 0.0
H159 H 0.33483 0.36154 0.84201 0.0
H160 H 0.40995 0.42443 0.86211 0.0
H161 H 0.31766 0.485 0.81905 0.0
H162 H 0.39249 0.5479 0.83973 0.0
H163 H 0.28735 0.42195 0.90775 0.0
H164 H 0.35221 0.49131 0.88753 0.0
H165 H 0.40707 0.3975 0.93181 0.0
H166 H 0.47096 0.46549 0.91127 0.0
H167 H 0.6521 0.77296 0.9074 0.0
H168 H 0.58247 0.70757 0.8858 0.0
H169 H 0.66101 0.65304 0.93803 0.0
H170 H 0.59196 0.5876 0.9159 0.0
H171 H 0.70759 0.68828 0.84654 0.0
H172 H 0.63674 0.62998 0.8674 0.0
H173 H 0.60326 0.72142 0.81415 0.0
H174 H 0.53189 0.66245 0.83531 0.0
N175 N 0.49143 0.56905 0.85551 0.0
N176 N 0.49971 0.56201 0.89571 0.0
H177 H 0.03993 0.15056 0.08609 0.0
C178 C 0.0018 0.1158 0.08464 0.0
H179 H 0.92348 0.07935 0.09341 0.0
H180 H 0.97086 0.2204 0.17236 0.0
H181 H 0.94046 0.13621 0.18607 0.0
H182 H 0.92354 0.06147 0.16405 0.0
H183 H 0.93642 0.07036 0.12815 0.0
C184 C 0.96169 0.11403 0.09437 0.0
C185 C 0.96931 0.15863 0.10743 0.0
C186 C 0.96194 0.15283 0.12839 0.0
C187 C 0.9726 0.19615 0.14114 0.0
C188 C 0.96415 0.18905 0.162 0.0
C189 C 0.94659 0.14087 0.17008 0.0
C190 C 0.93701 0.09878 0.15768 0.0
C191 C 0.94454 0.10444 0.13708 0.0
H192 H 0.94353 0.29903 0.13361 0.0
C193 C 0.97423 0.31377 0.14504 0.0
H194 H 0.03141 0.30131 0.15818 0.0
H195 H 0.97853 0.18128 0.06755 0.0
H196 H 0.01252 0.2661 0.05392 0.0
H197 H 0.03992 0.34296 0.07632 0.0
H198 H 0.03215 0.33517 0.11238 0.0
C199 C 0.0023 0.2904 0.14641 0.0
C200 C 0.99114 0.24531 0.13291 0.0
C201 C -0.00134 0.25115 0.11191 0.0
C202 C 0.98599 0.20741 0.0991 0.0
C203 C 0.99019 0.21362 0.07807 0.0
C204 C 0.00923 0.26205 0.07002 0.0
C205 C 0.02441 0.30526 0.08262 0.0
C206 C 0.01933 0.30014 0.10332 0.0
H207 H 0.91267 0.02356 0.41232 0.0
C208 C 0.95022 0.05131 0.41907 0.0
H209 H 0.98977 0.10329 0.44357 0.0
H210 H 0.8036 0.13636 0.4659 0.0
H211 H 0.866 0.21997 0.4533 0.0
H212 H 0.94674 0.23413 0.4377 0.0
H213 H 0.96547 0.16474 0.43455 0.0
C214 C 0.95251 0.0744 0.43695 0.0
C215 C 0.90462 0.06578 0.44711 0.0
C216 C 0.8947 0.10708 0.44911 0.0
C217 C 0.84837 0.09907 0.45826 0.0
C218 C 0.83866 0.14054 0.45948 0.0
C219 C 0.87403 0.18871 0.4522 0.0
C220 C 0.91946 0.19667 0.4434 0.0
C221 C 0.92979 0.15646 0.44175 0.0
H222 H 0.80279 0.08441 0.50136 0.0
C223 C 0.76522 0.06109 0.49379 0.0
H224 H 0.72797 0.01832 0.46679 0.0
H225 H 0.91428 0.97986 0.44766 0.0
H226 H 0.85163 0.89621 0.46019 0.0
H227 H 0.77014 0.88175 0.47519 0.0
H228 H 0.75105 0.9511 0.4779 0.0
C229 C 0.76399 0.04133 0.47525 0.0
C230 C 0.81241 0.04994 0.46561 0.0
C231 C 0.82237 0.00872 0.4637 0.0
C232 C 0.86886 0.01677 0.45467 0.0
C233 C 0.87887 0.9755 0.45378 0.0
C234 C 0.84339 0.92735 0.46106 0.0
C235 C 0.79755 0.91923 0.46954 0.0
C236 C 0.78704 0.95934 0.47096 0.0
H237 H 0.97176 0.9095 0.77863 0.0
C238 C 0.9575 0.91262 0.76404 0.0
H239 H 0.89127 0.8914 0.74584 0.0
H240 H 0.79266 0.71057 0.81386 0.0
H241 H 0.84549 0.6789 0.79881 0.0
H242 H 0.90849 0.72761 0.77271 0.0
H243 H 0.91918 0.80838 0.76155 0.0
C244 C 0.90618 0.88683 0.76002 0.0
C245 C 0.86803 0.85675 0.77559 0.0
C246 C 0.86216 0.80948 0.78185 0.0
C247 C 0.8254 0.78109 0.79673 0.0
C248 C 0.82008 0.73381 0.80265 0.0
C249 C 0.85008 0.7151 0.7941 0.0
C250 C 0.88558 0.74255 0.77942 0.0
C251 C 0.89156 0.78906 0.77324 0.0
H252 H 0.69161 0.75265 0.80089 0.0
C253 C 0.70319 0.7453 0.81532 0.0
H254 H 0.76759 0.76288 0.83424 0.0
H255 H 0.86995 0.94622 0.767 0.0
H256 H 0.818 0.97848 0.78238 0.0
H257 H 0.75562 0.93019 0.80872 0.0
H258 H 0.74456 0.84918 0.81973 0.0
C259 C 0.75415 0.7684 0.81994 0.0
C260 C 0.79408 0.79966 0.80507 0.0
C261 C 0.80055 0.84736 0.79904 0.0
C262 C 0.83715 0.87563 0.7841 0.0
C263 C 0.84267 0.92306 0.77826 0.0
C264 C 0.8132 0.94214 0.78701 0.0
C265 C 0.77804 0.91492 0.80182 0.0
C266 C 0.77179 0.86822 0.80789 0.0
H267 H 0.0389 0.89887 0.07321 0.0
C268 C 0.05048 0.93353 0.08254 0.0
H269 H 0.06815 0.96671 0.11198 0.0
H270 H 0.9386 0.75148 0.15281 0.0
H271 H 0.8869 0.79096 0.16021 0.0
H272 H 0.90815 0.87368 0.14562 0.0
H273 H 0.98113 0.91734 0.12352 0.0
C274 C 0.05858 0.93306 0.10233 0.0
C275 C 0.04804 0.88471 0.11193 0.0
C276 C 0.0057 0.86015 0.1251 0.0
C277 C 0.9937 0.81269 0.13366 0.0
C278 C 0.95018 0.78814 0.14624 0.0
C279 C 0.91995 0.81023 0.15052 0.0
C280 C 0.93189 0.85677 0.1423 0.0
C281 C 0.97404 0.8815 0.12966 0.0
H282 H 0.04134 0.77701 0.16685 0.0
C283 C 0.02379 0.74076 0.15804 0.0
H284 H -0.00086 0.70699 0.12876 0.0
H285 H 0.13519 0.92438 0.089 0.0
H286 H 0.18687 0.88483 0.08165 0.0
H287 H 0.16473 0.80144 0.09586 0.0
H288 H 0.09093 0.75728 0.11762 0.0
C289 C 0.01294 0.74127 0.1385 0.0
C290 C 0.02449 0.79025 0.12923 0.0
C291 C 0.06696 0.8149 0.11615 0.0
C292 C 0.07916 0.86251 0.10767 0.0
C293 C 0.12318 0.8874 0.09536 0.0
C294 C 0.15344 0.8653 0.09114 0.0
C295 C 0.14102 0.81839 0.09916 0.0
C296 C 0.09848 0.79341 0.1116 0.0
H297 H 0.13891 0.00075 0.42481 0.0
C298 C 0.14809 0.03593 0.41732 0.0
H299 H 0.2058 0.11325 0.41227 0.0
H300 H 0.2773 0.03721 0.49409 0.0
H301 H 0.20374 0.03555 0.51006 0.0
H302 H 0.14516 0.05475 0.49104 0.0
H303 H 0.15939 0.07485 0.45581 0.0
C304 C 0.19525 0.07824 0.42015 0.0
C305 C 0.2355 0.0762 0.43256 0.0
C306 C 0.22802 0.06692 0.45337 0.0
C307 C 0.26305 0.05805 0.46454 0.0
C308 C 0.25295 0.04593 0.48502 0.0
C309 C 0.21069 0.04462 0.49437 0.0
C310 C 0.17762 0.05525 0.48365 0.0
C311 C 0.18601 0.06635 0.4634 0.0
H312 H 0.37543 0.11954 0.4834 0.0
C313 C 0.3761 0.0841 0.48036 0.0
H314 H 0.34095 0.01357 0.46302 0.0
H315 H 0.26331 0.09689 0.39328 0.0
H316 H 0.33953 0.10317 0.37777 0.0
H317 H 0.40183 0.09059 0.39745 0.0
H318 H 0.38812 0.07134 0.43278 0.0
C319 C 0.34269 0.04992 0.46645 0.0
C320 C 0.30673 0.06069 0.45506 0.0
C321 C 0.3156 0.07247 0.43452 0.0
C322 C 0.27996 0.08027 0.42324 0.0
C323 C 0.28931 0.09104 0.40263 0.0
C324 C 0.33291 0.09473 0.39352 0.0
C325 C 0.36798 0.0876 0.4046 0.0
C326 C 0.3596 0.07653 0.42485 0.0
H327 H 0.14419 0.15144 0.75142 0.0
C328 C 0.10683 0.14865 0.74914 0.0
H329 H 0.06143 0.18264 0.75576 0.0
H330 H 0.19592 0.29515 0.83503 0.0
H331 H 0.11148 0.23653 0.84865 0.0
H332 H 0.03918 0.17351 0.82653 0.0
H333 H 0.05082 0.16874 0.79066 0.0
C334 C 0.09891 0.1854 0.75734 0.0
C335 C 0.14012 0.22821 0.77014 0.0
C336 C 0.13223 0.23108 0.791 0.0
C337 C 0.17388 0.26743 0.80376 0.0
C338 C 0.16549 0.26856 0.82464 0.0
C339 C 0.11724 0.23505 0.83266 0.0
C340 C 0.07654 0.19956 0.82021 0.0
C341 C 0.08376 0.19727 0.79963 0.0
H342 H 0.24813 0.39325 0.81116 0.0
C343 C 0.27538 0.38157 0.81583 0.0
H344 H 0.2961 0.32413 0.81207 0.0
H345 H 0.16518 0.23974 0.73036 0.0
H346 H 0.24921 0.29952 0.71669 0.0
H347 H 0.32233 0.36037 0.73899 0.0
H348 H 0.31167 0.36213 0.77507 0.0
C349 C 0.26791 0.3357 0.809 0.0
C350 C 0.22311 0.3009 0.79558 0.0
C351 C 0.23026 0.29983 0.77461 0.0
C352 C 0.18849 0.26396 0.76182 0.0
C353 C 0.19614 0.26497 0.74083 0.0
C354 C 0.24404 0.29938 0.73277 0.0
C355 C 0.28518 0.3337 0.74532 0.0
C356 C 0.27858 0.33421 0.766 0.0
H357 H 0.93249 0.03483 0.66683 0.0
C358 C 0.91046 0.01307 0.67958 0.0
H359 H 0.83612 0.97014 0.69209 0.0
H360 H 0.81219 0.10837 0.62034 0.0
H361 H 0.87098 0.18414 0.6409 0.0
H362 H 0.91026 0.17578 0.67206 0.0
H363 H 0.89189 0.09177 0.68256 0.0
C364 C 0.85894 0.99359 0.67981 0.0
C365 C 0.83106 0.99865 0.66235 0.0
C366 C 0.84038 0.04792 0.65698 0.0
C367 C 0.81551 0.05246 0.63964 0.0
C368 C 0.82808 0.10242 0.63388 0.0
C369 C 0.86209 0.14631 0.64547 0.0
C370 C 0.88437 0.14162 0.66296 0.0
C371 C 0.87377 0.09313 0.66873 0.0
H372 H 0.71159 0.03929 0.63 0.0
C373 C 0.71478 0.02699 0.61479 0.0
H374 H 0.75396 -0.00078 0.59648 0.0
H375 H 0.80527 0.89859 0.66824 0.0
H376 H 0.74398 0.82261 0.64835 0.0
H377 H 0.69758 0.83013 0.61925 0.0
H378 H 0.71253 0.91374 0.60976 0.0
C379 C 0.74895 0.01125 0.61143 0.0
C380 C 0.77906 0.00745 0.62839 0.0
C381 C 0.76959 0.95823 0.63379 0.0
C382 C 0.79573 0.95383 0.65076 0.0
C383 C 0.78602 0.9042 0.65566 0.0
C384 C 0.75097 0.86022 0.64435 0.0
C385 C 0.72489 0.86445 0.62796 0.0
C386 C 0.73388 0.91274 0.62267 0.0
H387 H 0.87042 0.99698 0.0018 0.0
C388 C 0.89417 0.98055 0.00569 0.0
H389 H 0.90468 0.91632 0.00216 0.0
H390 H 0.67074 0.75965 0.97694 0.0
H391 H 0.66862 0.73927 0.01198 0.0
H392 H 0.74328 0.79349 0.03478 0.0
H393 H 0.82035 0.86867 0.02271 0.0
C394 C 0.88214 0.93385 0.99798 0.0
C395 C 0.8364 0.90312 0.9844 0.0
C396 C 0.79204 0.85895 0.99163 0.0
C397 C 0.74943 0.82719 0.97841 0.0
C398 C 0.70486 0.78423 0.98619 0.0
C399 C 0.70297 0.77231 0.00631 0.0
C400 C 0.74497 0.80287 0.01915 0.0
C401 C 0.78903 0.84582 0.01201 0.0
H402 H 0.7271 0.74431 0.94628 0.0
C403 C 0.70278 0.7562 0.93877 0.0
H404 H 0.68612 0.81664 0.93671 0.0
H405 H 0.91569 0.98525 0.9657 0.0
H406 H 0.91713 0.00635 0.93081 0.0
H407 H 0.84291 0.95145 0.90792 0.0
H408 H 0.76685 0.87495 0.91978 0.0
C409 C 0.70989 0.80324 0.9435 0.0
C410 C 0.75187 0.83908 0.95787 0.0
C411 C 0.7954 0.88433 0.95081 0.0
C412 C 0.83795 0.91626 0.96406 0.0
C413 C 0.88186 0.96012 0.95641 0.0
C414 C 0.8833 0.97258 0.93638 0.0
C415 C 0.84154 0.94165 0.92349 0.0
C416 C 0.79809 0.89788 0.9305 0.0
H417 H 0.04026 0.934 0.33006 0.0
C418 C 0.00786 0.92118 0.34021 0.0
H419 H 0.93793 0.85742 0.34985 0.0
H420 H 0.99326 0.79111 0.2599 0.0
H421 H 0.97496 0.85432 0.24655 0.0
H422 H 0.95339 0.90719 0.26908 0.0
H423 H 0.95099 0.89775 0.30515 0.0
C424 C 0.96969 0.87142 0.33937 0.0
C425 C 0.97323 0.8335 0.32556 0.0
C426 C 0.97198 0.83776 0.30445 0.0
C427 C 0.98198 0.80557 0.29141 0.0
C428 C 0.98382 0.813 0.27048 0.0
C429 C 0.97371 0.84943 0.2626 0.0
C430 C 0.96176 0.87932 0.27529 0.0
C431 C 0.96086 0.87375 0.29597 0.0
H432 H 0.92723 0.69476 0.27288 0.0
C433 C 0.96489 0.69753 0.2737 0.0
H434 H 0.0401 0.7386 0.28717 0.0
H435 H 0.97553 0.81342 0.36525 0.0
H436 H 0.98934 0.74714 0.37854 0.0
H437 H 0.00325 0.68896 0.35586 0.0
H438 H 0.00379 0.69697 0.31974 0.0
C439 C 0.00172 0.73386 0.2861 0.0
C440 C 0.99073 0.76751 0.2995 0.0
C441 C 0.98983 0.76184 0.32055 0.0
C442 C 0.98112 0.79491 0.33361 0.0
C443 C 0.98146 0.78904 0.35461 0.0
C444 C 0.98937 0.75115 0.36245 0.0
C445 C 0.99725 0.71843 0.34968 0.0
C446 C 0.99753 0.72352 0.32898 0.0
H447 H 0.1399 0.97401 0.67666 0.0
C448 C 0.12923 0.00097 0.67104 0.0
H449 H 0.14198 0.05506 0.64908 0.0
H450 H 0.36973 0.11507 0.62922 0.0
H451 H 0.38342 0.19241 0.64726 0.0
H452 H 0.31129 0.19382 0.66458 0.0
H453 H 0.225 0.118 0.66383 0.0
C454 C 0.15144 0.02701 0.65445 0.0
C455 C 0.19474 0.02455 0.64464 0.0
C456 C 0.24514 0.0691 0.64545 0.0
C457 C 0.28688 0.06802 0.63578 0.0
C458 C 0.33667 0.1134 0.63653 0.0
C459 C 0.3451 0.15817 0.64681 0.0
C460 C 0.30449 0.15899 0.65653 0.0
C461 C 0.25506 0.11514 0.65593 0.0
H462 H 0.28982 0.01183 0.5861 0.0
C463 C 0.32371 0.01946 0.59495 0.0
H464 H 0.35515 0.02885 0.62427 0.0
H465 H 0.10214 0.93368 0.63887 0.0
H466 H 0.08917 0.85515 0.622 0.0
H467 H 0.16284 0.85151 0.60718 0.0
H468 H 0.24975 0.92667 0.60884 0.0
C469 C 0.32222 0.02233 0.61508 0.0
C470 C 0.27823 0.02229 0.62542 0.0
C471 C 0.22808 0.97735 0.62497 0.0
C472 C 0.18602 0.97879 0.63426 0.0
C473 C 0.13582 0.93422 0.6327 0.0
C474 C 0.12777 0.88895 0.62296 0.0
C475 C 0.16922 0.88695 0.61456 0.0
C476 C 0.21887 0.93048 0.61551 0.0
H477 H 0.16911 0.13149 0.99786 0.0
C478 C 0.13855 0.14033 0.00049 0.0
H479 H 0.11065 0.19069 0.99467 0.0
H480 H 0.3273 0.38115 0.97392 0.0
H481 H 0.31579 0.40717 0.00743 0.0
H482 H 0.24412 0.34617 0.02842 0.0
H483 H 0.18375 0.2587 0.01605 0.0
C484 C 0.14021 0.18066 0.99165 0.0
C485 C 0.18447 0.21611 0.97916 0.0
C486 C 0.21901 0.26728 0.98654 0.0
C487 C 0.25989 0.30263 0.97436 0.0
C488 C 0.29476 0.35307 0.98233 0.0
C489 C 0.28881 0.36844 0.00161 0.0
C490 C 0.2485 0.33409 0.01343 0.0
C491 C 0.214 0.28402 0.0061 0.0
H492 H 0.26689 0.36477 0.93677 0.0
C493 C 0.3017 0.36304 0.93369 0.0
H494 H 0.33826 0.31912 0.93765 0.0
H495 H 0.12399 0.12123 0.96017 0.0
H496 H 0.13628 0.09505 0.92681 0.0
H497 H 0.20804 0.15613 0.90588 0.0
H498 H 0.26781 0.24394 0.91817 0.0
C499 C 0.30616 0.32471 0.94146 0.0
C500 C 0.26554 0.28692 0.9547 0.0
C501 C 0.23186 0.23541 0.9475 0.0
C502 C 0.19092 0.2 0.95968 0.0
C503 C 0.15647 0.14941 0.95177 0.0
C504 C 0.16291 0.13393 0.93259 0.0
C505 C 0.20328 0.16833 0.92079 0.0
C506 C 0.23736 0.21859 0.92805 0.0
H507 H 0.08033 0.20152 0.34033 0.0
C508 C 0.05326 0.16287 0.33424 0.0
H509 H 0.9976 0.11827 0.31153 0.0
H510 H 0.93834 0.28527 0.29223 0.0
H511 H 0.86051 0.22076 0.30829 0.0
H512 H 0.85819 0.14676 0.32426 0.0
H513 H 0.93372 0.13699 0.32434 0.0
C514 C 0.0257 0.1568 0.3174 0.0
C515 C 0.02777 0.20151 0.30757 0.0
C516 C 0.98295 0.20624 0.30743 0.0
C517 C 0.98408 0.24858 0.29805 0.0
C518 C 0.93929 0.25323 0.2987 0.0
C519 C 0.8944 0.21663 0.30799 0.0
C520 C 0.89311 0.175 0.31699 0.0
C521 C 0.93677 0.16978 0.31685 0.0
H522 H 0.98127 0.2821 0.25481 0.0
C523 C 0.00468 0.32154 0.26089 0.0
H524 H 0.05427 0.3677 0.28524 0.0
H525 H 0.11915 0.20174 0.30356 0.0
H526 H 0.19713 0.2668 0.28775 0.0
H527 H 0.19971 0.34149 0.27228 0.0
H528 H 0.12406 0.35127 0.27239 0.0
C529 C 0.03094 0.3294 0.2783 0.0
C530 C 0.02982 0.28571 0.28857 0.0
C531 C 0.07476 0.2813 0.28885 0.0
C532 C 0.07359 0.23879 0.29814 0.0
C533 C 0.11831 0.23406 0.29733 0.0
C534 C 0.16327 0.27096 0.28815 0.0
C535 C 0.1647 0.31297 0.27942 0.0
C536 C 0.12102 0.31816 0.27963 0.0
loop_
_geom_bond_atom_site_label_1
_geom_bond_atom_site_label_2
_geom_bond_distance
_geom_bond_site_symmetry_2
_ccdc_geom_bond_type
C0 O1 1.160 . S
C0 O7 1.185 . S
O1 C0 1.160 . S
O2 Zn3 1.899 . S
O2 C10 1.288 . S
Zn3 O2 1.899 . S
Zn3 O4 2.032 1_445 S
Zn3 O7 2.086 1_545 S
Zn3 O12 1.977 . S
O4 Zn3 2.032 1_665 S
O4 C8 1.278 . S
C5 O6 1.203 . S
C5 O12 1.267 . S
O6 C5 1.203 . S
O7 C0 1.185 . S
O7 Zn3 2.086 1_565 S
C8 O4 1.278 . S
C8 O9 1.211 1_565 S
O9 C8 1.211 1_545 S
C10 O2 1.288 . S
C10 O11 1.271 1_455 S
O11 C10 1.271 1_655 S
O12 Zn3 1.977 . S
O12 C5 1.267 . S
C13 O14 1.160 . S
C13 O20 1.185 . S
O14 C13 1.160 . S
O15 Zn16 1.899 . S
O15 C23 1.284 1_545 S
Zn16 O15 1.899 . S
Zn16 O17 2.032 1_455 S
Zn16 O20 2.086 . S
Zn16 O25 1.977 . S
O17 Zn16 2.032 1_655 S
O17 C21 1.278 . S
C18 O19 1.203 . S
C18 O25 1.267 . S
O19 C18 1.203 . S
O20 C13 1.185 . S
O20 Zn16 2.086 . S
C21 O17 1.278 . S
C21 O22 1.211 . S
O22 C21 1.211 . S
C23 O15 1.284 1_565 S
C23 O24 1.273 1_455 S
O24 C23 1.273 1_655 S
O25 Zn16 1.977 . S
O25 C18 1.267 . S
C26 O27 1.160 . S
C26 O33 1.185 1_545 S
O27 C26 1.160 . S
O28 Zn29 1.899 1_655 S
O28 C36 1.284 . S
Zn29 O28 1.899 1_455 S
Zn29 O30 2.032 . S
Zn29 O33 2.086 1_545 S
Zn29 O38 1.977 1_445 S
O30 Zn29 2.032 . S
O30 C34 1.278 . S
C31 O32 1.203 . S
C31 O38 1.267 . S
O32 C31 1.203 . S
O33 C26 1.185 1_565 S
O33 Zn29 2.086 1_565 S
C34 O30 1.278 . S
C34 O35 1.211 . S
O35 C34 1.211 . S
C36 O28 1.284 . S
C36 O37 1.273 . S
O37 C36 1.273 . S
O38 Zn29 1.977 1_665 S
O38 C31 1.267 . S
C39 C40 1.384 1_655 S
C39 C41 1.384 . S
C39 H67 0.931 . S
C40 C39 1.384 1_455 S
C40 C43 1.382 . S
C41 C39 1.384 . S
C41 C42 1.381 1_655 S
C41 H68 0.930 . S
C42 C41 1.381 1_455 S
C42 C44 1.381 . S
C42 C45 1.487 . S
C43 C40 1.382 . S
C43 C44 1.387 . S
C43 H69 0.930 . S
C44 C42 1.381 . S
C44 C43 1.387 . S
C44 H70 0.931 . S
C45 C42 1.487 . S
C45 C52 1.399 . S
C45 N83 1.343 . S
C46 C47 1.384 . S
C46 C48 1.384 . S
C46 H71 0.931 . S
C47 C46 1.384 . S
C47 C50 1.382 1_455 S
C48 C46 1.384 . S
C48 C49 1.381 . S
C48 H72 0.930 . S
C49 C48 1.381 . S
C49 C51 1.381 1_455 S
C49 C52 1.487 . S
C50 C47 1.382 1_655 S
C50 C51 1.387 . S
C50 H73 0.930 . S
C51 C49 1.381 1_655 S
C51 C50 1.387 . S
C51 H74 0.931 . S
C52 C45 1.399 . S
C52 C49 1.487 . S
C52 N84 1.343 . S
C53 C54 1.384 . S
C53 C55 1.384 . S
C53 H75 0.931 . S
C54 C53 1.384 . S
C54 C57 1.382 1_455 S
C55 C53 1.384 . S
C55 C56 1.381 . S
C55 H76 0.930 . S
C56 C55 1.381 . S
C56 C58 1.381 1_455 S
C56 C59 1.487 . S
C57 C54 1.382 1_655 S
C57 C58 1.387 . S
C57 H77 0.930 . S
C58 C56 1.381 1_655 S
C58 C57 1.387 . S
C58 H78 0.931 . S
C59 C56 1.487 . S
C59 C66 1.399 . S
C59 N84 1.343 . S
C60 C61 1.384 1_655 S
C60 C62 1.384 . S
C60 H79 0.931 . S
C61 C60 1.384 1_455 S
C61 C64 1.382 . S
C62 C60 1.384 . S
C62 C63 1.381 1_655 S
C62 H80 0.930 . S
C63 C62 1.381 1_455 S
C63 C65 1.381 . S
C63 C66 1.487 . S
C64 C61 1.382 . S
C64 C65 1.387 . S
C64 H81 0.930 . S
C65 C63 1.381 . S
C65 C64 1.387 . S
C65 H82 0.931 . S
C66 C59 1.399 . S
C66 C63 1.487 . S
C66 N83 1.343 . S
H67 C39 0.931 . S
H68 C41 0.930 . S
H69 C43 0.930 . S
H70 C44 0.931 . S
H71 C46 0.931 . S
H72 C48 0.930 . S
H73 C50 0.930 . S
H74 C51 0.931 . S
H75 C53 0.931 . S
H76 C55 0.930 . S
H77 C57 0.930 . S
H78 C58 0.931 . S
H79 C60 0.931 . S
H80 C62 0.930 . S
H81 C64 0.930 . S
H82 C65 0.931 . S
N83 C45 1.343 . S
N83 C66 1.343 . S
N84 C52 1.343 . S
N84 C59 1.343 . S
C85 C86 1.384 . S
C85 C87 1.384 . S
C85 H113 0.931 . S
C86 C85 1.384 . S
C86 C89 1.382 1_545 S
C87 C85 1.384 . S
C87 C88 1.381 . S
C87 H114 0.930 . S
C88 C87 1.381 . S
C88 C90 1.381 1_545 S
C88 C91 1.487 . S
C89 C86 1.382 1_565 S
C89 C90 1.387 . S
C89 H115 0.930 . S
C90 C88 1.381 1_565 S
C90 C89 1.387 . S
C90 H116 0.931 . S
C91 C88 1.487 . S
C91 C98 1.399 . S
C91 N129 1.343 . S
C92 C93 1.384 1_565 S
C92 C94 1.384 . S
C92 H117 0.931 . S
C93 C92 1.384 1_545 S
C93 C96 1.382 . S
C94 C92 1.384 . S
C94 C95 1.381 1_565 S
C94 H118 0.930 . S
C95 C94 1.381 1_545 S
C95 C97 1.381 . S
C95 C98 1.487 . S
C96 C93 1.382 . S
C96 C97 1.387 . S
C96 H119 0.930 . S
C97 C95 1.381 . S
C97 C96 1.387 . S
C97 H120 0.931 . S
C98 C91 1.399 . S
C98 C95 1.487 . S
C98 N130 1.343 . S
C99 C100 1.384 1_565 S
C99 C101 1.384 . S
C99 H121 0.931 . S
C100 C99 1.384 1_545 S
C100 C103 1.382 . S
C101 C99 1.384 . S
C101 C102 1.381 1_565 S
C101 H122 0.930 . S
C102 C101 1.381 1_545 S
C102 C104 1.381 . S
C102 C105 1.487 . S
C103 C100 1.382 . S
C103 C104 1.387 . S
C103 H123 0.930 . S
C104 C102 1.381 . S
C104 C103 1.387 . S
C104 H124 0.931 . S
C105 C102 1.487 . S
C105 C112 1.399 . S
C105 N130 1.343 . S
C106 C107 1.384 . S
C106 C108 1.384 . S
C106 H125 0.931 . S
C107 C106 1.384 . S
C107 C110 1.382 1_545 S
C108 C106 1.384 . S
C108 C109 1.381 . S
C108 H126 0.930 . S
C109 C108 1.381 . S
C109 C111 1.381 1_545 S
C109 C112 1.487 . S
C110 C107 1.382 1_565 S
C110 C111 1.387 . S
C110 H127 0.930 . S
C111 C109 1.381 1_565 S
C111 C110 1.387 . S
C111 H128 0.931 . S
C112 C105 1.399 . S
C112 C109 1.487 . S
C112 N129 1.343 . S
H113 C85 0.931 . S
H114 C87 0.930 . S
H115 C89 0.930 . S
H116 C90 0.931 . S
H117 C92 0.931 . S
H118 C94 0.930 . S
H119 C96 0.930 . S
H120 C97 0.931 . S
H121 C99 0.931 . S
H122 C101 0.930 . S
H123 C103 0.930 . S
H124 C104 0.931 . S
H125 C106 0.931 . S
H126 C108 0.930 . S
H127 C110 0.930 . S
H128 C111 0.931 . S
N129 C91 1.343 . S
N129 C112 1.343 . S
N130 C98 1.343 . S
N130 C105 1.343 . S
C131 C132 1.384 . S
C131 C133 1.384 . S
C131 H159 0.931 . S
C132 C131 1.384 . S
C132 C135 1.382 . S
C133 C131 1.384 . S
C133 C134 1.381 . S
C133 H160 0.930 . S
C134 C133 1.381 . S
C134 C136 1.381 . S
C134 C137 1.487 . S
C135 C132 1.382 . S
C135 C136 1.387 . S
C135 H161 0.930 . S
C136 C134 1.381 . S
C136 C135 1.387 . S
C136 H162 0.931 . S
C137 C134 1.487 . S
C137 C144 1.399 . S
C137 N175 1.343 . S
C138 C139 1.384 . S
C138 C140 1.384 . S
C138 H163 0.931 . S
C139 C138 1.384 . S
C139 C142 1.382 . S
C140 C138 1.384 . S
C140 C141 1.381 . S
C140 H164 0.930 . S
C141 C140 1.381 . S
C141 C143 1.381 . S
C141 C144 1.487 . S
C142 C139 1.382 . S
C142 C143 1.387 . S
C142 H165 0.930 . S
C143 C141 1.381 . S
C143 C142 1.387 . S
C143 H166 0.931 . S
C144 C137 1.399 . S
C144 C141 1.487 . S
C144 N176 1.343 . S
C145 C146 1.384 . S
C145 C147 1.384 . S
C145 H167 0.931 . S
C146 C145 1.384 . S
C146 C149 1.382 . S
C147 C145 1.384 . S
C147 C148 1.381 . S
C147 H168 0.930 . S
C148 C147 1.381 . S
C148 C150 1.381 . S
C148 C151 1.487 . S
C149 C146 1.382 . S
C149 C150 1.387 . S
C149 H169 0.930 . S
C150 C148 1.381 . S
C150 C149 1.387 . S
C150 H170 0.931 . S
C151 C148 1.487 . S
C151 C158 1.399 . S
C151 N176 1.343 . S
C152 C153 1.384 . S
C152 C154 1.384 . S
C152 H171 0.931 . S
C153 C152 1.384 . S
C153 C156 1.382 . S
C154 C152 1.384 . S
C154 C155 1.381 . S
C154 H172 0.930 . S
C155 C154 1.381 . S
C155 C157 1.381 . S
C155 C158 1.487 . S
C156 C153 1.382 . S
C156 C157 1.387 . S
C156 H173 0.930 . S
C157 C155 1.381 . S
C157 C156 1.387 . S
C157 H174 0.931 . S
C158 C151 1.399 . S
C158 C155 1.487 . S
C158 N175 1.343 . S
H159 C131 0.931 . S
H160 C133 0.930 . S
H161 C135 0.930 . S
H162 C136 0.931 . S
H163 C138 0.931 . S
H164 C140 0.930 . S
H165 C142 0.930 . S
H166 C143 0.931 . S
H167 C145 0.931 . S
H168 C147 0.930 . S
H169 C149 0.930 . S
H170 C150 0.931 . S
H171 C152 0.931 . S
H172 C154 0.930 . S
H173 C156 0.930 . S
H174 C157 0.931 . S
N175 C137 1.343 . S
N175 C158 1.343 . S
N176 C144 1.343 . S
N176 C151 1.343 . S
H177 C178 0.951 . S
C178 H177 0.951 . S
C178 C184 1.265 1_455 S
H179 C184 0.950 . S
H180 C188 0.949 . S
H181 C189 0.950 . S
H182 C190 0.951 . S
H183 C191 0.951 . S
C184 C178 1.265 1_655 S
C184 H179 0.950 . S
C184 C185 1.478 . S
C185 C184 1.478 . S
C185 C186 1.397 . S
C185 C202 1.394 1_655 S
C186 C185 1.397 . S
C186 C187 1.438 . S
C186 C191 1.429 . S
C187 C186 1.438 . S
C187 C188 1.428 . S
C187 C200 1.394 1_655 S
C188 H180 0.949 . S
C188 C187 1.428 . S
C188 C189 1.345 . S
C189 H181 0.950 . S
C189 C188 1.345 . S
C189 C190 1.424 . S
C190 H182 0.951 . S
C190 C189 1.424 . S
C190 C191 1.347 . S
C191 H183 0.951 . S
C191 C186 1.429 . S
C191 C190 1.347 . S
H192 C193 0.951 1_655 S
C193 H192 0.951 1_455 S
C193 C199 1.265 . S
H194 C199 0.950 . S
H195 C203 0.949 . S
H196 C204 0.950 . S
H197 C205 0.951 . S
H198 C206 0.951 . S
C199 C193 1.265 . S
C199 H194 0.950 . S
C199 C200 1.478 . S
C200 C187 1.394 1_455 S
C200 C199 1.478 . S
C200 C201 1.397 . S
C201 C200 1.397 . S
C201 C202 1.438 . S
C201 C206 1.429 . S
C202 C185 1.394 1_455 S
C202 C201 1.438 . S
C202 C203 1.428 . S
C203 H195 0.949 . S
C203 C202 1.428 . S
C203 C204 1.345 . S
C204 H196 0.950 . S
C204 C203 1.345 . S
C204 C205 1.424 . S
C205 H197 0.951 . S
C205 C204 1.424 . S
C205 C206 1.347 . S
C206 H198 0.951 . S
C206 C201 1.429 . S
C206 C205 1.347 . S
H207 C208 0.951 . S
C208 H207 0.951 . S
C208 C214 1.265 . S
H209 C214 0.950 . S
H210 C218 0.949 . S
H211 C219 0.950 . S
H212 C220 0.951 . S
H213 C221 0.951 . S
C214 C208 1.265 . S
C214 H209 0.950 . S
C214 C215 1.478 . S
C215 C214 1.478 . S
C215 C216 1.397 . S
C215 C232 1.394 1_545 S
C216 C215 1.397 . S
C216 C217 1.438 . S
C216 C221 1.429 . S
C217 C216 1.438 . S
C217 C218 1.428 . S
C217 C230 1.394 . S
C218 H210 0.949 . S
C218 C217 1.428 . S
C218 C219 1.345 . S
C219 H211 0.950 . S
C219 C218 1.345 . S
C219 C220 1.424 . S
C220 H212 0.951 . S
C220 C219 1.424 . S
C220 C221 1.347 . S
C221 H213 0.951 . S
C221 C216 1.429 . S
C221 C220 1.347 . S
H222 C223 0.951 . S
C223 H222 0.951 . S
C223 C229 1.265 . S
H224 C229 0.950 . S
H225 C233 0.949 . S
H226 C234 0.950 . S
H227 C235 0.951 . S
H228 C236 0.951 . S
C229 C223 1.265 . S
C229 H224 0.950 . S
C229 C230 1.478 . S
C230 C217 1.394 . S
C230 C229 1.478 . S
C230 C231 1.397 1_545 S
C231 C230 1.397 1_565 S
C231 C232 1.438 . S
C231 C236 1.429 . S
C232 C215 1.394 1_565 S
C232 C231 1.438 . S
C232 C233 1.428 . S
C233 H225 0.949 . S
C233 C232 1.428 . S
C233 C234 1.345 . S
C234 H226 0.950 . S
C234 C233 1.345 . S
C234 C235 1.424 . S
C235 H227 0.951 . S
C235 C234 1.424 . S
C235 C236 1.347 . S
C236 H228 0.951 . S
C236 C231 1.429 . S
C236 C235 1.347 . S
H237 C238 0.951 . S
C238 H237 0.951 . S
C238 C244 1.265 . S
H239 C244 0.950 . S
H240 C248 0.949 . S
H241 C249 0.950 . S
H242 C250 0.951 . S
H243 C251 0.951 . S
C244 C238 1.265 . S
C244 H239 0.950 . S
C244 C245 1.478 . S
C245 C244 1.478 . S
C245 C246 1.397 . S
C245 C262 1.394 . S
C246 C245 1.397 . S
C246 C247 1.438 . S
C246 C251 1.429 . S
C247 C246 1.438 . S
C247 C248 1.428 . S
C247 C260 1.394 . S
C248 H240 0.949 . S
C248 C247 1.428 . S
C248 C249 1.345 . S
C249 H241 0.950 . S
C249 C248 1.345 . S
C249 C250 1.424 . S
C250 H242 0.951 . S
C250 C249 1.424 . S
C250 C251 1.347 . S
C251 H243 0.951 . S
C251 C246 1.429 . S
C251 C250 1.347 . S
H252 C253 0.951 . S
C253 H252 0.951 . S
C253 C259 1.265 . S
H254 C259 0.950 . S
H255 C263 0.949 . S
H256 C264 0.950 . S
H257 C265 0.951 . S
H258 C266 0.951 . S
C259 C253 1.265 . S
C259 H254 0.950 . S
C259 C260 1.478 . S
C260 C247 1.394 . S
C260 C259 1.478 . S
C260 C261 1.397 . S
C261 C260 1.397 . S
C261 C262 1.438 . S
C261 C266 1.429 . S
C262 C245 1.394 . S
C262 C261 1.438 . S
C262 C263 1.428 . S
C263 H255 0.949 . S
C263 C262 1.428 . S
C263 C264 1.345 . S
C264 H256 0.950 . S
C264 C263 1.345 . S
C264 C265 1.424 . S
C265 H257 0.951 . S
C265 C264 1.424 . S
C265 C266 1.347 . S
C266 H258 0.951 . S
C266 C261 1.429 . S
C266 C265 1.347 . S
H267 C268 0.951 . S
C268 H267 0.951 . S
C268 C274 1.265 . S
H269 C274 0.950 . S
H270 C278 0.949 . S
H271 C279 0.950 . S
H272 C280 0.951 . S
H273 C281 0.951 . S
C274 C268 1.265 . S
C274 H269 0.950 . S
C274 C275 1.478 . S
C275 C274 1.478 . S
C275 C276 1.397 1_455 S
C275 C292 1.394 . S
C276 C275 1.397 1_655 S
C276 C277 1.438 . S
C276 C281 1.429 . S
C277 C276 1.438 . S
C277 C278 1.428 . S
C277 C290 1.394 1_655 S
C278 H270 0.949 . S
C278 C277 1.428 . S
C278 C279 1.345 . S
C279 H271 0.950 . S
C279 C278 1.345 . S
C279 C280 1.424 . S
C280 H272 0.951 . S
C280 C279 1.424 . S
C280 C281 1.347 . S
C281 H273 0.951 . S
C281 C276 1.429 . S
C281 C280 1.347 . S
H282 C283 0.951 . S
C283 H282 0.951 . S
C283 C289 1.265 . S
H284 C289 0.950 . S
H285 C293 0.949 . S
H286 C294 0.950 . S
H287 C295 0.951 . S
H288 C296 0.951 . S
C289 C283 1.265 . S
C289 H284 0.950 . S
C289 C290 1.478 . S
C290 C277 1.394 1_455 S
C290 C289 1.478 . S
C290 C291 1.397 . S
C291 C290 1.397 . S
C291 C292 1.438 . S
C291 C296 1.429 . S
C292 C275 1.394 . S
C292 C291 1.438 . S
C292 C293 1.428 . S
C293 H285 0.949 . S
C293 C292 1.428 . S
C293 C294 1.345 . S
C294 H286 0.950 . S
C294 C293 1.345 . S
C294 C295 1.424 . S
C295 H287 0.951 . S
C295 C294 1.424 . S
C295 C296 1.347 . S
C296 H288 0.951 . S
C296 C291 1.429 . S
C296 C295 1.347 . S
H297 C298 0.951 . S
C298 H297 0.951 . S
C298 C304 1.265 . S
H299 C304 0.950 . S
H300 C308 0.949 . S
H301 C309 0.950 . S
H302 C310 0.951 . S
H303 C311 0.951 . S
C304 C298 1.265 . S
C304 H299 0.950 . S
C304 C305 1.478 . S
C305 C304 1.478 . S
C305 C306 1.397 . S
C305 C322 1.394 . S
C306 C305 1.397 . S
C306 C307 1.438 . S
C306 C311 1.429 1_545 S
C307 C306 1.438 . S
C307 C308 1.428 1_545 S
C307 C320 1.394 . S
C308 H300 0.949 . S
C308 C307 1.428 1_565 S
C308 C309 1.345 . S
C309 H301 0.950 . S
C309 C308 1.345 . S
C309 C310 1.424 . S
C310 H302 0.951 . S
C310 C309 1.424 . S
C310 C311 1.347 . S
C311 H303 0.951 . S
C311 C306 1.429 1_565 S
C311 C310 1.347 . S
H312 C313 0.951 . S
C313 H312 0.951 . S
C313 C319 1.265 . S
H314 C319 0.950 . S
H315 C323 0.949 . S
H316 C324 0.950 . S
H317 C325 0.951 . S
H318 C326 0.951 . S
C319 C313 1.265 . S
C319 H314 0.950 . S
C319 C320 1.478 . S
C320 C307 1.394 . S
C320 C319 1.478 . S
C320 C321 1.397 . S
C321 C320 1.397 . S
C321 C322 1.438 . S
C321 C326 1.429 . S
C322 C305 1.394 . S
C322 C321 1.438 . S
C322 C323 1.428 . S
C323 H315 0.949 . S
C323 C322 1.428 . S
C323 C324 1.345 . S
C324 H316 0.950 . S
C324 C323 1.345 . S
C324 C325 1.424 . S
C325 H317 0.951 . S
C325 C324 1.424 . S
C325 C326 1.347 . S
C326 H318 0.951 . S
C326 C321 1.429 . S
C326 C325 1.347 . S
H327 C328 0.951 . S
C328 H327 0.951 . S
C328 C334 1.265 . S
H329 C334 0.950 . S
H330 C338 0.949 . S
H331 C339 0.950 . S
H332 C340 0.951 . S
H333 C341 0.951 . S
C334 C328 1.265 . S
C334 H329 0.950 . S
C334 C335 1.478 . S
C335 C334 1.478 . S
C335 C336 1.397 . S
C335 C352 1.394 . S
C336 C335 1.397 . S
C336 C337 1.438 . S
C336 C341 1.429 . S
C337 C336 1.438 . S
C337 C338 1.428 . S
C337 C350 1.394 . S
C338 H330 0.949 . S
C338 C337 1.428 . S
C338 C339 1.345 . S
C339 H331 0.950 . S
C339 C338 1.345 . S
C339 C340 1.424 . S
C340 H332 0.951 . S
C340 C339 1.424 . S
C340 C341 1.347 . S
C341 H333 0.951 . S
C341 C336 1.429 . S
C341 C340 1.347 . S
H342 C343 0.951 . S
C343 H342 0.951 . S
C343 C349 1.265 . S
H344 C349 0.950 . S
H345 C353 0.949 . S
H346 C354 0.950 . S
H347 C355 0.951 . S
H348 C356 0.951 . S
C349 C343 1.265 . S
C349 H344 0.950 . S
C349 C350 1.478 . S
C350 C337 1.394 . S
C350 C349 1.478 . S
C350 C351 1.397 . S
C351 C350 1.397 . S
C351 C352 1.438 . S
C351 C356 1.429 . S
C352 C335 1.394 . S
C352 C351 1.438 . S
C352 C353 1.428 . S
C353 H345 0.949 . S
C353 C352 1.428 . S
C353 C354 1.345 . S
C354 H346 0.950 . S
C354 C353 1.345 . S
C354 C355 1.424 . S
C355 H347 0.951 . S
C355 C354 1.424 . S
C355 C356 1.347 . S
C356 H348 0.951 . S
C356 C351 1.429 . S
C356 C355 1.347 . S
H357 C358 0.951 . S
C358 H357 0.951 . S
C358 C364 1.265 . S
H359 C364 0.950 . S
H360 C368 0.949 . S
H361 C369 0.950 . S
H362 C370 0.951 . S
H363 C371 0.951 . S
C364 C358 1.265 . S
C364 H359 0.950 . S
C364 C365 1.478 . S
C365 C364 1.478 . S
C365 C366 1.397 . S
C365 C382 1.394 1_545 S
C366 C365 1.397 . S
C366 C367 1.438 . S
C366 C371 1.429 . S
C367 C366 1.438 . S
C367 C368 1.428 . S
C367 C380 1.394 . S
C368 H360 0.949 . S
C368 C367 1.428 . S
C368 C369 1.345 . S
C369 H361 0.950 . S
C369 C368 1.345 . S
C369 C370 1.424 . S
C370 H362 0.951 . S
C370 C369 1.424 . S
C370 C371 1.347 . S
C371 H363 0.951 . S
C371 C366 1.429 . S
C371 C370 1.347 . S
H372 C373 0.951 . S
C373 H372 0.951 . S
C373 C379 1.265 . S
H374 C379 0.950 . S
H375 C383 0.949 . S
H376 C384 0.950 . S
H377 C385 0.951 . S
H378 C386 0.951 . S
C379 C373 1.265 . S
C379 H374 0.950 . S
C379 C380 1.478 . S
C380 C367 1.394 . S
C380 C379 1.478 . S
C380 C381 1.397 1_545 S
C381 C380 1.397 1_565 S
C381 C382 1.438 . S
C381 C386 1.429 . S
C382 C365 1.394 1_565 S
C382 C381 1.438 . S
C382 C383 1.428 . S
C383 H375 0.949 . S
C383 C382 1.428 . S
C383 C384 1.345 . S
C384 H376 0.950 . S
C384 C383 1.345 . S
C384 C385 1.424 . S
C385 H377 0.951 . S
C385 C384 1.424 . S
C385 C386 1.347 . S
C386 H378 0.951 . S
C386 C381 1.429 . S
C386 C385 1.347 . S
H387 C388 0.951 . S
C388 H387 0.951 . S
C388 C394 1.262 . S
H389 C394 0.950 1_556 S
H390 C398 0.949 . S
H391 C399 0.950 . S
H392 C400 0.951 . S
H393 C401 0.951 . S
C394 C388 1.262 . S
C394 H389 0.950 1_554 S
C394 C395 1.481 1_554 S
C395 C394 1.481 1_556 S
C395 C396 1.397 . S
C395 C412 1.394 . S
C396 C395 1.397 . S
C396 C397 1.438 . S
C396 C401 1.429 1_556 S
C397 C396 1.438 . S
C397 C398 1.428 . S
C397 C410 1.394 . S
C398 H390 0.949 . S
C398 C397 1.428 . S
C398 C399 1.345 . S
C399 H391 0.950 . S
C399 C398 1.345 . S
C399 C400 1.424 1_556 S
C400 H392 0.951 . S
C400 C399 1.424 1_554 S
C400 C401 1.347 . S
C401 H393 0.951 . S
C401 C396 1.429 1_554 S
C401 C400 1.347 . S
H402 C403 0.951 . S
C403 H402 0.951 . S
C403 C409 1.265 . S
H404 C409 0.950 . S
H405 C413 0.949 . S
H406 C414 0.950 1_545 S
H407 C415 0.951 . S
H408 C416 0.951 . S
C409 C403 1.265 . S
C409 H404 0.950 . S
C409 C410 1.478 . S
C410 C397 1.394 . S
C410 C409 1.478 . S
C410 C411 1.397 . S
C411 C410 1.397 . S
C411 C412 1.438 . S
C411 C416 1.429 . S
C412 C395 1.394 . S
C412 C411 1.438 . S
C412 C413 1.428 . S
C413 H405 0.949 . S
C413 C412 1.428 . S
C413 C414 1.345 . S
C414 H406 0.950 1_565 S
C414 C413 1.345 . S
C414 C415 1.424 . S
C415 H407 0.951 . S
C415 C414 1.424 . S
C415 C416 1.347 . S
C416 H408 0.951 . S
C416 C411 1.429 . S
C416 C415 1.347 . S
H417 C418 0.951 . S
C418 H417 0.951 . S
C418 C424 1.265 1_455 S
H419 C424 0.950 . S
H420 C428 0.949 . S
H421 C429 0.950 . S
H422 C430 0.951 . S
H423 C431 0.951 . S
C424 C418 1.265 1_655 S
C424 H419 0.950 . S
C424 C425 1.478 1_655 S
C425 C424 1.478 1_455 S
C425 C426 1.397 1_455 S
C425 C442 1.394 . S
C426 C425 1.397 1_655 S
C426 C427 1.435 1_655 S
C426 C431 1.429 . S
C427 C426 1.435 1_455 S
C427 C428 1.427 1_455 S
C427 C440 1.397 . S
C428 H420 0.949 . S
C428 C427 1.427 1_655 S
C428 C429 1.345 . S
C429 H421 0.950 . S
C429 C428 1.345 . S
C429 C430 1.424 . S
C430 H422 0.951 . S
C430 C429 1.424 . S
C430 C431 1.347 . S
C431 H423 0.951 . S
C431 C426 1.429 . S
C431 C430 1.347 . S
H432 C433 0.951 1_655 S
C433 H432 0.951 1_455 S
C433 C439 1.265 . S
H434 C439 0.950 . S
H435 C443 0.949 . S
H436 C444 0.950 . S
H437 C445 0.951 . S
H438 C446 0.951 . S
C439 C433 1.265 . S
C439 H434 0.950 . S
C439 C440 1.478 . S
C440 C427 1.397 . S
C440 C439 1.478 . S
C440 C441 1.397 . S
C441 C440 1.397 . S
C441 C442 1.438 . S
C441 C446 1.429 . S
C442 C425 1.394 . S
C442 C441 1.438 . S
C442 C443 1.428 . S
C443 H435 0.949 . S
C443 C442 1.428 . S
C443 C444 1.345 . S
C444 H436 0.950 . S
C444 C443 1.345 . S
C444 C445 1.424 . S
C445 H437 0.951 . S
C445 C444 1.424 . S
C445 C446 1.347 . S
C446 H438 0.951 . S
C446 C441 1.429 . S
C446 C445 1.347 . S
H447 C448 0.951 . S
C448 H447 0.951 . S
C448 C454 1.265 1_565 S
H449 C454 0.950 . S
H450 C458 0.949 . S
H451 C459 0.950 . S
H452 C460 0.951 . S
H453 C461 0.951 . S
C454 C448 1.265 1_545 S
C454 H449 0.950 . S
C454 C455 1.478 . S
C455 C454 1.478 . S
C455 C456 1.397 . S
C455 C472 1.394 1_545 S
C456 C455 1.397 . S
C456 C457 1.438 . S
C456 C461 1.429 . S
C457 C456 1.438 . S
C457 C458 1.428 . S
C457 C470 1.394 . S
C458 H450 0.949 . S
C458 C457 1.428 . S
C458 C459 1.345 . S
C459 H451 0.950 . S
C459 C458 1.345 . S
C459 C460 1.424 . S
C460 H452 0.951 . S
C460 C459 1.424 . S
C460 C461 1.347 . S
C461 H453 0.951 . S
C461 C456 1.429 . S
C461 C460 1.347 . S
H462 C463 0.951 . S
C463 H462 0.951 . S
C463 C469 1.265 . S
H464 C469 0.950 1_565 S
H465 C473 0.949 . S
H466 C474 0.950 . S
H467 C475 0.951 . S
H468 C476 0.951 . S
C469 C463 1.265 . S
C469 H464 0.950 1_545 S
C469 C470 1.478 . S
C470 C457 1.394 . S
C470 C469 1.478 . S
C470 C471 1.397 1_545 S
C471 C470 1.397 1_565 S
C471 C472 1.438 . S
C471 C476 1.429 . S
C472 C455 1.394 1_565 S
C472 C471 1.438 . S
C472 C473 1.428 . S
C473 H465 0.949 . S
C473 C472 1.428 . S
C473 C474 1.345 . S
C474 H466 0.950 . S
C474 C473 1.345 . S
C474 C475 1.424 . S
C475 H467 0.951 . S
C475 C474 1.424 . S
C475 C476 1.347 . S
C476 H468 0.951 . S
C476 C471 1.429 . S
C476 C475 1.347 . S
H477 C478 0.951 . S
C478 H477 0.951 . S
C478 C484 1.272 . S
H479 C484 0.952 . S
H480 C488 0.949 . S
H481 C489 0.950 . S
H482 C490 0.951 . S
H483 C491 0.951 . S
C484 C478 1.272 . S
C484 H479 0.952 . S
C484 C485 1.469 1_554 S
C485 C484 1.469 1_556 S
C485 C486 1.397 . S
C485 C502 1.394 . S
C486 C485 1.397 . S
C486 C487 1.438 . S
C486 C491 1.429 1_556 S
C487 C486 1.438 . S
C487 C488 1.428 . S
C487 C500 1.394 . S
C488 H480 0.949 . S
C488 C487 1.428 . S
C488 C489 1.345 1_556 S
C489 H481 0.950 . S
C489 C488 1.345 1_554 S
C489 C490 1.424 . S
C490 H482 0.951 . S
C490 C489 1.424 . S
C490 C491 1.347 . S
C491 H483 0.951 . S
C491 C486 1.429 1_554 S
C491 C490 1.347 . S
H492 C493 0.951 . S
C493 H492 0.951 . S
C493 C499 1.265 . S
H494 C499 0.950 . S
H495 C503 0.949 . S
H496 C504 0.950 . S
H497 C505 0.951 . S
H498 C506 0.951 . S
C499 C493 1.265 . S
C499 H494 0.950 . S
C499 C500 1.478 . S
C500 C487 1.394 . S
C500 C499 1.478 . S
C500 C501 1.397 . S
C501 C500 1.397 . S
C501 C502 1.438 . S
C501 C506 1.429 . S
C502 C485 1.394 . S
C502 C501 1.438 . S
C502 C503 1.428 . S
C503 H495 0.949 . S
C503 C502 1.428 . S
C503 C504 1.345 . S
C504 H496 0.950 . S
C504 C503 1.345 . S
C504 C505 1.424 . S
C505 H497 0.951 . S
C505 C504 1.424 . S
C505 C506 1.347 . S
C506 H498 0.951 . S
C506 C501 1.429 . S
C506 C505 1.347 . S
H507 C508 0.951 . S
C508 H507 0.951 . S
C508 C514 1.265 . S
H509 C514 0.950 . S
H510 C518 0.949 . S
H511 C519 0.950 . S
H512 C520 0.951 . S
H513 C521 0.951 . S
C514 C508 1.265 . S
C514 H509 0.950 . S
C514 C515 1.478 . S
C515 C514 1.478 . S
C515 C516 1.397 . S
C515 C532 1.394 . S
C516 C515 1.397 . S
C516 C517 1.438 . S
C516 C521 1.429 . S
C517 C516 1.438 . S
C517 C518 1.428 1_455 S
C517 C530 1.394 . S
C518 H510 0.949 . S
C518 C517 1.428 1_655 S
C518 C519 1.345 . S
C519 H511 0.950 . S
C519 C518 1.345 . S
C519 C520 1.424 . S
C520 H512 0.951 . S
C520 C519 1.424 . S
C520 C521 1.347 1_655 S
C521 H513 0.951 . S
C521 C516 1.429 . S
C521 C520 1.347 1_455 S
H522 C523 0.951 . S
C523 H522 0.951 . S
C523 C529 1.265 . S
H524 C529 0.950 1_655 S
H525 C533 0.949 . S
H526 C534 0.950 . S
H527 C535 0.951 . S
H528 C536 0.951 . S
C529 C523 1.265 . S
C529 H524 0.950 1_455 S
C529 C530 1.478 . S
C530 C517 1.394 . S
C530 C529 1.478 . S
C530 C531 1.397 . S
C531 C530 1.397 . S
C531 C532 1.438 . S
C531 C536 1.429 . S
C532 C515 1.394 . S
C532 C531 1.438 . S
C532 C533 1.428 . S
C533 H525 0.949 . S
C533 C532 1.428 . S
C533 C534 1.345 . S
C534 H526 0.950 . S
C534 C533 1.345 . S
C534 C535 1.424 . S
C535 H527 0.951 . S
C535 C534 1.424 . S
C535 C536 1.347 . S
C536 H528 0.951 . S
C536 C531 1.429 . S
C536 C535 1.347 . S
C193 C47 1.387 . S
C178 C10 1.395 . S
C208 C21 1.450 . S
C223 C86 1.441 . S
C238 C31 1.330 . S
C253 C153 1.431 . S
C268 C0 1.400 . S
C283 C54 1.404 . S
C313 C107 1.427 . S
C298 C18 1.357 . S
C328 C34 1.373 . S
C343 C132 1.408 . S
C373 C93 1.378 . S
C358 C36 1.384 . S
C388 C8 1.404 . S
C403 C146 1.398 . S
C433 C61 1.396 . S
C418 C23 1.395 . S
C463 C100 1.350 . S
C448 C26 1.360 1_565 S
C493 C139 1.449 . S
C478 C5 1.422 . S
C508 C13 1.382 . S
C523 C40 1.396 . S
