# Generated by pormake.
# Topology cml, (3,6)-cn, num edge types: 1
# Building blocks:
#     Node 0, Type 0, BuildingBlock: QEWDON_clean_linker_0, # of connection points: 3
#     Node 1, Type 0, BuildingBlock: QEWDON_clean_linker_0, # of connection points: 3
#     Node 2, Type 0, BuildingBlock: QEWDON_clean_linker_0, # of connection points: 3
#     Node 3, Type 0, BuildingBlock: QEWDON_clean_linker_0, # of connection points: 3
#     Node 4, Type 0, BuildingBlock: QEWDON_clean_linker_0, # of connection points: 3
#     Node 5, Type 0, BuildingBlock: QEWDON_clean_linker_0, # of connection points: 3
#     Node 6, Type 0, BuildingBlock: QEWDON_clean_linker_0, # of connection points: 3
#     Node 7, Type 0, BuildingBlock: QEWDON_clean_linker_0, # of connection points: 3
#     Node 8, Type 1, BuildingBlock: OJICUG_clean_sbu_0, # of connection points: 6
#     Node 9, Type 1, BuildingBlock: OJICUG_clean_sbu_0, # of connection points: 6
#     Node 10, Type 1, BuildingBlock: OJICUG_clean_sbu_0, # of connection points: 6
#     Node 11, Type 1, BuildingBlock: OJICUG_clean_sbu_0, # of connection points: 6
#     Edge 12, Type (0, 1), BuildingBlock: OJICUG_clean_linker_0, # of connection points: 2
#     Edge 13, Type (0, 1), BuildingBlock: OJICUG_clean_linker_0, # of connection points: 2
#     Edge 14, Type (0, 1), BuildingBlock: OJICUG_clean_linker_0, # of connection points: 2
#     Edge 15, Type (0, 1), BuildingBlock: OJICUG_clean_linker_0, # of connection points: 2
#     Edge 16, Type (0, 1), BuildingBlock: OJICUG_clean_linker_0, # of connection points: 2
#     Edge 17, Type (0, 1), BuildingBlock: OJICUG_clean_linker_0, # of connection points: 2
#     Edge 18, Type (0, 1), BuildingBlock: OJICUG_clean_linker_0, # of connection points: 2
#     Edge 19, Type (0, 1), BuildingBlock: OJICUG_clean_linker_0, # of connection points: 2
#     Edge 20, Type (0, 1), BuildingBlock: OJICUG_clean_linker_0, # of connection points: 2
#     Edge 21, Type (0, 1), BuildingBlock: OJICUG_clean_linker_0, # of connection points: 2
#     Edge 22, Type (0, 1), BuildingBlock: OJICUG_clean_linker_0, # of connection points: 2
#     Edge 23, Type (0, 1), BuildingBlock: OJICUG_clean_linker_0, # of connection points: 2
#     Edge 24, Type (0, 1), BuildingBlock: OJICUG_clean_linker_0, # of connection points: 2
#     Edge 25, Type (0, 1), BuildingBlock: OJICUG_clean_linker_0, # of connection points: 2
#     Edge 26, Type (0, 1), BuildingBlock: OJICUG_clean_linker_0, # of connection points: 2
#     Edge 27, Type (0, 1), BuildingBlock: OJICUG_clean_linker_0, # of connection points: 2
#     Edge 28, Type (0, 1), BuildingBlock: OJICUG_clean_linker_0, # of connection points: 2
#     Edge 29, Type (0, 1), BuildingBlock: OJICUG_clean_linker_0, # of connection points: 2
#     Edge 30, Type (0, 1), BuildingBlock: OJICUG_clean_linker_0, # of connection points: 2
#     Edge 31, Type (0, 1), BuildingBlock: OJICUG_clean_linker_0, # of connection points: 2
#     Edge 32, Type (0, 1), BuildingBlock: OJICUG_clean_linker_0, # of connection points: 2
#     Edge 33, Type (0, 1), BuildingBlock: OJICUG_clean_linker_0, # of connection points: 2
#     Edge 34, Type (0, 1), BuildingBlock: OJICUG_clean_linker_0, # of connection points: 2
#     Edge 35, Type (0, 1), BuildingBlock: OJICUG_clean_linker_0, # of connection points: 2
# Relax obj value: 0.006
# Max RMSD: 0.103
# Mean RMSD: 0.078
data_MOF--net-cml--node1-OJICUG_clean_sbu_0--node2-QEWDON_clean_linker_0--edge1-OJICUG_clean_linker_0
_symmetry_space_group_name_H-M    P1
_symmetry_Int_Tables_number       1
_symmetry_cell_setting            triclinic
loop_
_symmetry_equiv_pos_as_xyz
'x, y, z'
_cell_length_a     32.072455
_cell_length_b     30.169419
_cell_length_c     26.576931
_cell_angle_alpha  90.005359
_cell_angle_beta   89.973954
_cell_angle_gamma 89.652509
loop_
_atom_site_label
_atom_site_type_symbol
_atom_site_fract_x
_atom_site_fract_y
_atom_site_fract_z
_atom_type_partial_charge
H0 H 0.29296 0.4613 0.95296 0.0
C1 C 0.30414 0.44108 0.98394 0.0
C2 C 0.34617 0.443 -0.00194 0.0
C3 C 0.27591 0.41494 0.01122 0.0
H4 H 0.39241 0.41949 0.05062 0.0
C5 C 0.36007 0.41755 0.03889 0.0
C6 C 0.33222 0.39162 0.06667 0.0
C7 C 0.29003 0.39023 0.05277 0.0
C8 C 0.23117 0.41699 -0.00152 0.0
H9 H 0.26811 0.3715 0.07526 0.0
C10 C 0.20987 0.37899 0.98227 0.0
C11 C 0.16827 0.38236 0.96578 0.0
C12 C 0.21025 0.45799 -0.00019 0.0
H13 H 0.22621 0.48759 0.01225 0.0
C14 C 0.16869 0.46117 0.98488 0.0
H15 H 0.22617 0.34745 0.98034 0.0
C16 C 0.14784 0.42371 0.96763 0.0
H17 H 0.11567 0.42702 0.95571 0.0
H18 H 0.15273 0.49287 0.98611 0.0
H19 H 0.70884 0.54066 0.45276 0.0
C20 C 0.69771 0.56088 0.48378 0.0
C21 C 0.65568 0.559 0.49799 0.0
C22 C 0.72598 0.58698 0.51101 0.0
H23 H 0.60951 0.58254 0.55066 0.0
C24 C 0.64184 0.58445 0.53887 0.0
C25 C 0.66974 0.61035 0.5666 0.0
C26 C 0.71192 0.6117 0.55261 0.0
C27 C 0.77071 0.58493 0.49815 0.0
H28 H 0.73387 0.6304 0.57506 0.0
C29 C 0.79202 0.62296 0.48206 0.0
C30 C 0.8336 0.61961 0.46545 0.0
C31 C 0.79159 0.5439 0.49923 0.0
H32 H 0.77563 0.51428 0.51158 0.0
C33 C 0.83314 0.54074 0.4842 0.0
H34 H 0.77574 0.65452 0.48031 0.0
C35 C 0.854 0.57824 0.46706 0.0
H36 H 0.88616 0.57495 0.45505 0.0
H37 H 0.84908 0.50902 0.48524 0.0
H38 H 0.71032 0.40442 0.9397 0.0
C39 C 0.69808 0.40076 0.97749 0.0
C40 C 0.67399 0.43496 -0.0008 0.0
C41 C 0.70385 0.36045 0.00301 0.0
H42 H 0.63589 0.45332 0.06273 0.0
C43 C 0.65678 0.42844 0.04732 0.0
C44 C 0.66245 0.38836 0.07341 0.0
C45 C 0.68656 0.35472 0.05105 0.0
C46 C 0.72108 0.32145 0.97649 0.0
H47 H 0.69057 0.32316 0.07 0.0
C48 C 0.76406 0.31684 0.96695 0.0
C49 C 0.77943 0.27765 0.94475 0.0
C50 C 0.69379 0.28736 0.96255 0.0
H51 H 0.66062 0.29043 0.96966 0.0
C52 C 0.70902 0.24897 0.93968 0.0
H53 H 0.78539 0.34276 0.97814 0.0
C54 C 0.75165 0.24395 0.9311 0.0
H55 H 0.76308 0.21361 0.914 0.0
H56 H 0.68778 0.22282 0.92912 0.0
H57 H 0.2914 0.59781 0.43984 0.0
C58 C 0.30366 0.60147 0.47761 0.0
C59 C 0.32774 0.56725 0.49928 0.0
C60 C 0.29793 0.64179 0.50314 0.0
H61 H 0.36588 0.54888 0.56272 0.0
C62 C 0.34499 0.57377 0.54736 0.0
C63 C 0.33936 0.61386 0.57346 0.0
C64 C 0.31525 0.64751 0.55115 0.0
C65 C 0.28068 0.6808 0.47667 0.0
H66 H 0.31128 0.67907 0.57011 0.0
C67 C 0.23771 0.68541 0.46711 0.0
C68 C 0.22233 0.72464 0.44503 0.0
C69 C 0.30797 0.71495 0.46285 0.0
H70 H 0.34113 0.71189 0.46998 0.0
C71 C 0.29274 0.75338 0.4401 0.0
H72 H 0.21638 0.65945 0.47822 0.0
C73 C 0.25011 0.75839 0.43152 0.0
H74 H 0.23868 0.78877 0.41452 0.0
H75 H 0.31397 0.77957 0.42963 0.0
H76 H 0.79254 0.96173 0.95313 0.0
C77 C 0.80381 0.94149 0.98405 0.0
C78 C 0.84588 0.94343 -0.00199 0.0
C79 C 0.77568 0.91528 0.01139 0.0
H80 H 0.89227 0.9199 0.05036 0.0
C81 C 0.8599 0.91794 0.03874 0.0
C82 C 0.83216 0.89194 0.06659 0.0
C83 C 0.78993 0.89052 0.05284 0.0
C84 C 0.73091 0.91725 -0.0012 0.0
H85 H 0.76809 0.87173 0.07538 0.0
C86 C 0.70964 0.87921 0.98266 0.0
C87 C 0.66799 0.88251 0.96631 0.0
C88 C 0.70993 0.95821 0.00021 0.0
H89 H 0.72586 0.98784 0.01261 0.0
C90 C 0.66832 0.96132 0.98543 0.0
H91 H 0.72599 0.8477 0.98066 0.0
C92 C 0.6475 0.92381 0.96824 0.0
H93 H 0.6153 0.92706 0.95642 0.0
H94 H 0.65231 0.99298 0.98672 0.0
H95 H 0.20932 0.04018 0.45306 0.0
C96 C 0.19809 0.06043 0.48401 0.0
C97 C 0.15601 0.05856 0.49802 0.0
C98 C 0.22626 0.0866 0.5113 0.0
H99 H 0.10967 0.08218 0.55043 0.0
C100 C 0.14204 0.08408 0.53878 0.0
C101 C 0.16983 0.11004 0.56658 0.0
C102 C 0.21205 0.11139 0.55278 0.0
C103 C 0.27102 0.08461 0.49862 0.0
H104 H 0.23392 0.13015 0.57528 0.0
C105 C 0.29231 0.12266 0.48258 0.0
C106 C 0.33394 0.11938 0.46615 0.0
C107 C 0.29197 0.04362 0.49983 0.0
H108 H 0.27602 0.01398 0.51215 0.0
C109 C 0.33357 0.04052 0.48497 0.0
H110 H 0.27598 0.15419 0.48073 0.0
C111 C 0.35441 0.07806 0.46788 0.0
H112 H 0.3866 0.07482 0.456 0.0
H113 H 0.34956 0.00884 0.48611 0.0
H114 H 0.20997 0.90436 0.93886 0.0
C115 C 0.19784 0.90068 0.97669 0.0
C116 C 0.17377 0.93485 -0.00148 0.0
C117 C 0.20374 0.86038 0.00218 0.0
H118 H 0.13583 0.95313 0.0622 0.0
C119 C 0.15671 0.92829 0.0467 0.0
C120 C 0.1625 0.8882 0.07276 0.0
C121 C 0.18659 0.8546 0.05029 0.0
C122 C 0.22095 0.82142 0.97558 0.0
H123 H 0.19068 0.82304 0.0692 0.0
C124 C 0.26396 0.81659 0.96643 0.0
C125 C 0.2793 0.77739 0.94422 0.0
C126 C 0.19357 0.78753 0.96124 0.0
H127 H 0.16038 0.79077 0.96806 0.0
C128 C 0.20877 0.74913 0.93836 0.0
H129 H 0.28535 0.84236 0.97793 0.0
C130 C 0.25143 0.74389 0.93018 0.0
H131 H 0.26282 0.71354 0.91306 0.0
H132 H 0.18747 0.72313 0.92749 0.0
H133 H 0.79181 0.09797 0.43899 0.0
C134 C 0.80396 0.10164 0.4768 0.0
C135 C 0.82803 0.06746 0.49856 0.0
C136 C 0.7981 0.14195 0.50231 0.0
H137 H 0.86601 0.04915 0.56216 0.0
C138 C 0.84514 0.07401 0.54671 0.0
C139 C 0.8394 0.1141 0.57278 0.0
C140 C 0.81531 0.14772 0.55038 0.0
C141 C 0.78087 0.18093 0.47578 0.0
H142 H 0.81125 0.17928 0.56932 0.0
C143 C 0.73786 0.18571 0.46659 0.0
C144 C 0.7225 0.22496 0.44453 0.0
C145 C 0.80822 0.21491 0.46161 0.0
H146 H 0.84141 0.21172 0.46846 0.0
C147 C 0.793 0.25336 0.43887 0.0
H148 H 0.7165 0.15988 0.47797 0.0
C149 C 0.75034 0.25855 0.43067 0.0
H150 H 0.73894 0.28894 0.41367 0.0
H151 H 0.81428 0.27942 0.42813 0.0
Sc152 Sc 0.99345 0.7976 0.30378 0.0
Sc153 Sc 0.98478 0.91403 0.31027 0.0
Sc154 Sc 0.98371 0.85135 0.42157 0.0
O155 O 0.98716 0.85425 0.34518 0.0
C156 C 0.9318 0.76554 0.39103 0.0
C157 C 0.92699 0.85379 0.24053 0.0
C158 C 0.91837 0.92845 0.39922 0.0
C159 C 0.0513 0.86321 0.24128 0.0
C160 C 0.05597 0.78099 0.3957 0.0
C161 C 0.04153 0.9365 0.40423 0.0
O162 O 0.9479 0.76235 0.34747 0.0
O163 O 0.93784 0.89088 0.25905 0.0
O164 O 0.93058 0.89574 0.42577 0.0
O165 O 0.04012 0.82462 0.25443 0.0
O166 O 0.03727 0.80777 0.42526 0.0
O167 O 0.03138 0.94248 0.3585 0.0
O168 O 0.04359 0.7735 0.35097 0.0
O169 O 0.03409 0.89813 0.25824 0.0
O170 O 0.02581 0.90613 0.43136 0.0
O171 O 0.94448 0.8171 0.25197 0.0
O172 O 0.94125 0.7962 0.42169 0.0
O173 O 0.93567 0.93884 0.35789 0.0
Sc174 Sc 0.00848 0.20459 0.80372 0.0
Sc175 Sc 0.01704 0.08816 0.81023 0.0
Sc176 Sc 0.018 0.15086 0.92153 0.0
O177 O 0.01466 0.14795 0.84513 0.0
C178 C 0.07003 0.23662 0.89105 0.0
C179 C 0.07497 0.14835 0.74053 0.0
C180 C 0.08336 0.07375 0.89921 0.0
C181 C 0.95064 0.13901 0.74119 0.0
C182 C 0.94584 0.22126 0.89556 0.0
C183 C 0.96019 0.06572 0.90417 0.0
O184 O 0.05399 0.23983 0.84748 0.0
O185 O 0.06404 0.11127 0.75901 0.0
O186 O 0.07109 0.10645 0.92577 0.0
O187 O 0.96188 0.1776 0.75431 0.0
O188 O 0.96446 0.19448 0.92515 0.0
O189 O 0.97039 0.05971 0.85846 0.0
O190 O 0.95829 0.22873 0.85085 0.0
O191 O 0.96778 0.10407 0.7582 0.0
O192 O 0.97586 0.0961 0.9313 0.0
O193 O 0.05753 0.18506 0.75198 0.0
O194 O 0.06049 0.20597 0.92168 0.0
O195 O 0.06611 0.06336 0.85786 0.0
Sc196 Sc 0.49327 0.29769 0.30424 0.0
Sc197 Sc 0.48436 0.4141 0.31065 0.0
Sc198 Sc 0.48356 0.35148 0.422 0.0
O199 O 0.4869 0.35434 0.3456 0.0
C200 C 0.4318 0.26551 0.39159 0.0
C201 C 0.42668 0.35371 0.24096 0.0
C202 C 0.41798 0.42836 0.39969 0.0
C203 C 0.55096 0.3634 0.24167 0.0
C204 C 0.55593 0.2813 0.39606 0.0
C205 C 0.54112 0.4368 0.40453 0.0
O206 O 0.44779 0.26238 0.34797 0.0
O207 O 0.43743 0.39083 0.25948 0.0
O208 O 0.4303 0.39569 0.42624 0.0
O209 O 0.53987 0.32479 0.25487 0.0
O210 O 0.53727 0.30811 0.42562 0.0
O211 O 0.53093 0.44271 0.3588 0.0
O212 O 0.54346 0.27368 0.35141 0.0
O213 O 0.53367 0.3983 0.25858 0.0
O214 O 0.5255 0.40642 0.43171 0.0
O215 O 0.44425 0.31707 0.25241 0.0
O216 O 0.44128 0.29617 0.42224 0.0
O217 O 0.43523 0.43879 0.35834 0.0
Sc218 Sc 0.50864 0.70444 0.80414 0.0
Sc219 Sc 0.51741 0.58802 0.81059 0.0
Sc220 Sc 0.51815 0.65067 0.92192 0.0
O221 O 0.51489 0.64779 0.84552 0.0
C222 C 0.57004 0.73657 0.89153 0.0
C223 C 0.57523 0.64833 0.74091 0.0
C224 C 0.58371 0.57376 0.89963 0.0
C225 C 0.45093 0.63876 0.74157 0.0
C226 C 0.44588 0.72092 0.8959 0.0
C227 C 0.46056 0.56538 0.90447 0.0
O228 O 0.5541 0.73972 0.8479 0.0
O229 O 0.56439 0.61123 0.7594 0.0
O230 O 0.57136 0.60643 0.92619 0.0
O231 O 0.46208 0.67736 0.75473 0.0
O232 O 0.46447 0.6941 0.92549 0.0
O233 O 0.47079 0.55944 0.85875 0.0
O234 O 0.45842 0.7285 0.85126 0.0
O235 O 0.46814 0.60385 0.75853 0.0
O236 O 0.47616 0.59578 0.93164 0.0
O237 O 0.55771 0.685 0.75237 0.0
O238 O 0.56048 0.70594 0.92217 0.0
O239 O 0.5665 0.56333 0.85827 0.0
C240 C 0.12466 0.34722 0.89922 0.0
C241 C 0.14624 0.34345 0.94497 0.0
H242 H 0.08433 0.31641 0.84597 0.0
C243 C 0.14517 0.30312 0.97127 0.0
H244 H 0.12545 0.3778 0.87787 0.0
C245 C 0.12132 0.2678 0.95318 0.0
C246 C 0.09861 0.27205 0.90808 0.0
H247 H 0.16157 0.29943 0.00666 0.0
H248 H 0.12008 0.23752 0.975 0.0
C249 C 0.10132 0.31188 0.88083 0.0
C250 C 0.85672 0.69884 0.47119 0.0
C251 C 0.85563 0.65857 0.44474 0.0
H252 H 0.88181 0.76442 0.4751 0.0
C253 C 0.87717 0.65493 0.39893 0.0
H254 H 0.84034 0.70243 0.50663 0.0
C255 C 0.9005 0.69031 0.38062 0.0
C256 C 0.90322 0.73007 0.40801 0.0
H257 H 0.87636 0.62441 0.37747 0.0
H258 H 0.91745 0.68588 0.3457 0.0
C259 C 0.88055 0.7342 0.45317 0.0
C260 C 0.84549 0.23959 0.96805 0.0
C261 C 0.82444 0.27004 0.93723 0.0
H262 H 0.90062 0.20088 0.97966 0.0
C263 C 0.84488 0.28787 0.8953 0.0
H264 H 0.82996 0.22517 0.0003 0.0
C265 C 0.88525 0.27363 0.88289 0.0
C266 C 0.90582 0.24145 0.91241 0.0
H267 H 0.82886 0.31105 0.87079 0.0
H268 H 0.89967 0.28661 0.84915 0.0
C269 C 0.8859 0.22568 0.95604 0.0
C270 C 0.15684 0.71423 0.39576 0.0
C271 C 0.17732 0.73226 0.43753 0.0
H272 H 0.10204 0.71532 0.34967 0.0
C273 C 0.15631 0.76292 0.46815 0.0
H274 H 0.17283 0.69088 0.37139 0.0
C275 C 0.11592 0.77682 0.4561 0.0
C276 C 0.09596 0.76084 0.41261 0.0
H277 H 0.17186 0.7775 0.50028 0.0
H278 H 0.10123 0.80178 0.47957 0.0
C279 C 0.11649 0.72846 0.38329 0.0
C280 C 0.64502 0.80322 0.97181 0.0
C281 C 0.64601 0.84357 0.94552 0.0
H282 H 0.62005 0.73757 0.97551 0.0
C283 C 0.62441 0.8473 0.89977 0.0
H284 H 0.66143 0.79956 0.00719 0.0
C285 C 0.60115 0.81192 0.88137 0.0
C286 C 0.59853 0.77207 0.9086 0.0
H287 H 0.62514 0.87789 0.87844 0.0
H288 H 0.58416 0.81641 0.84651 0.0
C289 C 0.62124 0.76786 0.9537 0.0
C290 C 0.37751 0.15473 0.39966 0.0
C291 C 0.35593 0.15836 0.44544 0.0
H292 H 0.41772 0.18574 0.3464 0.0
C293 C 0.35691 0.19866 0.47184 0.0
H294 H 0.37678 0.12418 0.37824 0.0
C295 C 0.38065 0.23407 0.45378 0.0
C296 C 0.40334 0.22997 0.40863 0.0
H297 H 0.3405 0.20225 0.50726 0.0
H298 H 0.38183 0.26433 0.47566 0.0
C299 C 0.40074 0.19016 0.3813 0.0
C300 C 0.34494 0.73843 0.9674 0.0
C301 C 0.32432 0.76958 0.93705 0.0
H302 H 0.39978 0.69921 0.97883 0.0
C303 C 0.34524 0.78807 0.89585 0.0
H304 H 0.32904 0.72351 -0.00091 0.0
C305 C 0.38565 0.77382 0.88363 0.0
C306 C 0.4058 0.741 0.91265 0.0
H307 H 0.32957 0.81182 0.87171 0.0
H308 H 0.40046 0.78734 0.85042 0.0
C309 C 0.38539 0.72453 0.95562 0.0
C310 C 0.65685 0.26404 0.46755 0.0
C311 C 0.67747 0.23275 0.43735 0.0
H312 H 0.60203 0.30333 0.47882 0.0
C313 C 0.65655 0.21409 0.39626 0.0
H314 H 0.67274 0.27909 0.49915 0.0
C315 C 0.61615 0.22832 0.38399 0.0
C316 C 0.59601 0.26127 0.41287 0.0
H317 H 0.67222 0.19024 0.37223 0.0
H318 H 0.60134 0.21467 0.35086 0.0
C319 C 0.6164 0.2779 0.45573 0.0
C320 C 0.39901 0.50318 0.00296 0.0
C321 C 0.37484 0.47456 0.97342 0.0
H322 H 0.44458 0.55442 0.00447 0.0
C323 C 0.3781 0.47668 0.92079 0.0
H324 H 0.39661 0.50268 0.04362 0.0
C325 C 0.40581 0.50629 0.89817 0.0
C326 C 0.43026 0.53476 0.92782 0.0
H327 H 0.35973 0.45494 0.89725 0.0
H328 H 0.40805 0.50689 0.85751 0.0
C329 C 0.42624 0.53306 0.98045 0.0
C330 C 0.60276 0.49892 0.50295 0.0
C331 C 0.62696 0.5275 0.47338 0.0
H332 H 0.55712 0.44774 0.50451 0.0
C333 C 0.62368 0.5254 0.42076 0.0
H334 H 0.60517 0.4994 0.54361 0.0
C335 C 0.59592 0.49583 0.39817 0.0
C336 C 0.57144 0.4674 0.42785 0.0
H337 H 0.64207 0.5471 0.3972 0.0
H338 H 0.59367 0.49524 0.35751 0.0
C339 C 0.57547 0.46908 0.48047 0.0
C340 C 0.65472 0.51579 0.99286 0.0
C341 C 0.66052 0.47436 0.96941 0.0
H342 H 0.62619 0.58006 0.9892 0.0
C343 C 0.6471 0.46915 0.91945 0.0
H344 H 0.66543 0.5212 0.031 0.0
C345 C 0.62503 0.50304 0.89526 0.0
C346 C 0.61551 0.54285 0.92058 0.0
H347 H 0.65075 0.43772 0.90021 0.0
H348 H 0.61302 0.49669 0.85788 0.0
C349 C 0.63234 0.54963 0.9688 0.0
C350 C 0.34695 0.4864 0.49293 0.0
C351 C 0.34117 0.52783 0.46947 0.0
H352 H 0.37545 0.42212 0.48928 0.0
C353 C 0.3546 0.53301 0.4195 0.0
H354 H 0.33622 0.48102 0.53109 0.0
C355 C 0.37667 0.49909 0.39531 0.0
C356 C 0.38617 0.45929 0.42064 0.0
H357 H 0.35097 0.56442 0.40025 0.0
H358 H 0.38868 0.50541 0.35791 0.0
C359 C 0.36932 0.45254 0.46886 0.0
C360 C 0.89867 0.00365 0.00279 0.0
C361 C 0.87447 0.97502 0.9733 0.0
H362 H 0.94426 0.05486 0.0042 0.0
C363 C 0.87765 0.97713 0.92067 0.0
H364 H 0.89632 0.00315 0.04346 0.0
C365 C 0.90535 0.00673 0.89798 0.0
C366 C 0.92986 0.03518 0.92758 0.0
H367 H 0.85924 0.95539 0.89717 0.0
H368 H 0.90754 0.0073 0.85732 0.0
C369 C 0.92589 0.03351 0.98022 0.0
C370 C 0.10309 0.99848 0.50282 0.0
C371 C 0.12737 0.02704 0.47333 0.0
H372 H 0.0574 0.94736 0.50426 0.0
C373 C 0.1242 0.02494 0.4207 0.0
H374 H 0.10542 0.99897 0.54349 0.0
C375 C 0.09645 0.9954 0.39802 0.0
C376 C 0.07188 0.96701 0.42763 0.0
H377 H 0.14265 0.04663 0.39719 0.0
H378 H 0.09428 0.99483 0.35736 0.0
C379 C 0.07582 0.96867 0.48027 0.0
C380 C 0.15443 0.01567 0.99229 0.0
C381 C 0.1602 0.97424 0.9688 0.0
H382 H 0.12593 0.07995 0.98873 0.0
C383 C 0.14668 0.96906 0.91887 0.0
H384 H 0.16521 0.02105 0.03041 0.0
C385 C 0.12459 0.00297 0.89475 0.0
C386 C 0.11513 0.04278 0.92011 0.0
H387 H 0.1503 0.93764 0.8996 0.0
H388 H 0.11253 0.99665 0.85739 0.0
C389 C 0.13202 0.04953 0.96829 0.0
C390 C 0.84728 0.98661 0.49232 0.0
C391 C 0.84156 0.02804 0.46882 0.0
H392 H 0.87574 0.92231 0.48875 0.0
C393 C 0.85508 0.03319 0.41889 0.0
H394 H 0.83649 0.98125 0.53045 0.0
C395 C 0.87716 0.99925 0.39476 0.0
C396 C 0.88658 0.95945 0.42012 0.0
H397 H 0.85149 0.06461 0.39961 0.0
H398 H 0.88924 0.00555 0.35739 0.0
C399 C 0.86967 0.95273 0.46832 0.0
C400 C 0.37749 0.33845 0.11363 0.0
C401 C 0.34721 0.37224 0.11425 0.0
H402 H 0.42593 0.30499 0.15459 0.0
C403 C 0.3387 0.39463 0.15935 0.0
H404 H 0.38493 0.32139 0.07887 0.0
C405 C 0.36274 0.38619 0.20211 0.0
C406 C 0.39513 0.35464 0.20061 0.0
H407 H 0.31594 0.42132 0.16029 0.0
H408 H 0.35765 0.40616 0.23547 0.0
C409 C 0.40093 0.32922 0.15683 0.0
C410 C 0.62464 0.66364 0.61366 0.0
C411 C 0.6548 0.62973 0.61422 0.0
H412 H 0.57627 0.69721 0.65467 0.0
C413 C 0.66317 0.60721 0.65926 0.0
H414 H 0.6173 0.68079 0.57894 0.0
C415 C 0.6391 0.61567 0.70203 0.0
C416 C 0.60683 0.64735 0.70058 0.0
H417 H 0.68583 0.58043 0.66014 0.0
H418 H 0.64408 0.59562 0.73534 0.0
C419 C 0.60118 0.67288 0.65687 0.0
C420 C 0.63152 0.41445 0.1554 0.0
C421 C 0.63863 0.38005 0.12062 0.0
H422 H 0.59829 0.43624 0.22084 0.0
C423 C 0.61948 0.33883 0.12893 0.0
H424 H 0.64635 0.44635 0.15076 0.0
C425 C 0.59252 0.33281 0.16964 0.0
C426 C 0.58357 0.36803 0.2026 0.0
H427 H 0.62359 0.31174 0.10264 0.0
H428 H 0.57716 0.30115 0.17382 0.0
C429 C 0.60407 0.40862 0.19568 0.0
C430 C 0.37031 0.58777 0.65539 0.0
C431 C 0.36322 0.62216 0.62062 0.0
H432 H 0.40353 0.56597 0.72079 0.0
C433 C 0.38241 0.66336 0.62889 0.0
H434 H 0.35546 0.55588 0.65078 0.0
C435 C 0.40939 0.66937 0.66957 0.0
C436 C 0.41832 0.63415 0.70252 0.0
H437 H 0.37832 0.69045 0.60261 0.0
H438 H 0.42479 0.70102 0.67372 0.0
C439 C 0.39778 0.59358 0.69563 0.0
C440 C 0.83886 0.89484 0.15923 0.0
C441 C 0.84728 0.8725 0.11407 0.0
H442 H 0.85798 0.90627 0.23532 0.0
C443 C 0.87758 0.83874 0.11329 0.0
H444 H 0.8161 0.92152 0.16029 0.0
C445 C 0.90111 0.82946 0.1564 0.0
C446 C 0.89539 0.8548 0.20024 0.0
H447 H 0.88495 0.82172 0.07848 0.0
H448 H 0.92612 0.80524 0.15405 0.0
C449 C 0.863 0.88635 0.2019 0.0
C450 C 0.16308 0.10713 0.65922 0.0
C451 C 0.15474 0.12951 0.61408 0.0
H452 H 0.14388 0.09571 0.73529 0.0
C453 C 0.12453 0.16336 0.61333 0.0
H454 H 0.18578 0.08039 0.66025 0.0
C455 C 0.10099 0.17268 0.65644 0.0
C456 C 0.10661 0.14729 0.70026 0.0
H457 H 0.11722 0.1804 0.57853 0.0
H458 H 0.07604 0.19696 0.65411 0.0
C459 C 0.13893 0.11566 0.7019 0.0
C460 C 0.13179 0.91423 0.15488 0.0
C461 C 0.13881 0.87986 0.12005 0.0
H462 H 0.09868 0.936 0.22042 0.0
C463 C 0.11968 0.83863 0.1284 0.0
H464 H 0.14661 0.94613 0.15021 0.0
C465 C 0.09279 0.8326 0.16918 0.0
C466 C 0.0839 0.86781 0.20217 0.0
H467 H 0.12373 0.81155 0.10209 0.0
H468 H 0.07741 0.80094 0.17338 0.0
C469 C 0.10442 0.90839 0.19523 0.0
C470 C 0.87013 0.08804 0.65485 0.0
C471 C 0.86313 0.12242 0.62003 0.0
H472 H 0.90322 0.06625 0.72035 0.0
C473 C 0.88229 0.16363 0.62836 0.0
H474 H 0.85529 0.05616 0.6502 0.0
C475 C 0.9092 0.16964 0.66911 0.0
C476 C 0.91806 0.13443 0.70209 0.0
H477 H 0.87826 0.19072 0.60206 0.0
H478 H 0.92459 0.20129 0.67329 0.0
C479 C 0.89751 0.09387 0.69517 0.0
loop_
_geom_bond_atom_site_label_1
_geom_bond_atom_site_label_2
_geom_bond_distance
_geom_bond_site_symmetry_2
_ccdc_geom_bond_type
H0 C1 0.949 . S
C1 H0 0.949 . S
C1 C2 1.395 . S
C1 C3 1.391 1_556 S
C2 C1 1.395 . S
C2 C5 1.390 1_556 S
C3 C1 1.391 1_554 S
C3 C7 1.387 . S
C3 C8 1.491 . S
H4 C5 0.950 . S
C5 C2 1.390 1_554 S
C5 H4 0.950 . S
C5 C6 1.378 . S
C6 C5 1.378 . S
C6 C7 1.409 . S
C7 C3 1.387 . S
C7 C6 1.409 . S
C7 H9 0.951 . S
C8 C3 1.491 . S
C8 C10 1.382 1_554 S
C8 C12 1.404 . S
H9 C7 0.951 . S
C10 C8 1.382 1_556 S
C10 C11 1.390 . S
C10 H15 0.949 . S
C11 C10 1.390 . S
C11 C16 1.399 1_556 S
C12 C8 1.404 . S
C12 H13 0.950 . S
C12 C14 1.375 . S
H13 C12 0.950 . S
C14 C12 1.375 . S
C14 C16 1.382 . S
C14 H18 0.950 . S
H15 C10 0.949 . S
C16 C11 1.399 1_554 S
C16 C14 1.382 . S
C16 H17 0.952 . S
H17 C16 0.952 . S
H18 C14 0.950 . S
H19 C20 0.949 . S
C20 H19 0.949 . S
C20 C21 1.395 . S
C20 C22 1.391 . S
C21 C20 1.395 . S
C21 C24 1.390 . S
C22 C20 1.391 . S
C22 C26 1.387 . S
C22 C27 1.491 . S
H23 C24 0.950 . S
C24 C21 1.390 . S
C24 H23 0.950 . S
C24 C25 1.378 . S
C25 C24 1.378 . S
C25 C26 1.409 . S
C26 C22 1.387 . S
C26 C25 1.409 . S
C26 H28 0.951 . S
C27 C22 1.491 . S
C27 C29 1.382 . S
C27 C31 1.404 . S
H28 C26 0.951 . S
C29 C27 1.382 . S
C29 C30 1.390 . S
C29 H34 0.949 . S
C30 C29 1.390 . S
C30 C35 1.399 . S
C31 C27 1.404 . S
C31 H32 0.950 . S
C31 C33 1.375 . S
H32 C31 0.950 . S
C33 C31 1.375 . S
C33 C35 1.382 . S
C33 H37 0.950 . S
H34 C29 0.949 . S
C35 C30 1.399 . S
C35 C33 1.382 . S
C35 H36 0.952 . S
H36 C35 0.952 . S
H37 C33 0.950 . S
H38 C39 0.949 . S
C39 H38 0.949 . S
C39 C40 1.395 . S
C39 C41 1.391 1_556 S
C40 C39 1.395 . S
C40 C43 1.390 1_556 S
C41 C39 1.391 1_554 S
C41 C45 1.387 . S
C41 C46 1.491 . S
H42 C43 0.950 . S
C43 C40 1.390 1_554 S
C43 H42 0.950 . S
C43 C44 1.378 . S
C44 C43 1.378 . S
C44 C45 1.409 . S
C45 C41 1.387 . S
C45 C44 1.409 . S
C45 H47 0.951 . S
C46 C41 1.491 . S
C46 C48 1.382 1_554 S
C46 C50 1.404 . S
H47 C45 0.951 . S
C48 C46 1.382 1_556 S
C48 C49 1.390 . S
C48 H53 0.949 . S
C49 C48 1.390 . S
C49 C54 1.399 . S
C50 C46 1.404 . S
C50 H51 0.950 . S
C50 C52 1.375 . S
H51 C50 0.950 . S
C52 C50 1.375 . S
C52 C54 1.382 1_554 S
C52 H56 0.950 . S
H53 C48 0.949 . S
C54 C49 1.399 . S
C54 C52 1.382 1_556 S
C54 H55 0.952 . S
H55 C54 0.952 . S
H56 C52 0.950 . S
H57 C58 0.949 . S
C58 H57 0.949 . S
C58 C59 1.395 . S
C58 C60 1.391 . S
C59 C58 1.395 . S
C59 C62 1.390 . S
C60 C58 1.391 . S
C60 C64 1.387 . S
C60 C65 1.491 . S
H61 C62 0.950 . S
C62 C59 1.390 . S
C62 H61 0.950 . S
C62 C63 1.378 . S
C63 C62 1.378 . S
C63 C64 1.409 . S
C64 C60 1.387 . S
C64 C63 1.409 . S
C64 H66 0.951 . S
C65 C60 1.491 . S
C65 C67 1.382 . S
C65 C69 1.404 . S
H66 C64 0.951 . S
C67 C65 1.382 . S
C67 C68 1.390 . S
C67 H72 0.949 . S
C68 C67 1.390 . S
C68 C73 1.399 . S
C69 C65 1.404 . S
C69 H70 0.950 . S
C69 C71 1.375 . S
H70 C69 0.950 . S
C71 C69 1.375 . S
C71 C73 1.382 . S
C71 H75 0.950 . S
H72 C67 0.949 . S
C73 C68 1.399 . S
C73 C71 1.382 . S
C73 H74 0.952 . S
H74 C73 0.952 . S
H75 C71 0.950 . S
H76 C77 0.949 . S
C77 H76 0.949 . S
C77 C78 1.395 . S
C77 C79 1.391 1_556 S
C78 C77 1.395 . S
C78 C81 1.390 1_556 S
C79 C77 1.391 1_554 S
C79 C83 1.387 . S
C79 C84 1.491 . S
H80 C81 0.950 . S
C81 C78 1.390 1_554 S
C81 H80 0.950 . S
C81 C82 1.378 . S
C82 C81 1.378 . S
C82 C83 1.409 . S
C83 C79 1.387 . S
C83 C82 1.409 . S
C83 H85 0.951 . S
C84 C79 1.491 . S
C84 C86 1.382 1_554 S
C84 C88 1.404 . S
H85 C83 0.951 . S
C86 C84 1.382 1_556 S
C86 C87 1.390 . S
C86 H91 0.949 . S
C87 C86 1.390 . S
C87 C92 1.399 1_556 S
C88 C84 1.404 . S
C88 H89 0.950 . S
C88 C90 1.375 . S
H89 C88 0.950 . S
C90 C88 1.375 . S
C90 C92 1.382 . S
C90 H94 0.950 . S
H91 C86 0.949 . S
C92 C87 1.399 1_554 S
C92 C90 1.382 . S
C92 H93 0.952 . S
H93 C92 0.952 . S
H94 C90 0.950 . S
H95 C96 0.949 . S
C96 H95 0.949 . S
C96 C97 1.395 . S
C96 C98 1.391 . S
C97 C96 1.395 . S
C97 C100 1.390 . S
C98 C96 1.391 . S
C98 C102 1.387 . S
C98 C103 1.491 . S
H99 C100 0.950 . S
C100 C97 1.390 . S
C100 H99 0.950 . S
C100 C101 1.378 . S
C101 C100 1.378 . S
C101 C102 1.409 . S
C102 C98 1.387 . S
C102 C101 1.409 . S
C102 H104 0.951 . S
C103 C98 1.491 . S
C103 C105 1.382 . S
C103 C107 1.404 . S
H104 C102 0.951 . S
C105 C103 1.382 . S
C105 C106 1.390 . S
C105 H110 0.949 . S
C106 C105 1.390 . S
C106 C111 1.399 . S
C107 C103 1.404 . S
C107 H108 0.950 . S
C107 C109 1.375 . S
H108 C107 0.950 . S
C109 C107 1.375 . S
C109 C111 1.382 . S
C109 H113 0.950 . S
H110 C105 0.949 . S
C111 C106 1.399 . S
C111 C109 1.382 . S
C111 H112 0.952 . S
H112 C111 0.952 . S
H113 C109 0.950 . S
H114 C115 0.949 . S
C115 H114 0.949 . S
C115 C116 1.395 . S
C115 C117 1.391 1_556 S
C116 C115 1.395 . S
C116 C119 1.390 1_556 S
C117 C115 1.391 1_554 S
C117 C121 1.387 . S
C117 C122 1.491 . S
H118 C119 0.950 . S
C119 C116 1.390 1_554 S
C119 H118 0.950 . S
C119 C120 1.378 . S
C120 C119 1.378 . S
C120 C121 1.409 . S
C121 C117 1.387 . S
C121 C120 1.409 . S
C121 H123 0.951 . S
C122 C117 1.491 . S
C122 C124 1.382 1_554 S
C122 C126 1.404 . S
H123 C121 0.951 . S
C124 C122 1.382 1_556 S
C124 C125 1.390 . S
C124 H129 0.949 . S
C125 C124 1.390 . S
C125 C130 1.399 . S
C126 C122 1.404 . S
C126 H127 0.950 . S
C126 C128 1.375 . S
H127 C126 0.950 . S
C128 C126 1.375 . S
C128 C130 1.382 1_554 S
C128 H132 0.950 . S
H129 C124 0.949 . S
C130 C125 1.399 . S
C130 C128 1.382 1_556 S
C130 H131 0.952 . S
H131 C130 0.952 . S
H132 C128 0.950 . S
H133 C134 0.949 . S
C134 H133 0.949 . S
C134 C135 1.395 . S
C134 C136 1.391 . S
C135 C134 1.395 . S
C135 C138 1.390 . S
C136 C134 1.391 . S
C136 C140 1.387 . S
C136 C141 1.491 . S
H137 C138 0.950 . S
C138 C135 1.390 . S
C138 H137 0.950 . S
C138 C139 1.378 . S
C139 C138 1.378 . S
C139 C140 1.409 . S
C140 C136 1.387 . S
C140 C139 1.409 . S
C140 H142 0.951 . S
C141 C136 1.491 . S
C141 C143 1.382 . S
C141 C145 1.404 . S
H142 C140 0.951 . S
C143 C141 1.382 . S
C143 C144 1.390 . S
C143 H148 0.949 . S
C144 C143 1.390 . S
C144 C149 1.399 . S
C145 C141 1.404 . S
C145 H146 0.950 . S
C145 C147 1.375 . S
H146 C145 0.950 . S
C147 C145 1.375 . S
C147 C149 1.382 . S
C147 H151 0.950 . S
H148 C143 0.949 . S
C149 C144 1.399 . S
C149 C147 1.382 . S
C149 H150 0.952 . S
H150 C149 0.952 . S
H151 C147 0.950 . S
Sc152 O155 2.025 . S
Sc152 O162 2.105 1_455 S
Sc152 O165 2.105 . S
Sc152 O168 2.105 . S
Sc152 O171 2.105 1_455 S
Sc153 O155 2.025 . S
Sc153 O163 2.105 1_455 S
Sc153 O167 2.105 . S
Sc153 O169 2.105 . S
Sc153 O173 2.105 1_455 S
Sc154 O155 2.025 . S
Sc154 O164 2.105 1_455 S
Sc154 O166 2.105 . S
Sc154 O170 2.105 . S
Sc154 O172 2.105 1_455 S
O155 Sc152 2.025 . S
O155 Sc153 2.025 . S
O155 Sc154 2.025 . S
C156 O162 1.268 . S
C156 O172 1.268 . S
C157 O163 1.268 . S
C157 O171 1.268 . S
C158 O164 1.268 . S
C158 O173 1.268 . S
C159 O165 1.268 . S
C159 O169 1.268 . S
C160 O166 1.268 . S
C160 O168 1.268 . S
C161 O167 1.268 . S
C161 O170 1.268 . S
O162 Sc152 2.105 1_655 S
O162 C156 1.268 . S
O163 Sc153 2.105 1_655 S
O163 C157 1.268 . S
O164 Sc154 2.105 1_655 S
O164 C158 1.268 . S
O165 Sc152 2.105 . S
O165 C159 1.268 . S
O166 Sc154 2.105 . S
O166 C160 1.268 . S
O167 Sc153 2.105 . S
O167 C161 1.268 . S
O168 Sc152 2.105 . S
O168 C160 1.268 . S
O169 Sc153 2.105 . S
O169 C159 1.268 . S
O170 Sc154 2.105 . S
O170 C161 1.268 . S
O171 Sc152 2.105 1_655 S
O171 C157 1.268 . S
O172 Sc154 2.105 1_655 S
O172 C156 1.268 . S
O173 Sc153 2.105 1_655 S
O173 C158 1.268 . S
Sc174 O177 2.025 . S
Sc174 O184 2.105 . S
Sc174 O187 2.105 1_455 S
Sc174 O190 2.105 1_455 S
Sc174 O193 2.105 . S
Sc175 O177 2.025 . S
Sc175 O185 2.105 . S
Sc175 O189 2.105 1_455 S
Sc175 O191 2.105 1_455 S
Sc175 O195 2.105 . S
Sc176 O177 2.025 . S
Sc176 O186 2.105 . S
Sc176 O188 2.105 1_455 S
Sc176 O192 2.105 1_455 S
Sc176 O194 2.105 . S
O177 Sc174 2.025 . S
O177 Sc175 2.025 . S
O177 Sc176 2.025 . S
C178 O184 1.268 . S
C178 O194 1.268 . S
C179 O185 1.268 . S
C179 O193 1.268 . S
C180 O186 1.268 . S
C180 O195 1.268 . S
C181 O187 1.268 . S
C181 O191 1.268 . S
C182 O188 1.268 . S
C182 O190 1.268 . S
C183 O189 1.268 . S
C183 O192 1.268 . S
O184 Sc174 2.105 . S
O184 C178 1.268 . S
O185 Sc175 2.105 . S
O185 C179 1.268 . S
O186 Sc176 2.105 . S
O186 C180 1.268 . S
O187 Sc174 2.105 1_655 S
O187 C181 1.268 . S
O188 Sc176 2.105 1_655 S
O188 C182 1.268 . S
O189 Sc175 2.105 1_655 S
O189 C183 1.268 . S
O190 Sc174 2.105 1_655 S
O190 C182 1.268 . S
O191 Sc175 2.105 1_655 S
O191 C181 1.268 . S
O192 Sc176 2.105 1_655 S
O192 C183 1.268 . S
O193 Sc174 2.105 . S
O193 C179 1.268 . S
O194 Sc176 2.105 . S
O194 C178 1.268 . S
O195 Sc175 2.105 . S
O195 C180 1.268 . S
Sc196 O199 2.025 . S
Sc196 O206 2.105 . S
Sc196 O209 2.105 . S
Sc196 O212 2.105 . S
Sc196 O215 2.105 . S
Sc197 O199 2.025 . S
Sc197 O207 2.105 . S
Sc197 O211 2.105 . S
Sc197 O213 2.105 . S
Sc197 O217 2.105 . S
Sc198 O199 2.025 . S
Sc198 O208 2.105 . S
Sc198 O210 2.105 . S
Sc198 O214 2.105 . S
Sc198 O216 2.105 . S
O199 Sc196 2.025 . S
O199 Sc197 2.025 . S
O199 Sc198 2.025 . S
C200 O206 1.268 . S
C200 O216 1.268 . S
C201 O207 1.268 . S
C201 O215 1.268 . S
C202 O208 1.268 . S
C202 O217 1.268 . S
C203 O209 1.268 . S
C203 O213 1.268 . S
C204 O210 1.268 . S
C204 O212 1.268 . S
C205 O211 1.268 . S
C205 O214 1.268 . S
O206 Sc196 2.105 . S
O206 C200 1.268 . S
O207 Sc197 2.105 . S
O207 C201 1.268 . S
O208 Sc198 2.105 . S
O208 C202 1.268 . S
O209 Sc196 2.105 . S
O209 C203 1.268 . S
O210 Sc198 2.105 . S
O210 C204 1.268 . S
O211 Sc197 2.105 . S
O211 C205 1.268 . S
O212 Sc196 2.105 . S
O212 C204 1.268 . S
O213 Sc197 2.105 . S
O213 C203 1.268 . S
O214 Sc198 2.105 . S
O214 C205 1.268 . S
O215 Sc196 2.105 . S
O215 C201 1.268 . S
O216 Sc198 2.105 . S
O216 C200 1.268 . S
O217 Sc197 2.105 . S
O217 C202 1.268 . S
Sc218 O221 2.025 . S
Sc218 O228 2.105 . S
Sc218 O231 2.105 . S
Sc218 O234 2.105 . S
Sc218 O237 2.105 . S
Sc219 O221 2.025 . S
Sc219 O229 2.105 . S
Sc219 O233 2.105 . S
Sc219 O235 2.105 . S
Sc219 O239 2.105 . S
Sc220 O221 2.025 . S
Sc220 O230 2.105 . S
Sc220 O232 2.105 . S
Sc220 O236 2.105 . S
Sc220 O238 2.105 . S
O221 Sc218 2.025 . S
O221 Sc219 2.025 . S
O221 Sc220 2.025 . S
C222 O228 1.268 . S
C222 O238 1.268 . S
C223 O229 1.268 . S
C223 O237 1.268 . S
C224 O230 1.268 . S
C224 O239 1.268 . S
C225 O231 1.268 . S
C225 O235 1.268 . S
C226 O232 1.268 . S
C226 O234 1.268 . S
C227 O233 1.268 . S
C227 O236 1.268 . S
O228 Sc218 2.105 . S
O228 C222 1.268 . S
O229 Sc219 2.105 . S
O229 C223 1.268 . S
O230 Sc220 2.105 . S
O230 C224 1.268 . S
O231 Sc218 2.105 . S
O231 C225 1.268 . S
O232 Sc220 2.105 . S
O232 C226 1.268 . S
O233 Sc219 2.105 . S
O233 C227 1.268 . S
O234 Sc218 2.105 . S
O234 C226 1.268 . S
O235 Sc219 2.105 . S
O235 C225 1.268 . S
O236 Sc220 2.105 . S
O236 C227 1.268 . S
O237 Sc218 2.105 . S
O237 C223 1.268 . S
O238 Sc220 2.105 . S
O238 C222 1.268 . S
O239 Sc219 2.105 . S
O239 C224 1.268 . S
C240 C241 1.387 . S
C240 H244 0.950 . S
C240 C249 1.390 . S
C241 C240 1.387 . S
C241 C243 1.387 . S
H242 C249 0.950 . S
C243 C241 1.387 . S
C243 C245 1.390 . S
C243 H247 0.942 1_556 S
H244 C240 0.950 . S
C245 C243 1.390 . S
C245 C246 1.387 . S
C245 H248 0.950 . S
C246 C245 1.387 . S
C246 C249 1.387 . S
H247 C243 0.942 1_554 S
H248 C245 0.950 . S
C249 C240 1.390 . S
C249 H242 0.950 . S
C249 C246 1.387 . S
C250 C251 1.387 . S
C250 H254 0.950 . S
C250 C259 1.390 . S
C251 C250 1.387 . S
C251 C253 1.387 . S
H252 C259 0.950 . S
C253 C251 1.387 . S
C253 C255 1.390 . S
C253 H257 0.950 . S
H254 C250 0.950 . S
C255 C253 1.390 . S
C255 C256 1.387 . S
C255 H258 0.950 . S
C256 C255 1.387 . S
C256 C259 1.387 . S
H257 C253 0.950 . S
H258 C255 0.950 . S
C259 C250 1.390 . S
C259 H252 0.950 . S
C259 C256 1.387 . S
C260 C261 1.387 . S
C260 H264 0.950 . S
C260 C269 1.390 . S
C261 C260 1.387 . S
C261 C263 1.387 . S
H262 C269 0.950 . S
C263 C261 1.387 . S
C263 C265 1.390 . S
C263 H267 0.950 . S
H264 C260 0.950 . S
C265 C263 1.390 . S
C265 C266 1.387 . S
C265 H268 0.950 . S
C266 C265 1.387 . S
C266 C269 1.387 . S
H267 C263 0.950 . S
H268 C265 0.950 . S
C269 C260 1.390 . S
C269 H262 0.950 . S
C269 C266 1.387 . S
C270 C271 1.387 . S
C270 H274 0.950 . S
C270 C279 1.390 . S
C271 C270 1.387 . S
C271 C273 1.387 . S
H272 C279 0.950 . S
C273 C271 1.387 . S
C273 C275 1.390 . S
C273 H277 0.950 . S
H274 C270 0.950 . S
C275 C273 1.390 . S
C275 C276 1.387 . S
C275 H278 0.950 . S
C276 C275 1.387 . S
C276 C279 1.387 . S
H277 C273 0.950 . S
H278 C275 0.950 . S
C279 C270 1.390 . S
C279 H272 0.950 . S
C279 C276 1.387 . S
C280 C281 1.387 . S
C280 H284 0.950 . S
C280 C289 1.390 . S
C281 C280 1.387 . S
C281 C283 1.387 . S
H282 C289 0.950 . S
C283 C281 1.387 . S
C283 C285 1.390 . S
C283 H287 0.950 . S
H284 C280 0.950 . S
C285 C283 1.390 . S
C285 C286 1.387 . S
C285 H288 0.950 . S
C286 C285 1.387 . S
C286 C289 1.387 . S
H287 C283 0.950 . S
H288 C285 0.950 . S
C289 C280 1.390 . S
C289 H282 0.950 . S
C289 C286 1.387 . S
C290 C291 1.387 . S
C290 H294 0.950 . S
C290 C299 1.390 . S
C291 C290 1.387 . S
C291 C293 1.387 . S
H292 C299 0.950 . S
C293 C291 1.387 . S
C293 C295 1.390 . S
C293 H297 0.950 . S
H294 C290 0.950 . S
C295 C293 1.390 . S
C295 C296 1.387 . S
C295 H298 0.950 . S
C296 C295 1.387 . S
C296 C299 1.387 . S
H297 C293 0.950 . S
H298 C295 0.950 . S
C299 C290 1.390 . S
C299 H292 0.950 . S
C299 C296 1.387 . S
C300 C301 1.387 . S
C300 H304 0.950 . S
C300 C309 1.390 . S
C301 C300 1.387 . S
C301 C303 1.387 . S
H302 C309 0.950 . S
C303 C301 1.387 . S
C303 C305 1.390 . S
C303 H307 0.950 . S
H304 C300 0.950 . S
C305 C303 1.390 . S
C305 C306 1.387 . S
C305 H308 0.950 . S
C306 C305 1.387 . S
C306 C309 1.387 . S
H307 C303 0.950 . S
H308 C305 0.950 . S
C309 C300 1.390 . S
C309 H302 0.950 . S
C309 C306 1.387 . S
C310 C311 1.387 . S
C310 H314 0.950 . S
C310 C319 1.390 . S
C311 C310 1.387 . S
C311 C313 1.387 . S
H312 C319 0.950 . S
C313 C311 1.387 . S
C313 C315 1.390 . S
C313 H317 0.950 . S
H314 C310 0.950 . S
C315 C313 1.390 . S
C315 C316 1.387 . S
C315 H318 0.950 . S
C316 C315 1.387 . S
C316 C319 1.387 . S
H317 C313 0.950 . S
H318 C315 0.950 . S
C319 C310 1.390 . S
C319 H312 0.950 . S
C319 C316 1.387 . S
C320 C321 1.387 . S
C320 H324 0.950 . S
C320 C329 1.390 . S
C321 C320 1.387 . S
C321 C323 1.387 . S
H322 C329 0.950 . S
C323 C321 1.387 . S
C323 C325 1.390 . S
C323 H327 0.950 . S
H324 C320 0.950 . S
C325 C323 1.390 . S
C325 C326 1.387 . S
C325 H328 0.950 . S
C326 C325 1.387 . S
C326 C329 1.387 . S
H327 C323 0.950 . S
H328 C325 0.950 . S
C329 C320 1.390 . S
C329 H322 0.950 . S
C329 C326 1.387 . S
C330 C331 1.387 . S
C330 H334 0.950 . S
C330 C339 1.390 . S
C331 C330 1.387 . S
C331 C333 1.387 . S
H332 C339 0.950 . S
C333 C331 1.387 . S
C333 C335 1.390 . S
C333 H337 0.950 . S
H334 C330 0.950 . S
C335 C333 1.390 . S
C335 C336 1.387 . S
C335 H338 0.950 . S
C336 C335 1.387 . S
C336 C339 1.387 . S
H337 C333 0.950 . S
H338 C335 0.950 . S
C339 C330 1.390 . S
C339 H332 0.950 . S
C339 C336 1.387 . S
C340 C341 1.387 . S
C340 H344 0.950 1_556 S
C340 C349 1.390 . S
C341 C340 1.387 . S
C341 C343 1.387 . S
H342 C349 0.950 . S
C343 C341 1.387 . S
C343 C345 1.390 . S
C343 H347 0.950 . S
H344 C340 0.950 1_554 S
C345 C343 1.390 . S
C345 C346 1.387 . S
C345 H348 0.950 . S
C346 C345 1.387 . S
C346 C349 1.387 . S
H347 C343 0.950 . S
H348 C345 0.950 . S
C349 C340 1.390 . S
C349 H342 0.950 . S
C349 C346 1.387 . S
C350 C351 1.387 . S
C350 H354 0.950 . S
C350 C359 1.390 . S
C351 C350 1.387 . S
C351 C353 1.387 . S
H352 C359 0.950 . S
C353 C351 1.387 . S
C353 C355 1.390 . S
C353 H357 0.950 . S
H354 C350 0.950 . S
C355 C353 1.390 . S
C355 C356 1.387 . S
C355 H358 0.950 . S
C356 C355 1.387 . S
C356 C359 1.387 . S
H357 C353 0.950 . S
H358 C355 0.950 . S
C359 C350 1.390 . S
C359 H352 0.950 . S
C359 C356 1.387 . S
C360 C361 1.403 . S
C360 H364 0.943 1_566 S
C360 C369 1.381 1_565 S
C361 C360 1.403 . S
C361 C363 1.387 . S
H362 C369 0.950 . S
C363 C361 1.387 . S
C363 C365 1.390 . S
C363 H367 0.950 . S
H364 C360 0.943 1_544 S
C365 C363 1.390 . S
C365 C366 1.387 1_565 S
C365 H368 0.950 . S
C366 C365 1.387 1_545 S
C366 C369 1.387 . S
H367 C363 0.950 . S
H368 C365 0.950 . S
C369 C360 1.381 1_545 S
C369 H362 0.950 . S
C369 C366 1.387 . S
C370 C371 1.387 . S
C370 H374 0.950 . S
C370 C379 1.390 1_545 S
C371 C370 1.387 . S
C371 C373 1.387 . S
H372 C379 0.950 . S
C373 C371 1.387 . S
C373 C375 1.390 . S
C373 H377 0.950 . S
H374 C370 0.950 . S
C375 C373 1.390 . S
C375 C376 1.387 1_545 S
C375 H378 0.950 . S
C376 C375 1.387 1_565 S
C376 C379 1.387 . S
H377 C373 0.950 . S
H378 C375 0.950 . S
C379 C370 1.390 1_565 S
C379 H372 0.950 . S
C379 C376 1.387 . S
C380 C381 1.387 1_545 S
C380 H384 0.950 1_556 S
C380 C389 1.390 . S
C381 C380 1.387 1_565 S
C381 C383 1.387 . S
H382 C389 0.950 . S
C383 C381 1.387 . S
C383 C385 1.390 . S
C383 H387 0.950 . S
H384 C380 0.950 1_554 S
C385 C383 1.390 . S
C385 C386 1.387 1_565 S
C385 H388 0.950 . S
C386 C385 1.387 1_545 S
C386 C389 1.387 . S
H387 C383 0.950 . S
H388 C385 0.950 . S
C389 C380 1.390 . S
C389 H382 0.950 . S
C389 C386 1.387 . S
C390 C391 1.387 . S
C390 H394 0.950 . S
C390 C399 1.390 1_545 S
C391 C390 1.387 . S
C391 C393 1.387 . S
H392 C399 0.950 . S
C393 C391 1.387 . S
C393 C395 1.390 . S
C393 H397 0.950 . S
H394 C390 0.950 . S
C395 C393 1.390 . S
C395 C396 1.387 1_545 S
C395 H398 0.950 . S
C396 C395 1.387 1_565 S
C396 C399 1.387 . S
H397 C393 0.950 . S
H398 C395 0.950 . S
C399 C390 1.390 1_565 S
C399 H392 0.950 . S
C399 C396 1.387 . S
C400 C401 1.387 . S
C400 H404 0.950 . S
C400 C409 1.390 . S
C401 C400 1.387 . S
C401 C403 1.387 . S
H402 C409 0.950 . S
C403 C401 1.387 . S
C403 C405 1.390 . S
C403 H407 0.950 . S
H404 C400 0.950 . S
C405 C403 1.390 . S
C405 C406 1.387 . S
C405 H408 0.950 . S
C406 C405 1.387 . S
C406 C409 1.387 . S
H407 C403 0.950 . S
H408 C405 0.950 . S
C409 C400 1.390 . S
C409 H402 0.950 . S
C409 C406 1.387 . S
C410 C411 1.387 . S
C410 H414 0.950 . S
C410 C419 1.390 . S
C411 C410 1.387 . S
C411 C413 1.387 . S
H412 C419 0.950 . S
C413 C411 1.387 . S
C413 C415 1.390 . S
C413 H417 0.950 . S
H414 C410 0.950 . S
C415 C413 1.390 . S
C415 C416 1.387 . S
C415 H418 0.950 . S
C416 C415 1.387 . S
C416 C419 1.387 . S
H417 C413 0.950 . S
H418 C415 0.950 . S
C419 C410 1.390 . S
C419 H412 0.950 . S
C419 C416 1.387 . S
C420 C421 1.387 . S
C420 H424 0.950 . S
C420 C429 1.390 . S
C421 C420 1.387 . S
C421 C423 1.387 . S
H422 C429 0.950 . S
C423 C421 1.387 . S
C423 C425 1.390 . S
C423 H427 0.950 . S
H424 C420 0.950 . S
C425 C423 1.390 . S
C425 C426 1.387 . S
C425 H428 0.950 . S
C426 C425 1.387 . S
C426 C429 1.387 . S
H427 C423 0.950 . S
H428 C425 0.950 . S
C429 C420 1.390 . S
C429 H422 0.950 . S
C429 C426 1.387 . S
C430 C431 1.387 . S
C430 H434 0.950 . S
C430 C439 1.390 . S
C431 C430 1.387 . S
C431 C433 1.387 . S
H432 C439 0.950 . S
C433 C431 1.387 . S
C433 C435 1.390 . S
C433 H437 0.950 . S
H434 C430 0.950 . S
C435 C433 1.390 . S
C435 C436 1.387 . S
C435 H438 0.950 . S
C436 C435 1.387 . S
C436 C439 1.387 . S
H437 C433 0.950 . S
H438 C435 0.950 . S
C439 C430 1.390 . S
C439 H432 0.950 . S
C439 C436 1.387 . S
C440 C441 1.387 . S
C440 H444 0.950 . S
C440 C449 1.390 . S
C441 C440 1.387 . S
C441 C443 1.387 . S
H442 C449 0.950 . S
C443 C441 1.387 . S
C443 C445 1.390 . S
C443 H447 0.950 . S
H444 C440 0.950 . S
C445 C443 1.390 . S
C445 C446 1.387 . S
C445 H448 0.950 . S
C446 C445 1.387 . S
C446 C449 1.387 . S
H447 C443 0.950 . S
H448 C445 0.950 . S
C449 C440 1.390 . S
C449 H442 0.950 . S
C449 C446 1.387 . S
C450 C451 1.387 . S
C450 H454 0.950 . S
C450 C459 1.390 . S
C451 C450 1.387 . S
C451 C453 1.387 . S
H452 C459 0.950 . S
C453 C451 1.387 . S
C453 C455 1.390 . S
C453 H457 0.950 . S
H454 C450 0.950 . S
C455 C453 1.390 . S
C455 C456 1.387 . S
C455 H458 0.950 . S
C456 C455 1.387 . S
C456 C459 1.387 . S
H457 C453 0.950 . S
H458 C455 0.950 . S
C459 C450 1.390 . S
C459 H452 0.950 . S
C459 C456 1.387 . S
C460 C461 1.387 . S
C460 H464 0.950 . S
C460 C469 1.390 . S
C461 C460 1.387 . S
C461 C463 1.387 . S
H462 C469 0.950 . S
C463 C461 1.387 . S
C463 C465 1.390 . S
C463 H467 0.950 . S
H464 C460 0.950 . S
C465 C463 1.390 . S
C465 C466 1.387 . S
C465 H468 0.950 . S
C466 C465 1.387 . S
C466 C469 1.387 . S
H467 C463 0.950 . S
H468 C465 0.950 . S
C469 C460 1.390 . S
C469 H462 0.950 . S
C469 C466 1.387 . S
C470 C471 1.387 . S
C470 H474 0.950 . S
C470 C479 1.390 . S
C471 C470 1.387 . S
C471 C473 1.387 . S
H472 C479 0.950 . S
C473 C471 1.387 . S
C473 C475 1.390 . S
C473 H477 0.950 . S
H474 C470 0.950 . S
C475 C473 1.390 . S
C475 C476 1.387 . S
C475 H478 0.950 . S
C476 C475 1.387 . S
C476 C479 1.387 . S
H477 C473 0.950 . S
H478 C475 0.950 . S
C479 C470 1.390 . S
C479 H472 0.950 . S
C479 C476 1.387 . S
C241 C11 1.473 . S
C246 C178 1.533 . S
C256 C156 1.532 . S
C251 C30 1.477 . S
C266 C182 1.534 . S
C261 C49 1.371 . S
C276 C160 1.532 . S
C271 C68 1.364 . S
C286 C222 1.532 . S
C281 C87 1.476 . S
C296 C200 1.535 . S
C291 C106 1.474 . S
C301 C125 1.369 . S
C306 C226 1.534 . S
C316 C204 1.534 . S
C311 C144 1.369 . S
C321 C2 1.541 . S
C326 C227 1.588 . S
C336 C205 1.588 . S
C331 C21 1.541 . S
C341 C40 1.536 . S
C346 C224 1.589 . S
C351 C59 1.536 . S
C356 C202 1.589 . S
C366 C183 1.588 . S
C361 C78 1.542 . S
C371 C97 1.541 . S
C376 C161 1.586 . S
C386 C180 1.589 . S
C381 C116 1.535 . S
C396 C158 1.589 . S
C391 C135 1.538 . S
C406 C201 1.514 . S
C401 C6 1.523 . S
C416 C223 1.514 . S
C411 C25 1.523 . S
C421 C44 1.518 . S
C426 C203 1.514 . S
C436 C225 1.514 . S
C431 C63 1.518 . S
C446 C157 1.516 . S
C441 C82 1.523 . S
C451 C101 1.521 . S
C456 C179 1.514 . S
C461 C120 1.518 . S
C466 C159 1.512 . S
C471 C139 1.518 . S
C476 C181 1.516 . S
