# Generated by pormake.
# Topology sit, (3,6)-cn, num edge types: 1
# Building blocks:
#     Node 0, Type 0, BuildingBlock: QEWDON_clean_linker_0, # of connection points: 3
#     Node 1, Type 0, BuildingBlock: QEWDON_clean_linker_0, # of connection points: 3
#     Node 2, Type 0, BuildingBlock: QEWDON_clean_linker_0, # of connection points: 3
#     Node 3, Type 0, BuildingBlock: QEWDON_clean_linker_0, # of connection points: 3
#     Node 4, Type 1, BuildingBlock: MIDCAF_clean_sbu_0, # of connection points: 6
#     Node 5, Type 1, BuildingBlock: MIDCAF_clean_sbu_0, # of connection points: 6
#     Edge 6, Type (0, 1), BuildingBlock: TEMPAE_clean_linker_10, # of connection points: 2
#     Edge 7, Type (0, 1), BuildingBlock: TEMPAE_clean_linker_10, # of connection points: 2
#     Edge 8, Type (0, 1), BuildingBlock: TEMPAE_clean_linker_10, # of connection points: 2
#     Edge 9, Type (0, 1), BuildingBlock: TEMPAE_clean_linker_10, # of connection points: 2
#     Edge 10, Type (0, 1), BuildingBlock: TEMPAE_clean_linker_10, # of connection points: 2
#     Edge 11, Type (0, 1), BuildingBlock: TEMPAE_clean_linker_10, # of connection points: 2
#     Edge 12, Type (0, 1), BuildingBlock: TEMPAE_clean_linker_10, # of connection points: 2
#     Edge 13, Type (0, 1), BuildingBlock: TEMPAE_clean_linker_10, # of connection points: 2
#     Edge 14, Type (0, 1), BuildingBlock: TEMPAE_clean_linker_10, # of connection points: 2
#     Edge 15, Type (0, 1), BuildingBlock: TEMPAE_clean_linker_10, # of connection points: 2
#     Edge 16, Type (0, 1), BuildingBlock: TEMPAE_clean_linker_10, # of connection points: 2
#     Edge 17, Type (0, 1), BuildingBlock: TEMPAE_clean_linker_10, # of connection points: 2
# Relax obj value: 0.077
# Max RMSD: 0.184
# Mean RMSD: 0.150
data_MOF--net-sit--node1-MIDCAF_clean_sbu_0--node2-QEWDON_clean_linker_0--edge1-TEMPAE_clean_linker_10
_symmetry_space_group_name_H-M    P1
_symmetry_Int_Tables_number       1
_symmetry_cell_setting            triclinic
loop_
_symmetry_equiv_pos_as_xyz
'x, y, z'
_cell_length_a     20.806053
_cell_length_b     35.324524
_cell_length_c     39.73054
_cell_angle_alpha  89.629658
_cell_angle_beta   85.73551
_cell_angle_gamma 83.559291
loop_
_atom_site_label
_atom_site_type_symbol
_atom_site_fract_x
_atom_site_fract_y
_atom_site_fract_z
_atom_type_partial_charge
H0 H 0.15699 0.30746 0.02656 0.0
C1 C 0.11671 0.32965 0.02559 0.0
C2 C 0.1286 0.36706 0.01717 0.0
C3 C 0.05275 0.32038 0.03022 0.0
H4 H 0.08653 0.42284 0.00412 0.0
C5 C 0.07631 0.39503 0.01332 0.0
C6 C 0.01201 0.38622 0.01708 0.0
C7 C 0.00084 0.3489 0.02671 0.0
C8 C 0.03988 0.28 0.03246 0.0
H9 H 0.95178 0.34122 0.02974 0.0
C10 C 0.05587 0.25717 0.06047 0.0
C11 C 0.04297 0.21873 0.06172 0.0
C12 C 0.01131 0.26414 0.00572 0.0
H13 H -0.00121 0.28121 0.9839 0.0
C14 C -0.00067 0.2261 0.00667 0.0
H15 H 0.07781 0.26932 0.0812 0.0
C16 C 0.01503 0.20348 0.03442 0.0
H17 H 0.00406 0.17421 0.03485 0.0
H18 H 0.97742 0.21414 0.98589 0.0
H19 H 0.09214 0.69159 0.08094 0.0
C20 C 0.05274 0.68965 0.06489 0.0
C21 C 0.06163 0.66497 0.03682 0.0
C22 C -0.00863 0.7099 0.0733 0.0
H23 H 0.01685 0.64379 0.99449 0.0
C24 C 0.01011 0.66226 0.0165 0.0
C25 C 0.94966 0.68269 0.02433 0.0
C26 C 0.94001 0.7062 0.05284 0.0
C27 C 0.97754 0.73108 0.1055 0.0
H28 H 0.89232 0.72111 0.05941 0.0
C29 C 0.00866 0.76332 0.1126 0.0
C30 C -0.00818 0.78358 0.14311 0.0
C31 C 0.93019 0.71922 0.12904 0.0
H32 H 0.9058 0.69452 0.12403 0.0
C33 C 0.91365 0.73903 0.15913 0.0
H34 H 0.04511 0.77266 0.09447 0.0
C35 C 0.94386 0.77101 0.16609 0.0
H36 H 0.92888 0.78631 0.18942 0.0
H37 H 0.87684 0.72976 0.17703 0.0
H38 H 0.72279 0.82941 0.53878 0.0
C39 C 0.67476 0.83855 0.53085 0.0
C40 C 0.65778 0.87694 0.52234 0.0
C41 C 0.6315 0.81124 0.5272 0.0
H42 H 0.58228 0.91703 0.50454 0.0
C43 C 0.5957 0.88769 0.51152 0.0
C44 C 0.55311 0.86059 0.50602 0.0
C45 C 0.57075 0.82238 0.51478 0.0
C46 C 0.65433 0.7703 0.53055 0.0
H47 H 0.53959 0.80081 0.50967 0.0
C48 C 0.62913 0.74814 0.55686 0.0
C49 C 0.65147 0.70903 0.55937 0.0
C50 C 0.70161 0.7532 0.50667 0.0
H51 H 0.72147 0.76982 0.48621 0.0
C52 C 0.72312 0.71447 0.50875 0.0
H53 H 0.59265 0.76134 0.57534 0.0
C54 C 0.6983 0.69248 0.53486 0.0
H55 H 0.71689 0.66267 0.53634 0.0
H56 H 0.75952 0.7015 0.49017 0.0
H57 H 0.60764 0.22558 0.5671 0.0
C58 C 0.57673 0.20685 0.55641 0.0
C59 C 0.60529 0.17698 0.53515 0.0
C60 C 0.50878 0.21209 0.56368 0.0
H61 H 0.58903 0.12952 0.50446 0.0
C62 C 0.5667 0.15185 0.5216 0.0
C63 C 0.4994 0.15727 0.52737 0.0
C64 C 0.47069 0.18758 0.54799 0.0
C65 C 0.47664 0.24276 0.58723 0.0
H66 H 0.41828 0.19216 0.55127 0.0
C67 C 0.50284 0.27764 0.59139 0.0
C68 C 0.47023 0.30618 0.61314 0.0
C69 C 0.41835 0.23698 0.60609 0.0
H70 H 0.39788 0.21021 0.60517 0.0
C71 C 0.38566 0.26541 0.62703 0.0
H72 H 0.54781 0.28302 0.57767 0.0
C73 C 0.41109 0.2998 0.63044 0.0
H74 H 0.38566 0.32093 0.64776 0.0
H75 H 0.34088 0.26047 0.64118 0.0
Zn76 Zn 0.11955 0.09962 0.34719 0.0
Zn77 Zn 0.05754 0.95862 0.34343 0.0
Zn78 Zn 0.08592 0.02969 0.34599 0.0
C79 C 0.06639 0.98331 0.27729 0.0
C80 C 0.9591 0.99964 0.38424 0.0
O81 O 0.17699 0.02938 0.37201 0.0
O82 O 0.20391 0.08808 0.36622 0.0
C83 C 0.10683 0.08382 0.27998 0.0
O84 O 0.0805 1.01374 0.29157 0.0
O85 O 0.05306 0.95492 0.29473 0.0
O86 O 0.97523 0.9668 0.37198 0.0
O87 O -0.00588 0.02685 0.37718 0.0
O88 O 0.12012 0.11023 0.2986 0.0
O89 O 0.09291 0.05186 0.29299 0.0
O90 O 0.00886 0.06469 0.37636 0.0
O91 O 0.04521 0.1211 0.37866 0.0
C92 C 0.00259 0.09933 0.38714 0.0
O93 O 0.16064 0.99164 0.37021 0.0
O94 O 0.13527 0.93296 0.36369 0.0
C95 C 0.21583 0.0545 0.37676 0.0
C96 C 0.17213 0.95536 0.37459 0.0
Zn97 Zn 0.50594 0.60614 0.84029 0.0
Zn98 Zn 0.61491 0.46678 0.84685 0.0
Zn99 Zn 0.56006 0.53515 0.84441 0.0
C100 C 0.57881 0.47607 0.78162 0.0
C101 C 0.50231 0.47051 0.89026 0.0
O102 O 0.62631 0.57075 0.86605 0.0
O103 O 0.57336 0.62863 0.86479 0.0
C104 C 0.53391 0.58146 0.77435 0.0
O105 O 0.56521 0.51068 0.79225 0.0
O106 O 0.60027 0.45032 0.80129 0.0
O107 O 0.55512 0.44953 0.88409 0.0
O108 O 0.49322 0.50344 0.87615 0.0
O109 O 0.50802 0.61031 0.79084 0.0
O110 O 0.5552 0.55084 0.78985 0.0
O111 O 0.46683 0.54237 0.8762 0.0
O112 O 0.42266 0.60075 0.86563 0.0
C113 C 0.42015 0.56948 0.88089 0.0
O114 O 0.65242 0.53193 0.86988 0.0
O115 O 0.70313 0.47473 0.85789 0.0
C116 C 0.62215 0.60663 0.87261 0.0
C117 C 0.70216 0.50688 0.87161 0.0
C118 C 0.03491 0.20816 0.12419 0.0
C119 C 0.05616 0.19459 0.09176 0.0
C120 C 0.04373 0.18494 0.15268 0.0
C121 C 0.07548 0.14739 0.14872 0.0
C122 C 0.0972 0.13355 0.11601 0.0
C123 C 0.08696 0.15725 0.08791 0.0
C124 C 0.01932 0.20072 0.18709 0.0
C125 C 0.1322 0.09399 0.11079 0.0
C126 C 0.1528 0.11284 0.22808 0.0
C127 C 0.10586 0.09155 0.24349 0.0
C128 C 0.14579 0.12877 0.19602 0.0
C129 C 0.08968 0.12395 0.17919 0.0
C130 C 0.04437 0.10011 0.19356 0.0
C131 C 0.05327 0.0839 0.22561 0.0
C132 C 0.19622 0.15305 0.18133 0.0
C133 C 0.98395 0.09418 0.17645 0.0
H134 H 0.01016 0.23675 0.12721 0.0
H135 H 0.1037 0.14671 0.06285 0.0
H136 H -0.01313 0.18146 0.20008 0.0
H137 H 0.06078 0.2023 0.20286 0.0
H138 H -0.00758 0.22962 0.18569 0.0
H139 H 0.14334 0.08687 0.08363 0.0
H140 H 0.17834 0.09159 0.12337 0.0
H141 H 0.10251 0.07255 0.12252 0.0
H142 H 0.19374 0.11854 0.24189 0.0
H143 H 0.01668 0.06771 0.23765 0.0
H144 H 0.1759 0.18347 0.1823 0.0
H145 H 0.20977 0.14561 0.15446 0.0
H146 H 0.24078 0.14977 0.19533 0.0
H147 H 0.94943 0.12051 0.17892 0.0
H148 H 0.95963 0.07019 0.18781 0.0
H149 H -0.00464 0.08851 0.14911 0.0
C150 C 0.02658 0.84837 0.12855 0.0
C151 C 0.02189 0.81833 0.15161 0.0
C152 C 0.04345 0.88386 0.13892 0.0
C153 C 0.05463 0.88946 0.17322 0.0
C154 C 0.0545 0.85822 0.19585 0.0
C155 C 0.03899 0.82311 0.18463 0.0
C156 C 0.04557 0.91561 0.11346 0.0
C157 C 0.06649 0.86236 0.23267 0.0
C158 C 0.1224 0.96382 0.22232 0.0
C159 C 0.06537 0.97921 0.24057 0.0
C160 C 0.11976 0.93857 0.19531 0.0
C161 C 0.0589 0.92814 0.18733 0.0
C162 C 0.00146 0.94909 0.2017 0.0
C163 C 0.00551 0.97463 0.22817 0.0
C164 C 0.18214 0.91903 0.17878 0.0
C165 C 0.93538 0.94007 0.19318 0.0
H166 H 0.0138 0.84487 0.10288 0.0
H167 H 0.03718 0.79967 0.20231 0.0
H168 H -0.00405 0.93038 0.11187 0.0
H169 H 0.07775 0.93687 0.12041 0.0
H170 H 0.06247 0.90411 0.08798 0.0
H171 H 0.06523 0.83513 0.24673 0.0
H172 H 0.11446 0.87253 0.23504 0.0
H173 H 0.02911 0.88379 0.24495 0.0
H174 H 0.16888 0.96744 0.2318 0.0
H175 H 0.96138 0.98669 0.24227 0.0
H176 H 0.17677 0.91265 0.15187 0.0
H177 H 0.19514 0.89167 0.19181 0.0
H178 H 0.22259 0.93682 0.18039 0.0
H179 H 0.93373 0.9369 0.16553 0.0
H180 H 0.89647 0.96254 0.20238 0.0
H181 H 0.92523 0.91265 0.20512 0.0
C182 C 0.61234 0.64875 0.58295 0.0
C183 C 0.62874 0.68567 0.58821 0.0
C184 C 0.5946 0.6256 0.61026 0.0
C185 C 0.594 0.63955 0.6436 0.0
C186 C 0.61025 0.67685 0.649 0.0
C187 C 0.62703 0.69949 0.62126 0.0
C188 C 0.5767 0.58625 0.60347 0.0
C189 C 0.61064 0.69277 0.68418 0.0
C190 C 0.49634 0.60563 0.71968 0.0
C191 C 0.54499 0.58572 0.73753 0.0
C192 C 0.51055 0.62044 0.68749 0.0
C193 C 0.57529 0.61585 0.67316 0.0
C194 C 0.62348 0.59294 0.68988 0.0
C195 C 0.60765 0.57807 0.72198 0.0
C196 C 0.45734 0.64386 0.67025 0.0
C197 C 0.69303 0.58716 0.67546 0.0
H198 H 0.61322 0.63802 0.5574 0.0
H199 H 0.64058 0.72773 0.62549 0.0
H200 H 0.61073 0.56451 0.61519 0.0
H201 H 0.52741 0.58322 0.61514 0.0
H202 H 0.57778 0.58004 0.57605 0.0
H203 H 0.62569 0.72197 0.68407 0.0
H204 H 0.56155 0.69365 0.69732 0.0
H205 H 0.64427 0.67398 0.69905 0.0
H206 H 0.44787 0.61167 0.73183 0.0
H207 H 0.64552 0.56325 0.73604 0.0
H208 H 0.45976 0.63667 0.64302 0.0
H209 H 0.46364 0.67452 0.67227 0.0
H210 H 0.40844 0.6395 0.68181 0.0
H211 H 0.69574 0.58048 0.64813 0.0
H212 H 0.72185 0.56387 0.6885 0.0
H213 H 0.71556 0.61387 0.67833 0.0
C214 C 0.55988 0.33805 0.63495 0.0
C215 C 0.49942 0.34121 0.62125 0.0
C216 C 0.57852 0.36827 0.65346 0.0
C217 C 0.53564 0.40228 0.65819 0.0
C218 C 0.47923 0.40745 0.64012 0.0
C219 C 0.46139 0.37667 0.6221 0.0
C220 C 0.63996 0.36185 0.6716 0.0
C221 C 0.43356 0.44376 0.64324 0.0
C222 C 0.51966 0.43442 0.74919 0.0
C223 C 0.55976 0.46366 0.74883 0.0
C224 C 0.50941 0.41562 0.71957 0.0
C225 C 0.54001 0.42639 0.68846 0.0
C226 C 0.57736 0.45771 0.68756 0.0
C227 C 0.58738 0.47585 0.718 0.0
C228 C 0.46851 0.38276 0.72203 0.0
C229 C 0.60964 0.47085 0.65501 0.0
H230 H 0.5896 0.31077 0.63419 0.0
H231 H 0.41506 0.37939 0.61097 0.0
H232 H 0.66578 0.38769 0.67038 0.0
H233 H 0.6275 0.35581 0.69861 0.0
H234 H 0.6732 0.33741 0.66081 0.0
H235 H 0.40154 0.44699 0.622 0.0
H236 H 0.40246 0.44324 0.66714 0.0
H237 H 0.46081 0.46897 0.64399 0.0
H238 H 0.49833 0.42509 0.77315 0.0
H239 H 0.61949 0.49794 0.71782 0.0
H240 H 0.49872 0.35593 0.71416 0.0
H241 H 0.42873 0.38742 0.70486 0.0
H242 H 0.44672 0.37889 0.74804 0.0
H243 H 0.65702 0.45337 0.64978 0.0
H244 H 0.61886 0.50115 0.65667 0.0
H245 H 0.57987 0.4675 0.6334 0.0
C246 C 0.22693 0.35844 0.97732 0.0
C247 C 0.19436 0.37636 0.00603 0.0
C248 C 0.28106 0.37301 0.96106 0.0
C249 C 0.30342 0.40597 0.97414 0.0
C250 C 0.2733 0.42255 0.00451 0.0
C251 C 0.2187 0.40767 0.01998 0.0
C252 C 0.31169 0.35457 0.9287 0.0
C253 C 0.29741 0.45661 0.02017 0.0
C254 C 0.46851 0.42955 0.93831 0.0
C255 C 0.4514 0.45635 0.91338 0.0
C256 C 0.42091 0.41369 0.95902 0.0
C257 C 0.35468 0.4247 0.95448 0.0
C258 C 0.33715 0.45261 0.92999 0.0
C259 C 0.38579 0.46786 0.90955 0.0
C260 C 0.44144 0.3847 0.98534 0.0
C261 C 0.26701 0.46556 0.92465 0.0
H262 H 0.20738 0.33459 0.96628 0.0
H263 H 0.19328 0.42146 0.04222 0.0
H264 H 0.30289 0.37437 0.90731 0.0
H265 H 0.36496 0.34864 0.92989 0.0
H266 H 0.29189 0.32749 0.92332 0.0
H267 H 0.26098 0.47106 0.03911 0.0
H268 H 0.34197 0.44709 0.03299 0.0
H269 H 0.31033 0.47756 1.00066 0.0
H270 H 0.51932 0.42071 0.94147 0.0
H271 H 0.37237 0.48796 0.88987 0.0
H272 H 0.42374 0.35707 0.97986 0.0
H273 H 0.41932 0.39416 0.01058 0.0
H274 H 0.49496 0.38007 0.98637 0.0
H275 H 0.24495 0.44202 0.91317 0.0
H276 H 0.26161 0.49083 0.90786 0.0
H277 H 0.23929 0.47275 0.94912 0.0
C278 C 0.89191 0.69584 0.97234 0.0
C279 C 0.89632 0.6771 1.00332 0.0
C280 C 0.84695 0.68685 0.94986 0.0
C281 C 0.80651 0.65806 0.95857 0.0
C282 C 0.81055 0.6394 0.99014 0.0
C283 C 0.8554 0.6493 0.01226 0.0
C284 C 0.84402 0.70729 0.91643 0.0
C285 C 0.76859 0.60839 1.00015 0.0
C286 C 0.65214 0.65202 0.91488 0.0
C287 C 0.67107 0.62189 0.89219 0.0
C288 C 0.69624 0.66475 0.93606 0.0
C289 C 0.76071 0.64686 0.93449 0.0
C290 C 0.78072 0.61735 0.91075 0.0
C291 C 0.73567 0.60552 0.8896 0.0
C292 C 0.67332 0.69655 0.96082 0.0
C293 C 0.84896 0.59732 0.90851 0.0
H294 H 0.92471 0.71687 0.96544 0.0
H295 H 0.86012 0.63446 0.03608 0.0
H296 H 0.85801 0.68664 0.89552 0.0
H297 H 0.7937 0.7201 0.91314 0.0
H298 H 0.87669 0.73013 0.91418 0.0
H299 H 0.78084 0.59484 0.02451 0.0
H300 H 0.71684 0.62036 1.00237 0.0
H301 H 0.77414 0.58611 0.98031 0.0
H302 H 0.60217 0.66488 0.91685 0.0
H303 H 0.75087 0.58335 0.8711 0.0
H304 H 0.70557 0.71952 0.95796 0.0
H305 H 0.67567 0.68561 0.98699 0.0
H306 H 0.62277 0.709 0.95742 0.0
H307 H 0.88494 0.61829 0.90731 0.0
H308 H 0.85887 0.5783 0.88613 0.0
H309 H 0.85641 0.57986 0.93151 0.0
C310 C 0.90994 0.40056 0.98731 0.0
C311 C 0.95885 0.4139 0.00501 0.0
C312 C 0.8668 0.42558 0.97014 0.0
C313 C 0.87359 0.46504 0.96966 0.0
C314 C 0.91989 0.47922 0.98908 0.0
C315 C 0.96139 0.45352 0.00694 0.0
C316 C 0.81685 0.40923 0.95045 0.0
C317 C 0.92874 0.52107 0.98918 0.0
C318 C 0.81628 0.49901 0.88649 0.0
C319 C 0.7511 0.51101 0.89572 0.0
C320 C 0.85998 0.48924 0.91114 0.0
C321 C 0.83681 0.4898 0.94561 0.0
C322 C 0.77277 0.50611 0.95507 0.0
C323 C 0.73072 0.51717 0.92984 0.0
C324 C 0.92874 0.4737 0.90002 0.0
C325 C 0.74587 0.50708 0.99141 0.0
H326 H 0.9075 0.37026 0.9849 0.0
H327 H -0.00227 0.46444 0.02121 0.0
H328 H 0.76853 0.42573 0.95547 0.0
H329 H 0.83063 0.41111 0.92302 0.0
H330 H 0.81257 0.3789 0.9568 0.0
H331 H 0.9576 0.52849 0.01013 0.0
H332 H 0.95456 0.52843 0.96499 0.0
H333 H 0.88128 0.53894 0.99126 0.0
H334 H 0.83192 0.49454 0.86002 0.0
H335 H 0.68004 0.52638 0.9369 0.0
H336 H 0.9335 0.44211 0.90111 0.0
H337 H 0.96332 0.48368 0.91702 0.0
H338 H 0.94254 0.48228 0.87375 0.0
H339 H 0.73153 0.4786 0.99849 0.0
H340 H 0.70235 0.5283 0.9954 0.0
H341 H 0.78271 0.51383 0.00857 0.0
C342 C 0.12378 0.60263 0.02079 0.0
C343 C 0.12381 0.6416 0.02746 0.0
C344 C 0.17598 0.58213 1.00215 0.0
C345 C 0.22919 0.60118 0.9899 0.0
C346 C 0.23261 0.63933 1.0 0.0
C347 C 0.17962 0.65918 0.01875 0.0
C348 C 0.17091 0.54134 0.99273 0.0
C349 C 0.28917 0.66045 0.988 0.0
C350 C 0.3809 0.55576 0.93999 0.0
C351 C 0.36714 0.56725 0.90723 0.0
C352 C 0.33478 0.56421 0.96738 0.0
C353 C 0.27395 0.5845 0.96154 0.0
C354 C 0.25807 0.59283 0.92802 0.0
C355 C 0.30509 0.58432 0.90131 0.0
C356 C 0.35354 0.55434 1.00257 0.0
C357 C 0.19322 0.61361 0.92049 0.0
H358 H 0.0807 0.58892 0.02795 0.0
H359 H 0.1796 0.68928 0.02395 0.0
H360 H 0.15405 0.54036 0.96694 0.0
H361 H 0.21881 0.52416 0.99257 0.0
H362 H 0.13593 0.52813 0.01037 0.0
H363 H 0.28889 0.68778 1.00173 0.0
H364 H 0.33571 0.64268 0.99128 0.0
H365 H 0.28694 0.66674 0.96068 0.0
H366 H 0.42924 0.54286 0.94459 0.0
H367 H 0.29463 0.59311 0.8759 0.0
H368 H 0.31118 0.54768 0.01929 0.0
H369 H 0.37311 0.57908 0.01353 0.0
H370 H 0.39177 0.52968 1.00234 0.0
H371 H 0.15313 0.59936 0.93314 0.0
H372 H 0.18669 0.61503 0.89299 0.0
H373 H 0.18902 0.64313 0.93047 0.0
C374 C 0.69019 0.94367 0.52157 0.0
C375 C 0.70755 0.9042 0.51737 0.0
C376 C 0.72893 0.97011 0.50638 0.0
C377 C 0.78698 0.9567 0.48729 0.0
C378 C 0.8089 0.91722 0.48695 0.0
C379 C 0.76876 0.89148 0.50176 0.0
C380 C 0.70436 1.01195 0.50806 0.0
C381 C 0.87154 0.90163 0.46768 0.0
C382 C 0.84558 0.99228 0.40287 0.0
C383 C 0.90496 1.00389 0.41027 0.0
C384 C 0.80165 0.98179 0.42873 0.0
C385 C 0.8189 0.98179 0.46258 0.0
C386 C 0.87514 0.99812 0.47037 0.0
C387 C 0.91764 1.00929 0.44392 0.0
C388 C 0.74093 0.96596 0.41931 0.0
C389 C 0.8948 0.99939 0.50608 0.0
H390 H 0.64392 0.95392 0.53457 0.0
H391 H 0.78311 0.86125 0.49822 0.0
H392 H 0.74486 0.02973 0.50878 0.0
H393 H 0.67847 0.02 0.4852 0.0
H394 H 0.66992 1.01863 0.53051 0.0
H395 H 0.88572 0.87119 0.47362 0.0
H396 H 0.86582 0.90409 0.44017 0.0
H397 H 0.91155 0.91821 0.47351 0.0
H398 H 0.83598 0.98831 0.37674 0.0
H399 H 0.96385 1.01828 0.44953 0.0
H400 H 0.69886 0.97662 0.4368 0.0
H401 H 0.74769 0.93442 0.42129 0.0
H402 H 0.72942 0.97362 0.39309 0.0
H403 H 0.85185 1.00426 0.52444 0.0
H404 H 0.92678 0.0221 0.50919 0.0
H405 H 0.92207 0.9717 0.5122 0.0
C406 C 0.47289 0.09362 0.50827 0.0
C407 C 0.45938 0.13347 0.50892 0.0
C408 C 0.43854 0.0712 0.48845 0.0
C409 C 0.39015 0.08925 0.46871 0.0
C410 C 0.37623 0.12949 0.46952 0.0
C411 C 0.41073 0.15103 0.48978 0.0
C412 C 0.45366 0.02839 0.48895 0.0
C413 C 0.32566 0.15 0.44843 0.0
C414 C 0.3307 0.05236 0.38937 0.0
C415 C 0.2666 0.04798 0.40043 0.0
C416 C 0.3748 0.0615 0.41229 0.0
C417 C 0.35344 0.06692 0.4468 0.0
C418 C 0.29071 0.05854 0.45844 0.0
C419 C 0.2477 0.04955 0.43497 0.0
C420 C 0.44153 0.06982 0.39894 0.0
C421 C 0.2667 0.06318 0.49513 0.0
H422 H 0.5105 0.08004 0.52321 0.0
H423 H 0.4011 0.18184 0.48981 0.0
H424 H 0.41414 1.01594 0.50398 0.0
H425 H 0.45635 1.0163 0.46312 0.0
H426 H 0.50003 1.01935 0.50042 0.0
H427 H 0.32176 0.18143 0.45148 0.0
H428 H 0.33775 0.14301 0.42135 0.0
H429 H 0.27749 0.14048 0.45559 0.0
H430 H 0.34467 0.05195 0.36251 0.0
H431 H 0.19743 0.04735 0.44334 0.0
H432 H 0.47875 0.05763 0.41576 0.0
H433 H 0.4431 0.10112 0.39815 0.0
H434 H 0.45434 0.05826 0.37307 0.0
H435 H 0.30339 0.04928 0.51147 0.0
H436 H 0.22023 0.05088 0.50077 0.0
H437 H 0.25896 0.0939 0.50176 0.0
C438 C 0.43603 0.85662 0.49518 0.0
C439 C 0.4946 0.87197 0.48723 0.0
C440 C 0.38108 0.86781 0.47738 0.0
C441 C 0.3847 0.8954 0.45146 0.0
C442 C 0.44354 0.91093 0.44331 0.0
C443 C 0.49792 0.89847 0.46074 0.0
C444 C 0.31897 0.85057 0.48657 0.0
C445 C 0.44905 0.94095 0.41625 0.0
C446 C 0.266 0.90691 0.38315 0.0
C447 C 0.22596 0.93961 0.39426 0.0
C448 C 0.31678 0.89135 0.40212 0.0
C449 C 0.327 0.9088 0.43298 0.0
C450 C 0.2849 0.94096 0.44485 0.0
C451 C 0.23467 0.95588 0.42532 0.0
C452 C 0.3603 0.85678 0.38883 0.0
C453 C 0.29392 0.9603 0.47767 0.0
H454 H 0.43287 0.83624 0.51558 0.0
H455 H 0.54339 0.90953 0.45337 0.0
H456 H 0.28043 0.87315 0.49581 0.0
H457 H 0.30205 0.83766 0.4639 0.0
H458 H 0.32483 0.82837 0.50638 0.0
H459 H 0.49794 0.95095 0.41368 0.0
H460 H 0.43867 0.92942 0.39157 0.0
H461 H 0.41263 0.9659 0.42215 0.0
H462 H 0.25816 0.89392 0.35936 0.0
H463 H 0.20119 0.97982 0.4346 0.0
H464 H 0.36346 0.83423 0.4084 0.0
H465 H 0.41009 0.86448 0.38274 0.0
H466 H 0.34289 0.84494 0.36577 0.0
H467 H 0.30373 0.93911 0.49789 0.0
H468 H 0.2507 0.98016 0.48622 0.0
H469 H 0.33644 0.97664 0.4742 0.0
C470 C 0.71628 0.14248 0.53165 0.0
C471 C 0.67395 0.17387 0.52257 0.0
C472 C 0.77492 0.13223 0.51241 0.0
C473 C 0.79025 0.15336 0.48306 0.0
C474 C 0.74927 0.18645 0.47506 0.0
C475 C 0.6917 0.19649 0.49516 0.0
C476 C 0.81866 0.0976 0.52231 0.0
C477 C 0.76322 0.20931 0.44364 0.0
C478 C 0.95737 0.13912 0.43669 0.0
C479 C 0.94805 0.11321 0.41139 0.0
C480 C 0.90684 0.1519 0.46068 0.0
C481 C 0.84536 0.13887 0.45892 0.0
C482 C 0.83571 0.11266 0.43337 0.0
C483 C 0.88728 0.10021 0.40986 0.0
C484 C 0.9193 0.17916 0.48795 0.0
C485 C 0.77091 0.09782 0.4308 0.0
H486 H 0.70164 0.12474 0.55258 0.0
H487 H 0.65788 0.22019 0.48781 0.0
H488 H 0.82594 0.07667 0.50135 0.0
H489 H 0.86708 0.1059 0.527 0.0
H490 H 0.79885 0.08354 0.54529 0.0
H491 H 0.72985 0.23609 0.44269 0.0
H492 H 0.81384 0.21657 0.44214 0.0
H493 H 0.75787 0.19196 0.42104 0.0
H494 H 0.00465 0.14894 0.43808 0.0
H495 H 0.87979 0.08074 0.38993 0.0
H496 H 0.90773 0.1669 0.51316 0.0
H497 H 0.88714 0.20623 0.48607 0.0
H498 H 0.97043 0.18569 0.48637 0.0
H499 H 0.75811 0.08182 0.45401 0.0
H500 H 0.77094 0.07862 0.40876 0.0
H501 H 0.73241 0.12196 0.42868 0.0
loop_
_geom_bond_atom_site_label_1
_geom_bond_atom_site_label_2
_geom_bond_distance
_geom_bond_site_symmetry_2
_ccdc_geom_bond_type
H0 C1 0.949 . S
C1 H0 0.949 . S
C1 C2 1.395 1_554 S
C1 C3 1.391 . S
C2 C1 1.395 1_556 S
C2 C5 1.390 . S
C3 C1 1.391 . S
C3 C7 1.387 . S
C3 C8 1.491 . S
H4 C5 0.950 . S
C5 C2 1.390 . S
C5 H4 0.950 . S
C5 C6 1.378 . S
C6 C5 1.378 . S
C6 C7 1.409 1_556 S
C7 C3 1.387 . S
C7 C6 1.409 1_554 S
C7 H9 0.951 . S
C8 C3 1.491 . S
C8 C10 1.382 . S
C8 C12 1.404 . S
H9 C7 0.951 . S
C10 C8 1.382 . S
C10 C11 1.390 . S
C10 H15 0.949 . S
C11 C10 1.390 . S
C11 C16 1.399 . S
C12 C8 1.404 . S
C12 H13 0.950 . S
C12 C14 1.375 . S
H13 C12 0.950 . S
C14 C12 1.375 . S
C14 C16 1.382 . S
C14 H18 0.950 . S
H15 C10 0.949 . S
C16 C11 1.399 . S
C16 C14 1.382 . S
C16 H17 0.952 . S
H17 C16 0.952 . S
H18 C14 0.950 . S
H19 C20 0.949 . S
C20 H19 0.949 . S
C20 C21 1.395 1_554 S
C20 C22 1.391 1_455 S
C21 C20 1.395 1_556 S
C21 C24 1.390 . S
C22 C20 1.391 1_655 S
C22 C26 1.387 . S
C22 C27 1.491 . S
H23 C24 0.950 . S
C24 C21 1.390 . S
C24 H23 0.950 . S
C24 C25 1.378 1_455 S
C25 C24 1.378 1_655 S
C25 C26 1.409 1_556 S
C26 C22 1.387 . S
C26 C25 1.409 1_554 S
C26 H28 0.951 . S
C27 C22 1.491 . S
C27 C29 1.372 1_655 S
C27 C31 1.404 . S
H28 C26 0.951 . S
C29 C27 1.372 1_455 S
C29 C30 1.389 1_455 S
C29 H34 0.960 . S
C30 C29 1.389 1_655 S
C30 C35 1.399 . S
C31 C27 1.404 . S
C31 H32 0.950 . S
C31 C33 1.375 . S
H32 C31 0.950 . S
C33 C31 1.375 . S
C33 C35 1.382 . S
C33 H37 0.950 . S
H34 C29 0.960 . S
C35 C30 1.399 . S
C35 C33 1.382 . S
C35 H36 0.952 . S
H36 C35 0.952 . S
H37 C33 0.950 . S
H38 C39 0.949 . S
C39 H38 0.949 . S
C39 C40 1.395 . S
C39 C41 1.391 . S
C40 C39 1.395 . S
C40 C43 1.390 . S
C41 C39 1.391 . S
C41 C45 1.387 . S
C41 C46 1.491 . S
H42 C43 0.950 . S
C43 C40 1.390 . S
C43 H42 0.950 . S
C43 C44 1.378 . S
C44 C43 1.378 . S
C44 C45 1.409 . S
C45 C41 1.387 . S
C45 C44 1.409 . S
C45 H47 0.951 . S
C46 C41 1.491 . S
C46 C48 1.382 . S
C46 C50 1.404 . S
H47 C45 0.951 . S
C48 C46 1.382 . S
C48 C49 1.390 . S
C48 H53 0.949 . S
C49 C48 1.390 . S
C49 C54 1.399 . S
C50 C46 1.404 . S
C50 H51 0.950 . S
C50 C52 1.375 . S
H51 C50 0.950 . S
C52 C50 1.375 . S
C52 C54 1.382 . S
C52 H56 0.950 . S
H53 C48 0.949 . S
C54 C49 1.399 . S
C54 C52 1.382 . S
C54 H55 0.952 . S
H55 C54 0.952 . S
H56 C52 0.950 . S
H57 C58 0.949 . S
C58 H57 0.949 . S
C58 C59 1.395 . S
C58 C60 1.391 . S
C59 C58 1.395 . S
C59 C62 1.390 . S
C60 C58 1.391 . S
C60 C64 1.387 . S
C60 C65 1.491 . S
H61 C62 0.950 . S
C62 C59 1.390 . S
C62 H61 0.950 . S
C62 C63 1.378 . S
C63 C62 1.378 . S
C63 C64 1.409 . S
C64 C60 1.387 . S
C64 C63 1.409 . S
C64 H66 0.951 . S
C65 C60 1.491 . S
C65 C67 1.382 . S
C65 C69 1.404 . S
H66 C64 0.951 . S
C67 C65 1.382 . S
C67 C68 1.390 . S
C67 H72 0.949 . S
C68 C67 1.390 . S
C68 C73 1.399 . S
C69 C65 1.404 . S
C69 H70 0.950 . S
C69 C71 1.375 . S
H70 C69 0.950 . S
C71 C69 1.375 . S
C71 C73 1.382 . S
C71 H75 0.950 . S
H72 C67 0.949 . S
C73 C68 1.399 . S
C73 C71 1.382 . S
C73 H74 0.952 . S
H74 C73 0.952 . S
H75 C71 0.950 . S
Zn76 O82 1.920 . S
Zn76 O88 1.898 . S
Zn76 O91 1.905 1_455 S
Zn77 O85 1.905 . S
Zn77 O86 1.898 . S
Zn77 O94 1.920 . S
Zn78 O81 2.080 . S
Zn78 O84 2.114 1_545 S
Zn78 O87 2.120 1_545 S
Zn78 O89 2.120 . S
Zn78 O90 2.114 1_455 S
Zn78 O93 2.080 1_545 S
C79 O84 1.166 . S
C79 O85 1.182 . S
C80 O86 1.167 . S
C80 O87 1.299 . S
O81 Zn78 2.080 . S
O81 C95 1.305 . S
O82 Zn76 1.920 . S
O82 C95 1.234 . S
C83 O88 1.167 . S
C83 O89 1.299 . S
O84 Zn78 2.114 1_565 S
O84 C79 1.166 . S
O85 Zn77 1.905 . S
O85 C79 1.182 . S
O86 Zn77 1.898 . S
O86 C80 1.167 . S
O87 Zn78 2.120 1_565 S
O87 C80 1.299 . S
O88 Zn76 1.898 . S
O88 C83 1.167 . S
O89 Zn78 2.120 . S
O89 C83 1.299 . S
O90 Zn78 2.114 1_655 S
O90 C92 1.166 . S
O91 Zn76 1.905 1_655 S
O91 C92 1.182 . S
C92 O90 1.166 . S
C92 O91 1.182 . S
O93 Zn78 2.080 1_565 S
O93 C96 1.305 . S
O94 Zn77 1.920 . S
O94 C96 1.234 . S
C95 O81 1.305 . S
C95 O82 1.234 . S
C96 O93 1.305 . S
C96 O94 1.234 . S
Zn97 O103 1.920 . S
Zn97 O109 1.898 . S
Zn97 O112 1.905 . S
Zn98 O106 1.905 . S
Zn98 O107 1.898 . S
Zn98 O115 1.920 . S
Zn99 O102 2.080 . S
Zn99 O105 2.114 . S
Zn99 O108 2.120 . S
Zn99 O110 2.120 . S
Zn99 O111 2.114 . S
Zn99 O114 2.080 . S
C100 O105 1.166 . S
C100 O106 1.182 . S
C101 O107 1.167 . S
C101 O108 1.299 . S
O102 Zn99 2.080 . S
O102 C116 1.305 . S
O103 Zn97 1.920 . S
O103 C116 1.234 . S
C104 O109 1.167 . S
C104 O110 1.299 . S
O105 Zn99 2.114 . S
O105 C100 1.166 . S
O106 Zn98 1.905 . S
O106 C100 1.182 . S
O107 Zn98 1.898 . S
O107 C101 1.167 . S
O108 Zn99 2.120 . S
O108 C101 1.299 . S
O109 Zn97 1.898 . S
O109 C104 1.167 . S
O110 Zn99 2.120 . S
O110 C104 1.299 . S
O111 Zn99 2.114 . S
O111 C113 1.166 . S
O112 Zn97 1.905 . S
O112 C113 1.182 . S
C113 O111 1.166 . S
C113 O112 1.182 . S
O114 Zn99 2.080 . S
O114 C117 1.305 . S
O115 Zn98 1.920 . S
O115 C117 1.234 . S
C116 O102 1.305 . S
C116 O103 1.234 . S
C117 O114 1.305 . S
C117 O115 1.234 . S
C118 C119 1.391 . S
C118 C120 1.394 . S
C118 H134 0.931 . S
C119 C118 1.391 . S
C119 C123 1.376 . S
C120 C118 1.394 . S
C120 C121 1.369 . S
C120 C124 1.531 . S
C121 C120 1.369 . S
C121 C122 1.410 . S
C121 C129 1.503 . S
C122 C121 1.410 . S
C122 C123 1.392 . S
C122 C125 1.511 . S
C123 C119 1.376 . S
C123 C122 1.392 . S
C123 H135 0.929 . S
C124 C120 1.531 . S
C124 H136 0.960 . S
C124 H137 0.962 . S
C124 H138 0.961 . S
C125 C122 1.511 . S
C125 H139 0.961 . S
C125 H140 0.961 . S
C125 H141 0.961 . S
C126 C127 1.370 . S
C126 C128 1.363 . S
C126 H142 0.931 . S
C127 C126 1.370 . S
C127 C131 1.408 . S
C128 C126 1.363 . S
C128 C129 1.370 . S
C128 C132 1.524 . S
C129 C121 1.503 . S
C129 C128 1.370 . S
C129 C130 1.403 . S
C130 C129 1.403 . S
C130 C131 1.404 . S
C130 C133 1.539 . S
C131 C127 1.408 . S
C131 C130 1.404 . S
C131 H143 0.930 . S
C132 C128 1.524 . S
C132 H144 0.956 . S
C132 H145 0.961 . S
C132 H146 0.961 . S
C133 C130 1.539 . S
C133 H147 0.958 . S
C133 H148 0.961 . S
C133 H149 0.960 . S
H134 C118 0.931 . S
H135 C123 0.929 . S
H136 C124 0.960 . S
H137 C124 0.962 . S
H138 C124 0.961 . S
H139 C125 0.961 . S
H140 C125 0.961 . S
H141 C125 0.961 . S
H142 C126 0.931 . S
H143 C131 0.930 . S
H144 C132 0.956 . S
H145 C132 0.961 . S
H146 C132 0.961 . S
H147 C133 0.958 . S
H148 C133 0.961 . S
H149 C133 0.960 . S
C150 C151 1.391 . S
C150 C152 1.394 . S
C150 H166 0.931 . S
C151 C150 1.391 . S
C151 C155 1.376 1_455 S
C152 C150 1.394 . S
C152 C153 1.369 . S
C152 C156 1.531 . S
C153 C152 1.369 . S
C153 C154 1.410 1_455 S
C153 C161 1.503 . S
C154 C153 1.410 1_655 S
C154 C155 1.392 . S
C154 C157 1.511 . S
C155 C151 1.376 1_655 S
C155 C154 1.392 . S
C155 H167 0.929 . S
C156 C152 1.531 . S
C156 H168 0.960 . S
C156 H169 0.962 . S
C156 H170 0.960 . S
C157 C154 1.511 . S
C157 H171 0.961 . S
C157 H172 0.961 . S
C157 H173 0.961 . S
C158 C159 1.370 . S
C158 C160 1.363 . S
C158 H174 0.931 . S
C159 C158 1.370 . S
C159 C163 1.408 . S
C160 C158 1.363 . S
C160 C161 1.370 . S
C160 C164 1.524 . S
C161 C153 1.503 . S
C161 C160 1.370 . S
C161 C162 1.403 1_455 S
C162 C161 1.403 1_655 S
C162 C163 1.404 1_655 S
C162 C165 1.539 . S
C163 C159 1.408 . S
C163 C162 1.404 1_455 S
C163 H175 0.930 1_455 S
C164 C160 1.524 . S
C164 H176 0.956 . S
C164 H177 0.961 . S
C164 H178 0.961 . S
C165 C162 1.539 . S
C165 H179 0.958 . S
C165 H180 0.961 . S
C165 H181 0.960 . S
H166 C150 0.931 . S
H167 C155 0.929 . S
H168 C156 0.960 . S
H169 C156 0.962 . S
H170 C156 0.960 . S
H171 C157 0.961 . S
H172 C157 0.961 . S
H173 C157 0.961 . S
H174 C158 0.931 . S
H175 C163 0.930 1_655 S
H176 C164 0.956 . S
H177 C164 0.961 . S
H178 C164 0.961 . S
H179 C165 0.958 . S
H180 C165 0.961 . S
H181 C165 0.960 . S
C182 C183 1.391 . S
C182 C184 1.394 . S
C182 H198 0.931 . S
C183 C182 1.391 . S
C183 C187 1.376 . S
C184 C182 1.394 . S
C184 C185 1.369 . S
C184 C188 1.531 . S
C185 C184 1.369 . S
C185 C186 1.410 . S
C185 C193 1.503 . S
C186 C185 1.410 . S
C186 C187 1.392 . S
C186 C189 1.511 . S
C187 C183 1.376 . S
C187 C186 1.392 . S
C187 H199 0.929 . S
C188 C184 1.531 . S
C188 H200 0.960 . S
C188 H201 0.962 . S
C188 H202 0.960 . S
C189 C186 1.511 . S
C189 H203 0.961 . S
C189 H204 0.961 . S
C189 H205 0.961 . S
C190 C191 1.370 . S
C190 C192 1.363 . S
C190 H206 0.931 . S
C191 C190 1.370 . S
C191 C195 1.408 . S
C192 C190 1.363 . S
C192 C193 1.370 . S
C192 C196 1.524 . S
C193 C185 1.503 . S
C193 C192 1.370 . S
C193 C194 1.403 . S
C194 C193 1.403 . S
C194 C195 1.404 . S
C194 C197 1.539 . S
C195 C191 1.408 . S
C195 C194 1.404 . S
C195 H207 0.930 . S
C196 C192 1.524 . S
C196 H208 0.956 . S
C196 H209 0.961 . S
C196 H210 0.961 . S
C197 C194 1.539 . S
C197 H211 0.958 . S
C197 H212 0.961 . S
C197 H213 0.960 . S
H198 C182 0.931 . S
H199 C187 0.929 . S
H200 C188 0.960 . S
H201 C188 0.962 . S
H202 C188 0.960 . S
H203 C189 0.961 . S
H204 C189 0.961 . S
H205 C189 0.961 . S
H206 C190 0.931 . S
H207 C195 0.930 . S
H208 C196 0.956 . S
H209 C196 0.961 . S
H210 C196 0.961 . S
H211 C197 0.958 . S
H212 C197 0.961 . S
H213 C197 0.960 . S
C214 C215 1.391 . S
C214 C216 1.394 . S
C214 H230 0.931 . S
C215 C214 1.391 . S
C215 C219 1.376 . S
C216 C214 1.394 . S
C216 C217 1.369 . S
C216 C220 1.531 . S
C217 C216 1.369 . S
C217 C218 1.410 . S
C217 C225 1.503 . S
C218 C217 1.410 . S
C218 C219 1.392 . S
C218 C221 1.511 . S
C219 C215 1.376 . S
C219 C218 1.392 . S
C219 H231 0.929 . S
C220 C216 1.531 . S
C220 H232 0.960 . S
C220 H233 0.962 . S
C220 H234 0.960 . S
C221 C218 1.511 . S
C221 H235 0.961 . S
C221 H236 0.961 . S
C221 H237 0.961 . S
C222 C223 1.370 . S
C222 C224 1.363 . S
C222 H238 0.931 . S
C223 C222 1.370 . S
C223 C227 1.408 . S
C224 C222 1.363 . S
C224 C225 1.370 . S
C224 C228 1.524 . S
C225 C217 1.503 . S
C225 C224 1.370 . S
C225 C226 1.403 . S
C226 C225 1.403 . S
C226 C227 1.404 . S
C226 C229 1.539 . S
C227 C223 1.408 . S
C227 C226 1.404 . S
C227 H239 0.930 . S
C228 C224 1.524 . S
C228 H240 0.956 . S
C228 H241 0.961 . S
C228 H242 0.961 . S
C229 C226 1.539 . S
C229 H243 0.958 . S
C229 H244 0.961 . S
C229 H245 0.960 . S
H230 C214 0.931 . S
H231 C219 0.929 . S
H232 C220 0.960 . S
H233 C220 0.962 . S
H234 C220 0.960 . S
H235 C221 0.961 . S
H236 C221 0.961 . S
H237 C221 0.961 . S
H238 C222 0.931 . S
H239 C227 0.930 . S
H240 C228 0.956 . S
H241 C228 0.961 . S
H242 C228 0.961 . S
H243 C229 0.958 . S
H244 C229 0.961 . S
H245 C229 0.960 . S
C246 C247 1.391 . S
C246 C248 1.394 . S
C246 H262 0.931 . S
C247 C246 1.391 . S
C247 C251 1.376 . S
C248 C246 1.394 . S
C248 C249 1.369 . S
C248 C252 1.531 . S
C249 C248 1.369 . S
C249 C250 1.410 . S
C249 C257 1.503 . S
C250 C249 1.410 . S
C250 C251 1.392 . S
C250 C253 1.511 . S
C251 C247 1.376 . S
C251 C250 1.392 . S
C251 H263 0.929 . S
C252 C248 1.531 . S
C252 H264 0.960 . S
C252 H265 0.962 . S
C252 H266 0.960 . S
C253 C250 1.511 . S
C253 H267 0.961 . S
C253 H268 0.961 . S
C253 H269 0.961 . S
C254 C255 1.370 . S
C254 C256 1.363 . S
C254 H270 0.931 . S
C255 C254 1.370 . S
C255 C259 1.408 . S
C256 C254 1.363 . S
C256 C257 1.370 . S
C256 C260 1.524 . S
C257 C249 1.503 . S
C257 C256 1.370 . S
C257 C258 1.403 . S
C258 C257 1.403 . S
C258 C259 1.404 . S
C258 C261 1.539 . S
C259 C255 1.408 . S
C259 C258 1.404 . S
C259 H271 0.930 . S
C260 C256 1.524 . S
C260 H272 0.956 1_556 S
C260 H273 0.961 . S
C260 H274 0.961 1_556 S
C261 C258 1.539 . S
C261 H275 0.958 . S
C261 H276 0.961 . S
C261 H277 0.960 . S
H262 C246 0.931 . S
H263 C251 0.929 . S
H264 C252 0.960 . S
H265 C252 0.962 . S
H266 C252 0.960 . S
H267 C253 0.961 . S
H268 C253 0.961 . S
H269 C253 0.961 . S
H270 C254 0.931 . S
H271 C259 0.930 . S
H272 C260 0.956 1_554 S
H273 C260 0.961 . S
H274 C260 0.961 1_554 S
H275 C261 0.958 . S
H276 C261 0.961 . S
H277 C261 0.960 . S
C278 C279 1.391 . S
C278 C280 1.394 . S
C278 H294 0.931 . S
C279 C278 1.391 . S
C279 C283 1.376 . S
C280 C278 1.394 . S
C280 C281 1.369 . S
C280 C284 1.531 . S
C281 C280 1.369 . S
C281 C282 1.410 . S
C281 C289 1.503 . S
C282 C281 1.410 . S
C282 C283 1.392 . S
C282 C285 1.511 . S
C283 C279 1.376 . S
C283 C282 1.392 . S
C283 H295 0.929 . S
C284 C280 1.531 . S
C284 H296 0.960 . S
C284 H297 0.962 . S
C284 H298 0.960 . S
C285 C282 1.511 . S
C285 H299 0.961 . S
C285 H300 0.961 . S
C285 H301 0.961 . S
C286 C287 1.370 . S
C286 C288 1.363 . S
C286 H302 0.931 . S
C287 C286 1.370 . S
C287 C291 1.408 . S
C288 C286 1.363 . S
C288 C289 1.370 . S
C288 C292 1.524 . S
C289 C281 1.503 . S
C289 C288 1.370 . S
C289 C290 1.403 . S
C290 C289 1.403 . S
C290 C291 1.404 . S
C290 C293 1.539 . S
C291 C287 1.408 . S
C291 C290 1.404 . S
C291 H303 0.930 . S
C292 C288 1.524 . S
C292 H304 0.955 1_556 S
C292 H305 0.961 1_556 S
C292 H306 0.961 1_556 S
C293 C290 1.539 . S
C293 H307 0.958 . S
C293 H308 0.961 . S
C293 H309 0.960 . S
H294 C278 0.931 . S
H295 C283 0.929 . S
H296 C284 0.960 . S
H297 C284 0.962 . S
H298 C284 0.960 . S
H299 C285 0.961 . S
H300 C285 0.961 . S
H301 C285 0.961 . S
H302 C286 0.931 . S
H303 C291 0.930 . S
H304 C292 0.955 1_554 S
H305 C292 0.961 1_554 S
H306 C292 0.961 1_554 S
H307 C293 0.958 . S
H308 C293 0.961 . S
H309 C293 0.960 . S
C310 C311 1.391 1_655 S
C310 C312 1.394 . S
C310 H326 0.931 . S
C311 C310 1.391 1_455 S
C311 C315 1.376 . S
C312 C310 1.394 . S
C312 C313 1.369 . S
C312 C316 1.531 . S
C313 C312 1.369 . S
C313 C314 1.410 . S
C313 C321 1.503 . S
C314 C313 1.410 . S
C314 C315 1.392 1_655 S
C314 C317 1.511 . S
C315 C311 1.376 . S
C315 C314 1.392 1_455 S
C315 H327 0.929 . S
C316 C312 1.531 . S
C316 H328 0.960 . S
C316 H329 0.962 . S
C316 H330 0.960 . S
C317 C314 1.511 . S
C317 H331 0.961 1_655 S
C317 H332 0.961 . S
C317 H333 0.961 . S
C318 C319 1.370 . S
C318 C320 1.363 . S
C318 H334 0.931 . S
C319 C318 1.370 . S
C319 C323 1.408 . S
C320 C318 1.363 . S
C320 C321 1.370 . S
C320 C324 1.524 . S
C321 C313 1.503 . S
C321 C320 1.370 . S
C321 C322 1.403 . S
C322 C321 1.403 . S
C322 C323 1.404 . S
C322 C325 1.539 . S
C323 C319 1.408 . S
C323 C322 1.404 . S
C323 H335 0.930 . S
C324 C320 1.524 . S
C324 H336 0.956 . S
C324 H337 0.961 . S
C324 H338 0.961 . S
C325 C322 1.539 . S
C325 H339 0.958 . S
C325 H340 0.961 . S
C325 H341 0.960 . S
H326 C310 0.931 . S
H327 C315 0.929 . S
H328 C316 0.960 . S
H329 C316 0.962 . S
H330 C316 0.960 . S
H331 C317 0.961 1_455 S
H332 C317 0.961 . S
H333 C317 0.961 . S
H334 C318 0.931 . S
H335 C323 0.930 . S
H336 C324 0.956 . S
H337 C324 0.961 . S
H338 C324 0.961 . S
H339 C325 0.958 . S
H340 C325 0.961 . S
H341 C325 0.960 . S
C342 C343 1.391 . S
C342 C344 1.394 . S
C342 H358 0.931 . S
C343 C342 1.391 . S
C343 C347 1.376 . S
C344 C342 1.394 . S
C344 C345 1.369 . S
C344 C348 1.531 . S
C345 C344 1.369 . S
C345 C346 1.410 . S
C345 C353 1.503 . S
C346 C345 1.410 . S
C346 C347 1.392 . S
C346 C349 1.511 . S
C347 C343 1.376 . S
C347 C346 1.392 . S
C347 H359 0.929 . S
C348 C344 1.531 . S
C348 H360 0.960 . S
C348 H361 0.962 . S
C348 H362 0.960 . S
C349 C346 1.511 . S
C349 H363 0.961 . S
C349 H364 0.961 . S
C349 H365 0.961 . S
C350 C351 1.370 . S
C350 C352 1.363 . S
C350 H366 0.931 . S
C351 C350 1.370 . S
C351 C355 1.408 . S
C352 C350 1.363 . S
C352 C353 1.370 . S
C352 C356 1.524 . S
C353 C345 1.503 . S
C353 C352 1.370 . S
C353 C354 1.403 . S
C354 C353 1.403 . S
C354 C355 1.404 . S
C354 C357 1.539 . S
C355 C351 1.408 . S
C355 C354 1.404 . S
C355 H367 0.930 . S
C356 C352 1.524 . S
C356 H368 0.956 . S
C356 H369 0.961 . S
C356 H370 0.961 . S
C357 C354 1.539 . S
C357 H371 0.958 . S
C357 H372 0.961 . S
C357 H373 0.960 . S
H358 C342 0.931 . S
H359 C347 0.929 . S
H360 C348 0.960 . S
H361 C348 0.962 . S
H362 C348 0.960 . S
H363 C349 0.961 . S
H364 C349 0.961 . S
H365 C349 0.961 . S
H366 C350 0.931 . S
H367 C355 0.930 . S
H368 C356 0.956 . S
H369 C356 0.961 . S
H370 C356 0.961 . S
H371 C357 0.958 . S
H372 C357 0.961 . S
H373 C357 0.960 . S
C374 C375 1.391 . S
C374 C376 1.394 . S
C374 H390 0.931 . S
C375 C374 1.391 . S
C375 C379 1.376 . S
C376 C374 1.394 . S
C376 C377 1.369 . S
C376 C380 1.531 . S
C377 C376 1.369 . S
C377 C378 1.410 . S
C377 C385 1.503 . S
C378 C377 1.410 . S
C378 C379 1.392 . S
C378 C381 1.511 . S
C379 C375 1.376 . S
C379 C378 1.392 . S
C379 H391 0.929 . S
C380 C376 1.531 . S
C380 H392 0.960 . S
C380 H393 0.962 . S
C380 H394 0.960 . S
C381 C378 1.511 . S
C381 H395 0.961 . S
C381 H396 0.961 . S
C381 H397 0.961 . S
C382 C383 1.370 . S
C382 C384 1.363 . S
C382 H398 0.931 . S
C383 C382 1.370 . S
C383 C387 1.408 . S
C384 C382 1.363 . S
C384 C385 1.370 . S
C384 C388 1.524 . S
C385 C377 1.503 . S
C385 C384 1.370 . S
C385 C386 1.403 . S
C386 C385 1.403 . S
C386 C387 1.404 . S
C386 C389 1.539 . S
C387 C383 1.408 . S
C387 C386 1.404 . S
C387 H399 0.930 1_655 S
C388 C384 1.524 . S
C388 H400 0.956 . S
C388 H401 0.961 . S
C388 H402 0.961 . S
C389 C386 1.539 . S
C389 H403 0.958 . S
C389 H404 0.961 . S
C389 H405 0.960 . S
H390 C374 0.931 . S
H391 C379 0.929 . S
H392 C380 0.960 . S
H393 C380 0.962 . S
H394 C380 0.960 . S
H395 C381 0.961 . S
H396 C381 0.961 . S
H397 C381 0.961 . S
H398 C382 0.931 . S
H399 C387 0.930 1_455 S
H400 C388 0.956 . S
H401 C388 0.961 . S
H402 C388 0.961 . S
H403 C389 0.958 . S
H404 C389 0.961 . S
H405 C389 0.960 . S
C406 C407 1.391 . S
C406 C408 1.394 . S
C406 H422 0.931 . S
C407 C406 1.391 . S
C407 C411 1.376 . S
C408 C406 1.394 . S
C408 C409 1.369 . S
C408 C412 1.531 . S
C409 C408 1.369 . S
C409 C410 1.410 . S
C409 C417 1.503 . S
C410 C409 1.410 . S
C410 C411 1.392 . S
C410 C413 1.511 . S
C411 C407 1.376 . S
C411 C410 1.392 . S
C411 H423 0.929 . S
C412 C408 1.531 . S
C412 H424 0.960 . S
C412 H425 0.962 . S
C412 H426 0.960 . S
C413 C410 1.511 . S
C413 H427 0.961 . S
C413 H428 0.961 . S
C413 H429 0.961 . S
C414 C415 1.370 . S
C414 C416 1.363 . S
C414 H430 0.931 . S
C415 C414 1.370 . S
C415 C419 1.408 . S
C416 C414 1.363 . S
C416 C417 1.370 . S
C416 C420 1.524 . S
C417 C409 1.503 . S
C417 C416 1.370 . S
C417 C418 1.403 . S
C418 C417 1.403 . S
C418 C419 1.404 . S
C418 C421 1.539 . S
C419 C415 1.408 . S
C419 C418 1.404 . S
C419 H431 0.930 . S
C420 C416 1.524 . S
C420 H432 0.956 . S
C420 H433 0.961 . S
C420 H434 0.961 . S
C421 C418 1.539 . S
C421 H435 0.958 . S
C421 H436 0.961 . S
C421 H437 0.960 . S
H422 C406 0.931 . S
H423 C411 0.929 . S
H424 C412 0.960 . S
H425 C412 0.962 . S
H426 C412 0.960 . S
H427 C413 0.961 . S
H428 C413 0.961 . S
H429 C413 0.961 . S
H430 C414 0.931 . S
H431 C419 0.930 . S
H432 C420 0.956 . S
H433 C420 0.961 . S
H434 C420 0.961 . S
H435 C421 0.958 . S
H436 C421 0.961 . S
H437 C421 0.960 . S
C438 C439 1.391 . S
C438 C440 1.394 . S
C438 H454 0.931 . S
C439 C438 1.391 . S
C439 C443 1.376 . S
C440 C438 1.394 . S
C440 C441 1.369 . S
C440 C444 1.531 . S
C441 C440 1.369 . S
C441 C442 1.410 . S
C441 C449 1.503 . S
C442 C441 1.410 . S
C442 C443 1.392 . S
C442 C445 1.511 . S
C443 C439 1.376 . S
C443 C442 1.392 . S
C443 H455 0.929 . S
C444 C440 1.531 . S
C444 H456 0.960 . S
C444 H457 0.962 . S
C444 H458 0.960 . S
C445 C442 1.511 . S
C445 H459 0.961 . S
C445 H460 0.961 . S
C445 H461 0.961 . S
C446 C447 1.370 . S
C446 C448 1.363 . S
C446 H462 0.931 . S
C447 C446 1.370 . S
C447 C451 1.408 . S
C448 C446 1.363 . S
C448 C449 1.370 . S
C448 C452 1.524 . S
C449 C441 1.503 . S
C449 C448 1.370 . S
C449 C450 1.403 . S
C450 C449 1.403 . S
C450 C451 1.404 . S
C450 C453 1.539 . S
C451 C447 1.408 . S
C451 C450 1.404 . S
C451 H463 0.930 . S
C452 C448 1.524 . S
C452 H464 0.956 . S
C452 H465 0.961 . S
C452 H466 0.961 . S
C453 C450 1.539 . S
C453 H467 0.958 . S
C453 H468 0.961 . S
C453 H469 0.960 . S
H454 C438 0.931 . S
H455 C443 0.929 . S
H456 C444 0.960 . S
H457 C444 0.962 . S
H458 C444 0.960 . S
H459 C445 0.961 . S
H460 C445 0.961 . S
H461 C445 0.961 . S
H462 C446 0.931 . S
H463 C451 0.930 . S
H464 C452 0.956 . S
H465 C452 0.961 . S
H466 C452 0.961 . S
H467 C453 0.958 . S
H468 C453 0.961 . S
H469 C453 0.960 . S
C470 C471 1.391 . S
C470 C472 1.394 . S
C470 H486 0.931 . S
C471 C470 1.391 . S
C471 C475 1.376 . S
C472 C470 1.394 . S
C472 C473 1.369 . S
C472 C476 1.531 . S
C473 C472 1.369 . S
C473 C474 1.410 . S
C473 C481 1.503 . S
C474 C473 1.410 . S
C474 C475 1.392 . S
C474 C477 1.511 . S
C475 C471 1.376 . S
C475 C474 1.392 . S
C475 H487 0.929 . S
C476 C472 1.531 . S
C476 H488 0.960 . S
C476 H489 0.962 . S
C476 H490 0.960 . S
C477 C474 1.511 . S
C477 H491 0.961 . S
C477 H492 0.961 . S
C477 H493 0.961 . S
C478 C479 1.370 . S
C478 C480 1.363 . S
C478 H494 0.931 . S
C479 C478 1.370 . S
C479 C483 1.408 . S
C480 C478 1.363 . S
C480 C481 1.370 . S
C480 C484 1.524 . S
C481 C473 1.503 . S
C481 C480 1.370 . S
C481 C482 1.403 . S
C482 C481 1.403 . S
C482 C483 1.404 . S
C482 C485 1.539 . S
C483 C479 1.408 . S
C483 C482 1.404 . S
C483 H495 0.930 . S
C484 C480 1.524 . S
C484 H496 0.956 . S
C484 H497 0.961 . S
C484 H498 0.961 . S
C485 C482 1.539 . S
C485 H499 0.958 . S
C485 H500 0.961 . S
C485 H501 0.960 . S
H486 C470 0.931 . S
H487 C475 0.929 . S
H488 C476 0.960 . S
H489 C476 0.962 . S
H490 C476 0.960 . S
H491 C477 0.961 . S
H492 C477 0.961 . S
H493 C477 0.961 . S
H494 C478 0.931 . S
H495 C483 0.930 . S
H496 C484 0.956 . S
H497 C484 0.961 . S
H498 C484 0.961 . S
H499 C485 0.958 . S
H500 C485 0.961 . S
H501 C485 0.960 . S
C127 C83 1.451 . S
C119 C11 1.399 . S
C159 C79 1.427 . S
C151 C30 1.409 1_455 S
C191 C104 1.446 . S
C183 C49 1.439 . S
C215 C68 1.431 . S
C223 C100 1.432 . S
C247 C2 1.278 . S
C255 C101 1.124 . S
C287 C116 1.138 . S
C279 C25 1.281 . S
C311 C6 1.791 . S
C319 C117 1.642 . S
C351 C113 1.666 . S
C343 C21 1.802 . S
C383 C80 1.150 1_655 S
C375 C40 1.285 . S
C407 C63 1.297 . S
C415 C95 1.121 . S
C447 C96 1.655 . S
C439 C44 1.787 . S
C479 C92 1.685 . S
C471 C59 1.784 . S
