# Generated by pormake.
# Topology ant, (3,6)-cn, num edge types: 1
# Building blocks:
#     Node 0, Type 0, BuildingBlock: PAMTOO_clean_linker_0, # of connection points: 3
#     Node 1, Type 0, BuildingBlock: PAMTOO_clean_linker_0, # of connection points: 3
#     Node 2, Type 0, BuildingBlock: PAMTOO_clean_linker_0, # of connection points: 3
#     Node 3, Type 0, BuildingBlock: PAMTOO_clean_linker_0, # of connection points: 3
#     Node 4, Type 0, BuildingBlock: PAMTOO_clean_linker_0, # of connection points: 3
#     Node 5, Type 0, BuildingBlock: PAMTOO_clean_linker_0, # of connection points: 3
#     Node 6, Type 0, BuildingBlock: PAMTOO_clean_linker_0, # of connection points: 3
#     Node 7, Type 0, BuildingBlock: PAMTOO_clean_linker_0, # of connection points: 3
#     Node 8, Type 1, BuildingBlock: MIDCAF_clean_sbu_0, # of connection points: 6
#     Node 9, Type 1, BuildingBlock: MIDCAF_clean_sbu_0, # of connection points: 6
#     Node 10, Type 1, BuildingBlock: MIDCAF_clean_sbu_0, # of connection points: 6
#     Node 11, Type 1, BuildingBlock: MIDCAF_clean_sbu_0, # of connection points: 6
#     Edge 12, Type (0, 1), BuildingBlock: AJUNOK_clean_linker_0, # of connection points: 2
#     Edge 13, Type (0, 1), BuildingBlock: AJUNOK_clean_linker_0, # of connection points: 2
#     Edge 14, Type (0, 1), BuildingBlock: AJUNOK_clean_linker_0, # of connection points: 2
#     Edge 15, Type (0, 1), BuildingBlock: AJUNOK_clean_linker_0, # of connection points: 2
#     Edge 16, Type (0, 1), BuildingBlock: AJUNOK_clean_linker_0, # of connection points: 2
#     Edge 17, Type (0, 1), BuildingBlock: AJUNOK_clean_linker_0, # of connection points: 2
#     Edge 18, Type (0, 1), BuildingBlock: AJUNOK_clean_linker_0, # of connection points: 2
#     Edge 19, Type (0, 1), BuildingBlock: AJUNOK_clean_linker_0, # of connection points: 2
#     Edge 20, Type (0, 1), BuildingBlock: AJUNOK_clean_linker_0, # of connection points: 2
#     Edge 21, Type (0, 1), BuildingBlock: AJUNOK_clean_linker_0, # of connection points: 2
#     Edge 22, Type (0, 1), BuildingBlock: AJUNOK_clean_linker_0, # of connection points: 2
#     Edge 23, Type (0, 1), BuildingBlock: AJUNOK_clean_linker_0, # of connection points: 2
#     Edge 24, Type (0, 1), BuildingBlock: AJUNOK_clean_linker_0, # of connection points: 2
#     Edge 25, Type (0, 1), BuildingBlock: AJUNOK_clean_linker_0, # of connection points: 2
#     Edge 26, Type (0, 1), BuildingBlock: AJUNOK_clean_linker_0, # of connection points: 2
#     Edge 27, Type (0, 1), BuildingBlock: AJUNOK_clean_linker_0, # of connection points: 2
#     Edge 28, Type (0, 1), BuildingBlock: AJUNOK_clean_linker_0, # of connection points: 2
#     Edge 29, Type (0, 1), BuildingBlock: AJUNOK_clean_linker_0, # of connection points: 2
#     Edge 30, Type (0, 1), BuildingBlock: AJUNOK_clean_linker_0, # of connection points: 2
#     Edge 31, Type (0, 1), BuildingBlock: AJUNOK_clean_linker_0, # of connection points: 2
#     Edge 32, Type (0, 1), BuildingBlock: AJUNOK_clean_linker_0, # of connection points: 2
#     Edge 33, Type (0, 1), BuildingBlock: AJUNOK_clean_linker_0, # of connection points: 2
#     Edge 34, Type (0, 1), BuildingBlock: AJUNOK_clean_linker_0, # of connection points: 2
#     Edge 35, Type (0, 1), BuildingBlock: AJUNOK_clean_linker_0, # of connection points: 2
# Relax obj value: 0.057
# Max RMSD: 0.148
# Mean RMSD: 0.089
data_MOF--net-ant--node1-MIDCAF_clean_sbu_0--node2-PAMTOO_clean_linker_0--edge1-AJUNOK_clean_linker_0
_symmetry_space_group_name_H-M    P1
_symmetry_Int_Tables_number       1
_symmetry_cell_setting            triclinic
loop_
_symmetry_equiv_pos_as_xyz
'x, y, z'
_cell_length_a     21.213145
_cell_length_b     20.983027
_cell_length_c     51.594555
_cell_angle_alpha  86.444194
_cell_angle_beta   99.896144
_cell_angle_gamma 90.567216
loop_
_atom_site_label
_atom_site_type_symbol
_atom_site_fract_x
_atom_site_fract_y
_atom_site_fract_z
_atom_type_partial_charge
H0 H 0.22956 0.11782 0.04045 0.0
H1 H 0.20987 0.32129 0.02882 0.0
H2 H 0.23077 0.23196 0.10701 0.0
H3 H 0.13822 0.35208 0.09373 0.0
C4 C 0.16221 0.37282 0.07762 0.0
O5 O 0.21995 0.34195 0.07855 0.0
H6 H 0.13061 0.3663 0.05838 0.0
C7 C 0.23162 0.16443 0.04861 0.0
C8 C 0.23515 0.16859 0.0758 0.0
C9 C 0.22009 0.21874 0.0316 0.0
C10 C 0.2191 0.27879 0.04195 0.0
C11 C 0.22434 0.28385 0.06914 0.0
C12 C 0.23118 0.22851 0.08617 0.0
H13 H 0.21644 0.82158 0.28481 0.0
H14 H 0.01331 0.80195 0.28064 0.0
H15 H 0.13541 0.80732 0.35604 0.0
H16 H 0.02107 0.70789 0.35144 0.0
C17 C 0.99093 0.73459 0.33458 0.0
O18 O 0.01703 0.79467 0.33147 0.0
H19 H 0.99048 0.70771 0.31661 0.0
C20 C 0.17506 0.81967 0.2946 0.0
C21 C 0.18389 0.8175 0.32228 0.0
C22 C 0.11398 0.81343 0.27944 0.0
C23 C 0.06071 0.80743 0.29208 0.0
C24 C 0.06861 0.80469 0.31963 0.0
C25 C 0.12995 0.81004 0.33474 0.0
H26 H 0.73269 0.6095 0.54129 0.0
H27 H 0.71067 0.81222 0.52616 0.0
H28 H 0.7483 0.73293 0.606 0.0
H29 H 0.63711 0.83284 0.58842 0.0
C30 C 0.66306 0.86368 0.57539 0.0
O31 O 0.7229 0.8382 0.57543 0.0
H32 H 0.63433 0.86472 0.55518 0.0
C33 C 0.73347 0.65685 0.54865 0.0
C34 C 0.74417 0.6643 0.57597 0.0
C35 C 0.72117 0.70966 0.53062 0.0
C36 C 0.72096 0.77097 0.53992 0.0
C37 C 0.72957 0.77924 0.567 0.0
C38 C 0.74172 0.72606 0.58507 0.0
H39 H 0.71889 0.32391 0.78326 0.0
H40 H 0.51604 0.30204 0.77911 0.0
H41 H 0.63884 0.30034 0.85459 0.0
H42 H 0.52954 0.19763 0.84692 0.0
C43 C 0.49571 0.22737 0.83234 0.0
O44 O 0.52029 0.28831 0.82999 0.0
H45 H 0.49062 0.20459 0.81316 0.0
C46 C 0.67769 0.32044 0.79314 0.0
C47 C 0.687 0.31486 0.82084 0.0
C48 C 0.61644 0.3161 0.7779 0.0
C49 C 0.56348 0.30682 0.79059 0.0
C50 C 0.57169 0.30069 0.81817 0.0
C51 C 0.6332 0.30527 0.8333 0.0
H52 H 0.11995 0.8363 0.95598 0.0
H53 H 0.09015 0.64072 0.93594 0.0
H54 H 0.05681 0.79175 0.87523 0.0
H55 H 0.97078 0.66761 0.86086 0.0
C56 C 0.99696 0.64115 0.87874 0.0
O57 O 0.0571 0.66769 0.88529 0.0
H58 H 0.96846 0.64547 0.89477 0.0
C59 C 0.10801 0.80152 0.94121 0.0
C60 C 0.08831 0.82262 0.91473 0.0
C61 C 0.1086 0.736 0.94904 0.0
C62 C 0.09031 0.69124 0.93011 0.0
C63 C 0.07177 0.71147 0.90355 0.0
C64 C 0.07083 0.77685 0.89589 0.0
H65 H 0.55812 0.83329 0.2042 0.0
H66 H 0.76105 0.8165 0.20888 0.0
H67 H 0.63968 0.84233 0.13323 0.0
H68 H 0.75576 0.73758 0.14209 0.0
C69 C 0.78495 0.76401 0.15798 0.0
O70 O 0.758 0.82365 0.15823 0.0
H71 H 0.78524 0.73611 0.17707 0.0
C72 C 0.59977 0.83674 0.19457 0.0
C73 C 0.59154 0.84425 0.16695 0.0
C74 C 0.66055 0.82585 0.20969 0.0
C75 C 0.71411 0.82662 0.19734 0.0
C76 C 0.70657 0.83201 0.16981 0.0
C77 C 0.64535 0.84042 0.15454 0.0
H78 H 0.60925 0.33007 0.45368 0.0
H79 H 0.57695 0.13236 0.43753 0.0
H80 H 0.52806 0.27883 0.37551 0.0
H81 H 0.44452 0.15472 0.36377 0.0
C82 C 0.4719 0.12956 0.38172 0.0
O83 O 0.53247 0.15571 0.3871 0.0
H84 H 0.4452 0.13539 0.39823 0.0
C85 C 0.59343 0.29386 0.43988 0.0
C86 C 0.56798 0.31261 0.41371 0.0
C87 C 0.59664 0.22914 0.44873 0.0
C88 C 0.57428 0.18251 0.43102 0.0
C89 C 0.54948 0.2007 0.40462 0.0
C90 C 0.54634 0.2655 0.39603 0.0
H91 H 0.05426 0.32815 0.69722 0.0
H92 H 0.2564 0.30746 0.70019 0.0
H93 H 0.13335 0.34281 0.62545 0.0
H94 H 0.24161 0.24299 0.62773 0.0
C95 C 0.27504 0.26372 0.64408 0.0
O96 O 0.25193 0.32195 0.64936 0.0
H97 H 0.27827 0.22967 0.66171 0.0
C98 C 0.09517 0.33031 0.68715 0.0
C99 C 0.08572 0.33863 0.65949 0.0
C100 C 0.15635 0.31897 0.70186 0.0
C101 C 0.20912 0.31766 0.68901 0.0
C102 C 0.20075 0.32638 0.66151 0.0
C103 C 0.13927 0.33708 0.64674 0.0
Zn104 Zn 0.24067 0.70075 0.15123 0.0
Zn105 Zn 0.05952 0.85317 0.07574 0.0
Zn106 Zn 0.1792 0.7769 0.11832 0.0
C107 C 0.11707 0.74412 0.05645 0.0
C108 C 0.19282 0.90689 0.10404 0.0
O109 O 0.13417 0.77239 0.15386 0.0
O110 O 0.20803 0.72263 0.18337 0.0
C111 C 0.19472 0.63027 0.10979 0.0
O112 O 0.15594 0.73651 0.07868 0.0
O113 O 0.07404 0.78676 0.0522 0.0
O114 O 0.14057 0.88568 0.09295 0.0
O115 O 0.2329 0.86603 0.11631 0.0
O116 O 0.21255 0.62208 0.13436 0.0
O117 O 0.1845 0.68689 0.09889 0.0
O118 O 0.27696 0.81971 0.12756 0.0
O119 O 0.32603 0.73139 0.1456 0.0
C120 C 0.3289 0.78805 0.13619 0.0
O121 O 0.08576 0.78834 0.13277 0.0
O122 O 0.00598 0.82786 0.10167 0.0
C123 C 0.15625 0.75346 0.17789 0.0
C124 C 0.02636 0.80422 0.12469 0.0
Zn125 Zn 0.52274 0.66659 0.33439 0.0
Zn126 Zn 0.69609 0.8378 0.4025 0.0
Zn127 Zn 0.5909 0.72692 0.36704 0.0
C128 C 0.56341 0.87809 0.37958 0.0
C129 C 0.74032 0.78037 0.35903 0.0
O130 O 0.57863 0.62724 0.38486 0.0
O131 O 0.53621 0.57909 0.34904 0.0
C132 C 0.44427 0.75564 0.35103 0.0
O133 O 0.54647 0.82121 0.3725 0.0
O134 O 0.62021 0.89256 0.38975 0.0
O135 O 0.75168 0.82146 0.37632 0.0
O136 O 0.6873 0.7481 0.35507 0.0
O137 O 0.44135 0.70438 0.33937 0.0
O138 O 0.49893 0.77881 0.36085 0.0
O139 O 0.63776 0.73155 0.33243 0.0
O140 O 0.56072 0.69332 0.30326 0.0
C141 C 0.61487 0.71933 0.30858 0.0
O142 O 0.61018 0.66638 0.40399 0.0
O143 O 0.65834 0.75524 0.40559 0.0
C144 C 0.55825 0.57617 0.37336 0.0
C145 C 0.64595 0.7049 0.41781 0.0
Zn146 Zn 0.61473 0.33532 0.58675 0.0
Zn147 Zn 0.73814 0.20502 0.64961 0.0
Zn148 Zn 0.67438 0.26985 0.6166 0.0
C149 C 0.82313 0.28548 0.63018 0.0
C150 C 0.68789 0.12014 0.61447 0.0
O151 O 0.57941 0.28445 0.62885 0.0
O152 O 0.52818 0.3027 0.58837 0.0
C153 C 0.69575 0.4162 0.61139 0.0
O154 O 0.77009 0.31617 0.62314 0.0
O155 O 0.82251 0.22909 0.64011 0.0
O156 O 0.70455 0.12096 0.63913 0.0
O157 O 0.68011 0.17356 0.6005 0.0
O158 O 0.63612 0.41632 0.60374 0.0
O159 O 0.7262 0.36272 0.61333 0.0
O160 O 0.65724 0.22107 0.5794 0.0
O161 O 0.65571 0.31326 0.55658 0.0
C162 C 0.65923 0.25317 0.55747 0.0
O163 O 0.62526 0.27158 0.6509 0.0
O164 O 0.71023 0.24289 0.6802 0.0
C165 C 0.52618 0.29118 0.61248 0.0
C166 C 0.65408 0.26499 0.67498 0.0
Zn167 Zn 0.03401 0.17179 0.83291 0.0
Zn168 Zn 0.16128 0.30812 0.88606 0.0
Zn169 Zn 0.09871 0.23694 0.86379 0.0
C170 C 0.12555 0.22534 0.92214 0.0
C171 C 0.07341 0.38493 0.86435 0.0
O172 O 0.14209 0.24236 0.82771 0.0
O173 O 0.065 0.19926 0.79985 0.0
C174 C 0.07886 0.0871 0.87421 0.0
O175 O 0.12625 0.18994 0.90276 0.0
O176 O 0.12357 0.28521 0.91798 0.0
O177 O 0.13319 0.38902 0.86564 0.0
O178 O 0.04764 0.32925 0.86668 0.0
O179 O 0.05879 0.0876 0.84973 0.0
O180 O 0.09433 0.14012 0.88506 0.0
O181 O 1.00295 0.28262 0.85754 0.0
O182 O 0.94956 0.20199 0.83892 0.0
C183 C 0.94957 0.25482 0.84931 0.0
O184 O 0.19108 0.24951 0.84825 0.0
O185 O 0.24791 0.27497 0.8859 0.0
C186 C 0.11751 0.22871 0.8041 0.0
C187 C 0.24599 0.25591 0.86312 0.0
C188 C 0.23287 0.46767 0.09146 0.0
C189 C 0.17221 0.44357 0.081 0.0
C190 C 0.24056 0.53116 0.09811 0.0
C191 C 0.18815 0.57299 0.09466 0.0
H192 H 0.27449 0.4369 0.09574 0.0
H193 H 0.28731 0.54663 0.1076 0.0
S194 S 0.02025 0.53534 0.06709 0.0
N195 N 0.05933 0.46782 0.06646 0.0
N196 N 0.07439 0.58765 0.07925 0.0
C197 C 0.12802 0.55103 0.08302 0.0
C198 C 0.11993 0.48609 0.07625 0.0
C199 C 0.88087 0.78493 0.3232 0.0
C200 C 0.92265 0.74045 0.33893 0.0
C201 C 0.81889 0.79498 0.32831 0.0
C202 C 0.79604 0.75897 0.34856 0.0
H203 H 0.89727 0.81415 0.30763 0.0
H204 H 0.78989 0.83289 0.31717 0.0
S205 S 0.88311 0.63224 0.39349 0.0
N206 N 0.9345 0.65703 0.37434 0.0
N207 N 0.81752 0.67486 0.38332 0.0
C208 C 0.83553 0.71153 0.36318 0.0
C209 C 0.89891 0.70221 0.35843 0.0
C210 C 0.78827 0.55457 0.58921 0.0
C211 C 0.74999 0.60576 0.59402 0.0
C212 C 0.77731 0.49184 0.59852 0.0
C213 C 0.72781 0.47878 0.61292 0.0
H214 H 0.82253 0.56215 0.57599 0.0
H215 H 0.80244 0.45307 0.59178 0.0
S216 S 0.62616 0.59695 0.63687 0.0
N217 N 0.66946 0.64003 0.61858 0.0
N218 N 0.65006 0.52245 0.63646 0.0
C219 C 0.69624 0.53039 0.62124 0.0
C220 C 0.70699 0.59405 0.61167 0.0
C221 C 0.80113 0.35283 0.82786 0.0
C222 C 0.75397 0.31136 0.83568 0.0
C223 C 0.86668 0.33886 0.83518 0.0
C224 C 0.88699 0.28307 0.8506 0.0
H225 H 0.78711 0.39363 0.81424 0.0
H226 H 0.90097 0.36843 0.82666 0.0
S227 S 0.78498 0.16613 0.88085 0.0
N228 N 0.73382 0.21743 0.8632 0.0
N229 N 0.85678 0.19205 0.87708 0.0
C230 C 0.84115 0.24554 0.86109 0.0
C231 C 0.77458 0.25953 0.85367 0.0
C232 C 0.0291 0.55792 0.85047 0.0
C233 C 0.0044 0.57213 0.87305 0.0
C234 C 0.04605 0.49534 0.84646 0.0
C235 C 0.03777 0.44458 0.86464 0.0
H236 H 0.03849 0.59605 0.8365 0.0
H237 H 0.06898 0.48707 0.82974 0.0
S238 S 0.9732 0.45566 0.9265 0.0
N239 N 0.97123 0.52983 0.91359 0.0
N240 N 1.00156 0.41185 0.90557 0.0
C241 C 0.01002 0.45739 0.88657 0.0
C242 C 0.99389 0.52135 0.89096 0.0
C243 C 0.87705 0.72586 0.13832 0.0
C244 C 0.85323 0.77007 0.15358 0.0
C245 C 0.9379 0.73336 0.13164 0.0
C246 C 0.97709 0.78489 0.14017 0.0
H247 H 0.84721 0.68704 0.13039 0.0
H248 H 0.95254 0.70131 0.11807 0.0
S249 S 0.94257 0.90654 0.18471 0.0
N250 N 0.87793 0.86115 0.18069 0.0
N251 N 0.99184 0.87633 0.16709 0.0
C252 C 0.95653 0.82611 0.15733 0.0
C253 C 0.89467 0.81821 0.16442 0.0
C254 C 0.61736 0.42183 0.41101 0.0
C255 C 0.56371 0.38157 0.4052 0.0
C256 C 0.6146 0.4868 0.40236 0.0
C257 C 0.55811 0.51321 0.38762 0.0
H258 H 0.66233 0.40247 0.42158 0.0
H259 H 0.65758 0.51551 0.40601 0.0
S260 S 0.40235 0.43097 0.37044 0.0
N261 N 0.45095 0.37497 0.38628 0.0
N262 N 0.44603 0.49642 0.36974 0.0
C263 C 0.50351 0.47434 0.38287 0.0
C264 C 0.50624 0.40863 0.39167 0.0
C265 C 0.97214 0.37717 0.65318 0.0
C266 C 0.01891 0.33997 0.64468 0.0
C267 C 0.90654 0.36501 0.64553 0.0
C268 C 0.88589 0.31513 0.62925 0.0
H269 H 0.98647 0.41246 0.66751 0.0
H270 H 0.87241 0.39042 0.65448 0.0
S271 S 0.98727 0.21207 0.59757 0.0
N272 N 0.03868 0.25746 0.6159 0.0
N273 N 0.91556 0.23506 0.60162 0.0
C274 C 0.93147 0.28257 0.6183 0.0
C275 C 0.99808 0.29496 0.62595 0.0
C276 C 0.39583 0.25068 0.65323 0.0
C277 C 0.33998 0.27267 0.63629 0.0
C278 C 0.4563 0.2577 0.64573 0.0
C279 C 0.46288 0.28704 0.62108 0.0
H280 H 0.39266 0.22721 0.67226 0.0
H281 H 0.49781 0.23889 0.65911 0.0
S282 S 0.33131 0.35807 0.5708 0.0
N283 N 0.29519 0.32823 0.59474 0.0
N284 N 0.40808 0.34232 0.58056 0.0
C285 C 0.40727 0.31108 0.6044 0.0
C286 C 0.34607 0.30376 0.61204 0.0
C287 C 0.50581 0.7917 0.1365 0.0
C288 C 0.52548 0.84366 0.15182 0.0
C289 C 0.44071 0.77779 0.12912 0.0
C290 C 0.39315 0.81571 0.13654 0.0
H291 H 0.54076 0.75823 0.1323 0.0
H292 H 0.42761 0.73427 0.11924 0.0
S293 S 0.41993 0.96254 0.17309 0.0
N294 N 0.49262 0.93775 0.17122 0.0
N295 N 0.36999 0.91093 0.15756 0.0
C296 C 0.41201 0.87115 0.14959 0.0
C297 C 0.47838 0.88526 0.1572 0.0
C298 C 0.37813 0.25579 0.82191 0.0
C299 C 0.43037 0.23033 0.84012 0.0
C300 C 0.31722 0.26131 0.82887 0.0
C301 C 0.30701 0.24227 0.85441 0.0
H302 H 0.3848 0.27241 0.80226 0.0
H303 H 0.27875 0.28283 0.81457 0.0
S304 S 0.42614 0.1676 0.90863 0.0
N305 N 0.46646 0.18234 0.88424 0.0
N306 N 0.35256 0.19291 0.89732 0.0
C307 C 0.3583 0.21496 0.87249 0.0
C308 C 0.41992 0.20905 0.86539 0.0
C309 C 0.29789 0.85543 0.32961 0.0
C310 C 0.25044 0.8143 0.33736 0.0
C311 C 0.36333 0.84131 0.33727 0.0
C312 C 0.38309 0.78575 0.35294 0.0
H313 H 0.28421 0.89584 0.31574 0.0
H314 H 0.39796 0.8703 0.3287 0.0
S315 S 0.27967 0.66865 0.38233 0.0
N316 N 0.2291 0.72034 0.36459 0.0
N317 N 0.3518 0.69465 0.37912 0.0
C318 C 0.33678 0.74852 0.36328 0.0
C319 C 0.27038 0.7626 0.35548 0.0
C320 C 0.66337 0.94161 0.61057 0.0
C321 C 0.66909 0.93068 0.58454 0.0
C322 C 0.66788 1.0033 0.61953 0.0
C323 C 0.67894 0.0568 0.60296 0.0
H324 H 0.65511 0.90213 0.62412 0.0
H325 H 0.6629 1.00889 0.63982 0.0
S326 S 0.70204 0.05253 0.53342 0.0
N327 N 0.68859 0.97736 0.54239 0.0
N328 N 0.69886 0.09358 0.55949 0.0
C329 C 0.68572 0.04633 0.57692 0.0
C330 C 0.68073 0.9832 0.56771 0.0
C331 C 0.27566 0.06842 0.10175 0.0
C332 C 0.22428 0.1089 0.09079 0.0
C333 C 0.26543 1.00307 0.10749 0.0
C334 C 0.20374 0.97666 0.10197 0.0
H335 H 0.32423 0.08638 0.10412 0.0
H336 H 0.30634 0.97258 0.11453 0.0
S337 S 0.05346 0.06493 0.07389 0.0
N338 N 0.11013 0.11961 0.07569 0.0
N339 N 0.09003 0.99798 0.08614 0.0
C340 C 0.1517 0.01811 0.09231 0.0
C341 C 0.1622 0.08405 0.08687 0.0
C342 C 0.46894 1.01264 0.39664 0.0
C343 C 0.47862 0.0599 0.37713 0.0
C344 C 0.4884 0.94933 0.39538 0.0
C345 C 0.51822 0.93155 0.37465 0.0
H346 H 0.45026 0.02553 0.41386 0.0
H347 H 0.48561 0.91565 0.41194 0.0
S348 S 0.55055 0.03593 0.31789 0.0
N349 N 0.51588 0.08346 0.33562 0.0
N350 N 0.55295 0.96457 0.33347 0.0
C351 C 0.52386 0.97714 0.35411 0.0
C352 C 0.50408 0.04143 0.35534 0.0
C353 C 0.13481 0.9343 0.91489 0.0
C354 C 0.08348 0.89237 0.90698 0.0
C355 C 0.13209 0.99945 0.90604 0.0
C356 C 0.07776 0.02453 0.88914 0.0
H357 H 0.17834 0.91605 0.92709 0.0
H358 H 0.1738 0.02924 0.91122 0.0
S359 S 0.92688 0.93778 0.8664 0.0
N360 N 0.97416 0.88312 0.88397 0.0
N361 N 0.96899 1.00441 0.86742 0.0
C362 C 0.0248 0.98402 0.88264 0.0
C363 C 0.02765 0.91825 0.89149 0.0
C364 C 0.13074 0.22854 -0.00607 0.0
C365 C 0.19448 0.21089 0.00365 0.0
C366 C 0.10486 0.2242 0.96734 0.0
C367 C 0.14182 0.20185 0.94968 0.0
H368 H 0.10138 0.24781 0.00682 0.0
H369 H 0.05728 0.24312 0.96013 0.0
S370 S 0.30959 0.1452 0.9659 0.0
N371 N 0.29255 0.16582 -0.00568 0.0
N372 N 0.24386 0.15837 0.94392 0.0
C373 C 0.20414 0.17982 0.95952 0.0
C374 C 0.23064 0.18436 0.98667 0.0
C375 C 0.13601 0.84907 0.23473 0.0
C376 C 0.10828 0.80445 0.25088 0.0
C377 C 0.14499 0.83453 0.20945 0.0
C378 C 0.12728 0.7747 0.19974 0.0
H379 H 0.1543 0.89389 0.24231 0.0
H380 H 0.17051 0.86829 0.19831 0.0
S381 S 0.04726 0.644 0.23304 0.0
N382 N 0.05802 0.70034 0.25436 0.0
N383 N 0.07624 0.67285 0.20697 0.0
C384 C 0.09563 0.73152 0.21486 0.0
C385 C 0.08566 0.74653 0.24044 0.0
C386 C 0.74019 0.73413 0.48479 0.0
C387 C 0.70531 0.70086 0.50202 0.0
C388 C 0.72258 0.73149 0.45751 0.0
C389 C 0.66919 0.6958 0.44642 0.0
H390 H 0.78058 0.76352 0.49246 0.0
H391 H 0.74991 0.75945 0.44497 0.0
S392 S 0.56267 0.59926 0.48324 0.0
N393 N 0.61585 0.62996 0.50637 0.0
N394 N 0.58263 0.62502 0.45482 0.0
C395 C 0.63529 0.66025 0.46344 0.0
C396 C 0.65332 0.66293 0.49134 0.0
C397 C 0.58368 0.25757 0.73697 0.0
C398 C 0.61019 0.31257 0.74893 0.0
C399 C 0.59201 0.24501 0.71134 0.0
C400 C 0.62604 0.28762 0.69683 0.0
H401 H 0.56109 0.22152 0.74823 0.0
H402 H 0.57609 0.19959 0.70366 0.0
S403 S 0.69659 0.44222 0.71762 0.0
N404 N 0.66561 0.41303 0.74315 0.0
N405 N 0.68067 0.3894 0.69495 0.0
C406 C 0.64787 0.34508 0.70767 0.0
C407 C 0.64001 0.35766 0.73375 0.0
C408 C 0.07248 0.68815 0.98935 0.0
C409 C 0.12177 0.71594 0.97744 0.0
C410 C 0.07571 0.68717 0.01674 0.0
C411 C 0.12861 0.71318 0.03296 0.0
H412 H 0.02847 0.67325 0.9773 0.0
H413 H 0.03361 0.67276 0.02491 0.0
S414 S 0.27532 0.77894 0.01162 0.0
N415 N 0.22892 0.76044 0.984 0.0
N416 N 0.23533 0.75784 0.03559 0.0
C417 C 0.18158 0.73303 0.02156 0.0
C418 C 0.1779 0.735 -0.00633 0.0
C419 C 0.67056 0.83431 0.2585 0.0
C420 C 0.66499 0.79675 0.23663 0.0
C421 C 0.66164 0.80706 0.28322 0.0
C422 C 0.64601 0.742 0.28638 0.0
H423 H 0.67808 0.88532 0.25613 0.0
H424 H 0.66149 0.83805 0.29924 0.0
S425 S 0.63319 0.62308 0.23557 0.0
N426 N 0.64939 0.69097 0.22012 0.0
N427 N 0.63147 0.64007 0.26628 0.0
C428 C 0.645 0.70354 0.26502 0.0
C429 C 0.65467 0.73095 0.24014 0.0
C430 C 0.68118 0.23761 0.48813 0.0
C431 C 0.62154 0.21284 0.47692 0.0
C432 C 0.69721 0.24319 0.51535 0.0
C433 C 0.65453 0.22331 0.53223 0.0
H434 H 0.71304 0.25819 0.47555 0.0
H435 H 0.74066 0.26837 0.52295 0.0
S436 S 0.49702 0.14643 0.51317 0.0
N437 N 0.52308 0.16136 0.48501 0.0
N438 N 0.55392 0.17111 0.53641 0.0
C439 C 0.59803 0.19208 0.52164 0.0
C440 C 0.58137 0.18683 0.49383 0.0
C441 C 0.16912 0.23391 0.73797 0.0
C442 C 0.16256 0.29917 0.7301 0.0
C443 C 0.15974 0.21133 0.76316 0.0
C444 C 0.14523 0.2536 0.78136 0.0
H445 H 0.17689 0.1997 0.72394 0.0
H446 H 0.16026 0.16029 0.76792 0.0
S447 S 0.1282 0.42916 0.77098 0.0
N448 N 0.14399 0.40597 0.74273 0.0
N449 N 0.12897 0.36371 0.79057 0.0
C450 C 0.14329 0.31933 0.77439 0.0
C451 C 0.15121 0.34214 0.74854 0.0
loop_
_geom_bond_atom_site_label_1
_geom_bond_atom_site_label_2
_geom_bond_distance
_geom_bond_site_symmetry_2
_ccdc_geom_bond_type
H0 C7 0.929 . S
H1 C10 0.930 . S
H2 C12 0.929 . S
H3 C4 0.969 . S
C4 H3 0.969 . S
C4 O5 1.550 . S
C4 H6 0.973 . S
O5 C4 1.550 . S
O5 C11 1.412 . S
H6 C4 0.973 . S
C7 H0 0.929 . S
C7 C8 1.400 . S
C7 C9 1.364 . S
C8 C7 1.400 . S
C8 C12 1.377 . S
C9 C7 1.364 . S
C9 C10 1.374 . S
C10 H1 0.930 . S
C10 C9 1.374 . S
C10 C11 1.383 . S
C11 O5 1.412 . S
C11 C10 1.383 . S
C11 C12 1.394 . S
C12 H2 0.929 . S
C12 C8 1.377 . S
C12 C11 1.394 . S
H13 C20 0.929 . S
H14 C23 0.930 . S
H15 C25 0.929 . S
H16 C17 0.969 . S
C17 H16 0.969 . S
C17 O18 1.550 1_655 S
C17 H19 0.973 . S
O18 C17 1.550 1_455 S
O18 C24 1.412 . S
H19 C17 0.973 . S
C20 H13 0.929 . S
C20 C21 1.400 . S
C20 C22 1.364 . S
C21 C20 1.400 . S
C21 C25 1.377 . S
C22 C20 1.364 . S
C22 C23 1.374 . S
C23 H14 0.930 . S
C23 C22 1.374 . S
C23 C24 1.383 . S
C24 O18 1.412 . S
C24 C23 1.383 . S
C24 C25 1.394 . S
C25 H15 0.929 . S
C25 C21 1.377 . S
C25 C24 1.394 . S
H26 C33 0.929 . S
H27 C36 0.930 . S
H28 C38 0.929 . S
H29 C30 0.969 . S
C30 H29 0.969 . S
C30 O31 1.550 . S
C30 H32 0.973 . S
O31 C30 1.550 . S
O31 C37 1.412 . S
H32 C30 0.973 . S
C33 H26 0.929 . S
C33 C34 1.400 . S
C33 C35 1.364 . S
C34 C33 1.400 . S
C34 C38 1.377 . S
C35 C33 1.364 . S
C35 C36 1.374 . S
C36 H27 0.930 . S
C36 C35 1.374 . S
C36 C37 1.383 . S
C37 O31 1.412 . S
C37 C36 1.383 . S
C37 C38 1.394 . S
C38 H28 0.929 . S
C38 C34 1.377 . S
C38 C37 1.394 . S
H39 C46 0.929 . S
H40 C49 0.930 . S
H41 C51 0.929 . S
H42 C43 0.969 . S
C43 H42 0.969 . S
C43 O44 1.550 . S
C43 H45 0.973 . S
O44 C43 1.550 . S
O44 C50 1.412 . S
H45 C43 0.973 . S
C46 H39 0.929 . S
C46 C47 1.400 . S
C46 C48 1.364 . S
C47 C46 1.400 . S
C47 C51 1.377 . S
C48 C46 1.364 . S
C48 C49 1.374 . S
C49 H40 0.930 . S
C49 C48 1.374 . S
C49 C50 1.383 . S
C50 O44 1.412 . S
C50 C49 1.383 . S
C50 C51 1.394 . S
C51 H41 0.929 . S
C51 C47 1.377 . S
C51 C50 1.394 . S
H52 C59 0.929 . S
H53 C62 0.930 . S
H54 C64 0.929 . S
H55 C56 0.969 1_655 S
C56 H55 0.969 1_455 S
C56 O57 1.550 . S
C56 H58 0.973 . S
O57 C56 1.550 . S
O57 C63 1.412 . S
H58 C56 0.973 . S
C59 H52 0.929 . S
C59 C60 1.400 . S
C59 C61 1.364 . S
C60 C59 1.400 . S
C60 C64 1.377 . S
C61 C59 1.364 . S
C61 C62 1.374 . S
C62 H53 0.930 . S
C62 C61 1.374 . S
C62 C63 1.383 . S
C63 O57 1.412 . S
C63 C62 1.383 . S
C63 C64 1.394 . S
C64 H54 0.929 . S
C64 C60 1.377 . S
C64 C63 1.394 . S
H65 C72 0.929 . S
H66 C75 0.930 . S
H67 C77 0.929 . S
H68 C69 0.969 . S
C69 H68 0.969 . S
C69 O70 1.550 . S
C69 H71 0.973 . S
O70 C69 1.550 . S
O70 C76 1.412 . S
H71 C69 0.973 . S
C72 H65 0.929 . S
C72 C73 1.400 . S
C72 C74 1.364 . S
C73 C72 1.400 . S
C73 C77 1.377 . S
C74 C72 1.364 . S
C74 C75 1.374 . S
C75 H66 0.930 . S
C75 C74 1.374 . S
C75 C76 1.383 . S
C76 O70 1.412 . S
C76 C75 1.383 . S
C76 C77 1.394 . S
C77 H67 0.929 . S
C77 C73 1.377 . S
C77 C76 1.394 . S
H78 C85 0.929 . S
H79 C88 0.930 . S
H80 C90 0.929 . S
H81 C82 0.969 . S
C82 H81 0.969 . S
C82 O83 1.550 . S
C82 H84 0.973 . S
O83 C82 1.550 . S
O83 C89 1.412 . S
H84 C82 0.973 . S
C85 H78 0.929 . S
C85 C86 1.400 . S
C85 C87 1.364 . S
C86 C85 1.400 . S
C86 C90 1.377 . S
C87 C85 1.364 . S
C87 C88 1.374 . S
C88 H79 0.930 . S
C88 C87 1.374 . S
C88 C89 1.383 . S
C89 O83 1.412 . S
C89 C88 1.383 . S
C89 C90 1.394 . S
C90 H80 0.929 . S
C90 C86 1.377 . S
C90 C89 1.394 . S
H91 C98 0.929 . S
H92 C101 0.930 . S
H93 C103 0.929 . S
H94 C95 0.969 . S
C95 H94 0.969 . S
C95 O96 1.550 . S
C95 H97 0.973 . S
O96 C95 1.550 . S
O96 C102 1.412 . S
H97 C95 0.973 . S
C98 H91 0.929 . S
C98 C99 1.400 . S
C98 C100 1.364 . S
C99 C98 1.400 . S
C99 C103 1.377 . S
C100 C98 1.364 . S
C100 C101 1.374 . S
C101 H92 0.930 . S
C101 C100 1.374 . S
C101 C102 1.383 . S
C102 O96 1.412 . S
C102 C101 1.383 . S
C102 C103 1.394 . S
C103 H93 0.929 . S
C103 C99 1.377 . S
C103 C102 1.394 . S
Zn104 O110 1.920 . S
Zn104 O116 1.898 . S
Zn104 O119 1.905 . S
Zn105 O113 1.905 . S
Zn105 O114 1.898 . S
Zn105 O122 1.920 1_455 S
Zn106 O109 2.080 . S
Zn106 O112 2.114 . S
Zn106 O115 2.120 . S
Zn106 O117 2.120 . S
Zn106 O118 2.114 . S
Zn106 O121 2.080 . S
C107 O112 1.166 . S
C107 O113 1.182 . S
C108 O114 1.167 . S
C108 O115 1.299 . S
O109 Zn106 2.080 . S
O109 C123 1.305 . S
O110 Zn104 1.920 . S
O110 C123 1.234 . S
C111 O116 1.167 . S
C111 O117 1.299 . S
O112 Zn106 2.114 . S
O112 C107 1.166 . S
O113 Zn105 1.905 . S
O113 C107 1.182 . S
O114 Zn105 1.898 . S
O114 C108 1.167 . S
O115 Zn106 2.120 . S
O115 C108 1.299 . S
O116 Zn104 1.898 . S
O116 C111 1.167 . S
O117 Zn106 2.120 . S
O117 C111 1.299 . S
O118 Zn106 2.114 . S
O118 C120 1.166 . S
O119 Zn104 1.905 . S
O119 C120 1.182 . S
C120 O118 1.166 . S
C120 O119 1.182 . S
O121 Zn106 2.080 . S
O121 C124 1.305 . S
O122 Zn105 1.920 1_655 S
O122 C124 1.234 1_655 S
C123 O109 1.305 . S
C123 O110 1.234 . S
C124 O121 1.305 . S
C124 O122 1.234 1_455 S
Zn125 O131 1.920 . S
Zn125 O137 1.898 . S
Zn125 O140 1.905 . S
Zn126 O134 1.905 . S
Zn126 O135 1.898 . S
Zn126 O143 1.920 . S
Zn127 O130 2.080 . S
Zn127 O133 2.114 . S
Zn127 O136 2.120 . S
Zn127 O138 2.120 . S
Zn127 O139 2.114 . S
Zn127 O142 2.080 . S
C128 O133 1.166 . S
C128 O134 1.182 . S
C129 O135 1.167 . S
C129 O136 1.299 . S
O130 Zn127 2.080 . S
O130 C144 1.305 . S
O131 Zn125 1.920 . S
O131 C144 1.234 . S
C132 O137 1.167 . S
C132 O138 1.299 . S
O133 Zn127 2.114 . S
O133 C128 1.166 . S
O134 Zn126 1.905 . S
O134 C128 1.182 . S
O135 Zn126 1.898 . S
O135 C129 1.167 . S
O136 Zn127 2.120 . S
O136 C129 1.299 . S
O137 Zn125 1.898 . S
O137 C132 1.167 . S
O138 Zn127 2.120 . S
O138 C132 1.299 . S
O139 Zn127 2.114 . S
O139 C141 1.166 . S
O140 Zn125 1.905 . S
O140 C141 1.182 . S
C141 O139 1.166 . S
C141 O140 1.182 . S
O142 Zn127 2.080 . S
O142 C145 1.305 . S
O143 Zn126 1.920 . S
O143 C145 1.234 . S
C144 O130 1.305 . S
C144 O131 1.234 . S
C145 O142 1.305 . S
C145 O143 1.234 . S
Zn146 O152 1.920 . S
Zn146 O158 1.898 . S
Zn146 O161 1.905 . S
Zn147 O155 1.905 . S
Zn147 O156 1.898 . S
Zn147 O164 1.920 . S
Zn148 O151 2.080 . S
Zn148 O154 2.114 . S
Zn148 O157 2.120 . S
Zn148 O159 2.120 . S
Zn148 O160 2.114 . S
Zn148 O163 2.080 . S
C149 O154 1.166 . S
C149 O155 1.182 . S
C150 O156 1.167 . S
C150 O157 1.299 . S
O151 Zn148 2.080 . S
O151 C165 1.305 . S
O152 Zn146 1.920 . S
O152 C165 1.234 . S
C153 O158 1.167 . S
C153 O159 1.299 . S
O154 Zn148 2.114 . S
O154 C149 1.166 . S
O155 Zn147 1.905 . S
O155 C149 1.182 . S
O156 Zn147 1.898 . S
O156 C150 1.167 . S
O157 Zn148 2.120 . S
O157 C150 1.299 . S
O158 Zn146 1.898 . S
O158 C153 1.167 . S
O159 Zn148 2.120 . S
O159 C153 1.299 . S
O160 Zn148 2.114 . S
O160 C162 1.166 . S
O161 Zn146 1.905 . S
O161 C162 1.182 . S
C162 O160 1.166 . S
C162 O161 1.182 . S
O163 Zn148 2.080 . S
O163 C166 1.305 . S
O164 Zn147 1.920 . S
O164 C166 1.234 . S
C165 O151 1.305 . S
C165 O152 1.234 . S
C166 O163 1.305 . S
C166 O164 1.234 . S
Zn167 O173 1.920 1_655 S
Zn167 O179 1.898 1_655 S
Zn167 O182 1.905 . S
Zn168 O176 1.905 . S
Zn168 O177 1.898 . S
Zn168 O185 1.920 . S
Zn169 O172 2.080 . S
Zn169 O175 2.114 . S
Zn169 O178 2.120 . S
Zn169 O180 2.120 . S
Zn169 O181 2.114 . S
Zn169 O184 2.080 . S
C170 O175 1.166 . S
C170 O176 1.182 . S
C171 O177 1.167 . S
C171 O178 1.299 . S
O172 Zn169 2.080 . S
O172 C186 1.305 . S
O173 Zn167 1.920 1_455 S
O173 C186 1.234 . S
C174 O179 1.167 . S
C174 O180 1.299 . S
O175 Zn169 2.114 . S
O175 C170 1.166 . S
O176 Zn168 1.905 . S
O176 C170 1.182 . S
O177 Zn168 1.898 . S
O177 C171 1.167 . S
O178 Zn169 2.120 . S
O178 C171 1.299 . S
O179 Zn167 1.898 1_455 S
O179 C174 1.167 . S
O180 Zn169 2.120 . S
O180 C174 1.299 . S
O181 Zn169 2.114 . S
O181 C183 1.166 1_455 S
O182 Zn167 1.905 . S
O182 C183 1.182 . S
C183 O181 1.166 1_655 S
C183 O182 1.182 . S
O184 Zn169 2.080 . S
O184 C187 1.305 . S
O185 Zn168 1.920 . S
O185 C187 1.234 . S
C186 O172 1.305 . S
C186 O173 1.234 . S
C187 O184 1.305 . S
C187 O185 1.234 . S
C188 C189 1.369 . S
C188 C190 1.419 . S
C188 H192 0.930 . S
C189 C188 1.369 . S
C189 C198 1.429 . S
C190 C188 1.419 . S
C190 C191 1.363 . S
C190 H193 0.929 . S
C191 C190 1.363 . S
C191 C197 1.428 . S
H192 C188 0.930 . S
H193 C190 0.929 . S
S194 N195 1.613 . S
S194 N196 1.610 . S
N195 S194 1.613 . S
N195 C198 1.350 . S
N196 S194 1.610 . S
N196 C197 1.351 . S
C197 C191 1.428 . S
C197 N196 1.351 . S
C197 C198 1.434 . S
C198 C189 1.429 . S
C198 N195 1.350 . S
C198 C197 1.434 . S
C199 C200 1.369 . S
C199 C201 1.419 . S
C199 H203 0.930 . S
C200 C199 1.369 . S
C200 C209 1.429 . S
C201 C199 1.419 . S
C201 C202 1.363 . S
C201 H204 0.929 . S
C202 C201 1.363 . S
C202 C208 1.428 . S
H203 C199 0.930 . S
H204 C201 0.929 . S
S205 N206 1.613 . S
S205 N207 1.610 . S
N206 S205 1.613 . S
N206 C209 1.350 . S
N207 S205 1.610 . S
N207 C208 1.351 . S
C208 C202 1.428 . S
C208 N207 1.351 . S
C208 C209 1.434 . S
C209 C200 1.429 . S
C209 N206 1.350 . S
C209 C208 1.434 . S
C210 C211 1.369 . S
C210 C212 1.419 . S
C210 H214 0.930 . S
C211 C210 1.369 . S
C211 C220 1.429 . S
C212 C210 1.419 . S
C212 C213 1.363 . S
C212 H215 0.929 . S
C213 C212 1.363 . S
C213 C219 1.428 . S
H214 C210 0.930 . S
H215 C212 0.929 . S
S216 N217 1.613 . S
S216 N218 1.610 . S
N217 S216 1.613 . S
N217 C220 1.350 . S
N218 S216 1.610 . S
N218 C219 1.351 . S
C219 C213 1.428 . S
C219 N218 1.351 . S
C219 C220 1.434 . S
C220 C211 1.429 . S
C220 N217 1.350 . S
C220 C219 1.434 . S
C221 C222 1.369 . S
C221 C223 1.419 . S
C221 H225 0.930 . S
C222 C221 1.369 . S
C222 C231 1.429 . S
C223 C221 1.419 . S
C223 C224 1.363 . S
C223 H226 0.929 . S
C224 C223 1.363 . S
C224 C230 1.428 . S
H225 C221 0.930 . S
H226 C223 0.929 . S
S227 N228 1.613 . S
S227 N229 1.610 . S
N228 S227 1.613 . S
N228 C231 1.350 . S
N229 S227 1.610 . S
N229 C230 1.351 . S
C230 C224 1.428 . S
C230 N229 1.351 . S
C230 C231 1.434 . S
C231 C222 1.429 . S
C231 N228 1.350 . S
C231 C230 1.434 . S
C232 C233 1.369 . S
C232 C234 1.419 . S
C232 H236 0.930 . S
C233 C232 1.369 . S
C233 C242 1.429 . S
C234 C232 1.419 . S
C234 C235 1.363 . S
C234 H237 0.929 . S
C235 C234 1.363 . S
C235 C241 1.428 . S
H236 C232 0.930 . S
H237 C234 0.929 . S
S238 N239 1.613 . S
S238 N240 1.610 . S
N239 S238 1.613 . S
N239 C242 1.350 . S
N240 S238 1.610 . S
N240 C241 1.351 . S
C241 C235 1.428 . S
C241 N240 1.351 . S
C241 C242 1.434 . S
C242 C233 1.429 . S
C242 N239 1.350 . S
C242 C241 1.434 . S
C243 C244 1.369 . S
C243 C245 1.419 . S
C243 H247 0.930 . S
C244 C243 1.369 . S
C244 C253 1.429 . S
C245 C243 1.419 . S
C245 C246 1.363 . S
C245 H248 0.929 . S
C246 C245 1.363 . S
C246 C252 1.428 . S
H247 C243 0.930 . S
H248 C245 0.929 . S
S249 N250 1.613 . S
S249 N251 1.610 . S
N250 S249 1.613 . S
N250 C253 1.350 . S
N251 S249 1.610 . S
N251 C252 1.351 . S
C252 C246 1.428 . S
C252 N251 1.351 . S
C252 C253 1.434 . S
C253 C244 1.429 . S
C253 N250 1.350 . S
C253 C252 1.434 . S
C254 C255 1.369 . S
C254 C256 1.419 . S
C254 H258 0.930 . S
C255 C254 1.369 . S
C255 C264 1.429 . S
C256 C254 1.419 . S
C256 C257 1.363 . S
C256 H259 0.929 . S
C257 C256 1.363 . S
C257 C263 1.428 . S
H258 C254 0.930 . S
H259 C256 0.929 . S
S260 N261 1.613 . S
S260 N262 1.610 . S
N261 S260 1.613 . S
N261 C264 1.350 . S
N262 S260 1.610 . S
N262 C263 1.351 . S
C263 C257 1.428 . S
C263 N262 1.351 . S
C263 C264 1.434 . S
C264 C255 1.429 . S
C264 N261 1.350 . S
C264 C263 1.434 . S
C265 C266 1.369 . S
C265 C267 1.419 . S
C265 H269 0.930 . S
C266 C265 1.369 . S
C266 C275 1.429 . S
C267 C265 1.419 . S
C267 C268 1.363 . S
C267 H270 0.929 . S
C268 C267 1.363 . S
C268 C274 1.428 . S
H269 C265 0.930 . S
H270 C267 0.929 . S
S271 N272 1.613 . S
S271 N273 1.610 . S
N272 S271 1.613 . S
N272 C275 1.350 . S
N273 S271 1.610 . S
N273 C274 1.351 . S
C274 C268 1.428 . S
C274 N273 1.351 . S
C274 C275 1.434 . S
C275 C266 1.429 . S
C275 N272 1.350 . S
C275 C274 1.434 . S
C276 C277 1.369 . S
C276 C278 1.419 . S
C276 H280 0.930 . S
C277 C276 1.369 . S
C277 C286 1.429 . S
C278 C276 1.419 . S
C278 C279 1.363 . S
C278 H281 0.929 . S
C279 C278 1.363 . S
C279 C285 1.428 . S
H280 C276 0.930 . S
H281 C278 0.929 . S
S282 N283 1.613 . S
S282 N284 1.610 . S
N283 S282 1.613 . S
N283 C286 1.350 . S
N284 S282 1.610 . S
N284 C285 1.351 . S
C285 C279 1.428 . S
C285 N284 1.351 . S
C285 C286 1.434 . S
C286 C277 1.429 . S
C286 N283 1.350 . S
C286 C285 1.434 . S
C287 C288 1.369 . S
C287 C289 1.419 . S
C287 H291 0.930 . S
C288 C287 1.369 . S
C288 C297 1.429 . S
C289 C287 1.419 . S
C289 C290 1.363 . S
C289 H292 0.929 . S
C290 C289 1.363 . S
C290 C296 1.428 . S
H291 C287 0.930 . S
H292 C289 0.929 . S
S293 N294 1.613 . S
S293 N295 1.610 . S
N294 S293 1.613 . S
N294 C297 1.350 . S
N295 S293 1.610 . S
N295 C296 1.351 . S
C296 C290 1.428 . S
C296 N295 1.351 . S
C296 C297 1.434 . S
C297 C288 1.429 . S
C297 N294 1.350 . S
C297 C296 1.434 . S
C298 C299 1.369 . S
C298 C300 1.419 . S
C298 H302 0.930 . S
C299 C298 1.369 . S
C299 C308 1.429 . S
C300 C298 1.419 . S
C300 C301 1.363 . S
C300 H303 0.929 . S
C301 C300 1.363 . S
C301 C307 1.428 . S
H302 C298 0.930 . S
H303 C300 0.929 . S
S304 N305 1.613 . S
S304 N306 1.610 . S
N305 S304 1.613 . S
N305 C308 1.350 . S
N306 S304 1.610 . S
N306 C307 1.351 . S
C307 C301 1.428 . S
C307 N306 1.351 . S
C307 C308 1.434 . S
C308 C299 1.429 . S
C308 N305 1.350 . S
C308 C307 1.434 . S
C309 C310 1.369 . S
C309 C311 1.419 . S
C309 H313 0.930 . S
C310 C309 1.369 . S
C310 C319 1.429 . S
C311 C309 1.419 . S
C311 C312 1.363 . S
C311 H314 0.929 . S
C312 C311 1.363 . S
C312 C318 1.428 . S
H313 C309 0.930 . S
H314 C311 0.929 . S
S315 N316 1.613 . S
S315 N317 1.610 . S
N316 S315 1.613 . S
N316 C319 1.350 . S
N317 S315 1.610 . S
N317 C318 1.351 . S
C318 C312 1.428 . S
C318 N317 1.351 . S
C318 C319 1.434 . S
C319 C310 1.429 . S
C319 N316 1.350 . S
C319 C318 1.434 . S
C320 C321 1.369 . S
C320 C322 1.419 1_565 S
C320 H324 0.930 . S
C321 C320 1.369 . S
C321 C330 1.429 . S
C322 C320 1.419 1_545 S
C322 C323 1.363 . S
C322 H325 0.929 . S
C323 C322 1.363 . S
C323 C329 1.428 . S
H324 C320 0.930 . S
H325 C322 0.929 . S
S326 N327 1.613 1_545 S
S326 N328 1.610 . S
N327 S326 1.613 1_565 S
N327 C330 1.350 . S
N328 S326 1.610 . S
N328 C329 1.351 . S
C329 C323 1.428 . S
C329 N328 1.351 . S
C329 C330 1.434 1_545 S
C330 C321 1.429 . S
C330 N327 1.350 . S
C330 C329 1.434 1_565 S
C331 C332 1.369 . S
C331 C333 1.419 . S
C331 H335 0.930 . S
C332 C331 1.369 . S
C332 C341 1.429 . S
C333 C331 1.419 . S
C333 C334 1.363 1_545 S
C333 H336 0.929 1_545 S
C334 C333 1.363 1_565 S
C334 C340 1.435 . S
H335 C331 0.930 . S
H336 C333 0.929 1_565 S
S337 N338 1.613 . S
S337 N339 1.610 1_545 S
N338 S337 1.613 . S
N338 C341 1.350 . S
N339 S337 1.610 1_565 S
N339 C340 1.358 . S
C340 C334 1.435 . S
C340 N339 1.358 . S
C340 C341 1.420 1_565 S
C341 C332 1.429 . S
C341 N338 1.350 . S
C341 C340 1.420 1_545 S
C342 C343 1.369 1_565 S
C342 C344 1.419 . S
C342 H346 0.930 . S
C343 C342 1.369 1_545 S
C343 C352 1.429 . S
C344 C342 1.419 . S
C344 C345 1.363 . S
C344 H347 0.929 . S
C345 C344 1.363 . S
C345 C351 1.428 . S
H346 C342 0.930 . S
H347 C344 0.929 . S
S348 N349 1.613 . S
S348 N350 1.610 1_545 S
N349 S348 1.613 . S
N349 C352 1.350 . S
N350 S348 1.610 1_565 S
N350 C351 1.351 . S
C351 C345 1.428 . S
C351 N350 1.351 . S
C351 C352 1.434 1_565 S
C352 C343 1.429 . S
C352 N349 1.350 . S
C352 C351 1.434 1_545 S
C353 C354 1.369 . S
C353 C355 1.419 . S
C353 H357 0.930 . S
C354 C353 1.369 . S
C354 C363 1.429 . S
C355 C353 1.419 . S
C355 C356 1.363 1_565 S
C355 H358 0.929 . S
C356 C355 1.363 1_545 S
C356 C362 1.428 1_545 S
H357 C353 0.930 . S
H358 C355 0.929 . S
S359 N360 1.613 . S
S359 N361 1.610 1_565 S
N360 S359 1.613 . S
N360 C363 1.350 1_655 S
N361 S359 1.610 1_545 S
N361 C362 1.351 1_645 S
C362 C356 1.428 1_565 S
C362 N361 1.351 1_465 S
C362 C363 1.434 . S
C363 C354 1.429 . S
C363 N360 1.350 1_455 S
C363 C362 1.434 . S
C364 C365 1.369 . S
C364 C366 1.419 1_554 S
C364 H368 0.930 . S
C365 C364 1.369 . S
C365 C374 1.429 1_554 S
C366 C364 1.419 1_556 S
C366 C367 1.363 . S
C366 H369 0.929 . S
C367 C366 1.363 . S
C367 C373 1.428 . S
H368 C364 0.930 . S
H369 C366 0.929 . S
S370 N371 1.613 1_556 S
S370 N372 1.610 . S
N371 S370 1.613 1_554 S
N371 C374 1.350 1_554 S
N372 S370 1.610 . S
N372 C373 1.351 . S
C373 C367 1.428 . S
C373 N372 1.351 . S
C373 C374 1.434 . S
C374 C365 1.429 1_556 S
C374 N371 1.350 1_556 S
C374 C373 1.434 . S
C375 C376 1.369 . S
C375 C377 1.419 . S
C375 H379 0.930 . S
C376 C375 1.369 . S
C376 C385 1.429 . S
C377 C375 1.419 . S
C377 C378 1.363 . S
C377 H380 0.929 . S
C378 C377 1.363 . S
C378 C384 1.428 . S
H379 C375 0.930 . S
H380 C377 0.929 . S
S381 N382 1.613 . S
S381 N383 1.610 . S
N382 S381 1.613 . S
N382 C385 1.350 . S
N383 S381 1.610 . S
N383 C384 1.351 . S
C384 C378 1.428 . S
C384 N383 1.351 . S
C384 C385 1.434 . S
C385 C376 1.429 . S
C385 N382 1.350 . S
C385 C384 1.434 . S
C386 C387 1.369 . S
C386 C388 1.419 . S
C386 H390 0.930 . S
C387 C386 1.369 . S
C387 C396 1.429 . S
C388 C386 1.419 . S
C388 C389 1.363 . S
C388 H391 0.929 . S
C389 C388 1.363 . S
C389 C395 1.428 . S
H390 C386 0.930 . S
H391 C388 0.929 . S
S392 N393 1.613 . S
S392 N394 1.610 . S
N393 S392 1.613 . S
N393 C396 1.350 . S
N394 S392 1.610 . S
N394 C395 1.351 . S
C395 C389 1.428 . S
C395 N394 1.351 . S
C395 C396 1.434 . S
C396 C387 1.429 . S
C396 N393 1.350 . S
C396 C395 1.434 . S
C397 C398 1.369 . S
C397 C399 1.419 . S
C397 H401 0.930 . S
C398 C397 1.369 . S
C398 C407 1.429 . S
C399 C397 1.419 . S
C399 C400 1.363 . S
C399 H402 0.929 . S
C400 C399 1.363 . S
C400 C406 1.428 . S
H401 C397 0.930 . S
H402 C399 0.929 . S
S403 N404 1.613 . S
S403 N405 1.610 . S
N404 S403 1.613 . S
N404 C407 1.350 . S
N405 S403 1.610 . S
N405 C406 1.351 . S
C406 C400 1.428 . S
C406 N405 1.351 . S
C406 C407 1.434 . S
C407 C398 1.429 . S
C407 N404 1.350 . S
C407 C406 1.434 . S
C408 C409 1.369 1_554 S
C408 C410 1.419 . S
C408 H412 0.930 1_554 S
C409 C408 1.369 1_556 S
C409 C418 1.429 . S
C410 C408 1.419 . S
C410 C411 1.363 . S
C410 H413 0.929 . S
C411 C410 1.363 . S
C411 C417 1.428 . S
H412 C408 0.930 1_556 S
H413 C410 0.929 . S
S414 N415 1.613 . S
S414 N416 1.610 1_556 S
N415 S414 1.613 . S
N415 C418 1.350 . S
N416 S414 1.610 1_554 S
N416 C417 1.351 . S
C417 C411 1.428 . S
C417 N416 1.351 . S
C417 C418 1.434 1_554 S
C418 C409 1.429 . S
C418 N415 1.350 . S
C418 C417 1.434 1_556 S
C419 C420 1.369 . S
C419 C421 1.419 . S
C419 H423 0.930 . S
C420 C419 1.369 . S
C420 C429 1.429 . S
C421 C419 1.419 . S
C421 C422 1.363 . S
C421 H424 0.929 . S
C422 C421 1.363 . S
C422 C428 1.428 . S
H423 C419 0.930 . S
H424 C421 0.929 . S
S425 N426 1.613 . S
S425 N427 1.610 . S
N426 S425 1.613 . S
N426 C429 1.350 . S
N427 S425 1.610 . S
N427 C428 1.351 . S
C428 C422 1.428 . S
C428 N427 1.351 . S
C428 C429 1.434 . S
C429 C420 1.429 . S
C429 N426 1.350 . S
C429 C428 1.434 . S
C430 C431 1.369 . S
C430 C432 1.419 . S
C430 H434 0.930 . S
C431 C430 1.369 . S
C431 C440 1.429 . S
C432 C430 1.419 . S
C432 C433 1.363 . S
C432 H435 0.929 . S
C433 C432 1.363 . S
C433 C439 1.428 . S
H434 C430 0.930 . S
H435 C432 0.929 . S
S436 N437 1.613 . S
S436 N438 1.610 . S
N437 S436 1.613 . S
N437 C440 1.350 . S
N438 S436 1.610 . S
N438 C439 1.351 . S
C439 C433 1.428 . S
C439 N438 1.351 . S
C439 C440 1.434 . S
C440 C431 1.429 . S
C440 N437 1.350 . S
C440 C439 1.434 . S
C441 C442 1.369 . S
C441 C443 1.419 . S
C441 H445 0.930 . S
C442 C441 1.369 . S
C442 C451 1.429 . S
C443 C441 1.419 . S
C443 C444 1.363 . S
C443 H446 0.929 . S
C444 C443 1.363 . S
C444 C450 1.428 . S
H445 C441 0.930 . S
H446 C443 0.929 . S
S447 N448 1.613 . S
S447 N449 1.610 . S
N448 S447 1.613 . S
N448 C451 1.350 . S
N449 S447 1.610 . S
N449 C450 1.351 . S
C450 C444 1.428 . S
C450 N449 1.351 . S
C450 C451 1.434 . S
C451 C442 1.429 . S
C451 N448 1.350 . S
C451 C450 1.434 . S
C191 C111 1.470 . S
C189 C4 1.459 . S
C202 C129 1.377 . S
C200 C17 1.382 . S
C211 C34 1.381 . S
C213 C153 1.289 . S
C224 C183 1.315 . S
C222 C47 1.446 . S
C235 C171 1.336 . S
C233 C56 1.382 . S
C244 C69 1.408 . S
C246 C124 1.411 1_655 S
C255 C86 1.545 . S
C257 C144 1.408 . S
C266 C99 1.444 1_655 S
C268 C149 1.292 . S
C277 C95 1.404 . S
C279 C165 1.399 . S
C288 C73 1.447 . S
C290 C120 1.292 . S
C301 C187 1.395 . S
C299 C43 1.394 . S
C312 C132 1.302 . S
C310 C21 1.441 . S
C321 C30 1.454 . S
C323 C150 1.463 . S
C332 C8 1.383 . S
C334 C108 1.288 . S
C345 C128 1.351 . S
C343 C82 1.395 . S
C356 C174 1.399 . S
C354 C60 1.546 . S
C367 C170 1.324 . S
C365 C9 1.581 . S
C378 C123 1.430 . S
C376 C22 1.482 . S
C387 C35 1.565 . S
C389 C145 1.318 . S
C398 C48 1.502 . S
C400 C166 1.443 . S
C411 C107 1.370 . S
C409 C61 1.523 . S
C420 C74 1.571 . S
C422 C141 1.527 . S
C433 C162 1.382 . S
C431 C87 1.543 . S
C444 C186 1.509 . S
C442 C100 1.556 . S
