# Generated by pormake.
# Topology anh, (6,3)-cn, num edge types: 1
# Building blocks:
#     Node 0, Type 0, BuildingBlock: VOLQOD_clean_sbu_1, # of connection points: 6
#     Node 1, Type 0, BuildingBlock: VOLQOD_clean_sbu_1, # of connection points: 6
#     Node 2, Type 0, BuildingBlock: VOLQOD_clean_sbu_1, # of connection points: 6
#     Node 3, Type 1, BuildingBlock: ESEHIV_clean_linker_0, # of connection points: 3
#     Node 4, Type 1, BuildingBlock: ESEHIV_clean_linker_0, # of connection points: 3
#     Node 5, Type 1, BuildingBlock: ESEHIV_clean_linker_0, # of connection points: 3
#     Node 6, Type 1, BuildingBlock: ESEHIV_clean_linker_0, # of connection points: 3
#     Node 7, Type 1, BuildingBlock: ESEHIV_clean_linker_0, # of connection points: 3
#     Node 8, Type 1, BuildingBlock: ESEHIV_clean_linker_0, # of connection points: 3
#     Edge 9, Type (0, 1), BuildingBlock: MIFKUJ_clean_linker_0, # of connection points: 2
#     Edge 10, Type (0, 1), BuildingBlock: MIFKUJ_clean_linker_0, # of connection points: 2
#     Edge 11, Type (0, 1), BuildingBlock: MIFKUJ_clean_linker_0, # of connection points: 2
#     Edge 12, Type (0, 1), BuildingBlock: MIFKUJ_clean_linker_0, # of connection points: 2
#     Edge 13, Type (0, 1), BuildingBlock: MIFKUJ_clean_linker_0, # of connection points: 2
#     Edge 14, Type (0, 1), BuildingBlock: MIFKUJ_clean_linker_0, # of connection points: 2
#     Edge 15, Type (0, 1), BuildingBlock: MIFKUJ_clean_linker_0, # of connection points: 2
#     Edge 16, Type (0, 1), BuildingBlock: MIFKUJ_clean_linker_0, # of connection points: 2
#     Edge 17, Type (0, 1), BuildingBlock: MIFKUJ_clean_linker_0, # of connection points: 2
#     Edge 18, Type (0, 1), BuildingBlock: MIFKUJ_clean_linker_0, # of connection points: 2
#     Edge 19, Type (0, 1), BuildingBlock: MIFKUJ_clean_linker_0, # of connection points: 2
#     Edge 20, Type (0, 1), BuildingBlock: MIFKUJ_clean_linker_0, # of connection points: 2
#     Edge 21, Type (0, 1), BuildingBlock: MIFKUJ_clean_linker_0, # of connection points: 2
#     Edge 22, Type (0, 1), BuildingBlock: MIFKUJ_clean_linker_0, # of connection points: 2
#     Edge 23, Type (0, 1), BuildingBlock: MIFKUJ_clean_linker_0, # of connection points: 2
#     Edge 24, Type (0, 1), BuildingBlock: MIFKUJ_clean_linker_0, # of connection points: 2
#     Edge 25, Type (0, 1), BuildingBlock: MIFKUJ_clean_linker_0, # of connection points: 2
#     Edge 26, Type (0, 1), BuildingBlock: MIFKUJ_clean_linker_0, # of connection points: 2
# Relax obj value: 0.167
# Max RMSD: 0.230
# Mean RMSD: 0.114
data_MOF--net-anh--node1-VOLQOD_clean_sbu_1--node2-ESEHIV_clean_linker_0--edge1-MIFKUJ_clean_linker_0
_symmetry_space_group_name_H-M    P1
_symmetry_Int_Tables_number       1
_symmetry_cell_setting            triclinic
loop_
_symmetry_equiv_pos_as_xyz
'x, y, z'
_cell_length_a     34.918739
_cell_length_b     34.928067
_cell_length_c     75.542186
_cell_angle_alpha  90.103164
_cell_angle_beta   89.745371
_cell_angle_gamma 120.08921
loop_
_atom_site_label
_atom_site_type_symbol
_atom_site_fract_x
_atom_site_fract_y
_atom_site_fract_z
_atom_type_partial_charge
O0 O 0.98475 0.53797 0.2051 0.0
Zn1 Zn 0.99375 0.56353 0.18066 0.0
O2 O 0.01018 0.53131 0.16392 0.0
Zn3 Zn 0.96604 0.50536 0.14532 0.0
Zn4 Zn 0.01443 0.48522 0.17687 0.0
Zn5 Zn 0.06655 0.57086 0.15268 0.0
O6 O 0.99219 0.52233 0.1208 0.0
O7 O 0.06176 0.57321 0.12627 0.0
O8 O 0.93656 0.5603 0.17374 0.0
O9 O 0.92131 0.52469 0.14801 0.0
O10 O 0.93201 0.43921 0.14754 0.0
O11 O 0.96448 0.42538 0.16986 0.0
O12 O 0.07175 0.48724 0.17177 0.0
O13 O 0.04258 0.62741 0.18234 0.0
O14 O 0.10965 0.5496 0.15653 0.0
O15 O 0.09166 0.63199 0.16229 0.0
C16 C 0.99439 0.51098 0.21228 0.0
C17 C 0.03067 0.55092 0.1154 0.0
C18 C 0.93462 0.41212 0.15803 0.0
C19 C 0.91248 0.54462 0.16006 0.0
C20 C 0.10687 0.51545 0.16382 0.0
C21 C 0.07902 0.6496 0.17398 0.0
O22 O 0.00931 0.49043 0.20328 0.0
O23 O 0.47249 0.01866 0.45687 0.0
Zn24 Zn 0.44713 0.01367 0.48119 0.0
O25 O 0.47971 0.00025 0.49872 0.0
Zn26 Zn 0.50105 0.04518 0.51718 0.0
Zn27 Zn 0.52908 -0.0011 0.48707 0.0
Zn28 Zn 0.44159 0.94313 0.50956 0.0
O29 O 0.48288 0.01924 0.54164 0.0
O30 O 0.44018 0.94751 0.53605 0.0
O31 O 0.44943 0.0713 0.48641 0.0
O32 O 0.47834 0.08693 0.51341 0.0
O33 O 0.56734 0.08278 0.51583 0.0
O34 O 0.58638 0.05192 0.49438 0.0
O35 O 0.53065 0.94364 0.49311 0.0
O36 O 0.38321 0.96503 0.48052 0.0
O37 O 0.46456 0.90182 0.50536 0.0
O38 O 0.37994 0.91611 0.50013 0.0
C39 C 0.50237 0.01179 0.45057 0.0
C40 C 0.45842 0.97958 0.54689 0.0
C41 C 0.59664 0.08208 0.50594 0.0
C42 C 0.46091 0.09513 0.50028 0.0
C43 C 0.50123 0.90699 0.4997 0.0
C44 C 0.3615 0.92838 0.48873 0.0
O45 O 0.52542 0.00179 0.4605 0.0
O46 O 0.4902 0.46762 0.79227 0.0
Zn47 Zn 0.47133 0.44831 0.81754 0.0
O48 O 0.51829 0.48582 0.83412 0.0
Zn49 Zn 0.49535 0.5095 0.85177 0.0
Zn50 Zn 0.56616 0.53452 0.82123 0.0
Zn51 Zn 0.54076 0.4521 0.84619 0.0
O52 O 0.50478 0.49576 0.87659 0.0
O53 O 0.52859 0.44829 0.87241 0.0
O54 O 0.41404 0.44771 0.8228 0.0
O55 O 0.43031 0.48274 0.84864 0.0
O56 O 0.51986 0.57483 0.84851 0.0
O57 O 0.56532 0.59072 0.82559 0.0
O58 O 0.62541 0.54276 0.82801 0.0
O59 O 0.45977 0.38601 0.81892 0.0
O60 O 0.6069 0.48217 0.84372 0.0
O61 O 0.51241 0.39016 0.83663 0.0
C62 C 0.52659 0.49712 0.78548 0.0
C63 C 0.51616 0.46897 0.88267 0.0
C64 C 0.54596 0.60211 0.83699 0.0
C65 C 0.40273 0.46112 0.83648 0.0
C66 C 0.6361 0.51832 0.83668 0.0
C67 C 0.47955 0.36816 0.82641 0.0
O68 O 0.55883 0.52378 0.79512 0.0
H69 H 0.46361 0.97835 0.2635 0.0
H70 H 0.59902 0.07904 0.25616 0.0
H71 H 0.51547 0.01936 0.21082 0.0
C72 C 0.49089 -0.00181 0.25459 0.0
C73 C 0.48405 0.99558 0.23622 0.0
C74 C 0.5324 0.02764 0.26173 0.0
C75 C 0.56739 0.05538 0.25048 0.0
C76 C 0.5615 0.05284 0.23202 0.0
C77 C 0.51986 0.02244 0.22504 0.0
H78 H 0.58984 0.60113 0.59809 0.0
H79 H 0.57124 0.47077 0.59104 0.0
H80 H 0.57252 0.54657 0.54587 0.0
C81 C 0.58615 0.57466 0.58945 0.0
C82 C 0.58373 0.57887 0.57111 0.0
C83 C 0.58145 0.53562 0.59672 0.0
C84 C 0.57473 0.50089 0.58541 0.0
C85 C 0.57137 0.50433 0.56699 0.0
C86 C 0.57677 0.54391 0.55994 0.0
H87 H 0.03478 0.61639 0.92596 0.0
H88 H 0.13751 0.58312 0.92352 0.0
H89 H 0.0735 0.58852 0.87574 0.0
C90 C 0.05587 0.60811 0.91824 0.0
C91 C 0.05107 0.6042 0.89979 0.0
C92 C 0.08639 0.59985 0.92692 0.0
C93 C 0.11411 0.58983 0.91684 0.0
C94 C 0.11009 0.58612 0.89827 0.0
C95 C 0.0786 0.59367 0.88988 0.0
H96 H 0.90866 0.43263 0.40655 0.0
H97 H 0.00881 0.56881 0.39984 0.0
H98 H 0.9586 0.51868 0.45188 0.0
C99 C 0.93045 0.46486 0.41226 0.0
C100 C 0.93041 0.47118 0.43066 0.0
C101 C 0.95884 0.49994 0.40116 0.0
C102 C 0.98672 0.5418 0.40845 0.0
C103 C 0.9864 0.54898 0.42671 0.0
C104 C 0.95838 0.51344 0.43774 0.0
H105 H 0.40139 0.9724 0.73535 0.0
H106 H 0.42333 0.86181 0.73892 0.0
H107 H 0.41832 0.92809 0.78606 0.0
C108 C 0.4051 0.94858 0.74322 0.0
C109 C 0.40843 0.95361 0.76167 0.0
C110 C 0.40982 0.91519 0.7348 0.0
C111 C 0.41844 0.88693 0.74521 0.0
C112 C 0.42267 0.89221 0.76368 0.0
C113 C 0.41617 0.92463 0.77178 0.0
H114 H 0.38854 0.3875 0.06969 0.0
H115 H 0.51886 0.40455 0.07397 0.0
H116 H 0.45243 0.41497 0.12027 0.0
C117 C 0.41642 0.39277 0.07773 0.0
C118 C 0.41562 0.39942 0.096 0.0
C119 C 0.45368 0.39486 0.06965 0.0
C120 C 0.48968 0.40205 0.0802 0.0
C121 C 0.48962 0.40933 0.09852 0.0
C122 C 0.45205 0.40717 0.10635 0.0
H123 H 0.17898 0.55879 0.14222 0.0
H124 H 0.23132 0.53489 0.13392 0.0
H125 H 0.16978 0.42676 0.17102 0.0
H126 H 0.11663 0.45003 0.17936 0.0
H127 H 0.27069 0.47599 0.16764 0.0
H128 H 0.13442 0.39751 0.13414 0.0
H129 H 0.07409 0.39431 0.11617 0.0
H130 H 0.16827 0.47811 0.07698 0.0
H131 H 0.22926 0.48236 0.09488 0.0
H132 H 0.36898 0.36209 0.12645 0.0
H133 H 0.31406 0.37654 0.14058 0.0
H134 H 0.32888 0.46492 0.09783 0.0
H135 H 0.38258 0.44972 0.08355 0.0
H136 H 0.24607 0.41803 0.10617 0.0
H137 H 0.38189 0.50192 0.13856 0.0
H138 H 0.44582 0.51245 0.15614 0.0
H139 H 0.35812 0.42689 0.19663 0.0
H140 H 0.29361 0.41534 0.17916 0.0
C141 C 0.17702 0.53046 0.14892 0.0
C142 C 0.14321 0.50589 0.16126 0.0
C143 C 0.20698 0.51691 0.14415 0.0
C144 C 0.20389 0.4789 0.15175 0.0
C145 C 0.17245 0.45618 0.16503 0.0
C146 C 0.14208 0.46943 0.1697 0.0
C147 C 0.23033 0.46048 0.14435 0.0
C148 C 0.26502 0.46256 0.15433 0.0
C149 C 0.22312 0.44388 0.12688 0.0
C150 C 0.18641 0.44054 0.11592 0.0
C151 C 0.14229 0.4155 0.12175 0.0
C152 C 0.10797 0.41346 0.11157 0.0
C153 C 0.11735 0.43607 0.09546 0.0
C154 C 0.16106 0.46063 0.08947 0.0
C155 C 0.1955 0.46283 0.09962 0.0
C156 C 0.36002 0.38421 0.12005 0.0
C157 C 0.37973 0.40464 0.1039 0.0
C158 C 0.32891 0.39261 0.12814 0.0
C159 C 0.31784 0.42228 0.12037 0.0
C160 C 0.33678 0.44179 0.10403 0.0
C161 C 0.36735 0.43299 0.09586 0.0
C162 C 0.28739 0.43417 0.12929 0.0
C163 C 0.25167 0.43083 0.11959 0.0
C164 C 0.29421 0.45028 0.14691 0.0
C165 C 0.33293 0.45735 0.15746 0.0
C166 C 0.37624 0.48508 0.15115 0.0
C167 C 0.41257 0.49127 0.1611 0.0
C168 C 0.40603 0.47024 0.17746 0.0
C169 C 0.36313 0.44308 0.18393 0.0
C170 C 0.32667 0.43671 0.17402 0.0
H171 H 0.4342 0.47508 0.18515 0.0
H172 H 0.09074 0.4345 0.08761 0.0
H173 H 0.62945 0.15673 0.52643 0.0
H174 H 0.69734 0.22685 0.52096 0.0
H175 H 0.73401 0.1655 0.47979 0.0
H176 H 0.66673 0.09516 0.48529 0.0
H177 H 0.80733 0.23263 0.49722 0.0
H178 H 0.67088 0.20886 0.46923 0.0
H179 H 0.59311 0.1913 0.4707 0.0
H180 H 0.63027 0.30269 0.50494 0.0
H181 H 0.70823 0.32076 0.50372 0.0
H182 H 0.91335 0.38581 0.42868 0.0
H183 H 0.86541 0.32387 0.44788 0.0
H184 H 0.83675 0.40988 0.47929 0.0
H185 H 0.88282 0.47156 0.45955 0.0
H186 H 0.76394 0.33701 0.47257 0.0
H187 H 0.90399 0.37026 0.49506 0.0
H188 H 0.98133 0.38661 0.49408 0.0
H189 H 0.93931 0.25884 0.4714 0.0
H190 H 0.86175 0.24192 0.47199 0.0
C191 C 0.65256 0.15773 0.51658 0.0
C192 C 0.64211 0.1206 0.50598 0.0
C193 C 0.69136 0.19788 0.51348 0.0
C194 C 0.72005 0.20148 0.4997 0.0
C195 C 0.71211 0.16341 0.49042 0.0
C196 C 0.67344 0.12324 0.49353 0.0
C197 C 0.75386 0.24536 0.49296 0.0
C198 C 0.79809 0.25562 0.49184 0.0
C199 C 0.74172 0.27565 0.48633 0.0
C200 C 0.69521 0.26587 0.48652 0.0
C201 C 0.6624 0.22955 0.47708 0.0
C202 C 0.61833 0.21954 0.47786 0.0
C203 C 0.60676 0.24584 0.48791 0.0
C204 C 0.63928 0.28241 0.49712 0.0
C205 C 0.68343 0.29258 0.49638 0.0
C206 C 0.89657 0.39151 0.43958 0.0
C207 C 0.90184 0.43364 0.44254 0.0
C208 C 0.86974 0.35621 0.45074 0.0
C209 C 0.84814 0.36241 0.46524 0.0
C210 C 0.85341 0.40443 0.46827 0.0
C211 C 0.87997 0.4397 0.45703 0.0
C212 C 0.81772 0.32428 0.47646 0.0
C213 C 0.77385 0.31488 0.47833 0.0
C214 C 0.83039 0.295 0.48383 0.0
C215 C 0.87702 0.30494 0.48347 0.0
C216 C 0.91125 0.34575 0.48974 0.0
C217 C 0.95514 0.35511 0.48928 0.0
C218 C 0.96523 0.32381 0.48266 0.0
C219 C 0.93144 0.28305 0.47652 0.0
C220 C 0.88749 0.27354 0.47695 0.0
H221 H -0.00076 0.33112 0.48231 0.0
H222 H 0.57259 0.23785 0.48855 0.0
H223 H 0.57994 0.65933 0.80919 0.0
H224 H 0.56747 0.7201 0.80253 0.0
H225 H 0.50453 0.70419 0.85344 0.0
H226 H 0.51517 0.64162 0.8599 0.0
H227 H 0.45308 0.70349 0.82999 0.0
H228 H 0.60387 0.80175 0.84134 0.0
H229 H 0.68457 0.83192 0.84045 0.0
H230 H 0.685 0.84887 0.78416 0.0
H231 H 0.60421 0.81822 0.78465 0.0
H232 H 0.48472 0.92399 0.7897 0.0
H233 H 0.51038 0.88338 0.80761 0.0
H234 H 0.42276 0.76336 0.77947 0.0
H235 H 0.39559 0.80365 0.76186 0.0
H236 H 0.55301 0.84283 0.79827 0.0
H237 H 0.38962 0.67508 0.80687 0.0
H238 H 0.30959 0.64604 0.81086 0.0
H239 H 0.33587 0.77215 0.83078 0.0
H240 H 0.41612 0.80149 0.82739 0.0
C241 C 0.56453 0.66942 0.81922 0.0
C242 C 0.54813 0.64527 0.83501 0.0
C243 C 0.55765 0.70454 0.81542 0.0
C244 C 0.53521 0.717 0.82751 0.0
C245 C 0.52184 0.69513 0.84389 0.0
C246 C 0.52807 0.65944 0.84759 0.0
C247 C 0.52037 0.74817 0.8219 0.0
C248 C 0.47504 0.73395 0.82309 0.0
C249 C 0.54914 0.78882 0.81342 0.0
C250 C 0.59786 0.80748 0.81303 0.0
C251 C 0.62111 0.81165 0.82875 0.0
C252 C 0.6669 0.82888 0.82832 0.0
C253 C 0.68989 0.84226 0.81226 0.0
C254 C 0.66715 0.83852 0.7966 0.0
C255 C 0.62135 0.82129 0.79694 0.0
C256 C 0.47026 0.88876 0.78752 0.0
C257 C 0.43771 0.86687 0.77449 0.0
C258 C 0.48528 0.86571 0.79767 0.0
C259 C 0.46817 0.82031 0.79501 0.0
C260 C 0.43588 0.7983 0.78194 0.0
C261 C 0.4207 0.82138 0.77177 0.0
C262 C 0.48544 0.79644 0.80544 0.0
C263 C 0.5312 0.81229 0.80521 0.0
C264 C 0.45714 0.75748 0.81499 0.0
C265 C 0.40889 0.7405 0.81679 0.0
C266 C 0.37832 0.69649 0.81222 0.0
C267 C 0.33292 0.67998 0.81436 0.0
C268 C 0.31764 0.70728 0.82102 0.0
C269 C 0.34775 0.75109 0.82557 0.0
C270 C 0.39322 0.76767 0.82354 0.0
H271 H 0.28247 0.69446 0.82267 0.0
H272 H 0.72534 0.85558 0.81196 0.0
H273 H 0.85552 0.53443 0.18682 0.0
H274 H 0.77913 0.51921 0.18357 0.0
H275 H 0.79916 0.53969 0.12722 0.0
H276 H 0.87473 0.55358 0.13031 0.0
H277 H 0.74776 0.57624 0.14512 0.0
H278 H 0.76142 0.44141 0.14034 0.0
H279 H 0.78063 0.3883 0.15321 0.0
H280 H 0.69184 0.36468 0.1967 0.0
H281 H 0.67249 0.418 0.18416 0.0
H282 H 0.57439 0.46722 0.08816 0.0
H283 H 0.64147 0.49591 0.1055 0.0
H284 H 0.5655 0.41931 0.15058 0.0
H285 H 0.49784 0.38799 0.13281 0.0
H286 H 0.63809 0.4156 0.1481 0.0
H287 H 0.60825 0.53226 0.14961 0.0
H288 H 0.58709 0.5855 0.13869 0.0
H289 H 0.70259 0.64608 0.10541 0.0
H290 H 0.72413 0.59277 0.11591 0.0
C291 C 0.84389 0.53687 0.17383 0.0
C292 C 0.87071 0.54499 0.15878 0.0
C293 C 0.80037 0.52805 0.17201 0.0
C294 C 0.78377 0.52823 0.15516 0.0
C295 C 0.81162 0.53958 0.14032 0.0
C296 C 0.85462 0.54738 0.14208 0.0
C297 C 0.73632 0.51184 0.15237 0.0
C298 C 0.72352 0.54123 0.14585 0.0
C299 C 0.70459 0.46642 0.15412 0.0
C300 C 0.71601 0.43411 0.16146 0.0
C301 C 0.74629 0.42515 0.15272 0.0
C302 C 0.75711 0.39493 0.15993 0.0
C303 C 0.73758 0.37327 0.1758 0.0
C304 C 0.707 0.38155 0.18443 0.0
C305 C 0.69609 0.41174 0.17728 0.0
C306 C 0.57181 0.4556 0.10163 0.0
C307 C 0.53066 0.42497 0.10903 0.0
C308 C 0.61021 0.47281 0.11168 0.0
C309 C 0.60838 0.4607 0.12949 0.0
C310 C 0.56757 0.42953 0.13691 0.0
C311 C 0.52898 0.41182 0.12676 0.0
C312 C 0.64978 0.47975 0.1399 0.0
C313 C 0.66155 0.45087 0.14788 0.0
C314 C 0.68027 0.52586 0.13988 0.0
C315 C 0.66775 0.55835 0.13354 0.0
C316 C 0.62903 0.55676 0.13989 0.0
C317 C 0.61697 0.58698 0.13377 0.0
C318 C 0.64347 0.61914 0.12136 0.0
C319 C 0.68212 0.62117 0.11505 0.0
C320 C 0.69432 0.591 0.1211 0.0
H321 H 0.63407 0.6425 0.11664 0.0
H322 H 0.74609 0.35005 0.18141 0.0
H323 H 0.31198 0.93878 0.46311 0.0
H324 H 0.23719 0.88424 0.45362 0.0
H325 H 0.23099 0.79446 0.49419 0.0
H326 H 0.30493 0.84871 0.50394 0.0
H327 H 0.2143 0.80605 0.44006 0.0
H328 H 0.128 0.72527 0.50723 0.0
H329 H 0.12426 0.74889 0.53766 0.0
H330 H 0.15994 0.87845 0.51871 0.0
H331 H 0.16327 0.85548 0.48814 0.0
H332 H 0.03646 0.56883 0.45664 0.0
H333 H 0.08945 0.6421 0.46795 0.0
H334 H 0.05744 0.70267 0.42515 0.0
H335 H 0.0038 0.62933 0.41384 0.0
H336 H 0.08453 0.71563 0.47877 0.0
H337 H 0.15689 0.79173 0.41118 0.0
H338 H 0.16175 0.76851 0.38076 0.0
H339 H 0.1557 0.65072 0.40094 0.0
H340 H 0.15146 0.67358 0.43146 0.0
C341 C 0.29435 0.90776 0.47023 0.0
C342 C 0.31458 0.89798 0.48421 0.0
C343 C 0.25163 0.87665 0.46478 0.0
C344 C 0.22837 0.83546 0.47328 0.0
C345 C 0.2479 0.82635 0.48765 0.0
C346 C 0.29045 0.85734 0.49311 0.0
C347 C 0.18599 0.7999 0.46606 0.0
C348 C 0.18546 0.78707 0.44841 0.0
C349 C 0.14861 0.77473 0.47701 0.0
C350 C 0.14612 0.78866 0.49537 0.0
C351 C 0.13477 0.75872 0.50953 0.0
C352 C 0.13279 0.77202 0.52681 0.0
C353 C 0.14194 0.81517 0.53012 0.0
C354 C 0.15299 0.84508 0.51614 0.0
C355 C 0.155 0.83195 0.49883 0.0
C356 C 0.04002 0.59771 0.44983 0.0
C357 C 0.01623 0.59335 0.43427 0.0
C358 C 0.07029 0.63953 0.45631 0.0
C359 C 0.0775 0.67768 0.44731 0.0
C360 C 0.05259 0.67354 0.43217 0.0
C361 C 0.02224 0.63169 0.42568 0.0
C362 C 0.11369 0.72138 0.45304 0.0
C363 C 0.11299 0.73553 0.47037 0.0
C364 C 0.14997 0.74789 0.44181 0.0
C365 C 0.15324 0.73409 0.42355 0.0
C366 C 0.15671 0.76094 0.40911 0.0
C367 C 0.15937 0.74785 0.39186 0.0
C368 C 0.15884 0.70807 0.38891 0.0
C369 C 0.15591 0.68142 0.40323 0.0
C370 C 0.15334 0.69441 0.4205 0.0
H371 H 0.16083 0.69796 0.37555 0.0
H372 H 0.14041 0.8254 0.54351 0.0
H373 H 0.40949 0.31004 0.80615 0.0
H374 H 0.3907 0.23538 0.79729 0.0
H375 H 0.49863 0.24594 0.82857 0.0
H376 H 0.51795 0.32074 0.83744 0.0
H377 H 0.50039 0.2208 0.79453 0.0
H378 H 0.39373 0.17891 0.84163 0.0
H379 H 0.3322 0.17814 0.85807 0.0
H380 H 0.24786 0.1235 0.81281 0.0
H381 H 0.30911 0.12452 0.796 0.0
H382 H 0.46367 0.00658 0.7876 0.0
H383 H 0.46793 0.07262 0.80035 0.0
H384 H 0.35981 0.05527 0.76738 0.0
H385 H 0.35415 0.98768 0.75491 0.0
H386 H 0.35531 0.08309 0.80164 0.0
H387 H 0.46066 0.12558 0.7544 0.0
H388 H 0.52149 0.12626 0.73744 0.0
H389 H 0.60767 0.18094 0.7822 0.0
H390 H 0.54711 0.17996 0.79953 0.0
C391 C 0.42897 0.29635 0.81132 0.0
C392 C 0.46546 0.32151 0.8224 0.0
C393 C 0.418 0.25358 0.80631 0.0
C394 C 0.44322 0.23521 0.81232 0.0
C395 C 0.47882 0.25966 0.82379 0.0
C396 C 0.48975 0.30236 0.82886 0.0
C397 C 0.43471 0.19191 0.80559 0.0
C398 C 0.46888 0.19057 0.79632 0.0
C399 C 0.39305 0.15292 0.8074 0.0
C400 C 0.35616 0.15222 0.81749 0.0
C401 C 0.36219 0.1671 0.83512 0.0
C402 C 0.32733 0.16654 0.84452 0.0
C403 C 0.28618 0.15089 0.83647 0.0
C404 C 0.27977 0.13566 0.81902 0.0
C405 C 0.31453 0.13619 0.80955 0.0
C406 C 0.44004 0.01608 0.78332 0.0
C407 C 0.40853 0.99188 0.77023 0.0
C408 C 0.4428 0.05408 0.79052 0.0
C409 C 0.41458 0.06903 0.78462 0.0
C410 C 0.38195 0.04421 0.77205 0.0
C411 C 0.37903 0.00593 0.76485 0.0
C412 C 0.42126 0.11202 0.79087 0.0
C413 C 0.38678 0.11337 0.7999 0.0
C414 C 0.46256 0.15125 0.78876 0.0
C415 C 0.49922 0.15233 0.77831 0.0
C416 C 0.49249 0.13745 0.76067 0.0
C417 C 0.52693 0.13793 0.75098 0.0
C418 C 0.56839 0.15354 0.75875 0.0
C419 C 0.57552 0.16882 0.77621 0.0
C420 C 0.54116 0.16835 0.78596 0.0
H421 H 0.59501 0.15388 0.75123 0.0
H422 H 0.25924 0.15048 0.84377 0.0
H423 H 0.44821 0.82709 0.51539 0.0
H424 H 0.46917 0.77371 0.52508 0.0
H425 H 0.59771 0.85176 0.50093 0.0
H426 H 0.57726 0.90602 0.49118 0.0
H427 H 0.55221 0.75152 0.49768 0.0
H428 H 0.59771 0.87061 0.54062 0.0
H429 H 0.58282 0.92011 0.55905 0.0
H430 H 0.47833 0.80777 0.58592 0.0
H431 H 0.4922 0.75756 0.56746 0.0
H432 H 0.63718 0.6358 0.54551 0.0
H433 H 0.63111 0.69626 0.53188 0.0
H434 H 0.51934 0.66582 0.56575 0.0
H435 H 0.52706 0.6073 0.57993 0.0
H436 H 0.56515 0.74894 0.56304 0.0
H437 H 0.51016 0.6297 0.52103 0.0
H438 H 0.51332 0.57423 0.50179 0.0
H439 H 0.62176 0.67774 0.47278 0.0
H440 H 0.61963 0.73383 0.49203 0.0
C441 C 0.4807 0.8327 0.51181 0.0
C442 C 0.51134 0.87122 0.50273 0.0
C443 C 0.49254 0.80209 0.51737 0.0
C444 C 0.53508 0.80931 0.51388 0.0
C445 C 0.56475 0.8459 0.50374 0.0
C446 C 0.55302 0.87684 0.49824 0.0
C447 C 0.54953 0.78079 0.52238 0.0
C448 C 0.55595 0.75134 0.51193 0.0
C449 C 0.55301 0.78007 0.54099 0.0
C450 C 0.54585 0.81033 0.55258 0.0
C451 C 0.57146 0.85646 0.55041 0.0
C452 C 0.5632 0.88464 0.56087 0.0
C453 C 0.5296 0.86709 0.57363 0.0
C454 C 0.50435 0.82132 0.57603 0.0
C455 C 0.51246 0.79299 0.5656 0.0
C456 C 0.61181 0.64266 0.55013 0.0
C457 C 0.58265 0.61731 0.56374 0.0
C458 C 0.6081 0.67686 0.54229 0.0
C459 C 0.57424 0.6851 0.54757 0.0
C460 C 0.5458 0.66024 0.56147 0.0
C461 C 0.55016 0.62683 0.56956 0.0
C462 C 0.56727 0.71863 0.53841 0.0
C463 C 0.56221 0.74926 0.54875 0.0
C464 C 0.56384 0.71953 0.51973 0.0
C465 C 0.56509 0.68591 0.5081 0.0
C466 C 0.53489 0.6406 0.51063 0.0
C467 C 0.53647 0.60906 0.49971 0.0
C468 C 0.56781 0.62245 0.4861 0.0
C469 C 0.59757 0.66742 0.48335 0.0
C470 C 0.59619 0.6991 0.49426 0.0
H471 H 0.56898 0.59798 0.47766 0.0
H472 H 0.52315 0.88896 0.58167 0.0
H473 H 0.67097 0.48773 0.86127 0.0
H474 H 0.74894 0.5162 0.86787 0.0
H475 H 0.78656 0.61102 0.82549 0.0
H476 H 0.70811 0.58319 0.81888 0.0
H477 H 0.83488 0.55646 0.82981 0.0
H478 H 0.79997 0.65751 0.85902 0.0
H479 H 0.75336 0.67716 0.87708 0.0
H480 H 0.76273 0.60455 0.92104 0.0
H481 H 0.80883 0.58385 0.90314 0.0
H482 H 0.05167 0.64462 0.8685 0.0
H483 H 0.98834 0.64366 0.85402 0.0
H484 H 0.90371 0.5662 0.8972 0.0
H485 H 0.96616 0.56681 0.91156 0.0
H486 H 0.8872 0.63041 0.88801 0.0
H487 H 0.90859 0.51865 0.85839 0.0
H488 H 0.9513 0.49287 0.841 0.0
H489 H 0.96471 0.5805 0.79858 0.0
H490 H 0.92254 0.60722 0.81584 0.0
C491 C 0.69569 0.51434 0.8532 0.0
C492 C 0.68336 0.53336 0.8396 0.0
C493 C 0.74019 0.53058 0.85702 0.0
C494 C 0.77318 0.56575 0.8472 0.0
C495 C 0.76133 0.58384 0.83317 0.0
C496 C 0.71662 0.56801 0.82949 0.0
C497 C 0.8198 0.58427 0.8524 0.0
C498 C 0.847 0.57376 0.84229 0.0
C499 C 0.83494 0.60614 0.86879 0.0
C500 C 0.80763 0.61891 0.87969 0.0
C501 C 0.79181 0.64544 0.87249 0.0
C502 C 0.76552 0.65682 0.88271 0.0
C503 C 0.75503 0.64205 0.90019 0.0
C504 C 0.77088 0.61596 0.9075 0.0
C505 C 0.79715 0.60445 0.89733 0.0
C506 C 0.01952 0.62754 0.87488 0.0
C507 C 0.01394 0.60608 0.89122 0.0
C508 C 0.98348 0.62708 0.86662 0.0
C509 C 0.94137 0.60483 0.87455 0.0
C510 C 0.93601 0.58398 0.89095 0.0
C511 C 0.97181 0.58448 0.89917 0.0
C512 C 0.90199 0.60132 0.86573 0.0
C513 C 0.87594 0.61452 0.87523 0.0
C514 C 0.88782 0.58152 0.84887 0.0
C515 C 0.91297 0.56535 0.83848 0.0
C516 C 0.92097 0.53268 0.84541 0.0
C517 C 0.94502 0.51785 0.83558 0.0
C518 C 0.96085 0.53516 0.81872 0.0
C519 C 0.95253 0.56722 0.81165 0.0
C520 C 0.92856 0.58221 0.82145 0.0
H521 H 0.97945 0.52363 0.81113 0.0
H522 H 0.73467 0.65089 0.90808 0.0
H523 H 0.13322 0.71777 0.15245 0.0
H524 H 0.1965 0.78832 0.16158 0.0
H525 H 0.1605 0.75339 0.21638 0.0
H526 H 0.09569 0.68398 0.20721 0.0
H527 H 0.20036 0.83919 0.2134 0.0
H528 H 0.23079 0.72605 0.19413 0.0
H529 H 0.2295 0.67069 0.17345 0.0
H530 H 0.30362 0.77291 0.13533 0.0
H531 H 0.30478 0.82881 0.15572 0.0
H532 H 0.422 0.91284 0.24792 0.0
H533 H 0.34795 0.86468 0.23613 0.0
H534 H 0.37146 0.96018 0.19536 0.0
H535 H 0.44461 0.01015 0.20766 0.0
H536 H 0.3388 0.85113 0.18968 0.0
H537 H 0.30907 0.96513 0.21315 0.0
H538 H 0.31158 0.01443 0.23709 0.0
H539 H 0.23797 0.90222 0.2711 0.0
H540 H 0.23568 0.85234 0.24741 0.0
C541 C 0.13811 0.72592 0.16641 0.0
C542 C 0.11014 0.69545 0.17917 0.0
C543 C 0.17431 0.76605 0.17162 0.0
C544 C 0.18403 0.7754 0.18967 0.0
C545 C 0.15383 0.74672 0.20238 0.0
C546 C 0.11684 0.70707 0.19715 0.0
C547 C 0.22803 0.81162 0.19527 0.0
C548 C 0.23056 0.84185 0.20814 0.0
C549 C 0.26761 0.81495 0.18855 0.0
C550 C 0.26744 0.78151 0.17636 0.0
C551 C 0.24659 0.73667 0.1813 0.0
C552 C 0.24589 0.7052 0.16963 0.0
C553 C 0.26636 0.71826 0.15307 0.0
C554 C 0.2877 0.76284 0.14816 0.0
C555 C 0.2884 0.79443 0.15976 0.0
C556 C 0.41127 0.92418 0.23668 0.0
C557 C 0.43941 0.96556 0.22879 0.0
C558 C 0.36904 0.89648 0.22992 0.0
C559 C 0.35444 0.90932 0.21506 0.0
C560 C 0.38231 0.95009 0.20696 0.0
C561 C 0.42427 0.97826 0.21389 0.0
C562 C 0.31082 0.8787 0.2075 0.0
C563 C 0.30849 0.84907 0.1945 0.0
C564 C 0.2716 0.87524 0.21442 0.0
C565 C 0.27269 0.90512 0.2286 0.0
C566 C 0.29388 0.95104 0.2258 0.0
C567 C 0.29514 0.97907 0.2393 0.0
C568 C 0.27507 0.96149 0.25563 0.0
C569 C 0.25357 0.91581 0.25846 0.0
C570 C 0.25225 0.88765 0.24499 0.0
H571 H 0.27608 0.98323 0.26607 0.0
H572 H 0.26577 0.69385 0.14405 0.0
H573 H 0.44031 0.12909 0.52856 0.0
H574 H 0.44865 0.20266 0.53098 0.0
H575 H 0.48648 0.22745 0.47593 0.0
H576 H 0.47685 0.15296 0.47329 0.0
H577 H 0.54999 0.28769 0.50182 0.0
H578 H 0.40176 0.23254 0.48446 0.0
H579 H 0.32133 0.18062 0.48371 0.0
H580 H 0.31102 0.20549 0.53871 0.0
H581 H 0.3915 0.25706 0.53989 0.0
H582 H 0.59957 0.50197 0.53311 0.0
H583 H 0.57333 0.43739 0.51375 0.0
H584 H 0.48736 0.35396 0.55551 0.0
H585 H 0.51109 0.41819 0.57439 0.0
H586 H 0.44477 0.33097 0.52575 0.0
H587 H 0.59167 0.36524 0.54514 0.0
H588 H 0.67285 0.41034 0.54788 0.0
H589 H 0.68594 0.41886 0.49126 0.0
H590 H 0.60475 0.37429 0.48821 0.0
C591 C 0.44911 0.14976 0.51686 0.0
C592 C 0.45795 0.1356 0.50076 0.0
C593 C 0.45367 0.1916 0.51822 0.0
C594 C 0.46793 0.2202 0.50359 0.0
C595 C 0.47496 0.20551 0.48727 0.0
C596 C 0.46937 0.16308 0.48579 0.0
C597 C 0.48153 0.26708 0.50645 0.0
C598 C 0.527 0.29775 0.50652 0.0
C599 C 0.45135 0.27957 0.51284 0.0
C600 C 0.4028 0.24866 0.51226 0.0
C601 C 0.38242 0.22673 0.49643 0.0
C602 C 0.33678 0.19739 0.49593 0.0
C603 C 0.31108 0.18975 0.51116 0.0
C604 C 0.33097 0.21148 0.52692 0.0
C605 C 0.3766 0.24086 0.5275 0.0
C606 C 0.5748 0.46989 0.5381 0.0
C607 C 0.5578 0.46525 0.5554 0.0
C608 C 0.56007 0.43299 0.52706 0.0
C609 C 0.52857 0.39079 0.53321 0.0
C610 C 0.51159 0.3862 0.55043 0.0
C611 C 0.52582 0.42296 0.56135 0.0
C612 C 0.51354 0.35073 0.52215 0.0
C613 C 0.46779 0.32151 0.52048 0.0
C614 C 0.54354 0.33917 0.51459 0.0
C615 C 0.59216 0.36716 0.51645 0.0
C616 C 0.61185 0.37724 0.53328 0.0
C617 C 0.65785 0.40258 0.53489 0.0
C618 C 0.68452 0.41764 0.51975 0.0
C619 C 0.66524 0.40738 0.50297 0.0
C620 C 0.61924 0.38215 0.5013 0.0
H621 H 0.72014 0.43712 0.52103 0.0
H622 H 0.27575 0.16701 0.51074 0.0
H623 H 0.34527 0.45065 0.8097 0.0
H624 H 0.27972 0.45919 0.8124 0.0
H625 H 0.29521 0.46893 0.86908 0.0
H626 H 0.36 0.46028 0.8666 0.0
H627 H 0.19564 0.41804 0.84709 0.0
H628 H 0.33896 0.58181 0.86445 0.0
H629 H 0.41766 0.62659 0.85567 0.0
H630 H 0.38298 0.58767 0.8015 0.0
H631 H 0.30418 0.54333 0.80995 0.0
H632 H 0.12884 0.52152 0.90731 0.0
H633 H 0.16759 0.49295 0.88981 0.0
H634 H 0.18479 0.58298 0.84744 0.0
H635 H 0.14793 0.61366 0.86538 0.0
H636 H 0.25804 0.58057 0.85165 0.0
H637 H 0.10792 0.47146 0.84396 0.0
H638 H 0.03063 0.4195 0.85256 0.0
H639 H 0.07319 0.34517 0.88378 0.0
H640 H 0.15083 0.39705 0.8756 0.0
C641 C 0.3337 0.45305 0.82276 0.0
C642 C 0.35808 0.45555 0.83793 0.0
C643 C 0.29632 0.45787 0.82426 0.0
C644 C 0.28307 0.46493 0.84093 0.0
C645 C 0.305 0.46337 0.85613 0.0
C646 C 0.3422 0.45878 0.85466 0.0
C647 C 0.2525 0.48225 0.84274 0.0
C648 C 0.20859 0.45346 0.84774 0.0
C649 C 0.26958 0.52841 0.84319 0.0
C650 C 0.3159 0.55931 0.83782 0.0
C651 C 0.34815 0.58347 0.85064 0.0
C652 C 0.39275 0.60853 0.84574 0.0
C653 C 0.40531 0.60958 0.82807 0.0
C654 C 0.37324 0.58653 0.8152 0.0
C655 C 0.32864 0.56164 0.82002 0.0
C656 C 0.14149 0.53591 0.89441 0.0
C657 C 0.13537 0.57005 0.88779 0.0
C658 C 0.16296 0.51892 0.88426 0.0
C659 C 0.1781 0.53502 0.86711 0.0
C660 C 0.17289 0.56968 0.86055 0.0
C661 C 0.15166 0.58702 0.87079 0.0
C662 C 0.20067 0.51633 0.85647 0.0
C663 C 0.24369 0.54508 0.85019 0.0
C664 C 0.18202 0.46997 0.85432 0.0
C665 C 0.13529 0.43829 0.85919 0.0
C666 C 0.10085 0.44417 0.85273 0.0
C667 C 0.05696 0.41471 0.85753 0.0
C668 C 0.04701 0.37907 0.86871 0.0
C669 C 0.08094 0.37277 0.8751 0.0
C670 C 0.12491 0.40215 0.87036 0.0
H671 H 0.01301 0.35631 0.87242 0.0
H672 H 0.43986 0.6283 0.82431 0.0
H673 H 0.92941 0.34406 0.17776 0.0
H674 H 0.8636 0.27229 0.18289 0.0
H675 H 0.7925 0.30234 0.14394 0.0
H676 H 0.85806 0.37447 0.13881 0.0
H677 H 0.7535 0.28548 0.17546 0.0
H678 H 0.80811 0.21432 0.13807 0.0
H679 H 0.86254 0.19586 0.12596 0.0
H680 H 0.86932 0.14255 0.17626 0.0
H681 H 0.81542 0.16128 0.18877 0.0
H682 H 0.5571 0.09452 0.20206 0.0
H683 H 0.61799 0.14543 0.18301 0.0
H684 H 0.71045 0.13137 0.2162 0.0
H685 H 0.6494 0.07839 0.23478 0.0
H686 H 0.73344 0.13537 0.18236 0.0
H687 H 0.69013 0.21793 0.22077 0.0
H688 H 0.63976 0.24056 0.23392 0.0
H689 H 0.6161 0.27659 0.18251 0.0
H690 H 0.66584 0.25355 0.16902 0.0
C691 C 0.90019 0.33499 0.16991 0.0
C692 C 0.89879 0.36532 0.15809 0.0
C693 C 0.86264 0.29372 0.17277 0.0
C694 C 0.82315 0.282 0.1638 0.0
C695 C 0.82269 0.31078 0.15098 0.0
C696 C 0.86025 0.35202 0.14808 0.0
C697 C 0.78113 0.24372 0.17 0.0
C698 C 0.74856 0.25234 0.17653 0.0
C699 C 0.77543 0.2009 0.17185 0.0
C700 C 0.80786 0.18947 0.16439 0.0
C701 C 0.82145 0.19897 0.1466 0.0
C702 C 0.85217 0.1884 0.13965 0.0
C703 C 0.86943 0.16811 0.15034 0.0
C704 C 0.85593 0.15827 0.16799 0.0
C705 C 0.82522 0.1688 0.17501 0.0
C706 C 0.59025 0.10149 0.20513 0.0
C707 C 0.59839 0.08257 0.22005 0.0
C708 C 0.62508 0.13094 0.1943 0.0
C709 C 0.66882 0.14271 0.19834 0.0
C710 C 0.67695 0.12285 0.21287 0.0
C711 C 0.64207 0.09302 0.22361 0.0
C712 C 0.70637 0.17756 0.18809 0.0
C713 C 0.73803 0.16831 0.1809 0.0
C714 C 0.71162 0.22015 0.18577 0.0
C715 C 0.68112 0.2333 0.19385 0.0
C716 C 0.67377 0.23017 0.21224 0.0
C717 C 0.64542 0.24318 0.21977 0.0
C718 C 0.62456 0.25978 0.20905 0.0
C719 C 0.63207 0.26348 0.19079 0.0
C720 C 0.66033 0.25045 0.18319 0.0
H721 H 0.60273 0.26996 0.2149 0.0
H722 H 0.89321 0.15995 0.14494 0.0
H723 H 0.11086 0.60047 0.09897 0.0
H724 H 0.12601 0.61032 0.06721 0.0
H725 H 0.98666 0.52744 0.05649 0.0
H726 H 0.97127 0.51659 0.08822 0.0
H727 H 0.034 0.50567 0.03568 0.0
H728 H 0.04021 0.64171 0.05283 0.0
H729 H 0.06662 0.71023 0.07018 0.0
H730 H 0.19931 0.75677 0.05179 0.0
H731 H 0.17376 0.68823 0.0345 0.0
H732 H 0.01402 0.55854 0.94825 0.0
H733 H 0.01152 0.55248 0.98041 0.0
H734 H 0.15414 0.62716 0.98228 0.0
H735 H 0.15691 0.63413 0.94983 0.0
H736 H 0.1135 0.65407 0.00761 0.0
H737 H 0.10487 0.51967 0.98831 0.0
H738 H 0.07689 0.45158 0.97056 0.0
H739 H 0.94714 0.40206 0.99284 0.0
H740 H 0.97418 0.47018 0.01053 0.0
C741 C 0.08336 0.58445 0.08987 0.0
C742 C 0.03979 0.55782 0.09615 0.0
C743 C 0.09211 0.59025 0.0717 0.0
C744 C 0.05743 0.57001 0.05947 0.0
C745 C 0.01395 0.54336 0.0657 0.0
C746 C 0.00519 0.53729 0.08385 0.0
C747 C 0.06632 0.57598 0.04015 0.0
C748 C 0.05101 0.53812 0.02954 0.0
C749 C 0.08979 0.61837 0.03219 0.0
C750 C 0.10515 0.65964 0.04253 0.0
C751 C 0.07508 0.66641 0.05259 0.0
C752 C 0.08988 0.70527 0.0624 0.0
C753 C 0.13463 0.73777 0.06213 0.0
C754 C 0.16466 0.73153 0.05201 0.0
C755 C 0.15004 0.6927 0.0422 0.0
C756 C 0.04491 0.57417 0.95548 0.0
C757 C 0.0857 0.5971 0.94653 0.0
C758 C 0.04341 0.57029 0.97385 0.0
C759 C 0.08264 0.58897 0.98369 0.0
C760 C 0.12351 0.61239 0.97488 0.0
C761 C 0.12506 0.61615 0.95639 0.0
C762 C 0.08031 0.58375 0.00318 0.0
C763 C 0.0969 0.62168 0.01381 0.0
C764 C 0.05785 0.54142 0.01117 0.0
C765 C 0.04151 0.5002 0.00066 0.0
C766 C 0.0703 0.49441 0.98933 0.0
C767 C 0.05461 0.45578 0.9793 0.0
C768 C 0.01025 0.42255 0.98055 0.0
C769 C 0.9815 0.42784 0.99188 0.0
C770 C -0.003 0.46643 0.00193 0.0
H771 H -0.00183 0.39267 0.97277 0.0
H772 H 0.14603 0.76784 0.06973 0.0
H773 H 0.49043 0.06492 0.42778 0.0
H774 H 0.50237 0.07115 0.39583 0.0
H775 H 0.54261 0.97277 0.3978 0.0
H776 H 0.53313 0.96843 0.43002 0.0
H777 H 0.59174 0.03102 0.37528 0.0
H778 H 0.43572 0.94906 0.38406 0.0
H779 H 0.36303 0.9322 0.39596 0.0
H780 H 0.37604 0.04827 0.37077 0.0
H781 H 0.44911 0.06616 0.3589 0.0
H782 H 0.52134 0.96141 0.28365 0.0
H783 H 0.52441 0.96295 0.31615 0.0
H784 H 0.55719 0.09953 0.31572 0.0
H785 H 0.55552 0.09851 0.28316 0.0
H786 H 0.47262 0.02187 0.33679 0.0
H787 H 0.63284 0.09946 0.32785 0.0
H788 H 0.70103 0.10626 0.315 0.0
H789 H 0.67271 0.98406 0.33963 0.0
H790 H 0.60394 0.97619 0.3524 0.0
C791 C 0.5019 0.04469 0.42139 0.0
C792 C 0.51046 0.01587 0.43131 0.0
C793 C 0.50853 0.0481 0.40311 0.0
C794 C 0.52232 0.02161 0.39429 0.0
C795 C 0.53179 0.99345 0.40427 0.0
C796 C 0.52625 0.99087 0.42265 0.0
C797 C 0.52629 0.023 0.37468 0.0
C798 C 0.56544 0.02861 0.36691 0.0
C799 C 0.49208 0.01984 0.36365 0.0
C800 C 0.44809 0.00918 0.37074 0.0
C801 C 0.42322 0.97116 0.38116 0.0
C802 C 0.38193 0.96139 0.38789 0.0
C803 C 0.36498 0.98921 0.38416 0.0
C804 C 0.38924 0.02679 0.37366 0.0
C805 C 0.43058 0.03674 0.36692 0.0
C806 C 0.52995 0.9919 0.29054 0.0
C807 C 0.53833 0.02989 0.28107 0.0
C808 C 0.53174 0.99276 0.309 0.0
C809 C 0.54119 0.03139 0.31819 0.0
C810 C 0.55018 0.06958 0.30876 0.0
C811 C 0.54932 0.06901 0.29026 0.0
C812 C 0.53807 0.03063 0.33765 0.0
C813 C 0.49886 0.02464 0.3453 0.0
C814 C 0.57158 0.03212 0.34849 0.0
C815 C 0.613 0.03698 0.3409 0.0
C816 C 0.6409 0.07379 0.33036 0.0
C817 C 0.67972 0.07791 0.32313 0.0
C818 C 0.69113 0.04554 0.32645 0.0
C819 C 0.6638 0.00907 0.33705 0.0
C820 C 0.62492 0.00479 0.34429 0.0
H821 H 0.7212 0.04879 0.32085 0.0
H822 H 0.333 0.98158 0.38938 0.0
H823 H 0.59558 0.56128 0.76645 0.0
H824 H 0.60534 0.5662 0.73439 0.0
H825 H 0.48032 0.44553 0.72823 0.0
H826 H 0.4702 0.4401 0.76041 0.0
H827 H 0.54793 0.44775 0.70772 0.0
H828 H 0.48562 0.54057 0.7196 0.0
H829 H 0.48066 0.60071 0.7346 0.0
H830 H 0.61003 0.69526 0.71531 0.0
H831 H 0.61602 0.63556 0.70039 0.0
H832 H 0.52027 0.46481 0.61565 0.0
H833 H 0.51295 0.4571 0.64778 0.0
H834 H 0.63007 0.58529 0.65387 0.0
H835 H 0.63703 0.59347 0.62162 0.0
H836 H 0.56676 0.57878 0.67467 0.0
H837 H 0.62976 0.48725 0.66256 0.0
H838 H 0.63618 0.42762 0.64785 0.0
H839 H 0.50808 0.33143 0.66771 0.0
H840 H 0.50061 0.39057 0.68234 0.0
C841 C 0.57006 0.53575 0.75832 0.0
C842 C 0.53201 0.50034 0.766 0.0
C843 C 0.57568 0.53871 0.73999 0.0
C844 C 0.54339 0.50641 0.72898 0.0
C845 C 0.50557 0.47079 0.73655 0.0
C846 C 0.49977 0.46789 0.75491 0.0
C847 C 0.54931 0.50994 0.70954 0.0
C848 C 0.55146 0.47607 0.70041 0.0
C849 C 0.5551 0.54751 0.70017 0.0
C850 C 0.55143 0.58352 0.70902 0.0
C851 C 0.51315 0.57414 0.71867 0.0
C852 C 0.51013 0.60815 0.72714 0.0
C853 C 0.54505 0.65176 0.72595 0.0
C854 C 0.58302 0.66146 0.71624 0.0
C855 C 0.58623 0.62755 0.70776 0.0
C856 C 0.5449 0.491 0.62384 0.0
C857 C 0.57938 0.52965 0.61617 0.0
C858 C 0.54069 0.48657 0.64221 0.0
C859 C 0.57126 0.52039 0.65324 0.0
C860 C 0.60611 0.55878 0.6456 0.0
C861 C 0.61009 0.56342 0.62721 0.0
C862 C 0.56559 0.51661 0.67274 0.0
C863 C 0.56338 0.55045 0.68191 0.0
C864 C 0.56 0.47909 0.68215 0.0
C865 C 0.56447 0.44342 0.67342 0.0
C866 C 0.60281 0.45342 0.66368 0.0
C867 C 0.60666 0.4197 0.65537 0.0
C868 C 0.57251 0.37578 0.65681 0.0
C869 C 0.53448 0.36548 0.66659 0.0
C870 C 0.53044 0.39908 0.67491 0.0
H871 H 0.57556 0.34972 0.65036 0.0
H872 H 0.54266 0.67805 0.73252 0.0
H873 H 0.46097 0.91338 0.56458 0.0
H874 H 0.45205 0.89871 0.59639 0.0
H875 H 0.42951 0.00861 0.60375 0.0
H876 H 0.44214 0.02535 0.57209 0.0
H877 H 0.47532 0.01061 0.62893 0.0
H878 H 0.34295 0.89135 0.60426 0.0
H879 H 0.29843 0.82822 0.58448 0.0
H880 H 0.35784 0.7574 0.60674 0.0
H881 H 0.40305 0.82032 0.62654 0.0
H882 H 0.35752 0.92904 0.7117 0.0
H883 H 0.3643 0.9353 0.67948 0.0
H884 H 0.46626 0.90027 0.6808 0.0
H885 H 0.4619 0.89654 0.7131 0.0
H886 H 0.37922 0.85854 0.65208 0.0
H887 H 0.5163 0.98817 0.67534 0.0
H888 H 0.55204 0.05122 0.69598 0.0
H889 H 0.47085 0.10191 0.67638 0.0
H890 H 0.43418 0.03869 0.65581 0.0
C891 C 0.45406 0.93428 0.57305 0.0
C892 C 0.45191 0.97028 0.56599 0.0
C893 C 0.4486 0.92571 0.59121 0.0
C894 C 0.43892 0.9518 0.60253 0.0
C895 C 0.43688 0.98789 0.59537 0.0
C896 C 0.4439 -0.0026 0.57729 0.0
C897 C 0.43183 0.94215 0.62185 0.0
C898 C 0.45395 0.9773 0.63385 0.0
C899 C 0.4041 0.89874 0.62853 0.0
C900 C 0.37663 0.86067 0.61678 0.0
C901 C 0.34666 0.86239 0.60487 0.0
C902 C 0.32129 0.82664 0.59367 0.0
C903 C 0.32537 0.78886 0.59432 0.0
C904 C 0.35473 0.7867 0.60624 0.0
C905 C 0.38019 0.82236 0.61747 0.0
C906 C 0.3815 0.92272 0.7052 0.0
C907 C 0.4095 0.91276 0.7151 0.0
C908 C 0.38496 0.9259 0.68678 0.0
C909 C 0.41583 0.91835 0.6779 0.0
C910 C 0.44213 0.90602 0.68753 0.0
C911 C 0.43931 0.90363 0.70599 0.0
C912 C 0.42292 0.92679 0.65872 0.0
C913 C 0.40065 0.89156 0.6469 0.0
C914 C 0.44952 0.97013 0.65216 0.0
C915 C 0.47223 0.00854 0.66421 0.0
C916 C 0.50584 0.01257 0.67555 0.0
C917 C 0.52631 0.04836 0.68721 0.0
C918 C 0.51362 0.08048 0.68754 0.0
C919 C 0.48059 0.07697 0.67614 0.0
C920 C 0.45998 0.0412 0.66448 0.0
H921 H 0.52946 0.10814 0.69659 0.0
H922 H 0.30573 0.76124 0.58563 0.0
H923 H 0.53906 0.41546 0.90077 0.0
H924 H 0.53192 0.40011 0.93255 0.0
H925 H 0.47964 0.48778 0.93995 0.0
H926 H 0.48727 0.50389 0.90833 0.0
H927 H 0.53892 0.50048 0.96496 0.0
H928 H 0.41178 0.3753 0.93869 0.0
H929 H 0.37404 0.31179 0.91839 0.0
H930 H 0.44178 0.25086 0.94213 0.0
H931 H 0.48039 0.31434 0.96242 0.0
H932 H 0.43073 0.4394 0.04644 0.0
H933 H 0.44391 0.44773 0.01462 0.0
H934 H 0.50095 0.36322 0.01666 0.0
H935 H 0.48676 0.3537 0.04867 0.0
H936 H 0.44613 0.34699 0.98726 0.0
H937 H 0.56843 0.46997 0.01533 0.0
H938 H 0.60459 0.5331 0.03587 0.0
H939 H 0.54532 0.5983 0.00878 0.0
H940 H 0.50819 0.5352 0.98824 0.0
C941 C 0.5262 0.43163 0.90916 0.0
C942 C 0.51355 0.46077 0.90197 0.0
C943 C 0.52199 0.42267 0.92731 0.0
C944 C 0.50476 0.4424 0.93856 0.0
C945 C 0.49299 0.47217 0.93149 0.0
C946 C 0.49729 0.48125 0.91338 0.0
C947 C 0.49845 0.43193 0.95771 0.0
C948 C 0.51836 0.46696 0.96983 0.0
C949 C 0.47267 0.38803 0.96406 0.0
C950 C 0.44933 0.34978 0.95193 0.0
C951 C 0.41888 0.34852 0.93948 0.0
C952 C 0.39729 0.3125 0.928 0.0
C953 C 0.40561 0.27737 0.92894 0.0
C954 C 0.43544 0.27813 0.9414 0.0
C955 C 0.45716 0.3141 0.9529 0.0
C956 C 0.44511 0.42168 0.04011 0.0
C957 C 0.45764 0.39579 0.05007 0.0
C958 C 0.45307 0.42689 0.02194 0.0
C959 C 0.47401 0.40664 0.01338 0.0
C960 C 0.48496 0.37929 0.02309 0.0
C961 C 0.47705 0.37408 0.04134 0.0
C962 C 0.48576 0.41567 0.99442 0.0
C963 C 0.46705 0.38042 0.98237 0.0
C964 C 0.5126 0.4594 0.98811 0.0
C965 C 0.53525 0.49767 0.00032 0.0
C966 C 0.56284 0.49762 0.01383 0.0
C967 C 0.58355 0.53342 0.02546 0.0
C968 C 0.57719 0.56965 0.02365 0.0
C969 C 0.55019 0.5702 0.01017 0.0
C970 C 0.52934 0.53443 -0.00148 0.0
H971 H 0.59325 0.59734 0.03267 0.0
H972 H 0.38886 0.24952 0.92003 0.0
H973 H 0.92543 0.50264 0.23188 0.0
H974 H 0.91521 0.49262 0.26388 0.0
H975 H 0.04001 0.49554 0.26804 0.0
H976 H 0.04841 0.50208 0.23577 0.0
H977 H 0.9886 0.44038 0.29034 0.0
H978 H 0.02467 0.5888 0.27745 0.0
H979 H 0.01784 0.64816 0.26282 0.0
H980 H 0.88667 0.59549 0.28408 0.0
H981 H 0.89252 0.53546 0.29866 0.0
H982 H 0.03031 0.51906 0.38055 0.0
H983 H 0.03238 0.51279 0.34824 0.0
H984 H 0.89144 0.46102 0.34607 0.0
H985 H 0.88908 0.46644 0.37846 0.0
H986 H 0.94899 0.53859 0.32341 0.0
H987 H 0.92047 0.39189 0.33826 0.0
H988 H 0.93559 0.33896 0.35386 0.0
H989 H 0.06456 0.39819 0.3299 0.0
H990 H 0.05046 0.45193 0.31435 0.0
C991 C 0.95047 0.50084 0.23967 0.0
C992 C 0.98787 0.5035 0.23149 0.0
C993 C 0.94482 0.49544 0.25796 0.0
C994 C 0.97747 0.49466 0.26852 0.0
C995 C 0.0144 0.49624 0.26024 0.0
C996 C 0.0193 0.50012 0.24184 0.0
C997 C 0.97347 0.493 0.28816 0.0
C998 C 0.98042 0.46227 0.29752 0.0
C999 C 0.96242 0.52122 0.29768 0.0
C1000 C 0.95888 0.5574 0.289 0.0
C1001 C 0.99427 0.58972 0.27891 0.0
C1002 C 0.99059 0.6235 0.27064 0.0
C1003 C 0.9518 0.62552 0.27248 0.0
C1004 C 0.91667 0.59384 0.28265 0.0
C1005 C 0.92016 0.55996 0.29093 0.0
C1006 C -0.00023 0.50594 0.37315 0.0
C1007 C 0.95953 0.49326 0.38187 0.0
C1008 C 0.00096 0.50223 0.35478 0.0
C1009 C 0.96204 0.48635 0.34487 0.0
C1010 C 0.92173 0.47319 0.35357 0.0
C1011 C 0.9204 0.47615 0.37199 0.0
C1012 C 0.96402 0.48612 0.32535 0.0
C1013 C 0.9569 0.51666 0.31609 0.0
C1014 C 0.97618 0.45873 0.31602 0.0
C1015 C 0.98454 0.4262 0.32527 0.0
C1016 C 0.9522 0.39389 0.33644 0.0
C1017 C 0.96056 0.36368 0.34525 0.0
C1018 C 0.00105 0.36527 0.34291 0.0
C1019 C 0.03323 0.39701 0.33171 0.0
C1020 C 0.02505 0.42732 0.32289 0.0
H1021 H 0.00746 0.34186 0.34974 0.0
H1022 H 0.94901 0.65169 0.26607 0.0
loop_
_geom_bond_atom_site_label_1
_geom_bond_atom_site_label_2
_geom_bond_distance
_geom_bond_site_symmetry_2
_ccdc_geom_bond_type
O0 Zn1 1.953 . S
O0 C16 1.225 1_655 S
Zn1 O0 1.953 . S
Zn1 O2 1.949 1_655 S
Zn1 O8 1.919 . S
Zn1 O13 1.924 1_655 S
O2 Zn1 1.949 1_455 S
O2 Zn3 1.923 1_455 S
O2 Zn4 1.950 . S
O2 Zn5 1.945 . S
Zn3 O2 1.923 1_655 S
Zn3 O6 1.933 . S
Zn3 O9 1.941 . S
Zn3 O10 1.965 . S
Zn4 O2 1.950 . S
Zn4 O11 1.938 1_455 S
Zn4 O12 1.906 . S
Zn4 O22 1.953 . S
Zn5 O2 1.945 . S
Zn5 O7 1.932 . S
Zn5 O14 1.977 . S
Zn5 O15 1.910 . S
O6 Zn3 1.933 . S
O6 C17 1.226 1_655 S
O7 Zn5 1.932 . S
O7 C17 1.307 . S
O8 Zn1 1.919 . S
O8 C19 1.253 . S
O9 Zn3 1.941 . S
O9 C19 1.283 . S
O10 Zn3 1.965 . S
O10 C18 1.303 . S
O11 Zn4 1.938 1_655 S
O11 C18 1.247 . S
O12 Zn4 1.906 . S
O12 C20 1.304 . S
O13 Zn1 1.924 1_455 S
O13 C21 1.311 . S
O14 Zn5 1.977 . S
O14 C20 1.272 . S
O15 Zn5 1.910 . S
O15 C21 1.231 . S
C16 O0 1.225 1_455 S
C16 O22 1.298 . S
C17 O6 1.226 1_455 S
C17 O7 1.307 . S
C18 O10 1.303 . S
C18 O11 1.247 . S
C19 O8 1.253 . S
C19 O9 1.283 . S
C20 O12 1.304 . S
C20 O14 1.272 . S
C21 O13 1.311 . S
C21 O15 1.231 . S
O22 Zn4 1.953 . S
O22 C16 1.298 . S
O23 Zn24 1.953 . S
O23 C39 1.225 . S
Zn24 O23 1.953 . S
Zn24 O25 1.949 . S
Zn24 O31 1.919 . S
Zn24 O36 1.924 1_545 S
O25 Zn24 1.949 . S
O25 Zn26 1.923 . S
O25 Zn27 1.950 1_545 S
O25 Zn28 1.945 1_545 S
Zn26 O25 1.923 . S
Zn26 O29 1.933 . S
Zn26 O32 1.941 . S
Zn26 O33 1.965 . S
Zn27 O25 1.950 1_565 S
Zn27 O34 1.938 1_565 S
Zn27 O35 1.906 . S
Zn27 O45 1.953 . S
Zn28 O25 1.945 1_565 S
Zn28 O30 1.932 . S
Zn28 O37 1.977 . S
Zn28 O38 1.910 . S
O29 Zn26 1.933 . S
O29 C40 1.226 . S
O30 Zn28 1.932 . S
O30 C40 1.307 1_565 S
O31 Zn24 1.919 . S
O31 C42 1.253 . S
O32 Zn26 1.941 . S
O32 C42 1.283 . S
O33 Zn26 1.965 . S
O33 C41 1.303 . S
O34 Zn27 1.938 1_545 S
O34 C41 1.247 . S
O35 Zn27 1.906 . S
O35 C43 1.304 . S
O36 Zn24 1.924 1_565 S
O36 C44 1.311 . S
O37 Zn28 1.977 . S
O37 C43 1.272 . S
O38 Zn28 1.910 . S
O38 C44 1.231 . S
C39 O23 1.225 . S
C39 O45 1.298 1_545 S
C40 O29 1.226 . S
C40 O30 1.307 1_545 S
C41 O33 1.303 . S
C41 O34 1.247 . S
C42 O31 1.253 . S
C42 O32 1.283 . S
C43 O35 1.304 . S
C43 O37 1.272 . S
C44 O36 1.311 . S
C44 O38 1.231 . S
O45 Zn27 1.953 . S
O45 C39 1.298 1_565 S
O46 Zn47 1.953 . S
O46 C62 1.225 . S
Zn47 O46 1.953 . S
Zn47 O48 1.949 . S
Zn47 O54 1.919 . S
Zn47 O59 1.924 . S
O48 Zn47 1.949 . S
O48 Zn49 1.923 . S
O48 Zn50 1.950 . S
O48 Zn51 1.945 . S
Zn49 O48 1.923 . S
Zn49 O52 1.933 . S
Zn49 O55 1.941 . S
Zn49 O56 1.965 . S
Zn50 O48 1.950 . S
Zn50 O57 1.938 . S
Zn50 O58 1.906 . S
Zn50 O68 1.953 . S
Zn51 O48 1.945 . S
Zn51 O53 1.932 . S
Zn51 O60 1.977 . S
Zn51 O61 1.910 . S
O52 Zn49 1.933 . S
O52 C63 1.226 . S
O53 Zn51 1.932 . S
O53 C63 1.307 . S
O54 Zn47 1.919 . S
O54 C65 1.253 . S
O55 Zn49 1.941 . S
O55 C65 1.283 . S
O56 Zn49 1.965 . S
O56 C64 1.303 . S
O57 Zn50 1.938 . S
O57 C64 1.247 . S
O58 Zn50 1.906 . S
O58 C66 1.304 . S
O59 Zn47 1.924 . S
O59 C67 1.311 . S
O60 Zn51 1.977 . S
O60 C66 1.272 . S
O61 Zn51 1.910 . S
O61 C67 1.231 . S
C62 O46 1.225 . S
C62 O68 1.298 . S
C63 O52 1.226 . S
C63 O53 1.307 . S
C64 O56 1.303 . S
C64 O57 1.247 . S
C65 O54 1.253 . S
C65 O55 1.283 . S
C66 O58 1.304 . S
C66 O60 1.272 . S
C67 O59 1.311 . S
C67 O61 1.231 . S
O68 Zn50 1.953 . S
O68 C62 1.298 . S
H69 C72 0.931 . S
H70 C75 0.928 . S
H71 C77 0.930 . S
C72 H69 0.931 . S
C72 C73 1.413 . S
C72 C74 1.360 1_565 S
C73 C72 1.413 . S
C73 C77 1.429 1_565 S
C74 C72 1.360 1_545 S
C74 C75 1.372 . S
C75 H70 0.928 . S
C75 C74 1.372 . S
C75 C76 1.404 . S
C76 C75 1.404 . S
C76 C77 1.391 . S
C77 H71 0.930 . S
C77 C73 1.429 1_545 S
C77 C76 1.391 . S
H78 C81 0.931 . S
H79 C84 0.928 . S
H80 C86 0.930 . S
C81 H78 0.931 . S
C81 C82 1.413 . S
C81 C83 1.360 . S
C82 C81 1.413 . S
C82 C86 1.429 . S
C83 C81 1.360 . S
C83 C84 1.372 . S
C84 H79 0.928 . S
C84 C83 1.372 . S
C84 C85 1.404 . S
C85 C84 1.404 . S
C85 C86 1.391 . S
C86 H80 0.930 . S
C86 C82 1.429 . S
C86 C85 1.391 . S
H87 C90 0.931 . S
H88 C93 0.928 . S
H89 C95 0.930 . S
C90 H87 0.931 . S
C90 C91 1.413 . S
C90 C92 1.360 1_655 S
C91 C90 1.413 . S
C91 C95 1.429 1_655 S
C92 C90 1.360 1_455 S
C92 C93 1.372 . S
C93 H88 0.928 . S
C93 C92 1.372 . S
C93 C94 1.404 . S
C94 C93 1.404 . S
C94 C95 1.391 . S
C95 H89 0.930 . S
C95 C91 1.429 1_455 S
C95 C94 1.391 . S
H96 C99 0.931 . S
H97 C102 0.928 . S
H98 C104 0.930 . S
C99 H96 0.931 . S
C99 C100 1.413 . S
C99 C101 1.360 1_655 S
C100 C99 1.413 . S
C100 C104 1.429 1_655 S
C101 C99 1.360 1_455 S
C101 C102 1.372 . S
C102 H97 0.928 . S
C102 C101 1.372 . S
C102 C103 1.404 . S
C103 C102 1.404 . S
C103 C104 1.391 . S
C104 H98 0.930 . S
C104 C100 1.429 1_455 S
C104 C103 1.391 . S
H105 C108 0.931 . S
H106 C111 0.928 . S
H107 C113 0.930 . S
C108 H105 0.931 . S
C108 C109 1.413 . S
C108 C110 1.354 1_545 S
C109 C108 1.413 . S
C109 C113 1.412 1_545 S
C110 C108 1.354 1_565 S
C110 C111 1.378 . S
C111 H106 0.928 . S
C111 C110 1.378 . S
C111 C112 1.404 . S
C112 C111 1.404 . S
C112 C113 1.408 . S
C113 H107 0.930 . S
C113 C109 1.412 1_565 S
C113 C112 1.408 . S
H114 C117 0.931 . S
H115 C120 0.928 . S
H116 C122 0.930 . S
C117 H114 0.931 . S
C117 C118 1.413 . S
C117 C119 1.360 . S
C118 C117 1.413 . S
C118 C122 1.429 . S
C119 C117 1.360 . S
C119 C120 1.372 . S
C120 H115 0.928 . S
C120 C119 1.372 . S
C120 C121 1.404 . S
C121 C120 1.404 . S
C121 C122 1.391 . S
C122 H116 0.930 . S
C122 C118 1.429 . S
C122 C121 1.391 . S
H123 C141 0.951 . S
H124 C143 0.951 . S
H125 C145 0.950 . S
H126 C146 0.950 . S
H127 C148 0.950 . S
H128 C151 0.950 . S
H129 C152 0.950 . S
H130 C154 0.950 . S
H131 C155 0.950 . S
H132 C156 0.951 . S
H133 C158 0.951 . S
H134 C160 0.950 . S
H135 C161 0.950 . S
H136 C163 0.950 . S
H137 C166 0.950 . S
H138 C167 0.950 . S
H139 C169 0.950 . S
H140 C170 0.950 . S
C141 H123 0.951 . S
C141 C142 1.366 . S
C141 C143 1.388 . S
C142 C141 1.366 . S
C142 C146 1.385 . S
C143 H124 0.951 . S
C143 C141 1.388 . S
C143 C144 1.366 . S
C144 C143 1.366 . S
C144 C145 1.414 . S
C144 C147 1.499 . S
C145 H125 0.950 . S
C145 C144 1.414 . S
C145 C146 1.374 . S
C146 H126 0.950 . S
C146 C142 1.385 . S
C146 C145 1.374 . S
C147 C144 1.499 . S
C147 C148 1.373 . S
C147 C149 1.389 . S
C148 H127 0.950 . S
C148 C147 1.373 . S
C148 C164 1.377 . S
C149 C147 1.389 . S
C149 C150 1.524 . S
C149 C163 1.377 . S
C150 C149 1.524 . S
C150 C151 1.397 . S
C150 C155 1.363 . S
C151 H128 0.950 . S
C151 C150 1.397 . S
C151 C152 1.334 . S
C152 H129 0.950 . S
C152 C151 1.334 . S
C152 C153 1.287 . S
C153 C152 1.287 . S
C153 C154 1.524 . S
C153 H172 0.913 . S
C154 H130 0.950 . S
C154 C153 1.524 . S
C154 C155 1.415 . S
C155 H131 0.950 . S
C155 C150 1.363 . S
C155 C154 1.415 . S
C156 H132 0.951 . S
C156 C157 1.366 . S
C156 C158 1.388 . S
C157 C156 1.366 . S
C157 C161 1.385 . S
C158 H133 0.951 . S
C158 C156 1.388 . S
C158 C159 1.366 . S
C159 C158 1.366 . S
C159 C160 1.414 . S
C159 C162 1.499 . S
C160 H134 0.950 . S
C160 C159 1.414 . S
C160 C161 1.374 . S
C161 H135 0.950 . S
C161 C157 1.385 . S
C161 C160 1.374 . S
C162 C159 1.499 . S
C162 C163 1.373 . S
C162 C164 1.389 . S
C163 H136 0.950 . S
C163 C149 1.377 . S
C163 C162 1.373 . S
C164 C148 1.377 . S
C164 C162 1.389 . S
C164 C165 1.524 . S
C165 C164 1.524 . S
C165 C166 1.397 . S
C165 C170 1.363 . S
C166 H137 0.950 . S
C166 C165 1.397 . S
C166 C167 1.334 . S
C167 H138 0.950 . S
C167 C166 1.334 . S
C167 C168 1.287 . S
C168 C167 1.287 . S
C168 C169 1.524 . S
C168 H171 0.999 . S
C169 H139 0.950 . S
C169 C168 1.524 . S
C169 C170 1.415 . S
C170 H140 0.950 . S
C170 C165 1.363 . S
C170 C169 1.415 . S
H171 C168 0.999 . S
H172 C153 0.913 . S
H173 C191 0.951 . S
H174 C193 0.951 . S
H175 C195 0.950 . S
H176 C196 0.950 . S
H177 C198 0.950 . S
H178 C201 0.950 . S
H179 C202 0.950 . S
H180 C204 0.950 . S
H181 C205 0.950 . S
H182 C206 0.951 . S
H183 C208 0.951 . S
H184 C210 0.950 . S
H185 C211 0.950 . S
H186 C213 0.950 . S
H187 C216 0.950 . S
H188 C217 0.950 . S
H189 C219 0.950 . S
H190 C220 0.950 . S
C191 H173 0.951 . S
C191 C192 1.366 . S
C191 C193 1.388 . S
C192 C191 1.366 . S
C192 C196 1.385 . S
C193 H174 0.951 . S
C193 C191 1.388 . S
C193 C194 1.366 . S
C194 C193 1.366 . S
C194 C195 1.414 . S
C194 C197 1.499 . S
C195 H175 0.950 . S
C195 C194 1.414 . S
C195 C196 1.374 . S
C196 H176 0.950 . S
C196 C192 1.385 . S
C196 C195 1.374 . S
C197 C194 1.499 . S
C197 C198 1.373 . S
C197 C199 1.389 . S
C198 H177 0.950 . S
C198 C197 1.373 . S
C198 C214 1.377 . S
C199 C197 1.389 . S
C199 C200 1.524 . S
C199 C213 1.377 . S
C200 C199 1.524 . S
C200 C201 1.397 . S
C200 C205 1.363 . S
C201 H178 0.950 . S
C201 C200 1.397 . S
C201 C202 1.334 . S
C202 H179 0.950 . S
C202 C201 1.334 . S
C202 C203 1.287 . S
C203 C202 1.287 . S
C203 C204 1.524 . S
C203 H222 0.913 . S
C204 H180 0.950 . S
C204 C203 1.524 . S
C204 C205 1.415 . S
C205 H181 0.950 . S
C205 C200 1.363 . S
C205 C204 1.415 . S
C206 H182 0.951 . S
C206 C207 1.366 . S
C206 C208 1.388 . S
C207 C206 1.366 . S
C207 C211 1.385 . S
C208 H183 0.951 . S
C208 C206 1.388 . S
C208 C209 1.366 . S
C209 C208 1.366 . S
C209 C210 1.414 . S
C209 C212 1.499 . S
C210 H184 0.950 . S
C210 C209 1.414 . S
C210 C211 1.374 . S
C211 H185 0.950 . S
C211 C207 1.385 . S
C211 C210 1.374 . S
C212 C209 1.499 . S
C212 C213 1.373 . S
C212 C214 1.389 . S
C213 H186 0.950 . S
C213 C199 1.377 . S
C213 C212 1.373 . S
C214 C198 1.377 . S
C214 C212 1.389 . S
C214 C215 1.524 . S
C215 C214 1.524 . S
C215 C216 1.397 . S
C215 C220 1.363 . S
C216 H187 0.950 . S
C216 C215 1.397 . S
C216 C217 1.334 . S
C217 H188 0.950 . S
C217 C216 1.334 . S
C217 C218 1.287 . S
C218 C217 1.287 . S
C218 C219 1.524 . S
C218 H221 0.999 . S
C219 H189 0.950 . S
C219 C218 1.524 . S
C219 C220 1.415 . S
C220 H190 0.950 . S
C220 C215 1.363 . S
C220 C219 1.415 . S
H221 C218 0.999 . S
H222 C203 0.913 . S
H223 C241 0.951 . S
H224 C243 0.951 . S
H225 C245 0.950 . S
H226 C246 0.950 . S
H227 C248 0.950 . S
H228 C251 0.950 . S
H229 C252 0.950 . S
H230 C254 0.950 . S
H231 C255 0.950 . S
H232 C256 0.951 . S
H233 C258 0.951 . S
H234 C260 0.950 . S
H235 C261 0.950 . S
H236 C263 0.950 . S
H237 C266 0.950 . S
H238 C267 0.950 . S
H239 C269 0.950 . S
H240 C270 0.950 . S
C241 H223 0.951 . S
C241 C242 1.366 . S
C241 C243 1.388 . S
C242 C241 1.366 . S
C242 C246 1.385 . S
C243 H224 0.951 . S
C243 C241 1.388 . S
C243 C244 1.366 . S
C244 C243 1.366 . S
C244 C245 1.414 . S
C244 C247 1.499 . S
C245 H225 0.950 . S
C245 C244 1.414 . S
C245 C246 1.374 . S
C246 H226 0.950 . S
C246 C242 1.385 . S
C246 C245 1.374 . S
C247 C244 1.499 . S
C247 C248 1.373 . S
C247 C249 1.389 . S
C248 H227 0.950 . S
C248 C247 1.373 . S
C248 C264 1.377 . S
C249 C247 1.389 . S
C249 C250 1.524 . S
C249 C263 1.377 . S
C250 C249 1.524 . S
C250 C251 1.397 . S
C250 C255 1.363 . S
C251 H228 0.950 . S
C251 C250 1.397 . S
C251 C252 1.334 . S
C252 H229 0.950 . S
C252 C251 1.334 . S
C252 C253 1.287 . S
C253 C252 1.287 . S
C253 C254 1.524 . S
C253 H272 0.913 . S
C254 H230 0.950 . S
C254 C253 1.524 . S
C254 C255 1.415 . S
C255 H231 0.950 . S
C255 C250 1.363 . S
C255 C254 1.415 . S
C256 H232 0.951 . S
C256 C257 1.366 . S
C256 C258 1.388 . S
C257 C256 1.366 . S
C257 C261 1.385 . S
C258 H233 0.951 . S
C258 C256 1.388 . S
C258 C259 1.366 . S
C259 C258 1.366 . S
C259 C260 1.414 . S
C259 C262 1.499 . S
C260 H234 0.950 . S
C260 C259 1.414 . S
C260 C261 1.374 . S
C261 H235 0.950 . S
C261 C257 1.385 . S
C261 C260 1.374 . S
C262 C259 1.499 . S
C262 C263 1.373 . S
C262 C264 1.389 . S
C263 H236 0.950 . S
C263 C249 1.377 . S
C263 C262 1.373 . S
C264 C248 1.377 . S
C264 C262 1.389 . S
C264 C265 1.524 . S
C265 C264 1.524 . S
C265 C266 1.397 . S
C265 C270 1.363 . S
C266 H237 0.950 . S
C266 C265 1.397 . S
C266 C267 1.334 . S
C267 H238 0.950 . S
C267 C266 1.334 . S
C267 C268 1.287 . S
C268 C267 1.287 . S
C268 C269 1.524 . S
C268 H271 0.999 . S
C269 H239 0.950 . S
C269 C268 1.524 . S
C269 C270 1.415 . S
C270 H240 0.950 . S
C270 C265 1.363 . S
C270 C269 1.415 . S
H271 C268 0.999 . S
H272 C253 0.913 . S
H273 C291 0.951 . S
H274 C293 0.951 . S
H275 C295 0.950 . S
H276 C296 0.950 . S
H277 C298 0.950 . S
H278 C301 0.950 . S
H279 C302 0.950 . S
H280 C304 0.950 . S
H281 C305 0.950 . S
H282 C306 0.951 . S
H283 C308 0.951 . S
H284 C310 0.950 . S
H285 C311 0.950 . S
H286 C313 0.950 . S
H287 C316 0.950 . S
H288 C317 0.950 . S
H289 C319 0.950 . S
H290 C320 0.950 . S
C291 H273 0.951 . S
C291 C292 1.366 . S
C291 C293 1.388 . S
C292 C291 1.366 . S
C292 C296 1.385 . S
C293 H274 0.951 . S
C293 C291 1.388 . S
C293 C294 1.366 . S
C294 C293 1.366 . S
C294 C295 1.414 . S
C294 C297 1.499 . S
C295 H275 0.950 . S
C295 C294 1.414 . S
C295 C296 1.374 . S
C296 H276 0.950 . S
C296 C292 1.385 . S
C296 C295 1.374 . S
C297 C294 1.499 . S
C297 C298 1.373 . S
C297 C299 1.389 . S
C298 H277 0.950 . S
C298 C297 1.373 . S
C298 C314 1.377 . S
C299 C297 1.389 . S
C299 C300 1.524 . S
C299 C313 1.377 . S
C300 C299 1.524 . S
C300 C301 1.397 . S
C300 C305 1.363 . S
C301 H278 0.950 . S
C301 C300 1.397 . S
C301 C302 1.334 . S
C302 H279 0.950 . S
C302 C301 1.334 . S
C302 C303 1.287 . S
C303 C302 1.287 . S
C303 C304 1.524 . S
C303 H322 0.913 . S
C304 H280 0.950 . S
C304 C303 1.524 . S
C304 C305 1.415 . S
C305 H281 0.950 . S
C305 C300 1.363 . S
C305 C304 1.415 . S
C306 H282 0.951 . S
C306 C307 1.366 . S
C306 C308 1.388 . S
C307 C306 1.366 . S
C307 C311 1.385 . S
C308 H283 0.951 . S
C308 C306 1.388 . S
C308 C309 1.366 . S
C309 C308 1.366 . S
C309 C310 1.414 . S
C309 C312 1.499 . S
C310 H284 0.950 . S
C310 C309 1.414 . S
C310 C311 1.374 . S
C311 H285 0.950 . S
C311 C307 1.385 . S
C311 C310 1.374 . S
C312 C309 1.499 . S
C312 C313 1.373 . S
C312 C314 1.389 . S
C313 H286 0.950 . S
C313 C299 1.377 . S
C313 C312 1.373 . S
C314 C298 1.377 . S
C314 C312 1.389 . S
C314 C315 1.524 . S
C315 C314 1.524 . S
C315 C316 1.397 . S
C315 C320 1.363 . S
C316 H287 0.950 . S
C316 C315 1.397 . S
C316 C317 1.334 . S
C317 H288 0.950 . S
C317 C316 1.334 . S
C317 C318 1.287 . S
C318 C317 1.287 . S
C318 C319 1.524 . S
C318 H321 0.999 . S
C319 H289 0.950 . S
C319 C318 1.524 . S
C319 C320 1.415 . S
C320 H290 0.950 . S
C320 C315 1.363 . S
C320 C319 1.415 . S
H321 C318 0.999 . S
H322 C303 0.913 . S
H323 C341 0.951 . S
H324 C343 0.951 . S
H325 C345 0.950 . S
H326 C346 0.950 . S
H327 C348 0.950 . S
H328 C351 0.950 . S
H329 C352 0.950 . S
H330 C354 0.950 . S
H331 C355 0.950 . S
H332 C356 0.951 . S
H333 C358 0.951 . S
H334 C360 0.950 . S
H335 C361 0.950 . S
H336 C363 0.950 . S
H337 C366 0.950 . S
H338 C367 0.950 . S
H339 C369 0.950 . S
H340 C370 0.950 . S
C341 H323 0.951 . S
C341 C342 1.366 . S
C341 C343 1.388 . S
C342 C341 1.366 . S
C342 C346 1.385 . S
C343 H324 0.951 . S
C343 C341 1.388 . S
C343 C344 1.366 . S
C344 C343 1.366 . S
C344 C345 1.414 . S
C344 C347 1.499 . S
C345 H325 0.950 . S
C345 C344 1.414 . S
C345 C346 1.374 . S
C346 H326 0.950 . S
C346 C342 1.385 . S
C346 C345 1.374 . S
C347 C344 1.499 . S
C347 C348 1.373 . S
C347 C349 1.389 . S
C348 H327 0.950 . S
C348 C347 1.373 . S
C348 C364 1.377 . S
C349 C347 1.389 . S
C349 C350 1.524 . S
C349 C363 1.377 . S
C350 C349 1.524 . S
C350 C351 1.397 . S
C350 C355 1.363 . S
C351 H328 0.950 . S
C351 C350 1.397 . S
C351 C352 1.334 . S
C352 H329 0.950 . S
C352 C351 1.334 . S
C352 C353 1.287 . S
C353 C352 1.287 . S
C353 C354 1.524 . S
C353 H372 0.913 . S
C354 H330 0.950 . S
C354 C353 1.524 . S
C354 C355 1.415 . S
C355 H331 0.950 . S
C355 C350 1.363 . S
C355 C354 1.415 . S
C356 H332 0.951 . S
C356 C357 1.366 . S
C356 C358 1.388 . S
C357 C356 1.366 . S
C357 C361 1.385 . S
C358 H333 0.951 . S
C358 C356 1.388 . S
C358 C359 1.366 . S
C359 C358 1.366 . S
C359 C360 1.414 . S
C359 C362 1.499 . S
C360 H334 0.950 . S
C360 C359 1.414 . S
C360 C361 1.374 . S
C361 H335 0.950 . S
C361 C357 1.385 . S
C361 C360 1.374 . S
C362 C359 1.499 . S
C362 C363 1.373 . S
C362 C364 1.389 . S
C363 H336 0.950 . S
C363 C349 1.377 . S
C363 C362 1.373 . S
C364 C348 1.377 . S
C364 C362 1.389 . S
C364 C365 1.524 . S
C365 C364 1.524 . S
C365 C366 1.397 . S
C365 C370 1.363 . S
C366 H337 0.950 . S
C366 C365 1.397 . S
C366 C367 1.334 . S
C367 H338 0.950 . S
C367 C366 1.334 . S
C367 C368 1.287 . S
C368 C367 1.287 . S
C368 C369 1.524 . S
C368 H371 0.999 . S
C369 H339 0.950 . S
C369 C368 1.524 . S
C369 C370 1.415 . S
C370 H340 0.950 . S
C370 C365 1.363 . S
C370 C369 1.415 . S
H371 C368 0.999 . S
H372 C353 0.913 . S
H373 C391 0.951 . S
H374 C393 0.951 . S
H375 C395 0.950 . S
H376 C396 0.950 . S
H377 C398 0.950 . S
H378 C401 0.950 . S
H379 C402 0.950 . S
H380 C404 0.950 . S
H381 C405 0.950 . S
H382 C406 0.951 . S
H383 C408 0.951 . S
H384 C410 0.950 . S
H385 C411 0.950 . S
H386 C413 0.950 . S
H387 C416 0.950 . S
H388 C417 0.950 . S
H389 C419 0.950 . S
H390 C420 0.950 . S
C391 H373 0.951 . S
C391 C392 1.366 . S
C391 C393 1.388 . S
C392 C391 1.366 . S
C392 C396 1.385 . S
C393 H374 0.951 . S
C393 C391 1.388 . S
C393 C394 1.366 . S
C394 C393 1.366 . S
C394 C395 1.414 . S
C394 C397 1.499 . S
C395 H375 0.950 . S
C395 C394 1.414 . S
C395 C396 1.374 . S
C396 H376 0.950 . S
C396 C392 1.385 . S
C396 C395 1.374 . S
C397 C394 1.499 . S
C397 C398 1.373 . S
C397 C399 1.389 . S
C398 H377 0.950 . S
C398 C397 1.373 . S
C398 C414 1.377 . S
C399 C397 1.389 . S
C399 C400 1.524 . S
C399 C413 1.377 . S
C400 C399 1.524 . S
C400 C401 1.397 . S
C400 C405 1.363 . S
C401 H378 0.950 . S
C401 C400 1.397 . S
C401 C402 1.334 . S
C402 H379 0.950 . S
C402 C401 1.334 . S
C402 C403 1.287 . S
C403 C402 1.287 . S
C403 C404 1.524 . S
C403 H422 0.913 . S
C404 H380 0.950 . S
C404 C403 1.524 . S
C404 C405 1.415 . S
C405 H381 0.950 . S
C405 C400 1.363 . S
C405 C404 1.415 . S
C406 H382 0.951 . S
C406 C407 1.366 . S
C406 C408 1.388 . S
C407 C406 1.366 . S
C407 C411 1.385 . S
C408 H383 0.951 . S
C408 C406 1.388 . S
C408 C409 1.366 . S
C409 C408 1.366 . S
C409 C410 1.414 . S
C409 C412 1.499 . S
C410 H384 0.950 . S
C410 C409 1.414 . S
C410 C411 1.374 . S
C411 H385 0.950 . S
C411 C407 1.385 . S
C411 C410 1.374 . S
C412 C409 1.499 . S
C412 C413 1.373 . S
C412 C414 1.389 . S
C413 H386 0.950 . S
C413 C399 1.377 . S
C413 C412 1.373 . S
C414 C398 1.377 . S
C414 C412 1.389 . S
C414 C415 1.524 . S
C415 C414 1.524 . S
C415 C416 1.397 . S
C415 C420 1.363 . S
C416 H387 0.950 . S
C416 C415 1.397 . S
C416 C417 1.334 . S
C417 H388 0.950 . S
C417 C416 1.334 . S
C417 C418 1.287 . S
C418 C417 1.287 . S
C418 C419 1.524 . S
C418 H421 0.999 . S
C419 H389 0.950 . S
C419 C418 1.524 . S
C419 C420 1.415 . S
C420 H390 0.950 . S
C420 C415 1.363 . S
C420 C419 1.415 . S
H421 C418 0.999 . S
H422 C403 0.913 . S
H423 C441 0.951 . S
H424 C443 0.951 . S
H425 C445 0.950 . S
H426 C446 0.950 . S
H427 C448 0.950 . S
H428 C451 0.950 . S
H429 C452 0.950 . S
H430 C454 0.950 . S
H431 C455 0.950 . S
H432 C456 0.951 . S
H433 C458 0.951 . S
H434 C460 0.950 . S
H435 C461 0.950 . S
H436 C463 0.950 . S
H437 C466 0.950 . S
H438 C467 0.950 . S
H439 C469 0.950 . S
H440 C470 0.950 . S
C441 H423 0.951 . S
C441 C442 1.366 . S
C441 C443 1.388 . S
C442 C441 1.366 . S
C442 C446 1.385 . S
C443 H424 0.951 . S
C443 C441 1.388 . S
C443 C444 1.366 . S
C444 C443 1.366 . S
C444 C445 1.414 . S
C444 C447 1.499 . S
C445 H425 0.950 . S
C445 C444 1.414 . S
C445 C446 1.374 . S
C446 H426 0.950 . S
C446 C442 1.385 . S
C446 C445 1.374 . S
C447 C444 1.499 . S
C447 C448 1.373 . S
C447 C449 1.389 . S
C448 H427 0.950 . S
C448 C447 1.373 . S
C448 C464 1.377 . S
C449 C447 1.389 . S
C449 C450 1.524 . S
C449 C463 1.377 . S
C450 C449 1.524 . S
C450 C451 1.397 . S
C450 C455 1.363 . S
C451 H428 0.950 . S
C451 C450 1.397 . S
C451 C452 1.334 . S
C452 H429 0.950 . S
C452 C451 1.334 . S
C452 C453 1.287 . S
C453 C452 1.287 . S
C453 C454 1.524 . S
C453 H472 0.913 . S
C454 H430 0.950 . S
C454 C453 1.524 . S
C454 C455 1.415 . S
C455 H431 0.950 . S
C455 C450 1.363 . S
C455 C454 1.415 . S
C456 H432 0.951 . S
C456 C457 1.366 . S
C456 C458 1.388 . S
C457 C456 1.366 . S
C457 C461 1.385 . S
C458 H433 0.951 . S
C458 C456 1.388 . S
C458 C459 1.366 . S
C459 C458 1.366 . S
C459 C460 1.414 . S
C459 C462 1.499 . S
C460 H434 0.950 . S
C460 C459 1.414 . S
C460 C461 1.374 . S
C461 H435 0.950 . S
C461 C457 1.385 . S
C461 C460 1.374 . S
C462 C459 1.499 . S
C462 C463 1.373 . S
C462 C464 1.389 . S
C463 H436 0.950 . S
C463 C449 1.377 . S
C463 C462 1.373 . S
C464 C448 1.377 . S
C464 C462 1.389 . S
C464 C465 1.524 . S
C465 C464 1.524 . S
C465 C466 1.397 . S
C465 C470 1.363 . S
C466 H437 0.950 . S
C466 C465 1.397 . S
C466 C467 1.334 . S
C467 H438 0.950 . S
C467 C466 1.334 . S
C467 C468 1.287 . S
C468 C467 1.287 . S
C468 C469 1.524 . S
C468 H471 0.999 . S
C469 H439 0.950 . S
C469 C468 1.524 . S
C469 C470 1.415 . S
C470 H440 0.950 . S
C470 C465 1.363 . S
C470 C469 1.415 . S
H471 C468 0.999 . S
H472 C453 0.913 . S
H473 C491 0.951 . S
H474 C493 0.951 . S
H475 C495 0.950 . S
H476 C496 0.950 . S
H477 C498 0.950 . S
H478 C501 0.950 . S
H479 C502 0.950 . S
H480 C504 0.950 . S
H481 C505 0.950 . S
H482 C506 0.951 . S
H483 C508 0.951 . S
H484 C510 0.950 . S
H485 C511 0.950 . S
H486 C513 0.950 . S
H487 C516 0.950 . S
H488 C517 0.950 . S
H489 C519 0.950 . S
H490 C520 0.950 . S
C491 H473 0.951 . S
C491 C492 1.366 . S
C491 C493 1.388 . S
C492 C491 1.366 . S
C492 C496 1.385 . S
C493 H474 0.951 . S
C493 C491 1.388 . S
C493 C494 1.366 . S
C494 C493 1.366 . S
C494 C495 1.414 . S
C494 C497 1.499 . S
C495 H475 0.950 . S
C495 C494 1.414 . S
C495 C496 1.374 . S
C496 H476 0.950 . S
C496 C492 1.385 . S
C496 C495 1.374 . S
C497 C494 1.499 . S
C497 C498 1.373 . S
C497 C499 1.389 . S
C498 H477 0.950 . S
C498 C497 1.373 . S
C498 C514 1.377 . S
C499 C497 1.389 . S
C499 C500 1.524 . S
C499 C513 1.377 . S
C500 C499 1.524 . S
C500 C501 1.397 . S
C500 C505 1.363 . S
C501 H478 0.950 . S
C501 C500 1.397 . S
C501 C502 1.334 . S
C502 H479 0.950 . S
C502 C501 1.334 . S
C502 C503 1.287 . S
C503 C502 1.287 . S
C503 C504 1.524 . S
C503 H522 0.913 . S
C504 H480 0.950 . S
C504 C503 1.524 . S
C504 C505 1.415 . S
C505 H481 0.950 . S
C505 C500 1.363 . S
C505 C504 1.415 . S
C506 H482 0.951 . S
C506 C507 1.366 . S
C506 C508 1.388 . S
C507 C506 1.366 . S
C507 C511 1.385 . S
C508 H483 0.951 . S
C508 C506 1.388 . S
C508 C509 1.366 . S
C509 C508 1.366 . S
C509 C510 1.414 . S
C509 C512 1.499 . S
C510 H484 0.950 . S
C510 C509 1.414 . S
C510 C511 1.374 . S
C511 H485 0.950 . S
C511 C507 1.385 . S
C511 C510 1.374 . S
C512 C509 1.499 . S
C512 C513 1.373 . S
C512 C514 1.389 . S
C513 H486 0.950 . S
C513 C499 1.377 . S
C513 C512 1.373 . S
C514 C498 1.377 . S
C514 C512 1.389 . S
C514 C515 1.524 . S
C515 C514 1.524 . S
C515 C516 1.397 . S
C515 C520 1.363 . S
C516 H487 0.950 . S
C516 C515 1.397 . S
C516 C517 1.334 . S
C517 H488 0.950 . S
C517 C516 1.334 . S
C517 C518 1.287 . S
C518 C517 1.287 . S
C518 C519 1.524 . S
C518 H521 0.999 . S
C519 H489 0.950 . S
C519 C518 1.524 . S
C519 C520 1.415 . S
C520 H490 0.950 . S
C520 C515 1.363 . S
C520 C519 1.415 . S
H521 C518 0.999 . S
H522 C503 0.913 . S
H523 C541 0.951 . S
H524 C543 0.951 . S
H525 C545 0.950 . S
H526 C546 0.950 . S
H527 C548 0.950 . S
H528 C551 0.950 . S
H529 C552 0.950 . S
H530 C554 0.950 . S
H531 C555 0.950 . S
H532 C556 0.951 . S
H533 C558 0.951 . S
H534 C560 0.950 . S
H535 C561 0.950 . S
H536 C563 0.950 . S
H537 C566 0.950 . S
H538 C567 0.950 . S
H539 C569 0.950 . S
H540 C570 0.950 . S
C541 H523 0.951 . S
C541 C542 1.366 . S
C541 C543 1.388 . S
C542 C541 1.366 . S
C542 C546 1.385 . S
C543 H524 0.951 . S
C543 C541 1.388 . S
C543 C544 1.366 . S
C544 C543 1.366 . S
C544 C545 1.414 . S
C544 C547 1.499 . S
C545 H525 0.950 . S
C545 C544 1.414 . S
C545 C546 1.374 . S
C546 H526 0.950 . S
C546 C542 1.385 . S
C546 C545 1.374 . S
C547 C544 1.499 . S
C547 C548 1.373 . S
C547 C549 1.389 . S
C548 H527 0.950 . S
C548 C547 1.373 . S
C548 C564 1.377 . S
C549 C547 1.389 . S
C549 C550 1.524 . S
C549 C563 1.377 . S
C550 C549 1.524 . S
C550 C551 1.397 . S
C550 C555 1.363 . S
C551 H528 0.950 . S
C551 C550 1.397 . S
C551 C552 1.334 . S
C552 H529 0.950 . S
C552 C551 1.334 . S
C552 C553 1.287 . S
C553 C552 1.287 . S
C553 C554 1.524 . S
C553 H572 0.913 . S
C554 H530 0.950 . S
C554 C553 1.524 . S
C554 C555 1.415 . S
C555 H531 0.950 . S
C555 C550 1.363 . S
C555 C554 1.415 . S
C556 H532 0.951 . S
C556 C557 1.366 . S
C556 C558 1.388 . S
C557 C556 1.366 . S
C557 C561 1.385 . S
C558 H533 0.951 . S
C558 C556 1.388 . S
C558 C559 1.366 . S
C559 C558 1.366 . S
C559 C560 1.414 . S
C559 C562 1.499 . S
C560 H534 0.950 . S
C560 C559 1.414 . S
C560 C561 1.374 . S
C561 H535 0.950 . S
C561 C557 1.385 . S
C561 C560 1.374 . S
C562 C559 1.499 . S
C562 C563 1.373 . S
C562 C564 1.389 . S
C563 H536 0.950 . S
C563 C549 1.377 . S
C563 C562 1.373 . S
C564 C548 1.377 . S
C564 C562 1.389 . S
C564 C565 1.524 . S
C565 C564 1.524 . S
C565 C566 1.397 . S
C565 C570 1.363 . S
C566 H537 0.950 . S
C566 C565 1.397 . S
C566 C567 1.334 . S
C567 H538 0.950 . S
C567 C566 1.334 . S
C567 C568 1.287 . S
C568 C567 1.287 . S
C568 C569 1.524 . S
C568 H571 0.999 . S
C569 H539 0.950 . S
C569 C568 1.524 . S
C569 C570 1.415 . S
C570 H540 0.950 . S
C570 C565 1.363 . S
C570 C569 1.415 . S
H571 C568 0.999 . S
H572 C553 0.913 . S
H573 C591 0.951 . S
H574 C593 0.951 . S
H575 C595 0.950 . S
H576 C596 0.950 . S
H577 C598 0.950 . S
H578 C601 0.950 . S
H579 C602 0.950 . S
H580 C604 0.950 . S
H581 C605 0.950 . S
H582 C606 0.951 . S
H583 C608 0.951 . S
H584 C610 0.950 . S
H585 C611 0.950 . S
H586 C613 0.950 . S
H587 C616 0.950 . S
H588 C617 0.950 . S
H589 C619 0.950 . S
H590 C620 0.950 . S
C591 H573 0.951 . S
C591 C592 1.366 . S
C591 C593 1.388 . S
C592 C591 1.366 . S
C592 C596 1.385 . S
C593 H574 0.951 . S
C593 C591 1.388 . S
C593 C594 1.366 . S
C594 C593 1.366 . S
C594 C595 1.414 . S
C594 C597 1.499 . S
C595 H575 0.950 . S
C595 C594 1.414 . S
C595 C596 1.374 . S
C596 H576 0.950 . S
C596 C592 1.385 . S
C596 C595 1.374 . S
C597 C594 1.499 . S
C597 C598 1.373 . S
C597 C599 1.389 . S
C598 H577 0.950 . S
C598 C597 1.373 . S
C598 C614 1.377 . S
C599 C597 1.389 . S
C599 C600 1.524 . S
C599 C613 1.377 . S
C600 C599 1.524 . S
C600 C601 1.397 . S
C600 C605 1.363 . S
C601 H578 0.950 . S
C601 C600 1.397 . S
C601 C602 1.334 . S
C602 H579 0.950 . S
C602 C601 1.334 . S
C602 C603 1.287 . S
C603 C602 1.287 . S
C603 C604 1.524 . S
C603 H622 0.913 . S
C604 H580 0.950 . S
C604 C603 1.524 . S
C604 C605 1.415 . S
C605 H581 0.950 . S
C605 C600 1.363 . S
C605 C604 1.415 . S
C606 H582 0.951 . S
C606 C607 1.366 . S
C606 C608 1.388 . S
C607 C606 1.366 . S
C607 C611 1.385 . S
C608 H583 0.951 . S
C608 C606 1.388 . S
C608 C609 1.366 . S
C609 C608 1.366 . S
C609 C610 1.414 . S
C609 C612 1.499 . S
C610 H584 0.950 . S
C610 C609 1.414 . S
C610 C611 1.374 . S
C611 H585 0.950 . S
C611 C607 1.385 . S
C611 C610 1.374 . S
C612 C609 1.499 . S
C612 C613 1.373 . S
C612 C614 1.389 . S
C613 H586 0.950 . S
C613 C599 1.377 . S
C613 C612 1.373 . S
C614 C598 1.377 . S
C614 C612 1.389 . S
C614 C615 1.524 . S
C615 C614 1.524 . S
C615 C616 1.397 . S
C615 C620 1.363 . S
C616 H587 0.950 . S
C616 C615 1.397 . S
C616 C617 1.334 . S
C617 H588 0.950 . S
C617 C616 1.334 . S
C617 C618 1.287 . S
C618 C617 1.287 . S
C618 C619 1.524 . S
C618 H621 0.999 . S
C619 H589 0.950 . S
C619 C618 1.524 . S
C619 C620 1.415 . S
C620 H590 0.950 . S
C620 C615 1.363 . S
C620 C619 1.415 . S
H621 C618 0.999 . S
H622 C603 0.913 . S
H623 C641 0.951 . S
H624 C643 0.951 . S
H625 C645 0.950 . S
H626 C646 0.950 . S
H627 C648 0.950 . S
H628 C651 0.950 . S
H629 C652 0.950 . S
H630 C654 0.950 . S
H631 C655 0.950 . S
H632 C656 0.951 . S
H633 C658 0.951 . S
H634 C660 0.950 . S
H635 C661 0.950 . S
H636 C663 0.950 . S
H637 C666 0.950 . S
H638 C667 0.950 . S
H639 C669 0.950 . S
H640 C670 0.950 . S
C641 H623 0.951 . S
C641 C642 1.366 . S
C641 C643 1.388 . S
C642 C641 1.366 . S
C642 C646 1.385 . S
C643 H624 0.951 . S
C643 C641 1.388 . S
C643 C644 1.366 . S
C644 C643 1.366 . S
C644 C645 1.414 . S
C644 C647 1.499 . S
C645 H625 0.950 . S
C645 C644 1.414 . S
C645 C646 1.374 . S
C646 H626 0.950 . S
C646 C642 1.385 . S
C646 C645 1.374 . S
C647 C644 1.499 . S
C647 C648 1.373 . S
C647 C649 1.389 . S
C648 H627 0.950 . S
C648 C647 1.373 . S
C648 C664 1.377 . S
C649 C647 1.389 . S
C649 C650 1.524 . S
C649 C663 1.377 . S
C650 C649 1.524 . S
C650 C651 1.397 . S
C650 C655 1.363 . S
C651 H628 0.950 . S
C651 C650 1.397 . S
C651 C652 1.334 . S
C652 H629 0.950 . S
C652 C651 1.334 . S
C652 C653 1.287 . S
C653 C652 1.287 . S
C653 C654 1.524 . S
C653 H672 0.913 . S
C654 H630 0.950 . S
C654 C653 1.524 . S
C654 C655 1.415 . S
C655 H631 0.950 . S
C655 C650 1.363 . S
C655 C654 1.415 . S
C656 H632 0.951 . S
C656 C657 1.366 . S
C656 C658 1.388 . S
C657 C656 1.366 . S
C657 C661 1.385 . S
C658 H633 0.951 . S
C658 C656 1.388 . S
C658 C659 1.366 . S
C659 C658 1.366 . S
C659 C660 1.414 . S
C659 C662 1.499 . S
C660 H634 0.950 . S
C660 C659 1.414 . S
C660 C661 1.374 . S
C661 H635 0.950 . S
C661 C657 1.385 . S
C661 C660 1.374 . S
C662 C659 1.499 . S
C662 C663 1.373 . S
C662 C664 1.389 . S
C663 H636 0.950 . S
C663 C649 1.377 . S
C663 C662 1.373 . S
C664 C648 1.377 . S
C664 C662 1.389 . S
C664 C665 1.524 . S
C665 C664 1.524 . S
C665 C666 1.397 . S
C665 C670 1.363 . S
C666 H637 0.950 . S
C666 C665 1.397 . S
C666 C667 1.334 . S
C667 H638 0.950 . S
C667 C666 1.334 . S
C667 C668 1.287 . S
C668 C667 1.287 . S
C668 C669 1.524 . S
C668 H671 0.999 . S
C669 H639 0.950 . S
C669 C668 1.524 . S
C669 C670 1.415 . S
C670 H640 0.950 . S
C670 C665 1.363 . S
C670 C669 1.415 . S
H671 C668 0.999 . S
H672 C653 0.913 . S
H673 C691 0.951 . S
H674 C693 0.951 . S
H675 C695 0.950 . S
H676 C696 0.950 . S
H677 C698 0.950 . S
H678 C701 0.950 . S
H679 C702 0.950 . S
H680 C704 0.950 . S
H681 C705 0.950 . S
H682 C706 0.951 . S
H683 C708 0.951 . S
H684 C710 0.950 . S
H685 C711 0.950 . S
H686 C713 0.950 . S
H687 C716 0.950 . S
H688 C717 0.950 . S
H689 C719 0.950 . S
H690 C720 0.950 . S
C691 H673 0.951 . S
C691 C692 1.366 . S
C691 C693 1.388 . S
C692 C691 1.366 . S
C692 C696 1.385 . S
C693 H674 0.951 . S
C693 C691 1.388 . S
C693 C694 1.366 . S
C694 C693 1.366 . S
C694 C695 1.414 . S
C694 C697 1.499 . S
C695 H675 0.950 . S
C695 C694 1.414 . S
C695 C696 1.374 . S
C696 H676 0.950 . S
C696 C692 1.385 . S
C696 C695 1.374 . S
C697 C694 1.499 . S
C697 C698 1.373 . S
C697 C699 1.389 . S
C698 H677 0.950 . S
C698 C697 1.373 . S
C698 C714 1.377 . S
C699 C697 1.389 . S
C699 C700 1.524 . S
C699 C713 1.377 . S
C700 C699 1.524 . S
C700 C701 1.397 . S
C700 C705 1.363 . S
C701 H678 0.950 . S
C701 C700 1.397 . S
C701 C702 1.334 . S
C702 H679 0.950 . S
C702 C701 1.334 . S
C702 C703 1.287 . S
C703 C702 1.287 . S
C703 C704 1.524 . S
C703 H722 0.913 . S
C704 H680 0.950 . S
C704 C703 1.524 . S
C704 C705 1.415 . S
C705 H681 0.950 . S
C705 C700 1.363 . S
C705 C704 1.415 . S
C706 H682 0.951 . S
C706 C707 1.366 . S
C706 C708 1.388 . S
C707 C706 1.366 . S
C707 C711 1.385 . S
C708 H683 0.951 . S
C708 C706 1.388 . S
C708 C709 1.366 . S
C709 C708 1.366 . S
C709 C710 1.414 . S
C709 C712 1.499 . S
C710 H684 0.950 . S
C710 C709 1.414 . S
C710 C711 1.374 . S
C711 H685 0.950 . S
C711 C707 1.385 . S
C711 C710 1.374 . S
C712 C709 1.499 . S
C712 C713 1.373 . S
C712 C714 1.389 . S
C713 H686 0.950 . S
C713 C699 1.377 . S
C713 C712 1.373 . S
C714 C698 1.377 . S
C714 C712 1.389 . S
C714 C715 1.524 . S
C715 C714 1.524 . S
C715 C716 1.397 . S
C715 C720 1.363 . S
C716 H687 0.950 . S
C716 C715 1.397 . S
C716 C717 1.334 . S
C717 H688 0.950 . S
C717 C716 1.334 . S
C717 C718 1.287 . S
C718 C717 1.287 . S
C718 C719 1.524 . S
C718 H721 0.999 . S
C719 H689 0.950 . S
C719 C718 1.524 . S
C719 C720 1.415 . S
C720 H690 0.950 . S
C720 C715 1.363 . S
C720 C719 1.415 . S
H721 C718 0.999 . S
H722 C703 0.913 . S
H723 C741 0.951 . S
H724 C743 0.951 . S
H725 C745 0.950 . S
H726 C746 0.950 . S
H727 C748 0.950 . S
H728 C751 0.950 1_655 S
H729 C752 0.950 . S
H730 C754 0.950 . S
H731 C755 0.950 . S
H732 C756 0.951 . S
H733 C758 0.951 . S
H734 C760 0.950 . S
H735 C761 0.950 . S
H736 C763 0.950 . S
H737 C766 0.950 1_455 S
H738 C767 0.959 . S
H739 C769 0.950 . S
H740 C770 0.950 . S
C741 H723 0.951 . S
C741 C742 1.366 . S
C741 C743 1.388 . S
C742 C741 1.366 . S
C742 C746 1.385 1_455 S
C743 H724 0.951 . S
C743 C741 1.388 . S
C743 C744 1.366 . S
C744 C743 1.366 . S
C744 C745 1.414 1_455 S
C744 C747 1.499 . S
C745 H725 0.950 . S
C745 C744 1.414 1_655 S
C745 C746 1.374 . S
C746 H726 0.950 . S
C746 C742 1.385 1_655 S
C746 C745 1.374 . S
C747 C744 1.499 . S
C747 C748 1.373 1_455 S
C747 C749 1.389 . S
C748 H727 0.950 . S
C748 C747 1.373 1_655 S
C748 C764 1.377 . S
C749 C747 1.389 . S
C749 C750 1.524 . S
C749 C763 1.377 . S
C750 C749 1.524 . S
C750 C751 1.397 . S
C750 C755 1.363 . S
C751 H728 0.950 1_455 S
C751 C750 1.397 . S
C751 C752 1.334 . S
C752 H729 0.950 . S
C752 C751 1.334 . S
C752 C753 1.287 . S
C753 C752 1.287 . S
C753 C754 1.524 . S
C753 H772 0.913 . S
C754 H730 0.950 . S
C754 C753 1.524 . S
C754 C755 1.415 . S
C755 H731 0.950 . S
C755 C750 1.363 . S
C755 C754 1.415 . S
C756 H732 0.951 . S
C756 C757 1.366 1_655 S
C756 C758 1.388 . S
C757 C756 1.366 1_455 S
C757 C761 1.385 . S
C758 H733 0.951 . S
C758 C756 1.388 . S
C758 C759 1.366 1_655 S
C759 C758 1.366 1_455 S
C759 C760 1.414 . S
C759 C762 1.499 1_556 S
C760 H734 0.950 . S
C760 C759 1.414 . S
C760 C761 1.374 . S
C761 H735 0.950 . S
C761 C757 1.385 . S
C761 C760 1.374 . S
C762 C759 1.499 1_554 S
C762 C763 1.373 . S
C762 C764 1.389 1_455 S
C763 H736 0.950 . S
C763 C749 1.377 . S
C763 C762 1.373 . S
C764 C748 1.377 . S
C764 C762 1.389 1_655 S
C764 C765 1.524 . S
C765 C764 1.524 . S
C765 C766 1.397 1_554 S
C765 C770 1.363 . S
C766 H737 0.950 1_655 S
C766 C765 1.397 1_556 S
C766 C767 1.334 . S
C767 H738 0.959 . S
C767 C766 1.334 . S
C767 C768 1.287 . S
C768 C767 1.287 . S
C768 C769 1.524 1_556 S
C768 H771 0.999 . S
C769 H739 0.950 . S
C769 C768 1.524 1_554 S
C769 C770 1.415 . S
C770 H740 0.950 . S
C770 C765 1.363 . S
C770 C769 1.415 . S
H771 C768 0.999 . S
H772 C753 0.913 . S
H773 C791 0.951 . S
H774 C793 0.951 . S
H775 C795 0.950 . S
H776 C796 0.950 . S
H777 C798 0.950 . S
H778 C801 0.950 1_565 S
H779 C802 0.950 1_565 S
H780 C804 0.950 . S
H781 C805 0.950 . S
H782 C806 0.951 . S
H783 C808 0.951 . S
H784 C810 0.950 . S
H785 C811 0.950 . S
H786 C813 0.950 . S
H787 C816 0.950 . S
H788 C817 0.950 . S
H789 C819 0.950 . S
H790 C820 0.950 . S
C791 H773 0.951 . S
C791 C792 1.366 . S
C791 C793 1.388 . S
C792 C791 1.366 . S
C792 C796 1.385 1_545 S
C793 H774 0.951 . S
C793 C791 1.388 . S
C793 C794 1.366 . S
C794 C793 1.366 . S
C794 C795 1.414 1_545 S
C794 C797 1.499 . S
C795 H775 0.950 . S
C795 C794 1.414 1_565 S
C795 C796 1.374 . S
C796 H776 0.950 . S
C796 C792 1.385 1_565 S
C796 C795 1.374 . S
C797 C794 1.499 . S
C797 C798 1.373 1_545 S
C797 C799 1.389 . S
C798 H777 0.950 . S
C798 C797 1.373 1_565 S
C798 C814 1.377 . S
C799 C797 1.389 . S
C799 C800 1.524 . S
C799 C813 1.377 . S
C800 C799 1.524 . S
C800 C801 1.397 . S
C800 C805 1.363 . S
C801 H778 0.950 1_545 S
C801 C800 1.397 . S
C801 C802 1.334 . S
C802 H779 0.950 1_545 S
C802 C801 1.334 . S
C802 C803 1.287 . S
C803 C802 1.287 . S
C803 C804 1.524 . S
C803 H822 0.913 . S
C804 H780 0.950 . S
C804 C803 1.524 . S
C804 C805 1.415 . S
C805 H781 0.950 . S
C805 C800 1.363 . S
C805 C804 1.415 . S
C806 H782 0.951 . S
C806 C807 1.366 1_565 S
C806 C808 1.388 . S
C807 C806 1.366 1_545 S
C807 C811 1.385 . S
C808 H783 0.951 . S
C808 C806 1.388 . S
C808 C809 1.366 1_565 S
C809 C808 1.366 1_545 S
C809 C810 1.414 . S
C809 C812 1.499 . S
C810 H784 0.950 . S
C810 C809 1.414 . S
C810 C811 1.374 . S
C811 H785 0.950 . S
C811 C807 1.385 . S
C811 C810 1.374 . S
C812 C809 1.499 . S
C812 C813 1.373 . S
C812 C814 1.389 1_545 S
C813 H786 0.950 . S
C813 C799 1.377 . S
C813 C812 1.373 . S
C814 C798 1.377 . S
C814 C812 1.389 1_565 S
C814 C815 1.524 . S
C815 C814 1.524 . S
C815 C816 1.397 1_565 S
C815 C820 1.363 . S
C816 H787 0.950 . S
C816 C815 1.397 1_545 S
C816 C817 1.334 . S
C817 H788 0.950 . S
C817 C816 1.334 . S
C817 C818 1.287 1_545 S
C818 C817 1.287 1_565 S
C818 C819 1.524 . S
C818 H821 0.999 . S
C819 H789 0.950 . S
C819 C818 1.524 . S
C819 C820 1.415 . S
C820 H790 0.950 . S
C820 C815 1.363 . S
C820 C819 1.415 . S
H821 C818 0.999 . S
H822 C803 0.913 . S
H823 C841 0.951 . S
H824 C843 0.951 . S
H825 C845 0.950 . S
H826 C846 0.950 . S
H827 C848 0.950 . S
H828 C851 0.950 . S
H829 C852 0.950 . S
H830 C854 0.950 . S
H831 C855 0.950 . S
H832 C856 0.951 . S
H833 C858 0.951 . S
H834 C860 0.950 . S
H835 C861 0.950 . S
H836 C863 0.950 . S
H837 C866 0.950 . S
H838 C867 0.950 . S
H839 C869 0.950 . S
H840 C870 0.950 . S
C841 H823 0.951 . S
C841 C842 1.366 . S
C841 C843 1.388 . S
C842 C841 1.366 . S
C842 C846 1.385 . S
C843 H824 0.951 . S
C843 C841 1.388 . S
C843 C844 1.366 . S
C844 C843 1.366 . S
C844 C845 1.414 . S
C844 C847 1.499 . S
C845 H825 0.950 . S
C845 C844 1.414 . S
C845 C846 1.374 . S
C846 H826 0.950 . S
C846 C842 1.385 . S
C846 C845 1.374 . S
C847 C844 1.499 . S
C847 C848 1.373 . S
C847 C849 1.389 . S
C848 H827 0.950 . S
C848 C847 1.373 . S
C848 C864 1.377 . S
C849 C847 1.389 . S
C849 C850 1.524 . S
C849 C863 1.377 . S
C850 C849 1.524 . S
C850 C851 1.397 . S
C850 C855 1.363 . S
C851 H828 0.950 . S
C851 C850 1.397 . S
C851 C852 1.334 . S
C852 H829 0.950 . S
C852 C851 1.334 . S
C852 C853 1.287 . S
C853 C852 1.287 . S
C853 C854 1.524 . S
C853 H872 0.913 . S
C854 H830 0.950 . S
C854 C853 1.524 . S
C854 C855 1.415 . S
C855 H831 0.950 . S
C855 C850 1.363 . S
C855 C854 1.415 . S
C856 H832 0.951 . S
C856 C857 1.366 . S
C856 C858 1.388 . S
C857 C856 1.366 . S
C857 C861 1.385 . S
C858 H833 0.951 . S
C858 C856 1.388 . S
C858 C859 1.366 . S
C859 C858 1.366 . S
C859 C860 1.414 . S
C859 C862 1.499 . S
C860 H834 0.950 . S
C860 C859 1.414 . S
C860 C861 1.374 . S
C861 H835 0.950 . S
C861 C857 1.385 . S
C861 C860 1.374 . S
C862 C859 1.499 . S
C862 C863 1.373 . S
C862 C864 1.389 . S
C863 H836 0.950 . S
C863 C849 1.377 . S
C863 C862 1.373 . S
C864 C848 1.377 . S
C864 C862 1.389 . S
C864 C865 1.524 . S
C865 C864 1.524 . S
C865 C866 1.397 . S
C865 C870 1.363 . S
C866 H837 0.950 . S
C866 C865 1.397 . S
C866 C867 1.334 . S
C867 H838 0.950 . S
C867 C866 1.334 . S
C867 C868 1.287 . S
C868 C867 1.287 . S
C868 C869 1.524 . S
C868 H871 0.999 . S
C869 H839 0.950 . S
C869 C868 1.524 . S
C869 C870 1.415 . S
C870 H840 0.950 . S
C870 C865 1.363 . S
C870 C869 1.415 . S
H871 C868 0.999 . S
H872 C853 0.913 . S
H873 C891 0.951 . S
H874 C893 0.951 . S
H875 C895 0.950 . S
H876 C896 0.950 . S
H877 C898 0.950 . S
H878 C901 0.950 . S
H879 C902 0.950 . S
H880 C904 0.950 . S
H881 C905 0.950 . S
H882 C906 0.951 . S
H883 C908 0.951 . S
H884 C910 0.950 . S
H885 C911 0.950 . S
H886 C913 0.950 . S
H887 C916 0.950 . S
H888 C917 0.950 . S
H889 C919 0.950 . S
H890 C920 0.950 . S
C891 H873 0.951 . S
C891 C892 1.366 1_565 S
C891 C893 1.388 . S
C892 C891 1.366 1_545 S
C892 C896 1.385 . S
C893 H874 0.951 . S
C893 C891 1.388 . S
C893 C894 1.366 1_565 S
C894 C893 1.366 1_545 S
C894 C895 1.414 . S
C894 C897 1.499 . S
C895 H875 0.950 . S
C895 C894 1.414 . S
C895 C896 1.374 . S
C896 H876 0.950 . S
C896 C892 1.385 . S
C896 C895 1.374 . S
C897 C894 1.499 . S
C897 C898 1.373 . S
C897 C899 1.389 1_545 S
C898 H877 0.950 . S
C898 C897 1.373 . S
C898 C914 1.377 . S
C899 C897 1.389 1_565 S
C899 C900 1.524 . S
C899 C913 1.377 . S
C900 C899 1.524 . S
C900 C901 1.397 . S
C900 C905 1.363 . S
C901 H878 0.950 . S
C901 C900 1.397 . S
C901 C902 1.334 . S
C902 H879 0.950 . S
C902 C901 1.334 . S
C902 C903 1.287 . S
C903 C902 1.287 . S
C903 C904 1.524 . S
C903 H922 0.913 . S
C904 H880 0.950 . S
C904 C903 1.524 . S
C904 C905 1.415 . S
C905 H881 0.950 . S
C905 C900 1.363 . S
C905 C904 1.415 . S
C906 H882 0.951 . S
C906 C907 1.378 . S
C906 C908 1.388 . S
C907 C906 1.378 . S
C907 C911 1.373 1_545 S
C908 H883 0.951 . S
C908 C906 1.388 . S
C908 C909 1.366 . S
C909 C908 1.366 . S
C909 C910 1.414 1_545 S
C909 C912 1.499 . S
C910 H884 0.950 . S
C910 C909 1.414 1_565 S
C910 C911 1.374 . S
C911 H885 0.950 . S
C911 C907 1.373 1_565 S
C911 C910 1.374 . S
C912 C909 1.499 . S
C912 C913 1.373 1_545 S
C912 C914 1.389 . S
C913 H886 0.950 . S
C913 C899 1.377 . S
C913 C912 1.373 1_565 S
C914 C898 1.377 . S
C914 C912 1.389 . S
C914 C915 1.524 . S
C915 C914 1.524 . S
C915 C916 1.397 . S
C915 C920 1.363 . S
C916 H887 0.950 . S
C916 C915 1.397 . S
C916 C917 1.334 . S
C917 H888 0.950 . S
C917 C916 1.334 . S
C917 C918 1.287 . S
C918 C917 1.287 . S
C918 C919 1.524 . S
C918 H921 0.999 . S
C919 H889 0.950 . S
C919 C918 1.524 . S
C919 C920 1.415 . S
C920 H890 0.950 . S
C920 C915 1.363 . S
C920 C919 1.415 . S
H921 C918 0.999 . S
H922 C903 0.913 . S
H923 C941 0.951 . S
H924 C943 0.951 . S
H925 C945 0.950 . S
H926 C946 0.950 . S
H927 C948 0.950 . S
H928 C951 0.950 . S
H929 C952 0.950 . S
H930 C954 0.950 . S
H931 C955 0.950 . S
H932 C956 0.951 . S
H933 C958 0.951 . S
H934 C960 0.950 . S
H935 C961 0.950 . S
H936 C963 0.950 . S
H937 C966 0.950 . S
H938 C967 0.950 . S
H939 C969 0.950 . S
H940 C970 0.950 . S
C941 H923 0.951 . S
C941 C942 1.366 . S
C941 C943 1.388 . S
C942 C941 1.366 . S
C942 C946 1.385 . S
C943 H924 0.951 . S
C943 C941 1.388 . S
C943 C944 1.366 . S
C944 C943 1.366 . S
C944 C945 1.414 . S
C944 C947 1.499 . S
C945 H925 0.950 . S
C945 C944 1.414 . S
C945 C946 1.374 . S
C946 H926 0.950 . S
C946 C942 1.385 . S
C946 C945 1.374 . S
C947 C944 1.499 . S
C947 C948 1.373 . S
C947 C949 1.389 . S
C948 H927 0.950 . S
C948 C947 1.373 . S
C948 C964 1.377 . S
C949 C947 1.389 . S
C949 C950 1.524 . S
C949 C963 1.377 . S
C950 C949 1.524 . S
C950 C951 1.397 . S
C950 C955 1.363 . S
C951 H928 0.950 . S
C951 C950 1.397 . S
C951 C952 1.334 . S
C952 H929 0.950 . S
C952 C951 1.334 . S
C952 C953 1.287 . S
C953 C952 1.287 . S
C953 C954 1.524 . S
C953 H972 0.913 . S
C954 H930 0.950 . S
C954 C953 1.524 . S
C954 C955 1.415 . S
C955 H931 0.950 . S
C955 C950 1.363 . S
C955 C954 1.415 . S
C956 H932 0.951 . S
C956 C957 1.366 . S
C956 C958 1.388 . S
C957 C956 1.366 . S
C957 C961 1.385 . S
C958 H933 0.951 . S
C958 C956 1.388 . S
C958 C959 1.366 . S
C959 C958 1.366 . S
C959 C960 1.414 . S
C959 C962 1.499 1_554 S
C960 H934 0.950 . S
C960 C959 1.414 . S
C960 C961 1.374 . S
C961 H935 0.950 . S
C961 C957 1.385 . S
C961 C960 1.374 . S
C962 C959 1.499 1_556 S
C962 C963 1.373 . S
C962 C964 1.389 . S
C963 H936 0.950 . S
C963 C949 1.377 . S
C963 C962 1.373 . S
C964 C948 1.377 . S
C964 C962 1.389 . S
C964 C965 1.524 . S
C965 C964 1.524 . S
C965 C966 1.397 1_556 S
C965 C970 1.363 . S
C966 H937 0.950 . S
C966 C965 1.397 1_554 S
C966 C967 1.334 . S
C967 H938 0.950 . S
C967 C966 1.334 . S
C967 C968 1.287 . S
C968 C967 1.287 . S
C968 C969 1.524 1_554 S
C968 H971 0.999 . S
C969 H939 0.950 . S
C969 C968 1.524 1_556 S
C969 C970 1.415 . S
C970 H940 0.950 . S
C970 C965 1.363 . S
C970 C969 1.415 . S
H971 C968 0.999 . S
H972 C953 0.913 . S
H973 C991 0.951 . S
H974 C993 0.951 . S
H975 C995 0.950 . S
H976 C996 0.950 . S
H977 C998 0.950 . S
H978 C1001 0.950 . S
H979 C1002 0.950 . S
H980 C1004 0.950 . S
H981 C1005 0.950 . S
H982 C1006 0.951 . S
H983 C1008 0.951 . S
H984 C1010 0.950 . S
H985 C1011 0.950 . S
H986 C1013 0.950 . S
H987 C1016 0.950 . S
H988 C1017 0.950 . S
H989 C1019 0.950 . S
H990 C1020 0.950 . S
C991 H973 0.951 . S
C991 C992 1.366 1_655 S
C991 C993 1.388 . S
C992 C991 1.366 1_455 S
C992 C996 1.385 . S
C993 H974 0.951 . S
C993 C991 1.388 . S
C993 C994 1.366 1_655 S
C994 C993 1.366 1_455 S
C994 C995 1.414 . S
C994 C997 1.499 . S
C995 H975 0.950 . S
C995 C994 1.414 . S
C995 C996 1.374 . S
C996 H976 0.950 . S
C996 C992 1.385 . S
C996 C995 1.374 . S
C997 C994 1.499 . S
C997 C998 1.373 . S
C997 C999 1.389 1_455 S
C998 H977 0.950 . S
C998 C997 1.373 . S
C998 C1014 1.377 . S
C999 C997 1.389 1_655 S
C999 C1000 1.524 . S
C999 C1013 1.377 . S
C1000 C999 1.524 . S
C1000 C1001 1.397 . S
C1000 C1005 1.363 . S
C1001 H978 0.950 . S
C1001 C1000 1.397 . S
C1001 C1002 1.334 . S
C1002 H979 0.950 . S
C1002 C1001 1.334 . S
C1002 C1003 1.287 . S
C1003 C1002 1.287 . S
C1003 C1004 1.524 . S
C1003 H1022 0.913 . S
C1004 H980 0.950 . S
C1004 C1003 1.524 . S
C1004 C1005 1.415 . S
C1005 H981 0.950 . S
C1005 C1000 1.363 . S
C1005 C1004 1.415 . S
C1006 H982 0.951 . S
C1006 C1007 1.366 . S
C1006 C1008 1.388 . S
C1007 C1006 1.366 . S
C1007 C1011 1.385 1_455 S
C1008 H983 0.951 . S
C1008 C1006 1.388 . S
C1008 C1009 1.366 . S
C1009 C1008 1.366 . S
C1009 C1010 1.414 1_455 S
C1009 C1012 1.499 . S
C1010 H984 0.950 . S
C1010 C1009 1.414 1_655 S
C1010 C1011 1.374 . S
C1011 H985 0.950 . S
C1011 C1007 1.385 1_655 S
C1011 C1010 1.374 . S
C1012 C1009 1.499 . S
C1012 C1013 1.373 1_455 S
C1012 C1014 1.389 . S
C1013 H986 0.950 . S
C1013 C999 1.377 . S
C1013 C1012 1.373 1_655 S
C1014 C998 1.377 . S
C1014 C1012 1.389 . S
C1014 C1015 1.524 . S
C1015 C1014 1.524 . S
C1015 C1016 1.397 . S
C1015 C1020 1.363 . S
C1016 H987 0.950 . S
C1016 C1015 1.397 . S
C1016 C1017 1.334 . S
C1017 H988 0.950 . S
C1017 C1016 1.334 . S
C1017 C1018 1.287 . S
C1018 C1017 1.287 . S
C1018 C1019 1.524 . S
C1018 H1021 0.999 . S
C1019 H989 0.950 . S
C1019 C1018 1.524 . S
C1019 C1020 1.415 . S
C1020 H990 0.950 . S
C1020 C1015 1.363 . S
C1020 C1019 1.415 . S
H1021 C1018 0.999 . S
H1022 C1003 0.913 . S
C142 C20 1.128 . S
C157 C118 1.154 . S
C192 C41 1.183 . S
C207 C100 1.178 . S
C242 C64 1.183 . S
C257 C112 1.180 . S
C292 C19 1.150 . S
C307 C121 1.178 . S
C357 C103 1.160 . S
C342 C44 1.160 . S
C407 C109 1.170 . S
C392 C67 1.167 . S
C442 C43 1.126 . S
C457 C82 1.154 . S
C492 C66 1.127 . S
C507 C91 1.153 . S
C542 C21 1.179 . S
C557 C73 1.179 . S
C607 C85 1.170 . S
C592 C42 1.143 . S
C657 C94 1.179 . S
C642 C65 1.151 . S
C692 C18 1.166 . S
C707 C76 1.161 . S
C757 C92 1.460 . S
C742 C17 1.460 . S
C792 C39 1.457 . S
C807 C74 1.458 . S
C842 C62 1.474 . S
C857 C83 1.474 . S
C907 C110 1.442 1_545 S
C892 C40 1.442 . S
C957 C119 1.460 . S
C942 C63 1.460 . S
C992 C16 1.457 . S
C1007 C101 1.457 . S
