# Generated by pormake.
# Topology pyr, (3,6)-cn, num edge types: 1
# Building blocks:
#     Node 0, Type 0, BuildingBlock: KAKCAD_clean_linker_0, # of connection points: 3
#     Node 1, Type 0, BuildingBlock: KAKCAD_clean_linker_0, # of connection points: 3
#     Node 2, Type 0, BuildingBlock: KAKCAD_clean_linker_0, # of connection points: 3
#     Node 3, Type 0, BuildingBlock: KAKCAD_clean_linker_0, # of connection points: 3
#     Node 4, Type 0, BuildingBlock: KAKCAD_clean_linker_0, # of connection points: 3
#     Node 5, Type 0, BuildingBlock: KAKCAD_clean_linker_0, # of connection points: 3
#     Node 6, Type 0, BuildingBlock: KAKCAD_clean_linker_0, # of connection points: 3
#     Node 7, Type 0, BuildingBlock: KAKCAD_clean_linker_0, # of connection points: 3
#     Node 8, Type 1, BuildingBlock: PAMTUU_clean_sbu_0, # of connection points: 6
#     Node 9, Type 1, BuildingBlock: PAMTUU_clean_sbu_0, # of connection points: 6
#     Node 10, Type 1, BuildingBlock: PAMTUU_clean_sbu_0, # of connection points: 6
#     Node 11, Type 1, BuildingBlock: PAMTUU_clean_sbu_0, # of connection points: 6
#     Edge 12, Type (0, 1), BuildingBlock: KIFKEQ_clean_linker_1, # of connection points: 2
#     Edge 13, Type (0, 1), BuildingBlock: KIFKEQ_clean_linker_1, # of connection points: 2
#     Edge 14, Type (0, 1), BuildingBlock: KIFKEQ_clean_linker_1, # of connection points: 2
#     Edge 15, Type (0, 1), BuildingBlock: KIFKEQ_clean_linker_1, # of connection points: 2
#     Edge 16, Type (0, 1), BuildingBlock: KIFKEQ_clean_linker_1, # of connection points: 2
#     Edge 17, Type (0, 1), BuildingBlock: KIFKEQ_clean_linker_1, # of connection points: 2
#     Edge 18, Type (0, 1), BuildingBlock: KIFKEQ_clean_linker_1, # of connection points: 2
#     Edge 19, Type (0, 1), BuildingBlock: KIFKEQ_clean_linker_1, # of connection points: 2
#     Edge 20, Type (0, 1), BuildingBlock: KIFKEQ_clean_linker_1, # of connection points: 2
#     Edge 21, Type (0, 1), BuildingBlock: KIFKEQ_clean_linker_1, # of connection points: 2
#     Edge 22, Type (0, 1), BuildingBlock: KIFKEQ_clean_linker_1, # of connection points: 2
#     Edge 23, Type (0, 1), BuildingBlock: KIFKEQ_clean_linker_1, # of connection points: 2
#     Edge 24, Type (0, 1), BuildingBlock: KIFKEQ_clean_linker_1, # of connection points: 2
#     Edge 25, Type (0, 1), BuildingBlock: KIFKEQ_clean_linker_1, # of connection points: 2
#     Edge 26, Type (0, 1), BuildingBlock: KIFKEQ_clean_linker_1, # of connection points: 2
#     Edge 27, Type (0, 1), BuildingBlock: KIFKEQ_clean_linker_1, # of connection points: 2
#     Edge 28, Type (0, 1), BuildingBlock: KIFKEQ_clean_linker_1, # of connection points: 2
#     Edge 29, Type (0, 1), BuildingBlock: KIFKEQ_clean_linker_1, # of connection points: 2
#     Edge 30, Type (0, 1), BuildingBlock: KIFKEQ_clean_linker_1, # of connection points: 2
#     Edge 31, Type (0, 1), BuildingBlock: KIFKEQ_clean_linker_1, # of connection points: 2
#     Edge 32, Type (0, 1), BuildingBlock: KIFKEQ_clean_linker_1, # of connection points: 2
#     Edge 33, Type (0, 1), BuildingBlock: KIFKEQ_clean_linker_1, # of connection points: 2
#     Edge 34, Type (0, 1), BuildingBlock: KIFKEQ_clean_linker_1, # of connection points: 2
#     Edge 35, Type (0, 1), BuildingBlock: KIFKEQ_clean_linker_1, # of connection points: 2
# Relax obj value: 0.083
# Max RMSD: 0.122
# Mean RMSD: 0.050
data_MOF--net-pyr--node1-PAMTUU_clean_sbu_0--node2-KAKCAD_clean_linker_0--edge1-KIFKEQ_clean_linker_1
_symmetry_space_group_name_H-M    P1
_symmetry_Int_Tables_number       1
_symmetry_cell_setting            triclinic
loop_
_symmetry_equiv_pos_as_xyz
'x, y, z'
_cell_length_a     47.293314
_cell_length_b     48.121704
_cell_length_c     45.893651
_cell_angle_alpha  90.093971
_cell_angle_beta   89.356696
_cell_angle_gamma 100.72917
loop_
_atom_site_label
_atom_site_type_symbol
_atom_site_fract_x
_atom_site_fract_y
_atom_site_fract_z
_atom_type_partial_charge
C0 C 0.26589 0.24177 0.30193 0.0
C1 C 0.28203 0.23559 0.32571 0.0
C2 C 0.27955 0.25381 0.27672 0.0
C3 C 0.30977 0.26039 0.27474 0.0
C4 C 0.32599 0.2546 0.29877 0.0
C5 C 0.31223 0.24214 0.32398 0.0
C6 C 0.32391 0.27191 0.24706 0.0
C7 C 0.31122 0.29032 0.23003 0.0
C8 C 0.32125 0.29769 0.20178 0.0
C9 C 0.3456 0.28819 0.19103 0.0
C10 C 0.35893 0.26984 0.20777 0.0
C11 C 0.34798 0.26199 0.23586 0.0
C12 C 0.38151 0.25576 0.19466 0.0
C13 C 0.37922 0.24649 0.16555 0.0
C14 C 0.40403 0.24922 0.21163 0.0
C15 C 0.423 0.23283 0.2001 0.0
C16 C 0.42005 0.22294 0.17128 0.0
C17 C 0.3032 0.31119 0.18226 0.0
C18 C 0.27449 0.29798 0.1781 0.0
C19 C 0.31378 0.33707 0.16839 0.0
C20 C 0.2954 0.35006 0.15148 0.0
C21 C 0.26647 0.33698 0.14779 0.0
C22 C 0.25637 0.31065 0.16099 0.0
C23 C 0.39831 0.23042 0.154 0.0
H24 H 0.24261 0.23633 0.30238 0.0
H25 H 0.26628 0.25707 0.25843 0.0
H26 H 0.34928 0.25955 0.29804 0.0
H27 H 0.32514 0.23756 0.34208 0.0
H28 H 0.29248 0.29801 0.23817 0.0
H29 H 0.35684 0.24648 0.24814 0.0
H30 H 0.35307 0.29381 0.16904 0.0
H31 H 0.36182 0.25045 0.15197 0.0
H32 H 0.40664 0.25631 0.23401 0.0
H33 H 0.43973 0.22756 0.21383 0.0
H34 H 0.26597 0.27787 0.18842 0.0
H35 H 0.33591 0.34752 0.1713 0.0
H36 H 0.39515 0.22269 0.13187 0.0
H37 H 0.23411 0.30024 0.15891 0.0
H38 H 0.30369 0.37036 0.14148 0.0
C39 C 0.22196 0.81211 0.82603 0.0
C40 C 0.25198 0.81385 0.82654 0.0
C41 C 0.20574 0.79841 0.80308 0.0
C42 C 0.21923 0.7864 0.78001 0.0
C43 C 0.24908 0.78723 0.78127 0.0
C44 C 0.26513 0.80046 0.80435 0.0
C45 C 0.20299 0.77513 0.75355 0.0
C46 C 0.18213 0.78915 0.74187 0.0
C47 C 0.16988 0.78155 0.71451 0.0
C48 C 0.17903 0.75971 0.69867 0.0
C49 C 0.20006 0.74572 0.70987 0.0
C50 C 0.21101 0.75277 0.73773 0.0
C51 C 0.21463 0.72765 0.69093 0.0
C52 C 0.2217 0.70252 0.7017 0.0
C53 C 0.22591 0.73807 0.66379 0.0
C54 C 0.24575 0.72497 0.64891 0.0
C55 C 0.25442 0.70104 0.66073 0.0
C56 C 0.15001 0.79858 0.70138 0.0
C57 C 0.13015 0.80967 0.71892 0.0
C58 C 0.1521 0.80552 0.67155 0.0
C59 C 0.13538 0.82368 0.65977 0.0
C60 C 0.11651 0.83562 0.6776 0.0
C61 C 0.11376 0.8282 0.7072 0.0
C62 C 0.24132 0.68922 0.68663 0.0
H63 H 0.21111 0.82226 0.84273 0.0
H64 H 0.18275 0.79784 0.80307 0.0
H65 H 0.26049 0.77873 0.76381 0.0
H66 H 0.28809 0.8008 0.80434 0.0
H67 H 0.17693 0.80737 0.75314 0.0
H68 H 0.22741 0.74209 0.74621 0.0
H69 H 0.17052 0.75407 0.6772 0.0
H70 H 0.21326 0.69405 0.72256 0.0
H71 H 0.22108 0.75755 0.65509 0.0
H72 H 0.25537 0.73433 0.62884 0.0
H73 H 0.12759 0.80441 0.74184 0.0
H74 H 0.1675 0.79792 0.65744 0.0
H75 H 0.24772 0.67083 0.69625 0.0
H76 H 0.09913 0.83695 0.72132 0.0
H77 H 0.13813 0.82935 0.63694 0.0
C78 C 0.76233 0.43687 0.8989 0.0
C79 C 0.78026 0.42039 0.91213 0.0
C80 C 0.73709 0.42405 0.88464 0.0
C81 C 0.72928 0.39434 0.8828 0.0
C82 C 0.74787 0.37801 0.89534 0.0
C83 C 0.77276 0.39081 0.91001 0.0
C84 C 0.70151 0.38037 0.86893 0.0
C85 C 0.69005 0.39259 0.84483 0.0
C86 C 0.66337 0.38003 0.83243 0.0
C87 C 0.64863 0.35413 0.84444 0.0
C88 C 0.66026 0.34092 0.86768 0.0
C89 C 0.68624 0.35458 0.88001 0.0
C90 C 0.64599 0.31252 0.87912 0.0
C91 C 0.61628 0.30613 0.88535 0.0
C92 C 0.66256 0.29176 0.88486 0.0
C93 C 0.65007 0.26568 0.89716 0.0
C94 C 0.62054 0.25948 0.9044 0.0
C95 C 0.65129 0.39373 0.80683 0.0
C96 C 0.65786 0.42327 0.80238 0.0
C97 C 0.63318 0.37754 0.78635 0.0
C98 C 0.62199 0.39031 0.76266 0.0
C99 C 0.62902 0.41979 0.75787 0.0
C100 C 0.64731 0.43595 0.77825 0.0
C101 C 0.60374 0.28 0.89793 0.0
H102 H 0.76743 0.45973 0.90027 0.0
H103 H 0.72336 0.43749 0.87571 0.0
H104 H 0.74332 0.35516 0.89382 0.0
H105 H 0.78636 0.3775 0.9195 0.0
H106 H 0.70243 0.41162 0.8353 0.0
H107 H 0.69427 0.34512 0.89886 0.0
H108 H 0.62817 0.34393 0.83568 0.0
H109 H 0.60289 0.32166 0.88137 0.0
H110 H 0.6854 0.29569 0.87982 0.0
H111 H 0.6637 0.25033 0.90094 0.0
H112 H 0.6711 0.43694 0.81763 0.0
H113 H 0.62773 0.35477 0.78821 0.0
H114 H 0.58101 0.27625 0.90333 0.0
H115 H 0.65396 0.45855 0.77561 0.0
H116 H 0.60759 0.37677 0.74825 0.0
C117 C 0.87717 0.64196 0.25829 0.0
C118 C 0.90707 0.64483 0.25374 0.0
C119 C 0.86608 0.65411 0.28265 0.0
C120 C 0.88449 0.66945 0.30337 0.0
C121 C 0.9144 0.67263 0.29867 0.0
C122 C 0.92551 0.66052 0.27424 0.0
C123 C 0.87248 0.68144 0.33002 0.0
C124 C 0.84781 0.66617 0.34424 0.0
C125 C 0.83627 0.6769 0.36932 0.0
C126 C 0.84961 0.70334 0.38019 0.0
C127 C 0.87402 0.7193 0.36637 0.0
C128 C 0.88547 0.70804 0.3414 0.0
C129 C 0.88709 0.74774 0.37827 0.0
C130 C 0.86938 0.76611 0.38882 0.0
C131 C 0.91712 0.75636 0.38037 0.0
C132 C 0.929 0.78224 0.39351 0.0
C133 C 0.91117 0.80015 0.40487 0.0
C134 C 0.81002 0.66082 0.38414 0.0
C135 C 0.78571 0.64875 0.36798 0.0
C136 C 0.80867 0.65841 0.41469 0.0
C137 C 0.78351 0.64469 0.42878 0.0
C138 C 0.75894 0.63324 0.41269 0.0
C139 C 0.76043 0.63527 0.38209 0.0
C140 C 0.88121 0.79186 0.40195 0.0
H141 H 0.86218 0.62984 0.2433 0.0
H142 H 0.84294 0.65149 0.28516 0.0
H143 H 0.92933 0.68405 0.31418 0.0
H144 H 0.94864 0.6636 0.27139 0.0
H145 H 0.8379 0.64548 0.33626 0.0
H146 H 0.90397 0.72038 0.33034 0.0
H147 H 0.84075 0.71162 0.39953 0.0
H148 H 0.8462 0.76056 0.387 0.0
H149 H 0.93143 0.74271 0.3727 0.0
H150 H 0.95216 0.7878 0.39552 0.0
H151 H 0.78599 0.65038 0.34444 0.0
H152 H 0.82709 0.66726 0.42777 0.0
H153 H 0.8668 0.80533 0.40979 0.0
H154 H 0.74199 0.62644 0.36903 0.0
H155 H 0.78306 0.64369 0.45235 0.0
C156 C 0.72999 0.79198 0.754 0.0
C157 C 0.73513 0.82169 0.75405 0.0
C158 C 0.71362 0.77679 0.77634 0.0
C159 C 0.70213 0.79105 0.79911 0.0
C160 C 0.70562 0.82069 0.79785 0.0
C161 C 0.72181 0.83579 0.77553 0.0
C162 C 0.69003 0.77585 0.82596 0.0
C163 C 0.70412 0.75566 0.83848 0.0
C164 C 0.69701 0.74527 0.86674 0.0
C165 C 0.67528 0.75522 0.88253 0.0
C166 C 0.66055 0.77499 0.87007 0.0
C167 C 0.66757 0.78464 0.84158 0.0
C168 C 0.641 0.78902 0.88786 0.0
C169 C 0.61443 0.79288 0.87684 0.0
C170 C 0.65063 0.80197 0.91427 0.0
C171 C 0.63484 0.81983 0.92851 0.0
C172 C 0.60885 0.82488 0.91683 0.0
C173 C 0.715 0.72685 0.88054 0.0
C174 C 0.72397 0.70514 0.8644 0.0
C175 C 0.72605 0.73293 0.90862 0.0
C176 C 0.74701 0.71883 0.91954 0.0
C177 C 0.75734 0.69844 0.90255 0.0
C178 C 0.74494 0.69112 0.87526 0.0
C179 C 0.59839 0.81043 0.89131 0.0
H180 H 0.73997 0.78054 0.7377 0.0
H181 H 0.711 0.75394 0.77648 0.0
H182 H 0.69742 0.8325 0.81508 0.0
H183 H 0.72499 0.85867 0.77583 0.0
H184 H 0.72235 0.74973 0.82718 0.0
H185 H 0.65685 0.80057 0.83233 0.0
H186 H 0.67025 0.74812 0.90472 0.0
H187 H 0.60652 0.783 0.85655 0.0
H188 H 0.67128 0.7997 0.92299 0.0
H189 H 0.64389 0.83083 0.94782 0.0
H190 H 0.71551 0.69971 0.84287 0.0
H191 H 0.71982 0.74974 0.92148 0.0
H192 H 0.57817 0.81325 0.88202 0.0
H193 H 0.75209 0.67511 0.86192 0.0
H194 H 0.75628 0.72505 0.94057 0.0
C195 C 0.7936 0.21685 0.27257 0.0
C196 C 0.78309 0.23383 0.25204 0.0
C197 C 0.81191 0.22908 0.2945 0.0
C198 C 0.82006 0.25863 0.29645 0.0
C199 C 0.81061 0.27563 0.27508 0.0
C200 C 0.79238 0.26328 0.25288 0.0
C201 C 0.83545 0.27124 0.32267 0.0
C202 C 0.85735 0.25906 0.3347 0.0
C203 C 0.86732 0.26604 0.36299 0.0
C204 C 0.85626 0.2869 0.37868 0.0
C205 C 0.83503 0.30013 0.36639 0.0
C206 C 0.82496 0.29224 0.33832 0.0
C207 C 0.81997 0.31911 0.38378 0.0
C208 C 0.80911 0.31107 0.41178 0.0
C209 C 0.81238 0.343 0.37065 0.0
C210 C 0.79241 0.35702 0.38403 0.0
C211 C 0.77972 0.34753 0.4109 0.0
C212 C 0.88663 0.24902 0.37695 0.0
C213 C 0.88156 0.21953 0.37298 0.0
C214 C 0.90975 0.26161 0.39442 0.0
C215 C 0.92754 0.24498 0.40739 0.0
C216 C 0.92253 0.21551 0.40306 0.0
C217 C 0.89929 0.20305 0.38577 0.0
C218 C 0.78917 0.32521 0.42526 0.0
H219 H 0.78696 0.19405 0.27216 0.0
H220 H 0.81844 0.21539 0.31082 0.0
H221 H 0.81665 0.29846 0.27604 0.0
H222 H 0.78452 0.27678 0.23722 0.0
H223 H 0.86567 0.24299 0.32245 0.0
H224 H 0.8071 0.30073 0.32966 0.0
H225 H 0.86316 0.2919 0.40082 0.0
H226 H 0.81435 0.29259 0.42234 0.0
H227 H 0.82072 0.3499 0.34924 0.0
H228 H 0.7859 0.37451 0.37273 0.0
H229 H 0.86345 0.209 0.36038 0.0
H230 H 0.91421 0.28427 0.39783 0.0
H231 H 0.77967 0.3174 0.44594 0.0
H232 H 0.8943 0.18035 0.38267 0.0
H233 H 0.94531 0.25518 0.42063 0.0
C234 C 0.25678 0.63132 0.19507 0.0
C235 C 0.25565 0.62931 0.16445 0.0
C236 C 0.28224 0.64394 0.20908 0.0
C237 C 0.30711 0.65525 0.19282 0.0
C238 C 0.30607 0.65286 0.16226 0.0
C239 C 0.28078 0.63997 0.14829 0.0
C240 C 0.33365 0.6707 0.20738 0.0
C241 C 0.34478 0.65972 0.23235 0.0
C242 C 0.36994 0.67435 0.24596 0.0
C243 C 0.38362 0.70068 0.23411 0.0
C244 C 0.37287 0.712 0.20905 0.0
C245 C 0.3479 0.69675 0.19606 0.0
C246 C 0.38729 0.73975 0.1961 0.0
C247 C 0.39735 0.76343 0.21372 0.0
C248 C 0.3899 0.74307 0.16565 0.0
C249 C 0.40146 0.76934 0.15315 0.0
C250 C 0.41081 0.79328 0.17065 0.0
C251 C 0.38209 0.66184 0.2721 0.0
C252 C 0.36389 0.64613 0.29317 0.0
C253 C 0.41204 0.665 0.27604 0.0
C254 C 0.42336 0.65278 0.30003 0.0
C255 C 0.40515 0.63683 0.32095 0.0
C256 C 0.3752 0.63382 0.31709 0.0
C257 C 0.4089 0.78983 0.20118 0.0
H258 H 0.23794 0.62311 0.20825 0.0
H259 H 0.28222 0.64554 0.23263 0.0
H260 H 0.32487 0.66113 0.14904 0.0
H261 H 0.28072 0.63902 0.12472 0.0
H262 H 0.33425 0.63928 0.24059 0.0
H263 H 0.33898 0.7056 0.17733 0.0
H264 H 0.40274 0.71238 0.2443 0.0
H265 H 0.39547 0.76181 0.23722 0.0
H266 H 0.38296 0.72525 0.15133 0.0
H267 H 0.40318 0.77081 0.12964 0.0
H268 H 0.34073 0.64341 0.29133 0.0
H269 H 0.42693 0.67657 0.26029 0.0
H270 H 0.4156 0.80771 0.21546 0.0
H271 H 0.3603 0.62151 0.33235 0.0
H272 H 0.4465 0.65606 0.30222 0.0
C273 C 0.15119 0.26358 0.68588 0.0
C274 C 0.12192 0.25771 0.67831 0.0
C275 C 0.16364 0.2898 0.69756 0.0
C276 C 0.14718 0.31092 0.70233 0.0
C277 C 0.11766 0.3048 0.696 0.0
C278 C 0.10518 0.27854 0.68401 0.0
C279 C 0.16146 0.33958 0.71235 0.0
C280 C 0.18726 0.35278 0.69885 0.0
C281 C 0.20232 0.37917 0.70837 0.0
C282 C 0.19067 0.39263 0.73175 0.0
C283 C 0.16445 0.38012 0.74538 0.0
C284 C 0.14997 0.35355 0.73533 0.0
C285 C 0.15243 0.39462 0.77032 0.0
C286 C 0.17059 0.40886 0.79189 0.0
C287 C 0.12269 0.39431 0.77286 0.0
C288 C 0.11144 0.40777 0.79625 0.0
C289 C 0.12957 0.42192 0.8179 0.0
C290 C 0.23008 0.39236 0.69364 0.0
C291 C 0.24894 0.37534 0.68255 0.0
C292 C 0.23772 0.42183 0.68974 0.0
C293 C 0.26317 0.4338 0.6749 0.0
C294 C 0.28162 0.41667 0.66312 0.0
C295 C 0.27405 0.38723 0.66729 0.0
C296 C 0.15934 0.42229 0.8153 0.0
H297 H 0.16467 0.24792 0.68266 0.0
H298 H 0.18634 0.29366 0.7027 0.0
H299 H 0.10445 0.32069 0.6993 0.0
H300 H 0.08264 0.27497 0.67832 0.0
H301 H 0.19533 0.34248 0.68035 0.0
H302 H 0.13024 0.34325 0.74601 0.0
H303 H 0.20202 0.41291 0.73941 0.0
H304 H 0.19354 0.40919 0.79102 0.0
H305 H 0.10805 0.38398 0.7565 0.0
H306 H 0.08848 0.40737 0.79714 0.0
H307 H 0.24436 0.35263 0.68555 0.0
H308 H 0.22379 0.43574 0.69766 0.0
H309 H 0.17399 0.4325 0.83171 0.0
H310 H 0.28723 0.37309 0.65836 0.0
H311 H 0.26832 0.45658 0.67278 0.0
Tb312 Tb 0.04782 0.02969 0.52598 0.0
Tb313 Tb 0.98798 1.02338 0.56424 0.0
C314 C 0.99496 0.98124 0.513 0.0
C315 C 0.11449 0.05773 0.48391 0.0
C316 C 0.15331 0.10226 0.45763 0.0
C317 C 0.16086 0.07558 0.46133 0.0
C318 C 0.14157 0.05349 0.47437 0.0
C319 C 0.10684 0.08432 0.48053 0.0
C320 C 0.12609 0.10643 0.4674 0.0
C321 C 0.09478 0.0345 0.49807 0.0
O322 O 0.02012 0.05244 0.50133 0.0
O323 O 0.98903 0.06071 0.53788 0.0
O324 O 0.02052 0.05434 0.58658 0.0
O325 O 0.05067 0.0699 0.54817 0.0
O326 O 0.94321 1.02083 0.56698 0.0
O327 O 0.96872 1.02039 0.60575 0.0
O328 O 1.0071 0.98736 0.57542 0.0
O329 O 0.05362 1.00891 0.56702 0.0
O330 O 0.02307 0.98825 0.51509 0.0
O331 O 0.97775 0.99589 0.52632 0.0
C332 C 1.00049 0.06599 0.51185 0.0
O333 O 0.0929 0.03629 0.52631 0.0
O334 O 0.06957 0.02708 0.48622 0.0
C335 C 0.04075 0.07349 0.57445 0.0
C336 C 0.92186 0.99357 0.60739 0.0
C337 C 0.8831 0.94842 0.63291 0.0
C338 C 0.89673 0.97115 0.65 0.0
C339 C 0.91582 0.99353 0.63734 0.0
C340 C 0.90823 0.97092 0.59011 0.0
C341 C 0.88879 0.94858 0.60278 0.0
C342 C 0.94285 1.01723 0.59517 0.0
C343 C 0.0347 0.98878 0.57919 0.0
H344 H 0.18149 0.07162 0.45367 0.0
H345 H 0.14778 0.03307 0.47695 0.0
H346 H 0.08604 0.08796 0.48809 0.0
H347 H 0.11978 0.12682 0.46508 0.0
H348 H 0.89238 0.97178 0.6732 0.0
H349 H 0.92603 1.01081 0.65102 0.0
H350 H 0.91268 0.97038 0.56693 0.0
H351 H 0.87859 0.93125 0.58918 0.0
Tb352 Tb 0.54408 0.03085 0.05821 0.0
Tb353 Tb 0.48533 1.02379 1.01933 0.0
C354 C 0.53257 0.98811 1.00595 0.0
C355 C 0.60857 0.06225 0.09997 0.0
C356 C 0.64473 0.10916 0.12469 0.0
C357 C 0.65438 0.08345 0.12073 0.0
C358 C 0.63642 0.06019 0.10847 0.0
C359 C 0.59884 0.08787 0.10356 0.0
C360 C 0.61676 0.11116 0.11597 0.0
C361 C 0.59029 0.03786 0.08645 0.0
O362 O 0.54713 0.07056 1.03472 0.0
O363 O 0.51799 0.05467 0.9963 0.0
O364 O 0.4863 0.0614 0.0454 0.0
O365 O 0.51468 0.05201 0.08295 0.0
O366 O 0.46536 1.01925 0.97862 0.0
O367 O 0.44079 1.02278 1.01801 0.0
O368 O 0.47471 0.99505 0.05656 0.0
O369 O 0.51998 0.98912 0.06953 0.0
O370 O 0.55129 1.00756 1.01903 0.0
O371 O 0.50489 0.98809 1.00733 0.0
C372 C 0.53797 0.07392 1.00828 0.0
O373 O 0.56488 0.02968 0.09823 0.0
O374 O 0.58918 0.03877 0.05814 0.0
C375 C 0.49606 0.0661 0.07192 0.0
C376 C 0.41809 0.99366 0.98079 0.0
C377 C 0.37794 0.94785 0.95935 0.0
C378 C 0.37332 0.97573 0.9562 0.0
C379 C 0.3933 0.99846 0.96682 0.0
C380 C 0.42238 0.96588 0.98492 0.0
C381 C 0.40246 0.94312 0.97422 0.0
C382 C 0.43976 1.01778 0.99008 0.0
C383 C 0.49187 0.98095 0.07038 0.0
H384 H 0.67564 0.08114 0.12767 0.0
H385 H 0.64424 0.04056 0.10567 0.0
H386 H 0.57743 0.08984 0.09675 0.0
H387 H 0.60883 0.13074 0.11858 0.0
H388 H 0.35485 0.98009 0.94452 0.0
H389 H 0.38972 1.01982 0.96352 0.0
H390 H 0.44139 0.96186 0.99589 0.0
H391 H 0.40644 0.92186 0.97719 0.0
Tb392 Tb 0.52071 0.49799 0.5183 0.0
Tb393 Tb 0.51789 0.55641 0.55445 0.0
C394 C 0.4905 0.54604 0.49282 0.0
C395 C 0.55053 0.43962 0.48571 0.0
C396 C 0.59974 0.41546 0.4756 0.0
C397 C 0.57792 0.4133 0.45461 0.0
C398 C 0.55355 0.42523 0.45967 0.0
C399 C 0.57197 0.44156 0.50693 0.0
C400 C 0.59627 0.42944 0.502 0.0
C401 C 0.52641 0.45468 0.48937 0.0
O402 O 0.56459 0.52166 0.5192 0.0
O403 O 0.55441 0.56605 0.52436 0.0
O404 O 0.54659 0.53565 0.58033 0.0
O405 O 0.53543 0.49032 0.56194 0.0
O406 O 0.51809 0.60009 0.55244 0.0
O407 O 0.51493 0.57834 0.59362 0.0
O408 O 0.48183 0.52551 0.57083 0.0
O409 O 0.4763 0.4922 0.53422 0.0
O410 O 0.50724 0.52762 0.48753 0.0
O411 O 0.48664 0.55447 0.51955 0.0
C412 C 0.57196 0.54918 0.51638 0.0
O413 O 0.51444 0.45368 0.51518 0.0
O414 O 0.53093 0.48017 0.47868 0.0
C415 C 0.54712 0.50839 0.58192 0.0
C416 C 0.486 0.61232 0.58718 0.0
C417 C 0.43505 0.63218 0.60035 0.0
C418 C 0.46199 0.65014 0.60315 0.0
C419 C 0.48736 0.64019 0.59675 0.0
C420 C 0.45912 0.59462 0.58376 0.0
C421 C 0.43387 0.60435 0.59056 0.0
C422 C 0.51229 0.60151 0.58014 0.0
C423 C 0.46688 0.50328 0.55785 0.0
H424 H 0.58006 0.4032 0.43381 0.0
H425 H 0.53742 0.42391 0.44289 0.0
H426 H 0.57019 0.45292 0.52707 0.0
H427 H 0.61241 0.43124 0.51879 0.0
H428 H 0.46339 0.67169 0.61071 0.0
H429 H 0.50796 0.65418 0.59927 0.0
H430 H 0.45771 0.57326 0.57573 0.0
H431 H 0.41337 0.59022 0.58783 0.0
Tb432 Tb 0.01774 0.55986 1.01906 0.0
Tb433 Tb 0.01709 0.50125 0.05519 0.0
C434 C 0.04496 0.51078 0.99229 0.0
C435 C 0.98945 0.61677 0.98375 0.0
C436 C 0.93899 0.63545 0.9669 0.0
C437 C 0.96267 0.63774 0.94765 0.0
C438 C 0.98773 0.62853 0.95605 0.0
C439 C 0.96595 0.61477 1.00314 0.0
C440 C 0.94103 0.62421 0.99486 0.0
C441 C 1.01456 0.60426 0.99124 0.0
O442 O 0.98076 0.52983 1.00324 0.0
O443 O 0.97277 0.49739 0.04061 0.0
O444 O 1.00338 0.53072 0.08612 0.0
O445 O 0.98657 0.56029 0.05431 0.0
O446 O 1.00939 0.45685 0.05727 0.0
O447 O 0.02666 0.48208 0.09399 0.0
O448 O 0.06153 0.52402 0.05496 0.0
O449 O 0.05294 0.56895 0.05011 0.0
O450 O 0.04801 0.53833 0.9957 0.0
O451 O 0.02926 0.4932 1.01055 0.0
C452 C 0.96443 0.50846 1.01669 0.0
O453 O 0.02085 0.60397 1.01882 0.0
O454 O 0.01548 0.5801 0.97882 0.0
C455 C 0.98867 0.55076 0.08085 0.0
C456 C 0.04627 0.44216 0.08358 0.0
C457 C 0.09583 0.41803 0.08881 0.0
C458 C 0.07229 0.41026 0.10807 0.0
C459 C 0.0477 0.4223 0.10549 0.0
C460 C 0.06941 0.44956 0.06395 0.0
C461 C 0.09396 0.43757 0.06651 0.0
C462 C 0.02184 0.45694 0.08246 0.0
C463 C 0.06952 0.55143 0.05849 0.0
H464 H 0.96174 0.64653 0.92604 0.0
H465 H 1.00552 0.62998 0.9407 0.0
H466 H 0.96654 0.6053 1.02445 0.0
H467 H 0.92301 0.62185 1.01001 0.0
H468 H 0.07322 0.39554 0.12571 0.0
H469 H 0.03013 0.41663 0.12099 0.0
H470 H 0.06871 0.46503 0.04697 0.0
H471 H 0.11155 0.44374 0.05114 0.0
H472 H 0.29399 0.18888 0.35295 0.0
H473 H 0.23575 0.24809 0.35538 0.0
H474 H 0.26411 0.15936 0.38892 0.0
H475 H 0.20607 0.21893 0.39179 0.0
H476 H 0.14064 0.13843 0.41618 0.0
H477 H 0.17394 0.1739 0.38898 0.0
H478 H 0.2449 0.15373 0.43814 0.0
H479 H 0.21143 0.11793 0.46524 0.0
C480 C 0.27523 0.19596 0.36182 0.0
C481 C 0.26698 0.22057 0.3512 0.0
C482 C 0.25809 0.17908 0.38244 0.0
C483 C 0.23247 0.1866 0.39293 0.0
C484 C 0.22531 0.21222 0.38365 0.0
C485 C 0.24234 0.22897 0.36293 0.0
C486 C 0.16327 0.1419 0.42154 0.0
C487 C 0.17343 0.12531 0.44274 0.0
C488 C 0.18239 0.1623 0.406 0.0
C489 C 0.21211 0.16667 0.4114 0.0
C490 C 0.22218 0.15062 0.4332 0.0
C491 C 0.20304 0.13012 0.44869 0.0
H492 H 0.30432 0.84798 0.81834 0.0
H493 H 0.24013 0.81956 0.88501 0.0
H494 H 0.33403 0.87663 0.85399 0.0
H495 H 0.2699 0.84925 0.92074 0.0
H496 H 0.31895 0.93767 0.95804 0.0
H497 H 0.28774 0.90247 0.9285 0.0
H498 H 0.36194 0.86953 0.89877 0.0
H499 H 0.39312 0.90491 0.92768 0.0
C500 C 0.29669 0.84745 0.84071 0.0
C501 C 0.26994 0.8311 0.84883 0.0
C502 C 0.31375 0.86398 0.86113 0.0
C503 C 0.3044 0.86491 0.89017 0.0
C504 C 0.27756 0.8489 0.89843 0.0
C505 C 0.26053 0.83202 0.87796 0.0
C506 C 0.32851 0.9227 0.9454 0.0
C507 C 0.35849 0.92419 0.94498 0.0
C508 C 0.31064 0.90243 0.92873 0.0
C509 C 0.3225 0.88348 0.91118 0.0
C510 C 0.35229 0.8841 0.91189 0.0
C511 C 0.3701 0.90419 0.92865 0.0
H512 H 0.61952 0.47488 0.75169 0.0
H513 H 0.61202 0.39632 0.70399 0.0
H514 H 0.60303 0.49703 0.70964 0.0
H515 H 0.5921 0.41744 0.66341 0.0
H516 H 0.57653 0.46462 0.5826 0.0
H517 H 0.59763 0.44481 0.62385 0.0
H518 H 0.56763 0.50534 0.68076 0.0
H519 H 0.54876 0.52641 0.63873 0.0
C520 C 0.61437 0.46208 0.7324 0.0
C521 C 0.61753 0.43347 0.73188 0.0
C522 C 0.60414 0.47484 0.70812 0.0
C523 C 0.59587 0.45938 0.68245 0.0
C524 C 0.59864 0.43067 0.68211 0.0
C525 C 0.6096 0.41814 0.70608 0.0
C526 C 0.57473 0.47383 0.60394 0.0
C527 C 0.56101 0.49717 0.60729 0.0
C528 C 0.58658 0.4622 0.62792 0.0
C529 C 0.58434 0.47291 0.65638 0.0
C530 C 0.57059 0.49648 0.65952 0.0
C531 C 0.55949 0.50863 0.63532 0.0
H532 H 0.88621 0.63893 0.19776 0.0
H533 H 0.95474 0.61959 0.25102 0.0
H534 H 0.90439 0.6154 0.15649 0.0
H535 H 0.9738 0.5974 0.20936 0.0
H536 H 0.98516 0.53443 0.13825 0.0
H537 H 0.96504 0.55665 0.17927 0.0
H538 H 0.94221 0.6194 0.12131 0.0
H539 H 0.96163 0.59665 0.08013 0.0
C540 C 0.90516 0.62969 0.20076 0.0
C541 C 0.91885 0.63121 0.22798 0.0
C542 C 0.91586 0.61645 0.17686 0.0
C543 C 0.94064 0.60434 0.17937 0.0
C544 C 0.95444 0.60604 0.20654 0.0
C545 C 0.94371 0.61921 0.23044 0.0
C546 C 0.97571 0.55287 0.13416 0.0
C547 C 0.97508 0.56366 0.10573 0.0
C548 C 0.96433 0.56582 0.15783 0.0
C549 C 0.95207 0.59006 0.15386 0.0
C550 C 0.95111 0.60061 0.12533 0.0
C551 C 0.96239 0.58758 0.10163 0.0
H552 H 0.44637 0.22441 0.11797 0.0
H553 H 0.43359 0.17646 0.19803 0.0
H554 H 0.46835 0.18751 0.09559 0.0
H555 H 0.45551 0.13939 0.17556 0.0
H556 H 0.51319 0.0856 0.12663 0.0
H557 H 0.49963 0.12584 0.15254 0.0
H558 H 0.44568 0.13946 0.08062 0.0
H559 H 0.45912 0.09987 0.05486 0.0
C560 C 0.44859 0.20612 0.13088 0.0
C561 C 0.43792 0.20313 0.1596 0.0
C562 C 0.46111 0.18499 0.11807 0.0
C563 C 0.46316 0.16034 0.13367 0.0
C564 C 0.4543 0.15819 0.16304 0.0
C565 C 0.44178 0.17942 0.1759 0.0
C566 C 0.49838 0.09717 0.11644 0.0
C567 C 0.48728 0.08949 0.08864 0.0
C568 C 0.49064 0.12018 0.13126 0.0
C569 C 0.47191 0.13602 0.11842 0.0
C570 C 0.46067 0.12809 0.09083 0.0
C571 C 0.46822 0.10516 0.07616 0.0
H572 H 0.11461 0.88768 0.69986 0.0
H573 H 0.08454 0.83223 0.62814 0.0
H574 H 0.09295 0.92499 0.67799 0.0
H575 H 0.06268 0.8695 0.60637 0.0
H576 H 1.00485 0.93619 0.59292 0.0
H577 H 0.02254 0.89851 0.61871 0.0
H578 H 0.10482 0.95361 0.62985 0.0
H579 H 0.08738 0.99122 0.60378 0.0
C580 C 0.10297 0.88337 0.67966 0.0
C581 C 0.1012 0.85714 0.66564 0.0
C582 C 0.09079 0.90473 0.66709 0.0
C583 C 0.07624 0.90007 0.64052 0.0
C584 C 0.07364 0.87352 0.62697 0.0
C585 C 0.08624 0.85231 0.6393 0.0
C586 C 0.02664 0.94034 0.60108 0.0
C587 C 0.04477 0.96663 0.5963 0.0
C588 C 0.03675 0.91875 0.61569 0.0
C589 C 0.06499 0.92323 0.62622 0.0
C590 C 0.08287 0.94973 0.62211 0.0
C591 C 0.07294 0.97116 0.60708 0.0
H592 H 0.82276 0.46414 0.8945 0.0
H593 H 0.79734 0.40704 0.96635 0.0
H594 H 0.86639 0.48506 0.92015 0.0
H595 H 0.84011 0.42878 0.99291 0.0
H596 H 0.93319 0.45458 1.02269 0.0
H597 H 0.88911 0.43355 0.99777 0.0
H598 H 0.88697 0.51404 0.95686 0.0
H599 H 0.93182 0.53435 0.9805 0.0
C600 C 0.82634 0.45633 0.91602 0.0
C601 C 0.80658 0.43385 0.9283 0.0
C602 C 0.85137 0.46846 0.93094 0.0
C603 C 0.85718 0.45886 0.95892 0.0
C604 C 0.83705 0.43655 0.97128 0.0
C605 C 0.81229 0.4241 0.9561 0.0
C606 C 0.92317 0.46778 1.00848 0.0
C607 C 0.93617 0.49612 1.00353 0.0
C608 C 0.89768 0.45575 0.99418 0.0
C609 C 0.88412 0.47186 0.97491 0.0
C610 C 0.89685 0.50052 0.97077 0.0
C611 C 0.92258 0.51234 0.98461 0.0
H612 H 0.75203 0.59639 0.45894 0.0
H613 H 0.7041 0.64031 0.4009 0.0
H614 H 0.70745 0.5761 0.48476 0.0
H615 H 0.65954 0.61974 0.42641 0.0
H616 H 0.59148 0.60403 0.49949 0.0
H617 H 0.63665 0.62371 0.47476 0.0
H618 H 0.66158 0.54189 0.47687 0.0
H619 H 0.61637 0.52209 0.50174 0.0
C620 C 0.73199 0.6017 0.45168 0.0
C621 C 0.73167 0.62 0.42784 0.0
C622 C 0.70641 0.5899 0.46634 0.0
C623 C 0.67991 0.59635 0.45773 0.0
C624 C 0.6796 0.61455 0.43382 0.0
C625 C 0.70511 0.62611 0.41899 0.0
C626 C 0.60662 0.59021 0.49487 0.0
C627 C 0.60019 0.56144 0.50266 0.0
C628 C 0.63246 0.60148 0.48047 0.0
C629 C 0.6527 0.58436 0.47368 0.0
C630 C 0.64656 0.55571 0.48195 0.0
C631 C 0.62057 0.54435 0.49613 0.0
H632 H 0.25894 0.39158 0.15356 0.0
H633 H 0.22716 0.3141 0.10726 0.0
H634 H 0.21918 0.41201 0.135 0.0
H635 H 0.18758 0.33457 0.08835 0.0
H636 H 0.10076 0.36371 0.10174 0.0
H637 H 0.14456 0.34566 0.11124 0.0
H638 H 0.19544 0.42824 0.09318 0.0
H639 H 0.15148 0.44658 0.08477 0.0
C640 C 0.24391 0.37923 0.13873 0.0
C641 C 0.24592 0.35117 0.1321 0.0
C642 C 0.2211 0.3909 0.12811 0.0
C643 C 0.19995 0.37474 0.11056 0.0
C644 C 0.20314 0.34733 0.10237 0.0
C645 C 0.22585 0.33566 0.11306 0.0
C646 C 0.12129 0.37802 0.09984 0.0
C647 C 0.12262 0.40659 0.09265 0.0
C648 C 0.14644 0.3676 0.1049 0.0
C649 C 0.17353 0.38551 0.10288 0.0
C650 C 0.17491 0.41396 0.0951 0.0
C651 C 0.14972 0.42438 0.09001 0.0
H652 H 0.64544 0.2302 0.94525 0.0
H653 H 0.56654 0.22624 0.89761 0.0
H654 H 0.62584 0.18547 0.96852 0.0
H655 H 0.54619 0.18201 0.92233 0.0
H656 H 0.52817 0.08856 0.9516 0.0
H657 H 0.5476 0.13277 0.92625 0.0
H658 H 0.59274 0.16487 1.00419 0.0
H659 H 0.57419 0.12064 1.02901 0.0
C660 C 0.62389 0.21982 0.9396 0.0
C661 C 0.60778 0.23205 0.91923 0.0
C662 C 0.61239 0.19418 0.9534 0.0
C663 C 0.58424 0.17988 0.94759 0.0
C664 C 0.56804 0.19209 0.92725 0.0
C665 C 0.57962 0.21777 0.9133 0.0
C666 C 0.54234 0.10502 0.96328 0.0
C667 C 0.5497 0.10078 0.99237 0.0
C668 C 0.55336 0.13055 0.94877 0.0
C669 C 0.57197 0.15263 0.96297 0.0
C670 C 0.57903 0.14834 0.99216 0.0
C671 C 0.56819 0.12286 1.00655 0.0
H672 H 0.89097 0.82211 0.45445 0.0
H673 H 0.95947 0.8393 0.39032 0.0
H674 H 0.9108 0.86583 0.47967 0.0
H675 H 0.97925 0.88326 0.41542 0.0
H676 H 0.02367 0.94439 0.48477 0.0
H677 H 1.00358 0.90129 0.45874 0.0
H678 H 0.91777 0.91622 0.47652 0.0
H679 H 0.93789 0.95906 0.5033 0.0
C680 C 0.91011 0.83538 0.4455 0.0
C681 C 0.92353 0.82709 0.42023 0.0
C682 C 0.9215 0.86056 0.45999 0.0
C683 C 0.94666 0.87831 0.44965 0.0
C684 C 0.9601 0.87002 0.42435 0.0
C685 C 0.94874 0.84476 0.4099 0.0
C686 C 1.0005 0.93859 0.48312 0.0
C687 C 0.98246 0.95534 0.49624 0.0
C688 C 0.98894 0.91385 0.46796 0.0
C689 C 0.95897 0.90509 0.46539 0.0
C690 C 0.94092 0.92198 0.47834 0.0
C691 C 0.9525 0.94673 0.49357 0.0
H692 H 0.30641 0.73225 0.64601 0.0
H693 H 0.25916 0.64644 0.64814 0.0
H694 H 0.34951 0.71552 0.6303 0.0
H695 H 0.30205 0.62948 0.63108 0.0
H696 H 0.39131 0.60657 0.63557 0.0
H697 H 0.34693 0.6229 0.64802 0.0
H698 H 0.37319 0.69608 0.59269 0.0
H699 H 0.41817 0.68018 0.58146 0.0
C700 C 0.30512 0.7098 0.64238 0.0
C701 C 0.27946 0.69062 0.64817 0.0
C702 C 0.32984 0.70016 0.6333 0.0
C703 C 0.32942 0.67109 0.62941 0.0
C704 C 0.3034 0.65196 0.63438 0.0
C705 C 0.27875 0.66162 0.64393 0.0
C706 C 0.38747 0.62613 0.62611 0.0
C707 C 0.40813 0.64222 0.60769 0.0
C708 C 0.36195 0.63541 0.63302 0.0
C709 C 0.35629 0.66081 0.62131 0.0
C710 C 0.37695 0.6767 0.60256 0.0
C711 C 0.4027 0.66761 0.59603 0.0
H712 H 0.77707 0.86609 0.76787 0.0
H713 H 0.74243 0.81403 0.69514 0.0
H714 H 0.81321 0.89323 0.73605 0.0
H715 H 0.77951 0.84107 0.66306 0.0
H716 H 0.82895 0.92425 0.61532 0.0
H717 H 0.79325 0.89047 0.64267 0.0
H718 H 0.85623 0.88599 0.70911 0.0
H719 H 0.89159 0.91983 0.68205 0.0
C720 C 0.77707 0.86055 0.74498 0.0
C721 C 0.7567 0.83812 0.73394 0.0
C722 C 0.79808 0.87585 0.72682 0.0
C723 C 0.79938 0.8691 0.69711 0.0
C724 C 0.77896 0.84675 0.68588 0.0
C725 C 0.75789 0.83123 0.70421 0.0
C726 C 0.83523 0.91556 0.63549 0.0
C727 C 0.86282 0.92496 0.64688 0.0
C728 C 0.81485 0.89623 0.6511 0.0
C729 C 0.82183 0.886 0.67826 0.0
C730 C 0.85004 0.89404 0.68858 0.0
C731 C 0.87027 0.91336 0.6731 0.0
H732 H 0.78256 0.24066 0.19277 0.0
H733 H 0.73379 0.1973 0.26471 0.0
H734 H 0.74716 0.21537 0.15858 0.0
H735 H 0.69881 0.17207 0.23091 0.0
H736 H 0.62963 0.14347 0.16724 0.0
H737 H 0.66156 0.17905 0.19539 0.0
H738 H 0.73411 0.16411 0.14366 0.0
H739 H 0.70207 0.129 0.11502 0.0
C740 C 0.76411 0.22599 0.20121 0.0
C741 C 0.76097 0.22061 0.23124 0.0
C742 C 0.74398 0.21149 0.18173 0.0
C743 C 0.72024 0.1918 0.19212 0.0
C744 C 0.71666 0.18736 0.22227 0.0
C745 C 0.73684 0.20154 0.24159 0.0
C746 C 0.65228 0.14828 0.16141 0.0
C747 C 0.66343 0.13323 0.13917 0.0
C748 C 0.67056 0.1685 0.17765 0.0
C749 C 0.70033 0.17413 0.17187 0.0
C750 C 0.71124 0.16031 0.1485 0.0
C751 C 0.69297 0.14 0.13234 0.0
H752 H 0.45422 0.61344 0.32283 0.0
H753 H 0.38386 0.62917 0.37735 0.0
H754 H 0.47418 0.59217 0.36398 0.0
H755 H 0.40293 0.60639 0.41808 0.0
H756 H 0.45975 0.58933 0.49403 0.0
H757 H 0.43945 0.61105 0.45321 0.0
H758 H 0.4689 0.55214 0.39422 0.0
H759 H 0.48996 0.53109 0.43494 0.0
C760 C 0.44292 0.61246 0.34356 0.0
C761 C 0.4173 0.62328 0.34643 0.0
C762 C 0.45422 0.59976 0.36723 0.0
C763 C 0.44027 0.59726 0.39468 0.0
C764 C 0.41464 0.60807 0.39756 0.0
C765 C 0.40339 0.62088 0.3739 0.0
C766 C 0.46182 0.5809 0.47237 0.0
C767 C 0.47662 0.55838 0.46796 0.0
C768 C 0.44999 0.59333 0.44883 0.0
C769 C 0.45244 0.58359 0.42006 0.0
C770 C 0.46692 0.56076 0.41579 0.0
C771 C 0.47886 0.54844 0.43931 0.0
H772 H 0.07932 0.40328 0.84846 0.0
H773 H 0.15226 0.47219 0.84506 0.0
H774 H 0.05958 0.42559 0.88962 0.0
H775 H 0.13305 0.49397 0.88713 0.0
H776 H 0.0745 0.53877 0.94547 0.0
H777 H 0.095 0.51808 0.90329 0.0
H778 H 0.06787 0.43477 0.94026 0.0
H779 H 0.04705 0.45524 0.98185 0.0
C780 C 0.09116 0.42325 0.85638 0.0
C781 C 0.11747 0.43583 0.84324 0.0
C782 C 0.07999 0.43592 0.88034 0.0
C783 C 0.09474 0.46159 0.892 0.0
C784 C 0.12092 0.47434 0.87871 0.0
C785 C 0.13214 0.46163 0.85473 0.0
C786 C 0.073 0.51605 0.94463 0.0
C787 C 0.05889 0.49875 0.96708 0.0
C788 C 0.08487 0.50415 0.92045 0.0
C789 C 0.08294 0.47464 0.91809 0.0
C790 C 0.0693 0.45749 0.94087 0.0
C791 C 0.05746 0.46933 0.96493 0.0
H792 H 0.60364 0.83787 0.97481 0.0
H793 H 0.58086 0.86202 0.88866 0.0
H794 H 0.5845 0.87735 0.99553 0.0
H795 H 0.56063 0.90061 0.90976 0.0
H796 H 0.50339 0.94961 0.96772 0.0
H797 H 0.51974 0.90873 0.94606 0.0
H798 H 0.6009 0.93183 0.99006 0.0
H799 H 0.5849 0.97275 1.01143 0.0
C800 C 0.59447 0.85142 0.96027 0.0
C801 C 0.59407 0.84676 0.92998 0.0
C802 C 0.58342 0.87396 0.97219 0.0
C803 C 0.57129 0.89207 0.95418 0.0
C804 C 0.5697 0.88681 0.92412 0.0
C805 C 0.58116 0.86454 0.91211 0.0
C806 C 0.52479 0.94607 0.97259 0.0
C807 C 0.54288 0.96446 0.99123 0.0
C808 C 0.53411 0.92271 0.96019 0.0
C809 C 0.56145 0.91707 0.96663 0.0
C810 C 0.57959 0.93555 0.98504 0.0
C811 C 0.57049 0.95911 0.99705 0.0
H812 H 0.94319 0.17082 0.37973 0.0
H813 H 0.94162 0.21871 0.45923 0.0
H814 H 0.96525 0.13623 0.40553 0.0
H815 H 0.9647 0.18467 0.48481 0.0
H816 H 0.96054 0.09771 0.52691 0.0
H817 H 0.94659 0.13619 0.50006 0.0
H818 H 1.00738 0.1263 0.43161 0.0
H819 H 0.02128 0.08715 0.45849 0.0
C820 C 0.94797 0.17417 0.40263 0.0
C821 C 0.94025 0.19726 0.41756 0.0
C822 C 0.96089 0.1545 0.41734 0.0
C823 C 0.96638 0.1575 0.4473 0.0
C824 C 0.96026 0.18152 0.46181 0.0
C825 C 0.94734 0.2012 0.4471 0.0
C826 C 0.97106 0.10365 0.50616 0.0
C827 C 0.99199 0.08919 0.49483 0.0
C828 C 0.96322 0.12598 0.49089 0.0
C829 C 0.97607 0.13453 0.46384 0.0
C830 C 0.997 0.12012 0.45237 0.0
C831 C 1.00495 0.0977 0.46776 0.0
H832 H 0.20087 0.63772 0.17654 0.0
H833 H 0.24838 0.59284 0.11781 0.0
H834 H 0.15647 0.6187 0.15083 0.0
H835 H 0.20401 0.57408 0.09188 0.0
H836 H 0.11266 0.5229 0.07296 0.0
H837 H 0.15733 0.54106 0.09859 0.0
H838 H 0.1343 0.62366 0.10292 0.0
H839 H 0.08966 0.60558 0.07735 0.0
C840 C 0.20184 0.62364 0.15827 0.0
C841 C 0.22829 0.61686 0.1493 0.0
C842 C 0.17639 0.61295 0.14332 0.0
C843 C 0.17659 0.59491 0.11915 0.0
C844 C 0.20297 0.58776 0.11047 0.0
C845 C 0.22847 0.59871 0.12522 0.0
C846 C 0.11714 0.54498 0.07923 0.0
C847 C 0.09745 0.56274 0.07297 0.0
C848 C 0.14286 0.55542 0.09387 0.0
C849 C 0.14945 0.58383 0.10298 0.0
C850 C 0.12981 0.6016 0.09659 0.0
C851 C 0.10426 0.59125 0.08168 0.0
H852 H 0.29122 0.46419 0.62803 0.0
H853 H 0.33339 0.39793 0.65986 0.0
H854 H 0.33504 0.48482 0.60148 0.0
H855 H 0.37642 0.41786 0.63184 0.0
H856 H 0.43685 0.44888 0.55195 0.0
H857 H 0.39155 0.42749 0.57633 0.0
H858 H 0.38748 0.5074 0.61733 0.0
H859 H 0.43281 0.52852 0.59379 0.0
C860 C 0.3097 0.45398 0.62958 0.0
C861 C 0.30843 0.42927 0.64639 0.0
C862 C 0.33476 0.46574 0.61407 0.0
C863 C 0.35907 0.45283 0.61443 0.0
C864 C 0.35785 0.42802 0.6308 0.0
C865 C 0.33302 0.41655 0.64679 0.0
C866 C 0.42617 0.46191 0.566 0.0
C867 C 0.4385 0.49044 0.57086 0.0
C868 C 0.40034 0.44963 0.58006 0.0
C869 C 0.38599 0.46581 0.5987 0.0
C870 C 0.39793 0.49447 0.60293 0.0
C871 C 0.42399 0.50654 0.58945 0.0
H872 H 0.80411 0.69217 0.86988 0.0
H873 H 0.7681 0.67904 0.95674 0.0
H874 H 0.84729 0.6762 0.88561 0.0
H875 H 0.81127 0.66244 0.97253 0.0
H876 H 0.90588 0.66666 0.99726 0.0
H877 H 0.86112 0.68029 0.98197 0.0
H878 H 0.86568 0.63582 0.90061 0.0
H879 H 0.91073 0.62284 0.91573 0.0
C880 C 0.8052 0.68532 0.89224 0.0
C881 C 0.78264 0.68674 0.91205 0.0
C882 C 0.83 0.67615 0.90129 0.0
C883 C 0.83282 0.668 0.93035 0.0
C884 C 0.81002 0.66898 0.95009 0.0
C885 C 0.78524 0.67836 0.94105 0.0
C886 C 0.89721 0.65977 0.97616 0.0
C887 C 0.91187 0.64388 0.95759 0.0
C888 C 0.87149 0.66743 0.96744 0.0
C889 C 0.85975 0.65917 0.94004 0.0
C890 C 0.87434 0.64299 0.92164 0.0
C891 C 0.90016 0.63554 0.93027 0.0
H892 H 0.39188 0.81626 0.12129 0.0
H893 H 0.45539 0.83494 0.18889 0.0
H894 H 0.41108 0.86133 0.09802 0.0
H895 H 0.47379 0.88067 0.16629 0.0
H896 H 0.52052 0.94571 0.10054 0.0
H897 H 0.50074 0.90144 0.12501 0.0
H898 H 0.41497 0.91139 0.10168 0.0
H899 H 0.43488 0.95547 0.07651 0.0
C900 C 0.40997 0.82993 0.13126 0.0
C901 C 0.42212 0.82161 0.15698 0.0
C902 C 0.42077 0.8561 0.11806 0.0
C903 C 0.4441 0.8749 0.13013 0.0
C904 C 0.45607 0.86673 0.15604 0.0
C905 C 0.44525 0.84053 0.16926 0.0
C906 C 0.49741 0.9386 0.10066 0.0
C907 C 0.47938 0.95437 0.08643 0.0
C908 C 0.486 0.91315 0.11493 0.0
C909 C 0.45615 0.90259 0.11549 0.0
C910 C 0.43808 0.9185 0.10147 0.0
C911 C 0.44951 0.94399 0.08715 0.0
H912 H 0.1477 0.22833 0.63779 0.0
H913 H 0.06768 0.22499 0.68518 0.0
H914 H 0.12828 0.18378 0.61438 0.0
H915 H 0.04755 0.18096 0.66031 0.0
H916 H 0.03023 0.08761 0.63122 0.0
H917 H 0.0494 0.13161 0.6567 0.0
H918 H 0.09534 0.16429 0.57842 0.0
H919 H 0.07704 0.12024 0.55342 0.0
C920 C 0.12594 0.21809 0.64336 0.0
C921 C 0.10942 0.23038 0.66366 0.0
C922 C 0.11459 0.19261 0.6295 0.0
C923 C 0.0862 0.17863 0.63521 0.0
C924 C 0.06959 0.19087 0.65551 0.0
C925 C 0.08103 0.21639 0.66953 0.0
C926 C 0.04451 0.10417 0.61949 0.0
C927 C 0.05221 0.1002 0.59029 0.0
C928 C 0.05536 0.12953 0.63407 0.0
C929 C 0.0741 0.15164 0.61976 0.0
C930 C 0.08149 0.14766 0.59045 0.0
C931 C 0.07082 0.12232 0.57599 0.0
H932 H 0.73313 0.35534 0.38021 0.0
H933 H 0.76876 0.36384 0.46671 0.0
H934 H 0.69001 0.37097 0.39811 0.0
H935 H 0.72521 0.37955 0.48475 0.0
H936 H 0.65533 0.43879 0.49009 0.0
H937 H 0.69932 0.42195 0.47667 0.0
H938 H 0.64892 0.3505 0.43265 0.0
H939 H 0.60485 0.36666 0.44676 0.0
C940 C 0.73187 0.36089 0.40302 0.0
C941 C 0.7544 0.35859 0.42204 0.0
C942 C 0.70703 0.36951 0.41331 0.0
C943 C 0.70421 0.37627 0.44284 0.0
C944 C 0.7269 0.3745 0.46186 0.0
C945 C 0.75171 0.36546 0.4516 0.0
C946 C 0.65352 0.41915 0.47811 0.0
C947 C 0.62646 0.40421 0.46933 0.0
C948 C 0.67876 0.40959 0.47036 0.0
C949 C 0.6775 0.3851 0.45341 0.0
C950 C 0.65051 0.36972 0.44534 0.0
C951 C 0.62528 0.37907 0.45334 0.0
loop_
_geom_bond_atom_site_label_1
_geom_bond_atom_site_label_2
_geom_bond_distance
_geom_bond_site_symmetry_2
_ccdc_geom_bond_type
C0 C1 1.386 . S
C0 C2 1.397 . S
C0 H24 0.931 . S
C1 C0 1.386 . S
C1 C5 1.397 . S
C2 C0 1.397 . S
C2 C3 1.384 . S
C2 H25 0.930 . S
C3 C2 1.384 . S
C3 C4 1.377 . S
C3 C6 1.481 . S
C4 C3 1.377 . S
C4 C5 1.389 . S
C4 H26 0.929 . S
C5 C1 1.397 . S
C5 C4 1.389 . S
C5 H27 0.931 . S
C6 C3 1.481 . S
C6 C7 1.387 . S
C6 C11 1.390 . S
C7 C6 1.387 . S
C7 C8 1.401 . S
C7 H28 0.930 . S
C8 C7 1.401 . S
C8 C9 1.376 . S
C8 C17 1.511 . S
C9 C8 1.376 . S
C9 C10 1.392 . S
C9 H30 0.931 . S
C10 C9 1.392 . S
C10 C11 1.361 . S
C10 C12 1.500 . S
C11 C6 1.390 . S
C11 C10 1.361 . S
C11 H29 0.931 . S
C12 C10 1.500 . S
C12 C13 1.371 . S
C12 C14 1.365 . S
C13 C12 1.371 . S
C13 C23 1.386 . S
C13 H31 0.931 . S
C14 C12 1.365 . S
C14 C15 1.409 . S
C14 H32 0.929 . S
C15 C14 1.409 . S
C15 C16 1.380 . S
C15 H33 0.930 . S
C16 C15 1.380 . S
C16 C23 1.357 . S
C17 C8 1.511 . S
C17 C18 1.341 . S
C17 C19 1.371 . S
C18 C17 1.341 . S
C18 C22 1.394 . S
C18 H34 0.930 . S
C19 C17 1.371 . S
C19 C20 1.392 . S
C19 H35 0.931 . S
C20 C19 1.392 . S
C20 C21 1.331 . S
C20 H38 0.932 . S
C21 C20 1.331 . S
C21 C22 1.336 . S
C22 C18 1.394 . S
C22 C21 1.336 . S
C22 H37 0.929 . S
C23 C13 1.386 . S
C23 C16 1.357 . S
C23 H36 0.928 . S
H24 C0 0.931 . S
H25 C2 0.930 . S
H26 C4 0.929 . S
H27 C5 0.931 . S
H28 C7 0.930 . S
H29 C11 0.931 . S
H30 C9 0.931 . S
H31 C13 0.931 . S
H32 C14 0.929 . S
H33 C15 0.930 . S
H34 C18 0.930 . S
H35 C19 0.931 . S
H36 C23 0.928 . S
H37 C22 0.929 . S
H38 C20 0.932 . S
C39 C40 1.386 . S
C39 C41 1.397 . S
C39 H63 0.931 . S
C40 C39 1.386 . S
C40 C44 1.397 . S
C41 C39 1.397 . S
C41 C42 1.384 . S
C41 H64 0.930 . S
C42 C41 1.384 . S
C42 C43 1.377 . S
C42 C45 1.481 . S
C43 C42 1.377 . S
C43 C44 1.389 . S
C43 H65 0.929 . S
C44 C40 1.397 . S
C44 C43 1.389 . S
C44 H66 0.931 . S
C45 C42 1.481 . S
C45 C46 1.387 . S
C45 C50 1.390 . S
C46 C45 1.387 . S
C46 C47 1.401 . S
C46 H67 0.930 . S
C47 C46 1.401 . S
C47 C48 1.376 . S
C47 C56 1.511 . S
C48 C47 1.376 . S
C48 C49 1.392 . S
C48 H69 0.931 . S
C49 C48 1.392 . S
C49 C50 1.361 . S
C49 C51 1.500 . S
C50 C45 1.390 . S
C50 C49 1.361 . S
C50 H68 0.931 . S
C51 C49 1.500 . S
C51 C52 1.371 . S
C51 C53 1.365 . S
C52 C51 1.371 . S
C52 C62 1.386 . S
C52 H70 0.931 . S
C53 C51 1.365 . S
C53 C54 1.409 . S
C53 H71 0.929 . S
C54 C53 1.409 . S
C54 C55 1.380 . S
C54 H72 0.930 . S
C55 C54 1.380 . S
C55 C62 1.357 . S
C56 C47 1.511 . S
C56 C57 1.341 . S
C56 C58 1.371 . S
C57 C56 1.341 . S
C57 C61 1.394 . S
C57 H73 0.930 . S
C58 C56 1.371 . S
C58 C59 1.392 . S
C58 H74 0.931 . S
C59 C58 1.392 . S
C59 C60 1.331 . S
C59 H77 0.932 . S
C60 C59 1.331 . S
C60 C61 1.336 . S
C61 C57 1.394 . S
C61 C60 1.336 . S
C61 H76 0.929 . S
C62 C52 1.386 . S
C62 C55 1.357 . S
C62 H75 0.928 . S
H63 C39 0.931 . S
H64 C41 0.930 . S
H65 C43 0.929 . S
H66 C44 0.931 . S
H67 C46 0.930 . S
H68 C50 0.931 . S
H69 C48 0.931 . S
H70 C52 0.931 . S
H71 C53 0.929 . S
H72 C54 0.930 . S
H73 C57 0.930 . S
H74 C58 0.931 . S
H75 C62 0.928 . S
H76 C61 0.929 . S
H77 C59 0.932 . S
C78 C79 1.386 . S
C78 C80 1.397 . S
C78 H102 0.931 . S
C79 C78 1.386 . S
C79 C83 1.397 . S
C80 C78 1.397 . S
C80 C81 1.384 . S
C80 H103 0.930 . S
C81 C80 1.384 . S
C81 C82 1.377 . S
C81 C84 1.481 . S
C82 C81 1.377 . S
C82 C83 1.389 . S
C82 H104 0.929 . S
C83 C79 1.397 . S
C83 C82 1.389 . S
C83 H105 0.931 . S
C84 C81 1.481 . S
C84 C85 1.387 . S
C84 C89 1.390 . S
C85 C84 1.387 . S
C85 C86 1.401 . S
C85 H106 0.930 . S
C86 C85 1.401 . S
C86 C87 1.376 . S
C86 C95 1.511 . S
C87 C86 1.376 . S
C87 C88 1.392 . S
C87 H108 0.931 . S
C88 C87 1.392 . S
C88 C89 1.361 . S
C88 C90 1.500 . S
C89 C84 1.390 . S
C89 C88 1.361 . S
C89 H107 0.931 . S
C90 C88 1.500 . S
C90 C91 1.371 . S
C90 C92 1.365 . S
C91 C90 1.371 . S
C91 C101 1.386 . S
C91 H109 0.931 . S
C92 C90 1.365 . S
C92 C93 1.409 . S
C92 H110 0.929 . S
C93 C92 1.409 . S
C93 C94 1.380 . S
C93 H111 0.930 . S
C94 C93 1.380 . S
C94 C101 1.357 . S
C95 C86 1.511 . S
C95 C96 1.341 . S
C95 C97 1.371 . S
C96 C95 1.341 . S
C96 C100 1.394 . S
C96 H112 0.930 . S
C97 C95 1.371 . S
C97 C98 1.392 . S
C97 H113 0.931 . S
C98 C97 1.392 . S
C98 C99 1.331 . S
C98 H116 0.932 . S
C99 C98 1.331 . S
C99 C100 1.336 . S
C100 C96 1.394 . S
C100 C99 1.336 . S
C100 H115 0.929 . S
C101 C91 1.386 . S
C101 C94 1.357 . S
C101 H114 0.928 . S
H102 C78 0.931 . S
H103 C80 0.930 . S
H104 C82 0.929 . S
H105 C83 0.931 . S
H106 C85 0.930 . S
H107 C89 0.931 . S
H108 C87 0.931 . S
H109 C91 0.931 . S
H110 C92 0.929 . S
H111 C93 0.930 . S
H112 C96 0.930 . S
H113 C97 0.931 . S
H114 C101 0.928 . S
H115 C100 0.929 . S
H116 C98 0.932 . S
C117 C118 1.386 . S
C117 C119 1.397 . S
C117 H141 0.931 . S
C118 C117 1.386 . S
C118 C122 1.397 . S
C119 C117 1.397 . S
C119 C120 1.384 . S
C119 H142 0.930 . S
C120 C119 1.384 . S
C120 C121 1.377 . S
C120 C123 1.481 . S
C121 C120 1.377 . S
C121 C122 1.389 . S
C121 H143 0.929 . S
C122 C118 1.397 . S
C122 C121 1.389 . S
C122 H144 0.931 . S
C123 C120 1.481 . S
C123 C124 1.387 . S
C123 C128 1.390 . S
C124 C123 1.387 . S
C124 C125 1.401 . S
C124 H145 0.930 . S
C125 C124 1.401 . S
C125 C126 1.376 . S
C125 C134 1.511 . S
C126 C125 1.376 . S
C126 C127 1.392 . S
C126 H147 0.931 . S
C127 C126 1.392 . S
C127 C128 1.361 . S
C127 C129 1.500 . S
C128 C123 1.390 . S
C128 C127 1.361 . S
C128 H146 0.931 . S
C129 C127 1.500 . S
C129 C130 1.371 . S
C129 C131 1.365 . S
C130 C129 1.371 . S
C130 C140 1.386 . S
C130 H148 0.931 . S
C131 C129 1.365 . S
C131 C132 1.409 . S
C131 H149 0.929 . S
C132 C131 1.409 . S
C132 C133 1.380 . S
C132 H150 0.930 . S
C133 C132 1.380 . S
C133 C140 1.357 . S
C134 C125 1.511 . S
C134 C135 1.341 . S
C134 C136 1.371 . S
C135 C134 1.341 . S
C135 C139 1.394 . S
C135 H151 0.930 . S
C136 C134 1.371 . S
C136 C137 1.392 . S
C136 H152 0.931 . S
C137 C136 1.392 . S
C137 C138 1.331 . S
C137 H155 0.932 . S
C138 C137 1.331 . S
C138 C139 1.336 . S
C139 C135 1.394 . S
C139 C138 1.336 . S
C139 H154 0.929 . S
C140 C130 1.386 . S
C140 C133 1.357 . S
C140 H153 0.928 . S
H141 C117 0.931 . S
H142 C119 0.930 . S
H143 C121 0.929 . S
H144 C122 0.931 . S
H145 C124 0.930 . S
H146 C128 0.931 . S
H147 C126 0.931 . S
H148 C130 0.931 . S
H149 C131 0.929 . S
H150 C132 0.930 . S
H151 C135 0.930 . S
H152 C136 0.931 . S
H153 C140 0.928 . S
H154 C139 0.929 . S
H155 C137 0.932 . S
C156 C157 1.386 . S
C156 C158 1.397 . S
C156 H180 0.931 . S
C157 C156 1.386 . S
C157 C161 1.397 . S
C158 C156 1.397 . S
C158 C159 1.384 . S
C158 H181 0.930 . S
C159 C158 1.384 . S
C159 C160 1.377 . S
C159 C162 1.481 . S
C160 C159 1.377 . S
C160 C161 1.389 . S
C160 H182 0.929 . S
C161 C157 1.397 . S
C161 C160 1.389 . S
C161 H183 0.931 . S
C162 C159 1.481 . S
C162 C163 1.387 . S
C162 C167 1.390 . S
C163 C162 1.387 . S
C163 C164 1.401 . S
C163 H184 0.930 . S
C164 C163 1.401 . S
C164 C165 1.376 . S
C164 C173 1.511 . S
C165 C164 1.376 . S
C165 C166 1.392 . S
C165 H186 0.931 . S
C166 C165 1.392 . S
C166 C167 1.361 . S
C166 C168 1.500 . S
C167 C162 1.390 . S
C167 C166 1.361 . S
C167 H185 0.931 . S
C168 C166 1.500 . S
C168 C169 1.371 . S
C168 C170 1.365 . S
C169 C168 1.371 . S
C169 C179 1.386 . S
C169 H187 0.931 . S
C170 C168 1.365 . S
C170 C171 1.409 . S
C170 H188 0.929 . S
C171 C170 1.409 . S
C171 C172 1.380 . S
C171 H189 0.930 . S
C172 C171 1.380 . S
C172 C179 1.357 . S
C173 C164 1.511 . S
C173 C174 1.341 . S
C173 C175 1.371 . S
C174 C173 1.341 . S
C174 C178 1.394 . S
C174 H190 0.930 . S
C175 C173 1.371 . S
C175 C176 1.392 . S
C175 H191 0.931 . S
C176 C175 1.392 . S
C176 C177 1.331 . S
C176 H194 0.932 . S
C177 C176 1.331 . S
C177 C178 1.336 . S
C178 C174 1.394 . S
C178 C177 1.336 . S
C178 H193 0.929 . S
C179 C169 1.386 . S
C179 C172 1.357 . S
C179 H192 0.928 . S
H180 C156 0.931 . S
H181 C158 0.930 . S
H182 C160 0.929 . S
H183 C161 0.931 . S
H184 C163 0.930 . S
H185 C167 0.931 . S
H186 C165 0.931 . S
H187 C169 0.931 . S
H188 C170 0.929 . S
H189 C171 0.930 . S
H190 C174 0.930 . S
H191 C175 0.931 . S
H192 C179 0.928 . S
H193 C178 0.929 . S
H194 C176 0.932 . S
C195 C196 1.386 . S
C195 C197 1.397 . S
C195 H219 0.931 . S
C196 C195 1.386 . S
C196 C200 1.397 . S
C197 C195 1.397 . S
C197 C198 1.384 . S
C197 H220 0.930 . S
C198 C197 1.384 . S
C198 C199 1.377 . S
C198 C201 1.481 . S
C199 C198 1.377 . S
C199 C200 1.389 . S
C199 H221 0.929 . S
C200 C196 1.397 . S
C200 C199 1.389 . S
C200 H222 0.931 . S
C201 C198 1.481 . S
C201 C202 1.387 . S
C201 C206 1.390 . S
C202 C201 1.387 . S
C202 C203 1.401 . S
C202 H223 0.930 . S
C203 C202 1.401 . S
C203 C204 1.376 . S
C203 C212 1.511 . S
C204 C203 1.376 . S
C204 C205 1.392 . S
C204 H225 0.931 . S
C205 C204 1.392 . S
C205 C206 1.361 . S
C205 C207 1.500 . S
C206 C201 1.390 . S
C206 C205 1.361 . S
C206 H224 0.931 . S
C207 C205 1.500 . S
C207 C208 1.371 . S
C207 C209 1.365 . S
C208 C207 1.371 . S
C208 C218 1.386 . S
C208 H226 0.931 . S
C209 C207 1.365 . S
C209 C210 1.409 . S
C209 H227 0.929 . S
C210 C209 1.409 . S
C210 C211 1.380 . S
C210 H228 0.930 . S
C211 C210 1.380 . S
C211 C218 1.357 . S
C212 C203 1.511 . S
C212 C213 1.341 . S
C212 C214 1.371 . S
C213 C212 1.341 . S
C213 C217 1.394 . S
C213 H229 0.930 . S
C214 C212 1.371 . S
C214 C215 1.392 . S
C214 H230 0.931 . S
C215 C214 1.392 . S
C215 C216 1.331 . S
C215 H233 0.932 . S
C216 C215 1.331 . S
C216 C217 1.336 . S
C217 C213 1.394 . S
C217 C216 1.336 . S
C217 H232 0.929 . S
C218 C208 1.386 . S
C218 C211 1.357 . S
C218 H231 0.928 . S
H219 C195 0.931 . S
H220 C197 0.930 . S
H221 C199 0.929 . S
H222 C200 0.931 . S
H223 C202 0.930 . S
H224 C206 0.931 . S
H225 C204 0.931 . S
H226 C208 0.931 . S
H227 C209 0.929 . S
H228 C210 0.930 . S
H229 C213 0.930 . S
H230 C214 0.931 . S
H231 C218 0.928 . S
H232 C217 0.929 . S
H233 C215 0.932 . S
C234 C235 1.386 . S
C234 C236 1.397 . S
C234 H258 0.931 . S
C235 C234 1.386 . S
C235 C239 1.397 . S
C236 C234 1.397 . S
C236 C237 1.384 . S
C236 H259 0.930 . S
C237 C236 1.384 . S
C237 C238 1.377 . S
C237 C240 1.481 . S
C238 C237 1.377 . S
C238 C239 1.389 . S
C238 H260 0.929 . S
C239 C235 1.397 . S
C239 C238 1.389 . S
C239 H261 0.931 . S
C240 C237 1.481 . S
C240 C241 1.387 . S
C240 C245 1.390 . S
C241 C240 1.387 . S
C241 C242 1.401 . S
C241 H262 0.930 . S
C242 C241 1.401 . S
C242 C243 1.376 . S
C242 C251 1.511 . S
C243 C242 1.376 . S
C243 C244 1.392 . S
C243 H264 0.931 . S
C244 C243 1.392 . S
C244 C245 1.361 . S
C244 C246 1.500 . S
C245 C240 1.390 . S
C245 C244 1.361 . S
C245 H263 0.931 . S
C246 C244 1.500 . S
C246 C247 1.371 . S
C246 C248 1.365 . S
C247 C246 1.371 . S
C247 C257 1.386 . S
C247 H265 0.931 . S
C248 C246 1.365 . S
C248 C249 1.409 . S
C248 H266 0.929 . S
C249 C248 1.409 . S
C249 C250 1.380 . S
C249 H267 0.930 . S
C250 C249 1.380 . S
C250 C257 1.357 . S
C251 C242 1.511 . S
C251 C252 1.341 . S
C251 C253 1.371 . S
C252 C251 1.341 . S
C252 C256 1.394 . S
C252 H268 0.930 . S
C253 C251 1.371 . S
C253 C254 1.392 . S
C253 H269 0.931 . S
C254 C253 1.392 . S
C254 C255 1.331 . S
C254 H272 0.932 . S
C255 C254 1.331 . S
C255 C256 1.336 . S
C256 C252 1.394 . S
C256 C255 1.336 . S
C256 H271 0.929 . S
C257 C247 1.386 . S
C257 C250 1.357 . S
C257 H270 0.928 . S
H258 C234 0.931 . S
H259 C236 0.930 . S
H260 C238 0.929 . S
H261 C239 0.931 . S
H262 C241 0.930 . S
H263 C245 0.931 . S
H264 C243 0.931 . S
H265 C247 0.931 . S
H266 C248 0.929 . S
H267 C249 0.930 . S
H268 C252 0.930 . S
H269 C253 0.931 . S
H270 C257 0.928 . S
H271 C256 0.929 . S
H272 C254 0.932 . S
C273 C274 1.386 . S
C273 C275 1.397 . S
C273 H297 0.931 . S
C274 C273 1.386 . S
C274 C278 1.397 . S
C275 C273 1.397 . S
C275 C276 1.384 . S
C275 H298 0.930 . S
C276 C275 1.384 . S
C276 C277 1.377 . S
C276 C279 1.481 . S
C277 C276 1.377 . S
C277 C278 1.389 . S
C277 H299 0.929 . S
C278 C274 1.397 . S
C278 C277 1.389 . S
C278 H300 0.931 . S
C279 C276 1.481 . S
C279 C280 1.387 . S
C279 C284 1.390 . S
C280 C279 1.387 . S
C280 C281 1.401 . S
C280 H301 0.930 . S
C281 C280 1.401 . S
C281 C282 1.376 . S
C281 C290 1.511 . S
C282 C281 1.376 . S
C282 C283 1.392 . S
C282 H303 0.931 . S
C283 C282 1.392 . S
C283 C284 1.361 . S
C283 C285 1.500 . S
C284 C279 1.390 . S
C284 C283 1.361 . S
C284 H302 0.931 . S
C285 C283 1.500 . S
C285 C286 1.371 . S
C285 C287 1.365 . S
C286 C285 1.371 . S
C286 C296 1.386 . S
C286 H304 0.931 . S
C287 C285 1.365 . S
C287 C288 1.409 . S
C287 H305 0.929 . S
C288 C287 1.409 . S
C288 C289 1.380 . S
C288 H306 0.930 . S
C289 C288 1.380 . S
C289 C296 1.357 . S
C290 C281 1.511 . S
C290 C291 1.341 . S
C290 C292 1.371 . S
C291 C290 1.341 . S
C291 C295 1.394 . S
C291 H307 0.930 . S
C292 C290 1.371 . S
C292 C293 1.392 . S
C292 H308 0.931 . S
C293 C292 1.392 . S
C293 C294 1.331 . S
C293 H311 0.932 . S
C294 C293 1.331 . S
C294 C295 1.336 . S
C295 C291 1.394 . S
C295 C294 1.336 . S
C295 H310 0.929 . S
C296 C286 1.386 . S
C296 C289 1.357 . S
C296 H309 0.928 . S
H297 C273 0.931 . S
H298 C275 0.930 . S
H299 C277 0.929 . S
H300 C278 0.931 . S
H301 C280 0.930 . S
H302 C284 0.931 . S
H303 C282 0.931 . S
H304 C286 0.931 . S
H305 C287 0.929 . S
H306 C288 0.930 . S
H307 C291 0.930 . S
H308 C292 0.931 . S
H309 C296 0.928 . S
H310 C295 0.929 . S
H311 C293 0.932 . S
Tb312 C321 2.764 . S
Tb312 O322 2.325 1_455 S
Tb312 O325 2.303 . S
Tb312 O329 2.322 1_545 S
Tb312 O330 2.349 1_545 S
Tb312 O333 2.415 . S
Tb312 O334 2.399 . S
Tb313 O323 2.345 . S
Tb313 O324 2.377 . S
Tb313 O326 2.386 1_545 S
Tb313 O327 2.396 1_545 S
Tb313 O328 2.306 1_645 S
Tb313 O331 2.282 1_545 S
Tb313 C342 2.746 1_545 S
C314 O330 1.261 1_655 S
C314 O331 1.257 . S
C315 C318 1.358 . S
C315 C319 1.332 . S
C315 C321 1.504 . S
C316 C317 1.373 . S
C316 C320 1.308 . S
C317 C316 1.373 . S
C317 C318 1.429 . S
C317 H344 0.932 . S
C318 C315 1.358 . S
C318 C317 1.429 . S
C318 H345 0.930 . S
C319 C315 1.332 . S
C319 C320 1.394 . S
C319 H346 0.932 . S
C320 C316 1.308 . S
C320 C319 1.394 . S
C320 H347 0.929 . S
C321 Tb312 2.764 . S
C321 C315 1.504 . S
C321 O333 1.239 . S
C321 O334 1.263 . S
O322 Tb312 2.325 1_655 S
O322 C332 1.236 . S
O323 Tb313 2.345 . S
O323 C332 1.257 . S
O324 Tb313 2.377 . S
O324 C335 1.261 1_655 S
O325 Tb312 2.303 . S
O325 C335 1.257 . S
O326 Tb313 2.386 1_565 S
O326 C342 1.239 . S
O327 Tb313 2.396 1_565 S
O327 C342 1.263 . S
O328 Tb313 2.306 1_465 S
O328 C343 1.236 . S
O329 Tb312 2.322 1_565 S
O329 C343 1.257 . S
O330 Tb312 2.349 1_565 S
O330 C314 1.261 1_455 S
O331 Tb313 2.282 1_565 S
O331 C314 1.257 . S
C332 O322 1.236 . S
C332 O323 1.257 . S
O333 Tb312 2.415 . S
O333 C321 1.239 . S
O334 Tb312 2.399 . S
O334 C321 1.263 . S
C335 O324 1.261 1_455 S
C335 O325 1.257 . S
C336 C339 1.358 . S
C336 C340 1.332 . S
C336 C342 1.504 . S
C337 C338 1.373 . S
C337 C341 1.308 . S
C338 C337 1.373 . S
C338 C339 1.429 . S
C338 H348 0.932 . S
C339 C336 1.358 . S
C339 C338 1.429 . S
C339 H349 0.930 . S
C340 C336 1.332 . S
C340 C341 1.394 . S
C340 H350 0.932 . S
C341 C337 1.308 . S
C341 C340 1.394 . S
C341 H351 0.929 . S
C342 Tb313 2.746 1_565 S
C342 O326 1.239 . S
C342 O327 1.263 . S
C342 C336 1.504 . S
C343 O328 1.236 . S
C343 O329 1.257 . S
H344 C317 0.932 . S
H345 C318 0.930 . S
H346 C319 0.932 . S
H347 C320 0.929 . S
H348 C338 0.932 . S
H349 C339 0.930 . S
H350 C340 0.932 . S
H351 C341 0.929 . S
Tb352 C361 2.764 . S
Tb352 O362 2.325 1_554 S
Tb352 O365 2.303 . S
Tb352 O369 2.322 1_545 S
Tb352 O370 2.337 1_544 S
Tb352 O373 2.415 . S
Tb352 O374 2.399 . S
Tb353 O363 2.288 1_565 S
Tb353 O364 2.324 1_566 S
Tb353 O366 2.451 . S
Tb353 O367 2.411 . S
Tb353 O368 2.356 1_556 S
Tb353 O371 2.323 . S
Tb353 C382 2.791 . S
C354 O370 1.278 . S
C354 O371 1.257 . S
C355 C358 1.358 . S
C355 C359 1.332 . S
C355 C361 1.504 . S
C356 C357 1.373 . S
C356 C360 1.308 . S
C357 C356 1.373 . S
C357 C358 1.429 . S
C357 H384 0.932 . S
C358 C355 1.358 . S
C358 C357 1.429 . S
C358 H385 0.930 . S
C359 C355 1.332 . S
C359 C360 1.394 . S
C359 H386 0.932 . S
C360 C356 1.308 . S
C360 C359 1.394 . S
C360 H387 0.929 . S
C361 Tb352 2.764 . S
C361 C355 1.504 . S
C361 O373 1.239 . S
C361 O374 1.263 . S
O362 Tb352 2.325 1_556 S
O362 C372 1.236 . S
O363 Tb353 2.288 1_545 S
O363 C372 1.257 . S
O364 Tb353 2.324 1_544 S
O364 C375 1.261 . S
O365 Tb352 2.303 . S
O365 C375 1.257 . S
O366 Tb353 2.451 . S
O366 C382 1.239 . S
O367 Tb353 2.411 . S
O367 C382 1.263 . S
O368 Tb353 2.356 1_554 S
O368 C383 1.236 . S
O369 Tb352 2.322 1_565 S
O369 C383 1.257 . S
O370 Tb352 2.337 1_566 S
O370 C354 1.278 . S
O371 Tb353 2.323 . S
O371 C354 1.257 . S
C372 O362 1.236 . S
C372 O363 1.257 . S
O373 Tb352 2.415 . S
O373 C361 1.239 . S
O374 Tb352 2.399 . S
O374 C361 1.263 . S
C375 O364 1.261 . S
C375 O365 1.257 . S
C376 C379 1.358 . S
C376 C380 1.332 . S
C376 C382 1.504 . S
C377 C378 1.373 . S
C377 C381 1.308 . S
C378 C377 1.373 . S
C378 C379 1.429 . S
C378 H388 0.932 . S
C379 C376 1.358 . S
C379 C378 1.429 . S
C379 H389 0.930 . S
C380 C376 1.332 . S
C380 C381 1.394 . S
C380 H390 0.932 . S
C381 C377 1.308 . S
C381 C380 1.394 . S
C381 H391 0.929 . S
C382 Tb353 2.791 . S
C382 O366 1.239 . S
C382 O367 1.263 . S
C382 C376 1.504 . S
C383 O368 1.236 . S
C383 O369 1.257 . S
H384 C357 0.932 . S
H385 C358 0.930 . S
H386 C359 0.932 . S
H387 C360 0.929 . S
H388 C378 0.932 . S
H389 C379 0.930 . S
H390 C380 0.932 . S
H391 C381 0.929 . S
Tb392 C401 2.764 . S
Tb392 O402 2.325 . S
Tb392 O405 2.303 . S
Tb392 O409 2.322 . S
Tb392 O410 2.349 . S
Tb392 O413 2.415 . S
Tb392 O414 2.399 . S
Tb393 O403 2.322 . S
Tb393 O404 2.349 . S
Tb393 O406 2.415 . S
Tb393 O407 2.399 . S
Tb393 O408 2.325 . S
Tb393 O411 2.303 . S
Tb393 C422 2.764 . S
C394 O410 1.261 . S
C394 O411 1.257 . S
C395 C398 1.358 . S
C395 C399 1.332 . S
C395 C401 1.504 . S
C396 C397 1.373 . S
C396 C400 1.308 . S
C397 C396 1.373 . S
C397 C398 1.429 . S
C397 H424 0.932 . S
C398 C395 1.358 . S
C398 C397 1.429 . S
C398 H425 0.930 . S
C399 C395 1.332 . S
C399 C400 1.394 . S
C399 H426 0.932 . S
C400 C396 1.308 . S
C400 C399 1.394 . S
C400 H427 0.929 . S
C401 Tb392 2.764 . S
C401 C395 1.504 . S
C401 O413 1.239 . S
C401 O414 1.263 . S
O402 Tb392 2.325 . S
O402 C412 1.236 . S
O403 Tb393 2.322 . S
O403 C412 1.257 . S
O404 Tb393 2.349 . S
O404 C415 1.261 . S
O405 Tb392 2.303 . S
O405 C415 1.257 . S
O406 Tb393 2.415 . S
O406 C422 1.239 . S
O407 Tb393 2.399 . S
O407 C422 1.263 . S
O408 Tb393 2.325 . S
O408 C423 1.236 . S
O409 Tb392 2.322 . S
O409 C423 1.257 . S
O410 Tb392 2.349 . S
O410 C394 1.261 . S
O411 Tb393 2.303 . S
O411 C394 1.257 . S
C412 O402 1.236 . S
C412 O403 1.257 . S
O413 Tb392 2.415 . S
O413 C401 1.239 . S
O414 Tb392 2.399 . S
O414 C401 1.263 . S
C415 O404 1.261 . S
C415 O405 1.257 . S
C416 C419 1.358 . S
C416 C420 1.332 . S
C416 C422 1.504 . S
C417 C418 1.373 . S
C417 C421 1.308 . S
C418 C417 1.373 . S
C418 C419 1.429 . S
C418 H428 0.932 . S
C419 C416 1.358 . S
C419 C418 1.429 . S
C419 H429 0.930 . S
C420 C416 1.332 . S
C420 C421 1.394 . S
C420 H430 0.932 . S
C421 C417 1.308 . S
C421 C420 1.394 . S
C421 H431 0.929 . S
C422 Tb393 2.764 . S
C422 O406 1.239 . S
C422 O407 1.263 . S
C422 C416 1.504 . S
C423 O408 1.236 . S
C423 O409 1.257 . S
H424 C397 0.932 . S
H425 C398 0.930 . S
H426 C399 0.932 . S
H427 C400 0.929 . S
H428 C418 0.932 . S
H429 C419 0.930 . S
H430 C420 0.932 . S
H431 C421 0.929 . S
Tb432 C441 2.764 . S
Tb432 O442 2.325 . S
Tb432 O445 2.303 1_556 S
Tb432 O449 2.320 1_655 S
Tb432 O450 2.349 1_655 S
Tb432 O453 2.415 . S
Tb432 O454 2.399 . S
Tb433 O443 2.322 1_455 S
Tb433 O444 2.349 1_455 S
Tb433 O446 2.415 . S
Tb433 O447 2.399 . S
Tb433 O448 2.325 . S
Tb433 O451 2.303 1_554 S
Tb433 C462 2.764 . S
C434 O450 1.261 . S
C434 O451 1.257 . S
C435 C438 1.358 . S
C435 C439 1.332 . S
C435 C441 1.504 . S
C436 C437 1.373 . S
C436 C440 1.308 . S
C437 C436 1.373 . S
C437 C438 1.429 . S
C437 H464 0.932 . S
C438 C435 1.358 . S
C438 C437 1.429 . S
C438 H465 0.930 . S
C439 C435 1.332 . S
C439 C440 1.394 . S
C439 H466 0.932 . S
C440 C436 1.308 . S
C440 C439 1.394 . S
C440 H467 0.929 . S
C441 Tb432 2.764 . S
C441 C435 1.504 . S
C441 O453 1.239 . S
C441 O454 1.263 . S
O442 Tb432 2.325 . S
O442 C452 1.236 . S
O443 Tb433 2.322 1_655 S
O443 C452 1.257 1_554 S
O444 Tb433 2.349 1_655 S
O444 C455 1.261 . S
O445 Tb432 2.303 1_554 S
O445 C455 1.257 . S
O446 Tb433 2.415 . S
O446 C462 1.239 . S
O447 Tb433 2.399 . S
O447 C462 1.263 . S
O448 Tb433 2.325 . S
O448 C463 1.236 . S
O449 Tb432 2.320 1_455 S
O449 C463 1.260 1_556 S
O450 Tb432 2.349 1_455 S
O450 C434 1.261 . S
O451 Tb433 2.303 1_556 S
O451 C434 1.257 . S
C452 O442 1.236 . S
C452 O443 1.257 1_556 S
O453 Tb432 2.415 . S
O453 C441 1.239 . S
O454 Tb432 2.399 . S
O454 C441 1.263 . S
C455 O444 1.261 . S
C455 O445 1.257 . S
C456 C459 1.358 . S
C456 C460 1.332 . S
C456 C462 1.504 . S
C457 C458 1.373 . S
C457 C461 1.308 . S
C458 C457 1.373 . S
C458 C459 1.429 . S
C458 H468 0.932 . S
C459 C456 1.358 . S
C459 C458 1.429 . S
C459 H469 0.930 . S
C460 C456 1.332 . S
C460 C461 1.394 . S
C460 H470 0.932 . S
C461 C457 1.308 . S
C461 C460 1.394 . S
C461 H471 0.929 . S
C462 Tb433 2.764 . S
C462 O446 1.239 . S
C462 O447 1.263 . S
C462 C456 1.504 . S
C463 O448 1.236 . S
C463 O449 1.260 1_554 S
H464 C437 0.932 . S
H465 C438 0.930 . S
H466 C439 0.932 . S
H467 C440 0.929 . S
H468 C458 0.932 . S
H469 C459 0.930 . S
H470 C460 0.932 . S
H471 C461 0.929 . S
H472 C480 0.950 . S
H473 C485 0.950 . S
H474 C482 0.950 . S
H475 C484 0.950 . S
H476 C486 0.950 . S
H477 C488 0.950 . S
H478 C490 0.950 . S
H479 C491 0.950 . S
C480 H472 0.950 . S
C480 C481 1.386 . S
C480 C482 1.391 . S
C481 C480 1.386 . S
C481 C485 1.393 . S
C482 H474 0.950 . S
C482 C480 1.391 . S
C482 C483 1.400 . S
C483 C482 1.400 . S
C483 C484 1.398 . S
C483 C489 1.491 . S
C484 H475 0.950 . S
C484 C483 1.398 . S
C484 C485 1.391 . S
C485 H473 0.950 . S
C485 C481 1.393 . S
C485 C484 1.391 . S
C486 H476 0.950 . S
C486 C487 1.386 . S
C486 C488 1.391 . S
C487 C486 1.386 . S
C487 C491 1.393 . S
C488 H477 0.950 . S
C488 C486 1.391 . S
C488 C489 1.400 . S
C489 C483 1.491 . S
C489 C488 1.400 . S
C489 C490 1.398 . S
C490 H478 0.950 . S
C490 C489 1.398 . S
C490 C491 1.391 . S
C491 H479 0.950 . S
C491 C487 1.393 . S
C491 C490 1.391 . S
H492 C500 0.950 . S
H493 C505 0.950 . S
H494 C502 0.950 . S
H495 C504 0.950 . S
H496 C506 0.950 . S
H497 C508 0.950 . S
H498 C510 0.950 . S
H499 C511 0.950 . S
C500 H492 0.950 . S
C500 C501 1.386 . S
C500 C502 1.391 . S
C501 C500 1.386 . S
C501 C505 1.393 . S
C502 H494 0.950 . S
C502 C500 1.391 . S
C502 C503 1.400 . S
C503 C502 1.400 . S
C503 C504 1.398 . S
C503 C509 1.491 . S
C504 H495 0.950 . S
C504 C503 1.398 . S
C504 C505 1.391 . S
C505 H493 0.950 . S
C505 C501 1.393 . S
C505 C504 1.391 . S
C506 H496 0.950 . S
C506 C507 1.386 . S
C506 C508 1.391 . S
C507 C506 1.386 . S
C507 C511 1.393 . S
C508 H497 0.950 . S
C508 C506 1.391 . S
C508 C509 1.400 . S
C509 C503 1.491 . S
C509 C508 1.400 . S
C509 C510 1.398 . S
C510 H498 0.950 . S
C510 C509 1.398 . S
C510 C511 1.391 . S
C511 H499 0.950 . S
C511 C507 1.393 . S
C511 C510 1.391 . S
H512 C520 0.950 . S
H513 C525 0.950 . S
H514 C522 0.950 . S
H515 C524 0.950 . S
H516 C526 0.950 . S
H517 C528 0.950 . S
H518 C530 0.950 . S
H519 C531 0.950 . S
C520 H512 0.950 . S
C520 C521 1.386 . S
C520 C522 1.391 . S
C521 C520 1.386 . S
C521 C525 1.393 . S
C522 H514 0.950 . S
C522 C520 1.391 . S
C522 C523 1.400 . S
C523 C522 1.400 . S
C523 C524 1.398 . S
C523 C529 1.491 . S
C524 H515 0.950 . S
C524 C523 1.398 . S
C524 C525 1.391 . S
C525 H513 0.950 . S
C525 C521 1.393 . S
C525 C524 1.391 . S
C526 H516 0.950 . S
C526 C527 1.386 . S
C526 C528 1.391 . S
C527 C526 1.386 . S
C527 C531 1.393 . S
C528 H517 0.950 . S
C528 C526 1.391 . S
C528 C529 1.400 . S
C529 C523 1.491 . S
C529 C528 1.400 . S
C529 C530 1.398 . S
C530 H518 0.950 . S
C530 C529 1.398 . S
C530 C531 1.391 . S
C531 H519 0.950 . S
C531 C527 1.393 . S
C531 C530 1.391 . S
H532 C540 0.950 . S
H533 C545 0.950 . S
H534 C542 0.950 . S
H535 C544 0.950 . S
H536 C546 0.950 . S
H537 C548 0.950 . S
H538 C550 0.950 . S
H539 C551 0.950 . S
C540 H532 0.950 . S
C540 C541 1.386 . S
C540 C542 1.391 . S
C541 C540 1.386 . S
C541 C545 1.393 . S
C542 H534 0.950 . S
C542 C540 1.391 . S
C542 C543 1.400 . S
C543 C542 1.400 . S
C543 C544 1.398 . S
C543 C549 1.491 . S
C544 H535 0.950 . S
C544 C543 1.398 . S
C544 C545 1.391 . S
C545 H533 0.950 . S
C545 C541 1.393 . S
C545 C544 1.391 . S
C546 H536 0.950 . S
C546 C547 1.386 . S
C546 C548 1.391 . S
C547 C546 1.386 . S
C547 C551 1.393 . S
C548 H537 0.950 . S
C548 C546 1.391 . S
C548 C549 1.400 . S
C549 C543 1.491 . S
C549 C548 1.400 . S
C549 C550 1.398 . S
C550 H538 0.950 . S
C550 C549 1.398 . S
C550 C551 1.391 . S
C551 H539 0.950 . S
C551 C547 1.393 . S
C551 C550 1.391 . S
H552 C560 0.950 . S
H553 C565 0.950 . S
H554 C562 0.950 . S
H555 C564 0.950 . S
H556 C566 0.950 . S
H557 C568 0.950 . S
H558 C570 0.950 . S
H559 C571 0.950 . S
C560 H552 0.950 . S
C560 C561 1.386 . S
C560 C562 1.391 . S
C561 C560 1.386 . S
C561 C565 1.393 . S
C562 H554 0.950 . S
C562 C560 1.391 . S
C562 C563 1.400 . S
C563 C562 1.400 . S
C563 C564 1.398 . S
C563 C569 1.491 . S
C564 H555 0.950 . S
C564 C563 1.398 . S
C564 C565 1.391 . S
C565 H553 0.950 . S
C565 C561 1.393 . S
C565 C564 1.391 . S
C566 H556 0.950 . S
C566 C567 1.386 . S
C566 C568 1.391 . S
C567 C566 1.386 . S
C567 C571 1.393 . S
C568 H557 0.950 . S
C568 C566 1.391 . S
C568 C569 1.400 . S
C569 C563 1.491 . S
C569 C568 1.400 . S
C569 C570 1.398 . S
C570 H558 0.950 . S
C570 C569 1.398 . S
C570 C571 1.391 . S
C571 H559 0.950 . S
C571 C567 1.393 . S
C571 C570 1.391 . S
H572 C580 0.950 . S
H573 C585 0.950 . S
H574 C582 0.950 . S
H575 C584 0.950 . S
H576 C586 0.948 1_655 S
H577 C588 0.950 . S
H578 C590 0.950 . S
H579 C591 0.950 . S
C580 H572 0.950 . S
C580 C581 1.386 . S
C580 C582 1.391 . S
C581 C580 1.386 . S
C581 C585 1.393 . S
C582 H574 0.950 . S
C582 C580 1.391 . S
C582 C583 1.400 . S
C583 C582 1.400 . S
C583 C584 1.398 . S
C583 C589 1.491 . S
C584 H575 0.950 . S
C584 C583 1.398 . S
C584 C585 1.391 . S
C585 H573 0.950 . S
C585 C581 1.393 . S
C585 C584 1.391 . S
C586 H576 0.948 1_455 S
C586 C587 1.386 . S
C586 C588 1.391 . S
C587 C586 1.386 . S
C587 C591 1.393 . S
C588 H577 0.950 . S
C588 C586 1.391 . S
C588 C589 1.400 . S
C589 C583 1.491 . S
C589 C588 1.400 . S
C589 C590 1.398 . S
C590 H578 0.950 . S
C590 C589 1.398 . S
C590 C591 1.391 . S
C591 H579 0.950 . S
C591 C587 1.393 . S
C591 C590 1.391 . S
H592 C600 0.950 . S
H593 C605 0.950 . S
H594 C602 0.950 . S
H595 C604 0.950 . S
H596 C606 0.950 1_554 S
H597 C608 0.950 . S
H598 C610 0.950 . S
H599 C611 0.950 . S
C600 H592 0.950 . S
C600 C601 1.386 . S
C600 C602 1.391 . S
C601 C600 1.386 . S
C601 C605 1.393 . S
C602 H594 0.950 . S
C602 C600 1.391 . S
C602 C603 1.400 . S
C603 C602 1.400 . S
C603 C604 1.398 . S
C603 C609 1.491 . S
C604 H595 0.950 . S
C604 C603 1.398 . S
C604 C605 1.391 . S
C605 H593 0.950 . S
C605 C601 1.393 . S
C605 C604 1.391 . S
C606 H596 0.950 1_556 S
C606 C607 1.386 . S
C606 C608 1.391 . S
C607 C606 1.386 . S
C607 C611 1.393 . S
C608 H597 0.950 . S
C608 C606 1.391 . S
C608 C609 1.400 . S
C609 C603 1.491 . S
C609 C608 1.400 . S
C609 C610 1.398 . S
C610 H598 0.950 . S
C610 C609 1.398 . S
C610 C611 1.391 . S
C611 H599 0.950 . S
C611 C607 1.393 . S
C611 C610 1.391 . S
H612 C620 0.950 . S
H613 C625 0.950 . S
H614 C622 0.950 . S
H615 C624 0.950 . S
H616 C626 0.950 . S
H617 C628 0.950 . S
H618 C630 0.950 . S
H619 C631 0.950 . S
C620 H612 0.950 . S
C620 C621 1.386 . S
C620 C622 1.391 . S
C621 C620 1.386 . S
C621 C625 1.393 . S
C622 H614 0.950 . S
C622 C620 1.391 . S
C622 C623 1.400 . S
C623 C622 1.400 . S
C623 C624 1.398 . S
C623 C629 1.491 . S
C624 H615 0.950 . S
C624 C623 1.398 . S
C624 C625 1.391 . S
C625 H613 0.950 . S
C625 C621 1.393 . S
C625 C624 1.391 . S
C626 H616 0.950 . S
C626 C627 1.386 . S
C626 C628 1.391 . S
C627 C626 1.386 . S
C627 C631 1.393 . S
C628 H617 0.950 . S
C628 C626 1.391 . S
C628 C629 1.400 . S
C629 C623 1.491 . S
C629 C628 1.400 . S
C629 C630 1.398 . S
C630 H618 0.950 . S
C630 C629 1.398 . S
C630 C631 1.391 . S
C631 H619 0.950 . S
C631 C627 1.393 . S
C631 C630 1.391 . S
H632 C640 0.950 . S
H633 C645 0.950 . S
H634 C642 0.950 . S
H635 C644 0.950 . S
H636 C646 0.950 . S
H637 C648 0.950 . S
H638 C650 0.950 . S
H639 C651 0.950 . S
C640 H632 0.950 . S
C640 C641 1.386 . S
C640 C642 1.391 . S
C641 C640 1.386 . S
C641 C645 1.393 . S
C642 H634 0.950 . S
C642 C640 1.391 . S
C642 C643 1.400 . S
C643 C642 1.400 . S
C643 C644 1.398 . S
C643 C649 1.491 . S
C644 H635 0.950 . S
C644 C643 1.398 . S
C644 C645 1.391 . S
C645 H633 0.950 . S
C645 C641 1.393 . S
C645 C644 1.391 . S
C646 H636 0.950 . S
C646 C647 1.386 . S
C646 C648 1.391 . S
C647 C646 1.386 . S
C647 C651 1.393 . S
C648 H637 0.950 . S
C648 C646 1.391 . S
C648 C649 1.400 . S
C649 C643 1.491 . S
C649 C648 1.400 . S
C649 C650 1.398 . S
C650 H638 0.950 . S
C650 C649 1.398 . S
C650 C651 1.391 . S
C651 H639 0.950 . S
C651 C647 1.393 . S
C651 C650 1.391 . S
H652 C660 0.950 . S
H653 C665 0.950 . S
H654 C662 0.950 . S
H655 C664 0.950 . S
H656 C666 0.950 . S
H657 C668 0.950 . S
H658 C670 0.950 . S
H659 C671 0.937 1_554 S
C660 H652 0.950 . S
C660 C661 1.386 . S
C660 C662 1.391 . S
C661 C660 1.386 . S
C661 C665 1.393 . S
C662 H654 0.950 . S
C662 C660 1.391 . S
C662 C663 1.400 . S
C663 C662 1.400 . S
C663 C664 1.398 . S
C663 C669 1.491 . S
C664 H655 0.950 . S
C664 C663 1.398 . S
C664 C665 1.391 . S
C665 H653 0.950 . S
C665 C661 1.393 . S
C665 C664 1.391 . S
C666 H656 0.950 . S
C666 C667 1.386 . S
C666 C668 1.391 . S
C667 C666 1.386 . S
C667 C671 1.393 . S
C668 H657 0.950 . S
C668 C666 1.391 . S
C668 C669 1.400 . S
C669 C663 1.491 . S
C669 C668 1.400 . S
C669 C670 1.398 . S
C670 H658 0.950 . S
C670 C669 1.398 . S
C670 C671 1.391 . S
C671 H659 0.937 1_556 S
C671 C667 1.393 . S
C671 C670 1.391 . S
H672 C680 0.950 . S
H673 C685 0.950 . S
H674 C682 0.950 . S
H675 C684 0.950 . S
H676 C686 0.950 1_455 S
H677 C688 0.950 . S
H678 C690 0.950 . S
H679 C691 0.950 . S
C680 H672 0.950 . S
C680 C681 1.386 . S
C680 C682 1.391 . S
C681 C680 1.386 . S
C681 C685 1.393 . S
C682 H674 0.950 . S
C682 C680 1.391 . S
C682 C683 1.400 . S
C683 C682 1.400 . S
C683 C684 1.398 . S
C683 C689 1.491 . S
C684 H675 0.950 . S
C684 C683 1.398 . S
C684 C685 1.391 . S
C685 H673 0.950 . S
C685 C681 1.393 . S
C685 C684 1.391 . S
C686 H676 0.950 1_655 S
C686 C687 1.386 . S
C686 C688 1.391 . S
C687 C686 1.386 . S
C687 C691 1.393 . S
C688 H677 0.950 . S
C688 C686 1.391 . S
C688 C689 1.400 . S
C689 C683 1.491 . S
C689 C688 1.400 . S
C689 C690 1.398 . S
C690 H678 0.950 . S
C690 C689 1.398 . S
C690 C691 1.391 . S
C691 H679 0.950 . S
C691 C687 1.393 . S
C691 C690 1.391 . S
H692 C700 0.950 . S
H693 C705 0.950 . S
H694 C702 0.950 . S
H695 C704 0.950 . S
H696 C706 0.950 . S
H697 C708 0.950 . S
H698 C710 0.950 . S
H699 C711 0.950 . S
C700 H692 0.950 . S
C700 C701 1.386 . S
C700 C702 1.391 . S
C701 C700 1.386 . S
C701 C705 1.393 . S
C702 H694 0.950 . S
C702 C700 1.391 . S
C702 C703 1.400 . S
C703 C702 1.400 . S
C703 C704 1.398 . S
C703 C709 1.491 . S
C704 H695 0.950 . S
C704 C703 1.398 . S
C704 C705 1.391 . S
C705 H693 0.950 . S
C705 C701 1.393 . S
C705 C704 1.391 . S
C706 H696 0.950 . S
C706 C707 1.386 . S
C706 C708 1.391 . S
C707 C706 1.386 . S
C707 C711 1.393 . S
C708 H697 0.950 . S
C708 C706 1.391 . S
C708 C709 1.400 . S
C709 C703 1.491 . S
C709 C708 1.400 . S
C709 C710 1.398 . S
C710 H698 0.950 . S
C710 C709 1.398 . S
C710 C711 1.391 . S
C711 H699 0.950 . S
C711 C707 1.393 . S
C711 C710 1.391 . S
H712 C720 0.950 . S
H713 C725 0.950 . S
H714 C722 0.950 . S
H715 C724 0.950 . S
H716 C726 0.950 . S
H717 C728 0.950 . S
H718 C730 0.950 . S
H719 C731 0.950 . S
C720 H712 0.950 . S
C720 C721 1.386 . S
C720 C722 1.391 . S
C721 C720 1.386 . S
C721 C725 1.393 . S
C722 H714 0.950 . S
C722 C720 1.391 . S
C722 C723 1.400 . S
C723 C722 1.400 . S
C723 C724 1.398 . S
C723 C729 1.491 . S
C724 H715 0.950 . S
C724 C723 1.398 . S
C724 C725 1.391 . S
C725 H713 0.950 . S
C725 C721 1.393 . S
C725 C724 1.391 . S
C726 H716 0.950 . S
C726 C727 1.386 . S
C726 C728 1.391 . S
C727 C726 1.386 . S
C727 C731 1.393 . S
C728 H717 0.950 . S
C728 C726 1.391 . S
C728 C729 1.400 . S
C729 C723 1.491 . S
C729 C728 1.400 . S
C729 C730 1.398 . S
C730 H718 0.950 . S
C730 C729 1.398 . S
C730 C731 1.391 . S
C731 H719 0.950 . S
C731 C727 1.393 . S
C731 C730 1.391 . S
H732 C740 0.950 . S
H733 C745 0.950 . S
H734 C742 0.950 . S
H735 C744 0.950 . S
H736 C746 0.950 . S
H737 C748 0.950 . S
H738 C750 0.950 . S
H739 C751 0.950 . S
C740 H732 0.950 . S
C740 C741 1.386 . S
C740 C742 1.391 . S
C741 C740 1.386 . S
C741 C745 1.393 . S
C742 H734 0.950 . S
C742 C740 1.391 . S
C742 C743 1.400 . S
C743 C742 1.400 . S
C743 C744 1.398 . S
C743 C749 1.491 . S
C744 H735 0.950 . S
C744 C743 1.398 . S
C744 C745 1.391 . S
C745 H733 0.950 . S
C745 C741 1.393 . S
C745 C744 1.391 . S
C746 H736 0.950 . S
C746 C747 1.386 . S
C746 C748 1.391 . S
C747 C746 1.386 . S
C747 C751 1.393 . S
C748 H737 0.950 . S
C748 C746 1.391 . S
C748 C749 1.400 . S
C749 C743 1.491 . S
C749 C748 1.400 . S
C749 C750 1.398 . S
C750 H738 0.950 . S
C750 C749 1.398 . S
C750 C751 1.391 . S
C751 H739 0.950 . S
C751 C747 1.393 . S
C751 C750 1.391 . S
H752 C760 0.950 . S
H753 C765 0.950 . S
H754 C762 0.950 . S
H755 C764 0.950 . S
H756 C766 0.950 . S
H757 C768 0.950 . S
H758 C770 0.950 . S
H759 C771 0.950 . S
C760 H752 0.950 . S
C760 C761 1.386 . S
C760 C762 1.391 . S
C761 C760 1.386 . S
C761 C765 1.393 . S
C762 H754 0.950 . S
C762 C760 1.391 . S
C762 C763 1.400 . S
C763 C762 1.400 . S
C763 C764 1.398 . S
C763 C769 1.491 . S
C764 H755 0.950 . S
C764 C763 1.398 . S
C764 C765 1.391 . S
C765 H753 0.950 . S
C765 C761 1.393 . S
C765 C764 1.391 . S
C766 H756 0.950 . S
C766 C767 1.386 . S
C766 C768 1.391 . S
C767 C766 1.386 . S
C767 C771 1.393 . S
C768 H757 0.950 . S
C768 C766 1.391 . S
C768 C769 1.400 . S
C769 C763 1.491 . S
C769 C768 1.400 . S
C769 C770 1.398 . S
C770 H758 0.950 . S
C770 C769 1.398 . S
C770 C771 1.391 . S
C771 H759 0.950 . S
C771 C767 1.393 . S
C771 C770 1.391 . S
H772 C780 0.950 . S
H773 C785 0.950 . S
H774 C782 0.950 . S
H775 C784 0.950 . S
H776 C786 0.950 . S
H777 C788 0.950 . S
H778 C790 0.950 . S
H779 C791 0.950 . S
C780 H772 0.950 . S
C780 C781 1.386 . S
C780 C782 1.391 . S
C781 C780 1.386 . S
C781 C785 1.393 . S
C782 H774 0.950 . S
C782 C780 1.391 . S
C782 C783 1.400 . S
C783 C782 1.400 . S
C783 C784 1.398 . S
C783 C789 1.491 . S
C784 H775 0.950 . S
C784 C783 1.398 . S
C784 C785 1.391 . S
C785 H773 0.950 . S
C785 C781 1.393 . S
C785 C784 1.391 . S
C786 H776 0.950 . S
C786 C787 1.386 . S
C786 C788 1.391 . S
C787 C786 1.386 . S
C787 C791 1.393 . S
C788 H777 0.950 . S
C788 C786 1.391 . S
C788 C789 1.400 . S
C789 C783 1.491 . S
C789 C788 1.400 . S
C789 C790 1.398 . S
C790 H778 0.950 . S
C790 C789 1.398 . S
C790 C791 1.391 . S
C791 H779 0.950 . S
C791 C787 1.393 . S
C791 C790 1.391 . S
H792 C800 0.950 . S
H793 C805 0.950 . S
H794 C802 0.950 . S
H795 C804 0.950 . S
H796 C806 0.950 . S
H797 C808 0.950 . S
H798 C810 0.950 . S
H799 C811 0.950 . S
C800 H792 0.950 . S
C800 C801 1.386 . S
C800 C802 1.391 . S
C801 C800 1.386 . S
C801 C805 1.393 . S
C802 H794 0.950 . S
C802 C800 1.391 . S
C802 C803 1.400 . S
C803 C802 1.400 . S
C803 C804 1.398 . S
C803 C809 1.491 . S
C804 H795 0.950 . S
C804 C803 1.398 . S
C804 C805 1.391 . S
C805 H793 0.950 . S
C805 C801 1.393 . S
C805 C804 1.391 . S
C806 H796 0.950 . S
C806 C807 1.386 . S
C806 C808 1.391 . S
C807 C806 1.386 . S
C807 C811 1.393 . S
C808 H797 0.950 . S
C808 C806 1.391 . S
C808 C809 1.400 . S
C809 C803 1.491 . S
C809 C808 1.400 . S
C809 C810 1.398 . S
C810 H798 0.950 . S
C810 C809 1.398 . S
C810 C811 1.391 . S
C811 H799 0.950 . S
C811 C807 1.393 . S
C811 C810 1.391 . S
H812 C820 0.950 . S
H813 C825 0.950 . S
H814 C822 0.950 . S
H815 C824 0.950 . S
H816 C826 0.950 . S
H817 C828 0.950 . S
H818 C830 0.950 . S
H819 C831 0.950 . S
C820 H812 0.950 . S
C820 C821 1.386 . S
C820 C822 1.391 . S
C821 C820 1.386 . S
C821 C825 1.393 . S
C822 H814 0.950 . S
C822 C820 1.391 . S
C822 C823 1.400 . S
C823 C822 1.400 . S
C823 C824 1.398 . S
C823 C829 1.491 . S
C824 H815 0.950 . S
C824 C823 1.398 . S
C824 C825 1.391 . S
C825 H813 0.950 . S
C825 C821 1.393 . S
C825 C824 1.391 . S
C826 H816 0.950 . S
C826 C827 1.386 . S
C826 C828 1.391 . S
C827 C826 1.386 . S
C827 C831 1.393 . S
C828 H817 0.950 . S
C828 C826 1.391 . S
C828 C829 1.400 . S
C829 C823 1.491 . S
C829 C828 1.400 . S
C829 C830 1.398 . S
C830 H818 0.950 . S
C830 C829 1.398 . S
C830 C831 1.391 . S
C831 H819 0.950 . S
C831 C827 1.393 . S
C831 C830 1.391 . S
H832 C840 0.950 . S
H833 C845 0.950 . S
H834 C842 0.950 . S
H835 C844 0.950 . S
H836 C846 0.950 . S
H837 C848 0.950 . S
H838 C850 0.950 . S
H839 C851 0.950 . S
C840 H832 0.950 . S
C840 C841 1.386 . S
C840 C842 1.391 . S
C841 C840 1.386 . S
C841 C845 1.393 . S
C842 H834 0.950 . S
C842 C840 1.391 . S
C842 C843 1.400 . S
C843 C842 1.400 . S
C843 C844 1.398 . S
C843 C849 1.491 . S
C844 H835 0.950 . S
C844 C843 1.398 . S
C844 C845 1.391 . S
C845 H833 0.950 . S
C845 C841 1.393 . S
C845 C844 1.391 . S
C846 H836 0.950 . S
C846 C847 1.386 . S
C846 C848 1.391 . S
C847 C846 1.386 . S
C847 C851 1.393 . S
C848 H837 0.950 . S
C848 C846 1.391 . S
C848 C849 1.400 . S
C849 C843 1.491 . S
C849 C848 1.400 . S
C849 C850 1.398 . S
C850 H838 0.950 . S
C850 C849 1.398 . S
C850 C851 1.391 . S
C851 H839 0.950 . S
C851 C847 1.393 . S
C851 C850 1.391 . S
H852 C860 0.950 . S
H853 C865 0.950 . S
H854 C862 0.950 . S
H855 C864 0.950 . S
H856 C866 0.950 . S
H857 C868 0.950 . S
H858 C870 0.950 . S
H859 C871 0.950 . S
C860 H852 0.950 . S
C860 C861 1.386 . S
C860 C862 1.391 . S
C861 C860 1.386 . S
C861 C865 1.393 . S
C862 H854 0.950 . S
C862 C860 1.391 . S
C862 C863 1.400 . S
C863 C862 1.400 . S
C863 C864 1.398 . S
C863 C869 1.491 . S
C864 H855 0.950 . S
C864 C863 1.398 . S
C864 C865 1.391 . S
C865 H853 0.950 . S
C865 C861 1.393 . S
C865 C864 1.391 . S
C866 H856 0.950 . S
C866 C867 1.386 . S
C866 C868 1.391 . S
C867 C866 1.386 . S
C867 C871 1.393 . S
C868 H857 0.950 . S
C868 C866 1.391 . S
C868 C869 1.400 . S
C869 C863 1.491 . S
C869 C868 1.400 . S
C869 C870 1.398 . S
C870 H858 0.950 . S
C870 C869 1.398 . S
C870 C871 1.391 . S
C871 H859 0.950 . S
C871 C867 1.393 . S
C871 C870 1.391 . S
H872 C880 0.950 . S
H873 C885 0.950 . S
H874 C882 0.950 . S
H875 C884 0.950 . S
H876 C886 0.950 . S
H877 C888 0.950 . S
H878 C890 0.950 . S
H879 C891 0.950 . S
C880 H872 0.950 . S
C880 C881 1.386 . S
C880 C882 1.391 . S
C881 C880 1.386 . S
C881 C885 1.393 . S
C882 H874 0.950 . S
C882 C880 1.391 . S
C882 C883 1.400 . S
C883 C882 1.400 . S
C883 C884 1.398 . S
C883 C889 1.491 . S
C884 H875 0.950 . S
C884 C883 1.398 . S
C884 C885 1.391 . S
C885 H873 0.950 . S
C885 C881 1.393 . S
C885 C884 1.391 . S
C886 H876 0.950 . S
C886 C887 1.386 . S
C886 C888 1.391 . S
C887 C886 1.386 . S
C887 C891 1.393 . S
C888 H877 0.950 . S
C888 C886 1.391 . S
C888 C889 1.400 . S
C889 C883 1.491 . S
C889 C888 1.400 . S
C889 C890 1.398 . S
C890 H878 0.950 . S
C890 C889 1.398 . S
C890 C891 1.391 . S
C891 H879 0.950 . S
C891 C887 1.393 . S
C891 C890 1.391 . S
H892 C900 0.950 . S
H893 C905 0.950 . S
H894 C902 0.950 . S
H895 C904 0.950 . S
H896 C906 0.950 . S
H897 C908 0.950 . S
H898 C910 0.950 . S
H899 C911 0.950 . S
C900 H892 0.950 . S
C900 C901 1.386 . S
C900 C902 1.391 . S
C901 C900 1.386 . S
C901 C905 1.393 . S
C902 H894 0.950 . S
C902 C900 1.391 . S
C902 C903 1.400 . S
C903 C902 1.400 . S
C903 C904 1.398 . S
C903 C909 1.491 . S
C904 H895 0.950 . S
C904 C903 1.398 . S
C904 C905 1.391 . S
C905 H893 0.950 . S
C905 C901 1.393 . S
C905 C904 1.391 . S
C906 H896 0.950 . S
C906 C907 1.386 . S
C906 C908 1.391 . S
C907 C906 1.386 . S
C907 C911 1.393 . S
C908 H897 0.950 . S
C908 C906 1.391 . S
C908 C909 1.400 . S
C909 C903 1.491 . S
C909 C908 1.400 . S
C909 C910 1.398 . S
C910 H898 0.950 . S
C910 C909 1.398 . S
C910 C911 1.391 . S
C911 H899 0.950 . S
C911 C907 1.393 . S
C911 C910 1.391 . S
H912 C920 0.950 . S
H913 C925 0.950 . S
H914 C922 0.950 . S
H915 C924 0.950 . S
H916 C926 0.950 . S
H917 C928 0.950 . S
H918 C930 0.950 . S
H919 C931 0.950 . S
C920 H912 0.950 . S
C920 C921 1.386 . S
C920 C922 1.391 . S
C921 C920 1.386 . S
C921 C925 1.393 . S
C922 H914 0.950 . S
C922 C920 1.391 . S
C922 C923 1.400 . S
C923 C922 1.400 . S
C923 C924 1.398 . S
C923 C929 1.491 . S
C924 H915 0.950 . S
C924 C923 1.398 . S
C924 C925 1.391 . S
C925 H913 0.950 . S
C925 C921 1.393 . S
C925 C924 1.391 . S
C926 H916 0.950 . S
C926 C927 1.386 . S
C926 C928 1.391 . S
C927 C926 1.386 . S
C927 C931 1.393 . S
C928 H917 0.950 . S
C928 C926 1.391 . S
C928 C929 1.400 . S
C929 C923 1.491 . S
C929 C928 1.400 . S
C929 C930 1.398 . S
C930 H918 0.950 . S
C930 C929 1.398 . S
C930 C931 1.391 . S
C931 H919 0.950 . S
C931 C927 1.393 . S
C931 C930 1.391 . S
H932 C940 0.950 . S
H933 C945 0.950 . S
H934 C942 0.950 . S
H935 C944 0.950 . S
H936 C946 0.950 . S
H937 C948 0.950 . S
H938 C950 0.950 . S
H939 C951 0.950 . S
C940 H932 0.950 . S
C940 C941 1.386 . S
C940 C942 1.391 . S
C941 C940 1.386 . S
C941 C945 1.393 . S
C942 H934 0.950 . S
C942 C940 1.391 . S
C942 C943 1.400 . S
C943 C942 1.400 . S
C943 C944 1.398 . S
C943 C949 1.491 . S
C944 H935 0.950 . S
C944 C943 1.398 . S
C944 C945 1.391 . S
C945 H933 0.950 . S
C945 C941 1.393 . S
C945 C944 1.391 . S
C946 H936 0.950 . S
C946 C947 1.386 . S
C946 C948 1.391 . S
C947 C946 1.386 . S
C947 C951 1.393 . S
C948 H937 0.950 . S
C948 C946 1.391 . S
C948 C949 1.400 . S
C949 C943 1.491 . S
C949 C948 1.400 . S
C949 C950 1.398 . S
C950 H938 0.950 . S
C950 C949 1.398 . S
C950 C951 1.391 . S
C951 H939 0.950 . S
C951 C947 1.393 . S
C951 C950 1.391 . S
C481 C1 0.945 . S
C487 C316 0.953 . S
C501 C40 1.210 . S
C507 C377 1.247 . S
C527 C415 2.506 . S
C521 C99 2.573 . S
C541 C118 2.333 . S
C547 C455 2.286 . S
C567 C375 1.289 . S
C561 C16 1.283 . S
C587 C343 2.152 . S
C581 C60 2.064 . S
C607 C452 1.737 . S
C601 C79 1.757 . S
C627 C412 1.819 . S
C621 C138 1.829 . S
C641 C21 1.093 . S
C647 C457 1.116 . S
C667 C372 2.404 . S
C661 C94 2.403 . S
C681 C133 2.166 . S
C687 C314 2.127 . S
C701 C55 1.537 . S
C707 C417 1.589 . S
C727 C337 0.935 . S
C721 C157 0.918 . S
C741 C196 1.207 . S
C747 C356 1.249 . S
C761 C255 2.565 . S
C767 C394 2.502 . S
C781 C289 2.326 . S
C787 C434 2.271 . S
C801 C172 1.264 . S
C807 C354 1.283 . S
C827 C332 2.155 . S
C821 C216 2.050 . S
C847 C463 1.739 . S
C841 C235 1.751 . S
C867 C423 1.824 . S
C861 C294 1.834 . S
C881 C177 1.084 . S
C887 C436 1.101 . S
C907 C383 2.404 . S
C901 C250 2.401 . S
C927 C335 2.133 . S
C921 C274 2.166 . S
C941 C211 1.520 . S
C947 C396 1.577 . S
