# Generated by pormake.
# Topology rtl, (3,6)-cn, num edge types: 1
# Building blocks:
#     Node 0, Type 0, BuildingBlock: VETTIZ_charged_linker_0, # of connection points: 3
#     Node 1, Type 0, BuildingBlock: VETTIZ_charged_linker_0, # of connection points: 3
#     Node 2, Type 0, BuildingBlock: VETTIZ_charged_linker_0, # of connection points: 3
#     Node 3, Type 0, BuildingBlock: VETTIZ_charged_linker_0, # of connection points: 3
#     Node 4, Type 1, BuildingBlock: VOLQOD_clean_sbu_1, # of connection points: 6
#     Node 5, Type 1, BuildingBlock: VOLQOD_clean_sbu_1, # of connection points: 6
#     Edge 6, Type (0, 1), BuildingBlock: TEMPAE_clean_linker_10, # of connection points: 2
#     Edge 7, Type (0, 1), BuildingBlock: TEMPAE_clean_linker_10, # of connection points: 2
#     Edge 8, Type (0, 1), BuildingBlock: TEMPAE_clean_linker_10, # of connection points: 2
#     Edge 9, Type (0, 1), BuildingBlock: TEMPAE_clean_linker_10, # of connection points: 2
#     Edge 10, Type (0, 1), BuildingBlock: TEMPAE_clean_linker_10, # of connection points: 2
#     Edge 11, Type (0, 1), BuildingBlock: TEMPAE_clean_linker_10, # of connection points: 2
#     Edge 12, Type (0, 1), BuildingBlock: TEMPAE_clean_linker_10, # of connection points: 2
#     Edge 13, Type (0, 1), BuildingBlock: TEMPAE_clean_linker_10, # of connection points: 2
#     Edge 14, Type (0, 1), BuildingBlock: TEMPAE_clean_linker_10, # of connection points: 2
#     Edge 15, Type (0, 1), BuildingBlock: TEMPAE_clean_linker_10, # of connection points: 2
#     Edge 16, Type (0, 1), BuildingBlock: TEMPAE_clean_linker_10, # of connection points: 2
#     Edge 17, Type (0, 1), BuildingBlock: TEMPAE_clean_linker_10, # of connection points: 2
# Relax obj value: 0.081
# Max RMSD: 0.157
# Mean RMSD: 0.091
data_MOF--net-rtl--node1-VOLQOD_clean_sbu_1--node2-VETTIZ_charged_linker_0--edge1-TEMPAE_clean_linker_10
_symmetry_space_group_name_H-M    P1
_symmetry_Int_Tables_number       1
_symmetry_cell_setting            triclinic
loop_
_symmetry_equiv_pos_as_xyz
'x, y, z'
_cell_length_a     44.81552
_cell_length_b     38.721195
_cell_length_c     29.314508
_cell_angle_alpha  90.006486
_cell_angle_beta   90.345129
_cell_angle_gamma 89.966246
loop_
_atom_site_label
_atom_site_type_symbol
_atom_site_fract_x
_atom_site_fract_y
_atom_site_fract_z
_atom_type_partial_charge
C0 C 0.08819 0.7542 0.86457 0.0
C1 C 0.06562 0.77952 0.86231 0.0
C2 C 0.05076 0.78896 0.90272 0.0
C3 C 0.08233 0.75057 0.94666 0.0
C4 C 0.09623 0.74021 0.90704 0.0
C5 C 0.121 0.71474 0.91627 0.0
H6 H 0.21457 0.64099 0.06982 0.0
C7 C 0.0975 0.73369 0.98545 0.0
C8 C 0.12009 0.71244 0.96807 0.0
H9 H 0.21439 0.62886 0.92335 0.0
H10 H 0.16871 0.66206 0.91769 0.0
H11 H 0.1953 0.72087 0.07269 0.0
H12 H 0.14394 0.62706 0.08072 0.0
H13 H 0.12719 0.65694 0.11766 0.0
H14 H 0.16505 0.64296 0.12849 0.0
H15 H 0.19758 0.69152 0.12003 0.0
H16 H 0.16972 0.72489 0.11771 0.0
C17 C 0.15051 0.7308 0.89909 0.0
C18 C 0.11273 0.67995 0.89337 0.0
C19 C 0.07012 0.76967 0.14585 0.0
C20 C 0.08191 0.7618 0.18914 0.0
C21 C 0.1048 0.73689 0.19265 0.0
C22 C 0.11632 0.72094 0.15351 0.0
C23 C 0.10497 0.73014 0.11035 0.0
C24 C 0.08184 0.75361 0.10728 0.0
C25 C 0.07269 0.76079 0.05889 0.0
C26 C 0.09416 0.73774 0.03322 0.0
C27 C 0.1132 0.72009 0.06339 0.0
C28 C 0.07823 0.79972 0.04926 0.0
C29 C 0.03988 0.74892 0.05261 0.0
C30 C 0.20459 0.64554 0.0366 0.0
C31 C 0.21813 0.63287 0.99691 0.0
C32 C 0.20427 0.63852 0.95431 0.0
C33 C 0.17794 0.65798 0.9511 0.0
C34 C 0.16539 0.67188 0.99091 0.0
C35 C 0.17816 0.66462 0.03287 0.0
C36 C 0.16097 0.68017 0.07167 0.0
C37 C 0.13626 0.69879 0.046 0.0
C38 C 0.13928 0.69438 -0.00137 0.0
C39 C 0.18184 0.7056 0.09728 0.0
C40 C 0.14873 0.65045 0.10159 0.0
H41 H 0.04701 0.78338 0.97407 0.0
H42 H 0.09977 0.74598 0.83413 0.0
H43 H 0.08812 0.67634 0.89178 0.0
H44 H 0.12106 0.65742 0.91285 0.0
H45 H 0.12127 0.67863 0.85792 0.0
H46 H 0.1521 0.75838 0.90948 0.0
H47 H 0.15174 0.72971 0.86128 0.0
H48 H 0.17059 0.71829 0.91328 0.0
H49 H 0.05294 0.78912 0.14166 0.0
H50 H 0.11404 0.73003 0.22565 0.0
H51 H 0.13403 0.70261 0.15829 0.0
H52 H 0.09743 0.80966 0.06962 0.0
H53 H 0.05841 0.81552 0.05815 0.0
H54 H 0.08443 0.80503 0.01355 0.0
H55 H 0.03515 0.72565 0.07364 0.0
H56 H 0.03467 0.74095 0.01724 0.0
H57 H 0.02405 0.76947 0.06314 0.0
H58 H 0.03363 0.80869 0.90236 0.0
C59 C 0.05882 0.77447 0.94464 0.0
C60 C 0.58328 0.75594 0.65409 0.0
C61 C 0.55884 0.73334 0.65651 0.0
C62 C 0.54135 0.72738 0.61728 0.0
C63 C 0.57535 0.762 0.57257 0.0
C64 C 0.59093 0.77028 0.61189 0.0
C65 C 0.61673 0.79409 0.60269 0.0
H66 H 0.71378 0.85992 0.45125 0.0
C67 C 0.59148 0.77694 0.53352 0.0
C68 C 0.61545 0.79631 0.55093 0.0
H69 H 0.70957 0.87939 0.59657 0.0
H70 H 0.66434 0.84607 0.60115 0.0
H71 H 0.69548 0.78287 0.45291 0.0
H72 H 0.64177 0.874 0.43421 0.0
H73 H 0.62974 0.84301 0.39426 0.0
H74 H 0.66758 0.85875 0.39215 0.0
H75 H 0.69477 0.80617 0.40002 0.0
H76 H 0.66816 0.77249 0.41212 0.0
C77 C 0.64572 0.77641 0.61977 0.0
C78 C 0.61026 0.82943 0.62559 0.0
C79 C 0.56589 0.736 0.37357 0.0
C80 C 0.58084 0.73886 0.33185 0.0
C81 C 0.60619 0.76014 0.32878 0.0
C82 C 0.6169 0.7779 0.36721 0.0
C83 C 0.60246 0.77368 0.40931 0.0
C84 C 0.57728 0.75318 0.41188 0.0
C85 C 0.56631 0.74929 0.45996 0.0
C86 C 0.58878 0.77129 0.48581 0.0
C87 C 0.60986 0.78553 0.45597 0.0
C88 C 0.56861 0.71048 0.47276 0.0
C89 C 0.53439 0.76449 0.46264 0.0
C90 C 0.70297 0.85759 0.48403 0.0
C91 C 0.71578 0.87197 0.52372 0.0
C92 C 0.70081 0.86787 0.56562 0.0
C93 C 0.67437 0.84872 0.56825 0.0
C94 C 0.66257 0.83352 0.52862 0.0
C95 C 0.67631 0.83894 0.48722 0.0
C96 C 0.65971 0.82208 0.44841 0.0
C97 C 0.63372 0.80579 0.47346 0.0
C98 C 0.63598 0.81188 0.52056 0.0
C99 C 0.68048 0.79459 0.42678 0.0
C100 C 0.64922 0.85073 0.41512 0.0
H101 H 0.53589 0.73531 0.5462 0.0
H102 H 0.59662 0.76139 0.68416 0.0
H103 H 0.58611 0.83291 0.63288 0.0
H104 H 0.61608 0.85145 0.60318 0.0
H105 H 0.62248 0.83207 0.65849 0.0
H106 H 0.64674 0.74924 0.60752 0.0
H107 H 0.64669 0.77603 0.65764 0.0
H108 H 0.66615 0.78905 0.60742 0.0
H109 H 0.54672 0.71916 0.37687 0.0
H110 H 0.61799 0.7625 0.29678 0.0
H111 H 0.63652 0.79339 0.36291 0.0
H112 H 0.58922 0.69882 0.45837 0.0
H113 H 0.54926 0.69577 0.45907 0.0
H114 H 0.57032 0.70576 0.5097 0.0
H115 H 0.53163 0.78661 0.43875 0.0
H116 H 0.52928 0.77525 0.49666 0.0
H117 H 0.51733 0.74482 0.45351 0.0
H118 H 0.52233 0.71015 0.61866 0.0
C119 C 0.54944 0.7417 0.57528 0.0
C120 C 0.91765 0.2588 0.1651 0.0
C121 C 0.94196 0.23613 0.16957 0.0
C122 C 0.96023 0.2296 0.13168 0.0
C123 C 0.92743 0.26402 0.08412 0.0
C124 C 0.91107 0.2729 0.12215 0.0
C125 C 0.88605 0.29745 0.11073 0.0
H126 H 0.79455 0.36552 0.95121 0.0
C127 C 0.91271 0.27931 0.0438 0.0
C128 C 0.88891 0.2997 0.05909 0.0
H129 H 0.79481 0.38442 0.09683 0.0
H130 H 0.83968 0.35076 0.10498 0.0
H131 H 0.86514 0.37964 0.93963 0.0
H132 H 0.81474 0.28561 0.95493 0.0
H133 H 0.8404 0.28006 0.91034 0.0
H134 H 0.81206 0.31272 0.90535 0.0
H135 H 0.84372 0.36174 0.89345 0.0
H136 H 0.88172 0.34838 0.9045 0.0
C137 C 0.8925 0.33258 0.13431 0.0
C138 C 0.85629 0.28052 0.1252 0.0
C139 C 0.93921 0.23328 0.88751 0.0
C140 C 0.92677 0.23807 0.84395 0.0
C141 C 0.90452 0.26336 0.83766 0.0
C142 C 0.89368 0.28229 0.87493 0.0
C143 C 0.90519 0.27573 0.91886 0.0
C144 C 0.92816 0.25224 0.92427 0.0
C145 C 0.93784 0.24846 0.97313 0.0
C146 C 0.91646 0.27311 0.99647 0.0
C147 C 0.89713 0.28867 0.96465 0.0
C148 C 0.97074 0.26053 0.97752 0.0
C149 C 0.93251 0.21037 0.98722 0.0
C150 C 0.80441 0.36291 0.98484 0.0
C151 C 0.79052 0.37719 0.02353 0.0
C152 C 0.80435 0.37292 0.06657 0.0
C153 C 0.83058 0.35355 0.0713 0.0
C154 C 0.84332 0.33825 0.03267 0.0
C155 C 0.83083 0.34393 0.99016 0.0
C156 C 0.84844 0.32695 0.95275 0.0
C157 C 0.87342 0.31003 0.98 0.0
C158 C 0.86981 0.31609 0.0269 0.0
C159 C 0.8603 0.35544 0.92051 0.0
C160 C 0.82799 0.3 0.92919 0.0
H161 H 0.96727 0.23678 0.06099 0.0
H162 H 0.90373 0.2647 0.19417 0.0
H163 H 0.85504 0.25348 0.11249 0.0
H164 H 0.83648 0.29387 0.11143 0.0
H165 H 0.85432 0.27988 0.16295 0.0
H166 H 0.91643 0.33533 0.14394 0.0
H167 H 0.87925 0.33557 0.16597 0.0
H168 H 0.88791 0.35477 0.11142 0.0
H169 H 0.95674 0.21442 0.89305 0.0
H170 H 0.89469 0.2675 0.80425 0.0
H171 H 0.87619 0.30059 0.86833 0.0
H172 H 0.97698 0.27848 0.94951 0.0
H173 H 0.9864 0.2383 0.97634 0.0
H174 H 0.97482 0.27544 0.00921 0.0
H175 H 0.91015 0.20151 0.97537 0.0
H176 H 0.93279 0.20615 0.02432 0.0
H177 H 0.9495 0.1931 0.97183 0.0
H178 H 0.97915 0.2123 0.13468 0.0
C179 C 0.95313 0.24354 0.08896 0.0
C180 C 0.41735 0.25415 0.35387 0.0
C181 C 0.44078 0.27834 0.35193 0.0
C182 C 0.45541 0.28787 0.39278 0.0
C183 C 0.42221 0.2515 0.43629 0.0
C184 C 0.40842 0.2412 0.39631 0.0
C185 C 0.38267 0.21714 0.40499 0.0
H186 H 0.29177 0.13808 0.5565 0.0
C187 C 0.4064 0.23533 0.47473 0.0
C188 C 0.38333 0.21491 0.45677 0.0
H189 H 0.28519 0.13827 0.40945 0.0
H190 H 0.33083 0.17127 0.40449 0.0
H191 H 0.36518 0.12775 0.56356 0.0
H192 H 0.30739 0.21677 0.56443 0.0
H193 H 0.3352 0.2235 0.60581 0.0
H194 H 0.30995 0.18765 0.61192 0.0
H195 H 0.34139 0.1378 0.61081 0.0
H196 H 0.3782 0.15626 0.60596 0.0
C197 C 0.38986 0.18193 0.38255 0.0
C198 C 0.35376 0.23461 0.38693 0.0
C199 C 0.43405 0.26993 0.63596 0.0
C200 C 0.42238 0.26168 0.67898 0.0
C201 C 0.3999 0.23627 0.68189 0.0
C202 C 0.38858 0.22032 0.6424 0.0
C203 C 0.39969 0.23004 0.5995 0.0
C204 C 0.42252 0.25388 0.59703 0.0
C205 C 0.43161 0.26139 0.54888 0.0
C206 C 0.41006 0.23864 0.5226 0.0
C207 C 0.39124 0.22051 0.55227 0.0
C208 C 0.46443 0.24953 0.54293 0.0
C209 C 0.42607 0.30035 0.5396 0.0
C210 C 0.30056 0.14478 0.5233 0.0
C211 C 0.28513 0.1356 0.48328 0.0
C212 C 0.29678 0.14526 0.44065 0.0
C213 C 0.32321 0.16443 0.43791 0.0
C214 C 0.33786 0.17456 0.47826 0.0
C215 C 0.32665 0.16449 0.52005 0.0
C216 C 0.34428 0.17919 0.55932 0.0
C217 C 0.36799 0.19957 0.53424 0.0
C218 C 0.36411 0.19675 0.48675 0.0
C219 C 0.35791 0.14884 0.58678 0.0
C220 C 0.32329 0.20288 0.58725 0.0
H221 H 0.45813 0.28333 0.46447 0.0
H222 H 0.40577 0.24598 0.32319 0.0
H223 H 0.355 0.26319 0.39053 0.0
H224 H 0.33371 0.22722 0.40632 0.0
H225 H 0.35004 0.22875 0.35025 0.0
H226 H 0.41387 0.17537 0.38707 0.0
H227 H 0.38504 0.18253 0.34535 0.0
H228 H 0.37761 0.16023 0.39808 0.0
H229 H 0.45097 0.28967 0.63221 0.0
H230 H 0.39081 0.22904 0.71467 0.0
H231 H 0.37121 0.20156 0.64672 0.0
H232 H 0.4697 0.2271 0.56532 0.0
H233 H 0.48028 0.27056 0.55182 0.0
H234 H 0.46916 0.24024 0.50803 0.0
H235 H 0.40578 0.30954 0.55765 0.0
H236 H 0.4217 0.30624 0.50335 0.0
H237 H 0.44518 0.31625 0.55164 0.0
H238 H 0.47315 0.30685 0.39267 0.0
C239 C 0.44641 0.27443 0.43473 0.0
O240 O 0.92813 0.00501 0.50952 0.0
Zn241 Zn 0.96623 0.03273 0.51004 0.0
O242 O 0.00144 0.00288 0.51051 0.0
Zn243 Zn 0.02595 0.01384 0.56429 0.0
Zn244 Zn 0.98879 0.95473 0.51264 0.0
Zn245 Zn 0.02445 0.00985 0.45473 0.0
O246 O 0.06706 0.02935 0.54563 0.0
O247 O 0.06625 0.02508 0.47001 0.0
O248 O 0.96528 0.06346 0.565 0.0
O249 O 0.00775 0.05235 0.60143 0.0
O250 O 0.03024 0.97199 0.60523 0.0
O251 O 0.00401 0.93158 0.56914 0.0
O252 O 0.0048 0.92737 0.46026 0.0
O253 O 0.96648 0.06406 0.45537 0.0
O254 O 0.02803 0.96618 0.41776 0.0
O255 O 0.00572 0.0467 0.41535 0.0
C256 C 0.92296 0.97267 0.50972 0.0
C257 C 0.07988 0.03207 0.50712 0.0
C258 C 0.02028 0.94122 0.60249 0.0
C259 C 0.98338 0.0691 0.59776 0.0
C260 C 0.01964 0.93526 0.42495 0.0
C261 C 0.98322 0.06639 0.42056 0.0
O262 O 0.94411 0.9507 0.51076 0.0
O263 O 0.57659 0.5075 0.00151 0.0
Zn264 Zn 0.53759 0.5339 0.001 0.0
O265 O 0.50346 0.5024 0.00188 0.0
Zn266 Zn 0.47914 0.50983 0.94709 0.0
Zn267 Zn 0.51743 0.45464 0.00228 0.0
Zn268 Zn 0.47982 0.51089 0.05682 0.0
O269 O 0.43831 0.52683 0.96421 0.0
O270 O 0.43778 0.52504 0.04001 0.0
O271 O 0.53654 0.56444 0.94551 0.0
O272 O 0.49728 0.54569 0.90608 0.0
O273 O 0.47393 0.46594 0.9108 0.0
O274 O 0.50063 0.42766 0.94984 0.0
O275 O 0.5044 0.4296 0.05874 0.0
O276 O 0.53717 0.56569 0.05498 0.0
O277 O 0.47761 0.46845 0.09626 0.0
O278 O 0.49786 0.54899 0.09519 0.0
C279 C 0.58267 0.47536 -0.00025 0.0
C280 C 0.42485 0.53094 0.00196 0.0
C281 C 0.4837 0.43533 0.91638 0.0
C282 C 0.51955 0.5658 0.91061 0.0
C283 C 0.4885 0.4382 0.09272 0.0
C284 C 0.52035 0.5686 0.08957 0.0
O285 O 0.56215 0.45262 -0.00097 0.0
C286 C 0.23087 0.13298 0.46514 0.0
C287 C 0.25592 0.11811 0.48609 0.0
C288 C 0.2026 0.11788 0.46929 0.0
C289 C 0.19949 0.08677 0.4942 0.0
C290 C 0.22488 0.07127 0.5147 0.0
C291 C 0.2528 0.08742 0.51088 0.0
C292 C 0.17598 0.13557 0.44774 0.0
C293 C 0.22252 0.03772 0.54063 0.0
C294 C 0.12245 0.06584 0.53969 0.0
C295 C 0.11104 0.04442 0.50521 0.0
C296 C 0.15138 0.0795 0.53683 0.0
C297 C 0.16952 0.07082 0.49913 0.0
C298 C 0.15848 0.04822 0.46504 0.0
C299 C 0.12921 0.03564 0.4682 0.0
C300 C 0.16216 0.10409 0.57335 0.0
C301 C 0.17741 0.03775 0.42491 0.0
H302 H 0.23331 0.15697 0.44646 0.0
H303 H 0.27229 0.07595 0.52693 0.0
H304 H 0.16511 0.11809 0.42271 0.0
H305 H 0.15922 0.14168 0.47427 0.0
H306 H 0.18217 0.15988 0.43004 0.0
H307 H 0.24458 0.02838 0.55298 0.0
H308 H 0.20765 0.04106 0.57042 0.0
H309 H 0.2124 0.01756 0.51853 0.0
H310 H 0.10841 0.07284 0.56823 0.0
H311 H 0.12056 0.0188 0.44169 0.0
H312 H 0.1669 0.12968 0.55798 0.0
H313 H 0.18329 0.09454 0.58866 0.0
H314 H 0.14555 0.10757 0.60097 0.0
H315 H 0.18228 0.06068 0.40354 0.0
H316 H 0.16631 0.01798 0.40321 0.0
H317 H 0.19912 0.02731 0.43701 0.0
C318 C 0.27131 0.63217 0.02186 0.0
C319 C 0.24752 0.61564 -0.00033 0.0
C320 C 0.29982 0.6173 0.0229 0.0
C321 C 0.30446 0.58479 0.002 0.0
C322 C 0.28028 0.56756 0.98053 0.0
C323 C 0.25211 0.58344 0.97913 0.0
C324 C 0.32515 0.63682 0.04528 0.0
C325 C 0.28426 0.53254 0.95874 0.0
C326 C 0.38315 0.56315 0.9645 0.0
C327 C 0.39373 0.54361 0.00148 0.0
C328 C 0.35407 0.57655 0.96416 0.0
C329 C 0.33489 0.56954 0.00121 0.0
C330 C 0.34518 0.54908 0.03812 0.0
C331 C 0.37464 0.53671 0.03809 0.0
C332 C 0.34413 0.59889 0.92465 0.0
C333 C 0.32514 0.54047 0.07774 0.0
H334 H 0.26775 0.65728 0.03732 0.0
H335 H 0.2336 0.57063 0.96221 0.0
H336 H 0.33545 0.62092 0.07261 0.0
H337 H 0.34275 0.64224 0.0198 0.0
H338 H 0.31772 0.66169 0.06033 0.0
H339 H 0.26284 0.52172 0.9459 0.0
H340 H 0.29999 0.53449 0.9298 0.0
H341 H 0.29411 0.51421 0.98373 0.0
H342 H 0.39789 0.56875 0.93627 0.0
H343 H 0.38266 0.52136 0.06657 0.0
H344 H 0.338 0.62496 0.93725 0.0
H345 H 0.32397 0.58771 0.90826 0.0
H346 H 0.36174 0.60172 0.8984 0.0
H347 H 0.31886 0.56446 0.096 0.0
H348 H 0.33598 0.5226 0.10243 0.0
H349 H 0.3042 0.52843 0.06512 0.0
C350 C 0.75285 0.91012 0.48382 0.0
C351 C 0.74513 0.88996 0.52179 0.0
C352 C 0.78119 0.92531 0.48046 0.0
C353 C 0.80211 0.92083 0.51632 0.0
C354 C 0.79418 0.90149 0.55534 0.0
C355 C 0.76596 0.88599 0.55738 0.0
C356 C 0.789 0.94544 0.43806 0.0
C357 C 0.81577 0.89649 0.59457 0.0
C358 C 0.88516 0.92687 0.49369 0.0
C359 C 0.89179 0.9602 0.50945 0.0
C360 C 0.85588 0.91418 0.49446 0.0
C361 C 0.83278 0.93504 0.51235 0.0
C362 C 0.83928 0.96882 0.52798 0.0
C363 C 0.8687 0.98115 0.52589 0.0
C364 C 0.84972 0.87826 0.47663 0.0
C365 C 0.81533 0.99154 0.54809 0.0
H366 H 0.7368 0.91393 0.4565 0.0
H367 H 0.76056 0.87 0.5865 0.0
H368 H 0.79609 0.97198 0.44732 0.0
H369 H 0.80807 0.93294 0.42062 0.0
H370 H 0.76999 0.94715 0.41366 0.0
H371 H 0.8054 0.88291 0.62385 0.0
H372 H 0.83527 0.88122 0.58304 0.0
H373 H 0.82428 0.92185 0.60654 0.0
H374 H 0.90289 0.9107 0.48054 0.0
H375 H 0.87376 0.00686 0.53835 0.0
H376 H 0.83176 0.87909 0.45043 0.0
H377 H 0.8418 0.86153 0.50478 0.0
H378 H 0.86981 0.86617 0.46138 0.0
H379 H 0.79662 0.99466 0.5235 0.0
H380 H 0.82387 0.01754 0.55746 0.0
H381 H 0.80612 0.97914 0.5791 0.0
C382 C 0.75429 0.4155 0.98122 0.0
C383 C 0.76118 0.39509 0.01948 0.0
C384 C 0.726 0.43069 0.976 0.0
C385 C 0.70425 0.42587 0.0102 0.0
C386 C 0.7113 0.40619 0.04947 0.0
C387 C 0.7395 0.39076 0.05339 0.0
C388 C 0.71916 0.45121 0.9334 0.0
C389 C 0.68879 0.40072 0.08694 0.0
C390 C 0.63676 0.48509 0.01746 0.0
C391 C 0.61417 0.46391 -0.00042 0.0
C392 C 0.66638 0.47334 0.02037 0.0
C393 C 0.67358 0.43992 0.0042 0.0
C394 C 0.65105 0.41897 0.98453 0.0
C395 C 0.62158 0.43109 0.98288 0.0
C396 C 0.68972 0.49617 0.04225 0.0
C397 C 0.65794 0.38343 0.96614 0.0
H398 H 0.77097 0.41952 0.95516 0.0
H399 H 0.74423 0.37454 0.08266 0.0
H400 H 0.70068 0.43872 0.91421 0.0
H401 H 0.71159 0.47758 0.94256 0.0
H402 H 0.73878 0.45336 0.91059 0.0
H403 H 0.69848 0.38684 0.11672 0.0
H404 H 0.67991 0.42592 0.09874 0.0
H405 H 0.66964 0.38552 0.07367 0.0
H406 H 0.63113 0.51043 0.03059 0.0
H407 H 0.60426 0.41474 0.96857 0.0
H408 H 0.70904 0.49933 0.01917 0.0
H409 H 0.69814 0.48382 0.07398 0.0
H410 H 0.68084 0.52214 0.05091 0.0
H411 H 0.67659 0.3848 0.94148 0.0
H412 H 0.63836 0.37147 0.94892 0.0
H413 H 0.66519 0.36628 0.99443 0.0
C414 C 0.04155 0.79075 0.23389 0.0
C415 C 0.0717 0.78159 0.22954 0.0
C416 C 0.03226 0.81387 0.26775 0.0
C417 C 0.05358 0.82774 0.29843 0.0
C418 C 0.08373 0.81702 0.29601 0.0
C419 C 0.09248 0.7942 0.2614 0.0
C420 C -0.0001 0.82471 0.26924 0.0
C421 C 0.10702 0.83093 0.32859 0.0
C422 C 0.03847 0.9162 0.34884 0.0
C423 C 0.0279 0.90774 0.39234 0.0
C424 C 0.04672 0.89034 0.31788 0.0
C425 C 0.04472 0.85522 0.33098 0.0
C426 C 0.03419 0.84648 0.37486 0.0
C427 C 0.02571 0.87286 0.40494 0.0
C428 C 0.05752 0.90061 0.2711 0.0
C429 C 0.03212 0.80932 0.39016 0.0
H430 H 0.02528 0.78058 0.20991 0.0
H431 H 0.11586 0.78755 0.25806 0.0
H432 H 0.99089 0.82123 0.30409 0.0
H433 H 0.99802 0.85256 0.26076 0.0
H434 H 0.98582 0.80984 0.24488 0.0
H435 H 0.12876 0.81739 0.32516 0.0
H436 H 0.11055 0.85883 0.32194 0.0
H437 H 0.09934 0.82838 0.36434 0.0
H438 H 0.04011 0.94307 0.33881 0.0
H439 H 0.01776 0.8661 0.43863 0.0
H440 H 0.04321 0.88857 0.24448 0.0
H441 H 0.08058 0.89102 0.26588 0.0
H442 H 0.05735 0.92904 0.26603 0.0
H443 H 0.01711 0.79471 0.36695 0.0
H444 H 0.02362 0.80689 0.42554 0.0
H445 H 0.05443 0.79697 0.38844 0.0
C446 C 0.52556 0.7126 0.71889 0.0
C447 C 0.5536 0.71288 0.69814 0.0
C448 C 0.51984 0.69064 0.75593 0.0
C449 C 0.54246 0.6678 0.77137 0.0
C450 C 0.57095 0.66845 0.75082 0.0
C451 C 0.57627 0.69132 0.71475 0.0
C452 C 0.48945 0.69131 0.77784 0.0
C453 C 0.59542 0.64395 0.76556 0.0
C454 C 0.53779 0.62389 0.88688 0.0
C455 C 0.52538 0.59187 0.8751 0.0
C456 C 0.54274 0.64928 0.85362 0.0
C457 C 0.53596 0.64196 0.8074 0.0
C458 C 0.5237 0.60949 0.79531 0.0
C459 C 0.51812 0.58501 0.82946 0.0
C460 C 0.55506 0.68394 0.86793 0.0
C461 C 0.51694 0.60039 0.74622 0.0
H462 H 0.50809 0.72937 0.70587 0.0
H463 H 0.59783 0.69131 0.69813 0.0
H464 H 0.47778 0.66653 0.77132 0.0
H465 H 0.49175 0.69416 0.81536 0.0
H466 H 0.47532 0.7127 0.76459 0.0
H467 H 0.61654 0.6484 0.74682 0.0
H468 H 0.59992 0.64674 0.80262 0.0
H469 H 0.58817 0.61691 0.75963 0.0
H470 H 0.54307 0.62936 0.92229 0.0
H471 H 0.50864 0.56018 0.82033 0.0
H472 H 0.54 0.70488 0.85602 0.0
H473 H 0.57707 0.68827 0.85182 0.0
H474 H 0.55779 0.68608 0.90552 0.0
H475 H 0.50046 0.61883 0.73179 0.0
H476 H 0.50795 0.5738 0.7425 0.0
H477 H 0.53753 0.60256 0.72557 0.0
C478 C 0.97407 0.21704 0.23471 0.0
C479 C 0.94658 0.2162 0.21186 0.0
C480 C 0.97977 0.19485 0.27161 0.0
C481 C 0.95775 0.17063 0.28473 0.0
C482 C 0.92968 0.17032 0.2623 0.0
C483 C 0.92431 0.19346 0.22641 0.0
C484 C 0.00965 0.19657 0.29555 0.0
C485 C 0.90589 0.14437 0.27457 0.0
C486 C 0.98473 0.08775 0.34033 0.0
C487 C 0.97671 0.09303 0.38591 0.0
C488 C 0.97848 0.11275 0.30701 0.0
C489 C 0.96467 0.14416 0.3199 0.0
C490 C 0.95702 0.14989 0.36605 0.0
C491 C 0.96276 0.124 0.39844 0.0
C492 C 0.9863 0.10536 0.25791 0.0
C493 C 0.943 0.18341 0.38122 0.0
H494 H 0.99123 0.23469 0.2232 0.0
H495 H 0.90321 0.1926 0.20813 0.0
H496 H 0.00654 0.19802 0.33303 0.0
H497 H 0.02255 0.17275 0.28838 0.0
H498 H 0.02301 0.21917 0.28442 0.0
H499 H 0.88485 0.14854 0.2551 0.0
H500 H 0.91411 0.11788 0.26742 0.0
H501 H 0.90091 0.14572 0.31153 0.0
H502 H 0.99537 0.06373 0.33056 0.0
H503 H 0.95684 0.12829 0.4338 0.0
H504 H 0.00229 0.12495 0.2453 0.0
H505 H 0.96597 0.10712 0.23623 0.0
H506 H 0.99634 0.07934 0.25345 0.0
H507 H 0.95741 0.20544 0.37136 0.0
H508 H 0.93945 0.18429 0.41868 0.0
H509 H 0.92116 0.18707 0.36386 0.0
C510 C 0.46217 0.29167 0.72447 0.0
C511 C 0.43224 0.28159 0.71971 0.0
C512 C 0.47101 0.31494 0.75858 0.0
C513 C 0.44949 0.32797 0.78921 0.0
C514 C 0.41961 0.31631 0.7864 0.0
C515 C 0.41128 0.29341 0.75147 0.0
C516 C 0.50309 0.32683 0.76042 0.0
C517 C 0.39614 0.32923 0.81898 0.0
C518 C 0.4777 0.37298 0.89609 0.0
C519 C 0.47485 0.40789 0.88389 0.0
C520 C 0.46912 0.34664 0.8659 0.0
C521 C 0.45788 0.35544 0.82223 0.0
C522 C 0.45505 0.39061 0.80964 0.0
C523 C 0.46334 0.41643 0.84078 0.0
C524 C 0.47198 0.30944 0.88074 0.0
C525 C 0.44353 0.40097 0.76308 0.0
H526 H 0.47862 0.28209 0.70063 0.0
H527 H 0.38806 0.28607 0.74784 0.0
H528 H 0.5042 0.35484 0.75263 0.0
H529 H 0.51243 0.32317 0.79521 0.0
H530 H 0.51738 0.31278 0.73576 0.0
H531 H 0.37475 0.31497 0.81528 0.0
H532 H 0.40408 0.32676 0.85475 0.0
H533 H 0.39183 0.35703 0.81258 0.0
H534 H 0.48633 0.36619 0.92953 0.0
H535 H 0.46119 0.44334 0.83109 0.0
H536 H 0.48738 0.29547 0.8577 0.0
H537 H 0.44997 0.29643 0.87831 0.0
H538 H 0.48046 0.30698 0.91629 0.0
H539 H 0.45793 0.38971 0.73623 0.0
H540 H 0.44288 0.42944 0.75852 0.0
H541 H 0.42071 0.39061 0.75772 0.0
C542 C 0.59165 0.69275 0.27537 0.0
C543 C 0.57163 0.71698 0.29305 0.0
C544 C 0.5826 0.66932 0.24157 0.0
C545 C 0.55302 0.6708 0.22438 0.0
C546 C 0.53298 0.69602 0.2412 0.0
C547 C 0.54243 0.71853 0.27594 0.0
C548 C 0.60441 0.64232 0.22527 0.0
C549 C 0.50154 0.69897 0.22283 0.0
C550 C 0.54058 0.62645 0.11047 0.0
C551 C 0.5273 0.59533 0.12388 0.0
C552 C 0.54807 0.65183 0.1427 0.0
C553 C 0.543 0.6454 0.18954 0.0
C554 C 0.52947 0.61403 0.20324 0.0
C555 C 0.52135 0.58956 0.1701 0.0
C556 C 0.56165 0.68535 0.12668 0.0
C557 C 0.5244 0.60589 0.25297 0.0
H558 H 0.61411 0.69136 0.28922 0.0
H559 H 0.52703 0.73735 0.28983 0.0
H560 H 0.59538 0.61614 0.23202 0.0
H561 H 0.60756 0.64457 0.1879 0.0
H562 H 0.62655 0.64462 0.24227 0.0
H563 H 0.48942 0.72137 0.23749 0.0
H564 H 0.50191 0.70167 0.18515 0.0
H565 H 0.48891 0.67511 0.23072 0.0
H566 H 0.5449 0.63108 0.07463 0.0
H567 H 0.51124 0.5654 0.18048 0.0
H568 H 0.58483 0.68762 0.13979 0.0
H569 H 0.54887 0.70756 0.14041 0.0
H570 H 0.56209 0.68732 0.08888 0.0
H571 H 0.54608 0.60575 0.27149 0.0
H572 H 0.51343 0.58045 0.25789 0.0
H573 H 0.51034 0.62614 0.26878 0.0
C574 C 0.9357 0.17904 0.81337 0.0
C575 C 0.93556 0.21484 0.80627 0.0
C576 C 0.94381 0.15625 0.7785 0.0
C577 C 0.95234 0.16962 0.73559 0.0
C578 C 0.95237 0.20579 0.72821 0.0
C579 C 0.94369 0.22803 0.76363 0.0
C580 C 0.94301 0.11785 0.78749 0.0
C581 C 0.96169 0.22093 0.68305 0.0
C582 C 0.99766 0.10859 0.66198 0.0
C583 C 0.97578 0.09565 0.63214 0.0
C584 C 0.99055 0.13357 0.69488 0.0
C585 C 0.96078 0.14548 0.69844 0.0
C586 C 0.93866 0.13277 0.66816 0.0
C587 C 0.94647 0.10819 0.63519 0.0
C588 C 0.01479 0.14685 0.72627 0.0
C589 C 0.90658 0.14446 0.67136 0.0
H590 H 0.92899 0.16883 0.84618 0.0
H591 H 0.94371 0.25573 0.75828 0.0
H592 H 0.9276 0.10511 0.76296 0.0
H593 H 0.96547 0.10652 0.7823 0.0
H594 H 0.93563 0.1117 0.82268 0.0
H595 H 0.96103 0.24961 0.68312 0.0
H596 H 0.98468 0.21243 0.67473 0.0
H597 H 0.94681 0.21135 0.65546 0.0
H598 H 0.0204 0.09927 0.65957 0.0
H599 H 0.9294 0.09829 0.61233 0.0
H600 H 0.00988 0.13928 0.76194 0.0
H601 H 0.01549 0.17549 0.7252 0.0
H602 H 0.03716 0.13668 0.71714 0.0
H603 H 0.89738 0.13709 0.70504 0.0
H604 H 0.89229 0.13298 0.64423 0.0
H605 H 0.90523 0.173 0.66879 0.0
C606 C 0.42615 0.30641 0.27802 0.0
C607 C 0.44865 0.29581 0.30846 0.0
C608 C 0.43284 0.32689 0.23996 0.0
C609 C 0.46265 0.33749 0.23262 0.0
C610 C 0.48563 0.32562 0.26197 0.0
C611 C 0.47839 0.30463 0.29925 0.0
C612 C 0.4078 0.33855 0.20889 0.0
C613 C 0.51767 0.33651 0.25538 0.0
C614 C 0.48452 0.37694 0.11904 0.0
C615 C 0.4822 0.41237 0.1285 0.0
C616 C 0.47795 0.35217 0.15245 0.0
C617 C 0.46943 0.36316 0.19652 0.0
C618 C 0.46739 0.39888 0.2064 0.0
C619 C 0.47353 0.42305 0.17213 0.0
C620 C 0.47979 0.3143 0.14048 0.0
C621 C 0.45885 0.41159 0.25327 0.0
H622 H 0.40308 0.30008 0.28497 0.0
H623 H 0.496 0.29591 0.32199 0.0
H624 H 0.40406 0.36667 0.21331 0.0
H625 H 0.41377 0.33418 0.17267 0.0
H626 H 0.38656 0.32486 0.2161 0.0
H627 H 0.53314 0.3232 0.27936 0.0
H628 H 0.52487 0.33108 0.21997 0.0
H629 H 0.51967 0.36479 0.26079 0.0
H630 H 0.49098 0.36854 0.08523 0.0
H631 H 0.47188 0.45039 0.17969 0.0
H632 H 0.45783 0.30183 0.14601 0.0
H633 H 0.49612 0.30116 0.16316 0.0
H634 H 0.48652 0.31005 0.1045 0.0
H635 H 0.43624 0.40215 0.26208 0.0
H636 H 0.45894 0.44023 0.25563 0.0
H637 H 0.47458 0.40114 0.27919 0.0
C638 C 0.02955 0.80828 0.80873 0.0
C639 C 0.0589 0.79817 0.81912 0.0
C640 C 0.02339 0.83013 0.77175 0.0
C641 C 0.04706 0.8416 0.74387 0.0
C642 C 0.07649 0.82995 0.75253 0.0
C643 C 0.0821 0.80858 0.79028 0.0
C644 C 0.9917 0.84208 0.76367 0.0
C645 C 0.10222 0.84113 0.72299 0.0
C646 C 0.02594 0.88033 0.62928 0.0
C647 C 0.02787 0.91585 0.63842 0.0
C648 C 0.03276 0.85582 0.66298 0.0
C649 C 0.04116 0.86713 0.7071 0.0
C650 C 0.04323 0.90293 0.71653 0.0
C651 C 0.03683 0.92689 0.68191 0.0
C652 C 0.03089 0.81787 0.65144 0.0
C653 C 0.0517 0.91594 0.76342 0.0
H654 H 0.01141 0.79976 0.83025 0.0
H655 H 0.10489 0.80124 0.79823 0.0
H656 H 0.99037 0.87051 0.7681 0.0
H657 H 0.98466 0.83624 0.72817 0.0
H658 H 0.97569 0.82975 0.78743 0.0
H659 H 0.12317 0.82716 0.73156 0.0
H660 H 0.09686 0.83671 0.68646 0.0
H661 H 0.10616 0.86922 0.72742 0.0
H662 H 0.01932 0.87163 0.59556 0.0
H663 H 0.03825 0.95429 0.68919 0.0
H664 H 0.0137 0.80525 0.6728 0.0
H665 H 0.05248 0.80504 0.65914 0.0
H666 H 0.02521 0.81338 0.61498 0.0
H667 H 0.03543 0.90643 0.78888 0.0
H668 H 0.05236 0.94459 0.76512 0.0
H669 H 0.07393 0.90576 0.77342 0.0
loop_
_geom_bond_atom_site_label_1
_geom_bond_atom_site_label_2
_geom_bond_distance
_geom_bond_site_symmetry_2
_ccdc_geom_bond_type
C0 C1 1.391 . S
C0 C4 1.391 . S
C0 H42 0.948 . S
C1 C0 1.391 . S
C1 C2 1.391 . S
C2 C1 1.391 . S
C2 H58 0.947 . S
C2 C59 1.392 . S
C3 C4 1.391 . S
C3 C7 1.397 . S
C3 C59 1.419 . S
C4 C0 1.391 . S
C4 C3 1.391 . S
C4 C5 1.399 . S
C5 C4 1.399 . S
C5 C8 1.396 . S
C5 C17 1.453 . S
C5 C18 1.684 . S
H6 C30 0.948 . S
C7 C3 1.397 . S
C7 C8 1.394 . S
C7 C26 1.723 1_556 S
C8 C5 1.396 . S
C8 C7 1.394 . S
C8 C38 1.723 1_556 S
H9 C32 0.947 . S
H10 C33 0.948 . S
H11 C39 0.982 . S
H12 C40 0.979 . S
H13 C40 0.980 . S
H14 C40 0.983 . S
H15 C39 0.979 . S
H16 C39 0.977 . S
C17 C5 1.453 . S
C17 H46 0.982 . S
C17 H47 0.979 . S
C17 H48 0.977 . S
C18 C5 1.684 . S
C18 H43 0.979 . S
C18 H44 0.980 . S
C18 H45 0.983 . S
C19 C20 1.391 . S
C19 C24 1.391 . S
C19 H49 0.948 . S
C20 C19 1.391 . S
C20 C21 1.391 . S
C21 C20 1.391 . S
C21 C22 1.392 . S
C21 H50 0.947 . S
C22 C21 1.392 . S
C22 C23 1.419 . S
C22 H51 0.948 . S
C23 C22 1.419 . S
C23 C24 1.391 . S
C23 C27 1.397 . S
C24 C19 1.391 . S
C24 C23 1.391 . S
C24 C25 1.399 . S
C25 C24 1.399 . S
C25 C26 1.396 . S
C25 C28 1.453 . S
C25 C29 1.684 . S
C26 C7 1.723 1_554 S
C26 C25 1.396 . S
C26 C27 1.394 . S
C27 C23 1.397 . S
C27 C26 1.394 . S
C27 C37 1.723 . S
C28 C25 1.453 . S
C28 H52 0.982 . S
C28 H53 0.979 . S
C28 H54 0.977 . S
C29 C25 1.684 . S
C29 H55 0.979 . S
C29 H56 1.004 . S
C29 H57 0.983 . S
C30 H6 0.948 . S
C30 C31 1.391 . S
C30 C35 1.391 . S
C31 C30 1.391 . S
C31 C32 1.391 1_554 S
C32 H9 0.947 . S
C32 C31 1.391 1_556 S
C32 C33 1.392 . S
C33 H10 0.948 . S
C33 C32 1.392 . S
C33 C34 1.419 . S
C34 C33 1.419 . S
C34 C35 1.391 1_556 S
C34 C38 1.397 1_556 S
C35 C30 1.391 . S
C35 C34 1.391 1_554 S
C35 C36 1.399 . S
C36 C35 1.399 . S
C36 C37 1.396 . S
C36 C39 1.453 . S
C36 C40 1.684 . S
C37 C27 1.723 . S
C37 C36 1.396 . S
C37 C38 1.394 . S
C38 C8 1.723 1_554 S
C38 C34 1.397 1_554 S
C38 C37 1.394 . S
C39 H11 0.982 . S
C39 H15 0.979 . S
C39 H16 0.977 . S
C39 C36 1.453 . S
C40 H12 0.979 . S
C40 H13 0.980 . S
C40 H14 0.983 . S
C40 C36 1.684 . S
H41 C59 0.948 . S
H42 C0 0.948 . S
H43 C18 0.979 . S
H44 C18 0.980 . S
H45 C18 0.983 . S
H46 C17 0.982 . S
H47 C17 0.979 . S
H48 C17 0.977 . S
H49 C19 0.948 . S
H50 C21 0.947 . S
H51 C22 0.948 . S
H52 C28 0.982 . S
H53 C28 0.979 . S
H54 C28 0.977 . S
H55 C29 0.979 . S
H56 C29 1.004 . S
H57 C29 0.983 . S
H58 C2 0.947 . S
C59 C2 1.392 . S
C59 C3 1.419 . S
C59 H41 0.948 . S
C60 C61 1.391 . S
C60 C64 1.391 . S
C60 H102 0.948 . S
C61 C60 1.391 . S
C61 C62 1.391 . S
C62 C61 1.391 . S
C62 H118 0.947 . S
C62 C119 1.392 . S
C63 C64 1.391 . S
C63 C67 1.397 . S
C63 C119 1.419 . S
C64 C60 1.391 . S
C64 C63 1.391 . S
C64 C65 1.399 . S
C65 C64 1.399 . S
C65 C68 1.396 . S
C65 C77 1.453 . S
C65 C78 1.684 . S
H66 C90 0.948 . S
C67 C63 1.397 . S
C67 C68 1.394 . S
C67 C86 1.723 . S
C68 C65 1.396 . S
C68 C67 1.394 . S
C68 C98 1.723 . S
H69 C92 0.947 . S
H70 C93 0.948 . S
H71 C99 0.982 . S
H72 C100 0.979 . S
H73 C100 0.980 . S
H74 C100 0.983 . S
H75 C99 0.979 . S
H76 C99 0.977 . S
C77 C65 1.453 . S
C77 H106 0.982 . S
C77 H107 0.979 . S
C77 H108 0.977 . S
C78 C65 1.684 . S
C78 H103 0.979 . S
C78 H104 0.980 . S
C78 H105 0.983 . S
C79 C80 1.391 . S
C79 C84 1.391 . S
C79 H109 0.948 . S
C80 C79 1.391 . S
C80 C81 1.391 . S
C81 C80 1.391 . S
C81 C82 1.392 . S
C81 H110 0.947 . S
C82 C81 1.392 . S
C82 C83 1.419 . S
C82 H111 0.948 . S
C83 C82 1.419 . S
C83 C84 1.391 . S
C83 C87 1.397 . S
C84 C79 1.391 . S
C84 C83 1.391 . S
C84 C85 1.399 . S
C85 C84 1.399 . S
C85 C86 1.396 . S
C85 C88 1.453 . S
C85 C89 1.684 . S
C86 C67 1.723 . S
C86 C85 1.396 . S
C86 C87 1.394 . S
C87 C83 1.397 . S
C87 C86 1.394 . S
C87 C97 1.723 . S
C88 C85 1.453 . S
C88 H112 0.982 . S
C88 H113 0.979 . S
C88 H114 0.977 . S
C89 C85 1.684 . S
C89 H115 0.979 . S
C89 H116 0.980 . S
C89 H117 0.983 . S
C90 H66 0.948 . S
C90 C91 1.391 . S
C90 C95 1.391 . S
C91 C90 1.391 . S
C91 C92 1.391 . S
C92 H69 0.947 . S
C92 C91 1.391 . S
C92 C93 1.392 . S
C93 H70 0.948 . S
C93 C92 1.392 . S
C93 C94 1.419 . S
C94 C93 1.419 . S
C94 C95 1.391 . S
C94 C98 1.397 . S
C95 C90 1.391 . S
C95 C94 1.391 . S
C95 C96 1.399 . S
C96 C95 1.399 . S
C96 C97 1.396 . S
C96 C99 1.453 . S
C96 C100 1.684 . S
C97 C87 1.723 . S
C97 C96 1.396 . S
C97 C98 1.394 . S
C98 C68 1.723 . S
C98 C94 1.397 . S
C98 C97 1.394 . S
C99 H71 0.982 . S
C99 H75 0.979 . S
C99 H76 0.977 . S
C99 C96 1.453 . S
C100 H72 0.979 . S
C100 H73 0.980 . S
C100 H74 0.983 . S
C100 C96 1.684 . S
H101 C119 0.948 . S
H102 C60 0.948 . S
H103 C78 0.979 . S
H104 C78 0.980 . S
H105 C78 0.983 . S
H106 C77 0.982 . S
H107 C77 0.979 . S
H108 C77 0.977 . S
H109 C79 0.948 . S
H110 C81 0.947 . S
H111 C82 0.948 . S
H112 C88 0.982 . S
H113 C88 0.979 . S
H114 C88 0.977 . S
H115 C89 0.979 . S
H116 C89 0.980 . S
H117 C89 0.983 . S
H118 C62 0.947 . S
C119 C62 1.392 . S
C119 C63 1.419 . S
C119 H101 0.948 . S
C120 C121 1.391 . S
C120 C124 1.391 . S
C120 H162 0.948 . S
C121 C120 1.391 . S
C121 C122 1.391 . S
C122 C121 1.391 . S
C122 H178 0.947 . S
C122 C179 1.392 . S
C123 C124 1.391 . S
C123 C127 1.397 . S
C123 C179 1.419 . S
C124 C120 1.391 . S
C124 C123 1.391 . S
C124 C125 1.399 . S
C125 C124 1.399 . S
C125 C128 1.396 . S
C125 C137 1.453 . S
C125 C138 1.684 . S
H126 C150 0.948 . S
C127 C123 1.397 . S
C127 C128 1.394 . S
C127 C146 1.723 1_554 S
C128 C125 1.396 . S
C128 C127 1.394 . S
C128 C158 1.723 . S
H129 C152 0.947 . S
H130 C153 0.948 . S
H131 C159 0.982 . S
H132 C160 0.979 . S
H133 C160 0.980 . S
H134 C160 0.983 . S
H135 C159 0.979 . S
H136 C159 0.977 . S
C137 C125 1.453 . S
C137 H166 0.982 . S
C137 H167 0.979 . S
C137 H168 0.977 . S
C138 C125 1.684 . S
C138 H163 0.979 . S
C138 H164 0.980 . S
C138 H165 0.983 . S
C139 C140 1.391 . S
C139 C144 1.391 . S
C139 H169 0.948 . S
C140 C139 1.391 . S
C140 C141 1.391 . S
C141 C140 1.391 . S
C141 C142 1.392 . S
C141 H170 0.947 . S
C142 C141 1.392 . S
C142 C143 1.419 . S
C142 H171 0.948 . S
C143 C142 1.419 . S
C143 C144 1.391 . S
C143 C147 1.397 . S
C144 C139 1.391 . S
C144 C143 1.391 . S
C144 C145 1.399 . S
C145 C144 1.399 . S
C145 C146 1.396 . S
C145 C148 1.453 . S
C145 C149 1.684 . S
C146 C127 1.723 1_556 S
C146 C145 1.396 . S
C146 C147 1.394 . S
C147 C143 1.397 . S
C147 C146 1.394 . S
C147 C157 1.723 . S
C148 C145 1.453 . S
C148 H172 0.982 . S
C148 H173 0.979 . S
C148 H174 0.977 1_556 S
C149 C145 1.684 . S
C149 H175 0.979 . S
C149 H176 0.980 1_556 S
C149 H177 0.983 . S
C150 H126 0.948 . S
C150 C151 1.391 1_556 S
C150 C155 1.391 . S
C151 C150 1.391 1_554 S
C151 C152 1.391 . S
C152 H129 0.947 . S
C152 C151 1.391 . S
C152 C153 1.392 . S
C153 H130 0.948 . S
C153 C152 1.392 . S
C153 C154 1.419 . S
C154 C153 1.419 . S
C154 C155 1.391 1_554 S
C154 C158 1.397 . S
C155 C150 1.391 . S
C155 C154 1.391 1_556 S
C155 C156 1.399 . S
C156 C155 1.399 . S
C156 C157 1.396 . S
C156 C159 1.453 . S
C156 C160 1.684 . S
C157 C147 1.723 . S
C157 C156 1.396 . S
C157 C158 1.394 1_556 S
C158 C128 1.723 . S
C158 C154 1.397 . S
C158 C157 1.394 1_554 S
C159 H131 0.982 . S
C159 H135 0.979 . S
C159 H136 0.977 . S
C159 C156 1.453 . S
C160 H132 0.979 . S
C160 H133 0.980 . S
C160 H134 0.983 . S
C160 C156 1.684 . S
H161 C179 0.948 . S
H162 C120 0.948 . S
H163 C138 0.979 . S
H164 C138 0.980 . S
H165 C138 0.983 . S
H166 C137 0.982 . S
H167 C137 0.979 . S
H168 C137 0.977 . S
H169 C139 0.948 . S
H170 C141 0.947 . S
H171 C142 0.948 . S
H172 C148 0.982 . S
H173 C148 0.979 . S
H174 C148 0.977 1_554 S
H175 C149 0.979 . S
H176 C149 0.980 1_554 S
H177 C149 0.983 . S
H178 C122 0.947 . S
C179 C122 1.392 . S
C179 C123 1.419 . S
C179 H161 0.948 . S
C180 C181 1.391 . S
C180 C184 1.391 . S
C180 H222 0.948 . S
C181 C180 1.391 . S
C181 C182 1.391 . S
C182 C181 1.391 . S
C182 H238 0.947 . S
C182 C239 1.392 . S
C183 C184 1.391 . S
C183 C187 1.397 . S
C183 C239 1.419 . S
C184 C180 1.391 . S
C184 C183 1.391 . S
C184 C185 1.399 . S
C185 C184 1.399 . S
C185 C188 1.396 . S
C185 C197 1.453 . S
C185 C198 1.684 . S
H186 C210 0.948 . S
C187 C183 1.397 . S
C187 C188 1.394 . S
C187 C206 1.723 . S
C188 C185 1.396 . S
C188 C187 1.394 . S
C188 C218 1.723 . S
H189 C212 0.947 . S
H190 C213 0.948 . S
H191 C219 0.982 . S
H192 C220 0.979 . S
H193 C220 0.980 . S
H194 C220 0.983 . S
H195 C219 0.979 . S
H196 C219 0.977 . S
C197 C185 1.453 . S
C197 H226 0.982 . S
C197 H227 0.979 . S
C197 H228 0.977 . S
C198 C185 1.684 . S
C198 H223 0.979 . S
C198 H224 0.980 . S
C198 H225 0.983 . S
C199 C200 1.391 . S
C199 C204 1.391 . S
C199 H229 0.948 . S
C200 C199 1.391 . S
C200 C201 1.391 . S
C201 C200 1.391 . S
C201 C202 1.392 . S
C201 H230 0.947 . S
C202 C201 1.392 . S
C202 C203 1.419 . S
C202 H231 0.948 . S
C203 C202 1.419 . S
C203 C204 1.391 . S
C203 C207 1.397 . S
C204 C199 1.391 . S
C204 C203 1.391 . S
C204 C205 1.399 . S
C205 C204 1.399 . S
C205 C206 1.396 . S
C205 C208 1.453 . S
C205 C209 1.684 . S
C206 C187 1.723 . S
C206 C205 1.396 . S
C206 C207 1.394 . S
C207 C203 1.397 . S
C207 C206 1.394 . S
C207 C217 1.723 . S
C208 C205 1.453 . S
C208 H232 0.982 . S
C208 H233 0.979 . S
C208 H234 0.977 . S
C209 C205 1.684 . S
C209 H235 0.979 . S
C209 H236 0.980 . S
C209 H237 0.983 . S
C210 H186 0.948 . S
C210 C211 1.391 . S
C210 C215 1.391 . S
C211 C210 1.391 . S
C211 C212 1.391 . S
C212 H189 0.947 . S
C212 C211 1.391 . S
C212 C213 1.392 . S
C213 H190 0.948 . S
C213 C212 1.392 . S
C213 C214 1.419 . S
C214 C213 1.419 . S
C214 C215 1.391 . S
C214 C218 1.397 . S
C215 C210 1.391 . S
C215 C214 1.391 . S
C215 C216 1.399 . S
C216 C215 1.399 . S
C216 C217 1.396 . S
C216 C219 1.453 . S
C216 C220 1.684 . S
C217 C207 1.723 . S
C217 C216 1.396 . S
C217 C218 1.394 . S
C218 C188 1.723 . S
C218 C214 1.397 . S
C218 C217 1.394 . S
C219 H191 0.982 . S
C219 H195 0.979 . S
C219 H196 0.977 . S
C219 C216 1.453 . S
C220 H192 0.979 . S
C220 H193 0.980 . S
C220 H194 0.983 . S
C220 C216 1.684 . S
H221 C239 0.948 . S
H222 C180 0.948 . S
H223 C198 0.979 . S
H224 C198 0.980 . S
H225 C198 0.983 . S
H226 C197 0.982 . S
H227 C197 0.979 . S
H228 C197 0.977 . S
H229 C199 0.948 . S
H230 C201 0.947 . S
H231 C202 0.948 . S
H232 C208 0.982 . S
H233 C208 0.979 . S
H234 C208 0.977 . S
H235 C209 0.979 . S
H236 C209 0.980 . S
H237 C209 0.983 . S
H238 C182 0.947 . S
C239 C182 1.392 . S
C239 C183 1.419 . S
C239 H221 0.948 . S
O240 Zn241 1.953 1_565 S
O240 C256 1.225 . S
Zn241 O240 1.953 1_545 S
Zn241 O242 1.949 1_655 S
Zn241 O248 1.919 . S
Zn241 O253 1.924 . S
O242 Zn241 1.949 1_455 S
O242 Zn243 1.923 . S
O242 Zn244 1.950 1_445 S
O242 Zn245 1.945 . S
Zn243 O242 1.923 . S
Zn243 O246 1.933 . S
Zn243 O249 1.941 . S
Zn243 O250 1.965 1_545 S
Zn244 O242 1.950 1_665 S
Zn244 O251 1.938 1_655 S
Zn244 O252 1.906 1_655 S
Zn244 O262 1.953 . S
Zn245 O242 1.945 . S
Zn245 O247 1.932 . S
Zn245 O254 1.977 1_545 S
Zn245 O255 1.910 1_455 S
O246 Zn243 1.933 . S
O246 C257 1.226 . S
O247 Zn245 1.932 . S
O247 C257 1.307 . S
O248 Zn241 1.919 . S
O248 C259 1.253 . S
O249 Zn243 1.941 . S
O249 C259 1.283 1_455 S
O250 Zn243 1.965 1_565 S
O250 C258 1.303 . S
O251 Zn244 1.938 1_455 S
O251 C258 1.247 . S
O252 Zn244 1.906 1_455 S
O252 C260 1.304 . S
O253 Zn241 1.924 . S
O253 C261 1.311 . S
O254 Zn245 1.977 1_565 S
O254 C260 1.272 . S
O255 Zn245 1.910 1_655 S
O255 C261 1.231 . S
C256 O240 1.225 . S
C256 O262 1.298 . S
C257 O246 1.226 . S
C257 O247 1.307 . S
C258 O250 1.303 . S
C258 O251 1.247 . S
C259 O248 1.253 . S
C259 O249 1.283 1_655 S
C260 O252 1.304 . S
C260 O254 1.272 . S
C261 O253 1.311 . S
C261 O255 1.231 . S
O262 Zn244 1.953 . S
O262 C256 1.298 . S
O263 Zn264 1.953 . S
O263 C279 1.225 1_556 S
Zn264 O263 1.953 . S
Zn264 O265 1.949 1_556 S
Zn264 O271 1.917 . S
Zn264 O276 1.927 1_556 S
O265 Zn264 1.949 1_554 S
O265 Zn266 1.923 1_554 S
O265 Zn267 1.950 . S
O265 Zn268 1.945 . S
Zn266 O265 1.923 1_556 S
Zn266 O269 1.933 . S
Zn266 O272 1.941 . S
Zn266 O273 1.965 . S
Zn267 O265 1.950 . S
Zn267 O274 1.938 1_554 S
Zn267 O275 1.906 . S
Zn267 O285 1.953 . S
Zn268 O265 1.945 . S
Zn268 O270 1.932 . S
Zn268 O277 1.977 . S
Zn268 O278 1.910 . S
O269 Zn266 1.933 . S
O269 C280 1.226 1_556 S
O270 Zn268 1.932 . S
O270 C280 1.307 . S
O271 Zn264 1.917 . S
O271 C282 1.253 . S
O272 Zn266 1.941 . S
O272 C282 1.283 . S
O273 Zn266 1.965 . S
O273 C281 1.303 . S
O274 Zn267 1.938 1_556 S
O274 C281 1.247 . S
O275 Zn267 1.906 . S
O275 C283 1.304 . S
O276 Zn264 1.927 1_554 S
O276 C284 1.311 . S
O277 Zn268 1.977 . S
O277 C283 1.272 . S
O278 Zn268 1.910 . S
O278 C284 1.231 . S
C279 O263 1.225 1_554 S
C279 O285 1.298 . S
C280 O269 1.226 1_554 S
C280 O270 1.307 . S
C281 O273 1.303 . S
C281 O274 1.247 . S
C282 O271 1.253 . S
C282 O272 1.283 . S
C283 O275 1.304 . S
C283 O277 1.272 . S
C284 O276 1.311 . S
C284 O278 1.231 . S
O285 Zn267 1.953 . S
O285 C279 1.298 . S
C286 C287 1.391 . S
C286 C288 1.394 . S
C286 H302 0.931 . S
C287 C286 1.391 . S
C287 C291 1.376 . S
C288 C286 1.394 . S
C288 C289 1.369 . S
C288 C292 1.531 . S
C289 C288 1.369 . S
C289 C290 1.410 . S
C289 C297 1.503 . S
C290 C289 1.410 . S
C290 C291 1.392 . S
C290 C293 1.511 . S
C291 C287 1.376 . S
C291 C290 1.392 . S
C291 H303 0.929 . S
C292 C288 1.531 . S
C292 H304 0.960 . S
C292 H305 0.962 . S
C292 H306 0.960 . S
C293 C290 1.511 . S
C293 H307 0.961 . S
C293 H308 0.961 . S
C293 H309 0.961 . S
C294 C295 1.370 . S
C294 C296 1.363 . S
C294 H310 0.931 . S
C295 C294 1.370 . S
C295 C299 1.408 . S
C296 C294 1.363 . S
C296 C297 1.370 . S
C296 C300 1.524 . S
C297 C289 1.503 . S
C297 C296 1.370 . S
C297 C298 1.403 . S
C298 C297 1.403 . S
C298 C299 1.404 . S
C298 C301 1.539 . S
C299 C295 1.408 . S
C299 C298 1.404 . S
C299 H311 0.930 . S
C300 C296 1.524 . S
C300 H312 0.956 . S
C300 H313 0.961 . S
C300 H314 0.961 . S
C301 C298 1.539 . S
C301 H315 0.958 . S
C301 H316 0.961 . S
C301 H317 0.960 . S
H302 C286 0.931 . S
H303 C291 0.929 . S
H304 C292 0.960 . S
H305 C292 0.962 . S
H306 C292 0.960 . S
H307 C293 0.961 . S
H308 C293 0.961 . S
H309 C293 0.961 . S
H310 C294 0.931 . S
H311 C299 0.930 . S
H312 C300 0.956 . S
H313 C300 0.961 . S
H314 C300 0.961 . S
H315 C301 0.958 . S
H316 C301 0.961 . S
H317 C301 0.960 . S
C318 C319 1.391 . S
C318 C320 1.394 . S
C318 H334 0.931 . S
C319 C318 1.391 . S
C319 C323 1.376 1_554 S
C320 C318 1.394 . S
C320 C321 1.369 . S
C320 C324 1.531 . S
C321 C320 1.369 . S
C321 C322 1.410 1_554 S
C321 C329 1.503 . S
C322 C321 1.410 1_556 S
C322 C323 1.392 . S
C322 C325 1.511 . S
C323 C319 1.376 1_556 S
C323 C322 1.392 . S
C323 H335 0.929 . S
C324 C320 1.531 . S
C324 H336 0.960 . S
C324 H337 0.962 . S
C324 H338 0.960 . S
C325 C322 1.511 . S
C325 H339 0.961 . S
C325 H340 0.961 . S
C325 H341 0.961 . S
C326 C327 1.370 1_556 S
C326 C328 1.363 . S
C326 H342 0.931 . S
C327 C326 1.370 1_554 S
C327 C331 1.408 . S
C328 C326 1.363 . S
C328 C329 1.370 1_556 S
C328 C332 1.524 . S
C329 C321 1.503 . S
C329 C328 1.370 1_554 S
C329 C330 1.403 . S
C330 C329 1.403 . S
C330 C331 1.404 . S
C330 C333 1.539 . S
C331 C327 1.408 . S
C331 C330 1.404 . S
C331 H343 0.930 . S
C332 C328 1.524 . S
C332 H344 0.956 1_556 S
C332 H345 0.961 . S
C332 H346 0.961 . S
C333 C330 1.539 . S
C333 H347 0.958 . S
C333 H348 0.961 . S
C333 H349 0.960 . S
H334 C318 0.931 . S
H335 C323 0.929 . S
H336 C324 0.960 . S
H337 C324 0.962 . S
H338 C324 0.960 . S
H339 C325 0.961 . S
H340 C325 0.961 . S
H341 C325 0.961 . S
H342 C326 0.931 . S
H343 C331 0.930 . S
H344 C332 0.956 1_554 S
H345 C332 0.961 . S
H346 C332 0.961 . S
H347 C333 0.958 . S
H348 C333 0.961 . S
H349 C333 0.960 . S
C350 C351 1.391 . S
C350 C352 1.394 . S
C350 H366 0.931 . S
C351 C350 1.391 . S
C351 C355 1.376 . S
C352 C350 1.394 . S
C352 C353 1.369 . S
C352 C356 1.531 . S
C353 C352 1.369 . S
C353 C354 1.410 . S
C353 C361 1.503 . S
C354 C353 1.410 . S
C354 C355 1.392 . S
C354 C357 1.511 . S
C355 C351 1.376 . S
C355 C354 1.392 . S
C355 H367 0.929 . S
C356 C352 1.531 . S
C356 H368 0.960 . S
C356 H369 0.962 . S
C356 H370 0.960 . S
C357 C354 1.511 . S
C357 H371 0.961 . S
C357 H372 0.961 . S
C357 H373 0.961 . S
C358 C359 1.370 . S
C358 C360 1.363 . S
C358 H374 0.931 . S
C359 C358 1.370 . S
C359 C363 1.408 . S
C360 C358 1.363 . S
C360 C361 1.370 . S
C360 C364 1.524 . S
C361 C353 1.503 . S
C361 C360 1.370 . S
C361 C362 1.403 . S
C362 C361 1.403 . S
C362 C363 1.404 . S
C362 C365 1.539 . S
C363 C359 1.408 . S
C363 C362 1.404 . S
C363 H375 0.930 . S
C364 C360 1.524 . S
C364 H376 0.956 . S
C364 H377 0.961 . S
C364 H378 0.961 . S
C365 C362 1.539 . S
C365 H379 0.958 . S
C365 H380 0.961 . S
C365 H381 0.960 . S
H366 C350 0.931 . S
H367 C355 0.929 . S
H368 C356 0.960 . S
H369 C356 0.962 . S
H370 C356 0.960 . S
H371 C357 0.961 . S
H372 C357 0.961 . S
H373 C357 0.961 . S
H374 C358 0.931 . S
H375 C363 0.930 . S
H376 C364 0.956 . S
H377 C364 0.961 . S
H378 C364 0.961 . S
H379 C365 0.958 . S
H380 C365 0.961 . S
H381 C365 0.960 . S
C382 C383 1.391 1_556 S
C382 C384 1.394 . S
C382 H398 0.931 . S
C383 C382 1.391 1_554 S
C383 C387 1.376 . S
C384 C382 1.394 . S
C384 C385 1.368 1_556 S
C384 C388 1.531 . S
C385 C384 1.368 1_554 S
C385 C386 1.411 . S
C385 C393 1.503 . S
C386 C385 1.411 . S
C386 C387 1.392 . S
C386 C389 1.511 . S
C387 C383 1.376 . S
C387 C386 1.392 . S
C387 H399 0.929 . S
C388 C384 1.531 . S
C388 H400 0.960 . S
C388 H401 0.962 . S
C388 H402 0.960 . S
C389 C386 1.511 . S
C389 H403 0.961 . S
C389 H404 0.961 . S
C389 H405 0.961 . S
C390 C391 1.370 . S
C390 C392 1.363 . S
C390 H406 0.931 . S
C391 C390 1.370 . S
C391 C395 1.408 1_554 S
C392 C390 1.363 . S
C392 C393 1.370 . S
C392 C396 1.524 . S
C393 C385 1.503 . S
C393 C392 1.370 . S
C393 C394 1.403 1_554 S
C394 C393 1.403 1_556 S
C394 C395 1.404 . S
C394 C397 1.539 . S
C395 C391 1.408 1_556 S
C395 C394 1.404 . S
C395 H407 0.930 . S
C396 C392 1.524 . S
C396 H408 0.956 . S
C396 H409 0.961 . S
C396 H410 0.961 . S
C397 C394 1.539 . S
C397 H411 0.958 . S
C397 H412 0.961 . S
C397 H413 0.960 . S
H398 C382 0.931 . S
H399 C387 0.929 . S
H400 C388 0.960 . S
H401 C388 0.962 . S
H402 C388 0.960 . S
H403 C389 0.961 . S
H404 C389 0.961 . S
H405 C389 0.961 . S
H406 C390 0.931 . S
H407 C395 0.930 . S
H408 C396 0.956 . S
H409 C396 0.961 . S
H410 C396 0.961 . S
H411 C397 0.958 . S
H412 C397 0.961 . S
H413 C397 0.960 . S
C414 C415 1.391 . S
C414 C416 1.394 . S
C414 H430 0.931 . S
C415 C414 1.391 . S
C415 C419 1.376 . S
C416 C414 1.394 . S
C416 C417 1.369 . S
C416 C420 1.531 . S
C417 C416 1.369 . S
C417 C418 1.410 . S
C417 C425 1.503 . S
C418 C417 1.410 . S
C418 C419 1.392 . S
C418 C421 1.511 . S
C419 C415 1.376 . S
C419 C418 1.392 . S
C419 H431 0.929 . S
C420 C416 1.531 . S
C420 H432 0.960 . S
C420 H433 0.962 1_455 S
C420 H434 0.960 1_455 S
C421 C418 1.511 . S
C421 H435 0.961 . S
C421 H436 0.961 . S
C421 H437 0.961 . S
C422 C423 1.370 . S
C422 C424 1.363 . S
C422 H438 0.931 . S
C423 C422 1.370 . S
C423 C427 1.408 . S
C424 C422 1.363 . S
C424 C425 1.370 . S
C424 C428 1.524 . S
C425 C417 1.503 . S
C425 C424 1.370 . S
C425 C426 1.403 . S
C426 C425 1.403 . S
C426 C427 1.404 . S
C426 C429 1.539 . S
C427 C423 1.408 . S
C427 C426 1.404 . S
C427 H439 0.930 . S
C428 C424 1.524 . S
C428 H440 0.956 . S
C428 H441 0.961 . S
C428 H442 0.961 . S
C429 C426 1.539 . S
C429 H443 0.958 . S
C429 H444 0.961 . S
C429 H445 0.960 . S
H430 C414 0.931 . S
H431 C419 0.929 . S
H432 C420 0.960 . S
H433 C420 0.962 1_655 S
H434 C420 0.960 1_655 S
H435 C421 0.961 . S
H436 C421 0.961 . S
H437 C421 0.961 . S
H438 C422 0.931 . S
H439 C427 0.930 . S
H440 C428 0.956 . S
H441 C428 0.961 . S
H442 C428 0.961 . S
H443 C429 0.958 . S
H444 C429 0.961 . S
H445 C429 0.960 . S
C446 C447 1.391 . S
C446 C448 1.394 . S
C446 H462 0.931 . S
C447 C446 1.391 . S
C447 C451 1.376 . S
C448 C446 1.394 . S
C448 C449 1.369 . S
C448 C452 1.531 . S
C449 C448 1.369 . S
C449 C450 1.410 . S
C449 C457 1.503 . S
C450 C449 1.410 . S
C450 C451 1.392 . S
C450 C453 1.511 . S
C451 C447 1.376 . S
C451 C450 1.392 . S
C451 H463 0.929 . S
C452 C448 1.531 . S
C452 H464 0.960 . S
C452 H465 0.962 . S
C452 H466 0.960 . S
C453 C450 1.511 . S
C453 H467 0.961 . S
C453 H468 0.961 . S
C453 H469 0.961 . S
C454 C455 1.370 . S
C454 C456 1.363 . S
C454 H470 0.931 . S
C455 C454 1.370 . S
C455 C459 1.408 . S
C456 C454 1.363 . S
C456 C457 1.370 . S
C456 C460 1.524 . S
C457 C449 1.503 . S
C457 C456 1.370 . S
C457 C458 1.403 . S
C458 C457 1.403 . S
C458 C459 1.404 . S
C458 C461 1.539 . S
C459 C455 1.408 . S
C459 C458 1.404 . S
C459 H471 0.930 . S
C460 C456 1.524 . S
C460 H472 0.956 . S
C460 H473 0.961 . S
C460 H474 0.961 . S
C461 C458 1.539 . S
C461 H475 0.958 . S
C461 H476 0.961 . S
C461 H477 0.960 . S
H462 C446 0.931 . S
H463 C451 0.929 . S
H464 C452 0.960 . S
H465 C452 0.962 . S
H466 C452 0.960 . S
H467 C453 0.961 . S
H468 C453 0.961 . S
H469 C453 0.961 . S
H470 C454 0.931 . S
H471 C459 0.930 . S
H472 C460 0.956 . S
H473 C460 0.961 . S
H474 C460 0.961 . S
H475 C461 0.958 . S
H476 C461 0.961 . S
H477 C461 0.960 . S
C478 C479 1.391 . S
C478 C480 1.394 . S
C478 H494 0.931 . S
C479 C478 1.391 . S
C479 C483 1.376 . S
C480 C478 1.394 . S
C480 C481 1.369 . S
C480 C484 1.531 . S
C481 C480 1.369 . S
C481 C482 1.410 . S
C481 C489 1.503 . S
C482 C481 1.410 . S
C482 C483 1.392 . S
C482 C485 1.511 . S
C483 C479 1.376 . S
C483 C482 1.392 . S
C483 H495 0.929 . S
C484 C480 1.531 . S
C484 H496 0.960 . S
C484 H497 0.962 1_655 S
C484 H498 0.960 . S
C485 C482 1.511 . S
C485 H499 0.961 . S
C485 H500 0.961 . S
C485 H501 0.961 . S
C486 C487 1.370 . S
C486 C488 1.363 . S
C486 H502 0.931 . S
C487 C486 1.370 . S
C487 C491 1.408 . S
C488 C486 1.363 . S
C488 C489 1.370 . S
C488 C492 1.524 . S
C489 C481 1.503 . S
C489 C488 1.370 . S
C489 C490 1.403 . S
C490 C489 1.403 . S
C490 C491 1.404 . S
C490 C493 1.539 . S
C491 C487 1.408 . S
C491 C490 1.404 . S
C491 H503 0.930 . S
C492 C488 1.524 . S
C492 H504 0.956 . S
C492 H505 0.961 . S
C492 H506 0.961 . S
C493 C490 1.539 . S
C493 H507 0.958 . S
C493 H508 0.961 . S
C493 H509 0.960 . S
H494 C478 0.931 . S
H495 C483 0.929 . S
H496 C484 0.960 . S
H497 C484 0.962 1_455 S
H498 C484 0.960 . S
H499 C485 0.961 . S
H500 C485 0.961 . S
H501 C485 0.961 . S
H502 C486 0.931 . S
H503 C491 0.930 . S
H504 C492 0.956 . S
H505 C492 0.961 . S
H506 C492 0.961 . S
H507 C493 0.958 . S
H508 C493 0.961 . S
H509 C493 0.960 . S
C510 C511 1.391 . S
C510 C512 1.394 . S
C510 H526 0.931 . S
C511 C510 1.391 . S
C511 C515 1.376 . S
C512 C510 1.394 . S
C512 C513 1.369 . S
C512 C516 1.531 . S
C513 C512 1.369 . S
C513 C514 1.410 . S
C513 C521 1.503 . S
C514 C513 1.410 . S
C514 C515 1.392 . S
C514 C517 1.511 . S
C515 C511 1.376 . S
C515 C514 1.392 . S
C515 H527 0.929 . S
C516 C512 1.531 . S
C516 H528 0.960 . S
C516 H529 0.962 . S
C516 H530 0.960 . S
C517 C514 1.511 . S
C517 H531 0.961 . S
C517 H532 0.961 . S
C517 H533 0.961 . S
C518 C519 1.370 . S
C518 C520 1.363 . S
C518 H534 0.931 . S
C519 C518 1.370 . S
C519 C523 1.408 . S
C520 C518 1.363 . S
C520 C521 1.370 . S
C520 C524 1.524 . S
C521 C513 1.503 . S
C521 C520 1.370 . S
C521 C522 1.403 . S
C522 C521 1.403 . S
C522 C523 1.404 . S
C522 C525 1.539 . S
C523 C519 1.408 . S
C523 C522 1.404 . S
C523 H535 0.930 . S
C524 C520 1.524 . S
C524 H536 0.956 . S
C524 H537 0.961 . S
C524 H538 0.961 . S
C525 C522 1.539 . S
C525 H539 0.958 . S
C525 H540 0.961 . S
C525 H541 0.960 . S
H526 C510 0.931 . S
H527 C515 0.929 . S
H528 C516 0.960 . S
H529 C516 0.962 . S
H530 C516 0.960 . S
H531 C517 0.961 . S
H532 C517 0.961 . S
H533 C517 0.961 . S
H534 C518 0.931 . S
H535 C523 0.930 . S
H536 C524 0.956 . S
H537 C524 0.961 . S
H538 C524 0.961 . S
H539 C525 0.958 . S
H540 C525 0.961 . S
H541 C525 0.960 . S
C542 C543 1.391 . S
C542 C544 1.394 . S
C542 H558 0.931 . S
C543 C542 1.391 . S
C543 C547 1.376 . S
C544 C542 1.394 . S
C544 C545 1.369 . S
C544 C548 1.531 . S
C545 C544 1.369 . S
C545 C546 1.410 . S
C545 C553 1.503 . S
C546 C545 1.410 . S
C546 C547 1.392 . S
C546 C549 1.511 . S
C547 C543 1.376 . S
C547 C546 1.392 . S
C547 H559 0.929 . S
C548 C544 1.531 . S
C548 H560 0.960 . S
C548 H561 0.962 . S
C548 H562 0.960 . S
C549 C546 1.511 . S
C549 H563 0.961 . S
C549 H564 0.961 . S
C549 H565 0.961 . S
C550 C551 1.370 . S
C550 C552 1.363 . S
C550 H566 0.931 . S
C551 C550 1.370 . S
C551 C555 1.408 . S
C552 C550 1.363 . S
C552 C553 1.370 . S
C552 C556 1.524 . S
C553 C545 1.503 . S
C553 C552 1.370 . S
C553 C554 1.403 . S
C554 C553 1.403 . S
C554 C555 1.404 . S
C554 C557 1.539 . S
C555 C551 1.408 . S
C555 C554 1.404 . S
C555 H567 0.930 . S
C556 C552 1.524 . S
C556 H568 0.956 . S
C556 H569 0.961 . S
C556 H570 0.961 . S
C557 C554 1.539 . S
C557 H571 0.958 . S
C557 H572 0.961 . S
C557 H573 0.960 . S
H558 C542 0.931 . S
H559 C547 0.929 . S
H560 C548 0.960 . S
H561 C548 0.962 . S
H562 C548 0.960 . S
H563 C549 0.961 . S
H564 C549 0.961 . S
H565 C549 0.961 . S
H566 C550 0.931 . S
H567 C555 0.930 . S
H568 C556 0.956 . S
H569 C556 0.961 . S
H570 C556 0.961 . S
H571 C557 0.958 . S
H572 C557 0.961 . S
H573 C557 0.960 . S
C574 C575 1.391 . S
C574 C576 1.394 . S
C574 H590 0.931 . S
C575 C574 1.391 . S
C575 C579 1.376 . S
C576 C574 1.394 . S
C576 C577 1.369 . S
C576 C580 1.531 . S
C577 C576 1.369 . S
C577 C578 1.410 . S
C577 C585 1.503 . S
C578 C577 1.410 . S
C578 C579 1.392 . S
C578 C581 1.511 . S
C579 C575 1.376 . S
C579 C578 1.392 . S
C579 H591 0.929 . S
C580 C576 1.531 . S
C580 H592 0.960 . S
C580 H593 0.962 . S
C580 H594 0.960 . S
C581 C578 1.511 . S
C581 H595 0.961 . S
C581 H596 0.961 . S
C581 H597 0.961 . S
C582 C583 1.370 1_455 S
C582 C584 1.363 1_455 S
C582 H598 0.931 . S
C583 C582 1.370 1_655 S
C583 C587 1.408 . S
C584 C582 1.363 1_655 S
C584 C585 1.370 . S
C584 C588 1.524 1_655 S
C585 C577 1.503 . S
C585 C584 1.370 . S
C585 C586 1.403 . S
C586 C585 1.403 . S
C586 C587 1.404 . S
C586 C589 1.539 . S
C587 C583 1.408 . S
C587 C586 1.404 . S
C587 H599 0.930 . S
C588 C584 1.524 1_455 S
C588 H600 0.956 . S
C588 H601 0.961 . S
C588 H602 0.961 . S
C589 C586 1.539 . S
C589 H603 0.958 . S
C589 H604 0.961 . S
C589 H605 0.960 . S
H590 C574 0.931 . S
H591 C579 0.929 . S
H592 C580 0.960 . S
H593 C580 0.962 . S
H594 C580 0.960 . S
H595 C581 0.961 . S
H596 C581 0.961 . S
H597 C581 0.961 . S
H598 C582 0.931 . S
H599 C587 0.930 . S
H600 C588 0.956 . S
H601 C588 0.961 . S
H602 C588 0.961 . S
H603 C589 0.958 . S
H604 C589 0.961 . S
H605 C589 0.960 . S
C606 C607 1.391 . S
C606 C608 1.394 . S
C606 H622 0.931 . S
C607 C606 1.391 . S
C607 C611 1.376 . S
C608 C606 1.394 . S
C608 C609 1.369 . S
C608 C612 1.531 . S
C609 C608 1.369 . S
C609 C610 1.410 . S
C609 C617 1.503 . S
C610 C609 1.410 . S
C610 C611 1.392 . S
C610 C613 1.511 . S
C611 C607 1.376 . S
C611 C610 1.392 . S
C611 H623 0.929 . S
C612 C608 1.531 . S
C612 H624 0.960 . S
C612 H625 0.962 . S
C612 H626 0.960 . S
C613 C610 1.511 . S
C613 H627 0.961 . S
C613 H628 0.961 . S
C613 H629 0.961 . S
C614 C615 1.370 . S
C614 C616 1.363 . S
C614 H630 0.931 . S
C615 C614 1.370 . S
C615 C619 1.408 . S
C616 C614 1.363 . S
C616 C617 1.370 . S
C616 C620 1.524 . S
C617 C609 1.503 . S
C617 C616 1.370 . S
C617 C618 1.403 . S
C618 C617 1.403 . S
C618 C619 1.404 . S
C618 C621 1.539 . S
C619 C615 1.408 . S
C619 C618 1.404 . S
C619 H631 0.930 . S
C620 C616 1.524 . S
C620 H632 0.956 . S
C620 H633 0.961 . S
C620 H634 0.961 . S
C621 C618 1.539 . S
C621 H635 0.958 . S
C621 H636 0.961 . S
C621 H637 0.960 . S
H622 C606 0.931 . S
H623 C611 0.929 . S
H624 C612 0.960 . S
H625 C612 0.962 . S
H626 C612 0.960 . S
H627 C613 0.961 . S
H628 C613 0.961 . S
H629 C613 0.961 . S
H630 C614 0.931 . S
H631 C619 0.930 . S
H632 C620 0.956 . S
H633 C620 0.961 . S
H634 C620 0.961 . S
H635 C621 0.958 . S
H636 C621 0.961 . S
H637 C621 0.960 . S
C638 C639 1.391 . S
C638 C640 1.394 . S
C638 H654 0.931 . S
C639 C638 1.391 . S
C639 C643 1.376 . S
C640 C638 1.394 . S
C640 C641 1.369 . S
C640 C644 1.531 1_455 S
C641 C640 1.369 . S
C641 C642 1.410 . S
C641 C649 1.503 . S
C642 C641 1.410 . S
C642 C643 1.392 . S
C642 C645 1.511 . S
C643 C639 1.376 . S
C643 C642 1.392 . S
C643 H655 0.929 . S
C644 C640 1.531 1_655 S
C644 H656 0.960 1_655 S
C644 H657 0.962 . S
C644 H658 0.960 . S
C645 C642 1.511 . S
C645 H659 0.961 . S
C645 H660 0.961 . S
C645 H661 0.961 . S
C646 C647 1.370 . S
C646 C648 1.363 . S
C646 H662 0.931 . S
C647 C646 1.370 . S
C647 C651 1.408 . S
C648 C646 1.363 . S
C648 C649 1.370 . S
C648 C652 1.524 . S
C649 C641 1.503 . S
C649 C648 1.370 . S
C649 C650 1.403 . S
C650 C649 1.403 . S
C650 C651 1.404 . S
C650 C653 1.539 . S
C651 C647 1.408 . S
C651 C650 1.404 . S
C651 H663 0.930 . S
C652 C648 1.524 . S
C652 H664 0.956 . S
C652 H665 0.961 . S
C652 H666 0.961 . S
C653 C650 1.539 . S
C653 H667 0.958 . S
C653 H668 0.961 . S
C653 H669 0.960 . S
H654 C638 0.931 . S
H655 C643 0.929 . S
H656 C644 0.960 1_455 S
H657 C644 0.962 . S
H658 C644 0.960 . S
H659 C645 0.961 . S
H660 C645 0.961 . S
H661 C645 0.961 . S
H662 C646 0.931 . S
H663 C651 0.930 . S
H664 C652 0.956 . S
H665 C652 0.961 . S
H666 C652 0.961 . S
H667 C653 0.958 . S
H668 C653 0.961 . S
H669 C653 0.960 . S
C295 C257 1.645 . S
C287 C211 1.576 . S
C319 C31 1.645 . S
C327 C280 1.644 . S
C351 C91 1.627 . S
C359 C256 1.666 . S
C383 C151 1.570 . S
C391 C279 1.669 . S
C423 C260 1.631 . S
C415 C20 1.685 . S
C455 C282 1.629 . S
C447 C61 1.594 . S
C479 C121 1.609 . S
C487 C261 1.632 . S
C511 C200 1.565 . S
C519 C281 1.605 . S
C551 C284 1.640 . S
C543 C80 1.683 . S
C583 C259 1.635 . S
C575 C140 1.591 . S
C615 C283 1.624 . S
C607 C181 1.537 . S
C639 C1 1.572 . S
C647 C258 1.606 . S
