# Generated by pormake.
# Topology apo, (3,6)-cn, num edge types: 1
# Building blocks:
#     Node 0, Type 0, BuildingBlock: BELTOD_clean_linker_0, # of connection points: 3
#     Node 1, Type 0, BuildingBlock: BELTOD_clean_linker_0, # of connection points: 3
#     Node 2, Type 0, BuildingBlock: BELTOD_clean_linker_0, # of connection points: 3
#     Node 3, Type 0, BuildingBlock: BELTOD_clean_linker_0, # of connection points: 3
#     Node 4, Type 0, BuildingBlock: BELTOD_clean_linker_0, # of connection points: 3
#     Node 5, Type 0, BuildingBlock: BELTOD_clean_linker_0, # of connection points: 3
#     Node 6, Type 0, BuildingBlock: BELTOD_clean_linker_0, # of connection points: 3
#     Node 7, Type 0, BuildingBlock: BELTOD_clean_linker_0, # of connection points: 3
#     Node 8, Type 1, BuildingBlock: KUMBOL_clean_sbu_1, # of connection points: 6
#     Node 9, Type 1, BuildingBlock: KUMBOL_clean_sbu_1, # of connection points: 6
#     Node 10, Type 1, BuildingBlock: KUMBOL_clean_sbu_1, # of connection points: 6
#     Node 11, Type 1, BuildingBlock: KUMBOL_clean_sbu_1, # of connection points: 6
#     Edge 12, Type (0, 1), BuildingBlock: UVAHIK_clean_linker_0, # of connection points: 2
#     Edge 13, Type (0, 1), BuildingBlock: UVAHIK_clean_linker_0, # of connection points: 2
#     Edge 14, Type (0, 1), BuildingBlock: UVAHIK_clean_linker_0, # of connection points: 2
#     Edge 15, Type (0, 1), BuildingBlock: UVAHIK_clean_linker_0, # of connection points: 2
#     Edge 16, Type (0, 1), BuildingBlock: UVAHIK_clean_linker_0, # of connection points: 2
#     Edge 17, Type (0, 1), BuildingBlock: UVAHIK_clean_linker_0, # of connection points: 2
#     Edge 18, Type (0, 1), BuildingBlock: UVAHIK_clean_linker_0, # of connection points: 2
#     Edge 19, Type (0, 1), BuildingBlock: UVAHIK_clean_linker_0, # of connection points: 2
#     Edge 20, Type (0, 1), BuildingBlock: UVAHIK_clean_linker_0, # of connection points: 2
#     Edge 21, Type (0, 1), BuildingBlock: UVAHIK_clean_linker_0, # of connection points: 2
#     Edge 22, Type (0, 1), BuildingBlock: UVAHIK_clean_linker_0, # of connection points: 2
#     Edge 23, Type (0, 1), BuildingBlock: UVAHIK_clean_linker_0, # of connection points: 2
#     Edge 24, Type (0, 1), BuildingBlock: UVAHIK_clean_linker_0, # of connection points: 2
#     Edge 25, Type (0, 1), BuildingBlock: UVAHIK_clean_linker_0, # of connection points: 2
#     Edge 26, Type (0, 1), BuildingBlock: UVAHIK_clean_linker_0, # of connection points: 2
#     Edge 27, Type (0, 1), BuildingBlock: UVAHIK_clean_linker_0, # of connection points: 2
#     Edge 28, Type (0, 1), BuildingBlock: UVAHIK_clean_linker_0, # of connection points: 2
#     Edge 29, Type (0, 1), BuildingBlock: UVAHIK_clean_linker_0, # of connection points: 2
#     Edge 30, Type (0, 1), BuildingBlock: UVAHIK_clean_linker_0, # of connection points: 2
#     Edge 31, Type (0, 1), BuildingBlock: UVAHIK_clean_linker_0, # of connection points: 2
#     Edge 32, Type (0, 1), BuildingBlock: UVAHIK_clean_linker_0, # of connection points: 2
#     Edge 33, Type (0, 1), BuildingBlock: UVAHIK_clean_linker_0, # of connection points: 2
#     Edge 34, Type (0, 1), BuildingBlock: UVAHIK_clean_linker_0, # of connection points: 2
#     Edge 35, Type (0, 1), BuildingBlock: UVAHIK_clean_linker_0, # of connection points: 2
# Relax obj value: 0.010
# Max RMSD: 0.099
# Mean RMSD: 0.074
data_MOF--net-apo--node1-KUMBOL_clean_sbu_1--node2-BELTOD_clean_linker_0--edge1-UVAHIK_clean_linker_0
_symmetry_space_group_name_H-M    P1
_symmetry_Int_Tables_number       1
_symmetry_cell_setting            triclinic
loop_
_symmetry_equiv_pos_as_xyz
'x, y, z'
_cell_length_a     34.397065
_cell_length_b     61.176249
_cell_length_c     73.560693
_cell_angle_alpha  89.64096
_cell_angle_beta   89.974352
_cell_angle_gamma 90.270086
loop_
_atom_site_label
_atom_site_type_symbol
_atom_site_fract_x
_atom_site_fract_y
_atom_site_fract_z
_atom_type_partial_charge
P0 P 0.33106 0.36037 0.40816 0.0
H1 H 0.34598 0.32654 0.43509 0.0
H2 H 0.35078 0.32717 0.46825 0.0
H3 H 0.31728 0.39521 0.46791 0.0
H4 H 0.3113 0.3942 0.43491 0.0
H5 H 0.31723 0.3481 0.37093 0.0
H6 H 0.26685 0.32644 0.35614 0.0
H7 H 0.20777 0.31852 0.40766 0.0
H8 H 0.25884 0.34013 0.42245 0.0
H9 H 0.39348 0.39228 0.40664 0.0
H10 H 0.27241 0.38927 0.39159 0.0
O11 O 0.37233 0.34811 0.40219 0.0
H12 H 0.39794 0.42937 0.39439 0.0
H13 H 0.27652 0.42654 0.37939 0.0
C14 C 0.32896 0.36038 0.43256 0.0
C15 C 0.33922 0.34149 0.44222 0.0
C16 C 0.34225 0.34194 0.46114 0.0
C17 C 0.33507 0.36135 0.47071 0.0
C18 C 0.32291 0.37998 0.46099 0.0
C19 C 0.31972 0.37946 0.44206 0.0
C20 C 0.29193 0.34549 0.39776 0.0
C21 C 0.29331 0.34179 0.37902 0.0
C22 C 0.26429 0.32956 0.37057 0.0
C23 C 0.23324 0.32078 0.38073 0.0
C24 C 0.23152 0.3249 0.39952 0.0
C25 C 0.26064 0.33726 0.40797 0.0
C26 C 0.33298 0.38789 0.39956 0.0
C27 C 0.36785 0.39966 0.4007 0.0
C28 C 0.37021 0.42094 0.39387 0.0
C29 C 0.33758 0.43086 0.38587 0.0
C30 C 0.30226 0.41921 0.38526 0.0
C31 C 0.29991 0.39791 0.39219 0.0
P32 P 0.29134 0.09889 0.91488 0.0
H33 H 0.31221 0.06637 0.88809 0.0
H34 H 0.27444 0.04149 0.86934 0.0
H35 H 0.1682 0.0688 0.89069 0.0
H36 H 0.20657 0.09331 0.90994 0.0
H37 H 0.3633 0.1238 0.91126 0.0
H38 H 0.38061 0.15683 0.89468 0.0
H39 H 0.26108 0.16379 0.87733 0.0
H40 H 0.24455 0.12973 0.89325 0.0
H41 H 0.3019 0.07834 0.95031 0.0
H42 H 0.23058 0.12933 0.92733 0.0
O43 O 0.33318 0.08591 0.91873 0.0
H44 H 0.27349 0.08476 0.98014 0.0
H45 H 0.20165 0.13572 0.95734 0.0
C46 C 0.26225 0.08139 0.90067 0.0
C47 C 0.28079 0.06698 0.88881 0.0
C48 C 0.25906 0.05287 0.87793 0.0
C49 C 0.21818 0.05309 0.87847 0.0
C50 C 0.19962 0.06795 0.89013 0.0
C51 C 0.22151 0.08205 0.9011 0.0
C52 C 0.30273 0.12416 0.90332 0.0
C53 C 0.34078 0.13236 0.90385 0.0
C54 C 0.35056 0.15151 0.89448 0.0
C55 C 0.32229 0.1632 0.88463 0.0
C56 C 0.28383 0.15512 0.8845 0.0
C57 C 0.2742 0.13572 0.89371 0.0
C58 C 0.26889 0.10361 0.93663 0.0
C59 C 0.28024 0.09101 0.95167 0.0
C60 C 0.26405 0.09473 0.96876 0.0
C61 C 0.2357 0.11092 0.97111 0.0
C62 C 0.22349 0.12315 0.95591 0.0
C63 C 0.24011 0.11957 0.93879 0.0
P64 P 0.83406 0.14075 0.59214 0.0
H65 H 0.86195 0.17153 0.56485 0.0
H66 H 0.86912 0.16913 0.53187 0.0
H67 H 0.81024 0.10659 0.53263 0.0
H68 H 0.80275 0.10925 0.56567 0.0
H69 H 0.82915 0.16004 0.6277 0.0
H70 H 0.77983 0.18163 0.64302 0.0
H71 H 0.70769 0.17899 0.59498 0.0
H72 H 0.75783 0.15734 0.57958 0.0
H73 H 0.8863 0.10399 0.58864 0.0
H74 H 0.77806 0.11744 0.61595 0.0
O75 O 0.87708 0.15127 0.59801 0.0
H76 H 0.88934 0.06836 0.6038 0.0
H77 H 0.78105 0.0819 0.6312 0.0
C78 C 0.8325 0.1404 0.5677 0.0
C79 C 0.85016 0.15743 0.55789 0.0
C80 C 0.8545 0.15596 0.53906 0.0
C81 C 0.84095 0.13746 0.52969 0.0
C82 C 0.82108 0.12101 0.53946 0.0
C83 C 0.81687 0.12249 0.55835 0.0
C84 C 0.79741 0.15748 0.60244 0.0
C85 C 0.80285 0.16424 0.6204 0.0
C86 C 0.7744 0.17636 0.62922 0.0
C87 C 0.73973 0.18193 0.62025 0.0
C88 C 0.73424 0.17508 0.60218 0.0
C89 C 0.76282 0.16276 0.59337 0.0
C90 C 0.83235 0.11347 0.60136 0.0
C91 C 0.86294 0.09913 0.5977 0.0
C92 C 0.86452 0.07875 0.6063 0.0
C93 C 0.83554 0.07244 0.61879 0.0
C94 C 0.80401 0.08649 0.62182 0.0
C95 C 0.80231 0.10681 0.61309 0.0
P96 P 0.78594 0.40065 0.0818 0.0
H97 H 0.80634 0.4256 0.11391 0.0
H98 H 0.76937 0.45002 0.1336 0.0
H99 H 0.66625 0.43781 0.10165 0.0
H100 H 0.70335 0.4134 0.08206 0.0
H101 H 0.85108 0.37052 0.07927 0.0
H102 H 0.86926 0.33806 0.09675 0.0
H103 H 0.76228 0.34257 0.12732 0.0
H104 H 0.74462 0.37526 0.10991 0.0
H105 H 0.76445 0.43038 0.0527 0.0
H106 H 0.75355 0.3614 0.06404 0.0
O107 O 0.82778 0.41351 0.07731 0.0
H108 H 0.73215 0.4253 0.02344 0.0
H109 H 0.72238 0.356 0.03458 0.0
C110 C 0.75782 0.4181 0.09632 0.0
C111 C 0.77578 0.42822 0.11115 0.0
C112 C 0.75457 0.44204 0.12246 0.0
C113 C 0.71496 0.44596 0.11909 0.0
C114 C 0.69687 0.43539 0.1044 0.0
C115 C 0.71807 0.42143 0.09319 0.0
C116 C 0.79698 0.37555 0.09359 0.0
C117 C 0.83149 0.36446 0.08969 0.0
C118 C 0.8417 0.3458 0.09962 0.0
C119 C 0.81739 0.33781 0.11357 0.0
C120 C 0.78199 0.34853 0.11691 0.0
C121 C 0.7718 0.36718 0.10693 0.0
C122 C 0.7616 0.39628 0.06046 0.0
C123 C 0.75523 0.41411 0.04882 0.0
C124 C 0.73693 0.41115 0.03205 0.0
C125 C 0.72478 0.39021 0.02656 0.0
C126 C 0.73089 0.37239 0.03843 0.0
C127 C 0.74904 0.37542 0.05526 0.0
P128 P 0.78065 0.60526 0.57888 0.0
H129 H 0.80479 0.61539 0.54183 0.0
H130 H 0.76914 0.62374 0.51407 0.0
H131 H 0.66112 0.62135 0.5441 0.0
H132 H 0.69707 0.61242 0.57178 0.0
H133 H 0.82578 0.60873 0.61182 0.0
H134 H 0.8446 0.63941 0.63097 0.0
H135 H 0.77916 0.68317 0.59635 0.0
H136 H 0.76116 0.65233 0.57699 0.0
H137 H 0.79198 0.55831 0.58429 0.0
H138 H 0.71419 0.60803 0.60369 0.0
O139 O 0.82284 0.59456 0.57223 0.0
H140 H 0.76146 0.5316 0.60435 0.0
H141 H 0.68123 0.58104 0.62286 0.0
C142 C 0.75358 0.61272 0.55881 0.0
C143 C 0.77342 0.61662 0.54247 0.0
C144 C 0.75297 0.62165 0.5266 0.0
C145 C 0.71216 0.62314 0.52679 0.0
C146 C 0.69245 0.61996 0.54339 0.0
C147 C 0.71303 0.61488 0.55927 0.0
C148 C 0.79217 0.62826 0.59302 0.0
C149 C 0.81539 0.62493 0.6084 0.0
C150 C 0.8259 0.64248 0.6194 0.0
C151 C 0.81329 0.66377 0.61524 0.0
C152 C 0.7897 0.66702 0.59983 0.0
C153 C 0.77919 0.64938 0.5888 0.0
C154 C 0.75534 0.58516 0.59248 0.0
C155 C 0.76782 0.5634 0.59266 0.0
C156 C 0.74996 0.54803 0.60408 0.0
C157 C 0.71865 0.55399 0.61534 0.0
C158 C 0.70566 0.5758 0.61471 0.0
C159 C 0.72411 0.59126 0.60354 0.0
P160 P 0.81077 0.86415 0.09193 0.0
H161 H 0.84447 0.87061 0.12755 0.0
H162 H 0.8562 0.90284 0.14605 0.0
H163 H 0.80214 0.94319 0.1048 0.0
H164 H 0.78853 0.91049 0.08686 0.0
H165 H 0.79201 0.81788 0.08947 0.0
H166 H 0.7428 0.79499 0.10428 0.0
H167 H 0.69178 0.85243 0.12822 0.0
H168 H 0.74102 0.8753 0.11323 0.0
H169 H 0.85077 0.89596 0.06893 0.0
H170 H 0.76661 0.84418 0.06192 0.0
O171 O 0.85072 0.84911 0.09464 0.0
H172 H 0.85411 0.90105 0.03602 0.0
H173 H 0.77085 0.8488 0.02889 0.0
C174 C 0.81704 0.88829 0.10554 0.0
C175 C 0.83513 0.8864 0.1225 0.0
C176 C 0.84201 0.90491 0.13302 0.0
C177 C 0.83108 0.92577 0.12673 0.0
C178 C 0.81111 0.92744 0.11007 0.0
C179 C 0.80375 0.90878 0.09966 0.0
C180 C 0.77051 0.84821 0.10047 0.0
C181 C 0.76984 0.82558 0.09766 0.0
C182 C 0.74159 0.81253 0.10607 0.0
C183 C 0.71363 0.82191 0.11753 0.0
C184 C 0.71328 0.84475 0.11964 0.0
C185 C 0.74137 0.85782 0.11105 0.0
C186 C 0.80754 0.87016 0.06797 0.0
C187 C 0.83217 0.88609 0.06036 0.0
C188 C 0.83423 0.88892 0.04154 0.0
C189 C 0.8126 0.87537 0.02994 0.0
C190 C 0.78778 0.85947 0.03756 0.0
C191 C 0.7852 0.85692 0.05644 0.0
P192 P 0.2723 0.89309 0.41898 0.0
H193 H 0.28532 0.8589 0.44598 0.0
H194 H 0.25501 0.85054 0.47529 0.0
H195 H 0.17323 0.90297 0.46679 0.0
H196 H 0.20356 0.9112 0.43743 0.0
H197 H 0.33081 0.88819 0.39097 0.0
H198 H 0.34999 0.85775 0.37163 0.0
H199 H 0.26108 0.81726 0.39635 0.0
H200 H 0.24176 0.84795 0.41559 0.0
H201 H 0.27037 0.94073 0.41866 0.0
H202 H 0.21484 0.88808 0.38973 0.0
O203 O 0.31349 0.90505 0.42571 0.0
H204 H 0.23661 0.96735 0.39961 0.0
H205 H 0.18036 0.91467 0.37069 0.0
C206 C 0.24619 0.88531 0.43929 0.0
C207 C 0.26032 0.86828 0.45023 0.0
C208 C 0.24299 0.86354 0.467 0.0
C209 C 0.21161 0.87605 0.47333 0.0
C210 C 0.19744 0.8931 0.46231 0.0
C211 C 0.2146 0.8977 0.44544 0.0
C212 C 0.28556 0.87017 0.40502 0.0
C213 C 0.31553 0.87273 0.39228 0.0
C214 C 0.32628 0.85537 0.38115 0.0
C215 C 0.30717 0.83506 0.38253 0.0
C216 C 0.2767 0.83262 0.39517 0.0
C217 C 0.26568 0.85013 0.40619 0.0
C218 C 0.24567 0.91246 0.40536 0.0
C219 C 0.25081 0.93491 0.40821 0.0
C220 C 0.23122 0.95012 0.39739 0.0
C221 C 0.20589 0.94316 0.38354 0.0
C222 C 0.20013 0.92057 0.38103 0.0
C223 C 0.2197 0.90536 0.39193 0.0
P224 P 0.3193 0.63557 0.90767 0.0
H225 H 0.35344 0.62471 0.87291 0.0
H226 H 0.36105 0.59044 0.85663 0.0
H227 H 0.299 0.55634 0.89945 0.0
H228 H 0.29208 0.59088 0.91586 0.0
H229 H 0.30159 0.68181 0.90994 0.0
H230 H 0.25275 0.70464 0.8951 0.0
H231 H 0.20006 0.64698 0.87181 0.0
H232 H 0.24927 0.62428 0.88657 0.0
H233 H 0.37508 0.61805 0.93311 0.0
H234 H 0.25761 0.64222 0.93501 0.0
O235 O 0.36002 0.64978 0.90376 0.0
H236 H 0.37527 0.61395 0.9661 0.0
H237 H 0.2572 0.63778 0.96812 0.0
C238 C 0.3231 0.61018 0.89573 0.0
C239 C 0.34153 0.60986 0.8788 0.0
C240 C 0.34546 0.59027 0.86942 0.0
C241 C 0.33063 0.57064 0.87676 0.0
C242 C 0.31116 0.57114 0.89357 0.0
C243 C 0.3072 0.59084 0.90294 0.0
C244 C 0.27948 0.65147 0.89905 0.0
C245 C 0.27921 0.67409 0.90182 0.0
C246 C 0.25112 0.68709 0.89342 0.0
C247 C 0.22277 0.67763 0.88212 0.0
C248 C 0.22194 0.65477 0.88018 0.0
C249 C 0.25001 0.64177 0.88865 0.0
C250 C 0.31664 0.63076 0.93173 0.0
C251 C 0.34915 0.62223 0.94067 0.0
C252 C 0.34905 0.6197 0.95952 0.0
C253 C 0.31627 0.62561 0.96977 0.0
C254 C 0.28308 0.63337 0.96063 0.0
C255 C 0.28325 0.63589 0.94171 0.0
C256 C 0.88455 0.11202 0.24716 0.0
C257 C 0.88946 0.0742 0.25694 0.0
C258 C 0.90439 0.09572 0.25655 0.0
C259 C 0.8553 0.0692 0.24733 0.0
C260 C 0.84996 0.10713 0.23771 0.0
C261 C 0.83558 0.08562 0.23778 0.0
N262 N 0.89991 0.13253 0.24673 0.0
C263 C 0.88154 0.14909 0.23774 0.0
C264 C 0.83119 0.12398 0.22824 0.0
C265 C 0.84698 0.14506 0.22833 0.0
Gd266 Gd 0.05469 0.13641 0.23162 0.0
Gd267 Gd 0.95783 0.13778 0.26283 0.0
N268 N 0.93779 0.10097 0.26552 0.0
C269 C 0.90886 0.05841 0.2673 0.0
C270 C 0.95447 0.0861 0.27699 0.0
C271 C 0.94104 0.06451 0.27765 0.0
H272 H 0.97717 0.09086 0.2862 0.0
H273 H 0.95503 0.0527 0.28647 0.0
H274 H 0.04285 0.19043 0.22403 0.0
H275 H 0.89347 0.16543 0.23795 0.0
H276 H 0.08054 0.22441 0.22747 0.0
H277 H 0.89834 0.0417 0.26795 0.0
H278 H 0.84364 0.05271 0.24738 0.0
H279 H 0.1131 0.09587 0.2451 0.0
H280 H 0.80455 0.12088 0.22082 0.0
H281 H 0.83255 0.15821 0.22114 0.0
H282 H 0.2037 0.20065 0.25076 0.0
H283 H 0.80919 0.08152 0.23049 0.0
H284 H 0.22167 0.124 0.2615 0.0
H285 H 0.17948 0.09152 0.25742 0.0
N286 N 0.11724 0.13043 0.24305 0.0
C287 C 0.14005 0.14847 0.24495 0.0
C288 C 0.13096 0.11016 0.2473 0.0
C289 C 0.19244 0.12601 0.25628 0.0
C290 C 0.16868 0.10764 0.25405 0.0
C291 C 0.1783 0.14674 0.25168 0.0
H292 H 0.23052 0.16468 0.25884 0.0
N293 N 0.08734 0.17001 0.23459 0.0
C294 C 0.12486 0.16882 0.24041 0.0
C295 C 0.13126 0.20807 0.23789 0.0
C296 C 0.14763 0.18787 0.24246 0.0
C297 C 0.07171 0.18958 0.22955 0.0
C298 C 0.09323 0.2089 0.23131 0.0
O299 O 0.95538 0.12466 0.23407 0.0
O300 O 0.01383 0.10756 0.2314 0.0
O301 O 0.05461 0.14419 0.20279 0.0
O302 O 0.09381 0.11964 0.21322 0.0
O303 O 0.01259 0.12214 0.2744 0.0
O304 O 0.04261 0.10706 0.2494 0.0
O305 O 0.06016 0.15341 0.25883 0.0
O306 O 0.99883 0.16638 0.26498 0.0
O307 O 0.94564 0.13578 0.29214 0.0
O308 O 0.91195 0.15733 0.27439 0.0
O309 O 0.00273 0.15541 0.2211 0.0
O310 O 0.96763 0.16804 0.24579 0.0
C311 C 0.97661 0.10869 0.22779 0.0
C312 C 0.03668 0.10795 0.26706 0.0
C313 C 0.0698 0.11504 0.18346 0.0
C314 C 0.074 0.10657 0.15113 0.0
C315 C 0.03338 0.08444 0.17121 0.0
C316 C 0.04435 0.09731 0.18595 0.0
C317 C 0.04799 0.08904 0.15388 0.0
C318 C 0.08471 0.11957 0.16607 0.0
C319 C 0.08004 0.12925 0.19879 0.0
C320 C 0.1858 0.18619 0.24908 0.0
C321 C 0.20107 0.16569 0.25369 0.0
H322 H 0.1478 0.22308 0.23928 0.0
C323 C 0.03642 0.16613 0.2679 0.0
C324 C 0.97754 0.1689 0.2285 0.0
C325 C 0.89375 0.15741 0.30621 0.0
C326 C 0.87425 0.15539 0.33813 0.0
C327 C 0.84129 0.18019 0.31739 0.0
C328 C 0.86503 0.17331 0.3032 0.0
C329 C 0.84568 0.17124 0.33472 0.0
C330 C 0.89861 0.14865 0.32384 0.0
C331 C 0.91756 0.14991 0.29075 0.0
H332 H 0.01362 0.07081 0.17324 0.0
H333 H 0.03307 0.09344 0.19927 0.0
H334 H 0.03952 0.07862 0.1427 0.0
H335 H 0.10425 0.13336 0.16414 0.0
H336 H 0.81929 0.19244 0.31493 0.0
H337 H 0.8607 0.18042 0.28984 0.0
H338 H 0.82693 0.17687 0.34555 0.0
H339 H 0.92057 0.13635 0.32636 0.0
C340 C 0.6345 0.38315 0.7556 0.0
C341 C 0.63445 0.42054 0.76638 0.0
C342 C 0.61627 0.39989 0.76501 0.0
C343 C 0.67026 0.4243 0.75768 0.0
C344 C 0.67055 0.3868 0.74696 0.0
C345 C 0.68823 0.40748 0.74799 0.0
N346 N 0.6161 0.3635 0.75432 0.0
C347 C 0.63265 0.34658 0.7452 0.0
C348 C 0.68753 0.36959 0.73738 0.0
C349 C 0.66857 0.34936 0.73657 0.0
Gd350 Gd 0.46203 0.36887 0.73537 0.0
Gd351 Gd 0.55537 0.36049 0.76852 0.0
N352 N 0.58112 0.39591 0.77297 0.0
C353 C 0.61643 0.4367 0.77672 0.0
C354 C 0.5653 0.41103 0.78432 0.0
C355 C 0.58209 0.43178 0.78601 0.0
H356 H 0.54058 0.40709 0.79266 0.0
H357 H 0.56891 0.44382 0.79475 0.0
H358 H 0.47331 0.32031 0.7139 0.0
H359 H 0.61813 0.33091 0.74465 0.0
H360 H 0.4364 0.28648 0.70941 0.0
H361 H 0.62947 0.45276 0.77813 0.0
H362 H 0.68447 0.4401 0.75849 0.0
H363 H 0.40281 0.40257 0.7575 0.0
H364 H 0.71524 0.37174 0.73057 0.0
H365 H 0.68156 0.33594 0.72928 0.0
H366 H 0.31406 0.29985 0.73835 0.0
H367 H 0.71587 0.41063 0.74138 0.0
H368 H 0.29471 0.36936 0.76651 0.0
H369 H 0.3362 0.40221 0.77006 0.0
N370 N 0.3998 0.36994 0.74807 0.0
C371 C 0.3773 0.35189 0.74559 0.0
C372 C 0.38541 0.38795 0.7565 0.0
C373 C 0.32413 0.36934 0.76125 0.0
C374 C 0.3475 0.38788 0.76335 0.0
C375 C 0.33883 0.35108 0.7522 0.0
H376 H 0.28667 0.33126 0.75455 0.0
N377 N 0.43049 0.33518 0.73058 0.0
C378 C 0.39302 0.33405 0.73655 0.0
C379 C 0.38644 0.29768 0.72424 0.0
C380 C 0.37021 0.31513 0.73375 0.0
C381 C 0.44551 0.31869 0.72038 0.0
C382 C 0.42409 0.29958 0.71736 0.0
O383 O 0.56383 0.37648 0.74088 0.0
O384 O 0.5073 0.39552 0.73769 0.0
O385 O 0.45902 0.36943 0.70581 0.0
O386 O 0.42588 0.39261 0.72149 0.0
O387 O 0.50233 0.37767 0.78008 0.0
O388 O 0.47679 0.39544 0.75513 0.0
O389 O 0.45058 0.35009 0.76164 0.0
O390 O 0.50972 0.33414 0.76699 0.0
O391 O 0.56299 0.35959 0.79813 0.0
O392 O 0.5952 0.33725 0.78062 0.0
O393 O 0.51379 0.35013 0.72445 0.0
O394 O 0.54227 0.33289 0.7492 0.0
C395 C 0.5444 0.39308 0.73431 0.0
C396 C 0.48028 0.39295 0.7728 0.0
C397 C 0.39743 0.37944 0.6944 0.0
C398 C 0.36895 0.37201 0.66468 0.0
C399 C 0.3284 0.37147 0.69174 0.0
C400 C 0.36056 0.37677 0.70239 0.0
C401 C 0.33249 0.36903 0.67301 0.0
C402 C 0.40137 0.37721 0.6755 0.0
C403 C 0.43201 0.3843 0.70552 0.0
C404 C 0.33191 0.31428 0.74036 0.0
C405 C 0.31629 0.33218 0.74957 0.0
H406 H 0.36985 0.28289 0.72178 0.0
C407 C 0.47257 0.3361 0.77051 0.0
C408 C 0.53561 0.33461 0.7316 0.0
C409 C 0.60675 0.33348 0.813 0.0
C410 C 0.62122 0.33256 0.8455 0.0
C411 C 0.64067 0.30245 0.82621 0.0
C412 C 0.62482 0.31306 0.81113 0.0
C413 C 0.63868 0.31204 0.84332 0.0
C414 C 0.6054 0.34334 0.83026 0.0
C415 C 0.58787 0.34367 0.79707 0.0
H416 H 0.30015 0.36938 0.69802 0.0
H417 H 0.3564 0.37886 0.71683 0.0
H418 H 0.30698 0.36524 0.66498 0.0
H419 H 0.42974 0.37927 0.66926 0.0
H420 H 0.65433 0.28667 0.82465 0.0
H421 H 0.62617 0.30508 0.79804 0.0
H422 H 0.65117 0.30353 0.85487 0.0
H423 H 0.59156 0.35909 0.83192 0.0
C424 C 0.87357 0.84482 0.74615 0.0
C425 C 0.86628 0.8069 0.7557 0.0
C426 C 0.88692 0.82685 0.75591 0.0
C427 C 0.83255 0.80505 0.74507 0.0
C428 C 0.83892 0.8432 0.73599 0.0
C429 C 0.81895 0.82313 0.73521 0.0
N430 N 0.8934 0.8641 0.74729 0.0
C431 C 0.87769 0.88277 0.74024 0.0
C432 C 0.82468 0.86198 0.72737 0.0
C433 C 0.84378 0.88192 0.72979 0.0
Gd434 Gd 0.04298 0.86154 0.72979 0.0
Gd435 Gd 0.95091 0.86309 0.7647 0.0
N436 N 0.92037 0.82888 0.7656 0.0
C437 C 0.88011 0.78945 0.76626 0.0
C438 C 0.93316 0.8123 0.77653 0.0
C439 C 0.91346 0.79225 0.77687 0.0
H440 H 0.95878 0.81457 0.78481 0.0
H441 H 0.924 0.77898 0.78529 0.0
H442 H 0.02471 0.90363 0.70097 0.0
H443 H 0.89038 0.8985 0.74305 0.0
H444 H 0.05411 0.93897 0.69261 0.0
H445 H 0.86503 0.77386 0.76647 0.0
H446 H 0.81648 0.78979 0.74457 0.0
H447 H 0.10835 0.83577 0.75554 0.0
H448 H 0.79816 0.86142 0.71944 0.0
H449 H 0.83197 0.89674 0.72392 0.0
H450 H 0.17509 0.94008 0.72498 0.0
H451 H 0.79247 0.82157 0.72735 0.0
H452 H 0.2076 0.87752 0.76137 0.0
H453 H 0.17365 0.84266 0.76817 0.0
N454 N 0.10447 0.86683 0.7426 0.0
C455 C 0.12327 0.88561 0.73795 0.0
C456 C 0.12245 0.85122 0.75286 0.0
C457 C 0.17877 0.87464 0.75592 0.0
C458 C 0.15965 0.85498 0.75986 0.0
C459 C 0.16077 0.89018 0.74473 0.0
H460 H 0.20783 0.91384 0.74522 0.0
N461 N 0.06876 0.89532 0.72004 0.0
C462 C 0.10471 0.90038 0.72652 0.0
C463 C 0.10441 0.93437 0.7096 0.0
C464 C 0.12336 0.92014 0.72158 0.0
C465 C 0.05127 0.90855 0.70751 0.0
C466 C 0.06841 0.92842 0.70237 0.0
O467 O 0.96198 0.83446 0.74596 0.0
O468 O 0.98276 0.85251 0.72082 0.0
O469 O 0.06923 0.85986 0.70282 0.0
O470 O 0.06333 0.83029 0.71964 0.0
O471 O 0.00651 0.84861 0.77533 0.0
O472 O 0.03667 0.83365 0.7501 0.0
O473 O 0.05243 0.87839 0.75691 0.0
O474 O 0.99202 0.89196 0.76481 0.0
O475 O 0.9519 0.86123 0.79424 0.0
O476 O 0.90347 0.87638 0.78054 0.0
O477 O 0.98871 0.87954 0.72083 0.0
O478 O 0.9589 0.89307 0.74668 0.0
C479 C 0.96445 0.83601 0.72824 0.0
C480 C 0.02945 0.83413 0.76773 0.0
C481 C 0.09318 0.8259 0.68981 0.0
C482 C 0.1126 0.82116 0.65802 0.0
C483 C 0.126 0.79278 0.68052 0.0
C484 C 0.10848 0.80526 0.69399 0.0
C485 C 0.12817 0.80062 0.66271 0.0
C486 C 0.09539 0.83384 0.67178 0.0
C487 C 0.0749 0.83892 0.70429 0.0
C488 C 0.16043 0.92494 0.72856 0.0
C489 C 0.17911 0.90999 0.74008 0.0
H490 H 0.11774 0.94971 0.7055 0.0
C491 C 0.03018 0.89186 0.76613 0.0
C492 C 0.96749 0.89429 0.72922 0.0
C493 C 0.92029 0.88987 0.80941 0.0
C494 C 0.91333 0.90182 0.84081 0.0
C495 C 0.93177 0.92784 0.81717 0.0
C496 C 0.92978 0.91134 0.80417 0.0
C497 C 0.92379 0.92314 0.8354 0.0
C498 C 0.9117 0.88522 0.82769 0.0
C499 C 0.91974 0.87209 0.79609 0.0
H500 H 0.13808 0.77696 0.68391 0.0
H501 H 0.10723 0.79881 0.70773 0.0
H502 H 0.1425 0.79065 0.65264 0.0
H503 H 0.08304 0.84962 0.66843 0.0
H504 H 0.93954 0.94432 0.8131 0.0
H505 H 0.93632 0.91523 0.7901 0.0
H506 H 0.92514 0.93622 0.84524 0.0
H507 H 0.90422 0.86865 0.83173 0.0
C508 C 0.61263 0.65803 0.25256 0.0
C509 C 0.60881 0.69552 0.26291 0.0
C510 C 0.59282 0.67428 0.26186 0.0
C511 C 0.64402 0.70032 0.25402 0.0
C512 C 0.64821 0.66272 0.2438 0.0
C513 C 0.66366 0.68397 0.2445 0.0
N514 N 0.59647 0.63775 0.25164 0.0
C515 C 0.61485 0.62123 0.24279 0.0
C516 C 0.667 0.64592 0.23444 0.0
C517 C 0.65031 0.62506 0.23401 0.0
Gd518 Gd 0.4417 0.63501 0.23424 0.0
Gd519 Gd 0.53711 0.63281 0.26671 0.0
N520 N 0.55851 0.66921 0.2702 0.0
C521 C 0.58941 0.71119 0.27323 0.0
C522 C 0.54148 0.68392 0.28153 0.0
C523 C 0.55598 0.70524 0.28285 0.0
H524 H 0.51762 0.67922 0.29016 0.0
H525 H 0.54183 0.71694 0.29159 0.0
H526 H 0.45654 0.58319 0.22013 0.0
H527 H 0.60231 0.60505 0.24266 0.0
H528 H 0.42001 0.54876 0.2184 0.0
H529 H 0.60076 0.72768 0.2744 0.0
H530 H 0.65656 0.71658 0.25461 0.0
H531 H 0.38151 0.6713 0.25323 0.0
H532 H 0.69439 0.64887 0.22755 0.0
H533 H 0.66476 0.61193 0.22694 0.0
H534 H 0.29531 0.56584 0.24362 0.0
H535 H 0.69086 0.68791 0.23778 0.0
H536 H 0.27435 0.63852 0.2653 0.0
H537 H 0.31505 0.67196 0.26586 0.0
N538 N 0.37939 0.63753 0.24679 0.0
C539 C 0.35736 0.61904 0.24606 0.0
C540 C 0.36456 0.65644 0.25356 0.0
C541 C 0.30376 0.63805 0.26004 0.0
C542 C 0.32669 0.65694 0.26044 0.0
C543 C 0.31888 0.61882 0.25267 0.0
H544 H 0.26711 0.59906 0.25674 0.0
N545 N 0.41145 0.60055 0.23343 0.0
C546 C 0.37357 0.60015 0.23888 0.0
C547 C 0.36837 0.56208 0.23053 0.0
C548 C 0.35122 0.58079 0.2378 0.0
C549 C 0.42779 0.58255 0.22575 0.0
C550 C 0.40675 0.56302 0.2244 0.0
O551 O 0.54184 0.64746 0.23835 0.0
O552 O 0.48275 0.66384 0.23432 0.0
O553 O 0.43945 0.63014 0.20508 0.0
O554 O 0.40112 0.65355 0.21775 0.0
O555 O 0.4821 0.64851 0.27771 0.0
O556 O 0.4531 0.66386 0.25239 0.0
O557 O 0.43401 0.61704 0.26103 0.0
O558 O 0.4954 0.60453 0.26777 0.0
O559 O 0.54674 0.63342 0.29626 0.0
O560 O 0.5811 0.61219 0.27872 0.0
O561 O 0.4951 0.61729 0.22387 0.0
O562 O 0.52711 0.60337 0.24906 0.0
C563 C 0.52028 0.66296 0.23128 0.0
C564 C 0.45852 0.66282 0.27008 0.0
C565 C 0.41972 0.66013 0.18728 0.0
C566 C 0.41449 0.66739 0.15475 0.0
C567 C 0.44344 0.69445 0.17481 0.0
C568 C 0.43705 0.68067 0.18974 0.0
C569 C 0.43226 0.68789 0.15739 0.0
C570 C 0.40859 0.65356 0.16983 0.0
C571 C 0.41312 0.64509 0.20257 0.0
C572 C 0.31279 0.5806 0.24425 0.0
C573 C 0.29673 0.59952 0.25174 0.0
H574 H 0.3522 0.5469 0.22948 0.0
C575 C 0.45793 0.60513 0.2708 0.0
C576 C 0.51931 0.60334 0.23154 0.0
C577 C 0.59579 0.61005 0.31086 0.0
C578 C 0.61075 0.60933 0.34326 0.0
C579 C 0.64221 0.58384 0.32294 0.0
C580 C 0.62199 0.59275 0.30826 0.0
C581 C 0.63666 0.59207 0.34036 0.0
C582 C 0.59021 0.61834 0.3285 0.0
C583 C 0.57396 0.61875 0.29512 0.0
H584 H 0.45687 0.7103 0.17676 0.0
H585 H 0.44542 0.68601 0.20316 0.0
H586 H 0.43693 0.69899 0.14607 0.0
H587 H 0.39563 0.63752 0.16802 0.0
H588 H 0.66221 0.57049 0.32081 0.0
H589 H 0.62672 0.58595 0.29489 0.0
H590 H 0.65262 0.58498 0.35162 0.0
H591 H 0.5701 0.63163 0.33078 0.0
C592 C 0.17139 0.97889 0.37888 0.0
C593 C 0.18629 0.95945 0.37161 0.0
C594 C 0.15466 0.9947 0.36757 0.0
C595 C 0.11127 0.00302 0.32205 0.0
H596 H 0.13651 0.06392 0.33069 0.0
C597 C 0.06847 0.07152 0.27156 0.0
C598 C 0.05493 0.09122 0.27891 0.0
C599 C 0.08464 0.05545 0.2828 0.0
C600 C 0.12879 0.04702 0.32821 0.0
H601 H 0.19507 0.94139 0.34668 0.0
H602 H 0.16578 0.96895 0.32694 0.0
H603 H 0.16358 0.03573 0.35044 0.0
H604 H 0.04764 0.1095 0.30381 0.0
H605 H 0.07536 0.08135 0.32348 0.0
H606 H 0.07641 0.01432 0.29983 0.0
C607 C 0.16666 0.97186 0.34144 0.0
C608 C 0.14431 0.03084 0.33954 0.0
C609 C 0.18342 0.95604 0.35276 0.0
C610 C 0.05793 0.09452 0.29774 0.0
C611 C 0.07406 0.07843 0.30899 0.0
C612 C 0.09569 0.0192 0.31073 0.0
C613 C 0.15238 0.99147 0.3487 0.0
C614 C 0.13572 0.00864 0.33662 0.0
C615 C 0.08753 0.05867 0.30166 0.0
C616 C 0.10424 0.04142 0.31367 0.0
H617 H 0.17251 0.98188 0.39337 0.0
H618 H 0.14329 0.00943 0.37365 0.0
H619 H 0.10365 0.9861 0.31956 0.0
H620 H 0.06611 0.06834 0.25714 0.0
H621 H 0.0951 0.04054 0.27666 0.0
C622 C 0.33486 0.54894 0.84809 0.0
C623 C 0.3373 0.54974 0.86714 0.0
C624 C 0.34675 0.53038 0.83875 0.0
C625 C 0.36982 0.47205 0.84221 0.0
H626 H 0.44419 0.48605 0.80419 0.0
C627 C 0.45815 0.40612 0.8034 0.0
C628 C 0.46285 0.40972 0.78464 0.0
C629 C 0.44173 0.42228 0.81436 0.0
C630 C 0.42311 0.48182 0.81458 0.0
H631 H 0.35175 0.53113 0.8914 0.0
H632 H 0.37207 0.49846 0.87498 0.0
H633 H 0.41435 0.51535 0.82131 0.0
H634 H 0.45428 0.4331 0.76269 0.0
H635 H 0.42482 0.46075 0.78154 0.0
H636 H 0.37824 0.43842 0.8352 0.0
C637 C 0.36106 0.51231 0.86735 0.0
C638 C 0.40605 0.49862 0.8244 0.0
C639 C 0.34937 0.53099 0.87672 0.0
C640 C 0.45089 0.42972 0.77708 0.0
C641 C 0.43432 0.44571 0.78794 0.0
C642 C 0.38667 0.45514 0.83221 0.0
C643 C 0.36106 0.51215 0.84826 0.0
C644 C 0.37897 0.49395 0.83817 0.0
C645 C 0.42981 0.44231 0.80673 0.0
C646 C 0.4132 0.45989 0.81814 0.0
H647 H 0.32479 0.56293 0.84034 0.0
H648 H 0.34576 0.53049 0.82403 0.0
H649 H 0.34903 0.46806 0.8528 0.0
H650 H 0.46716 0.39086 0.80959 0.0
H651 H 0.43895 0.41924 0.82882 0.0
C652 C 0.68575 0.5441 0.645 0.0
C653 C 0.7004 0.53766 0.62796 0.0
C654 C 0.66938 0.52874 0.65694 0.0
C655 C 0.67397 0.47281 0.67144 0.0
H656 H 0.5663 0.47806 0.68622 0.0
C657 C 0.59612 0.40434 0.71228 0.0
C658 C 0.56504 0.40997 0.72364 0.0
C659 C 0.61391 0.42019 0.70125 0.0
C660 C 0.59667 0.4765 0.68264 0.0
H661 H 0.70825 0.50975 0.61018 0.0
H662 H 0.68147 0.48294 0.6315 0.0
H663 H 0.59478 0.5054 0.66598 0.0
H664 H 0.5298 0.43664 0.73343 0.0
H665 H 0.56212 0.46454 0.71512 0.0
H666 H 0.67685 0.44456 0.68858 0.0
C667 C 0.68264 0.49998 0.63541 0.0
C668 C 0.61278 0.49212 0.67087 0.0
C669 C 0.69821 0.51538 0.62328 0.0
C670 C 0.55321 0.43183 0.72446 0.0
C671 C 0.57163 0.44779 0.71382 0.0
C672 C 0.6582 0.45746 0.68357 0.0
C673 C 0.66808 0.50656 0.6523 0.0
C674 C 0.65141 0.49029 0.66507 0.0
C675 C 0.60166 0.44215 0.70171 0.0
C676 C 0.61917 0.45895 0.68926 0.0
H677 H 0.68754 0.56094 0.64934 0.0
H678 H 0.65846 0.53412 0.66997 0.0
H679 H 0.704 0.47122 0.66722 0.0
H680 H 0.60578 0.38754 0.71145 0.0
H681 H 0.63648 0.41499 0.69201 0.0
C682 C 0.81681 0.96369 0.1384 0.0
C683 C 0.84185 0.94559 0.1373 0.0
C684 C 0.82738 0.9821 0.14854 0.0
C685 C 0.88965 0.9986 0.18652 0.0
H686 H 0.88601 0.05693 0.16569 0.0
C687 C 0.97429 0.06978 0.21796 0.0
C688 C 0.95773 0.09069 0.21782 0.0
C689 C 0.95654 0.05263 0.20867 0.0
C690 C 0.88658 0.04081 0.17184 0.0
H691 H 0.89836 0.93322 0.14545 0.0
H692 H 0.91604 0.96491 0.16341 0.0
H693 H 0.86069 0.02596 0.14839 0.0
H694 H 0.90988 0.11018 0.20772 0.0
H695 H 0.87797 0.07998 0.19193 0.0
H696 H 0.91536 0.01321 0.20994 0.0
C697 C 0.88807 0.96473 0.15664 0.0
C698 C 0.87215 0.02309 0.16191 0.0
C699 C 0.8778 0.94652 0.14639 0.0
C700 C 0.92303 0.09414 0.20819 0.0
C701 C 0.90502 0.0769 0.199 0.0
C702 C 0.9037 0.01627 0.19649 0.0
C703 C 0.86295 0.98266 0.15791 0.0
C704 C 0.87437 0.00177 0.16901 0.0
C705 C 0.9216 0.05593 0.19912 0.0
C706 C 0.9032 0.03753 0.18912 0.0
H707 H 0.78879 0.9635 0.1317 0.0
H708 H 0.80744 0.99572 0.14934 0.0
H709 H 0.89109 0.98237 0.19244 0.0
H710 H 0.00103 0.06665 0.22529 0.0
H711 H 0.97058 0.03683 0.20877 0.0
C712 C 0.83481 0.0524 0.64854 0.0
C713 C 0.84004 0.05209 0.6296 0.0
C714 C 0.84372 0.03404 0.65911 0.0
C715 C 0.90537 0.98498 0.65752 0.0
H716 H 0.85025 0.96906 0.70171 0.0
C717 C 0.94455 0.90859 0.69924 0.0
C718 C 0.94914 0.91156 0.71805 0.0
C719 C 0.92814 0.92494 0.68848 0.0
C720 C 0.86599 0.97344 0.68945 0.0
H721 H 0.85635 0.03196 0.60674 0.0
H722 H 0.87115 -0.00029 0.62511 0.0
H723 H 0.82526 0.99844 0.68234 0.0
H724 H 0.93911 0.93373 0.74042 0.0
H725 H 0.90992 0.96238 0.72152 0.0
H726 H 0.94598 0.95998 0.66459 0.0
C727 C 0.8612 0.01432 0.63188 0.0
C728 C 0.85174 0.99025 0.67836 0.0
C729 C 0.85258 0.03273 0.62134 0.0
C730 C 0.93599 0.93102 0.72596 0.0
C731 C 0.91918 0.94735 0.71517 0.0
C732 C 0.91938 0.96812 0.66851 0.0
C733 C 0.85784 0.01493 0.65094 0.0
C734 C 0.87141 0.99629 0.6623 0.0
C735 C 0.91556 0.94455 0.6963 0.0
C736 C 0.89996 0.96224 0.68461 0.0
H737 H 0.8256 0.06717 0.65531 0.0
H738 H 0.84119 0.03521 0.67374 0.0
H739 H 0.92181 0.98951 0.6455 0.0
H740 H 0.95375 0.89361 0.69278 0.0
H741 H 0.92519 0.92222 0.67401 0.0
C742 C 0.697 0.46089 0.14967 0.0
C743 C 0.69285 0.46133 0.13066 0.0
C744 C 0.67696 0.47578 0.1605 0.0
C745 C 0.6311 0.5299 0.15885 0.0
H746 H 0.58074 0.51101 0.20347 0.0
C747 C 0.53482 0.58783 0.2009 0.0
C748 C 0.53805 0.58668 0.21994 0.0
C749 C 0.55281 0.57227 0.18994 0.0
C750 C 0.59504 0.51661 0.19116 0.0
H751 H 0.66452 0.47776 0.10811 0.0
H752 H 0.62938 0.50371 0.12705 0.0
H753 H 0.6138 0.48429 0.18452 0.0
H754 H 0.56245 0.56806 0.24236 0.0
H755 H 0.59443 0.54123 0.22325 0.0
H756 H 0.61288 0.56225 0.16555 0.0
C757 C 0.64824 0.49189 0.13355 0.0
C758 C 0.61391 0.50128 0.1803 0.0
C759 C 0.66805 0.4769 0.12273 0.0
C760 C 0.55945 0.5695 0.22775 0.0
C761 C 0.57755 0.55399 0.21678 0.0
C762 C 0.6124 0.54525 0.16976 0.0
C763 C 0.65257 0.49154 0.15255 0.0
C764 C 0.63216 0.50776 0.16402 0.0
C765 C 0.57452 0.5552 0.19774 0.0
C766 C 0.59415 0.53881 0.18606 0.0
H767 H 0.71566 0.44897 0.15617 0.0
H768 H 0.68112 0.4752 0.17509 0.0
H769 H 0.64539 0.53545 0.14652 0.0
H770 H 0.51846 0.60079 0.19441 0.0
H771 H 0.54938 0.57353 0.17534 0.0
C772 C 0.32542 0.4568 0.36003 0.0
C773 C 0.34135 0.45278 0.37731 0.0
C774 C 0.33332 0.4764 0.35089 0.0
C775 C 0.40975 0.51757 0.34785 0.0
H776 H 0.33626 0.54841 0.31722 0.0
C777 C 0.45827 0.58957 0.3021 0.0
C778 C 0.44182 0.5903 0.28468 0.0
C779 C 0.44313 0.5754 0.31534 0.0
C780 C 0.35722 0.53989 0.32561 0.0
H781 H 0.37563 0.46675 0.39912 0.0
H782 H 0.38962 0.50096 0.38307 0.0
H783 H 0.31335 0.51904 0.33716 0.0
H784 H 0.39819 0.57635 0.26718 0.0
H785 H 0.37219 0.55129 0.28982 0.0
H786 H 0.4539 0.5376 0.33583 0.0
C787 C 0.37156 0.48879 0.3765 0.0
C788 C 0.34402 0.52314 0.33708 0.0
C789 C 0.36359 0.46922 0.38566 0.0
C790 C 0.41041 0.57659 0.28062 0.0
C791 C 0.39559 0.56222 0.29369 0.0
C792 C 0.42301 0.53416 0.33628 0.0
C793 C 0.35734 0.49233 0.35884 0.0
C794 C 0.37027 0.5116 0.34811 0.0
C795 C 0.41173 0.56143 0.31124 0.0
C796 C 0.39702 0.54528 0.32479 0.0
H797 H 0.3085 0.44437 0.35316 0.0
H798 H 0.32228 0.47858 0.33721 0.0
H799 H 0.43077 0.50875 0.356 0.0
H800 H 0.48256 0.60011 0.30553 0.0
H801 H 0.45602 0.57542 0.32877 0.0
C802 C 0.16204 0.02698 0.87398 0.0
C803 C 0.19542 0.03755 0.86709 0.0
C804 C 0.14247 0.01122 0.86367 0.0
C805 C 0.15956 0.97262 0.8263 0.0
H806 H 0.04717 0.96994 0.82275 0.0
C807 C 0.08259 0.91897 0.77339 0.0
C808 C 0.04866 0.90777 0.77851 0.0
C809 C 0.09965 0.93426 0.78495 0.0
C810 C 0.07857 0.97029 0.8238 0.0
H811 H 0.23299 0.04059 0.84349 0.0
H812 H 0.19921 0.01304 0.82567 0.0
H813 H 0.07788 0.99814 0.84138 0.0
H814 H 0.00669 0.90318 0.80005 0.0
H815 H 0.03582 0.93032 0.82032 0.0
H816 H 0.16047 0.94487 0.80879 0.0
C817 C 0.18859 0.01664 0.83918 0.0
C818 C 0.09615 0.98647 0.83445 0.0
C819 C 0.20798 0.03243 0.84942 0.0
C820 C 0.03216 0.91209 0.79556 0.0
C821 C 0.04905 0.9275 0.80718 0.0
C822 C 0.14205 0.95647 0.81573 0.0
C823 C 0.15596 0.00561 0.84627 0.0
C824 C 0.13687 0.98798 0.83562 0.0
C825 C 0.08309 0.93877 0.802 0.0
C826 C 0.10137 0.95525 0.81414 0.0
H827 H 0.15175 0.03035 0.88759 0.0
H828 H 0.11753 0.00293 0.86954 0.0
H829 H 0.19098 0.97304 0.82724 0.0
H830 H 0.09543 0.91646 0.76025 0.0
H831 H 0.12542 0.9429 0.78034 0.0
C832 C 0.17876 0.11623 0.99203 0.0
C833 C 0.21913 0.11479 0.98944 0.0
C834 C 0.16326 0.11802 0.00956 0.0
C835 C 0.18928 0.10654 0.05757 0.0
H836 H 0.09602 0.1395 0.06806 0.0
C837 C 0.13038 0.11501 0.13053 0.0
C838 C 0.09042 0.11092 0.13277 0.0
C839 C 0.14627 0.11768 0.11316 0.0
C840 C 0.122 0.13015 0.06529 0.0
H841 H 0.275 0.11541 0.003 0.0
H842 H 0.2482 0.11904 0.03348 0.0
H843 H 0.12363 0.14055 0.03744 0.0
H844 H 0.03555 0.10729 0.11858 0.0
H845 H 0.06335 0.1119 0.08822 0.0
H846 H 0.18769 0.09616 0.08538 0.0
C847 C 0.22832 0.11808 0.0221 0.0
C848 C 0.13778 0.1307 0.04774 0.0
C849 C 0.24373 0.11608 0.00463 0.0
C850 C 0.06652 0.1102 0.11727 0.0
C851 C 0.08237 0.11305 0.09991 0.0
C852 C 0.1737 0.10613 0.0751 0.0
C853 C 0.18786 0.11861 0.02485 0.0
C854 C 0.17154 0.11879 0.04363 0.0
C855 C 0.12251 0.11649 0.09764 0.0
C856 C 0.13977 0.11782 0.07914 0.0
H857 H 0.15911 0.11514 0.98056 0.0
H858 H 0.13197 0.11817 0.01114 0.0
H859 H 0.21479 0.09677 0.05486 0.0
H860 H 0.14957 0.11553 0.1422 0.0
H861 H 0.17726 0.12052 0.11185 0.0
C862 C 0.37438 0.35204 0.49839 0.0
C863 C 0.34192 0.36242 0.49063 0.0
C864 C 0.38142 0.35332 0.51704 0.0
C865 C 0.35896 0.38589 0.55762 0.0
H866 H 0.38574 0.33298 0.58402 0.0
C867 C 0.39276 0.38604 0.63454 0.0
C868 C 0.37272 0.37004 0.6447 0.0
C869 C 0.39361 0.38503 0.61556 0.0
C870 C 0.37834 0.34789 0.57682 0.0
H871 H 0.29131 0.38221 0.49645 0.0
H872 H 0.30375 0.38453 0.52904 0.0
H873 H 0.37707 0.33173 0.55111 0.0
H874 H 0.33942 0.33996 0.64307 0.0
H875 H 0.3408 0.33821 0.60996 0.0
H876 H 0.3593 0.40193 0.58341 0.0
C877 C 0.32395 0.37559 0.52061 0.0
C878 C 0.37367 0.34721 0.55797 0.0
C879 C 0.3168 0.37423 0.50196 0.0
C880 C 0.35473 0.35263 0.63556 0.0
C881 C 0.35585 0.35152 0.61663 0.0
C882 C 0.36386 0.3866 0.57646 0.0
C883 C 0.3563 0.36511 0.52835 0.0
C884 C 0.36338 0.36614 0.54821 0.0
C885 C 0.37477 0.36788 0.60641 0.0
C886 C 0.37303 0.36753 0.58628 0.0
H887 H 0.39479 0.3432 0.49001 0.0
H888 H 0.40687 0.34532 0.52258 0.0
H889 H 0.35149 0.40079 0.55043 0.0
H890 H 0.40673 0.3997 0.64124 0.0
H891 H 0.4087 0.39776 0.60803 0.0
C892 C 0.67612 0.37183 0.00606 0.0
C893 C 0.7067 0.38691 0.00837 0.0
C894 C 0.66049 0.36799 0.98882 0.0
C895 C 0.65299 0.39044 0.94212 0.0
H896 H 0.64327 0.32958 0.9285 0.0
C897 C 0.63982 0.36203 0.86733 0.0
C898 C 0.62011 0.34239 0.8638 0.0
C899 C 0.64431 0.36932 0.88523 0.0
C900 C 0.6449 0.34669 0.9321 0.0
H901 H 0.7444 0.40996 0.99424 0.0
H902 H 0.7168 0.40341 0.96425 0.0
H903 H 0.66204 0.33884 0.9593 0.0
H904 H 0.58724 0.31576 0.87581 0.0
H905 H 0.59336 0.32888 0.90693 0.0
H906 H 0.63596 0.3983 0.91485 0.0
C907 C 0.70471 0.39472 0.97583 0.0
C908 C 0.65585 0.35198 0.94981 0.0
C909 C 0.72052 0.39846 0.99305 0.0
C910 C 0.60286 0.33087 0.87827 0.0
C911 C 0.60674 0.33831 0.89609 0.0
C912 C 0.64164 0.38515 0.9244 0.0
C913 C 0.67489 0.37922 0.97349 0.0
C914 C 0.66049 0.37389 0.95498 0.0
C915 C 0.62872 0.35721 0.8999 0.0
C916 C 0.63787 0.36317 0.91908 0.0
H917 H 0.66422 0.36296 0.01759 0.0
H918 H 0.63716 0.35616 0.98747 0.0
H919 H 0.65595 0.4075 0.94578 0.0
H920 H 0.65358 0.37109 0.85635 0.0
H921 H 0.66168 0.38383 0.88758 0.0
C922 C 0.88606 0.14029 0.50301 0.0
C923 C 0.84908 0.13505 0.50997 0.0
C924 C 0.89387 0.13849 0.48444 0.0
C925 C 0.85616 0.11463 0.4414 0.0
H926 H 0.9147 0.16204 0.4191 0.0
C927 C 0.84484 0.13845 0.36588 0.0
C928 C 0.87801 0.14625 0.35674 0.0
C929 C 0.84657 0.13287 0.38428 0.0
C930 C 0.89897 0.14843 0.42513 0.0
H931 H 0.79144 0.12348 0.50292 0.0
H932 H 0.80473 0.12073 0.47041 0.0
H933 H 0.9069 0.16087 0.45195 0.0
H934 H 0.93946 0.15334 0.35937 0.0
H935 H 0.94255 0.1437 0.39179 0.0
H936 H 0.84701 0.10274 0.41438 0.0
C937 C 0.828 0.12586 0.47935 0.0
C938 C 0.89443 0.14776 0.44401 0.0
C939 C 0.82027 0.12754 0.49797 0.0
C940 C 0.91351 0.14731 0.36612 0.0
C941 C 0.91517 0.14196 0.38466 0.0
C942 C 0.86053 0.11538 0.42249 0.0
C943 C 0.86482 0.13151 0.47232 0.0
C944 C 0.87234 0.13108 0.45237 0.0
C945 C 0.88146 0.13517 0.39402 0.0
C946 C 0.88136 0.13253 0.41413 0.0
H947 H 0.90915 0.14566 0.51196 0.0
H948 H 0.92276 0.14256 0.4796 0.0
H949 H 0.83967 0.10129 0.44739 0.0
H950 H 0.81717 0.13738 0.3589 0.0
H951 H 0.82003 0.12788 0.3911 0.0
C952 C 0.82693 0.85832 0.99984 0.0
C953 C 0.81813 0.87701 0.01001 0.0
C954 C 0.83605 0.86013 0.98136 0.0
C955 C 0.86929 0.90126 0.94722 0.0
H956 H 0.84359 0.85557 0.91295 0.0
C957 C 0.92834 0.90408 0.87406 0.0
C958 C 0.90365 0.89703 0.86006 0.0
C959 C 0.91846 0.90035 0.89225 0.0
C960 C 0.85069 0.86862 0.92227 0.0
H961 H 0.81013 0.91205 0.00874 0.0
H962 H 0.82444 0.91521 0.97636 0.0
H963 H 0.82232 0.8522 0.94439 0.0
H964 H 0.84947 0.88046 0.85403 0.0
H965 H 0.83138 0.8746 0.88576 0.0
H966 H 0.89605 0.91818 0.92503 0.0
C967 C 0.82574 0.89921 0.9827 0.0
C968 C 0.83893 0.86653 0.94042 0.0
C969 C 0.81722 0.89743 0.00123 0.0
C970 C 0.86915 0.88591 0.86459 0.0
C971 C 0.85893 0.88248 0.88279 0.0
C972 C 0.8806 0.90347 0.92907 0.0
C973 C 0.83608 0.88065 0.97258 0.0
C974 C 0.84806 0.88285 0.95315 0.0
C975 C 0.88329 0.88983 0.89689 0.0
C976 C 0.87155 0.88718 0.91632 0.0
H977 H 0.82828 0.84241 0.00635 0.0
H978 H 0.84434 0.8455 0.97414 0.0
H979 H 0.87759 0.91399 0.95663 0.0
H980 H 0.9554 0.91241 0.87091 0.0
H981 H 0.93847 0.90577 0.90266 0.0
C982 C 0.70516 0.64122 0.49615 0.0
C983 C 0.69044 0.62692 0.50955 0.0
C984 C 0.68714 0.64292 0.47917 0.0
C985 C 0.62611 0.61022 0.44854 0.0
H986 H 0.62576 0.66324 0.41938 0.0
C987 C 0.5797 0.60752 0.37379 0.0
C988 C 0.60607 0.61765 0.36186 0.0
C989 C 0.58107 0.61197 0.39241 0.0
C990 C 0.62563 0.64831 0.42737 0.0
H991 H 0.64407 0.6039 0.5158 0.0
H992 H 0.61212 0.60728 0.48637 0.0
H993 H 0.64476 0.66487 0.45136 0.0
H994 H 0.65342 0.64084 0.35957 0.0
H995 H 0.65611 0.64868 0.39209 0.0
H996 H 0.60823 0.59351 0.42453 0.0
C997 C 0.63805 0.61691 0.48889 0.0
C998 C 0.63657 0.64923 0.44568 0.0
C999 C 0.65614 0.61516 0.50585 0.0
C1000 C 0.63246 0.63313 0.36858 0.0
C1001 C 0.63389 0.6376 0.38719 0.0
C1002 C 0.61513 0.60931 0.43029 0.0
C1003 C 0.65385 0.63041 0.47518 0.0
C1004 C 0.63775 0.6301 0.45639 0.0
C1005 C 0.60909 0.62651 0.39941 0.0
C1006 C 0.61554 0.62825 0.41936 0.0
H1007 H 0.73115 0.6508 0.49864 0.0
H1008 H 0.70033 0.65336 0.46893 0.0
H1009 H 0.62725 0.59509 0.45625 0.0
H1010 H 0.55939 0.59535 0.36883 0.0
H1011 H 0.56123 0.60338 0.40142 0.0
C1012 C 0.30348 0.64285 -1e-05 0.0
C1013 C 0.31815 0.62525 0.98994 0.0
C1014 C 0.30975 0.64406 0.0187 0.0
C1015 C 0.3799 0.62623 0.05295 0.0
H1016 H 0.30547 0.65079 0.08666 0.0
C1017 C 0.42566 0.66422 0.12113 0.0
C1018 C 0.40193 0.66035 0.13637 0.0
C1019 C 0.41385 0.65745 0.10388 0.0
C1020 C 0.32647 0.64367 0.07748 0.0
H1021 H 0.34863 0.59435 0.99189 0.0
H1022 H 0.35973 0.59654 0.02462 0.0
H1023 H 0.28524 0.64223 0.05571 0.0
H1024 H 0.347 0.64648 0.14542 0.0
H1025 H 0.32667 0.6344 0.11535 0.0
H1026 H 0.42119 0.62779 0.07466 0.0
C1027 C 0.34393 0.60957 0.01792 0.0
C1028 C 0.31496 0.63895 0.05971 0.0
C1029 C 0.33757 0.60833 0.9992 0.0
C1030 C 0.36614 0.64953 0.13398 0.0
C1031 C 0.35431 0.64279 0.11673 0.0
C1032 C 0.39143 0.631 0.07069 0.0
C1033 C 0.33087 0.62771 0.0278 0.0
C1034 C 0.34172 0.63051 0.04717 0.0
C1035 C 0.37801 0.64669 0.10149 0.0
C1036 C 0.36503 0.64012 0.08306 0.0
H1037 H 0.28886 0.6563 0.99327 0.0
H1038 H 0.2997 0.65837 0.02588 0.0
H1039 H 0.40132 0.61992 0.04357 0.0
H1040 H 0.45355 0.67232 0.12255 0.0
H1041 H 0.43256 0.66094 0.09237 0.0
C1042 C 0.18778 0.8502 0.49752 0.0
C1043 C 0.1949 0.87173 0.49166 0.0
C1044 C 0.17474 0.84594 0.51519 0.0
C1045 C 0.13279 0.87183 0.55664 0.0
H1046 H 0.17625 0.82051 0.58005 0.0
C1047 C 0.12391 0.85094 0.63455 0.0
C1048 C 0.11483 0.82902 0.63879 0.0
C1049 C 0.12985 0.85752 0.61644 0.0
C1050 C 0.16361 0.83481 0.57365 0.0
H1051 H 0.19316 0.90575 0.49965 0.0
H1052 H 0.17113 0.89833 0.53065 0.0
H1053 H 0.19428 0.82928 0.54891 0.0
H1054 H 0.1018 0.79733 0.62711 0.0
H1055 H 0.11309 0.80867 0.59578 0.0
H1056 H 0.103 0.87751 0.58188 0.0
C1057 C 0.17493 0.88471 0.52151 0.0
C1058 C 0.17377 0.83981 0.55574 0.0
C1059 C 0.18764 0.88898 0.50373 0.0
C1060 C 0.10991 0.81417 0.62444 0.0
C1061 C 0.11619 0.82067 0.60646 0.0
C1062 C 0.12295 0.86694 0.57474 0.0
C1063 C 0.16892 0.86308 0.52757 0.0
C1064 C 0.15819 0.85823 0.54686 0.0
C1065 C 0.1271 0.84226 0.60228 0.0
C1066 C 0.13795 0.84821 0.58333 0.0
H1067 H 0.19245 0.83658 0.48844 0.0
H1068 H 0.16943 0.82911 0.51916 0.0
H1069 H 0.11997 0.88606 0.55025 0.0
H1070 H 0.12804 0.86282 0.64524 0.0
H1071 H 0.13827 0.87428 0.6136 0.0
C1072 C 0.19234 0.28671 0.37993 0.0
C1073 C 0.20417 0.30646 0.37173 0.0
C1074 C 0.16896 0.27191 0.37045 0.0
C1075 C 0.14757 0.23786 0.34234 0.0
H1076 H 0.06703 0.25587 0.30865 0.0
C1077 C 0.09286 0.18174 0.28515 0.0
C1078 C 0.05304 0.18202 0.2809 0.0
C1079 C 0.10849 0.19684 0.29733 0.0
C1080 C 0.08913 0.25051 0.31814 0.0
H1081 H 0.19863 0.32682 0.34765 0.0
H1082 H 0.15862 0.30088 0.33098 0.0
H1083 H 0.09645 0.28273 0.32881 0.0
H1084 H 0.99822 0.1981 0.28651 0.0
H1085 H 0.02536 0.22408 0.30803 0.0
H1086 H 0.14007 0.20561 0.33179 0.0
C1087 C 0.16717 0.29681 0.34475 0.0
C1088 C 0.10626 0.26595 0.32957 0.0
C1089 C 0.19048 0.31158 0.35423 0.0
C1090 C 0.0291 0.19752 0.28934 0.0
C1091 C 0.04469 0.21252 0.30161 0.0
C1092 C 0.13039 0.22241 0.33094 0.0
C1093 C 0.15689 0.27657 0.35257 0.0
C1094 C 0.13606 0.25987 0.34163 0.0
C1095 C 0.08459 0.21241 0.30571 0.0
C1096 C 0.10135 0.2286 0.31852 0.0
H1097 H 0.20253 0.28224 0.39337 0.0
H1098 H 0.16104 0.2566 0.37696 0.0
H1099 H 0.17073 0.23264 0.35132 0.0
H1100 H 0.11208 0.16984 0.27915 0.0
H1101 H 0.13944 0.19645 0.3 0.0
C1102 C 0.3162 0.18815 0.85729 0.0
C1103 C 0.33345 0.1833 0.8742 0.0
C1104 C 0.3288 0.20614 0.84697 0.0
C1105 C 0.41462 0.23747 0.83702 0.0
H1106 H 0.34701 0.28375 0.81995 0.0
C1107 C 0.47758 0.31064 0.79705 0.0
C1108 C 0.45469 0.32041 0.78348 0.0
C1109 C 0.46156 0.29519 0.80899 0.0
C1110 C 0.36631 0.2708 0.82428 0.0
H1111 H 0.37621 0.19455 0.89383 0.0
H1112 H 0.39924 0.22521 0.87538 0.0
H1113 H 0.32039 0.25415 0.83864 0.0
H1114 H 0.39667 0.32197 0.77225 0.0
H1115 H 0.36935 0.29403 0.79193 0.0
H1116 H 0.46014 0.25304 0.82206 0.0
C1117 C 0.37595 0.215 0.87022 0.0
C1118 C 0.35097 0.25395 0.83512 0.0
C1119 C 0.3629 0.19731 0.88069 0.0
C1120 C 0.41524 0.31465 0.78234 0.0
C1121 C 0.39942 0.29871 0.7939 0.0
C1122 C 0.42979 0.25397 0.82584 0.0
C1123 C 0.3593 0.21943 0.85321 0.0
C1124 C 0.37509 0.23725 0.84166 0.0
C1125 C 0.4224 0.2886 0.80737 0.0
C1126 C 0.40596 0.27101 0.81937 0.0
H1127 H 0.29386 0.17765 0.85168 0.0
H1128 H 0.3157 0.20921 0.83381 0.0
H1129 H 0.43368 0.22458 0.84175 0.0
H1130 H 0.50796 0.31505 0.79855 0.0
H1131 H 0.48008 0.28846 0.81949 0.0
C1132 C 0.69258 0.21318 0.62112 0.0
C1133 C 0.71019 0.19527 0.62982 0.0
C1134 C 0.66845 0.22726 0.63088 0.0
C1135 C 0.61393 0.23297 0.67435 0.0
H1136 H 0.63381 0.29482 0.66691 0.0
C1137 C 0.56817 0.29861 0.72617 0.0
C1138 C 0.55281 0.31822 0.71927 0.0
C1139 C 0.58406 0.28312 0.71444 0.0
C1140 C 0.6275 0.27763 0.669 0.0
H1141 H 0.7142 0.17723 0.65521 0.0
H1142 H 0.67284 0.2019 0.67226 0.0
H1143 H 0.66554 0.26825 0.64744 0.0
H1144 H 0.54213 0.33695 0.69463 0.0
H1145 H 0.56974 0.30991 0.67422 0.0
H1146 H 0.57653 0.24242 0.6962 0.0
C1147 C 0.67746 0.20512 0.65793 0.0
C1148 C 0.6456 0.26238 0.65779 0.0
C1149 C 0.70155 0.1911 0.6482 0.0
C1150 C 0.55371 0.32201 0.7004 0.0
C1151 C 0.56971 0.30656 0.6887 0.0
C1152 C 0.59591 0.24823 0.68559 0.0
C1153 C 0.66132 0.22366 0.6495 0.0
C1154 C 0.63938 0.23984 0.66045 0.0
C1155 C 0.58508 0.28695 0.69558 0.0
C1156 C 0.60282 0.27072 0.68316 0.0
H1157 H 0.69873 0.21685 0.60699 0.0
H1158 H 0.65597 0.2412 0.62391 0.0
H1159 H 0.60805 0.21575 0.6766 0.0
H1160 H 0.56786 0.29517 0.74063 0.0
H1161 H 0.59611 0.26829 0.72019 0.0
C1162 C 0.82435 0.31937 0.14401 0.0
C1163 C 0.82983 0.319 0.12507 0.0
C1164 C 0.83833 0.30241 0.155 0.0
C1165 C 0.91222 0.25897 0.15548 0.0
H1166 H 0.85388 0.23699 0.19691 0.0
C1167 C 0.96423 0.18494 0.19771 0.0
C1168 C 0.95979 0.18586 0.21669 0.0
C1169 C 0.94732 0.20074 0.18648 0.0
C1170 C 0.87073 0.24312 0.18551 0.0
H1171 H 0.853 0.30003 0.10277 0.0
H1172 H 0.87736 0.27043 0.12194 0.0
H1173 H 0.82545 0.26496 0.17727 0.0
H1174 H 0.93426 0.20429 0.23875 0.0
H1175 H 0.90517 0.23205 0.21915 0.0
H1176 H 0.95763 0.23732 0.16376 0.0
C1177 C 0.86284 0.28405 0.12833 0.0
C1178 C 0.8544 0.25912 0.17423 0.0
C1179 C 0.84885 0.301 0.11734 0.0
C1180 C 0.93808 0.20302 0.22418 0.0
C1181 C 0.92121 0.21887 0.21293 0.0
C1182 C 0.92856 0.24301 0.16676 0.0
C1183 C 0.85816 0.28467 0.14731 0.0
C1184 C 0.87498 0.26726 0.1591 0.0
C1185 C 0.92565 0.21794 0.19394 0.0
C1186 C 0.90806 0.23489 0.18193 0.0
H1187 H 0.81034 0.33312 0.15045 0.0
H1188 H 0.83465 0.30354 0.16959 0.0
H1189 H 0.92916 0.26515 0.14413 0.0
H1190 H 0.98051 0.17188 0.19145 0.0
H1191 H 0.95084 0.19932 0.17191 0.0
C1192 C 0.83673 0.70253 0.61899 0.0
C1193 C 0.82549 0.68244 0.62683 0.0
C1194 C 0.85035 0.7196 0.62988 0.0
C1195 C 0.89596 0.72959 0.67428 0.0
H1196 H 0.86439 0.78965 0.6663 0.0
C1197 C 0.93833 0.79814 0.72395 0.0
C1198 C 0.94824 0.81863 0.71657 0.0
C1199 C 0.92247 0.78183 0.71298 0.0
C1200 C 0.87388 0.773 0.66857 0.0
H1201 H 0.81822 0.66492 0.65235 0.0
H1202 H 0.84224 0.69459 0.67128 0.0
H1203 H 0.8379 0.76079 0.64709 0.0
H1204 H 0.95016 0.83798 0.69179 0.0
H1205 H 0.9236 0.80931 0.67248 0.0
H1206 H 0.9323 0.7417 0.69556 0.0
C1207 C 0.84112 0.69701 0.65669 0.0
C1208 C 0.85863 0.75647 0.65758 0.0
C1209 C 0.82737 0.68001 0.64583 0.0
C1210 C 0.94263 0.82237 0.6979 0.0
C1211 C 0.92705 0.806 0.68687 0.0
C1212 C 0.91136 0.7461 0.6852 0.0
C1213 C 0.85315 0.71691 0.64883 0.0
C1214 C 0.86939 0.73458 0.66037 0.0
C1215 C 0.9167 0.78553 0.69428 0.0
C1216 C 0.90041 0.76801 0.68254 0.0
H1217 H 0.8361 0.70486 0.60439 0.0
H1218 H 0.85975 0.73467 0.62341 0.0
H1219 H 0.90536 0.71292 0.67656 0.0
H1220 H 0.94309 0.79461 0.7382 0.0
H1221 H 0.91449 0.76636 0.7192 0.0
C1222 C 0.68253 0.81118 0.14707 0.0
C1223 C 0.68716 0.80767 0.12834 0.0
C1224 C 0.66136 0.79638 0.15776 0.0
C1225 C 0.60255 0.76733 0.17692 0.0
H1226 H 0.61456 0.70587 0.1658 0.0
C1227 C 0.51966 0.69996 0.21664 0.0
C1228 C 0.53861 0.68001 0.21977 0.0
C1229 C 0.53622 0.71583 0.20526 0.0
C1230 C 0.6112 0.72294 0.16925 0.0
H1231 H 0.67155 0.78654 0.10595 0.0
H1232 H 0.63371 0.76097 0.1245 0.0
H1233 H 0.64518 0.73321 0.1464 0.0
H1234 H 0.59015 0.66118 0.21367 0.0
H1235 H 0.62021 0.68931 0.19471 0.0
H1236 H 0.57011 0.75701 0.20026 0.0
C1237 C 0.64737 0.77481 0.13106 0.0
C1238 C 0.62823 0.73869 0.1579 0.0
C1239 C 0.66885 0.78951 0.1204 0.0
C1240 C 0.57494 0.67646 0.21164 0.0
C1241 C 0.59187 0.69248 0.20051 0.0
C1242 C 0.58582 0.75156 0.18837 0.0
C1243 C 0.64404 0.77779 0.14996 0.0
C1244 C 0.62428 0.7611 0.16161 0.0
C1245 C 0.57254 0.7123 0.19701 0.0
C1246 C 0.59005 0.72914 0.18473 0.0
H1247 H 0.69674 0.82486 0.15363 0.0
H1248 H 0.65996 0.7991 0.17228 0.0
H1249 H 0.59845 0.78442 0.18011 0.0
H1250 H 0.49191 0.70334 0.22295 0.0
H1251 H 0.5202 0.73073 0.20276 0.0
C1252 C 0.32712 0.82001 0.35229 0.0
C1253 C 0.31935 0.81657 0.37084 0.0
C1254 C 0.3404 0.80294 0.34143 0.0
C1255 C 0.34937 0.74239 0.33956 0.0
H1256 H 0.42824 0.75598 0.30348 0.0
C1257 C 0.43519 0.67611 0.30036 0.0
C1258 C 0.44052 0.67973 0.28164 0.0
C1259 C 0.41921 0.69239 0.31132 0.0
C1260 C 0.40595 0.75195 0.31337 0.0
H1261 H 0.31916 0.79245 0.39253 0.0
H1262 H 0.34296 0.76266 0.37367 0.0
H1263 H 0.40255 0.785 0.32244 0.0
H1264 H 0.43345 0.70327 0.25974 0.0
H1265 H 0.40553 0.73161 0.27883 0.0
H1266 H 0.35343 0.7092 0.33057 0.0
C1267 C 0.33812 0.77847 0.3674 0.0
C1268 C 0.3911 0.7686 0.32423 0.0
C1269 C 0.32453 0.79555 0.37824 0.0
C1270 C 0.42948 0.69993 0.2741 0.0
C1271 C 0.41378 0.71623 0.28506 0.0
C1272 C 0.36445 0.72568 0.32875 0.0
C1273 C 0.34657 0.78199 0.34888 0.0
C1274 C 0.36246 0.76409 0.33742 0.0
C1275 C 0.4086 0.7127 0.30381 0.0
C1276 C 0.39278 0.73031 0.31548 0.0
H1277 H 0.32281 0.83595 0.34613 0.0
H1278 H 0.34572 0.80617 0.32716 0.0
H1279 H 0.327 0.73833 0.34939 0.0
H1280 H 0.44347 0.66071 0.30655 0.0
H1281 H 0.41589 0.68925 0.32575 0.0
C1282 C 0.1795 0.71041 0.87908 0.0
C1283 C 0.19627 0.69174 0.87135 0.0
C1284 C 0.15795 0.7249 0.86838 0.0
C1285 C 0.10854 0.7309 0.82368 0.0
H1286 H 0.1287 0.79259 0.83134 0.0
C1287 C 0.0639 0.79843 0.7723 0.0
C1288 C 0.04712 0.81733 0.77965 0.0
C1289 C 0.08016 0.78255 0.78371 0.0
C1290 C 0.12245 0.77543 0.82915 0.0
H1291 H 0.20289 0.67342 0.8464 0.0
H1292 H 0.16555 0.69871 0.82774 0.0
H1293 H 0.1591 0.76562 0.85115 0.0
H1294 H 0.03427 0.83437 0.80474 0.0
H1295 H 0.06274 0.80675 0.82454 0.0
H1296 H 0.07243 0.74086 0.8014 0.0
C1297 C 0.16848 0.70202 0.84212 0.0
C1298 C 0.13974 0.75996 0.84055 0.0
C1299 C 0.1899 0.68749 0.85283 0.0
C1300 C 0.04696 0.82001 0.79861 0.0
C1301 C 0.06345 0.80424 0.80998 0.0
C1302 C 0.09139 0.74641 0.8122 0.0
C1303 C 0.15284 0.7211 0.84969 0.0
C1304 C 0.13306 0.7375 0.83795 0.0
C1305 C 0.08024 0.78536 0.80267 0.0
C1306 C 0.09822 0.76883 0.81482 0.0
H1307 H 0.18345 0.71396 0.89337 0.0
H1308 H 0.14563 0.73922 0.87473 0.0
H1309 H 0.10238 0.71376 0.82143 0.0
H1310 H 0.06436 0.79585 0.75775 0.0
H1311 H 0.09321 0.76824 0.77769 0.0
loop_
_geom_bond_atom_site_label_1
_geom_bond_atom_site_label_2
_geom_bond_distance
_geom_bond_site_symmetry_2
_ccdc_geom_bond_type
P0 O11 1.490 . S
P0 C14 1.812 . S
P0 C20 1.803 . S
P0 C26 1.819 . S
H1 C15 0.941 . S
H2 C16 0.939 . S
H3 C18 0.940 . S
H4 C19 0.940 . S
H5 C21 0.939 . S
H6 C22 0.942 . S
H7 C24 0.940 . S
H8 C25 0.939 . S
H9 C27 0.941 . S
H10 C31 0.939 . S
O11 P0 1.490 . S
H12 C28 0.939 . S
H13 C30 0.940 . S
C14 P0 1.812 . S
C14 C15 1.389 . S
C14 C19 1.391 . S
C15 H1 0.941 . S
C15 C14 1.389 . S
C15 C16 1.397 . S
C16 H2 0.939 . S
C16 C15 1.397 . S
C16 C17 1.378 . S
C17 C16 1.378 . S
C17 C18 1.378 . S
C18 H3 0.940 . S
C18 C17 1.378 . S
C18 C19 1.396 . S
C19 H4 0.940 . S
C19 C14 1.391 . S
C19 C18 1.396 . S
C20 P0 1.803 . S
C20 C21 1.378 . S
C20 C25 1.400 . S
C21 H5 0.939 . S
C21 C20 1.378 . S
C21 C22 1.361 . S
C22 H6 0.942 . S
C22 C21 1.361 . S
C22 C23 1.369 . S
C23 C22 1.369 . S
C23 C24 1.404 . S
C24 H7 0.940 . S
C24 C23 1.404 . S
C24 C25 1.389 . S
C25 H8 0.939 . S
C25 C20 1.400 . S
C25 C24 1.389 . S
C26 P0 1.819 . S
C26 C27 1.391 . S
C26 C31 1.391 . S
C27 H9 0.941 . S
C27 C26 1.391 . S
C27 C28 1.396 . S
C28 H12 0.939 . S
C28 C27 1.396 . S
C28 C29 1.397 . S
C29 C28 1.397 . S
C29 C30 1.385 . S
C30 H13 0.940 . S
C30 C29 1.385 . S
C30 C31 1.388 . S
C31 H10 0.939 . S
C31 C26 1.391 . S
C31 C30 1.388 . S
P32 O43 1.490 . S
P32 C46 1.812 . S
P32 C52 1.803 . S
P32 C58 1.819 . S
H33 C47 0.941 . S
H34 C48 0.939 . S
H35 C50 0.940 . S
H36 C51 0.940 . S
H37 C53 0.939 . S
H38 C54 0.942 . S
H39 C56 0.940 . S
H40 C57 0.939 . S
H41 C59 0.941 . S
H42 C63 0.939 . S
O43 P32 1.490 . S
H44 C60 0.939 . S
H45 C62 0.940 . S
C46 P32 1.812 . S
C46 C47 1.389 . S
C46 C51 1.391 . S
C47 H33 0.941 . S
C47 C46 1.389 . S
C47 C48 1.397 . S
C48 H34 0.939 . S
C48 C47 1.397 . S
C48 C49 1.378 . S
C49 C48 1.378 . S
C49 C50 1.378 . S
C50 H35 0.940 . S
C50 C49 1.378 . S
C50 C51 1.396 . S
C51 H36 0.940 . S
C51 C46 1.391 . S
C51 C50 1.396 . S
C52 P32 1.803 . S
C52 C53 1.378 . S
C52 C57 1.400 . S
C53 H37 0.939 . S
C53 C52 1.378 . S
C53 C54 1.361 . S
C54 H38 0.942 . S
C54 C53 1.361 . S
C54 C55 1.369 . S
C55 C54 1.369 . S
C55 C56 1.404 . S
C56 H39 0.940 . S
C56 C55 1.404 . S
C56 C57 1.389 . S
C57 H40 0.939 . S
C57 C52 1.400 . S
C57 C56 1.389 . S
C58 P32 1.819 . S
C58 C59 1.391 . S
C58 C63 1.391 . S
C59 H41 0.941 . S
C59 C58 1.391 . S
C59 C60 1.396 . S
C60 H44 0.939 . S
C60 C59 1.396 . S
C60 C61 1.397 . S
C61 C60 1.397 . S
C61 C62 1.385 . S
C62 H45 0.940 . S
C62 C61 1.385 . S
C62 C63 1.388 . S
C63 H42 0.939 . S
C63 C58 1.391 . S
C63 C62 1.388 . S
P64 O75 1.490 . S
P64 C78 1.812 . S
P64 C84 1.803 . S
P64 C90 1.819 . S
H65 C79 0.941 . S
H66 C80 0.939 . S
H67 C82 0.940 . S
H68 C83 0.940 . S
H69 C85 0.939 . S
H70 C86 0.942 . S
H71 C88 0.940 . S
H72 C89 0.939 . S
H73 C91 0.941 . S
H74 C95 0.939 . S
O75 P64 1.490 . S
H76 C92 0.939 . S
H77 C94 0.940 . S
C78 P64 1.812 . S
C78 C79 1.389 . S
C78 C83 1.391 . S
C79 H65 0.941 . S
C79 C78 1.389 . S
C79 C80 1.397 . S
C80 H66 0.939 . S
C80 C79 1.397 . S
C80 C81 1.378 . S
C81 C80 1.378 . S
C81 C82 1.378 . S
C82 H67 0.940 . S
C82 C81 1.378 . S
C82 C83 1.396 . S
C83 H68 0.940 . S
C83 C78 1.391 . S
C83 C82 1.396 . S
C84 P64 1.803 . S
C84 C85 1.378 . S
C84 C89 1.400 . S
C85 H69 0.939 . S
C85 C84 1.378 . S
C85 C86 1.361 . S
C86 H70 0.942 . S
C86 C85 1.361 . S
C86 C87 1.369 . S
C87 C86 1.369 . S
C87 C88 1.404 . S
C88 H71 0.940 . S
C88 C87 1.404 . S
C88 C89 1.389 . S
C89 H72 0.939 . S
C89 C84 1.400 . S
C89 C88 1.389 . S
C90 P64 1.819 . S
C90 C91 1.391 . S
C90 C95 1.391 . S
C91 H73 0.941 . S
C91 C90 1.391 . S
C91 C92 1.396 . S
C92 H76 0.939 . S
C92 C91 1.396 . S
C92 C93 1.397 . S
C93 C92 1.397 . S
C93 C94 1.385 . S
C94 H77 0.940 . S
C94 C93 1.385 . S
C94 C95 1.388 . S
C95 H74 0.939 . S
C95 C90 1.391 . S
C95 C94 1.388 . S
P96 O107 1.490 . S
P96 C110 1.812 . S
P96 C116 1.803 . S
P96 C122 1.819 . S
H97 C111 0.941 . S
H98 C112 0.939 . S
H99 C114 0.940 . S
H100 C115 0.940 . S
H101 C117 0.939 . S
H102 C118 0.942 . S
H103 C120 0.940 . S
H104 C121 0.939 . S
H105 C123 0.941 . S
H106 C127 0.939 . S
O107 P96 1.490 . S
H108 C124 0.939 . S
H109 C126 0.940 . S
C110 P96 1.812 . S
C110 C111 1.389 . S
C110 C115 1.391 . S
C111 H97 0.941 . S
C111 C110 1.389 . S
C111 C112 1.397 . S
C112 H98 0.939 . S
C112 C111 1.397 . S
C112 C113 1.378 . S
C113 C112 1.378 . S
C113 C114 1.378 . S
C114 H99 0.940 . S
C114 C113 1.378 . S
C114 C115 1.396 . S
C115 H100 0.940 . S
C115 C110 1.391 . S
C115 C114 1.396 . S
C116 P96 1.803 . S
C116 C117 1.378 . S
C116 C121 1.400 . S
C117 H101 0.939 . S
C117 C116 1.378 . S
C117 C118 1.361 . S
C118 H102 0.942 . S
C118 C117 1.361 . S
C118 C119 1.369 . S
C119 C118 1.369 . S
C119 C120 1.404 . S
C120 H103 0.940 . S
C120 C119 1.404 . S
C120 C121 1.389 . S
C121 H104 0.939 . S
C121 C116 1.400 . S
C121 C120 1.389 . S
C122 P96 1.819 . S
C122 C123 1.391 . S
C122 C127 1.391 . S
C123 H105 0.941 . S
C123 C122 1.391 . S
C123 C124 1.396 . S
C124 H108 0.939 . S
C124 C123 1.396 . S
C124 C125 1.397 . S
C125 C124 1.397 . S
C125 C126 1.385 . S
C126 H109 0.940 . S
C126 C125 1.385 . S
C126 C127 1.388 . S
C127 H106 0.939 . S
C127 C122 1.391 . S
C127 C126 1.388 . S
P128 O139 1.490 . S
P128 C142 1.812 . S
P128 C148 1.803 . S
P128 C154 1.819 . S
H129 C143 0.941 . S
H130 C144 0.939 . S
H131 C146 0.940 . S
H132 C147 0.940 . S
H133 C149 0.939 . S
H134 C150 0.942 . S
H135 C152 0.940 . S
H136 C153 0.939 . S
H137 C155 0.941 . S
H138 C159 0.939 . S
O139 P128 1.490 . S
H140 C156 0.939 . S
H141 C158 0.940 . S
C142 P128 1.812 . S
C142 C143 1.389 . S
C142 C147 1.391 . S
C143 H129 0.941 . S
C143 C142 1.389 . S
C143 C144 1.397 . S
C144 H130 0.939 . S
C144 C143 1.397 . S
C144 C145 1.378 . S
C145 C144 1.378 . S
C145 C146 1.378 . S
C146 H131 0.940 . S
C146 C145 1.378 . S
C146 C147 1.396 . S
C147 H132 0.940 . S
C147 C142 1.391 . S
C147 C146 1.396 . S
C148 P128 1.803 . S
C148 C149 1.378 . S
C148 C153 1.400 . S
C149 H133 0.939 . S
C149 C148 1.378 . S
C149 C150 1.361 . S
C150 H134 0.942 . S
C150 C149 1.361 . S
C150 C151 1.369 . S
C151 C150 1.369 . S
C151 C152 1.404 . S
C152 H135 0.940 . S
C152 C151 1.404 . S
C152 C153 1.389 . S
C153 H136 0.939 . S
C153 C148 1.400 . S
C153 C152 1.389 . S
C154 P128 1.819 . S
C154 C155 1.391 . S
C154 C159 1.391 . S
C155 H137 0.941 . S
C155 C154 1.391 . S
C155 C156 1.396 . S
C156 H140 0.939 . S
C156 C155 1.396 . S
C156 C157 1.397 . S
C157 C156 1.397 . S
C157 C158 1.385 . S
C158 H141 0.940 . S
C158 C157 1.385 . S
C158 C159 1.388 . S
C159 H138 0.939 . S
C159 C154 1.391 . S
C159 C158 1.388 . S
P160 O171 1.490 . S
P160 C174 1.812 . S
P160 C180 1.803 . S
P160 C186 1.819 . S
H161 C175 0.941 . S
H162 C176 0.939 . S
H163 C178 0.940 . S
H164 C179 0.940 . S
H165 C181 0.939 . S
H166 C182 0.942 . S
H167 C184 0.940 . S
H168 C185 0.939 . S
H169 C187 0.941 . S
H170 C191 0.939 . S
O171 P160 1.490 . S
H172 C188 0.939 . S
H173 C190 0.940 . S
C174 P160 1.812 . S
C174 C175 1.389 . S
C174 C179 1.391 . S
C175 H161 0.941 . S
C175 C174 1.389 . S
C175 C176 1.397 . S
C176 H162 0.939 . S
C176 C175 1.397 . S
C176 C177 1.378 . S
C177 C176 1.378 . S
C177 C178 1.378 . S
C178 H163 0.940 . S
C178 C177 1.378 . S
C178 C179 1.396 . S
C179 H164 0.940 . S
C179 C174 1.391 . S
C179 C178 1.396 . S
C180 P160 1.803 . S
C180 C181 1.378 . S
C180 C185 1.400 . S
C181 H165 0.939 . S
C181 C180 1.378 . S
C181 C182 1.361 . S
C182 H166 0.942 . S
C182 C181 1.361 . S
C182 C183 1.369 . S
C183 C182 1.369 . S
C183 C184 1.404 . S
C184 H167 0.940 . S
C184 C183 1.404 . S
C184 C185 1.389 . S
C185 H168 0.939 . S
C185 C180 1.400 . S
C185 C184 1.389 . S
C186 P160 1.819 . S
C186 C187 1.391 . S
C186 C191 1.391 . S
C187 H169 0.941 . S
C187 C186 1.391 . S
C187 C188 1.396 . S
C188 H172 0.939 . S
C188 C187 1.396 . S
C188 C189 1.397 . S
C189 C188 1.397 . S
C189 C190 1.385 . S
C190 H173 0.940 . S
C190 C189 1.385 . S
C190 C191 1.388 . S
C191 H170 0.939 . S
C191 C186 1.391 . S
C191 C190 1.388 . S
P192 O203 1.490 . S
P192 C206 1.812 . S
P192 C212 1.803 . S
P192 C218 1.819 . S
H193 C207 0.941 . S
H194 C208 0.939 . S
H195 C210 0.940 . S
H196 C211 0.940 . S
H197 C213 0.939 . S
H198 C214 0.942 . S
H199 C216 0.940 . S
H200 C217 0.939 . S
H201 C219 0.941 . S
H202 C223 0.939 . S
O203 P192 1.490 . S
H204 C220 0.939 . S
H205 C222 0.940 . S
C206 P192 1.812 . S
C206 C207 1.389 . S
C206 C211 1.391 . S
C207 H193 0.941 . S
C207 C206 1.389 . S
C207 C208 1.397 . S
C208 H194 0.939 . S
C208 C207 1.397 . S
C208 C209 1.378 . S
C209 C208 1.378 . S
C209 C210 1.378 . S
C210 H195 0.940 . S
C210 C209 1.378 . S
C210 C211 1.396 . S
C211 H196 0.940 . S
C211 C206 1.391 . S
C211 C210 1.396 . S
C212 P192 1.803 . S
C212 C213 1.378 . S
C212 C217 1.400 . S
C213 H197 0.939 . S
C213 C212 1.378 . S
C213 C214 1.361 . S
C214 H198 0.942 . S
C214 C213 1.361 . S
C214 C215 1.369 . S
C215 C214 1.369 . S
C215 C216 1.404 . S
C216 H199 0.940 . S
C216 C215 1.404 . S
C216 C217 1.389 . S
C217 H200 0.939 . S
C217 C212 1.400 . S
C217 C216 1.389 . S
C218 P192 1.819 . S
C218 C219 1.391 . S
C218 C223 1.391 . S
C219 H201 0.941 . S
C219 C218 1.391 . S
C219 C220 1.396 . S
C220 H204 0.939 . S
C220 C219 1.396 . S
C220 C221 1.397 . S
C221 C220 1.397 . S
C221 C222 1.385 . S
C222 H205 0.940 . S
C222 C221 1.385 . S
C222 C223 1.388 . S
C223 H202 0.939 . S
C223 C218 1.391 . S
C223 C222 1.388 . S
P224 O235 1.490 . S
P224 C238 1.812 . S
P224 C244 1.803 . S
P224 C250 1.819 . S
H225 C239 0.941 . S
H226 C240 0.939 . S
H227 C242 0.940 . S
H228 C243 0.940 . S
H229 C245 0.939 . S
H230 C246 0.942 . S
H231 C248 0.940 . S
H232 C249 0.939 . S
H233 C251 0.941 . S
H234 C255 0.939 . S
O235 P224 1.490 . S
H236 C252 0.939 . S
H237 C254 0.940 . S
C238 P224 1.812 . S
C238 C239 1.389 . S
C238 C243 1.391 . S
C239 H225 0.941 . S
C239 C238 1.389 . S
C239 C240 1.397 . S
C240 H226 0.939 . S
C240 C239 1.397 . S
C240 C241 1.378 . S
C241 C240 1.378 . S
C241 C242 1.378 . S
C242 H227 0.940 . S
C242 C241 1.378 . S
C242 C243 1.396 . S
C243 H228 0.940 . S
C243 C238 1.391 . S
C243 C242 1.396 . S
C244 P224 1.803 . S
C244 C245 1.378 . S
C244 C249 1.400 . S
C245 H229 0.939 . S
C245 C244 1.378 . S
C245 C246 1.361 . S
C246 H230 0.942 . S
C246 C245 1.361 . S
C246 C247 1.369 . S
C247 C246 1.369 . S
C247 C248 1.404 . S
C248 H231 0.940 . S
C248 C247 1.404 . S
C248 C249 1.389 . S
C249 H232 0.939 . S
C249 C244 1.400 . S
C249 C248 1.389 . S
C250 P224 1.819 . S
C250 C251 1.391 . S
C250 C255 1.391 . S
C251 H233 0.941 . S
C251 C250 1.391 . S
C251 C252 1.396 . S
C252 H236 0.939 . S
C252 C251 1.396 . S
C252 C253 1.397 . S
C253 C252 1.397 . S
C253 C254 1.385 . S
C254 H237 0.940 . S
C254 C253 1.385 . S
C254 C255 1.388 . S
C255 H234 0.939 . S
C255 C250 1.391 . S
C255 C254 1.388 . S
C256 C258 1.422 . S
C256 C260 1.415 . S
C256 N262 1.369 . S
C257 C258 1.421 . S
C257 C259 1.417 . S
C257 C269 1.422 . S
C258 C256 1.422 . S
C258 C257 1.421 . S
C258 N268 1.359 . S
C259 C257 1.417 . S
C259 C261 1.329 . S
C259 H278 0.930 . S
C260 C256 1.415 . S
C260 C261 1.437 . S
C260 C264 1.413 . S
C261 C259 1.329 . S
C261 C260 1.437 . S
C261 H283 0.929 . S
N262 C256 1.369 . S
N262 C263 1.338 . S
N262 Gd267 2.622 . S
C263 N262 1.338 . S
C263 C265 1.378 . S
C263 H275 0.929 . S
C264 C260 1.413 . S
C264 C265 1.348 . S
C264 H280 0.931 . S
C265 C263 1.378 . S
C265 C264 1.348 . S
C265 H281 0.930 . S
Gd266 N286 2.622 . S
Gd266 N293 2.570 . S
Gd266 O300 2.353 . S
Gd266 O301 2.468 . S
Gd266 O302 2.427 . S
Gd266 O304 2.388 . S
Gd266 O305 2.386 . S
Gd266 O309 2.307 . S
Gd266 C319 2.805 . S
Gd267 N262 2.622 . S
Gd267 N268 2.570 . S
Gd267 O299 2.386 . S
Gd267 O303 2.307 1_655 S
Gd267 O306 2.353 1_655 S
Gd267 O307 2.468 . S
Gd267 O308 2.427 . S
Gd267 O310 2.388 . S
Gd267 C331 2.805 . S
N268 C258 1.359 . S
N268 Gd267 2.570 . S
N268 C270 1.343 . S
C269 C257 1.422 . S
C269 C271 1.321 . S
C269 H277 0.931 . S
C270 N268 1.343 . S
C270 C271 1.390 . S
C270 H272 0.931 . S
C271 C269 1.321 . S
C271 C270 1.390 . S
C271 H273 0.930 . S
H272 C270 0.931 . S
H273 C271 0.930 . S
H274 C297 0.931 . S
H275 C263 0.929 . S
H276 C298 0.930 . S
H277 C269 0.931 . S
H278 C259 0.930 . S
H279 C288 0.929 . S
H280 C264 0.931 . S
H281 C265 0.930 . S
H282 C320 0.930 . S
H283 C261 0.929 . S
H284 C289 0.931 . S
H285 C290 0.930 . S
N286 Gd266 2.622 . S
N286 C287 1.369 . S
N286 C288 1.338 . S
C287 N286 1.369 . S
C287 C291 1.415 . S
C287 C294 1.422 . S
C288 H279 0.929 . S
C288 N286 1.338 . S
C288 C290 1.378 . S
C289 H284 0.931 . S
C289 C290 1.348 . S
C289 C291 1.413 . S
C290 H285 0.930 . S
C290 C288 1.378 . S
C290 C289 1.348 . S
C291 C287 1.415 . S
C291 C289 1.413 . S
C291 C321 1.437 . S
H292 C321 0.929 . S
N293 Gd266 2.570 . S
N293 C294 1.359 . S
N293 C297 1.343 . S
C294 C287 1.422 . S
C294 N293 1.359 . S
C294 C296 1.421 . S
C295 C296 1.422 . S
C295 C298 1.321 . S
C295 H322 0.931 . S
C296 C294 1.421 . S
C296 C295 1.422 . S
C296 C320 1.417 . S
C297 H274 0.931 . S
C297 N293 1.343 . S
C297 C298 1.390 . S
C298 H276 0.930 . S
C298 C295 1.321 . S
C298 C297 1.390 . S
O299 Gd267 2.386 . S
O299 C311 1.265 . S
O300 Gd266 2.353 . S
O300 C311 1.242 1_455 S
O301 Gd266 2.468 . S
O301 C319 1.263 . S
O302 Gd266 2.427 . S
O302 C319 1.252 . S
O303 Gd267 2.307 1_455 S
O303 C312 1.261 . S
O304 Gd266 2.388 . S
O304 C312 1.252 . S
O305 Gd266 2.386 . S
O305 C323 1.265 . S
O306 Gd267 2.353 1_455 S
O306 C323 1.242 . S
O307 Gd267 2.468 . S
O307 C331 1.263 . S
O308 Gd267 2.427 . S
O308 C331 1.252 . S
O309 Gd266 2.307 . S
O309 C324 1.261 1_455 S
O310 Gd267 2.388 . S
O310 C324 1.252 . S
C311 O299 1.265 . S
C311 O300 1.242 1_655 S
C312 O303 1.261 . S
C312 O304 1.252 . S
C313 C316 1.394 . S
C313 C318 1.370 . S
C313 C319 1.500 . S
C314 C317 1.383 . S
C314 C318 1.395 . S
C315 C316 1.396 . S
C315 C317 1.365 . S
C315 H332 0.929 . S
C316 C313 1.394 . S
C316 C315 1.396 . S
C316 H333 0.930 . S
C317 C314 1.383 . S
C317 C315 1.365 . S
C317 H334 0.931 . S
C318 C313 1.370 . S
C318 C314 1.395 . S
C318 H335 0.930 . S
C319 Gd266 2.805 . S
C319 O301 1.263 . S
C319 O302 1.252 . S
C319 C313 1.500 . S
C320 H282 0.930 . S
C320 C296 1.417 . S
C320 C321 1.329 . S
C321 C291 1.437 . S
C321 H292 0.929 . S
C321 C320 1.329 . S
H322 C295 0.931 . S
C323 O305 1.265 . S
C323 O306 1.242 . S
C324 O309 1.261 1_655 S
C324 O310 1.252 . S
C325 C328 1.394 . S
C325 C330 1.370 . S
C325 C331 1.500 . S
C326 C329 1.383 . S
C326 C330 1.395 . S
C327 C328 1.396 . S
C327 C329 1.365 . S
C327 H336 0.929 . S
C328 C325 1.394 . S
C328 C327 1.396 . S
C328 H337 0.930 . S
C329 C326 1.383 . S
C329 C327 1.365 . S
C329 H338 0.931 . S
C330 C325 1.370 . S
C330 C326 1.395 . S
C330 H339 0.930 . S
C331 Gd267 2.805 . S
C331 O307 1.263 . S
C331 O308 1.252 . S
C331 C325 1.500 . S
H332 C315 0.929 . S
H333 C316 0.930 . S
H334 C317 0.931 . S
H335 C318 0.930 . S
H336 C327 0.929 . S
H337 C328 0.930 . S
H338 C329 0.931 . S
H339 C330 0.930 . S
C340 C342 1.422 . S
C340 C344 1.415 . S
C340 N346 1.369 . S
C341 C342 1.421 . S
C341 C343 1.417 . S
C341 C353 1.422 . S
C342 C340 1.422 . S
C342 C341 1.421 . S
C342 N352 1.359 . S
C343 C341 1.417 . S
C343 C345 1.329 . S
C343 H362 0.930 . S
C344 C340 1.415 . S
C344 C345 1.437 . S
C344 C348 1.413 . S
C345 C343 1.329 . S
C345 C344 1.437 . S
C345 H367 0.929 . S
N346 C340 1.369 . S
N346 C347 1.338 . S
N346 Gd351 2.622 . S
C347 N346 1.338 . S
C347 C349 1.378 . S
C347 H359 0.929 . S
C348 C344 1.413 . S
C348 C349 1.348 . S
C348 H364 0.931 . S
C349 C347 1.378 . S
C349 C348 1.348 . S
C349 H365 0.930 . S
Gd350 N370 2.622 . S
Gd350 N377 2.570 . S
Gd350 O384 2.353 . S
Gd350 O385 2.468 . S
Gd350 O386 2.427 . S
Gd350 O388 2.388 . S
Gd350 O389 2.386 . S
Gd350 O393 2.307 . S
Gd350 C403 2.805 . S
Gd351 N346 2.622 . S
Gd351 N352 2.570 . S
Gd351 O383 2.386 . S
Gd351 O387 2.307 . S
Gd351 O390 2.353 . S
Gd351 O391 2.468 . S
Gd351 O392 2.427 . S
Gd351 O394 2.388 . S
Gd351 C415 2.805 . S
N352 C342 1.359 . S
N352 Gd351 2.570 . S
N352 C354 1.343 . S
C353 C341 1.422 . S
C353 C355 1.321 . S
C353 H361 0.931 . S
C354 N352 1.343 . S
C354 C355 1.390 . S
C354 H356 0.931 . S
C355 C353 1.321 . S
C355 C354 1.390 . S
C355 H357 0.930 . S
H356 C354 0.931 . S
H357 C355 0.930 . S
H358 C381 0.931 . S
H359 C347 0.929 . S
H360 C382 0.930 . S
H361 C353 0.931 . S
H362 C343 0.930 . S
H363 C372 0.929 . S
H364 C348 0.931 . S
H365 C349 0.930 . S
H366 C404 0.930 . S
H367 C345 0.929 . S
H368 C373 0.931 . S
H369 C374 0.930 . S
N370 Gd350 2.622 . S
N370 C371 1.369 . S
N370 C372 1.338 . S
C371 N370 1.369 . S
C371 C375 1.415 . S
C371 C378 1.422 . S
C372 H363 0.929 . S
C372 N370 1.338 . S
C372 C374 1.378 . S
C373 H368 0.931 . S
C373 C374 1.348 . S
C373 C375 1.413 . S
C374 H369 0.930 . S
C374 C372 1.378 . S
C374 C373 1.348 . S
C375 C371 1.415 . S
C375 C373 1.413 . S
C375 C405 1.437 . S
H376 C405 0.929 . S
N377 Gd350 2.570 . S
N377 C378 1.359 . S
N377 C381 1.343 . S
C378 C371 1.422 . S
C378 N377 1.359 . S
C378 C380 1.421 . S
C379 C380 1.422 . S
C379 C382 1.321 . S
C379 H406 0.931 . S
C380 C378 1.421 . S
C380 C379 1.422 . S
C380 C404 1.417 . S
C381 H358 0.931 . S
C381 N377 1.343 . S
C381 C382 1.390 . S
C382 H360 0.930 . S
C382 C379 1.321 . S
C382 C381 1.390 . S
O383 Gd351 2.386 . S
O383 C395 1.265 . S
O384 Gd350 2.353 . S
O384 C395 1.242 . S
O385 Gd350 2.468 . S
O385 C403 1.263 . S
O386 Gd350 2.427 . S
O386 C403 1.252 . S
O387 Gd351 2.307 . S
O387 C396 1.261 . S
O388 Gd350 2.388 . S
O388 C396 1.252 . S
O389 Gd350 2.386 . S
O389 C407 1.265 . S
O390 Gd351 2.353 . S
O390 C407 1.242 . S
O391 Gd351 2.468 . S
O391 C415 1.263 . S
O392 Gd351 2.427 . S
O392 C415 1.252 . S
O393 Gd350 2.307 . S
O393 C408 1.261 . S
O394 Gd351 2.388 . S
O394 C408 1.252 . S
C395 O383 1.265 . S
C395 O384 1.242 . S
C396 O387 1.261 . S
C396 O388 1.252 . S
C397 C400 1.394 . S
C397 C402 1.370 . S
C397 C403 1.500 . S
C398 C401 1.383 . S
C398 C402 1.395 . S
C399 C400 1.396 . S
C399 C401 1.365 . S
C399 H416 0.929 . S
C400 C397 1.394 . S
C400 C399 1.396 . S
C400 H417 0.930 . S
C401 C398 1.383 . S
C401 C399 1.365 . S
C401 H418 0.931 . S
C402 C397 1.370 . S
C402 C398 1.395 . S
C402 H419 0.930 . S
C403 Gd350 2.805 . S
C403 O385 1.263 . S
C403 O386 1.252 . S
C403 C397 1.500 . S
C404 H366 0.930 . S
C404 C380 1.417 . S
C404 C405 1.329 . S
C405 C375 1.437 . S
C405 H376 0.929 . S
C405 C404 1.329 . S
H406 C379 0.931 . S
C407 O389 1.265 . S
C407 O390 1.242 . S
C408 O393 1.261 . S
C408 O394 1.252 . S
C409 C412 1.394 . S
C409 C414 1.370 . S
C409 C415 1.500 . S
C410 C413 1.383 . S
C410 C414 1.395 . S
C411 C412 1.396 . S
C411 C413 1.365 . S
C411 H420 0.929 . S
C412 C409 1.394 . S
C412 C411 1.396 . S
C412 H421 0.930 . S
C413 C410 1.383 . S
C413 C411 1.365 . S
C413 H422 0.931 . S
C414 C409 1.370 . S
C414 C410 1.395 . S
C414 H423 0.930 . S
C415 Gd351 2.805 . S
C415 O391 1.263 . S
C415 O392 1.252 . S
C415 C409 1.500 . S
H416 C399 0.929 . S
H417 C400 0.930 . S
H418 C401 0.931 . S
H419 C402 0.930 . S
H420 C411 0.929 . S
H421 C412 0.930 . S
H422 C413 0.931 . S
H423 C414 0.930 . S
C424 C426 1.422 . S
C424 C428 1.415 . S
C424 N430 1.369 . S
C425 C426 1.421 . S
C425 C427 1.417 . S
C425 C437 1.422 . S
C426 C424 1.422 . S
C426 C425 1.421 . S
C426 N436 1.359 . S
C427 C425 1.417 . S
C427 C429 1.329 . S
C427 H446 0.930 . S
C428 C424 1.415 . S
C428 C429 1.437 . S
C428 C432 1.413 . S
C429 C427 1.329 . S
C429 C428 1.437 . S
C429 H451 0.929 . S
N430 C424 1.369 . S
N430 C431 1.338 . S
N430 Gd435 2.622 . S
C431 N430 1.338 . S
C431 C433 1.378 . S
C431 H443 0.929 . S
C432 C428 1.413 . S
C432 C433 1.348 . S
C432 H448 0.931 . S
C433 C431 1.378 . S
C433 C432 1.348 . S
C433 H449 0.930 . S
Gd434 N454 2.622 . S
Gd434 N461 2.570 . S
Gd434 O468 2.353 . S
Gd434 O469 2.468 . S
Gd434 O470 2.427 . S
Gd434 O472 2.388 . S
Gd434 O473 2.386 . S
Gd434 O477 2.307 . S
Gd434 C487 2.805 . S
Gd435 N430 2.622 . S
Gd435 N436 2.570 . S
Gd435 O467 2.386 . S
Gd435 O471 2.307 1_655 S
Gd435 O474 2.353 1_655 S
Gd435 O475 2.468 . S
Gd435 O476 2.427 . S
Gd435 O478 2.388 . S
Gd435 C499 2.805 . S
N436 C426 1.359 . S
N436 Gd435 2.570 . S
N436 C438 1.343 . S
C437 C425 1.422 . S
C437 C439 1.321 . S
C437 H445 0.931 . S
C438 N436 1.343 . S
C438 C439 1.390 . S
C438 H440 0.931 . S
C439 C437 1.321 . S
C439 C438 1.390 . S
C439 H441 0.930 . S
H440 C438 0.931 . S
H441 C439 0.930 . S
H442 C465 0.931 . S
H443 C431 0.929 . S
H444 C466 0.930 . S
H445 C437 0.931 . S
H446 C427 0.930 . S
H447 C456 0.929 . S
H448 C432 0.931 . S
H449 C433 0.930 . S
H450 C488 0.930 . S
H451 C429 0.929 . S
H452 C457 0.931 . S
H453 C458 0.930 . S
N454 Gd434 2.622 . S
N454 C455 1.369 . S
N454 C456 1.338 . S
C455 N454 1.369 . S
C455 C459 1.415 . S
C455 C462 1.422 . S
C456 H447 0.929 . S
C456 N454 1.338 . S
C456 C458 1.378 . S
C457 H452 0.931 . S
C457 C458 1.348 . S
C457 C459 1.413 . S
C458 H453 0.930 . S
C458 C456 1.378 . S
C458 C457 1.348 . S
C459 C455 1.415 . S
C459 C457 1.413 . S
C459 C489 1.437 . S
H460 C489 0.929 . S
N461 Gd434 2.570 . S
N461 C462 1.359 . S
N461 C465 1.343 . S
C462 C455 1.422 . S
C462 N461 1.359 . S
C462 C464 1.421 . S
C463 C464 1.422 . S
C463 C466 1.321 . S
C463 H490 0.931 . S
C464 C462 1.421 . S
C464 C463 1.422 . S
C464 C488 1.417 . S
C465 H442 0.931 . S
C465 N461 1.343 . S
C465 C466 1.390 . S
C466 H444 0.930 . S
C466 C463 1.321 . S
C466 C465 1.390 . S
O467 Gd435 2.386 . S
O467 C479 1.265 . S
O468 Gd434 2.353 . S
O468 C479 1.242 1_455 S
O469 Gd434 2.468 . S
O469 C487 1.263 . S
O470 Gd434 2.427 . S
O470 C487 1.252 . S
O471 Gd435 2.307 1_455 S
O471 C480 1.261 . S
O472 Gd434 2.388 . S
O472 C480 1.252 . S
O473 Gd434 2.386 . S
O473 C491 1.265 . S
O474 Gd435 2.353 1_455 S
O474 C491 1.242 . S
O475 Gd435 2.468 . S
O475 C499 1.263 . S
O476 Gd435 2.427 . S
O476 C499 1.252 . S
O477 Gd434 2.307 . S
O477 C492 1.261 1_455 S
O478 Gd435 2.388 . S
O478 C492 1.252 . S
C479 O467 1.265 . S
C479 O468 1.242 1_655 S
C480 O471 1.261 . S
C480 O472 1.252 . S
C481 C484 1.394 . S
C481 C486 1.370 . S
C481 C487 1.500 . S
C482 C485 1.383 . S
C482 C486 1.395 . S
C483 C484 1.396 . S
C483 C485 1.365 . S
C483 H500 0.929 . S
C484 C481 1.394 . S
C484 C483 1.396 . S
C484 H501 0.930 . S
C485 C482 1.383 . S
C485 C483 1.365 . S
C485 H502 0.931 . S
C486 C481 1.370 . S
C486 C482 1.395 . S
C486 H503 0.930 . S
C487 Gd434 2.805 . S
C487 O469 1.263 . S
C487 O470 1.252 . S
C487 C481 1.500 . S
C488 H450 0.930 . S
C488 C464 1.417 . S
C488 C489 1.329 . S
C489 C459 1.437 . S
C489 H460 0.929 . S
C489 C488 1.329 . S
H490 C463 0.931 . S
C491 O473 1.265 . S
C491 O474 1.242 . S
C492 O477 1.261 1_655 S
C492 O478 1.252 . S
C493 C496 1.394 . S
C493 C498 1.370 . S
C493 C499 1.500 . S
C494 C497 1.383 . S
C494 C498 1.395 . S
C495 C496 1.396 . S
C495 C497 1.365 . S
C495 H504 0.929 . S
C496 C493 1.394 . S
C496 C495 1.396 . S
C496 H505 0.930 . S
C497 C494 1.383 . S
C497 C495 1.365 . S
C497 H506 0.931 . S
C498 C493 1.370 . S
C498 C494 1.395 . S
C498 H507 0.930 . S
C499 Gd435 2.805 . S
C499 O475 1.263 . S
C499 O476 1.252 . S
C499 C493 1.500 . S
H500 C483 0.929 . S
H501 C484 0.930 . S
H502 C485 0.931 . S
H503 C486 0.930 . S
H504 C495 0.929 . S
H505 C496 0.930 . S
H506 C497 0.931 . S
H507 C498 0.930 . S
C508 C510 1.422 . S
C508 C512 1.415 . S
C508 N514 1.369 . S
C509 C510 1.421 . S
C509 C511 1.417 . S
C509 C521 1.422 . S
C510 C508 1.422 . S
C510 C509 1.421 . S
C510 N520 1.359 . S
C511 C509 1.417 . S
C511 C513 1.329 . S
C511 H530 0.930 . S
C512 C508 1.415 . S
C512 C513 1.437 . S
C512 C516 1.413 . S
C513 C511 1.329 . S
C513 C512 1.437 . S
C513 H535 0.929 . S
N514 C508 1.369 . S
N514 C515 1.338 . S
N514 Gd519 2.622 . S
C515 N514 1.338 . S
C515 C517 1.378 . S
C515 H527 0.929 . S
C516 C512 1.413 . S
C516 C517 1.348 . S
C516 H532 0.931 . S
C517 C515 1.378 . S
C517 C516 1.348 . S
C517 H533 0.930 . S
Gd518 N538 2.622 . S
Gd518 N545 2.570 . S
Gd518 O552 2.353 . S
Gd518 O553 2.468 . S
Gd518 O554 2.427 . S
Gd518 O556 2.388 . S
Gd518 O557 2.386 . S
Gd518 O561 2.307 . S
Gd518 C571 2.805 . S
Gd519 N514 2.622 . S
Gd519 N520 2.570 . S
Gd519 O551 2.386 . S
Gd519 O555 2.307 . S
Gd519 O558 2.353 . S
Gd519 O559 2.468 . S
Gd519 O560 2.427 . S
Gd519 O562 2.388 . S
Gd519 C583 2.805 . S
N520 C510 1.359 . S
N520 Gd519 2.570 . S
N520 C522 1.343 . S
C521 C509 1.422 . S
C521 C523 1.321 . S
C521 H529 0.931 . S
C522 N520 1.343 . S
C522 C523 1.390 . S
C522 H524 0.931 . S
C523 C521 1.321 . S
C523 C522 1.390 . S
C523 H525 0.930 . S
H524 C522 0.931 . S
H525 C523 0.930 . S
H526 C549 0.931 . S
H527 C515 0.929 . S
H528 C550 0.930 . S
H529 C521 0.931 . S
H530 C511 0.930 . S
H531 C540 0.929 . S
H532 C516 0.931 . S
H533 C517 0.930 . S
H534 C572 0.930 . S
H535 C513 0.929 . S
H536 C541 0.931 . S
H537 C542 0.930 . S
N538 Gd518 2.622 . S
N538 C539 1.369 . S
N538 C540 1.338 . S
C539 N538 1.369 . S
C539 C543 1.415 . S
C539 C546 1.422 . S
C540 H531 0.929 . S
C540 N538 1.338 . S
C540 C542 1.378 . S
C541 H536 0.931 . S
C541 C542 1.348 . S
C541 C543 1.413 . S
C542 H537 0.930 . S
C542 C540 1.378 . S
C542 C541 1.348 . S
C543 C539 1.415 . S
C543 C541 1.413 . S
C543 C573 1.437 . S
H544 C573 0.929 . S
N545 Gd518 2.570 . S
N545 C546 1.359 . S
N545 C549 1.343 . S
C546 C539 1.422 . S
C546 N545 1.359 . S
C546 C548 1.421 . S
C547 C548 1.422 . S
C547 C550 1.321 . S
C547 H574 0.931 . S
C548 C546 1.421 . S
C548 C547 1.422 . S
C548 C572 1.417 . S
C549 H526 0.931 . S
C549 N545 1.343 . S
C549 C550 1.390 . S
C550 H528 0.930 . S
C550 C547 1.321 . S
C550 C549 1.390 . S
O551 Gd519 2.386 . S
O551 C563 1.265 . S
O552 Gd518 2.353 . S
O552 C563 1.242 . S
O553 Gd518 2.468 . S
O553 C571 1.263 . S
O554 Gd518 2.427 . S
O554 C571 1.252 . S
O555 Gd519 2.307 . S
O555 C564 1.261 . S
O556 Gd518 2.388 . S
O556 C564 1.252 . S
O557 Gd518 2.386 . S
O557 C575 1.265 . S
O558 Gd519 2.353 . S
O558 C575 1.242 . S
O559 Gd519 2.468 . S
O559 C583 1.263 . S
O560 Gd519 2.427 . S
O560 C583 1.252 . S
O561 Gd518 2.307 . S
O561 C576 1.261 . S
O562 Gd519 2.388 . S
O562 C576 1.252 . S
C563 O551 1.265 . S
C563 O552 1.242 . S
C564 O555 1.261 . S
C564 O556 1.252 . S
C565 C568 1.394 . S
C565 C570 1.370 . S
C565 C571 1.500 . S
C566 C569 1.383 . S
C566 C570 1.395 . S
C567 C568 1.396 . S
C567 C569 1.365 . S
C567 H584 0.929 . S
C568 C565 1.394 . S
C568 C567 1.396 . S
C568 H585 0.930 . S
C569 C566 1.383 . S
C569 C567 1.365 . S
C569 H586 0.931 . S
C570 C565 1.370 . S
C570 C566 1.395 . S
C570 H587 0.930 . S
C571 Gd518 2.805 . S
C571 O553 1.263 . S
C571 O554 1.252 . S
C571 C565 1.500 . S
C572 H534 0.930 . S
C572 C548 1.417 . S
C572 C573 1.329 . S
C573 C543 1.437 . S
C573 H544 0.929 . S
C573 C572 1.329 . S
H574 C547 0.931 . S
C575 O557 1.265 . S
C575 O558 1.242 . S
C576 O561 1.261 . S
C576 O562 1.252 . S
C577 C580 1.394 . S
C577 C582 1.370 . S
C577 C583 1.500 . S
C578 C581 1.383 . S
C578 C582 1.395 . S
C579 C580 1.396 . S
C579 C581 1.365 . S
C579 H588 0.929 . S
C580 C577 1.394 . S
C580 C579 1.396 . S
C580 H589 0.930 . S
C581 C578 1.383 . S
C581 C579 1.365 . S
C581 H590 0.931 . S
C582 C577 1.370 . S
C582 C578 1.395 . S
C582 H591 0.930 . S
C583 Gd519 2.805 . S
C583 O559 1.263 . S
C583 O560 1.252 . S
C583 C577 1.500 . S
H584 C567 0.929 . S
H585 C568 0.930 . S
H586 C569 0.931 . S
H587 C570 0.930 . S
H588 C579 0.929 . S
H589 C580 0.930 . S
H590 C581 0.931 . S
H591 C582 0.930 . S
C592 C593 1.349 . S
C592 C594 1.327 . S
C592 H617 0.950 . S
C593 C592 1.349 . S
C593 C609 1.349 . S
C594 C592 1.327 . S
C594 C613 1.429 . S
C594 H618 0.950 1_565 S
C595 C612 1.574 1_565 S
C595 C614 1.368 1_565 S
C595 H619 0.949 . S
H596 C600 0.949 . S
C597 C598 1.349 . S
C597 C599 1.327 . S
C597 H620 0.950 . S
C598 C597 1.349 . S
C598 C610 1.349 . S
C599 C597 1.327 . S
C599 C615 1.429 . S
C599 H621 0.950 . S
C600 H596 0.949 . S
C600 C608 1.574 . S
C600 C616 1.368 . S
H601 C609 0.950 . S
H602 C607 0.950 . S
H603 C608 0.949 . S
H604 C610 0.950 . S
H605 C611 0.950 . S
H606 C612 0.949 . S
C607 H602 0.950 . S
C607 C609 1.327 . S
C607 C613 1.429 . S
C608 C600 1.574 . S
C608 H603 0.949 . S
C608 C614 1.368 . S
C609 C593 1.349 . S
C609 H601 0.950 . S
C609 C607 1.327 . S
C610 C598 1.349 . S
C610 H604 0.950 . S
C610 C611 1.327 . S
C611 H605 0.950 . S
C611 C610 1.327 . S
C611 C615 1.429 . S
C612 C595 1.574 1_545 S
C612 H606 0.949 . S
C612 C616 1.368 . S
C613 C594 1.429 . S
C613 C607 1.429 . S
C613 C614 1.523 1_565 S
C614 C595 1.368 1_545 S
C614 C608 1.368 . S
C614 C613 1.523 1_545 S
C615 C599 1.429 . S
C615 C611 1.429 . S
C615 C616 1.523 . S
C616 C600 1.368 . S
C616 C612 1.368 . S
C616 C615 1.523 . S
H617 C592 0.950 . S
H618 C594 0.950 1_545 S
H619 C595 0.949 . S
H620 C597 0.950 . S
H621 C599 0.950 . S
C622 C623 1.349 . S
C622 C624 1.327 . S
C622 H647 0.950 . S
C623 C622 1.349 . S
C623 C639 1.349 . S
C624 C622 1.327 . S
C624 C643 1.429 . S
C624 H648 0.950 . S
C625 C642 1.574 . S
C625 C644 1.368 . S
C625 H649 0.949 . S
H626 C630 0.949 . S
C627 C628 1.349 . S
C627 C629 1.327 . S
C627 H650 0.950 . S
C628 C627 1.349 . S
C628 C640 1.349 . S
C629 C627 1.327 . S
C629 C645 1.429 . S
C629 H651 0.950 . S
C630 H626 0.949 . S
C630 C638 1.574 . S
C630 C646 1.368 . S
H631 C639 0.950 . S
H632 C637 0.950 . S
H633 C638 0.949 . S
H634 C640 0.950 . S
H635 C641 0.950 . S
H636 C642 0.949 . S
C637 H632 0.950 . S
C637 C639 1.327 . S
C637 C643 1.429 . S
C638 C630 1.574 . S
C638 H633 0.949 . S
C638 C644 1.368 . S
C639 C623 1.349 . S
C639 H631 0.950 . S
C639 C637 1.327 . S
C640 C628 1.349 . S
C640 H634 0.950 . S
C640 C641 1.327 . S
C641 H635 0.950 . S
C641 C640 1.327 . S
C641 C645 1.429 . S
C642 C625 1.574 . S
C642 H636 0.949 . S
C642 C646 1.368 . S
C643 C624 1.429 . S
C643 C637 1.429 . S
C643 C644 1.523 . S
C644 C625 1.368 . S
C644 C638 1.368 . S
C644 C643 1.523 . S
C645 C629 1.429 . S
C645 C641 1.429 . S
C645 C646 1.523 . S
C646 C630 1.368 . S
C646 C642 1.368 . S
C646 C645 1.523 . S
H647 C622 0.950 . S
H648 C624 0.950 . S
H649 C625 0.949 . S
H650 C627 0.950 . S
H651 C629 0.950 . S
C652 C653 1.349 . S
C652 C654 1.327 . S
C652 H677 0.950 . S
C653 C652 1.349 . S
C653 C669 1.349 . S
C654 C652 1.327 . S
C654 C673 1.429 . S
C654 H678 0.950 . S
C655 C672 1.574 . S
C655 C674 1.368 . S
C655 H679 0.949 . S
H656 C660 0.949 . S
C657 C658 1.349 . S
C657 C659 1.327 . S
C657 H680 0.950 . S
C658 C657 1.349 . S
C658 C670 1.349 . S
C659 C657 1.327 . S
C659 C675 1.429 . S
C659 H681 0.950 . S
C660 H656 0.949 . S
C660 C668 1.574 . S
C660 C676 1.368 . S
H661 C669 0.950 . S
H662 C667 0.950 . S
H663 C668 0.949 . S
H664 C670 0.950 . S
H665 C671 0.950 . S
H666 C672 0.949 . S
C667 H662 0.950 . S
C667 C669 1.327 . S
C667 C673 1.429 . S
C668 C660 1.574 . S
C668 H663 0.949 . S
C668 C674 1.368 . S
C669 C653 1.349 . S
C669 H661 0.950 . S
C669 C667 1.327 . S
C670 C658 1.349 . S
C670 H664 0.950 . S
C670 C671 1.327 . S
C671 H665 0.950 . S
C671 C670 1.327 . S
C671 C675 1.429 . S
C672 C655 1.574 . S
C672 H666 0.949 . S
C672 C676 1.368 . S
C673 C654 1.429 . S
C673 C667 1.429 . S
C673 C674 1.523 . S
C674 C655 1.368 . S
C674 C668 1.368 . S
C674 C673 1.523 . S
C675 C659 1.429 . S
C675 C671 1.429 . S
C675 C676 1.523 . S
C676 C660 1.368 . S
C676 C672 1.368 . S
C676 C675 1.523 . S
H677 C652 0.950 . S
H678 C654 0.950 . S
H679 C655 0.949 . S
H680 C657 0.950 . S
H681 C659 0.950 . S
C682 C683 1.349 . S
C682 C684 1.327 . S
C682 H707 0.950 . S
C683 C682 1.349 . S
C683 C699 1.349 . S
C684 C682 1.327 . S
C684 C703 1.429 . S
C684 H708 0.950 1_565 S
C685 C702 1.609 . S
C685 C704 1.387 . S
C685 H709 0.902 1_545 S
H686 C690 0.949 . S
C687 C688 1.349 . S
C687 C689 1.327 . S
C687 H710 0.950 . S
C688 C687 1.349 . S
C688 C700 1.349 . S
C689 C687 1.327 . S
C689 C705 1.429 . S
C689 H711 0.950 . S
C690 H686 0.949 . S
C690 C698 1.574 . S
C690 C706 1.368 . S
H691 C699 0.950 . S
H692 C697 0.950 . S
H693 C698 0.949 . S
H694 C700 0.950 . S
H695 C701 0.950 . S
H696 C702 0.949 . S
C697 H692 0.950 . S
C697 C699 1.327 . S
C697 C703 1.429 . S
C698 C690 1.574 . S
C698 H693 0.949 . S
C698 C704 1.368 . S
C699 C683 1.349 . S
C699 H691 0.950 . S
C699 C697 1.327 . S
C700 C688 1.349 . S
C700 H694 0.950 . S
C700 C701 1.327 . S
C701 H695 0.950 . S
C701 C700 1.327 . S
C701 C705 1.429 . S
C702 C685 1.609 . S
C702 H696 0.949 . S
C702 C706 1.368 . S
C703 C684 1.429 . S
C703 C697 1.429 . S
C703 C704 1.523 1_565 S
C704 C685 1.387 . S
C704 C698 1.368 . S
C704 C703 1.523 1_545 S
C705 C689 1.429 . S
C705 C701 1.429 . S
C705 C706 1.523 . S
C706 C690 1.368 . S
C706 C702 1.368 . S
C706 C705 1.523 . S
H707 C682 0.950 . S
H708 C684 0.950 1_545 S
H709 C685 0.902 1_565 S
H710 C687 0.950 . S
H711 C689 0.950 . S
C712 C713 1.349 . S
C712 C714 1.327 . S
C712 H737 0.950 . S
C713 C712 1.349 . S
C713 C729 1.349 . S
C714 C712 1.327 . S
C714 C733 1.429 . S
C714 H738 0.950 . S
C715 C732 1.574 . S
C715 C734 1.368 . S
C715 H739 0.949 . S
H716 C720 0.949 . S
C717 C718 1.349 . S
C717 C719 1.327 . S
C717 H740 0.950 . S
C718 C717 1.349 . S
C718 C730 1.349 . S
C719 C717 1.327 . S
C719 C735 1.429 . S
C719 H741 0.950 . S
C720 H716 0.949 . S
C720 C728 1.574 . S
C720 C736 1.368 . S
H721 C729 0.950 . S
H722 C727 0.950 . S
H723 C728 0.949 . S
H724 C730 0.950 . S
H725 C731 0.950 . S
H726 C732 0.949 . S
C727 H722 0.950 . S
C727 C729 1.327 . S
C727 C733 1.429 . S
C728 C720 1.574 . S
C728 H723 0.949 . S
C728 C734 1.368 . S
C729 C713 1.349 . S
C729 H721 0.950 . S
C729 C727 1.327 . S
C730 C718 1.349 . S
C730 H724 0.950 . S
C730 C731 1.327 . S
C731 H725 0.950 . S
C731 C730 1.327 . S
C731 C735 1.429 . S
C732 C715 1.574 . S
C732 H726 0.949 . S
C732 C736 1.368 . S
C733 C714 1.429 . S
C733 C727 1.429 . S
C733 C734 1.523 1_545 S
C734 C715 1.368 . S
C734 C728 1.368 . S
C734 C733 1.523 1_565 S
C735 C719 1.429 . S
C735 C731 1.429 . S
C735 C736 1.523 . S
C736 C720 1.368 . S
C736 C732 1.368 . S
C736 C735 1.523 . S
H737 C712 0.950 . S
H738 C714 0.950 . S
H739 C715 0.949 . S
H740 C717 0.950 . S
H741 C719 0.950 . S
C742 C743 1.349 . S
C742 C744 1.327 . S
C742 H767 0.950 . S
C743 C742 1.349 . S
C743 C759 1.349 . S
C744 C742 1.327 . S
C744 C763 1.429 . S
C744 H768 0.950 . S
C745 C762 1.574 . S
C745 C764 1.368 . S
C745 H769 0.949 . S
H746 C750 0.949 . S
C747 C748 1.349 . S
C747 C749 1.327 . S
C747 H770 0.950 . S
C748 C747 1.349 . S
C748 C760 1.349 . S
C749 C747 1.327 . S
C749 C765 1.429 . S
C749 H771 0.950 . S
C750 H746 0.949 . S
C750 C758 1.574 . S
C750 C766 1.368 . S
H751 C759 0.950 . S
H752 C757 0.950 . S
H753 C758 0.949 . S
H754 C760 0.950 . S
H755 C761 0.950 . S
H756 C762 0.949 . S
C757 H752 0.950 . S
C757 C759 1.327 . S
C757 C763 1.429 . S
C758 C750 1.574 . S
C758 H753 0.949 . S
C758 C764 1.368 . S
C759 C743 1.349 . S
C759 H751 0.950 . S
C759 C757 1.327 . S
C760 C748 1.349 . S
C760 H754 0.950 . S
C760 C761 1.327 . S
C761 H755 0.950 . S
C761 C760 1.327 . S
C761 C765 1.429 . S
C762 C745 1.574 . S
C762 H756 0.949 . S
C762 C766 1.368 . S
C763 C744 1.429 . S
C763 C757 1.429 . S
C763 C764 1.523 . S
C764 C745 1.368 . S
C764 C758 1.368 . S
C764 C763 1.523 . S
C765 C749 1.429 . S
C765 C761 1.429 . S
C765 C766 1.523 . S
C766 C750 1.368 . S
C766 C762 1.368 . S
C766 C765 1.523 . S
H767 C742 0.950 . S
H768 C744 0.950 . S
H769 C745 0.949 . S
H770 C747 0.950 . S
H771 C749 0.950 . S
C772 C773 1.349 . S
C772 C774 1.327 . S
C772 H797 0.950 . S
C773 C772 1.349 . S
C773 C789 1.349 . S
C774 C772 1.327 . S
C774 C793 1.429 . S
C774 H798 0.950 . S
C775 C792 1.574 . S
C775 C794 1.368 . S
C775 H799 0.949 . S
H776 C780 0.949 . S
C777 C778 1.349 . S
C777 C779 1.327 . S
C777 H800 0.950 . S
C778 C777 1.349 . S
C778 C790 1.349 . S
C779 C777 1.327 . S
C779 C795 1.429 . S
C779 H801 0.950 . S
C780 H776 0.949 . S
C780 C788 1.574 . S
C780 C796 1.368 . S
H781 C789 0.950 . S
H782 C787 0.950 . S
H783 C788 0.949 . S
H784 C790 0.950 . S
H785 C791 0.950 . S
H786 C792 0.949 . S
C787 H782 0.950 . S
C787 C789 1.327 . S
C787 C793 1.429 . S
C788 C780 1.574 . S
C788 H783 0.949 . S
C788 C794 1.368 . S
C789 C773 1.349 . S
C789 H781 0.950 . S
C789 C787 1.327 . S
C790 C778 1.349 . S
C790 H784 0.950 . S
C790 C791 1.327 . S
C791 H785 0.950 . S
C791 C790 1.327 . S
C791 C795 1.429 . S
C792 C775 1.574 . S
C792 H786 0.949 . S
C792 C796 1.368 . S
C793 C774 1.429 . S
C793 C787 1.429 . S
C793 C794 1.523 . S
C794 C775 1.368 . S
C794 C788 1.368 . S
C794 C793 1.523 . S
C795 C779 1.429 . S
C795 C791 1.429 . S
C795 C796 1.523 . S
C796 C780 1.368 . S
C796 C792 1.368 . S
C796 C795 1.523 . S
H797 C772 0.950 . S
H798 C774 0.950 . S
H799 C775 0.949 . S
H800 C777 0.950 . S
H801 C779 0.950 . S
C802 C803 1.349 . S
C802 C804 1.327 . S
C802 H827 0.950 . S
C803 C802 1.349 . S
C803 C819 1.349 . S
C804 C802 1.327 . S
C804 C823 1.429 . S
C804 H828 0.950 . S
C805 C822 1.574 . S
C805 C824 1.368 . S
C805 H829 0.949 . S
H806 C810 0.949 . S
C807 C808 1.349 . S
C807 C809 1.327 . S
C807 H830 0.950 . S
C808 C807 1.349 . S
C808 C820 1.349 . S
C809 C807 1.327 . S
C809 C825 1.429 . S
C809 H831 0.950 . S
C810 H806 0.949 . S
C810 C818 1.574 . S
C810 C826 1.368 . S
H811 C819 0.950 . S
H812 C817 0.950 . S
H813 C818 0.949 . S
H814 C820 0.950 . S
H815 C821 0.950 . S
H816 C822 0.949 . S
C817 H812 0.950 . S
C817 C819 1.327 . S
C817 C823 1.429 . S
C818 C810 1.574 . S
C818 H813 0.949 . S
C818 C824 1.368 . S
C819 C803 1.349 . S
C819 H811 0.950 . S
C819 C817 1.327 . S
C820 C808 1.349 . S
C820 H814 0.950 . S
C820 C821 1.327 . S
C821 H815 0.950 . S
C821 C820 1.327 . S
C821 C825 1.429 . S
C822 C805 1.574 . S
C822 H816 0.949 . S
C822 C826 1.368 . S
C823 C804 1.429 . S
C823 C817 1.429 . S
C823 C824 1.523 1_545 S
C824 C805 1.368 . S
C824 C818 1.368 . S
C824 C823 1.523 1_565 S
C825 C809 1.429 . S
C825 C821 1.429 . S
C825 C826 1.523 . S
C826 C810 1.368 . S
C826 C822 1.368 . S
C826 C825 1.523 . S
H827 C802 0.950 . S
H828 C804 0.950 . S
H829 C805 0.949 . S
H830 C807 0.950 . S
H831 C809 0.950 . S
C832 C833 1.349 . S
C832 C834 1.327 1_556 S
C832 H857 0.950 . S
C833 C832 1.349 . S
C833 C849 1.346 . S
C834 C832 1.327 1_554 S
C834 C853 1.429 . S
C834 H858 0.950 . S
C835 C852 1.574 . S
C835 C854 1.368 . S
C835 H859 0.949 . S
H836 C840 0.949 . S
C837 C838 1.349 . S
C837 C839 1.327 . S
C837 H860 0.950 . S
C838 C837 1.349 . S
C838 C850 1.349 . S
C839 C837 1.327 . S
C839 C855 1.429 . S
C839 H861 0.950 . S
C840 H836 0.949 . S
C840 C848 1.574 . S
C840 C856 1.368 . S
H841 C849 0.949 . S
H842 C847 0.950 . S
H843 C848 0.949 . S
H844 C850 0.950 . S
H845 C851 0.950 . S
H846 C852 0.949 . S
C847 H842 0.950 . S
C847 C849 1.331 1_554 S
C847 C853 1.429 . S
C848 C840 1.574 . S
C848 H843 0.949 . S
C848 C854 1.368 . S
C849 C833 1.346 . S
C849 H841 0.949 . S
C849 C847 1.331 1_556 S
C850 C838 1.349 . S
C850 H844 0.950 . S
C850 C851 1.327 . S
C851 H845 0.950 . S
C851 C850 1.327 . S
C851 C855 1.429 . S
C852 C835 1.574 . S
C852 H846 0.949 . S
C852 C856 1.368 . S
C853 C834 1.429 . S
C853 C847 1.429 . S
C853 C854 1.523 . S
C854 C835 1.368 . S
C854 C848 1.368 . S
C854 C853 1.523 . S
C855 C839 1.429 . S
C855 C851 1.429 . S
C855 C856 1.523 . S
C856 C840 1.368 . S
C856 C852 1.368 . S
C856 C855 1.523 . S
H857 C832 0.950 . S
H858 C834 0.950 . S
H859 C835 0.949 . S
H860 C837 0.950 . S
H861 C839 0.950 . S
C862 C863 1.349 . S
C862 C864 1.327 . S
C862 H887 0.950 . S
C863 C862 1.349 . S
C863 C879 1.349 . S
C864 C862 1.327 . S
C864 C883 1.429 . S
C864 H888 0.950 . S
C865 C882 1.574 . S
C865 C884 1.368 . S
C865 H889 0.949 . S
H866 C870 0.949 . S
C867 C868 1.349 . S
C867 C869 1.327 . S
C867 H890 0.950 . S
C868 C867 1.349 . S
C868 C880 1.349 . S
C869 C867 1.327 . S
C869 C885 1.429 . S
C869 H891 0.950 . S
C870 H866 0.949 . S
C870 C878 1.574 . S
C870 C886 1.368 . S
H871 C879 0.950 . S
H872 C877 0.950 . S
H873 C878 0.949 . S
H874 C880 0.950 . S
H875 C881 0.950 . S
H876 C882 0.949 . S
C877 H872 0.950 . S
C877 C879 1.327 . S
C877 C883 1.429 . S
C878 C870 1.574 . S
C878 H873 0.949 . S
C878 C884 1.368 . S
C879 C863 1.349 . S
C879 H871 0.950 . S
C879 C877 1.327 . S
C880 C868 1.349 . S
C880 H874 0.950 . S
C880 C881 1.327 . S
C881 H875 0.950 . S
C881 C880 1.327 . S
C881 C885 1.429 . S
C882 C865 1.574 . S
C882 H876 0.949 . S
C882 C886 1.368 . S
C883 C864 1.429 . S
C883 C877 1.429 . S
C883 C884 1.523 . S
C884 C865 1.368 . S
C884 C878 1.368 . S
C884 C883 1.523 . S
C885 C869 1.429 . S
C885 C881 1.429 . S
C885 C886 1.523 . S
C886 C870 1.368 . S
C886 C882 1.368 . S
C886 C885 1.523 . S
H887 C862 0.950 . S
H888 C864 0.950 . S
H889 C865 0.949 . S
H890 C867 0.950 . S
H891 C869 0.950 . S
C892 C893 1.349 . S
C892 C894 1.327 1_554 S
C892 H917 0.950 . S
C893 C892 1.349 . S
C893 C909 1.349 . S
C894 C892 1.327 1_556 S
C894 C913 1.429 . S
C894 H918 0.950 . S
C895 C912 1.574 . S
C895 C914 1.368 . S
C895 H919 0.949 . S
H896 C900 0.949 . S
C897 C898 1.349 . S
C897 C899 1.327 . S
C897 H920 0.950 . S
C898 C897 1.349 . S
C898 C910 1.349 . S
C899 C897 1.327 . S
C899 C915 1.429 . S
C899 H921 0.950 . S
C900 H896 0.949 . S
C900 C908 1.574 . S
C900 C916 1.368 . S
H901 C909 0.950 . S
H902 C907 0.950 . S
H903 C908 0.949 . S
H904 C910 0.950 . S
H905 C911 0.950 . S
H906 C912 0.949 . S
C907 H902 0.950 . S
C907 C909 1.327 1_556 S
C907 C913 1.429 . S
C908 C900 1.574 . S
C908 H903 0.949 . S
C908 C914 1.368 . S
C909 C893 1.349 . S
C909 H901 0.950 . S
C909 C907 1.327 1_554 S
C910 C898 1.349 . S
C910 H904 0.950 . S
C910 C911 1.327 . S
C911 H905 0.950 . S
C911 C910 1.327 . S
C911 C915 1.429 . S
C912 C895 1.574 . S
C912 H906 0.949 . S
C912 C916 1.368 . S
C913 C894 1.429 . S
C913 C907 1.429 . S
C913 C914 1.523 . S
C914 C895 1.368 . S
C914 C908 1.368 . S
C914 C913 1.523 . S
C915 C899 1.429 . S
C915 C911 1.429 . S
C915 C916 1.523 . S
C916 C900 1.368 . S
C916 C912 1.368 . S
C916 C915 1.523 . S
H917 C892 0.950 . S
H918 C894 0.950 . S
H919 C895 0.949 . S
H920 C897 0.950 . S
H921 C899 0.950 . S
C922 C923 1.349 . S
C922 C924 1.327 . S
C922 H947 0.950 . S
C923 C922 1.349 . S
C923 C939 1.349 . S
C924 C922 1.327 . S
C924 C943 1.429 . S
C924 H948 0.950 . S
C925 C942 1.574 . S
C925 C944 1.368 . S
C925 H949 0.949 . S
H926 C930 0.949 . S
C927 C928 1.349 . S
C927 C929 1.327 . S
C927 H950 0.950 . S
C928 C927 1.349 . S
C928 C940 1.349 . S
C929 C927 1.327 . S
C929 C945 1.429 . S
C929 H951 0.950 . S
C930 H926 0.949 . S
C930 C938 1.574 . S
C930 C946 1.368 . S
H931 C939 0.950 . S
H932 C937 0.950 . S
H933 C938 0.949 . S
H934 C940 0.950 . S
H935 C941 0.950 . S
H936 C942 0.949 . S
C937 H932 0.950 . S
C937 C939 1.327 . S
C937 C943 1.429 . S
C938 C930 1.574 . S
C938 H933 0.949 . S
C938 C944 1.368 . S
C939 C923 1.349 . S
C939 H931 0.950 . S
C939 C937 1.327 . S
C940 C928 1.349 . S
C940 H934 0.950 . S
C940 C941 1.327 . S
C941 H935 0.950 . S
C941 C940 1.327 . S
C941 C945 1.429 . S
C942 C925 1.574 . S
C942 H936 0.949 . S
C942 C946 1.368 . S
C943 C924 1.429 . S
C943 C937 1.429 . S
C943 C944 1.523 . S
C944 C925 1.368 . S
C944 C938 1.368 . S
C944 C943 1.523 . S
C945 C929 1.429 . S
C945 C941 1.429 . S
C945 C946 1.523 . S
C946 C930 1.368 . S
C946 C942 1.368 . S
C946 C945 1.523 . S
H947 C922 0.950 . S
H948 C924 0.950 . S
H949 C925 0.949 . S
H950 C927 0.950 . S
H951 C929 0.950 . S
C952 C953 1.349 . S
C952 C954 1.327 1_554 S
C952 H977 0.950 . S
C953 C952 1.349 . S
C953 C969 1.349 . S
C954 C952 1.327 1_556 S
C954 C973 1.429 . S
C954 H978 0.950 . S
C955 C972 1.574 . S
C955 C974 1.368 . S
C955 H979 0.949 . S
H956 C960 0.949 . S
C957 C958 1.349 . S
C957 C959 1.327 . S
C957 H980 0.950 . S
C958 C957 1.349 . S
C958 C970 1.349 . S
C959 C957 1.327 . S
C959 C975 1.429 . S
C959 H981 0.950 . S
C960 H956 0.949 . S
C960 C968 1.574 . S
C960 C976 1.368 . S
H961 C969 0.950 . S
H962 C967 0.950 . S
H963 C968 0.949 . S
H964 C970 0.950 . S
H965 C971 0.950 . S
H966 C972 0.949 . S
C967 H962 0.950 . S
C967 C969 1.327 1_556 S
C967 C973 1.429 . S
C968 C960 1.574 . S
C968 H963 0.949 . S
C968 C974 1.368 . S
C969 C953 1.349 . S
C969 H961 0.950 . S
C969 C967 1.327 1_554 S
C970 C958 1.349 . S
C970 H964 0.950 . S
C970 C971 1.327 . S
C971 H965 0.950 . S
C971 C970 1.327 . S
C971 C975 1.429 . S
C972 C955 1.574 . S
C972 H966 0.949 . S
C972 C976 1.368 . S
C973 C954 1.429 . S
C973 C967 1.429 . S
C973 C974 1.523 . S
C974 C955 1.368 . S
C974 C968 1.368 . S
C974 C973 1.523 . S
C975 C959 1.429 . S
C975 C971 1.429 . S
C975 C976 1.523 . S
C976 C960 1.368 . S
C976 C972 1.368 . S
C976 C975 1.523 . S
H977 C952 0.950 . S
H978 C954 0.950 . S
H979 C955 0.949 . S
H980 C957 0.950 . S
H981 C959 0.950 . S
C982 C983 1.349 . S
C982 C984 1.327 . S
C982 H1007 0.950 . S
C983 C982 1.349 . S
C983 C999 1.349 . S
C984 C982 1.327 . S
C984 C1003 1.429 . S
C984 H1008 0.950 . S
C985 C1002 1.574 . S
C985 C1004 1.368 . S
C985 H1009 0.949 . S
H986 C990 0.949 . S
C987 C988 1.349 . S
C987 C989 1.327 . S
C987 H1010 0.950 . S
C988 C987 1.349 . S
C988 C1000 1.349 . S
C989 C987 1.327 . S
C989 C1005 1.429 . S
C989 H1011 0.950 . S
C990 H986 0.949 . S
C990 C998 1.574 . S
C990 C1006 1.368 . S
H991 C999 0.950 . S
H992 C997 0.950 . S
H993 C998 0.949 . S
H994 C1000 0.950 . S
H995 C1001 0.950 . S
H996 C1002 0.949 . S
C997 H992 0.950 . S
C997 C999 1.327 . S
C997 C1003 1.429 . S
C998 C990 1.574 . S
C998 H993 0.949 . S
C998 C1004 1.368 . S
C999 C983 1.349 . S
C999 H991 0.950 . S
C999 C997 1.327 . S
C1000 C988 1.349 . S
C1000 H994 0.950 . S
C1000 C1001 1.327 . S
C1001 H995 0.950 . S
C1001 C1000 1.327 . S
C1001 C1005 1.429 . S
C1002 C985 1.574 . S
C1002 H996 0.949 . S
C1002 C1006 1.368 . S
C1003 C984 1.429 . S
C1003 C997 1.429 . S
C1003 C1004 1.523 . S
C1004 C985 1.368 . S
C1004 C998 1.368 . S
C1004 C1003 1.523 . S
C1005 C989 1.429 . S
C1005 C1001 1.429 . S
C1005 C1006 1.523 . S
C1006 C990 1.368 . S
C1006 C1002 1.368 . S
C1006 C1005 1.523 . S
H1007 C982 0.950 . S
H1008 C984 0.950 . S
H1009 C985 0.949 . S
H1010 C987 0.950 . S
H1011 C989 0.950 . S
C1012 C1013 1.349 . S
C1012 C1014 1.327 1_556 S
C1012 H1037 0.950 . S
C1013 C1012 1.349 . S
C1013 C1029 1.349 . S
C1014 C1012 1.327 1_554 S
C1014 C1033 1.429 . S
C1014 H1038 0.950 . S
C1015 C1032 1.574 . S
C1015 C1034 1.368 . S
C1015 H1039 0.949 . S
H1016 C1020 0.949 . S
C1017 C1018 1.349 . S
C1017 C1019 1.327 . S
C1017 H1040 0.950 . S
C1018 C1017 1.349 . S
C1018 C1030 1.349 . S
C1019 C1017 1.327 . S
C1019 C1035 1.429 . S
C1019 H1041 0.950 . S
C1020 H1016 0.949 . S
C1020 C1028 1.574 . S
C1020 C1036 1.368 . S
H1021 C1029 0.950 . S
H1022 C1027 0.950 . S
H1023 C1028 0.949 . S
H1024 C1030 0.950 . S
H1025 C1031 0.950 . S
H1026 C1032 0.949 . S
C1027 H1022 0.950 . S
C1027 C1029 1.327 1_554 S
C1027 C1033 1.429 . S
C1028 C1020 1.574 . S
C1028 H1023 0.949 . S
C1028 C1034 1.368 . S
C1029 C1013 1.349 . S
C1029 H1021 0.950 . S
C1029 C1027 1.327 1_556 S
C1030 C1018 1.349 . S
C1030 H1024 0.950 . S
C1030 C1031 1.327 . S
C1031 H1025 0.950 . S
C1031 C1030 1.327 . S
C1031 C1035 1.429 . S
C1032 C1015 1.574 . S
C1032 H1026 0.949 . S
C1032 C1036 1.368 . S
C1033 C1014 1.429 . S
C1033 C1027 1.429 . S
C1033 C1034 1.523 . S
C1034 C1015 1.368 . S
C1034 C1028 1.368 . S
C1034 C1033 1.523 . S
C1035 C1019 1.429 . S
C1035 C1031 1.429 . S
C1035 C1036 1.523 . S
C1036 C1020 1.368 . S
C1036 C1032 1.368 . S
C1036 C1035 1.523 . S
H1037 C1012 0.950 . S
H1038 C1014 0.950 . S
H1039 C1015 0.949 . S
H1040 C1017 0.950 . S
H1041 C1019 0.950 . S
C1042 C1043 1.349 . S
C1042 C1044 1.327 . S
C1042 H1067 0.950 . S
C1043 C1042 1.349 . S
C1043 C1059 1.349 . S
C1044 C1042 1.327 . S
C1044 C1063 1.429 . S
C1044 H1068 0.950 . S
C1045 C1062 1.574 . S
C1045 C1064 1.368 . S
C1045 H1069 0.949 . S
H1046 C1050 0.949 . S
C1047 C1048 1.349 . S
C1047 C1049 1.327 . S
C1047 H1070 0.950 . S
C1048 C1047 1.349 . S
C1048 C1060 1.349 . S
C1049 C1047 1.327 . S
C1049 C1065 1.429 . S
C1049 H1071 0.950 . S
C1050 H1046 0.949 . S
C1050 C1058 1.574 . S
C1050 C1066 1.368 . S
H1051 C1059 0.950 . S
H1052 C1057 0.950 . S
H1053 C1058 0.949 . S
H1054 C1060 0.950 . S
H1055 C1061 0.950 . S
H1056 C1062 0.949 . S
C1057 H1052 0.950 . S
C1057 C1059 1.327 . S
C1057 C1063 1.429 . S
C1058 C1050 1.574 . S
C1058 H1053 0.949 . S
C1058 C1064 1.368 . S
C1059 C1043 1.349 . S
C1059 H1051 0.950 . S
C1059 C1057 1.327 . S
C1060 C1048 1.349 . S
C1060 H1054 0.950 . S
C1060 C1061 1.327 . S
C1061 H1055 0.950 . S
C1061 C1060 1.327 . S
C1061 C1065 1.429 . S
C1062 C1045 1.574 . S
C1062 H1056 0.949 . S
C1062 C1066 1.368 . S
C1063 C1044 1.429 . S
C1063 C1057 1.429 . S
C1063 C1064 1.523 . S
C1064 C1045 1.368 . S
C1064 C1058 1.368 . S
C1064 C1063 1.523 . S
C1065 C1049 1.429 . S
C1065 C1061 1.429 . S
C1065 C1066 1.523 . S
C1066 C1050 1.368 . S
C1066 C1062 1.368 . S
C1066 C1065 1.523 . S
H1067 C1042 0.950 . S
H1068 C1044 0.950 . S
H1069 C1045 0.949 . S
H1070 C1047 0.950 . S
H1071 C1049 0.950 . S
C1072 C1073 1.349 . S
C1072 C1074 1.327 . S
C1072 H1097 0.950 . S
C1073 C1072 1.349 . S
C1073 C1089 1.349 . S
C1074 C1072 1.327 . S
C1074 C1093 1.429 . S
C1074 H1098 0.950 . S
C1075 C1092 1.574 . S
C1075 C1094 1.368 . S
C1075 H1099 0.949 . S
H1076 C1080 0.949 . S
C1077 C1078 1.349 . S
C1077 C1079 1.327 . S
C1077 H1100 0.950 . S
C1078 C1077 1.349 . S
C1078 C1090 1.349 . S
C1079 C1077 1.327 . S
C1079 C1095 1.429 . S
C1079 H1101 0.950 . S
C1080 H1076 0.949 . S
C1080 C1088 1.574 . S
C1080 C1096 1.368 . S
H1081 C1089 0.950 . S
H1082 C1087 0.950 . S
H1083 C1088 0.949 . S
H1084 C1090 0.950 . S
H1085 C1091 0.950 . S
H1086 C1092 0.949 . S
C1087 H1082 0.950 . S
C1087 C1089 1.327 . S
C1087 C1093 1.429 . S
C1088 C1080 1.574 . S
C1088 H1083 0.949 . S
C1088 C1094 1.368 . S
C1089 C1073 1.349 . S
C1089 H1081 0.950 . S
C1089 C1087 1.327 . S
C1090 C1078 1.349 . S
C1090 H1084 0.950 . S
C1090 C1091 1.327 . S
C1091 H1085 0.950 . S
C1091 C1090 1.327 . S
C1091 C1095 1.429 . S
C1092 C1075 1.574 . S
C1092 H1086 0.949 . S
C1092 C1096 1.368 . S
C1093 C1074 1.429 . S
C1093 C1087 1.429 . S
C1093 C1094 1.523 . S
C1094 C1075 1.368 . S
C1094 C1088 1.368 . S
C1094 C1093 1.523 . S
C1095 C1079 1.429 . S
C1095 C1091 1.429 . S
C1095 C1096 1.523 . S
C1096 C1080 1.368 . S
C1096 C1092 1.368 . S
C1096 C1095 1.523 . S
H1097 C1072 0.950 . S
H1098 C1074 0.950 . S
H1099 C1075 0.949 . S
H1100 C1077 0.950 . S
H1101 C1079 0.950 . S
C1102 C1103 1.349 . S
C1102 C1104 1.327 . S
C1102 H1127 0.950 . S
C1103 C1102 1.349 . S
C1103 C1119 1.349 . S
C1104 C1102 1.327 . S
C1104 C1123 1.429 . S
C1104 H1128 0.950 . S
C1105 C1122 1.574 . S
C1105 C1124 1.368 . S
C1105 H1129 0.949 . S
H1106 C1110 0.949 . S
C1107 C1108 1.349 . S
C1107 C1109 1.327 . S
C1107 H1130 0.950 . S
C1108 C1107 1.349 . S
C1108 C1120 1.349 . S
C1109 C1107 1.327 . S
C1109 C1125 1.429 . S
C1109 H1131 0.950 . S
C1110 H1106 0.949 . S
C1110 C1118 1.574 . S
C1110 C1126 1.368 . S
H1111 C1119 0.950 . S
H1112 C1117 0.950 . S
H1113 C1118 0.949 . S
H1114 C1120 0.950 . S
H1115 C1121 0.950 . S
H1116 C1122 0.949 . S
C1117 H1112 0.950 . S
C1117 C1119 1.327 . S
C1117 C1123 1.429 . S
C1118 C1110 1.574 . S
C1118 H1113 0.949 . S
C1118 C1124 1.368 . S
C1119 C1103 1.349 . S
C1119 H1111 0.950 . S
C1119 C1117 1.327 . S
C1120 C1108 1.349 . S
C1120 H1114 0.950 . S
C1120 C1121 1.327 . S
C1121 H1115 0.950 . S
C1121 C1120 1.327 . S
C1121 C1125 1.429 . S
C1122 C1105 1.574 . S
C1122 H1116 0.949 . S
C1122 C1126 1.368 . S
C1123 C1104 1.429 . S
C1123 C1117 1.429 . S
C1123 C1124 1.523 . S
C1124 C1105 1.368 . S
C1124 C1118 1.368 . S
C1124 C1123 1.523 . S
C1125 C1109 1.429 . S
C1125 C1121 1.429 . S
C1125 C1126 1.523 . S
C1126 C1110 1.368 . S
C1126 C1122 1.368 . S
C1126 C1125 1.523 . S
H1127 C1102 0.950 . S
H1128 C1104 0.950 . S
H1129 C1105 0.949 . S
H1130 C1107 0.950 . S
H1131 C1109 0.950 . S
C1132 C1133 1.349 . S
C1132 C1134 1.327 . S
C1132 H1157 0.950 . S
C1133 C1132 1.349 . S
C1133 C1149 1.349 . S
C1134 C1132 1.327 . S
C1134 C1153 1.429 . S
C1134 H1158 0.950 . S
C1135 C1152 1.574 . S
C1135 C1154 1.368 . S
C1135 H1159 0.949 . S
H1136 C1140 0.949 . S
C1137 C1138 1.349 . S
C1137 C1139 1.327 . S
C1137 H1160 0.950 . S
C1138 C1137 1.349 . S
C1138 C1150 1.349 . S
C1139 C1137 1.327 . S
C1139 C1155 1.429 . S
C1139 H1161 0.950 . S
C1140 H1136 0.949 . S
C1140 C1148 1.574 . S
C1140 C1156 1.368 . S
H1141 C1149 0.950 . S
H1142 C1147 0.950 . S
H1143 C1148 0.949 . S
H1144 C1150 0.950 . S
H1145 C1151 0.950 . S
H1146 C1152 0.949 . S
C1147 H1142 0.950 . S
C1147 C1149 1.327 . S
C1147 C1153 1.429 . S
C1148 C1140 1.574 . S
C1148 H1143 0.949 . S
C1148 C1154 1.368 . S
C1149 C1133 1.349 . S
C1149 H1141 0.950 . S
C1149 C1147 1.327 . S
C1150 C1138 1.349 . S
C1150 H1144 0.950 . S
C1150 C1151 1.327 . S
C1151 H1145 0.950 . S
C1151 C1150 1.327 . S
C1151 C1155 1.429 . S
C1152 C1135 1.574 . S
C1152 H1146 0.949 . S
C1152 C1156 1.368 . S
C1153 C1134 1.429 . S
C1153 C1147 1.429 . S
C1153 C1154 1.523 . S
C1154 C1135 1.368 . S
C1154 C1148 1.368 . S
C1154 C1153 1.523 . S
C1155 C1139 1.429 . S
C1155 C1151 1.429 . S
C1155 C1156 1.523 . S
C1156 C1140 1.368 . S
C1156 C1152 1.368 . S
C1156 C1155 1.523 . S
H1157 C1132 0.950 . S
H1158 C1134 0.950 . S
H1159 C1135 0.949 . S
H1160 C1137 0.950 . S
H1161 C1139 0.950 . S
C1162 C1163 1.349 . S
C1162 C1164 1.327 . S
C1162 H1187 0.950 . S
C1163 C1162 1.349 . S
C1163 C1179 1.349 . S
C1164 C1162 1.327 . S
C1164 C1183 1.429 . S
C1164 H1188 0.950 . S
C1165 C1182 1.574 . S
C1165 C1184 1.368 . S
C1165 H1189 0.949 . S
H1166 C1170 0.949 . S
C1167 C1168 1.349 . S
C1167 C1169 1.327 . S
C1167 H1190 0.950 . S
C1168 C1167 1.349 . S
C1168 C1180 1.349 . S
C1169 C1167 1.327 . S
C1169 C1185 1.429 . S
C1169 H1191 0.950 . S
C1170 H1166 0.949 . S
C1170 C1178 1.574 . S
C1170 C1186 1.368 . S
H1171 C1179 0.950 . S
H1172 C1177 0.950 . S
H1173 C1178 0.949 . S
H1174 C1180 0.950 . S
H1175 C1181 0.950 . S
H1176 C1182 0.949 . S
C1177 H1172 0.950 . S
C1177 C1179 1.327 . S
C1177 C1183 1.429 . S
C1178 C1170 1.574 . S
C1178 H1173 0.949 . S
C1178 C1184 1.368 . S
C1179 C1163 1.349 . S
C1179 H1171 0.950 . S
C1179 C1177 1.327 . S
C1180 C1168 1.349 . S
C1180 H1174 0.950 . S
C1180 C1181 1.327 . S
C1181 H1175 0.950 . S
C1181 C1180 1.327 . S
C1181 C1185 1.429 . S
C1182 C1165 1.574 . S
C1182 H1176 0.949 . S
C1182 C1186 1.368 . S
C1183 C1164 1.429 . S
C1183 C1177 1.429 . S
C1183 C1184 1.523 . S
C1184 C1165 1.368 . S
C1184 C1178 1.368 . S
C1184 C1183 1.523 . S
C1185 C1169 1.429 . S
C1185 C1181 1.429 . S
C1185 C1186 1.523 . S
C1186 C1170 1.368 . S
C1186 C1182 1.368 . S
C1186 C1185 1.523 . S
H1187 C1162 0.950 . S
H1188 C1164 0.950 . S
H1189 C1165 0.949 . S
H1190 C1167 0.950 . S
H1191 C1169 0.950 . S
C1192 C1193 1.349 . S
C1192 C1194 1.327 . S
C1192 H1217 0.950 . S
C1193 C1192 1.349 . S
C1193 C1209 1.349 . S
C1194 C1192 1.327 . S
C1194 C1213 1.429 . S
C1194 H1218 0.950 . S
C1195 C1212 1.574 . S
C1195 C1214 1.368 . S
C1195 H1219 0.949 . S
H1196 C1200 0.949 . S
C1197 C1198 1.349 . S
C1197 C1199 1.327 . S
C1197 H1220 0.950 . S
C1198 C1197 1.349 . S
C1198 C1210 1.349 . S
C1199 C1197 1.327 . S
C1199 C1215 1.429 . S
C1199 H1221 0.950 . S
C1200 H1196 0.949 . S
C1200 C1208 1.574 . S
C1200 C1216 1.368 . S
H1201 C1209 0.950 . S
H1202 C1207 0.950 . S
H1203 C1208 0.949 . S
H1204 C1210 0.950 . S
H1205 C1211 0.950 . S
H1206 C1212 0.949 . S
C1207 H1202 0.950 . S
C1207 C1209 1.327 . S
C1207 C1213 1.429 . S
C1208 C1200 1.574 . S
C1208 H1203 0.949 . S
C1208 C1214 1.368 . S
C1209 C1193 1.349 . S
C1209 H1201 0.950 . S
C1209 C1207 1.327 . S
C1210 C1198 1.349 . S
C1210 H1204 0.950 . S
C1210 C1211 1.327 . S
C1211 H1205 0.950 . S
C1211 C1210 1.327 . S
C1211 C1215 1.429 . S
C1212 C1195 1.574 . S
C1212 H1206 0.949 . S
C1212 C1216 1.368 . S
C1213 C1194 1.429 . S
C1213 C1207 1.429 . S
C1213 C1214 1.523 . S
C1214 C1195 1.368 . S
C1214 C1208 1.368 . S
C1214 C1213 1.523 . S
C1215 C1199 1.429 . S
C1215 C1211 1.429 . S
C1215 C1216 1.523 . S
C1216 C1200 1.368 . S
C1216 C1212 1.368 . S
C1216 C1215 1.523 . S
H1217 C1192 0.950 . S
H1218 C1194 0.950 . S
H1219 C1195 0.949 . S
H1220 C1197 0.950 . S
H1221 C1199 0.950 . S
C1222 C1223 1.349 . S
C1222 C1224 1.327 . S
C1222 H1247 0.950 . S
C1223 C1222 1.349 . S
C1223 C1239 1.349 . S
C1224 C1222 1.327 . S
C1224 C1243 1.429 . S
C1224 H1248 0.950 . S
C1225 C1242 1.574 . S
C1225 C1244 1.368 . S
C1225 H1249 0.949 . S
H1226 C1230 0.949 . S
C1227 C1228 1.349 . S
C1227 C1229 1.327 . S
C1227 H1250 0.950 . S
C1228 C1227 1.349 . S
C1228 C1240 1.349 . S
C1229 C1227 1.327 . S
C1229 C1245 1.429 . S
C1229 H1251 0.950 . S
C1230 H1226 0.949 . S
C1230 C1238 1.574 . S
C1230 C1246 1.368 . S
H1231 C1239 0.950 . S
H1232 C1237 0.950 . S
H1233 C1238 0.949 . S
H1234 C1240 0.950 . S
H1235 C1241 0.950 . S
H1236 C1242 0.949 . S
C1237 H1232 0.950 . S
C1237 C1239 1.327 . S
C1237 C1243 1.429 . S
C1238 C1230 1.574 . S
C1238 H1233 0.949 . S
C1238 C1244 1.368 . S
C1239 C1223 1.349 . S
C1239 H1231 0.950 . S
C1239 C1237 1.327 . S
C1240 C1228 1.349 . S
C1240 H1234 0.950 . S
C1240 C1241 1.327 . S
C1241 H1235 0.950 . S
C1241 C1240 1.327 . S
C1241 C1245 1.429 . S
C1242 C1225 1.574 . S
C1242 H1236 0.949 . S
C1242 C1246 1.368 . S
C1243 C1224 1.429 . S
C1243 C1237 1.429 . S
C1243 C1244 1.523 . S
C1244 C1225 1.368 . S
C1244 C1238 1.368 . S
C1244 C1243 1.523 . S
C1245 C1229 1.429 . S
C1245 C1241 1.429 . S
C1245 C1246 1.523 . S
C1246 C1230 1.368 . S
C1246 C1242 1.368 . S
C1246 C1245 1.523 . S
H1247 C1222 0.950 . S
H1248 C1224 0.950 . S
H1249 C1225 0.949 . S
H1250 C1227 0.950 . S
H1251 C1229 0.950 . S
C1252 C1253 1.349 . S
C1252 C1254 1.327 . S
C1252 H1277 0.950 . S
C1253 C1252 1.349 . S
C1253 C1269 1.349 . S
C1254 C1252 1.327 . S
C1254 C1273 1.429 . S
C1254 H1278 0.950 . S
C1255 C1272 1.574 . S
C1255 C1274 1.368 . S
C1255 H1279 0.949 . S
H1256 C1260 0.949 . S
C1257 C1258 1.349 . S
C1257 C1259 1.327 . S
C1257 H1280 0.950 . S
C1258 C1257 1.349 . S
C1258 C1270 1.349 . S
C1259 C1257 1.327 . S
C1259 C1275 1.429 . S
C1259 H1281 0.950 . S
C1260 H1256 0.949 . S
C1260 C1268 1.574 . S
C1260 C1276 1.368 . S
H1261 C1269 0.950 . S
H1262 C1267 0.950 . S
H1263 C1268 0.949 . S
H1264 C1270 0.950 . S
H1265 C1271 0.950 . S
H1266 C1272 0.949 . S
C1267 H1262 0.950 . S
C1267 C1269 1.327 . S
C1267 C1273 1.429 . S
C1268 C1260 1.574 . S
C1268 H1263 0.949 . S
C1268 C1274 1.368 . S
C1269 C1253 1.349 . S
C1269 H1261 0.950 . S
C1269 C1267 1.327 . S
C1270 C1258 1.349 . S
C1270 H1264 0.950 . S
C1270 C1271 1.327 . S
C1271 H1265 0.950 . S
C1271 C1270 1.327 . S
C1271 C1275 1.429 . S
C1272 C1255 1.574 . S
C1272 H1266 0.949 . S
C1272 C1276 1.368 . S
C1273 C1254 1.429 . S
C1273 C1267 1.429 . S
C1273 C1274 1.523 . S
C1274 C1255 1.368 . S
C1274 C1268 1.368 . S
C1274 C1273 1.523 . S
C1275 C1259 1.429 . S
C1275 C1271 1.429 . S
C1275 C1276 1.523 . S
C1276 C1260 1.368 . S
C1276 C1272 1.368 . S
C1276 C1275 1.523 . S
H1277 C1252 0.950 . S
H1278 C1254 0.950 . S
H1279 C1255 0.949 . S
H1280 C1257 0.950 . S
H1281 C1259 0.950 . S
C1282 C1283 1.349 . S
C1282 C1284 1.327 . S
C1282 H1307 0.950 . S
C1283 C1282 1.349 . S
C1283 C1299 1.349 . S
C1284 C1282 1.327 . S
C1284 C1303 1.429 . S
C1284 H1308 0.950 . S
C1285 C1302 1.574 . S
C1285 C1304 1.368 . S
C1285 H1309 0.949 . S
H1286 C1290 0.949 . S
C1287 C1288 1.349 . S
C1287 C1289 1.327 . S
C1287 H1310 0.950 . S
C1288 C1287 1.349 . S
C1288 C1300 1.349 . S
C1289 C1287 1.327 . S
C1289 C1305 1.429 . S
C1289 H1311 0.950 . S
C1290 H1286 0.949 . S
C1290 C1298 1.574 . S
C1290 C1306 1.368 . S
H1291 C1299 0.950 . S
H1292 C1297 0.950 . S
H1293 C1298 0.949 . S
H1294 C1300 0.950 . S
H1295 C1301 0.950 . S
H1296 C1302 0.949 . S
C1297 H1292 0.950 . S
C1297 C1299 1.327 . S
C1297 C1303 1.429 . S
C1298 C1290 1.574 . S
C1298 H1293 0.949 . S
C1298 C1304 1.368 . S
C1299 C1283 1.349 . S
C1299 H1291 0.950 . S
C1299 C1297 1.327 . S
C1300 C1288 1.349 . S
C1300 H1294 0.950 . S
C1300 C1301 1.327 . S
C1301 H1295 0.950 . S
C1301 C1300 1.327 . S
C1301 C1305 1.429 . S
C1302 C1285 1.574 . S
C1302 H1296 0.949 . S
C1302 C1306 1.368 . S
C1303 C1284 1.429 . S
C1303 C1297 1.429 . S
C1303 C1304 1.523 . S
C1304 C1285 1.368 . S
C1304 C1298 1.368 . S
C1304 C1303 1.523 . S
C1305 C1289 1.429 . S
C1305 C1301 1.429 . S
C1305 C1306 1.523 . S
C1306 C1290 1.368 . S
C1306 C1302 1.368 . S
C1306 C1305 1.523 . S
H1307 C1282 0.950 . S
H1308 C1284 0.950 . S
H1309 C1285 0.949 . S
H1310 C1287 0.950 . S
H1311 C1289 0.950 . S
C593 C221 1.468 . S
C598 C312 1.468 . S
C628 C396 1.469 . S
C623 C241 1.445 . S
C658 C395 1.472 . S
C653 C157 1.457 . S
C683 C177 1.431 . S
C688 C311 1.476 . S
C718 C492 1.468 . S
C713 C93 1.438 . S
C748 C576 1.470 . S
C743 C113 1.477 . S
C773 C29 1.421 . S
C778 C575 1.472 . S
C803 C49 1.468 . S
C808 C491 1.476 . S
C838 C314 1.338 . S
C833 C61 1.502 . S
C868 C398 1.343 . S
C863 C17 1.473 . S
C898 C410 1.400 . S
C893 C125 1.526 . S
C928 C326 1.401 . S
C923 C81 1.501 . S
C958 C494 1.338 . S
C953 C189 1.458 . S
C983 C145 1.506 . S
C988 C578 1.343 . S
C1018 C566 1.400 . S
C1013 C253 1.487 . S
C1043 C209 1.529 . S
C1048 C482 1.400 . S
C1078 C323 1.575 . S
C1073 C23 1.528 . S
C1108 C407 1.588 . S
C1103 C55 1.574 . S
C1133 C87 1.521 . S
C1138 C408 1.548 . S
C1168 C324 1.559 . S
C1163 C119 1.559 . S
C1198 C479 1.575 . S
C1193 C151 1.566 . S
C1223 C183 1.531 . S
C1228 C563 1.588 . S
C1253 C215 1.554 . S
C1258 C564 1.548 . S
C1283 C247 1.522 . S
C1288 C480 1.559 . S
