# Generated by pormake.
# Topology sqc, (4,8)-cn, num edge types: 1
# Building blocks:
#     Node 0, Type 0, BuildingBlock: MIFKUJ_clean_linker_1, # of connection points: 4
#     Node 1, Type 0, BuildingBlock: MIFKUJ_clean_linker_1, # of connection points: 4
#     Node 2, Type 0, BuildingBlock: MIFKUJ_clean_linker_1, # of connection points: 4
#     Node 3, Type 0, BuildingBlock: MIFKUJ_clean_linker_1, # of connection points: 4
#     Node 4, Type 0, BuildingBlock: MIFKUJ_clean_linker_1, # of connection points: 4
#     Node 5, Type 0, BuildingBlock: MIFKUJ_clean_linker_1, # of connection points: 4
#     Node 6, Type 0, BuildingBlock: MIFKUJ_clean_linker_1, # of connection points: 4
#     Node 7, Type 0, BuildingBlock: MIFKUJ_clean_linker_1, # of connection points: 4
#     Node 8, Type 1, BuildingBlock: TAGTUT_clean_sbu_3, # of connection points: 8
#     Node 9, Type 1, BuildingBlock: TAGTUT_clean_sbu_3, # of connection points: 8
#     Node 10, Type 1, BuildingBlock: TAGTUT_clean_sbu_3, # of connection points: 8
#     Node 11, Type 1, BuildingBlock: TAGTUT_clean_sbu_3, # of connection points: 8
#     Edge 12, Type (0, 1), BuildingBlock: TEMPAE_clean_linker_10, # of connection points: 2
#     Edge 13, Type (0, 1), BuildingBlock: TEMPAE_clean_linker_10, # of connection points: 2
#     Edge 14, Type (0, 1), BuildingBlock: TEMPAE_clean_linker_10, # of connection points: 2
#     Edge 15, Type (0, 1), BuildingBlock: TEMPAE_clean_linker_10, # of connection points: 2
#     Edge 16, Type (0, 1), BuildingBlock: TEMPAE_clean_linker_10, # of connection points: 2
#     Edge 17, Type (0, 1), BuildingBlock: TEMPAE_clean_linker_10, # of connection points: 2
#     Edge 18, Type (0, 1), BuildingBlock: TEMPAE_clean_linker_10, # of connection points: 2
#     Edge 19, Type (0, 1), BuildingBlock: TEMPAE_clean_linker_10, # of connection points: 2
#     Edge 20, Type (0, 1), BuildingBlock: TEMPAE_clean_linker_10, # of connection points: 2
#     Edge 21, Type (0, 1), BuildingBlock: TEMPAE_clean_linker_10, # of connection points: 2
#     Edge 22, Type (0, 1), BuildingBlock: TEMPAE_clean_linker_10, # of connection points: 2
#     Edge 23, Type (0, 1), BuildingBlock: TEMPAE_clean_linker_10, # of connection points: 2
#     Edge 24, Type (0, 1), BuildingBlock: TEMPAE_clean_linker_10, # of connection points: 2
#     Edge 25, Type (0, 1), BuildingBlock: TEMPAE_clean_linker_10, # of connection points: 2
#     Edge 26, Type (0, 1), BuildingBlock: TEMPAE_clean_linker_10, # of connection points: 2
#     Edge 27, Type (0, 1), BuildingBlock: TEMPAE_clean_linker_10, # of connection points: 2
#     Edge 28, Type (0, 1), BuildingBlock: TEMPAE_clean_linker_10, # of connection points: 2
#     Edge 29, Type (0, 1), BuildingBlock: TEMPAE_clean_linker_10, # of connection points: 2
#     Edge 30, Type (0, 1), BuildingBlock: TEMPAE_clean_linker_10, # of connection points: 2
#     Edge 31, Type (0, 1), BuildingBlock: TEMPAE_clean_linker_10, # of connection points: 2
#     Edge 32, Type (0, 1), BuildingBlock: TEMPAE_clean_linker_10, # of connection points: 2
#     Edge 33, Type (0, 1), BuildingBlock: TEMPAE_clean_linker_10, # of connection points: 2
#     Edge 34, Type (0, 1), BuildingBlock: TEMPAE_clean_linker_10, # of connection points: 2
#     Edge 35, Type (0, 1), BuildingBlock: TEMPAE_clean_linker_10, # of connection points: 2
#     Edge 36, Type (0, 1), BuildingBlock: TEMPAE_clean_linker_10, # of connection points: 2
#     Edge 37, Type (0, 1), BuildingBlock: TEMPAE_clean_linker_10, # of connection points: 2
#     Edge 38, Type (0, 1), BuildingBlock: TEMPAE_clean_linker_10, # of connection points: 2
#     Edge 39, Type (0, 1), BuildingBlock: TEMPAE_clean_linker_10, # of connection points: 2
#     Edge 40, Type (0, 1), BuildingBlock: TEMPAE_clean_linker_10, # of connection points: 2
#     Edge 41, Type (0, 1), BuildingBlock: TEMPAE_clean_linker_10, # of connection points: 2
#     Edge 42, Type (0, 1), BuildingBlock: TEMPAE_clean_linker_10, # of connection points: 2
#     Edge 43, Type (0, 1), BuildingBlock: TEMPAE_clean_linker_10, # of connection points: 2
# Relax obj value: 0.149
# Max RMSD: 0.261
# Mean RMSD: 0.181
data_MOF--net-sqc--node1-TAGTUT_clean_sbu_3--node2-MIFKUJ_clean_linker_1--edge1-TEMPAE_clean_linker_10
_symmetry_space_group_name_H-M    P1
_symmetry_Int_Tables_number       1
_symmetry_cell_setting            triclinic
loop_
_symmetry_equiv_pos_as_xyz
'x, y, z'
_cell_length_a     28.636142
_cell_length_b     28.610907
_cell_length_c     85.157107
_cell_angle_alpha  90.971316
_cell_angle_beta   90.009969
_cell_angle_gamma 89.957483
loop_
_atom_site_label
_atom_site_type_symbol
_atom_site_fract_x
_atom_site_fract_y
_atom_site_fract_z
_atom_type_partial_charge
H0 H 0.96917 0.87723 0.4898 0.0
H1 H 0.89685 0.85699 0.4759 0.0
H2 H 0.87922 0.00202 0.46355 0.0
H3 H 0.95011 0.02189 0.47801 0.0
H4 H 0.05298 0.92622 0.47819 0.0
H5 H 0.93938 0.93517 0.51867 0.0
H6 H 0.86248 0.95462 0.52951 0.0
H7 H 0.88967 0.10111 0.5221 0.0
H8 H 0.96627 0.08133 0.51102 0.0
H9 H 0.11329 0.09083 0.51066 0.0
H10 H 0.18475 0.12431 0.52197 0.0
H11 H 0.23309 0.98558 0.53297 0.0
H12 H 0.16125 0.95244 0.52191 0.0
H13 H 0.04321 0.03623 0.52382 0.0
H14 H 0.15983 0.02236 0.48293 0.0
H15 H 0.23379 0.99815 0.47102 0.0
H16 H 0.19928 0.85361 0.47927 0.0
H17 H 0.12602 0.87823 0.49171 0.0
C18 C 0.9648 0.95097 0.48491 0.0
C19 C 0.94959 0.90447 0.48406 0.0
C20 C 0.90828 0.89305 0.4761 0.0
C21 C 0.88192 0.9279 0.46863 0.0
C22 C 0.89783 0.9744 0.46943 0.0
C23 C 0.93868 0.98579 0.47755 0.0
C24 C 0.00719 0.96408 0.49388 0.0
C25 C 0.05099 0.94947 0.48837 0.0
C26 C 0.00433 0.99458 0.50704 0.0
C27 C 0.95847 0.00686 0.51405 0.0
C28 C 0.92861 0.97146 0.5193 0.0
C29 C 0.88474 0.98256 0.52548 0.0
C30 C 0.86989 0.0293 0.52651 0.0
C31 C 0.89982 0.06468 0.52118 0.0
C32 C 0.94382 0.05356 0.51506 0.0
C33 C 0.13201 0.01916 0.51541 0.0
C34 C 0.13918 0.0677 0.51561 0.0
C35 C 0.18023 0.08672 0.5219 0.0
C36 C 0.21466 0.05756 0.52828 0.0
C37 C 0.20711 0.00897 0.52823 0.0
C38 C 0.16617 0.98997 0.52187 0.0
C39 C 0.08949 -0.00094 0.50798 0.0
C40 C 0.04546 0.01243 0.5138 0.0
C41 C 0.09227 0.96664 0.49525 0.0
C42 C 0.13759 0.9521 0.48832 0.0
C43 C 0.16854 0.98551 0.48241 0.0
C44 C 0.21064 0.9716 0.4755 0.0
C45 C 0.2224 0.92395 0.4742 0.0
C46 C 0.19157 0.8906 0.4803 0.0
C47 C 0.14949 0.90457 0.48725 0.0
H48 H 0.29794 0.78072 0.77718 0.0
H49 H 0.27722 0.85537 0.78952 0.0
H50 H 0.20235 0.89421 0.74762 0.0
H51 H 0.22112 0.81825 0.73565 0.0
H52 H 0.24918 0.70814 0.76743 0.0
H53 H 0.36177 0.81114 0.74028 0.0
H54 H 0.39355 0.86973 0.72262 0.0
H55 H 0.29001 0.83118 0.68775 0.0
H56 H 0.25981 0.77159 0.70526 0.0
H57 H 0.29071 0.62732 0.7051 0.0
H58 H 0.33 0.56124 0.69267 0.0
H59 H 0.39503 0.52812 0.737 0.0
H60 H 0.35914 0.59721 0.74895 0.0
H61 H 0.32771 0.70125 0.71556 0.0
H62 H 0.22436 0.59136 0.7394 0.0
H63 H 0.20816 0.51792 0.75282 0.0
H64 H 0.2932 0.56425 0.79195 0.0
H65 H 0.30898 0.63782 0.77856 0.0
C66 C 0.26159 0.79394 0.75542 0.0
C67 C 0.27684 0.80517 0.77067 0.0
C68 C 0.26546 0.84822 0.77763 0.0
C69 C 0.23863 0.8812 0.76948 0.0
C70 C 0.22297 0.86968 0.75425 0.0
C71 C 0.23412 0.8264 0.74733 0.0
C72 C 0.27482 0.74841 0.74802 0.0
C73 C 0.2665 0.70672 0.75611 0.0
C74 C 0.2961 0.74581 0.73308 0.0
C75 C 0.30851 0.78737 0.72402 0.0
C76 C 0.34536 0.81621 0.72897 0.0
C77 C 0.36345 0.84958 0.71885 0.0
C78 C 0.34472 0.85457 0.70369 0.0
C79 C 0.30591 0.8274 0.6992 0.0
C80 C 0.28824 0.7938 0.70924 0.0
C81 C 0.32144 0.61711 0.72802 0.0
C82 C 0.31336 0.60578 0.71216 0.0
C83 C 0.33555 0.56749 0.7051 0.0
C84 C 0.36571 0.53896 0.71382 0.0
C85 C 0.37264 0.54958 0.72984 0.0
C86 C 0.35128 0.58863 0.7368 0.0
C87 C 0.30216 0.66111 0.73487 0.0
C88 C 0.30949 0.70248 0.72674 0.0
C89 C 0.27938 0.66309 0.74958 0.0
C90 C 0.26778 0.61992 0.75804 0.0
C91 C 0.23938 0.58568 0.75089 0.0
C92 C 0.2303 0.54381 0.75851 0.0
C93 C 0.24994 0.53537 0.7733 0.0
C94 C 0.27831 0.56971 0.78043 0.0
C95 C 0.28682 0.61187 0.77292 0.0
H96 H 0.54868 0.08735 0.05043 0.0
H97 H 0.48848 0.05046 0.06634 0.0
H98 H 0.45303 0.95956 0.02705 0.0
H99 H 0.51497 0.99459 0.01164 0.0
H100 H 0.62146 0.02816 0.03905 0.0
H101 H 0.51715 0.15524 0.00698 0.0
H102 H 0.45648 0.17049 0.98726 0.0
H103 H 0.48292 0.0349 0.9659 0.0
H104 H 0.54407 0.02089 0.98516 0.0
H105 H 0.67452 0.05464 0.97484 0.0
H106 H 0.74234 0.0688 0.9585 0.0
H107 H 0.81492 0.12892 -0.00148 0.0
H108 H 0.74546 0.11669 0.01477 0.0
H109 H 0.61835 0.10896 0.98809 0.0
H110 H 0.71826 0.99205 0.00361 0.0
H111 H 0.78072 0.9436 0.01379 0.0
H112 H 0.75975 0.00519 0.06001 0.0
H113 H 0.70015 0.05649 0.0494 0.0
C114 C 0.53554 0.04449 0.02973 0.0
C115 C 0.52712 0.06019 0.04517 0.0
C116 C 0.49275 0.03907 0.05424 0.0
C117 C 0.46628 0.0018 0.048 0.0
C118 C 0.47335 0.98769 0.03228 0.0
C119 C 0.50803 0.00849 0.02329 0.0
C120 C 0.57817 0.05957 0.02155 0.0
C121 C 0.62118 0.04718 0.02813 0.0
C122 C 0.57732 0.08105 0.0068 0.0
C123 C 0.53431 0.0867 -0.0024 0.0
C124 C 0.5088 0.12849 -0.00173 0.0
C125 C 0.47437 0.13713 0.987 0.0
C126 C 0.46551 0.10412 0.97492 0.0
C127 C 0.4896 0.06134 0.97487 0.0
C128 C 0.52401 0.05298 0.98599 0.0
C129 C 0.70481 0.08482 0.99601 0.0
C130 C 0.70487 0.07119 0.98011 0.0
C131 C 0.74395 0.07872 0.97082 0.0
C132 C 0.78414 0.09966 0.97725 0.0
C133 C 0.78431 0.113 0.99322 0.0
C134 C 0.74486 0.1057 0.00254 0.0
C135 C 0.66231 0.07744 0.00553 0.0
C136 C 0.61936 0.09178 -0.00064 0.0
C137 C 0.66314 0.05365 0.01995 0.0
C138 C 0.70507 0.02874 0.02566 0.0
C139 C 0.72836 0.99653 0.01579 0.0
C140 C 0.76343 0.96796 0.02173 0.0
C141 C 0.77506 0.97001 0.03777 0.0
C142 C 0.75233 0.00302 0.04755 0.0
C143 C 0.71795 0.03226 0.04153 0.0
H144 H 0.26596 0.22385 0.27579 0.0
H145 H 0.27912 0.1572 0.29277 0.0
H146 H 0.38899 0.10859 0.26163 0.0
H147 H 0.37327 0.17386 0.24426 0.0
H148 H 0.35202 0.28359 0.26873 0.0
H149 H 0.22671 0.19537 0.24714 0.0
H150 H 0.19229 0.12557 0.23525 0.0
H151 H 0.27312 0.14796 0.19312 0.0
H152 H 0.31037 0.2155 0.20568 0.0
H153 H 0.34849 0.35715 0.20605 0.0
H154 H 0.33831 0.43128 0.19249 0.0
H155 H 0.26115 0.48633 0.23232 0.0
H156 H 0.27198 0.41255 0.24583 0.0
H157 H 0.27978 0.29684 0.21608 0.0
H158 H 0.40162 0.39228 0.23976 0.0
H159 H 0.43669 0.45682 0.25481 0.0
H160 H 0.35408 0.41898 0.2952 0.0
H161 H 0.31666 0.35767 0.27979 0.0
C162 C 0.31853 0.20334 0.25881 0.0
C163 C 0.29196 0.19798 0.27247 0.0
C164 C 0.29995 0.1602 0.28223 0.0
C165 C 0.33568 0.12788 0.27874 0.0
C166 C 0.36083 0.13239 0.26462 0.0
C167 C 0.35209 0.16974 0.25469 0.0
C168 C 0.31576 0.24741 0.25018 0.0
C169 C 0.33572 0.28685 0.25729 0.0
C170 C 0.29539 0.25065 0.23515 0.0
C171 C 0.27222 0.20993 0.22749 0.0
C172 C 0.23785 0.18463 0.23548 0.0
C173 C 0.2175 0.1451 0.22853 0.0
C174 C 0.23015 0.13069 0.21325 0.0
C175 C 0.26337 0.15719 0.20506 0.0
C176 C 0.28433 0.19624 0.21214 0.0
C177 C 0.31107 0.37942 0.22694 0.0
C178 C 0.32973 0.3854 0.21188 0.0
C179 C 0.32397 0.42775 0.20417 0.0
C180 C 0.29903 0.46476 0.21134 0.0
C181 C 0.28133 0.45893 0.22659 0.0
C182 C 0.28718 0.41663 0.23429 0.0
C183 C 0.31536 0.33388 0.23483 0.0
C184 C 0.29611 0.29386 0.22752 0.0
C185 C 0.33544 0.33019 0.24993 0.0
C186 C 0.35606 0.37049 0.25858 0.0
C187 C 0.39033 0.39872 0.25174 0.0
C188 C 0.4109 0.4351 0.26045 0.0
C189 C 0.39816 0.44324 0.27622 0.0
C190 C 0.36407 0.41456 0.283 0.0
C191 C 0.34296 0.37902 0.27424 0.0
H192 H 0.8049 0.3021 0.24411 0.0
H193 H 0.80405 0.371 0.2275 0.0
H194 H 0.95483 0.37579 0.22921 0.0
H195 H 0.9553 0.30753 0.24613 0.0
H196 H 0.91464 0.22136 0.23501 0.0
H197 H 0.76608 0.2642 0.27389 0.0
H198 H 0.72868 0.33655 0.28341 0.0
H199 H 0.86441 0.39762 0.29179 0.0
H200 H 0.90165 0.32556 0.28197 0.0
H201 H 0.91314 0.12469 0.29165 0.0
H202 H 0.89535 0.04885 0.30308 0.0
H203 H 0.78832 0.02634 0.26788 0.0
H204 H 0.80804 0.10109 0.25618 0.0
H205 H 0.83757 0.19965 0.28654 0.0
H206 H 0.94197 0.08994 0.25758 0.0
H207 H 0.95461 0.02416 0.23946 0.0
H208 H 0.88416 0.10024 0.20287 0.0
H209 H 0.86683 0.16258 0.2214 0.0
C210 C 0.88018 0.30024 0.24645 0.0
C211 C 0.83765 0.3189 0.24128 0.0
C212 C 0.83721 0.3579 0.23169 0.0
C213 C 0.87935 0.37858 0.22706 0.0
C214 C 0.9218 0.36091 0.23278 0.0
C215 C 0.92219 0.32185 0.24235 0.0
C216 C 0.88073 0.25515 0.25457 0.0
C217 C 0.89851 0.21633 0.24639 0.0
C218 C 0.85857 0.24924 0.26917 0.0
C219 C 0.83655 0.28953 0.27738 0.0
C220 C 0.7877 0.29285 0.27807 0.0
C221 C 0.76645 0.33428 0.28329 0.0
C222 C 0.79378 0.3726 0.28818 0.0
C223 C 0.84266 0.36848 0.28809 0.0
C224 C 0.8639 0.32738 0.2826 0.0
C225 C 0.86175 0.11827 0.27315 0.0
C226 C 0.88627 0.10297 0.28634 0.0
C227 C 0.87598 0.0597 0.29285 0.0
C228 C 0.84026 0.03143 0.28646 0.0
C229 C 0.81663 0.04662 0.27296 0.0
C230 C 0.8274 0.08959 0.26634 0.0
C231 C 0.87101 0.16497 0.26679 0.0
C232 C 0.85494 0.20429 0.27535 0.0
C233 C 0.89207 0.17091 0.25192 0.0
C234 C 0.90265 0.1311 0.24102 0.0
C235 C 0.92822 0.09186 0.24577 0.0
C236 C 0.93621 0.05453 0.23526 0.0
C237 C 0.92002 0.05634 0.21964 0.0
C238 C 0.89593 0.09651 0.21486 0.0
C239 C 0.88671 0.13288 0.22545 0.0
H240 H 0.78064 0.85349 0.72003 0.0
H241 H 0.75863 0.92848 0.70918 0.0
H242 H 0.9038 0.96985 0.70835 0.0
H243 H 0.92585 0.89335 0.71836 0.0
H244 H 0.82654 0.78075 0.71149 0.0
H245 H 0.83775 0.88674 0.75378 0.0
H246 H 0.85789 0.95283 0.77101 0.0
H247 H 0.00426 0.91925 0.76594 0.0
H248 H 0.98388 0.853 0.74853 0.0
H249 H 0.9668 0.69458 0.75165 0.0
H250 H 0.97502 0.63281 0.77099 0.0
H251 H 0.82486 0.62674 0.7757 0.0
H252 H 0.81706 0.68966 0.75691 0.0
H253 H 0.92723 0.77959 0.75891 0.0
H254 H 0.90031 0.66022 0.71766 0.0
H255 H 0.86345 0.58609 0.70962 0.0
H256 H 0.72796 0.64388 0.72072 0.0
H257 H 0.76479 0.71846 0.72835 0.0
C258 C 0.85487 0.86769 0.7201 0.0
C259 C 0.80784 0.87839 0.71732 0.0
C260 C 0.79525 0.92177 0.71138 0.0
C261 C 0.82937 0.95574 0.70818 0.0
C262 C 0.8766 0.94464 0.71069 0.0
C263 C 0.88922 0.90095 0.71649 0.0
C264 C 0.86758 0.82292 0.72763 0.0
C265 C 0.84878 0.78062 0.7218 0.0
C266 C 0.89634 0.82219 0.74113 0.0
C267 C 0.9094 0.86536 0.7498 0.0
C268 C 0.87422 0.89422 0.75608 0.0
C269 C 0.8857 0.93164 0.766 0.0
C270 C 0.93254 0.94073 0.76983 0.0
C271 C 0.96792 0.91298 0.76306 0.0
C272 C 0.95636 0.87522 0.75319 0.0
C273 C 0.89134 0.69619 0.75267 0.0
C274 C 0.9357 0.67939 0.75669 0.0
C275 C 0.94029 0.64401 0.76769 0.0
C276 C 0.90055 0.62505 0.7749 0.0
C277 C 0.85612 0.641 0.77047 0.0
C278 C 0.85159 0.67645 0.75954 0.0
C279 C 0.88659 0.73788 0.74275 0.0
C280 C 0.9067 0.77963 0.74819 0.0
C281 C 0.85756 0.73823 0.72935 0.0
C282 C 0.83518 0.69478 0.72346 0.0
C283 C 0.86265 0.65704 0.71819 0.0
C284 C 0.84169 0.61481 0.7137 0.0
C285 C 0.79306 0.60945 0.71473 0.0
C286 C 0.76558 0.64722 0.72 0.0
C287 C 0.78647 0.68981 0.72416 0.0
H288 H 0.42377 0.38895 0.00592 0.0
H289 H 0.34863 0.37337 0.99289 0.0
H290 H 0.3817 0.47607 0.95802 0.0
H291 H 0.45682 0.49101 0.97093 0.0
H292 H 0.53199 0.42359 0.97848 0.0
H293 H 0.46044 0.44283 0.04041 0.0
H294 H 0.38826 0.4638 0.05429 0.0
H295 H 0.34967 0.55406 0.01622 0.0
H296 H 0.42241 0.5339 0.00264 0.0
H297 H 0.59555 0.56552 0.02132 0.0
H298 H 0.66881 0.59525 0.03248 0.0
H299 H 0.72894 0.45725 0.02883 0.0
H300 H 0.65478 0.42674 0.0185 0.0
H301 H 0.53342 0.50445 0.03052 0.0
H302 H 0.64134 0.51233 0.98516 0.0
H303 H 0.71604 0.49088 0.97291 0.0
H304 H 0.68141 0.34474 0.97734 0.0
H305 H 0.60721 0.36641 0.98974 0.0
C306 C 0.44577 0.44083 0.98927 0.0
C307 C 0.41478 0.40789 0.99543 0.0
C308 C 0.37195 0.39923 0.98806 0.0
C309 C 0.35933 0.42396 0.97459 0.0
C310 C 0.39036 0.45712 0.96854 0.0
C311 C 0.43341 0.46521 0.97575 0.0
C312 C 0.49011 0.45193 0.99737 0.0
C313 C 0.53243 0.44112 0.98987 0.0
C314 C 0.4905 0.47432 0.01225 0.0
C315 C 0.44663 0.48673 0.02051 0.0
C316 C 0.43634 0.46709 0.03508 0.0
C317 C 0.39488 0.47866 0.04289 0.0
C318 C 0.36318 0.51037 0.03629 0.0
C319 C 0.37349 0.52968 0.02162 0.0
C320 C 0.41491 0.51808 0.01383 0.0
C321 C 0.61977 0.49399 0.01886 0.0
C322 C 0.62424 0.54146 0.02308 0.0
C323 C 0.66606 0.5585 0.02932 0.0
C324 C 0.7043 0.52851 0.03123 0.0
C325 C 0.69994 0.481 0.02718 0.0
C326 C 0.6577 0.46369 0.02128 0.0
C327 C 0.57576 0.47703 0.01153 0.0
C328 C 0.53327 0.48657 0.01918 0.0
C329 C 0.57529 0.45333 0.99679 0.0
C330 C 0.61893 0.44091 0.98839 0.0
C331 C 0.64988 0.47571 0.98343 0.0
C332 C 0.69245 0.46343 0.97645 0.0
C333 C 0.70472 0.41613 0.97432 0.0
C334 C 0.67326 0.38144 0.97909 0.0
C335 C 0.63065 0.39374 0.98598 0.0
H336 H 0.05404 0.48365 0.47172 0.0
H337 H 0.99112 0.50295 0.45364 0.0
H338 H 0.96141 0.62806 0.48107 0.0
H339 H 0.02377 0.60738 0.49949 0.0
H340 H 0.12845 0.55715 0.47662 0.0
H341 H 0.00682 0.47034 0.50335 0.0
H342 H 0.93944 0.45445 0.51983 0.0
H343 H 0.0028 0.53449 0.55778 0.0
H344 H 0.06753 0.55398 0.54074 0.0
H345 H 0.2 0.53121 0.54089 0.0
H346 H 0.26321 0.49189 0.55478 0.0
H347 H 0.30132 0.41791 0.51211 0.0
H348 H 0.23666 0.45551 0.4983 0.0
H349 H 0.12766 0.49386 0.53035 0.0
H350 H 0.24406 0.58562 0.50691 0.0
H351 H 0.31066 0.61488 0.49189 0.0
H352 H 0.26112 0.54007 0.45072 0.0
H353 H 0.19546 0.50987 0.46577 0.0
C354 C 0.04322 0.54413 0.48687 0.0
C355 C 0.03324 0.5147 0.47399 0.0
C356 C 0.99766 0.52601 0.46361 0.0
C357 C 0.97196 0.56746 0.46578 0.0
C358 C 0.98054 0.5958 0.47914 0.0
C359 C 0.01604 0.58413 0.48966 0.0
C360 C 0.08594 0.53569 0.49595 0.0
C361 C 0.12856 0.54298 0.48836 0.0
C362 C 0.08555 0.52004 0.51155 0.0
C363 C 0.04209 0.51389 0.52071 0.0
C364 C 0.00533 0.48603 0.51499 0.0
C365 C 0.96718 0.47612 0.52459 0.0
C366 C 0.96574 0.49268 0.54026 0.0
C367 C 0.00208 0.52165 0.54576 0.0
C368 C 0.03953 0.53244 0.53605 0.0
C369 C 0.21356 0.49642 0.51854 0.0
C370 C 0.2221 0.50681 0.53446 0.0
C371 C 0.25804 0.48441 0.54238 0.0
C372 C 0.28646 0.45186 0.53445 0.0
C373 C 0.27967 0.44308 0.51837 0.0
C374 C 0.24307 0.46486 0.51049 0.0
C375 C 0.17082 0.51431 0.51093 0.0
C376 C 0.12807 0.50878 0.51873 0.0
C377 C 0.17112 0.53324 0.49572 0.0
C378 C 0.21472 0.54561 0.48745 0.0
C379 C 0.24821 0.57451 0.49477 0.0
C380 C 0.28603 0.59141 0.48619 0.0
C381 C 0.29035 0.58016 0.47016 0.0
C382 C 0.25796 0.54975 0.46303 0.0
C383 C 0.2206 0.53246 0.47162 0.0
C384 C 0.1169 0.67504 0.14902 0.0
C385 C 0.95228 0.60051 0.14181 0.0
C386 C 0.965 0.6519 0.09447 0.0
Mg387 Mg 0.16499 0.7624 0.13144 0.0
Mg388 Mg 0.10457 0.84041 0.11183 0.0
O389 O 0.11574 0.77769 0.1155 0.0
Mg390 Mg 0.06517 0.73577 0.1228 0.0
O391 O 0.01886 0.68988 0.13051 0.0
Mg392 Mg 0.04847 0.63161 0.12177 0.0
Mg393 Mg 0.95516 0.69834 0.12677 0.0
C394 C 0.01771 0.79716 0.0941 0.0
O395 O 0.02529 0.79211 0.13705 0.0
O396 O 0.21572 0.80875 0.11679 0.0
O397 O 0.95021 0.76781 0.13722 0.0
O398 O 0.14691 0.82749 0.14732 0.0
O399 O 0.17104 0.85644 0.10233 0.0
O400 O 0.09889 0.87423 0.13411 0.0
O401 O 0.10272 0.67763 0.10909 0.0
O402 O 0.17611 0.69825 0.11556 0.0
C403 C 0.14707 0.67035 0.10872 0.0
C404 C 0.21091 0.84043 0.10636 0.0
O405 O 0.02023 0.75876 0.10167 0.0
O406 O 0.99278 0.59194 0.13594 0.0
O407 O 0.04467 0.83214 0.09679 0.0
O408 O -0.00052 0.62891 0.10003 0.0
O409 O 0.93119 0.63949 0.13987 0.0
O410 O 0.94507 0.68474 0.10226 0.0
O411 O 0.11077 0.71615 0.14358 0.0
O412 O 0.09581 0.63922 0.14319 0.0
C413 C 0.12146 0.86429 0.14651 0.0
C414 C 0.98214 0.79762 0.1408 0.0
C415 C 0.65588 0.82439 0.38947 0.0
C416 C 0.73247 0.66036 0.38613 0.0
C417 C 0.65505 0.64588 0.34257 0.0
Mg418 Mg 0.55737 0.86035 0.37542 0.0
Mg419 Mg 0.47197 0.79002 0.36389 0.0
O420 O 0.5355 0.80407 0.36343 0.0
Mg421 Mg 0.5838 0.75915 0.37048 0.0
O422 O 0.6357 0.71834 0.37723 0.0
Mg423 Mg 0.68629 0.74396 0.36349 0.0
Mg424 Mg 0.62794 0.65364 0.37702 0.0
C425 C 0.51158 0.69867 0.34747 0.0
O426 O 0.53832 0.72528 0.38952 0.0
O427 O 0.50237 0.90185 0.36119 0.0
O428 O 0.56398 0.65077 0.39045 0.0
O429 O 0.50242 0.84911 0.3954 0.0
O430 O 0.44653 0.85187 0.35297 0.0
O431 O 0.45274 0.79267 0.38796 0.0
O432 O 0.6311 0.79003 0.35178 0.0
O433 O 0.61033 0.86503 0.35545 0.0
C434 C 0.63507 0.83347 0.34849 0.0
C435 C 0.4645 0.8928 0.35364 0.0
O436 O 0.5526 0.70554 0.35309 0.0
O437 O 0.73621 0.69745 0.37791 0.0
O438 O 0.47643 0.72499 0.35067 0.0
O439 O 0.67887 0.68352 0.34458 0.0
O440 O 0.69406 0.63781 0.38742 0.0
O441 O 0.62834 0.6306 0.35328 0.0
O442 O 0.61255 0.81386 0.38768 0.0
O443 O 0.68839 0.80231 0.38208 0.0
C444 C 0.46766 0.82214 0.39818 0.0
C445 C 0.53567 0.68342 0.39468 0.0
C446 C 0.65279 0.16259 0.64032 0.0
C447 C 0.4858 0.09087 0.63294 0.0
C448 C 0.47784 0.179 0.5931 0.0
Mg449 Mg 0.69141 0.26528 0.63088 0.0
Mg450 Mg 0.62085 0.35318 0.62375 0.0
O451 O 0.63643 0.29106 0.61933 0.0
Mg452 Mg 0.59051 0.24145 0.62379 0.0
O453 O 0.54804 0.18863 0.62832 0.0
Mg454 Mg 0.57388 0.14123 0.61308 0.0
Mg455 Mg 0.48363 0.19778 0.62825 0.0
C456 C 0.53045 0.32251 0.6053 0.0
O457 O 0.55495 0.28326 0.64379 0.0
O458 O 0.73341 0.32541 0.61926 0.0
O459 O 0.48068 0.25687 0.6444 0.0
O460 O 0.68057 0.31322 0.65315 0.0
O461 O 0.68197 0.38218 0.6134 0.0
O462 O 0.6236 0.36418 0.64843 0.0
O463 O 0.62297 0.19877 0.60353 0.0
O464 O 0.69695 0.21882 0.60907 0.0
C465 C 0.66708 0.19599 0.60071 0.0
C466 C 0.7233 0.36505 0.61317 0.0
O467 O 0.53925 0.27899 0.60735 0.0
O468 O 0.5244 0.08807 0.62525 0.0
O469 O 0.55489 0.35542 0.61157 0.0
O470 O 0.51516 0.15447 0.59441 0.0
O471 O 0.46452 0.1296 0.63553 0.0
O472 O 0.46233 0.20388 0.60451 0.0
O473 O 0.6435 0.20663 0.64015 0.0
O474 O 0.62988 0.13327 0.63173 0.0
C475 C 0.65353 0.34657 0.65768 0.0
C476 C 0.51313 0.28448 0.64921 0.0
C477 C 0.14886 0.31258 0.8929 0.0
C478 C 0.22988 0.15694 0.88986 0.0
C479 C 0.15266 0.1339 0.84609 0.0
Mg480 Mg 0.05116 0.35038 0.88025 0.0
Mg481 Mg 0.96359 0.2845 0.86756 0.0
O482 O 0.02764 0.29558 0.86767 0.0
Mg483 Mg 0.07592 0.24894 0.87338 0.0
O484 O 0.12874 0.20762 0.87908 0.0
Mg485 Mg 0.17916 0.23515 0.86589 0.0
Mg486 Mg 0.12635 0.1431 0.88105 0.0
C487 C -0.00012 0.19221 0.8504 0.0
O488 O 0.03177 0.21242 0.89215 0.0
O489 O -0.00191 0.39503 0.86645 0.0
O490 O 0.06324 0.14046 0.89496 0.0
O491 O 0.99583 0.33922 0.90015 0.0
O492 O 0.94283 0.34779 0.85629 0.0
O493 O 0.94274 0.28761 0.89153 0.0
O494 O 0.12266 0.28158 0.85458 0.0
O495 O 0.10422 0.35604 0.86054 0.0
C496 C 0.12781 0.32571 0.8526 0.0
C497 C 0.96173 0.38815 0.85788 0.0
O498 O 0.04183 0.19789 0.8555 0.0
O499 O 0.23164 0.19126 0.88034 0.0
O500 O 0.96589 0.21931 0.8543 0.0
O501 O 0.1721 0.17437 0.84693 0.0
O502 O 0.1924 0.13381 0.89223 0.0
O503 O 0.13068 0.11676 0.85769 0.0
O504 O 0.10561 0.3015 0.89138 0.0
O505 O 0.18089 0.2921 0.88481 0.0
C506 C 0.95915 0.31437 0.90233 0.0
C507 C 0.03232 0.17163 0.89825 0.0
C508 C 0.29314 0.87246 0.47103 0.0
C509 C 0.265 0.90891 0.46554 0.0
C510 C 0.33143 0.85593 0.46222 0.0
C511 C 0.34134 0.87606 0.44752 0.0
C512 C 0.31387 0.91376 0.44216 0.0
C513 C 0.27614 0.92972 0.45123 0.0
C514 C 0.36 0.81586 0.46839 0.0
C515 C 0.32287 0.93579 0.42645 0.0
C516 C 0.45351 0.86177 0.4243 0.0
C517 C 0.43963 0.82941 0.41265 0.0
C518 C 0.42302 0.8748 0.43654 0.0
C519 C 0.37749 0.85558 0.43695 0.0
C520 C 0.3645 0.82065 0.42584 0.0
C521 C 0.39589 0.80762 0.41395 0.0
C522 C 0.43848 0.91114 0.44848 0.0
C523 C 0.3165 0.79875 0.42601 0.0
H524 H 0.28497 0.85654 0.48216 0.0
H525 H 0.25415 0.95737 0.44679 0.0
H526 H 0.34882 0.78289 0.46248 0.0
H527 H 0.39771 0.82072 0.46589 0.0
H528 H 0.35528 0.81181 0.48125 0.0
H529 H 0.29984 0.96634 0.42437 0.0
H530 H 0.35974 0.94737 0.42565 0.0
H531 H 0.31696 0.90956 0.4169 0.0
H532 H 0.48745 0.87831 0.42353 0.0
H533 H 0.38501 0.78194 0.4052 0.0
H534 H 0.42926 0.9001 0.46052 0.0
H535 H 0.42001 0.94453 0.44631 0.0
H536 H 0.47668 0.91763 0.44794 0.0
H537 H 0.31107 0.78044 0.43724 0.0
H538 H 0.31132 0.77329 0.41618 0.0
H539 H 0.28926 0.82621 0.42519 0.0
C540 C 0.3724 0.87152 0.67651 0.0
C541 C 0.3671 0.88598 0.69225 0.0
C542 C 0.3932 0.90076 0.6655 0.0
C543 C 0.40958 0.94523 0.6704 0.0
C544 C 0.4053 0.95967 0.68633 0.0
C545 C 0.38386 0.92994 0.69705 0.0
C546 C 0.39692 0.88443 0.64859 0.0
C547 C 0.42261 0.0069 0.69198 0.0
C548 C 0.49551 0.01452 0.64625 0.0
C549 C 0.46613 0.0489 0.64015 0.0
C550 C 0.47737 0.97914 0.65569 0.0
C551 C 0.42879 0.97801 0.65878 0.0
C552 C 0.39872 0.01075 0.65171 0.0
C553 C 0.41784 0.04608 0.64258 0.0
C554 C 0.51045 0.94489 0.66313 0.0
C555 C 0.34661 0.01005 0.65448 0.0
H556 H 0.36048 0.83714 0.67279 0.0
H557 H 0.37956 0.94144 0.70916 0.0
H558 H 0.37649 0.90802 0.64098 0.0
H559 H 0.43377 0.88596 0.64461 0.0
H560 H 0.38387 0.84817 0.6468 0.0
H561 H 0.41915 0.01165 0.7049 0.0
H562 H 0.45983 0.01143 0.68873 0.0
H563 H 0.40252 0.03494 0.68618 0.0
H564 H 0.53291 0.01692 0.64444 0.0
H565 H 0.39508 0.07245 0.6377 0.0
H566 H 0.49768 0.90857 0.66143 0.0
H567 H 0.51211 0.95195 0.67597 0.0
H568 H 0.54633 0.94737 0.65825 0.0
H569 H 0.33249 0.97445 0.65226 0.0
H570 H 0.32776 0.03498 0.64687 0.0
H571 H 0.33915 0.01943 0.66692 0.0
C572 C 0.4468 0.10359 0.9463 0.0
C573 C 0.43358 0.1149 0.96178 0.0
C574 C 0.41656 0.11135 0.9337 0.0
C575 C 0.37215 0.1312 0.93664 0.0
C576 C 0.35912 0.14416 0.95216 0.0
C577 C 0.39006 0.13578 0.96459 0.0
C578 C 0.43176 0.09743 0.91729 0.0
C579 C 0.31199 0.16555 0.9557 0.0
C580 C 0.3031 0.18328 0.9032 0.0
C581 C 0.27039 0.14783 0.90009 0.0
C582 C 0.33701 0.17813 0.91493 0.0
C583 C 0.33848 0.13633 0.92356 0.0
C584 C 0.30697 0.09961 0.91997 0.0
C585 C 0.27317 0.10588 0.90831 0.0
C586 C 0.36979 0.2182 0.91857 0.0
C587 C 0.30791 0.0543 0.92882 0.0
H588 H 0.48091 0.08848 0.94404 0.0
H589 H 0.37971 0.14445 0.97653 0.0
H590 H 0.40821 0.06987 0.91252 0.0
H591 H 0.42914 0.12779 0.9094 0.0
H592 H 0.46817 0.08403 0.91694 0.0
H593 H 0.30929 0.17842 0.96805 0.0
H594 H 0.30496 0.19505 0.94776 0.0
H595 H 0.28431 0.13905 0.9536 0.0
H596 H 0.30081 0.21603 0.89703 0.0
H597 H 0.24805 0.07832 0.90591 0.0
H598 H 0.4065 0.2058 0.91865 0.0
H599 H 0.36205 0.23273 0.93045 0.0
H600 H 0.36657 0.24679 0.90996 0.0
H601 H 0.34333 0.03863 0.92829 0.0
H602 H 0.28242 0.02842 0.92408 0.0
H603 H 0.29973 0.06121 0.94138 0.0
C604 C 0.16164 0.07737 0.2083 0.0
C605 C 0.20886 0.08832 0.20583 0.0
C606 C 0.1409 0.03851 0.20082 0.0
C607 C 0.16792 0.01014 0.19051 0.0
C608 C 0.21579 0.02045 0.18822 0.0
C609 C 0.23573 0.05898 0.19604 0.0
C610 C 0.09022 0.02797 0.20404 0.0
C611 C 0.24566 0.99179 0.17703 0.0
C612 C 0.13937 0.88939 0.17429 0.0
C613 C 0.12406 0.9003 0.15915 0.0
C614 C 0.1497 0.92506 0.18531 0.0
C615 C 0.14597 0.97239 0.18086 0.0
C616 C 0.12732 0.98338 0.166 0.0
C617 C 0.11628 0.94723 0.15539 0.0
C618 C 0.16677 0.91222 0.20143 0.0
C619 C 0.12232 0.03338 0.16082 0.0
H620 H 0.14043 0.0998 0.21579 0.0
H621 H 0.2725 0.06632 0.19437 0.0
H622 H 0.07131 0.01795 0.19313 0.0
H623 H 0.08836 0.99809 0.21213 0.0
H624 H 0.07191 0.05812 0.20967 0.0
H625 H 0.28235 0.00432 0.17665 0.0
H626 H 0.24576 0.95463 0.18052 0.0
H627 H 0.23088 0.99325 0.165 0.0
H628 H 0.14471 0.85315 0.17734 0.0
H629 H 0.1044 0.95606 0.14373 0.0
H630 H 0.14839 0.93342 0.21055 0.0
H631 H 0.20459 0.92002 0.20245 0.0
H632 H 0.16132 0.87457 0.20384 0.0
H633 H 0.10268 0.0542 0.16971 0.0
H634 H 0.10401 0.036 0.14936 0.0
H635 H 0.15744 0.04937 0.15969 0.0
C636 C 0.27354 0.06198 0.54994 0.0
C637 C 0.25768 0.07782 0.5354 0.0
C638 C 0.31297 0.08174 0.55719 0.0
C639 C 0.33744 0.11816 0.54969 0.0
C640 C 0.32227 0.13371 0.53485 0.0
C641 C 0.28239 0.11348 0.5279 0.0
C642 C 0.32762 0.0645 0.57313 0.0
C643 C 0.34784 0.17198 0.52642 0.0
C644 C 0.40286 0.19376 0.57907 0.0
C645 C 0.44677 0.17182 0.57931 0.0
C646 C 0.36787 0.17886 0.56863 0.0
C647 C 0.37706 0.14141 0.55802 0.0
C648 C 0.42263 0.12224 0.55712 0.0
C649 C 0.45699 0.1376 0.56781 0.0
C650 C 0.31993 0.20069 0.56986 0.0
C651 C 0.43407 0.08287 0.54574 0.0
H652 H 0.25428 0.03488 0.55588 0.0
H653 H 0.27059 0.12544 0.51656 0.0
H654 H 0.36456 0.05283 0.5728 0.0
H655 H 0.32513 0.09345 0.58193 0.0
H656 H 0.30567 0.03502 0.57715 0.0
H657 H 0.33299 0.17845 0.5146 0.0
H658 H 0.3462 0.20496 0.53343 0.0
H659 H 0.38528 0.1627 0.52511 0.0
H660 H 0.39471 0.22089 0.58768 0.0
H661 H 0.49086 0.12066 0.56778 0.0
H662 H 0.29449 0.17433 0.57397 0.0
H663 H 0.30805 0.21242 0.55818 0.0
H664 H 0.31915 0.23105 0.57816 0.0
H665 H 0.41852 0.04994 0.55002 0.0
H666 H 0.47236 0.07766 0.5445 0.0
H667 H 0.41898 0.08961 0.534 0.0
C668 C 0.25846 0.95013 0.78682 0.0
C669 C 0.22606 0.92666 0.77717 0.0
C670 C 0.24547 0.98953 0.79582 0.0
C671 C 0.19905 0.00639 0.79501 0.0
C672 C 0.16718 0.9851 0.78438 0.0
C673 C 0.18094 0.94531 0.77566 0.0
C674 C 0.28057 0.01095 0.80705 0.0
C675 C 0.11777 0.00275 0.78289 0.0
C676 C 0.15448 0.05454 0.83378 0.0
C677 C 0.1601 0.10295 0.83215 0.0
C678 C 0.16525 0.02321 0.82154 0.0
C679 C 0.1822 0.04045 0.80716 0.0
C680 C 0.18633 0.08937 0.80513 0.0
C681 C 0.17559 0.12015 0.81773 0.0
C682 C 0.16012 0.97139 0.82427 0.0
C683 C 0.20354 0.10909 0.78987 0.0
H684 H 0.29378 0.93678 0.78773 0.0
H685 H 0.15558 0.92755 0.76824 0.0
H686 H 0.28125 0.04949 0.80592 0.0
H687 H 0.27023 0.00324 0.81929 0.0
H688 H 0.3164 0.99717 0.80504 0.0
H689 H 0.09917 0.98643 0.77274 0.0
H690 H 0.09797 0.99507 0.79373 0.0
H691 H 0.11788 0.0412 0.78149 0.0
H692 H 0.14306 0.04067 0.8449 0.0
H693 H 0.17998 0.15749 0.81637 0.0
H694 H 0.19482 0.9542 0.8235 0.0
H695 H 0.13759 0.95527 0.81508 0.0
H696 H 0.1447 0.96387 0.83593 0.0
H697 H 0.24146 0.10204 0.78862 0.0
H698 H 0.1979 0.14745 0.78931 0.0
H699 H 0.1857 0.09195 0.77975 0.0
C700 C 0.40418 0.00024 0.0687 0.0
C701 C 0.43304 0.97613 0.05802 0.0
C702 C 0.37165 0.97627 0.07784 0.0
C703 C 0.36762 0.92715 0.0761 0.0
C704 C 0.39767 0.90243 0.06573 0.0
C705 C 0.43023 0.92722 0.05688 0.0
C706 C 0.34028 0.00371 0.08888 0.0
C707 C 0.39411 0.85007 0.06349 0.0
C708 C 0.29591 0.86094 0.10593 0.0
C709 C 0.25231 0.85952 0.09847 0.0
C710 C 0.3342 0.88262 0.09876 0.0
C711 C 0.32857 0.90244 0.08375 0.0
C712 C 0.285 0.89962 0.07599 0.0
C713 C 0.24736 0.87847 0.08349 0.0
C714 C 0.38017 0.88549 0.10739 0.0
C715 C 0.27786 0.9196 0.05985 0.0
H716 H 0.40606 0.03803 0.0696 0.0
H717 H 0.45331 0.90823 0.04895 0.0
H718 H 0.30391 0.00278 0.0844 0.0
H719 H 0.34011 0.98775 0.10066 0.0
H720 H 0.35125 0.04082 0.09014 0.0
H721 H 0.42259 0.83571 0.05598 0.0
H722 H 0.39519 0.83254 0.07501 0.0
H723 H 0.36016 0.84113 0.05793 0.0
H724 H 0.29969 0.84647 0.11755 0.0
H725 H 0.21381 0.8769 0.0776 0.0
H726 H 0.389 0.92265 0.10987 0.0
H727 H 0.4086 0.8707 0.09999 0.0
H728 H 0.37934 0.8666 0.11868 0.0
H729 H 0.28366 0.95794 0.06026 0.0
H730 H 0.2422 0.91281 0.0552 0.0
H731 H 0.30362 0.90436 0.05148 0.0
C732 C 0.36499 0.04789 0.28543 0.0
C733 C 0.34932 0.09222 0.29037 0.0
C734 C 0.38199 0.01568 0.29627 0.0
C735 C 0.38241 0.02776 0.31246 0.0
C736 C 0.36507 0.07166 0.3176 0.0
C737 C 0.34926 0.10356 0.30649 0.0
C738 C 0.40066 0.96924 0.29036 0.0
C739 C 0.36432 0.08543 0.3348 0.0
C740 C 0.39489 0.92756 0.34067 0.0
C741 C 0.44255 0.92989 0.34437 0.0
C742 C 0.37445 0.96013 0.33066 0.0
C743 C 0.40266 0.99509 0.32394 0.0
C744 C 0.45062 0.99815 0.32787 0.0
C745 C 0.4699 0.96576 0.3382 0.0
C746 C 0.32293 0.95661 0.32704 0.0
C747 C 0.48191 0.03459 0.32074 0.0
H748 H 0.36449 0.0385 0.27305 0.0
H749 H 0.33816 0.13799 0.31046 0.0
H750 H 0.43807 0.96592 0.29357 0.0
H751 H 0.38176 0.94019 0.29602 0.0
H752 H 0.39733 0.96502 0.27741 0.0
H753 H 0.3462 0.11928 0.33696 0.0
H754 H 0.34663 0.05807 0.34171 0.0
H755 H 0.40058 0.08846 0.33928 0.0
H756 H 0.37362 0.89999 0.34552 0.0
H757 H 0.50686 0.96735 0.34092 0.0
H758 H 0.31787 0.94822 0.31439 0.0
H759 H 0.30556 0.99065 0.32946 0.0
H760 H 0.30535 0.92929 0.33402 0.0
H761 H 0.4826 0.02987 0.30778 0.0
H762 H 0.51829 0.03267 0.32522 0.0
H763 H 0.46801 0.07011 0.32329 0.0
C764 C 0.81394 0.02276 0.54886 0.0
C765 C 0.82513 0.04182 0.53428 0.0
C766 C 0.77729 0.04124 0.55796 0.0
C767 C 0.75135 0.0796 0.55231 0.0
C768 C 0.75888 0.09508 0.53681 0.0
C769 C 0.79605 0.07627 0.52801 0.0
C770 C 0.77021 0.0234 0.57437 0.0
C771 C 0.73105 0.13492 0.53016 0.0
C772 C 0.65905 0.13318 0.5796 0.0
C773 C 0.68577 0.16725 0.58751 0.0
C774 C 0.67918 0.10486 0.56767 0.0
C775 C 0.72695 0.11082 0.56378 0.0
C776 C 0.75338 0.14616 0.57143 0.0
C777 C 0.73248 0.17384 0.58308 0.0
C778 C 0.64975 0.06789 0.55964 0.0
C779 C 0.80438 0.15422 0.56765 0.0
H780 H 0.83613 0.99596 0.55375 0.0
H781 H 0.80385 0.09021 0.51655 0.0
H782 H 0.7862 0.0483 0.58294 0.0
H783 H 0.7325 0.02088 0.57718 0.0
H784 H 0.78659 0.98857 0.57593 0.0
H785 H 0.7334 0.13557 0.51714 0.0
H786 H 0.69379 0.13249 0.53362 0.0
H787 H 0.74488 0.16852 0.53491 0.0
H788 H 0.62289 0.12802 0.58291 0.0
H789 H 0.75337 0.2006 0.58887 0.0
H790 H 0.65788 0.03335 0.5647 0.0
H791 H 0.65751 0.06571 0.54688 0.0
H792 H 0.61184 0.07472 0.56126 0.0
H793 H 0.82486 0.12217 0.57002 0.0
H794 H 0.81969 0.18356 0.57463 0.0
H795 H 0.80853 0.1621 0.55502 0.0
C796 C 0.807 0.95005 0.28632 0.0
C797 C 0.82394 0.9891 0.29475 0.0
C798 C 0.78254 0.91446 0.29393 0.0
C799 C 0.77516 0.91801 0.31033 0.0
C800 C 0.79648 0.95466 0.31908 0.0
C801 C 0.8203 0.98993 0.31119 0.0
C802 C 0.76103 0.87548 0.28422 0.0
C803 C 0.79008 0.95936 0.33665 0.0
C804 C 0.65861 0.88875 0.32803 0.0
C805 C 0.66916 0.84912 0.33677 0.0
C806 C 0.69216 0.90944 0.3185 0.0
C807 C 0.73774 0.89033 0.31784 0.0
C808 C 0.74784 0.84846 0.32583 0.0
C809 C 0.71315 0.82807 0.3352 0.0
C810 C 0.67949 0.95359 0.30996 0.0
C811 C 0.79592 0.82693 0.32535 0.0
H812 H 0.81083 0.9484 0.27366 0.0
H813 H 0.833 0.01987 0.31787 0.0
H814 H 0.7637 0.84164 0.29033 0.0
H815 H 0.72339 0.88296 0.28243 0.0
H816 H 0.77786 0.87193 0.2725 0.0
H817 H 0.81476 0.98504 0.34198 0.0
H818 H 0.75394 0.97124 0.33923 0.0
H819 H 0.79512 0.92517 0.34235 0.0
H820 H 0.62427 0.90455 0.32903 0.0
H821 H 0.7213 0.79735 0.34195 0.0
H822 H 0.68973 0.95062 0.29742 0.0
H823 H 0.69877 0.98366 0.3152 0.0
H824 H 0.64151 0.96138 0.31059 0.0
H825 H 0.81131 0.82886 0.31343 0.0
H826 H 0.7953 0.78983 0.329 0.0
H827 H 0.81918 0.84661 0.33352 0.0
C828 C 0.81163 0.89025 0.0389 0.0
C829 C 0.80946 0.93678 0.04441 0.0
C830 C 0.84377 0.85854 0.04514 0.0
C831 C 0.87328 0.87327 0.05758 0.0
C832 C 0.87082 0.91995 0.06335 0.0
C833 C 0.8395 0.95124 0.05654 0.0
C834 C 0.84547 0.80934 0.03852 0.0
C835 C 0.9016 0.93708 0.07667 0.0
C836 C 0.93379 0.79663 0.08689 0.0
C837 C 0.98035 0.80374 0.08259 0.0
C838 C 0.89743 0.81537 0.07791 0.0
C839 C 0.90839 0.84124 0.06436 0.0
C840 C 0.95511 0.84344 0.05903 0.0
C841 C 0.99072 0.82524 0.06837 0.0
C842 C 0.84794 0.8116 0.08379 0.0
C843 C 0.96792 0.86882 0.04425 0.0
H844 H 0.78786 0.87828 0.02978 0.0
H845 H 0.83881 0.98723 0.0607 0.0
H846 H 0.82559 0.78602 0.04634 0.0
H847 H 0.82952 0.80695 0.02664 0.0
H848 H 0.88189 0.79622 0.03779 0.0
H849 H 0.89332 0.97356 0.08039 0.0
H850 H 0.89757 0.91416 0.08697 0.0
H851 H 0.93877 0.93558 0.07303 0.0
H852 H 0.92599 0.78012 0.09795 0.0
H853 H 0.0269 0.83021 0.06503 0.0
H854 H 0.82397 0.8021 0.07402 0.0
H855 H 0.83656 0.84603 0.08863 0.0
H856 H 0.84455 0.7852 0.09314 0.0
H857 H 0.94328 0.8597 0.03461 0.0
H858 H 0.00403 0.86046 0.04033 0.0
H859 H 0.96549 0.9071 0.04643 0.0
C860 C 0.97805 0.01079 0.7788 0.0
C861 C 0.9439 0.97703 0.78173 0.0
C862 C 0.98797 0.04586 0.79002 0.0
C863 C 0.96376 0.04633 0.80451 0.0
C864 C 0.92993 0.01172 0.80761 0.0
C865 C 0.92023 0.97759 0.79613 0.0
C866 C 0.02355 0.08295 0.78628 0.0
C867 C 0.90399 0.01079 0.82305 0.0
C868 C 0.01703 0.11323 0.83885 0.0
C869 C 0.99045 0.15433 0.83892 0.0
C870 C 0.00833 0.07739 0.82781 0.0
C871 C 0.97311 0.08355 0.81637 0.0
C872 C 0.94625 0.12504 0.81637 0.0
C873 C 0.95499 0.1598 0.82775 0.0
C874 C 0.03693 0.03311 0.82833 0.0
C875 C 0.90839 0.13276 0.80433 0.0
H876 H 0.99621 0.0103 0.76763 0.0
H877 H 0.89436 0.95093 0.79846 0.0
H878 H 0.00672 0.11789 0.78657 0.0
H879 H 0.05145 0.08352 0.79533 0.0
H880 H 0.03971 0.0773 0.77455 0.0
H881 H 0.87946 0.98082 0.82371 0.0
H882 H 0.92918 0.0086 0.83291 0.0
H883 H 0.88388 0.04364 0.82475 0.0
H884 H 0.04402 0.10876 0.8476 0.0
H885 H 0.9346 0.19174 0.8277 0.0
H886 H 0.06153 0.03229 0.81827 0.0
H887 H 0.01428 0.0018 0.8272 0.0
H888 H 0.05718 0.0306 0.8394 0.0
H889 H 0.92329 0.1302 0.79232 0.0
H890 H 0.89122 0.16739 0.80581 0.0
H891 H 0.88138 0.10517 0.80523 0.0
C892 C 0.80083 0.94652 0.45914 0.0
C893 C 0.83919 0.91584 0.45944 0.0
C894 C 0.76252 0.93786 0.44921 0.0
C895 C 0.76227 0.89727 0.43951 0.0
C896 C 0.7996 0.86487 0.4404 0.0
C897 C 0.83771 0.87474 0.45024 0.0
C898 C 0.72343 0.9732 0.44858 0.0
C899 C 0.80043 0.82071 0.4304 0.0
C900 C 0.65857 0.8459 0.41775 0.0
C901 C 0.67104 0.85582 0.40227 0.0
C902 C 0.68582 0.8626 0.43038 0.0
C903 C 0.72572 0.89025 0.4273 0.0
C904 C 0.7348 0.90484 0.41179 0.0
C905 C 0.70759 0.88696 0.39942 0.0
C906 C 0.67488 0.84628 0.44672 0.0
C907 C 0.77626 0.93522 0.40801 0.0
H908 H 0.80108 0.97785 0.46647 0.0
H909 H 0.86722 0.85102 0.45021 0.0
H910 H 0.72471 0.99147 0.43719 0.0
H911 H 0.689 0.95561 0.44926 0.0
H912 H 0.72588 -0.00024 0.45821 0.0
H913 H 0.82955 0.79706 0.43363 0.0
H914 H 0.76706 0.80141 0.43158 0.0
H915 H 0.8044 0.82982 0.41786 0.0
H916 H 0.63062 0.82125 0.41991 0.0
H917 H 0.71718 0.8944 0.3874 0.0
H918 H 0.6807 0.8746 0.45556 0.0
H919 H 0.69854 0.81695 0.44965 0.0
H920 H 0.63828 0.83379 0.44768 0.0
H921 H 0.77907 0.96483 0.41654 0.0
H922 H 0.77408 0.9494 0.39597 0.0
H923 H 0.80876 0.91427 0.40888 0.0
C924 C 0.89463 0.00707 0.1965 0.0
C925 C 0.92785 0.01691 0.20826 0.0
C926 C 0.9025 0.97236 0.18503 0.0
C927 C 0.94366 0.94524 0.18569 0.0
C928 C 0.97649 0.95334 0.19785 0.0
C929 C 0.96864 0.98965 0.20883 0.0
C930 C 0.86686 0.96493 0.17214 0.0
C931 C 0.02011 0.92391 0.19915 0.0
C932 C 0.94248 0.82759 0.16471 0.0
C933 C 0.96977 0.83655 0.15146 0.0
C934 C 0.93396 0.86262 0.17601 0.0
C935 C 0.95208 0.90797 0.17372 0.0
C936 C 0.97843 0.91761 0.16008 0.0
C937 C 0.98759 0.88143 0.14917 0.0
C938 C 0.90686 0.85074 0.19063 0.0
C939 C 0.99671 0.96608 0.15703 0.0
H940 H 0.86222 0.02655 0.19619 0.0
H941 H 0.99486 0.99696 0.21769 0.0
H942 H 0.88382 0.96805 0.16049 0.0
H943 H 0.85214 0.92918 0.17274 0.0
H944 H 0.83769 0.99048 0.1729 0.0
H945 H 0.03849 0.9299 0.21048 0.0
H946 H 0.01153 0.88619 0.19803 0.0
H947 H 0.04428 0.93229 0.18942 0.0
H948 H 0.92932 0.79256 0.16654 0.0
H949 H 0.00824 0.88827 0.13881 0.0
H950 H 0.87565 0.87351 0.19176 0.0
H951 H 0.92886 0.85728 0.20117 0.0
H952 H 0.89529 0.81369 0.19061 0.0
H953 H 0.96735 0.9914 0.15696 0.0
H954 H 0.01548 0.96808 0.14565 0.0
H955 H 0.02071 0.97717 0.16661 0.0
C956 C 0.84896 0.15108 0.968 0.0
C957 C 0.82498 0.1084 0.96704 0.0
C958 C 0.88502 0.16111 0.95745 0.0
C959 C 0.89653 0.12805 0.94552 0.0
C960 C 0.87339 0.08444 0.94477 0.0
C961 C 0.83822 0.07496 0.95566 0.0
C962 C 0.90948 0.20776 0.95873 0.0
C963 C 0.88474 0.04839 0.93217 0.0
C964 C 0.95078 0.17392 0.90829 0.0
C965 C 0.99742 0.1607 0.91022 0.0
C966 C 0.91734 0.16287 0.91965 0.0
C967 C 0.93149 0.13969 0.93342 0.0
C968 C 0.9788 0.12713 0.93553 0.0
C969 C 0.01116 0.13717 0.92375 0.0
C970 C 0.86681 0.17521 0.91685 0.0
C971 C 0.99524 0.10354 0.95027 0.0
H972 H 0.8386 0.17728 0.97666 0.0
H973 H 0.82045 0.04153 0.95508 0.0
H974 H 0.94754 0.20402 0.95663 0.0
H975 H 0.8954 0.23142 0.94969 0.0
H976 H 0.90424 0.22446 0.97046 0.0
H977 H 0.86408 0.01582 0.93343 0.0
H978 H 0.87758 0.063 0.92042 0.0
H979 H 0.92239 0.03935 0.93254 0.0
H980 H 0.94032 0.19179 0.89773 0.0
H981 H 0.0475 0.12751 0.92526 0.0
H982 H 0.85435 0.19924 0.92631 0.0
H983 H 0.84494 0.14326 0.91729 0.0
H984 H 0.8613 0.1919 0.90532 0.0
H985 H 0.98656 0.12567 0.9607 0.0
H986 H 0.03347 0.09692 0.95019 0.0
H987 H 0.97689 0.06973 0.95165 0.0
C988 C 0.77355 0.02302 0.70651 0.0
C989 C 0.81523 0.00151 0.70158 0.0
C990 C 0.75426 0.06016 0.69816 0.0
C991 C 0.77762 0.07668 0.68471 0.0
C992 C 0.82272 0.05948 0.681 0.0
C993 C 0.84081 0.02162 0.68936 0.0
C994 C 0.70637 0.07787 0.70268 0.0
C995 C 0.84966 0.07767 0.66717 0.0
C996 C 0.69644 0.09462 0.65052 0.0
C997 C 0.6888 0.14311 0.6509 0.0
C998 C 0.72614 0.07326 0.6612 0.0
C999 C 0.75008 0.10102 0.67249 0.0
C1000 C 0.74483 0.15034 0.67248 0.0
C1001 C 0.71373 0.17089 0.66175 0.0
C1002 C 0.7303 0.02049 0.66073 0.0
C1003 C 0.77062 0.18132 0.68405 0.0
H1004 H 0.7545 0.009 0.71637 0.0
H1005 H 0.87337 0.00582 0.68554 0.0
H1006 H 0.705 0.11654 0.70219 0.0
H1007 H 0.68026 0.06381 0.6942 0.0
H1008 H 0.69616 0.06693 0.71465 0.0
H1009 H 0.88747 0.06941 0.66809 0.0
H1010 H 0.83612 0.0612 0.65619 0.0
H1011 H 0.84531 0.11607 0.66621 0.0
H1012 H 0.678 0.07263 0.6421 0.0
H1013 H 0.70836 0.20841 0.66207 0.0
H1014 H 0.71877 0.00597 0.67209 0.0
H1015 H 0.76722 0.01003 0.65891 0.0
H1016 H 0.709 0.00414 0.65122 0.0
H1017 H 0.75082 0.18317 0.69524 0.0
H1018 H 0.77415 0.21747 0.67963 0.0
H1019 H 0.8059 0.16733 0.68663 0.0
C1020 C 0.77698 0.36672 0.97275 0.0
C1021 C 0.74944 0.40273 0.96668 0.0
C1022 C 0.81716 0.35093 0.96484 0.0
C1023 C 0.82961 0.37116 0.95038 0.0
C1024 C 0.80301 0.40892 0.94455 0.0
C1025 C 0.76338 0.42436 0.95281 0.0
C1026 C 0.84453 0.31102 0.97163 0.0
C1027 C 0.81472 0.43119 0.92909 0.0
C1028 C 0.94404 0.35393 0.92848 0.0
C1029 C 0.93054 0.32176 0.91671 0.0
C1030 C 0.91258 0.36795 0.94035 0.0
C1031 C 0.86659 0.34979 0.94029 0.0
C1032 C 0.8541 0.31466 0.92919 0.0
C1033 C 0.88626 0.30093 0.91763 0.0
C1034 C 0.92763 0.40413 0.9524 0.0
C1035 C 0.80567 0.29373 0.92889 0.0
H1036 H 0.7667 0.35034 0.98361 0.0
H1037 H 0.74203 0.45198 0.94801 0.0
H1038 H 0.83107 0.27762 0.96663 0.0
H1039 H 0.88224 0.31353 0.96879 0.0
H1040 H 0.84049 0.30982 0.9846 0.0
H1041 H 0.79254 0.46218 0.92674 0.0
H1042 H 0.85186 0.44213 0.92893 0.0
H1043 H 0.80973 0.40528 0.91938 0.0
H1044 H 0.97835 0.36983 0.92802 0.0
H1045 H 0.8754 0.2759 0.90868 0.0
H1046 H 0.91691 0.39345 0.96434 0.0
H1047 H 0.91017 0.43788 0.94998 0.0
H1048 H 0.96601 0.40974 0.95229 0.0
H1049 H 0.79831 0.27681 0.94024 0.0
H1050 H 0.80125 0.26731 0.91929 0.0
H1051 H 0.77921 0.32163 0.92731 0.0
C1052 C 0.85326 0.40945 0.20129 0.0
C1053 C 0.87963 0.41531 0.21507 0.0
C1054 C 0.85814 0.44033 0.18881 0.0
C1055 C 0.89017 0.47774 0.1902 0.0
C1056 C 0.91492 0.48532 0.20441 0.0
C1057 C 0.90938 0.45389 0.21669 0.0
C1058 C 0.83114 0.43125 0.17384 0.0
C1059 C 0.9491 0.5252 0.20635 0.0
C1060 C 0.95347 0.52276 0.15464 0.0
C1061 C 0.93163 0.56609 0.15254 0.0
C1062 C 0.9388 0.49269 0.16644 0.0
C1063 C 0.9014 0.50631 0.17637 0.0
C1064 C 0.87741 0.54866 0.17376 0.0
C1065 C 0.89278 0.57809 0.16182 0.0
C1066 C 0.96491 0.44743 0.1688 0.0
C1067 C 0.83718 0.56405 0.18408 0.0
H1068 H 0.83056 0.37934 0.19994 0.0
H1069 H 0.92931 0.45872 0.22742 0.0
H1070 H 0.81484 0.46395 0.16965 0.0
H1071 H 0.85539 0.41868 0.16452 0.0
H1072 H 0.80341 0.40457 0.17536 0.0
H1073 H 0.96243 0.52856 0.21857 0.0
H1074 H 0.97925 0.51952 0.19835 0.0
H1075 H 0.93242 0.55867 0.20309 0.0
H1076 H 0.98319 0.51296 0.14742 0.0
H1077 H 0.87553 0.61143 0.16026 0.0
H1078 H 0.94015 0.41769 0.16923 0.0
H1079 H 0.98369 0.44892 0.1802 0.0
H1080 H 0.99076 0.44033 0.15932 0.0
H1081 H 0.81157 0.53528 0.18533 0.0
H1082 H 0.81887 0.59509 0.17938 0.0
H1083 H 0.85039 0.57299 0.196 0.0
C1084 C 0.89507 0.60133 0.45774 0.0
C1085 C 0.93846 0.58218 0.45358 0.0
C1086 C 0.86322 0.61493 0.44617 0.0
C1087 C 0.87514 0.60898 0.43012 0.0
C1088 C 0.91907 0.5902 0.42585 0.0
C1089 C 0.9503 0.57724 0.43764 0.0
C1090 C 0.81663 0.6351 0.45111 0.0
C1091 C 0.93288 0.58338 0.40885 0.0
C1092 C 0.77408 0.60022 0.40165 0.0
C1093 C 0.77236 0.64571 0.39581 0.0
C1094 C 0.80824 0.58745 0.41252 0.0
C1095 C 0.84103 0.62118 0.41779 0.0
C1096 C 0.84041 0.66676 0.4116 0.0
C1097 C 0.80619 0.67841 0.40057 0.0
C1098 C 0.80835 0.5383 0.41873 0.0
C1099 C 0.87473 0.70366 0.41705 0.0
H1100 H 0.88572 0.60497 0.47003 0.0
H1101 H 0.98426 0.56343 0.43437 0.0
H1102 H 0.81157 0.6699 0.44581 0.0
H1103 H 0.78802 0.6122 0.44675 0.0
H1104 H 0.81344 0.63891 0.46407 0.0
H1105 H 0.96868 0.56883 0.40753 0.0
H1106 H 0.90796 0.55929 0.40288 0.0
H1107 H 0.93122 0.61719 0.40269 0.0
H1108 H 0.7481 0.57479 0.39793 0.0
H1109 H 0.80471 0.71376 0.39621 0.0
H1110 H 0.80095 0.53918 0.43152 0.0
H1111 H 0.84331 0.52219 0.4171 0.0
H1112 H 0.78195 0.51565 0.41282 0.0
H1113 H 0.86994 0.71084 0.4298 0.0
H1114 H 0.8705 0.73696 0.41068 0.0
H1115 H 0.91103 0.69096 0.41538 0.0
C1116 C 0.74303 0.53979 0.72009 0.0
C1117 C 0.77089 0.56509 0.7097 0.0
C1118 C 0.72124 0.49798 0.7152 0.0
C1119 C 0.72618 0.48235 0.69941 0.0
C1120 C 0.75457 0.50793 0.68895 0.0
C1121 C 0.77707 0.54862 0.6943 0.0
C1122 C 0.69242 0.47136 0.72687 0.0
C1123 C 0.7601 0.49314 0.67192 0.0
C1124 C 0.70474 0.36371 0.68094 0.0
C1125 C 0.66368 0.37262 0.6725 0.0
C1126 C 0.723 0.3974 0.69144 0.0
C1127 C 0.70005 0.44102 0.69326 0.0
C1128 C 0.65558 0.44751 0.6864 0.0
C1129 C 0.63754 0.41283 0.67629 0.0
C1130 C 0.76914 0.38816 0.69935 0.0
C1131 C 0.62945 0.49312 0.68828 0.0
H1132 H 0.73859 0.55257 0.73205 0.0
H1133 H 0.79846 0.56848 0.6863 0.0
H1134 H 0.65527 0.48178 0.72578 0.0
H1135 H 0.69473 0.43306 0.72472 0.0
H1136 H 0.70365 0.47922 0.73912 0.0
H1137 H 0.7828 0.51736 0.6653 0.0
H1138 H 0.77545 0.45758 0.67111 0.0
H1139 H 0.72539 0.49173 0.66613 0.0
H1140 H 0.72468 0.33224 0.67842 0.0
H1141 H 0.60498 0.41942 0.67022 0.0
H1142 H 0.76901 0.40215 0.71159 0.0
H1143 H 0.79741 0.40613 0.69291 0.0
H1144 H 0.77735 0.35021 0.69952 0.0
H1145 H 0.64994 0.52173 0.68297 0.0
H1146 H 0.62483 0.50194 0.70091 0.0
H1147 H 0.59454 0.49199 0.68261 0.0
C1148 C 0.78941 0.54642 0.02925 0.0
C1149 C 0.74809 0.54664 0.03804 0.0
C1150 C 0.83097 0.56453 0.03567 0.0
C1151 C 0.8311 0.58186 0.05134 0.0
C1152 C 0.78926 0.58181 0.06024 0.0
C1153 C 0.74811 0.56469 0.05339 0.0
C1154 C 0.87444 0.5658 0.02567 0.0
C1155 C 0.78797 0.59948 0.07705 0.0
C1156 C 0.93682 0.58604 0.07773 0.0
C1157 C 0.94148 0.63437 0.08017 0.0
C1158 C 0.90319 0.56805 0.06731 0.0
C1159 C 0.87475 0.59928 0.05881 0.0
C1160 C 0.88349 0.64795 0.05983 0.0
C1161 C 0.9162 0.66502 0.07075 0.0
C1162 C 0.89463 0.51597 0.06679 0.0
C1163 C 0.85559 0.68254 0.05051 0.0
H1164 H 0.78892 0.5328 0.01729 0.0
H1165 H 0.71594 0.56469 0.06011 0.0
H1166 H 0.88714 0.60233 0.02488 0.0
H1167 H 0.90267 0.54518 0.03118 0.0
H1168 H 0.86827 0.55177 0.01361 0.0
H1169 H 0.75304 0.59513 0.08252 0.0
H1170 H 0.81409 0.58052 0.08417 0.0
H1171 H 0.79726 0.63711 0.07755 0.0
H1172 H 0.95619 0.56224 0.08508 0.0
H1173 H 0.92014 0.70243 0.0725 0.0
H1174 H 0.88976 0.50318 0.05454 0.0
H1175 H 0.86209 0.50819 0.07332 0.0
H1176 H 0.92376 0.4962 0.07218 0.0
H1177 H 0.84411 0.66753 0.03905 0.0
H1178 H 0.87645 0.71448 0.04836 0.0
H1179 H 0.8241 0.69301 0.0573 0.0
C1180 C 0.73851 0.4389 0.2837 0.0
C1181 C 0.77137 0.41689 0.29331 0.0
C1182 C 0.71674 0.48073 0.28857 0.0
C1183 C 0.72717 0.50003 0.30358 0.0
C1184 C 0.76072 0.47801 0.31323 0.0
C1185 C 0.78278 0.437 0.30789 0.0
C1186 C 0.68195 0.50344 0.27778 0.0
C1187 C 0.77223 0.49688 0.32946 0.0
C1188 C 0.70294 0.62241 0.31903 0.0
C1189 C 0.66504 0.61406 0.32904 0.0
C1190 C 0.72096 0.58648 0.30932 0.0
C1191 C 0.7011 0.54122 0.30991 0.0
C1192 C 0.65991 0.53407 0.3187 0.0
C1193 C 0.64193 0.57081 0.32794 0.0
C1194 C 0.76356 0.59593 0.29946 0.0
C1195 C 0.63747 0.48642 0.31957 0.0
H1196 H 0.73008 0.42351 0.27233 0.0
H1197 H 0.80805 0.41979 0.31532 0.0
H1198 H 0.64611 0.49349 0.28132 0.0
H1199 H 0.68444 0.54212 0.27849 0.0
H1200 H 0.68711 0.49192 0.26538 0.0
H1201 H 0.79931 0.47574 0.33542 0.0
H1202 H 0.78489 0.53341 0.32874 0.0
H1203 H 0.74028 0.49732 0.33684 0.0
H1204 H 0.72057 0.65591 0.31954 0.0
H1205 H 0.61191 0.56423 0.33533 0.0
H1206 H 0.76016 0.57897 0.28769 0.0
H1207 H 0.79482 0.58094 0.3052 0.0
H1208 H 0.76942 0.63399 0.29797 0.0
H1209 H 0.62912 0.47301 0.30761 0.0
H1210 H 0.60493 0.48695 0.32665 0.0
H1211 H 0.6622 0.46141 0.32493 0.0
C1212 C 0.91215 0.5073 0.56321 0.0
C1213 C 0.92841 0.47733 0.55116 0.0
C1214 C 0.87977 0.49184 0.57432 0.0
C1215 C 0.86207 0.44582 0.57304 0.0
C1216 C 0.87725 0.41577 0.5607 0.0
C1217 C 0.91073 0.43164 0.55007 0.0
C1218 C 0.86485 0.52454 0.58749 0.0
C1219 C 0.85826 0.36674 0.55876 0.0
C1220 C 0.80678 0.38338 0.60725 0.0
C1221 C 0.75922 0.38959 0.60407 0.0
C1222 C 0.84086 0.40352 0.59765 0.0
C1223 C 0.82681 0.42913 0.58437 0.0
C1224 C 0.77884 0.43629 0.58132 0.0
C1225 C 0.74562 0.41693 0.59134 0.0
C1226 C 0.89182 0.39635 0.60148 0.0
C1227 C 0.76251 0.46235 0.56704 0.0
H1228 H 0.92486 0.54291 0.56403 0.0
H1229 H 0.92367 0.40774 0.54108 0.0
H1230 H 0.82674 0.53113 0.5868 0.0
H1231 H 0.87174 0.50819 0.59899 0.0
H1232 H 0.88335 0.55862 0.58717 0.0
H1233 H 0.87228 0.34853 0.54815 0.0
H1234 H 0.86721 0.34587 0.5692 0.0
H1235 H 0.8196 0.36773 0.5579 0.0
H1236 H 0.81731 0.36249 0.61715 0.0
H1237 H 0.70884 0.42142 0.58874 0.0
H1238 H 0.91052 0.43032 0.60153 0.0
H1239 H 0.90824 0.37377 0.59231 0.0
H1240 H 0.89683 0.37974 0.61306 0.0
H1241 H 0.77886 0.49743 0.5667 0.0
H1242 H 0.72396 0.46667 0.56677 0.0
H1243 H 0.77347 0.44307 0.55623 0.0
C1244 C 0.93805 0.55415 0.78626 0.0
C1245 C 0.90551 0.59061 0.7876 0.0
C1246 C 0.94418 0.52243 0.79846 0.0
C1247 C 0.917 0.52731 0.81229 0.0
C1248 C 0.88384 0.56379 0.81366 0.0
C1249 C 0.87855 0.59507 0.8013 0.0
C1250 C 0.97994 0.48388 0.79659 0.0
C1251 C 0.85446 0.57014 0.82827 0.0
C1252 C 0.90908 0.41879 0.83698 0.0
C1253 C 0.94496 0.42669 0.84794 0.0
C1254 C 0.89828 0.45213 0.82566 0.0
C1255 C 0.92385 0.49438 0.82535 0.0
C1256 C 0.95815 0.50379 0.83693 0.0
C1257 C 0.96827 0.46984 0.84811 0.0
C1258 C 0.86121 0.44109 0.81354 0.0
C1259 C 0.98588 0.54868 0.83703 0.0
H1260 H 0.95863 0.55032 0.77564 0.0
H1261 H 0.85391 0.62369 0.80251 0.0
H1262 H 0.00667 0.48705 0.80598 0.0
H1263 H 0.96289 0.44933 0.79783 0.0
H1264 H 0.99786 0.48466 0.78503 0.0
H1265 H 0.82937 0.59958 0.82731 0.0
H1266 H 0.83462 0.53769 0.8306 0.0
H1267 H 0.87735 0.57684 0.83858 0.0
H1268 H 0.89067 0.38572 0.83678 0.0
H1269 H 0.99588 0.47647 0.85657 0.0
H1270 H 0.87772 0.43676 0.80182 0.0
H1271 H 0.83594 0.47037 0.81277 0.0
H1272 H 0.84177 0.40859 0.81622 0.0
H1273 H 0.00868 0.54947 0.8265 0.0
H1274 H 0.00818 0.55249 0.84765 0.0
H1275 H 0.96216 0.57927 0.83646 0.0
C1276 C 0.29389 0.49377 0.05342 0.0
C1277 C 0.32135 0.5259 0.04525 0.0
C1278 C 0.25735 0.50904 0.06326 0.0
C1279 C 0.24868 0.55752 0.0651 0.0
C1280 C 0.27478 0.58985 0.05625 0.0
C1281 C 0.3107 0.57363 0.04642 0.0
C1282 C 0.22974 0.47348 0.07227 0.0
C1283 C 0.26686 0.64193 0.05792 0.0
C1284 C 0.14581 0.61655 0.08521 0.0
C1285 C 0.16691 0.63151 0.09926 0.0
C1286 C 0.17063 0.58854 0.07433 0.0
C1287 C 0.21728 0.57549 0.07772 0.0
C1288 C 0.23665 0.58656 0.09261 0.0
C1289 C 0.21119 0.61441 0.10319 0.0
C1290 C 0.14841 0.57645 0.05873 0.0
C1291 C 0.28602 0.57293 0.09682 0.0
H1292 H 0.30157 0.45675 0.05235 0.0
H1293 H 0.33205 0.59865 0.04026 0.0
H1294 H 0.24137 0.47385 0.0847 0.0
H1295 H 0.19198 0.48218 0.07218 0.0
H1296 H 0.23456 0.43755 0.06739 0.0
H1297 H 0.28743 0.66204 0.04928 0.0
H1298 H 0.22935 0.65031 0.05635 0.0
H1299 H 0.277 0.65386 0.06991 0.0
H1300 H 0.11142 0.6295 0.08219 0.0
H1301 H 0.22718 0.62519 0.11422 0.0
H1302 H 0.15739 0.54025 0.05495 0.0
H1303 H 0.16186 0.60042 0.04968 0.0
H1304 H 0.10979 0.58002 0.05919 0.0
H1305 H 0.29236 0.5355 0.094 0.0
H1306 H 0.29371 0.57927 0.10947 0.0
H1307 H 0.31096 0.59366 0.0898 0.0
C1308 C 0.27399 0.46561 0.78867 0.0
C1309 C 0.23858 0.49221 0.78179 0.0
C1310 C 0.26305 0.42847 0.79859 0.0
C1311 C 0.21569 0.41882 0.80198 0.0
C1312 C 0.17988 0.44361 0.79418 0.0
C1313 C 0.19183 0.47982 0.78407 0.0
C1314 C 0.30216 0.4019 0.80628 0.0
C1315 C 0.12887 0.43481 0.79758 0.0
C1316 C 0.16825 0.31991 0.8265 0.0
C1317 C 0.16031 0.34383 0.84074 0.0
C1318 C 0.18987 0.34267 0.8139 0.0
C1319 C 0.20329 0.39014 0.81573 0.0
C1320 C 0.19911 0.41271 0.83057 0.0
C1321 C 0.17796 0.38914 0.8429 0.0
C1322 C 0.19513 0.31702 0.79838 0.0
C1323 C 0.21318 0.4632 0.83313 0.0
H1324 H 0.31021 0.47478 0.78668 0.0
H1325 H 0.16447 0.50046 0.77876 0.0
H1326 H 0.30693 0.4151 0.8185 0.0
H1327 H 0.29376 0.36411 0.80684 0.0
H1328 H 0.33571 0.40617 0.79991 0.0
H1329 H 0.1055 0.45339 0.78934 0.0
H1330 H 0.12107 0.39689 0.79683 0.0
H1331 H 0.12065 0.44695 0.80971 0.0
H1332 H 0.15487 0.28473 0.82485 0.0
H1333 H 0.17275 0.40734 0.85404 0.0
H1334 H 0.22855 0.32623 0.79262 0.0
H1335 H 0.16633 0.32729 0.79044 0.0
H1336 H 0.19367 0.27852 0.79983 0.0
H1337 H 0.24952 0.46887 0.82911 0.0
H1338 H 0.21067 0.47438 0.84567 0.0
H1339 H 0.19013 0.48608 0.82613 0.0
C1340 C 0.30776 0.39842 0.5559 0.0
C1341 C 0.32168 0.42567 0.54324 0.0
C1342 C 0.34089 0.37611 0.56525 0.0
C1343 C 0.3889 0.38237 0.56202 0.0
C1344 C 0.40302 0.40848 0.54885 0.0
C1345 C 0.36901 0.42958 0.53949 0.0
C1346 C 0.32452 0.34792 0.57902 0.0
C1347 C 0.45398 0.41622 0.54517 0.0
C1348 C 0.47123 0.37995 0.59663 0.0
C1349 C 0.49206 0.33589 0.59478 0.0
C1350 C 0.43734 0.39523 0.58608 0.0
C1351 C 0.42417 0.36578 0.57333 0.0
C1352 C 0.44462 0.321 0.57146 0.0
C1353 C 0.47826 0.30639 0.58231 0.0
C1354 C 0.41618 0.44325 0.58844 0.0
C1355 C 0.43137 0.289 0.55789 0.0
H1356 H 0.27091 0.39521 0.55862 0.0
H1357 H 0.37941 0.45077 0.52965 0.0
H1358 H 0.34477 0.315 0.57991 0.0
H1359 H 0.33026 0.36833 0.59005 0.0
H1360 H 0.2868 0.33919 0.57816 0.0
H1361 H 0.45901 0.43357 0.53372 0.0
H1362 H 0.46991 0.43848 0.55453 0.0
H1363 H 0.47313 0.38251 0.54494 0.0
H1364 H 0.4817 0.40272 0.60631 0.0
H1365 H 0.49488 0.27262 0.58072 0.0
H1366 H 0.37778 0.44036 0.5898 0.0
H1367 H 0.42284 0.46481 0.57797 0.0
H1368 H 0.43049 0.46183 0.59894 0.0
H1369 H 0.39384 0.27976 0.55874 0.0
H1370 H 0.45238 0.25636 0.5576 0.0
H1371 H 0.43622 0.30708 0.54659 0.0
C1372 C 0.46793 0.49132 0.28427 0.0
C1373 C 0.42017 0.48113 0.28576 0.0
C1374 C 0.48896 0.52614 0.29368 0.0
C1375 C 0.46168 0.55058 0.30497 0.0
C1376 C 0.41365 0.54031 0.30658 0.0
C1377 C 0.39336 0.50635 0.29678 0.0
C1378 C 0.54009 0.53706 0.29146 0.0
C1379 C 0.38354 0.56522 0.31867 0.0
C1380 C 0.51331 0.61438 0.34013 0.0
C1381 C 0.50483 0.66069 0.33604 0.0
C1382 C 0.50163 0.57768 0.32974 0.0
C1383 C 0.48239 0.58815 0.31487 0.0
C1384 C 0.47724 0.6352 0.31032 0.0
C1385 C 0.48774 0.67101 0.32112 0.0
C1386 C 0.50653 0.52799 0.33517 0.0
C1387 C 0.45831 0.64771 0.29438 0.0
H1388 H 0.48906 0.47171 0.27591 0.0
H1389 H 0.35625 0.49963 0.29776 0.0
H1390 H 0.54384 0.57294 0.28688 0.0
H1391 H 0.55871 0.53626 0.30287 0.0
H1392 H 0.55732 0.51219 0.28315 0.0
H1393 H 0.34754 0.55084 0.31909 0.0
H1394 H 0.39944 0.56236 0.3305 0.0
H1395 H 0.38129 0.60294 0.31596 0.0
H1396 H 0.52665 0.60685 0.35174 0.0
H1397 H 0.48197 0.70716 0.318 0.0
H1398 H 0.51921 0.50466 0.32556 0.0
H1399 H 0.47175 0.51498 0.33883 0.0
H1400 H 0.53071 0.52542 0.34533 0.0
H1401 H 0.47589 0.62676 0.28502 0.0
H1402 H 0.46295 0.6854 0.29187 0.0
H1403 H 0.42049 0.6395 0.29382 0.0
C1404 C 0.30629 0.3669 0.96136 0.0
C1405 C 0.31559 0.41303 0.96608 0.0
C1406 C 0.26969 0.35665 0.95094 0.0
C1407 C 0.24133 0.39346 0.94535 0.0
C1408 C 0.24807 0.43956 0.95119 0.0
C1409 C 0.28564 0.44894 0.96135 0.0
C1410 C 0.26413 0.30701 0.9449 0.0
C1411 C 0.21778 0.47946 0.94588 0.0
C1412 C 0.20731 0.36812 0.90345 0.0
C1413 C 0.16447 0.34534 0.90536 0.0
C1414 C 0.23103 0.38753 0.91632 0.0
C1415 C 0.21103 0.38458 0.93147 0.0
C1416 C 0.16525 0.36657 0.93319 0.0
C1417 C 0.14236 0.34689 0.92004 0.0
C1418 C 0.27959 0.40675 0.91387 0.0
C1419 C 0.14218 0.36427 0.94907 0.0
H1420 H 0.32959 0.3392 0.96498 0.0
H1421 H 0.29256 0.48459 0.9652 0.0
H1422 H 0.22703 0.2961 0.94541 0.0
H1423 H 0.27528 0.30481 0.93242 0.0
H1424 H 0.28539 0.28192 0.95169 0.0
H1425 H 0.22038 0.51016 0.954 0.0
H1426 H 0.22911 0.49048 0.93405 0.0
H1427 H 0.18068 0.46857 0.945 0.0
H1428 H 0.22403 0.36766 0.89202 0.0
H1429 H 0.10908 0.32946 0.92153 0.0
H1430 H 0.3056 0.38281 0.91912 0.0
H1431 H 0.28342 0.44131 0.9198 0.0
H1432 H 0.28811 0.4106 0.90123 0.0
H1433 H 0.15617 0.33387 0.95549 0.0
H1434 H 0.10374 0.36004 0.948 0.0
H1435 H 0.14971 0.39617 0.95622 0.0
C1436 C 0.36945 0.47381 0.6938 0.0
C1437 C 0.39092 0.49944 0.70599 0.0
C1438 C 0.39372 0.43892 0.68547 0.0
C1439 C 0.44012 0.42804 0.6898 0.0
C1440 C 0.46167 0.4525 0.70241 0.0
C1441 C 0.43701 0.48831 0.71025 0.0
C1442 C 0.36984 0.4142 0.67185 0.0
C1443 C 0.51067 0.44078 0.70762 0.0
C1444 C 0.476 0.30885 0.67433 0.0
C1445 C 0.50082 0.3207 0.66084 0.0
C1446 C 0.45911 0.34366 0.68462 0.0
C1447 C 0.46578 0.39121 0.6809 0.0
C1448 C 0.49255 0.40321 0.66757 0.0
C1449 C 0.51023 0.3676 0.65775 0.0
C1450 C 0.43223 0.32955 0.69903 0.0
C1451 C 0.49961 0.45347 0.663 0.0
H1452 H 0.33356 0.48114 0.69065 0.0
H1453 H 0.45428 0.50814 0.7195 0.0
H1454 H 0.39109 0.41769 0.66103 0.0
H1455 H 0.36672 0.37635 0.67424 0.0
H1456 H 0.33437 0.42831 0.66957 0.0
H1457 H 0.52373 0.46534 0.71685 0.0
H1458 H 0.51131 0.40483 0.71231 0.0
H1459 H 0.53507 0.44127 0.69751 0.0
H1460 H 0.46911 0.27236 0.67668 0.0
H1461 H 0.52891 0.3765 0.64714 0.0
H1462 H 0.39458 0.33711 0.69736 0.0
H1463 H 0.44412 0.35004 0.70946 0.0
H1464 H 0.43618 0.29173 0.70147 0.0
H1465 H 0.4662 0.46764 0.65849 0.0
H1466 H 0.52666 0.457 0.65375 0.0
H1467 H 0.50986 0.47527 0.67332 0.0
C1468 C 0.37408 0.59855 0.46495 0.0
C1469 C 0.3271 0.60163 0.46055 0.0
C1470 C 0.40931 0.61545 0.45511 0.0
C1471 C 0.39687 0.63624 0.44072 0.0
C1472 C 0.34929 0.64166 0.43669 0.0
C1473 C 0.31493 0.62391 0.44662 0.0
C1474 C 0.45976 0.60905 0.45975 0.0
C1475 C 0.33466 0.66414 0.42154 0.0
C1476 C 0.48495 0.70569 0.41746 0.0
C1477 C 0.49947 0.6722 0.40628 0.0
C1478 C 0.45235 0.69419 0.42907 0.0
C1479 C 0.43335 0.64856 0.4292 0.0
C1480 C 0.44776 0.6148 0.41787 0.0
C1481 C 0.48098 0.62695 0.40662 0.0
C1482 C 0.43845 0.7305 0.44127 0.0
C1483 C 0.42789 0.56588 0.41757 0.0
H1484 H 0.38329 0.5813 0.47576 0.0
H1485 H 0.27843 0.62688 0.44339 0.0
H1486 H 0.47633 0.58276 0.4518 0.0
H1487 H 0.47932 0.64221 0.4585 0.0
H1488 H 0.46341 0.59704 0.47203 0.0
H1489 H 0.2968 0.67265 0.42141 0.0
H1490 H 0.35476 0.69664 0.41959 0.0
H1491 H 0.34219 0.63987 0.41156 0.0
H1492 H 0.5 0.74043 0.41737 0.0
H1493 H 0.49221 0.6011 0.39795 0.0
H1494 H 0.44657 0.71776 0.45319 0.0
H1495 H 0.4002 0.73645 0.44082 0.0
H1496 H 0.45668 0.76431 0.43964 0.0
H1497 H 0.43383 0.54907 0.42905 0.0
H1498 H 0.44365 0.54352 0.40818 0.0
H1499 H 0.3896 0.56731 0.41566 0.0
C1500 C 0.28643 0.55158 0.20975 0.0
C1501 C 0.28693 0.50726 0.20241 0.0
C1502 C 0.26711 0.59036 0.20219 0.0
C1503 C 0.24744 0.58438 0.18705 0.0
C1504 C 0.25139 0.54061 0.17912 0.0
C1505 C 0.27106 0.50264 0.1869 0.0
C1506 C 0.26479 0.63674 0.21085 0.0
C1507 C 0.23108 0.53266 0.16291 0.0
C1508 C 0.13509 0.63935 0.17426 0.0
C1509 C 0.1502 0.66629 0.1617 0.0
C1510 C 0.16712 0.61633 0.18381 0.0
C1511 C 0.21545 0.62011 0.18055 0.0
C1512 C 0.23102 0.65153 0.16897 0.0
C1513 C 0.19795 0.67437 0.15957 0.0
C1514 C 0.1488 0.58367 0.19613 0.0
C1515 C 0.28222 0.65739 0.16539 0.0
H1516 H 0.29955 0.55559 0.22164 0.0
H1517 H 0.27103 0.46854 0.18116 0.0
H1518 H 0.27098 0.66609 0.20276 0.0
H1519 H 0.22945 0.6414 0.21598 0.0
H1520 H 0.29069 0.63873 0.22056 0.0
H1521 H 0.24135 0.49823 0.15775 0.0
H1522 H 0.19239 0.53408 0.16356 0.0
H1523 H 0.24258 0.56046 0.15487 0.0
H1524 H 0.098 0.63327 0.17582 0.0
H1525 H 0.2095 0.69496 0.14973 0.0
H1526 H 0.16826 0.5884 0.2073 0.0
H1527 H 0.15385 0.54693 0.19207 0.0
H1528 H 0.11102 0.58922 0.19849 0.0
H1529 H 0.30359 0.65586 0.17624 0.0
H1530 H 0.28906 0.69103 0.15948 0.0
H1531 H 0.29378 0.62859 0.15741 0.0
loop_
_geom_bond_atom_site_label_1
_geom_bond_atom_site_label_2
_geom_bond_distance
_geom_bond_site_symmetry_2
_ccdc_geom_bond_type
H0 C19 0.949 . S
H1 C20 0.950 . S
H2 C22 0.950 1_545 S
H3 C23 0.972 . S
H4 C25 0.950 . S
H5 C28 0.950 1_565 S
H6 C29 0.950 . S
H7 C31 0.951 . S
H8 C32 0.949 . S
H9 C34 0.949 . S
H10 C35 0.950 . S
H11 C37 0.950 1_565 S
H12 C38 0.948 . S
H13 C40 0.950 . S
H14 C43 0.950 1_545 S
H15 C44 0.958 . S
H16 C46 0.951 . S
H17 C47 0.949 . S
C18 C19 1.376 . S
C18 C23 1.371 1_565 S
C18 C24 1.483 . S
C19 H0 0.949 . S
C19 C18 1.376 . S
C19 C20 1.397 . S
C20 H1 0.950 . S
C20 C19 1.397 . S
C20 C21 1.391 . S
C21 C20 1.391 . S
C21 C22 1.405 . S
C22 H2 0.950 1_565 S
C22 C21 1.405 . S
C22 C23 1.361 1_565 S
C23 H3 0.972 . S
C23 C18 1.371 1_545 S
C23 C22 1.361 1_545 S
C24 C18 1.483 . S
C24 C25 1.382 1_655 S
C24 C26 1.403 1_565 S
C25 H4 0.950 . S
C25 C24 1.382 1_455 S
C25 C41 1.411 . S
C26 C24 1.403 1_545 S
C26 C27 1.489 . S
C26 C40 1.411 1_655 S
C27 C26 1.489 . S
C27 C28 1.383 . S
C27 C32 1.382 . S
C28 H5 0.950 1_545 S
C28 C27 1.383 . S
C28 C29 1.395 . S
C29 H6 0.950 . S
C29 C28 1.395 . S
C29 C30 1.288 . S
C30 C29 1.288 . S
C30 C31 1.392 . S
C31 H7 0.951 . S
C31 C30 1.392 . S
C31 C32 1.392 . S
C32 H8 0.949 . S
C32 C27 1.382 . S
C32 C31 1.392 . S
C33 C34 1.376 . S
C33 C38 1.387 1_545 S
C33 C39 1.483 . S
C34 H9 0.949 . S
C34 C33 1.376 . S
C34 C35 1.397 . S
C35 H10 0.950 . S
C35 C34 1.397 . S
C35 C36 1.391 . S
C36 C35 1.391 . S
C36 C37 1.405 . S
C37 H11 0.950 1_545 S
C37 C36 1.405 . S
C37 C38 1.368 1_545 S
C38 H12 0.948 . S
C38 C33 1.387 1_565 S
C38 C37 1.368 1_565 S
C39 C33 1.483 . S
C39 C40 1.382 . S
C39 C41 1.403 1_545 S
C40 H13 0.950 . S
C40 C26 1.411 1_455 S
C40 C39 1.382 . S
C41 C25 1.411 . S
C41 C39 1.403 1_565 S
C41 C42 1.489 . S
C42 C41 1.489 . S
C42 C43 1.383 . S
C42 C47 1.382 . S
C43 H14 0.950 1_565 S
C43 C42 1.383 . S
C43 C44 1.395 . S
C44 H15 0.958 . S
C44 C43 1.395 . S
C44 C45 1.288 . S
C45 C44 1.288 . S
C45 C46 1.392 . S
C46 H16 0.951 . S
C46 C45 1.392 . S
C46 C47 1.392 . S
C47 H17 0.949 . S
C47 C42 1.382 . S
C47 C46 1.392 . S
H48 C67 0.949 . S
H49 C68 0.950 . S
H50 C70 0.950 . S
H51 C71 0.950 . S
H52 C73 0.950 . S
H53 C76 0.950 . S
H54 C77 0.950 . S
H55 C79 0.951 . S
H56 C80 0.949 . S
H57 C82 0.949 . S
H58 C83 0.950 . S
H59 C85 0.950 . S
H60 C86 0.950 . S
H61 C88 0.950 . S
H62 C91 0.950 . S
H63 C92 0.950 . S
H64 C94 0.951 . S
H65 C95 0.949 . S
C66 C67 1.376 . S
C66 C71 1.386 . S
C66 C72 1.483 . S
C67 H48 0.949 . S
C67 C66 1.376 . S
C67 C68 1.397 . S
C68 H49 0.950 . S
C68 C67 1.397 . S
C68 C69 1.391 . S
C69 C68 1.391 . S
C69 C70 1.405 . S
C70 H50 0.950 . S
C70 C69 1.405 . S
C70 C71 1.367 . S
C71 H51 0.950 . S
C71 C66 1.386 . S
C71 C70 1.367 . S
C72 C66 1.483 . S
C72 C73 1.382 . S
C72 C74 1.403 . S
C73 H52 0.950 . S
C73 C72 1.382 . S
C73 C89 1.411 . S
C74 C72 1.403 . S
C74 C75 1.489 . S
C74 C88 1.411 . S
C75 C74 1.489 . S
C75 C76 1.383 . S
C75 C80 1.382 . S
C76 H53 0.950 . S
C76 C75 1.383 . S
C76 C77 1.395 . S
C77 H54 0.950 . S
C77 C76 1.395 . S
C77 C78 1.288 . S
C78 C77 1.288 . S
C78 C79 1.392 . S
C79 H55 0.951 . S
C79 C78 1.392 . S
C79 C80 1.392 . S
C80 H56 0.949 . S
C80 C75 1.382 . S
C80 C79 1.392 . S
C81 C82 1.376 . S
C81 C86 1.386 . S
C81 C87 1.483 . S
C82 H57 0.949 . S
C82 C81 1.376 . S
C82 C83 1.397 . S
C83 H58 0.950 . S
C83 C82 1.397 . S
C83 C84 1.391 . S
C84 C83 1.391 . S
C84 C85 1.405 . S
C85 H59 0.950 . S
C85 C84 1.405 . S
C85 C86 1.367 . S
C86 H60 0.950 . S
C86 C81 1.386 . S
C86 C85 1.367 . S
C87 C81 1.483 . S
C87 C88 1.382 . S
C87 C89 1.403 . S
C88 H61 0.950 . S
C88 C74 1.411 . S
C88 C87 1.382 . S
C89 C73 1.411 . S
C89 C87 1.403 . S
C89 C90 1.489 . S
C90 C89 1.489 . S
C90 C91 1.383 . S
C90 C95 1.382 . S
C91 H62 0.950 . S
C91 C90 1.383 . S
C91 C92 1.395 . S
C92 H63 0.950 . S
C92 C91 1.395 . S
C92 C93 1.288 . S
C93 C92 1.288 . S
C93 C94 1.392 . S
C94 H64 0.951 . S
C94 C93 1.392 . S
C94 C95 1.392 . S
C95 H65 0.949 . S
C95 C90 1.382 . S
C95 C94 1.392 . S
H96 C115 0.949 1_545 S
H97 C116 0.950 . S
H98 C118 0.950 . S
H99 C119 0.950 1_556 S
H100 C121 0.950 . S
H101 C124 0.950 1_554 S
H102 C125 0.950 . S
H103 C127 0.951 . S
H104 C128 0.949 1_565 S
H105 C130 0.949 1_565 S
H106 C131 0.950 . S
H107 C133 0.950 . S
H108 C134 0.950 1_554 S
H109 C136 0.950 . S
H110 C139 0.889 1_556 S
H111 C140 0.950 . S
H112 C142 0.951 . S
H113 C143 0.949 1_545 S
C114 C115 1.376 . S
C114 C119 1.386 . S
C114 C120 1.483 . S
C115 H96 0.949 1_565 S
C115 C114 1.376 . S
C115 C116 1.397 . S
C116 H97 0.950 . S
C116 C115 1.397 . S
C116 C117 1.391 . S
C117 C116 1.391 . S
C117 C118 1.405 . S
C118 H98 0.950 . S
C118 C117 1.405 . S
C118 C119 1.367 . S
C119 H99 0.950 1_554 S
C119 C114 1.386 . S
C119 C118 1.367 . S
C120 C114 1.483 . S
C120 C121 1.382 . S
C120 C122 1.403 1_564 S
C121 H100 0.950 . S
C121 C120 1.382 . S
C121 C137 1.411 . S
C122 C120 1.403 1_546 S
C122 C123 1.489 . S
C122 C136 1.411 . S
C123 C122 1.489 . S
C123 C124 1.383 . S
C123 C128 1.382 . S
C124 H101 0.950 1_556 S
C124 C123 1.383 . S
C124 C125 1.395 . S
C125 H102 0.950 . S
C125 C124 1.395 . S
C125 C126 1.288 . S
C126 C125 1.288 . S
C126 C127 1.392 . S
C127 H103 0.951 . S
C127 C126 1.392 . S
C127 C128 1.392 . S
C128 H104 0.949 1_545 S
C128 C123 1.382 . S
C128 C127 1.392 . S
C129 C130 1.376 . S
C129 C134 1.386 . S
C129 C135 1.483 . S
C130 H105 0.949 1_545 S
C130 C129 1.376 . S
C130 C131 1.397 . S
C131 H106 0.950 . S
C131 C130 1.397 . S
C131 C132 1.391 . S
C132 C131 1.391 . S
C132 C133 1.405 . S
C133 H107 0.950 . S
C133 C132 1.405 . S
C133 C134 1.367 . S
C134 H108 0.950 1_556 S
C134 C129 1.386 . S
C134 C133 1.367 . S
C135 C129 1.483 . S
C135 C136 1.382 . S
C135 C137 1.403 1_546 S
C136 H109 0.950 . S
C136 C122 1.411 . S
C136 C135 1.382 . S
C137 C121 1.411 . S
C137 C135 1.403 1_564 S
C137 C138 1.489 . S
C138 C137 1.489 . S
C138 C139 1.383 . S
C138 C143 1.382 . S
C139 H110 0.889 1_554 S
C139 C138 1.383 . S
C139 C140 1.395 . S
C140 H111 0.950 . S
C140 C139 1.395 . S
C140 C141 1.288 . S
C141 C140 1.288 . S
C141 C142 1.392 . S
C142 H112 0.951 . S
C142 C141 1.392 . S
C142 C143 1.392 . S
C143 H113 0.949 1_565 S
C143 C138 1.382 . S
C143 C142 1.392 . S
H144 C163 0.949 . S
H145 C164 0.950 . S
H146 C166 0.950 . S
H147 C167 0.950 . S
H148 C169 0.950 . S
H149 C172 0.950 . S
H150 C173 0.950 . S
H151 C175 0.951 . S
H152 C176 0.949 . S
H153 C178 0.949 . S
H154 C179 0.950 . S
H155 C181 0.950 . S
H156 C182 0.950 . S
H157 C184 0.950 . S
H158 C187 0.950 . S
H159 C188 0.950 . S
H160 C190 0.951 . S
H161 C191 0.949 . S
C162 C163 1.376 . S
C162 C167 1.386 . S
C162 C168 1.483 . S
C163 H144 0.949 . S
C163 C162 1.376 . S
C163 C164 1.397 . S
C164 H145 0.950 . S
C164 C163 1.397 . S
C164 C165 1.391 . S
C165 C164 1.391 . S
C165 C166 1.405 . S
C166 H146 0.950 . S
C166 C165 1.405 . S
C166 C167 1.367 . S
C167 H147 0.950 . S
C167 C162 1.386 . S
C167 C166 1.367 . S
C168 C162 1.483 . S
C168 C169 1.382 . S
C168 C170 1.403 . S
C169 H148 0.950 . S
C169 C168 1.382 . S
C169 C185 1.411 . S
C170 C168 1.403 . S
C170 C171 1.489 . S
C170 C184 1.411 . S
C171 C170 1.489 . S
C171 C172 1.383 . S
C171 C176 1.382 . S
C172 H149 0.950 . S
C172 C171 1.383 . S
C172 C173 1.395 . S
C173 H150 0.950 . S
C173 C172 1.395 . S
C173 C174 1.288 . S
C174 C173 1.288 . S
C174 C175 1.392 . S
C175 H151 0.951 . S
C175 C174 1.392 . S
C175 C176 1.392 . S
C176 H152 0.949 . S
C176 C171 1.382 . S
C176 C175 1.392 . S
C177 C178 1.376 . S
C177 C182 1.386 . S
C177 C183 1.483 . S
C178 H153 0.949 . S
C178 C177 1.376 . S
C178 C179 1.397 . S
C179 H154 0.950 . S
C179 C178 1.397 . S
C179 C180 1.391 . S
C180 C179 1.391 . S
C180 C181 1.405 . S
C181 H155 0.950 . S
C181 C180 1.405 . S
C181 C182 1.367 . S
C182 H156 0.950 . S
C182 C177 1.386 . S
C182 C181 1.367 . S
C183 C177 1.483 . S
C183 C184 1.382 . S
C183 C185 1.403 . S
C184 H157 0.950 . S
C184 C170 1.411 . S
C184 C183 1.382 . S
C185 C169 1.411 . S
C185 C183 1.403 . S
C185 C186 1.489 . S
C186 C185 1.489 . S
C186 C187 1.383 . S
C186 C191 1.382 . S
C187 H158 0.950 . S
C187 C186 1.383 . S
C187 C188 1.395 . S
C188 H159 0.950 . S
C188 C187 1.395 . S
C188 C189 1.288 . S
C189 C188 1.288 . S
C189 C190 1.392 . S
C190 H160 0.951 . S
C190 C189 1.392 . S
C190 C191 1.392 . S
C191 H161 0.949 . S
C191 C186 1.382 . S
C191 C190 1.392 . S
H192 C211 0.949 . S
H193 C212 0.950 . S
H194 C214 0.950 . S
H195 C215 0.950 . S
H196 C217 0.950 . S
H197 C220 0.950 . S
H198 C221 0.950 . S
H199 C223 0.951 . S
H200 C224 0.949 . S
H201 C226 0.949 . S
H202 C227 0.950 . S
H203 C229 0.950 . S
H204 C230 0.950 . S
H205 C232 0.950 . S
H206 C235 0.950 . S
H207 C236 0.950 . S
H208 C238 0.951 . S
H209 C239 0.949 . S
C210 C211 1.376 . S
C210 C215 1.386 . S
C210 C216 1.483 . S
C211 H192 0.949 . S
C211 C210 1.376 . S
C211 C212 1.397 . S
C212 H193 0.950 . S
C212 C211 1.397 . S
C212 C213 1.391 . S
C213 C212 1.391 . S
C213 C214 1.405 . S
C214 H194 0.950 . S
C214 C213 1.405 . S
C214 C215 1.367 . S
C215 H195 0.950 . S
C215 C210 1.386 . S
C215 C214 1.367 . S
C216 C210 1.483 . S
C216 C217 1.382 . S
C216 C218 1.403 . S
C217 H196 0.950 . S
C217 C216 1.382 . S
C217 C233 1.411 . S
C218 C216 1.403 . S
C218 C219 1.489 . S
C218 C232 1.411 . S
C219 C218 1.489 . S
C219 C220 1.383 . S
C219 C224 1.382 . S
C220 H197 0.950 . S
C220 C219 1.383 . S
C220 C221 1.395 . S
C221 H198 0.950 . S
C221 C220 1.395 . S
C221 C222 1.288 . S
C222 C221 1.288 . S
C222 C223 1.392 . S
C223 H199 0.951 . S
C223 C222 1.392 . S
C223 C224 1.392 . S
C224 H200 0.949 . S
C224 C219 1.382 . S
C224 C223 1.392 . S
C225 C226 1.376 . S
C225 C230 1.386 . S
C225 C231 1.483 . S
C226 H201 0.949 . S
C226 C225 1.376 . S
C226 C227 1.397 . S
C227 H202 0.950 . S
C227 C226 1.397 . S
C227 C228 1.391 . S
C228 C227 1.391 . S
C228 C229 1.405 . S
C229 H203 0.950 . S
C229 C228 1.405 . S
C229 C230 1.367 . S
C230 H204 0.950 . S
C230 C225 1.386 . S
C230 C229 1.367 . S
C231 C225 1.483 . S
C231 C232 1.382 . S
C231 C233 1.403 . S
C232 H205 0.950 . S
C232 C218 1.411 . S
C232 C231 1.382 . S
C233 C217 1.411 . S
C233 C231 1.403 . S
C233 C234 1.489 . S
C234 C233 1.489 . S
C234 C235 1.383 . S
C234 C239 1.382 . S
C235 H206 0.950 . S
C235 C234 1.383 . S
C235 C236 1.395 . S
C236 H207 0.950 . S
C236 C235 1.395 . S
C236 C237 1.288 . S
C237 C236 1.288 . S
C237 C238 1.392 . S
C238 H208 0.951 . S
C238 C237 1.392 . S
C238 C239 1.392 . S
C239 H209 0.949 . S
C239 C234 1.382 . S
C239 C238 1.392 . S
H240 C259 0.949 . S
H241 C260 0.950 . S
H242 C262 0.950 . S
H243 C263 0.950 . S
H244 C265 0.950 . S
H245 C268 0.950 . S
H246 C269 0.950 . S
H247 C271 0.951 . S
H248 C272 0.949 . S
H249 C274 0.949 . S
H250 C275 0.950 . S
H251 C277 0.950 . S
H252 C278 0.950 . S
H253 C280 0.950 . S
H254 C283 0.950 . S
H255 C284 0.950 . S
H256 C286 0.951 . S
H257 C287 0.949 . S
C258 C259 1.376 . S
C258 C263 1.386 . S
C258 C264 1.483 . S
C259 H240 0.949 . S
C259 C258 1.376 . S
C259 C260 1.397 . S
C260 H241 0.950 . S
C260 C259 1.397 . S
C260 C261 1.391 . S
C261 C260 1.391 . S
C261 C262 1.405 . S
C262 H242 0.950 . S
C262 C261 1.405 . S
C262 C263 1.367 . S
C263 H243 0.950 . S
C263 C258 1.386 . S
C263 C262 1.367 . S
C264 C258 1.483 . S
C264 C265 1.382 . S
C264 C266 1.403 . S
C265 H244 0.950 . S
C265 C264 1.382 . S
C265 C281 1.411 . S
C266 C264 1.403 . S
C266 C267 1.489 . S
C266 C280 1.411 . S
C267 C266 1.489 . S
C267 C268 1.383 . S
C267 C272 1.382 . S
C268 H245 0.950 . S
C268 C267 1.383 . S
C268 C269 1.395 . S
C269 H246 0.950 . S
C269 C268 1.395 . S
C269 C270 1.288 . S
C270 C269 1.288 . S
C270 C271 1.392 . S
C271 H247 0.951 . S
C271 C270 1.392 . S
C271 C272 1.392 . S
C272 H248 0.949 . S
C272 C267 1.382 . S
C272 C271 1.392 . S
C273 C274 1.376 . S
C273 C278 1.386 . S
C273 C279 1.483 . S
C274 H249 0.949 . S
C274 C273 1.376 . S
C274 C275 1.397 . S
C275 H250 0.950 . S
C275 C274 1.397 . S
C275 C276 1.391 . S
C276 C275 1.391 . S
C276 C277 1.405 . S
C277 H251 0.950 . S
C277 C276 1.405 . S
C277 C278 1.367 . S
C278 H252 0.950 . S
C278 C273 1.386 . S
C278 C277 1.367 . S
C279 C273 1.483 . S
C279 C280 1.382 . S
C279 C281 1.403 . S
C280 H253 0.950 . S
C280 C266 1.411 . S
C280 C279 1.382 . S
C281 C265 1.411 . S
C281 C279 1.403 . S
C281 C282 1.489 . S
C282 C281 1.489 . S
C282 C283 1.383 . S
C282 C287 1.382 . S
C283 H254 0.950 . S
C283 C282 1.383 . S
C283 C284 1.395 . S
C284 H255 0.950 . S
C284 C283 1.395 . S
C284 C285 1.288 . S
C285 C284 1.288 . S
C285 C286 1.392 . S
C286 H256 0.951 . S
C286 C285 1.392 . S
C286 C287 1.392 . S
C287 H257 0.949 . S
C287 C282 1.382 . S
C287 C286 1.392 . S
H288 C307 0.949 . S
H289 C308 0.950 . S
H290 C310 0.950 . S
H291 C311 0.950 . S
H292 C313 0.950 . S
H293 C316 0.950 . S
H294 C317 0.950 . S
H295 C319 0.951 . S
H296 C320 0.949 . S
H297 C322 0.949 . S
H298 C323 0.950 . S
H299 C325 0.950 . S
H300 C326 0.950 . S
H301 C328 0.950 . S
H302 C331 0.950 . S
H303 C332 0.950 . S
H304 C334 0.951 . S
H305 C335 0.949 . S
C306 C307 1.376 . S
C306 C311 1.386 . S
C306 C312 1.483 . S
C307 H288 0.949 . S
C307 C306 1.376 . S
C307 C308 1.397 . S
C308 H289 0.950 . S
C308 C307 1.397 . S
C308 C309 1.391 . S
C309 C308 1.391 . S
C309 C310 1.405 . S
C310 H290 0.950 . S
C310 C309 1.405 . S
C310 C311 1.367 . S
C311 H291 0.950 . S
C311 C306 1.386 . S
C311 C310 1.367 . S
C312 C306 1.483 . S
C312 C313 1.382 . S
C312 C314 1.403 1_556 S
C313 H292 0.950 . S
C313 C312 1.382 . S
C313 C329 1.411 . S
C314 C312 1.403 1_554 S
C314 C315 1.489 . S
C314 C328 1.411 . S
C315 C314 1.489 . S
C315 C316 1.383 . S
C315 C320 1.382 . S
C316 H293 0.950 . S
C316 C315 1.383 . S
C316 C317 1.395 . S
C317 H294 0.950 . S
C317 C316 1.395 . S
C317 C318 1.288 . S
C318 C317 1.288 . S
C318 C319 1.392 . S
C319 H295 0.951 . S
C319 C318 1.392 . S
C319 C320 1.392 . S
C320 H296 0.949 . S
C320 C315 1.382 . S
C320 C319 1.392 . S
C321 C322 1.376 . S
C321 C326 1.386 . S
C321 C327 1.483 . S
C322 H297 0.949 . S
C322 C321 1.376 . S
C322 C323 1.397 . S
C323 H298 0.950 . S
C323 C322 1.397 . S
C323 C324 1.391 . S
C324 C323 1.391 . S
C324 C325 1.405 . S
C325 H299 0.950 . S
C325 C324 1.405 . S
C325 C326 1.367 . S
C326 H300 0.950 . S
C326 C321 1.386 . S
C326 C325 1.367 . S
C327 C321 1.483 . S
C327 C328 1.382 . S
C327 C329 1.403 1_554 S
C328 H301 0.950 . S
C328 C314 1.411 . S
C328 C327 1.382 . S
C329 C313 1.411 . S
C329 C327 1.403 1_556 S
C329 C330 1.489 . S
C330 C329 1.489 . S
C330 C331 1.383 . S
C330 C335 1.382 . S
C331 H302 0.950 . S
C331 C330 1.383 . S
C331 C332 1.395 . S
C332 H303 0.950 . S
C332 C331 1.395 . S
C332 C333 1.288 . S
C333 C332 1.288 . S
C333 C334 1.392 . S
C334 H304 0.951 . S
C334 C333 1.392 . S
C334 C335 1.392 . S
C335 H305 0.949 . S
C335 C330 1.382 . S
C335 C334 1.392 . S
H336 C355 0.949 . S
H337 C356 0.950 . S
H338 C358 0.950 . S
H339 C359 0.950 . S
H340 C361 0.950 . S
H341 C364 0.950 . S
H342 C365 0.950 . S
H343 C367 0.951 . S
H344 C368 0.949 . S
H345 C370 0.949 . S
H346 C371 0.950 . S
H347 C373 0.950 . S
H348 C374 0.950 . S
H349 C376 0.950 . S
H350 C379 0.950 . S
H351 C380 0.950 . S
H352 C382 0.951 . S
H353 C383 0.949 . S
C354 C355 1.376 . S
C354 C359 1.386 . S
C354 C360 1.483 . S
C355 H336 0.949 . S
C355 C354 1.376 . S
C355 C356 1.397 . S
C356 H337 0.950 . S
C356 C355 1.397 . S
C356 C357 1.391 1_455 S
C357 C356 1.391 1_655 S
C357 C358 1.405 . S
C358 H338 0.950 . S
C358 C357 1.405 . S
C358 C359 1.367 1_655 S
C359 H339 0.950 . S
C359 C354 1.386 . S
C359 C358 1.367 1_455 S
C360 C354 1.483 . S
C360 C361 1.382 . S
C360 C362 1.403 . S
C361 H340 0.950 . S
C361 C360 1.382 . S
C361 C377 1.411 . S
C362 C360 1.403 . S
C362 C363 1.489 . S
C362 C376 1.411 . S
C363 C362 1.489 . S
C363 C364 1.383 . S
C363 C368 1.382 . S
C364 H341 0.950 . S
C364 C363 1.383 . S
C364 C365 1.395 1_455 S
C365 H342 0.950 . S
C365 C364 1.395 1_655 S
C365 C366 1.288 . S
C366 C365 1.288 . S
C366 C367 1.392 1_655 S
C367 H343 0.951 . S
C367 C366 1.392 1_455 S
C367 C368 1.392 . S
C368 H344 0.949 . S
C368 C363 1.382 . S
C368 C367 1.392 . S
C369 C370 1.376 . S
C369 C374 1.386 . S
C369 C375 1.483 . S
C370 H345 0.949 . S
C370 C369 1.376 . S
C370 C371 1.397 . S
C371 H346 0.950 . S
C371 C370 1.397 . S
C371 C372 1.391 . S
C372 C371 1.391 . S
C372 C373 1.405 . S
C373 H347 0.950 . S
C373 C372 1.405 . S
C373 C374 1.367 . S
C374 H348 0.950 . S
C374 C369 1.386 . S
C374 C373 1.367 . S
C375 C369 1.483 . S
C375 C376 1.382 . S
C375 C377 1.403 . S
C376 H349 0.950 . S
C376 C362 1.411 . S
C376 C375 1.382 . S
C377 C361 1.411 . S
C377 C375 1.403 . S
C377 C378 1.489 . S
C378 C377 1.489 . S
C378 C379 1.383 . S
C378 C383 1.382 . S
C379 H350 0.950 . S
C379 C378 1.383 . S
C379 C380 1.395 . S
C380 H351 0.950 . S
C380 C379 1.395 . S
C380 C381 1.288 . S
C381 C380 1.288 . S
C381 C382 1.392 . S
C382 H352 0.951 . S
C382 C381 1.392 . S
C382 C383 1.392 . S
C383 H353 0.949 . S
C383 C378 1.382 . S
C383 C382 1.392 . S
C384 O411 1.312 . S
C384 O412 1.208 . S
C385 O406 1.331 1_655 S
C385 O409 1.244 . S
C386 O408 1.264 1_655 S
C386 O410 1.273 . S
Mg387 O389 1.936 . S
Mg387 O396 2.081 . S
Mg387 O398 2.023 . S
Mg387 O402 2.031 . S
Mg387 O411 2.291 . S
Mg388 O389 1.963 . S
Mg388 O399 1.942 . S
Mg388 O400 1.955 . S
Mg388 O407 1.986 . S
O389 Mg387 1.936 . S
O389 Mg388 1.963 . S
O389 Mg390 1.915 . S
Mg390 O389 1.915 . S
Mg390 O391 1.915 . S
Mg390 O395 2.013 . S
Mg390 O401 2.114 . S
Mg390 O405 2.013 . S
Mg390 O411 2.114 . S
O391 Mg390 1.915 . S
O391 Mg392 1.936 . S
O391 Mg393 1.963 1_455 S
Mg392 O391 1.936 . S
Mg392 O401 2.291 . S
Mg392 O406 2.081 . S
Mg392 O408 2.023 . S
Mg392 O412 2.031 . S
Mg393 O391 1.963 1_655 S
Mg393 O397 1.986 . S
Mg393 O409 1.942 . S
Mg393 O410 1.955 . S
C394 O405 1.191 . S
C394 O407 1.307 . S
O395 Mg390 2.013 . S
O395 C414 1.191 . S
O396 Mg387 2.081 . S
O396 C404 1.331 . S
O397 Mg393 1.986 . S
O397 C414 1.307 1_655 S
O398 Mg387 2.023 . S
O398 C413 1.264 . S
O399 Mg388 1.942 . S
O399 C404 1.244 . S
O400 Mg388 1.955 . S
O400 C413 1.273 . S
O401 Mg390 2.114 . S
O401 Mg392 2.291 . S
O401 C403 1.312 . S
O402 Mg387 2.031 . S
O402 C403 1.208 . S
C403 O401 1.312 . S
C403 O402 1.208 . S
C404 O396 1.331 . S
C404 O399 1.244 . S
O405 Mg390 2.013 . S
O405 C394 1.191 . S
O406 C385 1.331 1_455 S
O406 Mg392 2.081 . S
O407 Mg388 1.986 . S
O407 C394 1.307 . S
O408 C386 1.264 1_455 S
O408 Mg392 2.023 . S
O409 C385 1.244 . S
O409 Mg393 1.942 . S
O410 C386 1.273 . S
O410 Mg393 1.955 . S
O411 C384 1.312 . S
O411 Mg387 2.291 . S
O411 Mg390 2.114 . S
O412 C384 1.208 . S
O412 Mg392 2.031 . S
C413 O398 1.264 . S
C413 O400 1.273 . S
C414 O395 1.191 . S
C414 O397 1.307 1_455 S
C415 O442 1.312 . S
C415 O443 1.208 . S
C416 O437 1.331 . S
C416 O440 1.244 . S
C417 O439 1.264 . S
C417 O441 1.273 . S
Mg418 O420 1.936 . S
Mg418 O427 2.081 . S
Mg418 O429 2.023 . S
Mg418 O433 2.031 . S
Mg418 O442 2.291 . S
Mg419 O420 1.963 . S
Mg419 O430 1.942 . S
Mg419 O431 1.955 . S
Mg419 O438 1.986 . S
O420 Mg418 1.936 . S
O420 Mg419 1.963 . S
O420 Mg421 1.915 . S
Mg421 O420 1.915 . S
Mg421 O422 1.915 . S
Mg421 O426 2.013 . S
Mg421 O432 2.114 . S
Mg421 O436 2.013 . S
Mg421 O442 2.114 . S
O422 Mg421 1.915 . S
O422 Mg423 1.936 . S
O422 Mg424 1.963 . S
Mg423 O422 1.936 . S
Mg423 O432 2.291 . S
Mg423 O437 2.081 . S
Mg423 O439 2.023 . S
Mg423 O443 2.031 . S
Mg424 O422 1.963 . S
Mg424 O428 1.986 . S
Mg424 O440 1.942 . S
Mg424 O441 1.955 . S
C425 O436 1.191 . S
C425 O438 1.307 . S
O426 Mg421 2.013 . S
O426 C445 1.191 . S
O427 Mg418 2.081 . S
O427 C435 1.331 . S
O428 Mg424 1.986 . S
O428 C445 1.307 . S
O429 Mg418 2.023 . S
O429 C444 1.264 . S
O430 Mg419 1.942 . S
O430 C435 1.244 . S
O431 Mg419 1.955 . S
O431 C444 1.273 . S
O432 Mg421 2.114 . S
O432 Mg423 2.291 . S
O432 C434 1.312 . S
O433 Mg418 2.031 . S
O433 C434 1.208 . S
C434 O432 1.312 . S
C434 O433 1.208 . S
C435 O427 1.331 . S
C435 O430 1.244 . S
O436 Mg421 2.013 . S
O436 C425 1.191 . S
O437 C416 1.331 . S
O437 Mg423 2.081 . S
O438 Mg419 1.986 . S
O438 C425 1.307 . S
O439 C417 1.264 . S
O439 Mg423 2.023 . S
O440 C416 1.244 . S
O440 Mg424 1.942 . S
O441 C417 1.273 . S
O441 Mg424 1.955 . S
O442 C415 1.312 . S
O442 Mg418 2.291 . S
O442 Mg421 2.114 . S
O443 C415 1.208 . S
O443 Mg423 2.031 . S
C444 O429 1.264 . S
C444 O431 1.273 . S
C445 O426 1.191 . S
C445 O428 1.307 . S
C446 O473 1.312 . S
C446 O474 1.208 . S
C447 O468 1.331 . S
C447 O471 1.244 . S
C448 O470 1.264 . S
C448 O472 1.273 . S
Mg449 O451 1.936 . S
Mg449 O458 2.081 . S
Mg449 O460 2.023 . S
Mg449 O464 2.031 . S
Mg449 O473 2.291 . S
Mg450 O451 1.963 . S
Mg450 O461 1.942 . S
Mg450 O462 1.955 . S
Mg450 O469 1.986 . S
O451 Mg449 1.936 . S
O451 Mg450 1.963 . S
O451 Mg452 1.915 . S
Mg452 O451 1.915 . S
Mg452 O453 1.915 . S
Mg452 O457 2.013 . S
Mg452 O463 2.114 . S
Mg452 O467 2.013 . S
Mg452 O473 2.114 . S
O453 Mg452 1.915 . S
O453 Mg454 1.936 . S
O453 Mg455 1.963 . S
Mg454 O453 1.936 . S
Mg454 O463 2.291 . S
Mg454 O468 2.081 . S
Mg454 O470 2.023 . S
Mg454 O474 2.031 . S
Mg455 O453 1.963 . S
Mg455 O459 1.986 . S
Mg455 O471 1.942 . S
Mg455 O472 1.955 . S
C456 O467 1.191 . S
C456 O469 1.307 . S
O457 Mg452 2.013 . S
O457 C476 1.191 . S
O458 Mg449 2.081 . S
O458 C466 1.331 . S
O459 Mg455 1.986 . S
O459 C476 1.307 . S
O460 Mg449 2.023 . S
O460 C475 1.264 . S
O461 Mg450 1.942 . S
O461 C466 1.244 . S
O462 Mg450 1.955 . S
O462 C475 1.273 . S
O463 Mg452 2.114 . S
O463 Mg454 2.291 . S
O463 C465 1.312 . S
O464 Mg449 2.031 . S
O464 C465 1.208 . S
C465 O463 1.312 . S
C465 O464 1.208 . S
C466 O458 1.331 . S
C466 O461 1.244 . S
O467 Mg452 2.013 . S
O467 C456 1.191 . S
O468 C447 1.331 . S
O468 Mg454 2.081 . S
O469 Mg450 1.986 . S
O469 C456 1.307 . S
O470 C448 1.264 . S
O470 Mg454 2.023 . S
O471 C447 1.244 . S
O471 Mg455 1.942 . S
O472 C448 1.273 . S
O472 Mg455 1.955 . S
O473 C446 1.312 . S
O473 Mg449 2.291 . S
O473 Mg452 2.114 . S
O474 C446 1.208 . S
O474 Mg454 2.031 . S
C475 O460 1.264 . S
C475 O462 1.273 . S
C476 O457 1.191 . S
C476 O459 1.307 . S
C477 O504 1.312 . S
C477 O505 1.208 . S
C478 O499 1.331 . S
C478 O502 1.244 . S
C479 O501 1.264 . S
C479 O503 1.273 . S
Mg480 O482 1.936 . S
Mg480 O489 2.081 . S
Mg480 O491 2.023 . S
Mg480 O495 2.031 . S
Mg480 O504 2.291 . S
Mg481 O482 1.963 1_655 S
Mg481 O492 1.942 . S
Mg481 O493 1.955 . S
Mg481 O500 1.986 . S
O482 Mg480 1.936 . S
O482 Mg481 1.963 1_455 S
O482 Mg483 1.915 . S
Mg483 O482 1.915 . S
Mg483 O484 1.915 . S
Mg483 O488 2.013 . S
Mg483 O494 2.114 . S
Mg483 O498 2.013 . S
Mg483 O504 2.114 . S
O484 Mg483 1.915 . S
O484 Mg485 1.936 . S
O484 Mg486 1.963 . S
Mg485 O484 1.936 . S
Mg485 O494 2.291 . S
Mg485 O499 2.081 . S
Mg485 O501 2.023 . S
Mg485 O505 2.031 . S
Mg486 O484 1.963 . S
Mg486 O490 1.986 . S
Mg486 O502 1.942 . S
Mg486 O503 1.955 . S
C487 O498 1.191 . S
C487 O500 1.307 1_455 S
O488 Mg483 2.013 . S
O488 C507 1.191 . S
O489 Mg480 2.081 . S
O489 C497 1.331 1_455 S
O490 Mg486 1.986 . S
O490 C507 1.307 . S
O491 Mg480 2.023 . S
O491 C506 1.264 1_455 S
O492 Mg481 1.942 . S
O492 C497 1.244 . S
O493 Mg481 1.955 . S
O493 C506 1.273 . S
O494 Mg483 2.114 . S
O494 Mg485 2.291 . S
O494 C496 1.312 . S
O495 Mg480 2.031 . S
O495 C496 1.208 . S
C496 O494 1.312 . S
C496 O495 1.208 . S
C497 O489 1.331 1_655 S
C497 O492 1.244 . S
O498 Mg483 2.013 . S
O498 C487 1.191 . S
O499 C478 1.331 . S
O499 Mg485 2.081 . S
O500 Mg481 1.986 . S
O500 C487 1.307 1_655 S
O501 C479 1.264 . S
O501 Mg485 2.023 . S
O502 C478 1.244 . S
O502 Mg486 1.942 . S
O503 C479 1.273 . S
O503 Mg486 1.955 . S
O504 C477 1.312 . S
O504 Mg480 2.291 . S
O504 Mg483 2.114 . S
O505 C477 1.208 . S
O505 Mg485 2.031 . S
C506 O491 1.264 1_655 S
C506 O493 1.273 . S
C507 O488 1.191 . S
C507 O490 1.307 . S
C508 C509 1.391 . S
C508 C510 1.394 . S
C508 H524 0.931 . S
C509 C508 1.391 . S
C509 C513 1.376 . S
C510 C508 1.394 . S
C510 C511 1.369 . S
C510 C514 1.531 . S
C511 C510 1.369 . S
C511 C512 1.410 . S
C511 C519 1.503 . S
C512 C511 1.410 . S
C512 C513 1.392 . S
C512 C515 1.511 . S
C513 C509 1.376 . S
C513 C512 1.392 . S
C513 H525 0.929 . S
C514 C510 1.531 . S
C514 H526 0.960 . S
C514 H527 0.962 . S
C514 H528 0.960 . S
C515 C512 1.511 . S
C515 H529 0.961 . S
C515 H530 0.961 . S
C515 H531 0.961 . S
C516 C517 1.370 . S
C516 C518 1.363 . S
C516 H532 0.931 . S
C517 C516 1.370 . S
C517 C521 1.408 . S
C518 C516 1.363 . S
C518 C519 1.370 . S
C518 C522 1.524 . S
C519 C511 1.503 . S
C519 C518 1.370 . S
C519 C520 1.403 . S
C520 C519 1.403 . S
C520 C521 1.404 . S
C520 C523 1.539 . S
C521 C517 1.408 . S
C521 C520 1.404 . S
C521 H533 0.930 . S
C522 C518 1.524 . S
C522 H534 0.956 . S
C522 H535 0.961 . S
C522 H536 0.961 . S
C523 C520 1.539 . S
C523 H537 0.958 . S
C523 H538 0.961 . S
C523 H539 0.960 . S
H524 C508 0.931 . S
H525 C513 0.929 . S
H526 C514 0.960 . S
H527 C514 0.962 . S
H528 C514 0.960 . S
H529 C515 0.961 . S
H530 C515 0.961 . S
H531 C515 0.961 . S
H532 C516 0.931 . S
H533 C521 0.930 . S
H534 C522 0.956 . S
H535 C522 0.961 . S
H536 C522 0.961 . S
H537 C523 0.958 . S
H538 C523 0.961 . S
H539 C523 0.960 . S
C540 C541 1.391 . S
C540 C542 1.394 . S
C540 H556 0.931 . S
C541 C540 1.391 . S
C541 C545 1.376 . S
C542 C540 1.394 . S
C542 C543 1.369 . S
C542 C546 1.531 . S
C543 C542 1.369 . S
C543 C544 1.410 . S
C543 C551 1.503 1_565 S
C544 C543 1.410 . S
C544 C545 1.392 . S
C544 C547 1.511 1_565 S
C545 C541 1.376 . S
C545 C544 1.392 . S
C545 H557 0.929 . S
C546 C542 1.531 . S
C546 H558 0.960 . S
C546 H559 0.962 . S
C546 H560 0.960 . S
C547 C544 1.511 1_545 S
C547 H561 0.961 . S
C547 H562 0.961 . S
C547 H563 0.961 . S
C548 C549 1.370 . S
C548 C550 1.363 . S
C548 H564 0.931 . S
C549 C548 1.370 . S
C549 C553 1.408 . S
C550 C548 1.363 . S
C550 C551 1.370 . S
C550 C554 1.524 1_545 S
C551 C543 1.503 1_545 S
C551 C550 1.370 . S
C551 C552 1.403 . S
C552 C551 1.403 . S
C552 C553 1.404 . S
C552 C555 1.539 . S
C553 C549 1.408 . S
C553 C552 1.404 . S
C553 H565 0.930 . S
C554 C550 1.524 1_565 S
C554 H566 0.956 . S
C554 H567 0.961 . S
C554 H568 0.961 1_565 S
C555 C552 1.539 . S
C555 H569 0.958 . S
C555 H570 0.961 . S
C555 H571 0.960 . S
H556 C540 0.931 . S
H557 C545 0.929 . S
H558 C546 0.960 . S
H559 C546 0.962 . S
H560 C546 0.960 . S
H561 C547 0.961 . S
H562 C547 0.961 . S
H563 C547 0.961 . S
H564 C548 0.931 . S
H565 C553 0.930 . S
H566 C554 0.956 . S
H567 C554 0.961 . S
H568 C554 0.961 1_545 S
H569 C555 0.958 . S
H570 C555 0.961 . S
H571 C555 0.960 . S
C572 C573 1.391 . S
C572 C574 1.394 . S
C572 H588 0.931 . S
C573 C572 1.391 . S
C573 C577 1.376 . S
C574 C572 1.394 . S
C574 C575 1.369 . S
C574 C578 1.531 . S
C575 C574 1.369 . S
C575 C576 1.410 . S
C575 C583 1.503 . S
C576 C575 1.410 . S
C576 C577 1.392 . S
C576 C579 1.511 . S
C577 C573 1.376 . S
C577 C576 1.392 . S
C577 H589 0.929 . S
C578 C574 1.531 . S
C578 H590 0.960 . S
C578 H591 0.962 . S
C578 H592 0.960 . S
C579 C576 1.511 . S
C579 H593 0.961 . S
C579 H594 0.961 . S
C579 H595 0.961 . S
C580 C581 1.370 . S
C580 C582 1.363 . S
C580 H596 0.931 . S
C581 C580 1.370 . S
C581 C585 1.408 . S
C582 C580 1.363 . S
C582 C583 1.370 . S
C582 C586 1.524 . S
C583 C575 1.503 . S
C583 C582 1.370 . S
C583 C584 1.403 . S
C584 C583 1.403 . S
C584 C585 1.404 . S
C584 C587 1.539 . S
C585 C581 1.408 . S
C585 C584 1.404 . S
C585 H597 0.930 . S
C586 C582 1.524 . S
C586 H598 0.956 . S
C586 H599 0.961 . S
C586 H600 0.961 . S
C587 C584 1.539 . S
C587 H601 0.958 . S
C587 H602 0.961 . S
C587 H603 0.960 . S
H588 C572 0.931 . S
H589 C577 0.929 . S
H590 C578 0.960 . S
H591 C578 0.962 . S
H592 C578 0.960 . S
H593 C579 0.961 . S
H594 C579 0.961 . S
H595 C579 0.961 . S
H596 C580 0.931 . S
H597 C585 0.930 . S
H598 C586 0.956 . S
H599 C586 0.961 . S
H600 C586 0.961 . S
H601 C587 0.958 . S
H602 C587 0.961 . S
H603 C587 0.960 . S
C604 C605 1.391 . S
C604 C606 1.394 . S
C604 H620 0.931 . S
C605 C604 1.391 . S
C605 C609 1.376 . S
C606 C604 1.394 . S
C606 C607 1.369 . S
C606 C610 1.531 . S
C607 C606 1.369 . S
C607 C608 1.410 . S
C607 C615 1.503 1_545 S
C608 C607 1.410 . S
C608 C609 1.392 . S
C608 C611 1.511 . S
C609 C605 1.376 . S
C609 C608 1.392 . S
C609 H621 0.929 . S
C610 C606 1.531 . S
C610 H622 0.960 . S
C610 H623 0.962 . S
C610 H624 0.960 . S
C611 C608 1.511 . S
C611 H625 0.961 . S
C611 H626 0.961 1_545 S
C611 H627 0.961 . S
C612 C613 1.370 . S
C612 C614 1.363 . S
C612 H628 0.931 . S
C613 C612 1.370 . S
C613 C617 1.408 . S
C614 C612 1.363 . S
C614 C615 1.370 . S
C614 C618 1.524 . S
C615 C607 1.503 1_565 S
C615 C614 1.370 . S
C615 C616 1.403 . S
C616 C615 1.403 . S
C616 C617 1.404 . S
C616 C619 1.539 1_565 S
C617 C613 1.408 . S
C617 C616 1.404 . S
C617 H629 0.930 . S
C618 C614 1.524 . S
C618 H630 0.956 . S
C618 H631 0.961 . S
C618 H632 0.961 . S
C619 C616 1.539 1_545 S
C619 H633 0.958 . S
C619 H634 0.961 . S
C619 H635 0.960 . S
H620 C604 0.931 . S
H621 C609 0.929 . S
H622 C610 0.960 . S
H623 C610 0.962 . S
H624 C610 0.960 . S
H625 C611 0.961 . S
H626 C611 0.961 1_565 S
H627 C611 0.961 . S
H628 C612 0.931 . S
H629 C617 0.930 . S
H630 C618 0.956 . S
H631 C618 0.961 . S
H632 C618 0.961 . S
H633 C619 0.958 . S
H634 C619 0.961 . S
H635 C619 0.960 . S
C636 C637 1.391 . S
C636 C638 1.394 . S
C636 H652 0.931 . S
C637 C636 1.391 . S
C637 C641 1.376 . S
C638 C636 1.394 . S
C638 C639 1.369 . S
C638 C642 1.531 . S
C639 C638 1.369 . S
C639 C640 1.410 . S
C639 C647 1.503 . S
C640 C639 1.410 . S
C640 C641 1.392 . S
C640 C643 1.511 . S
C641 C637 1.376 . S
C641 C640 1.392 . S
C641 H653 0.929 . S
C642 C638 1.531 . S
C642 H654 0.960 . S
C642 H655 0.962 . S
C642 H656 0.960 1_545 S
C643 C640 1.511 . S
C643 H657 0.961 . S
C643 H658 0.961 . S
C643 H659 0.961 . S
C644 C645 1.370 . S
C644 C646 1.363 . S
C644 H660 0.931 . S
C645 C644 1.370 . S
C645 C649 1.408 . S
C646 C644 1.363 . S
C646 C647 1.370 . S
C646 C650 1.524 . S
C647 C639 1.503 . S
C647 C646 1.370 . S
C647 C648 1.403 . S
C648 C647 1.403 . S
C648 C649 1.404 . S
C648 C651 1.539 . S
C649 C645 1.408 . S
C649 C648 1.404 . S
C649 H661 0.930 . S
C650 C646 1.524 . S
C650 H662 0.956 . S
C650 H663 0.961 . S
C650 H664 0.961 . S
C651 C648 1.539 . S
C651 H665 0.958 . S
C651 H666 0.961 . S
C651 H667 0.960 . S
H652 C636 0.931 . S
H653 C641 0.929 . S
H654 C642 0.960 . S
H655 C642 0.962 . S
H656 C642 0.960 1_565 S
H657 C643 0.961 . S
H658 C643 0.961 . S
H659 C643 0.961 . S
H660 C644 0.931 . S
H661 C649 0.930 . S
H662 C650 0.956 . S
H663 C650 0.961 . S
H664 C650 0.961 . S
H665 C651 0.958 . S
H666 C651 0.961 . S
H667 C651 0.960 . S
C668 C669 1.391 . S
C668 C670 1.394 . S
C668 H684 0.931 . S
C669 C668 1.391 . S
C669 C673 1.376 . S
C670 C668 1.394 . S
C670 C671 1.369 . S
C670 C674 1.531 1_565 S
C671 C670 1.369 . S
C671 C672 1.410 . S
C671 C679 1.503 1_565 S
C672 C671 1.410 . S
C672 C673 1.392 . S
C672 C675 1.511 . S
C673 C669 1.376 . S
C673 C672 1.392 . S
C673 H685 0.929 . S
C674 C670 1.531 1_545 S
C674 H686 0.960 . S
C674 H687 0.962 . S
C674 H688 0.960 . S
C675 C672 1.511 . S
C675 H689 0.961 . S
C675 H690 0.961 . S
C675 H691 0.961 . S
C676 C677 1.370 . S
C676 C678 1.363 . S
C676 H692 0.931 . S
C677 C676 1.370 . S
C677 C681 1.408 . S
C678 C676 1.363 . S
C678 C679 1.370 . S
C678 C682 1.524 1_545 S
C679 C671 1.503 1_545 S
C679 C678 1.370 . S
C679 C680 1.403 . S
C680 C679 1.403 . S
C680 C681 1.404 . S
C680 C683 1.539 . S
C681 C677 1.408 . S
C681 C680 1.404 . S
C681 H693 0.930 . S
C682 C678 1.524 1_565 S
C682 H694 0.956 . S
C682 H695 0.961 . S
C682 H696 0.961 . S
C683 C680 1.539 . S
C683 H697 0.958 . S
C683 H698 0.961 . S
C683 H699 0.960 . S
H684 C668 0.931 . S
H685 C673 0.929 . S
H686 C674 0.960 . S
H687 C674 0.962 . S
H688 C674 0.960 . S
H689 C675 0.961 . S
H690 C675 0.961 . S
H691 C675 0.961 . S
H692 C676 0.931 . S
H693 C681 0.930 . S
H694 C682 0.956 . S
H695 C682 0.961 . S
H696 C682 0.961 . S
H697 C683 0.958 . S
H698 C683 0.961 . S
H699 C683 0.960 . S
C700 C701 1.391 . S
C700 C702 1.394 . S
C700 H716 0.931 . S
C701 C700 1.391 . S
C701 C705 1.376 . S
C702 C700 1.394 . S
C702 C703 1.369 . S
C702 C706 1.531 . S
C703 C702 1.369 . S
C703 C704 1.410 . S
C703 C711 1.503 . S
C704 C703 1.410 . S
C704 C705 1.392 . S
C704 C707 1.511 . S
C705 C701 1.376 . S
C705 C704 1.392 . S
C705 H717 0.929 . S
C706 C702 1.531 . S
C706 H718 0.960 . S
C706 H719 0.962 . S
C706 H720 0.960 1_565 S
C707 C704 1.511 . S
C707 H721 0.961 . S
C707 H722 0.961 . S
C707 H723 0.961 . S
C708 C709 1.370 . S
C708 C710 1.363 . S
C708 H724 0.931 . S
C709 C708 1.370 . S
C709 C713 1.408 . S
C710 C708 1.363 . S
C710 C711 1.370 . S
C710 C714 1.524 . S
C711 C703 1.503 . S
C711 C710 1.370 . S
C711 C712 1.403 . S
C712 C711 1.403 . S
C712 C713 1.404 . S
C712 C715 1.539 . S
C713 C709 1.408 . S
C713 C712 1.404 . S
C713 H725 0.930 . S
C714 C710 1.524 . S
C714 H726 0.956 . S
C714 H727 0.961 . S
C714 H728 0.961 . S
C715 C712 1.539 . S
C715 H729 0.958 . S
C715 H730 0.961 . S
C715 H731 0.960 . S
H716 C700 0.931 . S
H717 C705 0.929 . S
H718 C706 0.960 . S
H719 C706 0.962 . S
H720 C706 0.960 1_545 S
H721 C707 0.961 . S
H722 C707 0.961 . S
H723 C707 0.961 . S
H724 C708 0.931 . S
H725 C713 0.930 . S
H726 C714 0.956 . S
H727 C714 0.961 . S
H728 C714 0.961 . S
H729 C715 0.958 . S
H730 C715 0.961 . S
H731 C715 0.960 . S
C732 C733 1.391 . S
C732 C734 1.394 . S
C732 H748 0.931 . S
C733 C732 1.391 . S
C733 C737 1.376 . S
C734 C732 1.394 . S
C734 C735 1.369 . S
C734 C738 1.531 1_545 S
C735 C734 1.369 . S
C735 C736 1.410 . S
C735 C743 1.503 1_545 S
C736 C735 1.410 . S
C736 C737 1.392 . S
C736 C739 1.511 . S
C737 C733 1.376 . S
C737 C736 1.392 . S
C737 H749 0.929 . S
C738 C734 1.531 1_565 S
C738 H750 0.960 . S
C738 H751 0.962 . S
C738 H752 0.960 . S
C739 C736 1.511 . S
C739 H753 0.961 . S
C739 H754 0.961 . S
C739 H755 0.961 . S
C740 C741 1.370 . S
C740 C742 1.363 . S
C740 H756 0.931 . S
C741 C740 1.370 . S
C741 C745 1.408 . S
C742 C740 1.363 . S
C742 C743 1.370 . S
C742 C746 1.524 . S
C743 C735 1.503 1_565 S
C743 C742 1.370 . S
C743 C744 1.403 . S
C744 C743 1.403 . S
C744 C745 1.404 . S
C744 C747 1.539 . S
C745 C741 1.408 . S
C745 C744 1.404 . S
C745 H757 0.930 . S
C746 C742 1.524 . S
C746 H758 0.956 . S
C746 H759 0.961 1_565 S
C746 H760 0.961 . S
C747 C744 1.539 . S
C747 H761 0.958 . S
C747 H762 0.961 . S
C747 H763 0.960 1_565 S
H748 C732 0.931 . S
H749 C737 0.929 . S
H750 C738 0.960 . S
H751 C738 0.962 . S
H752 C738 0.960 . S
H753 C739 0.961 . S
H754 C739 0.961 . S
H755 C739 0.961 . S
H756 C740 0.931 . S
H757 C745 0.930 . S
H758 C746 0.956 . S
H759 C746 0.961 1_545 S
H760 C746 0.961 . S
H761 C747 0.958 . S
H762 C747 0.961 . S
H763 C747 0.960 1_545 S
C764 C765 1.391 . S
C764 C766 1.394 . S
C764 H780 0.931 . S
C765 C764 1.391 . S
C765 C769 1.376 . S
C766 C764 1.394 . S
C766 C767 1.369 . S
C766 C770 1.531 . S
C767 C766 1.369 . S
C767 C768 1.410 . S
C767 C775 1.503 . S
C768 C767 1.410 . S
C768 C769 1.392 . S
C768 C771 1.511 . S
C769 C765 1.376 . S
C769 C768 1.392 . S
C769 H781 0.929 . S
C770 C766 1.531 . S
C770 H782 0.960 . S
C770 H783 0.962 . S
C770 H784 0.960 . S
C771 C768 1.511 . S
C771 H785 0.961 . S
C771 H786 0.961 . S
C771 H787 0.961 . S
C772 C773 1.370 . S
C772 C774 1.363 . S
C772 H788 0.931 . S
C773 C772 1.370 . S
C773 C777 1.408 . S
C774 C772 1.363 . S
C774 C775 1.370 . S
C774 C778 1.524 . S
C775 C767 1.503 . S
C775 C774 1.370 . S
C775 C776 1.403 . S
C776 C775 1.403 . S
C776 C777 1.404 . S
C776 C779 1.539 . S
C777 C773 1.408 . S
C777 C776 1.404 . S
C777 H789 0.930 . S
C778 C774 1.524 . S
C778 H790 0.956 . S
C778 H791 0.961 . S
C778 H792 0.961 . S
C779 C776 1.539 . S
C779 H793 0.958 . S
C779 H794 0.961 . S
C779 H795 0.960 . S
H780 C764 0.931 . S
H781 C769 0.929 . S
H782 C770 0.960 . S
H783 C770 0.962 . S
H784 C770 0.960 . S
H785 C771 0.961 . S
H786 C771 0.961 . S
H787 C771 0.961 . S
H788 C772 0.931 . S
H789 C777 0.930 . S
H790 C778 0.956 . S
H791 C778 0.961 . S
H792 C778 0.961 . S
H793 C779 0.958 . S
H794 C779 0.961 . S
H795 C779 0.960 . S
C796 C797 1.391 . S
C796 C798 1.394 . S
C796 H812 0.931 . S
C797 C796 1.391 . S
C797 C801 1.376 . S
C798 C796 1.394 . S
C798 C799 1.369 . S
C798 C802 1.531 . S
C799 C798 1.369 . S
C799 C800 1.410 . S
C799 C807 1.503 . S
C800 C799 1.410 . S
C800 C801 1.392 . S
C800 C803 1.511 . S
C801 C797 1.376 . S
C801 C800 1.392 . S
C801 H813 0.929 1_565 S
C802 C798 1.531 . S
C802 H814 0.960 . S
C802 H815 0.962 . S
C802 H816 0.960 . S
C803 C800 1.511 . S
C803 H817 0.961 . S
C803 H818 0.961 . S
C803 H819 0.961 . S
C804 C805 1.370 . S
C804 C806 1.363 . S
C804 H820 0.931 . S
C805 C804 1.370 . S
C805 C809 1.408 . S
C806 C804 1.363 . S
C806 C807 1.370 . S
C806 C810 1.524 . S
C807 C799 1.503 . S
C807 C806 1.370 . S
C807 C808 1.403 . S
C808 C807 1.403 . S
C808 C809 1.404 . S
C808 C811 1.539 . S
C809 C805 1.408 . S
C809 C808 1.404 . S
C809 H821 0.930 . S
C810 C806 1.524 . S
C810 H822 0.956 . S
C810 H823 0.961 . S
C810 H824 0.961 . S
C811 C808 1.539 . S
C811 H825 0.958 . S
C811 H826 0.961 . S
C811 H827 0.960 . S
H812 C796 0.931 . S
H813 C801 0.929 1_545 S
H814 C802 0.960 . S
H815 C802 0.962 . S
H816 C802 0.960 . S
H817 C803 0.961 . S
H818 C803 0.961 . S
H819 C803 0.961 . S
H820 C804 0.931 . S
H821 C809 0.930 . S
H822 C810 0.956 . S
H823 C810 0.961 . S
H824 C810 0.961 . S
H825 C811 0.958 . S
H826 C811 0.961 . S
H827 C811 0.960 . S
C828 C829 1.391 . S
C828 C830 1.394 . S
C828 H844 0.931 . S
C829 C828 1.391 . S
C829 C833 1.376 . S
C830 C828 1.394 . S
C830 C831 1.369 . S
C830 C834 1.531 . S
C831 C830 1.369 . S
C831 C832 1.410 . S
C831 C839 1.503 . S
C832 C831 1.410 . S
C832 C833 1.392 . S
C832 C835 1.511 . S
C833 C829 1.376 . S
C833 C832 1.392 . S
C833 H845 0.929 . S
C834 C830 1.531 . S
C834 H846 0.960 . S
C834 H847 0.962 . S
C834 H848 0.960 . S
C835 C832 1.511 . S
C835 H849 0.961 . S
C835 H850 0.961 . S
C835 H851 0.961 . S
C836 C837 1.370 1_655 S
C836 C838 1.363 . S
C836 H852 0.931 . S
C837 C836 1.370 1_455 S
C837 C841 1.408 . S
C838 C836 1.363 . S
C838 C839 1.370 . S
C838 C842 1.524 . S
C839 C831 1.503 . S
C839 C838 1.370 . S
C839 C840 1.403 . S
C840 C839 1.403 . S
C840 C841 1.404 1_655 S
C840 C843 1.539 1_655 S
C841 C837 1.408 . S
C841 C840 1.404 1_455 S
C841 H853 0.930 . S
C842 C838 1.524 . S
C842 H854 0.956 . S
C842 H855 0.961 . S
C842 H856 0.961 . S
C843 C840 1.539 1_455 S
C843 H857 0.964 . S
C843 H858 0.961 . S
C843 H859 0.960 1_455 S
H844 C828 0.931 . S
H845 C833 0.929 . S
H846 C834 0.960 . S
H847 C834 0.962 . S
H848 C834 0.960 . S
H849 C835 0.961 . S
H850 C835 0.961 . S
H851 C835 0.961 . S
H852 C836 0.931 . S
H853 C841 0.930 . S
H854 C842 0.956 . S
H855 C842 0.961 . S
H856 C842 0.961 . S
H857 C843 0.964 . S
H858 C843 0.961 . S
H859 C843 0.960 1_655 S
C860 C861 1.391 . S
C860 C862 1.394 . S
C860 H876 0.931 . S
C861 C860 1.391 . S
C861 C865 1.376 . S
C862 C860 1.394 . S
C862 C863 1.369 . S
C862 C866 1.531 1_655 S
C863 C862 1.369 . S
C863 C864 1.410 . S
C863 C871 1.503 . S
C864 C863 1.410 . S
C864 C865 1.392 . S
C864 C867 1.511 . S
C865 C861 1.376 . S
C865 C864 1.392 . S
C865 H877 0.929 . S
C866 C862 1.531 1_455 S
C866 H878 0.960 . S
C866 H879 0.962 . S
C866 H880 0.960 . S
C867 C864 1.511 . S
C867 H881 0.961 . S
C867 H882 0.961 . S
C867 H883 0.961 . S
C868 C869 1.370 . S
C868 C870 1.363 1_455 S
C868 H884 0.931 . S
C869 C868 1.370 . S
C869 C873 1.408 1_455 S
C870 C868 1.363 1_655 S
C870 C871 1.370 . S
C870 C874 1.524 1_655 S
C871 C863 1.503 . S
C871 C870 1.370 . S
C871 C872 1.403 . S
C872 C871 1.403 . S
C872 C873 1.404 . S
C872 C875 1.539 . S
C873 C869 1.408 1_655 S
C873 C872 1.404 . S
C873 H885 0.930 . S
C874 C870 1.524 1_455 S
C874 H886 0.956 . S
C874 H887 0.961 1_455 S
C874 H888 0.961 . S
C875 C872 1.539 . S
C875 H889 0.958 . S
C875 H890 0.961 . S
C875 H891 0.960 . S
H876 C860 0.931 . S
H877 C865 0.929 . S
H878 C866 0.960 . S
H879 C866 0.962 . S
H880 C866 0.960 . S
H881 C867 0.961 . S
H882 C867 0.961 . S
H883 C867 0.961 . S
H884 C868 0.931 . S
H885 C873 0.930 . S
H886 C874 0.956 . S
H887 C874 0.961 1_655 S
H888 C874 0.961 . S
H889 C875 0.958 . S
H890 C875 0.961 . S
H891 C875 0.960 . S
C892 C893 1.391 . S
C892 C894 1.394 . S
C892 H908 0.931 . S
C893 C892 1.391 . S
C893 C897 1.376 . S
C894 C892 1.394 . S
C894 C895 1.369 . S
C894 C898 1.531 . S
C895 C894 1.369 . S
C895 C896 1.410 . S
C895 C903 1.503 . S
C896 C895 1.410 . S
C896 C897 1.392 . S
C896 C899 1.511 . S
C897 C893 1.376 . S
C897 C896 1.392 . S
C897 H909 0.929 . S
C898 C894 1.531 . S
C898 H910 0.960 . S
C898 H911 0.962 . S
C898 H912 0.960 . S
C899 C896 1.511 . S
C899 H913 0.961 . S
C899 H914 0.961 . S
C899 H915 0.961 . S
C900 C901 1.370 . S
C900 C902 1.363 . S
C900 H916 0.931 . S
C901 C900 1.370 . S
C901 C905 1.408 . S
C902 C900 1.363 . S
C902 C903 1.370 . S
C902 C906 1.524 . S
C903 C895 1.503 . S
C903 C902 1.370 . S
C903 C904 1.403 . S
C904 C903 1.403 . S
C904 C905 1.404 . S
C904 C907 1.539 . S
C905 C901 1.408 . S
C905 C904 1.404 . S
C905 H917 0.930 . S
C906 C902 1.524 . S
C906 H918 0.956 . S
C906 H919 0.961 . S
C906 H920 0.961 . S
C907 C904 1.539 . S
C907 H921 0.958 . S
C907 H922 0.961 . S
C907 H923 0.960 . S
H908 C892 0.931 . S
H909 C897 0.929 . S
H910 C898 0.960 . S
H911 C898 0.962 . S
H912 C898 0.960 . S
H913 C899 0.961 . S
H914 C899 0.961 . S
H915 C899 0.961 . S
H916 C900 0.931 . S
H917 C905 0.930 . S
H918 C906 0.956 . S
H919 C906 0.961 . S
H920 C906 0.961 . S
H921 C907 0.958 . S
H922 C907 0.961 . S
H923 C907 0.960 . S
C924 C925 1.391 . S
C924 C926 1.394 . S
C924 H940 0.931 . S
C925 C924 1.391 . S
C925 C929 1.376 . S
C926 C924 1.394 . S
C926 C927 1.369 . S
C926 C930 1.531 . S
C927 C926 1.369 . S
C927 C928 1.410 . S
C927 C935 1.503 . S
C928 C927 1.410 . S
C928 C929 1.392 . S
C928 C931 1.511 1_655 S
C929 C925 1.376 . S
C929 C928 1.392 . S
C929 H941 0.929 . S
C930 C926 1.531 . S
C930 H942 0.960 . S
C930 H943 0.962 . S
C930 H944 0.960 . S
C931 C928 1.511 1_455 S
C931 H945 0.961 . S
C931 H946 0.961 . S
C931 H947 0.961 . S
C932 C933 1.370 1_655 S
C932 C934 1.363 . S
C932 H948 0.931 . S
C933 C932 1.370 1_455 S
C933 C937 1.408 . S
C934 C932 1.363 . S
C934 C935 1.370 . S
C934 C938 1.524 . S
C935 C927 1.503 . S
C935 C934 1.370 . S
C935 C936 1.393 1_655 S
C936 C935 1.393 1_455 S
C936 C937 1.410 . S
C936 C939 1.543 . S
C937 C933 1.408 . S
C937 C936 1.410 . S
C937 H949 0.930 . S
C938 C934 1.524 . S
C938 H950 0.956 . S
C938 H951 0.961 . S
C938 H952 0.961 . S
C939 C936 1.543 . S
C939 H953 0.958 1_455 S
C939 H954 0.961 . S
C939 H955 0.960 . S
H940 C924 0.931 . S
H941 C929 0.929 . S
H942 C930 0.960 . S
H943 C930 0.962 . S
H944 C930 0.960 . S
H945 C931 0.961 . S
H946 C931 0.961 . S
H947 C931 0.961 . S
H948 C932 0.931 . S
H949 C937 0.930 . S
H950 C938 0.956 . S
H951 C938 0.961 . S
H952 C938 0.961 . S
H953 C939 0.958 1_655 S
H954 C939 0.961 . S
H955 C939 0.960 . S
C956 C957 1.391 . S
C956 C958 1.394 . S
C956 H972 0.931 . S
C957 C956 1.391 . S
C957 C961 1.376 . S
C958 C956 1.394 . S
C958 C959 1.369 . S
C958 C962 1.531 . S
C959 C958 1.369 . S
C959 C960 1.410 . S
C959 C967 1.503 . S
C960 C959 1.410 . S
C960 C961 1.392 . S
C960 C963 1.511 . S
C961 C957 1.376 . S
C961 C960 1.392 . S
C961 H973 0.929 . S
C962 C958 1.531 . S
C962 H974 0.960 . S
C962 H975 0.962 . S
C962 H976 0.960 . S
C963 C960 1.511 . S
C963 H977 0.961 . S
C963 H978 0.961 . S
C963 H979 0.961 . S
C964 C965 1.370 1_655 S
C964 C966 1.363 . S
C964 H980 0.931 . S
C965 C964 1.370 1_455 S
C965 C969 1.408 . S
C966 C964 1.363 . S
C966 C967 1.370 . S
C966 C970 1.524 . S
C967 C959 1.503 . S
C967 C966 1.370 . S
C967 C968 1.384 1_655 S
C968 C967 1.384 1_455 S
C968 C969 1.416 . S
C968 C971 1.547 . S
C969 C965 1.408 . S
C969 C968 1.416 . S
C969 H981 0.930 . S
C970 C966 1.524 . S
C970 H982 0.956 . S
C970 H983 0.961 . S
C970 H984 0.961 . S
C971 C968 1.547 . S
C971 H985 0.958 . S
C971 H986 0.961 . S
C971 H987 0.960 1_455 S
H972 C956 0.931 . S
H973 C961 0.929 . S
H974 C962 0.960 . S
H975 C962 0.962 . S
H976 C962 0.960 . S
H977 C963 0.961 . S
H978 C963 0.961 . S
H979 C963 0.961 . S
H980 C964 0.931 . S
H981 C969 0.930 . S
H982 C970 0.956 . S
H983 C970 0.961 . S
H984 C970 0.961 . S
H985 C971 0.958 . S
H986 C971 0.961 . S
H987 C971 0.960 1_655 S
C988 C989 1.391 . S
C988 C990 1.394 . S
C988 H1004 0.931 . S
C989 C988 1.391 . S
C989 C993 1.376 . S
C990 C988 1.394 . S
C990 C991 1.369 . S
C990 C994 1.531 . S
C991 C990 1.369 . S
C991 C992 1.410 . S
C991 C999 1.503 . S
C992 C991 1.410 . S
C992 C993 1.392 . S
C992 C995 1.511 . S
C993 C989 1.376 . S
C993 C992 1.392 . S
C993 H1005 0.929 1_545 S
C994 C990 1.531 . S
C994 H1006 0.960 . S
C994 H1007 0.962 . S
C994 H1008 0.960 . S
C995 C992 1.511 . S
C995 H1009 0.961 . S
C995 H1010 0.961 . S
C995 H1011 0.961 . S
C996 C997 1.370 . S
C996 C998 1.363 . S
C996 H1012 0.931 . S
C997 C996 1.370 . S
C997 C1001 1.408 . S
C998 C996 1.363 . S
C998 C999 1.370 . S
C998 C1002 1.524 . S
C999 C991 1.503 . S
C999 C998 1.370 . S
C999 C1000 1.403 . S
C1000 C999 1.403 . S
C1000 C1001 1.404 . S
C1000 C1003 1.539 . S
C1001 C997 1.408 . S
C1001 C1000 1.404 . S
C1001 H1013 0.930 . S
C1002 C998 1.524 . S
C1002 H1014 0.956 . S
C1002 H1015 0.961 . S
C1002 H1016 0.961 . S
C1003 C1000 1.539 . S
C1003 H1017 0.958 . S
C1003 H1018 0.961 . S
C1003 H1019 0.960 . S
H1004 C988 0.931 . S
H1005 C993 0.929 1_565 S
H1006 C994 0.960 . S
H1007 C994 0.962 . S
H1008 C994 0.960 . S
H1009 C995 0.961 . S
H1010 C995 0.961 . S
H1011 C995 0.961 . S
H1012 C996 0.931 . S
H1013 C1001 0.930 . S
H1014 C1002 0.956 . S
H1015 C1002 0.961 . S
H1016 C1002 0.961 . S
H1017 C1003 0.958 . S
H1018 C1003 0.961 . S
H1019 C1003 0.960 . S
C1020 C1021 1.391 . S
C1020 C1022 1.394 . S
C1020 H1036 0.931 . S
C1021 C1020 1.391 . S
C1021 C1025 1.376 . S
C1022 C1020 1.394 . S
C1022 C1023 1.369 . S
C1022 C1026 1.531 . S
C1023 C1022 1.369 . S
C1023 C1024 1.410 . S
C1023 C1031 1.503 . S
C1024 C1023 1.410 . S
C1024 C1025 1.392 . S
C1024 C1027 1.511 . S
C1025 C1021 1.376 . S
C1025 C1024 1.392 . S
C1025 H1037 0.929 . S
C1026 C1022 1.531 . S
C1026 H1038 0.960 . S
C1026 H1039 0.962 . S
C1026 H1040 0.960 . S
C1027 C1024 1.511 . S
C1027 H1041 0.961 . S
C1027 H1042 0.961 . S
C1027 H1043 0.961 . S
C1028 C1029 1.370 . S
C1028 C1030 1.363 . S
C1028 H1044 0.931 . S
C1029 C1028 1.370 . S
C1029 C1033 1.408 . S
C1030 C1028 1.363 . S
C1030 C1031 1.370 . S
C1030 C1034 1.524 . S
C1031 C1023 1.503 . S
C1031 C1030 1.370 . S
C1031 C1032 1.403 . S
C1032 C1031 1.403 . S
C1032 C1033 1.404 . S
C1032 C1035 1.539 . S
C1033 C1029 1.408 . S
C1033 C1032 1.404 . S
C1033 H1045 0.930 . S
C1034 C1030 1.524 . S
C1034 H1046 0.956 . S
C1034 H1047 0.961 . S
C1034 H1048 0.961 . S
C1035 C1032 1.539 . S
C1035 H1049 0.958 . S
C1035 H1050 0.961 . S
C1035 H1051 0.960 . S
H1036 C1020 0.931 . S
H1037 C1025 0.929 . S
H1038 C1026 0.960 . S
H1039 C1026 0.962 . S
H1040 C1026 0.960 . S
H1041 C1027 0.961 . S
H1042 C1027 0.961 . S
H1043 C1027 0.961 . S
H1044 C1028 0.931 . S
H1045 C1033 0.930 . S
H1046 C1034 0.956 . S
H1047 C1034 0.961 . S
H1048 C1034 0.961 . S
H1049 C1035 0.958 . S
H1050 C1035 0.961 . S
H1051 C1035 0.960 . S
C1052 C1053 1.391 . S
C1052 C1054 1.394 . S
C1052 H1068 0.931 . S
C1053 C1052 1.391 . S
C1053 C1057 1.376 . S
C1054 C1052 1.394 . S
C1054 C1055 1.369 . S
C1054 C1058 1.531 . S
C1055 C1054 1.369 . S
C1055 C1056 1.410 . S
C1055 C1063 1.503 . S
C1056 C1055 1.410 . S
C1056 C1057 1.392 . S
C1056 C1059 1.511 . S
C1057 C1053 1.376 . S
C1057 C1056 1.392 . S
C1057 H1069 0.929 . S
C1058 C1054 1.531 . S
C1058 H1070 0.960 . S
C1058 H1071 0.962 . S
C1058 H1072 0.960 . S
C1059 C1056 1.511 . S
C1059 H1073 0.961 . S
C1059 H1074 0.961 . S
C1059 H1075 0.961 . S
C1060 C1061 1.370 . S
C1060 C1062 1.363 . S
C1060 H1076 0.931 1_655 S
C1061 C1060 1.370 . S
C1061 C1065 1.408 . S
C1062 C1060 1.363 . S
C1062 C1063 1.370 . S
C1062 C1066 1.524 1_655 S
C1063 C1055 1.503 . S
C1063 C1062 1.370 . S
C1063 C1064 1.403 . S
C1064 C1063 1.403 . S
C1064 C1065 1.404 . S
C1064 C1067 1.539 . S
C1065 C1061 1.408 . S
C1065 C1064 1.404 . S
C1065 H1077 0.930 . S
C1066 C1062 1.524 1_455 S
C1066 H1078 0.956 . S
C1066 H1079 0.961 . S
C1066 H1080 0.961 . S
C1067 C1064 1.539 . S
C1067 H1081 0.958 . S
C1067 H1082 0.961 . S
C1067 H1083 0.960 . S
H1068 C1052 0.931 . S
H1069 C1057 0.929 . S
H1070 C1058 0.960 . S
H1071 C1058 0.962 . S
H1072 C1058 0.960 . S
H1073 C1059 0.961 . S
H1074 C1059 0.961 . S
H1075 C1059 0.961 . S
H1076 C1060 0.931 1_455 S
H1077 C1065 0.930 . S
H1078 C1066 0.956 . S
H1079 C1066 0.961 . S
H1080 C1066 0.961 . S
H1081 C1067 0.958 . S
H1082 C1067 0.961 . S
H1083 C1067 0.960 . S
C1084 C1085 1.391 . S
C1084 C1086 1.394 . S
C1084 H1100 0.931 . S
C1085 C1084 1.391 . S
C1085 C1089 1.376 . S
C1086 C1084 1.394 . S
C1086 C1087 1.369 . S
C1086 C1090 1.531 . S
C1087 C1086 1.369 . S
C1087 C1088 1.410 . S
C1087 C1095 1.503 . S
C1088 C1087 1.410 . S
C1088 C1089 1.392 . S
C1088 C1091 1.511 . S
C1089 C1085 1.376 . S
C1089 C1088 1.392 . S
C1089 H1101 0.929 . S
C1090 C1086 1.531 . S
C1090 H1102 0.960 . S
C1090 H1103 0.962 . S
C1090 H1104 0.960 . S
C1091 C1088 1.511 . S
C1091 H1105 0.961 . S
C1091 H1106 0.961 . S
C1091 H1107 0.961 . S
C1092 C1093 1.370 . S
C1092 C1094 1.363 . S
C1092 H1108 0.931 . S
C1093 C1092 1.370 . S
C1093 C1097 1.408 . S
C1094 C1092 1.363 . S
C1094 C1095 1.370 . S
C1094 C1098 1.524 . S
C1095 C1087 1.503 . S
C1095 C1094 1.370 . S
C1095 C1096 1.403 . S
C1096 C1095 1.403 . S
C1096 C1097 1.404 . S
C1096 C1099 1.539 . S
C1097 C1093 1.408 . S
C1097 C1096 1.404 . S
C1097 H1109 0.930 . S
C1098 C1094 1.524 . S
C1098 H1110 0.956 . S
C1098 H1111 0.961 . S
C1098 H1112 0.961 . S
C1099 C1096 1.539 . S
C1099 H1113 0.958 . S
C1099 H1114 0.961 . S
C1099 H1115 0.960 . S
H1100 C1084 0.931 . S
H1101 C1089 0.929 . S
H1102 C1090 0.960 . S
H1103 C1090 0.962 . S
H1104 C1090 0.960 . S
H1105 C1091 0.961 . S
H1106 C1091 0.961 . S
H1107 C1091 0.961 . S
H1108 C1092 0.931 . S
H1109 C1097 0.930 . S
H1110 C1098 0.956 . S
H1111 C1098 0.961 . S
H1112 C1098 0.961 . S
H1113 C1099 0.958 . S
H1114 C1099 0.961 . S
H1115 C1099 0.960 . S
C1116 C1117 1.391 . S
C1116 C1118 1.394 . S
C1116 H1132 0.931 . S
C1117 C1116 1.391 . S
C1117 C1121 1.376 . S
C1118 C1116 1.394 . S
C1118 C1119 1.369 . S
C1118 C1122 1.531 . S
C1119 C1118 1.369 . S
C1119 C1120 1.410 . S
C1119 C1127 1.503 . S
C1120 C1119 1.410 . S
C1120 C1121 1.392 . S
C1120 C1123 1.511 . S
C1121 C1117 1.376 . S
C1121 C1120 1.392 . S
C1121 H1133 0.929 . S
C1122 C1118 1.531 . S
C1122 H1134 0.960 . S
C1122 H1135 0.962 . S
C1122 H1136 0.960 . S
C1123 C1120 1.511 . S
C1123 H1137 0.961 . S
C1123 H1138 0.961 . S
C1123 H1139 0.961 . S
C1124 C1125 1.370 . S
C1124 C1126 1.363 . S
C1124 H1140 0.931 . S
C1125 C1124 1.370 . S
C1125 C1129 1.408 . S
C1126 C1124 1.363 . S
C1126 C1127 1.370 . S
C1126 C1130 1.524 . S
C1127 C1119 1.503 . S
C1127 C1126 1.370 . S
C1127 C1128 1.403 . S
C1128 C1127 1.403 . S
C1128 C1129 1.404 . S
C1128 C1131 1.539 . S
C1129 C1125 1.408 . S
C1129 C1128 1.404 . S
C1129 H1141 0.930 . S
C1130 C1126 1.524 . S
C1130 H1142 0.956 . S
C1130 H1143 0.961 . S
C1130 H1144 0.961 . S
C1131 C1128 1.539 . S
C1131 H1145 0.958 . S
C1131 H1146 0.961 . S
C1131 H1147 0.960 . S
H1132 C1116 0.931 . S
H1133 C1121 0.929 . S
H1134 C1122 0.960 . S
H1135 C1122 0.962 . S
H1136 C1122 0.960 . S
H1137 C1123 0.961 . S
H1138 C1123 0.961 . S
H1139 C1123 0.961 . S
H1140 C1124 0.931 . S
H1141 C1129 0.930 . S
H1142 C1130 0.956 . S
H1143 C1130 0.961 . S
H1144 C1130 0.961 . S
H1145 C1131 0.958 . S
H1146 C1131 0.961 . S
H1147 C1131 0.960 . S
C1148 C1149 1.391 . S
C1148 C1150 1.394 . S
C1148 H1164 0.931 . S
C1149 C1148 1.391 . S
C1149 C1153 1.376 . S
C1150 C1148 1.394 . S
C1150 C1151 1.369 . S
C1150 C1154 1.531 . S
C1151 C1150 1.369 . S
C1151 C1152 1.410 . S
C1151 C1159 1.503 . S
C1152 C1151 1.410 . S
C1152 C1153 1.392 . S
C1152 C1155 1.511 . S
C1153 C1149 1.376 . S
C1153 C1152 1.392 . S
C1153 H1165 0.929 . S
C1154 C1150 1.531 . S
C1154 H1166 0.960 . S
C1154 H1167 0.962 . S
C1154 H1168 0.960 . S
C1155 C1152 1.511 . S
C1155 H1169 0.961 . S
C1155 H1170 0.961 . S
C1155 H1171 0.961 . S
C1156 C1157 1.370 . S
C1156 C1158 1.363 . S
C1156 H1172 0.931 . S
C1157 C1156 1.370 . S
C1157 C1161 1.408 . S
C1158 C1156 1.363 . S
C1158 C1159 1.370 . S
C1158 C1162 1.524 . S
C1159 C1151 1.503 . S
C1159 C1158 1.370 . S
C1159 C1160 1.403 . S
C1160 C1159 1.403 . S
C1160 C1161 1.404 . S
C1160 C1163 1.539 . S
C1161 C1157 1.408 . S
C1161 C1160 1.404 . S
C1161 H1173 0.930 . S
C1162 C1158 1.524 . S
C1162 H1174 0.956 . S
C1162 H1175 0.961 . S
C1162 H1176 0.961 . S
C1163 C1160 1.539 . S
C1163 H1177 0.958 . S
C1163 H1178 0.961 . S
C1163 H1179 0.960 . S
H1164 C1148 0.931 . S
H1165 C1153 0.929 . S
H1166 C1154 0.960 . S
H1167 C1154 0.962 . S
H1168 C1154 0.960 . S
H1169 C1155 0.961 . S
H1170 C1155 0.961 . S
H1171 C1155 0.961 . S
H1172 C1156 0.931 . S
H1173 C1161 0.930 . S
H1174 C1162 0.956 . S
H1175 C1162 0.961 . S
H1176 C1162 0.961 . S
H1177 C1163 0.958 . S
H1178 C1163 0.961 . S
H1179 C1163 0.960 . S
C1180 C1181 1.391 . S
C1180 C1182 1.394 . S
C1180 H1196 0.931 . S
C1181 C1180 1.391 . S
C1181 C1185 1.376 . S
C1182 C1180 1.394 . S
C1182 C1183 1.369 . S
C1182 C1186 1.531 . S
C1183 C1182 1.369 . S
C1183 C1184 1.410 . S
C1183 C1191 1.503 . S
C1184 C1183 1.410 . S
C1184 C1185 1.392 . S
C1184 C1187 1.511 . S
C1185 C1181 1.376 . S
C1185 C1184 1.392 . S
C1185 H1197 0.929 . S
C1186 C1182 1.531 . S
C1186 H1198 0.960 . S
C1186 H1199 0.962 . S
C1186 H1200 0.960 . S
C1187 C1184 1.511 . S
C1187 H1201 0.961 . S
C1187 H1202 0.961 . S
C1187 H1203 0.961 . S
C1188 C1189 1.370 . S
C1188 C1190 1.363 . S
C1188 H1204 0.931 . S
C1189 C1188 1.370 . S
C1189 C1193 1.408 . S
C1190 C1188 1.363 . S
C1190 C1191 1.370 . S
C1190 C1194 1.524 . S
C1191 C1183 1.503 . S
C1191 C1190 1.370 . S
C1191 C1192 1.403 . S
C1192 C1191 1.403 . S
C1192 C1193 1.404 . S
C1192 C1195 1.539 . S
C1193 C1189 1.408 . S
C1193 C1192 1.404 . S
C1193 H1205 0.930 . S
C1194 C1190 1.524 . S
C1194 H1206 0.956 . S
C1194 H1207 0.961 . S
C1194 H1208 0.961 . S
C1195 C1192 1.539 . S
C1195 H1209 0.958 . S
C1195 H1210 0.961 . S
C1195 H1211 0.960 . S
H1196 C1180 0.931 . S
H1197 C1185 0.929 . S
H1198 C1186 0.960 . S
H1199 C1186 0.962 . S
H1200 C1186 0.960 . S
H1201 C1187 0.961 . S
H1202 C1187 0.961 . S
H1203 C1187 0.961 . S
H1204 C1188 0.931 . S
H1205 C1193 0.930 . S
H1206 C1194 0.956 . S
H1207 C1194 0.961 . S
H1208 C1194 0.961 . S
H1209 C1195 0.958 . S
H1210 C1195 0.961 . S
H1211 C1195 0.960 . S
C1212 C1213 1.391 . S
C1212 C1214 1.394 . S
C1212 H1228 0.931 . S
C1213 C1212 1.391 . S
C1213 C1217 1.376 . S
C1214 C1212 1.394 . S
C1214 C1215 1.369 . S
C1214 C1218 1.531 . S
C1215 C1214 1.369 . S
C1215 C1216 1.410 . S
C1215 C1223 1.503 . S
C1216 C1215 1.410 . S
C1216 C1217 1.392 . S
C1216 C1219 1.511 . S
C1217 C1213 1.376 . S
C1217 C1216 1.392 . S
C1217 H1229 0.929 . S
C1218 C1214 1.531 . S
C1218 H1230 0.960 . S
C1218 H1231 0.962 . S
C1218 H1232 0.960 . S
C1219 C1216 1.511 . S
C1219 H1233 0.961 . S
C1219 H1234 0.961 . S
C1219 H1235 0.961 . S
C1220 C1221 1.370 . S
C1220 C1222 1.363 . S
C1220 H1236 0.931 . S
C1221 C1220 1.370 . S
C1221 C1225 1.408 . S
C1222 C1220 1.363 . S
C1222 C1223 1.370 . S
C1222 C1226 1.524 . S
C1223 C1215 1.503 . S
C1223 C1222 1.370 . S
C1223 C1224 1.403 . S
C1224 C1223 1.403 . S
C1224 C1225 1.404 . S
C1224 C1227 1.539 . S
C1225 C1221 1.408 . S
C1225 C1224 1.404 . S
C1225 H1237 0.930 . S
C1226 C1222 1.524 . S
C1226 H1238 0.956 . S
C1226 H1239 0.961 . S
C1226 H1240 0.961 . S
C1227 C1224 1.539 . S
C1227 H1241 0.958 . S
C1227 H1242 0.961 . S
C1227 H1243 0.960 . S
H1228 C1212 0.931 . S
H1229 C1217 0.929 . S
H1230 C1218 0.960 . S
H1231 C1218 0.962 . S
H1232 C1218 0.960 . S
H1233 C1219 0.961 . S
H1234 C1219 0.961 . S
H1235 C1219 0.961 . S
H1236 C1220 0.931 . S
H1237 C1225 0.930 . S
H1238 C1226 0.956 . S
H1239 C1226 0.961 . S
H1240 C1226 0.961 . S
H1241 C1227 0.958 . S
H1242 C1227 0.961 . S
H1243 C1227 0.960 . S
C1244 C1245 1.391 . S
C1244 C1246 1.394 . S
C1244 H1260 0.931 . S
C1245 C1244 1.391 . S
C1245 C1249 1.376 . S
C1246 C1244 1.394 . S
C1246 C1247 1.369 . S
C1246 C1250 1.531 . S
C1247 C1246 1.369 . S
C1247 C1248 1.410 . S
C1247 C1255 1.503 . S
C1248 C1247 1.410 . S
C1248 C1249 1.392 . S
C1248 C1251 1.511 . S
C1249 C1245 1.376 . S
C1249 C1248 1.392 . S
C1249 H1261 0.929 . S
C1250 C1246 1.531 . S
C1250 H1262 0.960 . S
C1250 H1263 0.962 . S
C1250 H1264 0.960 . S
C1251 C1248 1.511 . S
C1251 H1265 0.961 . S
C1251 H1266 0.961 . S
C1251 H1267 0.961 . S
C1252 C1253 1.370 . S
C1252 C1254 1.363 . S
C1252 H1268 0.931 . S
C1253 C1252 1.370 . S
C1253 C1257 1.408 1_655 S
C1254 C1252 1.363 . S
C1254 C1255 1.370 . S
C1254 C1258 1.524 . S
C1255 C1247 1.503 . S
C1255 C1254 1.370 . S
C1255 C1256 1.403 . S
C1256 C1255 1.403 . S
C1256 C1257 1.404 1_655 S
C1256 C1259 1.539 1_655 S
C1257 C1253 1.408 1_455 S
C1257 C1256 1.404 1_455 S
C1257 H1269 0.930 . S
C1258 C1254 1.524 . S
C1258 H1270 0.956 . S
C1258 H1271 0.961 . S
C1258 H1272 0.961 . S
C1259 C1256 1.539 1_455 S
C1259 H1273 0.958 . S
C1259 H1274 0.961 . S
C1259 H1275 0.960 . S
H1260 C1244 0.931 . S
H1261 C1249 0.929 . S
H1262 C1250 0.960 . S
H1263 C1250 0.962 . S
H1264 C1250 0.960 . S
H1265 C1251 0.961 . S
H1266 C1251 0.961 . S
H1267 C1251 0.961 . S
H1268 C1252 0.931 . S
H1269 C1257 0.930 . S
H1270 C1258 0.956 . S
H1271 C1258 0.961 . S
H1272 C1258 0.961 . S
H1273 C1259 0.958 . S
H1274 C1259 0.961 . S
H1275 C1259 0.960 . S
C1276 C1277 1.391 . S
C1276 C1278 1.394 . S
C1276 H1292 0.931 . S
C1277 C1276 1.391 . S
C1277 C1281 1.376 . S
C1278 C1276 1.394 . S
C1278 C1279 1.369 . S
C1278 C1282 1.531 . S
C1279 C1278 1.369 . S
C1279 C1280 1.410 . S
C1279 C1287 1.503 . S
C1280 C1279 1.410 . S
C1280 C1281 1.392 . S
C1280 C1283 1.511 . S
C1281 C1277 1.376 . S
C1281 C1280 1.392 . S
C1281 H1293 0.929 . S
C1282 C1278 1.531 . S
C1282 H1294 0.960 . S
C1282 H1295 0.962 . S
C1282 H1296 0.960 . S
C1283 C1280 1.511 . S
C1283 H1297 0.961 . S
C1283 H1298 0.961 . S
C1283 H1299 0.961 . S
C1284 C1285 1.370 . S
C1284 C1286 1.363 . S
C1284 H1300 0.931 . S
C1285 C1284 1.370 . S
C1285 C1289 1.408 . S
C1286 C1284 1.363 . S
C1286 C1287 1.370 . S
C1286 C1290 1.524 . S
C1287 C1279 1.503 . S
C1287 C1286 1.370 . S
C1287 C1288 1.403 . S
C1288 C1287 1.403 . S
C1288 C1289 1.404 . S
C1288 C1291 1.539 . S
C1289 C1285 1.408 . S
C1289 C1288 1.404 . S
C1289 H1301 0.930 . S
C1290 C1286 1.524 . S
C1290 H1302 0.956 . S
C1290 H1303 0.961 . S
C1290 H1304 0.961 . S
C1291 C1288 1.539 . S
C1291 H1305 0.958 . S
C1291 H1306 0.961 . S
C1291 H1307 0.960 . S
H1292 C1276 0.931 . S
H1293 C1281 0.929 . S
H1294 C1282 0.960 . S
H1295 C1282 0.962 . S
H1296 C1282 0.960 . S
H1297 C1283 0.961 . S
H1298 C1283 0.961 . S
H1299 C1283 0.961 . S
H1300 C1284 0.931 . S
H1301 C1289 0.930 . S
H1302 C1290 0.956 . S
H1303 C1290 0.961 . S
H1304 C1290 0.961 . S
H1305 C1291 0.958 . S
H1306 C1291 0.961 . S
H1307 C1291 0.960 . S
C1308 C1309 1.391 . S
C1308 C1310 1.394 . S
C1308 H1324 0.931 . S
C1309 C1308 1.391 . S
C1309 C1313 1.376 . S
C1310 C1308 1.394 . S
C1310 C1311 1.369 . S
C1310 C1314 1.531 . S
C1311 C1310 1.369 . S
C1311 C1312 1.410 . S
C1311 C1319 1.503 . S
C1312 C1311 1.410 . S
C1312 C1313 1.392 . S
C1312 C1315 1.511 . S
C1313 C1309 1.376 . S
C1313 C1312 1.392 . S
C1313 H1325 0.929 . S
C1314 C1310 1.531 . S
C1314 H1326 0.960 . S
C1314 H1327 0.962 . S
C1314 H1328 0.960 . S
C1315 C1312 1.511 . S
C1315 H1329 0.961 . S
C1315 H1330 0.961 . S
C1315 H1331 0.961 . S
C1316 C1317 1.370 . S
C1316 C1318 1.363 . S
C1316 H1332 0.931 . S
C1317 C1316 1.370 . S
C1317 C1321 1.408 . S
C1318 C1316 1.363 . S
C1318 C1319 1.370 . S
C1318 C1322 1.524 . S
C1319 C1311 1.503 . S
C1319 C1318 1.370 . S
C1319 C1320 1.403 . S
C1320 C1319 1.403 . S
C1320 C1321 1.404 . S
C1320 C1323 1.539 . S
C1321 C1317 1.408 . S
C1321 C1320 1.404 . S
C1321 H1333 0.930 . S
C1322 C1318 1.524 . S
C1322 H1334 0.956 . S
C1322 H1335 0.961 . S
C1322 H1336 0.961 . S
C1323 C1320 1.539 . S
C1323 H1337 0.958 . S
C1323 H1338 0.961 . S
C1323 H1339 0.960 . S
H1324 C1308 0.931 . S
H1325 C1313 0.929 . S
H1326 C1314 0.960 . S
H1327 C1314 0.962 . S
H1328 C1314 0.960 . S
H1329 C1315 0.961 . S
H1330 C1315 0.961 . S
H1331 C1315 0.961 . S
H1332 C1316 0.931 . S
H1333 C1321 0.930 . S
H1334 C1322 0.956 . S
H1335 C1322 0.961 . S
H1336 C1322 0.961 . S
H1337 C1323 0.958 . S
H1338 C1323 0.961 . S
H1339 C1323 0.960 . S
C1340 C1341 1.391 . S
C1340 C1342 1.394 . S
C1340 H1356 0.931 . S
C1341 C1340 1.391 . S
C1341 C1345 1.376 . S
C1342 C1340 1.394 . S
C1342 C1343 1.369 . S
C1342 C1346 1.531 . S
C1343 C1342 1.369 . S
C1343 C1344 1.410 . S
C1343 C1351 1.503 . S
C1344 C1343 1.410 . S
C1344 C1345 1.392 . S
C1344 C1347 1.511 . S
C1345 C1341 1.376 . S
C1345 C1344 1.392 . S
C1345 H1357 0.929 . S
C1346 C1342 1.531 . S
C1346 H1358 0.960 . S
C1346 H1359 0.962 . S
C1346 H1360 0.960 . S
C1347 C1344 1.511 . S
C1347 H1361 0.961 . S
C1347 H1362 0.961 . S
C1347 H1363 0.961 . S
C1348 C1349 1.370 . S
C1348 C1350 1.363 . S
C1348 H1364 0.931 . S
C1349 C1348 1.370 . S
C1349 C1353 1.408 . S
C1350 C1348 1.363 . S
C1350 C1351 1.370 . S
C1350 C1354 1.524 . S
C1351 C1343 1.503 . S
C1351 C1350 1.370 . S
C1351 C1352 1.403 . S
C1352 C1351 1.403 . S
C1352 C1353 1.404 . S
C1352 C1355 1.539 . S
C1353 C1349 1.408 . S
C1353 C1352 1.404 . S
C1353 H1365 0.930 . S
C1354 C1350 1.524 . S
C1354 H1366 0.956 . S
C1354 H1367 0.961 . S
C1354 H1368 0.961 . S
C1355 C1352 1.539 . S
C1355 H1369 0.958 . S
C1355 H1370 0.961 . S
C1355 H1371 0.960 . S
H1356 C1340 0.931 . S
H1357 C1345 0.929 . S
H1358 C1346 0.960 . S
H1359 C1346 0.962 . S
H1360 C1346 0.960 . S
H1361 C1347 0.961 . S
H1362 C1347 0.961 . S
H1363 C1347 0.961 . S
H1364 C1348 0.931 . S
H1365 C1353 0.930 . S
H1366 C1354 0.956 . S
H1367 C1354 0.961 . S
H1368 C1354 0.961 . S
H1369 C1355 0.958 . S
H1370 C1355 0.961 . S
H1371 C1355 0.960 . S
C1372 C1373 1.391 . S
C1372 C1374 1.394 . S
C1372 H1388 0.931 . S
C1373 C1372 1.391 . S
C1373 C1377 1.376 . S
C1374 C1372 1.394 . S
C1374 C1375 1.369 . S
C1374 C1378 1.531 . S
C1375 C1374 1.369 . S
C1375 C1376 1.410 . S
C1375 C1383 1.503 . S
C1376 C1375 1.410 . S
C1376 C1377 1.392 . S
C1376 C1379 1.511 . S
C1377 C1373 1.376 . S
C1377 C1376 1.392 . S
C1377 H1389 0.929 . S
C1378 C1374 1.531 . S
C1378 H1390 0.960 . S
C1378 H1391 0.962 . S
C1378 H1392 0.960 . S
C1379 C1376 1.511 . S
C1379 H1393 0.961 . S
C1379 H1394 0.961 . S
C1379 H1395 0.961 . S
C1380 C1381 1.370 . S
C1380 C1382 1.363 . S
C1380 H1396 0.931 . S
C1381 C1380 1.370 . S
C1381 C1385 1.408 . S
C1382 C1380 1.363 . S
C1382 C1383 1.370 . S
C1382 C1386 1.524 . S
C1383 C1375 1.503 . S
C1383 C1382 1.370 . S
C1383 C1384 1.403 . S
C1384 C1383 1.403 . S
C1384 C1385 1.404 . S
C1384 C1387 1.539 . S
C1385 C1381 1.408 . S
C1385 C1384 1.404 . S
C1385 H1397 0.930 . S
C1386 C1382 1.524 . S
C1386 H1398 0.956 . S
C1386 H1399 0.961 . S
C1386 H1400 0.961 . S
C1387 C1384 1.539 . S
C1387 H1401 0.958 . S
C1387 H1402 0.961 . S
C1387 H1403 0.960 . S
H1388 C1372 0.931 . S
H1389 C1377 0.929 . S
H1390 C1378 0.960 . S
H1391 C1378 0.962 . S
H1392 C1378 0.960 . S
H1393 C1379 0.961 . S
H1394 C1379 0.961 . S
H1395 C1379 0.961 . S
H1396 C1380 0.931 . S
H1397 C1385 0.930 . S
H1398 C1386 0.956 . S
H1399 C1386 0.961 . S
H1400 C1386 0.961 . S
H1401 C1387 0.958 . S
H1402 C1387 0.961 . S
H1403 C1387 0.960 . S
C1404 C1405 1.391 . S
C1404 C1406 1.394 . S
C1404 H1420 0.931 . S
C1405 C1404 1.391 . S
C1405 C1409 1.376 . S
C1406 C1404 1.394 . S
C1406 C1407 1.369 . S
C1406 C1410 1.531 . S
C1407 C1406 1.369 . S
C1407 C1408 1.410 . S
C1407 C1415 1.503 . S
C1408 C1407 1.410 . S
C1408 C1409 1.392 . S
C1408 C1411 1.511 . S
C1409 C1405 1.376 . S
C1409 C1408 1.392 . S
C1409 H1421 0.929 . S
C1410 C1406 1.531 . S
C1410 H1422 0.960 . S
C1410 H1423 0.962 . S
C1410 H1424 0.960 . S
C1411 C1408 1.511 . S
C1411 H1425 0.961 . S
C1411 H1426 0.961 . S
C1411 H1427 0.961 . S
C1412 C1413 1.370 . S
C1412 C1414 1.363 . S
C1412 H1428 0.931 . S
C1413 C1412 1.370 . S
C1413 C1417 1.408 . S
C1414 C1412 1.363 . S
C1414 C1415 1.370 . S
C1414 C1418 1.524 . S
C1415 C1407 1.503 . S
C1415 C1414 1.370 . S
C1415 C1416 1.403 . S
C1416 C1415 1.403 . S
C1416 C1417 1.404 . S
C1416 C1419 1.539 . S
C1417 C1413 1.408 . S
C1417 C1416 1.404 . S
C1417 H1429 0.930 . S
C1418 C1414 1.524 . S
C1418 H1430 0.956 . S
C1418 H1431 0.961 . S
C1418 H1432 0.961 . S
C1419 C1416 1.539 . S
C1419 H1433 0.958 . S
C1419 H1434 0.961 . S
C1419 H1435 0.960 . S
H1420 C1404 0.931 . S
H1421 C1409 0.929 . S
H1422 C1410 0.960 . S
H1423 C1410 0.962 . S
H1424 C1410 0.960 . S
H1425 C1411 0.961 . S
H1426 C1411 0.961 . S
H1427 C1411 0.961 . S
H1428 C1412 0.931 . S
H1429 C1417 0.930 . S
H1430 C1418 0.956 . S
H1431 C1418 0.961 . S
H1432 C1418 0.961 . S
H1433 C1419 0.958 . S
H1434 C1419 0.961 . S
H1435 C1419 0.960 . S
C1436 C1437 1.391 . S
C1436 C1438 1.394 . S
C1436 H1452 0.931 . S
C1437 C1436 1.391 . S
C1437 C1441 1.376 . S
C1438 C1436 1.394 . S
C1438 C1439 1.369 . S
C1438 C1442 1.531 . S
C1439 C1438 1.369 . S
C1439 C1440 1.410 . S
C1439 C1447 1.503 . S
C1440 C1439 1.410 . S
C1440 C1441 1.392 . S
C1440 C1443 1.511 . S
C1441 C1437 1.376 . S
C1441 C1440 1.392 . S
C1441 H1453 0.929 . S
C1442 C1438 1.531 . S
C1442 H1454 0.960 . S
C1442 H1455 0.962 . S
C1442 H1456 0.960 . S
C1443 C1440 1.511 . S
C1443 H1457 0.961 . S
C1443 H1458 0.961 . S
C1443 H1459 0.961 . S
C1444 C1445 1.370 . S
C1444 C1446 1.363 . S
C1444 H1460 0.931 . S
C1445 C1444 1.370 . S
C1445 C1449 1.408 . S
C1446 C1444 1.363 . S
C1446 C1447 1.370 . S
C1446 C1450 1.524 . S
C1447 C1439 1.503 . S
C1447 C1446 1.370 . S
C1447 C1448 1.403 . S
C1448 C1447 1.403 . S
C1448 C1449 1.404 . S
C1448 C1451 1.539 . S
C1449 C1445 1.408 . S
C1449 C1448 1.404 . S
C1449 H1461 0.930 . S
C1450 C1446 1.524 . S
C1450 H1462 0.956 . S
C1450 H1463 0.961 . S
C1450 H1464 0.961 . S
C1451 C1448 1.539 . S
C1451 H1465 0.958 . S
C1451 H1466 0.961 . S
C1451 H1467 0.960 . S
H1452 C1436 0.931 . S
H1453 C1441 0.929 . S
H1454 C1442 0.960 . S
H1455 C1442 0.962 . S
H1456 C1442 0.960 . S
H1457 C1443 0.961 . S
H1458 C1443 0.961 . S
H1459 C1443 0.961 . S
H1460 C1444 0.931 . S
H1461 C1449 0.930 . S
H1462 C1450 0.956 . S
H1463 C1450 0.961 . S
H1464 C1450 0.961 . S
H1465 C1451 0.958 . S
H1466 C1451 0.961 . S
H1467 C1451 0.960 . S
C1468 C1469 1.391 . S
C1468 C1470 1.394 . S
C1468 H1484 0.931 . S
C1469 C1468 1.391 . S
C1469 C1473 1.376 . S
C1470 C1468 1.394 . S
C1470 C1471 1.369 . S
C1470 C1474 1.531 . S
C1471 C1470 1.369 . S
C1471 C1472 1.410 . S
C1471 C1479 1.503 . S
C1472 C1471 1.410 . S
C1472 C1473 1.392 . S
C1472 C1475 1.511 . S
C1473 C1469 1.376 . S
C1473 C1472 1.392 . S
C1473 H1485 0.929 . S
C1474 C1470 1.531 . S
C1474 H1486 0.960 . S
C1474 H1487 0.962 . S
C1474 H1488 0.960 . S
C1475 C1472 1.511 . S
C1475 H1489 0.961 . S
C1475 H1490 0.961 . S
C1475 H1491 0.961 . S
C1476 C1477 1.370 . S
C1476 C1478 1.363 . S
C1476 H1492 0.931 . S
C1477 C1476 1.370 . S
C1477 C1481 1.408 . S
C1478 C1476 1.363 . S
C1478 C1479 1.370 . S
C1478 C1482 1.524 . S
C1479 C1471 1.503 . S
C1479 C1478 1.370 . S
C1479 C1480 1.403 . S
C1480 C1479 1.403 . S
C1480 C1481 1.404 . S
C1480 C1483 1.539 . S
C1481 C1477 1.408 . S
C1481 C1480 1.404 . S
C1481 H1493 0.930 . S
C1482 C1478 1.524 . S
C1482 H1494 0.956 . S
C1482 H1495 0.961 . S
C1482 H1496 0.961 . S
C1483 C1480 1.539 . S
C1483 H1497 0.958 . S
C1483 H1498 0.961 . S
C1483 H1499 0.960 . S
H1484 C1468 0.931 . S
H1485 C1473 0.929 . S
H1486 C1474 0.960 . S
H1487 C1474 0.962 . S
H1488 C1474 0.960 . S
H1489 C1475 0.961 . S
H1490 C1475 0.961 . S
H1491 C1475 0.961 . S
H1492 C1476 0.931 . S
H1493 C1481 0.930 . S
H1494 C1482 0.956 . S
H1495 C1482 0.961 . S
H1496 C1482 0.961 . S
H1497 C1483 0.958 . S
H1498 C1483 0.961 . S
H1499 C1483 0.960 . S
C1500 C1501 1.391 . S
C1500 C1502 1.394 . S
C1500 H1516 0.931 . S
C1501 C1500 1.391 . S
C1501 C1505 1.376 . S
C1502 C1500 1.394 . S
C1502 C1503 1.369 . S
C1502 C1506 1.531 . S
C1503 C1502 1.369 . S
C1503 C1504 1.410 . S
C1503 C1511 1.503 . S
C1504 C1503 1.410 . S
C1504 C1505 1.392 . S
C1504 C1507 1.511 . S
C1505 C1501 1.376 . S
C1505 C1504 1.392 . S
C1505 H1517 0.929 . S
C1506 C1502 1.531 . S
C1506 H1518 0.960 . S
C1506 H1519 0.962 . S
C1506 H1520 0.960 . S
C1507 C1504 1.511 . S
C1507 H1521 0.961 . S
C1507 H1522 0.961 . S
C1507 H1523 0.961 . S
C1508 C1509 1.370 . S
C1508 C1510 1.363 . S
C1508 H1524 0.931 . S
C1509 C1508 1.370 . S
C1509 C1513 1.408 . S
C1510 C1508 1.363 . S
C1510 C1511 1.370 . S
C1510 C1514 1.524 . S
C1511 C1503 1.503 . S
C1511 C1510 1.370 . S
C1511 C1512 1.403 . S
C1512 C1511 1.403 . S
C1512 C1513 1.404 . S
C1512 C1515 1.539 . S
C1513 C1509 1.408 . S
C1513 C1512 1.404 . S
C1513 H1525 0.930 . S
C1514 C1510 1.524 . S
C1514 H1526 0.956 . S
C1514 H1527 0.961 . S
C1514 H1528 0.961 . S
C1515 C1512 1.539 . S
C1515 H1529 0.958 . S
C1515 H1530 0.961 . S
C1515 H1531 0.960 . S
H1516 C1500 0.931 . S
H1517 C1505 0.929 . S
H1518 C1506 0.960 . S
H1519 C1506 0.962 . S
H1520 C1506 0.960 . S
H1521 C1507 0.961 . S
H1522 C1507 0.961 . S
H1523 C1507 0.961 . S
H1524 C1508 0.931 . S
H1525 C1513 0.930 . S
H1526 C1514 0.956 . S
H1527 C1514 0.961 . S
H1528 C1514 0.961 . S
H1529 C1515 0.958 . S
H1530 C1515 0.961 . S
H1531 C1515 0.960 . S
C517 C444 1.778 . S
C509 C45 1.835 . S
C541 C78 1.732 . S
C549 C447 1.727 . S
C573 C126 1.707 . S
C581 C478 1.699 . S
C613 C413 1.751 . S
C605 C174 1.791 . S
C645 C448 1.797 . S
C637 C36 1.841 . S
C677 C479 1.772 . S
C669 C69 1.819 . S
C709 C404 1.714 . S
C701 C117 1.736 . S
C741 C435 1.726 . S
C733 C165 1.765 . S
C765 C30 1.292 . S
C773 C465 1.239 . S
C797 C228 1.311 1_565 S
C805 C434 1.246 . S
C829 C141 1.244 . S
C837 C394 1.229 . S
C869 C487 1.236 . S
C861 C270 1.258 1_545 S
C901 C415 1.232 . S
C893 C21 1.317 . S
C925 C237 1.219 1_565 S
C933 C414 1.242 . S
C957 C132 1.248 . S
C965 C507 1.224 . S
C997 C446 1.249 . S
C989 C261 1.319 1_545 S
C1021 C333 1.832 . S
C1029 C506 1.778 . S
C1053 C213 1.748 . S
C1061 C385 1.729 . S
C1085 C357 1.742 . S
C1093 C416 1.702 . S
C1117 C285 1.812 . S
C1125 C475 1.760 . S
C1157 C386 1.796 . S
C1149 C324 1.844 . S
C1181 C222 1.808 . S
C1189 C417 1.754 . S
C1213 C366 1.723 . S
C1221 C466 1.710 . S
C1253 C497 1.725 . S
C1245 C276 1.768 . S
C1277 C318 1.300 . S
C1285 C403 1.227 . S
C1309 C93 1.269 . S
C1317 C496 1.213 . S
C1341 C372 1.240 . S
C1349 C456 1.235 . S
C1381 C425 1.243 . S
C1373 C189 1.261 . S
C1413 C477 1.268 . S
C1405 C309 1.330 . S
C1445 C476 1.241 . S
C1437 C84 1.238 . S
C1477 C445 1.215 . S
C1469 C381 1.215 . S
C1509 C384 1.247 . S
C1501 C180 1.312 . S
