# Generated by pormake.
# Topology zzz, (3,6)-cn, num edge types: 1
# Building blocks:
#     Node 0, Type 0, BuildingBlock: CUQRIR_clean_linker_1, # of connection points: 3
#     Node 1, Type 0, BuildingBlock: CUQRIR_clean_linker_1, # of connection points: 3
#     Node 2, Type 0, BuildingBlock: CUQRIR_clean_linker_1, # of connection points: 3
#     Node 3, Type 0, BuildingBlock: CUQRIR_clean_linker_1, # of connection points: 3
#     Node 4, Type 0, BuildingBlock: CUQRIR_clean_linker_1, # of connection points: 3
#     Node 5, Type 0, BuildingBlock: CUQRIR_clean_linker_1, # of connection points: 3
#     Node 6, Type 0, BuildingBlock: CUQRIR_clean_linker_1, # of connection points: 3
#     Node 7, Type 0, BuildingBlock: CUQRIR_clean_linker_1, # of connection points: 3
#     Node 8, Type 1, BuildingBlock: PAMTUU_clean_sbu_0, # of connection points: 6
#     Node 9, Type 1, BuildingBlock: PAMTUU_clean_sbu_0, # of connection points: 6
#     Node 10, Type 1, BuildingBlock: PAMTUU_clean_sbu_0, # of connection points: 6
#     Node 11, Type 1, BuildingBlock: PAMTUU_clean_sbu_0, # of connection points: 6
#     Edge 12, Type (0, 1), BuildingBlock: CIFDUS_clean_linker_0, # of connection points: 2
#     Edge 13, Type (0, 1), BuildingBlock: CIFDUS_clean_linker_0, # of connection points: 2
#     Edge 14, Type (0, 1), BuildingBlock: CIFDUS_clean_linker_0, # of connection points: 2
#     Edge 15, Type (0, 1), BuildingBlock: CIFDUS_clean_linker_0, # of connection points: 2
#     Edge 16, Type (0, 1), BuildingBlock: CIFDUS_clean_linker_0, # of connection points: 2
#     Edge 17, Type (0, 1), BuildingBlock: CIFDUS_clean_linker_0, # of connection points: 2
#     Edge 18, Type (0, 1), BuildingBlock: CIFDUS_clean_linker_0, # of connection points: 2
#     Edge 19, Type (0, 1), BuildingBlock: CIFDUS_clean_linker_0, # of connection points: 2
#     Edge 20, Type (0, 1), BuildingBlock: CIFDUS_clean_linker_0, # of connection points: 2
#     Edge 21, Type (0, 1), BuildingBlock: CIFDUS_clean_linker_0, # of connection points: 2
#     Edge 22, Type (0, 1), BuildingBlock: CIFDUS_clean_linker_0, # of connection points: 2
#     Edge 23, Type (0, 1), BuildingBlock: CIFDUS_clean_linker_0, # of connection points: 2
#     Edge 24, Type (0, 1), BuildingBlock: CIFDUS_clean_linker_0, # of connection points: 2
#     Edge 25, Type (0, 1), BuildingBlock: CIFDUS_clean_linker_0, # of connection points: 2
#     Edge 26, Type (0, 1), BuildingBlock: CIFDUS_clean_linker_0, # of connection points: 2
#     Edge 27, Type (0, 1), BuildingBlock: CIFDUS_clean_linker_0, # of connection points: 2
#     Edge 28, Type (0, 1), BuildingBlock: CIFDUS_clean_linker_0, # of connection points: 2
#     Edge 29, Type (0, 1), BuildingBlock: CIFDUS_clean_linker_0, # of connection points: 2
#     Edge 30, Type (0, 1), BuildingBlock: CIFDUS_clean_linker_0, # of connection points: 2
#     Edge 31, Type (0, 1), BuildingBlock: CIFDUS_clean_linker_0, # of connection points: 2
#     Edge 32, Type (0, 1), BuildingBlock: CIFDUS_clean_linker_0, # of connection points: 2
#     Edge 33, Type (0, 1), BuildingBlock: CIFDUS_clean_linker_0, # of connection points: 2
#     Edge 34, Type (0, 1), BuildingBlock: CIFDUS_clean_linker_0, # of connection points: 2
#     Edge 35, Type (0, 1), BuildingBlock: CIFDUS_clean_linker_0, # of connection points: 2
# Relax obj value: 0.276
# Max RMSD: 0.242
# Mean RMSD: 0.119
data_MOF--net-zzz--node1-PAMTUU_clean_sbu_0--node2-CUQRIR_clean_linker_1--edge1-CIFDUS_clean_linker_0
_symmetry_space_group_name_H-M    P1
_symmetry_Int_Tables_number       1
_symmetry_cell_setting            triclinic
loop_
_symmetry_equiv_pos_as_xyz
'x, y, z'
_cell_length_a     40.482162
_cell_length_b     44.377795
_cell_length_c     12.499872
_cell_angle_alpha  103.86887
_cell_angle_beta   89.887834
_cell_angle_gamma 90.325886
loop_
_atom_site_label
_atom_site_type_symbol
_atom_site_fract_x
_atom_site_fract_y
_atom_site_fract_z
_atom_type_partial_charge
C0 C 0.76926 0.5054 0.45971 0.0
N1 N 0.79704 0.48834 0.46659 0.0
N2 N 0.74855 0.49003 0.37763 0.0
C3 C 0.76336 0.53764 0.52739 0.0
C4 C 0.76465 0.46307 0.33728 0.0
N5 N 0.79412 0.46235 0.38777 0.0
C6 C 0.75321 0.43826 0.23958 0.0
H7 H 0.73651 0.54212 0.5391 0.0
H8 H 0.77372 0.55446 0.48324 0.0
H9 H 0.77573 0.54128 0.60866 0.0
H10 H 0.76307 0.4434 0.16295 0.0
H11 H 0.72583 0.43738 0.23477 0.0
H12 H 0.76264 0.41524 0.245 0.0
C13 C 1.01037 0.73691 0.52563 0.0
N14 N 1.01987 0.76598 0.52095 0.0
N15 N 1.0253 0.71529 0.44438 0.0
C16 C 0.98691 0.72968 0.60899 0.0
C17 C 0.04388 0.73228 0.39007 0.0
N18 N 0.04067 0.76286 0.4367 0.0
C19 C 0.06363 0.71905 0.28762 0.0
H20 H 0.99024 0.74651 0.6897 0.0
H21 H 0.99052 0.70565 0.61819 0.0
H22 H 0.96125 0.73185 0.58085 0.0
H23 H 0.05354 0.6963 0.24211 0.0
H24 H 0.08944 0.7156 0.31175 0.0
H25 H 0.06404 0.73521 0.23225 0.0
C26 C 0.80841 1.00461 0.47827 0.0
N27 N 0.77517 0.01054 0.47773 0.0
N28 N 0.82321 0.00724 0.38158 0.0
C29 C 0.8263 0.99752 0.574 0.0
C30 C 0.79755 0.01443 0.3231 0.0
N31 N 0.76918 0.01676 0.38105 0.0
C32 C 0.79997 0.0194 0.20801 0.0
H33 H 0.82762 0.0189 0.64149 0.0
H34 H 0.85174 0.98927 0.55133 0.0
H35 H 0.81229 0.97984 0.60532 0.0
H36 H 0.8204 1.00571 0.1611 0.0
H37 H 0.8044 0.04439 0.21303 0.0
H38 H 0.7767 0.01258 0.16177 0.0
C39 C 0.54904 0.79266 0.26477 0.0
N40 N 0.54118 0.76256 0.25847 0.0
N41 N 0.53607 0.80228 0.17818 0.0
C42 C 0.56974 0.81244 0.35463 0.0
C43 C 0.51987 0.77659 0.11954 0.0
N44 N 0.52286 0.75255 0.16879 0.0
C45 C 0.50177 0.77496 0.01327 0.0
H46 H 0.56359 0.83736 0.36642 0.0
H47 H 0.59618 0.80911 0.33164 0.0
H48 H 0.56607 0.80554 0.43341 0.0
H49 H 0.51612 0.78711 0.96038 0.0
H50 H 0.47768 0.78683 0.03196 0.0
H51 H 0.49672 0.75077 0.96745 0.0
C52 C 0.30729 0.51601 0.27708 0.0
N53 N 0.27548 0.52715 0.29107 0.0
N54 N 0.32511 0.52402 0.37383 0.0
C55 C 0.3204 0.49633 0.17142 0.0
C56 C 0.30328 0.54095 0.44493 0.0
N57 N 0.27385 0.54251 0.39614 0.0
C58 C 0.31092 0.55686 0.5632 0.0
H59 H 0.34191 0.48257 0.1869 0.0
H60 H 0.32845 0.51166 0.11793 0.0
H61 H 0.30072 0.48068 0.12743 0.0
H62 H 0.33732 0.56382 0.57324 0.0
H63 H 0.30562 0.54058 0.61608 0.0
H64 H 0.29543 0.57779 0.59205 0.0
C65 C 0.05191 0.27684 0.23828 0.0
N66 N 0.03824 0.24859 0.23446 0.0
N67 N 0.03796 0.29906 0.31978 0.0
C68 C 0.08076 0.2822 0.16975 0.0
C69 C 1.01587 0.28303 0.36645 0.0
N70 N 1.01626 0.25244 0.3157 0.0
C71 C 0.99636 0.29692 0.46887 0.0
H72 H 0.10385 0.277 0.20935 0.0
H73 H 0.08167 0.30673 0.1636 0.0
H74 H 0.07931 0.26645 0.08624 0.0
H75 H 0.98419 0.31855 0.46045 0.0
H76 H 1.01343 0.30309 0.54027 0.0
H77 H 0.9772 0.2806 0.48511 0.0
C78 C 0.26162 0.00735 0.25156 0.0
N79 N 0.29217 0.99382 0.23444 0.0
N80 N 0.24443 0.99762 0.3323 0.0
C81 C 0.24915 0.03078 0.19309 0.0
C82 C 0.26581 0.97795 0.36322 0.0
N83 N 0.29408 0.97559 0.30426 0.0
C84 C 0.26007 0.96269 0.45771 0.0
H85 H 0.25872 0.05403 0.2357 0.0
H86 H 0.22175 0.03143 0.19429 0.0
H87 H 0.25823 0.02544 0.10684 0.0
H88 H 0.24744 0.97888 0.527 0.0
H89 H 0.28323 0.95477 0.48895 0.0
H90 H 0.24407 0.94197 0.42908 0.0
C91 C 0.53632 0.22353 0.48212 0.0
N92 N 0.53528 0.25501 0.50054 0.0
N93 N 0.53545 0.2146 0.57899 0.0
C94 C 0.54155 0.2017 0.37166 0.0
C95 C 0.53387 0.24182 0.65641 0.0
N96 N 0.53391 0.26629 0.60923 0.0
C97 C 0.53133 0.24426 0.77827 0.0
H98 H 0.53782 0.21344 0.30364 0.0
H99 H 0.5244 0.18163 0.36162 0.0
H100 H 0.5671 0.19255 0.36745 0.0
H101 H 0.55651 0.24434 0.81315 0.0
H102 H 0.51769 0.22401 0.7942 0.0
H103 H 0.51866 0.26597 0.82064 0.0
Tb104 Tb 1.00536 0.01119 0.75839 0.0
Tb105 Tb 0.05742 0.00627 0.94795 0.0
C106 C 0.98083 0.00957 0.99693 0.0
C107 C 0.96936 0.03986 0.53585 0.0
C108 C 0.97253 0.09069 0.43843 0.0
C109 C 0.94224 0.0756 0.44487 0.0
C110 C 0.94066 0.05033 0.49383 0.0
C111 C 0.99983 0.05394 0.52408 0.0
C112 C 1.0014 0.07906 0.47553 0.0
C113 C 0.96721 0.01769 0.60583 0.0
O114 O 1.02649 0.05804 0.8131 0.0
O115 O 0.04779 0.05575 0.98151 0.0
O116 O 0.0885 0.02093 0.82449 0.0
O117 O 0.05401 1.00201 0.67863 0.0
O118 O 0.06976 0.01373 0.1157 0.0
O119 O 0.10157 0.98727 0.9902 0.0
O120 O 0.05356 0.96141 0.83148 0.0
O121 O 1.00063 0.963 0.77402 0.0
O122 O 0.97727 0.02203 0.9124 0.0
O123 O 1.0085 0.99539 1.00936 0.0
C124 C 0.0381 0.07176 0.91149 0.0
O125 O 0.99045 0.99694 0.59265 0.0
O126 O 0.96227 0.0304 0.70959 0.0
C127 C 0.0834 0.01193 0.71738 0.0
C128 C 0.08775 0.96579 0.13677 0.0
C129 C 0.07197 0.91381 0.21866 0.0
C130 C 0.09818 0.93362 0.26459 0.0
C131 C 0.10598 0.95972 0.2243 0.0
C132 C 0.06234 0.94538 0.08902 0.0
C133 C 0.05459 0.91968 0.12909 0.0
C134 C 0.0934 0.99335 0.09395 0.0
C135 C 1.02653 0.94691 0.79013 0.0
H136 H 0.91965 0.08437 0.41761 0.0
H137 H 0.9169 0.03995 0.50358 0.0
H138 H 1.02223 0.04645 0.55712 0.0
H139 H 1.02508 0.09017 0.47063 0.0
H140 H 0.11191 0.92918 0.33294 0.0
H141 H 0.12573 0.97521 0.26191 0.0
H142 H 0.04802 0.94953 0.02126 0.0
H143 H 0.03476 0.90446 0.09019 0.0
Tb144 Tb 0.51977 0.98164 0.7392 0.0
Tb145 Tb 0.54624 0.02791 0.96368 0.0
C146 C 0.53373 0.95662 0.95343 0.0
C147 C 0.49483 0.91255 0.51439 0.0
C148 C 0.44177 0.87588 0.4223 0.0
C149 C 0.46658 0.88284 0.35333 0.0
C150 C 0.49277 0.90204 0.39971 0.0
C151 C 0.47506 0.89875 0.58176 0.0
C152 C 0.44912 0.87916 0.53458 0.0
C153 C 0.51273 0.94139 0.56007 0.0
O154 O 0.47234 0.98744 0.83074 0.0
O155 O 0.49348 0.01961 0.98774 0.0
O156 O 0.54761 0.05453 0.83692 0.0
O157 O 0.51038 0.02758 0.71191 0.0
O158 O 0.57069 0.0435 0.11456 0.0
O159 O 0.53232 0.07093 0.06411 0.0
O160 O 0.59449 0.01898 0.88004 0.0
O161 O 0.57263 0.99102 0.71702 0.0
O162 O 0.51766 0.95402 0.86071 0.0
O163 O 0.55048 0.98191 1.00011 0.0
C164 C 0.46845 1.00405 0.93302 0.0
O165 O 0.49474 0.96644 0.58898 0.0
O166 O 0.53535 0.94018 0.6328 0.0
C167 C 0.52803 0.05267 0.7518 0.0
C168 C 0.57407 0.09749 0.17987 0.0
C169 C 0.63079 0.12829 0.26881 0.0
C170 C 0.60416 0.12614 0.33871 0.0
C171 C 0.57598 0.10965 0.29396 0.0
C172 C 0.59646 0.10763 0.11017 0.0
C173 C 0.62446 0.12435 0.15563 0.0
C174 C 0.55426 0.06956 0.13877 0.0
C175 C 0.59827 1.00392 0.77617 0.0
H176 H 0.46192 0.87974 0.2661 0.0
H177 H 0.50866 0.91177 0.34649 0.0
H178 H 0.47705 0.906 0.6707 0.0
H179 H 0.43078 0.87293 0.58888 0.0
H180 H 0.6079 0.13052 0.42697 0.0
H181 H 0.55815 0.10289 0.34879 0.0
H182 H 0.59474 0.09912 0.02153 0.0
H183 H 0.64432 0.12718 0.10053 0.0
Tb184 Tb 0.52008 0.50198 0.96654 0.0
Tb185 Tb 0.56204 0.51692 0.75939 0.0
C186 C 0.48452 0.51048 0.74382 0.0
C187 C 0.49627 0.4501 0.14726 0.0
C188 C 0.50418 0.393 0.21195 0.0
C189 C 0.48805 0.39387 0.11305 0.0
C190 C 0.48419 0.42188 0.08118 0.0
C191 C 0.51254 0.44929 0.24607 0.0
C192 C 0.51659 0.42112 0.27773 0.0
C193 C 0.49193 0.48002 0.11304 0.0
O194 O 0.54632 0.46045 0.88298 0.0
O195 O 0.54832 0.46816 0.70925 0.0
O196 O 0.59822 0.50137 0.86727 0.0
O197 O 0.56987 0.51586 0.03005 0.0
O198 O 0.56943 0.51447 0.59079 0.0
O199 O 0.60365 0.53928 0.71196 0.0
O200 O 0.55473 0.56006 0.87978 0.0
O201 O 0.50947 0.55143 0.97994 0.0
O202 O 0.48555 0.49617 0.82548 0.0
O203 O 0.51051 0.52588 0.72109 0.0
C204 C 0.54678 0.44957 0.77615 0.0
O205 O 0.51597 0.50024 0.13398 0.0
O206 O 0.47994 0.47806 0.01504 0.0
C207 C 0.59784 0.50838 0.9765 0.0
C208 C 0.59163 0.56159 0.56381 0.0
C209 C 0.58768 0.61527 0.47938 0.0
C210 C 0.61752 0.59884 0.47493 0.0
C211 C 0.61951 0.57244 0.51752 0.0
C212 C 0.56188 0.57809 0.56968 0.0
C213 C 0.55994 0.60468 0.52809 0.0
C214 C 0.59415 0.53394 0.60978 0.0
C215 C 0.52908 0.57033 0.94152 0.0
H216 H 0.47847 0.37274 0.05955 0.0
H217 H 0.4716 0.42132 1.00435 0.0
H218 H 0.52204 0.4705 0.29931 0.0
H219 H 0.52878 0.42148 0.35509 0.0
H220 H 0.63949 0.60659 0.43949 0.0
H221 H 0.64291 0.56058 0.51478 0.0
H222 H 0.54012 0.57042 0.60653 0.0
H223 H 0.53652 0.61658 0.53216 0.0
Tb224 Tb 0.03784 0.53434 0.842 0.0
Tb225 Tb 1.02652 0.47929 0.96534 0.0
C226 C 1.0098 0.54667 0.07213 0.0
C227 C 0.0672 0.60626 0.76006 0.0
C228 C 0.12453 0.63442 0.70718 0.0
C229 C 0.1195 0.63177 0.81586 0.0
C230 C 0.09118 0.61693 0.84156 0.0
C231 C 0.06924 0.61499 0.65976 0.0
C232 C 0.09778 0.62944 0.63387 0.0
C233 C 0.04235 0.58326 0.77238 0.0
O234 O 0.08387 0.53514 0.9434 0.0
O235 O 0.08004 0.48598 0.96945 0.0
O236 O 1.02833 0.45607 0.79262 0.0
O237 O 0.05511 0.49284 0.72116 0.0
O238 O 1.004 0.46262 0.09101 0.0
O239 O 0.0421 0.43629 0.98852 0.0
O240 O 0.97723 0.48352 0.88931 0.0
O241 O 0.99 0.51546 0.77359 0.0
O242 O 1.00121 0.54608 0.97163 0.0
O243 O 1.02813 0.52399 0.0877 0.0
C244 C 0.09698 0.51178 0.97807 0.0
O245 O 0.04611 0.55534 0.71015 0.0
O246 O 0.03448 0.58269 0.87284 0.0
C247 C 0.04447 0.46419 0.71298 0.0
C248 C 1.00063 0.40852 0.05595 0.0
C249 C 0.94484 0.37349 0.076 0.0
C250 C 0.96927 0.37832 0.15796 0.0
C251 C 0.99702 0.39626 0.14847 0.0
C252 C 0.98018 0.39783 0.96417 0.0
C253 C 0.95275 0.37936 0.97309 0.0
C254 C 1.02051 0.43663 0.06612 0.0
C255 C 0.9689 0.49733 0.8095 0.0
H256 H 0.13971 0.63601 0.87436 0.0
H257 H 0.08967 0.61119 0.92094 0.0
H258 H 0.05041 0.60775 0.59721 0.0
H259 H 0.10104 0.63176 0.55037 0.0
H260 H 0.96401 0.37357 0.23728 0.0
H261 H 1.01326 0.40375 0.21865 0.0
H262 H 0.98308 0.40669 0.89105 0.0
H263 H 0.93452 0.37523 0.90773 0.0
H264 H 0.19485 0.95999 0.36425 0.0
H265 H 0.223 0.05619 0.42817 0.0
H266 H 0.17548 0.07011 0.55356 0.0
H267 H 0.12768 0.05386 0.65815 0.0
H268 H 0.10402 0.95644 0.60003 0.0
H269 H 0.15 0.94393 0.47051 0.0
C270 C 0.19055 0.98406 0.40526 0.0
C271 C 0.21268 0.00694 0.38597 0.0
C272 C 0.16445 0.99157 0.48229 0.0
C273 C 0.20624 0.03808 0.43918 0.0
C274 C 0.17929 0.04595 0.51267 0.0
C275 C 0.13242 0.02995 0.61602 0.0
C276 C 0.11217 0.00606 0.63914 0.0
C277 C 0.15852 0.02279 0.53706 0.0
C278 C 0.11884 0.97525 0.58363 0.0
C279 C 0.1449 0.96808 0.50812 0.0
H280 H 0.4958 0.16368 0.52597 0.0
H281 H 0.58765 0.19792 0.68247 0.0
H282 H 0.59417 0.15047 0.74752 0.0
H283 H 0.57174 0.10093 0.77201 0.0
H284 H 0.48035 0.06538 0.61274 0.0
H285 H 0.4757 0.11114 0.53656 0.0
C286 C 0.51751 0.1603 0.57223 0.0
C287 C 0.54124 0.18428 0.59973 0.0
C288 C 0.52094 0.13283 0.61024 0.0
C289 C 0.56911 0.1798 0.66073 0.0
C290 C 0.57273 0.15273 0.69828 0.0
C291 C 0.55082 0.10306 0.72031 0.0
C292 C 0.52622 0.07972 0.69962 0.0
C293 C 0.54844 0.12938 0.67585 0.0
C294 C 0.49962 0.08289 0.6308 0.0
C295 C 0.49691 0.10915 0.58711 0.0
H296 H 0.34066 0.49211 0.52493 0.0
H297 H 0.38441 0.54153 0.30349 0.0
H298 H 0.43819 0.54154 0.39574 0.0
H299 H 0.47187 0.53165 0.55316 0.0
H300 H 0.42556 0.48372 0.77695 0.0
H301 H 0.37439 0.47954 0.67256 0.0
C302 C 0.36222 0.50211 0.49476 0.0
C303 C 0.35831 0.51633 0.40544 0.0
C304 C 0.39273 0.50311 0.55153 0.0
C305 C 0.38657 0.52974 0.3696 0.0
C306 C 0.41729 0.53021 0.42411 0.0
C307 C 0.45064 0.52024 0.57925 0.0
C308 C 0.45315 0.5083 0.67511 0.0
C309 C 0.42056 0.51774 0.51754 0.0
C310 C 0.42498 0.49339 0.70525 0.0
C311 C 0.39543 0.49085 0.64488 0.0
H312 H 1.00508 0.35176 0.32998 0.0
H313 H 0.09543 0.31553 0.42603 0.0
H314 H 0.10895 0.36638 0.54713 0.0
H315 H 0.09027 0.41886 0.64682 0.0
H316 H 0.99923 0.45464 0.55122 0.0
H317 H 0.99045 0.40677 0.40948 0.0
C318 C 1.0282 0.35555 0.37462 0.0
C319 C 0.0494 0.33022 0.36863 0.0
C320 C 0.03539 0.38475 0.44507 0.0
C321 C 0.07907 0.33489 0.42838 0.0
C322 C 0.08656 0.36387 0.49832 0.0
C323 C 0.06938 0.41663 0.59118 0.0
C324 C 0.04583 0.44053 0.60736 0.0
C325 C 0.06438 0.38873 0.51011 0.0
C326 C 1.01816 0.43695 0.5379 0.0
C327 C 1.01297 0.40938 0.45756 0.0
H328 H 0.8575 0.05103 0.31221 0.0
H329 H 0.86607 0.95861 0.35941 0.0
H330 H 0.91813 0.95165 0.25389 0.0
H331 H 0.958 0.97001 0.1266 0.0
H332 H 0.94185 0.05978 0.05989 0.0
H333 H 0.89582 0.06897 0.18887 0.0
C334 C 0.87093 0.02943 0.30047 0.0
C335 C 0.85766 1.00547 0.34467 0.0
C336 C 0.89926 0.02475 0.23217 0.0
C337 C 0.87573 0.97773 0.32872 0.0
C338 C 0.9053 0.97358 0.2663 0.0
C339 C 0.94459 0.99168 0.14124 0.0
C340 C 0.95371 0.01417 0.0824 0.0
C341 C 0.91685 0.99659 0.21425 0.0
C342 C 0.93555 0.04191 0.10232 0.0
C343 C 0.90914 0.04729 0.17681 0.0
H344 H 0.48945 0.83906 0.12229 0.0
H345 H 0.59422 0.83201 0.16658 0.0
H346 H 0.60313 0.88109 0.11321 0.0
H347 H 0.58114 0.92501 0.04208 0.0
H348 H 0.47643 0.92908 0.98562 0.0
H349 H 0.4675 0.88267 0.05453 0.0
C350 C 0.51422 0.84818 0.11963 0.0
C351 C 0.54106 0.83182 0.14901 0.0
C352 C 0.51917 0.87613 0.08635 0.0
C353 C 0.57302 0.84431 0.14642 0.0
C354 C 0.57814 0.87235 0.11508 0.0
C355 C 0.55638 0.91596 0.04674 0.0
C356 C 0.52947 0.93065 1.00915 0.0
C357 C 0.55143 0.88844 0.08382 0.0
C358 C 0.49757 0.91827 0.01395 0.0
C359 C 0.49242 0.89162 0.05309 0.0
H360 H 0.74256 0.49747 0.16981 0.0
H361 H 0.68771 0.50321 0.46884 0.0
H362 H 0.63621 0.50987 0.37281 0.0
H363 H 0.6061 0.51165 0.20018 0.0
H364 H 0.66157 0.50255 0.89899 0.0
H365 H 0.71288 0.49979 0.99864 0.0
C366 C 0.7194 0.50085 0.21458 0.0
C367 C 0.71932 0.50033 0.32758 0.0
C368 C 0.68971 0.50387 0.15767 0.0
C369 C 0.68885 0.50428 0.3833 0.0
C370 C 0.65928 0.50779 0.32771 0.0
C371 C 0.62938 0.50921 0.15605 0.0
C372 C 0.62943 0.50729 0.04076 0.0
C373 C 0.65925 0.50724 0.21434 0.0
C374 C 0.66023 0.50399 0.98661 0.0
C375 C 0.68981 0.50249 0.044 0.0
H376 H 0.97505 0.68234 0.3348 0.0
H377 H 0.06996 0.6742 0.47772 0.0
H378 H 0.07179 0.61872 0.38466 0.0
H379 H 0.04952 0.5744 0.24503 0.0
H380 H 0.95663 0.58429 0.08953 0.0
H381 H 0.95028 0.63655 0.20675 0.0
C382 C 0.99539 0.66797 0.34887 0.0
C383 C 1.02198 0.68194 0.41478 0.0
C384 C 0.99671 0.6364 0.29224 0.0
C385 C 0.04892 0.66357 0.42949 0.0
C386 C 0.05007 0.63202 0.37571 0.0
C387 C 1.02748 0.5877 0.23921 0.0
C388 C 1.00353 0.57541 0.15893 0.0
C389 C 1.02455 0.61835 0.30437 0.0
C390 C 0.97541 0.59321 0.15075 0.0
C391 C 0.97181 0.62318 0.21753 0.0
H392 H 0.97732 0.20464 0.21731 0.0
H393 H 1.03152 0.2438 0.51441 0.0
H394 H 1.02067 0.19745 0.58222 0.0
H395 H 1.00003 0.14423 0.54973 0.0
H396 H 0.94816 0.10312 0.24926 0.0
H397 H 0.95408 0.15146 0.1883 0.0
C398 C 0.98618 0.20298 0.29745 0.0
C399 C 1.00474 0.22753 0.36179 0.0
C400 C 0.98081 0.17577 0.33387 0.0
C401 C 1.01647 0.22538 0.46522 0.0
C402 C 1.01068 0.19877 0.50309 0.0
C403 C 0.98998 0.14592 0.47094 0.0
C404 C 0.97404 0.12017 0.40319 0.0
C405 C 0.99357 0.17359 0.43699 0.0
C406 C 0.96054 0.1227 0.3024 0.0
C407 C 0.96399 0.15029 0.26769 0.0
H408 H 0.31621 0.91894 0.20523 0.0
H409 H 0.33525 0.99992 0.4661 0.0
H410 H 0.37945 0.97297 0.53749 0.0
H411 H 0.41218 0.92746 0.52444 0.0
H412 H 0.39977 0.84731 0.25358 0.0
H413 H 0.35213 0.87224 0.18788 0.0
C414 C 0.33071 0.93051 0.27618 0.0
C415 C 0.32335 0.9612 0.33058 0.0
C416 C 0.35606 0.91477 0.31618 0.0
C417 C 0.34145 0.97641 0.42314 0.0
C418 C 0.36614 0.96092 0.4644 0.0
C419 C 0.3984 0.91486 0.45306 0.0
C420 C 0.40848 0.88512 0.39614 0.0
C421 C 0.3733 0.93008 0.41227 0.0
C422 C 0.39152 0.86978 0.30057 0.0
C423 C 0.36486 0.88427 0.26218 0.0
H424 H 0.49777 0.31339 0.5714 0.0
H425 H 0.57727 0.29243 0.76961 0.0
H426 H 0.58715 0.3479 0.84537 0.0
H427 H 0.57581 0.4025 0.84376 0.0
H428 H 0.50509 0.42213 0.61243 0.0
H429 H 0.4908 0.36694 0.55349 0.0
C430 C 0.51768 0.32097 0.62937 0.0
C431 C 0.53685 0.29882 0.66418 0.0
C432 C 0.52542 0.35264 0.6636 0.0
C433 C 0.56171 0.309 0.74307 0.0
C434 C 0.56778 0.3407 0.78474 0.0
C435 C 0.55752 0.39452 0.77975 0.0
C436 C 0.54152 0.41609 0.73211 0.0
C437 C 0.55028 0.36271 0.74368 0.0
C438 C 0.51794 0.40574 0.64908 0.0
C439 C 0.5095 0.37431 0.61642 0.0
H440 H 0.244 0.5953 0.3843 0.0
H441 H 0.24135 0.519 0.54121 0.0
H442 H 0.19822 0.54453 0.6672 0.0
H443 H 0.16134 0.58728 0.72851 0.0
H444 H 0.15863 0.66265 0.56593 0.0
H445 H 0.20506 0.63948 0.4475 0.0
C446 C 0.23327 0.58435 0.44509 0.0
C447 C 0.24496 0.55543 0.45424 0.0
C448 C 0.20868 0.59936 0.51736 0.0
C449 C 0.23188 0.54116 0.5334 0.0
C450 C 0.20775 0.55586 0.60567 0.0
C451 C 0.1716 0.59936 0.66998 0.0
C452 C 0.1574 0.62709 0.65789 0.0
C453 C 0.19629 0.58502 0.59888 0.0
C454 C 0.16995 0.64169 0.57826 0.0
C455 C 0.19596 0.62816 0.50959 0.0
H456 H 1.00343 0.80402 0.37226 0.0
H457 H 0.10419 0.77777 0.40544 0.0
H458 H 0.1237 0.82333 0.34263 0.0
H459 H 0.11115 0.87088 0.27947 0.0
H460 H 1.00943 0.89803 0.26145 0.0
H461 H 0.99097 0.85238 0.3211 0.0
C462 C 1.02962 0.80862 0.36664 0.0
C463 C 0.05246 0.78811 0.39347 0.0
C464 C 0.0403 0.83507 0.33455 0.0
C465 C 0.08638 0.79347 0.38408 0.0
C466 C 0.09739 0.81952 0.34929 0.0
C467 C 0.08502 0.86691 0.28992 0.0
C468 C 0.06167 0.88748 0.26457 0.0
C469 C 0.0745 0.84061 0.32489 0.0
C470 C 1.02783 0.88213 0.27824 0.0
C471 C 1.01723 0.85611 0.31246 0.0
H472 H 0.75471 0.07589 0.46744 0.0
H473 H 0.72146 0.99291 0.23799 0.0
H474 H 0.67693 0.02188 0.17594 0.0
H475 H 0.64876 0.07032 0.18626 0.0
H476 H 0.67874 0.15389 0.42104 0.0
H477 H 0.72437 0.1254 0.48204 0.0
C478 C 0.7372 0.06441 0.40514 0.0
C479 C 0.74066 0.03264 0.35665 0.0
C480 C 0.71212 0.08135 0.36991 0.0
C481 C 0.71857 0.0174 0.2757 0.0
C482 C 0.69356 0.03396 0.24007 0.0
C483 C 0.66582 0.08257 0.24886 0.0
C484 C 0.66147 0.11435 0.29652 0.0
C485 C 0.69052 0.06593 0.28557 0.0
C486 C 0.68254 0.12965 0.38124 0.0
C487 C 0.70817 0.11329 0.41668 0.0
H488 H 0.54064 0.71391 0.97907 0.0
H489 H 0.48422 0.71904 0.27415 0.0
H490 H 0.47891 0.66221 0.22999 0.0
H491 H 0.49559 0.61033 0.11397 0.0
H492 H 0.55062 0.60769 0.81522 0.0
H493 H 0.55036 0.66362 0.85237 0.0
C494 C 0.52597 0.70261 0.03098 0.0
C495 C 0.51248 0.72056 0.12868 0.0
C496 C 0.52319 0.67008 1.00512 0.0
C497 C 0.49452 0.70557 0.19767 0.0
C498 C 0.49174 0.67309 0.17284 0.0
C499 C 0.50702 0.62203 0.05646 0.0
C500 C 0.52378 0.60452 0.96337 0.0
C501 C 0.50679 0.65491 0.07793 0.0
C502 C 0.53823 0.62028 0.88925 0.0
C503 C 0.53805 0.65248 0.90989 0.0
H504 H 0.81994 0.40571 0.37885 0.0
H505 H 0.82862 0.48762 0.25323 0.0
H506 H 0.87152 0.46327 0.12465 0.0
H507 H 0.90798 0.42084 0.05699 0.0
H508 H 0.90726 0.34078 0.19573 0.0
H509 H 0.85869 0.36144 0.308 0.0
C510 C 0.83175 0.418 0.32383 0.0
C511 C 0.82192 0.44833 0.32491 0.0
C512 C 0.85687 0.40391 0.25132 0.0
C513 C 0.83666 0.46439 0.25354 0.0
C514 C 0.86069 0.45038 0.17964 0.0
C515 C 0.89655 0.40718 0.10851 0.0
C516 C 0.91057 0.37894 0.11603 0.0
C517 C 0.87094 0.42026 0.17807 0.0
C518 C 0.89625 0.36224 0.18681 0.0
C519 C 0.86899 0.37434 0.25227 0.0
H520 H 1.01661 0.21771 0.03496 0.0
H521 H 0.08166 0.21129 0.29966 0.0
H522 H 0.08887 0.15557 0.21986 0.0
H523 H 0.07209 0.10787 0.08491 0.0
H524 H 1.00684 0.11395 0.81838 0.0
H525 H 1.00441 0.17035 0.88743 0.0
C526 C 1.03328 0.20417 0.07233 0.0
C527 C 0.04912 0.21852 0.17182 0.0
C528 C 0.0367 0.17196 0.02669 0.0
C529 C 0.06991 0.20074 0.22183 0.0
C530 C 0.0736 0.16885 0.17693 0.0
C531 C 0.05757 0.1215 0.04105 0.0
C532 C 0.03943 0.10642 0.94683 0.0
C533 C 0.0564 0.15403 0.08102 0.0
C534 C 1.02104 0.12472 0.89099 0.0
C535 C 1.01958 0.15707 0.93065 0.0
H536 H 0.35204 0.02029 0.29004 0.0
H537 H 0.29409 0.97428 1.01059 0.0
H538 H 0.34248 0.97282 0.88926 0.0
H539 H 0.40351 0.98252 0.86405 0.0
H540 H 0.45953 0.02805 0.15228 0.0
H541 H 0.41081 0.03109 0.26564 0.0
C542 C 0.34986 0.01026 0.20234 0.0
C543 C 0.31907 0.99781 0.15994 0.0
C544 C 0.37809 0.00893 0.13355 0.0
C545 C 0.31708 0.98469 0.04569 0.0
C546 C 0.34504 0.98353 0.97634 0.0
C547 C 0.4051 0.9932 0.95144 0.0
C548 C 0.43609 1.00508 0.99729 0.0
C549 C 0.37607 0.99521 0.01926 0.0
C550 C 0.43677 0.01875 0.11186 0.0
C551 C 0.40858 0.02059 0.17822 0.0
H552 H 0.4883 0.26676 0.36455 0.0
H553 H 0.58837 0.28856 0.47001 0.0
H554 H 0.58836 0.33332 0.38687 0.0
H555 H 0.55749 0.36975 0.30237 0.0
H556 H 0.45643 0.34857 0.20213 0.0
H557 H 0.45903 0.30058 0.26458 0.0
C558 C 0.51045 0.28062 0.36487 0.0
C559 C 0.53846 0.27419 0.42204 0.0
C560 C 0.50972 0.30707 0.32041 0.0
C561 C 0.5668 0.2928 0.42477 0.0
C562 C 0.56653 0.3187 0.37892 0.0
C563 C 0.53606 0.3546 0.29387 0.0
C564 C 0.50676 0.36305 0.24759 0.0
C565 C 0.53773 0.32675 0.32992 0.0
C566 C 0.47942 0.34275 0.23635 0.0
C567 C 0.48085 0.3152 0.27233 0.0
H568 H 0.2144 0.50329 0.31306 0.0
H569 H 0.27193 0.54426 0.09497 0.0
H570 H 0.22266 0.54516 0.97994 0.0
H571 H 0.16119 0.53531 0.94298 0.0
H572 H 0.10591 0.49348 0.16579 0.0
H573 H 0.15513 0.49276 0.27611 0.0
C574 C 0.21632 0.51235 0.24014 0.0
C575 C 0.2474 0.52358 0.21354 0.0
C576 C 0.18759 0.51312 0.17494 0.0
C577 C 0.24887 0.53496 0.1175 0.0
C578 C 0.22036 0.5358 0.05208 0.0
C579 C 0.15982 0.52629 0.0161 0.0
C580 C 0.12899 0.5146 0.04502 0.0
C581 C 0.18921 0.52524 0.0802 0.0
C582 C 0.12865 0.50263 0.13999 0.0
C583 C 0.15708 0.50211 0.20381 0.0
H584 H 0.06216 0.8042 0.64869 0.0
H585 H 0.96065 0.79533 0.54721 0.0
H586 H 0.95237 0.85132 0.62442 0.0
H587 H 0.97653 0.90422 0.70418 0.0
H588 H 0.07919 0.91052 0.8024 0.0
H589 H 0.08444 0.85481 0.74321 0.0
C590 C 0.03795 0.81445 0.64731 0.0
C591 C 1.01198 0.7957 0.59392 0.0
C592 C 1.03383 0.84658 0.68884 0.0
C593 C 0.98081 0.80921 0.59022 0.0
C594 C 0.97632 0.84134 0.6326 0.0
C595 C 0.99994 0.89337 0.71322 0.0
C596 C 1.02747 0.9121 0.75677 0.0
C597 C 1.003 0.86055 0.67925 0.0
C598 C 0.0575 0.89725 0.76851 0.0
C599 C 0.06066 0.86512 0.73491 0.0
H600 H 0.71959 0.97656 0.43913 0.0
H601 H 0.76995 0.04283 0.6943 0.0
H602 H 0.72069 0.04658 0.81352 0.0
H603 H 0.66052 0.03314 0.84016 0.0
H604 H 0.61235 0.96706 0.57487 0.0
H605 H 0.66246 0.96164 0.46712 0.0
C606 C 0.72002 0.99146 0.52168 0.0
C607 C 0.74891 0.00896 0.55756 0.0
C608 C 0.69129 0.99399 0.58839 0.0
C609 C 0.74863 0.02844 0.66472 0.0
C610 C 0.7201 0.03087 0.73251 0.0
C611 C 0.66101 0.01738 0.75924 0.0
C612 C 0.63167 1.00077 0.71723 0.0
C613 C 0.69083 0.0141 0.6948 0.0
C614 C 0.63363 0.98055 0.61122 0.0
C615 C 0.66265 0.97723 0.54845 0.0
H616 H 0.58327 0.71562 0.19496 0.0
H617 H 0.5243 0.7638 0.46816 0.0
H618 H 0.53484 0.7228 0.56552 0.0
H619 H 0.55678 0.67073 0.56398 0.0
H620 H 0.61293 0.62139 0.28306 0.0
H621 H 0.60735 0.66495 0.1969 0.0
C622 C 0.57352 0.71734 0.27705 0.0
C623 C 0.55345 0.7427 0.32544 0.0
C624 C 0.57862 0.69312 0.32977 0.0
C625 C 0.54036 0.74473 0.43087 0.0
C626 C 0.546 0.72108 0.48543 0.0
C627 C 0.56785 0.66955 0.48401 0.0
C628 C 0.58528 0.64272 0.43024 0.0
C629 C 0.56436 0.69472 0.43431 0.0
C630 C 0.59975 0.6418 0.32708 0.0
C631 C 0.59648 0.66669 0.27745 0.0
H632 H 0.82746 0.45371 0.58929 0.0
H633 H 0.83586 0.54018 0.49264 0.0
H634 H 0.88912 0.55058 0.58875 0.0
H635 H 0.93494 0.53427 0.69602 0.0
H636 H 0.92509 0.44888 0.80079 0.0
H637 H 0.87155 0.43905 0.70725 0.0
C638 C 0.84071 0.47509 0.59082 0.0
C639 C 0.82692 0.49641 0.53481 0.0
C640 C 0.87155 0.48101 0.64751 0.0
C641 C 0.845 0.52373 0.53677 0.0
C642 C 0.87582 0.52949 0.59112 0.0
C643 C 0.92111 0.51351 0.69909 0.0
C644 C 0.93477 0.4923 0.7562 0.0
C645 C 0.88959 0.50823 0.64627 0.0
C646 C 0.91576 0.46577 0.75875 0.0
C647 C 0.88494 0.46007 0.7046 0.0
loop_
_geom_bond_atom_site_label_1
_geom_bond_atom_site_label_2
_geom_bond_distance
_geom_bond_site_symmetry_2
_ccdc_geom_bond_type
C0 N1 1.317 . S
C0 N2 1.348 . S
C0 C3 1.485 . S
N1 C0 1.317 . S
N1 N5 1.370 . S
N2 C0 1.348 . S
N2 C4 1.346 . S
C3 C0 1.485 . S
C3 H7 0.960 . S
C3 H8 0.961 . S
C3 H9 0.960 . S
C4 N2 1.346 . S
C4 N5 1.307 . S
C4 C6 1.486 . S
N5 N1 1.370 . S
N5 C4 1.307 . S
C6 C4 1.486 . S
C6 H10 0.960 . S
C6 H11 0.960 . S
C6 H12 0.959 . S
H7 C3 0.960 . S
H8 C3 0.961 . S
H9 C3 0.960 . S
H10 C6 0.960 . S
H11 C6 0.960 . S
H12 C6 0.959 . S
C13 N14 1.317 . S
C13 N15 1.348 . S
C13 C16 1.485 . S
N14 C13 1.317 . S
N14 N18 1.371 . S
N15 C13 1.348 . S
N15 C17 1.346 1_655 S
C16 C13 1.485 . S
C16 H20 0.960 1_655 S
C16 H21 0.961 . S
C16 H22 0.960 . S
C17 N15 1.346 1_455 S
C17 N18 1.307 1_455 S
C17 C19 1.486 . S
N18 N14 1.371 . S
N18 C17 1.307 1_655 S
C19 C17 1.486 . S
C19 H23 0.960 1_455 S
C19 H24 0.960 . S
C19 H25 0.959 . S
H20 C16 0.960 1_455 S
H21 C16 0.961 . S
H22 C16 0.960 . S
H23 C19 0.960 1_655 S
H24 C19 0.960 . S
H25 C19 0.959 . S
C26 N27 1.317 . S
C26 N28 1.348 . S
C26 C29 1.485 . S
N27 C26 1.317 . S
N27 N31 1.374 . S
N28 C26 1.348 . S
N28 C30 1.346 1_565 S
C29 C26 1.485 . S
C29 H33 0.960 1_565 S
C29 H34 0.961 . S
C29 H35 0.960 . S
C30 N28 1.346 1_545 S
C30 N31 1.305 1_545 S
C30 C32 1.487 . S
N31 N27 1.374 . S
N31 C30 1.305 1_565 S
C32 C30 1.487 . S
C32 H36 0.960 1_545 S
C32 H37 0.960 . S
C32 H38 0.959 . S
H33 C29 0.960 1_545 S
H34 C29 0.961 . S
H35 C29 0.960 . S
H36 C32 0.960 1_565 S
H37 C32 0.960 . S
H38 C32 0.959 . S
C39 N40 1.317 . S
C39 N41 1.348 1_554 S
C39 C42 1.485 . S
N40 C39 1.317 . S
N40 N44 1.370 1_554 S
N41 C39 1.348 1_556 S
N41 C43 1.346 . S
C42 C39 1.485 . S
C42 H46 0.960 . S
C42 H47 0.961 . S
C42 H48 0.960 . S
C43 N41 1.346 . S
C43 N44 1.307 . S
C43 C45 1.486 . S
N44 N40 1.370 1_556 S
N44 C43 1.307 . S
C45 C43 1.486 . S
C45 H49 0.960 . S
C45 H50 0.960 . S
C45 H51 0.959 . S
H46 C42 0.960 . S
H47 C42 0.961 . S
H48 C42 0.960 . S
H49 C45 0.960 . S
H50 C45 0.960 . S
H51 C45 0.959 . S
C52 N53 1.317 . S
C52 N54 1.348 . S
C52 C55 1.485 1_554 S
N53 C52 1.317 . S
N53 N57 1.370 . S
N54 C52 1.348 . S
N54 C56 1.346 . S
C55 C52 1.485 1_556 S
C55 H59 0.960 . S
C55 H60 0.961 1_556 S
C55 H61 0.960 . S
C56 N54 1.346 . S
C56 N57 1.307 . S
C56 C58 1.486 . S
N57 N53 1.370 . S
N57 C56 1.307 . S
C58 C56 1.486 . S
C58 H62 0.960 . S
C58 H63 0.960 . S
C58 H64 0.959 . S
H59 C55 0.960 . S
H60 C55 0.961 1_554 S
H61 C55 0.960 . S
H62 C58 0.960 . S
H63 C58 0.960 . S
H64 C58 0.959 . S
C65 N66 1.317 . S
C65 N67 1.350 . S
C65 C68 1.485 . S
N66 C65 1.317 . S
N66 N70 1.370 . S
N67 C65 1.350 . S
N67 C69 1.345 1_655 S
C68 C65 1.485 . S
C68 H72 0.960 1_655 S
C68 H73 0.961 . S
C68 H74 0.960 . S
C69 N67 1.345 1_455 S
C69 N70 1.307 1_455 S
C69 C71 1.486 . S
N70 N66 1.370 . S
N70 C69 1.307 1_655 S
C71 C69 1.486 . S
C71 H75 0.960 1_455 S
C71 H76 0.960 . S
C71 H77 0.959 . S
H72 C68 0.960 1_455 S
H73 C68 0.961 . S
H74 C68 0.960 . S
H75 C71 0.960 1_655 S
H76 C71 0.960 . S
H77 C71 0.959 . S
C78 N79 1.317 . S
C78 N80 1.343 . S
C78 C81 1.485 . S
N79 C78 1.317 . S
N79 N83 1.370 . S
N80 C78 1.343 . S
N80 C82 1.353 1_565 S
C81 C78 1.485 . S
C81 H85 0.960 1_565 S
C81 H86 0.961 . S
C81 H87 0.960 1_554 S
C82 N80 1.353 1_545 S
C82 N83 1.308 1_545 S
C82 C84 1.484 . S
N83 N79 1.370 . S
N83 C82 1.308 1_565 S
C84 C82 1.484 . S
C84 H88 0.960 1_545 S
C84 H89 0.960 . S
C84 H90 0.959 . S
H85 C81 0.960 1_545 S
H86 C81 0.961 . S
H87 C81 0.960 1_556 S
H88 C84 0.960 1_565 S
H89 C84 0.960 . S
H90 C84 0.959 . S
C91 N92 1.317 . S
C91 N93 1.348 . S
C91 C94 1.485 . S
N92 C91 1.317 . S
N92 N96 1.370 . S
N93 C91 1.348 . S
N93 C95 1.346 . S
C94 C91 1.485 . S
C94 H98 0.960 . S
C94 H99 0.961 . S
C94 H100 0.960 . S
C95 N93 1.346 . S
C95 N96 1.307 . S
C95 C97 1.486 . S
N96 N92 1.370 . S
N96 C95 1.307 . S
C97 C95 1.486 . S
C97 H101 0.960 . S
C97 H102 0.960 . S
C97 H103 0.959 . S
H98 C94 0.960 . S
H99 C94 0.961 . S
H100 C94 0.960 . S
H101 C97 0.960 . S
H102 C97 0.960 . S
H103 C97 0.959 . S
Tb104 C113 2.764 . S
Tb104 O114 2.325 . S
Tb104 O117 2.303 1_655 S
Tb104 O121 2.322 1_545 S
Tb104 O122 2.349 . S
Tb104 O125 2.415 . S
Tb104 O126 2.399 . S
Tb105 O115 2.322 1_565 S
Tb105 O116 2.349 . S
Tb105 O118 2.415 1_556 S
Tb105 O119 2.399 1_556 S
Tb105 O120 2.325 . S
Tb105 O123 2.303 1_455 S
Tb105 C134 2.764 1_556 S
C106 O122 1.261 . S
C106 O123 1.257 1_545 S
C107 C110 1.358 . S
C107 C111 1.332 . S
C107 C113 1.504 . S
C108 C109 1.373 . S
C108 C112 1.308 . S
C109 C108 1.373 . S
C109 C110 1.429 . S
C109 H136 0.932 . S
C110 C107 1.358 . S
C110 C109 1.429 . S
C110 H137 0.930 . S
C111 C107 1.332 . S
C111 C112 1.394 . S
C111 H138 0.932 1_655 S
C112 C108 1.308 . S
C112 C111 1.394 . S
C112 H139 0.929 . S
C113 Tb104 2.764 . S
C113 C107 1.504 . S
C113 O125 1.239 . S
C113 O126 1.263 . S
O114 Tb104 2.325 . S
O114 C124 1.236 1_655 S
O115 Tb105 2.322 1_545 S
O115 C124 1.257 . S
O116 Tb105 2.349 . S
O116 C127 1.261 . S
O117 Tb104 2.303 1_455 S
O117 C127 1.257 1_545 S
O118 Tb105 2.415 1_554 S
O118 C134 1.239 . S
O119 Tb105 2.399 1_554 S
O119 C134 1.263 . S
O120 Tb105 2.325 . S
O120 C135 1.236 1_455 S
O121 Tb104 2.322 1_565 S
O121 C135 1.257 . S
O122 Tb104 2.349 . S
O122 C106 1.261 . S
O123 Tb105 2.303 1_655 S
O123 C106 1.257 1_565 S
C124 O114 1.236 1_455 S
C124 O115 1.257 . S
O125 Tb104 2.415 . S
O125 C113 1.239 . S
O126 Tb104 2.399 . S
O126 C113 1.263 . S
C127 O116 1.261 . S
C127 O117 1.257 1_565 S
C128 C131 1.358 . S
C128 C132 1.332 . S
C128 C134 1.504 . S
C129 C130 1.373 . S
C129 C133 1.308 . S
C130 C129 1.373 . S
C130 C131 1.429 . S
C130 H140 0.932 . S
C131 C128 1.358 . S
C131 C130 1.429 . S
C131 H141 0.930 . S
C132 C128 1.332 . S
C132 C133 1.394 . S
C132 H142 0.932 1_455 S
C133 C129 1.308 . S
C133 C132 1.394 . S
C133 H143 0.929 . S
C134 Tb105 2.764 1_554 S
C134 O118 1.239 . S
C134 O119 1.263 . S
C134 C128 1.504 . S
C135 O120 1.236 1_655 S
C135 O121 1.257 . S
H136 C109 0.932 . S
H137 C110 0.930 . S
H138 C111 0.932 1_455 S
H139 C112 0.929 . S
H140 C130 0.932 . S
H141 C131 0.930 . S
H142 C132 0.932 1_655 S
H143 C133 0.929 . S
Tb144 C153 2.764 . S
Tb144 O154 2.325 . S
Tb144 O157 2.303 1_565 S
Tb144 O161 2.322 . S
Tb144 O162 2.349 . S
Tb144 O165 2.415 1_565 S
Tb144 O166 2.399 . S
Tb145 O155 2.322 1_554 S
Tb145 O156 2.349 1_554 S
Tb145 O158 2.415 1_545 S
Tb145 O159 2.399 . S
Tb145 O160 2.325 1_554 S
Tb145 O163 2.303 1_544 S
Tb145 C174 2.764 . S
C146 O162 1.261 . S
C146 O163 1.257 . S
C147 C150 1.358 . S
C147 C151 1.332 1_565 S
C147 C153 1.504 . S
C148 C149 1.373 . S
C148 C152 1.308 1_565 S
C149 C148 1.373 . S
C149 C150 1.429 . S
C149 H176 0.932 . S
C150 C147 1.358 . S
C150 C149 1.429 . S
C150 H177 0.930 . S
C151 C147 1.332 1_545 S
C151 C152 1.394 . S
C151 H178 0.932 . S
C152 C148 1.308 1_545 S
C152 C151 1.394 . S
C152 H179 0.929 . S
C153 Tb144 2.764 . S
C153 C147 1.504 . S
C153 O165 1.239 1_565 S
C153 O166 1.263 . S
O154 Tb144 2.325 . S
O154 C164 1.236 1_565 S
O155 Tb145 2.322 1_556 S
O155 C164 1.257 . S
O156 Tb145 2.349 1_556 S
O156 C167 1.261 . S
O157 Tb144 2.303 1_545 S
O157 C167 1.257 . S
O158 Tb145 2.415 1_565 S
O158 C174 1.239 1_565 S
O159 Tb145 2.399 . S
O159 C174 1.263 . S
O160 Tb145 2.325 1_556 S
O160 C175 1.236 1_545 S
O161 Tb144 2.322 . S
O161 C175 1.257 . S
O162 Tb144 2.349 . S
O162 C146 1.261 . S
O163 Tb145 2.303 1_566 S
O163 C146 1.257 . S
C164 O154 1.236 1_545 S
C164 O155 1.257 . S
O165 Tb144 2.415 1_545 S
O165 C153 1.239 1_545 S
O166 Tb144 2.399 . S
O166 C153 1.263 . S
C167 O156 1.261 . S
C167 O157 1.257 . S
C168 C171 1.358 . S
C168 C172 1.332 1_545 S
C168 C174 1.504 . S
C169 C170 1.373 . S
C169 C173 1.280 1_545 S
C170 C169 1.373 . S
C170 C171 1.429 . S
C170 H180 0.932 . S
C171 C168 1.358 . S
C171 C170 1.429 . S
C171 H181 0.930 . S
C172 C168 1.332 1_565 S
C172 C173 1.391 . S
C172 H182 0.932 . S
C173 C169 1.280 1_565 S
C173 C172 1.391 . S
C173 H183 0.961 . S
C174 Tb145 2.764 . S
C174 O158 1.239 1_545 S
C174 O159 1.263 . S
C174 C168 1.504 . S
C175 O160 1.236 1_565 S
C175 O161 1.257 . S
H176 C149 0.932 . S
H177 C150 0.930 . S
H178 C151 0.932 . S
H179 C152 0.929 . S
H180 C170 0.932 . S
H181 C171 0.930 . S
H182 C172 0.932 . S
H183 C173 0.961 . S
Tb184 C193 2.764 1_556 S
Tb184 O194 2.325 . S
Tb184 O197 2.303 . S
Tb184 O201 2.322 . S
Tb184 O202 2.349 . S
Tb184 O205 2.415 1_556 S
Tb184 O206 2.399 1_556 S
Tb185 O195 2.322 . S
Tb185 O196 2.349 . S
Tb185 O198 2.415 . S
Tb185 O199 2.399 . S
Tb185 O200 2.325 . S
Tb185 O203 2.303 . S
Tb185 C214 2.764 . S
C186 O202 1.261 . S
C186 O203 1.257 . S
C187 C190 1.358 . S
C187 C191 1.332 . S
C187 C193 1.504 . S
C188 C189 1.373 . S
C188 C192 1.308 . S
C189 C188 1.373 . S
C189 C190 1.429 . S
C189 H216 0.932 . S
C190 C187 1.358 . S
C190 C189 1.429 . S
C190 H217 0.930 . S
C191 C187 1.332 . S
C191 C192 1.394 . S
C191 H218 0.932 . S
C192 C188 1.308 . S
C192 C191 1.394 . S
C192 H219 0.929 . S
C193 Tb184 2.764 1_554 S
C193 C187 1.504 . S
C193 O205 1.239 . S
C193 O206 1.263 . S
O194 Tb184 2.325 . S
O194 C204 1.236 . S
O195 Tb185 2.322 . S
O195 C204 1.257 . S
O196 Tb185 2.349 . S
O196 C207 1.261 . S
O197 Tb184 2.303 . S
O197 C207 1.257 . S
O198 Tb185 2.415 . S
O198 C214 1.239 . S
O199 Tb185 2.399 . S
O199 C214 1.263 . S
O200 Tb185 2.325 . S
O200 C215 1.236 . S
O201 Tb184 2.322 . S
O201 C215 1.257 . S
O202 Tb184 2.349 . S
O202 C186 1.261 . S
O203 Tb185 2.303 . S
O203 C186 1.257 . S
C204 O194 1.236 . S
C204 O195 1.257 . S
O205 Tb184 2.415 1_554 S
O205 C193 1.239 . S
O206 Tb184 2.399 1_554 S
O206 C193 1.263 . S
C207 O196 1.261 . S
C207 O197 1.257 . S
C208 C211 1.358 . S
C208 C212 1.332 . S
C208 C214 1.504 . S
C209 C210 1.373 . S
C209 C213 1.308 . S
C210 C209 1.373 . S
C210 C211 1.429 . S
C210 H220 0.932 . S
C211 C208 1.358 . S
C211 C210 1.429 . S
C211 H221 0.930 . S
C212 C208 1.332 . S
C212 C213 1.394 . S
C212 H222 0.932 . S
C213 C209 1.308 . S
C213 C212 1.394 . S
C213 H223 0.929 . S
C214 Tb185 2.764 . S
C214 O198 1.239 . S
C214 O199 1.263 . S
C214 C208 1.504 . S
C215 O200 1.236 . S
C215 O201 1.257 . S
H216 C189 0.932 . S
H217 C190 0.930 . S
H218 C191 0.932 . S
H219 C192 0.929 . S
H220 C210 0.932 . S
H221 C211 0.930 . S
H222 C212 0.932 . S
H223 C213 0.929 . S
Tb224 C233 2.764 . S
Tb224 O234 2.325 . S
Tb224 O237 2.303 . S
Tb224 O241 2.322 1_455 S
Tb224 O242 2.349 . S
Tb224 O245 2.415 . S
Tb224 O246 2.399 . S
Tb225 O235 2.322 1_655 S
Tb225 O236 2.349 . S
Tb225 O238 2.415 1_556 S
Tb225 O239 2.399 1_556 S
Tb225 O240 2.325 . S
Tb225 O243 2.303 . S
Tb225 C254 2.764 1_556 S
C226 O242 1.261 . S
C226 O243 1.257 1_455 S
C227 C230 1.358 . S
C227 C231 1.332 . S
C227 C233 1.504 . S
C228 C229 1.373 . S
C228 C232 1.308 . S
C229 C228 1.373 . S
C229 C230 1.429 . S
C229 H256 0.932 . S
C230 C227 1.358 . S
C230 C229 1.429 . S
C230 H257 0.930 . S
C231 C227 1.332 . S
C231 C232 1.394 . S
C231 H258 0.932 . S
C232 C228 1.308 . S
C232 C231 1.394 . S
C232 H259 0.929 . S
C233 Tb224 2.764 . S
C233 C227 1.504 . S
C233 O245 1.239 . S
C233 O246 1.263 . S
O234 Tb224 2.325 . S
O234 C244 1.236 . S
O235 Tb225 2.322 1_455 S
O235 C244 1.257 . S
O236 Tb225 2.349 . S
O236 C247 1.261 . S
O237 Tb224 2.303 . S
O237 C247 1.257 1_455 S
O238 Tb225 2.415 1_554 S
O238 C254 1.239 . S
O239 Tb225 2.399 1_554 S
O239 C254 1.263 . S
O240 Tb225 2.325 . S
O240 C255 1.236 . S
O241 Tb224 2.322 1_655 S
O241 C255 1.257 . S
O242 Tb224 2.349 . S
O242 C226 1.261 . S
O243 Tb225 2.303 . S
O243 C226 1.257 1_655 S
C244 O234 1.236 . S
C244 O235 1.257 . S
O245 Tb224 2.415 . S
O245 C233 1.239 . S
O246 Tb224 2.399 . S
O246 C233 1.263 . S
C247 O236 1.261 . S
C247 O237 1.257 1_655 S
C248 C251 1.358 . S
C248 C252 1.332 . S
C248 C254 1.504 . S
C249 C250 1.373 . S
C249 C253 1.308 . S
C250 C249 1.373 . S
C250 C251 1.429 . S
C250 H260 0.932 . S
C251 C248 1.358 . S
C251 C250 1.429 . S
C251 H261 0.930 . S
C252 C248 1.332 . S
C252 C253 1.394 . S
C252 H262 0.932 . S
C253 C249 1.308 . S
C253 C252 1.394 . S
C253 H263 0.929 . S
C254 Tb225 2.764 1_554 S
C254 O238 1.239 . S
C254 O239 1.263 . S
C254 C248 1.504 . S
C255 O240 1.236 . S
C255 O241 1.257 . S
H256 C229 0.932 . S
H257 C230 0.930 . S
H258 C231 0.932 . S
H259 C232 0.929 . S
H260 C250 0.932 . S
H261 C251 0.930 . S
H262 C252 0.932 . S
H263 C253 0.929 . S
H264 C270 0.930 . S
H265 C273 0.930 . S
H266 C274 0.930 . S
H267 C275 0.930 . S
H268 C278 0.930 . S
H269 C279 0.930 . S
C270 H264 0.930 . S
C270 C271 1.355 1_565 S
C270 C272 1.415 . S
C271 C270 1.355 1_545 S
C271 C273 1.419 . S
C272 C270 1.415 . S
C272 C277 1.425 1_565 S
C272 C279 1.409 . S
C273 H265 0.930 . S
C273 C271 1.419 . S
C273 C274 1.362 . S
C274 H266 0.930 . S
C274 C273 1.362 . S
C274 C277 1.409 . S
C275 H267 0.930 . S
C275 C276 1.360 . S
C275 C277 1.415 . S
C276 C275 1.360 . S
C276 C278 1.420 1_545 S
C277 C272 1.425 1_545 S
C277 C274 1.409 . S
C277 C275 1.415 . S
C278 H268 0.930 . S
C278 C276 1.420 1_565 S
C278 C279 1.362 . S
C279 H269 0.930 . S
C279 C272 1.409 . S
C279 C278 1.362 . S
H280 C286 0.930 . S
H281 C289 0.930 . S
H282 C290 0.930 . S
H283 C291 0.930 . S
H284 C294 0.930 . S
H285 C295 0.930 . S
C286 H280 0.930 . S
C286 C287 1.355 . S
C286 C288 1.415 . S
C287 C286 1.355 . S
C287 C289 1.419 . S
C288 C286 1.415 . S
C288 C293 1.425 . S
C288 C295 1.409 . S
C289 H281 0.930 . S
C289 C287 1.419 . S
C289 C290 1.362 . S
C290 H282 0.930 . S
C290 C289 1.362 . S
C290 C293 1.409 . S
C291 H283 0.930 . S
C291 C292 1.355 . S
C291 C293 1.415 . S
C292 C291 1.355 . S
C292 C294 1.419 . S
C293 C288 1.425 . S
C293 C290 1.409 . S
C293 C291 1.415 . S
C294 H284 0.930 . S
C294 C292 1.419 . S
C294 C295 1.362 . S
C295 H285 0.930 . S
C295 C288 1.409 . S
C295 C294 1.362 . S
H296 C302 0.930 . S
H297 C305 0.930 . S
H298 C306 0.930 . S
H299 C307 0.930 . S
H300 C310 0.930 . S
H301 C311 0.930 . S
C302 H296 0.930 . S
C302 C303 1.355 . S
C302 C304 1.415 . S
C303 C302 1.355 . S
C303 C305 1.419 . S
C304 C302 1.415 . S
C304 C309 1.425 . S
C304 C311 1.409 . S
C305 H297 0.930 . S
C305 C303 1.419 . S
C305 C306 1.362 . S
C306 H298 0.930 . S
C306 C305 1.362 . S
C306 C309 1.409 . S
C307 H299 0.930 . S
C307 C308 1.355 . S
C307 C309 1.415 . S
C308 C307 1.355 . S
C308 C310 1.419 . S
C309 C304 1.425 . S
C309 C306 1.409 . S
C309 C307 1.415 . S
C310 H300 0.930 . S
C310 C308 1.419 . S
C310 C311 1.362 . S
C311 H301 0.930 . S
C311 C304 1.409 . S
C311 C310 1.362 . S
H312 C318 0.930 . S
H313 C321 0.930 . S
H314 C322 0.930 . S
H315 C323 0.930 . S
H316 C326 0.930 . S
H317 C327 0.930 . S
C318 H312 0.930 . S
C318 C319 1.355 1_655 S
C318 C320 1.415 . S
C319 C318 1.355 1_455 S
C319 C321 1.419 . S
C320 C318 1.415 . S
C320 C325 1.425 1_655 S
C320 C327 1.409 . S
C321 H313 0.930 . S
C321 C319 1.419 . S
C321 C322 1.362 . S
C322 H314 0.930 . S
C322 C321 1.362 . S
C322 C325 1.409 . S
C323 H315 0.930 . S
C323 C324 1.352 1_455 S
C323 C325 1.415 . S
C324 C323 1.352 1_655 S
C324 C326 1.422 . S
C325 C320 1.425 1_455 S
C325 C322 1.409 . S
C325 C323 1.415 . S
C326 H316 0.930 . S
C326 C324 1.422 . S
C326 C327 1.362 . S
C327 H317 0.930 . S
C327 C320 1.409 . S
C327 C326 1.362 . S
H328 C334 0.930 . S
H329 C337 0.930 . S
H330 C338 0.930 . S
H331 C339 0.930 . S
H332 C342 0.930 . S
H333 C343 0.930 . S
C334 H328 0.930 . S
C334 C335 1.355 1_545 S
C334 C336 1.415 . S
C335 C334 1.355 1_565 S
C335 C337 1.419 . S
C336 C334 1.415 . S
C336 C341 1.425 1_545 S
C336 C343 1.409 . S
C337 H329 0.930 . S
C337 C335 1.419 . S
C337 C338 1.362 . S
C338 H330 0.930 . S
C338 C337 1.362 . S
C338 C341 1.409 . S
C339 H331 0.930 . S
C339 C340 1.355 . S
C339 C341 1.415 . S
C340 C339 1.355 . S
C340 C342 1.419 1_565 S
C341 C336 1.425 1_565 S
C341 C338 1.409 . S
C341 C339 1.415 . S
C342 H332 0.930 . S
C342 C340 1.419 1_545 S
C342 C343 1.362 . S
C343 H333 0.930 . S
C343 C336 1.409 . S
C343 C342 1.362 . S
H344 C350 0.930 . S
H345 C353 0.936 . S
H346 C354 0.930 1_554 S
H347 C355 0.930 . S
H348 C358 0.930 . S
H349 C359 0.930 . S
C350 H344 0.930 . S
C350 C351 1.355 . S
C350 C352 1.415 . S
C351 C350 1.355 . S
C351 C353 1.417 1_556 S
C352 C350 1.415 . S
C352 C357 1.425 . S
C352 C359 1.409 . S
C353 H345 0.936 . S
C353 C351 1.417 1_554 S
C353 C354 1.358 1_554 S
C354 H346 0.930 1_556 S
C354 C353 1.358 1_556 S
C354 C357 1.409 . S
C355 H347 0.930 . S
C355 C356 1.355 . S
C355 C357 1.415 . S
C356 C355 1.355 . S
C356 C358 1.419 . S
C357 C352 1.425 . S
C357 C354 1.409 . S
C357 C355 1.415 . S
C358 H348 0.930 . S
C358 C356 1.419 . S
C358 C359 1.362 . S
C359 H349 0.930 . S
C359 C352 1.409 . S
C359 C358 1.362 . S
H360 C366 0.930 . S
H361 C369 0.930 . S
H362 C370 0.930 . S
H363 C371 0.930 . S
H364 C374 0.930 . S
H365 C375 0.930 . S
C366 H360 0.930 . S
C366 C367 1.355 . S
C366 C368 1.415 . S
C367 C366 1.355 . S
C367 C369 1.419 . S
C368 C366 1.415 . S
C368 C373 1.425 . S
C368 C375 1.409 . S
C369 H361 0.930 . S
C369 C367 1.419 . S
C369 C370 1.362 . S
C370 H362 0.930 . S
C370 C369 1.362 . S
C370 C373 1.409 . S
C371 H363 0.930 . S
C371 C372 1.355 . S
C371 C373 1.415 . S
C372 C371 1.355 . S
C372 C374 1.419 . S
C373 C368 1.425 . S
C373 C370 1.409 . S
C373 C371 1.415 . S
C374 H364 0.930 . S
C374 C372 1.419 . S
C374 C375 1.362 . S
C375 H365 0.930 . S
C375 C368 1.409 . S
C375 C374 1.362 . S
H376 C382 0.930 . S
H377 C385 0.930 . S
H378 C386 0.930 . S
H379 C387 0.930 . S
H380 C390 0.930 . S
H381 C391 0.930 . S
C382 H376 0.930 . S
C382 C383 1.355 1_655 S
C382 C384 1.415 . S
C383 C382 1.355 1_455 S
C383 C385 1.419 . S
C384 C382 1.415 . S
C384 C389 1.425 1_655 S
C384 C391 1.409 . S
C385 H377 0.930 . S
C385 C383 1.419 . S
C385 C386 1.362 . S
C386 H378 0.930 . S
C386 C385 1.362 . S
C386 C389 1.409 . S
C387 H379 0.930 . S
C387 C388 1.355 1_455 S
C387 C389 1.415 . S
C388 C387 1.355 1_655 S
C388 C390 1.419 . S
C389 C384 1.425 1_455 S
C389 C386 1.409 . S
C389 C387 1.415 . S
C390 H380 0.930 . S
C390 C388 1.419 . S
C390 C391 1.362 . S
C391 H381 0.930 . S
C391 C384 1.409 . S
C391 C390 1.362 . S
H392 C398 0.930 . S
H393 C401 0.930 . S
H394 C402 0.930 . S
H395 C403 0.930 . S
H396 C406 0.930 . S
H397 C407 0.930 . S
C398 H392 0.930 . S
C398 C399 1.358 . S
C398 C400 1.415 . S
C399 C398 1.358 . S
C399 C401 1.417 1_655 S
C400 C398 1.415 . S
C400 C405 1.425 . S
C400 C407 1.409 . S
C401 H393 0.930 . S
C401 C399 1.417 1_455 S
C401 C402 1.362 . S
C402 H394 0.930 . S
C402 C401 1.362 . S
C402 C405 1.409 1_455 S
C403 H395 0.930 . S
C403 C404 1.355 . S
C403 C405 1.415 . S
C404 C403 1.355 . S
C404 C406 1.419 . S
C405 C400 1.425 . S
C405 C402 1.409 1_655 S
C405 C403 1.415 . S
C406 H396 0.930 . S
C406 C404 1.419 . S
C406 C407 1.362 . S
C407 H397 0.930 . S
C407 C400 1.409 . S
C407 C406 1.362 . S
H408 C414 0.930 . S
H409 C417 0.930 . S
H410 C418 0.930 . S
H411 C419 0.930 . S
H412 C422 0.930 . S
H413 C423 0.930 . S
C414 H408 0.930 . S
C414 C415 1.355 1_565 S
C414 C416 1.415 . S
C415 C414 1.355 1_545 S
C415 C417 1.419 . S
C416 C414 1.415 . S
C416 C421 1.425 . S
C416 C423 1.409 . S
C417 H409 0.930 . S
C417 C415 1.419 . S
C417 C418 1.362 1_545 S
C418 H410 0.930 . S
C418 C417 1.362 1_565 S
C418 C421 1.409 . S
C419 H411 0.930 . S
C419 C420 1.355 . S
C419 C421 1.415 . S
C420 C419 1.355 . S
C420 C422 1.419 . S
C421 C416 1.425 . S
C421 C418 1.409 . S
C421 C419 1.415 . S
C422 H412 0.930 . S
C422 C420 1.419 . S
C422 C423 1.362 . S
C423 H413 0.930 . S
C423 C416 1.409 . S
C423 C422 1.362 . S
H424 C430 0.930 . S
H425 C433 0.930 . S
H426 C434 0.930 . S
H427 C435 0.930 . S
H428 C438 0.930 . S
H429 C439 0.930 . S
C430 H424 0.930 . S
C430 C431 1.355 . S
C430 C432 1.415 . S
C431 C430 1.355 . S
C431 C433 1.419 . S
C432 C430 1.415 . S
C432 C437 1.425 . S
C432 C439 1.409 . S
C433 H425 0.930 . S
C433 C431 1.419 . S
C433 C434 1.362 . S
C434 H426 0.930 . S
C434 C433 1.362 . S
C434 C437 1.409 . S
C435 H427 0.930 . S
C435 C436 1.355 . S
C435 C437 1.415 . S
C436 C435 1.355 . S
C436 C438 1.419 . S
C437 C432 1.425 . S
C437 C434 1.409 . S
C437 C435 1.415 . S
C438 H428 0.930 . S
C438 C436 1.419 . S
C438 C439 1.362 . S
C439 H429 0.930 . S
C439 C432 1.409 . S
C439 C438 1.362 . S
H440 C446 0.930 . S
H441 C449 0.930 . S
H442 C450 0.930 . S
H443 C451 0.930 . S
H444 C454 0.930 . S
H445 C455 0.930 . S
C446 H440 0.930 . S
C446 C447 1.355 . S
C446 C448 1.415 . S
C447 C446 1.355 . S
C447 C449 1.419 . S
C448 C446 1.415 . S
C448 C453 1.425 . S
C448 C455 1.409 . S
C449 H441 0.930 . S
C449 C447 1.419 . S
C449 C450 1.362 . S
C450 H442 0.930 . S
C450 C449 1.362 . S
C450 C453 1.409 . S
C451 H443 0.930 . S
C451 C452 1.355 . S
C451 C453 1.415 . S
C452 C451 1.355 . S
C452 C454 1.419 . S
C453 C448 1.425 . S
C453 C450 1.409 . S
C453 C451 1.415 . S
C454 H444 0.930 . S
C454 C452 1.419 . S
C454 C455 1.362 . S
C455 H445 0.930 . S
C455 C448 1.409 . S
C455 C454 1.362 . S
H456 C462 0.930 . S
H457 C465 0.930 . S
H458 C466 0.930 . S
H459 C467 0.930 . S
H460 C470 0.930 . S
H461 C471 0.930 1_655 S
C462 H456 0.930 . S
C462 C463 1.355 1_655 S
C462 C464 1.415 1_655 S
C463 C462 1.355 1_455 S
C463 C465 1.419 . S
C464 C462 1.415 1_455 S
C464 C469 1.425 . S
C464 C471 1.409 . S
C465 H457 0.930 . S
C465 C463 1.419 . S
C465 C466 1.362 . S
C466 H458 0.930 . S
C466 C465 1.362 . S
C466 C469 1.409 . S
C467 H459 0.930 . S
C467 C468 1.355 . S
C467 C469 1.415 . S
C468 C467 1.355 . S
C468 C470 1.419 . S
C469 C464 1.425 . S
C469 C466 1.409 . S
C469 C467 1.415 . S
C470 H460 0.930 . S
C470 C468 1.419 . S
C470 C471 1.362 . S
C471 H461 0.930 1_455 S
C471 C464 1.409 . S
C471 C470 1.362 . S
H472 C478 0.930 . S
H473 C481 0.930 . S
H474 C482 0.930 . S
H475 C483 0.930 . S
H476 C486 0.930 . S
H477 C487 0.930 . S
C478 H472 0.930 . S
C478 C479 1.355 1_545 S
C478 C480 1.415 . S
C479 C478 1.355 1_565 S
C479 C481 1.419 . S
C480 C478 1.415 . S
C480 C485 1.425 . S
C480 C487 1.409 . S
C481 H473 0.930 . S
C481 C479 1.419 . S
C481 C482 1.362 . S
C482 H474 0.930 . S
C482 C481 1.362 . S
C482 C485 1.409 1_565 S
C483 H475 0.930 . S
C483 C484 1.355 . S
C483 C485 1.415 . S
C484 C483 1.355 . S
C484 C486 1.419 . S
C485 C480 1.425 . S
C485 C482 1.409 1_545 S
C485 C483 1.415 . S
C486 H476 0.930 . S
C486 C484 1.419 . S
C486 C487 1.362 . S
C487 H477 0.930 . S
C487 C480 1.409 . S
C487 C486 1.362 . S
H488 C494 0.930 . S
H489 C497 0.930 . S
H490 C498 0.930 . S
H491 C499 0.930 1_554 S
H492 C502 0.930 . S
H493 C503 0.930 . S
C494 H488 0.930 . S
C494 C495 1.355 . S
C494 C496 1.415 . S
C495 C494 1.355 . S
C495 C497 1.419 1_556 S
C496 C494 1.415 . S
C496 C501 1.425 . S
C496 C503 1.409 . S
C497 H489 0.930 . S
C497 C495 1.419 1_554 S
C497 C498 1.362 . S
C498 H490 0.930 . S
C498 C497 1.362 . S
C498 C501 1.409 1_554 S
C499 H491 0.930 1_556 S
C499 C500 1.355 . S
C499 C501 1.415 . S
C500 C499 1.355 . S
C500 C502 1.419 . S
C501 C496 1.425 . S
C501 C498 1.409 1_556 S
C501 C499 1.415 . S
C502 H492 0.930 . S
C502 C500 1.419 . S
C502 C503 1.362 . S
C503 H493 0.930 . S
C503 C496 1.409 . S
C503 C502 1.362 . S
H504 C510 0.930 . S
H505 C513 0.930 . S
H506 C514 0.930 . S
H507 C515 0.930 . S
H508 C518 0.930 . S
H509 C519 0.930 . S
C510 H504 0.930 . S
C510 C511 1.355 . S
C510 C512 1.415 . S
C511 C510 1.355 . S
C511 C513 1.419 . S
C512 C510 1.415 . S
C512 C517 1.425 . S
C512 C519 1.409 . S
C513 H505 0.930 . S
C513 C511 1.419 . S
C513 C514 1.362 . S
C514 H506 0.930 . S
C514 C513 1.362 . S
C514 C517 1.409 . S
C515 H507 0.930 . S
C515 C516 1.355 . S
C515 C517 1.415 . S
C516 C515 1.355 . S
C516 C518 1.419 . S
C517 C512 1.425 . S
C517 C514 1.409 . S
C517 C515 1.415 . S
C518 H508 0.930 . S
C518 C516 1.419 . S
C518 C519 1.362 . S
C519 H509 0.930 . S
C519 C512 1.409 . S
C519 C518 1.362 . S
H520 C526 0.930 1_556 S
H521 C529 0.930 . S
H522 C530 0.930 . S
H523 C531 0.930 . S
H524 C534 0.930 . S
H525 C535 0.930 . S
C526 H520 0.930 1_554 S
C526 C527 1.355 1_655 S
C526 C528 1.409 1_655 S
C527 C526 1.355 1_455 S
C527 C529 1.419 . S
C528 C526 1.409 1_455 S
C528 C533 1.438 . S
C528 C535 1.403 1_454 S
C529 H521 0.930 . S
C529 C527 1.419 . S
C529 C530 1.362 . S
C530 H522 0.930 . S
C530 C529 1.362 . S
C530 C533 1.409 . S
C531 H523 0.930 . S
C531 C532 1.355 1_554 S
C531 C533 1.415 . S
C532 C531 1.355 1_556 S
C532 C534 1.419 1_455 S
C533 C528 1.438 . S
C533 C530 1.409 . S
C533 C531 1.415 . S
C534 H524 0.930 . S
C534 C532 1.419 1_655 S
C534 C535 1.362 . S
C535 H525 0.930 . S
C535 C528 1.403 1_656 S
C535 C534 1.362 . S
H536 C542 0.930 . S
H537 C545 0.930 . S
H538 C546 0.930 . S
H539 C547 0.930 . S
H540 C550 0.930 . S
H541 C551 0.930 . S
C542 H536 0.930 . S
C542 C543 1.355 . S
C542 C544 1.415 . S
C543 C542 1.355 . S
C543 C545 1.419 1_544 S
C544 C542 1.415 . S
C544 C549 1.425 1_544 S
C544 C551 1.409 . S
C545 H537 0.930 . S
C545 C543 1.419 1_566 S
C545 C546 1.362 . S
C546 H538 0.930 . S
C546 C545 1.362 . S
C546 C549 1.409 . S
C547 H539 0.930 . S
C547 C548 1.355 1_565 S
C547 C549 1.415 . S
C548 C547 1.355 1_545 S
C548 C550 1.419 1_556 S
C549 C544 1.425 1_566 S
C549 C546 1.409 . S
C549 C547 1.415 . S
C550 H540 0.930 . S
C550 C548 1.419 1_554 S
C550 C551 1.362 . S
C551 H541 0.930 . S
C551 C544 1.409 . S
C551 C550 1.362 . S
H552 C558 0.930 . S
H553 C561 0.930 . S
H554 C562 0.930 . S
H555 C563 0.930 . S
H556 C566 0.930 . S
H557 C567 0.930 . S
C558 H552 0.930 . S
C558 C559 1.355 . S
C558 C560 1.415 . S
C559 C558 1.355 . S
C559 C561 1.419 . S
C560 C558 1.415 . S
C560 C565 1.425 . S
C560 C567 1.409 . S
C561 H553 0.930 . S
C561 C559 1.419 . S
C561 C562 1.362 . S
C562 H554 0.930 . S
C562 C561 1.362 . S
C562 C565 1.409 . S
C563 H555 0.930 . S
C563 C564 1.355 . S
C563 C565 1.415 . S
C564 C563 1.355 . S
C564 C566 1.419 . S
C565 C560 1.425 . S
C565 C562 1.409 . S
C565 C563 1.415 . S
C566 H556 0.930 . S
C566 C564 1.419 . S
C566 C567 1.362 . S
C567 H557 0.930 . S
C567 C560 1.409 . S
C567 C566 1.362 . S
H568 C574 0.930 . S
H569 C577 0.930 . S
H570 C578 0.930 . S
H571 C579 0.930 . S
H572 C582 0.930 . S
H573 C583 0.930 . S
C574 H568 0.930 . S
C574 C575 1.355 1_556 S
C574 C576 1.415 . S
C575 C574 1.355 1_554 S
C575 C577 1.419 . S
C576 C574 1.415 . S
C576 C581 1.425 1_556 S
C576 C583 1.409 . S
C577 H569 0.930 . S
C577 C575 1.419 . S
C577 C578 1.362 . S
C578 H570 0.930 . S
C578 C577 1.362 . S
C578 C581 1.409 . S
C579 H571 0.930 . S
C579 C580 1.355 1_554 S
C579 C581 1.415 . S
C580 C579 1.355 1_556 S
C580 C582 1.419 . S
C581 C576 1.425 1_554 S
C581 C578 1.409 . S
C581 C579 1.415 . S
C582 H572 0.930 . S
C582 C580 1.419 . S
C582 C583 1.362 . S
C583 H573 0.930 . S
C583 C576 1.409 . S
C583 C582 1.362 . S
H584 C590 0.932 . S
H585 C593 0.930 . S
H586 C594 0.930 . S
H587 C595 0.930 . S
H588 C598 0.930 . S
H589 C599 0.930 . S
C590 H584 0.932 . S
C590 C591 1.355 . S
C590 C592 1.415 . S
C591 C590 1.355 . S
C591 C593 1.419 . S
C592 C590 1.415 . S
C592 C597 1.425 . S
C592 C599 1.409 . S
C593 H585 0.930 . S
C593 C591 1.419 . S
C593 C594 1.362 . S
C594 H586 0.930 . S
C594 C593 1.362 . S
C594 C597 1.409 . S
C595 H587 0.930 . S
C595 C596 1.355 . S
C595 C597 1.415 . S
C596 C595 1.355 . S
C596 C598 1.419 . S
C597 C592 1.425 . S
C597 C594 1.409 . S
C597 C595 1.415 . S
C598 H588 0.930 . S
C598 C596 1.419 . S
C598 C599 1.362 . S
C599 H589 0.930 . S
C599 C592 1.409 . S
C599 C598 1.362 . S
H600 C606 0.930 . S
H601 C609 0.930 . S
H602 C610 0.930 . S
H603 C611 0.930 . S
H604 C614 0.930 . S
H605 C615 0.930 . S
C606 H600 0.930 . S
C606 C607 1.342 1_565 S
C606 C608 1.415 . S
C607 C606 1.342 1_545 S
C607 C609 1.432 . S
C608 C606 1.415 . S
C608 C613 1.425 1_565 S
C608 C615 1.409 . S
C609 H601 0.930 . S
C609 C607 1.432 . S
C609 C610 1.362 . S
C610 H602 0.930 . S
C610 C609 1.362 . S
C610 C613 1.409 . S
C611 H603 0.930 . S
C611 C612 1.355 1_545 S
C611 C613 1.415 . S
C612 C611 1.355 1_565 S
C612 C614 1.419 . S
C613 C608 1.425 1_545 S
C613 C610 1.409 . S
C613 C611 1.415 . S
C614 H604 0.930 . S
C614 C612 1.419 . S
C614 C615 1.362 . S
C615 H605 0.930 . S
C615 C608 1.409 . S
C615 C614 1.362 . S
H616 C622 0.930 . S
H617 C625 0.930 . S
H618 C626 0.930 . S
H619 C627 0.930 . S
H620 C630 0.930 . S
H621 C631 0.930 . S
C622 H616 0.930 . S
C622 C623 1.355 . S
C622 C624 1.415 . S
C623 C622 1.355 . S
C623 C625 1.419 . S
C624 C622 1.415 . S
C624 C629 1.425 . S
C624 C631 1.409 . S
C625 H617 0.930 . S
C625 C623 1.419 . S
C625 C626 1.362 . S
C626 H618 0.930 . S
C626 C625 1.362 . S
C626 C629 1.409 . S
C627 H619 0.930 . S
C627 C628 1.355 . S
C627 C629 1.415 . S
C628 C627 1.355 . S
C628 C630 1.419 . S
C629 C624 1.425 . S
C629 C626 1.409 . S
C629 C627 1.415 . S
C630 H620 0.930 . S
C630 C628 1.419 . S
C630 C631 1.362 . S
C631 H621 0.930 . S
C631 C624 1.409 . S
C631 C630 1.362 . S
H632 C638 0.930 . S
H633 C641 0.930 . S
H634 C642 0.930 . S
H635 C643 0.930 . S
H636 C646 0.930 . S
H637 C647 0.930 . S
C638 H632 0.930 . S
C638 C639 1.355 . S
C638 C640 1.415 . S
C639 C638 1.355 . S
C639 C641 1.419 . S
C640 C638 1.415 . S
C640 C645 1.425 . S
C640 C647 1.409 . S
C641 H633 0.930 . S
C641 C639 1.419 . S
C641 C642 1.362 . S
C642 H634 0.930 . S
C642 C641 1.362 . S
C642 C645 1.409 . S
C643 H635 0.930 . S
C643 C644 1.355 . S
C643 C645 1.415 . S
C644 C643 1.355 . S
C644 C646 1.419 . S
C645 C640 1.425 . S
C645 C642 1.409 . S
C645 C643 1.415 . S
C646 H636 0.930 . S
C646 C644 1.419 . S
C646 C647 1.362 . S
C647 H637 0.930 . S
C647 C640 1.409 . S
C647 C646 1.362 . S
C271 N80 1.954 1_545 S
C276 C127 2.077 1_545 S
C292 C167 1.800 . S
C287 N93 1.782 . S
C308 C186 2.090 . S
C303 N54 1.969 . S
C324 C247 1.434 . S
C319 N67 1.422 1_455 S
C340 C106 2.090 1_564 S
C335 N28 1.948 . S
C351 N41 1.806 . S
C356 C146 1.774 . S
C367 N2 1.988 . S
C372 C207 2.088 1_554 S
C383 N15 1.348 1_455 S
C388 C226 1.453 1_654 S
C404 C108 1.026 . S
C399 N70 1.021 . S
C420 C148 0.446 . S
C415 N83 0.437 1_545 S
C436 C204 1.026 . S
C431 N96 1.030 . S
C447 N57 0.522 . S
C452 C228 0.589 . S
C463 N18 0.968 1_455 S
C468 C129 0.945 . S
C484 C169 0.430 . S
C479 N31 0.423 . S
C500 C215 1.043 . S
C495 N44 1.019 . S
C511 N5 0.527 . S
C516 C249 0.518 . S
C527 N66 1.610 1_455 S
C532 C124 1.683 . S
C543 N79 2.383 1_545 S
C548 C164 2.448 . S
C564 C188 1.588 . S
C559 N92 1.667 . S
C580 C244 2.440 . S
C575 N53 2.329 . S
C591 N14 1.675 . S
C596 C135 1.708 . S
C612 C175 2.454 . S
C607 N27 2.375 1_545 S
C628 C209 1.599 . S
C623 N40 1.642 . S
C639 N1 2.336 . S
C644 C255 2.420 . S
