# Generated by pormake.
# Topology pyr, (3,6)-cn, num edge types: 1
# Building blocks:
#     Node 0, Type 0, BuildingBlock: VETTIZ_charged_linker_0, # of connection points: 3
#     Node 1, Type 0, BuildingBlock: VETTIZ_charged_linker_0, # of connection points: 3
#     Node 2, Type 0, BuildingBlock: VETTIZ_charged_linker_0, # of connection points: 3
#     Node 3, Type 0, BuildingBlock: VETTIZ_charged_linker_0, # of connection points: 3
#     Node 4, Type 0, BuildingBlock: VETTIZ_charged_linker_0, # of connection points: 3
#     Node 5, Type 0, BuildingBlock: VETTIZ_charged_linker_0, # of connection points: 3
#     Node 6, Type 0, BuildingBlock: VETTIZ_charged_linker_0, # of connection points: 3
#     Node 7, Type 0, BuildingBlock: VETTIZ_charged_linker_0, # of connection points: 3
#     Node 8, Type 1, BuildingBlock: JUFBIX_clean_sbu_0, # of connection points: 6
#     Node 9, Type 1, BuildingBlock: JUFBIX_clean_sbu_0, # of connection points: 6
#     Node 10, Type 1, BuildingBlock: JUFBIX_clean_sbu_0, # of connection points: 6
#     Node 11, Type 1, BuildingBlock: JUFBIX_clean_sbu_0, # of connection points: 6
#     Edge 12, Type (0, 1), BuildingBlock: MIFKUJ_clean_linker_0, # of connection points: 2
#     Edge 13, Type (0, 1), BuildingBlock: MIFKUJ_clean_linker_0, # of connection points: 2
#     Edge 14, Type (0, 1), BuildingBlock: MIFKUJ_clean_linker_0, # of connection points: 2
#     Edge 15, Type (0, 1), BuildingBlock: MIFKUJ_clean_linker_0, # of connection points: 2
#     Edge 16, Type (0, 1), BuildingBlock: MIFKUJ_clean_linker_0, # of connection points: 2
#     Edge 17, Type (0, 1), BuildingBlock: MIFKUJ_clean_linker_0, # of connection points: 2
#     Edge 18, Type (0, 1), BuildingBlock: MIFKUJ_clean_linker_0, # of connection points: 2
#     Edge 19, Type (0, 1), BuildingBlock: MIFKUJ_clean_linker_0, # of connection points: 2
#     Edge 20, Type (0, 1), BuildingBlock: MIFKUJ_clean_linker_0, # of connection points: 2
#     Edge 21, Type (0, 1), BuildingBlock: MIFKUJ_clean_linker_0, # of connection points: 2
#     Edge 22, Type (0, 1), BuildingBlock: MIFKUJ_clean_linker_0, # of connection points: 2
#     Edge 23, Type (0, 1), BuildingBlock: MIFKUJ_clean_linker_0, # of connection points: 2
#     Edge 24, Type (0, 1), BuildingBlock: MIFKUJ_clean_linker_0, # of connection points: 2
#     Edge 25, Type (0, 1), BuildingBlock: MIFKUJ_clean_linker_0, # of connection points: 2
#     Edge 26, Type (0, 1), BuildingBlock: MIFKUJ_clean_linker_0, # of connection points: 2
#     Edge 27, Type (0, 1), BuildingBlock: MIFKUJ_clean_linker_0, # of connection points: 2
#     Edge 28, Type (0, 1), BuildingBlock: MIFKUJ_clean_linker_0, # of connection points: 2
#     Edge 29, Type (0, 1), BuildingBlock: MIFKUJ_clean_linker_0, # of connection points: 2
#     Edge 30, Type (0, 1), BuildingBlock: MIFKUJ_clean_linker_0, # of connection points: 2
#     Edge 31, Type (0, 1), BuildingBlock: MIFKUJ_clean_linker_0, # of connection points: 2
#     Edge 32, Type (0, 1), BuildingBlock: MIFKUJ_clean_linker_0, # of connection points: 2
#     Edge 33, Type (0, 1), BuildingBlock: MIFKUJ_clean_linker_0, # of connection points: 2
#     Edge 34, Type (0, 1), BuildingBlock: MIFKUJ_clean_linker_0, # of connection points: 2
#     Edge 35, Type (0, 1), BuildingBlock: MIFKUJ_clean_linker_0, # of connection points: 2
# Relax obj value: 0.036
# Max RMSD: 0.087
# Mean RMSD: 0.029
data_MOF--net-pyr--node1-JUFBIX_clean_sbu_0--node2-VETTIZ_charged_linker_0--edge1-MIFKUJ_clean_linker_0
_symmetry_space_group_name_H-M    P1
_symmetry_Int_Tables_number       1
_symmetry_cell_setting            triclinic
loop_
_symmetry_equiv_pos_as_xyz
'x, y, z'
_cell_length_a     56.869376
_cell_length_b     54.615721
_cell_length_c     56.828658
_cell_angle_alpha  86.766646
_cell_angle_beta   90.493646
_cell_angle_gamma 91.70471
loop_
_atom_site_label
_atom_site_type_symbol
_atom_site_fract_x
_atom_site_fract_y
_atom_site_fract_z
_atom_type_partial_charge
C0 C 0.1568 0.11311 0.24068 0.0
C1 C 0.13606 0.12032 0.25171 0.0
C2 C 0.12414 0.14057 0.24127 0.0
C3 C 0.15278 0.1456 0.20963 0.0
C4 C 0.16472 0.12588 0.21969 0.0
C5 C 0.18608 0.12048 0.20533 0.0
H6 H 0.25536 0.1474 0.10893 0.0
C7 C 0.16538 0.15491 0.18787 0.0
C8 C 0.18499 0.14018 0.18517 0.0
H9 H 0.26428 0.08991 0.16345 0.0
H10 H 0.22977 0.10279 0.18329 0.0
H11 H 0.24244 0.189 0.14419 0.0
H12 H 0.19767 0.14101 0.1045 0.0
H13 H 0.18695 0.17095 0.10137 0.0
H14 H 0.21587 0.16505 0.09073 0.0
H15 H 0.23911 0.1932 0.11279 0.0
H16 H 0.21889 0.20611 0.13267 0.0
C17 C 0.20822 0.12392 0.22094 0.0
C18 C 0.18271 0.09437 0.19639 0.0
C19 C 0.13406 0.22901 0.13934 0.0
C20 C 0.14196 0.24251 0.11883 0.0
C21 C 0.16249 0.23475 0.10789 0.0
C22 C 0.17482 0.2143 0.11707 0.0
C23 C 0.1668 0.20118 0.13764 0.0
C24 C 0.14672 0.20867 0.14842 0.0
C25 C 0.141 0.19285 0.17037 0.0
C26 C 0.16087 0.17467 0.17104 0.0
C27 C 0.17596 0.17952 0.15172 0.0
C28 C 0.14222 0.20937 0.19167 0.0
C29 C 0.11671 0.18001 0.16663 0.0
C30 C 0.24981 0.1374 0.12501 0.0
C31 C 0.2629 0.11749 0.13446 0.0
C32 C 0.25497 0.10544 0.15575 0.0
C33 C 0.23472 0.11288 0.16726 0.0
C34 C 0.22193 0.13277 0.15762 0.0
C35 C 0.22963 0.14473 0.13685 0.0
C36 C 0.21416 0.16586 0.12942 0.0
C37 C 0.19578 0.16445 0.14888 0.0
C38 C 0.20035 0.14493 0.16546 0.0
C39 C 0.22931 0.18988 0.12955 0.0
C40 C 0.2031 0.1607 0.10516 0.0
H41 H 0.12224 0.16828 0.21374 0.0
H42 H 0.16645 0.09763 0.24796 0.0
H43 H 0.16414 0.09099 0.19084 0.0
H44 H 0.19331 0.09146 0.18068 0.0
H45 H 0.18701 0.0802 0.21044 0.0
H46 H 0.20655 0.14009 0.23182 0.0
H47 H 0.21079 0.10758 0.23313 0.0
H48 H 0.22438 0.12767 0.21059 0.0
H49 H 0.11858 0.23443 0.14847 0.0
H50 H 0.16895 0.2444 0.09196 0.0
H51 H 0.1902 0.20949 0.10776 0.0
H52 H 0.1565 0.22366 0.18932 0.0
H53 H 0.12545 0.21892 0.19372 0.0
H54 H 0.14654 0.19921 0.20841 0.0
H55 H 0.11445 0.17498 0.14802 0.0
H56 H 0.1145 0.16251 0.1772 0.0
H57 H 0.10216 0.19221 0.17067 0.0
H58 H 0.10847 0.14702 0.24936 0.0
C59 C 0.13229 0.1531 0.22052 0.0
C60 C 0.33408 0.89702 0.57303 0.0
C61 C 0.32495 0.91956 0.5786 0.0
C62 C 0.33713 0.93395 0.59484 0.0
C63 C 0.36623 0.90264 0.60075 0.0
C64 C 0.35472 0.88902 0.58417 0.0
C65 C 0.36647 0.86526 0.58061 0.0
H66 H 0.451 0.78518 0.61189 0.0
C67 C 0.38656 0.88863 0.60973 0.0
C68 C 0.387 0.8669 0.59773 0.0
H69 H 0.395 0.77737 0.5607 0.0
H70 H 0.38199 0.81788 0.56765 0.0
H71 H 0.46613 0.84001 0.59681 0.0
H72 H 0.41855 0.81096 0.65076 0.0
H73 H 0.43806 0.83265 0.66283 0.0
H74 H 0.44959 0.80569 0.65111 0.0
H75 H 0.47672 0.8276 0.62469 0.0
H76 H 0.46885 0.85937 0.6204 0.0
C77 C 0.37481 0.8656 0.55469 0.0
C78 C 0.34888 0.84395 0.58786 0.0
C79 C 0.43355 0.91755 0.67975 0.0
C80 C 0.45341 0.90851 0.69204 0.0
C81 C 0.46496 0.88846 0.68315 0.0
C82 C 0.45611 0.87678 0.66345 0.0
C83 C 0.43555 0.88526 0.65229 0.0
C84 C 0.42519 0.90592 0.65988 0.0
C85 C 0.40449 0.91343 0.64477 0.0
C86 C 0.40342 0.89307 0.62765 0.0
C87 C 0.42138 0.87636 0.63244 0.0
C88 C 0.41043 0.93881 0.63223 0.0
C89 C 0.38242 0.91294 0.66059 0.0
C90 C 0.43606 0.79236 0.60208 0.0
C91 C 0.42389 0.77809 0.58583 0.0
C92 C 0.40442 0.78792 0.57353 0.0
C93 C 0.39697 0.8115 0.57754 0.0
C94 C 0.40895 0.82535 0.59421 0.0
C95 C 0.42821 0.81582 0.60609 0.0
C96 C 0.43836 0.83301 0.62357 0.0
C97 C 0.42194 0.8544 0.62022 0.0
C98 C 0.40478 0.84973 0.60302 0.0
C99 C 0.4639 0.84035 0.61623 0.0
C100 C 0.43623 0.82003 0.64844 0.0
H101 H 0.36592 0.93709 0.61852 0.0
H102 H 0.3252 0.88569 0.56046 0.0
H103 H 0.33742 0.84899 0.6025 0.0
H104 H 0.35761 0.82723 0.59481 0.0
H105 H 0.33724 0.83926 0.57287 0.0
H106 H 0.38078 0.8844 0.54836 0.0
H107 H 0.36036 0.85966 0.54283 0.0
H108 H 0.39018 0.85409 0.55237 0.0
H109 H 0.42408 0.93286 0.68579 0.0
H110 H 0.48079 0.88154 0.69152 0.0
H111 H 0.46544 0.86138 0.65784 0.0
H112 H 0.42975 0.94215 0.63057 0.0
H113 H 0.40341 0.95395 0.64211 0.0
H114 H 0.4037 0.94026 0.61388 0.0
H115 H 0.38176 0.89603 0.67247 0.0
H116 H 0.36577 0.91273 0.65051 0.0
H117 H 0.38263 0.92899 0.67177 0.0
H118 H 0.33027 0.95129 0.59956 0.0
C119 C 0.35772 0.9256 0.60594 0.0
C120 C 0.64714 0.27901 0.8827 0.0
C121 C 0.62612 0.26814 0.87434 0.0
C122 C 0.6152 0.27903 0.85413 0.0
C123 C 0.64614 0.31053 0.85076 0.0
C124 C 0.65677 0.30011 0.8707 0.0
C125 C 0.679 0.31394 0.87716 0.0
H126 H 0.75739 0.4081 0.8538 0.0
C127 C 0.66072 0.33212 0.84232 0.0
C128 C 0.68 0.33427 0.85773 0.0
H129 H 0.75842 0.35276 0.91131 0.0
H130 H 0.72248 0.3344 0.89696 0.0
H131 H 0.70159 0.41745 0.85579 0.0
H132 H 0.74143 0.37064 0.81338 0.0
H133 H 0.7203 0.38525 0.79519 0.0
H134 H 0.7428 0.40348 0.80912 0.0
H135 H 0.72053 0.42948 0.83252 0.0
H136 H 0.69049 0.41995 0.82681 0.0
C137 C 0.67554 0.32414 0.90175 0.0
C138 C 0.69981 0.29641 0.87576 0.0
C139 C 0.63607 0.38153 0.76823 0.0
C140 C 0.64576 0.40232 0.75567 0.0
C141 C 0.66683 0.41313 0.76412 0.0
C142 C 0.67795 0.40345 0.78464 0.0
C143 C 0.66798 0.38265 0.79695 0.0
C144 C 0.64736 0.37211 0.78865 0.0
C145 C 0.63921 0.35012 0.80384 0.0
C146 C 0.65831 0.34912 0.82265 0.0
C147 C 0.67518 0.3682 0.81858 0.0
C148 C 0.61491 0.35567 0.81418 0.0
C149 C 0.6392 0.32739 0.78867 0.0
C150 C 0.74997 0.39192 0.86319 0.0
C151 C 0.76082 0.382 0.88384 0.0
C152 C 0.75032 0.36106 0.89561 0.0
C153 C 0.72946 0.3503 0.88716 0.0
C154 C 0.71878 0.36047 0.86663 0.0
C155 C 0.72901 0.38095 0.85498 0.0
C156 C 0.715 0.38928 0.83351 0.0
C157 C 0.69472 0.37045 0.83423 0.0
C158 C 0.69708 0.35359 0.85368 0.0
C159 C 0.7065 0.41548 0.83709 0.0
C160 C 0.7306 0.38729 0.81155 0.0
H161 H 0.61584 0.30732 0.82709 0.0
H162 H 0.65616 0.27109 0.89804 0.0
H163 H 0.69729 0.28422 0.86084 0.0
H164 H 0.71681 0.30615 0.87229 0.0
H165 H 0.70135 0.28452 0.89218 0.0
H166 H 0.65702 0.32951 0.9041 0.0
H167 H 0.67968 0.31019 0.91606 0.0
H168 H 0.68616 0.34104 0.90436 0.0
H169 H 0.62013 0.37246 0.76214 0.0
H170 H 0.6746 0.42931 0.75501 0.0
H171 H 0.69386 0.41256 0.79015 0.0
H172 H 0.61374 0.37546 0.81756 0.0
H173 H 0.60041 0.35102 0.80184 0.0
H174 H 0.61161 0.34599 0.83148 0.0
H175 H 0.65415 0.32865 0.7761 0.0
H176 H 0.64166 0.31003 0.79919 0.0
H177 H 0.6227 0.32587 0.77818 0.0
H178 H 0.5988 0.27143 0.8475 0.0
C179 C 0.62506 0.30005 0.84234 0.0
C180 C 0.95187 0.70683 0.42006 0.0
C181 C 0.94781 0.71546 0.44242 0.0
C182 C 0.93201 0.70232 0.45775 0.0
C183 C 0.92345 0.67337 0.42776 0.0
C184 C 0.93969 0.68578 0.41319 0.0
C185 C 0.942 0.67429 0.38996 0.0
H186 H 0.9053 0.58886 0.31538 0.0
C187 C 0.91312 0.65287 0.41482 0.0
C188 C 0.92416 0.65317 0.39278 0.0
H189 H 0.96081 0.6442 0.30492 0.0
H190 H 0.95398 0.65839 0.34359 0.0
H191 H 0.91981 0.57199 0.36748 0.0
H192 H 0.86924 0.62345 0.34018 0.0
H193 H 0.85599 0.60653 0.36393 0.0
H194 H 0.86513 0.59088 0.33863 0.0
H195 H 0.89197 0.56225 0.35557 0.0
H196 H 0.89542 0.56877 0.38624 0.0
C197 C 0.96746 0.66522 0.38804 0.0
C198 C 0.93481 0.69339 0.37019 0.0
C199 C 0.84344 0.60248 0.44877 0.0
C200 C 0.82934 0.58344 0.4399 0.0
C201 C 0.83558 0.57366 0.41846 0.0
C202 C 0.85495 0.58328 0.40562 0.0
C203 C 0.86823 0.60301 0.41417 0.0
C204 C 0.86275 0.61194 0.43566 0.0
C205 C 0.87905 0.63284 0.44199 0.0
C206 C 0.89471 0.6354 0.4204 0.0
C207 C 0.88813 0.61798 0.40413 0.0
C208 C 0.89297 0.62476 0.46452 0.0
C209 C 0.86412 0.65579 0.4445 0.0
C210 C 0.91613 0.60391 0.32148 0.0
C211 C 0.9336 0.61545 0.307 0.0
C212 C 0.94703 0.63521 0.31555 0.0
C213 C 0.94315 0.64331 0.33812 0.0
C214 C 0.92562 0.63158 0.35234 0.0
C215 C 0.91252 0.61218 0.34398 0.0
C216 C 0.89471 0.60188 0.36155 0.0
C217 C 0.89945 0.61814 0.38196 0.0
C218 C 0.91742 0.6356 0.37637 0.0
C219 C 0.90052 0.57476 0.36804 0.0
C220 C 0.8699 0.60563 0.35063 0.0
H221 H 0.90766 0.67231 0.46277 0.0
H222 H 0.96422 0.71637 0.40809 0.0
H223 H 0.91952 0.70391 0.37571 0.0
H224 H 0.92898 0.68502 0.35383 0.0
H225 H 0.94948 0.70676 0.36598 0.0
H226 H 0.97486 0.65985 0.40572 0.0
H227 H 0.97932 0.67976 0.37985 0.0
H228 H 0.96844 0.6485 0.37804 0.0
H229 H 0.83927 0.61017 0.46533 0.0
H230 H 0.82491 0.55919 0.41108 0.0
H231 H 0.85845 0.57535 0.38922 0.0
H232 H 0.8957 0.60463 0.46548 0.0
H233 H 0.88346 0.62915 0.48067 0.0
H234 H 0.9109 0.63311 0.46492 0.0
H235 H 0.85083 0.65743 0.43006 0.0
H236 H 0.87457 0.67313 0.44324 0.0
H237 H 0.85456 0.65464 0.46151 0.0
H238 H 0.92862 0.70873 0.47506 0.0
C239 C 0.91978 0.68132 0.45052 0.0
C240 C 0.85781 0.77123 0.89227 0.0
C241 C 0.87915 0.76096 0.88565 0.0
C242 C 0.89103 0.77176 0.86578 0.0
C243 C 0.86092 0.80233 0.85971 0.0
C244 C 0.84923 0.79202 0.87928 0.0
C245 C 0.82749 0.80605 0.88444 0.0
H246 H 0.75783 0.9042 0.85987 0.0
C247 C 0.84767 0.82394 0.85024 0.0
C248 C 0.82813 0.82643 0.86488 0.0
H249 H 0.74835 0.84648 0.91438 0.0
H250 H 0.78295 0.82669 0.90117 0.0
H251 H 0.76992 0.86664 0.81932 0.0
H252 H 0.81563 0.90979 0.86293 0.0
H253 H 0.82558 0.91282 0.8336 0.0
H254 H 0.79689 0.92342 0.84053 0.0
H255 H 0.77273 0.89941 0.81507 0.0
H256 H 0.79291 0.87949 0.80178 0.0
C257 C 0.80575 0.7886 0.88211 0.0
C258 C 0.83059 0.81635 0.90912 0.0
C259 C 0.87596 0.8715 0.77504 0.0
C260 C 0.86816 0.89265 0.76216 0.0
C261 C 0.8485 0.90452 0.77079 0.0
C262 C 0.83681 0.89553 0.79144 0.0
C263 C 0.84473 0.87433 0.80397 0.0
C264 C 0.86415 0.86282 0.79577 0.0
C265 C 0.87067 0.84103 0.81176 0.0
C266 C 0.85157 0.84082 0.83043 0.0
C267 C 0.83631 0.8604 0.82585 0.0
C268 C 0.86891 0.81787 0.79728 0.0
C269 C 0.89545 0.84629 0.82227 0.0
C270 C 0.76335 0.88741 0.86906 0.0
C271 C 0.75028 0.87708 0.8884 0.0
C272 C 0.75792 0.85487 0.89946 0.0
C273 C 0.77813 0.84342 0.8918 0.0
C274 C 0.79103 0.85396 0.87255 0.0
C275 C 0.78335 0.87544 0.86129 0.0
C276 C 0.79845 0.88316 0.84023 0.0
C277 C 0.81678 0.86327 0.84108 0.0
C278 C 0.8125 0.84624 0.86028 0.0
C279 C 0.78281 0.88237 0.81783 0.0
C280 C 0.8097 0.90872 0.8443 0.0
H281 H 0.892 0.79922 0.83786 0.0
H282 H 0.84829 0.7636 0.90753 0.0
H283 H 0.84889 0.82362 0.91156 0.0
H284 H 0.81921 0.83192 0.91188 0.0
H285 H 0.82712 0.80183 0.92325 0.0
H286 H 0.80813 0.77611 0.86756 0.0
H287 H 0.80283 0.77703 0.8986 0.0
H288 H 0.78953 0.79845 0.87748 0.0
H289 H 0.89121 0.86207 0.76935 0.0
H290 H 0.84186 0.92068 0.76133 0.0
H291 H 0.82199 0.90548 0.79687 0.0
H292 H 0.85277 0.81809 0.78608 0.0
H293 H 0.88429 0.81697 0.78547 0.0
H294 H 0.86752 0.80067 0.80838 0.0
H295 H 0.89891 0.86632 0.82368 0.0
H296 H 0.89744 0.83839 0.8405 0.0
H297 H 0.90946 0.83935 0.81112 0.0
H298 H 0.90729 0.76422 0.86007 0.0
C299 C 0.88205 0.79214 0.85282 0.0
C300 C 0.67808 0.10523 0.44181 0.0
C301 C 0.6891 0.08463 0.43365 0.0
C302 C 0.67852 0.07234 0.41489 0.0
C303 C 0.64773 0.1021 0.41176 0.0
C304 C 0.65776 0.11379 0.43046 0.0
C305 C 0.64554 0.13696 0.43536 0.0
H306 H 0.56548 0.22139 0.40278 0.0
C307 C 0.6278 0.11676 0.40278 0.0
C308 C 0.62654 0.13727 0.41647 0.0
H309 H 0.61605 0.22306 0.45997 0.0
H310 H 0.62877 0.18282 0.4514 0.0
H311 H 0.54863 0.1637 0.41315 0.0
H312 H 0.59902 0.2003 0.36617 0.0
H313 H 0.58461 0.17744 0.35048 0.0
H314 H 0.56788 0.20194 0.36127 0.0
H315 H 0.54002 0.18178 0.38733 0.0
H316 H 0.54631 0.14968 0.38612 0.0
C317 C 0.635 0.13384 0.46043 0.0
C318 C 0.66352 0.15878 0.43171 0.0
C319 C 0.58139 0.0907 0.33113 0.0
C320 C 0.56351 0.10188 0.31754 0.0
C321 C 0.55411 0.12382 0.3247 0.0
C322 C 0.56272 0.13476 0.34489 0.0
C323 C 0.58116 0.12383 0.35788 0.0
C324 C 0.59003 0.10204 0.35107 0.0
C325 C 0.61028 0.09366 0.3664 0.0
C326 C 0.61188 0.11384 0.38369 0.0
C327 C 0.59484 0.13149 0.37857 0.0
C328 C 0.6032 0.06856 0.37872 0.0
C329 C 0.63253 0.09329 0.3508 0.0
C330 C 0.57907 0.21291 0.41365 0.0
C331 C 0.58991 0.22543 0.43198 0.0
C332 C 0.6077 0.2139 0.44554 0.0
C333 C 0.61501 0.19051 0.44057 0.0
C334 C 0.6046 0.17858 0.42166 0.0
C335 C 0.58671 0.18961 0.40878 0.0
C336 C 0.57795 0.1743 0.38915 0.0
C337 C 0.59375 0.15241 0.39222 0.0
C338 C 0.60936 0.15511 0.41121 0.0
C339 C 0.55181 0.16702 0.39392 0.0
C340 C 0.58236 0.18916 0.36545 0.0
H341 H 0.65093 0.07092 0.38965 0.0
H342 H 0.6854 0.115 0.45636 0.0
H343 H 0.67661 0.15516 0.41797 0.0
H344 H 0.65534 0.17597 0.42518 0.0
H345 H 0.6734 0.16211 0.44822 0.0
H346 H 0.62813 0.11473 0.46415 0.0
H347 H 0.64851 0.13774 0.47407 0.0
H348 H 0.61977 0.14553 0.46276 0.0
H349 H 0.58921 0.07406 0.32578 0.0
H350 H 0.54025 0.13265 0.31449 0.0
H351 H 0.55501 0.15158 0.34929 0.0
H352 H 0.58465 0.06852 0.38477 0.0
H353 H 0.60471 0.05354 0.36647 0.0
H354 H 0.61374 0.06414 0.39471 0.0
H355 H 0.63171 0.10717 0.33574 0.0
H356 H 0.64886 0.09823 0.36033 0.0
H357 H 0.63445 0.07507 0.34339 0.0
H358 H 0.68666 0.05665 0.40789 0.0
C359 C 0.65785 0.08084 0.40405 0.0
C360 C 0.37831 0.62972 0.24128 0.0
C361 C 0.36935 0.60782 0.25253 0.0
C362 C 0.34923 0.59632 0.2428 0.0
C363 C 0.34748 0.62836 0.21142 0.0
C364 C 0.36725 0.63951 0.22088 0.0
C365 C 0.37488 0.66248 0.20682 0.0
H366 H 0.36128 0.74043 0.11129 0.0
C367 C 0.34028 0.64342 0.19016 0.0
C368 C 0.35638 0.6634 0.1874 0.0
H369 H 0.41326 0.74434 0.16722 0.0
H370 H 0.39617 0.70804 0.18667 0.0
H371 H 0.319 0.73064 0.14541 0.0
H372 H 0.35944 0.68055 0.10767 0.0
H373 H 0.32927 0.67315 0.10398 0.0
H374 H 0.34056 0.70295 0.09379 0.0
H375 H 0.31288 0.72523 0.11511 0.0
H376 H 0.29952 0.70642 0.13884 0.0
C377 C 0.37333 0.68443 0.22284 0.0
C378 C 0.39978 0.65852 0.19709 0.0
C379 C 0.26737 0.61909 0.14293 0.0
C380 C 0.25587 0.63016 0.12312 0.0
C381 C 0.26572 0.65219 0.11271 0.0
C382 C 0.2865 0.66278 0.12156 0.0
C383 C 0.29765 0.65153 0.1413 0.0
C384 C 0.288 0.63015 0.15177 0.0
C385 C 0.30188 0.62132 0.17317 0.0
C386 C 0.32135 0.64099 0.17381 0.0
C387 C 0.31888 0.65851 0.15492 0.0
C388 C 0.28567 0.62135 0.19493 0.0
C389 C 0.31163 0.59589 0.16848 0.0
C390 C 0.36897 0.73365 0.1278 0.0
C391 C 0.38906 0.74532 0.13736 0.0
C392 C 0.3983 0.73554 0.15893 0.0
C393 C 0.38819 0.71446 0.1704 0.0
C394 C 0.36838 0.70292 0.16046 0.0
C395 C 0.35888 0.71272 0.13969 0.0
C396 C 0.33705 0.69867 0.13241 0.0
C397 C 0.33547 0.67843 0.1519 0.0
C398 C 0.35398 0.68094 0.16816 0.0
C399 C 0.31595 0.71603 0.13275 0.0
C400 C 0.3416 0.68832 0.10812 0.0
H401 H 0.3231 0.59676 0.21586 0.0
H402 H 0.39349 0.63932 0.24834 0.0
H403 H 0.40141 0.63937 0.19169 0.0
H404 H 0.40389 0.67016 0.18108 0.0
H405 H 0.41352 0.6618 0.21065 0.0
H406 H 0.35882 0.6814 0.2358 0.0
H407 H 0.38992 0.68716 0.23293 0.0
H408 H 0.3691 0.70176 0.21292 0.0
H409 H 0.26062 0.6021 0.15138 0.0
H410 H 0.25718 0.66161 0.09786 0.0
H411 H 0.29299 0.67947 0.11275 0.0
H412 H 0.27415 0.6375 0.19368 0.0
H413 H 0.27412 0.60458 0.19629 0.0
H414 H 0.29549 0.62293 0.21163 0.0
H415 H 0.31706 0.5952 0.14977 0.0
H416 H 0.3276 0.59164 0.1789 0.0
H417 H 0.29811 0.58108 0.17206 0.0
H418 H 0.34207 0.57927 0.2508 0.0
C419 C 0.33828 0.60644 0.22237 0.0
C420 C 0.05893 0.30358 0.58968 0.0
C421 C 0.0633 0.29425 0.56765 0.0
C422 C 0.07906 0.3072 0.55212 0.0
C423 C 0.08722 0.33703 0.58139 0.0
C424 C 0.071 0.32486 0.59615 0.0
C425 C 0.06906 0.33649 0.61935 0.0
H426 H 0.10898 0.42046 0.69396 0.0
C427 C 0.09778 0.3576 0.59408 0.0
C428 C 0.087 0.3575 0.61623 0.0
H429 H 0.05324 0.36558 0.70547 0.0
H430 H 0.05813 0.35241 0.66606 0.0
H431 H 0.09284 0.4386 0.64237 0.0
H432 H 0.14346 0.38612 0.66742 0.0
H433 H 0.1563 0.40351 0.64373 0.0
H434 H 0.14786 0.4186 0.66959 0.0
H435 H 0.12124 0.44785 0.6533 0.0
H436 H 0.11653 0.44158 0.62271 0.0
C437 C 0.04371 0.34577 0.62151 0.0
C438 C 0.07633 0.3174 0.63912 0.0
C439 C 0.16779 0.40682 0.55941 0.0
C440 C 0.18243 0.42548 0.56823 0.0
C441 C 0.17629 0.43573 0.58948 0.0
C442 C 0.15667 0.42675 0.60231 0.0
C443 C 0.14307 0.40713 0.59398 0.0
C444 C 0.14829 0.39793 0.57255 0.0
C445 C 0.13179 0.37709 0.56653 0.0
C446 C 0.11626 0.3749 0.58822 0.0
C447 C 0.12314 0.39239 0.60431 0.0
C448 C 0.11779 0.38508 0.54403 0.0
C449 C 0.14653 0.35396 0.56415 0.0
C450 C 0.09765 0.40578 0.68792 0.0
C451 C 0.08075 0.39399 0.7029 0.0
C452 C 0.06662 0.37473 0.6944 0.0
C453 C 0.06939 0.36721 0.67145 0.0
C454 C 0.08659 0.37896 0.65681 0.0
C455 C 0.10022 0.39803 0.66507 0.0
C456 C 0.11768 0.40831 0.64713 0.0
C457 C 0.1122 0.39232 0.62667 0.0
C458 C 0.09413 0.37506 0.63253 0.0
C459 C 0.11204 0.43555 0.64106 0.0
C460 C 0.1427 0.40417 0.65737 0.0
H461 H 0.10315 0.33733 0.54649 0.0
H462 H 0.04667 0.29423 0.60186 0.0
H463 H 0.0911 0.30633 0.63329 0.0
H464 H 0.08297 0.32581 0.65517 0.0
H465 H 0.06145 0.30452 0.64394 0.0
H466 H 0.03647 0.35181 0.60394 0.0
H467 H 0.03169 0.3311 0.6292 0.0
H468 H 0.04287 0.3621 0.63207 0.0
H469 H 0.17184 0.39878 0.54299 0.0
H470 H 0.18732 0.44993 0.59684 0.0
H471 H 0.15333 0.43491 0.61863 0.0
H472 H 0.11482 0.40516 0.54318 0.0
H473 H 0.12739 0.38091 0.52787 0.0
H474 H 0.09996 0.37648 0.54357 0.0
H475 H 0.16028 0.35267 0.57818 0.0
H476 H 0.13608 0.33667 0.56627 0.0
H477 H 0.15553 0.35456 0.54685 0.0
H478 H 0.08281 0.3003 0.53509 0.0
C479 C 0.091 0.32857 0.55885 0.0
Co480 Co 0.99007 0.00436 0.49839 0.0
C481 C 0.01055 0.95846 0.49721 0.0
Co482 Co 0.02385 1.00101 0.51724 0.0
C483 C 0.94155 0.01481 0.48845 0.0
C484 C 0.95738 0.9957 0.46105 0.0
N485 N 0.96203 0.00547 0.48193 0.0
N486 N 0.92425 0.01102 0.47258 0.0
C487 C 0.93412 0.999 0.4553 0.0
H488 H 0.93923 0.02365 0.50482 0.0
H489 H 0.97004 0.98649 0.45083 0.0
C490 C 1.0035 0.04689 0.51851 0.0
N491 N 0.05173 0.99987 0.53396 0.0
C492 C 0.07256 0.991 0.52784 0.0
C493 C 0.05525 0.00799 0.55572 0.0
N494 N 0.08891 0.99316 0.54503 0.0
C495 C 0.07806 0.00388 0.56257 0.0
C496 C 0.0291 0.01775 0.46979 0.0
O497 O 0.98719 0.03759 0.50615 0.0
O498 O 0.02076 0.03393 0.52507 0.0
O499 O 0.04054 0.01223 0.48867 0.0
O500 O 1.00675 0.0155 0.4702 0.0
O501 O 0.0268 0.96792 0.50952 0.0
H502 H 0.04205 0.0164 0.56594 0.0
H503 H 0.07551 0.98277 0.51127 0.0
O504 O 0.99321 0.97131 0.49058 0.0
O505 O 0.97339 0.99307 0.5269 0.0
O506 O 1.00709 0.98989 0.54544 0.0
C507 C 0.98476 0.98758 0.5458 0.0
H508 H 0.92518 0.99316 0.43959 0.0
H509 H 0.08609 0.00869 0.57908 0.0
Co510 Co 0.49763 1.00284 0.98933 0.0
C511 C 0.49348 0.96523 0.02425 0.0
Co512 Co 0.51829 0.00961 0.0213 0.0
C513 C 0.48806 0.99415 0.94059 0.0
C514 C 0.45643 0.99411 0.96074 0.0
N515 N 0.48004 0.99684 0.96256 0.0
N516 N 0.47044 0.98994 0.9252 0.0
C517 C 0.45047 0.99 0.93774 0.0
H518 H 0.50647 0.99535 0.93588 0.0
H519 H 0.44431 0.99474 0.97524 0.0
C520 C 0.5223 0.04732 0.98632 0.0
N521 N 0.53594 0.01601 0.04781 0.0
C522 C 0.52895 0.01563 0.07047 0.0
C523 C 0.55827 0.02505 0.04799 0.0
N524 N 0.54592 0.02449 0.08466 0.0
C525 C 0.56441 0.03039 0.07061 0.0
C526 C 0.54379 0.98556 0.98768 0.0
O527 O 0.50923 0.03302 0.97467 0.0
O528 O 0.52778 0.04088 0.00744 0.0
O529 O 0.54531 0.99526 0.00751 0.0
O530 O 0.5241 0.98595 0.97683 0.0
O531 O 0.50861 0.97822 0.035 0.0
H532 H 0.56904 0.02856 0.03249 0.0
H533 H 0.51133 0.01032 0.07622 0.0
O534 O 0.48608 0.97283 1.00404 0.0
O535 O 0.47141 0.01963 1.00225 0.0
O536 O 0.49115 0.024 0.03497 0.0
C537 C 0.47216 0.02679 0.0232 0.0
H538 H 0.43293 0.98659 0.93089 0.0
H539 H 0.58092 0.03865 0.07621 0.0
Co540 Co 0.52321 0.51261 0.49754 0.0
C541 C 0.48539 0.51744 0.46598 0.0
Co542 Co 0.49053 0.4935 0.50987 0.0
C543 C 0.57246 0.52411 0.48976 0.0
C544 C 0.55045 0.55348 0.47778 0.0
N545 N 0.54975 0.5304 0.48756 0.0
N546 N 0.58733 0.54247 0.48196 0.0
C547 C 0.57352 0.56096 0.47435 0.0
H548 H 0.57798 0.50669 0.49765 0.0
H549 H 0.53516 0.56435 0.47384 0.0
C550 C 0.52836 0.48858 0.54143 0.0
N551 N 0.46412 0.47552 0.51998 0.0
C552 C 0.44118 0.48096 0.51766 0.0
C553 C 0.46415 0.45274 0.53044 0.0
N554 N 0.42691 0.46233 0.52609 0.0
C555 C 0.44136 0.44461 0.53422 0.0
C556 C 0.52033 0.46568 0.48369 0.0
O557 O 0.53927 0.50173 0.52565 0.0
O558 O 0.50677 0.48303 0.53814 0.0
O559 O 0.50102 0.46573 0.49475 0.0
O560 O 0.53345 0.48491 0.48253 0.0
O561 O 0.47455 0.50413 0.4817 0.0
H562 H 0.47978 0.44252 0.53471 0.0
H563 H 0.4351 0.49796 0.50935 0.0
O564 O 0.50692 0.52329 0.46936 0.0
O565 O 0.51285 0.54025 0.51274 0.0
O566 O 0.48016 0.5214 0.52474 0.0
C567 C 0.49345 0.54054 0.52362 0.0
H568 H 0.57963 0.57866 0.46688 0.0
H569 H 0.43589 0.427 0.54239 0.0
Co570 Co 0.01887 0.50174 0.98955 0.0
C571 C 0.97478 0.47938 0.98647 0.0
Co572 Co 0.99906 0.50255 0.02249 0.0
C573 C 0.03724 0.48527 0.94599 0.0
C574 C 0.04898 0.52176 0.95302 0.0
N575 N 0.03589 0.50252 0.96198 0.0
N576 N 0.05054 0.49309 0.9273 0.0
C577 C 0.05804 0.51602 0.93178 0.0
H578 H 0.028 0.46766 0.9477 0.0
H579 H 0.05145 0.53906 0.96121 0.0
C580 C 0.04308 0.52523 0.02537 0.0
N581 N 0.98199 0.5019 0.04999 0.0
C582 C 0.98168 0.51881 0.06638 0.0
C583 C 0.96792 0.48325 0.05857 0.0
N584 N 0.96811 0.51135 0.08497 0.0
C585 C 0.95935 0.489 0.08003 0.0
C586 C 0.02734 0.46112 0.02043 0.0
O587 O 0.04365 0.52 1.00391 0.0
O588 O 0.025 0.51887 0.03748 0.0
O589 O 0.01193 0.47126 0.03243 0.0
O590 O 0.03355 0.4715 1.00069 0.0
O591 O 0.97342 0.48628 0.00738 0.0
H592 H 0.96448 0.46632 0.04997 0.0
H593 H 0.99189 0.53587 0.06506 0.0
O594 O 0.99381 0.48362 0.97519 0.0
O595 O 1.00415 0.53174 0.97869 0.0
O596 O 0.9861 0.53396 0.01234 0.0
C597 C 0.99035 0.54302 0.99158 0.0
H598 H 0.06919 0.5279 0.92048 0.0
H599 H 0.94772 0.47751 0.09118 0.0
H600 H 0.08991 0.10898 0.26298 0.0
H601 H 0.07384 0.09077 0.29979 0.0
H602 H 0.14398 0.08323 0.32805 0.0
H603 H 0.1603 0.10152 0.29096 0.0
H604 H 0.11739 0.04354 0.34175 0.0
H605 H 0.10787 0.13009 0.34374 0.0
H606 H 0.09565 0.17111 0.32891 0.0
H607 H 0.02361 0.14538 0.32707 0.0
H608 H 0.03544 0.10409 0.34157 0.0
H609 H 0.07685 0.02349 0.46142 0.0
H610 H 0.09643 0.03952 0.42518 0.0
H611 H 0.0289 0.04924 0.39149 0.0
H612 H 0.00929 0.03347 0.42757 0.0
H613 H 0.05616 0.08855 0.38172 0.0
H614 H 0.06586 1.00171 0.37883 0.0
H615 H 0.07808 0.96075 0.39388 0.0
H616 H 0.14979 0.98718 0.39796 0.0
H617 H 0.13794 0.0284 0.38321 0.0
C618 C 0.10204 0.10361 0.27699 0.0
C619 C 0.12651 0.1072 0.27389 0.0
C620 C 0.09275 0.09311 0.29818 0.0
C621 C 0.10754 0.086 0.31718 0.0
C622 C 0.13205 0.08862 0.31386 0.0
C623 C 0.1414 0.09907 0.29253 0.0
C624 C 0.09728 0.07638 0.34045 0.0
C625 C 0.10427 0.05361 0.35063 0.0
C626 C 0.07979 0.0891 0.35213 0.0
C627 C 0.07258 0.11394 0.34355 0.0
C628 C 0.08944 0.13314 0.34002 0.0
C629 C 0.08258 0.15644 0.33169 0.0
C630 C 0.05887 0.16083 0.327 0.0
C631 C 0.04197 0.14194 0.33069 0.0
C632 C 0.04874 0.11859 0.33898 0.0
C633 C 0.06614 0.02896 0.44629 0.0
C634 C 0.0414 0.02708 0.44759 0.0
C635 C 0.07741 0.03807 0.42544 0.0
C636 C 0.06427 0.04551 0.40526 0.0
C637 C 0.03958 0.04371 0.40663 0.0
C638 C 0.02834 0.03456 0.42738 0.0
C639 C 0.07603 0.05557 0.38289 0.0
C640 C 0.06934 0.07849 0.37289 0.0
C641 C 0.09379 0.04299 0.37144 0.0
C642 C 0.10098 0.0182 0.38016 0.0
C643 C 0.08421 0.99883 0.3831 0.0
C644 C 0.09107 0.97556 0.39155 0.0
C645 C 0.11468 0.97139 0.39694 0.0
C646 C 0.1315 0.99046 0.39381 0.0
C647 C 0.12472 0.01377 0.38539 0.0
H648 H 0.11996 0.95337 0.40349 0.0
H649 H 0.0536 0.17889 0.32056 0.0
H650 H 0.4505 0.95621 0.70528 0.0
H651 H 0.45752 0.97135 0.74413 0.0
H652 H 0.48296 0.90067 0.76869 0.0
H653 H 0.47347 0.88455 0.73074 0.0
H654 H 0.45624 0.91353 0.79931 0.0
H655 H 0.51946 0.95618 0.75917 0.0
H656 H 0.53936 0.9822 0.72808 0.0
H657 H 0.49766 0.04308 0.74473 0.0
H658 H 0.47728 0.01733 0.77573 0.0
H659 H 0.50324 0.96245 0.9063 0.0
H660 H 0.50491 0.9507 0.86527 0.0
H661 H 0.44431 0.994 0.84814 0.0
H662 H 0.44221 0.00527 0.88931 0.0
H663 H 0.49215 0.99499 0.81492 0.0
H664 H 0.42607 0.94619 0.85229 0.0
H665 H 0.41028 0.91881 0.88477 0.0
H666 H 0.46443 0.86755 0.87388 0.0
H667 H 0.48073 0.89487 0.84155 0.0
C668 C 0.45737 0.94371 0.71893 0.0
C669 C 0.46108 0.91896 0.71469 0.0
C670 C 0.46188 0.95262 0.74114 0.0
C671 C 0.47107 0.9373 0.75944 0.0
C672 C 0.47584 0.91292 0.75495 0.0
C673 C 0.47069 0.9038 0.73297 0.0
C674 C 0.4739 0.94601 0.78369 0.0
C675 C 0.46449 0.9312 0.80256 0.0
C676 C 0.48446 0.96916 0.78826 0.0
C677 C 0.4967 0.98474 0.76965 0.0
C678 C 0.51441 0.97507 0.75609 0.0
C679 C 0.5258 0.98978 0.7385 0.0
C680 C 0.51975 0.01426 0.7344 0.0
C681 C 0.50233 0.02411 0.74792 0.0
C682 C 0.49087 0.00947 0.76552 0.0
C683 C 0.49051 0.9697 0.89366 0.0
C684 C 0.47254 0.98467 0.90085 0.0
C685 C 0.49147 0.963 0.87034 0.0
C686 C 0.47477 0.97159 0.85383 0.0
C687 C 0.45738 0.98732 0.86071 0.0
C688 C 0.4561 0.99359 0.88415 0.0
C689 C 0.47433 0.96258 0.82985 0.0
C690 C 0.48416 0.97731 0.81128 0.0
C691 C 0.46472 0.93916 0.82554 0.0
C692 C 0.45476 0.92267 0.84475 0.0
C693 C 0.43473 0.92919 0.857 0.0
C694 C 0.42567 0.91367 0.87533 0.0
C695 C 0.43639 0.89149 0.88144 0.0
C696 C 0.45617 0.88475 0.86917 0.0
C697 C 0.46532 0.90024 0.85084 0.0
H698 H 0.42935 0.87949 0.89564 0.0
H699 H 0.52858 0.02562 0.72076 0.0
H700 H 0.66624 0.42039 0.71438 0.0
H701 H 0.64666 0.43572 0.67822 0.0
H702 H 0.57909 0.42224 0.71109 0.0
H703 H 0.5985 0.40714 0.74735 0.0
H704 H 0.57921 0.40514 0.66779 0.0
H705 H 0.60231 0.48037 0.70235 0.0
H706 H 0.62988 0.51014 0.71973 0.0
H707 H 0.67009 0.51533 0.65595 0.0
H708 H 0.64294 0.48531 0.63829 0.0
H709 H 0.50879 0.46807 0.58197 0.0
H710 H 0.52897 0.45372 0.61803 0.0
H711 H 0.59596 0.47356 0.58613 0.0
H712 H 0.57577 0.48885 0.55031 0.0
H713 H 0.5966 0.48717 0.62887 0.0
H714 H 0.57448 0.41044 0.59492 0.0
H715 H 0.54762 0.37938 0.57833 0.0
H716 H 0.50565 0.3772 0.64083 0.0
H717 H 0.53236 0.40799 0.65794 0.0
C718 C 0.64722 0.421 0.71405 0.0
C719 C 0.63398 0.41248 0.73383 0.0
C720 C 0.63604 0.42973 0.69332 0.0
C721 C 0.61137 0.43028 0.69194 0.0
C722 C 0.59812 0.42191 0.71167 0.0
C723 C 0.60927 0.41319 0.73239 0.0
C724 C 0.59931 0.439 0.66978 0.0
C725 C 0.58281 0.4232 0.65943 0.0
C726 C 0.60439 0.46232 0.65852 0.0
C727 C 0.62073 0.48039 0.66909 0.0
C728 C 0.61714 0.4877 0.6921 0.0
C729 C 0.63267 0.50465 0.70199 0.0
C730 C 0.65176 0.51457 0.68898 0.0
C731 C 0.65532 0.5076 0.66602 0.0
C732 C 0.63986 0.49063 0.65606 0.0
C733 C 0.52783 0.46934 0.5826 0.0
C734 C 0.54066 0.47961 0.56324 0.0
C735 C 0.53939 0.46094 0.60321 0.0
C736 C 0.56409 0.46209 0.60477 0.0
C737 C 0.57692 0.47239 0.58543 0.0
C738 C 0.56535 0.48112 0.56492 0.0
C739 C 0.57649 0.45327 0.62677 0.0
C740 C 0.59305 0.46906 0.63714 0.0
C741 C 0.57151 0.4299 0.63804 0.0
C742 C 0.55528 0.41167 0.62761 0.0
C743 C 0.55943 0.40346 0.60505 0.0
C744 C 0.54427 0.38588 0.59557 0.0
C745 C 0.52486 0.3765 0.60842 0.0
C746 C 0.52065 0.38453 0.63087 0.0
C747 C 0.53584 0.40195 0.64051 0.0
H748 H 0.51314 0.36292 0.60102 0.0
H749 H 0.66376 0.52769 0.69666 0.0
H750 H 0.93444 0.56803 0.29419 0.0
H751 H 0.94145 0.55348 0.25515 0.0
H752 H 0.95057 0.62819 0.22712 0.0
H753 H 0.94261 0.64299 0.26607 0.0
H754 H 0.92411 0.6013 0.19799 0.0
H755 H 0.99802 0.59318 0.23747 0.0
H756 H 0.02507 0.58075 0.26981 0.0
H757 H 1.00604 0.50504 0.26152 0.0
H758 H 0.9786 0.51704 0.22934 0.0
H759 H 0.97077 0.56042 0.09038 0.0
H760 H 0.96649 0.58115 0.12715 0.0
H761 H 0.95383 0.51118 0.16466 0.0
H762 H 0.95876 0.49038 0.12829 0.0
H763 H 0.98507 0.53974 0.18764 0.0
H764 H 0.90886 0.54876 0.15001 0.0
H765 H 0.88217 0.56158 0.11747 0.0
H766 H 0.90654 0.63636 0.12191 0.0
H767 H 0.93361 0.62392 0.1543 0.0
C768 C 0.93768 0.58141 0.27969 0.0
C769 C 0.938 0.60668 0.28324 0.0
C770 C 0.94193 0.57305 0.25744 0.0
C771 C 0.94688 0.58976 0.23832 0.0
C772 C 0.94692 0.61501 0.24168 0.0
C773 C 0.94258 0.62341 0.26397 0.0
C774 C 0.9519 0.58068 0.21487 0.0
C775 C 0.93771 0.58816 0.19561 0.0
C776 C 0.9695 0.56336 0.21185 0.0
C777 C 0.98611 0.55604 0.2311 0.0
C778 C 0.99948 0.57389 0.24265 0.0
C779 C 0.0149 0.56692 0.26094 0.0
C780 C 0.01724 0.54212 0.26774 0.0
C781 C 1.0042 0.52424 0.25623 0.0
C782 C 0.98873 0.53112 0.23795 0.0
C783 C 0.96721 0.54947 0.10649 0.0
C784 C 0.96502 0.52375 0.10638 0.0
C785 C 0.96459 0.56134 0.12743 0.0
C786 C 0.95968 0.54769 0.14857 0.0
C787 C 0.95758 0.52205 0.14852 0.0
C788 C 0.96017 0.51021 0.12765 0.0
C789 C 0.95691 0.55989 0.17094 0.0
C790 C 0.97162 0.55305 0.18998 0.0
C791 C 0.93988 0.57785 0.17369 0.0
C792 C 0.92344 0.58537 0.15439 0.0
C793 C 0.90865 0.56791 0.14393 0.0
C794 C 0.89343 0.57511 0.12553 0.0
C795 C 0.89272 0.59976 0.11757 0.0
C796 C 0.90715 0.61727 0.12806 0.0
C797 C 0.92242 0.61016 0.14645 0.0
H798 H 0.88094 0.6053 0.10332 0.0
H799 H 0.02919 0.53676 0.28191 0.0
H800 H 0.30458 0.10193 0.15468 0.0
H801 H 0.33947 0.08754 0.1354 0.0
H802 H 0.30614 0.09992 0.06757 0.0
H803 H 0.27094 0.11403 0.08681 0.0
H804 H 0.32804 0.05605 0.0702 0.0
H805 H 0.34995 0.13897 0.08668 0.0
H806 H 0.35596 0.17416 0.11162 0.0
H807 H 0.40511 0.13334 0.1548 0.0
H808 H 0.39914 0.09776 0.1303 0.0
H809 H 0.43033 0.03986 1.00178 0.0
H810 H 0.39552 0.05615 0.01968 0.0
H811 H 0.43045 0.05327 0.08739 0.0
H812 H 0.4656 0.03779 0.06937 0.0
H813 H 0.40731 0.09284 0.08438 0.0
H814 H 0.38531 0.0098 0.06986 0.0
H815 H 0.37938 0.97354 0.0463 0.0
H816 H 0.33052 0.01275 1.00139 0.0
H817 H 0.3364 0.04938 0.02451 0.0
C818 C 0.30452 0.10152 0.13565 0.0
C819 C 0.28469 0.10924 0.12243 0.0
C820 C 0.32469 0.09343 0.12458 0.0
C821 C 0.32578 0.09273 0.09988 0.0
C822 C 0.30597 0.10026 0.08661 0.0
C823 C 0.28582 0.10855 0.09768 0.0
C824 C 0.34743 0.08401 0.08801 0.0
C825 C 0.34531 0.06437 0.07306 0.0
C826 C 0.37025 0.09422 0.09208 0.0
C827 C 0.37393 0.11562 0.10679 0.0
C828 C 0.3619 0.13743 0.1016 0.0
C829 C 0.36532 0.15746 0.11564 0.0
C830 C 0.38086 0.15597 0.13482 0.0
C831 C 0.39306 0.13446 0.13996 0.0
C832 C 0.38968 0.11436 0.12599 0.0
C833 C 0.43068 0.04275 0.02048 0.0
C834 C 0.45094 0.03738 0.03405 0.0
C835 C 0.41057 0.05195 0.03082 0.0
C836 C 0.40984 0.05565 0.05516 0.0
C837 C 0.43024 0.05065 0.06864 0.0
C838 C 0.45045 0.0417 0.05827 0.0
C839 C 0.38801 0.06476 0.06655 0.0
C840 C 0.39007 0.08448 0.08145 0.0
C841 C 0.36515 0.05443 0.06264 0.0
C842 C 0.36148 0.03241 0.04877 0.0
C843 C 0.37342 0.01075 0.05486 0.0
C844 C 0.37006 0.99012 0.0416 0.0
C845 C 0.35463 0.99086 0.02232 0.0
C846 C 0.34249 0.01222 0.01631 0.0
C847 C 0.34582 0.03291 0.02949 0.0
H848 H 0.35205 0.97488 0.01207 0.0
H849 H 0.38349 0.1715 0.14566 0.0
H850 H 0.31346 0.96468 0.55927 0.0
H851 H 0.27431 0.9782 0.54694 0.0
H852 H 0.24552 0.9055 0.56443 0.0
H853 H 0.2846 0.89183 0.57619 0.0
H854 H 0.22398 0.92441 0.52655 0.0
H855 H 0.24496 0.95123 0.60394 0.0
H856 H 0.26984 0.97272 0.63248 0.0
H857 H 0.26055 0.041 0.5927 0.0
H858 H 0.23586 0.01982 0.56375 0.0
H859 H 0.11486 0.97827 0.58286 0.0
H860 H 0.15588 0.9666 0.58327 0.0
H861 H 0.15862 0.97896 0.50766 0.0
H862 H 0.11732 0.99069 0.50716 0.0
H863 H 0.19414 0.9926 0.57093 0.0
H864 H 0.19851 0.93863 0.48685 0.0
H865 H 0.17228 0.9141 0.46187 0.0
H866 H 0.12808 0.89485 0.52135 0.0
H867 H 0.15419 0.91899 0.54672 0.0
C868 C 0.29878 0.95157 0.5602 0.0
C869 C 0.30197 0.92729 0.56884 0.0
C870 C 0.27647 0.95927 0.55313 0.0
C871 C 0.25694 0.94294 0.5551 0.0
C872 C 0.26033 0.91839 0.56268 0.0
C873 C 0.28266 0.91062 0.56945 0.0
C874 C 0.23271 0.95173 0.55139 0.0
C875 C 0.2175 0.93947 0.53607 0.0
C876 C 0.22415 0.97114 0.56407 0.0
C877 C 0.2388 0.98391 0.58157 0.0
C878 C 0.24835 0.9708 0.60122 0.0
C879 C 0.2624 0.98292 0.61747 0.0
C880 C 0.26682 0.0082 0.61437 0.0
C881 C 0.25714 0.02142 0.59505 0.0
C882 C 0.24312 0.00937 0.57872 0.0
C883 C 0.1242 0.97865 0.56633 0.0
C884 C 0.1129 0.98551 0.54499 0.0
C885 C 0.14763 0.97193 0.56658 0.0
C886 C 0.16029 0.97191 0.54551 0.0
C887 C 0.14908 0.9786 0.5241 0.0
C888 C 0.1255 0.98524 0.52383 0.0
C889 C 0.18531 0.96511 0.54632 0.0
C890 C 0.2007 0.97782 0.56107 0.0
C891 C 0.1938 0.94571 0.53359 0.0
C892 C 0.17815 0.93087 0.51859 0.0
C893 C 0.18322 0.9291 0.49459 0.0
C894 C 0.16838 0.91528 0.48037 0.0
C895 C 0.14848 0.90301 0.49 0.0
C896 C 0.14344 0.90445 0.51389 0.0
C897 C 0.15824 0.91823 0.52819 0.0
H898 H 0.13699 0.89234 0.47895 0.0
H899 H 0.27771 0.01756 0.62697 0.0
H900 H 0.79958 0.4001 0.85922 0.0
H901 H 0.83628 0.41734 0.87511 0.0
H902 H 0.80905 0.4061 0.94561 0.0
H903 H 0.77217 0.38951 0.92985 0.0
H904 H 0.83087 0.45018 0.9397 0.0
H905 H 0.84841 0.36698 0.92383 0.0
H906 H 0.85125 0.33149 0.89913 0.0
H907 H 0.89898 0.37272 0.85288 0.0
H908 H 0.89617 0.40858 0.87714 0.0
H909 H 0.9342 0.46194 0.00758 0.0
H910 H 0.89874 0.4457 0.9888 0.0
H911 H 0.93206 0.45536 0.92086 0.0
H912 H 0.96796 0.47098 0.9397 0.0
H913 H 0.90749 0.41367 0.92337 0.0
H914 H 0.89121 0.49653 0.94029 0.0
H915 H 0.88817 0.53195 0.96505 0.0
H916 H 0.83784 0.49166 0.00914 0.0
H917 H 0.84082 0.45588 0.98484 0.0
C918 C 0.80131 0.40154 0.87809 0.0
C919 C 0.78295 0.39325 0.89326 0.0
C920 C 0.8224 0.41119 0.88717 0.0
C921 C 0.82559 0.41274 0.91161 0.0
C922 C 0.80708 0.405 0.92671 0.0
C923 C 0.78606 0.39532 0.91767 0.0
C924 C 0.84816 0.42228 0.92158 0.0
C925 C 0.8476 0.44203 0.93631 0.0
C926 C 0.87011 0.41211 0.9167 0.0
C927 C 0.87188 0.39054 0.90216 0.0
C928 C 0.85937 0.36854 0.90829 0.0
C929 C 0.86099 0.34835 0.89439 0.0
C930 C 0.87523 0.34987 0.87441 0.0
C931 C 0.88793 0.37158 0.86833 0.0
C932 C 0.88634 0.39184 0.88216 0.0
C933 C 0.93407 0.46049 0.98865 0.0
C934 C 0.9539 0.46792 0.97513 0.0
C935 C 0.91369 0.45133 0.97789 0.0
C936 C 0.91244 0.4498 0.9533 0.0
C937 C 0.93248 0.45648 0.93983 0.0
C938 C 0.95302 0.46542 0.95063 0.0
C939 C 0.89019 0.44144 0.94173 0.0
C940 C 0.89081 0.42194 0.92667 0.0
C941 C 0.86826 0.45188 0.94627 0.0
C942 C 0.86639 0.47345 0.96084 0.0
C943 C 0.87961 0.49517 0.95536 0.0
C944 C 0.87789 0.51532 0.9693 0.0
C945 C 0.86285 0.51403 0.98869 0.0
C946 C 0.84949 0.49261 0.99413 0.0
C947 C 0.85117 0.47241 0.98027 0.0
H948 H 0.86149 0.52961 0.99948 0.0
H949 H 0.87647 0.33422 0.86367 0.0
H950 H 0.81161 0.5364 0.44712 0.0
H951 H 0.77219 0.52371 0.4609 0.0
H952 H 0.75724 0.59904 0.47254 0.0
H953 H 0.7965 0.61182 0.45882 0.0
H954 H 0.73775 0.56804 0.50655 0.0
H955 H 0.74192 0.57404 0.42122 0.0
H956 H 0.75756 0.56388 0.38273 0.0
H957 H 0.73827 0.48797 0.3974 0.0
H958 H 0.72282 0.49766 0.43616 0.0
H959 H 0.61653 0.58183 0.48689 0.0
H960 H 0.65944 0.58275 0.48616 0.0
H961 H 0.65868 0.50469 0.47791 0.0
H962 H 0.61553 0.50374 0.47825 0.0
H963 H 0.68727 0.53001 0.44612 0.0
H964 H 0.67685 0.52591 0.5291 0.0
H965 H 0.66058 0.537 0.567 0.0
H966 H 0.69082 0.60974 0.55668 0.0
H967 H 0.70698 0.59922 0.51853 0.0
C968 C 0.8 0.5502 0.45289 0.0
C969 C 0.80707 0.57514 0.45166 0.0
C970 C 0.77752 0.54293 0.46079 0.0
C971 C 0.76167 0.56049 0.46738 0.0
C972 C 0.7692 0.58518 0.46756 0.0
C973 C 0.79168 0.59246 0.45974 0.0
C974 C 0.73665 0.55368 0.47203 0.0
C975 C 0.72667 0.55977 0.49336 0.0
C976 C 0.72235 0.54233 0.45502 0.0
C977 C 0.73149 0.53652 0.43168 0.0
C978 C 0.74118 0.55516 0.4163 0.0
C979 C 0.74999 0.54949 0.39444 0.0
C980 C 0.74898 0.52528 0.38766 0.0
C981 C 0.73909 0.5067 0.40271 0.0
C982 C 0.73031 0.51227 0.42462 0.0
C983 C 0.62547 0.56486 0.48488 0.0
C984 C 0.61265 0.54273 0.48248 0.0
C985 C 0.65 0.56536 0.48475 0.0
C986 C 0.66224 0.54374 0.48225 0.0
C987 C 0.64954 0.52155 0.48002 0.0
C988 C 0.62494 0.52101 0.48031 0.0
C989 C 0.68822 0.54483 0.48045 0.0
C990 C 0.69839 0.53776 0.45959 0.0
C991 C 0.70263 0.55537 0.49786 0.0
C992 C 0.69301 0.5618 0.52085 0.0
C993 C 0.67988 0.54433 0.53481 0.0
C994 C 0.67071 0.55051 0.55636 0.0
C995 C 0.67463 0.57407 0.56422 0.0
C996 C 0.68779 0.5915 0.55056 0.0
C997 C 0.69699 0.58542 0.52898 0.0
H998 H 0.66751 0.57882 0.58091 0.0
H999 H 0.7558 0.52092 0.37072 0.0
H1000 H 0.09404 0.2492 0.11481 0.0
H1001 H 0.07359 0.28527 0.09832 0.0
H1002 H 0.14032 0.32221 0.08372 0.0
H1003 H 0.16082 0.28643 0.1004 0.0
H1004 H 0.11023 0.35264 0.10316 0.0
H1005 H 0.10651 0.29768 0.03971 0.0
H1006 H 0.0967 0.25875 0.02141 0.0
H1007 H 0.02365 0.26673 0.03691 0.0
H1008 H 0.03307 0.30556 0.0556 0.0
H1009 H 0.07274 0.44633 0.01525 0.0
H1010 H 0.09099 0.40929 0.033 0.0
H1011 H 0.02468 0.38586 0.06408 0.0
H1012 H 1.00667 0.42341 0.0474 0.0
H1013 H 0.05276 0.34827 0.0373 0.0
H1014 H 0.05542 0.40402 0.09842 0.0
H1015 H 0.06441 0.44122 0.11966 0.0
H1016 H 0.13835 0.42987 0.1128 0.0
H1017 H 0.12985 0.39361 0.09004 0.0
C1018 C 0.1044 0.26503 0.10821 0.0
C1019 C 0.1292 0.26467 0.10893 0.0
C1020 C 0.09264 0.28565 0.09856 0.0
C1021 C 0.1053 0.30659 0.08945 0.0
C1022 C 0.13002 0.30639 0.09048 0.0
C1023 C 0.14177 0.28574 0.09991 0.0
C1024 C 0.09297 0.32883 0.07916 0.0
C1025 C 0.09796 0.35173 0.08849 0.0
C1026 C 0.07622 0.32768 0.06056 0.0
C1027 C 0.07053 0.30439 0.04927 0.0
C1028 C 0.08838 0.29103 0.03939 0.0
C1029 C 0.08288 0.26901 0.02891 0.0
C1030 C 0.05957 0.26024 0.02806 0.0
C1031 C 0.0417 0.27352 0.03762 0.0
C1032 C 0.04711 0.29555 0.04814 0.0
C1033 C 0.06203 0.43325 0.02581 0.0
C1034 C 0.03821 0.43788 0.02986 0.0
C1035 C 0.07251 0.4121 0.03603 0.0
C1036 C 0.05928 0.3947 0.04999 0.0
C1037 C 0.03532 0.39894 0.05345 0.0
C1038 C 0.02504 0.42046 0.04391 0.0
C1039 C 0.07045 0.37219 0.061 0.0
C1040 C 0.06517 0.34925 0.05185 0.0
C1041 C 0.08682 0.37328 0.07992 0.0
C1042 C 0.09195 0.39633 0.09192 0.0
C1043 C 0.0736 0.4099 0.10065 0.0
C1044 C 0.07862 0.43084 0.11305 0.0
C1045 C 0.10193 0.43809 0.11737 0.0
C1046 C 0.12028 0.42447 0.1092 0.0
C1047 C 0.11537 0.40385 0.09634 0.0
H1048 H 0.10578 0.45415 0.12722 0.0
H1049 H 0.05535 0.24318 0.01994 0.0
H1050 H 0.62311 0.2564 0.92193 0.0
H1051 H 0.60526 0.21943 0.94152 0.0
H1052 H 0.58702 0.19191 0.87389 0.0
H1053 H 0.60511 0.22855 0.85418 0.0
H1054 H 0.55036 0.18672 0.90445 0.0
H1055 H 0.63292 0.16912 0.90545 0.0
H1056 H 0.67491 0.17722 0.91412 0.0
H1057 H 0.65973 0.17791 0.98796 0.0
H1058 H 0.61758 0.17014 0.97969 0.0
H1059 H 0.52099 0.063 0.9397 0.0
H1060 H 0.53815 0.10091 0.92144 0.0
H1061 H 0.5617 0.12295 0.98968 0.0
H1062 H 0.54526 0.08469 0.00794 0.0
H1063 H 0.59532 0.13185 0.95962 0.0
H1064 H 0.51329 0.14903 0.95958 0.0
H1065 H 0.47104 0.14168 0.95167 0.0
H1066 H 0.48449 0.1429 0.87737 0.0
H1067 H 0.52688 0.14993 0.88486 0.0
C1068 C 0.61555 0.24237 0.9112 0.0
C1069 C 0.61556 0.24552 0.88644 0.0
C1070 C 0.60527 0.22127 0.92244 0.0
C1071 C 0.59489 0.20282 0.90917 0.0
C1072 C 0.59481 0.20594 0.8845 0.0
C1073 C 0.60511 0.22698 0.87325 0.0
C1074 C 0.58401 0.18029 0.92094 0.0
C1075 C 0.56024 0.17455 0.91631 0.0
C1076 C 0.59672 0.16478 0.93691 0.0
C1077 C 0.62207 0.1693 0.94192 0.0
C1078 C 0.63851 0.17118 0.92352 0.0
C1079 C 0.66235 0.17568 0.92836 0.0
C1080 C 0.66998 0.17814 0.95157 0.0
C1081 C 0.65379 0.17603 0.96999 0.0
C1082 C 0.62993 0.17157 0.96524 0.0
C1083 C 0.52969 0.07598 0.95085 0.0
C1084 C 0.53168 0.07084 0.9753 0.0
C1085 C 0.53943 0.09774 0.94039 0.0
C1086 C 0.55099 0.11504 0.95419 0.0
C1087 C 0.55289 0.10995 0.97863 0.0
C1088 C 0.5434 0.08808 0.98906 0.0
C1089 C 0.5616 0.13814 0.94312 0.0
C1090 C 0.58534 0.14401 0.94785 0.0
C1091 C 0.5488 0.15389 0.92738 0.0
C1092 C 0.52329 0.14978 0.9228 0.0
C1093 C 0.50726 0.14756 0.94157 0.0
C1094 C 0.48328 0.14348 0.93716 0.0
C1095 C 0.47509 0.14177 0.91404 0.0
C1096 C 0.49086 0.1442 0.89527 0.0
C1097 C 0.51486 0.14826 0.89959 0.0
H1098 H 0.45652 0.1386 0.91066 0.0
H1099 H 0.68843 0.18163 0.95529 0.0
H1100 H 0.97187 0.7245 0.48309 0.0
H1101 H 0.9901 0.76358 0.494 0.0
H1102 H 0.96656 0.798 0.42803 0.0
H1103 H 0.9492 0.75891 0.41683 0.0
H1104 H 0.0085 0.8143 0.43667 0.0
H1105 H 0.9373 0.80269 0.48228 0.0
H1106 H 0.91022 0.78099 0.5106 0.0
H1107 H 0.96328 0.78357 0.5647 0.0
H1108 H 0.99078 0.80504 0.53659 0.0
H1109 H 0.98792 0.93729 0.46099 0.0
H1110 H 0.98541 0.89374 0.45324 0.0
H1111 H 0.0307 0.87726 0.51294 0.0
H1112 H 0.03372 0.9211 0.52058 0.0
H1113 H 0.98534 0.84978 0.51123 0.0
H1114 H 0.05358 0.86932 0.46451 0.0
H1115 H 0.07722 0.89389 0.43511 0.0
H1116 H 0.02585 0.879 0.38157 0.0
H1117 H 1.0017 0.85465 0.41073 0.0
C1118 C 0.9707 0.74046 0.47097 0.0
C1119 C 0.95914 0.73878 0.44916 0.0
C1120 C 0.98106 0.76275 0.4772 0.0
C1121 C 0.97948 0.78385 0.46195 0.0
C1122 C 0.96815 0.78201 0.44005 0.0
C1123 C 0.95818 0.75969 0.43367 0.0
C1124 C 0.98886 0.8081 0.46887 0.0
C1125 C 1.00338 0.82204 0.45297 0.0
C1126 C 0.98267 0.81807 0.49038 0.0
C1127 C 0.96618 0.80517 0.50727 0.0
C1128 C 0.94324 0.79845 0.50017 0.0
C1129 C 0.92781 0.78623 0.51619 0.0
C1130 C 0.93505 0.78082 0.53941 0.0
C1131 C 0.95772 0.78771 0.54669 0.0
C1132 C 0.97323 0.79991 0.53073 0.0
C1133 C 0.9976 0.92445 0.47229 0.0
C1134 C 0.01098 0.93252 0.49141 0.0
C1135 C 0.99621 0.89962 0.4678 0.0
C1136 C 0.00792 0.8824 0.4825 0.0
C1137 C 0.02163 0.89038 0.50139 0.0
C1138 C 0.02339 0.91535 0.50565 0.0
C1139 C 1.00435 0.85601 0.47877 0.0
C1140 C 0.99089 0.84173 0.49523 0.0
C1141 C 0.0111 0.84594 0.45758 0.0
C1142 C 0.02576 0.86025 0.43987 0.0
C1143 C 0.04724 0.87141 0.44651 0.0
C1144 C 0.06074 0.88528 0.42987 0.0
C1145 C 0.05302 0.88804 0.40649 0.0
C1146 C 0.03181 0.87685 0.39969 0.0
C1147 C 0.01822 0.86298 0.41626 0.0
H1148 H 0.06349 0.89881 0.39365 0.0
H1149 H 0.92308 0.77137 0.55179 0.0
H1150 H 0.3959 0.73684 0.58408 0.0
H1151 H 0.40778 0.69537 0.57624 0.0
H1152 H 0.48012 0.72102 0.57088 0.0
H1153 H 0.46831 0.76262 0.57857 0.0
H1154 H 0.46503 0.69325 0.53357 0.0
H1155 H 0.46355 0.68799 0.61834 0.0
H1156 H 0.44583 0.69171 0.65737 0.0
H1157 H 0.39115 0.6395 0.64059 0.0
H1158 H 0.40836 0.63574 0.6013 0.0
H1159 H 0.52067 0.58144 0.52997 0.0
H1160 H 0.50833 0.6206 0.54342 0.0
H1161 H 0.43769 0.591 0.55326 0.0
H1162 H 0.45006 0.55135 0.54022 0.0
H1163 H 0.45077 0.62044 0.58844 0.0
H1164 H 0.45098 0.62551 0.50424 0.0
H1165 H 0.46752 0.62146 0.46473 0.0
H1166 H 0.52259 0.67402 0.47943 0.0
H1167 H 0.50658 0.6781 0.51919 0.0
C1168 C 0.41433 0.73361 0.5812 0.0
C1169 C 0.4312 0.7529 0.58185 0.0
C1170 C 0.42109 0.70992 0.57691 0.0
C1171 C 0.44482 0.70517 0.57314 0.0
C1172 C 0.46172 0.72437 0.57383 0.0
C1173 C 0.45499 0.74803 0.57833 0.0
C1174 C 0.45189 0.68033 0.5676 0.0
C1175 C 0.46225 0.67737 0.54569 0.0
C1176 C 0.44745 0.65959 0.58314 0.0
C1177 C 0.43712 0.66177 0.60678 0.0
C1178 C 0.44763 0.67747 0.62289 0.0
C1179 C 0.4377 0.67955 0.64508 0.0
C1180 C 0.41734 0.6659 0.65144 0.0
C1181 C 0.4069 0.65009 0.63563 0.0
C1182 C 0.41675 0.64796 0.61341 0.0
C1183 C 0.50254 0.58315 0.53518 0.0
C1184 C 0.48626 0.5634 0.5338 0.0
C1185 C 0.49552 0.60557 0.54281 0.0
C1186 C 0.47201 0.60882 0.54887 0.0
C1187 C 0.4559 0.58886 0.54854 0.0
C1188 C 0.46298 0.56627 0.54106 0.0
C1189 C 0.46419 0.63341 0.55451 0.0
C1190 C 0.45359 0.63632 0.57634 0.0
C1191 C 0.46816 0.65414 0.53879 0.0
C1192 C 0.4777 0.65195 0.51478 0.0
C1193 C 0.46671 0.63608 0.49911 0.0
C1194 C 0.47598 0.63379 0.47666 0.0
C1195 C 0.49612 0.64743 0.4696 0.0
C1196 C 0.507 0.66344 0.48494 0.0
C1197 C 0.49783 0.66577 0.50743 0.0
H1198 H 0.50328 0.64563 0.45221 0.0
H1199 H 0.40969 0.66754 0.66863 0.0
H1200 H 0.88547 0.86676 0.72606 0.0
H1201 H 0.9046 0.88266 0.6897 0.0
H1202 H 0.8981 0.95655 0.71137 0.0
H1203 H 0.87849 0.94073 0.74747 0.0
H1204 H 0.8892 0.95772 0.6674 0.0
H1205 H 0.95222 0.92364 0.71344 0.0
H1206 H 0.97322 0.89183 0.73709 0.0
H1207 H 0.9726 0.84606 0.67807 0.0
H1208 H 0.95132 0.87749 0.65415 0.0
H1209 H 1.00358 0.97941 0.59013 0.0
H1210 H 0.98379 0.96405 0.62625 0.0
H1211 H 0.91826 0.95809 0.58794 0.0
H1212 H 0.93789 0.97425 0.55188 0.0
H1213 H 0.96381 0.9239 0.64087 0.0
H1214 H 0.8714 0.96331 0.62353 0.0
H1215 H 0.85342 0.99902 0.60267 0.0
H1216 H 0.91798 0.04095 0.60925 0.0
H1217 H 0.93624 0.00562 0.6304 0.0
C1218 C 0.88825 0.8864 0.72321 0.0
C1219 C 0.88038 0.90237 0.73993 0.0
C1220 C 0.8993 0.89554 0.7023 0.0
C1221 C 0.90327 0.92095 0.6976 0.0
C1222 C 0.89531 0.93691 0.71426 0.0
C1223 C 0.88403 0.92779 0.73503 0.0
C1224 C 0.91556 0.93093 0.67543 0.0
C1225 C 0.90549 0.95021 0.66165 0.0
C1226 C 0.93714 0.92172 0.66779 0.0
C1227 C 0.94997 0.90281 0.68209 0.0
C1228 C 0.95642 0.90672 0.70556 0.0
C1229 C 0.96839 0.88877 0.719 0.0
C1230 C 0.97419 0.86691 0.70911 0.0
C1231 C 0.96807 0.86299 0.68572 0.0
C1232 C 0.95607 0.88087 0.67221 0.0
C1233 C 0.98491 0.97497 0.58935 0.0
C1234 C 0.97239 0.97828 0.56794 0.0
C1235 C 0.97356 0.96603 0.61012 0.0
C1236 C 0.94931 0.96001 0.61023 0.0
C1237 C 0.93682 0.96301 0.58875 0.0
C1238 C 0.94814 0.97219 0.56798 0.0
C1239 C 0.93732 0.95051 0.63271 0.0
C1240 C 0.94745 0.93132 0.64655 0.0
C1241 C 0.91615 0.96028 0.64076 0.0
C1242 C 0.90524 0.98173 0.62832 0.0
C1243 C 0.88172 0.98018 0.6206 0.0
C1244 C 0.87149 1.00035 0.60871 0.0
C1245 C 0.88458 0.02221 0.60456 0.0
C1246 C 0.90789 0.02398 0.61239 0.0
C1247 C 0.9182 0.00389 0.6243 0.0
H1248 H 0.87663 0.03779 0.59534 0.0
H1249 H 0.98346 0.85304 0.71954 0.0
H1250 H 0.56065 0.12627 0.27474 0.0
H1251 H 0.55128 0.10933 0.2369 0.0
H1252 H 0.53972 0.03763 0.2716 0.0
H1253 H 0.55014 0.05452 0.30955 0.0
H1254 H 0.56396 0.03261 0.23499 0.0
H1255 H 0.4932 0.07311 0.2469 0.0
H1256 H 0.46733 0.10642 0.25676 0.0
H1257 H 0.49433 0.15144 0.19816 0.0
H1258 H 0.52063 0.11855 0.18813 0.0
H1259 H 0.52429 0.99623 0.11909 0.0
H1260 H 0.52109 0.00554 0.16086 0.0
H1261 H 0.55856 0.07447 0.14629 0.0
H1262 H 0.5622 0.06502 0.10492 0.0
H1263 H 0.51386 0.07494 0.17447 0.0
H1264 H 0.58927 0.03409 0.1687 0.0
H1265 H 0.61304 0.99898 0.15917 0.0
H1266 H 0.57246 0.95178 0.20741 0.0
H1267 H 0.54823 0.98661 0.21697 0.0
C1268 C 0.55575 0.10697 0.27432 0.0
C1269 C 0.55594 0.09171 0.29503 0.0
C1270 C 0.55027 0.09729 0.25269 0.0
C1271 C 0.54428 0.07225 0.25137 0.0
C1272 C 0.54418 0.05701 0.27215 0.0
C1273 C 0.55009 0.06664 0.29379 0.0
C1274 C 0.53975 0.06191 0.22805 0.0
C1275 C 0.55253 0.04157 0.22201 0.0
C1276 C 0.52484 0.07348 0.21095 0.0
C1277 C 0.509 0.09336 0.21684 0.0
C1278 C 0.49374 0.09017 0.2362 0.0
C1279 C 0.47898 0.10897 0.24181 0.0
C1280 C 0.47921 0.13104 0.22811 0.0
C1281 C 0.49417 0.13433 0.20875 0.0
C1282 C 0.50898 0.11559 0.20307 0.0
C1283 C 0.53176 0.01334 0.12492 0.0
C1284 C 0.54367 0.02983 0.10897 0.0
C1285 C 0.52993 0.01862 0.14865 0.0
C1286 C 0.53957 0.04069 0.1565 0.0
C1287 C 0.55099 0.05737 0.14048 0.0
C1288 C 0.55324 0.05188 0.11697 0.0
C1289 C 0.53857 0.04637 0.18155 0.0
C1290 C 0.52477 0.06578 0.1878 0.0
C1291 C 0.55211 0.03367 0.19895 0.0
C1292 C 0.56677 0.01285 0.19331 0.0
C1293 C 0.58528 0.01618 0.17709 0.0
C1294 C 0.59886 0.99634 0.17173 0.0
C1295 C 0.59421 0.97314 0.18262 0.0
C1296 C 0.57601 0.96975 0.19895 0.0
C1297 C 0.56236 0.98953 0.20436 0.0
H1298 H 0.60475 0.95781 0.17844 0.0
H1299 H 0.46777 0.14558 0.23249 0.0
H1300 H 0.34849 0.58523 0.29184 0.0
H1301 H 0.36761 0.56858 0.32768 0.0
H1302 H 0.43548 0.59047 0.29897 0.0
H1303 H 0.4166 0.60607 0.26265 0.0
H1304 H 0.43798 0.54679 0.32024 0.0
H1305 H 0.40775 0.62369 0.3408 0.0
H1306 H 0.37759 0.65463 0.34501 0.0
H1307 H 0.33821 0.60428 0.39139 0.0
H1308 H 0.368 0.5729 0.38719 0.0
H1309 H 0.50437 0.54216 0.42705 0.0
H1310 H 0.48405 0.55628 0.39091 0.0
H1311 H 0.41831 0.52667 0.41901 0.0
H1312 H 0.43849 0.51246 0.45527 0.0
H1313 H 0.41415 0.57333 0.39841 0.0
H1314 H 0.44594 0.49683 0.37827 0.0
H1315 H 0.47717 0.46699 0.37439 0.0
H1316 H 0.51488 0.51814 0.3274 0.0
H1317 H 0.48403 0.54845 0.33127 0.0
C1318 C 0.36751 0.58623 0.29298 0.0
C1319 C 0.38095 0.59717 0.27431 0.0
C1320 C 0.37842 0.57694 0.31365 0.0
C1321 C 0.40301 0.57861 0.31626 0.0
C1322 C 0.41649 0.58906 0.29749 0.0
C1323 C 0.40561 0.59822 0.27678 0.0
C1324 C 0.41473 0.56956 0.33853 0.0
C1325 C 0.43293 0.55285 0.33729 0.0
C1326 C 0.40791 0.57703 0.36091 0.0
C1327 C 0.38998 0.59586 0.36347 0.0
C1328 C 0.39256 0.61914 0.35174 0.0
C1329 C 0.37555 0.63677 0.35416 0.0
C1330 C 0.35596 0.6314 0.36841 0.0
C1331 C 0.35338 0.6084 0.38032 0.0
C1332 C 0.37032 0.59069 0.37795 0.0
C1333 C 0.48559 0.53861 0.42556 0.0
C1334 C 0.47308 0.52607 0.44404 0.0
C1335 C 0.47401 0.54663 0.40484 0.0
C1336 C 0.44969 0.54234 0.40215 0.0
C1337 C 0.43709 0.53014 0.42068 0.0
C1338 C 0.44868 0.52196 0.44136 0.0
C1339 C 0.4374 0.55069 0.38004 0.0
C1340 C 0.41912 0.56726 0.38134 0.0
C1341 C 0.44427 0.54325 0.35771 0.0
C1342 C 0.46277 0.525 0.35524 0.0
C1343 C 0.46098 0.50179 0.36725 0.0
C1344 C 0.4786 0.48478 0.36503 0.0
C1345 C 0.49803 0.49069 0.35071 0.0
C1346 C 0.49984 0.5136 0.33852 0.0
C1347 C 0.48228 0.5307 0.3407 0.0
H1348 H 0.51165 0.47749 0.34901 0.0
H1349 H 0.34281 0.64507 0.37026 0.0
H1350 H 0.07435 0.36478 0.74327 0.0
H1351 H 0.0705 0.37779 0.78355 0.0
H1352 H 0.07746 0.45352 0.75796 0.0
H1353 H 0.08109 0.44071 0.71771 0.0
H1354 H 0.10501 0.44376 0.79648 0.0
H1355 H 0.0242 0.42782 0.77265 0.0
H1356 H 0.99128 0.40225 0.75816 0.0
H1357 H 0.99989 0.35053 0.81715 0.0
H1358 H 0.0331 0.37565 0.83182 0.0
H1359 H 0.05981 0.51356 0.88378 0.0
H1360 H 0.06697 0.49236 0.84814 0.0
H1361 H 0.0574 0.42257 0.8868 0.0
H1362 H 0.05036 0.44379 0.92286 0.0
H1363 H 0.03398 0.42379 0.84476 0.0
H1364 H 0.11181 0.44179 0.87107 0.0
H1365 H 0.14464 0.46722 0.88591 0.0
H1366 H 0.14225 0.51428 0.82287 0.0
H1367 H 0.10916 0.48935 0.80778 0.0
C1368 C 0.0748 0.38421 0.74621 0.0
C1369 C 0.07801 0.40173 0.72731 0.0
C1370 C 0.07268 0.39159 0.76923 0.0
C1371 C 0.0736 0.41661 0.7737 0.0
C1372 C 0.07683 0.43411 0.75489 0.0
C1373 C 0.07895 0.42676 0.73191 0.0
C1374 C 0.07127 0.42479 0.79794 0.0
C1375 C 0.08942 0.43955 0.80699 0.0
C1376 C 0.0513 0.4185 0.81195 0.0
C1377 C 0.0313 0.40346 0.80318 0.0
C1378 C 0.0192 0.41089 0.78242 0.0
C1379 C 1.00047 0.3965 0.7742 0.0
C1380 C 0.99355 0.37474 0.78668 0.0
C1381 C 1.0053 0.36736 0.80747 0.0
C1382 C 0.02407 0.38168 0.81575 0.0
C1383 C 0.05955 0.49372 0.88488 0.0
C1384 C 0.05473 0.48038 0.90626 0.0
C1385 C 0.0636 0.48161 0.86444 0.0
C1386 C 0.06308 0.4559 0.86492 0.0
C1387 C 0.05796 0.44244 0.88611 0.0
C1388 C 0.05387 0.45459 0.90665 0.0
C1389 C 0.06742 0.44337 0.843 0.0
C1390 C 0.04972 0.42774 0.83441 0.0
C1391 C 0.08786 0.44876 0.82942 0.0
C1392 C 0.10788 0.46377 0.83836 0.0
C1393 C 0.11817 0.45766 0.86043 0.0
C1394 C 0.13684 0.47197 0.86889 0.0
C1395 C 0.1455 0.49238 0.85536 0.0
C1396 C 0.13552 0.49848 0.83333 0.0
C1397 C 0.11682 0.48423 0.8248 0.0
H1398 H 0.15996 0.50344 0.86194 0.0
H1399 H 0.97903 0.36362 0.78029 0.0
H1400 H 0.7066 0.85609 0.89782 0.0
H1401 H 0.67187 0.87517 0.91347 0.0
H1402 H 0.71053 0.94404 0.91551 0.0
H1403 H 0.74518 0.92519 0.89917 0.0
H1404 H 0.68358 0.92523 0.95995 0.0
H1405 H 0.67391 0.94339 0.87597 0.0
H1406 H 0.67087 0.93218 0.8346 0.0
H1407 H 0.61132 0.88453 0.85177 0.0
H1408 H 0.61423 0.89519 0.89334 0.0
H1409 H 0.59022 0.99889 0.99337 0.0
H1410 H 0.6247 0.98205 0.97555 0.0
H1411 H 0.57995 0.92936 0.94139 0.0
H1412 H 0.54527 0.94774 0.95769 0.0
H1413 H 0.61096 0.93946 0.91289 0.0
H1414 H 0.6191 0.91739 0.99494 0.0
H1415 H 0.62138 0.92353 0.03758 0.0
H1416 H 0.68213 0.97127 0.02672 0.0
H1417 H 0.68005 0.96565 0.98397 0.0
C1418 C 0.70771 0.87534 0.90149 0.0
C1419 C 0.72877 0.88908 0.89716 0.0
C1420 C 0.68778 0.88625 0.91043 0.0
C1421 C 0.68846 0.9111 0.91578 0.0
C1422 C 0.70948 0.92486 0.91159 0.0
C1423 C 0.72927 0.91409 0.90211 0.0
C1424 C 0.66731 0.92255 0.92592 0.0
C1425 C 0.66779 0.92868 0.9496 0.0
C1426 C 0.64629 0.92617 0.91281 0.0
C1427 C 0.64445 0.91989 0.88781 0.0
C1428 C 0.66031 0.93034 0.87097 0.0
C1429 C 0.65858 0.92413 0.84748 0.0
C1430 C 0.64096 0.9076 0.84057 0.0
C1431 C 0.62498 0.89731 0.85715 0.0
C1432 C 0.62666 0.90344 0.88067 0.0
C1433 C 0.58773 0.98367 0.98208 0.0
C1434 C 0.56489 0.97458 0.97717 0.0
C1435 C 0.60761 0.97378 0.972 0.0
C1436 C 0.60548 0.95369 0.95747 0.0
C1437 C 0.58252 0.94472 0.95248 0.0
C1438 C 0.56256 0.95518 0.96194 0.0
C1439 C 0.62694 0.94235 0.94725 0.0
C1440 C 0.6266 0.93612 0.92348 0.0
C1441 C 0.6479 0.93792 0.96054 0.0
C1442 C 0.64927 0.94129 0.98623 0.0
C1443 C 0.63286 0.92931 1.00164 0.0
C1444 C 0.63412 0.93269 0.02582 0.0
C1445 C 0.65185 0.94783 0.03485 0.0
C1446 C 0.66839 0.95958 0.01971 0.0
C1447 C 0.66719 0.95629 0.9955 0.0
H1448 H 0.6528 0.95043 0.05358 0.0
H1449 H 0.63964 0.90281 0.82238 0.0
H1450 H 0.70601 0.03801 0.4402 0.0
H1451 H 0.74554 0.02648 0.45228 0.0
H1452 H 0.76397 0.1023 0.46294 0.0
H1453 H 0.72524 0.11423 0.44897 0.0
H1454 H 0.79675 0.08477 0.44034 0.0
H1455 H 0.75628 0.05686 0.50991 0.0
H1456 H 0.72567 0.03514 0.53421 0.0
H1457 H 0.74726 0.96619 0.51018 0.0
H1458 H 0.7778 0.98752 0.48547 0.0
H1459 H 0.90817 0.05228 0.4901 0.0
H1460 H 0.86727 0.06551 0.48963 0.0
H1461 H 0.84523 0.99887 0.45747 0.0
H1462 H 0.88603 0.98569 0.45776 0.0
H1463 H 0.81513 0.01407 0.49542 0.0
H1464 H 0.85313 0.0454 0.4226 0.0
H1465 H 0.8844 0.06865 0.40044 0.0
H1466 H 0.86749 0.13389 0.43476 0.0
H1467 H 0.83631 0.1109 0.45737 0.0
C1468 C 0.71847 0.05229 0.44498 0.0
C1469 C 0.71231 0.07709 0.44348 0.0
C1470 C 0.74101 0.04559 0.45231 0.0
C1471 C 0.75772 0.06347 0.45886 0.0
C1472 C 0.7514 0.08814 0.45805 0.0
C1473 C 0.72905 0.0949 0.45031 0.0
C1474 C 0.78226 0.05671 0.46479 0.0
C1475 C 0.80068 0.06963 0.4528 0.0
C1476 C 0.78756 0.03678 0.48083 0.0
C1477 C 0.76922 0.02383 0.49568 0.0
C1478 C 0.75439 0.03708 0.50967 0.0
C1479 C 0.73707 0.02483 0.52354 0.0
C1480 C 0.73449 0.9993 0.5237 0.0
C1481 C 0.74927 0.98596 0.51003 0.0
C1482 C 0.76661 0.99812 0.4961 0.0
C1483 C 0.89452 0.04036 0.48325 0.0
C1484 C 0.90019 0.01809 0.47378 0.0
C1485 C 0.87125 0.04792 0.48296 0.0
C1486 C 0.85336 0.03314 0.47347 0.0
C1487 C 0.85885 0.01045 0.4649 0.0
C1488 C 0.88212 1.00308 0.46487 0.0
C1489 C 0.82916 0.04201 0.47082 0.0
C1490 C 0.81095 0.02945 0.48333 0.0
C1491 C 0.82404 0.06254 0.45562 0.0
C1492 C 0.84259 0.07638 0.44185 0.0
C1493 C 0.85621 0.06466 0.42555 0.0
C1494 C 0.87389 0.07779 0.41289 0.0
C1495 C 0.87797 0.10271 0.41624 0.0
C1496 C 0.86433 0.11457 0.43221 0.0
C1497 C 0.84665 0.10151 0.44494 0.0
H1498 H 0.89167 0.11285 0.40642 0.0
H1499 H 0.72107 0.98985 0.53446 0.0
H1500 H 0.24095 0.63023 0.07684 0.0
H1501 H 0.20387 0.614 0.06136 0.0
H1502 H 0.18348 0.58759 0.1313 0.0
H1503 H 0.21998 0.6049 0.1473 0.0
H1504 H 0.17758 0.55254 0.0942 0.0
H1505 H 0.1584 0.6353 0.11117 0.0
H1506 H 0.16438 0.68026 0.10876 0.0
H1507 H 0.15708 0.68146 0.03344 0.0
H1508 H 0.15141 0.63643 0.03538 0.0
H1509 H 0.05617 0.52446 0.07191 0.0
H1510 H 0.09194 0.54293 0.08882 0.0
H1511 H 0.112 0.57319 0.01995 0.0
H1512 H 0.07669 0.55425 1.00285 0.0
H1513 H 0.1179 0.60685 0.05663 0.0
H1514 H 0.13787 0.52724 0.03718 0.0
H1515 H 0.13563 0.48226 0.03574 0.0
H1516 H 0.14565 0.47479 0.11077 0.0
H1517 H 0.14702 0.51972 0.11276 0.0
C1518 C 0.22851 0.62136 0.08911 0.0
C1519 C 0.2336 0.61916 0.11346 0.0
C1520 C 0.20734 0.61192 0.08014 0.0
C1521 C 0.19086 0.59973 0.0952 0.0
C1522 C 0.19599 0.59692 0.11937 0.0
C1523 C 0.21701 0.60671 0.12845 0.0
C1524 C 0.16831 0.58989 0.08563 0.0
C1525 C 0.1643 0.5644 0.08641 0.0
C1526 C 0.15148 0.60538 0.07459 0.0
C1527 C 0.15471 0.63247 0.07341 0.0
C1528 C 0.15827 0.64512 0.09408 0.0
C1529 C 0.16157 0.67063 0.0928 0.0
C1530 C 0.16117 0.68371 0.07096 0.0
C1531 C 0.15741 0.67131 0.05035 0.0
C1532 C 0.15414 0.64579 0.05153 0.0
C1533 C 0.06812 0.53522 0.06042 0.0
C1534 C 0.06366 0.53785 0.03605 0.0
C1535 C 0.08856 0.54569 0.07008 0.0
C1536 C 0.10466 0.55938 0.05562 0.0
C1537 C 0.09981 0.56274 0.03142 0.0
C1538 C 0.07967 0.55183 0.02168 0.0
C1539 C 0.12695 0.56945 0.06558 0.0
C1540 C 0.13101 0.59496 0.06471 0.0
C1541 C 0.14408 0.55396 0.07611 0.0
C1542 C 0.14213 0.52689 0.07518 0.0
C1543 C 0.13906 0.51602 0.05345 0.0
C1544 C 0.138 0.49051 0.05251 0.0
C1545 C 0.14035 0.47564 0.07314 0.0
C1546 C 0.14362 0.48627 0.09479 0.0
C1547 C 0.14447 0.51178 0.09585 0.0
H1548 H 0.13983 0.45591 0.07226 0.0
H1549 H 0.16373 0.70345 0.07 0.0
H1550 H 0.21376 0.39498 0.54996 0.0
H1551 H 0.25403 0.40499 0.53769 0.0
H1552 H 0.24397 0.48118 0.54982 0.0
H1553 H 0.20323 0.47142 0.5616 0.0
H1554 H 0.27314 0.47365 0.51006 0.0
H1555 H 0.26678 0.4491 0.5922 0.0
H1556 H 0.25369 0.42241 0.62632 0.0
H1557 H 0.29147 0.36264 0.60049 0.0
H1558 H 0.30446 0.38888 0.56598 0.0
H1559 H 0.39722 0.50019 0.52812 0.0
H1560 H 0.35419 0.49729 0.53068 0.0
H1561 H 0.35636 0.41876 0.52645 0.0
H1562 H 0.3991 0.42156 0.52383 0.0
H1563 H 0.33057 0.43086 0.5629 0.0
H1564 H 0.33693 0.45575 0.48038 0.0
H1565 H 0.34988 0.48272 0.4464 0.0
H1566 H 0.31272 0.54242 0.47318 0.0
H1567 H 0.29982 0.51587 0.50752 0.0
C1568 C 0.21979 0.414 0.54932 0.0
C1569 C 0.20533 0.43238 0.55697 0.0
C1570 C 0.24289 0.41966 0.54244 0.0
C1571 C 0.25203 0.44374 0.54321 0.0
C1572 C 0.23722 0.46246 0.54921 0.0
C1573 C 0.21405 0.45681 0.55612 0.0
C1574 C 0.27761 0.44865 0.54033 0.0
C1575 C 0.28576 0.46457 0.52173 0.0
C1576 C 0.29397 0.43666 0.55553 0.0
C1577 C 0.28641 0.42089 0.5764 0.0
C1578 C 0.27214 0.43021 0.5937 0.0
C1579 C 0.26476 0.41517 0.61312 0.0
C1580 C 0.2717 0.39082 0.61554 0.0
C1581 C 0.28609 0.38149 0.59857 0.0
C1582 C 0.29347 0.39644 0.57909 0.0
C1583 C 0.38847 0.48238 0.5274 0.0
C1584 C 0.40158 0.46107 0.52604 0.0
C1585 C 0.3639 0.48074 0.52885 0.0
C1586 C 0.35209 0.4578 0.52875 0.0
C1587 C 0.36513 0.43664 0.52673 0.0
C1588 C 0.38958 0.43825 0.52536 0.0
C1589 C 0.3263 0.45537 0.53219 0.0
C1590 C 0.31805 0.44001 0.55114 0.0
C1591 C 0.30998 0.46796 0.51734 0.0
C1592 C 0.31762 0.48389 0.49665 0.0
C1593 C 0.33169 0.47468 0.47913 0.0
C1594 C 0.33899 0.48988 0.45978 0.0
C1595 C 0.33219 0.51429 0.45767 0.0
C1596 C 0.31801 0.52352 0.47486 0.0
C1597 C 0.31068 0.5084 0.49426 0.0
H1598 H 0.33786 0.52603 0.44268 0.0
H1599 H 0.26597 0.37921 0.63059 0.0
H1600 H 0.92456 0.75545 0.90115 0.0
H1601 H 0.94224 0.71946 0.92073 0.0
H1602 H 0.87512 0.68062 0.91953 0.0
H1603 H 0.85714 0.71721 0.90079 0.0
H1604 H 0.89517 0.66656 0.9578 0.0
H1605 H 0.92243 0.67213 0.87866 0.0
H1606 H 0.94057 0.69152 0.84273 0.0
H1607 H 1.00564 0.70215 0.8802 0.0
H1608 H 0.98778 0.68311 0.91646 0.0
H1609 H 0.9829 0.55764 0.94536 0.0
H1610 H 0.9628 0.59373 0.92913 0.0
H1611 H 0.95244 0.61714 0.99948 0.0
H1612 H 0.97125 0.58004 0.01579 0.0
H1613 H 0.9698 0.63809 0.92582 0.0
H1614 H 0.90724 0.65561 1.00274 0.0
H1615 H 0.88592 0.63211 0.03466 0.0
H1616 H 0.88555 0.56783 0.99451 0.0
H1617 H 0.90647 0.59101 0.96221 0.0
C1618 C 0.91351 0.73928 0.90512 0.0
C1619 C 0.88942 0.73925 0.89914 0.0
C1620 C 0.92371 0.71852 0.91625 0.0
C1621 C 0.91033 0.69673 0.9212 0.0
C1622 C 0.88605 0.69695 0.91593 0.0
C1623 C 0.87571 0.71795 0.90516 0.0
C1624 C 0.92177 0.67378 0.93137 0.0
C1625 C 0.9115 0.6604 0.95075 0.0
C1626 C 0.94286 0.66501 0.92209 0.0
C1627 C 0.9537 0.67641 0.90033 0.0
C1628 C 0.94056 0.67875 0.87928 0.0
C1629 C 0.9508 0.68966 0.85885 0.0
C1630 C 0.97422 0.69812 0.8592 0.0
C1631 C 0.98748 0.69562 0.87996 0.0
C1632 C 0.97732 0.68476 0.90046 0.0
C1633 C 0.97626 0.57041 0.95743 0.0
C1634 C 0.97867 0.56576 0.98194 0.0
C1635 C 0.96475 0.59124 0.94808 0.0
C1636 C 0.95557 0.60843 0.96288 0.0
C1637 C 0.95855 0.60408 0.98744 0.0
C1638 C 0.96956 0.58286 0.99684 0.0
C1639 C 0.94333 0.63084 0.95242 0.0
C1640 C 0.95348 0.64418 0.93295 0.0
C1641 C 0.92168 0.63899 0.96107 0.0
C1642 C 0.90865 0.625 0.98018 0.0
C1643 C 0.90249 0.63649 1.00068 0.0
C1644 C 0.89048 0.62322 0.01884 0.0
C1645 C 0.88442 0.59846 0.01664 0.0
C1646 C 0.89026 0.58697 0.99621 0.0
C1647 C 0.90221 0.60017 0.97798 0.0
H1648 H 0.87518 0.5882 0.03073 0.0
H1649 H 0.98211 0.70656 0.84336 0.0
H1650 H 0.36777 0.78262 0.11108 0.0
H1651 H 0.38646 0.81888 0.09122 0.0
H1652 H 0.45426 0.79591 0.11692 0.0
H1653 H 0.43608 0.75887 0.13573 0.0
H1654 H 0.44244 0.84748 0.12387 0.0
H1655 H 0.44507 0.78818 0.06389 0.0
H1656 H 0.42765 0.7575 0.03815 0.0
H1657 H 0.38181 0.81158 0.00701 0.0
H1658 H 0.39873 0.8425 0.03283 0.0
H1659 H 0.51344 0.93557 0.05888 0.0
H1660 H 0.49683 0.89747 0.07747 0.0
H1661 H 0.43433 0.90528 0.03434 0.0
H1662 H 0.45147 0.9425 0.01484 0.0
H1663 H 0.44372 0.86048 0.03678 0.0
H1664 H 0.43829 0.91957 0.09546 0.0
H1665 H 0.45291 0.95144 0.12143 0.0
H1666 H 0.49968 0.9002 0.15569 0.0
H1667 H 0.48556 0.86809 0.1297 0.0
C1668 C 0.3867 0.78493 0.11224 0.0
C1669 C 0.40031 0.76761 0.12515 0.0
C1670 C 0.39732 0.80584 0.10101 0.0
C1671 C 0.42171 0.81007 0.10268 0.0
C1672 C 0.43537 0.79304 0.11559 0.0
C1673 C 0.42485 0.77193 0.12648 0.0
C1674 C 0.43301 0.83226 0.09087 0.0
C1675 C 0.44302 0.85027 0.10482 0.0
C1676 C 0.43308 0.83612 0.06608 0.0
C1677 C 0.42299 0.81758 0.05047 0.0
C1678 C 0.43112 0.79347 0.05171 0.0
C1679 C 0.42137 0.77605 0.03708 0.0
C1680 C 0.40359 0.78257 0.021 0.0
C1681 C 0.39557 0.80655 0.01949 0.0
C1682 C 0.40524 0.82403 0.03411 0.0
C1683 C 0.4962 0.92907 0.05334 0.0
C1684 C 0.48375 0.94202 0.03544 0.0
C1685 C 0.48661 0.90736 0.06409 0.0
C1686 C 0.46404 0.89862 0.05771 0.0
C1687 C 0.45174 0.91151 0.03964 0.0
C1688 C 0.46154 0.93285 0.02852 0.0
C1689 C 0.4532 0.87608 0.06972 0.0
C1690 C 0.44322 0.85789 0.05583 0.0
C1691 C 0.4527 0.87232 0.09463 0.0
C1692 C 0.46103 0.8915 0.11048 0.0
C1693 C 0.45179 0.91514 0.10844 0.0
C1694 C 0.45998 0.93324 0.12317 0.0
C1695 C 0.47726 0.92787 0.14015 0.0
C1696 C 0.48632 0.90435 0.1425 0.0
C1697 C 0.47822 0.88618 0.12779 0.0
H1698 H 0.4836 0.94192 0.15152 0.0
H1699 H 0.39606 0.76906 0.00968 0.0
H1700 H 0.06035 0.25251 0.59601 0.0
H1701 H 0.04563 0.21199 0.5859 0.0
H1702 H 0.02842 0.24056 0.51578 0.0
H1703 H 0.04305 0.2815 0.52587 0.0
H1704 H 0.99305 0.20621 0.53859 0.0
H1705 H 0.07556 0.21285 0.51969 0.0
H1706 H 0.11737 0.22245 0.52788 0.0
H1707 H 0.1166 0.16869 0.58601 0.0
H1708 H 0.07466 0.15904 0.57839 0.0
H1709 H 0.98474 0.08558 0.49288 0.0
H1710 H 0.99071 0.12923 0.49993 0.0
H1711 H 0.0278 0.10989 0.56465 0.0
H1712 H 0.02287 0.06654 0.55704 0.0
H1713 H 0.05263 0.14158 0.54058 0.0
H1714 H 0.97074 0.13551 0.56178 0.0
H1715 H 0.92855 0.12594 0.55562 0.0
H1716 H 0.9273 0.17775 0.49593 0.0
H1717 H 0.96957 0.18739 0.50156 0.0
C1718 C 0.05305 0.25032 0.57856 0.0
C1719 C 0.05286 0.27017 0.56171 0.0
C1720 C 0.04474 0.22715 0.5728 0.0
C1721 C 0.03606 0.22334 0.55009 0.0
C1722 C 0.03504 0.24322 0.53341 0.0
C1723 C 0.04356 0.26647 0.53912 0.0
C1724 C 0.02964 0.19818 0.54358 0.0
C1725 C 1.00605 0.19206 0.53866 0.0
C1726 C 0.04661 0.17979 0.54413 0.0
C1727 C 0.07191 0.18538 0.54858 0.0
C1728 C 0.08425 0.20321 0.53433 0.0
C1729 C 0.10799 0.20864 0.53885 0.0
C1730 C 0.11962 0.19622 0.55748 0.0
C1731 C 0.10756 0.17831 0.57159 0.0
C1732 C 0.08381 0.17284 0.56717 0.0
C1733 C 0.99378 0.09074 0.5088 0.0
C1734 C 1.00348 0.0728 0.52436 0.0
C1735 C 0.99714 0.11566 0.51285 0.0
C1736 C 0.00972 0.1229 0.53285 0.0
C1737 C 0.01825 0.10481 0.54899 0.0
C1738 C 0.01535 0.08005 0.54469 0.0
C1739 C 0.01577 0.14913 0.53625 0.0
C1740 C 0.03947 0.15557 0.54042 0.0
C1741 C 0.9988 0.16766 0.53526 0.0
C1742 C 0.97337 0.16198 0.53194 0.0
C1743 C 0.9615 0.14472 0.54723 0.0
C1744 C 0.93757 0.13931 0.54386 0.0
C1745 C 0.92527 0.15118 0.52535 0.0
C1746 C 0.93686 0.16854 0.51023 0.0
C1747 C 0.9608 0.174 0.51352 0.0
H1748 H 0.90674 0.14695 0.52276 0.0
H1749 H 0.138 0.20045 0.56095 0.0
H1750 H 0.54574 0.24347 0.43422 0.0
H1751 H 0.5351 0.28572 0.44026 0.0
H1752 H 0.60863 0.30688 0.44522 0.0
H1753 H 0.61933 0.2646 0.43948 0.0
H1754 H 0.58463 0.32721 0.47811 0.0
H1755 H 0.57646 0.32037 0.39501 0.0
H1756 H 0.56256 0.30215 0.35849 0.0
H1757 H 0.49097 0.31387 0.37731 0.0
H1758 H 0.50443 0.33184 0.41414 0.0
H1759 H 0.56433 0.45492 0.46912 0.0
H1760 H 0.5773 0.41541 0.45639 0.0
H1761 H 0.50625 0.38594 0.46231 0.0
H1762 H 0.49316 0.42521 0.47519 0.0
H1763 H 0.53107 0.37135 0.42204 0.0
H1764 H 0.54063 0.3781 0.50592 0.0
H1765 H 0.55566 0.39909 0.54042 0.0
H1766 H 0.62663 0.38797 0.5192 0.0
H1767 H 0.61201 0.36804 0.48378 0.0
C1768 C 0.55961 0.25717 0.43653 0.0
C1769 C 0.58335 0.2508 0.43635 0.0
C1770 C 0.55353 0.28129 0.43994 0.0
C1771 C 0.5711 0.29953 0.44284 0.0
C1772 C 0.5948 0.29311 0.44301 0.0
C1773 C 0.60088 0.26896 0.4398 0.0
C1774 C 0.56472 0.32528 0.44577 0.0
C1775 C 0.57323 0.33698 0.46565 0.0
C1776 C 0.54962 0.33794 0.42963 0.0
C1777 C 0.54145 0.32726 0.40744 0.0
C1778 C 0.55774 0.3189 0.39145 0.0
C1779 C 0.54995 0.30864 0.37068 0.0
C1780 C 0.52589 0.3068 0.36561 0.0
C1781 C 0.50959 0.31528 0.38128 0.0
C1782 C 0.5173 0.32553 0.40209 0.0
C1783 C 0.55142 0.44014 0.46734 0.0
C1784 C 0.52779 0.44302 0.47339 0.0
C1785 C 0.55885 0.41763 0.46008 0.0
C1786 C 0.54272 0.39782 0.45862 0.0
C1787 C 0.51891 0.40108 0.46333 0.0
C1788 C 0.51152 0.42345 0.47083 0.0
C1789 C 0.55089 0.37306 0.45436 0.0
C1790 C 0.54265 0.36158 0.43433 0.0
C1791 C 0.5664 0.36068 0.47024 0.0
C1792 C 0.5752 0.37184 0.492 0.0
C1793 C 0.55944 0.38033 0.50845 0.0
C1794 C 0.56789 0.39203 0.5282 0.0
C1795 C 0.59209 0.39476 0.53209 0.0
C1796 C 0.60789 0.38585 0.51616 0.0
C1797 C 0.59953 0.37446 0.49617 0.0
H1798 H 0.59858 0.40377 0.54745 0.0
H1799 H 0.51989 0.29886 0.34953 0.0
loop_
_geom_bond_atom_site_label_1
_geom_bond_atom_site_label_2
_geom_bond_distance
_geom_bond_site_symmetry_2
_ccdc_geom_bond_type
C0 C1 1.391 . S
C0 C4 1.391 . S
C0 H42 0.948 . S
C1 C0 1.391 . S
C1 C2 1.391 . S
C2 C1 1.391 . S
C2 H58 0.947 . S
C2 C59 1.392 . S
C3 C4 1.391 . S
C3 C7 1.397 . S
C3 C59 1.419 . S
C4 C0 1.391 . S
C4 C3 1.391 . S
C4 C5 1.399 . S
C5 C4 1.399 . S
C5 C8 1.396 . S
C5 C17 1.453 . S
C5 C18 1.684 . S
H6 C30 0.948 . S
C7 C3 1.397 . S
C7 C8 1.394 . S
C7 C26 1.723 . S
C8 C5 1.396 . S
C8 C7 1.394 . S
C8 C38 1.723 . S
H9 C32 0.947 . S
H10 C33 0.948 . S
H11 C39 0.982 . S
H12 C40 0.979 . S
H13 C40 0.980 . S
H14 C40 0.983 . S
H15 C39 0.979 . S
H16 C39 0.977 . S
C17 C5 1.453 . S
C17 H46 0.982 . S
C17 H47 0.979 . S
C17 H48 0.977 . S
C18 C5 1.684 . S
C18 H43 0.979 . S
C18 H44 0.980 . S
C18 H45 0.983 . S
C19 C20 1.391 . S
C19 C24 1.391 . S
C19 H49 0.948 . S
C20 C19 1.391 . S
C20 C21 1.391 . S
C21 C20 1.391 . S
C21 C22 1.392 . S
C21 H50 0.947 . S
C22 C21 1.392 . S
C22 C23 1.419 . S
C22 H51 0.948 . S
C23 C22 1.419 . S
C23 C24 1.391 . S
C23 C27 1.397 . S
C24 C19 1.391 . S
C24 C23 1.391 . S
C24 C25 1.399 . S
C25 C24 1.399 . S
C25 C26 1.396 . S
C25 C28 1.453 . S
C25 C29 1.684 . S
C26 C7 1.723 . S
C26 C25 1.396 . S
C26 C27 1.394 . S
C27 C23 1.397 . S
C27 C26 1.394 . S
C27 C37 1.723 . S
C28 C25 1.453 . S
C28 H52 0.982 . S
C28 H53 0.979 . S
C28 H54 0.977 . S
C29 C25 1.684 . S
C29 H55 0.979 . S
C29 H56 0.980 . S
C29 H57 0.983 . S
C30 H6 0.948 . S
C30 C31 1.391 . S
C30 C35 1.391 . S
C31 C30 1.391 . S
C31 C32 1.391 . S
C32 H9 0.947 . S
C32 C31 1.391 . S
C32 C33 1.392 . S
C33 H10 0.948 . S
C33 C32 1.392 . S
C33 C34 1.419 . S
C34 C33 1.419 . S
C34 C35 1.391 . S
C34 C38 1.397 . S
C35 C30 1.391 . S
C35 C34 1.391 . S
C35 C36 1.399 . S
C36 C35 1.399 . S
C36 C37 1.396 . S
C36 C39 1.453 . S
C36 C40 1.684 . S
C37 C27 1.723 . S
C37 C36 1.396 . S
C37 C38 1.394 . S
C38 C8 1.723 . S
C38 C34 1.397 . S
C38 C37 1.394 . S
C39 H11 0.982 . S
C39 H15 0.979 . S
C39 H16 0.977 . S
C39 C36 1.453 . S
C40 H12 0.979 . S
C40 H13 0.980 . S
C40 H14 0.983 . S
C40 C36 1.684 . S
H41 C59 0.948 . S
H42 C0 0.948 . S
H43 C18 0.979 . S
H44 C18 0.980 . S
H45 C18 0.983 . S
H46 C17 0.982 . S
H47 C17 0.979 . S
H48 C17 0.977 . S
H49 C19 0.948 . S
H50 C21 0.947 . S
H51 C22 0.948 . S
H52 C28 0.982 . S
H53 C28 0.979 . S
H54 C28 0.977 . S
H55 C29 0.979 . S
H56 C29 0.980 . S
H57 C29 0.983 . S
H58 C2 0.947 . S
C59 C2 1.392 . S
C59 C3 1.419 . S
C59 H41 0.948 . S
C60 C61 1.391 . S
C60 C64 1.391 . S
C60 H102 0.948 . S
C61 C60 1.391 . S
C61 C62 1.391 . S
C62 C61 1.391 . S
C62 H118 0.947 . S
C62 C119 1.392 . S
C63 C64 1.391 . S
C63 C67 1.397 . S
C63 C119 1.419 . S
C64 C60 1.391 . S
C64 C63 1.391 . S
C64 C65 1.399 . S
C65 C64 1.399 . S
C65 C68 1.396 . S
C65 C77 1.453 . S
C65 C78 1.684 . S
H66 C90 0.948 . S
C67 C63 1.397 . S
C67 C68 1.394 . S
C67 C86 1.723 . S
C68 C65 1.396 . S
C68 C67 1.394 . S
C68 C98 1.723 . S
H69 C92 0.947 . S
H70 C93 0.948 . S
H71 C99 0.982 . S
H72 C100 0.979 . S
H73 C100 0.980 . S
H74 C100 0.983 . S
H75 C99 0.979 . S
H76 C99 0.977 . S
C77 C65 1.453 . S
C77 H106 0.982 . S
C77 H107 0.979 . S
C77 H108 0.977 . S
C78 C65 1.684 . S
C78 H103 0.979 . S
C78 H104 0.980 . S
C78 H105 0.983 . S
C79 C80 1.391 . S
C79 C84 1.391 . S
C79 H109 0.948 . S
C80 C79 1.391 . S
C80 C81 1.391 . S
C81 C80 1.391 . S
C81 C82 1.392 . S
C81 H110 0.947 . S
C82 C81 1.392 . S
C82 C83 1.419 . S
C82 H111 0.948 . S
C83 C82 1.419 . S
C83 C84 1.391 . S
C83 C87 1.397 . S
C84 C79 1.391 . S
C84 C83 1.391 . S
C84 C85 1.399 . S
C85 C84 1.399 . S
C85 C86 1.396 . S
C85 C88 1.453 . S
C85 C89 1.684 . S
C86 C67 1.723 . S
C86 C85 1.396 . S
C86 C87 1.394 . S
C87 C83 1.397 . S
C87 C86 1.394 . S
C87 C97 1.723 . S
C88 C85 1.453 . S
C88 H112 0.982 . S
C88 H113 0.979 . S
C88 H114 0.977 . S
C89 C85 1.684 . S
C89 H115 0.979 . S
C89 H116 0.980 . S
C89 H117 0.983 . S
C90 H66 0.948 . S
C90 C91 1.391 . S
C90 C95 1.391 . S
C91 C90 1.391 . S
C91 C92 1.391 . S
C92 H69 0.947 . S
C92 C91 1.391 . S
C92 C93 1.392 . S
C93 H70 0.948 . S
C93 C92 1.392 . S
C93 C94 1.419 . S
C94 C93 1.419 . S
C94 C95 1.391 . S
C94 C98 1.397 . S
C95 C90 1.391 . S
C95 C94 1.391 . S
C95 C96 1.399 . S
C96 C95 1.399 . S
C96 C97 1.396 . S
C96 C99 1.453 . S
C96 C100 1.684 . S
C97 C87 1.723 . S
C97 C96 1.396 . S
C97 C98 1.394 . S
C98 C68 1.723 . S
C98 C94 1.397 . S
C98 C97 1.394 . S
C99 H71 0.982 . S
C99 H75 0.979 . S
C99 H76 0.977 . S
C99 C96 1.453 . S
C100 H72 0.979 . S
C100 H73 0.980 . S
C100 H74 0.983 . S
C100 C96 1.684 . S
H101 C119 0.948 . S
H102 C60 0.948 . S
H103 C78 0.979 . S
H104 C78 0.980 . S
H105 C78 0.983 . S
H106 C77 0.982 . S
H107 C77 0.979 . S
H108 C77 0.977 . S
H109 C79 0.948 . S
H110 C81 0.947 . S
H111 C82 0.948 . S
H112 C88 0.982 . S
H113 C88 0.979 . S
H114 C88 0.977 . S
H115 C89 0.979 . S
H116 C89 0.980 . S
H117 C89 0.983 . S
H118 C62 0.947 . S
C119 C62 1.392 . S
C119 C63 1.419 . S
C119 H101 0.948 . S
C120 C121 1.391 . S
C120 C124 1.391 . S
C120 H162 0.948 . S
C121 C120 1.391 . S
C121 C122 1.391 . S
C122 C121 1.391 . S
C122 H178 0.947 . S
C122 C179 1.392 . S
C123 C124 1.391 . S
C123 C127 1.397 . S
C123 C179 1.419 . S
C124 C120 1.391 . S
C124 C123 1.391 . S
C124 C125 1.399 . S
C125 C124 1.399 . S
C125 C128 1.396 . S
C125 C137 1.453 . S
C125 C138 1.684 . S
H126 C150 0.948 . S
C127 C123 1.397 . S
C127 C128 1.394 . S
C127 C146 1.723 . S
C128 C125 1.396 . S
C128 C127 1.394 . S
C128 C158 1.723 . S
H129 C152 0.947 . S
H130 C153 0.948 . S
H131 C159 0.982 . S
H132 C160 0.979 . S
H133 C160 0.980 . S
H134 C160 0.983 . S
H135 C159 0.979 . S
H136 C159 0.977 . S
C137 C125 1.453 . S
C137 H166 0.982 . S
C137 H167 0.979 . S
C137 H168 0.977 . S
C138 C125 1.684 . S
C138 H163 0.979 . S
C138 H164 0.980 . S
C138 H165 0.983 . S
C139 C140 1.391 . S
C139 C144 1.391 . S
C139 H169 0.948 . S
C140 C139 1.391 . S
C140 C141 1.391 . S
C141 C140 1.391 . S
C141 C142 1.392 . S
C141 H170 0.947 . S
C142 C141 1.392 . S
C142 C143 1.419 . S
C142 H171 0.948 . S
C143 C142 1.419 . S
C143 C144 1.391 . S
C143 C147 1.397 . S
C144 C139 1.391 . S
C144 C143 1.391 . S
C144 C145 1.399 . S
C145 C144 1.399 . S
C145 C146 1.396 . S
C145 C148 1.453 . S
C145 C149 1.684 . S
C146 C127 1.723 . S
C146 C145 1.396 . S
C146 C147 1.394 . S
C147 C143 1.397 . S
C147 C146 1.394 . S
C147 C157 1.723 . S
C148 C145 1.453 . S
C148 H172 0.982 . S
C148 H173 0.979 . S
C148 H174 0.977 . S
C149 C145 1.684 . S
C149 H175 0.979 . S
C149 H176 0.980 . S
C149 H177 0.983 . S
C150 H126 0.948 . S
C150 C151 1.391 . S
C150 C155 1.391 . S
C151 C150 1.391 . S
C151 C152 1.391 . S
C152 H129 0.947 . S
C152 C151 1.391 . S
C152 C153 1.392 . S
C153 H130 0.948 . S
C153 C152 1.392 . S
C153 C154 1.419 . S
C154 C153 1.419 . S
C154 C155 1.391 . S
C154 C158 1.397 . S
C155 C150 1.391 . S
C155 C154 1.391 . S
C155 C156 1.399 . S
C156 C155 1.399 . S
C156 C157 1.396 . S
C156 C159 1.453 . S
C156 C160 1.684 . S
C157 C147 1.723 . S
C157 C156 1.396 . S
C157 C158 1.394 . S
C158 C128 1.723 . S
C158 C154 1.397 . S
C158 C157 1.394 . S
C159 H131 0.982 . S
C159 H135 0.979 . S
C159 H136 0.977 . S
C159 C156 1.453 . S
C160 H132 0.979 . S
C160 H133 0.980 . S
C160 H134 0.983 . S
C160 C156 1.684 . S
H161 C179 0.948 . S
H162 C120 0.948 . S
H163 C138 0.979 . S
H164 C138 0.980 . S
H165 C138 0.983 . S
H166 C137 0.982 . S
H167 C137 0.979 . S
H168 C137 0.977 . S
H169 C139 0.948 . S
H170 C141 0.947 . S
H171 C142 0.948 . S
H172 C148 0.982 . S
H173 C148 0.979 . S
H174 C148 0.977 . S
H175 C149 0.979 . S
H176 C149 0.980 . S
H177 C149 0.983 . S
H178 C122 0.947 . S
C179 C122 1.392 . S
C179 C123 1.419 . S
C179 H161 0.948 . S
C180 C181 1.391 . S
C180 C184 1.391 . S
C180 H222 0.948 . S
C181 C180 1.391 . S
C181 C182 1.391 . S
C182 C181 1.391 . S
C182 H238 0.947 . S
C182 C239 1.392 . S
C183 C184 1.391 . S
C183 C187 1.397 . S
C183 C239 1.419 . S
C184 C180 1.391 . S
C184 C183 1.391 . S
C184 C185 1.399 . S
C185 C184 1.399 . S
C185 C188 1.396 . S
C185 C197 1.453 . S
C185 C198 1.684 . S
H186 C210 0.948 . S
C187 C183 1.397 . S
C187 C188 1.394 . S
C187 C206 1.723 . S
C188 C185 1.396 . S
C188 C187 1.394 . S
C188 C218 1.723 . S
H189 C212 0.947 . S
H190 C213 0.948 . S
H191 C219 0.982 . S
H192 C220 0.979 . S
H193 C220 0.980 . S
H194 C220 0.983 . S
H195 C219 0.979 . S
H196 C219 0.977 . S
C197 C185 1.453 . S
C197 H226 0.982 . S
C197 H227 0.979 . S
C197 H228 0.977 . S
C198 C185 1.684 . S
C198 H223 0.979 . S
C198 H224 0.980 . S
C198 H225 0.983 . S
C199 C200 1.391 . S
C199 C204 1.391 . S
C199 H229 0.948 . S
C200 C199 1.391 . S
C200 C201 1.391 . S
C201 C200 1.391 . S
C201 C202 1.392 . S
C201 H230 0.947 . S
C202 C201 1.392 . S
C202 C203 1.419 . S
C202 H231 0.948 . S
C203 C202 1.419 . S
C203 C204 1.391 . S
C203 C207 1.397 . S
C204 C199 1.391 . S
C204 C203 1.391 . S
C204 C205 1.399 . S
C205 C204 1.399 . S
C205 C206 1.396 . S
C205 C208 1.453 . S
C205 C209 1.684 . S
C206 C187 1.723 . S
C206 C205 1.396 . S
C206 C207 1.394 . S
C207 C203 1.397 . S
C207 C206 1.394 . S
C207 C217 1.723 . S
C208 C205 1.453 . S
C208 H232 0.982 . S
C208 H233 0.979 . S
C208 H234 0.977 . S
C209 C205 1.684 . S
C209 H235 0.979 . S
C209 H236 0.980 . S
C209 H237 0.983 . S
C210 H186 0.948 . S
C210 C211 1.391 . S
C210 C215 1.391 . S
C211 C210 1.391 . S
C211 C212 1.391 . S
C212 H189 0.947 . S
C212 C211 1.391 . S
C212 C213 1.392 . S
C213 H190 0.948 . S
C213 C212 1.392 . S
C213 C214 1.419 . S
C214 C213 1.419 . S
C214 C215 1.391 . S
C214 C218 1.397 . S
C215 C210 1.391 . S
C215 C214 1.391 . S
C215 C216 1.399 . S
C216 C215 1.399 . S
C216 C217 1.396 . S
C216 C219 1.453 . S
C216 C220 1.684 . S
C217 C207 1.723 . S
C217 C216 1.396 . S
C217 C218 1.394 . S
C218 C188 1.723 . S
C218 C214 1.397 . S
C218 C217 1.394 . S
C219 H191 0.982 . S
C219 H195 0.979 . S
C219 H196 0.977 . S
C219 C216 1.453 . S
C220 H192 0.979 . S
C220 H193 0.980 . S
C220 H194 0.983 . S
C220 C216 1.684 . S
H221 C239 0.948 . S
H222 C180 0.948 . S
H223 C198 0.979 . S
H224 C198 0.980 . S
H225 C198 0.983 . S
H226 C197 0.982 . S
H227 C197 0.979 . S
H228 C197 0.977 . S
H229 C199 0.948 . S
H230 C201 0.947 . S
H231 C202 0.948 . S
H232 C208 0.982 . S
H233 C208 0.979 . S
H234 C208 0.977 . S
H235 C209 0.979 . S
H236 C209 0.980 . S
H237 C209 0.983 . S
H238 C182 0.947 . S
C239 C182 1.392 . S
C239 C183 1.419 . S
C239 H221 0.948 . S
C240 C241 1.391 . S
C240 C244 1.391 . S
C240 H282 0.948 . S
C241 C240 1.391 . S
C241 C242 1.391 . S
C242 C241 1.391 . S
C242 H298 0.947 . S
C242 C299 1.392 . S
C243 C244 1.391 . S
C243 C247 1.397 . S
C243 C299 1.419 . S
C244 C240 1.391 . S
C244 C243 1.391 . S
C244 C245 1.399 . S
C245 C244 1.399 . S
C245 C248 1.396 . S
C245 C257 1.453 . S
C245 C258 1.684 . S
H246 C270 0.948 . S
C247 C243 1.397 . S
C247 C248 1.394 . S
C247 C266 1.723 . S
C248 C245 1.396 . S
C248 C247 1.394 . S
C248 C278 1.723 . S
H249 C272 0.947 . S
H250 C273 0.948 . S
H251 C279 0.982 . S
H252 C280 0.979 . S
H253 C280 0.980 . S
H254 C280 0.983 . S
H255 C279 0.979 . S
H256 C279 0.977 . S
C257 C245 1.453 . S
C257 H286 0.982 . S
C257 H287 0.979 . S
C257 H288 0.977 . S
C258 C245 1.684 . S
C258 H283 0.979 . S
C258 H284 0.980 . S
C258 H285 0.983 . S
C259 C260 1.391 . S
C259 C264 1.391 . S
C259 H289 0.948 . S
C260 C259 1.391 . S
C260 C261 1.391 . S
C261 C260 1.391 . S
C261 C262 1.392 . S
C261 H290 0.947 . S
C262 C261 1.392 . S
C262 C263 1.419 . S
C262 H291 0.948 . S
C263 C262 1.419 . S
C263 C264 1.391 . S
C263 C267 1.397 . S
C264 C259 1.391 . S
C264 C263 1.391 . S
C264 C265 1.399 . S
C265 C264 1.399 . S
C265 C266 1.396 . S
C265 C268 1.453 . S
C265 C269 1.684 . S
C266 C247 1.723 . S
C266 C265 1.396 . S
C266 C267 1.394 . S
C267 C263 1.397 . S
C267 C266 1.394 . S
C267 C277 1.723 . S
C268 C265 1.453 . S
C268 H292 0.982 . S
C268 H293 0.979 . S
C268 H294 0.977 . S
C269 C265 1.684 . S
C269 H295 0.979 . S
C269 H296 0.980 . S
C269 H297 0.983 . S
C270 H246 0.948 . S
C270 C271 1.391 . S
C270 C275 1.391 . S
C271 C270 1.391 . S
C271 C272 1.391 . S
C272 H249 0.947 . S
C272 C271 1.391 . S
C272 C273 1.392 . S
C273 H250 0.948 . S
C273 C272 1.392 . S
C273 C274 1.419 . S
C274 C273 1.419 . S
C274 C275 1.391 . S
C274 C278 1.397 . S
C275 C270 1.391 . S
C275 C274 1.391 . S
C275 C276 1.399 . S
C276 C275 1.399 . S
C276 C277 1.396 . S
C276 C279 1.453 . S
C276 C280 1.684 . S
C277 C267 1.723 . S
C277 C276 1.396 . S
C277 C278 1.394 . S
C278 C248 1.723 . S
C278 C274 1.397 . S
C278 C277 1.394 . S
C279 H251 0.982 . S
C279 H255 0.979 . S
C279 H256 0.977 . S
C279 C276 1.453 . S
C280 H252 0.979 . S
C280 H253 0.980 . S
C280 H254 0.983 . S
C280 C276 1.684 . S
H281 C299 0.948 . S
H282 C240 0.948 . S
H283 C258 0.979 . S
H284 C258 0.980 . S
H285 C258 0.983 . S
H286 C257 0.982 . S
H287 C257 0.979 . S
H288 C257 0.977 . S
H289 C259 0.948 . S
H290 C261 0.947 . S
H291 C262 0.948 . S
H292 C268 0.982 . S
H293 C268 0.979 . S
H294 C268 0.977 . S
H295 C269 0.979 . S
H296 C269 0.980 . S
H297 C269 0.983 . S
H298 C242 0.947 . S
C299 C242 1.392 . S
C299 C243 1.419 . S
C299 H281 0.948 . S
C300 C301 1.391 . S
C300 C304 1.391 . S
C300 H342 0.948 . S
C301 C300 1.391 . S
C301 C302 1.391 . S
C302 C301 1.391 . S
C302 H358 0.947 . S
C302 C359 1.392 . S
C303 C304 1.391 . S
C303 C307 1.397 . S
C303 C359 1.419 . S
C304 C300 1.391 . S
C304 C303 1.391 . S
C304 C305 1.399 . S
C305 C304 1.399 . S
C305 C308 1.396 . S
C305 C317 1.453 . S
C305 C318 1.684 . S
H306 C330 0.948 . S
C307 C303 1.397 . S
C307 C308 1.394 . S
C307 C326 1.723 . S
C308 C305 1.396 . S
C308 C307 1.394 . S
C308 C338 1.723 . S
H309 C332 0.947 . S
H310 C333 0.948 . S
H311 C339 0.982 . S
H312 C340 0.979 . S
H313 C340 0.980 . S
H314 C340 0.983 . S
H315 C339 0.979 . S
H316 C339 0.977 . S
C317 C305 1.453 . S
C317 H346 0.982 . S
C317 H347 0.979 . S
C317 H348 0.977 . S
C318 C305 1.684 . S
C318 H343 0.979 . S
C318 H344 0.980 . S
C318 H345 0.983 . S
C319 C320 1.391 . S
C319 C324 1.391 . S
C319 H349 0.948 . S
C320 C319 1.391 . S
C320 C321 1.391 . S
C321 C320 1.391 . S
C321 C322 1.392 . S
C321 H350 0.947 . S
C322 C321 1.392 . S
C322 C323 1.419 . S
C322 H351 0.948 . S
C323 C322 1.419 . S
C323 C324 1.391 . S
C323 C327 1.397 . S
C324 C319 1.391 . S
C324 C323 1.391 . S
C324 C325 1.399 . S
C325 C324 1.399 . S
C325 C326 1.396 . S
C325 C328 1.453 . S
C325 C329 1.684 . S
C326 C307 1.723 . S
C326 C325 1.396 . S
C326 C327 1.394 . S
C327 C323 1.397 . S
C327 C326 1.394 . S
C327 C337 1.723 . S
C328 C325 1.453 . S
C328 H352 0.982 . S
C328 H353 0.979 . S
C328 H354 0.977 . S
C329 C325 1.684 . S
C329 H355 0.979 . S
C329 H356 0.980 . S
C329 H357 0.983 . S
C330 H306 0.948 . S
C330 C331 1.391 . S
C330 C335 1.391 . S
C331 C330 1.391 . S
C331 C332 1.391 . S
C332 H309 0.947 . S
C332 C331 1.391 . S
C332 C333 1.392 . S
C333 H310 0.948 . S
C333 C332 1.392 . S
C333 C334 1.419 . S
C334 C333 1.419 . S
C334 C335 1.391 . S
C334 C338 1.397 . S
C335 C330 1.391 . S
C335 C334 1.391 . S
C335 C336 1.399 . S
C336 C335 1.399 . S
C336 C337 1.396 . S
C336 C339 1.453 . S
C336 C340 1.684 . S
C337 C327 1.723 . S
C337 C336 1.396 . S
C337 C338 1.394 . S
C338 C308 1.723 . S
C338 C334 1.397 . S
C338 C337 1.394 . S
C339 H311 0.982 . S
C339 H315 0.979 . S
C339 H316 0.977 . S
C339 C336 1.453 . S
C340 H312 0.979 . S
C340 H313 0.980 . S
C340 H314 0.983 . S
C340 C336 1.684 . S
H341 C359 0.948 . S
H342 C300 0.948 . S
H343 C318 0.979 . S
H344 C318 0.980 . S
H345 C318 0.983 . S
H346 C317 0.982 . S
H347 C317 0.979 . S
H348 C317 0.977 . S
H349 C319 0.948 . S
H350 C321 0.947 . S
H351 C322 0.948 . S
H352 C328 0.982 . S
H353 C328 0.979 . S
H354 C328 0.977 . S
H355 C329 0.979 . S
H356 C329 0.980 . S
H357 C329 0.983 . S
H358 C302 0.947 . S
C359 C302 1.392 . S
C359 C303 1.419 . S
C359 H341 0.948 . S
C360 C361 1.391 . S
C360 C364 1.391 . S
C360 H402 0.948 . S
C361 C360 1.391 . S
C361 C362 1.391 . S
C362 C361 1.391 . S
C362 H418 0.947 . S
C362 C419 1.392 . S
C363 C364 1.391 . S
C363 C367 1.397 . S
C363 C419 1.419 . S
C364 C360 1.391 . S
C364 C363 1.391 . S
C364 C365 1.399 . S
C365 C364 1.399 . S
C365 C368 1.396 . S
C365 C377 1.453 . S
C365 C378 1.684 . S
H366 C390 0.948 . S
C367 C363 1.397 . S
C367 C368 1.394 . S
C367 C386 1.723 . S
C368 C365 1.396 . S
C368 C367 1.394 . S
C368 C398 1.723 . S
H369 C392 0.947 . S
H370 C393 0.948 . S
H371 C399 0.982 . S
H372 C400 0.979 . S
H373 C400 0.980 . S
H374 C400 0.983 . S
H375 C399 0.979 . S
H376 C399 0.977 . S
C377 C365 1.453 . S
C377 H406 0.982 . S
C377 H407 0.979 . S
C377 H408 0.977 . S
C378 C365 1.684 . S
C378 H403 0.979 . S
C378 H404 0.980 . S
C378 H405 0.983 . S
C379 C380 1.391 . S
C379 C384 1.391 . S
C379 H409 0.948 . S
C380 C379 1.391 . S
C380 C381 1.391 . S
C381 C380 1.391 . S
C381 C382 1.392 . S
C381 H410 0.947 . S
C382 C381 1.392 . S
C382 C383 1.419 . S
C382 H411 0.948 . S
C383 C382 1.419 . S
C383 C384 1.391 . S
C383 C387 1.397 . S
C384 C379 1.391 . S
C384 C383 1.391 . S
C384 C385 1.399 . S
C385 C384 1.399 . S
C385 C386 1.396 . S
C385 C388 1.453 . S
C385 C389 1.684 . S
C386 C367 1.723 . S
C386 C385 1.396 . S
C386 C387 1.394 . S
C387 C383 1.397 . S
C387 C386 1.394 . S
C387 C397 1.723 . S
C388 C385 1.453 . S
C388 H412 0.982 . S
C388 H413 0.979 . S
C388 H414 0.977 . S
C389 C385 1.684 . S
C389 H415 0.979 . S
C389 H416 0.980 . S
C389 H417 0.983 . S
C390 H366 0.948 . S
C390 C391 1.391 . S
C390 C395 1.391 . S
C391 C390 1.391 . S
C391 C392 1.391 . S
C392 H369 0.947 . S
C392 C391 1.391 . S
C392 C393 1.392 . S
C393 H370 0.948 . S
C393 C392 1.392 . S
C393 C394 1.419 . S
C394 C393 1.419 . S
C394 C395 1.391 . S
C394 C398 1.397 . S
C395 C390 1.391 . S
C395 C394 1.391 . S
C395 C396 1.399 . S
C396 C395 1.399 . S
C396 C397 1.396 . S
C396 C399 1.453 . S
C396 C400 1.684 . S
C397 C387 1.723 . S
C397 C396 1.396 . S
C397 C398 1.394 . S
C398 C368 1.723 . S
C398 C394 1.397 . S
C398 C397 1.394 . S
C399 H371 0.982 . S
C399 H375 0.979 . S
C399 H376 0.977 . S
C399 C396 1.453 . S
C400 H372 0.979 . S
C400 H373 0.980 . S
C400 H374 0.983 . S
C400 C396 1.684 . S
H401 C419 0.948 . S
H402 C360 0.948 . S
H403 C378 0.979 . S
H404 C378 0.980 . S
H405 C378 0.983 . S
H406 C377 0.982 . S
H407 C377 0.979 . S
H408 C377 0.977 . S
H409 C379 0.948 . S
H410 C381 0.947 . S
H411 C382 0.948 . S
H412 C388 0.982 . S
H413 C388 0.979 . S
H414 C388 0.977 . S
H415 C389 0.979 . S
H416 C389 0.980 . S
H417 C389 0.983 . S
H418 C362 0.947 . S
C419 C362 1.392 . S
C419 C363 1.419 . S
C419 H401 0.948 . S
C420 C421 1.391 . S
C420 C424 1.391 . S
C420 H462 0.948 . S
C421 C420 1.391 . S
C421 C422 1.391 . S
C422 C421 1.391 . S
C422 H478 0.947 . S
C422 C479 1.392 . S
C423 C424 1.391 . S
C423 C427 1.397 . S
C423 C479 1.419 . S
C424 C420 1.391 . S
C424 C423 1.391 . S
C424 C425 1.399 . S
C425 C424 1.399 . S
C425 C428 1.396 . S
C425 C437 1.453 . S
C425 C438 1.684 . S
H426 C450 0.948 . S
C427 C423 1.397 . S
C427 C428 1.394 . S
C427 C446 1.723 . S
C428 C425 1.396 . S
C428 C427 1.394 . S
C428 C458 1.723 . S
H429 C452 0.947 . S
H430 C453 0.948 . S
H431 C459 0.982 . S
H432 C460 0.979 . S
H433 C460 0.980 . S
H434 C460 0.983 . S
H435 C459 0.979 . S
H436 C459 0.977 . S
C437 C425 1.453 . S
C437 H466 0.982 . S
C437 H467 0.979 . S
C437 H468 0.977 . S
C438 C425 1.684 . S
C438 H463 0.979 . S
C438 H464 0.980 . S
C438 H465 0.983 . S
C439 C440 1.391 . S
C439 C444 1.391 . S
C439 H469 0.948 . S
C440 C439 1.391 . S
C440 C441 1.391 . S
C441 C440 1.391 . S
C441 C442 1.392 . S
C441 H470 0.947 . S
C442 C441 1.392 . S
C442 C443 1.419 . S
C442 H471 0.948 . S
C443 C442 1.419 . S
C443 C444 1.391 . S
C443 C447 1.397 . S
C444 C439 1.391 . S
C444 C443 1.391 . S
C444 C445 1.399 . S
C445 C444 1.399 . S
C445 C446 1.396 . S
C445 C448 1.453 . S
C445 C449 1.684 . S
C446 C427 1.723 . S
C446 C445 1.396 . S
C446 C447 1.394 . S
C447 C443 1.397 . S
C447 C446 1.394 . S
C447 C457 1.723 . S
C448 C445 1.453 . S
C448 H472 0.982 . S
C448 H473 0.979 . S
C448 H474 0.977 . S
C449 C445 1.684 . S
C449 H475 0.979 . S
C449 H476 0.980 . S
C449 H477 0.983 . S
C450 H426 0.948 . S
C450 C451 1.391 . S
C450 C455 1.391 . S
C451 C450 1.391 . S
C451 C452 1.391 . S
C452 H429 0.947 . S
C452 C451 1.391 . S
C452 C453 1.392 . S
C453 H430 0.948 . S
C453 C452 1.392 . S
C453 C454 1.419 . S
C454 C453 1.419 . S
C454 C455 1.391 . S
C454 C458 1.397 . S
C455 C450 1.391 . S
C455 C454 1.391 . S
C455 C456 1.399 . S
C456 C455 1.399 . S
C456 C457 1.396 . S
C456 C459 1.453 . S
C456 C460 1.684 . S
C457 C447 1.723 . S
C457 C456 1.396 . S
C457 C458 1.394 . S
C458 C428 1.723 . S
C458 C454 1.397 . S
C458 C457 1.394 . S
C459 H431 0.982 . S
C459 H435 0.979 . S
C459 H436 0.977 . S
C459 C456 1.453 . S
C460 H432 0.979 . S
C460 H433 0.980 . S
C460 H434 0.983 . S
C460 C456 1.684 . S
H461 C479 0.948 . S
H462 C420 0.948 . S
H463 C438 0.979 . S
H464 C438 0.980 . S
H465 C438 0.983 . S
H466 C437 0.982 . S
H467 C437 0.979 . S
H468 C437 0.977 . S
H469 C439 0.948 . S
H470 C441 0.947 . S
H471 C442 0.948 . S
H472 C448 0.982 . S
H473 C448 0.979 . S
H474 C448 0.977 . S
H475 C449 0.979 . S
H476 C449 0.980 . S
H477 C449 0.983 . S
H478 C422 0.947 . S
C479 C422 1.392 . S
C479 C423 1.419 . S
C479 H461 0.948 . S
Co480 N485 2.057 . S
Co480 O497 2.021 . S
Co480 O500 2.062 . S
Co480 O504 2.117 1_545 S
Co480 O505 2.020 1_545 S
C481 O501 1.259 1_655 S
C481 O504 1.258 . S
Co482 N491 2.057 . S
Co482 O498 2.117 1_565 S
Co482 O499 2.020 1_565 S
Co482 O501 2.021 . S
Co482 O506 2.062 . S
C483 N485 1.316 . S
C483 N486 1.347 . S
C483 H488 0.931 . S
C484 N485 1.375 1_565 S
C484 C487 1.350 1_565 S
C484 H489 0.930 . S
N485 Co480 2.057 . S
N485 C483 1.316 . S
N485 C484 1.375 1_545 S
N486 C483 1.347 . S
N486 C487 1.373 . S
C487 C484 1.350 1_545 S
C487 N486 1.373 . S
C487 H508 0.931 1_545 S
H488 C483 0.931 . S
H489 C484 0.930 . S
C490 O497 1.259 1_455 S
C490 O498 1.258 . S
N491 Co482 2.057 . S
N491 C492 1.316 . S
N491 C493 1.375 1_565 S
C492 N491 1.316 . S
C492 N494 1.347 . S
C492 H503 0.931 . S
C493 N491 1.375 1_545 S
C493 C495 1.350 1_545 S
C493 H502 0.930 . S
N494 C492 1.347 . S
N494 C495 1.373 . S
C495 C493 1.350 1_565 S
C495 N494 1.373 . S
C495 H509 0.931 1_565 S
C496 O499 1.256 . S
C496 O500 1.255 1_455 S
O497 Co480 2.021 . S
O497 C490 1.259 1_655 S
O498 Co482 2.117 1_545 S
O498 C490 1.258 . S
O499 Co482 2.020 1_545 S
O499 C496 1.256 . S
O500 Co480 2.062 . S
O500 C496 1.255 1_655 S
O501 C481 1.259 1_455 S
O501 Co482 2.021 . S
H502 C493 0.930 . S
H503 C492 0.931 . S
O504 Co480 2.117 1_565 S
O504 C481 1.258 . S
O505 Co480 2.020 1_565 S
O505 C507 1.256 . S
O506 Co482 2.062 . S
O506 C507 1.255 1_455 S
C507 O505 1.256 . S
C507 O506 1.255 1_655 S
H508 C487 0.931 1_565 S
H509 C495 0.931 1_545 S
Co510 N515 2.057 . S
Co510 O527 2.021 1_565 S
Co510 O530 2.062 . S
Co510 O534 2.117 . S
Co510 O535 2.020 1_565 S
C511 O531 1.259 . S
C511 O534 1.258 1_554 S
Co512 N521 2.057 . S
Co512 O528 2.117 . S
Co512 O529 2.020 1_545 S
Co512 O531 2.021 1_545 S
Co512 O536 2.062 . S
C513 N515 1.316 . S
C513 N516 1.347 . S
C513 H518 0.931 1_565 S
C514 N515 1.375 . S
C514 C517 1.350 . S
C514 H519 0.930 . S
N515 Co510 2.057 . S
N515 C513 1.316 . S
N515 C514 1.375 . S
N516 C513 1.347 . S
N516 C517 1.373 . S
C517 C514 1.350 . S
C517 N516 1.373 . S
C517 H538 0.931 . S
H518 C513 0.931 1_545 S
H519 C514 0.930 . S
C520 O527 1.259 . S
C520 O528 1.258 1_556 S
N521 Co512 2.057 . S
N521 C522 1.316 . S
N521 C523 1.375 . S
C522 N521 1.316 . S
C522 N524 1.347 . S
C522 H533 0.931 1_545 S
C523 N521 1.375 . S
C523 C525 1.350 . S
C523 H532 0.930 . S
N524 C522 1.347 . S
N524 C525 1.373 . S
C525 C523 1.350 . S
C525 N524 1.373 . S
C525 H539 0.931 . S
C526 O529 1.256 1_556 S
C526 O530 1.255 . S
O527 Co510 2.021 1_545 S
O527 C520 1.259 . S
O528 Co512 2.117 . S
O528 C520 1.258 1_554 S
O529 Co512 2.020 1_565 S
O529 C526 1.256 1_554 S
O530 Co510 2.062 . S
O530 C526 1.255 . S
O531 C511 1.259 . S
O531 Co512 2.021 1_565 S
H532 C523 0.930 . S
H533 C522 0.931 1_565 S
O534 Co510 2.117 . S
O534 C511 1.258 1_556 S
O535 Co510 2.020 1_545 S
O535 C537 1.256 1_556 S
O536 Co512 2.062 . S
O536 C537 1.255 . S
C537 O535 1.256 1_554 S
C537 O536 1.255 . S
H538 C517 0.931 . S
H539 C525 0.931 . S
Co540 N545 2.057 . S
Co540 O557 2.021 . S
Co540 O560 2.062 . S
Co540 O564 2.117 . S
Co540 O565 2.020 . S
C541 O561 1.259 . S
C541 O564 1.258 . S
Co542 N551 2.057 . S
Co542 O558 2.117 . S
Co542 O559 2.020 . S
Co542 O561 2.021 . S
Co542 O566 2.062 . S
C543 N545 1.316 . S
C543 N546 1.347 . S
C543 H548 0.931 . S
C544 N545 1.375 . S
C544 C547 1.350 . S
C544 H549 0.930 . S
N545 Co540 2.057 . S
N545 C543 1.316 . S
N545 C544 1.375 . S
N546 C543 1.347 . S
N546 C547 1.373 . S
C547 C544 1.350 . S
C547 N546 1.373 . S
C547 H568 0.931 . S
H548 C543 0.931 . S
H549 C544 0.930 . S
C550 O557 1.259 . S
C550 O558 1.258 . S
N551 Co542 2.057 . S
N551 C552 1.316 . S
N551 C553 1.375 . S
C552 N551 1.316 . S
C552 N554 1.347 . S
C552 H563 0.931 . S
C553 N551 1.375 . S
C553 C555 1.350 . S
C553 H562 0.930 . S
N554 C552 1.347 . S
N554 C555 1.373 . S
C555 C553 1.350 . S
C555 N554 1.373 . S
C555 H569 0.931 . S
C556 O559 1.256 . S
C556 O560 1.255 . S
O557 Co540 2.021 . S
O557 C550 1.259 . S
O558 Co542 2.117 . S
O558 C550 1.258 . S
O559 Co542 2.020 . S
O559 C556 1.256 . S
O560 Co540 2.062 . S
O560 C556 1.255 . S
O561 C541 1.259 . S
O561 Co542 2.021 . S
H562 C553 0.930 . S
H563 C552 0.931 . S
O564 Co540 2.117 . S
O564 C541 1.258 . S
O565 Co540 2.020 . S
O565 C567 1.256 . S
O566 Co542 2.062 . S
O566 C567 1.255 . S
C567 O565 1.256 . S
C567 O566 1.255 . S
H568 C547 0.931 . S
H569 C555 0.931 . S
Co570 N575 2.057 . S
Co570 O587 2.021 . S
Co570 O590 2.062 . S
Co570 O594 2.117 1_455 S
Co570 O595 2.020 1_455 S
C571 O591 1.259 1_556 S
C571 O594 1.258 . S
Co572 N581 2.057 . S
Co572 O588 2.117 1_655 S
Co572 O589 2.020 1_655 S
Co572 O591 2.021 . S
Co572 O596 2.062 . S
C573 N575 1.316 . S
C573 N576 1.347 . S
C573 H578 0.931 . S
C574 N575 1.375 1_655 S
C574 C577 1.350 1_655 S
C574 H579 0.930 . S
N575 Co570 2.057 . S
N575 C573 1.316 . S
N575 C574 1.375 1_455 S
N576 C573 1.347 . S
N576 C577 1.373 . S
C577 C574 1.350 1_455 S
C577 N576 1.373 . S
C577 H598 0.931 1_455 S
H578 C573 0.931 . S
H579 C574 0.930 . S
C580 O587 1.259 1_554 S
C580 O588 1.258 . S
N581 Co572 2.057 . S
N581 C582 1.316 . S
N581 C583 1.375 1_655 S
C582 N581 1.316 . S
C582 N584 1.347 . S
C582 H593 0.931 . S
C583 N581 1.375 1_455 S
C583 C585 1.350 1_455 S
C583 H592 0.930 . S
N584 C582 1.347 . S
N584 C585 1.373 . S
C585 C583 1.350 1_655 S
C585 N584 1.373 . S
C585 H599 0.931 1_655 S
C586 O589 1.256 . S
C586 O590 1.255 1_554 S
O587 Co570 2.021 . S
O587 C580 1.259 1_556 S
O588 Co572 2.117 1_455 S
O588 C580 1.258 . S
O589 Co572 2.020 1_455 S
O589 C586 1.256 . S
O590 Co570 2.062 . S
O590 C586 1.255 1_556 S
O591 C571 1.259 1_554 S
O591 Co572 2.021 . S
H592 C583 0.930 . S
H593 C582 0.931 . S
O594 Co570 2.117 1_655 S
O594 C571 1.258 . S
O595 Co570 2.020 1_655 S
O595 C597 1.256 . S
O596 Co572 2.062 . S
O596 C597 1.255 1_554 S
C597 O595 1.256 . S
C597 O596 1.255 1_556 S
H598 C577 0.931 1_655 S
H599 C585 0.931 1_455 S
H600 C618 0.951 . S
H601 C620 0.951 . S
H602 C622 0.950 . S
H603 C623 0.950 . S
H604 C625 0.950 . S
H605 C628 0.950 . S
H606 C629 0.950 . S
H607 C631 0.950 . S
H608 C632 0.950 1_655 S
H609 C633 0.951 . S
H610 C635 0.951 . S
H611 C637 0.922 1_655 S
H612 C638 0.950 1_655 S
H613 C640 0.950 . S
H614 C643 0.950 . S
H615 C644 0.950 . S
H616 C646 0.950 . S
H617 C647 0.950 . S
C618 H600 0.951 . S
C618 C619 1.366 . S
C618 C620 1.388 . S
C619 C618 1.366 . S
C619 C623 1.385 . S
C620 H601 0.951 . S
C620 C618 1.388 . S
C620 C621 1.366 . S
C621 C620 1.366 . S
C621 C622 1.414 . S
C621 C624 1.499 . S
C622 H602 0.950 . S
C622 C621 1.414 . S
C622 C623 1.374 . S
C623 H603 0.950 . S
C623 C619 1.385 . S
C623 C622 1.374 . S
C624 C621 1.499 . S
C624 C625 1.373 . S
C624 C626 1.389 . S
C625 H604 0.950 . S
C625 C624 1.373 . S
C625 C641 1.377 . S
C626 C624 1.389 . S
C626 C627 1.524 . S
C626 C640 1.377 . S
C627 C626 1.524 . S
C627 C628 1.397 . S
C627 C632 1.363 . S
C628 H605 0.950 . S
C628 C627 1.397 . S
C628 C629 1.334 . S
C629 H606 0.950 . S
C629 C628 1.334 . S
C629 C630 1.287 . S
C630 C629 1.287 . S
C630 C631 1.524 1_455 S
C630 H649 0.913 . S
C631 H607 0.950 . S
C631 C630 1.524 1_655 S
C631 C632 1.415 1_655 S
C632 H608 0.950 1_455 S
C632 C627 1.363 . S
C632 C631 1.415 1_455 S
C633 H609 0.951 . S
C633 C634 1.366 . S
C633 C635 1.388 . S
C634 C633 1.366 . S
C634 C638 1.385 . S
C635 H610 0.951 . S
C635 C633 1.388 . S
C635 C636 1.366 . S
C636 C635 1.366 . S
C636 C637 1.414 . S
C636 C639 1.499 . S
C637 H611 0.922 1_455 S
C637 C636 1.414 . S
C637 C638 1.374 . S
C638 H612 0.950 1_455 S
C638 C634 1.385 . S
C638 C637 1.374 . S
C639 C636 1.499 . S
C639 C640 1.373 . S
C639 C641 1.389 . S
C640 H613 0.950 . S
C640 C626 1.377 . S
C640 C639 1.373 . S
C641 C625 1.377 . S
C641 C639 1.389 . S
C641 C642 1.524 . S
C642 C641 1.524 . S
C642 C643 1.397 1_545 S
C642 C647 1.363 . S
C643 H614 0.950 . S
C643 C642 1.397 1_565 S
C643 C644 1.334 . S
C644 H615 0.950 . S
C644 C643 1.334 . S
C644 C645 1.287 . S
C645 C644 1.287 . S
C645 C646 1.524 . S
C645 H648 0.999 . S
C646 H616 0.950 . S
C646 C645 1.524 . S
C646 C647 1.415 1_565 S
C647 H617 0.950 . S
C647 C642 1.363 . S
C647 C646 1.415 1_545 S
H648 C645 0.999 . S
H649 C630 0.913 . S
H650 C668 0.951 . S
H651 C670 0.951 . S
H652 C672 0.950 . S
H653 C673 0.950 . S
H654 C675 0.950 . S
H655 C678 0.950 . S
H656 C679 0.950 . S
H657 C681 0.950 . S
H658 C682 0.950 . S
H659 C683 0.951 . S
H660 C685 0.951 . S
H661 C687 0.950 . S
H662 C688 0.950 . S
H663 C690 0.950 . S
H664 C693 0.950 . S
H665 C694 0.950 . S
H666 C696 0.950 . S
H667 C697 0.950 . S
C668 H650 0.951 . S
C668 C669 1.366 . S
C668 C670 1.388 . S
C669 C668 1.366 . S
C669 C673 1.385 . S
C670 H651 0.951 . S
C670 C668 1.388 . S
C670 C671 1.366 . S
C671 C670 1.366 . S
C671 C672 1.414 . S
C671 C674 1.499 . S
C672 H652 0.950 . S
C672 C671 1.414 . S
C672 C673 1.374 . S
C673 H653 0.950 . S
C673 C669 1.385 . S
C673 C672 1.374 . S
C674 C671 1.499 . S
C674 C675 1.373 . S
C674 C676 1.389 . S
C675 H654 0.950 . S
C675 C674 1.373 . S
C675 C691 1.377 . S
C676 C674 1.389 . S
C676 C677 1.524 . S
C676 C690 1.377 . S
C677 C676 1.524 . S
C677 C678 1.397 . S
C677 C682 1.363 . S
C678 H655 0.950 . S
C678 C677 1.397 . S
C678 C679 1.334 . S
C679 H656 0.950 . S
C679 C678 1.334 . S
C679 C680 1.287 1_565 S
C680 C679 1.287 1_545 S
C680 C681 1.524 . S
C680 H699 0.913 . S
C681 H657 0.950 . S
C681 C680 1.524 . S
C681 C682 1.415 1_545 S
C682 H658 0.950 . S
C682 C677 1.363 . S
C682 C681 1.415 1_565 S
C683 H659 0.951 . S
C683 C684 1.366 . S
C683 C685 1.388 . S
C684 C683 1.366 . S
C684 C688 1.385 . S
C685 H660 0.951 . S
C685 C683 1.388 . S
C685 C686 1.366 . S
C686 C685 1.366 . S
C686 C687 1.414 . S
C686 C689 1.499 . S
C687 H661 0.950 . S
C687 C686 1.414 . S
C687 C688 1.374 . S
C688 H662 0.950 . S
C688 C684 1.385 . S
C688 C687 1.374 . S
C689 C686 1.499 . S
C689 C690 1.373 . S
C689 C691 1.389 . S
C690 H663 0.950 . S
C690 C676 1.377 . S
C690 C689 1.373 . S
C691 C675 1.377 . S
C691 C689 1.389 . S
C691 C692 1.524 . S
C692 C691 1.524 . S
C692 C693 1.397 . S
C692 C697 1.363 . S
C693 H664 0.950 . S
C693 C692 1.397 . S
C693 C694 1.334 . S
C694 H665 0.950 . S
C694 C693 1.334 . S
C694 C695 1.287 . S
C695 C694 1.287 . S
C695 C696 1.524 . S
C695 H698 0.999 . S
C696 H666 0.950 . S
C696 C695 1.524 . S
C696 C697 1.415 . S
C697 H667 0.950 . S
C697 C692 1.363 . S
C697 C696 1.415 . S
H698 C695 0.999 . S
H699 C680 0.913 . S
H700 C718 0.951 . S
H701 C720 0.951 . S
H702 C722 0.950 . S
H703 C723 0.950 . S
H704 C725 0.950 . S
H705 C728 0.950 . S
H706 C729 0.950 . S
H707 C731 0.950 . S
H708 C732 0.950 . S
H709 C733 0.951 . S
H710 C735 0.951 . S
H711 C737 0.950 . S
H712 C738 0.950 . S
H713 C740 0.950 . S
H714 C743 0.950 . S
H715 C744 0.950 . S
H716 C746 0.950 . S
H717 C747 0.950 . S
C718 H700 0.951 . S
C718 C719 1.366 . S
C718 C720 1.388 . S
C719 C718 1.366 . S
C719 C723 1.385 . S
C720 H701 0.951 . S
C720 C718 1.388 . S
C720 C721 1.366 . S
C721 C720 1.366 . S
C721 C722 1.414 . S
C721 C724 1.499 . S
C722 H702 0.950 . S
C722 C721 1.414 . S
C722 C723 1.374 . S
C723 H703 0.950 . S
C723 C719 1.385 . S
C723 C722 1.374 . S
C724 C721 1.499 . S
C724 C725 1.373 . S
C724 C726 1.389 . S
C725 H704 0.950 . S
C725 C724 1.373 . S
C725 C741 1.377 . S
C726 C724 1.389 . S
C726 C727 1.524 . S
C726 C740 1.377 . S
C727 C726 1.524 . S
C727 C728 1.397 . S
C727 C732 1.363 . S
C728 H705 0.950 . S
C728 C727 1.397 . S
C728 C729 1.334 . S
C729 H706 0.950 . S
C729 C728 1.334 . S
C729 C730 1.287 . S
C730 C729 1.287 . S
C730 C731 1.524 . S
C730 H749 0.913 . S
C731 H707 0.950 . S
C731 C730 1.524 . S
C731 C732 1.415 . S
C732 H708 0.950 . S
C732 C727 1.363 . S
C732 C731 1.415 . S
C733 H709 0.951 . S
C733 C734 1.366 . S
C733 C735 1.388 . S
C734 C733 1.366 . S
C734 C738 1.385 . S
C735 H710 0.951 . S
C735 C733 1.388 . S
C735 C736 1.366 . S
C736 C735 1.366 . S
C736 C737 1.414 . S
C736 C739 1.499 . S
C737 H711 0.950 . S
C737 C736 1.414 . S
C737 C738 1.374 . S
C738 H712 0.950 . S
C738 C734 1.385 . S
C738 C737 1.374 . S
C739 C736 1.499 . S
C739 C740 1.373 . S
C739 C741 1.389 . S
C740 H713 0.950 . S
C740 C726 1.377 . S
C740 C739 1.373 . S
C741 C725 1.377 . S
C741 C739 1.389 . S
C741 C742 1.524 . S
C742 C741 1.524 . S
C742 C743 1.397 . S
C742 C747 1.363 . S
C743 H714 0.950 . S
C743 C742 1.397 . S
C743 C744 1.334 . S
C744 H715 0.950 . S
C744 C743 1.334 . S
C744 C745 1.287 . S
C745 C744 1.287 . S
C745 C746 1.524 . S
C745 H748 0.999 . S
C746 H716 0.950 . S
C746 C745 1.524 . S
C746 C747 1.415 . S
C747 H717 0.950 . S
C747 C742 1.363 . S
C747 C746 1.415 . S
H748 C745 0.999 . S
H749 C730 0.913 . S
H750 C768 0.951 . S
H751 C770 0.951 . S
H752 C772 0.950 . S
H753 C773 0.950 . S
H754 C775 0.950 . S
H755 C778 0.950 . S
H756 C779 0.950 . S
H757 C781 0.950 . S
H758 C782 0.950 . S
H759 C783 0.951 . S
H760 C785 0.951 . S
H761 C787 0.950 . S
H762 C788 0.950 . S
H763 C790 0.950 . S
H764 C793 0.950 . S
H765 C794 0.950 . S
H766 C796 0.950 . S
H767 C797 0.950 . S
C768 H750 0.951 . S
C768 C769 1.366 . S
C768 C770 1.388 . S
C769 C768 1.366 . S
C769 C773 1.385 . S
C770 H751 0.951 . S
C770 C768 1.388 . S
C770 C771 1.366 . S
C771 C770 1.366 . S
C771 C772 1.414 . S
C771 C774 1.499 . S
C772 H752 0.950 . S
C772 C771 1.414 . S
C772 C773 1.374 . S
C773 H753 0.950 . S
C773 C769 1.385 . S
C773 C772 1.374 . S
C774 C771 1.499 . S
C774 C775 1.373 . S
C774 C776 1.389 . S
C775 H754 0.950 . S
C775 C774 1.373 . S
C775 C791 1.377 . S
C776 C774 1.389 . S
C776 C777 1.524 . S
C776 C790 1.377 . S
C777 C776 1.524 . S
C777 C778 1.397 . S
C777 C782 1.363 . S
C778 H755 0.950 . S
C778 C777 1.397 . S
C778 C779 1.334 1_655 S
C779 H756 0.950 . S
C779 C778 1.334 1_455 S
C779 C780 1.287 . S
C780 C779 1.287 . S
C780 C781 1.524 1_455 S
C780 H799 0.913 . S
C781 H757 0.950 . S
C781 C780 1.524 1_655 S
C781 C782 1.415 . S
C782 H758 0.950 . S
C782 C777 1.363 . S
C782 C781 1.415 . S
C783 H759 0.951 . S
C783 C784 1.366 . S
C783 C785 1.388 . S
C784 C783 1.366 . S
C784 C788 1.385 . S
C785 H760 0.951 . S
C785 C783 1.388 . S
C785 C786 1.366 . S
C786 C785 1.366 . S
C786 C787 1.414 . S
C786 C789 1.499 . S
C787 H761 0.950 . S
C787 C786 1.414 . S
C787 C788 1.374 . S
C788 H762 0.950 . S
C788 C784 1.385 . S
C788 C787 1.374 . S
C789 C786 1.499 . S
C789 C790 1.373 . S
C789 C791 1.389 . S
C790 H763 0.950 . S
C790 C776 1.377 . S
C790 C789 1.373 . S
C791 C775 1.377 . S
C791 C789 1.389 . S
C791 C792 1.524 . S
C792 C791 1.524 . S
C792 C793 1.397 . S
C792 C797 1.363 . S
C793 H764 0.950 . S
C793 C792 1.397 . S
C793 C794 1.334 . S
C794 H765 0.950 . S
C794 C793 1.334 . S
C794 C795 1.287 . S
C795 C794 1.287 . S
C795 C796 1.524 . S
C795 H798 0.999 . S
C796 H766 0.950 . S
C796 C795 1.524 . S
C796 C797 1.415 . S
C797 H767 0.950 . S
C797 C792 1.363 . S
C797 C796 1.415 . S
H798 C795 0.999 . S
H799 C780 0.913 . S
H800 C818 0.951 . S
H801 C820 0.951 . S
H802 C822 0.950 . S
H803 C823 0.950 . S
H804 C825 0.950 . S
H805 C828 0.950 . S
H806 C829 0.950 . S
H807 C831 0.950 . S
H808 C832 0.950 . S
H809 C833 0.951 1_556 S
H810 C835 0.948 . S
H811 C837 0.950 . S
H812 C838 0.950 . S
H813 C840 0.950 . S
H814 C843 0.950 . S
H815 C844 0.950 . S
H816 C846 0.950 . S
H817 C847 0.950 . S
C818 H800 0.951 . S
C818 C819 1.366 . S
C818 C820 1.388 . S
C819 C818 1.366 . S
C819 C823 1.385 . S
C820 H801 0.951 . S
C820 C818 1.388 . S
C820 C821 1.366 . S
C821 C820 1.366 . S
C821 C822 1.414 . S
C821 C824 1.499 . S
C822 H802 0.950 . S
C822 C821 1.414 . S
C822 C823 1.374 . S
C823 H803 0.950 . S
C823 C819 1.385 . S
C823 C822 1.374 . S
C824 C821 1.499 . S
C824 C825 1.373 . S
C824 C826 1.389 . S
C825 H804 0.950 . S
C825 C824 1.373 . S
C825 C841 1.377 . S
C826 C824 1.389 . S
C826 C827 1.524 . S
C826 C840 1.377 . S
C827 C826 1.524 . S
C827 C828 1.397 . S
C827 C832 1.363 . S
C828 H805 0.950 . S
C828 C827 1.397 . S
C828 C829 1.334 . S
C829 H806 0.950 . S
C829 C828 1.334 . S
C829 C830 1.287 . S
C830 C829 1.287 . S
C830 C831 1.524 . S
C830 H849 0.913 . S
C831 H807 0.950 . S
C831 C830 1.524 . S
C831 C832 1.415 . S
C832 H808 0.950 . S
C832 C827 1.363 . S
C832 C831 1.415 . S
C833 H809 0.951 1_554 S
C833 C834 1.366 . S
C833 C835 1.388 . S
C834 C833 1.366 . S
C834 C838 1.385 . S
C835 H810 0.948 . S
C835 C833 1.388 . S
C835 C836 1.366 . S
C836 C835 1.366 . S
C836 C837 1.414 . S
C836 C839 1.499 . S
C837 H811 0.950 . S
C837 C836 1.414 . S
C837 C838 1.374 . S
C838 H812 0.950 . S
C838 C834 1.385 . S
C838 C837 1.374 . S
C839 C836 1.499 . S
C839 C840 1.373 . S
C839 C841 1.389 . S
C840 H813 0.950 . S
C840 C826 1.377 . S
C840 C839 1.373 . S
C841 C825 1.377 . S
C841 C839 1.389 . S
C841 C842 1.524 . S
C842 C841 1.524 . S
C842 C843 1.397 1_545 S
C842 C847 1.363 1_554 S
C843 H814 0.950 . S
C843 C842 1.397 1_565 S
C843 C844 1.334 . S
C844 H815 0.950 . S
C844 C843 1.334 . S
C844 C845 1.287 1_554 S
C845 C844 1.287 1_556 S
C845 C846 1.524 . S
C845 H848 0.999 . S
C846 H816 0.950 . S
C846 C845 1.524 . S
C846 C847 1.415 1_565 S
C847 H817 0.950 . S
C847 C842 1.363 1_556 S
C847 C846 1.415 1_545 S
H848 C845 0.999 . S
H849 C830 0.913 . S
H850 C868 0.951 . S
H851 C870 0.951 . S
H852 C872 0.950 . S
H853 C873 0.950 . S
H854 C875 0.950 . S
H855 C878 0.950 . S
H856 C879 0.950 . S
H857 C881 0.950 . S
H858 C882 0.950 . S
H859 C883 0.951 . S
H860 C885 0.951 . S
H861 C887 0.950 . S
H862 C888 0.950 . S
H863 C890 0.950 . S
H864 C893 0.950 . S
H865 C894 0.950 . S
H866 C896 0.950 . S
H867 C897 0.950 . S
C868 H850 0.951 . S
C868 C869 1.366 . S
C868 C870 1.388 . S
C869 C868 1.366 . S
C869 C873 1.385 . S
C870 H851 0.951 . S
C870 C868 1.388 . S
C870 C871 1.366 . S
C871 C870 1.366 . S
C871 C872 1.414 . S
C871 C874 1.499 . S
C872 H852 0.950 . S
C872 C871 1.414 . S
C872 C873 1.374 . S
C873 H853 0.950 . S
C873 C869 1.385 . S
C873 C872 1.374 . S
C874 C871 1.499 . S
C874 C875 1.373 . S
C874 C876 1.389 . S
C875 H854 0.950 . S
C875 C874 1.373 . S
C875 C891 1.377 . S
C876 C874 1.389 . S
C876 C877 1.524 . S
C876 C890 1.377 . S
C877 C876 1.524 . S
C877 C878 1.397 . S
C877 C882 1.363 . S
C878 H855 0.950 . S
C878 C877 1.397 . S
C878 C879 1.334 . S
C879 H856 0.950 . S
C879 C878 1.334 . S
C879 C880 1.287 1_565 S
C880 C879 1.287 1_545 S
C880 C881 1.524 . S
C880 H899 0.913 . S
C881 H857 0.950 . S
C881 C880 1.524 . S
C881 C882 1.415 1_545 S
C882 H858 0.950 . S
C882 C877 1.363 . S
C882 C881 1.415 1_565 S
C883 H859 0.951 . S
C883 C884 1.366 . S
C883 C885 1.388 . S
C884 C883 1.366 . S
C884 C888 1.385 . S
C885 H860 0.951 . S
C885 C883 1.388 . S
C885 C886 1.366 . S
C886 C885 1.366 . S
C886 C887 1.414 . S
C886 C889 1.499 . S
C887 H861 0.950 . S
C887 C886 1.414 . S
C887 C888 1.374 . S
C888 H862 0.950 . S
C888 C884 1.385 . S
C888 C887 1.374 . S
C889 C886 1.499 . S
C889 C890 1.373 . S
C889 C891 1.389 . S
C890 H863 0.950 . S
C890 C876 1.377 . S
C890 C889 1.373 . S
C891 C875 1.377 . S
C891 C889 1.389 . S
C891 C892 1.524 . S
C892 C891 1.524 . S
C892 C893 1.397 . S
C892 C897 1.363 . S
C893 H864 0.950 . S
C893 C892 1.397 . S
C893 C894 1.334 . S
C894 H865 0.950 . S
C894 C893 1.334 . S
C894 C895 1.287 . S
C895 C894 1.287 . S
C895 C896 1.524 . S
C895 H898 0.999 . S
C896 H866 0.950 . S
C896 C895 1.524 . S
C896 C897 1.415 . S
C897 H867 0.950 . S
C897 C892 1.363 . S
C897 C896 1.415 . S
H898 C895 0.999 . S
H899 C880 0.913 . S
H900 C918 0.951 . S
H901 C920 0.951 . S
H902 C922 0.950 . S
H903 C923 0.950 . S
H904 C925 0.950 . S
H905 C928 0.950 . S
H906 C929 0.950 . S
H907 C931 0.950 . S
H908 C932 0.950 . S
H909 C933 0.951 1_554 S
H910 C935 0.951 . S
H911 C937 0.950 . S
H912 C938 0.950 . S
H913 C940 0.950 . S
H914 C943 0.950 . S
H915 C944 0.950 . S
H916 C946 0.950 . S
H917 C947 0.950 . S
C918 H900 0.951 . S
C918 C919 1.366 . S
C918 C920 1.388 . S
C919 C918 1.366 . S
C919 C923 1.385 . S
C920 H901 0.951 . S
C920 C918 1.388 . S
C920 C921 1.366 . S
C921 C920 1.366 . S
C921 C922 1.414 . S
C921 C924 1.499 . S
C922 H902 0.950 . S
C922 C921 1.414 . S
C922 C923 1.374 . S
C923 H903 0.950 . S
C923 C919 1.385 . S
C923 C922 1.374 . S
C924 C921 1.499 . S
C924 C925 1.373 . S
C924 C926 1.389 . S
C925 H904 0.950 . S
C925 C924 1.373 . S
C925 C941 1.377 . S
C926 C924 1.389 . S
C926 C927 1.524 . S
C926 C940 1.377 . S
C927 C926 1.524 . S
C927 C928 1.397 . S
C927 C932 1.363 . S
C928 H905 0.950 . S
C928 C927 1.397 . S
C928 C929 1.334 . S
C929 H906 0.950 . S
C929 C928 1.334 . S
C929 C930 1.287 . S
C930 C929 1.287 . S
C930 C931 1.524 . S
C930 H949 0.913 . S
C931 H907 0.950 . S
C931 C930 1.524 . S
C931 C932 1.415 . S
C932 H908 0.950 . S
C932 C927 1.363 . S
C932 C931 1.415 . S
C933 H909 0.951 1_556 S
C933 C934 1.366 . S
C933 C935 1.388 . S
C934 C933 1.366 . S
C934 C938 1.385 . S
C935 H910 0.951 . S
C935 C933 1.388 . S
C935 C936 1.366 . S
C936 C935 1.366 . S
C936 C937 1.414 . S
C936 C939 1.499 . S
C937 H911 0.950 . S
C937 C936 1.414 . S
C937 C938 1.374 . S
C938 H912 0.950 . S
C938 C934 1.385 . S
C938 C937 1.374 . S
C939 C936 1.499 . S
C939 C940 1.373 . S
C939 C941 1.389 . S
C940 H913 0.950 . S
C940 C926 1.377 . S
C940 C939 1.373 . S
C941 C925 1.377 . S
C941 C939 1.389 . S
C941 C942 1.524 . S
C942 C941 1.524 . S
C942 C943 1.397 . S
C942 C947 1.363 . S
C943 H914 0.950 . S
C943 C942 1.397 . S
C943 C944 1.334 . S
C944 H915 0.950 . S
C944 C943 1.334 . S
C944 C945 1.287 . S
C945 C944 1.287 . S
C945 C946 1.524 . S
C945 H948 0.999 . S
C946 H916 0.950 . S
C946 C945 1.524 . S
C946 C947 1.415 . S
C947 H917 0.950 . S
C947 C942 1.363 . S
C947 C946 1.415 . S
H948 C945 0.999 . S
H949 C930 0.913 . S
H950 C968 0.951 . S
H951 C970 0.951 . S
H952 C972 0.950 . S
H953 C973 0.950 . S
H954 C975 0.950 . S
H955 C978 0.950 . S
H956 C979 0.950 . S
H957 C981 0.950 . S
H958 C982 0.950 . S
H959 C983 0.951 . S
H960 C985 0.951 . S
H961 C987 0.950 . S
H962 C988 0.950 . S
H963 C990 0.950 . S
H964 C993 0.950 . S
H965 C994 0.950 . S
H966 C996 0.950 . S
H967 C997 0.950 . S
C968 H950 0.951 . S
C968 C969 1.366 . S
C968 C970 1.388 . S
C969 C968 1.366 . S
C969 C973 1.385 . S
C970 H951 0.951 . S
C970 C968 1.388 . S
C970 C971 1.366 . S
C971 C970 1.366 . S
C971 C972 1.414 . S
C971 C974 1.499 . S
C972 H952 0.950 . S
C972 C971 1.414 . S
C972 C973 1.374 . S
C973 H953 0.950 . S
C973 C969 1.385 . S
C973 C972 1.374 . S
C974 C971 1.499 . S
C974 C975 1.373 . S
C974 C976 1.389 . S
C975 H954 0.950 . S
C975 C974 1.373 . S
C975 C991 1.377 . S
C976 C974 1.389 . S
C976 C977 1.524 . S
C976 C990 1.377 . S
C977 C976 1.524 . S
C977 C978 1.397 . S
C977 C982 1.363 . S
C978 H955 0.950 . S
C978 C977 1.397 . S
C978 C979 1.334 . S
C979 H956 0.950 . S
C979 C978 1.334 . S
C979 C980 1.287 . S
C980 C979 1.287 . S
C980 C981 1.524 . S
C980 H999 0.913 . S
C981 H957 0.950 . S
C981 C980 1.524 . S
C981 C982 1.415 . S
C982 H958 0.950 . S
C982 C977 1.363 . S
C982 C981 1.415 . S
C983 H959 0.951 . S
C983 C984 1.366 . S
C983 C985 1.388 . S
C984 C983 1.366 . S
C984 C988 1.385 . S
C985 H960 0.951 . S
C985 C983 1.388 . S
C985 C986 1.366 . S
C986 C985 1.366 . S
C986 C987 1.414 . S
C986 C989 1.499 . S
C987 H961 0.950 . S
C987 C986 1.414 . S
C987 C988 1.374 . S
C988 H962 0.950 . S
C988 C984 1.385 . S
C988 C987 1.374 . S
C989 C986 1.499 . S
C989 C990 1.373 . S
C989 C991 1.389 . S
C990 H963 0.950 . S
C990 C976 1.377 . S
C990 C989 1.373 . S
C991 C975 1.377 . S
C991 C989 1.389 . S
C991 C992 1.524 . S
C992 C991 1.524 . S
C992 C993 1.397 . S
C992 C997 1.363 . S
C993 H964 0.950 . S
C993 C992 1.397 . S
C993 C994 1.334 . S
C994 H965 0.950 . S
C994 C993 1.334 . S
C994 C995 1.287 . S
C995 C994 1.287 . S
C995 C996 1.524 . S
C995 H998 0.999 . S
C996 H966 0.950 . S
C996 C995 1.524 . S
C996 C997 1.415 . S
C997 H967 0.950 . S
C997 C992 1.363 . S
C997 C996 1.415 . S
H998 C995 0.999 . S
H999 C980 0.913 . S
H1000 C1018 0.951 . S
H1001 C1020 0.951 . S
H1002 C1022 0.950 . S
H1003 C1023 0.950 . S
H1004 C1025 0.950 . S
H1005 C1028 0.950 . S
H1006 C1029 0.950 . S
H1007 C1031 0.950 . S
H1008 C1032 0.960 . S
H1009 C1033 0.951 . S
H1010 C1035 0.951 . S
H1011 C1037 0.945 1_655 S
H1012 C1038 0.950 1_655 S
H1013 C1040 0.950 . S
H1014 C1043 0.950 . S
H1015 C1044 0.950 . S
H1016 C1046 0.950 . S
H1017 C1047 0.950 . S
C1018 H1000 0.951 . S
C1018 C1019 1.366 . S
C1018 C1020 1.388 . S
C1019 C1018 1.366 . S
C1019 C1023 1.385 . S
C1020 H1001 0.951 . S
C1020 C1018 1.388 . S
C1020 C1021 1.366 . S
C1021 C1020 1.366 . S
C1021 C1022 1.414 . S
C1021 C1024 1.499 . S
C1022 H1002 0.950 . S
C1022 C1021 1.414 . S
C1022 C1023 1.374 . S
C1023 H1003 0.950 . S
C1023 C1019 1.385 . S
C1023 C1022 1.374 . S
C1024 C1021 1.499 . S
C1024 C1025 1.373 . S
C1024 C1026 1.389 . S
C1025 H1004 0.950 . S
C1025 C1024 1.373 . S
C1025 C1041 1.377 . S
C1026 C1024 1.389 . S
C1026 C1027 1.524 . S
C1026 C1040 1.377 . S
C1027 C1026 1.524 . S
C1027 C1028 1.397 . S
C1027 C1032 1.346 1_455 S
C1028 H1005 0.950 . S
C1028 C1027 1.397 . S
C1028 C1029 1.334 1_554 S
C1029 H1006 0.950 . S
C1029 C1028 1.334 1_556 S
C1029 C1030 1.287 . S
C1030 C1029 1.287 . S
C1030 C1031 1.524 1_456 S
C1030 H1049 0.913 1_455 S
C1031 H1007 0.950 . S
C1031 C1030 1.524 1_654 S
C1031 C1032 1.423 . S
C1032 H1008 0.960 . S
C1032 C1027 1.346 1_655 S
C1032 C1031 1.423 . S
C1033 H1009 0.951 . S
C1033 C1034 1.366 . S
C1033 C1035 1.388 . S
C1034 C1033 1.366 . S
C1034 C1038 1.385 . S
C1035 H1010 0.951 . S
C1035 C1033 1.388 . S
C1035 C1036 1.366 . S
C1036 C1035 1.366 . S
C1036 C1037 1.414 . S
C1036 C1039 1.499 . S
C1037 H1011 0.945 1_455 S
C1037 C1036 1.414 . S
C1037 C1038 1.374 . S
C1038 H1012 0.950 1_455 S
C1038 C1034 1.385 . S
C1038 C1037 1.374 . S
C1039 C1036 1.499 . S
C1039 C1040 1.373 . S
C1039 C1041 1.389 . S
C1040 H1013 0.950 . S
C1040 C1026 1.377 . S
C1040 C1039 1.373 . S
C1041 C1025 1.377 . S
C1041 C1039 1.389 . S
C1041 C1042 1.524 . S
C1042 C1041 1.524 . S
C1042 C1043 1.397 . S
C1042 C1047 1.363 . S
C1043 H1014 0.950 . S
C1043 C1042 1.397 . S
C1043 C1044 1.334 . S
C1044 H1015 0.950 . S
C1044 C1043 1.334 . S
C1044 C1045 1.287 . S
C1045 C1044 1.287 . S
C1045 C1046 1.524 . S
C1045 H1048 0.999 . S
C1046 H1016 0.950 . S
C1046 C1045 1.524 . S
C1046 C1047 1.415 . S
C1047 H1017 0.950 . S
C1047 C1042 1.363 . S
C1047 C1046 1.415 . S
H1048 C1045 0.999 . S
H1049 C1030 0.913 1_655 S
H1050 C1068 0.951 . S
H1051 C1070 0.951 . S
H1052 C1072 0.950 . S
H1053 C1073 0.950 . S
H1054 C1075 0.950 . S
H1055 C1078 0.950 . S
H1056 C1079 0.950 . S
H1057 C1081 0.950 . S
H1058 C1082 0.950 . S
H1059 C1083 0.951 . S
H1060 C1085 0.951 . S
H1061 C1087 0.950 . S
H1062 C1088 0.950 . S
H1063 C1090 0.950 . S
H1064 C1093 0.950 . S
H1065 C1094 0.950 . S
H1066 C1096 0.950 . S
H1067 C1097 0.950 . S
C1068 H1050 0.951 . S
C1068 C1069 1.366 . S
C1068 C1070 1.388 . S
C1069 C1068 1.366 . S
C1069 C1073 1.385 . S
C1070 H1051 0.951 . S
C1070 C1068 1.388 . S
C1070 C1071 1.366 . S
C1071 C1070 1.366 . S
C1071 C1072 1.414 . S
C1071 C1074 1.499 . S
C1072 H1052 0.950 . S
C1072 C1071 1.414 . S
C1072 C1073 1.374 . S
C1073 H1053 0.950 . S
C1073 C1069 1.385 . S
C1073 C1072 1.374 . S
C1074 C1071 1.499 . S
C1074 C1075 1.373 . S
C1074 C1076 1.389 . S
C1075 H1054 0.950 . S
C1075 C1074 1.373 . S
C1075 C1091 1.377 . S
C1076 C1074 1.389 . S
C1076 C1077 1.524 . S
C1076 C1090 1.377 . S
C1077 C1076 1.524 . S
C1077 C1078 1.397 . S
C1077 C1082 1.363 1_556 S
C1078 H1055 0.950 . S
C1078 C1077 1.397 . S
C1078 C1079 1.334 . S
C1079 H1056 0.950 . S
C1079 C1078 1.334 . S
C1079 C1080 1.287 1_556 S
C1080 C1079 1.287 1_554 S
C1080 C1081 1.524 . S
C1080 H1099 0.913 . S
C1081 H1057 0.950 . S
C1081 C1080 1.524 . S
C1081 C1082 1.415 . S
C1082 H1058 0.950 . S
C1082 C1077 1.363 1_554 S
C1082 C1081 1.415 . S
C1083 H1059 0.951 . S
C1083 C1084 1.366 . S
C1083 C1085 1.388 . S
C1084 C1083 1.366 . S
C1084 C1088 1.385 . S
C1085 H1060 0.951 . S
C1085 C1083 1.388 . S
C1085 C1086 1.366 . S
C1086 C1085 1.366 . S
C1086 C1087 1.414 . S
C1086 C1089 1.499 . S
C1087 H1061 0.950 . S
C1087 C1086 1.414 . S
C1087 C1088 1.374 . S
C1088 H1062 0.950 . S
C1088 C1084 1.385 . S
C1088 C1087 1.374 . S
C1089 C1086 1.499 . S
C1089 C1090 1.373 . S
C1089 C1091 1.389 . S
C1090 H1063 0.950 . S
C1090 C1076 1.377 . S
C1090 C1089 1.373 . S
C1091 C1075 1.377 . S
C1091 C1089 1.389 . S
C1091 C1092 1.524 . S
C1092 C1091 1.524 . S
C1092 C1093 1.397 . S
C1092 C1097 1.363 . S
C1093 H1064 0.950 . S
C1093 C1092 1.397 . S
C1093 C1094 1.334 . S
C1094 H1065 0.950 . S
C1094 C1093 1.334 . S
C1094 C1095 1.287 . S
C1095 C1094 1.287 . S
C1095 C1096 1.524 . S
C1095 H1098 0.999 . S
C1096 H1066 0.950 . S
C1096 C1095 1.524 . S
C1096 C1097 1.415 . S
C1097 H1067 0.950 . S
C1097 C1092 1.363 . S
C1097 C1096 1.415 . S
H1098 C1095 0.999 . S
H1099 C1080 0.913 . S
H1100 C1118 0.951 . S
H1101 C1120 0.951 . S
H1102 C1122 0.950 . S
H1103 C1123 0.950 . S
H1104 C1125 0.950 . S
H1105 C1128 0.950 . S
H1106 C1129 0.950 . S
H1107 C1131 0.950 . S
H1108 C1132 0.950 . S
H1109 C1133 0.951 . S
H1110 C1135 0.951 . S
H1111 C1137 0.950 . S
H1112 C1138 0.950 1_455 S
H1113 C1140 0.950 . S
H1114 C1143 0.950 . S
H1115 C1144 0.950 . S
H1116 C1146 0.950 . S
H1117 C1147 0.950 . S
C1118 H1100 0.951 . S
C1118 C1119 1.366 . S
C1118 C1120 1.388 . S
C1119 C1118 1.366 . S
C1119 C1123 1.385 . S
C1120 H1101 0.951 . S
C1120 C1118 1.388 . S
C1120 C1121 1.366 . S
C1121 C1120 1.366 . S
C1121 C1122 1.414 . S
C1121 C1124 1.499 . S
C1122 H1102 0.950 . S
C1122 C1121 1.414 . S
C1122 C1123 1.374 . S
C1123 H1103 0.950 . S
C1123 C1119 1.385 . S
C1123 C1122 1.374 . S
C1124 C1121 1.499 . S
C1124 C1125 1.373 . S
C1124 C1126 1.389 . S
C1125 H1104 0.950 . S
C1125 C1124 1.373 . S
C1125 C1141 1.377 . S
C1126 C1124 1.389 . S
C1126 C1127 1.524 . S
C1126 C1140 1.377 . S
C1127 C1126 1.524 . S
C1127 C1128 1.397 . S
C1127 C1132 1.363 . S
C1128 H1105 0.950 . S
C1128 C1127 1.397 . S
C1128 C1129 1.334 . S
C1129 H1106 0.950 . S
C1129 C1128 1.334 . S
C1129 C1130 1.287 . S
C1130 C1129 1.287 . S
C1130 C1131 1.524 . S
C1130 H1149 0.913 . S
C1131 H1107 0.950 . S
C1131 C1130 1.524 . S
C1131 C1132 1.415 . S
C1132 H1108 0.950 . S
C1132 C1127 1.363 . S
C1132 C1131 1.415 . S
C1133 H1109 0.951 . S
C1133 C1134 1.366 . S
C1133 C1135 1.388 . S
C1134 C1133 1.366 . S
C1134 C1138 1.385 . S
C1135 H1110 0.951 . S
C1135 C1133 1.388 . S
C1135 C1136 1.366 . S
C1136 C1135 1.366 . S
C1136 C1137 1.414 . S
C1136 C1139 1.499 . S
C1137 H1111 0.950 . S
C1137 C1136 1.414 . S
C1137 C1138 1.374 . S
C1138 H1112 0.950 1_655 S
C1138 C1134 1.385 . S
C1138 C1137 1.374 . S
C1139 C1136 1.499 . S
C1139 C1140 1.373 . S
C1139 C1141 1.389 . S
C1140 H1113 0.950 . S
C1140 C1126 1.377 . S
C1140 C1139 1.373 . S
C1141 C1125 1.377 . S
C1141 C1139 1.389 . S
C1141 C1142 1.524 . S
C1142 C1141 1.524 . S
C1142 C1143 1.397 1_655 S
C1142 C1147 1.363 . S
C1143 H1114 0.950 . S
C1143 C1142 1.397 1_455 S
C1143 C1144 1.334 . S
C1144 H1115 0.950 . S
C1144 C1143 1.334 . S
C1144 C1145 1.287 . S
C1145 C1144 1.287 . S
C1145 C1146 1.524 1_455 S
C1145 H1148 0.999 . S
C1146 H1116 0.950 . S
C1146 C1145 1.524 1_655 S
C1146 C1147 1.415 . S
C1147 H1117 0.950 . S
C1147 C1142 1.363 . S
C1147 C1146 1.415 . S
H1148 C1145 0.999 . S
H1149 C1130 0.913 . S
H1150 C1168 0.951 . S
H1151 C1170 0.951 . S
H1152 C1172 0.950 . S
H1153 C1173 0.950 . S
H1154 C1175 0.950 . S
H1155 C1178 0.950 . S
H1156 C1179 0.950 . S
H1157 C1181 0.950 . S
H1158 C1182 0.950 . S
H1159 C1183 0.951 . S
H1160 C1185 0.951 . S
H1161 C1187 0.950 . S
H1162 C1188 0.950 . S
H1163 C1190 0.950 . S
H1164 C1193 0.950 . S
H1165 C1194 0.950 . S
H1166 C1196 0.950 . S
H1167 C1197 0.950 . S
C1168 H1150 0.951 . S
C1168 C1169 1.366 . S
C1168 C1170 1.388 . S
C1169 C1168 1.366 . S
C1169 C1173 1.385 . S
C1170 H1151 0.951 . S
C1170 C1168 1.388 . S
C1170 C1171 1.366 . S
C1171 C1170 1.366 . S
C1171 C1172 1.414 . S
C1171 C1174 1.499 . S
C1172 H1152 0.950 . S
C1172 C1171 1.414 . S
C1172 C1173 1.374 . S
C1173 H1153 0.950 . S
C1173 C1169 1.385 . S
C1173 C1172 1.374 . S
C1174 C1171 1.499 . S
C1174 C1175 1.373 . S
C1174 C1176 1.389 . S
C1175 H1154 0.950 . S
C1175 C1174 1.373 . S
C1175 C1191 1.377 . S
C1176 C1174 1.389 . S
C1176 C1177 1.524 . S
C1176 C1190 1.377 . S
C1177 C1176 1.524 . S
C1177 C1178 1.397 . S
C1177 C1182 1.363 . S
C1178 H1155 0.950 . S
C1178 C1177 1.397 . S
C1178 C1179 1.334 . S
C1179 H1156 0.950 . S
C1179 C1178 1.334 . S
C1179 C1180 1.287 . S
C1180 C1179 1.287 . S
C1180 C1181 1.524 . S
C1180 H1199 0.913 . S
C1181 H1157 0.950 . S
C1181 C1180 1.524 . S
C1181 C1182 1.415 . S
C1182 H1158 0.950 . S
C1182 C1177 1.363 . S
C1182 C1181 1.415 . S
C1183 H1159 0.951 . S
C1183 C1184 1.366 . S
C1183 C1185 1.388 . S
C1184 C1183 1.366 . S
C1184 C1188 1.385 . S
C1185 H1160 0.951 . S
C1185 C1183 1.388 . S
C1185 C1186 1.366 . S
C1186 C1185 1.366 . S
C1186 C1187 1.414 . S
C1186 C1189 1.499 . S
C1187 H1161 0.950 . S
C1187 C1186 1.414 . S
C1187 C1188 1.374 . S
C1188 H1162 0.950 . S
C1188 C1184 1.385 . S
C1188 C1187 1.374 . S
C1189 C1186 1.499 . S
C1189 C1190 1.373 . S
C1189 C1191 1.389 . S
C1190 H1163 0.950 . S
C1190 C1176 1.377 . S
C1190 C1189 1.373 . S
C1191 C1175 1.377 . S
C1191 C1189 1.389 . S
C1191 C1192 1.524 . S
C1192 C1191 1.524 . S
C1192 C1193 1.397 . S
C1192 C1197 1.363 . S
C1193 H1164 0.950 . S
C1193 C1192 1.397 . S
C1193 C1194 1.334 . S
C1194 H1165 0.950 . S
C1194 C1193 1.334 . S
C1194 C1195 1.287 . S
C1195 C1194 1.287 . S
C1195 C1196 1.524 . S
C1195 H1198 0.999 . S
C1196 H1166 0.950 . S
C1196 C1195 1.524 . S
C1196 C1197 1.415 . S
C1197 H1167 0.950 . S
C1197 C1192 1.363 . S
C1197 C1196 1.415 . S
H1198 C1195 0.999 . S
H1199 C1180 0.913 . S
H1200 C1218 0.951 . S
H1201 C1220 0.951 . S
H1202 C1222 0.950 . S
H1203 C1223 0.950 . S
H1204 C1225 0.950 . S
H1205 C1228 0.950 . S
H1206 C1229 0.950 . S
H1207 C1231 0.950 . S
H1208 C1232 0.950 . S
H1209 C1233 0.964 1_545 S
H1210 C1235 0.951 . S
H1211 C1237 0.950 . S
H1212 C1238 0.950 . S
H1213 C1240 0.950 . S
H1214 C1243 0.950 1_565 S
H1215 C1244 0.950 . S
H1216 C1246 0.950 . S
H1217 C1247 0.950 . S
C1218 H1200 0.951 . S
C1218 C1219 1.366 . S
C1218 C1220 1.388 . S
C1219 C1218 1.366 . S
C1219 C1223 1.385 . S
C1220 H1201 0.951 . S
C1220 C1218 1.388 . S
C1220 C1221 1.366 . S
C1221 C1220 1.366 . S
C1221 C1222 1.414 . S
C1221 C1224 1.499 . S
C1222 H1202 0.950 . S
C1222 C1221 1.414 . S
C1222 C1223 1.374 . S
C1223 H1203 0.950 . S
C1223 C1219 1.385 . S
C1223 C1222 1.374 . S
C1224 C1221 1.499 . S
C1224 C1225 1.373 . S
C1224 C1226 1.389 . S
C1225 H1204 0.950 . S
C1225 C1224 1.373 . S
C1225 C1241 1.377 . S
C1226 C1224 1.389 . S
C1226 C1227 1.524 . S
C1226 C1240 1.377 . S
C1227 C1226 1.524 . S
C1227 C1228 1.397 . S
C1227 C1232 1.363 . S
C1228 H1205 0.950 . S
C1228 C1227 1.397 . S
C1228 C1229 1.334 . S
C1229 H1206 0.950 . S
C1229 C1228 1.334 . S
C1229 C1230 1.287 . S
C1230 C1229 1.287 . S
C1230 C1231 1.524 . S
C1230 H1249 0.913 . S
C1231 H1207 0.950 . S
C1231 C1230 1.524 . S
C1231 C1232 1.415 . S
C1232 H1208 0.950 . S
C1232 C1227 1.363 . S
C1232 C1231 1.415 . S
C1233 H1209 0.964 1_565 S
C1233 C1234 1.366 . S
C1233 C1235 1.388 . S
C1234 C1233 1.366 . S
C1234 C1238 1.385 . S
C1235 H1210 0.951 . S
C1235 C1233 1.388 . S
C1235 C1236 1.366 . S
C1236 C1235 1.366 . S
C1236 C1237 1.414 . S
C1236 C1239 1.499 . S
C1237 H1211 0.950 . S
C1237 C1236 1.414 . S
C1237 C1238 1.374 . S
C1238 H1212 0.950 . S
C1238 C1234 1.385 . S
C1238 C1237 1.374 . S
C1239 C1236 1.499 . S
C1239 C1240 1.373 . S
C1239 C1241 1.389 . S
C1240 H1213 0.950 . S
C1240 C1226 1.377 . S
C1240 C1239 1.373 . S
C1241 C1225 1.377 . S
C1241 C1239 1.389 . S
C1241 C1242 1.524 1_565 S
C1242 C1241 1.524 1_545 S
C1242 C1243 1.397 . S
C1242 C1247 1.363 . S
C1243 H1214 0.950 1_545 S
C1243 C1242 1.397 . S
C1243 C1244 1.334 . S
C1244 H1215 0.950 . S
C1244 C1243 1.334 . S
C1244 C1245 1.287 . S
C1245 C1244 1.287 . S
C1245 C1246 1.524 . S
C1245 H1248 0.999 . S
C1246 H1216 0.950 . S
C1246 C1245 1.524 . S
C1246 C1247 1.415 . S
C1247 H1217 0.950 . S
C1247 C1242 1.363 . S
C1247 C1246 1.415 . S
H1248 C1245 0.999 . S
H1249 C1230 0.913 . S
H1250 C1268 0.951 . S
H1251 C1270 0.951 . S
H1252 C1272 0.950 . S
H1253 C1273 0.950 . S
H1254 C1275 0.950 . S
H1255 C1278 0.950 . S
H1256 C1279 0.950 . S
H1257 C1281 0.950 . S
H1258 C1282 0.950 . S
H1259 C1283 0.951 . S
H1260 C1285 0.951 . S
H1261 C1287 0.950 . S
H1262 C1288 0.950 . S
H1263 C1290 0.950 . S
H1264 C1293 0.950 . S
H1265 C1294 0.950 . S
H1266 C1296 0.950 . S
H1267 C1297 0.950 . S
C1268 H1250 0.951 . S
C1268 C1269 1.366 . S
C1268 C1270 1.388 . S
C1269 C1268 1.366 . S
C1269 C1273 1.385 . S
C1270 H1251 0.951 . S
C1270 C1268 1.388 . S
C1270 C1271 1.366 . S
C1271 C1270 1.366 . S
C1271 C1272 1.414 . S
C1271 C1274 1.499 . S
C1272 H1252 0.950 . S
C1272 C1271 1.414 . S
C1272 C1273 1.374 . S
C1273 H1253 0.950 . S
C1273 C1269 1.385 . S
C1273 C1272 1.374 . S
C1274 C1271 1.499 . S
C1274 C1275 1.373 . S
C1274 C1276 1.389 . S
C1275 H1254 0.950 . S
C1275 C1274 1.373 . S
C1275 C1291 1.377 . S
C1276 C1274 1.389 . S
C1276 C1277 1.524 . S
C1276 C1290 1.377 . S
C1277 C1276 1.524 . S
C1277 C1278 1.397 . S
C1277 C1282 1.363 . S
C1278 H1255 0.950 . S
C1278 C1277 1.397 . S
C1278 C1279 1.334 . S
C1279 H1256 0.950 . S
C1279 C1278 1.334 . S
C1279 C1280 1.287 . S
C1280 C1279 1.287 . S
C1280 C1281 1.524 . S
C1280 H1299 0.913 . S
C1281 H1257 0.950 . S
C1281 C1280 1.524 . S
C1281 C1282 1.415 . S
C1282 H1258 0.950 . S
C1282 C1277 1.363 . S
C1282 C1281 1.415 . S
C1283 H1259 0.951 . S
C1283 C1284 1.366 . S
C1283 C1285 1.388 . S
C1284 C1283 1.366 . S
C1284 C1288 1.385 . S
C1285 H1260 0.951 . S
C1285 C1283 1.388 . S
C1285 C1286 1.366 . S
C1286 C1285 1.366 . S
C1286 C1287 1.414 . S
C1286 C1289 1.499 . S
C1287 H1261 0.950 . S
C1287 C1286 1.414 . S
C1287 C1288 1.374 . S
C1288 H1262 0.950 . S
C1288 C1284 1.385 . S
C1288 C1287 1.374 . S
C1289 C1286 1.499 . S
C1289 C1290 1.373 . S
C1289 C1291 1.389 . S
C1290 H1263 0.950 . S
C1290 C1276 1.377 . S
C1290 C1289 1.373 . S
C1291 C1275 1.377 . S
C1291 C1289 1.389 . S
C1291 C1292 1.524 . S
C1292 C1291 1.524 . S
C1292 C1293 1.397 . S
C1292 C1297 1.363 1_545 S
C1293 H1264 0.950 . S
C1293 C1292 1.397 . S
C1293 C1294 1.334 1_545 S
C1294 H1265 0.950 . S
C1294 C1293 1.334 1_565 S
C1294 C1295 1.287 . S
C1295 C1294 1.287 . S
C1295 C1296 1.524 . S
C1295 H1298 0.999 . S
C1296 H1266 0.950 . S
C1296 C1295 1.524 . S
C1296 C1297 1.415 . S
C1297 H1267 0.950 . S
C1297 C1292 1.363 1_565 S
C1297 C1296 1.415 . S
H1298 C1295 0.999 . S
H1299 C1280 0.913 . S
H1300 C1318 0.951 . S
H1301 C1320 0.951 . S
H1302 C1322 0.950 . S
H1303 C1323 0.950 . S
H1304 C1325 0.950 . S
H1305 C1328 0.950 . S
H1306 C1329 0.950 . S
H1307 C1331 0.950 . S
H1308 C1332 0.950 . S
H1309 C1333 0.951 . S
H1310 C1335 0.951 . S
H1311 C1337 0.950 . S
H1312 C1338 0.950 . S
H1313 C1340 0.950 . S
H1314 C1343 0.950 . S
H1315 C1344 0.950 . S
H1316 C1346 0.950 . S
H1317 C1347 0.950 . S
C1318 H1300 0.951 . S
C1318 C1319 1.366 . S
C1318 C1320 1.388 . S
C1319 C1318 1.366 . S
C1319 C1323 1.385 . S
C1320 H1301 0.951 . S
C1320 C1318 1.388 . S
C1320 C1321 1.366 . S
C1321 C1320 1.366 . S
C1321 C1322 1.414 . S
C1321 C1324 1.499 . S
C1322 H1302 0.950 . S
C1322 C1321 1.414 . S
C1322 C1323 1.374 . S
C1323 H1303 0.950 . S
C1323 C1319 1.385 . S
C1323 C1322 1.374 . S
C1324 C1321 1.499 . S
C1324 C1325 1.373 . S
C1324 C1326 1.389 . S
C1325 H1304 0.950 . S
C1325 C1324 1.373 . S
C1325 C1341 1.377 . S
C1326 C1324 1.389 . S
C1326 C1327 1.524 . S
C1326 C1340 1.377 . S
C1327 C1326 1.524 . S
C1327 C1328 1.397 . S
C1327 C1332 1.363 . S
C1328 H1305 0.950 . S
C1328 C1327 1.397 . S
C1328 C1329 1.334 . S
C1329 H1306 0.950 . S
C1329 C1328 1.334 . S
C1329 C1330 1.287 . S
C1330 C1329 1.287 . S
C1330 C1331 1.524 . S
C1330 H1349 0.913 . S
C1331 H1307 0.950 . S
C1331 C1330 1.524 . S
C1331 C1332 1.415 . S
C1332 H1308 0.950 . S
C1332 C1327 1.363 . S
C1332 C1331 1.415 . S
C1333 H1309 0.951 . S
C1333 C1334 1.366 . S
C1333 C1335 1.388 . S
C1334 C1333 1.366 . S
C1334 C1338 1.385 . S
C1335 H1310 0.951 . S
C1335 C1333 1.388 . S
C1335 C1336 1.366 . S
C1336 C1335 1.366 . S
C1336 C1337 1.414 . S
C1336 C1339 1.499 . S
C1337 H1311 0.950 . S
C1337 C1336 1.414 . S
C1337 C1338 1.374 . S
C1338 H1312 0.950 . S
C1338 C1334 1.385 . S
C1338 C1337 1.374 . S
C1339 C1336 1.499 . S
C1339 C1340 1.373 . S
C1339 C1341 1.389 . S
C1340 H1313 0.950 . S
C1340 C1326 1.377 . S
C1340 C1339 1.373 . S
C1341 C1325 1.377 . S
C1341 C1339 1.389 . S
C1341 C1342 1.524 . S
C1342 C1341 1.524 . S
C1342 C1343 1.397 . S
C1342 C1347 1.363 . S
C1343 H1314 0.950 . S
C1343 C1342 1.397 . S
C1343 C1344 1.334 . S
C1344 H1315 0.950 . S
C1344 C1343 1.334 . S
C1344 C1345 1.287 . S
C1345 C1344 1.287 . S
C1345 C1346 1.524 . S
C1345 H1348 0.999 . S
C1346 H1316 0.950 . S
C1346 C1345 1.524 . S
C1346 C1347 1.415 . S
C1347 H1317 0.950 . S
C1347 C1342 1.363 . S
C1347 C1346 1.415 . S
H1348 C1345 0.999 . S
H1349 C1330 0.913 . S
H1350 C1368 0.951 . S
H1351 C1370 0.951 . S
H1352 C1372 0.950 . S
H1353 C1373 0.950 . S
H1354 C1375 0.950 . S
H1355 C1378 0.950 . S
H1356 C1379 0.950 . S
H1357 C1381 0.950 . S
H1358 C1382 0.950 . S
H1359 C1383 0.951 . S
H1360 C1385 0.951 . S
H1361 C1387 0.950 . S
H1362 C1388 0.950 . S
H1363 C1390 0.950 . S
H1364 C1393 0.950 . S
H1365 C1394 0.950 . S
H1366 C1396 0.950 . S
H1367 C1397 0.950 . S
C1368 H1350 0.951 . S
C1368 C1369 1.366 . S
C1368 C1370 1.388 . S
C1369 C1368 1.366 . S
C1369 C1373 1.385 . S
C1370 H1351 0.951 . S
C1370 C1368 1.388 . S
C1370 C1371 1.366 . S
C1371 C1370 1.366 . S
C1371 C1372 1.414 . S
C1371 C1374 1.499 . S
C1372 H1352 0.950 . S
C1372 C1371 1.414 . S
C1372 C1373 1.374 . S
C1373 H1353 0.950 . S
C1373 C1369 1.385 . S
C1373 C1372 1.374 . S
C1374 C1371 1.499 . S
C1374 C1375 1.373 . S
C1374 C1376 1.389 . S
C1375 H1354 0.950 . S
C1375 C1374 1.373 . S
C1375 C1391 1.377 . S
C1376 C1374 1.389 . S
C1376 C1377 1.524 . S
C1376 C1390 1.377 . S
C1377 C1376 1.524 . S
C1377 C1378 1.397 . S
C1377 C1382 1.363 . S
C1378 H1355 0.950 . S
C1378 C1377 1.397 . S
C1378 C1379 1.334 1_455 S
C1379 H1356 0.950 . S
C1379 C1378 1.334 1_655 S
C1379 C1380 1.287 . S
C1380 C1379 1.287 . S
C1380 C1381 1.524 1_655 S
C1380 H1399 0.913 . S
C1381 H1357 0.950 . S
C1381 C1380 1.524 1_455 S
C1381 C1382 1.415 . S
C1382 H1358 0.950 . S
C1382 C1377 1.363 . S
C1382 C1381 1.415 . S
C1383 H1359 0.951 . S
C1383 C1384 1.366 . S
C1383 C1385 1.388 . S
C1384 C1383 1.366 . S
C1384 C1388 1.385 . S
C1385 H1360 0.951 . S
C1385 C1383 1.388 . S
C1385 C1386 1.366 . S
C1386 C1385 1.366 . S
C1386 C1387 1.414 . S
C1386 C1389 1.499 . S
C1387 H1361 0.950 . S
C1387 C1386 1.414 . S
C1387 C1388 1.374 . S
C1388 H1362 0.950 . S
C1388 C1384 1.385 . S
C1388 C1387 1.374 . S
C1389 C1386 1.499 . S
C1389 C1390 1.373 . S
C1389 C1391 1.389 . S
C1390 H1363 0.950 . S
C1390 C1376 1.377 . S
C1390 C1389 1.373 . S
C1391 C1375 1.377 . S
C1391 C1389 1.389 . S
C1391 C1392 1.524 . S
C1392 C1391 1.524 . S
C1392 C1393 1.397 . S
C1392 C1397 1.363 . S
C1393 H1364 0.950 . S
C1393 C1392 1.397 . S
C1393 C1394 1.334 . S
C1394 H1365 0.950 . S
C1394 C1393 1.334 . S
C1394 C1395 1.287 . S
C1395 C1394 1.287 . S
C1395 C1396 1.524 . S
C1395 H1398 0.999 . S
C1396 H1366 0.950 . S
C1396 C1395 1.524 . S
C1396 C1397 1.415 . S
C1397 H1367 0.950 . S
C1397 C1392 1.363 . S
C1397 C1396 1.415 . S
H1398 C1395 0.999 . S
H1399 C1380 0.913 . S
H1400 C1418 0.951 . S
H1401 C1420 0.951 . S
H1402 C1422 0.950 . S
H1403 C1423 0.950 . S
H1404 C1425 0.950 . S
H1405 C1428 0.950 . S
H1406 C1429 0.950 . S
H1407 C1431 0.950 . S
H1408 C1432 0.950 . S
H1409 C1433 0.951 1_545 S
H1410 C1435 0.951 . S
H1411 C1437 0.950 . S
H1412 C1438 0.950 . S
H1413 C1440 0.950 . S
H1414 C1443 0.950 . S
H1415 C1444 0.947 1_565 S
H1416 C1446 0.950 . S
H1417 C1447 0.950 . S
C1418 H1400 0.951 . S
C1418 C1419 1.366 . S
C1418 C1420 1.388 . S
C1419 C1418 1.366 . S
C1419 C1423 1.385 . S
C1420 H1401 0.951 . S
C1420 C1418 1.388 . S
C1420 C1421 1.366 . S
C1421 C1420 1.366 . S
C1421 C1422 1.414 . S
C1421 C1424 1.499 . S
C1422 H1402 0.950 . S
C1422 C1421 1.414 . S
C1422 C1423 1.374 . S
C1423 H1403 0.950 . S
C1423 C1419 1.385 . S
C1423 C1422 1.374 . S
C1424 C1421 1.499 . S
C1424 C1425 1.373 . S
C1424 C1426 1.389 . S
C1425 H1404 0.950 . S
C1425 C1424 1.373 . S
C1425 C1441 1.377 . S
C1426 C1424 1.389 . S
C1426 C1427 1.524 . S
C1426 C1440 1.377 . S
C1427 C1426 1.524 . S
C1427 C1428 1.397 . S
C1427 C1432 1.363 . S
C1428 H1405 0.950 . S
C1428 C1427 1.397 . S
C1428 C1429 1.334 . S
C1429 H1406 0.950 . S
C1429 C1428 1.334 . S
C1429 C1430 1.287 . S
C1430 C1429 1.287 . S
C1430 C1431 1.524 . S
C1430 H1449 0.913 . S
C1431 H1407 0.950 . S
C1431 C1430 1.524 . S
C1431 C1432 1.415 . S
C1432 H1408 0.950 . S
C1432 C1427 1.363 . S
C1432 C1431 1.415 . S
C1433 H1409 0.951 1_565 S
C1433 C1434 1.366 . S
C1433 C1435 1.388 . S
C1434 C1433 1.366 . S
C1434 C1438 1.385 . S
C1435 H1410 0.951 . S
C1435 C1433 1.388 . S
C1435 C1436 1.366 . S
C1436 C1435 1.366 . S
C1436 C1437 1.414 . S
C1436 C1439 1.499 . S
C1437 H1411 0.950 . S
C1437 C1436 1.414 . S
C1437 C1438 1.374 . S
C1438 H1412 0.950 . S
C1438 C1434 1.385 . S
C1438 C1437 1.374 . S
C1439 C1436 1.499 . S
C1439 C1440 1.373 . S
C1439 C1441 1.389 . S
C1440 H1413 0.950 . S
C1440 C1426 1.377 . S
C1440 C1439 1.373 . S
C1441 C1425 1.377 . S
C1441 C1439 1.389 . S
C1441 C1442 1.524 . S
C1442 C1441 1.524 . S
C1442 C1443 1.397 1_556 S
C1442 C1447 1.363 1_565 S
C1443 H1414 0.950 . S
C1443 C1442 1.397 1_554 S
C1443 C1444 1.334 1_565 S
C1444 H1415 0.947 1_545 S
C1444 C1443 1.334 1_545 S
C1444 C1445 1.287 . S
C1445 C1444 1.287 . S
C1445 C1446 1.524 1_554 S
C1445 H1448 0.999 . S
C1446 H1416 0.950 . S
C1446 C1445 1.524 1_556 S
C1446 C1447 1.415 . S
C1447 H1417 0.950 . S
C1447 C1442 1.363 1_545 S
C1447 C1446 1.415 . S
H1448 C1445 0.999 . S
H1449 C1430 0.913 . S
H1450 C1468 0.951 . S
H1451 C1470 0.951 . S
H1452 C1472 0.950 . S
H1453 C1473 0.950 . S
H1454 C1475 0.950 . S
H1455 C1478 0.950 . S
H1456 C1479 0.950 . S
H1457 C1481 0.969 . S
H1458 C1482 0.950 . S
H1459 C1483 0.951 . S
H1460 C1485 0.951 . S
H1461 C1487 0.950 . S
H1462 C1488 0.950 . S
H1463 C1490 0.950 . S
H1464 C1493 0.950 . S
H1465 C1494 0.950 . S
H1466 C1496 0.950 . S
H1467 C1497 0.950 . S
C1468 H1450 0.951 . S
C1468 C1469 1.366 . S
C1468 C1470 1.388 . S
C1469 C1468 1.366 . S
C1469 C1473 1.385 . S
C1470 H1451 0.951 . S
C1470 C1468 1.388 . S
C1470 C1471 1.366 . S
C1471 C1470 1.366 . S
C1471 C1472 1.414 . S
C1471 C1474 1.499 . S
C1472 H1452 0.950 . S
C1472 C1471 1.414 . S
C1472 C1473 1.374 . S
C1473 H1453 0.950 . S
C1473 C1469 1.385 . S
C1473 C1472 1.374 . S
C1474 C1471 1.499 . S
C1474 C1475 1.373 . S
C1474 C1476 1.389 . S
C1475 H1454 0.950 . S
C1475 C1474 1.373 . S
C1475 C1491 1.377 . S
C1476 C1474 1.389 . S
C1476 C1477 1.524 . S
C1476 C1490 1.377 . S
C1477 C1476 1.524 . S
C1477 C1478 1.397 . S
C1477 C1482 1.363 . S
C1478 H1455 0.950 . S
C1478 C1477 1.397 . S
C1478 C1479 1.334 . S
C1479 H1456 0.950 . S
C1479 C1478 1.334 . S
C1479 C1480 1.287 . S
C1480 C1479 1.287 . S
C1480 C1481 1.524 . S
C1480 H1499 0.913 . S
C1481 H1457 0.969 . S
C1481 C1480 1.524 . S
C1481 C1482 1.415 . S
C1482 H1458 0.950 . S
C1482 C1477 1.363 . S
C1482 C1481 1.415 . S
C1483 H1459 0.951 . S
C1483 C1484 1.366 . S
C1483 C1485 1.388 . S
C1484 C1483 1.366 . S
C1484 C1488 1.385 . S
C1485 H1460 0.951 . S
C1485 C1483 1.388 . S
C1485 C1486 1.366 . S
C1486 C1485 1.366 . S
C1486 C1487 1.414 . S
C1486 C1489 1.499 . S
C1487 H1461 0.950 . S
C1487 C1486 1.414 . S
C1487 C1488 1.374 . S
C1488 H1462 0.950 . S
C1488 C1484 1.385 . S
C1488 C1487 1.374 . S
C1489 C1486 1.499 . S
C1489 C1490 1.373 . S
C1489 C1491 1.389 . S
C1490 H1463 0.950 . S
C1490 C1476 1.377 . S
C1490 C1489 1.373 . S
C1491 C1475 1.377 . S
C1491 C1489 1.389 . S
C1491 C1492 1.524 . S
C1492 C1491 1.524 . S
C1492 C1493 1.397 . S
C1492 C1497 1.363 . S
C1493 H1464 0.950 . S
C1493 C1492 1.397 . S
C1493 C1494 1.334 . S
C1494 H1465 0.950 . S
C1494 C1493 1.334 . S
C1494 C1495 1.287 . S
C1495 C1494 1.287 . S
C1495 C1496 1.524 . S
C1495 H1498 0.999 . S
C1496 H1466 0.950 . S
C1496 C1495 1.524 . S
C1496 C1497 1.415 . S
C1497 H1467 0.950 . S
C1497 C1492 1.363 . S
C1497 C1496 1.415 . S
H1498 C1495 0.999 . S
H1499 C1480 0.913 . S
H1500 C1518 0.951 . S
H1501 C1520 0.951 . S
H1502 C1522 0.950 . S
H1503 C1523 0.950 . S
H1504 C1525 0.950 . S
H1505 C1528 0.950 . S
H1506 C1529 0.950 . S
H1507 C1531 0.950 . S
H1508 C1532 0.950 . S
H1509 C1533 0.951 . S
H1510 C1535 0.951 . S
H1511 C1537 0.950 . S
H1512 C1538 0.950 1_556 S
H1513 C1540 0.950 . S
H1514 C1543 0.950 . S
H1515 C1544 0.950 . S
H1516 C1546 0.950 . S
H1517 C1547 0.950 . S
C1518 H1500 0.951 . S
C1518 C1519 1.366 . S
C1518 C1520 1.388 . S
C1519 C1518 1.366 . S
C1519 C1523 1.385 . S
C1520 H1501 0.951 . S
C1520 C1518 1.388 . S
C1520 C1521 1.366 . S
C1521 C1520 1.366 . S
C1521 C1522 1.414 . S
C1521 C1524 1.499 . S
C1522 H1502 0.950 . S
C1522 C1521 1.414 . S
C1522 C1523 1.374 . S
C1523 H1503 0.950 . S
C1523 C1519 1.385 . S
C1523 C1522 1.374 . S
C1524 C1521 1.499 . S
C1524 C1525 1.373 . S
C1524 C1526 1.389 . S
C1525 H1504 0.950 . S
C1525 C1524 1.373 . S
C1525 C1541 1.377 . S
C1526 C1524 1.389 . S
C1526 C1527 1.524 . S
C1526 C1540 1.377 . S
C1527 C1526 1.524 . S
C1527 C1528 1.397 . S
C1527 C1532 1.363 . S
C1528 H1505 0.950 . S
C1528 C1527 1.397 . S
C1528 C1529 1.334 . S
C1529 H1506 0.950 . S
C1529 C1528 1.334 . S
C1529 C1530 1.287 . S
C1530 C1529 1.287 . S
C1530 C1531 1.524 . S
C1530 H1549 0.913 . S
C1531 H1507 0.950 . S
C1531 C1530 1.524 . S
C1531 C1532 1.415 . S
C1532 H1508 0.950 . S
C1532 C1527 1.363 . S
C1532 C1531 1.415 . S
C1533 H1509 0.951 . S
C1533 C1534 1.366 . S
C1533 C1535 1.388 . S
C1534 C1533 1.366 . S
C1534 C1538 1.385 . S
C1535 H1510 0.951 . S
C1535 C1533 1.388 . S
C1535 C1536 1.366 . S
C1536 C1535 1.366 . S
C1536 C1537 1.414 . S
C1536 C1539 1.499 . S
C1537 H1511 0.950 . S
C1537 C1536 1.414 . S
C1537 C1538 1.374 . S
C1538 H1512 0.950 1_554 S
C1538 C1534 1.385 . S
C1538 C1537 1.374 . S
C1539 C1536 1.499 . S
C1539 C1540 1.373 . S
C1539 C1541 1.389 . S
C1540 H1513 0.950 . S
C1540 C1526 1.377 . S
C1540 C1539 1.373 . S
C1541 C1525 1.377 . S
C1541 C1539 1.389 . S
C1541 C1542 1.524 . S
C1542 C1541 1.524 . S
C1542 C1543 1.397 . S
C1542 C1547 1.363 . S
C1543 H1514 0.950 . S
C1543 C1542 1.397 . S
C1543 C1544 1.334 . S
C1544 H1515 0.950 . S
C1544 C1543 1.334 . S
C1544 C1545 1.287 . S
C1545 C1544 1.287 . S
C1545 C1546 1.524 . S
C1545 H1548 0.999 . S
C1546 H1516 0.950 . S
C1546 C1545 1.524 . S
C1546 C1547 1.415 . S
C1547 H1517 0.950 . S
C1547 C1542 1.363 . S
C1547 C1546 1.415 . S
H1548 C1545 0.999 . S
H1549 C1530 0.913 . S
H1550 C1568 0.951 . S
H1551 C1570 0.951 . S
H1552 C1572 0.950 . S
H1553 C1573 0.950 . S
H1554 C1575 0.950 . S
H1555 C1578 0.950 . S
H1556 C1579 0.950 . S
H1557 C1581 0.950 . S
H1558 C1582 0.950 . S
H1559 C1583 0.951 . S
H1560 C1585 0.951 . S
H1561 C1587 0.950 . S
H1562 C1588 0.950 . S
H1563 C1590 0.950 . S
H1564 C1593 0.950 . S
H1565 C1594 0.950 . S
H1566 C1596 0.950 . S
H1567 C1597 0.950 . S
C1568 H1550 0.951 . S
C1568 C1569 1.366 . S
C1568 C1570 1.388 . S
C1569 C1568 1.366 . S
C1569 C1573 1.385 . S
C1570 H1551 0.951 . S
C1570 C1568 1.388 . S
C1570 C1571 1.366 . S
C1571 C1570 1.366 . S
C1571 C1572 1.414 . S
C1571 C1574 1.499 . S
C1572 H1552 0.950 . S
C1572 C1571 1.414 . S
C1572 C1573 1.374 . S
C1573 H1553 0.950 . S
C1573 C1569 1.385 . S
C1573 C1572 1.374 . S
C1574 C1571 1.499 . S
C1574 C1575 1.373 . S
C1574 C1576 1.389 . S
C1575 H1554 0.950 . S
C1575 C1574 1.373 . S
C1575 C1591 1.377 . S
C1576 C1574 1.389 . S
C1576 C1577 1.524 . S
C1576 C1590 1.377 . S
C1577 C1576 1.524 . S
C1577 C1578 1.397 . S
C1577 C1582 1.363 . S
C1578 H1555 0.950 . S
C1578 C1577 1.397 . S
C1578 C1579 1.334 . S
C1579 H1556 0.950 . S
C1579 C1578 1.334 . S
C1579 C1580 1.287 . S
C1580 C1579 1.287 . S
C1580 C1581 1.524 . S
C1580 H1599 0.913 . S
C1581 H1557 0.950 . S
C1581 C1580 1.524 . S
C1581 C1582 1.415 . S
C1582 H1558 0.950 . S
C1582 C1577 1.363 . S
C1582 C1581 1.415 . S
C1583 H1559 0.951 . S
C1583 C1584 1.366 . S
C1583 C1585 1.388 . S
C1584 C1583 1.366 . S
C1584 C1588 1.385 . S
C1585 H1560 0.951 . S
C1585 C1583 1.388 . S
C1585 C1586 1.366 . S
C1586 C1585 1.366 . S
C1586 C1587 1.414 . S
C1586 C1589 1.499 . S
C1587 H1561 0.950 . S
C1587 C1586 1.414 . S
C1587 C1588 1.374 . S
C1588 H1562 0.950 . S
C1588 C1584 1.385 . S
C1588 C1587 1.374 . S
C1589 C1586 1.499 . S
C1589 C1590 1.373 . S
C1589 C1591 1.389 . S
C1590 H1563 0.950 . S
C1590 C1576 1.377 . S
C1590 C1589 1.373 . S
C1591 C1575 1.377 . S
C1591 C1589 1.389 . S
C1591 C1592 1.524 . S
C1592 C1591 1.524 . S
C1592 C1593 1.397 . S
C1592 C1597 1.363 . S
C1593 H1564 0.950 . S
C1593 C1592 1.397 . S
C1593 C1594 1.334 . S
C1594 H1565 0.950 . S
C1594 C1593 1.334 . S
C1594 C1595 1.287 . S
C1595 C1594 1.287 . S
C1595 C1596 1.524 . S
C1595 H1598 0.999 . S
C1596 H1566 0.950 . S
C1596 C1595 1.524 . S
C1596 C1597 1.415 . S
C1597 H1567 0.950 . S
C1597 C1592 1.363 . S
C1597 C1596 1.415 . S
H1598 C1595 0.999 . S
H1599 C1580 0.913 . S
H1600 C1618 0.951 . S
H1601 C1620 0.951 . S
H1602 C1622 0.950 . S
H1603 C1623 0.950 . S
H1604 C1625 0.950 . S
H1605 C1628 0.950 . S
H1606 C1629 0.950 . S
H1607 C1631 0.950 . S
H1608 C1632 0.950 . S
H1609 C1633 0.951 . S
H1610 C1635 0.951 . S
H1611 C1637 0.950 . S
H1612 C1638 0.950 1_455 S
H1613 C1640 0.950 . S
H1614 C1643 0.950 1_554 S
H1615 C1644 0.950 . S
H1616 C1646 0.950 . S
H1617 C1647 0.950 . S
C1618 H1600 0.951 . S
C1618 C1619 1.366 . S
C1618 C1620 1.388 . S
C1619 C1618 1.366 . S
C1619 C1623 1.385 . S
C1620 H1601 0.951 . S
C1620 C1618 1.388 . S
C1620 C1621 1.366 . S
C1621 C1620 1.366 . S
C1621 C1622 1.414 . S
C1621 C1624 1.499 . S
C1622 H1602 0.950 . S
C1622 C1621 1.414 . S
C1622 C1623 1.374 . S
C1623 H1603 0.950 . S
C1623 C1619 1.385 . S
C1623 C1622 1.374 . S
C1624 C1621 1.499 . S
C1624 C1625 1.373 . S
C1624 C1626 1.389 . S
C1625 H1604 0.950 . S
C1625 C1624 1.373 . S
C1625 C1641 1.377 . S
C1626 C1624 1.389 . S
C1626 C1627 1.524 . S
C1626 C1640 1.377 . S
C1627 C1626 1.524 . S
C1627 C1628 1.397 . S
C1627 C1632 1.363 1_655 S
C1628 H1605 0.950 . S
C1628 C1627 1.397 . S
C1628 C1629 1.334 . S
C1629 H1606 0.950 . S
C1629 C1628 1.334 . S
C1629 C1630 1.287 1_655 S
C1630 C1629 1.287 1_455 S
C1630 C1631 1.524 . S
C1630 H1649 0.913 . S
C1631 H1607 0.950 . S
C1631 C1630 1.524 . S
C1631 C1632 1.415 . S
C1632 H1608 0.950 . S
C1632 C1627 1.363 1_455 S
C1632 C1631 1.415 . S
C1633 H1609 0.951 . S
C1633 C1634 1.366 . S
C1633 C1635 1.388 . S
C1634 C1633 1.366 . S
C1634 C1638 1.385 . S
C1635 H1610 0.951 . S
C1635 C1633 1.388 . S
C1635 C1636 1.366 . S
C1636 C1635 1.366 . S
C1636 C1637 1.414 . S
C1636 C1639 1.499 . S
C1637 H1611 0.950 . S
C1637 C1636 1.414 . S
C1637 C1638 1.374 . S
C1638 H1612 0.950 1_655 S
C1638 C1634 1.385 . S
C1638 C1637 1.374 . S
C1639 C1636 1.499 . S
C1639 C1640 1.373 . S
C1639 C1641 1.389 . S
C1640 H1613 0.950 . S
C1640 C1626 1.377 . S
C1640 C1639 1.373 . S
C1641 C1625 1.377 . S
C1641 C1639 1.389 . S
C1641 C1642 1.524 . S
C1642 C1641 1.524 . S
C1642 C1643 1.397 . S
C1642 C1647 1.363 . S
C1643 H1614 0.950 1_556 S
C1643 C1642 1.397 . S
C1643 C1644 1.334 1_556 S
C1644 H1615 0.950 . S
C1644 C1643 1.334 1_554 S
C1644 C1645 1.309 . S
C1645 C1644 1.309 . S
C1645 C1646 1.478 1_554 S
C1645 H1648 1.022 . S
C1646 H1616 0.950 . S
C1646 C1645 1.478 1_556 S
C1646 C1647 1.415 . S
C1647 H1617 0.950 . S
C1647 C1642 1.363 . S
C1647 C1646 1.415 . S
H1648 C1645 1.022 . S
H1649 C1630 0.913 . S
H1650 C1668 0.951 . S
H1651 C1670 0.951 . S
H1652 C1672 0.950 . S
H1653 C1673 0.950 . S
H1654 C1675 0.950 . S
H1655 C1678 0.950 . S
H1656 C1679 0.950 1_556 S
H1657 C1681 0.950 . S
H1658 C1682 0.950 . S
H1659 C1683 0.951 . S
H1660 C1685 0.951 . S
H1661 C1687 0.950 . S
H1662 C1688 0.950 . S
H1663 C1690 0.950 . S
H1664 C1693 0.950 . S
H1665 C1694 0.950 . S
H1666 C1696 0.950 . S
H1667 C1697 0.950 . S
C1668 H1650 0.951 . S
C1668 C1669 1.366 . S
C1668 C1670 1.388 . S
C1669 C1668 1.366 . S
C1669 C1673 1.385 . S
C1670 H1651 0.951 . S
C1670 C1668 1.388 . S
C1670 C1671 1.366 . S
C1671 C1670 1.366 . S
C1671 C1672 1.414 . S
C1671 C1674 1.499 . S
C1672 H1652 0.950 . S
C1672 C1671 1.414 . S
C1672 C1673 1.374 . S
C1673 H1653 0.950 . S
C1673 C1669 1.385 . S
C1673 C1672 1.374 . S
C1674 C1671 1.499 . S
C1674 C1675 1.373 . S
C1674 C1676 1.389 . S
C1675 H1654 0.950 . S
C1675 C1674 1.373 . S
C1675 C1691 1.377 . S
C1676 C1674 1.389 . S
C1676 C1677 1.524 . S
C1676 C1690 1.377 . S
C1677 C1676 1.524 . S
C1677 C1678 1.397 . S
C1677 C1682 1.363 . S
C1678 H1655 0.950 . S
C1678 C1677 1.397 . S
C1678 C1679 1.334 . S
C1679 H1656 0.950 1_554 S
C1679 C1678 1.334 . S
C1679 C1680 1.287 . S
C1680 C1679 1.287 . S
C1680 C1681 1.524 . S
C1680 H1699 0.913 1_554 S
C1681 H1657 0.950 . S
C1681 C1680 1.524 . S
C1681 C1682 1.415 . S
C1682 H1658 0.950 . S
C1682 C1677 1.363 . S
C1682 C1681 1.415 . S
C1683 H1659 0.951 . S
C1683 C1684 1.366 . S
C1683 C1685 1.388 . S
C1684 C1683 1.366 . S
C1684 C1688 1.385 . S
C1685 H1660 0.951 . S
C1685 C1683 1.388 . S
C1685 C1686 1.366 . S
C1686 C1685 1.366 . S
C1686 C1687 1.414 . S
C1686 C1689 1.499 . S
C1687 H1661 0.950 . S
C1687 C1686 1.414 . S
C1687 C1688 1.374 . S
C1688 H1662 0.950 . S
C1688 C1684 1.385 . S
C1688 C1687 1.374 . S
C1689 C1686 1.499 . S
C1689 C1690 1.373 . S
C1689 C1691 1.389 . S
C1690 H1663 0.950 . S
C1690 C1676 1.377 . S
C1690 C1689 1.373 . S
C1691 C1675 1.377 . S
C1691 C1689 1.389 . S
C1691 C1692 1.524 . S
C1692 C1691 1.524 . S
C1692 C1693 1.397 . S
C1692 C1697 1.363 . S
C1693 H1664 0.950 . S
C1693 C1692 1.397 . S
C1693 C1694 1.334 . S
C1694 H1665 0.950 . S
C1694 C1693 1.334 . S
C1694 C1695 1.287 . S
C1695 C1694 1.287 . S
C1695 C1696 1.524 . S
C1695 H1698 0.999 . S
C1696 H1666 0.950 . S
C1696 C1695 1.524 . S
C1696 C1697 1.415 . S
C1697 H1667 0.950 . S
C1697 C1692 1.363 . S
C1697 C1696 1.415 . S
H1698 C1695 0.999 . S
H1699 C1680 0.913 1_556 S
H1700 C1718 0.951 . S
H1701 C1720 0.951 . S
H1702 C1722 0.950 . S
H1703 C1723 0.950 . S
H1704 C1725 0.950 . S
H1705 C1728 0.950 . S
H1706 C1729 0.950 . S
H1707 C1731 0.950 . S
H1708 C1732 0.950 . S
H1709 C1733 0.951 . S
H1710 C1735 0.951 . S
H1711 C1737 0.950 . S
H1712 C1738 0.950 . S
H1713 C1740 0.950 . S
H1714 C1743 0.950 . S
H1715 C1744 0.950 . S
H1716 C1746 0.950 . S
H1717 C1747 0.950 . S
C1718 H1700 0.951 . S
C1718 C1719 1.366 . S
C1718 C1720 1.388 . S
C1719 C1718 1.366 . S
C1719 C1723 1.385 . S
C1720 H1701 0.951 . S
C1720 C1718 1.388 . S
C1720 C1721 1.366 . S
C1721 C1720 1.366 . S
C1721 C1722 1.414 . S
C1721 C1724 1.499 . S
C1722 H1702 0.950 . S
C1722 C1721 1.414 . S
C1722 C1723 1.374 . S
C1723 H1703 0.950 . S
C1723 C1719 1.385 . S
C1723 C1722 1.374 . S
C1724 C1721 1.499 . S
C1724 C1725 1.373 . S
C1724 C1726 1.389 . S
C1725 H1704 0.950 . S
C1725 C1724 1.373 . S
C1725 C1741 1.377 . S
C1726 C1724 1.389 . S
C1726 C1727 1.524 . S
C1726 C1740 1.377 . S
C1727 C1726 1.524 . S
C1727 C1728 1.397 . S
C1727 C1732 1.363 . S
C1728 H1705 0.950 . S
C1728 C1727 1.397 . S
C1728 C1729 1.334 . S
C1729 H1706 0.950 . S
C1729 C1728 1.334 . S
C1729 C1730 1.287 . S
C1730 C1729 1.287 . S
C1730 C1731 1.524 . S
C1730 H1749 0.913 . S
C1731 H1707 0.950 . S
C1731 C1730 1.524 . S
C1731 C1732 1.415 . S
C1732 H1708 0.950 . S
C1732 C1727 1.363 . S
C1732 C1731 1.415 . S
C1733 H1709 0.951 . S
C1733 C1734 1.366 . S
C1733 C1735 1.388 . S
C1734 C1733 1.366 . S
C1734 C1738 1.385 . S
C1735 H1710 0.951 . S
C1735 C1733 1.388 . S
C1735 C1736 1.366 . S
C1736 C1735 1.366 . S
C1736 C1737 1.414 . S
C1736 C1739 1.499 . S
C1737 H1711 0.950 . S
C1737 C1736 1.414 . S
C1737 C1738 1.374 . S
C1738 H1712 0.950 . S
C1738 C1734 1.385 . S
C1738 C1737 1.374 . S
C1739 C1736 1.499 . S
C1739 C1740 1.373 . S
C1739 C1741 1.389 . S
C1740 H1713 0.950 . S
C1740 C1726 1.377 . S
C1740 C1739 1.373 . S
C1741 C1725 1.377 . S
C1741 C1739 1.389 . S
C1741 C1742 1.524 . S
C1742 C1741 1.524 . S
C1742 C1743 1.397 1_455 S
C1742 C1747 1.363 . S
C1743 H1714 0.950 . S
C1743 C1742 1.397 1_655 S
C1743 C1744 1.334 . S
C1744 H1715 0.950 . S
C1744 C1743 1.334 . S
C1744 C1745 1.287 . S
C1745 C1744 1.287 . S
C1745 C1746 1.524 . S
C1745 H1748 0.999 . S
C1746 H1716 0.950 . S
C1746 C1745 1.524 . S
C1746 C1747 1.415 1_655 S
C1747 H1717 0.950 . S
C1747 C1742 1.363 . S
C1747 C1746 1.415 1_455 S
H1748 C1745 0.999 . S
H1749 C1730 0.913 . S
H1750 C1768 0.951 . S
H1751 C1770 0.951 . S
H1752 C1772 0.950 . S
H1753 C1773 0.950 . S
H1754 C1775 0.950 . S
H1755 C1778 0.950 . S
H1756 C1779 0.950 . S
H1757 C1781 0.950 . S
H1758 C1782 0.950 . S
H1759 C1783 0.951 . S
H1760 C1785 0.951 . S
H1761 C1787 0.950 . S
H1762 C1788 0.950 . S
H1763 C1790 0.950 . S
H1764 C1793 0.950 . S
H1765 C1794 0.950 . S
H1766 C1796 0.950 . S
H1767 C1797 0.950 . S
C1768 H1750 0.951 . S
C1768 C1769 1.366 . S
C1768 C1770 1.388 . S
C1769 C1768 1.366 . S
C1769 C1773 1.385 . S
C1770 H1751 0.951 . S
C1770 C1768 1.388 . S
C1770 C1771 1.366 . S
C1771 C1770 1.366 . S
C1771 C1772 1.414 . S
C1771 C1774 1.499 . S
C1772 H1752 0.950 . S
C1772 C1771 1.414 . S
C1772 C1773 1.374 . S
C1773 H1753 0.950 . S
C1773 C1769 1.385 . S
C1773 C1772 1.374 . S
C1774 C1771 1.499 . S
C1774 C1775 1.373 . S
C1774 C1776 1.389 . S
C1775 H1754 0.950 . S
C1775 C1774 1.373 . S
C1775 C1791 1.377 . S
C1776 C1774 1.389 . S
C1776 C1777 1.524 . S
C1776 C1790 1.377 . S
C1777 C1776 1.524 . S
C1777 C1778 1.397 . S
C1777 C1782 1.363 . S
C1778 H1755 0.950 . S
C1778 C1777 1.397 . S
C1778 C1779 1.334 . S
C1779 H1756 0.950 . S
C1779 C1778 1.334 . S
C1779 C1780 1.287 . S
C1780 C1779 1.287 . S
C1780 C1781 1.524 . S
C1780 H1799 0.913 . S
C1781 H1757 0.950 . S
C1781 C1780 1.524 . S
C1781 C1782 1.415 . S
C1782 H1758 0.950 . S
C1782 C1777 1.363 . S
C1782 C1781 1.415 . S
C1783 H1759 0.951 . S
C1783 C1784 1.366 . S
C1783 C1785 1.388 . S
C1784 C1783 1.366 . S
C1784 C1788 1.385 . S
C1785 H1760 0.951 . S
C1785 C1783 1.388 . S
C1785 C1786 1.366 . S
C1786 C1785 1.366 . S
C1786 C1787 1.414 . S
C1786 C1789 1.499 . S
C1787 H1761 0.950 . S
C1787 C1786 1.414 . S
C1787 C1788 1.374 . S
C1788 H1762 0.950 . S
C1788 C1784 1.385 . S
C1788 C1787 1.374 . S
C1789 C1786 1.499 . S
C1789 C1790 1.373 . S
C1789 C1791 1.389 . S
C1790 H1763 0.950 . S
C1790 C1776 1.377 . S
C1790 C1789 1.373 . S
C1791 C1775 1.377 . S
C1791 C1789 1.389 . S
C1791 C1792 1.524 . S
C1792 C1791 1.524 . S
C1792 C1793 1.397 . S
C1792 C1797 1.363 . S
C1793 H1764 0.950 . S
C1793 C1792 1.397 . S
C1793 C1794 1.334 . S
C1794 H1765 0.950 . S
C1794 C1793 1.334 . S
C1794 C1795 1.287 . S
C1795 C1794 1.287 . S
C1795 C1796 1.524 . S
C1795 H1798 0.999 . S
C1796 H1766 0.950 . S
C1796 C1795 1.524 . S
C1796 C1797 1.415 . S
C1797 H1767 0.950 . S
C1797 C1792 1.363 . S
C1797 C1796 1.415 . S
H1798 C1795 0.999 . S
H1799 C1780 0.913 . S
C619 C1 2.155 . S
C634 C496 2.185 . S
C669 C80 1.075 . S
C684 N516 1.079 . S
C734 C550 1.984 . S
C719 C140 1.928 . S
C769 C211 1.294 . S
C784 N584 1.273 . S
C834 C537 2.375 . S
C819 C31 2.353 . S
C884 N494 1.168 . S
C869 C61 1.163 . S
C934 C571 1.966 . S
C919 C151 1.899 . S
C984 N546 1.009 . S
C969 C200 0.990 . S
C1019 C20 1.841 . S
C1034 C586 1.856 . S
C1084 C520 1.707 . S
C1069 C121 1.642 . S
C1119 C181 1.418 . S
C1134 C481 1.486 . S
C1169 C91 1.413 . S
C1184 C567 1.468 . S
C1234 C507 2.186 . S
C1219 C260 2.171 . S
C1269 C320 1.076 . S
C1284 N524 1.077 . S
C1319 C361 1.970 . S
C1334 C541 1.984 . S
C1369 C451 1.295 . S
C1384 N576 1.272 . S
C1419 C271 2.354 . S
C1434 C526 2.376 . S
C1484 N486 1.168 . S
C1469 C301 1.162 . S
C1534 C580 1.966 . S
C1519 C380 1.937 . S
C1584 N554 1.009 . S
C1569 C440 0.990 . S
C1619 C241 1.827 . S
C1634 C597 1.857 . S
C1684 C511 1.707 . S
C1669 C391 1.688 . S
C1734 C490 1.483 . S
C1719 C421 1.415 . S
C1769 C331 1.414 . S
C1784 C556 1.468 . S
