# Generated by pormake.
# Topology zzz, (3,6)-cn, num edge types: 1
# Building blocks:
#     Node 0, Type 0, BuildingBlock: PAMTOO_clean_linker_0, # of connection points: 3
#     Node 1, Type 0, BuildingBlock: PAMTOO_clean_linker_0, # of connection points: 3
#     Node 2, Type 0, BuildingBlock: PAMTOO_clean_linker_0, # of connection points: 3
#     Node 3, Type 0, BuildingBlock: PAMTOO_clean_linker_0, # of connection points: 3
#     Node 4, Type 0, BuildingBlock: PAMTOO_clean_linker_0, # of connection points: 3
#     Node 5, Type 0, BuildingBlock: PAMTOO_clean_linker_0, # of connection points: 3
#     Node 6, Type 0, BuildingBlock: PAMTOO_clean_linker_0, # of connection points: 3
#     Node 7, Type 0, BuildingBlock: PAMTOO_clean_linker_0, # of connection points: 3
#     Node 8, Type 1, BuildingBlock: INOVEN_clean_sbu_0, # of connection points: 6
#     Node 9, Type 1, BuildingBlock: INOVEN_clean_sbu_0, # of connection points: 6
#     Node 10, Type 1, BuildingBlock: INOVEN_clean_sbu_0, # of connection points: 6
#     Node 11, Type 1, BuildingBlock: INOVEN_clean_sbu_0, # of connection points: 6
#     Edge 12, Type (0, 1), BuildingBlock: XIVTED_clean_linker_0, # of connection points: 2
#     Edge 13, Type (0, 1), BuildingBlock: XIVTED_clean_linker_0, # of connection points: 2
#     Edge 14, Type (0, 1), BuildingBlock: XIVTED_clean_linker_0, # of connection points: 2
#     Edge 15, Type (0, 1), BuildingBlock: XIVTED_clean_linker_0, # of connection points: 2
#     Edge 16, Type (0, 1), BuildingBlock: XIVTED_clean_linker_0, # of connection points: 2
#     Edge 17, Type (0, 1), BuildingBlock: XIVTED_clean_linker_0, # of connection points: 2
#     Edge 18, Type (0, 1), BuildingBlock: XIVTED_clean_linker_0, # of connection points: 2
#     Edge 19, Type (0, 1), BuildingBlock: XIVTED_clean_linker_0, # of connection points: 2
#     Edge 20, Type (0, 1), BuildingBlock: XIVTED_clean_linker_0, # of connection points: 2
#     Edge 21, Type (0, 1), BuildingBlock: XIVTED_clean_linker_0, # of connection points: 2
#     Edge 22, Type (0, 1), BuildingBlock: XIVTED_clean_linker_0, # of connection points: 2
#     Edge 23, Type (0, 1), BuildingBlock: XIVTED_clean_linker_0, # of connection points: 2
#     Edge 24, Type (0, 1), BuildingBlock: XIVTED_clean_linker_0, # of connection points: 2
#     Edge 25, Type (0, 1), BuildingBlock: XIVTED_clean_linker_0, # of connection points: 2
#     Edge 26, Type (0, 1), BuildingBlock: XIVTED_clean_linker_0, # of connection points: 2
#     Edge 27, Type (0, 1), BuildingBlock: XIVTED_clean_linker_0, # of connection points: 2
#     Edge 28, Type (0, 1), BuildingBlock: XIVTED_clean_linker_0, # of connection points: 2
#     Edge 29, Type (0, 1), BuildingBlock: XIVTED_clean_linker_0, # of connection points: 2
#     Edge 30, Type (0, 1), BuildingBlock: XIVTED_clean_linker_0, # of connection points: 2
#     Edge 31, Type (0, 1), BuildingBlock: XIVTED_clean_linker_0, # of connection points: 2
#     Edge 32, Type (0, 1), BuildingBlock: XIVTED_clean_linker_0, # of connection points: 2
#     Edge 33, Type (0, 1), BuildingBlock: XIVTED_clean_linker_0, # of connection points: 2
#     Edge 34, Type (0, 1), BuildingBlock: XIVTED_clean_linker_0, # of connection points: 2
#     Edge 35, Type (0, 1), BuildingBlock: XIVTED_clean_linker_0, # of connection points: 2
# Relax obj value: 0.260
# Max RMSD: 0.186
# Mean RMSD: 0.159
data_MOF--net-zzz--node1-INOVEN_clean_sbu_0--node2-PAMTOO_clean_linker_0--edge1-XIVTED_clean_linker_0
_symmetry_space_group_name_H-M    P1
_symmetry_Int_Tables_number       1
_symmetry_cell_setting            triclinic
loop_
_symmetry_equiv_pos_as_xyz
'x, y, z'
_cell_length_a     51.885272
_cell_length_b     51.911129
_cell_length_c     13.343632
_cell_angle_alpha  90.429916
_cell_angle_beta   90.062373
_cell_angle_gamma 90.116001
loop_
_atom_site_label
_atom_site_type_symbol
_atom_site_fract_x
_atom_site_fract_y
_atom_site_fract_z
_atom_type_partial_charge
H0 H 0.81076 0.54202 0.40165 0.0
H1 H 0.73397 0.5421 0.28847 0.0
H2 H 0.7474 0.5267 0.60134 0.0
H3 H 0.68856 0.50007 0.48083 0.0
C4 C 0.69779 0.50996 0.41663 0.0
O5 O 0.71086 0.53167 0.45375 0.0
H6 H 0.71164 0.4958 0.38427 0.0
C7 C 0.79018 0.54154 0.41652 0.0
C8 C 0.78165 0.53597 0.51335 0.0
C9 C 0.77318 0.54154 0.33543 0.0
C10 C 0.74679 0.54101 0.35186 0.0
C11 C 0.73696 0.53524 0.44626 0.0
C12 C 0.75457 0.53219 0.5284 0.0
H13 H 0.99421 0.80879 0.40327 0.0
H14 H 1.00217 0.73276 0.28218 0.0
H15 H 1.01578 0.74626 0.59653 0.0
H16 H 0.04185 0.68732 0.48086 0.0
C17 C 0.0333 0.69742 0.41581 0.0
O18 O 1.01077 0.70967 0.44799 0.0
H19 H 0.04778 0.71207 0.39218 0.0
C20 C 0.99644 0.78827 0.41628 0.0
C21 C 1.00408 0.7801 0.5114 0.0
C22 C 0.99828 0.77184 0.33331 0.0
C23 C 1.00102 0.74543 0.34698 0.0
C24 C 1.00662 0.73565 0.44151 0.0
C25 C 1.00927 0.75323 0.52459 0.0
H26 H 0.73622 0.02324 0.3893 0.0
H27 H 0.81414 1.01726 0.28613 0.0
H28 H 0.79622 1.00204 0.59656 0.0
H29 H 0.86546 1.0203 0.52299 0.0
C30 C 0.85394 0.02247 0.45339 0.0
O31 O 0.83416 1.00418 0.45486 0.0
H32 H 0.84578 0.04231 0.45545 0.0
C33 C 0.75638 1.01963 0.40614 0.0
C34 C 0.76336 1.01248 0.50308 0.0
C35 C 0.77455 0.02147 0.32912 0.0
C36 C 0.80036 1.01629 0.347 0.0
C37 C 0.80865 1.00991 0.44318 0.0
C38 C 0.79008 1.00788 0.5226 0.0
H39 H 0.54872 0.73307 0.38014 0.0
H40 H 0.54237 0.81039 0.27988 0.0
H41 H 0.52334 0.79229 0.58576 0.0
H42 H 0.49779 0.85259 0.47461 0.0
C43 C 0.50842 0.84385 0.41069 0.0
O44 O 0.52998 0.83105 0.44895 0.0
H45 H 0.49477 0.82987 0.37548 0.0
C46 C 0.5458 0.75328 0.39857 0.0
C47 C 0.5366 0.75986 0.49406 0.0
C48 C 0.54445 0.77077 0.3199 0.0
C49 C 0.54192 0.79688 0.34091 0.0
C50 C 0.5346 0.80524 0.43631 0.0
C51 C 0.53094 0.78644 0.51362 0.0
H52 H 0.23355 0.52525 0.09115 0.0
H53 H 0.3105 0.52986 0.20092 0.0
H54 H 0.29639 0.50039 0.90178 0.0
H55 H 0.35603 0.48075 0.02512 0.0
C56 C 0.3485 0.49315 0.08663 0.0
O57 O 0.33353 0.51246 0.04271 0.0
H58 H 0.33627 0.4805 0.134 0.0
C59 C 0.25396 0.52191 0.07846 0.0
C60 C 0.26215 0.51193 0.98649 0.0
C61 C 0.2714 0.52819 0.15428 0.0
C62 C 0.29761 0.52453 0.14096 0.0
C63 C 0.30721 0.51427 0.0516 0.0
C64 C 0.28931 0.5079 0.97244 0.0
H65 H 0.04184 0.23304 0.09374 0.0
H66 H 0.0298 0.30822 0.21859 0.0
H67 H 1.01828 0.29495 0.90182 0.0
H68 H 0.03263 0.36205 0.98789 0.0
C69 C 0.03332 0.35187 0.06078 0.0
O70 O 1.01689 0.33054 0.05403 0.0
H71 H 0.05362 0.34555 0.07165 0.0
C72 C 0.03807 0.25339 0.08252 0.0
C73 C 0.03103 0.26155 0.98696 0.0
C74 C 0.03715 0.26991 0.16585 0.0
C75 C 0.03099 0.29578 0.15337 0.0
C76 C 0.02489 0.30544 0.05883 0.0
C77 C 0.0244 0.28809 0.97443 0.0
H78 H 0.31043 0.02944 0.1037 0.0
H79 H 0.2341 0.0207 0.21976 0.0
H80 H 0.24587 0.02733 0.90002 0.0
H81 H 0.18368 0.048 1.00453 0.0
C82 C 0.19255 0.04124 0.07542 0.0
O83 O 0.21015 0.02179 0.05083 0.0
H84 H 0.20275 0.05813 0.10886 0.0
C85 C 0.2898 0.02854 0.08992 0.0
C86 C 0.2809 0.02886 0.99124 0.0
C87 C 0.2731 0.02593 0.17137 0.0
C88 C 0.24673 0.02337 0.15609 0.0
C89 C 0.23638 0.02448 0.05958 0.0
C90 C 0.25357 0.02704 0.97542 0.0
H91 H 0.49536 0.3118 0.06732 0.0
H92 H 0.49381 0.23798 0.2096 0.0
H93 H 0.52131 0.24482 0.90558 0.0
H94 H 0.53972 0.21428 0.16489 0.0
C95 C 0.53114 0.20024 0.11077 0.0
O96 O 0.51057 0.21154 0.05937 0.0
H97 H 0.54638 0.19564 0.05505 0.0
C98 C 0.49749 0.29102 0.0625 0.0
C99 C 0.50782 0.28062 0.97479 0.0
C100 C 0.49365 0.27615 0.14833 0.0
C101 C 0.49677 0.24947 0.14307 0.0
C102 C 0.50654 0.23768 0.05651 0.0
C103 C 0.51274 0.25346 0.97164 0.0
Gd104 Gd 0.03844 1.01761 0.82708 0.0
Gd105 Gd 0.99774 0.02293 0.67591 0.0
C106 C 1.01649 0.96573 0.71495 0.0
C107 C 0.05947 1.00465 0.99394 0.0
C108 C 0.05885 0.9786 0.03648 0.0
C109 C 0.08197 0.9656 0.05732 0.0
C110 C 0.03556 0.96476 0.03559 0.0
C111 C 0.05875 0.92496 0.06253 0.0
C112 C 0.03555 0.93827 0.0485 0.0
C113 C 0.08191 0.93886 0.07091 0.0
C114 C 0.06429 1.02016 0.64809 0.0
C115 C 0.02389 0.07587 0.77382 0.0
C116 C 0.96902 0.03837 0.53113 0.0
C117 C 0.97198 0.06285 0.47811 0.0
C118 C 0.95092 0.07951 0.46593 0.0
C119 C 0.99693 0.0718 0.45774 0.0
C120 C 0.98014 0.11401 0.41926 0.0
C121 C 1.00095 0.09702 0.42861 0.0
C122 C 0.95498 0.10507 0.43674 0.0
C123 C 0.97884 1.0111 0.86057 0.0
O124 O 0.02598 0.97568 0.7989 0.0
O125 O 1.00701 0.98103 0.64555 0.0
O126 O 0.07243 1.00635 0.91062 0.0
O127 O 0.03743 1.0168 0.98974 0.0
O128 O 0.07488 1.01842 0.73538 0.0
O129 O 0.0399 0.02117 0.65842 0.0
O130 O 1.00816 0.06531 0.70646 0.0
O131 O 0.03826 0.06123 0.83225 0.0
O132 O 0.96245 0.04095 0.625 0.0
O133 O 0.98762 0.02167 0.51825 0.0
O134 O 0.97135 1.00037 0.7774 0.0
O135 O 0.99668 0.02715 0.84145 0.0
H136 H 0.10016 0.97587 0.05712 0.0
H137 H 1.01742 0.97408 0.01879 0.0
H138 H 1.01734 0.92804 0.04451 0.0
H139 H 0.1 0.92895 0.08283 0.0
H140 H 0.93161 0.07313 0.48396 0.0
H141 H 1.01361 0.05975 0.46991 0.0
H142 H 1.02061 0.10358 0.41819 0.0
H143 H 0.93867 0.11795 0.43023 0.0
Gd144 Gd 0.52397 0.0381 0.81654 0.0
Gd145 Gd 0.51937 0.99925 0.67657 0.0
C146 C 0.57732 1.01443 0.71873 0.0
C147 C 0.53801 0.06597 0.96782 0.0
C148 C 0.56198 0.06325 0.02462 0.0
C149 C 0.57665 0.08501 0.05065 0.0
C150 C 0.57269 0.03861 0.03461 0.0
C151 C 0.61354 0.0575 0.08371 0.0
C152 C 0.59818 0.03577 0.06351 0.0
C153 C 0.60235 0.08215 0.08034 0.0
C154 C 0.51331 0.05874 0.63229 0.0
C155 C 0.46583 0.02323 0.77045 0.0
C156 C 0.50628 0.96975 0.52884 0.0
C157 C 0.48229 0.97047 0.47112 0.0
C158 C 0.46601 0.94884 0.46949 0.0
C159 C 0.47304 0.99425 0.43712 0.0
C160 C 0.43061 0.97572 0.41479 0.0
C161 C 0.44747 0.99682 0.40916 0.0
C162 C 0.44017 0.95149 0.44206 0.0
C163 C 0.5301 0.97866 0.86049 0.0
O164 O 0.56685 0.02667 0.79618 0.0
O165 O 0.56202 1.00343 0.65249 0.0
O166 O 0.54129 0.07317 0.87527 0.0
O167 O 0.52178 0.04682 0.97542 0.0
O168 O 0.50264 0.06573 0.71585 0.0
O169 O 0.52904 0.04054 0.64965 0.0
O170 O 0.47656 1.01075 0.6941 0.0
O171 O 0.48092 0.0345 0.83708 0.0
O172 O 0.50327 0.96324 0.62229 0.0
O173 O 0.52161 0.98955 0.5187 0.0
O174 O 0.54105 0.97216 0.77704 0.0
O175 O 0.51432 0.99683 0.84349 0.0
H176 H 0.56873 0.10417 0.04245 0.0
H177 H 0.56195 0.0215 0.01322 0.0
H178 H 0.60625 1.01654 0.06354 0.0
H179 H 0.6137 0.09919 0.09693 0.0
H180 H 0.47279 0.93041 0.4963 0.0
H181 H 0.48496 1.01142 0.43909 0.0
H182 H 0.4405 1.01581 0.38978 0.0
H183 H 0.42745 0.93495 0.44609 0.0
Gd184 Gd 0.50458 0.52352 0.82871 0.0
Gd185 Gd 0.54443 0.51723 0.67369 0.0
C186 C 0.52578 0.57472 0.71093 0.0
C187 C 0.48458 0.53753 0.99733 0.0
C188 C 0.48329 0.56395 0.03874 0.0
C189 C 0.45934 0.57624 0.05141 0.0
C190 C 0.50603 0.57848 0.04971 0.0
C191 C 0.481 0.61743 0.07213 0.0
C192 C 0.50485 0.60492 0.06603 0.0
C193 C 0.45819 0.6029 0.06851 0.0
C194 C 0.47777 0.51977 0.65178 0.0
C195 C 0.51895 0.46491 0.77331 0.0
C196 C 0.57297 0.50169 0.52793 0.0
C197 C 0.57093 0.47675 0.47688 0.0
C198 C 0.59303 0.46214 0.45524 0.0
C199 C 0.54647 0.46545 0.46726 0.0
C200 C 0.566 0.42507 0.41958 0.0
C201 C 0.54405 0.43989 0.43876 0.0
C202 C 0.59058 0.43622 0.42653 0.0
C203 C 0.56431 0.52911 0.85782 0.0
O204 O 0.51619 0.56544 0.79545 0.0
O205 O 0.53537 0.55885 0.64298 0.0
O206 O 0.47079 0.5335 0.91691 0.0
O207 O 0.50755 0.52738 0.99021 0.0
O208 O 0.46763 0.52181 0.73991 0.0
O209 O 0.5022 0.51885 0.66053 0.0
O210 O 0.53341 0.47509 0.70186 0.0
O211 O 0.50597 0.4798 0.83652 0.0
O212 O 0.58002 0.50006 0.62154 0.0
O213 O 0.5535 0.51734 0.51517 0.0
O214 O 0.5714 0.53967 0.77452 0.0
O215 O 0.54615 0.51334 0.83923 0.0
H216 H 0.44156 0.56547 0.04273 0.0
H217 H 0.52484 0.56977 0.0402 0.0
H218 H 0.52267 0.61581 0.07027 0.0
H219 H 0.43961 0.61229 0.07373 0.0
H220 H 0.61206 0.47045 0.46453 0.0
H221 H 0.52915 0.476 0.48646 0.0
H222 H 0.52497 0.4314 0.43426 0.0
H223 H 0.60766 0.42487 0.41161 0.0
Gd224 Gd 1.01699 0.49942 0.84559 0.0
Gd225 Gd 0.02478 0.53914 0.66505 0.0
C226 C 0.96615 0.52313 0.72759 0.0
C227 C 1.00388 0.48149 0.01638 0.0
C228 C 0.97751 0.48227 0.05628 0.0
C229 C 0.96475 0.45922 0.08016 0.0
C230 C 0.96318 0.50503 0.04678 0.0
C231 C 0.92352 0.48119 0.07097 0.0
C232 C 0.93651 0.50448 0.05409 0.0
C233 C 0.93784 0.45869 0.08797 0.0
C234 C 1.02026 0.47318 0.66561 0.0
C235 C 0.07595 0.51436 0.78094 0.0
C236 C 0.03624 0.55779 0.49336 0.0
C237 C 0.06221 0.5588 0.44997 0.0
C238 C 0.07386 0.58284 0.43408 0.0
C239 C 0.07743 0.53646 0.44774 0.0
C240 C 0.11597 0.5625 0.43124 0.0
C241 C 0.10401 0.53829 0.43794 0.0
C242 C 0.1006 0.58471 0.42522 0.0
C243 C 1.02074 0.56535 0.84496 0.0
O244 O 0.97552 0.51101 0.80731 0.0
O245 O 0.98127 0.53396 0.65935 0.0
O246 O 1.00624 0.46686 0.9368 0.0
O247 O 1.01574 0.50373 1.00742 0.0
O248 O 1.01745 0.46248 0.7524 0.0
O249 O 0.02175 0.49729 0.68171 0.0
O250 O 0.06652 0.52774 0.70392 0.0
O251 O 0.06065 0.50295 0.84744 0.0
O252 O 0.03345 0.5722 0.57333 0.0
O253 O 0.02597 0.53488 0.50339 0.0
O254 O 0.0243 0.57611 0.75879 0.0
O255 O 1.01932 0.54128 0.82832 0.0
H256 H 0.97542 0.44137 0.08622 0.0
H257 H 0.97233 0.52305 0.02706 0.0
H258 H 0.92598 0.52227 0.04374 0.0
H259 H 0.92821 0.44056 0.10229 0.0
H260 H 0.0625 0.60034 0.43638 0.0
H261 H 0.06914 0.51762 0.46031 0.0
H262 H 0.11527 0.52074 0.43912 0.0
H263 H 0.10925 0.60363 0.41938 0.0
H264 H 0.14502 0.06322 0.09809 0.0
H265 H 0.1079 0.99257 0.61244 0.0
H266 H 0.19099 1.00279 0.22577 0.0
H267 H 0.05732 0.04622 0.46697 0.0
H268 H 0.13702 0.99432 0.46816 0.0
H269 H 0.11209 0.05592 0.22649 0.0
C270 C 0.14804 0.04802 0.15201 0.0
C271 C 0.17091 0.03338 0.14891 0.0
C272 C 0.11951 1.00562 0.4669 0.0
C273 C 0.133 0.02527 0.30022 0.0
C274 C 0.10274 1.00462 0.54959 0.0
C275 C 0.07988 1.01922 0.55261 0.0
C276 C 0.11398 0.02187 0.38586 0.0
C277 C 0.07442 0.03437 0.46817 0.0
C278 C 0.12916 0.04396 0.22601 0.0
C279 C 0.17378 1.01449 0.22346 0.0
N280 N 0.0914 0.03554 0.38934 0.0
N281 N 0.15523 1.01108 0.29558 0.0
H282 H 0.48497 0.18511 0.20756 0.0
H283 H 0.54773 0.05983 0.47232 0.0
H284 H 0.56307 0.16025 0.15802 0.0
H285 H 0.48006 0.09804 0.58581 0.0
H286 H 0.54978 0.09152 0.33575 0.0
H287 H 0.4789 0.1486 0.3232 0.0
C288 C 0.5007 0.17179 0.21925 0.0
C289 C 0.52447 0.1757 0.17055 0.0
C290 C 0.53437 0.0929 0.39017 0.0
C291 C 0.51787 0.13399 0.30632 0.0
C292 C 0.53313 0.07467 0.46821 0.0
C293 C 0.5138 0.0762 0.54197 0.0
C294 C 0.51597 0.11286 0.38424 0.0
C295 C 0.49545 0.09605 0.53162 0.0
C296 C 0.4973 0.151 0.28619 0.0
C297 C 0.54423 0.15786 0.19154 0.0
N298 N 0.497 0.11345 0.45512 0.0
N299 N 0.54054 0.13806 0.25711 0.0
H300 H 0.39817 0.47421 0.09729 0.0
H301 H 0.42963 0.53924 0.62822 0.0
H302 H 0.35104 0.53314 0.23188 0.0
H303 H 0.48838 0.49958 0.46001 0.0
H304 H 0.40094 0.53661 0.48331 0.0
H305 H 0.4316 0.48297 0.22377 0.0
C306 C 0.39487 0.48933 0.15208 0.0
C307 C 0.37125 0.50284 0.1524 0.0
C308 C 0.42012 0.52858 0.47717 0.0
C309 C 0.4096 0.51237 0.30174 0.0
C310 C 0.43663 0.53002 0.56047 0.0
C311 C 0.46165 0.51955 0.55742 0.0
C312 C 0.42812 0.516 0.38893 0.0
C313 C 0.46939 0.50797 0.46647 0.0
C314 C 0.41404 0.49419 0.22503 0.0
C315 C 0.36834 0.52185 0.22748 0.0
N316 N 0.45264 0.5062 0.38668 0.0
N317 N 0.38695 0.52577 0.29893 0.0
H318 H 1.00576 0.3449 0.24138 0.0
H319 H 0.03446 0.48714 0.46917 0.0
H320 H 0.04672 0.40298 0.07612 0.0
H321 H 1.00551 0.42344 0.64071 0.0
H322 H 0.03513 0.45899 0.31898 0.0
H323 H 1.00145 0.37529 0.38175 0.0
C324 C 1.01377 0.36402 0.23388 0.0
C325 C 0.02671 0.37113 0.14567 0.0
C326 C 0.02851 0.45124 0.38955 0.0
C327 C 0.02169 0.4066 0.30825 0.0
C328 C 0.02803 0.46745 0.47547 0.0
C329 C 1.01996 0.45789 0.56875 0.0
C330 C 1.02065 0.42521 0.39632 0.0
C331 C 1.01204 0.43188 0.57125 0.0
C332 C 1.01125 0.38153 0.31456 0.0
C333 C 0.0364 0.39656 0.14188 0.0
N334 N 1.01258 0.41667 0.48739 0.0
N335 N 0.03374 0.41323 0.22125 0.0
H336 H 0.89247 0.0555 0.40048 0.0
H337 H 0.93837 0.97918 0.90403 0.0
H338 H 0.85806 0.98419 0.30145 0.0
H339 H 0.97985 0.04423 0.02587 0.0
H340 H 0.90842 0.9814 0.04568 0.0
H341 H 0.9236 0.05258 0.26241 0.0
C342 C 0.89139 0.03923 0.34938 0.0
C343 C 0.87233 1.02021 0.36309 0.0
C344 C 0.92411 0.99514 0.04212 0.0
C345 C 0.90828 1.01664 0.20286 0.0
C346 C 0.94135 0.99387 0.96097 0.0
C347 C 0.96189 1.0115 0.9523 0.0
C348 C 0.92704 1.01434 0.11625 0.0
C349 C 0.96448 0.03012 0.02901 0.0
C350 C 0.90926 0.03755 0.2704 0.0
C351 C 0.8721 0.99949 0.29428 0.0
N352 N 0.94728 0.03112 0.10697 0.0
N353 N 0.88962 0.99836 0.21747 0.0
H354 H 0.51238 0.89705 0.43774 0.0
H355 H 0.54656 0.92868 0.86446 0.0
H356 H 0.51693 0.83922 0.2055 0.0
H357 H 0.50978 0.98536 0.05337 0.0
H358 H 0.54267 0.89715 0.99847 0.0
H359 H 0.51766 0.93066 0.30941 0.0
C360 C 0.51517 0.8913 0.36033 0.0
C361 C 0.51503 0.86493 0.33373 0.0
C362 C 0.53548 0.91646 0.0112 0.0
C363 C 0.52115 0.90362 0.18542 0.0
C364 C 0.53777 0.93466 0.93442 0.0
C365 C 0.52841 0.95995 0.94651 0.0
C366 C 0.52417 0.92335 0.10319 0.0
C367 C 0.51719 0.96617 0.03987 0.0
C368 C 0.51796 0.91058 0.28688 0.0
C369 C 0.51806 0.85896 0.23127 0.0
N370 N 0.51552 0.94812 0.11451 0.0
N371 N 0.52114 0.87796 0.1618 0.0
H372 H 0.70408 0.51958 0.21302 0.0
H373 H 0.55695 0.50603 0.04388 0.0
H374 H 0.64425 0.51128 0.43378 0.0
H375 H 0.61306 0.54885 0.87475 0.0
H376 H 0.58832 0.50305 0.18306 0.0
H377 H 0.6713 0.5262 0.08457 0.0
C378 C 0.68414 0.5201 0.23575 0.0
C379 C 0.67728 0.51617 0.3365 0.0
C380 C 0.59365 0.51323 0.11559 0.0
C381 C 0.63894 0.5216 0.18576 0.0
C382 C 0.57572 0.51493 0.03598 0.0
C383 C 0.58217 0.52782 0.94687 0.0
C384 C 0.61849 0.52399 0.10558 0.0
C385 C 0.607 0.53879 0.94147 0.0
C386 C 0.66526 0.52333 0.16134 0.0
C387 C 0.65065 0.51494 0.35803 0.0
N388 N 0.62414 0.5364 0.01854 0.0
N389 N 0.63256 0.51738 0.28365 0.0
H390 H 0.06993 0.67936 0.28727 0.0
H391 H 0.98667 0.56845 1.00733 0.0
H392 H 0.98946 0.66847 0.353 0.0
H393 H 0.05882 0.59827 0.89933 0.0
H394 H 0.9884 0.60005 0.14759 0.0
H395 H 0.06722 0.64559 0.15907 0.0
C396 C 0.05148 0.67016 0.27365 0.0
C397 C 0.02976 0.67757 0.32993 0.0
C398 C 1.00402 0.59939 0.09395 0.0
C399 C 0.02656 0.6377 0.18238 0.0
C400 C 1.00324 0.58103 0.01465 0.0
C401 C 0.02297 0.58014 0.94222 0.0
C402 C 0.0248 0.61695 0.10164 0.0
C403 C 0.04339 0.59781 0.95387 0.0
C404 C 0.04998 0.65065 0.20037 0.0
C405 C 1.00664 0.664 0.31051 0.0
N406 N 0.0438 0.61518 0.03128 0.0
N407 N 1.00563 0.64487 0.23855 0.0
H408 H 0.07197 0.23768 0.25243 0.0
H409 H 0.96283 0.15717 0.51895 0.0
H410 H 0.99805 0.27342 0.29988 0.0
H411 H 1.01103 0.13238 0.2732 0.0
H412 H 0.98054 0.20116 0.50185 0.0
H413 H 0.05719 0.2003 0.34628 0.0
C414 C 0.05322 0.23833 0.28806 0.0
C415 C 0.03575 0.25794 0.26515 0.0
C416 C 0.9871 0.1859 0.45235 0.0
C417 C 1.01876 0.21557 0.3698 0.0
C418 C 0.97676 0.1611 0.46061 0.0
C419 C 0.98576 0.14122 0.39782 0.0
C420 C 1.00682 0.19027 0.38282 0.0
C421 C 1.00396 0.1471 0.32408 0.0
C422 C 0.04465 0.21688 0.34 0.0
C423 C 1.01177 0.25816 0.3138 0.0
N424 N 1.01414 0.17102 0.31947 0.0
N425 N 1.00343 0.23662 0.36092 0.0
H426 H 0.30196 0.06077 0.27308 0.0
H427 H 0.3909 0.96023 0.5358 0.0
H428 H 0.27201 0.98345 0.28838 0.0
H429 H 0.40767 1.00232 0.2656 0.0
H430 H 0.34574 0.97496 0.52558 0.0
H431 H 0.33891 0.04759 0.3735 0.0
C432 C 0.30236 0.04146 0.30337 0.0
C433 C 0.28461 0.02288 0.27072 0.0
C434 C 0.35952 0.98081 0.46919 0.0
C435 C 0.32647 1.0078 0.3828 0.0
C436 C 0.38497 0.97216 0.47369 0.0
C437 C 0.40288 0.98021 0.40132 0.0
C438 C 0.35256 0.99791 0.39345 0.0
C439 C 0.39451 0.99601 0.32343 0.0
C440 C 0.32348 0.03391 0.35969 0.0
C441 C 0.28579 0.99808 0.31111 0.0
N442 N 0.36996 1.00457 0.32212 0.0
N443 N 0.30714 0.99083 0.36245 0.0
H444 H 0.46469 0.31717 0.21197 0.0
H445 H 0.57047 0.38331 0.54076 0.0
H446 H 0.52715 0.26763 0.30086 0.0
H447 H 0.54955 0.40676 0.24245 0.0
H448 H 0.54792 0.34191 0.51185 0.0
H449 H 0.48554 0.35288 0.30072 0.0
C450 C 0.48189 0.31338 0.25561 0.0
C451 C 0.49489 0.28985 0.24541 0.0
C452 C 0.54884 0.35604 0.45262 0.0
C453 C 0.51847 0.33014 0.34629 0.0
C454 C 0.56202 0.37924 0.46805 0.0
C455 C 0.56196 0.39803 0.39299 0.0
C456 C 0.5351 0.35247 0.36326 0.0
C457 C 0.55014 0.39249 0.30124 0.0
C458 C 0.49398 0.33383 0.30446 0.0
C459 C 0.51693 0.28577 0.30457 0.0
N460 N 0.5367 0.37033 0.28948 0.0
N461 N 0.52873 0.30612 0.34981 0.0
H462 H 0.26249 0.57849 0.1892 0.0
H463 H 0.15004 0.53459 0.54354 0.0
H464 H 0.25609 0.50337 0.3215 0.0
H465 H 0.14668 0.5948 0.32226 0.0
H466 H 0.19679 0.5331 0.52399 0.0
H467 H 0.22981 0.59459 0.30572 0.0
C468 C 0.25504 0.5658 0.24647 0.0
C469 C 0.26141 0.53967 0.24618 0.0
C470 C 0.18581 0.54706 0.4818 0.0
C471 C 0.22382 0.55739 0.37562 0.0
C472 C 0.15914 0.54773 0.49182 0.0
C473 C 0.14438 0.56431 0.43204 0.0
C474 C 0.19771 0.5631 0.41161 0.0
C475 C 0.15724 0.58155 0.36907 0.0
C476 C 0.23633 0.57486 0.3122 0.0
C477 C 0.2513 0.52366 0.32009 0.0
N478 N 0.18318 0.58016 0.35918 0.0
N479 N 0.23237 0.53264 0.38078 0.0
H480 H 0.04834 0.77245 0.29254 0.0
H481 H 0.03454 0.89228 0.93369 0.0
H482 H 0.9751 0.8 0.18521 0.0
H483 H 0.0812 0.89331 0.20113 0.0
H484 H 0.02364 0.84716 0.96479 0.0
H485 H 0.07017 0.8058 0.19613 0.0
C486 C 0.03701 0.78452 0.24333 0.0
C487 C 1.00998 0.78342 0.24489 0.0
C488 C 0.0368 0.85715 0.01491 0.0
C489 C 0.03472 0.82123 0.13555 0.0
C490 C 0.04292 0.88278 0.99767 0.0
C491 C 0.05806 0.8966 0.06679 0.0
C492 C 0.04628 0.84527 0.10089 0.0
C493 C 0.06918 0.88335 0.1469 0.0
C494 C 0.04945 0.80367 0.18979 0.0
C495 C 0.99597 0.80009 0.184 0.0
N496 N 0.06266 0.85836 0.16299 0.0
N497 N 1.00857 0.81862 0.13198 0.0
H498 H 0.76889 0.06897 0.25072 0.0
H499 H 0.6373 1.02006 0.19179 0.0
H500 H 0.75652 0.9884 0.18903 0.0
H501 H 0.65343 0.0868 0.01048 0.0
H502 H 0.68315 1.01082 0.19797 0.0
H503 H 0.73083 0.07925 0.15041 0.0
C504 C 0.75911 0.05362 0.2103 0.0
C505 C 0.76513 0.02785 0.22934 0.0
C506 C 0.67658 0.02727 0.15545 0.0
C507 C 0.72161 0.03919 0.11994 0.0
C508 C 0.65048 0.03271 0.15278 0.0
C509 C 0.64149 0.05403 0.0994 0.0
C510 C 0.69398 0.04358 0.1066 0.0
C511 C 0.65959 0.07026 0.05308 0.0
C512 C 0.73728 0.05944 0.15413 0.0
C513 C 0.75201 1.0085 0.17663 0.0
N514 N 0.68518 0.06485 0.05861 0.0
N515 N 0.73002 1.01446 0.12739 0.0
H516 H 0.5665 0.74358 0.16551 0.0
H517 H 0.4617 0.64865 0.22025 0.0
H518 H 0.49418 0.77209 0.2791 0.0
H519 H 0.50057 0.6501 0.93537 0.0
H520 H 0.47206 0.69458 0.2434 0.0
H521 H 0.5429 0.71049 0.07037 0.0
C522 C 0.54562 0.7437 0.16584 0.0
C523 C 0.53217 0.76048 0.22909 0.0
C524 C 0.47749 0.68499 0.17419 0.0
C525 C 0.50546 0.72204 0.12775 0.0
C526 C 0.47161 0.6589 0.16123 0.0
C527 C 0.48073 0.64576 0.07652 0.0
C528 C 0.49284 0.69751 0.10254 0.0
C529 C 0.49374 0.65965 1.00237 0.0
C530 C 0.53216 0.72471 0.11291 0.0
C531 C 0.50509 0.75954 0.22973 0.0
N532 N 0.50004 0.68469 0.01812 0.0
N533 N 0.49261 0.73985 0.18334 0.0
H534 H 0.80054 0.56572 0.18789 0.0
H535 H 0.89116 0.4586 0.20637 0.0
H536 H 0.77056 0.49221 0.28061 0.0
H537 H 0.89137 0.50378 0.93617 0.0
H538 H 0.84536 0.46826 0.22764 0.0
H539 H 0.83157 0.54325 0.07996 0.0
C540 C 0.79971 0.54492 0.1813 0.0
C541 C 0.78318 0.53066 0.24202 0.0
C542 C 0.85526 0.47531 0.16183 0.0
C543 C 0.81917 0.50508 0.12556 0.0
C544 C 0.88137 0.46984 0.1499 0.0
C545 C 0.8951 0.48109 0.07121 0.0
C546 C 0.84322 0.49243 0.09553 0.0
C547 C 0.88154 0.49554 0.99991 0.0
C548 C 0.81744 0.53207 0.12064 0.0
C549 C 0.78304 0.5037 0.2335 0.0
N550 N 0.85644 0.5015 0.01538 0.0
N551 N 0.80155 0.49165 0.17942 0.0
H552 H 0.06986 0.23625 0.88878 0.0
H553 H 0.98457 0.11101 0.74578 0.0
H554 H 0.98752 0.23526 0.9246 0.0
H555 H 0.06449 0.10744 0.83188 0.0
H556 H 0.98529 0.15795 0.7752 0.0
H557 H 0.06811 0.1917 0.82565 0.0
C558 C 0.05123 0.22714 0.87884 0.0
C559 C 0.02875 0.24015 0.90986 0.0
C560 C 1.00274 0.14696 0.78686 0.0
C561 C 0.02668 0.18802 0.84124 0.0
C562 C 1.00239 0.12006 0.76975 0.0
C563 C 0.02451 0.10491 0.78648 0.0
C564 C 0.02559 0.15929 0.8185 0.0
C565 C 0.0469 0.11804 0.81844 0.0
C566 C 0.0503 0.20138 0.8448 0.0
C567 C 1.00529 0.22656 0.89889 0.0
N568 N 0.04689 0.14424 0.83257 0.0
N569 N 1.00489 0.20138 0.86645 0.0
H570 H 0.31063 0.07074 0.94872 0.0
H571 H 0.42668 0.99599 0.67062 0.0
H572 H 0.30209 0.99079 0.86843 0.0
H573 H 0.43773 0.05437 0.89812 0.0
H574 H 0.37963 0.99826 0.70003 0.0
H575 H 0.35473 0.07 0.88285 0.0
C576 C 0.31751 0.0533 0.91264 0.0
C577 C 0.30197 0.03097 0.91277 0.0
C578 C 0.3924 1.01059 0.74322 0.0
C579 C 0.35364 0.02973 0.83895 0.0
C580 C 0.41937 1.00938 0.72636 0.0
C581 C 0.43668 0.02488 0.78233 0.0
C582 C 0.38228 0.0279 0.81504 0.0
C583 C 0.42557 0.04189 0.85307 0.0
C584 C 0.34304 0.05275 0.87679 0.0
C585 C 0.3128 1.0087 0.8681 0.0
N586 N 0.39942 0.04299 0.86672 0.0
N587 N 0.33783 1.0086 0.83378 0.0
H588 H 0.4786 0.30103 0.82206 0.0
H589 H 0.55438 0.43597 0.87462 0.0
H590 H 0.5523 0.30894 0.9666 0.0
H591 H 0.4847 0.4278 0.70229 0.0
H592 H 0.55531 0.38901 0.89806 0.0
H593 H 0.48267 0.34535 0.75971 0.0
C594 C 0.49627 0.31155 0.83659 0.0
C595 C 0.51539 0.3006 0.89815 0.0
C596 C 0.53983 0.39733 0.85459 0.0
C597 C 0.51945 0.35268 0.83226 0.0
C598 C 0.53924 0.42427 0.84154 0.0
C599 C 0.51928 0.43606 0.78735 0.0
C600 C 0.52027 0.3816 0.81319 0.0
C601 C 0.50031 0.41971 0.74572 0.0
C602 C 0.49833 0.33724 0.80279 0.0
C603 C 0.53732 0.31602 0.91746 0.0
N604 N 0.50119 0.39352 0.75985 0.0
N605 N 0.5385 0.34113 0.88662 0.0
H606 H 0.24267 0.54408 0.84105 0.0
H607 H 0.10282 0.48025 0.89934 0.0
H608 H 0.2297 0.47036 0.9768 0.0
H609 H 0.11605 0.54249 0.69361 0.0
H610 H 0.14935 0.47669 0.92516 0.0
H611 H 0.19799 0.54353 0.77785 0.0
C612 C 0.23091 0.52715 0.85345 0.0
C613 C 0.24061 0.50684 0.91223 0.0
C614 C 0.14222 0.49109 0.87387 0.0
C615 C 0.18825 0.50688 0.84538 0.0
C616 C 0.11541 0.49324 0.85924 0.0
C617 C 0.10497 0.5118 0.7942 0.0
C618 C 0.15936 0.50785 0.82472 0.0
C619 C 0.12285 0.52786 0.74455 0.0
C620 C 0.20508 0.52709 0.81899 0.0
C621 C 0.22362 0.4861 0.92965 0.0
N622 N 0.14891 0.52571 0.76156 0.0
N623 N 0.19848 0.48686 0.89818 0.0
H624 H 0.97645 0.80121 0.67141 0.0
H625 H 0.03046 0.93888 0.54586 0.0
H626 H 0.04619 0.81086 0.50158 0.0
H627 H 1.00235 0.92671 0.84523 0.0
H628 H 0.03084 0.89199 0.51839 0.0
H629 H 0.98106 0.846 0.73412 0.0
C630 C 0.99333 0.81225 0.6507 0.0
C631 C 1.0113 0.80175 0.58257 0.0
C632 C 0.02461 0.89952 0.59026 0.0
C633 C 1.01556 0.85392 0.64796 0.0
C634 C 0.02426 0.92637 0.60582 0.0
C635 C 1.01649 0.93695 0.69818 0.0
C636 C 1.01623 0.88275 0.66613 0.0
C637 C 1.00867 0.91951 0.77301 0.0
C638 C 0.99571 0.83805 0.68519 0.0
C639 C 0.03219 0.81771 0.55564 0.0
N640 N 1.00834 0.89341 0.75494 0.0
N641 N 0.03334 0.8429 0.5859 0.0
H642 H 0.74371 0.04595 0.64713 0.0
H643 H 0.6038 0.98337 0.5873 0.0
H644 H 0.7299 0.972 0.50984 0.0
H645 H 0.61775 0.04064 0.81672 0.0
H646 H 0.65008 0.98062 0.55723 0.0
H647 H 0.69927 0.04546 0.7138 0.0
C648 C 0.73179 0.02908 0.63462 0.0
C649 C 0.74113 1.00861 0.57483 0.0
C650 C 0.6432 0.99372 0.61471 0.0
C651 C 0.68925 1.00867 0.64589 0.0
C652 C 0.61652 0.99541 0.63192 0.0
C653 C 0.60634 1.01236 0.70471 0.0
C654 C 0.66052 1.00937 0.66911 0.0
C655 C 0.62438 0.0273 0.75962 0.0
C656 C 0.70616 0.02901 0.6714 0.0
C657 C 0.72404 0.98789 0.55759 0.0
N658 N 0.65039 0.02567 0.74003 0.0
N659 N 0.69914 0.98865 0.59119 0.0
H660 H 0.55566 0.74299 0.68003 0.0
H661 H 0.52937 0.59924 0.52989 0.0
H662 H 0.50151 0.72301 0.44714 0.0
H663 H 0.52313 0.61603 0.84554 0.0
H664 H 0.52909 0.64554 0.49559 0.0
H665 H 0.55168 0.69851 0.74576 0.0
C666 C 0.54231 0.72968 0.64469 0.0
C667 C 0.52876 0.7371 0.55791 0.0
C668 C 0.52775 0.63914 0.5725 0.0
C669 C 0.52546 0.68564 0.62888 0.0
C670 C 0.52799 0.6126 0.59237 0.0
C671 C 0.52598 0.60339 0.69098 0.0
C672 C 0.52619 0.65715 0.65152 0.0
C673 C 0.52439 0.62208 0.76829 0.0
C674 C 0.54032 0.70414 0.68146 0.0
C675 C 0.51223 0.71846 0.51444 0.0
N676 N 0.52475 0.64798 0.74719 0.0
N677 N 0.51164 0.69374 0.54824 0.0
H678 H 0.80415 0.56807 0.65573 0.0
H679 H 0.93836 0.49648 0.58672 0.0
H680 H 0.81024 0.4923 0.52552 0.0
H681 H 0.92835 0.55026 0.83046 0.0
H682 H 0.89157 0.49696 0.55752 0.0
H683 H 0.8485 0.56383 0.72101 0.0
C684 C 0.8143 0.55006 0.64477 0.0
C685 C 0.80288 0.53021 0.58721 0.0
C686 C 0.89949 0.50863 0.61774 0.0
C687 C 0.85468 0.52593 0.65574 0.0
C688 C 0.92629 0.50844 0.63411 0.0
C689 C 0.93743 0.52336 0.71103 0.0
C690 C 0.88337 0.5244 0.67691 0.0
C691 C 0.92066 0.53844 0.77024 0.0
C692 C 0.83988 0.54783 0.68057 0.0
C693 C 0.81776 0.50782 0.57176 0.0
N694 N 0.89464 0.53885 0.75121 0.0
N695 N 0.84278 0.50654 0.60365 0.0
loop_
_geom_bond_atom_site_label_1
_geom_bond_atom_site_label_2
_geom_bond_distance
_geom_bond_site_symmetry_2
_ccdc_geom_bond_type
H0 C7 0.929 . S
H1 C10 0.930 . S
H2 C12 0.929 . S
H3 C4 0.969 . S
C4 H3 0.969 . S
C4 O5 1.550 . S
C4 H6 0.973 . S
O5 C4 1.550 . S
O5 C11 1.412 . S
H6 C4 0.973 . S
C7 H0 0.929 . S
C7 C8 1.400 . S
C7 C9 1.364 . S
C8 C7 1.400 . S
C8 C12 1.377 . S
C9 C7 1.364 . S
C9 C10 1.374 . S
C10 H1 0.930 . S
C10 C9 1.374 . S
C10 C11 1.383 . S
C11 O5 1.412 . S
C11 C10 1.383 . S
C11 C12 1.394 . S
C12 H2 0.929 . S
C12 C8 1.377 . S
C12 C11 1.394 . S
H13 C20 0.930 . S
H14 C23 0.930 . S
H15 C25 0.931 . S
H16 C17 0.969 . S
C17 H16 0.969 . S
C17 O18 1.550 1_455 S
C17 H19 0.973 1_455 S
O18 C17 1.550 1_655 S
O18 C24 1.416 . S
H19 C17 0.973 1_655 S
C20 H13 0.930 . S
C20 C21 1.400 . S
C20 C22 1.364 . S
C21 C20 1.400 . S
C21 C25 1.377 . S
C22 C20 1.364 . S
C22 C23 1.375 . S
C23 H14 0.930 . S
C23 C22 1.375 . S
C23 C24 1.383 . S
C24 O18 1.416 . S
C24 C23 1.383 . S
C24 C25 1.394 . S
C25 H15 0.931 . S
C25 C21 1.377 . S
C25 C24 1.394 . S
H26 C33 0.929 . S
H27 C36 0.930 . S
H28 C38 0.929 . S
H29 C30 0.969 . S
C30 H29 0.969 . S
C30 O31 1.550 1_545 S
C30 H32 0.973 1_545 S
O31 C30 1.550 1_565 S
O31 C37 1.424 . S
H32 C30 0.973 1_565 S
C33 H26 0.929 . S
C33 C34 1.400 . S
C33 C35 1.364 . S
C34 C33 1.400 . S
C34 C38 1.377 . S
C35 C33 1.364 . S
C35 C36 1.374 . S
C36 H27 0.930 . S
C36 C35 1.374 . S
C36 C37 1.385 . S
C37 O31 1.424 . S
C37 C36 1.385 . S
C37 C38 1.396 . S
C38 H28 0.929 . S
C38 C34 1.377 . S
C38 C37 1.396 . S
H39 C46 0.929 . S
H40 C49 0.930 . S
H41 C51 0.929 . S
H42 C43 0.969 . S
C43 H42 0.969 . S
C43 O44 1.550 . S
C43 H45 0.973 . S
O44 C43 1.550 . S
O44 C50 1.412 . S
H45 C43 0.973 . S
C46 H39 0.929 . S
C46 C47 1.400 . S
C46 C48 1.364 . S
C47 C46 1.400 . S
C47 C51 1.377 . S
C48 C46 1.364 . S
C48 C49 1.374 . S
C49 H40 0.930 . S
C49 C48 1.374 . S
C49 C50 1.383 . S
C50 O44 1.412 . S
C50 C49 1.383 . S
C50 C51 1.394 . S
C51 H41 0.929 . S
C51 C47 1.377 . S
C51 C50 1.394 . S
H52 C59 0.929 1_556 S
H53 C62 0.930 . S
H54 C64 0.929 . S
H55 C56 0.969 . S
C56 H55 0.969 . S
C56 O57 1.550 . S
C56 H58 0.973 . S
O57 C56 1.550 . S
O57 C63 1.412 . S
H58 C56 0.973 . S
C59 H52 0.929 1_554 S
C59 C60 1.400 1_554 S
C59 C61 1.364 . S
C60 C59 1.400 1_556 S
C60 C64 1.377 . S
C61 C59 1.364 . S
C61 C62 1.374 . S
C62 H53 0.930 . S
C62 C61 1.374 . S
C62 C63 1.383 . S
C63 O57 1.412 . S
C63 C62 1.383 . S
C63 C64 1.394 1_554 S
C64 H54 0.929 . S
C64 C60 1.377 . S
C64 C63 1.394 1_556 S
H65 C72 0.929 1_556 S
H66 C75 0.930 . S
H67 C77 0.929 . S
H68 C69 0.969 . S
C69 H68 0.969 . S
C69 O70 1.550 1_455 S
C69 H71 0.973 1_455 S
O70 C69 1.550 1_655 S
O70 C76 1.412 1_655 S
H71 C69 0.973 1_655 S
C72 H65 0.929 1_554 S
C72 C73 1.400 1_554 S
C72 C74 1.364 . S
C73 C72 1.400 1_556 S
C73 C77 1.377 . S
C74 C72 1.364 . S
C74 C75 1.374 . S
C75 H66 0.930 . S
C75 C74 1.374 . S
C75 C76 1.383 . S
C76 O70 1.412 1_455 S
C76 C75 1.383 . S
C76 C77 1.394 1_554 S
C77 H67 0.929 . S
C77 C73 1.377 . S
C77 C76 1.394 1_556 S
H78 C85 0.929 1_556 S
H79 C88 0.933 . S
H80 C90 0.929 . S
H81 C82 0.969 . S
C82 H81 0.969 . S
C82 O83 1.550 1_545 S
C82 H84 0.973 1_545 S
O83 C82 1.550 1_565 S
O83 C89 1.412 1_565 S
H84 C82 0.973 1_565 S
C85 H78 0.929 1_554 S
C85 C86 1.400 1_554 S
C85 C87 1.364 . S
C86 C85 1.400 1_556 S
C86 C90 1.377 . S
C87 C85 1.364 . S
C87 C88 1.374 . S
C88 H79 0.933 . S
C88 C87 1.374 . S
C88 C89 1.383 . S
C89 O83 1.412 1_545 S
C89 C88 1.383 . S
C89 C90 1.394 1_554 S
C90 H80 0.929 . S
C90 C86 1.377 . S
C90 C89 1.394 1_556 S
H91 C98 0.929 1_556 S
H92 C101 0.930 . S
H93 C103 0.929 . S
H94 C95 0.969 . S
C95 H94 0.969 . S
C95 O96 1.550 . S
C95 H97 0.973 . S
O96 C95 1.550 . S
O96 C102 1.412 . S
H97 C95 0.973 . S
C98 H91 0.929 1_554 S
C98 C99 1.400 1_554 S
C98 C100 1.364 . S
C99 C98 1.400 1_556 S
C99 C103 1.377 . S
C100 C98 1.364 . S
C100 C101 1.374 . S
C101 H92 0.930 . S
C101 C100 1.374 . S
C101 C102 1.383 . S
C102 O96 1.412 . S
C102 C101 1.383 . S
C102 C103 1.394 1_554 S
C103 H93 0.929 . S
C103 C99 1.377 . S
C103 C102 1.394 1_556 S
Gd104 C107 2.818 . S
Gd104 O124 2.377 . S
Gd104 O126 2.448 . S
Gd104 O127 2.506 . S
Gd104 O128 2.435 . S
Gd104 O129 2.717 1_565 S
Gd104 O131 2.395 1_565 S
Gd104 O135 2.327 1_455 S
Gd105 C116 2.818 . S
Gd105 O125 2.395 1_545 S
Gd105 O129 2.327 1_655 S
Gd105 O130 2.377 . S
Gd105 O132 2.448 . S
Gd105 O133 2.506 . S
Gd105 O134 2.435 . S
Gd105 O135 2.717 1_545 S
C106 O124 1.240 1_655 S
C106 O125 1.240 . S
C107 Gd104 2.818 . S
C107 C108 1.508 1_556 S
C107 O126 1.249 . S
C107 O127 1.252 . S
C108 C107 1.508 1_554 S
C108 C109 1.406 . S
C108 C110 1.354 . S
C109 C108 1.406 . S
C109 C113 1.389 . S
C109 H136 0.930 1_554 S
C110 C108 1.354 . S
C110 C112 1.374 . S
C110 H137 0.931 1_455 S
C111 C112 1.359 . S
C111 C113 1.364 . S
C112 C110 1.374 . S
C112 C111 1.359 . S
C112 H138 0.931 1_455 S
C113 C109 1.389 . S
C113 C111 1.364 . S
C113 H139 0.931 . S
C114 O128 1.277 . S
C114 O129 1.247 1_565 S
C115 O130 1.240 1_455 S
C115 O131 1.240 . S
C116 Gd105 2.818 . S
C116 C117 1.510 . S
C116 O132 1.249 . S
C116 O133 1.252 . S
C117 C116 1.510 . S
C117 C118 1.404 . S
C117 C119 1.352 . S
C118 C117 1.404 . S
C118 C122 1.389 . S
C118 H140 0.930 . S
C119 C117 1.352 . S
C119 C121 1.374 . S
C119 H141 0.931 1_655 S
C120 C121 1.359 . S
C120 C122 1.364 . S
C121 C119 1.374 . S
C121 C120 1.359 . S
C121 H142 0.931 1_655 S
C122 C118 1.389 . S
C122 C120 1.364 . S
C122 H143 0.931 . S
C123 O134 1.256 . S
C123 O135 1.257 1_545 S
O124 Gd104 2.377 . S
O124 C106 1.240 1_455 S
O125 Gd105 2.395 1_565 S
O125 C106 1.240 . S
O126 Gd104 2.448 . S
O126 C107 1.249 . S
O127 Gd104 2.506 . S
O127 C107 1.252 . S
O128 Gd104 2.435 . S
O128 C114 1.277 . S
O129 Gd104 2.717 1_545 S
O129 Gd105 2.327 1_455 S
O129 C114 1.247 1_545 S
O130 Gd105 2.377 . S
O130 C115 1.240 1_655 S
O131 Gd104 2.395 1_545 S
O131 C115 1.240 . S
O132 Gd105 2.448 . S
O132 C116 1.249 . S
O133 Gd105 2.506 . S
O133 C116 1.252 . S
O134 Gd105 2.435 . S
O134 C123 1.256 . S
O135 Gd104 2.327 1_655 S
O135 Gd105 2.717 1_565 S
O135 C123 1.257 1_565 S
H136 C109 0.930 1_556 S
H137 C110 0.931 1_655 S
H138 C112 0.931 1_655 S
H139 C113 0.931 . S
H140 C118 0.930 . S
H141 C119 0.931 1_455 S
H142 C121 0.931 1_455 S
H143 C122 0.931 . S
Gd144 C147 2.818 . S
Gd144 O164 2.377 . S
Gd144 O166 2.448 . S
Gd144 O167 2.506 . S
Gd144 O168 2.435 . S
Gd144 O169 2.717 . S
Gd144 O171 2.395 . S
Gd144 O175 2.327 1_545 S
Gd145 C156 2.818 . S
Gd145 O165 2.395 . S
Gd145 O169 2.327 1_565 S
Gd145 O170 2.377 . S
Gd145 O172 2.448 . S
Gd145 O173 2.506 . S
Gd145 O174 2.435 . S
Gd145 O175 2.717 . S
C146 O164 1.240 1_565 S
C146 O165 1.240 . S
C147 Gd144 2.818 . S
C147 C148 1.507 1_556 S
C147 O166 1.249 . S
C147 O167 1.252 . S
C148 C147 1.507 1_554 S
C148 C149 1.406 . S
C148 C150 1.354 . S
C149 C148 1.406 . S
C149 C153 1.389 . S
C149 H176 0.930 1_554 S
C150 C148 1.354 . S
C150 C152 1.374 . S
C150 H177 0.931 1_545 S
C151 C152 1.359 . S
C151 C153 1.364 . S
C152 C150 1.374 . S
C152 C151 1.359 . S
C152 H178 0.931 1_545 S
C153 C149 1.389 . S
C153 C151 1.364 . S
C153 H179 0.931 . S
C154 O168 1.256 . S
C154 O169 1.257 . S
C155 O170 1.240 1_545 S
C155 O171 1.240 . S
C156 Gd145 2.818 . S
C156 C157 1.510 . S
C156 O172 1.249 . S
C156 O173 1.252 . S
C157 C156 1.510 . S
C157 C158 1.404 . S
C157 C159 1.352 . S
C158 C157 1.404 . S
C158 C162 1.389 . S
C158 H180 0.930 . S
C159 C157 1.352 . S
C159 C161 1.374 . S
C159 H181 0.931 1_565 S
C160 C161 1.359 . S
C160 C162 1.364 . S
C161 C159 1.374 . S
C161 C160 1.359 . S
C161 H182 0.931 1_565 S
C162 C158 1.389 . S
C162 C160 1.364 . S
C162 H183 0.931 . S
C163 O174 1.256 . S
C163 O175 1.257 . S
O164 Gd144 2.377 . S
O164 C146 1.240 1_545 S
O165 Gd145 2.395 . S
O165 C146 1.240 . S
O166 Gd144 2.448 . S
O166 C147 1.249 . S
O167 Gd144 2.506 . S
O167 C147 1.252 . S
O168 Gd144 2.435 . S
O168 C154 1.256 . S
O169 Gd144 2.717 . S
O169 Gd145 2.327 1_545 S
O169 C154 1.257 . S
O170 Gd145 2.377 . S
O170 C155 1.240 1_565 S
O171 Gd144 2.395 . S
O171 C155 1.240 . S
O172 Gd145 2.448 . S
O172 C156 1.249 . S
O173 Gd145 2.506 . S
O173 C156 1.252 . S
O174 Gd145 2.435 . S
O174 C163 1.256 . S
O175 Gd144 2.327 1_565 S
O175 Gd145 2.717 . S
O175 C163 1.257 . S
H176 C149 0.930 1_556 S
H177 C150 0.931 1_565 S
H178 C152 0.931 1_565 S
H179 C153 0.931 . S
H180 C158 0.930 . S
H181 C159 0.931 1_545 S
H182 C161 0.931 1_545 S
H183 C162 0.931 . S
Gd184 C187 2.818 . S
Gd184 O204 2.377 . S
Gd184 O206 2.448 . S
Gd184 O207 2.506 . S
Gd184 O208 2.435 . S
Gd184 O209 2.717 . S
Gd184 O211 2.395 . S
Gd184 O215 2.327 . S
Gd185 C196 2.818 . S
Gd185 O205 2.395 . S
Gd185 O209 2.327 . S
Gd185 O210 2.377 . S
Gd185 O212 2.448 . S
Gd185 O213 2.506 . S
Gd185 O214 2.435 . S
Gd185 O215 2.717 . S
C186 O204 1.240 . S
C186 O205 1.240 . S
C187 Gd184 2.818 . S
C187 C188 1.508 1_556 S
C187 O206 1.249 . S
C187 O207 1.252 . S
C188 C187 1.508 1_554 S
C188 C189 1.406 . S
C188 C190 1.354 . S
C189 C188 1.406 . S
C189 C193 1.389 . S
C189 H216 0.930 1_554 S
C190 C188 1.354 . S
C190 C192 1.374 . S
C190 H217 0.931 . S
C191 C192 1.359 . S
C191 C193 1.364 . S
C192 C190 1.374 . S
C192 C191 1.359 . S
C192 H218 0.931 . S
C193 C189 1.389 . S
C193 C191 1.364 . S
C193 H219 0.931 . S
C194 O208 1.256 . S
C194 O209 1.257 . S
C195 O210 1.240 . S
C195 O211 1.240 . S
C196 Gd185 2.818 . S
C196 C197 1.510 . S
C196 O212 1.249 . S
C196 O213 1.252 . S
C197 C196 1.510 . S
C197 C198 1.404 . S
C197 C199 1.352 . S
C198 C197 1.404 . S
C198 C202 1.389 . S
C198 H220 0.930 . S
C199 C197 1.352 . S
C199 C201 1.374 . S
C199 H221 0.931 . S
C200 C201 1.359 . S
C200 C202 1.364 . S
C201 C199 1.374 . S
C201 C200 1.359 . S
C201 H222 0.931 . S
C202 C198 1.389 . S
C202 C200 1.364 . S
C202 H223 0.931 . S
C203 O214 1.256 . S
C203 O215 1.257 . S
O204 Gd184 2.377 . S
O204 C186 1.240 . S
O205 Gd185 2.395 . S
O205 C186 1.240 . S
O206 Gd184 2.448 . S
O206 C187 1.249 . S
O207 Gd184 2.506 . S
O207 C187 1.252 . S
O208 Gd184 2.435 . S
O208 C194 1.256 . S
O209 Gd184 2.717 . S
O209 Gd185 2.327 . S
O209 C194 1.257 . S
O210 Gd185 2.377 . S
O210 C195 1.240 . S
O211 Gd184 2.395 . S
O211 C195 1.240 . S
O212 Gd185 2.448 . S
O212 C196 1.249 . S
O213 Gd185 2.506 . S
O213 C196 1.252 . S
O214 Gd185 2.435 . S
O214 C203 1.256 . S
O215 Gd184 2.327 . S
O215 Gd185 2.717 . S
O215 C203 1.257 . S
H216 C189 0.930 1_556 S
H217 C190 0.931 . S
H218 C192 0.931 . S
H219 C193 0.931 . S
H220 C198 0.930 . S
H221 C199 0.931 . S
H222 C201 0.931 . S
H223 C202 0.931 . S
Gd224 C227 2.818 . S
Gd224 O244 2.377 . S
Gd224 O246 2.448 . S
Gd224 O247 2.506 . S
Gd224 O248 2.435 . S
Gd224 O249 2.717 1_655 S
Gd224 O251 2.395 1_655 S
Gd224 O255 2.327 . S
Gd225 C236 2.818 . S
Gd225 O245 2.395 1_455 S
Gd225 O249 2.327 . S
Gd225 O250 2.377 . S
Gd225 O252 2.448 . S
Gd225 O253 2.506 . S
Gd225 O254 2.435 . S
Gd225 O255 2.717 1_455 S
C226 O244 1.240 . S
C226 O245 1.240 . S
C227 Gd224 2.818 . S
C227 C228 1.509 1_556 S
C227 O246 1.249 . S
C227 O247 1.252 . S
C228 C227 1.509 1_554 S
C228 C229 1.405 . S
C228 C230 1.353 . S
C229 C228 1.405 . S
C229 C233 1.389 . S
C229 H256 0.930 1_554 S
C230 C228 1.353 . S
C230 C232 1.374 . S
C230 H257 0.931 . S
C231 C232 1.359 . S
C231 C233 1.364 . S
C232 C230 1.374 . S
C232 C231 1.359 . S
C232 H258 0.931 . S
C233 C229 1.389 . S
C233 C231 1.364 . S
C233 H259 0.931 . S
C234 O248 1.263 . S
C234 O249 1.253 1_655 S
C235 O250 1.240 . S
C235 O251 1.240 . S
C236 Gd225 2.818 . S
C236 C237 1.510 . S
C236 O252 1.249 . S
C236 O253 1.252 . S
C237 C236 1.510 . S
C237 C238 1.404 . S
C237 C239 1.352 . S
C238 C237 1.404 . S
C238 C242 1.389 . S
C238 H260 0.930 . S
C239 C237 1.352 . S
C239 C241 1.374 . S
C239 H261 0.931 . S
C240 C241 1.359 . S
C240 C242 1.364 . S
C241 C239 1.374 . S
C241 C240 1.359 . S
C241 H262 0.931 . S
C242 C238 1.389 . S
C242 C240 1.364 . S
C242 H263 0.931 . S
C243 O254 1.256 . S
C243 O255 1.257 1_455 S
O244 Gd224 2.377 . S
O244 C226 1.240 . S
O245 Gd225 2.395 1_655 S
O245 C226 1.240 . S
O246 Gd224 2.448 . S
O246 C227 1.249 . S
O247 Gd224 2.506 . S
O247 C227 1.252 . S
O248 Gd224 2.435 . S
O248 C234 1.263 . S
O249 Gd224 2.717 1_455 S
O249 Gd225 2.327 . S
O249 C234 1.253 1_455 S
O250 Gd225 2.377 . S
O250 C235 1.240 . S
O251 Gd224 2.395 1_455 S
O251 C235 1.240 . S
O252 Gd225 2.448 . S
O252 C236 1.249 . S
O253 Gd225 2.506 . S
O253 C236 1.252 . S
O254 Gd225 2.435 . S
O254 C243 1.256 . S
O255 Gd224 2.327 . S
O255 Gd225 2.717 1_655 S
O255 C243 1.257 1_655 S
H256 C229 0.930 1_556 S
H257 C230 0.931 . S
H258 C232 0.931 . S
H259 C233 0.931 . S
H260 C238 0.930 . S
H261 C239 0.931 . S
H262 C241 0.931 . S
H263 C242 0.931 . S
H264 C270 0.930 . S
H265 C274 0.930 . S
H266 C279 0.929 . S
H267 C277 0.929 . S
H268 C272 0.929 . S
H269 C278 0.929 . S
C270 H264 0.930 . S
C270 C271 1.367 . S
C270 C278 1.378 . S
C271 C270 1.367 . S
C271 C279 1.433 1_545 S
C272 H268 0.929 . S
C272 C274 1.378 . S
C272 C276 1.350 1_565 S
C273 C276 1.463 . S
C273 C278 1.350 . S
C273 N281 1.427 1_545 S
C274 H265 0.930 . S
C274 C272 1.378 . S
C274 C275 1.367 1_565 S
C275 C274 1.367 1_545 S
C275 C277 1.433 . S
C276 C272 1.350 1_545 S
C276 C273 1.463 . S
C276 N280 1.427 . S
C277 H267 0.929 . S
C277 C275 1.433 . S
C277 N280 1.384 . S
C278 H269 0.929 . S
C278 C270 1.378 . S
C278 C273 1.350 . S
C279 H266 0.929 . S
C279 C271 1.433 1_565 S
C279 N281 1.384 . S
N280 C276 1.427 . S
N280 C277 1.384 . S
N281 C273 1.427 1_565 S
N281 C279 1.384 . S
H282 C288 0.930 . S
H283 C292 0.930 . S
H284 C297 0.929 . S
H285 C295 0.929 . S
H286 C290 0.929 . S
H287 C296 0.929 . S
C288 H282 0.930 . S
C288 C289 1.367 . S
C288 C296 1.378 . S
C289 C288 1.367 . S
C289 C297 1.433 . S
C290 H286 0.929 . S
C290 C292 1.378 . S
C290 C294 1.350 . S
C291 C294 1.463 . S
C291 C296 1.350 . S
C291 N299 1.427 . S
C292 H283 0.930 . S
C292 C290 1.378 . S
C292 C293 1.367 . S
C293 C292 1.367 . S
C293 C295 1.433 . S
C294 C290 1.350 . S
C294 C291 1.463 . S
C294 N298 1.427 . S
C295 H285 0.929 . S
C295 C293 1.433 . S
C295 N298 1.384 . S
C296 H287 0.929 . S
C296 C288 1.378 . S
C296 C291 1.350 . S
C297 H284 0.929 . S
C297 C289 1.433 . S
C297 N299 1.384 . S
N298 C294 1.427 . S
N298 C295 1.384 . S
N299 C291 1.427 . S
N299 C297 1.384 . S
H300 C306 0.930 . S
H301 C310 0.930 . S
H302 C315 0.929 . S
H303 C313 0.929 . S
H304 C308 0.929 . S
H305 C314 0.929 . S
C306 H300 0.930 . S
C306 C307 1.367 . S
C306 C314 1.378 . S
C307 C306 1.367 . S
C307 C315 1.433 . S
C308 H304 0.929 . S
C308 C310 1.378 . S
C308 C312 1.350 . S
C309 C312 1.463 . S
C309 C314 1.350 . S
C309 N317 1.427 . S
C310 H301 0.930 . S
C310 C308 1.378 . S
C310 C311 1.367 . S
C311 C310 1.367 . S
C311 C313 1.433 . S
C312 C308 1.350 . S
C312 C309 1.463 . S
C312 N316 1.427 . S
C313 H303 0.929 . S
C313 C311 1.433 . S
C313 N316 1.384 . S
C314 H305 0.929 . S
C314 C306 1.378 . S
C314 C309 1.350 . S
C315 H302 0.929 . S
C315 C307 1.433 . S
C315 N317 1.384 . S
N316 C312 1.427 . S
N316 C313 1.384 . S
N317 C309 1.427 . S
N317 C315 1.384 . S
H318 C324 0.930 . S
H319 C328 0.930 . S
H320 C333 0.929 . S
H321 C331 0.929 . S
H322 C326 0.929 . S
H323 C332 0.929 . S
C324 H318 0.930 . S
C324 C325 1.367 1_655 S
C324 C332 1.378 . S
C325 C324 1.367 1_455 S
C325 C333 1.433 . S
C326 H322 0.929 . S
C326 C328 1.378 . S
C326 C330 1.350 . S
C327 C330 1.463 . S
C327 C332 1.350 1_455 S
C327 N335 1.427 . S
C328 H319 0.930 . S
C328 C326 1.378 . S
C328 C329 1.367 . S
C329 C328 1.367 . S
C329 C331 1.433 1_455 S
C330 C326 1.350 . S
C330 C327 1.463 . S
C330 N334 1.427 1_455 S
C331 H321 0.929 . S
C331 C329 1.433 1_655 S
C331 N334 1.384 . S
C332 H323 0.929 . S
C332 C324 1.378 . S
C332 C327 1.350 1_655 S
C333 H320 0.929 . S
C333 C325 1.433 . S
C333 N335 1.384 . S
N334 C330 1.427 1_655 S
N334 C331 1.384 . S
N335 C327 1.427 . S
N335 C333 1.384 . S
H336 C342 0.930 . S
H337 C346 0.930 . S
H338 C351 0.929 . S
H339 C349 0.929 . S
H340 C344 0.929 . S
H341 C350 0.929 . S
C342 H336 0.930 . S
C342 C343 1.367 1_545 S
C342 C350 1.378 . S
C343 C342 1.367 1_565 S
C343 C351 1.433 . S
C344 H340 0.929 . S
C344 C346 1.378 1_554 S
C344 C348 1.350 . S
C345 C348 1.463 . S
C345 C350 1.350 1_565 S
C345 N353 1.427 . S
C346 H337 0.930 . S
C346 C344 1.378 1_556 S
C346 C347 1.367 . S
C347 C346 1.367 . S
C347 C349 1.433 1_565 S
C348 C344 1.350 . S
C348 C345 1.463 . S
C348 N352 1.427 1_565 S
C349 H339 0.929 . S
C349 C347 1.433 1_545 S
C349 N352 1.384 1_556 S
C350 H341 0.929 . S
C350 C342 1.378 . S
C350 C345 1.350 1_545 S
C351 H338 0.929 . S
C351 C343 1.433 . S
C351 N353 1.384 . S
N352 C348 1.427 1_545 S
N352 C349 1.384 1_554 S
N353 C345 1.427 . S
N353 C351 1.384 . S
H354 C360 0.930 . S
H355 C364 0.930 . S
H356 C369 0.929 . S
H357 C367 0.929 . S
H358 C362 0.929 . S
H359 C368 0.929 . S
C360 H354 0.930 . S
C360 C361 1.367 . S
C360 C368 1.378 . S
C361 C360 1.367 . S
C361 C369 1.433 . S
C362 H358 0.929 . S
C362 C364 1.378 . S
C362 C366 1.350 1_556 S
C363 C366 1.463 . S
C363 C368 1.350 . S
C363 N371 1.427 . S
C364 H355 0.930 . S
C364 C362 1.378 . S
C364 C365 1.367 . S
C365 C364 1.367 . S
C365 C367 1.433 1_556 S
C366 C362 1.350 1_554 S
C366 C363 1.463 . S
C366 N370 1.427 . S
C367 H357 0.929 . S
C367 C365 1.433 1_554 S
C367 N370 1.384 . S
C368 H359 0.929 . S
C368 C360 1.378 . S
C368 C363 1.350 . S
C369 H356 0.929 . S
C369 C361 1.433 . S
C369 N371 1.384 . S
N370 C366 1.427 . S
N370 C367 1.384 . S
N371 C363 1.427 . S
N371 C369 1.384 . S
H372 C378 0.930 . S
H373 C382 0.930 . S
H374 C387 0.929 . S
H375 C385 0.929 . S
H376 C380 0.929 . S
H377 C386 0.929 . S
C378 H372 0.930 . S
C378 C379 1.367 . S
C378 C386 1.378 . S
C379 C378 1.367 . S
C379 C387 1.433 . S
C380 H376 0.929 . S
C380 C382 1.378 . S
C380 C384 1.350 . S
C381 C384 1.463 . S
C381 C386 1.350 . S
C381 N389 1.427 . S
C382 H373 0.930 . S
C382 C380 1.378 . S
C382 C383 1.367 1_554 S
C383 C382 1.367 1_556 S
C383 C385 1.433 . S
C384 C380 1.350 . S
C384 C381 1.463 . S
C384 N388 1.427 1_554 S
C385 H375 0.929 . S
C385 C383 1.433 . S
C385 N388 1.384 . S
C386 H377 0.929 . S
C386 C378 1.378 . S
C386 C381 1.350 . S
C387 H374 0.929 . S
C387 C379 1.433 . S
C387 N389 1.384 . S
N388 C384 1.427 1_556 S
N388 C385 1.384 . S
N389 C381 1.427 . S
N389 C387 1.384 . S
H390 C396 0.930 . S
H391 C400 0.930 . S
H392 C405 0.929 . S
H393 C403 0.929 . S
H394 C398 0.929 . S
H395 C404 0.929 . S
C396 H390 0.930 . S
C396 C397 1.344 1_455 S
C396 C404 1.378 . S
C397 C396 1.344 1_655 S
C397 C405 1.456 . S
C398 H394 0.929 . S
C398 C400 1.378 1_554 S
C398 C402 1.350 . S
C399 C402 1.464 . S
C399 C404 1.329 1_655 S
C399 N407 1.449 . S
C400 H391 0.930 . S
C400 C398 1.378 1_556 S
C400 C401 1.367 . S
C401 C400 1.367 . S
C401 C403 1.433 1_655 S
C402 C398 1.350 . S
C402 C399 1.464 . S
C402 N406 1.427 1_655 S
C403 H393 0.929 . S
C403 C401 1.433 1_455 S
C403 N406 1.384 1_556 S
C404 H395 0.929 . S
C404 C396 1.378 . S
C404 C399 1.329 1_455 S
C405 H392 0.929 . S
C405 C397 1.456 . S
C405 N407 1.384 . S
N406 C402 1.427 1_455 S
N406 C403 1.384 1_554 S
N407 C399 1.449 . S
N407 C405 1.384 . S
H408 C414 0.930 . S
H409 C418 0.930 . S
H410 C423 0.929 . S
H411 C421 0.929 . S
H412 C416 0.929 . S
H413 C422 0.929 . S
C414 H408 0.930 . S
C414 C415 1.367 . S
C414 C422 1.378 . S
C415 C414 1.367 . S
C415 C423 1.433 1_455 S
C416 H412 0.929 . S
C416 C418 1.378 . S
C416 C420 1.350 . S
C417 C420 1.463 . S
C417 C422 1.350 1_655 S
C417 N425 1.427 . S
C418 H409 0.930 . S
C418 C416 1.378 . S
C418 C419 1.367 . S
C419 C418 1.367 . S
C419 C421 1.433 . S
C420 C416 1.350 . S
C420 C417 1.463 . S
C420 N424 1.427 . S
C421 H411 0.929 . S
C421 C419 1.433 . S
C421 N424 1.384 . S
C422 H413 0.929 . S
C422 C414 1.378 . S
C422 C417 1.350 1_455 S
C423 H410 0.929 . S
C423 C415 1.433 1_655 S
C423 N425 1.384 . S
N424 C420 1.427 . S
N424 C421 1.384 . S
N425 C417 1.427 . S
N425 C423 1.384 . S
H426 C432 0.930 . S
H427 C436 0.930 . S
H428 C441 0.929 . S
H429 C439 0.929 . S
H430 C434 0.929 . S
H431 C440 0.929 . S
C432 H426 0.930 . S
C432 C433 1.367 . S
C432 C440 1.378 . S
C433 C432 1.367 . S
C433 C441 1.433 1_545 S
C434 H430 0.929 . S
C434 C436 1.378 . S
C434 C438 1.350 . S
C435 C438 1.463 . S
C435 C440 1.350 1_565 S
C435 N443 1.427 . S
C436 H427 0.930 . S
C436 C434 1.378 . S
C436 C437 1.367 . S
C437 C436 1.367 . S
C437 C439 1.433 . S
C438 C434 1.350 . S
C438 C435 1.463 . S
C438 N442 1.427 . S
C439 H429 0.929 . S
C439 C437 1.433 . S
C439 N442 1.384 . S
C440 H431 0.929 . S
C440 C432 1.378 . S
C440 C435 1.350 1_545 S
C441 H428 0.929 . S
C441 C433 1.433 1_565 S
C441 N443 1.384 . S
N442 C438 1.427 . S
N442 C439 1.384 . S
N443 C435 1.427 . S
N443 C441 1.384 . S
H444 C450 0.930 . S
H445 C454 0.930 . S
H446 C459 0.929 . S
H447 C457 0.929 . S
H448 C452 0.929 . S
H449 C458 0.929 . S
C450 H444 0.930 . S
C450 C451 1.367 . S
C450 C458 1.378 . S
C451 C450 1.367 . S
C451 C459 1.433 . S
C452 H448 0.929 . S
C452 C454 1.378 . S
C452 C456 1.350 . S
C453 C456 1.463 . S
C453 C458 1.350 . S
C453 N461 1.427 . S
C454 H445 0.930 . S
C454 C452 1.378 . S
C454 C455 1.367 . S
C455 C454 1.367 . S
C455 C457 1.433 . S
C456 C452 1.350 . S
C456 C453 1.463 . S
C456 N460 1.427 . S
C457 H447 0.929 . S
C457 C455 1.433 . S
C457 N460 1.384 . S
C458 H449 0.929 . S
C458 C450 1.378 . S
C458 C453 1.350 . S
C459 H446 0.929 . S
C459 C451 1.433 . S
C459 N461 1.384 . S
N460 C456 1.427 . S
N460 C457 1.384 . S
N461 C453 1.427 . S
N461 C459 1.384 . S
H462 C468 0.930 . S
H463 C472 0.930 . S
H464 C477 0.929 . S
H465 C475 0.929 . S
H466 C470 0.929 . S
H467 C476 0.929 . S
C468 H462 0.930 . S
C468 C469 1.367 . S
C468 C476 1.378 . S
C469 C468 1.367 . S
C469 C477 1.433 . S
C470 H466 0.929 . S
C470 C472 1.378 . S
C470 C474 1.350 . S
C471 C474 1.463 . S
C471 C476 1.350 . S
C471 N479 1.427 . S
C472 H463 0.930 . S
C472 C470 1.378 . S
C472 C473 1.367 . S
C473 C472 1.367 . S
C473 C475 1.433 . S
C474 C470 1.350 . S
C474 C471 1.463 . S
C474 N478 1.427 . S
C475 H465 0.929 . S
C475 C473 1.433 . S
C475 N478 1.384 . S
C476 H467 0.929 . S
C476 C468 1.378 . S
C476 C471 1.350 . S
C477 H464 0.929 . S
C477 C469 1.433 . S
C477 N479 1.384 . S
N478 C474 1.427 . S
N478 C475 1.384 . S
N479 C471 1.427 . S
N479 C477 1.384 . S
H480 C486 0.930 . S
H481 C490 0.930 1_556 S
H482 C495 0.929 . S
H483 C493 0.929 . S
H484 C488 0.929 . S
H485 C494 0.929 . S
C486 H480 0.930 . S
C486 C487 1.367 1_455 S
C486 C494 1.378 . S
C487 C486 1.367 1_655 S
C487 C495 1.433 . S
C488 H484 0.929 . S
C488 C490 1.378 . S
C488 C492 1.350 . S
C489 C492 1.463 . S
C489 C494 1.350 . S
C489 N497 1.427 . S
C490 H481 0.930 1_554 S
C490 C488 1.378 . S
C490 C491 1.367 . S
C491 C490 1.367 . S
C491 C493 1.433 . S
C492 C488 1.350 . S
C492 C489 1.463 . S
C492 N496 1.427 . S
C493 H483 0.929 . S
C493 C491 1.433 . S
C493 N496 1.384 . S
C494 H485 0.929 . S
C494 C486 1.378 . S
C494 C489 1.350 . S
C495 H482 0.929 . S
C495 C487 1.433 . S
C495 N497 1.384 1_655 S
N496 C492 1.427 . S
N496 C493 1.384 . S
N497 C489 1.427 . S
N497 C495 1.384 1_455 S
H498 C504 0.930 . S
H499 C508 0.930 1_565 S
H500 C513 0.929 . S
H501 C511 0.929 . S
H502 C506 0.929 1_565 S
H503 C512 0.929 . S
C504 H498 0.930 . S
C504 C505 1.367 1_545 S
C504 C512 1.378 . S
C505 C504 1.367 1_565 S
C505 C513 1.433 . S
C506 H502 0.929 1_545 S
C506 C508 1.378 . S
C506 C510 1.350 . S
C507 C510 1.463 . S
C507 C512 1.350 . S
C507 N515 1.427 1_545 S
C508 H499 0.930 1_545 S
C508 C506 1.378 . S
C508 C509 1.367 . S
C509 C508 1.367 . S
C509 C511 1.433 . S
C510 C506 1.350 . S
C510 C507 1.463 . S
C510 N514 1.427 . S
C511 H501 0.929 . S
C511 C509 1.433 . S
C511 N514 1.384 . S
C512 H503 0.929 . S
C512 C504 1.378 . S
C512 C507 1.350 . S
C513 H500 0.929 . S
C513 C505 1.433 . S
C513 N515 1.384 . S
N514 C510 1.427 . S
N514 C511 1.384 . S
N515 C507 1.427 1_565 S
N515 C513 1.384 . S
H516 C522 0.930 . S
H517 C526 0.930 . S
H518 C531 0.929 . S
H519 C529 0.929 1_556 S
H520 C524 0.929 . S
H521 C530 0.929 . S
C522 H516 0.930 . S
C522 C523 1.367 . S
C522 C530 1.378 . S
C523 C522 1.367 . S
C523 C531 1.433 . S
C524 H520 0.929 . S
C524 C526 1.378 . S
C524 C528 1.350 . S
C525 C528 1.463 . S
C525 C530 1.350 . S
C525 N533 1.427 . S
C526 H517 0.930 . S
C526 C524 1.378 . S
C526 C527 1.367 . S
C527 C526 1.367 . S
C527 C529 1.433 . S
C528 C524 1.350 . S
C528 C525 1.463 . S
C528 N532 1.427 . S
C529 H519 0.929 1_554 S
C529 C527 1.433 . S
C529 N532 1.384 . S
C530 H521 0.929 . S
C530 C522 1.378 . S
C530 C525 1.350 . S
C531 H518 0.929 . S
C531 C523 1.433 . S
C531 N533 1.384 . S
N532 C528 1.427 . S
N532 C529 1.384 . S
N533 C525 1.427 . S
N533 C531 1.384 . S
H534 C540 0.930 . S
H535 C544 0.930 . S
H536 C549 0.929 . S
H537 C547 0.929 1_556 S
H538 C542 0.929 . S
H539 C548 0.929 . S
C540 H534 0.930 . S
C540 C541 1.367 . S
C540 C548 1.378 . S
C541 C540 1.367 . S
C541 C549 1.433 . S
C542 H538 0.929 . S
C542 C544 1.378 . S
C542 C546 1.350 . S
C543 C546 1.463 . S
C543 C548 1.350 . S
C543 N551 1.427 . S
C544 H535 0.930 . S
C544 C542 1.378 . S
C544 C545 1.367 . S
C545 C544 1.367 . S
C545 C547 1.433 . S
C546 C542 1.350 . S
C546 C543 1.463 . S
C546 N550 1.427 . S
C547 H537 0.929 1_554 S
C547 C545 1.433 . S
C547 N550 1.384 . S
C548 H539 0.929 . S
C548 C540 1.378 . S
C548 C543 1.350 . S
C549 H536 0.929 . S
C549 C541 1.433 . S
C549 N551 1.384 . S
N550 C546 1.427 . S
N550 C547 1.384 . S
N551 C543 1.427 . S
N551 C549 1.384 . S
H552 C558 0.930 . S
H553 C562 0.930 . S
H554 C567 0.929 . S
H555 C565 0.929 . S
H556 C560 0.929 . S
H557 C566 0.929 . S
C558 H552 0.930 . S
C558 C559 1.367 . S
C558 C566 1.378 . S
C559 C558 1.367 . S
C559 C567 1.433 1_455 S
C560 H556 0.929 . S
C560 C562 1.378 . S
C560 C564 1.350 1_655 S
C561 C564 1.463 . S
C561 C566 1.350 . S
C561 N569 1.427 1_455 S
C562 H553 0.930 . S
C562 C560 1.378 . S
C562 C563 1.367 1_655 S
C563 C562 1.367 1_455 S
C563 C565 1.433 . S
C564 C560 1.350 1_455 S
C564 C561 1.463 . S
C564 N568 1.427 . S
C565 H555 0.929 . S
C565 C563 1.433 . S
C565 N568 1.384 . S
C566 H557 0.929 . S
C566 C558 1.378 . S
C566 C561 1.350 . S
C567 H554 0.929 . S
C567 C559 1.433 1_655 S
C567 N569 1.384 . S
N568 C564 1.427 . S
N568 C565 1.384 . S
N569 C561 1.427 1_655 S
N569 C567 1.384 . S
H570 C576 0.930 1_554 S
H571 C580 0.930 . S
H572 C585 0.928 1_565 S
H573 C583 0.929 . S
H574 C578 0.929 . S
H575 C584 0.929 . S
C576 H570 0.930 1_556 S
C576 C577 1.367 . S
C576 C584 1.378 . S
C577 C576 1.367 . S
C577 C585 1.434 . S
C578 H574 0.929 . S
C578 C580 1.378 . S
C578 C582 1.350 . S
C579 C582 1.463 . S
C579 C584 1.350 . S
C579 N587 1.427 . S
C580 H571 0.930 . S
C580 C578 1.378 . S
C580 C581 1.367 . S
C581 C580 1.367 . S
C581 C583 1.433 . S
C582 C578 1.350 . S
C582 C579 1.463 . S
C582 N586 1.427 . S
C583 H573 0.929 . S
C583 C581 1.433 . S
C583 N586 1.384 . S
C584 H575 0.929 . S
C584 C576 1.378 . S
C584 C579 1.350 . S
C585 H572 0.928 1_545 S
C585 C577 1.434 . S
C585 N587 1.384 . S
N586 C582 1.427 . S
N586 C583 1.384 . S
N587 C579 1.427 . S
N587 C585 1.384 . S
H588 C594 0.930 . S
H589 C598 0.930 . S
H590 C603 0.929 . S
H591 C601 0.929 . S
H592 C596 0.929 . S
H593 C602 0.929 . S
C594 H588 0.930 . S
C594 C595 1.367 . S
C594 C602 1.378 . S
C595 C594 1.367 . S
C595 C603 1.433 . S
C596 H592 0.929 . S
C596 C598 1.378 . S
C596 C600 1.350 . S
C597 C600 1.463 . S
C597 C602 1.350 . S
C597 N605 1.427 . S
C598 H589 0.930 . S
C598 C596 1.378 . S
C598 C599 1.367 . S
C599 C598 1.367 . S
C599 C601 1.433 . S
C600 C596 1.350 . S
C600 C597 1.463 . S
C600 N604 1.427 . S
C601 H591 0.929 . S
C601 C599 1.433 . S
C601 N604 1.384 . S
C602 H593 0.929 . S
C602 C594 1.378 . S
C602 C597 1.350 . S
C603 H590 0.929 . S
C603 C595 1.433 . S
C603 N605 1.384 . S
N604 C600 1.427 . S
N604 C601 1.384 . S
N605 C597 1.427 . S
N605 C603 1.384 . S
H606 C612 0.930 . S
H607 C616 0.930 . S
H608 C621 0.929 . S
H609 C619 0.929 . S
H610 C614 0.929 . S
H611 C620 0.929 . S
C612 H606 0.930 . S
C612 C613 1.367 . S
C612 C620 1.378 . S
C613 C612 1.367 . S
C613 C621 1.433 . S
C614 H610 0.929 . S
C614 C616 1.378 . S
C614 C618 1.350 . S
C615 C618 1.463 . S
C615 C620 1.350 . S
C615 N623 1.427 . S
C616 H607 0.930 . S
C616 C614 1.378 . S
C616 C617 1.367 . S
C617 C616 1.367 . S
C617 C619 1.433 . S
C618 C614 1.350 . S
C618 C615 1.463 . S
C618 N622 1.427 . S
C619 H609 0.929 . S
C619 C617 1.433 . S
C619 N622 1.384 . S
C620 H611 0.929 . S
C620 C612 1.378 . S
C620 C615 1.350 . S
C621 H608 0.929 . S
C621 C613 1.433 . S
C621 N623 1.384 . S
N622 C618 1.427 . S
N622 C619 1.384 . S
N623 C615 1.427 . S
N623 C621 1.384 . S
H624 C630 0.930 . S
H625 C634 0.930 . S
H626 C639 0.929 . S
H627 C637 0.929 . S
H628 C632 0.929 . S
H629 C638 0.929 . S
C630 H624 0.930 . S
C630 C631 1.367 . S
C630 C638 1.378 . S
C631 C630 1.367 . S
C631 C639 1.433 1_655 S
C632 H628 0.929 . S
C632 C634 1.378 . S
C632 C636 1.350 1_455 S
C633 C636 1.463 . S
C633 C638 1.350 . S
C633 N641 1.427 1_655 S
C634 H625 0.930 . S
C634 C632 1.378 . S
C634 C635 1.367 1_455 S
C635 C634 1.367 1_655 S
C635 C637 1.433 . S
C636 C632 1.350 1_655 S
C636 C633 1.463 . S
C636 N640 1.427 . S
C637 H627 0.929 . S
C637 C635 1.433 . S
C637 N640 1.384 . S
C638 H629 0.929 . S
C638 C630 1.378 . S
C638 C633 1.350 . S
C639 H626 0.929 . S
C639 C631 1.433 1_455 S
C639 N641 1.384 . S
N640 C636 1.427 . S
N640 C637 1.384 . S
N641 C633 1.427 1_455 S
N641 C639 1.384 . S
H642 C648 0.930 . S
H643 C652 0.930 . S
H644 C657 0.929 . S
H645 C655 0.917 1_545 S
H646 C650 0.929 . S
H647 C656 0.929 . S
C648 H642 0.930 . S
C648 C649 1.367 1_545 S
C648 C656 1.378 . S
C649 C648 1.367 1_565 S
C649 C657 1.433 . S
C650 H646 0.929 . S
C650 C652 1.378 . S
C650 C654 1.350 . S
C651 C654 1.463 . S
C651 C656 1.350 1_565 S
C651 N659 1.427 . S
C652 H643 0.930 . S
C652 C650 1.378 . S
C652 C653 1.367 . S
C653 C652 1.367 . S
C653 C655 1.449 . S
C654 C650 1.350 . S
C654 C651 1.463 . S
C654 N658 1.419 1_565 S
C655 H645 0.917 1_565 S
C655 C653 1.449 . S
C655 N658 1.381 1_565 S
C656 H647 0.929 . S
C656 C648 1.378 . S
C656 C651 1.350 1_545 S
C657 H644 0.929 . S
C657 C649 1.433 . S
C657 N659 1.384 . S
N658 C654 1.419 1_545 S
N658 C655 1.381 1_545 S
N659 C651 1.427 . S
N659 C657 1.384 . S
H660 C666 0.930 . S
H661 C670 0.930 . S
H662 C675 0.929 . S
H663 C673 0.929 . S
H664 C668 0.929 . S
H665 C674 0.929 . S
C666 H660 0.930 . S
C666 C667 1.367 . S
C666 C674 1.378 . S
C667 C666 1.367 . S
C667 C675 1.433 . S
C668 H664 0.929 . S
C668 C670 1.378 . S
C668 C672 1.350 . S
C669 C672 1.463 . S
C669 C674 1.350 . S
C669 N677 1.427 . S
C670 H661 0.930 . S
C670 C668 1.378 . S
C670 C671 1.367 . S
C671 C670 1.367 . S
C671 C673 1.433 . S
C672 C668 1.350 . S
C672 C669 1.463 . S
C672 N676 1.427 . S
C673 H663 0.929 . S
C673 C671 1.433 . S
C673 N676 1.384 . S
C674 H665 0.929 . S
C674 C666 1.378 . S
C674 C669 1.350 . S
C675 H662 0.929 . S
C675 C667 1.433 . S
C675 N677 1.384 . S
N676 C672 1.427 . S
N676 C673 1.384 . S
N677 C669 1.427 . S
N677 C675 1.384 . S
H678 C684 0.930 . S
H679 C688 0.930 . S
H680 C693 0.929 . S
H681 C691 0.929 . S
H682 C686 0.929 . S
H683 C692 0.929 . S
C684 H678 0.930 . S
C684 C685 1.367 . S
C684 C692 1.378 . S
C685 C684 1.367 . S
C685 C693 1.433 . S
C686 H682 0.929 . S
C686 C688 1.378 . S
C686 C690 1.350 . S
C687 C690 1.463 . S
C687 C692 1.350 . S
C687 N695 1.427 . S
C688 H679 0.930 . S
C688 C686 1.378 . S
C688 C689 1.367 . S
C689 C688 1.367 . S
C689 C691 1.433 . S
C690 C686 1.350 . S
C690 C687 1.463 . S
C690 N694 1.427 . S
C691 H681 0.929 . S
C691 C689 1.433 . S
C691 N694 1.384 . S
C692 H683 0.929 . S
C692 C684 1.378 . S
C692 C687 1.350 . S
C693 H680 0.929 . S
C693 C685 1.433 . S
C693 N695 1.384 . S
N694 C690 1.427 . S
N694 C691 1.384 . S
N695 C687 1.427 . S
N695 C693 1.384 . S
C271 C82 1.684 . S
C275 C114 1.955 1_545 S
C293 C154 1.959 . S
C289 C95 1.671 . S
C311 C194 1.959 . S
C307 C56 1.688 . S
C329 C234 1.961 1_455 S
C325 C69 1.676 . S
C347 C123 1.963 1_565 S
C343 C30 1.686 1_565 S
C361 C43 1.695 . S
C365 C163 1.962 . S
C379 C4 1.675 . S
C383 C203 1.960 . S
C397 C17 1.673 1_655 S
C401 C243 1.963 1_655 S
C419 C120 0.550 . S
C415 C74 0.533 . S
C437 C160 0.548 . S
C433 C87 0.532 . S
C455 C200 0.548 . S
C451 C100 0.532 . S
C469 C61 0.522 . S
C473 C240 0.529 . S
C487 C22 0.534 . S
C491 C111 0.539 . S
C509 C151 0.521 . S
C505 C35 0.536 . S
C527 C191 0.541 . S
C523 C48 0.562 . S
C541 C9 0.562 . S
C545 C231 0.541 . S
C559 C73 2.016 . S
C563 C115 2.252 . S
C577 C86 2.005 . S
C581 C155 2.257 . S
C599 C195 2.256 . S
C595 C99 2.020 . S
C617 C235 2.261 . S
C613 C60 2.022 . S
C631 C21 2.027 . S
C635 C106 2.260 . S
C653 C146 2.260 . S
C649 C34 2.025 . S
C671 C186 2.258 . S
C667 C47 2.025 . S
C685 C8 2.022 . S
C689 C226 2.256 . S
