# Generated by pormake.
# Topology anh, (6,3)-cn, num edge types: 1
# Building blocks:
#     Node 0, Type 0, BuildingBlock: BETDIP_clean_sbu_0, # of connection points: 6
#     Node 1, Type 0, BuildingBlock: BETDIP_clean_sbu_0, # of connection points: 6
#     Node 2, Type 0, BuildingBlock: BETDIP_clean_sbu_0, # of connection points: 6
#     Node 3, Type 1, BuildingBlock: MIDCAF_clean_linker_0, # of connection points: 3
#     Node 4, Type 1, BuildingBlock: MIDCAF_clean_linker_0, # of connection points: 3
#     Node 5, Type 1, BuildingBlock: MIDCAF_clean_linker_0, # of connection points: 3
#     Node 6, Type 1, BuildingBlock: MIDCAF_clean_linker_0, # of connection points: 3
#     Node 7, Type 1, BuildingBlock: MIDCAF_clean_linker_0, # of connection points: 3
#     Node 8, Type 1, BuildingBlock: MIDCAF_clean_linker_0, # of connection points: 3
#     Edge 9, Type (0, 1), BuildingBlock: ZUJKAS_clean_linker_0, # of connection points: 2
#     Edge 10, Type (0, 1), BuildingBlock: ZUJKAS_clean_linker_0, # of connection points: 2
#     Edge 11, Type (0, 1), BuildingBlock: ZUJKAS_clean_linker_0, # of connection points: 2
#     Edge 12, Type (0, 1), BuildingBlock: ZUJKAS_clean_linker_0, # of connection points: 2
#     Edge 13, Type (0, 1), BuildingBlock: ZUJKAS_clean_linker_0, # of connection points: 2
#     Edge 14, Type (0, 1), BuildingBlock: ZUJKAS_clean_linker_0, # of connection points: 2
#     Edge 15, Type (0, 1), BuildingBlock: ZUJKAS_clean_linker_0, # of connection points: 2
#     Edge 16, Type (0, 1), BuildingBlock: ZUJKAS_clean_linker_0, # of connection points: 2
#     Edge 17, Type (0, 1), BuildingBlock: ZUJKAS_clean_linker_0, # of connection points: 2
#     Edge 18, Type (0, 1), BuildingBlock: ZUJKAS_clean_linker_0, # of connection points: 2
#     Edge 19, Type (0, 1), BuildingBlock: ZUJKAS_clean_linker_0, # of connection points: 2
#     Edge 20, Type (0, 1), BuildingBlock: ZUJKAS_clean_linker_0, # of connection points: 2
#     Edge 21, Type (0, 1), BuildingBlock: ZUJKAS_clean_linker_0, # of connection points: 2
#     Edge 22, Type (0, 1), BuildingBlock: ZUJKAS_clean_linker_0, # of connection points: 2
#     Edge 23, Type (0, 1), BuildingBlock: ZUJKAS_clean_linker_0, # of connection points: 2
#     Edge 24, Type (0, 1), BuildingBlock: ZUJKAS_clean_linker_0, # of connection points: 2
#     Edge 25, Type (0, 1), BuildingBlock: ZUJKAS_clean_linker_0, # of connection points: 2
#     Edge 26, Type (0, 1), BuildingBlock: ZUJKAS_clean_linker_0, # of connection points: 2
# Relax obj value: 0.207
# Max RMSD: 0.179
# Mean RMSD: 0.150
data_MOF--net-anh--node1-BETDIP_clean_sbu_0--node2-MIDCAF_clean_linker_0--edge1-ZUJKAS_clean_linker_0
_symmetry_space_group_name_H-M    P1
_symmetry_Int_Tables_number       1
_symmetry_cell_setting            triclinic
loop_
_symmetry_equiv_pos_as_xyz
'x, y, z'
_cell_length_a     47.103872
_cell_length_b     47.046405
_cell_length_c     81.962724
_cell_angle_alpha  89.896615
_cell_angle_beta   90.066011
_cell_angle_gamma 119.93207
loop_
_atom_site_label
_atom_site_type_symbol
_atom_site_fract_x
_atom_site_fract_y
_atom_site_fract_z
_atom_type_partial_charge
Tb0 Tb 0.08789 0.57659 0.16903 0.0
Tb1 Tb 0.05411 0.50667 0.16345 0.0
C2 C 0.12619 0.63181 0.18089 0.0
C3 C 0.16182 0.65257 0.17949 0.0
C4 C 0.17931 0.67691 0.1911 0.0
C5 C 0.21326 0.69676 0.18968 0.0
C6 C 0.23017 0.69244 0.17663 0.0
C7 C 0.21251 0.66757 0.16518 0.0
C8 C 0.17862 0.64783 0.16659 0.0
C9 C 0.07631 0.56049 0.1383 0.0
C10 C 0.13206 0.54008 0.16248 0.0
C11 C 1.01422 0.45078 0.15287 0.0
C12 C 0.97825 0.43474 0.15252 0.0
C13 C 0.96116 0.42097 0.13798 0.0
C14 C 0.9277 0.4105 0.13685 0.0
C15 C 0.91096 0.41387 0.15024 0.0
C16 C 0.92803 0.42681 0.16491 0.0
C17 C 0.96131 0.43729 0.16601 0.0
C18 C 0.06508 0.52302 0.19482 0.0
C19 C 1.01076 0.54432 0.16432 0.0
O20 O 0.1161 0.60436 0.18894 0.0
O21 O 0.10986 0.62762 0.16735 0.0
O22 O 0.08531 0.54729 0.14888 0.0
O23 O 0.07593 0.58559 0.14449 0.0
O24 O 0.13083 0.56678 0.16729 0.0
O25 O 0.10381 0.51303 0.15901 0.0
O26 O 1.02908 0.47663 0.14351 0.0
O27 O 1.02784 0.45577 0.16729 0.0
O28 O 0.05585 0.53616 0.18411 0.0
O29 O 0.06712 0.49924 0.18807 0.0
O30 O 1.01289 0.51791 0.16029 0.0
O31 O 0.03751 0.57037 0.17023 0.0
H32 H 0.1667 0.68078 0.20115 0.0
H33 H 0.22613 0.71605 0.19856 0.0
H34 H 0.22487 0.66344 0.15511 0.0
H35 H 0.1655 0.62904 0.15752 0.0
H36 H 0.97393 0.41939 0.12734 0.0
H37 H 0.9152 0.40072 0.12538 0.0
H38 H 0.91571 0.42914 0.17554 0.0
H39 H 0.97395 0.44835 0.17731 0.0
Tb40 Tb 0.5696 1.02449 0.50181 0.0
Tb41 Tb 0.53244 0.05735 0.49664 0.0
C42 C 0.58838 0.9878 0.51406 0.0
C43 C 0.5766 0.95255 0.51307 0.0
C44 C 0.58537 0.93747 0.52523 0.0
C45 C 0.57624 0.90443 0.52385 0.0
C46 C 0.55827 0.88602 0.51024 0.0
C47 C 0.54854 0.90097 0.49835 0.0
C48 C 0.55751 0.93399 0.49979 0.0
C49 C 0.56503 0.03667 0.47119 0.0
C50 C 0.48908 0.97916 0.49542 0.0
C51 C 0.51524 0.09648 0.48612 0.0
C52 C 0.53505 0.13254 0.48453 0.0
C53 C 0.54621 0.14691 0.4691 0.0
C54 C 0.56963 0.18018 0.46771 0.0
C55 C 0.58225 0.19963 0.48175 0.0
C56 C 0.5698 0.1856 0.49709 0.0
C57 C 0.54651 0.15246 0.49849 0.0
C58 C 0.53823 0.04568 0.52784 0.0
C59 C 0.61323 0.10201 0.4974 0.0
O60 O 0.5692 0.99609 0.5217 0.0
O61 O 0.60013 1.00419 0.50049 0.0
O62 O 0.54268 0.02712 0.48171 0.0
O63 O 0.5905 0.03693 0.47735 0.0
O64 O 0.51755 0.9807 0.49943 0.0
O65 O 0.48934 1.00729 0.49278 0.0
O66 O 0.52414 0.08003 0.4766 0.0
O67 O 0.50902 0.08461 0.50097 0.0
O68 O 0.56055 0.05574 0.51712 0.0
O69 O 0.51201 0.04299 0.5212 0.0
O70 O 0.58443 0.09957 0.49368 0.0
O71 O 0.61313 0.07523 0.5029 0.0
H72 H 0.60001 0.95146 0.53556 0.0
H73 H 0.58447 0.89369 0.5331 0.0
H74 H 0.53452 0.88728 0.4878 0.0
H75 H 0.55026 0.94524 0.49035 0.0
H76 H 0.53785 0.1321 0.45814 0.0
H77 H 0.57873 0.19036 0.45572 0.0
H78 H 0.57841 0.20018 0.50811 0.0
H79 H 0.53842 0.14231 0.51058 0.0
Tb80 Tb 0.53508 0.53095 0.83432 0.0
Tb81 Tb 0.60525 0.5679 0.82971 0.0
C82 C 0.47871 0.51167 0.84532 0.0
C83 C 0.45562 0.52409 0.84443 0.0
C84 C 0.46554 0.55707 0.84773 0.0
C85 C 0.44333 0.56843 0.84615 0.0
C86 C 0.41089 0.54705 0.84119 0.0
C87 C 0.40127 0.51417 0.83775 0.0
C88 C 0.42338 0.50281 0.83942 0.0
C89 C 0.55323 0.53585 0.80386 0.0
C90 C 0.5707 0.6116 0.82837 0.0
C91 C 0.66244 0.58627 0.82001 0.0
C92 C 0.67887 0.5671 0.81727 0.0
C93 C 0.70165 0.5754 0.80458 0.0
C94 C 0.71528 0.55552 0.80124 0.0
C95 C 0.70565 0.52679 0.81034 0.0
C96 C 0.683 0.51869 0.82305 0.0
C97 C 0.66992 0.53877 0.82657 0.0
C98 C 0.58706 0.56249 0.86078 0.0
C99 C 0.56825 0.487 0.83005 0.0
O100 O 0.50548 0.52885 0.85389 0.0
O101 O 0.48431 0.50161 0.83148 0.0
O102 O 0.56536 0.55804 0.81447 0.0
O103 O 0.52827 0.51 0.80987 0.0
O104 O 0.54369 0.58315 0.83224 0.0
O105 O 0.59852 0.61126 0.82584 0.0
O106 O 0.63802 0.57935 0.81017 0.0
O107 O 0.65521 0.58859 0.83517 0.0
O108 O 0.57488 0.53998 0.85012 0.0
O109 O 0.61064 0.58857 0.8541 0.0
O110 O 0.5942 0.51561 0.82573 0.0
O111 O 0.54224 0.48748 0.83613 0.0
H112 H 0.49039 0.57411 0.85151 0.0
H113 H 0.45145 0.5938 0.84906 0.0
H114 H 0.37666 0.49718 0.83361 0.0
H115 H 0.41537 0.4774 0.83664 0.0
H116 H 0.70861 0.59701 0.79719 0.0
H117 H 0.73294 0.56228 0.79145 0.0
H118 H 0.67568 0.49696 0.83041 0.0
H119 H 0.6525 0.53189 0.83647 0.0
C120 C 0.49371 0.98018 0.21964 0.0
C121 C 0.50405 0.97928 0.20364 0.0
C122 C 0.52506 1.00907 0.19573 0.0
C123 C 0.5345 0.03897 0.20343 0.0
H124 H 0.54918 0.13229 0.19228 0.0
H125 H 0.57792 0.18105 0.17536 0.0
H126 H 0.61492 0.24085 0.21864 0.0
H127 H 0.58563 0.19215 0.23563 0.0
H128 H 0.57102 0.15547 0.27102 0.0
H129 H 0.57203 0.15606 0.30087 0.0
H130 H 0.50435 0.05172 0.30155 0.0
H131 H 0.50321 0.051 0.27188 0.0
H132 H 0.4945 1.00972 0.23959 0.0
H133 H 0.47693 0.95785 0.22602 0.0
H134 H 0.53389 1.00933 0.18351 0.0
H135 H 0.55034 0.06148 0.19692 0.0
N136 N 0.54354 0.09898 0.2182 0.0
N137 N 0.55013 0.12956 0.24191 0.0
N138 N 0.52983 0.07285 0.24363 0.0
C139 C 0.55223 0.12816 0.22541 0.0
C140 C 0.53869 0.10186 0.25108 0.0
C141 C 0.53239 0.07126 0.22722 0.0
C142 C 0.56568 0.15824 0.21532 0.0
C143 C 0.56303 0.15587 0.19822 0.0
C144 C 0.57944 0.18381 0.1885 0.0
C145 C 0.599 0.21472 0.19565 0.0
C146 C 0.59981 0.21741 0.21275 0.0
C147 C 0.58322 0.18943 0.2225 0.0
C148 C 0.53721 0.10315 0.26907 0.0
C149 C 0.55603 0.13275 0.27755 0.0
C150 C 0.55675 0.13309 0.29461 0.0
C151 C 0.53829 0.10394 0.3035 0.0
C152 C 0.51856 0.07463 0.29503 0.0
C153 C 0.51814 0.0742 0.27802 0.0
C154 C 0.52348 0.03972 0.21927 0.0
C155 C 0.5035 1.01001 0.2274 0.0
C156 C 0.72894 0.50622 0.5524 0.0
C157 C 0.73962 0.51488 0.53615 0.0
C158 C 0.74778 0.54637 0.53061 0.0
C159 C 0.74273 0.56749 0.54056 0.0
H160 H 0.67606 0.60353 0.5341 0.0
H161 H 0.64688 0.62721 0.5203 0.0
H162 H 0.65649 0.68431 0.56337 0.0
H163 H 0.68439 0.65963 0.57735 0.0
H164 H 0.70126 0.63515 0.61166 0.0
H165 H 0.68753 0.62712 0.64049 0.0
H166 H 0.68384 0.53348 0.63893 0.0
H167 H 0.69889 0.5422 0.61013 0.0
H168 H 0.71461 0.51953 0.57458 0.0
H169 H 0.72198 0.48209 0.5571 0.0
H170 H 0.75687 0.55426 0.51835 0.0
H171 H 0.74777 0.59096 0.53567 0.0
N172 N 0.70907 0.59604 0.55761 0.0
N173 N 0.69541 0.61098 0.58233 0.0
N174 N 0.71705 0.57558 0.58231 0.0
C175 C 0.69695 0.61266 0.56581 0.0
C176 C 0.70544 0.5926 0.59068 0.0
C177 C 0.71947 0.57774 0.56575 0.0
C178 C 0.6824 0.62959 0.55685 0.0
C179 C 0.67217 0.62135 0.54057 0.0
C180 C 0.65544 0.63496 0.53265 0.0
C181 C 0.64893 0.65738 0.54077 0.0
C182 C 0.66024 0.66643 0.55687 0.0
C183 C 0.67655 0.65253 0.56485 0.0
C184 C 0.70086 0.58917 0.60857 0.0
C185 C 0.69788 0.613 0.6175 0.0
C186 C 0.68977 0.60827 0.63403 0.0
C187 C 0.68396 0.57936 0.642 0.0
C188 C 0.68834 0.55614 0.63323 0.0
C189 C 0.69689 0.56108 0.61669 0.0
C190 C 0.73005 0.55789 0.55639 0.0
C191 C 0.72448 0.52763 0.56245 0.0
C192 C 0.89386 0.40638 0.88174 0.0
C193 C 0.89577 0.41277 0.8649 0.0
C194 C 0.92667 0.42859 0.85737 0.0
C195 C 0.95513 0.43975 0.86665 0.0
H196 H 0.05777 0.49053 0.86383 0.0
H197 H 0.11175 0.52449 0.85183 0.0
H198 H 0.14847 0.57191 0.89837 0.0
H199 H 0.0949 0.53719 0.91049 0.0
H200 H 0.05967 0.48197 0.94089 0.0
H201 H 0.05787 0.48201 0.9705 0.0
H202 H 0.95284 0.44019 0.96895 0.0
H203 H 0.95452 0.44027 0.93912 0.0
H204 H 0.91994 0.41328 0.90408 0.0
H205 H 0.87033 0.39384 0.88784 0.0
H206 H 0.92901 0.43415 0.84445 0.0
H207 H 0.97855 0.45306 0.86051 0.0
N208 N 1.01288 0.47158 0.88666 0.0
N209 N 0.03816 0.48437 0.9123 0.0
N210 N 0.98169 0.44795 0.91028 0.0
C211 C 0.0403 0.48824 0.89586 0.0
C212 C 1.00905 0.4642 0.91961 0.0
C213 C 0.98346 0.45137 0.89376 0.0
C214 C 0.07219 0.51073 0.88818 0.0
C215 C 0.0773 0.50841 0.87146 0.0
C216 C 0.10821 0.52812 0.86454 0.0
C217 C 0.13455 0.55079 0.87417 0.0
C218 C 0.1289 0.55425 0.89069 0.0
C219 C 0.09816 0.53432 0.89764 0.0
C220 C 1.00726 0.46137 0.93761 0.0
C221 C 1.0361 0.4725 0.9468 0.0
C222 C 1.03506 0.47226 0.9638 0.0
C223 C 1.00521 0.46109 0.97203 0.0
C224 C 0.97621 0.44912 0.96289 0.0
C225 C 0.97719 0.44905 0.94583 0.0
C226 C 0.95333 0.43534 0.88368 0.0
C227 C 0.92233 0.41752 0.89104 0.0
C228 C 0.1714 0.63045 0.45874 0.0
C229 C 0.17138 0.65625 0.46771 0.0
C230 C 0.13956 0.64933 0.47286 0.0
C231 C 0.11002 0.61907 0.46903 0.0
H232 H 1.0078 0.48219 0.48245 0.0
H233 H 0.95689 0.43143 0.49017 0.0
H234 H 0.91922 0.42564 0.44165 0.0
H235 H 0.96877 0.4747 0.43413 0.0
H236 H 1.01652 0.49061 0.4046 0.0
H237 H 1.01858 0.49097 0.37484 0.0
H238 H 0.09966 0.59025 0.37568 0.0
H239 H 0.09772 0.58995 0.4055 0.0
H240 H 0.14424 0.58303 0.44717 0.0
H241 H 0.19427 0.63361 0.45406 0.0
H242 H 0.1372 0.66756 0.47982 0.0
H243 H 0.0867 0.61623 0.47276 0.0
N244 N 0.05202 0.53926 0.45963 0.0
N245 N 1.02929 0.51559 0.43404 0.0
N246 N 0.08008 0.56405 0.43499 0.0
C247 C 1.02636 0.51407 0.45064 0.0
C248 C 0.05545 0.53999 0.42608 0.0
C249 C 0.07939 0.56474 0.45163 0.0
C250 C 0.994 0.48394 0.45742 0.0
C251 C 0.98866 0.47035 0.47341 0.0
C252 C 0.95886 0.44058 0.47786 0.0
C253 C 0.93255 0.42245 0.46663 0.0
C254 C 0.93797 0.43683 0.45091 0.0
C255 C 0.96726 0.46609 0.44653 0.0
C256 C 0.05696 0.54025 0.40768 0.0
C257 C 1.03487 0.5126 0.39851 0.0
C258 C 1.03616 0.51272 0.38134 0.0
C259 C 0.0593 0.54063 0.37267 0.0
C260 C 0.08127 0.56836 0.38182 0.0
C261 C 0.08027 0.5681 0.39901 0.0
C262 C 0.11033 0.59374 0.45975 0.0
C263 C 0.14206 0.60065 0.45477 0.0
C264 C 0.58746 0.16604 0.78604 0.0
C265 C 0.57168 0.16888 0.80016 0.0
C266 C 0.55612 0.13971 0.80991 0.0
C267 C 0.55621 0.10992 0.80564 0.0
H268 H 0.60568 1.01319 0.80781 0.0
H269 H 0.60662 0.96261 0.81494 0.0
H270 H 0.52254 0.90679 0.78423 0.0
H271 H 0.52186 0.95678 0.77724 0.0
H272 H 0.56068 0.99894 0.73811 0.0
H273 H 0.55973 0.9986 0.70834 0.0
H274 H 0.56544 0.09308 0.70837 0.0
H275 H 0.56715 0.09377 0.73805 0.0
H276 H 0.59946 0.13676 0.77054 0.0
H277 H 0.59944 0.18651 0.7777 0.0
H278 H 0.5436 0.13969 0.82097 0.0
H279 H 0.54316 0.08857 0.81338 0.0
N280 N 0.56749 0.0487 0.79272 0.0
N281 N 0.56378 1.02157 0.76775 0.0
N282 N 0.56751 0.07312 0.76744 0.0
C283 C 0.56514 1.02147 0.7844 0.0
C284 C 0.56508 0.04697 0.75915 0.0
C285 C 0.56859 0.07505 0.78406 0.0
C286 C 0.56305 0.99009 0.79216 0.0
C287 C 0.58674 0.99008 0.80291 0.0
C288 C 0.58756 0.96056 0.80682 0.0
C289 C 0.56461 0.92911 0.80035 0.0
C290 C 0.54064 0.92937 0.78993 0.0
C291 C 0.54016 0.95869 0.78587 0.0
C292 C 0.56406 0.0464 0.74073 0.0
C293 C 0.56177 1.01972 0.73182 0.0
C294 C 0.56101 1.01943 0.71462 0.0
C295 C 0.56255 0.04583 0.70567 0.0
C296 C 0.56475 0.07245 0.71462 0.0
C297 C 0.56549 0.07274 0.73179 0.0
C298 C 0.57165 0.10735 0.79126 0.0
C299 C 0.58734 0.1366 0.78178 0.0
C300 C 0.6904 0.56617 0.1204 0.0
C301 C 0.69228 0.54765 0.13363 0.0
C302 C 0.66245 0.53043 0.14277 0.0
C303 C 0.63287 0.53099 0.13856 0.0
H304 H 0.53443 0.57395 0.14508 0.0
H305 H 0.48375 0.57434 0.15254 0.0
H306 H 0.43278 0.50733 0.11323 0.0
H307 H 0.48237 0.50674 0.10614 0.0
H308 H 0.52134 0.53173 0.07142 0.0
H309 H 0.52132 0.53207 0.04163 0.0
H310 H 0.62278 0.55707 0.04153 0.0
H311 H 0.62291 0.55689 0.07132 0.0
H312 H 0.66207 0.58078 0.10562 0.0
H313 H 0.71176 0.58085 0.11296 0.0
H314 H 0.6614 0.51552 0.15306 0.0
H315 H 0.61094 0.51628 0.14567 0.0
N316 N 0.57241 0.54434 0.12604 0.0
N317 N 0.54644 0.5422 0.1009 0.0
N318 N 0.59811 0.54639 0.10086 0.0
C319 C 0.54551 0.54243 0.11755 0.0
C320 C 0.57223 0.54428 0.09243 0.0
C321 C 0.59922 0.54622 0.11752 0.0
C322 C 0.51361 0.53981 0.12501 0.0
C323 C 0.51228 0.55859 0.13825 0.0
C324 C 0.48272 0.55916 0.1424 0.0
C325 C 0.45255 0.5408 0.13369 0.0
C326 C 0.45414 0.52166 0.12074 0.0
C327 C 0.4834 0.52136 0.11655 0.0
C328 C 0.57214 0.54431 0.07401 0.0
C329 C 0.54373 0.53732 0.06511 0.0
C330 C 0.54364 0.5373 0.04792 0.0
C331 C 0.57204 0.5446 0.03896 0.0
C332 C 0.60047 0.55168 0.04786 0.0
C333 C 0.60048 0.55138 0.06505 0.0
C334 C 0.63119 0.54882 0.12493 0.0
C335 C 0.66116 0.56652 0.1162 0.0
H336 H 0.19735 0.59066 0.16827 0.0
H337 H 0.24951 0.59146 0.16386 0.0
H338 H 0.19645 0.49191 0.14672 0.0
H339 H 0.14461 0.49123 0.15092 0.0
H340 H 0.28186 0.56232 0.17508 0.0
H341 H 0.26031 0.52435 0.11065 0.0
H342 H 0.23382 0.53514 0.12153 0.0
H343 H 0.22879 0.49473 0.12362 0.0
C344 C 0.19648 0.5688 0.16349 0.0
C345 C 0.16549 0.5409 0.15997 0.0
C346 C 0.22693 0.56925 0.16094 0.0
C347 C 0.22856 0.54202 0.15447 0.0
C348 C 0.19751 0.51404 0.15119 0.0
H349 H 0.38604 0.49368 0.12751 0.0
H350 H 0.33576 0.49516 0.1326 0.0
C351 C 0.16713 0.51353 0.1538 0.0
C352 C 0.26198 0.54264 0.15147 0.0
H353 H 0.30537 0.52393 0.12335 0.0
C354 C 0.28673 0.55402 0.16364 0.0
C355 C 0.27004 0.53198 0.13669 0.0
C356 C 0.24704 0.52117 0.12231 0.0
C357 C 0.31727 0.5541 0.1618 0.0
C358 C 0.32534 0.5434 0.14701 0.0
C359 C 0.3006 0.53221 0.13481 0.0
C360 C 0.3583 0.54299 0.14397 0.0
C361 C 0.34 0.56455 0.17627 0.0
C362 C 0.38994 0.56926 0.14824 0.0
C363 C 0.41965 0.56846 0.14528 0.0
C364 C 0.42005 0.54154 0.13758 0.0
C365 C 0.38837 0.51545 0.13322 0.0
C366 C 0.35874 0.5162 0.13624 0.0
H367 H 0.32656 0.56133 0.18788 0.0
H368 H 0.35297 0.55034 0.1771 0.0
H369 H 0.35841 0.59097 0.17508 0.0
H370 H 0.39209 0.59119 0.15364 0.0
H371 H 0.44261 0.58968 0.14876 0.0
H372 H 0.62355 0.16475 0.48948 0.0
H373 H 0.67443 0.21682 0.48546 0.0
H374 H 0.73033 0.16908 0.49507 0.0
H375 H 0.67924 0.11709 0.49979 0.0
H376 H 0.76676 0.22516 0.5062 0.0
H377 H 0.73027 0.25955 0.44895 0.0
H378 H 0.70335 0.25572 0.46526 0.0
H379 H 0.70494 0.22012 0.45826 0.0
C380 C 0.64652 0.16495 0.49077 0.0
C381 C 0.646 0.13538 0.49502 0.0
C382 C 0.67637 0.1954 0.48819 0.0
C383 C 0.70799 0.1985 0.48932 0.0
C384 C 0.70739 0.16895 0.49385 0.0
H385 H 0.88837 0.37111 0.44587 0.0
H386 H 0.83743 0.32073 0.45173 0.0
C387 C 0.6775 0.1385 0.49658 0.0
C388 C 0.74103 0.23181 0.48618 0.0
H389 H 0.77907 0.30074 0.4612 0.0
C390 C 0.76898 0.24133 0.49624 0.0
C391 C 0.74609 0.25437 0.47317 0.0
C392 C 0.71972 0.24683 0.4607 0.0
C393 C 0.79995 0.27111 0.49395 0.0
C394 C 0.80464 0.2941 0.48126 0.0
C395 C 0.77684 0.28445 0.4711 0.0
C396 C 0.8378 0.32704 0.47787 0.0
C397 C 0.82786 0.27686 0.50503 0.0
C398 C 0.85717 0.34983 0.49024 0.0
C399 C 0.88727 0.37973 0.48682 0.0
C400 C 0.90005 0.3893 0.47076 0.0
C401 C 0.88048 0.36645 0.45845 0.0
C402 C 0.85054 0.33667 0.46186 0.0
H403 H 0.82419 0.25353 0.51037 0.0
H404 H 0.85159 0.28888 0.49842 0.0
H405 H 0.82924 0.29291 0.51526 0.0
H406 H 0.84879 0.34499 0.50274 0.0
H407 H 0.9002 0.39574 0.49695 0.0
H408 H 0.62182 0.67648 0.82369 0.0
H409 H 0.62028 0.72745 0.81985 0.0
H410 H 0.51502 0.67281 0.82243 0.0
H411 H 0.51674 0.62222 0.82706 0.0
H412 H 0.60475 0.75748 0.80015 0.0
H413 H 0.51884 0.7411 0.84956 0.0
H414 H 0.53497 0.7138 0.84728 0.0
H415 H 0.5002 0.70794 0.83533 0.0
C416 C 0.59816 0.67505 0.82366 0.0
C417 C 0.56947 0.64406 0.82598 0.0
C418 C 0.59724 0.70485 0.82134 0.0
C419 C 0.56756 0.7059 0.82114 0.0
C420 C 0.5388 0.67466 0.82312 0.0
H421 H 0.51346 0.86287 0.80118 0.0
H422 H 0.51494 0.81218 0.80588 0.0
C423 C 0.53974 0.6449 0.82563 0.0
C424 C 0.567 0.73894 0.81848 0.0
H425 H 0.52993 0.78359 0.83057 0.0
C426 C 0.58838 0.76284 0.80705 0.0
C427 C 0.54609 0.74788 0.82712 0.0
C428 C 0.524 0.72653 0.84062 0.0
C429 C 0.58896 0.79331 0.8039 0.0
C430 C 0.56779 0.80196 0.81238 0.0
C431 C 0.54636 0.77814 0.82377 0.0
C432 C 0.56724 0.83484 0.80956 0.0
C433 C 0.61195 0.81567 0.79093 0.0
C434 C 0.5958 0.86645 0.81017 0.0
C435 C 0.595 0.89627 0.80752 0.0
C436 C 0.5656 0.89665 0.80395 0.0
C437 C 0.53703 0.86497 0.80355 0.0
C438 C 0.5378 0.83524 0.8064 0.0
H439 H 0.61918 0.8022 0.78231 0.0
H440 H 0.60066 0.82765 0.78387 0.0
H441 H 0.63455 0.83507 0.79683 0.0
H442 H 0.61915 0.86835 0.81291 0.0
H443 H 0.61792 0.91923 0.80804 0.0
H444 H 0.9509 0.49589 0.15111 0.0
H445 H 0.89947 0.49576 0.14654 0.0
H446 H 0.94206 0.59287 0.16662 0.0
H447 H 0.99367 0.59285 0.17143 0.0
H448 H 0.8825 0.56608 0.17576 0.0
H449 H 0.86578 0.52589 0.11175 0.0
H450 H 0.86699 0.49595 0.12479 0.0
H451 H 0.90278 0.53612 0.12273 0.0
C452 C 0.94972 0.51744 0.15463 0.0
C453 C 0.97776 0.5444 0.16174 0.0
C454 C 0.91966 0.51749 0.15179 0.0
C455 C 0.91535 0.54454 0.15576 0.0
C456 C 0.94327 0.57131 0.16315 0.0
H457 H 0.74742 0.56292 0.11358 0.0
H458 H 0.798 0.56281 0.11939 0.0
C459 C 0.97346 0.57133 0.16595 0.0
C460 C 0.88234 0.54478 0.15254 0.0
H461 H 0.81991 0.52476 0.12438 0.0
C462 C 0.86916 0.55698 0.16442 0.0
C463 C 0.86358 0.5337 0.13776 0.0
C464 C 0.87563 0.52251 0.12347 0.0
C465 C 0.8392 0.55792 0.16221 0.0
C466 C 0.81979 0.54564 0.14768 0.0
C467 C 0.83327 0.53394 0.13571 0.0
C468 C 0.78677 0.54578 0.14434 0.0
C469 C 0.82948 0.57344 0.17551 0.0
C470 C 0.76107 0.5359 0.156 0.0
C471 C 0.73127 0.53637 0.1527 0.0
C472 C 0.72471 0.54651 0.13744 0.0
C473 C 0.75023 0.55564 0.12571 0.0
C474 C 0.77994 0.55524 0.12902 0.0
H475 H 0.85095 0.59076 0.18293 0.0
H476 H 0.81779 0.58699 0.17041 0.0
H477 H 0.81185 0.55399 0.18381 0.0
H478 H 0.76362 0.52719 0.16782 0.0
H479 H 0.71336 0.52883 0.16238 0.0
H480 H 0.42466 0.96574 0.48964 0.0
H481 H 0.37375 0.9134 0.48576 0.0
H482 H 0.42752 0.86204 0.49058 0.0
H483 H 0.47812 0.91429 0.49515 0.0
H484 H 0.34476 0.86703 0.46611 0.0
H485 H 0.35742 0.79937 0.51782 0.0
H486 H 0.38504 0.84262 0.51512 0.0
H487 H 0.39131 0.81299 0.5041 0.0
C488 C 0.42592 0.9434 0.49008 0.0
C489 C 0.45669 0.94551 0.493 0.0
C490 C 0.39615 0.91277 0.48775 0.0
C491 C 0.39486 0.8819 0.48815 0.0
C492 C 0.42586 0.88414 0.49074 0.0
H493 H 0.23717 0.67029 0.47064 0.0
H494 H 0.2879 0.72229 0.47516 0.0
C495 C 0.45562 0.91478 0.49323 0.0
C496 C 0.36183 0.8484 0.48549 0.0
H497 H 0.31575 0.76747 0.49865 0.0
C498 C 0.33875 0.8456 0.47346 0.0
C499 C 0.35208 0.81895 0.4947 0.0
C500 C 0.37255 0.81862 0.50876 0.0
C501 C 0.30834 0.81577 0.47029 0.0
C502 C 0.29881 0.78632 0.47939 0.0
C503 C 0.32183 0.78903 0.49138 0.0
C504 C 0.26586 0.75299 0.47662 0.0
C505 C 0.28707 0.81605 0.45662 0.0
C506 C 0.2345 0.75055 0.47606 0.0
C507 C 0.20464 0.72004 0.47346 0.0
C508 C 0.20391 0.68968 0.47117 0.0
C509 C 0.23532 0.69217 0.47197 0.0
C510 C 0.26508 0.7226 0.47473 0.0
H511 H 0.30138 0.83602 0.44773 0.0
H512 H 0.27508 0.79233 0.44998 0.0
H513 H 0.26772 0.82029 0.46177 0.0
H514 H 0.2328 0.77243 0.47782 0.0
H515 H 0.18195 0.72056 0.47302 0.0
H516 H 0.61379 0.47451 0.81405 0.0
H517 H 0.61367 0.42278 0.80974 0.0
H518 H 0.52307 0.37107 0.83626 0.0
H519 H 0.52283 0.42263 0.84021 0.0
H520 H 0.61906 0.37851 0.82523 0.0
H521 H 0.49336 0.30647 0.80144 0.0
H522 H 0.51221 0.34996 0.80486 0.0
H523 H 0.49359 0.32147 0.82154 0.0
C524 C 0.59369 0.45227 0.81905 0.0
C525 C 0.56833 0.454 0.82759 0.0
C526 C 0.59359 0.42203 0.8165 0.0
C527 C 0.56799 0.39125 0.82219 0.0
C528 C 0.5429 0.39313 0.83098 0.0
H529 H 0.52713 0.18034 0.8187 0.0
H530 H 0.52689 0.23163 0.82408 0.0
C531 C 0.54294 0.42337 0.83347 0.0
C532 C 0.5681 0.35815 0.81923 0.0
H533 H 0.51992 0.27633 0.80802 0.0
C534 C 0.59715 0.35644 0.82137 0.0
C535 C 0.54012 0.32798 0.81413 0.0
C536 C 0.50816 0.32652 0.81019 0.0
C537 C 0.59884 0.32692 0.81909 0.0
C538 C 0.57083 0.29674 0.81403 0.0
C539 C 0.54177 0.29842 0.81191 0.0
C540 C 0.57119 0.26388 0.81076 0.0
C541 C 0.63095 0.32848 0.82278 0.0
C542 C 0.59568 0.26263 0.80121 0.0
C543 C 0.59595 0.23279 0.79811 0.0
C544 C 0.57155 0.20166 0.80419 0.0
C545 C 0.5469 0.20286 0.81373 0.0
C546 C 0.5466 0.23284 0.81678 0.0
H547 H 0.64585 0.34844 0.83155 0.0
H548 H 0.62712 0.30499 0.82792 0.0
H549 H 0.64534 0.33379 0.81135 0.0
H550 H 0.61482 0.28496 0.79576 0.0
H551 H 0.61593 0.23453 0.79088 0.0
H552 H 0.56811 0.86017 0.48252 0.0
H553 H 0.5701 0.80936 0.48019 0.0
H554 H 0.53949 0.78616 0.53036 0.0
H555 H 0.53693 0.83659 0.53269 0.0
H556 H 0.61446 0.80401 0.50015 0.0
H557 H 0.49128 0.69586 0.50844 0.0
H558 H 0.49756 0.73533 0.50191 0.0
H559 H 0.50013 0.72738 0.52319 0.0
C560 C 0.56057 0.8436 0.49286 0.0
C561 C 0.55266 0.85242 0.50785 0.0
C562 C 0.56177 0.81463 0.49151 0.0
C563 C 0.55469 0.79389 0.50505 0.0
C564 C 0.54443 0.80147 0.51966 0.0
H565 H 0.60346 0.67021 0.55434 0.0
H566 H 0.578 0.69906 0.54195 0.0
C567 C 0.54338 0.83049 0.52105 0.0
C568 C 0.56415 0.7683 0.50509 0.0
H569 H 0.5372 0.68902 0.51625 0.0
C570 C 0.5975 0.7786 0.50323 0.0
C571 C 0.54192 0.73533 0.50918 0.0
C572 C 0.50566 0.72272 0.51064 0.0
C573 C 0.60972 0.75755 0.50668 0.0
C574 C 0.58773 0.72495 0.51166 0.0
C575 C 0.55402 0.71402 0.51245 0.0
C576 C 0.5998 0.70354 0.51816 0.0
C577 C 0.64635 0.77127 0.5062 0.0
C578 C 0.61974 0.69558 0.50877 0.0
C579 C 0.63518 0.67989 0.51597 0.0
C580 C 0.63042 0.67137 0.53262 0.0
C581 C 0.60854 0.67735 0.54164 0.0
C582 C 0.59354 0.6934 0.5345 0.0
H583 H 0.66006 0.79846 0.50533 0.0
H584 H 0.65481 0.76399 0.51727 0.0
H585 H 0.6527 0.76146 0.49537 0.0
H586 H 0.62431 0.70254 0.49604 0.0
H587 H 0.65179 0.67562 0.50864 0.0
H588 H 0.7701 0.54535 0.81074 0.0
H589 H 0.79359 0.50951 0.81176 0.0
H590 H 0.69757 0.42514 0.80437 0.0
H591 H 0.67389 0.46119 0.8042 0.0
H592 H 0.72239 0.41388 0.82876 0.0
H593 H 0.81938 0.46015 0.78271 0.0
H594 H 0.82575 0.49471 0.79457 0.0
H595 H 0.78859 0.47232 0.78277 0.0
C596 C 0.75424 0.51927 0.80882 0.0
C597 C 0.72029 0.50591 0.80741 0.0
C598 C 0.76767 0.49872 0.80926 0.0
C599 C 0.74751 0.46452 0.80784 0.0
C600 C 0.7137 0.45139 0.80541 0.0
H601 H 0.8773 0.38845 0.83381 0.0
H602 H 0.83386 0.38861 0.81732 0.0
C603 C 0.70018 0.47193 0.80531 0.0
C604 C 0.7611 0.44275 0.81162 0.0
H605 H 0.83208 0.44054 0.80851 0.0
C606 C 0.74592 0.41903 0.82393 0.0
C607 C 0.79116 0.44821 0.80502 0.0
C608 C 0.80682 0.46998 0.79039 0.0
C609 C 0.76184 0.40372 0.83111 0.0
C610 C 0.79419 0.41328 0.82626 0.0
C611 C 0.80765 0.43386 0.81263 0.0
C612 C 0.81627 0.40704 0.8367 0.0
C613 C 0.74432 0.37859 0.84432 0.0
C614 C 0.8205 0.41685 0.85311 0.0
C615 C 0.84505 0.41664 0.8625 0.0
C616 C 0.86632 0.40711 0.85564 0.0
C617 C 0.86133 0.39605 0.83939 0.0
C618 C 0.83649 0.39603 0.82999 0.0
H619 H 0.71771 0.36383 0.84159 0.0
H620 H 0.75431 0.36175 0.84572 0.0
H621 H 0.74691 0.39131 0.85608 0.0
H622 H 0.80612 0.42661 0.85844 0.0
H623 H 0.84867 0.42603 0.87484 0.0
H624 H 0.27781 0.71553 0.20009 0.0
H625 H 0.33475 0.75937 0.19716 0.0
H626 H 0.32019 0.76389 0.14549 0.0
H627 H 0.26297 0.72068 0.14835 0.0
H628 H 0.39104 0.77149 0.17502 0.0
H629 H 0.33846 0.85353 0.16559 0.0
H630 H 0.31434 0.81266 0.17374 0.0
H631 H 0.32459 0.81849 0.15246 0.0
C632 C 0.28683 0.72562 0.18808 0.0
C633 C 0.26579 0.71507 0.17451 0.0
C634 C 0.31942 0.75033 0.1864 0.0
C635 C 0.33144 0.76487 0.17114 0.0
C636 C 0.31122 0.75289 0.15736 0.0
H637 H 0.4862 0.96691 0.17143 0.0
H638 H 0.4529 0.91354 0.15877 0.0
C639 C 0.27859 0.72818 0.15903 0.0
C640 C 0.3632 0.79558 0.17027 0.0
H641 H 0.39465 0.87824 0.16956 0.0
C642 C 0.3921 0.79491 0.17351 0.0
C643 C 0.36438 0.82596 0.16815 0.0
C644 C 0.33387 0.828 0.16487 0.0
C645 C 0.42214 0.82412 0.17541 0.0
C646 C 0.42286 0.85452 0.17448 0.0
C647 C 0.39422 0.855 0.17022 0.0
C648 C 0.45113 0.88574 0.18019 0.0
C649 C 0.45253 0.822 0.1787 0.0
C650 C 0.4628 0.88794 0.19617 0.0
C651 C 0.48256 0.9185 0.20335 0.0
C652 C 0.49029 0.94748 0.19485 0.0
C653 C 0.4809 0.94522 0.17838 0.0
C654 C 0.46166 0.91462 0.17111 0.0
H655 H 0.4513 0.80061 0.1723 0.0
H656 H 0.47505 0.84458 0.17477 0.0
H657 H 0.45425 0.81838 0.19197 0.0
H658 H 0.45461 0.86617 0.20359 0.0
H659 H 0.49008 0.91933 0.21591 0.0
H660 H 0.58729 0.24632 0.46007 0.0
H661 H 0.62677 0.30523 0.46083 0.0
H662 H 0.67509 0.29018 0.50194 0.0
H663 H 0.63637 0.2315 0.501 0.0
H664 H 0.6282 0.33939 0.48744 0.0
H665 H 0.75282 0.35979 0.47693 0.0
H666 H 0.7164 0.32243 0.47093 0.0
H667 H 0.73098 0.32794 0.49164 0.0
C668 C 0.60695 0.25548 0.46893 0.0
C669 C 0.6085 0.23441 0.48062 0.0
C670 C 0.62951 0.2891 0.46934 0.0
C671 C 0.65411 0.30205 0.48132 0.0
C672 C 0.65682 0.28072 0.49236 0.0
H673 H 0.7533 0.46529 0.54211 0.0
H674 H 0.7375 0.41704 0.52513 0.0
C675 C 0.63428 0.24723 0.49199 0.0
C676 C 0.67275 0.33779 0.48438 0.0
H677 H 0.74916 0.40108 0.4933 0.0
C678 C 0.65472 0.35319 0.48829 0.0
C679 C 0.7073 0.35553 0.48565 0.0
C680 C 0.72798 0.34062 0.4809 0.0
C681 C 0.67 0.38511 0.49451 0.0
C682 C 0.70448 0.40249 0.49644 0.0
C683 C 0.72277 0.3877 0.49178 0.0
C684 C 0.72105 0.43459 0.50483 0.0
C685 C 0.64877 0.39901 0.50001 0.0
C686 C 0.71865 0.46112 0.49869 0.0
C687 C 0.72675 0.48831 0.50852 0.0
C688 C 0.73806 0.48973 0.52459 0.0
C689 C 0.74376 0.4646 0.53001 0.0
C690 C 0.73515 0.43717 0.52023 0.0
H691 H 0.62248 0.37989 0.50078 0.0
H692 H 0.65669 0.41084 0.51215 0.0
H693 H 0.65097 0.41784 0.49114 0.0
H694 H 0.70835 0.4598 0.4867 0.0
H695 H 0.72185 0.50698 0.50387 0.0
H696 H 0.34683 0.51408 0.85047 0.0
H697 H 0.30677 0.53218 0.84863 0.0
H698 H 0.37994 0.62459 0.82829 0.0
H699 H 0.42044 0.60625 0.82966 0.0
H700 H 0.34268 0.62904 0.85505 0.0
H701 H 0.26229 0.54387 0.80752 0.0
H702 H 0.27275 0.52289 0.82258 0.0
H703 H 0.30448 0.55407 0.81008 0.0
C704 C 0.35438 0.538 0.84527 0.0
C705 C 0.38677 0.55854 0.84003 0.0
C706 C 0.33143 0.54832 0.84424 0.0
C707 C 0.34027 0.5794 0.83799 0.0
C708 C 0.37264 0.60034 0.83297 0.0
H709 H 0.15503 0.57796 0.84362 0.0
H710 H 0.20946 0.59815 0.83163 0.0
C711 C 0.39572 0.5899 0.83388 0.0
C712 C 0.3156 0.59002 0.83789 0.0
H713 H 0.23537 0.55969 0.82812 0.0
C714 C 0.3195 0.61468 0.84877 0.0
C715 C 0.28578 0.57197 0.82934 0.0
C716 C 0.28119 0.54697 0.81658 0.0
C717 C 0.2929 0.61889 0.85281 0.0
C718 C 0.26177 0.59747 0.84601 0.0
C719 C 0.25907 0.57576 0.83359 0.0
C720 C 0.23114 0.59224 0.85375 0.0
C721 C 0.29793 0.64486 0.86507 0.0
C722 C 0.22538 0.58259 0.87017 0.0
C723 C 0.19442 0.57077 0.87697 0.0
C724 C 0.16836 0.56814 0.86747 0.0
C725 C 0.17451 0.57933 0.85121 0.0
C726 C 0.20563 0.59115 0.84439 0.0
H727 H 0.32274 0.6667 0.86375 0.0
H728 H 0.27932 0.65261 0.8637 0.0
H729 H 0.29619 0.63503 0.87758 0.0
H730 H 0.24427 0.58208 0.87751 0.0
H731 H 0.19052 0.56176 0.8894 0.0
H732 H 0.86151 0.35846 0.13627 0.0
H733 H 0.80278 0.33816 0.13831 0.0
H734 H 0.8221 0.42614 0.16386 0.0
H735 H 0.88081 0.44618 0.16221 0.0
H736 H 0.7846 0.37262 0.18107 0.0
H737 H 0.73305 0.35409 0.11901 0.0
H738 H 0.75897 0.33648 0.12099 0.0
H739 H 0.77626 0.38017 0.12309 0.0
C740 C 0.85329 0.37391 0.14188 0.0
C741 C 0.87577 0.40381 0.14917 0.0
C742 C 0.81968 0.36241 0.14293 0.0
C743 C 0.80803 0.38084 0.15105 0.0
C744 C 0.83055 0.41163 0.15745 0.0
H745 H 0.61451 0.27922 0.19807 0.0
H746 H 0.66084 0.32654 0.18494 0.0
C747 C 0.86408 0.42296 0.15656 0.0
C748 C 0.77296 0.36535 0.15546 0.0
H749 H 0.69597 0.31789 0.14014 0.0
C750 C 0.76508 0.36147 0.17212 0.0
C751 C 0.74761 0.3509 0.14377 0.0
C752 C 0.75442 0.35594 0.12571 0.0
C753 C 0.73289 0.34107 0.17746 0.0
C754 C 0.70778 0.32467 0.16576 0.0
C755 C 0.71527 0.3305 0.14907 0.0
C756 C 0.67538 0.2973 0.17064 0.0
C757 C 0.72662 0.33511 0.19556 0.0
C758 C 0.66709 0.26535 0.16613 0.0
C759 C 0.64071 0.23846 0.17349 0.0
C760 C 0.6221 0.24302 0.18552 0.0
C761 C 0.62878 0.27503 0.18903 0.0
C762 C 0.65514 0.30202 0.18154 0.0
H763 H 0.74967 0.34604 0.20277 0.0
H764 H 0.71198 0.34621 0.19981 0.0
H765 H 0.71253 0.3084 0.19821 0.0
H766 H 0.68245 0.26118 0.15777 0.0
H767 H 0.63647 0.21419 0.17059 0.0
H768 H 0.04429 0.57842 0.11669 0.0
H769 H 1.02585 0.5568 0.08916 0.0
H770 H 0.06727 0.49365 0.09479 0.0
H771 H 0.0852 0.51478 0.12243 0.0
H772 H 0.06282 0.55974 0.06319 0.0
H773 H 0.97581 0.42981 0.07856 0.0
H774 H 0.99179 0.46194 0.0937 0.0
H775 H 1.01596 0.44433 0.08691 0.0
C776 C 0.04936 0.55987 0.11203 0.0
C777 C 0.066 0.54811 0.12163 0.0
C778 C 0.03874 0.54748 0.09636 0.0
C779 C 0.04462 0.52316 0.09006 0.0
C780 C 0.06168 0.51174 0.09958 0.0
H781 H 0.03757 0.44498 0.99464 0.0
H782 H 0.04359 0.45783 0.02384 0.0
C783 C 0.07214 0.524 0.11529 0.0
C784 C 1.03452 0.5111 0.0732 0.0
H785 H 0.9909 0.44173 0.05043 0.0
C786 C 0.04681 0.53399 0.06042 0.0
C787 C 1.01359 0.47747 0.06964 0.0
C788 C 0.99825 0.452 0.08293 0.0
C789 C 0.03946 0.52407 0.04411 0.0
C790 C 1.01914 0.49043 0.04055 0.0
C791 C 1.0065 0.4675 0.05329 0.0
C792 C 1.0119 0.47882 0.02353 0.0
C793 C 0.05411 0.54948 0.03075 0.0
C794 C 0.99134 0.48558 0.01391 0.0
C795 C 0.98785 0.47828 0.99726 0.0
C796 C 1.00502 0.46426 0.99001 0.0
C797 C 1.02435 0.4561 -0.00011 0.0
C798 C 1.02767 0.46324 0.01654 0.0
H799 H 0.07299 0.5738 0.03546 0.0
H800 H 0.06537 0.54147 0.02124 0.0
H801 H 1.03444 0.55232 0.02486 0.0
H802 H 0.97895 0.49755 0.01917 0.0
H803 H 0.97302 0.48509 0.98993 0.0
H804 H 0.50995 0.02594 0.45502 0.0
H805 H 0.50606 0.04081 0.42674 0.0
H806 H 0.61061 0.08345 0.42132 0.0
H807 H 0.61448 0.06797 0.44941 0.0
H808 H 0.53432 0.10075 0.41153 0.0
H809 H 0.57628 1.02129 0.38294 0.0
H810 H 0.56488 1.01775 0.40417 0.0
H811 H 0.60469 0.04942 0.39759 0.0
C812 C 0.53204 0.03839 0.44774 0.0
C813 C 0.56247 0.04559 0.45427 0.0
C814 C 0.52981 0.04692 0.43164 0.0
C815 C 0.55797 0.06272 0.42186 0.0
C816 C 0.58848 0.07054 0.42852 0.0
H817 H 0.59412 0.13214 0.32177 0.0
H818 H 0.59914 0.12541 0.3511 0.0
C819 C 0.59067 0.06179 0.44456 0.0
C820 C 0.55546 0.07109 0.40469 0.0
H821 H 0.57131 0.0589 0.36548 0.0
C822 C 0.54229 0.09152 0.40145 0.0
C823 C 0.56579 0.05891 0.39157 0.0
C824 C 0.5784 0.03537 0.39419 0.0
C825 C 0.53959 0.10044 0.38541 0.0
C826 C 0.55025 0.08853 0.37237 0.0
C827 C 0.56345 0.06819 0.37559 0.0
C828 C 0.54695 0.09584 0.35517 0.0
C829 C 0.52571 0.12278 0.38247 0.0
C830 C 0.51591 0.08171 0.34789 0.0
C831 C 0.51298 0.0854 0.33116 0.0
C832 C 0.54106 0.10337 0.32149 0.0
C833 C 0.57206 0.11851 0.32896 0.0
C834 C 0.57498 0.11456 0.34566 0.0
H835 H 0.52437 0.13476 0.39389 0.0
H836 H 0.5408 0.14203 0.37341 0.0
H837 H 0.50058 0.10824 0.37742 0.0
H838 H 0.49404 0.06685 0.35503 0.0
H839 H 0.48879 0.07361 0.32572 0.0
H840 H 0.54037 0.48566 0.78321 0.0
H841 H 0.56462 0.48925 0.75631 0.0
H842 H 0.6206 0.59466 0.76069 0.0
H843 H 0.59705 0.59105 0.78774 0.0
H844 H 0.5609 0.5181 0.72917 0.0
H845 H 0.69096 0.57459 0.74744 0.0
H846 H 0.65794 0.55742 0.76207 0.0
H847 H 0.67297 0.59826 0.75426 0.0
C848 C 0.55792 0.50956 0.77841 0.0
C849 C 0.56703 0.53808 0.78751 0.0
C850 C 0.57182 0.51158 0.7631 0.0
C851 C 0.59495 0.54217 0.75663 0.0
C852 C 0.60357 0.57073 0.76563 0.0
H853 H 0.64021 0.59404 0.65607 0.0
H854 H 0.6196 0.58333 0.68391 0.0
C855 C 0.58991 0.56869 0.781 0.0
C856 C 0.6088 0.54438 0.74013 0.0
H857 H 0.68067 0.57741 0.7189 0.0
C858 C 0.5871 0.53076 0.72695 0.0
C859 C 0.64297 0.56027 0.73728 0.0
C860 C 0.66753 0.57314 0.75104 0.0
C861 C 0.5986 0.53375 0.71092 0.0
C862 C 0.63274 0.5517 0.70793 0.0
C863 C 0.65449 0.56411 0.72117 0.0
C864 C 0.64623 0.55888 0.69114 0.0
C865 C 0.574 0.51752 0.69736 0.0
C866 C 0.66916 0.54991 0.68611 0.0
C867 C 0.68172 0.55676 0.67022 0.0
C868 C 0.67163 0.57281 0.6591 0.0
C869 C 0.64894 0.58207 0.66431 0.0
C870 C 0.63666 0.57547 0.68018 0.0
H871 H 0.55093 0.49635 0.70196 0.0
H872 H 0.56779 0.53547 0.69207 0.0
H873 H 0.58391 0.50878 0.6875 0.0
H874 H 0.67714 0.53739 0.69443 0.0
H875 H 0.69947 0.54968 0.6667 0.0
H876 H 0.49237 0.03054 0.55159 0.0
H877 H 0.49886 0.03092 0.58119 0.0
H878 H 0.60054 0.05957 0.5751 0.0
H879 H 0.59402 0.05893 0.54523 0.0
H880 H 0.57011 1.01151 0.59918 0.0
H881 H 0.54326 0.11182 0.60999 0.0
H882 H 0.51162 0.07829 0.5987 0.0
H883 H 0.55178 0.10219 0.58992 0.0
C884 C 0.51619 0.03697 0.55649 0.0
C885 C 0.54273 0.04498 0.54593 0.0
C886 C 0.51993 0.03737 0.57351 0.0
C887 C 0.55037 0.04594 0.5806 0.0
C888 C 0.57681 0.05312 0.57007 0.0
H889 H 0.59525 0.09794 0.68431 0.0
H890 H 0.59343 0.09781 0.6545 0.0
C891 C 0.57309 0.05279 0.55295 0.0
C892 C 0.55429 0.04723 0.5989 0.0
H893 H 0.54377 0.0821 0.63342 0.0
C894 C 0.56448 0.02709 0.60663 0.0
C895 C 0.54746 0.06781 0.60882 0.0
C896 C 0.53824 0.0915 0.60145 0.0
C897 C 0.56716 0.02633 0.62382 0.0
C898 C 0.55902 0.04593 0.63377 0.0
C899 C 0.54967 0.0667 0.62599 0.0
C900 C 0.56033 0.0456 0.65218 0.0
C901 C 0.57926 1.00487 0.63113 0.0
C902 C 0.54207 1.01642 0.66114 0.0
C903 C 0.54292 1.01642 0.67833 0.0
C904 C 0.56187 0.04568 0.68718 0.0
C905 C 0.57997 0.0749 0.67814 0.0
C906 C 0.57911 0.07486 0.66096 0.0
H907 H 0.59328 0.99914 0.62212 0.0
H908 H 0.5951 1.01675 0.6419 0.0
H909 H 0.55794 0.98134 0.63513 0.0
H910 H 0.52662 0.99356 0.65485 0.0
H911 H 0.52807 0.99346 0.68468 0.0
H912 H 0.62364 0.60625 0.88439 0.0
H913 H 0.61853 0.6002 0.91396 0.0
H914 H 0.53425 0.50373 0.9083 0.0
H915 H 0.54029 0.50927 0.87846 0.0
H916 H 0.57502 0.59465 0.93462 0.0
H917 H 0.58228 0.48119 0.94076 0.0
H918 H 0.59046 0.50317 0.92172 0.0
H919 H 0.54891 0.47588 0.9281 0.0
C920 C 0.60407 0.58358 0.88938 0.0
C921 C 0.58253 0.55816 0.87892 0.0
C922 C 0.60111 0.58015 0.90642 0.0
C923 C 0.57636 0.55124 0.9137 0.0
C924 C 0.55426 0.52597 0.90324 0.0
H925 H 0.52374 0.50235 0.01769 0.0
H926 H 0.52381 0.50353 0.98775 0.0
C927 C 0.5575 0.52926 0.88609 0.0
C928 C 0.57369 0.54842 0.93212 0.0
H929 H 0.56997 0.50086 0.96483 0.0
C930 C 0.57402 0.57409 0.94113 0.0
C931 C 0.57234 0.52172 0.94094 0.0
C932 C 0.5738 0.49408 0.93242 0.0
C933 C 0.57304 0.57383 0.95838 0.0
C934 C 0.57179 0.54724 0.96714 0.0
C935 C 0.57089 0.52128 0.95821 0.0
C936 C 0.57196 0.54632 0.98553 0.0
C937 C 0.573 0.602 0.96712 0.0
C938 C 0.59912 0.5697 0.99449 0.0
C939 C 0.59922 0.56903 0.01167 0.0
C940 C 0.57207 0.54502 0.0205 0.0
C941 C 0.54497 0.5215 0.01146 0.0
C942 C 0.54503 0.522 0.99426 0.0
H943 H 0.56638 0.6165 0.95883 0.0
H944 H 0.55558 0.593 0.97752 0.0
H945 H 0.59787 0.61861 0.97203 0.0
H946 H 0.62042 0.58854 0.98817 0.0
H947 H 0.62048 0.58773 0.01806 0.0
H948 H 0.05874 0.56994 0.2124 0.0
H949 H 0.05961 0.57625 0.24227 0.0
H950 H 0.07136 0.49161 0.24806 0.0
H951 H 0.07171 0.48606 0.2185 0.0
H952 H 1.02146 0.53921 0.26644 0.0
H953 H 0.14323 0.55262 0.27714 0.0
H954 H 0.12879 0.55394 0.25694 0.0
H955 H 0.11703 0.51516 0.26661 0.0
C956 C 0.06182 0.5529 0.22007 0.0
C957 C 0.06547 0.52767 0.21295 0.0
C958 C 0.06224 0.55645 0.2372 0.0
C959 C 0.06635 0.53491 0.24768 0.0
C960 C 0.06929 0.50936 0.24048 0.0
H961 H 0.05279 0.49146 0.352 0.0
H962 H 0.05447 0.49153 0.32209 0.0
C963 C 0.06919 0.50601 0.22345 0.0
C964 C 0.06672 0.53834 0.26604 0.0
H965 H 0.10862 0.5397 0.30065 0.0
C966 C 0.04078 0.5397 0.27384 0.0
C967 C 0.09189 0.53918 0.27599 0.0
C968 C 0.12196 0.54051 0.26873 0.0
C969 C 0.03879 0.54071 0.29106 0.0
C970 C 0.06336 0.54041 0.30094 0.0
C971 C 0.08954 0.53959 0.29318 0.0
C972 C 0.06217 0.54058 0.3193 0.0
C973 C 1.00987 0.54118 0.29863 0.0
C974 C 0.06627 0.56824 0.32792 0.0
C975 C 0.06558 0.56838 0.34511 0.0
C976 C 0.06046 0.54073 0.35423 0.0
C977 C 0.05638 0.51308 0.34552 0.0
C978 C 0.05749 0.51313 0.32835 0.0
H979 H 0.99027 0.53584 0.28957 0.0
H980 H 0.99946 0.52297 0.30869 0.0
H981 H 1.01808 0.56579 0.3039 0.0
H982 H 0.07026 0.58991 0.32133 0.0
H983 H 0.06861 0.59007 0.35127 0.0
loop_
_geom_bond_atom_site_label_1
_geom_bond_atom_site_label_2
_geom_bond_distance
_geom_bond_site_symmetry_2
_ccdc_geom_bond_type
Tb0 C2 2.809 . S
Tb0 O20 2.484 . S
Tb0 O21 2.440 . S
Tb0 O22 2.658 . S
Tb0 O23 2.409 . S
Tb0 O24 2.378 . S
Tb0 O28 2.325 . S
Tb0 O31 2.341 1_455 S
Tb1 C11 2.809 1_455 S
Tb1 O22 2.325 . S
Tb1 O25 2.341 . S
Tb1 O26 2.484 1_455 S
Tb1 O27 2.440 1_455 S
Tb1 O28 2.658 . S
Tb1 O29 2.409 . S
Tb1 O30 2.378 1_455 S
C2 Tb0 2.809 . S
C2 C3 1.514 . S
C2 O20 1.248 . S
C2 O21 1.266 . S
C3 C2 1.514 . S
C3 C4 1.359 . S
C3 C8 1.348 . S
C4 C3 1.359 . S
C4 C5 1.380 . S
C4 H32 0.929 . S
C5 C4 1.380 . S
C5 C6 1.347 . S
C5 H33 0.931 . S
C6 C5 1.347 . S
C6 C7 1.369 . S
C7 C6 1.369 . S
C7 C8 1.408 . S
C7 H34 0.930 . S
C8 C3 1.348 . S
C8 C7 1.408 . S
C8 H35 0.930 . S
C9 O22 1.281 . S
C9 O23 1.254 . S
C10 O24 1.236 . S
C10 O25 1.266 . S
C11 Tb1 2.809 1_655 S
C11 C12 1.514 . S
C11 O26 1.248 . S
C11 O27 1.266 . S
C12 C11 1.514 . S
C12 C13 1.359 . S
C12 C17 1.348 . S
C13 C12 1.359 . S
C13 C14 1.380 . S
C13 H36 0.929 . S
C14 C13 1.380 . S
C14 C15 1.347 . S
C14 H37 0.931 . S
C15 C14 1.347 . S
C15 C16 1.369 . S
C16 C15 1.369 . S
C16 C17 1.408 . S
C16 H38 0.930 . S
C17 C12 1.348 . S
C17 C16 1.408 . S
C17 H39 0.930 . S
C18 O28 1.281 . S
C18 O29 1.254 . S
C19 O30 1.236 . S
C19 O31 1.266 . S
O20 Tb0 2.484 . S
O20 C2 1.248 . S
O21 Tb0 2.440 . S
O21 C2 1.266 . S
O22 Tb0 2.658 . S
O22 Tb1 2.325 . S
O22 C9 1.281 . S
O23 Tb0 2.409 . S
O23 C9 1.254 . S
O24 Tb0 2.378 . S
O24 C10 1.236 . S
O25 Tb1 2.341 . S
O25 C10 1.266 . S
O26 Tb1 2.484 1_655 S
O26 C11 1.248 . S
O27 Tb1 2.440 1_655 S
O27 C11 1.266 . S
O28 Tb0 2.325 . S
O28 Tb1 2.658 . S
O28 C18 1.281 . S
O29 Tb1 2.409 . S
O29 C18 1.254 . S
O30 Tb1 2.378 1_655 S
O30 C19 1.236 . S
O31 Tb0 2.341 1_655 S
O31 C19 1.266 . S
H32 C4 0.929 . S
H33 C5 0.931 . S
H34 C7 0.930 . S
H35 C8 0.930 . S
H36 C13 0.929 . S
H37 C14 0.931 . S
H38 C16 0.930 . S
H39 C17 0.930 . S
Tb40 C42 2.809 1_545 S
Tb40 O60 2.484 1_545 S
Tb40 O61 2.440 1_545 S
Tb40 O62 2.658 . S
Tb40 O63 2.409 . S
Tb40 O64 2.378 1_545 S
Tb40 O68 2.325 . S
Tb40 O71 2.341 . S
Tb41 C51 2.809 . S
Tb41 O62 2.325 . S
Tb41 O65 2.341 1_545 S
Tb41 O66 2.484 . S
Tb41 O67 2.440 . S
Tb41 O68 2.658 . S
Tb41 O69 2.409 . S
Tb41 O70 2.378 . S
C42 Tb40 2.809 1_565 S
C42 C43 1.514 . S
C42 O60 1.248 . S
C42 O61 1.266 . S
C43 C42 1.514 . S
C43 C44 1.359 . S
C43 C48 1.348 . S
C44 C43 1.359 . S
C44 C45 1.380 . S
C44 H72 0.929 . S
C45 C44 1.380 . S
C45 C46 1.347 . S
C45 H73 0.931 . S
C46 C45 1.347 . S
C46 C47 1.369 . S
C47 C46 1.369 . S
C47 C48 1.408 . S
C47 H74 0.930 . S
C48 C43 1.348 . S
C48 C47 1.408 . S
C48 H75 0.930 . S
C49 O62 1.281 . S
C49 O63 1.254 . S
C50 O64 1.236 . S
C50 O65 1.266 . S
C51 Tb41 2.809 . S
C51 C52 1.514 . S
C51 O66 1.248 . S
C51 O67 1.266 . S
C52 C51 1.514 . S
C52 C53 1.359 . S
C52 C57 1.348 . S
C53 C52 1.359 . S
C53 C54 1.380 . S
C53 H76 0.929 . S
C54 C53 1.380 . S
C54 C55 1.347 . S
C54 H77 0.931 . S
C55 C54 1.347 . S
C55 C56 1.369 . S
C56 C55 1.369 . S
C56 C57 1.408 . S
C56 H78 0.930 . S
C57 C52 1.348 . S
C57 C56 1.408 . S
C57 H79 0.930 . S
C58 O68 1.281 . S
C58 O69 1.254 . S
C59 O70 1.236 . S
C59 O71 1.266 . S
O60 Tb40 2.484 1_565 S
O60 C42 1.248 . S
O61 Tb40 2.440 1_565 S
O61 C42 1.266 . S
O62 Tb40 2.658 . S
O62 Tb41 2.325 . S
O62 C49 1.281 . S
O63 Tb40 2.409 . S
O63 C49 1.254 . S
O64 Tb40 2.378 1_565 S
O64 C50 1.236 . S
O65 Tb41 2.341 1_565 S
O65 C50 1.266 . S
O66 Tb41 2.484 . S
O66 C51 1.248 . S
O67 Tb41 2.440 . S
O67 C51 1.266 . S
O68 Tb40 2.325 . S
O68 Tb41 2.658 . S
O68 C58 1.281 . S
O69 Tb41 2.409 . S
O69 C58 1.254 . S
O70 Tb41 2.378 . S
O70 C59 1.236 . S
O71 Tb40 2.341 . S
O71 C59 1.266 . S
H72 C44 0.929 . S
H73 C45 0.931 . S
H74 C47 0.930 . S
H75 C48 0.930 . S
H76 C53 0.929 . S
H77 C54 0.931 . S
H78 C56 0.930 . S
H79 C57 0.930 . S
Tb80 C82 2.809 . S
Tb80 O100 2.484 . S
Tb80 O101 2.440 . S
Tb80 O102 2.658 . S
Tb80 O103 2.409 . S
Tb80 O104 2.378 . S
Tb80 O108 2.325 . S
Tb80 O111 2.341 . S
Tb81 C91 2.809 . S
Tb81 O102 2.325 . S
Tb81 O105 2.341 . S
Tb81 O106 2.484 . S
Tb81 O107 2.440 . S
Tb81 O108 2.658 . S
Tb81 O109 2.409 . S
Tb81 O110 2.378 . S
C82 Tb80 2.809 . S
C82 C83 1.514 . S
C82 O100 1.248 . S
C82 O101 1.266 . S
C83 C82 1.514 . S
C83 C84 1.359 . S
C83 C88 1.348 . S
C84 C83 1.359 . S
C84 C85 1.380 . S
C84 H112 0.929 . S
C85 C84 1.380 . S
C85 C86 1.347 . S
C85 H113 0.931 . S
C86 C85 1.347 . S
C86 C87 1.369 . S
C87 C86 1.369 . S
C87 C88 1.408 . S
C87 H114 0.930 . S
C88 C83 1.348 . S
C88 C87 1.408 . S
C88 H115 0.930 . S
C89 O102 1.281 . S
C89 O103 1.254 . S
C90 O104 1.236 . S
C90 O105 1.266 . S
C91 Tb81 2.809 . S
C91 C92 1.514 . S
C91 O106 1.248 . S
C91 O107 1.266 . S
C92 C91 1.514 . S
C92 C93 1.359 . S
C92 C97 1.348 . S
C93 C92 1.359 . S
C93 C94 1.380 . S
C93 H116 0.929 . S
C94 C93 1.380 . S
C94 C95 1.347 . S
C94 H117 0.931 . S
C95 C94 1.347 . S
C95 C96 1.369 . S
C96 C95 1.369 . S
C96 C97 1.408 . S
C96 H118 0.930 . S
C97 C92 1.348 . S
C97 C96 1.408 . S
C97 H119 0.930 . S
C98 O108 1.281 . S
C98 O109 1.254 . S
C99 O110 1.236 . S
C99 O111 1.266 . S
O100 Tb80 2.484 . S
O100 C82 1.248 . S
O101 Tb80 2.440 . S
O101 C82 1.266 . S
O102 Tb80 2.658 . S
O102 Tb81 2.325 . S
O102 C89 1.281 . S
O103 Tb80 2.409 . S
O103 C89 1.254 . S
O104 Tb80 2.378 . S
O104 C90 1.236 . S
O105 Tb81 2.341 . S
O105 C90 1.266 . S
O106 Tb81 2.484 . S
O106 C91 1.248 . S
O107 Tb81 2.440 . S
O107 C91 1.266 . S
O108 Tb80 2.325 . S
O108 Tb81 2.658 . S
O108 C98 1.281 . S
O109 Tb81 2.409 . S
O109 C98 1.254 . S
O110 Tb81 2.378 . S
O110 C99 1.236 . S
O111 Tb80 2.341 . S
O111 C99 1.266 . S
H112 C84 0.929 . S
H113 C85 0.931 . S
H114 C87 0.930 . S
H115 C88 0.930 . S
H116 C93 0.929 . S
H117 C94 0.931 . S
H118 C96 0.930 . S
H119 C97 0.930 . S
C120 C121 1.384 . S
C120 H133 0.947 . S
C120 C155 1.382 . S
C121 C120 1.384 . S
C121 C122 1.378 . S
C122 C121 1.378 . S
C122 C123 1.378 . S
C122 H134 0.952 . S
C123 C122 1.378 . S
C123 H135 0.950 1_565 S
C123 C154 1.383 . S
H124 C143 0.947 . S
H125 C144 0.946 . S
H126 C146 0.953 . S
H127 C147 0.945 . S
H128 C149 0.952 . S
H129 C150 0.949 . S
H130 C152 0.950 1_565 S
H131 C153 0.948 1_565 S
H132 C155 0.951 . S
H133 C120 0.947 . S
H134 C122 0.952 . S
H135 C123 0.950 1_545 S
N136 C139 1.382 . S
N136 C141 1.363 . S
N137 C139 1.371 . S
N137 C140 1.372 . S
N138 C140 1.361 . S
N138 C141 1.377 . S
C139 N136 1.382 . S
C139 N137 1.371 . S
C139 C142 1.480 . S
C140 N137 1.372 . S
C140 N138 1.361 . S
C140 C148 1.457 . S
C141 N136 1.363 . S
C141 N138 1.377 . S
C141 C154 1.479 1_545 S
C142 C139 1.480 . S
C142 C143 1.383 . S
C142 C147 1.385 . S
C143 H124 0.947 . S
C143 C142 1.383 . S
C143 C144 1.388 . S
C144 H125 0.946 . S
C144 C143 1.388 . S
C144 C145 1.384 . S
C145 C144 1.384 . S
C145 C146 1.377 . S
C146 H126 0.953 . S
C146 C145 1.377 . S
C146 C147 1.369 . S
C147 H127 0.945 . S
C147 C142 1.385 . S
C147 C146 1.369 . S
C148 C140 1.457 . S
C148 C149 1.372 . S
C148 C153 1.364 . S
C149 H128 0.952 . S
C149 C148 1.372 . S
C149 C150 1.389 . S
C150 H129 0.949 . S
C150 C149 1.389 . S
C150 C151 1.387 . S
C151 C150 1.387 . S
C151 C152 1.372 . S
C152 H130 0.950 1_545 S
C152 C151 1.372 . S
C152 C153 1.379 . S
C153 H131 0.948 1_545 S
C153 C148 1.364 . S
C153 C152 1.379 . S
C154 C123 1.383 . S
C154 C141 1.479 1_565 S
C154 C155 1.398 . S
C155 C120 1.382 . S
C155 H132 0.951 . S
C155 C154 1.398 . S
C156 C157 1.384 . S
C156 H169 0.947 . S
C156 C191 1.382 . S
C157 C156 1.384 . S
C157 C158 1.378 . S
C158 C157 1.378 . S
C158 C159 1.378 . S
C158 H170 0.952 . S
C159 C158 1.378 . S
C159 H171 0.950 . S
C159 C190 1.383 . S
H160 C179 0.947 . S
H161 C180 0.946 . S
H162 C182 0.953 . S
H163 C183 0.945 . S
H164 C185 0.952 . S
H165 C186 0.949 . S
H166 C188 0.950 . S
H167 C189 0.948 . S
H168 C191 0.951 . S
H169 C156 0.947 . S
H170 C158 0.952 . S
H171 C159 0.950 . S
N172 C175 1.382 . S
N172 C177 1.363 . S
N173 C175 1.371 . S
N173 C176 1.372 . S
N174 C176 1.361 . S
N174 C177 1.377 . S
C175 N172 1.382 . S
C175 N173 1.371 . S
C175 C178 1.480 . S
C176 N173 1.372 . S
C176 N174 1.361 . S
C176 C184 1.457 . S
C177 N172 1.363 . S
C177 N174 1.377 . S
C177 C190 1.479 . S
C178 C175 1.480 . S
C178 C179 1.383 . S
C178 C183 1.385 . S
C179 H160 0.947 . S
C179 C178 1.383 . S
C179 C180 1.388 . S
C180 H161 0.946 . S
C180 C179 1.388 . S
C180 C181 1.384 . S
C181 C180 1.384 . S
C181 C182 1.377 . S
C182 H162 0.953 . S
C182 C181 1.377 . S
C182 C183 1.369 . S
C183 H163 0.945 . S
C183 C178 1.385 . S
C183 C182 1.369 . S
C184 C176 1.457 . S
C184 C185 1.372 . S
C184 C189 1.364 . S
C185 H164 0.952 . S
C185 C184 1.372 . S
C185 C186 1.389 . S
C186 H165 0.949 . S
C186 C185 1.389 . S
C186 C187 1.387 . S
C187 C186 1.387 . S
C187 C188 1.372 . S
C188 H166 0.950 . S
C188 C187 1.372 . S
C188 C189 1.379 . S
C189 H167 0.948 . S
C189 C184 1.364 . S
C189 C188 1.379 . S
C190 C159 1.383 . S
C190 C177 1.479 . S
C190 C191 1.398 . S
C191 C156 1.382 . S
C191 H168 0.951 . S
C191 C190 1.398 . S
C192 C193 1.384 . S
C192 H205 0.947 . S
C192 C227 1.382 . S
C193 C192 1.384 . S
C193 C194 1.378 . S
C194 C193 1.378 . S
C194 C195 1.378 . S
C194 H206 0.952 . S
C195 C194 1.378 . S
C195 H207 0.950 . S
C195 C226 1.383 . S
H196 C215 0.947 . S
H197 C216 0.946 . S
H198 C218 0.953 . S
H199 C219 0.945 . S
H200 C221 0.952 . S
H201 C222 0.949 . S
H202 C224 0.950 . S
H203 C225 0.948 . S
H204 C227 0.951 . S
H205 C192 0.947 . S
H206 C194 0.952 . S
H207 C195 0.950 . S
N208 C211 1.382 . S
N208 C213 1.363 1_455 S
N209 C211 1.371 . S
N209 C212 1.372 . S
N210 C212 1.361 1_655 S
N210 C213 1.377 . S
C211 N208 1.382 . S
C211 N209 1.371 . S
C211 C214 1.480 . S
C212 N209 1.372 . S
C212 N210 1.361 1_455 S
C212 C220 1.457 . S
C213 N208 1.363 1_655 S
C213 N210 1.377 . S
C213 C226 1.479 . S
C214 C211 1.480 . S
C214 C215 1.383 . S
C214 C219 1.385 . S
C215 H196 0.947 . S
C215 C214 1.383 . S
C215 C216 1.388 . S
C216 H197 0.946 . S
C216 C215 1.388 . S
C216 C217 1.384 . S
C217 C216 1.384 . S
C217 C218 1.377 . S
C218 H198 0.953 . S
C218 C217 1.377 . S
C218 C219 1.369 . S
C219 H199 0.945 . S
C219 C214 1.385 . S
C219 C218 1.369 . S
C220 C212 1.457 . S
C220 C221 1.372 . S
C220 C225 1.364 1_455 S
C221 H200 0.952 . S
C221 C220 1.372 . S
C221 C222 1.389 . S
C222 H201 0.949 . S
C222 C221 1.389 . S
C222 C223 1.387 . S
C223 C222 1.387 . S
C223 C224 1.372 1_455 S
C224 H202 0.950 . S
C224 C223 1.372 1_655 S
C224 C225 1.379 . S
C225 H203 0.948 . S
C225 C220 1.364 1_655 S
C225 C224 1.379 . S
C226 C195 1.383 . S
C226 C213 1.479 . S
C226 C227 1.398 . S
C227 C192 1.382 . S
C227 H204 0.951 . S
C227 C226 1.398 . S
C228 C229 1.384 . S
C228 H241 0.947 . S
C228 C263 1.382 . S
C229 C228 1.384 . S
C229 C230 1.378 . S
C230 C229 1.378 . S
C230 C231 1.378 . S
C230 H242 0.952 . S
C231 C230 1.378 . S
C231 H243 0.950 . S
C231 C262 1.383 . S
H232 C251 0.947 . S
H233 C252 0.946 . S
H234 C254 0.953 . S
H235 C255 0.945 . S
H236 C257 0.952 . S
H237 C258 0.949 . S
H238 C260 0.950 . S
H239 C261 0.948 . S
H240 C263 0.951 . S
H241 C228 0.947 . S
H242 C230 0.952 . S
H243 C231 0.950 . S
N244 C247 1.382 . S
N244 C249 1.363 . S
N245 C247 1.371 . S
N245 C248 1.372 . S
N246 C248 1.361 . S
N246 C249 1.377 . S
C247 N244 1.382 . S
C247 N245 1.371 . S
C247 C250 1.480 . S
C248 N245 1.372 . S
C248 N246 1.361 . S
C248 C256 1.457 . S
C249 N244 1.363 . S
C249 N246 1.377 . S
C249 C262 1.479 . S
C250 C247 1.480 . S
C250 C251 1.383 . S
C250 C255 1.385 1_455 S
C251 H232 0.947 . S
C251 C250 1.383 . S
C251 C252 1.388 1_455 S
C252 H233 0.946 . S
C252 C251 1.388 1_655 S
C252 C253 1.384 . S
C253 C252 1.384 . S
C253 C254 1.377 . S
C254 H234 0.953 . S
C254 C253 1.377 . S
C254 C255 1.369 . S
C255 H235 0.945 . S
C255 C250 1.385 1_655 S
C255 C254 1.369 . S
C256 C248 1.457 . S
C256 C257 1.372 . S
C256 C261 1.364 . S
C257 H236 0.952 . S
C257 C256 1.372 . S
C257 C258 1.389 . S
C258 H237 0.949 . S
C258 C257 1.389 . S
C258 C259 1.387 . S
C259 C258 1.387 . S
C259 C260 1.372 . S
C260 H238 0.950 . S
C260 C259 1.372 . S
C260 C261 1.379 . S
C261 H239 0.948 . S
C261 C256 1.364 . S
C261 C260 1.379 . S
C262 C231 1.383 . S
C262 C249 1.479 . S
C262 C263 1.398 . S
C263 C228 1.382 . S
C263 H240 0.951 . S
C263 C262 1.398 . S
C264 C265 1.384 . S
C264 H277 0.947 . S
C264 C299 1.382 . S
C265 C264 1.384 . S
C265 C266 1.378 . S
C266 C265 1.378 . S
C266 C267 1.378 . S
C266 H278 0.952 . S
C267 C266 1.378 . S
C267 H279 0.950 . S
C267 C298 1.383 . S
H268 C287 0.947 . S
H269 C288 0.946 . S
H270 C290 0.953 . S
H271 C291 0.945 . S
H272 C293 0.952 . S
H273 C294 0.949 . S
H274 C296 0.950 . S
H275 C297 0.948 . S
H276 C299 0.951 . S
H277 C264 0.947 . S
H278 C266 0.952 . S
H279 C267 0.950 . S
N280 C283 1.382 1_545 S
N280 C285 1.363 . S
N281 C283 1.371 . S
N281 C284 1.372 1_565 S
N282 C284 1.361 . S
N282 C285 1.377 . S
C283 N280 1.382 1_565 S
C283 N281 1.371 . S
C283 C286 1.480 . S
C284 N281 1.372 1_545 S
C284 N282 1.361 . S
C284 C292 1.457 . S
C285 N280 1.363 . S
C285 N282 1.377 . S
C285 C298 1.479 . S
C286 C283 1.480 . S
C286 C287 1.383 . S
C286 C291 1.385 . S
C287 H268 0.947 . S
C287 C286 1.383 . S
C287 C288 1.388 . S
C288 H269 0.946 . S
C288 C287 1.388 . S
C288 C289 1.384 . S
C289 C288 1.384 . S
C289 C290 1.377 . S
C290 H270 0.953 . S
C290 C289 1.377 . S
C290 C291 1.369 . S
C291 H271 0.945 . S
C291 C286 1.385 . S
C291 C290 1.369 . S
C292 C284 1.457 . S
C292 C293 1.372 1_545 S
C292 C297 1.364 . S
C293 H272 0.952 . S
C293 C292 1.372 1_565 S
C293 C294 1.389 . S
C294 H273 0.949 . S
C294 C293 1.389 . S
C294 C295 1.387 1_565 S
C295 C294 1.387 1_545 S
C295 C296 1.372 . S
C296 H274 0.950 . S
C296 C295 1.372 . S
C296 C297 1.379 . S
C297 H275 0.948 . S
C297 C292 1.364 . S
C297 C296 1.379 . S
C298 C267 1.383 . S
C298 C285 1.479 . S
C298 C299 1.398 . S
C299 C264 1.382 . S
C299 H276 0.951 . S
C299 C298 1.398 . S
C300 C301 1.384 . S
C300 H313 0.947 . S
C300 C335 1.382 . S
C301 C300 1.384 . S
C301 C302 1.378 . S
C302 C301 1.378 . S
C302 C303 1.378 . S
C302 H314 0.952 . S
C303 C302 1.378 . S
C303 H315 0.950 . S
C303 C334 1.383 . S
H304 C323 0.947 . S
H305 C324 0.946 . S
H306 C326 0.953 . S
H307 C327 0.945 . S
H308 C329 0.952 . S
H309 C330 0.949 . S
H310 C332 0.950 . S
H311 C333 0.948 . S
H312 C335 0.951 . S
H313 C300 0.947 . S
H314 C302 0.952 . S
H315 C303 0.950 . S
N316 C319 1.382 . S
N316 C321 1.363 . S
N317 C319 1.371 . S
N317 C320 1.372 . S
N318 C320 1.361 . S
N318 C321 1.377 . S
C319 N316 1.382 . S
C319 N317 1.371 . S
C319 C322 1.480 . S
C320 N317 1.372 . S
C320 N318 1.361 . S
C320 C328 1.457 . S
C321 N316 1.363 . S
C321 N318 1.377 . S
C321 C334 1.479 . S
C322 C319 1.480 . S
C322 C323 1.383 . S
C322 C327 1.385 . S
C323 H304 0.947 . S
C323 C322 1.383 . S
C323 C324 1.388 . S
C324 H305 0.946 . S
C324 C323 1.388 . S
C324 C325 1.384 . S
C325 C324 1.384 . S
C325 C326 1.377 . S
C326 H306 0.953 . S
C326 C325 1.377 . S
C326 C327 1.369 . S
C327 H307 0.945 . S
C327 C322 1.385 . S
C327 C326 1.369 . S
C328 C320 1.457 . S
C328 C329 1.372 . S
C328 C333 1.364 . S
C329 H308 0.952 . S
C329 C328 1.372 . S
C329 C330 1.389 . S
C330 H309 0.949 . S
C330 C329 1.389 . S
C330 C331 1.387 . S
C331 C330 1.387 . S
C331 C332 1.372 . S
C332 H310 0.950 . S
C332 C331 1.372 . S
C332 C333 1.379 . S
C333 H311 0.948 . S
C333 C328 1.364 . S
C333 C332 1.379 . S
C334 C303 1.383 . S
C334 C321 1.479 . S
C334 C335 1.398 . S
C335 C300 1.382 . S
C335 H312 0.951 . S
C335 C334 1.398 . S
H336 C344 0.929 . S
H337 C346 0.930 . S
H338 C348 0.930 . S
H339 C351 0.929 . S
H340 C354 0.930 . S
H341 C356 0.960 . S
H342 C356 0.960 . S
H343 C356 0.960 . S
C344 H336 0.929 . S
C344 C345 1.377 . S
C344 C346 1.384 . S
C345 C344 1.377 . S
C345 C351 1.390 . S
C346 H337 0.930 . S
C346 C344 1.384 . S
C346 C347 1.372 . S
C347 C346 1.372 . S
C347 C348 1.400 . S
C347 C352 1.490 . S
C348 H338 0.930 . S
C348 C347 1.400 . S
C348 C351 1.386 . S
H349 C365 0.930 . S
H350 C366 0.931 . S
C351 H339 0.929 . S
C351 C345 1.390 . S
C351 C348 1.386 . S
C352 C347 1.490 . S
C352 C354 1.395 . S
C352 C355 1.403 . S
H353 C359 0.930 . S
C354 H340 0.930 . S
C354 C352 1.395 . S
C354 C357 1.403 . S
C355 C352 1.403 . S
C355 C356 1.524 . S
C355 C359 1.400 . S
C356 H341 0.960 . S
C356 H342 0.960 . S
C356 H343 0.960 . S
C356 C355 1.524 . S
C357 C354 1.403 . S
C357 C358 1.392 . S
C357 C361 1.495 . S
C358 C357 1.392 . S
C358 C359 1.385 . S
C358 C360 1.478 . S
C359 H353 0.930 . S
C359 C355 1.400 . S
C359 C358 1.385 . S
C360 C358 1.478 . S
C360 C362 1.381 . S
C360 C366 1.383 . S
C361 C357 1.495 . S
C361 H367 0.959 . S
C361 H368 0.961 . S
C361 H369 0.960 . S
C362 C360 1.381 . S
C362 C363 1.394 . S
C362 H370 0.930 . S
C363 C362 1.394 . S
C363 C364 1.383 . S
C363 H371 0.929 . S
C364 C363 1.383 . S
C364 C365 1.377 . S
C365 H349 0.930 . S
C365 C364 1.377 . S
C365 C366 1.379 . S
C366 H350 0.931 . S
C366 C360 1.383 . S
C366 C365 1.379 . S
H367 C361 0.959 . S
H368 C361 0.961 . S
H369 C361 0.960 . S
H370 C362 0.930 . S
H371 C363 0.929 . S
H372 C380 0.929 . S
H373 C382 0.930 . S
H374 C384 0.930 . S
H375 C387 0.929 . S
H376 C390 0.930 . S
H377 C392 0.960 . S
H378 C392 0.960 . S
H379 C392 0.960 . S
C380 H372 0.929 . S
C380 C381 1.377 . S
C380 C382 1.384 . S
C381 C380 1.377 . S
C381 C387 1.390 . S
C382 H373 0.930 . S
C382 C380 1.384 . S
C382 C383 1.372 . S
C383 C382 1.372 . S
C383 C384 1.400 . S
C383 C388 1.490 . S
C384 H374 0.930 . S
C384 C383 1.400 . S
C384 C387 1.386 . S
H385 C401 0.930 . S
H386 C402 0.931 . S
C387 H375 0.929 . S
C387 C381 1.390 . S
C387 C384 1.386 . S
C388 C383 1.490 . S
C388 C390 1.395 . S
C388 C391 1.403 . S
H389 C395 0.930 . S
C390 H376 0.930 . S
C390 C388 1.395 . S
C390 C393 1.403 . S
C391 C388 1.403 . S
C391 C392 1.524 . S
C391 C395 1.400 . S
C392 H377 0.960 . S
C392 H378 0.960 . S
C392 H379 0.960 . S
C392 C391 1.524 . S
C393 C390 1.403 . S
C393 C394 1.392 . S
C393 C397 1.495 . S
C394 C393 1.392 . S
C394 C395 1.385 . S
C394 C396 1.478 . S
C395 H389 0.930 . S
C395 C391 1.400 . S
C395 C394 1.385 . S
C396 C394 1.478 . S
C396 C398 1.381 . S
C396 C402 1.383 . S
C397 C393 1.495 . S
C397 H403 0.959 . S
C397 H404 0.961 . S
C397 H405 0.960 . S
C398 C396 1.381 . S
C398 C399 1.394 . S
C398 H406 0.930 . S
C399 C398 1.394 . S
C399 C400 1.383 . S
C399 H407 0.929 . S
C400 C399 1.383 . S
C400 C401 1.377 . S
C401 H385 0.930 . S
C401 C400 1.377 . S
C401 C402 1.379 . S
C402 H386 0.931 . S
C402 C396 1.383 . S
C402 C401 1.379 . S
H403 C397 0.959 . S
H404 C397 0.961 . S
H405 C397 0.960 . S
H406 C398 0.930 . S
H407 C399 0.929 . S
H408 C416 0.929 . S
H409 C418 0.930 . S
H410 C420 0.930 . S
H411 C423 0.929 . S
H412 C426 0.930 . S
H413 C428 0.960 . S
H414 C428 0.960 . S
H415 C428 0.960 . S
C416 H408 0.929 . S
C416 C417 1.377 . S
C416 C418 1.384 . S
C417 C416 1.377 . S
C417 C423 1.390 . S
C418 H409 0.930 . S
C418 C416 1.384 . S
C418 C419 1.372 . S
C419 C418 1.372 . S
C419 C420 1.400 . S
C419 C424 1.490 . S
C420 H410 0.930 . S
C420 C419 1.400 . S
C420 C423 1.386 . S
H421 C437 0.930 . S
H422 C438 0.931 . S
C423 H411 0.929 . S
C423 C417 1.390 . S
C423 C420 1.386 . S
C424 C419 1.490 . S
C424 C426 1.395 . S
C424 C427 1.403 . S
H425 C431 0.930 . S
C426 H412 0.930 . S
C426 C424 1.395 . S
C426 C429 1.403 . S
C427 C424 1.403 . S
C427 C428 1.524 . S
C427 C431 1.400 . S
C428 H413 0.960 . S
C428 H414 0.960 . S
C428 H415 0.960 . S
C428 C427 1.524 . S
C429 C426 1.403 . S
C429 C430 1.392 . S
C429 C433 1.495 . S
C430 C429 1.392 . S
C430 C431 1.385 . S
C430 C432 1.478 . S
C431 H425 0.930 . S
C431 C427 1.400 . S
C431 C430 1.385 . S
C432 C430 1.478 . S
C432 C434 1.381 . S
C432 C438 1.383 . S
C433 C429 1.495 . S
C433 H439 0.959 . S
C433 H440 0.961 . S
C433 H441 0.960 . S
C434 C432 1.381 . S
C434 C435 1.394 . S
C434 H442 0.930 . S
C435 C434 1.394 . S
C435 C436 1.383 . S
C435 H443 0.929 . S
C436 C435 1.383 . S
C436 C437 1.377 . S
C437 H421 0.930 . S
C437 C436 1.377 . S
C437 C438 1.379 . S
C438 H422 0.931 . S
C438 C432 1.383 . S
C438 C437 1.379 . S
H439 C433 0.959 . S
H440 C433 0.961 . S
H441 C433 0.960 . S
H442 C434 0.930 . S
H443 C435 0.929 . S
H444 C452 0.929 . S
H445 C454 0.930 . S
H446 C456 0.930 . S
H447 C459 0.929 . S
H448 C462 0.930 . S
H449 C464 0.960 . S
H450 C464 0.960 . S
H451 C464 0.960 . S
C452 H444 0.929 . S
C452 C453 1.377 . S
C452 C454 1.384 . S
C453 C452 1.377 . S
C453 C459 1.390 . S
C454 H445 0.930 . S
C454 C452 1.384 . S
C454 C455 1.372 . S
C455 C454 1.372 . S
C455 C456 1.400 . S
C455 C460 1.490 . S
C456 H446 0.930 . S
C456 C455 1.400 . S
C456 C459 1.386 . S
H457 C473 0.930 . S
H458 C474 0.931 . S
C459 H447 0.929 . S
C459 C453 1.390 . S
C459 C456 1.386 . S
C460 C455 1.490 . S
C460 C462 1.395 . S
C460 C463 1.403 . S
H461 C467 0.930 . S
C462 H448 0.930 . S
C462 C460 1.395 . S
C462 C465 1.403 . S
C463 C460 1.403 . S
C463 C464 1.524 . S
C463 C467 1.400 . S
C464 H449 0.960 . S
C464 H450 0.960 . S
C464 H451 0.960 . S
C464 C463 1.524 . S
C465 C462 1.403 . S
C465 C466 1.392 . S
C465 C469 1.495 . S
C466 C465 1.392 . S
C466 C467 1.385 . S
C466 C468 1.478 . S
C467 H461 0.930 . S
C467 C463 1.400 . S
C467 C466 1.385 . S
C468 C466 1.478 . S
C468 C470 1.381 . S
C468 C474 1.383 . S
C469 C465 1.495 . S
C469 H475 0.959 . S
C469 H476 0.961 . S
C469 H477 0.960 . S
C470 C468 1.381 . S
C470 C471 1.394 . S
C470 H478 0.930 . S
C471 C470 1.394 . S
C471 C472 1.383 . S
C471 H479 0.929 . S
C472 C471 1.383 . S
C472 C473 1.377 . S
C473 H457 0.930 . S
C473 C472 1.377 . S
C473 C474 1.379 . S
C474 H458 0.931 . S
C474 C468 1.383 . S
C474 C473 1.379 . S
H475 C469 0.959 . S
H476 C469 0.961 . S
H477 C469 0.960 . S
H478 C470 0.930 . S
H479 C471 0.929 . S
H480 C488 0.929 . S
H481 C490 0.930 . S
H482 C492 0.930 . S
H483 C495 0.929 . S
H484 C498 0.930 . S
H485 C500 0.960 . S
H486 C500 0.960 . S
H487 C500 0.960 . S
C488 H480 0.929 . S
C488 C489 1.377 . S
C488 C490 1.384 . S
C489 C488 1.377 . S
C489 C495 1.390 . S
C490 H481 0.930 . S
C490 C488 1.384 . S
C490 C491 1.372 . S
C491 C490 1.372 . S
C491 C492 1.400 . S
C491 C496 1.490 . S
C492 H482 0.930 . S
C492 C491 1.400 . S
C492 C495 1.386 . S
H493 C509 0.930 . S
H494 C510 0.931 . S
C495 H483 0.929 . S
C495 C489 1.390 . S
C495 C492 1.386 . S
C496 C491 1.490 . S
C496 C498 1.395 . S
C496 C499 1.403 . S
H497 C503 0.930 . S
C498 H484 0.930 . S
C498 C496 1.395 . S
C498 C501 1.403 . S
C499 C496 1.403 . S
C499 C500 1.524 . S
C499 C503 1.400 . S
C500 H485 0.960 . S
C500 H486 0.960 . S
C500 H487 0.960 . S
C500 C499 1.524 . S
C501 C498 1.403 . S
C501 C502 1.392 . S
C501 C505 1.495 . S
C502 C501 1.392 . S
C502 C503 1.385 . S
C502 C504 1.478 . S
C503 H497 0.930 . S
C503 C499 1.400 . S
C503 C502 1.385 . S
C504 C502 1.478 . S
C504 C506 1.381 . S
C504 C510 1.383 . S
C505 C501 1.495 . S
C505 H511 0.959 . S
C505 H512 0.961 . S
C505 H513 0.960 . S
C506 C504 1.381 . S
C506 C507 1.394 . S
C506 H514 0.930 . S
C507 C506 1.394 . S
C507 C508 1.383 . S
C507 H515 0.929 . S
C508 C507 1.383 . S
C508 C509 1.377 . S
C509 H493 0.930 . S
C509 C508 1.377 . S
C509 C510 1.379 . S
C510 H494 0.931 . S
C510 C504 1.383 . S
C510 C509 1.379 . S
H511 C505 0.959 . S
H512 C505 0.961 . S
H513 C505 0.960 . S
H514 C506 0.930 . S
H515 C507 0.929 . S
H516 C524 0.929 . S
H517 C526 0.930 . S
H518 C528 0.930 . S
H519 C531 0.929 . S
H520 C534 0.930 . S
H521 C536 0.960 . S
H522 C536 0.960 . S
H523 C536 0.960 . S
C524 H516 0.929 . S
C524 C525 1.377 . S
C524 C526 1.384 . S
C525 C524 1.377 . S
C525 C531 1.390 . S
C526 H517 0.930 . S
C526 C524 1.384 . S
C526 C527 1.372 . S
C527 C526 1.372 . S
C527 C528 1.400 . S
C527 C532 1.490 . S
C528 H518 0.930 . S
C528 C527 1.400 . S
C528 C531 1.386 . S
H529 C545 0.930 . S
H530 C546 0.931 . S
C531 H519 0.929 . S
C531 C525 1.390 . S
C531 C528 1.386 . S
C532 C527 1.490 . S
C532 C534 1.395 . S
C532 C535 1.403 . S
H533 C539 0.930 . S
C534 H520 0.930 . S
C534 C532 1.395 . S
C534 C537 1.403 . S
C535 C532 1.403 . S
C535 C536 1.524 . S
C535 C539 1.400 . S
C536 H521 0.960 . S
C536 H522 0.960 . S
C536 H523 0.960 . S
C536 C535 1.524 . S
C537 C534 1.403 . S
C537 C538 1.392 . S
C537 C541 1.495 . S
C538 C537 1.392 . S
C538 C539 1.385 . S
C538 C540 1.478 . S
C539 H533 0.930 . S
C539 C535 1.400 . S
C539 C538 1.385 . S
C540 C538 1.478 . S
C540 C542 1.381 . S
C540 C546 1.383 . S
C541 C537 1.495 . S
C541 H547 0.959 . S
C541 H548 0.961 . S
C541 H549 0.960 . S
C542 C540 1.381 . S
C542 C543 1.394 . S
C542 H550 0.930 . S
C543 C542 1.394 . S
C543 C544 1.383 . S
C543 H551 0.929 . S
C544 C543 1.383 . S
C544 C545 1.377 . S
C545 H529 0.930 . S
C545 C544 1.377 . S
C545 C546 1.379 . S
C546 H530 0.931 . S
C546 C540 1.383 . S
C546 C545 1.379 . S
H547 C541 0.959 . S
H548 C541 0.961 . S
H549 C541 0.960 . S
H550 C542 0.930 . S
H551 C543 0.929 . S
H552 C560 0.929 . S
H553 C562 0.930 . S
H554 C564 0.930 . S
H555 C567 0.929 . S
H556 C570 0.930 . S
H557 C572 0.960 . S
H558 C572 0.960 . S
H559 C572 0.960 . S
C560 H552 0.929 . S
C560 C561 1.377 . S
C560 C562 1.384 . S
C561 C560 1.377 . S
C561 C567 1.390 . S
C562 H553 0.930 . S
C562 C560 1.384 . S
C562 C563 1.372 . S
C563 C562 1.372 . S
C563 C564 1.400 . S
C563 C568 1.490 . S
C564 H554 0.930 . S
C564 C563 1.400 . S
C564 C567 1.386 . S
H565 C581 0.930 . S
H566 C582 0.931 . S
C567 H555 0.929 . S
C567 C561 1.390 . S
C567 C564 1.386 . S
C568 C563 1.490 . S
C568 C570 1.395 . S
C568 C571 1.403 . S
H569 C575 0.930 . S
C570 H556 0.930 . S
C570 C568 1.395 . S
C570 C573 1.403 . S
C571 C568 1.403 . S
C571 C572 1.524 . S
C571 C575 1.400 . S
C572 H557 0.960 . S
C572 H558 0.960 . S
C572 H559 0.960 . S
C572 C571 1.524 . S
C573 C570 1.403 . S
C573 C574 1.392 . S
C573 C577 1.495 . S
C574 C573 1.392 . S
C574 C575 1.385 . S
C574 C576 1.478 . S
C575 H569 0.930 . S
C575 C571 1.400 . S
C575 C574 1.385 . S
C576 C574 1.478 . S
C576 C578 1.381 . S
C576 C582 1.383 . S
C577 C573 1.495 . S
C577 H583 0.959 . S
C577 H584 0.961 . S
C577 H585 0.960 . S
C578 C576 1.381 . S
C578 C579 1.394 . S
C578 H586 0.930 . S
C579 C578 1.394 . S
C579 C580 1.383 . S
C579 H587 0.929 . S
C580 C579 1.383 . S
C580 C581 1.377 . S
C581 H565 0.930 . S
C581 C580 1.377 . S
C581 C582 1.379 . S
C582 H566 0.931 . S
C582 C576 1.383 . S
C582 C581 1.379 . S
H583 C577 0.959 . S
H584 C577 0.961 . S
H585 C577 0.960 . S
H586 C578 0.930 . S
H587 C579 0.929 . S
H588 C596 0.929 . S
H589 C598 0.930 . S
H590 C600 0.930 . S
H591 C603 0.929 . S
H592 C606 0.930 . S
H593 C608 0.960 . S
H594 C608 0.960 . S
H595 C608 0.960 . S
C596 H588 0.929 . S
C596 C597 1.377 . S
C596 C598 1.384 . S
C597 C596 1.377 . S
C597 C603 1.390 . S
C598 H589 0.930 . S
C598 C596 1.384 . S
C598 C599 1.372 . S
C599 C598 1.372 . S
C599 C600 1.400 . S
C599 C604 1.490 . S
C600 H590 0.930 . S
C600 C599 1.400 . S
C600 C603 1.386 . S
H601 C617 0.930 . S
H602 C618 0.931 . S
C603 H591 0.929 . S
C603 C597 1.390 . S
C603 C600 1.386 . S
C604 C599 1.490 . S
C604 C606 1.395 . S
C604 C607 1.403 . S
H605 C611 0.930 . S
C606 H592 0.930 . S
C606 C604 1.395 . S
C606 C609 1.403 . S
C607 C604 1.403 . S
C607 C608 1.524 . S
C607 C611 1.400 . S
C608 H593 0.960 . S
C608 H594 0.960 . S
C608 H595 0.960 . S
C608 C607 1.524 . S
C609 C606 1.403 . S
C609 C610 1.392 . S
C609 C613 1.495 . S
C610 C609 1.392 . S
C610 C611 1.385 . S
C610 C612 1.478 . S
C611 H605 0.930 . S
C611 C607 1.400 . S
C611 C610 1.385 . S
C612 C610 1.478 . S
C612 C614 1.381 . S
C612 C618 1.383 . S
C613 C609 1.495 . S
C613 H619 0.959 . S
C613 H620 0.961 . S
C613 H621 0.960 . S
C614 C612 1.381 . S
C614 C615 1.394 . S
C614 H622 0.930 . S
C615 C614 1.394 . S
C615 C616 1.383 . S
C615 H623 0.929 . S
C616 C615 1.383 . S
C616 C617 1.377 . S
C617 H601 0.930 . S
C617 C616 1.377 . S
C617 C618 1.379 . S
C618 H602 0.931 . S
C618 C612 1.383 . S
C618 C617 1.379 . S
H619 C613 0.959 . S
H620 C613 0.961 . S
H621 C613 0.960 . S
H622 C614 0.930 . S
H623 C615 0.929 . S
H624 C632 0.929 . S
H625 C634 0.930 . S
H626 C636 0.930 . S
H627 C639 0.929 . S
H628 C642 0.930 . S
H629 C644 0.960 . S
H630 C644 0.960 . S
H631 C644 0.960 . S
C632 H624 0.929 . S
C632 C633 1.377 . S
C632 C634 1.384 . S
C633 C632 1.377 . S
C633 C639 1.390 . S
C634 H625 0.930 . S
C634 C632 1.384 . S
C634 C635 1.372 . S
C635 C634 1.372 . S
C635 C636 1.400 . S
C635 C640 1.490 . S
C636 H626 0.930 . S
C636 C635 1.400 . S
C636 C639 1.386 . S
H637 C653 0.930 . S
H638 C654 0.931 . S
C639 H627 0.929 . S
C639 C633 1.390 . S
C639 C636 1.386 . S
C640 C635 1.490 . S
C640 C642 1.395 . S
C640 C643 1.403 . S
H641 C647 0.930 . S
C642 H628 0.930 . S
C642 C640 1.395 . S
C642 C645 1.403 . S
C643 C640 1.403 . S
C643 C644 1.524 . S
C643 C647 1.400 . S
C644 H629 0.960 . S
C644 H630 0.960 . S
C644 H631 0.960 . S
C644 C643 1.524 . S
C645 C642 1.403 . S
C645 C646 1.392 . S
C645 C649 1.495 . S
C646 C645 1.392 . S
C646 C647 1.385 . S
C646 C648 1.478 . S
C647 H641 0.930 . S
C647 C643 1.400 . S
C647 C646 1.385 . S
C648 C646 1.478 . S
C648 C650 1.381 . S
C648 C654 1.383 . S
C649 C645 1.495 . S
C649 H655 0.959 . S
C649 H656 0.961 . S
C649 H657 0.960 . S
C650 C648 1.381 . S
C650 C651 1.394 . S
C650 H658 0.930 . S
C651 C650 1.394 . S
C651 C652 1.383 . S
C651 H659 0.929 . S
C652 C651 1.383 . S
C652 C653 1.377 . S
C653 H637 0.930 . S
C653 C652 1.377 . S
C653 C654 1.379 . S
C654 H638 0.931 . S
C654 C648 1.383 . S
C654 C653 1.379 . S
H655 C649 0.959 . S
H656 C649 0.961 . S
H657 C649 0.960 . S
H658 C650 0.930 . S
H659 C651 0.929 . S
H660 C668 0.929 . S
H661 C670 0.930 . S
H662 C672 0.930 . S
H663 C675 0.929 . S
H664 C678 0.930 . S
H665 C680 0.960 . S
H666 C680 0.960 . S
H667 C680 0.960 . S
C668 H660 0.929 . S
C668 C669 1.377 . S
C668 C670 1.384 . S
C669 C668 1.377 . S
C669 C675 1.390 . S
C670 H661 0.930 . S
C670 C668 1.384 . S
C670 C671 1.372 . S
C671 C670 1.372 . S
C671 C672 1.400 . S
C671 C676 1.490 . S
C672 H662 0.930 . S
C672 C671 1.400 . S
C672 C675 1.386 . S
H673 C689 0.930 . S
H674 C690 0.931 . S
C675 H663 0.929 . S
C675 C669 1.390 . S
C675 C672 1.386 . S
C676 C671 1.490 . S
C676 C678 1.395 . S
C676 C679 1.403 . S
H677 C683 0.930 . S
C678 H664 0.930 . S
C678 C676 1.395 . S
C678 C681 1.403 . S
C679 C676 1.403 . S
C679 C680 1.524 . S
C679 C683 1.400 . S
C680 H665 0.960 . S
C680 H666 0.960 . S
C680 H667 0.960 . S
C680 C679 1.524 . S
C681 C678 1.403 . S
C681 C682 1.392 . S
C681 C685 1.495 . S
C682 C681 1.392 . S
C682 C683 1.385 . S
C682 C684 1.478 . S
C683 H677 0.930 . S
C683 C679 1.400 . S
C683 C682 1.385 . S
C684 C682 1.478 . S
C684 C686 1.381 . S
C684 C690 1.383 . S
C685 C681 1.495 . S
C685 H691 0.959 . S
C685 H692 0.961 . S
C685 H693 0.960 . S
C686 C684 1.381 . S
C686 C687 1.394 . S
C686 H694 0.930 . S
C687 C686 1.394 . S
C687 C688 1.383 . S
C687 H695 0.929 . S
C688 C687 1.383 . S
C688 C689 1.377 . S
C689 H673 0.930 . S
C689 C688 1.377 . S
C689 C690 1.379 . S
C690 H674 0.931 . S
C690 C684 1.383 . S
C690 C689 1.379 . S
H691 C685 0.959 . S
H692 C685 0.961 . S
H693 C685 0.960 . S
H694 C686 0.930 . S
H695 C687 0.929 . S
H696 C704 0.929 . S
H697 C706 0.930 . S
H698 C708 0.930 . S
H699 C711 0.929 . S
H700 C714 0.930 . S
H701 C716 0.960 . S
H702 C716 0.960 . S
H703 C716 0.960 . S
C704 H696 0.929 . S
C704 C705 1.377 . S
C704 C706 1.384 . S
C705 C704 1.377 . S
C705 C711 1.390 . S
C706 H697 0.930 . S
C706 C704 1.384 . S
C706 C707 1.372 . S
C707 C706 1.372 . S
C707 C708 1.400 . S
C707 C712 1.490 . S
C708 H698 0.930 . S
C708 C707 1.400 . S
C708 C711 1.386 . S
H709 C725 0.930 . S
H710 C726 0.931 . S
C711 H699 0.929 . S
C711 C705 1.390 . S
C711 C708 1.386 . S
C712 C707 1.490 . S
C712 C714 1.395 . S
C712 C715 1.403 . S
H713 C719 0.930 . S
C714 H700 0.930 . S
C714 C712 1.395 . S
C714 C717 1.403 . S
C715 C712 1.403 . S
C715 C716 1.524 . S
C715 C719 1.400 . S
C716 H701 0.960 . S
C716 H702 0.960 . S
C716 H703 0.960 . S
C716 C715 1.524 . S
C717 C714 1.403 . S
C717 C718 1.392 . S
C717 C721 1.495 . S
C718 C717 1.392 . S
C718 C719 1.385 . S
C718 C720 1.478 . S
C719 H713 0.930 . S
C719 C715 1.400 . S
C719 C718 1.385 . S
C720 C718 1.478 . S
C720 C722 1.381 . S
C720 C726 1.383 . S
C721 C717 1.495 . S
C721 H727 0.959 . S
C721 H728 0.961 . S
C721 H729 0.960 . S
C722 C720 1.381 . S
C722 C723 1.394 . S
C722 H730 0.930 . S
C723 C722 1.394 . S
C723 C724 1.383 . S
C723 H731 0.929 . S
C724 C723 1.383 . S
C724 C725 1.377 . S
C725 H709 0.930 . S
C725 C724 1.377 . S
C725 C726 1.379 . S
C726 H710 0.931 . S
C726 C720 1.383 . S
C726 C725 1.379 . S
H727 C721 0.959 . S
H728 C721 0.961 . S
H729 C721 0.960 . S
H730 C722 0.930 . S
H731 C723 0.929 . S
H732 C740 0.929 . S
H733 C742 0.930 . S
H734 C744 0.930 . S
H735 C747 0.929 . S
H736 C750 0.930 . S
H737 C752 0.960 . S
H738 C752 0.960 . S
H739 C752 0.960 . S
C740 H732 0.929 . S
C740 C741 1.377 . S
C740 C742 1.384 . S
C741 C740 1.377 . S
C741 C747 1.390 . S
C742 H733 0.930 . S
C742 C740 1.384 . S
C742 C743 1.372 . S
C743 C742 1.372 . S
C743 C744 1.400 . S
C743 C748 1.490 . S
C744 H734 0.930 . S
C744 C743 1.400 . S
C744 C747 1.386 . S
H745 C761 0.930 . S
H746 C762 0.931 . S
C747 H735 0.929 . S
C747 C741 1.390 . S
C747 C744 1.386 . S
C748 C743 1.490 . S
C748 C750 1.395 . S
C748 C751 1.403 . S
H749 C755 0.930 . S
C750 H736 0.930 . S
C750 C748 1.395 . S
C750 C753 1.403 . S
C751 C748 1.403 . S
C751 C752 1.524 . S
C751 C755 1.400 . S
C752 H737 0.960 . S
C752 H738 0.960 . S
C752 H739 0.960 . S
C752 C751 1.524 . S
C753 C750 1.403 . S
C753 C754 1.392 . S
C753 C757 1.495 . S
C754 C753 1.392 . S
C754 C755 1.385 . S
C754 C756 1.478 . S
C755 H749 0.930 . S
C755 C751 1.400 . S
C755 C754 1.385 . S
C756 C754 1.478 . S
C756 C758 1.381 . S
C756 C762 1.383 . S
C757 C753 1.495 . S
C757 H763 0.959 . S
C757 H764 0.961 . S
C757 H765 0.960 . S
C758 C756 1.381 . S
C758 C759 1.394 . S
C758 H766 0.930 . S
C759 C758 1.394 . S
C759 C760 1.383 . S
C759 H767 0.929 . S
C760 C759 1.383 . S
C760 C761 1.377 . S
C761 H745 0.930 . S
C761 C760 1.377 . S
C761 C762 1.379 . S
C762 H746 0.931 . S
C762 C756 1.383 . S
C762 C761 1.379 . S
H763 C757 0.959 . S
H764 C757 0.961 . S
H765 C757 0.960 . S
H766 C758 0.930 . S
H767 C759 0.929 . S
H768 C776 0.929 1_655 S
H769 C778 0.930 1_655 S
H770 C780 0.930 . S
H771 C783 0.929 . S
H772 C786 0.930 . S
H773 C788 0.960 . S
H774 C788 0.960 . S
H775 C788 0.960 1_455 S
C776 H768 0.929 1_455 S
C776 C777 1.377 . S
C776 C778 1.384 . S
C777 C776 1.377 . S
C777 C783 1.390 . S
C778 H769 0.930 1_455 S
C778 C776 1.384 . S
C778 C779 1.372 . S
C779 C778 1.372 . S
C779 C780 1.400 . S
C779 C784 1.490 . S
C780 H770 0.930 . S
C780 C779 1.400 . S
C780 C783 1.386 . S
H781 C797 0.930 . S
H782 C798 0.931 . S
C783 H771 0.929 . S
C783 C777 1.390 . S
C783 C780 1.386 . S
C784 C779 1.490 . S
C784 C786 1.395 . S
C784 C787 1.403 . S
H785 C791 0.930 1_655 S
C786 H772 0.930 . S
C786 C784 1.395 . S
C786 C789 1.403 . S
C787 C784 1.403 . S
C787 C788 1.524 1_455 S
C787 C791 1.400 . S
C788 H773 0.960 . S
C788 H774 0.960 . S
C788 H775 0.960 1_655 S
C788 C787 1.524 1_655 S
C789 C786 1.403 . S
C789 C790 1.392 . S
C789 C793 1.495 . S
C790 C789 1.392 . S
C790 C791 1.385 . S
C790 C792 1.478 . S
C791 H785 0.930 1_455 S
C791 C787 1.400 . S
C791 C790 1.385 . S
C792 C790 1.478 . S
C792 C794 1.381 1_455 S
C792 C798 1.383 . S
C793 C789 1.495 . S
C793 H799 0.959 . S
C793 H800 0.961 . S
C793 H801 0.960 . S
C794 C792 1.381 1_655 S
C794 C795 1.394 1_554 S
C794 H802 0.930 . S
C795 C794 1.394 1_556 S
C795 C796 1.383 1_655 S
C795 H803 0.929 . S
C796 C795 1.383 1_455 S
C796 C797 1.377 . S
C797 H781 0.930 . S
C797 C796 1.377 . S
C797 C798 1.379 1_556 S
C798 H782 0.931 . S
C798 C792 1.383 . S
C798 C797 1.379 1_554 S
H799 C793 0.959 . S
H800 C793 0.961 . S
H801 C793 0.960 . S
H802 C794 0.930 . S
H803 C795 0.929 . S
H804 C812 0.929 1_565 S
H805 C814 0.930 1_565 S
H806 C816 0.930 . S
H807 C819 0.929 . S
H808 C822 0.930 . S
H809 C824 0.960 . S
H810 C824 0.971 . S
H811 C824 0.960 . S
C812 H804 0.929 1_545 S
C812 C813 1.377 . S
C812 C814 1.384 . S
C813 C812 1.377 . S
C813 C819 1.390 . S
C814 H805 0.930 1_545 S
C814 C812 1.384 . S
C814 C815 1.372 . S
C815 C814 1.372 . S
C815 C816 1.400 . S
C815 C820 1.490 . S
C816 H806 0.930 . S
C816 C815 1.400 . S
C816 C819 1.386 . S
H817 C833 0.930 . S
H818 C834 0.931 . S
C819 H807 0.929 . S
C819 C813 1.390 . S
C819 C816 1.386 . S
C820 C815 1.490 . S
C820 C822 1.395 . S
C820 C823 1.403 . S
H821 C827 0.930 . S
C822 H808 0.930 . S
C822 C820 1.395 . S
C822 C825 1.403 . S
C823 C820 1.403 . S
C823 C824 1.524 . S
C823 C827 1.400 . S
C824 H809 0.960 . S
C824 H810 0.971 . S
C824 H811 0.960 . S
C824 C823 1.524 . S
C825 C822 1.403 . S
C825 C826 1.392 . S
C825 C829 1.495 . S
C826 C825 1.392 . S
C826 C827 1.385 . S
C826 C828 1.478 . S
C827 H821 0.930 . S
C827 C823 1.400 . S
C827 C826 1.385 . S
C828 C826 1.478 . S
C828 C830 1.381 . S
C828 C834 1.383 . S
C829 C825 1.495 . S
C829 H835 0.959 . S
C829 H836 0.961 . S
C829 H837 0.960 . S
C830 C828 1.381 . S
C830 C831 1.394 . S
C830 H838 0.930 . S
C831 C830 1.394 . S
C831 C832 1.383 . S
C831 H839 0.929 . S
C832 C831 1.383 . S
C832 C833 1.377 . S
C833 H817 0.930 . S
C833 C832 1.377 . S
C833 C834 1.379 . S
C834 H818 0.931 . S
C834 C828 1.383 . S
C834 C833 1.379 . S
H835 C829 0.959 . S
H836 C829 0.961 . S
H837 C829 0.960 . S
H838 C830 0.930 . S
H839 C831 0.929 . S
H840 C848 0.929 . S
H841 C850 0.930 . S
H842 C852 0.930 . S
H843 C855 0.929 . S
H844 C858 0.930 . S
H845 C860 0.960 . S
H846 C860 0.960 . S
H847 C860 0.960 . S
C848 H840 0.929 . S
C848 C849 1.377 . S
C848 C850 1.384 . S
C849 C848 1.377 . S
C849 C855 1.390 . S
C850 H841 0.930 . S
C850 C848 1.384 . S
C850 C851 1.372 . S
C851 C850 1.372 . S
C851 C852 1.400 . S
C851 C856 1.490 . S
C852 H842 0.930 . S
C852 C851 1.400 . S
C852 C855 1.386 . S
H853 C869 0.930 . S
H854 C870 0.931 . S
C855 H843 0.929 . S
C855 C849 1.390 . S
C855 C852 1.386 . S
C856 C851 1.490 . S
C856 C858 1.395 . S
C856 C859 1.403 . S
H857 C863 0.930 . S
C858 H844 0.930 . S
C858 C856 1.395 . S
C858 C861 1.403 . S
C859 C856 1.403 . S
C859 C860 1.524 . S
C859 C863 1.400 . S
C860 H845 0.960 . S
C860 H846 0.960 . S
C860 H847 0.960 . S
C860 C859 1.524 . S
C861 C858 1.403 . S
C861 C862 1.392 . S
C861 C865 1.495 . S
C862 C861 1.392 . S
C862 C863 1.385 . S
C862 C864 1.478 . S
C863 H857 0.930 . S
C863 C859 1.400 . S
C863 C862 1.385 . S
C864 C862 1.478 . S
C864 C866 1.381 . S
C864 C870 1.383 . S
C865 C861 1.495 . S
C865 H871 0.959 . S
C865 H872 0.961 . S
C865 H873 0.960 . S
C866 C864 1.381 . S
C866 C867 1.394 . S
C866 H874 0.930 . S
C867 C866 1.394 . S
C867 C868 1.383 . S
C867 H875 0.929 . S
C868 C867 1.383 . S
C868 C869 1.377 . S
C869 H853 0.930 . S
C869 C868 1.377 . S
C869 C870 1.379 . S
C870 H854 0.931 . S
C870 C864 1.383 . S
C870 C869 1.379 . S
H871 C865 0.959 . S
H872 C865 0.961 . S
H873 C865 0.960 . S
H874 C866 0.930 . S
H875 C867 0.929 . S
H876 C884 0.929 1_565 S
H877 C886 0.930 1_565 S
H878 C888 0.930 . S
H879 C891 0.929 . S
H880 C894 0.930 . S
H881 C896 0.960 . S
H882 C896 0.960 . S
H883 C896 0.960 . S
C884 H876 0.929 1_545 S
C884 C885 1.377 . S
C884 C886 1.384 . S
C885 C884 1.377 . S
C885 C891 1.390 . S
C886 H877 0.930 1_545 S
C886 C884 1.384 . S
C886 C887 1.372 . S
C887 C886 1.372 . S
C887 C888 1.400 . S
C887 C892 1.490 . S
C888 H878 0.930 . S
C888 C887 1.400 . S
C888 C891 1.386 . S
H889 C905 0.930 . S
H890 C906 0.931 . S
C891 H879 0.929 . S
C891 C885 1.390 . S
C891 C888 1.386 . S
C892 C887 1.490 . S
C892 C894 1.395 1_545 S
C892 C895 1.403 . S
H893 C899 0.930 . S
C894 H880 0.930 . S
C894 C892 1.395 1_565 S
C894 C897 1.403 . S
C895 C892 1.403 . S
C895 C896 1.524 . S
C895 C899 1.400 . S
C896 H881 0.960 . S
C896 H882 0.960 . S
C896 H883 0.960 . S
C896 C895 1.524 . S
C897 C894 1.403 . S
C897 C898 1.392 1_565 S
C897 C901 1.495 . S
C898 C897 1.392 1_545 S
C898 C899 1.385 . S
C898 C900 1.478 . S
C899 H893 0.930 . S
C899 C895 1.400 . S
C899 C898 1.385 . S
C900 C898 1.478 . S
C900 C902 1.381 1_545 S
C900 C906 1.383 . S
C901 C897 1.495 . S
C901 H907 0.959 . S
C901 H908 0.961 . S
C901 H909 0.960 . S
C902 C900 1.381 1_565 S
C902 C903 1.394 . S
C902 H910 0.930 . S
C903 C902 1.394 . S
C903 C904 1.383 1_565 S
C903 H911 0.929 . S
C904 C903 1.383 1_545 S
C904 C905 1.377 . S
C905 H889 0.930 . S
C905 C904 1.377 . S
C905 C906 1.379 . S
C906 H890 0.931 . S
C906 C900 1.383 . S
C906 C905 1.379 . S
H907 C901 0.959 . S
H908 C901 0.961 . S
H909 C901 0.960 . S
H910 C902 0.930 . S
H911 C903 0.929 . S
H912 C920 0.929 . S
H913 C922 0.930 . S
H914 C924 0.930 . S
H915 C927 0.929 . S
H916 C930 0.930 . S
H917 C932 0.960 . S
H918 C932 0.960 . S
H919 C932 0.960 . S
C920 H912 0.929 . S
C920 C921 1.377 . S
C920 C922 1.384 . S
C921 C920 1.377 . S
C921 C927 1.390 . S
C922 H913 0.930 . S
C922 C920 1.384 . S
C922 C923 1.372 . S
C923 C922 1.372 . S
C923 C924 1.400 . S
C923 C928 1.490 . S
C924 H914 0.930 . S
C924 C923 1.400 . S
C924 C927 1.386 . S
H925 C941 0.930 . S
H926 C942 0.931 . S
C927 H915 0.929 . S
C927 C921 1.390 . S
C927 C924 1.386 . S
C928 C923 1.490 . S
C928 C930 1.395 . S
C928 C931 1.403 . S
H929 C935 0.930 . S
C930 H916 0.930 . S
C930 C928 1.395 . S
C930 C933 1.403 . S
C931 C928 1.403 . S
C931 C932 1.524 . S
C931 C935 1.400 . S
C932 H917 0.960 . S
C932 H918 0.960 . S
C932 H919 0.960 . S
C932 C931 1.524 . S
C933 C930 1.403 . S
C933 C934 1.392 . S
C933 C937 1.495 . S
C934 C933 1.392 . S
C934 C935 1.385 . S
C934 C936 1.478 . S
C935 H929 0.930 . S
C935 C931 1.400 . S
C935 C934 1.385 . S
C936 C934 1.478 . S
C936 C938 1.381 . S
C936 C942 1.383 . S
C937 C933 1.495 . S
C937 H943 0.959 . S
C937 H944 0.961 . S
C937 H945 0.960 . S
C938 C936 1.381 . S
C938 C939 1.394 1_556 S
C938 H946 0.930 . S
C939 C938 1.394 1_554 S
C939 C940 1.383 . S
C939 H947 0.929 . S
C940 C939 1.383 . S
C940 C941 1.377 . S
C941 H925 0.930 . S
C941 C940 1.377 . S
C941 C942 1.379 1_554 S
C942 H926 0.931 . S
C942 C936 1.383 . S
C942 C941 1.379 1_556 S
H943 C937 0.959 . S
H944 C937 0.961 . S
H945 C937 0.960 . S
H946 C938 0.930 . S
H947 C939 0.929 . S
H948 C956 0.929 . S
H949 C958 0.930 . S
H950 C960 0.930 . S
H951 C963 0.929 . S
H952 C966 0.930 . S
H953 C968 0.960 . S
H954 C968 0.960 . S
H955 C968 0.960 . S
C956 H948 0.929 . S
C956 C957 1.377 . S
C956 C958 1.384 . S
C957 C956 1.377 . S
C957 C963 1.390 . S
C958 H949 0.930 . S
C958 C956 1.384 . S
C958 C959 1.372 . S
C959 C958 1.372 . S
C959 C960 1.400 . S
C959 C964 1.490 . S
C960 H950 0.930 . S
C960 C959 1.400 . S
C960 C963 1.386 . S
H961 C977 0.930 . S
H962 C978 0.931 . S
C963 H951 0.929 . S
C963 C957 1.390 . S
C963 C960 1.386 . S
C964 C959 1.490 . S
C964 C966 1.395 . S
C964 C967 1.403 . S
H965 C971 0.930 . S
C966 H952 0.930 . S
C966 C964 1.395 . S
C966 C969 1.403 . S
C967 C964 1.403 . S
C967 C968 1.524 . S
C967 C971 1.400 . S
C968 H953 0.960 . S
C968 H954 0.960 . S
C968 H955 0.960 . S
C968 C967 1.524 . S
C969 C966 1.403 . S
C969 C970 1.392 . S
C969 C973 1.495 . S
C970 C969 1.392 . S
C970 C971 1.385 . S
C970 C972 1.478 . S
C971 H965 0.930 . S
C971 C967 1.400 . S
C971 C970 1.385 . S
C972 C970 1.478 . S
C972 C974 1.381 . S
C972 C978 1.383 . S
C973 C969 1.495 . S
C973 H979 0.986 . S
C973 H980 0.961 1_455 S
C973 H981 0.960 . S
C974 C972 1.381 . S
C974 C975 1.394 . S
C974 H982 0.930 . S
C975 C974 1.394 . S
C975 C976 1.383 . S
C975 H983 0.929 . S
C976 C975 1.383 . S
C976 C977 1.377 . S
C977 H961 0.930 . S
C977 C976 1.377 . S
C977 C978 1.379 . S
C978 H962 0.931 . S
C978 C972 1.383 . S
C978 C977 1.379 . S
H979 C973 0.986 . S
H980 C973 0.961 1_655 S
H981 C973 0.960 . S
H982 C974 0.930 . S
H983 C975 0.929 . S
C345 C10 2.942 . S
C364 C325 2.904 . S
C381 C59 3.037 . S
C400 C253 2.971 . S
C417 C90 2.943 . S
C436 C289 2.882 . S
C453 C19 3.034 . S
C472 C301 3.004 . S
C508 C229 2.926 . S
C489 C50 2.941 . S
C544 C265 2.995 . S
C525 C99 3.034 . S
C561 C46 0.360 . S
C580 C181 0.356 . S
C597 C95 0.308 . S
C616 C193 0.187 . S
C633 C6 0.333 . S
C652 C121 0.322 . S
C688 C157 0.253 . S
C669 C55 0.323 . S
C724 C217 0.290 . S
C705 C86 0.339 . S
C741 C15 0.320 . S
C760 C145 0.216 . S
C796 C223 1.104 . S
C777 C9 1.080 . S
C813 C49 1.073 . S
C832 C151 1.107 . S
C849 C89 1.083 . S
C868 C187 1.095 . S
C904 C295 1.774 . S
C885 C58 1.693 . S
C940 C331 1.776 . S
C921 C98 1.695 . S
C957 C18 1.701 . S
C976 C259 1.777 . S
