# Generated by pormake.
# Topology pyr, (3,6)-cn, num edge types: 1
# Building blocks:
#     Node 0, Type 0, BuildingBlock: VETTIZ_charged_linker_0, # of connection points: 3
#     Node 1, Type 0, BuildingBlock: VETTIZ_charged_linker_0, # of connection points: 3
#     Node 2, Type 0, BuildingBlock: VETTIZ_charged_linker_0, # of connection points: 3
#     Node 3, Type 0, BuildingBlock: VETTIZ_charged_linker_0, # of connection points: 3
#     Node 4, Type 0, BuildingBlock: VETTIZ_charged_linker_0, # of connection points: 3
#     Node 5, Type 0, BuildingBlock: VETTIZ_charged_linker_0, # of connection points: 3
#     Node 6, Type 0, BuildingBlock: VETTIZ_charged_linker_0, # of connection points: 3
#     Node 7, Type 0, BuildingBlock: VETTIZ_charged_linker_0, # of connection points: 3
#     Node 8, Type 1, BuildingBlock: VOLQOD_clean_sbu_1, # of connection points: 6
#     Node 9, Type 1, BuildingBlock: VOLQOD_clean_sbu_1, # of connection points: 6
#     Node 10, Type 1, BuildingBlock: VOLQOD_clean_sbu_1, # of connection points: 6
#     Node 11, Type 1, BuildingBlock: VOLQOD_clean_sbu_1, # of connection points: 6
#     Edge 12, Type (0, 1), BuildingBlock: AJUNOK_clean_linker_0, # of connection points: 2
#     Edge 13, Type (0, 1), BuildingBlock: AJUNOK_clean_linker_0, # of connection points: 2
#     Edge 14, Type (0, 1), BuildingBlock: AJUNOK_clean_linker_0, # of connection points: 2
#     Edge 15, Type (0, 1), BuildingBlock: AJUNOK_clean_linker_0, # of connection points: 2
#     Edge 16, Type (0, 1), BuildingBlock: AJUNOK_clean_linker_0, # of connection points: 2
#     Edge 17, Type (0, 1), BuildingBlock: AJUNOK_clean_linker_0, # of connection points: 2
#     Edge 18, Type (0, 1), BuildingBlock: AJUNOK_clean_linker_0, # of connection points: 2
#     Edge 19, Type (0, 1), BuildingBlock: AJUNOK_clean_linker_0, # of connection points: 2
#     Edge 20, Type (0, 1), BuildingBlock: AJUNOK_clean_linker_0, # of connection points: 2
#     Edge 21, Type (0, 1), BuildingBlock: AJUNOK_clean_linker_0, # of connection points: 2
#     Edge 22, Type (0, 1), BuildingBlock: AJUNOK_clean_linker_0, # of connection points: 2
#     Edge 23, Type (0, 1), BuildingBlock: AJUNOK_clean_linker_0, # of connection points: 2
#     Edge 24, Type (0, 1), BuildingBlock: AJUNOK_clean_linker_0, # of connection points: 2
#     Edge 25, Type (0, 1), BuildingBlock: AJUNOK_clean_linker_0, # of connection points: 2
#     Edge 26, Type (0, 1), BuildingBlock: AJUNOK_clean_linker_0, # of connection points: 2
#     Edge 27, Type (0, 1), BuildingBlock: AJUNOK_clean_linker_0, # of connection points: 2
#     Edge 28, Type (0, 1), BuildingBlock: AJUNOK_clean_linker_0, # of connection points: 2
#     Edge 29, Type (0, 1), BuildingBlock: AJUNOK_clean_linker_0, # of connection points: 2
#     Edge 30, Type (0, 1), BuildingBlock: AJUNOK_clean_linker_0, # of connection points: 2
#     Edge 31, Type (0, 1), BuildingBlock: AJUNOK_clean_linker_0, # of connection points: 2
#     Edge 32, Type (0, 1), BuildingBlock: AJUNOK_clean_linker_0, # of connection points: 2
#     Edge 33, Type (0, 1), BuildingBlock: AJUNOK_clean_linker_0, # of connection points: 2
#     Edge 34, Type (0, 1), BuildingBlock: AJUNOK_clean_linker_0, # of connection points: 2
#     Edge 35, Type (0, 1), BuildingBlock: AJUNOK_clean_linker_0, # of connection points: 2
# Relax obj value: 0.035
# Max RMSD: 0.119
# Mean RMSD: 0.042
data_MOF--net-pry--node1-VOLQOD_clean_sbu_1--node2-VETTIZ_charged_linker_0--edge1-AJUNOK_clean_linker_0
_symmetry_space_group_name_H-M    P1
_symmetry_Int_Tables_number       1
_symmetry_cell_setting            triclinic
loop_
_symmetry_equiv_pos_as_xyz
'x, y, z'
_cell_length_a     35.827609
_cell_length_b     35.811983
_cell_length_c     35.997187
_cell_angle_alpha  90.004006
_cell_angle_beta   90.027719
_cell_angle_gamma 89.998743
loop_
_atom_site_label
_atom_site_type_symbol
_atom_site_fract_x
_atom_site_fract_y
_atom_site_fract_z
_atom_type_partial_charge
C0 C 0.10371 0.07081 0.25175 0.0
C1 C 0.07279 0.08399 0.27173 0.0
C2 C 0.05148 0.11359 0.25705 0.0
C3 C 0.09399 0.11852 0.20484 0.0
C4 C 0.11384 0.08847 0.21865 0.0
C5 C 0.14708 0.07892 0.19516 0.0
H6 H 0.25483 0.11387 0.04529 0.0
C7 C 0.1134 0.13185 0.17109 0.0
C8 C 0.14439 0.10859 0.16525 0.0
H9 H 0.26926 0.02919 0.12986 0.0
H10 H 0.21389 0.05015 0.16076 0.0
H11 H 0.24017 0.17681 0.10133 0.0
H12 H 0.16187 0.11072 0.03907 0.0
H13 H 0.14934 0.15829 0.03555 0.0
H14 H 0.19415 0.14323 0.01875 0.0
H15 H 0.22779 0.1887 0.05456 0.0
H16 H 0.20139 0.20572 0.09382 0.0
C17 C 0.18271 0.08356 0.2193 0.0
C18 C 0.14112 0.03912 0.1793 0.0
C19 C 0.06825 0.24868 0.10464 0.0
C20 C 0.08345 0.27032 0.0757 0.0
C21 C 0.11574 0.25724 0.05738 0.0
C22 C 0.13292 0.22379 0.06806 0.0
C23 C 0.1181 0.20325 0.0978 0.0
C24 C 0.08636 0.21582 0.11565 0.0
C25 C 0.07605 0.19166 0.14827 0.0
C26 C 0.10678 0.1625 0.14693 0.0
C27 C 0.13108 0.16923 0.11704 0.0
C28 C 0.0782 0.21595 0.18386 0.0
C29 C 0.03716 0.17438 0.14074 0.0
C30 C 0.24585 0.09969 0.07031 0.0
C31 C 0.26585 0.06887 0.08428 0.0
C32 C 0.25358 0.05181 0.11742 0.0
C33 C 0.22158 0.06441 0.13572 0.0
C34 C 0.20183 0.09501 0.12136 0.0
C35 C 0.21418 0.1124 0.0894 0.0
C36 C 0.19094 0.1461 0.0798 0.0
C37 C 0.16192 0.14515 0.11061 0.0
C38 C 0.16849 0.1151 0.1347 0.0
C39 C 0.21618 0.18125 0.08219 0.0
C40 C 0.17316 0.13959 0.04116 0.0
H41 H 0.045 0.15375 0.21416 0.0
H42 H 0.12015 0.04762 0.26206 0.0
H43 H 0.11121 0.03432 0.17242 0.0
H44 H 0.15614 0.03428 0.15297 0.0
H45 H 0.14958 0.01748 0.19975 0.0
H46 H 0.17895 0.10579 0.24058 0.0
H47 H 0.18963 0.05729 0.23418 0.0
H48 H 0.20726 0.09268 0.20307 0.0
H49 H 0.04304 0.25725 0.11884 0.0
H50 H 0.12835 0.27336 0.03524 0.0
H51 H 0.15748 0.21557 0.05316 0.0
H52 H 0.10149 0.23642 0.182 0.0
H53 H 0.05198 0.23195 0.18807 0.0
H54 H 0.08419 0.19961 0.20914 0.0
H55 H 0.03407 0.16689 0.1109 0.0
H56 H 0.03256 0.14804 0.15601 0.0
H57 H 0.01453 0.19435 0.14782 0.0
H58 H 0.02744 0.12406 0.27202 0.0
C59 C 0.0619 0.13093 0.22365 0.0
C60 C 0.26554 0.91138 0.5805 0.0
C61 C 0.24539 0.94057 0.59706 0.0
C62 C 0.25946 0.95798 0.62915 0.0
C63 C 0.31316 0.91693 0.62821 0.0
C64 C 0.2992 0.89985 0.59667 0.0
C65 C 0.3231 0.86764 0.58422 0.0
H66 H 0.47625 0.76014 0.61061 0.0
C67 C 0.34826 0.89797 0.6384 0.0
C68 C 0.35439 0.86915 0.61269 0.0
H69 H 0.38592 0.74329 0.53256 0.0
H70 H 0.35731 0.80073 0.55257 0.0
H71 H 0.4841 0.84916 0.60299 0.0
H72 H 0.4211 0.77968 0.6778 0.0
H73 H 0.44248 0.81499 0.70412 0.0
H74 H 0.47112 0.78256 0.6788 0.0
H75 H 0.50581 0.8248 0.64082 0.0
H76 H 0.4857 0.87067 0.64684 0.0
C77 C 0.33743 0.87611 0.54456 0.0
C78 C 0.29977 0.83125 0.58741 0.0
C79 C 0.41759 0.93691 0.75514 0.0
C80 C 0.45082 0.92441 0.77172 0.0
C81 C 0.47328 0.89843 0.75256 0.0
C82 C 0.46168 0.88338 0.71855 0.0
C83 C 0.42727 0.89445 0.70344 0.0
C84 C 0.40647 0.9217 0.72106 0.0
C85 C 0.37146 0.93117 0.70007 0.0
C86 C 0.37402 0.90412 0.66771 0.0
C87 C 0.40649 0.88233 0.67011 0.0
C88 C 0.37422 0.97241 0.68723 0.0
C89 C 0.33759 0.92253 0.72545 0.0
C90 C 0.4501 0.7685 0.59806 0.0
C91 C 0.43315 0.74664 0.57029 0.0
C92 C 0.39975 0.75952 0.55389 0.0
C93 C 0.38289 0.79273 0.56584 0.0
C94 C 0.39919 0.81314 0.59495 0.0
C95 C 0.4323 0.80098 0.61048 0.0
C96 C 0.4442 0.82468 0.64289 0.0
C97 C 0.41268 0.85298 0.64431 0.0
C98 C 0.3866 0.84628 0.61593 0.0
C99 C 0.48205 0.84321 0.63326 0.0
C100 C 0.4451 0.79941 0.67786 0.0
H101 H 0.30259 0.96077 0.66922 0.0
H102 H 0.25474 0.89715 0.5562 0.0
H103 H 0.27714 0.834 0.6084 0.0
H104 H 0.31652 0.80722 0.59719 0.0
H105 H 0.28643 0.82398 0.56051 0.0
H106 H 0.34707 0.90557 0.54251 0.0
H107 H 0.31493 0.87201 0.52371 0.0
H108 H 0.36163 0.85882 0.5366 0.0
H109 H 0.39994 0.95714 0.76899 0.0
H110 H 0.49965 0.88933 0.76419 0.0
H111 H 0.47963 0.86321 0.70567 0.0
H112 H 0.40372 0.98062 0.68208 0.0
H113 H 0.36281 0.99168 0.70858 0.0
H114 H 0.35993 0.97752 0.66049 0.0
H115 H 0.34256 0.89667 0.74188 0.0
H116 H 0.31165 0.91705 0.70983 0.0
H117 H 0.33251 0.94566 0.74537 0.0
H118 H 0.244 0.98039 0.64228 0.0
C119 C 0.29339 0.94652 0.64467 0.0
C120 C 0.59552 0.26718 0.9501 0.0
C121 C 0.56644 0.24591 0.93453 0.0
C122 C 0.54904 0.25879 0.90177 0.0
C123 C 0.58994 0.31267 0.90039 0.0
C124 C 0.60693 0.30013 0.93252 0.0
C125 C 0.63919 0.32442 0.94394 0.0
H126 H 0.7516 0.47178 0.90828 0.0
C127 C 0.60966 0.34675 0.88811 0.0
C128 C 0.63861 0.35371 0.91347 0.0
H129 H 0.76184 0.38962 0.9958 0.0
H130 H 0.70483 0.36037 0.97576 0.0
H131 H 0.65889 0.48134 0.91135 0.0
H132 H 0.73538 0.41463 0.84745 0.0
H133 H 0.69865 0.42622 0.81744 0.0
H134 H 0.72719 0.46289 0.83687 0.0
H135 H 0.69019 0.50046 0.87737 0.0
H136 H 0.64484 0.48295 0.86448 0.0
C137 C 0.63014 0.34147 0.98241 0.0
C138 C 0.67529 0.30044 0.94292 0.0
C139 C 0.57058 0.41142 0.76868 0.0
C140 C 0.586 0.4411 0.74817 0.0
C141 C 0.61621 0.46118 0.7634 0.0
C142 C 0.63159 0.45108 0.79778 0.0
C143 C 0.61691 0.42029 0.81709 0.0
C144 C 0.58674 0.4012 0.80259 0.0
C145 C 0.57592 0.36813 0.82599 0.0
C146 C 0.60453 0.37059 0.857 0.0
C147 C 0.62835 0.40128 0.85172 0.0
C148 C 0.53576 0.37454 0.84049 0.0
C149 C 0.58082 0.33227 0.80224 0.0
C150 C 0.74141 0.44765 0.92332 0.0
C151 C 0.76106 0.43347 0.95411 0.0
C152 C 0.74682 0.40188 0.97273 0.0
C153 C 0.71392 0.38453 0.96066 0.0
C154 C 0.69533 0.39836 0.92916 0.0
C155 C 0.70902 0.42954 0.91117 0.0
C156 C 0.68691 0.43898 0.87689 0.0
C157 C 0.65764 0.40836 0.87736 0.0
C158 C 0.66264 0.38475 0.9081 0.0
C159 C 0.66934 0.47808 0.88243 0.0
C160 C 0.71318 0.43586 0.84275 0.0
H161 H 0.54619 0.30025 0.85989 0.0
H162 H 0.60962 0.25805 0.97513 0.0
H163 H 0.67307 0.27752 0.92216 0.0
H164 H 0.70008 0.3165 0.93409 0.0
H165 H 0.68094 0.28742 0.97036 0.0
H166 H 0.60036 0.3502 0.9838 0.0
H167 H 0.63501 0.32085 0.00495 0.0
H168 H 0.64635 0.36697 0.98843 0.0
H169 H 0.5468 0.39594 0.7583 0.0
H170 H 0.62868 0.48411 0.74821 0.0
H171 H 0.65486 0.46714 0.80759 0.0
H172 H 0.53186 0.40412 0.84912 0.0
H173 H 0.51483 0.36831 0.81857 0.0
H174 H 0.52921 0.35779 0.86538 0.0
H175 H 0.6031 0.33587 0.78101 0.0
H176 H 0.59 0.30795 0.81878 0.0
H177 H 0.55465 0.32507 0.78732 0.0
H178 H 0.52737 0.2425 0.88847 0.0
C179 C 0.56038 0.29216 0.88487 0.0
C180 C 0.95167 0.74044 0.42511 0.0
C181 C 0.93664 0.76 0.45541 0.0
C182 C 0.90559 0.74513 0.4743 0.0
C183 C 0.9036 0.69311 0.43131 0.0
C184 C 0.93484 0.70712 0.41365 0.0
C185 C 0.94645 0.68363 0.38105 0.0
H186 H 0.90456 0.54745 0.25878 0.0
C187 C 0.89147 0.65941 0.41098 0.0
C188 C 0.91671 0.65344 0.38176 0.0
H189 H 0.00112 0.61992 0.25978 0.0
H190 H 0.98163 0.64579 0.31846 0.0
H191 H 0.9119 0.52398 0.34398 0.0
H192 H 0.84434 0.60689 0.28949 0.0
H193 H 0.81606 0.58087 0.32011 0.0
H194 H 0.83927 0.55746 0.28259 0.0
H195 H 0.86872 0.51191 0.32183 0.0
H196 H 0.87039 0.52705 0.36971 0.0
C197 C 0.9859 0.66765 0.38892 0.0
C198 C 0.94383 0.70822 0.3457 0.0
C199 C 0.76917 0.59662 0.44534 0.0
C200 C 0.75004 0.56555 0.43092 0.0
C201 C 0.76647 0.54498 0.40178 0.0
C202 C 0.80086 0.55569 0.38665 0.0
C203 C 0.81912 0.58736 0.40072 0.0
C204 C 0.8037 0.6067 0.43017 0.0
C205 C 0.82769 0.6389 0.44232 0.0
C206 C 0.85983 0.63592 0.41501 0.0
C207 C 0.85431 0.60609 0.3903 0.0
C208 C 0.84047 0.63169 0.48285 0.0
C209 C 0.80497 0.67532 0.43684 0.0
C210 C 0.92189 0.56837 0.27197 0.0
C211 C 0.95431 0.58185 0.25446 0.0
C212 C 0.97575 0.60948 0.27243 0.0
C213 C 0.96441 0.62444 0.30652 0.0
C214 C 0.93114 0.61184 0.32287 0.0
C215 C 0.91106 0.58348 0.3062 0.0
C216 C 0.87716 0.57271 0.32844 0.0
C217 C 0.87961 0.60021 0.36051 0.0
C218 C 0.91097 0.62338 0.3567 0.0
C219 C 0.88192 0.53175 0.34158 0.0
C220 C 0.8422 0.57956 0.30404 0.0
H221 H 0.86509 0.70217 0.47757 0.0
H222 H 0.97564 0.75123 0.41025 0.0
H223 H 0.91816 0.72571 0.34636 0.0
H224 H 0.94181 0.692 0.31978 0.0
H225 H 0.96818 0.72731 0.34361 0.0
H226 H 0.99091 0.66441 0.41926 0.0
H227 H 0.00802 0.6863 0.37783 0.0
H228 H 0.98973 0.63926 0.37741 0.0
H229 H 0.75715 0.61344 0.46728 0.0
H230 H 0.75254 0.52065 0.39047 0.0
H231 H 0.81166 0.53918 0.36424 0.0
H232 H 0.8431 0.60127 0.48856 0.0
H233 H 0.82019 0.64333 0.5031 0.0
H234 H 0.86851 0.64317 0.48872 0.0
H235 H 0.78873 0.67422 0.41051 0.0
H236 H 0.82258 0.70044 0.43438 0.0
H237 H 0.78488 0.67951 0.45996 0.0
H238 H 0.89328 0.76005 0.49743 0.0
C239 C 0.88908 0.71171 0.4625 0.0
C240 C 0.93501 0.78868 0.95973 0.0
C241 C 0.96279 0.76848 0.94092 0.0
C242 C 0.98231 0.78554 0.91156 0.0
C243 C 0.94336 0.84052 0.91709 0.0
C244 C 0.92558 0.82452 0.94722 0.0
C245 C 0.89418 0.84846 0.96152 0.0
H246 H 0.7727 0.98821 0.92847 0.0
C247 C 0.92414 0.87588 0.90824 0.0
C248 C 0.89545 0.88092 0.93434 0.0
H249 H 0.77244 0.91034 0.01997 0.0
H250 H 0.83305 0.88697 0.00109 0.0
H251 H 0.79765 0.93448 0.8693 0.0
H252 H 0.8638 0.00946 0.93543 0.0
H253 H 0.88199 0.01086 0.89012 0.0
H254 H 0.83436 0.02523 0.89826 0.0
H255 H 0.79893 0.98381 0.86072 0.0
H256 H 0.8321 0.9524 0.83978 0.0
C257 C 0.85752 0.82572 0.95817 0.0
C258 C 0.90381 0.86094 0.00159 0.0
C259 C 0.95558 0.94313 0.78822 0.0
C260 C 0.93808 0.97238 0.76882 0.0
C261 C 0.90867 0.99195 0.78606 0.0
C262 C 0.89614 0.98175 0.8215 0.0
C263 C 0.9126 0.95113 0.83964 0.0
C264 C 0.94225 0.93281 0.82326 0.0
C265 C 0.95492 0.8996 0.84549 0.0
C266 C 0.92793 0.90099 0.87796 0.0
C267 C 0.90322 0.93116 0.87432 0.0
C268 C 0.94959 0.86409 0.82123 0.0
C269 C 0.9956 0.90667 0.8582 0.0
C270 C 0.78614 0.96656 0.94471 0.0
C271 C 0.76794 0.95058 0.9753 0.0
C272 C 0.78614 0.92281 0.99619 0.0
C273 C 0.82103 0.90909 0.98494 0.0
C274 C 0.83752 0.92317 0.95237 0.0
C275 C 0.82083 0.95253 0.93379 0.0
C276 C 0.84228 0.96411 0.89986 0.0
C277 C 0.87413 0.93623 0.90054 0.0
C278 C 0.87086 0.91187 0.93096 0.0
C279 C 0.81662 0.95879 0.86549 0.0
C280 C 0.85625 0.00461 0.90583 0.0
H281 H 0.98823 0.83274 0.87666 0.0
H282 H 0.91968 0.77607 0.98243 0.0
H283 H 0.9345 0.8638 0.0054 0.0
H284 H 0.89241 0.88882 0.00836 0.0
H285 H 0.89365 0.84035 0.02234 0.0
H286 H 0.85653 0.81054 0.93121 0.0
H287 H 0.85538 0.8047 0.98076 0.0
H288 H 0.83218 0.84308 0.9586 0.0
H289 H 0.97827 0.92756 0.77576 0.0
H290 H 0.89416 0.01408 0.7715 0.0
H291 H 0.87308 0.99716 0.83272 0.0
H292 H 0.92674 0.86784 0.80061 0.0
H293 H 0.97539 0.85728 0.80554 0.0
H294 H 0.94096 0.8394 0.83746 0.0
H295 H -0.00047 0.93637 0.86641 0.0
H296 H 0.00336 0.89027 0.88302 0.0
H297 H 0.01565 0.90051 0.83549 0.0
H298 H 0.00425 0.77055 0.89719 0.0
C299 C 0.97294 0.82156 0.89972 0.0
C300 C 0.73026 0.08131 0.46356 0.0
C301 C 0.74981 0.05044 0.44938 0.0
C302 C 0.73183 0.02654 0.4239 0.0
C303 C 0.67821 0.0676 0.42264 0.0
C304 C 0.69451 0.08922 0.44996 0.0
C305 C 0.67059 0.122 0.46058 0.0
H306 H 0.52595 0.23532 0.42038 0.0
C307 C 0.64286 0.08558 0.4116 0.0
C308 C 0.63774 0.11697 0.43437 0.0
H309 H 0.6091 0.24816 0.5062 0.0
H310 H 0.63384 0.18692 0.49241 0.0
H311 H 0.50797 0.14608 0.43541 0.0
H312 H 0.58114 0.20494 0.3609 0.0
H313 H 0.55976 0.16913 0.33542 0.0
H314 H 0.53129 0.20498 0.35583 0.0
H315 H 0.49094 0.16935 0.39464 0.0
H316 H 0.50732 0.12164 0.39308 0.0
C317 C 0.65894 0.1174 0.50179 0.0
C318 C 0.69295 0.1581 0.45211 0.0
C319 C 0.57968 0.04624 0.2917 0.0
C320 C 0.54895 0.06055 0.2721 0.0
C321 C 0.52648 0.08811 0.28876 0.0
C322 C 0.53564 0.10261 0.32373 0.0
C323 C 0.56789 0.08977 0.34196 0.0
C324 C 0.58853 0.06109 0.32657 0.0
C325 C 0.6214 0.05044 0.3503 0.0
C326 C 0.61798 0.07864 0.38167 0.0
C327 C 0.58693 0.10196 0.37627 0.0
C328 C 0.61579 0.00981 0.36412 0.0
C329 C 0.65728 0.05641 0.32702 0.0
C330 C 0.54895 0.22435 0.4366 0.0
C331 C 0.56584 0.24614 0.46424 0.0
C332 C 0.59594 0.23156 0.48469 0.0
C333 C 0.6103 0.19618 0.47649 0.0
C334 C 0.59484 0.1756 0.44701 0.0
C335 C 0.56404 0.18927 0.42827 0.0
C336 C 0.55233 0.16419 0.39685 0.0
C337 C 0.58128 0.13333 0.39975 0.0
C338 C 0.60631 0.14045 0.42892 0.0
C339 C 0.51247 0.14961 0.40503 0.0
C340 C 0.55597 0.18673 0.36021 0.0
H341 H 0.68428 0.01633 0.39036 0.0
H342 H 0.74315 0.09992 0.48353 0.0
H343 H 0.70894 0.15514 0.42578 0.0
H344 H 0.67519 0.18285 0.44785 0.0
H345 H 0.71324 0.16424 0.47464 0.0
H346 H 0.65688 0.08741 0.50961 0.0
H347 H 0.67954 0.13065 0.52072 0.0
H348 H 0.63088 0.12891 0.50754 0.0
H349 H 0.59701 0.02464 0.27961 0.0
H350 H 0.50273 0.09958 0.27402 0.0
H351 H 0.51805 0.12423 0.33461 0.0
H352 H 0.58579 0.00176 0.3642 0.0
H353 H 0.63079 0.98954 0.34617 0.0
H354 H 0.62498 0.00607 0.39328 0.0
H355 H 0.6564 0.08393 0.31271 0.0
H356 H 0.68302 0.05655 0.3437 0.0
H357 H 0.66011 0.03442 0.30544 0.0
H358 H 0.7458 0.00177 0.41367 0.0
C359 C 0.69611 0.03494 0.41049 0.0
C360 C 0.45072 0.56963 0.2342 0.0
C361 C 0.43287 0.53949 0.25169 0.0
C362 C 0.4036 0.52095 0.23321 0.0
C363 C 0.40766 0.56507 0.18233 0.0
C364 C 0.4376 0.58203 0.19973 0.0
C365 C 0.45121 0.61579 0.17894 0.0
H366 H 0.42455 0.74175 0.0418 0.0
C367 C 0.3986 0.58699 0.14875 0.0
C368 C 0.4242 0.61659 0.14647 0.0
H369 H 0.5088 0.74267 0.12763 0.0
H370 H 0.48753 0.68253 0.14965 0.0
H371 H 0.36099 0.71747 0.09169 0.0
H372 H 0.43139 0.65075 0.02133 0.0
H373 H 0.38533 0.63461 0.01582 0.0
H374 H 0.39663 0.68217 0.00364 0.0
H375 H 0.35433 0.71536 0.04234 0.0
H376 H 0.33239 0.68241 0.07329 0.0
C377 C 0.44672 0.65035 0.20459 0.0
C378 C 0.49175 0.60818 0.16609 0.0
C379 C 0.28097 0.55749 0.07578 0.0
C380 C 0.2629 0.5758 0.04634 0.0
C381 C 0.28055 0.60625 0.02895 0.0
C382 C 0.31535 0.61898 0.0414 0.0
C383 C 0.33235 0.60148 0.072 0.0
C384 C 0.3155 0.57083 0.08821 0.0
C385 C 0.33688 0.55669 0.1213 0.0
C386 C 0.36912 0.58416 0.12253 0.0
C387 C 0.36621 0.61039 0.09369 0.0
C388 C 0.3113 0.55997 0.15592 0.0
C389 C 0.35032 0.5165 0.11268 0.0
C390 C 0.4389 0.72847 0.06477 0.0
C391 C 0.46849 0.74656 0.08293 0.0
C392 C 0.48593 0.72904 0.11333 0.0
C393 C 0.47347 0.69424 0.12605 0.0
C394 C 0.4428 0.67712 0.10859 0.0
C395 C 0.42645 0.69397 0.07811 0.0
C396 C 0.39318 0.67261 0.06409 0.0
C397 C 0.39222 0.64018 0.0912 0.0
C398 C 0.42124 0.64305 0.11726 0.0
C399 C 0.3583 0.69809 0.06766 0.0
C400 C 0.40169 0.65943 0.02401 0.0
H401 H 0.36811 0.51869 0.18617 0.0
H402 H 0.47318 0.58446 0.24797 0.0
H403 H 0.4953 0.57845 0.15782 0.0
H404 H 0.4996 0.62442 0.1412 0.0
H405 H 0.512 0.61408 0.18872 0.0
H406 H 0.42185 0.64739 0.22286 0.0
H407 H 0.47149 0.65398 0.2228 0.0
H408 H 0.44176 0.67651 0.18917 0.0
H409 H 0.26765 0.53443 0.09006 0.0
H410 H 0.267 0.62063 0.00616 0.0
H411 H 0.32711 0.64265 0.02741 0.0
H412 H 0.29333 0.58526 0.15412 0.0
H413 H 0.29264 0.53533 0.15842 0.0
H414 H 0.32687 0.56342 0.18213 0.0
H415 H 0.35775 0.51353 0.08281 0.0
H416 H 0.37601 0.50893 0.12791 0.0
H417 H 0.3282 0.4957 0.11893 0.0
H418 H 0.38988 0.4973 0.24609 0.0
C419 C 0.39103 0.53344 0.19851 0.0
C420 C 0.04602 0.28696 0.58724 0.0
C421 C 0.06304 0.26303 0.56125 0.0
C422 C 0.09541 0.27541 0.54263 0.0
C423 C 0.09543 0.33248 0.57861 0.0
C424 C 0.06308 0.321 0.59606 0.0
C425 C 0.05184 0.34694 0.62698 0.0
H426 H 0.09995 0.48779 0.74206 0.0
C427 C 0.10809 0.36729 0.59656 0.0
C428 C 0.08279 0.37586 0.6251 0.0
H429 H 0.00422 0.41492 0.74963 0.0
H430 H 0.01918 0.38816 0.68969 0.0
H431 H 0.09128 0.50512 0.65152 0.0
H432 H 0.15536 0.42868 0.71798 0.0
H433 H 0.18491 0.44396 0.68232 0.0
H434 H 0.16643 0.47743 0.71483 0.0
H435 H 0.13123 0.51957 0.67793 0.0
H436 H 0.13566 0.50223 0.631 0.0
C437 C 0.0134 0.36405 0.61723 0.0
C438 C 0.05257 0.32447 0.66385 0.0
C439 C 0.23111 0.42587 0.55751 0.0
C440 C 0.25218 0.45528 0.57238 0.0
C441 C 0.2375 0.47685 0.60154 0.0
C442 C 0.20233 0.46872 0.61637 0.0
C443 C 0.18206 0.43818 0.60237 0.0
C444 C 0.19625 0.41765 0.57307 0.0
C445 C 0.17167 0.38512 0.56308 0.0
C446 C 0.1402 0.38981 0.59095 0.0
C447 C 0.14657 0.42078 0.61394 0.0
C448 C 0.15788 0.3907 0.52272 0.0
C449 C 0.19411 0.34855 0.56952 0.0
C450 C 0.08211 0.46625 0.73056 0.0
C451 C 0.05142 0.45276 0.75069 0.0
C452 C 0.02821 0.42544 0.73461 0.0
C453 C 0.03717 0.40974 0.70006 0.0
C454 C 0.06983 0.42128 0.68169 0.0
C455 C 0.09092 0.45003 0.69637 0.0
C456 C 0.12493 0.45839 0.67347 0.0
C457 C 0.12148 0.42908 0.64326 0.0
C458 C 0.08936 0.40721 0.64836 0.0
C459 C 0.12098 0.49847 0.65774 0.0
C460 C 0.15989 0.45213 0.69821 0.0
H461 H 0.13633 0.3175 0.53616 0.0
H462 H 0.0206 0.27897 0.6014 0.0
H463 H 0.07501 0.30299 0.66345 0.0
H464 H 0.05899 0.34176 0.68837 0.0
H465 H 0.02567 0.30978 0.66853 0.0
H466 H 0.01153 0.37025 0.587 0.0
H467 H 0.99039 0.3445 0.62426 0.0
H468 H 0.00842 0.39105 0.63121 0.0
H469 H 0.24227 0.40861 0.53542 0.0
H470 H 0.25362 0.49959 0.61324 0.0
H471 H 0.19282 0.48583 0.63891 0.0
H472 H 0.14975 0.4203 0.51793 0.0
H473 H 0.18017 0.3836 0.50247 0.0
H474 H 0.13275 0.3741 0.51619 0.0
H475 H 0.21681 0.35256 0.59026 0.0
H476 H 0.17684 0.32588 0.58134 0.0
H477 H 0.20726 0.3386 0.5434 0.0
H478 H 0.10934 0.25766 0.5226 0.0
C479 C 0.11139 0.31009 0.55085 0.0
O480 O 0.99016 0.09485 0.54534 0.0
Zn481 Zn 0.96961 0.04257 0.54311 0.0
O482 O 0.00328 0.00959 0.51526 0.0
Zn483 Zn 0.97899 0.99195 0.47005 0.0
Zn484 Zn 0.04858 0.03635 0.50125 0.0
Zn485 Zn 0.0161 0.9669 0.54633 0.0
O486 O 0.97672 0.93585 0.46869 0.0
O487 O 0.99879 0.91864 0.52364 0.0
O488 O 0.91824 0.04375 0.51957 0.0
O489 O 0.92628 0.00987 0.46851 0.0
O490 O 0.00428 0.01071 0.42358 0.0
O491 O 0.05444 0.03897 0.44604 0.0
O492 O 0.09468 0.01211 0.52276 0.0
O493 O 0.96392 0.02566 0.59613 0.0
O494 O 0.07142 0.96387 0.55391 0.0
O495 O 0.99354 0.97125 0.59708 0.0
C496 C 0.02087 0.10901 0.53454 0.0
C497 C 0.98438 0.91054 0.49235 0.0
C498 C 0.03457 0.02859 0.41864 0.0
C499 C 0.90571 0.02963 0.48954 0.0
C500 C 0.09907 0.98335 0.54313 0.0
C501 C 0.97455 0.99647 0.61327 0.0
O502 O 0.0457 0.08972 0.51808 0.0
O503 O 0.50184 0.0812 0.9767 0.0
Zn504 Zn 0.47986 0.0301 0.98385 0.0
O505 O 0.51093 0.0004 0.01771 0.0
Zn506 Zn 0.53159 0.95795 0.9912 0.0
Zn507 Zn 0.552 0.0308 0.0373 0.0
Zn508 Zn 0.48024 0.98161 0.05834 0.0
O509 O 0.51839 0.90919 0.0152 0.0
O510 O 0.48112 0.92555 0.06156 0.0
O511 O 0.47484 0.00494 0.93342 0.0
O512 O 0.51133 0.95528 0.93989 0.0
O513 O 0.58717 0.96105 0.98807 0.0
O514 O 0.60235 0.00866 0.02457 0.0
O515 O 0.54832 0.03546 0.09312 0.0
O516 O 0.42819 0.03747 0.00495 0.0
O517 O 0.49853 0.00138 0.10714 0.0
O518 O 0.42711 0.99853 0.05306 0.0
C519 C 0.52962 0.09819 0.99089 0.0
C520 C 0.49771 0.90059 0.04257 0.0
C521 C 0.61159 0.98174 0.00336 0.0
C522 C 0.48912 0.97498 0.92057 0.0
C523 C 0.52551 0.02227 0.11692 0.0
C524 C 0.41099 0.02176 0.03164 0.0
O525 O 0.55097 0.08239 0.01447 0.0
O526 O 0.54419 0.50942 0.58518 0.0
Zn527 Zn 0.53569 0.53205 0.5344 0.0
O528 O 0.50346 0.5003 0.5036 0.0
Zn529 Zn 0.53101 0.48205 0.46058 0.0
Zn530 Zn 0.4861 0.45783 0.53295 0.0
Zn531 Zn 0.46067 0.52888 0.48593 0.0
O532 O 0.50504 0.49399 0.41228 0.0
O533 O 0.45666 0.528 0.43044 0.0
O534 O 0.5863 0.539 0.51008 0.0
O535 O 0.58167 0.50527 0.45846 0.0
O536 O 0.53779 0.42649 0.46336 0.0
O537 O 0.501 0.40893 0.5098 0.0
O538 O 0.4304 0.45893 0.53963 0.0
O539 O 0.51212 0.58276 0.54168 0.0
O540 O 0.41277 0.50748 0.50545 0.0
O541 O 0.46334 0.58219 0.50337 0.0
C542 C 0.53217 0.47962 0.60033 0.0
C543 C 0.47573 0.51265 0.40487 0.0
C544 C 0.52332 0.40107 0.48345 0.0
C545 C 0.60015 0.52669 0.47984 0.0
C546 C 0.40501 0.48003 0.5265 0.0
C547 C 0.48429 0.59894 0.5266 0.0
O548 O 0.50981 0.45786 0.58344 0.0
O549 O 0.97544 0.50791 0.08925 0.0
Zn550 Zn 0.97859 0.48392 0.03882 0.0
O551 O 0.00826 0.51433 0.00443 0.0
Zn552 Zn 0.97757 0.53053 0.96247 0.0
Zn553 Zn 0.02732 0.55825 0.03051 0.0
Zn554 Zn 0.04991 0.48468 0.98563 0.0
O555 O 0.99825 0.51262 0.91363 0.0
O556 O 0.04852 0.48062 0.93012 0.0
O557 O 0.92611 0.47684 0.01926 0.0
O558 O 0.92597 0.50926 0.96657 0.0
O559 O 0.9744 0.58668 0.95977 0.0
O560 O 0.00959 0.60586 0.00677 0.0
O561 O 0.0835 0.55902 0.03028 0.0
O562 O 0.00189 0.43309 0.04639 0.0
O563 O 0.09918 0.50761 -0.00037 0.0
O564 O 0.04924 0.43271 0.00652 0.0
C565 C 0.98956 0.53745 0.103 0.0
C566 C 0.02666 0.49308 0.90517 0.0
C567 C 0.98881 0.61287 0.97895 0.0
C568 C 0.90947 0.48862 0.99022 0.0
C569 C 0.10821 0.53709 0.01719 0.0
C570 C 0.02933 0.41662 0.03101 0.0
O571 O 0.00991 0.5591 0.08359 0.0
C572 C 0.02767 0.0558 0.31686 0.0
C573 C 0.06397 0.06817 0.3087 0.0
C574 C 0.01871 0.04173 0.35211 0.0
C575 C 0.04564 0.04004 0.38062 0.0
H576 H 0.00603 0.0571 0.29585 0.0
H577 H 0.99023 0.03311 0.35729 0.0
S578 S 0.14499 0.06871 0.3729 0.0
N579 N 0.12709 0.07761 0.33158 0.0
N580 N 0.11049 0.05111 0.39771 0.0
C581 C 0.08222 0.05187 0.3725 0.0
C582 C 0.09133 0.06595 0.33659 0.0
C583 C 0.45931 0.97512 0.81919 0.0
C584 C 0.46107 0.93703 0.80964 0.0
C585 C 0.46811 0.98731 0.85521 0.0
C586 C 0.4792 0.96184 0.88284 0.0
H587 H 0.45134 0.99568 0.79859 0.0
H588 H 0.46671 0.0169 0.86129 0.0
S589 S 0.48461 0.8587 0.87296 0.0
N590 N 0.47197 0.87372 0.83148 0.0
N591 N 0.48921 0.89651 0.89876 0.0
C592 C 0.48049 0.92361 0.87375 0.0
C593 C 0.47128 0.91124 0.83726 0.0
C594 C 0.56634 0.48785 0.69989 0.0
C595 C 0.57164 0.45034 0.71047 0.0
C596 C 0.55367 0.49717 0.66419 0.0
C597 C 0.54532 0.46933 0.63792 0.0
H598 H 0.57182 0.5102 0.71942 0.0
H599 H 0.54995 0.52638 0.65726 0.0
S600 S 0.55731 0.36719 0.65044 0.0
N601 N 0.57001 0.38537 0.69064 0.0
N602 N 0.54486 0.40287 0.6242 0.0
C603 C 0.55063 0.43178 0.64801 0.0
C604 C 0.56409 0.42229 0.6841 0.0
C605 C 0.97433 0.59582 0.18946 0.0
C606 C 0.96453 0.56921 0.21651 0.0
C607 C 0.98283 0.58518 0.15303 0.0
C608 C 0.98147 0.54752 0.14205 0.0
H609 H 0.97474 0.62529 0.19626 0.0
H610 H 0.98974 0.6068 0.13314 0.0
S611 S 0.96036 0.46658 0.20293 0.0
N612 N 0.95636 0.50327 0.23044 0.0
N613 N 0.97143 0.48326 0.16161 0.0
C614 C 0.97223 0.5205 0.1689 0.0
C615 C 0.96395 0.53133 0.20618 0.0
C616 C 0.32744 0.08215 0.05384 0.0
C617 C 0.30082 0.05594 0.06608 0.0
C618 C 0.36248 0.07072 0.04075 0.0
C619 C 0.37231 0.03275 0.04007 0.0
H620 H 0.32188 0.11181 0.05589 0.0
H621 H 0.38266 0.09184 0.03294 0.0
S622 S 0.31113 0.95277 0.06336 0.0
N623 N 0.28522 0.98997 0.07169 0.0
N624 N 0.35186 0.9688 0.04902 0.0
C625 C 0.34553 0.0062 0.05047 0.0
C626 C 0.30959 0.01771 0.06298 0.0
C627 C 0.17656 0.94533 0.60382 0.0
C628 C 0.20863 0.95156 0.58234 0.0
C629 C 0.14122 0.95539 0.59064 0.0
C630 C 0.13684 0.97276 0.55582 0.0
H631 H 0.17884 0.9323 0.63091 0.0
H632 H 0.11721 0.95002 0.60812 0.0
S633 S 0.21253 0.99504 0.48911 0.0
N634 N 0.23422 0.97553 0.52468 0.0
N635 N 0.16774 0.99548 0.50003 0.0
C636 C 0.16885 0.97934 0.53417 0.0
C637 C 0.20479 0.9684 0.54738 0.0
C638 C 0.82378 0.45848 0.93652 0.0
C639 C 0.7979 0.44954 0.96455 0.0
C640 C 0.85941 0.47185 0.94521 0.0
C641 C 0.87089 0.47629 0.9823 0.0
H642 H 0.81687 0.45425 0.90753 0.0
H643 H 0.87848 0.47773 0.9226 0.0
S644 S 0.81292 0.4601 0.06608 0.0
N645 N 0.78537 0.4489 0.03101 0.0
N646 N 0.85304 0.47274 0.04733 0.0
C647 C 0.84523 0.4681 0.01067 0.0
C648 C 0.80861 0.45502 0.00181 0.0
C649 C 0.68383 0.54719 0.41895 0.0
C650 C 0.71219 0.55565 0.44464 0.0
C651 C 0.64777 0.53805 0.43071 0.0
C652 C 0.63841 0.53743 0.46865 0.0
H653 H 0.68939 0.54801 0.38938 0.0
H654 H 0.62695 0.53179 0.40978 0.0
S655 S 0.7028 0.55552 0.54734 0.0
N656 N 0.72888 0.56116 0.50995 0.0
N657 N 0.66063 0.54503 0.53203 0.0
C658 C 0.66638 0.5459 0.49473 0.0
C659 C 0.70335 0.55476 0.48274 0.0
C660 C 0.06458 0.31708 0.02727 0.0
C661 C 0.06669 0.30688 0.06502 0.0
C662 C 0.05177 0.35241 0.01645 0.0
C663 C 0.0397 0.37859 0.04289 0.0
H664 H 0.07328 0.29775 0.00581 0.0
H665 H 0.05144 0.35934 0.98715 0.0
S666 S 0.04005 0.36673 0.14514 0.0
N667 N 0.05655 0.32687 0.12896 0.0
N668 N 0.03059 0.39244 0.10826 0.0
C669 C 0.04063 0.36864 0.08059 0.0
C670 C 0.05453 0.33299 0.09175 0.0
C671 C 0.58411 0.18425 0.96243 0.0
C672 C 0.556 0.20928 0.95102 0.0
C673 C 0.57527 0.14875 0.97623 0.0
C674 C 0.53803 0.13668 0.97863 0.0
H675 H 0.61328 0.19173 0.95979 0.0
H676 H 0.59787 0.13021 0.98397 0.0
S677 S 0.45386 0.1927 0.95632 0.0
N678 N 0.48919 0.22056 0.94639 0.0
N679 N 0.47269 0.15328 0.97101 0.0
C680 C 0.50959 0.16164 0.96823 0.0
C681 C 0.51854 0.19803 0.95473 0.0
C682 C 0.95454 0.82487 0.43791 0.0
C683 C 0.95144 0.79722 0.46542 0.0
C684 C 0.96587 0.86117 0.44683 0.0
C685 C 0.97487 0.87118 0.4836 0.0
H686 H 0.94714 0.81867 0.40937 0.0
H687 H 0.96716 0.88161 0.4247 0.0
S688 S 0.97339 0.80791 0.56545 0.0
N689 N 0.95977 0.7814 0.53046 0.0
N690 N 0.98119 0.84964 0.54755 0.0
C691 C 0.97289 0.84334 0.51124 0.0
C692 C 0.96106 0.80641 0.50209 0.0
C693 C 0.44906 0.69857 0.52197 0.0
C694 C 0.44897 0.70971 0.55952 0.0
C695 C 0.46118 0.66289 0.51142 0.0
C696 C 0.47447 0.63731 0.53789 0.0
H697 H 0.43935 0.71744 0.50053 0.0
H698 H 0.46005 0.65523 0.48232 0.0
S699 S 0.47883 0.65156 0.63976 0.0
N700 N 0.46188 0.69113 0.62339 0.0
N701 N 0.48646 0.62494 0.60311 0.0
C702 C 0.47533 0.64816 0.57535 0.0
C703 C 0.46218 0.68414 0.58627 0.0
C704 C 0.95257 0.94959 0.70487 0.0
C705 C 0.94811 0.97981 0.72949 0.0
C706 C 0.96111 0.95534 0.66741 0.0
C707 C 0.96502 0.99155 0.6529 0.0
H708 H 0.94889 0.92116 0.71447 0.0
H709 H 0.96417 0.93116 0.64957 0.0
S710 S 0.95841 0.08016 0.70592 0.0
N711 N 0.95017 0.04728 0.73703 0.0
N712 N 0.96521 0.05815 0.66618 0.0
C713 C 0.96076 0.0221 0.67711 0.0
C714 C 0.95252 0.01622 0.71548 0.0
C715 C 0.57137 0.0524 0.2071 0.0
C716 C 0.54236 0.04915 0.23317 0.0
C717 C 0.5656 0.0438 0.1696 0.0
C718 C 0.53068 0.03115 0.15682 0.0
H719 H 0.59861 0.0624 0.21566 0.0
H720 H 0.58878 0.04695 0.15057 0.0
S721 S 0.44585 0.01706 0.21456 0.0
N722 N 0.47776 0.03201 0.24413 0.0
N723 N 0.46666 0.01549 0.17366 0.0
C724 C 0.50151 0.02733 0.18284 0.0
C725 C 0.50738 0.03648 0.22099 0.0
C726 C 0.48011 0.52214 0.29991 0.0
C727 C 0.44282 0.52966 0.29034 0.0
C728 C 0.4904 0.51561 0.33694 0.0
C729 C 0.46385 0.51715 0.36574 0.0
H730 H 0.50149 0.52165 0.27864 0.0
H731 H 0.51952 0.51038 0.34314 0.0
S732 S 0.36234 0.53504 0.35486 0.0
N733 N 0.37918 0.53757 0.31224 0.0
N734 N 0.39839 0.52555 0.38183 0.0
C735 C 0.42635 0.5241 0.35635 0.0
C736 C 0.41586 0.53026 0.31864 0.0
C737 C 0.01102 0.4776 0.80183 0.0
C738 C 0.04585 0.46439 0.78973 0.0
C739 C 0.00525 0.48752 0.83908 0.0
C740 C 0.03398 0.484 0.86565 0.0
H741 H 0.9881 0.48031 0.78234 0.0
H742 H 0.97787 0.49736 0.84719 0.0
S743 S 0.13034 0.45022 0.84764 0.0
N744 N 0.10936 0.44793 0.80689 0.0
N745 N 0.09877 0.46659 0.87676 0.0
C746 C 0.06902 0.47088 0.85368 0.0
C747 C 0.0749 0.46108 0.81577 0.0
C748 C 0.71668 0.97471 0.01617 0.0
C749 C 0.72831 0.95933 0.98221 0.0
C750 C 0.67884 0.98261 0.02268 0.0
C751 C 0.65148 0.97449 0.99574 0.0
H752 H 0.73697 0.98085 0.03765 0.0
H753 H 0.67089 0.99447 0.04921 0.0
S754 S 0.66817 0.93383 0.90234 0.0
N755 N 0.71 0.93635 0.92141 0.0
N756 N 0.63899 0.95057 0.93366 0.0
C757 C 0.66298 0.95898 0.96172 0.0
C758 C 0.70139 0.95154 0.95496 0.0
C759 C 0.80134 0.04702 0.49653 0.0
C760 C 0.78957 0.04463 0.4593 0.0
C761 C 0.83905 0.04268 0.50613 0.0
C762 C 0.86627 0.03561 0.47884 0.0
H763 H 0.78122 0.05198 0.51843 0.0
H764 H 0.84681 0.04427 0.53518 0.0
S765 S 0.85034 0.03044 0.37703 0.0
N766 N 0.8085 0.03756 0.39482 0.0
N767 N 0.87909 0.0286 0.41281 0.0
C768 C 0.8549 0.03377 0.44146 0.0
C769 C 0.81664 0.03845 0.43171 0.0
C770 C 0.19606 0.59264 0.03741 0.0
C771 C 0.22427 0.56543 0.03621 0.0
C772 C 0.15869 0.5832 0.03099 0.0
C773 C 0.14818 0.54625 0.02268 0.0
H774 H 0.20279 0.62131 0.04436 0.0
H775 H 0.1379 0.60509 0.0327 0.0
S776 S 0.21216 0.46499 0.01473 0.0
N777 N 0.23977 0.50039 0.02518 0.0
N778 N 0.16953 0.48242 0.01269 0.0
C779 C 0.1764 0.5189 0.02053 0.0
C780 C 0.21442 0.52853 0.02749 0.0
C781 C 0.32049 0.45377 0.5838 0.0
C782 C 0.2907 0.46161 0.5597 0.0
C783 C 0.35748 0.45914 0.57251 0.0
C784 C 0.3658 0.47328 0.53701 0.0
H785 H 0.31512 0.44318 0.61148 0.0
H786 H 0.37967 0.45286 0.59199 0.0
S787 S 0.29729 0.49748 0.46349 0.0
N788 N 0.27145 0.48318 0.49874 0.0
N789 N 0.34108 0.49436 0.47759 0.0
C790 C 0.3361 0.48122 0.51266 0.0
C791 C 0.29847 0.47505 0.52397 0.0
C792 C 0.97941 0.71832 0.98639 0.0
C793 C 0.96957 0.72882 0.95011 0.0
C794 C 0.98574 0.68076 0.99542 0.0
C795 C 0.98172 0.65231 0.96864 0.0
H796 H 0.98259 0.73934 0.00781 0.0
H797 H 0.9935 0.67395 0.02371 0.0
S798 S 0.95522 0.66565 0.86977 0.0
N799 N 0.95542 0.70821 0.8874 0.0
N800 N 0.9669 0.63758 0.90425 0.0
C801 C 0.97142 0.66259 0.93231 0.0
C802 C 0.96549 0.70085 0.92307 0.0
C803 C 0.47692 0.81368 0.09894 0.0
C804 C 0.47878 0.78505 0.07231 0.0
C805 C 0.48331 0.85095 0.08908 0.0
C806 C 0.4924 0.86084 0.05236 0.0
H807 H 0.46941 0.80733 0.1274 0.0
H808 H 0.48103 0.87217 0.11042 0.0
S809 S 0.50186 0.79581 0.97255 0.0
N810 N 0.49094 0.76864 0.008 0.0
N811 N 0.50356 0.83869 0.98935 0.0
C812 C 0.4952 0.83226 0.02562 0.0
C813 C 0.48816 0.79437 0.03561 0.0
C814 C 0.04926 0.20926 0.51871 0.0
C815 C 0.0488 0.22448 0.55483 0.0
C816 C 0.03973 0.1719 0.5123 0.0
C817 C 0.02835 0.1487 0.54157 0.0
H818 H 0.05758 0.22618 0.4952 0.0
H819 H 0.04132 0.16103 0.48425 0.0
S820 S 0.02254 0.17379 0.64113 0.0
N821 N 0.037 0.21233 0.62048 0.0
N822 N 0.01677 0.1428 0.60765 0.0
C823 C 0.02655 0.16351 0.57754 0.0
C824 C 0.03726 0.20127 0.58436 0.0
C825 C 0.51973 0.29508 0.48276 0.0
C826 C 0.55503 0.28553 0.46883 0.0
C827 C 0.50955 0.33263 0.48735 0.0
C828 C 0.53407 0.3617 0.47731 0.0
H829 H 0.50014 0.27342 0.49056 0.0
H830 H 0.48224 0.33894 0.49862 0.0
S831 S 0.62949 0.35049 0.43863 0.0
N832 N 0.61432 0.30739 0.44466 0.0
N833 N 0.59521 0.37796 0.45253 0.0
C834 C 0.56927 0.35222 0.46275 0.0
C835 C 0.57975 0.3141 0.45872 0.0
loop_
_geom_bond_atom_site_label_1
_geom_bond_atom_site_label_2
_geom_bond_distance
_geom_bond_site_symmetry_2
_ccdc_geom_bond_type
C0 C1 1.391 . S
C0 C4 1.391 . S
C0 H42 0.948 . S
C1 C0 1.391 . S
C1 C2 1.391 . S
C2 C1 1.391 . S
C2 H58 0.947 . S
C2 C59 1.392 . S
C3 C4 1.391 . S
C3 C7 1.397 . S
C3 C59 1.419 . S
C4 C0 1.391 . S
C4 C3 1.391 . S
C4 C5 1.399 . S
C5 C4 1.399 . S
C5 C8 1.396 . S
C5 C17 1.453 . S
C5 C18 1.684 . S
H6 C30 0.948 . S
C7 C3 1.397 . S
C7 C8 1.394 . S
C7 C26 1.723 . S
C8 C5 1.396 . S
C8 C7 1.394 . S
C8 C38 1.723 . S
H9 C32 0.947 . S
H10 C33 0.948 . S
H11 C39 0.982 . S
H12 C40 0.979 . S
H13 C40 0.980 . S
H14 C40 0.983 . S
H15 C39 0.979 . S
H16 C39 0.977 . S
C17 C5 1.453 . S
C17 H46 0.982 . S
C17 H47 0.979 . S
C17 H48 0.977 . S
C18 C5 1.684 . S
C18 H43 0.979 . S
C18 H44 0.980 . S
C18 H45 0.983 . S
C19 C20 1.391 . S
C19 C24 1.391 . S
C19 H49 0.948 . S
C20 C19 1.391 . S
C20 C21 1.391 . S
C21 C20 1.391 . S
C21 C22 1.392 . S
C21 H50 0.947 . S
C22 C21 1.392 . S
C22 C23 1.419 . S
C22 H51 0.948 . S
C23 C22 1.419 . S
C23 C24 1.391 . S
C23 C27 1.397 . S
C24 C19 1.391 . S
C24 C23 1.391 . S
C24 C25 1.399 . S
C25 C24 1.399 . S
C25 C26 1.396 . S
C25 C28 1.453 . S
C25 C29 1.684 . S
C26 C7 1.723 . S
C26 C25 1.396 . S
C26 C27 1.394 . S
C27 C23 1.397 . S
C27 C26 1.394 . S
C27 C37 1.723 . S
C28 C25 1.453 . S
C28 H52 0.982 . S
C28 H53 0.979 . S
C28 H54 0.977 . S
C29 C25 1.684 . S
C29 H55 0.979 . S
C29 H56 0.980 . S
C29 H57 0.983 . S
C30 H6 0.948 . S
C30 C31 1.391 . S
C30 C35 1.391 . S
C31 C30 1.391 . S
C31 C32 1.391 . S
C32 H9 0.947 . S
C32 C31 1.391 . S
C32 C33 1.392 . S
C33 H10 0.948 . S
C33 C32 1.392 . S
C33 C34 1.419 . S
C34 C33 1.419 . S
C34 C35 1.391 . S
C34 C38 1.397 . S
C35 C30 1.391 . S
C35 C34 1.391 . S
C35 C36 1.399 . S
C36 C35 1.399 . S
C36 C37 1.396 . S
C36 C39 1.453 . S
C36 C40 1.684 . S
C37 C27 1.723 . S
C37 C36 1.396 . S
C37 C38 1.394 . S
C38 C8 1.723 . S
C38 C34 1.397 . S
C38 C37 1.394 . S
C39 H11 0.982 . S
C39 H15 0.979 . S
C39 H16 0.977 . S
C39 C36 1.453 . S
C40 H12 0.979 . S
C40 H13 0.980 . S
C40 H14 0.983 . S
C40 C36 1.684 . S
H41 C59 0.948 . S
H42 C0 0.948 . S
H43 C18 0.979 . S
H44 C18 0.980 . S
H45 C18 0.983 . S
H46 C17 0.982 . S
H47 C17 0.979 . S
H48 C17 0.977 . S
H49 C19 0.948 . S
H50 C21 0.947 . S
H51 C22 0.948 . S
H52 C28 0.982 . S
H53 C28 0.979 . S
H54 C28 0.977 . S
H55 C29 0.979 . S
H56 C29 0.980 . S
H57 C29 0.983 . S
H58 C2 0.947 . S
C59 C2 1.392 . S
C59 C3 1.419 . S
C59 H41 0.948 . S
C60 C61 1.391 . S
C60 C64 1.391 . S
C60 H102 0.948 . S
C61 C60 1.391 . S
C61 C62 1.391 . S
C62 C61 1.391 . S
C62 H118 0.947 . S
C62 C119 1.392 . S
C63 C64 1.391 . S
C63 C67 1.397 . S
C63 C119 1.419 . S
C64 C60 1.391 . S
C64 C63 1.391 . S
C64 C65 1.399 . S
C65 C64 1.399 . S
C65 C68 1.396 . S
C65 C77 1.453 . S
C65 C78 1.684 . S
H66 C90 0.948 . S
C67 C63 1.397 . S
C67 C68 1.394 . S
C67 C86 1.723 . S
C68 C65 1.396 . S
C68 C67 1.394 . S
C68 C98 1.723 . S
H69 C92 0.947 . S
H70 C93 0.948 . S
H71 C99 0.982 . S
H72 C100 0.979 . S
H73 C100 0.980 . S
H74 C100 0.983 . S
H75 C99 0.979 . S
H76 C99 0.977 . S
C77 C65 1.453 . S
C77 H106 0.982 . S
C77 H107 0.979 . S
C77 H108 0.977 . S
C78 C65 1.684 . S
C78 H103 0.979 . S
C78 H104 0.980 . S
C78 H105 0.983 . S
C79 C80 1.391 . S
C79 C84 1.391 . S
C79 H109 0.948 . S
C80 C79 1.391 . S
C80 C81 1.391 . S
C81 C80 1.391 . S
C81 C82 1.392 . S
C81 H110 0.947 . S
C82 C81 1.392 . S
C82 C83 1.419 . S
C82 H111 0.948 . S
C83 C82 1.419 . S
C83 C84 1.391 . S
C83 C87 1.397 . S
C84 C79 1.391 . S
C84 C83 1.391 . S
C84 C85 1.399 . S
C85 C84 1.399 . S
C85 C86 1.396 . S
C85 C88 1.453 . S
C85 C89 1.684 . S
C86 C67 1.723 . S
C86 C85 1.396 . S
C86 C87 1.394 . S
C87 C83 1.397 . S
C87 C86 1.394 . S
C87 C97 1.723 . S
C88 C85 1.453 . S
C88 H112 0.982 . S
C88 H113 0.979 . S
C88 H114 0.977 . S
C89 C85 1.684 . S
C89 H115 0.979 . S
C89 H116 0.980 . S
C89 H117 0.983 . S
C90 H66 0.948 . S
C90 C91 1.391 . S
C90 C95 1.391 . S
C91 C90 1.391 . S
C91 C92 1.391 . S
C92 H69 0.947 . S
C92 C91 1.391 . S
C92 C93 1.392 . S
C93 H70 0.948 . S
C93 C92 1.392 . S
C93 C94 1.419 . S
C94 C93 1.419 . S
C94 C95 1.391 . S
C94 C98 1.397 . S
C95 C90 1.391 . S
C95 C94 1.391 . S
C95 C96 1.399 . S
C96 C95 1.399 . S
C96 C97 1.396 . S
C96 C99 1.453 . S
C96 C100 1.684 . S
C97 C87 1.723 . S
C97 C96 1.396 . S
C97 C98 1.394 . S
C98 C68 1.723 . S
C98 C94 1.397 . S
C98 C97 1.394 . S
C99 H71 0.982 . S
C99 H75 0.979 . S
C99 H76 0.977 . S
C99 C96 1.453 . S
C100 H72 0.979 . S
C100 H73 0.980 . S
C100 H74 0.983 . S
C100 C96 1.684 . S
H101 C119 0.948 . S
H102 C60 0.948 . S
H103 C78 0.979 . S
H104 C78 0.980 . S
H105 C78 0.983 . S
H106 C77 0.982 . S
H107 C77 0.979 . S
H108 C77 0.977 . S
H109 C79 0.948 . S
H110 C81 0.947 . S
H111 C82 0.948 . S
H112 C88 0.982 . S
H113 C88 0.979 . S
H114 C88 0.977 . S
H115 C89 0.979 . S
H116 C89 0.980 . S
H117 C89 0.983 . S
H118 C62 0.947 . S
C119 C62 1.392 . S
C119 C63 1.419 . S
C119 H101 0.948 . S
C120 C121 1.391 . S
C120 C124 1.391 . S
C120 H162 0.948 . S
C121 C120 1.391 . S
C121 C122 1.391 . S
C122 C121 1.391 . S
C122 H178 0.947 . S
C122 C179 1.392 . S
C123 C124 1.391 . S
C123 C127 1.397 . S
C123 C179 1.419 . S
C124 C120 1.391 . S
C124 C123 1.391 . S
C124 C125 1.399 . S
C125 C124 1.399 . S
C125 C128 1.396 . S
C125 C137 1.453 . S
C125 C138 1.684 . S
H126 C150 0.948 . S
C127 C123 1.397 . S
C127 C128 1.394 . S
C127 C146 1.723 . S
C128 C125 1.396 . S
C128 C127 1.394 . S
C128 C158 1.723 . S
H129 C152 0.947 . S
H130 C153 0.948 . S
H131 C159 0.982 . S
H132 C160 0.979 . S
H133 C160 0.980 . S
H134 C160 0.983 . S
H135 C159 0.979 . S
H136 C159 0.977 . S
C137 C125 1.453 . S
C137 H166 0.982 . S
C137 H167 0.979 . S
C137 H168 0.977 . S
C138 C125 1.684 . S
C138 H163 0.979 . S
C138 H164 0.980 . S
C138 H165 0.983 . S
C139 C140 1.391 . S
C139 C144 1.391 . S
C139 H169 0.948 . S
C140 C139 1.391 . S
C140 C141 1.391 . S
C141 C140 1.391 . S
C141 C142 1.392 . S
C141 H170 0.947 . S
C142 C141 1.392 . S
C142 C143 1.419 . S
C142 H171 0.948 . S
C143 C142 1.419 . S
C143 C144 1.391 . S
C143 C147 1.397 . S
C144 C139 1.391 . S
C144 C143 1.391 . S
C144 C145 1.399 . S
C145 C144 1.399 . S
C145 C146 1.396 . S
C145 C148 1.453 . S
C145 C149 1.684 . S
C146 C127 1.723 . S
C146 C145 1.396 . S
C146 C147 1.394 . S
C147 C143 1.397 . S
C147 C146 1.394 . S
C147 C157 1.723 . S
C148 C145 1.453 . S
C148 H172 0.982 . S
C148 H173 0.979 . S
C148 H174 0.977 . S
C149 C145 1.684 . S
C149 H175 0.979 . S
C149 H176 0.980 . S
C149 H177 0.983 . S
C150 H126 0.948 . S
C150 C151 1.391 . S
C150 C155 1.391 . S
C151 C150 1.391 . S
C151 C152 1.391 . S
C152 H129 0.947 . S
C152 C151 1.391 . S
C152 C153 1.392 . S
C153 H130 0.948 . S
C153 C152 1.392 . S
C153 C154 1.419 . S
C154 C153 1.419 . S
C154 C155 1.391 . S
C154 C158 1.397 . S
C155 C150 1.391 . S
C155 C154 1.391 . S
C155 C156 1.399 . S
C156 C155 1.399 . S
C156 C157 1.396 . S
C156 C159 1.453 . S
C156 C160 1.684 . S
C157 C147 1.723 . S
C157 C156 1.396 . S
C157 C158 1.394 . S
C158 C128 1.723 . S
C158 C154 1.397 . S
C158 C157 1.394 . S
C159 H131 0.982 . S
C159 H135 0.979 . S
C159 H136 0.977 . S
C159 C156 1.453 . S
C160 H132 0.979 . S
C160 H133 0.980 . S
C160 H134 0.983 . S
C160 C156 1.684 . S
H161 C179 0.948 . S
H162 C120 0.948 . S
H163 C138 0.979 . S
H164 C138 0.980 . S
H165 C138 0.983 . S
H166 C137 0.982 . S
H167 C137 0.979 . S
H168 C137 0.977 . S
H169 C139 0.948 . S
H170 C141 0.947 . S
H171 C142 0.948 . S
H172 C148 0.982 . S
H173 C148 0.979 . S
H174 C148 0.977 . S
H175 C149 0.979 . S
H176 C149 0.980 . S
H177 C149 0.983 . S
H178 C122 0.947 . S
C179 C122 1.392 . S
C179 C123 1.419 . S
C179 H161 0.948 . S
C180 C181 1.391 . S
C180 C184 1.391 . S
C180 H222 0.948 . S
C181 C180 1.391 . S
C181 C182 1.391 . S
C182 C181 1.391 . S
C182 H238 0.947 . S
C182 C239 1.392 . S
C183 C184 1.391 . S
C183 C187 1.397 . S
C183 C239 1.419 . S
C184 C180 1.391 . S
C184 C183 1.391 . S
C184 C185 1.399 . S
C185 C184 1.399 . S
C185 C188 1.396 . S
C185 C197 1.453 . S
C185 C198 1.684 . S
H186 C210 0.948 . S
C187 C183 1.397 . S
C187 C188 1.394 . S
C187 C206 1.723 . S
C188 C185 1.396 . S
C188 C187 1.394 . S
C188 C218 1.723 . S
H189 C212 0.947 . S
H190 C213 0.948 . S
H191 C219 0.982 . S
H192 C220 0.979 . S
H193 C220 0.980 . S
H194 C220 0.983 . S
H195 C219 0.979 . S
H196 C219 0.977 . S
C197 C185 1.453 . S
C197 H226 0.982 . S
C197 H227 0.979 . S
C197 H228 0.977 . S
C198 C185 1.684 . S
C198 H223 0.979 . S
C198 H224 0.980 . S
C198 H225 0.983 . S
C199 C200 1.391 . S
C199 C204 1.391 . S
C199 H229 0.948 . S
C200 C199 1.391 . S
C200 C201 1.391 . S
C201 C200 1.391 . S
C201 C202 1.392 . S
C201 H230 0.947 . S
C202 C201 1.392 . S
C202 C203 1.419 . S
C202 H231 0.948 . S
C203 C202 1.419 . S
C203 C204 1.391 . S
C203 C207 1.397 . S
C204 C199 1.391 . S
C204 C203 1.391 . S
C204 C205 1.399 . S
C205 C204 1.399 . S
C205 C206 1.396 . S
C205 C208 1.453 . S
C205 C209 1.684 . S
C206 C187 1.723 . S
C206 C205 1.396 . S
C206 C207 1.394 . S
C207 C203 1.397 . S
C207 C206 1.394 . S
C207 C217 1.723 . S
C208 C205 1.453 . S
C208 H232 0.982 . S
C208 H233 0.979 . S
C208 H234 0.977 . S
C209 C205 1.684 . S
C209 H235 0.979 . S
C209 H236 0.980 . S
C209 H237 0.983 . S
C210 H186 0.948 . S
C210 C211 1.391 . S
C210 C215 1.391 . S
C211 C210 1.391 . S
C211 C212 1.391 . S
C212 H189 0.947 . S
C212 C211 1.391 . S
C212 C213 1.392 . S
C213 H190 0.948 . S
C213 C212 1.392 . S
C213 C214 1.419 . S
C214 C213 1.419 . S
C214 C215 1.391 . S
C214 C218 1.397 . S
C215 C210 1.391 . S
C215 C214 1.391 . S
C215 C216 1.399 . S
C216 C215 1.399 . S
C216 C217 1.396 . S
C216 C219 1.453 . S
C216 C220 1.684 . S
C217 C207 1.723 . S
C217 C216 1.396 . S
C217 C218 1.394 . S
C218 C188 1.723 . S
C218 C214 1.397 . S
C218 C217 1.394 . S
C219 H191 0.982 . S
C219 H195 0.979 . S
C219 H196 0.977 . S
C219 C216 1.453 . S
C220 H192 0.979 . S
C220 H193 0.980 . S
C220 H194 0.983 . S
C220 C216 1.684 . S
H221 C239 0.948 . S
H222 C180 0.948 . S
H223 C198 0.979 . S
H224 C198 0.980 . S
H225 C198 0.983 . S
H226 C197 0.982 . S
H227 C197 0.979 . S
H228 C197 0.977 . S
H229 C199 0.948 . S
H230 C201 0.947 . S
H231 C202 0.948 . S
H232 C208 0.982 . S
H233 C208 0.979 . S
H234 C208 0.977 . S
H235 C209 0.979 . S
H236 C209 0.980 . S
H237 C209 0.983 . S
H238 C182 0.947 . S
C239 C182 1.392 . S
C239 C183 1.419 . S
C239 H221 0.948 . S
C240 C241 1.391 . S
C240 C244 1.391 . S
C240 H282 0.948 1_556 S
C241 C240 1.391 . S
C241 C242 1.391 . S
C242 C241 1.391 . S
C242 H298 0.947 1_655 S
C242 C299 1.392 . S
C243 C244 1.391 . S
C243 C247 1.397 . S
C243 C299 1.419 . S
C244 C240 1.391 . S
C244 C243 1.391 . S
C244 C245 1.399 . S
C245 C244 1.399 . S
C245 C248 1.396 . S
C245 C257 1.453 . S
C245 C258 1.684 1_556 S
H246 C270 0.948 . S
C247 C243 1.397 . S
C247 C248 1.394 . S
C247 C266 1.723 . S
C248 C245 1.396 . S
C248 C247 1.394 . S
C248 C278 1.723 . S
H249 C272 0.947 . S
H250 C273 0.948 1_554 S
H251 C279 0.982 . S
H252 C280 0.979 . S
H253 C280 0.980 . S
H254 C280 0.983 . S
H255 C279 0.979 1_545 S
H256 C279 0.977 . S
C257 C245 1.453 . S
C257 H286 0.982 . S
C257 H287 0.981 . S
C257 H288 0.977 . S
C258 C245 1.684 1_554 S
C258 H283 0.979 . S
C258 H284 0.980 . S
C258 H285 0.983 . S
C259 C260 1.391 . S
C259 C264 1.391 . S
C259 H289 0.948 . S
C260 C259 1.391 . S
C260 C261 1.391 1_565 S
C261 C260 1.391 1_545 S
C261 C262 1.392 . S
C261 H290 0.947 . S
C262 C261 1.392 . S
C262 C263 1.419 1_545 S
C262 H291 0.948 . S
C263 C262 1.419 1_565 S
C263 C264 1.391 . S
C263 C267 1.397 . S
C264 C259 1.391 . S
C264 C263 1.391 . S
C264 C265 1.399 . S
C265 C264 1.399 . S
C265 C266 1.396 . S
C265 C268 1.453 . S
C265 C269 1.684 1_655 S
C266 C247 1.723 . S
C266 C265 1.396 . S
C266 C267 1.394 . S
C267 C263 1.397 . S
C267 C266 1.394 . S
C267 C277 1.723 . S
C268 C265 1.453 . S
C268 H292 0.982 . S
C268 H293 0.979 . S
C268 H294 0.977 . S
C269 C265 1.684 1_455 S
C269 H295 0.979 . S
C269 H296 0.980 . S
C269 H297 0.983 . S
C270 H246 0.948 . S
C270 C271 1.391 1_545 S
C270 C275 1.391 1_545 S
C271 C270 1.391 1_565 S
C271 C272 1.391 1_556 S
C272 H249 0.947 . S
C272 C271 1.391 1_554 S
C272 C273 1.392 1_554 S
C273 H250 0.948 1_556 S
C273 C272 1.392 1_556 S
C273 C274 1.419 . S
C274 C273 1.419 . S
C274 C275 1.391 . S
C274 C278 1.397 . S
C275 C270 1.391 1_565 S
C275 C274 1.391 . S
C275 C276 1.399 . S
C276 C275 1.399 . S
C276 C277 1.396 . S
C276 C279 1.453 . S
C276 C280 1.684 1_565 S
C277 C267 1.723 . S
C277 C276 1.396 . S
C277 C278 1.394 . S
C278 C248 1.723 . S
C278 C274 1.397 . S
C278 C277 1.394 . S
C279 H251 0.982 . S
C279 H255 0.979 1_565 S
C279 H256 0.977 . S
C279 C276 1.453 . S
C280 H252 0.979 . S
C280 H253 0.980 . S
C280 H254 0.983 . S
C280 C276 1.684 1_545 S
H281 C299 0.948 . S
H282 C240 0.948 1_554 S
H283 C258 0.979 . S
H284 C258 0.980 . S
H285 C258 0.983 . S
H286 C257 0.982 . S
H287 C257 0.981 . S
H288 C257 0.977 . S
H289 C259 0.948 . S
H290 C261 0.947 . S
H291 C262 0.948 . S
H292 C268 0.982 . S
H293 C268 0.979 . S
H294 C268 0.977 . S
H295 C269 0.979 . S
H296 C269 0.980 . S
H297 C269 0.983 . S
H298 C242 0.947 1_455 S
C299 C242 1.392 . S
C299 C243 1.419 . S
C299 H281 0.948 . S
C300 C301 1.391 . S
C300 C304 1.391 . S
C300 H342 0.948 . S
C301 C300 1.391 . S
C301 C302 1.391 . S
C302 C301 1.391 . S
C302 H358 0.947 1_545 S
C302 C359 1.392 . S
C303 C304 1.391 . S
C303 C307 1.397 . S
C303 C359 1.419 . S
C304 C300 1.391 . S
C304 C303 1.391 . S
C304 C305 1.399 . S
C305 C304 1.399 . S
C305 C308 1.396 . S
C305 C317 1.453 . S
C305 C318 1.684 . S
H306 C330 0.948 . S
C307 C303 1.397 . S
C307 C308 1.394 . S
C307 C326 1.723 . S
C308 C305 1.396 . S
C308 C307 1.394 . S
C308 C338 1.723 . S
H309 C332 0.947 . S
H310 C333 0.948 . S
H311 C339 0.982 . S
H312 C340 0.979 . S
H313 C340 0.980 . S
H314 C340 0.983 . S
H315 C339 0.979 . S
H316 C339 0.977 . S
C317 C305 1.453 . S
C317 H346 0.982 . S
C317 H347 0.979 . S
C317 H348 0.977 . S
C318 C305 1.684 . S
C318 H343 0.979 . S
C318 H344 0.980 . S
C318 H345 0.983 . S
C319 C320 1.391 . S
C319 C324 1.391 . S
C319 H349 0.948 1_545 S
C320 C319 1.391 . S
C320 C321 1.391 . S
C321 C320 1.391 . S
C321 C322 1.392 . S
C321 H350 0.947 . S
C322 C321 1.392 . S
C322 C323 1.419 . S
C322 H351 0.948 . S
C323 C322 1.419 . S
C323 C324 1.391 . S
C323 C327 1.397 . S
C324 C319 1.391 . S
C324 C323 1.391 . S
C324 C325 1.399 . S
C325 C324 1.399 . S
C325 C326 1.396 . S
C325 C328 1.453 1_545 S
C325 C329 1.684 . S
C326 C307 1.723 . S
C326 C325 1.396 . S
C326 C327 1.394 . S
C327 C323 1.397 . S
C327 C326 1.394 . S
C327 C337 1.723 . S
C328 C325 1.453 1_565 S
C328 H352 0.982 . S
C328 H353 0.979 . S
C328 H354 0.977 . S
C329 C325 1.684 . S
C329 H355 0.979 . S
C329 H356 0.980 . S
C329 H357 0.983 1_545 S
C330 H306 0.948 . S
C330 C331 1.391 . S
C330 C335 1.391 . S
C331 C330 1.391 . S
C331 C332 1.391 . S
C332 H309 0.947 . S
C332 C331 1.391 . S
C332 C333 1.392 . S
C333 H310 0.948 . S
C333 C332 1.392 . S
C333 C334 1.419 . S
C334 C333 1.419 . S
C334 C335 1.391 . S
C334 C338 1.397 . S
C335 C330 1.391 . S
C335 C334 1.391 . S
C335 C336 1.399 . S
C336 C335 1.399 . S
C336 C337 1.396 . S
C336 C339 1.453 . S
C336 C340 1.684 . S
C337 C327 1.723 . S
C337 C336 1.396 . S
C337 C338 1.394 . S
C338 C308 1.723 . S
C338 C334 1.397 . S
C338 C337 1.394 . S
C339 H311 0.982 . S
C339 H315 0.979 . S
C339 H316 0.977 . S
C339 C336 1.453 . S
C340 H312 0.979 . S
C340 H313 0.980 . S
C340 H314 0.983 . S
C340 C336 1.684 . S
H341 C359 0.948 . S
H342 C300 0.948 . S
H343 C318 0.979 . S
H344 C318 0.980 . S
H345 C318 0.983 . S
H346 C317 0.982 . S
H347 C317 0.979 . S
H348 C317 0.977 . S
H349 C319 0.948 1_565 S
H350 C321 0.947 . S
H351 C322 0.948 . S
H352 C328 0.982 . S
H353 C328 0.979 . S
H354 C328 0.977 . S
H355 C329 0.979 . S
H356 C329 0.980 . S
H357 C329 0.983 1_565 S
H358 C302 0.947 1_565 S
C359 C302 1.392 . S
C359 C303 1.419 . S
C359 H341 0.948 . S
C360 C361 1.391 . S
C360 C364 1.391 . S
C360 H402 0.948 . S
C361 C360 1.391 . S
C361 C362 1.391 . S
C362 C361 1.391 . S
C362 H418 0.947 . S
C362 C419 1.392 . S
C363 C364 1.391 . S
C363 C367 1.397 . S
C363 C419 1.419 . S
C364 C360 1.391 . S
C364 C363 1.391 . S
C364 C365 1.399 . S
C365 C364 1.399 . S
C365 C368 1.396 . S
C365 C377 1.453 . S
C365 C378 1.684 . S
H366 C390 0.948 . S
C367 C363 1.397 . S
C367 C368 1.394 . S
C367 C386 1.723 . S
C368 C365 1.396 . S
C368 C367 1.394 . S
C368 C398 1.723 . S
H369 C392 0.947 . S
H370 C393 0.948 . S
H371 C399 0.982 . S
H372 C400 0.976 1_556 S
H373 C400 0.979 1_556 S
H374 C400 0.978 1_556 S
H375 C399 0.979 . S
H376 C399 0.977 . S
C377 C365 1.453 . S
C377 H406 0.982 . S
C377 H407 0.979 . S
C377 H408 0.977 . S
C378 C365 1.684 . S
C378 H403 0.979 . S
C378 H404 0.980 . S
C378 H405 0.983 . S
C379 C380 1.391 . S
C379 C384 1.391 . S
C379 H409 0.948 . S
C380 C379 1.391 . S
C380 C381 1.391 . S
C381 C380 1.391 . S
C381 C382 1.392 . S
C381 H410 0.947 1_554 S
C382 C381 1.392 . S
C382 C383 1.419 . S
C382 H411 0.948 . S
C383 C382 1.419 . S
C383 C384 1.391 . S
C383 C387 1.397 . S
C384 C379 1.391 . S
C384 C383 1.391 . S
C384 C385 1.399 . S
C385 C384 1.399 . S
C385 C386 1.396 . S
C385 C388 1.453 . S
C385 C389 1.684 . S
C386 C367 1.723 . S
C386 C385 1.396 . S
C386 C387 1.394 . S
C387 C383 1.397 . S
C387 C386 1.394 . S
C387 C397 1.723 . S
C388 C385 1.453 . S
C388 H412 0.982 . S
C388 H413 0.979 . S
C388 H414 0.977 . S
C389 C385 1.684 . S
C389 H415 0.979 . S
C389 H416 0.980 . S
C389 H417 0.983 . S
C390 H366 0.948 . S
C390 C391 1.391 . S
C390 C395 1.391 . S
C391 C390 1.391 . S
C391 C392 1.391 . S
C392 H369 0.947 . S
C392 C391 1.391 . S
C392 C393 1.392 . S
C393 H370 0.948 . S
C393 C392 1.392 . S
C393 C394 1.419 . S
C394 C393 1.419 . S
C394 C395 1.391 . S
C394 C398 1.397 . S
C395 C390 1.391 . S
C395 C394 1.391 . S
C395 C396 1.399 . S
C396 C395 1.399 . S
C396 C397 1.396 . S
C396 C399 1.453 . S
C396 C400 1.692 . S
C397 C387 1.723 . S
C397 C396 1.396 . S
C397 C398 1.394 . S
C398 C368 1.723 . S
C398 C394 1.397 . S
C398 C397 1.394 . S
C399 H371 0.982 . S
C399 H375 0.979 . S
C399 H376 0.977 . S
C399 C396 1.453 . S
C400 H372 0.976 1_554 S
C400 H373 0.979 1_554 S
C400 H374 0.978 1_554 S
C400 C396 1.692 . S
H401 C419 0.948 . S
H402 C360 0.948 . S
H403 C378 0.979 . S
H404 C378 0.980 . S
H405 C378 0.983 . S
H406 C377 0.982 . S
H407 C377 0.979 . S
H408 C377 0.977 . S
H409 C379 0.948 . S
H410 C381 0.947 1_556 S
H411 C382 0.948 . S
H412 C388 0.982 . S
H413 C388 0.979 . S
H414 C388 0.977 . S
H415 C389 0.979 . S
H416 C389 0.980 . S
H417 C389 0.983 . S
H418 C362 0.947 . S
C419 C362 1.392 . S
C419 C363 1.419 . S
C419 H401 0.948 . S
C420 C421 1.391 . S
C420 C424 1.391 . S
C420 H462 0.948 . S
C421 C420 1.391 . S
C421 C422 1.391 . S
C422 C421 1.391 . S
C422 H478 0.947 . S
C422 C479 1.392 . S
C423 C424 1.391 . S
C423 C427 1.397 . S
C423 C479 1.419 . S
C424 C420 1.391 . S
C424 C423 1.391 . S
C424 C425 1.399 . S
C425 C424 1.399 . S
C425 C428 1.396 . S
C425 C437 1.453 . S
C425 C438 1.684 . S
H426 C450 0.948 . S
C427 C423 1.397 . S
C427 C428 1.394 . S
C427 C446 1.723 . S
C428 C425 1.396 . S
C428 C427 1.394 . S
C428 C458 1.723 . S
H429 C452 0.947 . S
H430 C453 0.948 . S
H431 C459 0.982 . S
H432 C460 0.979 . S
H433 C460 0.980 . S
H434 C460 0.983 . S
H435 C459 0.979 . S
H436 C459 0.977 . S
C437 C425 1.453 . S
C437 H466 0.982 . S
C437 H467 0.979 1_455 S
C437 H468 0.977 . S
C438 C425 1.684 . S
C438 H463 0.979 . S
C438 H464 0.980 . S
C438 H465 0.983 . S
C439 C440 1.391 . S
C439 C444 1.391 . S
C439 H469 0.948 . S
C440 C439 1.391 . S
C440 C441 1.391 . S
C441 C440 1.391 . S
C441 C442 1.392 . S
C441 H470 0.947 . S
C442 C441 1.392 . S
C442 C443 1.419 . S
C442 H471 0.948 . S
C443 C442 1.419 . S
C443 C444 1.391 . S
C443 C447 1.397 . S
C444 C439 1.391 . S
C444 C443 1.391 . S
C444 C445 1.399 . S
C445 C444 1.399 . S
C445 C446 1.396 . S
C445 C448 1.453 . S
C445 C449 1.684 . S
C446 C427 1.723 . S
C446 C445 1.396 . S
C446 C447 1.394 . S
C447 C443 1.397 . S
C447 C446 1.394 . S
C447 C457 1.723 . S
C448 C445 1.453 . S
C448 H472 0.982 . S
C448 H473 0.979 . S
C448 H474 0.977 . S
C449 C445 1.684 . S
C449 H475 0.979 . S
C449 H476 0.980 . S
C449 H477 0.983 . S
C450 H426 0.948 . S
C450 C451 1.391 . S
C450 C455 1.391 . S
C451 C450 1.391 . S
C451 C452 1.391 . S
C452 H429 0.947 . S
C452 C451 1.391 . S
C452 C453 1.392 . S
C453 H430 0.948 . S
C453 C452 1.392 . S
C453 C454 1.419 . S
C454 C453 1.419 . S
C454 C455 1.391 . S
C454 C458 1.397 . S
C455 C450 1.391 . S
C455 C454 1.391 . S
C455 C456 1.399 . S
C456 C455 1.399 . S
C456 C457 1.396 . S
C456 C459 1.453 . S
C456 C460 1.684 . S
C457 C447 1.723 . S
C457 C456 1.396 . S
C457 C458 1.394 . S
C458 C428 1.723 . S
C458 C454 1.397 . S
C458 C457 1.394 . S
C459 H431 0.982 . S
C459 H435 0.979 . S
C459 H436 0.977 . S
C459 C456 1.453 . S
C460 H432 0.979 . S
C460 H433 0.980 . S
C460 H434 0.983 . S
C460 C456 1.684 . S
H461 C479 0.948 . S
H462 C420 0.948 . S
H463 C438 0.979 . S
H464 C438 0.980 . S
H465 C438 0.983 . S
H466 C437 0.982 . S
H467 C437 0.979 1_655 S
H468 C437 0.977 . S
H469 C439 0.948 . S
H470 C441 0.947 . S
H471 C442 0.948 . S
H472 C448 0.982 . S
H473 C448 0.979 . S
H474 C448 0.977 . S
H475 C449 0.979 . S
H476 C449 0.980 . S
H477 C449 0.983 . S
H478 C422 0.947 . S
C479 C422 1.392 . S
C479 C423 1.419 . S
C479 H461 0.948 . S
O480 Zn481 1.953 . S
O480 C496 1.225 1_655 S
Zn481 O480 1.953 . S
Zn481 O482 1.949 1_655 S
Zn481 O488 1.919 . S
Zn481 O493 1.924 . S
O482 Zn481 1.949 1_455 S
O482 Zn483 1.923 1_445 S
O482 Zn484 1.950 . S
O482 Zn485 1.945 1_545 S
Zn483 O482 1.923 1_665 S
Zn483 O486 1.933 . S
Zn483 O489 1.941 1_565 S
Zn483 O490 1.965 1_665 S
Zn484 O482 1.950 . S
Zn484 O491 1.938 . S
Zn484 O492 1.906 1_545 S
Zn484 O502 1.953 . S
Zn485 O482 1.945 1_565 S
Zn485 O487 1.932 1_455 S
Zn485 O494 1.977 . S
Zn485 O495 1.910 1_455 S
O486 Zn483 1.933 . S
O486 C497 1.226 . S
O487 Zn485 1.932 1_655 S
O487 C497 1.307 . S
O488 Zn481 1.919 . S
O488 C499 1.253 . S
O489 Zn483 1.941 1_545 S
O489 C499 1.283 . S
O490 Zn483 1.965 1_445 S
O490 C498 1.303 . S
O491 Zn484 1.938 . S
O491 C498 1.247 . S
O492 Zn484 1.906 1_565 S
O492 C500 1.304 . S
O493 Zn481 1.924 . S
O493 C501 1.311 1_545 S
O494 Zn485 1.977 . S
O494 C500 1.272 . S
O495 Zn485 1.910 1_655 S
O495 C501 1.231 . S
C496 O480 1.225 1_455 S
C496 O502 1.298 . S
C497 O486 1.226 . S
C497 O487 1.307 . S
C498 O490 1.303 . S
C498 O491 1.247 . S
C499 O488 1.253 . S
C499 O489 1.283 . S
C500 O492 1.304 . S
C500 O494 1.272 . S
C501 O493 1.311 1_565 S
C501 O495 1.231 . S
O502 Zn484 1.953 . S
O502 C496 1.298 . S
O503 Zn504 1.953 . S
O503 C519 1.225 . S
Zn504 O503 1.953 . S
Zn504 O505 1.949 1_556 S
Zn504 O511 1.919 . S
Zn504 O516 1.924 1_556 S
O505 Zn504 1.949 1_554 S
O505 Zn506 1.923 1_544 S
O505 Zn507 1.950 . S
O505 Zn508 1.945 1_545 S
Zn506 O505 1.923 1_566 S
Zn506 O509 1.933 1_556 S
Zn506 O512 1.941 . S
Zn506 O513 1.965 . S
Zn507 O505 1.950 . S
Zn507 O514 1.938 . S
Zn507 O515 1.906 . S
Zn507 O525 1.953 . S
Zn508 O505 1.945 1_565 S
Zn508 O510 1.932 . S
Zn508 O517 1.977 1_565 S
Zn508 O518 1.910 1_565 S
O509 Zn506 1.933 1_554 S
O509 C520 1.226 . S
O510 Zn508 1.932 . S
O510 C520 1.307 . S
O511 Zn504 1.919 . S
O511 C522 1.253 1_545 S
O512 Zn506 1.941 . S
O512 C522 1.283 . S
O513 Zn506 1.965 . S
O513 C521 1.303 . S
O514 Zn507 1.938 . S
O514 C521 1.247 1_544 S
O515 Zn507 1.906 . S
O515 C523 1.304 . S
O516 Zn504 1.924 1_554 S
O516 C524 1.311 . S
O517 Zn508 1.977 1_545 S
O517 C523 1.272 . S
O518 Zn508 1.910 1_545 S
O518 C524 1.231 . S
C519 O503 1.225 . S
C519 O525 1.298 1_556 S
C520 O509 1.226 . S
C520 O510 1.307 . S
C521 O513 1.303 . S
C521 O514 1.247 1_566 S
C522 O511 1.253 1_565 S
C522 O512 1.283 . S
C523 O515 1.304 . S
C523 O517 1.272 . S
C524 O516 1.311 . S
C524 O518 1.231 . S
O525 Zn507 1.953 . S
O525 C519 1.298 1_554 S
O526 Zn527 1.953 . S
O526 C542 1.225 . S
Zn527 O526 1.953 . S
Zn527 O528 1.949 . S
Zn527 O534 1.919 . S
Zn527 O539 1.924 . S
O528 Zn527 1.949 . S
O528 Zn529 1.923 . S
O528 Zn530 1.950 . S
O528 Zn531 1.945 . S
Zn529 O528 1.923 . S
Zn529 O532 1.933 . S
Zn529 O535 1.941 . S
Zn529 O536 1.965 . S
Zn530 O528 1.950 . S
Zn530 O537 1.938 . S
Zn530 O538 1.906 . S
Zn530 O548 1.953 . S
Zn531 O528 1.945 . S
Zn531 O533 1.932 . S
Zn531 O540 1.977 . S
Zn531 O541 1.910 . S
O532 Zn529 1.933 . S
O532 C543 1.226 . S
O533 Zn531 1.932 . S
O533 C543 1.307 . S
O534 Zn527 1.919 . S
O534 C545 1.253 . S
O535 Zn529 1.941 . S
O535 C545 1.283 . S
O536 Zn529 1.965 . S
O536 C544 1.303 . S
O537 Zn530 1.938 . S
O537 C544 1.247 . S
O538 Zn530 1.906 . S
O538 C546 1.304 . S
O539 Zn527 1.924 . S
O539 C547 1.311 . S
O540 Zn531 1.977 . S
O540 C546 1.272 . S
O541 Zn531 1.910 . S
O541 C547 1.231 . S
C542 O526 1.225 . S
C542 O548 1.298 . S
C543 O532 1.226 . S
C543 O533 1.307 . S
C544 O536 1.303 . S
C544 O537 1.247 . S
C545 O534 1.253 . S
C545 O535 1.283 . S
C546 O538 1.304 . S
C546 O540 1.272 . S
C547 O539 1.311 . S
C547 O541 1.231 . S
O548 Zn530 1.953 . S
O548 C542 1.298 . S
O549 Zn550 1.953 . S
O549 C565 1.225 . S
Zn550 O549 1.953 . S
Zn550 O551 1.949 1_655 S
Zn550 O557 1.919 . S
Zn550 O562 1.924 . S
O551 Zn550 1.949 1_455 S
O551 Zn552 1.923 1_454 S
O551 Zn553 1.950 . S
O551 Zn554 1.945 1_554 S
Zn552 O551 1.923 1_656 S
Zn552 O555 1.933 1_655 S
Zn552 O558 1.941 . S
Zn552 O559 1.965 . S
Zn553 O551 1.950 . S
Zn553 O560 1.938 . S
Zn553 O561 1.906 . S
Zn553 O571 1.953 . S
Zn554 O551 1.945 1_556 S
Zn554 O556 1.932 . S
Zn554 O563 1.977 1_556 S
Zn554 O564 1.910 1_556 S
O555 Zn552 1.933 1_455 S
O555 C566 1.226 . S
O556 Zn554 1.932 . S
O556 C566 1.307 . S
O557 Zn550 1.919 . S
O557 C568 1.253 1_554 S
O558 Zn552 1.941 . S
O558 C568 1.283 . S
O559 Zn552 1.965 . S
O559 C567 1.303 . S
O560 Zn553 1.938 . S
O560 C567 1.247 1_454 S
O561 Zn553 1.906 . S
O561 C569 1.304 . S
O562 Zn550 1.924 . S
O562 C570 1.311 1_655 S
O563 Zn554 1.977 1_554 S
O563 C569 1.272 . S
O564 Zn554 1.910 1_554 S
O564 C570 1.231 . S
C565 O549 1.225 . S
C565 O571 1.298 1_655 S
C566 O555 1.226 . S
C566 O556 1.307 . S
C567 O559 1.303 . S
C567 O560 1.247 1_656 S
C568 O557 1.253 1_556 S
C568 O558 1.283 . S
C569 O561 1.304 . S
C569 O563 1.272 . S
C570 O562 1.311 1_455 S
C570 O564 1.231 . S
O571 Zn553 1.953 . S
O571 C565 1.298 1_455 S
C572 C573 1.369 . S
C572 C574 1.419 . S
C572 H576 0.930 . S
C573 C572 1.369 . S
C573 C582 1.429 . S
C574 C572 1.419 . S
C574 C575 1.363 . S
C574 H577 0.921 1_455 S
C575 C574 1.363 . S
C575 C581 1.428 . S
H576 C572 0.930 . S
H577 C574 0.921 1_655 S
S578 N579 1.613 . S
S578 N580 1.610 . S
N579 S578 1.613 . S
N579 C582 1.350 . S
N580 S578 1.610 . S
N580 C581 1.351 . S
C581 C575 1.428 . S
C581 N580 1.351 . S
C581 C582 1.434 . S
C582 C573 1.429 . S
C582 N579 1.350 . S
C582 C581 1.434 . S
C583 C584 1.369 . S
C583 C585 1.419 . S
C583 H587 0.930 . S
C584 C583 1.369 . S
C584 C593 1.429 . S
C585 C583 1.419 . S
C585 C586 1.363 . S
C585 H588 0.948 . S
C586 C585 1.363 . S
C586 C592 1.428 . S
H587 C583 0.930 . S
H588 C585 0.948 . S
S589 N590 1.613 . S
S589 N591 1.610 . S
N590 S589 1.613 . S
N590 C593 1.350 . S
N591 S589 1.610 . S
N591 C592 1.351 . S
C592 C586 1.428 . S
C592 N591 1.351 . S
C592 C593 1.434 . S
C593 C584 1.429 . S
C593 N590 1.350 . S
C593 C592 1.434 . S
C594 C595 1.369 . S
C594 C596 1.419 . S
C594 H598 0.930 . S
C595 C594 1.369 . S
C595 C604 1.429 . S
C596 C594 1.419 . S
C596 C597 1.363 . S
C596 H599 0.929 . S
C597 C596 1.363 . S
C597 C603 1.428 . S
H598 C594 0.930 . S
H599 C596 0.929 . S
S600 N601 1.613 . S
S600 N602 1.610 . S
N601 S600 1.613 . S
N601 C604 1.350 . S
N602 S600 1.610 . S
N602 C603 1.351 . S
C603 C597 1.428 . S
C603 N602 1.351 . S
C603 C604 1.434 . S
C604 C595 1.429 . S
C604 N601 1.350 . S
C604 C603 1.434 . S
C605 C606 1.369 . S
C605 C607 1.419 . S
C605 H609 0.930 . S
C606 C605 1.369 . S
C606 C615 1.429 . S
C607 C605 1.419 . S
C607 C608 1.363 . S
C607 H610 0.929 . S
C608 C607 1.363 . S
C608 C614 1.428 . S
H609 C605 0.930 . S
H610 C607 0.929 . S
S611 N612 1.613 . S
S611 N613 1.610 . S
N612 S611 1.613 . S
N612 C615 1.350 . S
N613 S611 1.610 . S
N613 C614 1.351 . S
C614 C608 1.428 . S
C614 N613 1.351 . S
C614 C615 1.434 . S
C615 C606 1.429 . S
C615 N612 1.350 . S
C615 C614 1.434 . S
C616 C617 1.369 . S
C616 C618 1.419 . S
C616 H620 0.930 . S
C617 C616 1.369 . S
C617 C626 1.429 . S
C618 C616 1.419 . S
C618 C619 1.363 . S
C618 H621 0.929 . S
C619 C618 1.363 . S
C619 C625 1.428 . S
H620 C616 0.930 . S
H621 C618 0.929 . S
S622 N623 1.613 1_565 S
S622 N624 1.610 1_565 S
N623 S622 1.613 1_545 S
N623 C626 1.350 . S
N624 S622 1.610 1_545 S
N624 C625 1.351 . S
C625 C619 1.428 . S
C625 N624 1.351 . S
C625 C626 1.434 . S
C626 C617 1.429 . S
C626 N623 1.350 . S
C626 C625 1.434 . S
C627 C628 1.369 . S
C627 C629 1.419 . S
C627 H631 0.930 . S
C628 C627 1.369 . S
C628 C637 1.429 . S
C629 C627 1.419 . S
C629 C630 1.363 . S
C629 H632 0.929 . S
C630 C629 1.363 . S
C630 C636 1.428 . S
H631 C627 0.930 . S
H632 C629 0.929 . S
S633 N634 1.613 . S
S633 N635 1.610 . S
N634 S633 1.613 . S
N634 C637 1.350 . S
N635 S633 1.610 . S
N635 C636 1.351 . S
C636 C630 1.428 . S
C636 N635 1.351 . S
C636 C637 1.434 . S
C637 C628 1.429 . S
C637 N634 1.350 . S
C637 C636 1.434 . S
C638 C639 1.369 . S
C638 C640 1.419 . S
C638 H642 0.930 . S
C639 C638 1.369 . S
C639 C648 1.429 . S
C640 C638 1.419 . S
C640 C641 1.363 . S
C640 H643 0.929 . S
C641 C640 1.363 . S
C641 C647 1.428 . S
H642 C638 0.930 . S
H643 C640 0.929 . S
S644 N645 1.613 . S
S644 N646 1.610 . S
N645 S644 1.613 . S
N645 C648 1.350 1_554 S
N646 S644 1.610 . S
N646 C647 1.351 1_554 S
C647 C641 1.428 . S
C647 N646 1.351 1_556 S
C647 C648 1.434 . S
C648 C639 1.429 . S
C648 N645 1.350 1_556 S
C648 C647 1.434 . S
C649 C650 1.369 . S
C649 C651 1.419 . S
C649 H653 0.930 . S
C650 C649 1.369 . S
C650 C659 1.429 . S
C651 C649 1.419 . S
C651 C652 1.363 . S
C651 H654 0.929 . S
C652 C651 1.363 . S
C652 C658 1.428 . S
H653 C649 0.930 . S
H654 C651 0.929 . S
S655 N656 1.613 . S
S655 N657 1.610 . S
N656 S655 1.613 . S
N656 C659 1.350 . S
N657 S655 1.610 . S
N657 C658 1.351 . S
C658 C652 1.428 . S
C658 N657 1.351 . S
C658 C659 1.434 . S
C659 C650 1.429 . S
C659 N656 1.350 . S
C659 C658 1.434 . S
C660 C661 1.369 . S
C660 C662 1.419 . S
C660 H664 0.930 . S
C661 C660 1.369 . S
C661 C670 1.429 . S
C662 C660 1.419 . S
C662 C663 1.363 . S
C662 H665 0.929 . S
C663 C662 1.363 . S
C663 C669 1.428 . S
H664 C660 0.930 . S
H665 C662 0.929 . S
S666 N667 1.613 1_655 S
S666 N668 1.610 . S
N667 S666 1.613 1_455 S
N667 C670 1.350 . S
N668 S666 1.610 . S
N668 C669 1.351 1_655 S
C669 C663 1.428 . S
C669 N668 1.351 1_455 S
C669 C670 1.434 . S
C670 C661 1.429 . S
C670 N667 1.350 . S
C670 C669 1.434 . S
C671 C672 1.369 . S
C671 C673 1.419 . S
C671 H675 0.930 . S
C672 C671 1.369 . S
C672 C681 1.429 . S
C673 C671 1.419 . S
C673 C674 1.363 . S
C673 H676 0.929 . S
C674 C673 1.363 . S
C674 C680 1.428 . S
H675 C671 0.930 . S
H676 C673 0.929 . S
S677 N678 1.613 . S
S677 N679 1.610 . S
N678 S677 1.613 . S
N678 C681 1.350 1_554 S
N679 S677 1.610 . S
N679 C680 1.351 1_554 S
C680 C674 1.428 . S
C680 N679 1.351 1_556 S
C680 C681 1.434 . S
C681 C672 1.429 . S
C681 N678 1.350 1_556 S
C681 C680 1.434 . S
C682 C683 1.369 . S
C682 C684 1.419 . S
C682 H686 0.930 . S
C683 C682 1.369 . S
C683 C692 1.429 . S
C684 C682 1.419 . S
C684 C685 1.363 . S
C684 H687 0.929 . S
C685 C684 1.363 . S
C685 C691 1.428 . S
H686 C682 0.930 . S
H687 C684 0.929 . S
S688 N689 1.613 . S
S688 N690 1.610 . S
N689 S688 1.613 . S
N689 C692 1.350 . S
N690 S688 1.610 . S
N690 C691 1.351 . S
C691 C685 1.428 . S
C691 N690 1.351 . S
C691 C692 1.434 . S
C692 C683 1.429 . S
C692 N689 1.350 . S
C692 C691 1.434 . S
C693 C694 1.369 . S
C693 C695 1.419 . S
C693 H697 0.930 . S
C694 C693 1.369 . S
C694 C703 1.429 . S
C695 C693 1.419 . S
C695 C696 1.363 . S
C695 H698 0.929 . S
C696 C695 1.363 . S
C696 C702 1.428 . S
H697 C693 0.930 . S
H698 C695 0.929 . S
S699 N700 1.613 . S
S699 N701 1.610 . S
N700 S699 1.613 . S
N700 C703 1.350 . S
N701 S699 1.610 . S
N701 C702 1.351 . S
C702 C696 1.428 . S
C702 N701 1.351 . S
C702 C703 1.434 . S
C703 C694 1.429 . S
C703 N700 1.350 . S
C703 C702 1.434 . S
C704 C705 1.375 . S
C704 C706 1.419 . S
C704 H708 0.930 . S
C705 C704 1.375 . S
C705 C714 1.424 1_665 S
C706 C704 1.419 . S
C706 C707 1.365 . S
C706 H709 0.929 . S
C707 C706 1.365 . S
C707 C713 1.427 1_665 S
H708 C704 0.930 . S
H709 C706 0.929 . S
S710 N711 1.613 . S
S710 N712 1.610 . S
N711 S710 1.613 . S
N711 C714 1.349 . S
N712 S710 1.610 . S
N712 C713 1.351 . S
C713 C707 1.427 1_445 S
C713 N712 1.351 . S
C713 C714 1.434 . S
C714 C705 1.424 1_445 S
C714 N711 1.349 . S
C714 C713 1.434 . S
C715 C716 1.369 . S
C715 C717 1.419 . S
C715 H719 0.930 . S
C716 C715 1.369 . S
C716 C725 1.429 1_545 S
C717 C715 1.419 . S
C717 C718 1.363 . S
C717 H720 0.929 . S
C718 C717 1.363 . S
C718 C724 1.428 1_545 S
H719 C715 0.930 . S
H720 C717 0.929 . S
S721 N722 1.613 . S
S721 N723 1.610 . S
N722 S721 1.613 . S
N722 C725 1.350 . S
N723 S721 1.610 . S
N723 C724 1.351 . S
C724 C718 1.428 1_565 S
C724 N723 1.351 . S
C724 C725 1.434 . S
C725 C716 1.429 1_565 S
C725 N722 1.350 . S
C725 C724 1.434 . S
C726 C727 1.369 . S
C726 C728 1.419 . S
C726 H730 0.930 . S
C727 C726 1.369 . S
C727 C736 1.429 . S
C728 C726 1.419 . S
C728 C729 1.363 . S
C728 H731 0.929 . S
C729 C728 1.363 . S
C729 C735 1.428 . S
H730 C726 0.930 . S
H731 C728 0.929 . S
S732 N733 1.613 . S
S732 N734 1.610 . S
N733 S732 1.613 . S
N733 C736 1.350 . S
N734 S732 1.610 . S
N734 C735 1.351 . S
C735 C729 1.428 . S
C735 N734 1.351 . S
C735 C736 1.434 . S
C736 C727 1.429 . S
C736 N733 1.350 . S
C736 C735 1.434 . S
C737 C738 1.369 . S
C737 C739 1.419 . S
C737 H741 0.930 1_455 S
C738 C737 1.369 . S
C738 C747 1.429 . S
C739 C737 1.419 . S
C739 C740 1.363 . S
C739 H742 0.929 1_455 S
C740 C739 1.363 . S
C740 C746 1.428 . S
H741 C737 0.930 1_655 S
H742 C739 0.929 1_655 S
S743 N744 1.613 . S
S743 N745 1.610 . S
N744 S743 1.613 . S
N744 C747 1.350 . S
N745 S743 1.610 . S
N745 C746 1.351 . S
C746 C740 1.428 . S
C746 N745 1.351 . S
C746 C747 1.434 . S
C747 C738 1.429 . S
C747 N744 1.350 . S
C747 C746 1.434 . S
C748 C749 1.369 1_544 S
C748 C750 1.419 . S
C748 H752 0.930 . S
C749 C748 1.369 1_566 S
C749 C758 1.429 . S
C750 C748 1.419 . S
C750 C751 1.363 1_544 S
C750 H753 0.929 . S
C751 C750 1.363 1_566 S
C751 C757 1.428 . S
H752 C748 0.930 . S
H753 C750 0.929 . S
S754 N755 1.613 . S
S754 N756 1.610 . S
N755 S754 1.613 . S
N755 C758 1.350 . S
N756 S754 1.610 . S
N756 C757 1.351 . S
C757 C751 1.428 . S
C757 N756 1.351 . S
C757 C758 1.434 . S
C758 C749 1.429 . S
C758 N755 1.350 . S
C758 C757 1.434 . S
C759 C760 1.369 . S
C759 C761 1.419 . S
C759 H763 0.930 . S
C760 C759 1.369 . S
C760 C769 1.429 . S
C761 C759 1.419 . S
C761 C762 1.363 . S
C761 H764 0.929 . S
C762 C761 1.363 . S
C762 C768 1.428 . S
H763 C759 0.930 . S
H764 C761 0.929 . S
S765 N766 1.613 . S
S765 N767 1.610 . S
N766 S765 1.613 . S
N766 C769 1.350 1_565 S
N767 S765 1.610 . S
N767 C768 1.351 1_565 S
C768 C762 1.428 . S
C768 N767 1.351 1_545 S
C768 C769 1.434 . S
C769 C760 1.429 . S
C769 N766 1.350 1_545 S
C769 C768 1.434 . S
C770 C771 1.369 . S
C770 C772 1.419 . S
C770 H774 0.930 . S
C771 C770 1.369 . S
C771 C780 1.429 . S
C772 C770 1.419 . S
C772 C773 1.363 . S
C772 H775 0.929 . S
C773 C772 1.363 . S
C773 C779 1.428 . S
H774 C770 0.930 . S
H775 C772 0.929 . S
S776 N777 1.611 1_556 S
S776 N778 1.610 . S
N777 S776 1.611 1_554 S
N777 C780 1.351 . S
N778 S776 1.610 . S
N778 C779 1.351 1_556 S
C779 C773 1.428 . S
C779 N778 1.351 1_554 S
C779 C780 1.434 . S
C780 C771 1.429 . S
C780 N777 1.351 . S
C780 C779 1.434 . S
C781 C782 1.369 . S
C781 C783 1.419 . S
C781 H785 0.930 . S
C782 C781 1.369 . S
C782 C791 1.429 . S
C783 C781 1.419 . S
C783 C784 1.363 . S
C783 H786 0.929 . S
C784 C783 1.363 . S
C784 C790 1.428 . S
H785 C781 0.930 . S
H786 C783 0.929 . S
S787 N788 1.613 . S
S787 N789 1.610 . S
N788 S787 1.613 . S
N788 C791 1.350 . S
N789 S787 1.610 . S
N789 C790 1.351 . S
C790 C784 1.428 . S
C790 N789 1.351 . S
C790 C791 1.434 . S
C791 C782 1.429 . S
C791 N788 1.350 . S
C791 C790 1.434 . S
C792 C793 1.369 1_554 S
C792 C794 1.419 . S
C792 H796 0.930 . S
C793 C792 1.369 1_556 S
C793 C802 1.429 . S
C794 C792 1.419 . S
C794 C795 1.363 1_554 S
C794 H797 0.929 . S
C795 C794 1.363 1_556 S
C795 C801 1.428 . S
H796 C792 0.930 . S
H797 C794 0.929 . S
S798 N799 1.613 . S
S798 N800 1.610 . S
N799 S798 1.613 . S
N799 C802 1.350 . S
N800 S798 1.610 . S
N800 C801 1.351 . S
C801 C795 1.428 . S
C801 N800 1.351 . S
C801 C802 1.434 . S
C802 C793 1.429 . S
C802 N799 1.350 . S
C802 C801 1.434 . S
C803 C804 1.369 . S
C803 C805 1.419 . S
C803 H807 0.930 . S
C804 C803 1.369 . S
C804 C813 1.429 . S
C805 C803 1.419 . S
C805 C806 1.363 . S
C805 H808 0.929 . S
C806 C805 1.363 . S
C806 C812 1.428 . S
H807 C803 0.930 . S
H808 C805 0.929 . S
S809 N810 1.613 . S
S809 N811 1.610 . S
N810 S809 1.613 . S
N810 C813 1.350 1_556 S
N811 S809 1.610 . S
N811 C812 1.351 1_556 S
C812 C806 1.428 . S
C812 N811 1.351 1_554 S
C812 C813 1.434 . S
C813 C804 1.429 . S
C813 N810 1.350 1_554 S
C813 C812 1.434 . S
C814 C815 1.369 . S
C814 C816 1.419 . S
C814 H818 0.930 . S
C815 C814 1.369 . S
C815 C824 1.429 . S
C816 C814 1.419 . S
C816 C817 1.363 . S
C816 H819 0.929 . S
C817 C816 1.363 . S
C817 C823 1.428 . S
H818 C814 0.930 . S
H819 C816 0.929 . S
S820 N821 1.613 . S
S820 N822 1.610 . S
N821 S820 1.613 . S
N821 C824 1.350 . S
N822 S820 1.610 . S
N822 C823 1.351 . S
C823 C817 1.428 . S
C823 N822 1.351 . S
C823 C824 1.434 . S
C824 C815 1.429 . S
C824 N821 1.350 . S
C824 C823 1.434 . S
C825 C826 1.369 . S
C825 C827 1.419 . S
C825 H829 0.930 . S
C826 C825 1.369 . S
C826 C835 1.429 . S
C827 C825 1.419 . S
C827 C828 1.363 . S
C827 H830 0.929 . S
C828 C827 1.363 . S
C828 C834 1.428 . S
H829 C825 0.930 . S
H830 C827 0.929 . S
S831 N832 1.613 . S
S831 N833 1.610 . S
N832 S831 1.613 . S
N832 C835 1.350 . S
N833 S831 1.610 . S
N833 C834 1.351 . S
C834 C828 1.428 . S
C834 N833 1.351 . S
C834 C835 1.434 . S
C835 C826 1.429 . S
C835 N832 1.350 . S
C835 C834 1.434 . S
C573 C1 1.614 . S
C575 C498 1.590 . S
C584 C80 1.565 . S
C586 C522 1.567 . S
C597 C542 1.499 . S
C595 C140 1.421 . S
C606 C211 1.436 . S
C608 C565 1.511 . S
C619 C524 1.632 . S
C617 C31 1.689 . S
C630 C500 1.635 . S
C628 C61 1.651 . S
C641 C568 1.589 . S
C639 C151 1.599 . S
C652 C545 1.582 . S
C650 C200 1.579 . S
C661 C20 1.452 . S
C663 C570 1.401 . S
C674 C519 1.655 . S
C672 C121 1.579 . S
C683 C181 1.573 . S
C685 C497 1.649 . S
C694 C91 1.406 . S
C696 C547 1.398 . S
C707 C501 1.769 . S
C705 C260 1.727 . S
C716 C320 1.608 . S
C718 C523 1.711 . S
C727 C361 1.796 . S
C729 C543 1.830 . S
C738 C451 1.718 . S
C740 C566 1.835 . S
C749 C271 1.689 . S
C751 C521 1.663 . S
C762 C499 1.741 . S
C760 C301 1.580 . S
C773 C569 1.574 . S
C771 C380 1.581 . S
C784 C546 1.607 . S
C782 C440 1.570 . S
C793 C241 1.927 . S
C795 C567 1.888 . S
C806 C520 1.677 . S
C804 C391 1.659 . S
C817 C496 1.690 . S
C815 C421 1.581 . S
C826 C331 1.799 . S
C828 C544 1.870 . S
