# Generated by pormake.
# Topology pyr, (3,6)-cn, num edge types: 1
# Building blocks:
#     Node 0, Type 0, BuildingBlock: PAMTOO_clean_linker_0, # of connection points: 3
#     Node 1, Type 0, BuildingBlock: PAMTOO_clean_linker_0, # of connection points: 3
#     Node 2, Type 0, BuildingBlock: PAMTOO_clean_linker_0, # of connection points: 3
#     Node 3, Type 0, BuildingBlock: PAMTOO_clean_linker_0, # of connection points: 3
#     Node 4, Type 0, BuildingBlock: PAMTOO_clean_linker_0, # of connection points: 3
#     Node 5, Type 0, BuildingBlock: PAMTOO_clean_linker_0, # of connection points: 3
#     Node 6, Type 0, BuildingBlock: PAMTOO_clean_linker_0, # of connection points: 3
#     Node 7, Type 0, BuildingBlock: PAMTOO_clean_linker_0, # of connection points: 3
#     Node 8, Type 1, BuildingBlock: GEDQOX_clean_sbu_0, # of connection points: 6
#     Node 9, Type 1, BuildingBlock: GEDQOX_clean_sbu_0, # of connection points: 6
#     Node 10, Type 1, BuildingBlock: GEDQOX_clean_sbu_0, # of connection points: 6
#     Node 11, Type 1, BuildingBlock: GEDQOX_clean_sbu_0, # of connection points: 6
#     Edge 12, Type (0, 1), BuildingBlock: KIFKEQ_clean_linker_1, # of connection points: 2
#     Edge 13, Type (0, 1), BuildingBlock: KIFKEQ_clean_linker_1, # of connection points: 2
#     Edge 14, Type (0, 1), BuildingBlock: KIFKEQ_clean_linker_1, # of connection points: 2
#     Edge 15, Type (0, 1), BuildingBlock: KIFKEQ_clean_linker_1, # of connection points: 2
#     Edge 16, Type (0, 1), BuildingBlock: KIFKEQ_clean_linker_1, # of connection points: 2
#     Edge 17, Type (0, 1), BuildingBlock: KIFKEQ_clean_linker_1, # of connection points: 2
#     Edge 18, Type (0, 1), BuildingBlock: KIFKEQ_clean_linker_1, # of connection points: 2
#     Edge 19, Type (0, 1), BuildingBlock: KIFKEQ_clean_linker_1, # of connection points: 2
#     Edge 20, Type (0, 1), BuildingBlock: KIFKEQ_clean_linker_1, # of connection points: 2
#     Edge 21, Type (0, 1), BuildingBlock: KIFKEQ_clean_linker_1, # of connection points: 2
#     Edge 22, Type (0, 1), BuildingBlock: KIFKEQ_clean_linker_1, # of connection points: 2
#     Edge 23, Type (0, 1), BuildingBlock: KIFKEQ_clean_linker_1, # of connection points: 2
#     Edge 24, Type (0, 1), BuildingBlock: KIFKEQ_clean_linker_1, # of connection points: 2
#     Edge 25, Type (0, 1), BuildingBlock: KIFKEQ_clean_linker_1, # of connection points: 2
#     Edge 26, Type (0, 1), BuildingBlock: KIFKEQ_clean_linker_1, # of connection points: 2
#     Edge 27, Type (0, 1), BuildingBlock: KIFKEQ_clean_linker_1, # of connection points: 2
#     Edge 28, Type (0, 1), BuildingBlock: KIFKEQ_clean_linker_1, # of connection points: 2
#     Edge 29, Type (0, 1), BuildingBlock: KIFKEQ_clean_linker_1, # of connection points: 2
#     Edge 30, Type (0, 1), BuildingBlock: KIFKEQ_clean_linker_1, # of connection points: 2
#     Edge 31, Type (0, 1), BuildingBlock: KIFKEQ_clean_linker_1, # of connection points: 2
#     Edge 32, Type (0, 1), BuildingBlock: KIFKEQ_clean_linker_1, # of connection points: 2
#     Edge 33, Type (0, 1), BuildingBlock: KIFKEQ_clean_linker_1, # of connection points: 2
#     Edge 34, Type (0, 1), BuildingBlock: KIFKEQ_clean_linker_1, # of connection points: 2
#     Edge 35, Type (0, 1), BuildingBlock: KIFKEQ_clean_linker_1, # of connection points: 2
# Relax obj value: 0.167
# Max RMSD: 0.233
# Mean RMSD: 0.151
data_MOF--net-pyr--node1-GEDQOX_clean_sbu_0--node2-PAMTOO_clean_linker_0--edge1-KIFKEQ_clean_linker_1
_symmetry_space_group_name_H-M    P1
_symmetry_Int_Tables_number       1
_symmetry_cell_setting            triclinic
loop_
_symmetry_equiv_pos_as_xyz
'x, y, z'
_cell_length_a     39.229232
_cell_length_b     40.294125
_cell_length_c     35.463477
_cell_angle_alpha  88.195171
_cell_angle_beta   92.802563
_cell_angle_gamma 91.055193
loop_
_atom_site_label
_atom_site_type_symbol
_atom_site_fract_x
_atom_site_fract_y
_atom_site_fract_z
_atom_type_partial_charge
H0 H 0.17778 0.22045 0.24229 0.0
H1 H 0.25506 0.14525 0.2455 0.0
H2 H 0.2575 0.22539 0.16215 0.0
H3 H 0.28079 0.15426 0.13638 0.0
C4 C 0.29575 0.147 0.16268 0.0
O5 O 0.2912 0.17172 0.18953 0.0
H6 H 0.2839 0.12346 0.17325 0.0
C7 C 0.20022 0.21018 0.23088 0.0
C8 C 0.21506 0.22727 0.19952 0.0
C9 C 0.21374 0.18035 0.24823 0.0
C10 C 0.24359 0.1673 0.23257 0.0
C11 C 0.25987 0.18308 0.20132 0.0
C12 C 0.24515 0.21305 0.18547 0.0
H13 H 0.3857 0.84944 0.79471 0.0
H14 H 0.3981 0.7716 0.71644 0.0
H15 H 0.47241 0.78497 0.8072 0.0
H16 H 0.50495 0.76911 0.73916 0.0
C17 C 0.48201 0.76022 0.72248 0.0
O18 O 0.45643 0.75203 0.74665 0.0
H19 H 0.47394 0.78085 0.70251 0.0
C20 C 0.39983 0.82848 0.78578 0.0
C21 C 0.43057 0.81959 0.80538 0.0
C22 C 0.38751 0.81106 0.75401 0.0
C23 C 0.40643 0.78461 0.74163 0.0
C24 C 0.4371 0.7757 0.76062 0.0
C25 C 0.44874 0.79259 0.79278 0.0
H26 H 0.81005 0.37588 0.92246 0.0
H27 H 0.73609 0.40427 0.83359 0.0
H28 H 0.82189 0.46769 0.85854 0.0
H29 H 0.76284 0.50781 0.82364 0.0
C30 C 0.74706 0.48526 0.8176 0.0
O31 O 0.76818 0.4586 0.81433 0.0
H32 H 0.72971 0.48063 0.84125 0.0
C33 C 0.80072 0.39335 0.90071 0.0
C34 C 0.81911 0.42313 0.89425 0.0
C35 C 0.7707 0.38588 0.87887 0.0
C36 C 0.75927 0.40891 0.85059 0.0
C37 C 0.77781 0.43815 0.84357 0.0
C38 C 0.80751 0.44523 0.86519 0.0
H39 H 0.92353 0.83055 0.35816 0.0
H40 H 0.89805 0.78228 0.2538 0.0
H41 H 0.94537 0.87928 0.25221 0.0
H42 H 0.89846 0.8513 0.16409 0.0
C43 C 0.89388 0.83202 0.18645 0.0
O44 O 0.92249 0.83008 0.21071 0.0
H45 H 0.87103 0.83962 0.20133 0.0
C46 C 0.92277 0.83055 0.32754 0.0
C47 C 0.9365 0.85781 0.30759 0.0
C48 C 0.90793 0.80352 0.30849 0.0
C49 C 0.90862 0.80326 0.26898 0.0
C50 C 0.9215 0.83079 0.2487 0.0
C51 C 0.9349 0.85832 0.26797 0.0
H52 H 0.86305 0.92943 0.85164 0.0
H53 H 0.86394 0.85338 0.94062 0.0
H54 H 0.94331 0.85684 0.86153 0.0
H55 H 0.92131 0.78743 0.88421 0.0
C56 C 0.91785 0.79082 0.91477 0.0
O57 O 0.9219 0.82501 0.92217 0.0
H58 H 0.89096 0.78338 0.91967 0.0
C59 C 0.87459 0.90793 0.86558 0.0
C60 C 0.90518 0.89522 0.85088 0.0
C61 C 0.85873 0.89368 0.89825 0.0
C62 C 0.8748 0.86503 0.91595 0.0
C63 C 0.90502 0.85105 0.90244 0.0
C64 C 0.91966 0.86673 0.87039 0.0
H65 H 0.78218 0.21704 0.2583 0.0
H66 H 0.69843 0.2801 0.22078 0.0
H67 H 0.7652 0.30815 0.3135 0.0
H68 H 0.71079 0.36308 0.23086 0.0
C69 C 0.72299 0.35684 0.25908 0.0
O70 O 0.71255 0.32521 0.27009 0.0
H71 H 0.7512 0.35846 0.25691 0.0
C72 C 0.7674 0.23926 0.26051 0.0
C73 C 0.77696 0.26164 0.28887 0.0
C74 C 0.73872 0.24502 0.23581 0.0
C75 C 0.72113 0.27501 0.23843 0.0
C76 C 0.73122 0.29789 0.26586 0.0
C77 C 0.75872 0.29098 0.29126 0.0
H78 H 0.31751 0.6998 0.20351 0.0
H79 H 0.28434 0.64568 0.30223 0.0
H80 H 0.37739 0.7024 0.30886 0.0
H81 H 0.33991 0.6137 0.3354 0.0
C82 C 0.34608 0.63212 0.35764 0.0
O83 O 0.33591 0.66358 0.346 0.0
H84 H 0.33115 0.624 0.38221 0.0
C85 C 0.3214 0.69237 0.23302 0.0
C86 C 0.35037 0.70411 0.25395 0.0
C87 C 0.29731 0.6712 0.25006 0.0
C88 C 0.30235 0.66215 0.28846 0.0
C89 C 0.33146 0.67287 0.30918 0.0
C90 C 0.35546 0.69362 0.29202 0.0
H91 H 0.21711 0.22604 0.79742 0.0
H92 H 0.30791 0.28286 0.7721 0.0
H93 H 0.28137 0.19658 0.70958 0.0
H94 H 0.36075 0.21253 0.71512 0.0
C95 C 0.35685 0.23849 0.72352 0.0
O96 O 0.32326 0.24683 0.7162 0.0
H97 H 0.36409 0.24025 0.75417 0.0
C98 C 0.23995 0.22964 0.78167 0.0
C99 C 0.24683 0.20752 0.75318 0.0
C100 C 0.26231 0.25659 0.78947 0.0
C101 C 0.2913 0.26134 0.76808 0.0
C102 C 0.29812 0.2395 0.73974 0.0
C103 C 0.27635 0.21244 0.73273 0.0
Nd104 Nd 0.08022 1.00705 0.54716 0.0
Nd105 Nd 0.03949 0.06798 0.55159 0.0
C106 C 0.11394 0.95332 0.53166 0.0
C107 C 0.13388 0.92909 0.55472 0.0
C108 C 0.16079 0.91292 0.5389 0.0
C109 C 0.18382 0.89445 0.56195 0.0
C110 C 0.18031 0.89199 0.60125 0.0
C111 C 0.15215 0.90683 0.61665 0.0
C112 C 0.12923 0.92538 0.5936 0.0
C113 C 0.10407 0.04838 0.60291 0.0
C114 C 1.02624 1.00512 0.61535 0.0
C115 C 1.0062 0.12217 0.56603 0.0
C116 C 0.98948 0.14775 0.54178 0.0
C117 C 0.96328 0.16633 0.55564 0.0
C118 C 0.94324 0.18652 0.53102 0.0
C119 C 0.94911 0.18828 0.49217 0.0
C120 C 0.97667 0.17097 0.47884 0.0
C121 C 0.99661 0.15076 0.50343 0.0
C122 C 1.01639 0.0263 0.49579 0.0
C123 C 0.09317 0.06986 0.48307 0.0
O124 O 0.08097 0.95319 0.5358 0.0
O125 O 0.12731 0.98323 0.53061 0.0
O126 O 0.10447 1.0163 0.6063 0.0
O127 O 0.0936 0.0576 0.57021 0.0
O128 O 0.04384 0.98638 0.59329 0.0
O129 O 1.02455 0.03769 0.60741 0.0
O130 O 0.03952 0.12124 0.56565 0.0
O131 O 0.99173 0.09275 0.56426 0.0
O132 O 1.01649 0.05834 0.49169 0.0
O133 O 1.02624 1.01752 0.52878 0.0
O134 O 0.07513 0.08855 0.50473 0.0
O135 O 0.09537 0.0374 0.49146 0.0
H136 H 0.16495 0.91589 0.50899 0.0
H137 H 0.20542 0.88369 0.54923 0.0
H138 H 0.14845 0.90501 0.64672 0.0
H139 H 0.10872 0.93798 0.60637 0.0
H140 H 0.95736 0.16411 0.58515 0.0
H141 H 0.92238 0.19983 0.54214 0.0
H142 H 0.98157 0.17143 0.44903 0.0
H143 H 1.01653 0.13623 0.49218 0.0
Nd144 Nd 0.5816 1.00339 0.06491 0.0
Nd145 Nd 0.57783 0.04065 1.00573 0.0
C146 C 0.58438 0.95307 0.11524 0.0
C147 C 0.56005 0.92818 0.12943 0.0
C148 C 0.57187 0.90147 0.15233 0.0
C149 C 0.54905 0.87691 0.16478 0.0
C150 C 0.51401 0.87874 0.1545 0.0
C151 C 0.5023 0.90576 0.13164 0.0
C152 C 0.52517 0.93025 0.11912 0.0
C153 C 0.52636 0.04705 0.07435 0.0
C154 C 0.53503 0.97653 0.99484 0.0
C155 C 0.57414 0.08979 0.954 0.0
C156 C 0.59717 0.1167 0.94192 0.0
C157 C 0.62644 0.1246 0.96423 0.0
C158 C 0.64665 0.15221 0.9549 0.0
C159 C 0.63846 0.17199 0.92238 0.0
C160 C 0.60988 0.16283 0.89907 0.0
C161 C 0.58925 0.13558 0.90899 0.0
C162 C 0.63305 0.99694 0.99676 0.0
C163 C 0.62548 0.06724 0.07561 0.0
O164 O 0.59165 0.95052 0.08004 0.0
O165 O 0.57945 0.98369 0.12398 0.0
O166 O 0.55134 0.0408 0.09854 0.0
O167 O 0.53202 0.03178 0.04409 0.0
O168 O 0.55705 0.96735 1.02187 0.0
O169 O 0.53282 1.00812 0.98614 0.0
O170 O 0.56351 0.09189 0.98806 0.0
O171 O 0.583 0.05978 0.94669 0.0
O172 O 0.60766 1.00238 0.97276 0.0
O173 O 0.62745 1.0126 0.02678 0.0
O174 O 0.60493 0.07663 0.04721 0.0
O175 O 0.62592 0.03589 0.08599 0.0
H176 H 0.59877 0.89951 0.16041 0.0
H177 H 0.5588 0.85664 0.18271 0.0
H178 H 0.47555 0.90767 0.12287 0.0
H179 H 0.51571 0.95062 0.1011 0.0
H180 H 0.63319 0.10981 0.98935 0.0
H181 H 0.66806 0.15848 0.97391 0.0
H182 H 0.6032 0.17684 0.87331 0.0
H183 H 0.56688 0.12953 0.89122 0.0
Nd184 Nd 0.56871 0.5207 0.50615 0.0
Nd185 Nd 0.63335 0.56489 0.51322 0.0
C186 C 0.51359 0.48509 0.48809 0.0
C187 C 0.4896 0.46513 0.51007 0.0
C188 C 0.47369 0.43725 0.49391 0.0
C189 C 0.45685 0.41385 0.51651 0.0
C190 C 0.45575 0.41803 0.55565 0.0
C191 C 0.47005 0.44702 0.57137 0.0
C192 C 0.48704 0.47033 0.54876 0.0
C193 C 0.60716 0.50898 0.5717 0.0
C194 C 0.57004 0.58221 0.56158 0.0
C195 C 0.69571 0.59002 0.52422 0.0
C196 C 0.72225 0.60419 0.50066 0.0
C197 C 0.75522 0.60956 0.51638 0.0
C198 C 0.78007 0.62522 0.49486 0.0
C199 C 0.77221 0.63588 0.45732 0.0
C200 C 0.73934 0.62926 0.44131 0.0
C201 C 0.71458 0.61346 0.46281 0.0
C202 C 0.58252 0.5892 0.46431 0.0
C203 C 0.63258 0.50629 0.45219 0.0
O204 O 0.51309 0.51741 0.49142 0.0
O205 O 0.54446 0.47333 0.48931 0.0
O206 O 0.57427 0.50541 0.56922 0.0
O207 O 0.6187 0.51556 0.53976 0.0
O208 O 0.55087 0.56705 0.53539 0.0
O209 O 0.60347 0.57855 0.56404 0.0
O210 O 0.68931 0.55829 0.52098 0.0
O211 O 0.66805 0.60745 0.52545 0.0
O212 O 0.6024 0.60817 0.48492 0.0
O213 O 0.59148 0.55951 0.46817 0.0
O214 O 0.64841 0.5335 0.46402 0.0
O215 O 0.60291 0.49622 0.46486 0.0
H216 H 0.47579 0.43271 0.46416 0.0
H217 H 0.44566 0.39194 0.50361 0.0
H218 H 0.46985 0.45076 0.60147 0.0
H219 H 0.49969 0.49148 0.56183 0.0
H220 H 0.76154 0.60225 0.54551 0.0
H221 H 0.80528 0.62949 0.50783 0.0
H222 H 0.73228 0.63748 0.41267 0.0
H223 H 0.68918 0.60929 0.45025 0.0
Nd224 Nd 0.04843 0.51189 0.08911 0.0
Nd225 Nd 0.10445 0.52296 0.0372 0.0
C226 C 0.98835 0.51159 0.1193 0.0
C227 C 0.96799 0.54101 0.12548 0.0
C228 C 0.93279 0.53871 0.13078 0.0
C229 C 0.91378 0.56771 0.13326 0.0
C230 C 0.92981 0.59905 0.12949 0.0
C231 C 0.96503 0.6011 0.12469 0.0
C232 C 0.98396 0.57241 0.12307 0.0
C233 C 0.10355 0.54569 0.1204 0.0
C234 C 0.04712 0.58163 0.0325 0.0
C235 C 0.16337 0.52773 1.00432 0.0
C236 C 0.1848 0.50276 0.98807 0.0
C237 C 0.18905 0.47144 1.00595 0.0
C238 C 0.20299 0.4455 0.98692 0.0
C239 C 0.21287 0.45043 0.94956 0.0
C240 C 0.21068 0.48244 0.93265 0.0
C241 C 0.1967 0.50837 0.95175 0.0
C242 C 0.04869 0.4908 1.00539 0.0
C243 C 0.10463 0.45208 0.09314 0.0
O244 O 0.9921 0.50535 0.08377 0.0
O245 O 1.01708 0.50975 0.13952 0.0
O246 O 0.08635 0.52314 0.13857 0.0
O247 O 0.09081 0.55079 0.08752 0.0
O248 O 1.02956 0.5592 0.05242 0.0
O249 O 0.07959 0.57546 0.02649 0.0
O250 O 0.16104 0.5266 0.04108 0.0
O251 O 0.13393 0.5322 0.98621 0.0
O252 O 0.06644 0.51312 0.98758 0.0
O253 O 0.06158 0.48478 0.03802 0.0
O254 O 0.12199 0.47346 0.07134 0.0
O255 O 0.073 0.45964 0.10149 0.0
H256 H 0.92004 0.51467 0.1325 0.0
H257 H 0.88661 0.56574 0.13723 0.0
H258 H 0.97795 0.62503 0.12225 0.0
H259 H 1.01114 0.57478 0.11929 0.0
H260 H 0.17998 0.4665 0.03388 0.0
H261 H 0.20408 0.42114 1.00069 0.0
H262 H 0.21862 0.48714 0.90412 0.0
H263 H 0.19357 0.53235 0.93742 0.0
H264 H 0.1815 0.2092 0.30777 0.0
H265 H 0.20679 0.11268 0.26987 0.0
H266 H 0.15428 0.18375 0.36166 0.0
H267 H 0.17868 0.08676 0.32343 0.0
H268 H 0.13995 0.04249 0.4359 0.0
H269 H 0.16868 0.06766 0.38227 0.0
H270 H 0.11465 0.15857 0.3958 0.0
H271 H 0.08731 0.13358 0.45018 0.0
C272 C 0.18102 0.18236 0.31034 0.0
C273 C 0.1968 0.16359 0.28306 0.0
C274 C 0.16493 0.16733 0.34198 0.0
C275 C 0.16313 0.13235 0.34849 0.0
C276 C 0.17913 0.11357 0.32116 0.0
C277 C 0.19558 0.1287 0.28966 0.0
C278 C 0.13414 0.06793 0.4276 0.0
C279 C 0.11088 0.08555 0.44848 0.0
C280 C 0.15076 0.08269 0.39605 0.0
C281 C 0.14495 0.116 0.38304 0.0
C282 C 0.12128 0.13337 0.40397 0.0
C283 C 0.10498 0.1187 0.43571 0.0
H284 H 0.49764 0.83537 0.8235 0.0
H285 H 0.39539 0.85022 0.85963 0.0
H286 H 0.52035 0.87073 0.87345 0.0
H287 H 0.41839 0.88718 0.90827 0.0
H288 H 0.4795 0.98603 0.9463 0.0
H289 H 0.45226 0.94552 0.90389 0.0
H290 H 0.52174 0.87059 0.94839 0.0
H291 H 0.54857 0.91071 0.99129 0.0
C292 C 0.47997 0.84568 0.84231 0.0
C293 C 0.44456 0.83977 0.83733 0.0
C294 C 0.49305 0.86614 0.87079 0.0
C295 C 0.47107 0.88166 0.89454 0.0
C296 C 0.4358 0.87566 0.89004 0.0
C297 C 0.4227 0.85464 0.86201 0.0
C298 C 0.48861 0.96079 0.94739 0.0
C299 C 0.51622 0.95156 0.97197 0.0
C300 C 0.47296 0.93763 0.92327 0.0
C301 C 0.48508 0.90507 0.92287 0.0
C302 C 0.51209 0.89562 0.9481 0.0
C303 C 0.5273 0.91855 0.9727 0.0
H304 H 0.76816 0.48046 0.74542 0.0
H305 H 0.68044 0.50429 0.80757 0.0
H306 H 0.73444 0.48668 0.68633 0.0
H307 H 0.64688 0.51247 0.74828 0.0
H308 H 0.58672 0.48589 0.63984 0.0
H309 H 0.62062 0.48166 0.69913 0.0
H310 H 0.70763 0.52437 0.64358 0.0
H311 H 0.67399 0.5268 0.58401 0.0
C312 C 0.74161 0.48716 0.74634 0.0
C313 C 0.72655 0.49086 0.78105 0.0
C314 C 0.72233 0.49115 0.71245 0.0
C315 C 0.68776 0.4998 0.71242 0.0
C316 C 0.67316 0.50494 0.74721 0.0
C317 C 0.69237 0.50049 0.78118 0.0
C318 C 0.61315 0.4942 0.64038 0.0
C319 C 0.62788 0.50646 0.60737 0.0
C320 C 0.63252 0.49211 0.67444 0.0
C321 C 0.66693 0.50272 0.6763 0.0
C322 C 0.68143 0.51539 0.64316 0.0
C323 C 0.66216 0.51698 0.60901 0.0
H324 H 0.93059 0.80492 0.13263 0.0
H325 H 0.84571 0.78385 0.20283 0.0
H326 H 0.92977 0.74749 0.11337 0.0
H327 H 0.84401 0.72619 0.18292 0.0
H328 H 0.89735 0.62227 0.18906 0.0
H329 H 0.87975 0.6794 0.19682 0.0
H330 H 0.90257 0.70306 0.08082 0.0
H331 H 0.9214 0.64623 0.074 0.0
C332 C 0.91101 0.78811 0.14289 0.0
C333 C 0.88814 0.79873 0.16896 0.0
C334 C 0.91038 0.75518 0.13181 0.0
C335 C 0.88683 0.73205 0.14664 0.0
C336 C 0.86271 0.74322 0.17126 0.0
C337 C 0.86343 0.77625 0.1824 0.0
C338 C 0.89752 0.63954 0.16502 0.0
C339 C 0.91084 0.63018 0.13106 0.0
C340 C 0.88741 0.67227 0.16934 0.0
C341 C 0.89027 0.69606 0.1396 0.0
C342 C 0.90078 0.68564 0.10457 0.0
C343 C 0.91126 0.65309 0.10048 0.0
H344 H 0.32609 0.1535 0.0929 0.0
H345 H 0.35074 0.11756 0.20609 0.0
H346 H 0.37896 0.13076 0.07168 0.0
H347 H 0.40387 0.09446 0.18507 0.0
H348 H 0.51102 0.07059 0.14385 0.0
H349 H 0.45965 0.09591 0.16505 0.0
H350 H 0.41189 0.08621 0.05383 0.0
H351 H 0.46401 0.06086 0.03258 0.0
C352 C 0.34312 0.14146 0.11381 0.0
C353 C 0.3335 0.13874 0.15192 0.0
C354 C 0.37377 0.12761 0.10126 0.0
C355 C 0.39707 0.10993 0.12595 0.0
C356 C 0.38782 0.10788 0.16438 0.0
C357 C 0.35693 0.1216 0.17687 0.0
C358 C 0.48969 0.07367 0.12356 0.0
C359 C 0.49276 0.0631 0.08606 0.0
C360 C 0.45951 0.08833 0.13606 0.0
C361 C 0.43013 0.09376 0.11186 0.0
C362 C 0.43324 0.08333 0.07407 0.0
C363 C 0.46356 0.06835 0.0616 0.0
H364 H 0.36793 0.87418 0.73439 0.0
H365 H 0.33563 0.77156 0.72518 0.0
H366 H 0.31611 0.89159 0.69937 0.0
H367 H 0.28355 0.78904 0.68996 0.0
H368 H 0.21624 0.83543 0.5906 0.0
H369 H 0.26546 0.81471 0.62852 0.0
H370 H 0.25491 0.89349 0.70677 0.0
H371 H 0.20681 0.91493 0.66824 0.0
C372 C 0.34953 0.85535 0.7253 0.0
C373 C 0.35576 0.82151 0.73279 0.0
C374 C 0.31982 0.86532 0.70522 0.0
C375 C 0.29559 0.8417 0.69212 0.0
C376 C 0.30186 0.80781 0.69941 0.0
C377 C 0.33166 0.79782 0.71955 0.0
C378 C 0.22442 0.84825 0.61595 0.0
C379 C 0.20765 0.87689 0.6263 0.0
C380 C 0.2524 0.83621 0.63785 0.0
C381 C 0.26423 0.85264 0.67048 0.0
C382 C 0.24673 0.88057 0.68149 0.0
C383 C 0.21882 0.89258 0.65965 0.0
H384 H 0.87062 0.38082 0.91767 0.0
H385 H 0.84004 0.48318 0.9213 0.0
H386 H 0.92578 0.39551 0.94849 0.0
H387 H 0.89546 0.49778 0.95085 0.0
H388 H 1.01206 0.51359 0.94375 0.0
H389 H 0.95519 0.49568 0.92132 0.0
H390 H 0.95257 0.42195 1.01219 0.0
H391 H 1.00978 0.44032 0.03523 0.0
C392 C 0.87538 0.40628 0.9256 0.0
C393 C 0.8511 0.43093 0.91656 0.0
C394 C 0.90695 0.41464 0.94313 0.0
C395 C 0.91483 0.44779 0.95153 0.0
C396 C 0.89008 0.47212 0.94408 0.0
C397 C 0.85847 0.46376 0.92702 0.0
C398 C 0.99946 0.49347 0.95888 0.0
C399 C 1.0152 0.4783 0.99117 0.0
C400 C 0.96687 0.4834 0.9462 0.0
C401 C 0.94955 0.45767 0.96526 0.0
C402 C 0.96554 0.44186 0.99708 0.0
C403 C 0.9981 0.45233 1.01019 0.0
H404 H 0.86589 0.81043 0.36624 0.0
H405 H 0.90958 0.73603 0.29887 0.0
H406 H 0.83692 0.76728 0.40233 0.0
H407 H 0.88017 0.69245 0.33525 0.0
H408 H 0.78577 0.63321 0.3822 0.0
H409 H 0.82108 0.67194 0.34598 0.0
H410 H 0.8508 0.72268 0.44824 0.0
H411 H 0.81456 0.68512 0.48404 0.0
C412 C 0.8697 0.78477 0.35948 0.0
C413 C 0.8904 0.77664 0.33001 0.0
C414 C 0.85308 0.76002 0.3802 0.0
C415 C 0.85664 0.72644 0.37198 0.0
C416 C 0.87692 0.71816 0.34215 0.0
C417 C 0.89369 0.74306 0.32134 0.0
C418 C 0.79995 0.65259 0.39692 0.0
C419 C 0.79708 0.65626 0.43595 0.0
C420 C 0.82044 0.67452 0.37624 0.0
C421 C 0.83838 0.70056 0.39422 0.0
C422 C 0.83683 0.70317 0.4335 0.0
C423 C 0.81637 0.68135 0.45411 0.0
H424 H 0.14652 0.24694 0.19322 0.0
H425 H 0.24622 0.28394 0.16585 0.0
H426 H 0.1213 0.29821 0.16851 0.0
H427 H 0.22111 0.33577 0.14148 0.0
H428 H 0.16764 0.42433 0.0784 0.0
H429 H 0.1931 0.37239 0.10158 0.0
H430 H 0.10518 0.35167 0.16746 0.0
H431 H 0.07949 0.40315 0.14298 0.0
C432 C 0.16352 0.26602 0.18239 0.0
C433 C 0.1991 0.26005 0.1824 0.0
C434 C 0.14871 0.29622 0.16791 0.0
C435 C 0.16839 0.32286 0.15249 0.0
C436 C 0.20403 0.31676 0.15221 0.0
C437 C 0.21884 0.28636 0.16652 0.0
C438 C 0.15346 0.40881 0.09771 0.0
C439 C 0.12092 0.41901 0.10817 0.0
C440 C 0.16845 0.37843 0.11159 0.0
C441 C 0.15199 0.35619 0.13713 0.0
C442 C 0.11939 0.36664 0.14764 0.0
C443 C 0.10435 0.39693 0.13355 0.0
H444 H 0.73721 0.34776 0.82539 0.0
H445 H 0.76141 0.35093 0.94568 0.0
H446 H 0.70513 0.29612 0.8352 0.0
H447 H 0.73104 0.29804 0.95466 0.0
H448 H 0.70746 0.18314 0.93557 0.0
H449 H 0.73956 0.23487 0.92578 0.0
H450 H 0.6487 0.28169 0.87807 0.0
H451 H 0.61575 0.23091 0.88997 0.0
C452 C 0.73563 0.3377 0.85393 0.0
C453 C 0.75182 0.35386 0.88478 0.0
C454 C 0.71749 0.30795 0.85937 0.0
C455 C 0.71583 0.29331 0.89559 0.0
C456 C 0.73233 0.30888 0.9264 0.0
C457 C 0.74986 0.33905 0.92113 0.0
C458 C 0.69404 0.20449 0.9235 0.0
C459 C 0.65881 0.20267 0.91379 0.0
C460 C 0.71256 0.234 0.91772 0.0
C461 C 0.69645 0.26202 0.90128 0.0
C462 C 0.66162 0.26019 0.8906 0.0
C463 C 0.64289 0.23095 0.89714 0.0
H464 H 0.99022 0.85339 0.35798 0.0
H465 H 0.91872 0.92304 0.3061 0.0
H466 H 1.01218 0.89574 0.40076 0.0
H467 H 0.93963 0.96545 0.34998 0.0
H468 H 1.00147 0.04073 0.42117 0.0
H469 H 0.98561 1.00163 0.37162 0.0
H470 H 0.99127 0.92061 0.4545 0.0
H471 H 1.00815 0.95947 0.50333 0.0
C472 C 0.9795 0.878 0.35562 0.0
C473 C 0.9528 0.88509 0.32904 0.0
C474 C 0.99178 0.90217 0.38031 0.0
C475 C 0.97721 0.93383 0.37937 0.0
C476 C 0.95156 0.9414 0.35138 0.0
C477 C 0.93954 0.91721 0.32628 0.0
C478 C 0.99931 1.01452 0.42861 0.0
C479 C 1.00601 1.00304 0.46598 0.0
C480 C 0.99013 0.99215 0.40031 0.0
C481 C 0.98739 0.95792 0.40896 0.0
C482 C 0.99388 0.94667 0.44657 0.0
C483 C 1.00326 0.96895 0.47469 0.0
H484 H 0.46266 0.74569 0.64943 0.0
H485 H 0.52082 0.70762 0.74716 0.0
H486 H 0.48128 0.69968 0.61262 0.0
H487 H 0.53888 0.66094 0.71083 0.0
H488 H 0.60159 0.61475 0.62018 0.0
H489 H 0.57726 0.65469 0.66057 0.0
H490 H 0.47844 0.6402 0.60363 0.0
H491 H 0.50307 0.60057 0.56233 0.0
C492 C 0.47917 0.72718 0.66305 0.0
C493 C 0.49098 0.73042 0.70078 0.0
C494 C 0.48962 0.70069 0.64213 0.0
C495 C 0.51187 0.67678 0.65867 0.0
C496 C 0.52229 0.67928 0.69704 0.0
C497 C 0.5119 0.70583 0.71789 0.0
C498 C 0.57461 0.61986 0.61633 0.0
C499 C 0.55433 0.60459 0.58783 0.0
C500 C 0.56058 0.64262 0.63977 0.0
C501 C 0.52588 0.65067 0.63539 0.0
C502 C 0.50535 0.63482 0.60746 0.0
C503 C 0.51943 0.61198 0.58394 0.0
H504 H 0.94994 0.86823 0.80015 0.0
H505 H 0.90093 0.96072 0.81915 0.0
H506 H 0.97844 0.89376 0.74759 0.0
H507 H 0.92759 0.98572 0.76465 0.0
H508 H 0.9938 0.0354 0.67377 0.0
H509 H 0.96619 1.01052 0.72824 0.0
H510 H 0.98852 0.91299 0.68983 0.0
H511 H 1.01722 0.93825 0.63657 0.0
C512 C 0.94491 0.89412 0.79363 0.0
C513 C 0.92245 0.91167 0.8158 0.0
C514 C 0.9613 0.90906 0.76212 0.0
C515 C 0.9562 0.94264 0.74998 0.0
C516 C 0.93346 0.96016 0.77194 0.0
C517 C 0.91729 0.94527 0.80375 0.0
C518 C 0.99299 1.00859 0.67686 0.0
C519 C 1.00835 0.98934 0.64978 0.0
C520 C 0.97661 0.99389 0.70861 0.0
C521 C 0.9742 0.9589 0.71522 0.0
C522 C 0.98953 0.93978 0.68772 0.0
C523 C 1.00619 0.95451 0.65625 0.0
H524 H 0.74329 0.17712 0.24582 0.0
H525 H 0.70387 0.25246 0.16646 0.0
H526 H 0.72127 0.13447 0.20495 0.0
H527 H 0.67776 0.20952 0.12798 0.0
H528 H 0.65136 0.12658 0.04986 0.0
H529 H 0.6825 0.16848 0.08611 0.0
H530 H 0.67277 0.10688 0.18747 0.0
H531 H 0.64437 0.0641 0.15025 0.0
C532 C 0.73011 0.18484 0.21958 0.0
C533 C 0.72571 0.21868 0.2097 0.0
C534 C 0.71658 0.16005 0.19638 0.0
C535 C 0.69708 0.16815 0.16315 0.0
C536 C 0.69292 0.20198 0.15299 0.0
C537 C 0.70741 0.22683 0.17564 0.0
C538 C 0.65641 0.12191 0.07978 0.0
C539 C 0.64569 0.09204 0.0972 0.0
C540 C 0.67396 0.14613 0.10081 0.0
C541 C 0.68025 0.14149 0.14006 0.0
C542 C 0.6694 0.11134 0.15729 0.0
C543 C 0.65281 0.08675 0.13601 0.0
H544 H 0.37725 0.65432 0.42279 0.0
H545 H 0.39873 0.61013 0.31754 0.0
H546 H 0.43701 0.64818 0.4447 0.0
H547 H 0.45862 0.60414 0.33911 0.0
H548 H 0.54118 0.55214 0.41813 0.0
H549 H 0.48615 0.56735 0.38838 0.0
H550 H 0.49713 0.66519 0.43444 0.0
H551 H 0.55236 0.64974 0.46457 0.0
C552 C 0.395 0.64374 0.40423 0.0
C553 C 0.38349 0.63201 0.36895 0.0
C554 C 0.42917 0.6404 0.41658 0.0
C555 C 0.45241 0.62532 0.39377 0.0
C556 C 0.44116 0.61533 0.35754 0.0
C557 C 0.40702 0.6188 0.34516 0.0
C558 C 0.53203 0.57704 0.42149 0.0
C559 C 0.5509 0.59977 0.44366 0.0
C560 C 0.50062 0.58583 0.40426 0.0
C561 C 0.48733 0.6175 0.40902 0.0
C562 C 0.50665 0.64055 0.43048 0.0
C563 C 0.53827 0.63179 0.44755 0.0
H564 H 0.30616 0.28561 0.84138 0.0
H565 H 0.20064 0.28437 0.80033 0.0
H566 H 0.2948 0.33191 0.88142 0.0
H567 H 0.18903 0.32989 0.8413 0.0
H568 H 0.19246 0.4376 0.87686 0.0
H569 H 0.20424 0.38899 0.84104 0.0
H570 H 0.26413 0.34838 0.93647 0.0
H571 H 0.25328 0.39779 0.97205 0.0
C572 C 0.28044 0.29498 0.84129 0.0
C573 C 0.25435 0.28152 0.81751 0.0
C574 C 0.27389 0.32131 0.86444 0.0
C575 C 0.24111 0.33478 0.86421 0.0
C576 C 0.21469 0.32039 0.84161 0.0
C577 C 0.22123 0.29403 0.81852 0.0
C578 C 0.20865 0.41861 0.89003 0.0
C579 C 0.22212 0.42167 0.92724 0.0
C580 C 0.21492 0.39048 0.8697 0.0
C581 C 0.23479 0.36467 0.88607 0.0
C582 C 0.24879 0.3679 0.92306 0.0
C583 C 0.24243 0.39609 0.94348 0.0
H584 H 0.83567 0.89445 0.97279 0.0
H585 H 0.80478 0.92856 0.86019 0.0
H586 H 0.78423 0.91809 0.99674 0.0
H587 H 0.75412 0.95287 0.88417 0.0
H588 H 0.64781 0.97239 0.92769 0.0
H589 H 0.69957 0.9486 0.90577 0.0
H590 H 0.74937 0.96208 1.01535 0.0
H591 H 0.69669 0.98596 0.03742 0.0
C592 C 0.81815 0.9068 0.9527 0.0
C593 C 0.8258 0.90888 0.91385 0.0
C594 C 0.78818 0.92099 0.96683 0.0
C595 C 0.76352 0.93797 0.94307 0.0
C596 C 0.77122 0.94 0.90426 0.0
C597 C 0.80124 0.92608 0.89021 0.0
C598 C 0.66965 0.97049 0.94748 0.0
C599 C 0.66695 0.98168 0.98476 0.0
C600 C 0.70009 0.95676 0.93455 0.0
C601 C 0.73022 0.95297 0.95802 0.0
C602 C 0.72749 0.96387 0.99566 0.0
C603 C 0.69685 0.97793 1.00859 0.0
H604 H 0.82902 0.30126 0.31743 0.0
H605 H 0.78507 0.20242 0.32676 0.0
H606 H 0.87117 0.28707 0.3685 0.0
H607 H 0.82722 0.18822 0.37707 0.0
H608 H 0.96248 0.22793 0.43007 0.0
H609 H 0.92129 0.24795 0.3808 0.0
H610 H 0.83887 0.20534 0.44374 0.0
H611 H 0.87979 0.1848 0.49235 0.0
C612 C 0.82849 0.27652 0.33029 0.0
C613 C 0.80388 0.2529 0.31807 0.0
C614 C 0.85264 0.26838 0.35931 0.0
C615 C 0.85222 0.23666 0.3769 0.0
C616 C 0.82783 0.21301 0.36436 0.0
C617 C 0.80398 0.22101 0.33524 0.0
C618 C 0.93553 0.22316 0.43347 0.0
C619 C 0.92438 0.2047 0.46501 0.0
C620 C 0.91199 0.23477 0.40543 0.0
C621 C 0.87698 0.22784 0.40831 0.0
C622 C 0.86578 0.21064 0.44059 0.0
C623 C 0.8892 0.19924 0.46865 0.0
H624 H 0.23154 0.66427 0.27157 0.0
H625 H 0.29554 0.64694 0.17864 0.0
H626 H 0.18411 0.63578 0.23863 0.0
H627 H 0.24781 0.61872 0.14547 0.0
H628 H 0.14297 0.59318 0.08613 0.0
H629 H 0.18901 0.62686 0.11552 0.0
H630 H 0.17308 0.57679 0.22289 0.0
H631 H 0.12718 0.5434 0.19366 0.0
C632 C 0.23544 0.65449 0.24404 0.0
C633 C 0.26743 0.65751 0.22793 0.0
C634 C 0.20828 0.63818 0.22519 0.0
C635 C 0.21239 0.62467 0.1897 0.0
C636 C 0.24385 0.62904 0.17272 0.0
C637 C 0.27115 0.64526 0.19168 0.0
C638 C 0.14936 0.58949 0.11601 0.0
C639 C 0.1315 0.56583 0.13771 0.0
C640 C 0.17574 0.60864 0.13276 0.0
C641 C 0.18445 0.60462 0.17154 0.0
C642 C 0.16657 0.58083 0.19308 0.0
C643 C 0.14044 0.56157 0.17632 0.0
H644 H 0.38643 0.29712 0.74567 0.0
H645 H 0.37203 0.23433 0.64976 0.0
H646 H 0.41254 0.34014 0.70575 0.0
H647 H 0.39707 0.2775 0.60939 0.0
H648 H 0.46831 0.35194 0.5532 0.0
H649 H 0.44855 0.3075 0.59528 0.0
H650 H 0.39337 0.37875 0.65631 0.0
H651 H 0.41373 0.42331 0.61446 0.0
C652 C 0.38961 0.29234 0.71617 0.0
C653 C 0.37811 0.26224 0.70083 0.0
C654 C 0.40404 0.31708 0.69319 0.0
C655 C 0.40674 0.31233 0.65432 0.0
C656 C 0.39589 0.2818 0.63928 0.0
C657 C 0.38163 0.25704 0.66232 0.0
C658 C 0.45166 0.35803 0.57537 0.0
C659 C 0.44233 0.39105 0.5804 0.0
C660 C 0.44041 0.33258 0.59955 0.0
C661 C 0.41944 0.33954 0.62922 0.0
C662 C 0.41002 0.3726 0.63416 0.0
C663 C 0.42147 0.39811 0.61008 0.0
H664 H 0.98089 0.76489 0.89688 0.0
H665 H 0.90841 0.75624 0.9838 0.0
H666 H 1.01148 0.71698 0.92466 0.0
H667 H 0.9392 0.70872 1.01243 0.0
H668 H 0.98015 0.60277 0.03876 0.0
H669 H 0.9523 0.65313 1.01387 0.0
H670 H 0.0465 0.68638 0.96626 0.0
H671 H 0.07399 0.63546 0.99053 0.0
C672 C 0.9719 0.75351 0.92271 0.0
C673 C 0.94196 0.76565 0.93792 0.0
C674 C 0.98959 0.72537 0.93888 0.0
C675 C 0.9784 0.70741 0.9713 0.0
C676 C 0.94908 0.72046 0.98728 0.0
C677 C 0.93144 0.74862 0.97107 0.0
C678 C 0.9952 0.62072 0.02307 0.0
C679 C 1.02987 0.61404 1.01714 0.0
C680 C 0.97902 0.65032 1.00875 0.0
C681 C 0.99641 0.67529 0.98752 0.0
C682 C 1.03121 0.66851 0.98171 0.0
C683 C 0.0474 0.63887 0.99607 0.0
H684 H 0.33523 0.75766 0.20724 0.0
H685 H 0.42024 0.7054 0.2618 0.0
H686 H 0.3746 0.79874 0.18108 0.0
H687 H 0.45953 0.74729 0.23693 0.0
H688 H 0.52271 0.81148 0.1569 0.0
H689 H 0.4832 0.7684 0.17881 0.0
H690 H 0.41122 0.84369 0.20356 0.0
H691 H 0.45063 0.88668 0.18144 0.0
C692 C 0.36235 0.75478 0.21342 0.0
C693 C 0.37458 0.72824 0.23664 0.0
C694 C 0.38489 0.77858 0.19882 0.0
C695 C 0.42021 0.77644 0.2071 0.0
C696 C 0.4325 0.74955 0.22974 0.0
C697 C 0.40996 0.72573 0.24434 0.0
C698 C 0.49852 0.81881 0.16724 0.0
C699 C 0.48982 0.85249 0.1675 0.0
C700 C 0.47589 0.79414 0.17979 0.0
C701 C 0.44404 0.80258 0.19294 0.0
C702 C 0.4353 0.83627 0.19303 0.0
C703 C 0.4579 0.86093 0.1804 0.0
H704 H 0.25919 0.14269 0.73991 0.0
H705 H 0.17833 0.21401 0.73874 0.0
H706 H 0.22038 0.10293 0.70886 0.0
H707 H 0.13925 0.17404 0.70807 0.0
H708 H 0.13697 0.03127 0.66993 0.0
H709 H 0.16748 0.06822 0.71394 0.0
H710 H 0.13806 0.1528 0.6426 0.0
H711 H 0.10757 0.11591 0.59876 0.0
C712 C 0.23288 0.14952 0.73375 0.0
C713 C 0.22179 0.18143 0.74149 0.0
C714 C 0.2106 0.12673 0.71618 0.0
C715 C 0.17686 0.13551 0.70576 0.0
C716 C 0.16524 0.16676 0.71545 0.0
C717 C 0.18747 0.18948 0.73333 0.0
C718 C 0.13679 0.05779 0.66391 0.0
C719 C 0.12022 0.07078 0.63083 0.0
C720 C 0.15426 0.07889 0.68904 0.0
C721 C 0.15517 0.11336 0.68169 0.0
C722 C 0.13745 0.12638 0.64928 0.0
C723 C 0.12021 0.10527 0.62403 0.0
H724 H 0.72526 0.34846 0.33629 0.0
H725 H 0.69989 0.42043 0.24701 0.0
H726 H 0.70602 0.38632 0.38285 0.0
H727 H 0.68107 0.45877 0.29403 0.0
H728 H 0.68118 0.52527 0.40226 0.0
H729 H 0.70601 0.49082 0.35502 0.0
H730 H 0.64419 0.40732 0.39167 0.0
H731 H 0.61912 0.44143 0.43814 0.0
C732 C 0.71561 0.3724 0.32663 0.0
C733 C 0.71296 0.38111 0.28791 0.0
C734 C 0.7047 0.39407 0.35328 0.0
C735 C 0.69174 0.42522 0.34188 0.0
C736 C 0.69094 0.43482 0.30344 0.0
C737 C 0.70144 0.41288 0.27662 0.0
C738 C 0.67296 0.49956 0.40016 0.0
C739 C 0.64815 0.48606 0.4238 0.0
C740 C 0.68704 0.47997 0.37311 0.0
C741 C 0.67704 0.44648 0.36994 0.0
C742 C 0.65251 0.43302 0.39379 0.0
C743 C 0.63804 0.45263 0.42022 0.0
loop_
_geom_bond_atom_site_label_1
_geom_bond_atom_site_label_2
_geom_bond_distance
_geom_bond_site_symmetry_2
_ccdc_geom_bond_type
H0 C7 0.929 . S
H1 C10 0.930 . S
H2 C12 0.929 . S
H3 C4 0.969 . S
C4 H3 0.969 . S
C4 O5 1.550 . S
C4 H6 0.973 . S
O5 C4 1.550 . S
O5 C11 1.412 . S
H6 C4 0.973 . S
C7 H0 0.929 . S
C7 C8 1.400 . S
C7 C9 1.364 . S
C8 C7 1.400 . S
C8 C12 1.377 . S
C9 C7 1.364 . S
C9 C10 1.374 . S
C10 H1 0.930 . S
C10 C9 1.374 . S
C10 C11 1.383 . S
C11 O5 1.412 . S
C11 C10 1.383 . S
C11 C12 1.394 . S
C12 H2 0.929 . S
C12 C8 1.377 . S
C12 C11 1.394 . S
H13 C20 0.929 . S
H14 C23 0.930 . S
H15 C25 0.929 . S
H16 C17 0.969 . S
C17 H16 0.969 . S
C17 O18 1.550 . S
C17 H19 0.973 . S
O18 C17 1.550 . S
O18 C24 1.412 . S
H19 C17 0.973 . S
C20 H13 0.929 . S
C20 C21 1.400 . S
C20 C22 1.364 . S
C21 C20 1.400 . S
C21 C25 1.377 . S
C22 C20 1.364 . S
C22 C23 1.374 . S
C23 H14 0.930 . S
C23 C22 1.374 . S
C23 C24 1.383 . S
C24 O18 1.412 . S
C24 C23 1.383 . S
C24 C25 1.394 . S
C25 H15 0.929 . S
C25 C21 1.377 . S
C25 C24 1.394 . S
H26 C33 0.929 . S
H27 C36 0.930 . S
H28 C38 0.929 . S
H29 C30 0.969 . S
C30 H29 0.969 . S
C30 O31 1.550 . S
C30 H32 0.973 . S
O31 C30 1.550 . S
O31 C37 1.412 . S
H32 C30 0.973 . S
C33 H26 0.929 . S
C33 C34 1.400 . S
C33 C35 1.364 . S
C34 C33 1.400 . S
C34 C38 1.377 . S
C35 C33 1.364 . S
C35 C36 1.374 . S
C36 H27 0.930 . S
C36 C35 1.374 . S
C36 C37 1.383 . S
C37 O31 1.412 . S
C37 C36 1.383 . S
C37 C38 1.394 . S
C38 H28 0.929 . S
C38 C34 1.377 . S
C38 C37 1.394 . S
H39 C46 0.929 . S
H40 C49 0.930 . S
H41 C51 0.929 . S
H42 C43 0.969 . S
C43 H42 0.969 . S
C43 O44 1.550 . S
C43 H45 0.973 . S
O44 C43 1.550 . S
O44 C50 1.412 . S
H45 C43 0.973 . S
C46 H39 0.929 . S
C46 C47 1.400 . S
C46 C48 1.364 . S
C47 C46 1.400 . S
C47 C51 1.377 . S
C48 C46 1.364 . S
C48 C49 1.374 . S
C49 H40 0.930 . S
C49 C48 1.374 . S
C49 C50 1.383 . S
C50 O44 1.412 . S
C50 C49 1.383 . S
C50 C51 1.394 . S
C51 H41 0.929 . S
C51 C47 1.377 . S
C51 C50 1.394 . S
H52 C59 0.929 . S
H53 C62 0.930 . S
H54 C64 0.929 . S
H55 C56 0.969 . S
C56 H55 0.969 . S
C56 O57 1.550 . S
C56 H58 0.973 . S
O57 C56 1.550 . S
O57 C63 1.412 . S
H58 C56 0.973 . S
C59 H52 0.929 . S
C59 C60 1.400 . S
C59 C61 1.364 . S
C60 C59 1.400 . S
C60 C64 1.377 . S
C61 C59 1.364 . S
C61 C62 1.374 . S
C62 H53 0.930 . S
C62 C61 1.374 . S
C62 C63 1.383 . S
C63 O57 1.412 . S
C63 C62 1.383 . S
C63 C64 1.394 . S
C64 H54 0.929 . S
C64 C60 1.377 . S
C64 C63 1.394 . S
H65 C72 0.929 . S
H66 C75 0.930 . S
H67 C77 0.929 . S
H68 C69 0.969 . S
C69 H68 0.969 . S
C69 O70 1.550 . S
C69 H71 0.973 . S
O70 C69 1.550 . S
O70 C76 1.412 . S
H71 C69 0.973 . S
C72 H65 0.929 . S
C72 C73 1.400 . S
C72 C74 1.364 . S
C73 C72 1.400 . S
C73 C77 1.377 . S
C74 C72 1.364 . S
C74 C75 1.374 . S
C75 H66 0.930 . S
C75 C74 1.374 . S
C75 C76 1.383 . S
C76 O70 1.412 . S
C76 C75 1.383 . S
C76 C77 1.394 . S
C77 H67 0.929 . S
C77 C73 1.377 . S
C77 C76 1.394 . S
H78 C85 0.929 . S
H79 C88 0.930 . S
H80 C90 0.929 . S
H81 C82 0.969 . S
C82 H81 0.969 . S
C82 O83 1.550 . S
C82 H84 0.973 . S
O83 C82 1.550 . S
O83 C89 1.412 . S
H84 C82 0.973 . S
C85 H78 0.929 . S
C85 C86 1.400 . S
C85 C87 1.364 . S
C86 C85 1.400 . S
C86 C90 1.377 . S
C87 C85 1.364 . S
C87 C88 1.374 . S
C88 H79 0.930 . S
C88 C87 1.374 . S
C88 C89 1.383 . S
C89 O83 1.412 . S
C89 C88 1.383 . S
C89 C90 1.394 . S
C90 H80 0.929 . S
C90 C86 1.377 . S
C90 C89 1.394 . S
H91 C98 0.929 . S
H92 C101 0.930 . S
H93 C103 0.929 . S
H94 C95 0.969 . S
C95 H94 0.969 . S
C95 O96 1.550 . S
C95 H97 0.973 . S
O96 C95 1.550 . S
O96 C102 1.412 . S
H97 C95 0.973 . S
C98 H91 0.929 . S
C98 C99 1.400 . S
C98 C100 1.364 . S
C99 C98 1.400 . S
C99 C103 1.377 . S
C100 C98 1.364 . S
C100 C101 1.374 . S
C101 H92 0.930 . S
C101 C100 1.374 . S
C101 C102 1.383 . S
C102 O96 1.412 . S
C102 C101 1.383 . S
C102 C103 1.394 . S
C103 H93 0.929 . S
C103 C99 1.377 . S
C103 C102 1.394 . S
Nd104 C106 2.813 1_545 S
Nd104 O124 2.470 1_545 S
Nd104 O125 2.479 1_545 S
Nd104 O126 2.512 . S
Nd104 O127 2.710 . S
Nd104 O128 2.409 1_545 S
Nd104 O133 2.409 1_545 S
Nd104 O135 2.442 . S
Nd105 C115 2.836 . S
Nd105 O127 2.414 1_655 S
Nd105 O129 2.424 . S
Nd105 O130 2.500 . S
Nd105 O131 2.492 . S
Nd105 O132 2.487 1_545 S
Nd105 O133 2.682 1_645 S
Nd105 O134 2.410 1_655 S
C106 Nd104 2.813 1_565 S
C106 C107 1.498 . S
C106 O124 1.258 . S
C106 O125 1.239 . S
C107 C106 1.498 . S
C107 C108 1.366 . S
C107 C112 1.407 . S
C108 C107 1.366 . S
C108 C109 1.392 . S
C108 H136 0.930 . S
C109 C108 1.392 . S
C109 C110 1.398 . S
C109 H137 0.929 . S
C110 C109 1.398 . S
C110 C111 1.352 . S
C111 C110 1.352 . S
C111 C112 1.384 . S
C111 H138 0.930 . S
C112 C107 1.407 . S
C112 C111 1.384 . S
C112 H139 0.929 . S
C113 O126 1.241 . S
C113 O127 1.273 . S
C114 O128 1.251 . S
C114 O129 1.268 1_465 S
C115 Nd105 2.836 . S
C115 C116 1.498 . S
C115 O130 1.258 . S
C115 O131 1.239 . S
C116 C115 1.498 . S
C116 C117 1.366 . S
C116 C121 1.407 . S
C117 C116 1.366 . S
C117 C118 1.392 . S
C117 H140 0.930 . S
C118 C117 1.392 . S
C118 C119 1.398 . S
C118 H141 0.929 . S
C119 C118 1.398 . S
C119 C120 1.352 . S
C120 C119 1.352 . S
C120 C121 1.384 . S
C120 H142 0.930 . S
C121 C116 1.407 . S
C121 C120 1.384 . S
C121 H143 0.929 . S
C122 O132 1.241 . S
C122 O133 1.273 1_655 S
C123 O134 1.251 . S
C123 O135 1.268 . S
O124 Nd104 2.470 1_565 S
O124 C106 1.258 . S
O125 Nd104 2.479 1_565 S
O125 C106 1.239 . S
O126 Nd104 2.512 . S
O126 C113 1.241 . S
O127 Nd104 2.710 . S
O127 Nd105 2.414 1_455 S
O127 C113 1.273 . S
O128 Nd104 2.409 1_565 S
O128 C114 1.251 . S
O129 Nd105 2.424 . S
O129 C114 1.268 1_645 S
O130 Nd105 2.500 . S
O130 C115 1.258 . S
O131 Nd105 2.492 . S
O131 C115 1.239 . S
O132 Nd105 2.487 1_565 S
O132 C122 1.241 . S
O133 Nd104 2.409 1_565 S
O133 Nd105 2.682 1_465 S
O133 C122 1.273 1_455 S
O134 Nd105 2.410 1_455 S
O134 C123 1.251 . S
O135 Nd104 2.442 . S
O135 C123 1.268 . S
H136 C108 0.930 . S
H137 C109 0.929 . S
H138 C111 0.930 . S
H139 C112 0.929 . S
H140 C117 0.930 . S
H141 C118 0.929 . S
H142 C120 0.930 . S
H143 C121 0.929 . S
Nd144 C146 2.836 . S
Nd144 O164 2.500 . S
Nd144 O165 2.492 . S
Nd144 O166 2.487 1_565 S
Nd144 O167 2.682 1_565 S
Nd144 O168 2.410 1_554 S
Nd144 O173 2.406 1_554 S
Nd144 O175 2.424 1_565 S
Nd145 C155 2.836 . S
Nd145 O167 2.414 1_556 S
Nd145 O169 2.424 1_545 S
Nd145 O170 2.500 . S
Nd145 O171 2.492 . S
Nd145 O172 2.487 . S
Nd145 O173 2.687 1_545 S
Nd145 O174 2.410 1_556 S
C146 Nd144 2.836 . S
C146 C147 1.498 . S
C146 O164 1.258 . S
C146 O165 1.239 . S
C147 C146 1.498 . S
C147 C148 1.366 . S
C147 C152 1.407 . S
C148 C147 1.366 . S
C148 C149 1.392 . S
C148 H176 0.930 . S
C149 C148 1.392 . S
C149 C150 1.398 . S
C149 H177 0.929 . S
C150 C149 1.398 . S
C150 C151 1.352 . S
C151 C150 1.352 . S
C151 C152 1.384 . S
C151 H178 0.930 . S
C152 C147 1.407 . S
C152 C151 1.384 . S
C152 H179 0.929 . S
C153 O166 1.241 . S
C153 O167 1.273 . S
C154 O168 1.251 . S
C154 O169 1.268 . S
C155 Nd145 2.836 . S
C155 C156 1.498 . S
C155 O170 1.258 . S
C155 O171 1.239 . S
C156 C155 1.498 . S
C156 C157 1.366 . S
C156 C161 1.407 . S
C157 C156 1.366 . S
C157 C158 1.392 . S
C157 H180 0.930 . S
C158 C157 1.392 . S
C158 C159 1.398 . S
C158 H181 0.929 . S
C159 C158 1.398 . S
C159 C160 1.352 . S
C160 C159 1.352 . S
C160 C161 1.384 . S
C160 H182 0.930 . S
C161 C156 1.407 . S
C161 C160 1.384 . S
C161 H183 0.929 . S
C162 O172 1.241 1_565 S
C162 O173 1.279 . S
C163 O174 1.251 . S
C163 O175 1.268 . S
O164 Nd144 2.500 . S
O164 C146 1.258 . S
O165 Nd144 2.492 . S
O165 C146 1.239 . S
O166 Nd144 2.487 1_545 S
O166 C153 1.241 . S
O167 Nd144 2.682 1_545 S
O167 Nd145 2.414 1_554 S
O167 C153 1.273 . S
O168 Nd144 2.410 1_556 S
O168 C154 1.251 . S
O169 Nd145 2.424 1_565 S
O169 C154 1.268 . S
O170 Nd145 2.500 . S
O170 C155 1.258 . S
O171 Nd145 2.492 . S
O171 C155 1.239 . S
O172 Nd145 2.487 . S
O172 C162 1.241 1_545 S
O173 Nd144 2.406 1_556 S
O173 Nd145 2.687 1_565 S
O173 C162 1.279 . S
O174 Nd145 2.410 1_554 S
O174 C163 1.251 . S
O175 Nd144 2.424 1_545 S
O175 C163 1.268 . S
H176 C148 0.930 . S
H177 C149 0.929 . S
H178 C151 0.930 . S
H179 C152 0.929 . S
H180 C157 0.930 . S
H181 C158 0.929 . S
H182 C160 0.930 . S
H183 C161 0.929 . S
Nd184 C186 2.836 . S
Nd184 O204 2.500 . S
Nd184 O205 2.492 . S
Nd184 O206 2.487 . S
Nd184 O207 2.682 . S
Nd184 O208 2.410 . S
Nd184 O213 2.414 . S
Nd184 O215 2.424 . S
Nd185 C195 2.836 . S
Nd185 O207 2.414 . S
Nd185 O209 2.424 . S
Nd185 O210 2.500 . S
Nd185 O211 2.492 . S
Nd185 O212 2.487 . S
Nd185 O213 2.682 . S
Nd185 O214 2.410 . S
C186 Nd184 2.836 . S
C186 C187 1.498 . S
C186 O204 1.258 . S
C186 O205 1.239 . S
C187 C186 1.498 . S
C187 C188 1.366 . S
C187 C192 1.407 . S
C188 C187 1.366 . S
C188 C189 1.392 . S
C188 H216 0.930 . S
C189 C188 1.392 . S
C189 C190 1.398 . S
C189 H217 0.929 . S
C190 C189 1.398 . S
C190 C191 1.352 . S
C191 C190 1.352 . S
C191 C192 1.384 . S
C191 H218 0.930 . S
C192 C187 1.407 . S
C192 C191 1.384 . S
C192 H219 0.929 . S
C193 O206 1.241 . S
C193 O207 1.273 . S
C194 O208 1.251 . S
C194 O209 1.268 . S
C195 Nd185 2.836 . S
C195 C196 1.498 . S
C195 O210 1.258 . S
C195 O211 1.239 . S
C196 C195 1.498 . S
C196 C197 1.366 . S
C196 C201 1.407 . S
C197 C196 1.366 . S
C197 C198 1.392 . S
C197 H220 0.930 . S
C198 C197 1.392 . S
C198 C199 1.398 . S
C198 H221 0.929 . S
C199 C198 1.398 . S
C199 C200 1.352 . S
C200 C199 1.352 . S
C200 C201 1.384 . S
C200 H222 0.930 . S
C201 C196 1.407 . S
C201 C200 1.384 . S
C201 H223 0.929 . S
C202 O212 1.241 . S
C202 O213 1.273 . S
C203 O214 1.251 . S
C203 O215 1.268 . S
O204 Nd184 2.500 . S
O204 C186 1.258 . S
O205 Nd184 2.492 . S
O205 C186 1.239 . S
O206 Nd184 2.487 . S
O206 C193 1.241 . S
O207 Nd184 2.682 . S
O207 Nd185 2.414 . S
O207 C193 1.273 . S
O208 Nd184 2.410 . S
O208 C194 1.251 . S
O209 Nd185 2.424 . S
O209 C194 1.268 . S
O210 Nd185 2.500 . S
O210 C195 1.258 . S
O211 Nd185 2.492 . S
O211 C195 1.239 . S
O212 Nd185 2.487 . S
O212 C202 1.241 . S
O213 Nd184 2.414 . S
O213 Nd185 2.682 . S
O213 C202 1.273 . S
O214 Nd185 2.410 . S
O214 C203 1.251 . S
O215 Nd184 2.424 . S
O215 C203 1.268 . S
H216 C188 0.930 . S
H217 C189 0.929 . S
H218 C191 0.930 . S
H219 C192 0.929 . S
H220 C197 0.930 . S
H221 C198 0.929 . S
H222 C200 0.930 . S
H223 C201 0.929 . S
Nd224 C226 2.836 1_455 S
Nd224 O244 2.500 1_455 S
Nd224 O245 2.492 . S
Nd224 O246 2.487 . S
Nd224 O247 2.682 . S
Nd224 O248 2.410 . S
Nd224 O253 2.414 1_455 S
Nd224 O255 2.424 . S
Nd225 C235 2.836 . S
Nd225 O247 2.414 1_556 S
Nd225 O249 2.424 . S
Nd225 O250 2.500 . S
Nd225 O251 2.492 . S
Nd225 O252 2.487 1_455 S
Nd225 O253 2.682 1_456 S
Nd225 O254 2.410 1_556 S
C226 Nd224 2.836 1_655 S
C226 C227 1.498 . S
C226 O244 1.258 . S
C226 O245 1.239 1_655 S
C227 C226 1.498 . S
C227 C228 1.366 . S
C227 C232 1.407 . S
C228 C227 1.366 . S
C228 C229 1.392 . S
C228 H256 0.930 . S
C229 C228 1.392 . S
C229 C230 1.398 . S
C229 H257 0.929 . S
C230 C229 1.398 . S
C230 C231 1.352 . S
C231 C230 1.352 . S
C231 C232 1.384 . S
C231 H258 0.930 . S
C232 C227 1.407 . S
C232 C231 1.384 . S
C232 H259 0.929 1_655 S
C233 O246 1.241 . S
C233 O247 1.273 . S
C234 O248 1.251 . S
C234 O249 1.268 1_554 S
C235 Nd225 2.836 . S
C235 C236 1.498 . S
C235 O250 1.258 . S
C235 O251 1.239 . S
C236 C235 1.498 . S
C236 C237 1.366 . S
C236 C241 1.407 . S
C237 C236 1.366 . S
C237 C238 1.392 . S
C237 H260 0.930 . S
C238 C237 1.392 . S
C238 C239 1.398 . S
C238 H261 0.929 . S
C239 C238 1.398 . S
C239 C240 1.352 . S
C240 C239 1.352 . S
C240 C241 1.384 . S
C240 H262 0.930 . S
C241 C236 1.407 . S
C241 C240 1.384 . S
C241 H263 0.929 . S
C242 O252 1.241 . S
C242 O253 1.273 1_556 S
C243 O254 1.251 . S
C243 O255 1.268 . S
O244 Nd224 2.500 1_655 S
O244 C226 1.258 . S
O245 Nd224 2.492 . S
O245 C226 1.239 1_455 S
O246 Nd224 2.487 . S
O246 C233 1.241 . S
O247 Nd224 2.682 . S
O247 Nd225 2.414 1_554 S
O247 C233 1.273 . S
O248 Nd224 2.410 . S
O248 C234 1.251 . S
O249 Nd225 2.424 . S
O249 C234 1.268 1_556 S
O250 Nd225 2.500 . S
O250 C235 1.258 . S
O251 Nd225 2.492 . S
O251 C235 1.239 . S
O252 Nd225 2.487 1_655 S
O252 C242 1.241 . S
O253 Nd224 2.414 1_655 S
O253 Nd225 2.682 1_654 S
O253 C242 1.273 1_554 S
O254 Nd225 2.410 1_554 S
O254 C243 1.251 . S
O255 Nd224 2.424 . S
O255 C243 1.268 . S
H256 C228 0.930 . S
H257 C229 0.929 . S
H258 C231 0.930 . S
H259 C232 0.929 1_455 S
H260 C237 0.930 . S
H261 C238 0.929 . S
H262 C240 0.930 . S
H263 C241 0.929 . S
H264 C272 0.950 . S
H265 C277 0.950 . S
H266 C274 0.950 . S
H267 C276 0.950 . S
H268 C278 0.950 . S
H269 C280 0.950 . S
H270 C282 0.950 . S
H271 C283 0.950 . S
C272 H264 0.950 . S
C272 C273 1.386 . S
C272 C274 1.391 . S
C273 C272 1.386 . S
C273 C277 1.393 . S
C274 H266 0.950 . S
C274 C272 1.391 . S
C274 C275 1.400 . S
C275 C274 1.400 . S
C275 C276 1.398 . S
C275 C281 1.491 . S
C276 H267 0.950 . S
C276 C275 1.398 . S
C276 C277 1.391 . S
C277 H265 0.950 . S
C277 C273 1.393 . S
C277 C276 1.391 . S
C278 H268 0.950 . S
C278 C279 1.386 . S
C278 C280 1.391 . S
C279 C278 1.386 . S
C279 C283 1.393 . S
C280 H269 0.950 . S
C280 C278 1.391 . S
C280 C281 1.400 . S
C281 C275 1.491 . S
C281 C280 1.400 . S
C281 C282 1.398 . S
C282 H270 0.950 . S
C282 C281 1.398 . S
C282 C283 1.391 . S
C283 H271 0.950 . S
C283 C279 1.393 . S
C283 C282 1.391 . S
H284 C292 0.950 . S
H285 C297 0.950 . S
H286 C294 0.950 . S
H287 C296 0.950 . S
H288 C298 0.950 . S
H289 C300 0.950 . S
H290 C302 0.950 . S
H291 C303 0.950 . S
C292 H284 0.950 . S
C292 C293 1.386 . S
C292 C294 1.391 . S
C293 C292 1.386 . S
C293 C297 1.393 . S
C294 H286 0.950 . S
C294 C292 1.391 . S
C294 C295 1.400 . S
C295 C294 1.400 . S
C295 C296 1.398 . S
C295 C301 1.491 . S
C296 H287 0.950 . S
C296 C295 1.398 . S
C296 C297 1.391 . S
C297 H285 0.950 . S
C297 C293 1.393 . S
C297 C296 1.391 . S
C298 H288 0.950 . S
C298 C299 1.386 . S
C298 C300 1.391 . S
C299 C298 1.386 . S
C299 C303 1.393 . S
C300 H289 0.950 . S
C300 C298 1.391 . S
C300 C301 1.400 . S
C301 C295 1.491 . S
C301 C300 1.400 . S
C301 C302 1.398 . S
C302 H290 0.950 . S
C302 C301 1.398 . S
C302 C303 1.391 . S
C303 H291 0.950 . S
C303 C299 1.393 . S
C303 C302 1.391 . S
H304 C312 0.950 . S
H305 C317 0.950 . S
H306 C314 0.950 . S
H307 C316 0.950 . S
H308 C318 0.950 . S
H309 C320 0.950 . S
H310 C322 0.950 . S
H311 C323 0.950 . S
C312 H304 0.950 . S
C312 C313 1.386 . S
C312 C314 1.391 . S
C313 C312 1.386 . S
C313 C317 1.393 . S
C314 H306 0.950 . S
C314 C312 1.391 . S
C314 C315 1.400 . S
C315 C314 1.400 . S
C315 C316 1.398 . S
C315 C321 1.491 . S
C316 H307 0.950 . S
C316 C315 1.398 . S
C316 C317 1.391 . S
C317 H305 0.950 . S
C317 C313 1.393 . S
C317 C316 1.391 . S
C318 H308 0.950 . S
C318 C319 1.386 . S
C318 C320 1.391 . S
C319 C318 1.386 . S
C319 C323 1.393 . S
C320 H309 0.950 . S
C320 C318 1.391 . S
C320 C321 1.400 . S
C321 C315 1.491 . S
C321 C320 1.400 . S
C321 C322 1.398 . S
C322 H310 0.950 . S
C322 C321 1.398 . S
C322 C323 1.391 . S
C323 H311 0.950 . S
C323 C319 1.393 . S
C323 C322 1.391 . S
H324 C332 0.950 . S
H325 C337 0.950 . S
H326 C334 0.950 . S
H327 C336 0.950 . S
H328 C338 0.950 . S
H329 C340 0.950 . S
H330 C342 0.950 . S
H331 C343 0.950 . S
C332 H324 0.950 . S
C332 C333 1.386 . S
C332 C334 1.391 . S
C333 C332 1.386 . S
C333 C337 1.393 . S
C334 H326 0.950 . S
C334 C332 1.391 . S
C334 C335 1.400 . S
C335 C334 1.400 . S
C335 C336 1.398 . S
C335 C341 1.491 . S
C336 H327 0.950 . S
C336 C335 1.398 . S
C336 C337 1.391 . S
C337 H325 0.950 . S
C337 C333 1.393 . S
C337 C336 1.391 . S
C338 H328 0.950 . S
C338 C339 1.386 . S
C338 C340 1.391 . S
C339 C338 1.386 . S
C339 C343 1.393 . S
C340 H329 0.950 . S
C340 C338 1.391 . S
C340 C341 1.400 . S
C341 C335 1.491 . S
C341 C340 1.400 . S
C341 C342 1.398 . S
C342 H330 0.950 . S
C342 C341 1.398 . S
C342 C343 1.391 . S
C343 H331 0.950 . S
C343 C339 1.393 . S
C343 C342 1.391 . S
H344 C352 0.950 . S
H345 C357 0.950 . S
H346 C354 0.950 . S
H347 C356 0.950 . S
H348 C358 0.950 . S
H349 C360 0.950 . S
H350 C362 0.950 . S
H351 C363 0.950 1_556 S
C352 H344 0.950 . S
C352 C353 1.386 . S
C352 C354 1.391 . S
C353 C352 1.386 . S
C353 C357 1.393 . S
C354 H346 0.950 . S
C354 C352 1.391 . S
C354 C355 1.400 . S
C355 C354 1.400 . S
C355 C356 1.398 . S
C355 C361 1.491 . S
C356 H347 0.950 . S
C356 C355 1.398 . S
C356 C357 1.391 . S
C357 H345 0.950 . S
C357 C353 1.393 . S
C357 C356 1.391 . S
C358 H348 0.950 . S
C358 C359 1.386 . S
C358 C360 1.391 . S
C359 C358 1.386 . S
C359 C363 1.393 . S
C360 H349 0.950 . S
C360 C358 1.391 . S
C360 C361 1.400 . S
C361 C355 1.491 . S
C361 C360 1.400 . S
C361 C362 1.398 . S
C362 H350 0.950 . S
C362 C361 1.398 . S
C362 C363 1.391 . S
C363 H351 0.950 1_554 S
C363 C359 1.393 . S
C363 C362 1.391 . S
H364 C372 0.950 . S
H365 C377 0.950 . S
H366 C374 0.950 . S
H367 C376 0.950 . S
H368 C378 0.950 . S
H369 C380 0.950 . S
H370 C382 0.950 . S
H371 C383 0.950 . S
C372 H364 0.950 . S
C372 C373 1.386 . S
C372 C374 1.391 . S
C373 C372 1.386 . S
C373 C377 1.393 . S
C374 H366 0.950 . S
C374 C372 1.391 . S
C374 C375 1.400 . S
C375 C374 1.400 . S
C375 C376 1.398 . S
C375 C381 1.491 . S
C376 H367 0.950 . S
C376 C375 1.398 . S
C376 C377 1.391 . S
C377 H365 0.950 . S
C377 C373 1.393 . S
C377 C376 1.391 . S
C378 H368 0.950 . S
C378 C379 1.386 . S
C378 C380 1.391 . S
C379 C378 1.386 . S
C379 C383 1.393 . S
C380 H369 0.950 . S
C380 C378 1.391 . S
C380 C381 1.400 . S
C381 C375 1.491 . S
C381 C380 1.400 . S
C381 C382 1.398 . S
C382 H370 0.950 . S
C382 C381 1.398 . S
C382 C383 1.391 . S
C383 H371 0.950 . S
C383 C379 1.393 . S
C383 C382 1.391 . S
H384 C392 0.950 . S
H385 C397 0.950 . S
H386 C394 0.950 . S
H387 C396 0.950 . S
H388 C398 0.950 . S
H389 C400 0.950 . S
H390 C402 0.950 . S
H391 C403 0.950 . S
C392 H384 0.950 . S
C392 C393 1.386 . S
C392 C394 1.391 . S
C393 C392 1.386 . S
C393 C397 1.393 . S
C394 H386 0.950 . S
C394 C392 1.391 . S
C394 C395 1.400 . S
C395 C394 1.400 . S
C395 C396 1.398 . S
C395 C401 1.491 . S
C396 H387 0.950 . S
C396 C395 1.398 . S
C396 C397 1.391 . S
C397 H385 0.950 . S
C397 C393 1.393 . S
C397 C396 1.391 . S
C398 H388 0.950 . S
C398 C399 1.386 . S
C398 C400 1.391 . S
C399 C398 1.386 . S
C399 C403 1.393 . S
C400 H389 0.950 . S
C400 C398 1.391 . S
C400 C401 1.400 . S
C401 C395 1.491 . S
C401 C400 1.400 . S
C401 C402 1.398 . S
C402 H390 0.950 . S
C402 C401 1.398 . S
C402 C403 1.391 . S
C403 H391 0.950 . S
C403 C399 1.393 . S
C403 C402 1.391 . S
H404 C412 0.950 . S
H405 C417 0.950 . S
H406 C414 0.950 . S
H407 C416 0.950 . S
H408 C418 0.950 . S
H409 C420 0.950 . S
H410 C422 0.950 . S
H411 C423 0.950 . S
C412 H404 0.950 . S
C412 C413 1.386 . S
C412 C414 1.391 . S
C413 C412 1.386 . S
C413 C417 1.393 . S
C414 H406 0.950 . S
C414 C412 1.391 . S
C414 C415 1.400 . S
C415 C414 1.400 . S
C415 C416 1.398 . S
C415 C421 1.491 . S
C416 H407 0.950 . S
C416 C415 1.398 . S
C416 C417 1.391 . S
C417 H405 0.950 . S
C417 C413 1.393 . S
C417 C416 1.391 . S
C418 H408 0.950 . S
C418 C419 1.386 . S
C418 C420 1.391 . S
C419 C418 1.386 . S
C419 C423 1.393 . S
C420 H409 0.950 . S
C420 C418 1.391 . S
C420 C421 1.400 . S
C421 C415 1.491 . S
C421 C420 1.400 . S
C421 C422 1.398 . S
C422 H410 0.950 . S
C422 C421 1.398 . S
C422 C423 1.391 . S
C423 H411 0.950 . S
C423 C419 1.393 . S
C423 C422 1.391 . S
H424 C432 0.950 . S
H425 C437 0.950 . S
H426 C434 0.950 . S
H427 C436 0.950 . S
H428 C438 0.950 . S
H429 C440 0.950 . S
H430 C442 0.950 . S
H431 C443 0.950 . S
C432 H424 0.950 . S
C432 C433 1.386 . S
C432 C434 1.391 . S
C433 C432 1.386 . S
C433 C437 1.393 . S
C434 H426 0.950 . S
C434 C432 1.391 . S
C434 C435 1.400 . S
C435 C434 1.400 . S
C435 C436 1.398 . S
C435 C441 1.491 . S
C436 H427 0.950 . S
C436 C435 1.398 . S
C436 C437 1.391 . S
C437 H425 0.950 . S
C437 C433 1.393 . S
C437 C436 1.391 . S
C438 H428 0.950 . S
C438 C439 1.386 . S
C438 C440 1.391 . S
C439 C438 1.386 . S
C439 C443 1.393 . S
C440 H429 0.950 . S
C440 C438 1.391 . S
C440 C441 1.400 . S
C441 C435 1.491 . S
C441 C440 1.400 . S
C441 C442 1.398 . S
C442 H430 0.950 . S
C442 C441 1.398 . S
C442 C443 1.391 . S
C443 H431 0.950 . S
C443 C439 1.393 . S
C443 C442 1.391 . S
H444 C452 0.950 . S
H445 C457 0.950 . S
H446 C454 0.950 . S
H447 C456 0.950 . S
H448 C458 0.950 . S
H449 C460 0.950 . S
H450 C462 0.950 . S
H451 C463 0.950 . S
C452 H444 0.950 . S
C452 C453 1.386 . S
C452 C454 1.391 . S
C453 C452 1.386 . S
C453 C457 1.393 . S
C454 H446 0.950 . S
C454 C452 1.391 . S
C454 C455 1.400 . S
C455 C454 1.400 . S
C455 C456 1.398 . S
C455 C461 1.491 . S
C456 H447 0.950 . S
C456 C455 1.398 . S
C456 C457 1.391 . S
C457 H445 0.950 . S
C457 C453 1.393 . S
C457 C456 1.391 . S
C458 H448 0.950 . S
C458 C459 1.386 . S
C458 C460 1.391 . S
C459 C458 1.386 . S
C459 C463 1.393 . S
C460 H449 0.950 . S
C460 C458 1.391 . S
C460 C461 1.400 . S
C461 C455 1.491 . S
C461 C460 1.400 . S
C461 C462 1.398 . S
C462 H450 0.950 . S
C462 C461 1.398 . S
C462 C463 1.391 . S
C463 H451 0.950 . S
C463 C459 1.393 . S
C463 C462 1.391 . S
H464 C472 0.950 . S
H465 C477 0.950 . S
H466 C474 0.950 . S
H467 C476 0.950 . S
H468 C478 0.950 . S
H469 C480 0.950 . S
H470 C482 0.950 . S
H471 C483 0.950 . S
C472 H464 0.950 . S
C472 C473 1.386 . S
C472 C474 1.391 . S
C473 C472 1.386 . S
C473 C477 1.393 . S
C474 H466 0.950 . S
C474 C472 1.391 . S
C474 C475 1.400 . S
C475 C474 1.400 . S
C475 C476 1.398 . S
C475 C481 1.491 . S
C476 H467 0.950 . S
C476 C475 1.398 . S
C476 C477 1.391 . S
C477 H465 0.950 . S
C477 C473 1.393 . S
C477 C476 1.391 . S
C478 H468 0.950 . S
C478 C479 1.386 . S
C478 C480 1.391 . S
C479 C478 1.386 . S
C479 C483 1.393 . S
C480 H469 0.950 . S
C480 C478 1.391 . S
C480 C481 1.400 . S
C481 C475 1.491 . S
C481 C480 1.400 . S
C481 C482 1.398 . S
C482 H470 0.950 . S
C482 C481 1.398 . S
C482 C483 1.391 . S
C483 H471 0.950 . S
C483 C479 1.393 . S
C483 C482 1.391 . S
H484 C492 0.950 . S
H485 C497 0.950 . S
H486 C494 0.950 . S
H487 C496 0.950 . S
H488 C498 0.950 . S
H489 C500 0.950 . S
H490 C502 0.950 . S
H491 C503 0.950 . S
C492 H484 0.950 . S
C492 C493 1.386 . S
C492 C494 1.391 . S
C493 C492 1.386 . S
C493 C497 1.393 . S
C494 H486 0.950 . S
C494 C492 1.391 . S
C494 C495 1.400 . S
C495 C494 1.400 . S
C495 C496 1.398 . S
C495 C501 1.491 . S
C496 H487 0.950 . S
C496 C495 1.398 . S
C496 C497 1.391 . S
C497 H485 0.950 . S
C497 C493 1.393 . S
C497 C496 1.391 . S
C498 H488 0.950 . S
C498 C499 1.386 . S
C498 C500 1.391 . S
C499 C498 1.386 . S
C499 C503 1.393 . S
C500 H489 0.950 . S
C500 C498 1.391 . S
C500 C501 1.400 . S
C501 C495 1.491 . S
C501 C500 1.400 . S
C501 C502 1.398 . S
C502 H490 0.950 . S
C502 C501 1.398 . S
C502 C503 1.391 . S
C503 H491 0.950 . S
C503 C499 1.393 . S
C503 C502 1.391 . S
H504 C512 0.950 . S
H505 C517 0.950 . S
H506 C514 0.950 . S
H507 C516 0.950 . S
H508 C518 0.950 1_545 S
H509 C520 0.950 . S
H510 C522 0.950 . S
H511 C523 0.950 . S
C512 H504 0.950 . S
C512 C513 1.386 . S
C512 C514 1.391 . S
C513 C512 1.386 . S
C513 C517 1.393 . S
C514 H506 0.950 . S
C514 C512 1.391 . S
C514 C515 1.400 . S
C515 C514 1.400 . S
C515 C516 1.398 . S
C515 C521 1.491 . S
C516 H507 0.950 . S
C516 C515 1.398 . S
C516 C517 1.391 . S
C517 H505 0.950 . S
C517 C513 1.393 . S
C517 C516 1.391 . S
C518 H508 0.950 1_565 S
C518 C519 1.386 . S
C518 C520 1.391 . S
C519 C518 1.386 . S
C519 C523 1.393 . S
C520 H509 0.950 . S
C520 C518 1.391 . S
C520 C521 1.400 . S
C521 C515 1.491 . S
C521 C520 1.400 . S
C521 C522 1.398 . S
C522 H510 0.950 . S
C522 C521 1.398 . S
C522 C523 1.391 . S
C523 H511 0.950 . S
C523 C519 1.393 . S
C523 C522 1.391 . S
H524 C532 0.950 . S
H525 C537 0.950 . S
H526 C534 0.950 . S
H527 C536 0.950 . S
H528 C538 0.950 . S
H529 C540 0.950 . S
H530 C542 0.950 . S
H531 C543 0.950 . S
C532 H524 0.950 . S
C532 C533 1.386 . S
C532 C534 1.391 . S
C533 C532 1.386 . S
C533 C537 1.393 . S
C534 H526 0.950 . S
C534 C532 1.391 . S
C534 C535 1.400 . S
C535 C534 1.400 . S
C535 C536 1.398 . S
C535 C541 1.491 . S
C536 H527 0.950 . S
C536 C535 1.398 . S
C536 C537 1.391 . S
C537 H525 0.950 . S
C537 C533 1.393 . S
C537 C536 1.391 . S
C538 H528 0.950 . S
C538 C539 1.386 . S
C538 C540 1.391 . S
C539 C538 1.386 . S
C539 C543 1.393 . S
C540 H529 0.950 . S
C540 C538 1.391 . S
C540 C541 1.400 . S
C541 C535 1.491 . S
C541 C540 1.400 . S
C541 C542 1.398 . S
C542 H530 0.950 . S
C542 C541 1.398 . S
C542 C543 1.391 . S
C543 H531 0.950 . S
C543 C539 1.393 . S
C543 C542 1.391 . S
H544 C552 0.950 . S
H545 C557 0.950 . S
H546 C554 0.950 . S
H547 C556 0.950 . S
H548 C558 0.950 . S
H549 C560 0.950 . S
H550 C562 0.950 . S
H551 C563 0.950 . S
C552 H544 0.950 . S
C552 C553 1.386 . S
C552 C554 1.391 . S
C553 C552 1.386 . S
C553 C557 1.393 . S
C554 H546 0.950 . S
C554 C552 1.391 . S
C554 C555 1.400 . S
C555 C554 1.400 . S
C555 C556 1.398 . S
C555 C561 1.491 . S
C556 H547 0.950 . S
C556 C555 1.398 . S
C556 C557 1.391 . S
C557 H545 0.950 . S
C557 C553 1.393 . S
C557 C556 1.391 . S
C558 H548 0.950 . S
C558 C559 1.386 . S
C558 C560 1.391 . S
C559 C558 1.386 . S
C559 C563 1.393 . S
C560 H549 0.950 . S
C560 C558 1.391 . S
C560 C561 1.400 . S
C561 C555 1.491 . S
C561 C560 1.400 . S
C561 C562 1.398 . S
C562 H550 0.950 . S
C562 C561 1.398 . S
C562 C563 1.391 . S
C563 H551 0.950 . S
C563 C559 1.393 . S
C563 C562 1.391 . S
H564 C572 0.950 . S
H565 C577 0.950 . S
H566 C574 0.950 . S
H567 C576 0.950 . S
H568 C578 0.950 . S
H569 C580 0.950 . S
H570 C582 0.950 . S
H571 C583 0.950 . S
C572 H564 0.950 . S
C572 C573 1.386 . S
C572 C574 1.391 . S
C573 C572 1.386 . S
C573 C577 1.393 . S
C574 H566 0.950 . S
C574 C572 1.391 . S
C574 C575 1.400 . S
C575 C574 1.400 . S
C575 C576 1.398 . S
C575 C581 1.491 . S
C576 H567 0.950 . S
C576 C575 1.398 . S
C576 C577 1.391 . S
C577 H565 0.950 . S
C577 C573 1.393 . S
C577 C576 1.391 . S
C578 H568 0.950 . S
C578 C579 1.386 . S
C578 C580 1.391 . S
C579 C578 1.386 . S
C579 C583 1.393 . S
C580 H569 0.950 . S
C580 C578 1.391 . S
C580 C581 1.400 . S
C581 C575 1.491 . S
C581 C580 1.400 . S
C581 C582 1.398 . S
C582 H570 0.950 . S
C582 C581 1.398 . S
C582 C583 1.391 . S
C583 H571 0.950 . S
C583 C579 1.393 . S
C583 C582 1.391 . S
H584 C592 0.950 . S
H585 C597 0.950 . S
H586 C594 0.950 . S
H587 C596 0.950 . S
H588 C598 0.950 . S
H589 C600 0.950 . S
H590 C602 0.950 1_554 S
H591 C603 0.950 1_554 S
C592 H584 0.950 . S
C592 C593 1.386 . S
C592 C594 1.391 . S
C593 C592 1.386 . S
C593 C597 1.393 . S
C594 H586 0.950 . S
C594 C592 1.391 . S
C594 C595 1.400 . S
C595 C594 1.400 . S
C595 C596 1.398 . S
C595 C601 1.491 . S
C596 H587 0.950 . S
C596 C595 1.398 . S
C596 C597 1.391 . S
C597 H585 0.950 . S
C597 C593 1.393 . S
C597 C596 1.391 . S
C598 H588 0.950 . S
C598 C599 1.386 . S
C598 C600 1.391 . S
C599 C598 1.386 . S
C599 C603 1.393 . S
C600 H589 0.950 . S
C600 C598 1.391 . S
C600 C601 1.400 . S
C601 C595 1.491 . S
C601 C600 1.400 . S
C601 C602 1.398 . S
C602 H590 0.950 1_556 S
C602 C601 1.398 . S
C602 C603 1.391 . S
C603 H591 0.950 1_556 S
C603 C599 1.393 . S
C603 C602 1.391 . S
H604 C612 0.950 . S
H605 C617 0.950 . S
H606 C614 0.950 . S
H607 C616 0.950 . S
H608 C618 0.950 . S
H609 C620 0.950 . S
H610 C622 0.950 . S
H611 C623 0.950 . S
C612 H604 0.950 . S
C612 C613 1.386 . S
C612 C614 1.391 . S
C613 C612 1.386 . S
C613 C617 1.393 . S
C614 H606 0.950 . S
C614 C612 1.391 . S
C614 C615 1.400 . S
C615 C614 1.400 . S
C615 C616 1.398 . S
C615 C621 1.491 . S
C616 H607 0.950 . S
C616 C615 1.398 . S
C616 C617 1.391 . S
C617 H605 0.950 . S
C617 C613 1.393 . S
C617 C616 1.391 . S
C618 H608 0.950 . S
C618 C619 1.386 . S
C618 C620 1.391 . S
C619 C618 1.386 . S
C619 C623 1.393 . S
C620 H609 0.950 . S
C620 C618 1.391 . S
C620 C621 1.400 . S
C621 C615 1.491 . S
C621 C620 1.400 . S
C621 C622 1.398 . S
C622 H610 0.950 . S
C622 C621 1.398 . S
C622 C623 1.391 . S
C623 H611 0.950 . S
C623 C619 1.393 . S
C623 C622 1.391 . S
H624 C632 0.950 . S
H625 C637 0.950 . S
H626 C634 0.950 . S
H627 C636 0.950 . S
H628 C638 0.950 . S
H629 C640 0.950 . S
H630 C642 0.950 . S
H631 C643 0.950 . S
C632 H624 0.950 . S
C632 C633 1.386 . S
C632 C634 1.391 . S
C633 C632 1.386 . S
C633 C637 1.393 . S
C634 H626 0.950 . S
C634 C632 1.391 . S
C634 C635 1.400 . S
C635 C634 1.400 . S
C635 C636 1.398 . S
C635 C641 1.491 . S
C636 H627 0.950 . S
C636 C635 1.398 . S
C636 C637 1.391 . S
C637 H625 0.950 . S
C637 C633 1.393 . S
C637 C636 1.391 . S
C638 H628 0.950 . S
C638 C639 1.386 . S
C638 C640 1.391 . S
C639 C638 1.386 . S
C639 C643 1.393 . S
C640 H629 0.950 . S
C640 C638 1.391 . S
C640 C641 1.400 . S
C641 C635 1.491 . S
C641 C640 1.400 . S
C641 C642 1.398 . S
C642 H630 0.950 . S
C642 C641 1.398 . S
C642 C643 1.391 . S
C643 H631 0.950 . S
C643 C639 1.393 . S
C643 C642 1.391 . S
H644 C652 0.950 . S
H645 C657 0.950 . S
H646 C654 0.950 . S
H647 C656 0.950 . S
H648 C658 0.950 . S
H649 C660 0.950 . S
H650 C662 0.950 . S
H651 C663 0.950 . S
C652 H644 0.950 . S
C652 C653 1.386 . S
C652 C654 1.391 . S
C653 C652 1.386 . S
C653 C657 1.393 . S
C654 H646 0.950 . S
C654 C652 1.391 . S
C654 C655 1.400 . S
C655 C654 1.400 . S
C655 C656 1.398 . S
C655 C661 1.491 . S
C656 H647 0.950 . S
C656 C655 1.398 . S
C656 C657 1.391 . S
C657 H645 0.950 . S
C657 C653 1.393 . S
C657 C656 1.391 . S
C658 H648 0.950 . S
C658 C659 1.386 . S
C658 C660 1.391 . S
C659 C658 1.386 . S
C659 C663 1.393 . S
C660 H649 0.950 . S
C660 C658 1.391 . S
C660 C661 1.400 . S
C661 C655 1.491 . S
C661 C660 1.400 . S
C661 C662 1.398 . S
C662 H650 0.950 . S
C662 C661 1.398 . S
C662 C663 1.391 . S
C663 H651 0.950 . S
C663 C659 1.393 . S
C663 C662 1.391 . S
H664 C672 0.950 . S
H665 C677 0.950 1_554 S
H666 C674 0.950 . S
H667 C676 0.950 1_554 S
H668 C678 0.950 1_455 S
H669 C680 0.950 . S
H670 C682 0.950 . S
H671 C683 0.950 . S
C672 H664 0.950 . S
C672 C673 1.386 . S
C672 C674 1.391 . S
C673 C672 1.386 . S
C673 C677 1.393 . S
C674 H666 0.950 . S
C674 C672 1.391 . S
C674 C675 1.400 . S
C675 C674 1.400 . S
C675 C676 1.398 . S
C675 C681 1.491 . S
C676 H667 0.950 1_556 S
C676 C675 1.398 . S
C676 C677 1.391 . S
C677 H665 0.950 1_556 S
C677 C673 1.393 . S
C677 C676 1.391 . S
C678 H668 0.950 1_655 S
C678 C679 1.386 1_554 S
C678 C680 1.391 . S
C679 C678 1.386 1_556 S
C679 C683 1.393 . S
C680 H669 0.950 . S
C680 C678 1.391 . S
C680 C681 1.400 1_554 S
C681 C675 1.491 . S
C681 C680 1.400 1_556 S
C681 C682 1.398 . S
C682 H670 0.950 . S
C682 C681 1.398 . S
C682 C683 1.391 . S
C683 H671 0.950 . S
C683 C679 1.393 . S
C683 C682 1.391 . S
H684 C692 0.950 . S
H685 C697 0.950 . S
H686 C694 0.950 . S
H687 C696 0.950 . S
H688 C698 0.950 . S
H689 C700 0.950 . S
H690 C702 0.950 . S
H691 C703 0.950 . S
C692 H684 0.950 . S
C692 C693 1.386 . S
C692 C694 1.391 . S
C693 C692 1.386 . S
C693 C697 1.393 . S
C694 H686 0.950 . S
C694 C692 1.391 . S
C694 C695 1.400 . S
C695 C694 1.400 . S
C695 C696 1.398 . S
C695 C701 1.491 . S
C696 H687 0.950 . S
C696 C695 1.398 . S
C696 C697 1.391 . S
C697 H685 0.950 . S
C697 C693 1.393 . S
C697 C696 1.391 . S
C698 H688 0.950 . S
C698 C699 1.386 . S
C698 C700 1.391 . S
C699 C698 1.386 . S
C699 C703 1.393 . S
C700 H689 0.950 . S
C700 C698 1.391 . S
C700 C701 1.400 . S
C701 C695 1.491 . S
C701 C700 1.400 . S
C701 C702 1.398 . S
C702 H690 0.950 . S
C702 C701 1.398 . S
C702 C703 1.391 . S
C703 H691 0.950 . S
C703 C699 1.393 . S
C703 C702 1.391 . S
H704 C712 0.950 . S
H705 C717 0.950 . S
H706 C714 0.950 . S
H707 C716 0.950 . S
H708 C718 0.950 . S
H709 C720 0.950 . S
H710 C722 0.950 . S
H711 C723 0.950 . S
C712 H704 0.950 . S
C712 C713 1.386 . S
C712 C714 1.391 . S
C713 C712 1.386 . S
C713 C717 1.393 . S
C714 H706 0.950 . S
C714 C712 1.391 . S
C714 C715 1.400 . S
C715 C714 1.400 . S
C715 C716 1.398 . S
C715 C721 1.491 . S
C716 H707 0.950 . S
C716 C715 1.398 . S
C716 C717 1.391 . S
C717 H705 0.950 . S
C717 C713 1.393 . S
C717 C716 1.391 . S
C718 H708 0.950 . S
C718 C719 1.386 . S
C718 C720 1.391 . S
C719 C718 1.386 . S
C719 C723 1.393 . S
C720 H709 0.950 . S
C720 C718 1.391 . S
C720 C721 1.400 . S
C721 C715 1.491 . S
C721 C720 1.400 . S
C721 C722 1.398 . S
C722 H710 0.950 . S
C722 C721 1.398 . S
C722 C723 1.391 . S
C723 H711 0.950 . S
C723 C719 1.393 . S
C723 C722 1.391 . S
H724 C732 0.950 . S
H725 C737 0.950 . S
H726 C734 0.950 . S
H727 C736 0.950 . S
H728 C738 0.950 . S
H729 C740 0.950 . S
H730 C742 0.950 . S
H731 C743 0.950 . S
C732 H724 0.950 . S
C732 C733 1.386 . S
C732 C734 1.391 . S
C733 C732 1.386 . S
C733 C737 1.393 . S
C734 H726 0.950 . S
C734 C732 1.391 . S
C734 C735 1.400 . S
C735 C734 1.400 . S
C735 C736 1.398 . S
C735 C741 1.491 . S
C736 H727 0.950 . S
C736 C735 1.398 . S
C736 C737 1.391 . S
C737 H725 0.950 . S
C737 C733 1.393 . S
C737 C736 1.391 . S
C738 H728 0.950 . S
C738 C739 1.386 . S
C738 C740 1.391 . S
C739 C738 1.386 . S
C739 C743 1.393 . S
C740 H729 0.950 . S
C740 C738 1.391 . S
C740 C741 1.400 . S
C741 C735 1.491 . S
C741 C740 1.400 . S
C741 C742 1.398 . S
C742 H730 0.950 . S
C742 C741 1.398 . S
C742 C743 1.391 . S
C743 H731 0.950 . S
C743 C739 1.393 . S
C743 C742 1.391 . S
C273 C9 3.323 . S
C279 C123 3.292 . S
C293 C21 2.023 . S
C299 C154 2.091 . S
C319 C193 0.887 . S
C313 C30 0.911 . S
C333 C43 0.568 . S
C339 C230 0.423 . S
C359 C153 2.708 . S
C353 C4 2.780 . S
C379 C110 1.791 . S
C373 C22 1.791 . S
C399 C242 1.003 . S
C393 C34 1.022 . S
C419 C199 0.886 . S
C413 C48 0.893 . S
C433 C8 2.333 . S
C439 C243 2.326 . S
C459 C159 1.452 . S
C453 C35 1.457 . S
C473 C47 0.473 . S
C479 C122 0.496 . S
C493 C17 1.969 . S
C499 C194 2.139 . S
C519 C114 2.805 1_655 S
C513 C60 2.823 . S
C533 C74 2.379 . S
C539 C163 2.461 . S
C553 C82 0.780 . S
C559 C202 0.766 . S
C573 C100 0.736 . S
C579 C239 0.751 . S
C593 C61 3.233 . S
C599 C162 3.169 . S
C619 C119 1.399 . S
C613 C73 1.372 . S
C639 C233 1.500 . S
C633 C87 1.526 . S
C659 C190 0.790 . S
C653 C95 0.797 . S
C673 C56 2.444 . S
C679 C234 2.488 1_656 S
C699 C150 1.419 . S
C693 C86 1.415 . S
C719 C113 0.508 . S
C713 C99 0.413 . S
C733 C69 2.095 . S
C739 C203 2.191 . S
