# Generated by pormake.
# Topology zzz, (3,6)-cn, num edge types: 1
# Building blocks:
#     Node 0, Type 0, BuildingBlock: BETDIP_clean_linker_0, # of connection points: 3
#     Node 1, Type 0, BuildingBlock: BETDIP_clean_linker_0, # of connection points: 3
#     Node 2, Type 0, BuildingBlock: BETDIP_clean_linker_0, # of connection points: 3
#     Node 3, Type 0, BuildingBlock: BETDIP_clean_linker_0, # of connection points: 3
#     Node 4, Type 0, BuildingBlock: BETDIP_clean_linker_0, # of connection points: 3
#     Node 5, Type 0, BuildingBlock: BETDIP_clean_linker_0, # of connection points: 3
#     Node 6, Type 0, BuildingBlock: BETDIP_clean_linker_0, # of connection points: 3
#     Node 7, Type 0, BuildingBlock: BETDIP_clean_linker_0, # of connection points: 3
#     Node 8, Type 1, BuildingBlock: BETGAK_clean_sbu_0, # of connection points: 6
#     Node 9, Type 1, BuildingBlock: BETGAK_clean_sbu_0, # of connection points: 6
#     Node 10, Type 1, BuildingBlock: BETGAK_clean_sbu_0, # of connection points: 6
#     Node 11, Type 1, BuildingBlock: BETGAK_clean_sbu_0, # of connection points: 6
#     Edge 12, Type (0, 1), BuildingBlock: MIFKUJ_clean_linker_0, # of connection points: 2
#     Edge 13, Type (0, 1), BuildingBlock: MIFKUJ_clean_linker_0, # of connection points: 2
#     Edge 14, Type (0, 1), BuildingBlock: MIFKUJ_clean_linker_0, # of connection points: 2
#     Edge 15, Type (0, 1), BuildingBlock: MIFKUJ_clean_linker_0, # of connection points: 2
#     Edge 16, Type (0, 1), BuildingBlock: MIFKUJ_clean_linker_0, # of connection points: 2
#     Edge 17, Type (0, 1), BuildingBlock: MIFKUJ_clean_linker_0, # of connection points: 2
#     Edge 18, Type (0, 1), BuildingBlock: MIFKUJ_clean_linker_0, # of connection points: 2
#     Edge 19, Type (0, 1), BuildingBlock: MIFKUJ_clean_linker_0, # of connection points: 2
#     Edge 20, Type (0, 1), BuildingBlock: MIFKUJ_clean_linker_0, # of connection points: 2
#     Edge 21, Type (0, 1), BuildingBlock: MIFKUJ_clean_linker_0, # of connection points: 2
#     Edge 22, Type (0, 1), BuildingBlock: MIFKUJ_clean_linker_0, # of connection points: 2
#     Edge 23, Type (0, 1), BuildingBlock: MIFKUJ_clean_linker_0, # of connection points: 2
#     Edge 24, Type (0, 1), BuildingBlock: MIFKUJ_clean_linker_0, # of connection points: 2
#     Edge 25, Type (0, 1), BuildingBlock: MIFKUJ_clean_linker_0, # of connection points: 2
#     Edge 26, Type (0, 1), BuildingBlock: MIFKUJ_clean_linker_0, # of connection points: 2
#     Edge 27, Type (0, 1), BuildingBlock: MIFKUJ_clean_linker_0, # of connection points: 2
#     Edge 28, Type (0, 1), BuildingBlock: MIFKUJ_clean_linker_0, # of connection points: 2
#     Edge 29, Type (0, 1), BuildingBlock: MIFKUJ_clean_linker_0, # of connection points: 2
#     Edge 30, Type (0, 1), BuildingBlock: MIFKUJ_clean_linker_0, # of connection points: 2
#     Edge 31, Type (0, 1), BuildingBlock: MIFKUJ_clean_linker_0, # of connection points: 2
#     Edge 32, Type (0, 1), BuildingBlock: MIFKUJ_clean_linker_0, # of connection points: 2
#     Edge 33, Type (0, 1), BuildingBlock: MIFKUJ_clean_linker_0, # of connection points: 2
#     Edge 34, Type (0, 1), BuildingBlock: MIFKUJ_clean_linker_0, # of connection points: 2
#     Edge 35, Type (0, 1), BuildingBlock: MIFKUJ_clean_linker_0, # of connection points: 2
# Relax obj value: 0.232
# Max RMSD: 0.177
# Mean RMSD: 0.158
data_MOF--net-zzz--node1-BETGAK_clean_sbu_0--node2-BETDIP_clean_linker_0--edge1-MIFKUJ_clean_linker_0
_symmetry_space_group_name_H-M    P1
_symmetry_Int_Tables_number       1
_symmetry_cell_setting            triclinic
loop_
_symmetry_equiv_pos_as_xyz
'x, y, z'
_cell_length_a     68.069752
_cell_length_b     68.061218
_cell_length_c     17.262804
_cell_angle_alpha  89.8599
_cell_angle_beta   90.21993
_cell_angle_gamma 90.373144
loop_
_atom_site_label
_atom_site_type_symbol
_atom_site_fract_x
_atom_site_fract_y
_atom_site_fract_z
_atom_type_partial_charge
H0 H 0.75223 0.51989 0.40309 0.0
H1 H 0.73719 0.5319 0.16502 0.0
H2 H 0.79777 0.53153 0.23697 0.0
H3 H 0.71144 0.55267 0.28265 0.0
C4 C 0.7078 0.53717 0.27653 0.0
C5 C 0.75669 0.52346 0.34453 0.0
C6 C 0.77681 0.52609 0.32711 0.0
C7 C 0.74231 0.52593 0.28589 0.0
C8 C 0.74821 0.53041 0.2101 0.0
C9 C 0.76814 0.53232 0.19162 0.0
C10 C 0.78227 0.53034 0.25068 0.0
N11 N 0.72195 0.5231 0.30124 0.0
H12 H 1.00709 0.76008 0.38769 0.0
H13 H 0.03117 0.74498 0.16458 0.0
H14 H 0.04469 0.80075 0.26462 0.0
H15 H 0.99097 0.73571 0.17314 0.0
C16 C 0.99803 0.72474 0.20954 0.0
C17 C 0.01619 0.76378 0.33841 0.0
C18 C 0.02599 0.7823 0.33533 0.0
C19 C 0.01801 0.7502 0.27632 0.0
C20 C 0.02969 0.75518 0.21233 0.0
C21 C 0.03956 0.77313 0.20961 0.0
C22 C 0.03761 0.78652 0.27019 0.0
N23 N 1.0083 0.73152 0.27687 0.0
H24 H 0.76563 1.01014 0.41162 0.0
H25 H 0.78149 0.99308 0.17983 0.0
H26 H 0.72084 0.99743 0.24092 0.0
H27 H 0.80374 0.97272 0.28337 0.0
C28 C 0.80956 0.98759 0.28801 0.0
C29 C 0.76133 1.00567 0.35381 0.0
C30 C 0.74109 1.0044 0.33356 0.0
C31 C 0.77601 1.00115 0.29844 0.0
C32 C 0.77036 0.99592 0.22302 0.0
C33 C 0.75059 0.99469 0.20208 0.0
C34 C 0.73616 0.99853 0.25772 0.0
N35 N 0.79651 1.00228 0.31636 0.0
H36 H 0.5207 0.77933 0.44187 0.0
H37 H 0.51966 0.79336 0.19772 0.0
H38 H 0.51457 0.73343 0.27189 0.0
H39 H 0.55084 0.81169 0.27487 0.0
C40 C 0.53789 0.81982 0.29246 0.0
C41 C 0.51927 0.77475 0.38208 0.0
C42 C 0.51726 0.75451 0.36387 0.0
C43 C 0.52022 0.78891 0.32156 0.0
C44 C 0.51878 0.78268 0.24431 0.0
C45 C 0.517 0.7628 0.22651 0.0
C46 C 0.51597 0.74891 0.28617 0.0
N47 N 0.52349 0.80931 0.33642 0.0
H48 H 0.26931 0.50415 0.0101 0.0
H49 H 0.28328 0.5303 0.23143 0.0
H50 H 0.22364 0.52886 0.15052 0.0
H51 H 0.31175 0.54143 0.12045 0.0
C52 C 0.31431 0.52586 0.13034 0.0
C53 C 0.26473 0.51179 0.06186 0.0
C54 C 0.24464 0.51608 0.07325 0.0
C55 C 0.27887 0.51735 0.11843 0.0
C56 C 0.27269 0.5268 0.1864 0.0
C57 C 0.25277 0.53044 0.19891 0.0
C58 C 0.23904 0.52555 0.14143 0.0
N59 N 0.29905 0.5123 0.11038 0.0
H60 H 1.01491 0.2783 0.96105 0.0
H61 H 0.02897 0.29434 0.19687 0.0
H62 H 0.04066 0.23604 0.11669 0.0
H63 H 0.98881 0.30955 0.13383 0.0
C64 C 1.00183 0.31773 0.11647 0.0
C65 C 0.02094 0.27453 0.01725 0.0
C66 C 0.02792 0.25524 0.03134 0.0
C67 C 0.02149 0.28882 0.07722 0.0
C68 C 0.0288 0.28364 0.15044 0.0
C69 C 0.03616 0.26487 0.16382 0.0
C70 C 0.03578 0.25089 0.10442 0.0
N71 N 1.01523 0.30852 0.06474 0.0
H72 H 0.25399 0.02048 0.03586 0.0
H73 H 0.23041 0.98948 0.23308 0.0
H74 H 0.28987 0.97991 0.16469 0.0
H75 H 0.20232 0.99119 0.10087 0.0
C76 C 0.20337 1.00529 0.13014 0.0
C77 C 0.25582 1.0098 0.08186 0.0
C78 C 0.27392 0.99974 0.09062 0.0
C79 C 0.23983 1.0056 0.13208 0.0
C80 C 0.24228 0.99203 0.19251 0.0
C81 C 0.26027 0.98273 0.20414 0.0
C82 C 0.27572 0.98645 0.15265 0.0
N83 N 0.2216 1.01573 0.12596 0.0
H84 H 0.50694 0.25978 0.01573 0.0
H85 H 0.51218 0.2475 0.25981 0.0
H86 H 0.51933 0.30663 0.17595 0.0
H87 H 0.53642 0.22057 0.14323 0.0
C88 C 0.52096 0.21689 0.15022 0.0
C89 C 0.50947 0.26488 0.07433 0.0
C90 C 0.51334 0.28503 0.08839 0.0
C91 C 0.50978 0.25123 0.13646 0.0
C92 C 0.51275 0.25793 0.21232 0.0
C93 C 0.51558 0.27793 0.22739 0.0
C94 C 0.51641 0.2912 0.16496 0.0
N95 N 0.50674 0.23076 0.12431 0.0
La96 La 0.02292 1.00984 0.80262 0.0
La97 La 1.00042 0.01843 0.66697 0.0
C98 C 0.03577 0.9935 0.92243 0.0
C99 C 0.04614 0.97461 0.92818 0.0
C100 C 0.06368 0.97147 0.88707 0.0
C101 C 0.07136 0.95259 0.88038 0.0
C102 C 0.06153 0.93654 0.91379 0.0
C103 C 0.0445 0.93978 0.95759 0.0
C104 C 0.03693 0.95867 0.96502 0.0
C105 C 0.04534 0.02041 0.68402 0.0
C106 C 1.01091 0.97442 0.6859 0.0
C107 C 0.98887 0.03426 0.54401 0.0
C108 C 0.99581 0.05303 0.51239 0.0
C109 C 0.98238 0.06668 0.4831 0.0
C110 C 0.98853 0.08585 0.46663 0.0
C111 C 1.00817 0.09156 0.47971 0.0
C112 C 0.02168 0.07764 0.50666 0.0
C113 C 1.01557 0.05856 0.52277 0.0
C114 C 0.97836 1.00766 0.7863 0.0
C115 C 1.01419 0.05344 0.7779 0.0
O116 O 0.04508 1.00778 0.88706 0.0
O117 O 0.01742 0.99211 0.89987 0.0
O118 O 0.04877 0.0249 0.75559 0.0
O119 O 0.03026 1.00953 0.68143 0.0
O120 O 0.01884 0.97994 0.75284 0.0
O121 O 1.00313 0.98753 0.63882 0.0
O122 O 0.97941 0.03569 0.60945 0.0
O123 O 1.00193 0.02026 0.54589 0.0
O124 O 0.97519 1.00257 0.7151 0.0
O125 O 0.99314 0.01896 0.78831 0.0
O126 O 1.01129 0.04768 0.70544 0.0
O127 O 1.01611 0.04008 0.83286 0.0
H128 H 0.07106 0.98341 0.85725 0.0
H129 H 0.08453 0.95043 0.8465 0.0
H130 H 0.03686 0.92764 0.98516 0.0
H131 H 0.02337 0.9607 0.99664 0.0
H132 H 0.96704 0.06272 0.47577 0.0
H133 H 0.97789 0.09628 0.44489 0.0
H134 H 0.03682 0.08167 0.51833 0.0
H135 H 0.02617 0.0484 0.54684 0.0
La136 La 0.51611 0.03145 0.80134 0.0
La137 La 0.505 1.00959 0.66527 0.0
C138 C 0.53477 0.04263 0.91871 0.0
C139 C 0.55567 0.03873 0.93516 0.0
C140 C 0.56959 0.05389 0.92643 0.0
C141 C 0.58952 0.04949 0.91919 0.0
C142 C 0.59583 0.02987 0.92102 0.0
C143 C 0.58205 1.01491 0.93616 0.0
C144 C 0.56221 0.01928 0.94334 0.0
C145 C 0.50539 0.05396 0.68346 0.0
C146 C 0.54917 0.0172 0.68233 0.0
C147 C 0.48686 0.99767 0.54739 0.0
C148 C 0.46627 0.9909 0.53949 0.0
C149 C 0.46017 0.97254 0.56904 0.0
C150 C 0.44023 0.96756 0.57135 0.0
C151 C 0.42608 0.98088 0.54475 0.0
C152 C 0.43219 0.99887 0.51268 0.0
C153 C 0.45209 1.00377 0.50958 0.0
C154 C 0.51566 0.98694 0.78311 0.0
C155 C 0.47155 0.02321 0.78665 0.0
O156 O 0.53161 0.05392 0.85864 0.0
O157 O 0.52303 0.02731 0.91884 0.0
O158 O 0.50089 0.05722 0.75516 0.0
O159 O 0.51589 0.03876 0.68014 0.0
O160 O 0.54451 0.0203 0.75583 0.0
O161 O 0.53511 1.01546 0.62993 0.0
O162 O 0.4986 0.98654 0.5883 0.0
O163 O 0.48913 0.01628 0.56436 0.0
O164 O 0.51978 0.98353 0.71123 0.0
O165 O 0.50528 1.0022 0.78648 0.0
O166 O 0.47605 0.0165 0.71685 0.0
O167 O 0.48549 0.02888 0.83521 0.0
H168 H 0.56494 0.069 0.92005 0.0
H169 H 0.59988 0.06138 0.90954 0.0
H170 H 0.58637 0.99963 0.93748 0.0
H171 H 0.55192 1.00718 0.94981 0.0
H172 H 0.47071 0.96225 0.59257 0.0
H173 H 0.43583 0.95357 0.59613 0.0
H174 H 0.42154 1.00923 0.49041 0.0
H175 H 0.45634 0.01795 0.48609 0.0
La176 La 0.50319 0.52179 0.7564 0.0
La177 La 0.52462 0.50882 0.60734 0.0
C178 C 0.49359 0.54182 0.87141 0.0
C179 C 0.49622 0.56323 0.88251 0.0
C180 C 0.47991 0.5757 0.87656 0.0
C181 C 0.48251 0.59605 0.87124 0.0
C182 C 0.50147 0.60435 0.87218 0.0
C183 C 0.51772 0.59194 0.88201 0.0
C184 C 0.51512 0.57163 0.88728 0.0
C185 C 0.48066 0.50916 0.64162 0.0
C186 C 0.51725 0.55383 0.62813 0.0
C187 C 0.53153 0.4919 0.48266 0.0
C188 C 0.54234 0.47343 0.47412 0.0
C189 C 0.55742 0.46889 0.52705 0.0
C190 C 0.5636 0.44956 0.53668 0.0
C191 C 0.55499 0.4345 0.49285 0.0
C192 C 0.54112 0.43927 0.4352 0.0
C193 C 0.53476 0.45862 0.4262 0.0
C194 C 0.55017 0.51344 0.72435 0.0
C195 C 0.51323 0.4773 0.74081 0.0
O196 O 0.48125 0.53693 0.81624 0.0
O197 O 0.50961 0.53119 0.86958 0.0
O198 O 0.47711 0.50604 0.71457 0.0
O199 O 0.49602 0.51956 0.63564 0.0
O200 O 0.51174 0.54977 0.70028 0.0
O201 O 0.52154 0.53982 0.57795 0.0
O202 O 0.54181 0.50713 0.5069 0.0
O203 O 0.51485 0.48982 0.51992 0.0
O204 O 0.55491 0.50798 0.6553 0.0
O205 O 0.53198 0.51611 0.72237 0.0
O206 O 0.51728 0.48094 0.66676 0.0
O207 O 0.50912 0.49155 0.79049 0.0
H208 H 0.46518 0.56965 0.87285 0.0
H209 H 0.46967 0.60526 0.86556 0.0
H210 H 0.53253 0.59785 0.88262 0.0
H211 H 0.52803 0.56253 0.89186 0.0
H212 H 0.56351 0.47998 0.56499 0.0
H213 H 0.57439 0.44625 0.58105 0.0
H214 H 0.53412 0.42783 0.40115 0.0
H215 H 0.5229 0.46174 0.38602 0.0
La216 La 1.00654 0.50472 0.7519 0.0
La217 La 0.01698 0.52897 0.62429 0.0
C218 C 0.98792 0.49065 0.86443 0.0
C219 C 0.96702 0.49384 0.88224 0.0
C220 C 0.95363 0.47813 0.87667 0.0
C221 C 0.93344 0.4817 0.87319 0.0
C222 C 0.92631 0.50105 0.87538 0.0
C223 C 0.93971 0.51659 0.88662 0.0
C224 C 0.95981 0.51304 0.88992 0.0
C225 C 0.01802 0.48435 0.62938 0.0
C226 C 0.97327 0.51963 0.63569 0.0
C227 C 0.03478 0.54433 0.51225 0.0
C228 C 0.05404 0.55419 0.51165 0.0
C229 C 0.06071 0.56463 0.57697 0.0
C230 C 0.08001 0.57172 0.58047 0.0
C231 C 0.09304 0.5683 0.51909 0.0
C232 C 0.08611 0.55808 0.45334 0.0
C233 C 0.06679 0.55117 0.44963 0.0
C234 C 1.00557 0.54964 0.74615 0.0
C235 C 0.05075 0.51418 0.74298 0.0
O236 O 0.99105 0.48094 0.80053 0.0
O237 O 0.9995 0.506 0.87014 0.0
O238 O 0.0228 0.48039 0.70039 0.0
O239 O 1.00699 0.4992 0.62898 0.0
O240 O 0.97802 0.51604 0.70877 0.0
O241 O 0.98736 0.52217 0.58437 0.0
O242 O 0.02089 0.55322 0.55046 0.0
O243 O 0.03536 0.52554 0.52791 0.0
O244 O 1.00123 0.55364 0.6749 0.0
O245 O 0.01646 0.53467 0.74721 0.0
O246 O 0.04612 0.52243 0.67579 0.0
O247 O 0.03696 0.50693 0.78835 0.0
H248 H 0.95882 0.4632 0.87054 0.0
H249 H 0.92347 0.46934 0.86671 0.0
H250 H 0.93484 0.5317 0.88784 0.0
H251 H 0.96969 0.52556 0.89347 0.0
H252 H 0.05119 0.56682 0.62633 0.0
H253 H 0.08477 0.5796 0.63168 0.0
H254 H 0.09581 0.55469 0.40573 0.0
H255 H 0.06202 0.5428 0.39955 0.0
H256 H 0.20276 0.03226 0.25062 0.0
H257 H 0.17564 0.03807 0.34162 0.0
H258 H 0.13944 0.99661 0.21667 0.0
H259 H 0.16642 0.99069 0.12664 0.0
H260 H 0.11821 0.02916 0.2601 0.0
H261 H 0.16259 0.98282 0.37856 0.0
H262 H 0.19483 0.97167 0.42649 0.0
H263 H 0.19704 0.01991 0.58622 0.0
H264 H 0.16494 0.03154 0.53827 0.0
H265 H 0.04501 1.00369 0.53908 0.0
H266 H 0.07144 1.0041 0.44275 0.0
H267 H 0.10662 0.04065 0.59354 0.0
H268 H 0.08043 0.03994 0.69023 0.0
H269 H 0.12887 1.01301 0.53734 0.0
H270 H 0.08386 0.05856 0.42643 0.0
H271 H 0.0518 0.07027 0.379 0.0
H272 H 0.05085 0.02505 0.20612 0.0
H273 H 0.08278 1.01282 0.2533 0.0
C274 C 0.18891 0.02464 0.24194 0.0
C275 C 0.18671 1.01104 0.18121 0.0
C276 C 0.17343 0.02788 0.29425 0.0
C277 C 0.15542 0.01769 0.28655 0.0
C278 C 0.15307 1.0047 0.22407 0.0
C279 C 0.16855 1.00131 0.17261 0.0
C280 C 0.13933 0.01965 0.34517 0.0
C281 C 0.12051 0.0255 0.32063 0.0
C282 C 0.1423 1.01529 0.42466 0.0
C283 C 0.16148 1.00818 0.45419 0.0
C284 C 0.17002 0.99114 0.42348 0.0
C285 C 0.18826 0.98472 0.45069 0.0
C286 C 0.19801 0.99511 0.50918 0.0
C287 C 0.1895 1.0119 0.54078 0.0
C288 C 0.17128 0.01841 0.51362 0.0
C289 C 0.05833 1.01193 0.55136 0.0
C290 C 0.06061 0.02175 0.62246 0.0
C291 C 0.07345 1.01222 0.49607 0.0
C292 C 0.09115 0.02252 0.51017 0.0
C293 C 0.09326 0.03253 0.58091 0.0
C294 C 0.07819 0.03219 0.63616 0.0
C295 C 0.10763 0.02246 0.4524 0.0
C296 C 0.12653 0.01688 0.47703 0.0
C297 C 0.10475 0.02721 0.37309 0.0
C298 C 0.08565 0.03465 0.34391 0.0
C299 C 0.07676 0.05101 0.37865 0.0
C300 C 0.05861 0.05775 0.3518 0.0
C301 C 0.04926 0.04838 0.28977 0.0
C302 C 0.05809 0.03228 0.25426 0.0
C303 C 0.07623 0.02544 0.281 0.0
H304 H 0.03521 0.05363 0.26911 0.0
H305 H 0.21213 0.99013 0.53015 0.0
H306 H 0.48731 0.20823 0.23339 0.0
H307 H 0.48175 0.17963 0.31842 0.0
H308 H 0.53784 0.15611 0.25196 0.0
H309 H 0.54365 0.18481 0.16898 0.0
H310 H 0.50586 0.12733 0.25804 0.0
H311 H 0.53658 0.1787 0.41156 0.0
H312 H 0.5387 0.21222 0.46502 0.0
H313 H 0.48293 0.20413 0.57647 0.0
H314 H 0.48033 0.17066 0.52248 0.0
H315 H 0.52686 0.05664 0.54971 0.0
H316 H 0.5269 0.08336 0.45462 0.0
H317 H 0.48101 0.11241 0.58175 0.0
H318 H 0.48172 0.08614 0.67893 0.0
H319 H 0.50509 0.13871 0.5417 0.0
H320 H 0.47409 0.08738 0.39842 0.0
H321 H 0.46992 0.05429 0.34267 0.0
H322 H 0.52258 0.0622 0.20969 0.0
H323 H 0.52725 0.09523 0.26561 0.0
C324 C 0.49828 0.19679 0.23596 0.0
C325 C 0.51589 0.19869 0.19414 0.0
C326 C 0.49514 0.1805 0.28484 0.0
C327 C 0.50939 0.16568 0.29173 0.0
C328 C 0.52659 0.16725 0.24749 0.0
C329 C 0.5299 0.18367 0.2001 0.0
C330 C 0.50706 0.14909 0.348 0.0
C331 C 0.5058 0.12976 0.32012 0.0
C332 C 0.50647 0.15226 0.42895 0.0
C333 C 0.50815 0.17227 0.46221 0.0
C334 C 0.52469 0.18414 0.44689 0.0
C335 C 0.52599 0.20312 0.47737 0.0
C336 C 0.51093 0.21033 0.52391 0.0
C337 C 0.49457 0.19854 0.54027 0.0
C338 C 0.49317 0.17957 0.50976 0.0
C339 C 0.51666 0.06865 0.55695 0.0
C340 C 0.50425 0.06924 0.62181 0.0
C341 C 0.51659 0.08394 0.50217 0.0
C342 C 0.50373 0.09998 0.50964 0.0
C343 C 0.49112 0.10035 0.57408 0.0
C344 C 0.49145 0.08524 0.62957 0.0
C345 C 0.50391 0.11664 0.45219 0.0
C346 C 0.50488 0.13609 0.47975 0.0
C347 C 0.50389 0.11356 0.3708 0.0
C348 C 0.50111 0.09373 0.33677 0.0
C349 C 0.48486 0.08201 0.35771 0.0
C350 C 0.4824 0.06327 0.32603 0.0
C351 C 0.496 0.05613 0.27279 0.0
C352 C 0.51207 0.06774 0.25101 0.0
C353 C 0.51462 0.08648 0.28264 0.0
H354 H 0.49407 0.04162 0.24831 0.0
H355 H 0.51196 0.22503 0.54745 0.0
H356 H 0.32235 0.49184 0.21251 0.0
H357 H 0.35169 0.48519 0.29202 0.0
H358 H 0.37696 0.54054 0.22051 0.0
H359 H 0.34763 0.54738 0.14269 0.0
H360 H 0.4045 0.50883 0.22282 0.0
H361 H 0.3552 0.53875 0.38652 0.0
H362 H 0.32242 0.54069 0.44621 0.0
H363 H 0.33073 0.48414 0.55177 0.0
H364 H 0.36347 0.48174 0.49166 0.0
H365 H 0.47763 0.52969 0.50558 0.0
H366 H 0.45046 0.52908 0.41263 0.0
H367 H 0.42226 0.48297 0.54458 0.0
H368 H 0.44894 0.48447 0.64006 0.0
H369 H 0.39589 0.50655 0.50784 0.0
H370 H 0.44573 0.47667 0.35617 0.0
H371 H 0.47833 0.4732 0.29611 0.0
H372 H 0.46926 0.52626 0.16617 0.0
H373 H 0.43672 0.53024 0.22637 0.0
C374 C 0.33431 0.50241 0.2128 0.0
C375 C 0.33273 0.52012 0.17112 0.0
C376 C 0.35104 0.49864 0.25851 0.0
C377 C 0.36657 0.51239 0.26249 0.0
C378 C 0.36527 0.52967 0.21827 0.0
C379 C 0.34848 0.53357 0.17387 0.0
C380 C 0.38365 0.50952 0.316 0.0
C381 C 0.40268 0.50841 0.2852 0.0
C382 C 0.38128 0.50844 0.39732 0.0
C383 C 0.36167 0.50996 0.43385 0.0
C384 C 0.34996 0.52665 0.4219 0.0
C385 C 0.3314 0.52785 0.4559 0.0
C386 C 0.32447 0.51252 0.50255 0.0
C387 C 0.3361 0.49599 0.51548 0.0
C388 C 0.35466 0.4947 0.48148 0.0
C389 C 0.46575 0.51926 0.51418 0.0
C390 C 0.46545 0.50709 0.5801 0.0
C391 C 0.45019 0.51881 0.4606 0.0
C392 C 0.43422 0.50576 0.47022 0.0
C393 C 0.43426 0.49324 0.5353 0.0
C394 C 0.4496 0.494 0.58977 0.0
C395 C 0.41705 0.50589 0.4151 0.0
C396 C 0.3979 0.50662 0.44554 0.0
C397 C 0.41934 0.50627 0.33332 0.0
C398 C 0.43883 0.50383 0.29631 0.0
C399 C 0.45073 0.48767 0.31514 0.0
C400 C 0.4692 0.48561 0.28104 0.0
C401 C 0.47588 0.49952 0.22747 0.0
C402 C 0.46407 0.5155 0.20772 0.0
C403 C 0.4456 0.51766 0.24177 0.0
H404 H 0.49019 0.49791 0.20117 0.0
H405 H 0.3101 0.51348 0.52884 0.0
H406 H 0.97484 0.34237 0.17613 0.0
H407 H 0.98028 0.37245 0.25142 0.0
H408 H 0.04281 0.36617 0.22415 0.0
H409 H 0.03737 0.33632 0.14595 0.0
H410 H 0.02248 0.37078 0.39263 0.0
H411 H 0.03123 0.40006 0.13842 0.0
H412 H 0.02129 0.40726 0.00388 0.0
H413 H 0.96843 0.43428 0.08529 0.0
H414 H 0.97792 0.42693 0.22035 0.0
H415 H 0.04578 0.45626 0.60698 0.0
H416 H 0.04594 0.43005 0.5102 0.0
H417 H 0.99107 0.45136 0.41728 0.0
H418 H 0.99175 0.47842 0.51062 0.0
H419 H 1.00948 0.43885 0.30405 0.0
H420 H 0.99681 0.40893 0.54991 0.0
H421 H 1.00265 0.40069 0.68726 0.0
H422 H 0.05724 0.37343 0.62766 0.0
H423 H 0.05184 0.38174 0.49 0.0
C424 C 0.98974 0.34762 0.18481 0.0
C425 C 1.00565 0.33709 0.15432 0.0
C426 C 0.99283 0.36479 0.22803 0.0
C427 C 1.01194 0.37162 0.24346 0.0
C428 C 0.02792 0.36123 0.21267 0.0
C429 C 0.0248 0.34426 0.16758 0.0
C430 C 1.01499 0.38898 0.29521 0.0
C431 C 0.02005 0.38573 0.37305 0.0
C432 C 1.01094 0.40839 0.27061 0.0
C433 C 1.00519 0.41274 0.18946 0.0
C434 C 0.01738 0.40732 0.12761 0.0
C435 C 1.01185 0.41148 0.05125 0.0
C436 C 0.99421 0.42117 0.03602 0.0
C437 C 0.98208 0.42675 0.09716 0.0
C438 C 0.98753 0.4226 0.17362 0.0
C439 C 0.03388 0.45545 0.56523 0.0
C440 C 0.01873 0.46937 0.56669 0.0
C441 C 0.03383 0.44028 0.51022 0.0
C442 C 0.01819 0.43811 0.45708 0.0
C443 C 1.00332 0.45244 0.45727 0.0
C444 C 1.00368 0.46796 0.5109 0.0
C445 C 0.01711 0.42083 0.40252 0.0
C446 C 1.0122 0.42401 0.32411 0.0
C447 C 0.02076 0.40122 0.42716 0.0
C448 C 0.02402 0.39615 0.5098 0.0
C449 C 1.01012 0.40129 0.56618 0.0
C450 C 1.01334 0.39659 0.64406 0.0
C451 C 0.03033 0.38659 0.6662 0.0
C452 C 0.04411 0.38121 0.61044 0.0
C453 C 0.04097 0.3859 0.53248 0.0
H454 H 0.0328 0.38297 0.72653 0.0
H455 H 0.98997 0.42441 0.97688 0.0
H456 H 0.83319 0.02125 0.28845 0.0
H457 H 0.86369 0.02663 0.21486 0.0
H458 H 0.85705 0.96924 0.11167 0.0
H459 H 0.82755 0.96357 0.18777 0.0
H460 H 0.8925 0.97282 0.141 0.0
H461 H 0.84671 0.01678 0.01701 0.0
H462 H 0.82321 0.04417 0.0101 0.0
H463 H 0.86783 0.08415 0.09064 0.0
H464 H 0.89154 0.05693 0.09891 0.0
H465 H 0.94746 0.98215 0.7925 0.0
H466 H 0.92086 0.98079 0.88767 0.0
H467 H 0.9472 0.02917 0.01175 0.0
H468 H 0.97417 0.03034 0.9171 0.0
H469 H 0.90476 0.0326 0.9833 0.0
H470 H 0.95129 0.98708 0.09061 0.0
H471 H 0.97387 0.95893 0.08533 0.0
H472 H 0.92592 0.92074 0.02327 0.0
H473 H 0.90309 0.94872 0.02697 0.0
C474 C 0.83833 1.00984 0.2501 0.0
C475 C 0.82795 0.99197 0.24402 0.0
C476 C 0.85574 1.01294 0.20745 0.0
C477 C 0.86283 0.99844 0.15633 0.0
C478 C 0.85224 0.9807 0.15058 0.0
C479 C 0.83522 0.97747 0.19407 0.0
C480 C 0.88121 1.00127 0.10896 0.0
C481 C 0.89496 0.98588 0.10619 0.0
C482 C 0.88504 0.01844 0.06433 0.0
C483 C 0.87081 0.03479 0.05949 0.0
C484 C 0.85146 0.03139 0.03379 0.0
C485 C 0.83811 0.04689 0.02954 0.0
C486 C 0.84401 0.06588 0.05016 0.0
C487 C 0.86328 0.06942 0.07486 0.0
C488 C 0.87668 0.05397 0.07932 0.0
C489 C 0.94768 0.99241 0.84038 0.0
C490 C 0.96297 1.00631 0.84731 0.0
C491 C 0.93244 0.99164 0.89475 0.0
C492 C 0.93194 1.00489 0.95704 0.0
C493 C 0.94719 0.01883 0.96418 0.0
C494 C 0.96267 0.01939 0.91034 0.0
C495 C 0.91547 1.00397 0.01429 0.0
C496 C 0.90223 0.01967 0.01887 0.0
C497 C 0.91186 0.98696 0.05945 0.0
C498 C 0.9255 0.97004 0.05853 0.0
C499 C 0.94558 0.9727 0.07535 0.0
C500 C 0.95842 0.95677 0.0727 0.0
C501 C 0.95134 0.93807 0.05384 0.0
C502 C 0.93138 0.93524 0.03784 0.0
C503 C 0.91848 0.95113 0.04029 0.0
H504 H 0.96131 0.92576 0.05174 0.0
H505 H 0.83365 0.07786 0.04681 0.0
H506 H 0.55659 0.83283 0.16538 0.0
H507 H 0.55131 0.86275 0.09122 0.0
H508 H 0.50545 0.87968 0.24902 0.0
H509 H 0.51008 0.84876 0.3216 0.0
H510 H 0.49464 0.8899 0.1118 0.0
H511 H 0.55395 0.90148 0.24927 0.0
H512 H 0.58721 0.8948 0.29948 0.0
H513 H 0.60947 0.89277 0.06727 0.0
H514 H 0.57629 0.89916 0.01556 0.0
H515 H 0.49794 0.98597 0.92647 0.0
H516 H 0.50008 0.95983 0.02496 0.0
H517 H 0.53984 0.92788 0.87856 0.0
H518 H 0.53768 0.95379 0.78056 0.0
H519 H 0.55267 0.92879 0.02798 0.0
H520 H 0.49073 0.91551 0.89498 0.0
H521 H 0.45683 0.92258 0.85267 0.0
H522 H 0.43937 0.93026 0.08936 0.0
H523 H 0.47322 0.92352 0.13301 0.0
C524 C 0.54537 0.84292 0.18454 0.0
C525 C 0.53389 0.83848 0.24983 0.0
C526 C 0.54245 0.8602 0.14227 0.0
C527 C 0.52838 0.87401 0.16533 0.0
C528 C 0.51656 0.86946 0.23005 0.0
C529 C 0.51922 0.85181 0.27175 0.0
C530 C 0.52609 0.89287 0.12056 0.0
C531 C 0.50733 0.89859 0.09489 0.0
C532 C 0.54255 0.90442 0.09773 0.0
C533 C 0.56258 0.90068 0.12854 0.0
C534 C 0.56591 0.89949 0.20888 0.0
C535 C 0.58476 0.89577 0.23762 0.0
C536 C 0.60043 0.89333 0.1866 0.0
C537 C 0.59731 0.89466 0.10672 0.0
C538 C 0.57849 0.89836 0.07767 0.0
C539 C 0.50719 0.97339 0.9156 0.0
C540 C 0.5176 0.97192 0.84555 0.0
C541 C 0.50832 0.95839 0.97174 0.0
C542 C 0.51998 0.94169 0.95914 0.0
C543 C 0.5307 0.94052 0.88988 0.0
C544 C 0.52944 0.95536 0.83373 0.0
C545 C 0.52135 0.92539 0.01749 0.0
C546 C 0.53998 0.92021 0.04583 0.0
C547 C 0.50474 0.91465 0.04393 0.0
C548 C 0.48455 0.91922 0.0172 0.0
C549 C 0.47972 0.91894 0.93793 0.0
C550 C 0.46049 0.92283 0.91373 0.0
C551 C 0.44596 0.92685 0.96832 0.0
C552 C 0.45064 0.92713 0.04716 0.0
C553 C 0.46983 0.92329 0.07164 0.0
H554 H 0.43105 0.92966 0.94968 0.0
H555 H 0.61501 0.89045 0.20896 0.0
H556 H 0.69867 0.50277 0.19901 0.0
H557 H 0.67004 0.49671 0.11471 0.0
H558 H 0.64722 0.55376 0.17201 0.0
H559 H 0.67593 0.56003 0.25466 0.0
H560 H 0.61768 0.52239 0.16605 0.0
H561 H 0.67086 0.55067 0.0143 0.0
H562 H 0.70496 0.55142 0.96659 0.0
H563 H 0.69691 0.49437 0.86521 0.0
H564 H 0.66284 0.49315 0.91351 0.0
H565 H 0.54908 0.53682 0.85446 0.0
H566 H 0.57414 0.53934 0.95691 0.0
H567 H 0.60705 0.49307 0.8475 0.0
H568 H 0.58267 0.49152 0.74383 0.0
H569 H 0.63153 0.51814 0.88481 0.0
H570 H 0.57922 0.48855 0.02864 0.0
H571 H 0.54574 0.48492 0.08109 0.0
H572 H 0.55197 0.53988 0.20057 0.0
H573 H 0.58541 0.54398 0.14796 0.0
C574 C 0.68736 0.51385 0.19474 0.0
C575 C 0.6895 0.53187 0.23366 0.0
C576 C 0.67104 0.51041 0.14635 0.0
C577 C 0.65644 0.5248 0.13687 0.0
C578 C 0.65818 0.5424 0.17858 0.0
C579 C 0.67462 0.54597 0.22568 0.0
C580 C 0.64021 0.52229 0.07908 0.0
C581 C 0.62063 0.52158 0.10444 0.0
C582 C 0.64406 0.52079 0.99885 0.0
C583 C 0.66437 0.52174 0.9682 0.0
C584 C 0.6764 0.53823 0.98229 0.0
C585 C 0.69572 0.53875 0.95511 0.0
C586 C 0.70312 0.52293 0.91311 0.0
C587 C 0.69118 0.5066 0.89788 0.0
C588 C 0.67186 0.50599 0.92511 0.0
C589 C 0.56153 0.52707 0.85332 0.0
C590 C 0.56386 0.51395 0.79151 0.0
C591 C 0.5759 0.52842 0.91201 0.0
C592 C 0.59263 0.51624 0.91118 0.0
C593 C 0.59452 0.50278 0.85002 0.0
C594 C 0.58047 0.50181 0.79075 0.0
C595 C 0.60865 0.51797 0.97117 0.0
C596 C 0.62834 0.51872 0.94627 0.0
C597 C 0.60486 0.51907 0.05193 0.0
C598 C 0.58475 0.51666 0.08369 0.0
C599 C 0.5734 0.49994 0.06563 0.0
C600 C 0.55444 0.49778 0.09546 0.0
C601 C 0.54672 0.51218 0.14397 0.0
C602 C 0.55796 0.52875 0.16289 0.0
C603 C 0.57693 0.53099 0.13312 0.0
H604 H 0.53203 0.51048 0.16703 0.0
H605 H 0.71809 0.52334 0.89223 0.0
H606 H 0.97723 0.71024 0.08963 0.0
H607 H 0.97898 0.67791 0.0296 0.0
H608 H 0.02232 0.6602 0.19821 0.0
H609 H 0.02064 0.69297 0.25883 0.0
H610 H 0.03283 0.64882 0.05152 0.0
H611 H 0.97588 0.64138 0.20727 0.0
H612 H 0.94382 0.6501 0.26305 0.0
H613 H 0.91764 0.64914 0.03639 0.0
H614 H 0.94961 0.64066 0.97906 0.0
H615 H 0.02573 0.55153 0.88529 0.0
H616 H 0.02499 0.57826 0.98114 0.0
H617 H 0.9816 0.60837 0.84318 0.0
H618 H 0.9823 0.58186 0.74807 0.0
H619 H 0.9724 0.61027 0.99455 0.0
H620 H 0.03047 0.62131 0.83909 0.0
H621 H 0.06248 0.61212 0.78387 0.0
H622 H 0.08652 0.60569 0.01281 0.0
H623 H 0.05454 0.61455 0.06941 0.0
C624 C 0.98699 0.6994 0.11471 0.0
C625 C 0.99864 0.70416 0.17952 0.0
C626 C 0.98796 0.68084 0.08027 0.0
C627 C 1.0006 0.66636 0.10956 0.0
C628 C 1.01236 0.67102 0.17452 0.0
C629 C 1.0113 0.68972 0.20953 0.0
C630 C 1.00163 0.6467 0.07027 0.0
C631 C 0.01967 0.64018 0.04062 0.0
C632 C 0.98448 0.6354 0.05468 0.0
C633 C 0.9652 0.64051 0.08881 0.0
C634 C 0.96332 0.64317 0.16923 0.0
C635 C 0.94516 0.64804 0.20114 0.0
C636 C 0.92871 0.65021 0.15328 0.0
C637 C 0.93039 0.64746 0.0734 0.0
C638 C 0.94853 0.64259 0.04117 0.0
C639 C 1.0159 0.56377 0.87597 0.0
C640 C 1.00413 0.5646 0.80883 0.0
C641 C 1.01557 0.57912 0.93057 0.0
C642 C 1.00338 0.59557 0.91932 0.0
C643 C 0.99115 0.59597 0.85355 0.0
C644 C 0.9916 0.58077 0.79896 0.0
C645 C 1.00348 0.61266 0.97423 0.0
C646 C 0.98562 0.61873 0.00662 0.0
C647 C 0.02079 0.62347 0.99244 0.0
C648 C 0.04006 0.61836 0.95847 0.0
C649 C 0.04254 0.61779 0.87765 0.0
C650 C 0.06068 0.61266 0.8461 0.0
C651 C 0.07651 0.60826 0.89481 0.0
C652 C 0.07424 0.60905 0.97516 0.0
C653 C 0.05611 0.61413 0.00701 0.0
H654 H 0.09054 0.60429 0.87028 0.0
H655 H 0.91466 0.65398 0.1781 0.0
H656 H 1.0134 0.26394 0.29187 0.0
H657 H 0.01687 0.2393 0.39372 0.0
H658 H 0.07495 0.22577 0.31147 0.0
H659 H 0.07139 0.25023 0.20889 0.0
H660 H 0.04461 0.19987 0.26721 0.0
H661 H 0.06928 0.23029 0.49642 0.0
H662 H 0.07121 0.25403 0.60372 0.0
H663 H 1.01414 0.23583 0.68216 0.0
H664 H 1.01163 0.21228 0.57436 0.0
H665 H 0.04204 0.10439 0.41234 0.0
H666 H 0.0526 0.13826 0.39159 0.0
H667 H 0.99931 0.15897 0.49763 0.0
H668 H 0.98897 0.12498 0.52152 0.0
H669 H 0.03021 0.18146 0.53901 0.0
H670 H 1.00275 0.1557 0.30728 0.0
H671 H 0.99771 0.13317 0.19741 0.0
H672 H 0.0565 0.14458 0.11948 0.0
H673 H 0.06207 0.16687 0.22999 0.0
C674 C 0.02739 0.25663 0.29882 0.0
C675 C 0.04195 0.25845 0.24194 0.0
C676 C 0.02941 0.24259 0.35731 0.0
C677 C 0.04599 0.23046 0.35872 0.0
C678 C 0.06202 0.23497 0.31086 0.0
C679 C 0.05995 0.24887 0.25211 0.0
C680 C 0.04346 0.21004 0.38541 0.0
C681 C 0.04214 0.1957 0.32717 0.0
C682 C 0.03899 0.20502 0.46277 0.0
C683 C 0.04019 0.21961 0.52655 0.0
C684 C 0.057 0.23153 0.53578 0.0
C685 C 0.05823 0.24493 0.59692 0.0
C686 C 0.04279 0.24648 0.6496 0.0
C687 C 0.02607 0.23465 0.64123 0.0
C688 C 0.02475 0.22126 0.58008 0.0
C689 C 0.03267 0.11613 0.43206 0.0
C690 C 1.01455 0.11208 0.46746 0.0
C691 C 0.03868 0.13545 0.41985 0.0
C692 C 0.02656 0.15103 0.44198 0.0
C693 C 1.00879 0.14709 0.47984 0.0
C694 C 1.00279 0.12772 0.49239 0.0
C695 C 0.03199 0.17135 0.42119 0.0
C696 C 0.03336 0.1856 0.47971 0.0
C697 C 0.0361 0.17653 0.34363 0.0
C698 C 0.03295 0.16273 0.27791 0.0
C699 C 1.01475 0.15313 0.26765 0.0
C700 C 1.01178 0.14043 0.20509 0.0
C701 C 0.02683 0.13733 0.15182 0.0
C702 C 0.04489 0.14692 0.16104 0.0
C703 C 0.04797 0.15959 0.22367 0.0
H704 H 0.02444 0.12762 0.10305 0.0
H705 H 0.04379 0.25681 0.69703 0.0
H706 H 0.25131 0.99389 0.35122 0.0
H707 H 0.2712 0.98571 0.4641 0.0
H708 H 0.3001 0.94038 0.33411 0.0
H709 H 0.27969 0.94794 0.22169 0.0
H710 H 0.30361 0.93727 0.50756 0.0
H711 H 0.32322 0.9831 0.28614 0.0
H712 H 0.3144 1.0094 0.19364 0.0
H713 H 0.28973 0.04312 0.37887 0.0
H714 H 0.29895 0.01722 0.47265 0.0
H715 H 0.40723 0.94744 0.49781 0.0
H716 H 0.37173 0.94203 0.48904 0.0
H717 H 0.36189 0.99829 0.59674 0.0
H718 H 0.39734 1.00396 0.60315 0.0
H719 H 0.34473 0.99678 0.4644 0.0
H720 H 0.3427 0.95352 0.68569 0.0
H721 H 0.35416 0.92621 0.76825 0.0
H722 H 0.34594 0.88591 0.57964 0.0
H723 H 0.33457 0.91304 0.49594 0.0
C724 C 0.26091 0.98129 0.34807 0.0
C725 C 0.26456 0.97202 0.27693 0.0
C726 C 0.2723 0.97663 0.41285 0.0
C727 C 0.28752 0.96294 0.40622 0.0
C728 C 0.28854 0.95115 0.33997 0.0
C729 C 0.27699 0.95561 0.27549 0.0
C730 C 0.30555 0.96563 0.45263 0.0
C731 C 0.31256 0.95036 0.49957 0.0
C732 C 0.31719 0.98267 0.44154 0.0
C733 C 0.3116 0.99826 0.38594 0.0
C734 C 0.31593 0.99616 0.30693 0.0
C735 C 0.31091 1.01098 0.25441 0.0
C736 C 0.30134 0.02783 0.28024 0.0
C737 C 0.29706 0.03002 0.35888 0.0
C738 C 0.30229 1.01535 0.41182 0.0
C739 C 0.39744 0.95841 0.5212 0.0
C740 C 0.40491 0.97622 0.5501 0.0
C741 C 0.37716 0.95523 0.51696 0.0
C742 C 0.3641 0.96968 0.54295 0.0
C743 C 0.37167 0.98693 0.57641 0.0
C744 C 0.39189 0.99022 0.57959 0.0
C745 C 0.34303 0.96857 0.5215 0.0
C746 C 0.33557 0.98405 0.47677 0.0
C747 C 0.33121 0.95168 0.53468 0.0
C748 C 0.33797 0.93532 0.58454 0.0
C749 C 0.34345 0.93884 0.66181 0.0
C750 C 0.34988 0.92339 0.70883 0.0
C751 C 0.35083 0.90434 0.67915 0.0
C752 C 0.34523 0.90068 0.60253 0.0
C753 C 0.33875 0.91608 0.55536 0.0
H754 H 0.35586 0.89241 0.71557 0.0
H755 H 0.29736 0.03922 0.23936 0.0
H756 H 0.49957 0.31098 0.2873 0.0
H757 H 0.5082 0.32703 0.40715 0.0
H758 H 0.54274 0.2768 0.47574 0.0
H759 H 0.53549 0.26131 0.35083 0.0
H760 H 0.50771 0.32596 0.55299 0.0
H761 H 0.57921 0.29232 0.57732 0.0
H762 H 0.60273 0.2704 0.51196 0.0
H763 H 0.58837 0.29666 0.29254 0.0
H764 H 0.56485 0.31873 0.35694 0.0
H765 H 0.55316 0.41781 0.63631 0.0
H766 H 0.55127 0.38251 0.66551 0.0
H767 H 0.56206 0.36946 0.42539 0.0
H768 H 0.5639 0.40449 0.39575 0.0
H769 H 0.57854 0.34193 0.52809 0.0
H770 H 0.51863 0.38043 0.48751 0.0
H771 H 0.49336 0.40449 0.52264 0.0
H772 H 0.48068 0.37196 0.73009 0.0
H773 H 0.5061 0.34791 0.69659 0.0
C774 C 0.50905 0.30331 0.32767 0.0
C775 C 0.51759 0.28532 0.3079 0.0
C776 C 0.51367 0.31233 0.39747 0.0
C777 C 0.52664 0.30342 0.45032 0.0
C778 C 0.5332 0.28427 0.43511 0.0
C779 C 0.52894 0.27537 0.3638 0.0
C780 C 0.5357 0.31609 0.51102 0.0
C781 C 0.52334 0.32914 0.55041 0.0
C782 C 0.55617 0.31998 0.51044 0.0
C783 C 0.57027 0.30695 0.47162 0.0
C784 C 0.58114 0.29337 0.51517 0.0
C785 C 0.59444 0.28095 0.47834 0.0
C786 C 0.59701 0.28211 0.39813 0.0
C787 C 0.58635 0.29576 0.35461 0.0
C788 C 0.57307 0.30823 0.39119 0.0
C789 C 0.55577 0.40735 0.59038 0.0
C790 C 0.55839 0.41375 0.51345 0.0
C791 C 0.55466 0.38728 0.60734 0.0
C792 C 0.5563 0.3735 0.54773 0.0
C793 C 0.56081 0.3799 0.47236 0.0
C794 C 0.5617 0.39988 0.45522 0.0
C795 C 0.55003 0.35289 0.55839 0.0
C796 C 0.56314 0.33823 0.53586 0.0
C797 C 0.53 0.34798 0.57062 0.0
C798 C 0.51501 0.36282 0.59151 0.0
C799 C 0.51084 0.37865 0.54164 0.0
C800 C 0.49633 0.39222 0.56085 0.0
C801 C 0.48553 0.38987 0.62892 0.0
C802 C 0.48918 0.3739 0.67774 0.0
C803 C 0.50375 0.36036 0.6589 0.0
H804 H 0.47427 0.40037 0.64364 0.0
H805 H 0.60729 0.27246 0.36972 0.0
H806 H 0.22372 0.51485 0.28509 0.0
H807 H 0.20703 0.52973 0.393 0.0
H808 H 0.2494 0.57732 0.39467 0.0
H809 H 0.26572 0.56266 0.28175 0.0
H810 H 0.21183 0.54 0.53153 0.0
H811 H 0.22537 0.61798 0.44842 0.0
H812 H 0.23776 0.63847 0.34051 0.0
H813 H 0.21384 0.59742 0.17613 0.0
H814 H 0.20126 0.5768 0.28318 0.0
H815 H 0.11742 0.56784 0.6473 0.0
H816 H 0.15309 0.57228 0.64906 0.0
H817 H 0.15182 0.58484 0.40359 0.0
H818 H 0.11641 0.58238 0.40334 0.0
H819 H 0.18059 0.6026 0.45444 0.0
H820 H 0.15371 0.5371 0.50307 0.0
H821 H 0.13908 0.50902 0.57305 0.0
H822 H 0.18379 0.51363 0.74797 0.0
H823 H 0.19786 0.54259 0.68225 0.0
C824 C 0.22962 0.52841 0.30879 0.0
C825 C 0.2456 0.53793 0.27385 0.0
C826 C 0.22022 0.53683 0.37144 0.0
C827 C 0.22674 0.55488 0.40173 0.0
C828 C 0.2439 0.56357 0.37153 0.0
C829 C 0.25325 0.55517 0.30746 0.0
C830 C 0.21357 0.56516 0.45656 0.0
C831 C 0.20518 0.55395 0.51625 0.0
C832 C 0.20519 0.58353 0.4378 0.0
C833 C 0.21263 0.59582 0.3735 0.0
C834 C 0.22279 0.61338 0.3892 0.0
C835 C 0.22983 0.62499 0.32826 0.0
C836 C 0.22664 0.61922 0.25153 0.0
C837 C 0.21634 0.60185 0.23555 0.0
C838 C 0.20926 0.59021 0.29627 0.0
C839 C 0.12469 0.57231 0.59439 0.0
C840 C 0.11407 0.57421 0.5245 0.0
C841 C 0.14516 0.57467 0.59539 0.0
C842 C 0.15535 0.57832 0.5261 0.0
C843 C 0.14451 0.5819 0.45807 0.0
C844 C 0.12415 0.5801 0.45751 0.0
C845 C 0.17698 0.57572 0.5196 0.0
C846 C 0.18749 0.589 0.47253 0.0
C847 C 0.18644 0.55828 0.54467 0.0
C848 C 0.17645 0.54245 0.58903 0.0
C849 C 0.16 0.53258 0.55794 0.0
C850 C 0.1518 0.51649 0.59692 0.0
C851 C 0.16034 0.50973 0.66558 0.0
C852 C 0.17691 0.51918 0.69592 0.0
C853 C 0.18488 0.53555 0.65827 0.0
H854 H 0.15432 0.49698 0.69462 0.0
H855 H 0.23212 0.62822 0.20446 0.0
H856 H 0.07922 0.77412 0.19304 0.0
H857 H 0.09724 0.79345 0.09604 0.0
H858 H 0.04251 0.80648 0.98005 0.0
H859 H 0.02481 0.78646 0.0746 0.0
H860 H 0.07238 0.80954 0.87922 0.0
H861 H 0.05803 0.83254 0.14595 0.0
H862 H 0.0616 0.83196 0.28833 0.0
H863 H 0.12432 0.83509 0.26626 0.0
H864 H 0.12109 0.83597 0.12367 0.0
H865 H 0.04033 0.9045 0.86966 0.0
H866 H 0.0508 0.87035 0.87311 0.0
H867 H 0.10957 0.88883 0.93494 0.0
H868 H 0.09899 0.9232 0.93286 0.0
H869 H 0.09451 0.86573 0.04051 0.0
H870 H 0.10182 0.86138 0.77427 0.0
H871 H 0.09438 0.8671 0.63646 0.0
H872 H 0.04289 0.83067 0.65414 0.0
H873 H 0.04945 0.82538 0.79288 0.0
C874 C 0.0713 0.78034 0.1444 0.0
C875 C 0.05074 0.77907 0.14082 0.0
C876 C 0.08153 0.79138 0.0892 0.0
C877 C 0.07116 0.80181 0.03204 0.0
C878 C 0.05085 0.79859 0.0236 0.0
C879 C 0.04069 0.78725 0.07778 0.0
C880 C 0.07995 0.81929 0.99406 0.0
C881 C 0.07747 0.82185 0.91381 0.0
C882 C 0.08737 0.83508 0.03905 0.0
C883 C 0.08934 0.83404 0.12444 0.0
C884 C 0.07258 0.83298 0.17157 0.0
C885 C 0.07453 0.8326 0.25221 0.0
C886 C 0.09316 0.83329 0.2863 0.0
C887 C 0.1099 0.83447 0.23978 0.0
C888 C 0.10802 0.83495 0.15909 0.0
C889 C 0.05557 0.90128 0.88258 0.0
C890 C 0.06877 0.91636 0.90275 0.0
C891 C 0.06164 0.88179 0.8832 0.0
C892 C 0.08101 0.87703 0.90386 0.0
C893 C 0.0946 0.89221 0.91834 0.0
C894 C 0.08854 0.91178 0.91741 0.0
C895 C 0.08546 0.85654 0.9264 0.0
C896 C 0.09049 0.85334 0.00414 0.0
C897 C 0.08007 0.84041 0.87907 0.0
C898 C 0.07616 0.84302 0.79469 0.0
C899 C 0.0888 0.85469 0.74916 0.0
C900 C 0.0847 0.85792 0.67079 0.0
C901 C 0.06811 0.84936 0.63673 0.0
C902 C 0.0557 0.83737 0.68073 0.0
C903 C 0.05961 0.83425 0.7594 0.0
H904 H 0.0649 0.85206 0.57629 0.0
H905 H 0.09462 0.83303 0.34875 0.0
H906 H 0.72183 0.97018 0.14822 0.0
H907 H 0.70624 0.9717 0.02196 0.0
H908 H 0.75086 1.01245 0.94338 0.0
H909 H 0.76607 1.01155 0.07174 0.0
H910 H 0.71853 0.02942 0.93461 0.0
H911 H 0.73665 0.97132 0.82187 0.0
H912 H 0.74651 0.93688 0.8037 0.0
H913 H 0.68966 0.91721 0.8792 0.0
H914 H 0.67951 0.95145 0.89911 0.0
H915 H 0.61976 0.04613 0.81041 0.0
H916 H 0.65368 0.03705 0.7799 0.0
H917 H 0.65192 0.99289 0.95961 0.0
H918 H 0.61837 1.00187 0.99035 0.0
H919 H 0.67204 0.98026 0.82668 0.0
H920 H 0.66986 0.0401 0.00374 0.0
H921 H 0.66014 0.07473 0.02099 0.0
H922 H 0.68864 0.09018 0.80757 0.0
H923 H 0.69842 0.0556 0.78917 0.0
C924 C 0.72863 0.97902 0.10335 0.0
C925 C 0.74478 0.99117 0.12042 0.0
C926 C 0.71993 0.97962 0.03025 0.0
C927 C 0.72729 0.99229 0.97254 0.0
C928 C 0.74488 1.0026 0.98678 0.0
C929 C 0.75355 1.00208 0.06031 0.0
C930 C 0.71376 0.99862 0.90967 0.0
C931 C 0.70894 0.01867 0.90734 0.0
C932 C 0.70133 0.98491 0.87181 0.0
C933 C 0.70728 0.96409 0.86159 0.0
C934 C 0.72626 0.95967 0.83507 0.0
C935 C 0.7319 0.94016 0.82438 0.0
C936 C 0.71871 0.92487 0.84012 0.0
C937 C 0.69985 0.92907 0.86674 0.0
C938 C 0.69412 0.94856 0.87747 0.0
C939 C 0.62669 0.03454 0.84346 0.0
C940 C 0.61643 0.02477 0.90308 0.0
C941 C 0.64592 0.02919 0.82519 0.0
C942 C 0.6552 1.01418 0.86701 0.0
C943 C 0.64486 1.00424 0.92547 0.0
C944 C 0.62572 1.00949 0.94347 0.0
C945 C 0.67643 1.01037 0.85977 0.0
C946 C 0.68255 0.99097 0.84825 0.0
C947 C 0.69029 0.02467 0.88328 0.0
C948 C 0.68478 0.0454 0.89502 0.0
C949 C 0.67405 0.05094 0.96069 0.0
C950 C 0.66851 0.07052 0.97058 0.0
C951 C 0.67376 0.08464 0.91537 0.0
C952 C 0.68459 0.07923 0.85025 0.0
C953 C 0.69013 0.05966 0.84007 0.0
H954 H 0.66945 0.09979 0.92307 0.0
H955 H 0.7231 0.90977 0.83178 0.0
H956 H 0.49431 0.77509 0.10428 0.0
H957 H 0.49195 0.75935 0.97629 0.0
H958 H 0.53837 0.71959 0.04238 0.0
H959 H 0.54105 0.7355 0.16744 0.0
H960 H 0.54012 0.72666 0.89222 0.0
H961 H 0.48787 0.71083 0.08718 0.0
H962 H 0.45924 0.72093 0.16466 0.0
H963 H 0.42969 0.74001 0.95774 0.0
H964 H 0.45834 0.73033 0.87937 0.0
H965 H 0.52689 0.62797 0.9518 0.0
H966 H 0.53022 0.66344 0.94363 0.0
H967 H 0.48595 0.66524 0.76458 0.0
H968 H 0.48232 0.62942 0.77294 0.0
H969 H 0.47825 0.68784 0.89425 0.0
H970 H 0.53588 0.7014 0.7024 0.0
H971 H 0.56825 0.69334 0.64594 0.0
H972 H 0.58959 0.67635 0.87027 0.0
H973 H 0.55778 0.68516 0.92828 0.0
C974 C 0.50433 0.76337 0.08995 0.0
C975 C 0.51752 0.75608 0.14568 0.0
C976 C 0.503 0.75444 0.01715 0.0
C977 C 0.51481 0.73816 1.00023 0.0
C978 C 0.52913 0.73216 0.05383 0.0
C979 C 0.53049 0.74105 0.12578 0.0
C980 C 0.51049 0.72487 0.93485 0.0
C981 C 0.52639 0.71845 0.89052 0.0
C982 C 0.49245 0.71447 0.93096 0.0
C983 C 0.47524 0.72009 0.97775 0.0
C984 C 0.47526 0.71724 0.05842 0.0
C985 C 0.45907 0.72289 0.10243 0.0
C986 C 0.44266 0.73111 0.06614 0.0
C987 C 0.44243 0.73369 0.98577 0.0
C988 C 0.45865 0.72817 0.94156 0.0
C989 C 0.51824 0.63578 0.90903 0.0
C990 C 0.50436 0.62585 0.863 0.0
C991 C 0.52039 0.6561 0.90353 0.0
C992 C 0.50896 0.66694 0.85107 0.0
C993 C 0.49527 0.65708 0.80399 0.0
C994 C 0.49303 0.63668 0.80972 0.0
C995 C 0.50858 0.68854 0.85868 0.0
C996 C 0.49157 0.69665 0.89088 0.0
C997 C 0.52586 0.70013 0.85422 0.0
C998 C 0.54423 0.69306 0.8189 0.0
C999 C 0.5474 0.6956 0.73925 0.0
C1000 C 0.5657 0.69115 0.70718 0.0
C1001 C 0.58081 0.684 0.75421 0.0
C1002 C 0.5778 0.68164 0.83369 0.0
C1003 C 0.55967 0.6864 0.86619 0.0
H1004 H 0.59489 0.68046 0.72917 0.0
H1005 H 0.43013 0.73546 0.10028 0.0
H1006 H 0.7534 0.51406 0.06193 0.0
H1007 H 0.76946 0.51181 0.93589 0.0
H1008 H 0.81393 0.55291 0.01298 0.0
H1009 H 0.79736 0.5561 0.13658 0.0
H1010 H 0.81123 0.55416 0.85895 0.0
H1011 H 0.8162 0.50054 0.06163 0.0
H1012 H 0.80024 0.47446 0.1393 0.0
H1013 H 0.77578 0.44919 0.93221 0.0
H1014 H 0.79147 0.47528 0.85365 0.0
H1015 H 0.90423 0.52907 0.94638 0.0
H1016 H 0.86974 0.53627 0.92618 0.0
H1017 H 0.86531 0.48943 0.75919 0.0
H1018 H 0.9004 0.48265 0.77602 0.0
H1019 H 0.83832 0.48683 0.87744 0.0
H1020 H 0.85662 0.53324 0.69514 0.0
H1021 H 0.87539 0.55955 0.63089 0.0
H1022 H 0.85918 0.59985 0.81007 0.0
H1023 H 0.84036 0.57373 0.8757 0.0
C1024 C 0.76611 0.52328 0.05076 0.0
C1025 C 0.77455 0.53477 0.11008 0.0
C1026 C 0.77531 0.52191 0.97866 0.0
C1027 C 0.79325 0.53168 0.96583 0.0
C1028 C 0.80021 0.54505 0.02154 0.0
C1029 C 0.7909 0.54664 0.09288 0.0
C1030 C 0.80713 0.52508 0.90535 0.0
C1031 C 0.81707 0.53939 0.86147 0.0
C1032 C 0.81412 0.50552 0.90532 0.0
C1033 C 0.80486 0.48981 0.95208 0.0
C1034 C 0.80741 0.48939 0.03288 0.0
C1035 C 0.79839 0.47465 0.07699 0.0
C1036 C 0.78699 0.46019 0.04071 0.0
C1037 C 0.7846 0.46041 0.96022 0.0
C1038 C 0.79354 0.47516 0.91588 0.0
C1039 C 0.89616 0.52058 0.90374 0.0
C1040 C 0.90515 0.50524 0.86306 0.0
C1041 C 0.87641 0.52479 0.89195 0.0
C1042 C 0.8651 0.51366 0.83982 0.0
C1043 C 0.87391 0.49836 0.79869 0.0
C1044 C 0.89385 0.49431 0.80956 0.0
C1045 C 0.84361 0.51649 0.83883 0.0
C1046 C 0.8321 0.50137 0.87034 0.0
C1047 C 0.83549 0.53541 0.82875 0.0
C1048 C 0.84678 0.55143 0.78984 0.0
C1049 C 0.85697 0.54769 0.72073 0.0
C1050 C 0.86769 0.56259 0.68413 0.0
C1051 C 0.86845 0.58138 0.71621 0.0
C1052 C 0.85849 0.5853 0.78502 0.0
C1053 C 0.8477 0.57043 0.82178 0.0
H1054 H 0.8768 0.5929 0.68785 0.0
H1055 H 0.78001 0.44879 0.07493 0.0
H1056 H 0.99447 0.23814 0.97208 0.0
H1057 H 0.99173 0.20507 0.91584 0.0
H1058 H 0.05486 0.20043 0.91549 0.0
H1059 H 0.05754 0.23341 0.97081 0.0
H1060 H 0.04088 0.1809 0.79528 0.0
H1061 H 0.02771 0.18431 0.06264 0.0
H1062 H 1.0114 0.19588 0.18089 0.0
H1063 H 0.95696 0.17018 0.10431 0.0
H1064 H 0.97273 0.15921 0.98363 0.0
H1065 H 0.0219 0.07058 0.91915 0.0
H1066 H 0.02421 0.10554 0.95068 0.0
H1067 H 1.01088 0.12027 0.71316 0.0
H1068 H 1.009 0.0853 0.68101 0.0
H1069 H 1.00121 0.13481 0.9546 0.0
H1070 H 0.03411 0.16493 0.66284 0.0
H1071 H 0.05641 0.15391 0.55939 0.0
H1072 H 0.08006 0.10987 0.71062 0.0
H1073 H 0.05881 0.1213 0.81629 0.0
C1074 C 1.00775 0.2304 0.95683 0.0
C1075 C 0.02623 0.23855 0.97516 0.0
C1076 C 1.0062 0.21132 0.92564 0.0
C1077 C 0.02309 0.1999 0.91247 0.0
C1078 C 0.04157 0.20873 0.92492 0.0
C1079 C 0.0431 0.22771 0.95626 0.0
C1080 C 0.02162 0.17833 0.89327 0.0
C1081 C 0.03197 0.17088 0.82948 0.0
C1082 C 1.01086 0.16489 0.94007 0.0
C1083 C 1.00135 0.17121 0.01323 0.0
C1084 C 1.01218 0.18139 0.07025 0.0
C1085 C 1.00302 0.18788 0.13772 0.0
C1086 C 0.98314 0.18382 0.15001 0.0
C1087 C 0.97236 0.17335 0.09461 0.0
C1088 C 0.98138 0.16707 0.02644 0.0
C1089 C 0.01949 0.08122 0.87341 0.0
C1090 C 1.01538 0.07493 0.79728 0.0
C1091 C 0.02073 0.10133 0.8917 0.0
C1092 C 0.01792 0.11585 0.83451 0.0
C1093 C 1.01348 0.10958 0.75857 0.0
C1094 C 1.01234 0.08946 0.74016 0.0
C1095 C 0.0198 0.13742 0.85428 0.0
C1096 C 1.00976 0.14484 0.91909 0.0
C1097 C 0.03155 0.15068 0.81031 0.0
C1098 C 0.04451 0.14375 0.74706 0.0
C1099 C 0.0441 0.15293 0.67405 0.0
C1100 C 0.05656 0.14662 0.61504 0.0
C1101 C 0.06935 0.13099 0.62794 0.0
C1102 C 0.06999 0.12185 0.70041 0.0
C1103 C 0.0578 0.12831 0.76003 0.0
H1104 H 0.07889 0.12608 0.58196 0.0
H1105 H 0.97612 0.18871 0.20263 0.0
H1106 H 0.30113 0.97273 0.04359 0.0
H1107 H 0.33338 0.9786 0.99067 0.0
H1108 H 0.31927 0.03984 0.95816 0.0
H1109 H 0.28757 0.03439 0.02195 0.0
H1110 H 0.35098 0.986 0.87943 0.0
H1111 H 0.35838 0.06941 0.95181 0.0
H1112 H 0.34713 0.09281 0.05102 0.0
H1113 H 0.33927 0.04542 0.21282 0.0
H1114 H 0.35052 0.02177 0.11475 0.0
H1115 H 0.43844 1.01585 0.69912 0.0
H1116 H 0.40429 1.01428 0.7422 0.0
H1117 H 0.42267 0.02839 0.97494 0.0
H1118 H 0.45679 0.03062 0.93173 0.0
H1119 H 0.38963 0.04498 0.9542 0.0
H1120 H 0.41304 0.98219 0.91584 0.0
H1121 H 0.42966 0.95517 0.84881 0.0
H1122 H 0.38263 0.95177 0.68392 0.0
H1123 H 0.36612 0.97972 0.74678 0.0
C1124 C 0.30488 0.98761 0.02664 0.0
C1125 C 0.29175 1.00319 0.04036 0.0
C1126 C 0.32347 0.99093 0.99471 0.0
C1127 C 0.3295 1.00985 0.97173 0.0
C1128 C 0.31566 0.02519 0.97823 0.0
C1129 C 0.29719 0.02199 0.01332 0.0
C1130 C 0.3503 1.01325 0.94333 0.0
C1131 C 0.35926 0.99898 0.89603 0.0
C1132 C 0.3619 0.0297 0.96645 0.0
C1133 C 0.35505 0.04382 0.0256 0.0
C1134 C 0.35425 0.06401 0.00857 0.0
C1135 C 0.34784 0.0773 0.06457 0.0
C1136 C 0.34237 0.07059 0.13801 0.0
C1137 C 0.34336 0.05058 0.15573 0.0
C1138 C 0.34972 0.03722 0.09994 0.0
C1139 C 0.43525 0.01881 0.7594 0.0
C1140 C 0.45053 0.02327 0.81193 0.0
C1141 C 0.41562 0.01786 0.7841 0.0
C1142 C 0.41069 0.02095 0.86231 0.0
C1143 C 0.42588 0.02598 0.91431 0.0
C1144 C 0.4455 0.02715 0.88949 0.0
C1145 C 0.38997 0.01785 0.89046 0.0
C1146 C 0.38115 0.03211 0.93757 0.0
C1147 C 0.37907 1.0006 0.87265 0.0
C1148 C 0.3885 0.98339 0.83523 0.0
C1149 C 0.4063 0.97591 0.86457 0.0
C1150 C 0.41571 0.96042 0.82728 0.0
C1151 C 0.40716 0.95176 0.76209 0.0
C1152 C 0.38919 0.9586 0.73418 0.0
C1153 C 0.37986 0.97437 0.77026 0.0
H1154 H 0.41443 0.93974 0.73328 0.0
H1155 H 0.33744 0.0809 0.18129 0.0
H1156 H 0.48416 0.29656 0.98768 0.0
H1157 H 0.48359 0.32676 0.909 0.0
H1158 H 0.54352 0.33919 0.97555 0.0
H1159 H 0.54408 0.30912 0.0532 0.0
H1160 H 0.48555 0.36258 0.95672 0.0
H1161 H 0.56652 0.36987 0.83221 0.0
H1162 H 0.59108 0.34942 0.76683 0.0
H1163 H 0.547 0.30575 0.71841 0.0
H1164 H 0.52212 0.32588 0.78284 0.0
H1165 H 0.50731 0.46305 0.88863 0.0
H1166 H 0.5071 0.42887 0.93237 0.0
H1167 H 0.51856 0.40969 0.6991 0.0
H1168 H 0.51922 0.44379 0.65528 0.0
H1169 H 0.5381 0.38805 0.78558 0.0
H1170 H 0.47109 0.4064 0.79312 0.0
H1171 H 0.44238 0.42642 0.82749 0.0
H1172 H 0.45297 0.41525 0.06894 0.0
H1173 H 0.4819 0.39533 0.036 0.0
C1174 C 0.4974 0.30541 0.9832 0.0
C1175 C 0.51422 0.30033 0.02607 0.0
C1176 C 0.49702 0.32283 0.93895 0.0
C1177 C 0.51352 0.33546 0.93595 0.0
C1178 C 0.53065 0.32976 0.97559 0.0
C1179 C 0.53098 0.31249 0.02006 0.0
C1180 C 0.51241 0.35535 0.89799 0.0
C1181 C 0.49703 0.368 0.91873 0.0
C1182 C 0.52706 0.36254 0.84662 0.0
C1183 C 0.54234 0.3495 0.81303 0.0
C1184 C 0.56201 0.35589 0.80792 0.0
C1185 C 0.57603 0.34432 0.7709 0.0
C1186 C 0.57062 0.32628 0.73865 0.0
C1187 C 0.55121 0.31969 0.74385 0.0
C1188 C 0.53714 0.33116 0.78095 0.0
C1189 C 0.5097 0.45158 0.84639 0.0
C1190 C 0.51307 0.45636 0.76809 0.0
C1191 C 0.50945 0.43191 0.8715 0.0
C1192 C 0.51227 0.41638 0.81896 0.0
C1193 C 0.51604 0.42118 0.74105 0.0
C1194 C 0.5164 0.44083 0.71593 0.0
C1195 C 0.51154 0.39523 0.84514 0.0
C1196 C 0.5266 0.38242 0.8227 0.0
C1197 C 0.49619 0.38759 0.89197 0.0
C1198 C 0.47875 0.39948 0.91207 0.0
C1199 C 0.46736 0.40829 0.85355 0.0
C1200 C 0.45104 0.41961 0.87278 0.0
C1201 C 0.44588 0.42214 0.95036 0.0
C1202 C 0.457 0.41329 0.00887 0.0
C1203 C 0.47335 0.40196 0.98994 0.0
H1204 H 0.43324 0.43092 0.96514 0.0
H1205 H 0.58145 0.31743 0.70945 0.0
H1206 H 0.2377 0.53012 0.92615 0.0
H1207 H 0.20643 0.52805 0.85461 0.0
H1208 H 0.18317 0.4893 0.03046 0.0
H1209 H 0.21443 0.49093 0.09996 0.0
H1210 H 0.16846 0.47856 0.90003 0.0
H1211 H 0.17647 0.54103 0.02625 0.0
H1212 H 0.19252 0.57281 0.05442 0.0
H1213 H 0.18502 0.5905 0.81721 0.0
H1214 H 0.16911 0.55874 0.78748 0.0
H1215 H 0.06605 0.49661 0.87283 0.0
H1216 H 0.10033 0.49541 0.91489 0.0
H1217 H 0.1176 0.52892 0.7138 0.0
H1218 H 0.08322 0.5303 0.67137 0.0
H1219 H 0.13616 0.54217 0.84404 0.0
H1220 H 0.1243 0.47971 0.72508 0.0
H1221 H 0.10748 0.44807 0.70369 0.0
H1222 H 0.12058 0.43052 0.93716 0.0
H1223 H 0.13732 0.4622 0.96048 0.0
C1224 C 0.22615 0.52055 0.94761 0.0
C1225 C 0.22859 0.51053 0.01824 0.0
C1226 C 0.20812 0.51963 0.90748 0.0
C1227 C 0.19208 0.50889 0.93787 0.0
C1228 C 0.19511 0.49777 0.00551 0.0
C1229 C 0.21308 0.4986 0.04514 0.0
C1230 C 0.17183 0.51003 0.90302 0.0
C1231 C 0.16137 0.49251 0.88861 0.0
C1232 C 0.1625 0.52817 0.88635 0.0
C1233 C 0.17193 0.54735 0.90431 0.0
C1234 C 0.17841 0.55162 0.97994 0.0
C1235 C 0.18744 0.56966 0.99624 0.0
C1236 C 0.18988 0.58363 0.93756 0.0
C1237 C 0.1832 0.57963 0.86254 0.0
C1238 C 0.17419 0.56161 0.84592 0.0
C1239 C 0.07709 0.50372 0.8373 0.0
C1240 C 0.07176 0.51347 0.76839 0.0
C1241 C 0.09677 0.50296 0.86138 0.0
C1242 C 0.1117 0.51185 0.81719 0.0
C1243 C 0.10642 0.52186 0.7489 0.0
C1244 C 0.08671 0.52258 0.72456 0.0
C1245 C 0.13274 0.51073 0.84271 0.0
C1246 C 0.14331 0.52824 0.85523 0.0
C1247 C 0.14204 0.49258 0.85894 0.0
C1248 C 0.13204 0.47344 0.84468 0.0
C1249 C 0.12357 0.46918 0.77207 0.0
C1250 C 0.11403 0.45121 0.75957 0.0
C1251 C 0.11294 0.4373 0.81904 0.0
C1252 C 0.12143 0.44131 0.89113 0.0
C1253 C 0.13097 0.45927 0.90399 0.0
H1254 H 0.10554 0.4234 0.80923 0.0
H1255 H 0.19687 0.59759 0.95029 0.0
H1256 H 0.99244 0.79595 0.40817 0.0
H1257 H 0.98918 0.82675 0.48183 0.0
H1258 H 0.05164 0.83632 0.46567 0.0
H1259 H 0.05512 0.80536 0.397 0.0
H1260 H 1.00746 0.84439 0.62201 0.0
H1261 H 0.0569 0.88536 0.40194 0.0
H1262 H 0.06623 0.88432 0.26402 0.0
H1263 H 1.01282 0.85333 0.20978 0.0
H1264 H 1.00297 0.85455 0.34696 0.0
H1265 H 0.02906 0.94288 0.75784 0.0
H1266 H 0.03125 0.90889 0.7115 0.0
H1267 H 0.99657 0.92409 0.51083 0.0
H1268 H 0.99465 0.95795 0.55574 0.0
H1269 H 0.02585 0.90292 0.46588 0.0
H1270 H 0.97775 0.89614 0.66929 0.0
H1271 H 0.96597 0.89984 0.80342 0.0
H1272 H 1.01322 0.86384 0.88612 0.0
H1273 H 0.02542 0.86021 0.75261 0.0
C1274 C 1.00555 0.80423 0.423 0.0
C1275 C 0.02402 0.79817 0.39553 0.0
C1276 C 1.00367 0.82196 0.46473 0.0
C1277 C 0.02014 0.83411 0.47891 0.0
C1278 C 0.03866 0.8274 0.45576 0.0
C1279 C 0.0406 0.80963 0.41585 0.0
C1280 C 0.01804 0.85448 0.51136 0.0
C1281 C 1.01152 0.85717 0.58787 0.0
C1282 C 0.02319 0.87133 0.46721 0.0
C1283 C 0.0293 0.86988 0.38497 0.0
C1284 C 0.04714 0.87833 0.36057 0.0
C1285 C 0.05248 0.8778 0.28247 0.0
C1286 C 0.04007 0.86887 0.22815 0.0
C1287 C 0.02239 0.86028 0.25192 0.0
C1288 C 0.01694 0.86085 0.32989 0.0
C1289 C 0.02179 0.93897 0.70404 0.0
C1290 C 1.01166 0.95333 0.66072 0.0
C1291 C 0.023 0.91942 0.67762 0.0
C1292 C 1.01397 0.91365 0.60752 0.0
C1293 C 1.00376 0.92798 0.56481 0.0
C1294 C 1.00261 0.94745 0.5909 0.0
C1295 C 1.01542 0.89297 0.57689 0.0
C1296 C 0.0219 0.89018 0.50048 0.0
C1297 C 1.01012 0.87613 0.62101 0.0
C1298 C 1.00255 0.87795 0.70103 0.0
C1299 C 0.98566 0.88906 0.71614 0.0
C1300 C 0.97891 0.89117 0.79205 0.0
C1301 C 0.98886 0.88211 0.85327 0.0
C1302 C 1.00554 0.87086 0.83866 0.0
C1303 C 1.01236 0.86874 0.76286 0.0
H1304 H 0.98364 0.88378 0.91201 0.0
H1305 H 0.0442 0.86854 0.16768 0.0
H1306 H 0.73647 0.99475 0.48949 0.0
H1307 H 0.70685 0.99881 0.56897 0.0
H1308 H 0.6781 0.0278 0.37743 0.0
H1309 H 0.70782 0.02527 0.30149 0.0
H1310 H 0.66579 0.04424 0.49426 0.0
H1311 H 0.67294 0.9738 0.43876 0.0
H1312 H 0.69044 0.94218 0.44639 0.0
H1313 H 0.69079 0.94559 0.69482 0.0
H1314 H 0.67336 0.97727 0.68825 0.0
H1315 H 0.56463 0.02467 0.53904 0.0
H1316 H 0.59907 0.0239 0.49906 0.0
H1317 H 0.61611 1.00592 0.72902 0.0
H1318 H 0.58157 1.00726 0.77011 0.0
H1319 H 0.63635 0.98528 0.61821 0.0
H1320 H 0.62501 0.05266 0.67334 0.0
H1321 H 0.60726 0.08412 0.66839 0.0
H1322 H 0.61511 0.08667 0.42184 0.0
H1323 H 0.63266 0.05507 0.42536 0.0
C1324 C 0.72398 1.00239 0.46513 0.0
C1325 C 0.72455 1.00926 0.38809 0.0
C1326 C 0.70681 1.00442 0.51025 0.0
C1327 C 0.68966 1.01303 0.47897 0.0
C1328 C 0.69078 0.02088 0.40369 0.0
C1329 C 0.7079 0.01923 0.3596 0.0
C1330 C 0.67032 1.01368 0.52186 0.0
C1331 C 0.65939 0.0312 0.52046 0.0
C1332 C 0.66189 0.99707 0.55963 0.0
C1333 C 0.67205 0.97793 0.56312 0.0
C1334 C 0.6768 0.9678 0.49493 0.0
C1335 C 0.6867 0.94988 0.49904 0.0
C1336 C 0.69177 0.9419 0.57104 0.0
C1337 C 0.68688 0.95179 0.6391 0.0
C1338 C 0.67698 0.96969 0.63523 0.0
C1339 C 0.57568 0.0206 0.58137 0.0
C1340 C 0.57026 0.01621 0.65813 0.0
C1341 C 0.59546 0.02024 0.55845 0.0
C1342 C 0.61043 1.01523 0.61125 0.0
C1343 C 0.605 1.0102 0.68739 0.0
C1344 C 0.58521 1.01099 0.71088 0.0
C1345 C 0.63162 1.01548 0.58637 0.0
C1346 C 0.64286 0.99826 0.59195 0.0
C1347 C 0.64036 0.03232 0.55212 0.0
C1348 C 0.63 0.05143 0.54964 0.0
C1349 C 0.62282 0.05987 0.61808 0.0
C1350 C 0.61282 0.07773 0.61552 0.0
C1351 C 0.61002 0.08737 0.5448 0.0
C1352 C 0.61727 0.07918 0.47657 0.0
C1353 C 0.62727 0.06131 0.47884 0.0
H1354 H 0.60226 0.10119 0.5429 0.0
H1355 H 0.69945 0.92805 0.57411 0.0
H1356 H 0.54935 0.73535 0.41859 0.0
H1357 H 0.5498 0.70168 0.46907 0.0
H1358 H 0.48653 0.7018 0.48156 0.0
H1359 H 0.48616 0.7353 0.42893 0.0
H1360 H 0.54028 0.67986 0.58392 0.0
H1361 H 0.46762 0.65747 0.42494 0.0
H1362 H 0.4486 0.66735 0.30939 0.0
H1363 H 0.50053 0.6927 0.20875 0.0
H1364 H 0.5199 0.68266 0.32286 0.0
H1365 H 0.50975 0.58658 0.71486 0.0
H1366 H 0.51007 0.6209 0.67402 0.0
H1367 H 0.52561 0.60361 0.44256 0.0
H1368 H 0.52533 0.56899 0.48296 0.0
H1369 H 0.49765 0.63302 0.44067 0.0
H1370 H 0.56345 0.62706 0.54272 0.0
H1371 H 0.58696 0.61383 0.63858 0.0
H1372 H 0.55556 0.64211 0.82182 0.0
H1373 H 0.53203 0.65565 0.72627 0.0
C1374 C 0.5356 0.7285 0.43552 0.0
C1375 C 0.51774 0.73819 0.42153 0.0
C1376 C 0.53583 0.70909 0.46354 0.0
C1377 C 0.51818 0.6988 0.47756 0.0
C1378 C 0.50038 0.7091 0.46973 0.0
C1379 C 0.50016 0.72846 0.44117 0.0
C1380 C 0.51835 0.67709 0.49465 0.0
C1381 C 0.5308 0.66978 0.55304 0.0
C1382 C 0.50672 0.66342 0.45195 0.0
C1383 C 0.49515 0.6695 0.38296 0.0
C1384 C 0.47498 0.6651 0.37805 0.0
C1385 C 0.46414 0.67072 0.31277 0.0
C1386 C 0.47334 0.68067 0.25184 0.0
C1387 C 0.4934 0.68503 0.25602 0.0
C1388 C 0.50431 0.67939 0.32103 0.0
C1389 C 0.51334 0.58996 0.65531 0.0
C1390 C 0.51772 0.57487 0.60261 0.0
C1391 C 0.51349 0.60969 0.63197 0.0
C1392 C 0.51799 0.61498 0.55532 0.0
C1393 C 0.52206 0.59998 0.50202 0.0
C1394 C 0.52202 0.58015 0.52544 0.0
C1395 C 0.51891 0.63623 0.53234 0.0
C1396 C 0.50685 0.64331 0.47239 0.0
C1397 C 0.53148 0.64961 0.57109 0.0
C1398 C 0.54613 0.64248 0.62787 0.0
C1399 C 0.5617 0.63057 0.60347 0.0
C1400 C 0.57499 0.62301 0.6576 0.0
C1401 C 0.57276 0.62717 0.73628 0.0
C1402 C 0.55726 0.63894 0.76088 0.0
C1403 C 0.54404 0.64666 0.70683 0.0
H1404 H 0.58302 0.62126 0.77819 0.0
H1405 H 0.46493 0.68492 0.20126 0.0
H1406 H 0.79652 0.49333 0.37486 0.0
H1407 H 0.82819 0.49241 0.44347 0.0
H1408 H 0.82596 0.55524 0.4741 0.0
H1409 H 0.79446 0.55607 0.40475 0.0
H1410 H 0.85951 0.54655 0.41622 0.0
H1411 H 0.82352 0.52283 0.63054 0.0
H1412 H 0.8011 0.50242 0.70899 0.0
H1413 H 0.83594 0.4515 0.66201 0.0
H1414 H 0.85855 0.47158 0.58289 0.0
H1415 H 0.94078 0.52307 0.72801 0.0
H1416 H 0.90618 0.52455 0.68897 0.0
H1417 H 0.92322 0.51889 0.44971 0.0
H1418 H 0.95781 0.51801 0.48862 0.0
H1419 H 0.8815 0.50081 0.62242 0.0
H1420 H 0.89135 0.5426 0.33105 0.0
H1421 H 0.9136 0.56721 0.27267 0.0
H1422 H 0.92911 0.58848 0.49889 0.0
H1423 H 0.90682 0.56418 0.55856 0.0
C1424 C 0.80246 0.5068 0.39899 0.0
C1425 C 0.79279 0.52471 0.38611 0.0
C1426 C 0.82065 0.50631 0.43792 0.0
C1427 C 0.82965 0.52376 0.4644 0.0
C1428 C 0.81948 0.54155 0.45439 0.0
C1429 C 0.80133 0.54201 0.41557 0.0
C1430 C 0.85034 0.52378 0.49534 0.0
C1431 C 0.86424 0.53651 0.4614 0.0
C1432 C 0.85668 0.51102 0.55536 0.0
C1433 C 0.84262 0.49868 0.59986 0.0
C1434 C 0.82626 0.50722 0.63593 0.0
C1435 C 0.81355 0.49573 0.68082 0.0
C1436 C 0.81704 0.47566 0.69011 0.0
C1437 C 0.83324 0.46704 0.65458 0.0
C1438 C 0.84602 0.47848 0.60976 0.0
C1439 C 0.93715 0.52211 0.66717 0.0
C1440 C 0.95216 0.52049 0.61166 0.0
C1441 C 0.9173 0.52289 0.64478 0.0
C1442 C 0.91188 0.52199 0.56612 0.0
C1443 C 0.92686 0.52002 0.51066 0.0
C1444 C 0.94672 0.51947 0.53303 0.0
C1445 C 0.89067 0.52326 0.54208 0.0
C1446 C 0.87673 0.51075 0.57704 0.0
C1447 C 0.88412 0.53665 0.48455 0.0
C1448 C 0.89751 0.55143 0.44926 0.0
C1449 C 0.89945 0.55258 0.36832 0.0
C1450 C 0.91209 0.56647 0.335 0.0
C1451 C 0.9228 0.57937 0.38204 0.0
C1452 C 0.92085 0.57844 0.46251 0.0
C1453 C 0.90822 0.56459 0.49612 0.0
H1454 H 0.93258 0.5901 0.35613 0.0
H1455 H 0.80722 0.46678 0.72499 0.0
loop_
_geom_bond_atom_site_label_1
_geom_bond_atom_site_label_2
_geom_bond_distance
_geom_bond_site_symmetry_2
_ccdc_geom_bond_type
H0 C5 0.930 . S
H1 C8 0.930 . S
H2 C10 0.930 . S
H3 C4 1.016 . S
C4 H3 1.016 . S
C4 N11 1.286 . S
C5 H0 0.930 . S
C5 C6 1.397 . S
C5 C7 1.361 . S
C6 C5 1.397 . S
C6 C10 1.390 . S
C7 C5 1.361 . S
C7 C8 1.393 . S
C7 N11 1.413 . S
C8 H1 0.930 . S
C8 C7 1.393 . S
C8 C9 1.399 . S
C9 C8 1.399 . S
C9 C10 1.381 . S
C10 H2 0.930 . S
C10 C6 1.390 . S
C10 C9 1.381 . S
N11 C4 1.286 . S
N11 C7 1.413 . S
H12 C17 0.930 . S
H13 C20 0.930 . S
H14 C22 0.930 . S
H15 C16 1.016 . S
C16 H15 1.016 . S
C16 N23 1.286 1_655 S
C17 H12 0.930 . S
C17 C18 1.400 . S
C17 C19 1.361 . S
C18 C17 1.400 . S
C18 C22 1.388 1_455 S
C19 C17 1.361 . S
C19 C20 1.393 . S
C19 N23 1.413 . S
C20 H13 0.930 . S
C20 C19 1.393 . S
C20 C21 1.399 1_455 S
C21 C20 1.399 1_655 S
C21 C22 1.381 . S
C22 H14 0.930 . S
C22 C18 1.388 1_655 S
C22 C21 1.381 . S
N23 C16 1.286 1_455 S
N23 C19 1.413 . S
H24 C29 0.930 . S
H25 C32 0.930 . S
H26 C34 0.930 . S
H27 C28 1.016 . S
C28 H27 1.016 . S
C28 N35 1.286 1_565 S
C29 H24 0.930 . S
C29 C30 1.396 . S
C29 C31 1.361 . S
C30 C29 1.396 . S
C30 C34 1.391 1_545 S
C31 C29 1.361 . S
C31 C32 1.393 . S
C31 N35 1.413 . S
C32 H25 0.930 . S
C32 C31 1.393 . S
C32 C33 1.395 1_545 S
C33 C32 1.395 1_565 S
C33 C34 1.383 . S
C34 H26 0.930 . S
C34 C30 1.391 1_565 S
C34 C33 1.383 . S
N35 C28 1.286 1_545 S
N35 C31 1.413 . S
H36 C41 0.930 . S
H37 C44 0.930 . S
H38 C46 0.930 . S
H39 C40 1.016 . S
C40 H39 1.016 . S
C40 N47 1.286 . S
C41 H36 0.930 . S
C41 C42 1.397 . S
C41 C43 1.361 . S
C42 C41 1.397 . S
C42 C46 1.390 . S
C43 C41 1.361 . S
C43 C44 1.393 . S
C43 N47 1.413 . S
C44 H37 0.930 . S
C44 C43 1.393 . S
C44 C45 1.399 . S
C45 C44 1.399 . S
C45 C46 1.381 . S
C46 H38 0.930 . S
C46 C42 1.390 . S
C46 C45 1.381 . S
N47 C40 1.286 . S
N47 C43 1.413 . S
H48 C53 0.930 . S
H49 C56 0.930 . S
H50 C58 0.930 . S
H51 C52 1.016 . S
C52 H51 1.016 . S
C52 N59 1.286 . S
C53 H48 0.930 . S
C53 C54 1.397 . S
C53 C55 1.361 1_556 S
C54 C53 1.397 . S
C54 C58 1.390 1_556 S
C55 C53 1.361 1_554 S
C55 C56 1.393 . S
C55 N59 1.413 . S
C56 H49 0.930 . S
C56 C55 1.393 . S
C56 C57 1.399 . S
C57 C56 1.399 . S
C57 C58 1.381 . S
C58 H50 0.930 . S
C58 C54 1.390 1_554 S
C58 C57 1.381 . S
N59 C52 1.286 . S
N59 C55 1.413 . S
H60 C65 0.930 . S
H61 C68 0.930 . S
H62 C70 0.931 . S
H63 C64 1.001 1_655 S
C64 H63 1.001 1_455 S
C64 N71 1.311 . S
C65 H60 0.930 . S
C65 C66 1.397 . S
C65 C67 1.361 1_556 S
C66 C65 1.397 . S
C66 C70 1.390 1_456 S
C67 C65 1.361 1_554 S
C67 C68 1.393 . S
C67 N71 1.413 . S
C68 H61 0.930 . S
C68 C67 1.393 . S
C68 C69 1.399 . S
C69 C68 1.399 . S
C69 C70 1.381 1_455 S
C70 H62 0.931 . S
C70 C66 1.390 1_654 S
C70 C69 1.381 1_655 S
N71 C64 1.311 . S
N71 C67 1.413 . S
H72 C77 0.930 . S
H73 C80 0.930 . S
H74 C82 0.937 . S
H75 C76 1.009 1_565 S
C76 H75 1.009 1_545 S
C76 N83 1.297 . S
C77 H72 0.930 . S
C77 C78 1.397 . S
C77 C79 1.361 1_556 S
C78 C77 1.397 . S
C78 C82 1.387 1_546 S
C79 C77 1.361 1_554 S
C79 C80 1.393 . S
C79 N83 1.413 . S
C80 H73 0.930 . S
C80 C79 1.393 . S
C80 C81 1.399 . S
C81 C80 1.399 . S
C81 C82 1.378 1_545 S
C82 H74 0.937 . S
C82 C78 1.387 1_564 S
C82 C81 1.378 1_565 S
N83 C76 1.297 . S
N83 C79 1.413 . S
H84 C89 0.930 . S
H85 C92 0.930 . S
H86 C94 0.930 . S
H87 C88 1.016 . S
C88 H87 1.016 . S
C88 N95 1.286 . S
C89 H84 0.930 . S
C89 C90 1.397 . S
C89 C91 1.361 1_556 S
C90 C89 1.397 . S
C90 C94 1.390 1_556 S
C91 C89 1.361 1_554 S
C91 C92 1.393 . S
C91 N95 1.413 . S
C92 H85 0.930 . S
C92 C91 1.393 . S
C92 C93 1.399 . S
C93 C92 1.399 . S
C93 C94 1.381 . S
C94 H86 0.930 . S
C94 C90 1.390 1_554 S
C94 C93 1.381 . S
N95 C88 1.286 . S
N95 C91 1.413 . S
La96 C98 2.928 . S
La96 O116 2.521 . S
La96 O117 2.633 . S
La96 O118 2.554 . S
La96 O119 2.757 1_565 S
La96 O120 2.470 . S
La96 O125 2.482 1_455 S
La96 O127 2.503 1_565 S
La97 C107 2.928 . S
La97 O119 2.482 1_655 S
La97 O121 2.503 1_545 S
La97 O122 2.521 . S
La97 O123 2.614 1_655 S
La97 O124 2.554 . S
La97 O125 2.757 1_545 S
La97 O126 2.470 . S
C98 La96 2.928 . S
C98 C99 1.503 . S
C98 O116 1.261 . S
C98 O117 1.254 . S
C99 C98 1.503 . S
C99 C100 1.394 . S
C99 C104 1.373 . S
C100 C99 1.394 . S
C100 C101 1.380 . S
C100 H128 0.930 . S
C101 C100 1.380 . S
C101 C102 1.376 . S
C101 H129 0.930 . S
C102 C101 1.376 . S
C102 C103 1.370 . S
C103 C102 1.370 . S
C103 C104 1.396 . S
C103 H130 0.929 1_455 S
C104 C99 1.373 . S
C104 C103 1.396 . S
C104 H131 0.929 1_455 S
C105 O118 1.265 . S
C105 O119 1.275 1_565 S
C106 O120 1.258 1_655 S
C106 O121 1.256 . S
C107 La97 2.928 . S
C107 C108 1.503 . S
C107 O122 1.261 . S
C107 O123 1.210 1_655 S
C108 C107 1.503 . S
C108 C109 1.394 . S
C108 C113 1.373 . S
C109 C108 1.394 . S
C109 C110 1.380 . S
C109 H132 0.930 . S
C110 C109 1.380 . S
C110 C111 1.376 . S
C110 H133 0.930 . S
C111 C110 1.376 . S
C111 C112 1.370 . S
C112 C111 1.370 . S
C112 C113 1.396 . S
C112 H134 0.929 1_655 S
C113 C108 1.373 . S
C113 C112 1.396 . S
C113 H135 0.929 1_655 S
C114 O124 1.272 . S
C114 O125 1.271 1_545 S
C115 O126 1.258 1_455 S
C115 O127 1.256 . S
O116 La96 2.521 . S
O116 C98 1.261 . S
O117 La96 2.633 . S
O117 C98 1.254 . S
O118 La96 2.554 . S
O118 C105 1.265 . S
O119 La96 2.757 1_545 S
O119 La97 2.482 1_455 S
O119 C105 1.275 1_545 S
O120 La96 2.470 . S
O120 C106 1.258 1_455 S
O121 La97 2.503 1_565 S
O121 C106 1.256 . S
O122 La97 2.521 . S
O122 C107 1.261 . S
O123 La97 2.614 1_455 S
O123 C107 1.210 1_455 S
O124 La97 2.554 . S
O124 C114 1.272 . S
O125 La96 2.482 1_655 S
O125 La97 2.757 1_565 S
O125 C114 1.271 1_565 S
O126 La97 2.470 . S
O126 C115 1.258 1_655 S
O127 La96 2.503 1_545 S
O127 C115 1.256 . S
H128 C100 0.930 . S
H129 C101 0.930 . S
H130 C103 0.929 1_655 S
H131 C104 0.929 1_655 S
H132 C109 0.930 . S
H133 C110 0.930 . S
H134 C112 0.929 1_455 S
H135 C113 0.929 1_455 S
La136 C138 2.928 . S
La136 O156 2.521 . S
La136 O157 2.629 1_545 S
La136 O158 2.554 . S
La136 O159 2.757 . S
La136 O160 2.470 . S
La136 O165 2.482 1_545 S
La136 O167 2.503 . S
La137 C147 2.928 . S
La137 O159 2.482 1_565 S
La137 O161 2.503 . S
La137 O162 2.521 . S
La137 O163 2.624 1_565 S
La137 O164 2.554 . S
La137 O165 2.757 . S
La137 O166 2.470 . S
C138 La136 2.928 . S
C138 C139 1.503 . S
C138 O156 1.261 . S
C138 O157 1.245 1_545 S
C139 C138 1.503 . S
C139 C140 1.394 . S
C139 C144 1.373 . S
C140 C139 1.394 . S
C140 C141 1.380 . S
C140 H168 0.930 . S
C141 C140 1.380 . S
C141 C142 1.376 . S
C141 H169 0.930 . S
C142 C141 1.376 . S
C142 C143 1.370 . S
C143 C142 1.370 . S
C143 C144 1.396 . S
C143 H170 0.929 1_545 S
C144 C139 1.373 . S
C144 C143 1.396 . S
C144 H171 0.929 1_545 S
C145 O158 1.240 . S
C145 O159 1.289 . S
C146 O160 1.258 1_565 S
C146 O161 1.256 . S
C147 La137 2.928 . S
C147 C148 1.503 . S
C147 O162 1.261 . S
C147 O163 1.232 1_565 S
C148 C147 1.503 . S
C148 C149 1.394 . S
C148 C153 1.373 . S
C149 C148 1.394 . S
C149 C150 1.380 . S
C149 H172 0.930 . S
C150 C149 1.380 . S
C150 C151 1.376 . S
C150 H173 0.930 . S
C151 C150 1.376 . S
C151 C152 1.370 . S
C152 C151 1.370 . S
C152 C153 1.396 . S
C152 H174 0.929 1_565 S
C153 C148 1.373 . S
C153 C152 1.396 . S
C153 H175 0.929 1_565 S
C154 O164 1.240 . S
C154 O165 1.289 . S
C155 O166 1.258 1_545 S
C155 O167 1.256 . S
O156 La136 2.521 . S
O156 C138 1.261 . S
O157 La136 2.629 1_565 S
O157 C138 1.245 1_565 S
O158 La136 2.554 . S
O158 C145 1.240 . S
O159 La136 2.757 . S
O159 La137 2.482 1_545 S
O159 C145 1.289 . S
O160 La136 2.470 . S
O160 C146 1.258 1_545 S
O161 La137 2.503 . S
O161 C146 1.256 . S
O162 La137 2.521 . S
O162 C147 1.261 . S
O163 La137 2.624 1_545 S
O163 C147 1.232 1_545 S
O164 La137 2.554 . S
O164 C154 1.240 . S
O165 La136 2.482 1_565 S
O165 La137 2.757 . S
O165 C154 1.289 . S
O166 La137 2.470 . S
O166 C155 1.258 1_565 S
O167 La136 2.503 . S
O167 C155 1.256 . S
H168 C140 0.930 . S
H169 C141 0.930 . S
H170 C143 0.929 1_565 S
H171 C144 0.929 1_565 S
H172 C149 0.930 . S
H173 C150 0.930 . S
H174 C152 0.929 1_545 S
H175 C153 0.929 1_545 S
La176 C178 2.928 . S
La176 O196 2.521 . S
La176 O197 2.628 . S
La176 O198 2.554 . S
La176 O199 2.757 . S
La176 O200 2.470 . S
La176 O205 2.482 . S
La176 O207 2.503 . S
La177 C187 2.928 . S
La177 O199 2.482 . S
La177 O201 2.503 . S
La177 O202 2.521 . S
La177 O203 2.628 . S
La177 O204 2.554 . S
La177 O205 2.757 . S
La177 O206 2.470 . S
C178 La176 2.928 . S
C178 C179 1.503 . S
C178 O196 1.261 . S
C178 O197 1.243 . S
C179 C178 1.503 . S
C179 C180 1.394 . S
C179 C184 1.373 . S
C180 C179 1.394 . S
C180 C181 1.380 . S
C180 H208 0.930 . S
C181 C180 1.380 . S
C181 C182 1.376 . S
C181 H209 0.930 . S
C182 C181 1.376 . S
C182 C183 1.370 . S
C183 C182 1.370 . S
C183 C184 1.396 . S
C183 H210 0.929 . S
C184 C179 1.373 . S
C184 C183 1.396 . S
C184 H211 0.929 . S
C185 O198 1.240 . S
C185 O199 1.289 . S
C186 O200 1.258 . S
C186 O201 1.256 . S
C187 La177 2.928 . S
C187 C188 1.503 . S
C187 O202 1.261 . S
C187 O203 1.243 . S
C188 C187 1.503 . S
C188 C189 1.394 . S
C188 C193 1.373 . S
C189 C188 1.394 . S
C189 C190 1.380 . S
C189 H212 0.930 . S
C190 C189 1.380 . S
C190 C191 1.376 . S
C190 H213 0.930 . S
C191 C190 1.376 . S
C191 C192 1.370 . S
C192 C191 1.370 . S
C192 C193 1.396 . S
C192 H214 0.929 . S
C193 C188 1.373 . S
C193 C192 1.396 . S
C193 H215 0.929 . S
C194 O204 1.240 . S
C194 O205 1.289 . S
C195 O206 1.258 . S
C195 O207 1.256 . S
O196 La176 2.521 . S
O196 C178 1.261 . S
O197 La176 2.628 . S
O197 C178 1.243 . S
O198 La176 2.554 . S
O198 C185 1.240 . S
O199 La176 2.757 . S
O199 La177 2.482 . S
O199 C185 1.289 . S
O200 La176 2.470 . S
O200 C186 1.258 . S
O201 La177 2.503 . S
O201 C186 1.256 . S
O202 La177 2.521 . S
O202 C187 1.261 . S
O203 La177 2.628 . S
O203 C187 1.243 . S
O204 La177 2.554 . S
O204 C194 1.240 . S
O205 La176 2.482 . S
O205 La177 2.757 . S
O205 C194 1.289 . S
O206 La177 2.470 . S
O206 C195 1.258 . S
O207 La176 2.503 . S
O207 C195 1.256 . S
H208 C180 0.930 . S
H209 C181 0.930 . S
H210 C183 0.929 . S
H211 C184 0.929 . S
H212 C189 0.930 . S
H213 C190 0.930 . S
H214 C192 0.929 . S
H215 C193 0.929 . S
La216 C218 2.928 . S
La216 O236 2.521 . S
La216 O237 2.628 . S
La216 O238 2.554 . S
La216 O239 2.757 1_655 S
La216 O240 2.470 . S
La216 O245 2.482 . S
La216 O247 2.503 1_655 S
La217 C227 2.928 . S
La217 O239 2.482 . S
La217 O241 2.503 1_455 S
La217 O242 2.521 . S
La217 O243 2.628 . S
La217 O244 2.554 . S
La217 O245 2.757 1_455 S
La217 O246 2.470 . S
C218 La216 2.928 . S
C218 C219 1.503 . S
C218 O236 1.261 . S
C218 O237 1.243 . S
C219 C218 1.503 . S
C219 C220 1.394 . S
C219 C224 1.373 . S
C220 C219 1.394 . S
C220 C221 1.380 . S
C220 H248 0.930 . S
C221 C220 1.380 . S
C221 C222 1.376 . S
C221 H249 0.930 . S
C222 C221 1.376 . S
C222 C223 1.370 . S
C223 C222 1.370 . S
C223 C224 1.396 . S
C223 H250 0.929 . S
C224 C219 1.373 . S
C224 C223 1.396 . S
C224 H251 0.929 . S
C225 O238 1.251 . S
C225 O239 1.283 1_655 S
C226 O240 1.258 . S
C226 O241 1.256 . S
C227 La217 2.928 . S
C227 C228 1.503 . S
C227 O242 1.261 . S
C227 O243 1.243 . S
C228 C227 1.503 . S
C228 C229 1.394 . S
C228 C233 1.373 . S
C229 C228 1.394 . S
C229 C230 1.380 . S
C229 H252 0.930 . S
C230 C229 1.380 . S
C230 C231 1.376 . S
C230 H253 0.930 . S
C231 C230 1.376 . S
C231 C232 1.370 . S
C232 C231 1.370 . S
C232 C233 1.396 . S
C232 H254 0.929 . S
C233 C228 1.373 . S
C233 C232 1.396 . S
C233 H255 0.929 . S
C234 O244 1.240 . S
C234 O245 1.289 1_455 S
C235 O246 1.258 . S
C235 O247 1.256 . S
O236 La216 2.521 . S
O236 C218 1.261 . S
O237 La216 2.628 . S
O237 C218 1.243 . S
O238 La216 2.554 . S
O238 C225 1.251 . S
O239 La216 2.757 1_455 S
O239 La217 2.482 . S
O239 C225 1.283 1_455 S
O240 La216 2.470 . S
O240 C226 1.258 . S
O241 La217 2.503 1_655 S
O241 C226 1.256 . S
O242 La217 2.521 . S
O242 C227 1.261 . S
O243 La217 2.628 . S
O243 C227 1.243 . S
O244 La217 2.554 . S
O244 C234 1.240 . S
O245 La216 2.482 . S
O245 La217 2.757 1_655 S
O245 C234 1.289 1_655 S
O246 La217 2.470 . S
O246 C235 1.258 . S
O247 La216 2.503 1_455 S
O247 C235 1.256 . S
H248 C220 0.930 . S
H249 C221 0.930 . S
H250 C223 0.929 . S
H251 C224 0.929 . S
H252 C229 0.930 . S
H253 C230 0.930 . S
H254 C232 0.929 . S
H255 C233 0.929 . S
H256 C274 0.950 1_565 S
H257 C276 0.952 . S
H258 C278 0.950 . S
H259 C279 0.950 . S
H260 C281 0.950 . S
H261 C284 0.950 . S
H262 C285 0.950 . S
H263 C287 0.950 . S
H264 C288 0.950 . S
H265 C289 0.951 . S
H266 C291 0.951 . S
H267 C293 0.949 1_565 S
H268 C294 0.949 1_565 S
H269 C296 0.950 . S
H270 C299 0.950 . S
H271 C300 0.950 . S
H272 C302 0.950 . S
H273 C303 0.950 . S
C274 H256 0.950 1_545 S
C274 C275 1.365 . S
C274 C276 1.388 1_545 S
C275 C274 1.365 . S
C275 C279 1.385 . S
C276 H257 0.952 . S
C276 C274 1.388 1_565 S
C276 C277 1.365 1_565 S
C277 C276 1.365 1_545 S
C277 C278 1.414 . S
C277 C280 1.499 . S
C278 H258 0.950 . S
C278 C277 1.414 . S
C278 C279 1.374 . S
C279 H259 0.950 . S
C279 C275 1.385 . S
C279 C278 1.374 . S
C280 C277 1.499 . S
C280 C281 1.371 . S
C280 C282 1.391 1_545 S
C281 H260 0.950 . S
C281 C280 1.371 . S
C281 C297 1.377 . S
C282 C280 1.391 1_565 S
C282 C283 1.524 . S
C282 C296 1.377 . S
C283 C282 1.524 . S
C283 C284 1.397 . S
C283 C288 1.363 . S
C284 H261 0.950 . S
C284 C283 1.397 . S
C284 C285 1.334 . S
C285 H262 0.950 . S
C285 C284 1.334 . S
C285 C286 1.287 . S
C286 C285 1.287 . S
C286 C287 1.524 . S
C286 H305 0.913 . S
C287 H263 0.950 . S
C287 C286 1.524 . S
C287 C288 1.415 . S
C288 H264 0.950 . S
C288 C283 1.363 . S
C288 C287 1.415 . S
C289 H265 0.951 . S
C289 C290 1.366 . S
C289 C291 1.388 . S
C290 C289 1.366 . S
C290 C294 1.386 . S
C291 H266 0.951 . S
C291 C289 1.388 . S
C291 C292 1.366 . S
C292 C291 1.366 . S
C292 C293 1.418 . S
C292 C295 1.499 . S
C293 H267 0.949 1_545 S
C293 C292 1.418 . S
C293 C294 1.374 . S
C294 H268 0.949 1_545 S
C294 C290 1.386 . S
C294 C293 1.374 . S
C295 C292 1.499 . S
C295 C296 1.373 1_545 S
C295 C297 1.389 . S
C296 H269 0.950 . S
C296 C282 1.377 . S
C296 C295 1.373 1_565 S
C297 C281 1.377 . S
C297 C295 1.389 . S
C297 C298 1.524 . S
C298 C297 1.524 . S
C298 C299 1.397 . S
C298 C303 1.363 . S
C299 H270 0.950 . S
C299 C298 1.397 . S
C299 C300 1.334 . S
C300 H271 0.950 . S
C300 C299 1.334 . S
C300 C301 1.287 . S
C301 C300 1.287 . S
C301 C302 1.524 . S
C301 H304 0.999 . S
C302 H272 0.950 . S
C302 C301 1.524 . S
C302 C303 1.415 . S
C303 H273 0.950 . S
C303 C298 1.363 . S
C303 C302 1.415 . S
H304 C301 0.999 . S
H305 C286 0.913 . S
H306 C324 0.951 . S
H307 C326 0.951 . S
H308 C328 0.950 . S
H309 C329 0.950 . S
H310 C331 0.950 . S
H311 C334 0.950 . S
H312 C335 0.950 . S
H313 C337 0.950 . S
H314 C338 0.950 . S
H315 C339 0.951 . S
H316 C341 0.951 . S
H317 C343 0.950 . S
H318 C344 0.950 . S
H319 C346 0.950 . S
H320 C349 0.950 . S
H321 C350 0.950 . S
H322 C352 0.950 . S
H323 C353 0.950 . S
C324 H306 0.951 . S
C324 C325 1.366 . S
C324 C326 1.388 . S
C325 C324 1.366 . S
C325 C329 1.385 . S
C326 H307 0.951 . S
C326 C324 1.388 . S
C326 C327 1.366 . S
C327 C326 1.366 . S
C327 C328 1.414 . S
C327 C330 1.499 . S
C328 H308 0.950 . S
C328 C327 1.414 . S
C328 C329 1.374 . S
C329 H309 0.950 . S
C329 C325 1.385 . S
C329 C328 1.374 . S
C330 C327 1.499 . S
C330 C331 1.373 . S
C330 C332 1.389 . S
C331 H310 0.950 . S
C331 C330 1.373 . S
C331 C347 1.377 . S
C332 C330 1.389 . S
C332 C333 1.524 . S
C332 C346 1.377 . S
C333 C332 1.524 . S
C333 C334 1.397 . S
C333 C338 1.363 . S
C334 H311 0.950 . S
C334 C333 1.397 . S
C334 C335 1.334 . S
C335 H312 0.950 . S
C335 C334 1.334 . S
C335 C336 1.287 . S
C336 C335 1.287 . S
C336 C337 1.524 . S
C336 H355 0.913 . S
C337 H313 0.950 . S
C337 C336 1.524 . S
C337 C338 1.415 . S
C338 H314 0.950 . S
C338 C333 1.363 . S
C338 C337 1.415 . S
C339 H315 0.951 . S
C339 C340 1.366 . S
C339 C341 1.388 . S
C340 C339 1.366 . S
C340 C344 1.385 . S
C341 H316 0.951 . S
C341 C339 1.388 . S
C341 C342 1.366 . S
C342 C341 1.366 . S
C342 C343 1.414 . S
C342 C345 1.499 . S
C343 H317 0.950 . S
C343 C342 1.414 . S
C343 C344 1.374 . S
C344 H318 0.950 . S
C344 C340 1.385 . S
C344 C343 1.374 . S
C345 C342 1.499 . S
C345 C346 1.373 . S
C345 C347 1.389 . S
C346 H319 0.950 . S
C346 C332 1.377 . S
C346 C345 1.373 . S
C347 C331 1.377 . S
C347 C345 1.389 . S
C347 C348 1.524 . S
C348 C347 1.524 . S
C348 C349 1.397 . S
C348 C353 1.363 . S
C349 H320 0.950 . S
C349 C348 1.397 . S
C349 C350 1.334 . S
C350 H321 0.950 . S
C350 C349 1.334 . S
C350 C351 1.287 . S
C351 C350 1.287 . S
C351 C352 1.524 . S
C351 H354 0.999 . S
C352 H322 0.950 . S
C352 C351 1.524 . S
C352 C353 1.415 . S
C353 H323 0.950 . S
C353 C348 1.363 . S
C353 C352 1.415 . S
H354 C351 0.999 . S
H355 C336 0.913 . S
H356 C374 0.951 . S
H357 C376 0.951 . S
H358 C378 0.950 . S
H359 C379 0.950 . S
H360 C381 0.950 . S
H361 C384 0.950 . S
H362 C385 0.950 . S
H363 C387 0.950 . S
H364 C388 0.950 . S
H365 C389 0.951 . S
H366 C391 0.951 . S
H367 C393 0.950 . S
H368 C394 0.950 . S
H369 C396 0.950 . S
H370 C399 0.950 . S
H371 C400 0.950 . S
H372 C402 0.950 . S
H373 C403 0.950 . S
C374 H356 0.951 . S
C374 C375 1.366 . S
C374 C376 1.388 . S
C375 C374 1.366 . S
C375 C379 1.385 . S
C376 H357 0.951 . S
C376 C374 1.388 . S
C376 C377 1.366 . S
C377 C376 1.366 . S
C377 C378 1.414 . S
C377 C380 1.499 . S
C378 H358 0.950 . S
C378 C377 1.414 . S
C378 C379 1.374 . S
C379 H359 0.950 . S
C379 C375 1.385 . S
C379 C378 1.374 . S
C380 C377 1.499 . S
C380 C381 1.373 . S
C380 C382 1.389 . S
C381 H360 0.950 . S
C381 C380 1.373 . S
C381 C397 1.377 . S
C382 C380 1.389 . S
C382 C383 1.524 . S
C382 C396 1.377 . S
C383 C382 1.524 . S
C383 C384 1.397 . S
C383 C388 1.363 . S
C384 H361 0.950 . S
C384 C383 1.397 . S
C384 C385 1.334 . S
C385 H362 0.950 . S
C385 C384 1.334 . S
C385 C386 1.287 . S
C386 C385 1.287 . S
C386 C387 1.524 . S
C386 H405 0.913 . S
C387 H363 0.950 . S
C387 C386 1.524 . S
C387 C388 1.415 . S
C388 H364 0.950 . S
C388 C383 1.363 . S
C388 C387 1.415 . S
C389 H365 0.951 . S
C389 C390 1.366 . S
C389 C391 1.388 . S
C390 C389 1.366 . S
C390 C394 1.385 . S
C391 H366 0.951 . S
C391 C389 1.388 . S
C391 C392 1.366 . S
C392 C391 1.366 . S
C392 C393 1.414 . S
C392 C395 1.499 . S
C393 H367 0.950 . S
C393 C392 1.414 . S
C393 C394 1.374 . S
C394 H368 0.950 . S
C394 C390 1.385 . S
C394 C393 1.374 . S
C395 C392 1.499 . S
C395 C396 1.373 . S
C395 C397 1.389 . S
C396 H369 0.950 . S
C396 C382 1.377 . S
C396 C395 1.373 . S
C397 C381 1.377 . S
C397 C395 1.389 . S
C397 C398 1.524 . S
C398 C397 1.524 . S
C398 C399 1.397 . S
C398 C403 1.363 . S
C399 H370 0.950 . S
C399 C398 1.397 . S
C399 C400 1.334 . S
C400 H371 0.950 . S
C400 C399 1.334 . S
C400 C401 1.287 . S
C401 C400 1.287 . S
C401 C402 1.524 . S
C401 H404 0.999 . S
C402 H372 0.950 . S
C402 C401 1.524 . S
C402 C403 1.415 . S
C403 H373 0.950 . S
C403 C398 1.363 . S
C403 C402 1.415 . S
H404 C401 0.999 . S
H405 C386 0.913 . S
H406 C424 0.951 . S
H407 C426 0.951 . S
H408 C428 0.950 . S
H409 C429 0.950 . S
H410 C431 0.950 . S
H411 C434 0.950 . S
H412 C435 0.950 . S
H413 C437 0.950 . S
H414 C438 0.950 . S
H415 C439 0.951 . S
H416 C441 0.951 . S
H417 C443 0.950 . S
H418 C444 0.950 . S
H419 C446 0.950 . S
H420 C449 0.950 . S
H421 C450 0.950 . S
H422 C452 0.950 . S
H423 C453 0.950 . S
C424 H406 0.951 . S
C424 C425 1.366 1_655 S
C424 C426 1.388 . S
C425 C424 1.366 1_455 S
C425 C429 1.385 . S
C426 H407 0.951 . S
C426 C424 1.388 . S
C426 C427 1.366 1_655 S
C427 C426 1.366 1_455 S
C427 C428 1.414 . S
C427 C430 1.499 . S
C428 H408 0.950 . S
C428 C427 1.414 . S
C428 C429 1.374 . S
C429 H409 0.950 . S
C429 C425 1.385 . S
C429 C428 1.374 . S
C430 C427 1.499 . S
C430 C431 1.373 . S
C430 C432 1.389 1_455 S
C431 H410 0.950 . S
C431 C430 1.373 . S
C431 C447 1.377 . S
C432 C430 1.389 1_655 S
C432 C433 1.524 . S
C432 C446 1.377 . S
C433 C432 1.524 . S
C433 C434 1.397 . S
C433 C438 1.363 . S
C434 H411 0.950 . S
C434 C433 1.397 . S
C434 C435 1.334 . S
C435 H412 0.950 . S
C435 C434 1.334 . S
C435 C436 1.287 . S
C436 C435 1.287 . S
C436 C437 1.524 . S
C436 H455 0.913 . S
C437 H413 0.950 . S
C437 C436 1.524 . S
C437 C438 1.415 . S
C438 H414 0.950 . S
C438 C433 1.363 . S
C438 C437 1.415 . S
C439 H415 0.951 . S
C439 C440 1.366 . S
C439 C441 1.388 . S
C440 C439 1.366 . S
C440 C444 1.385 1_455 S
C441 H416 0.951 . S
C441 C439 1.388 . S
C441 C442 1.366 . S
C442 C441 1.366 . S
C442 C443 1.414 1_455 S
C442 C445 1.499 . S
C443 H417 0.950 . S
C443 C442 1.414 1_655 S
C443 C444 1.374 . S
C444 H418 0.950 . S
C444 C440 1.385 1_655 S
C444 C443 1.374 . S
C445 C442 1.499 . S
C445 C446 1.373 1_455 S
C445 C447 1.389 . S
C446 H419 0.950 . S
C446 C432 1.377 . S
C446 C445 1.373 1_655 S
C447 C431 1.377 . S
C447 C445 1.389 . S
C447 C448 1.524 . S
C448 C447 1.524 . S
C448 C449 1.397 . S
C448 C453 1.363 . S
C449 H420 0.950 . S
C449 C448 1.397 . S
C449 C450 1.334 . S
C450 H421 0.950 . S
C450 C449 1.334 . S
C450 C451 1.287 . S
C451 C450 1.287 . S
C451 C452 1.524 . S
C451 H454 0.999 . S
C452 H422 0.950 . S
C452 C451 1.524 . S
C452 C453 1.415 . S
C453 H423 0.950 . S
C453 C448 1.363 . S
C453 C452 1.415 . S
H454 C451 0.999 . S
H455 C436 0.913 . S
H456 C474 0.951 . S
H457 C476 0.951 . S
H458 C478 0.950 . S
H459 C479 0.950 . S
H460 C481 0.950 . S
H461 C484 0.950 . S
H462 C485 0.950 . S
H463 C487 0.950 . S
H464 C488 0.950 . S
H465 C489 0.951 . S
H466 C491 0.951 . S
H467 C493 0.950 1_554 S
H468 C494 0.950 . S
H469 C496 0.950 . S
H470 C499 0.950 1_554 S
H471 C500 0.950 . S
H472 C502 0.950 . S
H473 C503 0.950 . S
C474 H456 0.951 . S
C474 C475 1.351 1_545 S
C474 C476 1.388 . S
C475 C474 1.351 1_565 S
C475 C479 1.400 . S
C476 H457 0.951 . S
C476 C474 1.388 . S
C476 C477 1.364 . S
C477 C476 1.364 . S
C477 C478 1.415 1_545 S
C477 C480 1.499 1_545 S
C478 H458 0.950 . S
C478 C477 1.415 1_565 S
C478 C479 1.374 . S
C479 H459 0.950 . S
C479 C475 1.400 . S
C479 C478 1.374 . S
C480 C477 1.499 1_565 S
C480 C481 1.374 . S
C480 C482 1.388 1_565 S
C481 H460 0.950 . S
C481 C480 1.374 . S
C481 C497 1.377 . S
C482 C480 1.388 1_545 S
C482 C483 1.524 . S
C482 C496 1.377 . S
C483 C482 1.524 . S
C483 C484 1.397 . S
C483 C488 1.363 . S
C484 H461 0.950 . S
C484 C483 1.397 . S
C484 C485 1.334 . S
C485 H462 0.950 . S
C485 C484 1.334 . S
C485 C486 1.287 . S
C486 C485 1.287 . S
C486 C487 1.524 . S
C486 H505 0.913 . S
C487 H463 0.950 . S
C487 C486 1.524 . S
C487 C488 1.415 . S
C488 H464 0.950 . S
C488 C483 1.363 . S
C488 C487 1.415 . S
C489 H465 0.951 . S
C489 C490 1.366 . S
C489 C491 1.388 . S
C490 C489 1.366 . S
C490 C494 1.385 1_565 S
C491 H466 0.951 . S
C491 C489 1.388 . S
C491 C492 1.366 . S
C492 C491 1.366 . S
C492 C493 1.414 1_565 S
C492 C495 1.499 1_556 S
C493 H467 0.950 1_556 S
C493 C492 1.414 1_545 S
C493 C494 1.374 . S
C494 H468 0.950 . S
C494 C490 1.385 1_545 S
C494 C493 1.374 . S
C495 C492 1.499 1_554 S
C495 C496 1.373 1_565 S
C495 C497 1.389 . S
C496 H469 0.950 . S
C496 C482 1.377 . S
C496 C495 1.373 1_545 S
C497 C481 1.377 . S
C497 C495 1.389 . S
C497 C498 1.524 1_554 S
C498 C497 1.524 1_556 S
C498 C499 1.397 . S
C498 C503 1.363 . S
C499 H470 0.950 1_556 S
C499 C498 1.397 . S
C499 C500 1.334 . S
C500 H471 0.950 . S
C500 C499 1.334 . S
C500 C501 1.287 . S
C501 C500 1.287 . S
C501 C502 1.524 . S
C501 H504 0.999 . S
C502 H472 0.950 . S
C502 C501 1.524 . S
C502 C503 1.415 . S
C503 H473 0.950 . S
C503 C498 1.363 . S
C503 C502 1.415 . S
H504 C501 0.999 . S
H505 C486 0.913 . S
H506 C524 0.951 . S
H507 C526 0.951 . S
H508 C528 0.950 . S
H509 C529 0.950 . S
H510 C531 0.950 . S
H511 C534 0.950 . S
H512 C535 0.950 . S
H513 C537 0.950 . S
H514 C538 0.950 . S
H515 C539 0.951 . S
H516 C541 0.951 1_554 S
H517 C543 0.950 . S
H518 C544 0.950 . S
H519 C546 0.950 . S
H520 C549 0.950 . S
H521 C550 0.950 . S
H522 C552 0.950 . S
H523 C553 0.950 . S
C524 H506 0.951 . S
C524 C525 1.366 . S
C524 C526 1.388 . S
C525 C524 1.366 . S
C525 C529 1.385 . S
C526 H507 0.951 . S
C526 C524 1.388 . S
C526 C527 1.366 . S
C527 C526 1.366 . S
C527 C528 1.414 . S
C527 C530 1.499 . S
C528 H508 0.950 . S
C528 C527 1.414 . S
C528 C529 1.374 . S
C529 H509 0.950 . S
C529 C525 1.385 . S
C529 C528 1.374 . S
C530 C527 1.499 . S
C530 C531 1.373 . S
C530 C532 1.389 . S
C531 H510 0.950 . S
C531 C530 1.373 . S
C531 C547 1.377 . S
C532 C530 1.389 . S
C532 C533 1.524 . S
C532 C546 1.377 1_554 S
C533 C532 1.524 . S
C533 C534 1.397 . S
C533 C538 1.363 1_554 S
C534 H511 0.950 . S
C534 C533 1.397 . S
C534 C535 1.334 . S
C535 H512 0.950 . S
C535 C534 1.334 . S
C535 C536 1.287 1_554 S
C536 C535 1.287 1_556 S
C536 C537 1.524 . S
C536 H555 0.913 . S
C537 H513 0.950 . S
C537 C536 1.524 . S
C537 C538 1.415 . S
C538 H514 0.950 . S
C538 C533 1.363 1_556 S
C538 C537 1.415 . S
C539 H515 0.951 . S
C539 C540 1.366 . S
C539 C541 1.388 . S
C540 C539 1.366 . S
C540 C544 1.385 . S
C541 H516 0.951 1_556 S
C541 C539 1.388 . S
C541 C542 1.366 . S
C542 C541 1.366 . S
C542 C543 1.414 . S
C542 C545 1.499 . S
C543 H517 0.950 . S
C543 C542 1.414 . S
C543 C544 1.374 . S
C544 H518 0.950 . S
C544 C540 1.385 . S
C544 C543 1.374 . S
C545 C542 1.499 . S
C545 C546 1.373 . S
C545 C547 1.389 1_556 S
C546 H519 0.950 . S
C546 C532 1.377 1_556 S
C546 C545 1.373 . S
C547 C531 1.377 . S
C547 C545 1.389 1_554 S
C547 C548 1.524 . S
C548 C547 1.524 . S
C548 C549 1.397 . S
C548 C553 1.363 . S
C549 H520 0.950 . S
C549 C548 1.397 . S
C549 C550 1.334 . S
C550 H521 0.950 . S
C550 C549 1.334 . S
C550 C551 1.287 . S
C551 C550 1.287 . S
C551 C552 1.524 . S
C551 H554 0.999 . S
C552 H522 0.950 . S
C552 C551 1.524 . S
C552 C553 1.415 . S
C553 H523 0.950 . S
C553 C548 1.363 . S
C553 C552 1.415 . S
H554 C551 0.999 . S
H555 C536 0.913 . S
H556 C574 0.951 . S
H557 C576 0.951 . S
H558 C578 0.950 . S
H559 C579 0.950 . S
H560 C581 0.950 . S
H561 C584 0.950 . S
H562 C585 0.950 . S
H563 C587 0.950 . S
H564 C588 0.950 . S
H565 C589 0.951 . S
H566 C591 0.951 . S
H567 C593 0.950 . S
H568 C594 0.950 . S
H569 C596 0.950 . S
H570 C599 0.950 . S
H571 C600 0.950 . S
H572 C602 0.950 . S
H573 C603 0.950 . S
C574 H556 0.951 . S
C574 C575 1.366 . S
C574 C576 1.388 . S
C575 C574 1.366 . S
C575 C579 1.385 . S
C576 H557 0.951 . S
C576 C574 1.388 . S
C576 C577 1.366 . S
C577 C576 1.366 . S
C577 C578 1.414 . S
C577 C580 1.499 . S
C578 H558 0.950 . S
C578 C577 1.414 . S
C578 C579 1.374 . S
C579 H559 0.950 . S
C579 C575 1.385 . S
C579 C578 1.374 . S
C580 C577 1.499 . S
C580 C581 1.373 . S
C580 C582 1.389 . S
C581 H560 0.950 . S
C581 C580 1.373 . S
C581 C597 1.377 . S
C582 C580 1.389 . S
C582 C583 1.524 1_554 S
C582 C596 1.377 1_554 S
C583 C582 1.524 1_556 S
C583 C584 1.397 1_556 S
C583 C588 1.363 . S
C584 H561 0.950 . S
C584 C583 1.397 1_554 S
C584 C585 1.334 1_554 S
C585 H562 0.950 . S
C585 C584 1.334 1_556 S
C585 C586 1.287 . S
C586 C585 1.287 . S
C586 C587 1.524 . S
C586 H605 0.913 . S
C587 H563 0.950 . S
C587 C586 1.524 . S
C587 C588 1.415 . S
C588 H564 0.950 . S
C588 C583 1.363 . S
C588 C587 1.415 . S
C589 H565 0.951 . S
C589 C590 1.366 . S
C589 C591 1.388 . S
C590 C589 1.366 . S
C590 C594 1.385 . S
C591 H566 0.951 . S
C591 C589 1.388 . S
C591 C592 1.366 . S
C592 C591 1.366 . S
C592 C593 1.414 . S
C592 C595 1.499 1_556 S
C593 H567 0.950 . S
C593 C592 1.414 . S
C593 C594 1.374 . S
C594 H568 0.950 . S
C594 C590 1.385 . S
C594 C593 1.374 . S
C595 C592 1.499 1_554 S
C595 C596 1.373 1_554 S
C595 C597 1.389 . S
C596 H569 0.950 . S
C596 C582 1.377 1_556 S
C596 C595 1.373 1_556 S
C597 C581 1.377 . S
C597 C595 1.389 . S
C597 C598 1.524 . S
C598 C597 1.524 . S
C598 C599 1.397 . S
C598 C603 1.363 . S
C599 H570 0.950 . S
C599 C598 1.397 . S
C599 C600 1.334 . S
C600 H571 0.950 . S
C600 C599 1.334 . S
C600 C601 1.287 . S
C601 C600 1.287 . S
C601 C602 1.524 . S
C601 H604 0.999 . S
C602 H572 0.950 . S
C602 C601 1.524 . S
C602 C603 1.415 . S
C603 H573 0.950 . S
C603 C598 1.363 . S
C603 C602 1.415 . S
H604 C601 0.999 . S
H605 C586 0.913 . S
H606 C624 0.951 . S
H607 C626 0.951 . S
H608 C628 0.950 . S
H609 C629 0.950 . S
H610 C631 0.950 . S
H611 C634 0.950 . S
H612 C635 0.950 . S
H613 C637 0.950 . S
H614 C638 0.950 . S
H615 C639 0.951 . S
H616 C641 0.951 . S
H617 C643 0.950 . S
H618 C644 0.950 . S
H619 C646 0.948 1_556 S
H620 C649 0.950 . S
H621 C650 0.950 . S
H622 C652 0.950 . S
H623 C653 0.950 . S
C624 H606 0.951 . S
C624 C625 1.382 . S
C624 C626 1.388 . S
C625 C624 1.382 . S
C625 C629 1.369 1_655 S
C626 H607 0.951 . S
C626 C624 1.388 . S
C626 C627 1.366 . S
C627 C626 1.366 . S
C627 C628 1.414 1_655 S
C627 C630 1.499 . S
C628 H608 0.950 . S
C628 C627 1.414 1_455 S
C628 C629 1.374 . S
C629 H609 0.950 . S
C629 C625 1.369 1_455 S
C629 C628 1.374 . S
C630 C627 1.499 . S
C630 C631 1.373 1_655 S
C630 C632 1.389 . S
C631 H610 0.950 . S
C631 C630 1.373 1_455 S
C631 C647 1.377 . S
C632 C630 1.389 . S
C632 C633 1.524 . S
C632 C646 1.377 . S
C633 C632 1.524 . S
C633 C634 1.397 . S
C633 C638 1.363 . S
C634 H611 0.950 . S
C634 C633 1.397 . S
C634 C635 1.334 . S
C635 H612 0.950 . S
C635 C634 1.334 . S
C635 C636 1.287 . S
C636 C635 1.287 . S
C636 C637 1.524 . S
C636 H655 0.913 . S
C637 H613 0.950 . S
C637 C636 1.524 . S
C637 C638 1.415 . S
C638 H614 0.950 . S
C638 C633 1.363 . S
C638 C637 1.415 . S
C639 H615 0.951 . S
C639 C640 1.338 1_455 S
C639 C641 1.388 . S
C640 C639 1.338 1_655 S
C640 C644 1.413 . S
C641 H616 0.951 . S
C641 C639 1.388 . S
C641 C642 1.362 . S
C642 C641 1.362 . S
C642 C643 1.418 1_455 S
C642 C645 1.499 1_455 S
C643 H617 0.950 . S
C643 C642 1.418 1_655 S
C643 C644 1.374 . S
C644 H618 0.950 . S
C644 C640 1.413 . S
C644 C643 1.374 . S
C645 C642 1.499 1_655 S
C645 C646 1.383 1_556 S
C645 C647 1.380 1_656 S
C646 H619 0.948 1_554 S
C646 C632 1.377 . S
C646 C645 1.383 1_554 S
C647 C631 1.377 . S
C647 C645 1.380 1_454 S
C647 C648 1.527 . S
C648 C647 1.527 . S
C648 C649 1.390 1_554 S
C648 C653 1.367 . S
C649 H620 0.950 . S
C649 C648 1.390 1_556 S
C649 C650 1.334 . S
C650 H621 0.950 . S
C650 C649 1.334 . S
C650 C651 1.287 . S
C651 C650 1.287 . S
C651 C652 1.524 1_556 S
C651 H654 0.999 . S
C652 H622 0.950 . S
C652 C651 1.524 1_554 S
C652 C653 1.415 . S
C653 H623 0.950 . S
C653 C648 1.367 . S
C653 C652 1.415 . S
H654 C651 0.999 . S
H655 C636 0.913 . S
H656 C674 0.951 . S
H657 C676 0.951 . S
H658 C678 0.950 . S
H659 C679 0.950 . S
H660 C681 0.958 . S
H661 C684 0.950 . S
H662 C685 0.950 . S
H663 C687 0.950 . S
H664 C688 0.950 . S
H665 C689 0.946 . S
H666 C691 0.951 1_455 S
H667 C693 0.950 . S
H668 C694 0.950 . S
H669 C696 0.950 . S
H670 C699 0.950 . S
H671 C700 0.950 . S
H672 C702 0.950 . S
H673 C703 0.950 . S
C674 H656 0.951 . S
C674 C675 1.366 1_655 S
C674 C676 1.388 . S
C675 C674 1.366 1_455 S
C675 C679 1.385 . S
C676 H657 0.951 . S
C676 C674 1.388 . S
C676 C677 1.366 . S
C677 C676 1.366 . S
C677 C678 1.414 1_655 S
C677 C680 1.499 . S
C678 H658 0.950 . S
C678 C677 1.414 1_455 S
C678 C679 1.374 . S
C679 H659 0.950 . S
C679 C675 1.385 . S
C679 C678 1.374 . S
C680 C677 1.499 . S
C680 C681 1.373 . S
C680 C682 1.389 . S
C681 H660 0.958 . S
C681 C680 1.373 . S
C681 C697 1.377 . S
C682 C680 1.389 . S
C682 C683 1.524 . S
C682 C696 1.377 . S
C683 C682 1.524 . S
C683 C684 1.397 1_655 S
C683 C688 1.363 . S
C684 H661 0.950 . S
C684 C683 1.397 1_455 S
C684 C685 1.334 . S
C685 H662 0.950 . S
C685 C684 1.334 . S
C685 C686 1.287 1_455 S
C686 C685 1.287 1_655 S
C686 C687 1.524 . S
C686 H705 0.913 . S
C687 H663 0.950 . S
C687 C686 1.524 . S
C687 C688 1.415 . S
C688 H664 0.950 . S
C688 C683 1.363 . S
C688 C687 1.415 . S
C689 H665 0.946 . S
C689 C690 1.366 . S
C689 C691 1.388 . S
C690 C689 1.366 . S
C690 C694 1.385 . S
C691 H666 0.951 1_655 S
C691 C689 1.388 . S
C691 C692 1.366 . S
C692 C691 1.366 . S
C692 C693 1.414 . S
C692 C695 1.499 . S
C693 H667 0.950 . S
C693 C692 1.414 . S
C693 C694 1.374 . S
C694 H668 0.950 . S
C694 C690 1.385 . S
C694 C693 1.374 . S
C695 C692 1.499 . S
C695 C696 1.373 . S
C695 C697 1.389 . S
C696 H669 0.950 . S
C696 C682 1.377 . S
C696 C695 1.373 . S
C697 C681 1.377 . S
C697 C695 1.389 . S
C697 C698 1.524 . S
C698 C697 1.524 . S
C698 C699 1.397 . S
C698 C703 1.363 1_655 S
C699 H670 0.950 . S
C699 C698 1.397 . S
C699 C700 1.334 . S
C700 H671 0.950 . S
C700 C699 1.334 . S
C700 C701 1.287 . S
C701 C700 1.287 . S
C701 C702 1.524 1_655 S
C701 H704 0.999 . S
C702 H672 0.950 . S
C702 C701 1.524 1_455 S
C702 C703 1.415 . S
C703 H673 0.950 . S
C703 C698 1.363 1_455 S
C703 C702 1.415 . S
H704 C701 0.999 . S
H705 C686 0.913 . S
H706 C724 0.951 . S
H707 C726 0.951 . S
H708 C728 0.950 . S
H709 C729 0.950 . S
H710 C731 0.950 . S
H711 C734 0.950 . S
H712 C735 0.950 . S
H713 C737 0.950 . S
H714 C738 0.950 . S
H715 C739 0.951 . S
H716 C741 0.951 . S
H717 C743 0.950 . S
H718 C744 0.950 . S
H719 C746 0.950 . S
H720 C749 0.950 . S
H721 C750 0.950 . S
H722 C752 0.950 . S
H723 C753 0.950 . S
C724 H706 0.951 . S
C724 C725 1.366 . S
C724 C726 1.388 . S
C725 C724 1.366 . S
C725 C729 1.385 1_545 S
C726 H707 0.951 . S
C726 C724 1.388 . S
C726 C727 1.366 1_545 S
C727 C726 1.366 1_565 S
C727 C728 1.414 . S
C727 C730 1.499 . S
C728 H708 0.950 . S
C728 C727 1.414 . S
C728 C729 1.374 . S
C729 H709 0.950 . S
C729 C725 1.385 1_565 S
C729 C728 1.374 . S
C730 C727 1.499 . S
C730 C731 1.373 . S
C730 C732 1.389 1_565 S
C731 H710 0.950 . S
C731 C730 1.373 . S
C731 C747 1.377 . S
C732 C730 1.389 1_545 S
C732 C733 1.524 . S
C732 C746 1.377 . S
C733 C732 1.524 . S
C733 C734 1.397 . S
C733 C738 1.363 . S
C734 H711 0.950 . S
C734 C733 1.397 . S
C734 C735 1.334 . S
C735 H712 0.950 . S
C735 C734 1.334 . S
C735 C736 1.287 . S
C736 C735 1.287 . S
C736 C737 1.524 . S
C736 H755 0.913 . S
C737 H713 0.950 . S
C737 C736 1.524 . S
C737 C738 1.415 . S
C738 H714 0.950 . S
C738 C733 1.363 . S
C738 C737 1.415 . S
C739 H715 0.951 . S
C739 C740 1.366 . S
C739 C741 1.388 . S
C740 C739 1.366 . S
C740 C744 1.385 . S
C741 H716 0.951 . S
C741 C739 1.388 . S
C741 C742 1.366 . S
C742 C741 1.366 . S
C742 C743 1.414 . S
C742 C745 1.499 . S
C743 H717 0.950 . S
C743 C742 1.414 . S
C743 C744 1.374 . S
C744 H718 0.950 . S
C744 C740 1.385 . S
C744 C743 1.374 . S
C745 C742 1.499 . S
C745 C746 1.373 1_565 S
C745 C747 1.389 . S
C746 H719 0.950 . S
C746 C732 1.377 . S
C746 C745 1.373 1_545 S
C747 C731 1.377 . S
C747 C745 1.389 . S
C747 C748 1.524 . S
C748 C747 1.524 . S
C748 C749 1.397 . S
C748 C753 1.363 . S
C749 H720 0.950 . S
C749 C748 1.397 . S
C749 C750 1.334 . S
C750 H721 0.950 . S
C750 C749 1.334 . S
C750 C751 1.287 . S
C751 C750 1.287 . S
C751 C752 1.524 . S
C751 H754 0.999 . S
C752 H722 0.950 . S
C752 C751 1.524 . S
C752 C753 1.415 . S
C753 H723 0.950 . S
C753 C748 1.363 . S
C753 C752 1.415 . S
H754 C751 0.999 . S
H755 C736 0.913 . S
H756 C774 0.951 . S
H757 C776 0.951 . S
H758 C778 0.950 . S
H759 C779 0.950 . S
H760 C781 0.950 . S
H761 C784 0.950 . S
H762 C785 0.950 . S
H763 C787 0.950 1_556 S
H764 C788 0.950 . S
H765 C789 0.951 . S
H766 C791 0.951 . S
H767 C793 0.950 . S
H768 C794 0.950 . S
H769 C796 0.950 . S
H770 C799 0.950 . S
H771 C800 0.950 . S
H772 C802 0.950 . S
H773 C803 0.950 . S
C774 H756 0.951 . S
C774 C775 1.366 . S
C774 C776 1.388 . S
C775 C774 1.366 . S
C775 C779 1.385 . S
C776 H757 0.951 . S
C776 C774 1.388 . S
C776 C777 1.366 . S
C777 C776 1.366 . S
C777 C778 1.414 . S
C777 C780 1.499 . S
C778 H758 0.950 . S
C778 C777 1.414 . S
C778 C779 1.374 . S
C779 H759 0.950 . S
C779 C775 1.385 . S
C779 C778 1.374 . S
C780 C777 1.499 . S
C780 C781 1.373 . S
C780 C782 1.389 . S
C781 H760 0.950 . S
C781 C780 1.373 . S
C781 C797 1.377 . S
C782 C780 1.389 . S
C782 C783 1.524 . S
C782 C796 1.377 . S
C783 C782 1.524 . S
C783 C784 1.397 . S
C783 C788 1.363 . S
C784 H761 0.950 . S
C784 C783 1.397 . S
C784 C785 1.334 . S
C785 H762 0.950 . S
C785 C784 1.334 . S
C785 C786 1.287 . S
C786 C785 1.287 . S
C786 C787 1.524 . S
C786 H805 0.913 . S
C787 H763 0.950 1_554 S
C787 C786 1.524 . S
C787 C788 1.415 . S
C788 H764 0.950 . S
C788 C783 1.363 . S
C788 C787 1.415 . S
C789 H765 0.951 . S
C789 C790 1.366 . S
C789 C791 1.388 . S
C790 C789 1.366 . S
C790 C794 1.385 . S
C791 H766 0.951 . S
C791 C789 1.388 . S
C791 C792 1.366 . S
C792 C791 1.366 . S
C792 C793 1.414 . S
C792 C795 1.499 . S
C793 H767 0.950 . S
C793 C792 1.414 . S
C793 C794 1.374 . S
C794 H768 0.950 . S
C794 C790 1.385 . S
C794 C793 1.374 . S
C795 C792 1.499 . S
C795 C796 1.373 . S
C795 C797 1.389 . S
C796 H769 0.950 . S
C796 C782 1.377 . S
C796 C795 1.373 . S
C797 C781 1.377 . S
C797 C795 1.389 . S
C797 C798 1.524 . S
C798 C797 1.524 . S
C798 C799 1.397 . S
C798 C803 1.363 . S
C799 H770 0.950 . S
C799 C798 1.397 . S
C799 C800 1.334 . S
C800 H771 0.950 . S
C800 C799 1.334 . S
C800 C801 1.287 . S
C801 C800 1.287 . S
C801 C802 1.524 . S
C801 H804 0.999 . S
C802 H772 0.950 . S
C802 C801 1.524 . S
C802 C803 1.415 . S
C803 H773 0.950 . S
C803 C798 1.363 . S
C803 C802 1.415 . S
H804 C801 0.999 . S
H805 C786 0.913 . S
H806 C824 0.951 . S
H807 C826 0.951 . S
H808 C828 0.950 . S
H809 C829 0.950 . S
H810 C831 0.950 . S
H811 C834 0.950 . S
H812 C835 0.950 . S
H813 C837 0.950 . S
H814 C838 0.950 . S
H815 C839 0.951 . S
H816 C841 0.951 . S
H817 C843 0.950 . S
H818 C844 0.950 . S
H819 C846 0.950 . S
H820 C849 0.950 . S
H821 C850 0.950 . S
H822 C852 0.950 . S
H823 C853 0.950 . S
C824 H806 0.951 . S
C824 C825 1.366 . S
C824 C826 1.388 . S
C825 C824 1.366 . S
C825 C829 1.385 . S
C826 H807 0.951 . S
C826 C824 1.388 . S
C826 C827 1.366 . S
C827 C826 1.366 . S
C827 C828 1.414 . S
C827 C830 1.499 . S
C828 H808 0.950 . S
C828 C827 1.414 . S
C828 C829 1.374 . S
C829 H809 0.950 . S
C829 C825 1.385 . S
C829 C828 1.374 . S
C830 C827 1.499 . S
C830 C831 1.373 . S
C830 C832 1.389 . S
C831 H810 0.950 . S
C831 C830 1.373 . S
C831 C847 1.377 . S
C832 C830 1.389 . S
C832 C833 1.524 . S
C832 C846 1.377 . S
C833 C832 1.524 . S
C833 C834 1.397 . S
C833 C838 1.363 . S
C834 H811 0.950 . S
C834 C833 1.397 . S
C834 C835 1.334 1_554 S
C835 H812 0.950 . S
C835 C834 1.334 1_556 S
C835 C836 1.287 . S
C836 C835 1.287 . S
C836 C837 1.524 . S
C836 H855 0.913 . S
C837 H813 0.950 . S
C837 C836 1.524 . S
C837 C838 1.415 1_556 S
C838 H814 0.950 . S
C838 C833 1.363 . S
C838 C837 1.415 1_554 S
C839 H815 0.951 . S
C839 C840 1.366 . S
C839 C841 1.388 . S
C840 C839 1.366 . S
C840 C844 1.385 . S
C841 H816 0.951 . S
C841 C839 1.388 . S
C841 C842 1.366 . S
C842 C841 1.366 . S
C842 C843 1.414 . S
C842 C845 1.499 . S
C843 H817 0.950 . S
C843 C842 1.414 . S
C843 C844 1.374 . S
C844 H818 0.950 . S
C844 C840 1.385 . S
C844 C843 1.374 . S
C845 C842 1.499 . S
C845 C846 1.373 . S
C845 C847 1.389 . S
C846 H819 0.950 . S
C846 C832 1.377 . S
C846 C845 1.373 . S
C847 C831 1.377 . S
C847 C845 1.389 . S
C847 C848 1.524 . S
C848 C847 1.524 . S
C848 C849 1.397 . S
C848 C853 1.363 . S
C849 H820 0.950 . S
C849 C848 1.397 . S
C849 C850 1.334 . S
C850 H821 0.950 . S
C850 C849 1.334 . S
C850 C851 1.287 . S
C851 C850 1.287 . S
C851 C852 1.524 . S
C851 H854 0.999 . S
C852 H822 0.950 . S
C852 C851 1.524 . S
C852 C853 1.415 . S
C853 H823 0.950 . S
C853 C848 1.363 . S
C853 C852 1.415 . S
H854 C851 0.999 . S
H855 C836 0.913 . S
H856 C874 0.951 . S
H857 C876 0.951 . S
H858 C878 0.950 . S
H859 C879 0.950 . S
H860 C881 0.952 1_655 S
H861 C884 0.950 1_655 S
H862 C885 0.950 1_655 S
H863 C887 0.950 . S
H864 C888 0.950 . S
H865 C889 0.960 . S
H866 C891 0.951 1_655 S
H867 C893 0.950 . S
H868 C894 0.950 . S
H869 C896 0.950 . S
H870 C899 0.950 . S
H871 C900 0.950 . S
H872 C902 0.950 . S
H873 C903 0.950 . S
C874 H856 0.951 . S
C874 C875 1.366 1_455 S
C874 C876 1.388 . S
C875 C874 1.366 1_655 S
C875 C879 1.385 . S
C876 H857 0.951 . S
C876 C874 1.388 . S
C876 C877 1.366 . S
C877 C876 1.366 . S
C877 C878 1.414 1_455 S
C877 C880 1.499 . S
C878 H858 0.950 . S
C878 C877 1.414 1_655 S
C878 C879 1.374 . S
C879 H859 0.950 . S
C879 C875 1.385 . S
C879 C878 1.374 . S
C880 C877 1.499 . S
C880 C881 1.373 . S
C880 C882 1.389 . S
C881 H860 0.952 1_455 S
C881 C880 1.373 . S
C881 C897 1.377 . S
C882 C880 1.389 . S
C882 C883 1.524 . S
C882 C896 1.377 . S
C883 C882 1.524 . S
C883 C884 1.397 . S
C883 C888 1.363 . S
C884 H861 0.950 1_455 S
C884 C883 1.397 . S
C884 C885 1.334 . S
C885 H862 0.950 1_455 S
C885 C884 1.334 . S
C885 C886 1.287 . S
C886 C885 1.287 . S
C886 C887 1.524 . S
C886 H905 0.913 . S
C887 H863 0.950 . S
C887 C886 1.524 . S
C887 C888 1.415 . S
C888 H864 0.950 . S
C888 C883 1.363 . S
C888 C887 1.415 . S
C889 H865 0.960 . S
C889 C890 1.366 . S
C889 C891 1.388 1_556 S
C890 C889 1.366 . S
C890 C894 1.385 1_556 S
C891 H866 0.951 1_455 S
C891 C889 1.388 1_554 S
C891 C892 1.366 . S
C892 C891 1.366 . S
C892 C893 1.414 . S
C892 C895 1.499 . S
C893 H867 0.950 . S
C893 C892 1.414 . S
C893 C894 1.374 . S
C894 H868 0.950 . S
C894 C890 1.385 1_554 S
C894 C893 1.374 . S
C895 C892 1.499 . S
C895 C896 1.373 . S
C895 C897 1.389 . S
C896 H869 0.950 . S
C896 C882 1.377 . S
C896 C895 1.373 . S
C897 C881 1.377 . S
C897 C895 1.389 . S
C897 C898 1.524 1_554 S
C898 C897 1.524 1_556 S
C898 C899 1.397 . S
C898 C903 1.363 1_455 S
C899 H870 0.950 . S
C899 C898 1.397 . S
C899 C900 1.334 . S
C900 H871 0.950 . S
C900 C899 1.334 . S
C900 C901 1.287 . S
C901 C900 1.287 . S
C901 C902 1.524 1_455 S
C901 H904 0.999 . S
C902 H872 0.950 . S
C902 C901 1.524 1_655 S
C902 C903 1.415 . S
C903 H873 0.950 . S
C903 C898 1.363 1_655 S
C903 C902 1.415 . S
H904 C901 0.999 . S
H905 C886 0.913 . S
H906 C924 0.951 . S
H907 C926 0.951 . S
H908 C928 0.950 . S
H909 C929 0.950 . S
H910 C931 0.950 . S
H911 C934 0.950 . S
H912 C935 0.950 . S
H913 C937 0.950 . S
H914 C938 0.950 . S
H915 C939 0.951 . S
H916 C941 0.951 . S
H917 C943 0.950 . S
H918 C944 0.950 . S
H919 C946 0.950 . S
H920 C949 0.950 . S
H921 C950 0.950 . S
H922 C952 0.950 1_556 S
H923 C953 0.950 . S
C924 H906 0.951 . S
C924 C925 1.366 . S
C924 C926 1.388 . S
C925 C924 1.366 . S
C925 C929 1.385 1_565 S
C926 H907 0.951 . S
C926 C924 1.388 . S
C926 C927 1.366 1_565 S
C927 C926 1.366 1_545 S
C927 C928 1.414 . S
C927 C930 1.499 . S
C928 H908 0.950 . S
C928 C927 1.414 . S
C928 C929 1.374 . S
C929 H909 0.950 . S
C929 C925 1.385 1_545 S
C929 C928 1.374 . S
C930 C927 1.499 . S
C930 C931 1.373 . S
C930 C932 1.389 1_545 S
C931 H910 0.950 . S
C931 C930 1.373 . S
C931 C947 1.377 . S
C932 C930 1.389 1_565 S
C932 C933 1.524 . S
C932 C946 1.377 . S
C933 C932 1.524 . S
C933 C934 1.397 . S
C933 C938 1.363 . S
C934 H911 0.950 . S
C934 C933 1.397 . S
C934 C935 1.334 . S
C935 H912 0.950 . S
C935 C934 1.334 . S
C935 C936 1.287 . S
C936 C935 1.287 . S
C936 C937 1.524 . S
C936 H955 0.913 . S
C937 H913 0.950 . S
C937 C936 1.524 . S
C937 C938 1.415 . S
C938 H914 0.950 . S
C938 C933 1.363 . S
C938 C937 1.415 . S
C939 H915 0.951 . S
C939 C940 1.366 . S
C939 C941 1.388 . S
C940 C939 1.366 . S
C940 C944 1.385 1_556 S
C941 H916 0.951 . S
C941 C939 1.388 . S
C941 C942 1.366 1_556 S
C942 C941 1.366 1_554 S
C942 C943 1.414 . S
C942 C945 1.499 . S
C943 H917 0.950 . S
C943 C942 1.414 . S
C943 C944 1.374 . S
C944 H918 0.950 . S
C944 C940 1.385 1_554 S
C944 C943 1.374 . S
C945 C942 1.499 . S
C945 C946 1.373 1_545 S
C945 C947 1.389 . S
C946 H919 0.950 . S
C946 C932 1.377 . S
C946 C945 1.373 1_565 S
C947 C931 1.377 . S
C947 C945 1.389 . S
C947 C948 1.524 . S
C948 C947 1.524 . S
C948 C949 1.397 . S
C948 C953 1.363 . S
C949 H920 0.950 . S
C949 C948 1.397 . S
C949 C950 1.334 . S
C950 H921 0.950 . S
C950 C949 1.334 . S
C950 C951 1.287 . S
C951 C950 1.287 . S
C951 C952 1.524 . S
C951 H954 0.999 . S
C952 H922 0.950 1_554 S
C952 C951 1.524 . S
C952 C953 1.415 . S
C953 H923 0.950 . S
C953 C948 1.363 . S
C953 C952 1.415 . S
H954 C951 0.999 . S
H955 C936 0.913 . S
H956 C974 0.951 . S
H957 C976 0.951 . S
H958 C978 0.950 . S
H959 C979 0.950 . S
H960 C981 0.950 . S
H961 C984 0.950 . S
H962 C985 0.950 . S
H963 C987 0.950 . S
H964 C988 0.950 . S
H965 C989 0.951 . S
H966 C991 0.951 . S
H967 C993 0.950 1_556 S
H968 C994 0.950 . S
H969 C996 0.950 . S
H970 C999 0.950 . S
H971 C1000 0.950 . S
H972 C1002 0.950 . S
H973 C1003 0.950 . S
C974 H956 0.951 . S
C974 C975 1.366 . S
C974 C976 1.388 . S
C975 C974 1.366 . S
C975 C979 1.385 . S
C976 H957 0.951 . S
C976 C974 1.388 . S
C976 C977 1.366 . S
C977 C976 1.366 . S
C977 C978 1.414 . S
C977 C980 1.499 . S
C978 H958 0.950 . S
C978 C977 1.414 . S
C978 C979 1.374 . S
C979 H959 0.950 . S
C979 C975 1.385 . S
C979 C978 1.374 . S
C980 C977 1.499 . S
C980 C981 1.373 . S
C980 C982 1.389 . S
C981 H960 0.950 . S
C981 C980 1.373 . S
C981 C997 1.377 . S
C982 C980 1.389 . S
C982 C983 1.524 . S
C982 C996 1.377 . S
C983 C982 1.524 . S
C983 C984 1.397 . S
C983 C988 1.363 . S
C984 H961 0.950 . S
C984 C983 1.397 . S
C984 C985 1.334 . S
C985 H962 0.950 . S
C985 C984 1.334 . S
C985 C986 1.287 . S
C986 C985 1.287 . S
C986 C987 1.524 . S
C986 H1005 0.913 . S
C987 H963 0.950 . S
C987 C986 1.524 . S
C987 C988 1.415 . S
C988 H964 0.950 . S
C988 C983 1.363 . S
C988 C987 1.415 . S
C989 H965 0.951 . S
C989 C990 1.366 1_554 S
C989 C991 1.388 . S
C990 C989 1.366 1_556 S
C990 C994 1.385 . S
C991 H966 0.951 . S
C991 C989 1.388 . S
C991 C992 1.366 . S
C992 C991 1.366 . S
C992 C993 1.414 . S
C992 C995 1.499 . S
C993 H967 0.950 1_554 S
C993 C992 1.414 . S
C993 C994 1.374 1_554 S
C994 H968 0.950 . S
C994 C990 1.385 . S
C994 C993 1.374 1_556 S
C995 C992 1.499 . S
C995 C996 1.373 . S
C995 C997 1.389 . S
C996 H969 0.950 . S
C996 C982 1.377 . S
C996 C995 1.373 . S
C997 C981 1.377 . S
C997 C995 1.389 . S
C997 C998 1.524 . S
C998 C997 1.524 . S
C998 C999 1.397 1_554 S
C998 C1003 1.363 . S
C999 H970 0.950 . S
C999 C998 1.397 1_556 S
C999 C1000 1.334 . S
C1000 H971 0.950 . S
C1000 C999 1.334 . S
C1000 C1001 1.287 . S
C1001 C1000 1.287 . S
C1001 C1002 1.524 1_556 S
C1001 H1004 0.999 . S
C1002 H972 0.950 . S
C1002 C1001 1.524 1_554 S
C1002 C1003 1.415 . S
C1003 H973 0.950 . S
C1003 C998 1.363 . S
C1003 C1002 1.415 . S
H1004 C1001 0.999 . S
H1005 C986 0.913 . S
H1006 C1024 0.951 . S
H1007 C1026 0.951 . S
H1008 C1028 0.950 . S
H1009 C1029 0.950 . S
H1010 C1031 0.950 . S
H1011 C1034 0.950 . S
H1012 C1035 0.950 . S
H1013 C1037 0.950 . S
H1014 C1038 0.950 . S
H1015 C1039 0.951 . S
H1016 C1041 0.951 . S
H1017 C1043 0.950 . S
H1018 C1044 0.950 . S
H1019 C1046 0.950 . S
H1020 C1049 0.950 . S
H1021 C1050 0.950 . S
H1022 C1052 0.950 . S
H1023 C1053 0.950 . S
C1024 H1006 0.951 . S
C1024 C1025 1.366 . S
C1024 C1026 1.388 . S
C1025 C1024 1.366 . S
C1025 C1029 1.385 . S
C1026 H1007 0.951 . S
C1026 C1024 1.388 . S
C1026 C1027 1.366 . S
C1027 C1026 1.366 . S
C1027 C1028 1.414 . S
C1027 C1030 1.499 . S
C1028 H1008 0.950 . S
C1028 C1027 1.414 . S
C1028 C1029 1.374 . S
C1029 H1009 0.950 . S
C1029 C1025 1.385 . S
C1029 C1028 1.374 . S
C1030 C1027 1.499 . S
C1030 C1031 1.373 . S
C1030 C1032 1.389 . S
C1031 H1010 0.950 . S
C1031 C1030 1.373 . S
C1031 C1047 1.377 . S
C1032 C1030 1.389 . S
C1032 C1033 1.524 . S
C1032 C1046 1.377 . S
C1033 C1032 1.524 . S
C1033 C1034 1.397 . S
C1033 C1038 1.363 . S
C1034 H1011 0.950 . S
C1034 C1033 1.397 . S
C1034 C1035 1.334 . S
C1035 H1012 0.950 . S
C1035 C1034 1.334 . S
C1035 C1036 1.287 . S
C1036 C1035 1.287 . S
C1036 C1037 1.524 . S
C1036 H1055 0.913 . S
C1037 H1013 0.950 . S
C1037 C1036 1.524 . S
C1037 C1038 1.415 . S
C1038 H1014 0.950 . S
C1038 C1033 1.363 . S
C1038 C1037 1.415 . S
C1039 H1015 0.951 . S
C1039 C1040 1.366 1_554 S
C1039 C1041 1.388 . S
C1040 C1039 1.366 1_556 S
C1040 C1044 1.385 . S
C1041 H1016 0.951 . S
C1041 C1039 1.388 . S
C1041 C1042 1.366 . S
C1042 C1041 1.366 . S
C1042 C1043 1.414 . S
C1042 C1045 1.499 . S
C1043 H1017 0.950 . S
C1043 C1042 1.414 . S
C1043 C1044 1.374 1_554 S
C1044 H1018 0.950 . S
C1044 C1040 1.385 . S
C1044 C1043 1.374 1_556 S
C1045 C1042 1.499 . S
C1045 C1046 1.373 . S
C1045 C1047 1.389 . S
C1046 H1019 0.950 . S
C1046 C1032 1.377 . S
C1046 C1045 1.373 . S
C1047 C1031 1.377 . S
C1047 C1045 1.389 . S
C1047 C1048 1.524 . S
C1048 C1047 1.524 . S
C1048 C1049 1.397 1_554 S
C1048 C1053 1.363 . S
C1049 H1020 0.950 . S
C1049 C1048 1.397 1_556 S
C1049 C1050 1.334 . S
C1050 H1021 0.950 . S
C1050 C1049 1.334 . S
C1050 C1051 1.287 . S
C1051 C1050 1.287 . S
C1051 C1052 1.524 . S
C1051 H1054 0.999 . S
C1052 H1022 0.950 . S
C1052 C1051 1.524 . S
C1052 C1053 1.415 1_556 S
C1053 H1023 0.950 . S
C1053 C1048 1.363 . S
C1053 C1052 1.415 1_554 S
H1054 C1051 0.999 . S
H1055 C1036 0.913 . S
H1056 C1074 0.951 . S
H1057 C1076 0.951 . S
H1058 C1078 0.950 . S
H1059 C1079 0.950 . S
H1060 C1081 0.950 . S
H1061 C1084 0.950 . S
H1062 C1085 0.950 . S
H1063 C1087 0.950 . S
H1064 C1088 0.950 1_556 S
H1065 C1089 0.951 . S
H1066 C1091 0.951 . S
H1067 C1093 0.950 . S
H1068 C1094 0.950 . S
H1069 C1096 0.961 . S
H1070 C1099 0.950 1_655 S
H1071 C1100 0.950 1_655 S
H1072 C1102 0.950 . S
H1073 C1103 0.950 . S
C1074 H1056 0.951 . S
C1074 C1075 1.366 1_655 S
C1074 C1076 1.388 . S
C1075 C1074 1.366 1_455 S
C1075 C1079 1.385 . S
C1076 H1057 0.951 . S
C1076 C1074 1.388 . S
C1076 C1077 1.366 1_655 S
C1077 C1076 1.366 1_455 S
C1077 C1078 1.414 . S
C1077 C1080 1.499 . S
C1078 H1058 0.950 . S
C1078 C1077 1.414 . S
C1078 C1079 1.374 . S
C1079 H1059 0.950 . S
C1079 C1075 1.385 . S
C1079 C1078 1.374 . S
C1080 C1077 1.499 . S
C1080 C1081 1.373 . S
C1080 C1082 1.385 1_455 S
C1081 H1060 0.950 . S
C1081 C1080 1.373 . S
C1081 C1097 1.377 . S
C1082 C1080 1.385 1_655 S
C1082 C1083 1.528 . S
C1082 C1096 1.376 . S
C1083 C1082 1.528 . S
C1083 C1084 1.397 1_656 S
C1083 C1088 1.363 1_556 S
C1084 H1061 0.950 . S
C1084 C1083 1.397 1_454 S
C1084 C1085 1.334 . S
C1085 H1062 0.950 . S
C1085 C1084 1.334 . S
C1085 C1086 1.287 1_455 S
C1086 C1085 1.287 1_655 S
C1086 C1087 1.524 . S
C1086 H1105 0.913 . S
C1087 H1063 0.950 . S
C1087 C1086 1.524 . S
C1087 C1088 1.415 . S
C1088 H1064 0.950 1_554 S
C1088 C1083 1.363 1_554 S
C1088 C1087 1.415 . S
C1089 H1065 0.951 . S
C1089 C1090 1.366 . S
C1089 C1091 1.388 . S
C1090 C1089 1.366 . S
C1090 C1094 1.385 1_455 S
C1091 H1066 0.951 . S
C1091 C1089 1.388 . S
C1091 C1092 1.366 . S
C1092 C1091 1.366 . S
C1092 C1093 1.414 1_455 S
C1092 C1095 1.499 . S
C1093 H1067 0.950 . S
C1093 C1092 1.414 1_655 S
C1093 C1094 1.374 . S
C1094 H1068 0.950 . S
C1094 C1090 1.385 1_655 S
C1094 C1093 1.374 . S
C1095 C1092 1.499 . S
C1095 C1096 1.364 1_455 S
C1095 C1097 1.389 . S
C1096 H1069 0.961 . S
C1096 C1082 1.376 . S
C1096 C1095 1.364 1_655 S
C1097 C1081 1.377 . S
C1097 C1095 1.389 . S
C1097 C1098 1.524 . S
C1098 C1097 1.524 . S
C1098 C1099 1.397 . S
C1098 C1103 1.363 . S
C1099 H1070 0.950 1_455 S
C1099 C1098 1.397 . S
C1099 C1100 1.334 . S
C1100 H1071 0.950 1_455 S
C1100 C1099 1.334 . S
C1100 C1101 1.287 . S
C1101 C1100 1.287 . S
C1101 C1102 1.524 . S
C1101 H1104 0.999 . S
C1102 H1072 0.950 . S
C1102 C1101 1.524 . S
C1102 C1103 1.415 . S
C1103 H1073 0.950 . S
C1103 C1098 1.363 . S
C1103 C1102 1.415 . S
H1104 C1101 0.999 . S
H1105 C1086 0.913 . S
H1106 C1124 0.951 . S
H1107 C1126 0.951 . S
H1108 C1128 0.950 . S
H1109 C1129 0.950 . S
H1110 C1131 0.948 1_565 S
H1111 C1134 0.950 . S
H1112 C1135 0.950 . S
H1113 C1137 0.950 . S
H1114 C1138 0.950 . S
H1115 C1139 0.951 . S
H1116 C1141 0.951 . S
H1117 C1143 0.950 . S
H1118 C1144 0.965 . S
H1119 C1146 0.950 . S
H1120 C1149 0.950 . S
H1121 C1150 0.950 . S
H1122 C1152 0.950 . S
H1123 C1153 0.950 1_545 S
C1124 H1106 0.951 . S
C1124 C1125 1.366 1_565 S
C1124 C1126 1.388 . S
C1125 C1124 1.366 1_545 S
C1125 C1129 1.385 . S
C1126 H1107 0.951 . S
C1126 C1124 1.388 . S
C1126 C1127 1.366 1_565 S
C1127 C1126 1.366 1_545 S
C1127 C1128 1.414 . S
C1127 C1130 1.499 . S
C1128 H1108 0.950 . S
C1128 C1127 1.414 . S
C1128 C1129 1.374 . S
C1129 H1109 0.950 . S
C1129 C1125 1.385 . S
C1129 C1128 1.374 . S
C1130 C1127 1.499 . S
C1130 C1131 1.376 . S
C1130 C1132 1.389 . S
C1131 H1110 0.948 1_545 S
C1131 C1130 1.376 . S
C1131 C1147 1.376 1_545 S
C1132 C1130 1.389 . S
C1132 C1133 1.524 . S
C1132 C1146 1.377 . S
C1133 C1132 1.524 . S
C1133 C1134 1.397 . S
C1133 C1138 1.363 1_556 S
C1134 H1111 0.950 . S
C1134 C1133 1.397 . S
C1134 C1135 1.334 1_556 S
C1135 H1112 0.950 . S
C1135 C1134 1.334 1_554 S
C1135 C1136 1.287 . S
C1136 C1135 1.287 . S
C1136 C1137 1.524 . S
C1136 H1155 0.913 . S
C1137 H1113 0.950 . S
C1137 C1136 1.524 . S
C1137 C1138 1.415 . S
C1138 H1114 0.950 . S
C1138 C1133 1.363 1_554 S
C1138 C1137 1.415 . S
C1139 H1115 0.951 . S
C1139 C1140 1.366 . S
C1139 C1141 1.388 . S
C1140 C1139 1.366 . S
C1140 C1144 1.368 1_545 S
C1141 H1116 0.951 . S
C1141 C1139 1.388 . S
C1141 C1142 1.366 . S
C1142 C1141 1.366 . S
C1142 C1143 1.414 1_545 S
C1142 C1145 1.499 . S
C1143 H1117 0.950 . S
C1143 C1142 1.414 1_565 S
C1143 C1144 1.376 . S
C1144 H1118 0.965 . S
C1144 C1140 1.368 1_565 S
C1144 C1143 1.376 . S
C1145 C1142 1.499 . S
C1145 C1146 1.373 . S
C1145 C1147 1.386 1_545 S
C1146 H1119 0.950 . S
C1146 C1132 1.377 . S
C1146 C1145 1.373 . S
C1147 C1131 1.376 1_565 S
C1147 C1145 1.386 1_565 S
C1147 C1148 1.529 . S
C1148 C1147 1.529 . S
C1148 C1149 1.397 . S
C1148 C1153 1.363 . S
C1149 H1120 0.950 . S
C1149 C1148 1.397 . S
C1149 C1150 1.334 . S
C1150 H1121 0.950 . S
C1150 C1149 1.334 . S
C1150 C1151 1.287 . S
C1151 C1150 1.287 . S
C1151 C1152 1.524 . S
C1151 H1154 0.999 . S
C1152 H1122 0.950 . S
C1152 C1151 1.524 . S
C1152 C1153 1.415 . S
C1153 H1123 0.950 1_565 S
C1153 C1148 1.363 . S
C1153 C1152 1.415 . S
H1154 C1151 0.999 . S
H1155 C1136 0.913 . S
H1156 C1174 0.951 . S
H1157 C1176 0.951 . S
H1158 C1178 0.950 . S
H1159 C1179 0.950 . S
H1160 C1181 0.950 . S
H1161 C1184 0.950 . S
H1162 C1185 0.950 . S
H1163 C1187 0.950 . S
H1164 C1188 0.950 . S
H1165 C1189 0.951 . S
H1166 C1191 0.951 . S
H1167 C1193 0.950 . S
H1168 C1194 0.950 . S
H1169 C1196 0.950 . S
H1170 C1199 0.950 . S
H1171 C1200 0.950 . S
H1172 C1202 0.950 . S
H1173 C1203 0.950 . S
C1174 H1156 0.951 . S
C1174 C1175 1.366 . S
C1174 C1176 1.388 . S
C1175 C1174 1.366 . S
C1175 C1179 1.385 . S
C1176 H1157 0.951 . S
C1176 C1174 1.388 . S
C1176 C1177 1.366 . S
C1177 C1176 1.366 . S
C1177 C1178 1.414 . S
C1177 C1180 1.499 . S
C1178 H1158 0.950 . S
C1178 C1177 1.414 . S
C1178 C1179 1.374 . S
C1179 H1159 0.950 . S
C1179 C1175 1.385 . S
C1179 C1178 1.374 . S
C1180 C1177 1.499 . S
C1180 C1181 1.373 . S
C1180 C1182 1.389 . S
C1181 H1160 0.950 . S
C1181 C1180 1.373 . S
C1181 C1197 1.377 . S
C1182 C1180 1.389 . S
C1182 C1183 1.524 . S
C1182 C1196 1.377 . S
C1183 C1182 1.524 . S
C1183 C1184 1.397 . S
C1183 C1188 1.363 . S
C1184 H1161 0.950 . S
C1184 C1183 1.397 . S
C1184 C1185 1.334 . S
C1185 H1162 0.950 . S
C1185 C1184 1.334 . S
C1185 C1186 1.287 . S
C1186 C1185 1.287 . S
C1186 C1187 1.524 . S
C1186 H1205 0.913 . S
C1187 H1163 0.950 . S
C1187 C1186 1.524 . S
C1187 C1188 1.415 . S
C1188 H1164 0.950 . S
C1188 C1183 1.363 . S
C1188 C1187 1.415 . S
C1189 H1165 0.951 . S
C1189 C1190 1.366 . S
C1189 C1191 1.388 . S
C1190 C1189 1.366 . S
C1190 C1194 1.385 . S
C1191 H1166 0.951 . S
C1191 C1189 1.388 . S
C1191 C1192 1.366 . S
C1192 C1191 1.366 . S
C1192 C1193 1.414 . S
C1192 C1195 1.499 . S
C1193 H1167 0.950 . S
C1193 C1192 1.414 . S
C1193 C1194 1.374 . S
C1194 H1168 0.950 . S
C1194 C1190 1.385 . S
C1194 C1193 1.374 . S
C1195 C1192 1.499 . S
C1195 C1196 1.373 . S
C1195 C1197 1.389 . S
C1196 H1169 0.950 . S
C1196 C1182 1.377 . S
C1196 C1195 1.373 . S
C1197 C1181 1.377 . S
C1197 C1195 1.389 . S
C1197 C1198 1.524 . S
C1198 C1197 1.524 . S
C1198 C1199 1.397 . S
C1198 C1203 1.363 1_556 S
C1199 H1170 0.950 . S
C1199 C1198 1.397 . S
C1199 C1200 1.334 1_556 S
C1200 H1171 0.950 . S
C1200 C1199 1.334 1_554 S
C1200 C1201 1.287 . S
C1201 C1200 1.287 . S
C1201 C1202 1.524 . S
C1201 H1204 0.999 . S
C1202 H1172 0.950 . S
C1202 C1201 1.524 . S
C1202 C1203 1.415 . S
C1203 H1173 0.950 . S
C1203 C1198 1.363 1_554 S
C1203 C1202 1.415 . S
H1204 C1201 0.999 . S
H1205 C1186 0.913 . S
H1206 C1224 0.951 . S
H1207 C1226 0.951 . S
H1208 C1228 0.950 . S
H1209 C1229 0.950 . S
H1210 C1231 0.950 . S
H1211 C1234 0.950 . S
H1212 C1235 0.950 . S
H1213 C1237 0.950 . S
H1214 C1238 0.950 . S
H1215 C1239 0.951 . S
H1216 C1241 0.951 . S
H1217 C1243 0.950 . S
H1218 C1244 0.950 . S
H1219 C1246 0.950 . S
H1220 C1249 0.950 . S
H1221 C1250 0.950 . S
H1222 C1252 0.950 . S
H1223 C1253 0.950 . S
C1224 H1206 0.951 . S
C1224 C1225 1.366 . S
C1224 C1226 1.388 . S
C1225 C1224 1.366 . S
C1225 C1229 1.385 . S
C1226 H1207 0.951 . S
C1226 C1224 1.388 . S
C1226 C1227 1.366 . S
C1227 C1226 1.366 . S
C1227 C1228 1.414 . S
C1227 C1230 1.499 . S
C1228 H1208 0.950 . S
C1228 C1227 1.414 . S
C1228 C1229 1.374 . S
C1229 H1209 0.950 . S
C1229 C1225 1.385 . S
C1229 C1228 1.374 . S
C1230 C1227 1.499 . S
C1230 C1231 1.373 . S
C1230 C1232 1.389 . S
C1231 H1210 0.950 . S
C1231 C1230 1.373 . S
C1231 C1247 1.377 . S
C1232 C1230 1.389 . S
C1232 C1233 1.524 . S
C1232 C1246 1.377 . S
C1233 C1232 1.524 . S
C1233 C1234 1.397 1_556 S
C1233 C1238 1.363 . S
C1234 H1211 0.950 . S
C1234 C1233 1.397 1_554 S
C1234 C1235 1.334 . S
C1235 H1212 0.950 . S
C1235 C1234 1.334 . S
C1235 C1236 1.287 . S
C1236 C1235 1.287 . S
C1236 C1237 1.524 1_554 S
C1236 H1255 0.913 . S
C1237 H1213 0.950 . S
C1237 C1236 1.524 1_556 S
C1237 C1238 1.415 . S
C1238 H1214 0.950 . S
C1238 C1233 1.363 . S
C1238 C1237 1.415 . S
C1239 H1215 0.951 . S
C1239 C1240 1.366 . S
C1239 C1241 1.388 . S
C1240 C1239 1.366 . S
C1240 C1244 1.385 . S
C1241 H1216 0.951 . S
C1241 C1239 1.388 . S
C1241 C1242 1.366 . S
C1242 C1241 1.366 . S
C1242 C1243 1.414 . S
C1242 C1245 1.499 . S
C1243 H1217 0.950 . S
C1243 C1242 1.414 . S
C1243 C1244 1.374 . S
C1244 H1218 0.950 . S
C1244 C1240 1.385 . S
C1244 C1243 1.374 . S
C1245 C1242 1.499 . S
C1245 C1246 1.373 . S
C1245 C1247 1.389 . S
C1246 H1219 0.950 . S
C1246 C1232 1.377 . S
C1246 C1245 1.373 . S
C1247 C1231 1.377 . S
C1247 C1245 1.389 . S
C1247 C1248 1.524 . S
C1248 C1247 1.524 . S
C1248 C1249 1.397 . S
C1248 C1253 1.363 . S
C1249 H1220 0.950 . S
C1249 C1248 1.397 . S
C1249 C1250 1.334 . S
C1250 H1221 0.950 . S
C1250 C1249 1.334 . S
C1250 C1251 1.287 . S
C1251 C1250 1.287 . S
C1251 C1252 1.524 . S
C1251 H1254 0.999 . S
C1252 H1222 0.950 . S
C1252 C1251 1.524 . S
C1252 C1253 1.415 . S
C1253 H1223 0.950 . S
C1253 C1248 1.363 . S
C1253 C1252 1.415 . S
H1254 C1251 0.999 . S
H1255 C1236 0.913 . S
H1256 C1274 0.951 . S
H1257 C1276 0.951 . S
H1258 C1278 0.950 . S
H1259 C1279 0.950 . S
H1260 C1281 0.950 . S
H1261 C1284 0.950 . S
H1262 C1285 0.950 . S
H1263 C1287 0.950 . S
H1264 C1288 0.950 . S
H1265 C1289 0.951 . S
H1266 C1291 0.951 . S
H1267 C1293 0.950 . S
H1268 C1294 0.950 . S
H1269 C1296 0.950 . S
H1270 C1299 0.950 . S
H1271 C1300 0.950 . S
H1272 C1302 0.950 1_455 S
H1273 C1303 0.950 . S
C1274 H1256 0.951 . S
C1274 C1275 1.366 . S
C1274 C1276 1.388 . S
C1275 C1274 1.366 . S
C1275 C1279 1.385 1_655 S
C1276 H1257 0.951 . S
C1276 C1274 1.388 . S
C1276 C1277 1.366 . S
C1277 C1276 1.366 . S
C1277 C1278 1.414 1_655 S
C1277 C1280 1.499 . S
C1278 H1258 0.950 . S
C1278 C1277 1.414 1_455 S
C1278 C1279 1.374 . S
C1279 H1259 0.950 . S
C1279 C1275 1.385 1_455 S
C1279 C1278 1.374 . S
C1280 C1277 1.499 . S
C1280 C1281 1.373 . S
C1280 C1282 1.389 . S
C1281 H1260 0.950 . S
C1281 C1280 1.373 . S
C1281 C1297 1.377 . S
C1282 C1280 1.389 . S
C1282 C1283 1.523 1_655 S
C1282 C1296 1.377 . S
C1283 C1282 1.523 1_455 S
C1283 C1284 1.406 . S
C1283 C1288 1.356 1_455 S
C1284 H1261 0.950 . S
C1284 C1283 1.406 . S
C1284 C1285 1.334 . S
C1285 H1262 0.950 . S
C1285 C1284 1.334 . S
C1285 C1286 1.287 . S
C1286 C1285 1.287 . S
C1286 C1287 1.524 1_455 S
C1286 H1305 0.913 . S
C1287 H1263 0.950 . S
C1287 C1286 1.524 1_655 S
C1287 C1288 1.415 . S
C1288 H1264 0.950 . S
C1288 C1283 1.356 1_655 S
C1288 C1287 1.415 . S
C1289 H1265 0.951 . S
C1289 C1290 1.366 1_455 S
C1289 C1291 1.388 . S
C1290 C1289 1.366 1_655 S
C1290 C1294 1.385 . S
C1291 H1266 0.951 . S
C1291 C1289 1.388 . S
C1291 C1292 1.366 1_455 S
C1292 C1291 1.366 1_655 S
C1292 C1293 1.414 . S
C1292 C1295 1.499 . S
C1293 H1267 0.950 . S
C1293 C1292 1.414 . S
C1293 C1294 1.374 . S
C1294 H1268 0.950 . S
C1294 C1290 1.385 . S
C1294 C1293 1.374 . S
C1295 C1292 1.499 . S
C1295 C1296 1.373 . S
C1295 C1297 1.389 . S
C1296 H1269 0.950 . S
C1296 C1282 1.377 . S
C1296 C1295 1.373 . S
C1297 C1281 1.377 . S
C1297 C1295 1.389 . S
C1297 C1298 1.524 . S
C1298 C1297 1.524 . S
C1298 C1299 1.397 . S
C1298 C1303 1.363 1_655 S
C1299 H1270 0.950 . S
C1299 C1298 1.397 . S
C1299 C1300 1.334 . S
C1300 H1271 0.950 . S
C1300 C1299 1.334 . S
C1300 C1301 1.287 . S
C1301 C1300 1.287 . S
C1301 C1302 1.524 . S
C1301 H1304 0.999 . S
C1302 H1272 0.950 1_655 S
C1302 C1301 1.524 . S
C1302 C1303 1.415 1_655 S
C1303 H1273 0.950 . S
C1303 C1298 1.363 1_455 S
C1303 C1302 1.415 1_455 S
H1304 C1301 0.999 . S
H1305 C1286 0.913 . S
H1306 C1324 0.951 . S
H1307 C1326 0.951 . S
H1308 C1328 0.950 . S
H1309 C1329 0.949 1_545 S
H1310 C1331 0.950 . S
H1311 C1334 0.950 . S
H1312 C1335 0.950 . S
H1313 C1337 0.950 . S
H1314 C1338 0.950 . S
H1315 C1339 0.951 . S
H1316 C1341 0.951 . S
H1317 C1343 0.950 . S
H1318 C1344 0.950 . S
H1319 C1346 0.950 . S
H1320 C1349 0.950 . S
H1321 C1350 0.950 . S
H1322 C1352 0.950 . S
H1323 C1353 0.950 . S
C1324 H1306 0.951 . S
C1324 C1325 1.366 . S
C1324 C1326 1.388 . S
C1325 C1324 1.366 . S
C1325 C1329 1.385 . S
C1326 H1307 0.951 . S
C1326 C1324 1.388 . S
C1326 C1327 1.366 . S
C1327 C1326 1.366 . S
C1327 C1328 1.414 . S
C1327 C1330 1.499 . S
C1328 H1308 0.950 . S
C1328 C1327 1.414 . S
C1328 C1329 1.374 . S
C1329 H1309 0.949 1_565 S
C1329 C1325 1.385 . S
C1329 C1328 1.374 . S
C1330 C1327 1.499 . S
C1330 C1331 1.373 1_565 S
C1330 C1332 1.389 . S
C1331 H1310 0.950 . S
C1331 C1330 1.373 1_545 S
C1331 C1347 1.377 . S
C1332 C1330 1.389 . S
C1332 C1333 1.524 . S
C1332 C1346 1.377 . S
C1333 C1332 1.524 . S
C1333 C1334 1.397 . S
C1333 C1338 1.363 . S
C1334 H1311 0.950 . S
C1334 C1333 1.397 . S
C1334 C1335 1.334 . S
C1335 H1312 0.950 . S
C1335 C1334 1.334 . S
C1335 C1336 1.287 . S
C1336 C1335 1.287 . S
C1336 C1337 1.524 . S
C1336 H1355 0.913 . S
C1337 H1313 0.950 . S
C1337 C1336 1.524 . S
C1337 C1338 1.415 . S
C1338 H1314 0.950 . S
C1338 C1333 1.363 . S
C1338 C1337 1.415 . S
C1339 H1315 0.951 . S
C1339 C1340 1.366 . S
C1339 C1341 1.388 . S
C1340 C1339 1.366 . S
C1340 C1344 1.385 . S
C1341 H1316 0.951 . S
C1341 C1339 1.388 . S
C1341 C1342 1.366 . S
C1342 C1341 1.366 . S
C1342 C1343 1.414 . S
C1342 C1345 1.499 . S
C1343 H1317 0.950 . S
C1343 C1342 1.414 . S
C1343 C1344 1.374 . S
C1344 H1318 0.950 . S
C1344 C1340 1.385 . S
C1344 C1343 1.374 . S
C1345 C1342 1.499 . S
C1345 C1346 1.373 . S
C1345 C1347 1.389 1_565 S
C1346 H1319 0.950 . S
C1346 C1332 1.377 . S
C1346 C1345 1.373 . S
C1347 C1331 1.377 . S
C1347 C1345 1.389 1_545 S
C1347 C1348 1.524 . S
C1348 C1347 1.524 . S
C1348 C1349 1.397 . S
C1348 C1353 1.363 . S
C1349 H1320 0.950 . S
C1349 C1348 1.397 . S
C1349 C1350 1.334 . S
C1350 H1321 0.950 . S
C1350 C1349 1.334 . S
C1350 C1351 1.287 . S
C1351 C1350 1.287 . S
C1351 C1352 1.524 . S
C1351 H1354 0.999 . S
C1352 H1322 0.950 . S
C1352 C1351 1.524 . S
C1352 C1353 1.415 . S
C1353 H1323 0.950 . S
C1353 C1348 1.363 . S
C1353 C1352 1.415 . S
H1354 C1351 0.999 . S
H1355 C1336 0.913 . S
H1356 C1374 0.951 . S
H1357 C1376 0.951 . S
H1358 C1378 0.950 . S
H1359 C1379 0.950 . S
H1360 C1381 0.950 . S
H1361 C1384 0.950 . S
H1362 C1385 0.950 . S
H1363 C1387 0.950 . S
H1364 C1388 0.950 . S
H1365 C1389 0.951 . S
H1366 C1391 0.951 . S
H1367 C1393 0.950 . S
H1368 C1394 0.950 . S
H1369 C1396 0.950 . S
H1370 C1399 0.950 . S
H1371 C1400 0.950 . S
H1372 C1402 0.950 . S
H1373 C1403 0.950 . S
C1374 H1356 0.951 . S
C1374 C1375 1.366 . S
C1374 C1376 1.388 . S
C1375 C1374 1.366 . S
C1375 C1379 1.385 . S
C1376 H1357 0.951 . S
C1376 C1374 1.388 . S
C1376 C1377 1.366 . S
C1377 C1376 1.366 . S
C1377 C1378 1.414 . S
C1377 C1380 1.499 . S
C1378 H1358 0.950 . S
C1378 C1377 1.414 . S
C1378 C1379 1.374 . S
C1379 H1359 0.950 . S
C1379 C1375 1.385 . S
C1379 C1378 1.374 . S
C1380 C1377 1.499 . S
C1380 C1381 1.373 . S
C1380 C1382 1.389 . S
C1381 H1360 0.950 . S
C1381 C1380 1.373 . S
C1381 C1397 1.377 . S
C1382 C1380 1.389 . S
C1382 C1383 1.524 . S
C1382 C1396 1.377 . S
C1383 C1382 1.524 . S
C1383 C1384 1.397 . S
C1383 C1388 1.363 . S
C1384 H1361 0.950 . S
C1384 C1383 1.397 . S
C1384 C1385 1.334 . S
C1385 H1362 0.950 . S
C1385 C1384 1.334 . S
C1385 C1386 1.287 . S
C1386 C1385 1.287 . S
C1386 C1387 1.524 . S
C1386 H1405 0.913 . S
C1387 H1363 0.950 . S
C1387 C1386 1.524 . S
C1387 C1388 1.415 . S
C1388 H1364 0.950 . S
C1388 C1383 1.363 . S
C1388 C1387 1.415 . S
C1389 H1365 0.951 . S
C1389 C1390 1.366 . S
C1389 C1391 1.388 . S
C1390 C1389 1.366 . S
C1390 C1394 1.385 . S
C1391 H1366 0.951 . S
C1391 C1389 1.388 . S
C1391 C1392 1.366 . S
C1392 C1391 1.366 . S
C1392 C1393 1.414 . S
C1392 C1395 1.499 . S
C1393 H1367 0.950 . S
C1393 C1392 1.414 . S
C1393 C1394 1.374 . S
C1394 H1368 0.950 . S
C1394 C1390 1.385 . S
C1394 C1393 1.374 . S
C1395 C1392 1.499 . S
C1395 C1396 1.373 . S
C1395 C1397 1.389 . S
C1396 H1369 0.950 . S
C1396 C1382 1.377 . S
C1396 C1395 1.373 . S
C1397 C1381 1.377 . S
C1397 C1395 1.389 . S
C1397 C1398 1.524 . S
C1398 C1397 1.524 . S
C1398 C1399 1.397 . S
C1398 C1403 1.363 . S
C1399 H1370 0.950 . S
C1399 C1398 1.397 . S
C1399 C1400 1.334 . S
C1400 H1371 0.950 . S
C1400 C1399 1.334 . S
C1400 C1401 1.287 . S
C1401 C1400 1.287 . S
C1401 C1402 1.524 . S
C1401 H1404 0.999 . S
C1402 H1372 0.950 . S
C1402 C1401 1.524 . S
C1402 C1403 1.415 . S
C1403 H1373 0.950 . S
C1403 C1398 1.363 . S
C1403 C1402 1.415 . S
H1404 C1401 0.999 . S
H1405 C1386 0.913 . S
H1406 C1424 0.951 . S
H1407 C1426 0.951 . S
H1408 C1428 0.950 . S
H1409 C1429 0.950 . S
H1410 C1431 0.950 . S
H1411 C1434 0.950 . S
H1412 C1435 0.950 . S
H1413 C1437 0.950 . S
H1414 C1438 0.950 . S
H1415 C1439 0.951 . S
H1416 C1441 0.951 . S
H1417 C1443 0.950 . S
H1418 C1444 0.950 . S
H1419 C1446 0.950 . S
H1420 C1449 0.950 . S
H1421 C1450 0.950 . S
H1422 C1452 0.950 . S
H1423 C1453 0.950 . S
C1424 H1406 0.951 . S
C1424 C1425 1.366 . S
C1424 C1426 1.388 . S
C1425 C1424 1.366 . S
C1425 C1429 1.385 . S
C1426 H1407 0.951 . S
C1426 C1424 1.388 . S
C1426 C1427 1.366 . S
C1427 C1426 1.366 . S
C1427 C1428 1.414 . S
C1427 C1430 1.499 . S
C1428 H1408 0.950 . S
C1428 C1427 1.414 . S
C1428 C1429 1.374 . S
C1429 H1409 0.950 . S
C1429 C1425 1.385 . S
C1429 C1428 1.374 . S
C1430 C1427 1.499 . S
C1430 C1431 1.373 . S
C1430 C1432 1.389 . S
C1431 H1410 0.950 . S
C1431 C1430 1.373 . S
C1431 C1447 1.377 . S
C1432 C1430 1.389 . S
C1432 C1433 1.524 . S
C1432 C1446 1.377 . S
C1433 C1432 1.524 . S
C1433 C1434 1.397 . S
C1433 C1438 1.363 . S
C1434 H1411 0.950 . S
C1434 C1433 1.397 . S
C1434 C1435 1.334 . S
C1435 H1412 0.950 . S
C1435 C1434 1.334 . S
C1435 C1436 1.287 . S
C1436 C1435 1.287 . S
C1436 C1437 1.524 . S
C1436 H1455 0.913 . S
C1437 H1413 0.950 . S
C1437 C1436 1.524 . S
C1437 C1438 1.415 . S
C1438 H1414 0.950 . S
C1438 C1433 1.363 . S
C1438 C1437 1.415 . S
C1439 H1415 0.951 . S
C1439 C1440 1.366 . S
C1439 C1441 1.388 . S
C1440 C1439 1.366 . S
C1440 C1444 1.385 . S
C1441 H1416 0.951 . S
C1441 C1439 1.388 . S
C1441 C1442 1.366 . S
C1442 C1441 1.366 . S
C1442 C1443 1.414 . S
C1442 C1445 1.499 . S
C1443 H1417 0.950 . S
C1443 C1442 1.414 . S
C1443 C1444 1.374 . S
C1444 H1418 0.950 . S
C1444 C1440 1.385 . S
C1444 C1443 1.374 . S
C1445 C1442 1.499 . S
C1445 C1446 1.373 . S
C1445 C1447 1.389 . S
C1446 H1419 0.950 . S
C1446 C1432 1.377 . S
C1446 C1445 1.373 . S
C1447 C1431 1.377 . S
C1447 C1445 1.389 . S
C1447 C1448 1.524 . S
C1448 C1447 1.524 . S
C1448 C1449 1.397 . S
C1448 C1453 1.363 . S
C1449 H1420 0.950 . S
C1449 C1448 1.397 . S
C1449 C1450 1.334 . S
C1450 H1421 0.950 . S
C1450 C1449 1.334 . S
C1450 C1451 1.287 . S
C1451 C1450 1.287 . S
C1451 C1452 1.524 . S
C1451 H1454 0.999 . S
C1452 H1422 0.950 . S
C1452 C1451 1.524 . S
C1452 C1453 1.415 . S
C1453 H1423 0.950 . S
C1453 C1448 1.363 . S
C1453 C1452 1.415 . S
H1454 C1451 0.999 . S
H1455 C1436 0.913 . S
C275 C76 1.735 . S
C290 C105 1.829 1_545 S
C340 C145 1.833 . S
C325 C88 1.735 . S
C390 C185 1.833 . S
C375 C52 1.736 . S
C440 C225 1.830 1_455 S
C425 C64 1.735 . S
C490 C114 1.829 1_565 S
C475 C28 1.737 . S
C525 C40 1.735 . S
C540 C154 1.833 . S
C575 C4 1.735 . S
C590 C194 1.832 . S
C625 C16 1.735 . S
C640 C234 1.829 1_655 S
C690 C111 0.309 . S
C675 C69 0.361 . S
C740 C151 0.308 . S
C725 C81 0.363 . S
C790 C191 0.312 . S
C775 C93 0.365 . S
C825 C57 0.366 . S
C840 C231 0.311 . S
C875 C21 0.380 . S
C890 C102 0.312 . S
C940 C142 0.308 . S
C925 C33 0.385 . S
C990 C182 0.312 . S
C975 C45 0.381 . S
C1025 C9 0.381 . S
C1040 C222 0.311 . S
C1075 C66 1.888 . S
C1090 C115 2.059 . S
C1125 C78 1.888 . S
C1140 C155 2.063 . S
C1190 C195 2.064 . S
C1175 C90 1.887 . S
C1240 C235 2.062 . S
C1225 C54 1.888 . S
C1275 C18 1.891 1_655 S
C1290 C106 2.067 . S
C1340 C146 2.064 . S
C1325 C30 1.891 1_565 S
C1390 C186 2.062 . S
C1375 C42 1.891 . S
C1425 C6 1.892 . S
C1440 C226 2.063 . S
