# Generated by pormake.
# Topology zzz, (3,6)-cn, num edge types: 1
# Building blocks:
#     Node 0, Type 0, BuildingBlock: KAKCAD_clean_linker_0, # of connection points: 3
#     Node 1, Type 0, BuildingBlock: KAKCAD_clean_linker_0, # of connection points: 3
#     Node 2, Type 0, BuildingBlock: KAKCAD_clean_linker_0, # of connection points: 3
#     Node 3, Type 0, BuildingBlock: KAKCAD_clean_linker_0, # of connection points: 3
#     Node 4, Type 0, BuildingBlock: KAKCAD_clean_linker_0, # of connection points: 3
#     Node 5, Type 0, BuildingBlock: KAKCAD_clean_linker_0, # of connection points: 3
#     Node 6, Type 0, BuildingBlock: KAKCAD_clean_linker_0, # of connection points: 3
#     Node 7, Type 0, BuildingBlock: KAKCAD_clean_linker_0, # of connection points: 3
#     Node 8, Type 1, BuildingBlock: PAMTOO_clean_sbu_0, # of connection points: 6
#     Node 9, Type 1, BuildingBlock: PAMTOO_clean_sbu_0, # of connection points: 6
#     Node 10, Type 1, BuildingBlock: PAMTOO_clean_sbu_0, # of connection points: 6
#     Node 11, Type 1, BuildingBlock: PAMTOO_clean_sbu_0, # of connection points: 6
#     Edge 12, Type (0, 1), BuildingBlock: UVAHIK_clean_linker_0, # of connection points: 2
#     Edge 13, Type (0, 1), BuildingBlock: UVAHIK_clean_linker_0, # of connection points: 2
#     Edge 14, Type (0, 1), BuildingBlock: UVAHIK_clean_linker_0, # of connection points: 2
#     Edge 15, Type (0, 1), BuildingBlock: UVAHIK_clean_linker_0, # of connection points: 2
#     Edge 16, Type (0, 1), BuildingBlock: UVAHIK_clean_linker_0, # of connection points: 2
#     Edge 17, Type (0, 1), BuildingBlock: UVAHIK_clean_linker_0, # of connection points: 2
#     Edge 18, Type (0, 1), BuildingBlock: UVAHIK_clean_linker_0, # of connection points: 2
#     Edge 19, Type (0, 1), BuildingBlock: UVAHIK_clean_linker_0, # of connection points: 2
#     Edge 20, Type (0, 1), BuildingBlock: UVAHIK_clean_linker_0, # of connection points: 2
#     Edge 21, Type (0, 1), BuildingBlock: UVAHIK_clean_linker_0, # of connection points: 2
#     Edge 22, Type (0, 1), BuildingBlock: UVAHIK_clean_linker_0, # of connection points: 2
#     Edge 23, Type (0, 1), BuildingBlock: UVAHIK_clean_linker_0, # of connection points: 2
#     Edge 24, Type (0, 1), BuildingBlock: UVAHIK_clean_linker_0, # of connection points: 2
#     Edge 25, Type (0, 1), BuildingBlock: UVAHIK_clean_linker_0, # of connection points: 2
#     Edge 26, Type (0, 1), BuildingBlock: UVAHIK_clean_linker_0, # of connection points: 2
#     Edge 27, Type (0, 1), BuildingBlock: UVAHIK_clean_linker_0, # of connection points: 2
#     Edge 28, Type (0, 1), BuildingBlock: UVAHIK_clean_linker_0, # of connection points: 2
#     Edge 29, Type (0, 1), BuildingBlock: UVAHIK_clean_linker_0, # of connection points: 2
#     Edge 30, Type (0, 1), BuildingBlock: UVAHIK_clean_linker_0, # of connection points: 2
#     Edge 31, Type (0, 1), BuildingBlock: UVAHIK_clean_linker_0, # of connection points: 2
#     Edge 32, Type (0, 1), BuildingBlock: UVAHIK_clean_linker_0, # of connection points: 2
#     Edge 33, Type (0, 1), BuildingBlock: UVAHIK_clean_linker_0, # of connection points: 2
#     Edge 34, Type (0, 1), BuildingBlock: UVAHIK_clean_linker_0, # of connection points: 2
#     Edge 35, Type (0, 1), BuildingBlock: UVAHIK_clean_linker_0, # of connection points: 2
# Relax obj value: 0.326
# Max RMSD: 0.268
# Mean RMSD: 0.216
data_MOF--net-zzz--node1-PAMTOO_clean_sbu_0--node2-KAKCAD_clean_linker_0--edge1-UVAHIK_clean_linker_0
_symmetry_space_group_name_H-M    P1
_symmetry_Int_Tables_number       1
_symmetry_cell_setting            triclinic
loop_
_symmetry_equiv_pos_as_xyz
'x, y, z'
_cell_length_a     78.59163
_cell_length_b     69.849955
_cell_length_c     25.985907
_cell_angle_alpha  90.688506
_cell_angle_beta   83.301693
_cell_angle_gamma 84.955012
loop_
_atom_site_label
_atom_site_type_symbol
_atom_site_fract_x
_atom_site_fract_y
_atom_site_fract_z
_atom_type_partial_charge
C0 C 0.78941 0.53774 0.13727 0.0
C1 C 0.80606 0.52834 0.13115 0.0
C2 C 0.77984 0.53937 0.18619 0.0
C3 C 0.78662 0.53124 0.22966 0.0
C4 C 0.80358 0.52255 0.22355 0.0
C5 C 0.81322 0.52123 0.17491 0.0
C6 C 0.77563 0.53019 0.28001 0.0
C7 C 0.75839 0.52645 0.28087 0.0
C8 C 0.74819 0.52358 0.32757 0.0
C9 C 0.75547 0.52407 0.3747 0.0
C10 C 0.77283 0.52795 0.37435 0.0
C11 C 0.78261 0.53129 0.3271 0.0
C12 C 0.78181 0.5276 0.42154 0.0
C13 C 0.78827 0.54445 0.43808 0.0
C14 C 0.78764 0.50995 0.44152 0.0
C15 C 0.80058 0.50902 0.47464 0.0
C16 C 0.80797 0.52576 0.48833 0.0
C17 C 0.73007 0.51996 0.32393 0.0
C18 C 0.71754 0.53561 0.3254 0.0
C19 C 0.72654 0.50226 0.3033 0.0
C20 C 0.71131 0.5006 0.28107 0.0
C21 C 0.69935 0.51669 0.2785 0.0
C22 C 0.70231 0.53399 0.30305 0.0
C23 C 0.80108 0.54357 0.47136 0.0
H24 H 0.78369 0.54346 0.10407 0.0
H25 H 0.76696 0.54654 0.18965 0.0
H26 H 0.80917 0.51582 0.25575 0.0
H27 H 0.82596 0.51367 0.17108 0.0
H28 H 0.75285 0.5252 0.24479 0.0
H29 H 0.79592 0.53428 0.3271 0.0
H30 H 0.74779 0.52144 0.4109 0.0
H31 H 0.78415 0.5582 0.42262 0.0
H32 H 0.78316 0.49671 0.42836 0.0
H33 H 0.80558 0.49504 0.48655 0.0
H34 H 0.72014 0.54953 0.33996 0.0
H35 H 0.73623 0.49013 0.30042 0.0
H36 H 0.80613 0.55681 0.48194 0.0
H37 H 0.69327 0.5466 0.30253 0.0
H38 H 0.7096 0.4871 0.26227 0.0
C39 C 0.99949 0.74924 0.11971 0.0
C40 C 0.01006 0.76426 0.12243 0.0
C41 C 0.99433 0.73925 0.16425 0.0
C42 C 0.99992 0.74391 0.21207 0.0
C43 C 0.01104 0.75856 0.21394 0.0
C44 C 0.01591 0.76877 0.16965 0.0
C45 C 0.99382 0.73392 0.26003 0.0
C46 C 0.99117 0.71438 0.25839 0.0
C47 C 0.98485 0.70499 0.30307 0.0
C48 C 0.98146 0.71516 0.35083 0.0
C49 C 0.98433 0.73477 0.353 0.0
C50 C 0.9903 0.74398 0.30763 0.0
C51 C 0.9812 0.74652 0.40135 0.0
C52 C 0.96528 0.75725 0.41384 0.0
C53 C 0.99531 0.75115 0.42603 0.0
C54 C 0.99385 0.76711 0.45985 0.0
C55 C 0.97828 0.77888 0.46918 0.0
C56 C 0.98189 0.68457 0.29682 0.0
C57 C 0.96742 0.68003 0.27385 0.0
C58 C 0.99568 0.67048 0.29809 0.0
C59 C 0.99565 0.6527 0.27264 0.0
C60 C 0.9819 0.64882 0.24501 0.0
C61 C 0.96738 0.66229 0.24832 0.0
C62 C 0.96381 0.77324 0.44761 0.0
H63 H 0.99474 0.74572 0.08358 0.0
H64 H 0.98555 0.72829 0.1614 0.0
H65 H 0.01595 0.76225 0.24967 0.0
H66 H 0.02416 0.78029 0.17228 0.0
H67 H 0.99409 0.70626 0.22212 0.0
H68 H 0.99191 0.75922 0.3096 0.0
H69 H 0.97665 0.70798 0.38556 0.0
H70 H 0.95433 0.75416 0.39438 0.0
H71 H 0.00781 0.74335 0.41589 0.0
H72 H 1.0053 0.77107 0.47531 0.0
H73 H 0.95683 0.69088 0.27136 0.0
H74 H 0.00711 0.67384 0.3147 0.0
H75 H 0.95157 0.78182 0.45454 0.0
H76 H 0.95662 0.65991 0.22726 0.0
H77 H 0.00691 0.64252 0.27165 0.0
C78 C 0.7386 0.03155 0.05563 0.0
C79 C 0.72376 0.04381 0.07216 0.0
C80 C 0.7485 0.02289 0.09171 0.0
C81 C 0.74379 0.02637 0.14508 0.0
C82 C 0.72955 0.03952 0.16141 0.0
C83 C 0.71963 0.04812 0.12537 0.0
C84 C 0.75288 0.01525 0.18358 0.0
C85 C 0.77079 0.01146 0.17659 0.0
C86 C 0.77929 -5e-05 0.21127 0.0
C87 C 0.76971 0.99228 0.25429 0.0
C88 C 0.75164 0.99603 0.26166 0.0
C89 C 0.74345 0.00747 0.22617 0.0
C90 C 0.74064 0.98827 0.30539 0.0
C91 C 0.72745 0.97702 0.29468 0.0
C92 C 0.7408 0.9952 0.35622 0.0
C93 C 0.72732 0.99208 0.39478 0.0
C94 C 0.71346 0.9819 0.38319 0.0
C95 C 0.7981 0.99566 0.1991 0.0
C96 C 0.80456 0.97956 0.16772 0.0
C97 C 0.80903 0.00995 0.20724 0.0
C98 C 0.82584 0.00873 0.18198 0.0
C99 C 0.83199 0.99334 0.14729 0.0
C100 C 0.82135 0.97838 0.14213 0.0
C101 C 0.71407 0.97382 0.33308 0.0
H102 H 0.74226 0.02815 0.01484 0.0
H103 H 0.75936 0.01278 0.07785 0.0
H104 H 0.72578 0.04273 0.20224 0.0
H105 H 0.70822 0.05737 0.13952 0.0
H106 H 0.77823 0.01734 0.14364 0.0
H107 H 0.72954 0.01003 0.23143 0.0
H108 H 0.77618 0.98328 0.28106 0.0
H109 H 0.72694 0.97171 0.25559 0.0
H110 H 0.75071 0.00412 0.36526 0.0
H111 H 0.72741 0.99828 0.43313 0.0
H112 H 0.7962 0.96862 0.15987 0.0
H113 H 0.8042 0.02267 0.23056 0.0
H114 H 0.70361 0.96609 0.32236 0.0
H115 H 0.82551 0.96639 0.11548 0.0
H116 H 0.83374 0.02034 0.18777 0.0
C117 C 0.52788 0.70134 0.34238 0.0
C118 C 0.54015 0.69981 0.37781 0.0
C119 C 0.52991 0.71318 0.29972 0.0
C120 C 0.54431 0.72376 0.29096 0.0
C121 C 0.55604 0.72337 0.32778 0.0
C122 C 0.55397 0.7115 0.37094 0.0
C123 C 0.54846 0.73179 0.23897 0.0
C124 C 0.54939 0.75159 0.23084 0.0
C125 C 0.55192 0.75846 0.17985 0.0
C126 C 0.55329 0.7454 0.13759 0.0
C127 C 0.55237 0.72574 0.14561 0.0
C128 C 0.55028 0.71905 0.1962 0.0
C129 C 0.55131 0.71224 0.10216 0.0
C130 C 0.53827 0.71562 0.06996 0.0
C131 C 0.56147 0.69462 0.09781 0.0
C132 C 0.55793 0.68014 0.06418 0.0
C133 C 0.54395 0.68289 0.03496 0.0
C134 C 0.55169 0.77928 0.16902 0.0
C135 C 0.53734 0.79193 0.18749 0.0
C136 C 0.56461 0.78598 0.13359 0.0
C137 C 0.56279 0.80461 0.1147 0.0
C138 C 0.54788 0.81688 0.13037 0.0
C139 C 0.5354 0.81053 0.16809 0.0
C140 C 0.53456 0.70105 0.03684 0.0
H141 H 0.5172 0.69246 0.34547 0.0
H142 H 0.52075 0.71315 0.2716 0.0
H143 H 0.56733 0.73128 0.32155 0.0
H144 H 0.56353 0.71097 0.39782 0.0
H145 H 0.54774 0.76157 0.26367 0.0
H146 H 0.54918 0.70385 0.20242 0.0
H147 H 0.55447 0.75062 0.0983 0.0
H148 H 0.53014 0.72904 0.07311 0.0
H149 H 0.57166 0.69177 0.12212 0.0
H150 H 0.56573 0.66653 0.06266 0.0
H151 H 0.52712 0.78705 0.21443 0.0
H152 H 0.57578 0.77647 0.11867 0.0
H153 H 0.52362 0.70367 0.01532 0.0
H154 H 0.52385 0.81972 0.18125 0.0
H155 H 0.57258 0.80899 0.08547 0.0
C156 C 0.22876 0.45328 0.24139 0.0
C157 C 0.21636 0.43989 0.24281 0.0
C158 C 0.24038 0.45479 0.19723 0.0
C159 C 0.23986 0.443 0.15341 0.0
C160 C 0.22863 0.42837 0.15651 0.0
C161 C 0.21702 0.42677 0.20096 0.0
C162 C 0.2491 0.448 0.10308 0.0
C163 C 0.26568 0.45395 0.10057 0.0
C164 C 0.27324 0.46237 0.05593 0.0
C165 C 0.26413 0.46452 0.0122 0.0
C166 C 0.2476 0.45777 0.01349 0.0
C167 C 0.24034 0.44961 0.05921 0.0
C168 C 0.23676 0.46015 0.97006 0.0
C169 C 0.23303 0.47825 0.94896 0.0
C170 C 0.22757 0.44485 0.95633 0.0
C171 C 0.21406 0.44784 0.92596 0.0
C172 C 0.20941 0.46623 0.90761 0.0
C173 C 0.29017 0.46976 0.05934 0.0
C174 C 0.29071 0.48733 0.08567 0.0
C175 C 0.30509 0.45696 0.0522 0.0
C176 C 0.31986 0.46102 0.07426 0.0
C177 C 0.31995 0.47787 0.10464 0.0
C178 C 0.30543 0.49137 0.10798 0.0
C179 C 0.21953 0.48125 0.918 0.0
H180 H 0.22857 0.4638 0.27244 0.0
H181 H 0.24877 0.46632 0.19597 0.0
H182 H 0.22818 0.41886 0.12355 0.0
H183 H 0.20788 0.41603 0.20128 0.0
H184 H 0.27254 0.45275 0.13446 0.0
H185 H 0.22724 0.44564 0.06177 0.0
H186 H 0.26977 0.47137 0.97794 0.0
H187 H 0.23981 0.49036 0.95899 0.0
H188 H 0.23016 0.4307 0.97182 0.0
H189 H 0.20666 0.43586 0.91965 0.0
H190 H 0.2792 0.49717 0.09305 0.0
H191 H 0.30486 0.44312 0.03315 0.0
H192 H 0.21669 0.49553 0.90369 0.0
H193 H 0.30485 0.50441 0.13131 0.0
H194 H 0.33089 0.45045 0.06985 0.0
C195 C 0.06795 0.2436 0.2415 0.0
C196 C 0.07842 0.22662 0.2266 0.0
C197 C 0.06526 0.25792 0.20574 0.0
C198 C 0.07297 0.25563 0.1542 0.0
C199 C 0.08484 0.23959 0.14071 0.0
C200 C 0.08754 0.22521 0.17661 0.0
C201 C 0.06618 0.268 0.11378 0.0
C202 C 0.06106 0.2875 0.12431 0.0
C203 C 0.05049 0.29802 0.09281 0.0
C204 C 0.04534 0.28905 0.04901 0.0
C205 C 0.05132 0.26975 0.03622 0.0
C206 C 0.06177 0.25948 0.06864 0.0
C207 C 0.04533 0.25888 0.99346 0.0
C208 C 0.02804 0.25494 0.99618 0.0
C209 C 0.05749 0.24881 0.95666 0.0
C210 C 0.05269 0.23418 0.92561 0.0
C211 C 0.03566 0.22912 0.93115 0.0
C212 C 0.0434 0.31748 0.11147 0.0
C213 C 0.02863 0.31941 0.14765 0.0
C214 C 0.05349 0.33304 0.10397 0.0
C215 C 0.04935 0.34992 0.1342 0.0
C216 C 0.03524 0.35141 0.17337 0.0
C217 C 0.0246 0.33615 0.17832 0.0
C218 C 0.02326 0.24013 0.96544 0.0
H219 H 0.06055 0.24516 0.27939 0.0
H220 H 0.05588 0.26993 0.21751 0.0
H221 H 0.09122 0.2376 0.10152 0.0
H222 H 0.09595 0.21246 0.16428 0.0
H223 H 0.06438 0.29427 0.15914 0.0
H224 H 0.06518 0.24425 0.06087 0.0
H225 H 0.0366 0.29686 0.02575 0.0
H226 H 0.01849 0.26228 0.02481 0.0
H227 H 0.07094 0.25142 0.95438 0.0
H228 H 0.0626 0.22594 0.89996 0.0
H229 H 0.02095 0.30738 0.15502 0.0
H230 H 0.06513 0.33169 0.07692 0.0
H231 H 0.00999 0.23673 0.97019 0.0
H232 H 0.01379 0.33648 0.20832 0.0
H233 H 0.05766 0.36146 0.12834 0.0
C234 C 0.27883 0.98068 0.31684 0.0
C235 C 0.29112 0.99307 0.32803 0.0
C236 C 0.26822 0.98524 0.27839 0.0
C237 C 0.2699 0.00211 0.2501 0.0
C238 C 0.2818 0.01478 0.26243 0.0
C239 C 0.29226 0.01035 0.30125 0.0
C240 C 0.26008 0.00586 0.20559 0.0
C241 C 0.2424 0.00419 0.21031 0.0
C242 C 0.23309 0.00683 0.16755 0.0
C243 C 0.24185 0.01106 0.11889 0.0
C244 C 0.25976 0.01274 0.11395 0.0
C245 C 0.26861 0.01029 0.1576 0.0
C246 C 0.2702 0.0158 0.06386 0.0
C247 C 0.2735 0.0009 0.02634 0.0
C248 C 0.28036 0.03141 0.05956 0.0
C249 C 0.29435 0.03146 0.02099 0.0
C250 C 0.29861 0.0158 0.98586 0.0
C251 C 0.21424 0.00519 0.17626 0.0
C252 C 0.20816 0.9892 0.20241 0.0
C253 C 0.20244 0.02084 0.16821 0.0
C254 C 0.18514 0.02106 0.1895 0.0
C255 C 0.17933 0.00564 0.21931 0.0
C256 C 0.19101 0.98944 0.22378 0.0
C257 C 0.28758 0.00089 0.98771 0.0
H258 H 0.27768 0.96731 0.33712 0.0
H259 H 0.25919 0.97519 0.26934 0.0
H260 H 0.28324 0.02794 0.24132 0.0
H261 H 0.30175 0.02005 0.30875 0.0
H262 H 0.23578 0.00106 0.24788 0.0
H263 H 0.28243 0.01108 0.15363 0.0
H264 H 0.2349 0.01285 0.0854 0.0
H265 H 0.26605 0.98855 0.02932 0.0
H266 H 0.27826 0.04292 0.08857 0.0
H267 H 0.30255 0.04312 0.02127 0.0
H268 H 0.217 0.97695 0.20927 0.0
H269 H 0.20681 0.03341 0.14852 0.0
H270 H 0.29029 0.98875 0.96081 0.0
H271 H 0.18727 0.97734 0.24674 0.0
H272 H 0.17649 0.03364 0.18425 0.0
C273 C 0.46149 0.28133 0.04667 0.0
C274 C 0.47438 0.28678 0.00868 0.0
C275 C 0.46566 0.26874 0.0859 0.0
C276 C 0.48273 0.26121 0.08741 0.0
C277 C 0.49526 0.26514 0.04688 0.0
C278 C 0.49116 0.27776 0.008 0.0
C279 C 0.48848 0.25464 0.1369 0.0
C280 C 0.48674 0.236 0.1556 0.0
C281 C 0.49334 0.23053 0.20213 0.0
C282 C 0.50128 0.24409 0.22965 0.0
C283 C 0.50294 0.2627 0.2113 0.0
C284 C 0.49638 0.2678 0.16509 0.0
C285 C 0.51126 0.27706 0.24025 0.0
C286 C 0.50827 0.27863 0.29465 0.0
C287 C 0.52155 0.29006 0.21327 0.0
C288 C 0.52786 0.3049 0.23969 0.0
C289 C 0.52431 0.30685 0.29371 0.0
C290 C 0.49214 0.21086 0.22319 0.0
C291 C 0.47681 0.20174 0.22529 0.0
C292 C 0.50605 0.20183 0.24594 0.0
C293 C 0.50429 0.18496 0.27344 0.0
C294 C 0.48869 0.17645 0.27817 0.0
C295 C 0.47512 0.1846 0.25244 0.0
C296 C 0.51483 0.29333 0.32116 0.0
H297 H 0.44835 0.28763 0.04791 0.0
H298 H 0.45585 0.26618 0.1173 0.0
H299 H 0.50858 0.2598 0.04792 0.0
H300 H 0.50155 0.28164 0.98008 0.0
H301 H 0.48074 0.22578 0.13355 0.0
H302 H 0.49722 0.28226 0.15089 0.0
H303 H 0.50623 0.24013 0.26562 0.0
H304 H 0.50028 0.269 0.31663 0.0
H305 H 0.5245 0.28898 0.17152 0.0
H306 H 0.53531 0.31505 0.21782 0.0
H307 H 0.46585 0.20833 0.20827 0.0
H308 H 0.51821 0.20815 0.24388 0.0
H309 H 0.51183 0.29468 0.36288 0.0
H310 H 0.46296 0.17827 0.25553 0.0
H311 H 0.51504 0.17877 0.29216 0.0
Dy312 Dy 0.99324 0.01602 0.64793 0.0
Dy313 Dy 0.01987 0.99638 0.72332 0.0
C314 C 0.0324 0.00778 0.60929 0.0
O315 O 0.99593 0.98457 0.62643 0.0
O316 O 1.00559 0.97209 0.70023 0.0
O317 O 0.98692 0.02017 0.5699 0.0
O318 O 0.97115 0.03517 0.63444 0.0
O319 O 0.99469 0.00307 0.77331 0.0
O320 O 0.97611 0.00375 0.71132 0.0
O321 O 0.02427 0.02759 0.7245 0.0
O322 O 0.99783 0.03912 0.70373 0.0
O323 O 0.02738 0.98918 0.79862 0.0
O324 O 0.04461 0.98099 0.72946 0.0
C325 C 0.99917 0.96992 0.65633 0.0
O326 O 0.01992 0.02158 0.61516 0.0
O327 O 0.03222 0.99344 0.64119 0.0
C328 C 0.97908 0.05273 0.56029 0.0
C329 C 0.99205 0.08443 0.50809 0.0
C330 C 0.99548 0.08059 0.55898 0.0
C331 C 0.98911 0.06491 0.58466 0.0
C332 C 0.97502 0.05683 0.51026 0.0
C333 C 0.98144 0.07263 0.48431 0.0
C334 C 0.97541 0.0344 0.5843 0.0
C335 C 0.97909 0.00249 0.75996 0.0
C336 C 0.01228 0.04181 0.72239 0.0
C337 C 0.04203 0.95828 0.79414 0.0
C338 C 0.04406 0.91858 0.81278 0.0
C339 C 0.02819 0.92873 0.80664 0.0
C340 C 0.02721 0.94834 0.79723 0.0
C341 C 0.05789 0.94833 0.80061 0.0
C342 C 0.0589 0.9286 0.81007 0.0
C343 C 0.04106 0.97845 0.77891 0.0
H344 H 1.00389 0.08907 0.57813 0.0
H345 H 0.99278 0.06174 0.62272 0.0
H346 H 0.96752 0.04741 0.49057 0.0
H347 H 0.97848 0.07531 0.44522 0.0
H348 H 0.01646 0.92155 0.80958 0.0
H349 H 0.01485 0.9557 0.79176 0.0
H350 H 0.0695 0.95575 0.79745 0.0
H351 H 0.07131 0.92115 0.81442 0.0
Dy352 Dy 0.50479 0.97849 0.66761 0.0
Dy353 Dy 0.51327 0.01292 0.74439 0.0
C354 C 0.49955 0.02267 0.63633 0.0
O355 O 0.53354 0.97629 0.6626 0.0
O356 O 0.53616 0.00766 0.68439 0.0
O357 O 0.50728 0.96397 0.5928 0.0
O358 O 0.49211 0.95269 0.65853 0.0
O359 O 0.52524 0.98561 0.77412 0.0
O360 O 0.5065 0.96594 0.74563 0.0
O361 O 0.48657 0.00589 0.77364 0.0
O362 O 0.4793 0.9938 0.69766 0.0
O363 O 0.51695 0.02339 0.82072 0.0
O364 O 0.51944 0.04205 0.75492 0.0
C365 C 0.5428 0.99105 0.6634 0.0
O366 O 0.5046 0.00499 0.61998 0.0
O367 O 0.49849 0.0276 0.68558 0.0
C368 C 0.48065 0.95274 0.57997 0.0
C369 C 0.44808 0.95554 0.54442 0.0
C370 C 0.45751 0.97171 0.54503 0.0
C371 C 0.47358 0.97035 0.56295 0.0
C372 C 0.47171 0.93633 0.577 0.0
C373 C 0.45553 0.9377 0.55917 0.0
C374 C 0.49575 0.95227 0.60832 0.0
C375 C 0.51774 0.96956 0.77714 0.0
C376 C 0.4749 0.00083 0.74494 0.0
C377 C 0.53873 0.04449 0.81633 0.0
C378 C 0.57114 0.05298 0.84195 0.0
C379 C 0.56979 0.0422 0.79677 0.0
C380 C 0.55376 0.0379 0.78431 0.0
C381 C 0.5399 0.05544 0.86106 0.0
C382 C 0.55599 0.05965 0.87386 0.0
C383 C 0.52194 0.03965 0.8032 0.0
H384 H 0.45224 0.98558 0.53301 0.0
H385 H 0.48013 0.98329 0.56557 0.0
H386 H 0.47686 0.92269 0.59077 0.0
H387 H 0.44852 0.92502 0.55934 0.0
H388 H 0.58114 0.03708 0.77091 0.0
H389 H 0.55311 0.02937 0.74966 0.0
H390 H 0.5284 0.06055 0.88631 0.0
H391 H 0.55658 0.06775 0.90931 0.0
Dy392 Dy 0.52558 0.4898 0.72354 0.0
Dy393 Dy 0.4878 0.49706 0.6743 0.0
C394 C 0.4961 0.46229 0.74501 0.0
O395 O 0.53124 0.47625 0.64469 0.0
O396 O 0.50373 0.47545 0.62098 0.0
O397 O 0.5393 0.47523 0.78085 0.0
O398 O 0.55228 0.49476 0.72888 0.0
O399 O 0.50626 0.51415 0.62688 0.0
O400 O 0.5248 0.51883 0.68736 0.0
O401 O 0.48812 0.52028 0.73376 0.0
O402 O 0.50655 0.50463 0.78467 0.0
O403 O 0.46761 0.51556 0.64486 0.0
O404 O 0.46488 0.4852 0.65458 0.0
C405 C 0.52043 0.47058 0.6138 0.0
O406 O 0.51229 0.46284 0.72669 0.0
O407 O 0.48509 0.47735 0.74171 0.0
C408 C 0.56203 0.49067 0.81279 0.0
C409 C 0.58156 0.49876 0.89458 0.0
C410 C 0.56546 0.49136 0.90499 0.0
C411 C 0.55581 0.48738 0.86468 0.0
C412 C 0.57788 0.49859 0.8025 0.0
C413 C 0.58749 0.50268 0.84288 0.0
C414 C 0.55325 0.48387 0.76915 0.0
C415 C 0.51782 0.52398 0.64534 0.0
C416 C 0.49545 0.51912 0.77661 0.0
C417 C 0.45065 0.50071 0.58819 0.0
C418 C 0.43343 0.49837 0.49849 0.0
C419 C 0.44751 0.48514 0.50573 0.0
C420 C 0.45606 0.48631 0.55004 0.0
C421 C 0.43686 0.51413 0.58057 0.0
C422 C 0.42838 0.51302 0.53628 0.0
C423 C 0.45835 0.50139 0.63754 0.0
H424 H 0.56038 0.48841 0.94437 0.0
H425 H 0.54369 0.48123 0.87421 0.0
H426 H 0.58313 0.50105 0.76295 0.0
H427 H 0.59989 0.50821 0.83332 0.0
H428 H 0.45193 0.47383 0.47717 0.0
H429 H 0.46671 0.4758 0.5548 0.0
H430 H 0.43239 0.52529 0.60956 0.0
H431 H 0.41749 0.52332 0.53248 0.0
Dy432 Dy 0.01172 0.51787 0.68067 0.0
Dy433 Dy 1.00131 0.47985 0.74409 0.0
C434 C 0.01245 0.47784 0.62395 0.0
O435 O 0.98483 0.51498 0.66361 0.0
O436 O 0.9759 0.49457 0.72822 0.0
O437 O 0.01484 0.53316 0.60889 0.0
O438 O 0.02172 0.54573 0.67931 0.0
O439 O 1.00434 0.5029 0.80199 0.0
O440 O 0.99625 0.5286 0.75446 0.0
O441 O 0.03024 0.47705 0.73516 0.0
O442 O 0.03394 0.50896 0.72422 0.0
O443 O 0.99051 0.46736 0.81455 0.0
O444 O 1.00031 0.449 0.74804 0.0
C445 C 0.97263 0.50628 0.69047 0.0
O446 O 0.02201 0.49186 0.63142 0.0
O447 O 1.00033 0.47386 0.66011 0.0
C448 C 0.04077 0.54732 0.6027 0.0
C449 C 0.07296 0.53927 0.54343 0.0
C450 C 0.0709 0.53537 0.59659 0.0
C451 C 0.05495 0.53932 0.6259 0.0
C452 C 0.04314 0.55282 0.55085 0.0
C453 C 0.05915 0.54887 0.5214 0.0
C454 C 0.02328 0.54612 0.62878 0.0
C455 C 0.99843 0.52098 0.79938 0.0
C456 C 0.0399 0.49151 0.73506 0.0
C457 C 0.97405 0.44258 0.79657 0.0
C458 C 0.9382 0.44055 0.8096 0.0
C459 C 0.94772 0.43835 0.85217 0.0
C460 C 0.96551 0.4393 0.84562 0.0
C461 C 0.9649 0.44267 0.75323 0.0
C462 C 0.94715 0.44144 0.75965 0.0
C463 C 0.99093 0.45034 0.79308 0.0
H464 H 0.08117 0.52781 0.61473 0.0
H465 H 0.05348 0.53475 0.66573 0.0
H466 H 0.03233 0.55891 0.5322 0.0
H467 H 0.06044 0.55231 0.48068 0.0
H468 H 0.94134 0.43776 0.89129 0.0
H469 H 0.97232 0.43933 0.87956 0.0
H470 H 0.97117 0.44526 0.71488 0.0
H471 H 0.94027 0.44273 0.7259 0.0
C472 C 0.15439 0.02444 0.27345 0.0
C473 C 0.16183 0.00693 0.24979 0.0
C474 C 0.13922 0.02509 0.30799 0.0
C475 C 0.11693 0.99528 0.4021 0.0
H476 H 0.07697 0.03172 0.39867 0.0
C477 C 0.0566 0.99107 0.54936 0.0
C478 C 0.04652 0.00809 0.56611 0.0
C479 C 0.06992 0.99119 0.50867 0.0
C480 C 0.08811 0.02163 0.4009 0.0
H481 H 0.15816 0.97662 0.24157 0.0
H482 H 0.13219 0.97772 0.30318 0.0
H483 H 0.10124 0.03187 0.33071 0.0
H484 H 0.04259 0.03867 0.55333 0.0
H485 H 0.06633 0.03913 0.4841 0.0
H486 H 0.10448 0.98552 0.47305 0.0
C487 C 0.13822 0.9909 0.29507 0.0
C488 C 0.10197 0.02166 0.3616 0.0
C489 C 0.15317 0.99029 0.2599 0.0
C490 C 0.05008 0.02528 0.54119 0.0
C491 C 0.06366 0.02549 0.50109 0.0
C492 C 0.10329 0.99548 0.44185 0.0
C493 C 0.13127 0.00822 0.32028 0.0
C494 C 0.11646 0.00837 0.3616 0.0
C495 C 0.07384 0.00843 0.48418 0.0
C496 C 0.08855 0.00855 0.44179 0.0
H497 H 0.16068 0.03754 0.2674 0.0
H498 H 0.13418 0.03863 0.32703 0.0
H499 H 0.12807 0.98509 0.40359 0.0
H500 H 0.05405 0.97752 0.56727 0.0
H501 H 0.07703 0.97763 0.49622 0.0
C502 C 0.49006 0.16166 0.36462 0.0
C503 C 0.48643 0.16002 0.31317 0.0
C504 C 0.48874 0.14616 0.3978 0.0
C505 C 0.49247 0.09406 0.39932 0.0
H506 H 0.47021 0.1015 0.54022 0.0
C507 C 0.49323 0.03245 0.54712 0.0
C508 C 0.49537 0.03755 0.59834 0.0
C509 C 0.48993 0.04664 0.51099 0.0
C510 C 0.47666 0.09918 0.50122 0.0
H511 H 0.4784 0.14098 0.25609 0.0
H512 H 0.47648 0.11346 0.31418 0.0
H513 H 0.46844 0.1277 0.47944 0.0
H514 H 0.49569 0.06161 0.65165 0.0
H515 H 0.49049 0.0862 0.58877 0.0
H516 H 0.50141 0.06588 0.42148 0.0
C517 C 0.48022 0.12688 0.32871 0.0
C518 C 0.47552 0.11418 0.46631 0.0
C519 C 0.48124 0.14259 0.29564 0.0
C520 C 0.49397 0.05714 0.61267 0.0
C521 C 0.49086 0.07129 0.57651 0.0
C522 C 0.49381 0.0791 0.43447 0.0
C523 C 0.48399 0.12853 0.38013 0.0
C524 C 0.48364 0.1119 0.41525 0.0
C525 C 0.48884 0.06628 0.52506 0.0
C526 C 0.48618 0.08156 0.48623 0.0
H527 H 0.49399 0.17498 0.37916 0.0
H528 H 0.49187 0.14781 0.43703 0.0
H529 H 0.49898 0.09196 0.36031 0.0
H530 H 0.49411 0.01748 0.53486 0.0
H531 H 0.48819 0.04217 0.47205 0.0
C532 C 0.3394 0.49866 0.14745 0.0
C533 C 0.33416 0.48036 0.13733 0.0
C534 C 0.35144 0.50106 0.18233 0.0
C535 C 0.38492 0.47442 0.25123 0.0
H536 H 0.37532 0.51711 0.35003 0.0
C537 C 0.4199 0.47851 0.43514 0.0
C538 C 0.42367 0.49662 0.45276 0.0
C539 C 0.41001 0.47692 0.39401 0.0
C540 C 0.3784 0.50526 0.32232 0.0
H541 H 0.33776 0.45021 0.15646 0.0
H542 H 0.35877 0.45436 0.21628 0.0
H543 H 0.35666 0.51379 0.28249 0.0
H544 H 0.42036 0.52723 0.43935 0.0
H545 H 0.40327 0.52446 0.36754 0.0
H546 H 0.4066 0.46581 0.29119 0.0
C547 C 0.35374 0.46687 0.19678 0.0
C548 C 0.36765 0.50335 0.28347 0.0
C549 C 0.34168 0.46448 0.16213 0.0
C550 C 0.4175 0.51306 0.42745 0.0
C551 C 0.40765 0.51147 0.38622 0.0
C552 C 0.3957 0.47635 0.29 0.0
C553 C 0.35863 0.48522 0.20797 0.0
C554 C 0.37067 0.48781 0.24762 0.0
C555 C 0.40362 0.49338 0.36913 0.0
C556 C 0.39252 0.49171 0.32643 0.0
H557 H 0.33411 0.51121 0.1287 0.0
H558 H 0.35509 0.51537 0.18932 0.0
H559 H 0.38782 0.46243 0.22388 0.0
H560 H 0.42419 0.46555 0.45411 0.0
H561 H 0.40699 0.46276 0.38265 0.0
C562 C 0.016 0.37434 0.23552 0.0
C563 C 0.03261 0.36773 0.21225 0.0
C564 C 0.01374 0.38776 0.27674 0.0
C565 C 0.03393 0.42504 0.3431 0.0
H566 H 1.00601 0.40969 0.46596 0.0
C567 C 0.03034 0.46601 0.541 0.0
C568 C 0.01488 0.46664 0.57437 0.0
C569 C 0.03257 0.4548 0.49511 0.0
C570 C 0.01358 0.4145 0.43186 0.0
H571 H 0.05983 0.37089 0.21373 0.0
H572 H 0.05573 0.39478 0.28413 0.0
H573 H 0.00919 0.3897 0.38769 0.0
H574 H 0.98938 0.45665 0.58469 0.0
H575 H 0.99291 0.43794 0.50435 0.0
H576 H 0.03804 0.45008 0.38671 0.0
C577 C 0.04451 0.38941 0.27045 0.0
C578 C 0.01545 0.40292 0.38695 0.0
C579 C 0.04681 0.37575 0.22976 0.0
C580 C 1.00157 0.45625 0.56025 0.0
C581 C 1.00366 0.44536 0.51413 0.0
C582 C 0.03183 0.43684 0.38786 0.0
C583 C 0.02798 0.3952 0.29521 0.0
C584 C 0.02566 0.40802 0.34211 0.0
C585 C 0.01927 0.4442 0.48112 0.0
C586 C 0.02162 0.43174 0.43301 0.0
H587 H 1.00471 0.36889 0.22257 0.0
H588 H 1.00082 0.39218 0.29463 0.0
H589 H 0.04183 0.42935 0.30899 0.0
H590 H 0.04086 0.47383 0.55088 0.0
H591 H 0.04486 0.45415 0.47126 0.0
C592 C 0.85308 0.01136 0.09075 0.0
C593 C 0.84852 0.99392 0.11264 0.0
C594 C 0.8677 0.01188 0.05473 0.0
C595 C 0.8919 0.00719 0.95493 0.0
H596 H 0.93461 0.97631 0.96741 0.0
C597 C 0.9476 0.00016 0.78791 0.0
C598 C 0.96445 0.00063 0.8009 0.0
C599 C 0.93377 -0.00126 0.82643 0.0
C600 C 0.92282 0.98513 0.96348 0.0
H601 H 0.85628 0.96339 0.11453 0.0
H602 H 0.88168 0.96425 0.05096 0.0
H603 H 0.91034 0.97538 0.03498 0.0
H604 H 0.97988 -0.00026 0.86499 0.0
H605 H 0.95575 0.99749 0.93209 0.0
H606 H 0.90439 0.01723 0.88409 0.0
C607 C 0.87395 0.97758 0.0621 0.0
C608 C 0.90882 0.98443 0.00199 0.0
C609 C 0.85928 0.97706 0.09825 0.0
C610 C 0.9671 -0.00057 0.85345 0.0
C611 C 0.95326 0.99801 0.892 0.0
C612 C 0.90584 0.00786 0.91648 0.0
C613 C 0.87821 0.99498 0.03926 0.0
C614 C 0.89318 0.99551 0.99832 0.0
C615 C 0.93638 0.99776 0.87905 0.0
C616 C 0.92151 0.99686 0.92016 0.0
H617 H 0.84504 0.02462 0.10009 0.0
H618 H 0.87069 0.02559 0.03865 0.0
H619 H 0.88001 0.01572 0.95031 0.0
H620 H 0.94504 0.00093 0.74789 0.0
H621 H 0.92102 0.99829 0.81485 0.0
C622 C 0.55786 0.84754 0.09215 0.0
C623 C 0.54469 0.83533 0.10352 0.0
C624 C 0.55524 0.86388 0.06232 0.0
C625 C 0.52077 0.89536 0.00849 0.0
H626 H 0.55826 0.90732 0.9067 0.0
C627 C 0.51045 0.94095 0.82963 0.0
C628 C 0.52149 0.95546 0.81751 0.0
C629 C 0.51364 0.92776 0.8681 0.0
C630 C 0.54773 0.90429 0.93534 0.0
H631 H 0.51843 0.83074 0.09252 0.0
H632 H 0.51394 0.85884 0.03991 0.0
H633 H 0.56302 0.88179 0.9681 0.0
H634 H 0.54466 0.96735 0.83613 0.0
H635 H 0.55043 0.94392 0.90291 0.0
H636 H 0.50535 0.91739 0.9741 0.0
C637 C 0.52617 0.85623 0.05507 0.0
C638 C 0.55045 0.8897 0.97076 0.0
C639 C 0.52874 0.84004 0.08529 0.0
C640 C 0.5359 0.95636 0.84458 0.0
C641 C 0.53924 0.94293 0.88265 0.0
C642 C 0.51802 0.90977 0.97269 0.0
C643 C 0.53943 0.86829 0.04261 0.0
C644 C 0.53694 0.88484 0.00744 0.0
C645 C 0.52806 0.92856 0.89501 0.0
C646 C 0.5314 0.91423 0.93532 0.0
H647 H 0.57025 0.84436 0.10599 0.0
H648 H 0.56566 0.87298 0.05445 0.0
H649 H 0.51014 0.89241 0.03681 0.0
H650 H 0.4992 0.93985 0.80969 0.0
H651 H 0.5049 0.91672 0.87634 0.0
C652 C 0.67598 0.4996 0.24285 0.0
C653 C 0.68509 0.516 0.24525 0.0
C654 C 0.66382 0.49837 0.2077 0.0
C655 C 0.65271 0.51804 0.08306 0.0
H656 H 0.60949 0.4959 0.11882 0.0
C657 C 0.60174 0.51782 0.93903 0.0
C658 C 0.59245 0.50157 0.93712 0.0
C659 C 0.61234 0.52009 0.97811 0.0
C660 C 0.62159 0.50192 0.10787 0.0
H661 H 0.6883 0.54406 0.21239 0.0
H662 H 0.66702 0.54203 0.15202 0.0
H663 H 0.62901 0.49878 0.18444 0.0
H664 H 0.58725 0.47483 0.97484 0.0
H665 H 0.60583 0.47861 0.04231 0.0
H666 H 0.64554 0.5209 0.00641 0.0
C667 C 0.66935 0.53003 0.17706 0.0
C668 C 0.63278 0.5036 0.14566 0.0
C669 C 0.68141 0.5313 0.21232 0.0
C670 C 0.59398 0.48769 0.97553 0.0
C671 C 0.60466 0.48989 0.01439 0.0
C672 C 0.64159 0.51626 0.04524 0.0
C673 C 0.66055 0.51345 0.17372 0.0
C674 C 0.64849 0.51172 0.13379 0.0
C675 C 0.61407 0.50609 0.01621 0.0
C676 C 0.62584 0.50818 0.057 0.0
H677 H 0.6784 0.48758 0.26773 0.0
H678 H 0.65736 0.48534 0.20607 0.0
H679 H 0.66483 0.52405 0.07218 0.0
H680 H 0.60071 0.52892 0.91051 0.0
H681 H 0.61908 0.53294 0.9786 0.0
C682 C 0.99934 0.62826 0.17461 0.0
C683 C 0.98373 0.63246 0.20673 0.0
C684 C 1.00058 0.61497 0.13344 0.0
C685 C 0.97977 0.57526 0.07793 0.0
H686 H 1.00325 0.59156 0.94837 0.0
C687 C 0.99702 0.52511 0.896 0.0
C688 C 0.99516 0.53315 0.84738 0.0
C689 C 0.99476 0.5367 0.94102 0.0
C690 C 0.99653 0.58684 0.9841 0.0
H691 H 0.95739 0.62515 0.222 0.0
H692 H 0.95954 0.60196 0.14971 0.0
H693 H 1.00123 0.61209 0.02558 0.0
H694 H 0.98906 0.55971 0.80828 0.0
H695 H 0.98507 0.5799 0.88672 0.0
H696 H 0.97495 0.55004 0.036 0.0
C697 C 0.97083 0.60899 0.15661 0.0
C698 C 0.99556 0.59851 0.02858 0.0
C699 C 0.96957 0.62236 0.19785 0.0
C700 C 0.99066 0.55303 0.84499 0.0
C701 C 0.98847 0.56463 0.88997 0.0
C702 C 0.98083 0.5635 0.03338 0.0
C703 C 0.98624 0.6055 0.12314 0.0
C704 C 0.98722 0.59286 0.0761 0.0
C705 C 0.99065 0.55665 0.93848 0.0
C706 C 0.98922 0.56917 0.9859 0.0
H707 H 0.01046 0.6359 0.17963 0.0
H708 H 0.01271 0.6124 0.10893 0.0
H709 H 0.97331 0.57046 0.11396 0.0
H710 H 1.00046 0.50984 0.89934 0.0
H711 H 0.99668 0.53011 0.97764 0.0
C712 C 0.07498 0.21155 0.31406 0.0
C713 C 0.0771 0.20951 0.25972 0.0
C714 C 0.06889 0.19679 0.34485 0.0
C715 C 0.05902 0.14597 0.3457 0.0
H716 H 0.01782 0.16567 0.434 0.0
C717 C 0.00832 0.09619 0.42758 0.0
C718 C 1.00087 0.09962 0.47906 0.0
C719 C 0.01856 0.10944 0.40251 0.0
C720 C 0.02942 0.15989 0.41027 0.0
H721 H 0.07608 0.18959 0.19554 0.0
H722 H 0.06588 0.1638 0.24929 0.0
H723 H 0.03651 0.18798 0.39074 0.0
H724 H 0.99764 0.12009 0.54368 0.0
H725 H 0.01586 0.14288 0.50061 0.0
H726 H 0.0519 0.11786 0.36509 0.0
C727 C 0.06881 0.17684 0.26806 0.0
C728 C 0.04017 0.1727 0.38559 0.0
C729 C 0.07475 0.19165 0.23723 0.0
C730 C 1.00337 0.11691 0.50421 0.0
C731 C 0.0137 0.13006 0.47931 0.0
C732 C 0.04835 0.13313 0.37081 0.0
C733 C 0.06502 0.17964 0.32189 0.0
C734 C 0.05496 0.16588 0.35261 0.0
C735 C 0.02166 0.12635 0.42844 0.0
C736 C 0.03329 0.13995 0.40286 0.0
H737 H 0.07702 0.22499 0.33262 0.0
H738 H 0.06638 0.19915 0.38643 0.0
H739 H 0.07038 0.14035 0.32059 0.0
H740 H 0.00681 0.08294 0.40725 0.0
H741 H 0.0242 0.10631 0.36294 0.0
C742 C 0.30799 0.00065 0.40043 0.0
C743 C 0.30377 0.98735 0.36412 0.0
C744 C 0.32162 0.99609 0.42936 0.0
C745 C 0.35249 0.95609 0.46413 0.0
H746 H 0.38265 0.99695 0.46933 0.0
C747 C 0.42412 0.94409 0.49931 0.0
C748 C 0.43019 0.95771 0.53125 0.0
C749 C 0.40741 0.94679 0.48554 0.0
C750 C 0.37426 0.98546 0.46887 0.0
H751 H 0.30999 0.95862 0.3309 0.0
H752 H 0.33399 0.95076 0.38056 0.0
H753 H 0.35528 0.00334 0.43531 0.0
H754 H 0.42321 0.98416 0.57641 0.0
H755 H 0.39421 0.98894 0.55191 0.0
H756 H 0.37195 0.93807 0.49623 0.0
C757 C 0.3266 0.96457 0.3876 0.0
C758 C 0.35852 0.98914 0.44957 0.0
C759 C 0.31287 0.96907 0.35904 0.0
C760 C 0.41906 0.97369 0.55057 0.0
C761 C 0.40243 0.9764 0.53676 0.0
C762 C 0.36835 0.95237 0.4832 0.0
C763 C 0.33143 0.97822 0.42206 0.0
C764 C 0.34749 0.97448 0.44661 0.0
C765 C 0.39652 0.96315 0.5035 0.0
C766 C 0.37941 0.96702 0.48543 0.0
H767 H 0.30101 0.01475 0.4055 0.0
H768 H 0.32476 0.00676 0.45644 0.0
H769 H 0.34421 0.94454 0.46288 0.0
H770 H 0.43243 0.93167 0.48378 0.0
H771 H 0.40321 0.93643 0.45949 0.0
C772 C 0.53809 0.32178 0.36466 0.0
C773 C 0.52928 0.32382 0.32084 0.0
C774 C 0.54182 0.33802 0.39173 0.0
C775 C 0.54105 0.39176 0.38438 0.0
H776 H 0.53528 0.3889 0.53423 0.0
C777 C 0.51802 0.4547 0.52876 0.0
C778 C 0.52696 0.45642 0.57209 0.0
C779 C 0.52257 0.43943 0.49325 0.0
C780 C 0.53721 0.38982 0.49239 0.0
H781 H 0.51745 0.34421 0.27072 0.0
H782 H 0.52315 0.37249 0.31892 0.0
H783 H 0.53498 0.35986 0.48197 0.0
H784 H 0.54807 0.444 0.61131 0.0
H785 H 0.55568 0.41693 0.5498 0.0
H786 H 0.54195 0.42212 0.39568 0.0
C787 C 0.52786 0.35851 0.33161 0.0
C788 C 0.53712 0.37316 0.46228 0.0
C789 C 0.52446 0.3423 0.30408 0.0
C790 C 0.54103 0.44309 0.57805 0.0
C791 C 0.54535 0.42759 0.54311 0.0
C792 C 0.54078 0.40848 0.4146 0.0
C793 C 0.53646 0.35662 0.37613 0.0
C794 C 0.53868 0.37395 0.40784 0.0
C795 C 0.53592 0.42545 0.50107 0.0
C796 C 0.53858 0.40766 0.46882 0.0
H797 H 0.54204 0.30762 0.378 0.0
H798 H 0.54874 0.33596 0.42517 0.0
H799 H 0.54273 0.39289 0.34262 0.0
H800 H 0.50714 0.46479 0.52322 0.0
H801 H 0.51504 0.43797 0.46129 0.0
C802 C 0.20269 0.44883 0.33318 0.0
C803 C 0.20113 0.44233 0.28265 0.0
C804 C 0.18823 0.45668 0.36541 0.0
C805 C 0.14708 0.48282 0.34811 0.0
H806 H 0.13886 0.48273 0.4981 0.0
C807 C 0.08654 0.52107 0.46369 0.0
C808 C 0.08843 0.53064 0.5103 0.0
C809 C 0.10044 0.5101 0.43644 0.0
C810 C 0.14115 0.48303 0.45621 0.0
H811 H 0.18281 0.43687 0.22887 0.0
H812 H 0.15766 0.44969 0.28583 0.0
H813 H 0.162 0.46092 0.45277 0.0
H814 H 0.10662 0.53703 0.56339 0.0
H815 H 0.13101 0.51781 0.51547 0.0
H816 H 0.12639 0.50496 0.35134 0.0
C817 C 0.17014 0.44938 0.29981 0.0
C818 C 0.15431 0.47049 0.43031 0.0
C819 C 0.18458 0.44172 0.26745 0.0
C820 C 0.10473 0.52966 0.52787 0.0
C821 C 0.11865 0.5186 0.50065 0.0
C822 C 0.13396 0.49529 0.3739 0.0
C823 C 0.17194 0.45796 0.34781 0.0
C824 C 0.15738 0.47024 0.37595 0.0
C825 C 0.11654 0.50841 0.45523 0.0
C826 C 0.13085 0.49554 0.42818 0.0
H827 H 0.21523 0.4491 0.34649 0.0
H828 H 0.19003 0.46304 0.40239 0.0
H829 H 0.14942 0.48339 0.30626 0.0
H830 H 0.07409 0.52117 0.44961 0.0
H831 H 0.09838 0.50226 0.40183 0.0
C832 C 0.02346 0.76808 0.0314 0.0
C833 C 0.0141 0.77613 0.07704 0.0
C834 C 0.02773 0.77978 0.98934 0.0
C835 C 0.04464 0.81404 0.93284 0.0
H836 H 0.00926 0.84942 0.88507 0.0
C837 C 0.05428 0.89025 0.86282 0.0
C838 C 0.04473 0.89779 0.82409 0.0
C839 C 0.05265 0.87149 0.87944 0.0
C840 C 0.01929 0.83939 0.89704 0.0
H841 H 1.00137 0.80221 0.11465 0.0
H842 H 0.00842 0.82257 0.04074 0.0
H843 H 1.00105 0.82358 0.9425 0.0
H844 H 0.02736 0.891 0.76876 0.0
H845 H 0.02424 0.85837 0.79872 0.0
H846 H 0.06291 0.83068 0.89001 0.0
C847 C 0.01259 0.80736 0.03754 0.0
C848 C 0.01457 0.82471 0.93011 0.0
C849 C 0.00867 0.7958 0.07977 0.0
C850 C 0.03454 0.88574 0.79963 0.0
C851 C 0.03283 0.86704 0.81648 0.0
C852 C 0.04938 0.82893 0.90023 0.0
C853 C 0.02227 0.79949 0.99221 0.0
C854 C 0.02721 0.81232 0.9495 0.0
C855 C 0.0414 0.85999 0.85775 0.0
C856 C 0.03673 0.84208 0.88334 0.0
H857 H 0.02775 0.7529 0.0288 0.0
H858 H 0.03525 0.77349 0.9547 0.0
H859 H 0.05458 0.80466 0.94765 0.0
H860 H 0.06217 0.89919 0.88259 0.0
H861 H 0.05928 0.86649 0.91171 0.0
C862 C 0.70761 0.03749 0.99723 0.0
C863 C 0.7116 0.05038 0.03502 0.0
C864 C 0.69436 0.04244 0.96726 0.0
C865 C 0.65364 0.07229 0.97683 0.0
H866 H 0.65307 0.05269 0.83685 0.0
C867 C 0.59114 0.07435 0.8787 0.0
C868 C 0.58832 0.05662 0.85644 0.0
C869 C 0.60724 0.07739 0.89367 0.0
C870 C 0.65306 0.05831 0.87589 0.0
H871 H 0.70558 0.07913 0.06843 0.0
H872 H 0.68229 0.08778 0.01602 0.0
H873 H 0.68026 0.05187 0.87394 0.0
H874 H 0.60022 0.02816 0.83278 0.0
H875 H 0.6282 0.03352 0.85834 0.0
H876 H 0.62636 0.07809 0.97943 0.0
C877 C 0.68932 0.07372 0.01019 0.0
C878 C 0.66861 0.05784 0.89711 0.0
C879 C 0.70263 0.06876 0.04019 0.0
C880 C 0.60201 0.04212 0.84882 0.0
C881 C 0.61808 0.0452 0.86343 0.0
C882 C 0.6381 0.07281 0.95554 0.0
C883 C 0.68475 0.06041 0.97437 0.0
C884 C 0.66898 0.06422 0.94843 0.0
C885 C 0.62085 0.06279 0.88635 0.0
C886 C 0.63758 0.06523 0.9055 0.0
H887 H 0.71404 0.0231 0.99276 0.0
H888 H 0.69101 0.03172 0.94065 0.0
H889 H 0.65344 0.07713 0.01667 0.0
H890 H 0.58094 0.08591 0.88445 0.0
H891 H 0.60905 0.09113 0.911 0.0
C892 C 0.53855 0.64813 0.02918 0.0
C893 C 0.53809 0.66642 0.00704 0.0
C894 C 0.53179 0.63292 0.00563 0.0
C895 C 0.51838 0.61677 0.88153 0.0
H896 H 0.49493 0.58039 0.96952 0.0
C897 C 0.48776 0.55421 0.79475 0.0
C898 C 0.49394 0.53615 0.81174 0.0
C899 C 0.49009 0.57097 0.82188 0.0
C900 C 0.50142 0.59047 0.94455 0.0
H901 H 0.5305 0.68283 0.9418 0.0
H902 H 0.51818 0.65643 0.90156 0.0
H903 H 0.50574 0.60814 0.00862 0.0
H904 H 0.50603 0.52142 0.87292 0.0
H905 H 0.50984 0.55069 0.92063 0.0
H906 H 0.51401 0.59904 0.81751 0.0
C907 C 0.524 0.6538 0.93686 0.0
C908 C 0.50773 0.60629 0.96685 0.0
C909 C 0.53092 0.669 0.96022 0.0
C910 C 0.50118 0.53511 0.85872 0.0
C911 C 0.50334 0.55188 0.88613 0.0
C912 C 0.5119 0.60107 0.85924 0.0
C913 C 0.5242 0.63561 0.95961 0.0
C914 C 0.51655 0.61946 0.93565 0.0
C915 C 0.49842 0.56998 0.86684 0.0
C916 C 0.50358 0.58762 0.89057 0.0
H917 H 0.54369 0.64561 0.06564 0.0
H918 H 0.5325 0.61903 0.02372 0.0
H919 H 0.52529 0.62645 0.85634 0.0
H920 H 0.48213 0.55554 0.75871 0.0
H921 H 0.48599 0.58476 0.8066 0.0
C922 C 0.80751 0.51482 0.04122 0.0
C923 C 0.81545 0.52408 0.07908 0.0
C924 C 0.81724 0.5073 0.99588 0.0
C925 C 0.8444 0.47866 0.93668 0.0
H926 H 0.88292 0.50249 0.86539 0.0
C927 C 0.90915 0.4383 0.8604 0.0
C928 C 0.91932 0.44583 0.81869 0.0
C929 C 0.89276 0.44709 0.87743 0.0
C930 C 0.87202 0.49567 0.88392 0.0
H931 H 0.83933 0.5341 0.09784 0.0
H932 H 0.85632 0.52112 0.01859 0.0
H933 H 0.86106 0.522 0.92196 0.0
H934 H 0.91941 0.46727 0.75902 0.0
H935 H 0.89079 0.48219 0.7877 0.0
H936 H 0.85582 0.45214 0.90043 0.0
C937 C 0.84263 0.51962 0.02376 0.0
C938 C 0.85959 0.50685 0.91669 0.0
C939 C 0.83296 0.52694 0.06926 0.0
C940 C 0.91199 0.46103 0.79112 0.0
C941 C 0.89562 0.46977 0.80796 0.0
C942 C 0.8569 0.46744 0.90405 0.0
C943 C 0.83499 0.50914 0.98749 0.0
C944 C 0.846 0.49833 0.94479 0.0
C945 C 0.88621 0.46352 0.85289 0.0
C946 C 0.87115 0.47571 0.87872 0.0
H947 H 0.79403 0.51233 0.0481 0.0
H948 H 0.81103 0.49939 0.96837 0.0
H949 H 0.83411 0.47168 0.95812 0.0
H950 H 0.91427 0.42637 0.88193 0.0
H951 H 0.88583 0.4419 0.91222 0.0
C952 C 0.02168 0.1981 0.93436 0.0
C953 C 0.03142 0.21117 0.90571 0.0
C954 C 0.01931 0.1802 0.91286 0.0
C955 C 0.02083 0.15294 0.78949 0.0
H956 H 0.02754 0.10841 0.8751 0.0
C957 C 1.00323 0.07716 0.73343 0.0
C958 C 0.01492 0.06135 0.74163 0.0
C959 C 1.00553 0.09558 0.75169 0.0
C960 C 0.02573 0.12067 0.85058 0.0
H961 H 0.04574 0.21588 0.8312 0.0
H962 H 0.04148 0.18464 0.79346 0.0
H963 H 0.03051 0.14043 0.9098 0.0
H964 H 0.03824 0.05264 0.77558 0.0
H965 H 0.04214 0.08478 0.80796 0.0
H966 H 0.01605 0.13313 0.73024 0.0
C967 C 0.03572 0.18826 0.83267 0.0
C968 C 0.02724 0.13905 0.87064 0.0
C969 C 0.03824 0.20612 0.85437 0.0
C970 C 0.02899 0.06445 0.76857 0.0
C971 C 0.03118 0.08287 0.78735 0.0
C972 C 0.01914 0.13455 0.76958 0.0
C973 C 0.02649 0.17494 0.86201 0.0
C974 C 0.0248 0.15542 0.8404 0.0
C975 C 0.01947 0.09865 0.77914 0.0
C976 C 0.02157 0.11819 0.79989 0.0
H977 H 0.01643 0.20138 0.9742 0.0
H978 H 0.01196 0.17037 0.93629 0.0
H979 H 0.01879 0.16524 0.76526 0.0
H980 H 0.99222 0.07537 0.71297 0.0
H981 H 0.99617 0.10736 0.74518 0.0
C982 C 0.3256 0.99652 0.94547 0.0
C983 C 0.31541 0.01419 0.95172 0.0
C984 C 0.34222 0.99534 0.91879 0.0
C985 C 0.37795 0.0255 0.88131 0.0
H986 H 0.39698 0.98095 0.79649 0.0
C987 C 0.4511 0.01061 0.81647 0.0
C988 C 0.45636 0.00305 0.76615 0.0
C989 C 0.43368 0.01237 0.83662 0.0
C990 C 0.39186 0.99359 0.81967 0.0
H991 H 0.31462 0.04434 0.93229 0.0
H992 H 0.34356 0.04228 0.88567 0.0
H993 H 0.36685 0.98333 0.83329 0.0
H994 H 0.44723 0.99151 0.69749 0.0
H995 H 0.41694 0.99473 0.73243 0.0
H996 H 0.4029 0.03584 0.86736 0.0
C997 C 0.33879 0.02936 0.90231 0.0
C998 C 0.37459 0.99486 0.84127 0.0
C999 C 0.32214 0.03054 0.92896 0.0
C1000 C 0.44371 0.99737 0.73645 0.0
C1001 C 0.4263 -0.0009 0.75663 0.0
C1002 C 0.39522 0.02421 0.85984 0.0
C1003 C 0.34918 0.01181 0.8976 0.0
C1004 C 0.3674 0.01079 0.87263 0.0
C1005 C 0.42103 0.00659 0.80706 0.0
C1006 C 0.40247 0.00819 0.82893 0.0
H1007 H 0.32104 0.98368 0.96317 0.0
H1008 H 0.34987 0.98162 0.91658 0.0
H1009 H 0.37296 0.03789 0.90569 0.0
H1010 H 0.46045 0.01509 0.84058 0.0
H1011 H 0.43017 0.01797 0.87582 0.0
C1012 C 0.4803 0.30427 0.92484 0.0
C1013 C 0.47112 0.30347 0.97451 0.0
C1014 C 0.47965 0.32125 0.89682 0.0
C1015 C 0.46986 0.37403 0.91907 0.0
H1016 H 0.47866 0.37464 0.76921 0.0
C1017 C 0.47518 0.44442 0.80274 0.0
C1018 C 0.49038 0.44432 0.76828 0.0
C1019 C 0.47035 0.42738 0.82594 0.0
C1020 C 0.47615 0.37468 0.8111 0.0
H1021 H 0.45312 0.3199 0.03184 0.0
H1022 H 0.45121 0.34896 0.98191 0.0
H1023 H 0.47368 0.34443 0.81218 0.0
H1024 H 0.51211 0.42618 0.7299 0.0
H1025 H 0.50349 0.39652 0.76948 0.0
H1026 H 0.47224 0.40438 0.91755 0.0
C1027 C 0.45947 0.33667 0.96532 0.0
C1028 C 0.4734 0.35734 0.83586 0.0
C1029 C 0.46031 0.31977 0.99367 0.0
C1030 C 0.50038 0.42678 0.75652 0.0
C1031 C 0.49539 0.40975 0.77887 0.0
C1032 C 0.47234 0.3914 0.89421 0.0
C1033 C 0.46958 0.33789 0.91725 0.0
C1034 C 0.47059 0.35666 0.89032 0.0
C1035 C 0.48042 0.40987 0.8142 0.0
C1036 C 0.47588 0.39184 0.84006 0.0
H1037 H 0.4885 0.29195 0.90819 0.0
H1038 H 0.48772 0.3215 0.86017 0.0
H1039 H 0.46806 0.37418 0.96101 0.0
H1040 H 0.46723 0.45771 0.81258 0.0
H1041 H 0.45873 0.42786 0.85297 0.0
C1042 C 0.18285 0.48727 0.89003 0.0
C1043 C 0.1933 0.46981 0.88175 0.0
C1044 C 0.16689 0.48986 0.87064 0.0
C1045 C 0.13931 0.46792 0.78034 0.0
H1046 H 0.1028 0.49916 0.86372 0.0
C1047 C 0.06645 0.47007 0.75023 0.0
C1048 C 0.05776 0.48854 0.74938 0.0
C1049 C 0.08327 0.46761 0.76402 0.0
C1050 C 0.11289 0.49046 0.83983 0.0
H1051 H 0.19518 0.44176 0.8435 0.0
H1052 H 0.16721 0.44584 0.81243 0.0
H1053 H 0.13142 0.49545 0.89124 0.0
H1054 H 0.06009 0.51889 0.76257 0.0
H1055 H 0.08908 0.51455 0.7876 0.0
H1056 H 0.12034 0.46248 0.73001 0.0
C1057 C 0.1714 0.45776 0.8332 0.0
C1058 C 0.12942 0.48843 0.85537 0.0
C1059 C 0.18746 0.45528 0.85189 0.0
C1060 C 0.06632 0.50445 0.76273 0.0
C1061 C 0.08294 0.50197 0.77734 0.0
C1062 C 0.12266 0.46971 0.7653 0.0
C1063 C 0.16069 0.47498 0.84292 0.0
C1064 C 0.14299 0.47722 0.82577 0.0
C1065 C 0.09164 0.48355 0.77824 0.0
C1066 C 0.10927 0.4811 0.79471 0.0
H1067 H 0.18665 0.49881 0.9131 0.0
H1068 H 0.15936 0.50354 0.87802 0.0
H1069 H 0.14933 0.45942 0.75579 0.0
H1070 H 0.06029 0.45749 0.74 0.0
H1071 H 0.08961 0.45323 0.76454 0.0
C1072 C 0.98683 0.80065 0.53834 0.0
C1073 C 0.97781 0.79807 0.49542 0.0
C1074 C 0.98794 0.8191 0.55883 0.0
C1075 C 0.98608 0.86969 0.51956 0.0
H1076 H 0.9824 0.88135 0.66684 0.0
C1077 C 0.98696 0.94746 0.59675 0.0
C1078 C 0.99573 0.95029 0.63997 0.0
C1079 C 0.98403 0.92891 0.58095 0.0
C1080 C 0.98367 0.87831 0.62555 0.0
H1081 H 0.96267 0.81301 0.44104 0.0
H1082 H 0.96439 0.84499 0.47714 0.0
H1083 H 0.9785 0.8489 0.63699 0.0
H1084 H 0.0083 0.93569 0.70051 0.0
H1085 H 1.00354 0.90346 0.67237 0.0
H1086 H 0.99157 0.89886 0.50779 0.0
C1087 C 0.97071 0.83277 0.49477 0.0
C1088 C 0.98139 0.8597 0.60847 0.0
C1089 C 0.96952 0.81436 0.47452 0.0
C1090 C 1.00141 0.93411 0.66717 0.0
C1091 C 0.99859 0.91556 0.65118 0.0
C1092 C 0.98846 0.88823 0.53656 0.0
C1093 C 0.98018 0.83542 0.53658 0.0
C1094 C 0.98251 0.85518 0.55524 0.0
C1095 C 0.98991 0.91268 0.60771 0.0
C1096 C 0.98726 0.89285 0.5898 0.0
H1097 H 0.99328 0.78842 0.55555 0.0
H1098 H 0.99538 0.82064 0.59094 0.0
H1099 H 0.98736 0.86663 0.47826 0.0
H1100 H 0.98229 0.95957 0.57508 0.0
H1101 H 0.97703 0.92734 0.54787 0.0
C1102 C 0.6908 0.99784 0.45053 0.0
C1103 C 0.69761 0.98134 0.42092 0.0
C1104 C 0.67483 0.99823 0.48091 0.0
C1105 C 0.64153 0.96745 0.53913 0.0
H1106 H 0.61108 0.01392 0.53292 0.0
C1107 C 0.56855 0.97196 0.61451 0.0
C1108 C 0.56104 0.9892 0.63928 0.0
C1109 C 0.58557 0.97055 0.59057 0.0
C1110 C 0.61946 0.00091 0.53577 0.0
H1111 H 0.69319 0.95196 0.40242 0.0
H1112 H 0.66526 0.95274 0.45475 0.0
H1113 H 0.64014 0.01221 0.48815 0.0
H1114 H 0.56583 0.01839 0.65886 0.0
H1115 H 0.5954 0.01584 0.61802 0.0
H1116 H 0.62071 0.95613 0.58653 0.0
C1117 C 0.67231 0.96538 0.45466 0.0
C1118 C 0.63619 -7e-05 0.51004 0.0
C1119 C 0.68829 0.96499 0.42423 0.0
C1120 C 0.57109 0.00489 0.64007 0.0
C1121 C 0.58808 0.00347 0.61624 0.0
C1122 C 0.62476 0.96843 0.56495 0.0
C1123 C 0.66519 0.98215 0.48258 0.0
C1124 C 0.64748 0.9832 0.51131 0.0
C1125 C 0.59554 0.98635 0.59075 0.0
C1126 C 0.61348 0.98519 0.56362 0.0
H1127 H 0.69746 0.01078 0.44866 0.0
H1128 H 0.66992 0.0113 0.50253 0.0
H1129 H 0.6499 0.9544 0.54147 0.0
H1130 H 0.56122 0.95958 0.61303 0.0
H1131 H 0.5908 0.95719 0.5709 0.0
C1132 C 0.5232 0.67946 0.44086 0.0
C1133 C 0.53921 0.68473 0.41818 0.0
C1134 C 0.52214 0.66326 0.47171 0.0
C1135 C 0.54785 0.61756 0.49737 0.0
H1136 H 0.50863 0.61216 0.59975 0.0
C1137 C 0.53738 0.55034 0.62673 0.0
C1138 C 0.52192 0.5423 0.62065 0.0
C1139 C 0.5407 0.56815 0.60529 0.0
C1140 C 0.51967 0.61352 0.57132 0.0
H1141 H 0.56679 0.67752 0.41352 0.0
H1142 H 0.565 0.65009 0.46989 0.0
H1143 H 0.51255 0.64331 0.561 0.0
H1144 H 0.49776 0.54677 0.58786 0.0
H1145 H 0.50339 0.57806 0.55189 0.0
H1146 H 0.55506 0.58769 0.50926 0.0
C1147 C 0.55316 0.65801 0.46202 0.0
C1148 C 0.52188 0.63134 0.54869 0.0
C1149 C 0.55421 0.67406 0.43033 0.0
C1150 C 0.50986 0.55246 0.59284 0.0
C1151 C 0.51301 0.57043 0.57257 0.0
C1152 C 0.54581 0.59984 0.52093 0.0
C1153 C 0.53708 0.652 0.4819 0.0
C1154 C 0.53578 0.63355 0.51039 0.0
C1155 C 0.52843 0.57845 0.57865 0.0
C1156 C 0.53151 0.59758 0.55725 0.0
H1157 H 0.51135 0.68752 0.43348 0.0
H1158 H 0.50947 0.65918 0.48564 0.0
H1159 H 0.55856 0.61844 0.46757 0.0
H1160 H 0.5469 0.54285 0.64801 0.0
H1161 H 0.55269 0.57408 0.61046 0.0
C1162 C 0.82611 0.51126 0.55521 0.0
C1163 C 0.82377 0.52456 0.51578 0.0
C1164 C 0.84138 0.50969 0.57869 0.0
C1165 C 0.87999 0.53574 0.59596 0.0
H1166 H 0.90056 0.48525 0.62607 0.0
C1167 C 0.95078 0.52257 0.63805 0.0
C1168 C 0.95476 0.50928 0.67614 0.0
C1169 C 0.93426 0.52481 0.62248 0.0
C1170 C 0.8949 0.49949 0.61854 0.0
H1171 H 0.83607 0.54632 0.46967 0.0
H1172 H 0.86241 0.54362 0.51031 0.0
H1173 H 0.87279 0.48837 0.59217 0.0
H1174 H 0.9442 0.48806 0.72807 0.0
H1175 H 0.9153 0.4922 0.70097 0.0
H1176 H 0.90223 0.54682 0.62154 0.0
C1177 C 0.85233 0.53468 0.52411 0.0
C1178 C 0.87893 0.50129 0.59912 0.0
C1179 C 0.83712 0.53626 0.50074 0.0
C1180 C 0.94165 0.49845 0.69867 0.0
C1181 C 0.92511 0.50067 0.68288 0.0
C1182 C 0.89598 0.53393 0.61518 0.0
C1183 C 0.85475 0.52134 0.56334 0.0
C1184 C 0.87131 0.51944 0.58698 0.0
C1185 C 0.92121 0.5138 0.64436 0.0
C1186 C 0.90376 0.51577 0.62626 0.0
H1187 H 0.8161 0.50211 0.56815 0.0
H1188 H 0.84265 0.49941 0.60918 0.0
H1189 H 0.87443 0.54999 0.58818 0.0
H1190 H 0.96049 0.53115 0.61967 0.0
H1191 H 0.93183 0.5349 0.5923 0.0
loop_
_geom_bond_atom_site_label_1
_geom_bond_atom_site_label_2
_geom_bond_distance
_geom_bond_site_symmetry_2
_ccdc_geom_bond_type
C0 C1 1.386 . S
C0 C2 1.397 . S
C0 H24 0.931 . S
C1 C0 1.386 . S
C1 C5 1.397 . S
C2 C0 1.397 . S
C2 C3 1.384 . S
C2 H25 0.930 . S
C3 C2 1.384 . S
C3 C4 1.377 . S
C3 C6 1.481 . S
C4 C3 1.377 . S
C4 C5 1.389 . S
C4 H26 0.929 . S
C5 C1 1.397 . S
C5 C4 1.389 . S
C5 H27 0.931 . S
C6 C3 1.481 . S
C6 C7 1.387 . S
C6 C11 1.390 . S
C7 C6 1.387 . S
C7 C8 1.401 . S
C7 H28 0.930 . S
C8 C7 1.401 . S
C8 C9 1.376 . S
C8 C17 1.511 . S
C9 C8 1.376 . S
C9 C10 1.392 . S
C9 H30 0.931 . S
C10 C9 1.392 . S
C10 C11 1.361 . S
C10 C12 1.500 . S
C11 C6 1.390 . S
C11 C10 1.361 . S
C11 H29 0.931 . S
C12 C10 1.500 . S
C12 C13 1.371 . S
C12 C14 1.365 . S
C13 C12 1.371 . S
C13 C23 1.386 . S
C13 H31 0.931 . S
C14 C12 1.365 . S
C14 C15 1.409 . S
C14 H32 0.929 . S
C15 C14 1.409 . S
C15 C16 1.380 . S
C15 H33 0.930 . S
C16 C15 1.380 . S
C16 C23 1.357 . S
C17 C8 1.511 . S
C17 C18 1.341 . S
C17 C19 1.371 . S
C18 C17 1.341 . S
C18 C22 1.394 . S
C18 H34 0.930 . S
C19 C17 1.371 . S
C19 C20 1.392 . S
C19 H35 0.931 . S
C20 C19 1.392 . S
C20 C21 1.331 . S
C20 H38 0.932 . S
C21 C20 1.331 . S
C21 C22 1.336 . S
C22 C18 1.394 . S
C22 C21 1.336 . S
C22 H37 0.929 . S
C23 C13 1.386 . S
C23 C16 1.357 . S
C23 H36 0.928 . S
H24 C0 0.931 . S
H25 C2 0.930 . S
H26 C4 0.929 . S
H27 C5 0.931 . S
H28 C7 0.930 . S
H29 C11 0.931 . S
H30 C9 0.931 . S
H31 C13 0.931 . S
H32 C14 0.929 . S
H33 C15 0.930 . S
H34 C18 0.930 . S
H35 C19 0.931 . S
H36 C23 0.928 . S
H37 C22 0.929 . S
H38 C20 0.932 . S
C39 C40 1.386 . S
C39 C41 1.397 . S
C39 H63 0.931 . S
C40 C39 1.386 . S
C40 C44 1.397 . S
C41 C39 1.397 . S
C41 C42 1.384 . S
C41 H64 0.930 . S
C42 C41 1.384 . S
C42 C43 1.377 . S
C42 C45 1.481 . S
C43 C42 1.377 . S
C43 C44 1.389 . S
C43 H65 0.929 1_655 S
C44 C40 1.397 . S
C44 C43 1.389 . S
C44 H66 0.931 1_655 S
C45 C42 1.481 . S
C45 C46 1.387 . S
C45 C50 1.390 . S
C46 C45 1.387 . S
C46 C47 1.401 . S
C46 H67 0.930 . S
C47 C46 1.401 . S
C47 C48 1.376 . S
C47 C56 1.511 . S
C48 C47 1.376 . S
C48 C49 1.392 . S
C48 H69 0.931 . S
C49 C48 1.392 . S
C49 C50 1.361 . S
C49 C51 1.500 . S
C50 C45 1.390 . S
C50 C49 1.361 . S
C50 H68 0.931 . S
C51 C49 1.500 . S
C51 C52 1.371 . S
C51 C53 1.365 . S
C52 C51 1.371 . S
C52 C62 1.386 . S
C52 H70 0.931 . S
C53 C51 1.365 . S
C53 C54 1.409 . S
C53 H71 0.964 . S
C54 C53 1.409 . S
C54 C55 1.380 . S
C54 H72 0.930 . S
C55 C54 1.380 . S
C55 C62 1.357 . S
C56 C47 1.511 . S
C56 C57 1.341 . S
C56 C58 1.371 . S
C57 C56 1.341 . S
C57 C61 1.394 . S
C57 H73 0.930 . S
C58 C56 1.371 . S
C58 C59 1.392 . S
C58 H74 0.931 . S
C59 C58 1.392 . S
C59 C60 1.331 . S
C59 H77 0.932 . S
C60 C59 1.331 . S
C60 C61 1.336 . S
C61 C57 1.394 . S
C61 C60 1.336 . S
C61 H76 0.929 . S
C62 C52 1.386 . S
C62 C55 1.357 . S
C62 H75 0.928 . S
H63 C39 0.931 . S
H64 C41 0.930 . S
H65 C43 0.929 1_455 S
H66 C44 0.931 1_455 S
H67 C46 0.930 . S
H68 C50 0.931 . S
H69 C48 0.931 . S
H70 C52 0.931 . S
H71 C53 0.964 . S
H72 C54 0.930 . S
H73 C57 0.930 . S
H74 C58 0.931 . S
H75 C62 0.928 . S
H76 C61 0.929 . S
H77 C59 0.932 . S
C78 C79 1.393 . S
C78 C80 1.397 . S
C78 H102 0.931 . S
C79 C78 1.393 . S
C79 C83 1.389 1_565 S
C80 C78 1.397 . S
C80 C81 1.389 . S
C80 H103 0.930 . S
C81 C80 1.389 . S
C81 C82 1.373 1_565 S
C81 C84 1.482 . S
C82 C81 1.373 1_545 S
C82 C83 1.389 . S
C82 H104 0.929 . S
C83 C79 1.389 1_545 S
C83 C82 1.389 . S
C83 H105 0.931 . S
C84 C81 1.482 . S
C84 C85 1.385 . S
C84 C89 1.391 . S
C85 C84 1.385 . S
C85 C86 1.404 . S
C85 H106 0.930 . S
C86 C85 1.404 . S
C86 C87 1.376 . S
C86 C95 1.510 . S
C87 C86 1.376 . S
C87 C88 1.395 . S
C87 H108 0.932 . S
C88 C87 1.395 . S
C88 C89 1.361 . S
C88 C90 1.500 1_565 S
C89 C84 1.391 . S
C89 C88 1.361 . S
C89 H107 0.932 . S
C90 C88 1.500 1_545 S
C90 C91 1.364 1_545 S
C90 C92 1.372 . S
C91 C90 1.364 1_565 S
C91 C101 1.386 . S
C91 H109 0.931 . S
C92 C90 1.372 . S
C92 C93 1.409 . S
C92 H110 0.929 . S
C93 C92 1.409 . S
C93 C94 1.378 . S
C93 H111 0.930 . S
C94 C93 1.378 . S
C94 C101 1.359 1_545 S
C95 C86 1.510 . S
C95 C96 1.341 . S
C95 C97 1.371 1_565 S
C96 C95 1.341 . S
C96 C100 1.394 . S
C96 H112 0.930 . S
C97 C95 1.371 1_545 S
C97 C98 1.392 . S
C97 H113 0.931 . S
C98 C97 1.392 . S
C98 C99 1.323 1_545 S
C98 H116 0.932 . S
C99 C98 1.323 1_565 S
C99 C100 1.347 . S
C100 C96 1.394 . S
C100 C99 1.347 . S
C100 H115 0.929 . S
C101 C91 1.386 . S
C101 C94 1.359 1_565 S
C101 H114 0.928 . S
H102 C78 0.931 . S
H103 C80 0.930 . S
H104 C82 0.929 . S
H105 C83 0.931 . S
H106 C85 0.930 . S
H107 C89 0.932 . S
H108 C87 0.932 . S
H109 C91 0.931 . S
H110 C92 0.929 . S
H111 C93 0.930 . S
H112 C96 0.930 . S
H113 C97 0.931 . S
H114 C101 0.928 . S
H115 C100 0.929 . S
H116 C98 0.932 . S
C117 C118 1.386 . S
C117 C119 1.397 . S
C117 H141 0.931 . S
C118 C117 1.386 . S
C118 C122 1.397 . S
C119 C117 1.397 . S
C119 C120 1.384 . S
C119 H142 0.930 . S
C120 C119 1.384 . S
C120 C121 1.377 . S
C120 C123 1.481 . S
C121 C120 1.377 . S
C121 C122 1.389 . S
C121 H143 0.929 . S
C122 C118 1.397 . S
C122 C121 1.389 . S
C122 H144 0.931 . S
C123 C120 1.481 . S
C123 C124 1.387 . S
C123 C128 1.390 . S
C124 C123 1.387 . S
C124 C125 1.401 . S
C124 H145 0.930 . S
C125 C124 1.401 . S
C125 C126 1.376 . S
C125 C134 1.511 . S
C126 C125 1.376 . S
C126 C127 1.392 . S
C126 H147 0.931 1_554 S
C127 C126 1.392 . S
C127 C128 1.361 . S
C127 C129 1.500 1_554 S
C128 C123 1.390 . S
C128 C127 1.361 . S
C128 H146 0.931 . S
C129 C127 1.500 1_556 S
C129 C130 1.371 . S
C129 C131 1.365 . S
C130 C129 1.371 . S
C130 C140 1.386 . S
C130 H148 0.931 . S
C131 C129 1.365 . S
C131 C132 1.409 . S
C131 H149 0.929 1_556 S
C132 C131 1.409 . S
C132 C133 1.380 . S
C132 H150 0.930 . S
C133 C132 1.380 . S
C133 C140 1.357 . S
C134 C125 1.511 . S
C134 C135 1.341 . S
C134 C136 1.371 1_554 S
C135 C134 1.341 . S
C135 C139 1.394 . S
C135 H151 0.930 . S
C136 C134 1.371 1_556 S
C136 C137 1.392 . S
C136 H152 0.931 . S
C137 C136 1.392 . S
C137 C138 1.331 1_556 S
C137 H155 0.932 . S
C138 C137 1.331 1_554 S
C138 C139 1.336 . S
C139 C135 1.394 . S
C139 C138 1.336 . S
C139 H154 0.929 . S
C140 C130 1.386 . S
C140 C133 1.357 . S
C140 H153 0.928 . S
H141 C117 0.931 . S
H142 C119 0.930 . S
H143 C121 0.929 . S
H144 C122 0.931 . S
H145 C124 0.930 . S
H146 C128 0.931 . S
H147 C126 0.931 1_556 S
H148 C130 0.931 . S
H149 C131 0.929 1_554 S
H150 C132 0.930 . S
H151 C135 0.930 . S
H152 C136 0.931 . S
H153 C140 0.928 . S
H154 C139 0.929 . S
H155 C137 0.932 . S
C156 C157 1.386 . S
C156 C158 1.397 . S
C156 H180 0.931 . S
C157 C156 1.386 . S
C157 C161 1.397 . S
C158 C156 1.397 . S
C158 C159 1.384 . S
C158 H181 0.930 . S
C159 C158 1.384 . S
C159 C160 1.377 . S
C159 C162 1.481 . S
C160 C159 1.377 . S
C160 C161 1.389 . S
C160 H182 0.929 . S
C161 C157 1.397 . S
C161 C160 1.389 . S
C161 H183 0.931 . S
C162 C159 1.481 . S
C162 C163 1.387 . S
C162 C167 1.390 1_554 S
C163 C162 1.387 . S
C163 C164 1.401 . S
C163 H184 0.930 . S
C164 C163 1.401 . S
C164 C165 1.376 1_554 S
C164 C173 1.511 . S
C165 C164 1.376 1_556 S
C165 C166 1.392 . S
C165 H186 0.931 . S
C166 C165 1.392 . S
C166 C167 1.361 . S
C166 C168 1.500 . S
C167 C162 1.390 1_556 S
C167 C166 1.361 . S
C167 H185 0.931 . S
C168 C166 1.500 . S
C168 C169 1.371 . S
C168 C170 1.365 . S
C169 C168 1.371 . S
C169 C179 1.386 . S
C169 H187 0.931 . S
C170 C168 1.365 . S
C170 C171 1.409 . S
C170 H188 0.929 . S
C171 C170 1.409 . S
C171 C172 1.380 . S
C171 H189 0.930 . S
C172 C171 1.380 . S
C172 C179 1.357 . S
C173 C164 1.511 . S
C173 C174 1.341 . S
C173 C175 1.371 1_554 S
C174 C173 1.341 . S
C174 C178 1.394 . S
C174 H190 0.930 . S
C175 C173 1.371 1_556 S
C175 C176 1.392 . S
C175 H191 0.931 . S
C176 C175 1.392 . S
C176 C177 1.331 1_556 S
C176 H194 0.932 . S
C177 C176 1.331 1_554 S
C177 C178 1.336 . S
C178 C174 1.394 . S
C178 C177 1.336 . S
C178 H193 0.929 . S
C179 C169 1.386 . S
C179 C172 1.357 . S
C179 H192 0.928 . S
H180 C156 0.931 . S
H181 C158 0.930 . S
H182 C160 0.929 . S
H183 C161 0.931 . S
H184 C163 0.930 . S
H185 C167 0.931 . S
H186 C165 0.931 . S
H187 C169 0.931 . S
H188 C170 0.929 . S
H189 C171 0.930 . S
H190 C174 0.930 . S
H191 C175 0.931 . S
H192 C179 0.928 . S
H193 C178 0.929 . S
H194 C176 0.932 . S
C195 C196 1.386 . S
C195 C197 1.397 . S
C195 H219 0.931 . S
C196 C195 1.386 . S
C196 C200 1.397 . S
C197 C195 1.397 . S
C197 C198 1.384 . S
C197 H220 0.930 . S
C198 C197 1.384 . S
C198 C199 1.377 . S
C198 C201 1.481 . S
C199 C198 1.377 . S
C199 C200 1.389 . S
C199 H221 0.929 . S
C200 C196 1.397 . S
C200 C199 1.389 . S
C200 H222 0.931 . S
C201 C198 1.481 . S
C201 C202 1.387 . S
C201 C206 1.390 . S
C202 C201 1.387 . S
C202 C203 1.401 . S
C202 H223 0.930 . S
C203 C202 1.401 . S
C203 C204 1.376 . S
C203 C212 1.511 . S
C204 C203 1.376 . S
C204 C205 1.392 . S
C204 H225 0.931 . S
C205 C204 1.392 . S
C205 C206 1.361 . S
C205 C207 1.500 1_554 S
C206 C201 1.390 . S
C206 C205 1.361 . S
C206 H224 0.931 . S
C207 C205 1.500 1_556 S
C207 C208 1.371 . S
C207 C209 1.365 . S
C208 C207 1.371 . S
C208 C218 1.386 . S
C208 H226 0.931 . S
C209 C207 1.365 . S
C209 C210 1.409 . S
C209 H227 0.945 . S
C210 C209 1.409 . S
C210 C211 1.380 . S
C210 H228 0.930 . S
C211 C210 1.380 . S
C211 C218 1.357 . S
C212 C203 1.511 . S
C212 C213 1.341 . S
C212 C214 1.371 . S
C213 C212 1.341 . S
C213 C217 1.394 . S
C213 H229 0.930 . S
C214 C212 1.371 . S
C214 C215 1.392 . S
C214 H230 0.931 . S
C215 C214 1.392 . S
C215 C216 1.331 . S
C215 H233 0.932 . S
C216 C215 1.331 . S
C216 C217 1.336 . S
C217 C213 1.394 . S
C217 C216 1.336 . S
C217 H232 0.929 . S
C218 C208 1.386 . S
C218 C211 1.357 . S
C218 H231 0.928 . S
H219 C195 0.931 . S
H220 C197 0.930 . S
H221 C199 0.929 . S
H222 C200 0.931 . S
H223 C202 0.930 . S
H224 C206 0.931 . S
H225 C204 0.931 . S
H226 C208 0.931 . S
H227 C209 0.945 . S
H228 C210 0.930 . S
H229 C213 0.930 . S
H230 C214 0.931 . S
H231 C218 0.928 . S
H232 C217 0.929 . S
H233 C215 0.932 . S
C234 C235 1.386 . S
C234 C236 1.397 . S
C234 H258 0.931 . S
C235 C234 1.386 . S
C235 C239 1.397 1_565 S
C236 C234 1.397 . S
C236 C237 1.380 . S
C236 H259 0.930 . S
C237 C236 1.380 . S
C237 C238 1.381 1_565 S
C237 C240 1.479 . S
C238 C237 1.381 1_545 S
C238 C239 1.389 . S
C238 H260 0.929 . S
C239 C235 1.397 1_545 S
C239 C238 1.389 . S
C239 H261 0.931 . S
C240 C237 1.479 . S
C240 C241 1.383 . S
C240 C245 1.390 . S
C241 C240 1.383 . S
C241 C242 1.402 . S
C241 H262 0.938 . S
C242 C241 1.402 . S
C242 C243 1.377 . S
C242 C251 1.514 . S
C243 C242 1.377 . S
C243 C244 1.389 1_565 S
C243 H264 0.935 . S
C244 C243 1.389 1_545 S
C244 C245 1.361 1_545 S
C244 C246 1.498 . S
C245 C240 1.390 . S
C245 C244 1.361 1_565 S
C245 H263 0.932 1_565 S
C246 C244 1.498 . S
C246 C247 1.356 1_545 S
C246 C248 1.383 . S
C247 C246 1.356 1_565 S
C247 C257 1.386 1_554 S
C247 H265 0.931 . S
C248 C246 1.383 . S
C248 C249 1.409 1_554 S
C248 H266 0.929 . S
C249 C248 1.409 1_556 S
C249 C250 1.385 . S
C249 H267 0.930 . S
C250 C249 1.385 . S
C250 C257 1.353 1_545 S
C251 C242 1.514 . S
C251 C252 1.341 . S
C251 C253 1.371 1_565 S
C252 C251 1.341 . S
C252 C256 1.394 . S
C252 H268 0.930 . S
C253 C251 1.371 1_545 S
C253 C254 1.392 . S
C253 H269 0.931 . S
C254 C253 1.392 . S
C254 C255 1.326 1_545 S
C254 H272 0.932 . S
C255 C254 1.326 1_565 S
C255 C256 1.340 . S
C256 C252 1.394 . S
C256 C255 1.340 . S
C256 H271 0.929 . S
C257 C247 1.386 1_556 S
C257 C250 1.353 1_565 S
C257 H270 0.928 . S
H258 C234 0.931 . S
H259 C236 0.930 . S
H260 C238 0.929 . S
H261 C239 0.931 . S
H262 C241 0.938 . S
H263 C245 0.932 1_545 S
H264 C243 0.935 . S
H265 C247 0.931 . S
H266 C248 0.929 . S
H267 C249 0.930 . S
H268 C252 0.930 . S
H269 C253 0.931 . S
H270 C257 0.928 . S
H271 C256 0.929 . S
H272 C254 0.932 . S
C273 C274 1.386 . S
C273 C275 1.397 . S
C273 H297 0.931 . S
C274 C273 1.386 . S
C274 C278 1.397 . S
C275 C273 1.397 . S
C275 C276 1.384 . S
C275 H298 0.930 . S
C276 C275 1.384 . S
C276 C277 1.377 . S
C276 C279 1.481 . S
C277 C276 1.377 . S
C277 C278 1.389 . S
C277 H299 0.929 . S
C278 C274 1.397 . S
C278 C277 1.389 . S
C278 H300 0.931 . S
C279 C276 1.481 . S
C279 C280 1.387 . S
C279 C284 1.390 . S
C280 C279 1.387 . S
C280 C281 1.401 . S
C280 H301 0.930 . S
C281 C280 1.401 . S
C281 C282 1.376 . S
C281 C290 1.511 . S
C282 C281 1.376 . S
C282 C283 1.392 . S
C282 H303 0.931 . S
C283 C282 1.392 . S
C283 C284 1.361 . S
C283 C285 1.500 . S
C284 C279 1.390 . S
C284 C283 1.361 . S
C284 H302 0.931 . S
C285 C283 1.500 . S
C285 C286 1.371 . S
C285 C287 1.365 . S
C286 C285 1.371 . S
C286 C296 1.386 . S
C286 H304 0.931 . S
C287 C285 1.365 . S
C287 C288 1.409 . S
C287 H305 0.929 . S
C288 C287 1.409 . S
C288 C289 1.380 . S
C288 H306 0.930 . S
C289 C288 1.380 . S
C289 C296 1.357 . S
C290 C281 1.511 . S
C290 C291 1.341 . S
C290 C292 1.371 . S
C291 C290 1.341 . S
C291 C295 1.394 . S
C291 H307 0.930 . S
C292 C290 1.371 . S
C292 C293 1.392 . S
C292 H308 0.931 . S
C293 C292 1.392 . S
C293 C294 1.331 . S
C293 H311 0.932 . S
C294 C293 1.331 . S
C294 C295 1.336 . S
C295 C291 1.394 . S
C295 C294 1.336 . S
C295 H310 0.929 . S
C296 C286 1.386 . S
C296 C289 1.357 . S
C296 H309 0.928 . S
H297 C273 0.931 . S
H298 C275 0.930 . S
H299 C277 0.929 . S
H300 C278 0.931 . S
H301 C280 0.930 . S
H302 C284 0.931 . S
H303 C282 0.931 . S
H304 C286 0.931 . S
H305 C287 0.929 . S
H306 C288 0.930 . S
H307 C291 0.930 . S
H308 C292 0.931 . S
H309 C296 0.928 . S
H310 C295 0.929 . S
H311 C293 0.932 . S
Dy312 O315 2.307 1_545 S
Dy312 O317 2.395 1_655 S
Dy312 O318 2.379 . S
Dy312 O320 2.339 . S
Dy312 O322 2.277 1_655 S
Dy312 O326 2.275 1_655 S
Dy312 C334 2.738 . S
Dy313 O316 2.298 . S
Dy313 O319 2.275 1_455 S
Dy313 O321 2.307 1_565 S
Dy313 O323 2.427 . S
Dy313 O324 2.379 . S
Dy313 O327 2.339 . S
Dy313 C343 2.738 . S
C314 O326 1.254 1_565 S
C314 O327 1.257 . S
O315 Dy312 2.307 1_565 S
O315 C325 1.266 . S
O316 Dy313 2.298 . S
O316 C325 1.236 1_455 S
O317 Dy312 2.395 1_455 S
O317 C334 1.255 1_455 S
O318 Dy312 2.379 . S
O318 C334 1.249 . S
O319 Dy313 2.275 1_655 S
O319 C335 1.254 1_565 S
O320 Dy312 2.339 . S
O320 C335 1.257 . S
O321 Dy313 2.307 1_545 S
O321 C336 1.266 . S
O322 Dy312 2.277 1_455 S
O322 C336 1.281 . S
O323 Dy313 2.427 . S
O323 C343 1.313 . S
O324 Dy313 2.379 . S
O324 C343 1.249 . S
C325 O315 1.266 . S
C325 O316 1.236 1_655 S
O326 Dy312 2.275 1_455 S
O326 C314 1.254 1_545 S
O327 Dy313 2.339 . S
O327 C314 1.257 . S
C328 C331 1.344 1_655 S
C328 C332 1.328 . S
C328 C334 1.516 . S
C329 C330 1.304 1_655 S
C329 C333 1.323 . S
C330 C329 1.304 1_455 S
C330 C331 1.371 . S
C330 H344 0.930 . S
C331 C328 1.344 1_455 S
C331 C330 1.371 . S
C331 H345 0.931 . S
C332 C328 1.328 . S
C332 C333 1.433 . S
C332 H346 0.931 . S
C333 C329 1.323 . S
C333 C332 1.433 . S
C333 H347 0.933 . S
C334 Dy312 2.738 . S
C334 O317 1.255 1_655 S
C334 O318 1.249 . S
C334 C328 1.516 . S
C335 O319 1.254 1_545 S
C335 O320 1.257 . S
C336 O321 1.266 . S
C336 O322 1.281 . S
C337 C340 1.364 . S
C337 C341 1.328 . S
C337 C343 1.516 . S
C338 C339 1.340 . S
C338 C342 1.323 . S
C339 C338 1.340 . S
C339 C340 1.371 . S
C339 H348 0.894 1_455 S
C340 C337 1.364 . S
C340 C339 1.371 . S
C340 H349 0.911 1_455 S
C341 C337 1.328 . S
C341 C342 1.433 . S
C341 H350 0.931 . S
C342 C338 1.323 . S
C342 C341 1.433 . S
C342 H351 0.933 . S
C343 Dy313 2.738 . S
C343 O323 1.313 . S
C343 O324 1.249 . S
C343 C337 1.516 . S
H344 C330 0.930 . S
H345 C331 0.931 . S
H346 C332 0.931 . S
H347 C333 0.933 . S
H348 C339 0.894 1_655 S
H349 C340 0.911 1_655 S
H350 C341 0.931 . S
H351 C342 0.933 . S
Dy352 O355 2.307 . S
Dy352 O357 2.395 1_565 S
Dy352 O358 2.379 . S
Dy352 O360 2.339 . S
Dy352 O362 2.298 . S
Dy352 O366 2.275 1_565 S
Dy352 C374 2.738 . S
Dy353 O356 2.298 . S
Dy353 O359 2.275 1_545 S
Dy353 O361 2.307 . S
Dy353 O363 2.395 1_545 S
Dy353 O364 2.379 . S
Dy353 O367 2.339 . S
Dy353 C383 2.738 . S
C354 O366 1.254 . S
C354 O367 1.257 . S
O355 Dy352 2.307 . S
O355 C365 1.266 . S
O356 Dy353 2.298 . S
O356 C365 1.236 1_545 S
O357 Dy352 2.395 1_545 S
O357 C374 1.255 1_545 S
O358 Dy352 2.379 . S
O358 C374 1.249 . S
O359 Dy353 2.275 1_565 S
O359 C375 1.254 . S
O360 Dy352 2.339 . S
O360 C375 1.257 . S
O361 Dy353 2.307 . S
O361 C376 1.266 . S
O362 Dy352 2.298 . S
O362 C376 1.236 1_565 S
O363 Dy353 2.395 1_565 S
O363 C383 1.255 1_565 S
O364 Dy353 2.379 . S
O364 C383 1.249 . S
C365 O355 1.266 . S
C365 O356 1.236 1_565 S
O366 Dy352 2.275 1_545 S
O366 C354 1.254 . S
O367 Dy353 2.339 . S
O367 C354 1.257 . S
C368 C371 1.344 1_565 S
C368 C372 1.328 . S
C368 C374 1.516 . S
C369 C370 1.301 . S
C369 C373 1.323 . S
C370 C369 1.301 . S
C370 C371 1.371 1_565 S
C370 H384 0.933 1_565 S
C371 C368 1.344 1_545 S
C371 C370 1.371 1_545 S
C371 H385 0.931 . S
C372 C368 1.328 . S
C372 C373 1.433 . S
C372 H386 0.931 . S
C373 C369 1.323 . S
C373 C372 1.433 . S
C373 H387 0.933 . S
C374 Dy352 2.738 . S
C374 O357 1.255 1_565 S
C374 O358 1.249 . S
C374 C368 1.516 . S
C375 O359 1.254 . S
C375 O360 1.257 . S
C376 O361 1.266 . S
C376 O362 1.236 1_545 S
C377 C380 1.303 1_545 S
C377 C381 1.328 . S
C377 C383 1.516 . S
C378 C379 1.314 . S
C378 C382 1.323 . S
C379 C378 1.314 . S
C379 C380 1.364 1_545 S
C379 H388 0.922 1_545 S
C380 C377 1.303 1_565 S
C380 C379 1.364 1_565 S
C380 H389 0.980 . S
C381 C377 1.328 . S
C381 C382 1.433 . S
C381 H390 0.931 . S
C382 C378 1.323 . S
C382 C381 1.433 . S
C382 H391 0.933 . S
C383 Dy353 2.738 . S
C383 O363 1.255 1_545 S
C383 O364 1.249 . S
C383 C377 1.516 . S
H384 C370 0.933 1_545 S
H385 C371 0.931 . S
H386 C372 0.931 . S
H387 C373 0.933 . S
H388 C379 0.922 1_565 S
H389 C380 0.980 . S
H390 C381 0.931 . S
H391 C382 0.933 . S
Dy392 O395 2.307 . S
Dy392 O397 2.395 . S
Dy392 O398 2.379 . S
Dy392 O400 2.339 . S
Dy392 O402 2.298 . S
Dy392 O406 2.275 . S
Dy392 C414 2.738 . S
Dy393 O396 2.298 . S
Dy393 O399 2.275 . S
Dy393 O401 2.307 . S
Dy393 O403 2.395 . S
Dy393 O404 2.379 . S
Dy393 O407 2.339 . S
Dy393 C423 2.738 . S
C394 O406 1.254 . S
C394 O407 1.257 . S
O395 Dy392 2.307 . S
O395 C405 1.266 . S
O396 Dy393 2.298 . S
O396 C405 1.236 . S
O397 Dy392 2.395 . S
O397 C414 1.255 . S
O398 Dy392 2.379 . S
O398 C414 1.249 . S
O399 Dy393 2.275 . S
O399 C415 1.254 . S
O400 Dy392 2.339 . S
O400 C415 1.257 . S
O401 Dy393 2.307 . S
O401 C416 1.266 . S
O402 Dy392 2.298 . S
O402 C416 1.236 . S
O403 Dy393 2.395 . S
O403 C423 1.255 . S
O404 Dy393 2.379 . S
O404 C423 1.249 . S
C405 O395 1.266 . S
C405 O396 1.236 . S
O406 Dy392 2.275 . S
O406 C394 1.254 . S
O407 Dy393 2.339 . S
O407 C394 1.257 . S
C408 C411 1.344 . S
C408 C412 1.328 . S
C408 C414 1.516 . S
C409 C410 1.304 . S
C409 C413 1.323 . S
C410 C409 1.304 . S
C410 C411 1.371 . S
C410 H424 0.930 . S
C411 C408 1.344 . S
C411 C410 1.371 . S
C411 H425 0.931 . S
C412 C408 1.328 . S
C412 C413 1.433 . S
C412 H426 0.931 . S
C413 C409 1.323 . S
C413 C412 1.433 . S
C413 H427 0.933 . S
C414 Dy392 2.738 . S
C414 O397 1.255 . S
C414 O398 1.249 . S
C414 C408 1.516 . S
C415 O399 1.254 . S
C415 O400 1.257 . S
C416 O401 1.266 . S
C416 O402 1.236 . S
C417 C420 1.344 . S
C417 C421 1.328 . S
C417 C423 1.516 . S
C418 C419 1.304 . S
C418 C422 1.323 . S
C419 C418 1.304 . S
C419 C420 1.371 . S
C419 H428 0.930 . S
C420 C417 1.344 . S
C420 C419 1.371 . S
C420 H429 0.931 . S
C421 C417 1.328 . S
C421 C422 1.433 . S
C421 H430 0.931 . S
C422 C418 1.323 . S
C422 C421 1.433 . S
C422 H431 0.933 . S
C423 Dy393 2.738 . S
C423 O403 1.255 . S
C423 O404 1.249 . S
C423 C417 1.516 . S
H424 C410 0.930 . S
H425 C411 0.931 . S
H426 C412 0.931 . S
H427 C413 0.933 . S
H428 C419 0.930 . S
H429 C420 0.931 . S
H430 C421 0.931 . S
H431 C422 0.933 . S
Dy432 O435 2.307 1_455 S
Dy432 O437 2.395 . S
Dy432 O438 2.379 . S
Dy432 O440 2.339 . S
Dy432 O442 2.298 . S
Dy432 O446 2.275 . S
Dy432 C454 2.738 . S
Dy433 O436 2.298 . S
Dy433 O439 2.251 1_655 S
Dy433 O441 2.307 1_655 S
Dy433 O443 2.395 . S
Dy433 O444 2.379 . S
Dy433 O447 2.339 . S
Dy433 C463 2.738 . S
C434 O446 1.254 . S
C434 O447 1.257 1_455 S
O435 Dy432 2.307 1_655 S
O435 C445 1.266 . S
O436 Dy433 2.298 . S
O436 C445 1.236 . S
O437 Dy432 2.395 . S
O437 C454 1.255 . S
O438 Dy432 2.379 . S
O438 C454 1.249 . S
O439 Dy433 2.251 1_455 S
O439 C455 1.277 . S
O440 Dy432 2.339 . S
O440 C455 1.257 . S
O441 Dy433 2.307 1_455 S
O441 C456 1.266 . S
O442 Dy432 2.298 . S
O442 C456 1.236 . S
O443 Dy433 2.395 . S
O443 C463 1.255 . S
O444 Dy433 2.379 . S
O444 C463 1.249 . S
C445 O435 1.266 . S
C445 O436 1.236 . S
O446 Dy432 2.275 . S
O446 C434 1.254 . S
O447 Dy433 2.339 . S
O447 C434 1.257 1_655 S
C448 C451 1.344 . S
C448 C452 1.328 . S
C448 C454 1.516 . S
C449 C450 1.304 . S
C449 C453 1.323 . S
C450 C449 1.304 . S
C450 C451 1.371 . S
C450 H464 0.930 . S
C451 C448 1.344 . S
C451 C450 1.371 . S
C451 H465 0.931 . S
C452 C448 1.328 . S
C452 C453 1.433 . S
C452 H466 0.931 . S
C453 C449 1.323 . S
C453 C452 1.433 . S
C453 H467 0.933 . S
C454 Dy432 2.738 . S
C454 O437 1.255 . S
C454 O438 1.249 . S
C454 C448 1.516 . S
C455 O439 1.277 . S
C455 O440 1.257 . S
C456 O441 1.266 . S
C456 O442 1.236 . S
C457 C460 1.344 . S
C457 C461 1.328 . S
C457 C463 1.516 . S
C458 C459 1.304 . S
C458 C462 1.323 . S
C459 C458 1.304 . S
C459 C460 1.371 . S
C459 H468 0.930 . S
C460 C457 1.344 . S
C460 C459 1.371 . S
C460 H469 0.931 . S
C461 C457 1.328 . S
C461 C462 1.433 . S
C461 H470 0.931 . S
C462 C458 1.323 . S
C462 C461 1.433 . S
C462 H471 0.933 . S
C463 Dy433 2.738 . S
C463 O443 1.255 . S
C463 O444 1.249 . S
C463 C457 1.516 . S
H464 C450 0.930 . S
H465 C451 0.931 . S
H466 C452 0.931 . S
H467 C453 0.933 . S
H468 C459 0.930 . S
H469 C460 0.931 . S
H470 C461 0.931 . S
H471 C462 0.933 . S
C472 C473 1.348 . S
C472 C474 1.327 . S
C472 H497 0.950 . S
C473 C472 1.348 . S
C473 C489 1.350 1_545 S
C474 C472 1.327 . S
C474 C493 1.425 . S
C474 H498 0.950 . S
C475 C492 1.574 . S
C475 C494 1.364 . S
C475 H499 0.949 . S
H476 C480 0.949 . S
C477 C478 1.352 . S
C477 C479 1.327 . S
C477 H500 0.950 . S
C478 C477 1.352 . S
C478 C490 1.346 1_565 S
C479 C477 1.327 . S
C479 C495 1.429 . S
C479 H501 0.950 . S
C480 H476 0.949 . S
C480 C488 1.574 . S
C480 C496 1.370 1_545 S
H481 C489 0.950 . S
H482 C487 0.950 . S
H483 C488 0.949 . S
H484 C490 0.950 . S
H485 C491 0.950 . S
H486 C492 0.949 . S
C487 H482 0.950 . S
C487 C489 1.327 . S
C487 C493 1.432 1_565 S
C488 C480 1.574 . S
C488 H483 0.949 . S
C488 C494 1.372 1_545 S
C489 C473 1.350 1_565 S
C489 H481 0.950 . S
C489 C487 1.327 . S
C490 C478 1.346 1_545 S
C490 H484 0.950 . S
C490 C491 1.327 . S
C491 H485 0.950 . S
C491 C490 1.327 . S
C491 C495 1.428 1_545 S
C492 C475 1.574 . S
C492 H486 0.949 . S
C492 C496 1.367 . S
C493 C474 1.425 . S
C493 C487 1.432 1_545 S
C493 C494 1.524 1_545 S
C494 C475 1.364 . S
C494 C488 1.372 1_565 S
C494 C493 1.524 1_565 S
C495 C479 1.429 . S
C495 C491 1.428 1_565 S
C495 C496 1.523 . S
C496 C480 1.370 1_565 S
C496 C492 1.367 . S
C496 C495 1.523 . S
H497 C472 0.950 . S
H498 C474 0.950 . S
H499 C475 0.949 . S
H500 C477 0.950 . S
H501 C479 0.950 . S
C502 C503 1.349 . S
C502 C504 1.327 . S
C502 H527 0.950 . S
C503 C502 1.349 . S
C503 C519 1.349 . S
C504 C502 1.327 . S
C504 C523 1.429 . S
C504 H528 0.950 . S
C505 C522 1.574 . S
C505 C524 1.368 . S
C505 H529 0.949 . S
H506 C510 0.949 . S
C507 C508 1.349 . S
C507 C509 1.327 . S
C507 H530 0.950 . S
C508 C507 1.349 . S
C508 C520 1.349 . S
C509 C507 1.327 . S
C509 C525 1.429 . S
C509 H531 0.950 . S
C510 H506 0.949 . S
C510 C518 1.574 . S
C510 C526 1.368 . S
H511 C519 0.950 . S
H512 C517 0.950 . S
H513 C518 0.949 . S
H514 C520 0.950 . S
H515 C521 0.950 . S
H516 C522 0.949 . S
C517 H512 0.950 . S
C517 C519 1.327 . S
C517 C523 1.429 . S
C518 C510 1.574 . S
C518 H513 0.949 . S
C518 C524 1.368 . S
C519 C503 1.349 . S
C519 H511 0.950 . S
C519 C517 1.327 . S
C520 C508 1.349 . S
C520 H514 0.950 . S
C520 C521 1.327 . S
C521 H515 0.950 . S
C521 C520 1.327 . S
C521 C525 1.429 . S
C522 C505 1.574 . S
C522 H516 0.949 . S
C522 C526 1.368 . S
C523 C504 1.429 . S
C523 C517 1.429 . S
C523 C524 1.523 . S
C524 C505 1.368 . S
C524 C518 1.368 . S
C524 C523 1.523 . S
C525 C509 1.429 . S
C525 C521 1.429 . S
C525 C526 1.523 . S
C526 C510 1.368 . S
C526 C522 1.368 . S
C526 C525 1.523 . S
H527 C502 0.950 . S
H528 C504 0.950 . S
H529 C505 0.949 . S
H530 C507 0.950 . S
H531 C509 0.950 . S
C532 C533 1.349 . S
C532 C534 1.327 . S
C532 H557 0.950 . S
C533 C532 1.349 . S
C533 C549 1.349 . S
C534 C532 1.327 . S
C534 C553 1.429 . S
C534 H558 0.950 . S
C535 C552 1.574 . S
C535 C554 1.368 . S
C535 H559 0.949 . S
H536 C540 0.949 . S
C537 C538 1.349 . S
C537 C539 1.327 . S
C537 H560 0.950 . S
C538 C537 1.349 . S
C538 C550 1.349 . S
C539 C537 1.327 . S
C539 C555 1.429 . S
C539 H561 0.950 . S
C540 H536 0.949 . S
C540 C548 1.574 . S
C540 C556 1.368 . S
H541 C549 0.950 . S
H542 C547 0.950 . S
H543 C548 0.949 . S
H544 C550 0.950 . S
H545 C551 0.950 . S
H546 C552 0.949 . S
C547 H542 0.950 . S
C547 C549 1.327 . S
C547 C553 1.429 . S
C548 C540 1.574 . S
C548 H543 0.949 . S
C548 C554 1.368 . S
C549 C533 1.349 . S
C549 H541 0.950 . S
C549 C547 1.327 . S
C550 C538 1.349 . S
C550 H544 0.950 . S
C550 C551 1.327 . S
C551 H545 0.950 . S
C551 C550 1.327 . S
C551 C555 1.429 . S
C552 C535 1.574 . S
C552 H546 0.949 . S
C552 C556 1.368 . S
C553 C534 1.429 . S
C553 C547 1.429 . S
C553 C554 1.523 . S
C554 C535 1.368 . S
C554 C548 1.368 . S
C554 C553 1.523 . S
C555 C539 1.429 . S
C555 C551 1.429 . S
C555 C556 1.523 . S
C556 C540 1.368 . S
C556 C552 1.368 . S
C556 C555 1.523 . S
H557 C532 0.950 . S
H558 C534 0.950 . S
H559 C535 0.949 . S
H560 C537 0.950 . S
H561 C539 0.950 . S
C562 C563 1.349 . S
C562 C564 1.327 . S
C562 H587 0.968 . S
C563 C562 1.349 . S
C563 C579 1.349 . S
C564 C562 1.327 . S
C564 C583 1.429 . S
C564 H588 0.950 1_455 S
C565 C582 1.574 . S
C565 C584 1.368 . S
C565 H589 0.949 . S
H566 C570 0.905 1_655 S
C567 C568 1.349 . S
C567 C569 1.327 . S
C567 H590 0.950 . S
C568 C567 1.349 . S
C568 C580 1.349 1_455 S
C569 C567 1.327 . S
C569 C585 1.429 . S
C569 H591 0.950 . S
C570 H566 0.905 1_455 S
C570 C578 1.571 . S
C570 C586 1.422 . S
H571 C579 0.950 . S
H572 C577 0.950 . S
H573 C578 0.949 1_655 S
H574 C580 0.950 . S
H575 C581 0.950 . S
H576 C582 0.949 . S
C577 H572 0.950 . S
C577 C579 1.327 . S
C577 C583 1.429 . S
C578 C570 1.571 . S
C578 H573 0.949 1_455 S
C578 C584 1.368 . S
C579 C563 1.349 . S
C579 H571 0.950 . S
C579 C577 1.327 . S
C580 C568 1.349 1_655 S
C580 H574 0.950 . S
C580 C581 1.327 . S
C581 H575 0.950 . S
C581 C580 1.327 . S
C581 C585 1.429 1_655 S
C582 C565 1.574 . S
C582 H576 0.949 . S
C582 C586 1.368 . S
C583 C564 1.429 . S
C583 C577 1.429 . S
C583 C584 1.523 . S
C584 C565 1.368 . S
C584 C578 1.368 . S
C584 C583 1.523 . S
C585 C569 1.429 . S
C585 C581 1.429 1_455 S
C585 C586 1.523 . S
C586 C570 1.422 . S
C586 C582 1.368 . S
C586 C585 1.523 . S
H587 C562 0.968 . S
H588 C564 0.950 1_655 S
H589 C565 0.949 . S
H590 C567 0.950 . S
H591 C569 0.950 . S
C592 C593 1.350 . S
C592 C594 1.327 . S
C592 H617 0.950 . S
C593 C592 1.350 . S
C593 C609 1.348 1_545 S
C594 C592 1.327 . S
C594 C613 1.432 . S
C594 H618 0.950 . S
C595 C612 1.574 . S
C595 C614 1.362 1_565 S
C595 H619 0.949 . S
H596 C600 0.949 . S
C597 C598 1.335 1_565 S
C597 C599 1.327 . S
C597 H620 0.950 . S
C598 C597 1.335 1_545 S
C598 C610 1.362 . S
C599 C597 1.327 . S
C599 C615 1.419 1_565 S
C599 H621 0.950 . S
C600 H596 0.949 . S
C600 C608 1.574 . S
C600 C616 1.378 . S
H601 C609 0.950 . S
H602 C607 0.950 . S
H603 C608 0.949 1_554 S
H604 C610 0.950 . S
H605 C611 0.950 . S
H606 C612 0.949 . S
C607 H602 0.950 . S
C607 C609 1.327 . S
C607 C613 1.424 1_565 S
C608 C600 1.574 . S
C608 H603 0.949 1_556 S
C608 C614 1.375 . S
C609 C593 1.348 1_565 S
C609 H601 0.950 . S
C609 C607 1.327 . S
C610 C598 1.362 . S
C610 H604 0.950 . S
C610 C611 1.327 . S
C611 H605 0.950 . S
C611 C610 1.327 . S
C611 C615 1.439 . S
C612 C595 1.574 . S
C612 H606 0.949 . S
C612 C616 1.359 1_565 S
C613 C594 1.432 . S
C613 C607 1.424 1_545 S
C613 C614 1.523 1_554 S
C614 C595 1.362 1_545 S
C614 C608 1.375 . S
C614 C613 1.523 1_556 S
C615 C599 1.419 1_545 S
C615 C611 1.439 . S
C615 C616 1.523 . S
C616 C600 1.378 . S
C616 C612 1.359 1_545 S
C616 C615 1.523 . S
H617 C592 0.950 . S
H618 C594 0.950 . S
H619 C595 0.949 . S
H620 C597 0.950 . S
H621 C599 0.950 . S
C622 C623 1.349 . S
C622 C624 1.327 . S
C622 H647 0.950 . S
C623 C622 1.349 . S
C623 C639 1.349 . S
C624 C622 1.327 . S
C624 C643 1.429 . S
C624 H648 0.950 . S
C625 C642 1.574 . S
C625 C644 1.368 . S
C625 H649 0.949 . S
H626 C630 0.949 . S
C627 C628 1.349 . S
C627 C629 1.327 . S
C627 H650 0.950 . S
C628 C627 1.349 . S
C628 C640 1.349 . S
C629 C627 1.327 . S
C629 C645 1.429 . S
C629 H651 0.950 . S
C630 H626 0.949 . S
C630 C638 1.574 . S
C630 C646 1.368 . S
H631 C639 0.950 . S
H632 C637 0.950 . S
H633 C638 0.949 . S
H634 C640 0.950 . S
H635 C641 0.950 . S
H636 C642 0.949 . S
C637 H632 0.950 . S
C637 C639 1.327 . S
C637 C643 1.429 . S
C638 C630 1.574 . S
C638 H633 0.949 . S
C638 C644 1.368 . S
C639 C623 1.349 . S
C639 H631 0.950 . S
C639 C637 1.327 . S
C640 C628 1.349 . S
C640 H634 0.950 . S
C640 C641 1.327 . S
C641 H635 0.950 . S
C641 C640 1.327 . S
C641 C645 1.429 . S
C642 C625 1.574 . S
C642 H636 0.949 . S
C642 C646 1.368 . S
C643 C624 1.429 . S
C643 C637 1.429 . S
C643 C644 1.523 . S
C644 C625 1.368 . S
C644 C638 1.368 . S
C644 C643 1.523 . S
C645 C629 1.429 . S
C645 C641 1.429 . S
C645 C646 1.523 . S
C646 C630 1.368 . S
C646 C642 1.368 . S
C646 C645 1.523 . S
H647 C622 0.950 . S
H648 C624 0.950 . S
H649 C625 0.949 . S
H650 C627 0.950 . S
H651 C629 0.950 . S
C652 C653 1.349 . S
C652 C654 1.327 . S
C652 H677 0.950 . S
C653 C652 1.349 . S
C653 C669 1.349 . S
C654 C652 1.327 . S
C654 C673 1.429 . S
C654 H678 0.950 . S
C655 C672 1.574 . S
C655 C674 1.368 . S
C655 H679 0.949 . S
H656 C660 0.949 . S
C657 C658 1.349 . S
C657 C659 1.327 . S
C657 H680 0.950 . S
C658 C657 1.349 . S
C658 C670 1.349 . S
C659 C657 1.327 . S
C659 C675 1.429 1_556 S
C659 H681 0.950 . S
C660 H656 0.949 . S
C660 C668 1.574 . S
C660 C676 1.368 . S
H661 C669 0.950 . S
H662 C667 0.950 . S
H663 C668 0.949 . S
H664 C670 0.950 . S
H665 C671 0.950 . S
H666 C672 0.949 . S
C667 H662 0.950 . S
C667 C669 1.327 . S
C667 C673 1.429 . S
C668 C660 1.574 . S
C668 H663 0.949 . S
C668 C674 1.368 . S
C669 C653 1.349 . S
C669 H661 0.950 . S
C669 C667 1.327 . S
C670 C658 1.349 . S
C670 H664 0.950 . S
C670 C671 1.327 1_556 S
C671 H665 0.950 . S
C671 C670 1.327 1_554 S
C671 C675 1.429 . S
C672 C655 1.574 . S
C672 H666 0.949 . S
C672 C676 1.368 . S
C673 C654 1.429 . S
C673 C667 1.429 . S
C673 C674 1.523 . S
C674 C655 1.368 . S
C674 C668 1.368 . S
C674 C673 1.523 . S
C675 C659 1.429 1_554 S
C675 C671 1.429 . S
C675 C676 1.523 . S
C676 C660 1.368 . S
C676 C672 1.368 . S
C676 C675 1.523 . S
H677 C652 0.950 . S
H678 C654 0.950 . S
H679 C655 0.949 . S
H680 C657 0.950 . S
H681 C659 0.950 . S
C682 C683 1.349 . S
C682 C684 1.327 . S
C682 H707 0.950 . S
C683 C682 1.349 . S
C683 C699 1.349 . S
C684 C682 1.327 . S
C684 C703 1.429 . S
C684 H708 0.956 . S
C685 C702 1.574 1_554 S
C685 C704 1.368 . S
C685 H709 0.949 . S
H686 C690 0.962 . S
C687 C688 1.347 . S
C687 C689 1.327 . S
C687 H710 0.950 . S
C688 C687 1.347 . S
C688 C700 1.351 1_655 S
C689 C687 1.327 . S
C689 C705 1.429 . S
C689 H711 0.950 . S
C690 H686 0.962 . S
C690 C698 1.576 1_455 S
C690 C706 1.353 1_455 S
H691 C699 0.950 . S
H692 C697 0.950 . S
H693 C698 0.949 1_454 S
H694 C700 0.950 . S
H695 C701 0.950 . S
H696 C702 0.949 . S
C697 H692 0.950 . S
C697 C699 1.327 . S
C697 C703 1.429 . S
C698 C690 1.576 1_655 S
C698 H693 0.949 1_656 S
C698 C704 1.368 1_556 S
C699 C683 1.349 . S
C699 H691 0.950 . S
C699 C697 1.327 . S
C700 C688 1.351 1_455 S
C700 H694 0.950 . S
C700 C701 1.327 . S
C701 H695 0.950 . S
C701 C700 1.327 . S
C701 C705 1.429 1_455 S
C702 C685 1.574 1_556 S
C702 H696 0.949 . S
C702 C706 1.368 . S
C703 C684 1.429 . S
C703 C697 1.429 . S
C703 C704 1.523 . S
C704 C685 1.368 . S
C704 C698 1.368 1_554 S
C704 C703 1.523 . S
C705 C689 1.429 . S
C705 C701 1.429 1_655 S
C705 C706 1.523 . S
C706 C690 1.353 1_655 S
C706 C702 1.368 . S
C706 C705 1.523 . S
H707 C682 0.950 . S
H708 C684 0.956 . S
H709 C685 0.949 . S
H710 C687 0.950 . S
H711 C689 0.950 . S
C712 C713 1.349 . S
C712 C714 1.327 . S
C712 H737 0.950 . S
C713 C712 1.349 . S
C713 C729 1.349 . S
C714 C712 1.327 . S
C714 C733 1.429 . S
C714 H738 0.950 . S
C715 C732 1.574 . S
C715 C734 1.368 . S
C715 H739 0.949 . S
H716 C720 0.949 1_655 S
C717 C718 1.349 . S
C717 C719 1.327 1_655 S
C717 H740 0.952 . S
C718 C717 1.349 . S
C718 C730 1.349 . S
C719 C717 1.327 1_455 S
C719 C735 1.429 1_455 S
C719 H741 0.950 . S
C720 H716 0.949 1_455 S
C720 C728 1.574 . S
C720 C736 1.368 . S
H721 C729 0.950 . S
H722 C727 0.950 . S
H723 C728 0.949 . S
H724 C730 0.950 . S
H725 C731 0.950 . S
H726 C732 0.949 . S
C727 H722 0.950 . S
C727 C729 1.327 . S
C727 C733 1.429 . S
C728 C720 1.574 . S
C728 H723 0.949 . S
C728 C734 1.368 . S
C729 C713 1.349 . S
C729 H721 0.950 . S
C729 C727 1.327 . S
C730 C718 1.349 . S
C730 H724 0.950 . S
C730 C731 1.327 . S
C731 H725 0.950 . S
C731 C730 1.327 . S
C731 C735 1.437 . S
C732 C715 1.574 . S
C732 H726 0.949 . S
C732 C736 1.368 . S
C733 C714 1.429 . S
C733 C727 1.429 . S
C733 C734 1.523 . S
C734 C715 1.368 . S
C734 C728 1.368 . S
C734 C733 1.523 . S
C735 C719 1.429 1_655 S
C735 C731 1.437 . S
C735 C736 1.516 1_655 S
C736 C720 1.368 . S
C736 C732 1.368 . S
C736 C735 1.516 1_455 S
H737 C712 0.950 . S
H738 C714 0.950 . S
H739 C715 0.949 . S
H740 C717 0.952 . S
H741 C719 0.950 . S
C742 C743 1.392 . S
C742 C744 1.327 . S
C742 H767 0.950 . S
C743 C742 1.392 . S
C743 C759 1.303 1_545 S
C744 C742 1.327 . S
C744 C763 1.429 1_545 S
C744 H768 0.950 . S
C745 C762 1.574 . S
C745 C764 1.368 . S
C745 H769 0.949 . S
H746 C750 0.949 . S
C747 C748 1.349 . S
C747 C749 1.327 . S
C747 H770 0.950 . S
C748 C747 1.349 . S
C748 C760 1.349 . S
C749 C747 1.327 . S
C749 C765 1.429 . S
C749 H771 0.950 . S
C750 H746 0.949 . S
C750 C758 1.574 . S
C750 C766 1.368 1_545 S
H751 C759 0.950 . S
H752 C757 0.950 . S
H753 C758 0.949 . S
H754 C760 0.950 1_545 S
H755 C761 0.958 . S
H756 C762 0.949 . S
C757 H752 0.950 . S
C757 C759 1.327 . S
C757 C763 1.429 . S
C758 C750 1.574 . S
C758 H753 0.949 . S
C758 C764 1.368 1_545 S
C759 C743 1.303 1_565 S
C759 H751 0.950 . S
C759 C757 1.327 . S
C760 C748 1.349 . S
C760 H754 0.950 1_565 S
C760 C761 1.326 1_565 S
C761 H755 0.958 . S
C761 C760 1.326 1_545 S
C761 C765 1.421 1_545 S
C762 C745 1.574 . S
C762 H756 0.949 . S
C762 C766 1.368 . S
C763 C744 1.429 1_565 S
C763 C757 1.429 . S
C763 C764 1.523 . S
C764 C745 1.368 . S
C764 C758 1.368 1_565 S
C764 C763 1.523 . S
C765 C749 1.429 . S
C765 C761 1.421 1_565 S
C765 C766 1.523 . S
C766 C750 1.368 1_565 S
C766 C762 1.368 . S
C766 C765 1.523 . S
H767 C742 0.950 . S
H768 C744 0.950 . S
H769 C745 0.949 . S
H770 C747 0.950 . S
H771 C749 0.950 . S
C772 C773 1.349 . S
C772 C774 1.327 . S
C772 H797 0.950 . S
C773 C772 1.349 . S
C773 C789 1.349 . S
C774 C772 1.327 . S
C774 C793 1.429 . S
C774 H798 0.950 . S
C775 C792 1.574 . S
C775 C794 1.368 . S
C775 H799 0.949 . S
H776 C780 0.949 . S
C777 C778 1.349 . S
C777 C779 1.327 . S
C777 H800 0.950 . S
C778 C777 1.349 . S
C778 C790 1.349 . S
C779 C777 1.327 . S
C779 C795 1.429 . S
C779 H801 0.950 . S
C780 H776 0.949 . S
C780 C788 1.574 . S
C780 C796 1.368 . S
H781 C789 0.950 . S
H782 C787 0.950 . S
H783 C788 0.949 . S
H784 C790 0.950 . S
H785 C791 0.950 . S
H786 C792 0.949 . S
C787 H782 0.950 . S
C787 C789 1.327 . S
C787 C793 1.429 . S
C788 C780 1.574 . S
C788 H783 0.949 . S
C788 C794 1.368 . S
C789 C773 1.349 . S
C789 H781 0.950 . S
C789 C787 1.327 . S
C790 C778 1.349 . S
C790 H784 0.950 . S
C790 C791 1.327 . S
C791 H785 0.950 . S
C791 C790 1.327 . S
C791 C795 1.429 . S
C792 C775 1.574 . S
C792 H786 0.949 . S
C792 C796 1.368 . S
C793 C774 1.429 . S
C793 C787 1.429 . S
C793 C794 1.523 . S
C794 C775 1.368 . S
C794 C788 1.368 . S
C794 C793 1.523 . S
C795 C779 1.429 . S
C795 C791 1.429 . S
C795 C796 1.523 . S
C796 C780 1.368 . S
C796 C792 1.368 . S
C796 C795 1.523 . S
H797 C772 0.950 . S
H798 C774 0.950 . S
H799 C775 0.949 . S
H800 C777 0.950 . S
H801 C779 0.950 . S
C802 C803 1.349 . S
C802 C804 1.327 . S
C802 H827 0.950 . S
C803 C802 1.349 . S
C803 C819 1.349 . S
C804 C802 1.327 . S
C804 C823 1.429 . S
C804 H828 0.950 . S
C805 C822 1.574 . S
C805 C824 1.368 . S
C805 H829 0.949 . S
H806 C810 0.949 . S
C807 C808 1.349 . S
C807 C809 1.327 . S
C807 H830 0.950 . S
C808 C807 1.349 . S
C808 C820 1.349 . S
C809 C807 1.327 . S
C809 C825 1.429 . S
C809 H831 0.950 . S
C810 H806 0.949 . S
C810 C818 1.574 . S
C810 C826 1.368 . S
H811 C819 0.950 . S
H812 C817 0.950 . S
H813 C818 0.949 . S
H814 C820 0.950 . S
H815 C821 0.950 . S
H816 C822 0.949 . S
C817 H812 0.950 . S
C817 C819 1.327 . S
C817 C823 1.429 . S
C818 C810 1.574 . S
C818 H813 0.949 . S
C818 C824 1.368 . S
C819 C803 1.349 . S
C819 H811 0.950 . S
C819 C817 1.327 . S
C820 C808 1.349 . S
C820 H814 0.950 . S
C820 C821 1.327 . S
C821 H815 0.950 . S
C821 C820 1.327 . S
C821 C825 1.429 . S
C822 C805 1.574 . S
C822 H816 0.949 . S
C822 C826 1.368 . S
C823 C804 1.429 . S
C823 C817 1.429 . S
C823 C824 1.523 . S
C824 C805 1.368 . S
C824 C818 1.368 . S
C824 C823 1.523 . S
C825 C809 1.429 . S
C825 C821 1.429 . S
C825 C826 1.523 . S
C826 C810 1.368 . S
C826 C822 1.368 . S
C826 C825 1.523 . S
H827 C802 0.950 . S
H828 C804 0.950 . S
H829 C805 0.949 . S
H830 C807 0.950 . S
H831 C809 0.950 . S
C832 C833 1.349 . S
C832 C834 1.327 . S
C832 H857 0.950 . S
C833 C832 1.349 . S
C833 C849 1.349 . S
C834 C832 1.327 . S
C834 C853 1.429 . S
C834 H858 0.950 . S
C835 C852 1.574 . S
C835 C854 1.368 1_455 S
C835 H859 0.949 . S
H836 C840 0.963 . S
C837 C838 1.349 . S
C837 C839 1.327 . S
C837 H860 0.950 . S
C838 C837 1.349 . S
C838 C850 1.349 . S
C839 C837 1.327 . S
C839 C855 1.429 . S
C839 H861 0.950 . S
C840 H836 0.963 . S
C840 C848 1.591 . S
C840 C856 1.340 1_655 S
H841 C849 0.950 . S
H842 C847 0.950 . S
H843 C848 0.949 . S
H844 C850 0.950 . S
H845 C851 0.950 . S
H846 C852 0.949 . S
C847 H842 0.950 . S
C847 C849 1.327 . S
C847 C853 1.429 . S
C848 C840 1.591 . S
C848 H843 0.949 . S
C848 C854 1.368 1_556 S
C849 C833 1.349 . S
C849 H841 0.950 . S
C849 C847 1.327 . S
C850 C838 1.349 . S
C850 H844 0.950 . S
C850 C851 1.327 . S
C851 H845 0.950 . S
C851 C850 1.327 . S
C851 C855 1.429 . S
C852 C835 1.574 . S
C852 H846 0.949 . S
C852 C856 1.368 1_554 S
C853 C834 1.429 . S
C853 C847 1.429 . S
C853 C854 1.523 . S
C854 C835 1.368 1_655 S
C854 C848 1.368 1_554 S
C854 C853 1.523 . S
C855 C839 1.429 . S
C855 C851 1.429 . S
C855 C856 1.523 . S
C856 C840 1.340 1_455 S
C856 C852 1.368 1_556 S
C856 C855 1.523 . S
H857 C832 0.950 . S
H858 C834 0.950 . S
H859 C835 0.949 . S
H860 C837 0.950 . S
H861 C839 0.950 . S
C862 C863 1.381 . S
C862 C864 1.327 . S
C862 H887 0.950 . S
C863 C862 1.381 . S
C863 C879 1.315 1_565 S
C864 C862 1.327 . S
C864 C883 1.429 1_565 S
C864 H888 0.950 . S
C865 C882 1.574 . S
C865 C884 1.368 . S
C865 H889 0.949 . S
H866 C870 0.949 . S
C867 C868 1.349 . S
C867 C869 1.327 . S
C867 H890 0.950 . S
C868 C867 1.349 . S
C868 C880 1.349 . S
C869 C867 1.327 . S
C869 C885 1.429 . S
C869 H891 0.950 . S
C870 H866 0.949 . S
C870 C878 1.574 . S
C870 C886 1.368 1_565 S
H871 C879 0.950 . S
H872 C877 0.950 . S
H873 C878 0.949 1_554 S
H874 C880 0.950 1_565 S
H875 C881 0.950 1_565 S
H876 C882 0.949 . S
C877 H872 0.950 . S
C877 C879 1.327 1_556 S
C877 C883 1.429 1_556 S
C878 C870 1.574 . S
C878 H873 0.949 1_556 S
C878 C884 1.368 1_565 S
C879 C863 1.315 1_545 S
C879 H871 0.950 . S
C879 C877 1.327 1_554 S
C880 C868 1.349 . S
C880 H874 0.950 1_545 S
C880 C881 1.327 . S
C881 H875 0.950 1_545 S
C881 C880 1.327 . S
C881 C885 1.429 . S
C882 C865 1.574 . S
C882 H876 0.949 . S
C882 C886 1.368 . S
C883 C864 1.429 1_545 S
C883 C877 1.429 1_554 S
C883 C884 1.523 1_554 S
C884 C865 1.368 . S
C884 C878 1.368 1_545 S
C884 C883 1.523 1_556 S
C885 C869 1.429 . S
C885 C881 1.429 . S
C885 C886 1.523 . S
C886 C870 1.368 1_545 S
C886 C882 1.368 . S
C886 C885 1.523 . S
H887 C862 0.950 . S
H888 C864 0.950 . S
H889 C865 0.949 . S
H890 C867 0.950 . S
H891 C869 0.950 . S
C892 C893 1.349 . S
C892 C894 1.327 . S
C892 H917 0.950 . S
C893 C892 1.349 . S
C893 C909 1.349 . S
C894 C892 1.327 . S
C894 C913 1.429 . S
C894 H918 0.950 . S
C895 C912 1.574 . S
C895 C914 1.368 . S
C895 H919 0.949 . S
H896 C900 0.949 . S
C897 C898 1.349 . S
C897 C899 1.327 . S
C897 H920 0.950 . S
C898 C897 1.349 . S
C898 C910 1.349 . S
C899 C897 1.327 . S
C899 C915 1.429 . S
C899 H921 0.950 . S
C900 H896 0.949 . S
C900 C908 1.574 . S
C900 C916 1.368 . S
H901 C909 0.950 . S
H902 C907 0.950 . S
H903 C908 0.949 . S
H904 C910 0.950 . S
H905 C911 0.950 . S
H906 C912 0.949 . S
C907 H902 0.950 . S
C907 C909 1.327 . S
C907 C913 1.429 . S
C908 C900 1.574 . S
C908 H903 0.949 . S
C908 C914 1.368 . S
C909 C893 1.349 . S
C909 H901 0.950 . S
C909 C907 1.327 . S
C910 C898 1.349 . S
C910 H904 0.950 . S
C910 C911 1.327 . S
C911 H905 0.950 . S
C911 C910 1.327 . S
C911 C915 1.429 . S
C912 C895 1.574 . S
C912 H906 0.949 . S
C912 C916 1.368 . S
C913 C894 1.429 . S
C913 C907 1.429 . S
C913 C914 1.523 . S
C914 C895 1.368 . S
C914 C908 1.368 . S
C914 C913 1.523 . S
C915 C899 1.429 . S
C915 C911 1.429 . S
C915 C916 1.523 . S
C916 C900 1.368 . S
C916 C912 1.368 . S
C916 C915 1.523 . S
H917 C892 0.950 . S
H918 C894 0.950 . S
H919 C895 0.949 . S
H920 C897 0.950 . S
H921 C899 0.950 . S
C922 C923 1.349 . S
C922 C924 1.327 . S
C922 H947 0.950 . S
C923 C922 1.349 . S
C923 C939 1.349 . S
C924 C922 1.327 . S
C924 C943 1.429 . S
C924 H948 0.950 . S
C925 C942 1.574 . S
C925 C944 1.368 . S
C925 H949 0.949 . S
H926 C930 0.951 . S
C927 C928 1.349 . S
C927 C929 1.327 . S
C927 H950 0.950 . S
C928 C927 1.349 . S
C928 C940 1.349 . S
C929 C927 1.327 . S
C929 C945 1.429 . S
C929 H951 0.950 1_556 S
C930 H926 0.951 . S
C930 C938 1.572 1_556 S
C930 C946 1.367 1_556 S
H931 C939 0.950 . S
H932 C937 0.950 . S
H933 C938 0.949 . S
H934 C940 0.950 . S
H935 C941 0.950 . S
H936 C942 0.949 . S
C937 H932 0.950 . S
C937 C939 1.327 . S
C937 C943 1.429 . S
C938 C930 1.572 1_554 S
C938 H933 0.949 . S
C938 C944 1.368 . S
C939 C923 1.349 . S
C939 H931 0.950 . S
C939 C937 1.327 . S
C940 C928 1.349 . S
C940 H934 0.950 . S
C940 C941 1.327 . S
C941 H935 0.950 . S
C941 C940 1.327 . S
C941 C945 1.429 . S
C942 C925 1.574 . S
C942 H936 0.949 . S
C942 C946 1.368 . S
C943 C924 1.429 . S
C943 C937 1.429 . S
C943 C944 1.523 . S
C944 C925 1.368 . S
C944 C938 1.368 . S
C944 C943 1.523 . S
C945 C929 1.429 . S
C945 C941 1.429 . S
C945 C946 1.523 1_556 S
C946 C930 1.367 1_554 S
C946 C942 1.368 . S
C946 C945 1.523 1_554 S
H947 C922 0.950 . S
H948 C924 0.950 . S
H949 C925 0.949 . S
H950 C927 0.950 . S
H951 C929 0.950 1_554 S
C952 C953 1.349 . S
C952 C954 1.327 . S
C952 H977 0.950 . S
C953 C952 1.349 . S
C953 C969 1.349 . S
C954 C952 1.327 . S
C954 C973 1.429 . S
C954 H978 0.950 . S
C955 C972 1.574 . S
C955 C974 1.368 . S
C955 H979 0.949 . S
H956 C960 0.949 . S
C957 C958 1.349 . S
C957 C959 1.327 . S
C957 H980 0.950 . S
C958 C957 1.349 . S
C958 C970 1.349 . S
C959 C957 1.327 . S
C959 C975 1.429 . S
C959 H981 0.950 . S
C960 H956 0.949 . S
C960 C968 1.574 . S
C960 C976 1.368 . S
H961 C969 0.950 . S
H962 C967 0.950 . S
H963 C968 0.949 . S
H964 C970 0.950 1_655 S
H965 C971 0.953 1_655 S
H966 C972 0.949 . S
C967 H962 0.950 . S
C967 C969 1.327 . S
C967 C973 1.429 . S
C968 C960 1.574 . S
C968 H963 0.949 . S
C968 C974 1.368 . S
C969 C953 1.349 . S
C969 H961 0.950 . S
C969 C967 1.327 . S
C970 C958 1.349 . S
C970 H964 0.950 1_455 S
C970 C971 1.327 . S
C971 H965 0.953 1_455 S
C971 C970 1.327 . S
C971 C975 1.429 . S
C972 C955 1.574 . S
C972 H966 0.949 . S
C972 C976 1.368 . S
C973 C954 1.429 . S
C973 C967 1.429 . S
C973 C974 1.523 . S
C974 C955 1.368 . S
C974 C968 1.368 . S
C974 C973 1.523 . S
C975 C959 1.429 . S
C975 C971 1.429 . S
C975 C976 1.523 . S
C976 C960 1.368 . S
C976 C972 1.368 . S
C976 C975 1.523 . S
H977 C952 0.950 . S
H978 C954 0.950 . S
H979 C955 0.949 . S
H980 C957 0.950 . S
H981 C959 0.950 . S
C982 C983 1.312 1_565 S
C982 C984 1.327 . S
C982 H1007 0.950 . S
C983 C982 1.312 1_545 S
C983 C999 1.394 . S
C984 C982 1.327 . S
C984 C1003 1.429 1_565 S
C984 H1008 0.950 . S
C985 C1002 1.574 . S
C985 C1004 1.368 . S
C985 H1009 0.949 . S
H986 C990 0.949 . S
C987 C988 1.349 . S
C987 C989 1.327 . S
C987 H1010 0.950 . S
C988 C987 1.349 . S
C988 C1000 1.349 1_545 S
C989 C987 1.327 . S
C989 C1005 1.429 . S
C989 H1011 0.950 . S
C990 H986 0.949 . S
C990 C998 1.574 . S
C990 C1006 1.368 1_565 S
H991 C999 0.950 . S
H992 C997 0.950 . S
H993 C998 0.949 . S
H994 C1000 0.950 . S
H995 C1001 0.950 . S
H996 C1002 0.949 . S
C997 H992 0.950 . S
C997 C999 1.327 . S
C997 C1003 1.429 . S
C998 C990 1.574 . S
C998 H993 0.949 . S
C998 C1004 1.368 1_565 S
C999 C983 1.394 . S
C999 H991 0.950 . S
C999 C997 1.327 . S
C1000 C988 1.349 1_565 S
C1000 H994 0.950 . S
C1000 C1001 1.327 . S
C1001 H995 0.950 . S
C1001 C1000 1.327 . S
C1001 C1005 1.429 1_565 S
C1002 C985 1.574 . S
C1002 H996 0.949 . S
C1002 C1006 1.368 . S
C1003 C984 1.429 1_545 S
C1003 C997 1.429 . S
C1003 C1004 1.523 . S
C1004 C985 1.368 . S
C1004 C998 1.368 1_545 S
C1004 C1003 1.523 . S
C1005 C989 1.429 . S
C1005 C1001 1.429 1_545 S
C1005 C1006 1.523 . S
C1006 C990 1.368 1_545 S
C1006 C1002 1.368 . S
C1006 C1005 1.523 . S
H1007 C982 0.950 . S
H1008 C984 0.950 . S
H1009 C985 0.949 . S
H1010 C987 0.950 . S
H1011 C989 0.950 . S
C1012 C1013 1.349 . S
C1012 C1014 1.327 1_554 S
C1012 H1037 0.950 . S
C1013 C1012 1.349 . S
C1013 C1029 1.349 . S
C1014 C1012 1.327 1_556 S
C1014 C1033 1.429 . S
C1014 H1038 0.950 . S
C1015 C1032 1.574 . S
C1015 C1034 1.368 . S
C1015 H1039 0.949 1_556 S
H1016 C1020 0.949 . S
C1017 C1018 1.349 . S
C1017 C1019 1.327 . S
C1017 H1040 0.950 . S
C1018 C1017 1.349 . S
C1018 C1030 1.349 . S
C1019 C1017 1.327 . S
C1019 C1035 1.429 . S
C1019 H1041 0.950 . S
C1020 H1016 0.949 . S
C1020 C1028 1.574 . S
C1020 C1036 1.368 . S
H1021 C1029 0.950 . S
H1022 C1027 0.950 . S
H1023 C1028 0.949 . S
H1024 C1030 0.950 . S
H1025 C1031 0.950 . S
H1026 C1032 0.949 . S
C1027 H1022 0.950 . S
C1027 C1029 1.327 . S
C1027 C1033 1.429 1_554 S
C1028 C1020 1.574 . S
C1028 H1023 0.949 . S
C1028 C1034 1.368 . S
C1029 C1013 1.349 . S
C1029 H1021 0.950 . S
C1029 C1027 1.327 . S
C1030 C1018 1.349 . S
C1030 H1024 0.950 . S
C1030 C1031 1.327 . S
C1031 H1025 0.950 . S
C1031 C1030 1.327 . S
C1031 C1035 1.429 . S
C1032 C1015 1.574 . S
C1032 H1026 0.949 . S
C1032 C1036 1.368 . S
C1033 C1014 1.429 . S
C1033 C1027 1.429 1_556 S
C1033 C1034 1.523 . S
C1034 C1015 1.368 . S
C1034 C1028 1.368 . S
C1034 C1033 1.523 . S
C1035 C1019 1.429 . S
C1035 C1031 1.429 . S
C1035 C1036 1.523 . S
C1036 C1020 1.368 . S
C1036 C1032 1.368 . S
C1036 C1035 1.523 . S
H1037 C1012 0.950 . S
H1038 C1014 0.950 . S
H1039 C1015 0.949 1_554 S
H1040 C1017 0.950 . S
H1041 C1019 0.950 . S
C1042 C1043 1.349 . S
C1042 C1044 1.327 . S
C1042 H1067 0.950 . S
C1043 C1042 1.349 . S
C1043 C1059 1.349 . S
C1044 C1042 1.327 . S
C1044 C1063 1.429 . S
C1044 H1068 0.950 . S
C1045 C1062 1.574 . S
C1045 C1064 1.368 . S
C1045 H1069 0.949 . S
H1046 C1050 0.949 . S
C1047 C1048 1.349 . S
C1047 C1049 1.327 . S
C1047 H1070 0.950 . S
C1048 C1047 1.349 . S
C1048 C1060 1.349 . S
C1049 C1047 1.327 . S
C1049 C1065 1.429 . S
C1049 H1071 0.950 . S
C1050 H1046 0.949 . S
C1050 C1058 1.574 . S
C1050 C1066 1.368 . S
H1051 C1059 0.950 . S
H1052 C1057 0.950 . S
H1053 C1058 0.949 . S
H1054 C1060 0.950 . S
H1055 C1061 0.950 . S
H1056 C1062 0.949 . S
C1057 H1052 0.950 . S
C1057 C1059 1.327 . S
C1057 C1063 1.429 . S
C1058 C1050 1.574 . S
C1058 H1053 0.949 . S
C1058 C1064 1.368 . S
C1059 C1043 1.349 . S
C1059 H1051 0.950 . S
C1059 C1057 1.327 . S
C1060 C1048 1.349 . S
C1060 H1054 0.950 . S
C1060 C1061 1.327 . S
C1061 H1055 0.950 . S
C1061 C1060 1.327 . S
C1061 C1065 1.429 . S
C1062 C1045 1.574 . S
C1062 H1056 0.949 . S
C1062 C1066 1.368 . S
C1063 C1044 1.429 . S
C1063 C1057 1.429 . S
C1063 C1064 1.523 . S
C1064 C1045 1.368 . S
C1064 C1058 1.368 . S
C1064 C1063 1.523 . S
C1065 C1049 1.429 . S
C1065 C1061 1.429 . S
C1065 C1066 1.523 . S
C1066 C1050 1.368 . S
C1066 C1062 1.368 . S
C1066 C1065 1.523 . S
H1067 C1042 0.950 . S
H1068 C1044 0.950 . S
H1069 C1045 0.949 . S
H1070 C1047 0.950 . S
H1071 C1049 0.950 . S
C1072 C1073 1.349 . S
C1072 C1074 1.327 . S
C1072 H1097 0.950 . S
C1073 C1072 1.349 . S
C1073 C1089 1.349 . S
C1074 C1072 1.327 . S
C1074 C1093 1.429 . S
C1074 H1098 0.947 . S
C1075 C1092 1.574 . S
C1075 C1094 1.368 . S
C1075 H1099 0.949 . S
H1076 C1080 0.949 1_455 S
C1077 C1078 1.349 . S
C1077 C1079 1.327 . S
C1077 H1100 0.950 . S
C1078 C1077 1.349 . S
C1078 C1090 1.334 1_655 S
C1079 C1077 1.327 . S
C1079 C1095 1.429 . S
C1079 H1101 0.950 . S
C1080 H1076 0.949 1_655 S
C1080 C1088 1.574 . S
C1080 C1096 1.368 . S
H1081 C1089 0.950 . S
H1082 C1087 0.950 . S
H1083 C1088 0.949 1_455 S
H1084 C1090 0.971 . S
H1085 C1091 0.946 1_455 S
H1086 C1092 0.949 . S
C1087 H1082 0.950 . S
C1087 C1089 1.327 . S
C1087 C1093 1.429 . S
C1088 C1080 1.574 . S
C1088 H1083 0.949 1_655 S
C1088 C1094 1.368 . S
C1089 C1073 1.349 . S
C1089 H1081 0.950 . S
C1089 C1087 1.327 . S
C1090 C1078 1.334 1_455 S
C1090 H1084 0.971 . S
C1090 C1091 1.321 1_455 S
C1091 H1085 0.946 1_655 S
C1091 C1090 1.321 1_655 S
C1091 C1095 1.434 . S
C1092 C1075 1.574 . S
C1092 H1086 0.949 . S
C1092 C1096 1.368 . S
C1093 C1074 1.429 . S
C1093 C1087 1.429 . S
C1093 C1094 1.523 . S
C1094 C1075 1.368 . S
C1094 C1088 1.368 . S
C1094 C1093 1.523 . S
C1095 C1079 1.429 . S
C1095 C1091 1.434 . S
C1095 C1096 1.523 . S
C1096 C1080 1.368 . S
C1096 C1092 1.368 . S
C1096 C1095 1.523 . S
H1097 C1072 0.950 . S
H1098 C1074 0.947 . S
H1099 C1075 0.949 . S
H1100 C1077 0.950 . S
H1101 C1079 0.950 . S
C1102 C1103 1.331 1_545 S
C1102 C1104 1.327 . S
C1102 H1127 0.950 . S
C1103 C1102 1.331 1_565 S
C1103 C1119 1.373 . S
C1104 C1102 1.327 . S
C1104 C1123 1.429 1_545 S
C1104 H1128 0.950 . S
C1105 C1122 1.574 . S
C1105 C1124 1.368 . S
C1105 H1129 0.949 . S
H1106 C1110 0.949 . S
C1107 C1108 1.349 . S
C1107 C1109 1.327 . S
C1107 H1130 0.950 . S
C1108 C1107 1.349 . S
C1108 C1120 1.349 1_565 S
C1109 C1107 1.327 . S
C1109 C1125 1.429 . S
C1109 H1131 0.950 . S
C1110 H1106 0.949 . S
C1110 C1118 1.574 . S
C1110 C1126 1.368 1_545 S
H1111 C1119 0.950 . S
H1112 C1117 0.950 . S
H1113 C1118 0.949 . S
H1114 C1120 0.950 . S
H1115 C1121 0.950 . S
H1116 C1122 0.949 . S
C1117 H1112 0.950 . S
C1117 C1119 1.327 . S
C1117 C1123 1.429 . S
C1118 C1110 1.574 . S
C1118 H1113 0.949 . S
C1118 C1124 1.368 1_545 S
C1119 C1103 1.373 . S
C1119 H1111 0.950 . S
C1119 C1117 1.327 . S
C1120 C1108 1.349 1_545 S
C1120 H1114 0.950 . S
C1120 C1121 1.327 . S
C1121 H1115 0.950 . S
C1121 C1120 1.327 . S
C1121 C1125 1.429 1_545 S
C1122 C1105 1.574 . S
C1122 H1116 0.949 . S
C1122 C1126 1.368 . S
C1123 C1104 1.429 1_565 S
C1123 C1117 1.429 . S
C1123 C1124 1.523 . S
C1124 C1105 1.368 . S
C1124 C1118 1.368 1_565 S
C1124 C1123 1.523 . S
C1125 C1109 1.429 . S
C1125 C1121 1.429 1_565 S
C1125 C1126 1.523 . S
C1126 C1110 1.368 1_565 S
C1126 C1122 1.368 . S
C1126 C1125 1.523 . S
H1127 C1102 0.950 . S
H1128 C1104 0.950 . S
H1129 C1105 0.949 . S
H1130 C1107 0.950 . S
H1131 C1109 0.950 . S
C1132 C1133 1.349 . S
C1132 C1134 1.327 . S
C1132 H1157 0.950 . S
C1133 C1132 1.349 . S
C1133 C1149 1.349 . S
C1134 C1132 1.327 . S
C1134 C1153 1.429 . S
C1134 H1158 0.950 . S
C1135 C1152 1.574 . S
C1135 C1154 1.368 . S
C1135 H1159 0.949 . S
H1136 C1140 0.949 . S
C1137 C1138 1.349 . S
C1137 C1139 1.327 . S
C1137 H1160 0.950 . S
C1138 C1137 1.349 . S
C1138 C1150 1.349 . S
C1139 C1137 1.327 . S
C1139 C1155 1.429 . S
C1139 H1161 0.950 . S
C1140 H1136 0.949 . S
C1140 C1148 1.574 . S
C1140 C1156 1.368 . S
H1141 C1149 0.950 . S
H1142 C1147 0.950 . S
H1143 C1148 0.949 . S
H1144 C1150 0.950 . S
H1145 C1151 0.950 . S
H1146 C1152 0.949 . S
C1147 H1142 0.950 . S
C1147 C1149 1.327 . S
C1147 C1153 1.429 . S
C1148 C1140 1.574 . S
C1148 H1143 0.949 . S
C1148 C1154 1.368 . S
C1149 C1133 1.349 . S
C1149 H1141 0.950 . S
C1149 C1147 1.327 . S
C1150 C1138 1.349 . S
C1150 H1144 0.950 . S
C1150 C1151 1.327 . S
C1151 H1145 0.950 . S
C1151 C1150 1.327 . S
C1151 C1155 1.429 . S
C1152 C1135 1.574 . S
C1152 H1146 0.949 . S
C1152 C1156 1.368 . S
C1153 C1134 1.429 . S
C1153 C1147 1.429 . S
C1153 C1154 1.523 . S
C1154 C1135 1.368 . S
C1154 C1148 1.368 . S
C1154 C1153 1.523 . S
C1155 C1139 1.429 . S
C1155 C1151 1.429 . S
C1155 C1156 1.523 . S
C1156 C1140 1.368 . S
C1156 C1152 1.368 . S
C1156 C1155 1.523 . S
H1157 C1132 0.950 . S
H1158 C1134 0.950 . S
H1159 C1135 0.949 . S
H1160 C1137 0.950 . S
H1161 C1139 0.950 . S
C1162 C1163 1.349 . S
C1162 C1164 1.327 . S
C1162 H1187 0.950 . S
C1163 C1162 1.349 . S
C1163 C1179 1.349 . S
C1164 C1162 1.327 . S
C1164 C1183 1.429 . S
C1164 H1188 0.950 . S
C1165 C1182 1.574 . S
C1165 C1184 1.368 . S
C1165 H1189 0.949 . S
H1166 C1170 0.949 . S
C1167 C1168 1.349 . S
C1167 C1169 1.327 . S
C1167 H1190 0.950 . S
C1168 C1167 1.349 . S
C1168 C1180 1.349 . S
C1169 C1167 1.327 . S
C1169 C1185 1.429 . S
C1169 H1191 0.950 . S
C1170 H1166 0.949 . S
C1170 C1178 1.574 . S
C1170 C1186 1.368 . S
H1171 C1179 0.950 . S
H1172 C1177 0.950 . S
H1173 C1178 0.949 . S
H1174 C1180 0.950 . S
H1175 C1181 0.950 . S
H1176 C1182 0.949 . S
C1177 H1172 0.950 . S
C1177 C1179 1.327 . S
C1177 C1183 1.429 . S
C1178 C1170 1.574 . S
C1178 H1173 0.949 . S
C1178 C1184 1.368 . S
C1179 C1163 1.349 . S
C1179 H1171 0.950 . S
C1179 C1177 1.327 . S
C1180 C1168 1.349 . S
C1180 H1174 0.950 . S
C1180 C1181 1.327 . S
C1181 H1175 0.950 . S
C1181 C1180 1.327 . S
C1181 C1185 1.429 . S
C1182 C1165 1.574 . S
C1182 H1176 0.949 . S
C1182 C1186 1.368 . S
C1183 C1164 1.429 . S
C1183 C1177 1.429 . S
C1183 C1184 1.523 . S
C1184 C1165 1.368 . S
C1184 C1178 1.368 . S
C1184 C1183 1.523 . S
C1185 C1169 1.429 . S
C1185 C1181 1.429 . S
C1185 C1186 1.523 . S
C1186 C1170 1.368 . S
C1186 C1182 1.368 . S
C1186 C1185 1.523 . S
H1187 C1162 0.950 . S
H1188 C1164 0.950 . S
H1189 C1165 0.949 . S
H1190 C1167 0.950 . S
H1191 C1169 0.950 . S
C473 C255 1.812 1_545 S
C478 C314 1.866 . S
C508 C354 2.115 . S
C503 C294 2.066 . S
C538 C418 2.307 . S
C533 C177 2.235 . S
C568 C434 1.819 . S
C563 C216 1.686 . S
C598 C335 1.868 . S
C593 C99 1.808 1_545 S
C623 C138 2.061 1_556 S
C628 C375 2.120 . S
C653 C21 2.244 . S
C658 C409 2.308 . S
C683 C60 1.690 . S
C688 C455 1.819 1_655 S
C718 C329 0.356 . S
C713 C196 0.264 . S
C748 C369 0.367 . S
C743 C235 0.348 1_545 S
C778 C405 0.551 . S
C773 C289 0.529 . S
C803 C157 0.391 . S
C808 C449 0.480 . S
C833 C40 0.237 . S
C838 C338 0.355 . S
C868 C378 0.367 . S
C863 C79 0.348 . S
C898 C416 0.551 . S
C893 C133 0.515 . S
C923 C1 0.376 . S
C928 C458 0.480 . S
C953 C211 2.456 . S
C958 C336 2.709 . S
C983 C250 2.198 . S
C988 C376 2.420 . S
C1018 C394 1.777 . S
C1013 C274 1.746 . S
C1048 C456 3.050 . S
C1043 C172 2.742 . S
C1073 C55 2.455 . S
C1078 C325 2.721 . S
C1108 C365 2.420 . S
C1103 C94 2.198 1_565 S
C1138 C415 1.777 . S
C1133 C118 1.741 . S
C1163 C16 2.741 . S
C1168 C445 3.050 . S
