# Generated by pormake.
# Topology zzz, (3,6)-cn, num edge types: 1
# Building blocks:
#     Node 0, Type 0, BuildingBlock: BETDIP_clean_linker_0, # of connection points: 3
#     Node 1, Type 0, BuildingBlock: BETDIP_clean_linker_0, # of connection points: 3
#     Node 2, Type 0, BuildingBlock: BETDIP_clean_linker_0, # of connection points: 3
#     Node 3, Type 0, BuildingBlock: BETDIP_clean_linker_0, # of connection points: 3
#     Node 4, Type 0, BuildingBlock: BETDIP_clean_linker_0, # of connection points: 3
#     Node 5, Type 0, BuildingBlock: BETDIP_clean_linker_0, # of connection points: 3
#     Node 6, Type 0, BuildingBlock: BETDIP_clean_linker_0, # of connection points: 3
#     Node 7, Type 0, BuildingBlock: BETDIP_clean_linker_0, # of connection points: 3
#     Node 8, Type 1, BuildingBlock: KUMJIN_clean_sbu_0, # of connection points: 6
#     Node 9, Type 1, BuildingBlock: KUMJIN_clean_sbu_0, # of connection points: 6
#     Node 10, Type 1, BuildingBlock: KUMJIN_clean_sbu_0, # of connection points: 6
#     Node 11, Type 1, BuildingBlock: KUMJIN_clean_sbu_0, # of connection points: 6
#     Edge 12, Type (0, 1), BuildingBlock: XIVTED_clean_linker_0, # of connection points: 2
#     Edge 13, Type (0, 1), BuildingBlock: XIVTED_clean_linker_0, # of connection points: 2
#     Edge 14, Type (0, 1), BuildingBlock: XIVTED_clean_linker_0, # of connection points: 2
#     Edge 15, Type (0, 1), BuildingBlock: XIVTED_clean_linker_0, # of connection points: 2
#     Edge 16, Type (0, 1), BuildingBlock: XIVTED_clean_linker_0, # of connection points: 2
#     Edge 17, Type (0, 1), BuildingBlock: XIVTED_clean_linker_0, # of connection points: 2
#     Edge 18, Type (0, 1), BuildingBlock: XIVTED_clean_linker_0, # of connection points: 2
#     Edge 19, Type (0, 1), BuildingBlock: XIVTED_clean_linker_0, # of connection points: 2
#     Edge 20, Type (0, 1), BuildingBlock: XIVTED_clean_linker_0, # of connection points: 2
#     Edge 21, Type (0, 1), BuildingBlock: XIVTED_clean_linker_0, # of connection points: 2
#     Edge 22, Type (0, 1), BuildingBlock: XIVTED_clean_linker_0, # of connection points: 2
#     Edge 23, Type (0, 1), BuildingBlock: XIVTED_clean_linker_0, # of connection points: 2
#     Edge 24, Type (0, 1), BuildingBlock: XIVTED_clean_linker_0, # of connection points: 2
#     Edge 25, Type (0, 1), BuildingBlock: XIVTED_clean_linker_0, # of connection points: 2
#     Edge 26, Type (0, 1), BuildingBlock: XIVTED_clean_linker_0, # of connection points: 2
#     Edge 27, Type (0, 1), BuildingBlock: XIVTED_clean_linker_0, # of connection points: 2
#     Edge 28, Type (0, 1), BuildingBlock: XIVTED_clean_linker_0, # of connection points: 2
#     Edge 29, Type (0, 1), BuildingBlock: XIVTED_clean_linker_0, # of connection points: 2
#     Edge 30, Type (0, 1), BuildingBlock: XIVTED_clean_linker_0, # of connection points: 2
#     Edge 31, Type (0, 1), BuildingBlock: XIVTED_clean_linker_0, # of connection points: 2
#     Edge 32, Type (0, 1), BuildingBlock: XIVTED_clean_linker_0, # of connection points: 2
#     Edge 33, Type (0, 1), BuildingBlock: XIVTED_clean_linker_0, # of connection points: 2
#     Edge 34, Type (0, 1), BuildingBlock: XIVTED_clean_linker_0, # of connection points: 2
#     Edge 35, Type (0, 1), BuildingBlock: XIVTED_clean_linker_0, # of connection points: 2
# Relax obj value: 0.177
# Max RMSD: 0.164
# Mean RMSD: 0.115
data_MOF--net-zzz--node1-KUMJIN_clean_sbu_0--node2-BETDIP_clean_linker_0--edge1-XIVTED_clean_linker_0
_symmetry_space_group_name_H-M    P1
_symmetry_Int_Tables_number       1
_symmetry_cell_setting            triclinic
loop_
_symmetry_equiv_pos_as_xyz
'x, y, z'
_cell_length_a     51.099314
_cell_length_b     51.021552
_cell_length_c     14.675245
_cell_angle_alpha  91.264784
_cell_angle_beta   89.836761
_cell_angle_gamma 89.996787
loop_
_atom_site_label
_atom_site_type_symbol
_atom_site_fract_x
_atom_site_fract_y
_atom_site_fract_z
_atom_type_partial_charge
H0 H 0.76049 0.52628 0.31433 0.0
H1 H 0.75435 0.58112 0.095 0.0
H2 H 0.8245 0.5777 0.25291 0.0
H3 H 0.71154 0.58289 0.14902 0.0
C4 C 0.70799 0.56188 0.14623 0.0
C5 C 0.76846 0.54228 0.27577 0.0
C6 C 0.79428 0.55132 0.29367 0.0
C7 C 0.75315 0.55395 0.2066 0.0
C8 C 0.7647 0.57349 0.15298 0.0
C9 C 0.79021 0.5823 0.17001 0.0
C10 C 0.80435 0.57168 0.24194 0.0
N11 N 0.72701 0.54506 0.18677 0.0
H12 H 1.00572 0.77501 0.32578 0.0
H13 H 0.95982 0.76148 0.08281 0.0
H14 H 0.96032 0.83748 0.21264 0.0
H15 H 0.95428 0.72085 0.1605 0.0
C16 C 0.97529 0.71752 0.15696 0.0
C17 C 0.99208 0.78195 0.27538 0.0
C18 C 0.98282 0.80838 0.28101 0.0
C19 C 0.98301 0.76441 0.20499 0.0
C20 C 0.96591 0.77414 0.13899 0.0
C21 C 0.95799 0.80039 0.14022 0.0
C22 C 0.96586 0.81697 0.21269 0.0
N23 N 0.9919 0.73763 0.19582 0.0
H24 H 0.76169 1.00808 0.35918 0.0
H25 H 0.77823 0.96333 0.11346 0.0
H26 H 0.70032 0.96479 0.22444 0.0
H27 H 0.81984 0.95793 0.22996 0.0
C28 C 0.82118 0.9783 0.21023 0.0
C29 C 0.75527 0.99477 0.30527 0.0
C30 C 0.72893 0.98576 0.30365 0.0
C31 C 0.77344 0.98594 0.23758 0.0
C32 C 0.76466 0.96924 0.16688 0.0
C33 C 0.73823 0.96221 0.15943 0.0
C34 C 0.7209 0.96968 0.23 0.0
N35 N 0.79986 0.99536 0.23463 0.0
H36 H 0.53026 0.77698 0.36851 0.0
H37 H 0.57406 0.78646 0.11958 0.0
H38 H 0.57649 0.71331 0.25833 0.0
H39 H 0.58073 0.83071 0.23771 0.0
C40 C 0.56052 0.83234 0.21548 0.0
C41 C 0.54365 0.76922 0.31732 0.0
C42 C 0.55334 0.74331 0.32405 0.0
C43 C 0.55205 0.78531 0.24513 0.0
C44 C 0.56877 0.77475 0.17755 0.0
C45 C 0.5775 0.7488 0.1815 0.0
C46 C 0.57028 0.73362 0.25603 0.0
N47 N 0.54289 0.8116 0.23688 0.0
H48 H 0.2719 0.52312 0.02966 0.0
H49 H 0.27938 0.46333 0.23264 0.0
H50 H 0.21107 0.46611 0.06501 0.0
H51 H 0.29779 0.49819 0.30801 0.0
C52 C 0.31217 0.50355 0.25696 0.0
C53 C 0.2647 0.50564 0.06195 0.0
C54 C 0.24006 0.495 0.03601 0.0
C55 C 0.27932 0.49427 0.13345 0.0
C56 C 0.26888 0.47222 0.1773 0.0
C57 C 0.24427 0.46214 0.15372 0.0
C58 C 0.23062 0.47308 0.08117 0.0
N59 N 0.30366 0.50554 0.1642 0.0
H60 H 0.0233 0.26384 0.02736 0.0
H61 H 0.07744 0.27937 0.247 0.0
H62 H 0.0764 0.20387 0.11273 0.0
H63 H 0.03716 0.29466 0.30926 0.0
C64 C 0.03498 0.3091 0.25636 0.0
C65 C 0.03923 0.25762 0.07026 0.0
C66 C 0.0504 0.23215 0.0567 0.0
C67 C 0.0486 0.27473 0.14134 0.0
C68 C 0.06946 0.2662 0.19538 0.0
C69 C 0.07888 0.24046 0.18889 0.0
C70 C 0.06979 0.22403 0.11761 0.0
N71 N 0.03666 0.29977 0.16306 0.0
H72 H 0.27102 0.0345 0.96096 0.0
H73 H 0.25582 0.07548 0.21525 0.0
H74 H 0.33215 0.0791 0.09299 0.0
H75 H 0.24256 0.02103 0.21466 0.0
C76 C 0.22694 0.03013 0.17626 0.0
C77 C 0.27749 0.04763 0.01529 0.0
C78 C 0.30363 0.05735 0.01534 0.0
C79 C 0.26009 0.05436 0.08802 0.0
C80 C 0.26901 0.07068 0.15937 0.0
C81 C 0.29496 0.07944 0.16264 0.0
C82 C 0.31176 0.07331 0.08922 0.0
N83 N 0.23434 0.04343 0.09515 0.0
H84 H 0.50412 0.26508 0.94659 0.0
H85 H 0.46828 0.25665 0.21081 0.0
H86 H 0.45998 0.32867 0.06827 0.0
H87 H 0.52206 0.24173 0.20263 0.0
C88 C 0.512 0.22568 0.16741 0.0
C89 C 0.49191 0.27287 1.00122 0.0
C90 C 0.48186 0.29873 0.99669 0.0
C91 C 0.48671 0.25747 0.0786 0.0
C92 C 0.47171 0.26813 0.15065 0.0
C93 C 0.46177 0.29362 0.14701 0.0
C94 C 0.46657 0.30847 0.06938 0.0
N95 N 0.49747 0.23181 0.08771 0.0
Eu96 Eu 0.0398 0.01317 0.76231 0.0
C97 C 0.9506 0.98857 0.48787 0.0
C98 C 0.97193 0.95927 0.37931 0.0
C99 C 0.92535 0.95486 0.40738 0.0
C100 C 0.97307 0.98024 0.44395 0.0
C101 C 0.92634 0.97641 0.46831 0.0
C102 C 0.94813 0.94629 0.36296 0.0
C103 C 0.90524 1.00947 0.56258 0.0
N104 N 0.95213 1.00961 0.5455 0.0
C105 C 0.92965 0.02094 0.57902 0.0
C106 C 0.90361 0.98682 0.50811 0.0
Eu107 Eu 0.99442 0.0276 0.57683 0.0
N108 N 0.99584 0.99312 0.46187 0.0
C109 C 0.01777 0.9868 0.41176 0.0
C110 C 0.99461 0.95217 0.33173 0.0
C111 C 0.01751 0.96626 0.34714 0.0
H112 H 0.93064 0.03875 0.62022 0.0
H113 H 0.03516 0.96117 0.30976 0.0
H114 H 0.94702 0.92998 0.31451 0.0
H115 H 0.88771 0.01822 0.59151 0.0
H116 H 0.03608 0.99665 0.42158 0.0
H117 H 0.99129 0.07126 0.0362 0.0
H118 H 0.99454 0.93617 0.28194 0.0
H119 H 0.10512 1.01039 0.72356 0.0
H120 H 0.9953 0.03614 0.92354 0.0
H121 H 0.14448 0.03711 0.75062 0.0
H122 H 0.90696 0.94514 0.39229 0.0
H123 H 0.02767 0.10228 0.06238 0.0
H124 H 0.07338 0.11596 0.02676 0.0
H125 H 0.88465 0.97805 0.49477 0.0
H126 H 0.11491 0.1072 0.94701 0.0
N127 N 0.03402 0.04635 0.87997 0.0
C128 C 0.01171 0.04904 0.9316 0.0
C129 C 0.02975 0.0866 0.0119 0.0
C130 C 0.05296 0.08322 0.96272 0.0
C131 C 1.00921 0.06915 0.99724 0.0
C132 C 0.05469 0.06247 0.89736 0.0
H133 H 0.14165 0.07778 0.84484 0.0
N134 N 0.07937 0.03676 0.79401 0.0
C135 C 0.12583 0.04344 0.77849 0.0
C136 C 0.07793 0.05773 0.85204 0.0
C137 C 0.10334 0.02849 0.76237 0.0
C138 C 0.12415 0.06632 0.83165 0.0
C139 C 0.10019 0.07335 0.87136 0.0
O140 O 0.06899 0.98531 0.80888 0.0
O141 O 0.01323 0.99536 0.6547 0.0
O142 O 0.96868 0.01618 0.69699 0.0
O143 O 0.998 1.00487 0.81103 0.0
O144 O 0.05043 0.97971 0.66421 0.0
O145 O 0.0322 0.98907 0.88058 0.0
O146 O 0.96844 0.05737 0.52254 0.0
O147 O 0.02064 0.04545 0.68556 0.0
O148 O 0.06514 0.02343 0.64127 0.0
O149 O 0.03647 0.03107 0.52153 0.0
O150 O 0.98289 0.05998 0.67757 0.0
O151 O 1.00711 0.0525 0.46592 0.0
C152 C 0.02813 0.9772 0.62417 0.0
C153 C 0.04831 0.94639 0.84818 0.0
C154 C 0.01886 0.91041 0.80592 0.0
C155 C 0.02308 0.93701 0.82759 0.0
C156 C 0.04066 0.89352 0.79988 0.0
C157 C 0.06965 0.92916 0.84283 0.0
C158 C 0.06583 0.90292 0.81774 0.0
C159 C 0.97387 1.00816 0.78013 0.0
C160 C 0.05282 0.97454 0.86527 0.0
C161 C 0.09813 0.0948 0.93243 0.0
C162 C 0.07455 0.09973 0.9781 0.0
C163 C 1.00516 0.06294 0.71741 0.0
C164 C 0.99224 0.09579 0.4972 0.0
C165 C 0.01806 0.10486 0.50834 0.0
C166 C 0.02311 0.13103 0.53456 0.0
C167 C 1.00175 0.14773 0.55407 0.0
C168 C 0.97133 0.11296 0.51554 0.0
C169 C 0.97612 0.13867 0.54494 0.0
C170 C 0.06041 0.02873 0.55518 0.0
C171 C 0.98692 0.06796 0.47497 0.0
H172 H 1.00661 0.95037 0.8289 0.0
H173 H 0.03828 0.87277 0.78536 0.0
H174 H 0.08931 0.93613 0.85648 0.0
H175 H 0.08238 0.88971 0.81366 0.0
H176 H 0.03431 0.09159 0.49622 0.0
H177 H 1.00468 0.16818 0.57249 0.0
H178 H 0.95127 0.10635 0.50865 0.0
H179 H 0.95989 0.15178 0.55919 0.0
Eu180 Eu 0.52295 0.045 0.75924 0.0
C181 C 0.55394 0.95603 0.49009 0.0
C182 C 0.5818 0.97848 0.3835 0.0
C183 C 0.58992 0.93273 0.41476 0.0
C184 C 0.56053 0.97862 0.44558 0.0
C185 C 0.56817 0.93262 0.47328 0.0
C186 C 0.59672 0.95564 0.36993 0.0
C187 C 0.53667 0.90983 0.56481 0.0
N188 N 0.53271 0.95644 0.54562 0.0
C189 C 0.52312 0.93337 0.57848 0.0
C190 C 0.55959 0.90953 0.51325 0.0
Eu191 Eu 0.51099 0.99752 0.57144 0.0
N192 N 0.54587 1.00053 0.46109 0.0
C193 C 0.5508 0.02245 0.41114 0.0
C194 C 0.58735 1.0012 0.33597 0.0
C195 C 0.57155 0.02314 0.34901 0.0
H196 H 0.50497 0.93316 0.6165 0.0
H197 H 0.57544 0.04078 0.31158 0.0
H198 H 0.61327 0.95535 0.32354 0.0
H199 H 0.52926 0.8919 0.59335 0.0
H200 H 0.53947 0.04 0.41851 0.0
H201 H 0.46329 0.99544 0.01851 0.0
H202 H 0.60352 1.00189 0.28815 0.0
H203 H 0.52332 0.11001 0.71742 0.0
H204 H 0.49888 0.99983 0.91121 0.0
H205 H 0.49549 0.14878 0.74214 0.0
H206 H 0.60119 0.91504 0.40187 0.0
H207 H 0.43208 0.03173 0.04472 0.0
H208 H 0.41823 0.07738 0.01163 0.0
H209 H 0.56997 0.89121 0.50197 0.0
H210 H 0.42645 0.11881 0.9344 0.0
N211 N 0.48895 0.0387 0.8708 0.0
C212 C 0.48599 0.01621 0.91939 0.0
C213 C 0.44801 0.03398 0.99661 0.0
C214 C 0.4515 0.05731 0.95025 0.0
C215 C 0.46554 0.01349 0.9819 0.0
C216 C 0.47255 0.05924 0.88783 0.0
H217 H 0.45513 0.14559 0.83436 0.0
N218 N 0.49789 0.08403 0.78727 0.0
C219 C 0.48976 0.13017 0.77006 0.0
C220 C 0.47697 0.08245 0.84387 0.0
C221 C 0.5053 0.10795 0.75512 0.0
C222 C 0.46707 0.1283 0.82221 0.0
C223 C 0.46075 0.10445 0.86178 0.0
O224 O 0.54867 0.07587 0.81202 0.0
O225 O 0.54189 0.01777 0.65507 0.0
O226 O 0.52062 0.97356 0.69586 0.0
O227 O 0.53243 1.00398 0.80939 0.0
O228 O 0.55687 0.05543 0.66649 0.0
O229 O 0.54713 0.03871 0.87924 0.0
O230 O 0.48385 0.96844 0.51514 0.0
O231 O 0.49208 0.02492 0.67502 0.0
O232 O 0.51427 0.06891 0.63511 0.0
O233 O 0.50527 0.03898 0.5168 0.0
O234 O 0.47722 0.98722 0.66495 0.0
O235 O 0.48669 1.00636 0.45384 0.0
C236 C 0.55994 0.03276 0.62736 0.0
C237 C 0.58875 0.05769 0.85353 0.0
C238 C 0.62688 0.03053 0.81649 0.0
C239 C 0.60015 0.03292 0.83746 0.0
C240 C 0.64192 0.05348 0.80777 0.0
C241 C 0.6042 0.08026 0.84586 0.0
C242 C 0.63058 0.07812 0.82219 0.0
C243 C 0.52891 0.97958 0.77889 0.0
C244 C 0.56031 0.06029 0.86778 0.0
C245 C 0.43926 0.10224 0.92081 0.0
C246 C 0.43465 0.07871 0.96503 0.0
C247 C 0.47405 1.00998 0.70315 0.0
C248 C 0.44443 0.98837 0.47581 0.0
C249 C 0.43362 0.01331 0.4939 0.0
C250 C 0.40672 0.01629 0.51127 0.0
C251 C 0.39099 0.99364 0.51537 0.0
C252 C 0.42832 0.96617 0.47903 0.0
C253 C 0.4018 0.96882 0.49984 0.0
C254 C 0.50826 0.06324 0.54952 0.0
C255 C 0.4728 0.98509 0.46187 0.0
H256 H 0.58827 0.01539 0.84118 0.0
H257 H 0.6627 0.05244 0.79355 0.0
H258 H 0.59571 0.09956 0.85633 0.0
H259 H 0.64238 0.09561 0.81612 0.0
H260 H 0.44609 0.03047 0.49383 0.0
H261 H 0.37009 0.99503 0.52651 0.0
H262 H 0.43634 0.94675 0.46683 0.0
H263 H 0.38947 0.9516 0.50227 0.0
Eu264 Eu 0.54327 0.51598 0.5837 0.0
C265 C 0.43493 0.50055 0.77877 0.0
C266 C 0.40305 0.52387 0.68979 0.0
C267 C 0.3897 0.48569 0.7743 0.0
C268 C 0.42896 0.5207 0.72107 0.0
C269 C 0.41528 0.48311 0.80754 0.0
C270 C 0.38361 0.50602 0.71541 0.0
C271 C 0.44723 0.46289 0.90456 0.0
N272 N 0.45979 0.49855 0.80955 0.0
C273 C 0.46599 0.48064 0.87417 0.0
C274 C 0.42182 0.46392 0.87028 0.0
Eu275 Eu 0.49115 0.52824 0.75185 0.0
N276 N 0.44826 0.53758 0.69732 0.0
C277 C 0.44241 0.55899 0.64674 0.0
C278 C 0.39736 0.54509 0.63458 0.0
C279 C 0.41708 0.56287 0.61384 0.0
H280 H 0.48572 0.47959 0.90021 0.0
H281 H 0.41282 0.57957 0.57216 0.0
H282 H 0.3637 0.50803 0.69131 0.0
H283 H 0.45242 0.44838 0.95408 0.0
H284 H 0.45709 0.57305 0.62927 0.0
H285 H 0.61973 0.46434 0.77103 0.0
H286 H 0.37777 0.54813 0.60879 0.0
H287 H 0.5506 0.56425 0.43449 0.0
H288 H 0.57627 0.47046 0.70561 0.0
H289 H 0.5843 0.59606 0.38757 0.0
H290 H 0.3744 0.47236 0.79496 0.0
H291 H 0.65456 0.49698 0.74547 0.0
H292 H 0.66917 0.53799 0.66916 0.0
H293 H 0.40729 0.45016 0.89393 0.0
H294 H 0.65962 0.57377 0.56461 0.0
N295 N 0.58547 0.50682 0.64408 0.0
C296 C 0.59095 0.485 0.69298 0.0
C297 C 0.63537 0.49983 0.71612 0.0
C298 C 0.63016 0.52138 0.66185 0.0
C299 C 0.61578 0.48136 0.73054 0.0
C300 C 0.60476 0.52426 0.62569 0.0
H301 H 0.62821 0.5953 0.45818 0.0
N302 N 0.57514 0.54598 0.53127 0.0
C303 C 0.58881 0.58172 0.43847 0.0
C304 C 0.59942 0.54446 0.56748 0.0
C305 C 0.56985 0.56362 0.46481 0.0
C306 C 0.61352 0.58128 0.4787 0.0
C307 C 0.61923 0.56226 0.54304 0.0
O308 O 0.54829 0.51085 0.43708 0.0
O309 O 0.50014 0.51625 0.60897 0.0
O310 O 0.49039 0.48505 0.7109 0.0
O311 O 0.53322 0.47828 0.66165 0.0
O312 O 0.51209 0.53233 0.48867 0.0
O313 O 0.54869 0.47687 0.52292 0.0
O314 O 0.48664 0.53399 0.89848 0.0
O315 O 0.53426 0.52781 0.72641 0.0
O316 O 0.54311 0.55938 0.62226 0.0
O317 O 0.50008 0.56546 0.67017 0.0
O318 O 0.52233 0.51089 0.84486 0.0
O319 O 0.48822 0.56774 0.81183 0.0
C320 C 0.49193 0.5261 0.53631 0.0
C321 C 0.52433 0.47445 0.38502 0.0
C322 C 0.48551 0.44667 0.3702 0.0
C323 C 0.50705 0.45585 0.42107 0.0
C324 C 0.48084 0.45733 0.28394 0.0
C325 C 0.51947 0.48441 0.29823 0.0
C326 C 0.49767 0.47611 0.24865 0.0
C327 C 0.51055 0.46941 0.69362 0.0
C328 C 0.54593 0.48549 0.44025 0.0
C329 C 0.64422 0.56012 0.58176 0.0
C330 C 0.64966 0.53974 0.64121 0.0
C331 C 0.54253 0.51738 0.79792 0.0
C332 C 0.51299 0.56896 0.9491 0.0
C333 C 0.53057 0.58742 0.91382 0.0
C334 C 0.55264 0.59561 0.96409 0.0
C335 C 0.55751 0.584 0.04866 0.0
C336 C 0.51812 0.55807 0.03429 0.0
C337 C 0.54042 0.56532 0.08301 0.0
C338 C 0.52256 0.57462 0.63774 0.0
C339 C 0.49063 0.55913 0.89463 0.0
H340 H 0.5104 0.44838 0.48856 0.0
H341 H 0.46486 0.45041 0.2416 0.0
H342 H 0.5323 0.49899 0.26943 0.0
H343 H 0.49403 0.48394 0.18191 0.0
H344 H 0.52704 0.59549 0.84734 0.0
H345 H 0.5739 0.59007 0.09063 0.0
H346 H 0.50507 0.54359 0.06257 0.0
H347 H 0.54426 0.55675 0.14848 0.0
Eu348 Eu 0.02678 0.54411 0.57762 0.0
C349 C 0.02604 0.43825 0.7448 0.0
C350 C 0.9974 0.41407 0.64232 0.0
C351 C 0.03396 0.39188 0.71201 0.0
C352 C 1.00477 0.43776 0.68723 0.0
C353 C 0.04044 0.41508 0.75985 0.0
C354 C 0.01245 0.39137 0.65338 0.0
C355 C 0.06461 0.43848 0.87648 0.0
N356 N 0.03174 0.46093 0.79032 0.0
C357 C 0.04968 0.46079 0.85975 0.0
C358 C 0.06035 0.41564 0.82497 0.0
Eu359 Eu 1.00685 0.49904 0.75334 0.0
N360 N 0.99087 0.4602 0.67665 0.0
C361 C 0.96807 0.45941 0.62769 0.0
C362 C 0.97498 0.41379 0.58823 0.0
C363 C 0.96003 0.43646 0.58214 0.0
H364 H 0.05271 0.47803 0.90261 0.0
H365 H 0.94223 0.43632 0.54233 0.0
H366 H 1.00731 0.37319 0.61826 0.0
H367 H 0.07921 0.43887 0.92978 0.0
H368 H 0.95558 0.47613 0.62268 0.0
H369 H 0.0914 0.6085 0.78255 0.0
H370 H 0.96875 0.39606 0.55249 0.0
H371 H 0.98028 0.56514 0.4299 0.0
H372 H 0.07914 0.5688 0.69905 0.0
H373 H 0.95166 0.60323 0.41009 0.0
H374 H 0.04502 0.37404 0.72181 0.0
H375 H 0.06232 0.64716 0.78369 0.0
H376 H 0.02151 0.66845 0.72797 0.0
H377 H 0.0718 0.39828 0.83848 0.0
H378 H 0.98298 0.66681 0.62817 0.0
N379 N 0.04202 0.58317 0.65485 0.0
C380 C 0.06555 0.58478 0.69929 0.0
C381 C 0.05657 0.62947 0.74676 0.0
C382 C 0.03335 0.62844 0.6969 0.0
C383 C 0.07297 0.60769 0.74642 0.0
C384 C 0.02672 0.60487 0.6499 0.0
H385 H 0.95701 0.64276 0.50864 0.0
N386 N 1.0004 0.58163 0.54513 0.0
C387 C 0.96631 0.6036 0.46325 0.0
C388 C 1.00503 0.60393 0.59432 0.0
C389 C 0.98247 0.58189 0.47569 0.0
C390 C 0.96939 0.62584 0.51893 0.0
C391 C 0.98942 0.62653 0.58357 0.0
O392 O 0.03111 0.55373 0.43394 0.0
O393 O 0.02541 0.50122 0.61417 0.0
O394 O 0.05023 0.50617 0.77418 0.0
O395 O 0.06401 0.52883 0.64687 0.0
O396 O 0.01223 0.5112 0.48557 0.0
O397 O 0.0654 0.54617 0.5145 0.0
O398 O 1.00264 0.49133 0.89849 0.0
O399 O 1.00843 0.54182 0.71687 0.0
O400 O 0.98369 0.53576 0.55445 0.0
O401 O 0.96976 0.51552 0.68639 0.0
O402 O 0.02246 0.53186 0.84411 0.0
O403 O 0.96822 0.49685 0.81642 0.0
C404 C 0.01695 0.49192 0.53834 0.0
C405 C 0.06445 0.52876 0.36332 0.0
C406 C 0.08881 0.48897 0.32061 0.0
C407 C 0.07993 0.50716 0.38731 0.0
C408 C 0.08035 0.49187 0.22994 0.0
C409 C 0.05645 0.53122 0.27261 0.0
C410 C 0.06408 0.51265 0.20666 0.0
C411 C 0.06874 0.51682 0.72438 0.0
C412 C 0.05596 0.54838 0.43266 0.0
C413 C 0.99499 0.64944 0.63452 0.0
C414 C 0.01696 0.6504 0.69106 0.0
C415 C 0.01743 0.55116 0.79177 0.0
C416 C 0.96909 0.51709 0.96343 0.0
C417 C 0.9537 0.53816 0.93418 0.0
C418 C 0.94503 0.55774 0.99621 0.0
C419 C 0.95373 0.55683 0.08725 0.0
C420 C 0.97728 0.51656 0.05447 0.0
C421 C 0.96993 0.53655 0.11558 0.0
C422 C 0.96504 0.52659 0.60713 0.0
C423 C 0.97772 0.49628 0.89869 0.0
H424 H 0.08542 0.50478 0.45783 0.0
H425 H 0.08709 0.47881 0.17574 0.0
H426 H 0.04424 0.54749 0.25282 0.0
H427 H 0.05792 0.51474 0.13666 0.0
H428 H 0.94812 0.53907 0.86323 0.0
H429 H 0.94719 0.57105 0.13812 0.0
H430 H 0.9895 0.50075 0.07814 0.0
H431 H 0.97627 0.53598 0.18586 0.0
H432 H 0.18107 0.05801 0.13246 0.0
H433 H 0.10568 1.0013 0.56934 0.0
H434 H 0.21202 1.00222 0.32015 0.0
H435 H 0.06807 0.05653 0.39457 0.0
H436 H 0.1442 1.00203 0.47318 0.0
H437 H 0.13927 0.05813 0.21904 0.0
C438 C 0.17904 0.04561 0.19098 0.0
C439 C 0.20018 0.02999 0.21885 0.0
C440 C 0.12773 0.01421 0.45531 0.0
C441 C 0.15258 0.03021 0.31857 0.0
C442 C 0.10565 0.01406 0.51149 0.0
C443 C 0.08366 0.02946 0.49232 0.0
C444 C 0.12832 0.02984 0.37758 0.0
C445 C 0.08462 0.0445 0.41282 0.0
C446 C 0.15521 0.04577 0.24066 0.0
C447 C 0.19639 0.01455 0.29578 0.0
N448 N 0.10661 0.04447 0.3587 0.0
N449 N 0.17336 0.01511 0.34237 0.0
H450 H 0.54154 0.21205 0.30933 0.0
H451 H 0.48077 0.06865 0.38682 0.0
H452 H 0.48214 0.18044 0.13042 0.0
H453 H 0.53539 0.10882 0.5643 0.0
H454 H 0.48151 0.10687 0.28566 0.0
H455 H 0.54049 0.17206 0.39576 0.0
C456 C 0.52834 0.1965 0.28775 0.0
C457 C 0.51196 0.19969 0.21241 0.0
C458 C 0.49316 0.10727 0.34717 0.0
C459 C 0.51029 0.15327 0.31294 0.0
C460 C 0.49276 0.08547 0.40488 0.0
C461 C 0.50753 0.0857 0.48579 0.0
C462 C 0.50877 0.12922 0.37 0.0
C463 C 0.52291 0.10794 0.50496 0.0
C464 C 0.52765 0.17357 0.33756 0.0
C465 C 0.4952 0.17879 0.18791 0.0
N466 N 0.52309 0.12855 0.44801 0.0
N467 N 0.4947 0.15646 0.23832 0.0
H468 H 0.35559 0.52649 0.1729 0.0
H469 H 0.45466 0.4888 0.57432 0.0
H470 H 0.33158 0.4874 0.41668 0.0
H471 H 0.47 0.55332 0.39756 0.0
H472 H 0.41184 0.48273 0.50152 0.0
H473 H 0.39996 0.53154 0.23824 0.0
C474 C 0.35966 0.51883 0.23961 0.0
C475 C 0.3398 0.50652 0.2894 0.0
C476 C 0.42449 0.49833 0.47886 0.0
C477 C 0.39045 0.51193 0.36402 0.0
C478 C 0.44887 0.50193 0.52107 0.0
C479 C 0.46554 0.52228 0.49461 0.0
C480 C 0.41684 0.51475 0.40778 0.0
C481 C 0.45747 0.53782 0.42176 0.0
C482 C 0.38492 0.52179 0.27708 0.0
C483 C 0.34623 0.49707 0.37587 0.0
N484 N 0.43374 0.53383 0.38117 0.0
N485 N 0.37085 0.49983 0.40999 0.0
H486 H 0.05358 0.32782 0.41665 0.0
H487 H 0.98889 0.46953 0.40095 0.0
H488 H 0.01529 0.35445 0.17457 0.0
H489 H 0.05413 0.45351 0.57614 0.0
H490 H 0.99505 0.42668 0.32484 0.0
H491 H 0.05093 0.37217 0.48278 0.0
C492 C 0.04477 0.3431 0.37683 0.0
C493 C 0.0348 0.33724 0.28936 0.0
C494 C 1.00798 0.43241 0.38008 0.0
C495 C 0.03116 0.38852 0.36655 0.0
C496 C 1.00439 0.45685 0.42419 0.0
C497 C 0.02034 0.46484 0.49779 0.0
C498 C 0.02779 0.4155 0.40916 0.0
C499 C 0.04066 0.44783 0.52246 0.0
C500 C 0.04331 0.3685 0.41489 0.0
C501 C 0.02347 0.35797 0.24166 0.0
N502 N 0.04354 0.42389 0.4793 0.0
N503 N 0.02167 0.38255 0.28128 0.0
H504 H 0.82737 0.02043 0.09379 0.0
H505 H 0.97236 0.97729 0.93192 0.0
H506 H 0.86734 0.95253 0.19352 0.0
H507 H 0.92428 0.02967 0.7781 0.0
H508 H 0.93597 0.97154 0.03906 0.0
H509 H 0.86452 0.02811 0.98967 0.0
C510 C 0.84409 1.0074 0.09489 0.0
C511 C 0.84424 0.98585 0.15296 0.0
C512 C 0.9333 0.98422 0.9816 0.0
C513 C 0.88685 0.99443 0.03361 0.0
C514 C 0.95413 0.98748 0.92012 0.0
C515 C 0.95142 1.00364 0.84432 0.0
C516 C 0.90953 0.99762 0.96895 0.0
C517 C 0.92724 0.01653 0.83387 0.0
C518 C 0.86522 1.01164 0.03487 0.0
C519 C 0.86636 0.96941 0.1502 0.0
N520 N 0.9074 0.01336 0.89535 0.0
N521 N 0.88664 0.97404 0.09212 0.0
H522 H 0.58719 0.8779 0.20172 0.0
H523 H 0.50598 0.93086 0.77808 0.0
H524 H 0.51859 0.83852 0.09747 0.0
H525 H 0.56086 0.97873 0.92981 0.0
H526 H 0.51205 0.89581 0.88725 0.0
H527 H 0.57913 0.91405 0.0985 0.0
C528 C 0.57024 0.877 0.15755 0.0
C529 C 0.55348 0.85519 0.15867 0.0
C530 C 0.52283 0.91394 0.89662 0.0
C531 C 0.54439 0.89644 0.03816 0.0
C532 C 0.51962 0.93391 0.83349 0.0
C533 C 0.53324 0.95776 0.8435 0.0
C534 C 0.53998 0.91759 0.97047 0.0
C535 C 0.55002 0.96071 0.9188 0.0
C536 C 0.56568 0.89765 0.09845 0.0
C537 C 0.53189 0.85503 0.09956 0.0
N538 N 0.55304 0.94087 0.97879 0.0
N539 N 0.52811 0.87519 0.04114 0.0
H540 H 0.68472 0.51216 0.13256 0.0
H541 H 0.57616 0.55876 0.77319 0.0
H542 H 0.67742 0.59137 0.03969 0.0
H543 H 0.56695 0.4885 0.92744 0.0
H544 H 0.61692 0.5682 0.8554 0.0
H545 H 0.64508 0.50028 0.04452 0.0
C546 C 0.6749 0.52699 0.09358 0.0
C547 C 0.68443 0.55283 0.09374 0.0
C548 C 0.60612 0.55059 0.87101 0.0
C549 C 0.6393 0.53937 0.99216 0.0
C550 C 0.58293 0.54509 0.82337 0.0
C551 C 0.56837 0.52251 0.84207 0.0
C552 C 0.61501 0.53341 0.93813 0.0
C553 C 0.57775 0.50595 0.91008 0.0
C554 C 0.65224 0.52025 0.04349 0.0
C555 C 0.67079 0.57123 0.04188 0.0
N556 N 0.6005 0.5116 0.95513 0.0
N557 N 0.64917 0.56416 0.99326 0.0
H558 H 0.0252 0.69481 0.13377 0.0
H559 H 0.97512 0.58457 0.76953 0.0
H560 H 0.94486 0.68664 0.04945 0.0
H561 H 0.04739 0.57723 0.91684 0.0
H562 H 0.96599 0.62564 0.8555 0.0
H563 H 0.0362 0.65544 0.03968 0.0
C564 C 1.00992 0.68489 0.09541 0.0
C565 C 0.98402 0.69413 0.10007 0.0
C566 C 0.98403 0.61524 0.86828 0.0
C567 C 0.99649 0.64916 0.99113 0.0
C568 C 0.98933 0.59188 0.81847 0.0
C569 C 0.01244 0.57776 0.83397 0.0
C570 C 1.00197 0.62474 0.93421 0.0
C571 C 0.02961 0.58774 0.90121 0.0
C572 C 0.01617 0.66236 0.04174 0.0
C573 C 0.96508 0.68029 0.04848 0.0
N574 N 0.0242 0.61058 0.94797 0.0
N575 N 0.97165 0.65878 0.99643 0.0
H576 H 0.11549 0.20009 0.18781 0.0
H577 H 0.04618 0.17022 0.64025 0.0
H578 H 0.07588 0.2544 0.3715 0.0
H579 H 0.06243 0.11675 0.41479 0.0
H580 H 0.08146 0.19847 0.58758 0.0
H581 H 0.12118 0.17035 0.31427 0.0
C582 C 0.10863 0.20621 0.25484 0.0
C583 C 0.09334 0.22895 0.26686 0.0
C584 C 0.07791 0.18001 0.55186 0.0
C585 C 0.10037 0.19531 0.41175 0.0
C586 C 0.05753 0.16401 0.58118 0.0
C587 C 0.05004 0.142 0.52822 0.0
C588 C 0.09059 0.17393 0.46897 0.0
C589 C 0.0666 0.13406 0.45608 0.0
C590 C 0.1122 0.1893 0.32732 0.0
C591 C 0.08673 0.23661 0.35678 0.0
N592 N 0.08559 0.15044 0.42689 0.0
N593 N 0.08953 0.21944 0.42518 0.0
H594 H 0.33269 0.11776 0.18941 0.0
H595 H 0.42134 0.05895 0.41194 0.0
H596 H 0.28283 0.06495 0.33652 0.0
H597 H 0.36387 0.03472 0.60925 0.0
H598 H 0.39293 0.09377 0.3676 0.0
H599 H 0.36143 0.12079 0.32193 0.0
C600 C 0.32748 0.10722 0.25011 0.0
C601 C 0.30615 0.08985 0.24965 0.0
C602 C 0.38659 0.08165 0.42299 0.0
C603 C 0.33937 0.09238 0.39976 0.0
C604 C 0.4031 0.06144 0.44879 0.0
C605 C 0.39436 0.0427 0.51068 0.0
C606 C 0.36088 0.08263 0.45734 0.0
C607 C 0.37069 0.04765 0.55674 0.0
C608 C 0.344 0.10883 0.32572 0.0
C609 C 0.29952 0.07791 0.33191 0.0
N610 N 0.35431 0.06655 0.52671 0.0
N611 N 0.31652 0.07876 0.40259 0.0
H612 H 0.47977 0.29239 0.32207 0.0
H613 H 0.43294 0.43598 0.34552 0.0
H614 H 0.41854 0.32553 0.15907 0.0
H615 H 0.50295 0.40419 0.46479 0.0
H616 H 0.41388 0.39205 0.34229 0.0
H617 H 0.47291 0.32705 0.43635 0.0
C618 C 0.4641 0.30632 0.31194 0.0
C619 C 0.4505 0.30686 0.22908 0.0
C620 C 0.43308 0.3949 0.37197 0.0
C621 C 0.44326 0.34704 0.3579 0.0
C622 C 0.44409 0.41994 0.37305 0.0
C623 C 0.47023 0.42355 0.40004 0.0
C624 C 0.44843 0.37346 0.39761 0.0
C625 C 0.48309 0.40238 0.44016 0.0
C626 C 0.46029 0.32626 0.37715 0.0
C627 C 0.43021 0.32515 0.22049 0.0
N628 N 0.47236 0.37809 0.43521 0.0
N629 N 0.42777 0.34509 0.28267 0.0
H630 H 0.2131 0.4194 0.11293 0.0
H631 H 0.1276 0.49291 0.45098 0.0
H632 H 0.2407 0.46706 0.33889 0.0
H633 H 0.09796 0.43984 0.24202 0.0
H634 H 0.16769 0.46811 0.45399 0.0
H635 H 0.17334 0.41005 0.19865 0.0
C636 C 0.21134 0.42692 0.1823 0.0
C637 C 0.22948 0.44525 0.21686 0.0
C638 C 0.15227 0.46146 0.40862 0.0
C639 C 0.18391 0.43528 0.31413 0.0
C640 C 0.129 0.47565 0.40711 0.0
C641 C 0.10957 0.46947 0.34236 0.0
C642 C 0.15667 0.44159 0.34262 0.0
C643 C 0.11297 0.44647 0.28899 0.0
C644 C 0.18851 0.42172 0.23119 0.0
C645 C 0.22673 0.45363 0.30805 0.0
N646 N 0.13644 0.43393 0.28789 0.0
N647 N 0.20383 0.44941 0.35238 0.0
H648 H 0.91989 0.83879 0.12958 0.0
H649 H 0.9763 0.92654 0.90748 0.0
H650 H 0.96843 0.7882 0.96086 0.0
H651 H 0.99889 0.86942 0.70059 0.0
H652 H 0.94025 0.89929 0.94913 0.0
H653 H 0.91461 0.86784 1.00099 0.0
C654 C 0.92904 0.83351 0.06508 0.0
C655 C 0.946 0.8119 0.05793 0.0
C656 C 0.95232 0.89276 0.89244 0.0
C657 C 0.94105 0.84553 0.91208 0.0
C658 C 0.97322 0.90864 0.86804 0.0
C659 C 0.99186 0.89948 0.80438 0.0
C660 C 0.95066 0.86717 0.85519 0.0
C661 C 0.98606 0.87641 0.75471 0.0
C662 C 0.92615 0.85021 0.99161 0.0
C663 C 0.95597 0.80514 0.97129 0.0
N664 N 0.96653 0.86052 0.78349 0.0
N665 N 0.95402 0.82234 0.90262 0.0
H666 H 0.75467 0.97413 0.9868 0.0
H667 H 0.66722 1.01185 0.70714 0.0
H668 H 0.69702 0.92792 0.12686 0.0
H669 H 0.61599 0.9891 0.92601 0.0
H670 H 0.69685 0.97627 0.74621 0.0
H671 H 0.72748 0.97376 0.85409 0.0
C672 C 0.73674 0.96288 0.98896 0.0
C673 C 0.72752 0.95233 0.07071 0.0
C674 C 0.67899 0.97888 0.78511 0.0
C675 C 0.69536 0.95267 0.91757 0.0
C676 C 0.66201 0.99917 0.76257 0.0
C677 C 0.63989 1.0045 0.81689 0.0
C678 C 0.67403 0.96448 0.86401 0.0
C679 C 0.63326 0.98646 0.88404 0.0
C680 C 0.7209 0.96274 0.91191 0.0
C681 C 0.70423 0.93773 0.06714 0.0
N682 N 0.65067 0.96775 0.90743 0.0
N683 N 0.68843 0.93921 0.99313 0.0
H684 H 0.5626 0.75069 1.00337 0.0
H685 H 0.60543 0.60535 0.99056 0.0
H686 H 0.62015 0.716 0.17788 0.0
H687 H 0.5363 0.63879 0.87036 0.0
H688 H 0.62546 0.64881 0.99412 0.0
H689 H 0.56962 0.71526 0.89196 0.0
C690 C 0.57761 0.73627 0.01656 0.0
C691 C 0.58997 0.73554 0.10169 0.0
C692 C 0.60625 0.64639 0.96414 0.0
C693 C 0.59736 0.69456 0.97618 0.0
C694 C 0.59464 0.62161 0.96297 0.0
C695 C 0.56845 0.61858 0.93546 0.0
C696 C 0.59152 0.66816 0.93763 0.0
C697 C 0.55616 0.64007 0.89523 0.0
C698 C 0.58148 0.71589 0.95304 0.0
C699 C 0.60945 0.7166 0.11438 0.0
N700 N 0.56752 0.66407 0.89992 0.0
N701 N 0.61193 0.69628 0.05368 0.0
H702 H 0.8212 0.62548 0.20186 0.0
H703 H 0.90598 0.55076 0.86812 0.0
H704 H 0.79318 0.57432 0.98601 0.0
H705 H 0.93561 0.60831 0.06228 0.0
H706 H 0.86521 0.57427 0.86329 0.0
H707 H 0.85974 0.63524 0.11021 0.0
C708 C 0.82261 0.61723 0.13335 0.0
C709 C 0.80469 0.59811 0.10305 0.0
C710 C 0.88076 0.58219 0.90572 0.0
C711 C 0.849 0.60841 0.99933 0.0
C712 C 0.90444 0.56874 0.90818 0.0
C713 C 0.92406 0.57653 0.97017 0.0
C714 C 0.87618 0.6029 0.9683 0.0
C715 C 0.92045 0.60041 0.01826 0.0
C716 C 0.84472 0.62268 0.08106 0.0
C717 C 0.80699 0.58855 0.01315 0.0
N718 N 0.8966 0.6122 0.01908 0.0
N719 N 0.8293 0.59304 0.96558 0.0
H720 H 0.08022 0.20678 0.92702 0.0
H721 H 0.97345 0.09421 0.82137 0.0
H722 H 1.00141 0.20962 0.03097 0.0
H723 H 0.0515 0.092 0.71051 0.0
H724 H 0.98267 0.1373 0.89104 0.0
H725 H 0.06935 0.16681 0.83915 0.0
C726 C 0.06035 0.19941 0.92942 0.0
C727 C 0.04162 0.21207 0.98586 0.0
C728 C 0.9979 0.12748 0.85189 0.0
C729 C 0.02914 0.16524 0.88664 0.0
C730 C 0.99267 0.10272 0.81221 0.0
C731 C 0.012 0.08883 0.76263 0.0
C732 C 0.02265 0.13907 0.8412 0.0
C733 C 0.03628 0.1014 0.7509 0.0
C734 C 0.05424 0.17632 0.87979 0.0
C735 C 0.01638 0.20105 0.98734 0.0
N736 N 0.04094 0.12559 0.79034 0.0
N737 N 1.011 0.17828 0.93947 0.0
H738 H 0.32003 1.00762 0.96345 0.0
H739 H 0.44754 0.05733 0.68932 0.0
H740 H 0.33571 0.0891 0.91576 0.0
H741 H 0.43965 0.97981 0.79603 0.0
H742 H 0.40383 0.06838 0.75093 0.0
H743 H 0.36029 0.99596 0.87934 0.0
C744 C 0.33148 0.02301 0.93298 0.0
C745 C 0.32419 0.04938 0.94626 0.0
C746 C 0.41169 0.04897 0.76117 0.0
C747 C 0.37091 0.03623 0.8511 0.0
C748 C 0.43676 0.04275 0.72662 0.0
C749 C 0.44781 0.01794 0.74082 0.0
C750 C 0.39718 0.03006 0.80855 0.0
C751 C 0.43228 0.99941 0.78566 0.0
C752 C 0.35472 0.01639 0.88594 0.0
C753 C 0.34037 0.0685 0.90686 0.0
N754 N 0.40802 1.00586 0.81831 0.0
N755 N 0.36286 0.06161 0.86176 0.0
H756 H 0.5302 0.31704 0.94284 0.0
H757 H 0.46522 0.44113 0.7051 0.0
H758 H 0.44786 0.32488 0.88832 0.0
H759 H 0.54869 0.43291 0.73537 0.0
H760 H 0.45945 0.39667 0.75956 0.0
H761 H 0.53852 0.35656 0.85349 0.0
C762 C 0.51399 0.32651 0.90941 0.0
C763 C 0.4883 0.31743 0.92251 0.0
C764 C 0.47911 0.40438 0.75369 0.0
C765 C 0.49753 0.36325 0.82253 0.0
C766 C 0.48243 0.42992 0.72259 0.0
C767 C 0.5075 0.44108 0.71627 0.0
C768 C 0.50098 0.38959 0.77981 0.0
C769 C 0.52899 0.42527 0.73905 0.0
C770 C 0.51869 0.34931 0.85937 0.0
C771 C 0.46798 0.33101 0.87956 0.0
N772 N 0.52524 0.40052 0.77077 0.0
N773 N 0.47298 0.35323 0.83271 0.0
H774 H 0.23269 0.4857 0.85229 0.0
H775 H 0.08267 0.51958 0.9032 0.0
H776 H 0.20184 0.52978 0.08161 0.0
H777 H 0.11682 0.51477 0.63441 0.0
H778 H 0.12648 0.51975 0.96917 0.0
H779 H 0.19187 0.49404 0.76828 0.0
C780 C 0.21784 0.49816 0.88339 0.0
C781 C 0.2211 0.50774 0.9733 0.0
C782 C 0.12451 0.51875 0.89571 0.0
C783 C 0.17358 0.51589 0.8798 0.0
C784 C 0.09941 0.5184 0.85781 0.0
C785 C 0.09589 0.51694 0.76286 0.0
C786 C 0.14666 0.51706 0.8389 0.0
C787 C 0.11854 0.51589 0.70791 0.0
C788 C 0.19436 0.50257 0.83591 0.0
C789 C 0.20056 0.52267 0.01168 0.0
N790 N 0.14292 0.5156 0.74666 0.0
N791 N 0.17765 0.52584 0.96568 0.0
H792 H 0.03256 0.82634 0.32567 0.0
H793 H 0.97984 0.95156 0.62224 0.0
H794 H 0.95136 0.83847 0.39315 0.0
H795 H 0.05954 0.94281 0.53075 0.0
H796 H 0.96952 0.9085 0.55129 0.0
H797 H 0.04357 0.86635 0.41482 0.0
C798 C 0.01713 0.83691 0.36139 0.0
C799 C 0.991 0.82863 0.35233 0.0
C800 C 0.98927 0.91601 0.54639 0.0
C801 C 1.00337 0.87526 0.45322 0.0
C802 C 0.9951 0.94076 0.5864 0.0
C803 C 0.02042 0.95139 0.57993 0.0
C804 C 1.00896 0.90138 0.50053 0.0
C805 C 0.03961 0.93579 0.53584 0.0
C806 C 0.02336 0.86006 0.41142 0.0
C807 C 0.97181 0.84383 0.39857 0.0
N808 N 0.0335 0.9119 0.49758 0.0
N809 N 0.9783 0.86625 0.44609 0.0
H810 H 0.71251 0.0356 0.35583 0.0
H811 H 0.58614 0.98509 0.63495 0.0
H812 H 0.69696 0.95407 0.40311 0.0
H813 H 0.59419 0.06349 0.53603 0.0
H814 H 0.62944 0.97421 0.56966 0.0
H815 H 0.67262 0.04719 0.44248 0.0
C816 C 0.70115 0.02018 0.38653 0.0
C817 C 0.70834 0.99381 0.37252 0.0
C818 C 0.62171 0.99379 0.56194 0.0
C819 C 0.66212 1.00688 0.47071 0.0
C820 C 0.59687 0.99992 0.59866 0.0
C821 C 0.58598 0.02495 0.58774 0.0
C822 C 0.63614 0.01297 0.51554 0.0
C823 C 0.60145 0.04374 0.54392 0.0
C824 C 0.67813 0.02676 0.43512 0.0
C825 C 0.69232 0.97466 0.41243 0.0
N826 N 0.62547 0.03736 0.50902 0.0
N827 N 0.67008 0.98151 0.45902 0.0
H828 H 0.58558 0.72113 0.44743 0.0
H829 H 0.48354 0.60875 0.5854 0.0
H830 H 0.50507 0.72165 0.36212 0.0
H831 H 0.56682 0.60474 0.62865 0.0
H832 H 0.48896 0.65309 0.52598 0.0
H833 H 0.57679 0.68244 0.53811 0.0
C834 C 0.5658 0.71354 0.45014 0.0
C835 C 0.54597 0.72491 0.39791 0.0
C836 C 0.506 0.6426 0.5493 0.0
C837 C 0.53583 0.67971 0.49974 0.0
C838 C 0.5029 0.61727 0.58385 0.0
C839 C 0.52476 0.60274 0.61167 0.0
C840 C 0.53114 0.65372 0.5433 0.0
C841 C 0.5494 0.61494 0.60713 0.0
C842 C 0.56084 0.6912 0.50112 0.0
C843 C 0.52082 0.71383 0.40253 0.0
N844 N 0.55189 0.63951 0.57344 0.0
N845 N 0.51652 0.69172 0.45161 0.0
H846 H 0.83047 0.51428 0.25 0.0
H847 H 0.91801 0.5321 0.70109 0.0
H848 H 0.80366 0.56262 0.47534 0.0
H849 H 0.94952 0.52201 0.42985 0.0
H850 H 0.87351 0.53374 0.63532 0.0
H851 H 0.87107 0.50573 0.33288 0.0
C852 C 0.8326 0.5221 0.31882 0.0
C853 C 0.81323 0.53862 0.35658 0.0
C854 C 0.89022 0.53107 0.59053 0.0
C855 C 0.86035 0.52965 0.45125 0.0
C856 C 0.9156 0.53009 0.62797 0.0
C857 C 0.93765 0.52718 0.57096 0.0
C858 C 0.88678 0.52826 0.49559 0.0
C859 C 0.93324 0.52464 0.47658 0.0
C860 C 0.85603 0.51763 0.36548 0.0
C861 C 0.81769 0.54918 0.44467 0.0
N862 N 0.90849 0.52506 0.44224 0.0
N863 N 0.84078 0.54463 0.48885 0.0
loop_
_geom_bond_atom_site_label_1
_geom_bond_atom_site_label_2
_geom_bond_distance
_geom_bond_site_symmetry_2
_ccdc_geom_bond_type
H0 C5 0.930 . S
H1 C8 0.930 . S
H2 C10 0.930 . S
H3 C4 1.016 . S
C4 H3 1.016 . S
C4 N11 1.286 . S
C5 H0 0.930 . S
C5 C6 1.397 . S
C5 C7 1.361 . S
C6 C5 1.397 . S
C6 C10 1.390 . S
C7 C5 1.361 . S
C7 C8 1.393 . S
C7 N11 1.413 . S
C8 H1 0.930 . S
C8 C7 1.393 . S
C8 C9 1.399 . S
C9 C8 1.399 . S
C9 C10 1.381 . S
C10 H2 0.930 . S
C10 C6 1.390 . S
C10 C9 1.381 . S
N11 C4 1.286 . S
N11 C7 1.413 . S
H12 C17 0.930 . S
H13 C20 0.930 . S
H14 C22 0.930 . S
H15 C16 1.016 . S
C16 H15 1.016 . S
C16 N23 1.286 . S
C17 H12 0.930 . S
C17 C18 1.397 . S
C17 C19 1.361 . S
C18 C17 1.397 . S
C18 C22 1.390 . S
C19 C17 1.361 . S
C19 C20 1.393 . S
C19 N23 1.413 . S
C20 H13 0.930 . S
C20 C19 1.393 . S
C20 C21 1.399 . S
C21 C20 1.399 . S
C21 C22 1.381 . S
C22 H14 0.930 . S
C22 C18 1.390 . S
C22 C21 1.381 . S
N23 C16 1.286 . S
N23 C19 1.413 . S
H24 C29 0.930 . S
H25 C32 0.930 . S
H26 C34 0.930 . S
H27 C28 1.016 . S
C28 H27 1.016 . S
C28 N35 1.286 . S
C29 H24 0.930 . S
C29 C30 1.397 . S
C29 C31 1.361 . S
C30 C29 1.397 . S
C30 C34 1.390 . S
C31 C29 1.361 . S
C31 C32 1.393 . S
C31 N35 1.413 . S
C32 H25 0.930 . S
C32 C31 1.393 . S
C32 C33 1.399 . S
C33 C32 1.399 . S
C33 C34 1.381 . S
C34 H26 0.930 . S
C34 C30 1.390 . S
C34 C33 1.381 . S
N35 C28 1.286 . S
N35 C31 1.413 . S
H36 C41 0.930 . S
H37 C44 0.930 . S
H38 C46 0.930 . S
H39 C40 1.016 . S
C40 H39 1.016 . S
C40 N47 1.286 . S
C41 H36 0.930 . S
C41 C42 1.397 . S
C41 C43 1.361 . S
C42 C41 1.397 . S
C42 C46 1.390 . S
C43 C41 1.361 . S
C43 C44 1.393 . S
C43 N47 1.413 . S
C44 H37 0.930 . S
C44 C43 1.393 . S
C44 C45 1.399 . S
C45 C44 1.399 . S
C45 C46 1.381 . S
C46 H38 0.930 . S
C46 C42 1.390 . S
C46 C45 1.381 . S
N47 C40 1.286 . S
N47 C43 1.413 . S
H48 C53 0.930 . S
H49 C56 0.930 . S
H50 C58 0.930 . S
H51 C52 1.016 . S
C52 H51 1.016 . S
C52 N59 1.286 . S
C53 H48 0.930 . S
C53 C54 1.397 . S
C53 C55 1.361 1_556 S
C54 C53 1.397 . S
C54 C58 1.390 . S
C55 C53 1.361 1_554 S
C55 C56 1.393 . S
C55 N59 1.413 . S
C56 H49 0.930 . S
C56 C55 1.393 . S
C56 C57 1.399 . S
C57 C56 1.399 . S
C57 C58 1.381 1_554 S
C58 H50 0.930 . S
C58 C54 1.390 . S
C58 C57 1.381 1_556 S
N59 C52 1.286 . S
N59 C55 1.413 . S
H60 C65 0.930 . S
H61 C68 0.930 . S
H62 C70 0.930 . S
H63 C64 1.016 . S
C64 H63 1.016 . S
C64 N71 1.286 . S
C65 H60 0.930 . S
C65 C66 1.397 . S
C65 C67 1.361 1_556 S
C66 C65 1.397 . S
C66 C70 1.390 . S
C67 C65 1.361 1_554 S
C67 C68 1.393 . S
C67 N71 1.413 . S
C68 H61 0.930 . S
C68 C67 1.393 . S
C68 C69 1.399 . S
C69 C68 1.399 . S
C69 C70 1.381 1_554 S
C70 H62 0.930 . S
C70 C66 1.390 . S
C70 C69 1.381 1_556 S
N71 C64 1.286 . S
N71 C67 1.413 . S
H72 C77 0.930 . S
H73 C80 0.930 . S
H74 C82 0.930 . S
H75 C76 1.016 . S
C76 H75 1.016 . S
C76 N83 1.286 . S
C77 H72 0.930 . S
C77 C78 1.397 . S
C77 C79 1.363 . S
C78 C77 1.397 . S
C78 C82 1.390 . S
C79 C77 1.363 . S
C79 C80 1.392 1_556 S
C79 N83 1.413 1_556 S
C80 H73 0.930 . S
C80 C79 1.392 1_554 S
C80 C81 1.399 . S
C81 C80 1.399 . S
C81 C82 1.381 1_554 S
C82 H74 0.930 . S
C82 C78 1.390 . S
C82 C81 1.381 1_556 S
N83 C76 1.286 . S
N83 C79 1.413 1_554 S
H84 C89 0.930 . S
H85 C92 0.930 . S
H86 C94 0.930 . S
H87 C88 1.016 . S
C88 H87 1.016 . S
C88 N95 1.286 . S
C89 H84 0.930 . S
C89 C90 1.397 . S
C89 C91 1.361 1_556 S
C90 C89 1.397 . S
C90 C94 1.390 . S
C91 C89 1.361 1_554 S
C91 C92 1.393 . S
C91 N95 1.413 . S
C92 H85 0.930 . S
C92 C91 1.393 . S
C92 C93 1.399 . S
C93 C92 1.399 . S
C93 C94 1.381 1_554 S
C94 H86 0.930 . S
C94 C90 1.390 . S
C94 C93 1.381 1_556 S
N95 C88 1.286 . S
N95 C91 1.413 . S
Eu96 N127 2.657 1_565 S
Eu96 N134 2.609 1_565 S
Eu96 O140 2.558 . S
Eu96 O141 2.612 1_455 S
Eu96 O143 2.339 1_455 S
Eu96 O144 2.563 . S
Eu96 O145 2.419 . S
Eu96 O147 2.380 1_565 S
Eu96 O148 2.432 . S
Eu96 C160 2.848 . S
C97 C100 1.429 1_545 S
C97 C101 1.407 1_545 S
C97 N104 1.377 . S
C98 C100 1.420 . S
C98 C102 1.423 . S
C98 C110 1.392 . S
C99 C101 1.438 . S
C99 C102 1.351 . S
C99 H122 0.931 . S
C100 C97 1.429 1_565 S
C100 C98 1.420 . S
C100 N108 1.371 . S
C101 C97 1.407 1_565 S
C101 C99 1.438 . S
C101 C106 1.383 1_565 S
C102 C98 1.423 . S
C102 C99 1.351 . S
C102 H114 0.930 . S
C103 C105 1.400 . S
C103 C106 1.386 . S
C103 H115 0.930 . S
N104 C97 1.377 . S
N104 C105 1.321 . S
N104 Eu107 2.609 . S
C105 C103 1.400 . S
C105 N104 1.321 . S
C105 H112 0.930 . S
C106 C101 1.383 1_545 S
C106 C103 1.386 . S
C106 H125 0.930 . S
Eu107 N104 2.609 . S
Eu107 N108 2.634 1_545 S
Eu107 O141 2.380 1_545 S
Eu107 O142 2.432 . S
Eu107 O146 2.558 . S
Eu107 O147 2.612 1_655 S
Eu107 O149 2.339 1_655 S
Eu107 O150 2.563 1_655 S
Eu107 O151 2.419 . S
Eu107 C171 2.848 . S
N108 C100 1.371 . S
N108 Eu107 2.634 1_565 S
N108 C109 1.350 1_655 S
C109 N108 1.350 1_455 S
C109 C111 1.413 . S
C109 H116 0.929 . S
C110 C98 1.392 . S
C110 C111 1.367 1_655 S
C110 H118 0.930 . S
C111 C109 1.413 . S
C111 C110 1.367 1_455 S
C111 H113 0.930 . S
H112 C105 0.930 . S
H113 C111 0.930 . S
H114 C102 0.930 . S
H115 C103 0.930 . S
H116 C109 0.929 . S
H117 C131 0.930 1_655 S
H118 C110 0.930 . S
H119 C137 0.930 . S
H120 C128 0.929 1_655 S
H121 C135 0.930 . S
H122 C99 0.931 . S
H123 C129 0.930 . S
H124 C162 0.930 . S
H125 C106 0.930 . S
H126 C161 0.931 . S
N127 Eu96 2.657 1_545 S
N127 C128 1.334 . S
N127 C132 1.362 . S
C128 H120 0.929 1_455 S
C128 N127 1.334 . S
C128 C131 1.413 1_556 S
C129 H123 0.930 . S
C129 C130 1.392 . S
C129 C131 1.367 . S
C130 C129 1.392 . S
C130 C132 1.420 1_554 S
C130 C162 1.423 . S
C131 H117 0.930 1_455 S
C131 C128 1.413 1_554 S
C131 C129 1.367 . S
C132 N127 1.362 . S
C132 C130 1.420 1_556 S
C132 C136 1.429 . S
H133 C138 0.930 . S
N134 Eu96 2.609 1_545 S
N134 C136 1.377 . S
N134 C137 1.321 1_545 S
C135 H121 0.930 . S
C135 C137 1.400 . S
C135 C138 1.386 1_565 S
C136 C132 1.429 . S
C136 N134 1.377 . S
C136 C139 1.411 . S
C137 H119 0.930 . S
C137 N134 1.321 1_565 S
C137 C135 1.400 . S
C138 H133 0.930 . S
C138 C135 1.386 1_545 S
C138 C139 1.395 . S
C139 C136 1.411 . S
C139 C138 1.395 . S
C139 C161 1.420 1_556 S
O140 Eu96 2.558 . S
O140 C160 1.257 . S
O141 Eu96 2.612 1_655 S
O141 Eu107 2.380 1_565 S
O141 C152 1.276 . S
O142 Eu107 2.432 . S
O142 C159 1.264 . S
O143 Eu96 2.339 1_655 S
O143 C159 1.254 1_565 S
O144 Eu96 2.563 . S
O144 C152 1.235 1_455 S
O145 Eu96 2.419 . S
O145 C160 1.249 . S
O146 Eu107 2.558 . S
O146 C171 1.257 . S
O147 Eu96 2.380 1_545 S
O147 Eu107 2.612 1_455 S
O147 C163 1.276 . S
O148 Eu96 2.432 . S
O148 C170 1.264 1_565 S
O149 Eu107 2.339 1_455 S
O149 C170 1.254 . S
O150 Eu107 2.563 1_455 S
O150 C163 1.235 . S
O151 Eu107 2.419 . S
O151 C171 1.249 . S
C152 O141 1.276 . S
C152 O144 1.235 1_655 S
C153 C155 1.393 . S
C153 C157 1.395 . S
C153 C160 1.492 . S
C154 C155 1.392 . S
C154 C156 1.386 1_556 S
C155 C153 1.393 . S
C155 C154 1.392 . S
C155 H172 0.972 . S
C156 C154 1.386 1_554 S
C156 C158 1.395 1_554 S
C156 H173 0.930 . S
C157 C153 1.395 . S
C157 C158 1.379 . S
C157 H174 0.930 . S
C158 C156 1.395 1_556 S
C158 C157 1.379 . S
C158 H175 0.930 . S
C159 O142 1.264 . S
C159 O143 1.254 1_545 S
C160 Eu96 2.848 . S
C160 O140 1.257 . S
C160 O145 1.249 . S
C160 C153 1.492 . S
C161 H126 0.931 . S
C161 C139 1.420 1_554 S
C161 C162 1.351 . S
C162 H124 0.930 . S
C162 C130 1.423 . S
C162 C161 1.351 . S
C163 O147 1.276 . S
C163 O150 1.235 . S
C164 C165 1.393 . S
C164 C168 1.395 . S
C164 C171 1.492 . S
C165 C164 1.393 . S
C165 C166 1.392 . S
C165 H176 0.930 1_655 S
C166 C165 1.392 . S
C166 C167 1.386 . S
C167 C166 1.386 . S
C167 C169 1.395 . S
C167 H177 0.930 . S
C168 C164 1.395 . S
C168 C169 1.379 . S
C168 H178 0.930 . S
C169 C167 1.395 . S
C169 C168 1.379 . S
C169 H179 0.930 . S
C170 O148 1.264 1_545 S
C170 O149 1.254 . S
C171 Eu107 2.848 . S
C171 O146 1.257 . S
C171 O151 1.249 . S
C171 C164 1.492 . S
H172 C155 0.972 . S
H173 C156 0.930 . S
H174 C157 0.930 . S
H175 C158 0.930 . S
H176 C165 0.930 1_455 S
H177 C167 0.930 . S
H178 C168 0.930 . S
H179 C169 0.930 . S
Eu180 N211 2.657 . S
Eu180 N218 2.609 . S
Eu180 O224 2.558 . S
Eu180 O225 2.612 1_545 S
Eu180 O227 2.339 1_545 S
Eu180 O228 2.563 . S
Eu180 O229 2.419 . S
Eu180 O231 2.380 . S
Eu180 O232 2.432 . S
Eu180 C244 2.848 . S
C181 C184 1.429 . S
C181 C185 1.411 . S
C181 N188 1.377 . S
C182 C184 1.420 . S
C182 C186 1.423 . S
C182 C194 1.392 . S
C183 C185 1.420 . S
C183 C186 1.351 . S
C183 H206 0.931 . S
C184 C181 1.429 . S
C184 C182 1.420 . S
C184 N192 1.362 . S
C185 C181 1.411 . S
C185 C183 1.420 . S
C185 C190 1.395 . S
C186 C182 1.423 . S
C186 C183 1.351 . S
C186 H198 0.930 . S
C187 C189 1.400 . S
C187 C190 1.386 . S
C187 H199 0.930 . S
N188 C181 1.377 . S
N188 C189 1.321 . S
N188 Eu191 2.609 . S
C189 C187 1.400 . S
C189 N188 1.321 . S
C189 H196 0.930 . S
C190 C185 1.395 . S
C190 C187 1.386 . S
C190 H209 0.930 . S
Eu191 N188 2.609 . S
Eu191 N192 2.657 . S
Eu191 O225 2.380 . S
Eu191 O226 2.432 . S
Eu191 O230 2.558 . S
Eu191 O231 2.612 1_565 S
Eu191 O233 2.339 1_565 S
Eu191 O234 2.563 1_565 S
Eu191 O235 2.419 . S
Eu191 C255 2.848 . S
N192 C184 1.362 . S
N192 Eu191 2.657 . S
N192 C193 1.334 1_565 S
C193 N192 1.334 1_545 S
C193 C195 1.413 . S
C193 H200 0.929 . S
C194 C182 1.392 . S
C194 C195 1.367 1_565 S
C194 H202 0.930 . S
C195 C193 1.413 . S
C195 C194 1.367 1_545 S
C195 H197 0.930 . S
H196 C189 0.930 . S
H197 C195 0.930 . S
H198 C186 0.930 . S
H199 C187 0.930 . S
H200 C193 0.929 . S
H201 C215 0.930 1_565 S
H202 C194 0.930 . S
H203 C221 0.930 . S
H204 C212 0.929 1_565 S
H205 C219 0.930 . S
H206 C183 0.931 . S
H207 C213 0.930 . S
H208 C246 0.930 . S
H209 C190 0.930 . S
H210 C245 0.931 . S
N211 Eu180 2.657 . S
N211 C212 1.334 . S
N211 C216 1.362 . S
C212 H204 0.929 1_545 S
C212 N211 1.334 . S
C212 C215 1.413 1_556 S
C213 H207 0.930 . S
C213 C214 1.392 . S
C213 C215 1.367 . S
C214 C213 1.392 . S
C214 C216 1.420 1_554 S
C214 C246 1.423 . S
C215 H201 0.930 1_545 S
C215 C212 1.413 1_554 S
C215 C213 1.367 . S
C216 N211 1.362 . S
C216 C214 1.420 1_556 S
C216 C220 1.429 . S
H217 C222 0.930 . S
N218 Eu180 2.609 . S
N218 C220 1.377 . S
N218 C221 1.321 . S
C219 H205 0.930 . S
C219 C221 1.400 . S
C219 C222 1.386 . S
C220 C216 1.429 . S
C220 N218 1.377 . S
C220 C223 1.411 . S
C221 H203 0.930 . S
C221 N218 1.321 . S
C221 C219 1.400 . S
C222 H217 0.930 . S
C222 C219 1.386 . S
C222 C223 1.395 . S
C223 C220 1.411 . S
C223 C222 1.395 . S
C223 C245 1.420 1_556 S
O224 Eu180 2.558 . S
O224 C244 1.257 . S
O225 Eu180 2.612 1_565 S
O225 Eu191 2.380 . S
O225 C236 1.276 . S
O226 Eu191 2.432 . S
O226 C243 1.264 . S
O227 Eu180 2.339 1_565 S
O227 C243 1.254 . S
O228 Eu180 2.563 . S
O228 C236 1.235 1_545 S
O229 Eu180 2.419 . S
O229 C244 1.249 . S
O230 Eu191 2.558 . S
O230 C255 1.257 . S
O231 Eu180 2.380 . S
O231 Eu191 2.612 1_545 S
O231 C247 1.276 . S
O232 Eu180 2.432 . S
O232 C254 1.264 . S
O233 Eu191 2.339 1_545 S
O233 C254 1.254 . S
O234 Eu191 2.563 1_545 S
O234 C247 1.235 . S
O235 Eu191 2.419 . S
O235 C255 1.249 . S
C236 O225 1.276 . S
C236 O228 1.235 1_565 S
C237 C239 1.393 . S
C237 C241 1.395 . S
C237 C244 1.492 . S
C238 C239 1.392 . S
C238 C240 1.386 1_556 S
C239 C237 1.393 . S
C239 C238 1.392 . S
C239 H256 0.930 . S
C240 C238 1.386 1_554 S
C240 C242 1.395 1_554 S
C240 H257 0.930 . S
C241 C237 1.395 . S
C241 C242 1.379 . S
C241 H258 0.930 . S
C242 C240 1.395 1_556 S
C242 C241 1.379 . S
C242 H259 0.930 . S
C243 O226 1.264 . S
C243 O227 1.254 . S
C244 Eu180 2.848 . S
C244 O224 1.257 . S
C244 O229 1.249 . S
C244 C237 1.492 . S
C245 H210 0.931 . S
C245 C223 1.420 1_554 S
C245 C246 1.351 . S
C246 H208 0.930 . S
C246 C214 1.423 . S
C246 C245 1.351 . S
C247 O231 1.276 . S
C247 O234 1.235 . S
C248 C249 1.393 . S
C248 C252 1.395 . S
C248 C255 1.492 . S
C249 C248 1.393 . S
C249 C250 1.392 . S
C249 H260 0.930 1_565 S
C250 C249 1.392 . S
C250 C251 1.386 . S
C251 C250 1.386 . S
C251 C253 1.395 . S
C251 H261 0.930 . S
C252 C248 1.395 . S
C252 C253 1.379 . S
C252 H262 0.930 . S
C253 C251 1.395 . S
C253 C252 1.379 . S
C253 H263 0.930 . S
C254 O232 1.264 . S
C254 O233 1.254 . S
C255 Eu191 2.848 . S
C255 O230 1.257 . S
C255 O235 1.249 . S
C255 C248 1.492 . S
H256 C239 0.930 . S
H257 C240 0.930 . S
H258 C241 0.930 . S
H259 C242 0.930 . S
H260 C249 0.930 1_545 S
H261 C251 0.930 . S
H262 C252 0.930 . S
H263 C253 0.930 . S
Eu264 N295 2.657 . S
Eu264 N302 2.609 . S
Eu264 O308 2.558 . S
Eu264 O309 2.612 . S
Eu264 O311 2.339 . S
Eu264 O312 2.563 . S
Eu264 O313 2.419 . S
Eu264 O315 2.380 . S
Eu264 O316 2.432 . S
Eu264 C328 2.848 . S
C265 C268 1.429 . S
C265 C269 1.411 . S
C265 N272 1.377 . S
C266 C268 1.420 . S
C266 C270 1.423 . S
C266 C278 1.392 . S
C267 C269 1.420 . S
C267 C270 1.351 . S
C267 H290 0.931 . S
C268 C265 1.429 . S
C268 C266 1.420 . S
C268 N276 1.362 . S
C269 C265 1.411 . S
C269 C267 1.420 . S
C269 C274 1.395 . S
C270 C266 1.423 . S
C270 C267 1.351 . S
C270 H282 0.930 . S
C271 C273 1.400 . S
C271 C274 1.386 . S
C271 H283 0.930 . S
N272 C265 1.377 . S
N272 C273 1.321 . S
N272 Eu275 2.609 . S
C273 C271 1.400 . S
C273 N272 1.321 . S
C273 H280 0.930 . S
C274 C269 1.395 . S
C274 C271 1.386 . S
C274 H293 0.930 . S
Eu275 N272 2.609 . S
Eu275 N276 2.657 . S
Eu275 O309 2.380 . S
Eu275 O310 2.432 . S
Eu275 O314 2.558 . S
Eu275 O315 2.612 . S
Eu275 O317 2.339 . S
Eu275 O318 2.563 . S
Eu275 O319 2.419 . S
Eu275 C339 2.848 . S
N276 C268 1.362 . S
N276 Eu275 2.657 . S
N276 C277 1.334 . S
C277 N276 1.334 . S
C277 C279 1.413 . S
C277 H284 0.929 . S
C278 C266 1.392 . S
C278 C279 1.367 . S
C278 H286 0.930 . S
C279 C277 1.413 . S
C279 C278 1.367 . S
C279 H281 0.930 . S
H280 C273 0.930 . S
H281 C279 0.930 . S
H282 C270 0.930 . S
H283 C271 0.930 . S
H284 C277 0.929 . S
H285 C299 0.930 . S
H286 C278 0.930 . S
H287 C305 0.930 . S
H288 C296 0.929 . S
H289 C303 0.930 . S
H290 C267 0.931 . S
H291 C297 0.930 . S
H292 C330 0.930 . S
H293 C274 0.930 . S
H294 C329 0.931 . S
N295 Eu264 2.657 . S
N295 C296 1.334 . S
N295 C300 1.362 . S
C296 H288 0.929 . S
C296 N295 1.334 . S
C296 C299 1.413 . S
C297 H291 0.930 . S
C297 C298 1.392 . S
C297 C299 1.367 . S
C298 C297 1.392 . S
C298 C300 1.420 . S
C298 C330 1.423 . S
C299 H285 0.930 . S
C299 C296 1.413 . S
C299 C297 1.367 . S
C300 N295 1.362 . S
C300 C298 1.420 . S
C300 C304 1.429 . S
H301 C306 0.930 . S
N302 Eu264 2.609 . S
N302 C304 1.377 . S
N302 C305 1.321 . S
C303 H289 0.930 . S
C303 C305 1.400 . S
C303 C306 1.386 . S
C304 C300 1.429 . S
C304 N302 1.377 . S
C304 C307 1.411 . S
C305 H287 0.930 . S
C305 N302 1.321 . S
C305 C303 1.400 . S
C306 H301 0.930 . S
C306 C303 1.386 . S
C306 C307 1.395 . S
C307 C304 1.411 . S
C307 C306 1.395 . S
C307 C329 1.420 . S
O308 Eu264 2.558 . S
O308 C328 1.257 . S
O309 Eu264 2.612 . S
O309 Eu275 2.380 . S
O309 C320 1.276 . S
O310 Eu275 2.432 . S
O310 C327 1.264 . S
O311 Eu264 2.339 . S
O311 C327 1.254 . S
O312 Eu264 2.563 . S
O312 C320 1.235 . S
O313 Eu264 2.419 . S
O313 C328 1.249 . S
O314 Eu275 2.558 . S
O314 C339 1.257 . S
O315 Eu264 2.380 . S
O315 Eu275 2.612 . S
O315 C331 1.276 . S
O316 Eu264 2.432 . S
O316 C338 1.264 . S
O317 Eu275 2.339 . S
O317 C338 1.254 . S
O318 Eu275 2.563 . S
O318 C331 1.235 . S
O319 Eu275 2.419 . S
O319 C339 1.249 . S
C320 O309 1.276 . S
C320 O312 1.235 . S
C321 C323 1.393 . S
C321 C325 1.395 . S
C321 C328 1.492 . S
C322 C323 1.392 . S
C322 C324 1.386 . S
C323 C321 1.393 . S
C323 C322 1.392 . S
C323 H340 0.930 . S
C324 C322 1.386 . S
C324 C326 1.395 . S
C324 H341 0.930 . S
C325 C321 1.395 . S
C325 C326 1.379 . S
C325 H342 0.930 . S
C326 C324 1.395 . S
C326 C325 1.379 . S
C326 H343 0.930 . S
C327 O310 1.264 . S
C327 O311 1.254 . S
C328 Eu264 2.848 . S
C328 O308 1.257 . S
C328 O313 1.249 . S
C328 C321 1.492 . S
C329 H294 0.931 . S
C329 C307 1.420 . S
C329 C330 1.351 . S
C330 H292 0.930 . S
C330 C298 1.423 . S
C330 C329 1.351 . S
C331 O315 1.276 . S
C331 O318 1.235 . S
C332 C333 1.393 . S
C332 C336 1.395 1_556 S
C332 C339 1.492 . S
C333 C332 1.393 . S
C333 C334 1.392 1_556 S
C333 H344 0.930 . S
C334 C333 1.392 1_554 S
C334 C335 1.386 . S
C335 C334 1.386 . S
C335 C337 1.395 . S
C335 H345 0.930 . S
C336 C332 1.395 1_554 S
C336 C337 1.379 . S
C336 H346 0.930 . S
C337 C335 1.395 . S
C337 C336 1.379 . S
C337 H347 0.930 . S
C338 O316 1.264 . S
C338 O317 1.254 . S
C339 Eu275 2.848 . S
C339 O314 1.257 . S
C339 O319 1.249 . S
C339 C332 1.492 . S
H340 C323 0.930 . S
H341 C324 0.930 . S
H342 C325 0.930 . S
H343 C326 0.930 . S
H344 C333 0.930 . S
H345 C335 0.930 . S
H346 C336 0.930 . S
H347 C337 0.930 . S
Eu348 N379 2.657 . S
Eu348 N386 2.609 . S
Eu348 O392 2.558 . S
Eu348 O393 2.612 . S
Eu348 O395 2.339 . S
Eu348 O396 2.563 . S
Eu348 O397 2.419 . S
Eu348 O399 2.380 . S
Eu348 O400 2.432 1_455 S
Eu348 C412 2.848 . S
C349 C352 1.429 . S
C349 C353 1.411 . S
C349 N356 1.377 . S
C350 C352 1.420 . S
C350 C354 1.423 . S
C350 C362 1.392 . S
C351 C353 1.420 . S
C351 C354 1.351 . S
C351 H374 0.931 . S
C352 C349 1.429 . S
C352 C350 1.420 . S
C352 N360 1.362 . S
C353 C349 1.411 . S
C353 C351 1.420 . S
C353 C358 1.395 1_655 S
C354 C350 1.423 . S
C354 C351 1.351 . S
C354 H366 0.930 . S
C355 C357 1.400 . S
C355 C358 1.386 . S
C355 H367 0.930 . S
N356 C349 1.377 . S
N356 C357 1.321 1_655 S
N356 Eu359 2.609 . S
C357 C355 1.400 . S
C357 N356 1.321 1_455 S
C357 H364 0.930 . S
C358 C353 1.395 1_455 S
C358 C355 1.386 . S
C358 H377 0.930 . S
Eu359 N356 2.609 . S
Eu359 N360 2.657 . S
Eu359 O393 2.380 1_655 S
Eu359 O394 2.432 1_655 S
Eu359 O398 2.558 . S
Eu359 O399 2.612 1_655 S
Eu359 O401 2.339 . S
Eu359 O402 2.563 . S
Eu359 O403 2.419 . S
Eu359 C423 2.848 . S
N360 C352 1.362 . S
N360 Eu359 2.657 . S
N360 C361 1.334 . S
C361 N360 1.334 . S
C361 C363 1.413 . S
C361 H368 0.929 . S
C362 C350 1.392 . S
C362 C363 1.367 . S
C362 H370 0.930 . S
C363 C361 1.413 . S
C363 C362 1.367 . S
C363 H365 0.930 . S
H364 C357 0.930 . S
H365 C363 0.930 . S
H366 C354 0.930 . S
H367 C355 0.930 . S
H368 C361 0.929 . S
H369 C383 0.930 . S
H370 C362 0.930 . S
H371 C389 0.926 1_655 S
H372 C380 0.929 . S
H373 C387 0.930 . S
H374 C351 0.931 . S
H375 C381 0.930 . S
H376 C414 0.930 . S
H377 C358 0.930 . S
H378 C413 0.931 . S
N379 Eu348 2.657 . S
N379 C380 1.334 . S
N379 C384 1.362 . S
C380 H372 0.929 . S
C380 N379 1.334 . S
C380 C383 1.413 . S
C381 H375 0.930 . S
C381 C382 1.392 . S
C381 C383 1.367 . S
C382 C381 1.392 . S
C382 C384 1.420 . S
C382 C414 1.423 . S
C383 H369 0.930 . S
C383 C380 1.413 . S
C383 C381 1.367 . S
C384 N379 1.362 . S
C384 C382 1.420 . S
C384 C388 1.429 . S
H385 C390 0.930 . S
N386 Eu348 2.609 . S
N386 C388 1.377 . S
N386 C389 1.326 . S
C387 H373 0.930 . S
C387 C389 1.398 1_655 S
C387 C390 1.386 1_655 S
C388 C384 1.429 . S
C388 N386 1.377 . S
C388 C391 1.411 . S
C389 H371 0.926 1_455 S
C389 N386 1.326 . S
C389 C387 1.398 1_455 S
C390 H385 0.930 . S
C390 C387 1.386 1_455 S
C390 C391 1.395 . S
C391 C388 1.411 . S
C391 C390 1.395 . S
C391 C413 1.420 . S
O392 Eu348 2.558 . S
O392 C412 1.257 . S
O393 Eu348 2.612 . S
O393 Eu359 2.380 1_455 S
O393 C404 1.276 . S
O394 Eu359 2.432 1_455 S
O394 C411 1.264 . S
O395 Eu348 2.339 . S
O395 C411 1.254 . S
O396 Eu348 2.563 . S
O396 C404 1.235 . S
O397 Eu348 2.419 . S
O397 C412 1.249 . S
O398 Eu359 2.558 . S
O398 C423 1.257 . S
O399 Eu348 2.380 . S
O399 Eu359 2.612 1_455 S
O399 C415 1.276 1_455 S
O400 Eu348 2.432 1_655 S
O400 C422 1.264 . S
O401 Eu359 2.339 . S
O401 C422 1.254 . S
O402 Eu359 2.563 . S
O402 C415 1.235 . S
O403 Eu359 2.419 . S
O403 C423 1.249 . S
C404 O393 1.276 . S
C404 O396 1.235 . S
C405 C407 1.393 . S
C405 C409 1.395 . S
C405 C412 1.492 . S
C406 C407 1.392 . S
C406 C408 1.386 . S
C407 C405 1.393 . S
C407 C406 1.392 . S
C407 H424 0.930 . S
C408 C406 1.386 . S
C408 C410 1.395 . S
C408 H425 0.930 . S
C409 C405 1.395 . S
C409 C410 1.379 . S
C409 H426 0.930 . S
C410 C408 1.395 . S
C410 C409 1.379 . S
C410 H427 0.930 . S
C411 O394 1.264 . S
C411 O395 1.254 . S
C412 Eu348 2.848 . S
C412 O392 1.257 . S
C412 O397 1.249 . S
C412 C405 1.492 . S
C413 H378 0.931 . S
C413 C391 1.420 . S
C413 C414 1.351 . S
C414 H376 0.930 . S
C414 C382 1.423 . S
C414 C413 1.351 . S
C415 O399 1.276 1_655 S
C415 O402 1.235 . S
C416 C417 1.393 . S
C416 C420 1.395 1_556 S
C416 C423 1.492 . S
C417 C416 1.393 . S
C417 C418 1.392 1_556 S
C417 H428 0.930 . S
C418 C417 1.392 1_554 S
C418 C419 1.386 . S
C419 C418 1.386 . S
C419 C421 1.395 . S
C419 H429 0.930 . S
C420 C416 1.395 1_554 S
C420 C421 1.379 . S
C420 H430 0.930 . S
C421 C419 1.395 . S
C421 C420 1.379 . S
C421 H431 0.930 . S
C422 O400 1.264 . S
C422 O401 1.254 . S
C423 Eu359 2.848 . S
C423 O398 1.257 . S
C423 O403 1.249 . S
C423 C416 1.492 . S
H424 C407 0.930 . S
H425 C408 0.930 . S
H426 C409 0.930 . S
H427 C410 0.930 . S
H428 C417 0.930 . S
H429 C419 0.930 . S
H430 C420 0.930 . S
H431 C421 0.930 . S
H432 C438 0.930 . S
H433 C442 0.930 1_565 S
H434 C447 0.929 . S
H435 C445 0.929 . S
H436 C440 0.929 . S
H437 C446 0.929 . S
C438 H432 0.930 . S
C438 C439 1.367 . S
C438 C446 1.378 . S
C439 C438 1.367 . S
C439 C447 1.433 . S
C440 H436 0.929 . S
C440 C442 1.378 . S
C440 C444 1.350 . S
C441 C444 1.463 . S
C441 C446 1.350 . S
C441 N449 1.427 . S
C442 H433 0.930 1_545 S
C442 C440 1.378 . S
C442 C443 1.367 . S
C443 C442 1.367 . S
C443 C445 1.433 . S
C444 C440 1.350 . S
C444 C441 1.463 . S
C444 N448 1.427 . S
C445 H435 0.929 . S
C445 C443 1.433 . S
C445 N448 1.384 . S
C446 H437 0.929 . S
C446 C438 1.378 . S
C446 C441 1.350 . S
C447 H434 0.929 . S
C447 C439 1.433 . S
C447 N449 1.384 . S
N448 C444 1.427 . S
N448 C445 1.384 . S
N449 C441 1.427 . S
N449 C447 1.384 . S
H450 C456 0.930 . S
H451 C460 0.930 . S
H452 C465 0.929 . S
H453 C463 0.929 . S
H454 C458 0.929 . S
H455 C464 0.929 . S
C456 H450 0.930 . S
C456 C457 1.367 . S
C456 C464 1.378 . S
C457 C456 1.367 . S
C457 C465 1.433 . S
C458 H454 0.929 . S
C458 C460 1.378 . S
C458 C462 1.350 . S
C459 C462 1.463 . S
C459 C464 1.350 . S
C459 N467 1.427 . S
C460 H451 0.930 . S
C460 C458 1.378 . S
C460 C461 1.367 . S
C461 C460 1.367 . S
C461 C463 1.433 . S
C462 C458 1.350 . S
C462 C459 1.463 . S
C462 N466 1.427 . S
C463 H453 0.929 . S
C463 C461 1.433 . S
C463 N466 1.384 . S
C464 H455 0.929 . S
C464 C456 1.378 . S
C464 C459 1.350 . S
C465 H452 0.929 . S
C465 C457 1.433 . S
C465 N467 1.384 . S
N466 C462 1.427 . S
N466 C463 1.384 . S
N467 C459 1.427 . S
N467 C465 1.384 . S
H468 C474 0.930 . S
H469 C478 0.930 . S
H470 C483 0.929 . S
H471 C481 0.929 . S
H472 C476 0.929 . S
H473 C482 0.929 . S
C474 H468 0.930 . S
C474 C475 1.367 . S
C474 C482 1.378 . S
C475 C474 1.367 . S
C475 C483 1.433 . S
C476 H472 0.929 . S
C476 C478 1.378 . S
C476 C480 1.350 . S
C477 C480 1.463 . S
C477 C482 1.350 . S
C477 N485 1.427 . S
C478 H469 0.930 . S
C478 C476 1.378 . S
C478 C479 1.367 . S
C479 C478 1.367 . S
C479 C481 1.433 . S
C480 C476 1.350 . S
C480 C477 1.463 . S
C480 N484 1.427 . S
C481 H471 0.929 . S
C481 C479 1.433 . S
C481 N484 1.384 . S
C482 H473 0.929 . S
C482 C474 1.378 . S
C482 C477 1.350 . S
C483 H470 0.929 . S
C483 C475 1.433 . S
C483 N485 1.384 . S
N484 C480 1.427 . S
N484 C481 1.384 . S
N485 C477 1.427 . S
N485 C483 1.384 . S
H486 C492 0.930 . S
H487 C496 0.930 . S
H488 C501 0.929 . S
H489 C499 0.929 . S
H490 C494 0.929 . S
H491 C500 0.929 . S
C492 H486 0.930 . S
C492 C493 1.367 . S
C492 C500 1.378 . S
C493 C492 1.367 . S
C493 C501 1.433 . S
C494 H490 0.929 . S
C494 C496 1.378 . S
C494 C498 1.350 . S
C495 C498 1.463 . S
C495 C500 1.350 . S
C495 N503 1.427 . S
C496 H487 0.930 . S
C496 C494 1.378 . S
C496 C497 1.367 . S
C497 C496 1.367 . S
C497 C499 1.433 . S
C498 C494 1.350 . S
C498 C495 1.463 . S
C498 N502 1.427 . S
C499 H489 0.929 . S
C499 C497 1.433 . S
C499 N502 1.384 . S
C500 H491 0.929 . S
C500 C492 1.378 . S
C500 C495 1.350 . S
C501 H488 0.929 . S
C501 C493 1.433 . S
C501 N503 1.384 . S
N502 C498 1.427 . S
N502 C499 1.384 . S
N503 C495 1.427 . S
N503 C501 1.384 . S
H504 C510 0.930 . S
H505 C514 0.931 . S
H506 C519 0.929 . S
H507 C517 0.929 . S
H508 C512 0.928 1_544 S
H509 C518 0.929 1_556 S
C510 H504 0.930 . S
C510 C511 1.367 . S
C510 C518 1.378 . S
C511 C510 1.367 . S
C511 C519 1.433 . S
C512 H508 0.928 1_566 S
C512 C514 1.377 1_565 S
C512 C516 1.350 . S
C513 C516 1.463 1_554 S
C513 C518 1.350 . S
C513 N521 1.427 . S
C514 H505 0.931 . S
C514 C512 1.377 1_545 S
C514 C515 1.366 1_545 S
C515 C514 1.366 1_565 S
C515 C517 1.433 . S
C516 C512 1.350 . S
C516 C513 1.463 1_556 S
C516 N520 1.427 . S
C517 H507 0.929 . S
C517 C515 1.433 . S
C517 N520 1.384 . S
C518 H509 0.929 1_554 S
C518 C510 1.378 . S
C518 C513 1.350 . S
C519 H506 0.929 . S
C519 C511 1.433 . S
C519 N521 1.384 . S
N520 C516 1.427 . S
N520 C517 1.384 . S
N521 C513 1.427 . S
N521 C519 1.384 . S
H522 C528 0.930 . S
H523 C532 0.930 . S
H524 C537 0.929 . S
H525 C535 0.929 . S
H526 C530 0.929 . S
H527 C536 0.929 . S
C528 H522 0.930 . S
C528 C529 1.367 . S
C528 C536 1.378 . S
C529 C528 1.367 . S
C529 C537 1.433 . S
C530 H526 0.929 . S
C530 C532 1.378 . S
C530 C534 1.350 . S
C531 C534 1.463 1_554 S
C531 C536 1.350 . S
C531 N539 1.427 . S
C532 H523 0.930 . S
C532 C530 1.378 . S
C532 C533 1.367 . S
C533 C532 1.367 . S
C533 C535 1.433 . S
C534 C530 1.350 . S
C534 C531 1.463 1_556 S
C534 N538 1.427 . S
C535 H525 0.929 . S
C535 C533 1.433 . S
C535 N538 1.384 . S
C536 H527 0.929 . S
C536 C528 1.378 . S
C536 C531 1.350 . S
C537 H524 0.929 . S
C537 C529 1.433 . S
C537 N539 1.384 . S
N538 C534 1.427 . S
N538 C535 1.384 . S
N539 C531 1.427 . S
N539 C537 1.384 . S
H540 C546 0.930 . S
H541 C550 0.930 . S
H542 C555 0.929 . S
H543 C553 0.929 . S
H544 C548 0.929 . S
H545 C554 0.929 . S
C546 H540 0.930 . S
C546 C547 1.367 . S
C546 C554 1.378 . S
C547 C546 1.367 . S
C547 C555 1.433 . S
C548 H544 0.929 . S
C548 C550 1.378 . S
C548 C552 1.350 . S
C549 C552 1.463 1_554 S
C549 C554 1.350 . S
C549 N557 1.427 . S
C550 H541 0.930 . S
C550 C548 1.378 . S
C550 C551 1.367 . S
C551 C550 1.367 . S
C551 C553 1.433 . S
C552 C548 1.350 . S
C552 C549 1.463 1_556 S
C552 N556 1.427 . S
C553 H543 0.929 . S
C553 C551 1.433 . S
C553 N556 1.384 . S
C554 H545 0.929 . S
C554 C546 1.378 . S
C554 C549 1.350 . S
C555 H542 0.929 . S
C555 C547 1.433 . S
C555 N557 1.384 . S
N556 C552 1.427 . S
N556 C553 1.384 . S
N557 C549 1.427 . S
N557 C555 1.384 . S
H558 C564 0.930 . S
H559 C568 0.933 . S
H560 C573 0.929 . S
H561 C571 0.929 . S
H562 C566 0.929 1_455 S
H563 C572 0.929 . S
C564 H558 0.930 . S
C564 C565 1.367 . S
C564 C572 1.378 . S
C565 C564 1.367 . S
C565 C573 1.433 . S
C566 H562 0.929 1_655 S
C566 C568 1.377 1_655 S
C566 C570 1.350 . S
C567 C570 1.463 1_554 S
C567 C572 1.350 . S
C567 N575 1.427 . S
C568 H559 0.933 . S
C568 C566 1.377 1_455 S
C568 C569 1.365 1_455 S
C569 C568 1.365 1_655 S
C569 C571 1.433 . S
C570 C566 1.350 . S
C570 C567 1.463 1_556 S
C570 N574 1.427 . S
C571 H561 0.929 . S
C571 C569 1.433 . S
C571 N574 1.384 . S
C572 H563 0.929 . S
C572 C564 1.378 . S
C572 C567 1.350 . S
C573 H560 0.929 . S
C573 C565 1.433 . S
C573 N575 1.384 . S
N574 C570 1.427 . S
N574 C571 1.384 . S
N575 C567 1.427 . S
N575 C573 1.384 . S
H576 C582 0.930 . S
H577 C586 0.930 1_655 S
H578 C591 0.929 . S
H579 C589 0.929 . S
H580 C584 0.929 . S
H581 C590 0.929 . S
C582 H576 0.930 . S
C582 C583 1.367 . S
C582 C590 1.378 . S
C583 C582 1.367 . S
C583 C591 1.433 . S
C584 H580 0.929 . S
C584 C586 1.378 . S
C584 C588 1.350 . S
C585 C588 1.463 . S
C585 C590 1.350 . S
C585 N593 1.427 . S
C586 H577 0.930 1_455 S
C586 C584 1.378 . S
C586 C587 1.367 . S
C587 C586 1.367 . S
C587 C589 1.433 . S
C588 C584 1.350 . S
C588 C585 1.463 . S
C588 N592 1.427 . S
C589 H579 0.929 . S
C589 C587 1.433 . S
C589 N592 1.384 . S
C590 H581 0.929 . S
C590 C582 1.378 . S
C590 C585 1.350 . S
C591 H578 0.929 . S
C591 C583 1.433 . S
C591 N593 1.384 . S
N592 C588 1.427 . S
N592 C589 1.384 . S
N593 C585 1.427 . S
N593 C591 1.384 . S
H594 C600 0.930 . S
H595 C604 0.914 1_565 S
H596 C609 0.929 1_556 S
H597 C607 0.929 . S
H598 C602 0.929 . S
H599 C608 0.929 . S
C600 H594 0.930 . S
C600 C601 1.367 . S
C600 C608 1.378 . S
C601 C600 1.367 . S
C601 C609 1.433 . S
C602 H598 0.929 . S
C602 C604 1.390 . S
C602 C606 1.350 . S
C603 C606 1.463 . S
C603 C608 1.350 . S
C603 N611 1.427 . S
C604 H595 0.914 1_545 S
C604 C602 1.390 . S
C604 C605 1.371 . S
C605 C604 1.371 . S
C605 C607 1.433 . S
C606 C602 1.350 . S
C606 C603 1.463 . S
C606 N610 1.427 . S
C607 H597 0.929 . S
C607 C605 1.433 . S
C607 N610 1.384 . S
C608 H599 0.929 . S
C608 C600 1.378 . S
C608 C603 1.350 . S
C609 H596 0.929 1_554 S
C609 C601 1.433 . S
C609 N611 1.384 . S
N610 C606 1.427 . S
N610 C607 1.384 . S
N611 C603 1.427 . S
N611 C609 1.384 . S
H612 C618 0.930 . S
H613 C622 0.930 . S
H614 C627 0.929 . S
H615 C625 0.929 . S
H616 C620 0.929 . S
H617 C626 0.929 . S
C618 H612 0.930 . S
C618 C619 1.367 . S
C618 C626 1.378 . S
C619 C618 1.367 . S
C619 C627 1.433 . S
C620 H616 0.929 . S
C620 C622 1.378 . S
C620 C624 1.350 . S
C621 C624 1.463 . S
C621 C626 1.350 . S
C621 N629 1.427 . S
C622 H613 0.930 . S
C622 C620 1.378 . S
C622 C623 1.367 . S
C623 C622 1.367 . S
C623 C625 1.433 . S
C624 C620 1.350 . S
C624 C621 1.463 . S
C624 N628 1.427 . S
C625 H615 0.929 . S
C625 C623 1.433 . S
C625 N628 1.384 . S
C626 H617 0.929 . S
C626 C618 1.378 . S
C626 C621 1.350 . S
C627 H614 0.929 . S
C627 C619 1.433 . S
C627 N629 1.384 . S
N628 C624 1.427 . S
N628 C625 1.384 . S
N629 C621 1.427 . S
N629 C627 1.384 . S
H630 C636 0.930 1_556 S
H631 C640 0.930 . S
H632 C645 0.929 . S
H633 C643 0.929 . S
H634 C638 0.929 . S
H635 C644 0.929 . S
C636 H630 0.930 1_554 S
C636 C637 1.367 . S
C636 C644 1.378 . S
C637 C636 1.367 . S
C637 C645 1.433 . S
C638 H634 0.929 . S
C638 C640 1.378 . S
C638 C642 1.350 . S
C639 C642 1.463 . S
C639 C644 1.350 . S
C639 N647 1.427 . S
C640 H631 0.930 . S
C640 C638 1.378 . S
C640 C641 1.367 . S
C641 C640 1.367 . S
C641 C643 1.433 . S
C642 C638 1.350 . S
C642 C639 1.463 . S
C642 N646 1.427 . S
C643 H633 0.929 . S
C643 C641 1.433 . S
C643 N646 1.384 . S
C644 H635 0.929 . S
C644 C636 1.378 . S
C644 C639 1.350 . S
C645 H632 0.929 . S
C645 C637 1.433 . S
C645 N647 1.384 . S
N646 C642 1.427 . S
N646 C643 1.384 . S
N647 C639 1.427 . S
N647 C645 1.384 . S
H648 C654 0.930 . S
H649 C658 0.930 . S
H650 C663 0.929 . S
H651 C661 0.929 . S
H652 C656 0.929 . S
H653 C662 0.929 . S
C654 H648 0.930 . S
C654 C655 1.367 . S
C654 C662 1.378 . S
C655 C654 1.367 . S
C655 C663 1.433 . S
C656 H652 0.929 . S
C656 C658 1.378 . S
C656 C660 1.350 1_455 S
C657 C660 1.463 . S
C657 C662 1.350 . S
C657 N665 1.427 . S
C658 H649 0.930 . S
C658 C656 1.378 . S
C658 C659 1.358 1_554 S
C659 C658 1.358 1_556 S
C659 C661 1.438 1_455 S
C660 C656 1.350 1_655 S
C660 C657 1.463 . S
C660 N664 1.427 1_554 S
C661 H651 0.929 . S
C661 C659 1.438 1_655 S
C661 N664 1.384 . S
C662 H653 0.929 . S
C662 C654 1.378 . S
C662 C657 1.350 . S
C663 H650 0.929 . S
C663 C655 1.433 . S
C663 N665 1.384 . S
N664 C660 1.427 1_556 S
N664 C661 1.384 . S
N665 C657 1.427 . S
N665 C663 1.384 . S
H666 C672 0.930 . S
H667 C676 0.930 . S
H668 C681 0.929 . S
H669 C679 0.929 . S
H670 C674 0.929 . S
H671 C680 0.929 1_545 S
C672 H666 0.930 . S
C672 C673 1.367 . S
C672 C680 1.378 . S
C673 C672 1.367 . S
C673 C681 1.433 . S
C674 H670 0.929 . S
C674 C676 1.378 1_554 S
C674 C678 1.350 . S
C675 C678 1.463 . S
C675 C680 1.350 . S
C675 N683 1.427 . S
C676 H667 0.930 . S
C676 C674 1.378 1_556 S
C676 C677 1.367 1_565 S
C677 C676 1.367 1_545 S
C677 C679 1.433 1_556 S
C678 C674 1.350 . S
C678 C675 1.463 . S
C678 N682 1.427 1_565 S
C679 H669 0.929 . S
C679 C677 1.433 1_554 S
C679 N682 1.384 . S
C680 H671 0.929 1_565 S
C680 C672 1.378 . S
C680 C675 1.350 . S
C681 H668 0.929 . S
C681 C673 1.433 . S
C681 N683 1.384 . S
N682 C678 1.427 1_545 S
N682 C679 1.384 . S
N683 C675 1.427 . S
N683 C681 1.384 . S
H684 C690 0.930 . S
H685 C694 0.928 1_556 S
H686 C699 0.929 . S
H687 C697 0.929 . S
H688 C692 0.929 . S
H689 C698 0.929 . S
C690 H684 0.930 . S
C690 C691 1.367 . S
C690 C698 1.378 . S
C691 C690 1.367 . S
C691 C699 1.433 . S
C692 H688 0.929 . S
C692 C694 1.379 . S
C692 C696 1.350 . S
C693 C696 1.463 . S
C693 C698 1.350 . S
C693 N701 1.427 . S
C694 H685 0.928 1_554 S
C694 C692 1.379 . S
C694 C695 1.367 . S
C695 C694 1.367 . S
C695 C697 1.433 . S
C696 C692 1.350 . S
C696 C693 1.463 . S
C696 N700 1.427 . S
C697 H687 0.929 . S
C697 C695 1.433 . S
C697 N700 1.384 . S
C698 H689 0.929 . S
C698 C690 1.378 . S
C698 C693 1.350 . S
C699 H686 0.929 . S
C699 C691 1.433 . S
C699 N701 1.384 . S
N700 C696 1.427 . S
N700 C697 1.384 . S
N701 C693 1.427 . S
N701 C699 1.384 . S
H702 C708 0.930 . S
H703 C712 0.930 . S
H704 C717 0.929 . S
H705 C715 0.929 . S
H706 C710 0.929 . S
H707 C716 0.929 . S
C708 H702 0.930 . S
C708 C709 1.367 . S
C708 C716 1.378 . S
C709 C708 1.367 . S
C709 C717 1.433 . S
C710 H706 0.929 . S
C710 C712 1.378 . S
C710 C714 1.350 . S
C711 C714 1.463 . S
C711 C716 1.350 . S
C711 N719 1.427 . S
C712 H703 0.930 . S
C712 C710 1.378 . S
C712 C713 1.367 . S
C713 C712 1.367 . S
C713 C715 1.433 1_554 S
C714 C710 1.350 . S
C714 C711 1.463 . S
C714 N718 1.427 . S
C715 H705 0.929 . S
C715 C713 1.433 1_556 S
C715 N718 1.384 1_556 S
C716 H707 0.929 . S
C716 C708 1.378 . S
C716 C711 1.350 . S
C717 H704 0.929 . S
C717 C709 1.433 . S
C717 N719 1.384 . S
N718 C714 1.427 . S
N718 C715 1.384 1_554 S
N719 C711 1.427 . S
N719 C717 1.384 . S
H720 C726 0.930 . S
H721 C730 0.930 . S
H722 C735 0.929 . S
H723 C733 0.929 . S
H724 C728 0.929 . S
H725 C734 0.929 . S
C726 H720 0.930 . S
C726 C727 1.367 . S
C726 C734 1.378 . S
C727 C726 1.367 . S
C727 C735 1.433 . S
C728 H724 0.929 . S
C728 C730 1.378 . S
C728 C732 1.350 . S
C729 C732 1.463 . S
C729 C734 1.350 . S
C729 N737 1.427 . S
C730 H721 0.930 . S
C730 C728 1.378 . S
C730 C731 1.367 . S
C731 C730 1.367 . S
C731 C733 1.433 . S
C732 C728 1.350 . S
C732 C729 1.463 . S
C732 N736 1.427 . S
C733 H723 0.929 . S
C733 C731 1.433 . S
C733 N736 1.384 . S
C734 H725 0.929 . S
C734 C726 1.378 . S
C734 C729 1.350 . S
C735 H722 0.929 . S
C735 C727 1.433 . S
C735 N737 1.384 . S
N736 C732 1.427 . S
N736 C733 1.384 . S
N737 C729 1.427 . S
N737 C735 1.384 . S
H738 C744 0.930 . S
H739 C748 0.930 . S
H740 C753 0.929 . S
H741 C751 0.929 1_565 S
H742 C746 0.929 . S
H743 C752 0.929 . S
C744 H738 0.930 . S
C744 C745 1.367 . S
C744 C752 1.378 . S
C745 C744 1.367 . S
C745 C753 1.433 . S
C746 H742 0.929 . S
C746 C748 1.378 . S
C746 C750 1.350 . S
C747 C750 1.463 . S
C747 C752 1.350 . S
C747 N755 1.427 . S
C748 H739 0.930 . S
C748 C746 1.378 . S
C748 C749 1.367 . S
C749 C748 1.367 . S
C749 C751 1.433 . S
C750 C746 1.350 . S
C750 C747 1.463 . S
C750 N754 1.427 . S
C751 H741 0.929 1_545 S
C751 C749 1.433 . S
C751 N754 1.384 . S
C752 H743 0.929 . S
C752 C744 1.378 . S
C752 C747 1.350 . S
C753 H740 0.929 . S
C753 C745 1.433 . S
C753 N755 1.384 . S
N754 C750 1.427 . S
N754 C751 1.384 . S
N755 C747 1.427 . S
N755 C753 1.384 . S
H756 C762 0.930 . S
H757 C766 0.930 . S
H758 C771 0.929 . S
H759 C769 0.929 . S
H760 C764 0.929 . S
H761 C770 0.929 . S
C762 H756 0.930 . S
C762 C763 1.367 . S
C762 C770 1.378 . S
C763 C762 1.367 . S
C763 C771 1.433 . S
C764 H760 0.929 . S
C764 C766 1.378 . S
C764 C768 1.350 . S
C765 C768 1.463 . S
C765 C770 1.350 . S
C765 N773 1.427 . S
C766 H757 0.930 . S
C766 C764 1.378 . S
C766 C767 1.367 . S
C767 C766 1.367 . S
C767 C769 1.433 . S
C768 C764 1.350 . S
C768 C765 1.463 . S
C768 N772 1.427 . S
C769 H759 0.929 . S
C769 C767 1.433 . S
C769 N772 1.384 . S
C770 H761 0.929 . S
C770 C762 1.378 . S
C770 C765 1.350 . S
C771 H758 0.929 . S
C771 C763 1.433 . S
C771 N773 1.384 . S
N772 C768 1.427 . S
N772 C769 1.384 . S
N773 C765 1.427 . S
N773 C771 1.384 . S
H774 C780 0.930 . S
H775 C784 0.930 . S
H776 C789 0.929 . S
H777 C787 0.929 . S
H778 C782 0.929 . S
H779 C788 0.929 . S
C780 H774 0.930 . S
C780 C781 1.367 . S
C780 C788 1.378 . S
C781 C780 1.367 . S
C781 C789 1.433 . S
C782 H778 0.929 . S
C782 C784 1.378 . S
C782 C786 1.350 . S
C783 C786 1.463 . S
C783 C788 1.350 . S
C783 N791 1.427 . S
C784 H775 0.930 . S
C784 C782 1.378 . S
C784 C785 1.367 . S
C785 C784 1.367 . S
C785 C787 1.433 . S
C786 C782 1.350 . S
C786 C783 1.463 . S
C786 N790 1.427 . S
C787 H777 0.929 . S
C787 C785 1.433 . S
C787 N790 1.384 . S
C788 H779 0.929 . S
C788 C780 1.378 . S
C788 C783 1.350 . S
C789 H776 0.929 . S
C789 C781 1.433 . S
C789 N791 1.384 . S
N790 C786 1.427 . S
N790 C787 1.384 . S
N791 C783 1.427 . S
N791 C789 1.384 . S
H792 C798 0.930 . S
H793 C802 0.930 . S
H794 C807 0.929 . S
H795 C805 0.929 . S
H796 C800 0.929 . S
H797 C806 0.929 . S
C798 H792 0.930 . S
C798 C799 1.367 . S
C798 C806 1.378 . S
C799 C798 1.367 . S
C799 C807 1.433 . S
C800 H796 0.929 . S
C800 C802 1.378 . S
C800 C804 1.350 . S
C801 C804 1.463 . S
C801 C806 1.350 . S
C801 N809 1.427 . S
C802 H793 0.930 . S
C802 C800 1.378 . S
C802 C803 1.367 . S
C803 C802 1.367 . S
C803 C805 1.433 . S
C804 C800 1.350 . S
C804 C801 1.463 . S
C804 N808 1.427 . S
C805 H795 0.929 . S
C805 C803 1.433 . S
C805 N808 1.384 . S
C806 H797 0.929 . S
C806 C798 1.378 . S
C806 C801 1.350 . S
C807 H794 0.929 . S
C807 C799 1.433 . S
C807 N809 1.384 . S
N808 C804 1.427 . S
N808 C805 1.384 . S
N809 C801 1.427 . S
N809 C807 1.384 . S
H810 C816 0.930 . S
H811 C820 0.930 . S
H812 C825 0.929 . S
H813 C823 0.929 . S
H814 C818 0.929 . S
H815 C824 0.929 . S
C816 H810 0.930 . S
C816 C817 1.367 . S
C816 C824 1.378 . S
C817 C816 1.367 . S
C817 C825 1.433 . S
C818 H814 0.929 . S
C818 C820 1.378 . S
C818 C822 1.350 . S
C819 C822 1.463 . S
C819 C824 1.350 . S
C819 N827 1.427 . S
C820 H811 0.930 . S
C820 C818 1.378 . S
C820 C821 1.367 . S
C821 C820 1.367 . S
C821 C823 1.433 . S
C822 C818 1.350 . S
C822 C819 1.463 . S
C822 N826 1.427 . S
C823 H813 0.929 . S
C823 C821 1.433 . S
C823 N826 1.384 . S
C824 H815 0.929 . S
C824 C816 1.378 . S
C824 C819 1.350 . S
C825 H812 0.929 . S
C825 C817 1.433 . S
C825 N827 1.384 . S
N826 C822 1.427 . S
N826 C823 1.384 . S
N827 C819 1.427 . S
N827 C825 1.384 . S
H828 C834 0.930 . S
H829 C838 0.930 . S
H830 C843 0.929 . S
H831 C841 0.929 . S
H832 C836 0.929 . S
H833 C842 0.929 . S
C834 H828 0.930 . S
C834 C835 1.367 . S
C834 C842 1.378 . S
C835 C834 1.367 . S
C835 C843 1.433 . S
C836 H832 0.929 . S
C836 C838 1.378 . S
C836 C840 1.350 . S
C837 C840 1.463 . S
C837 C842 1.350 . S
C837 N845 1.427 . S
C838 H829 0.930 . S
C838 C836 1.378 . S
C838 C839 1.367 . S
C839 C838 1.367 . S
C839 C841 1.433 . S
C840 C836 1.350 . S
C840 C837 1.463 . S
C840 N844 1.427 . S
C841 H831 0.929 . S
C841 C839 1.433 . S
C841 N844 1.384 . S
C842 H833 0.929 . S
C842 C834 1.378 . S
C842 C837 1.350 . S
C843 H830 0.929 . S
C843 C835 1.433 . S
C843 N845 1.384 . S
N844 C840 1.427 . S
N844 C841 1.384 . S
N845 C837 1.427 . S
N845 C843 1.384 . S
H846 C852 0.930 . S
H847 C856 0.930 . S
H848 C861 0.929 . S
H849 C859 0.929 . S
H850 C854 0.929 . S
H851 C860 0.929 . S
C852 H846 0.930 . S
C852 C853 1.367 . S
C852 C860 1.378 . S
C853 C852 1.367 . S
C853 C861 1.433 . S
C854 H850 0.929 . S
C854 C856 1.378 . S
C854 C858 1.350 . S
C855 C858 1.463 . S
C855 C860 1.350 . S
C855 N863 1.427 . S
C856 H847 0.930 . S
C856 C854 1.378 . S
C856 C857 1.367 . S
C857 C856 1.367 . S
C857 C859 1.433 . S
C858 C854 1.350 . S
C858 C855 1.463 . S
C858 N862 1.427 . S
C859 H849 0.929 . S
C859 C857 1.433 . S
C859 N862 1.384 . S
C860 H851 0.929 . S
C860 C852 1.378 . S
C860 C855 1.350 . S
C861 H848 0.929 . S
C861 C853 1.433 . S
C861 N863 1.384 . S
N862 C858 1.427 . S
N862 C859 1.384 . S
N863 C855 1.427 . S
N863 C861 1.384 . S
C439 C76 1.848 . S
C443 C170 1.940 . S
C461 C254 1.970 . S
C457 C88 1.869 . S
C479 C320 1.952 . S
C475 C52 1.968 . S
C497 C404 1.920 . S
C493 C64 1.937 . S
C515 C159 1.940 1_565 S
C511 C28 1.853 . S
C529 C40 1.888 . S
C533 C243 1.968 . S
C547 C4 1.976 . S
C551 C331 1.947 . S
C565 C16 1.963 . S
C569 C415 1.936 . S
C587 C166 0.634 1_455 S
C583 C69 0.634 . S
C605 C250 0.603 1_545 S
C601 C81 0.627 . S
C623 C322 0.599 . S
C619 C93 0.574 . S
C637 C57 0.602 . S
C641 C406 0.628 . S
C655 C21 0.664 . S
C659 C154 0.630 . S
C677 C238 0.629 . S
C673 C33 0.602 . S
C695 C334 0.601 . S
C691 C45 0.579 . S
C709 C9 0.644 . S
C713 C418 0.596 . S
C727 C66 2.021 . S
C731 C163 2.085 . S
C745 C78 1.996 . S
C749 C247 2.063 . S
C767 C327 2.081 . S
C763 C90 1.917 . S
C785 C411 2.106 . S
C781 C54 1.942 . S
C799 C18 2.005 . S
C803 C152 2.085 . S
C821 C236 2.054 . S
C817 C30 1.976 . S
C839 C338 2.077 . S
C835 C42 1.889 . S
C853 C6 1.909 . S
C857 C422 2.112 . S
