# Generated by pormake.
# Topology zzz, (3,6)-cn, num edge types: 1
# Building blocks:
#     Node 0, Type 0, BuildingBlock: ESEHIV_clean_linker_0, # of connection points: 3
#     Node 1, Type 0, BuildingBlock: ESEHIV_clean_linker_0, # of connection points: 3
#     Node 2, Type 0, BuildingBlock: ESEHIV_clean_linker_0, # of connection points: 3
#     Node 3, Type 0, BuildingBlock: ESEHIV_clean_linker_0, # of connection points: 3
#     Node 4, Type 0, BuildingBlock: ESEHIV_clean_linker_0, # of connection points: 3
#     Node 5, Type 0, BuildingBlock: ESEHIV_clean_linker_0, # of connection points: 3
#     Node 6, Type 0, BuildingBlock: ESEHIV_clean_linker_0, # of connection points: 3
#     Node 7, Type 0, BuildingBlock: ESEHIV_clean_linker_0, # of connection points: 3
#     Node 8, Type 1, BuildingBlock: KUMBUR_clean_sbu_1, # of connection points: 6
#     Node 9, Type 1, BuildingBlock: KUMBUR_clean_sbu_1, # of connection points: 6
#     Node 10, Type 1, BuildingBlock: KUMBUR_clean_sbu_1, # of connection points: 6
#     Node 11, Type 1, BuildingBlock: KUMBUR_clean_sbu_1, # of connection points: 6
#     Edge 12, Type (0, 1), BuildingBlock: UVAHIK_clean_linker_0, # of connection points: 2
#     Edge 13, Type (0, 1), BuildingBlock: UVAHIK_clean_linker_0, # of connection points: 2
#     Edge 14, Type (0, 1), BuildingBlock: UVAHIK_clean_linker_0, # of connection points: 2
#     Edge 15, Type (0, 1), BuildingBlock: UVAHIK_clean_linker_0, # of connection points: 2
#     Edge 16, Type (0, 1), BuildingBlock: UVAHIK_clean_linker_0, # of connection points: 2
#     Edge 17, Type (0, 1), BuildingBlock: UVAHIK_clean_linker_0, # of connection points: 2
#     Edge 18, Type (0, 1), BuildingBlock: UVAHIK_clean_linker_0, # of connection points: 2
#     Edge 19, Type (0, 1), BuildingBlock: UVAHIK_clean_linker_0, # of connection points: 2
#     Edge 20, Type (0, 1), BuildingBlock: UVAHIK_clean_linker_0, # of connection points: 2
#     Edge 21, Type (0, 1), BuildingBlock: UVAHIK_clean_linker_0, # of connection points: 2
#     Edge 22, Type (0, 1), BuildingBlock: UVAHIK_clean_linker_0, # of connection points: 2
#     Edge 23, Type (0, 1), BuildingBlock: UVAHIK_clean_linker_0, # of connection points: 2
#     Edge 24, Type (0, 1), BuildingBlock: UVAHIK_clean_linker_0, # of connection points: 2
#     Edge 25, Type (0, 1), BuildingBlock: UVAHIK_clean_linker_0, # of connection points: 2
#     Edge 26, Type (0, 1), BuildingBlock: UVAHIK_clean_linker_0, # of connection points: 2
#     Edge 27, Type (0, 1), BuildingBlock: UVAHIK_clean_linker_0, # of connection points: 2
#     Edge 28, Type (0, 1), BuildingBlock: UVAHIK_clean_linker_0, # of connection points: 2
#     Edge 29, Type (0, 1), BuildingBlock: UVAHIK_clean_linker_0, # of connection points: 2
#     Edge 30, Type (0, 1), BuildingBlock: UVAHIK_clean_linker_0, # of connection points: 2
#     Edge 31, Type (0, 1), BuildingBlock: UVAHIK_clean_linker_0, # of connection points: 2
#     Edge 32, Type (0, 1), BuildingBlock: UVAHIK_clean_linker_0, # of connection points: 2
#     Edge 33, Type (0, 1), BuildingBlock: UVAHIK_clean_linker_0, # of connection points: 2
#     Edge 34, Type (0, 1), BuildingBlock: UVAHIK_clean_linker_0, # of connection points: 2
#     Edge 35, Type (0, 1), BuildingBlock: UVAHIK_clean_linker_0, # of connection points: 2
# Relax obj value: 0.312
# Max RMSD: 0.207
# Mean RMSD: 0.181
data_MOF--net-zzz--node1-KUMBUR_clean_sbu_1--node2-ESEHIV_clean_linker_0--edge1-UVAHIK_clean_linker_0
_symmetry_space_group_name_H-M    P1
_symmetry_Int_Tables_number       1
_symmetry_cell_setting            triclinic
loop_
_symmetry_equiv_pos_as_xyz
'x, y, z'
_cell_length_a     57.160973
_cell_length_b     57.187075
_cell_length_c     21.205817
_cell_angle_alpha  90.022723
_cell_angle_beta   89.998579
_cell_angle_gamma 90.329405
loop_
_atom_site_label
_atom_site_type_symbol
_atom_site_fract_x
_atom_site_fract_y
_atom_site_fract_z
_atom_type_partial_charge
H0 H 0.79384 0.5879 0.20981 0.0
H1 H 0.73743 0.59385 0.07799 0.0
H2 H 0.73455 0.54157 0.22489 0.0
C3 C 0.77643 0.58279 0.19449 0.0
C4 C 0.76514 0.56424 0.2253 0.0
C5 C 0.7668 0.59324 0.14093 0.0
C6 C 0.74472 0.58591 0.12 0.0
C7 C 0.73261 0.56751 0.15001 0.0
C8 C 0.74325 0.55618 0.20221 0.0
H9 H 0.9582 0.80207 0.1866 0.0
H10 H 0.95141 0.73775 0.08401 0.0
H11 H 0.98777 0.73877 0.26198 0.0
C12 C 0.96065 0.7833 0.18377 0.0
C13 C 0.97261 0.7718 0.23248 0.0
C14 C 0.95339 0.77122 0.12967 0.0
C15 C 0.957 0.7471 0.12599 0.0
C16 C 0.96955 0.73515 0.17254 0.0
C17 C 0.97758 0.74762 0.22624 0.0
H18 H 0.73925 0.95775 0.22211 0.0
H19 H 0.80328 0.95418 0.11711 0.0
H20 H 0.79527 1.006 0.26318 0.0
C21 C 0.75713 0.96349 0.2144 0.0
C22 C 0.76598 0.98202 0.25081 0.0
C23 C 0.7702 0.95376 0.16506 0.0
C24 C 0.79305 0.96177 0.15494 0.0
C25 C 0.80234 0.98062 0.18936 0.0
C26 C 0.78854 0.99114 0.23705 0.0
H27 H 0.56804 0.73634 0.17407 0.0
H28 H 0.52353 0.79279 0.2333 0.0
H29 H 0.56505 0.79924 0.06445 0.0
C30 C 0.56194 0.75412 0.16808 0.0
C31 C 0.56849 0.76665 0.11412 0.0
C32 C 0.54618 0.76335 0.21231 0.0
C33 C 0.53634 0.78569 0.20101 0.0
C34 C 0.54353 0.79882 0.1476 0.0
C35 C 0.55988 0.78928 0.10577 0.0
H36 H 0.22535 0.4611 0.11062 0.0
H37 H 0.29055 0.46103 0.2104 0.0
H38 H 0.28644 0.49269 0.02639 0.0
C39 C 0.24396 0.4648 0.11187 0.0
C40 C 0.25444 0.47611 0.06007 0.0
C41 C 0.25666 0.45971 0.1666 0.0
C42 C 0.28051 0.46518 0.1685 0.0
C43 C 0.29141 0.4773 0.11909 0.0
C44 C 0.27825 0.48314 0.06464 0.0
H45 H 0.06485 0.23054 0.15764 0.0
H46 H 0.0709 0.29974 0.23573 0.0
H47 H 0.03973 0.28992 0.05349 0.0
C48 C 0.06281 0.24929 0.15384 0.0
C49 C 0.05349 0.25849 0.0975 0.0
C50 C 0.06837 0.26381 0.20546 0.0
C51 C 0.06552 0.28797 0.19836 0.0
C52 C 0.05433 0.29748 0.14573 0.0
C53 C 0.04811 0.28267 0.09485 0.0
H54 H 0.28979 0.08939 0.05458 0.0
H55 H 0.2378 0.08344 0.20107 0.0
H56 H 0.23015 0.04433 0.02966 0.0
C57 C 0.27347 0.08243 0.07268 0.0
C58 C 0.2613 0.06608 0.03572 0.0
C59 C 0.26604 0.0881 0.13402 0.0
C60 C 0.2441 0.07966 0.15406 0.0
C61 C 0.23056 0.06478 0.11591 0.0
C62 C 0.23963 0.05715 0.05741 0.0
H63 H 0.4462 0.298 0.11564 0.0
H64 H 0.49082 0.24439 0.03948 0.0
H65 H 0.45104 0.23147 0.20824 0.0
C66 C 0.45256 0.28018 0.11668 0.0
C67 C 0.44704 0.26578 0.16828 0.0
C68 C 0.46781 0.27258 0.06874 0.0
C69 C 0.47814 0.25014 0.07406 0.0
C70 C 0.47176 0.23518 0.12451 0.0
C71 C 0.45565 0.24294 0.16937 0.0
Tb72 Tb 0.99019 0.02818 0.59351 0.0
C73 C 0.06658 0.03018 0.80917 0.0
N74 N 0.06774 0.02602 0.7464 0.0
C75 C 0.1027 0.04929 0.7393 0.0
C76 C 0.08277 0.04509 0.83934 0.0
C77 C 0.08609 0.0344 0.71162 0.0
C78 C 0.10077 0.05503 0.80324 0.0
C79 C 0.04935 0.02014 0.90971 0.0
C80 C 0.05028 0.01783 0.84361 0.0
C81 C 0.06425 0.03627 0.9399 0.0
C82 C 0.08101 0.04869 0.90473 0.0
Tb83 Tb 0.03975 1.0019 0.70507 0.0
N84 N 0.03698 1.00183 0.81275 0.0
C85 C 0.03435 1.00531 0.9435 0.0
C86 C 0.02402 0.98592 0.84595 0.0
C87 C 0.02198 0.9878 0.91153 0.0
H88 H 0.08758 0.02998 0.66224 0.0
H89 H 0.01116 0.97553 0.93742 0.0
H90 H 0.94217 0.01925 0.68312 0.0
H91 H 0.01097 0.99593 0.36154 0.0
H92 H 0.01531 0.9717 0.82184 0.0
H93 H 0.03305 1.00651 0.99437 0.0
H94 H 0.01432 0.02252 0.45333 0.0
H95 H 0.11691 0.05637 0.71135 0.0
H96 H 0.06363 0.03853 0.9906 0.0
H97 H 0.09305 0.06036 0.92883 0.0
H98 H 0.91125 0.98952 0.69215 0.0
H99 H 0.11365 0.06653 0.82461 0.0
H100 H 0.98159 0.96393 0.36221 0.0
N101 N 0.95857 1.00331 0.60373 0.0
C102 C 0.95563 0.98751 0.5564 0.0
C103 C 0.92392 0.98842 0.65437 0.0
C104 C 0.93762 0.97058 0.55822 0.0
C105 C 0.942 1.00495 0.65005 0.0
C106 C 0.92202 0.97083 0.60899 0.0
N107 N 0.98729 1.00553 0.50505 0.0
C108 C 1.00133 1.00873 0.45356 0.0
C109 C 0.96783 0.97321 0.45396 0.0
C110 C 0.97026 0.98891 0.50474 0.0
C111 C 0.98285 0.97567 0.4022 0.0
C112 C 0.99949 0.9937 0.40169 0.0
H113 H 0.90792 0.95814 0.61222 0.0
H114 H 0.92192 0.94103 0.50962 0.0
H115 H 0.94856 0.94321 0.41846 0.0
O116 O 0.99056 0.05495 0.52615 0.0
O117 O 0.00964 0.9957 0.5762 0.0
O118 O 0.01124 0.97927 0.67229 0.0
O119 O 0.95912 0.04703 0.577 0.0
O120 O 0.02558 0.03983 0.56653 0.0
O121 O 0.05051 0.01199 0.60941 0.0
O122 O 0.06046 0.97574 0.74662 0.0
O123 O 0.03904 0.04061 0.69717 0.0
O124 O 1.00085 0.05044 0.67315 0.0
O125 O 0.06051 0.98099 0.64631 0.0
O126 O 1.00279 0.99617 0.73213 0.0
O127 O 0.98261 0.02812 0.69559 0.0
C128 C 1.00763 0.97715 0.61176 0.0
C129 C 0.96894 0.08676 0.56436 0.0
C130 C 0.98934 0.12257 0.5962 0.0
C131 C 0.96753 0.13346 0.60465 0.0
C132 C 0.94741 0.09793 0.57254 0.0
C133 C 0.94675 0.12108 0.59357 0.0
C134 C 0.9897 0.09891 0.57876 0.0
C135 C 0.04555 0.02831 0.56753 0.0
C136 C 0.96998 0.06232 0.54241 0.0
C137 C 0.93546 0.95437 0.50867 0.0
C138 C 0.95056 0.95566 0.45664 0.0
C139 C 0.02149 0.05553 0.69747 0.0
C140 C 0.06132 0.9424 0.68065 0.0
C141 C 0.03534 0.90874 0.69393 0.0
C142 C 0.0486 0.89638 0.64924 0.0
C143 C 0.07444 0.92981 0.63647 0.0
C144 C 0.04171 0.93186 0.70869 0.0
C145 C 0.06804 0.90691 0.62078 0.0
C146 C 0.98628 0.01196 0.73876 0.0
C147 C 0.06655 0.96723 0.69209 0.0
H148 H 0.96645 0.15177 0.61718 0.0
H149 H 0.93118 0.08875 0.56275 0.0
H150 H 0.93008 0.12968 0.59961 0.0
H151 H 1.00636 0.0901 0.57491 0.0
H152 H 0.04421 0.8785 0.63703 0.0
H153 H 0.08935 0.93785 0.61331 0.0
H154 H 0.03106 0.94188 0.74105 0.0
H155 H 0.07816 0.8973 0.58641 0.0
Tb156 Tb 0.52246 0.04232 0.70415 0.0
C157 C 0.49195 0.94583 0.64354 0.0
N158 N 0.50725 0.95875 0.60895 0.0
C159 C 0.53412 0.92671 0.60688 0.0
C160 C 0.49766 0.92315 0.6641 0.0
C161 C 0.5277 0.94923 0.588 0.0
C162 C 0.51921 0.91374 0.64594 0.0
C163 C 0.45349 0.94208 0.69018 0.0
C164 C 0.47026 0.95525 0.65653 0.0
C165 C 0.45954 0.92003 0.71426 0.0
C166 C 0.48158 0.91055 0.70112 0.0
Tb167 Tb 0.49547 0.99549 0.58237 0.0
N168 N 0.46499 0.97647 0.63155 0.0
C169 C 0.43084 0.95097 0.69587 0.0
C170 C 0.44222 0.98368 0.63037 0.0
C171 C 0.42503 0.97157 0.66437 0.0
H172 H 0.53925 0.95916 0.55771 0.0
H173 H 0.40722 0.97791 0.66527 0.0
H174 H 0.48333 0.04914 0.81988 0.0
H175 H 0.58041 0.10756 0.60788 0.0
H176 H 0.43709 0.9987 0.60293 0.0
H177 H 0.41742 0.94144 0.72142 0.0
H178 H 0.56828 0.06769 0.64021 0.0
H179 H 0.55058 0.91939 0.59146 0.0
H180 H 0.447 0.9098 0.74105 0.0
H181 H 0.48578 0.89325 0.71837 0.0
H182 H 0.45717 0.08033 0.85782 0.0
H183 H 0.52427 0.89636 0.66073 0.0
H184 H 0.55397 0.14104 0.62674 0.0
N185 N 0.49927 0.07043 0.74926 0.0
C186 C 0.50232 0.09252 0.72762 0.0
C187 C 0.46959 0.08396 0.82051 0.0
C188 C 0.48847 0.11114 0.74953 0.0
C189 C 0.48427 0.06626 0.79834 0.0
C190 C 0.47135 0.10643 0.79502 0.0
N191 N 0.53518 0.07855 0.67486 0.0
C192 C 0.55668 0.08222 0.64834 0.0
C193 C 0.5273 0.11982 0.67189 0.0
C194 C 0.52125 0.0968 0.68927 0.0
C195 C 0.54858 0.1236 0.64065 0.0
C196 C 0.56359 0.10476 0.63016 0.0
H197 H 0.46028 0.12021 0.81306 0.0
H198 H 0.48251 0.14851 0.74375 0.0
H199 H 0.5167 0.15614 0.67582 0.0
O200 O 0.54706 0.02134 0.74913 0.0
O201 O 0.52175 0.05242 0.60349 0.0
O202 O 0.48985 0.03273 0.56267 0.0
O203 O 0.54063 0.05625 0.78256 0.0
O204 O 0.54811 0.02756 0.63775 0.0
O205 O 0.53233 1.00259 0.56085 0.0
O206 O 0.47483 0.97568 0.52019 0.0
O207 O 0.51804 0.98726 0.66388 0.0
O208 O 0.50457 0.01115 0.73992 0.0
O209 O 0.50421 0.99525 0.48578 0.0
O210 O 0.47105 0.02256 0.61785 0.0
O211 O 0.48592 0.0307 0.71629 0.0
C212 C 0.50584 0.04937 0.55912 0.0
C213 C 0.57896 0.04031 0.79455 0.0
C214 C 0.6162 0.02119 0.81614 0.0
C215 C 0.62759 0.04298 0.80997 0.0
C216 C 0.59052 0.06189 0.78848 0.0
C217 C 0.6148 0.06312 0.79586 0.0
C218 C 0.59191 0.02015 0.80737 0.0
C219 C 0.54995 0.01395 0.58747 0.0
C220 C 0.5535 0.03766 0.78799 0.0
C221 C 0.49313 0.13398 0.72816 0.0
C222 C 0.5126 0.13833 0.68948 0.0
C223 C 0.51073 0.9902 0.72198 0.0
C224 C 0.47109 0.99261 0.42063 0.0
C225 C 0.43812 0.01636 0.38754 0.0
C226 C 0.44219 0.00964 0.32475 0.0
C227 C 0.47509 0.98619 0.35782 0.0
C228 C 0.45264 1.00782 0.4354 0.0
C229 C 0.46067 0.99472 0.31005 0.0
C230 C 0.4683 0.02978 0.67652 0.0
C231 C 0.48588 0.98298 0.47057 0.0
H232 H 0.64626 0.04464 0.81742 0.0
H233 H 0.58089 0.07769 0.7782 0.0
H234 H 0.62371 0.07979 0.79145 0.0
H235 H 0.58282 1.0035 0.81032 0.0
H236 H 0.43118 0.0161 0.28707 0.0
H237 H 0.48926 0.9745 0.34585 0.0
H238 H 0.44949 0.01284 0.48398 0.0
H239 H 0.46376 0.9897 0.26156 0.0
Tb240 Tb 0.53661 0.49962 0.57412 0.0
C241 C 0.46199 0.49816 0.77507 0.0
N242 N 0.46057 0.5066 0.71536 0.0
C243 C 0.42423 0.48627 0.69994 0.0
C244 C 0.4451 0.48242 0.79866 0.0
C245 C 0.44155 0.50173 0.67851 0.0
C246 C 0.42616 0.47632 0.75996 0.0
C247 C 0.48221 0.49781 0.8753 0.0
C248 C 0.48034 0.5057 0.81253 0.0
C249 C 0.4661 0.48121 0.89829 0.0
C250 C 0.44754 0.47357 0.86007 0.0
Tb251 Tb 0.48982 0.53133 0.68455 0.0
N252 N 0.49534 0.52201 0.7888 0.0
C253 C 0.49959 0.50757 0.91377 0.0
C254 C 0.51057 0.53331 0.82826 0.0
C255 C 0.51347 0.52579 0.89053 0.0
H256 H 0.43999 0.50947 0.63225 0.0
H257 H 0.52608 0.53439 0.92091 0.0
H258 H 0.58662 0.50066 0.65711 0.0
H259 H 0.52266 0.52137 0.33028 0.0
H260 H 0.52017 0.54851 0.8126 0.0
H261 H 0.50163 0.502 0.96228 0.0
H262 H 0.51416 0.50177 0.43196 0.0
H263 H 0.40942 0.48201 0.67019 0.0
H264 H 0.46742 0.47473 0.94616 0.0
H265 H 0.43493 0.4612 0.87887 0.0
H266 H 0.62357 0.52288 0.65606 0.0
H267 H 0.41278 0.46428 0.77633 0.0
H268 H 0.55751 0.54706 0.32022 0.0
N269 N 0.57302 0.51701 0.57469 0.0
C270 C 0.57851 0.5301 0.52336 0.0
C271 C 0.61086 0.52545 0.61892 0.0
C272 C 0.59993 0.54232 0.51897 0.0
C273 C 0.58953 0.51331 0.62021 0.0
C274 C 0.61589 0.54043 0.56868 0.0
N275 N 0.54359 0.51664 0.47862 0.0
C276 C 0.5294 0.51292 0.42772 0.0
C277 C 0.56895 0.54118 0.41627 0.0
C278 C 0.5634 0.52955 0.47289 0.0
C279 C 0.55386 0.53848 0.36471 0.0
C280 C 0.53418 0.52396 0.37019 0.0
H281 H 0.63256 0.54954 0.56726 0.0
H282 H 0.62137 0.56481 0.45996 0.0
H283 H 0.59415 0.56382 0.36982 0.0
O284 O 0.527 0.46947 0.52463 0.0
O285 O 0.52297 0.5339 0.54465 0.0
O286 O 0.51726 0.55242 0.63875 0.0
O287 O 0.5624 0.47417 0.55582 0.0
O288 O 0.49932 0.49436 0.54888 0.0
O289 O 0.47869 0.52639 0.5865 0.0
O290 O 0.47423 0.55549 0.74608 0.0
O291 O 0.48878 0.49283 0.67011 0.0
O292 O 0.52737 0.48401 0.66486 0.0
O293 O 0.466 0.5557 0.64757 0.0
O294 O 0.52711 0.53905 0.70461 0.0
O295 O 0.54566 0.50518 0.67449 0.0
C296 C 0.52059 0.55322 0.57744 0.0
C297 C 0.54491 0.43646 0.56617 0.0
C298 C 0.522 0.40063 0.57851 0.0
C299 C 0.53416 0.39558 0.63427 0.0
C300 C 0.55726 0.43107 0.62159 0.0
C301 C 0.552 0.41059 0.65503 0.0
C302 C 0.52771 0.42091 0.54459 0.0
C303 C 0.48167 0.50922 0.54575 0.0
C304 C 0.54694 0.45938 0.53465 0.0
C305 C 0.60511 0.5551 0.46401 0.0
C306 C 0.58965 0.55449 0.41263 0.0
C307 C 0.50608 0.47847 0.68209 0.0
C308 C 0.47098 0.59218 0.69622 0.0
C309 C 0.49838 0.62403 0.718 0.0
C310 C 0.48609 0.63837 0.67588 0.0
C311 C 0.45872 0.6068 0.65479 0.0
C312 C 0.49062 0.60106 0.72849 0.0
C313 C 0.46624 0.62981 0.64487 0.0
C314 C 0.5446 0.5242 0.70957 0.0
C315 C 0.46479 0.56718 0.7003 0.0
H316 H 0.53003 0.38002 0.66128 0.0
H317 H 0.57041 0.44293 0.6401 0.0
H318 H 0.56138 0.40664 0.69803 0.0
H319 H 0.51786 0.42526 0.5025 0.0
H320 H 0.49182 0.65616 0.66711 0.0
H321 H 0.44369 0.60024 0.62901 0.0
H322 H 0.5006 0.58986 0.75961 0.0
H323 H 0.45686 0.64093 0.61235 0.0
Tb324 Tb 0.02239 0.54249 0.58807 0.0
C325 C 0.0283 0.45623 0.74989 0.0
N326 N 0.0135 0.45959 0.70054 0.0
C327 C 0.02327 0.42166 0.65993 0.0
C328 C 0.04215 0.43598 0.75428 0.0
C329 C 0.0096 0.44187 0.6584 0.0
C330 C 0.04002 0.41894 0.70725 0.0
C331 C 0.04139 0.46841 0.85377 0.0
C332 C 0.02794 0.47213 0.79909 0.0
C333 C 0.05638 0.44906 0.85661 0.0
C334 C 0.05678 0.43288 0.80689 0.0
Tb335 Tb 0.99412 0.49466 0.70118 0.0
N336 N 0.01346 0.49076 0.79441 0.0
C337 C 0.03877 0.48385 0.90457 0.0
C338 C 0.00961 0.50498 0.84514 0.0
C339 C 0.02246 0.50194 0.90067 0.0
H340 H 0.99587 0.44308 0.62361 0.0
H341 H 0.01985 0.51357 0.94028 0.0
H342 H 0.99438 0.58957 0.63506 0.0
H343 H 0.03419 0.50706 0.35334 0.0
H344 H 0.99701 0.51893 0.84221 0.0
H345 H 0.04875 0.48157 0.94754 0.0
H346 H 0.04548 0.51508 0.46347 0.0
H347 H 0.02059 0.40802 0.62522 0.0
H348 H 0.06715 0.44606 0.89782 0.0
H349 H 0.06779 0.41759 0.81068 0.0
H350 H 0.96383 0.61598 0.59344 0.0
H351 H 0.05034 0.40312 0.70884 0.0
H352 H 0.99951 0.52643 0.30742 0.0
N353 N 0.99494 0.56825 0.55293 0.0
C354 C 0.98737 0.56536 0.49284 0.0
C355 C 0.97018 0.60168 0.56482 0.0
C356 C 0.96994 0.57981 0.46714 0.0
C357 C 0.98743 0.58674 0.58827 0.0
C358 C 0.96111 0.59797 0.50433 0.0
N359 N 0.01576 0.53617 0.48266 0.0
C360 C 0.02957 0.52255 0.44521 0.0
C361 C 0.9913 0.5452 0.39326 0.0
C362 C 0.99787 0.54835 0.45676 0.0
C363 C 1.00398 0.52941 0.35644 0.0
C364 C 0.02353 0.51841 0.38221 0.0
H365 H 0.9477 0.60951 0.48636 0.0
H366 H 0.94872 0.5866 0.38449 0.0
H367 H 0.96747 0.55624 0.3196 0.0
O368 O 0.0477 0.55947 0.53174 0.0
O369 O 0.9842 0.53945 0.60408 0.0
O370 O 0.97727 0.50039 0.60989 0.0
O371 O 0.0421 0.56988 0.62754 0.0
O372 O 0.03211 0.50568 0.56854 0.0
O373 O 1.00049 0.48367 0.60265 0.0
O374 O 0.95901 0.50071 0.72231 0.0
O375 O 0.0272 0.51239 0.72647 0.0
O376 O 0.04559 0.51672 0.63203 0.0
O377 O 0.97491 0.46835 0.74922 0.0
O378 O 0.98713 0.53141 0.72845 0.0
O379 O 0.01704 0.55418 0.68564 0.0
C380 C 0.97143 0.52112 0.58906 0.0
C381 C 0.08096 0.56766 0.59524 0.0
C382 C 0.11582 0.54299 0.59171 0.0
C383 C 0.1252 0.5559 0.6425 0.0
C384 C 0.09098 0.58059 0.64464 0.0
C385 C 0.11299 0.57474 0.66797 0.0
C386 C 0.09372 0.54929 0.568 0.0
C387 C 0.01841 0.48706 0.56428 0.0
C388 C 0.05608 0.5711 0.57945 0.0
C389 C 0.96235 0.57593 0.40497 0.0
C390 C 0.97299 0.5586 0.36809 0.0
C391 C 0.04648 0.51291 0.69299 0.0
C392 C 0.9471 0.48471 0.81934 0.0
C393 C 0.93121 0.51068 0.90037 0.0
C394 C 0.92405 0.49083 0.9349 0.0
C395 C 0.93985 0.46524 0.85442 0.0
C396 C 0.94354 0.50724 0.84388 0.0
C397 C 0.9287 0.46833 0.91243 0.0
C398 C 1.00035 0.5505 0.72752 0.0
C399 C 0.95678 0.48173 0.75538 0.0
H400 H 0.14177 0.55126 0.6636 0.0
H401 H 0.08137 0.59467 0.66677 0.0
H402 H 0.12036 0.58447 0.70707 0.0
H403 H 0.08614 0.53965 0.52906 0.0
H404 H 0.91416 0.49254 0.97814 0.0
H405 H 0.94246 0.4477 0.8365 0.0
H406 H 0.94985 0.52219 0.8178 0.0
H407 H 0.92293 0.45323 0.93912 0.0
C408 C 0.18845 0.07142 0.14193 0.0
C409 C 0.20787 0.05645 0.14218 0.0
C410 C 0.16923 0.06716 0.18167 0.0
C411 C 0.15644 0.03926 0.33491 0.0
H412 H 0.09148 0.05108 0.29404 0.0
C413 C 0.08312 0.01799 0.51278 0.0
C414 C 0.06334 0.03251 0.51683 0.0
C415 C 0.09969 0.02091 0.46488 0.0
C416 C 0.10955 0.048 0.30661 0.0
H417 H 0.22223 0.02508 0.18325 0.0
H418 H 0.18857 0.01728 0.25182 0.0
H419 H 0.12145 0.05474 0.21212 0.0
H420 H 0.04576 0.06168 0.47247 0.0
H421 H 0.07507 0.06715 0.38925 0.0
H422 H 0.14491 0.03305 0.42932 0.0
C423 C 0.18812 0.03237 0.22102 0.0
C424 C 0.12677 0.04998 0.2594 0.0
C425 C 0.20725 0.03657 0.18098 0.0
C426 C 0.06073 0.05017 0.47113 0.0
C427 C 0.0775 0.05319 0.42301 0.0
C428 C 0.13934 0.03744 0.38201 0.0
C429 C 0.16915 0.04803 0.22346 0.0
C430 C 0.15046 0.04546 0.27279 0.0
C431 C 0.09731 0.0386 0.41928 0.0
C432 C 0.11556 0.04157 0.36869 0.0
H433 H 0.18878 0.08722 0.11378 0.0
H434 H 0.15512 0.07971 0.18246 0.0
H435 H 0.17452 0.03624 0.34765 0.0
H436 H 0.08581 1.00399 0.54632 0.0
H437 H 0.11427 1.00893 0.46322 0.0
C438 C 0.50224 0.21179 0.17895 0.0
C439 C 0.48289 0.21228 0.13811 0.0
C440 C 0.50729 0.1917 0.21441 0.0
C441 C 0.47597 0.13955 0.27925 0.0
H442 H 0.53717 0.12421 0.34542 0.0
C443 C 0.49012 0.06217 0.45326 0.0
C444 C 0.50484 0.06633 0.50527 0.0
C445 C 0.48862 0.07826 0.4034 0.0
C446 C 0.51991 0.12833 0.32771 0.0
H447 H 0.45445 0.19165 0.09994 0.0
H448 H 0.46396 0.15616 0.15856 0.0
H449 H 0.53357 0.15405 0.26382 0.0
H450 H 0.53015 0.09074 0.54341 0.0
H451 H 0.52774 0.11868 0.45731 0.0
H452 H 0.46235 0.11385 0.34331 0.0
C453 C 0.47499 0.17144 0.16477 0.0
C454 C 0.51782 0.14553 0.28072 0.0
C455 C 0.46983 0.19162 0.12977 0.0
C456 C 0.51854 0.08685 0.50487 0.0
C457 C 0.51723 0.1029 0.45492 0.0
C458 C 0.47809 0.12225 0.32582 0.0
C459 C 0.4931 0.1715 0.20997 0.0
C460 C 0.49577 0.15165 0.25614 0.0
C461 C 0.50209 0.09896 0.40358 0.0
C462 C 0.50005 0.11657 0.35136 0.0
H463 H 0.51212 0.22767 0.18801 0.0
H464 H 0.52126 0.19274 0.24879 0.0
H465 H 0.45859 0.14395 0.26304 0.0
H466 H 0.47978 0.04637 0.4509 0.0
H467 H 0.47702 0.07434 0.36436 0.0
C468 C 0.33345 0.46786 0.13683 0.0
C469 C 0.31597 0.48493 0.1308 0.0
C470 C 0.35386 0.47239 0.17173 0.0
C471 C 0.37196 0.5086 0.3074 0.0
H472 H 0.43345 0.48272 0.277 0.0
C473 C 0.44786 0.52481 0.48271 0.0
C474 C 0.4641 0.50684 0.49377 0.0
C475 C 0.4313 0.52301 0.43423 0.0
C476 C 0.41632 0.48985 0.28673 0.0
H477 H 0.30676 0.52049 0.15407 0.0
H478 H 0.3426 0.52873 0.21351 0.0
H479 H 0.40309 0.47916 0.19626 0.0
H480 H 0.47549 0.47281 0.46137 0.0
H481 H 0.44622 0.46938 0.37767 0.0
H482 H 0.38471 0.51869 0.39823 0.0
C483 C 0.34051 0.51172 0.19171 0.0
C484 C 0.3989 0.48791 0.2401 0.0
C485 C 0.32016 0.5072 0.15646 0.0
C486 C 0.46331 0.48702 0.45441 0.0
C487 C 0.44656 0.48514 0.40595 0.0
C488 C 0.38926 0.5104 0.35404 0.0
C489 C 0.35717 0.49404 0.20221 0.0
C490 C 0.37643 0.49727 0.24974 0.0
C491 C 0.43018 0.50309 0.39524 0.0
C492 C 0.41177 0.50107 0.34466 0.0
H493 H 0.3304 0.45033 0.11917 0.0
H494 H 0.36612 0.45827 0.17886 0.0
H495 H 0.35476 0.51552 0.31749 0.0
H496 H 0.448 0.54051 0.51128 0.0
H497 H 0.41948 0.53749 0.42703 0.0
C498 C 0.06572 0.3394 0.1567 0.0
C499 C 0.04779 0.32257 0.15118 0.0
C500 C 0.06204 0.3603 0.18981 0.0
C501 C 0.01708 0.39766 0.26925 0.0
H502 H 0.06708 0.40918 0.38904 0.0
C503 C 1.00358 0.45595 0.49027 0.0
C504 C 0.02231 0.46969 0.51271 0.0
C505 C 1.00678 0.43986 0.44115 0.0
C506 C 0.05305 0.4066 0.35542 0.0
H507 H 0.01149 0.31531 0.17238 0.0
H508 H 1.00478 0.35197 0.22869 0.0
H509 H 0.07188 0.37956 0.3079 0.0
H510 H 0.0593 0.47687 0.50127 0.0
H511 H 0.06484 0.44931 0.41449 0.0
H512 H 0.99818 0.42462 0.31713 0.0
C513 C 0.02173 0.34914 0.20734 0.0
C514 C 0.05583 0.38952 0.30854 0.0
C515 C 0.02546 0.32819 0.17421 0.0
C516 C 0.04442 0.46677 0.48482 0.0
C517 C 0.04762 0.45073 0.43532 0.0
C518 C 0.01435 0.41487 0.31598 0.0
C519 C 0.04032 0.36493 0.21847 0.0
C520 C 0.03782 0.3846 0.26501 0.0
C521 C 0.02883 0.437 0.41258 0.0
C522 C 0.03219 0.41946 0.36039 0.0
H523 H 0.08325 0.33536 0.14072 0.0
H524 H 0.07665 0.37221 0.1961 0.0
H525 H 1.0029 0.39458 0.23635 0.0
H526 H 0.98627 0.45774 0.51042 0.0
H527 H 0.99192 0.42942 0.42624 0.0
C528 C 0.84456 0.97373 0.16662 0.0
C529 C 0.82575 0.98946 0.16901 0.0
C530 C 0.864 0.97819 0.12819 0.0
C531 C 0.89593 0.02216 0.03198 0.0
H532 H 0.90869 0.96904 0.92395 0.0
C533 C 0.95651 0.02988 0.81162 0.0
C534 C 0.96952 0.01027 0.79267 0.0
C535 C 0.94014 0.02827 0.86083 0.0
C536 C 0.90586 0.98399 0.95424 0.0
H537 H 0.81337 0.02296 0.13601 0.0
H538 H 0.84778 0.03117 0.06998 0.0
H539 H 0.87969 0.96555 1.00702 0.0
H540 H 0.97486 0.97338 0.81011 0.0
H541 H 0.94768 0.97083 0.89797 0.0
H542 H 0.92239 0.04054 0.97989 0.0
C543 C 0.84741 0.01531 0.09787 0.0
C544 C 0.88904 0.98198 1.00202 0.0
C545 C 0.82779 0.01075 0.13622 0.0
C546 C 0.96573 0.98903 0.82444 0.0
C547 C 0.94963 0.98748 0.87426 0.0
C548 C 0.91308 0.0241 0.98462 0.0
C549 C 0.86524 0.99855 0.09115 0.0
C550 C 0.88379 1.001 0.04158 0.0
C551 C 0.93636 1.00702 0.89307 0.0
C552 C 0.91832 1.00504 0.94474 0.0
H553 H 0.84338 0.95708 0.19078 0.0
H554 H 0.87758 0.9651 0.12511 0.0
H555 H 0.89239 0.03714 0.0617 0.0
H556 H 0.95884 0.04652 0.78798 0.0
H557 H 0.93011 0.04367 0.87256 0.0
C558 C 0.51396 0.8226 0.08991 0.0
C559 C 0.53364 0.82187 0.12957 0.0
C560 C 0.5094 0.84243 0.05283 0.0
C561 C 0.54208 0.8918 0.9794 0.0
H562 H 0.48064 0.91208 0.926 0.0
C563 C 0.52982 0.954 0.76563 0.0
C564 C 0.51256 0.97131 0.77003 0.0
C565 C 0.53146 0.93634 0.81141 0.0
C566 C 0.49796 0.9068 0.94067 0.0
H567 H 0.56339 0.8417 0.16336 0.0
H568 H 0.55499 0.87665 0.10119 0.0
H569 H 0.48417 0.88197 1.00705 0.0
H570 H 0.48361 0.98377 0.8263 0.0
H571 H 0.48656 0.95324 0.90649 0.0
H572 H 0.55591 0.91673 0.91368 0.0
C573 C 0.5432 0.86182 0.09763 0.0
C574 C 0.49999 0.88931 0.98692 0.0
C575 C 0.54777 0.84197 0.13446 0.0
C576 C 0.49708 0.97065 0.82152 0.0
C577 C 0.49866 0.95298 0.86722 0.0
C578 C 0.54006 0.90922 0.93318 0.0
C579 C 0.52453 0.862 0.05418 0.0
C580 C 0.5221 0.88149 1.00702 0.0
C581 C 0.51593 0.93557 0.86308 0.0
C582 C 0.51798 0.91696 0.91283 0.0
H583 H 0.50322 0.8071 0.08359 0.0
H584 H 0.49496 0.8417 0.01984 0.0
H585 H 0.55944 0.88608 0.99249 0.0
H586 H 0.54219 0.95419 0.72697 0.0
H587 H 0.54483 0.92316 0.80592 0.0
C588 C 0.70546 0.53696 0.10302 0.0
C589 C 0.7096 0.56012 0.1225 0.0
C590 C 0.68597 0.53141 0.06506 0.0
C591 C 0.62923 0.55578 1.00276 0.0
H592 H 0.64004 0.51273 0.86479 0.0
C593 C 0.56761 0.55004 0.78437 0.0
C594 C 0.5626 0.52769 0.75989 0.0
C595 C 0.58451 0.55305 0.83191 0.0
C596 C 0.63658 0.52463 0.90339 0.0
H597 H 0.69572 0.59526 0.12044 0.0
H598 H 0.66222 0.58582 0.05465 0.0
H599 H 0.67035 0.51877 0.94409 0.0
H600 H 0.57137 0.49096 0.76719 0.0
H601 H 0.60093 0.49622 0.84901 0.0
H602 H 0.59565 0.56201 0.96098 0.0
C603 C 0.6737 0.57175 0.06852 0.0
C604 C 0.654 0.52803 0.94928 0.0
C605 C 0.69307 0.57724 0.10625 0.0
C606 C 0.57496 0.50848 0.78422 0.0
C607 C 0.59196 0.5115 0.83125 0.0
C608 C 0.61189 0.55249 0.95663 0.0
C609 C 0.6701 0.54887 0.04581 0.0
C610 C 0.65072 0.54383 0.99951 0.0
C611 C 0.59702 0.53382 0.85589 0.0
C612 C 0.61535 0.53699 0.90596 0.0
H613 H 0.71793 0.52339 0.11423 0.0
H614 H 0.68365 0.5135 0.04964 0.0
H615 H 0.62572 0.56776 0.0411 0.0
H616 H 0.55854 0.56524 0.76652 0.0
H617 H 0.58805 0.57054 0.8491 0.0
C618 C 0.95806 0.69421 0.14471 0.0
C619 C 0.97595 0.71054 0.15746 0.0
C620 C 0.96237 0.67431 0.10787 0.0
C621 C 1.00252 0.65586 0.98028 0.0
H622 H 0.96907 0.59689 0.99245 0.0
C623 C 0.01734 0.5816 0.79827 0.0
C624 C 0.99805 0.56778 0.77999 0.0
C625 C 0.0156 0.59751 0.84842 0.0
C626 C 0.97841 0.61333 0.98783 0.0
H627 H 0.01276 0.71797 0.14454 0.0
H628 H 0.02061 0.68286 0.08202 0.0
H629 H 0.96532 0.62583 0.07646 0.0
H630 H 0.96163 0.56056 0.79908 0.0
H631 H 0.95841 0.58836 0.88638 0.0
H632 H 0.01522 0.64372 0.89125 0.0
C633 C 1.00306 0.68559 0.09965 0.0
C634 C 0.97631 0.62996 0.03636 0.0
C635 C 0.99872 0.70549 0.13673 0.0
C636 C 0.97692 0.57047 0.81297 0.0
C637 C 0.97512 0.58647 0.86306 0.0
C638 C 1.00458 0.63929 0.9318 0.0
C639 C 0.98473 0.67024 0.08231 0.0
C640 C 0.98826 0.65156 0.03325 0.0
C641 C 0.99444 0.60029 0.88166 0.0
C642 C 0.99249 0.61777 0.93451 0.0
H643 H 0.94023 0.69789 0.15879 0.0
H644 H 0.94773 0.66312 0.09556 0.0
H645 H 0.01158 0.67243 0.97504 0.0
H646 H 0.03401 0.57988 0.77443 0.0
H647 H 0.03103 0.60742 0.86159 0.0
C648 C 0.08474 0.23166 0.27514 0.0
C649 C 0.07471 0.25397 0.26877 0.0
C650 C 0.08669 0.22114 0.33454 0.0
C651 C 0.0557 0.22483 0.48647 0.0
H652 H 0.09219 0.16945 0.52106 0.0
C653 C 0.01438 0.15611 0.63548 0.0
C654 C 0.01148 0.13642 0.5964 0.0
C655 C 0.03247 0.17214 0.62386 0.0
C656 C 0.08216 0.18518 0.51295 0.0
H657 H 0.06077 0.28324 0.32316 0.0
H658 H 0.06665 0.26614 0.42457 0.0
H659 H 0.10544 0.19697 0.44032 0.0
H660 H 0.02725 0.11686 0.51935 0.0
H661 H 0.05832 0.14422 0.50015 0.0
H662 H 0.03175 0.21255 0.55587 0.0
C663 C 0.07178 0.25614 0.38352 0.0
C664 C 0.08959 0.20082 0.4662 0.0
C665 C 0.06891 0.26624 0.32437 0.0
C666 C 0.02875 0.13167 0.55089 0.0
C667 C 0.04685 0.14748 0.53982 0.0
C668 C 0.04845 0.20939 0.53334 0.0
C669 C 0.07931 0.23295 0.38932 0.0
C670 C 0.07563 0.22006 0.44967 0.0
C671 C 0.04798 0.16865 0.57319 0.0
C672 C 0.0607 0.18858 0.54407 0.0
H673 H 0.09026 0.2218 0.23428 0.0
H674 H 0.09263 0.20323 0.33673 0.0
H675 H 0.04424 0.23925 0.47543 0.0
H676 H 1.00187 0.15988 0.6724 0.0
H677 H 0.0332 0.18813 0.65118 0.0
C678 C 0.27472 0.10996 0.2361 0.0
C679 C 0.28268 0.09921 0.18007 0.0
C680 C 0.2902 0.11445 0.28602 0.0
C681 C 0.35282 0.11423 0.33178 0.0
H682 H 0.33552 0.06332 0.44333 0.0
C683 C 0.39583 0.02608 0.38344 0.0
C684 C 0.41853 0.03214 0.40244 0.0
C685 C 0.37769 0.04211 0.38921 0.0
C686 C 0.34051 0.07809 0.41421 0.0
H687 H 0.31432 0.08748 0.13198 0.0
H688 H 0.34065 0.09683 0.21551 0.0
H689 H 0.30527 0.08378 0.38459 0.0
H690 H 0.43992 0.05898 0.44613 0.0
H691 H 0.40827 0.08763 0.45351 0.0
H692 H 0.3883 0.10672 0.3558 0.0
C693 C 0.32239 0.10135 0.22147 0.0
C694 C 0.32317 0.08996 0.38092 0.0
C695 C 0.30698 0.09602 0.17282 0.0
C696 C 0.42257 0.054 0.43082 0.0
C697 C 0.40448 0.07031 0.43534 0.0
C698 C 0.37015 0.10249 0.36546 0.0
C699 C 0.31405 0.10934 0.27971 0.0
C700 C 0.32944 0.10662 0.3352 0.0
C701 C 0.38201 0.06469 0.41306 0.0
C702 C 0.36423 0.08299 0.40257 0.0
H703 H 0.25639 0.1137 0.2432 0.0
H704 H 0.28336 0.12067 0.33058 0.0
H705 H 0.35804 0.12715 0.29708 0.0
H706 H 0.39231 0.00924 0.36186 0.0
H707 H 0.36066 0.03738 0.37062 0.0
C708 C 0.41859 0.2929 0.22265 0.0
C709 C 0.43595 0.27561 0.22596 0.0
C710 C 0.41208 0.30531 0.27686 0.0
C711 C 0.42736 0.31145 0.44972 0.0
H712 H 0.44 0.37518 0.39804 0.0
C713 C 0.48441 0.37807 0.59332 0.0
C714 C 0.50303 0.38537 0.5545 0.0
C715 C 0.46512 0.36624 0.56714 0.0
C716 C 0.43595 0.35759 0.41376 0.0
H717 H 0.45867 0.2567 0.29023 0.0
H718 H 0.44768 0.27792 0.3825 0.0
H719 H 0.42192 0.3484 0.32425 0.0
H720 H 0.51683 0.38497 0.45933 0.0
H721 H 0.48356 0.36458 0.41408 0.0
H722 H 0.44444 0.32025 0.53667 0.0
C723 C 0.43852 0.28188 0.33914 0.0
C724 C 0.42534 0.34217 0.37154 0.0
C725 C 0.445 0.2696 0.28542 0.0
C726 C 0.50251 0.37993 0.49006 0.0
C727 C 0.48336 0.36846 0.4641 0.0
C728 C 0.43838 0.32684 0.4917 0.0
C729 C 0.42297 0.30076 0.33519 0.0
C730 C 0.42299 0.31836 0.38699 0.0
C731 C 0.46425 0.36194 0.50191 0.0
C732 C 0.44453 0.34941 0.4717 0.0
H733 H 0.41089 0.29762 0.1778 0.0
H734 H 0.3997 0.31946 0.27225 0.0
H735 H 0.42486 0.29343 0.46401 0.0
H736 H 0.48441 0.38219 0.64317 0.0
H737 H 0.45075 0.36097 0.59733 0.0
C738 C 0.25015 0.4621 0.28291 0.0
C739 C 0.24431 0.45188 0.22465 0.0
C740 C 0.23586 0.45885 0.33531 0.0
C741 C 0.20356 0.45009 0.44398 0.0
H742 H 0.1423 0.47046 0.38905 0.0
C743 C 0.11683 0.50362 0.53737 0.0
C744 C 0.12881 0.52283 0.56421 0.0
C745 C 0.12906 0.48537 0.509 0.0
C746 C 0.15903 0.46417 0.40574 0.0
H747 H 0.22021 0.42813 0.17776 0.0
H748 H 0.19477 0.42295 0.26953 0.0
H749 H 0.16865 0.4527 0.31367 0.0
H750 H 0.16341 0.53743 0.58183 0.0
H751 H 0.18452 0.50575 0.53265 0.0
H752 H 0.19447 0.46346 0.53504 0.0
C753 C 0.21042 0.43358 0.27417 0.0
C754 C 0.17417 0.45387 0.36244 0.0
C755 C 0.22489 0.43669 0.22159 0.0
C756 C 0.15342 0.52285 0.56325 0.0
C757 C 0.16562 0.50456 0.53509 0.0
C758 C 0.18844 0.4605 0.48725 0.0
C759 C 0.21524 0.44548 0.33076 0.0
C760 C 0.19712 0.44811 0.3802 0.0
C761 C 0.15357 0.48585 0.50666 0.0
C762 C 0.16659 0.46889 0.4675 0.0
H763 H 0.26472 0.47418 0.28714 0.0
H764 H 0.23996 0.4686 0.37774 0.0
H765 H 0.22098 0.44535 0.45927 0.0
H766 H 0.09794 0.50258 0.53753 0.0
H767 H 0.11932 0.47114 0.48759 0.0
C768 C 0.93077 0.80338 0.07623 0.0
C769 C 0.94595 0.78419 0.07265 0.0
C770 C 0.92708 0.81755 0.02328 0.0
C771 C 0.94197 0.85447 0.92915 0.0
H772 H 0.96053 0.83175 0.76464 0.0
C773 C 0.01152 0.9017 0.79093 0.0
C774 C 0.01514 0.89765 0.72641 0.0
C775 C 0.99305 0.89094 0.8226 0.0
C776 C 0.95477 0.83881 0.80931 0.0
H777 H 0.96846 0.76434 1.01028 0.0
H778 H 0.96267 0.78882 0.92003 0.0
H779 H 0.94214 0.80532 0.83831 0.0
H780 H 1.00195 0.87923 0.64436 0.0
H781 H 0.96877 0.8616 0.69843 0.0
H782 H 0.95384 0.88814 0.89949 0.0
C783 C 0.95279 0.79283 0.96218 0.0
C784 C 0.94448 0.82341 0.85224 0.0
C785 C 0.95628 0.7787 0.01451 0.0
C786 C 0.99953 0.88289 0.69398 0.0
C787 C 0.98056 0.87262 0.72529 0.0
C788 C 0.95143 0.87009 0.88535 0.0
C789 C 0.93878 0.81292 0.96616 0.0
C790 C 0.94007 0.83055 0.91459 0.0
C791 C 0.97734 0.87606 0.7905 0.0
C792 C 0.95996 0.86198 0.82705 0.0
H793 H 0.92239 0.80787 0.12038 0.0
H794 H 0.91589 0.83266 0.02793 0.0
H795 H 0.93834 0.86089 0.97614 0.0
H796 H 0.02353 0.91252 0.8178 0.0
H797 H 0.99193 0.89354 0.87304 0.0
C798 C 0.76173 0.9436 0.05294 0.0
C799 C 0.75841 0.93874 0.11732 0.0
C800 C 0.74576 0.93549 1.00835 0.0
C801 C 0.6836 0.93048 0.01476 0.0
H802 H 0.69168 0.9348 0.83367 0.0
C803 C 0.61854 0.98284 0.87368 0.0
C804 C 0.62916 0.99971 0.83446 0.0
C805 C 0.631 0.96346 0.89458 0.0
C806 C 0.68903 0.93343 0.88411 0.0
H807 H 0.7382 0.91814 0.18387 0.0
H808 H 0.71002 0.90414 0.10572 0.0
H809 H 0.72238 0.91735 0.89811 0.0
H810 H 0.66093 1.00838 0.78337 0.0
H811 H 0.68323 0.97558 0.82377 0.0
H812 H 0.65141 0.94825 1.0023 0.0
C813 C 0.72471 0.91467 0.09003 0.0
C814 C 0.70653 0.92327 0.92095 0.0
C815 C 0.74076 0.92279 0.13484 0.0
C816 C 0.65233 0.9961 0.81469 0.0
C817 C 0.66497 0.97692 0.83676 0.0
C818 C 0.6662 0.94062 0.97812 0.0
C819 C 0.72602 0.92251 0.02723 0.0
C820 C 0.70474 0.92332 0.98713 0.0
C821 C 0.65464 0.96073 0.87848 0.0
C822 C 0.66943 0.94366 0.9129 0.0
H823 H 0.77508 0.9558 0.03738 0.0
H824 H 0.74746 0.94193 0.96055 0.0
H825 H 0.6815 0.93093 0.0655 0.0
H826 H 0.60084 0.98498 0.89076 0.0
H827 H 0.62235 0.95117 0.92582 0.0
C828 C 0.59801 0.73753 0.07438 0.0
C829 C 0.58096 0.75459 0.06203 0.0
C830 C 0.60487 0.72194 0.02705 0.0
C831 C 0.59292 0.70643 0.85766 0.0
H832 H 0.57837 0.64587 0.9298 0.0
C833 C 0.53823 0.64239 0.71565 0.0
C834 C 0.5196 0.63277 0.75022 0.0
C835 C 0.55763 0.65192 0.74651 0.0
C836 C 0.58248 0.66263 0.90866 0.0
H837 H 0.55976 0.77019 0.98838 0.0
H838 H 0.57152 0.74357 0.90721 0.0
H839 H 0.59366 0.67664 0.99686 0.0
H840 H 0.50697 0.62445 0.84371 0.0
H841 H 0.53983 0.6424 0.8981 0.0
H842 H 0.57885 0.69357 0.77152 0.0
C843 C 0.57992 0.74203 0.95277 0.0
C844 C 0.59175 0.68023 0.94701 0.0
C845 C 0.57303 0.75745 0.99985 0.0
C846 C 0.52111 0.63188 0.81607 0.0
C847 C 0.54022 0.64191 0.8471 0.0
C848 C 0.58308 0.68905 0.81971 0.0
C849 C 0.59482 0.72322 0.96661 0.0
C850 C 0.59522 0.7029 0.92292 0.0
C851 C 0.55849 0.65264 0.81278 0.0
C852 C 0.57605 0.66754 0.84605 0.0
H853 H 0.60492 0.73527 0.12152 0.0
H854 H 0.61676 0.70795 0.03893 0.0
H855 H 0.59627 0.72348 0.83715 0.0
H856 H 0.53771 0.64286 0.66482 0.0
H857 H 0.57154 0.65945 0.71832 0.0
C858 C 0.79776 0.62421 0.12808 0.0
C859 C 0.78208 0.60809 0.10082 0.0
C860 C 0.81776 0.63138 0.09515 0.0
C861 C 0.85104 0.61741 0.94588 0.0
H862 H 0.89922 0.60212 0.06701 0.0
C863 C 0.91896 0.55178 0.87369 0.0
C864 C 0.92405 0.53474 0.91959 0.0
C865 C 0.90969 0.57338 0.89069 0.0
C866 C 0.88596 0.60611 0.03228 0.0
H867 H 0.77306 0.58982 0.01458 0.0
H868 H 0.80748 0.60166 0.95817 0.0
H869 H 0.86364 0.62024 0.10274 0.0
H870 H 0.92486 0.5282 0.02029 0.0
H871 H 0.90628 0.56433 0.04938 0.0
H872 H 0.87157 0.60033 0.87694 0.0
C873 C 0.80483 0.60911 1.0045 0.0
C874 C 0.86559 0.61718 0.05267 0.0
C875 C 0.78484 0.60216 0.03712 0.0
C876 C 0.92059 0.54048 0.98328 0.0
C877 C 0.91038 0.56173 1.00012 0.0
C878 C 0.87094 0.6055 0.92591 0.0
C879 C 0.8225 0.62225 0.03486 0.0
C880 C 0.84696 0.621 1.01047 0.0
C881 C 0.90391 0.57821 0.95379 0.0
C882 C 0.88777 0.59789 0.96992 0.0
H883 H 0.79569 0.62955 0.17677 0.0
H884 H 0.83047 0.64229 0.11921 0.0
H885 H 0.83767 0.62134 0.91136 0.0
H886 H 0.92098 0.5482 0.82391 0.0
H887 H 0.90602 0.58575 0.85346 0.0
C888 C 0.02753 0.23926 0.0147 0.0
C889 C 0.04959 0.24209 0.04323 0.0
C890 C 0.02362 0.2213 0.97018 0.0
C891 C 0.05455 0.17921 0.86349 0.0
H892 H 0.99885 0.141 0.88291 0.0
C893 C 0.04642 0.08712 0.74866 0.0
C894 C 0.02435 0.07882 0.72938 0.0
C895 C 0.0488 0.10844 0.78111 0.0
C896 C 0.01436 0.15163 0.87582 0.0
H897 H 0.085 0.22885 0.04524 0.0
H898 H 0.07838 0.19807 0.96772 0.0
H899 H 1.00391 0.17596 0.94753 0.0
H900 H 0.98743 0.08746 0.72731 0.0
H901 H 0.9916 0.1247 0.78195 0.0
H902 H 0.06507 0.15495 0.79195 0.0
C903 C 0.064 0.20954 0.97937 0.0
C904 C 0.01726 0.17178 0.91315 0.0
C905 C 0.0678 0.22719 0.02417 0.0
C906 C 1.00477 0.09298 0.7418 0.0
C907 C 1.00713 0.11439 0.77384 0.0
C908 C 0.05159 0.15916 0.82591 0.0
C909 C 0.04177 0.20598 0.95239 0.0
C910 C 0.03759 0.18571 0.90834 0.0
C911 C 0.02917 0.12238 0.79484 0.0
C912 C 0.03162 0.14476 0.83211 0.0
H913 H 0.01309 0.25029 0.02868 0.0
H914 H 1.00631 0.21928 0.95012 0.0
H915 H 0.07026 0.18964 0.85745 0.0
H916 H 0.06194 0.07715 0.73873 0.0
H917 H 0.0661 0.1137 0.79657 0.0
C918 C 0.27674 0.06997 0.92542 0.0
C919 C 0.27402 0.05648 0.9803 0.0
C920 C 0.29454 0.06494 0.88177 0.0
C921 C 0.34268 0.02145 0.84528 0.0
H922 H 0.37216 0.07556 0.76813 0.0
C923 C 0.43941 0.02382 0.76388 0.0
C924 C 0.44427 0.03221 0.70289 0.0
C925 C 0.41693 0.02551 0.78963 0.0
C926 C 0.36398 0.06023 0.78874 0.0
H927 H 0.28766 0.02706 0.03217 0.0
H928 H 0.3188 0.01849 0.95786 0.0
H929 H 0.33575 0.0802 0.82649 0.0
H930 H 0.42923 0.04902 0.62109 0.0
H931 H 0.38986 0.05287 0.66737 0.0
H932 H 0.37193 1.00188 0.81039 0.0
C933 C 0.30687 0.03247 0.94634 0.0
C934 C 0.3429 0.0628 0.8221 0.0
C935 C 0.28883 0.03727 0.98923 0.0
C936 C 0.42603 0.04247 0.66825 0.0
C937 C 0.40355 0.04469 0.69475 0.0
C938 C 0.36398 0.019 0.81305 0.0
C939 C 0.31057 0.04666 0.89272 0.0
C940 C 0.33197 0.0435 0.85181 0.0
C941 C 0.39873 0.03609 0.75569 0.0
C942 C 0.37505 0.0384 0.785 0.0
H943 H 0.26594 0.08523 0.91811 0.0
H944 H 0.29621 0.07601 0.84064 0.0
H945 H 0.33478 1.00595 0.86561 0.0
H946 H 0.45298 0.01557 0.79157 0.0
H947 H 0.41387 0.01885 0.83674 0.0
C948 C 0.49639 0.29696 1.00488 0.0
C949 C 0.47336 0.2893 0.0164 0.0
C950 C 0.5008 0.31589 0.96392 0.0
C951 C 0.47417 0.35278 0.83703 0.0
H952 H 0.51688 0.4005 0.89802 0.0
C953 C 0.48037 0.44488 0.71899 0.0
C954 C 0.50221 0.4563 0.71803 0.0
C955 C 0.47722 0.4239 0.75275 0.0
C956 C 0.50516 0.38727 0.87937 0.0
H957 H 0.43707 0.29491 0.99179 0.0
H958 H 0.44471 0.32737 0.91984 0.0
H959 H 0.51176 0.36447 0.95762 0.0
H960 H 0.53798 0.45425 0.75129 0.0
H961 H 0.53279 0.41772 0.80819 0.0
H962 H 0.46763 0.37547 0.75857 0.0
C963 C 0.45943 0.31892 0.94225 0.0
C964 C 0.50221 0.36649 0.91386 0.0
C965 C 0.45503 0.30028 0.98365 0.0
C966 C 0.52085 0.44606 0.75114 0.0
C967 C 0.51777 0.4251 0.78452 0.0
C968 C 0.47726 0.37349 0.80218 0.0
C969 C 0.48232 0.32743 0.93282 0.0
C970 C 0.48656 0.34896 0.89354 0.0
C971 C 0.4959 0.41362 0.78621 0.0
C972 C 0.49271 0.39121 0.82291 0.0
H973 H 0.51087 0.28909 0.02989 0.0
H974 H 0.51869 0.32175 0.95741 0.0
H975 H 0.46213 0.33963 0.81938 0.0
H976 H 0.46575 0.45205 0.69317 0.0
H977 H 0.46001 0.41591 0.75311 0.0
C978 C 0.22485 0.46259 0.9809 0.0
C979 C 0.23918 0.48078 1.00409 0.0
C980 C 0.20604 0.46724 0.94075 0.0
C981 C 0.1785 0.50795 0.8305 0.0
H982 H 0.12035 0.48331 0.89861 0.0
C983 C 0.08949 0.50345 0.6925 0.0
C984 C 0.06958 0.51104 0.72528 0.0
C985 C 0.1112 0.50139 0.72309 0.0
C986 C 0.1364 0.49038 0.87897 0.0
H987 H 0.24587 0.51802 0.99901 0.0
H988 H 0.21318 0.52613 0.92645 0.0
H989 H 0.15707 0.47663 0.95452 0.0
H990 H 0.05706 0.52293 0.81608 0.0
H991 H 0.09448 0.51827 0.87031 0.0
H992 H 0.15767 0.52123 0.75394 0.0
C993 C 0.21652 0.50825 0.94043 0.0
C994 C 0.15748 0.48644 0.91084 0.0
C995 C 0.23534 0.5036 0.98158 0.0
C996 C 0.07189 0.51656 0.7896 0.0
C997 C 0.09342 0.51406 0.82058 0.0
C998 C 0.15737 0.5115 0.79775 0.0
C999 C 0.2011 0.4902 0.92166 0.0
C1000 C 0.17882 0.49513 0.88713 0.0
C1001 C 0.11338 0.50643 0.78779 0.0
C1002 C 0.13603 0.50281 0.8218 0.0
H1003 H 0.22738 0.4448 0.99696 0.0
H1004 H 0.19476 0.45291 0.92641 0.0
H1005 H 0.19464 0.51482 0.81096 0.0
H1006 H 0.0881 0.49858 0.64348 0.0
H1007 H 0.12613 0.49521 0.69653 0.0
C1008 C 0.96693 0.78901 0.34032 0.0
C1009 C 0.9809 0.78641 0.2863 0.0
C1010 C 0.97112 0.80735 0.38316 0.0
C1011 C 0.01454 0.85426 0.4276 0.0
H1012 H 0.95958 0.88684 0.48777 0.0
C1013 C 0.01965 0.9483 0.52933 0.0
C1014 C 1.00583 0.95372 0.58204 0.0
C1015 C 0.01715 0.92675 0.49845 0.0
C1016 C 0.97516 0.87782 0.4722 0.0
H1017 H 0.01033 0.80082 0.23516 0.0
H1018 H 0.01792 0.83253 0.30966 0.0
H1019 H 0.95504 0.85075 0.42751 0.0
H1020 H 0.97806 0.94123 0.64267 0.0
H1021 H 0.97277 0.90399 0.58684 0.0
H1022 H 0.03462 0.88157 0.47152 0.0
C1023 C 1.00395 0.82028 0.3201 0.0
C1024 C 0.97256 0.85699 0.43759 0.0
C1025 C 0.99971 0.80199 0.27735 0.0
C1026 C 0.98919 0.93731 0.60274 0.0
C1027 C 0.98608 0.91606 0.57037 0.0
C1028 C 0.01713 0.87509 0.46211 0.0
C1029 C 0.98933 0.82369 0.37283 0.0
C1030 C 0.9922 0.84498 0.41405 0.0
C1031 C 1.00029 0.91027 0.51833 0.0
C1032 C 0.99747 0.88737 0.4843 0.0
H1033 H 0.95196 0.77761 0.34758 0.0
H1034 H 0.95965 0.80911 0.42349 0.0
H1035 H 0.03014 0.84543 0.41147 0.0
H1036 H 0.03243 0.96079 0.51194 0.0
H1037 H 0.02809 0.92325 0.45787 0.0
C1038 C 0.73643 0.01161 0.28588 0.0
C1039 C 0.75006 0.99188 0.29959 0.0
C1040 C 0.71644 0.01675 0.32196 0.0
C1041 C 0.68424 1.00179 0.47115 0.0
H1042 H 0.62932 0.01772 0.3733 0.0
C1043 C 0.59373 0.02103 0.58752 0.0
C1044 C 0.57358 0.01225 0.55711 0.0
C1045 C 0.61582 0.01986 0.55857 0.0
C1046 C 0.64442 0.01317 0.40147 0.0
H1047 H 0.75374 0.96246 0.36271 0.0
H1048 H 0.71941 0.97161 0.42647 0.0
H1049 H 0.66719 0.01446 0.3212 0.0
H1050 H 0.56129 0.99513 0.47192 0.0
H1051 H 0.59962 0.99308 0.42179 0.0
H1052 H 0.66131 0.99998 0.55121 0.0
C1053 C 0.72412 0.98336 0.38844 0.0
C1054 C 0.6663 0.01162 0.37162 0.0
C1055 C 0.74396 0.97815 0.35213 0.0
C1056 C 0.57627 1.00213 0.49699 0.0
C1057 C 0.59833 1.00112 0.46789 0.0
C1058 C 0.66236 1.0035 0.50111 0.0
C1059 C 0.70957 1.00228 0.37267 0.0
C1060 C 0.68655 1.00568 0.40581 0.0
C1061 C 0.61847 0.01001 0.49809 0.0
C1062 C 0.64204 1.00897 0.46663 0.0
H1063 H 0.74033 0.02215 0.24473 0.0
H1064 H 0.70591 0.03164 0.30874 0.0
H1065 H 0.69937 0.99733 0.49931 0.0
H1066 H 0.59252 0.02885 0.63394 0.0
H1067 H 0.63079 0.02706 0.5833 0.0
C1068 C 0.51703 0.73989 0.27681 0.0
C1069 C 0.54001 0.74812 0.26725 0.0
C1070 C 0.5127 0.72054 0.31647 0.0
C1071 C 0.54202 0.66688 0.36381 0.0
H1072 H 0.49585 0.66 0.49652 0.0
C1073 C 0.52022 0.577 0.47718 0.0
C1074 C 0.52072 0.57619 0.54355 0.0
C1075 C 0.52085 0.59839 0.44483 0.0
C1076 C 0.50879 0.66167 0.45945 0.0
H1077 H 0.57612 0.74359 0.29548 0.0
H1078 H 0.56863 0.71007 0.36378 0.0
H1079 H 0.49984 0.69756 0.44068 0.0
H1080 H 0.52198 0.5976 0.62741 0.0
H1081 H 0.52129 0.6351 0.57061 0.0
H1082 H 0.55089 0.63111 0.38162 0.0
C1083 C 0.55397 0.71833 0.3405 0.0
C1084 C 0.51098 0.68313 0.42734 0.0
C1085 C 0.55822 0.73769 0.30179 0.0
C1086 C 0.52115 0.59751 0.57656 0.0
C1087 C 0.521 0.61897 0.54414 0.0
C1088 C 0.53952 0.64539 0.39484 0.0
C1089 C 0.53132 0.70895 0.34661 0.0
C1090 C 0.52786 0.68607 0.37967 0.0
C1091 C 0.52127 0.6197 0.47791 0.0
C1092 C 0.52304 0.64251 0.44347 0.0
H1093 H 0.50269 0.74731 0.25026 0.0
H1094 H 0.49504 0.71373 0.32032 0.0
H1095 H 0.55507 0.66849 0.32697 0.0
H1096 H 0.51924 0.5611 0.44991 0.0
H1097 H 0.52075 0.59824 0.39376 0.0
C1098 C 0.78481 0.56726 0.32993 0.0
C1099 C 0.77822 0.55325 0.27831 0.0
C1100 C 0.80352 0.56093 0.36895 0.0
C1101 C 0.858 0.52539 0.36304 0.0
H1102 H 0.86417 0.54598 0.53645 0.0
C1103 C 0.9402 0.50552 0.51668 0.0
C1104 C 0.9489 0.52381 0.55452 0.0
C1105 C 0.91881 0.50774 0.48471 0.0
C1106 C 0.86283 0.54026 0.48788 0.0
H1107 H 0.78539 0.52095 0.22926 0.0
H1108 H 0.81744 0.5092 0.29902 0.0
H1109 H 0.82685 0.5503 0.48215 0.0
H1110 H 0.94165 0.55857 0.58943 0.0
H1111 H 0.90439 0.56255 0.53361 0.0
H1112 H 0.89402 0.51522 0.36926 0.0
C1113 C 0.80847 0.52543 0.30872 0.0
C1114 C 0.84134 0.54274 0.45653 0.0
C1115 C 0.78971 0.53186 0.26943 0.0
C1116 C 0.93561 0.54431 0.55995 0.0
C1117 C 0.9141 0.54646 0.52848 0.0
C1118 C 0.87943 0.52271 0.39464 0.0
C1119 C 0.81629 0.54034 0.35762 0.0
C1120 C 0.8386 0.53563 0.39324 0.0
C1121 C 0.90535 0.52818 0.49045 0.0
C1122 C 0.88225 0.53037 0.45729 0.0
H1123 H 0.77666 0.58411 0.33705 0.0
H1124 H 0.80892 0.57311 0.40528 0.0
H1125 H 0.85695 0.52008 0.31412 0.0
H1126 H 0.95001 0.48949 0.51151 0.0
H1127 H 0.9126 0.49322 0.45635 0.0
loop_
_geom_bond_atom_site_label_1
_geom_bond_atom_site_label_2
_geom_bond_distance
_geom_bond_site_symmetry_2
_ccdc_geom_bond_type
H0 C3 0.931 . S
H1 C6 0.928 . S
H2 C8 0.930 . S
C3 H0 0.931 . S
C3 C4 1.413 . S
C3 C5 1.360 . S
C4 C3 1.413 . S
C4 C8 1.429 . S
C5 C3 1.360 . S
C5 C6 1.372 . S
C6 H1 0.928 . S
C6 C5 1.372 . S
C6 C7 1.404 . S
C7 C6 1.404 . S
C7 C8 1.391 . S
C8 H2 0.930 . S
C8 C4 1.429 . S
C8 C7 1.391 . S
H9 C12 0.931 . S
H10 C15 0.928 . S
H11 C17 0.930 . S
C12 H9 0.931 . S
C12 C13 1.413 . S
C12 C14 1.360 . S
C13 C12 1.413 . S
C13 C17 1.429 . S
C14 C12 1.360 . S
C14 C15 1.372 . S
C15 H10 0.928 . S
C15 C14 1.372 . S
C15 C16 1.404 . S
C16 C15 1.404 . S
C16 C17 1.391 . S
C17 H11 0.930 . S
C17 C13 1.429 . S
C17 C16 1.391 . S
H18 C21 0.931 . S
H19 C24 0.928 . S
H20 C26 0.930 . S
C21 H18 0.931 . S
C21 C22 1.413 . S
C21 C23 1.360 . S
C22 C21 1.413 . S
C22 C26 1.429 . S
C23 C21 1.360 . S
C23 C24 1.372 . S
C24 H19 0.928 . S
C24 C23 1.372 . S
C24 C25 1.404 . S
C25 C24 1.404 . S
C25 C26 1.391 . S
C26 H20 0.930 . S
C26 C22 1.429 . S
C26 C25 1.391 . S
H27 C30 0.931 . S
H28 C33 0.928 . S
H29 C35 0.930 . S
C30 H27 0.931 . S
C30 C31 1.413 . S
C30 C32 1.360 . S
C31 C30 1.413 . S
C31 C35 1.429 . S
C32 C30 1.360 . S
C32 C33 1.372 . S
C33 H28 0.928 . S
C33 C32 1.372 . S
C33 C34 1.404 . S
C34 C33 1.404 . S
C34 C35 1.391 . S
C35 H29 0.930 . S
C35 C31 1.429 . S
C35 C34 1.391 . S
H36 C39 0.931 . S
H37 C42 0.928 . S
H38 C44 0.930 . S
C39 H36 0.931 . S
C39 C40 1.413 1_554 S
C39 C41 1.360 . S
C40 C39 1.413 1_556 S
C40 C44 1.429 . S
C41 C39 1.360 . S
C41 C42 1.372 . S
C42 H37 0.928 . S
C42 C41 1.372 . S
C42 C43 1.404 . S
C43 C42 1.404 . S
C43 C44 1.391 1_554 S
C44 H38 0.930 . S
C44 C40 1.429 . S
C44 C43 1.391 1_556 S
H45 C48 0.931 . S
H46 C51 0.928 . S
H47 C53 0.930 . S
C48 H45 0.931 . S
C48 C49 1.413 1_554 S
C48 C50 1.360 . S
C49 C48 1.413 1_556 S
C49 C53 1.429 . S
C50 C48 1.360 . S
C50 C51 1.372 . S
C51 H46 0.928 . S
C51 C50 1.372 . S
C51 C52 1.404 . S
C52 C51 1.404 . S
C52 C53 1.391 1_554 S
C53 H47 0.930 . S
C53 C49 1.429 . S
C53 C52 1.391 1_556 S
H54 C57 0.931 . S
H55 C60 0.928 . S
H56 C62 0.930 . S
C57 H54 0.931 . S
C57 C58 1.413 1_554 S
C57 C59 1.360 . S
C58 C57 1.413 1_556 S
C58 C62 1.429 . S
C59 C57 1.360 . S
C59 C60 1.372 . S
C60 H55 0.928 . S
C60 C59 1.372 . S
C60 C61 1.404 . S
C61 C60 1.404 . S
C61 C62 1.391 1_554 S
C62 H56 0.930 . S
C62 C58 1.429 . S
C62 C61 1.391 1_556 S
H63 C66 0.931 . S
H64 C69 0.928 . S
H65 C71 0.930 . S
C66 H63 0.931 . S
C66 C67 1.413 . S
C66 C68 1.360 1_554 S
C67 C66 1.413 . S
C67 C71 1.429 . S
C68 C66 1.360 1_556 S
C68 C69 1.372 . S
C69 H64 0.928 . S
C69 C68 1.372 . S
C69 C70 1.404 1_556 S
C70 C69 1.404 1_554 S
C70 C71 1.391 . S
C71 H65 0.930 . S
C71 C67 1.429 . S
C71 C70 1.391 . S
Tb72 N101 2.617 . S
Tb72 N107 2.572 . S
Tb72 O116 2.465 . S
Tb72 O117 2.387 1_545 S
Tb72 O119 2.428 . S
Tb72 O120 2.308 1_655 S
Tb72 O124 2.349 1_655 S
Tb72 O127 2.393 . S
Tb72 C136 2.802 . S
C73 N74 1.379 . S
C73 C76 1.416 . S
C73 C80 1.424 . S
N74 C73 1.379 . S
N74 C77 1.335 1_545 S
N74 Tb83 2.617 1_545 S
C75 C77 1.391 1_545 S
C75 C78 1.339 . S
C75 H95 0.930 . S
C76 C73 1.416 . S
C76 C78 1.416 . S
C76 C82 1.448 . S
C77 N74 1.335 1_565 S
C77 C75 1.391 1_565 S
C77 H88 0.929 . S
C78 C75 1.339 . S
C78 C76 1.416 . S
C78 H99 0.930 . S
C79 C80 1.413 . S
C79 C81 1.427 . S
C79 C85 1.416 . S
C80 C73 1.424 . S
C80 C79 1.413 . S
C80 N84 1.361 . S
C81 C79 1.427 . S
C81 C82 1.328 . S
C81 H96 0.929 . S
C82 C76 1.448 . S
C82 C81 1.328 . S
C82 H97 0.930 . S
Tb83 N74 2.617 1_565 S
Tb83 N84 2.572 1_565 S
Tb83 O118 2.349 . S
Tb83 O121 2.393 . S
Tb83 O122 2.465 . S
Tb83 O123 2.387 1_565 S
Tb83 O125 2.428 . S
Tb83 O126 2.308 1_465 S
Tb83 C147 2.802 . S
N84 C80 1.361 . S
N84 Tb83 2.572 1_545 S
N84 C86 1.340 . S
C85 C79 1.416 . S
C85 C87 1.332 . S
C85 H93 0.931 . S
C86 N84 1.340 . S
C86 C87 1.407 . S
C86 H92 0.907 1_455 S
C87 C85 1.332 . S
C87 C86 1.407 . S
C87 H89 0.929 . S
H88 C77 0.929 . S
H89 C87 0.929 . S
H90 C105 0.930 . S
H91 C112 0.929 1_455 S
H92 C86 0.907 1_655 S
H93 C85 0.931 . S
H94 C108 0.930 1_455 S
H95 C75 0.930 . S
H96 C81 0.929 . S
H97 C82 0.930 . S
H98 C103 0.930 . S
H99 C78 0.930 . S
H100 C111 0.931 . S
N101 Tb72 2.617 . S
N101 C102 1.379 . S
N101 C105 1.334 . S
C102 N101 1.379 . S
C102 C104 1.416 1_545 S
C102 C110 1.424 . S
C103 H98 0.930 . S
C103 C105 1.390 . S
C103 C106 1.327 1_545 S
C104 C102 1.416 1_565 S
C104 C106 1.419 . S
C104 C137 1.448 . S
C105 H90 0.930 . S
C105 N101 1.334 . S
C105 C103 1.390 . S
C106 C103 1.327 1_565 S
C106 C104 1.419 . S
C106 H113 0.940 . S
N107 Tb72 2.572 . S
N107 C108 1.340 . S
N107 C110 1.361 . S
C108 H94 0.930 1_655 S
C108 N107 1.340 . S
C108 C112 1.407 1_545 S
C109 C110 1.413 1_565 S
C109 C111 1.416 . S
C109 C138 1.427 . S
C110 C102 1.424 . S
C110 N107 1.361 . S
C110 C109 1.413 1_545 S
C111 H100 0.931 . S
C111 C109 1.416 . S
C111 C112 1.332 . S
C112 H91 0.929 1_655 S
C112 C108 1.407 1_565 S
C112 C111 1.332 . S
H113 C106 0.940 . S
H114 C137 0.930 . S
H115 C138 0.929 . S
O116 Tb72 2.465 . S
O116 C136 1.264 . S
O117 Tb72 2.387 1_565 S
O117 C128 1.264 . S
O118 Tb83 2.349 . S
O118 C128 1.243 1_455 S
O119 Tb72 2.428 . S
O119 C136 1.256 . S
O120 Tb72 2.308 1_455 S
O120 C135 1.266 . S
O121 Tb83 2.393 . S
O121 C135 1.248 1_565 S
O122 Tb83 2.465 . S
O122 C147 1.264 . S
O123 Tb83 2.387 1_545 S
O123 C139 1.264 . S
O124 Tb72 2.349 1_455 S
O124 C139 1.243 . S
O125 Tb83 2.428 . S
O125 C147 1.256 . S
O126 Tb83 2.308 1_645 S
O126 C146 1.266 . S
O127 Tb72 2.393 . S
O127 C146 1.248 . S
C128 O117 1.264 . S
C128 O118 1.243 1_655 S
C129 C132 1.399 . S
C129 C134 1.383 . S
C129 C136 1.496 . S
C130 C131 1.399 . S
C130 C134 1.389 . S
C131 C130 1.399 . S
C131 C133 1.380 . S
C131 H148 0.929 . S
C132 C129 1.399 . S
C132 C133 1.392 . S
C132 H149 0.929 . S
C133 C131 1.380 . S
C133 C132 1.392 . S
C133 H150 0.929 . S
C134 C129 1.383 . S
C134 C130 1.389 . S
C134 H151 0.931 1_655 S
C135 O120 1.266 . S
C135 O121 1.248 1_545 S
C136 Tb72 2.802 . S
C136 O116 1.264 . S
C136 O119 1.256 . S
C136 C129 1.496 . S
C137 C104 1.448 . S
C137 H114 0.930 . S
C137 C138 1.328 . S
C138 C109 1.427 . S
C138 H115 0.929 . S
C138 C137 1.328 . S
C139 O123 1.264 . S
C139 O124 1.243 . S
C140 C143 1.399 . S
C140 C144 1.383 . S
C140 C147 1.496 . S
C141 C142 1.399 . S
C141 C144 1.389 . S
C142 C141 1.399 . S
C142 C145 1.380 . S
C142 H152 0.929 . S
C143 C140 1.399 . S
C143 C145 1.392 . S
C143 H153 0.929 . S
C144 C140 1.383 . S
C144 C141 1.389 . S
C144 H154 0.931 . S
C145 C142 1.380 . S
C145 C143 1.392 . S
C145 H155 0.929 . S
C146 O126 1.266 . S
C146 O127 1.248 . S
C147 Tb83 2.802 . S
C147 O122 1.264 . S
C147 O125 1.256 . S
C147 C140 1.496 . S
H148 C131 0.929 . S
H149 C132 0.929 . S
H150 C133 0.929 . S
H151 C134 0.931 1_455 S
H152 C142 0.929 . S
H153 C143 0.929 . S
H154 C144 0.931 . S
H155 C145 0.929 . S
Tb156 N185 2.617 . S
Tb156 N191 2.572 . S
Tb156 O200 2.465 . S
Tb156 O201 2.387 . S
Tb156 O203 2.428 . S
Tb156 O204 2.308 . S
Tb156 O208 2.349 1_545 S
Tb156 O211 2.393 . S
Tb156 C220 2.802 . S
C157 N158 1.379 . S
C157 C160 1.416 . S
C157 C164 1.424 . S
N158 C157 1.379 . S
N158 C161 1.334 . S
N158 Tb167 2.617 . S
C159 C161 1.390 . S
C159 C162 1.339 . S
C159 H179 0.930 . S
C160 C157 1.416 . S
C160 C162 1.416 . S
C160 C166 1.448 . S
C161 N158 1.334 . S
C161 C159 1.390 . S
C161 H172 0.930 . S
C162 C159 1.339 . S
C162 C160 1.416 . S
C162 H183 0.930 . S
C163 C164 1.413 . S
C163 C165 1.427 . S
C163 C169 1.416 . S
C164 C157 1.424 . S
C164 C163 1.413 . S
C164 N168 1.361 . S
C165 C163 1.427 . S
C165 C166 1.328 . S
C165 H180 0.929 . S
C166 C160 1.448 . S
C166 C165 1.328 . S
C166 H181 0.930 . S
Tb167 N158 2.617 . S
Tb167 N168 2.572 . S
Tb167 O202 2.349 1_565 S
Tb167 O205 2.393 . S
Tb167 O206 2.465 . S
Tb167 O207 2.387 . S
Tb167 O209 2.428 . S
Tb167 O210 2.308 1_565 S
Tb167 C231 2.802 . S
N168 C164 1.361 . S
N168 Tb167 2.572 . S
N168 C170 1.340 . S
C169 C163 1.416 . S
C169 C171 1.332 . S
C169 H177 0.931 . S
C170 N168 1.340 . S
C170 C171 1.407 . S
C170 H176 0.930 . S
C171 C169 1.332 . S
C171 C170 1.407 . S
C171 H173 0.929 . S
H172 C161 0.930 . S
H173 C171 0.929 . S
H174 C189 0.930 . S
H175 C196 0.929 . S
H176 C170 0.930 . S
H177 C169 0.931 . S
H178 C192 0.930 . S
H179 C159 0.930 . S
H180 C165 0.929 . S
H181 C166 0.930 . S
H182 C187 0.930 . S
H183 C162 0.930 . S
H184 C195 0.931 . S
N185 Tb156 2.617 . S
N185 C186 1.379 . S
N185 C189 1.334 . S
C186 N185 1.379 . S
C186 C188 1.416 . S
C186 C194 1.424 . S
C187 H182 0.930 . S
C187 C189 1.390 . S
C187 C190 1.339 . S
C188 C186 1.416 . S
C188 C190 1.416 . S
C188 C221 1.448 . S
C189 H174 0.930 . S
C189 N185 1.334 . S
C189 C187 1.390 . S
C190 C187 1.339 . S
C190 C188 1.416 . S
C190 H197 0.930 . S
N191 Tb156 2.572 . S
N191 C192 1.340 . S
N191 C194 1.361 . S
C192 H178 0.930 . S
C192 N191 1.340 . S
C192 C196 1.407 . S
C193 C194 1.413 . S
C193 C195 1.416 . S
C193 C222 1.427 . S
C194 C186 1.424 . S
C194 N191 1.361 . S
C194 C193 1.413 . S
C195 H184 0.931 . S
C195 C193 1.416 . S
C195 C196 1.332 . S
C196 H175 0.929 . S
C196 C192 1.407 . S
C196 C195 1.332 . S
H197 C190 0.930 . S
H198 C221 0.930 . S
H199 C222 0.929 . S
O200 Tb156 2.465 . S
O200 C220 1.264 . S
O201 Tb156 2.387 . S
O201 C212 1.264 . S
O202 Tb167 2.349 1_545 S
O202 C212 1.243 . S
O203 Tb156 2.428 . S
O203 C220 1.256 . S
O204 Tb156 2.308 . S
O204 C219 1.255 1_545 S
O205 Tb167 2.393 . S
O205 C219 1.255 . S
O206 Tb167 2.465 . S
O206 C231 1.264 . S
O207 Tb167 2.387 . S
O207 C223 1.264 . S
O208 Tb156 2.349 1_565 S
O208 C223 1.243 . S
O209 Tb167 2.428 . S
O209 C231 1.256 . S
O210 Tb167 2.308 1_545 S
O210 C230 1.266 . S
O211 Tb156 2.393 . S
O211 C230 1.248 . S
C212 O201 1.264 . S
C212 O202 1.243 . S
C213 C216 1.399 . S
C213 C218 1.383 . S
C213 C220 1.496 . S
C214 C215 1.399 . S
C214 C218 1.389 . S
C215 C214 1.399 . S
C215 C217 1.380 . S
C215 H232 0.929 . S
C216 C213 1.399 . S
C216 C217 1.392 . S
C216 H233 0.929 . S
C217 C215 1.380 . S
C217 C216 1.392 . S
C217 H234 0.929 . S
C218 C213 1.383 . S
C218 C214 1.389 . S
C218 H235 0.931 . S
C219 O204 1.255 1_565 S
C219 O205 1.255 . S
C220 Tb156 2.802 . S
C220 O200 1.264 . S
C220 O203 1.256 . S
C220 C213 1.496 . S
C221 C188 1.448 . S
C221 H198 0.930 . S
C221 C222 1.328 . S
C222 C193 1.427 . S
C222 H199 0.929 . S
C222 C221 1.328 . S
C223 O207 1.264 . S
C223 O208 1.243 . S
C224 C227 1.399 . S
C224 C228 1.383 1_565 S
C224 C231 1.496 . S
C225 C226 1.399 1_545 S
C225 C228 1.389 . S
C226 C225 1.399 1_565 S
C226 C229 1.380 . S
C226 H236 0.929 . S
C227 C224 1.399 . S
C227 C229 1.392 . S
C227 H237 0.929 . S
C228 C224 1.383 1_545 S
C228 C225 1.389 . S
C228 H238 0.931 . S
C229 C226 1.380 . S
C229 C227 1.392 . S
C229 H239 0.929 . S
C230 O210 1.266 . S
C230 O211 1.248 . S
C231 Tb167 2.802 . S
C231 O206 1.264 . S
C231 O209 1.256 . S
C231 C224 1.496 . S
H232 C215 0.929 . S
H233 C216 0.929 . S
H234 C217 0.929 . S
H235 C218 0.931 . S
H236 C226 0.929 . S
H237 C227 0.929 . S
H238 C228 0.931 . S
H239 C229 0.929 . S
Tb240 N269 2.617 . S
Tb240 N275 2.572 . S
Tb240 O284 2.465 . S
Tb240 O285 2.387 . S
Tb240 O287 2.428 . S
Tb240 O288 2.308 . S
Tb240 O292 2.349 . S
Tb240 O295 2.393 . S
Tb240 C304 2.802 . S
C241 N242 1.379 . S
C241 C244 1.416 . S
C241 C248 1.424 . S
N242 C241 1.379 . S
N242 C245 1.334 . S
N242 Tb251 2.617 . S
C243 C245 1.390 . S
C243 C246 1.339 . S
C243 H263 0.930 . S
C244 C241 1.416 . S
C244 C246 1.416 . S
C244 C250 1.448 . S
C245 N242 1.334 . S
C245 C243 1.390 . S
C245 H256 0.930 . S
C246 C243 1.339 . S
C246 C244 1.416 . S
C246 H267 0.930 . S
C247 C248 1.413 . S
C247 C249 1.427 . S
C247 C253 1.416 . S
C248 C241 1.424 . S
C248 C247 1.413 . S
C248 N252 1.361 . S
C249 C247 1.427 . S
C249 C250 1.328 . S
C249 H264 0.929 . S
C250 C244 1.448 . S
C250 C249 1.328 . S
C250 H265 0.930 . S
Tb251 N242 2.617 . S
Tb251 N252 2.572 . S
Tb251 O286 2.349 . S
Tb251 O289 2.393 . S
Tb251 O290 2.465 . S
Tb251 O291 2.387 . S
Tb251 O293 2.428 . S
Tb251 O294 2.308 . S
Tb251 C315 2.802 . S
N252 C248 1.361 . S
N252 Tb251 2.572 . S
N252 C254 1.340 . S
C253 C247 1.416 . S
C253 C255 1.332 . S
C253 H261 0.931 . S
C254 N252 1.340 . S
C254 C255 1.407 . S
C254 H260 0.930 . S
C255 C253 1.332 . S
C255 C254 1.407 . S
C255 H257 0.929 . S
H256 C245 0.930 . S
H257 C255 0.929 . S
H258 C273 0.930 . S
H259 C280 0.929 . S
H260 C254 0.930 . S
H261 C253 0.931 . S
H262 C276 0.930 . S
H263 C243 0.930 . S
H264 C249 0.929 . S
H265 C250 0.930 . S
H266 C271 0.930 . S
H267 C246 0.930 . S
H268 C279 0.931 . S
N269 Tb240 2.617 . S
N269 C270 1.379 . S
N269 C273 1.334 . S
C270 N269 1.379 . S
C270 C272 1.416 . S
C270 C278 1.424 . S
C271 H266 0.930 . S
C271 C273 1.390 . S
C271 C274 1.339 . S
C272 C270 1.416 . S
C272 C274 1.416 . S
C272 C305 1.448 . S
C273 H258 0.930 . S
C273 N269 1.334 . S
C273 C271 1.390 . S
C274 C271 1.339 . S
C274 C272 1.416 . S
C274 H281 0.930 . S
N275 Tb240 2.572 . S
N275 C276 1.340 . S
N275 C278 1.361 . S
C276 H262 0.930 . S
C276 N275 1.340 . S
C276 C280 1.407 . S
C277 C278 1.413 . S
C277 C279 1.416 . S
C277 C306 1.427 . S
C278 C270 1.424 . S
C278 N275 1.361 . S
C278 C277 1.413 . S
C279 H268 0.931 . S
C279 C277 1.416 . S
C279 C280 1.332 . S
C280 H259 0.929 . S
C280 C276 1.407 . S
C280 C279 1.332 . S
H281 C274 0.930 . S
H282 C305 0.930 . S
H283 C306 0.929 . S
O284 Tb240 2.465 . S
O284 C304 1.264 . S
O285 Tb240 2.387 . S
O285 C296 1.264 . S
O286 Tb251 2.349 . S
O286 C296 1.243 . S
O287 Tb240 2.428 . S
O287 C304 1.256 . S
O288 Tb240 2.308 . S
O288 C303 1.266 . S
O289 Tb251 2.393 . S
O289 C303 1.248 . S
O290 Tb251 2.465 . S
O290 C315 1.264 . S
O291 Tb251 2.387 . S
O291 C307 1.264 . S
O292 Tb240 2.349 . S
O292 C307 1.243 . S
O293 Tb251 2.428 . S
O293 C315 1.256 . S
O294 Tb251 2.308 . S
O294 C314 1.266 . S
O295 Tb240 2.393 . S
O295 C314 1.248 . S
C296 O285 1.264 . S
C296 O286 1.243 . S
C297 C300 1.399 . S
C297 C302 1.383 . S
C297 C304 1.496 . S
C298 C299 1.399 . S
C298 C302 1.389 . S
C299 C298 1.399 . S
C299 C301 1.380 . S
C299 H316 0.929 . S
C300 C297 1.399 . S
C300 C301 1.392 . S
C300 H317 0.929 . S
C301 C299 1.380 . S
C301 C300 1.392 . S
C301 H318 0.929 . S
C302 C297 1.383 . S
C302 C298 1.389 . S
C302 H319 0.931 . S
C303 O288 1.266 . S
C303 O289 1.248 . S
C304 Tb240 2.802 . S
C304 O284 1.264 . S
C304 O287 1.256 . S
C304 C297 1.496 . S
C305 C272 1.448 . S
C305 H282 0.930 . S
C305 C306 1.328 . S
C306 C277 1.427 . S
C306 H283 0.929 . S
C306 C305 1.328 . S
C307 O291 1.264 . S
C307 O292 1.243 . S
C308 C311 1.399 . S
C308 C312 1.383 . S
C308 C315 1.496 . S
C309 C310 1.399 . S
C309 C312 1.389 . S
C310 C309 1.399 . S
C310 C313 1.380 . S
C310 H320 0.929 . S
C311 C308 1.399 . S
C311 C313 1.392 . S
C311 H321 0.929 . S
C312 C308 1.383 . S
C312 C309 1.389 . S
C312 H322 0.931 . S
C313 C310 1.380 . S
C313 C311 1.392 . S
C313 H323 0.929 . S
C314 O294 1.266 . S
C314 O295 1.248 . S
C315 Tb251 2.802 . S
C315 O290 1.264 . S
C315 O293 1.256 . S
C315 C308 1.496 . S
H316 C299 0.929 . S
H317 C300 0.929 . S
H318 C301 0.929 . S
H319 C302 0.931 . S
H320 C310 0.929 . S
H321 C311 0.929 . S
H322 C312 0.931 . S
H323 C313 0.929 . S
Tb324 N353 2.617 . S
Tb324 N359 2.572 . S
Tb324 O368 2.465 . S
Tb324 O369 2.387 1_455 S
Tb324 O371 2.428 . S
Tb324 O372 2.308 . S
Tb324 O376 2.349 . S
Tb324 O379 2.393 . S
Tb324 C388 2.802 . S
C325 N326 1.379 1_455 S
C325 C328 1.416 . S
C325 C332 1.424 . S
N326 C325 1.379 1_655 S
N326 C329 1.334 . S
N326 Tb335 2.617 . S
C327 C329 1.390 1_455 S
C327 C330 1.339 . S
C327 H347 0.931 1_455 S
C328 C325 1.416 . S
C328 C330 1.416 . S
C328 C334 1.448 . S
C329 N326 1.334 . S
C329 C327 1.390 1_655 S
C329 H340 0.930 . S
C330 C327 1.339 . S
C330 C328 1.416 . S
C330 H351 0.930 . S
C331 C332 1.413 . S
C331 C333 1.427 . S
C331 C337 1.416 . S
C332 C325 1.424 . S
C332 C331 1.413 . S
C332 N336 1.361 . S
C333 C331 1.427 . S
C333 C334 1.328 . S
C333 H348 0.929 . S
C334 C328 1.448 . S
C334 C333 1.328 . S
C334 H349 0.930 . S
Tb335 N326 2.617 . S
Tb335 N336 2.572 1_655 S
Tb335 O370 2.349 . S
Tb335 O373 2.393 . S
Tb335 O374 2.465 . S
Tb335 O375 2.387 1_655 S
Tb335 O377 2.428 . S
Tb335 O378 2.321 . S
Tb335 C399 2.802 . S
N336 C332 1.361 . S
N336 Tb335 2.572 1_455 S
N336 C338 1.340 . S
C337 C331 1.416 . S
C337 C339 1.332 . S
C337 H345 0.931 . S
C338 N336 1.340 . S
C338 C339 1.407 . S
C338 H344 0.930 1_455 S
C339 C337 1.332 . S
C339 C338 1.407 . S
C339 H341 0.929 . S
H340 C329 0.930 . S
H341 C339 0.929 . S
H342 C357 0.930 . S
H343 C364 0.929 . S
H344 C338 0.930 1_655 S
H345 C337 0.931 . S
H346 C360 0.930 . S
H347 C327 0.931 1_655 S
H348 C333 0.929 . S
H349 C334 0.930 . S
H350 C355 0.930 . S
H351 C330 0.930 . S
H352 C363 0.931 . S
N353 Tb324 2.617 . S
N353 C354 1.379 . S
N353 C357 1.334 . S
C354 N353 1.379 . S
C354 C356 1.416 1_455 S
C354 C362 1.426 . S
C355 H350 0.930 . S
C355 C357 1.390 . S
C355 C358 1.339 1_455 S
C356 C354 1.416 1_655 S
C356 C358 1.416 . S
C356 C389 1.448 . S
C357 H342 0.930 . S
C357 N353 1.334 . S
C357 C355 1.390 . S
C358 C355 1.339 1_655 S
C358 C356 1.416 . S
C358 H365 0.930 . S
N359 Tb324 2.572 . S
N359 C360 1.340 . S
N359 C362 1.369 . S
C360 H346 0.930 . S
C360 N359 1.340 . S
C360 C364 1.407 1_455 S
C361 C362 1.403 1_655 S
C361 C363 1.416 . S
C361 C390 1.427 . S
C362 C354 1.426 . S
C362 N359 1.369 . S
C362 C361 1.403 1_455 S
C363 H352 0.931 . S
C363 C361 1.416 . S
C363 C364 1.332 . S
C364 H343 0.929 . S
C364 C360 1.407 1_655 S
C364 C363 1.332 . S
H365 C358 0.930 . S
H366 C389 0.930 . S
H367 C390 0.929 . S
O368 Tb324 2.465 . S
O368 C388 1.264 . S
O369 Tb324 2.387 1_655 S
O369 C380 1.264 . S
O370 Tb335 2.349 . S
O370 C380 1.243 . S
O371 Tb324 2.428 . S
O371 C388 1.256 . S
O372 Tb324 2.308 . S
O372 C387 1.266 . S
O373 Tb335 2.393 . S
O373 C387 1.248 1_655 S
O374 Tb335 2.465 . S
O374 C399 1.264 . S
O375 Tb335 2.387 1_455 S
O375 C391 1.264 . S
O376 Tb324 2.349 . S
O376 C391 1.243 . S
O377 Tb335 2.428 . S
O377 C399 1.256 . S
O378 Tb335 2.321 . S
O378 C398 1.257 1_655 S
O379 Tb324 2.393 . S
O379 C398 1.248 . S
C380 O369 1.264 . S
C380 O370 1.243 . S
C381 C384 1.399 . S
C381 C386 1.383 . S
C381 C388 1.496 . S
C382 C383 1.399 . S
C382 C386 1.389 . S
C383 C382 1.399 . S
C383 C385 1.380 . S
C383 H400 0.929 . S
C384 C381 1.399 . S
C384 C385 1.392 . S
C384 H401 0.929 . S
C385 C383 1.380 . S
C385 C384 1.392 . S
C385 H402 0.929 . S
C386 C381 1.383 . S
C386 C382 1.389 . S
C386 H403 0.931 . S
C387 O372 1.266 . S
C387 O373 1.248 1_455 S
C388 Tb324 2.802 . S
C388 O368 1.264 . S
C388 O371 1.256 . S
C388 C381 1.496 . S
C389 C356 1.448 . S
C389 H366 0.930 . S
C389 C390 1.328 . S
C390 C361 1.427 . S
C390 H367 0.929 . S
C390 C389 1.328 . S
C391 O375 1.264 . S
C391 O376 1.243 . S
C392 C395 1.399 . S
C392 C396 1.383 . S
C392 C399 1.496 . S
C393 C394 1.399 . S
C393 C396 1.389 . S
C394 C393 1.399 . S
C394 C397 1.380 . S
C394 H404 0.929 . S
C395 C392 1.399 . S
C395 C397 1.392 . S
C395 H405 0.929 . S
C396 C392 1.383 . S
C396 C393 1.389 . S
C396 H406 0.931 . S
C397 C394 1.380 . S
C397 C395 1.392 . S
C397 H407 0.929 . S
C398 O378 1.257 1_455 S
C398 O379 1.248 . S
C399 Tb335 2.802 . S
C399 O374 1.264 . S
C399 O377 1.256 . S
C399 C392 1.496 . S
H400 C383 0.929 . S
H401 C384 0.929 . S
H402 C385 0.929 . S
H403 C386 0.931 . S
H404 C394 0.929 . S
H405 C395 0.929 . S
H406 C396 0.931 . S
H407 C397 0.929 . S
C408 C409 1.349 . S
C408 C410 1.327 . S
C408 H433 0.950 . S
C409 C408 1.349 . S
C409 C425 1.349 . S
C410 C408 1.327 . S
C410 C429 1.429 . S
C410 H434 0.950 . S
C411 C428 1.574 . S
C411 C430 1.368 . S
C411 H435 0.949 . S
H412 C416 0.949 . S
C413 C414 1.349 . S
C413 C415 1.327 . S
C413 H436 0.950 1_545 S
C414 C413 1.349 . S
C414 C426 1.349 . S
C415 C413 1.327 . S
C415 C431 1.429 . S
C415 H437 0.950 1_545 S
C416 H412 0.949 . S
C416 C424 1.574 . S
C416 C432 1.368 . S
H417 C425 0.950 . S
H418 C423 0.950 . S
H419 C424 0.949 . S
H420 C426 0.950 . S
H421 C427 0.950 . S
H422 C428 0.949 1_565 S
C423 H418 0.950 . S
C423 C425 1.327 . S
C423 C429 1.429 . S
C424 C416 1.574 . S
C424 H419 0.949 . S
C424 C430 1.368 . S
C425 C409 1.349 . S
C425 H417 0.950 . S
C425 C423 1.327 . S
C426 C414 1.349 . S
C426 H420 0.950 . S
C426 C427 1.327 . S
C427 H421 0.950 . S
C427 C426 1.327 . S
C427 C431 1.429 . S
C428 C411 1.574 . S
C428 H422 0.949 1_545 S
C428 C432 1.368 . S
C429 C410 1.429 . S
C429 C423 1.429 . S
C429 C430 1.523 . S
C430 C411 1.368 . S
C430 C424 1.368 . S
C430 C429 1.523 . S
C431 C415 1.429 . S
C431 C427 1.429 . S
C431 C432 1.523 . S
C432 C416 1.368 . S
C432 C428 1.368 . S
C432 C431 1.523 . S
H433 C408 0.950 . S
H434 C410 0.950 . S
H435 C411 0.949 . S
H436 C413 0.950 1_565 S
H437 C415 0.950 1_565 S
C438 C439 1.349 . S
C438 C440 1.327 . S
C438 H463 0.950 . S
C439 C438 1.349 . S
C439 C455 1.349 . S
C440 C438 1.327 . S
C440 C459 1.429 . S
C440 H464 0.950 . S
C441 C458 1.574 . S
C441 C460 1.368 . S
C441 H465 0.949 . S
H442 C446 0.949 . S
C443 C444 1.349 . S
C443 C445 1.327 . S
C443 H466 0.950 . S
C444 C443 1.349 . S
C444 C456 1.349 . S
C445 C443 1.327 . S
C445 C461 1.429 . S
C445 H467 0.950 . S
C446 H442 0.949 . S
C446 C454 1.574 . S
C446 C462 1.368 . S
H447 C455 0.950 . S
H448 C453 0.950 . S
H449 C454 0.949 . S
H450 C456 0.950 . S
H451 C457 0.950 . S
H452 C458 0.949 . S
C453 H448 0.950 . S
C453 C455 1.327 . S
C453 C459 1.429 . S
C454 C446 1.574 . S
C454 H449 0.949 . S
C454 C460 1.368 . S
C455 C439 1.349 . S
C455 H447 0.950 . S
C455 C453 1.327 . S
C456 C444 1.349 . S
C456 H450 0.950 . S
C456 C457 1.327 . S
C457 H451 0.950 . S
C457 C456 1.327 . S
C457 C461 1.429 . S
C458 C441 1.574 . S
C458 H452 0.949 . S
C458 C462 1.368 . S
C459 C440 1.429 . S
C459 C453 1.429 . S
C459 C460 1.523 . S
C460 C441 1.368 . S
C460 C454 1.368 . S
C460 C459 1.523 . S
C461 C445 1.429 . S
C461 C457 1.429 . S
C461 C462 1.523 . S
C462 C446 1.368 . S
C462 C458 1.368 . S
C462 C461 1.523 . S
H463 C438 0.950 . S
H464 C440 0.950 . S
H465 C441 0.949 . S
H466 C443 0.950 . S
H467 C445 0.950 . S
C468 C469 1.349 . S
C468 C470 1.327 . S
C468 H493 0.950 . S
C469 C468 1.349 . S
C469 C485 1.349 . S
C470 C468 1.327 . S
C470 C489 1.429 . S
C470 H494 0.950 . S
C471 C488 1.574 . S
C471 C490 1.368 . S
C471 H495 0.949 . S
H472 C476 0.949 . S
C473 C474 1.349 . S
C473 C475 1.327 . S
C473 H496 0.950 . S
C474 C473 1.349 . S
C474 C486 1.349 . S
C475 C473 1.327 . S
C475 C491 1.429 . S
C475 H497 0.950 . S
C476 H472 0.949 . S
C476 C484 1.574 . S
C476 C492 1.368 . S
H477 C485 0.950 . S
H478 C483 0.950 . S
H479 C484 0.949 . S
H480 C486 0.950 . S
H481 C487 0.950 . S
H482 C488 0.949 . S
C483 H478 0.950 . S
C483 C485 1.327 . S
C483 C489 1.429 . S
C484 C476 1.574 . S
C484 H479 0.949 . S
C484 C490 1.368 . S
C485 C469 1.349 . S
C485 H477 0.950 . S
C485 C483 1.327 . S
C486 C474 1.349 . S
C486 H480 0.950 . S
C486 C487 1.327 . S
C487 H481 0.950 . S
C487 C486 1.327 . S
C487 C491 1.429 . S
C488 C471 1.574 . S
C488 H482 0.949 . S
C488 C492 1.368 . S
C489 C470 1.429 . S
C489 C483 1.429 . S
C489 C490 1.523 . S
C490 C471 1.368 . S
C490 C484 1.368 . S
C490 C489 1.523 . S
C491 C475 1.429 . S
C491 C487 1.429 . S
C491 C492 1.523 . S
C492 C476 1.368 . S
C492 C488 1.368 . S
C492 C491 1.523 . S
H493 C468 0.950 . S
H494 C470 0.950 . S
H495 C471 0.949 . S
H496 C473 0.950 . S
H497 C475 0.950 . S
C498 C499 1.349 . S
C498 C500 1.327 . S
C498 H523 0.950 . S
C499 C498 1.349 . S
C499 C515 1.349 . S
C500 C498 1.327 . S
C500 C519 1.429 . S
C500 H524 0.950 . S
C501 C518 1.574 . S
C501 C520 1.368 . S
C501 H525 0.949 . S
H502 C506 0.949 . S
C503 C504 1.349 . S
C503 C505 1.327 . S
C503 H526 0.950 1_455 S
C504 C503 1.349 . S
C504 C516 1.349 . S
C505 C503 1.327 . S
C505 C521 1.429 . S
C505 H527 0.950 . S
C506 H502 0.949 . S
C506 C514 1.574 . S
C506 C522 1.368 . S
H507 C515 0.950 . S
H508 C513 0.950 . S
H509 C514 0.949 . S
H510 C516 0.950 . S
H511 C517 0.950 . S
H512 C518 0.949 . S
C513 H508 0.950 . S
C513 C515 1.327 . S
C513 C519 1.429 . S
C514 C506 1.574 . S
C514 H509 0.949 . S
C514 C520 1.368 . S
C515 C499 1.349 . S
C515 H507 0.950 . S
C515 C513 1.327 . S
C516 C504 1.349 . S
C516 H510 0.950 . S
C516 C517 1.327 . S
C517 H511 0.950 . S
C517 C516 1.327 . S
C517 C521 1.429 . S
C518 C501 1.574 . S
C518 H512 0.949 . S
C518 C522 1.368 . S
C519 C500 1.429 . S
C519 C513 1.429 . S
C519 C520 1.523 . S
C520 C501 1.368 . S
C520 C514 1.368 . S
C520 C519 1.523 . S
C521 C505 1.429 . S
C521 C517 1.429 . S
C521 C522 1.523 . S
C522 C506 1.368 . S
C522 C518 1.368 . S
C522 C521 1.523 . S
H523 C498 0.950 . S
H524 C500 0.950 . S
H525 C501 0.949 . S
H526 C503 0.950 1_655 S
H527 C505 0.950 . S
C528 C529 1.349 . S
C528 C530 1.327 . S
C528 H553 0.950 . S
C529 C528 1.349 . S
C529 C545 1.349 . S
C530 C528 1.327 . S
C530 C549 1.429 . S
C530 H554 0.950 . S
C531 C548 1.574 1_554 S
C531 C550 1.368 1_545 S
C531 H555 0.949 . S
H532 C536 0.949 . S
C533 C534 1.345 1_545 S
C533 C535 1.327 . S
C533 H556 0.950 . S
C534 C533 1.345 1_565 S
C534 C546 1.353 . S
C535 C533 1.327 . S
C535 C551 1.429 1_545 S
C535 H557 0.950 . S
C536 H532 0.949 . S
C536 C544 1.574 . S
C536 C552 1.368 . S
H537 C545 0.954 . S
H538 C543 0.950 1_545 S
H539 C544 0.949 . S
H540 C546 0.950 . S
H541 C547 0.950 . S
H542 C548 0.949 . S
C543 H538 0.950 1_565 S
C543 C545 1.327 . S
C543 C549 1.429 . S
C544 C536 1.574 . S
C544 H539 0.949 . S
C544 C550 1.368 1_556 S
C545 C529 1.349 . S
C545 H537 0.954 . S
C545 C543 1.327 . S
C546 C534 1.353 . S
C546 H540 0.950 . S
C546 C547 1.327 . S
C547 H541 0.950 . S
C547 C546 1.327 . S
C547 C551 1.429 . S
C548 C531 1.574 1_556 S
C548 H542 0.949 . S
C548 C552 1.368 1_545 S
C549 C530 1.429 . S
C549 C543 1.429 . S
C549 C550 1.523 . S
C550 C531 1.368 1_565 S
C550 C544 1.368 1_554 S
C550 C549 1.523 . S
C551 C535 1.429 1_565 S
C551 C547 1.429 . S
C551 C552 1.523 . S
C552 C536 1.368 . S
C552 C548 1.368 1_565 S
C552 C551 1.523 . S
H553 C528 0.950 . S
H554 C530 0.950 . S
H555 C531 0.949 . S
H556 C533 0.950 . S
H557 C535 0.950 . S
C558 C559 1.349 . S
C558 C560 1.327 . S
C558 H583 0.950 . S
C559 C558 1.349 . S
C559 C575 1.349 . S
C560 C558 1.327 . S
C560 C579 1.429 . S
C560 H584 0.950 . S
C561 C578 1.574 . S
C561 C580 1.368 1_556 S
C561 H585 0.949 . S
H562 C566 0.949 . S
C563 C564 1.349 . S
C563 C565 1.327 . S
C563 H586 0.950 . S
C564 C563 1.349 . S
C564 C576 1.349 . S
C565 C563 1.327 . S
C565 C581 1.429 . S
C565 H587 0.950 . S
C566 H562 0.949 . S
C566 C574 1.574 1_556 S
C566 C582 1.368 . S
H567 C575 0.950 . S
H568 C573 0.950 . S
H569 C574 0.949 . S
H570 C576 0.950 . S
H571 C577 0.950 . S
H572 C578 0.949 . S
C573 H568 0.950 . S
C573 C575 1.327 . S
C573 C579 1.429 . S
C574 C566 1.574 1_554 S
C574 H569 0.949 . S
C574 C580 1.368 . S
C575 C559 1.349 . S
C575 H567 0.950 . S
C575 C573 1.327 . S
C576 C564 1.349 . S
C576 H570 0.950 . S
C576 C577 1.327 . S
C577 H571 0.950 . S
C577 C576 1.327 . S
C577 C581 1.429 . S
C578 C561 1.574 . S
C578 H572 0.949 . S
C578 C582 1.368 . S
C579 C560 1.429 . S
C579 C573 1.429 . S
C579 C580 1.523 . S
C580 C561 1.368 1_554 S
C580 C574 1.368 . S
C580 C579 1.523 . S
C581 C565 1.429 . S
C581 C577 1.429 . S
C581 C582 1.523 . S
C582 C566 1.368 . S
C582 C578 1.368 . S
C582 C581 1.523 . S
H583 C558 0.950 . S
H584 C560 0.950 . S
H585 C561 0.949 . S
H586 C563 0.950 . S
H587 C565 0.950 . S
C588 C589 1.349 . S
C588 C590 1.327 . S
C588 H613 0.950 . S
C589 C588 1.349 . S
C589 C605 1.349 . S
C590 C588 1.327 . S
C590 C609 1.429 . S
C590 H614 0.950 . S
C591 C608 1.574 1_554 S
C591 C610 1.368 . S
C591 H615 0.949 . S
H592 C596 0.949 . S
C593 C594 1.349 . S
C593 C595 1.327 . S
C593 H616 0.950 . S
C594 C593 1.349 . S
C594 C606 1.349 . S
C595 C593 1.327 . S
C595 C611 1.429 . S
C595 H617 0.950 . S
C596 H592 0.949 . S
C596 C604 1.574 . S
C596 C612 1.368 . S
H597 C605 0.950 . S
H598 C603 0.950 . S
H599 C604 0.949 . S
H600 C606 0.950 . S
H601 C607 0.950 . S
H602 C608 0.949 . S
C603 H598 0.950 . S
C603 C605 1.327 . S
C603 C609 1.429 . S
C604 C596 1.574 . S
C604 H599 0.949 . S
C604 C610 1.368 1_556 S
C605 C589 1.349 . S
C605 H597 0.950 . S
C605 C603 1.327 . S
C606 C594 1.349 . S
C606 H600 0.950 . S
C606 C607 1.327 . S
C607 H601 0.950 . S
C607 C606 1.327 . S
C607 C611 1.429 . S
C608 C591 1.574 1_556 S
C608 H602 0.949 . S
C608 C612 1.368 . S
C609 C590 1.429 . S
C609 C603 1.429 . S
C609 C610 1.523 . S
C610 C591 1.368 . S
C610 C604 1.368 1_554 S
C610 C609 1.523 . S
C611 C595 1.429 . S
C611 C607 1.429 . S
C611 C612 1.523 . S
C612 C596 1.368 . S
C612 C608 1.368 . S
C612 C611 1.523 . S
H613 C588 0.950 . S
H614 C590 0.950 . S
H615 C591 0.949 . S
H616 C593 0.950 . S
H617 C595 0.950 . S
C618 C619 1.349 . S
C618 C620 1.327 . S
C618 H643 0.950 . S
C619 C618 1.349 . S
C619 C635 1.349 . S
C620 C618 1.327 . S
C620 C639 1.429 . S
C620 H644 0.950 . S
C621 C638 1.574 . S
C621 C640 1.368 1_556 S
C621 H645 0.949 . S
H622 C626 0.949 . S
C623 C624 1.349 . S
C623 C625 1.327 . S
C623 H646 0.950 1_655 S
C624 C623 1.349 . S
C624 C636 1.349 . S
C625 C623 1.327 . S
C625 C641 1.429 . S
C625 H647 0.950 . S
C626 H622 0.949 . S
C626 C634 1.574 1_556 S
C626 C642 1.368 . S
H627 C635 0.950 . S
H628 C633 0.950 . S
H629 C634 0.949 . S
H630 C636 0.950 . S
H631 C637 0.950 . S
H632 C638 0.949 . S
C633 H628 0.950 . S
C633 C635 1.327 . S
C633 C639 1.429 . S
C634 C626 1.574 1_554 S
C634 H629 0.949 . S
C634 C640 1.368 . S
C635 C619 1.349 . S
C635 H627 0.950 . S
C635 C633 1.327 . S
C636 C624 1.349 . S
C636 H630 0.950 . S
C636 C637 1.327 . S
C637 H631 0.950 . S
C637 C636 1.327 . S
C637 C641 1.429 . S
C638 C621 1.574 . S
C638 H632 0.949 . S
C638 C642 1.368 . S
C639 C620 1.429 . S
C639 C633 1.429 . S
C639 C640 1.523 . S
C640 C621 1.368 1_554 S
C640 C634 1.368 . S
C640 C639 1.523 . S
C641 C625 1.429 . S
C641 C637 1.429 . S
C641 C642 1.523 . S
C642 C626 1.368 . S
C642 C638 1.368 . S
C642 C641 1.523 . S
H643 C618 0.950 . S
H644 C620 0.950 . S
H645 C621 0.949 . S
H646 C623 0.950 1_455 S
H647 C625 0.950 . S
C648 C649 1.349 . S
C648 C650 1.327 . S
C648 H673 0.950 . S
C649 C648 1.349 . S
C649 C665 1.349 . S
C650 C648 1.327 . S
C650 C669 1.429 . S
C650 H674 0.950 . S
C651 C668 1.574 . S
C651 C670 1.368 . S
C651 H675 0.949 . S
H652 C656 0.949 . S
C653 C654 1.349 . S
C653 C655 1.327 1_655 S
C653 H676 0.950 . S
C654 C653 1.349 . S
C654 C666 1.349 1_655 S
C655 C653 1.327 1_455 S
C655 C671 1.429 . S
C655 H677 0.949 . S
C656 H652 0.949 . S
C656 C664 1.574 . S
C656 C672 1.368 . S
H657 C665 0.950 . S
H658 C663 0.950 . S
H659 C664 0.949 . S
H660 C666 0.950 . S
H661 C667 0.950 . S
H662 C668 0.949 . S
C663 H658 0.950 . S
C663 C665 1.327 . S
C663 C669 1.429 . S
C664 C656 1.574 . S
C664 H659 0.949 . S
C664 C670 1.368 . S
C665 C649 1.349 . S
C665 H657 0.950 . S
C665 C663 1.327 . S
C666 C654 1.349 1_455 S
C666 H660 0.950 . S
C666 C667 1.327 . S
C667 H661 0.950 . S
C667 C666 1.327 . S
C667 C671 1.429 . S
C668 C651 1.574 . S
C668 H662 0.949 . S
C668 C672 1.368 . S
C669 C650 1.429 . S
C669 C663 1.429 . S
C669 C670 1.523 . S
C670 C651 1.368 . S
C670 C664 1.368 . S
C670 C669 1.523 . S
C671 C655 1.429 . S
C671 C667 1.429 . S
C671 C672 1.523 . S
C672 C656 1.368 . S
C672 C668 1.368 . S
C672 C671 1.523 . S
H673 C648 0.950 . S
H674 C650 0.950 . S
H675 C651 0.949 . S
H676 C653 0.950 . S
H677 C655 0.949 . S
C678 C679 1.349 . S
C678 C680 1.327 . S
C678 H703 0.950 . S
C679 C678 1.349 . S
C679 C695 1.349 . S
C680 C678 1.327 . S
C680 C699 1.429 . S
C680 H704 0.950 . S
C681 C698 1.574 . S
C681 C700 1.368 . S
C681 H705 0.949 . S
H682 C686 0.949 . S
C683 C684 1.349 1_565 S
C683 C685 1.327 1_565 S
C683 H706 0.950 . S
C684 C683 1.349 1_545 S
C684 C696 1.349 . S
C685 C683 1.327 1_545 S
C685 C701 1.429 . S
C685 H707 0.950 1_545 S
C686 H682 0.949 . S
C686 C694 1.574 . S
C686 C702 1.368 . S
H687 C695 0.950 . S
H688 C693 0.950 . S
H689 C694 0.949 . S
H690 C696 0.950 . S
H691 C697 0.950 . S
H692 C698 0.949 . S
C693 H688 0.950 . S
C693 C695 1.327 . S
C693 C699 1.429 . S
C694 C686 1.574 . S
C694 H689 0.949 . S
C694 C700 1.368 . S
C695 C679 1.349 . S
C695 H687 0.950 . S
C695 C693 1.327 . S
C696 C684 1.349 . S
C696 H690 0.950 . S
C696 C697 1.327 . S
C697 H691 0.950 . S
C697 C696 1.327 . S
C697 C701 1.429 . S
C698 C681 1.574 . S
C698 H692 0.949 . S
C698 C702 1.368 . S
C699 C680 1.429 . S
C699 C693 1.429 . S
C699 C700 1.523 . S
C700 C681 1.368 . S
C700 C694 1.368 . S
C700 C699 1.523 . S
C701 C685 1.429 . S
C701 C697 1.429 . S
C701 C702 1.523 . S
C702 C686 1.368 . S
C702 C698 1.368 . S
C702 C701 1.523 . S
H703 C678 0.950 . S
H704 C680 0.950 . S
H705 C681 0.949 . S
H706 C683 0.950 . S
H707 C685 0.950 1_565 S
C708 C709 1.349 . S
C708 C710 1.327 . S
C708 H733 0.950 . S
C709 C708 1.349 . S
C709 C725 1.349 . S
C710 C708 1.327 . S
C710 C729 1.429 . S
C710 H734 0.950 . S
C711 C728 1.574 . S
C711 C730 1.368 . S
C711 H735 0.949 . S
H712 C716 0.949 . S
C713 C714 1.349 . S
C713 C715 1.327 . S
C713 H736 0.950 . S
C714 C713 1.349 . S
C714 C726 1.349 . S
C715 C713 1.327 . S
C715 C731 1.429 . S
C715 H737 0.950 . S
C716 H712 0.949 . S
C716 C724 1.574 . S
C716 C732 1.368 . S
H717 C725 0.950 . S
H718 C723 0.950 . S
H719 C724 0.949 . S
H720 C726 0.950 . S
H721 C727 0.950 . S
H722 C728 0.949 . S
C723 H718 0.950 . S
C723 C725 1.327 . S
C723 C729 1.429 . S
C724 C716 1.574 . S
C724 H719 0.949 . S
C724 C730 1.368 . S
C725 C709 1.349 . S
C725 H717 0.950 . S
C725 C723 1.327 . S
C726 C714 1.349 . S
C726 H720 0.950 . S
C726 C727 1.327 . S
C727 H721 0.950 . S
C727 C726 1.327 . S
C727 C731 1.429 . S
C728 C711 1.574 . S
C728 H722 0.949 . S
C728 C732 1.368 . S
C729 C710 1.429 . S
C729 C723 1.429 . S
C729 C730 1.523 . S
C730 C711 1.368 . S
C730 C724 1.368 . S
C730 C729 1.523 . S
C731 C715 1.429 . S
C731 C727 1.429 . S
C731 C732 1.523 . S
C732 C716 1.368 . S
C732 C728 1.368 . S
C732 C731 1.523 . S
H733 C708 0.950 . S
H734 C710 0.950 . S
H735 C711 0.949 . S
H736 C713 0.950 . S
H737 C715 0.950 . S
C738 C739 1.349 . S
C738 C740 1.327 . S
C738 H763 0.950 . S
C739 C738 1.349 . S
C739 C755 1.349 . S
C740 C738 1.327 . S
C740 C759 1.429 . S
C740 H764 0.950 . S
C741 C758 1.574 . S
C741 C760 1.368 . S
C741 H765 0.949 . S
H742 C746 0.949 . S
C743 C744 1.349 . S
C743 C745 1.327 . S
C743 H766 0.950 . S
C744 C743 1.349 . S
C744 C756 1.349 . S
C745 C743 1.327 . S
C745 C761 1.429 . S
C745 H767 0.950 . S
C746 H742 0.949 . S
C746 C754 1.574 . S
C746 C762 1.368 . S
H747 C755 0.950 . S
H748 C753 0.950 . S
H749 C754 0.949 . S
H750 C756 0.950 . S
H751 C757 0.950 . S
H752 C758 0.949 . S
C753 H748 0.950 . S
C753 C755 1.327 . S
C753 C759 1.429 . S
C754 C746 1.574 . S
C754 H749 0.949 . S
C754 C760 1.368 . S
C755 C739 1.349 . S
C755 H747 0.950 . S
C755 C753 1.327 . S
C756 C744 1.349 . S
C756 H750 0.950 . S
C756 C757 1.327 . S
C757 H751 0.950 . S
C757 C756 1.327 . S
C757 C761 1.429 . S
C758 C741 1.574 . S
C758 H752 0.949 . S
C758 C762 1.368 . S
C759 C740 1.429 . S
C759 C753 1.429 . S
C759 C760 1.523 . S
C760 C741 1.368 . S
C760 C754 1.368 . S
C760 C759 1.523 . S
C761 C745 1.429 . S
C761 C757 1.429 . S
C761 C762 1.523 . S
C762 C746 1.368 . S
C762 C758 1.368 . S
C762 C761 1.523 . S
H763 C738 0.950 . S
H764 C740 0.950 . S
H765 C741 0.949 . S
H766 C743 0.950 . S
H767 C745 0.950 . S
C768 C769 1.349 . S
C768 C770 1.327 . S
C768 H793 0.950 . S
C769 C768 1.349 . S
C769 C785 1.349 . S
C770 C768 1.327 . S
C770 C789 1.429 . S
C770 H794 0.950 . S
C771 C788 1.574 . S
C771 C790 1.368 . S
C771 H795 0.949 . S
H772 C776 0.949 . S
C773 C774 1.349 . S
C773 C775 1.327 . S
C773 H796 0.950 . S
C774 C773 1.349 . S
C774 C786 1.349 . S
C775 C773 1.327 . S
C775 C791 1.429 . S
C775 H797 0.950 1_556 S
C776 H772 0.949 . S
C776 C784 1.574 . S
C776 C792 1.368 . S
H777 C785 0.950 . S
H778 C783 0.950 . S
H779 C784 0.949 . S
H780 C786 0.950 . S
H781 C787 0.950 1_655 S
H782 C788 0.949 . S
C783 H778 0.950 . S
C783 C785 1.327 . S
C783 C789 1.429 . S
C784 C776 1.574 . S
C784 H779 0.949 . S
C784 C790 1.368 1_556 S
C785 C769 1.349 . S
C785 H777 0.950 . S
C785 C783 1.327 . S
C786 C774 1.349 . S
C786 H780 0.950 . S
C786 C787 1.327 . S
C787 H781 0.950 1_455 S
C787 C786 1.327 . S
C787 C791 1.429 . S
C788 C771 1.574 . S
C788 H782 0.949 . S
C788 C792 1.368 1_554 S
C789 C770 1.429 . S
C789 C783 1.429 . S
C789 C790 1.523 . S
C790 C771 1.368 . S
C790 C784 1.368 1_554 S
C790 C789 1.523 . S
C791 C775 1.429 . S
C791 C787 1.429 . S
C791 C792 1.522 1_455 S
C792 C776 1.368 . S
C792 C788 1.368 1_556 S
C792 C791 1.522 1_655 S
H793 C768 0.950 . S
H794 C770 0.950 . S
H795 C771 0.949 . S
H796 C773 0.950 . S
H797 C775 0.950 1_554 S
C798 C799 1.349 . S
C798 C800 1.327 . S
C798 H823 0.930 1_565 S
C799 C798 1.349 . S
C799 C815 1.349 . S
C800 C798 1.327 . S
C800 C819 1.429 . S
C800 H824 0.950 1_565 S
C801 C818 1.574 . S
C801 C820 1.368 . S
C801 H825 0.949 . S
H802 C806 0.949 . S
C803 C804 1.349 1_565 S
C803 C805 1.327 . S
C803 H826 0.950 . S
C804 C803 1.349 1_545 S
C804 C816 1.349 . S
C805 C803 1.327 . S
C805 C821 1.429 1_565 S
C805 H827 0.950 . S
C806 H802 0.949 . S
C806 C814 1.574 1_556 S
C806 C822 1.368 1_545 S
H807 C815 0.950 . S
H808 C813 0.950 . S
H809 C814 0.949 . S
H810 C816 0.950 . S
H811 C817 0.950 . S
H812 C818 0.949 1_556 S
C813 H808 0.950 . S
C813 C815 1.327 . S
C813 C819 1.429 . S
C814 C806 1.574 1_554 S
C814 H809 0.949 . S
C814 C820 1.368 1_545 S
C815 C799 1.349 . S
C815 H807 0.950 . S
C815 C813 1.327 . S
C816 C804 1.349 . S
C816 H810 0.950 . S
C816 C817 1.327 . S
C817 H811 0.950 . S
C817 C816 1.327 . S
C817 C821 1.429 . S
C818 C801 1.574 . S
C818 H812 0.949 1_554 S
C818 C822 1.368 1_554 S
C819 C800 1.429 . S
C819 C813 1.429 . S
C819 C820 1.523 . S
C820 C801 1.368 . S
C820 C814 1.368 1_565 S
C820 C819 1.523 . S
C821 C805 1.429 1_545 S
C821 C817 1.429 . S
C821 C822 1.523 1_545 S
C822 C806 1.368 1_565 S
C822 C818 1.368 1_556 S
C822 C821 1.523 1_565 S
H823 C798 0.930 1_545 S
H824 C800 0.950 1_545 S
H825 C801 0.949 . S
H826 C803 0.950 . S
H827 C805 0.950 . S
C828 C829 1.349 . S
C828 C830 1.327 . S
C828 H853 0.950 . S
C829 C828 1.349 . S
C829 C845 1.349 . S
C830 C828 1.327 . S
C830 C849 1.429 . S
C830 H854 0.950 . S
C831 C848 1.563 1_554 S
C831 C850 1.385 . S
C831 H855 0.944 1_554 S
H832 C836 0.949 . S
C833 C834 1.349 . S
C833 C835 1.327 . S
C833 H856 0.950 . S
C834 C833 1.349 . S
C834 C846 1.349 . S
C835 C833 1.327 . S
C835 C851 1.429 . S
C835 H857 0.950 . S
C836 H832 0.949 . S
C836 C844 1.574 . S
C836 C852 1.368 1_554 S
H837 C845 0.950 . S
H838 C843 0.950 . S
H839 C844 0.949 . S
H840 C846 0.950 . S
H841 C847 0.950 1_554 S
H842 C848 0.949 . S
C843 H838 0.950 . S
C843 C845 1.327 . S
C843 C849 1.429 . S
C844 C836 1.574 . S
C844 H839 0.949 . S
C844 C850 1.368 . S
C845 C829 1.349 . S
C845 H837 0.950 . S
C845 C843 1.327 . S
C846 C834 1.349 . S
C846 H840 0.950 . S
C846 C847 1.327 . S
C847 H841 0.950 1_556 S
C847 C846 1.327 . S
C847 C851 1.429 . S
C848 C831 1.563 1_556 S
C848 H842 0.949 . S
C848 C852 1.368 . S
C849 C830 1.429 . S
C849 C843 1.429 . S
C849 C850 1.523 . S
C850 C831 1.385 . S
C850 C844 1.368 . S
C850 C849 1.523 . S
C851 C835 1.429 . S
C851 C847 1.429 . S
C851 C852 1.523 . S
C852 C836 1.368 1_556 S
C852 C848 1.368 . S
C852 C851 1.523 . S
H853 C828 0.950 . S
H854 C830 0.950 . S
H855 C831 0.944 1_556 S
H856 C833 0.950 . S
H857 C835 0.950 . S
C858 C859 1.349 . S
C858 C860 1.327 . S
C858 H883 0.950 . S
C859 C858 1.349 . S
C859 C875 1.349 . S
C860 C858 1.327 . S
C860 C879 1.429 . S
C860 H884 0.950 . S
C861 C878 1.574 1_554 S
C861 C880 1.368 . S
C861 H885 0.949 . S
H862 C866 0.949 . S
C863 C864 1.349 . S
C863 C865 1.327 . S
C863 H886 0.950 . S
C864 C863 1.349 . S
C864 C876 1.349 . S
C865 C863 1.327 . S
C865 C881 1.429 . S
C865 H887 0.950 . S
C866 H862 0.949 . S
C866 C874 1.574 . S
C866 C882 1.368 1_554 S
H867 C875 0.950 . S
H868 C873 0.950 . S
H869 C874 0.949 . S
H870 C876 0.950 . S
H871 C877 0.950 . S
H872 C878 0.949 . S
C873 H868 0.950 . S
C873 C875 1.327 . S
C873 C879 1.429 . S
C874 C866 1.574 . S
C874 H869 0.949 . S
C874 C880 1.368 . S
C875 C859 1.349 . S
C875 H867 0.950 . S
C875 C873 1.327 . S
C876 C864 1.349 . S
C876 H870 0.950 . S
C876 C877 1.327 . S
C877 H871 0.950 . S
C877 C876 1.327 . S
C877 C881 1.429 . S
C878 C861 1.574 1_556 S
C878 H872 0.949 . S
C878 C882 1.368 . S
C879 C860 1.429 . S
C879 C873 1.429 . S
C879 C880 1.523 . S
C880 C861 1.368 . S
C880 C874 1.368 . S
C880 C879 1.523 . S
C881 C865 1.429 . S
C881 C877 1.429 . S
C881 C882 1.523 . S
C882 C866 1.368 1_556 S
C882 C878 1.368 . S
C882 C881 1.523 . S
H883 C858 0.950 . S
H884 C860 0.950 . S
H885 C861 0.949 . S
H886 C863 0.950 . S
H887 C865 0.950 . S
C888 C889 1.349 . S
C888 C890 1.327 . S
C888 H913 0.950 . S
C889 C888 1.349 . S
C889 C905 1.349 . S
C890 C888 1.327 . S
C890 C909 1.429 . S
C890 H914 0.950 . S
C891 C908 1.574 . S
C891 C910 1.368 . S
C891 H915 0.949 . S
H892 C896 0.949 . S
C893 C894 1.349 . S
C893 C895 1.327 . S
C893 H916 0.950 . S
C894 C893 1.349 . S
C894 C906 1.349 . S
C895 C893 1.327 . S
C895 C911 1.429 . S
C895 H917 0.950 . S
C896 H892 0.949 . S
C896 C904 1.574 . S
C896 C912 1.368 . S
H897 C905 0.950 . S
H898 C903 0.950 . S
H899 C904 0.949 . S
H900 C906 0.950 1_655 S
H901 C907 0.950 . S
H902 C908 0.949 . S
C903 H898 0.950 . S
C903 C905 1.327 . S
C903 C909 1.429 . S
C904 C896 1.574 . S
C904 H899 0.949 . S
C904 C910 1.368 . S
C905 C889 1.349 . S
C905 H897 0.950 . S
C905 C903 1.327 . S
C906 C894 1.349 . S
C906 H900 0.950 1_455 S
C906 C907 1.327 . S
C907 H901 0.950 . S
C907 C906 1.327 . S
C907 C911 1.429 . S
C908 C891 1.574 . S
C908 H902 0.949 . S
C908 C912 1.368 . S
C909 C890 1.429 . S
C909 C903 1.429 . S
C909 C910 1.523 . S
C910 C891 1.368 . S
C910 C904 1.368 . S
C910 C909 1.523 . S
C911 C895 1.429 . S
C911 C907 1.429 . S
C911 C912 1.523 . S
C912 C896 1.368 . S
C912 C908 1.368 . S
C912 C911 1.523 . S
H913 C888 0.950 . S
H914 C890 0.950 . S
H915 C891 0.949 . S
H916 C893 0.950 . S
H917 C895 0.950 . S
C918 C919 1.349 . S
C918 C920 1.327 . S
C918 H943 0.950 . S
C919 C918 1.349 . S
C919 C935 1.349 . S
C920 C918 1.327 . S
C920 C939 1.429 . S
C920 H944 0.950 . S
C921 C938 1.574 . S
C921 C940 1.368 . S
C921 H945 0.949 . S
H922 C926 0.949 . S
C923 C924 1.349 . S
C923 C925 1.327 . S
C923 H946 0.950 1_545 S
C924 C923 1.349 . S
C924 C936 1.349 . S
C925 C923 1.327 . S
C925 C941 1.429 . S
C925 H947 0.950 1_545 S
C926 H922 0.949 . S
C926 C934 1.574 . S
C926 C942 1.368 . S
H927 C935 0.950 . S
H928 C933 0.950 . S
H929 C934 0.949 . S
H930 C936 0.950 . S
H931 C937 0.950 . S
H932 C938 0.922 1_565 S
C933 H928 0.950 . S
C933 C935 1.327 . S
C933 C939 1.429 . S
C934 C926 1.574 . S
C934 H929 0.949 . S
C934 C940 1.368 . S
C935 C919 1.349 . S
C935 H927 0.950 . S
C935 C933 1.327 . S
C936 C924 1.349 . S
C936 H930 0.950 . S
C936 C937 1.327 . S
C937 H931 0.950 . S
C937 C936 1.327 . S
C937 C941 1.429 . S
C938 C921 1.574 . S
C938 H932 0.922 1_545 S
C938 C942 1.368 . S
C939 C920 1.429 . S
C939 C933 1.429 . S
C939 C940 1.523 . S
C940 C921 1.368 . S
C940 C934 1.368 . S
C940 C939 1.523 . S
C941 C925 1.429 . S
C941 C937 1.429 . S
C941 C942 1.523 . S
C942 C926 1.368 . S
C942 C938 1.368 . S
C942 C941 1.523 . S
H943 C918 0.950 . S
H944 C920 0.950 . S
H945 C921 0.949 . S
H946 C923 0.950 1_565 S
H947 C925 0.950 1_565 S
C948 C949 1.349 . S
C948 C950 1.327 . S
C948 H973 0.950 . S
C949 C948 1.349 . S
C949 C965 1.349 . S
C950 C948 1.327 . S
C950 C969 1.429 . S
C950 H974 0.950 . S
C951 C968 1.574 . S
C951 C970 1.368 . S
C951 H975 0.949 . S
H952 C956 0.949 . S
C953 C954 1.349 . S
C953 C955 1.327 . S
C953 H976 0.950 . S
C954 C953 1.349 . S
C954 C966 1.349 . S
C955 C953 1.327 . S
C955 C971 1.429 . S
C955 H977 0.950 . S
C956 H952 0.949 . S
C956 C964 1.574 . S
C956 C972 1.368 . S
H957 C965 0.950 . S
H958 C963 0.950 . S
H959 C964 0.949 . S
H960 C966 0.950 . S
H961 C967 0.950 . S
H962 C968 0.949 . S
C963 H958 0.950 . S
C963 C965 1.327 . S
C963 C969 1.429 . S
C964 C956 1.574 . S
C964 H959 0.949 . S
C964 C970 1.368 . S
C965 C949 1.349 . S
C965 H957 0.950 . S
C965 C963 1.327 . S
C966 C954 1.349 . S
C966 H960 0.950 . S
C966 C967 1.327 . S
C967 H961 0.950 . S
C967 C966 1.327 . S
C967 C971 1.429 . S
C968 C951 1.574 . S
C968 H962 0.949 . S
C968 C972 1.368 . S
C969 C950 1.429 . S
C969 C963 1.429 . S
C969 C970 1.523 . S
C970 C951 1.368 . S
C970 C964 1.368 . S
C970 C969 1.523 . S
C971 C955 1.429 . S
C971 C967 1.429 . S
C971 C972 1.523 . S
C972 C956 1.368 . S
C972 C968 1.368 . S
C972 C971 1.523 . S
H973 C948 0.950 . S
H974 C950 0.950 . S
H975 C951 0.949 . S
H976 C953 0.950 . S
H977 C955 0.950 . S
C978 C979 1.349 . S
C978 C980 1.327 . S
C978 H1003 0.950 . S
C979 C978 1.349 . S
C979 C995 1.349 . S
C980 C978 1.327 . S
C980 C999 1.429 . S
C980 H1004 0.950 . S
C981 C998 1.574 . S
C981 C1000 1.368 . S
C981 H1005 0.949 . S
H982 C986 0.949 . S
C983 C984 1.349 . S
C983 C985 1.327 . S
C983 H1006 0.950 . S
C984 C983 1.349 . S
C984 C996 1.349 . S
C985 C983 1.327 . S
C985 C1001 1.429 . S
C985 H1007 0.950 . S
C986 H982 0.949 . S
C986 C994 1.574 . S
C986 C1002 1.368 . S
H987 C995 0.950 . S
H988 C993 0.950 . S
H989 C994 0.949 . S
H990 C996 0.950 . S
H991 C997 0.950 . S
H992 C998 0.949 . S
C993 H988 0.950 . S
C993 C995 1.327 . S
C993 C999 1.429 . S
C994 C986 1.574 . S
C994 H989 0.949 . S
C994 C1000 1.368 . S
C995 C979 1.349 . S
C995 H987 0.950 . S
C995 C993 1.327 . S
C996 C984 1.349 . S
C996 H990 0.950 . S
C996 C997 1.327 . S
C997 H991 0.950 . S
C997 C996 1.327 . S
C997 C1001 1.429 . S
C998 C981 1.574 . S
C998 H992 0.949 . S
C998 C1002 1.368 . S
C999 C980 1.429 . S
C999 C993 1.429 . S
C999 C1000 1.523 . S
C1000 C981 1.368 . S
C1000 C994 1.368 . S
C1000 C999 1.523 . S
C1001 C985 1.429 . S
C1001 C997 1.429 . S
C1001 C1002 1.523 . S
C1002 C986 1.368 . S
C1002 C998 1.368 . S
C1002 C1001 1.523 . S
H1003 C978 0.950 . S
H1004 C980 0.950 . S
H1005 C981 0.949 . S
H1006 C983 0.950 . S
H1007 C985 0.950 . S
C1008 C1009 1.349 . S
C1008 C1010 1.327 . S
C1008 H1033 0.950 . S
C1009 C1008 1.349 . S
C1009 C1025 1.349 . S
C1010 C1008 1.327 . S
C1010 C1029 1.429 . S
C1010 H1034 0.950 . S
C1011 C1028 1.574 . S
C1011 C1030 1.368 . S
C1011 H1035 0.949 . S
H1012 C1016 0.949 . S
C1013 C1014 1.349 . S
C1013 C1015 1.327 . S
C1013 H1036 0.950 . S
C1014 C1013 1.349 . S
C1014 C1026 1.349 . S
C1015 C1013 1.327 . S
C1015 C1031 1.429 . S
C1015 H1037 0.950 . S
C1016 H1012 0.949 . S
C1016 C1024 1.574 . S
C1016 C1032 1.368 . S
H1017 C1025 0.950 . S
H1018 C1023 0.950 . S
H1019 C1024 0.949 . S
H1020 C1026 0.950 . S
H1021 C1027 0.950 . S
H1022 C1028 0.949 . S
C1023 H1018 0.950 . S
C1023 C1025 1.327 . S
C1023 C1029 1.429 . S
C1024 C1016 1.574 . S
C1024 H1019 0.949 . S
C1024 C1030 1.368 . S
C1025 C1009 1.349 . S
C1025 H1017 0.950 . S
C1025 C1023 1.327 . S
C1026 C1014 1.349 . S
C1026 H1020 0.950 . S
C1026 C1027 1.327 . S
C1027 H1021 0.950 . S
C1027 C1026 1.327 . S
C1027 C1031 1.429 . S
C1028 C1011 1.574 . S
C1028 H1022 0.949 . S
C1028 C1032 1.368 . S
C1029 C1010 1.429 . S
C1029 C1023 1.429 . S
C1029 C1030 1.523 . S
C1030 C1011 1.368 . S
C1030 C1024 1.368 . S
C1030 C1029 1.523 . S
C1031 C1015 1.429 . S
C1031 C1027 1.429 . S
C1031 C1032 1.523 . S
C1032 C1016 1.368 . S
C1032 C1028 1.368 . S
C1032 C1031 1.523 . S
H1033 C1008 0.950 . S
H1034 C1010 0.950 . S
H1035 C1011 0.949 . S
H1036 C1013 0.950 . S
H1037 C1015 0.950 . S
C1038 C1039 1.349 . S
C1038 C1040 1.327 . S
C1038 H1063 0.950 . S
C1039 C1038 1.349 . S
C1039 C1055 1.349 . S
C1040 C1038 1.327 . S
C1040 C1059 1.429 . S
C1040 H1064 0.943 1_565 S
C1041 C1058 1.574 . S
C1041 C1060 1.368 . S
C1041 H1065 0.949 . S
H1042 C1046 0.919 1_545 S
C1043 C1044 1.349 . S
C1043 C1045 1.327 . S
C1043 H1066 0.950 . S
C1044 C1043 1.349 . S
C1044 C1056 1.349 1_565 S
C1045 C1043 1.327 . S
C1045 C1061 1.429 . S
C1045 H1067 0.950 . S
C1046 H1042 0.919 1_565 S
C1046 C1054 1.580 . S
C1046 C1062 1.397 . S
H1047 C1055 0.950 . S
H1048 C1053 0.950 . S
H1049 C1054 0.949 1_545 S
H1050 C1056 0.950 . S
H1051 C1057 0.950 . S
H1052 C1058 0.949 . S
C1053 H1048 0.950 . S
C1053 C1055 1.327 . S
C1053 C1059 1.429 . S
C1054 C1046 1.580 . S
C1054 H1049 0.949 1_565 S
C1054 C1060 1.368 . S
C1055 C1039 1.349 . S
C1055 H1047 0.950 . S
C1055 C1053 1.327 . S
C1056 C1044 1.349 1_545 S
C1056 H1050 0.950 . S
C1056 C1057 1.327 . S
C1057 H1051 0.950 . S
C1057 C1056 1.327 . S
C1057 C1061 1.429 1_545 S
C1058 C1041 1.574 . S
C1058 H1052 0.949 . S
C1058 C1062 1.368 . S
C1059 C1040 1.429 . S
C1059 C1053 1.429 . S
C1059 C1060 1.523 . S
C1060 C1041 1.368 . S
C1060 C1054 1.368 . S
C1060 C1059 1.523 . S
C1061 C1045 1.429 . S
C1061 C1057 1.429 1_565 S
C1061 C1062 1.523 . S
C1062 C1046 1.397 . S
C1062 C1058 1.368 . S
C1062 C1061 1.523 . S
H1063 C1038 0.950 . S
H1064 C1040 0.943 1_545 S
H1065 C1041 0.949 . S
H1066 C1043 0.950 . S
H1067 C1045 0.950 . S
C1068 C1069 1.349 . S
C1068 C1070 1.327 . S
C1068 H1093 0.950 . S
C1069 C1068 1.349 . S
C1069 C1085 1.349 . S
C1070 C1068 1.327 . S
C1070 C1089 1.429 . S
C1070 H1094 0.950 . S
C1071 C1088 1.574 . S
C1071 C1090 1.368 . S
C1071 H1095 0.949 . S
H1072 C1076 0.949 . S
C1073 C1074 1.349 . S
C1073 C1075 1.327 . S
C1073 H1096 0.950 . S
C1074 C1073 1.349 . S
C1074 C1086 1.349 . S
C1075 C1073 1.327 . S
C1075 C1091 1.429 . S
C1075 H1097 0.950 . S
C1076 H1072 0.949 . S
C1076 C1084 1.574 . S
C1076 C1092 1.368 . S
H1077 C1085 0.950 . S
H1078 C1083 0.950 . S
H1079 C1084 0.949 . S
H1080 C1086 0.950 . S
H1081 C1087 0.950 . S
H1082 C1088 0.949 . S
C1083 H1078 0.950 . S
C1083 C1085 1.327 . S
C1083 C1089 1.429 . S
C1084 C1076 1.574 . S
C1084 H1079 0.949 . S
C1084 C1090 1.368 . S
C1085 C1069 1.349 . S
C1085 H1077 0.950 . S
C1085 C1083 1.327 . S
C1086 C1074 1.349 . S
C1086 H1080 0.950 . S
C1086 C1087 1.327 . S
C1087 H1081 0.950 . S
C1087 C1086 1.327 . S
C1087 C1091 1.429 . S
C1088 C1071 1.574 . S
C1088 H1082 0.949 . S
C1088 C1092 1.368 . S
C1089 C1070 1.429 . S
C1089 C1083 1.429 . S
C1089 C1090 1.523 . S
C1090 C1071 1.368 . S
C1090 C1084 1.368 . S
C1090 C1089 1.523 . S
C1091 C1075 1.429 . S
C1091 C1087 1.429 . S
C1091 C1092 1.523 . S
C1092 C1076 1.368 . S
C1092 C1088 1.368 . S
C1092 C1091 1.523 . S
H1093 C1068 0.950 . S
H1094 C1070 0.950 . S
H1095 C1071 0.949 . S
H1096 C1073 0.950 . S
H1097 C1075 0.950 . S
C1098 C1099 1.349 . S
C1098 C1100 1.327 . S
C1098 H1123 0.950 . S
C1099 C1098 1.349 . S
C1099 C1115 1.349 . S
C1100 C1098 1.327 . S
C1100 C1119 1.429 . S
C1100 H1124 0.950 . S
C1101 C1118 1.574 . S
C1101 C1120 1.368 . S
C1101 H1125 0.949 . S
H1102 C1106 0.949 . S
C1103 C1104 1.349 . S
C1103 C1105 1.327 . S
C1103 H1126 0.950 . S
C1104 C1103 1.349 . S
C1104 C1116 1.349 . S
C1105 C1103 1.327 . S
C1105 C1121 1.429 . S
C1105 H1127 0.950 . S
C1106 H1102 0.949 . S
C1106 C1114 1.574 . S
C1106 C1122 1.368 . S
H1107 C1115 0.950 . S
H1108 C1113 0.950 . S
H1109 C1114 0.949 . S
H1110 C1116 0.950 . S
H1111 C1117 0.950 . S
H1112 C1118 0.949 . S
C1113 H1108 0.950 . S
C1113 C1115 1.327 . S
C1113 C1119 1.429 . S
C1114 C1106 1.574 . S
C1114 H1109 0.949 . S
C1114 C1120 1.368 . S
C1115 C1099 1.349 . S
C1115 H1107 0.950 . S
C1115 C1113 1.327 . S
C1116 C1104 1.349 . S
C1116 H1110 0.950 . S
C1116 C1117 1.327 . S
C1117 H1111 0.950 . S
C1117 C1116 1.327 . S
C1117 C1121 1.429 . S
C1118 C1101 1.574 . S
C1118 H1112 0.949 . S
C1118 C1122 1.368 . S
C1119 C1100 1.429 . S
C1119 C1113 1.429 . S
C1119 C1120 1.523 . S
C1120 C1101 1.368 . S
C1120 C1114 1.368 . S
C1120 C1119 1.523 . S
C1121 C1105 1.429 . S
C1121 C1117 1.429 . S
C1121 C1122 1.523 . S
C1122 C1106 1.368 . S
C1122 C1118 1.368 . S
C1122 C1121 1.523 . S
H1123 C1098 0.950 . S
H1124 C1100 0.950 . S
H1125 C1101 0.949 . S
H1126 C1103 0.950 . S
H1127 C1105 0.950 . S
C409 C61 1.742 . S
C414 C135 1.827 . S
C444 C212 1.844 . S
C439 C70 1.760 . S
C474 C303 1.817 . S
C469 C43 1.730 . S
C504 C387 1.808 . S
C499 C52 1.723 . S
C534 C146 1.826 1_565 S
C529 C25 1.744 . S
C559 C34 1.758 . S
C564 C223 1.844 . S
C589 C7 1.733 . S
C594 C314 1.817 . S
C619 C16 1.725 . S
C624 C398 1.808 1_655 S
C654 C130 0.458 . S
C649 C50 0.337 . S
C684 C225 0.545 . S
C679 C59 0.310 . S
C714 C298 0.455 . S
C709 C67 0.332 . S
C739 C41 0.325 . S
C744 C382 0.451 . S
C769 C14 0.324 . S
C774 C141 0.458 . S
C804 C214 0.545 . S
C799 C23 0.294 . S
C834 C309 0.455 . S
C829 C31 0.339 . S
C859 C5 0.312 . S
C864 C393 0.451 . S
C889 C49 1.787 . S
C894 C139 1.952 . S
C919 C58 1.776 . S
C924 C230 1.926 . S
C954 C307 1.968 . S
C949 C68 1.802 . S
C984 C391 1.974 . S
C979 C40 1.807 . S
C1009 C13 1.788 . S
C1014 C128 1.953 . S
C1044 C219 1.930 . S
C1039 C22 1.778 . S
C1074 C296 1.969 . S
C1069 C32 1.799 . S
C1099 C4 1.808 . S
C1104 C380 1.974 . S
