# Generated by pormake.
# Topology ssa, (4,4)-cn, num edge types: 1
# Building blocks:
#     Node 0, Type 0, BuildingBlock: KOZSID_clean_sbu_0, # of connection points: 4
#     Node 1, Type 0, BuildingBlock: KOZSID_clean_sbu_0, # of connection points: 4
#     Node 2, Type 0, BuildingBlock: KOZSID_clean_sbu_0, # of connection points: 4
#     Node 3, Type 0, BuildingBlock: KOZSID_clean_sbu_0, # of connection points: 4
#     Node 4, Type 0, BuildingBlock: KOZSID_clean_sbu_0, # of connection points: 4
#     Node 5, Type 0, BuildingBlock: KOZSID_clean_sbu_0, # of connection points: 4
#     Node 6, Type 1, BuildingBlock: NAWXER_clean_linker_0, # of connection points: 4
#     Node 7, Type 1, BuildingBlock: NAWXER_clean_linker_0, # of connection points: 4
#     Node 8, Type 1, BuildingBlock: NAWXER_clean_linker_0, # of connection points: 4
#     Node 9, Type 1, BuildingBlock: NAWXER_clean_linker_0, # of connection points: 4
#     Node 10, Type 1, BuildingBlock: NAWXER_clean_linker_0, # of connection points: 4
#     Node 11, Type 1, BuildingBlock: NAWXER_clean_linker_0, # of connection points: 4
#     Edge 12, Type (0, 1), BuildingBlock: XIVTED_clean_linker_0, # of connection points: 2
#     Edge 13, Type (0, 1), BuildingBlock: XIVTED_clean_linker_0, # of connection points: 2
#     Edge 14, Type (0, 1), BuildingBlock: XIVTED_clean_linker_0, # of connection points: 2
#     Edge 15, Type (0, 1), BuildingBlock: XIVTED_clean_linker_0, # of connection points: 2
#     Edge 16, Type (0, 1), BuildingBlock: XIVTED_clean_linker_0, # of connection points: 2
#     Edge 17, Type (0, 1), BuildingBlock: XIVTED_clean_linker_0, # of connection points: 2
#     Edge 18, Type (0, 1), BuildingBlock: XIVTED_clean_linker_0, # of connection points: 2
#     Edge 19, Type (0, 1), BuildingBlock: XIVTED_clean_linker_0, # of connection points: 2
#     Edge 20, Type (0, 1), BuildingBlock: XIVTED_clean_linker_0, # of connection points: 2
#     Edge 21, Type (0, 1), BuildingBlock: XIVTED_clean_linker_0, # of connection points: 2
#     Edge 22, Type (0, 1), BuildingBlock: XIVTED_clean_linker_0, # of connection points: 2
#     Edge 23, Type (0, 1), BuildingBlock: XIVTED_clean_linker_0, # of connection points: 2
#     Edge 24, Type (0, 1), BuildingBlock: XIVTED_clean_linker_0, # of connection points: 2
#     Edge 25, Type (0, 1), BuildingBlock: XIVTED_clean_linker_0, # of connection points: 2
#     Edge 26, Type (0, 1), BuildingBlock: XIVTED_clean_linker_0, # of connection points: 2
#     Edge 27, Type (0, 1), BuildingBlock: XIVTED_clean_linker_0, # of connection points: 2
#     Edge 28, Type (0, 1), BuildingBlock: XIVTED_clean_linker_0, # of connection points: 2
#     Edge 29, Type (0, 1), BuildingBlock: XIVTED_clean_linker_0, # of connection points: 2
#     Edge 30, Type (0, 1), BuildingBlock: XIVTED_clean_linker_0, # of connection points: 2
#     Edge 31, Type (0, 1), BuildingBlock: XIVTED_clean_linker_0, # of connection points: 2
#     Edge 32, Type (0, 1), BuildingBlock: XIVTED_clean_linker_0, # of connection points: 2
#     Edge 33, Type (0, 1), BuildingBlock: XIVTED_clean_linker_0, # of connection points: 2
#     Edge 34, Type (0, 1), BuildingBlock: XIVTED_clean_linker_0, # of connection points: 2
#     Edge 35, Type (0, 1), BuildingBlock: XIVTED_clean_linker_0, # of connection points: 2
# Relax obj value: 0.006
# Max RMSD: 0.022
# Mean RMSD: 0.013
data_MOF--net-ssa--node1-KOZSID_clean_sbu_0--node2-NAWXER_clean_linker_0--edge1-XIVTED_clean_linker_0
_symmetry_space_group_name_H-M    P1
_symmetry_Int_Tables_number       1
_symmetry_cell_setting            triclinic
loop_
_symmetry_equiv_pos_as_xyz
'x, y, z'
_cell_length_a     63.107838
_cell_length_b     64.477489
_cell_length_c     44.990739
_cell_angle_alpha  87.78175
_cell_angle_beta   89.935538
_cell_angle_gamma 122.15879
loop_
_atom_site_label
_atom_site_type_symbol
_atom_site_fract_x
_atom_site_fract_y
_atom_site_fract_z
_atom_type_partial_charge
C0 C 0.96109 0.51303 0.9909 0.0
C1 C 0.93916 0.50874 0.00421 0.0
C2 C 0.93506 0.49457 0.02944 0.0
C3 C 0.95472 0.49118 0.03021 0.0
N4 N 0.97131 0.50253 0.00714 0.0
Co5 Co 0.00279 0.50273 0.99976 0.0
N6 N 0.99574 0.48035 0.03567 0.0
C7 C 0.97542 0.47018 0.05424 0.0
C8 C 0.97553 0.45518 0.07657 0.0
C9 C 0.99731 0.45593 0.07221 0.0
C10 C 0.00937 0.47159 0.04748 0.0
N11 N 0.03451 0.50323 0.9927 0.0
C12 C 0.04486 0.49292 0.00913 0.0
C13 C 0.06784 0.49894 0.99708 0.0
C14 C 0.07213 0.51345 0.97214 0.0
C15 C 0.05174 0.51564 0.97046 0.0
N16 N 0.00956 0.52477 0.9635 0.0
C17 C 0.0294 0.53419 0.94428 0.0
C18 C 0.02835 0.54767 0.92071 0.0
C19 C 0.00638 0.54662 0.92487 0.0
C20 C 0.99533 0.53259 0.95097 0.0
N21 N 0.02147 0.53172 0.02459 0.0
C22 C 0.04917 0.57197 0.06081 0.0
C23 C 0.05805 0.57179 0.03247 0.0
C24 C 0.04396 0.55175 0.01482 0.0
C25 C 0.02596 0.55189 0.07053 0.0
C26 C 0.01259 0.53209 0.05227 0.0
N27 N 0.98417 0.47374 0.97496 0.0
C28 C 0.98167 0.45203 0.93111 0.0
C29 C 0.95754 0.43275 0.93943 0.0
C30 C 0.94701 0.43438 0.96591 0.0
C31 C 0.96054 0.45479 0.9832 0.0
C32 C 0.99449 0.47217 0.94897 0.0
H33 H 0.9514 0.45488 0.00304 0.0
H34 H 0.01271 0.48623 0.94124 0.0
H35 H 0.05179 0.55284 0.99346 0.0
H36 H 0.99528 0.51717 0.06123 0.0
C37 C 0.95721 0.47607 0.05109 0.0
C38 C 0.97083 0.52631 0.96226 0.0
C39 C 0.03409 0.47811 0.03673 0.0
C40 C 0.04841 0.52952 0.94855 0.0
H41 H 0.9271 0.51483 0.99617 0.0
H42 H 0.91931 0.48712 0.04498 0.0
H43 H 0.96163 0.44523 0.09423 0.0
H44 H 0.00376 0.44633 0.08594 0.0
H45 H 0.08047 0.49373 0.0056 0.0
H46 H 0.08836 0.52174 0.95725 0.0
H47 H 0.04172 0.55679 0.90236 0.0
H48 H 0.99916 0.55489 0.91002 0.0
H49 H 0.0758 0.58712 0.02382 0.0
H50 H 0.0184 0.55114 0.09246 0.0
H51 H 0.99084 0.45156 0.91101 0.0
H52 H 0.92821 0.42017 0.97317 0.0
C53 C 0.53659 0.00995 0.55271 0.0
C54 C 0.53703 0.99939 0.58001 0.0
C55 C 0.51452 0.97782 0.58371 0.0
C56 C 0.50161 0.97647 0.55867 0.0
N57 N 0.51459 0.99577 0.53896 0.0
Co58 Co 0.5024 0.00183 0.50032 0.0
N59 N 0.4688 0.97067 0.50658 0.0
C60 C 0.46108 0.95433 0.53009 0.0
C61 C 0.43719 0.93448 0.52786 0.0
C62 C 0.42923 0.93816 0.50115 0.0
C63 C 0.44885 0.96011 0.48857 0.0
N64 N 0.49015 0.00799 0.46181 0.0
C65 C 0.46805 0.99397 0.44822 0.0
C66 C 0.46737 0.00482 0.42126 0.0
C67 C 0.48988 0.0264 0.41759 0.0
C68 C 0.50298 0.02748 0.44235 0.0
N69 N 0.53605 0.03287 0.49394 0.0
C70 C 0.54391 0.04896 0.47017 0.0
C71 C 0.56795 0.06859 0.47211 0.0
C72 C 0.5759 0.065 0.49888 0.0
C73 C 0.55608 0.04335 0.51181 0.0
N74 N 0.51458 0.98346 0.47917 0.0
C75 C 0.52945 0.95593 0.44799 0.0
C76 C 0.53482 0.97872 0.43651 0.0
C77 C 0.52725 0.99205 0.45231 0.0
C78 C 0.51707 0.94747 0.47565 0.0
C79 C 0.50996 0.96141 0.49074 0.0
N80 N 0.49019 0.02016 0.5215 0.0
C81 C 0.48832 0.05643 0.52628 0.0
C82 C 0.47487 0.04708 0.55325 0.0
C83 C 0.46874 0.02379 0.56365 0.0
C84 C 0.47649 0.01079 0.54759 0.0
C85 C 0.49571 0.04277 0.51089 0.0
H86 H 0.47132 0.99328 0.55693 0.0
H87 H 0.50615 0.05103 0.49067 0.0
H88 H 0.53155 0.00908 0.44214 0.0
H89 H 0.50052 0.95382 0.51162 0.0
C90 C 0.47694 0.95782 0.55357 0.0
C91 C 0.557 0.03397 0.54147 0.0
C92 C 0.44778 0.9698 0.45918 0.0
C93 C 0.52783 0.04578 0.44708 0.0
H94 H 0.55188 0.00671 0.59593 0.0
H95 H 0.50812 0.96492 0.6027 0.0
H96 H 0.42693 0.919 0.54357 0.0
H97 H 0.41113 0.92593 0.49179 0.0
H98 H 0.4524 0.99765 0.40551 0.0
H99 H 0.49619 0.03943 0.39874 0.0
H100 H 0.57829 0.08392 0.45623 0.0
H101 H 0.5941 0.07714 0.50807 0.0
H102 H 0.54425 0.986 0.41504 0.0
H103 H 0.51287 0.93011 0.48574 0.0
H104 H 0.4937 0.07447 0.51736 0.0
H105 H 0.45793 0.01551 0.58414 0.0
C106 C 0.54234 0.53318 0.95245 0.0
C107 C 0.54767 0.54931 0.92814 0.0
C108 C 0.52686 0.55034 0.92385 0.0
C109 C 0.51016 0.53501 0.9458 0.0
N110 N 0.51909 0.52438 0.96407 0.0
Co111 Co 0.50127 0.50131 0.99933 0.0
N112 N 0.47011 0.50167 0.99181 0.0
C113 C 0.46625 0.51354 0.96905 0.0
C114 C 0.44285 0.51003 0.9695 0.0
C115 C 0.43108 0.4952 0.99417 0.0
C116 C 0.44815 0.49067 0.00751 0.0
N117 N 0.48354 0.47856 0.03492 0.0
C118 C 0.46054 0.47034 0.04702 0.0
C119 C 0.45598 0.45582 0.07277 0.0
C120 C 0.4768 0.45483 0.07711 0.0
C121 C 0.49288 0.46884 0.05401 0.0
N122 N 0.53231 0.50062 0.00649 0.0
C123 C 0.53574 0.48785 0.02849 0.0
C124 C 0.55849 0.48997 0.02692 0.0
C125 C 0.57029 0.50482 0.00228 0.0
C126 C 0.55404 0.51109 0.9903 0.0
N127 N 0.51379 0.52977 0.02504 0.0
C128 C 0.53064 0.56979 0.06206 0.0
C129 C 0.53398 0.55052 0.06977 0.0
C130 C 0.52544 0.53087 0.05116 0.0
C131 C 0.51879 0.56866 0.0354 0.0
C132 C 0.51069 0.54875 0.01737 0.0
N133 N 0.48873 0.47286 0.97363 0.0
C134 C 0.48076 0.43253 0.96503 0.0
C135 C 0.47158 0.43269 0.9368 0.0
C136 C 0.47109 0.45335 0.92743 0.0
C137 C 0.47975 0.47306 0.94596 0.0
C138 C 0.48905 0.45254 0.98292 0.0
H139 H 0.47905 0.48826 0.93733 0.0
H140 H 0.4958 0.4512 0.0041 0.0
H141 H 0.52845 0.51676 0.05845 0.0
H142 H 0.50179 0.54907 0.99746 0.0
C143 C 0.48549 0.52909 0.94869 0.0
C144 C 0.55969 0.52625 0.96295 0.0
C145 C 0.4429 0.47662 0.03565 0.0
C146 C 0.51703 0.4736 0.04998 0.0
H147 H 0.56471 0.55902 0.91462 0.0
H148 H 0.52406 0.56064 0.90643 0.0
H149 H 0.43542 0.51777 0.95409 0.0
H150 H 0.41221 0.4888 0.00182 0.0
H151 H 0.43951 0.44715 0.08725 0.0
H152 H 0.48001 0.44538 0.09524 0.0
H153 H 0.56548 0.48139 0.04164 0.0
H154 H 0.58863 0.51004 0.99389 0.0
H155 H 0.54333 0.55061 0.08997 0.0
H156 H 0.51532 0.58286 0.02856 0.0
H157 H 0.482 0.41721 0.97324 0.0
H158 H 0.46386 0.45433 0.90595 0.0
C159 C 0.95467 0.44542 0.51045 0.0
C160 C 0.93215 0.42779 0.49856 0.0
C161 C 0.92865 0.43858 0.47398 0.0
C162 C 0.94925 0.462 0.47212 0.0
N163 N 0.96577 0.46681 0.49394 0.0
Co164 Co 0.99873 0.49813 0.49882 0.0
N165 N 0.99217 0.51487 0.46481 0.0
C166 C 0.97104 0.5054 0.44891 0.0
C167 C 0.97141 0.52159 0.42798 0.0
C168 C 0.99418 0.54267 0.43055 0.0
C169 C 0.00655 0.53798 0.45277 0.0
N170 N 0.03225 0.5291 0.50272 0.0
C171 C 0.04357 0.55032 0.48578 0.0
C172 C 0.06787 0.56648 0.49471 0.0
C173 C 0.07195 0.5552 0.51824 0.0
C174 C 0.05016 0.5328 0.52216 0.0
N175 N 0.00465 0.48177 0.53388 0.0
C176 C 0.02489 0.49186 0.55135 0.0
C177 C 0.02299 0.47686 0.57496 0.0
C178 C -1e-05 0.456 0.57274 0.0
C179 C 0.98926 0.45944 0.5476 0.0
N180 N 0.0145 0.48654 0.47122 0.0
C181 C 0.03817 0.47213 0.43126 0.0
C182 C 0.0457 0.4767 0.46066 0.0
C183 C 0.03383 0.48401 0.48006 0.0
C184 C 0.01835 0.47441 0.42227 0.0
C185 C 0.0067 0.48132 0.44251 0.0
N186 N 0.98303 0.50976 0.52628 0.0
C187 C 0.98485 0.53176 0.56953 0.0
C188 C 0.96066 0.5266 0.56476 0.0
C189 C 0.94783 0.51267 0.54055 0.0
C190 C 0.95925 0.50453 0.52178 0.0
C191 C 0.9956 0.52322 0.55018 0.0
H192 H 0.9484 0.49398 0.50379 0.0
H193 H 0.01411 0.52779 0.55495 0.0
H194 H 0.04089 0.48777 0.50196 0.0
H195 H 0.99154 0.48247 0.43425 0.0
C196 C 0.95216 0.48064 0.45241 0.0
C197 C 0.96417 0.44129 0.5381 0.0
C198 C 0.03226 0.55573 0.46075 0.0
C199 C 0.04563 0.51524 0.54452 0.0
H200 H 0.9193 0.40922 0.50719 0.0
H201 H 0.9126 0.43057 0.45977 0.0
H202 H 0.95709 0.51829 0.41225 0.0
H203 H 0.00108 0.55946 0.41717 0.0
H204 H 0.08141 0.5845 0.48514 0.0
H205 H 0.08883 0.56244 0.53095 0.0
H206 H 0.03663 0.4807 0.5919 0.0
H207 H 0.992 0.44018 0.58811 0.0
H208 H 0.06116 0.47532 0.46847 0.0
H209 H 0.01176 0.47076 0.39971 0.0
H210 H 0.99564 0.54263 0.58787 0.0
H211 H 0.92884 0.50772 0.53623 0.0
C212 C 0.46507 0.99276 0.05301 0.0
C213 C 0.46566 0.00488 0.07814 0.0
C214 C 0.48838 0.02637 0.07756 0.0
C215 C 0.50037 0.02612 0.0523 0.0
N216 N 0.48657 0.00589 0.03645 0.0
Co217 Co 0.49722 0.9974 0.9991 0.0
N218 N 0.53124 0.02831 0.99934 0.0
C219 C 0.54001 0.04581 0.01968 0.0
C220 C 0.56397 0.06508 0.01364 0.0
C221 C 0.57086 0.05975 0.98769 0.0
C222 C 0.55056 0.03748 0.97935 0.0
N223 N 0.50791 0.98883 0.96186 0.0
C224 C 0.52955 0.00176 0.94554 0.0
C225 C 0.52914 0.98943 0.92071 0.0
C226 C 0.50636 0.968 0.92122 0.0
C227 C 0.49419 0.96849 0.94618 0.0
N228 N 0.46315 0.96657 0.99875 0.0
C229 C 0.45426 0.94926 0.97817 0.0
C230 C 0.43021 0.93011 0.98404 0.0
C231 C 0.42339 0.93531 0.01014 0.0
C232 C 0.44383 0.95737 0.01875 0.0
N233 N 0.48492 0.01499 0.9747 0.0
C234 C 0.47007 0.04129 0.93831 0.0
C235 C 0.46344 0.01765 0.93163 0.0
C236 C 0.47107 0.00496 0.94994 0.0
C237 C 0.48362 0.05128 0.96391 0.0
C238 C 0.49067 0.03789 0.98172 0.0
N239 N 0.50951 0.97983 0.0235 0.0
C240 C 0.51005 0.94323 0.03515 0.0
C241 C 0.52442 0.9537 0.0601 0.0
C242 C 0.53181 0.97769 0.06599 0.0
C243 C 0.52415 0.9903 0.0476 0.0
C244 C 0.50299 0.95656 0.01721 0.0
H245 H 0.52997 0.00831 0.05365 0.0
H246 H 0.492 0.94752 0.99859 0.0
H247 H 0.46587 0.98724 0.94329 0.0
H248 H 0.50101 0.04658 0.00082 0.0
C249 C 0.52499 0.044 0.0437 0.0
C250 C 0.44427 0.96829 0.04667 0.0
C251 C 0.55032 0.02625 0.95177 0.0
C252 C 0.46942 0.95084 0.95445 0.0
H253 H 0.4514 0.99863 0.0955 0.0
H254 H 0.49557 0.04022 0.09401 0.0
H255 H 0.57496 0.08125 0.02633 0.0
H256 H 0.58869 0.07113 0.97597 0.0
H257 H 0.54357 0.99552 0.9036 0.0
H258 H 0.49925 0.95405 0.90491 0.0
H259 H 0.41916 0.91401 0.97124 0.0
H260 H 0.40555 0.92393 0.02183 0.0
H261 H 0.45306 0.00924 0.91187 0.0
H262 H 0.48882 0.06943 0.97021 0.0
H263 H 0.50423 0.92479 0.02947 0.0
H264 H 0.54285 0.98649 0.08523 0.0
C265 C 0.51186 0.55349 0.4911 0.0
C266 C 0.50587 0.56962 0.50215 0.0
C267 C 0.49051 0.558 0.52644 0.0
C268 C 0.48784 0.53549 0.52877 0.0
N269 N 0.50078 0.53205 0.50757 0.0
Co270 Co 0.50103 0.50147 0.50166 0.0
N271 N 0.47734 0.48399 0.53656 0.0
C272 C 0.46703 0.49296 0.55435 0.0
C273 C 0.45157 0.47669 0.57653 0.0
C274 C 0.45227 0.45616 0.57301 0.0
C275 C 0.46831 0.46121 0.54887 0.0
N276 N 0.5011 0.47083 0.49559 0.0
C277 C 0.48988 0.44932 0.51191 0.0
C278 C 0.49543 0.433 0.50043 0.0
C279 C 0.51063 0.44457 0.476 0.0
C280 C 0.51362 0.46723 0.47401 0.0
N281 N 0.5249 0.51903 0.46696 0.0
C282 C 0.5355 0.51017 0.44948 0.0
C283 C 0.55128 0.52657 0.42759 0.0
C284 C 0.55053 0.54708 0.43103 0.0
C285 C 0.53411 0.54188 0.4548 0.0
N286 N 0.52972 0.51313 0.52863 0.0
C287 C 0.56951 0.52807 0.56786 0.0
C288 C 0.5702 0.51958 0.54006 0.0
C289 C 0.55014 0.51204 0.52104 0.0
C290 C 0.54885 0.52932 0.57561 0.0
C291 C 0.52945 0.52209 0.55567 0.0
N292 N 0.47232 0.48983 0.47469 0.0
C293 C 0.4534 0.47524 0.42708 0.0
C294 C 0.43226 0.47553 0.4357 0.0
C295 C 0.43134 0.48245 0.4645 0.0
C296 C 0.45142 0.48968 0.48325 0.0
C297 C 0.47294 0.4822 0.44685 0.0
H298 H 0.44958 0.49527 0.50448 0.0
H299 H 0.48848 0.48155 0.43896 0.0
H300 H 0.55148 0.50513 0.5005 0.0
H301 H 0.51439 0.52377 0.56277 0.0
C302 C 0.4725 0.51689 0.54984 0.0
C303 C 0.52716 0.55891 0.46415 0.0
C304 C 0.47492 0.44402 0.53913 0.0
C305 C 0.52942 0.48602 0.45342 0.0
H306 H 0.51156 0.58774 0.49329 0.0
H307 H 0.48183 0.56492 0.54035 0.0
H308 H 0.44124 0.47951 0.59342 0.0
H309 H 0.44232 0.43944 0.58687 0.0
H310 H 0.48962 0.41481 0.50912 0.0
H311 H 0.5191 0.43757 0.46189 0.0
H312 H 0.56173 0.52379 0.41081 0.0
H313 H 0.56061 0.56385 0.41728 0.0
H314 H 0.58584 0.51813 0.53333 0.0
H315 H 0.54772 0.53601 0.59692 0.0
H316 H 0.45523 0.47019 0.40499 0.0
H317 H 0.41517 0.48236 0.47276 0.0
C318 C 0.29854 0.45889 0.18265 0.0
C319 C 0.29466 0.44294 0.15993 0.0
C320 C 0.27851 0.45525 0.20018 0.0
C321 C 0.25416 0.43524 0.19591 0.0
C322 C 0.27023 0.42296 0.15553 0.0
C323 C 0.25014 0.41924 0.17327 0.0
C324 C 0.23279 0.43226 0.21348 0.0
C325 C 0.28036 0.42215 0.28082 0.0
C326 C 0.29167 0.44125 0.30079 0.0
C327 C 0.26152 0.41981 0.26215 0.0
C328 C 0.25371 0.4365 0.26321 0.0
C329 C 0.28396 0.45808 0.30128 0.0
C330 C 0.26504 0.45556 0.28296 0.0
C331 C 0.23325 0.43409 0.24471 0.0
C332 C 0.13425 0.42156 0.27656 0.0
C333 C 0.14276 0.44208 0.29392 0.0
C334 C 0.15129 0.41887 0.25984 0.0
C335 C 0.17705 0.43648 0.26071 0.0
C336 C 0.16852 0.45967 0.29463 0.0
C337 C 0.18553 0.45674 0.27843 0.0
C338 C 0.19547 0.43393 0.24365 0.0
C339 C 0.15881 0.4582 0.17886 0.0
C340 C 0.14261 0.43985 0.15975 0.0
C341 C 0.17571 0.45552 0.19589 0.0
C342 C 0.17678 0.43441 0.19429 0.0
C343 C 0.14407 0.41889 0.15774 0.0
C344 C 0.16115 0.41628 0.17476 0.0
C345 C 0.19477 0.43187 0.21253 0.0
H346 H 0.3171 0.47432 0.18688 0.0
H347 H 0.28206 0.46842 0.21672 0.0
H348 H 0.26653 0.41054 0.13794 0.0
H349 H 0.23144 0.40395 0.16922 0.0
H350 H 0.28565 0.40872 0.28005 0.0
H351 H 0.25276 0.40476 0.24731 0.0
H352 H 0.29264 0.47338 0.31574 0.0
H353 H 0.2594 0.46874 0.28399 0.0
H354 H 0.11445 0.40778 0.27572 0.0
H355 H 0.14442 0.40298 0.2465 0.0
H356 H 0.17552 0.47551 0.3081 0.0
H357 H 0.20535 0.47048 0.27944 0.0
H358 H 0.15876 0.47489 0.18038 0.0
H359 H 0.18813 0.47008 0.21017 0.0
H360 H 0.1318 0.40437 0.14334 0.0
H361 H 0.1619 0.39997 0.17305 0.0
N362 N 0.21341 0.43103 0.19854 0.0
N363 N 0.21467 0.43502 0.25851 0.0
C364 C 0.85778 0.28182 0.79061 0.0
C365 C 0.84939 0.28924 0.81455 0.0
C366 C 0.84058 0.26298 0.7729 0.0
C367 C 0.81469 0.25169 0.7784 0.0
C368 C 0.82355 0.2775 0.82042 0.0
C369 C 0.80643 0.25895 0.80256 0.0
C370 C 0.79585 0.23191 0.75991 0.0
C371 C 0.83722 0.29797 0.6971 0.0
C372 C 0.84946 0.29526 0.67281 0.0
C373 C 0.82053 0.27774 0.71545 0.0
C374 C 0.8161 0.25442 0.71034 0.0
C375 C 0.84494 0.27186 0.66767 0.0
C376 C 0.8283 0.25161 0.68618 0.0
C377 C 0.79714 0.23267 0.72846 0.0
C378 C 0.69348 0.15604 0.69642 0.0
C379 C 0.69786 0.14476 0.67311 0.0
C380 C 0.71295 0.17193 0.71449 0.0
C381 C 0.73715 0.17655 0.71006 0.0
C382 C 0.72217 0.14955 0.66857 0.0
C383 C 0.74166 0.16543 0.68677 0.0
C384 C 0.75807 0.19433 0.72824 0.0
C385 C 0.70384 0.13168 0.79065 0.0
C386 C 0.69269 0.13881 0.81168 0.0
C387 C 0.72483 0.14939 0.7737 0.0
C388 C 0.73492 0.17446 0.77758 0.0
C389 C 0.70323 0.16389 0.81589 0.0
C390 C 0.72419 0.18151 0.79914 0.0
C391 C 0.75669 0.1937 0.75962 0.0
H392 H 0.87762 0.29035 0.78585 0.0
H393 H 0.84753 0.25722 0.75504 0.0
H394 H 0.81653 0.28299 0.83852 0.0
H395 H 0.7866 0.25051 0.80742 0.0
H396 H 0.84042 0.31574 0.70187 0.0
H397 H 0.81074 0.28028 0.73334 0.0
H398 H 0.85373 0.26906 0.64888 0.0
H399 H 0.82479 0.2337 0.68151 0.0
H400 H 0.67497 0.15264 0.70071 0.0
H401 H 0.70912 0.18089 0.73168 0.0
H402 H 0.72628 0.14147 0.65053 0.0
H403 H 0.76029 0.16909 0.68262 0.0
H404 H 0.69611 0.11246 0.78698 0.0
H405 H 0.73311 0.14354 0.75757 0.0
H406 H 0.69534 0.16993 0.83233 0.0
H407 H 0.73179 0.20073 0.80268 0.0
N408 N 0.77559 0.2125 0.77413 0.0
N409 N 0.77833 0.21372 0.7139 0.0
C410 C 0.58858 0.71742 0.21486 0.0
C411 C 0.5718 0.70931 0.19127 0.0
C412 C 0.59131 0.73607 0.23256 0.0
C413 C 0.57683 0.74647 0.2274 0.0
C414 C 0.55766 0.71999 0.18592 0.0
C415 C 0.56014 0.73832 0.20377 0.0
C416 C 0.57917 0.76635 0.2455 0.0
C417 C 0.55231 0.7022 0.31045 0.0
C418 C 0.57006 0.7055 0.3317 0.0
C419 C 0.55589 0.72193 0.29237 0.0
C420 C 0.57733 0.74536 0.29508 0.0
C421 C 0.59148 0.7291 0.33445 0.0
C422 C 0.59496 0.7489 0.31645 0.0
C423 C 0.58041 0.76634 0.27687 0.0
C424 C 0.54945 0.83475 0.30848 0.0
C425 C 0.56699 0.84971 0.32938 0.0
C426 C 0.55373 0.81975 0.29124 0.0
C427 C 0.57572 0.8195 0.29436 0.0
C428 C 0.589 0.8494 0.33255 0.0
C429 C 0.5932 0.8342 0.31537 0.0
C430 C 0.57971 0.803 0.27659 0.0
C431 C 0.58521 0.86205 0.2145 0.0
C432 C 0.56672 0.85298 0.19277 0.0
C433 C 0.58953 0.84606 0.23144 0.0
C434 C 0.57526 0.82073 0.22709 0.0
C435 C 0.55317 0.82775 0.18783 0.0
C436 C 0.5574 0.81184 0.20477 0.0
C437 C 0.57856 0.80306 0.24524 0.0
H438 H 0.59993 0.70968 0.21922 0.0
H439 H 0.60494 0.7425 0.24996 0.0
H440 H 0.54439 0.71394 0.16811 0.0
H441 H 0.54876 0.746 0.19921 0.0
H442 H 0.53529 0.68448 0.3082 0.0
H443 H 0.54169 0.71896 0.27659 0.0
H444 H 0.60563 0.73226 0.35041 0.0
H445 H 0.61149 0.76694 0.31904 0.0
H446 H 0.53241 0.83471 0.30536 0.0
H447 H 0.53974 0.80818 0.27557 0.0
H448 H 0.60271 0.86053 0.34872 0.0
H449 H 0.61013 0.83401 0.31836 0.0
H450 H 0.59599 0.88141 0.21877 0.0
H451 H 0.60392 0.85346 0.24797 0.0
H452 H 0.53924 0.82024 0.17077 0.0
H453 H 0.54634 0.79243 0.20074 0.0
N454 N 0.57831 0.78475 0.23105 0.0
N455 N 0.58079 0.78474 0.29121 0.0
C456 C 0.86751 0.57947 0.72175 0.0
C457 C 0.85905 0.5636 0.69803 0.0
C458 C 0.85041 0.58085 0.74012 0.0
C459 C 0.82454 0.56589 0.7355 0.0
C460 C 0.83323 0.54898 0.69322 0.0
C461 C 0.8162 0.55012 0.71173 0.0
C462 C 0.80583 0.56697 0.75426 0.0
C463 C 0.84349 0.541 0.81573 0.0
C464 C 0.85663 0.55663 0.83884 0.0
C465 C 0.82732 0.54464 0.79844 0.0
C466 C 0.82429 0.56428 0.80341 0.0
C467 C 0.85333 0.57613 0.84405 0.0
C468 C 0.83718 0.57982 0.82659 0.0
C469 C 0.8065 0.56762 0.78569 0.0
C470 C 0.70393 0.54234 0.81878 0.0
C471 C 0.70776 0.56053 0.83824 0.0
C472 C 0.72383 0.54481 0.80209 0.0
C473 C 0.74803 0.56554 0.80437 0.0
C474 C 0.73218 0.58109 0.84094 0.0
C475 C 0.75218 0.58348 0.82425 0.0
C476 C 0.76891 0.56802 0.78637 0.0
C477 C 0.72107 0.58007 0.72186 0.0
C478 C 0.707 0.55947 0.70472 0.0
C479 C 0.74089 0.58252 0.73861 0.0
C480 C 0.74711 0.56462 0.73791 0.0
C481 C 0.71323 0.54159 0.70417 0.0
C482 C 0.73333 0.54431 0.72034 0.0
C483 C 0.76802 0.56684 0.75515 0.0
H484 H 0.88735 0.59115 0.7257 0.0
H485 H 0.85744 0.59375 0.75768 0.0
H486 H 0.82616 0.53638 0.67531 0.0
H487 H 0.79638 0.53845 0.70758 0.0
H488 H 0.84573 0.52594 0.81092 0.0
H489 H 0.81699 0.53191 0.7813 0.0
H490 H 0.86285 0.58826 0.86197 0.0
H491 H 0.83477 0.59483 0.83115 0.0
H492 H 0.68556 0.52595 0.81672 0.0
H493 H 0.72034 0.53038 0.78751 0.0
H494 H 0.73579 0.5955 0.85559 0.0
H495 H 0.77078 0.59952 0.82648 0.0
H496 H 0.71653 0.59406 0.72253 0.0
H497 H 0.75148 0.59843 0.75189 0.0
H498 H 0.70274 0.52567 0.69089 0.0
H499 H 0.73791 0.53036 0.7195 0.0
N500 N 0.78646 0.56638 0.74033 0.0
N501 N 0.78813 0.5684 0.80054 0.0
C502 C 0.16773 0.70657 0.21778 0.0
C503 C 0.15483 0.70995 0.19454 0.0
C504 C 0.18315 0.72582 0.23593 0.0
C505 C 0.18593 0.74881 0.23125 0.0
C506 C 0.15752 0.73294 0.19 0.0
C507 C 0.17317 0.7523 0.20802 0.0
C508 C 0.20348 0.76958 0.24927 0.0
C509 C 0.13918 0.71549 0.30924 0.0
C510 C 0.14592 0.70681 0.33431 0.0
C511 C 0.15748 0.73573 0.29198 0.0
C512 C 0.18292 0.74713 0.29898 0.0
C513 C 0.17119 0.71874 0.34191 0.0
C514 C 0.1895 0.73865 0.32439 0.0
C515 C 0.20288 0.76825 0.28072 0.0
C516 C 0.29267 0.86724 0.31097 0.0
C517 C 0.30274 0.85902 0.33292 0.0
C518 C 0.27257 0.85041 0.29413 0.0
C519 C 0.26231 0.82511 0.2989 0.0
C520 C 0.29189 0.83367 0.33818 0.0
C521 C 0.27184 0.81692 0.32145 0.0
C522 C 0.24173 0.80681 0.28073 0.0
C523 C 0.30808 0.84955 0.21776 0.0
C524 C 0.30433 0.86152 0.19345 0.0
C525 C 0.28798 0.83257 0.23623 0.0
C526 C 0.26377 0.82756 0.23118 0.0
C527 C 0.28005 0.85647 0.18844 0.0
C528 C 0.25995 0.83955 0.20706 0.0
C529 C 0.24212 0.8083 0.24929 0.0
H530 H 0.16592 0.68903 0.22189 0.0
H531 H 0.19325 0.72287 0.25332 0.0
H532 H 0.14803 0.73613 0.17204 0.0
H533 H 0.17535 0.77 0.20382 0.0
H534 H 0.11974 0.70679 0.30321 0.0
H535 H 0.15169 0.74246 0.27328 0.0
H536 H 0.17687 0.71231 0.36106 0.0
H537 H 0.20892 0.7472 0.33048 0.0
H538 H 0.30063 0.88666 0.30639 0.0
H539 H 0.26517 0.85716 0.27729 0.0
H540 H 0.29887 0.82673 0.35533 0.0
H541 H 0.26408 0.79749 0.32575 0.0
H542 H 0.32654 0.85313 0.2224 0.0
H543 H 0.29132 0.82298 0.25409 0.0
H544 H 0.27643 0.86505 0.16964 0.0
H545 H 0.24134 0.83562 0.20245 0.0
N546 N 0.22292 0.78967 0.23481 0.0
N547 N 0.22213 0.78686 0.29512 0.0
C548 C 0.41487 0.13864 0.78608 0.0
C549 C 0.43302 0.14732 0.80821 0.0
C550 C 0.41095 0.15494 0.7692 0.0
C551 C 0.42533 0.1802 0.77398 0.0
C552 C 0.44654 0.17245 0.81372 0.0
C553 C 0.44272 0.18867 0.79681 0.0
C554 C 0.42274 0.19824 0.75563 0.0
C555 C 0.45074 0.16452 0.69416 0.0
C556 C 0.4341 0.15116 0.67165 0.0
C557 C 0.44694 0.17997 0.71115 0.0
C558 C 0.42618 0.1821 0.70637 0.0
C559 C 0.41367 0.15383 0.66636 0.0
C560 C 0.40982 0.16926 0.68351 0.0
C561 C 0.42236 0.19872 0.72421 0.0
C562 C 0.45005 0.29977 0.69102 0.0
C563 C 0.43244 0.2966 0.66961 0.0
C564 C 0.44638 0.27992 0.7089 0.0
C565 C 0.42502 0.2565 0.70582 0.0
C566 C 0.41111 0.27301 0.66648 0.0
C567 C 0.40756 0.25309 0.68428 0.0
C568 C 0.42175 0.23542 0.72396 0.0
C569 C 0.41272 0.2841 0.78527 0.0
C570 C 0.42889 0.29185 0.80945 0.0
C571 C 0.41014 0.26544 0.76772 0.0
C572 C 0.42425 0.25473 0.77356 0.0
C573 C 0.44249 0.28073 0.81564 0.0
C574 C 0.44023 0.26244 0.79789 0.0
C575 C 0.42231 0.23505 0.75538 0.0
H576 H 0.40412 0.11937 0.78137 0.0
H577 H 0.3969 0.14786 0.75226 0.0
H578 H 0.46018 0.17966 0.8311 0.0
H579 H 0.45383 0.20801 0.80121 0.0
H580 H 0.46699 0.16337 0.69832 0.0
H581 H 0.46036 0.1904 0.72791 0.0
H582 H 0.40049 0.14375 0.64923 0.0
H583 H 0.39391 0.17095 0.67916 0.0
H584 H 0.467 0.31749 0.69356 0.0
H585 H 0.46043 0.28278 0.72488 0.0
H586 H 0.39707 0.26994 0.65042 0.0
H587 H 0.39109 0.23506 0.68142 0.0
H588 H 0.40177 0.29218 0.78028 0.0
H589 H 0.39696 0.2593 0.74984 0.0
H590 H 0.45525 0.28649 0.83398 0.0
H591 H 0.45128 0.25449 0.80303 0.0
N592 N 0.42276 0.21644 0.76984 0.0
N593 N 0.42162 0.21718 0.7096 0.0
H594 H 0.05316 0.49471 0.09091 0.0
H595 H 0.12873 0.42741 0.10197 0.0
H596 H 0.04862 0.44608 0.02471 0.0
H597 H 0.11535 0.45943 0.17665 0.0
H598 H 0.10093 0.43513 0.07232 0.0
H599 H 0.07803 0.48366 0.12167 0.0
C600 C 0.05747 0.48167 0.08298 0.0
C601 C 0.0491 0.47134 0.05535 0.0
C602 C 0.10401 0.44034 0.09525 0.0
C603 C 0.07749 0.45867 0.09009 0.0
C604 C 0.11978 0.43582 0.11226 0.0
C605 C 0.12461 0.44297 0.14183 0.0
C606 C 0.09314 0.45224 0.10782 0.0
C607 C 0.11268 0.45409 0.15379 0.0
C608 C 0.07157 0.47532 0.10046 0.0
C609 C 0.055 0.45451 0.04588 0.0
N610 N 0.09767 0.45852 0.1367 0.0
N611 N 0.06901 0.44878 0.06316 0.0
H612 H 0.59529 0.02861 0.55928 0.0
H613 H 0.66126 0.15116 0.65074 0.0
H614 H 0.56612 0.07526 0.5673 0.0
H615 H 0.68746 0.10148 0.65002 0.0
H616 H 0.62705 0.1241 0.61898 0.0
H617 H 0.63005 0.05557 0.59123 0.0
C618 C 0.59628 0.04454 0.56794 0.0
C619 C 0.57796 0.04981 0.56101 0.0
C620 C 0.64024 0.11907 0.62577 0.0
C621 C 0.61746 0.08071 0.59711 0.0
C622 C 0.65974 0.13446 0.64408 0.0
C623 C 0.67722 0.12854 0.65328 0.0
C624 C 0.63814 0.09753 0.61642 0.0
C625 C 0.67457 0.10691 0.6433 0.0
C626 C 0.61604 0.05991 0.58607 0.0
C627 C 0.57997 0.07067 0.57237 0.0
N628 N 0.65538 0.09218 0.62545 0.0
N629 N 0.59938 0.08539 0.58988 0.0
H630 H 0.52948 0.56904 0.12329 0.0
H631 H 0.57081 0.70908 0.13063 0.0
H632 H 0.55116 0.61846 0.04584 0.0
H633 H 0.56587 0.66514 0.20822 0.0
H634 H 0.56282 0.67567 0.0993 0.0
H635 H 0.54216 0.60355 0.15493 0.0
C636 C 0.53713 0.58715 0.11288 0.0
C637 C 0.53911 0.59074 0.08174 0.0
C638 C 0.56364 0.67334 0.12315 0.0
C639 C 0.55328 0.6303 0.11796 0.0
C640 C 0.5681 0.69238 0.14104 0.0
C641 C 0.56885 0.6898 0.17206 0.0
C642 C 0.55964 0.6514 0.13635 0.0
C643 C 0.56555 0.6679 0.18438 0.0
C644 C 0.54426 0.60684 0.13101 0.0
C645 C 0.54879 0.61463 0.06965 0.0
N646 N 0.56085 0.64943 0.1665 0.0
N647 N 0.55537 0.63342 0.08775 0.0
H648 H 0.9629 0.5289 0.62571 0.0
H649 H 0.85964 0.56407 0.6374 0.0
H650 H 0.93107 0.54445 0.54966 0.0
H651 H 0.89874 0.55947 0.71346 0.0
H652 H 0.88667 0.55795 0.60495 0.0
H653 H 0.94089 0.54129 0.65831 0.0
C654 C 0.95151 0.53516 0.61582 0.0
C655 C 0.94866 0.5354 0.58487 0.0
C656 C 0.88951 0.55845 0.6287 0.0
C657 C 0.92318 0.54931 0.6221 0.0
C658 C 0.87402 0.56184 0.64723 0.0
C659 C 0.87684 0.56206 0.67815 0.0
C660 C 0.90788 0.55499 0.64115 0.0
C661 C 0.89601 0.55948 0.68971 0.0
C662 C 0.93887 0.54213 0.63447 0.0
C663 C 0.93342 0.54345 0.5734 0.0
N664 N 0.91066 0.5558 0.67121 0.0
N665 N 0.92117 0.54992 0.592 0.0
H666 H 0.43739 0.929 0.07968 0.0
H667 H 0.31483 0.90514 0.16651 0.0
H668 H 0.40636 0.9739 0.065 0.0
H669 H 0.34194 0.8562 0.17281 0.0
H670 H 0.34929 0.93187 0.13141 0.0
H671 H 0.40376 0.90346 0.11639 0.0
C672 C 0.42344 0.93344 0.08443 0.0
C673 C 0.42448 0.95346 0.06965 0.0
C674 C 0.34771 0.91531 0.14055 0.0
C675 C 0.38603 0.92451 0.11127 0.0
C676 C 0.32798 0.89997 0.16049 0.0
C677 C 0.32547 0.87838 0.1727 0.0
C678 C 0.36508 0.90901 0.13277 0.0
C679 C 0.3433 0.87283 0.16438 0.0
C680 C 0.40428 0.91892 0.10526 0.0
C681 C 0.40609 0.9586 0.07623 0.0
N682 N 0.36229 0.88801 0.14495 0.0
N683 N 0.38755 0.94419 0.09662 0.0
H684 H 0.49234 0.44299 0.59394 0.0
H685 H 0.42224 0.2974 0.61029 0.0
H686 H 0.44191 0.39576 0.52819 0.0
H687 H 0.45256 0.34427 0.68476 0.0
H688 H 0.43136 0.33299 0.57859 0.0
H689 H 0.48066 0.40683 0.62633 0.0
C690 C 0.47882 0.4249 0.58643 0.0
C691 C 0.46813 0.42211 0.55848 0.0
C692 C 0.43589 0.33541 0.60191 0.0
C693 C 0.45475 0.38084 0.59506 0.0
C694 C 0.43057 0.31508 0.6201 0.0
C695 C 0.43675 0.31779 0.65029 0.0
C696 C 0.4477 0.35867 0.61391 0.0
C697 C 0.44792 0.34131 0.66153 0.0
C698 C 0.47211 0.40433 0.60485 0.0
C699 C 0.45065 0.39845 0.54957 0.0
N700 N 0.45317 0.36084 0.64331 0.0
N701 N 0.44457 0.37863 0.56777 0.0
H702 H 0.57283 0.97067 0.41613 0.0
H703 H 0.52322 0.83681 0.35816 0.0
H704 H 0.50085 0.90649 0.44091 0.0
H705 H 0.5992 0.89773 0.34313 0.0
H706 H 0.51453 0.86269 0.38733 0.0
H707 H 0.58267 0.94495 0.38787 0.0
C708 C 0.55908 0.9512 0.41557 0.0
C709 C 0.536 0.94071 0.43098 0.0
C710 C 0.53314 0.87044 0.37775 0.0
C711 C 0.54715 0.9112 0.3988 0.0
C712 C 0.53807 0.85569 0.36095 0.0
C713 C 0.56194 0.86517 0.34806 0.0
C714 C 0.55214 0.89497 0.38161 0.0
C715 C 0.58058 0.88966 0.35283 0.0
C716 C 0.56477 0.93651 0.39959 0.0
C717 C 0.519 0.91533 0.42973 0.0
N718 N 0.57526 0.90377 0.36909 0.0
N719 N 0.52488 0.90149 0.41387 0.0
H720 H 0.60897 0.55775 0.97564 0.0
H721 H 0.65972 0.54233 0.82021 0.0
H722 H 0.56107 0.51041 0.90829 0.0
H723 H 0.70674 0.5724 0.89616 0.0
H724 H 0.62401 0.53524 0.85009 0.0
H725 H 0.64576 0.56799 0.94475 0.0
C726 C 0.60632 0.54957 0.95431 0.0
C727 C 0.58217 0.53309 0.94444 0.0
C728 C 0.64215 0.54342 0.86021 0.0
C729 C 0.62378 0.54485 0.90899 0.0
C730 C 0.66256 0.54739 0.84321 0.0
C731 C 0.68629 0.55772 0.85575 0.0
C732 C 0.64541 0.54998 0.88999 0.0
C733 C 0.68888 0.56453 0.88546 0.0
C734 C 0.62721 0.55538 0.93673 0.0
C735 C 0.57949 0.52311 0.91659 0.0
N736 N 0.66867 0.56047 0.9016 0.0
N737 N 0.60006 0.52914 0.8998 0.0
H738 H 0.0519 0.603 0.47644 0.0
H739 H 0.10986 0.66227 0.31466 0.0
H740 H 0.04669 0.56 0.40264 0.0
H741 H 0.13885 0.70193 0.3947 0.0
H742 H 0.08033 0.62548 0.34516 0.0
H743 H 0.07809 0.64057 0.44521 0.0
C744 C 0.0563 0.60159 0.45361 0.0
C745 C 0.04748 0.5786 0.44201 0.0
C746 C 0.09309 0.64229 0.35599 0.0
C747 C 0.07678 0.62108 0.40623 0.0
C748 C 0.10977 0.66326 0.33864 0.0
C749 C 0.12681 0.68504 0.35228 0.0
C750 C 0.09325 0.64327 0.38712 0.0
C751 C 0.12613 0.68538 0.38341 0.0
C752 C 0.07116 0.6229 0.43587 0.0
C753 C 0.05332 0.57751 0.41228 0.0
N754 N 0.10959 0.66478 0.39983 0.0
N755 N 0.0676 0.59849 0.39534 0.0
H756 H 0.42546 0.02654 0.91142 0.0
H757 H 0.47866 0.15584 0.82393 0.0
H758 H 0.50058 0.08909 0.91917 0.0
H759 H 0.3997 0.10058 0.83128 0.0
H760 H 0.48738 0.12947 0.85463 0.0
H761 H 0.41599 0.05138 0.87794 0.0
C762 C 0.43995 0.04547 0.90599 0.0
C763 C 0.46379 0.05585 0.91818 0.0
C764 C 0.46813 0.12307 0.84957 0.0
C765 C 0.45317 0.08421 0.88001 0.0
C766 C 0.46311 0.13817 0.83212 0.0
C767 C 0.43837 0.13057 0.82536 0.0
C768 C 0.44829 0.10005 0.86028 0.0
C769 C 0.41905 0.10716 0.83588 0.0
C770 C 0.43452 0.05963 0.88703 0.0
C771 C 0.48185 0.08047 0.91061 0.0
N772 N 0.42442 0.09273 0.85296 0.0
N773 N 0.47618 0.09377 0.89198 0.0
H774 H 0.41385 0.44146 0.392 0.0
H775 H 0.29839 0.45522 0.35843 0.0
H776 H 0.40334 0.49554 0.43144 0.0
H777 H 0.32944 0.43259 0.29055 0.0
H778 H 0.33246 0.46268 0.39068 0.0
H779 H 0.37918 0.43155 0.35882 0.0
C780 C 0.40443 0.45134 0.39369 0.0
C781 C 0.41152 0.46925 0.4149 0.0
C782 C 0.33179 0.45607 0.36871 0.0
C783 C 0.37151 0.45746 0.37756 0.0
C784 C 0.31241 0.45191 0.35017 0.0
C785 C 0.31126 0.44374 0.32138 0.0
C786 C 0.35004 0.45169 0.35873 0.0
C787 C 0.32952 0.43888 0.31253 0.0
C788 C 0.38458 0.44554 0.37484 0.0
C789 C 0.39826 0.48114 0.41617 0.0
N790 N 0.34825 0.44299 0.33113 0.0
N791 N 0.37885 0.4749 0.39796 0.0
H792 H 0.95666 0.43208 0.87834 0.0
H793 H 0.84927 0.29028 0.87521 0.0
H794 H 0.92594 0.3843 0.95731 0.0
H795 H 0.89009 0.33402 0.79648 0.0
H796 H 0.87694 0.32473 0.90563 0.0
H797 H 0.9324 0.39665 0.84789 0.0
C798 C 0.94502 0.41414 0.88933 0.0
C799 C 0.94334 0.41126 0.92053 0.0
C800 C 0.87999 0.32678 0.88172 0.0
C801 C 0.91516 0.37062 0.88568 0.0
C802 C 0.86414 0.30715 0.86435 0.0
C803 C 0.86732 0.30937 0.83328 0.0
C804 C 0.89905 0.34893 0.86793 0.0
C805 C 0.88708 0.33152 0.82038 0.0
C806 C 0.93108 0.39392 0.87189 0.0
C807 C 0.92754 0.38755 0.9334 0.0
N808 N 0.90208 0.35053 0.83775 0.0
N809 N 0.91401 0.3682 0.91594 0.0
H810 H 0.97691 0.57085 0.94818 0.0
H811 H 0.84874 0.51259 0.86006 0.0
H812 H 0.92818 0.49361 0.93494 0.0
H813 H 0.90252 0.59056 0.86077 0.0
H814 H 0.87676 0.50547 0.88968 0.0
H815 H 0.94913 0.57876 0.91829 0.0
C816 C 0.96038 0.55564 0.93877 0.0
C817 C 0.95475 0.53162 0.94364 0.0
C818 C 0.88248 0.52415 0.88334 0.0
C819 C 0.92288 0.54031 0.90999 0.0
C820 C 0.86652 0.52824 0.86627 0.0
C821 C 0.87333 0.55222 0.85766 0.0
C822 C 0.90544 0.54417 0.89209 0.0
C823 C 0.89638 0.57177 0.86708 0.0
C824 C 0.94455 0.56009 0.92182 0.0
C825 C 0.93308 0.51239 0.93143 0.0
N826 N 0.91162 0.56732 0.88375 0.0
N827 N 0.91789 0.51714 0.91518 0.0
H828 H 0.44019 0.93015 0.43069 0.0
H829 H 0.31196 0.90141 0.35739 0.0
H830 H 0.40833 0.97398 0.44351 0.0
H831 H 0.34353 0.8568 0.34768 0.0
H832 H 0.34777 0.92928 0.38717 0.0
H833 H 0.40537 0.90379 0.39871 0.0
C834 C 0.42577 0.93414 0.4266 0.0
C835 C 0.42693 0.95411 0.43947 0.0
C836 C 0.34686 0.91341 0.37848 0.0
C837 C 0.38714 0.92425 0.40316 0.0
C838 C 0.3265 0.89757 0.36135 0.0
C839 C 0.32466 0.87665 0.35019 0.0
C840 C 0.36556 0.90833 0.38439 0.0
C841 C 0.34394 0.87247 0.35625 0.0
C842 C 0.40594 0.91918 0.40842 0.0
C843 C 0.40794 0.9587 0.43376 0.0
N844 N 0.36352 0.88812 0.37294 0.0
N845 N 0.38876 0.94385 0.41599 0.0
H846 H 0.47696 0.43371 0.87592 0.0
H847 H 0.42761 0.29179 0.87009 0.0
H848 H 0.44652 0.38349 0.95289 0.0
H849 H 0.4373 0.33678 0.79152 0.0
H850 H 0.43592 0.32564 0.9009 0.0
H851 H 0.4638 0.39897 0.84459 0.0
C852 C 0.46729 0.41541 0.88627 0.0
C853 C 0.46297 0.41164 0.91723 0.0
C854 C 0.43604 0.32808 0.87693 0.0
C855 C 0.44828 0.37177 0.88138 0.0
C856 C 0.4314 0.30881 0.85936 0.0
C857 C 0.43189 0.31157 0.82824 0.0
C858 C 0.44156 0.35044 0.8633 0.0
C859 C 0.43664 0.33389 0.81545 0.0
C860 C 0.45989 0.39557 0.86832 0.0
C861 C 0.45075 0.38744 0.92927 0.0
N862 N 0.44155 0.35259 0.83304 0.0
N863 N 0.44399 0.36849 0.91137 0.0
H864 H 0.05048 0.43748 0.43843 0.0
H865 H 0.13856 0.48198 0.294 0.0
H866 H 0.05623 0.49264 0.37566 0.0
H867 H 0.10716 0.40944 0.33449 0.0
H868 H 0.11118 0.48809 0.32621 0.0
H869 H 0.07406 0.42861 0.4032 0.0
C870 C 0.05669 0.44766 0.4172 0.0
C871 C 0.05146 0.4658 0.40986 0.0
C872 C 0.11013 0.47076 0.32787 0.0
C873 C 0.07849 0.45595 0.36977 0.0
C874 C 0.12577 0.46732 0.30962 0.0
C875 C 0.12504 0.4452 0.31172 0.0
C876 C 0.09402 0.45212 0.34876 0.0
C877 C 0.10812 0.4267 0.33216 0.0
C878 C 0.06997 0.44251 0.39709 0.0
C879 C 0.05975 0.47839 0.38203 0.0
N880 N 0.09343 0.43067 0.3502 0.0
N881 N 0.07308 0.4734 0.36309 0.0
H882 H 0.58915 0.02134 0.93578 0.0
H883 H 0.65073 0.13958 0.82364 0.0
H884 H 0.55647 0.06423 0.91652 0.0
H885 H 0.68338 0.09614 0.83998 0.0
H886 H 0.61505 0.11083 0.85583 0.0
H887 H 0.62298 0.04718 0.89913 0.0
C888 C 0.58914 0.03615 0.92358 0.0
C889 C 0.57023 0.04083 0.92886 0.0
C890 C 0.62993 0.10747 0.85232 0.0
C891 C 0.60856 0.07038 0.88736 0.0
C892 C 0.65035 0.12394 0.83403 0.0
C893 C 0.67015 0.12036 0.82938 0.0
C894 C 0.62927 0.08726 0.86624 0.0
C895 C 0.66846 0.09953 0.84291 0.0
C896 C 0.60834 0.05086 0.90276 0.0
C897 C 0.57085 0.06018 0.91285 0.0
N898 N 0.64846 0.08384 0.86094 0.0
N899 N 0.58977 0.07432 0.89285 0.0
H900 H 0.51015 0.55958 0.40899 0.0
H901 H 0.5805 0.70522 0.39101 0.0
H902 H 0.55972 0.6073 0.47499 0.0
H903 H 0.54969 0.65765 0.31724 0.0
H904 H 0.57122 0.66983 0.42325 0.0
H905 H 0.52193 0.59553 0.37615 0.0
C906 C 0.52349 0.57773 0.41647 0.0
C907 C 0.53391 0.58071 0.4446 0.0
C908 C 0.56662 0.66721 0.39997 0.0
C909 C 0.54745 0.62176 0.40749 0.0
C910 C 0.57204 0.68743 0.38147 0.0
C911 C 0.56576 0.68445 0.35132 0.0
C912 C 0.55462 0.64382 0.38832 0.0
C913 C 0.55442 0.66081 0.34042 0.0
C914 C 0.53027 0.59819 0.39779 0.0
C915 C 0.55118 0.60445 0.45346 0.0
N916 N 0.54908 0.64141 0.35894 0.0
N917 N 0.55735 0.62416 0.43499 0.0
H918 H 0.47588 0.05112 0.61368 0.0
H919 H 0.42936 0.14505 0.61137 0.0
H920 H 0.45789 0.07642 0.53304 0.0
H921 H 0.4485 0.11982 0.69111 0.0
H922 H 0.43805 0.11894 0.58232 0.0
H923 H 0.46445 0.07518 0.64237 0.0
C924 C 0.46933 0.06159 0.60199 0.0
C925 C 0.46779 0.06166 0.57085 0.0
C926 C 0.4403 0.11909 0.60618 0.0
C927 C 0.45493 0.08962 0.60368 0.0
C928 C 0.43519 0.13388 0.62281 0.0
C929 C 0.43832 0.13473 0.65373 0.0
C930 C 0.44854 0.105 0.62058 0.0
C931 C 0.44621 0.12006 0.66729 0.0
C932 C 0.46294 0.07546 0.61841 0.0
C933 C 0.45963 0.07601 0.55695 0.0
N934 N 0.45107 0.10586 0.65064 0.0
N935 N 0.4535 0.0894 0.57346 0.0
H936 H 0.40068 0.43161 0.0486 0.0
H937 H 0.33341 0.48719 0.13734 0.0
H938 H 0.43479 0.50848 0.06347 0.0
H939 H 0.30459 0.40959 0.13799 0.0
H940 H 0.36921 0.49504 0.10717 0.0
H941 H 0.36382 0.42277 0.07838 0.0
C942 C 0.40033 0.44654 0.0583 0.0
C943 C 0.42064 0.47073 0.05394 0.0
C944 C 0.35509 0.47628 0.11393 0.0
C945 C 0.3788 0.46098 0.08745 0.0
C946 C 0.33466 0.47177 0.13131 0.0
C947 C 0.31603 0.44769 0.14054 0.0
C948 C 0.35696 0.45658 0.10544 0.0
C949 C 0.3184 0.42844 0.13126 0.0
C950 C 0.37939 0.44155 0.07519 0.0
C951 C 0.41942 0.48958 0.06655 0.0
N952 N 0.33853 0.4333 0.11427 0.0
N953 N 0.39882 0.48432 0.08272 0.0
H954 H 0.968 0.4016 0.55069 0.0
H955 H 0.84284 0.33198 0.65249 0.0
H956 H 0.92258 0.43136 0.56902 0.0
H957 H 0.89416 0.30723 0.6464 0.0
H958 H 0.87071 0.36729 0.61963 0.0
H959 H 0.93999 0.3655 0.58326 0.0
C960 C 0.95209 0.40043 0.56171 0.0
C961 C 0.9475 0.41932 0.55756 0.0
C962 C 0.87592 0.35417 0.6255 0.0
C963 C 0.91543 0.37834 0.59436 0.0
C964 C 0.86007 0.33405 0.64444 0.0
C965 C 0.86623 0.31665 0.65245 0.0
C966 C 0.89811 0.35697 0.61429 0.0
C967 C 0.88854 0.32004 0.64065 0.0
C968 C 0.93616 0.37993 0.58021 0.0
C969 C 0.92665 0.41708 0.5719 0.0
N970 N 0.90369 0.33982 0.62218 0.0
N971 N 0.91135 0.39694 0.58969 0.0
H972 H 0.49369 0.90644 0.08111 0.0
H973 H 0.59991 0.89924 0.1684 0.0
H974 H 0.56957 0.96838 0.08547 0.0
H975 H 0.52094 0.84429 0.17738 0.0
H976 H 0.58997 0.92478 0.13712 0.0
H977 H 0.5042 0.88281 0.11469 0.0
C978 C 0.51263 0.915 0.08903 0.0
C979 C 0.53083 0.93933 0.0804 0.0
C980 C 0.57485 0.90717 0.14607 0.0
C981 C 0.54297 0.91249 0.11911 0.0
C982 C 0.58049 0.89264 0.16402 0.0
C983 C 0.56124 0.86947 0.17526 0.0
C984 C 0.54981 0.89838 0.13927 0.0
C985 C 0.53643 0.86177 0.16866 0.0
C986 C 0.51858 0.90158 0.10839 0.0
C987 C 0.55496 0.94969 0.09174 0.0
N988 N 0.53146 0.8761 0.15099 0.0
N989 N 0.5604 0.93615 0.11044 0.0
H990 H 0.61988 0.55923 0.55782 0.0
H991 H 0.65864 0.52101 0.70734 0.0
H992 H 0.56521 0.51199 0.62577 0.0
H993 H 0.70792 0.59099 0.6617 0.0
H994 H 0.62458 0.51485 0.67517 0.0
H995 H 0.65333 0.5688 0.59295 0.0
C996 C 0.61498 0.55095 0.58017 0.0
C997 C 0.58986 0.53482 0.58902 0.0
C998 C 0.64279 0.53165 0.67239 0.0
C999 C 0.62777 0.5454 0.62897 0.0
C1000 C 0.66216 0.53511 0.69062 0.0
C1001 C 0.68596 0.55652 0.68704 0.0
C1002 C 0.64747 0.54948 0.65001 0.0
C1003 C 0.68971 0.57431 0.66515 0.0
C1004 C 0.63399 0.5565 0.60019 0.0
C1005 C 0.58439 0.52463 0.61821 0.0
N1006 N 0.6707 0.57027 0.64714 0.0
N1007 N 0.60323 0.52987 0.63708 0.0
H1008 H 0.03354 0.59584 0.09521 0.0
H1009 H 0.1668 0.67981 0.16852 0.0
H1010 H 0.09926 0.59504 0.07098 0.0
H1011 H 0.10759 0.69417 0.17512 0.0
H1012 H 0.14099 0.64635 0.1359 0.0
H1013 H 0.05909 0.62968 0.12776 0.0
C1014 C 0.05333 0.60276 0.0968 0.0
C1015 C 0.06432 0.59267 0.08034 0.0
C1016 C 0.13364 0.65683 0.14443 0.0
C1017 C 0.09359 0.63126 0.11748 0.0
C1018 C 0.14829 0.67582 0.16319 0.0
C1019 C 0.13928 0.68972 0.1746 0.0
C1020 C 0.10965 0.6515 0.13718 0.0
C1021 C 0.1153 0.68399 0.16663 0.0
C1022 C 0.06791 0.62213 0.11523 0.0
C1023 C 0.09009 0.60246 0.08302 0.0
N1024 N 0.10124 0.66521 0.14852 0.0
N1025 N 0.1038 0.62112 0.10133 0.0
loop_
_geom_bond_atom_site_label_1
_geom_bond_atom_site_label_2
_geom_bond_distance
_geom_bond_site_symmetry_2
_ccdc_geom_bond_type
C0 C1 1.443 . S
C0 N4 1.376 1_556 S
C0 C38 1.389 . S
C1 C0 1.443 . S
C1 C2 1.340 1_556 S
C1 H41 0.951 . S
C2 C1 1.340 1_554 S
C2 C3 1.439 . S
C2 H42 0.950 . S
C3 C2 1.439 . S
C3 N4 1.374 . S
C3 C37 1.395 . S
N4 C0 1.376 1_554 S
N4 C3 1.374 . S
N4 Co5 1.974 1_655 S
Co5 N4 1.974 1_455 S
Co5 N6 2.017 1_455 S
Co5 N11 2.043 1_554 S
Co5 N16 1.973 1_554 S
Co5 N21 2.297 . S
Co5 N27 2.269 1_454 S
N6 Co5 2.017 1_655 S
N6 C7 1.376 . S
N6 C10 1.383 1_655 S
C7 N6 1.376 . S
C7 C8 1.446 . S
C7 C37 1.391 . S
C8 C7 1.446 . S
C8 C9 1.339 1_655 S
C8 H43 0.949 . S
C9 C8 1.339 1_455 S
C9 C10 1.439 . S
C9 H44 0.950 . S
C10 N6 1.383 1_455 S
C10 C9 1.439 . S
C10 C39 1.392 . S
N11 Co5 2.043 1_556 S
N11 C12 1.376 1_556 S
N11 C15 1.374 . S
C12 N11 1.376 1_554 S
C12 C13 1.443 . S
C12 C39 1.389 . S
C13 C12 1.443 . S
C13 C14 1.340 1_554 S
C13 H45 0.951 . S
C14 C13 1.340 1_556 S
C14 C15 1.439 . S
C14 H46 0.950 . S
C15 N11 1.374 . S
C15 C14 1.439 . S
C15 C40 1.395 . S
N16 Co5 1.973 1_556 S
N16 C17 1.376 . S
N16 C20 1.383 1_455 S
C17 N16 1.376 . S
C17 C18 1.446 . S
C17 C40 1.391 . S
C18 C17 1.446 . S
C18 C19 1.339 1_455 S
C18 H47 0.949 . S
C19 C18 1.339 1_655 S
C19 C20 1.439 . S
C19 H48 0.950 . S
C20 N16 1.383 1_655 S
C20 C19 1.439 . S
C20 C38 1.392 . S
N21 Co5 2.297 . S
N21 C24 1.332 . S
N21 C26 1.332 . S
C22 C23 1.386 . S
C22 C25 1.388 . S
C23 C22 1.386 . S
C23 C24 1.382 . S
C23 H49 0.950 . S
C24 N21 1.332 . S
C24 C23 1.382 . S
C24 H35 0.952 1_554 S
C25 C22 1.388 . S
C25 C26 1.382 . S
C25 H50 0.950 . S
C26 N21 1.332 . S
C26 C25 1.382 . S
C26 H36 0.948 . S
N27 Co5 2.269 1_656 S
N27 C31 1.332 . S
N27 C32 1.332 . S
C28 C29 1.388 . S
C28 C32 1.382 . S
C28 H51 0.950 . S
C29 C28 1.388 . S
C29 C30 1.386 . S
C30 C29 1.386 . S
C30 C31 1.382 . S
C30 H52 0.950 . S
C31 N27 1.332 . S
C31 C30 1.382 . S
C31 H33 0.952 1_556 S
C32 N27 1.332 . S
C32 C28 1.382 . S
C32 H34 0.948 . S
H33 C31 0.952 1_554 S
H34 C32 0.948 . S
H35 C24 0.952 1_556 S
H36 C26 0.948 . S
C37 C3 1.395 . S
C37 C7 1.391 . S
C38 C0 1.389 . S
C38 C20 1.392 . S
C39 C10 1.392 . S
C39 C12 1.389 . S
C40 C15 1.395 . S
C40 C17 1.391 . S
H41 C1 0.951 . S
H42 C2 0.950 . S
H43 C8 0.949 . S
H44 C9 0.950 . S
H45 C13 0.951 . S
H46 C14 0.950 . S
H47 C18 0.949 . S
H48 C19 0.950 . S
H49 C23 0.950 . S
H50 C25 0.950 . S
H51 C28 0.950 . S
H52 C30 0.950 . S
C53 C54 1.443 . S
C53 N57 1.376 1_545 S
C53 C91 1.389 . S
C54 C53 1.443 . S
C54 C55 1.340 1_545 S
C54 H94 0.951 . S
C55 C54 1.340 1_565 S
C55 C56 1.439 . S
C55 H95 0.950 . S
C56 C55 1.439 . S
C56 N57 1.374 . S
C56 C90 1.395 . S
N57 C53 1.376 1_565 S
N57 C56 1.374 . S
N57 Co58 1.997 1_565 S
Co58 N57 1.997 1_545 S
Co58 N59 1.972 1_545 S
Co58 N64 2.021 . S
Co58 N69 2.018 . S
Co58 N74 2.240 1_545 S
Co58 N80 2.325 . S
N59 Co58 1.972 1_565 S
N59 C60 1.376 . S
N59 C63 1.383 . S
C60 N59 1.376 . S
C60 C61 1.446 . S
C60 C90 1.391 . S
C61 C60 1.446 . S
C61 C62 1.339 . S
C61 H96 0.949 . S
C62 C61 1.339 . S
C62 C63 1.439 . S
C62 H97 0.950 . S
C63 N59 1.383 . S
C63 C62 1.439 . S
C63 C92 1.392 . S
N64 Co58 2.021 . S
N64 C65 1.376 1_545 S
N64 C68 1.374 . S
C65 N64 1.376 1_565 S
C65 C66 1.443 . S
C65 C92 1.389 . S
C66 C65 1.443 . S
C66 C67 1.340 1_565 S
C66 H98 0.951 . S
C67 C66 1.340 1_545 S
C67 C68 1.439 . S
C67 H99 0.950 . S
C68 N64 1.374 . S
C68 C67 1.439 . S
C68 C93 1.395 . S
N69 Co58 2.018 . S
N69 C70 1.376 . S
N69 C73 1.383 . S
C70 N69 1.376 . S
C70 C71 1.446 . S
C70 C93 1.391 . S
C71 C70 1.446 . S
C71 C72 1.339 . S
C71 H100 0.949 . S
C72 C71 1.339 . S
C72 C73 1.439 . S
C72 H101 0.950 . S
C73 N69 1.383 . S
C73 C72 1.439 . S
C73 C91 1.392 . S
N74 Co58 2.240 1_565 S
N74 C77 1.332 . S
N74 C79 1.332 . S
C75 C76 1.386 . S
C75 C78 1.388 . S
C76 C75 1.386 . S
C76 C77 1.382 . S
C76 H102 0.950 . S
C77 N74 1.332 . S
C77 C76 1.382 . S
C77 H88 0.952 1_565 S
C78 C75 1.388 . S
C78 C79 1.382 . S
C78 H103 0.950 . S
C79 N74 1.332 . S
C79 C78 1.382 . S
C79 H89 0.948 . S
N80 Co58 2.325 . S
N80 C84 1.332 . S
N80 C85 1.332 . S
C81 C82 1.388 . S
C81 C85 1.382 . S
C81 H104 0.950 . S
C82 C81 1.388 . S
C82 C83 1.386 . S
C83 C82 1.386 . S
C83 C84 1.382 . S
C83 H105 0.950 . S
C84 N80 1.332 . S
C84 C83 1.382 . S
C84 H86 0.952 1_545 S
C85 N80 1.332 . S
C85 C81 1.382 . S
C85 H87 0.948 . S
H86 C84 0.952 1_565 S
H87 C85 0.948 . S
H88 C77 0.952 1_545 S
H89 C79 0.948 . S
C90 C56 1.395 . S
C90 C60 1.391 . S
C91 C53 1.389 . S
C91 C73 1.392 . S
C92 C63 1.392 . S
C92 C65 1.389 . S
C93 C68 1.395 . S
C93 C70 1.391 . S
H94 C54 0.951 . S
H95 C55 0.950 . S
H96 C61 0.949 . S
H97 C62 0.950 . S
H98 C66 0.951 . S
H99 C67 0.950 . S
H100 C71 0.949 . S
H101 C72 0.950 . S
H102 C76 0.950 . S
H103 C78 0.950 . S
H104 C81 0.950 . S
H105 C83 0.950 . S
C106 C107 1.443 . S
C106 N110 1.376 . S
C106 C144 1.389 . S
C107 C106 1.443 . S
C107 C108 1.340 . S
C107 H147 0.951 . S
C108 C107 1.340 . S
C108 C109 1.439 . S
C108 H148 0.950 . S
C109 C108 1.439 . S
C109 N110 1.374 . S
C109 C143 1.395 . S
N110 C106 1.376 . S
N110 C109 1.374 . S
N110 Co111 1.992 1_556 S
Co111 N110 1.992 1_554 S
Co111 N112 1.991 1_554 S
Co111 N117 2.025 . S
Co111 N122 1.998 . S
Co111 N127 2.292 . S
Co111 N133 2.273 1_554 S
N112 Co111 1.991 1_556 S
N112 C113 1.376 . S
N112 C116 1.383 1_556 S
C113 N112 1.376 . S
C113 C114 1.446 . S
C113 C143 1.391 . S
C114 C113 1.446 . S
C114 C115 1.339 . S
C114 H149 0.949 . S
C115 C114 1.339 . S
C115 C116 1.439 1_556 S
C115 H150 0.950 1_556 S
C116 N112 1.383 1_554 S
C116 C115 1.439 1_554 S
C116 C145 1.392 . S
N117 Co111 2.025 . S
N117 C118 1.376 . S
N117 C121 1.374 . S
C118 N117 1.376 . S
C118 C119 1.443 . S
C118 C145 1.389 . S
C119 C118 1.443 . S
C119 C120 1.340 . S
C119 H151 0.951 . S
C120 C119 1.340 . S
C120 C121 1.439 . S
C120 H152 0.950 . S
C121 N117 1.374 . S
C121 C120 1.439 . S
C121 C146 1.395 . S
N122 Co111 1.998 . S
N122 C123 1.376 . S
N122 C126 1.383 1_554 S
C123 N122 1.376 . S
C123 C124 1.446 . S
C123 C146 1.391 . S
C124 C123 1.446 . S
C124 C125 1.339 . S
C124 H153 0.949 . S
C125 C124 1.339 . S
C125 C126 1.439 1_554 S
C125 H154 0.950 1_554 S
C126 N122 1.383 1_556 S
C126 C125 1.439 1_556 S
C126 C144 1.392 . S
N127 Co111 2.292 . S
N127 C130 1.332 . S
N127 C132 1.332 . S
C128 C129 1.386 . S
C128 C131 1.388 . S
C129 C128 1.386 . S
C129 C130 1.382 . S
C129 H155 0.950 . S
C130 N127 1.332 . S
C130 C129 1.382 . S
C130 H141 0.952 . S
C131 C128 1.388 . S
C131 C132 1.382 . S
C131 H156 0.950 . S
C132 N127 1.332 . S
C132 C131 1.382 . S
C132 H142 0.948 . S
N133 Co111 2.273 1_556 S
N133 C137 1.332 . S
N133 C138 1.332 . S
C134 C135 1.388 . S
C134 C138 1.382 . S
C134 H157 0.950 . S
C135 C134 1.388 . S
C135 C136 1.386 . S
C136 C135 1.386 . S
C136 C137 1.382 . S
C136 H158 0.950 . S
C137 N133 1.332 . S
C137 C136 1.382 . S
C137 H139 0.952 . S
C138 N133 1.332 . S
C138 C134 1.382 . S
C138 H140 0.948 . S
H139 C137 0.952 . S
H140 C138 0.948 . S
H141 C130 0.952 . S
H142 C132 0.948 . S
C143 C109 1.395 . S
C143 C113 1.391 . S
C144 C106 1.389 . S
C144 C126 1.392 . S
C145 C116 1.392 . S
C145 C118 1.389 . S
C146 C121 1.395 . S
C146 C123 1.391 . S
H147 C107 0.951 . S
H148 C108 0.950 . S
H149 C114 0.949 . S
H150 C115 0.950 1_554 S
H151 C119 0.951 . S
H152 C120 0.950 . S
H153 C124 0.949 . S
H154 C125 0.950 1_556 S
H155 C129 0.950 . S
H156 C131 0.950 . S
H157 C134 0.950 . S
H158 C136 0.950 . S
C159 C160 1.443 . S
C159 N163 1.376 . S
C159 C197 1.389 . S
C160 C159 1.443 . S
C160 C161 1.340 . S
C160 H200 0.951 . S
C161 C160 1.340 . S
C161 C162 1.439 . S
C161 H201 0.950 . S
C162 C161 1.439 . S
C162 N163 1.374 . S
C162 C196 1.395 . S
N163 C159 1.376 . S
N163 C162 1.374 . S
N163 Co164 1.985 1_655 S
Co164 N163 1.985 1_455 S
Co164 N165 1.980 1_455 S
Co164 N170 2.031 . S
Co164 N175 2.010 . S
Co164 N180 2.311 . S
Co164 N186 2.254 1_455 S
N165 Co164 1.980 1_655 S
N165 C166 1.376 . S
N165 C169 1.383 1_655 S
C166 N165 1.376 . S
C166 C167 1.446 . S
C166 C196 1.391 . S
C167 C166 1.446 . S
C167 C168 1.339 1_655 S
C167 H202 0.949 . S
C168 C167 1.339 1_455 S
C168 C169 1.439 . S
C168 H203 0.950 . S
C169 N165 1.383 1_455 S
C169 C168 1.439 . S
C169 C198 1.392 . S
N170 Co164 2.031 . S
N170 C171 1.376 . S
N170 C174 1.374 . S
C171 N170 1.376 . S
C171 C172 1.443 . S
C171 C198 1.389 . S
C172 C171 1.443 . S
C172 C173 1.340 . S
C172 H204 0.951 . S
C173 C172 1.340 . S
C173 C174 1.439 . S
C173 H205 0.950 . S
C174 N170 1.374 . S
C174 C173 1.439 . S
C174 C199 1.395 . S
N175 Co164 2.010 . S
N175 C176 1.376 . S
N175 C179 1.383 1_455 S
C176 N175 1.376 . S
C176 C177 1.446 . S
C176 C199 1.391 . S
C177 C176 1.446 . S
C177 C178 1.339 1_455 S
C177 H206 0.949 . S
C178 C177 1.339 1_655 S
C178 C179 1.439 . S
C178 H207 0.950 . S
C179 N175 1.383 1_655 S
C179 C178 1.439 . S
C179 C197 1.392 . S
N180 Co164 2.311 . S
N180 C183 1.332 . S
N180 C185 1.332 . S
C181 C182 1.386 . S
C181 C184 1.388 . S
C182 C181 1.386 . S
C182 C183 1.382 . S
C182 H208 0.950 . S
C183 N180 1.332 . S
C183 C182 1.382 . S
C183 H194 0.952 . S
C184 C181 1.388 . S
C184 C185 1.382 . S
C184 H209 0.950 . S
C185 N180 1.332 . S
C185 C184 1.382 . S
C185 H195 0.948 . S
N186 Co164 2.254 1_655 S
N186 C190 1.332 . S
N186 C191 1.332 . S
C187 C188 1.388 . S
C187 C191 1.382 . S
C187 H210 0.950 . S
C188 C187 1.388 . S
C188 C189 1.386 . S
C189 C188 1.386 . S
C189 C190 1.382 . S
C189 H211 0.950 . S
C190 N186 1.332 . S
C190 C189 1.382 . S
C190 H192 0.952 . S
C191 N186 1.332 . S
C191 C187 1.382 . S
C191 H193 0.948 . S
H192 C190 0.952 . S
H193 C191 0.948 . S
H194 C183 0.952 . S
H195 C185 0.948 . S
C196 C162 1.395 . S
C196 C166 1.391 . S
C197 C159 1.389 . S
C197 C179 1.392 . S
C198 C169 1.392 . S
C198 C171 1.389 . S
C199 C174 1.395 . S
C199 C176 1.391 . S
H200 C160 0.951 . S
H201 C161 0.950 . S
H202 C167 0.949 . S
H203 C168 0.950 . S
H204 C172 0.951 . S
H205 C173 0.950 . S
H206 C177 0.949 . S
H207 C178 0.950 . S
H208 C182 0.950 . S
H209 C184 0.950 . S
H210 C187 0.950 . S
H211 C189 0.950 . S
C212 C213 1.443 . S
C212 N216 1.376 1_565 S
C212 C250 1.389 . S
C213 C212 1.443 . S
C213 C214 1.340 1_565 S
C213 H253 0.951 . S
C214 C213 1.340 1_545 S
C214 C215 1.439 . S
C214 H254 0.950 . S
C215 C214 1.439 . S
C215 N216 1.374 . S
C215 C249 1.395 . S
N216 C212 1.376 1_545 S
N216 C215 1.374 . S
N216 Co217 2.041 . S
Co217 N216 2.041 . S
Co217 N218 2.022 . S
Co217 N223 1.976 1_544 S
Co217 N228 1.969 1_544 S
Co217 N233 2.315 1_554 S
Co217 N239 2.251 1_545 S
N218 Co217 2.022 . S
N218 C219 1.376 . S
N218 C222 1.383 1_554 S
C219 N218 1.376 . S
C219 C220 1.446 . S
C219 C249 1.391 . S
C220 C219 1.446 . S
C220 C221 1.339 1_554 S
C220 H255 0.949 . S
C221 C220 1.339 1_556 S
C221 C222 1.439 . S
C221 H256 0.950 . S
C222 N218 1.383 1_556 S
C222 C221 1.439 . S
C222 C251 1.392 . S
N223 Co217 1.976 1_566 S
N223 C224 1.376 1_565 S
N223 C227 1.374 . S
C224 N223 1.376 1_545 S
C224 C225 1.443 . S
C224 C251 1.389 . S
C225 C224 1.443 . S
C225 C226 1.340 1_545 S
C225 H257 0.951 . S
C226 C225 1.340 1_565 S
C226 C227 1.439 . S
C226 H258 0.950 . S
C227 N223 1.374 . S
C227 C226 1.439 . S
C227 C252 1.395 . S
N228 Co217 1.969 1_566 S
N228 C229 1.376 . S
N228 C232 1.383 1_556 S
C229 N228 1.376 . S
C229 C230 1.446 . S
C229 C252 1.391 . S
C230 C229 1.446 . S
C230 C231 1.339 1_556 S
C230 H259 0.949 . S
C231 C230 1.339 1_554 S
C231 C232 1.439 . S
C231 H260 0.950 . S
C232 N228 1.383 1_554 S
C232 C231 1.439 . S
C232 C250 1.392 . S
N233 Co217 2.315 1_556 S
N233 C236 1.332 . S
N233 C238 1.332 . S
C234 C235 1.386 . S
C234 C237 1.388 . S
C235 C234 1.386 . S
C235 C236 1.382 . S
C235 H261 0.950 . S
C236 N233 1.332 . S
C236 C235 1.382 . S
C236 H247 0.952 1_545 S
C237 C234 1.388 . S
C237 C238 1.382 . S
C237 H262 0.950 . S
C238 N233 1.332 . S
C238 C237 1.382 . S
C238 H248 0.948 . S
N239 Co217 2.251 1_565 S
N239 C243 1.332 . S
N239 C244 1.332 . S
C240 C241 1.388 . S
C240 C244 1.382 . S
C240 H263 0.950 . S
C241 C240 1.388 . S
C241 C242 1.386 . S
C242 C241 1.386 . S
C242 C243 1.382 . S
C242 H264 0.950 . S
C243 N239 1.332 . S
C243 C242 1.382 . S
C243 H245 0.952 1_565 S
C244 N239 1.332 . S
C244 C240 1.382 . S
C244 H246 0.948 . S
H245 C243 0.952 1_545 S
H246 C244 0.948 . S
H247 C236 0.952 1_565 S
H248 C238 0.948 . S
C249 C215 1.395 . S
C249 C219 1.391 . S
C250 C212 1.389 . S
C250 C232 1.392 . S
C251 C222 1.392 . S
C251 C224 1.389 . S
C252 C227 1.395 . S
C252 C229 1.391 . S
H253 C213 0.951 . S
H254 C214 0.950 . S
H255 C220 0.949 . S
H256 C221 0.950 . S
H257 C225 0.951 . S
H258 C226 0.950 . S
H259 C230 0.949 . S
H260 C231 0.950 . S
H261 C235 0.950 . S
H262 C237 0.950 . S
H263 C240 0.950 . S
H264 C242 0.950 . S
C265 C266 1.443 . S
C265 N269 1.376 . S
C265 C303 1.389 . S
C266 C265 1.443 . S
C266 C267 1.340 . S
C266 H306 0.951 . S
C267 C266 1.340 . S
C267 C268 1.439 . S
C267 H307 0.950 . S
C268 C267 1.439 . S
C268 N269 1.374 . S
C268 C302 1.395 . S
N269 C265 1.376 . S
N269 C268 1.374 . S
N269 Co270 2.008 . S
Co270 N269 2.008 . S
Co270 N271 1.995 . S
Co270 N276 2.008 . S
Co270 N281 1.995 . S
Co270 N286 2.282 . S
Co270 N292 2.282 . S
N271 Co270 1.995 . S
N271 C272 1.376 . S
N271 C275 1.383 . S
C272 N271 1.376 . S
C272 C273 1.446 . S
C272 C302 1.391 . S
C273 C272 1.446 . S
C273 C274 1.339 . S
C273 H308 0.949 . S
C274 C273 1.339 . S
C274 C275 1.439 . S
C274 H309 0.950 . S
C275 N271 1.383 . S
C275 C274 1.439 . S
C275 C304 1.392 . S
N276 Co270 2.008 . S
N276 C277 1.376 . S
N276 C280 1.374 . S
C277 N276 1.376 . S
C277 C278 1.443 . S
C277 C304 1.389 . S
C278 C277 1.443 . S
C278 C279 1.340 . S
C278 H310 0.951 . S
C279 C278 1.340 . S
C279 C280 1.439 . S
C279 H311 0.950 . S
C280 N276 1.374 . S
C280 C279 1.439 . S
C280 C305 1.395 . S
N281 Co270 1.995 . S
N281 C282 1.376 . S
N281 C285 1.383 . S
C282 N281 1.376 . S
C282 C283 1.446 . S
C282 C305 1.391 . S
C283 C282 1.446 . S
C283 C284 1.339 . S
C283 H312 0.949 . S
C284 C283 1.339 . S
C284 C285 1.439 . S
C284 H313 0.950 . S
C285 N281 1.383 . S
C285 C284 1.439 . S
C285 C303 1.392 . S
N286 Co270 2.282 . S
N286 C289 1.332 . S
N286 C291 1.332 . S
C287 C288 1.386 . S
C287 C290 1.388 . S
C288 C287 1.386 . S
C288 C289 1.382 . S
C288 H314 0.950 . S
C289 N286 1.332 . S
C289 C288 1.382 . S
C289 H300 0.952 . S
C290 C287 1.388 . S
C290 C291 1.382 . S
C290 H315 0.950 . S
C291 N286 1.332 . S
C291 C290 1.382 . S
C291 H301 0.948 . S
N292 Co270 2.282 . S
N292 C296 1.332 . S
N292 C297 1.332 . S
C293 C294 1.388 . S
C293 C297 1.382 . S
C293 H316 0.950 . S
C294 C293 1.388 . S
C294 C295 1.386 . S
C295 C294 1.386 . S
C295 C296 1.382 . S
C295 H317 0.950 . S
C296 N292 1.332 . S
C296 C295 1.382 . S
C296 H298 0.952 . S
C297 N292 1.332 . S
C297 C293 1.382 . S
C297 H299 0.948 . S
H298 C296 0.952 . S
H299 C297 0.948 . S
H300 C289 0.952 . S
H301 C291 0.948 . S
C302 C268 1.395 . S
C302 C272 1.391 . S
C303 C265 1.389 . S
C303 C285 1.392 . S
C304 C275 1.392 . S
C304 C277 1.389 . S
C305 C280 1.395 . S
C305 C282 1.391 . S
H306 C266 0.951 . S
H307 C267 0.950 . S
H308 C273 0.949 . S
H309 C274 0.950 . S
H310 C278 0.951 . S
H311 C279 0.950 . S
H312 C283 0.949 . S
H313 C284 0.950 . S
H314 C288 0.950 . S
H315 C290 0.950 . S
H316 C293 0.950 . S
H317 C295 0.950 . S
C318 C319 1.384 . S
C318 C320 1.384 . S
C318 H346 0.931 . S
C319 C318 1.384 . S
C319 C322 1.382 . S
C320 C318 1.384 . S
C320 C321 1.381 . S
C320 H347 0.930 . S
C321 C320 1.381 . S
C321 C323 1.381 . S
C321 C324 1.487 . S
C322 C319 1.382 . S
C322 C323 1.387 . S
C322 H348 0.930 . S
C323 C321 1.381 . S
C323 C322 1.387 . S
C323 H349 0.931 . S
C324 C321 1.487 . S
C324 C331 1.399 . S
C324 N362 1.343 . S
C325 C326 1.384 . S
C325 C327 1.384 . S
C325 H350 0.931 . S
C326 C325 1.384 . S
C326 C329 1.382 . S
C327 C325 1.384 . S
C327 C328 1.381 . S
C327 H351 0.930 . S
C328 C327 1.381 . S
C328 C330 1.381 . S
C328 C331 1.487 . S
C329 C326 1.382 . S
C329 C330 1.387 . S
C329 H352 0.930 . S
C330 C328 1.381 . S
C330 C329 1.387 . S
C330 H353 0.931 . S
C331 C324 1.399 . S
C331 C328 1.487 . S
C331 N363 1.343 . S
C332 C333 1.384 . S
C332 C334 1.384 . S
C332 H354 0.931 . S
C333 C332 1.384 . S
C333 C336 1.382 . S
C334 C332 1.384 . S
C334 C335 1.381 . S
C334 H355 0.930 . S
C335 C334 1.381 . S
C335 C337 1.381 . S
C335 C338 1.487 . S
C336 C333 1.382 . S
C336 C337 1.387 . S
C336 H356 0.930 . S
C337 C335 1.381 . S
C337 C336 1.387 . S
C337 H357 0.931 . S
C338 C335 1.487 . S
C338 C345 1.399 . S
C338 N363 1.343 . S
C339 C340 1.384 . S
C339 C341 1.384 . S
C339 H358 0.931 . S
C340 C339 1.384 . S
C340 C343 1.382 . S
C341 C339 1.384 . S
C341 C342 1.381 . S
C341 H359 0.930 . S
C342 C341 1.381 . S
C342 C344 1.381 . S
C342 C345 1.487 . S
C343 C340 1.382 . S
C343 C344 1.387 . S
C343 H360 0.930 . S
C344 C342 1.381 . S
C344 C343 1.387 . S
C344 H361 0.931 . S
C345 C338 1.399 . S
C345 C342 1.487 . S
C345 N362 1.343 . S
H346 C318 0.931 . S
H347 C320 0.930 . S
H348 C322 0.930 . S
H349 C323 0.931 . S
H350 C325 0.931 . S
H351 C327 0.930 . S
H352 C329 0.930 . S
H353 C330 0.931 . S
H354 C332 0.931 . S
H355 C334 0.930 . S
H356 C336 0.930 . S
H357 C337 0.931 . S
H358 C339 0.931 . S
H359 C341 0.930 . S
H360 C343 0.930 . S
H361 C344 0.931 . S
N362 C324 1.343 . S
N362 C345 1.343 . S
N363 C331 1.343 . S
N363 C338 1.343 . S
C364 C365 1.384 . S
C364 C366 1.384 . S
C364 H392 0.931 . S
C365 C364 1.384 . S
C365 C368 1.382 . S
C366 C364 1.384 . S
C366 C367 1.381 . S
C366 H393 0.930 . S
C367 C366 1.381 . S
C367 C369 1.381 . S
C367 C370 1.487 . S
C368 C365 1.382 . S
C368 C369 1.387 . S
C368 H394 0.930 . S
C369 C367 1.381 . S
C369 C368 1.387 . S
C369 H395 0.931 . S
C370 C367 1.487 . S
C370 C377 1.399 . S
C370 N408 1.343 . S
C371 C372 1.384 . S
C371 C373 1.384 . S
C371 H396 0.931 . S
C372 C371 1.384 . S
C372 C375 1.382 . S
C373 C371 1.384 . S
C373 C374 1.381 . S
C373 H397 0.930 . S
C374 C373 1.381 . S
C374 C376 1.381 . S
C374 C377 1.487 . S
C375 C372 1.382 . S
C375 C376 1.387 . S
C375 H398 0.930 . S
C376 C374 1.381 . S
C376 C375 1.387 . S
C376 H399 0.931 . S
C377 C370 1.399 . S
C377 C374 1.487 . S
C377 N409 1.343 . S
C378 C379 1.384 . S
C378 C380 1.384 . S
C378 H400 0.931 . S
C379 C378 1.384 . S
C379 C382 1.382 . S
C380 C378 1.384 . S
C380 C381 1.381 . S
C380 H401 0.930 . S
C381 C380 1.381 . S
C381 C383 1.381 . S
C381 C384 1.487 . S
C382 C379 1.382 . S
C382 C383 1.387 . S
C382 H402 0.930 . S
C383 C381 1.381 . S
C383 C382 1.387 . S
C383 H403 0.931 . S
C384 C381 1.487 . S
C384 C391 1.399 . S
C384 N409 1.343 . S
C385 C386 1.384 . S
C385 C387 1.384 . S
C385 H404 0.931 . S
C386 C385 1.384 . S
C386 C389 1.382 . S
C387 C385 1.384 . S
C387 C388 1.381 . S
C387 H405 0.930 . S
C388 C387 1.381 . S
C388 C390 1.381 . S
C388 C391 1.487 . S
C389 C386 1.382 . S
C389 C390 1.387 . S
C389 H406 0.930 . S
C390 C388 1.381 . S
C390 C389 1.387 . S
C390 H407 0.931 . S
C391 C384 1.399 . S
C391 C388 1.487 . S
C391 N408 1.343 . S
H392 C364 0.931 . S
H393 C366 0.930 . S
H394 C368 0.930 . S
H395 C369 0.931 . S
H396 C371 0.931 . S
H397 C373 0.930 . S
H398 C375 0.930 . S
H399 C376 0.931 . S
H400 C378 0.931 . S
H401 C380 0.930 . S
H402 C382 0.930 . S
H403 C383 0.931 . S
H404 C385 0.931 . S
H405 C387 0.930 . S
H406 C389 0.930 . S
H407 C390 0.931 . S
N408 C370 1.343 . S
N408 C391 1.343 . S
N409 C377 1.343 . S
N409 C384 1.343 . S
C410 C411 1.384 . S
C410 C412 1.384 . S
C410 H438 0.931 . S
C411 C410 1.384 . S
C411 C414 1.382 . S
C412 C410 1.384 . S
C412 C413 1.381 . S
C412 H439 0.930 . S
C413 C412 1.381 . S
C413 C415 1.381 . S
C413 C416 1.487 . S
C414 C411 1.382 . S
C414 C415 1.387 . S
C414 H440 0.930 . S
C415 C413 1.381 . S
C415 C414 1.387 . S
C415 H441 0.931 . S
C416 C413 1.487 . S
C416 C423 1.399 . S
C416 N454 1.343 . S
C417 C418 1.384 . S
C417 C419 1.384 . S
C417 H442 0.931 . S
C418 C417 1.384 . S
C418 C421 1.382 . S
C419 C417 1.384 . S
C419 C420 1.381 . S
C419 H443 0.930 . S
C420 C419 1.381 . S
C420 C422 1.381 . S
C420 C423 1.487 . S
C421 C418 1.382 . S
C421 C422 1.387 . S
C421 H444 0.930 . S
C422 C420 1.381 . S
C422 C421 1.387 . S
C422 H445 0.931 . S
C423 C416 1.399 . S
C423 C420 1.487 . S
C423 N455 1.343 . S
C424 C425 1.384 . S
C424 C426 1.384 . S
C424 H446 0.931 . S
C425 C424 1.384 . S
C425 C428 1.382 . S
C426 C424 1.384 . S
C426 C427 1.381 . S
C426 H447 0.930 . S
C427 C426 1.381 . S
C427 C429 1.381 . S
C427 C430 1.487 . S
C428 C425 1.382 . S
C428 C429 1.387 . S
C428 H448 0.930 . S
C429 C427 1.381 . S
C429 C428 1.387 . S
C429 H449 0.931 . S
C430 C427 1.487 . S
C430 C437 1.399 . S
C430 N455 1.343 . S
C431 C432 1.384 . S
C431 C433 1.384 . S
C431 H450 0.931 . S
C432 C431 1.384 . S
C432 C435 1.382 . S
C433 C431 1.384 . S
C433 C434 1.381 . S
C433 H451 0.930 . S
C434 C433 1.381 . S
C434 C436 1.381 . S
C434 C437 1.487 . S
C435 C432 1.382 . S
C435 C436 1.387 . S
C435 H452 0.930 . S
C436 C434 1.381 . S
C436 C435 1.387 . S
C436 H453 0.931 . S
C437 C430 1.399 . S
C437 C434 1.487 . S
C437 N454 1.343 . S
H438 C410 0.931 . S
H439 C412 0.930 . S
H440 C414 0.930 . S
H441 C415 0.931 . S
H442 C417 0.931 . S
H443 C419 0.930 . S
H444 C421 0.930 . S
H445 C422 0.931 . S
H446 C424 0.931 . S
H447 C426 0.930 . S
H448 C428 0.930 . S
H449 C429 0.931 . S
H450 C431 0.931 . S
H451 C433 0.930 . S
H452 C435 0.930 . S
H453 C436 0.931 . S
N454 C416 1.343 . S
N454 C437 1.343 . S
N455 C423 1.343 . S
N455 C430 1.343 . S
C456 C457 1.384 . S
C456 C458 1.384 . S
C456 H484 0.931 . S
C457 C456 1.384 . S
C457 C460 1.382 . S
C458 C456 1.384 . S
C458 C459 1.381 . S
C458 H485 0.930 . S
C459 C458 1.381 . S
C459 C461 1.381 . S
C459 C462 1.487 . S
C460 C457 1.382 . S
C460 C461 1.387 . S
C460 H486 0.930 . S
C461 C459 1.381 . S
C461 C460 1.387 . S
C461 H487 0.931 . S
C462 C459 1.487 . S
C462 C469 1.399 . S
C462 N500 1.343 . S
C463 C464 1.384 . S
C463 C465 1.384 . S
C463 H488 0.931 . S
C464 C463 1.384 . S
C464 C467 1.382 . S
C465 C463 1.384 . S
C465 C466 1.381 . S
C465 H489 0.930 . S
C466 C465 1.381 . S
C466 C468 1.381 . S
C466 C469 1.487 . S
C467 C464 1.382 . S
C467 C468 1.387 . S
C467 H490 0.930 . S
C468 C466 1.381 . S
C468 C467 1.387 . S
C468 H491 0.931 . S
C469 C462 1.399 . S
C469 C466 1.487 . S
C469 N501 1.343 . S
C470 C471 1.384 . S
C470 C472 1.384 . S
C470 H492 0.931 . S
C471 C470 1.384 . S
C471 C474 1.382 . S
C472 C470 1.384 . S
C472 C473 1.381 . S
C472 H493 0.930 . S
C473 C472 1.381 . S
C473 C475 1.381 . S
C473 C476 1.487 . S
C474 C471 1.382 . S
C474 C475 1.387 . S
C474 H494 0.930 . S
C475 C473 1.381 . S
C475 C474 1.387 . S
C475 H495 0.931 . S
C476 C473 1.487 . S
C476 C483 1.399 . S
C476 N501 1.343 . S
C477 C478 1.384 . S
C477 C479 1.384 . S
C477 H496 0.931 . S
C478 C477 1.384 . S
C478 C481 1.382 . S
C479 C477 1.384 . S
C479 C480 1.381 . S
C479 H497 0.930 . S
C480 C479 1.381 . S
C480 C482 1.381 . S
C480 C483 1.487 . S
C481 C478 1.382 . S
C481 C482 1.387 . S
C481 H498 0.930 . S
C482 C480 1.381 . S
C482 C481 1.387 . S
C482 H499 0.931 . S
C483 C476 1.399 . S
C483 C480 1.487 . S
C483 N500 1.343 . S
H484 C456 0.931 . S
H485 C458 0.930 . S
H486 C460 0.930 . S
H487 C461 0.931 . S
H488 C463 0.931 . S
H489 C465 0.930 . S
H490 C467 0.930 . S
H491 C468 0.931 . S
H492 C470 0.931 . S
H493 C472 0.930 . S
H494 C474 0.930 . S
H495 C475 0.931 . S
H496 C477 0.931 . S
H497 C479 0.930 . S
H498 C481 0.930 . S
H499 C482 0.931 . S
N500 C462 1.343 . S
N500 C483 1.343 . S
N501 C469 1.343 . S
N501 C476 1.343 . S
C502 C503 1.384 . S
C502 C504 1.384 . S
C502 H530 0.931 . S
C503 C502 1.384 . S
C503 C506 1.382 . S
C504 C502 1.384 . S
C504 C505 1.381 . S
C504 H531 0.930 . S
C505 C504 1.381 . S
C505 C507 1.381 . S
C505 C508 1.487 . S
C506 C503 1.382 . S
C506 C507 1.387 . S
C506 H532 0.930 . S
C507 C505 1.381 . S
C507 C506 1.387 . S
C507 H533 0.931 . S
C508 C505 1.487 . S
C508 C515 1.399 . S
C508 N546 1.343 . S
C509 C510 1.384 . S
C509 C511 1.384 . S
C509 H534 0.931 . S
C510 C509 1.384 . S
C510 C513 1.382 . S
C511 C509 1.384 . S
C511 C512 1.381 . S
C511 H535 0.930 . S
C512 C511 1.381 . S
C512 C514 1.381 . S
C512 C515 1.487 . S
C513 C510 1.382 . S
C513 C514 1.387 . S
C513 H536 0.930 . S
C514 C512 1.381 . S
C514 C513 1.387 . S
C514 H537 0.931 . S
C515 C508 1.399 . S
C515 C512 1.487 . S
C515 N547 1.343 . S
C516 C517 1.384 . S
C516 C518 1.384 . S
C516 H538 0.931 . S
C517 C516 1.384 . S
C517 C520 1.382 . S
C518 C516 1.384 . S
C518 C519 1.381 . S
C518 H539 0.930 . S
C519 C518 1.381 . S
C519 C521 1.381 . S
C519 C522 1.487 . S
C520 C517 1.382 . S
C520 C521 1.387 . S
C520 H540 0.930 . S
C521 C519 1.381 . S
C521 C520 1.387 . S
C521 H541 0.931 . S
C522 C519 1.487 . S
C522 C529 1.399 . S
C522 N547 1.343 . S
C523 C524 1.384 . S
C523 C525 1.384 . S
C523 H542 0.931 . S
C524 C523 1.384 . S
C524 C527 1.382 . S
C525 C523 1.384 . S
C525 C526 1.381 . S
C525 H543 0.930 . S
C526 C525 1.381 . S
C526 C528 1.381 . S
C526 C529 1.487 . S
C527 C524 1.382 . S
C527 C528 1.387 . S
C527 H544 0.930 . S
C528 C526 1.381 . S
C528 C527 1.387 . S
C528 H545 0.931 . S
C529 C522 1.399 . S
C529 C526 1.487 . S
C529 N546 1.343 . S
H530 C502 0.931 . S
H531 C504 0.930 . S
H532 C506 0.930 . S
H533 C507 0.931 . S
H534 C509 0.931 . S
H535 C511 0.930 . S
H536 C513 0.930 . S
H537 C514 0.931 . S
H538 C516 0.931 . S
H539 C518 0.930 . S
H540 C520 0.930 . S
H541 C521 0.931 . S
H542 C523 0.931 . S
H543 C525 0.930 . S
H544 C527 0.930 . S
H545 C528 0.931 . S
N546 C508 1.343 . S
N546 C529 1.343 . S
N547 C515 1.343 . S
N547 C522 1.343 . S
C548 C549 1.384 . S
C548 C550 1.384 . S
C548 H576 0.931 . S
C549 C548 1.384 . S
C549 C552 1.382 . S
C550 C548 1.384 . S
C550 C551 1.381 . S
C550 H577 0.930 . S
C551 C550 1.381 . S
C551 C553 1.381 . S
C551 C554 1.487 . S
C552 C549 1.382 . S
C552 C553 1.387 . S
C552 H578 0.930 . S
C553 C551 1.381 . S
C553 C552 1.387 . S
C553 H579 0.931 . S
C554 C551 1.487 . S
C554 C561 1.399 . S
C554 N592 1.343 . S
C555 C556 1.384 . S
C555 C557 1.384 . S
C555 H580 0.931 . S
C556 C555 1.384 . S
C556 C559 1.382 . S
C557 C555 1.384 . S
C557 C558 1.381 . S
C557 H581 0.930 . S
C558 C557 1.381 . S
C558 C560 1.381 . S
C558 C561 1.487 . S
C559 C556 1.382 . S
C559 C560 1.387 . S
C559 H582 0.930 . S
C560 C558 1.381 . S
C560 C559 1.387 . S
C560 H583 0.931 . S
C561 C554 1.399 . S
C561 C558 1.487 . S
C561 N593 1.343 . S
C562 C563 1.384 . S
C562 C564 1.384 . S
C562 H584 0.931 . S
C563 C562 1.384 . S
C563 C566 1.382 . S
C564 C562 1.384 . S
C564 C565 1.381 . S
C564 H585 0.930 . S
C565 C564 1.381 . S
C565 C567 1.381 . S
C565 C568 1.487 . S
C566 C563 1.382 . S
C566 C567 1.387 . S
C566 H586 0.930 . S
C567 C565 1.381 . S
C567 C566 1.387 . S
C567 H587 0.931 . S
C568 C565 1.487 . S
C568 C575 1.399 . S
C568 N593 1.343 . S
C569 C570 1.384 . S
C569 C571 1.384 . S
C569 H588 0.931 . S
C570 C569 1.384 . S
C570 C573 1.382 . S
C571 C569 1.384 . S
C571 C572 1.381 . S
C571 H589 0.930 . S
C572 C571 1.381 . S
C572 C574 1.381 . S
C572 C575 1.487 . S
C573 C570 1.382 . S
C573 C574 1.387 . S
C573 H590 0.930 . S
C574 C572 1.381 . S
C574 C573 1.387 . S
C574 H591 0.931 . S
C575 C568 1.399 . S
C575 C572 1.487 . S
C575 N592 1.343 . S
H576 C548 0.931 . S
H577 C550 0.930 . S
H578 C552 0.930 . S
H579 C553 0.931 . S
H580 C555 0.931 . S
H581 C557 0.930 . S
H582 C559 0.930 . S
H583 C560 0.931 . S
H584 C562 0.931 . S
H585 C564 0.930 . S
H586 C566 0.930 . S
H587 C567 0.931 . S
H588 C569 0.931 . S
H589 C571 0.930 . S
H590 C573 0.930 . S
H591 C574 0.931 . S
N592 C554 1.343 . S
N592 C575 1.343 . S
N593 C561 1.343 . S
N593 C568 1.343 . S
H594 C600 0.930 . S
H595 C604 0.930 . S
H596 C609 0.929 . S
H597 C607 0.929 . S
H598 C602 0.929 . S
H599 C608 0.929 . S
C600 H594 0.930 . S
C600 C601 1.367 . S
C600 C608 1.378 . S
C601 C600 1.367 . S
C601 C609 1.433 . S
C602 H598 0.929 . S
C602 C604 1.378 . S
C602 C606 1.350 . S
C603 C606 1.463 . S
C603 C608 1.350 . S
C603 N611 1.427 . S
C604 H595 0.930 . S
C604 C602 1.378 . S
C604 C605 1.367 . S
C605 C604 1.367 . S
C605 C607 1.433 . S
C606 C602 1.350 . S
C606 C603 1.463 . S
C606 N610 1.427 . S
C607 H597 0.929 . S
C607 C605 1.433 . S
C607 N610 1.384 . S
C608 H599 0.929 . S
C608 C600 1.378 . S
C608 C603 1.350 . S
C609 H596 0.929 . S
C609 C601 1.433 . S
C609 N611 1.384 . S
N610 C606 1.427 . S
N610 C607 1.384 . S
N611 C603 1.427 . S
N611 C609 1.384 . S
H612 C618 0.930 . S
H613 C622 0.930 . S
H614 C627 0.929 . S
H615 C625 0.929 . S
H616 C620 0.929 . S
H617 C626 0.929 . S
C618 H612 0.930 . S
C618 C619 1.367 . S
C618 C626 1.378 . S
C619 C618 1.367 . S
C619 C627 1.433 . S
C620 H616 0.929 . S
C620 C622 1.378 . S
C620 C624 1.350 . S
C621 C624 1.463 . S
C621 C626 1.350 . S
C621 N629 1.427 . S
C622 H613 0.930 . S
C622 C620 1.378 . S
C622 C623 1.367 . S
C623 C622 1.367 . S
C623 C625 1.433 . S
C624 C620 1.350 . S
C624 C621 1.463 . S
C624 N628 1.427 . S
C625 H615 0.929 . S
C625 C623 1.433 . S
C625 N628 1.384 . S
C626 H617 0.929 . S
C626 C618 1.378 . S
C626 C621 1.350 . S
C627 H614 0.929 . S
C627 C619 1.433 . S
C627 N629 1.384 . S
N628 C624 1.427 . S
N628 C625 1.384 . S
N629 C621 1.427 . S
N629 C627 1.384 . S
H630 C636 0.930 . S
H631 C640 0.930 . S
H632 C645 0.929 . S
H633 C643 0.929 . S
H634 C638 0.929 . S
H635 C644 0.929 . S
C636 H630 0.930 . S
C636 C637 1.367 . S
C636 C644 1.378 . S
C637 C636 1.367 . S
C637 C645 1.433 . S
C638 H634 0.929 . S
C638 C640 1.378 . S
C638 C642 1.350 . S
C639 C642 1.463 . S
C639 C644 1.350 . S
C639 N647 1.427 . S
C640 H631 0.930 . S
C640 C638 1.378 . S
C640 C641 1.367 . S
C641 C640 1.367 . S
C641 C643 1.433 . S
C642 C638 1.350 . S
C642 C639 1.463 . S
C642 N646 1.427 . S
C643 H633 0.929 . S
C643 C641 1.433 . S
C643 N646 1.384 . S
C644 H635 0.929 . S
C644 C636 1.378 . S
C644 C639 1.350 . S
C645 H632 0.929 . S
C645 C637 1.433 . S
C645 N647 1.384 . S
N646 C642 1.427 . S
N646 C643 1.384 . S
N647 C639 1.427 . S
N647 C645 1.384 . S
H648 C654 0.930 . S
H649 C658 0.930 . S
H650 C663 0.929 . S
H651 C661 0.929 . S
H652 C656 0.929 . S
H653 C662 0.929 . S
C654 H648 0.930 . S
C654 C655 1.367 . S
C654 C662 1.378 . S
C655 C654 1.367 . S
C655 C663 1.433 . S
C656 H652 0.929 . S
C656 C658 1.378 . S
C656 C660 1.350 . S
C657 C660 1.463 . S
C657 C662 1.350 . S
C657 N665 1.427 . S
C658 H649 0.930 . S
C658 C656 1.378 . S
C658 C659 1.367 . S
C659 C658 1.367 . S
C659 C661 1.433 . S
C660 C656 1.350 . S
C660 C657 1.463 . S
C660 N664 1.427 . S
C661 H651 0.929 . S
C661 C659 1.433 . S
C661 N664 1.384 . S
C662 H653 0.929 . S
C662 C654 1.378 . S
C662 C657 1.350 . S
C663 H650 0.929 . S
C663 C655 1.433 . S
C663 N665 1.384 . S
N664 C660 1.427 . S
N664 C661 1.384 . S
N665 C657 1.427 . S
N665 C663 1.384 . S
H666 C672 0.930 . S
H667 C676 0.930 . S
H668 C681 0.929 . S
H669 C679 0.929 . S
H670 C674 0.929 . S
H671 C680 0.929 . S
C672 H666 0.930 . S
C672 C673 1.367 . S
C672 C680 1.378 . S
C673 C672 1.367 . S
C673 C681 1.433 . S
C674 H670 0.929 . S
C674 C676 1.378 . S
C674 C678 1.350 . S
C675 C678 1.463 . S
C675 C680 1.350 . S
C675 N683 1.427 . S
C676 H667 0.930 . S
C676 C674 1.378 . S
C676 C677 1.367 . S
C677 C676 1.367 . S
C677 C679 1.433 . S
C678 C674 1.350 . S
C678 C675 1.463 . S
C678 N682 1.427 . S
C679 H669 0.929 . S
C679 C677 1.433 . S
C679 N682 1.384 . S
C680 H671 0.929 . S
C680 C672 1.378 . S
C680 C675 1.350 . S
C681 H668 0.929 . S
C681 C673 1.433 . S
C681 N683 1.384 . S
N682 C678 1.427 . S
N682 C679 1.384 . S
N683 C675 1.427 . S
N683 C681 1.384 . S
H684 C690 0.930 . S
H685 C694 0.930 . S
H686 C699 0.929 . S
H687 C697 0.929 . S
H688 C692 0.929 . S
H689 C698 0.929 . S
C690 H684 0.930 . S
C690 C691 1.367 . S
C690 C698 1.378 . S
C691 C690 1.367 . S
C691 C699 1.433 . S
C692 H688 0.929 . S
C692 C694 1.378 . S
C692 C696 1.350 . S
C693 C696 1.463 . S
C693 C698 1.350 . S
C693 N701 1.427 . S
C694 H685 0.930 . S
C694 C692 1.378 . S
C694 C695 1.367 . S
C695 C694 1.367 . S
C695 C697 1.433 . S
C696 C692 1.350 . S
C696 C693 1.463 . S
C696 N700 1.427 . S
C697 H687 0.929 . S
C697 C695 1.433 . S
C697 N700 1.384 . S
C698 H689 0.929 . S
C698 C690 1.378 . S
C698 C693 1.350 . S
C699 H686 0.929 . S
C699 C691 1.433 . S
C699 N701 1.384 . S
N700 C696 1.427 . S
N700 C697 1.384 . S
N701 C693 1.427 . S
N701 C699 1.384 . S
H702 C708 0.930 . S
H703 C712 0.930 . S
H704 C717 0.929 . S
H705 C715 0.929 . S
H706 C710 0.929 . S
H707 C716 0.929 . S
C708 H702 0.930 . S
C708 C709 1.367 . S
C708 C716 1.378 . S
C709 C708 1.367 . S
C709 C717 1.433 . S
C710 H706 0.929 . S
C710 C712 1.378 . S
C710 C714 1.350 . S
C711 C714 1.463 . S
C711 C716 1.350 . S
C711 N719 1.427 . S
C712 H703 0.930 . S
C712 C710 1.378 . S
C712 C713 1.367 . S
C713 C712 1.367 . S
C713 C715 1.433 . S
C714 C710 1.350 . S
C714 C711 1.463 . S
C714 N718 1.427 . S
C715 H705 0.929 . S
C715 C713 1.433 . S
C715 N718 1.384 . S
C716 H707 0.929 . S
C716 C708 1.378 . S
C716 C711 1.350 . S
C717 H704 0.929 . S
C717 C709 1.433 . S
C717 N719 1.384 . S
N718 C714 1.427 . S
N718 C715 1.384 . S
N719 C711 1.427 . S
N719 C717 1.384 . S
H720 C726 0.930 . S
H721 C730 0.930 . S
H722 C735 0.929 . S
H723 C733 0.929 . S
H724 C728 0.929 . S
H725 C734 0.929 . S
C726 H720 0.930 . S
C726 C727 1.367 . S
C726 C734 1.378 . S
C727 C726 1.367 . S
C727 C735 1.433 . S
C728 H724 0.929 . S
C728 C730 1.378 . S
C728 C732 1.350 . S
C729 C732 1.463 . S
C729 C734 1.350 . S
C729 N737 1.427 . S
C730 H721 0.930 . S
C730 C728 1.378 . S
C730 C731 1.367 . S
C731 C730 1.367 . S
C731 C733 1.433 . S
C732 C728 1.350 . S
C732 C729 1.463 . S
C732 N736 1.427 . S
C733 H723 0.929 . S
C733 C731 1.433 . S
C733 N736 1.384 . S
C734 H725 0.929 . S
C734 C726 1.378 . S
C734 C729 1.350 . S
C735 H722 0.929 . S
C735 C727 1.433 . S
C735 N737 1.384 . S
N736 C732 1.427 . S
N736 C733 1.384 . S
N737 C729 1.427 . S
N737 C735 1.384 . S
H738 C744 0.930 . S
H739 C748 0.930 . S
H740 C753 0.929 . S
H741 C751 0.929 . S
H742 C746 0.929 . S
H743 C752 0.929 . S
C744 H738 0.930 . S
C744 C745 1.367 . S
C744 C752 1.378 . S
C745 C744 1.367 . S
C745 C753 1.433 . S
C746 H742 0.929 . S
C746 C748 1.378 . S
C746 C750 1.350 . S
C747 C750 1.463 . S
C747 C752 1.350 . S
C747 N755 1.427 . S
C748 H739 0.930 . S
C748 C746 1.378 . S
C748 C749 1.367 . S
C749 C748 1.367 . S
C749 C751 1.433 . S
C750 C746 1.350 . S
C750 C747 1.463 . S
C750 N754 1.427 . S
C751 H741 0.929 . S
C751 C749 1.433 . S
C751 N754 1.384 . S
C752 H743 0.929 . S
C752 C744 1.378 . S
C752 C747 1.350 . S
C753 H740 0.929 . S
C753 C745 1.433 . S
C753 N755 1.384 . S
N754 C750 1.427 . S
N754 C751 1.384 . S
N755 C747 1.427 . S
N755 C753 1.384 . S
H756 C762 0.930 . S
H757 C766 0.930 . S
H758 C771 0.929 . S
H759 C769 0.929 . S
H760 C764 0.929 . S
H761 C770 0.929 . S
C762 H756 0.930 . S
C762 C763 1.367 . S
C762 C770 1.378 . S
C763 C762 1.367 . S
C763 C771 1.433 . S
C764 H760 0.929 . S
C764 C766 1.378 . S
C764 C768 1.350 . S
C765 C768 1.463 . S
C765 C770 1.350 . S
C765 N773 1.427 . S
C766 H757 0.930 . S
C766 C764 1.378 . S
C766 C767 1.367 . S
C767 C766 1.367 . S
C767 C769 1.433 . S
C768 C764 1.350 . S
C768 C765 1.463 . S
C768 N772 1.427 . S
C769 H759 0.929 . S
C769 C767 1.433 . S
C769 N772 1.384 . S
C770 H761 0.929 . S
C770 C762 1.378 . S
C770 C765 1.350 . S
C771 H758 0.929 . S
C771 C763 1.433 . S
C771 N773 1.384 . S
N772 C768 1.427 . S
N772 C769 1.384 . S
N773 C765 1.427 . S
N773 C771 1.384 . S
H774 C780 0.930 . S
H775 C784 0.930 . S
H776 C789 0.929 . S
H777 C787 0.929 . S
H778 C782 0.929 . S
H779 C788 0.929 . S
C780 H774 0.930 . S
C780 C781 1.367 . S
C780 C788 1.378 . S
C781 C780 1.367 . S
C781 C789 1.433 . S
C782 H778 0.929 . S
C782 C784 1.378 . S
C782 C786 1.350 . S
C783 C786 1.463 . S
C783 C788 1.350 . S
C783 N791 1.427 . S
C784 H775 0.930 . S
C784 C782 1.378 . S
C784 C785 1.367 . S
C785 C784 1.367 . S
C785 C787 1.433 . S
C786 C782 1.350 . S
C786 C783 1.463 . S
C786 N790 1.427 . S
C787 H777 0.929 . S
C787 C785 1.433 . S
C787 N790 1.384 . S
C788 H779 0.929 . S
C788 C780 1.378 . S
C788 C783 1.350 . S
C789 H776 0.929 . S
C789 C781 1.433 . S
C789 N791 1.384 . S
N790 C786 1.427 . S
N790 C787 1.384 . S
N791 C783 1.427 . S
N791 C789 1.384 . S
H792 C798 0.930 . S
H793 C802 0.930 . S
H794 C807 0.929 . S
H795 C805 0.929 . S
H796 C800 0.929 . S
H797 C806 0.929 . S
C798 H792 0.930 . S
C798 C799 1.367 . S
C798 C806 1.378 . S
C799 C798 1.367 . S
C799 C807 1.433 . S
C800 H796 0.929 . S
C800 C802 1.378 . S
C800 C804 1.350 . S
C801 C804 1.463 . S
C801 C806 1.350 . S
C801 N809 1.427 . S
C802 H793 0.930 . S
C802 C800 1.378 . S
C802 C803 1.367 . S
C803 C802 1.367 . S
C803 C805 1.433 . S
C804 C800 1.350 . S
C804 C801 1.463 . S
C804 N808 1.427 . S
C805 H795 0.929 . S
C805 C803 1.433 . S
C805 N808 1.384 . S
C806 H797 0.929 . S
C806 C798 1.378 . S
C806 C801 1.350 . S
C807 H794 0.929 . S
C807 C799 1.433 . S
C807 N809 1.384 . S
N808 C804 1.427 . S
N808 C805 1.384 . S
N809 C801 1.427 . S
N809 C807 1.384 . S
H810 C816 0.930 . S
H811 C820 0.930 . S
H812 C825 0.929 . S
H813 C823 0.929 . S
H814 C818 0.929 . S
H815 C824 0.929 . S
C816 H810 0.930 . S
C816 C817 1.367 . S
C816 C824 1.378 . S
C817 C816 1.367 . S
C817 C825 1.433 . S
C818 H814 0.929 . S
C818 C820 1.378 . S
C818 C822 1.350 . S
C819 C822 1.463 . S
C819 C824 1.350 . S
C819 N827 1.427 . S
C820 H811 0.930 . S
C820 C818 1.378 . S
C820 C821 1.367 . S
C821 C820 1.367 . S
C821 C823 1.433 . S
C822 C818 1.350 . S
C822 C819 1.463 . S
C822 N826 1.427 . S
C823 H813 0.929 . S
C823 C821 1.433 . S
C823 N826 1.384 . S
C824 H815 0.929 . S
C824 C816 1.378 . S
C824 C819 1.350 . S
C825 H812 0.929 . S
C825 C817 1.433 . S
C825 N827 1.384 . S
N826 C822 1.427 . S
N826 C823 1.384 . S
N827 C819 1.427 . S
N827 C825 1.384 . S
H828 C834 0.930 . S
H829 C838 0.930 . S
H830 C843 0.929 . S
H831 C841 0.929 . S
H832 C836 0.929 . S
H833 C842 0.929 . S
C834 H828 0.930 . S
C834 C835 1.367 . S
C834 C842 1.378 . S
C835 C834 1.367 . S
C835 C843 1.433 . S
C836 H832 0.929 . S
C836 C838 1.378 . S
C836 C840 1.350 . S
C837 C840 1.463 . S
C837 C842 1.350 . S
C837 N845 1.427 . S
C838 H829 0.930 . S
C838 C836 1.378 . S
C838 C839 1.367 . S
C839 C838 1.367 . S
C839 C841 1.433 . S
C840 C836 1.350 . S
C840 C837 1.463 . S
C840 N844 1.427 . S
C841 H831 0.929 . S
C841 C839 1.433 . S
C841 N844 1.384 . S
C842 H833 0.929 . S
C842 C834 1.378 . S
C842 C837 1.350 . S
C843 H830 0.929 . S
C843 C835 1.433 . S
C843 N845 1.384 . S
N844 C840 1.427 . S
N844 C841 1.384 . S
N845 C837 1.427 . S
N845 C843 1.384 . S
H846 C852 0.930 . S
H847 C856 0.930 . S
H848 C861 0.929 . S
H849 C859 0.929 . S
H850 C854 0.929 . S
H851 C860 0.929 . S
C852 H846 0.930 . S
C852 C853 1.367 . S
C852 C860 1.378 . S
C853 C852 1.367 . S
C853 C861 1.433 . S
C854 H850 0.929 . S
C854 C856 1.378 . S
C854 C858 1.350 . S
C855 C858 1.463 . S
C855 C860 1.350 . S
C855 N863 1.427 . S
C856 H847 0.930 . S
C856 C854 1.378 . S
C856 C857 1.367 . S
C857 C856 1.367 . S
C857 C859 1.433 . S
C858 C854 1.350 . S
C858 C855 1.463 . S
C858 N862 1.427 . S
C859 H849 0.929 . S
C859 C857 1.433 . S
C859 N862 1.384 . S
C860 H851 0.929 . S
C860 C852 1.378 . S
C860 C855 1.350 . S
C861 H848 0.929 . S
C861 C853 1.433 . S
C861 N863 1.384 . S
N862 C858 1.427 . S
N862 C859 1.384 . S
N863 C855 1.427 . S
N863 C861 1.384 . S
H864 C870 0.930 . S
H865 C874 0.930 . S
H866 C879 0.929 . S
H867 C877 0.929 . S
H868 C872 0.929 . S
H869 C878 0.929 . S
C870 H864 0.930 . S
C870 C871 1.367 . S
C870 C878 1.378 . S
C871 C870 1.367 . S
C871 C879 1.433 . S
C872 H868 0.929 . S
C872 C874 1.378 . S
C872 C876 1.350 . S
C873 C876 1.463 . S
C873 C878 1.350 . S
C873 N881 1.427 . S
C874 H865 0.930 . S
C874 C872 1.378 . S
C874 C875 1.367 . S
C875 C874 1.367 . S
C875 C877 1.433 . S
C876 C872 1.350 . S
C876 C873 1.463 . S
C876 N880 1.427 . S
C877 H867 0.929 . S
C877 C875 1.433 . S
C877 N880 1.384 . S
C878 H869 0.929 . S
C878 C870 1.378 . S
C878 C873 1.350 . S
C879 H866 0.929 . S
C879 C871 1.433 . S
C879 N881 1.384 . S
N880 C876 1.427 . S
N880 C877 1.384 . S
N881 C873 1.427 . S
N881 C879 1.384 . S
H882 C888 0.930 . S
H883 C892 0.930 . S
H884 C897 0.929 . S
H885 C895 0.929 . S
H886 C890 0.929 . S
H887 C896 0.929 . S
C888 H882 0.930 . S
C888 C889 1.367 . S
C888 C896 1.378 . S
C889 C888 1.367 . S
C889 C897 1.433 . S
C890 H886 0.929 . S
C890 C892 1.378 . S
C890 C894 1.350 . S
C891 C894 1.463 . S
C891 C896 1.350 . S
C891 N899 1.427 . S
C892 H883 0.930 . S
C892 C890 1.378 . S
C892 C893 1.367 . S
C893 C892 1.367 . S
C893 C895 1.433 . S
C894 C890 1.350 . S
C894 C891 1.463 . S
C894 N898 1.427 . S
C895 H885 0.929 . S
C895 C893 1.433 . S
C895 N898 1.384 . S
C896 H887 0.929 . S
C896 C888 1.378 . S
C896 C891 1.350 . S
C897 H884 0.929 . S
C897 C889 1.433 . S
C897 N899 1.384 . S
N898 C894 1.427 . S
N898 C895 1.384 . S
N899 C891 1.427 . S
N899 C897 1.384 . S
H900 C906 0.930 . S
H901 C910 0.930 . S
H902 C915 0.929 . S
H903 C913 0.929 . S
H904 C908 0.929 . S
H905 C914 0.929 . S
C906 H900 0.930 . S
C906 C907 1.367 . S
C906 C914 1.378 . S
C907 C906 1.367 . S
C907 C915 1.433 . S
C908 H904 0.929 . S
C908 C910 1.378 . S
C908 C912 1.350 . S
C909 C912 1.463 . S
C909 C914 1.350 . S
C909 N917 1.427 . S
C910 H901 0.930 . S
C910 C908 1.378 . S
C910 C911 1.367 . S
C911 C910 1.367 . S
C911 C913 1.433 . S
C912 C908 1.350 . S
C912 C909 1.463 . S
C912 N916 1.427 . S
C913 H903 0.929 . S
C913 C911 1.433 . S
C913 N916 1.384 . S
C914 H905 0.929 . S
C914 C906 1.378 . S
C914 C909 1.350 . S
C915 H902 0.929 . S
C915 C907 1.433 . S
C915 N917 1.384 . S
N916 C912 1.427 . S
N916 C913 1.384 . S
N917 C909 1.427 . S
N917 C915 1.384 . S
H918 C924 0.930 . S
H919 C928 0.930 . S
H920 C933 0.929 . S
H921 C931 0.929 . S
H922 C926 0.929 . S
H923 C932 0.929 . S
C924 H918 0.930 . S
C924 C925 1.367 . S
C924 C932 1.378 . S
C925 C924 1.367 . S
C925 C933 1.433 . S
C926 H922 0.929 . S
C926 C928 1.378 . S
C926 C930 1.350 . S
C927 C930 1.463 . S
C927 C932 1.350 . S
C927 N935 1.427 . S
C928 H919 0.930 . S
C928 C926 1.378 . S
C928 C929 1.367 . S
C929 C928 1.367 . S
C929 C931 1.433 . S
C930 C926 1.350 . S
C930 C927 1.463 . S
C930 N934 1.427 . S
C931 H921 0.929 . S
C931 C929 1.433 . S
C931 N934 1.384 . S
C932 H923 0.929 . S
C932 C924 1.378 . S
C932 C927 1.350 . S
C933 H920 0.929 . S
C933 C925 1.433 . S
C933 N935 1.384 . S
N934 C930 1.427 . S
N934 C931 1.384 . S
N935 C927 1.427 . S
N935 C933 1.384 . S
H936 C942 0.930 . S
H937 C946 0.930 . S
H938 C951 0.929 . S
H939 C949 0.929 . S
H940 C944 0.929 . S
H941 C950 0.929 . S
C942 H936 0.930 . S
C942 C943 1.367 . S
C942 C950 1.378 . S
C943 C942 1.367 . S
C943 C951 1.433 . S
C944 H940 0.929 . S
C944 C946 1.378 . S
C944 C948 1.350 . S
C945 C948 1.463 . S
C945 C950 1.350 . S
C945 N953 1.427 . S
C946 H937 0.930 . S
C946 C944 1.378 . S
C946 C947 1.367 . S
C947 C946 1.367 . S
C947 C949 1.433 . S
C948 C944 1.350 . S
C948 C945 1.463 . S
C948 N952 1.427 . S
C949 H939 0.929 . S
C949 C947 1.433 . S
C949 N952 1.384 . S
C950 H941 0.929 . S
C950 C942 1.378 . S
C950 C945 1.350 . S
C951 H938 0.929 . S
C951 C943 1.433 . S
C951 N953 1.384 . S
N952 C948 1.427 . S
N952 C949 1.384 . S
N953 C945 1.427 . S
N953 C951 1.384 . S
H954 C960 0.930 . S
H955 C964 0.930 . S
H956 C969 0.929 . S
H957 C967 0.929 . S
H958 C962 0.929 . S
H959 C968 0.929 . S
C960 H954 0.930 . S
C960 C961 1.367 . S
C960 C968 1.378 . S
C961 C960 1.367 . S
C961 C969 1.433 . S
C962 H958 0.929 . S
C962 C964 1.378 . S
C962 C966 1.350 . S
C963 C966 1.463 . S
C963 C968 1.350 . S
C963 N971 1.427 . S
C964 H955 0.930 . S
C964 C962 1.378 . S
C964 C965 1.367 . S
C965 C964 1.367 . S
C965 C967 1.433 . S
C966 C962 1.350 . S
C966 C963 1.463 . S
C966 N970 1.427 . S
C967 H957 0.929 . S
C967 C965 1.433 . S
C967 N970 1.384 . S
C968 H959 0.929 . S
C968 C960 1.378 . S
C968 C963 1.350 . S
C969 H956 0.929 . S
C969 C961 1.433 . S
C969 N971 1.384 . S
N970 C966 1.427 . S
N970 C967 1.384 . S
N971 C963 1.427 . S
N971 C969 1.384 . S
H972 C978 0.930 . S
H973 C982 0.930 . S
H974 C987 0.929 . S
H975 C985 0.929 . S
H976 C980 0.929 . S
H977 C986 0.929 . S
C978 H972 0.930 . S
C978 C979 1.367 . S
C978 C986 1.378 . S
C979 C978 1.367 . S
C979 C987 1.433 . S
C980 H976 0.929 . S
C980 C982 1.378 . S
C980 C984 1.350 . S
C981 C984 1.463 . S
C981 C986 1.350 . S
C981 N989 1.427 . S
C982 H973 0.930 . S
C982 C980 1.378 . S
C982 C983 1.367 . S
C983 C982 1.367 . S
C983 C985 1.433 . S
C984 C980 1.350 . S
C984 C981 1.463 . S
C984 N988 1.427 . S
C985 H975 0.929 . S
C985 C983 1.433 . S
C985 N988 1.384 . S
C986 H977 0.929 . S
C986 C978 1.378 . S
C986 C981 1.350 . S
C987 H974 0.929 . S
C987 C979 1.433 . S
C987 N989 1.384 . S
N988 C984 1.427 . S
N988 C985 1.384 . S
N989 C981 1.427 . S
N989 C987 1.384 . S
H990 C996 0.930 . S
H991 C1000 0.930 . S
H992 C1005 0.929 . S
H993 C1003 0.929 . S
H994 C998 0.929 . S
H995 C1004 0.929 . S
C996 H990 0.930 . S
C996 C997 1.367 . S
C996 C1004 1.378 . S
C997 C996 1.367 . S
C997 C1005 1.433 . S
C998 H994 0.929 . S
C998 C1000 1.378 . S
C998 C1002 1.350 . S
C999 C1002 1.463 . S
C999 C1004 1.350 . S
C999 N1007 1.427 . S
C1000 H991 0.930 . S
C1000 C998 1.378 . S
C1000 C1001 1.367 . S
C1001 C1000 1.367 . S
C1001 C1003 1.433 . S
C1002 C998 1.350 . S
C1002 C999 1.463 . S
C1002 N1006 1.427 . S
C1003 H993 0.929 . S
C1003 C1001 1.433 . S
C1003 N1006 1.384 . S
C1004 H995 0.929 . S
C1004 C996 1.378 . S
C1004 C999 1.350 . S
C1005 H992 0.929 . S
C1005 C997 1.433 . S
C1005 N1007 1.384 . S
N1006 C1002 1.427 . S
N1006 C1003 1.384 . S
N1007 C999 1.427 . S
N1007 C1005 1.384 . S
H1008 C1014 0.930 . S
H1009 C1018 0.930 . S
H1010 C1023 0.929 . S
H1011 C1021 0.929 . S
H1012 C1016 0.929 . S
H1013 C1022 0.929 . S
C1014 H1008 0.930 . S
C1014 C1015 1.367 . S
C1014 C1022 1.378 . S
C1015 C1014 1.367 . S
C1015 C1023 1.433 . S
C1016 H1012 0.929 . S
C1016 C1018 1.378 . S
C1016 C1020 1.350 . S
C1017 C1020 1.463 . S
C1017 C1022 1.350 . S
C1017 N1025 1.427 . S
C1018 H1009 0.930 . S
C1018 C1016 1.378 . S
C1018 C1019 1.367 . S
C1019 C1018 1.367 . S
C1019 C1021 1.433 . S
C1020 C1016 1.350 . S
C1020 C1017 1.463 . S
C1020 N1024 1.427 . S
C1021 H1011 0.929 . S
C1021 C1019 1.433 . S
C1021 N1024 1.384 . S
C1022 H1013 0.929 . S
C1022 C1014 1.378 . S
C1022 C1017 1.350 . S
C1023 H1010 0.929 . S
C1023 C1015 1.433 . S
C1023 N1025 1.384 . S
N1024 C1020 1.427 . S
N1024 C1021 1.384 . S
N1025 C1017 1.427 . S
N1025 C1023 1.384 . S
C601 C39 1.777 . S
C605 C340 1.758 . S
C619 C91 1.743 . S
C623 C379 1.729 . S
C641 C411 1.580 . S
C637 C128 1.612 . S
C659 C457 1.540 . S
C655 C188 1.564 . S
C677 C524 1.662 . S
C673 C250 1.671 . S
C695 C563 1.726 . S
C691 C304 1.748 . S
C709 C75 1.661 . S
C713 C425 1.640 . S
C727 C144 1.767 . S
C731 C471 1.746 . S
C749 C510 1.682 . S
C745 C198 1.712 . S
C767 C549 1.544 . S
C763 C234 1.578 . S
C781 C294 1.550 . S
C785 C326 1.526 . S
C803 C365 1.561 . S
C799 C29 1.581 . S
C821 C464 1.755 . S
C817 C38 1.776 . S
C835 C92 1.747 . S
C839 C517 1.723 . S
C857 C570 1.586 . S
C853 C135 1.614 . S
C871 C181 1.562 . S
C875 C333 1.536 . S
C889 C251 1.666 . S
C893 C386 1.640 . S
C907 C303 1.751 . S
C911 C418 1.730 . S
C925 C82 1.663 . S
C929 C556 1.644 . S
C947 C319 1.744 . S
C943 C145 1.765 . S
C961 C197 1.711 . S
C965 C372 1.695 . S
C979 C241 1.581 . S
C983 C432 1.553 . S
C997 C287 1.550 . S
C1001 C478 1.523 . S
C1015 C22 1.578 . S
C1019 C503 1.568 . S
