# Generated by pormake.
# Topology pth, (4,4)-cn, num edge types: 1
# Building blocks:
#     Node 0, Type 0, BuildingBlock: TATPOV_clean_sbu_0, # of connection points: 4
#     Node 1, Type 0, BuildingBlock: TATPOV_clean_sbu_0, # of connection points: 4
#     Node 2, Type 0, BuildingBlock: TATPOV_clean_sbu_0, # of connection points: 4
#     Node 3, Type 1, BuildingBlock: MUDLON_clean_linker_0, # of connection points: 4
#     Node 4, Type 1, BuildingBlock: MUDLON_clean_linker_0, # of connection points: 4
#     Node 5, Type 1, BuildingBlock: MUDLON_clean_linker_0, # of connection points: 4
#     Edge 6, Type (0, 1), BuildingBlock: FUNLAD_clean_linker_0, # of connection points: 2
#     Edge 7, Type (0, 1), BuildingBlock: FUNLAD_clean_linker_0, # of connection points: 2
#     Edge 8, Type (0, 1), BuildingBlock: FUNLAD_clean_linker_0, # of connection points: 2
#     Edge 9, Type (0, 1), BuildingBlock: FUNLAD_clean_linker_0, # of connection points: 2
#     Edge 10, Type (0, 1), BuildingBlock: FUNLAD_clean_linker_0, # of connection points: 2
#     Edge 11, Type (0, 1), BuildingBlock: FUNLAD_clean_linker_0, # of connection points: 2
#     Edge 12, Type (0, 1), BuildingBlock: FUNLAD_clean_linker_0, # of connection points: 2
#     Edge 13, Type (0, 1), BuildingBlock: FUNLAD_clean_linker_0, # of connection points: 2
#     Edge 14, Type (0, 1), BuildingBlock: FUNLAD_clean_linker_0, # of connection points: 2
#     Edge 15, Type (0, 1), BuildingBlock: FUNLAD_clean_linker_0, # of connection points: 2
#     Edge 16, Type (0, 1), BuildingBlock: FUNLAD_clean_linker_0, # of connection points: 2
#     Edge 17, Type (0, 1), BuildingBlock: FUNLAD_clean_linker_0, # of connection points: 2
# Relax obj value: 0.053
# Max RMSD: 0.165
# Mean RMSD: 0.112
data_MOF--net-pth--node1-TATPOV_clean_sbu_0--node2-MUDLON_clean_linker_0--edge1-FUNLAD_clean_linker_0
_symmetry_space_group_name_H-M    P1
_symmetry_Int_Tables_number       1
_symmetry_cell_setting            triclinic
loop_
_symmetry_equiv_pos_as_xyz
'x, y, z'
_cell_length_a     37.669445
_cell_length_b     37.482366
_cell_length_c     75.229154
_cell_angle_alpha  92.934325
_cell_angle_beta   92.090301
_cell_angle_gamma 120.58714
loop_
_atom_site_label
_atom_site_type_symbol
_atom_site_fract_x
_atom_site_fract_y
_atom_site_fract_z
_atom_type_partial_charge
Zn0 Zn 0.11211 0.0105 0.02104 0.0
Zn1 Zn 0.07108 0.04649 0.03452 0.0
O2 O 0.07592 0.01413 0.05483 0.0
O3 O 0.11009 0.98531 0.04442 0.0
O4 O 0.04568 0.07744 0.04589 0.0
O5 O 0.16018 0.0666 0.01617 0.0
O6 O 0.12486 0.09449 0.02617 0.0
C7 C 0.09153 0.99127 0.05689 0.0
C8 C 0.03149 0.98283 0.00255 0.0
O9 O 0.0295 0.00771 0.01412 0.0
O10 O 0.06324 0.97928 0.00264 0.0
C11 C 0.01954 0.06254 0.05763 0.0
O12 O 0.00648 0.02449 0.06194 0.0
C13 C 0.15702 0.09832 0.01938 0.0
Zn14 Zn 0.13783 0.11034 0.33886 0.0
Zn15 Zn 0.07141 0.09001 0.3572 0.0
O16 O 0.11636 0.09912 0.37647 0.0
O17 O 0.17228 0.12037 0.36173 0.0
O18 O 0.02374 0.08183 0.37134 0.0
O19 O 0.13585 0.15748 0.3284 0.0
O20 O 0.0812 0.14035 0.34344 0.0
C21 C 0.15479 0.11166 0.37625 0.0
C22 C 0.06812 0.02607 0.32973 0.0
O23 O 0.05 0.03561 0.34141 0.0
O24 O 0.10482 0.05234 0.32641 0.0
C25 C 0.00279 0.05182 0.38081 0.0
O26 O 0.01143 0.0221 0.38167 0.0
C27 C 0.10709 0.16356 0.33271 0.0
Zn28 Zn 0.06556 0.94233 0.71991 0.0
Zn29 Zn 0.03565 0.98112 0.70058 0.0
O30 O 0.07223 0.97165 0.68341 0.0
O31 O 0.09606 0.93912 0.69902 0.0
O32 O 0.0092 0.00552 0.68544 0.0
O33 O 0.00811 0.89516 0.72287 0.0
O34 O 0.98416 0.92888 0.70833 0.0
C35 C 0.09397 0.95453 0.6847 0.0
C36 C 0.08894 0.0251 0.73504 0.0
O37 O 0.06887 0.02566 0.72115 0.0
O38 O 0.09153 0.99329 0.73758 0.0
C39 C 0.98489 0.98222 0.67225 0.0
O40 O 0.97987 0.94508 0.66899 0.0
C41 C 0.97782 0.89773 0.71675 0.0
H42 H 0.86733 0.65302 0.20502 0.0
N43 N 0.9158 0.62268 0.1978 0.0
H44 H 0.87123 0.6942 0.23192 0.0
H45 H 0.95421 0.62567 0.23074 0.0
H46 H 0.95644 0.66467 0.25773 0.0
H47 H 0.98827 0.6968 0.20594 0.0
H48 H 0.0222 0.75348 0.18668 0.0
H49 H 0.89207 0.62484 0.16425 0.0
H50 H 0.92618 0.68175 0.14474 0.0
H51 H 0.86794 0.54102 0.18969 0.0
H52 H 0.99463 0.63699 0.20363 0.0
H53 H 0.88956 0.48951 0.18606 0.0
H54 H 0.0161 0.58623 0.20058 0.0
H55 H 0.96353 0.34826 0.20184 0.0
H56 H 0.9708 0.32013 0.22925 0.0
H57 H 0.081 0.43799 0.24604 0.0
H58 H 0.07476 0.46482 0.21787 0.0
H59 H 0.07807 0.41611 0.17639 0.0
H60 H 0.07018 0.36422 0.15299 0.0
H61 H 0.93889 0.31712 0.14716 0.0
H62 H 0.94702 0.36904 0.17073 0.0
H63 H 0.94285 0.4057 0.20094 0.0
H64 H 0.91619 0.45313 0.20229 0.0
H65 H 0.02463 0.54488 0.17813 0.0
N66 N 0.01901 0.42414 0.19057 0.0
H67 H 0.0517 0.49789 0.17763 0.0
C68 C 0.91118 0.63701 0.21538 0.0
C69 C 0.88614 0.65466 0.21663 0.0
C70 C 0.8883 0.67812 0.23211 0.0
C71 C 0.91504 0.68377 0.24692 0.0
C72 C 0.93665 0.66227 0.24637 0.0
C73 C 0.93515 0.63952 0.23076 0.0
C74 C 0.93747 0.65632 0.18648 0.0
C75 C 0.97463 0.69296 0.19256 0.0
C76 C 0.9941 0.72541 0.18151 0.0
C77 C 0.97686 0.72211 0.1642 0.0
C78 C 0.93996 0.68538 0.15809 0.0
C79 C 0.92057 0.6528 0.16914 0.0
C80 C 0.92939 0.59286 0.19689 0.0
C81 C 0.90028 0.55089 0.19212 0.0
C82 C 0.9127 0.52155 0.1901 0.0
C83 C 0.95467 0.53377 0.19284 0.0
C84 C 0.98368 0.5758 0.1979 0.0
C85 C 0.97132 0.60501 0.19978 0.0
C86 C 0.01935 0.40841 0.20763 0.0
C87 C 0.98923 0.36805 0.21141 0.0
C88 C 0.9932 0.35215 0.22727 0.0
C89 C 0.02687 0.37653 0.23986 0.0
C90 C 0.05533 0.41786 0.23649 0.0
C91 C 0.05169 0.43344 0.22048 0.0
C92 C 0.01336 0.39662 0.17524 0.0
C93 C 0.04773 0.395 0.16985 0.0
C94 C 0.04311 0.36522 0.15661 0.0
C95 C 0.00387 0.33647 0.14838 0.0
C96 C 0.9695 0.33908 0.15323 0.0
C97 C 0.97413 0.36875 0.16667 0.0
C98 C 0.9997 0.44874 0.18944 0.0
C99 C 0.96072 0.43594 0.19587 0.0
C100 C 0.94539 0.46304 0.19652 0.0
C101 C 0.96859 0.50317 0.19061 0.0
C102 C 0.00644 0.51471 0.18326 0.0
C103 C 0.02182 0.48781 0.18277 0.0
H104 H 0.76939 0.12068 0.54629 0.0
N105 N 0.69675 0.06757 0.52923 0.0
H106 H 0.80516 0.10722 0.57044 0.0
H107 H 0.66275 -0.00181 0.54847 0.0
H108 H 0.69742 0.98516 0.57287 0.0
H109 H 0.69375 0.99519 0.51811 0.0
H110 H 0.72815 0.98528 0.49317 0.0
H111 H 0.73398 0.11979 0.50442 0.0
H112 H 0.76776 0.10981 0.47901 0.0
H113 H 0.66816 0.11842 0.53528 0.0
H114 H 0.6283 0.9903 0.52045 0.0
H115 H 0.59628 0.10154 0.53334 0.0
H116 H 0.55658 0.97239 0.51974 0.0
H117 H 0.39865 0.05539 0.54071 0.0
H118 H 0.35876 0.05513 0.56548 0.0
H119 H 0.31978 0.9264 0.57145 0.0
H120 H 0.35867 0.92663 0.54602 0.0
H121 H 0.32744 0.93707 0.50595 0.0
H122 H 0.29167 0.95528 0.4838 0.0
H123 H 0.39558 0.08148 0.48791 0.0
H124 H 0.43035 0.06306 0.51063 0.0
H125 H 0.46296 0.05191 0.54608 0.0
H126 H 0.53477 0.07036 0.54705 0.0
H127 H 0.50484 0.97593 0.50414 0.0
N128 N 0.3981 0.9877 0.52483 0.0
H129 H 0.43222 0.95563 0.50422 0.0
C130 C 0.7134 0.06077 0.54547 0.0
C131 C 0.75327 0.09137 0.55231 0.0
C132 C 0.77361 0.0836 0.56615 0.0
C133 C 0.75435 0.0449 0.57351 0.0
C134 C 0.71352 0.01502 0.56728 0.0
C135 C 0.69335 0.02269 0.55335 0.0
C136 C 0.71153 0.05851 0.51319 0.0
C137 C 0.70918 0.02014 0.5095 0.0
C138 C 0.72884 0.01445 0.49514 0.0
C139 C 0.75111 0.0469 0.48416 0.0
C140 C 0.75155 0.08445 0.48739 0.0
C141 C 0.732 0.09013 0.50178 0.0
C142 C 0.65376 0.05578 0.52825 0.0
C143 C 0.64378 0.08653 0.53184 0.0
C144 C 0.60257 0.07666 0.53085 0.0
C145 C 0.57018 0.03544 0.52647 0.0
C146 C 0.58041 0.0046 0.52286 0.0
C147 C 0.62168 0.01472 0.52351 0.0
C148 C 0.38135 0.99076 0.54142 0.0
C149 C 0.38201 0.02726 0.54748 0.0
C150 C 0.35929 0.02712 0.56177 0.0
C151 C 0.3356 0.99059 0.57037 0.0
C152 C 0.33697 0.95484 0.5649 0.0
C153 C 0.35954 0.95498 0.55054 0.0
C154 C 0.38148 -0.00154 0.50983 0.0
C155 C 0.34273 0.96842 0.50178 0.0
C156 C 0.32243 0.97897 0.48909 0.0
C157 C 0.34065 0.01995 0.48405 0.0
C158 C 0.38035 0.04979 0.49166 0.0
C159 C 0.40054 0.03921 0.50449 0.0
C160 C 0.44168 0.00161 0.52523 0.0
C161 C 0.47151 0.03482 0.53696 0.0
C162 C 0.51305 0.04576 0.53735 0.0
C163 C 0.52601 0.02454 0.52576 0.0
C164 C 0.49619 0.99236 0.51364 0.0
C165 C 0.45461 0.98091 0.51351 0.0
H166 H 0.68245 0.71815 0.8638 0.0
N167 N 0.66457 0.63956 0.85265 0.0
H168 H 0.73421 0.7647 0.88728 0.0
H169 H 0.70883 0.62199 0.87492 0.0
H170 H 0.75992 0.66799 0.89897 0.0
H171 H 0.71179 0.63027 0.82992 0.0
H172 H 0.73369 0.66276 0.80188 0.0
H173 H 0.63765 0.68667 0.83699 0.0
H174 H 0.65988 0.71998 0.80896 0.0
H175 H 0.61567 0.65766 0.87313 0.0
H176 H 0.61572 0.56252 0.83844 0.0
H177 H 0.54452 0.60946 0.87928 0.0
H178 H 0.5434 0.51492 0.84332 0.0
H179 H 0.30673 0.42813 0.89556 0.0
H180 H 0.28508 0.3943 0.92329 0.0
H181 H 0.39693 0.38901 0.92826 0.0
H182 H 0.41749 0.42113 0.90046 0.0
H183 H 0.3672 0.36548 0.87358 0.0
H184 H 0.32638 0.30972 0.8505 0.0
H185 H 0.2801 0.38349 0.82811 0.0
H186 H 0.32266 0.44015 0.85103 0.0
H187 H 0.40484 0.5221 0.87654 0.0
H188 H 0.47502 0.57253 0.86926 0.0
H189 H 0.50276 0.47384 0.86444 0.0
N190 N 0.37103 0.44048 0.87778 0.0
H191 H 0.43245 0.42398 0.87034 0.0
C192 C 0.69211 0.66659 0.86749 0.0
C193 C 0.69911 0.70687 0.8714 0.0
C194 C 0.72854 0.7334 0.88498 0.0
C195 C 0.75148 0.72022 0.89494 0.0
C196 C 0.74336 0.67942 0.89135 0.0
C197 C 0.71401 0.65298 0.87774 0.0
C198 C 0.6736 0.65641 0.83553 0.0
C199 C 0.69991 0.64932 0.82524 0.0
C200 C 0.71213 0.6677 0.80922 0.0
C201 C 0.69844 0.69389 0.80322 0.0
C202 C 0.67107 0.70013 0.81332 0.0
C203 C 0.65844 0.68123 0.82931 0.0
C204 C 0.62145 0.61331 0.8556 0.0
C205 C 0.60034 0.62651 0.86668 0.0
C206 C 0.55922 0.59887 0.87003 0.0
C207 C 0.53802 0.55785 0.86202 0.0
C208 C 0.55884 0.54566 0.85024 0.0
C209 C 0.60011 0.57295 0.84725 0.0
C210 C 0.36357 0.42729 0.8957 0.0
C211 C 0.32693 0.4204 0.90284 0.0
C212 C 0.3147 0.40118 0.91874 0.0
C213 C 0.3391 0.38854 0.92795 0.0
C214 C 0.377 0.39761 0.92134 0.0
C215 C 0.38902 0.41649 0.90536 0.0
C216 C 0.34806 0.40721 0.864 0.0
C217 C 0.34873 0.37 0.86362 0.0
C218 C 0.32493 0.33784 0.85048 0.0
C219 C 0.29963 0.34192 0.83751 0.0
C220 C 0.29952 0.37943 0.83777 0.0
C221 C 0.32358 0.41173 0.85088 0.0
C222 C 0.41327 0.46937 0.87419 0.0
C223 C 0.42624 0.51158 0.87387 0.0
C224 C 0.46649 0.54035 0.86981 0.0
C225 C 0.49489 0.52748 0.86621 0.0
C226 C 0.48176 0.48505 0.86671 0.0
C227 C 0.44137 0.4563 0.87037 0.0
C228 C 0.02013 0.12953 0.06271 0.0
C229 C 0.0078 0.08946 0.06777 0.0
C230 C 0.0129 0.15659 0.07335 0.0
C231 C 0.99321 0.14413 0.08931 0.0
C232 C 0.97987 0.1037 0.09408 0.0
C233 C 0.98676 0.07653 0.08337 0.0
C234 C 0.98995 0.17363 0.10216 0.0
C235 C 0.98967 0.20774 0.09752 0.0
C236 C 0.99163 0.23925 0.11097 0.0
C237 C 0.97311 0.26244 0.10672 0.0
C238 C 0.97626 0.29355 0.11897 0.0
C239 C 0.99888 0.30264 0.13551 0.0
H240 H 0.02961 0.23183 0.13117 0.0
C241 C 0.01751 0.27954 0.13971 0.0
C242 C 0.01393 0.2482 0.12761 0.0
H243 H 0.03496 0.28576 0.15241 0.0
H244 H 0.03648 0.14049 0.05079 0.0
H245 H 0.02452 0.18779 0.06941 0.0
H246 H 0.96488 0.09339 0.10636 0.0
H247 H 0.97693 0.04593 0.08769 0.0
H248 H 0.98785 0.16688 0.11609 0.0
H249 H 0.98759 0.21272 0.08352 0.0
H250 H 0.95618 0.25647 0.09391 0.0
H251 H 0.96185 0.31111 0.11536 0.0
C252 C 0.94773 0.01989 0.40254 0.0
C253 C 0.97029 0.05177 0.39137 0.0
C254 C 0.91856 0.02125 0.41314 0.0
C255 C 0.91123 0.05452 0.41271 0.0
C256 C 0.93348 0.08602 0.40139 0.0
C257 C 0.96249 0.08462 0.39081 0.0
C258 C 0.88295 0.05919 0.42465 0.0
C259 C 0.8521 0.02762 0.43245 0.0
C260 C 0.82587 0.03381 0.44513 0.0
C261 C 0.78609 0.00052 0.44746 0.0
C262 C 0.76135 0.00489 0.4598 0.0
C263 C 0.77606 0.04261 0.47023 0.0
H264 H 0.87158 0.0975 0.4547 0.0
C265 C 0.81593 0.07589 0.46789 0.0
C266 C 0.84057 0.07155 0.45556 0.0
H267 H 0.82873 0.10501 0.47603 0.0
H268 H 0.95313 0.99425 0.40336 0.0
H269 H 0.9029 0.99688 0.422 0.0
H270 H 0.92872 0.11214 0.40086 0.0
H271 H 0.97927 0.10974 0.38237 0.0
H272 H 0.88736 0.09013 0.4267 0.0
H273 H 0.84485 0.99597 0.42917 0.0
H274 H 0.77408 0.971 0.43971 0.0
H275 H 0.73072 0.97868 0.46119 0.0
C276 C 0.90249 0.87312 0.71891 0.0
C277 C 0.93539 0.86556 0.72038 0.0
C278 C 0.86364 0.84443 0.72447 0.0
C279 C 0.85704 0.80758 0.73148 0.0
C280 C 0.88921 0.799 0.73184 0.0
C281 C 0.92801 0.82776 0.7265 0.0
C282 C 0.81822 0.77828 0.7395 0.0
C283 C 0.79407 0.79021 0.74753 0.0
C284 C 0.76278 0.7638 0.75984 0.0
C285 C 0.75507 0.78327 0.77439 0.0
C286 C 0.73183 0.76014 0.78803 0.0
C287 C 0.71571 0.71702 0.7873 0.0
H288 H 0.74709 0.7038 0.74695 0.0
C289 C 0.72039 0.69707 0.77201 0.0
C290 C 0.74344 0.72016 0.75835 0.0
H291 H 0.70742 0.66371 0.77092 0.0
H292 H 0.90714 0.90182 0.71408 0.0
H293 H 0.83917 0.8515 0.72349 0.0
H294 H 0.88489 0.77069 0.737 0.0
H295 H 0.95253 0.82072 0.72758 0.0
H296 H 0.81297 0.74737 0.74108 0.0
H297 H 0.80154 0.82223 0.74733 0.0
H298 H 0.76916 0.81678 0.77579 0.0
H299 H 0.72875 0.77638 0.79965 0.0
C300 C 0.09781 0.93961 0.07454 0.0
C301 C 0.08393 0.96783 0.07297 0.0
C302 C 0.08554 0.91288 0.08825 0.0
C303 C 0.05932 0.91399 0.10086 0.0
C304 C 0.04694 0.94343 0.09973 0.0
C305 C 0.05919 0.97016 0.08599 0.0
C306 C 0.04119 0.88265 0.11425 0.0
C307 C 0.05665 0.85892 0.11924 0.0
C308 C 0.03558 0.82464 0.13111 0.0
C309 C 0.05916 0.81207 0.14093 0.0
C310 C 0.04018 0.77891 0.15171 0.0
C311 C 0.99705 0.7572 0.15269 0.0
H312 H 0.97292 0.81054 0.12421 0.0
C313 C 0.97336 0.76944 0.14271 0.0
C314 C 0.99236 0.80274 0.13202 0.0
H315 H 0.94009 0.75344 0.14325 0.0
H316 H 0.11677 0.93685 0.06471 0.0
H317 H 0.09516 0.89019 0.0883 0.0
H318 H 0.02668 0.94496 0.10921 0.0
H319 H 0.04792 0.99152 0.08521 0.0
H320 H 0.01374 0.87899 0.12015 0.0
H321 H 0.08615 0.86496 0.11479 0.0
H322 H 0.09241 0.82798 0.14028 0.0
H323 H 0.05921 0.76987 0.15906 0.0
C324 C 0.15878 0.08513 0.40567 0.0
C325 C 0.17859 0.11247 0.39246 0.0
C326 C 0.18208 0.08108 0.41947 0.0
C327 C 0.22554 0.10482 0.42044 0.0
C328 C 0.24513 0.1342 0.40798 0.0
C329 C 0.22193 0.13761 0.39397 0.0
C330 C 0.25118 0.0982 0.43375 0.0
C331 C 0.24119 0.0598 0.43786 0.0
C332 C 0.26842 0.05138 0.44944 0.0
C333 C 0.2667 0.01325 0.44654 0.0
C334 C 0.29108 0.00364 0.45737 0.0
C335 C 0.31725 0.03166 0.47163 0.0
H336 H 0.29637 0.1091 0.46637 0.0
C337 C 0.31909 0.07001 0.47448 0.0
C338 C 0.295 0.07982 0.46349 0.0
H339 H 0.33816 0.09199 0.48555 0.0
H340 H 0.12542 0.0654 0.40484 0.0
H341 H 0.16614 0.05885 0.42918 0.0
H342 H 0.27856 0.15311 0.40858 0.0
H343 H 0.23799 0.15918 0.38405 0.0
H344 H 0.2809 0.12482 0.43865 0.0
H345 H 0.21344 0.03308 0.43135 0.0
H346 H 0.24652 0.99083 0.43578 0.0
H347 H 0.28926 0.9741 0.45459 0.0
C348 C 0.11679 0.10063 0.74435 0.0
C349 C 0.10923 0.06128 0.74845 0.0
C350 C 0.13703 0.13476 0.75707 0.0
C351 C 0.14965 0.12994 0.77418 0.0
C352 C 0.14111 0.09043 0.77836 0.0
C353 C 0.12153 0.05659 0.76561 0.0
C354 C 0.17119 0.16493 0.78818 0.0
C355 C 0.19737 0.20454 0.78463 0.0
C356 C 0.22229 0.23919 0.79864 0.0
C357 C 0.24243 0.28029 0.79372 0.0
C358 C 0.26732 0.31369 0.80627 0.0
C359 C 0.27279 0.30674 0.82409 0.0
H360 H 0.21421 0.20148 0.82102 0.0
C361 C 0.25258 0.26568 0.82904 0.0
C362 C 0.22792 0.23234 0.81651 0.0
H363 H 0.25568 0.25917 0.84269 0.0
H364 H 0.10747 0.10515 0.73126 0.0
H365 H 0.14218 0.1646 0.75356 0.0
H366 H 0.15021 0.08582 0.79148 0.0
H367 H 0.11584 0.02664 0.76928 0.0
H368 H 0.16662 0.15674 0.80185 0.0
H369 H 0.20167 0.21196 0.77081 0.0
H370 H 0.23911 0.28663 0.78005 0.0
H371 H 0.28286 0.34488 0.80194 0.0
C372 C 0.93394 0.96898 0.64683 0.0
C373 C 0.96093 0.9955 0.66121 0.0
C374 C 0.91001 0.98039 0.63672 0.0
C375 C 0.91219 0.01855 0.64084 0.0
C376 C 0.93998 0.04556 0.65492 0.0
C377 C 0.96398 0.03411 0.66508 0.0
C378 C 0.88698 0.03156 0.63035 0.0
C379 C 0.8503 0.00408 0.62158 0.0
C380 C 0.8255 0.01569 0.60999 0.0
C381 C 0.79651 0.98555 0.59706 0.0
C382 C 0.77314 0.9949 0.58547 0.0
C383 C 0.77775 0.03462 0.58663 0.0
H384 H 0.85066 0.07905 0.62158 0.0
C385 C 0.80604 0.0646 0.59987 0.0
C386 C 0.82965 0.05528 0.61145 0.0
H387 H 0.80986 0.09528 0.60135 0.0
H388 H 0.93117 0.93923 0.64333 0.0
H389 H 0.89035 0.95937 0.62553 0.0
H390 H 0.94275 0.07538 0.65824 0.0
H391 H 0.98462 0.05536 0.67602 0.0
H392 H 0.89926 0.06468 0.62996 0.0
H393 H 0.83809 0.97104 0.62237 0.0
H394 H 0.7925 0.95477 0.59564 0.0
H395 H 0.75223 0.97118 0.57527 0.0
C396 C 0.99976 0.931 0.97603 0.0
C397 C 0.99622 0.9565 0.98934 0.0
C398 C 0.96608 0.90415 0.96416 0.0
C399 C 0.92776 0.90176 0.96542 0.0
C400 C 0.92459 0.92832 0.97829 0.0
C401 C 0.95841 0.95532 0.99019 0.0
C402 C 0.89096 0.87247 0.95332 0.0
C403 C 0.88548 0.83629 0.94593 0.0
C404 C 0.85008 0.80682 0.93324 0.0
C405 C 0.85456 0.77822 0.9222 0.0
C406 C 0.82254 0.75004 0.90992 0.0
C407 C 0.78494 0.74944 0.90847 0.0
H408 H 0.80693 0.82647 0.94063 0.0
C409 C 0.78007 0.77756 0.91973 0.0
C410 C 0.81224 0.80592 0.93201 0.0
H411 H 0.75122 0.7774 0.91918 0.0
H412 H 0.02858 0.93154 0.97479 0.0
H413 H 0.97046 0.88564 0.95395 0.0
H414 H 0.89562 0.92757 0.97938 0.0
H415 H 0.9547 0.97472 0.00023 0.0
H416 H 0.86786 0.88102 0.9507 0.0
H417 H 0.90855 0.82787 0.94896 0.0
H418 H 0.88327 0.77806 0.92288 0.0
H419 H 0.82763 0.72927 0.90129 0.0
C420 C 0.01018 0.9512 0.32556 0.0
C421 C 0.04737 0.98407 0.32019 0.0
C422 C 0.99256 0.91109 0.317 0.0
C423 C 0.01179 0.90332 0.30281 0.0
C424 C 0.04841 0.9365 0.29732 0.0
C425 C 0.06596 0.97624 0.30585 0.0
C426 C 0.99639 0.86142 0.29362 0.0
C427 C 0.95956 0.82702 0.29547 0.0
C428 C 0.94713 0.78699 0.28514 0.0
C429 C 0.90568 0.76018 0.2789 0.0
C430 C 0.89451 0.72516 0.26723 0.0
C431 C 0.92465 0.71618 0.26167 0.0
H432 H 0.00855 0.79513 0.28587 0.0
C433 C 0.96559 0.74153 0.26902 0.0
C434 C 0.97659 0.77618 0.28072 0.0
H435 H 0.98986 0.73603 0.26507 0.0
H436 H 0.99519 0.95623 0.33662 0.0
H437 H 0.96458 0.88644 0.32183 0.0
H438 H 0.06397 0.93163 0.28644 0.0
H439 H 0.0945 0.00078 0.30127 0.0
H440 H 0.01658 0.85927 0.28421 0.0
H441 H 0.93704 0.82857 0.30354 0.0
H442 H 0.88222 0.76735 0.2824 0.0
H443 H 0.86251 0.70584 0.26217 0.0
C444 C 0.12867 0.98148 0.65651 0.0
C445 C 0.11783 0.95327 0.66975 0.0
C446 C 0.15366 0.98175 0.64312 0.0
C447 C 0.16776 0.95343 0.64264 0.0
C448 C 0.1556 0.92432 0.65547 0.0
C449 C 0.13132 0.92452 0.66901 0.0
C450 C 0.19467 0.95294 0.62884 0.0
C451 C 0.22368 0.98766 0.62202 0.0
C452 C 0.25225 0.98732 0.60901 0.0
C453 C 0.29173 0.02265 0.60862 0.0
C454 C 0.31921 0.02345 0.59641 0.0
C455 C 0.30753 0.98908 0.58412 0.0
H456 H 0.20985 0.92563 0.59625 0.0
C457 C 0.26782 0.95381 0.58446 0.0
C458 C 0.2405 0.95291 0.59674 0.0
H459 H 0.2573 0.92722 0.57489 0.0
H460 H 0.11861 0.0039 0.65671 0.0
H461 H 0.16164 0.0039 0.63312 0.0
H462 H 0.16569 0.9019 0.65528 0.0
H463 H 0.12318 0.90214 0.67893 0.0
H464 H 0.19266 0.92347 0.6253 0.0
H465 H 0.2285 0.01767 0.62698 0.0
H466 H 0.30149 0.04962 0.61788 0.0
H467 H 0.34962 0.05101 0.59663 0.0
C468 C 0.18393 0.17375 0.01534 0.0
C469 C 0.18917 0.13918 0.01388 0.0
C470 C 0.21182 0.21082 0.00817 0.0
C471 C 0.2455 0.214 -0.0007 0.0
C472 C 0.25202 0.18028 -0.00116 0.0
C473 C 0.22415 0.14326 0.00597 0.0
C474 C 0.27326 0.25059 0.98952 0.0
C475 C 0.26258 0.27728 0.98339 0.0
C476 C 0.28659 0.30823 0.97051 0.0
C477 C 0.28187 0.34284 0.96915 0.0
C478 C 0.30022 0.36997 0.95582 0.0
C479 C 0.32334 0.36277 0.94339 0.0
H480 H 0.31385 0.27459 0.95846 0.0
C481 C 0.32877 0.3286 0.94501 0.0
C482 C 0.31062 0.30164 0.95836 0.0
H483 H 0.34545 0.32141 0.93542 0.0
H484 H 0.15761 0.17186 0.02157 0.0
H485 H 0.2064 0.2365 0.00943 0.0
H486 H 0.27791 0.18193 -0.0077 0.0
H487 H 0.22942 0.11743 0.00477 0.0
H488 H 0.30225 0.25345 0.986 0.0
H489 H 0.23408 0.27532 0.98702 0.0
H490 H 0.26327 0.34849 0.97824 0.0
H491 H 0.29571 0.39619 0.95507 0.0
C492 C 0.06982 0.2026 0.3282 0.0
C493 C 0.10273 0.1964 0.32455 0.0
C494 C 0.06451 0.23185 0.31945 0.0
C495 C 0.09199 0.25538 0.30677 0.0
C496 C 0.12555 0.24997 0.30364 0.0
C497 C 0.13087 0.22092 0.31237 0.0
C498 C 0.08686 0.28496 0.29601 0.0
C499 C 0.05354 0.28953 0.29548 0.0
C500 C 0.04784 0.31558 0.28268 0.0
C501 C 0.0076 0.30622 0.27755 0.0
C502 C 1.00073 0.3271 0.26419 0.0
C503 C 0.03402 0.35786 0.25562 0.0
H504 H 0.11296 0.358 0.27906 0.0
C505 C 0.07444 0.36879 0.26151 0.0
C506 C 0.08131 0.34832 0.27499 0.0
H507 H 0.10097 0.39217 0.25527 0.0
H508 H 0.04777 0.18441 0.33762 0.0
H509 H 0.03868 0.23537 0.32264 0.0
H510 H 0.14746 0.26774 0.29409 0.0
H511 H 0.15674 0.21722 0.30929 0.0
H512 H 0.11094 0.3017 0.28708 0.0
H513 H 0.02791 0.27115 0.30345 0.0
H514 H 0.98124 0.28172 0.28347 0.0
H515 H 0.96923 0.31855 0.26037 0.0
loop_
_geom_bond_atom_site_label_1
_geom_bond_atom_site_label_2
_geom_bond_distance
_geom_bond_site_symmetry_2
_ccdc_geom_bond_type
Zn0 O3 2.031 1_545 S
Zn0 O5 2.049 . S
Zn0 O10 2.067 1_545 S
Zn1 O2 1.962 . S
Zn1 O4 1.986 . S
Zn1 O6 1.996 . S
Zn1 O9 1.943 . S
O2 Zn1 1.962 . S
O2 C7 1.254 1_545 S
O3 Zn0 2.031 1_565 S
O3 C7 1.269 . S
O4 Zn1 1.986 . S
O4 C11 1.262 . S
O5 Zn0 2.049 . S
O5 C13 1.260 . S
O6 Zn1 1.996 . S
O6 C13 1.257 . S
C7 O2 1.254 1_565 S
C7 O3 1.269 . S
C8 O9 1.249 1_565 S
C8 O10 1.270 . S
O9 Zn1 1.943 . S
O9 C8 1.249 1_545 S
O10 Zn0 2.067 1_565 S
O10 C8 1.270 . S
C11 O4 1.262 . S
C11 O12 1.232 . S
O12 C11 1.232 . S
C13 O5 1.260 . S
C13 O6 1.257 . S
Zn14 O17 2.031 . S
Zn14 O19 2.049 . S
Zn14 O24 2.067 . S
Zn15 O16 1.962 . S
Zn15 O18 1.986 1_455 S
Zn15 O20 1.996 . S
Zn15 O23 1.943 1_455 S
O16 Zn15 1.962 . S
O16 C21 1.254 . S
O17 Zn14 2.031 . S
O17 C21 1.269 . S
O18 Zn15 1.986 1_655 S
O18 C25 1.262 . S
O19 Zn14 2.049 . S
O19 C27 1.260 . S
O20 Zn15 1.996 . S
O20 C27 1.257 . S
C21 O16 1.254 . S
C21 O17 1.269 . S
C22 O23 1.249 1_455 S
C22 O24 1.270 . S
O23 Zn15 1.943 1_655 S
O23 C22 1.249 1_655 S
O24 Zn14 2.067 . S
O24 C22 1.270 . S
C25 O18 1.262 . S
C25 O26 1.232 . S
O26 C25 1.232 . S
C27 O19 1.260 . S
C27 O20 1.257 . S
Zn28 O31 2.031 1_565 S
Zn28 O33 2.049 . S
Zn28 O38 2.067 1_565 S
Zn29 O30 1.962 1_545 S
Zn29 O32 1.986 1_445 S
Zn29 O34 1.996 1_445 S
Zn29 O37 1.943 . S
O30 Zn29 1.962 1_565 S
O30 C35 1.254 . S
O31 Zn28 2.031 1_545 S
O31 C35 1.269 1_545 S
O32 Zn29 1.986 1_665 S
O32 C39 1.262 1_565 S
O33 Zn28 2.049 . S
O33 C41 1.260 1_455 S
O34 Zn29 1.996 1_665 S
O34 C41 1.257 . S
C35 O30 1.254 . S
C35 O31 1.269 1_565 S
C36 O37 1.249 . S
C36 O38 1.270 . S
O37 Zn29 1.943 . S
O37 C36 1.249 . S
O38 Zn28 2.067 1_545 S
O38 C36 1.270 . S
C39 O32 1.262 1_545 S
C39 O40 1.232 . S
O40 C39 1.232 . S
C41 O33 1.260 1_655 S
C41 O34 1.257 . S
H42 C69 0.929 . S
N43 C68 1.433 . S
N43 C74 1.435 . S
N43 C80 1.423 . S
H44 C70 0.930 1_655 S
H45 C73 0.931 . S
H46 C72 0.929 . S
H47 C75 0.930 . S
H48 C76 0.932 . S
H49 C79 0.929 . S
H50 C78 0.931 1_655 S
H51 C81 0.929 . S
H52 C85 0.932 . S
H53 C82 0.931 . S
H54 C84 0.929 . S
H55 C87 0.929 . S
H56 C88 0.930 1_655 S
H57 C90 0.929 . S
H58 C91 0.931 . S
H59 C93 0.930 . S
H60 C94 0.932 . S
H61 C96 0.931 1_655 S
H62 C97 0.929 . S
H63 C99 0.929 . S
H64 C100 0.931 . S
H65 C102 0.929 . S
N66 C86 1.433 . S
N66 C92 1.435 . S
N66 C98 1.423 . S
H67 C103 0.932 . S
C68 N43 1.433 . S
C68 C69 1.363 1_455 S
C68 C73 1.370 . S
C69 H42 0.929 . S
C69 C68 1.363 1_655 S
C69 C70 1.385 1_655 S
C70 H44 0.930 1_455 S
C70 C69 1.385 1_455 S
C70 C71 1.357 . S
C71 C70 1.357 . S
C71 C72 1.406 . S
C72 H46 0.929 . S
C72 C71 1.406 . S
C72 C73 1.391 . S
C73 H45 0.931 . S
C73 C68 1.370 . S
C73 C72 1.391 . S
C74 N43 1.435 . S
C74 C75 1.358 . S
C74 C79 1.371 1_455 S
C75 H47 0.930 . S
C75 C74 1.358 . S
C75 C76 1.405 . S
C76 H48 0.932 . S
C76 C75 1.405 . S
C76 C77 1.383 . S
C77 C76 1.383 . S
C77 C78 1.393 . S
C78 H50 0.931 1_455 S
C78 C77 1.393 . S
C78 C79 1.382 1_455 S
C79 H49 0.929 . S
C79 C74 1.371 1_655 S
C79 C78 1.382 1_655 S
C80 N43 1.423 . S
C80 C81 1.362 1_455 S
C80 C85 1.388 . S
C81 H51 0.929 . S
C81 C80 1.362 1_655 S
C81 C82 1.376 . S
C82 H53 0.931 . S
C82 C81 1.376 . S
C82 C83 1.396 1_655 S
C83 C82 1.396 1_455 S
C83 C84 1.348 . S
C83 C101 1.472 . S
C84 H54 0.929 . S
C84 C83 1.348 . S
C84 C85 1.443 . S
C85 H52 0.932 . S
C85 C80 1.388 . S
C85 C84 1.443 . S
C86 N66 1.433 . S
C86 C87 1.363 1_455 S
C86 C91 1.370 . S
C87 H55 0.929 . S
C87 C86 1.363 1_655 S
C87 C88 1.385 1_655 S
C88 H56 0.930 1_455 S
C88 C87 1.385 1_455 S
C88 C89 1.357 . S
C89 C88 1.357 . S
C89 C90 1.406 . S
C90 H57 0.929 . S
C90 C89 1.406 . S
C90 C91 1.391 . S
C91 H58 0.931 . S
C91 C86 1.370 . S
C91 C90 1.391 . S
C92 N66 1.435 . S
C92 C93 1.358 . S
C92 C97 1.371 1_455 S
C93 H59 0.930 . S
C93 C92 1.358 . S
C93 C94 1.405 . S
C94 H60 0.932 . S
C94 C93 1.405 . S
C94 C95 1.383 . S
C95 C94 1.383 . S
C95 C96 1.393 . S
C96 H61 0.931 1_455 S
C96 C95 1.393 . S
C96 C97 1.382 1_455 S
C97 H62 0.929 . S
C97 C92 1.371 1_655 S
C97 C96 1.382 1_655 S
C98 N66 1.423 . S
C98 C99 1.362 1_455 S
C98 C103 1.388 . S
C99 H63 0.929 . S
C99 C98 1.362 1_655 S
C99 C100 1.376 . S
C100 H64 0.931 . S
C100 C99 1.376 . S
C100 C101 1.396 1_655 S
C101 C83 1.472 . S
C101 C100 1.396 1_455 S
C101 C102 1.348 . S
C102 H65 0.929 . S
C102 C101 1.348 . S
C102 C103 1.443 . S
C103 H67 0.932 . S
C103 C98 1.388 . S
C103 C102 1.443 . S
H104 C131 0.929 . S
N105 C130 1.433 . S
N105 C136 1.435 . S
N105 C142 1.423 . S
H106 C132 0.930 . S
H107 C135 0.931 . S
H108 C134 0.929 1_565 S
H109 C137 0.930 1_565 S
H110 C138 0.932 1_565 S
H111 C141 0.929 . S
H112 C140 0.931 . S
H113 C143 0.929 . S
H114 C147 0.932 . S
H115 C144 0.931 . S
H116 C146 0.929 . S
H117 C149 0.929 . S
H118 C150 0.930 . S
H119 C152 0.929 1_565 S
H120 C153 0.931 . S
H121 C155 0.930 1_565 S
H122 C156 0.932 1_565 S
H123 C158 0.931 . S
H124 C159 0.929 . S
H125 C161 0.929 . S
H126 C162 0.931 . S
H127 C164 0.929 . S
N128 C148 1.433 . S
N128 C154 1.435 . S
N128 C160 1.423 . S
H129 C165 0.932 . S
C130 N105 1.433 . S
C130 C131 1.363 . S
C130 C135 1.370 . S
C131 H104 0.929 . S
C131 C130 1.363 . S
C131 C132 1.385 . S
C132 H106 0.930 . S
C132 C131 1.385 . S
C132 C133 1.357 . S
C133 C132 1.357 . S
C133 C134 1.406 . S
C134 H108 0.929 1_545 S
C134 C133 1.406 . S
C134 C135 1.391 . S
C135 H107 0.931 . S
C135 C130 1.370 . S
C135 C134 1.391 . S
C136 N105 1.435 . S
C136 C137 1.358 . S
C136 C141 1.371 . S
C137 H109 0.930 1_545 S
C137 C136 1.358 . S
C137 C138 1.405 . S
C138 H110 0.932 1_545 S
C138 C137 1.405 . S
C138 C139 1.383 . S
C139 C138 1.383 . S
C139 C140 1.393 . S
C140 H112 0.931 . S
C140 C139 1.393 . S
C140 C141 1.382 . S
C141 H111 0.929 . S
C141 C136 1.371 . S
C141 C140 1.382 . S
C142 N105 1.423 . S
C142 C143 1.362 . S
C142 C147 1.388 . S
C143 H113 0.929 . S
C143 C142 1.362 . S
C143 C144 1.376 . S
C144 H115 0.931 . S
C144 C143 1.376 . S
C144 C145 1.396 . S
C145 C144 1.396 . S
C145 C146 1.348 . S
C145 C163 1.472 . S
C146 H116 0.929 . S
C146 C145 1.348 . S
C146 C147 1.443 . S
C147 H114 0.932 . S
C147 C142 1.388 . S
C147 C146 1.443 . S
C148 N128 1.433 . S
C148 C149 1.363 . S
C148 C153 1.370 . S
C149 H117 0.929 . S
C149 C148 1.363 . S
C149 C150 1.385 . S
C150 H118 0.930 . S
C150 C149 1.385 . S
C150 C151 1.357 . S
C151 C150 1.357 . S
C151 C152 1.406 . S
C152 H119 0.929 1_545 S
C152 C151 1.406 . S
C152 C153 1.391 . S
C153 H120 0.931 . S
C153 C148 1.370 . S
C153 C152 1.391 . S
C154 N128 1.435 . S
C154 C155 1.358 . S
C154 C159 1.371 . S
C155 H121 0.930 1_545 S
C155 C154 1.358 . S
C155 C156 1.405 . S
C156 H122 0.932 1_545 S
C156 C155 1.405 . S
C156 C157 1.383 . S
C157 C156 1.383 . S
C157 C158 1.393 . S
C158 H123 0.931 . S
C158 C157 1.393 . S
C158 C159 1.382 . S
C159 H124 0.929 . S
C159 C154 1.371 . S
C159 C158 1.382 . S
C160 N128 1.423 . S
C160 C161 1.362 . S
C160 C165 1.388 . S
C161 H125 0.929 . S
C161 C160 1.362 . S
C161 C162 1.376 . S
C162 H126 0.931 . S
C162 C161 1.376 . S
C162 C163 1.396 . S
C163 C145 1.472 . S
C163 C162 1.396 . S
C163 C164 1.348 . S
C164 H127 0.929 . S
C164 C163 1.348 . S
C164 C165 1.443 . S
C165 H129 0.932 . S
C165 C160 1.388 . S
C165 C164 1.443 . S
H166 C193 0.929 . S
N167 C192 1.433 . S
N167 C198 1.435 . S
N167 C204 1.423 . S
H168 C194 0.930 . S
H169 C197 0.931 . S
H170 C196 0.929 . S
H171 C199 0.930 . S
H172 C200 0.932 . S
H173 C203 0.929 . S
H174 C202 0.931 . S
H175 C205 0.929 . S
H176 C209 0.932 . S
H177 C206 0.931 . S
H178 C208 0.929 . S
H179 C211 0.929 . S
H180 C212 0.930 . S
H181 C214 0.929 . S
H182 C215 0.931 . S
H183 C217 0.930 . S
H184 C218 0.932 . S
H185 C220 0.931 . S
H186 C221 0.929 . S
H187 C223 0.929 . S
H188 C224 0.931 . S
H189 C226 0.929 . S
N190 C210 1.433 . S
N190 C216 1.435 . S
N190 C222 1.423 . S
H191 C227 0.932 . S
C192 N167 1.433 . S
C192 C193 1.363 . S
C192 C197 1.370 . S
C193 H166 0.929 . S
C193 C192 1.363 . S
C193 C194 1.385 . S
C194 H168 0.930 . S
C194 C193 1.385 . S
C194 C195 1.357 . S
C195 C194 1.357 . S
C195 C196 1.406 . S
C196 H170 0.929 . S
C196 C195 1.406 . S
C196 C197 1.391 . S
C197 H169 0.931 . S
C197 C192 1.370 . S
C197 C196 1.391 . S
C198 N167 1.435 . S
C198 C199 1.358 . S
C198 C203 1.371 . S
C199 H171 0.930 . S
C199 C198 1.358 . S
C199 C200 1.405 . S
C200 H172 0.932 . S
C200 C199 1.405 . S
C200 C201 1.383 . S
C201 C200 1.383 . S
C201 C202 1.393 . S
C202 H174 0.931 . S
C202 C201 1.393 . S
C202 C203 1.382 . S
C203 H173 0.929 . S
C203 C198 1.371 . S
C203 C202 1.382 . S
C204 N167 1.423 . S
C204 C205 1.362 . S
C204 C209 1.388 . S
C205 H175 0.929 . S
C205 C204 1.362 . S
C205 C206 1.376 . S
C206 H177 0.931 . S
C206 C205 1.376 . S
C206 C207 1.396 . S
C207 C206 1.396 . S
C207 C208 1.348 . S
C207 C225 1.472 . S
C208 H178 0.929 . S
C208 C207 1.348 . S
C208 C209 1.443 . S
C209 H176 0.932 . S
C209 C204 1.388 . S
C209 C208 1.443 . S
C210 N190 1.433 . S
C210 C211 1.363 . S
C210 C215 1.370 . S
C211 H179 0.929 . S
C211 C210 1.363 . S
C211 C212 1.385 . S
C212 H180 0.930 . S
C212 C211 1.385 . S
C212 C213 1.357 . S
C213 C212 1.357 . S
C213 C214 1.406 . S
C214 H181 0.929 . S
C214 C213 1.406 . S
C214 C215 1.391 . S
C215 H182 0.931 . S
C215 C210 1.370 . S
C215 C214 1.391 . S
C216 N190 1.435 . S
C216 C217 1.358 . S
C216 C221 1.371 . S
C217 H183 0.930 . S
C217 C216 1.358 . S
C217 C218 1.405 . S
C218 H184 0.932 . S
C218 C217 1.405 . S
C218 C219 1.383 . S
C219 C218 1.383 . S
C219 C220 1.393 . S
C220 H185 0.931 . S
C220 C219 1.393 . S
C220 C221 1.382 . S
C221 H186 0.929 . S
C221 C216 1.371 . S
C221 C220 1.382 . S
C222 N190 1.423 . S
C222 C223 1.362 . S
C222 C227 1.388 . S
C223 H187 0.929 . S
C223 C222 1.362 . S
C223 C224 1.376 . S
C224 H188 0.931 . S
C224 C223 1.376 . S
C224 C225 1.396 . S
C225 C207 1.472 . S
C225 C224 1.396 . S
C225 C226 1.348 . S
C226 H189 0.929 . S
C226 C225 1.348 . S
C226 C227 1.443 . S
C227 H191 0.932 . S
C227 C222 1.388 . S
C227 C226 1.443 . S
C228 C229 1.386 . S
C228 C230 1.383 . S
C228 H244 0.951 . S
C229 C228 1.386 . S
C229 C233 1.383 . S
C230 C228 1.383 . S
C230 C231 1.402 . S
C230 H245 0.951 . S
C231 C230 1.402 . S
C231 C232 1.375 . S
C231 C234 1.481 . S
C232 C231 1.375 . S
C232 C233 1.367 . S
C232 H246 0.951 . S
C233 C229 1.383 . S
C233 C232 1.367 . S
C233 H247 0.950 . S
C234 C231 1.481 . S
C234 C235 1.297 . S
C234 H248 0.950 . S
C235 C234 1.297 . S
C235 C236 1.479 . S
C235 H249 0.950 . S
C236 C235 1.479 . S
C236 C237 1.375 . S
C236 C242 1.404 . S
C237 C236 1.375 . S
C237 C238 1.369 . S
C237 H250 0.950 . S
C238 C237 1.369 . S
C238 C239 1.392 . S
C238 H251 0.951 . S
C239 C238 1.392 . S
C239 C241 1.384 . S
H240 C242 0.949 . S
C241 C239 1.384 . S
C241 C242 1.385 . S
C241 H243 0.950 . S
C242 C236 1.404 . S
C242 H240 0.949 . S
C242 C241 1.385 . S
H243 C241 0.950 . S
H244 C228 0.951 . S
H245 C230 0.951 . S
H246 C232 0.951 . S
H247 C233 0.950 . S
H248 C234 0.950 . S
H249 C235 0.950 . S
H250 C237 0.950 . S
H251 C238 0.951 . S
C252 C253 1.383 1_565 S
C252 C254 1.379 1_565 S
C252 H268 0.957 . S
C253 C252 1.383 1_545 S
C253 C257 1.383 . S
C254 C252 1.379 1_545 S
C254 C255 1.402 . S
C254 H269 0.951 1_545 S
C255 C254 1.402 . S
C255 C256 1.375 . S
C255 C258 1.481 . S
C256 C255 1.375 . S
C256 C257 1.367 . S
C256 H270 0.951 . S
C257 C253 1.383 . S
C257 C256 1.367 . S
C257 H271 0.950 . S
C258 C255 1.481 . S
C258 C259 1.297 . S
C258 H272 0.950 . S
C259 C258 1.297 . S
C259 C260 1.479 . S
C259 H273 0.950 1_545 S
C260 C259 1.479 . S
C260 C261 1.375 1_545 S
C260 C266 1.404 . S
C261 C260 1.375 1_565 S
C261 C262 1.369 . S
C261 H274 0.950 . S
C262 C261 1.369 . S
C262 C263 1.392 1_565 S
C262 H275 0.951 . S
C263 C262 1.392 1_545 S
C263 C265 1.384 . S
H264 C266 0.949 . S
C265 C263 1.384 . S
C265 C266 1.385 . S
C265 H267 0.950 . S
C266 C260 1.404 . S
C266 H264 0.949 . S
C266 C265 1.385 . S
H267 C265 0.950 . S
H268 C252 0.957 . S
H269 C254 0.951 1_565 S
H270 C256 0.951 . S
H271 C257 0.950 . S
H272 C258 0.950 . S
H273 C259 0.950 1_565 S
H274 C261 0.950 . S
H275 C262 0.951 . S
C276 C277 1.386 . S
C276 C278 1.383 . S
C276 H292 0.951 . S
C277 C276 1.386 . S
C277 C281 1.383 . S
C278 C276 1.383 . S
C278 C279 1.402 . S
C278 H293 0.951 . S
C279 C278 1.402 . S
C279 C280 1.375 . S
C279 C282 1.481 . S
C280 C279 1.375 . S
C280 C281 1.367 . S
C280 H294 0.951 . S
C281 C277 1.383 . S
C281 C280 1.367 . S
C281 H295 0.950 . S
C282 C279 1.481 . S
C282 C283 1.297 . S
C282 H296 0.950 . S
C283 C282 1.297 . S
C283 C284 1.479 . S
C283 H297 0.950 . S
C284 C283 1.479 . S
C284 C285 1.375 . S
C284 C290 1.404 . S
C285 C284 1.375 . S
C285 C286 1.369 . S
C285 H298 0.950 . S
C286 C285 1.369 . S
C286 C287 1.392 . S
C286 H299 0.951 . S
C287 C286 1.392 . S
C287 C289 1.384 . S
H288 C290 0.949 . S
C289 C287 1.384 . S
C289 C290 1.385 . S
C289 H291 0.950 . S
C290 C284 1.404 . S
C290 H288 0.949 . S
C290 C289 1.385 . S
H291 C289 0.950 . S
H292 C276 0.951 . S
H293 C278 0.951 . S
H294 C280 0.951 . S
H295 C281 0.950 . S
H296 C282 0.950 . S
H297 C283 0.950 . S
H298 C285 0.950 . S
H299 C286 0.951 . S
C300 C301 1.386 . S
C300 C302 1.383 . S
C300 H316 0.951 . S
C301 C300 1.386 . S
C301 C305 1.383 . S
C302 C300 1.383 . S
C302 C303 1.402 . S
C302 H317 0.951 . S
C303 C302 1.402 . S
C303 C304 1.375 . S
C303 C306 1.481 . S
C304 C303 1.375 . S
C304 C305 1.367 . S
C304 H318 0.951 1_455 S
C305 C301 1.383 . S
C305 C304 1.367 . S
C305 H319 0.950 1_455 S
C306 C303 1.481 . S
C306 C307 1.297 . S
C306 H320 0.950 . S
C307 C306 1.297 . S
C307 C308 1.479 . S
C307 H321 0.950 . S
C308 C307 1.479 . S
C308 C309 1.375 . S
C308 C314 1.404 . S
C309 C308 1.375 . S
C309 C310 1.369 . S
C309 H322 0.950 . S
C310 C309 1.369 . S
C310 C311 1.392 . S
C310 H323 0.951 . S
C311 C310 1.392 . S
C311 C313 1.384 . S
H312 C314 0.949 1_655 S
C313 C311 1.384 . S
C313 C314 1.385 . S
C313 H315 0.950 1_455 S
C314 C308 1.404 . S
C314 H312 0.949 1_455 S
C314 C313 1.385 . S
H315 C313 0.950 1_655 S
H316 C300 0.951 . S
H317 C302 0.951 . S
H318 C304 0.951 1_655 S
H319 C305 0.950 1_655 S
H320 C306 0.950 . S
H321 C307 0.950 . S
H322 C309 0.950 . S
H323 C310 0.951 . S
C324 C325 1.386 . S
C324 C326 1.383 . S
C324 H340 0.951 . S
C325 C324 1.386 . S
C325 C329 1.383 . S
C326 C324 1.383 . S
C326 C327 1.402 . S
C326 H341 0.951 . S
C327 C326 1.402 . S
C327 C328 1.375 . S
C327 C330 1.481 . S
C328 C327 1.375 . S
C328 C329 1.367 . S
C328 H342 0.951 . S
C329 C325 1.383 . S
C329 C328 1.367 . S
C329 H343 0.950 . S
C330 C327 1.481 . S
C330 C331 1.297 . S
C330 H344 0.950 . S
C331 C330 1.297 . S
C331 C332 1.479 . S
C331 H345 0.950 . S
C332 C331 1.479 . S
C332 C333 1.375 . S
C332 C338 1.404 . S
C333 C332 1.375 . S
C333 C334 1.369 . S
C333 H346 0.950 1_545 S
C334 C333 1.369 . S
C334 C335 1.392 . S
C334 H347 0.951 1_545 S
C335 C334 1.392 . S
C335 C337 1.384 . S
H336 C338 0.949 . S
C337 C335 1.384 . S
C337 C338 1.385 . S
C337 H339 0.950 . S
C338 C332 1.404 . S
C338 H336 0.949 . S
C338 C337 1.385 . S
H339 C337 0.950 . S
H340 C324 0.951 . S
H341 C326 0.951 . S
H342 C328 0.951 . S
H343 C329 0.950 . S
H344 C330 0.950 . S
H345 C331 0.950 . S
H346 C333 0.950 1_565 S
H347 C334 0.951 1_565 S
C348 C349 1.386 . S
C348 C350 1.383 . S
C348 H364 0.951 . S
C349 C348 1.386 . S
C349 C353 1.383 . S
C350 C348 1.383 . S
C350 C351 1.402 . S
C350 H365 0.951 . S
C351 C350 1.402 . S
C351 C352 1.375 . S
C351 C354 1.481 . S
C352 C351 1.375 . S
C352 C353 1.367 . S
C352 H366 0.951 . S
C353 C349 1.383 . S
C353 C352 1.367 . S
C353 H367 0.950 . S
C354 C351 1.481 . S
C354 C355 1.297 . S
C354 H368 0.950 . S
C355 C354 1.297 . S
C355 C356 1.479 . S
C355 H369 0.950 . S
C356 C355 1.479 . S
C356 C357 1.375 . S
C356 C362 1.404 . S
C357 C356 1.375 . S
C357 C358 1.369 . S
C357 H370 0.950 . S
C358 C357 1.369 . S
C358 C359 1.392 . S
C358 H371 0.951 . S
C359 C358 1.392 . S
C359 C361 1.384 . S
H360 C362 0.949 . S
C361 C359 1.384 . S
C361 C362 1.385 . S
C361 H363 0.950 . S
C362 C356 1.404 . S
C362 H360 0.949 . S
C362 C361 1.385 . S
H363 C361 0.950 . S
H364 C348 0.951 . S
H365 C350 0.951 . S
H366 C352 0.951 . S
H367 C353 0.950 . S
H368 C354 0.950 . S
H369 C355 0.950 . S
H370 C357 0.950 . S
H371 C358 0.951 . S
C372 C373 1.386 . S
C372 C374 1.383 . S
C372 H388 0.951 . S
C373 C372 1.386 . S
C373 C377 1.383 . S
C374 C372 1.383 . S
C374 C375 1.402 . S
C374 H389 0.951 . S
C375 C374 1.402 . S
C375 C376 1.375 . S
C375 C378 1.481 . S
C376 C375 1.375 . S
C376 C377 1.367 . S
C376 H390 0.951 . S
C377 C373 1.383 . S
C377 C376 1.367 . S
C377 H391 0.950 . S
C378 C375 1.481 . S
C378 C379 1.297 . S
C378 H392 0.950 . S
C379 C378 1.297 . S
C379 C380 1.479 . S
C379 H393 0.950 1_545 S
C380 C379 1.479 . S
C380 C381 1.374 1_545 S
C380 C386 1.404 . S
C381 C380 1.374 1_565 S
C381 C382 1.356 1_565 S
C381 H394 0.965 . S
C382 C381 1.356 1_545 S
C382 C383 1.392 . S
C382 H395 0.951 . S
C383 C382 1.392 . S
C383 C385 1.384 . S
H384 C386 0.949 . S
C385 C383 1.384 . S
C385 C386 1.385 . S
C385 H387 0.950 . S
C386 C380 1.404 . S
C386 H384 0.949 . S
C386 C385 1.385 . S
H387 C385 0.950 . S
H388 C372 0.951 . S
H389 C374 0.951 . S
H390 C376 0.951 . S
H391 C377 0.950 . S
H392 C378 0.950 . S
H393 C379 0.950 1_565 S
H394 C381 0.965 . S
H395 C382 0.951 . S
C396 C397 1.386 1_556 S
C396 C398 1.383 . S
C396 H412 0.951 . S
C397 C396 1.386 1_554 S
C397 C401 1.383 . S
C398 C396 1.383 . S
C398 C399 1.402 . S
C398 H413 0.951 . S
C399 C398 1.402 . S
C399 C400 1.375 1_556 S
C399 C402 1.481 . S
C400 C399 1.375 1_554 S
C400 C401 1.367 . S
C400 H414 0.951 . S
C401 C397 1.383 . S
C401 C400 1.367 . S
C401 H415 0.950 . S
C402 C399 1.481 . S
C402 C403 1.297 . S
C402 H416 0.950 . S
C403 C402 1.297 . S
C403 C404 1.479 . S
C403 H417 0.950 . S
C404 C403 1.479 . S
C404 C405 1.375 . S
C404 C410 1.404 . S
C405 C404 1.375 . S
C405 C406 1.369 . S
C405 H418 0.950 . S
C406 C405 1.369 . S
C406 C407 1.392 . S
C406 H419 0.951 . S
C407 C406 1.392 . S
C407 C409 1.384 . S
H408 C410 0.949 . S
C409 C407 1.384 . S
C409 C410 1.385 . S
C409 H411 0.950 . S
C410 C404 1.404 . S
C410 H408 0.949 . S
C410 C409 1.385 . S
H411 C409 0.950 . S
H412 C396 0.951 . S
H413 C398 0.951 . S
H414 C400 0.951 . S
H415 C401 0.950 . S
H416 C402 0.950 . S
H417 C403 0.950 . S
H418 C405 0.950 . S
H419 C406 0.951 . S
C420 C421 1.386 1_655 S
C420 C422 1.383 . S
C420 H436 0.951 . S
C421 C420 1.386 1_455 S
C421 C425 1.383 . S
C422 C420 1.383 . S
C422 C423 1.402 1_655 S
C422 H437 0.951 . S
C423 C422 1.402 1_455 S
C423 C424 1.375 . S
C423 C426 1.481 . S
C424 C423 1.375 . S
C424 C425 1.367 . S
C424 H438 0.951 . S
C425 C421 1.383 . S
C425 C424 1.367 . S
C425 H439 0.950 1_565 S
C426 C423 1.481 . S
C426 C427 1.297 1_455 S
C426 H440 0.950 . S
C427 C426 1.297 1_655 S
C427 C428 1.479 1_655 S
C427 H441 0.950 . S
C428 C427 1.479 1_455 S
C428 C429 1.375 1_455 S
C428 C434 1.404 . S
C429 C428 1.375 1_655 S
C429 C430 1.369 . S
C429 H442 0.950 . S
C430 C429 1.369 . S
C430 C431 1.392 1_655 S
C430 H443 0.951 . S
C431 C430 1.392 1_455 S
C431 C433 1.384 . S
H432 C434 0.949 . S
C433 C431 1.384 . S
C433 C434 1.385 . S
C433 H435 0.950 . S
C434 C428 1.404 . S
C434 H432 0.949 . S
C434 C433 1.385 . S
H435 C433 0.950 . S
H436 C420 0.951 . S
H437 C422 0.951 . S
H438 C424 0.951 . S
H439 C425 0.950 1_545 S
H440 C426 0.950 . S
H441 C427 0.950 . S
H442 C429 0.950 . S
H443 C430 0.951 . S
C444 C445 1.386 1_545 S
C444 C446 1.383 . S
C444 H460 0.951 . S
C445 C444 1.386 1_565 S
C445 C449 1.383 . S
C446 C444 1.383 . S
C446 C447 1.402 1_545 S
C446 H461 0.951 . S
C447 C446 1.402 1_565 S
C447 C448 1.375 . S
C447 C450 1.481 . S
C448 C447 1.375 . S
C448 C449 1.367 . S
C448 H462 0.951 . S
C449 C445 1.383 . S
C449 C448 1.367 . S
C449 H463 0.950 . S
C450 C447 1.481 . S
C450 C451 1.297 1_565 S
C450 H464 0.950 . S
C451 C450 1.297 1_545 S
C451 C452 1.479 . S
C451 H465 0.950 . S
C452 C451 1.479 . S
C452 C453 1.375 . S
C452 C458 1.404 1_545 S
C453 C452 1.375 . S
C453 C454 1.369 . S
C453 H466 0.950 . S
C454 C453 1.369 . S
C454 C455 1.392 . S
C454 H467 0.951 . S
C455 C454 1.392 . S
C455 C457 1.384 1_545 S
H456 C458 0.949 . S
C457 C455 1.384 1_565 S
C457 C458 1.385 . S
C457 H459 0.950 . S
C458 C452 1.404 1_565 S
C458 H456 0.949 . S
C458 C457 1.385 . S
H459 C457 0.950 . S
H460 C444 0.951 . S
H461 C446 0.951 . S
H462 C448 0.951 . S
H463 C449 0.950 . S
H464 C450 0.950 . S
H465 C451 0.950 . S
H466 C453 0.950 . S
H467 C454 0.951 . S
C468 C469 1.386 1_556 S
C468 C470 1.383 . S
C468 H484 0.951 . S
C469 C468 1.386 1_554 S
C469 C473 1.383 . S
C470 C468 1.383 . S
C470 C471 1.402 . S
C470 H485 0.951 . S
C471 C470 1.402 . S
C471 C472 1.375 . S
C471 C474 1.481 . S
C472 C471 1.375 . S
C472 C473 1.367 1_556 S
C472 H486 0.951 . S
C473 C469 1.383 . S
C473 C472 1.367 1_554 S
C473 H487 0.950 . S
C474 C471 1.481 . S
C474 C475 1.297 . S
C474 H488 0.950 . S
C475 C474 1.297 . S
C475 C476 1.479 . S
C475 H489 0.950 . S
C476 C475 1.479 . S
C476 C477 1.375 . S
C476 C482 1.404 . S
C477 C476 1.375 . S
C477 C478 1.369 . S
C477 H490 0.950 . S
C478 C477 1.369 . S
C478 C479 1.392 . S
C478 H491 0.951 . S
C479 C478 1.392 . S
C479 C481 1.384 . S
H480 C482 0.949 . S
C481 C479 1.384 . S
C481 C482 1.385 . S
C481 H483 0.950 . S
C482 C476 1.404 . S
C482 H480 0.949 . S
C482 C481 1.385 . S
H483 C481 0.950 . S
H484 C468 0.951 . S
H485 C470 0.951 . S
H486 C472 0.951 . S
H487 C473 0.950 . S
H488 C474 0.950 . S
H489 C475 0.950 . S
H490 C477 0.950 . S
H491 C478 0.951 . S
C492 C493 1.386 . S
C492 C494 1.383 . S
C492 H508 0.951 1_455 S
C493 C492 1.386 . S
C493 C497 1.383 . S
C494 C492 1.383 . S
C494 C495 1.402 . S
C494 H509 0.951 1_455 S
C495 C494 1.402 . S
C495 C496 1.375 . S
C495 C498 1.481 . S
C496 C495 1.375 . S
C496 C497 1.367 . S
C496 H510 0.951 . S
C497 C493 1.383 . S
C497 C496 1.367 . S
C497 H511 0.950 . S
C498 C495 1.481 . S
C498 C499 1.297 . S
C498 H512 0.950 . S
C499 C498 1.297 . S
C499 C500 1.479 . S
C499 H513 0.950 1_455 S
C500 C499 1.479 . S
C500 C501 1.375 1_455 S
C500 C506 1.404 . S
C501 C500 1.375 1_655 S
C501 C502 1.369 . S
C501 H514 0.950 . S
C502 C501 1.369 . S
C502 C503 1.392 1_655 S
C502 H515 0.951 . S
C503 C502 1.392 1_455 S
C503 C505 1.384 . S
H504 C506 0.949 . S
C505 C503 1.384 . S
C505 C506 1.385 . S
C505 H507 0.950 . S
C506 C500 1.404 . S
C506 H504 0.949 . S
C506 C505 1.385 . S
H507 C505 0.950 . S
H508 C492 0.951 1_655 S
H509 C494 0.951 1_655 S
H510 C496 0.951 . S
H511 C497 0.950 . S
H512 C498 0.950 . S
H513 C499 0.950 1_655 S
H514 C501 0.950 . S
H515 C502 0.951 . S
C239 C95 1.142 . S
C229 C11 1.158 . S
C253 C25 1.215 . S
C263 C139 1.202 . S
C277 C41 1.259 . S
C287 C201 1.326 . S
C301 C7 1.193 . S
C311 C77 1.151 . S
C335 C157 1.268 . S
C325 C21 1.261 . S
C349 C36 1.262 . S
C359 C219 1.274 . S
C383 C133 1.524 . S
C373 C39 1.601 . S
C397 C8 1.615 1_655 S
C407 C195 1.582 . S
C431 C71 1.539 . S
C421 C22 1.639 1_565 S
C455 C151 1.551 . S
C445 C35 1.590 . S
C479 C213 1.593 . S
C469 C13 1.584 . S
C493 C27 1.667 . S
C503 C89 1.615 . S
