# Generated by pormake.
# Topology ptr, (4,4)-cn, num edge types: 1
# Building blocks:
#     Node 0, Type 0, BuildingBlock: QUQFOY_clean_sbu_1, # of connection points: 4
#     Node 1, Type 0, BuildingBlock: QUQFOY_clean_sbu_1, # of connection points: 4
#     Node 2, Type 0, BuildingBlock: QUQFOY_clean_sbu_1, # of connection points: 4
#     Node 3, Type 0, BuildingBlock: QUQFOY_clean_sbu_1, # of connection points: 4
#     Node 4, Type 0, BuildingBlock: QUQFOY_clean_sbu_1, # of connection points: 4
#     Node 5, Type 0, BuildingBlock: QUQFOY_clean_sbu_1, # of connection points: 4
#     Node 6, Type 0, BuildingBlock: QUQFOY_clean_sbu_1, # of connection points: 4
#     Node 7, Type 0, BuildingBlock: QUQFOY_clean_sbu_1, # of connection points: 4
#     Node 8, Type 0, BuildingBlock: QUQFOY_clean_sbu_1, # of connection points: 4
#     Node 9, Type 0, BuildingBlock: QUQFOY_clean_sbu_1, # of connection points: 4
#     Node 10, Type 0, BuildingBlock: QUQFOY_clean_sbu_1, # of connection points: 4
#     Node 11, Type 0, BuildingBlock: QUQFOY_clean_sbu_1, # of connection points: 4
#     Node 12, Type 0, BuildingBlock: QUQFOY_clean_sbu_1, # of connection points: 4
#     Node 13, Type 0, BuildingBlock: QUQFOY_clean_sbu_1, # of connection points: 4
#     Node 14, Type 0, BuildingBlock: QUQFOY_clean_sbu_1, # of connection points: 4
#     Node 15, Type 0, BuildingBlock: QUQFOY_clean_sbu_1, # of connection points: 4
#     Node 16, Type 0, BuildingBlock: QUQFOY_clean_sbu_1, # of connection points: 4
#     Node 17, Type 0, BuildingBlock: QUQFOY_clean_sbu_1, # of connection points: 4
#     Node 18, Type 1, BuildingBlock: GIZVER_clean_linker_0, # of connection points: 4
#     Node 19, Type 1, BuildingBlock: GIZVER_clean_linker_0, # of connection points: 4
#     Node 20, Type 1, BuildingBlock: GIZVER_clean_linker_0, # of connection points: 4
#     Node 21, Type 1, BuildingBlock: GIZVER_clean_linker_0, # of connection points: 4
#     Node 22, Type 1, BuildingBlock: GIZVER_clean_linker_0, # of connection points: 4
#     Node 23, Type 1, BuildingBlock: GIZVER_clean_linker_0, # of connection points: 4
#     Node 24, Type 1, BuildingBlock: GIZVER_clean_linker_0, # of connection points: 4
#     Node 25, Type 1, BuildingBlock: GIZVER_clean_linker_0, # of connection points: 4
#     Node 26, Type 1, BuildingBlock: GIZVER_clean_linker_0, # of connection points: 4
#     Node 27, Type 1, BuildingBlock: GIZVER_clean_linker_0, # of connection points: 4
#     Node 28, Type 1, BuildingBlock: GIZVER_clean_linker_0, # of connection points: 4
#     Node 29, Type 1, BuildingBlock: GIZVER_clean_linker_0, # of connection points: 4
#     Node 30, Type 1, BuildingBlock: GIZVER_clean_linker_0, # of connection points: 4
#     Node 31, Type 1, BuildingBlock: GIZVER_clean_linker_0, # of connection points: 4
#     Node 32, Type 1, BuildingBlock: GIZVER_clean_linker_0, # of connection points: 4
#     Node 33, Type 1, BuildingBlock: GIZVER_clean_linker_0, # of connection points: 4
#     Node 34, Type 1, BuildingBlock: GIZVER_clean_linker_0, # of connection points: 4
#     Node 35, Type 1, BuildingBlock: GIZVER_clean_linker_0, # of connection points: 4
#     Edge 36, Type (0, 1), BuildingBlock: XUDNAN_clean_linker_2, # of connection points: 2
#     Edge 37, Type (0, 1), BuildingBlock: XUDNAN_clean_linker_2, # of connection points: 2
#     Edge 38, Type (0, 1), BuildingBlock: XUDNAN_clean_linker_2, # of connection points: 2
#     Edge 39, Type (0, 1), BuildingBlock: XUDNAN_clean_linker_2, # of connection points: 2
#     Edge 40, Type (0, 1), BuildingBlock: XUDNAN_clean_linker_2, # of connection points: 2
#     Edge 41, Type (0, 1), BuildingBlock: XUDNAN_clean_linker_2, # of connection points: 2
#     Edge 42, Type (0, 1), BuildingBlock: XUDNAN_clean_linker_2, # of connection points: 2
#     Edge 43, Type (0, 1), BuildingBlock: XUDNAN_clean_linker_2, # of connection points: 2
#     Edge 44, Type (0, 1), BuildingBlock: XUDNAN_clean_linker_2, # of connection points: 2
#     Edge 45, Type (0, 1), BuildingBlock: XUDNAN_clean_linker_2, # of connection points: 2
#     Edge 46, Type (0, 1), BuildingBlock: XUDNAN_clean_linker_2, # of connection points: 2
#     Edge 47, Type (0, 1), BuildingBlock: XUDNAN_clean_linker_2, # of connection points: 2
#     Edge 48, Type (0, 1), BuildingBlock: XUDNAN_clean_linker_2, # of connection points: 2
#     Edge 49, Type (0, 1), BuildingBlock: XUDNAN_clean_linker_2, # of connection points: 2
#     Edge 50, Type (0, 1), BuildingBlock: XUDNAN_clean_linker_2, # of connection points: 2
#     Edge 51, Type (0, 1), BuildingBlock: XUDNAN_clean_linker_2, # of connection points: 2
#     Edge 52, Type (0, 1), BuildingBlock: XUDNAN_clean_linker_2, # of connection points: 2
#     Edge 53, Type (0, 1), BuildingBlock: XUDNAN_clean_linker_2, # of connection points: 2
#     Edge 54, Type (0, 1), BuildingBlock: XUDNAN_clean_linker_2, # of connection points: 2
#     Edge 55, Type (0, 1), BuildingBlock: XUDNAN_clean_linker_2, # of connection points: 2
#     Edge 56, Type (0, 1), BuildingBlock: XUDNAN_clean_linker_2, # of connection points: 2
#     Edge 57, Type (0, 1), BuildingBlock: XUDNAN_clean_linker_2, # of connection points: 2
#     Edge 58, Type (0, 1), BuildingBlock: XUDNAN_clean_linker_2, # of connection points: 2
#     Edge 59, Type (0, 1), BuildingBlock: XUDNAN_clean_linker_2, # of connection points: 2
#     Edge 60, Type (0, 1), BuildingBlock: XUDNAN_clean_linker_2, # of connection points: 2
#     Edge 61, Type (0, 1), BuildingBlock: XUDNAN_clean_linker_2, # of connection points: 2
#     Edge 62, Type (0, 1), BuildingBlock: XUDNAN_clean_linker_2, # of connection points: 2
#     Edge 63, Type (0, 1), BuildingBlock: XUDNAN_clean_linker_2, # of connection points: 2
#     Edge 64, Type (0, 1), BuildingBlock: XUDNAN_clean_linker_2, # of connection points: 2
#     Edge 65, Type (0, 1), BuildingBlock: XUDNAN_clean_linker_2, # of connection points: 2
#     Edge 66, Type (0, 1), BuildingBlock: XUDNAN_clean_linker_2, # of connection points: 2
#     Edge 67, Type (0, 1), BuildingBlock: XUDNAN_clean_linker_2, # of connection points: 2
#     Edge 68, Type (0, 1), BuildingBlock: XUDNAN_clean_linker_2, # of connection points: 2
#     Edge 69, Type (0, 1), BuildingBlock: XUDNAN_clean_linker_2, # of connection points: 2
#     Edge 70, Type (0, 1), BuildingBlock: XUDNAN_clean_linker_2, # of connection points: 2
#     Edge 71, Type (0, 1), BuildingBlock: XUDNAN_clean_linker_2, # of connection points: 2
#     Edge 72, Type (0, 1), BuildingBlock: XUDNAN_clean_linker_2, # of connection points: 2
#     Edge 73, Type (0, 1), BuildingBlock: XUDNAN_clean_linker_2, # of connection points: 2
#     Edge 74, Type (0, 1), BuildingBlock: XUDNAN_clean_linker_2, # of connection points: 2
#     Edge 75, Type (0, 1), BuildingBlock: XUDNAN_clean_linker_2, # of connection points: 2
#     Edge 76, Type (0, 1), BuildingBlock: XUDNAN_clean_linker_2, # of connection points: 2
#     Edge 77, Type (0, 1), BuildingBlock: XUDNAN_clean_linker_2, # of connection points: 2
#     Edge 78, Type (0, 1), BuildingBlock: XUDNAN_clean_linker_2, # of connection points: 2
#     Edge 79, Type (0, 1), BuildingBlock: XUDNAN_clean_linker_2, # of connection points: 2
#     Edge 80, Type (0, 1), BuildingBlock: XUDNAN_clean_linker_2, # of connection points: 2
#     Edge 81, Type (0, 1), BuildingBlock: XUDNAN_clean_linker_2, # of connection points: 2
#     Edge 82, Type (0, 1), BuildingBlock: XUDNAN_clean_linker_2, # of connection points: 2
#     Edge 83, Type (0, 1), BuildingBlock: XUDNAN_clean_linker_2, # of connection points: 2
#     Edge 84, Type (0, 1), BuildingBlock: XUDNAN_clean_linker_2, # of connection points: 2
#     Edge 85, Type (0, 1), BuildingBlock: XUDNAN_clean_linker_2, # of connection points: 2
#     Edge 86, Type (0, 1), BuildingBlock: XUDNAN_clean_linker_2, # of connection points: 2
#     Edge 87, Type (0, 1), BuildingBlock: XUDNAN_clean_linker_2, # of connection points: 2
#     Edge 88, Type (0, 1), BuildingBlock: XUDNAN_clean_linker_2, # of connection points: 2
#     Edge 89, Type (0, 1), BuildingBlock: XUDNAN_clean_linker_2, # of connection points: 2
#     Edge 90, Type (0, 1), BuildingBlock: XUDNAN_clean_linker_2, # of connection points: 2
#     Edge 91, Type (0, 1), BuildingBlock: XUDNAN_clean_linker_2, # of connection points: 2
#     Edge 92, Type (0, 1), BuildingBlock: XUDNAN_clean_linker_2, # of connection points: 2
#     Edge 93, Type (0, 1), BuildingBlock: XUDNAN_clean_linker_2, # of connection points: 2
#     Edge 94, Type (0, 1), BuildingBlock: XUDNAN_clean_linker_2, # of connection points: 2
#     Edge 95, Type (0, 1), BuildingBlock: XUDNAN_clean_linker_2, # of connection points: 2
#     Edge 96, Type (0, 1), BuildingBlock: XUDNAN_clean_linker_2, # of connection points: 2
#     Edge 97, Type (0, 1), BuildingBlock: XUDNAN_clean_linker_2, # of connection points: 2
#     Edge 98, Type (0, 1), BuildingBlock: XUDNAN_clean_linker_2, # of connection points: 2
#     Edge 99, Type (0, 1), BuildingBlock: XUDNAN_clean_linker_2, # of connection points: 2
#     Edge 100, Type (0, 1), BuildingBlock: XUDNAN_clean_linker_2, # of connection points: 2
#     Edge 101, Type (0, 1), BuildingBlock: XUDNAN_clean_linker_2, # of connection points: 2
#     Edge 102, Type (0, 1), BuildingBlock: XUDNAN_clean_linker_2, # of connection points: 2
#     Edge 103, Type (0, 1), BuildingBlock: XUDNAN_clean_linker_2, # of connection points: 2
#     Edge 104, Type (0, 1), BuildingBlock: XUDNAN_clean_linker_2, # of connection points: 2
#     Edge 105, Type (0, 1), BuildingBlock: XUDNAN_clean_linker_2, # of connection points: 2
#     Edge 106, Type (0, 1), BuildingBlock: XUDNAN_clean_linker_2, # of connection points: 2
#     Edge 107, Type (0, 1), BuildingBlock: XUDNAN_clean_linker_2, # of connection points: 2
# Relax obj value: 0.020
# Max RMSD: 0.064
# Mean RMSD: 0.054
data_MOF--net-ptr--node1-QUQFOY_clean_sbu_1--node2-GIZVER_clean_linker_0--edge1-XUDNAN_clean_linker_2
_symmetry_space_group_name_H-M    P1
_symmetry_Int_Tables_number       1
_symmetry_cell_setting            triclinic
loop_
_symmetry_equiv_pos_as_xyz
'x, y, z'
_cell_length_a     81.360427
_cell_length_b     81.214189
_cell_length_c     50.114158
_cell_angle_alpha  90.370546
_cell_angle_beta   90.166253
_cell_angle_gamma 119.98857
loop_
_atom_site_label
_atom_site_type_symbol
_atom_site_fract_x
_atom_site_fract_y
_atom_site_fract_z
_atom_type_partial_charge
O0 O 0.0327 0.41118 0.05128 0.0
Cd1 Cd 0.04055 0.40086 0.01885 0.0
Cd2 Cd 1.00069 0.38175 0.00998 0.0
O3 O 1.00165 0.39642 0.04452 0.0
O4 O 0.06814 0.40975 0.0245 0.0
O5 O 0.04624 0.37937 0.02301 0.0
C6 C 0.06389 0.39223 0.02563 0.0
C7 C 0.97797 0.34927 0.00617 0.0
C8 C 0.01627 0.40793 0.05802 0.0
C9 C 0.02608 0.40949 0.96815 0.0
O10 O 1.0093 0.39755 0.97533 0.0
O11 O 0.04025 0.41242 0.98242 0.0
O12 O 0.97343 0.36224 0.00309 0.0
O13 O 0.99548 0.35469 0.01171 0.0
O14 O 0.60907 0.62485 0.03378 0.0
Cd15 Cd 0.624 0.64024 0.00093 0.0
Cd16 Cd 0.64583 0.625 0.0136 0.0
O17 O 0.63101 0.61889 0.04909 0.0
O18 O 0.61791 0.661 0.99563 0.0
O19 O 0.64647 0.66637 0.00721 0.0
C20 C 0.63523 0.67296 0.00229 0.0
C21 C 0.67824 0.63418 0.01345 0.0
C22 C 0.61509 0.61814 0.05172 0.0
C23 C 0.62107 0.61068 0.96374 0.0
O24 O 0.6308 0.60807 0.98135 0.0
O25 O 0.61815 0.62463 0.96592 0.0
O26 O 0.66531 0.61732 0.02001 0.0
O27 O 0.6729 0.64632 0.00796 0.0
O28 O 0.41911 0.02865 0.98451 0.0
Cd29 Cd 0.40356 0.03102 0.01533 0.0
Cd30 Cd 0.3876 0.99215 0.0147 0.0
O31 O 0.40236 0.99749 0.97906 0.0
O32 O 0.40688 0.0571 0.01238 0.0
O33 O 0.37907 0.03085 0.00793 0.0
C34 C 0.3889 0.04921 0.00775 0.0
C35 C 0.35607 0.96697 0.01692 0.0
C36 C 0.41574 0.01366 0.97185 0.0
C37 C 0.41179 0.014 0.06255 0.0
O38 O 0.40347 0.9983 0.04972 0.0
O39 O 0.41212 0.02869 0.0532 0.0
O40 O 0.37015 0.96399 0.01479 0.0
O41 O 0.35977 0.9844 0.01729 0.0
O42 O 1.0032 0.61104 0.96745 0.0
Cd43 Cd 0.9953 0.62148 -0.0001 0.0
Cd44 Cd 0.03437 0.64182 0.00788 0.0
O45 O 0.03426 0.62764 0.97357 0.0
O46 O 0.9675 0.61131 0.99505 0.0
O47 O 0.9883 0.64204 0.99504 0.0
C48 C 0.97086 0.62853 0.99328 0.0
C49 C 0.05439 0.67481 0.0114 0.0
C50 C 0.01989 0.6153 0.96048 0.0
C51 C 1.01116 0.61436 0.05061 0.0
O52 O 0.02768 0.62621 0.04246 0.0
O53 O 0.99659 0.6111 0.03706 0.0
O54 O 0.0609 0.66327 0.01312 0.0
O55 O 0.03638 0.66759 0.00723 0.0
O56 O 0.41688 0.39157 0.99065 0.0
Cd57 Cd 0.40257 0.37707 0.02425 0.0
Cd58 Cd 0.38308 0.39521 0.01249 0.0
O59 O 0.39861 0.40292 0.97731 0.0
O60 O 0.40705 0.355 0.02701 0.0
O61 O 0.37865 0.35174 0.02063 0.0
C62 C 0.3891 0.34397 0.02286 0.0
C63 C 0.35007 0.38229 0.01366 0.0
C64 C 0.41296 0.40081 0.97386 0.0
C65 C 0.40762 0.40681 0.06305 0.0
O66 O 0.39759 0.40995 0.04657 0.0
O67 O 0.4106 0.39302 0.05916 0.0
O68 O 0.36135 0.40019 0.0098 0.0
O69 O 0.35747 0.37149 0.01562 0.0
O70 O 0.61179 0.99089 0.0429 0.0
Cd71 Cd 0.62794 0.99084 0.01111 0.0
Cd72 Cd 0.64478 0.02862 0.02327 0.0
O73 O 0.62923 0.02029 0.05814 0.0
O74 O 0.61986 0.96333 0.006 0.0
O75 O 0.64899 0.98497 0.01782 0.0
C76 C 0.63676 0.96737 0.01278 0.0
C77 C 0.67742 0.04998 0.02135 0.0
C78 C 0.61485 1.0037 0.06017 0.0
C79 C 0.62198 0.0145 0.97213 0.0
O80 O 0.62932 0.02746 0.98991 0.0
O81 O 0.62202 0.99898 0.97498 0.0
O82 O 0.6655 0.05582 0.02527 0.0
O83 O 0.67091 0.03186 0.0198 0.0
O84 O 0.70343 0.74786 0.36644 0.0
Cd85 Cd 0.7026 0.73154 0.33412 0.0
Cd86 Cd 0.66535 0.71382 0.34598 0.0
O87 O 0.67449 0.72913 0.38133 0.0
O88 O 0.72957 0.73799 0.32914 0.0
O89 O 0.70684 0.70948 0.3411 0.0
C90 C 0.7246 0.72093 0.33639 0.0
C91 C 0.6439 0.68101 0.34468 0.0
C92 C 0.69075 0.7439 0.38398 0.0
C93 C 0.67794 0.73701 0.2958 0.0
O94 O 0.66517 0.72926 0.31346 0.0
O95 O 0.69369 0.73738 0.29844 0.0
O96 O 0.63855 0.69298 0.35127 0.0
O97 O 0.66168 0.68762 0.33963 0.0
O98 O 0.27226 0.96065 0.37215 0.0
Cd99 Cd 0.28767 0.97647 0.33984 0.0
Cd100 Cd 0.30937 0.96055 0.35452 0.0
O101 O 0.29396 0.95503 0.38943 0.0
O102 O 0.27999 0.99608 0.33417 0.0
O103 O 0.30893 1.00323 0.34666 0.0
C104 C 0.2969 1.00881 0.34144 0.0
C105 C 0.34119 0.96742 0.35539 0.0
C106 C 0.27791 0.95414 0.39087 0.0
C107 C 0.2856 0.94699 0.30342 0.0
O108 O 0.29443 0.944 0.322 0.0
O109 O 0.28315 0.96127 0.30464 0.0
O110 O 0.32734 0.95102 0.36187 0.0
O111 O 0.33716 0.98047 0.34958 0.0
O112 O 0.0785 0.35552 0.31095 0.0
Cd113 Cd 0.07005 0.36555 0.34328 0.0
Cd114 Cd 0.04807 0.32607 0.35254 0.0
O115 O 0.0607 0.32462 0.31763 0.0
O116 O 0.08262 0.39361 0.33744 0.0
O117 O 0.05152 0.37528 0.33862 0.0
C118 C 0.0661 0.39206 0.33608 0.0
C119 C 0.0151 0.30702 0.3578 0.0
C120 C 0.07319 0.33843 0.30419 0.0
C121 C 0.07752 0.34978 0.39386 0.0
O122 O 0.06497 0.3332 0.38629 0.0
O123 O 0.08087 0.36425 0.38016 0.0
O124 O 0.02617 0.29994 0.35879 0.0
O125 O 0.02275 0.32504 0.35342 0.0
O126 O 0.67008 0.94502 0.30755 0.0
Cd127 Cd 0.66341 0.95479 0.34201 0.0
Cd128 Cd 0.70118 0.98086 0.3406 0.0
O129 O 0.70001 0.96786 0.30467 0.0
O130 O 0.63522 0.9435 0.34211 0.0
O131 O 0.65507 0.97439 0.33889 0.0
C132 C 0.63779 0.96042 0.3396 0.0
C133 C 0.71808 0.0141 0.34533 0.0
C134 C 0.68597 0.95265 0.29559 0.0
C135 C 0.6874 0.95288 0.38595 0.0
O136 O 0.70135 0.96595 0.37348 0.0
O137 O 0.6705 0.947 0.37791 0.0
O138 O 0.72661 1.00449 0.34192 0.0
O139 O 0.69974 1.00487 0.3451 0.0
O140 O 0.08143 0.73712 0.30605 0.0
Cd141 Cd 0.07172 0.72095 0.34052 0.0
Cd142 Cd 0.0501 0.73823 0.34223 0.0
O143 O 0.06179 0.74847 0.30541 0.0
O144 O 0.07765 0.69985 0.33677 0.0
O145 O 0.0484 0.69491 0.33923 0.0
C146 C 0.05962 0.68803 0.33661 0.0
C147 C 0.01739 0.72547 0.34844 0.0
C148 C 0.07527 0.74707 0.29495 0.0
C149 C 0.07995 0.74824 0.38542 0.0
O150 O 0.06799 0.75171 0.37422 0.0
O151 O 0.08287 0.73524 0.37643 0.0
O152 O 0.02878 0.74357 0.3474 0.0
O153 O 0.0245 0.71446 0.34564 0.0
O154 O 0.28436 0.33968 0.38449 0.0
Cd155 Cd 0.29419 0.33321 0.35018 0.0
Cd156 Cd 0.31916 0.37174 0.35168 0.0
O157 O 0.30576 0.37019 0.38734 0.0
O158 O 0.28718 0.30588 0.35277 0.0
O159 O 0.3169 0.32955 0.35166 0.0
C160 C 0.30509 0.31152 0.35352 0.0
C161 C 0.3522 0.39161 0.34856 0.0
C162 C 0.29121 0.35564 0.39648 0.0
C163 C 0.29082 0.35504 0.30527 0.0
O164 O 0.30403 0.36942 0.31735 0.0
O165 O 0.28482 0.33841 0.31435 0.0
O166 O 0.3409 0.3984 0.34955 0.0
O167 O 0.34482 0.3734 0.35014 0.0
O168 O 0.37317 0.08191 0.70465 0.0
Cd169 Cd 0.37474 0.06689 0.67249 0.0
Cd170 Cd 0.33616 0.05222 0.67406 0.0
O171 O 0.34207 0.06815 0.70914 0.0
O172 O 0.40181 0.07305 0.6725 0.0
O173 O 0.3779 0.04398 0.67854 0.0
C174 C 0.39598 0.0554 0.67701 0.0
C175 C 0.31428 0.0195 0.67267 0.0
C176 C 0.35877 0.0803 0.71687 0.0
C177 C 0.3572 0.07629 0.62665 0.0
O178 O 0.34145 0.06733 0.63878 0.0
O179 O 0.37195 0.07673 0.63601 0.0
O180 O 0.30877 0.0319 0.67276 0.0
O181 O 0.33231 0.02567 0.67406 0.0
O182 O 0.94948 0.28556 0.72177 0.0
Cd183 Cd 0.95945 0.30133 0.68712 0.0
Cd184 Cd 0.98397 0.28727 0.68903 0.0
O185 O 0.97062 0.27612 0.72471 0.0
O186 O 0.9499 0.31975 0.68677 0.0
O187 O 0.98037 0.32868 0.6897 0.0
C188 C 0.96728 0.33328 0.68897 0.0
C189 C 0.01707 0.30187 0.68525 0.0
C190 C 0.95618 0.2764 0.73378 0.0
C191 C 0.95587 0.27462 0.6432 0.0
O192 O 0.96855 0.27293 0.65568 0.0
O193 O 0.95078 0.28625 0.65137 0.0
O194 O 1.00659 0.28372 0.68767 0.0
O195 O 1.0088 0.31193 0.68587 0.0
O196 O 0.73803 0.68266 0.6365 0.0
Cd197 Cd 0.72778 0.69022 0.66949 0.0
Cd198 Cd 0.7095 0.6518 0.67794 0.0
O199 O 0.72273 0.65164 0.6429 0.0
O200 O 0.73318 0.71678 0.66319 0.0
O201 O 0.70413 0.69235 0.66699 0.0
C202 C 0.71514 0.71036 0.66333 0.0
C203 C 0.67668 0.63167 0.68285 0.0
C204 C 0.73428 0.66604 0.62947 0.0
C205 C 0.73793 0.67679 0.7196 0.0
O206 O 0.72637 0.65991 0.71184 0.0
O207 O 0.74009 0.69091 0.70602 0.0
O208 O 0.68831 0.62524 0.68397 0.0
O209 O 0.68369 0.64962 0.67854 0.0
O210 O 0.31662 0.26433 0.654 0.0
Cd211 Cd 0.31595 0.27893 0.68742 0.0
Cd212 Cd 0.35446 0.29285 0.68545 0.0
O213 O 0.34765 0.27815 0.64929 0.0
O214 O 0.29022 0.2764 0.68613 0.0
O215 O 0.3168 0.30407 0.68395 0.0
C216 C 0.29846 0.29459 0.68357 0.0
C217 C 0.37983 0.32431 0.68788 0.0
C218 C 0.33095 0.26639 0.64114 0.0
C219 C 0.33306 0.26837 0.73252 0.0
O220 O 0.34864 0.2768 0.71986 0.0
O221 O 0.31845 0.2685 0.7237 0.0
O222 O 0.38259 0.3101 0.68494 0.0
O223 O 0.3625 0.32077 0.68904 0.0
O224 O 0.74714 0.05664 0.65362 0.0
Cd225 Cd 0.73198 0.04129 0.68615 0.0
Cd226 Cd 0.71925 0.06652 0.68427 0.0
O227 O 0.73459 0.07506 0.64889 0.0
O228 O 0.73442 0.01796 0.68496 0.0
O229 O 0.70694 0.017 0.68089 0.0
C230 C 0.71636 1.00807 0.68097 0.0
C231 C 0.68694 0.05704 0.68554 0.0
C232 C 0.74598 0.06958 0.6411 0.0
C233 C 0.74316 0.06903 0.7319 0.0
O234 O 0.73476 0.07643 0.7196 0.0
O235 O 0.74283 0.05425 0.72259 0.0
O236 O 0.69977 0.07471 0.68336 0.0
O237 O 0.69243 0.04461 0.68642 0.0
O238 O 0.95111 0.6598 0.70494 0.0
Cd239 Cd 0.96479 0.656 0.67305 0.0
Cd240 Cd 0.9797 0.69477 0.67166 0.0
O241 O 0.96429 0.69109 0.70638 0.0
O242 O 0.95888 0.62912 0.67787 0.0
O243 O 0.98818 0.65335 0.67636 0.0
C244 C 0.97685 0.63531 0.67901 0.0
C245 C 1.01227 0.7168 0.6693 0.0
C246 C 0.95256 0.67476 0.71543 0.0
C247 C 0.95401 0.67101 0.6259 0.0
O248 O 0.96391 0.68743 0.63646 0.0
O249 O 0.95321 0.65651 0.63672 0.0
O250 O 0.99976 0.72212 0.66792 0.0
O251 O 1.00631 0.69892 0.67268 0.0
H252 H 0.16142 0.32493 0.15494 0.0
H253 H 0.16333 0.34424 0.07433 0.0
H254 H 0.12903 0.35137 0.13306 0.0
H255 H 0.1712 0.31184 0.11709 0.0
H256 H 0.17313 0.32094 0.08427 0.0
H257 H 0.19517 0.33888 0.15329 0.0
H258 H 0.25184 0.3641 0.12315 0.0
H259 H 0.20455 0.3367 0.06891 0.0
C260 C 0.15755 0.33216 0.14027 0.0
C261 C 0.14506 0.33867 0.1474 0.0
C262 C 0.16461 0.33446 0.11403 0.0
C263 C 0.15864 0.34305 0.0948 0.0
C264 C 0.14553 0.34886 0.1016 0.0
C265 C 0.13922 0.34697 0.12794 0.0
C266 C 0.17604 0.32517 0.10568 0.0
C267 C 0.19727 0.33756 0.1103 0.0
C268 C 0.20465 0.34283 0.13643 0.0
C269 C 0.22433 0.35268 0.14095 0.0
C270 C 0.23668 0.35717 0.11937 0.0
C271 C 0.22973 0.35131 0.09339 0.0
C272 C 0.20999 0.3416 0.0889 0.0
H273 H 0.68822 0.83237 0.14305 0.0
H274 H 0.6805 0.81855 0.05887 0.0
H275 H 0.66779 0.77508 0.11681 0.0
H276 H 0.70913 0.85576 0.10298 0.0
H277 H 0.69746 0.85096 0.07162 0.0
H278 H 0.69491 0.86281 0.14369 0.0
H279 H 0.6677 0.89474 0.12415 0.0
H280 H 0.67587 0.86224 0.06306 0.0
C281 C 0.68347 0.82209 0.12691 0.0
C282 C 0.67746 0.80305 0.13284 0.0
C283 C 0.68459 0.82796 0.1002 0.0
C284 C 0.6792 0.81423 0.07953 0.0
C285 C 0.67345 0.79518 0.0854 0.0
C286 C 0.67248 0.78979 0.11208 0.0
C287 C 0.69483 0.849 0.09346 0.0
C288 C 0.68508 0.85982 0.10275 0.0
C289 C 0.68724 0.8664 0.12939 0.0
C290 C 0.68051 0.87858 0.13734 0.0
C291 C 0.67211 0.88464 0.11834 0.0
C292 C 0.67077 0.87921 0.09149 0.0
C293 C 0.67659 0.86621 0.08391 0.0
H294 H 0.17676 0.81932 0.15056 0.0
H295 H 0.17266 0.80403 0.06724 0.0
H296 H 0.12239 0.78929 0.11216 0.0
H297 H 0.20195 0.81407 0.12385 0.0
H298 H 0.20241 0.81662 0.0887 0.0
H299 H 0.20756 0.84182 0.15396 0.0
H300 H 0.25138 0.89486 0.12387 0.0
H301 H 0.21992 0.84768 0.07004 0.0
C302 C 0.16851 0.81381 0.13242 0.0
C303 C 0.14866 0.8052 0.13372 0.0
C304 C 0.1775 0.81429 0.10815 0.0
C305 C 0.16613 0.80507 0.08551 0.0
C306 C 0.14623 0.7961 0.08685 0.0
C307 C 0.13775 0.79686 0.11074 0.0
C308 C 0.19864 0.82123 0.10756 0.0
C309 C 0.21136 0.84257 0.1113 0.0
C310 C 0.21496 0.85062 0.13708 0.0
C311 C 0.22905 0.86964 0.14159 0.0
C312 C 0.23962 0.88068 0.11997 0.0
C313 C 0.23669 0.87295 0.09405 0.0
C314 C 0.22214 0.85396 0.0898 0.0
H315 H 0.36294 0.198 0.87959 0.0
H316 H 0.37655 0.21477 0.96225 0.0
H317 H 0.34204 0.23121 0.91754 0.0
H318 H 0.39473 0.20348 0.90806 0.0
H319 H 0.38992 0.19782 0.9423 0.0
H320 H 0.37604 0.17945 0.87251 0.0
H321 H 0.35523 0.12157 0.89554 0.0
H322 H 0.37142 0.16492 0.95573 0.0
C323 C 0.36125 0.20442 0.89755 0.0
C324 C 0.35086 0.21394 0.8962 0.0
C325 C 0.37001 0.2039 0.92163 0.0
C326 C 0.36893 0.21396 0.94406 0.0
C327 C 0.35871 0.22371 0.94274 0.0
C328 C 0.34933 0.22313 0.91898 0.0
C329 C 0.383 0.19547 0.92237 0.0
C330 C 0.37344 0.17448 0.91498 0.0
C331 C 0.37141 0.16882 0.88796 0.0
C332 C 0.36452 0.1497 0.88073 0.0
C333 C 0.35956 0.13616 0.90087 0.0
C334 C 0.36218 0.14153 0.92786 0.0
C335 C 0.36891 0.16067 0.93489 0.0
H336 H 0.86529 0.18369 0.88664 0.0
H337 H 0.86674 0.20314 0.96726 0.0
H338 H 0.89823 0.243 0.9057 0.0
H339 H 0.85911 0.16282 0.92837 0.0
H340 H 0.85354 0.17005 0.9589 0.0
H341 H 0.8369 0.15741 0.88701 0.0
H342 H 0.77857 0.12429 0.90964 0.0
H343 H 0.82103 0.15611 0.96922 0.0
C344 C 0.86922 0.19514 0.90087 0.0
C345 C 0.88154 0.21391 0.89279 0.0
C346 C 0.86307 0.19106 0.92752 0.0
C347 C 0.87021 0.20615 0.94635 0.0
C348 C 0.88284 0.22497 0.93852 0.0
C349 C 0.88783 0.22869 0.91159 0.0
C350 C 0.85222 0.17054 0.93686 0.0
C351 C 0.83137 0.15961 0.92869 0.0
C352 C 0.82611 0.15344 0.90207 0.0
C353 C 0.80705 0.14095 0.89499 0.0
C354 C 0.79311 0.13473 0.91476 0.0
C355 C 0.79804 0.1399 0.94159 0.0
C356 C 0.81714 0.15256 0.9484 0.0
H357 H 0.84784 0.65874 0.85885 0.0
H358 H 0.85412 0.64982 0.94175 0.0
H359 H 0.90115 0.66757 0.8883 0.0
H360 H 0.82106 0.63342 0.88707 0.0
H361 H 0.82344 0.63452 0.92223 0.0
H362 H 0.82123 0.66175 0.86263 0.0
H363 H 0.78321 0.67541 0.90236 0.0
H364 H 0.81068 0.65032 0.94642 0.0
C365 C 0.85681 0.65988 0.87556 0.0
C366 C 0.87586 0.66511 0.87093 0.0
C367 C 0.84882 0.65436 0.90107 0.0
C368 C 0.86038 0.65469 0.92229 0.0
C369 C 0.87937 0.65943 0.91797 0.0
C370 C 0.88702 0.66509 0.89233 0.0
C371 C 0.82739 0.64356 0.90413 0.0
C372 C 0.81801 0.65568 0.90488 0.0
C373 C 0.81508 0.66301 0.8811 0.0
C374 C 0.80312 0.67082 0.88066 0.0
C375 C 0.79359 0.67081 0.90387 0.0
C376 C 0.79576 0.6631 0.92779 0.0
C377 C 0.80872 0.65632 0.92828 0.0
H378 H 0.82511 0.6609 0.47771 0.0
H379 H 0.82569 0.67922 0.39698 0.0
H380 H 0.79104 0.68551 0.45606 0.0
H381 H 0.83291 0.64663 0.43693 0.0
H382 H 0.83826 0.65886 0.40612 0.0
H383 H 0.85453 0.66351 0.47786 0.0
H384 H 0.91322 0.69193 0.45586 0.0
H385 H 0.87061 0.67999 0.39628 0.0
C386 C 0.82094 0.66789 0.46309 0.0
C387 C 0.80792 0.67372 0.4703 0.0
C388 C 0.82789 0.67025 0.4368 0.0
C389 C 0.82124 0.67822 0.41756 0.0
C390 C 0.80765 0.6834 0.42433 0.0
C391 C 0.80157 0.68159 0.45084 0.0
C392 C 0.83937 0.66107 0.42814 0.0
C393 C 0.86013 0.67191 0.43653 0.0
C394 C 0.86538 0.67098 0.46307 0.0
C395 C 0.88455 0.67842 0.47025 0.0
C396 C 0.89854 0.68715 0.45074 0.0
C397 C 0.89367 0.68762 0.42403 0.0
C398 C 0.87445 0.6802 0.41706 0.0
H399 H 0.3586 0.17161 0.4775 0.0
H400 H 0.33673 0.15305 0.39776 0.0
H401 H 0.33245 0.11261 0.45618 0.0
H402 H 0.36995 0.19377 0.43831 0.0
H403 H 0.35798 0.18624 0.40698 0.0
H404 H 0.344 0.18943 0.47911 0.0
H405 H 0.32211 0.22572 0.4577 0.0
H406 H 0.34424 0.20483 0.39673 0.0
C407 C 0.35075 0.16029 0.46315 0.0
C408 C 0.34496 0.14147 0.47023 0.0
C409 C 0.34715 0.16462 0.43731 0.0
C410 C 0.33849 0.1498 0.41815 0.0
C411 C 0.33364 0.13108 0.42473 0.0
C412 C 0.33624 0.12703 0.45103 0.0
C413 C 0.35569 0.18526 0.42892 0.0
C414 C 0.3442 0.19466 0.43666 0.0
C415 C 0.34016 0.19612 0.46366 0.0
C416 C 0.332 0.20712 0.47105 0.0
C417 C 0.32779 0.21672 0.45158 0.0
C418 C 0.33217 0.21604 0.42473 0.0
C419 C 0.34034 0.20495 0.41736 0.0
H420 H 0.84519 0.15005 0.48839 0.0
H421 H 0.83119 0.14534 0.40476 0.0
H422 H 0.78724 0.11752 0.46281 0.0
H423 H 0.8683 0.15353 0.4501 0.0
H424 H 0.86337 0.1584 0.41748 0.0
H425 H 0.87138 0.17737 0.48853 0.0
H426 H 0.90851 0.23464 0.46397 0.0
H427 H 0.88015 0.19071 0.40491 0.0
C428 C 0.83476 0.1458 0.4726 0.0
C429 C 0.81547 0.13424 0.47893 0.0
C430 C 0.84066 0.15067 0.44596 0.0
C431 C 0.82685 0.14299 0.42547 0.0
C432 C 0.80755 0.13111 0.43151 0.0
C433 C 0.80198 0.12741 0.45826 0.0
C434 C 0.86165 0.16056 0.43901 0.0
C435 C 0.8728 0.18167 0.4459 0.0
C436 C 0.87697 0.18767 0.47273 0.0
C437 C 0.88963 0.20677 0.47943 0.0
C438 C 0.89796 0.22007 0.45901 0.0
C439 C 0.89473 0.21437 0.43218 0.0
C440 C 0.88204 0.19521 0.42564 0.0
H441 H 0.0366 0.54167 0.19827 0.0
H442 H 0.04878 0.55748 0.28134 0.0
H443 H 0.01464 0.57406 0.23587 0.0
H444 H 0.06539 0.54395 0.2238 0.0
H445 H 0.06512 0.54388 0.25923 0.0
H446 H 0.03771 0.51464 0.19848 0.0
H447 H 0.02864 0.46289 0.23304 0.0
H448 H 0.05393 0.5143 0.28039 0.0
C449 C 0.03429 0.54758 0.21631 0.0
C450 C 0.02383 0.55701 0.21476 0.0
C451 C 0.04263 0.54678 0.24061 0.0
C452 C 0.04128 0.55669 0.26304 0.0
C453 C 0.03111 0.5665 0.26142 0.0
C454 C 0.0219 0.56595 0.2375 0.0
C455 C 0.05577 0.53853 0.24128 0.0
C456 C 0.04574 0.5169 0.24022 0.0
C457 C 0.03777 0.50704 0.21608 0.0
C458 C 0.03115 0.48749 0.21393 0.0
C459 C 0.03269 0.47771 0.23573 0.0
C460 C 0.04104 0.48717 0.2598 0.0
C461 C 0.04715 0.50674 0.26208 0.0
H462 H 0.53578 0.5216 0.20593 0.0
H463 H 0.54335 0.53454 0.29034 0.0
H464 H 0.57281 0.57871 0.23287 0.0
H465 H 0.53143 0.49699 0.24174 0.0
H466 H 0.52924 0.50199 0.27571 0.0
H467 H 0.50647 0.49538 0.20733 0.0
H468 H 0.45026 0.46679 0.23908 0.0
H469 H 0.4982 0.49043 0.29259 0.0
C470 C 0.5416 0.53177 0.22221 0.0
C471 C 0.55436 0.55089 0.21647 0.0
C472 C 0.53737 0.52562 0.24885 0.0
C473 C 0.54605 0.5391 0.26976 0.0
C474 C 0.55918 0.55823 0.26406 0.0
C475 C 0.56301 0.56392 0.23741 0.0
C476 C 0.52626 0.5045 0.2549 0.0
C477 C 0.50498 0.4954 0.25054 0.0
C478 C 0.49726 0.4914 0.22447 0.0
C479 C 0.47754 0.48145 0.22044 0.0
C480 C 0.46547 0.47523 0.24242 0.0
C481 C 0.47274 0.47813 0.26847 0.0
C482 C 0.49252 0.48846 0.27249 0.0
H483 H 0.5095 0.98199 0.2059 0.0
H484 H 0.51664 0.97556 0.28951 0.0
H485 H 0.56333 0.99258 0.23563 0.0
H486 H 0.48278 0.95826 0.23542 0.0
H487 H 0.48563 0.96018 0.27056 0.0
H488 H 0.48553 0.98848 0.21028 0.0
H489 H 0.44726 1.00285 0.2477 0.0
H490 H 0.4712 0.97487 0.29296 0.0
C491 C 0.51863 0.98375 0.22271 0.0
C492 C 0.5377 0.98913 0.21808 0.0
C493 C 0.51089 0.97907 0.24849 0.0
C494 C 0.52269 0.97996 0.26984 0.0
C495 C 0.54174 0.98488 0.26548 0.0
C496 C 0.54912 0.9899 0.23962 0.0
C497 C 0.48947 0.96875 0.25201 0.0
C498 C 0.48042 0.98123 0.25212 0.0
C499 C 0.47873 0.98939 0.22829 0.0
C500 C 0.46734 0.99785 0.22717 0.0
C501 C 0.45711 0.99762 0.24972 0.0
C502 C 0.45801 0.98911 0.2736 0.0
C503 C 0.47031 0.98155 0.27481 0.0
H504 H 0.49808 0.99778 0.81831 0.0
H505 H 0.49355 1.00833 0.735 0.0
H506 H 0.4621 0.01948 0.79418 0.0
H507 H 0.50286 0.9792 0.77869 0.0
H508 H 0.50713 0.98935 0.74643 0.0
H509 H 0.5262 0.9999 0.81749 0.0
H510 H 0.58354 0.02299 0.7916 0.0
H511 H 0.53937 1.0087 0.73349 0.0
C512 C 0.49294 1.00315 0.80264 0.0
C513 C 0.48006 1.00925 0.80923 0.0
C514 C 0.49812 1.00288 0.77583 0.0
C515 C 0.49016 1.00895 0.75575 0.0
C516 C 0.47681 0.01453 0.76219 0.0
C517 C 0.47205 0.01478 0.78897 0.0
C518 C 0.50913 0.993 0.76808 0.0
C519 C 0.5302 1.00393 0.77478 0.0
C520 C 0.53635 1.00526 0.80145 0.0
C521 C 0.55554 0.01218 0.80747 0.0
C522 C 0.56871 0.01774 0.78684 0.0
C523 C 0.56306 0.01661 0.76018 0.0
C524 C 0.54383 0.01006 0.75417 0.0
H525 H 0.03485 0.50174 0.80907 0.0
H526 H 1.01227 0.48121 0.73009 0.0
H527 H 1.00693 0.44208 0.79121 0.0
H528 H 0.04731 0.52231 0.76736 0.0
H529 H 0.03411 0.51439 0.73705 0.0
H530 H 0.02867 0.52562 0.80923 0.0
H531 H 1.00419 0.55951 0.78639 0.0
H532 H 0.01665 0.52946 0.72643 0.0
C533 C 0.02672 0.49012 0.7953 0.0
C534 C 0.02027 0.4714 0.80368 0.0
C535 C 0.02338 0.49387 0.76897 0.0
C536 C 1.01407 0.47852 0.75075 0.0
C537 C 1.00851 0.45989 0.75867 0.0
C538 C 1.01117 0.45647 0.78523 0.0
C539 C 0.03263 0.51423 0.75913 0.0
C540 C 0.02242 0.52488 0.76712 0.0
C541 C 0.02246 0.53019 0.79397 0.0
C542 C 0.01566 0.54247 0.80113 0.0
C543 C 1.0085 0.54923 0.7812 0.0
C544 C 1.00891 0.54474 0.75427 0.0
C545 C 0.01574 0.53243 0.74732 0.0
H546 H 0.51019 0.47786 0.81775 0.0
H547 H 0.5007 0.46166 0.73484 0.0
H548 H 0.45608 0.43277 0.7919 0.0
H549 H 0.536 0.47789 0.78314 0.0
H550 H 0.53202 0.48104 0.74935 0.0
H551 H 0.53883 0.50243 0.81834 0.0
H552 H 0.57166 0.55918 0.78896 0.0
H553 H 0.54446 0.5125 0.73372 0.0
C554 C 0.50077 0.4698 0.80157 0.0
C555 C 0.48201 0.45589 0.80757 0.0
C556 C 0.50772 0.47222 0.77534 0.0
C557 C 0.49533 0.46047 0.75491 0.0
C558 C 0.47657 0.44616 0.76059 0.0
C559 C 0.47002 0.44439 0.78691 0.0
C560 C 0.52899 0.48364 0.77011 0.0
C561 C 0.53861 0.50495 0.77543 0.0
C562 C 0.54318 0.51212 0.80177 0.0
C563 C 0.55476 0.53172 0.80688 0.0
C564 C 0.56177 0.54421 0.78531 0.0
C565 C 0.55831 0.53739 0.759 0.0
C566 C 0.5465 0.51781 0.75407 0.0
H567 H 0.70713 0.87156 0.53696 0.0
H568 H 0.69975 0.87714 0.62091 0.0
H569 H 0.68249 0.9046 0.56346 0.0
H570 H 0.72768 0.86854 0.57466 0.0
H571 H 0.71836 0.86363 0.60747 0.0
H572 H 0.70742 0.84474 0.53644 0.0
H573 H 0.68614 0.78726 0.56135 0.0
H574 H 0.70174 0.83127 0.62015 0.0
C575 C 0.70138 0.87604 0.55298 0.0
C576 C 0.69364 0.88768 0.54695 0.0
C577 C 0.70299 0.87142 0.57956 0.0
C578 C 0.69733 0.87933 0.60029 0.0
C579 C 0.68978 0.89118 0.59451 0.0
C580 C 0.68741 0.8947 0.56784 0.0
C581 C 0.71418 0.86151 0.58602 0.0
C582 C 0.70413 0.84041 0.57906 0.0
C583 C 0.70247 0.8344 0.55222 0.0
C584 C 0.6957 0.81521 0.5456 0.0
C585 C 0.69038 0.80191 0.56612 0.0
C586 C 0.69263 0.8076 0.59291 0.0
C587 C 0.69934 0.82681 0.59939 0.0
H588 H 0.19672 0.86015 0.54466 0.0
H589 H 0.2062 0.87238 0.62911 0.0
H590 H 0.23133 0.91742 0.57194 0.0
H591 H 0.1969 0.83652 0.58255 0.0
H592 H 0.19087 0.84022 0.61511 0.0
H593 H 0.17363 0.83074 0.54335 0.0
H594 H 0.11582 0.79464 0.5659 0.0
H595 H 0.15806 0.82521 0.62645 0.0
C596 C 0.20202 0.87011 0.56115 0.0
C597 C 0.2137 0.88947 0.55553 0.0
C598 C 0.19873 0.86363 0.58774 0.0
C599 C 0.20766 0.87711 0.60864 0.0
C600 C 0.21927 0.89659 0.60306 0.0
C601 C 0.22191 0.90254 0.57649 0.0
C602 C 0.18915 0.84243 0.59362 0.0
C603 C 0.16827 0.83072 0.58571 0.0
C604 C 0.16299 0.82569 0.55875 0.0
C605 C 0.14409 0.81285 0.5516 0.0
C606 C 0.13034 0.80488 0.57148 0.0
C607 C 0.13519 0.80921 0.59847 0.0
C608 C 0.15417 0.82223 0.60554 0.0
H609 H 0.1872 0.32903 0.53656 0.0
H610 H 0.18804 0.31519 0.61934 0.0
H611 H 0.24025 0.34841 0.57716 0.0
H612 H 0.15905 0.30066 0.55997 0.0
H613 H 0.15853 0.3002 0.59549 0.0
H614 H 0.1574 0.32692 0.53516 0.0
H615 H 0.12547 0.34859 0.57484 0.0
H616 H 0.14575 0.31712 0.61928 0.0
C617 C 0.19493 0.3305 0.55486 0.0
C618 C 0.21485 0.3404 0.55454 0.0
C619 C 0.18504 0.32192 0.57847 0.0
C620 C 0.19544 0.32265 0.60149 0.0
C621 C 0.2154 0.33231 0.60116 0.0
C622 C 0.2249 0.34156 0.57785 0.0
C623 C 0.16356 0.30991 0.57809 0.0
C624 C 0.15386 0.32172 0.57767 0.0
C625 C 0.15182 0.32929 0.55346 0.0
C626 C 0.1419 0.33929 0.55258 0.0
C627 C 0.1339 0.34165 0.57592 0.0
C628 C 0.13493 0.33347 0.59995 0.0
C629 C 0.14515 0.32371 0.60085 0.0
H630 H 0.04476 0.43516 0.08932 0.0
H631 H 0.98357 0.40505 0.0784 0.0
H632 H 0.98079 0.42397 0.11511 0.0
H633 H 0.04473 0.43795 0.16046 0.0
H634 H 0.06545 0.46132 0.16205 0.0
H635 H 0.06239 0.44557 0.13466 0.0
H636 H 0.06576 0.47137 0.10135 0.0
H637 H 0.06856 0.4871 0.1287 0.0
H638 H 0.05019 0.4811 0.10408 0.0
H639 H 0.98475 0.4458 0.15417 0.0
H640 H 0.99521 0.46753 0.19353 0.0
H641 H 0.05357 0.4835 0.17783 0.0
C642 C 0.03073 0.43247 0.09461 0.0
C643 C 1.01438 0.41857 0.08091 0.0
C644 C 0.99633 0.41558 0.08857 0.0
C645 C 0.9946 0.42633 0.10933 0.0
C646 C 1.01106 0.44006 0.12218 0.0
C647 C 0.02877 0.44308 0.11517 0.0
C648 C 0.04422 0.45835 0.13245 0.0
C649 C 0.05481 0.45031 0.14835 0.0
C650 C 0.05799 0.4755 0.11563 0.0
C651 C 0.03246 0.46335 0.15051 0.0
C652 C 1.01336 0.45275 0.14422 0.0
C653 C 0.99969 0.45433 0.15904 0.0
C654 C 1.00571 0.46675 0.18118 0.0
C655 C 0.02516 0.47741 0.18806 0.0
C656 C 0.03867 0.47585 0.17237 0.0
H657 H 0.62551 0.60999 0.09989 0.0
H658 H 0.57664 0.60266 0.05478 0.0
H659 H 0.55551 0.58302 0.09093 0.0
H660 H 0.60407 0.5635 0.12805 0.0
H661 H 0.6155 0.57157 0.16014 0.0
H662 H 0.62687 0.5849 0.13061 0.0
H663 H 0.62919 0.61518 0.15192 0.0
H664 H 0.61806 0.602 0.18163 0.0
H665 H 0.60802 0.61435 0.16437 0.0
H666 H 0.53951 0.56299 0.13143 0.0
H667 H 0.53043 0.5478 0.17588 0.0
H668 H 0.58977 0.56959 0.19512 0.0
C669 C 0.61037 0.60432 0.09768 0.0
C670 C 0.60272 0.60781 0.07448 0.0
C671 C 0.58284 0.60026 0.07243 0.0
C672 C 0.57069 0.58896 0.09277 0.0
C673 C 0.57866 0.58554 0.11519 0.0
C674 C 0.59807 0.59328 0.11797 0.0
C675 C 0.60308 0.58808 0.14453 0.0
C676 C 0.61296 0.57631 0.14058 0.0
C677 C 0.61531 0.60597 0.16162 0.0
C678 C 0.58348 0.57616 0.15617 0.0
C679 C 0.56954 0.57462 0.13883 0.0
C680 C 0.55031 0.56416 0.14523 0.0
C681 C 0.54526 0.55549 0.17035 0.0
C682 C 0.55942 0.55759 0.18874 0.0
C683 C 0.5787 0.56782 0.18134 0.0
H684 H 0.41748 0.98666 0.08611 0.0
H685 H 0.42938 0.04477 0.0963 0.0
H686 H 0.44728 0.04774 0.13758 0.0
H687 H 0.41055 0.97434 0.15503 0.0
H688 H 0.42163 0.95991 0.15338 0.0
H689 H 0.41026 0.96261 0.12421 0.0
H690 H 0.44149 0.9746 0.09781 0.0
H691 H 0.45303 0.97215 0.12704 0.0
H692 H 0.46304 0.99469 0.11033 0.0
H693 H 0.46262 0.04404 0.17876 0.0
H694 H 0.47334 0.03337 0.21789 0.0
H695 H 0.45246 0.97813 0.18054 0.0
C696 C 0.42384 1.00002 0.09699 0.0
C697 C 0.42198 0.01548 0.08789 0.0
C698 C 0.43057 0.03271 0.10279 0.0
C699 C 0.44085 0.03458 0.12624 0.0
C700 C 0.44254 0.01914 0.13449 0.0
C701 C 0.43424 1.00217 0.12038 0.0
C702 C 0.43776 0.98759 0.13403 0.0
C703 C 0.41893 0.97008 0.14215 0.0
C704 C 0.44953 0.98193 0.11624 0.0
C705 C 0.44909 0.99892 0.15824 0.0
C706 C 0.45176 0.01713 0.15802 0.0
C707 C 0.46084 0.02992 0.17898 0.0
C708 C 0.46694 0.02379 0.20104 0.0
C709 C 0.46404 1.00511 0.20188 0.0
C710 C 0.45533 0.99266 0.17998 0.0
H711 H 0.40671 0.99227 0.92568 0.0
H712 H 0.45372 0.03807 0.969 0.0
H713 H 0.47581 0.03976 0.93397 0.0
H714 H 0.43168 0.96938 0.89878 0.0
H715 H 0.42003 0.96445 0.86669 0.0
H716 H 0.408 0.96578 0.89607 0.0
H717 H 0.40284 0.9916 0.87389 0.0
H718 H 0.41465 0.99019 0.84437 0.0
H719 H 0.42298 0.01273 0.86109 0.0
H720 H 0.49292 0.03623 0.89445 0.0
H721 H 0.50298 0.03108 0.84998 0.0
H722 H 0.44464 0.98954 0.83067 0.0
C723 C 0.42167 1.00256 0.92779 0.0
C724 C 0.42857 0.01495 0.9501 0.0
C725 C 0.44817 0.02848 0.95201 0.0
C726 C 0.46084 0.02944 0.93233 0.0
C727 C 0.45364 0.01698 0.91063 0.0
C728 C 0.43447 1.00405 0.90795 0.0
C729 C 0.43023 0.99339 0.88159 0.0
C730 C 0.422 0.97198 0.88607 0.0
C731 C 0.41689 0.99722 0.86421 0.0
C732 C 0.44998 1.00237 0.86989 0.0
C733 C 0.46335 0.01566 0.88719 0.0
C734 C 0.48258 0.02587 0.88072 0.0
C735 C 0.48819 0.02278 0.85557 0.0
C736 C 0.47458 0.00989 0.83716 0.0
C737 C 0.45531 0.99938 0.84458 0.0
H738 H 0.99959 0.40575 0.93075 0.0
H739 H 0.05937 0.44 0.95126 0.0
H740 H 0.06398 0.46099 0.91322 0.0
H741 H 1.00593 0.40847 0.85961 0.0
H742 H 0.98465 0.40947 0.85306 0.0
H743 H 0.98616 0.39741 0.88217 0.0
H744 H 0.9781 0.41858 0.91201 0.0
H745 H 0.97682 0.43088 0.883 0.0
H746 H 0.99257 0.44409 0.91022 0.0
H747 H 0.06201 0.4785 0.8729 0.0
H748 H 0.05416 0.48907 0.83094 0.0
H749 H 0.99581 0.44339 0.83706 0.0
C750 C 1.01368 0.41761 0.92723 0.0
C751 C 0.0291 0.4212 0.94409 0.0
C752 C 0.04732 0.43688 0.93864 0.0
C753 C 0.05007 0.44898 0.91716 0.0
C754 C 0.03449 0.4452 0.90122 0.0
C755 C 0.0167 0.42977 0.90582 0.0
C756 C 1.00244 0.4285 0.88526 0.0
C757 C 0.99432 0.40986 0.86907 0.0
C758 C 0.98655 0.43064 0.89842 0.0
C759 C 0.015 0.44556 0.86829 0.0
C760 C 0.0334 0.45515 0.87795 0.0
C761 C 0.04762 0.47114 0.8652 0.0
C762 C 0.04301 0.47716 0.84154 0.0
C763 C 0.02438 0.4671 0.83083 0.0
C764 C 1.01018 0.45136 0.84479 0.0
H765 H 0.60032 0.61175 0.92069 0.0
H766 H 0.62085 0.57712 0.95767 0.0
H767 H 0.604 0.55222 0.9236 0.0
H768 H 0.55394 0.57329 0.90191 0.0
H769 H 0.55337 0.58356 0.87038 0.0
H770 H 0.56672 0.59874 0.89801 0.0
H771 H 0.59707 0.61444 0.86912 0.0
H772 H 0.58376 0.59947 0.84134 0.0
H773 H 0.60485 0.59966 0.85291 0.0
H774 H 0.58511 0.53102 0.88567 0.0
H775 H 0.56801 0.51633 0.84369 0.0
H776 H 0.5595 0.56439 0.83101 0.0
C777 C 0.60132 0.59896 0.92159 0.0
C778 C 0.61191 0.59643 0.94196 0.0
C779 C 0.61288 0.57947 0.9423 0.0
C780 C 0.60326 0.56515 0.92311 0.0
C781 C 0.59274 0.56796 0.90358 0.0
C782 C 0.59186 0.58451 0.90245 0.0
C783 C 0.5801 0.58417 0.87871 0.0
C784 C 0.56249 0.58499 0.88781 0.0
C785 C 0.59217 0.60039 0.85938 0.0
C786 C 0.57464 0.56493 0.86663 0.0
C787 C 0.58191 0.55573 0.88147 0.0
C788 C 0.57922 0.538 0.87395 0.0
C789 C 0.5693 0.52967 0.85019 0.0
C790 C 0.56224 0.5391 0.83414 0.0
C791 C 0.56467 0.5568 0.84288 0.0
H792 H 0.99377 0.59247 0.92239 0.0
H793 H 0.05216 0.61445 0.94801 0.0
H794 H 0.05642 0.59584 0.91243 0.0
H795 H 0.9837 0.54509 0.90433 0.0
H796 H 0.96972 0.54341 0.87538 0.0
H797 H 0.97087 0.55786 0.90355 0.0
H798 H 0.98246 0.58712 0.87284 0.0
H799 H 0.98112 0.57271 0.84458 0.0
H800 H 1.00305 0.59416 0.85232 0.0
H801 H 0.05452 0.57508 0.87393 0.0
H802 H 0.04765 0.55645 0.83217 0.0
H803 H 0.99065 0.54814 0.83112 0.0
C804 C 1.00745 0.59335 0.92055 0.0
C805 C 0.02261 0.6049 0.93809 0.0
C806 C 0.04033 0.60577 0.93481 0.0
C807 C 0.04287 0.59514 0.91476 0.0
C808 C 0.02758 0.58375 0.89803 0.0
C809 C 1.01029 0.58297 0.90047 0.0
C810 C 0.99648 0.57036 0.87901 0.0
C811 C 0.97917 0.55316 0.89131 0.0
C812 C 0.99043 0.58177 0.86113 0.0
C813 C 1.00878 0.56433 0.864 0.0
C814 C 0.02658 0.572 0.87552 0.0
C815 C 0.04059 0.56889 0.8648 0.0
C816 C 0.03649 0.55812 0.84121 0.0
C817 C 0.01857 0.55071 0.82847 0.0
C818 C 1.00445 0.55357 0.84044 0.0
H819 H 0.40638 0.41367 0.92608 0.0
H820 H 0.44967 0.4092 0.97108 0.0
H821 H 0.47249 0.42521 0.93503 0.0
H822 H 0.41945 0.40358 0.86242 0.0
H823 H 0.41469 0.41984 0.84425 0.0
H824 H 0.40188 0.40913 0.87437 0.0
H825 H 0.41272 0.44257 0.89427 0.0
H826 H 0.42567 0.45339 0.86424 0.0
H827 H 0.43768 0.45983 0.89611 0.0
H828 H 0.49057 0.44092 0.89432 0.0
H829 H 0.50207 0.45288 0.84924 0.0
H830 H 0.4474 0.447 0.82926 0.0
C831 C 0.42069 0.41619 0.92837 0.0
C832 C 0.42621 0.4102 0.95148 0.0
C833 C 0.44503 0.41355 0.95356 0.0
C834 C 0.45818 0.42277 0.93326 0.0
C835 C 0.45234 0.42849 0.9108 0.0
C836 C 0.43403 0.42519 0.90801 0.0
C837 C 0.43126 0.43182 0.88097 0.0
C838 C 0.41591 0.4151 0.86453 0.0
C839 C 0.42656 0.44786 0.8841 0.0
C840 C 0.45082 0.43916 0.86905 0.0
C841 C 0.46279 0.43732 0.88681 0.0
C842 C 0.4814 0.44259 0.88027 0.0
C843 C 0.48786 0.44956 0.85465 0.0
C844 C 0.47574 0.45111 0.83574 0.0
C845 C 0.45704 0.44606 0.84329 0.0
H846 H 0.61369 0.99657 0.92311 0.0
H847 H 0.60661 0.03755 0.97039 0.0
H848 H 0.5871 0.03987 0.93447 0.0
H849 H 0.61846 0.01995 0.86005 0.0
H850 H 0.60609 0.99801 0.84134 0.0
H851 H 0.61902 0.99917 0.87118 0.0
H852 H 0.58856 0.97087 0.89062 0.0
H853 H 0.57548 0.96978 0.86095 0.0
H854 H 0.56729 0.97245 0.8932 0.0
H855 H 0.5673 0.03686 0.89411 0.0
H856 H 0.5524 0.03204 0.84933 0.0
H857 H 0.574 0.99471 0.82744 0.0
C858 C 0.60807 1.00606 0.92583 0.0
C859 C 0.61161 0.01683 0.94955 0.0
C860 C 0.60416 0.02923 0.95231 0.0
C861 C 0.59294 0.03055 0.93212 0.0
C862 C 0.5895 0.01957 0.90913 0.0
C863 C 0.59713 1.00784 0.90564 0.0
C864 C 0.59204 0.9983 0.87844 0.0
C865 C 0.60997 1.00422 0.86177 0.0
C866 C 0.58013 0.97656 0.88097 0.0
C867 C 0.58034 1.00646 0.86727 0.0
C868 C 0.57877 0.01846 0.88543 0.0
C869 C 0.56849 0.02756 0.87966 0.0
C870 C 0.55999 0.02467 0.85435 0.0
C871 C 0.56214 0.01306 0.83518 0.0
C872 C 0.57221 1.00367 0.84187 0.0
H873 H 0.61866 0.02326 0.10739 0.0
H874 H 0.57844 0.97435 0.06041 0.0
H875 H 0.55374 0.96732 0.09376 0.0
H876 H 0.60281 1.00073 0.17089 0.0
H877 H 0.60626 0.02187 0.18787 0.0
H878 H 0.62064 0.02385 0.15949 0.0
H879 H 0.61021 0.04563 0.13634 0.0
H880 H 0.59564 0.04356 0.16458 0.0
H881 H 0.58529 0.03733 0.13162 0.0
H882 H 0.53342 0.96503 0.13205 0.0
H883 H 0.51968 0.96565 0.17551 0.0
H884 H 0.57274 0.01558 0.19877 0.0
C885 C 0.60463 0.01112 0.10412 0.0
C886 C 0.60051 0.9994 0.08121 0.0
C887 C 0.58202 0.98352 0.07781 0.0
C888 C 0.56781 0.97946 0.09656 0.0
C889 C 0.57227 0.99132 0.11878 0.0
C890 C 0.59026 1.00668 0.12289 0.0
C891 C 0.59147 0.01639 0.14939 0.0
C892 C 0.60616 0.01566 0.16801 0.0
C893 C 0.59592 0.03695 0.14522 0.0
C894 C 0.57142 1.00396 0.15951 0.0
C895 C 0.56053 0.98976 0.14132 0.0
C896 C 0.54174 0.97617 0.1464 0.0
C897 C 0.53398 0.97675 0.17108 0.0
C898 C 0.54504 0.99077 0.19049 0.0
C899 C 0.56391 1.00475 0.1843 0.0
H900 H 0.03872 0.6114 0.07826 0.0
H901 H 0.97848 0.59245 0.07858 0.0
H902 H 0.97461 0.57345 0.11882 0.0
H903 H 0.03425 0.56677 0.09938 0.0
H904 H 0.05547 0.578 0.11966 0.0
H905 H 0.0535 0.58992 0.09066 0.0
H906 H 0.06028 0.61919 0.11978 0.0
H907 H 0.06251 0.60746 0.14876 0.0
H908 H 0.04585 0.61595 0.14868 0.0
H909 H 0.97769 0.55795 0.16052 0.0
H910 H 0.98771 0.54752 0.20072 0.0
H911 H 0.04545 0.57521 0.17172 0.0
C912 C 0.02471 0.60331 0.0868 0.0
C913 C 1.00891 0.60349 0.0753 0.0
C914 C 0.9908 0.59256 0.08703 0.0
C915 C 0.98844 0.58166 0.10984 0.0
C916 C 1.00429 0.58168 0.1205 0.0
C917 C 0.02206 0.5922 0.10935 0.0
C918 C 0.03685 0.59002 0.12488 0.0
C919 C 0.04552 0.58061 0.10761 0.0
C920 C 0.05228 0.6093 0.1362 0.0
C921 C 0.02469 0.57689 0.14682 0.0
C922 C 1.00593 0.5722 0.14392 0.0
C923 C 0.99226 0.56127 0.16276 0.0
C924 C 0.99802 0.55535 0.18542 0.0
C925 C 0.0172 0.56021 0.18885 0.0
C926 C 0.03059 0.57081 0.16906 0.0
H927 H 0.43464 0.40866 0.09842 0.0
H928 H 0.40148 0.43551 0.07905 0.0
H929 H 0.41783 0.45915 0.11483 0.0
H930 H 0.43469 0.41477 0.16956 0.0
H931 H 0.45864 0.41945 0.17409 0.0
H932 H 0.44446 0.40476 0.14663 0.0
H933 H 0.47062 0.42691 0.11372 0.0
H934 H 0.48475 0.44183 0.14109 0.0
H935 H 0.47845 0.45197 0.11377 0.0
H936 H 0.43686 0.47931 0.15352 0.0
H937 H 0.45641 0.4936 0.19418 0.0
H938 H 0.47805 0.45467 0.18791 0.0
C939 C 0.43075 0.41945 0.10177 0.0
C940 C 0.41673 0.42017 0.08584 0.0
C941 C 0.41215 0.43461 0.09089 0.0
C942 C 0.42142 0.44819 0.11114 0.0
C943 C 0.43534 0.44725 0.12616 0.0
C944 C 0.43995 0.43322 0.12187 0.0
C945 C 0.45517 0.43523 0.14134 0.0
C946 C 0.44779 0.4175 0.15895 0.0
C947 C 0.47332 0.43922 0.12659 0.0
C948 C 0.45823 0.45245 0.15739 0.0
C949 C 0.44669 0.45921 0.14819 0.0
C950 C 0.44616 0.47433 0.16068 0.0
C951 C 0.45735 0.48244 0.1836 0.0
C952 C 0.46901 0.47553 0.19356 0.0
C953 C 0.46969 0.46057 0.18006 0.0
H954 H 0.66771 0.73999 0.42658 0.0
H955 H 0.72261 0.77851 0.39206 0.0
H956 H 0.72859 0.80194 0.42766 0.0
H957 H 0.65633 0.77578 0.44752 0.0
H958 H 0.64542 0.76402 0.47824 0.0
H959 H 0.64506 0.75026 0.44966 0.0
H960 H 0.66097 0.73523 0.47761 0.0
H961 H 0.66116 0.74876 0.50632 0.0
H962 H 0.68296 0.75049 0.49492 0.0
H963 H 0.72891 0.82113 0.46713 0.0
H964 H 0.72474 0.83349 0.51011 0.0
H965 H 0.66958 0.78281 0.51897 0.0
C966 C 0.68101 0.75333 0.42651 0.0
C967 C 0.69466 0.75738 0.40643 0.0
C968 C 0.71191 0.77502 0.40719 0.0
C969 C 0.71542 0.7885 0.42726 0.0
C970 C 0.70157 0.78417 0.4465 0.0
C971 C 0.68479 0.76696 0.44648 0.0
C972 C 0.6726 0.76561 0.47009 0.0
C973 C 0.65374 0.76381 0.46081 0.0
C974 C 0.66924 0.74904 0.48831 0.0
C975 C 0.68524 0.78467 0.48349 0.0
C976 C 0.7018 0.79524 0.46939 0.0
C977 C 0.71594 0.81306 0.47825 0.0
C978 C 0.71335 0.82006 0.50259 0.0
C979 C 0.69676 0.80921 0.51785 0.0
C980 C 0.68239 0.79146 0.50775 0.0
H981 H 0.2871 0.94584 0.43989 0.0
H982 H 0.2395 0.93951 0.39252 0.0
H983 H 0.21756 0.9208 0.42852 0.0
H984 H 0.26379 0.89958 0.46933 0.0
H985 H 0.27496 0.90785 0.50153 0.0
H986 H 0.28697 0.92049 0.47187 0.0
H987 H 0.29028 0.9516 0.49165 0.0
H988 H 0.27848 0.93909 0.52148 0.0
H989 H 0.2694 0.95185 0.50301 0.0
H990 H 0.20055 0.90166 0.46937 0.0
H991 H 0.19053 0.88704 0.5141 0.0
H992 H 0.2493 0.90732 0.53517 0.0
C993 C 0.27207 0.94056 0.43711 0.0
C994 C 0.26503 0.9441 0.41334 0.0
C995 C 0.24526 0.93706 0.41059 0.0
C996 C 0.23265 0.9263 0.43086 0.0
C997 C 0.24003 0.92286 0.4539 0.0
C998 C 0.25931 0.93003 0.45729 0.0
C999 C 0.26368 0.92495 0.48438 0.0
C1000 C 0.27289 0.91248 0.4816 0.0
C1001 C 0.2762 0.94294 0.50111 0.0
C1002 C 0.24386 0.91379 0.49566 0.0
C1003 C 0.23035 0.91249 0.47768 0.0
C1004 C 0.21102 0.90267 0.48367 0.0
C1005 C 0.20543 0.89434 0.50895 0.0
C1006 C 0.21917 0.89618 0.52788 0.0
C1007 C 0.23856 0.90581 0.52097 0.0
H1008 H 0.08055 0.32219 0.4212 0.0
H1009 H 0.10134 0.38293 0.42054 0.0
H1010 H 0.12212 0.38722 0.4591 0.0
H1011 H 0.0797 0.31703 0.49206 0.0
H1012 H 0.08739 0.29973 0.49111 0.0
H1013 H 0.07436 0.30163 0.46337 0.0
H1014 H 0.10154 0.3066 0.43162 0.0
H1015 H 0.11478 0.30498 0.45937 0.0
H1016 H 0.12536 0.32561 0.4383 0.0
H1017 H 0.13953 0.3847 0.49904 0.0
H1018 H 0.15172 0.37529 0.53799 0.0
H1019 H 0.12091 0.31661 0.51118 0.0
C1020 C 0.08939 0.3364 0.42922 0.0
C1021 C 0.08924 0.35222 0.41788 0.0
C1022 C 0.10118 0.37058 0.42888 0.0
C1023 C 0.11309 0.37318 0.45073 0.0
C1024 C 0.11306 0.35731 0.46119 0.0
C1025 C 0.10152 0.33928 0.45082 0.0
C1026 C 0.10401 0.32456 0.46594 0.0
C1027 C 0.08525 0.30988 0.47889 0.0
C1028 C 0.11189 0.31487 0.44771 0.0
C1029 C 0.11853 0.33709 0.48672 0.0
C1030 C 0.12361 0.35595 0.4836 0.0
C1031 C 0.1359 0.37003 0.50144 0.0
C1032 C 0.14281 0.36461 0.52337 0.0
C1033 C 0.13758 0.34535 0.52705 0.0
C1034 C 0.12557 0.33151 0.50824 0.0
H1035 H 0.09779 0.36385 0.26768 0.0
H1036 H 0.0704 0.30442 0.29005 0.0
H1037 H 0.088 0.29854 0.25476 0.0
H1038 H 0.09667 0.35574 0.19713 0.0
H1039 H 0.11934 0.37668 0.19145 0.0
H1040 H 0.10492 0.37612 0.21898 0.0
H1041 H 0.13294 0.3845 0.25147 0.0
H1042 H 0.14735 0.3848 0.22404 0.0
H1043 H 0.14357 0.36964 0.2522 0.0
H1044 H 0.10875 0.29916 0.2167 0.0
H1045 H 0.12817 0.30563 0.17598 0.0
H1046 H 0.14174 0.36448 0.17875 0.0
C1047 C 0.09545 0.34958 0.26517 0.0
C1048 C 0.08272 0.33462 0.28173 0.0
C1049 C 0.08002 0.31613 0.27761 0.0
C1050 C 0.09006 0.31266 0.25772 0.0
C1051 C 0.10272 0.3278 0.24203 0.0
C1052 C 0.10526 0.34584 0.24534 0.0
C1053 C 0.11909 0.35949 0.22517 0.0
C1054 C 0.10942 0.36747 0.20712 0.0
C1055 C 0.13679 0.37555 0.23906 0.0
C1056 C 0.12382 0.34629 0.20986 0.0
C1057 C 0.11444 0.32811 0.22005 0.0
C1058 C 0.11624 0.31337 0.20863 0.0
C1059 C 0.12743 0.31719 0.18568 0.0
C1060 C 0.13649 0.33555 0.17433 0.0
C1061 C 0.13499 0.35032 0.18706 0.0
H1062 H 0.69597 0.74642 0.24726 0.0
H1063 H 0.65367 0.751 0.29422 0.0
H1064 H 0.65052 0.77031 0.25891 0.0
H1065 H 0.71856 0.79321 0.2193 0.0
H1066 H 0.7218 0.78561 0.18684 0.0
H1067 H 0.72118 0.77252 0.21607 0.0
H1068 H 0.69381 0.74159 0.19522 0.0
H1069 H 0.69453 0.75454 0.1658 0.0
H1070 H 0.67262 0.74126 0.18375 0.0
H1071 H 0.65274 0.79012 0.21897 0.0
H1072 H 0.65701 0.8051 0.17459 0.0
H1073 H 0.69636 0.78605 0.15289 0.0
C1074 C 0.68601 0.75145 0.25006 0.0
C1075 C 0.67511 0.74726 0.27353 0.0
C1076 C 0.6621 0.75395 0.27635 0.0
C1077 C 0.66031 0.76506 0.2565 0.0
C1078 C 0.67145 0.76916 0.23376 0.0
C1079 C 0.68379 0.76228 0.23022 0.0
C1080 C 0.6934 0.76794 0.20333 0.0
C1081 C 0.71502 0.78057 0.2066 0.0
C1082 C 0.68828 0.75028 0.186 0.0
C1083 C 0.68457 0.7791 0.19238 0.0
C1084 C 0.67217 0.77991 0.21038 0.0
C1085 C 0.66238 0.78953 0.20467 0.0
C1086 C 0.66496 0.79809 0.17959 0.0
C1087 C 0.67699 0.79668 0.16054 0.0
C1088 C 0.6871 0.78732 0.16722 0.0
H1089 H 0.27166 0.9507 0.25474 0.0
H1090 H 0.27985 0.91097 0.30272 0.0
H1091 H 0.2643 0.88643 0.26786 0.0
H1092 H 0.22585 0.91664 0.22677 0.0
H1093 H 0.2309 0.92722 0.19414 0.0
H1094 H 0.2421 0.94176 0.22325 0.0
H1095 H 0.27522 0.95319 0.20264 0.0
H1096 H 0.26411 0.93882 0.1734 0.0
H1097 H 0.28152 0.93586 0.1918 0.0
H1098 H 0.24796 0.86609 0.22831 0.0
H1099 H 0.23459 0.85212 0.18419 0.0
H1100 H 0.2374 0.90484 0.16081 0.0
C1101 C 0.27015 0.93683 0.25789 0.0
C1102 C 0.27695 0.93278 0.28154 0.0
C1103 C 0.27484 0.91449 0.28478 0.0
C1104 C 0.26591 0.90037 0.26516 0.0
C1105 C 0.25925 0.90475 0.24224 0.0
C1106 C 0.26144 0.92257 0.23828 0.0
C1107 C 0.25376 0.9237 0.21116 0.0
C1108 C 0.23717 0.92756 0.21401 0.0
C1109 C 0.2696 0.93879 0.19372 0.0
C1110 C 0.247 0.90378 0.20056 0.0
C1111 C 0.25011 0.89304 0.21898 0.0
C1112 C 0.24536 0.8743 0.21372 0.0
C1113 C 0.23761 0.86644 0.18868 0.0
C1114 C 0.23479 0.87732 0.16914 0.0
C1115 C 0.23935 0.89617 0.17539 0.0
H1116 H 0.65875 0.92586 0.26198 0.0
H1117 H 0.71945 0.95698 0.27729 0.0
H1118 H 0.72419 0.93896 0.24125 0.0
H1119 H 0.65445 0.88052 0.24538 0.0
H1120 H 0.63747 0.87527 0.21886 0.0
H1121 H 0.63858 0.88998 0.24667 0.0
H1122 H 0.64359 0.91686 0.21431 0.0
H1123 H 0.64218 0.90211 0.18644 0.0
H1124 H 0.66264 0.92547 0.19052 0.0
H1125 H 0.72238 0.91734 0.20381 0.0
H1126 H 0.71463 0.89709 0.16337 0.0
H1127 H 0.6554 0.88098 0.17114 0.0
C1128 C 0.67303 0.92888 0.25773 0.0
C1129 C 0.68872 0.94279 0.27253 0.0
C1130 C 0.70721 0.94646 0.26616 0.0
C1131 C 0.71004 0.93618 0.24587 0.0
C1132 C 0.69426 0.92238 0.23192 0.0
C1133 C 0.67616 0.91895 0.23723 0.0
C1134 C 0.66178 0.9042 0.21813 0.0
C1135 C 0.64721 0.88644 0.23317 0.0
C1136 C 0.65198 0.91267 0.20136 0.0
C1137 C 0.67466 0.89996 0.20121 0.0
C1138 C 0.69329 0.91034 0.20979 0.0
C1139 C 0.70782 0.90909 0.19695 0.0
C1140 C 0.70328 0.89742 0.17417 0.0
C1141 C 0.68442 0.88739 0.16432 0.0
C1142 C 0.66991 0.88839 0.17842 0.0
H1143 H 0.10669 0.75032 0.26942 0.0
H1144 H 0.06509 0.76887 0.26534 0.0
H1145 H 0.0813 0.78825 0.22601 0.0
H1146 H 0.14733 0.79508 0.24979 0.0
H1147 H 0.15777 0.78396 0.23031 0.0
H1148 H 0.14325 0.77186 0.25867 0.0
H1149 H 0.12146 0.74278 0.22876 0.0
H1150 H 0.13606 0.75468 0.20045 0.0
H1151 H 0.11094 0.74621 0.19914 0.0
H1152 H 0.10111 0.80451 0.18597 0.0
H1153 H 0.12229 0.81517 0.14677 0.0
H1154 H 0.15154 0.78692 0.17747 0.0
C1155 C 0.10096 0.75843 0.26028 0.0
C1156 C 0.08457 0.75802 0.27055 0.0
C1157 C 0.07759 0.7689 0.25791 0.0
C1158 C 0.08676 0.78005 0.23561 0.0
C1159 C 0.10297 0.78029 0.22621 0.0
C1160 C 0.10998 0.76971 0.23806 0.0
C1161 C 0.12729 0.772 0.22348 0.0
C1162 C 0.14495 0.78128 0.24165 0.0
C1163 C 0.12372 0.75278 0.21229 0.0
C1164 C 0.12875 0.78528 0.20134 0.0
C1165 C 0.11465 0.78998 0.20339 0.0
C1166 C 0.11237 0.80114 0.18435 0.0
C1167 C 0.12448 0.80719 0.16226 0.0
C1168 C 0.13873 0.80218 0.15949 0.0
C1169 C 0.14113 0.79143 0.17958 0.0
H1170 H 0.26119 0.3283 0.274 0.0
H1171 H 0.30023 0.38901 0.28238 0.0
H1172 H 0.28509 0.39496 0.24404 0.0
H1173 H 0.26077 0.32731 0.20263 0.0
H1174 H 0.23597 0.30968 0.19975 0.0
H1175 H 0.24933 0.31018 0.22875 0.0
H1176 H 0.22489 0.31268 0.25903 0.0
H1177 H 0.2116 0.31245 0.23005 0.0
H1178 H 0.21987 0.33169 0.25395 0.0
H1179 H 0.26704 0.3946 0.20382 0.0
H1180 H 0.24816 0.38749 0.16222 0.0
H1181 H 0.22022 0.32732 0.1796 0.0
C1182 C 0.26653 0.34284 0.2678 0.0
C1183 C 0.28192 0.35817 0.28136 0.0
C1184 C 0.28849 0.37698 0.27246 0.0
C1185 C 0.27991 0.38055 0.25073 0.0
C1186 C 0.26471 0.3652 0.23801 0.0
C1187 C 0.25811 0.3467 0.24604 0.0
C1188 C 0.24205 0.33278 0.22802 0.0
C1189 C 0.24735 0.31919 0.21395 0.0
C1190 C 0.2235 0.32175 0.24371 0.0
C1191 C 0.24091 0.34635 0.20843 0.0
C1192 C 0.25402 0.36501 0.21477 0.0
C1193 C 0.25652 0.38008 0.19883 0.0
C1194 C 0.24571 0.37596 0.17537 0.0
C1195 C 0.23252 0.35696 0.16818 0.0
C1196 C 0.22981 0.34201 0.18518 0.0
H1197 H 0.25809 0.32824 0.41917 0.0
H1198 H 0.30239 0.38727 0.42805 0.0
H1199 H 0.28581 0.39063 0.46706 0.0
H1200 H 0.21871 0.33495 0.43798 0.0
H1201 H 0.20654 0.31281 0.45572 0.0
H1202 H 0.22149 0.31514 0.42786 0.0
H1203 H 0.24101 0.30507 0.45765 0.0
H1204 H 0.22597 0.30246 0.48544 0.0
H1205 H 0.25129 0.31781 0.48839 0.0
H1206 H 0.26534 0.38712 0.50649 0.0
H1207 H 0.24316 0.37649 0.54458 0.0
H1208 H 0.21172 0.32016 0.50929 0.0
C1209 C 0.26433 0.3419 0.42926 0.0
C1210 C 0.28159 0.3575 0.42048 0.0
C1211 C 0.28921 0.3751 0.43434 0.0
C1212 C 0.27984 0.37718 0.45646 0.0
C1213 C 0.26279 0.36157 0.46441 0.0
C1214 C 0.25512 0.34425 0.45128 0.0
C1215 C 0.23697 0.32951 0.46443 0.0
C1216 C 0.21992 0.32271 0.44535 0.0
C1217 C 0.23894 0.31273 0.47459 0.0
C1218 C 0.23579 0.34115 0.48731 0.0
C1219 C 0.25076 0.35966 0.48683 0.0
C1220 C 0.25342 0.37276 0.50687 0.0
C1221 C 0.24075 0.36665 0.52832 0.0
C1222 C 0.22558 0.34766 0.52948 0.0
C1223 C 0.22286 0.33491 0.50841 0.0
H1224 H 0.66305 0.93083 0.42595 0.0
H1225 H 0.72054 0.95362 0.39677 0.0
H1226 H 0.72724 0.93718 0.43253 0.0
H1227 H 0.67586 0.93617 0.4955 0.0
H1228 H 0.65488 0.91467 0.50545 0.0
H1229 H 0.65414 0.9274 0.47661 0.0
H1230 H 0.64211 0.89685 0.44781 0.0
H1231 H 0.64299 0.88407 0.47655 0.0
H1232 H 0.65572 0.88487 0.44675 0.0
H1233 H 0.72806 0.91856 0.47114 0.0
H1234 H 0.72402 0.90178 0.51352 0.0
H1235 H 0.66643 0.89155 0.51926 0.0
C1236 C 0.67701 0.9323 0.42708 0.0
C1237 C 0.69124 0.9435 0.40847 0.0
C1238 C 0.70942 0.94522 0.41082 0.0
C1239 C 0.71334 0.93581 0.43096 0.0
C1240 C 0.69903 0.92481 0.44885 0.0
C1241 C 0.68131 0.9232 0.44741 0.0
C1242 C 0.66888 0.91134 0.47022 0.0
C1243 C 0.66311 0.9231 0.488 0.0
C1244 C 0.65139 0.89321 0.45969 0.0
C1245 C 0.68247 0.9067 0.4847 0.0
C1246 C 0.69966 0.91439 0.47174 0.0
C1247 C 0.71462 0.91237 0.48143 0.0
C1248 C 0.71213 0.90265 0.50541 0.0
C1249 C 0.69486 0.89518 0.51959 0.0
C1250 C 0.67976 0.89703 0.50879 0.0
H1251 H 0.08907 0.73852 0.43356 0.0
H1252 H 0.09735 0.78658 0.38633 0.0
H1253 H 0.1173 0.80859 0.4222 0.0
H1254 H 0.08345 0.75745 0.49503 0.0
H1255 H 0.09507 0.7479 0.51514 0.0
H1256 H 0.08319 0.73602 0.48465 0.0
H1257 H 0.11422 0.73808 0.46767 0.0
H1258 H 0.12622 0.75006 0.4981 0.0
H1259 H 0.13565 0.76089 0.46632 0.0
H1260 H 0.13606 0.82543 0.46329 0.0
H1261 H 0.14891 0.83564 0.50911 0.0
H1262 H 0.12632 0.77671 0.53114 0.0
C1263 C 0.09532 0.75369 0.43075 0.0
C1264 C 0.0919 0.76094 0.40718 0.0
C1265 C 0.09987 0.78082 0.40432 0.0
C1266 C 0.11131 0.79342 0.42448 0.0
C1267 C 0.11437 0.78589 0.4476 0.0
C1268 C 0.10638 0.76649 0.45106 0.0
C1269 C 0.11046 0.7621 0.47884 0.0
C1270 C 0.09194 0.75017 0.49432 0.0
C1271 C 0.12235 0.7522 0.47765 0.0
C1272 C 0.12186 0.78203 0.49041 0.0
C1273 C 0.12429 0.79557 0.47188 0.0
C1274 C 0.13425 0.81497 0.47799 0.0
C1275 C 0.14156 0.82065 0.50395 0.0
C1276 C 0.13853 0.80696 0.52348 0.0
C1277 C 0.12878 0.78744 0.51648 0.0
H1278 H 0.33472 0.07629 0.75845 0.0
H1279 H 0.38995 0.11498 0.72506 0.0
H1280 H 0.39574 0.13816 0.76085 0.0
H1281 H 0.3236 0.11244 0.78205 0.0
H1282 H 0.31285 0.10005 0.81247 0.0
H1283 H 0.3121 0.08687 0.78297 0.0
H1284 H 0.32785 0.07091 0.80914 0.0
H1285 H 0.32851 0.08393 0.83871 0.0
H1286 H 0.35006 0.0856 0.82631 0.0
H1287 H 0.39633 0.15678 0.80064 0.0
H1288 H 0.39297 0.16836 0.8447 0.0
H1289 H 0.33776 0.11775 0.85364 0.0
C1290 C 0.34794 0.08972 0.75859 0.0
C1291 C 0.36185 0.09383 0.73889 0.0
C1292 C 0.3791 0.11144 0.73997 0.0
C1293 C 0.38249 0.1248 0.76012 0.0
C1294 C 0.36856 0.12035 0.77923 0.0
C1295 C 0.35171 0.10318 0.77889 0.0
C1296 C 0.33979 0.10149 0.80306 0.0
C1297 C 0.32097 0.10014 0.79462 0.0
C1298 C 0.33636 0.08448 0.82033 0.0
C1299 C 0.35273 0.12025 0.81712 0.0
C1300 C 0.36909 0.13102 0.80275 0.0
C1301 C 0.3835 0.14858 0.812 0.0
C1302 C 0.38138 0.15512 0.83698 0.0
C1303 C 0.36504 0.14406 0.85257 0.0
C1304 C 0.35039 0.12656 0.84216 0.0
H1305 H 0.93115 0.27978 0.76708 0.0
H1306 H 0.95825 0.24611 0.75299 0.0
H1307 H 0.93979 0.22476 0.78962 0.0
H1308 H 0.93144 0.27686 0.83872 0.0
H1309 H 0.90892 0.27581 0.84259 0.0
H1310 H 0.9237 0.28793 0.81451 0.0
H1311 H 0.89586 0.26675 0.78244 0.0
H1312 H 0.88107 0.25438 0.81045 0.0
H1313 H 0.88482 0.24125 0.78437 0.0
H1314 H 0.91816 0.2068 0.82738 0.0
H1315 H 0.89821 0.19613 0.8677 0.0
H1316 H 0.88596 0.24199 0.85843 0.0
C1317 C 0.9332 0.26792 0.77172 0.0
C1318 C 0.9461 0.26458 0.7571 0.0
C1319 C 0.94852 0.24902 0.76398 0.0
C1320 C 0.93798 0.2367 0.78461 0.0
C1321 C 0.9252 0.24023 0.79837 0.0
C1322 C 0.923 0.25564 0.79255 0.0
C1323 C 0.90911 0.25684 0.81145 0.0
C1324 C 0.91888 0.27546 0.82778 0.0
C1325 C 0.89168 0.25467 0.79626 0.0
C1326 C 0.90392 0.23974 0.82883 0.0
C1327 C 0.91312 0.23018 0.82068 0.0
C1328 C 0.91083 0.21413 0.83392 0.0
C1329 C 0.89932 0.20806 0.85664 0.0
C1330 C 0.89043 0.21814 0.86603 0.0
C1331 C 0.8925 0.23395 0.85157 0.0
H1332 H 0.74379 0.65078 0.74638 0.0
H1333 H 0.75884 0.71016 0.74752 0.0
H1334 H 0.7791 0.71568 0.78722 0.0
H1335 H 0.74138 0.64421 0.81686 0.0
H1336 H 0.75148 0.62887 0.81617 0.0
H1337 H 0.73842 0.62981 0.78773 0.0
H1338 H 0.76741 0.63834 0.75762 0.0
H1339 H 0.78063 0.63764 0.78607 0.0
H1340 H 0.79009 0.65871 0.76594 0.0
H1341 H 0.79631 0.71428 0.82833 0.0
H1342 H 0.80917 0.70591 0.86761 0.0
H1343 H 0.78438 0.64805 0.83808 0.0
C1344 C 0.75129 0.66495 0.755 0.0
C1345 C 0.74965 0.68002 0.74389 0.0
C1346 C 0.75986 0.69838 0.75567 0.0
C1347 C 0.77144 0.70167 0.77819 0.0
C1348 C 0.77285 0.68652 0.7885 0.0
C1349 C 0.76309 0.66853 0.77725 0.0
C1350 C 0.7669 0.65465 0.79229 0.0
C1351 C 0.74845 0.63843 0.80396 0.0
C1352 C 0.77685 0.64688 0.77441 0.0
C1353 C 0.78009 0.66755 0.81404 0.0
C1354 C 0.78336 0.6859 0.81151 0.0
C1355 C 0.79411 0.70005 0.83025 0.0
C1356 C 0.80141 0.69523 0.85238 0.0
C1357 C 0.79812 0.67652 0.85534 0.0
C1358 C 0.78757 0.66261 0.83574 0.0
H1359 H 0.75701 0.69271 0.59265 0.0
H1360 H 0.73475 0.63372 0.61467 0.0
H1361 H 0.75315 0.62997 0.57848 0.0
H1362 H 0.75549 0.68493 0.52186 0.0
H1363 H 0.77702 0.707 0.51567 0.0
H1364 H 0.76247 0.70507 0.54381 0.0
H1365 H 0.79146 0.71579 0.57531 0.0
H1366 H 0.80604 0.71752 0.54727 0.0
H1367 H 0.80408 0.7028 0.57522 0.0
H1368 H 0.7741 0.63263 0.53973 0.0
H1369 H 0.79332 0.64066 0.49869 0.0
H1370 H 0.80173 0.69776 0.50191 0.0
C1371 C 0.75597 0.67899 0.58988 0.0
C1372 C 0.74443 0.66353 0.60661 0.0
C1373 C 0.74342 0.64578 0.60212 0.0
C1374 C 0.75393 0.64353 0.5817 0.0
C1375 C 0.76534 0.65912 0.56582 0.0
C1376 C 0.76626 0.67645 0.56948 0.0
C1377 C 0.77903 0.69074 0.54901 0.0
C1378 C 0.76783 0.69731 0.53156 0.0
C1379 C 0.79617 0.70772 0.56252 0.0
C1380 C 0.78505 0.67871 0.53317 0.0
C1381 C 0.77719 0.66058 0.54335 0.0
C1382 C 0.7804 0.64681 0.53165 0.0
C1383 C 0.79148 0.65155 0.50848 0.0
C1384 C 0.79909 0.66985 0.49717 0.0
C1385 C 0.79611 0.68366 0.51011 0.0
H1386 H 0.32872 0.0739 0.59403 0.0
H1387 H 0.38974 0.10565 0.60649 0.0
H1388 H 0.39282 0.12738 0.57027 0.0
H1389 H 0.33078 0.07717 0.52208 0.0
H1390 H 0.30975 0.07917 0.51932 0.0
H1391 H 0.31238 0.06646 0.54677 0.0
H1392 H 0.30724 0.08807 0.57995 0.0
H1393 H 0.30491 0.10105 0.55257 0.0
H1394 H 0.3224 0.11351 0.57834 0.0
H1395 H 0.3893 0.14626 0.53343 0.0
H1396 H 0.37985 0.15803 0.49418 0.0
H1397 H 0.32144 0.11344 0.5044 0.0
C1398 C 0.34273 0.08538 0.58906 0.0
C1399 C 0.35897 0.08808 0.60318 0.0
C1400 C 0.37708 0.1032 0.59591 0.0
C1401 C 0.37898 0.11574 0.5755 0.0
C1402 C 0.36267 0.1129 0.56231 0.0
C1403 C 0.34493 0.09789 0.56843 0.0
C1404 C 0.32981 0.09747 0.55024 0.0
C1405 C 0.32012 0.07898 0.53362 0.0
C1406 C 0.31523 0.10019 0.56624 0.0
C1407 C 0.34183 0.11456 0.53296 0.0
C1408 C 0.36071 0.12344 0.54052 0.0
C1409 C 0.37456 0.13943 0.52733 0.0
C1410 C 0.36906 0.14614 0.50524 0.0
C1411 C 0.34993 0.13672 0.49644 0.0
C1412 C 0.33614 0.12096 0.51085 0.0
H1413 H 0.93544 0.27907 0.60254 0.0
H1414 H 0.95386 0.2408 0.63247 0.0
H1415 H 0.93644 0.21818 0.59605 0.0
H1416 H 0.8885 0.24299 0.57979 0.0
H1417 H 0.88912 0.25562 0.55001 0.0
H1418 H 0.90215 0.2686 0.57934 0.0
H1419 H 0.93316 0.28528 0.55193 0.0
H1420 H 0.92019 0.2725 0.5225 0.0
H1421 H 0.94057 0.27105 0.53334 0.0
H1422 H 0.91744 0.19976 0.55666 0.0
H1423 H 0.90101 0.18826 0.5134 0.0
H1424 H 0.89546 0.23857 0.50748 0.0
C1425 C 0.93573 0.2659 0.60144 0.0
C1426 C 0.94596 0.26168 0.62041 0.0
C1427 C 0.9462 0.2444 0.61812 0.0
C1428 C 0.93622 0.23136 0.59762 0.0
C1429 C 0.92619 0.23586 0.57936 0.0
C1430 C 0.92606 0.2528 0.58077 0.0
C1431 C 0.9151 0.25457 0.55749 0.0
C1432 C 0.89768 0.2555 0.56725 0.0
C1433 C 0.92803 0.27187 0.5403 0.0
C1434 C 0.90926 0.23605 0.54276 0.0
C1435 C 0.91556 0.22537 0.55602 0.0
C1436 C 0.91231 0.20792 0.54614 0.0
C1437 C 0.9028 0.20142 0.52166 0.0
C1438 C 0.89677 0.21241 0.5072 0.0
C1439 C 0.89982 0.22982 0.51818 0.0
H1440 H 0.35686 0.2708 0.6024 0.0
H1441 H 0.29825 0.23439 0.62595 0.0
H1442 H 0.2931 0.21354 0.58713 0.0
H1443 H 0.34721 0.26792 0.53243 0.0
H1444 H 0.36865 0.26811 0.5229 0.0
H1445 H 0.36803 0.27954 0.55347 0.0
H1446 H 0.37879 0.25913 0.57972 0.0
H1447 H 0.37923 0.24749 0.54922 0.0
H1448 H 0.36519 0.23357 0.57693 0.0
H1449 H 0.29379 0.19717 0.54493 0.0
H1450 H 0.29995 0.18791 0.50042 0.0
H1451 H 0.35776 0.23482 0.50386 0.0
C1452 C 0.34298 0.25838 0.59948 0.0
C1453 C 0.32799 0.25423 0.61733 0.0
C1454 C 0.30997 0.23794 0.61257 0.0
C1455 C 0.30691 0.22591 0.59065 0.0
C1456 C 0.32198 0.23035 0.57352 0.0
C1457 C 0.33962 0.24628 0.57751 0.0
C1458 C 0.35307 0.24841 0.5552 0.0
C1459 C 0.35962 0.2671 0.54011 0.0
C1460 C 0.37008 0.24706 0.56592 0.0
C1461 C 0.3402 0.23127 0.538 0.0
C1462 C 0.32236 0.22093 0.54906 0.0
C1463 C 0.30776 0.205 0.53622 0.0
C1464 C 0.31136 0.19977 0.5111 0.0
C1465 C 0.32939 0.21041 0.49928 0.0
C1466 C 0.34402 0.22619 0.513 0.0
H1467 H 0.74318 0.09145 0.60109 0.0
H1468 H 0.77855 0.06924 0.6302 0.0
H1469 H 0.80124 0.08553 0.59404 0.0
H1470 H 0.74993 0.0857 0.53162 0.0
H1471 H 0.75017 0.10707 0.52144 0.0
H1472 H 0.73711 0.09455 0.55056 0.0
H1473 H 0.7558 0.12533 0.57885 0.0
H1474 H 0.76904 0.13791 0.54981 0.0
H1475 H 0.78137 0.13742 0.57947 0.0
H1476 H 0.82004 0.10376 0.55483 0.0
H1477 H 0.83217 0.12024 0.51214 0.0
H1478 H 0.78463 0.1303 0.50708 0.0
C1479 C 0.75574 0.0901 0.59989 0.0
C1480 C 0.75908 0.07909 0.61858 0.0
C1481 C 0.7756 0.07751 0.61612 0.0
C1482 C 0.78868 0.08682 0.59573 0.0
C1483 C 0.78503 0.0976 0.57774 0.0
C1484 C 0.76889 0.09913 0.57935 0.0
C1485 C 0.76795 0.11077 0.55643 0.0
C1486 C 0.75024 0.0988 0.53898 0.0
C1487 C 0.76858 0.12894 0.56677 0.0
C1488 C 0.78601 0.11537 0.54167 0.0
C1489 C 0.79575 0.10785 0.55457 0.0
C1490 C 0.81261 0.10983 0.5446 0.0
C1491 C 0.81949 0.11939 0.52043 0.0
C1492 C 0.80947 0.12674 0.50636 0.0
C1493 C 0.79264 0.1249 0.51742 0.0
H1494 H 0.95589 0.6984 0.59182 0.0
H1495 H 0.92388 0.63782 0.60755 0.0
H1496 H 0.9012 0.63373 0.57185 0.0
H1497 H 0.91631 0.70483 0.57695 0.0
H1498 H 0.928 0.72134 0.55025 0.0
H1499 H 0.94178 0.71978 0.57731 0.0
H1500 H 0.96193 0.71305 0.54373 0.0
H1501 H 0.94843 0.71491 0.51658 0.0
H1502 H 0.9502 0.69377 0.52001 0.0
H1503 H 0.88145 0.63622 0.53528 0.0
H1504 H 0.86863 0.64442 0.49604 0.0
H1505 H 0.91378 0.70314 0.50308 0.0
C1506 C 0.94417 0.68426 0.58765 0.0
C1507 C 0.94167 0.66844 0.60257 0.0
C1508 C 0.92619 0.65016 0.59635 0.0
C1509 C 0.91312 0.64769 0.57624 0.0
C1510 C 0.91577 0.66362 0.56232 0.0
C1511 C 0.9311 0.68149 0.56739 0.0
C1512 C 0.9311 0.69608 0.54868 0.0
C1513 C 0.92918 0.71141 0.56424 0.0
C1514 C 0.94897 0.70497 0.53122 0.0
C1515 C 0.9134 0.68361 0.53231 0.0
C1516 C 0.90462 0.66498 0.54076 0.0
C1517 C 0.88818 0.65077 0.52849 0.0
C1518 C 0.88087 0.6556 0.5064 0.0
C1519 C 0.89011 0.67443 0.49664 0.0
C1520 C 0.90637 0.68865 0.5102 0.0
H1521 H 0.95717 0.6963 0.76107 0.0
H1522 H 0.91563 0.6479 0.7147 0.0
H1523 H 0.89081 0.64296 0.74684 0.0
H1524 H 0.93993 0.6746 0.82406 0.0
H1525 H 0.94434 0.69607 0.84108 0.0
H1526 H 0.95859 0.69738 0.81288 0.0
H1527 H 0.94979 0.72034 0.78955 0.0
H1528 H 0.93539 0.71897 0.81765 0.0
H1529 H 0.92515 0.71323 0.7846 0.0
H1530 H 0.87081 0.64196 0.78424 0.0
H1531 H 0.85734 0.64268 0.82777 0.0
H1532 H 0.91141 0.69094 0.85201 0.0
C1533 C 0.94278 0.68485 0.75764 0.0
C1534 C 0.93826 0.67251 0.73537 0.0
C1535 C 0.91939 0.65744 0.73171 0.0
C1536 C 0.90515 0.65462 0.74971 0.0
C1537 C 0.90999 0.66686 0.77154 0.0
C1538 C 0.92835 0.68153 0.77588 0.0
C1539 C 0.9299 0.69136 0.80243 0.0
C1540 C 0.94402 0.68975 0.82122 0.0
C1541 C 0.93538 0.71222 0.7983 0.0
C1542 C 0.90966 0.67969 0.81235 0.0
C1543 C 0.89838 0.6659 0.7939 0.0
C1544 C 0.8794 0.65283 0.79878 0.0
C1545 C 0.87181 0.65348 0.82354 0.0
C1546 C 0.88321 0.66701 0.84327 0.0
C1547 C 0.9023 0.68052 0.83728 0.0
H1548 H 0.36097 0.26373 0.75652 0.0
H1549 H 0.30195 0.24876 0.76435 0.0
H1550 H 0.29932 0.23047 0.80477 0.0
H1551 H 0.35512 0.21857 0.77931 0.0
H1552 H 0.37743 0.22954 0.79711 0.0
H1553 H 0.37459 0.24081 0.76799 0.0
H1554 H 0.38462 0.2716 0.79543 0.0
H1555 H 0.38771 0.2605 0.82449 0.0
H1556 H 0.37217 0.27034 0.82574 0.0
H1557 H 0.30346 0.2153 0.84564 0.0
H1558 H 0.31465 0.20552 0.88521 0.0
H1559 H 0.37062 0.22956 0.85049 0.0
C1560 C 0.34746 0.25655 0.76665 0.0
C1561 C 0.33167 0.25771 0.75716 0.0
C1562 C 0.31427 0.24813 0.77114 0.0
C1563 C 0.31259 0.23761 0.79408 0.0
C1564 C 0.32839 0.23668 0.80277 0.0
C1565 C 0.34551 0.24593 0.78955 0.0
C1566 C 0.36052 0.24331 0.80373 0.0
C1567 C 0.36731 0.23241 0.78597 0.0
C1568 C 0.37723 0.26258 0.81289 0.0
C1569 C 0.34926 0.23143 0.82724 0.0
C1570 C 0.3307 0.22765 0.82619 0.0
C1571 C 0.31787 0.21794 0.84651 0.0
C1572 C 0.3243 0.2124 0.86883 0.0
C1573 C 0.34335 0.2165 0.87057 0.0
C1574 C 0.35584 0.22577 0.84924 0.0
H1575 H 0.73973 0.09327 0.7674 0.0
H1576 H 0.77338 0.06658 0.75033 0.0
H1577 H 0.79461 0.08397 0.78814 0.0
H1578 H 0.77807 0.13909 0.78837 0.0
H1579 H 0.76495 0.14203 0.8151 0.0
H1580 H 0.7526 0.12805 0.78606 0.0
H1581 H 0.73154 0.09926 0.81604 0.0
H1582 H 0.74368 0.11322 0.84516 0.0
H1583 H 0.74263 0.09081 0.83916 0.0
H1584 H 0.8127 0.10474 0.82694 0.0
H1585 H 0.82396 0.12416 0.86815 0.0
H1586 H 0.77782 0.13622 0.86204 0.0
C1587 C 0.75156 0.0911 0.77166 0.0
C1588 C 0.75493 0.07861 0.75583 0.0
C1589 C 0.77044 0.07599 0.76223 0.0
C1590 C 0.78269 0.08592 0.78355 0.0
C1591 C 0.77911 0.09826 0.79857 0.0
C1592 C 0.76375 0.10064 0.79327 0.0
C1593 C 0.76257 0.11397 0.81352 0.0
C1594 C 0.76467 0.13185 0.79994 0.0
C1595 C 0.74401 0.1037 0.82941 0.0
C1596 C 0.77967 0.1187 0.83097 0.0
C1597 C 0.78918 0.10972 0.82169 0.0
C1598 C 0.80539 0.11185 0.83441 0.0
C1599 C 0.81178 0.12306 0.85766 0.0
C1600 C 0.80186 0.13181 0.86815 0.0
C1601 C 0.78572 0.12976 0.85437 0.0
H1602 H 0.05998 0.35921 0.04631 0.0
H1603 H 0.10184 0.4144 0.01632 0.0
H1604 H 0.12734 0.4073 0.02675 0.0
H1605 H 0.08674 0.36036 0.10155 0.0
H1606 H 0.07895 0.33532 0.10092 0.0
H1607 H 0.0639 0.34363 0.08751 0.0
H1608 H 0.06226 0.32712 0.04232 0.0
H1609 H 0.07744 0.31886 0.05561 0.0
H1610 H 0.08394 0.33261 0.02545 0.0
H1611 H 0.14865 0.39523 0.04392 0.0
H1612 H 0.16374 0.38031 0.0699 0.0
H1613 H 0.10812 0.33366 0.08975 0.0
C1614 C 0.07446 0.3696 0.04137 0.0
C1615 C 0.0789 0.38727 0.03024 0.0
C1616 C 0.0981 0.40073 0.02476 0.0
C1617 C 0.11268 0.39678 0.03047 0.0
C1618 C 0.10789 0.37933 0.04179 0.0
C1619 C 0.08923 0.366 0.04733 0.0
C1620 C 0.08802 0.34921 0.06207 0.0
C1621 C 0.07887 0.34702 0.08964 0.0
C1622 C 0.07728 0.33086 0.04536 0.0
C1623 C 0.10888 0.35538 0.06453 0.0
C1624 C 0.12015 0.37261 0.05227 0.0
C1625 C 0.13995 0.3816 0.0533 0.0
C1626 C 0.14843 0.37303 0.06792 0.0
C1627 C 0.13707 0.35583 0.08154 0.0
C1628 C 0.1171 0.34673 0.07919 0.0
H1629 H 0.66509 0.69926 0.03249 0.0
H1630 H 0.61876 0.69246 0.98186 0.0
H1631 H 0.62662 0.72536 0.99269 0.0
H1632 H 0.65666 0.72271 0.08354 0.0
H1633 H 0.6812 0.73841 0.09234 0.0
H1634 H 0.67413 0.71575 0.07698 0.0
H1635 H 0.69861 0.73246 0.03934 0.0
H1636 H 0.70579 0.75523 0.05466 0.0
H1637 H 0.698 0.75091 0.02033 0.0
H1638 H 0.63737 0.75785 0.01301 0.0
H1639 H 0.64882 0.78595 0.043 0.0
H1640 H 0.68743 0.77101 0.08099 0.0
C1641 C 0.65698 0.7049 0.02303 0.0
C1642 C 0.64147 0.69339 0.00604 0.0
C1643 C 0.6308 0.70109 0.99476 0.0
C1644 C 0.63521 0.71979 0.00072 0.0
C1645 C 0.65031 0.73064 0.01809 0.0
C1646 C 0.66103 0.72345 0.02908 0.0
C1647 C 0.67508 0.73713 0.04946 0.0
C1648 C 0.67154 0.72795 0.07721 0.0
C1649 C 0.69559 0.74436 0.04039 0.0
C1650 C 0.67021 0.75284 0.04883 0.0
C1651 C 0.65615 0.74907 0.03026 0.0
C1652 C 0.64857 0.76107 0.02735 0.0
C1653 C 0.65518 0.77704 0.04435 0.0
C1654 C 0.66899 0.78063 0.06422 0.0
C1655 C 0.67689 0.76862 0.06588 0.0
H1656 H 0.32547 0.96695 0.04028 0.0
H1657 H 0.34282 0.93017 0.00169 0.0
H1658 H 0.31153 0.90231 0.0111 0.0
H1659 H 0.30286 0.93711 0.09319 0.0
H1660 H 0.28378 0.94224 0.09594 0.0
H1661 H 0.30613 0.95964 0.08216 0.0
H1662 H 0.28898 0.96084 0.03919 0.0
H1663 H 0.26651 0.94339 0.0529 0.0
H1664 H 0.27392 0.93918 0.02094 0.0
H1665 H 0.28023 0.87813 0.02946 0.0
H1666 H 0.25221 0.85944 0.05745 0.0
H1667 H 0.25444 0.9115 0.0841 0.0
C1668 C 0.32244 0.95309 0.03312 0.0
C1669 C 0.33651 0.95075 0.01998 0.0
C1670 C 0.33223 0.93232 0.01166 0.0
C1671 C 0.31444 0.91641 0.01679 0.0
C1672 C 0.30102 0.91909 0.03032 0.0
C1673 C 0.30477 0.93698 0.03839 0.0
C1674 C 0.28869 0.93569 0.05521 0.0
C1675 C 0.2958 0.94416 0.08328 0.0
C1676 C 0.27895 0.94535 0.04122 0.0
C1677 C 0.2757 0.9143 0.05614 0.0
C1678 C 0.2829 0.90501 0.04123 0.0
C1679 C 0.27423 0.88524 0.04077 0.0
C1680 C 0.25816 0.87469 0.05664 0.0
C1681 C 0.25091 0.88389 0.07296 0.0
C1682 C 0.25953 0.90396 0.07187 0.0
H1683 H 0.40671 0.08796 0.00258 0.0
H1684 H 0.35134 0.03702 -0.00261 0.0
H1685 H 0.33734 0.0564 0.98281 0.0
H1686 H 0.39007 0.12094 0.02488 0.0
H1687 H 0.40749 0.14011 0.00499 0.0
H1688 H 0.41266 0.12264 0.01845 0.0
H1689 H 0.42005 0.11538 0.97095 0.0
H1690 H 0.41504 0.13287 0.95745 0.0
H1691 H 0.40249 0.10878 0.94487 0.0
H1692 H 0.33022 0.08065 0.96319 0.0
H1693 H 0.33084 0.10753 0.93928 0.0
H1694 H 0.39054 0.14282 0.95829 0.0
C1695 C 0.39156 0.0809 -0.00104 0.0
C1696 C 0.3801 0.06094 0.00128 0.0
C1697 C 0.36039 0.05227 0.99589 0.0
C1698 C 0.3523 0.06319 0.98769 0.0
C1699 C 0.36406 0.0828 0.98519 0.0
C1700 C 0.38326 0.09159 0.99078 0.0
C1701 C 0.39311 0.11259 0.9843 0.0
C1702 C 0.40132 0.12479 0.00967 0.0
C1703 C 0.40857 0.11769 0.96313 0.0
C1704 C 0.37658 0.11416 0.97331 0.0
C1705 C 0.35988 0.09687 0.97431 0.0
C1706 C 0.3431 0.09435 0.96292 0.0
C1707 C 0.34353 0.10969 0.94949 0.0
C1708 C 0.36059 0.12734 0.94767 0.0
C1709 C 0.37716 0.1297 0.96036 0.0
H1710 H 0.94533 0.33409 0.97646 0.0
H1711 H 0.97829 0.31844 0.02763 0.0
H1712 H 0.95436 0.28441 0.02111 0.0
H1713 H 0.89777 0.29572 0.9946 0.0
H1714 H 0.88898 0.29255 0.96081 0.0
H1715 H 0.90735 0.31561 0.97218 0.0
H1716 H 0.92896 0.31695 0.93333 0.0
H1717 H 0.91059 0.29405 0.92173 0.0
H1718 H 0.93392 0.2978 0.92904 0.0
H1719 H 0.92753 0.25195 0.00694 0.0
H1720 H 0.90296 0.2242 0.98172 0.0
H1721 H 0.88844 0.26117 0.93824 0.0
C1722 C 0.94733 0.32351 0.98669 0.0
C1723 C 0.96353 0.32889 0.00286 0.0
C1724 C 0.96593 0.31462 0.01528 0.0
C1725 C 0.95234 0.29527 0.01183 0.0
C1726 C 0.93652 0.29043 0.99569 0.0
C1727 C 0.93411 0.30417 0.98304 0.0
C1728 C 0.91704 0.29526 0.96447 0.0
C1729 C 0.90189 0.30007 0.97357 0.0
C1730 C 0.92299 0.30137 0.93543 0.0
C1731 C 0.91037 0.27437 0.96826 0.0
C1732 C 0.92152 0.27183 0.98679 0.0
C1733 C 0.91861 0.25378 0.99262 0.0
C1734 C 0.90448 0.23805 0.97839 0.0
C1735 C 0.89364 0.2405 0.95827 0.0
C1736 C 0.89631 0.25885 0.95381 0.0
H1737 H 0.70803 0.66583 0.99064 0.0
H1738 H 0.69327 0.61211 0.02784 0.0
H1739 H 0.72462 0.6166 0.01628 0.0
H1740 H 0.73001 0.66043 0.93625 0.0
H1741 H 0.7488 0.6848 0.93389 0.0
H1742 H 0.72674 0.67934 0.94926 0.0
H1743 H 0.7447 0.6972 0.99228 0.0
H1744 H 0.76691 0.70283 0.97693 0.0
H1745 H 0.76046 0.69074 0.00848 0.0
H1746 H 0.75451 0.62366 0.99371 0.0
H1747 H 0.78096 0.63307 0.96289 0.0
H1748 H 0.77863 0.68394 0.94309 0.0
C1749 C 0.71166 0.65535 -0.00286 0.0
C1750 C 0.69818 0.63865 0.01025 0.0
C1751 C 0.70333 0.62504 0.01786 0.0
C1752 C 0.72117 0.6275 0.01147 0.0
C1753 C 0.73389 0.64377 -0.00226 0.0
C1754 C 0.72951 0.65762 0.99097 0.0
C1755 C 0.74504 0.67282 0.974 0.0
C1756 C 0.73717 0.67443 0.94675 0.0
C1757 C 0.75486 0.69204 0.98882 0.0
C1758 C 0.75825 0.66479 0.97112 0.0
C1759 C 0.75167 0.64816 0.98527 0.0
C1760 C 0.76017 0.63698 0.9832 0.0
C1761 C 0.77543 0.64261 0.96565 0.0
C1762 C 0.78225 0.65941 0.95034 0.0
C1763 C 0.77387 0.67095 0.95414 0.0
H1764 H 0.97194 0.66005 0.97102 0.0
H1765 H 0.93381 0.60514 0.00565 0.0
H1766 H 0.90662 0.60968 0.99614 0.0
H1767 H 0.94524 0.6844 0.99191 0.0
H1768 H 0.94987 0.69703 0.96088 0.0
H1769 H 0.96681 0.69096 0.97398 0.0
H1770 H 0.96525 0.67362 0.92964 0.0
H1771 H 0.94839 0.67967 0.91645 0.0
H1772 H 0.94258 0.65516 0.91729 0.0
H1773 H 0.88332 0.61819 0.97865 0.0
H1774 H 0.8653 0.62907 0.95193 0.0
H1775 H 0.91799 0.67897 0.92869 0.0
C1776 C 0.95791 0.64923 0.97718 0.0
C1777 C 0.955 0.6323 0.98928 0.0
C1778 C 0.93638 0.61823 0.9964 0.0
C1779 C 0.92084 0.62074 0.99124 0.0
C1780 C 0.92409 0.63739 0.97888 0.0
C1781 C 0.94214 0.65142 0.97185 0.0
C1782 C 0.94141 0.66701 0.95626 0.0
C1783 C 0.95143 0.68598 0.97169 0.0
C1784 C 0.9499 0.66897 0.92826 0.0
C1785 C 0.92013 0.6592 0.95487 0.0
C1786 C 0.91046 0.64229 0.96849 0.0
C1787 C 0.89072 0.63162 0.96836 0.0
C1788 C 0.88056 0.63806 0.95324 0.0
C1789 C 0.89011 0.65504 0.93827 0.0
C1790 C 0.91019 0.66598 0.9399 0.0
H1791 H 0.40819 0.32509 0.01081 0.0
H1792 H 0.35169 0.31613 0.02439 0.0
H1793 H 0.33801 0.28214 0.01267 0.0
H1794 H 0.3967 0.2977 0.95369 0.0
H1795 H 0.41233 0.28835 0.95974 0.0
H1796 H 0.41778 0.31093 0.97386 0.0
H1797 H 0.41916 0.29879 0.02105 0.0
H1798 H 0.4136 0.27607 0.00701 0.0
H1799 H 0.39908 0.27731 0.03315 0.0
H1800 H 0.33026 0.25041 0.9939 0.0
H1801 H 0.32898 0.22416 0.96703 0.0
H1802 H 0.39039 0.25359 0.96489 0.0
C1803 C 0.39298 0.31585 0.01213 0.0
C1804 C 0.38101 0.32322 0.01887 0.0
C1805 C 0.36113 0.31078 0.0195 0.0
C1806 C 0.35325 0.29142 0.013 0.0
C1807 C 0.36542 0.28469 0.00588 0.0
C1808 C 0.38487 0.29654 0.00539 0.0
C1809 C 0.39466 0.28635 0.99394 0.0
C1810 C 0.40602 0.29643 0.96882 0.0
C1811 C 0.40738 0.28452 0.01505 0.0
C1812 C 0.37765 0.26713 0.98716 0.0
C1813 C 0.36092 0.26634 0.99472 0.0
C1814 C 0.34327 0.25072 0.9884 0.0
C1815 C 0.34266 0.23585 0.97321 0.0
C1816 C 0.35958 0.23671 0.96437 0.0
C1817 C 0.37727 0.25229 0.97217 0.0
H1818 H 0.69202 0.08303 0.99375 0.0
H1819 H 0.70833 0.04736 0.03703 0.0
H1820 H 0.74211 0.06971 0.02663 0.0
H1821 H 0.72306 0.09146 0.94062 0.0
H1822 H 0.7281 0.11541 0.93472 0.0
H1823 H 0.70586 0.0984 0.94923 0.0
H1824 H 0.71251 0.12115 0.98948 0.0
H1825 H 0.73488 0.1382 0.97512 0.0
H1826 H 0.73417 0.12967 0.00845 0.0
H1827 H 0.77396 0.09523 0.00943 0.0
H1828 H 0.80033 0.1187 0.98174 0.0
H1829 H 0.7627 0.136 0.9465 0.0
C1830 C 0.70278 0.08022 0.0016 0.0
C1831 C 0.6977 0.06374 0.01671 0.0
C1832 C 0.71202 0.06005 0.02572 0.0
C1833 C 0.73122 0.07272 0.02002 0.0
C1834 C 0.73578 0.0888 0.00486 0.0
C1835 C 0.7219 0.0924 0.99543 0.0
C1836 C 0.73016 0.10923 0.97674 0.0
C1837 C 0.72127 0.10326 0.94868 0.0
C1838 C 0.72779 0.12553 0.98814 0.0
C1839 C 0.75082 0.11442 0.97679 0.0
C1840 C 0.75388 0.10279 0.99367 0.0
C1841 C 0.77174 0.10449 0.99633 0.0
C1842 C 0.78667 0.11796 0.9807 0.0
C1843 C 0.78358 0.12929 0.96227 0.0
C1844 C 0.7655 0.12771 0.96075 0.0
H1845 H 0.66682 0.96917 0.04025 0.0
H1846 H 0.61656 0.93061 0.99463 0.0
H1847 H 0.62203 0.90404 0.00518 0.0
H1848 H 0.69533 0.94606 0.02472 0.0
H1849 H 0.70505 0.95017 0.05806 0.0
H1850 H 0.69879 0.96656 0.04353 0.0
H1851 H 0.6771 0.96206 0.08388 0.0
H1852 H 0.68324 0.94566 0.09845 0.0
H1853 H 0.65868 0.93845 0.09248 0.0
H1854 H 0.63126 0.88093 0.02468 0.0
H1855 H 0.64275 0.86364 0.05291 0.0
H1856 H 0.68639 0.91734 0.086 0.0
C1857 C 0.65727 0.95525 0.03184 0.0
C1858 C 0.64138 0.95201 0.01639 0.0
C1859 C 0.62891 0.93346 0.00639 0.0
C1860 C 0.63193 0.91827 0.01221 0.0
C1861 C 0.64749 0.92184 0.02806 0.0
C1862 C 0.65998 0.93991 0.03769 0.0
C1863 C 0.6745 0.93971 0.05641 0.0
C1864 C 0.69461 0.95131 0.04499 0.0
C1865 C 0.67329 0.94689 0.08445 0.0
C1866 C 0.66794 0.91867 0.05641 0.0
C1867 C 0.65254 0.90857 0.03964 0.0
C1868 C 0.64346 0.88874 0.03762 0.0
C1869 C 0.65008 0.87902 0.05361 0.0
C1870 C 0.66538 0.88917 0.07158 0.0
C1871 C 0.67463 0.90924 0.0724 0.0
H1872 H 0.09213 0.69332 0.02474 0.0
H1873 H 0.04544 0.70317 0.00775 0.0
H1874 H 0.06623 0.73734 0.01813 0.0
H1875 H 0.10891 0.72246 0.0803 0.0
H1876 H 0.13368 0.73096 0.07417 0.0
H1877 H 0.11603 0.7081 0.06146 0.0
H1878 H 0.12921 0.71838 0.01368 0.0
H1879 H 0.14685 0.7414 0.02631 0.0
H1880 H 0.13099 0.73964 -0.00016 0.0
H1881 H 0.09071 0.76937 0.03616 0.0
H1882 H 0.11625 0.79602 0.06194 0.0
H1883 H 0.14712 0.76547 0.06644 0.0
C1884 C 0.08637 0.70271 0.02258 0.0
C1885 C 0.06716 0.69556 0.01526 0.0
C1886 C 0.06012 0.70832 0.01317 0.0
C1887 C 0.07186 0.72777 0.01891 0.0
C1888 C 0.09065 0.7343 0.02651 0.0
C1889 C 0.09787 0.72213 0.02826 0.0
C1890 C 0.11792 0.73225 0.0394 0.0
C1891 C 0.1192 0.72289 0.06537 0.0
C1892 C 0.13208 0.73296 0.01856 0.0
C1893 C 0.12064 0.75185 0.04462 0.0
C1894 C 0.10487 0.75285 0.03665 0.0
C1895 C 0.1033 0.7689 0.04189 0.0
C1896 C 0.11788 0.78399 0.05644 0.0
C1897 C 0.13382 0.78295 0.06557 0.0
C1898 C 0.13544 0.76692 0.0588 0.0
H1899 H 0.33303 0.40151 0.03281 0.0
H1900 H 0.32091 0.34578 0.00548 0.0
H1901 H 0.28699 0.33277 0.01649 0.0
H1902 H 0.30478 0.38517 0.08902 0.0
H1903 H 0.2972 0.40257 0.08832 0.0
H1904 H 0.31955 0.40801 0.07394 0.0
H1905 H 0.30916 0.41566 0.02892 0.0
H1906 H 0.28668 0.41013 0.0432 0.0
H1907 H 0.28735 0.39809 0.01323 0.0
H1908 H 0.25485 0.32536 0.03413 0.0
H1909 H 0.22859 0.32343 0.06131 0.0
H1910 H 0.2623 0.38362 0.07937 0.0
C1911 C 0.32313 0.38669 0.02841 0.0
C1912 C 0.32951 0.37471 0.01781 0.0
C1913 C 0.31627 0.35524 0.0133 0.0
C1914 C 0.29697 0.34776 0.01938 0.0
C1915 C 0.29117 0.35991 0.03021 0.0
C1916 C 0.30394 0.37894 0.03489 0.0
C1917 C 0.29472 0.38848 0.04981 0.0
C1918 C 0.30465 0.39652 0.07687 0.0
C1919 C 0.29446 0.40401 0.03277 0.0
C1920 C 0.27489 0.37177 0.05339 0.0
C1921 C 0.27295 0.3555 0.04139 0.0
C1922 C 0.25616 0.33807 0.04329 0.0
C1923 C 0.24125 0.33711 0.0586 0.0
C1924 C 0.24336 0.35341 0.07218 0.0
C1925 C 0.26023 0.37101 0.06888 0.0
H1926 H 0.72092 0.69094 0.36578 0.0
H1927 H 0.76147 0.73905 0.3195 0.0
H1928 H 0.78687 0.73246 0.33287 0.0
H1929 H 0.75058 0.69945 0.41999 0.0
H1930 H 0.74229 0.67485 0.42738 0.0
H1931 H 0.7268 0.68142 0.41084 0.0
H1932 H 0.72177 0.65813 0.37195 0.0
H1933 H 0.73719 0.65138 0.38848 0.0
H1934 H 0.74209 0.66005 0.35476 0.0
H1935 H 0.8086 0.72248 0.35517 0.0
H1936 H 0.82447 0.71056 0.38544 0.0
H1937 H 0.76971 0.66952 0.41739 0.0
C1938 C 0.73502 0.69974 0.3578 0.0
C1939 C 0.73916 0.71538 0.34134 0.0
C1940 C 0.75793 0.7269 0.33198 0.0
C1941 C 0.77246 0.72324 0.33942 0.0
C1942 C 0.76802 0.70801 0.35628 0.0
C1943 C 0.74971 0.6964 0.36528 0.0
C1944 C 0.74896 0.68211 0.38521 0.0
C1945 C 0.74174 0.68462 0.41246 0.0
C1946 C 0.73678 0.66171 0.37445 0.0
C1947 C 0.76973 0.68781 0.38658 0.0
C1948 C 0.78052 0.70257 0.36948 0.0
C1949 C 0.80024 0.71077 0.3684 0.0
C1950 C 0.80915 0.70391 0.38558 0.0
C1951 C 0.79834 0.68921 0.40381 0.0
C1952 C 0.77836 0.68086 0.40377 0.0
H1953 H 0.32774 0.03705 0.36803 0.0
H1954 H 0.27649 0.02561 0.32568 0.0
H1955 H 0.28239 0.05769 0.33773 0.0
H1956 H 0.3212 0.05964 0.42217 0.0
H1957 H 0.34592 0.07692 0.42713 0.0
H1958 H 0.33928 0.05437 0.41173 0.0
H1959 H 0.35989 0.07157 0.37064 0.0
H1960 H 0.36667 0.09423 0.386 0.0
H1961 H 0.35606 0.08871 0.35316 0.0
H1962 H 0.29223 0.09002 0.35868 0.0
H1963 H 0.30459 0.11875 0.38775 0.0
H1964 H 0.349 0.10851 0.41626 0.0
C1965 C 0.31805 0.04147 0.36063 0.0
C1966 C 0.30175 0.02886 0.34568 0.0
C1967 C 0.28914 0.03506 0.33701 0.0
C1968 C 0.29241 0.05329 0.34371 0.0
C1969 C 0.30836 0.06522 0.35906 0.0
C1970 C 0.32101 0.05955 0.36732 0.0
C1971 C 0.33608 0.07423 0.38569 0.0
C1972 C 0.33557 0.06579 0.41331 0.0
C1973 C 0.35585 0.08269 0.37311 0.0
C1974 C 0.32964 0.08878 0.38712 0.0
C1975 C 0.31381 0.08355 0.37135 0.0
C1976 C 0.30478 0.09436 0.37082 0.0
C1977 C 0.31189 0.11067 0.38729 0.0
C1978 C 0.32767 0.11578 0.40424 0.0
C1979 C 0.33686 0.10491 0.40351 0.0
H1980 H 0.99524 0.26854 0.36587 0.0
H1981 H 0.98827 0.31805 0.36148 0.0
H1982 H 0.95448 0.29813 0.37354 0.0
H1983 H 0.94721 0.23331 0.34039 0.0
H1984 H 0.94534 0.21526 0.36294 0.0
H1985 H 0.96824 0.23289 0.35067 0.0
H1986 H 0.98068 0.24232 0.39924 0.0
H1987 H 0.95792 0.22468 0.41158 0.0
H1988 H 0.96803 0.24911 0.4222 0.0
H1989 H 0.92281 0.27376 0.39228 0.0
H1990 H 0.89627 0.24715 0.41612 0.0
H1991 H 0.92338 0.21331 0.40635 0.0
C1992 C 0.98654 0.27516 0.36689 0.0
C1993 C 0.99443 0.29488 0.36263 0.0
C1994 C 0.98256 0.30297 0.36451 0.0
C1995 C 0.96331 0.29174 0.37127 0.0
C1996 C 0.95607 0.27238 0.37578 0.0
C1997 C 0.96732 0.26414 0.37347 0.0
C1998 C 0.95658 0.2434 0.38135 0.0
C1999 C 0.9542 0.23045 0.3574 0.0
C2000 C 0.96638 0.23967 0.40499 0.0
C2001 C 0.93773 0.24138 0.38938 0.0
C2002 C 0.93762 0.2582 0.38578 0.0
C2003 C 0.92252 0.26038 0.39448 0.0
C2004 C 0.90746 0.24519 0.40784 0.0
C2005 C 0.90754 0.22804 0.41214 0.0
C2006 C 0.92263 0.22599 0.4022 0.0
H2007 H 0.03478 0.39361 0.31821 0.0
H2008 H 0.09354 0.42911 0.34276 0.0
H2009 H 0.09175 0.45778 0.33229 0.0
H2010 H 0.03745 0.42033 0.26263 0.0
H2011 H 1.014 0.41721 0.26573 0.0
H2012 H 0.01897 0.39957 0.27879 0.0
H2013 H 1.00722 0.40312 0.32533 0.0
H2014 H 1.00229 0.42088 0.31237 0.0
H2015 H 0.01767 0.42626 0.341 0.0
H2016 H 0.08487 0.48244 0.31475 0.0
H2017 H 0.07408 0.50094 0.28874 0.0
H2018 H 0.0195 0.44993 0.27606 0.0
C2019 C 0.04711 0.40743 0.32195 0.0
C2020 C 0.06427 0.4091 0.33148 0.0
C2021 C 0.08024 0.42745 0.33552 0.0
C2022 C 0.07933 0.44385 0.32979 0.0
C2023 C 0.06233 0.44175 0.32003 0.0
C2024 C 0.0465 0.42401 0.31609 0.0
C2025 C 0.03059 0.4257 0.30292 0.0
C2026 C 0.02493 0.41508 0.27592 0.0
C2027 C 1.01343 0.41857 0.32152 0.0
C2028 C 0.04019 0.44706 0.29928 0.0
C2029 C 0.05838 0.45608 0.30972 0.0
C2030 C 0.07053 0.47559 0.30693 0.0
C2031 C 0.06419 0.48605 0.29227 0.0
C2032 C 0.04588 0.477 0.28038 0.0
C2033 C 0.03356 0.45734 0.28488 0.0
H2034 H 0.64716 0.65449 0.3146 0.0
H2035 H 0.60831 0.66159 0.36594 0.0
H2036 H 0.58332 0.62853 0.35605 0.0
H2037 H 0.61448 0.63029 0.26451 0.0
H2038 H 0.62336 0.61463 0.25572 0.0
H2039 H 0.63904 0.63749 0.27048 0.0
H2040 H 0.64766 0.62132 0.30813 0.0
H2041 H 0.63195 0.59834 0.29343 0.0
H2042 H 0.62903 0.60303 0.32779 0.0
H2043 H 0.56143 0.59578 0.33659 0.0
H2044 H 0.54441 0.56746 0.30705 0.0
H2045 H 0.59734 0.58221 0.26782 0.0
C2046 C 0.63358 0.64889 0.32441 0.0
C2047 C 0.62976 0.66053 0.34132 0.0
C2048 C 0.6116 0.65288 0.35307 0.0
C2049 C 0.59733 0.63407 0.34766 0.0
C2050 C 0.60139 0.62308 0.33037 0.0
C2051 C 0.6191 0.63024 0.3189 0.0
C2052 C 0.61924 0.61636 0.29868 0.0
C2053 C 0.62432 0.62522 0.27071 0.0
C2054 C 0.63277 0.60935 0.30755 0.0
C2055 C 0.59873 0.60057 0.29994 0.0
C2056 C 0.58871 0.60447 0.31871 0.0
C2057 C 0.56921 0.59245 0.32212 0.0
C2058 C 0.55965 0.57636 0.30539 0.0
C2059 C 0.56957 0.57265 0.28529 0.0
C2060 C 0.58943 0.58466 0.28317 0.0
H2061 H 0.37273 0.99802 0.33363 0.0
H2062 H 0.35337 0.94287 0.36946 0.0
H2063 H 0.38379 0.94491 0.35847 0.0
H2064 H 0.39425 0.99125 0.27947 0.0
H2065 H 0.41428 0.01503 0.2781 0.0
H2066 H 0.39244 0.01097 0.29274 0.0
H2067 H 0.41024 0.02736 0.33657 0.0
H2068 H 0.43223 0.03159 0.32196 0.0
H2069 H 0.42443 0.01907 0.35308 0.0
H2070 H 0.41351 0.95009 0.33684 0.0
H2071 H 0.4405 0.95841 0.30732 0.0
H2072 H 0.44267 0.01164 0.28841 0.0
C2073 C 0.37514 0.98667 0.33993 0.0
C2074 C 0.36064 0.97032 0.35252 0.0
C2075 C 0.36423 0.95558 0.3599 0.0
C2076 C 0.38153 0.95662 0.3538 0.0
C2077 C 0.39529 0.97261 0.34061 0.0
C2078 C 0.39243 0.98752 0.33408 0.0
C2079 C 0.40888 1.00228 0.31785 0.0
C2080 C 0.40205 1.00503 0.29042 0.0
C2081 C 0.41958 0.0212 0.3333 0.0
C2082 C 0.42089 0.99286 0.31519 0.0
C2083 C 0.4129 0.97587 0.32872 0.0
C2084 C 0.42023 0.96364 0.32678 0.0
C2085 C 0.43579 0.96863 0.31001 0.0
C2086 C 0.44405 0.9858 0.29535 0.0
C2087 C 0.43679 0.99833 0.29899 0.0
H2088 H 0.63689 0.99085 0.31719 0.0
H2089 H 0.60125 0.93622 0.3542 0.0
H2090 H 0.57303 0.93924 0.3454 0.0
H2091 H 0.60888 0.01385 0.33823 0.0
H2092 H 0.61251 0.02576 0.30675 0.0
H2093 H 0.63031 0.02087 0.3197 0.0
H2094 H 0.62878 1.00301 0.2759 0.0
H2095 H 0.61105 1.00787 0.26285 0.0
H2096 H 0.60626 0.98371 0.26452 0.0
H2097 H 0.54835 0.94616 0.32797 0.0
H2098 H 0.52905 0.95548 0.30101 0.0
H2099 H 0.58031 1.00601 0.27554 0.0
C2100 C 0.62321 0.9798 0.3241 0.0
C2101 C 0.6213 0.96338 0.33664 0.0
C2102 C 0.60307 0.94896 0.34468 0.0
C2103 C 0.58695 0.95059 0.33989 0.0
C2104 C 0.58923 0.96675 0.32701 0.0
C2105 C 0.6069 0.98112 0.3192 0.0
C2106 C 0.60516 0.99598 0.30317 0.0
C2107 C 0.61479 0.01526 0.31785 0.0
C2108 C 0.61329 0.99773 0.27495 0.0
C2109 C 0.58376 0.98738 0.30241 0.0
C2110 C 0.57487 0.9707 0.3167 0.0
C2111 C 0.55516 0.9594 0.31715 0.0
C2112 C 0.54426 0.96493 0.3019 0.0
C2113 C 0.55305 0.98159 0.28619 0.0
C2114 C 0.57308 0.99323 0.28733 0.0
H2115 H 0.07937 0.67024 0.32169 0.0
H2116 H 0.02279 0.65907 0.34109 0.0
H2117 H 1.00997 0.625 0.33074 0.0
H2118 H 0.0661 0.64058 0.26604 0.0
H2119 H 0.08299 0.63268 0.27127 0.0
H2120 H 0.08795 0.65549 0.28389 0.0
H2121 H 0.09253 0.64589 0.33138 0.0
H2122 H 0.0874 0.62293 0.31886 0.0
H2123 H 0.07381 0.62454 0.34606 0.0
H2124 H 1.00279 0.59302 0.31317 0.0
H2125 H 1.0017 0.56628 0.28769 0.0
H2126 H 0.06284 0.59794 0.28003 0.0
C2127 C 0.06434 0.66057 0.32437 0.0
C2128 C 0.0521 0.66734 0.33244 0.0
C2129 C 0.03246 0.65424 0.33509 0.0
C2130 C 0.02507 0.63482 0.32937 0.0
C2131 C 0.03748 0.62866 0.32111 0.0
C2132 C 0.05672 0.64116 0.31861 0.0
C2133 C 0.06674 0.6313 0.30688 0.0
C2134 C 0.07651 0.64056 0.28046 0.0
C2135 C 0.08096 0.63116 0.32701 0.0
C2136 C 0.05007 0.61144 0.30235 0.0
C2137 C 0.03335 0.61013 0.31109 0.0
C2138 C 0.01583 0.59374 0.30681 0.0
C2139 C 0.01533 0.57859 0.29246 0.0
C2140 C 0.03222 0.57989 0.28258 0.0
C2141 C 0.04982 0.59631 0.28829 0.0
H2142 H 0.36935 0.42704 0.32704 0.0
H2143 H 0.38136 0.38464 0.35897 0.0
H2144 H 0.41542 0.40542 0.34858 0.0
H2145 H 0.39852 0.43754 0.27204 0.0
H2146 H 0.40584 0.46247 0.27141 0.0
H2147 H 0.38331 0.44575 0.28544 0.0
H2148 H 0.39282 0.46512 0.32973 0.0
H2149 H 0.41551 0.48184 0.31582 0.0
H2150 H 0.41441 0.47003 0.34665 0.0
H2151 H 0.44773 0.42975 0.33102 0.0
H2152 H 0.47413 0.45314 0.30327 0.0
H2153 H 0.44043 0.47872 0.28123 0.0
C2154 C 0.37922 0.42232 0.3325 0.0
C2155 C 0.37278 0.40436 0.3442 0.0
C2156 C 0.38603 0.39843 0.3502 0.0
C2157 C 0.40541 0.41019 0.34452 0.0
C2158 C 0.41126 0.42777 0.33268 0.0
C2159 C 0.39848 0.43371 0.32654 0.0
C2160 C 0.4078 0.45203 0.3109 0.0
C2161 C 0.39831 0.44927 0.28332 0.0
C2162 C 0.40762 0.46821 0.32673 0.0
C2163 C 0.42774 0.45526 0.30854 0.0
C2164 C 0.42963 0.4414 0.32177 0.0
C2165 C 0.44647 0.44081 0.32092 0.0
C2166 C 0.46146 0.45425 0.30531 0.0
C2167 C 0.45936 0.46785 0.29042 0.0
C2168 C 0.44249 0.46867 0.2928 0.0
H2169 H 0.28554 0.27627 0.37583 0.0
H2170 H 0.33996 0.31594 0.3415 0.0
H2171 H 0.3515 0.29349 0.35071 0.0
H2172 H 0.30436 0.26348 0.4295 0.0
H2173 H 0.28557 0.23902 0.43021 0.0
H2174 H 0.28093 0.257 0.41762 0.0
H2175 H 0.26865 0.23817 0.37314 0.0
H2176 H 0.27337 0.22016 0.38559 0.0
H2177 H 0.28367 0.23185 0.35459 0.0
H2178 H 0.35764 0.26733 0.36628 0.0
H2179 H 0.35899 0.2417 0.39095 0.0
H2180 H 0.30102 0.22 0.41673 0.0
C2181 C 0.29976 0.28007 0.36971 0.0
C2182 C 0.31178 0.29774 0.35759 0.0
C2183 C 0.33047 0.30242 0.35064 0.0
C2184 C 0.3371 0.28971 0.35567 0.0
C2185 C 0.32492 0.27244 0.36788 0.0
C2186 C 0.30668 0.26771 0.37502 0.0
C2187 C 0.29706 0.24924 0.39034 0.0
C2188 C 0.29167 0.25239 0.41859 0.0
C2189 C 0.27966 0.23395 0.37499 0.0
C2190 C 0.31282 0.24446 0.39116 0.0
C2191 C 0.32865 0.25778 0.37764 0.0
C2192 C 0.34525 0.25673 0.37669 0.0
C2193 C 0.34585 0.24204 0.39058 0.0
C2194 C 0.33007 0.22879 0.40555 0.0
C2195 C 0.31323 0.22983 0.40524 0.0
H2196 H 0.75669 0.0366 0.34807 0.0
H2197 H 0.7045 0.03818 0.35734 0.0
H2198 H 0.723 0.07147 0.37334 0.0
H2199 H 0.77773 0.06002 0.40601 0.0
H2200 H 0.80157 0.07292 0.39333 0.0
H2201 H 0.78462 0.0507 0.37816 0.0
H2202 H 0.79049 0.06712 0.3322 0.0
H2203 H 0.80747 0.08949 0.34734 0.0
H2204 H 0.78766 0.08764 0.32862 0.0
H2205 H 0.74655 0.10237 0.39541 0.0
H2206 H 0.77294 0.12786 0.42164 0.0
H2207 H 0.80983 0.10654 0.39684 0.0
C2208 C 0.74916 0.04409 0.35272 0.0
C2209 C 0.72912 0.03479 0.35131 0.0
C2210 C 0.71983 0.04503 0.35805 0.0
C2211 C 0.73025 0.06398 0.3671 0.0
C2212 C 0.74996 0.07257 0.36897 0.0
C2213 C 0.75933 0.06297 0.36171 0.0
C2214 C 0.78033 0.07458 0.36816 0.0
C2215 C 0.7864 0.06392 0.38757 0.0
C2216 C 0.79219 0.08003 0.34255 0.0
C2217 C 0.78123 0.09185 0.38131 0.0
C2218 C 0.76362 0.09058 0.38123 0.0
C2219 C 0.7605 0.10378 0.39492 0.0
C2220 C 0.77555 0.11824 0.40971 0.0
C2221 C 0.7935 0.11942 0.41062 0.0
C2222 C 0.79647 0.1064 0.39556 0.0
H2223 H 1.00104 0.74165 0.3781 0.0
H2224 H 0.98769 0.69164 0.33066 0.0
H2225 H 0.95347 0.67868 0.3396 0.0
H2226 H 0.9683 0.71646 0.42886 0.0
H2227 H 0.96245 0.73475 0.43557 0.0
H2228 H 0.98536 0.74101 0.42239 0.0
H2229 H 0.97958 0.75801 0.38289 0.0
H2230 H 0.95651 0.75157 0.39584 0.0
H2231 H 0.95876 0.74503 0.36217 0.0
H2232 H 0.92078 0.67067 0.35541 0.0
H2233 H 0.89321 0.6659 0.38206 0.0
H2234 H 0.92828 0.72019 0.42153 0.0
C2235 C 0.99086 0.72813 0.3692 0.0
C2236 C 0.99691 0.71775 0.35333 0.0
C2237 C 0.98328 0.69984 0.34272 0.0
C2238 C 0.96383 0.69246 0.34754 0.0
C2239 C 0.9583 0.70306 0.36332 0.0
C2240 C 0.97147 0.72038 0.37435 0.0
C2241 C 0.96213 0.72793 0.39308 0.0
C2242 C 0.97002 0.73016 0.42166 0.0
C2243 C 0.96438 0.74675 0.38287 0.0
C2244 C 0.94167 0.71206 0.39118 0.0
C2245 C 0.93966 0.69805 0.37343 0.0
C2246 C 0.92218 0.68162 0.36917 0.0
C2247 C 0.90654 0.67911 0.3842 0.0
C2248 C 0.90858 0.69279 0.40356 0.0
C2249 C 0.92628 0.70967 0.40652 0.0
H2250 H 0.3912 0.02516 0.70682 0.0
H2251 H 0.4323 0.07175 0.65884 0.0
H2252 H 0.45673 0.06341 0.67068 0.0
H2253 H 0.42189 0.03292 0.7595 0.0
H2254 H 0.41259 1.00824 0.76753 0.0
H2255 H 0.39756 0.01568 0.75167 0.0
H2256 H 0.39028 0.99135 0.71334 0.0
H2257 H 0.4053 0.9838 0.72917 0.0
H2258 H 0.40959 0.99184 0.69513 0.0
H2259 H 0.47754 0.05204 0.69132 0.0
H2260 H 0.49324 0.03984 0.72133 0.0
H2261 H 0.43888 1.00151 0.75691 0.0
C2262 C 0.40519 0.03322 0.69818 0.0
C2263 C 0.40981 0.04893 0.68162 0.0
C2264 C 0.42844 0.05956 0.67141 0.0
C2265 C 0.44239 0.05489 0.67793 0.0
C2266 C 0.43753 0.03959 0.69483 0.0
C2267 C 0.41937 0.02893 0.70486 0.0
C2268 C 0.41836 0.01462 0.72499 0.0
C2269 C 0.41225 0.01809 0.75254 0.0
C2270 C 0.4051 0.99419 0.71505 0.0
C2271 C 0.43886 0.01927 0.72527 0.0
C2272 C 0.44964 0.03343 0.70736 0.0
C2273 C 0.46919 0.04076 0.70518 0.0
C2274 C 0.47799 0.03373 0.7222 0.0
C2275 C 0.46727 0.01977 0.74137 0.0
C2276 C 0.44741 0.01219 0.74239 0.0
H2277 H 1.00005 0.36353 0.70858 0.0
H2278 H 0.94446 0.34809 0.67693 0.0
H2279 H 0.95083 0.38077 0.68559 0.0
H2280 H 0.99854 0.39012 0.76195 0.0
H2281 H 0.02339 0.40781 0.76134 0.0
H2282 H 0.0156 0.38422 0.74886 0.0
H2283 H 0.03158 0.39817 0.70348 0.0
H2284 H 0.03938 0.42185 0.71586 0.0
H2285 H 0.02548 0.41359 0.68559 0.0
H2286 H 0.96214 0.41446 0.70185 0.0
H2287 H 0.97659 0.4451 0.7269 0.0
H2288 H 0.0242 0.43794 0.74854 0.0
C2289 C 0.98942 0.36716 0.70283 0.0
C2290 C 0.97184 0.35331 0.69182 0.0
C2291 C 0.95808 0.35849 0.68526 0.0
C2292 C 0.9616 0.37706 0.68999 0.0
C2293 C 0.97895 0.3903 0.70134 0.0
C2294 C 0.99262 0.38555 0.70771 0.0
C2295 C 1.00925 0.40171 0.72224 0.0
C2296 C 1.01183 0.39559 0.75025 0.0
C2297 C 0.0275 0.40928 0.7058 0.0
C2298 C 1.0026 0.41609 0.72371 0.0
C2299 C 0.98526 0.40946 0.71114 0.0
C2300 C 0.97585 0.4199 0.71142 0.0
C2301 C 0.98415 0.4373 0.72554 0.0
C2302 C 1.0015 0.44383 0.7394 0.0
C2303 C 1.01099 0.43329 0.73782 0.0
H2304 H 0.65815 0.59331 0.692 0.0
H2305 H 0.64868 0.64116 0.68501 0.0
H2306 H 0.61498 0.62029 0.69678 0.0
H2307 H 0.61072 0.55615 0.66672 0.0
H2308 H 0.60961 0.53889 0.69016 0.0
H2309 H 0.63224 0.55694 0.67767 0.0
H2310 H 0.64438 0.56765 0.72611 0.0
H2311 H 0.62191 0.54957 0.73866 0.0
H2312 H 0.63103 0.57405 0.74831 0.0
H2313 H 0.58369 0.59537 0.7157 0.0
H2314 H 0.55792 0.56876 0.74058 0.0
H2315 H 0.58726 0.53686 0.73336 0.0
C2316 C 0.64892 0.59934 0.69236 0.0
C2317 C 0.65608 0.61889 0.68747 0.0
C2318 C 0.64353 0.62622 0.68854 0.0
C2319 C 0.62433 0.61445 0.69511 0.0
C2320 C 0.61781 0.5953 0.70026 0.0
C2321 C 0.62973 0.58778 0.69877 0.0
C2322 C 0.61971 0.56719 0.70742 0.0
C2323 C 0.61797 0.55402 0.68409 0.0
C2324 C 0.62986 0.56447 0.73155 0.0
C2325 C 0.60049 0.56446 0.71497 0.0
C2326 C 0.59957 0.58076 0.71041 0.0
C2327 C 0.58404 0.58235 0.71862 0.0
C2328 C 0.56941 0.56716 0.73257 0.0
C2329 C 0.57035 0.55057 0.73795 0.0
C2330 C 0.58583 0.54905 0.72836 0.0
H2331 H 0.73518 0.74891 0.65608 0.0
H2332 H 0.67775 0.70107 0.65969 0.0
H2333 H 0.66523 0.72246 0.64904 0.0
H2334 H 0.72474 0.78525 0.68364 0.0
H2335 H 0.74126 0.80331 0.66148 0.0
H2336 H 0.74556 0.78472 0.67266 0.0
H2337 H 0.74764 0.77571 0.62354 0.0
H2338 H 0.74357 0.79435 0.61232 0.0
H2339 H 0.72827 0.77027 0.60091 0.0
H2340 H 0.65927 0.7482 0.632 0.0
H2341 H 0.6606 0.7758 0.60915 0.0
H2342 H 0.72166 0.80705 0.61851 0.0
C2343 C 0.71994 0.74296 0.65514 0.0
C2344 C 0.70744 0.72329 0.6588 0.0
C2345 C 0.68762 0.71608 0.65707 0.0
C2346 C 0.68037 0.72815 0.65114 0.0
C2347 C 0.69312 0.74745 0.64731 0.0
C2348 C 0.7125 0.75481 0.64937 0.0
C2349 C 0.72326 0.77569 0.64223 0.0
C2350 C 0.73436 0.78797 0.66645 0.0
C2351 C 0.73645 0.7792 0.61833 0.0
C2352 C 0.70695 0.77881 0.63487 0.0
C2353 C 0.68964 0.76241 0.63824 0.0
C2354 C 0.67269 0.76126 0.63001 0.0
C2355 C 0.67352 0.77701 0.61724 0.0
C2356 C 0.69115 0.7937 0.61305 0.0
C2357 C 0.70796 0.79475 0.62265 0.0
H2358 H 0.27836 1.00327 0.65197 0.0
H2359 H 0.31893 0.98926 0.68571 0.0
H2360 H 0.29616 0.95503 0.67814 0.0
H2361 H 0.23442 0.96112 0.67524 0.0
H2362 H 0.222 0.95907 0.64445 0.0
H2363 H 0.24023 0.98209 0.65621 0.0
H2364 H 0.25801 0.98773 0.61134 0.0
H2365 H 0.23976 0.96488 0.59944 0.0
H2366 H 0.26418 0.97049 0.59964 0.0
H2367 H 0.26979 0.92239 0.66336 0.0
H2368 H 0.24431 0.8952 0.63818 0.0
H2369 H 0.22171 0.93087 0.61275 0.0
C2370 C 0.28228 0.99298 0.65838 0.0
C2371 C 0.30032 0.99891 0.6698 0.0
C2372 C 0.30513 0.98502 0.67711 0.0
C2373 C 0.29223 0.96555 0.67303 0.0
C2374 C 0.27461 0.96017 0.66145 0.0
C2375 C 0.26972 0.97355 0.65403 0.0
C2376 C 0.25093 0.96438 0.63915 0.0
C2377 C 0.23601 0.96681 0.6547 0.0
C2378 C 0.25338 0.97234 0.61072 0.0
C2379 C 0.24617 0.94381 0.63878 0.0
C2380 C 0.25976 0.94155 0.65225 0.0
C2381 C 0.25894 0.92397 0.65309 0.0
C2382 C 0.24432 0.90854 0.63895 0.0
C2383 C 0.23092 0.91088 0.62385 0.0
C2384 C 0.23158 0.92861 0.62455 0.0
H2385 H 0.03664 0.28361 0.67272 0.0
H2386 H 0.04397 0.33982 0.68505 0.0
H2387 H 0.07761 0.35418 0.67189 0.0
H2388 H 0.08545 0.29505 0.69357 0.0
H2389 H 0.08644 0.27999 0.66779 0.0
H2390 H 0.06401 0.27415 0.68259 0.0
H2391 H 0.05011 0.27353 0.63573 0.0
H2392 H 0.07239 0.27923 0.62087 0.0
H2393 H 0.06214 0.29406 0.61466 0.0
H2394 H 0.10892 0.36236 0.6516 0.0
H2395 H 0.1345 0.36362 0.62362 0.0
H2396 H 0.10689 0.30218 0.62434 0.0
C2397 C 0.04545 0.29894 0.6734 0.0
C2398 C 0.03771 0.31059 0.68019 0.0
C2399 C 0.0496 0.3306 0.68012 0.0
C2400 C 0.06876 0.33888 0.6728 0.0
C2401 C 0.07585 0.32697 0.66568 0.0
C2402 C 0.06453 0.30741 0.66596 0.0
C2403 C 0.07486 0.29779 0.65452 0.0
C2404 C 0.07787 0.28605 0.6759 0.0
C2405 C 0.06425 0.28544 0.62999 0.0
C2406 C 0.09352 0.31498 0.64678 0.0
C2407 C 0.09395 0.33169 0.65387 0.0
C2408 C 0.10891 0.34939 0.6465 0.0
C2409 C 0.12341 0.34999 0.63069 0.0
C2410 C 0.12284 0.33302 0.62234 0.0
C2411 C 0.10801 0.31536 0.63126 0.0
H2412 H 0.26086 0.27772 0.67003 0.0
H2413 H 0.31065 0.3328 0.68513 0.0
H2414 H 0.29231 0.34846 0.67298 0.0
H2415 H 0.2469 0.29058 0.61268 0.0
H2416 H 0.22174 0.27619 0.61825 0.0
H2417 H 0.23773 0.26939 0.63254 0.0
H2418 H 0.22434 0.2691 0.67953 0.0
H2419 H 0.20836 0.27606 0.66531 0.0
H2420 H 0.22442 0.29005 0.69182 0.0
H2421 H 0.26995 0.35817 0.65381 0.0
H2422 H 0.24625 0.36115 0.62644 0.0
H2423 H 0.2111 0.29983 0.62333 0.0
C2424 C 0.26778 0.29306 0.67151 0.0
C2425 C 0.28715 0.30404 0.67882 0.0
C2426 C 0.2958 0.3241 0.67977 0.0
C2427 C 0.28546 0.33311 0.67304 0.0
C2428 C 0.26646 0.32187 0.66545 0.0
C2429 C 0.25771 0.30226 0.66463 0.0
C2430 C 0.23789 0.29351 0.65283 0.0
C2431 C 0.23597 0.28174 0.62758 0.0
C2432 C 0.22287 0.28147 0.67362 0.0
C2433 C 0.23708 0.31126 0.64621 0.0
C2434 C 0.25356 0.32747 0.65415 0.0
C2435 C 0.25684 0.34559 0.648 0.0
C2436 C 0.2433 0.34716 0.63252 0.0
C2437 C 0.22672 0.33073 0.62322 0.0
C2438 C 0.22333 0.31261 0.63095 0.0
H2439 H 0.73332 0.98633 0.67694 0.0
H2440 H 0.67873 0.98332 0.66976 0.0
H2441 H 0.66441 0.95007 0.65378 0.0
H2442 H 0.7303 0.96281 0.6186 0.0
H2443 H 0.74203 0.95045 0.63073 0.0
H2444 H 0.74707 0.97261 0.64587 0.0
H2445 H 0.73788 0.95643 0.6921 0.0
H2446 H 0.73271 0.93412 0.67699 0.0
H2447 H 0.71489 0.9356 0.69645 0.0
H2448 H 0.65731 0.91922 0.63185 0.0
H2449 H 0.65827 0.89379 0.6056 0.0
H2450 H 0.71716 0.91648 0.6281 0.0
C2451 C 0.71823 0.97853 0.67273 0.0
C2452 C 0.70713 0.98743 0.67477 0.0
C2453 C 0.68751 0.9768 0.66855 0.0
C2454 C 0.67923 0.95786 0.65953 0.0
C2455 C 0.69071 0.94968 0.6571 0.0
C2456 C 0.70977 0.95966 0.66373 0.0
C2457 C 0.71946 0.94839 0.6568 0.0
C2458 C 0.73566 0.95921 0.63681 0.0
C2459 C 0.72666 0.94333 0.6821 0.0
C2460 C 0.70307 0.93083 0.64416 0.0
C2461 C 0.68652 0.9317 0.64487 0.0
C2462 C 0.67004 0.91814 0.63183 0.0
C2463 C 0.67067 0.90371 0.61704 0.0
C2464 C 0.68763 0.90292 0.61548 0.0
C2465 C 0.70382 0.91633 0.62988 0.0
H2466 H 0.02787 0.75064 0.64306 0.0
H2467 H 0.04282 0.7141 0.6869 0.0
H2468 H 0.07688 0.73681 0.67913 0.0
H2469 H 0.06113 0.76126 0.59248 0.0
H2470 H 0.06615 0.78533 0.58793 0.0
H2471 H 0.04341 0.76765 0.60032 0.0
H2472 H 0.04819 0.78886 0.64182 0.0
H2473 H 0.07108 0.80655 0.62961 0.0
H2474 H 0.06905 0.79681 0.66245 0.0
H2475 H 0.10936 0.76273 0.66392 0.0
H2476 H 0.13658 0.78702 0.63816 0.0
H2477 H 0.10003 0.80551 0.60253 0.0
C2478 C 0.03833 0.74763 0.65155 0.0
C2479 C 0.03273 0.73075 0.66595 0.0
C2480 C 0.04682 0.72701 0.67598 0.0
C2481 C 0.0662 0.7399 0.6718 0.0
C2482 C 0.07125 0.75637 0.65731 0.0
C2483 C 0.05767 0.76013 0.64711 0.0
C2484 C 0.06656 0.77763 0.6297 0.0
C2485 C 0.05886 0.77266 0.60091 0.0
C2486 C 0.06354 0.7934 0.64162 0.0
C2487 C 0.08724 0.78297 0.63125 0.0
C2488 C 0.08976 0.77081 0.64775 0.0
C2489 C 0.10756 0.77244 0.6512 0.0
C2490 C 0.12298 0.78637 0.63669 0.0
C2491 C 0.12042 0.79826 0.61865 0.0
C2492 C 0.10242 0.7968 0.61652 0.0
H2493 H 0.95917 0.60204 0.7064 0.0
H2494 H 1.01087 0.63897 0.66372 0.0
H2495 H 0.02277 0.61679 0.67299 0.0
H2496 H 0.98192 0.59225 0.75864 0.0
H2497 H 0.96305 0.56812 0.76314 0.0
H2498 H 0.95782 0.58559 0.75009 0.0
H2499 H 0.9419 0.5641 0.7086 0.0
H2500 H 0.9473 0.54664 0.72144 0.0
H2501 H 0.95517 0.55629 0.68863 0.0
H2502 H 0.02949 0.59109 0.68877 0.0
H2503 H 0.03252 0.56697 0.71493 0.0
H2504 H 0.97722 0.5481 0.74944 0.0
C2505 C 0.97286 0.60528 0.69858 0.0
C2506 C 0.98401 0.62205 0.68399 0.0
C2507 C 1.00208 0.62612 0.6748 0.0
C2508 C 1.00887 0.61354 0.67982 0.0
C2509 C 0.9975 0.59709 0.69433 0.0
C2510 C 0.97999 0.59311 0.70392 0.0
C2511 C 0.97143 0.57569 0.72146 0.0
C2512 C 0.96839 0.58072 0.75002 0.0
C2513 C 0.95285 0.55974 0.7093 0.0
C2514 C 0.98696 0.57059 0.7206 0.0
C2515 C 1.0017 0.58283 0.70436 0.0
C2516 C 0.01796 0.58135 0.70134 0.0
C2517 C 0.01949 0.5675 0.71607 0.0
C2518 C 1.005 0.55555 0.7339 0.0
C2519 C 0.98836 0.55686 0.73561 0.0
H2520 H 0.38074 0.35542 0.71181 0.0
H2521 H 0.41611 0.33714 0.67158 0.0
H2522 H 0.44426 0.36857 0.68015 0.0
H2523 H 0.40783 0.40649 0.69153 0.0
H2524 H 0.40474 0.41468 0.72362 0.0
H2525 H 0.38685 0.39186 0.71075 0.0
H2526 H 0.38953 0.3757 0.75366 0.0
H2527 H 0.40737 0.39842 0.76662 0.0
H2528 H 0.41238 0.37923 0.7637 0.0
H2529 H 0.46899 0.4003 0.6974 0.0
H2530 H 0.48863 0.42921 0.72404 0.0
H2531 H 0.43765 0.4277 0.75305 0.0
C2532 C 0.39434 0.35824 0.70418 0.0
C2533 C 0.3962 0.34388 0.69078 0.0
C2534 C 0.41432 0.34793 0.68178 0.0
C2535 C 0.4304 0.36579 0.68643 0.0
C2536 C 0.42819 0.37953 0.70017 0.0
C2537 C 0.41063 0.37599 0.70894 0.0
C2538 C 0.41249 0.39251 0.72565 0.0
C2539 C 0.40238 0.40195 0.71207 0.0
C2540 C 0.405 0.38607 0.75408 0.0
C2541 C 0.43387 0.40554 0.72563 0.0
C2542 C 0.44261 0.39792 0.71041 0.0
C2543 C 0.4623 0.40661 0.70896 0.0
C2544 C 0.47339 0.4232 0.72405 0.0
C2545 C 0.4648 0.43099 0.74059 0.0
C2546 C 0.44473 0.42223 0.74062 0.0
H2547 H 0.65879 0.02525 0.70953 0.0
H2548 H 0.66961 0.07673 0.66919 0.0
H2549 H 0.63662 0.06906 0.67784 0.0
H2550 H 0.60788 0.99517 0.69031 0.0
H2551 H 0.60166 0.98426 0.72269 0.0
H2552 H 0.62495 0.99208 0.70938 0.0
H2553 H 0.64022 0.01276 0.75174 0.0
H2554 H 0.61704 1.00495 0.76515 0.0
H2555 H 0.63355 0.03 0.76159 0.0
H2556 H 0.60336 0.0574 0.69495 0.0
H2557 H 0.57416 0.04431 0.7223 0.0
H2558 H 0.58568 1.00127 0.75267 0.0
C2559 C 0.65404 0.03461 0.70185 0.0
C2560 C 0.66667 0.05144 0.68835 0.0
C2561 C 0.66011 0.06368 0.6794 0.0
C2562 C 0.64137 0.05938 0.6841 0.0
C2563 C 0.62934 0.04284 0.69794 0.0
C2564 C 0.63547 0.03069 0.70679 0.0
C2565 C 0.62061 0.01509 0.72393 0.0
C2566 C 0.61334 0.99549 0.71078 0.0
C2567 C 0.62832 0.01576 0.75227 0.0
C2568 C 0.60539 0.02066 0.72399 0.0
C2569 C 0.61046 0.03645 0.70842 0.0
C2570 C 0.59912 0.04486 0.70687 0.0
C2571 C 0.58252 0.0373 0.7223 0.0
C2572 C 0.57765 0.02172 0.73928 0.0
C2573 C 0.58898 0.01304 0.73949 0.0
loop_
_geom_bond_atom_site_label_1
_geom_bond_atom_site_label_2
_geom_bond_distance
_geom_bond_site_symmetry_2
_ccdc_geom_bond_type
O0 Cd1 2.223 . S
O0 C8 1.315 . S
Cd1 O0 2.223 . S
Cd1 O4 2.297 . S
Cd1 O5 2.439 . S
Cd1 O11 2.240 1_554 S
Cd2 O3 2.240 . S
Cd2 O10 2.223 1_554 S
Cd2 O12 2.297 1_554 S
Cd2 O13 2.439 1_554 S
O3 Cd2 2.240 . S
O3 C8 1.279 1_655 S
O4 Cd1 2.297 . S
O4 C6 1.247 . S
O5 Cd1 2.439 . S
O5 C6 1.208 . S
C6 O4 1.247 . S
C6 O5 1.208 . S
C7 O12 1.247 . S
C7 O13 1.208 . S
C8 O0 1.315 . S
C8 O3 1.279 1_455 S
C9 O10 1.315 . S
C9 O11 1.279 1_655 S
O10 Cd2 2.223 1_556 S
O10 C9 1.315 . S
O11 Cd1 2.240 1_556 S
O11 C9 1.279 1_455 S
O12 Cd2 2.297 1_556 S
O12 C7 1.247 . S
O13 Cd2 2.439 1_556 S
O13 C7 1.208 . S
O14 Cd15 2.223 . S
O14 C22 1.315 . S
Cd15 O14 2.223 . S
Cd15 O18 2.297 . S
Cd15 O19 2.439 . S
Cd15 O25 2.240 1_554 S
Cd16 O17 2.240 . S
Cd16 O24 2.223 1_554 S
Cd16 O26 2.297 1_554 S
Cd16 O27 2.439 1_554 S
O17 Cd16 2.240 . S
O17 C22 1.279 . S
O18 Cd15 2.297 . S
O18 C20 1.247 . S
O19 Cd15 2.439 . S
O19 C20 1.208 . S
C20 O18 1.247 . S
C20 O19 1.208 . S
C21 O26 1.247 . S
C21 O27 1.208 . S
C22 O14 1.315 . S
C22 O17 1.279 . S
C23 O24 1.315 . S
C23 O25 1.279 . S
O24 Cd16 2.223 1_556 S
O24 C23 1.315 . S
O25 Cd15 2.240 1_556 S
O25 C23 1.279 . S
O26 Cd16 2.297 1_556 S
O26 C21 1.247 . S
O27 Cd16 2.439 1_556 S
O27 C21 1.208 . S
O28 Cd29 2.223 1_556 S
O28 C36 1.315 . S
Cd29 O28 2.223 1_554 S
Cd29 O32 2.297 1_554 S
Cd29 O33 2.439 1_554 S
Cd29 O39 2.240 . S
Cd30 O31 2.240 1_554 S
Cd30 O38 2.223 . S
Cd30 O40 2.297 . S
Cd30 O41 2.439 . S
O31 Cd30 2.240 1_556 S
O31 C36 1.279 1_565 S
O32 Cd29 2.297 1_556 S
O32 C34 1.247 . S
O33 Cd29 2.439 1_556 S
O33 C34 1.208 . S
C34 O32 1.247 . S
C34 O33 1.208 . S
C35 O40 1.247 . S
C35 O41 1.208 . S
C36 O28 1.315 . S
C36 O31 1.279 1_545 S
C37 O38 1.315 . S
C37 O39 1.279 1_565 S
O38 Cd30 2.223 . S
O38 C37 1.315 . S
O39 Cd29 2.240 . S
O39 C37 1.279 1_545 S
O40 Cd30 2.297 . S
O40 C35 1.247 . S
O41 Cd30 2.439 . S
O41 C35 1.208 . S
O42 Cd43 2.223 1_556 S
O42 C50 1.315 . S
Cd43 O42 2.223 1_554 S
Cd43 O46 2.297 1_554 S
Cd43 O47 2.439 1_554 S
Cd43 O53 2.240 . S
Cd44 O45 2.240 1_554 S
Cd44 O52 2.223 . S
Cd44 O54 2.297 . S
Cd44 O55 2.439 . S
O45 Cd44 2.240 1_556 S
O45 C50 1.279 1_455 S
O46 Cd43 2.297 1_556 S
O46 C48 1.247 . S
O47 Cd43 2.439 1_556 S
O47 C48 1.208 . S
C48 O46 1.247 . S
C48 O47 1.208 . S
C49 O54 1.247 . S
C49 O55 1.208 . S
C50 O42 1.315 . S
C50 O45 1.279 1_655 S
C51 O52 1.315 . S
C51 O53 1.279 1_455 S
O52 Cd44 2.223 . S
O52 C51 1.315 . S
O53 Cd43 2.240 . S
O53 C51 1.279 1_655 S
O54 Cd44 2.297 . S
O54 C49 1.247 . S
O55 Cd44 2.439 . S
O55 C49 1.208 . S
O56 Cd57 2.223 1_556 S
O56 C64 1.315 . S
Cd57 O56 2.223 1_554 S
Cd57 O60 2.297 1_554 S
Cd57 O61 2.439 1_554 S
Cd57 O67 2.240 . S
Cd58 O59 2.240 1_554 S
Cd58 O66 2.223 . S
Cd58 O68 2.297 . S
Cd58 O69 2.439 . S
O59 Cd58 2.240 1_556 S
O59 C64 1.279 . S
O60 Cd57 2.297 1_556 S
O60 C62 1.247 . S
O61 Cd57 2.439 1_556 S
O61 C62 1.208 . S
C62 O60 1.247 . S
C62 O61 1.208 . S
C63 O68 1.247 . S
C63 O69 1.208 . S
C64 O56 1.315 . S
C64 O59 1.279 . S
C65 O66 1.315 . S
C65 O67 1.279 . S
O66 Cd58 2.223 . S
O66 C65 1.315 . S
O67 Cd57 2.240 . S
O67 C65 1.279 . S
O68 Cd58 2.297 . S
O68 C63 1.247 . S
O69 Cd58 2.439 . S
O69 C63 1.208 . S
O70 Cd71 2.223 . S
O70 C78 1.315 . S
Cd71 O70 2.223 . S
Cd71 O74 2.297 . S
Cd71 O75 2.439 . S
Cd71 O81 2.240 1_554 S
Cd72 O73 2.240 . S
Cd72 O80 2.223 1_554 S
Cd72 O82 2.297 1_554 S
Cd72 O83 2.439 1_554 S
O73 Cd72 2.240 . S
O73 C78 1.279 1_545 S
O74 Cd71 2.297 . S
O74 C76 1.247 . S
O75 Cd71 2.439 . S
O75 C76 1.208 . S
C76 O74 1.247 . S
C76 O75 1.208 . S
C77 O82 1.247 . S
C77 O83 1.208 . S
C78 O70 1.315 . S
C78 O73 1.279 1_565 S
C79 O80 1.315 . S
C79 O81 1.279 1_545 S
O80 Cd72 2.223 1_556 S
O80 C79 1.315 . S
O81 Cd71 2.240 1_556 S
O81 C79 1.279 1_565 S
O82 Cd72 2.297 1_556 S
O82 C77 1.247 . S
O83 Cd72 2.439 1_556 S
O83 C77 1.208 . S
O84 Cd85 2.223 . S
O84 C92 1.315 . S
Cd85 O84 2.223 . S
Cd85 O88 2.297 . S
Cd85 O89 2.439 . S
Cd85 O95 2.240 . S
Cd86 O87 2.240 . S
Cd86 O94 2.223 . S
Cd86 O96 2.297 . S
Cd86 O97 2.439 . S
O87 Cd86 2.240 . S
O87 C92 1.279 . S
O88 Cd85 2.297 . S
O88 C90 1.247 . S
O89 Cd85 2.439 . S
O89 C90 1.208 . S
C90 O88 1.247 . S
C90 O89 1.208 . S
C91 O96 1.247 . S
C91 O97 1.208 . S
C92 O84 1.315 . S
C92 O87 1.279 . S
C93 O94 1.315 . S
C93 O95 1.279 . S
O94 Cd86 2.223 . S
O94 C93 1.315 . S
O95 Cd85 2.240 . S
O95 C93 1.279 . S
O96 Cd86 2.297 . S
O96 C91 1.247 . S
O97 Cd86 2.439 . S
O97 C91 1.208 . S
O98 Cd99 2.223 . S
O98 C106 1.315 . S
Cd99 O98 2.223 . S
Cd99 O102 2.297 1_565 S
Cd99 O103 2.439 1_565 S
Cd99 O109 2.240 . S
Cd100 O101 2.240 . S
Cd100 O108 2.223 . S
Cd100 O110 2.297 . S
Cd100 O111 2.439 . S
O101 Cd100 2.240 . S
O101 C106 1.279 . S
O102 Cd99 2.297 1_545 S
O102 C104 1.247 . S
O103 Cd99 2.439 1_545 S
O103 C104 1.208 . S
C104 O102 1.247 . S
C104 O103 1.208 . S
C105 O110 1.247 . S
C105 O111 1.208 . S
C106 O98 1.315 . S
C106 O101 1.279 . S
C107 O108 1.315 . S
C107 O109 1.279 . S
O108 Cd100 2.223 . S
O108 C107 1.315 . S
O109 Cd99 2.240 . S
O109 C107 1.279 . S
O110 Cd100 2.297 . S
O110 C105 1.247 . S
O111 Cd100 2.439 . S
O111 C105 1.208 . S
O112 Cd113 2.223 . S
O112 C120 1.315 . S
Cd113 O112 2.223 . S
Cd113 O116 2.297 . S
Cd113 O117 2.439 . S
Cd113 O123 2.240 . S
Cd114 O115 2.240 . S
Cd114 O122 2.223 . S
Cd114 O124 2.297 1_455 S
Cd114 O125 2.439 1_455 S
O115 Cd114 2.240 . S
O115 C120 1.279 . S
O116 Cd113 2.297 . S
O116 C118 1.247 . S
O117 Cd113 2.439 . S
O117 C118 1.208 . S
C118 O116 1.247 . S
C118 O117 1.208 . S
C119 O124 1.247 . S
C119 O125 1.208 . S
C120 O112 1.315 . S
C120 O115 1.279 . S
C121 O122 1.315 . S
C121 O123 1.279 . S
O122 Cd114 2.223 . S
O122 C121 1.315 . S
O123 Cd113 2.240 . S
O123 C121 1.279 . S
O124 Cd114 2.297 1_655 S
O124 C119 1.247 . S
O125 Cd114 2.439 1_655 S
O125 C119 1.208 . S
O126 Cd127 2.223 . S
O126 C134 1.315 . S
Cd127 O126 2.223 . S
Cd127 O130 2.297 . S
Cd127 O131 2.439 . S
Cd127 O137 2.240 . S
Cd128 O129 2.240 . S
Cd128 O136 2.223 . S
Cd128 O138 2.297 1_565 S
Cd128 O139 2.439 1_565 S
O129 Cd128 2.240 . S
O129 C134 1.279 . S
O130 Cd127 2.297 . S
O130 C132 1.247 . S
O131 Cd127 2.439 . S
O131 C132 1.208 . S
C132 O130 1.247 . S
C132 O131 1.208 . S
C133 O138 1.247 . S
C133 O139 1.208 . S
C134 O126 1.315 . S
C134 O129 1.279 . S
C135 O136 1.315 . S
C135 O137 1.279 . S
O136 Cd128 2.223 . S
O136 C135 1.315 . S
O137 Cd127 2.240 . S
O137 C135 1.279 . S
O138 Cd128 2.297 1_545 S
O138 C133 1.247 . S
O139 Cd128 2.439 1_545 S
O139 C133 1.208 . S
O140 Cd141 2.223 . S
O140 C148 1.315 . S
Cd141 O140 2.223 . S
Cd141 O144 2.297 . S
Cd141 O145 2.439 . S
Cd141 O151 2.240 . S
Cd142 O143 2.240 . S
Cd142 O150 2.223 . S
Cd142 O152 2.297 1_455 S
Cd142 O153 2.439 1_455 S
O143 Cd142 2.240 . S
O143 C148 1.279 . S
O144 Cd141 2.297 . S
O144 C146 1.247 . S
O145 Cd141 2.439 . S
O145 C146 1.208 . S
C146 O144 1.247 . S
C146 O145 1.208 . S
C147 O152 1.247 . S
C147 O153 1.208 . S
C148 O140 1.315 . S
C148 O143 1.279 . S
C149 O150 1.315 . S
C149 O151 1.279 . S
O150 Cd142 2.223 . S
O150 C149 1.315 . S
O151 Cd141 2.240 . S
O151 C149 1.279 . S
O152 Cd142 2.297 1_655 S
O152 C147 1.247 . S
O153 Cd142 2.439 1_655 S
O153 C147 1.208 . S
O154 Cd155 2.223 . S
O154 C162 1.315 . S
Cd155 O154 2.223 . S
Cd155 O158 2.297 . S
Cd155 O159 2.439 . S
Cd155 O165 2.240 . S
Cd156 O157 2.240 . S
Cd156 O164 2.223 . S
Cd156 O166 2.297 . S
Cd156 O167 2.439 . S
O157 Cd156 2.240 . S
O157 C162 1.279 . S
O158 Cd155 2.297 . S
O158 C160 1.247 . S
O159 Cd155 2.439 . S
O159 C160 1.208 . S
C160 O158 1.247 . S
C160 O159 1.208 . S
C161 O166 1.247 . S
C161 O167 1.208 . S
C162 O154 1.315 . S
C162 O157 1.279 . S
C163 O164 1.315 . S
C163 O165 1.279 . S
O164 Cd156 2.223 . S
O164 C163 1.315 . S
O165 Cd155 2.240 . S
O165 C163 1.279 . S
O166 Cd156 2.297 . S
O166 C161 1.247 . S
O167 Cd156 2.439 . S
O167 C161 1.208 . S
O168 Cd169 2.223 . S
O168 C176 1.315 . S
Cd169 O168 2.223 . S
Cd169 O172 2.297 . S
Cd169 O173 2.439 . S
Cd169 O179 2.240 . S
Cd170 O171 2.240 . S
Cd170 O178 2.223 . S
Cd170 O180 2.297 1_545 S
Cd170 O181 2.439 1_545 S
O171 Cd170 2.240 . S
O171 C176 1.279 . S
O172 Cd169 2.297 . S
O172 C174 1.247 . S
O173 Cd169 2.439 . S
O173 C174 1.208 . S
C174 O172 1.247 . S
C174 O173 1.208 . S
C175 O180 1.247 . S
C175 O181 1.208 . S
C176 O168 1.315 . S
C176 O171 1.279 . S
C177 O178 1.315 . S
C177 O179 1.279 . S
O178 Cd170 2.223 . S
O178 C177 1.315 . S
O179 Cd169 2.240 . S
O179 C177 1.279 . S
O180 Cd170 2.297 1_565 S
O180 C175 1.247 . S
O181 Cd170 2.439 1_565 S
O181 C175 1.208 . S
O182 Cd183 2.223 . S
O182 C190 1.315 . S
Cd183 O182 2.223 . S
Cd183 O186 2.297 . S
Cd183 O187 2.439 . S
Cd183 O193 2.240 . S
Cd184 O185 2.240 . S
Cd184 O192 2.223 . S
Cd184 O194 2.297 1_655 S
Cd184 O195 2.439 1_655 S
O185 Cd184 2.240 . S
O185 C190 1.279 . S
O186 Cd183 2.297 . S
O186 C188 1.247 . S
O187 Cd183 2.439 . S
O187 C188 1.208 . S
C188 O186 1.247 . S
C188 O187 1.208 . S
C189 O194 1.247 . S
C189 O195 1.208 . S
C190 O182 1.315 . S
C190 O185 1.279 . S
C191 O192 1.315 . S
C191 O193 1.279 . S
O192 Cd184 2.223 . S
O192 C191 1.315 . S
O193 Cd183 2.240 . S
O193 C191 1.279 . S
O194 Cd184 2.297 1_455 S
O194 C189 1.247 . S
O195 Cd184 2.439 1_455 S
O195 C189 1.208 . S
O196 Cd197 2.223 . S
O196 C204 1.315 . S
Cd197 O196 2.223 . S
Cd197 O200 2.297 . S
Cd197 O201 2.439 . S
Cd197 O207 2.240 . S
Cd198 O199 2.240 . S
Cd198 O206 2.223 . S
Cd198 O208 2.297 . S
Cd198 O209 2.439 . S
O199 Cd198 2.240 . S
O199 C204 1.279 . S
O200 Cd197 2.297 . S
O200 C202 1.247 . S
O201 Cd197 2.439 . S
O201 C202 1.208 . S
C202 O200 1.247 . S
C202 O201 1.208 . S
C203 O208 1.247 . S
C203 O209 1.208 . S
C204 O196 1.315 . S
C204 O199 1.279 . S
C205 O206 1.315 . S
C205 O207 1.279 . S
O206 Cd198 2.223 . S
O206 C205 1.315 . S
O207 Cd197 2.240 . S
O207 C205 1.279 . S
O208 Cd198 2.297 . S
O208 C203 1.247 . S
O209 Cd198 2.439 . S
O209 C203 1.208 . S
O210 Cd211 2.223 . S
O210 C218 1.315 . S
Cd211 O210 2.223 . S
Cd211 O214 2.297 . S
Cd211 O215 2.439 . S
Cd211 O221 2.240 . S
Cd212 O213 2.240 . S
Cd212 O220 2.223 . S
Cd212 O222 2.297 . S
Cd212 O223 2.439 . S
O213 Cd212 2.240 . S
O213 C218 1.279 . S
O214 Cd211 2.297 . S
O214 C216 1.247 . S
O215 Cd211 2.439 . S
O215 C216 1.208 . S
C216 O214 1.247 . S
C216 O215 1.208 . S
C217 O222 1.247 . S
C217 O223 1.208 . S
C218 O210 1.315 . S
C218 O213 1.279 . S
C219 O220 1.315 . S
C219 O221 1.279 . S
O220 Cd212 2.223 . S
O220 C219 1.315 . S
O221 Cd211 2.240 . S
O221 C219 1.279 . S
O222 Cd212 2.297 . S
O222 C217 1.247 . S
O223 Cd212 2.439 . S
O223 C217 1.208 . S
O224 Cd225 2.223 . S
O224 C232 1.315 . S
Cd225 O224 2.223 . S
Cd225 O228 2.297 1_545 S
Cd225 O229 2.439 1_545 S
Cd225 O235 2.240 . S
Cd226 O227 2.240 . S
Cd226 O234 2.223 . S
Cd226 O236 2.297 . S
Cd226 O237 2.439 . S
O227 Cd226 2.240 . S
O227 C232 1.279 . S
O228 Cd225 2.297 1_565 S
O228 C230 1.247 . S
O229 Cd225 2.439 1_565 S
O229 C230 1.208 . S
C230 O228 1.247 . S
C230 O229 1.208 . S
C231 O236 1.247 . S
C231 O237 1.208 . S
C232 O224 1.315 . S
C232 O227 1.279 . S
C233 O234 1.315 . S
C233 O235 1.279 . S
O234 Cd226 2.223 . S
O234 C233 1.315 . S
O235 Cd225 2.240 . S
O235 C233 1.279 . S
O236 Cd226 2.297 . S
O236 C231 1.247 . S
O237 Cd226 2.439 . S
O237 C231 1.208 . S
O238 Cd239 2.223 . S
O238 C246 1.315 . S
Cd239 O238 2.223 . S
Cd239 O242 2.297 . S
Cd239 O243 2.439 . S
Cd239 O249 2.240 . S
Cd240 O241 2.240 . S
Cd240 O248 2.223 . S
Cd240 O250 2.297 1_655 S
Cd240 O251 2.439 1_655 S
O241 Cd240 2.240 . S
O241 C246 1.279 . S
O242 Cd239 2.297 . S
O242 C244 1.247 . S
O243 Cd239 2.439 . S
O243 C244 1.208 . S
C244 O242 1.247 . S
C244 O243 1.208 . S
C245 O250 1.247 . S
C245 O251 1.208 . S
C246 O238 1.315 . S
C246 O241 1.279 . S
C247 O248 1.315 . S
C247 O249 1.279 . S
O248 Cd240 2.223 . S
O248 C247 1.315 . S
O249 Cd239 2.240 . S
O249 C247 1.279 . S
O250 Cd240 2.297 1_455 S
O250 C245 1.247 . S
O251 Cd240 2.439 1_455 S
O251 C245 1.208 . S
H252 C260 0.930 . S
H253 C263 0.930 . S
H254 C265 0.930 . S
H255 C266 0.970 . S
H256 C266 0.970 . S
H257 C268 0.930 . S
H258 C270 0.930 . S
H259 C272 0.930 . S
C260 H252 0.930 . S
C260 C261 1.382 . S
C260 C262 1.426 . S
C261 C260 1.382 . S
C261 C265 1.389 . S
C262 C260 1.426 . S
C262 C263 1.375 . S
C262 C266 1.532 . S
C263 H253 0.930 . S
C263 C262 1.375 . S
C263 C264 1.416 . S
C264 C263 1.416 . S
C264 C265 1.371 . S
C265 H254 0.930 . S
C265 C261 1.389 . S
C265 C264 1.371 . S
C266 H255 0.970 . S
C266 H256 0.970 . S
C266 C262 1.532 . S
C266 C267 1.499 . S
C267 C266 1.499 . S
C267 C268 1.370 . S
C267 C272 1.415 . S
C268 H257 0.930 . S
C268 C267 1.370 . S
C268 C269 1.407 . S
C269 C268 1.407 . S
C269 C270 1.365 . S
C270 H258 0.930 . S
C270 C269 1.365 . S
C270 C271 1.393 . S
C271 C270 1.393 . S
C271 C272 1.387 . S
C272 H259 0.930 . S
C272 C267 1.415 . S
C272 C271 1.387 . S
H273 C281 0.930 . S
H274 C284 0.930 . S
H275 C286 0.930 . S
H276 C287 0.970 . S
H277 C287 0.970 . S
H278 C289 0.930 . S
H279 C291 0.930 . S
H280 C293 0.930 . S
C281 H273 0.930 . S
C281 C282 1.382 . S
C281 C283 1.426 . S
C282 C281 1.382 . S
C282 C286 1.389 . S
C283 C281 1.426 . S
C283 C284 1.375 . S
C283 C287 1.532 . S
C284 H274 0.930 . S
C284 C283 1.375 . S
C284 C285 1.416 . S
C285 C284 1.416 . S
C285 C286 1.371 . S
C286 H275 0.930 . S
C286 C282 1.389 . S
C286 C285 1.371 . S
C287 H276 0.970 . S
C287 H277 0.970 . S
C287 C283 1.532 . S
C287 C288 1.499 . S
C288 C287 1.499 . S
C288 C289 1.370 . S
C288 C293 1.415 . S
C289 H278 0.930 . S
C289 C288 1.370 . S
C289 C290 1.407 . S
C290 C289 1.407 . S
C290 C291 1.365 . S
C291 H279 0.930 . S
C291 C290 1.365 . S
C291 C292 1.393 . S
C292 C291 1.393 . S
C292 C293 1.387 . S
C293 H280 0.930 . S
C293 C288 1.415 . S
C293 C292 1.387 . S
H294 C302 0.930 . S
H295 C305 0.930 . S
H296 C307 0.930 . S
H297 C308 0.970 . S
H298 C308 0.970 . S
H299 C310 0.930 . S
H300 C312 0.930 . S
H301 C314 0.930 . S
C302 H294 0.930 . S
C302 C303 1.382 . S
C302 C304 1.426 . S
C303 C302 1.382 . S
C303 C307 1.389 . S
C304 C302 1.426 . S
C304 C305 1.375 . S
C304 C308 1.532 . S
C305 H295 0.930 . S
C305 C304 1.375 . S
C305 C306 1.416 . S
C306 C305 1.416 . S
C306 C307 1.371 . S
C307 H296 0.930 . S
C307 C303 1.389 . S
C307 C306 1.371 . S
C308 H297 0.970 . S
C308 H298 0.970 . S
C308 C304 1.532 . S
C308 C309 1.499 . S
C309 C308 1.499 . S
C309 C310 1.370 . S
C309 C314 1.415 . S
C310 H299 0.930 . S
C310 C309 1.370 . S
C310 C311 1.407 . S
C311 C310 1.407 . S
C311 C312 1.365 . S
C312 H300 0.930 . S
C312 C311 1.365 . S
C312 C313 1.393 . S
C313 C312 1.393 . S
C313 C314 1.387 . S
C314 H301 0.930 . S
C314 C309 1.415 . S
C314 C313 1.387 . S
H315 C323 0.930 . S
H316 C326 0.930 . S
H317 C328 0.930 . S
H318 C329 0.970 . S
H319 C329 0.970 . S
H320 C331 0.930 . S
H321 C333 0.930 . S
H322 C335 0.930 . S
C323 H315 0.930 . S
C323 C324 1.382 . S
C323 C325 1.426 . S
C324 C323 1.382 . S
C324 C328 1.389 . S
C325 C323 1.426 . S
C325 C326 1.375 . S
C325 C329 1.532 . S
C326 H316 0.930 . S
C326 C325 1.375 . S
C326 C327 1.416 . S
C327 C326 1.416 . S
C327 C328 1.371 . S
C328 H317 0.930 . S
C328 C324 1.389 . S
C328 C327 1.371 . S
C329 H318 0.970 . S
C329 H319 0.970 . S
C329 C325 1.532 . S
C329 C330 1.499 . S
C330 C329 1.499 . S
C330 C331 1.370 . S
C330 C335 1.415 . S
C331 H320 0.930 . S
C331 C330 1.370 . S
C331 C332 1.407 . S
C332 C331 1.407 . S
C332 C333 1.365 . S
C333 H321 0.930 . S
C333 C332 1.365 . S
C333 C334 1.393 . S
C334 C333 1.393 . S
C334 C335 1.387 . S
C335 H322 0.930 . S
C335 C330 1.415 . S
C335 C334 1.387 . S
H336 C344 0.930 . S
H337 C347 0.930 . S
H338 C349 0.930 . S
H339 C350 0.970 . S
H340 C350 0.970 . S
H341 C352 0.930 . S
H342 C354 0.930 . S
H343 C356 0.930 . S
C344 H336 0.930 . S
C344 C345 1.382 . S
C344 C346 1.426 . S
C345 C344 1.382 . S
C345 C349 1.389 . S
C346 C344 1.426 . S
C346 C347 1.375 . S
C346 C350 1.532 . S
C347 H337 0.930 . S
C347 C346 1.375 . S
C347 C348 1.416 . S
C348 C347 1.416 . S
C348 C349 1.371 . S
C349 H338 0.930 . S
C349 C345 1.389 . S
C349 C348 1.371 . S
C350 H339 0.970 . S
C350 H340 0.970 . S
C350 C346 1.532 . S
C350 C351 1.499 . S
C351 C350 1.499 . S
C351 C352 1.370 . S
C351 C356 1.415 . S
C352 H341 0.930 . S
C352 C351 1.370 . S
C352 C353 1.407 . S
C353 C352 1.407 . S
C353 C354 1.365 . S
C354 H342 0.930 . S
C354 C353 1.365 . S
C354 C355 1.393 . S
C355 C354 1.393 . S
C355 C356 1.387 . S
C356 H343 0.930 . S
C356 C351 1.415 . S
C356 C355 1.387 . S
H357 C365 0.930 . S
H358 C368 0.930 . S
H359 C370 0.930 . S
H360 C371 0.970 . S
H361 C371 0.970 . S
H362 C373 0.930 . S
H363 C375 0.930 . S
H364 C377 0.930 . S
C365 H357 0.930 . S
C365 C366 1.382 . S
C365 C367 1.426 . S
C366 C365 1.382 . S
C366 C370 1.389 . S
C367 C365 1.426 . S
C367 C368 1.375 . S
C367 C371 1.532 . S
C368 H358 0.930 . S
C368 C367 1.375 . S
C368 C369 1.416 . S
C369 C368 1.416 . S
C369 C370 1.371 . S
C370 H359 0.930 . S
C370 C366 1.389 . S
C370 C369 1.371 . S
C371 H360 0.970 . S
C371 H361 0.970 . S
C371 C367 1.532 . S
C371 C372 1.499 . S
C372 C371 1.499 . S
C372 C373 1.370 . S
C372 C377 1.415 . S
C373 H362 0.930 . S
C373 C372 1.370 . S
C373 C374 1.407 . S
C374 C373 1.407 . S
C374 C375 1.365 . S
C375 H363 0.930 . S
C375 C374 1.365 . S
C375 C376 1.393 . S
C376 C375 1.393 . S
C376 C377 1.387 . S
C377 H364 0.930 . S
C377 C372 1.415 . S
C377 C376 1.387 . S
H378 C386 0.930 . S
H379 C389 0.930 . S
H380 C391 0.930 . S
H381 C392 0.970 . S
H382 C392 0.970 . S
H383 C394 0.930 . S
H384 C396 0.930 . S
H385 C398 0.930 . S
C386 H378 0.930 . S
C386 C387 1.382 . S
C386 C388 1.426 . S
C387 C386 1.382 . S
C387 C391 1.389 . S
C388 C386 1.426 . S
C388 C389 1.375 . S
C388 C392 1.532 . S
C389 H379 0.930 . S
C389 C388 1.375 . S
C389 C390 1.416 . S
C390 C389 1.416 . S
C390 C391 1.371 . S
C391 H380 0.930 . S
C391 C387 1.389 . S
C391 C390 1.371 . S
C392 H381 0.970 . S
C392 H382 0.970 . S
C392 C388 1.532 . S
C392 C393 1.499 . S
C393 C392 1.499 . S
C393 C394 1.370 . S
C393 C398 1.415 . S
C394 H383 0.930 . S
C394 C393 1.370 . S
C394 C395 1.407 . S
C395 C394 1.407 . S
C395 C396 1.365 . S
C396 H384 0.930 . S
C396 C395 1.365 . S
C396 C397 1.393 . S
C397 C396 1.393 . S
C397 C398 1.387 . S
C398 H385 0.930 . S
C398 C393 1.415 . S
C398 C397 1.387 . S
H399 C407 0.930 . S
H400 C410 0.930 . S
H401 C412 0.930 . S
H402 C413 0.970 . S
H403 C413 0.970 . S
H404 C415 0.930 . S
H405 C417 0.930 . S
H406 C419 0.930 . S
C407 H399 0.930 . S
C407 C408 1.382 . S
C407 C409 1.426 . S
C408 C407 1.382 . S
C408 C412 1.389 . S
C409 C407 1.426 . S
C409 C410 1.375 . S
C409 C413 1.532 . S
C410 H400 0.930 . S
C410 C409 1.375 . S
C410 C411 1.416 . S
C411 C410 1.416 . S
C411 C412 1.371 . S
C412 H401 0.930 . S
C412 C408 1.389 . S
C412 C411 1.371 . S
C413 H402 0.970 . S
C413 H403 0.970 . S
C413 C409 1.532 . S
C413 C414 1.499 . S
C414 C413 1.499 . S
C414 C415 1.370 . S
C414 C419 1.415 . S
C415 H404 0.930 . S
C415 C414 1.370 . S
C415 C416 1.407 . S
C416 C415 1.407 . S
C416 C417 1.365 . S
C417 H405 0.930 . S
C417 C416 1.365 . S
C417 C418 1.393 . S
C418 C417 1.393 . S
C418 C419 1.387 . S
C419 H406 0.930 . S
C419 C414 1.415 . S
C419 C418 1.387 . S
H420 C428 0.930 . S
H421 C431 0.930 . S
H422 C433 0.930 . S
H423 C434 0.970 . S
H424 C434 0.970 . S
H425 C436 0.930 . S
H426 C438 0.930 . S
H427 C440 0.930 . S
C428 H420 0.930 . S
C428 C429 1.382 . S
C428 C430 1.426 . S
C429 C428 1.382 . S
C429 C433 1.389 . S
C430 C428 1.426 . S
C430 C431 1.375 . S
C430 C434 1.532 . S
C431 H421 0.930 . S
C431 C430 1.375 . S
C431 C432 1.416 . S
C432 C431 1.416 . S
C432 C433 1.371 . S
C433 H422 0.930 . S
C433 C429 1.389 . S
C433 C432 1.371 . S
C434 H423 0.970 . S
C434 H424 0.970 . S
C434 C430 1.532 . S
C434 C435 1.499 . S
C435 C434 1.499 . S
C435 C436 1.370 . S
C435 C440 1.415 . S
C436 H425 0.930 . S
C436 C435 1.370 . S
C436 C437 1.407 . S
C437 C436 1.407 . S
C437 C438 1.365 . S
C438 H426 0.930 . S
C438 C437 1.365 . S
C438 C439 1.393 . S
C439 C438 1.393 . S
C439 C440 1.387 . S
C440 H427 0.930 . S
C440 C435 1.415 . S
C440 C439 1.387 . S
H441 C449 0.930 . S
H442 C452 0.930 . S
H443 C454 0.930 . S
H444 C455 0.970 . S
H445 C455 0.970 . S
H446 C457 0.930 . S
H447 C459 0.930 . S
H448 C461 0.930 . S
C449 H441 0.930 . S
C449 C450 1.382 . S
C449 C451 1.426 . S
C450 C449 1.382 . S
C450 C454 1.389 1_455 S
C451 C449 1.426 . S
C451 C452 1.375 . S
C451 C455 1.532 . S
C452 H442 0.930 . S
C452 C451 1.375 . S
C452 C453 1.416 . S
C453 C452 1.416 . S
C453 C454 1.371 1_455 S
C454 H443 0.930 . S
C454 C450 1.389 1_655 S
C454 C453 1.371 1_655 S
C455 H444 0.970 . S
C455 H445 0.970 . S
C455 C451 1.532 . S
C455 C456 1.499 . S
C456 C455 1.499 . S
C456 C457 1.370 . S
C456 C461 1.415 . S
C457 H446 0.930 . S
C457 C456 1.370 . S
C457 C458 1.411 . S
C458 C457 1.411 . S
C458 C459 1.369 1_455 S
C459 H447 0.930 . S
C459 C458 1.369 1_655 S
C459 C460 1.393 1_655 S
C460 C459 1.393 1_455 S
C460 C461 1.387 . S
C461 H448 0.930 . S
C461 C456 1.415 . S
C461 C460 1.387 . S
H462 C470 0.930 . S
H463 C473 0.930 . S
H464 C475 0.930 . S
H465 C476 0.970 . S
H466 C476 0.970 . S
H467 C478 0.930 . S
H468 C480 0.930 . S
H469 C482 0.930 . S
C470 H462 0.930 . S
C470 C471 1.382 . S
C470 C472 1.426 . S
C471 C470 1.382 . S
C471 C475 1.389 . S
C472 C470 1.426 . S
C472 C473 1.375 . S
C472 C476 1.532 . S
C473 H463 0.930 . S
C473 C472 1.375 . S
C473 C474 1.416 . S
C474 C473 1.416 . S
C474 C475 1.371 . S
C475 H464 0.930 . S
C475 C471 1.389 . S
C475 C474 1.371 . S
C476 H465 0.970 . S
C476 H466 0.970 . S
C476 C472 1.532 . S
C476 C477 1.499 . S
C477 C476 1.499 . S
C477 C478 1.370 . S
C477 C482 1.415 . S
C478 H467 0.930 . S
C478 C477 1.370 . S
C478 C479 1.407 . S
C479 C478 1.407 . S
C479 C480 1.365 . S
C480 H468 0.930 . S
C480 C479 1.365 . S
C480 C481 1.393 . S
C481 C480 1.393 . S
C481 C482 1.387 . S
C482 H469 0.930 . S
C482 C477 1.415 . S
C482 C481 1.387 . S
H483 C491 0.930 . S
H484 C494 0.930 . S
H485 C496 0.930 . S
H486 C497 0.970 . S
H487 C497 0.970 . S
H488 C499 0.930 . S
H489 C501 0.930 . S
H490 C503 0.930 . S
C491 H483 0.930 . S
C491 C492 1.382 . S
C491 C493 1.426 . S
C492 C491 1.382 . S
C492 C496 1.389 1_565 S
C493 C491 1.426 . S
C493 C494 1.375 . S
C493 C497 1.532 . S
C494 H484 0.930 . S
C494 C493 1.375 . S
C494 C495 1.416 . S
C495 C494 1.416 . S
C495 C496 1.371 1_565 S
C496 H485 0.930 . S
C496 C492 1.389 1_545 S
C496 C495 1.371 1_545 S
C497 H486 0.970 . S
C497 H487 0.970 . S
C497 C493 1.532 . S
C497 C498 1.499 . S
C498 C497 1.499 . S
C498 C499 1.370 . S
C498 C503 1.415 . S
C499 H488 0.930 . S
C499 C498 1.370 . S
C499 C500 1.452 . S
C500 C499 1.452 . S
C500 C501 1.347 1_565 S
C501 H489 0.930 . S
C501 C500 1.347 1_545 S
C501 C502 1.393 1_545 S
C502 C501 1.393 1_565 S
C502 C503 1.387 . S
C503 H490 0.930 . S
C503 C498 1.415 . S
C503 C502 1.387 . S
H504 C512 0.930 . S
H505 C515 0.930 . S
H506 C517 0.930 . S
H507 C518 0.970 . S
H508 C518 0.970 . S
H509 C520 0.930 . S
H510 C522 0.930 . S
H511 C524 0.930 . S
C512 H504 0.930 . S
C512 C513 1.382 . S
C512 C514 1.426 . S
C513 C512 1.382 . S
C513 C517 1.389 1_565 S
C514 C512 1.426 . S
C514 C515 1.375 . S
C514 C518 1.532 . S
C515 H505 0.930 . S
C515 C514 1.375 . S
C515 C516 1.416 . S
C516 C515 1.416 . S
C516 C517 1.371 1_565 S
C517 H506 0.930 . S
C517 C513 1.389 1_545 S
C517 C516 1.371 1_545 S
C518 H507 0.970 . S
C518 H508 0.970 . S
C518 C514 1.532 . S
C518 C519 1.499 . S
C519 C518 1.499 . S
C519 C520 1.370 . S
C519 C524 1.415 . S
C520 H509 0.930 . S
C520 C519 1.370 . S
C520 C521 1.407 . S
C521 C520 1.407 . S
C521 C522 1.365 1_565 S
C522 H510 0.930 . S
C522 C521 1.365 1_545 S
C522 C523 1.393 1_545 S
C523 C522 1.393 1_565 S
C523 C524 1.387 . S
C524 H511 0.930 . S
C524 C519 1.415 . S
C524 C523 1.387 . S
H525 C533 0.930 . S
H526 C536 0.930 . S
H527 C538 0.930 . S
H528 C539 0.970 . S
H529 C539 0.970 . S
H530 C541 0.930 . S
H531 C543 0.930 . S
H532 C545 0.930 . S
C533 H525 0.930 . S
C533 C534 1.382 . S
C533 C535 1.426 . S
C534 C533 1.382 . S
C534 C538 1.389 1_455 S
C535 C533 1.426 . S
C535 C536 1.375 . S
C535 C539 1.532 . S
C536 H526 0.930 . S
C536 C535 1.375 . S
C536 C537 1.416 . S
C537 C536 1.416 . S
C537 C538 1.371 1_455 S
C538 H527 0.930 . S
C538 C534 1.389 1_655 S
C538 C537 1.371 1_655 S
C539 H528 0.970 . S
C539 H529 0.970 . S
C539 C535 1.532 . S
C539 C540 1.499 . S
C540 C539 1.499 . S
C540 C541 1.370 . S
C540 C545 1.415 . S
C541 H530 0.930 . S
C541 C540 1.370 . S
C541 C542 1.407 . S
C542 C541 1.407 . S
C542 C543 1.365 1_455 S
C543 H531 0.930 . S
C543 C542 1.365 1_655 S
C543 C544 1.393 1_655 S
C544 C543 1.393 1_455 S
C544 C545 1.387 . S
C545 H532 0.930 . S
C545 C540 1.415 . S
C545 C544 1.387 . S
H546 C554 0.930 . S
H547 C557 0.930 . S
H548 C559 0.930 . S
H549 C560 0.970 . S
H550 C560 0.970 . S
H551 C562 0.930 . S
H552 C564 0.930 . S
H553 C566 0.930 . S
C554 H546 0.930 . S
C554 C555 1.382 . S
C554 C556 1.426 . S
C555 C554 1.382 . S
C555 C559 1.389 . S
C556 C554 1.426 . S
C556 C557 1.375 . S
C556 C560 1.532 . S
C557 H547 0.930 . S
C557 C556 1.375 . S
C557 C558 1.416 . S
C558 C557 1.416 . S
C558 C559 1.371 . S
C559 H548 0.930 . S
C559 C555 1.389 . S
C559 C558 1.371 . S
C560 H549 0.970 . S
C560 H550 0.970 . S
C560 C556 1.532 . S
C560 C561 1.499 . S
C561 C560 1.499 . S
C561 C562 1.370 . S
C561 C566 1.415 . S
C562 H551 0.930 . S
C562 C561 1.370 . S
C562 C563 1.407 . S
C563 C562 1.407 . S
C563 C564 1.365 . S
C564 H552 0.930 . S
C564 C563 1.365 . S
C564 C565 1.393 . S
C565 C564 1.393 . S
C565 C566 1.387 . S
C566 H553 0.930 . S
C566 C561 1.415 . S
C566 C565 1.387 . S
H567 C575 0.930 . S
H568 C578 0.930 . S
H569 C580 0.930 . S
H570 C581 0.970 . S
H571 C581 0.970 . S
H572 C583 0.930 . S
H573 C585 0.930 . S
H574 C587 0.930 . S
C575 H567 0.930 . S
C575 C576 1.382 . S
C575 C577 1.426 . S
C576 C575 1.382 . S
C576 C580 1.389 . S
C577 C575 1.426 . S
C577 C578 1.375 . S
C577 C581 1.532 . S
C578 H568 0.930 . S
C578 C577 1.375 . S
C578 C579 1.416 . S
C579 C578 1.416 . S
C579 C580 1.371 . S
C580 H569 0.930 . S
C580 C576 1.389 . S
C580 C579 1.371 . S
C581 H570 0.970 . S
C581 H571 0.970 . S
C581 C577 1.532 . S
C581 C582 1.499 . S
C582 C581 1.499 . S
C582 C583 1.370 . S
C582 C587 1.415 . S
C583 H572 0.930 . S
C583 C582 1.370 . S
C583 C584 1.407 . S
C584 C583 1.407 . S
C584 C585 1.365 . S
C585 H573 0.930 . S
C585 C584 1.365 . S
C585 C586 1.393 . S
C586 C585 1.393 . S
C586 C587 1.387 . S
C587 H574 0.930 . S
C587 C582 1.415 . S
C587 C586 1.387 . S
H588 C596 0.930 . S
H589 C599 0.930 . S
H590 C601 0.930 . S
H591 C602 0.970 . S
H592 C602 0.970 . S
H593 C604 0.930 . S
H594 C606 0.930 . S
H595 C608 0.930 . S
C596 H588 0.930 . S
C596 C597 1.382 . S
C596 C598 1.426 . S
C597 C596 1.382 . S
C597 C601 1.389 . S
C598 C596 1.426 . S
C598 C599 1.375 . S
C598 C602 1.532 . S
C599 H589 0.930 . S
C599 C598 1.375 . S
C599 C600 1.416 . S
C600 C599 1.416 . S
C600 C601 1.371 . S
C601 H590 0.930 . S
C601 C597 1.389 . S
C601 C600 1.371 . S
C602 H591 0.970 . S
C602 H592 0.970 . S
C602 C598 1.532 . S
C602 C603 1.499 . S
C603 C602 1.499 . S
C603 C604 1.370 . S
C603 C608 1.415 . S
C604 H593 0.930 . S
C604 C603 1.370 . S
C604 C605 1.407 . S
C605 C604 1.407 . S
C605 C606 1.365 . S
C606 H594 0.930 . S
C606 C605 1.365 . S
C606 C607 1.393 . S
C607 C606 1.393 . S
C607 C608 1.387 . S
C608 H595 0.930 . S
C608 C603 1.415 . S
C608 C607 1.387 . S
H609 C617 0.930 . S
H610 C620 0.930 . S
H611 C622 0.930 . S
H612 C623 0.970 . S
H613 C623 0.970 . S
H614 C625 0.930 . S
H615 C627 0.930 . S
H616 C629 0.930 . S
C617 H609 0.930 . S
C617 C618 1.382 . S
C617 C619 1.426 . S
C618 C617 1.382 . S
C618 C622 1.389 . S
C619 C617 1.426 . S
C619 C620 1.375 . S
C619 C623 1.532 . S
C620 H610 0.930 . S
C620 C619 1.375 . S
C620 C621 1.416 . S
C621 C620 1.416 . S
C621 C622 1.371 . S
C622 H611 0.930 . S
C622 C618 1.389 . S
C622 C621 1.371 . S
C623 H612 0.970 . S
C623 H613 0.970 . S
C623 C619 1.532 . S
C623 C624 1.499 . S
C624 C623 1.499 . S
C624 C625 1.370 . S
C624 C629 1.415 . S
C625 H614 0.930 . S
C625 C624 1.370 . S
C625 C626 1.407 . S
C626 C625 1.407 . S
C626 C627 1.365 . S
C627 H615 0.930 . S
C627 C626 1.365 . S
C627 C628 1.393 . S
C628 C627 1.393 . S
C628 C629 1.387 . S
C629 H616 0.930 . S
C629 C624 1.415 . S
C629 C628 1.387 . S
H630 C642 0.930 . S
H631 C644 0.930 . S
H632 C645 0.930 . S
H633 C649 0.959 . S
H634 C649 0.959 . S
H635 C649 0.961 . S
H636 C650 0.960 . S
H637 C650 0.961 . S
H638 C650 0.959 . S
H639 C653 0.929 . S
H640 C654 0.931 . S
H641 C656 0.930 . S
C642 H630 0.930 . S
C642 C643 1.376 1_455 S
C642 C647 1.399 . S
C643 C642 1.376 1_655 S
C643 C644 1.440 . S
C644 H631 0.930 . S
C644 C643 1.440 . S
C644 C645 1.388 . S
C645 H632 0.930 . S
C645 C644 1.388 . S
C645 C646 1.390 . S
C646 C645 1.390 . S
C646 C647 1.394 1_655 S
C646 C652 1.465 . S
C647 C642 1.399 . S
C647 C646 1.394 1_455 S
C647 C648 1.516 . S
C648 C647 1.516 . S
C648 C649 1.502 . S
C648 C650 1.561 . S
C648 C651 1.526 . S
C649 H633 0.959 . S
C649 H634 0.959 . S
C649 H635 0.961 . S
C649 C648 1.502 . S
C650 H636 0.960 . S
C650 H637 0.961 . S
C650 H638 0.959 . S
C650 C648 1.561 . S
C651 C648 1.526 . S
C651 C652 1.396 1_455 S
C651 C656 1.390 . S
C652 C646 1.465 . S
C652 C651 1.396 1_655 S
C652 C653 1.399 . S
C653 H639 0.929 . S
C653 C652 1.399 . S
C653 C654 1.385 . S
C654 H640 0.931 . S
C654 C653 1.385 . S
C654 C655 1.389 . S
C655 C654 1.389 . S
C655 C656 1.387 1_655 S
C656 H641 0.930 . S
C656 C651 1.390 . S
C656 C655 1.387 1_455 S
H657 C669 0.930 . S
H658 C671 0.930 . S
H659 C672 0.930 . S
H660 C676 0.959 . S
H661 C676 0.959 . S
H662 C676 0.961 . S
H663 C677 0.960 . S
H664 C677 0.961 . S
H665 C677 0.959 . S
H666 C680 0.929 . S
H667 C681 0.931 . S
H668 C683 0.930 . S
C669 H657 0.930 . S
C669 C670 1.399 . S
C669 C674 1.399 . S
C670 C669 1.399 . S
C670 C671 1.376 . S
C671 H658 0.930 . S
C671 C670 1.376 . S
C671 C672 1.388 . S
C672 H659 0.930 . S
C672 C671 1.388 . S
C672 C673 1.390 . S
C673 C672 1.390 . S
C673 C674 1.394 . S
C673 C679 1.465 . S
C674 C669 1.399 . S
C674 C673 1.394 . S
C674 C675 1.516 . S
C675 C674 1.516 . S
C675 C676 1.502 . S
C675 C677 1.561 . S
C675 C678 1.526 . S
C676 H660 0.959 . S
C676 H661 0.959 . S
C676 H662 0.961 . S
C676 C675 1.502 . S
C677 H663 0.960 . S
C677 H664 0.961 . S
C677 H665 0.959 . S
C677 C675 1.561 . S
C678 C675 1.526 . S
C678 C679 1.396 . S
C678 C683 1.390 . S
C679 C673 1.465 . S
C679 C678 1.396 . S
C679 C680 1.399 . S
C680 H666 0.929 . S
C680 C679 1.399 . S
C680 C681 1.385 . S
C681 H667 0.931 . S
C681 C680 1.385 . S
C681 C682 1.389 . S
C682 C681 1.389 . S
C682 C683 1.387 . S
C683 H668 0.930 . S
C683 C678 1.390 . S
C683 C682 1.387 . S
H684 C696 0.930 . S
H685 C698 0.930 . S
H686 C699 0.930 . S
H687 C703 0.959 . S
H688 C703 0.959 . S
H689 C703 0.961 . S
H690 C704 0.960 . S
H691 C704 0.961 . S
H692 C704 0.959 . S
H693 C707 0.929 . S
H694 C708 0.931 . S
H695 C710 0.930 . S
C696 H684 0.930 . S
C696 C697 1.378 1_565 S
C696 C701 1.399 . S
C697 C696 1.378 1_545 S
C697 C698 1.389 . S
C698 H685 0.930 . S
C698 C697 1.389 . S
C698 C699 1.388 . S
C699 H686 0.930 . S
C699 C698 1.388 . S
C699 C700 1.390 . S
C700 C699 1.390 . S
C700 C701 1.394 1_545 S
C700 C706 1.465 . S
C701 C696 1.399 . S
C701 C700 1.394 1_565 S
C701 C702 1.516 . S
C702 C701 1.516 . S
C702 C703 1.502 . S
C702 C704 1.561 . S
C702 C705 1.526 . S
C703 H687 0.959 . S
C703 H688 0.959 . S
C703 H689 0.961 . S
C703 C702 1.502 . S
C704 H690 0.960 . S
C704 H691 0.961 . S
C704 H692 0.959 . S
C704 C702 1.561 . S
C705 C702 1.526 . S
C705 C706 1.396 1_565 S
C705 C710 1.390 . S
C706 C700 1.465 . S
C706 C705 1.396 1_545 S
C706 C707 1.399 . S
C707 H693 0.929 . S
C707 C706 1.399 . S
C707 C708 1.385 . S
C708 H694 0.931 . S
C708 C707 1.385 . S
C708 C709 1.389 . S
C709 C708 1.389 . S
C709 C710 1.387 1_545 S
C710 H695 0.930 . S
C710 C705 1.390 . S
C710 C709 1.387 1_565 S
H711 C723 0.930 . S
H712 C725 0.930 . S
H713 C726 0.930 . S
H714 C730 0.959 . S
H715 C730 0.959 . S
H716 C730 0.961 . S
H717 C731 0.960 . S
H718 C731 0.961 . S
H719 C731 0.959 . S
H720 C734 0.929 . S
H721 C735 0.931 . S
H722 C737 0.930 . S
C723 H711 0.930 . S
C723 C724 1.399 1_565 S
C723 C728 1.399 . S
C724 C723 1.399 1_545 S
C724 C725 1.376 . S
C725 H712 0.930 . S
C725 C724 1.376 . S
C725 C726 1.388 . S
C726 H713 0.930 . S
C726 C725 1.388 . S
C726 C727 1.390 . S
C727 C726 1.390 . S
C727 C728 1.394 1_545 S
C727 C733 1.465 . S
C728 C723 1.399 . S
C728 C727 1.394 1_565 S
C728 C729 1.516 . S
C729 C728 1.516 . S
C729 C730 1.502 . S
C729 C731 1.561 . S
C729 C732 1.526 . S
C730 H714 0.959 . S
C730 H715 0.959 . S
C730 H716 0.961 . S
C730 C729 1.502 . S
C731 H717 0.960 . S
C731 H718 0.961 . S
C731 H719 0.959 . S
C731 C729 1.561 . S
C732 C729 1.526 . S
C732 C733 1.396 1_565 S
C732 C737 1.390 . S
C733 C727 1.465 . S
C733 C732 1.396 1_545 S
C733 C734 1.399 . S
C734 H720 0.929 . S
C734 C733 1.399 . S
C734 C735 1.385 . S
C735 H721 0.931 . S
C735 C734 1.385 . S
C735 C736 1.389 1_545 S
C736 C735 1.389 1_565 S
C736 C737 1.387 . S
C737 H722 0.930 . S
C737 C732 1.390 . S
C737 C736 1.387 . S
H738 C750 0.930 . S
H739 C752 0.930 . S
H740 C753 0.930 . S
H741 C757 0.959 . S
H742 C757 0.959 . S
H743 C757 0.961 . S
H744 C758 0.960 1_655 S
H745 C758 0.911 1_655 S
H746 C758 0.959 . S
H747 C761 0.929 . S
H748 C762 0.931 . S
H749 C764 0.930 . S
C750 H738 0.930 . S
C750 C751 1.399 1_655 S
C750 C755 1.399 . S
C751 C750 1.399 1_455 S
C751 C752 1.376 . S
C752 H739 0.930 . S
C752 C751 1.376 . S
C752 C753 1.388 . S
C753 H740 0.930 . S
C753 C752 1.388 . S
C753 C754 1.390 . S
C754 C753 1.390 . S
C754 C755 1.394 1_455 S
C754 C760 1.465 . S
C755 C750 1.399 . S
C755 C754 1.394 1_655 S
C755 C756 1.516 . S
C756 C755 1.516 . S
C756 C757 1.502 . S
C756 C758 1.561 1_655 S
C756 C759 1.526 . S
C757 H741 0.959 . S
C757 H742 0.959 . S
C757 H743 0.961 . S
C757 C756 1.502 . S
C758 H744 0.960 1_455 S
C758 H745 0.911 1_455 S
C758 H746 0.959 . S
C758 C756 1.561 1_455 S
C759 C756 1.526 . S
C759 C760 1.396 1_655 S
C759 C764 1.390 . S
C760 C754 1.465 . S
C760 C759 1.396 1_455 S
C760 C761 1.399 . S
C761 H747 0.929 . S
C761 C760 1.399 . S
C761 C762 1.385 . S
C762 H748 0.931 . S
C762 C761 1.385 . S
C762 C763 1.389 . S
C763 C762 1.389 . S
C763 C764 1.387 1_455 S
C764 H749 0.930 . S
C764 C759 1.390 . S
C764 C763 1.387 1_655 S
H765 C777 0.930 . S
H766 C779 0.930 . S
H767 C780 0.930 . S
H768 C784 0.959 . S
H769 C784 0.959 . S
H770 C784 0.961 . S
H771 C785 0.960 . S
H772 C785 0.961 . S
H773 C785 0.959 . S
H774 C788 0.929 . S
H775 C789 0.931 . S
H776 C791 0.930 . S
C777 H765 0.930 . S
C777 C778 1.399 . S
C777 C782 1.399 . S
C778 C777 1.399 . S
C778 C779 1.376 . S
C779 H766 0.930 . S
C779 C778 1.376 . S
C779 C780 1.388 . S
C780 H767 0.930 . S
C780 C779 1.388 . S
C780 C781 1.390 . S
C781 C780 1.390 . S
C781 C782 1.394 . S
C781 C787 1.465 . S
C782 C777 1.399 . S
C782 C781 1.394 . S
C782 C783 1.516 . S
C783 C782 1.516 . S
C783 C784 1.502 . S
C783 C785 1.561 . S
C783 C786 1.526 . S
C784 H768 0.959 . S
C784 H769 0.959 . S
C784 H770 0.961 . S
C784 C783 1.502 . S
C785 H771 0.960 . S
C785 H772 0.961 . S
C785 H773 0.959 . S
C785 C783 1.561 . S
C786 C783 1.526 . S
C786 C787 1.396 . S
C786 C791 1.390 . S
C787 C781 1.465 . S
C787 C786 1.396 . S
C787 C788 1.399 . S
C788 H774 0.929 . S
C788 C787 1.399 . S
C788 C789 1.385 . S
C789 H775 0.931 . S
C789 C788 1.385 . S
C789 C790 1.389 . S
C790 C789 1.389 . S
C790 C791 1.387 . S
C791 H776 0.930 . S
C791 C786 1.390 . S
C791 C790 1.387 . S
H792 C804 0.930 . S
H793 C806 0.930 . S
H794 C807 0.930 . S
H795 C811 0.959 . S
H796 C811 0.959 . S
H797 C811 0.961 . S
H798 C812 0.960 . S
H799 C812 0.961 . S
H800 C812 0.959 . S
H801 C815 0.929 . S
H802 C816 0.935 . S
H803 C818 0.930 . S
C804 H792 0.930 . S
C804 C805 1.399 . S
C804 C809 1.399 . S
C805 C804 1.399 . S
C805 C806 1.376 . S
C806 H793 0.930 . S
C806 C805 1.376 . S
C806 C807 1.388 . S
C807 H794 0.930 . S
C807 C806 1.388 . S
C807 C808 1.390 . S
C808 C807 1.390 . S
C808 C809 1.394 . S
C808 C814 1.465 . S
C809 C804 1.399 . S
C809 C808 1.394 . S
C809 C810 1.516 . S
C810 C809 1.516 . S
C810 C811 1.502 1_655 S
C810 C812 1.561 . S
C810 C813 1.526 . S
C811 H795 0.959 . S
C811 H796 0.959 . S
C811 H797 0.961 . S
C811 C810 1.502 1_455 S
C812 H798 0.960 . S
C812 H799 0.961 . S
C812 H800 0.959 . S
C812 C810 1.561 . S
C813 C810 1.526 . S
C813 C814 1.396 . S
C813 C818 1.390 . S
C814 C808 1.465 . S
C814 C813 1.396 . S
C814 C815 1.402 . S
C815 H801 0.929 . S
C815 C814 1.402 . S
C815 C816 1.353 1_655 S
C816 H802 0.935 . S
C816 C815 1.353 1_455 S
C816 C817 1.400 . S
C817 C816 1.400 . S
C817 C818 1.386 1_455 S
C818 H803 0.930 . S
C818 C813 1.390 . S
C818 C817 1.386 1_655 S
H819 C831 0.930 . S
H820 C833 0.930 . S
H821 C834 0.930 . S
H822 C838 0.959 . S
H823 C838 0.959 . S
H824 C838 0.961 . S
H825 C839 0.960 . S
H826 C839 0.961 . S
H827 C839 0.959 . S
H828 C842 0.929 . S
H829 C843 0.931 . S
H830 C845 0.930 . S
C831 H819 0.930 . S
C831 C832 1.399 . S
C831 C836 1.399 . S
C832 C831 1.399 . S
C832 C833 1.376 . S
C833 H820 0.930 . S
C833 C832 1.376 . S
C833 C834 1.388 . S
C834 H821 0.930 . S
C834 C833 1.388 . S
C834 C835 1.390 . S
C835 C834 1.390 . S
C835 C836 1.394 . S
C835 C841 1.465 . S
C836 C831 1.399 . S
C836 C835 1.394 . S
C836 C837 1.516 . S
C837 C836 1.516 . S
C837 C838 1.502 . S
C837 C839 1.561 . S
C837 C840 1.526 . S
C838 H822 0.959 . S
C838 H823 0.959 . S
C838 H824 0.961 . S
C838 C837 1.502 . S
C839 H825 0.960 . S
C839 H826 0.961 . S
C839 H827 0.959 . S
C839 C837 1.561 . S
C840 C837 1.526 . S
C840 C841 1.396 . S
C840 C845 1.390 . S
C841 C835 1.465 . S
C841 C840 1.396 . S
C841 C842 1.399 . S
C842 H828 0.929 . S
C842 C841 1.399 . S
C842 C843 1.385 . S
C843 H829 0.931 . S
C843 C842 1.385 . S
C843 C844 1.389 . S
C844 C843 1.389 . S
C844 C845 1.387 . S
C845 H830 0.930 . S
C845 C840 1.390 . S
C845 C844 1.387 . S
H846 C858 0.930 . S
H847 C860 0.930 . S
H848 C861 0.930 . S
H849 C865 0.959 . S
H850 C865 0.959 . S
H851 C865 0.961 . S
H852 C866 0.960 . S
H853 C866 0.961 . S
H854 C866 0.959 . S
H855 C869 0.929 . S
H856 C870 0.931 . S
H857 C872 0.930 . S
C858 H846 0.930 . S
C858 C859 1.399 1_565 S
C858 C863 1.399 . S
C859 C858 1.399 1_545 S
C859 C860 1.376 . S
C860 H847 0.930 . S
C860 C859 1.376 . S
C860 C861 1.388 . S
C861 H848 0.930 . S
C861 C860 1.388 . S
C861 C862 1.390 . S
C862 C861 1.390 . S
C862 C863 1.394 1_545 S
C862 C868 1.465 . S
C863 C858 1.399 . S
C863 C862 1.394 1_565 S
C863 C864 1.516 . S
C864 C863 1.516 . S
C864 C865 1.502 . S
C864 C866 1.561 . S
C864 C867 1.526 . S
C865 H849 0.959 . S
C865 H850 0.959 . S
C865 H851 0.961 . S
C865 C864 1.502 . S
C866 H852 0.960 . S
C866 H853 0.961 . S
C866 H854 0.959 . S
C866 C864 1.561 . S
C867 C864 1.526 . S
C867 C868 1.396 1_565 S
C867 C872 1.390 . S
C868 C862 1.465 . S
C868 C867 1.396 1_545 S
C868 C869 1.399 . S
C869 H855 0.929 . S
C869 C868 1.399 . S
C869 C870 1.385 . S
C870 H856 0.931 . S
C870 C869 1.385 . S
C870 C871 1.389 . S
C871 C870 1.389 . S
C871 C872 1.387 1_545 S
C872 H857 0.930 . S
C872 C867 1.390 . S
C872 C871 1.387 1_565 S
H873 C885 0.930 . S
H874 C887 0.930 . S
H875 C888 0.930 . S
H876 C892 0.959 . S
H877 C892 0.959 . S
H878 C892 0.961 . S
H879 C893 0.960 . S
H880 C893 0.961 . S
H881 C893 0.959 . S
H882 C896 0.929 . S
H883 C897 0.931 . S
H884 C899 0.930 . S
C885 H873 0.930 . S
C885 C886 1.399 1_545 S
C885 C890 1.399 . S
C886 C885 1.399 1_565 S
C886 C887 1.376 . S
C887 H874 0.930 . S
C887 C886 1.376 . S
C887 C888 1.388 . S
C888 H875 0.930 . S
C888 C887 1.388 . S
C888 C889 1.390 . S
C889 C888 1.390 . S
C889 C890 1.394 1_565 S
C889 C895 1.465 . S
C890 C885 1.399 . S
C890 C889 1.394 1_545 S
C890 C891 1.516 . S
C891 C890 1.516 . S
C891 C892 1.502 . S
C891 C893 1.561 . S
C891 C894 1.526 . S
C892 H876 0.959 . S
C892 H877 0.959 . S
C892 H878 0.961 . S
C892 C891 1.502 . S
C893 H879 0.960 . S
C893 H880 0.961 . S
C893 H881 0.959 . S
C893 C891 1.561 . S
C894 C891 1.526 . S
C894 C895 1.396 1_545 S
C894 C899 1.390 . S
C895 C889 1.465 . S
C895 C894 1.396 1_565 S
C895 C896 1.399 . S
C896 H882 0.929 . S
C896 C895 1.399 . S
C896 C897 1.385 . S
C897 H883 0.931 . S
C897 C896 1.385 . S
C897 C898 1.417 . S
C898 C897 1.417 . S
C898 C899 1.385 1_565 S
C899 H884 0.930 . S
C899 C894 1.390 . S
C899 C898 1.385 1_545 S
H900 C912 0.930 . S
H901 C914 0.930 . S
H902 C915 0.930 . S
H903 C919 0.959 . S
H904 C919 0.959 . S
H905 C919 0.961 . S
H906 C920 0.960 . S
H907 C920 0.961 . S
H908 C920 0.997 . S
H909 C923 0.929 . S
H910 C924 0.931 . S
H911 C926 0.930 . S
C912 H900 0.930 . S
C912 C913 1.355 1_455 S
C912 C917 1.399 . S
C913 C912 1.355 1_655 S
C913 C914 1.407 . S
C914 H901 0.930 . S
C914 C913 1.407 . S
C914 C915 1.388 . S
C915 H902 0.930 . S
C915 C914 1.388 . S
C915 C916 1.390 . S
C916 C915 1.390 . S
C916 C917 1.394 1_655 S
C916 C922 1.465 . S
C917 C912 1.399 . S
C917 C916 1.394 1_455 S
C917 C918 1.516 . S
C918 C917 1.516 . S
C918 C919 1.502 . S
C918 C920 1.561 . S
C918 C921 1.526 . S
C919 H903 0.959 . S
C919 H904 0.959 . S
C919 H905 0.961 . S
C919 C918 1.502 . S
C920 H906 0.960 . S
C920 H907 0.961 . S
C920 H908 0.997 . S
C920 C918 1.561 . S
C921 C918 1.526 . S
C921 C922 1.396 1_455 S
C921 C926 1.390 . S
C922 C916 1.465 . S
C922 C921 1.396 1_655 S
C922 C923 1.399 . S
C923 H909 0.929 . S
C923 C922 1.399 . S
C923 C924 1.385 . S
C924 H910 0.931 . S
C924 C923 1.385 . S
C924 C925 1.389 . S
C925 C924 1.389 . S
C925 C926 1.387 1_655 S
C926 H911 0.930 . S
C926 C921 1.390 . S
C926 C925 1.387 1_455 S
H927 C939 0.930 . S
H928 C941 0.930 . S
H929 C942 0.930 . S
H930 C946 0.959 . S
H931 C946 0.959 . S
H932 C946 0.961 . S
H933 C947 0.960 . S
H934 C947 0.961 . S
H935 C947 0.959 . S
H936 C950 0.929 . S
H937 C951 0.931 . S
H938 C953 0.930 . S
C939 H927 0.930 . S
C939 C940 1.399 . S
C939 C944 1.399 . S
C940 C939 1.399 . S
C940 C941 1.376 . S
C941 H928 0.930 . S
C941 C940 1.376 . S
C941 C942 1.388 . S
C942 H929 0.930 . S
C942 C941 1.388 . S
C942 C943 1.390 . S
C943 C942 1.390 . S
C943 C944 1.394 . S
C943 C949 1.465 . S
C944 C939 1.399 . S
C944 C943 1.394 . S
C944 C945 1.516 . S
C945 C944 1.516 . S
C945 C946 1.502 . S
C945 C947 1.561 . S
C945 C948 1.526 . S
C946 H930 0.959 . S
C946 H931 0.959 . S
C946 H932 0.961 . S
C946 C945 1.502 . S
C947 H933 0.960 . S
C947 H934 0.961 . S
C947 H935 0.959 . S
C947 C945 1.561 . S
C948 C945 1.526 . S
C948 C949 1.396 . S
C948 C953 1.390 . S
C949 C943 1.465 . S
C949 C948 1.396 . S
C949 C950 1.399 . S
C950 H936 0.929 . S
C950 C949 1.399 . S
C950 C951 1.385 . S
C951 H937 0.931 . S
C951 C950 1.385 . S
C951 C952 1.389 . S
C952 C951 1.389 . S
C952 C953 1.387 . S
C953 H938 0.930 . S
C953 C948 1.390 . S
C953 C952 1.387 . S
H954 C966 0.930 . S
H955 C968 0.930 . S
H956 C969 0.930 . S
H957 C973 0.959 . S
H958 C973 0.959 . S
H959 C973 0.961 . S
H960 C974 0.960 . S
H961 C974 0.961 . S
H962 C974 0.959 . S
H963 C977 0.929 . S
H964 C978 0.931 . S
H965 C980 0.930 . S
C966 H954 0.930 . S
C966 C967 1.399 . S
C966 C971 1.399 . S
C967 C966 1.399 . S
C967 C968 1.376 . S
C968 H955 0.930 . S
C968 C967 1.376 . S
C968 C969 1.388 . S
C969 H956 0.930 . S
C969 C968 1.388 . S
C969 C970 1.390 . S
C970 C969 1.390 . S
C970 C971 1.394 . S
C970 C976 1.465 . S
C971 C966 1.399 . S
C971 C970 1.394 . S
C971 C972 1.516 . S
C972 C971 1.516 . S
C972 C973 1.502 . S
C972 C974 1.561 . S
C972 C975 1.526 . S
C973 H957 0.959 . S
C973 H958 0.959 . S
C973 H959 0.961 . S
C973 C972 1.502 . S
C974 H960 0.960 . S
C974 H961 0.961 . S
C974 H962 0.959 . S
C974 C972 1.561 . S
C975 C972 1.526 . S
C975 C976 1.396 . S
C975 C980 1.390 . S
C976 C970 1.465 . S
C976 C975 1.396 . S
C976 C977 1.399 . S
C977 H963 0.929 . S
C977 C976 1.399 . S
C977 C978 1.385 . S
C978 H964 0.931 . S
C978 C977 1.385 . S
C978 C979 1.389 . S
C979 C978 1.389 . S
C979 C980 1.387 . S
C980 H965 0.930 . S
C980 C975 1.390 . S
C980 C979 1.387 . S
H981 C993 0.930 . S
H982 C995 0.930 . S
H983 C996 0.930 . S
H984 C1000 0.959 . S
H985 C1000 0.959 . S
H986 C1000 0.961 . S
H987 C1001 0.960 . S
H988 C1001 0.961 . S
H989 C1001 0.959 . S
H990 C1004 0.929 . S
H991 C1005 0.931 . S
H992 C1007 0.930 . S
C993 H981 0.930 . S
C993 C994 1.399 . S
C993 C998 1.399 . S
C994 C993 1.399 . S
C994 C995 1.376 . S
C995 H982 0.930 . S
C995 C994 1.376 . S
C995 C996 1.388 . S
C996 H983 0.930 . S
C996 C995 1.388 . S
C996 C997 1.390 . S
C997 C996 1.390 . S
C997 C998 1.394 . S
C997 C1003 1.465 . S
C998 C993 1.399 . S
C998 C997 1.394 . S
C998 C999 1.516 . S
C999 C998 1.516 . S
C999 C1000 1.502 . S
C999 C1001 1.561 . S
C999 C1002 1.526 . S
C1000 H984 0.959 . S
C1000 H985 0.959 . S
C1000 H986 0.961 . S
C1000 C999 1.502 . S
C1001 H987 0.960 . S
C1001 H988 0.961 . S
C1001 H989 0.959 . S
C1001 C999 1.561 . S
C1002 C999 1.526 . S
C1002 C1003 1.396 . S
C1002 C1007 1.390 . S
C1003 C997 1.465 . S
C1003 C1002 1.396 . S
C1003 C1004 1.399 . S
C1004 H990 0.929 . S
C1004 C1003 1.399 . S
C1004 C1005 1.385 . S
C1005 H991 0.931 . S
C1005 C1004 1.385 . S
C1005 C1006 1.389 . S
C1006 C1005 1.389 . S
C1006 C1007 1.387 . S
C1007 H992 0.930 . S
C1007 C1002 1.390 . S
C1007 C1006 1.387 . S
H1008 C1020 0.930 . S
H1009 C1022 0.930 . S
H1010 C1023 0.930 . S
H1011 C1027 0.959 . S
H1012 C1027 0.959 . S
H1013 C1027 0.961 . S
H1014 C1028 0.960 . S
H1015 C1028 0.961 . S
H1016 C1028 0.959 . S
H1017 C1031 0.929 . S
H1018 C1032 0.931 . S
H1019 C1034 0.930 . S
C1020 H1008 0.930 . S
C1020 C1021 1.399 . S
C1020 C1025 1.399 . S
C1021 C1020 1.399 . S
C1021 C1022 1.376 . S
C1022 H1009 0.930 . S
C1022 C1021 1.376 . S
C1022 C1023 1.388 . S
C1023 H1010 0.930 . S
C1023 C1022 1.388 . S
C1023 C1024 1.390 . S
C1024 C1023 1.390 . S
C1024 C1025 1.394 . S
C1024 C1030 1.465 . S
C1025 C1020 1.399 . S
C1025 C1024 1.394 . S
C1025 C1026 1.516 . S
C1026 C1025 1.516 . S
C1026 C1027 1.502 . S
C1026 C1028 1.561 . S
C1026 C1029 1.526 . S
C1027 H1011 0.959 . S
C1027 H1012 0.959 . S
C1027 H1013 0.961 . S
C1027 C1026 1.502 . S
C1028 H1014 0.960 . S
C1028 H1015 0.961 . S
C1028 H1016 0.959 . S
C1028 C1026 1.561 . S
C1029 C1026 1.526 . S
C1029 C1030 1.396 . S
C1029 C1034 1.390 . S
C1030 C1024 1.465 . S
C1030 C1029 1.396 . S
C1030 C1031 1.399 . S
C1031 H1017 0.929 . S
C1031 C1030 1.399 . S
C1031 C1032 1.385 . S
C1032 H1018 0.931 . S
C1032 C1031 1.385 . S
C1032 C1033 1.389 . S
C1033 C1032 1.389 . S
C1033 C1034 1.387 . S
C1034 H1019 0.930 . S
C1034 C1029 1.390 . S
C1034 C1033 1.387 . S
H1035 C1047 0.930 . S
H1036 C1049 0.930 . S
H1037 C1050 0.930 . S
H1038 C1054 0.959 . S
H1039 C1054 0.959 . S
H1040 C1054 0.961 . S
H1041 C1055 0.960 . S
H1042 C1055 0.961 . S
H1043 C1055 0.959 . S
H1044 C1058 0.929 . S
H1045 C1059 0.931 . S
H1046 C1061 0.930 . S
C1047 H1035 0.930 . S
C1047 C1048 1.399 . S
C1047 C1052 1.399 . S
C1048 C1047 1.399 . S
C1048 C1049 1.376 . S
C1049 H1036 0.930 . S
C1049 C1048 1.376 . S
C1049 C1050 1.388 . S
C1050 H1037 0.930 . S
C1050 C1049 1.388 . S
C1050 C1051 1.390 . S
C1051 C1050 1.390 . S
C1051 C1052 1.394 . S
C1051 C1057 1.465 . S
C1052 C1047 1.399 . S
C1052 C1051 1.394 . S
C1052 C1053 1.516 . S
C1053 C1052 1.516 . S
C1053 C1054 1.502 . S
C1053 C1055 1.561 . S
C1053 C1056 1.526 . S
C1054 H1038 0.959 . S
C1054 H1039 0.959 . S
C1054 H1040 0.961 . S
C1054 C1053 1.502 . S
C1055 H1041 0.960 . S
C1055 H1042 0.961 . S
C1055 H1043 0.959 . S
C1055 C1053 1.561 . S
C1056 C1053 1.526 . S
C1056 C1057 1.396 . S
C1056 C1061 1.390 . S
C1057 C1051 1.465 . S
C1057 C1056 1.396 . S
C1057 C1058 1.399 . S
C1058 H1044 0.929 . S
C1058 C1057 1.399 . S
C1058 C1059 1.385 . S
C1059 H1045 0.931 . S
C1059 C1058 1.385 . S
C1059 C1060 1.389 . S
C1060 C1059 1.389 . S
C1060 C1061 1.387 . S
C1061 H1046 0.930 . S
C1061 C1056 1.390 . S
C1061 C1060 1.387 . S
H1062 C1074 0.930 . S
H1063 C1076 0.930 . S
H1064 C1077 0.930 . S
H1065 C1081 0.959 . S
H1066 C1081 0.959 . S
H1067 C1081 0.961 . S
H1068 C1082 0.960 . S
H1069 C1082 0.961 . S
H1070 C1082 0.959 . S
H1071 C1085 0.929 . S
H1072 C1086 0.931 . S
H1073 C1088 0.930 . S
C1074 H1062 0.930 . S
C1074 C1075 1.399 . S
C1074 C1079 1.399 . S
C1075 C1074 1.399 . S
C1075 C1076 1.376 . S
C1076 H1063 0.930 . S
C1076 C1075 1.376 . S
C1076 C1077 1.388 . S
C1077 H1064 0.930 . S
C1077 C1076 1.388 . S
C1077 C1078 1.390 . S
C1078 C1077 1.390 . S
C1078 C1079 1.394 . S
C1078 C1084 1.465 . S
C1079 C1074 1.399 . S
C1079 C1078 1.394 . S
C1079 C1080 1.516 . S
C1080 C1079 1.516 . S
C1080 C1081 1.502 . S
C1080 C1082 1.561 . S
C1080 C1083 1.526 . S
C1081 H1065 0.959 . S
C1081 H1066 0.959 . S
C1081 H1067 0.961 . S
C1081 C1080 1.502 . S
C1082 H1068 0.960 . S
C1082 H1069 0.961 . S
C1082 H1070 0.959 . S
C1082 C1080 1.561 . S
C1083 C1080 1.526 . S
C1083 C1084 1.396 . S
C1083 C1088 1.390 . S
C1084 C1078 1.465 . S
C1084 C1083 1.396 . S
C1084 C1085 1.399 . S
C1085 H1071 0.929 . S
C1085 C1084 1.399 . S
C1085 C1086 1.385 . S
C1086 H1072 0.931 . S
C1086 C1085 1.385 . S
C1086 C1087 1.389 . S
C1087 C1086 1.389 . S
C1087 C1088 1.387 . S
C1088 H1073 0.930 . S
C1088 C1083 1.390 . S
C1088 C1087 1.387 . S
H1089 C1101 0.930 . S
H1090 C1103 0.930 . S
H1091 C1104 0.930 . S
H1092 C1108 0.959 . S
H1093 C1108 0.959 . S
H1094 C1108 0.961 . S
H1095 C1109 0.960 . S
H1096 C1109 0.961 . S
H1097 C1109 0.959 . S
H1098 C1112 0.929 . S
H1099 C1113 0.931 . S
H1100 C1115 0.930 . S
C1101 H1089 0.930 . S
C1101 C1102 1.399 . S
C1101 C1106 1.399 . S
C1102 C1101 1.399 . S
C1102 C1103 1.376 . S
C1103 H1090 0.930 . S
C1103 C1102 1.376 . S
C1103 C1104 1.388 . S
C1104 H1091 0.930 . S
C1104 C1103 1.388 . S
C1104 C1105 1.390 . S
C1105 C1104 1.390 . S
C1105 C1106 1.394 . S
C1105 C1111 1.465 . S
C1106 C1101 1.399 . S
C1106 C1105 1.394 . S
C1106 C1107 1.516 . S
C1107 C1106 1.516 . S
C1107 C1108 1.502 . S
C1107 C1109 1.561 . S
C1107 C1110 1.526 . S
C1108 H1092 0.959 . S
C1108 H1093 0.959 . S
C1108 H1094 0.961 . S
C1108 C1107 1.502 . S
C1109 H1095 0.960 . S
C1109 H1096 0.961 . S
C1109 H1097 0.959 . S
C1109 C1107 1.561 . S
C1110 C1107 1.526 . S
C1110 C1111 1.396 . S
C1110 C1115 1.390 . S
C1111 C1105 1.465 . S
C1111 C1110 1.396 . S
C1111 C1112 1.399 . S
C1112 H1098 0.929 . S
C1112 C1111 1.399 . S
C1112 C1113 1.385 . S
C1113 H1099 0.931 . S
C1113 C1112 1.385 . S
C1113 C1114 1.389 . S
C1114 C1113 1.389 . S
C1114 C1115 1.387 . S
C1115 H1100 0.930 . S
C1115 C1110 1.390 . S
C1115 C1114 1.387 . S
H1116 C1128 0.930 . S
H1117 C1130 0.930 . S
H1118 C1131 0.930 . S
H1119 C1135 0.959 . S
H1120 C1135 0.959 . S
H1121 C1135 0.961 . S
H1122 C1136 0.960 . S
H1123 C1136 0.961 . S
H1124 C1136 0.959 . S
H1125 C1139 0.929 . S
H1126 C1140 0.931 . S
H1127 C1142 0.930 . S
C1128 H1116 0.930 . S
C1128 C1129 1.399 . S
C1128 C1133 1.399 . S
C1129 C1128 1.399 . S
C1129 C1130 1.376 . S
C1130 H1117 0.930 . S
C1130 C1129 1.376 . S
C1130 C1131 1.388 . S
C1131 H1118 0.930 . S
C1131 C1130 1.388 . S
C1131 C1132 1.390 . S
C1132 C1131 1.390 . S
C1132 C1133 1.394 . S
C1132 C1138 1.465 . S
C1133 C1128 1.399 . S
C1133 C1132 1.394 . S
C1133 C1134 1.516 . S
C1134 C1133 1.516 . S
C1134 C1135 1.502 . S
C1134 C1136 1.561 . S
C1134 C1137 1.526 . S
C1135 H1119 0.959 . S
C1135 H1120 0.959 . S
C1135 H1121 0.961 . S
C1135 C1134 1.502 . S
C1136 H1122 0.960 . S
C1136 H1123 0.961 . S
C1136 H1124 0.959 . S
C1136 C1134 1.561 . S
C1137 C1134 1.526 . S
C1137 C1138 1.396 . S
C1137 C1142 1.390 . S
C1138 C1132 1.465 . S
C1138 C1137 1.396 . S
C1138 C1139 1.399 . S
C1139 H1125 0.929 . S
C1139 C1138 1.399 . S
C1139 C1140 1.385 . S
C1140 H1126 0.931 . S
C1140 C1139 1.385 . S
C1140 C1141 1.389 . S
C1141 C1140 1.389 . S
C1141 C1142 1.387 . S
C1142 H1127 0.930 . S
C1142 C1137 1.390 . S
C1142 C1141 1.387 . S
H1143 C1155 0.930 . S
H1144 C1157 0.930 . S
H1145 C1158 0.930 . S
H1146 C1162 0.959 . S
H1147 C1162 0.959 . S
H1148 C1162 0.961 . S
H1149 C1163 0.960 . S
H1150 C1163 0.961 . S
H1151 C1163 0.959 . S
H1152 C1166 0.929 . S
H1153 C1167 0.931 . S
H1154 C1169 0.930 . S
C1155 H1143 0.930 . S
C1155 C1156 1.399 . S
C1155 C1160 1.399 . S
C1156 C1155 1.399 . S
C1156 C1157 1.376 . S
C1157 H1144 0.930 . S
C1157 C1156 1.376 . S
C1157 C1158 1.388 . S
C1158 H1145 0.930 . S
C1158 C1157 1.388 . S
C1158 C1159 1.390 . S
C1159 C1158 1.390 . S
C1159 C1160 1.394 . S
C1159 C1165 1.465 . S
C1160 C1155 1.399 . S
C1160 C1159 1.394 . S
C1160 C1161 1.516 . S
C1161 C1160 1.516 . S
C1161 C1162 1.502 . S
C1161 C1163 1.561 . S
C1161 C1164 1.526 . S
C1162 H1146 0.959 . S
C1162 H1147 0.959 . S
C1162 H1148 0.961 . S
C1162 C1161 1.502 . S
C1163 H1149 0.960 . S
C1163 H1150 0.961 . S
C1163 H1151 0.959 . S
C1163 C1161 1.561 . S
C1164 C1161 1.526 . S
C1164 C1165 1.396 . S
C1164 C1169 1.390 . S
C1165 C1159 1.465 . S
C1165 C1164 1.396 . S
C1165 C1166 1.399 . S
C1166 H1152 0.929 . S
C1166 C1165 1.399 . S
C1166 C1167 1.385 . S
C1167 H1153 0.931 . S
C1167 C1166 1.385 . S
C1167 C1168 1.389 . S
C1168 C1167 1.389 . S
C1168 C1169 1.387 . S
C1169 H1154 0.930 . S
C1169 C1164 1.390 . S
C1169 C1168 1.387 . S
H1170 C1182 0.930 . S
H1171 C1184 0.930 . S
H1172 C1185 0.930 . S
H1173 C1189 0.959 . S
H1174 C1189 0.959 . S
H1175 C1189 0.961 . S
H1176 C1190 0.960 . S
H1177 C1190 0.961 . S
H1178 C1190 0.959 . S
H1179 C1193 0.929 . S
H1180 C1194 0.931 . S
H1181 C1196 0.930 . S
C1182 H1170 0.930 . S
C1182 C1183 1.399 . S
C1182 C1187 1.399 . S
C1183 C1182 1.399 . S
C1183 C1184 1.376 . S
C1184 H1171 0.930 . S
C1184 C1183 1.376 . S
C1184 C1185 1.388 . S
C1185 H1172 0.930 . S
C1185 C1184 1.388 . S
C1185 C1186 1.390 . S
C1186 C1185 1.390 . S
C1186 C1187 1.394 . S
C1186 C1192 1.465 . S
C1187 C1182 1.399 . S
C1187 C1186 1.394 . S
C1187 C1188 1.516 . S
C1188 C1187 1.516 . S
C1188 C1189 1.502 . S
C1188 C1190 1.561 . S
C1188 C1191 1.526 . S
C1189 H1173 0.959 . S
C1189 H1174 0.959 . S
C1189 H1175 0.961 . S
C1189 C1188 1.502 . S
C1190 H1176 0.960 . S
C1190 H1177 0.961 . S
C1190 H1178 0.959 . S
C1190 C1188 1.561 . S
C1191 C1188 1.526 . S
C1191 C1192 1.396 . S
C1191 C1196 1.390 . S
C1192 C1186 1.465 . S
C1192 C1191 1.396 . S
C1192 C1193 1.399 . S
C1193 H1179 0.929 . S
C1193 C1192 1.399 . S
C1193 C1194 1.385 . S
C1194 H1180 0.931 . S
C1194 C1193 1.385 . S
C1194 C1195 1.389 . S
C1195 C1194 1.389 . S
C1195 C1196 1.387 . S
C1196 H1181 0.930 . S
C1196 C1191 1.390 . S
C1196 C1195 1.387 . S
H1197 C1209 0.930 . S
H1198 C1211 0.930 . S
H1199 C1212 0.930 . S
H1200 C1216 0.959 . S
H1201 C1216 0.959 . S
H1202 C1216 0.961 . S
H1203 C1217 0.960 . S
H1204 C1217 0.961 . S
H1205 C1217 0.959 . S
H1206 C1220 0.929 . S
H1207 C1221 0.931 . S
H1208 C1223 0.930 . S
C1209 H1197 0.930 . S
C1209 C1210 1.399 . S
C1209 C1214 1.399 . S
C1210 C1209 1.399 . S
C1210 C1211 1.376 . S
C1211 H1198 0.930 . S
C1211 C1210 1.376 . S
C1211 C1212 1.388 . S
C1212 H1199 0.930 . S
C1212 C1211 1.388 . S
C1212 C1213 1.390 . S
C1213 C1212 1.390 . S
C1213 C1214 1.394 . S
C1213 C1219 1.465 . S
C1214 C1209 1.399 . S
C1214 C1213 1.394 . S
C1214 C1215 1.516 . S
C1215 C1214 1.516 . S
C1215 C1216 1.502 . S
C1215 C1217 1.561 . S
C1215 C1218 1.526 . S
C1216 H1200 0.959 . S
C1216 H1201 0.959 . S
C1216 H1202 0.961 . S
C1216 C1215 1.502 . S
C1217 H1203 0.960 . S
C1217 H1204 0.961 . S
C1217 H1205 0.959 . S
C1217 C1215 1.561 . S
C1218 C1215 1.526 . S
C1218 C1219 1.396 . S
C1218 C1223 1.390 . S
C1219 C1213 1.465 . S
C1219 C1218 1.396 . S
C1219 C1220 1.399 . S
C1220 H1206 0.929 . S
C1220 C1219 1.399 . S
C1220 C1221 1.385 . S
C1221 H1207 0.931 . S
C1221 C1220 1.385 . S
C1221 C1222 1.389 . S
C1222 C1221 1.389 . S
C1222 C1223 1.387 . S
C1223 H1208 0.930 . S
C1223 C1218 1.390 . S
C1223 C1222 1.387 . S
H1224 C1236 0.930 . S
H1225 C1238 0.930 . S
H1226 C1239 0.930 . S
H1227 C1243 0.959 . S
H1228 C1243 0.959 . S
H1229 C1243 0.961 . S
H1230 C1244 0.960 . S
H1231 C1244 0.961 . S
H1232 C1244 0.959 . S
H1233 C1247 0.929 . S
H1234 C1248 0.931 . S
H1235 C1250 0.930 . S
C1236 H1224 0.930 . S
C1236 C1237 1.399 . S
C1236 C1241 1.399 . S
C1237 C1236 1.399 . S
C1237 C1238 1.376 . S
C1238 H1225 0.930 . S
C1238 C1237 1.376 . S
C1238 C1239 1.388 . S
C1239 H1226 0.930 . S
C1239 C1238 1.388 . S
C1239 C1240 1.390 . S
C1240 C1239 1.390 . S
C1240 C1241 1.394 . S
C1240 C1246 1.465 . S
C1241 C1236 1.399 . S
C1241 C1240 1.394 . S
C1241 C1242 1.516 . S
C1242 C1241 1.516 . S
C1242 C1243 1.502 . S
C1242 C1244 1.561 . S
C1242 C1245 1.526 . S
C1243 H1227 0.959 . S
C1243 H1228 0.959 . S
C1243 H1229 0.961 . S
C1243 C1242 1.502 . S
C1244 H1230 0.960 . S
C1244 H1231 0.961 . S
C1244 H1232 0.959 . S
C1244 C1242 1.561 . S
C1245 C1242 1.526 . S
C1245 C1246 1.396 . S
C1245 C1250 1.390 . S
C1246 C1240 1.465 . S
C1246 C1245 1.396 . S
C1246 C1247 1.399 . S
C1247 H1233 0.929 . S
C1247 C1246 1.399 . S
C1247 C1248 1.385 . S
C1248 H1234 0.931 . S
C1248 C1247 1.385 . S
C1248 C1249 1.389 . S
C1249 C1248 1.389 . S
C1249 C1250 1.387 . S
C1250 H1235 0.930 . S
C1250 C1245 1.390 . S
C1250 C1249 1.387 . S
H1251 C1263 0.930 . S
H1252 C1265 0.930 . S
H1253 C1266 0.930 . S
H1254 C1270 0.959 . S
H1255 C1270 0.959 . S
H1256 C1270 0.961 . S
H1257 C1271 0.960 . S
H1258 C1271 0.961 . S
H1259 C1271 0.959 . S
H1260 C1274 0.929 . S
H1261 C1275 0.931 . S
H1262 C1277 0.930 . S
C1263 H1251 0.930 . S
C1263 C1264 1.399 . S
C1263 C1268 1.399 . S
C1264 C1263 1.399 . S
C1264 C1265 1.376 . S
C1265 H1252 0.930 . S
C1265 C1264 1.376 . S
C1265 C1266 1.388 . S
C1266 H1253 0.930 . S
C1266 C1265 1.388 . S
C1266 C1267 1.390 . S
C1267 C1266 1.390 . S
C1267 C1268 1.394 . S
C1267 C1273 1.465 . S
C1268 C1263 1.399 . S
C1268 C1267 1.394 . S
C1268 C1269 1.516 . S
C1269 C1268 1.516 . S
C1269 C1270 1.502 . S
C1269 C1271 1.561 . S
C1269 C1272 1.526 . S
C1270 H1254 0.959 . S
C1270 H1255 0.959 . S
C1270 H1256 0.961 . S
C1270 C1269 1.502 . S
C1271 H1257 0.960 . S
C1271 H1258 0.961 . S
C1271 H1259 0.959 . S
C1271 C1269 1.561 . S
C1272 C1269 1.526 . S
C1272 C1273 1.396 . S
C1272 C1277 1.390 . S
C1273 C1267 1.465 . S
C1273 C1272 1.396 . S
C1273 C1274 1.399 . S
C1274 H1260 0.929 . S
C1274 C1273 1.399 . S
C1274 C1275 1.385 . S
C1275 H1261 0.931 . S
C1275 C1274 1.385 . S
C1275 C1276 1.389 . S
C1276 C1275 1.389 . S
C1276 C1277 1.387 . S
C1277 H1262 0.930 . S
C1277 C1272 1.390 . S
C1277 C1276 1.387 . S
H1278 C1290 0.930 . S
H1279 C1292 0.930 . S
H1280 C1293 0.930 . S
H1281 C1297 0.959 . S
H1282 C1297 0.959 . S
H1283 C1297 0.961 . S
H1284 C1298 0.960 . S
H1285 C1298 0.961 . S
H1286 C1298 0.959 . S
H1287 C1301 0.929 . S
H1288 C1302 0.931 . S
H1289 C1304 0.930 . S
C1290 H1278 0.930 . S
C1290 C1291 1.399 . S
C1290 C1295 1.399 . S
C1291 C1290 1.399 . S
C1291 C1292 1.376 . S
C1292 H1279 0.930 . S
C1292 C1291 1.376 . S
C1292 C1293 1.388 . S
C1293 H1280 0.930 . S
C1293 C1292 1.388 . S
C1293 C1294 1.390 . S
C1294 C1293 1.390 . S
C1294 C1295 1.394 . S
C1294 C1300 1.465 . S
C1295 C1290 1.399 . S
C1295 C1294 1.394 . S
C1295 C1296 1.516 . S
C1296 C1295 1.516 . S
C1296 C1297 1.502 . S
C1296 C1298 1.561 . S
C1296 C1299 1.526 . S
C1297 H1281 0.959 . S
C1297 H1282 0.959 . S
C1297 H1283 0.961 . S
C1297 C1296 1.502 . S
C1298 H1284 0.960 . S
C1298 H1285 0.961 . S
C1298 H1286 0.959 . S
C1298 C1296 1.561 . S
C1299 C1296 1.526 . S
C1299 C1300 1.396 . S
C1299 C1304 1.390 . S
C1300 C1294 1.465 . S
C1300 C1299 1.396 . S
C1300 C1301 1.399 . S
C1301 H1287 0.929 . S
C1301 C1300 1.399 . S
C1301 C1302 1.385 . S
C1302 H1288 0.931 . S
C1302 C1301 1.385 . S
C1302 C1303 1.389 . S
C1303 C1302 1.389 . S
C1303 C1304 1.387 . S
C1304 H1289 0.930 . S
C1304 C1299 1.390 . S
C1304 C1303 1.387 . S
H1305 C1317 0.930 . S
H1306 C1319 0.930 . S
H1307 C1320 0.930 . S
H1308 C1324 0.959 . S
H1309 C1324 0.959 . S
H1310 C1324 0.961 . S
H1311 C1325 0.960 . S
H1312 C1325 0.961 . S
H1313 C1325 0.959 . S
H1314 C1328 0.929 . S
H1315 C1329 0.931 . S
H1316 C1331 0.930 . S
C1317 H1305 0.930 . S
C1317 C1318 1.399 . S
C1317 C1322 1.399 . S
C1318 C1317 1.399 . S
C1318 C1319 1.376 . S
C1319 H1306 0.930 . S
C1319 C1318 1.376 . S
C1319 C1320 1.388 . S
C1320 H1307 0.930 . S
C1320 C1319 1.388 . S
C1320 C1321 1.390 . S
C1321 C1320 1.390 . S
C1321 C1322 1.394 . S
C1321 C1327 1.465 . S
C1322 C1317 1.399 . S
C1322 C1321 1.394 . S
C1322 C1323 1.516 . S
C1323 C1322 1.516 . S
C1323 C1324 1.502 . S
C1323 C1325 1.561 . S
C1323 C1326 1.526 . S
C1324 H1308 0.959 . S
C1324 H1309 0.959 . S
C1324 H1310 0.961 . S
C1324 C1323 1.502 . S
C1325 H1311 0.960 . S
C1325 H1312 0.961 . S
C1325 H1313 0.959 . S
C1325 C1323 1.561 . S
C1326 C1323 1.526 . S
C1326 C1327 1.396 . S
C1326 C1331 1.390 . S
C1327 C1321 1.465 . S
C1327 C1326 1.396 . S
C1327 C1328 1.399 . S
C1328 H1314 0.929 . S
C1328 C1327 1.399 . S
C1328 C1329 1.385 . S
C1329 H1315 0.931 . S
C1329 C1328 1.385 . S
C1329 C1330 1.389 . S
C1330 C1329 1.389 . S
C1330 C1331 1.387 . S
C1331 H1316 0.930 . S
C1331 C1326 1.390 . S
C1331 C1330 1.387 . S
H1332 C1344 0.930 . S
H1333 C1346 0.930 . S
H1334 C1347 0.930 . S
H1335 C1351 0.959 . S
H1336 C1351 0.959 . S
H1337 C1351 0.961 . S
H1338 C1352 0.960 . S
H1339 C1352 0.961 . S
H1340 C1352 0.959 . S
H1341 C1355 0.929 . S
H1342 C1356 0.931 . S
H1343 C1358 0.930 . S
C1344 H1332 0.930 . S
C1344 C1345 1.399 . S
C1344 C1349 1.399 . S
C1345 C1344 1.399 . S
C1345 C1346 1.376 . S
C1346 H1333 0.930 . S
C1346 C1345 1.376 . S
C1346 C1347 1.388 . S
C1347 H1334 0.930 . S
C1347 C1346 1.388 . S
C1347 C1348 1.390 . S
C1348 C1347 1.390 . S
C1348 C1349 1.394 . S
C1348 C1354 1.465 . S
C1349 C1344 1.399 . S
C1349 C1348 1.394 . S
C1349 C1350 1.516 . S
C1350 C1349 1.516 . S
C1350 C1351 1.502 . S
C1350 C1352 1.561 . S
C1350 C1353 1.526 . S
C1351 H1335 0.959 . S
C1351 H1336 0.959 . S
C1351 H1337 0.961 . S
C1351 C1350 1.502 . S
C1352 H1338 0.960 . S
C1352 H1339 0.961 . S
C1352 H1340 0.959 . S
C1352 C1350 1.561 . S
C1353 C1350 1.526 . S
C1353 C1354 1.396 . S
C1353 C1358 1.390 . S
C1354 C1348 1.465 . S
C1354 C1353 1.396 . S
C1354 C1355 1.399 . S
C1355 H1341 0.929 . S
C1355 C1354 1.399 . S
C1355 C1356 1.385 . S
C1356 H1342 0.931 . S
C1356 C1355 1.385 . S
C1356 C1357 1.389 . S
C1357 C1356 1.389 . S
C1357 C1358 1.387 . S
C1358 H1343 0.930 . S
C1358 C1353 1.390 . S
C1358 C1357 1.387 . S
H1359 C1371 0.930 . S
H1360 C1373 0.930 . S
H1361 C1374 0.930 . S
H1362 C1378 0.959 . S
H1363 C1378 0.959 . S
H1364 C1378 0.961 . S
H1365 C1379 0.960 . S
H1366 C1379 0.961 . S
H1367 C1379 0.959 . S
H1368 C1382 0.929 . S
H1369 C1383 0.931 . S
H1370 C1385 0.930 . S
C1371 H1359 0.930 . S
C1371 C1372 1.399 . S
C1371 C1376 1.399 . S
C1372 C1371 1.399 . S
C1372 C1373 1.376 . S
C1373 H1360 0.930 . S
C1373 C1372 1.376 . S
C1373 C1374 1.388 . S
C1374 H1361 0.930 . S
C1374 C1373 1.388 . S
C1374 C1375 1.390 . S
C1375 C1374 1.390 . S
C1375 C1376 1.394 . S
C1375 C1381 1.465 . S
C1376 C1371 1.399 . S
C1376 C1375 1.394 . S
C1376 C1377 1.516 . S
C1377 C1376 1.516 . S
C1377 C1378 1.502 . S
C1377 C1379 1.561 . S
C1377 C1380 1.526 . S
C1378 H1362 0.959 . S
C1378 H1363 0.959 . S
C1378 H1364 0.961 . S
C1378 C1377 1.502 . S
C1379 H1365 0.960 . S
C1379 H1366 0.961 . S
C1379 H1367 0.959 . S
C1379 C1377 1.561 . S
C1380 C1377 1.526 . S
C1380 C1381 1.396 . S
C1380 C1385 1.390 . S
C1381 C1375 1.465 . S
C1381 C1380 1.396 . S
C1381 C1382 1.399 . S
C1382 H1368 0.929 . S
C1382 C1381 1.399 . S
C1382 C1383 1.385 . S
C1383 H1369 0.931 . S
C1383 C1382 1.385 . S
C1383 C1384 1.389 . S
C1384 C1383 1.389 . S
C1384 C1385 1.387 . S
C1385 H1370 0.930 . S
C1385 C1380 1.390 . S
C1385 C1384 1.387 . S
H1386 C1398 0.930 . S
H1387 C1400 0.930 . S
H1388 C1401 0.930 . S
H1389 C1405 0.959 . S
H1390 C1405 0.959 . S
H1391 C1405 0.961 . S
H1392 C1406 0.960 . S
H1393 C1406 0.961 . S
H1394 C1406 0.959 . S
H1395 C1409 0.929 . S
H1396 C1410 0.931 . S
H1397 C1412 0.930 . S
C1398 H1386 0.930 . S
C1398 C1399 1.399 . S
C1398 C1403 1.399 . S
C1399 C1398 1.399 . S
C1399 C1400 1.376 . S
C1400 H1387 0.930 . S
C1400 C1399 1.376 . S
C1400 C1401 1.388 . S
C1401 H1388 0.930 . S
C1401 C1400 1.388 . S
C1401 C1402 1.390 . S
C1402 C1401 1.390 . S
C1402 C1403 1.394 . S
C1402 C1408 1.465 . S
C1403 C1398 1.399 . S
C1403 C1402 1.394 . S
C1403 C1404 1.516 . S
C1404 C1403 1.516 . S
C1404 C1405 1.502 . S
C1404 C1406 1.561 . S
C1404 C1407 1.526 . S
C1405 H1389 0.959 . S
C1405 H1390 0.959 . S
C1405 H1391 0.961 . S
C1405 C1404 1.502 . S
C1406 H1392 0.960 . S
C1406 H1393 0.961 . S
C1406 H1394 0.959 . S
C1406 C1404 1.561 . S
C1407 C1404 1.526 . S
C1407 C1408 1.396 . S
C1407 C1412 1.390 . S
C1408 C1402 1.465 . S
C1408 C1407 1.396 . S
C1408 C1409 1.399 . S
C1409 H1395 0.929 . S
C1409 C1408 1.399 . S
C1409 C1410 1.385 . S
C1410 H1396 0.931 . S
C1410 C1409 1.385 . S
C1410 C1411 1.389 . S
C1411 C1410 1.389 . S
C1411 C1412 1.387 . S
C1412 H1397 0.930 . S
C1412 C1407 1.390 . S
C1412 C1411 1.387 . S
H1413 C1425 0.930 . S
H1414 C1427 0.930 . S
H1415 C1428 0.930 . S
H1416 C1432 0.959 . S
H1417 C1432 0.959 . S
H1418 C1432 0.961 . S
H1419 C1433 0.960 . S
H1420 C1433 0.961 . S
H1421 C1433 0.959 . S
H1422 C1436 0.929 . S
H1423 C1437 0.931 . S
H1424 C1439 0.930 . S
C1425 H1413 0.930 . S
C1425 C1426 1.399 . S
C1425 C1430 1.399 . S
C1426 C1425 1.399 . S
C1426 C1427 1.376 . S
C1427 H1414 0.930 . S
C1427 C1426 1.376 . S
C1427 C1428 1.388 . S
C1428 H1415 0.930 . S
C1428 C1427 1.388 . S
C1428 C1429 1.390 . S
C1429 C1428 1.390 . S
C1429 C1430 1.394 . S
C1429 C1435 1.465 . S
C1430 C1425 1.399 . S
C1430 C1429 1.394 . S
C1430 C1431 1.516 . S
C1431 C1430 1.516 . S
C1431 C1432 1.502 . S
C1431 C1433 1.561 . S
C1431 C1434 1.526 . S
C1432 H1416 0.959 . S
C1432 H1417 0.959 . S
C1432 H1418 0.961 . S
C1432 C1431 1.502 . S
C1433 H1419 0.960 . S
C1433 H1420 0.961 . S
C1433 H1421 0.959 . S
C1433 C1431 1.561 . S
C1434 C1431 1.526 . S
C1434 C1435 1.396 . S
C1434 C1439 1.390 . S
C1435 C1429 1.465 . S
C1435 C1434 1.396 . S
C1435 C1436 1.399 . S
C1436 H1422 0.929 . S
C1436 C1435 1.399 . S
C1436 C1437 1.385 . S
C1437 H1423 0.931 . S
C1437 C1436 1.385 . S
C1437 C1438 1.389 . S
C1438 C1437 1.389 . S
C1438 C1439 1.387 . S
C1439 H1424 0.930 . S
C1439 C1434 1.390 . S
C1439 C1438 1.387 . S
H1440 C1452 0.930 . S
H1441 C1454 0.930 . S
H1442 C1455 0.930 . S
H1443 C1459 0.959 . S
H1444 C1459 0.959 . S
H1445 C1459 0.961 . S
H1446 C1460 0.960 . S
H1447 C1460 0.961 . S
H1448 C1460 0.959 . S
H1449 C1463 0.929 . S
H1450 C1464 0.931 . S
H1451 C1466 0.930 . S
C1452 H1440 0.930 . S
C1452 C1453 1.399 . S
C1452 C1457 1.399 . S
C1453 C1452 1.399 . S
C1453 C1454 1.376 . S
C1454 H1441 0.930 . S
C1454 C1453 1.376 . S
C1454 C1455 1.388 . S
C1455 H1442 0.930 . S
C1455 C1454 1.388 . S
C1455 C1456 1.390 . S
C1456 C1455 1.390 . S
C1456 C1457 1.394 . S
C1456 C1462 1.465 . S
C1457 C1452 1.399 . S
C1457 C1456 1.394 . S
C1457 C1458 1.516 . S
C1458 C1457 1.516 . S
C1458 C1459 1.502 . S
C1458 C1460 1.561 . S
C1458 C1461 1.526 . S
C1459 H1443 0.959 . S
C1459 H1444 0.959 . S
C1459 H1445 0.961 . S
C1459 C1458 1.502 . S
C1460 H1446 0.960 . S
C1460 H1447 0.961 . S
C1460 H1448 0.959 . S
C1460 C1458 1.561 . S
C1461 C1458 1.526 . S
C1461 C1462 1.396 . S
C1461 C1466 1.390 . S
C1462 C1456 1.465 . S
C1462 C1461 1.396 . S
C1462 C1463 1.399 . S
C1463 H1449 0.929 . S
C1463 C1462 1.399 . S
C1463 C1464 1.385 . S
C1464 H1450 0.931 . S
C1464 C1463 1.385 . S
C1464 C1465 1.389 . S
C1465 C1464 1.389 . S
C1465 C1466 1.387 . S
C1466 H1451 0.930 . S
C1466 C1461 1.390 . S
C1466 C1465 1.387 . S
H1467 C1479 0.930 . S
H1468 C1481 0.930 . S
H1469 C1482 0.930 . S
H1470 C1486 0.959 . S
H1471 C1486 0.959 . S
H1472 C1486 0.961 . S
H1473 C1487 0.960 . S
H1474 C1487 0.961 . S
H1475 C1487 0.959 . S
H1476 C1490 0.929 . S
H1477 C1491 0.931 . S
H1478 C1493 0.930 . S
C1479 H1467 0.930 . S
C1479 C1480 1.399 . S
C1479 C1484 1.399 . S
C1480 C1479 1.399 . S
C1480 C1481 1.376 . S
C1481 H1468 0.930 . S
C1481 C1480 1.376 . S
C1481 C1482 1.388 . S
C1482 H1469 0.930 . S
C1482 C1481 1.388 . S
C1482 C1483 1.390 . S
C1483 C1482 1.390 . S
C1483 C1484 1.394 . S
C1483 C1489 1.465 . S
C1484 C1479 1.399 . S
C1484 C1483 1.394 . S
C1484 C1485 1.516 . S
C1485 C1484 1.516 . S
C1485 C1486 1.502 . S
C1485 C1487 1.561 . S
C1485 C1488 1.526 . S
C1486 H1470 0.959 . S
C1486 H1471 0.959 . S
C1486 H1472 0.961 . S
C1486 C1485 1.502 . S
C1487 H1473 0.960 . S
C1487 H1474 0.961 . S
C1487 H1475 0.959 . S
C1487 C1485 1.561 . S
C1488 C1485 1.526 . S
C1488 C1489 1.396 . S
C1488 C1493 1.390 . S
C1489 C1483 1.465 . S
C1489 C1488 1.396 . S
C1489 C1490 1.399 . S
C1490 H1476 0.929 . S
C1490 C1489 1.399 . S
C1490 C1491 1.385 . S
C1491 H1477 0.931 . S
C1491 C1490 1.385 . S
C1491 C1492 1.389 . S
C1492 C1491 1.389 . S
C1492 C1493 1.387 . S
C1493 H1478 0.930 . S
C1493 C1488 1.390 . S
C1493 C1492 1.387 . S
H1494 C1506 0.930 . S
H1495 C1508 0.930 . S
H1496 C1509 0.930 . S
H1497 C1513 0.959 . S
H1498 C1513 0.959 . S
H1499 C1513 0.961 . S
H1500 C1514 0.960 . S
H1501 C1514 0.961 . S
H1502 C1514 0.959 . S
H1503 C1517 0.929 . S
H1504 C1518 0.931 . S
H1505 C1520 0.930 . S
C1506 H1494 0.930 . S
C1506 C1507 1.399 . S
C1506 C1511 1.399 . S
C1507 C1506 1.399 . S
C1507 C1508 1.376 . S
C1508 H1495 0.930 . S
C1508 C1507 1.376 . S
C1508 C1509 1.388 . S
C1509 H1496 0.930 . S
C1509 C1508 1.388 . S
C1509 C1510 1.390 . S
C1510 C1509 1.390 . S
C1510 C1511 1.394 . S
C1510 C1516 1.465 . S
C1511 C1506 1.399 . S
C1511 C1510 1.394 . S
C1511 C1512 1.516 . S
C1512 C1511 1.516 . S
C1512 C1513 1.502 . S
C1512 C1514 1.561 . S
C1512 C1515 1.526 . S
C1513 H1497 0.959 . S
C1513 H1498 0.959 . S
C1513 H1499 0.961 . S
C1513 C1512 1.502 . S
C1514 H1500 0.960 . S
C1514 H1501 0.961 . S
C1514 H1502 0.959 . S
C1514 C1512 1.561 . S
C1515 C1512 1.526 . S
C1515 C1516 1.396 . S
C1515 C1520 1.390 . S
C1516 C1510 1.465 . S
C1516 C1515 1.396 . S
C1516 C1517 1.399 . S
C1517 H1503 0.929 . S
C1517 C1516 1.399 . S
C1517 C1518 1.385 . S
C1518 H1504 0.931 . S
C1518 C1517 1.385 . S
C1518 C1519 1.389 . S
C1519 C1518 1.389 . S
C1519 C1520 1.387 . S
C1520 H1505 0.930 . S
C1520 C1515 1.390 . S
C1520 C1519 1.387 . S
H1521 C1533 0.930 . S
H1522 C1535 0.930 . S
H1523 C1536 0.930 . S
H1524 C1540 0.959 . S
H1525 C1540 0.959 . S
H1526 C1540 0.961 . S
H1527 C1541 0.960 . S
H1528 C1541 0.961 . S
H1529 C1541 0.959 . S
H1530 C1544 0.929 . S
H1531 C1545 0.931 . S
H1532 C1547 0.930 . S
C1533 H1521 0.930 . S
C1533 C1534 1.399 . S
C1533 C1538 1.399 . S
C1534 C1533 1.399 . S
C1534 C1535 1.376 . S
C1535 H1522 0.930 . S
C1535 C1534 1.376 . S
C1535 C1536 1.388 . S
C1536 H1523 0.930 . S
C1536 C1535 1.388 . S
C1536 C1537 1.390 . S
C1537 C1536 1.390 . S
C1537 C1538 1.394 . S
C1537 C1543 1.465 . S
C1538 C1533 1.399 . S
C1538 C1537 1.394 . S
C1538 C1539 1.516 . S
C1539 C1538 1.516 . S
C1539 C1540 1.502 . S
C1539 C1541 1.561 . S
C1539 C1542 1.526 . S
C1540 H1524 0.959 . S
C1540 H1525 0.959 . S
C1540 H1526 0.961 . S
C1540 C1539 1.502 . S
C1541 H1527 0.960 . S
C1541 H1528 0.961 . S
C1541 H1529 0.959 . S
C1541 C1539 1.561 . S
C1542 C1539 1.526 . S
C1542 C1543 1.396 . S
C1542 C1547 1.390 . S
C1543 C1537 1.465 . S
C1543 C1542 1.396 . S
C1543 C1544 1.399 . S
C1544 H1530 0.929 . S
C1544 C1543 1.399 . S
C1544 C1545 1.385 . S
C1545 H1531 0.931 . S
C1545 C1544 1.385 . S
C1545 C1546 1.389 . S
C1546 C1545 1.389 . S
C1546 C1547 1.387 . S
C1547 H1532 0.930 . S
C1547 C1542 1.390 . S
C1547 C1546 1.387 . S
H1548 C1560 0.930 . S
H1549 C1562 0.930 . S
H1550 C1563 0.930 . S
H1551 C1567 0.959 . S
H1552 C1567 0.959 . S
H1553 C1567 0.961 . S
H1554 C1568 0.960 . S
H1555 C1568 0.961 . S
H1556 C1568 0.959 . S
H1557 C1571 0.929 . S
H1558 C1572 0.931 . S
H1559 C1574 0.930 . S
C1560 H1548 0.930 . S
C1560 C1561 1.399 . S
C1560 C1565 1.399 . S
C1561 C1560 1.399 . S
C1561 C1562 1.376 . S
C1562 H1549 0.930 . S
C1562 C1561 1.376 . S
C1562 C1563 1.388 . S
C1563 H1550 0.930 . S
C1563 C1562 1.388 . S
C1563 C1564 1.390 . S
C1564 C1563 1.390 . S
C1564 C1565 1.394 . S
C1564 C1570 1.465 . S
C1565 C1560 1.399 . S
C1565 C1564 1.394 . S
C1565 C1566 1.516 . S
C1566 C1565 1.516 . S
C1566 C1567 1.502 . S
C1566 C1568 1.561 . S
C1566 C1569 1.526 . S
C1567 H1551 0.959 . S
C1567 H1552 0.959 . S
C1567 H1553 0.961 . S
C1567 C1566 1.502 . S
C1568 H1554 0.960 . S
C1568 H1555 0.961 . S
C1568 H1556 0.959 . S
C1568 C1566 1.561 . S
C1569 C1566 1.526 . S
C1569 C1570 1.396 . S
C1569 C1574 1.390 . S
C1570 C1564 1.465 . S
C1570 C1569 1.396 . S
C1570 C1571 1.399 . S
C1571 H1557 0.929 . S
C1571 C1570 1.399 . S
C1571 C1572 1.385 . S
C1572 H1558 0.931 . S
C1572 C1571 1.385 . S
C1572 C1573 1.389 . S
C1573 C1572 1.389 . S
C1573 C1574 1.387 . S
C1574 H1559 0.930 . S
C1574 C1569 1.390 . S
C1574 C1573 1.387 . S
H1575 C1587 0.930 . S
H1576 C1589 0.930 . S
H1577 C1590 0.930 . S
H1578 C1594 0.959 . S
H1579 C1594 0.959 . S
H1580 C1594 0.961 . S
H1581 C1595 0.960 . S
H1582 C1595 0.961 . S
H1583 C1595 0.959 . S
H1584 C1598 0.929 . S
H1585 C1599 0.931 . S
H1586 C1601 0.930 . S
C1587 H1575 0.930 . S
C1587 C1588 1.399 . S
C1587 C1592 1.399 . S
C1588 C1587 1.399 . S
C1588 C1589 1.376 . S
C1589 H1576 0.930 . S
C1589 C1588 1.376 . S
C1589 C1590 1.388 . S
C1590 H1577 0.930 . S
C1590 C1589 1.388 . S
C1590 C1591 1.390 . S
C1591 C1590 1.390 . S
C1591 C1592 1.394 . S
C1591 C1597 1.465 . S
C1592 C1587 1.399 . S
C1592 C1591 1.394 . S
C1592 C1593 1.516 . S
C1593 C1592 1.516 . S
C1593 C1594 1.502 . S
C1593 C1595 1.561 . S
C1593 C1596 1.526 . S
C1594 H1578 0.959 . S
C1594 H1579 0.959 . S
C1594 H1580 0.961 . S
C1594 C1593 1.502 . S
C1595 H1581 0.960 . S
C1595 H1582 0.961 . S
C1595 H1583 0.959 . S
C1595 C1593 1.561 . S
C1596 C1593 1.526 . S
C1596 C1597 1.396 . S
C1596 C1601 1.390 . S
C1597 C1591 1.465 . S
C1597 C1596 1.396 . S
C1597 C1598 1.399 . S
C1598 H1584 0.929 . S
C1598 C1597 1.399 . S
C1598 C1599 1.385 . S
C1599 H1585 0.931 . S
C1599 C1598 1.385 . S
C1599 C1600 1.389 . S
C1600 C1599 1.389 . S
C1600 C1601 1.387 . S
C1601 H1586 0.930 . S
C1601 C1596 1.390 . S
C1601 C1600 1.387 . S
H1602 C1614 0.930 . S
H1603 C1616 0.930 . S
H1604 C1617 0.930 . S
H1605 C1621 0.959 . S
H1606 C1621 0.959 . S
H1607 C1621 0.961 . S
H1608 C1622 0.960 . S
H1609 C1622 0.961 . S
H1610 C1622 0.959 . S
H1611 C1625 0.929 . S
H1612 C1626 0.931 . S
H1613 C1628 0.930 . S
C1614 H1602 0.930 . S
C1614 C1615 1.399 . S
C1614 C1619 1.399 . S
C1615 C1614 1.399 . S
C1615 C1616 1.376 . S
C1616 H1603 0.930 . S
C1616 C1615 1.376 . S
C1616 C1617 1.388 . S
C1617 H1604 0.930 . S
C1617 C1616 1.388 . S
C1617 C1618 1.390 . S
C1618 C1617 1.390 . S
C1618 C1619 1.394 . S
C1618 C1624 1.465 . S
C1619 C1614 1.399 . S
C1619 C1618 1.394 . S
C1619 C1620 1.516 . S
C1620 C1619 1.516 . S
C1620 C1621 1.502 . S
C1620 C1622 1.561 . S
C1620 C1623 1.526 . S
C1621 H1605 0.959 . S
C1621 H1606 0.959 . S
C1621 H1607 0.961 . S
C1621 C1620 1.502 . S
C1622 H1608 0.960 . S
C1622 H1609 0.961 . S
C1622 H1610 0.959 . S
C1622 C1620 1.561 . S
C1623 C1620 1.526 . S
C1623 C1624 1.396 . S
C1623 C1628 1.390 . S
C1624 C1618 1.465 . S
C1624 C1623 1.396 . S
C1624 C1625 1.399 . S
C1625 H1611 0.929 . S
C1625 C1624 1.399 . S
C1625 C1626 1.385 . S
C1626 H1612 0.931 . S
C1626 C1625 1.385 . S
C1626 C1627 1.389 . S
C1627 C1626 1.389 . S
C1627 C1628 1.387 . S
C1628 H1613 0.930 . S
C1628 C1623 1.390 . S
C1628 C1627 1.387 . S
H1629 C1641 0.930 . S
H1630 C1643 0.930 . S
H1631 C1644 0.930 . S
H1632 C1648 0.959 . S
H1633 C1648 0.959 . S
H1634 C1648 0.961 . S
H1635 C1649 0.960 . S
H1636 C1649 0.961 . S
H1637 C1649 0.959 . S
H1638 C1652 0.929 . S
H1639 C1653 0.931 . S
H1640 C1655 0.930 . S
C1641 H1629 0.930 . S
C1641 C1642 1.399 . S
C1641 C1646 1.399 . S
C1642 C1641 1.399 . S
C1642 C1643 1.376 . S
C1643 H1630 0.930 . S
C1643 C1642 1.376 . S
C1643 C1644 1.388 . S
C1644 H1631 0.930 . S
C1644 C1643 1.388 . S
C1644 C1645 1.390 . S
C1645 C1644 1.390 . S
C1645 C1646 1.394 . S
C1645 C1651 1.465 . S
C1646 C1641 1.399 . S
C1646 C1645 1.394 . S
C1646 C1647 1.516 . S
C1647 C1646 1.516 . S
C1647 C1648 1.502 . S
C1647 C1649 1.561 . S
C1647 C1650 1.526 . S
C1648 H1632 0.959 . S
C1648 H1633 0.959 . S
C1648 H1634 0.961 . S
C1648 C1647 1.502 . S
C1649 H1635 0.960 . S
C1649 H1636 0.961 . S
C1649 H1637 0.959 . S
C1649 C1647 1.561 . S
C1650 C1647 1.526 . S
C1650 C1651 1.396 . S
C1650 C1655 1.390 . S
C1651 C1645 1.465 . S
C1651 C1650 1.396 . S
C1651 C1652 1.399 . S
C1652 H1638 0.929 . S
C1652 C1651 1.399 . S
C1652 C1653 1.385 . S
C1653 H1639 0.931 . S
C1653 C1652 1.385 . S
C1653 C1654 1.389 . S
C1654 C1653 1.389 . S
C1654 C1655 1.387 . S
C1655 H1640 0.930 . S
C1655 C1650 1.390 . S
C1655 C1654 1.387 . S
H1656 C1668 0.930 . S
H1657 C1670 0.930 . S
H1658 C1671 0.930 . S
H1659 C1675 0.959 . S
H1660 C1675 0.959 . S
H1661 C1675 0.961 . S
H1662 C1676 0.960 . S
H1663 C1676 0.961 . S
H1664 C1676 0.959 . S
H1665 C1679 0.929 . S
H1666 C1680 0.931 . S
H1667 C1682 0.930 . S
C1668 H1656 0.930 . S
C1668 C1669 1.399 . S
C1668 C1673 1.399 . S
C1669 C1668 1.399 . S
C1669 C1670 1.376 . S
C1670 H1657 0.930 . S
C1670 C1669 1.376 . S
C1670 C1671 1.388 . S
C1671 H1658 0.930 . S
C1671 C1670 1.388 . S
C1671 C1672 1.390 . S
C1672 C1671 1.390 . S
C1672 C1673 1.394 . S
C1672 C1678 1.465 . S
C1673 C1668 1.399 . S
C1673 C1672 1.394 . S
C1673 C1674 1.516 . S
C1674 C1673 1.516 . S
C1674 C1675 1.502 . S
C1674 C1676 1.561 . S
C1674 C1677 1.526 . S
C1675 H1659 0.959 . S
C1675 H1660 0.959 . S
C1675 H1661 0.961 . S
C1675 C1674 1.502 . S
C1676 H1662 0.960 . S
C1676 H1663 0.961 . S
C1676 H1664 0.959 . S
C1676 C1674 1.561 . S
C1677 C1674 1.526 . S
C1677 C1678 1.396 . S
C1677 C1682 1.390 . S
C1678 C1672 1.465 . S
C1678 C1677 1.396 . S
C1678 C1679 1.399 . S
C1679 H1665 0.929 . S
C1679 C1678 1.399 . S
C1679 C1680 1.385 . S
C1680 H1666 0.931 . S
C1680 C1679 1.385 . S
C1680 C1681 1.389 . S
C1681 C1680 1.389 . S
C1681 C1682 1.387 . S
C1682 H1667 0.930 . S
C1682 C1677 1.390 . S
C1682 C1681 1.387 . S
H1683 C1695 0.930 . S
H1684 C1697 0.930 . S
H1685 C1698 0.930 . S
H1686 C1702 0.959 . S
H1687 C1702 0.959 . S
H1688 C1702 0.961 . S
H1689 C1703 0.960 . S
H1690 C1703 0.961 . S
H1691 C1703 0.959 . S
H1692 C1706 0.929 . S
H1693 C1707 0.931 . S
H1694 C1709 0.930 . S
C1695 H1683 0.930 . S
C1695 C1696 1.399 . S
C1695 C1700 1.399 . S
C1696 C1695 1.399 . S
C1696 C1697 1.376 . S
C1697 H1684 0.930 . S
C1697 C1696 1.376 . S
C1697 C1698 1.388 . S
C1698 H1685 0.930 . S
C1698 C1697 1.388 . S
C1698 C1699 1.390 . S
C1699 C1698 1.390 . S
C1699 C1700 1.394 . S
C1699 C1705 1.465 . S
C1700 C1695 1.399 . S
C1700 C1699 1.394 . S
C1700 C1701 1.516 . S
C1701 C1700 1.516 . S
C1701 C1702 1.502 . S
C1701 C1703 1.561 . S
C1701 C1704 1.526 . S
C1702 H1686 0.959 . S
C1702 H1687 0.959 . S
C1702 H1688 0.961 . S
C1702 C1701 1.502 . S
C1703 H1689 0.960 . S
C1703 H1690 0.961 . S
C1703 H1691 0.959 . S
C1703 C1701 1.561 . S
C1704 C1701 1.526 . S
C1704 C1705 1.396 . S
C1704 C1709 1.390 . S
C1705 C1699 1.465 . S
C1705 C1704 1.396 . S
C1705 C1706 1.399 . S
C1706 H1692 0.929 . S
C1706 C1705 1.399 . S
C1706 C1707 1.385 . S
C1707 H1693 0.931 . S
C1707 C1706 1.385 . S
C1707 C1708 1.389 . S
C1708 C1707 1.389 . S
C1708 C1709 1.387 . S
C1709 H1694 0.930 . S
C1709 C1704 1.390 . S
C1709 C1708 1.387 . S
H1710 C1722 0.930 . S
H1711 C1724 0.930 1_554 S
H1712 C1725 0.930 . S
H1713 C1729 0.959 . S
H1714 C1729 0.959 . S
H1715 C1729 0.961 . S
H1716 C1730 0.960 . S
H1717 C1730 0.961 . S
H1718 C1730 0.959 . S
H1719 C1733 0.929 . S
H1720 C1734 0.931 . S
H1721 C1736 0.930 . S
C1722 H1710 0.930 . S
C1722 C1723 1.399 . S
C1722 C1727 1.399 . S
C1723 C1722 1.399 . S
C1723 C1724 1.376 . S
C1724 H1711 0.930 1_556 S
C1724 C1723 1.376 . S
C1724 C1725 1.388 . S
C1725 H1712 0.930 . S
C1725 C1724 1.388 . S
C1725 C1726 1.390 . S
C1726 C1725 1.390 . S
C1726 C1727 1.394 . S
C1726 C1732 1.465 . S
C1727 C1722 1.399 . S
C1727 C1726 1.394 . S
C1727 C1728 1.516 . S
C1728 C1727 1.516 . S
C1728 C1729 1.502 . S
C1728 C1730 1.561 . S
C1728 C1731 1.526 . S
C1729 H1713 0.959 . S
C1729 H1714 0.959 . S
C1729 H1715 0.961 . S
C1729 C1728 1.502 . S
C1730 H1716 0.960 . S
C1730 H1717 0.961 . S
C1730 H1718 0.959 . S
C1730 C1728 1.561 . S
C1731 C1728 1.526 . S
C1731 C1732 1.396 . S
C1731 C1736 1.390 . S
C1732 C1726 1.465 . S
C1732 C1731 1.396 . S
C1732 C1733 1.399 . S
C1733 H1719 0.929 . S
C1733 C1732 1.399 . S
C1733 C1734 1.385 . S
C1734 H1720 0.931 . S
C1734 C1733 1.385 . S
C1734 C1735 1.389 . S
C1735 C1734 1.389 . S
C1735 C1736 1.387 . S
C1736 H1721 0.930 . S
C1736 C1731 1.390 . S
C1736 C1735 1.387 . S
H1737 C1749 0.930 . S
H1738 C1751 0.930 . S
H1739 C1752 0.930 . S
H1740 C1756 0.959 . S
H1741 C1756 0.959 . S
H1742 C1756 0.961 . S
H1743 C1757 0.960 . S
H1744 C1757 0.961 . S
H1745 C1757 0.959 . S
H1746 C1760 0.929 . S
H1747 C1761 0.931 . S
H1748 C1763 0.930 . S
C1749 H1737 0.930 . S
C1749 C1750 1.399 . S
C1749 C1754 1.399 . S
C1750 C1749 1.399 . S
C1750 C1751 1.376 . S
C1751 H1738 0.930 . S
C1751 C1750 1.376 . S
C1751 C1752 1.388 . S
C1752 H1739 0.930 . S
C1752 C1751 1.388 . S
C1752 C1753 1.390 . S
C1753 C1752 1.390 . S
C1753 C1754 1.394 . S
C1753 C1759 1.465 . S
C1754 C1749 1.399 . S
C1754 C1753 1.394 . S
C1754 C1755 1.516 . S
C1755 C1754 1.516 . S
C1755 C1756 1.502 . S
C1755 C1757 1.561 . S
C1755 C1758 1.526 . S
C1756 H1740 0.959 . S
C1756 H1741 0.959 . S
C1756 H1742 0.961 . S
C1756 C1755 1.502 . S
C1757 H1743 0.960 . S
C1757 H1744 0.961 . S
C1757 H1745 0.959 . S
C1757 C1755 1.561 . S
C1758 C1755 1.526 . S
C1758 C1759 1.396 . S
C1758 C1763 1.390 . S
C1759 C1753 1.465 . S
C1759 C1758 1.396 . S
C1759 C1760 1.399 . S
C1760 H1746 0.929 . S
C1760 C1759 1.399 . S
C1760 C1761 1.385 . S
C1761 H1747 0.931 . S
C1761 C1760 1.385 . S
C1761 C1762 1.389 . S
C1762 C1761 1.389 . S
C1762 C1763 1.387 . S
C1763 H1748 0.930 . S
C1763 C1758 1.390 . S
C1763 C1762 1.387 . S
H1764 C1776 0.930 . S
H1765 C1778 0.930 . S
H1766 C1779 0.930 . S
H1767 C1783 0.959 . S
H1768 C1783 0.959 . S
H1769 C1783 0.961 . S
H1770 C1784 0.960 . S
H1771 C1784 0.961 . S
H1772 C1784 0.959 . S
H1773 C1787 0.929 . S
H1774 C1788 0.931 . S
H1775 C1790 0.930 . S
C1776 H1764 0.930 . S
C1776 C1777 1.399 . S
C1776 C1781 1.399 . S
C1777 C1776 1.399 . S
C1777 C1778 1.376 . S
C1778 H1765 0.930 . S
C1778 C1777 1.376 . S
C1778 C1779 1.388 . S
C1779 H1766 0.930 . S
C1779 C1778 1.388 . S
C1779 C1780 1.390 . S
C1780 C1779 1.390 . S
C1780 C1781 1.394 . S
C1780 C1786 1.465 . S
C1781 C1776 1.399 . S
C1781 C1780 1.394 . S
C1781 C1782 1.516 . S
C1782 C1781 1.516 . S
C1782 C1783 1.502 . S
C1782 C1784 1.561 . S
C1782 C1785 1.526 . S
C1783 H1767 0.959 . S
C1783 H1768 0.959 . S
C1783 H1769 0.961 . S
C1783 C1782 1.502 . S
C1784 H1770 0.960 . S
C1784 H1771 0.961 . S
C1784 H1772 0.959 . S
C1784 C1782 1.561 . S
C1785 C1782 1.526 . S
C1785 C1786 1.396 . S
C1785 C1790 1.390 . S
C1786 C1780 1.465 . S
C1786 C1785 1.396 . S
C1786 C1787 1.399 . S
C1787 H1773 0.929 . S
C1787 C1786 1.399 . S
C1787 C1788 1.385 . S
C1788 H1774 0.931 . S
C1788 C1787 1.385 . S
C1788 C1789 1.389 . S
C1789 C1788 1.389 . S
C1789 C1790 1.387 . S
C1790 H1775 0.930 . S
C1790 C1785 1.390 . S
C1790 C1789 1.387 . S
H1791 C1803 0.930 . S
H1792 C1805 0.930 . S
H1793 C1806 0.930 . S
H1794 C1810 0.959 . S
H1795 C1810 0.959 . S
H1796 C1810 0.961 . S
H1797 C1811 0.960 1_554 S
H1798 C1811 0.961 . S
H1799 C1811 0.959 . S
H1800 C1814 0.929 . S
H1801 C1815 0.931 . S
H1802 C1817 0.930 . S
C1803 H1791 0.930 . S
C1803 C1804 1.399 . S
C1803 C1808 1.399 . S
C1804 C1803 1.399 . S
C1804 C1805 1.376 . S
C1805 H1792 0.930 . S
C1805 C1804 1.376 . S
C1805 C1806 1.388 . S
C1806 H1793 0.930 . S
C1806 C1805 1.388 . S
C1806 C1807 1.390 . S
C1807 C1806 1.390 . S
C1807 C1808 1.394 . S
C1807 C1813 1.465 . S
C1808 C1803 1.399 . S
C1808 C1807 1.394 . S
C1808 C1809 1.516 . S
C1809 C1808 1.516 . S
C1809 C1810 1.502 . S
C1809 C1811 1.561 . S
C1809 C1812 1.526 . S
C1810 H1794 0.959 . S
C1810 H1795 0.959 . S
C1810 H1796 0.961 . S
C1810 C1809 1.502 . S
C1811 H1797 0.960 1_556 S
C1811 H1798 0.961 . S
C1811 H1799 0.959 . S
C1811 C1809 1.561 . S
C1812 C1809 1.526 . S
C1812 C1813 1.396 . S
C1812 C1817 1.390 . S
C1813 C1807 1.465 . S
C1813 C1812 1.396 . S
C1813 C1814 1.399 . S
C1814 H1800 0.929 . S
C1814 C1813 1.399 . S
C1814 C1815 1.385 . S
C1815 H1801 0.931 . S
C1815 C1814 1.385 . S
C1815 C1816 1.389 . S
C1816 C1815 1.389 . S
C1816 C1817 1.387 . S
C1817 H1802 0.930 . S
C1817 C1812 1.390 . S
C1817 C1816 1.387 . S
H1818 C1830 0.930 . S
H1819 C1832 0.930 . S
H1820 C1833 0.930 . S
H1821 C1837 0.959 . S
H1822 C1837 0.959 . S
H1823 C1837 0.961 . S
H1824 C1838 0.960 1_554 S
H1825 C1838 0.961 . S
H1826 C1838 0.959 . S
H1827 C1841 0.929 . S
H1828 C1842 0.931 . S
H1829 C1844 0.930 . S
C1830 H1818 0.930 . S
C1830 C1831 1.399 . S
C1830 C1835 1.399 . S
C1831 C1830 1.399 . S
C1831 C1832 1.376 . S
C1832 H1819 0.930 . S
C1832 C1831 1.376 . S
C1832 C1833 1.388 . S
C1833 H1820 0.930 . S
C1833 C1832 1.388 . S
C1833 C1834 1.390 . S
C1834 C1833 1.390 . S
C1834 C1835 1.394 . S
C1834 C1840 1.465 . S
C1835 C1830 1.399 . S
C1835 C1834 1.394 . S
C1835 C1836 1.516 . S
C1836 C1835 1.516 . S
C1836 C1837 1.502 . S
C1836 C1838 1.561 . S
C1836 C1839 1.526 . S
C1837 H1821 0.959 . S
C1837 H1822 0.959 . S
C1837 H1823 0.961 . S
C1837 C1836 1.502 . S
C1838 H1824 0.960 1_556 S
C1838 H1825 0.961 . S
C1838 H1826 0.959 . S
C1838 C1836 1.561 . S
C1839 C1836 1.526 . S
C1839 C1840 1.396 . S
C1839 C1844 1.390 . S
C1840 C1834 1.465 . S
C1840 C1839 1.396 . S
C1840 C1841 1.399 . S
C1841 H1827 0.929 . S
C1841 C1840 1.399 . S
C1841 C1842 1.385 . S
C1842 H1828 0.931 . S
C1842 C1841 1.385 . S
C1842 C1843 1.389 . S
C1843 C1842 1.389 . S
C1843 C1844 1.387 . S
C1844 H1829 0.930 . S
C1844 C1839 1.390 . S
C1844 C1843 1.387 . S
H1845 C1857 0.930 . S
H1846 C1859 0.930 . S
H1847 C1860 0.930 . S
H1848 C1864 0.959 . S
H1849 C1864 0.959 . S
H1850 C1864 0.961 . S
H1851 C1865 0.960 . S
H1852 C1865 0.961 . S
H1853 C1865 0.959 . S
H1854 C1868 0.929 . S
H1855 C1869 0.931 . S
H1856 C1871 0.930 . S
C1857 H1845 0.930 . S
C1857 C1858 1.399 . S
C1857 C1862 1.399 . S
C1858 C1857 1.399 . S
C1858 C1859 1.376 . S
C1859 H1846 0.930 . S
C1859 C1858 1.376 . S
C1859 C1860 1.388 . S
C1860 H1847 0.930 . S
C1860 C1859 1.388 . S
C1860 C1861 1.390 . S
C1861 C1860 1.390 . S
C1861 C1862 1.394 . S
C1861 C1867 1.465 . S
C1862 C1857 1.399 . S
C1862 C1861 1.394 . S
C1862 C1863 1.516 . S
C1863 C1862 1.516 . S
C1863 C1864 1.502 . S
C1863 C1865 1.561 . S
C1863 C1866 1.526 . S
C1864 H1848 0.959 . S
C1864 H1849 0.959 . S
C1864 H1850 0.961 . S
C1864 C1863 1.502 . S
C1865 H1851 0.960 . S
C1865 H1852 0.961 . S
C1865 H1853 0.959 . S
C1865 C1863 1.561 . S
C1866 C1863 1.526 . S
C1866 C1867 1.396 . S
C1866 C1871 1.390 . S
C1867 C1861 1.465 . S
C1867 C1866 1.396 . S
C1867 C1868 1.399 . S
C1868 H1854 0.929 . S
C1868 C1867 1.399 . S
C1868 C1869 1.385 . S
C1869 H1855 0.931 . S
C1869 C1868 1.385 . S
C1869 C1870 1.389 . S
C1870 C1869 1.389 . S
C1870 C1871 1.387 . S
C1871 H1856 0.930 . S
C1871 C1866 1.390 . S
C1871 C1870 1.387 . S
H1872 C1884 0.930 . S
H1873 C1886 0.930 . S
H1874 C1887 0.930 . S
H1875 C1891 0.959 . S
H1876 C1891 0.959 . S
H1877 C1891 0.961 . S
H1878 C1892 0.960 . S
H1879 C1892 0.961 . S
H1880 C1892 0.959 . S
H1881 C1895 0.929 . S
H1882 C1896 0.931 . S
H1883 C1898 0.930 . S
C1884 H1872 0.930 . S
C1884 C1885 1.399 . S
C1884 C1889 1.399 . S
C1885 C1884 1.399 . S
C1885 C1886 1.376 . S
C1886 H1873 0.930 . S
C1886 C1885 1.376 . S
C1886 C1887 1.388 . S
C1887 H1874 0.930 . S
C1887 C1886 1.388 . S
C1887 C1888 1.390 . S
C1888 C1887 1.390 . S
C1888 C1889 1.394 . S
C1888 C1894 1.465 . S
C1889 C1884 1.399 . S
C1889 C1888 1.394 . S
C1889 C1890 1.516 . S
C1890 C1889 1.516 . S
C1890 C1891 1.502 . S
C1890 C1892 1.561 . S
C1890 C1893 1.526 . S
C1891 H1875 0.959 . S
C1891 H1876 0.959 . S
C1891 H1877 0.961 . S
C1891 C1890 1.502 . S
C1892 H1878 0.960 . S
C1892 H1879 0.961 . S
C1892 H1880 0.959 . S
C1892 C1890 1.561 . S
C1893 C1890 1.526 . S
C1893 C1894 1.396 . S
C1893 C1898 1.390 . S
C1894 C1888 1.465 . S
C1894 C1893 1.396 . S
C1894 C1895 1.399 . S
C1895 H1881 0.929 . S
C1895 C1894 1.399 . S
C1895 C1896 1.385 . S
C1896 H1882 0.931 . S
C1896 C1895 1.385 . S
C1896 C1897 1.389 . S
C1897 C1896 1.389 . S
C1897 C1898 1.387 . S
C1898 H1883 0.930 . S
C1898 C1893 1.390 . S
C1898 C1897 1.387 . S
H1899 C1911 0.930 . S
H1900 C1913 0.930 . S
H1901 C1914 0.930 . S
H1902 C1918 0.959 . S
H1903 C1918 0.959 . S
H1904 C1918 0.961 . S
H1905 C1919 0.960 . S
H1906 C1919 0.961 . S
H1907 C1919 0.959 . S
H1908 C1922 0.929 . S
H1909 C1923 0.931 . S
H1910 C1925 0.930 . S
C1911 H1899 0.930 . S
C1911 C1912 1.399 . S
C1911 C1916 1.399 . S
C1912 C1911 1.399 . S
C1912 C1913 1.376 . S
C1913 H1900 0.930 . S
C1913 C1912 1.376 . S
C1913 C1914 1.388 . S
C1914 H1901 0.930 . S
C1914 C1913 1.388 . S
C1914 C1915 1.390 . S
C1915 C1914 1.390 . S
C1915 C1916 1.394 . S
C1915 C1921 1.465 . S
C1916 C1911 1.399 . S
C1916 C1915 1.394 . S
C1916 C1917 1.516 . S
C1917 C1916 1.516 . S
C1917 C1918 1.502 . S
C1917 C1919 1.561 . S
C1917 C1920 1.526 . S
C1918 H1902 0.959 . S
C1918 H1903 0.959 . S
C1918 H1904 0.961 . S
C1918 C1917 1.502 . S
C1919 H1905 0.960 . S
C1919 H1906 0.961 . S
C1919 H1907 0.959 . S
C1919 C1917 1.561 . S
C1920 C1917 1.526 . S
C1920 C1921 1.396 . S
C1920 C1925 1.390 . S
C1921 C1915 1.465 . S
C1921 C1920 1.396 . S
C1921 C1922 1.399 . S
C1922 H1908 0.929 . S
C1922 C1921 1.399 . S
C1922 C1923 1.385 . S
C1923 H1909 0.931 . S
C1923 C1922 1.385 . S
C1923 C1924 1.389 . S
C1924 C1923 1.389 . S
C1924 C1925 1.387 . S
C1925 H1910 0.930 . S
C1925 C1920 1.390 . S
C1925 C1924 1.387 . S
H1926 C1938 0.930 . S
H1927 C1940 0.930 . S
H1928 C1941 0.930 . S
H1929 C1945 0.959 . S
H1930 C1945 0.959 . S
H1931 C1945 0.961 . S
H1932 C1946 0.960 . S
H1933 C1946 0.961 . S
H1934 C1946 0.959 . S
H1935 C1949 0.929 . S
H1936 C1950 0.931 . S
H1937 C1952 0.930 . S
C1938 H1926 0.930 . S
C1938 C1939 1.399 . S
C1938 C1943 1.399 . S
C1939 C1938 1.399 . S
C1939 C1940 1.376 . S
C1940 H1927 0.930 . S
C1940 C1939 1.376 . S
C1940 C1941 1.388 . S
C1941 H1928 0.930 . S
C1941 C1940 1.388 . S
C1941 C1942 1.390 . S
C1942 C1941 1.390 . S
C1942 C1943 1.394 . S
C1942 C1948 1.465 . S
C1943 C1938 1.399 . S
C1943 C1942 1.394 . S
C1943 C1944 1.516 . S
C1944 C1943 1.516 . S
C1944 C1945 1.502 . S
C1944 C1946 1.561 . S
C1944 C1947 1.526 . S
C1945 H1929 0.959 . S
C1945 H1930 0.959 . S
C1945 H1931 0.961 . S
C1945 C1944 1.502 . S
C1946 H1932 0.960 . S
C1946 H1933 0.961 . S
C1946 H1934 0.959 . S
C1946 C1944 1.561 . S
C1947 C1944 1.526 . S
C1947 C1948 1.396 . S
C1947 C1952 1.390 . S
C1948 C1942 1.465 . S
C1948 C1947 1.396 . S
C1948 C1949 1.399 . S
C1949 H1935 0.929 . S
C1949 C1948 1.399 . S
C1949 C1950 1.385 . S
C1950 H1936 0.931 . S
C1950 C1949 1.385 . S
C1950 C1951 1.389 . S
C1951 C1950 1.389 . S
C1951 C1952 1.387 . S
C1952 H1937 0.930 . S
C1952 C1947 1.390 . S
C1952 C1951 1.387 . S
H1953 C1965 0.930 . S
H1954 C1967 0.930 . S
H1955 C1968 0.930 . S
H1956 C1972 0.959 . S
H1957 C1972 0.959 . S
H1958 C1972 0.961 . S
H1959 C1973 0.960 . S
H1960 C1973 0.961 . S
H1961 C1973 0.959 . S
H1962 C1976 0.929 . S
H1963 C1977 0.931 . S
H1964 C1979 0.930 . S
C1965 H1953 0.930 . S
C1965 C1966 1.399 . S
C1965 C1970 1.399 . S
C1966 C1965 1.399 . S
C1966 C1967 1.376 . S
C1967 H1954 0.930 . S
C1967 C1966 1.376 . S
C1967 C1968 1.388 . S
C1968 H1955 0.930 . S
C1968 C1967 1.388 . S
C1968 C1969 1.390 . S
C1969 C1968 1.390 . S
C1969 C1970 1.394 . S
C1969 C1975 1.465 . S
C1970 C1965 1.399 . S
C1970 C1969 1.394 . S
C1970 C1971 1.516 . S
C1971 C1970 1.516 . S
C1971 C1972 1.502 . S
C1971 C1973 1.561 . S
C1971 C1974 1.526 . S
C1972 H1956 0.959 . S
C1972 H1957 0.959 . S
C1972 H1958 0.961 . S
C1972 C1971 1.502 . S
C1973 H1959 0.960 . S
C1973 H1960 0.961 . S
C1973 H1961 0.959 . S
C1973 C1971 1.561 . S
C1974 C1971 1.526 . S
C1974 C1975 1.396 . S
C1974 C1979 1.390 . S
C1975 C1969 1.465 . S
C1975 C1974 1.396 . S
C1975 C1976 1.399 . S
C1976 H1962 0.929 . S
C1976 C1975 1.399 . S
C1976 C1977 1.385 . S
C1977 H1963 0.931 . S
C1977 C1976 1.385 . S
C1977 C1978 1.389 . S
C1978 C1977 1.389 . S
C1978 C1979 1.387 . S
C1979 H1964 0.930 . S
C1979 C1974 1.390 . S
C1979 C1978 1.387 . S
H1980 C1992 0.930 . S
H1981 C1994 0.930 . S
H1982 C1995 0.930 . S
H1983 C1999 0.959 . S
H1984 C1999 0.959 . S
H1985 C1999 0.961 . S
H1986 C2000 0.960 . S
H1987 C2000 0.961 . S
H1988 C2000 0.959 . S
H1989 C2003 0.929 . S
H1990 C2004 0.931 . S
H1991 C2006 0.930 . S
C1992 H1980 0.930 . S
C1992 C1993 1.399 . S
C1992 C1997 1.399 . S
C1993 C1992 1.399 . S
C1993 C1994 1.376 . S
C1994 H1981 0.930 . S
C1994 C1993 1.376 . S
C1994 C1995 1.388 . S
C1995 H1982 0.930 . S
C1995 C1994 1.388 . S
C1995 C1996 1.390 . S
C1996 C1995 1.390 . S
C1996 C1997 1.394 . S
C1996 C2002 1.465 . S
C1997 C1992 1.399 . S
C1997 C1996 1.394 . S
C1997 C1998 1.516 . S
C1998 C1997 1.516 . S
C1998 C1999 1.502 . S
C1998 C2000 1.561 . S
C1998 C2001 1.526 . S
C1999 H1983 0.959 . S
C1999 H1984 0.959 . S
C1999 H1985 0.961 . S
C1999 C1998 1.502 . S
C2000 H1986 0.960 . S
C2000 H1987 0.961 . S
C2000 H1988 0.959 . S
C2000 C1998 1.561 . S
C2001 C1998 1.526 . S
C2001 C2002 1.396 . S
C2001 C2006 1.390 . S
C2002 C1996 1.465 . S
C2002 C2001 1.396 . S
C2002 C2003 1.399 . S
C2003 H1989 0.929 . S
C2003 C2002 1.399 . S
C2003 C2004 1.385 . S
C2004 H1990 0.931 . S
C2004 C2003 1.385 . S
C2004 C2005 1.389 . S
C2005 C2004 1.389 . S
C2005 C2006 1.387 . S
C2006 H1991 0.930 . S
C2006 C2001 1.390 . S
C2006 C2005 1.387 . S
H2007 C2019 0.930 1_655 S
H2008 C2021 0.930 . S
H2009 C2022 0.930 . S
H2010 C2026 0.959 . S
H2011 C2026 0.959 . S
H2012 C2026 0.961 . S
H2013 C2027 0.960 . S
H2014 C2027 0.961 . S
H2015 C2027 0.959 . S
H2016 C2030 0.929 . S
H2017 C2031 0.931 . S
H2018 C2033 0.940 . S
C2019 H2007 0.930 1_455 S
C2019 C2020 1.399 . S
C2019 C2024 1.399 . S
C2020 C2019 1.399 . S
C2020 C2021 1.376 . S
C2021 H2008 0.930 . S
C2021 C2020 1.376 . S
C2021 C2022 1.388 . S
C2022 H2009 0.930 . S
C2022 C2021 1.388 . S
C2022 C2023 1.390 . S
C2023 C2022 1.390 . S
C2023 C2024 1.394 . S
C2023 C2029 1.465 . S
C2024 C2019 1.399 . S
C2024 C2023 1.394 . S
C2024 C2025 1.516 1_455 S
C2025 C2024 1.516 1_655 S
C2025 C2026 1.502 . S
C2025 C2027 1.561 1_655 S
C2025 C2028 1.526 1_655 S
C2026 H2010 0.959 . S
C2026 H2011 0.959 . S
C2026 H2012 0.961 . S
C2026 C2025 1.502 . S
C2027 H2013 0.960 . S
C2027 H2014 0.961 . S
C2027 H2015 0.959 . S
C2027 C2025 1.561 1_455 S
C2028 C2025 1.526 1_455 S
C2028 C2029 1.396 . S
C2028 C2033 1.381 1_455 S
C2029 C2023 1.465 . S
C2029 C2028 1.396 . S
C2029 C2030 1.399 . S
C2030 H2016 0.929 . S
C2030 C2029 1.399 . S
C2030 C2031 1.385 . S
C2031 H2017 0.931 . S
C2031 C2030 1.385 . S
C2031 C2032 1.389 . S
C2032 C2031 1.389 . S
C2032 C2033 1.385 1_455 S
C2033 H2018 0.940 . S
C2033 C2028 1.381 1_655 S
C2033 C2032 1.385 1_655 S
H2034 C2046 0.930 . S
H2035 C2048 0.930 . S
H2036 C2049 0.930 . S
H2037 C2053 0.959 . S
H2038 C2053 0.959 . S
H2039 C2053 0.961 . S
H2040 C2054 0.960 . S
H2041 C2054 0.961 . S
H2042 C2054 0.959 . S
H2043 C2057 0.929 . S
H2044 C2058 0.931 . S
H2045 C2060 0.930 . S
C2046 H2034 0.930 . S
C2046 C2047 1.399 . S
C2046 C2051 1.399 . S
C2047 C2046 1.399 . S
C2047 C2048 1.376 . S
C2048 H2035 0.930 . S
C2048 C2047 1.376 . S
C2048 C2049 1.388 . S
C2049 H2036 0.930 . S
C2049 C2048 1.388 . S
C2049 C2050 1.390 . S
C2050 C2049 1.390 . S
C2050 C2051 1.394 . S
C2050 C2056 1.465 . S
C2051 C2046 1.399 . S
C2051 C2050 1.394 . S
C2051 C2052 1.516 . S
C2052 C2051 1.516 . S
C2052 C2053 1.502 . S
C2052 C2054 1.561 . S
C2052 C2055 1.526 . S
C2053 H2037 0.959 . S
C2053 H2038 0.959 . S
C2053 H2039 0.961 . S
C2053 C2052 1.502 . S
C2054 H2040 0.960 . S
C2054 H2041 0.961 . S
C2054 H2042 0.959 . S
C2054 C2052 1.561 . S
C2055 C2052 1.526 . S
C2055 C2056 1.396 . S
C2055 C2060 1.390 . S
C2056 C2050 1.465 . S
C2056 C2055 1.396 . S
C2056 C2057 1.399 . S
C2057 H2043 0.929 . S
C2057 C2056 1.399 . S
C2057 C2058 1.385 . S
C2058 H2044 0.931 . S
C2058 C2057 1.385 . S
C2058 C2059 1.389 . S
C2059 C2058 1.389 . S
C2059 C2060 1.387 . S
C2060 H2045 0.930 . S
C2060 C2055 1.390 . S
C2060 C2059 1.387 . S
H2061 C2073 0.930 . S
H2062 C2075 0.930 . S
H2063 C2076 0.930 . S
H2064 C2080 0.959 . S
H2065 C2080 0.959 . S
H2066 C2080 0.961 . S
H2067 C2081 0.960 . S
H2068 C2081 0.961 . S
H2069 C2081 0.959 . S
H2070 C2084 0.929 . S
H2071 C2085 0.931 . S
H2072 C2087 0.930 . S
C2073 H2061 0.930 . S
C2073 C2074 1.399 1_545 S
C2073 C2078 1.399 . S
C2074 C2073 1.399 1_565 S
C2074 C2075 1.376 . S
C2075 H2062 0.930 . S
C2075 C2074 1.376 . S
C2075 C2076 1.388 . S
C2076 H2063 0.930 . S
C2076 C2075 1.388 . S
C2076 C2077 1.390 . S
C2077 C2076 1.390 . S
C2077 C2078 1.394 1_565 S
C2077 C2083 1.465 . S
C2078 C2073 1.399 . S
C2078 C2077 1.394 1_545 S
C2078 C2079 1.516 . S
C2079 C2078 1.516 . S
C2079 C2080 1.502 . S
C2079 C2081 1.561 . S
C2079 C2082 1.526 . S
C2080 H2064 0.959 . S
C2080 H2065 0.959 . S
C2080 H2066 0.961 . S
C2080 C2079 1.502 . S
C2081 H2067 0.960 . S
C2081 H2068 0.961 . S
C2081 H2069 0.959 . S
C2081 C2079 1.561 . S
C2082 C2079 1.526 . S
C2082 C2083 1.396 1_545 S
C2082 C2087 1.390 . S
C2083 C2077 1.465 . S
C2083 C2082 1.396 1_565 S
C2083 C2084 1.399 . S
C2084 H2070 0.929 . S
C2084 C2083 1.399 . S
C2084 C2085 1.385 . S
C2085 H2071 0.931 . S
C2085 C2084 1.385 . S
C2085 C2086 1.389 . S
C2086 C2085 1.389 . S
C2086 C2087 1.387 1_565 S
C2087 H2072 0.930 . S
C2087 C2082 1.390 . S
C2087 C2086 1.387 1_545 S
H2088 C2100 0.930 . S
H2089 C2102 0.930 . S
H2090 C2103 0.930 . S
H2091 C2107 0.959 . S
H2092 C2107 0.959 . S
H2093 C2107 0.961 . S
H2094 C2108 0.960 . S
H2095 C2108 0.961 . S
H2096 C2108 0.959 . S
H2097 C2111 0.929 . S
H2098 C2112 0.931 . S
H2099 C2114 0.930 . S
C2100 H2088 0.930 . S
C2100 C2101 1.399 1_545 S
C2100 C2105 1.399 . S
C2101 C2100 1.399 1_565 S
C2101 C2102 1.376 . S
C2102 H2089 0.930 . S
C2102 C2101 1.376 . S
C2102 C2103 1.388 . S
C2103 H2090 0.930 . S
C2103 C2102 1.388 . S
C2103 C2104 1.390 . S
C2104 C2103 1.390 . S
C2104 C2105 1.394 1_565 S
C2104 C2110 1.465 . S
C2105 C2100 1.399 . S
C2105 C2104 1.394 1_545 S
C2105 C2106 1.516 . S
C2106 C2105 1.516 . S
C2106 C2107 1.502 . S
C2106 C2108 1.561 . S
C2106 C2109 1.526 . S
C2107 H2091 0.959 . S
C2107 H2092 0.959 . S
C2107 H2093 0.961 . S
C2107 C2106 1.502 . S
C2108 H2094 0.960 . S
C2108 H2095 0.961 . S
C2108 H2096 0.959 . S
C2108 C2106 1.561 . S
C2109 C2106 1.526 . S
C2109 C2110 1.396 1_545 S
C2109 C2114 1.390 . S
C2110 C2104 1.465 . S
C2110 C2109 1.396 1_565 S
C2110 C2111 1.399 . S
C2111 H2097 0.929 . S
C2111 C2110 1.399 . S
C2111 C2112 1.385 . S
C2112 H2098 0.931 . S
C2112 C2111 1.385 . S
C2112 C2113 1.389 . S
C2113 C2112 1.389 . S
C2113 C2114 1.387 1_565 S
C2114 H2099 0.930 . S
C2114 C2109 1.390 . S
C2114 C2113 1.387 1_545 S
H2115 C2127 0.930 . S
H2116 C2129 0.930 . S
H2117 C2130 0.930 . S
H2118 C2134 0.959 . S
H2119 C2134 0.959 . S
H2120 C2134 0.961 . S
H2121 C2135 0.960 . S
H2122 C2135 0.961 . S
H2123 C2135 0.959 . S
H2124 C2138 0.929 . S
H2125 C2139 0.931 . S
H2126 C2141 0.930 . S
C2127 H2115 0.930 . S
C2127 C2128 1.399 . S
C2127 C2132 1.399 . S
C2128 C2127 1.399 . S
C2128 C2129 1.376 1_455 S
C2129 H2116 0.930 . S
C2129 C2128 1.376 1_655 S
C2129 C2130 1.388 . S
C2130 H2117 0.930 . S
C2130 C2129 1.388 . S
C2130 C2131 1.390 1_655 S
C2131 C2130 1.390 1_455 S
C2131 C2132 1.394 . S
C2131 C2137 1.469 1_455 S
C2132 C2127 1.399 . S
C2132 C2131 1.394 . S
C2132 C2133 1.516 . S
C2133 C2132 1.516 . S
C2133 C2134 1.502 . S
C2133 C2135 1.561 . S
C2133 C2136 1.526 . S
C2134 H2118 0.959 . S
C2134 H2119 0.959 . S
C2134 H2120 0.961 . S
C2134 C2133 1.502 . S
C2135 H2121 0.960 . S
C2135 H2122 0.961 . S
C2135 H2123 0.959 . S
C2135 C2133 1.561 . S
C2136 C2133 1.526 . S
C2136 C2137 1.391 1_455 S
C2136 C2141 1.390 . S
C2137 C2131 1.469 1_655 S
C2137 C2136 1.391 1_655 S
C2137 C2138 1.399 . S
C2138 H2124 0.929 . S
C2138 C2137 1.399 . S
C2138 C2139 1.385 . S
C2139 H2125 0.931 . S
C2139 C2138 1.385 . S
C2139 C2140 1.382 1_655 S
C2140 C2139 1.382 1_455 S
C2140 C2141 1.388 . S
C2141 H2126 0.930 . S
C2141 C2136 1.390 . S
C2141 C2140 1.388 . S
H2142 C2154 0.930 . S
H2143 C2156 0.930 . S
H2144 C2157 0.930 . S
H2145 C2161 0.959 . S
H2146 C2161 0.959 . S
H2147 C2161 0.961 . S
H2148 C2162 0.960 . S
H2149 C2162 0.961 . S
H2150 C2162 0.959 . S
H2151 C2165 0.929 . S
H2152 C2166 0.931 . S
H2153 C2168 0.930 . S
C2154 H2142 0.930 . S
C2154 C2155 1.399 . S
C2154 C2159 1.399 . S
C2155 C2154 1.399 . S
C2155 C2156 1.376 . S
C2156 H2143 0.930 . S
C2156 C2155 1.376 . S
C2156 C2157 1.388 . S
C2157 H2144 0.930 . S
C2157 C2156 1.388 . S
C2157 C2158 1.390 . S
C2158 C2157 1.390 . S
C2158 C2159 1.394 . S
C2158 C2164 1.465 . S
C2159 C2154 1.399 . S
C2159 C2158 1.394 . S
C2159 C2160 1.516 . S
C2160 C2159 1.516 . S
C2160 C2161 1.502 . S
C2160 C2162 1.561 . S
C2160 C2163 1.526 . S
C2161 H2145 0.959 . S
C2161 H2146 0.959 . S
C2161 H2147 0.961 . S
C2161 C2160 1.502 . S
C2162 H2148 0.960 . S
C2162 H2149 0.961 . S
C2162 H2150 0.959 . S
C2162 C2160 1.561 . S
C2163 C2160 1.526 . S
C2163 C2164 1.396 . S
C2163 C2168 1.390 . S
C2164 C2158 1.465 . S
C2164 C2163 1.396 . S
C2164 C2165 1.399 . S
C2165 H2151 0.929 . S
C2165 C2164 1.399 . S
C2165 C2166 1.385 . S
C2166 H2152 0.931 . S
C2166 C2165 1.385 . S
C2166 C2167 1.389 . S
C2167 C2166 1.389 . S
C2167 C2168 1.387 . S
C2168 H2153 0.930 . S
C2168 C2163 1.390 . S
C2168 C2167 1.387 . S
H2169 C2181 0.930 . S
H2170 C2183 0.930 . S
H2171 C2184 0.930 . S
H2172 C2188 0.959 . S
H2173 C2188 0.959 . S
H2174 C2188 0.961 . S
H2175 C2189 0.960 . S
H2176 C2189 0.961 . S
H2177 C2189 0.959 . S
H2178 C2192 0.929 . S
H2179 C2193 0.931 . S
H2180 C2195 0.930 . S
C2181 H2169 0.930 . S
C2181 C2182 1.399 . S
C2181 C2186 1.399 . S
C2182 C2181 1.399 . S
C2182 C2183 1.376 . S
C2183 H2170 0.930 . S
C2183 C2182 1.376 . S
C2183 C2184 1.388 . S
C2184 H2171 0.930 . S
C2184 C2183 1.388 . S
C2184 C2185 1.390 . S
C2185 C2184 1.390 . S
C2185 C2186 1.394 . S
C2185 C2191 1.465 . S
C2186 C2181 1.399 . S
C2186 C2185 1.394 . S
C2186 C2187 1.516 . S
C2187 C2186 1.516 . S
C2187 C2188 1.502 . S
C2187 C2189 1.561 . S
C2187 C2190 1.526 . S
C2188 H2172 0.959 . S
C2188 H2173 0.959 . S
C2188 H2174 0.961 . S
C2188 C2187 1.502 . S
C2189 H2175 0.960 . S
C2189 H2176 0.961 . S
C2189 H2177 0.959 . S
C2189 C2187 1.561 . S
C2190 C2187 1.526 . S
C2190 C2191 1.396 . S
C2190 C2195 1.390 . S
C2191 C2185 1.465 . S
C2191 C2190 1.396 . S
C2191 C2192 1.399 . S
C2192 H2178 0.929 . S
C2192 C2191 1.399 . S
C2192 C2193 1.385 . S
C2193 H2179 0.931 . S
C2193 C2192 1.385 . S
C2193 C2194 1.389 . S
C2194 C2193 1.389 . S
C2194 C2195 1.387 . S
C2195 H2180 0.930 . S
C2195 C2190 1.390 . S
C2195 C2194 1.387 . S
H2196 C2208 0.930 . S
H2197 C2210 0.930 . S
H2198 C2211 0.930 . S
H2199 C2215 0.959 . S
H2200 C2215 0.959 . S
H2201 C2215 0.961 . S
H2202 C2216 0.960 . S
H2203 C2216 0.961 . S
H2204 C2216 0.959 . S
H2205 C2219 0.929 . S
H2206 C2220 0.931 . S
H2207 C2222 0.930 . S
C2208 H2196 0.930 . S
C2208 C2209 1.399 . S
C2208 C2213 1.399 . S
C2209 C2208 1.399 . S
C2209 C2210 1.376 . S
C2210 H2197 0.930 . S
C2210 C2209 1.376 . S
C2210 C2211 1.388 . S
C2211 H2198 0.930 . S
C2211 C2210 1.388 . S
C2211 C2212 1.390 . S
C2212 C2211 1.390 . S
C2212 C2213 1.394 . S
C2212 C2218 1.465 . S
C2213 C2208 1.399 . S
C2213 C2212 1.394 . S
C2213 C2214 1.516 . S
C2214 C2213 1.516 . S
C2214 C2215 1.502 . S
C2214 C2216 1.561 . S
C2214 C2217 1.526 . S
C2215 H2199 0.959 . S
C2215 H2200 0.959 . S
C2215 H2201 0.961 . S
C2215 C2214 1.502 . S
C2216 H2202 0.960 . S
C2216 H2203 0.961 . S
C2216 H2204 0.959 . S
C2216 C2214 1.561 . S
C2217 C2214 1.526 . S
C2217 C2218 1.396 . S
C2217 C2222 1.390 . S
C2218 C2212 1.465 . S
C2218 C2217 1.396 . S
C2218 C2219 1.399 . S
C2219 H2205 0.929 . S
C2219 C2218 1.399 . S
C2219 C2220 1.385 . S
C2220 H2206 0.931 . S
C2220 C2219 1.385 . S
C2220 C2221 1.389 . S
C2221 C2220 1.389 . S
C2221 C2222 1.387 . S
C2222 H2207 0.930 . S
C2222 C2217 1.390 . S
C2222 C2221 1.387 . S
H2223 C2235 0.930 . S
H2224 C2237 0.930 . S
H2225 C2238 0.930 . S
H2226 C2242 0.959 . S
H2227 C2242 0.959 . S
H2228 C2242 0.961 . S
H2229 C2243 0.960 . S
H2230 C2243 0.961 . S
H2231 C2243 0.959 . S
H2232 C2246 0.929 . S
H2233 C2247 0.931 . S
H2234 C2249 0.930 . S
C2235 H2223 0.930 . S
C2235 C2236 1.399 . S
C2235 C2240 1.399 . S
C2236 C2235 1.399 . S
C2236 C2237 1.376 . S
C2237 H2224 0.930 . S
C2237 C2236 1.376 . S
C2237 C2238 1.388 . S
C2238 H2225 0.930 . S
C2238 C2237 1.388 . S
C2238 C2239 1.390 . S
C2239 C2238 1.390 . S
C2239 C2240 1.394 . S
C2239 C2245 1.465 . S
C2240 C2235 1.399 . S
C2240 C2239 1.394 . S
C2240 C2241 1.516 . S
C2241 C2240 1.516 . S
C2241 C2242 1.502 . S
C2241 C2243 1.561 . S
C2241 C2244 1.526 . S
C2242 H2226 0.959 . S
C2242 H2227 0.959 . S
C2242 H2228 0.961 . S
C2242 C2241 1.502 . S
C2243 H2229 0.960 . S
C2243 H2230 0.961 . S
C2243 H2231 0.959 . S
C2243 C2241 1.561 . S
C2244 C2241 1.526 . S
C2244 C2245 1.396 . S
C2244 C2249 1.390 . S
C2245 C2239 1.465 . S
C2245 C2244 1.396 . S
C2245 C2246 1.399 . S
C2246 H2232 0.929 . S
C2246 C2245 1.399 . S
C2246 C2247 1.385 . S
C2247 H2233 0.931 . S
C2247 C2246 1.385 . S
C2247 C2248 1.389 . S
C2248 C2247 1.389 . S
C2248 C2249 1.387 . S
C2249 H2234 0.930 . S
C2249 C2244 1.390 . S
C2249 C2248 1.387 . S
H2250 C2262 0.930 . S
H2251 C2264 0.930 . S
H2252 C2265 0.930 . S
H2253 C2269 0.959 . S
H2254 C2269 0.959 . S
H2255 C2269 0.961 . S
H2256 C2270 0.960 . S
H2257 C2270 0.961 . S
H2258 C2270 0.959 . S
H2259 C2273 0.929 . S
H2260 C2274 0.931 . S
H2261 C2276 0.930 . S
C2262 H2250 0.930 . S
C2262 C2263 1.399 1_565 S
C2262 C2267 1.399 . S
C2263 C2262 1.399 1_545 S
C2263 C2264 1.376 . S
C2264 H2251 0.930 . S
C2264 C2263 1.376 . S
C2264 C2265 1.388 . S
C2265 H2252 0.930 . S
C2265 C2264 1.388 . S
C2265 C2266 1.390 . S
C2266 C2265 1.390 . S
C2266 C2267 1.394 1_545 S
C2266 C2272 1.465 . S
C2267 C2262 1.399 . S
C2267 C2266 1.394 1_565 S
C2267 C2268 1.516 . S
C2268 C2267 1.516 . S
C2268 C2269 1.502 . S
C2268 C2270 1.561 . S
C2268 C2271 1.526 . S
C2269 H2253 0.959 . S
C2269 H2254 0.959 . S
C2269 H2255 0.961 . S
C2269 C2268 1.502 . S
C2270 H2256 0.960 . S
C2270 H2257 0.961 . S
C2270 H2258 0.959 . S
C2270 C2268 1.561 . S
C2271 C2268 1.526 . S
C2271 C2272 1.396 1_565 S
C2271 C2276 1.390 . S
C2272 C2266 1.465 . S
C2272 C2271 1.396 1_545 S
C2272 C2273 1.399 . S
C2273 H2259 0.929 . S
C2273 C2272 1.399 . S
C2273 C2274 1.385 . S
C2274 H2260 0.931 . S
C2274 C2273 1.385 . S
C2274 C2275 1.389 . S
C2275 C2274 1.389 . S
C2275 C2276 1.387 1_545 S
C2276 H2261 0.930 . S
C2276 C2271 1.390 . S
C2276 C2275 1.387 1_565 S
H2277 C2289 0.928 . S
H2278 C2291 0.930 . S
H2279 C2292 0.930 . S
H2280 C2296 0.959 1_655 S
H2281 C2296 0.959 . S
H2282 C2296 0.961 . S
H2283 C2297 0.960 . S
H2284 C2297 0.961 . S
H2285 C2297 0.959 . S
H2286 C2300 0.929 . S
H2287 C2301 0.931 . S
H2288 C2303 0.930 . S
C2289 H2277 0.928 . S
C2289 C2290 1.400 1_455 S
C2289 C2294 1.376 1_455 S
C2290 C2289 1.400 1_655 S
C2290 C2291 1.376 . S
C2291 H2278 0.930 . S
C2291 C2290 1.376 . S
C2291 C2292 1.388 . S
C2292 H2279 0.930 . S
C2292 C2291 1.388 . S
C2292 C2293 1.390 . S
C2293 C2292 1.390 . S
C2293 C2294 1.432 . S
C2293 C2299 1.465 . S
C2294 C2289 1.376 1_655 S
C2294 C2293 1.432 . S
C2294 C2295 1.509 1_655 S
C2295 C2294 1.509 1_455 S
C2295 C2296 1.502 . S
C2295 C2297 1.561 . S
C2295 C2298 1.526 . S
C2296 H2280 0.959 1_455 S
C2296 H2281 0.959 . S
C2296 H2282 0.961 . S
C2296 C2295 1.502 . S
C2297 H2283 0.960 . S
C2297 H2284 0.961 . S
C2297 H2285 0.959 . S
C2297 C2295 1.561 . S
C2298 C2295 1.526 . S
C2298 C2299 1.396 1_455 S
C2298 C2303 1.390 . S
C2299 C2293 1.465 . S
C2299 C2298 1.396 1_655 S
C2299 C2300 1.399 . S
C2300 H2286 0.929 . S
C2300 C2299 1.399 . S
C2300 C2301 1.385 . S
C2301 H2287 0.931 . S
C2301 C2300 1.385 . S
C2301 C2302 1.389 . S
C2302 C2301 1.389 . S
C2302 C2303 1.387 1_655 S
C2303 H2288 0.930 . S
C2303 C2298 1.390 . S
C2303 C2302 1.387 1_455 S
H2304 C2316 0.930 . S
H2305 C2318 0.930 . S
H2306 C2319 0.930 . S
H2307 C2323 0.959 . S
H2308 C2323 0.959 . S
H2309 C2323 0.961 . S
H2310 C2324 0.960 . S
H2311 C2324 0.961 . S
H2312 C2324 0.959 . S
H2313 C2327 0.929 . S
H2314 C2328 0.931 . S
H2315 C2330 0.930 . S
C2316 H2304 0.930 . S
C2316 C2317 1.399 . S
C2316 C2321 1.399 . S
C2317 C2316 1.399 . S
C2317 C2318 1.376 . S
C2318 H2305 0.930 . S
C2318 C2317 1.376 . S
C2318 C2319 1.388 . S
C2319 H2306 0.930 . S
C2319 C2318 1.388 . S
C2319 C2320 1.390 . S
C2320 C2319 1.390 . S
C2320 C2321 1.394 . S
C2320 C2326 1.465 . S
C2321 C2316 1.399 . S
C2321 C2320 1.394 . S
C2321 C2322 1.516 . S
C2322 C2321 1.516 . S
C2322 C2323 1.502 . S
C2322 C2324 1.561 . S
C2322 C2325 1.526 . S
C2323 H2307 0.959 . S
C2323 H2308 0.959 . S
C2323 H2309 0.961 . S
C2323 C2322 1.502 . S
C2324 H2310 0.960 . S
C2324 H2311 0.961 . S
C2324 H2312 0.959 . S
C2324 C2322 1.561 . S
C2325 C2322 1.526 . S
C2325 C2326 1.396 . S
C2325 C2330 1.390 . S
C2326 C2320 1.465 . S
C2326 C2325 1.396 . S
C2326 C2327 1.399 . S
C2327 H2313 0.929 . S
C2327 C2326 1.399 . S
C2327 C2328 1.385 . S
C2328 H2314 0.931 . S
C2328 C2327 1.385 . S
C2328 C2329 1.389 . S
C2329 C2328 1.389 . S
C2329 C2330 1.387 . S
C2330 H2315 0.930 . S
C2330 C2325 1.390 . S
C2330 C2329 1.387 . S
H2331 C2343 0.930 . S
H2332 C2345 0.930 . S
H2333 C2346 0.930 . S
H2334 C2350 0.959 . S
H2335 C2350 0.959 . S
H2336 C2350 0.961 . S
H2337 C2351 0.960 . S
H2338 C2351 0.961 . S
H2339 C2351 0.959 . S
H2340 C2354 0.929 . S
H2341 C2355 0.931 . S
H2342 C2357 0.930 . S
C2343 H2331 0.930 . S
C2343 C2344 1.399 . S
C2343 C2348 1.399 . S
C2344 C2343 1.399 . S
C2344 C2345 1.376 . S
C2345 H2332 0.930 . S
C2345 C2344 1.376 . S
C2345 C2346 1.388 . S
C2346 H2333 0.930 . S
C2346 C2345 1.388 . S
C2346 C2347 1.390 . S
C2347 C2346 1.390 . S
C2347 C2348 1.394 . S
C2347 C2353 1.465 . S
C2348 C2343 1.399 . S
C2348 C2347 1.394 . S
C2348 C2349 1.516 . S
C2349 C2348 1.516 . S
C2349 C2350 1.502 . S
C2349 C2351 1.561 . S
C2349 C2352 1.526 . S
C2350 H2334 0.959 . S
C2350 H2335 0.959 . S
C2350 H2336 0.961 . S
C2350 C2349 1.502 . S
C2351 H2337 0.960 . S
C2351 H2338 0.961 . S
C2351 H2339 0.959 . S
C2351 C2349 1.561 . S
C2352 C2349 1.526 . S
C2352 C2353 1.396 . S
C2352 C2357 1.390 . S
C2353 C2347 1.465 . S
C2353 C2352 1.396 . S
C2353 C2354 1.399 . S
C2354 H2340 0.929 . S
C2354 C2353 1.399 . S
C2354 C2355 1.385 . S
C2355 H2341 0.931 . S
C2355 C2354 1.385 . S
C2355 C2356 1.389 . S
C2356 C2355 1.389 . S
C2356 C2357 1.387 . S
C2357 H2342 0.930 . S
C2357 C2352 1.390 . S
C2357 C2356 1.387 . S
H2358 C2370 0.930 . S
H2359 C2372 0.930 . S
H2360 C2373 0.930 . S
H2361 C2377 0.959 . S
H2362 C2377 0.959 . S
H2363 C2377 0.961 . S
H2364 C2378 0.960 . S
H2365 C2378 0.961 . S
H2366 C2378 0.959 . S
H2367 C2381 0.929 . S
H2368 C2382 0.931 . S
H2369 C2384 0.930 . S
C2370 H2358 0.930 . S
C2370 C2371 1.399 . S
C2370 C2375 1.399 . S
C2371 C2370 1.399 . S
C2371 C2372 1.376 . S
C2372 H2359 0.930 . S
C2372 C2371 1.376 . S
C2372 C2373 1.388 . S
C2373 H2360 0.930 . S
C2373 C2372 1.388 . S
C2373 C2374 1.390 . S
C2374 C2373 1.390 . S
C2374 C2375 1.394 . S
C2374 C2380 1.465 . S
C2375 C2370 1.399 . S
C2375 C2374 1.394 . S
C2375 C2376 1.516 . S
C2376 C2375 1.516 . S
C2376 C2377 1.502 . S
C2376 C2378 1.561 . S
C2376 C2379 1.526 . S
C2377 H2361 0.959 . S
C2377 H2362 0.959 . S
C2377 H2363 0.961 . S
C2377 C2376 1.502 . S
C2378 H2364 0.960 . S
C2378 H2365 0.961 . S
C2378 H2366 0.959 . S
C2378 C2376 1.561 . S
C2379 C2376 1.526 . S
C2379 C2380 1.396 . S
C2379 C2384 1.390 . S
C2380 C2374 1.465 . S
C2380 C2379 1.396 . S
C2380 C2381 1.399 . S
C2381 H2367 0.929 . S
C2381 C2380 1.399 . S
C2381 C2382 1.385 . S
C2382 H2368 0.931 . S
C2382 C2381 1.385 . S
C2382 C2383 1.389 . S
C2383 C2382 1.389 . S
C2383 C2384 1.387 . S
C2384 H2369 0.930 . S
C2384 C2379 1.390 . S
C2384 C2383 1.387 . S
H2385 C2397 0.930 . S
H2386 C2399 0.930 . S
H2387 C2400 0.930 . S
H2388 C2404 0.959 . S
H2389 C2404 0.959 . S
H2390 C2404 0.961 . S
H2391 C2405 0.960 . S
H2392 C2405 0.961 . S
H2393 C2405 0.959 . S
H2394 C2408 0.929 . S
H2395 C2409 0.931 . S
H2396 C2411 0.930 . S
C2397 H2385 0.930 . S
C2397 C2398 1.399 . S
C2397 C2402 1.399 . S
C2398 C2397 1.399 . S
C2398 C2399 1.376 . S
C2399 H2386 0.930 . S
C2399 C2398 1.376 . S
C2399 C2400 1.388 . S
C2400 H2387 0.930 . S
C2400 C2399 1.388 . S
C2400 C2401 1.390 . S
C2401 C2400 1.390 . S
C2401 C2402 1.394 . S
C2401 C2407 1.465 . S
C2402 C2397 1.399 . S
C2402 C2401 1.394 . S
C2402 C2403 1.516 . S
C2403 C2402 1.516 . S
C2403 C2404 1.502 . S
C2403 C2405 1.561 . S
C2403 C2406 1.526 . S
C2404 H2388 0.959 . S
C2404 H2389 0.959 . S
C2404 H2390 0.961 . S
C2404 C2403 1.502 . S
C2405 H2391 0.960 . S
C2405 H2392 0.961 . S
C2405 H2393 0.959 . S
C2405 C2403 1.561 . S
C2406 C2403 1.526 . S
C2406 C2407 1.396 . S
C2406 C2411 1.390 . S
C2407 C2401 1.465 . S
C2407 C2406 1.396 . S
C2407 C2408 1.399 . S
C2408 H2394 0.929 . S
C2408 C2407 1.399 . S
C2408 C2409 1.385 . S
C2409 H2395 0.931 . S
C2409 C2408 1.385 . S
C2409 C2410 1.389 . S
C2410 C2409 1.389 . S
C2410 C2411 1.387 . S
C2411 H2396 0.930 . S
C2411 C2406 1.390 . S
C2411 C2410 1.387 . S
H2412 C2424 0.930 . S
H2413 C2426 0.930 . S
H2414 C2427 0.930 . S
H2415 C2431 0.959 . S
H2416 C2431 0.959 . S
H2417 C2431 0.961 . S
H2418 C2432 0.960 . S
H2419 C2432 0.961 . S
H2420 C2432 0.959 . S
H2421 C2435 0.929 . S
H2422 C2436 0.931 . S
H2423 C2438 0.930 . S
C2424 H2412 0.930 . S
C2424 C2425 1.399 . S
C2424 C2429 1.399 . S
C2425 C2424 1.399 . S
C2425 C2426 1.376 . S
C2426 H2413 0.930 . S
C2426 C2425 1.376 . S
C2426 C2427 1.388 . S
C2427 H2414 0.930 . S
C2427 C2426 1.388 . S
C2427 C2428 1.390 . S
C2428 C2427 1.390 . S
C2428 C2429 1.394 . S
C2428 C2434 1.465 . S
C2429 C2424 1.399 . S
C2429 C2428 1.394 . S
C2429 C2430 1.516 . S
C2430 C2429 1.516 . S
C2430 C2431 1.502 . S
C2430 C2432 1.561 . S
C2430 C2433 1.526 . S
C2431 H2415 0.959 . S
C2431 H2416 0.959 . S
C2431 H2417 0.961 . S
C2431 C2430 1.502 . S
C2432 H2418 0.960 . S
C2432 H2419 0.961 . S
C2432 H2420 0.959 . S
C2432 C2430 1.561 . S
C2433 C2430 1.526 . S
C2433 C2434 1.396 . S
C2433 C2438 1.390 . S
C2434 C2428 1.465 . S
C2434 C2433 1.396 . S
C2434 C2435 1.399 . S
C2435 H2421 0.929 . S
C2435 C2434 1.399 . S
C2435 C2436 1.385 . S
C2436 H2422 0.931 . S
C2436 C2435 1.385 . S
C2436 C2437 1.389 . S
C2437 C2436 1.389 . S
C2437 C2438 1.387 . S
C2438 H2423 0.930 . S
C2438 C2433 1.390 . S
C2438 C2437 1.387 . S
H2439 C2451 0.930 . S
H2440 C2453 0.930 . S
H2441 C2454 0.930 . S
H2442 C2458 0.959 . S
H2443 C2458 0.959 . S
H2444 C2458 0.961 . S
H2445 C2459 0.960 . S
H2446 C2459 0.961 . S
H2447 C2459 0.959 . S
H2448 C2462 0.929 . S
H2449 C2463 0.931 . S
H2450 C2465 0.930 . S
C2451 H2439 0.930 . S
C2451 C2452 1.399 . S
C2451 C2456 1.399 . S
C2452 C2451 1.399 . S
C2452 C2453 1.376 . S
C2453 H2440 0.930 . S
C2453 C2452 1.376 . S
C2453 C2454 1.388 . S
C2454 H2441 0.930 . S
C2454 C2453 1.388 . S
C2454 C2455 1.390 . S
C2455 C2454 1.390 . S
C2455 C2456 1.394 . S
C2455 C2461 1.465 . S
C2456 C2451 1.399 . S
C2456 C2455 1.394 . S
C2456 C2457 1.516 . S
C2457 C2456 1.516 . S
C2457 C2458 1.502 . S
C2457 C2459 1.561 . S
C2457 C2460 1.526 . S
C2458 H2442 0.959 . S
C2458 H2443 0.959 . S
C2458 H2444 0.961 . S
C2458 C2457 1.502 . S
C2459 H2445 0.960 . S
C2459 H2446 0.961 . S
C2459 H2447 0.959 . S
C2459 C2457 1.561 . S
C2460 C2457 1.526 . S
C2460 C2461 1.396 . S
C2460 C2465 1.390 . S
C2461 C2455 1.465 . S
C2461 C2460 1.396 . S
C2461 C2462 1.399 . S
C2462 H2448 0.929 . S
C2462 C2461 1.399 . S
C2462 C2463 1.385 . S
C2463 H2449 0.931 . S
C2463 C2462 1.385 . S
C2463 C2464 1.389 . S
C2464 C2463 1.389 . S
C2464 C2465 1.387 . S
C2465 H2450 0.930 . S
C2465 C2460 1.390 . S
C2465 C2464 1.387 . S
H2466 C2478 0.930 . S
H2467 C2480 0.930 . S
H2468 C2481 0.930 . S
H2469 C2485 0.959 . S
H2470 C2485 0.959 . S
H2471 C2485 0.961 . S
H2472 C2486 0.960 . S
H2473 C2486 0.961 . S
H2474 C2486 0.959 . S
H2475 C2489 0.929 . S
H2476 C2490 0.931 . S
H2477 C2492 0.930 . S
C2478 H2466 0.930 . S
C2478 C2479 1.399 . S
C2478 C2483 1.399 . S
C2479 C2478 1.399 . S
C2479 C2480 1.376 . S
C2480 H2467 0.930 . S
C2480 C2479 1.376 . S
C2480 C2481 1.388 . S
C2481 H2468 0.930 . S
C2481 C2480 1.388 . S
C2481 C2482 1.390 . S
C2482 C2481 1.390 . S
C2482 C2483 1.394 . S
C2482 C2488 1.465 . S
C2483 C2478 1.399 . S
C2483 C2482 1.394 . S
C2483 C2484 1.516 . S
C2484 C2483 1.516 . S
C2484 C2485 1.502 . S
C2484 C2486 1.561 . S
C2484 C2487 1.526 . S
C2485 H2469 0.959 . S
C2485 H2470 0.959 . S
C2485 H2471 0.961 . S
C2485 C2484 1.502 . S
C2486 H2472 0.960 . S
C2486 H2473 0.961 . S
C2486 H2474 0.959 . S
C2486 C2484 1.561 . S
C2487 C2484 1.526 . S
C2487 C2488 1.396 . S
C2487 C2492 1.390 . S
C2488 C2482 1.465 . S
C2488 C2487 1.396 . S
C2488 C2489 1.399 . S
C2489 H2475 0.929 . S
C2489 C2488 1.399 . S
C2489 C2490 1.385 . S
C2490 H2476 0.931 . S
C2490 C2489 1.385 . S
C2490 C2491 1.389 . S
C2491 C2490 1.389 . S
C2491 C2492 1.387 . S
C2492 H2477 0.930 . S
C2492 C2487 1.390 . S
C2492 C2491 1.387 . S
H2493 C2505 0.930 . S
H2494 C2507 0.930 . S
H2495 C2508 0.930 . S
H2496 C2512 0.959 . S
H2497 C2512 0.959 . S
H2498 C2512 0.961 . S
H2499 C2513 0.960 . S
H2500 C2513 0.961 . S
H2501 C2513 0.959 . S
H2502 C2516 0.929 . S
H2503 C2517 0.931 . S
H2504 C2519 0.930 . S
C2505 H2493 0.930 . S
C2505 C2506 1.399 . S
C2505 C2510 1.399 . S
C2506 C2505 1.399 . S
C2506 C2507 1.376 1_655 S
C2507 H2494 0.930 . S
C2507 C2506 1.376 1_455 S
C2507 C2508 1.388 . S
C2508 H2495 0.930 . S
C2508 C2507 1.388 . S
C2508 C2509 1.390 . S
C2509 C2508 1.390 . S
C2509 C2510 1.394 1_455 S
C2509 C2515 1.465 . S
C2510 C2505 1.399 . S
C2510 C2509 1.394 1_655 S
C2510 C2511 1.516 . S
C2511 C2510 1.516 . S
C2511 C2512 1.502 . S
C2511 C2513 1.561 . S
C2511 C2514 1.526 . S
C2512 H2496 0.959 . S
C2512 H2497 0.959 . S
C2512 H2498 0.961 . S
C2512 C2511 1.502 . S
C2513 H2499 0.960 . S
C2513 H2500 0.961 . S
C2513 H2501 0.959 . S
C2513 C2511 1.561 . S
C2514 C2511 1.526 . S
C2514 C2515 1.396 1_655 S
C2514 C2519 1.390 . S
C2515 C2509 1.465 . S
C2515 C2514 1.396 1_455 S
C2515 C2516 1.399 . S
C2516 H2502 0.929 . S
C2516 C2515 1.399 . S
C2516 C2517 1.385 . S
C2517 H2503 0.931 . S
C2517 C2516 1.385 . S
C2517 C2518 1.401 . S
C2518 C2517 1.401 . S
C2518 C2519 1.370 1_455 S
C2519 H2504 0.930 . S
C2519 C2514 1.390 . S
C2519 C2518 1.370 1_655 S
H2520 C2532 0.930 . S
H2521 C2534 0.930 . S
H2522 C2535 0.930 . S
H2523 C2539 0.959 . S
H2524 C2539 0.959 . S
H2525 C2539 0.961 . S
H2526 C2540 0.960 . S
H2527 C2540 0.961 . S
H2528 C2540 0.959 . S
H2529 C2543 0.929 . S
H2530 C2544 0.931 . S
H2531 C2546 0.930 . S
C2532 H2520 0.930 . S
C2532 C2533 1.399 . S
C2532 C2537 1.399 . S
C2533 C2532 1.399 . S
C2533 C2534 1.376 . S
C2534 H2521 0.930 . S
C2534 C2533 1.376 . S
C2534 C2535 1.388 . S
C2535 H2522 0.930 . S
C2535 C2534 1.388 . S
C2535 C2536 1.390 . S
C2536 C2535 1.390 . S
C2536 C2537 1.394 . S
C2536 C2542 1.465 . S
C2537 C2532 1.399 . S
C2537 C2536 1.394 . S
C2537 C2538 1.516 . S
C2538 C2537 1.516 . S
C2538 C2539 1.502 . S
C2538 C2540 1.561 . S
C2538 C2541 1.526 . S
C2539 H2523 0.959 . S
C2539 H2524 0.959 . S
C2539 H2525 0.961 . S
C2539 C2538 1.502 . S
C2540 H2526 0.960 . S
C2540 H2527 0.961 . S
C2540 H2528 0.959 . S
C2540 C2538 1.561 . S
C2541 C2538 1.526 . S
C2541 C2542 1.396 . S
C2541 C2546 1.390 . S
C2542 C2536 1.465 . S
C2542 C2541 1.396 . S
C2542 C2543 1.399 . S
C2543 H2529 0.929 . S
C2543 C2542 1.399 . S
C2543 C2544 1.385 . S
C2544 H2530 0.931 . S
C2544 C2543 1.385 . S
C2544 C2545 1.389 . S
C2545 C2544 1.389 . S
C2545 C2546 1.387 . S
C2546 H2531 0.930 . S
C2546 C2541 1.390 . S
C2546 C2545 1.387 . S
H2547 C2559 0.923 . S
H2548 C2561 0.930 . S
H2549 C2562 0.930 . S
H2550 C2566 0.959 . S
H2551 C2566 0.959 . S
H2552 C2566 0.961 . S
H2553 C2567 0.967 . S
H2554 C2567 0.962 . S
H2555 C2567 0.950 1_545 S
H2556 C2570 0.929 . S
H2557 C2571 0.931 . S
H2558 C2573 0.930 . S
C2559 H2547 0.923 . S
C2559 C2560 1.402 1_565 S
C2559 C2564 1.403 1_565 S
C2560 C2559 1.402 1_545 S
C2560 C2561 1.376 . S
C2561 H2548 0.930 . S
C2561 C2560 1.376 . S
C2561 C2562 1.388 . S
C2562 H2549 0.930 . S
C2562 C2561 1.388 . S
C2562 C2563 1.390 . S
C2563 C2562 1.390 . S
C2563 C2564 1.394 . S
C2563 C2569 1.465 . S
C2564 C2559 1.403 1_545 S
C2564 C2563 1.394 . S
C2564 C2565 1.516 1_545 S
C2565 C2564 1.516 1_565 S
C2565 C2566 1.502 . S
C2565 C2567 1.562 . S
C2565 C2568 1.572 . S
C2566 H2550 0.959 . S
C2566 H2551 0.959 . S
C2566 H2552 0.961 . S
C2566 C2565 1.502 . S
C2567 H2553 0.967 . S
C2567 H2554 0.962 . S
C2567 H2555 0.950 1_565 S
C2567 C2565 1.562 . S
C2568 C2565 1.572 . S
C2568 C2569 1.360 1_565 S
C2568 C2573 1.379 . S
C2569 C2563 1.465 . S
C2569 C2568 1.360 1_545 S
C2569 C2570 1.399 . S
C2570 H2556 0.929 . S
C2570 C2569 1.399 . S
C2570 C2571 1.385 . S
C2571 H2557 0.931 . S
C2571 C2570 1.385 . S
C2571 C2572 1.389 . S
C2572 C2571 1.389 . S
C2572 C2573 1.387 1_545 S
C2573 H2558 0.930 . S
C2573 C2568 1.379 . S
C2573 C2572 1.387 1_565 S
C643 C8 1.524 1_655 S
C655 C458 1.526 1_655 S
C670 C22 1.523 . S
C682 C471 1.544 . S
C709 C500 1.495 1_545 S
C697 C37 1.554 1_545 S
C724 C36 1.521 . S
C736 C513 1.501 . S
C751 C9 1.566 1_455 S
C763 C534 1.483 . S
C778 C23 1.520 . S
C790 C563 1.469 . S
C805 C50 1.535 . S
C817 C542 1.458 . S
C844 C555 1.483 . S
C832 C64 1.511 . S
C871 C521 1.521 1_545 S
C859 C79 1.508 . S
C886 C78 1.509 . S
C898 C492 1.477 . S
C925 C450 1.526 1_655 S
C913 C51 1.567 1_655 S
C940 C65 1.509 . S
C952 C479 1.519 . S
C967 C92 1.563 . S
C979 C584 1.451 . S
C994 C106 1.519 . S
C1006 C597 1.543 . S
C1033 C626 1.453 . S
C1021 C121 1.556 . S
C1048 C120 1.551 . S
C1060 C261 1.496 . S
C1075 C93 1.528 . S
C1087 C282 1.548 . S
C1102 C107 1.522 . S
C1114 C311 1.491 . S
C1129 C134 1.543 . S
C1141 C290 1.457 . S
C1156 C148 1.538 . S
C1168 C303 1.522 . S
C1195 C269 1.522 . S
C1183 C163 1.509 . S
C1222 C618 1.495 . S
C1210 C162 1.547 . S
C1249 C576 1.453 . S
C1237 C135 1.511 . S
C1276 C605 1.526 . S
C1264 C149 1.532 . S
C1291 C176 1.526 . S
C1303 C332 1.476 . S
C1318 C190 1.546 . S
C1330 C345 1.523 . S
C1345 C205 1.550 . S
C1357 C374 1.516 . S
C1372 C204 1.553 . S
C1384 C387 1.493 . S
C1411 C408 1.541 . S
C1399 C177 1.537 . S
C1438 C437 1.456 . S
C1426 C191 1.522 . S
C1465 C416 1.525 . S
C1453 C218 1.546 . S
C1492 C429 1.451 . S
C1480 C232 1.527 . S
C1507 C247 1.550 . S
C1519 C395 1.455 . S
C1546 C366 1.458 . S
C1534 C246 1.500 . S
C1561 C219 1.540 . S
C1573 C324 1.467 . S
C1600 C353 1.450 . S
C1588 C233 1.540 . S
C1627 C264 1.433 . S
C1615 C6 1.440 . S
C1642 C20 1.480 . S
C1654 C285 1.426 . S
C1681 C313 1.371 . S
C1669 C35 1.468 . S
C1708 C334 1.390 . S
C1696 C34 1.480 . S
C1735 C348 1.406 . S
C1723 C7 1.496 . S
C1762 C376 1.425 . S
C1750 C21 1.440 . S
C1777 C48 1.456 . S
C1789 C369 1.403 . S
C1804 C62 1.509 . S
C1816 C327 1.389 . S
C1831 C77 1.507 . S
C1843 C355 1.389 . S
C1858 C76 1.442 . S
C1870 C292 1.474 . S
C1897 C306 1.429 . S
C1885 C49 1.452 . S
C1912 C63 1.478 . S
C1924 C271 1.454 . S
C1951 C390 1.454 . S
C1939 C90 1.451 . S
C1966 C104 1.452 . S
C1978 C411 1.378 . S
C1993 C119 1.496 . S
C2005 C439 1.407 . S
C2032 C460 1.365 . S
C2020 C118 1.438 . S
C2047 C91 1.440 . S
C2059 C474 1.439 . S
C2074 C105 1.439 . S
C2086 C502 1.424 . S
C2101 C132 1.477 . S
C2113 C495 1.343 . S
C2128 C146 1.473 . S
C2140 C453 1.455 . S
C2167 C481 1.395 . S
C2155 C161 1.506 . S
C2182 C160 1.489 . S
C2194 C418 1.414 . S
C2209 C133 1.482 . S
C2221 C432 1.445 . S
C2248 C397 1.446 . S
C2236 C147 1.484 . S
C2275 C516 1.446 1_545 S
C2263 C174 1.442 . S
C2290 C188 1.451 . S
C2302 C537 1.449 1_655 S
C2317 C203 1.466 . S
C2329 C565 1.464 . S
C2356 C586 1.414 . S
C2344 C202 1.493 . S
C2383 C600 1.345 . S
C2371 C175 1.501 . S
C2398 C189 1.481 . S
C2410 C628 1.470 . S
C2425 C216 1.500 . S
C2437 C621 1.444 . S
C2452 C230 1.497 . S
C2464 C579 1.336 . S
C2491 C607 1.383 . S
C2479 C245 1.506 . S
C2518 C544 1.431 . S
C2506 C244 1.477 . S
C2545 C558 1.347 . S
C2533 C217 1.463 . S
C2560 C231 1.446 . S
C2572 C523 1.474 1_545 S
