# Generated by pormake.
# Topology nom, (4,4)-cn, num edge types: 1
# Building blocks:
#     Node 0, Type 0, BuildingBlock: NAHDIM_clean_linker_0, # of connection points: 4
#     Node 1, Type 0, BuildingBlock: NAHDIM_clean_linker_0, # of connection points: 4
#     Node 2, Type 0, BuildingBlock: NAHDIM_clean_linker_0, # of connection points: 4
#     Node 3, Type 0, BuildingBlock: NAHDIM_clean_linker_0, # of connection points: 4
#     Node 4, Type 0, BuildingBlock: NAHDIM_clean_linker_0, # of connection points: 4
#     Node 5, Type 0, BuildingBlock: NAHDIM_clean_linker_0, # of connection points: 4
#     Node 6, Type 1, BuildingBlock: AZAVOO_clean_sbu_0, # of connection points: 4
#     Node 7, Type 1, BuildingBlock: AZAVOO_clean_sbu_0, # of connection points: 4
#     Node 8, Type 1, BuildingBlock: AZAVOO_clean_sbu_0, # of connection points: 4
#     Node 9, Type 1, BuildingBlock: AZAVOO_clean_sbu_0, # of connection points: 4
#     Node 10, Type 1, BuildingBlock: AZAVOO_clean_sbu_0, # of connection points: 4
#     Node 11, Type 1, BuildingBlock: AZAVOO_clean_sbu_0, # of connection points: 4
#     Edge 12, Type (0, 1), BuildingBlock: KIFKEQ_clean_linker_1, # of connection points: 2
#     Edge 13, Type (0, 1), BuildingBlock: KIFKEQ_clean_linker_1, # of connection points: 2
#     Edge 14, Type (0, 1), BuildingBlock: KIFKEQ_clean_linker_1, # of connection points: 2
#     Edge 15, Type (0, 1), BuildingBlock: KIFKEQ_clean_linker_1, # of connection points: 2
#     Edge 16, Type (0, 1), BuildingBlock: KIFKEQ_clean_linker_1, # of connection points: 2
#     Edge 17, Type (0, 1), BuildingBlock: KIFKEQ_clean_linker_1, # of connection points: 2
#     Edge 18, Type (0, 1), BuildingBlock: KIFKEQ_clean_linker_1, # of connection points: 2
#     Edge 19, Type (0, 1), BuildingBlock: KIFKEQ_clean_linker_1, # of connection points: 2
#     Edge 20, Type (0, 1), BuildingBlock: KIFKEQ_clean_linker_1, # of connection points: 2
#     Edge 21, Type (0, 1), BuildingBlock: KIFKEQ_clean_linker_1, # of connection points: 2
#     Edge 22, Type (0, 1), BuildingBlock: KIFKEQ_clean_linker_1, # of connection points: 2
#     Edge 23, Type (0, 1), BuildingBlock: KIFKEQ_clean_linker_1, # of connection points: 2
#     Edge 24, Type (0, 1), BuildingBlock: KIFKEQ_clean_linker_1, # of connection points: 2
#     Edge 25, Type (0, 1), BuildingBlock: KIFKEQ_clean_linker_1, # of connection points: 2
#     Edge 26, Type (0, 1), BuildingBlock: KIFKEQ_clean_linker_1, # of connection points: 2
#     Edge 27, Type (0, 1), BuildingBlock: KIFKEQ_clean_linker_1, # of connection points: 2
#     Edge 28, Type (0, 1), BuildingBlock: KIFKEQ_clean_linker_1, # of connection points: 2
#     Edge 29, Type (0, 1), BuildingBlock: KIFKEQ_clean_linker_1, # of connection points: 2
#     Edge 30, Type (0, 1), BuildingBlock: KIFKEQ_clean_linker_1, # of connection points: 2
#     Edge 31, Type (0, 1), BuildingBlock: KIFKEQ_clean_linker_1, # of connection points: 2
#     Edge 32, Type (0, 1), BuildingBlock: KIFKEQ_clean_linker_1, # of connection points: 2
#     Edge 33, Type (0, 1), BuildingBlock: KIFKEQ_clean_linker_1, # of connection points: 2
#     Edge 34, Type (0, 1), BuildingBlock: KIFKEQ_clean_linker_1, # of connection points: 2
#     Edge 35, Type (0, 1), BuildingBlock: KIFKEQ_clean_linker_1, # of connection points: 2
# Relax obj value: 0.096
# Max RMSD: 0.170
# Mean RMSD: 0.147
data_MOF--net-nom--node1-AZAVOO_clean_sbu_0--node2-NAHDIM_clean_linker_0--edge1-KIFKEQ_clean_linker_1
_symmetry_space_group_name_H-M    P1
_symmetry_Int_Tables_number       1
_symmetry_cell_setting            triclinic
loop_
_symmetry_equiv_pos_as_xyz
'x, y, z'
_cell_length_a     58.385187
_cell_length_b     58.995036
_cell_length_c     69.12948
_cell_angle_alpha  90.901117
_cell_angle_beta   90.896747
_cell_angle_gamma 120.01236
loop_
_atom_site_label
_atom_site_type_symbol
_atom_site_fract_x
_atom_site_fract_y
_atom_site_fract_z
_atom_type_partial_charge
C0 C 0.1521 0.59134 0.23863 0.0
C1 C 0.16253 0.60411 0.25876 0.0
C2 C 0.1206 0.5939 0.27377 0.0
C3 C 0.11152 0.56716 0.27651 0.0
C4 C 0.0857 0.55031 0.28253 0.0
C5 C 0.06856 0.56033 0.28589 0.0
C6 C 0.07777 0.5873 0.28362 0.0
C7 C 0.10377 0.60377 0.2777 0.0
C8 C 0.07655 0.52167 0.28503 0.0
C9 C 0.06 0.59859 0.28718 0.0
C10 C 0.89115 0.4664 0.19124 0.0
C11 C 0.90744 0.48073 0.20875 0.0
C12 C 0.94133 0.48202 0.23069 0.0
C13 C 0.94245 0.50177 0.24303 0.0
C14 C 0.96013 0.51148 0.25902 0.0
C15 C 0.97662 0.50083 0.26307 0.0
C16 C 0.97522 0.48062 0.25092 0.0
C17 C 0.95766 0.47159 0.23481 0.0
C18 C 0.96135 0.53335 0.27147 0.0
C19 C 0.99233 0.46866 0.25491 0.0
C20 C 0.88405 0.42874 0.36865 0.0
C21 C 0.88992 0.45384 0.36316 0.0
C22 C 0.91614 0.47346 0.36023 0.0
C23 C 0.93676 0.46753 0.36226 0.0
C24 C 0.93091 0.44247 0.36844 0.0
C25 C 0.90459 0.42351 0.37189 0.0
C26 C 0.92169 0.50034 0.35463 0.0
C27 C 0.95234 0.43547 0.37091 0.0
C28 C 0.11894 0.62119 0.42613 0.0
C29 C 0.10759 0.59173 0.42821 0.0
C30 C 0.06271 0.56461 0.41544 0.0
C31 C 0.04292 0.56996 0.40969 0.0
C32 C 0.02498 0.55548 0.39454 0.0
C33 C 0.02645 0.53459 0.38542 0.0
C34 C 0.04556 0.52817 0.39199 0.0
C35 C 0.06373 0.54349 0.40682 0.0
C36 C 0.0048 0.56282 0.38803 0.0
C37 C 0.04695 0.50532 0.38321 0.0
C38 C 0.04073 0.54226 0.29109 0.0
C39 C 0.02205 0.52989 0.27601 0.0
C40 C 0.99579 0.51145 0.27973 0.0
C41 C 0.98798 0.5046 0.29901 0.0
C42 C 0.96215 0.48502 0.30322 0.0
C43 C 0.95447 0.47891 0.32227 0.0
C44 C 0.97218 0.4925 0.33785 0.0
C45 C 0.96424 0.48721 0.35728 0.0
C46 C 0.98243 0.50098 0.37239 0.0
C47 C 0.00849 0.52004 0.36869 0.0
C48 C 0.0168 0.52562 0.34936 0.0
C49 C 0.04285 0.54472 0.34508 0.0
C50 C 0.05086 0.54994 0.32603 0.0
C51 C 0.03294 0.53679 0.3105 0.0
C52 C 0.0065 0.51772 0.31446 0.0
C53 C 0.99851 0.51188 0.33391 0.0
C54 C 0.82147 0.37506 0.35354 0.0
C55 C 0.83782 0.40442 0.3583 0.0
O56 O 0.1451 0.6107 0.26711 0.0
O57 O 0.08034 0.57987 0.42954 0.0
O58 O 0.85876 0.40912 0.37063 0.0
O59 O 0.92502 0.47272 0.21471 0.0
H60 H 0.16495 0.59028 0.26816 0.0
H61 H 0.13291 0.57288 0.23964 0.0
H62 H 0.14917 0.60476 0.22913 0.0
H63 H 0.1663 0.5865 0.23182 0.0
H64 H 0.12426 0.55912 0.27384 0.0
H65 H 0.11094 0.62441 0.2757 0.0
H66 H 0.05991 0.50966 0.27466 0.0
H67 H 0.09259 0.51709 0.2826 0.0
H68 H 0.0691 0.51584 0.29985 0.0
H69 H 0.07022 0.62004 0.28497 0.0
H70 H 0.04237 0.58885 0.27727 0.0
H71 H 0.05284 0.5947 0.30222 0.0
H72 H 0.91673 0.50246 0.20819 0.0
H73 H 0.89727 0.48163 0.17981 0.0
H74 H 0.90105 0.4562 0.18435 0.0
H75 H 0.85263 0.44619 0.20149 0.0
H76 H 0.92977 0.5099 0.24024 0.0
H77 H 0.95662 0.4563 0.2253 0.0
H78 H 0.95398 0.52598 0.28606 0.0
H79 H 0.98214 0.54955 0.2733 0.0
H80 H 0.94925 0.54132 0.26524 0.0
H81 H 0.98695 0.45133 0.24532 0.0
H82 H 0.01336 0.48348 0.25267 0.0
H83 H 0.99059 0.4627 0.27022 0.0
H84 H 0.84544 0.41414 0.34425 0.0
H85 H 0.87404 0.4581 0.36119 0.0
H86 H 0.89979 0.40413 0.37637 0.0
H87 H 0.92622 0.50305 0.33902 0.0
H88 H 0.90452 0.50314 0.35718 0.0
H89 H 0.93917 0.51575 0.36292 0.0
H90 H 0.94423 0.4145 0.37426 0.0
H91 H 0.96391 0.43975 0.35751 0.0
H92 H 0.96619 0.44764 0.38287 0.0
H93 H 0.11301 0.58436 0.41511 0.0
H94 H 0.14073 0.63127 0.42447 0.0
H95 H 0.11005 0.62485 0.41307 0.0
H96 H 0.11446 0.62967 0.43901 0.0
H97 H 0.04214 0.5861 0.41673 0.0
H98 H 0.07861 0.53892 0.41181 0.0
H99 H 0.00598 0.56596 0.3722 0.0
H100 H 0.98461 0.54653 0.39091 0.0
H101 H 0.00763 0.58083 0.3956 0.0
H102 H 0.06032 0.50068 0.39171 0.0
H103 H 0.02692 0.48767 0.38225 0.0
H104 H 0.05437 0.50999 0.36829 0.0
H105 H 0.02803 0.53475 0.26116 0.0
H106 H 0.9476 0.47414 0.29182 0.0
H107 H 0.93436 0.46357 0.3246 0.0
H108 H 0.97615 0.49697 0.38725 0.0
H109 H 0.05742 0.55579 0.35641 0.0
H110 H 0.07119 0.56471 0.32362 0.0
H111 H 0.81377 0.36373 0.36691 0.0
H112 H 0.80455 0.37083 0.34362 0.0
H113 H 0.83401 0.36842 0.34625 0.0
C114 C 0.43725 0.86763 0.57112 0.0
C115 C 0.42228 0.85996 0.55149 0.0
C116 C 0.43342 0.90349 0.53985 0.0
C117 C 0.46013 0.91219 0.53606 0.0
C118 C 0.47729 0.93819 0.53097 0.0
C119 C 0.46748 0.95569 0.52942 0.0
C120 C 0.44046 0.94679 0.5326 0.0
C121 C 0.42378 0.92075 0.53776 0.0
C122 C 0.506 0.94709 0.52752 0.0
C123 C 0.42931 0.9649 0.53082 0.0
C124 C 0.55801 0.12555 0.62997 0.0
C125 C 0.5432 0.1098 0.61241 0.0
C126 C 0.54263 0.07806 0.58899 0.0
C127 C 0.52158 0.07628 0.57758 0.0
C128 C 0.51223 0.05993 0.56096 0.0
C129 C 0.52461 0.04559 0.55528 0.0
C130 C 0.54606 0.04765 0.56652 0.0
C131 C 0.55466 0.06374 0.58333 0.0
C132 C 0.4889 0.05781 0.54958 0.0
C133 C 0.55984 0.03279 0.56081 0.0
C134 C 0.58523 0.14811 0.45608 0.0
C135 C 0.55819 0.13784 0.45932 0.0
C136 C 0.54107 0.11069 0.4601 0.0
C137 C 0.55132 0.09358 0.45772 0.0
C138 C 0.57827 0.10387 0.45336 0.0
C139 C 0.59484 0.13107 0.45237 0.0
C140 C 0.51222 0.10032 0.46408 0.0
C141 C 0.58978 0.08619 0.45053 0.0
C142 C 0.42355 0.90288 0.40117 0.0
C143 C 0.44923 0.91931 0.39041 0.0
C144 C 0.46778 0.96429 0.40227 0.0
C145 C 0.457 0.97949 0.40856 0.0
C146 C 0.46962 0.99872 0.4233 0.0
C147 C 0.49388 0.00311 0.43156 0.0
C148 C 0.50573 0.98894 0.42432 0.0
C149 C 0.49252 0.96963 0.40974 0.0
C150 C 0.45662 0.0137 0.43052 0.0
C151 C 0.53201 0.99374 0.43236 0.0
C152 C 0.48568 0.98357 0.52513 0.0
C153 C 0.49745 0.0012 0.54078 0.0
C154 C 0.51448 0.02785 0.53792 0.0
C155 C 0.52029 0.03724 0.51889 0.0
C156 C 0.53779 0.06381 0.51548 0.0
C157 C 0.54264 0.07301 0.49673 0.0
C158 C 0.53021 0.05598 0.48065 0.0
C159 C 0.53444 0.06529 0.46155 0.0
C160 C 0.52236 0.04772 0.44586 0.0
C161 C 0.50583 0.02095 0.44874 0.0
C162 C 0.50084 0.01138 0.46776 0.0
C163 C 0.48379 0.98467 0.47121 0.0
C164 C 0.47888 0.97547 0.48996 0.0
C165 C 0.49081 0.99263 0.50601 0.0
C166 C 0.50815 0.01959 0.50289 0.0
C167 C 0.51312 0.02898 0.48375 0.0
C168 C 0.628 0.20889 0.47914 0.0
C169 C 0.60139 0.19279 0.46835 0.0
O170 O 0.41635 0.87892 0.5458 0.0
O171 O 0.45397 0.94473 0.38895 0.0
O172 O 0.60261 0.17425 0.4565 0.0
O173 O 0.55172 0.09314 0.60551 0.0
H174 H 0.43459 0.85759 0.5404 0.0
H175 H 0.45653 0.88598 0.57016 0.0
H176 H 0.42549 0.87068 0.58228 0.0
H177 H 0.44126 0.85201 0.57587 0.0
H178 H 0.46786 0.899 0.53722 0.0
H179 H 0.40313 0.91382 0.54053 0.0
H180 H 0.51875 0.96333 0.53788 0.0
H181 H 0.51056 0.93105 0.52917 0.0
H182 H 0.51114 0.95478 0.5127 0.0
H183 H 0.40761 0.95465 0.53292 0.0
H184 H 0.43912 0.98113 0.54177 0.0
H185 H 0.43351 0.97375 0.51632 0.0
H186 H 0.52124 0.10007 0.61343 0.0
H187 H 0.543 0.11878 0.6417 0.0
H188 H 0.56895 0.11596 0.63613 0.0
H189 H 0.57727 0.16405 0.62036 0.0
H190 H 0.51213 0.08735 0.58161 0.0
H191 H 0.57091 0.06526 0.59214 0.0
H192 H 0.4955 0.06675 0.53527 0.0
H193 H 0.47368 0.03692 0.54698 0.0
H194 H 0.47963 0.06786 0.5571 0.0
H195 H 0.57782 0.03849 0.56996 0.0
H196 H 0.54605 0.01147 0.56221 0.0
H197 H 0.56555 0.03627 0.54543 0.0
H198 H 0.58623 0.18317 0.47959 0.0
H199 H 0.55046 0.15098 0.46137 0.0
H200 H 0.61567 0.13924 0.4495 0.0
H201 H 0.50803 0.09265 0.47894 0.0
H202 H 0.50663 0.1157 0.46287 0.0
H203 H 0.49958 0.08386 0.45384 0.0
H204 H 0.61116 0.09728 0.44726 0.0
H205 H 0.58718 0.07485 0.4638 0.0
H206 H 0.57901 0.07191 0.43846 0.0
H207 H 0.46538 0.91896 0.39891 0.0
H208 H 0.4193 0.88237 0.40222 0.0
H209 H 0.42554 0.9111 0.41607 0.0
H210 H 0.40663 0.90292 0.39362 0.0
H211 H 0.43813 0.97554 0.4024 0.0
H212 H 0.50153 0.95875 0.4042 0.0
H213 H 0.4523 0.00994 0.4461 0.0
H214 H 0.47035 0.03504 0.42916 0.0
H215 H 0.43789 0.0082 0.42243 0.0
H216 H 0.53987 0.98313 0.42385 0.0
H217 H 0.5467 0.01502 0.43255 0.0
H218 H 0.52969 0.98718 0.44753 0.0
H219 H 0.49296 0.99414 0.55541 0.0
H220 H 0.54784 0.07783 0.52728 0.0
H221 H 0.55622 0.0937 0.49503 0.0
H222 H 0.52586 0.05497 0.43125 0.0
H223 H 0.47391 0.97053 0.45945 0.0
H224 H 0.46552 0.95474 0.49172 0.0
H225 H 0.62753 0.22368 0.48902 0.0
H226 H 0.6323 0.1958 0.48795 0.0
H227 H 0.64421 0.21907 0.46878 0.0
C228 C 0.59474 0.45235 0.72116 0.0
C229 C 0.58802 0.4351 0.70272 0.0
C230 C 0.5563 0.44557 0.68731 0.0
C231 C 0.57494 0.4708 0.68143 0.0
C232 C 0.56679 0.48799 0.67466 0.0
C233 C 0.53951 0.47979 0.67373 0.0
C234 C 0.52067 0.45408 0.6789 0.0
C235 C 0.52936 0.43722 0.68549 0.0
C236 C 0.58736 0.5152 0.66898 0.0
C237 C 0.49142 0.44472 0.678 0.0
C238 C 0.56848 0.58982 0.77785 0.0
C239 C 0.54211 0.58068 0.76705 0.0
C240 C 0.5393 0.58022 0.73183 0.0
C241 C 0.51485 0.55719 0.72882 0.0
C242 C 0.5087 0.54305 0.71116 0.0
C243 C 0.52747 0.55212 0.69633 0.0
C244 C 0.55134 0.57632 0.69891 0.0
C245 C 0.55673 0.59028 0.71659 0.0
C246 C 0.48275 0.51774 0.70872 0.0
C247 C 0.57193 0.58658 0.6835 0.0
C248 C 0.47115 0.60182 0.59253 0.0
C249 C 0.45296 0.57765 0.60021 0.0
C250 C 0.45977 0.55824 0.60311 0.0
C251 C 0.48553 0.56343 0.59868 0.0
C252 C 0.50358 0.58748 0.59034 0.0
C253 C 0.49593 0.60621 0.58707 0.0
C254 C 0.43959 0.53241 0.61123 0.0
C255 C 0.53117 0.59371 0.58535 0.0
C256 C 0.52578 0.41379 0.55123 0.0
C257 C 0.53802 0.44059 0.54191 0.0
C258 C 0.51456 0.46377 0.54946 0.0
C259 C 0.4891 0.45601 0.5557 0.0
C260 C 0.48471 0.4717 0.56891 0.0
C261 C 0.50632 0.49588 0.57562 0.0
C262 C 0.53174 0.50473 0.56808 0.0
C263 C 0.5356 0.48852 0.55508 0.0
C264 C 0.45733 0.46187 0.57648 0.0
C265 C 0.55506 0.5308 0.57443 0.0
C266 C 0.5309 0.49873 0.66866 0.0
C267 C 0.53123 0.51523 0.68344 0.0
C268 C 0.52435 0.53432 0.67984 0.0
C269 C 0.51631 0.53673 0.66095 0.0
C270 C 0.50876 0.55535 0.65682 0.0
C271 C 0.50144 0.55787 0.63804 0.0
C272 C 0.50124 0.54175 0.6227 0.0
C273 C 0.49396 0.5442 0.60353 0.0
C274 C 0.49515 0.52862 0.58853 0.0
C275 C 0.50321 0.51038 0.59218 0.0
C276 C 0.50953 0.50694 0.61134 0.0
C277 C 0.51686 0.48812 0.61556 0.0
C278 C 0.52367 0.48526 0.63434 0.0
C279 C 0.52351 0.50115 0.64961 0.0
C280 C 0.51606 0.52015 0.64575 0.0
C281 C 0.50879 0.52285 0.6266 0.0
C282 C 0.46425 0.65668 0.6064 0.0
C283 C 0.45082 0.627 0.60317 0.0
O284 O 0.56336 0.4289 0.69517 0.0
O285 O 0.51843 0.44689 0.53833 0.0
O286 O 0.46553 0.62137 0.59045 0.0
O287 O 0.54694 0.59279 0.74935 0.0
H288 H 0.60331 0.44558 0.69176 0.0
H289 H 0.59621 0.47138 0.71792 0.0
H290 H 0.57922 0.44243 0.73206 0.0
H291 H 0.6141 0.45652 0.72752 0.0
H292 H 0.59586 0.47741 0.68234 0.0
H293 H 0.51514 0.41763 0.68986 0.0
H294 H 0.58753 0.52977 0.67943 0.0
H295 H 0.60755 0.51776 0.66876 0.0
H296 H 0.58234 0.51949 0.65445 0.0
H297 H 0.47928 0.42405 0.68236 0.0
H298 H 0.48715 0.45729 0.68767 0.0
H299 H 0.48536 0.44649 0.66305 0.0
H300 H 0.53278 0.55904 0.765 0.0
H301 H 0.56509 0.58041 0.79213 0.0
H302 H 0.58094 0.58424 0.7693 0.0
H303 H 0.57941 0.61144 0.78013 0.0
H304 H 0.50082 0.54997 0.74039 0.0
H305 H 0.57532 0.60837 0.719 0.0
H306 H 0.4738 0.51633 0.69413 0.0
H307 H 0.48633 0.50102 0.70999 0.0
H308 H 0.46844 0.51589 0.71986 0.0
H309 H 0.58949 0.60568 0.68782 0.0
H310 H 0.57856 0.57224 0.68046 0.0
H311 H 0.56323 0.58903 0.66987 0.0
H312 H 0.45076 0.61879 0.61761 0.0
H313 H 0.43345 0.5739 0.60392 0.0
H314 H 0.50967 0.62483 0.58093 0.0
H315 H 0.44508 0.53144 0.62651 0.0
H316 H 0.41938 0.5298 0.61081 0.0
H317 H 0.43925 0.51589 0.60303 0.0
H318 H 0.54356 0.61418 0.58064 0.0
H319 H 0.54106 0.5906 0.59806 0.0
H320 H 0.53004 0.58026 0.57349 0.0
H321 H 0.55323 0.45483 0.55247 0.0
H322 H 0.54113 0.40825 0.55396 0.0
H323 H 0.51722 0.41456 0.5653 0.0
H324 H 0.50975 0.39848 0.54179 0.0
H325 H 0.4729 0.43705 0.55095 0.0
H326 H 0.55511 0.49497 0.54956 0.0
H327 H 0.45743 0.45855 0.59224 0.0
H328 H 0.45136 0.47686 0.5745 0.0
H329 H 0.44237 0.4433 0.5691 0.0
H330 H 0.57258 0.53635 0.5654 0.0
H331 H 0.54972 0.54638 0.57374 0.0
H332 H 0.5606 0.5298 0.5897 0.0
H333 H 0.5375 0.51355 0.69796 0.0
H334 H 0.50855 0.56822 0.66806 0.0
H335 H 0.49607 0.57274 0.6357 0.0
H336 H 0.49014 0.531 0.57381 0.0
H337 H 0.51742 0.47535 0.6044 0.0
H338 H 0.52922 0.47052 0.63671 0.0
H339 H 0.46601 0.6666 0.59252 0.0
H340 H 0.45276 0.66164 0.61657 0.0
H341 H 0.48443 0.66424 0.61279 0.0
C342 C 0.14493 0.54081 0.91645 0.0
C343 C 0.15521 0.55423 0.89719 0.0
C344 C 0.11533 0.53485 0.87619 0.0
C345 C 0.11051 0.55586 0.87519 0.0
C346 C 0.08573 0.55176 0.86884 0.0
C347 C 0.06538 0.52614 0.86353 0.0
C348 C 0.07033 0.50501 0.86432 0.0
C349 C 0.09545 0.50978 0.87032 0.0
C350 C 0.08128 0.57481 0.86779 0.0
C351 C 0.04902 0.47736 0.85906 0.0
C352 C 0.92585 0.49852 0.96841 0.0
C353 C 0.94319 0.51192 0.95194 0.0
C354 C 0.94892 0.50217 0.91851 0.0
C355 C 0.94364 0.48112 0.90612 0.0
C356 C 0.9587 0.48466 0.88966 0.0
C357 C 0.9787 0.51024 0.88499 0.0
C358 C 0.98337 0.53182 0.89708 0.0
C359 C 0.9687 0.52752 0.91388 0.0
C360 C 0.9536 0.4609 0.87764 0.0
C361 C 0.00416 0.55944 0.89248 0.0
C362 C 0.87789 0.47431 0.77612 0.0
C363 C 0.88416 0.45681 0.78501 0.0
C364 C 0.91055 0.46404 0.78926 0.0
C365 C 0.931 0.48964 0.78512 0.0
C366 C 0.92472 0.50713 0.77581 0.0
C367 C 0.8982 0.49901 0.77112 0.0
C368 C 0.91647 0.44428 0.79822 0.0
C369 C 0.94594 0.53449 0.77107 0.0
C370 C 0.11004 0.5048 0.72909 0.0
C371 C 0.09529 0.51911 0.72333 0.0
C372 C 0.05117 0.50264 0.73571 0.0
C373 C 0.03205 0.47941 0.74376 0.0
C374 C 0.01524 0.47966 0.75792 0.0
C375 C 0.01732 0.50375 0.76375 0.0
C376 C 0.03555 0.52713 0.75474 0.0
C377 C 0.05238 0.52634 0.74081 0.0
C378 C 0.99578 0.45433 0.76706 0.0
C379 C 0.03762 0.55297 0.76017 0.0
C380 C 0.03869 0.52135 0.85779 0.0
C381 C 0.02161 0.51897 0.87254 0.0
C382 C 0.99603 0.51415 0.86838 0.0
C383 C 0.98716 0.51178 0.8489 0.0
C384 C 0.96192 0.50786 0.84411 0.0
C385 C 0.9528 0.5039 0.82494 0.0
C386 C 0.96857 0.50369 0.80984 0.0
C387 C 0.95889 0.49797 0.79044 0.0
C388 C 0.97537 0.4986 0.77575 0.0
C389 C 0.00132 0.50459 0.77989 0.0
C390 C 0.01122 0.50991 0.79922 0.0
C391 C 0.03714 0.51564 0.80392 0.0
C392 C 0.0464 0.51998 0.82305 0.0
C393 C 0.02995 0.51832 0.83824 0.0
C394 C 0.00399 0.51325 0.83381 0.0
C395 C 0.99466 0.50915 0.81426 0.0
C396 C 0.8121 0.46314 0.7834 0.0
C397 C 0.83115 0.45244 0.78356 0.0
O398 O 0.13906 0.53802 0.88212 0.0
O399 O 0.0683 0.50162 0.7232 0.0
O400 O 0.85249 0.46798 0.77221 0.0
O401 O 0.93465 0.49721 0.93479 0.0
H402 H 0.15532 0.5731 0.89753 0.0
H403 H 0.12446 0.53694 0.9185 0.0
H404 H 0.14475 0.52188 0.91669 0.0
H405 H 0.15757 0.55357 0.92872 0.0
H406 H 0.12608 0.57554 0.87892 0.0
H407 H 0.09952 0.49378 0.8709 0.0
H408 H 0.0668 0.57287 0.87878 0.0
H409 H 0.09982 0.59379 0.87045 0.0
H410 H 0.07278 0.57505 0.85336 0.0
H411 H 0.05532 0.46284 0.8622 0.0
H412 H 0.03083 0.47217 0.86716 0.0
H413 H 0.04385 0.47587 0.8434 0.0
H414 H 0.9483 0.53269 0.95033 0.0
H415 H 0.95002 0.49161 0.98718 0.0
H416 H 0.91735 0.51125 0.97267 0.0
H417 H 0.90662 0.48228 0.96199 0.0
H418 H 0.92826 0.46166 0.90983 0.0
H419 H 0.97267 0.54405 0.92321 0.0
H420 H 0.94328 0.46031 0.86387 0.0
H421 H 0.97251 0.46183 0.874 0.0
H422 H 0.94104 0.44237 0.8852 0.0
H423 H 0.0015 0.57423 0.90074 0.0
H424 H 0.024 0.56236 0.89633 0.0
H425 H 0.0037 0.56292 0.87677 0.0
H426 H 0.83807 0.45383 0.79889 0.0
H427 H 0.86853 0.4374 0.78845 0.0
H428 H 0.89311 0.51224 0.76407 0.0
H429 H 0.92164 0.44934 0.8138 0.0
H430 H 0.89923 0.42408 0.79698 0.0
H431 H 0.93361 0.44456 0.79124 0.0
H432 H 0.93753 0.54661 0.7659 0.0
H433 H 0.95888 0.54435 0.78402 0.0
H434 H 0.95852 0.53349 0.7596 0.0
H435 H 0.10094 0.53505 0.73444 0.0
H436 H 0.13177 0.51844 0.72917 0.0
H437 H 0.10444 0.49708 0.74387 0.0
H438 H 0.105 0.48809 0.71891 0.0
H439 H 0.03104 0.46119 0.73943 0.0
H440 H 0.06652 0.5442 0.73396 0.0
H441 H -0.00041 0.45586 0.78295 0.0
H442 H 0.97535 0.45062 0.76457 0.0
H443 H 0.99697 0.43733 0.76116 0.0
H444 H 0.05111 0.56894 0.75065 0.0
H445 H 0.01774 0.55113 0.75933 0.0
H446 H 0.04514 0.5585 0.77535 0.0
H447 H 0.02823 0.52056 0.88751 0.0
H448 H 0.94883 0.50751 0.85518 0.0
H449 H 0.93308 0.50068 0.82213 0.0
H450 H 0.96774 0.49388 0.76093 0.0
H451 H 0.05055 0.51667 0.79288 0.0
H452 H 0.0665 0.52425 0.8258 0.0
H453 H 0.79492 0.45115 0.7926 0.0
H454 H 0.8224 0.48361 0.78925 0.0
H455 H 0.8048 0.46301 0.76843 0.0
C456 C 0.43626 0.86993 0.92139 0.0
C457 C 0.44318 0.86231 0.94088 0.0
C458 C 0.47365 0.90688 0.95355 0.0
C459 C 0.45438 0.9136 0.95811 0.0
C460 C 0.46152 0.93973 0.96213 0.0
C461 C 0.48844 0.95948 0.96166 0.0
C462 C 0.50799 0.95265 0.95789 0.0
C463 C 0.50031 0.92633 0.95405 0.0
C464 C 0.44021 0.94635 0.96634 0.0
C465 C 0.53688 0.97325 0.95736 0.0
C466 C 0.48354 0.01899 0.84433 0.0
C467 C 0.504 0.04308 0.85615 0.0
C468 C 0.49505 0.04722 0.89001 0.0
C469 C 0.51985 0.05387 0.89822 0.0
C470 C 0.52234 0.04896 0.91771 0.0
C471 C 0.49963 0.03754 0.92922 0.0
C472 C 0.47514 0.03314 0.92144 0.0
C473 C 0.47322 0.03823 0.90189 0.0
C474 C 0.54891 0.05457 0.9257 0.0
C475 C 0.45068 0.02157 0.93344 0.0
C476 C 0.54574 0.16095 0.02636 0.0
C477 C 0.56491 0.15562 0.01903 0.0
C478 C 0.55985 0.12978 0.01717 0.0
C479 C 0.53489 0.10886 0.02231 0.0
C480 C 0.5157 0.11423 0.02994 0.0
C481 C 0.52156 0.14029 0.03212 0.0
C482 C 0.58121 0.12486 0.00975 0.0
C483 C 0.48892 0.09244 0.03567 0.0
C484 C 0.53892 0.94869 0.09269 0.0
C485 C 0.52029 0.95955 0.09589 0.0
C486 C 0.53274 0.00233 0.08396 0.0
C487 C 0.55547 0.02132 0.07516 0.0
C488 C 0.55365 0.03565 0.05979 0.0
C489 C 0.52848 0.03123 0.05358 0.0
C490 C 0.50563 0.01351 0.06357 0.0
C491 C 0.50799 0.99902 0.07856 0.0
C492 C 0.57843 0.05458 0.04961 0.0
C493 C 0.47862 0.00909 0.05786 0.0
C494 C 0.49582 0.98739 0.96376 0.0
C495 C 0.49469 -8e-05 0.94715 0.0
C496 C 0.50049 0.02594 0.9479 0.0
C497 C 0.50734 0.03994 0.96582 0.0
C498 C 0.5125 0.06587 0.96726 0.0
C499 C 0.51929 0.07942 0.98504 0.0
C500 C 0.5216 0.06767 0.00197 0.0
C501 C 0.52901 0.08139 0.02006 0.0
C502 C 0.53101 0.06903 0.03658 0.0
C503 C 0.52579 0.04321 0.03561 0.0
C504 C 0.51838 0.02917 0.01769 0.0
C505 C 0.51307 0.00314 0.01621 0.0
C506 C 0.50544 0.98934 0.99861 0.0
C507 C 0.50337 0.0012 0.98172 0.0
C508 C 0.509 0.02754 0.98278 0.0
C509 C 0.51632 0.04147 0.00083 0.0
C510 C 0.55451 0.22417 0.01412 0.0
C511 C 0.56659 0.20665 0.01705 0.0
O512 O 0.46741 0.88214 0.94815 0.0
O513 O 0.53496 0.98665 0.09706 0.0
O514 O 0.54985 0.18568 0.02815 0.0
O515 O 0.49138 0.0487 0.87072 0.0
H516 H 0.42753 0.85852 0.95142 0.0
H517 H 0.43383 0.88732 0.92316 0.0
H518 H 0.45215 0.87455 0.9109 0.0
H519 H 0.41731 0.85365 0.91527 0.0
H520 H 0.43371 0.89867 0.95826 0.0
H521 H 0.51506 0.92092 0.95073 0.0
H522 H 0.43899 0.95818 0.95446 0.0
H523 H 0.42047 0.92859 0.96774 0.0
H524 H 0.44528 0.95837 0.97993 0.0
H525 H 0.5497 0.96469 0.95451 0.0
H526 H 0.53985 0.98737 0.94588 0.0
H527 H 0.54325 0.98441 0.97136 0.0
H528 H 0.51819 0.03744 0.86218 0.0
H529 H 0.49297 0.01522 0.83179 0.0
H530 H 0.4752 0.00154 0.85358 0.0
H531 H 0.46692 0.02149 0.83903 0.0
H532 H 0.53716 0.06228 0.88933 0.0
H533 H 0.4543 0.03384 0.89554 0.0
H534 H 0.55354 0.06582 0.93963 0.0
H535 H 0.54826 0.0358 0.92865 0.0
H536 H 0.5651 0.06577 0.91554 0.0
H537 H 0.43421 0.02281 0.92624 0.0
H538 H 0.44403 0.00066 0.93594 0.0
H539 H 0.45518 0.03181 0.9478 0.0
H540 H 0.56797 0.19943 0.00236 0.0
H541 H 0.58395 0.17155 0.01499 0.0
H542 H 0.50702 0.14464 0.03794 0.0
H543 H 0.57521 0.11516 0.99521 0.0
H544 H 0.60048 0.14326 0.0086 0.0
H545 H 0.5839 0.11151 0.01947 0.0
H546 H 0.47531 0.09974 0.03954 0.0
H547 H 0.4797 0.07768 0.02365 0.0
H548 H 0.49133 0.08241 0.04834 0.0
H549 H 0.5064 0.95283 0.08307 0.0
H550 H 0.52754 0.92694 0.09189 0.0
H551 H 0.54922 0.95581 0.07883 0.0
H552 H 0.55408 0.9552 0.10458 0.0
H553 H 0.5745 0.02388 0.07968 0.0
H554 H 0.49052 0.98472 0.08586 0.0
H555 H 0.57667 0.04869 0.03408 0.0
H556 H 0.58088 0.07449 0.05036 0.0
H557 H 0.59644 0.05549 0.05604 0.0
H558 H 0.46371 0.99809 0.06892 0.0
H559 H 0.47947 0.0281 0.05566 0.0
H560 H 0.47194 0.99773 0.04396 0.0
H561 H 0.48919 0.98921 0.93336 0.0
H562 H 0.5112 0.07587 0.95465 0.0
H563 H 0.52287 0.09928 0.98532 0.0
H564 H 0.53674 0.07967 0.05039 0.0
H565 H 0.51462 0.99304 0.02865 0.0
H566 H 0.50139 0.96931 0.99837 0.0
H567 H 0.56751 0.24109 0.00513 0.0
H568 H 0.53492 0.21284 0.00656 0.0
H569 H 0.55171 0.2316 0.02825 0.0
C570 C 0.57392 0.454 0.07553 0.0
C571 C 0.58906 0.46163 0.09509 0.0
C572 C 0.57794 0.4944 0.10709 0.0
C573 C 0.55147 0.47663 0.11141 0.0
C574 C 0.53418 0.48557 0.1167 0.0
C575 C 0.54354 0.51279 0.11781 0.0
C576 C 0.57032 0.53073 0.11405 0.0
C577 C 0.5872 0.52126 0.10881 0.0
C578 C 0.50576 0.46592 0.12082 0.0
C579 C 0.58094 0.55988 0.11525 0.0
C580 C 0.42381 0.49673 0.02167 0.0
C581 C 0.44431 0.52595 0.02371 0.0
C582 C 0.4525 0.53614 0.05777 0.0
C583 C 0.47732 0.55719 0.06315 0.0
C584 C 0.49023 0.55675 0.08033 0.0
C585 C 0.47799 0.5346 0.09217 0.0
C586 C 0.45261 0.51345 0.08684 0.0
C587 C 0.43996 0.5147 0.0698 0.0
C588 C 0.51714 0.57973 0.08565 0.0
C589 C 0.43913 0.4893 0.09888 0.0
C590 C 0.4101 0.5707 0.19618 0.0
C591 C 0.43523 0.59025 0.19058 0.0
C592 C 0.45566 0.58463 0.18789 0.0
C593 C 0.45058 0.55874 0.19031 0.0
C594 C 0.42546 0.5392 0.19648 0.0
C595 C 0.40568 0.54561 0.19967 0.0
C596 C 0.48255 0.60628 0.18223 0.0
C597 C 0.41932 0.51142 0.19936 0.0
C598 C 0.59626 0.52171 0.24901 0.0
C599 C 0.56791 0.50665 0.25619 0.0
C600 C 0.54398 0.52803 0.24566 0.0
C601 C 0.55255 0.55355 0.23987 0.0
C602 C 0.53932 0.55839 0.22478 0.0
C603 C 0.51672 0.53714 0.21568 0.0
C604 C 0.50704 0.51145 0.22236 0.0
C605 C 0.52087 0.50717 0.23728 0.0
C606 C 0.54997 0.58602 0.21812 0.0
C607 C 0.48251 0.48845 0.21341 0.0
C608 C 0.52497 0.52235 0.12213 0.0
C609 C 0.51108 0.52512 0.10658 0.0
C610 C 0.49235 0.53288 0.10949 0.0
C611 C 0.48722 0.53808 0.12849 0.0
C612 C 0.46831 0.54566 0.132 0.0
C613 C 0.46289 0.55 0.15079 0.0
C614 C 0.4766 0.54753 0.1668 0.0
C615 C 0.47125 0.55191 0.18598 0.0
C616 C 0.48502 0.54892 0.20154 0.0
C617 C 0.50398 0.54149 0.19852 0.0
C618 C 0.5098 0.53727 0.17946 0.0
C619 C 0.52893 0.52996 0.17593 0.0
C620 C 0.53401 0.52516 0.15717 0.0
C621 C 0.52029 0.52764 0.14121 0.0
C622 C 0.50124 0.53542 0.14441 0.0
C623 C 0.49597 0.54021 0.16356 0.0
C624 C 0.35546 0.57949 0.18266 0.0
C625 C 0.38519 0.5919 0.18683 0.0
O626 O 0.59506 0.48664 0.10097 0.0
O627 O 0.55855 0.52387 0.25906 0.0
O628 O 0.38971 0.57533 0.19819 0.0
O629 O 0.44081 0.53635 0.04078 0.0
H630 H 0.57683 0.44739 0.10615 0.0
H631 H 0.55472 0.45343 0.07669 0.0
H632 H 0.58566 0.46835 0.06439 0.0
H633 H 0.56972 0.43422 0.07063 0.0
H634 H 0.54399 0.45577 0.1105 0.0
H635 H 0.60767 0.53484 0.10562 0.0
H636 H 0.49245 0.46795 0.11023 0.0
H637 H 0.50175 0.44542 0.12 0.0
H638 H 0.5008 0.46987 0.13547 0.0
H639 H 0.60243 0.57129 0.11236 0.0
H640 H 0.57011 0.56522 0.10461 0.0
H641 H 0.57757 0.56555 0.12987 0.0
H642 H 0.46444 0.52814 0.02389 0.0
H643 H 0.42561 0.48862 0.00752 0.0
H644 H 0.42714 0.48576 0.03322 0.0
H645 H 0.40345 0.49356 0.02273 0.0
H646 H 0.48667 0.57374 0.05373 0.0
H647 H 0.42051 0.49872 0.06558 0.0
H648 H 0.51761 0.58611 0.10092 0.0
H649 H 0.53228 0.57369 0.08437 0.0
H650 H 0.52258 0.59661 0.07616 0.0
H651 H 0.42039 0.47378 0.09192 0.0
H652 H 0.45252 0.48127 0.10134 0.0
H653 H 0.4346 0.49453 0.11324 0.0
H654 H 0.39446 0.59392 0.1725 0.0
H655 H 0.43897 0.60993 0.1884 0.0
H656 H 0.3863 0.53077 0.20422 0.0
H657 H 0.48586 0.60331 0.16686 0.0
H658 H 0.48447 0.62591 0.18395 0.0
H659 H 0.49834 0.60587 0.19113 0.0
H660 H 0.39808 0.498 0.20223 0.0
H661 H 0.42473 0.50399 0.18637 0.0
H662 H 0.43131 0.51099 0.21182 0.0
H663 H 0.55582 0.49158 0.2448 0.0
H664 H 0.60416 0.50823 0.24675 0.0
H665 H 0.59653 0.53078 0.235 0.0
H666 H 0.60937 0.53748 0.25959 0.0
H667 H 0.57025 0.56953 0.24668 0.0
H668 H 0.51381 0.48752 0.24232 0.0
H669 H 0.55502 0.58713 0.20261 0.0
H670 H 0.53452 0.59165 0.21942 0.0
H671 H 0.56786 0.60037 0.22663 0.0
H672 H 0.47598 0.47027 0.22161 0.0
H673 H 0.4661 0.49283 0.21273 0.0
H674 H 0.48651 0.48488 0.19836 0.0
H675 H 0.51466 0.52082 0.09198 0.0
H676 H 0.45729 0.54805 0.12025 0.0
H677 H 0.44781 0.55536 0.15259 0.0
H678 H 0.48062 0.55201 0.21621 0.0
H679 H 0.54013 0.52775 0.18764 0.0
H680 H 0.54882 0.51942 0.15533 0.0
H681 H 0.35139 0.5925 0.17354 0.0
H682 H 0.34802 0.56048 0.1747 0.0
H683 H 0.3445 0.57584 0.19631 0.0
Mg684 Mg 0.62526 0.39553 0.38155 0.0
O685 O 0.61728 0.41048 0.41 0.0
O686 O 0.63908 0.45419 0.4094 0.0
Mg687 Mg 0.65873 0.46684 0.38001 0.0
C688 C 0.62416 0.4328 0.41786 0.0
C689 C 0.59295 0.34024 0.40319 0.0
O690 O 0.57387 0.34564 0.40547 0.0
O691 O 0.66767 0.40959 0.39092 0.0
O692 O 0.68843 0.45278 0.38694 0.0
O693 O 0.58922 0.3932 0.36766 0.0
O694 O 0.62919 0.42806 0.36763 0.0
C695 C 0.68877 0.43186 0.39094 0.0
C696 C 0.60444 0.41735 0.36298 0.0
O697 O 0.61367 0.35614 0.39446 0.0
Mg698 Mg 0.23861 0.62386 0.58676 0.0
O699 O 0.21422 0.60713 0.55873 0.0
O700 O 0.19262 0.56347 0.55994 0.0
Mg701 Mg 0.20329 0.55256 0.58915 0.0
C702 C 0.19843 0.58455 0.55124 0.0
C703 C 0.26902 0.68392 0.58377 0.0
O704 O 0.26036 0.68103 0.60151 0.0
O705 O 0.26807 0.61217 0.5769 0.0
O706 O 0.24712 0.56898 0.58112 0.0
O707 O 0.20483 0.6242 0.60115 0.0
O708 O 0.21221 0.59095 0.60151 0.0
C709 C 0.26775 0.5904 0.5768 0.0
C710 C 0.19757 0.60061 0.60641 0.0
O711 O 0.26259 0.66363 0.5733 0.0
Mg712 Mg 0.62759 0.24852 0.76028 0.0
O713 O 0.62044 0.22518 0.73213 0.0
O714 O 0.63939 0.20053 0.73473 0.0
Mg715 Mg 0.65633 0.20664 0.76593 0.0
C716 C 0.62634 0.20874 0.72498 0.0
C717 C 0.60259 0.28309 0.75269 0.0
O718 O 0.59234 0.27331 0.76942 0.0
O719 O 0.67044 0.27384 0.75343 0.0
O720 O 0.68898 0.24959 0.76012 0.0
O721 O 0.58969 0.21801 0.77134 0.0
O722 O 0.62763 0.2185 0.77568 0.0
C723 C 0.69071 0.27118 0.75515 0.0
C724 C 0.60235 0.20679 0.77792 0.0
O725 O 0.61787 0.27634 0.74486 0.0
Mg726 Mg 0.40706 0.64086 0.87476 0.0
O727 O 0.41219 0.61727 0.89903 0.0
O728 O 0.39721 0.5767 0.887 0.0
Mg729 Mg 0.3813 0.57392 0.85617 0.0
C730 C 0.40765 0.59383 0.90074 0.0
C731 C 0.43235 0.69686 0.89022 0.0
O732 O 0.44395 0.69874 0.87372 0.0
O733 O 0.36316 0.62104 0.88006 0.0
O734 O 0.34813 0.58049 0.86803 0.0
O735 O 0.44636 0.65116 0.86355 0.0
O736 O 0.40895 0.61617 0.85379 0.0
C737 C 0.34428 0.59789 0.87616 0.0
C738 C 0.43439 0.62974 0.85313 0.0
O739 O 0.4154 0.67428 0.89584 0.0
Mg740 Mg 0.77611 0.41014 0.05827 0.0
O741 O 0.79498 0.41202 0.08784 0.0
O742 O 0.81692 0.39013 0.08574 0.0
Mg743 Mg 0.8129 0.37545 0.05416 0.0
C744 C 0.80924 0.40358 0.09548 0.0
C745 C 0.74293 0.43708 0.06188 0.0
O746 O 0.75335 0.44447 0.04481 0.0
O747 O 0.74568 0.36768 0.06209 0.0
O748 O 0.76783 0.34649 0.0568 0.0
O749 O 0.81166 0.44686 0.05019 0.0
O750 O 0.80621 0.4074 0.04464 0.0
C751 C 0.74633 0.3465 0.06009 0.0
C752 C 0.82109 0.43248 0.04382 0.0
O753 O 0.74894 0.42278 0.07181 0.0
Mg754 Mg 0.39411 0.80197 0.21988 0.0
O755 O 0.40999 0.82339 0.24922 0.0
O756 O 0.45403 0.84187 0.24889 0.0
Mg757 Mg 0.46629 0.83507 0.21897 0.0
C758 C 0.43282 0.83684 0.25745 0.0
C759 C 0.34096 0.75359 0.2235 0.0
O760 O 0.3529 0.74827 0.20969 0.0
O761 O 0.40481 0.77131 0.22808 0.0
O762 O 0.44837 0.79081 0.22393 0.0
O763 O 0.39534 0.8372 0.2071 0.0
O764 O 0.42845 0.82923 0.2069 0.0
C765 C 0.42623 0.77056 0.22752 0.0
C766 C 0.41949 0.84455 0.20259 0.0
O767 O 0.35278 0.77631 0.23148 0.0
H768 H 0.2108 0.60753 0.2618 0.0
H769 H 0.17478 0.65461 0.25021 0.0
H770 H 0.25416 0.64466 0.25493 0.0
H771 H 0.2183 0.69189 0.24334 0.0
H772 H 0.30703 0.75843 0.24817 0.0
H773 H 0.26404 0.72341 0.25877 0.0
H774 H 0.27337 0.66723 0.22405 0.0
H775 H 0.31592 0.70183 0.21351 0.0
C776 C 0.21226 0.626 0.25816 0.0
C777 C 0.18947 0.62828 0.25688 0.0
C778 C 0.23702 0.64717 0.25409 0.0
C779 C 0.23957 0.67113 0.24856 0.0
C780 C 0.21693 0.67374 0.24779 0.0
C781 C 0.19206 0.65243 0.25173 0.0
C782 C 0.29984 0.73859 0.24283 0.0
C783 C 0.31487 0.73291 0.22999 0.0
C784 C 0.27525 0.71861 0.24885 0.0
C785 C 0.26549 0.69259 0.24234 0.0
C786 C 0.28056 0.68702 0.22953 0.0
C787 C 0.30488 0.70692 0.22338 0.0
H788 H 0.5744 0.21734 0.4796 0.0
H789 H 0.61598 0.20961 0.43116 0.0
H790 H 0.56971 0.25094 0.46275 0.0
H791 H 0.61042 0.24234 0.41396 0.0
H792 H 0.63084 0.32624 0.40292 0.0
H793 H 0.62965 0.28852 0.41725 0.0
H794 H 0.55005 0.26178 0.43596 0.0
H795 H 0.55152 0.30032 0.42195 0.0
C796 C 0.5819 0.22237 0.46513 0.0
C797 C 0.59525 0.21064 0.45661 0.0
C798 C 0.57914 0.24153 0.45543 0.0
C799 C 0.58979 0.24945 0.43702 0.0
C800 C 0.60232 0.237 0.42825 0.0
C801 C 0.60526 0.21802 0.438 0.0
C802 C 0.61296 0.3123 0.40998 0.0
C803 C 0.59126 0.31637 0.41131 0.0
C804 C 0.61221 0.29047 0.41808 0.0
C805 C 0.58968 0.27195 0.42765 0.0
C806 C 0.5678 0.27579 0.42882 0.0
C807 C 0.56859 0.2978 0.42073 0.0
H808 H 0.40469 0.59731 0.62204 0.0
H809 H 0.43397 0.63282 0.56707 0.0
H810 H 0.35969 0.58411 0.61123 0.0
H811 H 0.38875 0.6196 0.55615 0.0
H812 H 0.27916 0.55178 0.58508 0.0
H813 H 0.32299 0.5563 0.58778 0.0
H814 H 0.35776 0.63475 0.56635 0.0
H815 H 0.31409 0.63026 0.56348 0.0
C816 C 0.40139 0.60185 0.6075 0.0
C817 C 0.42278 0.61613 0.59541 0.0
C818 C 0.37561 0.59415 0.60125 0.0
C819 C 0.37067 0.6008 0.58282 0.0
C820 C 0.39198 0.61432 0.57045 0.0
C821 C 0.41779 0.62182 0.57666 0.0
C822 C 0.29606 0.56975 0.58046 0.0
C823 C 0.29314 0.59082 0.57435 0.0
C824 C 0.32118 0.57237 0.58213 0.0
C825 C 0.34384 0.596 0.57754 0.0
C826 C 0.3407 0.61625 0.56993 0.0
C827 C 0.31563 0.61372 0.56839 0.0
H828 H 0.81737 0.43309 0.746 0.0
H829 H 0.81234 0.40838 0.80494 0.0
H830 H 0.78909 0.38743 0.73511 0.0
H831 H 0.78392 0.36296 0.79424 0.0
H832 H 0.73806 0.28151 0.77176 0.0
H833 H 0.77806 0.3245 0.77552 0.0
H834 H 0.74194 0.35781 0.73945 0.0
H835 H 0.7024 0.3151 0.73552 0.0
C836 C 0.81064 0.41781 0.75654 0.0
C837 C 0.81703 0.42421 0.7763 0.0
C838 C 0.79442 0.39173 0.75035 0.0
C839 C 0.78422 0.37155 0.76381 0.0
C840 C 0.79176 0.37792 0.78344 0.0
C841 C 0.80787 0.40397 0.78962 0.0
C842 C 0.73904 0.29787 0.76415 0.0
C843 C 0.71694 0.29503 0.75361 0.0
C844 C 0.76185 0.32252 0.76642 0.0
C845 C 0.76302 0.34465 0.75803 0.0
C846 C 0.74181 0.34122 0.74605 0.0
C847 C 0.71902 0.31672 0.7439 0.0
H848 H 0.40239 0.81195 0.94243 0.0
H849 H 0.48588 0.8566 0.93125 0.0
H850 H 0.40191 0.77175 0.93292 0.0
H851 H 0.48579 0.81639 0.92263 0.0
H852 H 0.46524 0.74741 0.88051 0.0
H853 H 0.46971 0.78678 0.8957 0.0
H854 H 0.41539 0.74034 0.9397 0.0
H855 H 0.41022 0.7006 0.92401 0.0
C856 C 0.42079 0.81302 0.9385 0.0
C857 C 0.4442 0.83737 0.93788 0.0
C858 C 0.42058 0.79 0.93312 0.0
C859 C 0.44382 0.79079 0.92697 0.0
C860 C 0.46746 0.81508 0.92704 0.0
C861 C 0.4676 0.83813 0.93221 0.0
C862 C 0.45441 0.74555 0.89353 0.0
C863 C 0.43716 0.72083 0.90093 0.0
C864 C 0.45716 0.76822 0.90236 0.0
C865 C 0.44285 0.76679 0.91892 0.0
C866 C 0.42639 0.74211 0.9268 0.0
C867 C 0.42354 0.71935 0.91788 0.0
H868 H 0.63708 0.4994 0.08144 0.0
H869 H 0.59728 0.42097 0.10313 0.0
H870 H 0.67633 0.49591 0.07556 0.0
H871 H 0.63616 0.41708 0.09673 0.0
H872 H 0.72387 0.46482 0.0431 0.0
H873 H 0.68852 0.47256 0.05299 0.0
H874 H 0.68178 0.43242 0.10619 0.0
H875 H 0.71679 0.42408 0.09606 0.0
C876 C 0.6369 0.48157 0.08522 0.0
C877 C 0.61432 0.46063 0.09312 0.0
C878 C 0.65926 0.47945 0.08167 0.0
C879 C 0.65941 0.45622 0.08568 0.0
C880 C 0.63692 0.43543 0.09381 0.0
C881 C 0.61461 0.43759 0.09743 0.0
C882 C 0.71501 0.4578 0.05698 0.0
C883 C 0.72302 0.44366 0.06873 0.0
C884 C 0.69483 0.46241 0.06272 0.0
C885 C 0.68224 0.45305 0.08037 0.0
C886 C 0.69081 0.43957 0.09238 0.0
C887 C 0.71097 0.43491 0.08662 0.0
H888 H 0.41319 0.81082 0.54203 0.0
H889 H 0.37478 0.85086 0.56595 0.0
H890 H 0.37397 0.76872 0.54801 0.0
H891 H 0.33525 0.80881 0.57148 0.0
H892 H 0.28853 0.73081 0.60327 0.0
H893 H 0.32352 0.77343 0.59346 0.0
H894 H 0.32775 0.73941 0.53876 0.0
H895 H 0.29306 0.69654 0.54876 0.0
C896 C 0.3961 0.81057 0.54816 0.0
C897 C 0.39689 0.83409 0.55323 0.0
C898 C 0.3736 0.78649 0.55152 0.0
C899 C 0.35144 0.7854 0.56018 0.0
C900 C 0.35206 0.80896 0.56493 0.0
C901 C 0.37459 0.83304 0.56161 0.0
C902 C 0.29671 0.73243 0.58907 0.0
C903 C 0.28816 0.71023 0.57688 0.0
C904 C 0.31668 0.75693 0.58339 0.0
C905 C 0.32854 0.75981 0.56536 0.0
C906 C 0.3193 0.73777 0.55286 0.0
C907 C 0.29931 0.71323 0.55855 0.0
H908 H 0.629 0.42536 0.70032 0.0
H909 H 0.54756 0.38956 0.71721 0.0
H910 H 0.63082 0.38709 0.71106 0.0
H911 H 0.54899 0.35086 0.72734 0.0
H912 H 0.57416 0.30459 0.76693 0.0
H913 H 0.56916 0.3397 0.75328 0.0
H914 H 0.61477 0.34124 0.70415 0.0
H915 H 0.62036 0.30657 0.71806 0.0
C916 C 0.61133 0.40901 0.70592 0.0
C917 C 0.58802 0.41021 0.70756 0.0
C918 C 0.61231 0.38706 0.71201 0.0
C919 C 0.59 0.36586 0.71999 0.0
C920 C 0.56658 0.36695 0.72142 0.0
C921 C 0.56566 0.38897 0.71542 0.0
C922 C 0.58298 0.3123 0.75316 0.0
C923 C 0.59783 0.30295 0.74367 0.0
C924 C 0.57997 0.33232 0.74526 0.0
C925 C 0.59166 0.34335 0.72765 0.0
C926 C 0.60587 0.33345 0.71789 0.0
C927 C 0.60895 0.31348 0.72582 0.0
H928 H 0.20048 0.5956 0.91254 0.0
H929 H 0.17346 0.52569 0.87683 0.0
H930 H 0.24609 0.60557 0.90925 0.0
H931 H 0.21892 0.53638 0.87247 0.0
H932 H 0.30128 0.5493 0.88065 0.0
H933 H 0.25608 0.53839 0.88717 0.0
H934 H 0.28018 0.62068 0.88715 0.0
H935 H 0.32551 0.63152 0.88167 0.0
C936 C 0.20438 0.58259 0.90376 0.0
C937 C 0.18342 0.56025 0.89459 0.0
C938 C 0.23051 0.58834 0.90176 0.0
C939 C 0.23636 0.57195 0.89041 0.0
C940 C 0.21528 0.54935 0.8815 0.0
C941 C 0.18914 0.54338 0.88377 0.0
C942 C 0.29689 0.56503 0.88215 0.0
C943 C 0.31695 0.59125 0.88062 0.0
C944 C 0.27092 0.55879 0.88576 0.0
C945 C 0.26428 0.57861 0.88758 0.0
C946 C 0.2845 0.60487 0.88619 0.0
C947 C 0.31053 0.61111 0.88292 0.0
H948 H 0.61468 0.22536 0.00035 0.0
H949 H 0.57954 0.22354 0.05517 0.0
H950 H 0.65849 0.25482 0.01451 0.0
H951 H 0.62354 0.25301 0.06951 0.0
H952 H 0.69833 0.3378 0.07209 0.0
H953 H 0.65525 0.29972 0.06467 0.0
H954 H 0.69302 0.26036 0.03845 0.0
H955 H 0.73635 0.29871 0.0457 0.0
C956 C 0.61644 0.23087 0.01555 0.0
C957 C 0.59377 0.22217 0.02667 0.0
C958 C 0.64153 0.2476 0.02372 0.0
C959 C 0.64449 0.25624 0.04315 0.0
C960 C 0.62186 0.24681 0.05447 0.0
C961 C 0.59674 0.22991 0.04631 0.0
C962 C 0.69753 0.32085 0.06509 0.0
C963 C 0.7208 0.32148 0.05922 0.0
C964 C 0.67279 0.29892 0.06095 0.0
C965 C 0.67071 0.27715 0.05076 0.0
C966 C 0.69401 0.27702 0.04608 0.0
C967 C 0.71883 0.29893 0.05035 0.0
H968 H 0.41749 0.64003 0.17189 0.0
H969 H 0.37676 0.6035 0.22393 0.0
H970 H 0.43129 0.68305 0.18633 0.0
H971 H 0.3905 0.64676 0.23848 0.0
H972 H 0.3836 0.72366 0.23694 0.0
H973 H 0.37755 0.68027 0.23072 0.0
H974 H 0.45852 0.71498 0.21287 0.0
H975 H 0.46467 0.75855 0.21896 0.0
C976 C 0.41187 0.64127 0.18655 0.0
C977 C 0.396 0.61847 0.19677 0.0
C978 C 0.41992 0.6659 0.19489 0.0
C979 C 0.41201 0.66827 0.21356 0.0
C980 C 0.39679 0.64549 0.22404 0.0
C981 C 0.38897 0.62081 0.21575 0.0
C982 C 0.40035 0.72211 0.23214 0.0
C983 C 0.4245 0.74464 0.22814 0.0
C984 C 0.39689 0.69718 0.22867 0.0
C985 C 0.41745 0.69426 0.22104 0.0
C986 C 0.44221 0.7167 0.21848 0.0
C987 C 0.44575 0.74165 0.22208 0.0
H988 H 0.81983 0.43475 0.342 0.0
H989 H 0.8168 0.39521 0.3947 0.0
H990 H 0.78773 0.44569 0.3546 0.0
H991 H 0.78456 0.40624 0.40747 0.0
H992 H 0.73813 0.47261 0.38332 0.0
H993 H 0.77844 0.4704 0.37945 0.0
H994 H 0.73779 0.39047 0.39824 0.0
H995 H 0.69766 0.39268 0.40234 0.0
C996 C 0.81267 0.42887 0.35646 0.0
C997 C 0.82074 0.41409 0.36736 0.0
C998 C 0.79441 0.43528 0.36375 0.0
C999 C 0.7836 0.42684 0.38205 0.0
C1000 C 0.79243 0.41289 0.39328 0.0
C1001 C 0.81089 0.40664 0.38602 0.0
C1002 C 0.73795 0.45479 0.38713 0.0
C1003 C 0.7145 0.43267 0.39283 0.0
C1004 C 0.76103 0.45349 0.38478 0.0
C1005 C 0.76117 0.43014 0.38824 0.0
C1006 C 0.73838 0.40879 0.39551 0.0
C1007 C 0.71529 0.41002 0.39776 0.0
H1008 H 0.08748 0.57804 0.46511 0.0
H1009 H 0.15582 0.59525 0.43148 0.0
H1010 H 0.10958 0.57358 0.49388 0.0
H1011 H 0.17815 0.59143 0.46048 0.0
H1012 H 0.21642 0.62102 0.52317 0.0
H1013 H 0.19399 0.61986 0.49273 0.0
H1014 H 0.12881 0.54382 0.50611 0.0
H1015 H 0.15143 0.54468 0.53649 0.0
C1016 C 0.10702 0.58044 0.46376 0.0
C1017 C 0.11978 0.58659 0.44591 0.0
C1018 C 0.11964 0.57789 0.48025 0.0
C1019 C 0.14549 0.5821 0.47933 0.0
C1020 C 0.15821 0.58811 0.46154 0.0
C1021 C 0.14542 0.59018 0.44498 0.0
C1022 C 0.19742 0.60394 0.51954 0.0
C1023 C 0.18567 0.58295 0.53223 0.0
C1024 C 0.18467 0.60324 0.5021 0.0
C1025 C 0.1597 0.58177 0.49714 0.0
C1026 C 0.14803 0.56063 0.50967 0.0
C1027 C 0.16103 0.56108 0.52697 0.0
H1028 H 0.60155 0.13755 0.5984 0.0
H1029 H 0.51938 0.14462 0.61384 0.0
H1030 H 0.62412 0.16188 0.6359 0.0
H1031 H 0.54376 0.1686 0.65074 0.0
H1032 H 0.59625 0.22013 0.70082 0.0
H1033 H 0.5796 0.20268 0.66845 0.0
H1034 H 0.61797 0.15637 0.67106 0.0
H1035 H 0.63522 0.17424 0.70361 0.0
C1036 C 0.59143 0.1443 0.6078 0.0
C1037 C 0.55591 0.1343 0.60371 0.0
C1038 C 0.6047 0.15831 0.63154 0.0
C1039 C 0.58592 0.16656 0.64793 0.0
C1040 C 0.55423 0.1629 0.64082 0.0
C1041 C 0.53931 0.14905 0.61748 0.0
C1042 C 0.60126 0.20627 0.69456 0.0
C1043 C 0.61701 0.19852 0.70493 0.0
C1044 C 0.59147 0.19606 0.676 0.0
C1045 C 0.59721 0.17791 0.66729 0.0
C1046 C 0.61338 0.17049 0.67737 0.0
C1047 C 0.62313 0.18063 0.69606 0.0
H1048 H 0.49892 0.54745 0.78786 0.0
H1049 H 0.54635 0.62872 0.77329 0.0
H1050 H 0.47237 0.55846 0.80886 0.0
H1051 H 0.51969 0.63976 0.79408 0.0
H1052 H 0.48793 0.65372 0.85007 0.0
H1053 H 0.51302 0.64121 0.82901 0.0
H1054 H 0.44033 0.5744 0.80742 0.0
H1055 H 0.41513 0.58679 0.82864 0.0
C1056 C 0.50341 0.56761 0.78898 0.0
C1057 C 0.52452 0.58721 0.77885 0.0
C1058 C 0.48821 0.5739 0.80095 0.0
C1059 C 0.49401 0.59998 0.80317 0.0
C1060 C 0.51496 0.61954 0.79286 0.0
C1061 C 0.53007 0.61322 0.78084 0.0
C1062 C 0.47727 0.63628 0.84091 0.0
C1063 C 0.44953 0.62123 0.84105 0.0
C1064 C 0.49165 0.62923 0.82875 0.0
C1065 C 0.47863 0.60694 0.81645 0.0
C1066 C 0.45092 0.59158 0.81684 0.0
C1067 C 0.43649 0.5987 0.82898 0.0
H1068 H 0.94348 0.45937 0.95137 0.0
H1069 H 0.97748 0.55 0.98396 0.0
H1070 H 0.90479 0.43688 0.98101 0.0
H1071 H 0.93856 0.52539 0.01326 0.0
H1072 H 0.85392 0.48411 0.03706 0.0
H1073 H 0.89359 0.50343 0.01821 0.0
H1074 H 0.88784 0.42774 0.01169 0.0
H1075 H 0.84724 0.40814 0.02986 0.0
C1076 C 0.94338 0.47133 0.96336 0.0
C1077 C 0.96137 0.50776 0.96269 0.0
C1078 C 0.91876 0.45767 0.98163 0.0
C1079 C 0.91639 0.4786 2e-05 0.0
C1080 C 0.93977 0.51347 0.00173 0.0
C1081 C 0.96501 0.52893 0.98408 0.0
C1082 C 0.86129 0.47161 0.03182 0.0
C1083 C 0.84727 0.44454 0.03483 0.0
C1084 C 0.88427 0.48277 0.02109 0.0
C1085 C 0.89393 0.46716 0.01328 0.0
C1086 C 0.88066 0.44028 0.0171 0.0
C1087 C 0.85749 0.42905 0.02771 0.0
H1088 H 0.46736 0.92462 0.09885 0.0
H1089 H 0.53854 0.97013 0.13378 0.0
H1090 H 0.44343 0.90271 0.12763 0.0
H1091 H 0.51456 0.94812 0.16273 0.0
H1092 H 0.47236 0.86843 0.19575 0.0
H1093 H 0.49663 0.9018 0.17231 0.0
H1094 H 0.42702 0.90755 0.15985 0.0
H1095 H 0.40253 0.8739 0.18345 0.0
C1096 C 0.47773 0.93029 0.11277 0.0
C1097 C 0.50484 0.9489 0.11409 0.0
C1098 C 0.464 0.91788 0.12927 0.0
C1099 C 0.47715 0.92366 0.14743 0.0
C1100 C 0.50398 0.94317 0.14889 0.0
C1101 C 0.51767 0.95576 0.13238 0.0
C1102 C 0.46233 0.87717 0.18839 0.0
C1103 C 0.43542 0.86828 0.19133 0.0
C1104 C 0.47633 0.89646 0.175 0.0
C1105 C 0.46366 0.90714 0.16413 0.0
C1106 C 0.4372 0.89945 0.16791 0.0
C1107 C 0.42324 0.8803 0.18149 0.0
H1108 H 0.58395 0.52833 0.29293 0.0
H1109 H 0.55104 0.45474 0.26102 0.0
H1110 H 0.58792 0.50721 0.32197 0.0
H1111 H 0.55528 0.43371 0.28983 0.0
H1112 H 0.63128 0.46869 0.35313 0.0
H1113 H 0.61755 0.4903 0.32998 0.0
H1114 H 0.54115 0.42011 0.3232 0.0
H1115 H 0.55503 0.39824 0.34646 0.0
C1116 C 0.5771 0.50754 0.29226 0.0
C1117 C 0.56708 0.49313 0.27477 0.0
C1118 C 0.57948 0.49548 0.30882 0.0
C1119 C 0.57194 0.4688 0.30819 0.0
C1120 C 0.56087 0.45419 0.2909 0.0
C1121 C 0.55859 0.46625 0.27435 0.0
C1122 C 0.61135 0.45797 0.34708 0.0
C1123 C 0.59435 0.43164 0.35153 0.0
C1124 C 0.6034 0.47045 0.33384 0.0
C1125 C 0.57832 0.45686 0.32465 0.0
C1126 C 0.56072 0.43098 0.3299 0.0
C1127 C 0.56863 0.41851 0.34328 0.0
H1128 H 0.42076 0.91963 0.35838 0.0
H1129 H 0.47266 0.89167 0.37773 0.0
H1130 H 0.41656 0.89918 0.32647 0.0
H1131 H 0.4683 0.87102 0.34596 0.0
H1132 H 0.47735 0.86375 0.28056 0.0
H1133 H 0.48127 0.88369 0.31244 0.0
H1134 H 0.39717 0.85499 0.31126 0.0
H1135 H 0.39318 0.83523 0.27922 0.0
C1136 C 0.43135 0.90921 0.35574 0.0
C1137 C 0.44732 0.90753 0.37043 0.0
C1138 C 0.42878 0.89732 0.33756 0.0
C1139 C 0.44213 0.88351 0.33369 0.0
C1140 C 0.45806 0.88182 0.34841 0.0
C1141 C 0.46052 0.8936 0.3666 0.0
C1142 C 0.45964 0.86157 0.28708 0.0
C1143 C 0.43494 0.84789 0.27726 0.0
C1144 C 0.4619 0.87293 0.30541 0.0
C1145 C 0.43955 0.87098 0.31435 0.0
C1146 C 0.41481 0.85711 0.30464 0.0
C1147 C 0.41251 0.84563 0.28633 0.0
H1148 H 0.51467 0.41475 0.50742 0.0
H1149 H 0.59111 0.46577 0.53461 0.0
H1150 H 0.53624 0.41276 0.47789 0.0
H1151 H 0.61269 0.46383 0.50513 0.0
H1152 H 0.63782 0.47599 0.44108 0.0
H1153 H 0.61726 0.47821 0.47095 0.0
H1154 H 0.56473 0.3945 0.46736 0.0
H1155 H 0.58512 0.39217 0.43743 0.0
C1156 C 0.53607 0.4256 0.50702 0.0
C1157 C 0.55121 0.44048 0.52327 0.0
C1158 C 0.54842 0.42434 0.4902 0.0
C1159 C 0.57616 0.43806 0.48923 0.0
C1160 C 0.59128 0.45322 0.50539 0.0
C1161 C 0.57894 0.4543 0.52226 0.0
C1162 C 0.622 0.45801 0.4467 0.0
C1163 C 0.6131 0.43391 0.4368 0.0
C1164 C 0.61029 0.4593 0.46386 0.0
C1165 C 0.58927 0.43656 0.47142 0.0
C1166 C 0.58066 0.41241 0.46173 0.0
C1167 C 0.59251 0.41107 0.44466 0.0
H1168 H 0.12741 0.57062 0.71472 0.0
H1169 H 0.08251 0.49372 0.6877 0.0
H1170 H 0.14584 0.58892 0.68358 0.0
H1171 H 0.10081 0.51205 0.65637 0.0
H1172 H 0.1681 0.61875 0.62416 0.0
H1173 H 0.13713 0.59806 0.65023 0.0
H1174 H 0.14594 0.52985 0.64424 0.0
H1175 H 0.17659 0.5503 0.61826 0.0
C1176 C 0.12105 0.55775 0.70201 0.0
C1177 C 0.10358 0.53077 0.70361 0.0
C1178 C 0.13145 0.56824 0.68415 0.0
C1179 C 0.12479 0.55191 0.66752 0.0
C1180 C 0.10644 0.52507 0.66896 0.0
C1181 C 0.09591 0.5146 0.68684 0.0
C1182 C 0.16291 0.59908 0.62809 0.0
C1183 C 0.17503 0.58628 0.61928 0.0
C1184 C 0.1453 0.58731 0.64309 0.0
C1185 C 0.13933 0.56246 0.64942 0.0
C1186 C 0.14996 0.54893 0.63962 0.0
C1187 C 0.16767 0.56074 0.62475 0.0
H1188 H 0.48339 0.06512 0.83147 0.0
H1189 H 0.55761 0.07522 0.85352 0.0
H1190 H 0.50703 0.1028 0.81127 0.0
H1191 H 0.5815 0.11424 0.83437 0.0
H1192 H 0.61808 0.17091 0.78535 0.0
H1193 H 0.59417 0.13057 0.80324 0.0
H1194 H 0.5314 0.14788 0.81296 0.0
H1195 H 0.5545 0.18702 0.79424 0.0
C1196 C 0.5048 0.07536 0.83193 0.0
C1197 C 0.51864 0.06676 0.8437 0.0
C1198 C 0.51844 0.09727 0.82055 0.0
C1199 C 0.54629 0.11172 0.8211 0.0
C1200 C 0.5601 0.10335 0.83318 0.0
C1201 C 0.54642 0.0811 0.8443 0.0
C1202 C 0.59906 0.16588 0.79119 0.0
C1203 C 0.58807 0.182 0.78827 0.0
C1204 C 0.58542 0.14287 0.80159 0.0
C1205 C 0.56073 0.1358 0.80958 0.0
C1206 C 0.54997 0.15217 0.80667 0.0
C1207 C 0.56333 0.17479 0.796 0.0
H1208 H 0.41161 0.54695 0.01856 0.0
H1209 H 0.47013 0.53541 0.98963 0.0
H1210 H 0.40471 0.56573 0.98923 0.0
H1211 H 0.46309 0.55396 0.9603 0.0
H1212 H 0.41313 0.55123 0.90676 0.0
H1213 H 0.42396 0.53762 0.93695 0.0
H1214 H 0.429 0.60486 0.96678 0.0
H1215 H 0.41821 0.61873 0.9364 0.0
C1216 C 0.42339 0.54895 0.00608 0.0
C1217 C 0.44181 0.54019 0.00649 0.0
C1218 C 0.41943 0.55967 0.98931 0.0
C1219 C 0.43338 0.5613 0.97252 0.0
C1220 C 0.45199 0.55283 0.97301 0.0
C1221 C 0.45614 0.54239 0.98981 0.0
C1222 C 0.41658 0.5632 0.91971 0.0
C1223 C 0.41476 0.58607 0.91916 0.0
C1224 C 0.42297 0.55547 0.93698 0.0
C1225 C 0.42741 0.57024 0.95418 0.0
C1226 C 0.42557 0.59308 0.95372 0.0
C1227 C 0.41952 0.60105 0.93633 0.0
H1228 H 0.88115 0.42255 0.22163 0.0
H1229 H 0.87115 0.50302 0.20939 0.0
H1230 H 0.85567 0.40108 0.18424 0.0
H1231 H 0.84613 0.47983 0.17249 0.0
H1232 H 0.79608 0.43095 0.12085 0.0
H1233 H 0.81272 0.4454 0.15374 0.0
H1234 H 0.85991 0.40794 0.14962 0.0
H1235 H 0.84275 0.39283 0.11667 0.0
C1236 C 0.87363 0.43254 0.21285 0.0
C1237 C 0.88302 0.46733 0.21786 0.0
C1238 C 0.85887 0.41996 0.18916 0.0
C1239 C 0.84937 0.43859 0.17373 0.0
C1240 C 0.85248 0.46938 0.18183 0.0
C1241 C 0.86701 0.48355 0.20521 0.0
C1242 C 0.80989 0.42562 0.12693 0.0
C1243 C 0.81818 0.41084 0.116 0.0
C1244 C 0.81965 0.43415 0.14579 0.0
C1245 C 0.83792 0.42813 0.15421 0.0
C1246 C 0.84567 0.41272 0.14359 0.0
C1247 C 0.83592 0.40417 0.12465 0.0
loop_
_geom_bond_atom_site_label_1
_geom_bond_atom_site_label_2
_geom_bond_distance
_geom_bond_site_symmetry_2
_ccdc_geom_bond_type
C0 C1 1.560 . S
C0 H61 0.959 . S
C0 H62 0.959 . S
C0 H63 0.960 . S
C1 C0 1.560 . S
C1 O56 1.426 . S
C1 H60 0.980 . S
C2 C3 1.407 . S
C2 C7 1.418 . S
C2 O56 1.334 . S
C3 C2 1.407 . S
C3 C4 1.360 . S
C3 H64 0.929 . S
C4 C3 1.360 . S
C4 C5 1.401 . S
C4 C8 1.527 . S
C5 C4 1.401 . S
C5 C6 1.405 . S
C5 C38 1.587 . S
C6 C5 1.405 . S
C6 C7 1.332 . S
C6 C9 1.496 . S
C7 C2 1.418 . S
C7 C6 1.332 . S
C7 H65 0.929 . S
C8 C4 1.527 . S
C8 H66 0.959 . S
C8 H67 0.961 . S
C8 H68 0.961 . S
C9 C6 1.496 . S
C9 H69 0.960 . S
C9 H70 0.960 . S
C9 H71 0.961 . S
C10 C11 1.517 . S
C10 H73 0.961 . S
C10 H74 0.960 . S
C10 H75 0.959 . S
C11 C10 1.517 . S
C11 O59 1.468 . S
C11 H72 0.980 . S
C12 C13 1.349 . S
C12 C17 1.367 . S
C12 O59 1.408 . S
C13 C12 1.349 . S
C13 C14 1.407 . S
C13 H76 0.930 . S
C14 C13 1.407 . S
C14 C15 1.449 . S
C14 C18 1.535 . S
C15 C14 1.449 . S
C15 C16 1.384 . S
C15 C40 1.553 1_655 S
C16 C15 1.384 . S
C16 C17 1.364 . S
C16 C19 1.450 . S
C17 C12 1.367 . S
C17 C16 1.364 . S
C17 H77 0.931 . S
C18 C14 1.535 . S
C18 H78 0.959 1_655 S
C18 H79 0.961 . S
C18 H80 0.959 . S
C19 C16 1.450 . S
C19 H81 0.960 . S
C19 H82 0.960 1_655 S
C19 H83 0.960 . S
C20 C21 1.309 . S
C20 C25 1.304 . S
C20 O58 1.435 . S
C21 C20 1.309 . S
C21 C22 1.476 . S
C21 H85 0.930 . S
C22 C21 1.476 . S
C22 C23 1.400 . S
C22 C26 1.567 . S
C23 C22 1.400 . S
C23 C24 1.373 . S
C23 C45 1.432 . S
C24 C23 1.373 . S
C24 C25 1.339 . S
C24 C27 1.530 . S
C25 C20 1.304 . S
C25 C24 1.339 . S
C25 H86 0.930 . S
C26 C22 1.567 . S
C26 H87 0.961 . S
C26 H88 0.960 . S
C26 H89 0.958 . S
C27 C24 1.530 . S
C27 H90 0.961 . S
C27 H91 0.960 . S
C27 H92 0.960 . S
C28 C29 1.530 . S
C28 H94 0.961 . S
C28 H95 0.961 . S
C28 H96 0.959 . S
C29 C28 1.530 . S
C29 O57 1.412 . S
C29 H93 0.980 . S
C30 C31 1.288 . S
C30 C35 1.377 . S
C30 O57 1.393 . S
C31 C30 1.288 . S
C31 C32 1.369 . S
C31 H97 0.932 . S
C32 C31 1.369 . S
C32 C33 1.398 . S
C32 C36 1.527 . S
C33 C32 1.398 . S
C33 C34 1.380 . S
C33 C47 1.497 . S
C34 C33 1.380 . S
C34 C35 1.383 . S
C34 C37 1.603 . S
C35 C30 1.377 . S
C35 C34 1.383 . S
C35 H98 0.929 . S
C36 C32 1.527 . S
C36 H99 0.961 . S
C36 H100 0.959 1_455 S
C36 H101 0.959 . S
C37 C34 1.603 . S
C37 H102 0.960 . S
C37 H103 0.962 . S
C37 H104 0.961 . S
C38 C5 1.587 . S
C38 C39 1.360 . S
C38 C51 1.412 . S
C39 C38 1.360 . S
C39 C40 1.365 . S
C39 H105 0.929 . S
C40 C15 1.553 1_455 S
C40 C39 1.365 . S
C40 C41 1.404 1_455 S
C41 C40 1.404 1_655 S
C41 C42 1.395 . S
C41 C52 1.451 1_655 S
C42 C41 1.395 . S
C42 C43 1.322 . S
C42 H106 0.930 . S
C43 C42 1.322 . S
C43 C44 1.459 . S
C43 H107 0.929 . S
C44 C43 1.459 . S
C44 C45 1.445 . S
C44 C53 1.395 1_655 S
C45 C23 1.432 . S
C45 C44 1.445 . S
C45 C46 1.370 . S
C46 C45 1.370 . S
C46 C47 1.438 1_655 S
C46 H108 0.930 . S
C47 C33 1.497 . S
C47 C46 1.438 1_455 S
C47 C48 1.360 . S
C48 C47 1.360 . S
C48 C49 1.401 . S
C48 C53 1.446 . S
C49 C48 1.401 . S
C49 C50 1.347 . S
C49 H109 0.929 . S
C50 C49 1.347 . S
C50 C51 1.455 . S
C50 H110 0.930 . S
C51 C38 1.412 . S
C51 C50 1.455 . S
C51 C52 1.331 . S
C52 C41 1.451 1_455 S
C52 C51 1.331 . S
C52 C53 1.497 . S
C53 C44 1.395 1_455 S
C53 C48 1.446 . S
C53 C52 1.497 . S
C54 C55 1.582 . S
C54 H111 0.962 . S
C54 H112 0.959 . S
C54 H113 0.958 . S
C55 C54 1.582 . S
C55 O58 1.458 . S
C55 H84 0.980 . S
O56 C1 1.426 . S
O56 C2 1.334 . S
O57 C29 1.412 . S
O57 C30 1.393 . S
O58 C20 1.435 . S
O58 C55 1.458 . S
O59 C11 1.468 . S
O59 C12 1.408 . S
H60 C1 0.980 . S
H61 C0 0.959 . S
H62 C0 0.959 . S
H63 C0 0.960 . S
H64 C3 0.929 . S
H65 C7 0.929 . S
H66 C8 0.959 . S
H67 C8 0.961 . S
H68 C8 0.961 . S
H69 C9 0.960 . S
H70 C9 0.960 . S
H71 C9 0.961 . S
H72 C11 0.980 . S
H73 C10 0.961 . S
H74 C10 0.960 . S
H75 C10 0.959 . S
H76 C13 0.930 . S
H77 C17 0.931 . S
H78 C18 0.959 1_455 S
H79 C18 0.961 . S
H80 C18 0.959 . S
H81 C19 0.960 . S
H82 C19 0.960 1_455 S
H83 C19 0.960 . S
H84 C55 0.980 . S
H85 C21 0.930 . S
H86 C25 0.930 . S
H87 C26 0.961 . S
H88 C26 0.960 . S
H89 C26 0.958 . S
H90 C27 0.961 . S
H91 C27 0.960 . S
H92 C27 0.960 . S
H93 C29 0.980 . S
H94 C28 0.961 . S
H95 C28 0.961 . S
H96 C28 0.959 . S
H97 C31 0.932 . S
H98 C35 0.929 . S
H99 C36 0.961 . S
H100 C36 0.959 1_655 S
H101 C36 0.959 . S
H102 C37 0.960 . S
H103 C37 0.962 . S
H104 C37 0.961 . S
H105 C39 0.929 . S
H106 C42 0.930 . S
H107 C43 0.929 . S
H108 C46 0.930 . S
H109 C49 0.929 . S
H110 C50 0.930 . S
H111 C54 0.962 . S
H112 C54 0.959 . S
H113 C54 0.958 . S
C114 C115 1.560 . S
C114 H175 0.959 . S
C114 H176 0.959 . S
C114 H177 0.960 . S
C115 C114 1.560 . S
C115 O170 1.426 . S
C115 H174 0.980 . S
C116 C117 1.407 . S
C116 C121 1.418 . S
C116 O170 1.334 . S
C117 C116 1.407 . S
C117 C118 1.360 . S
C117 H178 0.929 . S
C118 C117 1.360 . S
C118 C119 1.401 . S
C118 C122 1.527 . S
C119 C118 1.401 . S
C119 C120 1.405 . S
C119 C152 1.587 . S
C120 C119 1.405 . S
C120 C121 1.332 . S
C120 C123 1.496 . S
C121 C116 1.418 . S
C121 C120 1.332 . S
C121 H179 0.929 . S
C122 C118 1.527 . S
C122 H180 0.959 . S
C122 H181 0.961 . S
C122 H182 0.961 . S
C123 C120 1.496 . S
C123 H183 0.960 . S
C123 H184 0.960 . S
C123 H185 0.961 . S
C124 C125 1.517 . S
C124 H187 0.961 . S
C124 H188 0.960 . S
C124 H189 0.959 . S
C125 C124 1.517 . S
C125 O173 1.468 . S
C125 H186 0.980 . S
C126 C127 1.349 . S
C126 C131 1.367 . S
C126 O173 1.408 . S
C127 C126 1.349 . S
C127 C128 1.407 . S
C127 H190 0.930 . S
C128 C127 1.407 . S
C128 C129 1.449 . S
C128 C132 1.535 . S
C129 C128 1.449 . S
C129 C130 1.384 . S
C129 C154 1.553 . S
C130 C129 1.384 . S
C130 C131 1.364 . S
C130 C133 1.450 . S
C131 C126 1.367 . S
C131 C130 1.364 . S
C131 H191 0.931 . S
C132 C128 1.535 . S
C132 H192 0.959 . S
C132 H193 0.961 . S
C132 H194 0.959 . S
C133 C130 1.450 . S
C133 H195 0.960 . S
C133 H196 0.960 . S
C133 H197 0.960 . S
C134 C135 1.309 . S
C134 C139 1.304 . S
C134 O172 1.435 . S
C135 C134 1.309 . S
C135 C136 1.476 . S
C135 H199 0.930 . S
C136 C135 1.476 . S
C136 C137 1.400 . S
C136 C140 1.567 . S
C137 C136 1.400 . S
C137 C138 1.373 . S
C137 C159 1.432 . S
C138 C137 1.373 . S
C138 C139 1.339 . S
C138 C141 1.530 . S
C139 C134 1.304 . S
C139 C138 1.339 . S
C139 H200 0.930 . S
C140 C136 1.567 . S
C140 H201 0.961 . S
C140 H202 0.960 . S
C140 H203 0.958 . S
C141 C138 1.530 . S
C141 H204 0.961 . S
C141 H205 0.960 . S
C141 H206 0.960 . S
C142 C143 1.530 . S
C142 H208 0.961 . S
C142 H209 0.961 . S
C142 H210 0.959 . S
C143 C142 1.530 . S
C143 O171 1.412 . S
C143 H207 0.980 . S
C144 C145 1.288 . S
C144 C149 1.377 . S
C144 O171 1.393 . S
C145 C144 1.288 . S
C145 C146 1.369 . S
C145 H211 0.932 . S
C146 C145 1.369 . S
C146 C147 1.398 . S
C146 C150 1.527 1_565 S
C147 C146 1.398 . S
C147 C148 1.380 . S
C147 C161 1.497 1_565 S
C148 C147 1.380 . S
C148 C149 1.383 . S
C148 C151 1.603 . S
C149 C144 1.377 . S
C149 C148 1.383 . S
C149 H212 0.929 . S
C150 C146 1.527 1_545 S
C150 H213 0.961 . S
C150 H214 0.959 . S
C150 H215 0.959 . S
C151 C148 1.603 . S
C151 H216 0.960 . S
C151 H217 0.962 1_565 S
C151 H218 0.961 . S
C152 C119 1.587 . S
C152 C153 1.360 . S
C152 C165 1.412 . S
C153 C152 1.360 . S
C153 C154 1.365 1_565 S
C153 H219 0.929 . S
C154 C129 1.553 . S
C154 C153 1.365 1_545 S
C154 C155 1.404 . S
C155 C154 1.404 . S
C155 C156 1.395 . S
C155 C166 1.451 . S
C156 C155 1.395 . S
C156 C157 1.322 . S
C156 H220 0.930 . S
C157 C156 1.322 . S
C157 C158 1.459 . S
C157 H221 0.929 . S
C158 C157 1.459 . S
C158 C159 1.445 . S
C158 C167 1.395 . S
C159 C137 1.432 . S
C159 C158 1.445 . S
C159 C160 1.370 . S
C160 C159 1.370 . S
C160 C161 1.438 . S
C160 H222 0.930 . S
C161 C147 1.497 1_545 S
C161 C160 1.438 . S
C161 C162 1.360 . S
C162 C161 1.360 . S
C162 C163 1.401 1_545 S
C162 C167 1.446 . S
C163 C162 1.401 1_565 S
C163 C164 1.347 . S
C163 H223 0.929 . S
C164 C163 1.347 . S
C164 C165 1.455 . S
C164 H224 0.930 . S
C165 C152 1.412 . S
C165 C164 1.455 . S
C165 C166 1.331 1_565 S
C166 C155 1.451 . S
C166 C165 1.331 1_545 S
C166 C167 1.497 . S
C167 C158 1.395 . S
C167 C162 1.446 . S
C167 C166 1.497 . S
C168 C169 1.582 . S
C168 H225 0.962 . S
C168 H226 0.959 . S
C168 H227 0.958 . S
C169 C168 1.582 . S
C169 O172 1.458 . S
C169 H198 0.980 . S
O170 C115 1.426 . S
O170 C116 1.334 . S
O171 C143 1.412 . S
O171 C144 1.393 . S
O172 C134 1.435 . S
O172 C169 1.458 . S
O173 C125 1.468 . S
O173 C126 1.408 . S
H174 C115 0.980 . S
H175 C114 0.959 . S
H176 C114 0.959 . S
H177 C114 0.960 . S
H178 C117 0.929 . S
H179 C121 0.929 . S
H180 C122 0.959 . S
H181 C122 0.961 . S
H182 C122 0.961 . S
H183 C123 0.960 . S
H184 C123 0.960 . S
H185 C123 0.961 . S
H186 C125 0.980 . S
H187 C124 0.961 . S
H188 C124 0.960 . S
H189 C124 0.959 . S
H190 C127 0.930 . S
H191 C131 0.931 . S
H192 C132 0.959 . S
H193 C132 0.961 . S
H194 C132 0.959 . S
H195 C133 0.960 . S
H196 C133 0.960 . S
H197 C133 0.960 . S
H198 C169 0.980 . S
H199 C135 0.930 . S
H200 C139 0.930 . S
H201 C140 0.961 . S
H202 C140 0.960 . S
H203 C140 0.958 . S
H204 C141 0.961 . S
H205 C141 0.960 . S
H206 C141 0.960 . S
H207 C143 0.980 . S
H208 C142 0.961 . S
H209 C142 0.961 . S
H210 C142 0.959 . S
H211 C145 0.932 . S
H212 C149 0.929 . S
H213 C150 0.961 . S
H214 C150 0.959 . S
H215 C150 0.959 . S
H216 C151 0.960 . S
H217 C151 0.962 1_545 S
H218 C151 0.961 . S
H219 C153 0.929 . S
H220 C156 0.930 . S
H221 C157 0.929 . S
H222 C160 0.930 . S
H223 C163 0.929 . S
H224 C164 0.930 . S
H225 C168 0.962 . S
H226 C168 0.959 . S
H227 C168 0.958 . S
C228 C229 1.560 . S
C228 H289 0.959 . S
C228 H290 0.959 . S
C228 H291 0.960 . S
C229 C228 1.560 . S
C229 O284 1.426 . S
C229 H288 0.980 . S
C230 C231 1.407 . S
C230 C235 1.418 . S
C230 O284 1.334 . S
C231 C230 1.407 . S
C231 C232 1.360 . S
C231 H292 0.929 . S
C232 C231 1.360 . S
C232 C233 1.401 . S
C232 C236 1.527 . S
C233 C232 1.401 . S
C233 C234 1.405 . S
C233 C266 1.587 . S
C234 C233 1.405 . S
C234 C235 1.332 . S
C234 C237 1.496 . S
C235 C230 1.418 . S
C235 C234 1.332 . S
C235 H293 0.929 . S
C236 C232 1.527 . S
C236 H294 0.959 . S
C236 H295 0.961 . S
C236 H296 0.961 . S
C237 C234 1.496 . S
C237 H297 0.960 . S
C237 H298 0.960 . S
C237 H299 0.961 . S
C238 C239 1.517 . S
C238 H301 0.961 . S
C238 H302 0.960 . S
C238 H303 0.959 . S
C239 C238 1.517 . S
C239 O287 1.468 . S
C239 H300 0.980 . S
C240 C241 1.349 . S
C240 C245 1.367 . S
C240 O287 1.408 . S
C241 C240 1.349 . S
C241 C242 1.407 . S
C241 H304 0.930 . S
C242 C241 1.407 . S
C242 C243 1.449 . S
C242 C246 1.535 . S
C243 C242 1.449 . S
C243 C244 1.384 . S
C243 C268 1.553 . S
C244 C243 1.384 . S
C244 C245 1.364 . S
C244 C247 1.450 . S
C245 C240 1.367 . S
C245 C244 1.364 . S
C245 H305 0.931 . S
C246 C242 1.535 . S
C246 H306 0.959 . S
C246 H307 0.961 . S
C246 H308 0.959 . S
C247 C244 1.450 . S
C247 H309 0.960 . S
C247 H310 0.960 . S
C247 H311 0.960 . S
C248 C249 1.309 . S
C248 C253 1.304 . S
C248 O286 1.435 . S
C249 C248 1.309 . S
C249 C250 1.476 . S
C249 H313 0.930 . S
C250 C249 1.476 . S
C250 C251 1.400 . S
C250 C254 1.567 . S
C251 C250 1.400 . S
C251 C252 1.373 . S
C251 C273 1.432 . S
C252 C251 1.373 . S
C252 C253 1.339 . S
C252 C255 1.530 . S
C253 C248 1.304 . S
C253 C252 1.339 . S
C253 H314 0.930 . S
C254 C250 1.567 . S
C254 H315 0.961 . S
C254 H316 0.960 . S
C254 H317 0.958 . S
C255 C252 1.530 . S
C255 H318 0.961 . S
C255 H319 0.960 . S
C255 H320 0.960 . S
C256 C257 1.530 . S
C256 H322 0.961 . S
C256 H323 0.961 . S
C256 H324 0.959 . S
C257 C256 1.530 . S
C257 O285 1.412 . S
C257 H321 0.980 . S
C258 C259 1.288 . S
C258 C263 1.377 . S
C258 O285 1.393 . S
C259 C258 1.288 . S
C259 C260 1.369 . S
C259 H325 0.932 . S
C260 C259 1.369 . S
C260 C261 1.398 . S
C260 C264 1.527 . S
C261 C260 1.398 . S
C261 C262 1.380 . S
C261 C275 1.497 . S
C262 C261 1.380 . S
C262 C263 1.383 . S
C262 C265 1.603 . S
C263 C258 1.377 . S
C263 C262 1.383 . S
C263 H326 0.929 . S
C264 C260 1.527 . S
C264 H327 0.961 . S
C264 H328 0.959 . S
C264 H329 0.959 . S
C265 C262 1.603 . S
C265 H330 0.960 . S
C265 H331 0.962 . S
C265 H332 0.961 . S
C266 C233 1.587 . S
C266 C267 1.360 . S
C266 C279 1.412 . S
C267 C266 1.360 . S
C267 C268 1.365 . S
C267 H333 0.929 . S
C268 C243 1.553 . S
C268 C267 1.365 . S
C268 C269 1.404 . S
C269 C268 1.404 . S
C269 C270 1.395 . S
C269 C280 1.451 . S
C270 C269 1.395 . S
C270 C271 1.322 . S
C270 H334 0.930 . S
C271 C270 1.322 . S
C271 C272 1.459 . S
C271 H335 0.929 . S
C272 C271 1.459 . S
C272 C273 1.445 . S
C272 C281 1.395 . S
C273 C251 1.432 . S
C273 C272 1.445 . S
C273 C274 1.370 . S
C274 C273 1.370 . S
C274 C275 1.438 . S
C274 H336 0.930 . S
C275 C261 1.497 . S
C275 C274 1.438 . S
C275 C276 1.360 . S
C276 C275 1.360 . S
C276 C277 1.401 . S
C276 C281 1.446 . S
C277 C276 1.401 . S
C277 C278 1.347 . S
C277 H337 0.929 . S
C278 C277 1.347 . S
C278 C279 1.455 . S
C278 H338 0.930 . S
C279 C266 1.412 . S
C279 C278 1.455 . S
C279 C280 1.331 . S
C280 C269 1.451 . S
C280 C279 1.331 . S
C280 C281 1.497 . S
C281 C272 1.395 . S
C281 C276 1.446 . S
C281 C280 1.497 . S
C282 C283 1.582 . S
C282 H339 0.962 . S
C282 H340 0.959 . S
C282 H341 0.958 . S
C283 C282 1.582 . S
C283 O286 1.458 . S
C283 H312 0.980 . S
O284 C229 1.426 . S
O284 C230 1.334 . S
O285 C257 1.412 . S
O285 C258 1.393 . S
O286 C248 1.435 . S
O286 C283 1.458 . S
O287 C239 1.468 . S
O287 C240 1.408 . S
H288 C229 0.980 . S
H289 C228 0.959 . S
H290 C228 0.959 . S
H291 C228 0.960 . S
H292 C231 0.929 . S
H293 C235 0.929 . S
H294 C236 0.959 . S
H295 C236 0.961 . S
H296 C236 0.961 . S
H297 C237 0.960 . S
H298 C237 0.960 . S
H299 C237 0.961 . S
H300 C239 0.980 . S
H301 C238 0.961 . S
H302 C238 0.960 . S
H303 C238 0.959 . S
H304 C241 0.930 . S
H305 C245 0.931 . S
H306 C246 0.959 . S
H307 C246 0.961 . S
H308 C246 0.959 . S
H309 C247 0.960 . S
H310 C247 0.960 . S
H311 C247 0.960 . S
H312 C283 0.980 . S
H313 C249 0.930 . S
H314 C253 0.930 . S
H315 C254 0.961 . S
H316 C254 0.960 . S
H317 C254 0.958 . S
H318 C255 0.961 . S
H319 C255 0.960 . S
H320 C255 0.960 . S
H321 C257 0.980 . S
H322 C256 0.961 . S
H323 C256 0.961 . S
H324 C256 0.959 . S
H325 C259 0.932 . S
H326 C263 0.929 . S
H327 C264 0.961 . S
H328 C264 0.959 . S
H329 C264 0.959 . S
H330 C265 0.960 . S
H331 C265 0.962 . S
H332 C265 0.961 . S
H333 C267 0.929 . S
H334 C270 0.930 . S
H335 C271 0.929 . S
H336 C274 0.930 . S
H337 C277 0.929 . S
H338 C278 0.930 . S
H339 C282 0.962 . S
H340 C282 0.959 . S
H341 C282 0.958 . S
C342 C343 1.560 . S
C342 H403 0.959 . S
C342 H404 0.959 . S
C342 H405 0.960 . S
C343 C342 1.560 . S
C343 O398 1.426 . S
C343 H402 0.980 . S
C344 C345 1.407 . S
C344 C349 1.418 . S
C344 O398 1.334 . S
C345 C344 1.407 . S
C345 C346 1.360 . S
C345 H406 0.929 . S
C346 C345 1.360 . S
C346 C347 1.401 . S
C346 C350 1.527 . S
C347 C346 1.401 . S
C347 C348 1.405 . S
C347 C380 1.587 . S
C348 C347 1.405 . S
C348 C349 1.332 . S
C348 C351 1.496 . S
C349 C344 1.418 . S
C349 C348 1.332 . S
C349 H407 0.929 . S
C350 C346 1.527 . S
C350 H408 0.959 . S
C350 H409 0.961 . S
C350 H410 0.961 . S
C351 C348 1.496 . S
C351 H411 0.960 . S
C351 H412 0.960 . S
C351 H413 0.961 . S
C352 C353 1.517 . S
C352 H415 0.961 . S
C352 H416 0.960 . S
C352 H417 0.959 . S
C353 C352 1.517 . S
C353 O401 1.468 . S
C353 H414 0.980 . S
C354 C355 1.349 . S
C354 C359 1.367 . S
C354 O401 1.408 . S
C355 C354 1.349 . S
C355 C356 1.407 . S
C355 H418 0.930 . S
C356 C355 1.407 . S
C356 C357 1.449 . S
C356 C360 1.535 . S
C357 C356 1.449 . S
C357 C358 1.384 . S
C357 C382 1.553 1_655 S
C358 C357 1.384 . S
C358 C359 1.364 . S
C358 C361 1.450 . S
C359 C354 1.367 . S
C359 C358 1.364 . S
C359 H419 0.931 . S
C360 C356 1.535 . S
C360 H420 0.959 1_655 S
C360 H421 0.961 1_655 S
C360 H422 0.959 . S
C361 C358 1.450 . S
C361 H423 0.960 . S
C361 H424 0.960 1_655 S
C361 H425 0.960 . S
C362 C363 1.309 . S
C362 C367 1.304 . S
C362 O400 1.435 . S
C363 C362 1.309 . S
C363 C364 1.476 . S
C363 H427 0.930 . S
C364 C363 1.476 . S
C364 C365 1.400 . S
C364 C368 1.567 . S
C365 C364 1.400 . S
C365 C366 1.373 . S
C365 C387 1.432 . S
C366 C365 1.373 . S
C366 C367 1.339 . S
C366 C369 1.530 . S
C367 C362 1.304 . S
C367 C366 1.339 . S
C367 H428 0.930 . S
C368 C364 1.567 . S
C368 H429 0.961 . S
C368 H430 0.960 . S
C368 H431 0.958 . S
C369 C366 1.530 . S
C369 H432 0.961 . S
C369 H433 0.960 . S
C369 H434 0.960 . S
C370 C371 1.530 . S
C370 H436 0.961 . S
C370 H437 0.961 . S
C370 H438 0.959 . S
C371 C370 1.530 . S
C371 O399 1.412 . S
C371 H435 0.980 . S
C372 C373 1.288 . S
C372 C377 1.377 . S
C372 O399 1.393 . S
C373 C372 1.288 . S
C373 C374 1.369 . S
C373 H439 0.932 . S
C374 C373 1.369 . S
C374 C375 1.398 . S
C374 C378 1.527 . S
C375 C374 1.398 . S
C375 C376 1.380 . S
C375 C389 1.497 . S
C376 C375 1.380 . S
C376 C377 1.383 . S
C376 C379 1.603 . S
C377 C372 1.377 . S
C377 C376 1.383 . S
C377 H440 0.929 . S
C378 C374 1.527 . S
C378 H441 0.961 . S
C378 H442 0.959 1_455 S
C378 H443 0.959 . S
C379 C376 1.603 . S
C379 H444 0.960 . S
C379 H445 0.962 . S
C379 H446 0.961 . S
C380 C347 1.587 . S
C380 C381 1.360 . S
C380 C393 1.412 . S
C381 C380 1.360 . S
C381 C382 1.365 . S
C381 H447 0.929 . S
C382 C357 1.553 1_455 S
C382 C381 1.365 . S
C382 C383 1.413 . S
C383 C382 1.413 . S
C383 C384 1.376 1_455 S
C383 C394 1.466 . S
C384 C383 1.376 1_655 S
C384 C385 1.322 . S
C384 H448 0.930 . S
C385 C384 1.322 . S
C385 C386 1.459 . S
C385 H449 0.929 . S
C386 C385 1.459 . S
C386 C387 1.445 . S
C386 C395 1.395 1_655 S
C387 C365 1.432 . S
C387 C386 1.445 . S
C387 C388 1.370 . S
C388 C387 1.370 . S
C388 C389 1.438 1_655 S
C388 H450 0.930 . S
C389 C375 1.497 . S
C389 C388 1.438 1_455 S
C389 C390 1.360 . S
C390 C389 1.360 . S
C390 C391 1.401 . S
C390 C395 1.446 . S
C391 C390 1.401 . S
C391 C392 1.347 . S
C391 H451 0.929 . S
C392 C391 1.347 . S
C392 C393 1.455 . S
C392 H452 0.930 . S
C393 C380 1.412 . S
C393 C392 1.455 . S
C393 C394 1.331 . S
C394 C383 1.466 . S
C394 C393 1.331 . S
C394 C395 1.497 . S
C395 C386 1.395 1_455 S
C395 C390 1.446 . S
C395 C394 1.497 . S
C396 C397 1.582 . S
C396 H453 0.962 . S
C396 H454 0.959 . S
C396 H455 0.958 . S
C397 C396 1.582 . S
C397 O400 1.458 . S
C397 H426 0.980 . S
O398 C343 1.426 . S
O398 C344 1.334 . S
O399 C371 1.412 . S
O399 C372 1.393 . S
O400 C362 1.435 . S
O400 C397 1.458 . S
O401 C353 1.468 . S
O401 C354 1.408 . S
H402 C343 0.980 . S
H403 C342 0.959 . S
H404 C342 0.959 . S
H405 C342 0.960 . S
H406 C345 0.929 . S
H407 C349 0.929 . S
H408 C350 0.959 . S
H409 C350 0.961 . S
H410 C350 0.961 . S
H411 C351 0.960 . S
H412 C351 0.960 . S
H413 C351 0.961 . S
H414 C353 0.980 . S
H415 C352 0.961 . S
H416 C352 0.960 . S
H417 C352 0.959 . S
H418 C355 0.930 . S
H419 C359 0.931 . S
H420 C360 0.959 1_455 S
H421 C360 0.961 1_455 S
H422 C360 0.959 . S
H423 C361 0.960 . S
H424 C361 0.960 1_455 S
H425 C361 0.960 . S
H426 C397 0.980 . S
H427 C363 0.930 . S
H428 C367 0.930 . S
H429 C368 0.961 . S
H430 C368 0.960 . S
H431 C368 0.958 . S
H432 C369 0.961 . S
H433 C369 0.960 . S
H434 C369 0.960 . S
H435 C371 0.980 . S
H436 C370 0.961 . S
H437 C370 0.961 . S
H438 C370 0.959 . S
H439 C373 0.932 . S
H440 C377 0.929 . S
H441 C378 0.961 . S
H442 C378 0.959 1_655 S
H443 C378 0.959 . S
H444 C379 0.960 . S
H445 C379 0.962 . S
H446 C379 0.961 . S
H447 C381 0.929 . S
H448 C384 0.930 . S
H449 C385 0.929 . S
H450 C388 0.930 . S
H451 C391 0.929 . S
H452 C392 0.930 . S
H453 C396 0.962 . S
H454 C396 0.959 . S
H455 C396 0.958 . S
C456 C457 1.560 . S
C456 H517 0.959 . S
C456 H518 0.959 . S
C456 H519 0.960 . S
C457 C456 1.560 . S
C457 O512 1.426 . S
C457 H516 0.980 . S
C458 C459 1.407 . S
C458 C463 1.418 . S
C458 O512 1.334 . S
C459 C458 1.407 . S
C459 C460 1.360 . S
C459 H520 0.929 . S
C460 C459 1.360 . S
C460 C461 1.401 . S
C460 C464 1.527 . S
C461 C460 1.401 . S
C461 C462 1.405 . S
C461 C494 1.587 . S
C462 C461 1.405 . S
C462 C463 1.332 . S
C462 C465 1.496 . S
C463 C458 1.418 . S
C463 C462 1.332 . S
C463 H521 0.929 . S
C464 C460 1.527 . S
C464 H522 0.959 . S
C464 H523 0.961 . S
C464 H524 0.961 . S
C465 C462 1.496 . S
C465 H525 0.960 . S
C465 H526 0.960 . S
C465 H527 0.961 . S
C466 C467 1.517 . S
C466 H529 0.961 . S
C466 H530 0.960 . S
C466 H531 0.959 . S
C467 C466 1.517 . S
C467 O515 1.468 . S
C467 H528 0.980 . S
C468 C469 1.349 . S
C468 C473 1.367 . S
C468 O515 1.408 . S
C469 C468 1.349 . S
C469 C470 1.407 . S
C469 H532 0.930 . S
C470 C469 1.407 . S
C470 C471 1.449 . S
C470 C474 1.535 . S
C471 C470 1.449 . S
C471 C472 1.384 . S
C471 C496 1.553 . S
C472 C471 1.384 . S
C472 C473 1.364 . S
C472 C475 1.450 . S
C473 C468 1.367 . S
C473 C472 1.364 . S
C473 H533 0.931 . S
C474 C470 1.535 . S
C474 H534 0.959 . S
C474 H535 0.961 . S
C474 H536 0.959 . S
C475 C472 1.450 . S
C475 H537 0.960 . S
C475 H538 0.960 . S
C475 H539 0.960 . S
C476 C477 1.309 . S
C476 C481 1.304 . S
C476 O514 1.435 . S
C477 C476 1.309 . S
C477 C478 1.476 . S
C477 H541 0.930 . S
C478 C477 1.476 . S
C478 C479 1.400 . S
C478 C482 1.567 . S
C479 C478 1.400 . S
C479 C480 1.373 . S
C479 C501 1.432 . S
C480 C479 1.373 . S
C480 C481 1.339 . S
C480 C483 1.530 . S
C481 C476 1.304 . S
C481 C480 1.339 . S
C481 H542 0.930 . S
C482 C478 1.567 . S
C482 H543 0.961 . S
C482 H544 0.960 . S
C482 H545 0.958 . S
C483 C480 1.530 . S
C483 H546 0.961 . S
C483 H547 0.960 . S
C483 H548 0.960 . S
C484 C485 1.530 . S
C484 H550 0.961 . S
C484 H551 0.961 . S
C484 H552 0.959 . S
C485 C484 1.530 . S
C485 O513 1.412 . S
C485 H549 0.980 . S
C486 C487 1.288 . S
C486 C491 1.377 . S
C486 O513 1.393 . S
C487 C486 1.288 . S
C487 C488 1.369 1_565 S
C487 H553 0.932 . S
C488 C487 1.369 1_545 S
C488 C489 1.398 . S
C488 C492 1.527 . S
C489 C488 1.398 . S
C489 C490 1.380 1_545 S
C489 C503 1.497 . S
C490 C489 1.380 1_565 S
C490 C491 1.383 . S
C490 C493 1.603 . S
C491 C486 1.377 . S
C491 C490 1.383 . S
C491 H554 0.929 . S
C492 C488 1.527 . S
C492 H555 0.961 . S
C492 H556 0.959 . S
C492 H557 0.959 . S
C493 C490 1.603 . S
C493 H558 0.960 . S
C493 H559 0.962 1_565 S
C493 H560 0.961 . S
C494 C461 1.587 . S
C494 C495 1.360 . S
C494 C507 1.412 . S
C495 C494 1.360 . S
C495 C496 1.365 1_565 S
C495 H561 0.929 . S
C496 C471 1.553 . S
C496 C495 1.365 1_545 S
C496 C497 1.404 . S
C497 C496 1.404 . S
C497 C498 1.395 . S
C497 C508 1.451 . S
C498 C497 1.395 . S
C498 C499 1.322 . S
C498 H562 0.930 . S
C499 C498 1.322 . S
C499 C500 1.459 . S
C499 H563 0.929 . S
C500 C499 1.459 . S
C500 C501 1.445 1_556 S
C500 C509 1.395 . S
C501 C479 1.432 . S
C501 C500 1.445 1_554 S
C501 C502 1.370 . S
C502 C501 1.370 . S
C502 C503 1.438 . S
C502 H564 0.930 . S
C503 C489 1.497 . S
C503 C502 1.438 . S
C503 C504 1.360 . S
C504 C503 1.360 . S
C504 C505 1.401 1_545 S
C504 C509 1.446 1_554 S
C505 C504 1.401 1_565 S
C505 C506 1.347 1_554 S
C505 H565 0.929 . S
C506 C505 1.347 1_556 S
C506 C507 1.455 . S
C506 H566 0.930 . S
C507 C494 1.412 . S
C507 C506 1.455 . S
C507 C508 1.331 1_565 S
C508 C497 1.451 . S
C508 C507 1.331 1_545 S
C508 C509 1.497 . S
C509 C500 1.395 . S
C509 C504 1.446 1_556 S
C509 C508 1.497 . S
C510 C511 1.582 . S
C510 H567 0.962 . S
C510 H568 0.959 . S
C510 H569 0.958 . S
C511 C510 1.582 . S
C511 O514 1.458 . S
C511 H540 0.980 . S
O512 C457 1.426 . S
O512 C458 1.334 . S
O513 C485 1.412 . S
O513 C486 1.393 . S
O514 C476 1.435 . S
O514 C511 1.458 . S
O515 C467 1.468 . S
O515 C468 1.408 . S
H516 C457 0.980 . S
H517 C456 0.959 . S
H518 C456 0.959 . S
H519 C456 0.960 . S
H520 C459 0.929 . S
H521 C463 0.929 . S
H522 C464 0.959 . S
H523 C464 0.961 . S
H524 C464 0.961 . S
H525 C465 0.960 . S
H526 C465 0.960 . S
H527 C465 0.961 . S
H528 C467 0.980 . S
H529 C466 0.961 . S
H530 C466 0.960 . S
H531 C466 0.959 . S
H532 C469 0.930 . S
H533 C473 0.931 . S
H534 C474 0.959 . S
H535 C474 0.961 . S
H536 C474 0.959 . S
H537 C475 0.960 . S
H538 C475 0.960 . S
H539 C475 0.960 . S
H540 C511 0.980 . S
H541 C477 0.930 . S
H542 C481 0.930 . S
H543 C482 0.961 . S
H544 C482 0.960 . S
H545 C482 0.958 . S
H546 C483 0.961 . S
H547 C483 0.960 . S
H548 C483 0.960 . S
H549 C485 0.980 . S
H550 C484 0.961 . S
H551 C484 0.961 . S
H552 C484 0.959 . S
H553 C487 0.932 . S
H554 C491 0.929 . S
H555 C492 0.961 . S
H556 C492 0.959 . S
H557 C492 0.959 . S
H558 C493 0.960 . S
H559 C493 0.962 1_545 S
H560 C493 0.961 . S
H561 C495 0.929 . S
H562 C498 0.930 . S
H563 C499 0.929 . S
H564 C502 0.930 . S
H565 C505 0.929 . S
H566 C506 0.930 . S
H567 C510 0.962 . S
H568 C510 0.959 . S
H569 C510 0.958 . S
C570 C571 1.560 . S
C570 H631 0.959 . S
C570 H632 0.959 . S
C570 H633 0.960 . S
C571 C570 1.560 . S
C571 O626 1.426 . S
C571 H630 0.980 . S
C572 C573 1.407 . S
C572 C577 1.418 . S
C572 O626 1.334 . S
C573 C572 1.407 . S
C573 C574 1.360 . S
C573 H634 0.929 . S
C574 C573 1.360 . S
C574 C575 1.401 . S
C574 C578 1.527 . S
C575 C574 1.401 . S
C575 C576 1.405 . S
C575 C608 1.587 . S
C576 C575 1.405 . S
C576 C577 1.332 . S
C576 C579 1.496 . S
C577 C572 1.418 . S
C577 C576 1.332 . S
C577 H635 0.929 . S
C578 C574 1.527 . S
C578 H636 0.959 . S
C578 H637 0.961 . S
C578 H638 0.961 . S
C579 C576 1.496 . S
C579 H639 0.960 . S
C579 H640 0.960 . S
C579 H641 0.961 . S
C580 C581 1.517 . S
C580 H643 0.961 . S
C580 H644 0.960 . S
C580 H645 0.959 . S
C581 C580 1.517 . S
C581 O629 1.468 . S
C581 H642 0.980 . S
C582 C583 1.349 . S
C582 C587 1.367 . S
C582 O629 1.408 . S
C583 C582 1.349 . S
C583 C584 1.407 . S
C583 H646 0.930 . S
C584 C583 1.407 . S
C584 C585 1.449 . S
C584 C588 1.535 . S
C585 C584 1.449 . S
C585 C586 1.384 . S
C585 C610 1.553 . S
C586 C585 1.384 . S
C586 C587 1.364 . S
C586 C589 1.450 . S
C587 C582 1.367 . S
C587 C586 1.364 . S
C587 H647 0.931 . S
C588 C584 1.535 . S
C588 H648 0.959 . S
C588 H649 0.961 . S
C588 H650 0.959 . S
C589 C586 1.450 . S
C589 H651 0.960 . S
C589 H652 0.960 . S
C589 H653 0.960 . S
C590 C591 1.309 . S
C590 C595 1.304 . S
C590 O628 1.435 . S
C591 C590 1.309 . S
C591 C592 1.476 . S
C591 H655 0.930 . S
C592 C591 1.476 . S
C592 C593 1.400 . S
C592 C596 1.567 . S
C593 C592 1.400 . S
C593 C594 1.373 . S
C593 C615 1.432 . S
C594 C593 1.373 . S
C594 C595 1.339 . S
C594 C597 1.530 . S
C595 C590 1.304 . S
C595 C594 1.339 . S
C595 H656 0.930 . S
C596 C592 1.567 . S
C596 H657 0.961 . S
C596 H658 0.960 . S
C596 H659 0.958 . S
C597 C594 1.530 . S
C597 H660 0.961 . S
C597 H661 0.960 . S
C597 H662 0.960 . S
C598 C599 1.530 . S
C598 H664 0.961 . S
C598 H665 0.961 . S
C598 H666 0.959 . S
C599 C598 1.530 . S
C599 O627 1.412 . S
C599 H663 0.980 . S
C600 C601 1.288 . S
C600 C605 1.377 . S
C600 O627 1.393 . S
C601 C600 1.288 . S
C601 C602 1.369 . S
C601 H667 0.932 . S
C602 C601 1.369 . S
C602 C603 1.398 . S
C602 C606 1.527 . S
C603 C602 1.398 . S
C603 C604 1.380 . S
C603 C617 1.497 . S
C604 C603 1.380 . S
C604 C605 1.383 . S
C604 C607 1.603 . S
C605 C600 1.377 . S
C605 C604 1.383 . S
C605 H668 0.929 . S
C606 C602 1.527 . S
C606 H669 0.961 . S
C606 H670 0.959 . S
C606 H671 0.959 . S
C607 C604 1.603 . S
C607 H672 0.960 . S
C607 H673 0.962 . S
C607 H674 0.961 . S
C608 C575 1.587 . S
C608 C609 1.360 . S
C608 C621 1.412 . S
C609 C608 1.360 . S
C609 C610 1.365 . S
C609 H675 0.929 . S
C610 C585 1.553 . S
C610 C609 1.365 . S
C610 C611 1.404 . S
C611 C610 1.404 . S
C611 C612 1.395 . S
C611 C622 1.451 . S
C612 C611 1.395 . S
C612 C613 1.322 . S
C612 H676 0.930 . S
C613 C612 1.322 . S
C613 C614 1.459 . S
C613 H677 0.929 . S
C614 C613 1.459 . S
C614 C615 1.445 . S
C614 C623 1.395 . S
C615 C593 1.432 . S
C615 C614 1.445 . S
C615 C616 1.370 . S
C616 C615 1.370 . S
C616 C617 1.438 . S
C616 H678 0.930 . S
C617 C603 1.497 . S
C617 C616 1.438 . S
C617 C618 1.360 . S
C618 C617 1.360 . S
C618 C619 1.401 . S
C618 C623 1.446 . S
C619 C618 1.401 . S
C619 C620 1.347 . S
C619 H679 0.929 . S
C620 C619 1.347 . S
C620 C621 1.455 . S
C620 H680 0.930 . S
C621 C608 1.412 . S
C621 C620 1.455 . S
C621 C622 1.331 . S
C622 C611 1.451 . S
C622 C621 1.331 . S
C622 C623 1.497 . S
C623 C614 1.395 . S
C623 C618 1.446 . S
C623 C622 1.497 . S
C624 C625 1.582 . S
C624 H681 0.962 . S
C624 H682 0.959 . S
C624 H683 0.958 . S
C625 C624 1.582 . S
C625 O628 1.458 . S
C625 H654 0.980 . S
O626 C571 1.426 . S
O626 C572 1.334 . S
O627 C599 1.412 . S
O627 C600 1.393 . S
O628 C590 1.435 . S
O628 C625 1.458 . S
O629 C581 1.468 . S
O629 C582 1.408 . S
H630 C571 0.980 . S
H631 C570 0.959 . S
H632 C570 0.959 . S
H633 C570 0.960 . S
H634 C573 0.929 . S
H635 C577 0.929 . S
H636 C578 0.959 . S
H637 C578 0.961 . S
H638 C578 0.961 . S
H639 C579 0.960 . S
H640 C579 0.960 . S
H641 C579 0.961 . S
H642 C581 0.980 . S
H643 C580 0.961 . S
H644 C580 0.960 . S
H645 C580 0.959 . S
H646 C583 0.930 . S
H647 C587 0.931 . S
H648 C588 0.959 . S
H649 C588 0.961 . S
H650 C588 0.959 . S
H651 C589 0.960 . S
H652 C589 0.960 . S
H653 C589 0.960 . S
H654 C625 0.980 . S
H655 C591 0.930 . S
H656 C595 0.930 . S
H657 C596 0.961 . S
H658 C596 0.960 . S
H659 C596 0.958 . S
H660 C597 0.961 . S
H661 C597 0.960 . S
H662 C597 0.960 . S
H663 C599 0.980 . S
H664 C598 0.961 . S
H665 C598 0.961 . S
H666 C598 0.959 . S
H667 C601 0.932 . S
H668 C605 0.929 . S
H669 C606 0.961 . S
H670 C606 0.959 . S
H671 C606 0.959 . S
H672 C607 0.960 . S
H673 C607 0.962 . S
H674 C607 0.961 . S
H675 C609 0.929 . S
H676 C612 0.930 . S
H677 C613 0.929 . S
H678 C616 0.930 . S
H679 C619 0.929 . S
H680 C620 0.930 . S
H681 C624 0.962 . S
H682 C624 0.959 . S
H683 C624 0.958 . S
Mg684 O685 2.028 . S
Mg684 O691 1.986 . S
Mg684 O693 2.114 . S
Mg684 O694 2.251 . S
Mg684 O697 2.010 . S
O685 Mg684 2.028 . S
O685 C688 1.250 . S
O686 Mg687 2.028 . S
O686 C688 1.248 . S
Mg687 O686 2.028 . S
Mg687 O692 2.032 . S
Mg687 O694 2.079 . S
C688 O685 1.250 . S
C688 O686 1.248 . S
C689 O690 1.264 . S
C689 O697 1.249 . S
O690 C689 1.264 . S
O691 Mg684 1.986 . S
O691 C695 1.246 . S
O692 Mg687 2.032 . S
O692 C695 1.259 . S
O693 Mg684 2.114 . S
O693 C696 1.252 . S
O694 Mg684 2.251 . S
O694 Mg687 2.079 . S
O694 C696 1.273 . S
C695 O691 1.246 . S
C695 O692 1.259 . S
C696 O693 1.252 . S
C696 O694 1.273 . S
O697 Mg684 2.010 . S
O697 C689 1.249 . S
Mg698 O699 2.028 . S
Mg698 O705 1.986 . S
Mg698 O707 2.114 . S
Mg698 O708 2.251 . S
Mg698 O711 2.010 . S
O699 Mg698 2.028 . S
O699 C702 1.250 . S
O700 Mg701 2.028 . S
O700 C702 1.248 . S
Mg701 O700 2.028 . S
Mg701 O706 2.032 . S
Mg701 O708 2.079 . S
C702 O699 1.250 . S
C702 O700 1.248 . S
C703 O704 1.264 . S
C703 O711 1.249 . S
O704 C703 1.264 . S
O705 Mg698 1.986 . S
O705 C709 1.246 . S
O706 Mg701 2.032 . S
O706 C709 1.259 . S
O707 Mg698 2.114 . S
O707 C710 1.252 . S
O708 Mg698 2.251 . S
O708 Mg701 2.079 . S
O708 C710 1.273 . S
C709 O705 1.246 . S
C709 O706 1.259 . S
C710 O707 1.252 . S
C710 O708 1.273 . S
O711 Mg698 2.010 . S
O711 C703 1.249 . S
Mg712 O713 2.028 . S
Mg712 O719 1.986 . S
Mg712 O721 2.114 . S
Mg712 O722 2.251 . S
Mg712 O725 2.010 . S
O713 Mg712 2.028 . S
O713 C716 1.250 . S
O714 Mg715 2.028 . S
O714 C716 1.248 . S
Mg715 O714 2.028 . S
Mg715 O720 2.032 . S
Mg715 O722 2.079 . S
C716 O713 1.250 . S
C716 O714 1.248 . S
C717 O718 1.264 . S
C717 O725 1.249 . S
O718 C717 1.264 . S
O719 Mg712 1.986 . S
O719 C723 1.246 . S
O720 Mg715 2.032 . S
O720 C723 1.259 . S
O721 Mg712 2.114 . S
O721 C724 1.252 . S
O722 Mg712 2.251 . S
O722 Mg715 2.079 . S
O722 C724 1.273 . S
C723 O719 1.246 . S
C723 O720 1.259 . S
C724 O721 1.252 . S
C724 O722 1.273 . S
O725 Mg712 2.010 . S
O725 C717 1.249 . S
Mg726 O727 2.028 . S
Mg726 O733 1.986 . S
Mg726 O735 2.114 . S
Mg726 O736 2.251 . S
Mg726 O739 2.010 . S
O727 Mg726 2.028 . S
O727 C730 1.250 . S
O728 Mg729 2.028 . S
O728 C730 1.248 . S
Mg729 O728 2.028 . S
Mg729 O734 2.032 . S
Mg729 O736 2.079 . S
C730 O727 1.250 . S
C730 O728 1.248 . S
C731 O732 1.264 . S
C731 O739 1.249 . S
O732 C731 1.264 . S
O733 Mg726 1.986 . S
O733 C737 1.246 . S
O734 Mg729 2.032 . S
O734 C737 1.259 . S
O735 Mg726 2.114 . S
O735 C738 1.252 . S
O736 Mg726 2.251 . S
O736 Mg729 2.079 . S
O736 C738 1.273 . S
C737 O733 1.246 . S
C737 O734 1.259 . S
C738 O735 1.252 . S
C738 O736 1.273 . S
O739 Mg726 2.010 . S
O739 C731 1.249 . S
Mg740 O741 2.028 . S
Mg740 O747 1.986 . S
Mg740 O749 2.114 . S
Mg740 O750 2.251 . S
Mg740 O753 2.010 . S
O741 Mg740 2.028 . S
O741 C744 1.250 . S
O742 Mg743 2.028 . S
O742 C744 1.248 . S
Mg743 O742 2.028 . S
Mg743 O748 2.032 . S
Mg743 O750 2.079 . S
C744 O741 1.250 . S
C744 O742 1.248 . S
C745 O746 1.264 . S
C745 O753 1.249 . S
O746 C745 1.264 . S
O747 Mg740 1.986 . S
O747 C751 1.246 . S
O748 Mg743 2.032 . S
O748 C751 1.259 . S
O749 Mg740 2.114 . S
O749 C752 1.252 . S
O750 Mg740 2.251 . S
O750 Mg743 2.079 . S
O750 C752 1.273 . S
C751 O747 1.246 . S
C751 O748 1.259 . S
C752 O749 1.252 . S
C752 O750 1.273 . S
O753 Mg740 2.010 . S
O753 C745 1.249 . S
Mg754 O755 2.028 . S
Mg754 O761 1.986 . S
Mg754 O763 2.114 . S
Mg754 O764 2.251 . S
Mg754 O767 2.010 . S
O755 Mg754 2.028 . S
O755 C758 1.250 . S
O756 Mg757 2.028 . S
O756 C758 1.248 . S
Mg757 O756 2.028 . S
Mg757 O762 2.032 . S
Mg757 O764 2.079 . S
C758 O755 1.250 . S
C758 O756 1.248 . S
C759 O760 1.264 . S
C759 O767 1.249 . S
O760 C759 1.264 . S
O761 Mg754 1.986 . S
O761 C765 1.246 . S
O762 Mg757 2.032 . S
O762 C765 1.259 . S
O763 Mg754 2.114 . S
O763 C766 1.252 . S
O764 Mg754 2.251 . S
O764 Mg757 2.079 . S
O764 C766 1.273 . S
C765 O761 1.246 . S
C765 O762 1.259 . S
C766 O763 1.252 . S
C766 O764 1.273 . S
O767 Mg754 2.010 . S
O767 C759 1.249 . S
H768 C776 0.950 . S
H769 C781 0.950 . S
H770 C778 0.950 . S
H771 C780 0.950 . S
H772 C782 0.950 . S
H773 C784 0.950 . S
H774 C786 0.950 . S
H775 C787 0.950 . S
C776 H768 0.950 . S
C776 C777 1.386 . S
C776 C778 1.391 . S
C777 C776 1.386 . S
C777 C781 1.393 . S
C778 H770 0.950 . S
C778 C776 1.391 . S
C778 C779 1.400 . S
C779 C778 1.400 . S
C779 C780 1.398 . S
C779 C785 1.491 . S
C780 H771 0.950 . S
C780 C779 1.398 . S
C780 C781 1.391 . S
C781 H769 0.950 . S
C781 C777 1.393 . S
C781 C780 1.391 . S
C782 H772 0.950 . S
C782 C783 1.386 . S
C782 C784 1.391 . S
C783 C782 1.386 . S
C783 C787 1.393 . S
C784 H773 0.950 . S
C784 C782 1.391 . S
C784 C785 1.400 . S
C785 C779 1.491 . S
C785 C784 1.400 . S
C785 C786 1.398 . S
C786 H774 0.950 . S
C786 C785 1.398 . S
C786 C787 1.391 . S
C787 H775 0.950 . S
C787 C783 1.393 . S
C787 C786 1.391 . S
H788 C796 0.950 . S
H789 C801 0.950 . S
H790 C798 0.950 . S
H791 C800 0.950 . S
H792 C802 0.950 . S
H793 C804 0.950 . S
H794 C806 0.950 . S
H795 C807 0.950 . S
C796 H788 0.950 . S
C796 C797 1.386 . S
C796 C798 1.391 . S
C797 C796 1.386 . S
C797 C801 1.393 . S
C798 H790 0.950 . S
C798 C796 1.391 . S
C798 C799 1.400 . S
C799 C798 1.400 . S
C799 C800 1.398 . S
C799 C805 1.491 . S
C800 H791 0.950 . S
C800 C799 1.398 . S
C800 C801 1.391 . S
C801 H789 0.950 . S
C801 C797 1.393 . S
C801 C800 1.391 . S
C802 H792 0.950 . S
C802 C803 1.386 . S
C802 C804 1.391 . S
C803 C802 1.386 . S
C803 C807 1.393 . S
C804 H793 0.950 . S
C804 C802 1.391 . S
C804 C805 1.400 . S
C805 C799 1.491 . S
C805 C804 1.400 . S
C805 C806 1.398 . S
C806 H794 0.950 . S
C806 C805 1.398 . S
C806 C807 1.391 . S
C807 H795 0.950 . S
C807 C803 1.393 . S
C807 C806 1.391 . S
H808 C816 0.950 . S
H809 C821 0.950 . S
H810 C818 0.950 . S
H811 C820 0.950 . S
H812 C822 0.950 . S
H813 C824 0.950 . S
H814 C826 0.950 . S
H815 C827 0.950 . S
C816 H808 0.950 . S
C816 C817 1.386 . S
C816 C818 1.391 . S
C817 C816 1.386 . S
C817 C821 1.393 . S
C818 H810 0.950 . S
C818 C816 1.391 . S
C818 C819 1.400 . S
C819 C818 1.400 . S
C819 C820 1.398 . S
C819 C825 1.491 . S
C820 H811 0.950 . S
C820 C819 1.398 . S
C820 C821 1.391 . S
C821 H809 0.950 . S
C821 C817 1.393 . S
C821 C820 1.391 . S
C822 H812 0.950 . S
C822 C823 1.386 . S
C822 C824 1.391 . S
C823 C822 1.386 . S
C823 C827 1.393 . S
C824 H813 0.950 . S
C824 C822 1.391 . S
C824 C825 1.400 . S
C825 C819 1.491 . S
C825 C824 1.400 . S
C825 C826 1.398 . S
C826 H814 0.950 . S
C826 C825 1.398 . S
C826 C827 1.391 . S
C827 H815 0.950 . S
C827 C823 1.393 . S
C827 C826 1.391 . S
H828 C836 0.950 . S
H829 C841 0.950 . S
H830 C838 0.950 . S
H831 C840 0.950 . S
H832 C842 0.950 . S
H833 C844 0.950 . S
H834 C846 0.950 . S
H835 C847 0.950 . S
C836 H828 0.950 . S
C836 C837 1.386 . S
C836 C838 1.391 . S
C837 C836 1.386 . S
C837 C841 1.393 . S
C838 H830 0.950 . S
C838 C836 1.391 . S
C838 C839 1.400 . S
C839 C838 1.400 . S
C839 C840 1.398 . S
C839 C845 1.491 . S
C840 H831 0.950 . S
C840 C839 1.398 . S
C840 C841 1.391 . S
C841 H829 0.950 . S
C841 C837 1.393 . S
C841 C840 1.391 . S
C842 H832 0.950 . S
C842 C843 1.386 . S
C842 C844 1.391 . S
C843 C842 1.386 . S
C843 C847 1.393 . S
C844 H833 0.950 . S
C844 C842 1.391 . S
C844 C845 1.400 . S
C845 C839 1.491 . S
C845 C844 1.400 . S
C845 C846 1.398 . S
C846 H834 0.950 . S
C846 C845 1.398 . S
C846 C847 1.391 . S
C847 H835 0.950 . S
C847 C843 1.393 . S
C847 C846 1.391 . S
H848 C856 0.950 . S
H849 C861 0.950 . S
H850 C858 0.950 . S
H851 C860 0.950 . S
H852 C862 0.950 . S
H853 C864 0.950 . S
H854 C866 0.950 . S
H855 C867 0.950 . S
C856 H848 0.950 . S
C856 C857 1.386 . S
C856 C858 1.391 . S
C857 C856 1.386 . S
C857 C861 1.393 . S
C858 H850 0.950 . S
C858 C856 1.391 . S
C858 C859 1.400 . S
C859 C858 1.400 . S
C859 C860 1.398 . S
C859 C865 1.491 . S
C860 H851 0.950 . S
C860 C859 1.398 . S
C860 C861 1.391 . S
C861 H849 0.950 . S
C861 C857 1.393 . S
C861 C860 1.391 . S
C862 H852 0.950 . S
C862 C863 1.386 . S
C862 C864 1.391 . S
C863 C862 1.386 . S
C863 C867 1.393 . S
C864 H853 0.950 . S
C864 C862 1.391 . S
C864 C865 1.400 . S
C865 C859 1.491 . S
C865 C864 1.400 . S
C865 C866 1.398 . S
C866 H854 0.950 . S
C866 C865 1.398 . S
C866 C867 1.391 . S
C867 H855 0.950 . S
C867 C863 1.393 . S
C867 C866 1.391 . S
H868 C876 0.950 . S
H869 C881 0.950 . S
H870 C878 0.950 . S
H871 C880 0.950 . S
H872 C882 0.950 . S
H873 C884 0.950 . S
H874 C886 0.950 . S
H875 C887 0.950 . S
C876 H868 0.950 . S
C876 C877 1.386 . S
C876 C878 1.391 . S
C877 C876 1.386 . S
C877 C881 1.393 . S
C878 H870 0.950 . S
C878 C876 1.391 . S
C878 C879 1.400 . S
C879 C878 1.400 . S
C879 C880 1.398 . S
C879 C885 1.491 . S
C880 H871 0.950 . S
C880 C879 1.398 . S
C880 C881 1.391 . S
C881 H869 0.950 . S
C881 C877 1.393 . S
C881 C880 1.391 . S
C882 H872 0.950 . S
C882 C883 1.386 . S
C882 C884 1.391 . S
C883 C882 1.386 . S
C883 C887 1.393 . S
C884 H873 0.950 . S
C884 C882 1.391 . S
C884 C885 1.400 . S
C885 C879 1.491 . S
C885 C884 1.400 . S
C885 C886 1.398 . S
C886 H874 0.950 . S
C886 C885 1.398 . S
C886 C887 1.391 . S
C887 H875 0.950 . S
C887 C883 1.393 . S
C887 C886 1.391 . S
H888 C896 0.950 . S
H889 C901 0.950 . S
H890 C898 0.950 . S
H891 C900 0.950 . S
H892 C902 0.950 . S
H893 C904 0.950 . S
H894 C906 0.950 . S
H895 C907 0.950 . S
C896 H888 0.950 . S
C896 C897 1.386 . S
C896 C898 1.391 . S
C897 C896 1.386 . S
C897 C901 1.393 . S
C898 H890 0.950 . S
C898 C896 1.391 . S
C898 C899 1.400 . S
C899 C898 1.400 . S
C899 C900 1.398 . S
C899 C905 1.491 . S
C900 H891 0.950 . S
C900 C899 1.398 . S
C900 C901 1.391 . S
C901 H889 0.950 . S
C901 C897 1.393 . S
C901 C900 1.391 . S
C902 H892 0.950 . S
C902 C903 1.386 . S
C902 C904 1.391 . S
C903 C902 1.386 . S
C903 C907 1.393 . S
C904 H893 0.950 . S
C904 C902 1.391 . S
C904 C905 1.400 . S
C905 C899 1.491 . S
C905 C904 1.400 . S
C905 C906 1.398 . S
C906 H894 0.950 . S
C906 C905 1.398 . S
C906 C907 1.391 . S
C907 H895 0.950 . S
C907 C903 1.393 . S
C907 C906 1.391 . S
H908 C916 0.950 . S
H909 C921 0.950 . S
H910 C918 0.950 . S
H911 C920 0.950 . S
H912 C922 0.950 . S
H913 C924 0.950 . S
H914 C926 0.950 . S
H915 C927 0.950 . S
C916 H908 0.950 . S
C916 C917 1.386 . S
C916 C918 1.391 . S
C917 C916 1.386 . S
C917 C921 1.393 . S
C918 H910 0.950 . S
C918 C916 1.391 . S
C918 C919 1.400 . S
C919 C918 1.400 . S
C919 C920 1.398 . S
C919 C925 1.491 . S
C920 H911 0.950 . S
C920 C919 1.398 . S
C920 C921 1.391 . S
C921 H909 0.950 . S
C921 C917 1.393 . S
C921 C920 1.391 . S
C922 H912 0.950 . S
C922 C923 1.386 . S
C922 C924 1.391 . S
C923 C922 1.386 . S
C923 C927 1.393 . S
C924 H913 0.950 . S
C924 C922 1.391 . S
C924 C925 1.400 . S
C925 C919 1.491 . S
C925 C924 1.400 . S
C925 C926 1.398 . S
C926 H914 0.950 . S
C926 C925 1.398 . S
C926 C927 1.391 . S
C927 H915 0.950 . S
C927 C923 1.393 . S
C927 C926 1.391 . S
H928 C936 0.950 . S
H929 C941 0.950 . S
H930 C938 0.950 . S
H931 C940 0.950 . S
H932 C942 0.950 . S
H933 C944 0.950 . S
H934 C946 0.950 . S
H935 C947 0.950 . S
C936 H928 0.950 . S
C936 C937 1.386 . S
C936 C938 1.391 . S
C937 C936 1.386 . S
C937 C941 1.393 . S
C938 H930 0.950 . S
C938 C936 1.391 . S
C938 C939 1.400 . S
C939 C938 1.400 . S
C939 C940 1.398 . S
C939 C945 1.491 . S
C940 H931 0.950 . S
C940 C939 1.398 . S
C940 C941 1.391 . S
C941 H929 0.950 . S
C941 C937 1.393 . S
C941 C940 1.391 . S
C942 H932 0.950 . S
C942 C943 1.386 . S
C942 C944 1.391 . S
C943 C942 1.386 . S
C943 C947 1.393 . S
C944 H933 0.950 . S
C944 C942 1.391 . S
C944 C945 1.400 . S
C945 C939 1.491 . S
C945 C944 1.400 . S
C945 C946 1.398 . S
C946 H934 0.950 . S
C946 C945 1.398 . S
C946 C947 1.391 . S
C947 H935 0.950 . S
C947 C943 1.393 . S
C947 C946 1.391 . S
H948 C956 0.950 . S
H949 C961 0.950 . S
H950 C958 0.950 . S
H951 C960 0.950 . S
H952 C962 0.950 . S
H953 C964 0.950 . S
H954 C966 0.950 . S
H955 C967 0.950 . S
C956 H948 0.950 . S
C956 C957 1.386 . S
C956 C958 1.391 . S
C957 C956 1.386 . S
C957 C961 1.393 . S
C958 H950 0.950 . S
C958 C956 1.391 . S
C958 C959 1.400 . S
C959 C958 1.400 . S
C959 C960 1.398 . S
C959 C965 1.491 . S
C960 H951 0.950 . S
C960 C959 1.398 . S
C960 C961 1.391 . S
C961 H949 0.950 . S
C961 C957 1.393 . S
C961 C960 1.391 . S
C962 H952 0.950 . S
C962 C963 1.386 . S
C962 C964 1.391 . S
C963 C962 1.386 . S
C963 C967 1.393 . S
C964 H953 0.950 . S
C964 C962 1.391 . S
C964 C965 1.400 . S
C965 C959 1.491 . S
C965 C964 1.400 . S
C965 C966 1.398 . S
C966 H954 0.950 . S
C966 C965 1.398 . S
C966 C967 1.391 . S
C967 H955 0.950 . S
C967 C963 1.393 . S
C967 C966 1.391 . S
H968 C976 0.950 . S
H969 C981 0.950 . S
H970 C978 0.950 . S
H971 C980 0.950 . S
H972 C982 0.950 . S
H973 C984 0.950 . S
H974 C986 0.950 . S
H975 C987 0.950 . S
C976 H968 0.950 . S
C976 C977 1.386 . S
C976 C978 1.391 . S
C977 C976 1.386 . S
C977 C981 1.393 . S
C978 H970 0.950 . S
C978 C976 1.391 . S
C978 C979 1.400 . S
C979 C978 1.400 . S
C979 C980 1.398 . S
C979 C985 1.491 . S
C980 H971 0.950 . S
C980 C979 1.398 . S
C980 C981 1.391 . S
C981 H969 0.950 . S
C981 C977 1.393 . S
C981 C980 1.391 . S
C982 H972 0.950 . S
C982 C983 1.386 . S
C982 C984 1.391 . S
C983 C982 1.386 . S
C983 C987 1.393 . S
C984 H973 0.950 . S
C984 C982 1.391 . S
C984 C985 1.400 . S
C985 C979 1.491 . S
C985 C984 1.400 . S
C985 C986 1.398 . S
C986 H974 0.950 . S
C986 C985 1.398 . S
C986 C987 1.391 . S
C987 H975 0.950 . S
C987 C983 1.393 . S
C987 C986 1.391 . S
H988 C996 0.950 . S
H989 C1001 0.950 . S
H990 C998 0.950 . S
H991 C1000 0.950 . S
H992 C1002 0.950 . S
H993 C1004 0.950 . S
H994 C1006 0.950 . S
H995 C1007 0.950 . S
C996 H988 0.950 . S
C996 C997 1.386 . S
C996 C998 1.391 . S
C997 C996 1.386 . S
C997 C1001 1.393 . S
C998 H990 0.950 . S
C998 C996 1.391 . S
C998 C999 1.400 . S
C999 C998 1.400 . S
C999 C1000 1.398 . S
C999 C1005 1.491 . S
C1000 H991 0.950 . S
C1000 C999 1.398 . S
C1000 C1001 1.391 . S
C1001 H989 0.950 . S
C1001 C997 1.393 . S
C1001 C1000 1.391 . S
C1002 H992 0.950 . S
C1002 C1003 1.386 . S
C1002 C1004 1.391 . S
C1003 C1002 1.386 . S
C1003 C1007 1.393 . S
C1004 H993 0.950 . S
C1004 C1002 1.391 . S
C1004 C1005 1.400 . S
C1005 C999 1.491 . S
C1005 C1004 1.400 . S
C1005 C1006 1.398 . S
C1006 H994 0.950 . S
C1006 C1005 1.398 . S
C1006 C1007 1.391 . S
C1007 H995 0.950 . S
C1007 C1003 1.393 . S
C1007 C1006 1.391 . S
H1008 C1016 0.950 . S
H1009 C1021 0.950 . S
H1010 C1018 0.950 . S
H1011 C1020 0.950 . S
H1012 C1022 0.950 . S
H1013 C1024 0.950 . S
H1014 C1026 0.950 . S
H1015 C1027 0.950 . S
C1016 H1008 0.950 . S
C1016 C1017 1.386 . S
C1016 C1018 1.391 . S
C1017 C1016 1.386 . S
C1017 C1021 1.393 . S
C1018 H1010 0.950 . S
C1018 C1016 1.391 . S
C1018 C1019 1.400 . S
C1019 C1018 1.400 . S
C1019 C1020 1.398 . S
C1019 C1025 1.491 . S
C1020 H1011 0.950 . S
C1020 C1019 1.398 . S
C1020 C1021 1.391 . S
C1021 H1009 0.950 . S
C1021 C1017 1.393 . S
C1021 C1020 1.391 . S
C1022 H1012 0.950 . S
C1022 C1023 1.386 . S
C1022 C1024 1.391 . S
C1023 C1022 1.386 . S
C1023 C1027 1.393 . S
C1024 H1013 0.950 . S
C1024 C1022 1.391 . S
C1024 C1025 1.400 . S
C1025 C1019 1.491 . S
C1025 C1024 1.400 . S
C1025 C1026 1.398 . S
C1026 H1014 0.950 . S
C1026 C1025 1.398 . S
C1026 C1027 1.391 . S
C1027 H1015 0.950 . S
C1027 C1023 1.393 . S
C1027 C1026 1.391 . S
H1028 C1036 0.950 . S
H1029 C1041 0.950 . S
H1030 C1038 0.950 . S
H1031 C1040 0.950 . S
H1032 C1042 0.950 . S
H1033 C1044 0.950 . S
H1034 C1046 0.950 . S
H1035 C1047 0.950 . S
C1036 H1028 0.950 . S
C1036 C1037 1.386 . S
C1036 C1038 1.391 . S
C1037 C1036 1.386 . S
C1037 C1041 1.393 . S
C1038 H1030 0.950 . S
C1038 C1036 1.391 . S
C1038 C1039 1.400 . S
C1039 C1038 1.400 . S
C1039 C1040 1.398 . S
C1039 C1045 1.491 . S
C1040 H1031 0.950 . S
C1040 C1039 1.398 . S
C1040 C1041 1.391 . S
C1041 H1029 0.950 . S
C1041 C1037 1.393 . S
C1041 C1040 1.391 . S
C1042 H1032 0.950 . S
C1042 C1043 1.386 . S
C1042 C1044 1.391 . S
C1043 C1042 1.386 . S
C1043 C1047 1.393 . S
C1044 H1033 0.950 . S
C1044 C1042 1.391 . S
C1044 C1045 1.400 . S
C1045 C1039 1.491 . S
C1045 C1044 1.400 . S
C1045 C1046 1.398 . S
C1046 H1034 0.950 . S
C1046 C1045 1.398 . S
C1046 C1047 1.391 . S
C1047 H1035 0.950 . S
C1047 C1043 1.393 . S
C1047 C1046 1.391 . S
H1048 C1056 0.950 . S
H1049 C1061 0.950 . S
H1050 C1058 0.950 . S
H1051 C1060 0.950 . S
H1052 C1062 0.950 . S
H1053 C1064 0.950 . S
H1054 C1066 0.950 . S
H1055 C1067 0.950 . S
C1056 H1048 0.950 . S
C1056 C1057 1.386 . S
C1056 C1058 1.391 . S
C1057 C1056 1.386 . S
C1057 C1061 1.393 . S
C1058 H1050 0.950 . S
C1058 C1056 1.391 . S
C1058 C1059 1.400 . S
C1059 C1058 1.400 . S
C1059 C1060 1.398 . S
C1059 C1065 1.491 . S
C1060 H1051 0.950 . S
C1060 C1059 1.398 . S
C1060 C1061 1.391 . S
C1061 H1049 0.950 . S
C1061 C1057 1.393 . S
C1061 C1060 1.391 . S
C1062 H1052 0.950 . S
C1062 C1063 1.386 . S
C1062 C1064 1.391 . S
C1063 C1062 1.386 . S
C1063 C1067 1.393 . S
C1064 H1053 0.950 . S
C1064 C1062 1.391 . S
C1064 C1065 1.400 . S
C1065 C1059 1.491 . S
C1065 C1064 1.400 . S
C1065 C1066 1.398 . S
C1066 H1054 0.950 . S
C1066 C1065 1.398 . S
C1066 C1067 1.391 . S
C1067 H1055 0.950 . S
C1067 C1063 1.393 . S
C1067 C1066 1.391 . S
H1068 C1076 0.950 . S
H1069 C1081 0.950 . S
H1070 C1078 0.950 . S
H1071 C1080 0.950 . S
H1072 C1082 0.950 . S
H1073 C1084 0.950 . S
H1074 C1086 0.950 . S
H1075 C1087 0.950 . S
C1076 H1068 0.950 . S
C1076 C1077 1.386 . S
C1076 C1078 1.391 . S
C1077 C1076 1.386 . S
C1077 C1081 1.393 . S
C1078 H1070 0.950 . S
C1078 C1076 1.391 . S
C1078 C1079 1.400 . S
C1079 C1078 1.400 . S
C1079 C1080 1.398 . S
C1079 C1085 1.491 . S
C1080 H1071 0.950 . S
C1080 C1079 1.398 . S
C1080 C1081 1.391 . S
C1081 H1069 0.950 . S
C1081 C1077 1.393 . S
C1081 C1080 1.391 . S
C1082 H1072 0.950 . S
C1082 C1083 1.386 . S
C1082 C1084 1.391 . S
C1083 C1082 1.386 . S
C1083 C1087 1.393 . S
C1084 H1073 0.950 . S
C1084 C1082 1.391 . S
C1084 C1085 1.400 1_554 S
C1085 C1079 1.491 . S
C1085 C1084 1.400 1_556 S
C1085 C1086 1.398 . S
C1086 H1074 0.950 . S
C1086 C1085 1.398 . S
C1086 C1087 1.391 1_556 S
C1087 H1075 0.950 . S
C1087 C1083 1.393 . S
C1087 C1086 1.391 1_554 S
H1088 C1096 0.950 . S
H1089 C1101 0.950 . S
H1090 C1098 0.950 . S
H1091 C1100 0.950 . S
H1092 C1102 0.950 . S
H1093 C1104 0.950 . S
H1094 C1106 0.950 . S
H1095 C1107 0.950 . S
C1096 H1088 0.950 . S
C1096 C1097 1.386 . S
C1096 C1098 1.391 . S
C1097 C1096 1.386 . S
C1097 C1101 1.393 . S
C1098 H1090 0.950 . S
C1098 C1096 1.391 . S
C1098 C1099 1.400 . S
C1099 C1098 1.400 . S
C1099 C1100 1.398 . S
C1099 C1105 1.491 . S
C1100 H1091 0.950 . S
C1100 C1099 1.398 . S
C1100 C1101 1.391 . S
C1101 H1089 0.950 . S
C1101 C1097 1.393 . S
C1101 C1100 1.391 . S
C1102 H1092 0.950 . S
C1102 C1103 1.386 . S
C1102 C1104 1.391 . S
C1103 C1102 1.386 . S
C1103 C1107 1.393 . S
C1104 H1093 0.950 . S
C1104 C1102 1.391 . S
C1104 C1105 1.400 . S
C1105 C1099 1.491 . S
C1105 C1104 1.400 . S
C1105 C1106 1.398 . S
C1106 H1094 0.950 . S
C1106 C1105 1.398 . S
C1106 C1107 1.391 . S
C1107 H1095 0.950 . S
C1107 C1103 1.393 . S
C1107 C1106 1.391 . S
H1108 C1116 0.950 . S
H1109 C1121 0.950 . S
H1110 C1118 0.950 . S
H1111 C1120 0.950 . S
H1112 C1122 0.950 . S
H1113 C1124 0.950 . S
H1114 C1126 0.950 . S
H1115 C1127 0.950 . S
C1116 H1108 0.950 . S
C1116 C1117 1.386 . S
C1116 C1118 1.391 . S
C1117 C1116 1.386 . S
C1117 C1121 1.393 . S
C1118 H1110 0.950 . S
C1118 C1116 1.391 . S
C1118 C1119 1.400 . S
C1119 C1118 1.400 . S
C1119 C1120 1.398 . S
C1119 C1125 1.491 . S
C1120 H1111 0.950 . S
C1120 C1119 1.398 . S
C1120 C1121 1.391 . S
C1121 H1109 0.950 . S
C1121 C1117 1.393 . S
C1121 C1120 1.391 . S
C1122 H1112 0.950 . S
C1122 C1123 1.386 . S
C1122 C1124 1.391 . S
C1123 C1122 1.386 . S
C1123 C1127 1.393 . S
C1124 H1113 0.950 . S
C1124 C1122 1.391 . S
C1124 C1125 1.400 . S
C1125 C1119 1.491 . S
C1125 C1124 1.400 . S
C1125 C1126 1.398 . S
C1126 H1114 0.950 . S
C1126 C1125 1.398 . S
C1126 C1127 1.391 . S
C1127 H1115 0.950 . S
C1127 C1123 1.393 . S
C1127 C1126 1.391 . S
H1128 C1136 0.950 . S
H1129 C1141 0.950 . S
H1130 C1138 0.950 . S
H1131 C1140 0.950 . S
H1132 C1142 0.950 . S
H1133 C1144 0.950 . S
H1134 C1146 0.950 . S
H1135 C1147 0.950 . S
C1136 H1128 0.950 . S
C1136 C1137 1.386 . S
C1136 C1138 1.391 . S
C1137 C1136 1.386 . S
C1137 C1141 1.393 . S
C1138 H1130 0.950 . S
C1138 C1136 1.391 . S
C1138 C1139 1.400 . S
C1139 C1138 1.400 . S
C1139 C1140 1.398 . S
C1139 C1145 1.491 . S
C1140 H1131 0.950 . S
C1140 C1139 1.398 . S
C1140 C1141 1.391 . S
C1141 H1129 0.950 . S
C1141 C1137 1.393 . S
C1141 C1140 1.391 . S
C1142 H1132 0.950 . S
C1142 C1143 1.386 . S
C1142 C1144 1.391 . S
C1143 C1142 1.386 . S
C1143 C1147 1.393 . S
C1144 H1133 0.950 . S
C1144 C1142 1.391 . S
C1144 C1145 1.400 . S
C1145 C1139 1.491 . S
C1145 C1144 1.400 . S
C1145 C1146 1.398 . S
C1146 H1134 0.950 . S
C1146 C1145 1.398 . S
C1146 C1147 1.391 . S
C1147 H1135 0.950 . S
C1147 C1143 1.393 . S
C1147 C1146 1.391 . S
H1148 C1156 0.950 . S
H1149 C1161 0.950 . S
H1150 C1158 0.950 . S
H1151 C1160 0.950 . S
H1152 C1162 0.950 . S
H1153 C1164 0.950 . S
H1154 C1166 0.950 . S
H1155 C1167 0.950 . S
C1156 H1148 0.950 . S
C1156 C1157 1.386 . S
C1156 C1158 1.391 . S
C1157 C1156 1.386 . S
C1157 C1161 1.393 . S
C1158 H1150 0.950 . S
C1158 C1156 1.391 . S
C1158 C1159 1.400 . S
C1159 C1158 1.400 . S
C1159 C1160 1.398 . S
C1159 C1165 1.491 . S
C1160 H1151 0.950 . S
C1160 C1159 1.398 . S
C1160 C1161 1.391 . S
C1161 H1149 0.950 . S
C1161 C1157 1.393 . S
C1161 C1160 1.391 . S
C1162 H1152 0.950 . S
C1162 C1163 1.386 . S
C1162 C1164 1.391 . S
C1163 C1162 1.386 . S
C1163 C1167 1.393 . S
C1164 H1153 0.950 . S
C1164 C1162 1.391 . S
C1164 C1165 1.400 . S
C1165 C1159 1.491 . S
C1165 C1164 1.400 . S
C1165 C1166 1.398 . S
C1166 H1154 0.950 . S
C1166 C1165 1.398 . S
C1166 C1167 1.391 . S
C1167 H1155 0.950 . S
C1167 C1163 1.393 . S
C1167 C1166 1.391 . S
H1168 C1176 0.950 . S
H1169 C1181 0.950 . S
H1170 C1178 0.950 . S
H1171 C1180 0.950 . S
H1172 C1182 0.950 . S
H1173 C1184 0.950 . S
H1174 C1186 0.950 . S
H1175 C1187 0.950 . S
C1176 H1168 0.950 . S
C1176 C1177 1.386 . S
C1176 C1178 1.391 . S
C1177 C1176 1.386 . S
C1177 C1181 1.393 . S
C1178 H1170 0.950 . S
C1178 C1176 1.391 . S
C1178 C1179 1.400 . S
C1179 C1178 1.400 . S
C1179 C1180 1.398 . S
C1179 C1185 1.491 . S
C1180 H1171 0.950 . S
C1180 C1179 1.398 . S
C1180 C1181 1.391 . S
C1181 H1169 0.950 . S
C1181 C1177 1.393 . S
C1181 C1180 1.391 . S
C1182 H1172 0.950 . S
C1182 C1183 1.386 . S
C1182 C1184 1.391 . S
C1183 C1182 1.386 . S
C1183 C1187 1.393 . S
C1184 H1173 0.950 . S
C1184 C1182 1.391 . S
C1184 C1185 1.400 . S
C1185 C1179 1.491 . S
C1185 C1184 1.400 . S
C1185 C1186 1.398 . S
C1186 H1174 0.950 . S
C1186 C1185 1.398 . S
C1186 C1187 1.391 . S
C1187 H1175 0.950 . S
C1187 C1183 1.393 . S
C1187 C1186 1.391 . S
H1188 C1196 0.950 . S
H1189 C1201 0.950 . S
H1190 C1198 0.950 . S
H1191 C1200 0.950 . S
H1192 C1202 0.950 . S
H1193 C1204 0.950 . S
H1194 C1206 0.950 . S
H1195 C1207 0.950 . S
C1196 H1188 0.950 . S
C1196 C1197 1.386 . S
C1196 C1198 1.391 . S
C1197 C1196 1.386 . S
C1197 C1201 1.393 . S
C1198 H1190 0.950 . S
C1198 C1196 1.391 . S
C1198 C1199 1.400 . S
C1199 C1198 1.400 . S
C1199 C1200 1.398 . S
C1199 C1205 1.491 . S
C1200 H1191 0.950 . S
C1200 C1199 1.398 . S
C1200 C1201 1.391 . S
C1201 H1189 0.950 . S
C1201 C1197 1.393 . S
C1201 C1200 1.391 . S
C1202 H1192 0.950 . S
C1202 C1203 1.386 . S
C1202 C1204 1.391 . S
C1203 C1202 1.386 . S
C1203 C1207 1.393 . S
C1204 H1193 0.950 . S
C1204 C1202 1.391 . S
C1204 C1205 1.400 . S
C1205 C1199 1.491 . S
C1205 C1204 1.400 . S
C1205 C1206 1.398 . S
C1206 H1194 0.950 . S
C1206 C1205 1.398 . S
C1206 C1207 1.391 . S
C1207 H1195 0.950 . S
C1207 C1203 1.393 . S
C1207 C1206 1.391 . S
H1208 C1216 0.950 . S
H1209 C1221 0.950 . S
H1210 C1218 0.950 . S
H1211 C1220 0.950 . S
H1212 C1222 0.950 . S
H1213 C1224 0.950 . S
H1214 C1226 0.950 . S
H1215 C1227 0.950 . S
C1216 H1208 0.950 . S
C1216 C1217 1.386 . S
C1216 C1218 1.391 . S
C1217 C1216 1.386 . S
C1217 C1221 1.393 . S
C1218 H1210 0.950 . S
C1218 C1216 1.391 . S
C1218 C1219 1.400 1_554 S
C1219 C1218 1.400 1_556 S
C1219 C1220 1.398 . S
C1219 C1225 1.491 . S
C1220 H1211 0.950 . S
C1220 C1219 1.398 . S
C1220 C1221 1.391 1_556 S
C1221 H1209 0.950 . S
C1221 C1217 1.393 . S
C1221 C1220 1.391 1_554 S
C1222 H1212 0.950 . S
C1222 C1223 1.386 . S
C1222 C1224 1.391 . S
C1223 C1222 1.386 . S
C1223 C1227 1.393 . S
C1224 H1213 0.950 . S
C1224 C1222 1.391 . S
C1224 C1225 1.400 . S
C1225 C1219 1.491 . S
C1225 C1224 1.400 . S
C1225 C1226 1.398 . S
C1226 H1214 0.950 . S
C1226 C1225 1.398 . S
C1226 C1227 1.391 . S
C1227 H1215 0.950 . S
C1227 C1223 1.393 . S
C1227 C1226 1.391 . S
H1228 C1236 0.950 . S
H1229 C1241 0.950 . S
H1230 C1238 0.950 . S
H1231 C1240 0.950 . S
H1232 C1242 0.950 . S
H1233 C1244 0.950 . S
H1234 C1246 0.950 . S
H1235 C1247 0.950 . S
C1236 H1228 0.950 . S
C1236 C1237 1.386 . S
C1236 C1238 1.391 . S
C1237 C1236 1.386 . S
C1237 C1241 1.393 . S
C1238 H1230 0.950 . S
C1238 C1236 1.391 . S
C1238 C1239 1.400 . S
C1239 C1238 1.400 . S
C1239 C1240 1.398 . S
C1239 C1245 1.491 . S
C1240 H1231 0.950 . S
C1240 C1239 1.398 . S
C1240 C1241 1.391 . S
C1241 H1229 0.950 . S
C1241 C1237 1.393 . S
C1241 C1240 1.391 . S
C1242 H1232 0.950 . S
C1242 C1243 1.386 . S
C1242 C1244 1.391 . S
C1243 C1242 1.386 . S
C1243 C1247 1.393 . S
C1244 H1233 0.950 . S
C1244 C1242 1.391 . S
C1244 C1245 1.400 . S
C1245 C1239 1.491 . S
C1245 C1244 1.400 . S
C1245 C1246 1.398 . S
C1246 H1234 0.950 . S
C1246 C1245 1.398 . S
C1246 C1247 1.391 . S
C1247 H1235 0.950 . S
C1247 C1243 1.393 . S
C1247 C1246 1.391 . S
C783 C759 1.297 . S
C777 C1 1.145 . S
C797 C169 1.509 . S
C803 C689 1.452 . S
C817 C283 1.461 . S
C823 C709 1.759 . S
C837 C397 1.285 . S
C843 C723 1.515 . S
C863 C731 1.159 . S
C857 C457 1.024 . S
C877 C571 1.088 . S
C883 C745 1.195 . S
C897 C115 1.194 . S
C903 C703 1.342 . S
C917 C229 1.039 . S
C923 C717 1.212 . S
C937 C343 1.016 . S
C943 C737 1.399 . S
C963 C751 1.603 . S
C957 C511 1.301 . S
C983 C765 1.719 . S
C977 C625 1.418 . S
C1003 C695 1.789 . S
C997 C55 1.508 . S
C1017 C29 1.110 . S
C1023 C702 1.372 . S
C1037 C125 0.963 . S
C1043 C716 1.464 . S
C1063 C738 1.408 . S
C1057 C239 0.848 . S
C1077 C353 0.896 . S
C1083 C752 1.407 . S
C1103 C766 1.323 . S
C1097 C485 1.008 . S
C1123 C696 1.366 . S
C1117 C599 1.082 . S
C1143 C758 1.377 . S
C1137 C143 1.130 . S
C1157 C257 1.119 . S
C1163 C688 1.368 . S
C1183 C710 1.327 . S
C1177 C371 1.052 . S
C1197 C467 0.919 . S
C1203 C724 1.409 . S
C1217 C581 0.903 . S
C1223 C730 1.432 . S
C1237 C11 0.962 . S
C1243 C744 1.467 . S
