# Generated by pormake.
# Topology zzz, (3,6)-cn, num edge types: 1
# Building blocks:
#     Node 0, Type 0, BuildingBlock: BETDAH_clean_linker_0, # of connection points: 3
#     Node 1, Type 0, BuildingBlock: BETDAH_clean_linker_0, # of connection points: 3
#     Node 2, Type 0, BuildingBlock: BETDAH_clean_linker_0, # of connection points: 3
#     Node 3, Type 0, BuildingBlock: BETDAH_clean_linker_0, # of connection points: 3
#     Node 4, Type 0, BuildingBlock: BETDAH_clean_linker_0, # of connection points: 3
#     Node 5, Type 0, BuildingBlock: BETDAH_clean_linker_0, # of connection points: 3
#     Node 6, Type 0, BuildingBlock: BETDAH_clean_linker_0, # of connection points: 3
#     Node 7, Type 0, BuildingBlock: BETDAH_clean_linker_0, # of connection points: 3
#     Node 8, Type 1, BuildingBlock: MIFKUJ_clean_sbu_0, # of connection points: 6
#     Node 9, Type 1, BuildingBlock: MIFKUJ_clean_sbu_0, # of connection points: 6
#     Node 10, Type 1, BuildingBlock: MIFKUJ_clean_sbu_0, # of connection points: 6
#     Node 11, Type 1, BuildingBlock: MIFKUJ_clean_sbu_0, # of connection points: 6
#     Edge 12, Type (0, 1), BuildingBlock: EZIPEK_clean_linker_0, # of connection points: 2
#     Edge 13, Type (0, 1), BuildingBlock: EZIPEK_clean_linker_0, # of connection points: 2
#     Edge 14, Type (0, 1), BuildingBlock: EZIPEK_clean_linker_0, # of connection points: 2
#     Edge 15, Type (0, 1), BuildingBlock: EZIPEK_clean_linker_0, # of connection points: 2
#     Edge 16, Type (0, 1), BuildingBlock: EZIPEK_clean_linker_0, # of connection points: 2
#     Edge 17, Type (0, 1), BuildingBlock: EZIPEK_clean_linker_0, # of connection points: 2
#     Edge 18, Type (0, 1), BuildingBlock: EZIPEK_clean_linker_0, # of connection points: 2
#     Edge 19, Type (0, 1), BuildingBlock: EZIPEK_clean_linker_0, # of connection points: 2
#     Edge 20, Type (0, 1), BuildingBlock: EZIPEK_clean_linker_0, # of connection points: 2
#     Edge 21, Type (0, 1), BuildingBlock: EZIPEK_clean_linker_0, # of connection points: 2
#     Edge 22, Type (0, 1), BuildingBlock: EZIPEK_clean_linker_0, # of connection points: 2
#     Edge 23, Type (0, 1), BuildingBlock: EZIPEK_clean_linker_0, # of connection points: 2
#     Edge 24, Type (0, 1), BuildingBlock: EZIPEK_clean_linker_0, # of connection points: 2
#     Edge 25, Type (0, 1), BuildingBlock: EZIPEK_clean_linker_0, # of connection points: 2
#     Edge 26, Type (0, 1), BuildingBlock: EZIPEK_clean_linker_0, # of connection points: 2
#     Edge 27, Type (0, 1), BuildingBlock: EZIPEK_clean_linker_0, # of connection points: 2
#     Edge 28, Type (0, 1), BuildingBlock: EZIPEK_clean_linker_0, # of connection points: 2
#     Edge 29, Type (0, 1), BuildingBlock: EZIPEK_clean_linker_0, # of connection points: 2
#     Edge 30, Type (0, 1), BuildingBlock: EZIPEK_clean_linker_0, # of connection points: 2
#     Edge 31, Type (0, 1), BuildingBlock: EZIPEK_clean_linker_0, # of connection points: 2
#     Edge 32, Type (0, 1), BuildingBlock: EZIPEK_clean_linker_0, # of connection points: 2
#     Edge 33, Type (0, 1), BuildingBlock: EZIPEK_clean_linker_0, # of connection points: 2
#     Edge 34, Type (0, 1), BuildingBlock: EZIPEK_clean_linker_0, # of connection points: 2
#     Edge 35, Type (0, 1), BuildingBlock: EZIPEK_clean_linker_0, # of connection points: 2
# Relax obj value: 0.124
# Max RMSD: 0.124
# Mean RMSD: 0.085
data_MOF--net-zzz--node1-MIFKUJ_clean_sbu_0--node2-BETDAH_clean_linker_0--edge1-EZIPEK_clean_linker_0
_symmetry_space_group_name_H-M    P1
_symmetry_Int_Tables_number       1
_symmetry_cell_setting            triclinic
loop_
_symmetry_equiv_pos_as_xyz
'x, y, z'
_cell_length_a     36.940449
_cell_length_b     37.247757
_cell_length_c     12.12253
_cell_angle_alpha  89.767098
_cell_angle_beta   89.994056
_cell_angle_gamma 90.597757
loop_
_atom_site_label
_atom_site_type_symbol
_atom_site_fract_x
_atom_site_fract_y
_atom_site_fract_z
_atom_type_partial_charge
H0 H 0.8276 0.55494 0.09453 0.0
H1 H 0.724 0.5459 0.94107 0.0
H2 H 0.73176 0.56854 0.29004 0.0
C3 C 0.79839 0.55768 0.09999 0.0
C4 C 0.78244 0.56276 0.20272 0.0
C5 C 0.77736 0.55034 0.00752 0.0
C6 C 0.73975 0.55213 0.01397 0.0
C7 C 0.72291 0.5604 0.11511 0.0
C8 C 0.74448 0.56526 0.21024 0.0
N9 N 0.68452 0.56125 0.124 0.0
C10 C 0.66203 0.5525 0.03561 0.0
H11 H 1.00028 0.83236 0.10474 0.0
H12 H 0.99326 0.7297 0.94973 0.0
H13 H 0.00923 0.73726 0.30316 0.0
C14 C 1.00026 0.80326 0.11171 0.0
C15 C 0.00486 0.7876 0.21493 0.0
C16 C 0.99716 0.78274 0.01654 0.0
C17 C 0.9965 0.74533 0.02424 0.0
C18 C 1.00038 0.72857 0.12833 0.0
C19 C 0.00515 0.74991 0.22357 0.0
N20 N 0.99997 0.69056 0.13907 0.0
C21 C 1.00122 0.66751 0.049 0.0
H22 H 0.67623 0.95036 0.08781 0.0
H23 H 0.77825 0.95804 0.92238 0.0
H24 H 0.7742 0.9427 0.27584 0.0
C25 C 0.70552 0.9479 0.09046 0.0
C26 C 0.72261 0.94494 0.19221 0.0
C27 C 0.7255 0.95382 -0.00552 0.0
C28 C 0.76326 0.95281 -0.00238 0.0
C29 C 0.78121 0.94758 0.09914 0.0
C30 C 0.76065 0.94374 0.19664 0.0
N31 N 0.8196 0.94935 0.1064 0.0
C32 C 0.84137 0.95925 0.01733 0.0
H33 H 0.50822 0.68678 0.09639 0.0
H34 H 0.49892 0.7884 0.9347 0.0
H35 H 0.48932 0.78094 0.2899 0.0
C36 C 0.50485 0.71568 0.10187 0.0
C37 C 0.49831 0.73091 0.20435 0.0
C38 C 0.50339 0.73582 0.00516 0.0
C39 C 0.4999 0.77307 0.01053 0.0
C40 C 0.49673 0.7899 0.11414 0.0
C41 C 0.49434 0.76847 0.21087 0.0
N42 N 0.49527 0.82795 0.12341 0.0
C43 C 0.49883 0.85199 0.03509 0.0
H44 H 0.17752 0.44648 0.16433 0.0
H45 H 0.28325 0.44813 0.30674 0.0
H46 H 0.27044 0.43795 0.95407 0.0
C47 C 0.20651 0.44286 0.15479 0.0
C48 C 0.22098 0.44158 0.04875 0.0
C49 C 0.22894 0.44815 0.24574 0.0
C50 C 0.2663 0.44439 0.23477 0.0
C51 C 0.28154 0.43866 0.12967 0.0
C52 C 0.25873 0.43832 0.03597 0.0
N53 N 0.3197 0.43668 0.11561 0.0
C54 C 0.34414 0.44702 0.19752 0.0
H55 H 0.98893 0.17729 0.1125 0.0
H56 H 1.00157 0.27881 0.27178 0.0
H57 H 0.03565 0.26621 0.93382 0.0
C58 C 0.99684 0.20544 0.10806 0.0
C59 C 0.01298 0.2187 0.01221 0.0
C60 C 0.99348 0.22675 0.20169 0.0
C61 C 0.0033 0.26298 0.19754 0.0
C62 C 0.01682 0.27795 0.09889 0.0
C63 C 0.02331 0.25528 0.00792 0.0
N64 N 0.02442 0.31535 0.08937 0.0
C65 C 0.01548 0.34073 0.16914 0.0
H66 H 0.32473 0.05557 0.13711 0.0
H67 H 0.22169 0.07012 0.28869 0.0
H68 H 0.23114 0.07149 0.93279 0.0
C69 C 0.29615 0.06176 0.12893 0.0
C70 C 0.28089 0.06422 0.0241 0.0
C71 C 0.27466 0.06208 0.2228 0.0
C72 C 0.23787 0.06961 0.21421 0.0
C73 C 0.22183 0.07372 0.10939 0.0
C74 C 0.24351 0.07069 0.01375 0.0
N75 N 0.18373 0.07775 0.09904 0.0
C76 C 0.16008 0.06804 0.18401 0.0
H77 H 0.50294 0.33588 0.11702 0.0
H78 H 0.50455 0.23095 0.2615 0.0
H79 H 0.47561 0.2444 0.91814 0.0
C80 C 0.49897 0.30707 0.10881 0.0
C81 C 0.48877 0.29305 0.00702 0.0
C82 C 0.50473 0.28482 0.1999 0.0
C83 C 0.50022 0.2477 0.18981 0.0
C84 C 0.48969 0.23272 0.08801 0.0
C85 C 0.48349 0.25566 -0.00308 0.0
N86 N 0.48576 0.19491 0.07464 0.0
C87 C 0.49194 0.16991 0.15851 0.0
Zn88 Zn 0.9889 0.04608 0.56197 0.0
Zn89 Zn 0.01718 0.9665 0.64696 0.0
C90 C 0.99261 0.09931 0.72896 0.0
O91 O 0.9587 0.10097 0.69785 0.0
C92 C 0.02025 0.91021 0.49325 0.0
O93 O 0.05255 0.91071 0.53796 0.0
O94 O 0.96852 0.0872 0.47919 0.0
O95 O 0.0283 0.02579 0.46536 0.0
O96 O 0.06024 0.99762 0.59241 0.0
C97 C 0.97798 0.09688 0.38337 0.0
O98 O 0.99759 0.07543 0.32246 0.0
O99 O 0.0121 0.07422 0.69045 0.0
C100 C 0.00659 0.90728 0.76542 0.0
O101 O 0.97616 0.91788 0.72211 0.0
O102 O 0.03434 0.92741 0.75318 0.0
O103 O 0.97473 0.98841 0.73395 0.0
O104 O 0.945 0.01599 0.6025 0.0
O105 O 0.99838 0.93527 0.51726 0.0
C106 C 0.05861 0.01547 0.50259 0.0
C107 C 0.94498 0.99895 0.69294 0.0
Zn108 Zn 0.44835 0.01088 0.59025 0.0
Zn109 Zn 0.5567 0.01275 0.62572 0.0
C110 C 0.40401 0.0172 0.78237 0.0
O111 O 0.40687 0.98214 0.77593 0.0
C112 C 0.61919 0.98661 0.52045 0.0
O113 O 0.63206 0.01302 0.58047 0.0
O114 O 0.41095 0.00922 0.47128 0.0
O115 O 0.4884 0.04196 0.53288 0.0
O116 O 0.54581 0.05565 0.52848 0.0
C117 C 0.37906 0.99883 0.49512 0.0
O118 O 0.37328 0.9797 0.5844 0.0
O119 O 0.4225 0.03581 0.71464 0.0
C120 C 0.59874 0.99931 0.80451 0.0
O121 O 0.59275 0.03069 0.75921 0.0
O122 O 0.59125 0.02845 0.75507 0.0
O123 O 0.51319 0.99164 0.70832 0.0
O124 O 0.46648 0.96257 0.64342 0.0
O125 O 0.58554 0.97871 0.52696 0.0
C126 C 0.5138 0.06178 0.49623 0.0
C127 C 0.49609 0.96208 0.69687 0.0
Zn128 Zn 0.51655 0.46666 0.56724 0.0
Zn129 Zn 0.48971 0.55055 0.64493 0.0
C130 C 0.50957 0.42027 0.75558 0.0
O131 O 0.54372 0.42935 0.7657 0.0
C132 C 0.48573 0.60901 0.49239 0.0
O133 O 0.45318 0.60835 0.53561 0.0
O134 O 0.53543 0.42545 0.48265 0.0
O135 O 0.48095 0.49191 0.46685 0.0
O136 O 0.44752 0.51813 0.5928 0.0
C137 C 0.51119 0.40705 0.43435 0.0
O138 O 0.4782 0.41965 0.4281 0.0
O139 O 0.49025 0.43723 0.68633 0.0
C140 C 0.49814 0.60911 0.76524 0.0
O141 O 0.52894 0.5998 0.72153 0.0
O142 O 0.47122 0.58798 0.75273 0.0
O143 O 0.53343 0.53033 0.7299 0.0
O144 O 0.56142 0.49282 0.61976 0.0
O145 O 0.5074 0.58363 0.51607 0.0
C146 C 0.45002 0.50004 0.50427 0.0
C147 C 0.56193 0.51394 0.70127 0.0
Zn148 Zn 0.05802 0.50984 0.59392 0.0
Zn149 Zn 0.95486 0.5066 0.61895 0.0
C150 C 0.11263 0.4953 0.75493 0.0
O151 O 0.12626 0.52424 0.70826 0.0
C152 C 0.90253 0.51816 0.46344 0.0
O153 O 0.89752 0.48556 0.50285 0.0
O154 O 0.10288 0.52235 0.50951 0.0
O155 O 0.0314 0.4724 0.50297 0.0
O156 O 0.97303 0.463 0.537 0.0
C157 C 0.10996 0.51174 0.41322 0.0
O158 O 0.08361 0.50084 0.34908 0.0
O159 O 0.08091 0.48451 0.72798 0.0
C160 C 0.89756 0.52077 0.75625 0.0
O161 O 0.91505 0.55154 0.75028 0.0
O162 O 0.91155 0.49319 0.71276 0.0
O163 O 0.98513 0.53854 0.72064 0.0
O164 O 0.03488 0.55719 0.63522 0.0
O165 O 0.92974 0.53574 0.49961 0.0
C166 C 1.00214 0.45482 0.48765 0.0
C167 C 0.01118 0.56081 0.71006 0.0
C168 C 0.12457 0.01813 0.26646 0.0
C169 C 0.13783 0.05382 0.27357 0.0
C170 C 0.10673 0.06113 0.45149 0.0
C171 C 0.09188 0.02607 0.44014 0.0
N172 N 0.0993 0.96734 0.36515 0.0
N173 N 0.14836 0.10712 0.38116 0.0
C174 C 0.10458 0.00339 0.35591 0.0
C175 C 0.13117 0.07468 0.36926 0.0
N176 N 0.13015 0.99848 0.17303 0.0
N177 N 0.09736 0.0811 0.54116 0.0
H178 H 0.16597 0.11762 0.32161 0.0
H179 H 0.14682 0.12293 0.45142 0.0
H180 H 0.08127 0.07068 0.60465 0.0
H181 H 0.10483 0.10781 0.55275 0.0
H182 H 0.11743 0.97384 0.1586 0.0
H183 H 0.14543 0.00791 0.10635 0.0
H184 H 0.11158 0.94882 0.31338 0.0
H185 H 0.08634 0.95616 0.43344 0.0
C186 C 0.47484 0.11165 0.24597 0.0
C187 C 0.49719 0.14277 0.24398 0.0
C188 C 0.52544 0.12369 0.41697 0.0
C189 C 0.50676 0.09016 0.41135 0.0
N190 N 0.47023 0.0494 0.30096 0.0
N191 N 0.55008 0.17384 0.31286 0.0
C192 C 0.48299 0.08334 0.3209 0.0
C193 C 0.52441 0.14748 0.32503 0.0
N194 N 0.44593 0.10889 0.17604 0.0
N195 N 0.54291 0.13366 0.51151 0.0
H196 H 0.55131 0.19048 0.24352 0.0
H197 H 0.57234 0.17639 0.36517 0.0
H198 H 0.54235 0.11819 0.58336 0.0
H199 H 0.55423 0.15915 0.52248 0.0
H200 H 0.42652 0.08847 0.18234 0.0
H201 H 0.43971 0.12862 0.11789 0.0
H202 H 0.45561 0.04267 0.23036 0.0
H203 H 0.47781 0.02704 0.34697 0.0
C204 C 0.38618 0.49457 0.26198 0.0
C205 C 0.36852 0.46126 0.2814 0.0
C206 C 0.39944 0.45605 0.46041 0.0
C207 C 0.41725 0.48937 0.43979 0.0
N208 N 0.41683 0.54551 0.34322 0.0
N209 N 0.35229 0.41338 0.40673 0.0
C210 C 0.40745 0.51013 0.34697 0.0
C211 C 0.37322 0.44292 0.38331 0.0
N212 N 0.38347 0.51105 0.16135 0.0
N213 N 0.40811 0.43683 0.55269 0.0
H214 H 0.33364 0.40272 0.3508 0.0
H215 H 0.35164 0.40081 0.48352 0.0
H216 H 0.42502 0.44717 0.61393 0.0
H217 H 0.39962 0.4105 0.56709 0.0
H218 H 0.39921 0.53329 0.1389 0.0
H219 H 0.36762 0.50089 0.0972 0.0
H220 H 0.40674 0.56318 0.28421 0.0
H221 H 0.43086 0.55772 0.40769 0.0
C222 C 0.02679 0.40341 0.22905 0.0
C223 C 0.00896 0.37006 0.2458 0.0
C224 C 0.98561 0.39155 0.42283 0.0
C225 C 1.00179 0.42579 0.40268 0.0
N226 N 0.02331 0.46696 0.26256 0.0
N227 N 0.96093 0.33768 0.33848 0.0
C228 C 0.01834 0.43256 0.29883 0.0
C229 C 0.98509 0.36562 0.33659 0.0
N230 N 0.05179 0.40755 0.14678 0.0
N231 N 0.97194 0.38311 0.5244 0.0
H232 H 0.95781 0.32035 0.27176 0.0
H233 H 0.94104 0.33476 0.39893 0.0
H234 H 0.97296 0.40067 0.59103 0.0
H235 H 0.96276 0.35739 0.54502 0.0
H236 H 0.06799 0.43055 0.13921 0.0
H237 H 0.05825 0.38708 0.09188 0.0
H238 H 0.03243 0.47314 0.18324 0.0
H239 H 0.0143 0.48908 0.30707 0.0
C240 C 0.86793 0.00726 0.89864 0.0
C241 C 0.86231 0.97019 0.9212 0.0
C242 C 0.89821 0.95464 0.75901 0.0
C243 C 0.91044 0.99062 0.75221 0.0
N244 N 0.89739 0.05258 0.78325 0.0
N245 N 0.86852 0.90824 0.8682 0.0
C246 C 0.89225 0.01754 0.81233 0.0
C247 C 0.87603 0.94374 0.84912 0.0
N248 N 0.84972 0.03224 0.95901 0.0
N249 N 0.9059 0.93178 0.67479 0.0
H250 H 0.8515 0.89942 0.93167 0.0
H251 H 0.88059 0.88747 0.82489 0.0
H252 H 0.92033 0.94034 0.60523 0.0
H253 H 0.89542 0.9058 0.66884 0.0
H254 H 0.8521 0.05984 0.94802 0.0
H255 H 0.83108 0.0252 0.0203 0.0
H256 H 0.88733 0.07447 0.82591 0.0
H257 H 0.90973 0.05936 0.7089 0.0
C258 C 0.51926 0.87527 0.85086 0.0
C259 C 0.50033 0.88036 0.95139 0.0
C260 C 0.48481 0.94145 0.89284 0.0
C261 C 0.49916 0.93449 0.78601 0.0
N262 N 0.52782 0.89379 0.66004 0.0
N263 N 0.4622 0.91695 0.06554 0.0
C264 C 0.51571 0.90104 0.76404 0.0
C265 C 0.48238 0.91311 0.97171 0.0
N266 N 0.54175 0.84662 0.83997 0.0
N267 N 0.47422 0.9753 0.9204 0.0
H268 H 0.46065 0.89738 0.12723 0.0
H269 H 0.44489 0.9384 0.07878 0.0
H270 H 0.47428 0.99679 0.86527 0.0
H271 H 0.46804 0.9829 0.00077 0.0
H272 H 0.55873 0.84299 0.77247 0.0
H273 H 0.54624 0.82843 0.904 0.0
H274 H 0.5365 0.86854 0.63553 0.0
H275 H 0.52699 0.91255 0.59594 0.0
C276 C 0.63584 0.50511 0.91521 0.0
C277 C 0.64185 0.54206 0.93761 0.0
C278 C 0.60784 0.55828 0.77158 0.0
C279 C 0.59628 0.52209 0.762 0.0
N280 N 0.61428 0.46068 0.78415 0.0
N281 N 0.63848 0.60401 0.88094 0.0
C282 C 0.61473 0.49514 0.8217 0.0
C283 C 0.62972 0.56876 0.86292 0.0
N284 N 0.64973 0.47966 0.98447 0.0
N285 N 0.59975 0.58172 0.68854 0.0
H286 H 0.65519 0.61231 0.94559 0.0
H287 H 0.62842 0.62525 0.83464 0.0
H288 H 0.5858 0.57342 0.61797 0.0
H289 H 0.60902 0.60815 0.68445 0.0
H290 H 0.64306 0.45249 0.98013 0.0
H291 H 0.66673 0.48599 0.05052 0.0
H292 H 0.62899 0.43994 0.81955 0.0
H293 H 0.60309 0.45391 0.70813 0.0
C294 C 0.03686 0.6225 0.94794 0.0
C295 C 0.00522 0.64344 0.95567 0.0
C296 C 0.98145 0.61598 0.78613 0.0
C297 C 0.01177 0.59283 0.78389 0.0
N298 N 0.07339 0.58248 0.83966 0.0
N299 N 0.94698 0.66089 0.88555 0.0
C300 C 0.04103 0.59867 0.85774 0.0
C301 C 0.97753 0.64074 0.87487 0.0
N302 N 0.06217 0.62388 0.03036 0.0
N303 N 0.95769 0.61555 0.69961 0.0
H304 H 0.94376 0.67974 0.94812 0.0
H305 H 0.92405 0.65786 0.83658 0.0
H306 H 0.96104 0.59886 0.63149 0.0
H307 H 0.93645 0.6334 0.69008 0.0
H308 H 0.08325 0.60569 0.03782 0.0
H309 H 0.06075 0.64171 0.09635 0.0
H310 H 0.09723 0.59 0.87955 0.0
H311 H 0.07729 0.56384 0.77765 0.0
C312 C 0.95007 0.19185 0.31129 0.0
C313 C 0.98472 0.20791 0.30514 0.0
C314 C 0.01291 0.15433 0.3773 0.0
C315 C 0.97936 0.13577 0.36298 0.0
N316 N 0.91439 0.13748 0.34356 0.0
N317 N 0.04439 0.212 0.37958 0.0
C318 C 0.94711 0.15493 0.34073 0.0
C319 C 0.01447 0.19164 0.35614 0.0
N320 N 0.92095 0.21178 0.28066 0.0
N321 N 0.04309 0.13624 0.40997 0.0
H322 H 0.04507 0.23956 0.36395 0.0
H323 H 0.06671 0.20264 0.42299 0.0
H324 H 0.04237 0.10945 0.43465 0.0
H325 H 0.06905 0.14737 0.40974 0.0
H326 H 0.89443 0.20224 0.27763 0.0
H327 H 0.92403 0.23892 0.26011 0.0
H328 H 0.88969 0.14983 0.32985 0.0
H329 H 0.91183 0.11018 0.36199 0.0
C330 C 0.2903 0.01108 0.34338 0.0
C331 C 0.29137 0.04865 0.32509 0.0
C332 C 0.3451 0.05404 0.4411 0.0
C333 C 0.34805 0.01592 0.4404 0.0
N334 N 0.32454 0.95784 0.38758 0.0
N335 N 0.3178 0.10669 0.35851 0.0
C336 C 0.32056 0.99426 0.39255 0.0
C337 C 0.31786 0.07045 0.37658 0.0
N338 N 0.26075 0.99148 0.31077 0.0
N339 N 0.36774 0.07444 0.50501 0.0
H340 H 0.29667 0.11935 0.31697 0.0
H341 H 0.33904 0.12383 0.3803 0.0
H342 H 0.38782 0.06357 0.55465 0.0
H343 H 0.3647 0.10192 0.51659 0.0
H344 H 0.25691 0.96447 0.33028 0.0
H345 H 0.23826 0.0031 0.27376 0.0
H346 H 0.30748 0.941 0.34253 0.0
H347 H 0.3467 0.94454 0.42112 0.0
C348 C 0.48866 0.31041 0.38179 0.0
C349 C 0.51572 0.30235 0.30381 0.0
C350 C 0.54721 0.35877 0.33982 0.0
C351 C 0.51748 0.36912 0.40631 0.0
N352 N 0.46934 0.34969 0.52855 0.0
N353 N 0.5774 0.30957 0.24746 0.0
C354 C 0.49138 0.34307 0.44057 0.0
C355 C 0.5478 0.32318 0.29914 0.0
N356 N 0.45912 0.28839 0.39289 0.0
N357 N 0.57279 0.38332 0.307 0.0
H358 H 0.57704 0.28362 0.21502 0.0
H359 H 0.6026 0.32239 0.24654 0.0
H360 H 0.57281 0.41006 0.33155 0.0
H361 H 0.59271 0.37774 0.24891 0.0
H362 H 0.43613 0.29526 0.43752 0.0
H363 H 0.4573 0.26352 0.35418 0.0
H364 H 0.45198 0.33048 0.56289 0.0
H365 H 0.47125 0.37322 0.57452 0.0
C366 C 0.18628 0.44501 0.39883 0.0
C367 C 0.2121 0.46572 0.3414 0.0
C368 C 0.17494 0.51935 0.35937 0.0
C369 C 0.14624 0.49691 0.39672 0.0
N370 N 0.12406 0.43883 0.45845 0.0
N371 N 0.23806 0.5236 0.30212 0.0
C372 C 0.15198 0.45997 0.421 0.0
C373 C 0.20886 0.50352 0.33509 0.0
N374 N 0.1947 0.41063 0.42728 0.0
N375 N 0.16894 0.55506 0.34126 0.0
H376 H 0.26313 0.51205 0.2867 0.0
H377 H 0.23856 0.55148 0.29789 0.0
H378 H 0.14429 0.56718 0.35916 0.0
H379 H 0.18762 0.57263 0.3055 0.0
H380 H 0.17837 0.39411 0.47617 0.0
H381 H 0.22007 0.40004 0.40879 0.0
H382 H 0.1253 0.41101 0.46485 0.0
H383 H 0.09882 0.4489 0.47984 0.0
C384 C 0.02783 0.81102 0.85599 0.0
C385 C 0.99508 0.80299 0.91189 0.0
C386 C 0.97403 0.86339 0.88282 0.0
C387 C 0.00616 0.87228 0.82401 0.0
N388 N 0.06113 0.85152 0.73609 0.0
N389 N 0.93245 0.81612 0.93806 0.0
C390 C 0.03235 0.84517 0.80411 0.0
C391 C 0.96623 0.82716 0.90689 0.0
N392 N 0.0553 0.78682 0.85871 0.0
N393 N 0.95251 0.88974 0.92424 0.0
H394 H 0.92716 0.78941 0.96005 0.0
H395 H 0.90983 0.83254 0.9317 0.0
H396 H 0.95911 0.91698 0.91763 0.0
H397 H 0.93089 0.88428 0.97719 0.0
H398 H 0.08156 0.79266 0.83246 0.0
H399 H 0.05179 0.76103 0.89102 0.0
H400 H 0.07788 0.83127 0.70733 0.0
H401 H 0.06765 0.87669 0.70466 0.0
C402 C 0.68292 0.94348 0.84244 0.0
C403 C 0.70527 0.96798 0.89939 0.0
C404 C 0.65976 0.01454 0.8876 0.0
C405 C 0.6358 0.98945 0.83716 0.0
N406 N 0.62466 0.93099 0.75695 0.0
N407 N 0.72183 0.02905 0.93664 0.0
C408 C 0.64761 0.95422 0.8103 0.0
C409 C 0.69609 0.00453 0.90596 0.0
N410 N 0.69553 0.90965 0.82463 0.0
N411 N 0.64711 0.0461 0.92893 0.0
H412 H 0.74856 0.02165 0.9516 0.0
H413 H 0.7176 0.05667 0.93562 0.0
H414 H 0.61977 0.05271 0.92908 0.0
H415 H 0.66293 0.06373 0.97536 0.0
H416 H 0.6809 0.88898 0.78771 0.0
H417 H 0.72195 0.9027 0.84607 0.0
H418 H 0.63142 0.90516 0.73311 0.0
H419 H 0.59826 0.93759 0.73471 0.0
C420 C 0.5345 0.69384 0.88838 0.0
C421 C 0.50372 0.7151 0.90166 0.0
C422 C 0.46752 0.66891 0.80749 0.0
C423 C 0.49682 0.64456 0.82059 0.0
N424 N 0.55427 0.63313 0.90985 0.0
N425 N 0.44011 0.72395 0.87177 0.0
C426 C 0.52947 0.65688 0.87026 0.0
C427 C 0.47007 0.7033 0.85812 0.0
N428 N 0.56799 0.7082 0.90732 0.0
N429 N 0.43764 0.65997 0.74696 0.0
H430 H 0.44164 0.74992 0.90335 0.0
H431 H 0.41388 0.71478 0.85601 0.0
H432 H 0.43293 0.6347 0.71414 0.0
H433 H 0.41815 0.67861 0.72417 0.0
H434 H 0.5917 0.6938 0.89466 0.0
H435 H 0.57144 0.73543 0.9254 0.0
H436 H 0.57662 0.64128 0.95627 0.0
H437 H 0.54981 0.60541 0.90987 0.0
C438 C 0.80635 0.55815 0.82375 0.0
C439 C 0.7961 0.53526 0.91129 0.0
C440 C 0.84748 0.49619 0.87747 0.0
C441 C 0.85968 0.52077 0.79555 0.0
N442 N 0.84417 0.56681 0.66317 0.0
N443 N 0.79748 0.47668 -0.00595 0.0
C444 C 0.83673 0.54893 0.75912 0.0
C445 C 0.81325 0.50184 0.92683 0.0
N446 N 0.78863 0.58973 0.80748 0.0
N447 N 0.86956 0.46964 0.91527 0.0
H448 H 0.77249 0.48103 0.03179 0.0
H449 H 0.80726 0.45072 0.00341 0.0
H450 H 0.89522 0.46493 0.88324 0.0
H451 H 0.86348 0.45383 0.98399 0.0
H452 H 0.79778 0.60983 0.75408 0.0
H453 H 0.76537 0.59633 0.85142 0.0
H454 H 0.82682 0.58541 0.62747 0.0
H455 H 0.86613 0.56032 0.61378 0.0
C456 C 0.03688 0.15975 0.94653 0.0
C457 C 0.01883 0.19242 0.92105 0.0
C458 C 0.99871 0.16582 0.74752 0.0
C459 C 0.00836 0.13118 0.78665 0.0
N460 N 0.03672 0.09494 0.92684 0.0
N461 N 0.98013 0.2255 0.7968 0.0
C462 C 0.02825 0.12804 0.88608 0.0
C463 C 0.99975 0.19552 0.82018 0.0
N464 N 0.06146 0.15911 0.03066 0.0
N465 N 0.98834 0.17026 0.64042 0.0
H466 H 0.97929 0.24787 0.84774 0.0
H467 H 0.96227 0.22701 0.73043 0.0
H468 H 0.9878 0.14899 0.5852 0.0
H469 H 0.98428 0.19532 0.60417 0.0
H470 H 0.07734 0.13691 0.04886 0.0
H471 H 0.06835 0.18216 0.07507 0.0
H472 H 0.0474 0.09094 0.00542 0.0
H473 H 0.03079 0.07121 0.88505 0.0
C474 C 0.31656 0.01686 0.93934 0.0
C475 C 0.30467 0.05265 0.93215 0.0
C476 C 0.36003 0.06855 0.82917 0.0
C477 C 0.37343 0.03301 0.84801 0.0
N478 N 0.36948 0.98124 0.96853 0.0
N479 N 0.3143 0.11326 0.87193 0.0
C480 C 0.35306 0.00925 0.91626 0.0
C481 C 0.32592 0.07858 0.87537 0.0
N482 N 0.29354 0.99069 0.97712 0.0
N483 N 0.38023 0.09335 0.77252 0.0
H484 H 0.28876 0.12047 0.9007 0.0
H485 H 0.3299 0.13484 0.8438 0.0
H486 H 0.40822 0.09195 0.76514 0.0
H487 H 0.36941 0.11648 0.73776 0.0
H488 H 0.30039 0.9636 0.97829 0.0
H489 H 0.26658 0.99604 -0.00348 0.0
H490 H 0.35615 0.96482 0.02572 0.0
H491 H 0.39749 0.97803 0.96779 0.0
C492 C 0.46032 0.3471 0.92196 0.0
C493 C 0.48605 0.31914 0.91357 0.0
C494 C 0.51857 0.35393 0.77252 0.0
C495 C 0.49766 0.38458 0.79904 0.0
N496 N 0.44784 0.41061 0.89769 0.0
N497 N 0.5404 0.29593 0.831 0.0
C498 C 0.46772 0.38109 0.8716 0.0
C499 C 0.51489 0.32217 0.83687 0.0
N500 N 0.42929 0.34107 0.98073 0.0
N501 N 0.5418 0.35505 0.68477 0.0
H502 H 0.53839 0.27175 0.87399 0.0
H503 H 0.56471 0.29898 0.78826 0.0
H504 H 0.54534 0.37776 0.63549 0.0
H505 H 0.55461 0.33246 0.65368 0.0
H506 H 0.40802 0.35915 0.98437 0.0
H507 H 0.42361 0.31627 0.01773 0.0
H508 H 0.42827 0.4108 0.95947 0.0
H509 H 0.45245 0.43573 0.86178 0.0
C510 C 0.18096 0.43086 0.88106 0.0
C511 C 0.19664 0.45459 0.95935 0.0
C512 C 0.14845 0.49753 0.92569 0.0
C513 C 0.13542 0.47662 0.83744 0.0
N514 N 0.14043 0.42387 0.72427 0.0
N515 N 0.20063 0.51467 0.03303 0.0
C516 C 0.15193 0.44324 0.8131 0.0
C517 C 0.18219 0.48944 0.97314 0.0
N518 N 0.19317 0.39651 0.87359 0.0
N519 N 0.1276 0.52423 0.96741 0.0
H520 H 0.22627 0.50995 0.06592 0.0
H521 H 0.19216 0.54119 0.03965 0.0
H522 H 0.10112 0.52789 0.94026 0.0
H523 H 0.13459 0.53876 0.03774 0.0
H524 H 0.18051 0.37679 0.82617 0.0
H525 H 0.21513 0.3874 0.91961 0.0
H526 H 0.15408 0.40165 0.69404 0.0
H527 H 0.11775 0.431 0.67843 0.0
C528 C 0.03982 0.83849 0.29084 0.0
C529 C 0.01158 0.81303 0.30753 0.0
C530 C 0.98545 0.85287 0.44712 0.0
C531 C 0.01117 0.87998 0.41778 0.0
N532 N 0.05295 0.90189 0.28186 0.0
N533 N 0.95541 0.79694 0.39701 0.0
C534 C 0.03571 0.87363 0.33132 0.0
C535 C 0.98397 0.82022 0.38569 0.0
N536 N 0.06959 0.82951 0.23065 0.0
N537 N 0.96228 0.85831 0.53261 0.0
H538 H 0.95399 0.77244 0.35603 0.0
H539 H 0.93237 0.80262 0.443 0.0
H540 H 0.95865 0.88353 0.56646 0.0
H541 H 0.94695 0.83791 0.56939 0.0
H542 H 0.09185 0.84669 0.22107 0.0
H543 H 0.07315 0.80361 0.19999 0.0
H544 H 0.06928 0.89923 0.21226 0.0
H545 H 0.04616 0.92823 0.30132 0.0
C546 C 0.69227 0.99031 0.30679 0.0
C547 C 0.69995 0.95356 0.28949 0.0
C548 C 0.6513 0.93655 0.41895 0.0
C549 C 0.64258 0.97339 0.43017 0.0
N550 N 0.64668 0.03337 0.35556 0.0
N551 N 0.68383 0.89131 0.31506 0.0
C552 C 0.66079 0.99969 0.36557 0.0
C553 C 0.67861 0.92647 0.34179 0.0
N554 N 0.71482 0.01642 0.26538 0.0
N555 N 0.63403 0.91143 0.48278 0.0
H556 H 0.70466 0.88324 0.26283 0.0
H557 H 0.66662 0.87051 0.34003 0.0
H558 H 0.61251 0.91774 0.53449 0.0
H559 H 0.64187 0.88471 0.48768 0.0
H560 H 0.71238 0.04349 0.28516 0.0
H561 H 0.73799 0.01087 0.21973 0.0
H562 H 0.65676 0.05264 0.30078 0.0
H563 H 0.62222 0.04059 0.39203 0.0
C564 C 0.51775 0.70077 0.38337 0.0
C565 C 0.49214 0.70483 0.29685 0.0
C566 C 0.47347 0.64231 0.32066 0.0
C567 C 0.49502 0.63907 0.41553 0.0
N568 N 0.53725 0.66626 0.54231 0.0
N569 N 0.43827 0.68207 0.20731 0.0
C570 C 0.51693 0.66875 0.44905 0.0
C571 C 0.46706 0.67657 0.27566 0.0
N572 N 0.54388 0.7264 0.3993 0.0
N573 N 0.46168 0.61222 0.2679 0.0
H574 H 0.43274 0.70729 0.17368 0.0
H575 H 0.4184 0.66249 0.19358 0.0
H576 H 0.47097 0.58697 0.2915 0.0
H577 H 0.44792 0.61294 0.19281 0.0
H578 H 0.56561 0.72315 0.45302 0.0
H579 H 0.54485 0.75028 0.35434 0.0
H580 H 0.54951 0.68827 0.58039 0.0
H581 H 0.54145 0.64184 0.58124 0.0
C582 C 0.83259 0.58187 0.32946 0.0
C583 C 0.80651 0.5556 0.29828 0.0
C584 C 0.84901 0.50851 0.34288 0.0
C585 C 0.87354 0.53362 0.39051 0.0
N586 N 0.88815 0.59655 0.42587 0.0
N587 N 0.78653 0.49396 0.30611 0.0
C588 C 0.86531 0.5711 0.38325 0.0
C589 C 0.81342 0.51902 0.31824 0.0
N590 N 0.82669 0.61695 0.30244 0.0
N591 N 0.86052 0.47524 0.31245 0.0
H592 H 0.75995 0.50089 0.28739 0.0
H593 H 0.79007 0.46698 0.32638 0.0
H594 H 0.88774 0.46806 0.3155 0.0
H595 H 0.8441 0.45706 0.2698 0.0
H596 H 0.84632 0.6371 0.30865 0.0
H597 H 0.80216 0.62539 0.26883 0.0
H598 H 0.88056 0.62308 0.4381 0.0
H599 H 0.91459 0.59171 0.44999 0.0
loop_
_geom_bond_atom_site_label_1
_geom_bond_atom_site_label_2
_geom_bond_distance
_geom_bond_site_symmetry_2
_ccdc_geom_bond_type
H0 C3 0.929 . S
H1 C6 0.929 . S
H2 C8 0.930 . S
C3 H0 0.929 . S
C3 C4 1.398 . S
C3 C5 1.396 1_554 S
C4 C3 1.398 . S
C4 C8 1.407 . S
C5 C3 1.396 1_556 S
C5 C6 1.394 . S
C6 H1 0.929 . S
C6 C5 1.394 . S
C6 C7 1.382 1_556 S
C7 C6 1.382 1_554 S
C7 C8 1.392 . S
C7 N9 1.420 . S
C8 H2 0.930 . S
C8 C4 1.407 . S
C8 C7 1.392 . S
N9 C7 1.420 . S
N9 C10 1.244 1_554 S
C10 N9 1.244 1_556 S
H11 C14 0.929 . S
H12 C17 0.929 . S
H13 C19 0.930 . S
C14 H11 0.929 . S
C14 C15 1.398 1_655 S
C14 C16 1.394 1_654 S
C15 C14 1.398 1_455 S
C15 C19 1.407 . S
C16 C14 1.394 1_456 S
C16 C17 1.397 . S
C17 H12 0.929 . S
C17 C16 1.397 . S
C17 C18 1.382 1_556 S
C18 C17 1.382 1_554 S
C18 C19 1.392 . S
C18 N20 1.420 . S
C19 H13 0.930 . S
C19 C15 1.407 . S
C19 C18 1.392 . S
N20 C18 1.420 . S
N20 C21 1.232 1_454 S
C21 N20 1.232 1_656 S
H22 C25 0.929 . S
H23 C28 0.929 . S
H24 C30 0.930 . S
C25 H22 0.929 . S
C25 C26 1.398 . S
C25 C27 1.396 1_554 S
C26 C25 1.398 . S
C26 C30 1.407 . S
C27 C25 1.396 1_556 S
C27 C28 1.394 . S
C28 H23 0.929 . S
C28 C27 1.394 . S
C28 C29 1.382 1_556 S
C29 C28 1.382 1_554 S
C29 C30 1.392 . S
C29 N31 1.420 . S
C30 H24 0.930 . S
C30 C26 1.407 . S
C30 C29 1.392 . S
N31 C29 1.420 . S
N31 C32 1.244 1_554 S
C32 N31 1.244 1_556 S
H33 C36 0.929 . S
H34 C39 0.929 . S
H35 C41 0.930 . S
C36 H33 0.929 . S
C36 C37 1.398 . S
C36 C38 1.396 1_554 S
C37 C36 1.398 . S
C37 C41 1.407 . S
C38 C36 1.396 1_556 S
C38 C39 1.394 . S
C39 H34 0.929 . S
C39 C38 1.394 . S
C39 C40 1.382 1_556 S
C40 C39 1.382 1_554 S
C40 C41 1.392 . S
C40 N42 1.420 . S
C41 H35 0.930 . S
C41 C37 1.407 . S
C41 C40 1.392 . S
N42 C40 1.420 . S
N42 C43 1.244 1_554 S
C43 N42 1.244 1_556 S
H44 C47 0.929 . S
H45 C50 0.929 . S
H46 C52 0.930 . S
C47 H44 0.929 . S
C47 C48 1.398 . S
C47 C49 1.396 . S
C48 C47 1.398 . S
C48 C52 1.407 . S
C49 C47 1.396 . S
C49 C50 1.394 . S
C50 H45 0.929 . S
C50 C49 1.394 . S
C50 C51 1.382 . S
C51 C50 1.382 . S
C51 C52 1.392 . S
C51 N53 1.420 . S
C52 H46 0.930 . S
C52 C48 1.407 . S
C52 C51 1.392 . S
N53 C51 1.420 . S
N53 C54 1.244 . S
C54 N53 1.244 . S
H55 C58 0.929 . S
H56 C61 0.929 . S
H57 C63 0.938 . S
C58 H55 0.929 . S
C58 C59 1.398 1_655 S
C58 C60 1.394 1_655 S
C59 C58 1.398 1_455 S
C59 C63 1.407 . S
C60 C58 1.394 1_455 S
C60 C61 1.398 . S
C61 H56 0.929 . S
C61 C60 1.398 . S
C61 C62 1.382 . S
C62 C61 1.382 . S
C62 C63 1.392 . S
C62 N64 1.420 . S
C63 H57 0.938 . S
C63 C59 1.407 . S
C63 C62 1.392 . S
N64 C62 1.420 . S
N64 C65 1.235 1_455 S
C65 N64 1.235 1_655 S
H66 C69 0.929 . S
H67 C72 0.929 . S
H68 C74 0.930 . S
C69 H66 0.929 . S
C69 C70 1.398 . S
C69 C71 1.396 . S
C70 C69 1.398 . S
C70 C74 1.407 . S
C71 C69 1.396 . S
C71 C72 1.394 . S
C72 H67 0.929 . S
C72 C71 1.394 . S
C72 C73 1.382 . S
C73 C72 1.382 . S
C73 C74 1.392 . S
C73 N75 1.420 . S
C74 H68 0.930 . S
C74 C70 1.407 . S
C74 C73 1.392 . S
N75 C73 1.420 . S
N75 C76 1.244 . S
C76 N75 1.244 . S
H77 C80 0.929 . S
H78 C83 0.929 . S
H79 C85 0.935 . S
C80 H77 0.929 . S
C80 C81 1.398 . S
C80 C82 1.396 . S
C81 C80 1.398 . S
C81 C85 1.407 . S
C82 C80 1.396 . S
C82 C83 1.394 . S
C83 H78 0.929 . S
C83 C82 1.394 . S
C83 C84 1.382 . S
C84 C83 1.382 . S
C84 C85 1.392 . S
C84 N86 1.420 . S
C85 H79 0.935 . S
C85 C81 1.407 . S
C85 C84 1.392 . S
N86 C84 1.420 . S
N86 C87 1.244 . S
C87 N86 1.244 . S
Zn88 O94 1.969 . S
Zn88 O95 1.965 1_655 S
Zn88 O99 2.024 1_655 S
Zn88 O104 1.969 . S
Zn89 O96 1.969 . S
Zn89 O102 1.969 . S
Zn89 O103 1.965 1_455 S
Zn89 O105 2.024 1_455 S
C90 O91 1.229 1_455 S
C90 O99 1.058 . S
O91 C90 1.229 1_655 S
C92 O93 1.229 1_655 S
C92 O105 1.058 . S
O93 C92 1.229 1_455 S
O94 Zn88 1.969 . S
O94 C97 1.267 . S
O95 Zn88 1.965 1_455 S
O95 C106 1.260 . S
O96 Zn89 1.969 . S
O96 C106 1.258 1_565 S
C97 O94 1.267 . S
C97 O98 1.228 1_655 S
O98 C97 1.228 1_455 S
O99 Zn88 2.024 1_455 S
O99 C90 1.058 . S
C100 O101 1.228 1_455 S
C100 O102 1.267 . S
O101 C100 1.228 1_655 S
O102 Zn89 1.969 . S
O102 C100 1.267 . S
O103 Zn89 1.965 1_655 S
O103 C107 1.260 1_565 S
O104 Zn88 1.969 . S
O104 C107 1.258 . S
O105 Zn89 2.024 1_655 S
O105 C92 1.058 . S
C106 O95 1.260 . S
C106 O96 1.258 1_545 S
C107 O103 1.260 1_545 S
C107 O104 1.258 . S
Zn108 O114 1.969 1_545 S
Zn108 O115 1.965 . S
Zn108 O119 2.024 . S
Zn108 O124 1.969 1_545 S
Zn109 O116 1.984 . S
Zn109 O122 1.975 . S
Zn109 O123 1.958 1_545 S
Zn109 O125 2.014 1_545 S
C110 O111 1.229 . S
C110 O119 1.058 . S
O111 C110 1.229 . S
C112 O113 1.229 1_565 S
C112 O125 1.058 . S
O113 C112 1.229 1_545 S
O114 Zn108 1.969 1_565 S
O114 C117 1.267 1_565 S
O115 Zn108 1.965 . S
O115 C126 1.260 . S
O116 Zn109 1.984 . S
O116 C126 1.258 . S
C117 O114 1.267 1_545 S
C117 O118 1.228 . S
O118 C117 1.228 . S
O119 Zn108 2.024 . S
O119 C110 1.058 . S
C120 O121 1.228 . S
C120 O122 1.267 1_565 S
O121 C120 1.228 . S
O122 Zn109 1.975 . S
O122 C120 1.267 1_545 S
O123 Zn109 1.958 1_565 S
O123 C127 1.260 . S
O124 Zn108 1.969 1_565 S
O124 C127 1.258 . S
O125 Zn109 2.014 1_565 S
O125 C112 1.058 . S
C126 O115 1.260 . S
C126 O116 1.258 . S
C127 O123 1.260 . S
C127 O124 1.258 . S
Zn128 O134 1.969 . S
Zn128 O135 1.965 . S
Zn128 O139 2.024 . S
Zn128 O144 1.969 . S
Zn129 O136 1.969 . S
Zn129 O142 1.969 . S
Zn129 O143 1.965 . S
Zn129 O145 2.024 . S
C130 O131 1.229 . S
C130 O139 1.058 . S
O131 C130 1.229 . S
C132 O133 1.229 . S
C132 O145 1.058 . S
O133 C132 1.229 . S
O134 Zn128 1.969 . S
O134 C137 1.267 . S
O135 Zn128 1.965 . S
O135 C146 1.260 . S
O136 Zn129 1.969 . S
O136 C146 1.258 . S
C137 O134 1.267 . S
C137 O138 1.228 . S
O138 C137 1.228 . S
O139 Zn128 2.024 . S
O139 C130 1.058 . S
C140 O141 1.228 . S
C140 O142 1.267 . S
O141 C140 1.228 . S
O142 Zn129 1.969 . S
O142 C140 1.267 . S
O143 Zn129 1.965 . S
O143 C147 1.260 . S
O144 Zn128 1.969 . S
O144 C147 1.258 . S
O145 Zn129 2.024 . S
O145 C132 1.058 . S
C146 O135 1.260 . S
C146 O136 1.258 . S
C147 O143 1.260 . S
C147 O144 1.258 . S
Zn148 O154 1.969 . S
Zn148 O155 1.965 . S
Zn148 O159 2.024 . S
Zn148 O164 1.969 . S
Zn149 O156 1.969 . S
Zn149 O162 1.969 . S
Zn149 O163 1.965 . S
Zn149 O165 2.024 . S
C150 O151 1.229 . S
C150 O159 1.058 . S
O151 C150 1.229 . S
C152 O153 1.229 . S
C152 O165 1.058 . S
O153 C152 1.229 . S
O154 Zn148 1.969 . S
O154 C157 1.267 . S
O155 Zn148 1.965 . S
O155 C166 1.260 1_455 S
O156 Zn149 1.969 . S
O156 C166 1.258 . S
C157 O154 1.267 . S
C157 O158 1.228 . S
O158 C157 1.228 . S
O159 Zn148 2.024 . S
O159 C150 1.058 . S
C160 O161 1.228 . S
C160 O162 1.267 . S
O161 C160 1.228 . S
O162 Zn149 1.969 . S
O162 C160 1.267 . S
O163 Zn149 1.965 . S
O163 C167 1.260 1_655 S
O164 Zn148 1.969 . S
O164 C167 1.258 . S
O165 Zn149 2.024 . S
O165 C152 1.058 . S
C166 O155 1.260 1_655 S
C166 O156 1.258 . S
C167 O163 1.260 1_455 S
C167 O164 1.258 . S
C168 C169 1.363 . S
C168 C174 1.379 . S
C168 N176 1.366 . S
C169 C168 1.363 . S
C169 C175 1.363 . S
C170 C171 1.363 . S
C170 C175 1.379 . S
C170 N177 1.356 . S
C171 C170 1.363 . S
C171 C174 1.363 . S
N172 C174 1.356 1_565 S
N172 H184 0.984 . S
N172 H185 0.985 . S
N173 C175 1.356 . S
N173 H178 0.984 . S
N173 H179 0.985 . S
C174 C168 1.379 . S
C174 C171 1.363 . S
C174 N172 1.356 1_545 S
C175 C169 1.363 . S
C175 C170 1.379 . S
C175 N173 1.356 . S
N176 C168 1.366 . S
N176 H182 0.960 1_545 S
N176 H183 0.999 . S
N177 C170 1.356 . S
N177 H180 0.984 . S
N177 H181 0.985 . S
H178 N173 0.984 . S
H179 N173 0.985 . S
H180 N177 0.984 . S
H181 N177 0.985 . S
H182 N176 0.960 1_565 S
H183 N176 0.999 . S
H184 N172 0.984 . S
H185 N172 0.985 . S
C186 C187 1.363 . S
C186 C192 1.379 . S
C186 N194 1.356 . S
C187 C186 1.363 . S
C187 C193 1.363 . S
C188 C189 1.363 . S
C188 C193 1.379 . S
C188 N195 1.356 . S
C189 C188 1.363 . S
C189 C192 1.363 . S
N190 C192 1.356 . S
N190 H202 0.984 . S
N190 H203 0.985 . S
N191 C193 1.356 . S
N191 H196 0.984 . S
N191 H197 0.985 . S
C192 C186 1.379 . S
C192 C189 1.363 . S
C192 N190 1.356 . S
C193 C187 1.363 . S
C193 C188 1.379 . S
C193 N191 1.356 . S
N194 C186 1.356 . S
N194 H200 0.984 . S
N194 H201 0.984 . S
N195 C188 1.356 . S
N195 H198 0.984 . S
N195 H199 0.985 . S
H196 N191 0.984 . S
H197 N191 0.985 . S
H198 N195 0.984 . S
H199 N195 0.985 . S
H200 N194 0.984 . S
H201 N194 0.984 . S
H202 N190 0.984 . S
H203 N190 0.985 . S
C204 C205 1.363 . S
C204 C210 1.379 . S
C204 N212 1.356 . S
C205 C204 1.363 . S
C205 C211 1.363 . S
C206 C207 1.363 . S
C206 C211 1.379 . S
C206 N213 1.356 . S
C207 C206 1.363 . S
C207 C210 1.363 . S
N208 C210 1.356 . S
N208 H220 0.984 . S
N208 H221 0.985 . S
N209 C211 1.356 . S
N209 H214 0.984 . S
N209 H215 0.985 . S
C210 C204 1.379 . S
C210 C207 1.363 . S
C210 N208 1.356 . S
C211 C205 1.363 . S
C211 C206 1.379 . S
C211 N209 1.356 . S
N212 C204 1.356 . S
N212 H218 0.984 . S
N212 H219 0.984 . S
N213 C206 1.356 . S
N213 H216 0.984 . S
N213 H217 0.985 . S
H214 N209 0.984 . S
H215 N209 0.985 . S
H216 N213 0.984 . S
H217 N213 0.985 . S
H218 N212 0.984 . S
H219 N212 0.984 . S
H220 N208 0.984 . S
H221 N208 0.985 . S
C222 C223 1.358 1_455 S
C222 C228 1.379 . S
C222 N230 1.356 . S
C223 C222 1.358 1_655 S
C223 C229 1.368 . S
C224 C225 1.363 . S
C224 C229 1.379 . S
C224 N231 1.356 . S
C225 C224 1.363 . S
C225 C228 1.363 1_655 S
N226 C228 1.356 . S
N226 H238 0.984 . S
N226 H239 0.985 . S
N227 C229 1.356 . S
N227 H232 0.984 . S
N227 H233 0.985 . S
C228 C222 1.379 . S
C228 C225 1.363 1_455 S
C228 N226 1.356 . S
C229 C223 1.368 . S
C229 C224 1.379 . S
C229 N227 1.356 . S
N230 C222 1.356 . S
N230 H236 0.984 . S
N230 H237 0.984 . S
N231 C224 1.356 . S
N231 H234 0.984 . S
N231 H235 0.985 . S
H232 N227 0.984 . S
H233 N227 0.985 . S
H234 N231 0.984 . S
H235 N231 0.985 . S
H236 N230 0.984 . S
H237 N230 0.984 . S
H238 N226 0.984 . S
H239 N226 0.985 . S
C240 C241 1.390 . S
C240 C246 1.371 1_565 S
C240 N248 1.345 1_565 S
C241 C240 1.390 . S
C241 C247 1.363 . S
C242 C243 1.363 . S
C242 C247 1.379 . S
C242 N249 1.356 . S
C243 C242 1.363 . S
C243 C246 1.363 1_565 S
N244 C246 1.356 . S
N244 H256 0.984 . S
N244 H257 0.985 . S
N245 C247 1.356 . S
N245 H250 0.984 1_556 S
N245 H251 0.985 . S
C246 C240 1.371 1_545 S
C246 C243 1.363 1_545 S
C246 N244 1.356 . S
C247 C241 1.363 . S
C247 C242 1.379 . S
C247 N245 1.356 . S
N248 C240 1.345 1_545 S
N248 H254 0.984 . S
N248 H255 0.968 1_545 S
N249 C242 1.356 . S
N249 H252 0.984 . S
N249 H253 0.985 . S
H250 N245 0.984 1_554 S
H251 N245 0.985 . S
H252 N249 0.984 . S
H253 N249 0.985 . S
H254 N248 0.984 . S
H255 N248 0.968 1_565 S
H256 N244 0.984 . S
H257 N244 0.985 . S
C258 C259 1.363 . S
C258 C264 1.379 . S
C258 N266 1.356 . S
C259 C258 1.363 . S
C259 C265 1.363 . S
C260 C261 1.363 . S
C260 C265 1.379 . S
C260 N267 1.356 . S
C261 C260 1.363 . S
C261 C264 1.363 . S
N262 C264 1.356 . S
N262 H274 0.984 . S
N262 H275 0.985 . S
N263 C265 1.356 1_554 S
N263 H268 0.984 . S
N263 H269 0.985 . S
C264 C258 1.379 . S
C264 C261 1.363 . S
C264 N262 1.356 . S
C265 C259 1.363 . S
C265 C260 1.379 . S
C265 N263 1.356 1_556 S
N266 C258 1.356 . S
N266 H272 0.984 . S
N266 H273 0.984 . S
N267 C260 1.356 . S
N267 H270 0.984 . S
N267 H271 0.985 . S
H268 N263 0.984 . S
H269 N263 0.985 . S
H270 N267 0.984 . S
H271 N267 0.985 . S
H272 N266 0.984 . S
H273 N266 0.984 . S
H274 N262 0.984 . S
H275 N262 0.985 . S
C276 C277 1.363 . S
C276 C282 1.379 . S
C276 N284 1.356 . S
C277 C276 1.363 . S
C277 C283 1.363 . S
C278 C279 1.363 . S
C278 C283 1.379 . S
C278 N285 1.356 . S
C279 C278 1.363 . S
C279 C282 1.363 . S
N280 C282 1.356 . S
N280 H292 0.984 . S
N280 H293 0.985 . S
N281 C283 1.356 . S
N281 H286 0.984 . S
N281 H287 0.985 . S
C282 C276 1.379 . S
C282 C279 1.363 . S
C282 N280 1.356 . S
C283 C277 1.363 . S
C283 C278 1.379 . S
C283 N281 1.356 . S
N284 C276 1.356 . S
N284 H290 0.984 . S
N284 H291 0.984 . S
N285 C278 1.356 . S
N285 H288 0.984 . S
N285 H289 0.985 . S
H286 N281 0.984 . S
H287 N281 0.985 . S
H288 N285 0.984 . S
H289 N285 0.985 . S
H290 N284 0.984 . S
H291 N284 0.984 . S
H292 N280 0.984 . S
H293 N280 0.985 . S
C294 C295 1.369 . S
C294 C300 1.379 . S
C294 N302 1.356 1_556 S
C295 C294 1.369 . S
C295 C301 1.357 1_455 S
C296 C297 1.363 1_655 S
C296 C301 1.379 . S
C296 N303 1.356 . S
C297 C296 1.363 1_455 S
C297 C300 1.363 . S
N298 C300 1.356 . S
N298 H310 0.984 . S
N298 H311 0.985 . S
N299 C301 1.356 . S
N299 H304 0.984 . S
N299 H305 0.985 . S
C300 C294 1.379 . S
C300 C297 1.363 . S
C300 N298 1.356 . S
C301 C295 1.357 1_655 S
C301 C296 1.379 . S
C301 N299 1.356 . S
N302 C294 1.356 1_554 S
N302 H308 0.984 . S
N302 H309 0.984 . S
N303 C296 1.356 . S
N303 H306 0.984 . S
N303 H307 0.985 . S
H304 N299 0.984 . S
H305 N299 0.985 . S
H306 N303 0.984 . S
H307 N303 0.985 . S
H308 N302 0.984 . S
H309 N302 0.984 . S
H310 N298 0.984 . S
H311 N298 0.985 . S
C312 C313 1.363 . S
C312 C318 1.379 . S
C312 N320 1.356 . S
C313 C312 1.363 . S
C313 C319 1.363 1_655 S
C314 C315 1.363 1_455 S
C314 C319 1.379 . S
C314 N321 1.356 . S
C315 C314 1.363 1_655 S
C315 C318 1.363 . S
N316 C318 1.356 . S
N316 H328 0.984 . S
N316 H329 0.985 . S
N317 C319 1.356 . S
N317 H322 0.984 . S
N317 H323 0.985 . S
C318 C312 1.379 . S
C318 C315 1.363 . S
C318 N316 1.356 . S
C319 C313 1.363 1_455 S
C319 C314 1.379 . S
C319 N317 1.356 . S
N320 C312 1.356 . S
N320 H326 0.984 . S
N320 H327 0.984 . S
N321 C314 1.356 . S
N321 H324 0.984 . S
N321 H325 0.985 . S
H322 N317 0.984 . S
H323 N317 0.985 . S
H324 N321 0.984 . S
H325 N321 0.985 . S
H326 N320 0.984 . S
H327 N320 0.984 . S
H328 N316 0.984 . S
H329 N316 0.985 . S
C330 C331 1.363 . S
C330 C336 1.379 1_545 S
C330 N338 1.351 1_545 S
C331 C330 1.363 . S
C331 C337 1.363 . S
C332 C333 1.363 . S
C332 C337 1.379 . S
C332 N339 1.356 . S
C333 C332 1.363 . S
C333 C336 1.363 1_545 S
N334 C336 1.356 . S
N334 H346 0.984 . S
N334 H347 0.985 . S
N335 C337 1.356 . S
N335 H340 0.984 . S
N335 H341 0.985 . S
C336 C330 1.379 1_565 S
C336 C333 1.363 1_565 S
C336 N334 1.356 . S
C337 C331 1.363 . S
C337 C332 1.379 . S
C337 N335 1.356 . S
N338 C330 1.351 1_565 S
N338 H344 1.002 . S
N338 H345 0.972 1_565 S
N339 C332 1.356 . S
N339 H342 0.984 . S
N339 H343 0.985 . S
H340 N335 0.984 . S
H341 N335 0.985 . S
H342 N339 0.984 . S
H343 N339 0.985 . S
H344 N338 1.002 . S
H345 N338 0.972 1_545 S
H346 N334 0.984 . S
H347 N334 0.985 . S
C348 C349 1.363 . S
C348 C354 1.379 . S
C348 N356 1.356 . S
C349 C348 1.363 . S
C349 C355 1.363 . S
C350 C351 1.363 . S
C350 C355 1.379 . S
C350 N357 1.356 . S
C351 C350 1.363 . S
C351 C354 1.363 . S
N352 C354 1.356 . S
N352 H364 0.984 . S
N352 H365 0.985 . S
N353 C355 1.356 . S
N353 H358 0.984 . S
N353 H359 0.985 . S
C354 C348 1.379 . S
C354 C351 1.363 . S
C354 N352 1.356 . S
C355 C349 1.363 . S
C355 C350 1.379 . S
C355 N353 1.356 . S
N356 C348 1.356 . S
N356 H362 0.984 . S
N356 H363 0.984 . S
N357 C350 1.356 . S
N357 H360 0.984 . S
N357 H361 0.985 . S
H358 N353 0.984 . S
H359 N353 0.985 . S
H360 N357 0.984 . S
H361 N357 0.985 . S
H362 N356 0.984 . S
H363 N356 0.984 . S
H364 N352 0.984 . S
H365 N352 0.985 . S
C366 C367 1.363 . S
C366 C372 1.379 . S
C366 N374 1.356 . S
C367 C366 1.363 . S
C367 C373 1.363 . S
C368 C369 1.363 . S
C368 C373 1.379 . S
C368 N375 1.356 . S
C369 C368 1.363 . S
C369 C372 1.363 . S
N370 C372 1.356 . S
N370 H382 0.984 . S
N370 H383 0.985 . S
N371 C373 1.356 . S
N371 H376 0.984 . S
N371 H377 0.985 . S
C372 C366 1.379 . S
C372 C369 1.363 . S
C372 N370 1.356 . S
C373 C367 1.363 . S
C373 C368 1.379 . S
C373 N371 1.356 . S
N374 C366 1.356 . S
N374 H380 0.984 . S
N374 H381 0.984 . S
N375 C368 1.356 . S
N375 H378 0.984 . S
N375 H379 0.985 . S
H376 N371 0.984 . S
H377 N371 0.985 . S
H378 N375 0.984 . S
H379 N375 0.985 . S
H380 N374 0.984 . S
H381 N374 0.984 . S
H382 N370 0.984 . S
H383 N370 0.985 . S
C384 C385 1.363 . S
C384 C390 1.379 . S
C384 N392 1.356 . S
C385 C384 1.363 . S
C385 C391 1.363 1_455 S
C386 C387 1.363 1_655 S
C386 C391 1.379 . S
C386 N393 1.356 . S
C387 C386 1.363 1_455 S
C387 C390 1.363 . S
N388 C390 1.356 . S
N388 H400 0.984 . S
N388 H401 0.985 . S
N389 C391 1.356 1_554 S
N389 H394 0.984 . S
N389 H395 0.985 . S
C390 C384 1.379 . S
C390 C387 1.363 . S
C390 N388 1.356 . S
C391 C385 1.363 1_655 S
C391 C386 1.379 . S
C391 N389 1.356 1_556 S
N392 C384 1.356 . S
N392 H398 0.984 . S
N392 H399 0.984 . S
N393 C386 1.356 . S
N393 H396 0.984 . S
N393 H397 0.985 . S
H394 N389 0.984 . S
H395 N389 0.985 . S
H396 N393 0.984 . S
H397 N393 0.985 . S
H398 N392 0.984 . S
H399 N392 0.984 . S
H400 N388 0.984 . S
H401 N388 0.985 . S
C402 C403 1.363 . S
C402 C408 1.379 . S
C402 N410 1.356 . S
C403 C402 1.363 . S
C403 C409 1.363 . S
C404 C405 1.363 1_545 S
C404 C409 1.379 1_545 S
C404 N411 1.356 . S
C405 C404 1.363 1_565 S
C405 C408 1.363 . S
N406 C408 1.356 . S
N406 H418 0.984 . S
N406 H419 0.985 . S
N407 C409 1.356 1_544 S
N407 H412 0.984 1_545 S
N407 H413 0.985 . S
C408 C402 1.379 . S
C408 C405 1.363 . S
C408 N406 1.356 . S
C409 C403 1.363 . S
C409 C404 1.379 1_565 S
C409 N407 1.356 1_566 S
N410 C402 1.356 . S
N410 H416 0.984 . S
N410 H417 0.984 . S
N411 C404 1.356 . S
N411 H414 0.984 . S
N411 H415 0.985 . S
H412 N407 0.984 1_565 S
H413 N407 0.985 . S
H414 N411 0.984 . S
H415 N411 0.985 . S
H416 N410 0.984 . S
H417 N410 0.984 . S
H418 N406 0.984 . S
H419 N406 0.985 . S
C420 C421 1.363 . S
C420 C426 1.379 . S
C420 N428 1.356 . S
C421 C420 1.363 . S
C421 C427 1.363 . S
C422 C423 1.363 . S
C422 C427 1.379 . S
C422 N429 1.356 . S
C423 C422 1.363 . S
C423 C426 1.363 . S
N424 C426 1.356 . S
N424 H436 0.984 . S
N424 H437 0.985 . S
N425 C427 1.356 . S
N425 H430 0.984 . S
N425 H431 0.985 . S
C426 C420 1.379 . S
C426 C423 1.363 . S
C426 N424 1.356 . S
C427 C421 1.363 . S
C427 C422 1.379 . S
C427 N425 1.356 . S
N428 C420 1.356 . S
N428 H434 0.984 1_556 S
N428 H435 0.984 1_556 S
N429 C422 1.356 . S
N429 H432 0.984 . S
N429 H433 0.985 . S
H430 N425 0.984 . S
H431 N425 0.985 . S
H432 N429 0.984 . S
H433 N429 0.985 . S
H434 N428 0.984 1_554 S
H435 N428 0.984 1_554 S
H436 N424 0.984 . S
H437 N424 0.985 . S
C438 C439 1.363 . S
C438 C444 1.379 . S
C438 N446 1.356 . S
C439 C438 1.363 . S
C439 C445 1.363 . S
C440 C441 1.363 . S
C440 C445 1.379 . S
C440 N447 1.356 . S
C441 C440 1.363 . S
C441 C444 1.363 . S
N442 C444 1.356 . S
N442 H454 0.984 . S
N442 H455 0.985 . S
N443 C445 1.356 1_554 S
N443 H448 0.984 . S
N443 H449 0.985 . S
C444 C438 1.379 . S
C444 C441 1.363 . S
C444 N442 1.356 . S
C445 C439 1.363 . S
C445 C440 1.379 . S
C445 N443 1.356 1_556 S
N446 C438 1.356 . S
N446 H452 0.984 . S
N446 H453 0.984 . S
N447 C440 1.356 . S
N447 H450 0.984 . S
N447 H451 0.985 1_556 S
H448 N443 0.984 . S
H449 N443 0.985 . S
H450 N447 0.984 . S
H451 N447 0.985 1_554 S
H452 N446 0.984 . S
H453 N446 0.984 . S
H454 N442 0.984 . S
H455 N442 0.985 . S
C456 C457 1.363 1_554 S
C456 C462 1.379 1_554 S
C456 N464 1.356 . S
C457 C456 1.363 1_556 S
C457 C463 1.363 . S
C458 C459 1.363 . S
C458 C463 1.379 . S
C458 N465 1.356 . S
C459 C458 1.363 . S
C459 C462 1.363 . S
N460 C462 1.356 1_554 S
N460 H472 0.984 . S
N460 H473 0.985 1_554 S
N461 C463 1.356 1_655 S
N461 H466 0.984 . S
N461 H467 0.985 . S
C462 C456 1.379 1_556 S
C462 C459 1.363 . S
C462 N460 1.356 1_556 S
C463 C457 1.363 . S
C463 C458 1.379 . S
C463 N461 1.356 1_455 S
N464 C456 1.356 . S
N464 H470 0.984 . S
N464 H471 0.984 . S
N465 C458 1.356 . S
N465 H468 0.984 . S
N465 H469 0.985 . S
H466 N461 0.984 . S
H467 N461 0.985 . S
H468 N465 0.984 . S
H469 N465 0.985 . S
H470 N464 0.984 . S
H471 N464 0.984 . S
H472 N460 0.984 . S
H473 N460 0.985 1_556 S
C474 C475 1.363 . S
C474 C480 1.379 . S
C474 N482 1.356 1_546 S
C475 C474 1.363 . S
C475 C481 1.363 . S
C476 C477 1.363 . S
C476 C481 1.379 . S
C476 N483 1.356 . S
C477 C476 1.363 . S
C477 C480 1.363 . S
N478 C480 1.356 1_565 S
N478 H490 0.984 . S
N478 H491 0.985 . S
N479 C481 1.356 . S
N479 H484 0.984 . S
N479 H485 0.985 . S
C480 C474 1.379 . S
C480 C477 1.363 . S
C480 N478 1.356 1_545 S
C481 C475 1.363 . S
C481 C476 1.379 . S
C481 N479 1.356 . S
N482 C474 1.356 1_564 S
N482 H488 0.984 . S
N482 H489 0.984 1_565 S
N483 C476 1.356 . S
N483 H486 0.984 . S
N483 H487 0.985 . S
H484 N479 0.984 . S
H485 N479 0.985 . S
H486 N483 0.984 . S
H487 N483 0.985 . S
H488 N482 0.984 . S
H489 N482 0.984 1_545 S
H490 N478 0.984 . S
H491 N478 0.985 . S
C492 C493 1.363 1_554 S
C492 C498 1.379 1_554 S
C492 N500 1.356 . S
C493 C492 1.363 1_556 S
C493 C499 1.363 . S
C494 C495 1.363 . S
C494 C499 1.379 . S
C494 N501 1.356 . S
C495 C494 1.363 . S
C495 C498 1.363 . S
N496 C498 1.356 1_554 S
N496 H508 0.984 . S
N496 H509 0.985 1_554 S
N497 C499 1.356 . S
N497 H502 0.984 . S
N497 H503 0.985 . S
C498 C492 1.379 1_556 S
C498 C495 1.363 . S
C498 N496 1.356 1_556 S
C499 C493 1.363 . S
C499 C494 1.379 . S
C499 N497 1.356 . S
N500 C492 1.356 . S
N500 H506 0.984 . S
N500 H507 0.984 . S
N501 C494 1.356 . S
N501 H504 0.984 . S
N501 H505 0.985 . S
H502 N497 0.984 . S
H503 N497 0.985 . S
H504 N501 0.984 . S
H505 N501 0.985 . S
H506 N500 0.984 . S
H507 N500 0.984 . S
H508 N496 0.984 . S
H509 N496 0.985 1_556 S
C510 C511 1.363 . S
C510 C516 1.379 . S
C510 N518 1.356 . S
C511 C510 1.363 . S
C511 C517 1.363 1_556 S
C512 C513 1.363 . S
C512 C517 1.379 1_556 S
C512 N519 1.356 . S
C513 C512 1.363 . S
C513 C516 1.363 . S
N514 C516 1.356 . S
N514 H526 0.984 . S
N514 H527 0.985 . S
N515 C517 1.356 . S
N515 H520 0.984 . S
N515 H521 0.985 . S
C516 C510 1.379 . S
C516 C513 1.363 . S
C516 N514 1.356 . S
C517 C511 1.363 1_554 S
C517 C512 1.379 1_554 S
C517 N515 1.356 . S
N518 C510 1.356 . S
N518 H524 0.984 . S
N518 H525 0.984 . S
N519 C512 1.356 . S
N519 H522 0.984 . S
N519 H523 0.985 1_556 S
H520 N515 0.984 . S
H521 N515 0.985 . S
H522 N519 0.984 . S
H523 N519 0.985 1_554 S
H524 N518 0.984 . S
H525 N518 0.984 . S
H526 N514 0.984 . S
H527 N514 0.985 . S
C528 C529 1.363 1_455 S
C528 C534 1.379 . S
C528 N536 1.356 . S
C529 C528 1.363 1_655 S
C529 C535 1.363 . S
C530 C531 1.363 . S
C530 C535 1.379 . S
C530 N537 1.356 . S
C531 C530 1.363 . S
C531 C534 1.363 1_655 S
N532 C534 1.356 . S
N532 H544 0.984 . S
N532 H545 0.985 . S
N533 C535 1.356 . S
N533 H538 0.984 . S
N533 H539 0.985 . S
C534 C528 1.379 . S
C534 C531 1.363 1_455 S
C534 N532 1.356 . S
C535 C529 1.363 . S
C535 C530 1.379 . S
C535 N533 1.356 . S
N536 C528 1.356 . S
N536 H542 0.984 . S
N536 H543 0.984 . S
N537 C530 1.356 . S
N537 H540 0.984 . S
N537 H541 0.985 . S
H538 N533 0.984 . S
H539 N533 0.985 . S
H540 N537 0.984 . S
H541 N537 0.985 . S
H542 N536 0.984 . S
H543 N536 0.984 . S
H544 N532 0.984 . S
H545 N532 0.985 . S
C546 C547 1.363 . S
C546 C552 1.379 . S
C546 N554 1.356 1_565 S
C547 C546 1.363 . S
C547 C553 1.363 . S
C548 C549 1.363 . S
C548 C553 1.379 . S
C548 N555 1.356 . S
C549 C548 1.363 . S
C549 C552 1.363 . S
N550 C552 1.356 1_545 S
N550 H562 0.984 . S
N550 H563 0.985 . S
N551 C553 1.356 . S
N551 H556 0.984 . S
N551 H557 0.985 . S
C552 C546 1.379 . S
C552 C549 1.363 . S
C552 N550 1.356 1_565 S
C553 C547 1.363 . S
C553 C548 1.379 . S
C553 N551 1.356 . S
N554 C546 1.356 1_545 S
N554 H560 0.984 . S
N554 H561 0.984 . S
N555 C548 1.356 . S
N555 H558 0.984 . S
N555 H559 0.985 . S
H556 N551 0.984 . S
H557 N551 0.985 . S
H558 N555 0.984 . S
H559 N555 0.985 . S
H560 N554 0.984 . S
H561 N554 0.984 . S
H562 N550 0.984 . S
H563 N550 0.985 . S
C564 C565 1.363 . S
C564 C570 1.379 . S
C564 N572 1.356 . S
C565 C564 1.363 . S
C565 C571 1.363 . S
C566 C567 1.363 . S
C566 C571 1.379 . S
C566 N573 1.356 . S
C567 C566 1.363 . S
C567 C570 1.363 . S
N568 C570 1.356 . S
N568 H580 0.984 . S
N568 H581 0.985 . S
N569 C571 1.356 . S
N569 H574 0.984 . S
N569 H575 0.985 . S
C570 C564 1.379 . S
C570 C567 1.363 . S
C570 N568 1.356 . S
C571 C565 1.363 . S
C571 C566 1.379 . S
C571 N569 1.356 . S
N572 C564 1.356 . S
N572 H578 0.984 . S
N572 H579 0.984 . S
N573 C566 1.356 . S
N573 H576 0.984 . S
N573 H577 0.985 . S
H574 N569 0.984 . S
H575 N569 0.985 . S
H576 N573 0.984 . S
H577 N573 0.985 . S
H578 N572 0.984 . S
H579 N572 0.984 . S
H580 N568 0.984 . S
H581 N568 0.985 . S
C582 C583 1.363 . S
C582 C588 1.379 . S
C582 N590 1.356 . S
C583 C582 1.363 . S
C583 C589 1.363 . S
C584 C585 1.363 . S
C584 C589 1.379 . S
C584 N591 1.356 . S
C585 C584 1.363 . S
C585 C588 1.363 . S
N586 C588 1.356 . S
N586 H598 0.984 . S
N586 H599 0.985 . S
N587 C589 1.356 . S
N587 H592 0.984 . S
N587 H593 0.985 . S
C588 C582 1.379 . S
C588 C585 1.363 . S
C588 N586 1.356 . S
C589 C583 1.363 . S
C589 C584 1.379 . S
C589 N587 1.356 . S
N590 C582 1.356 . S
N590 H596 0.984 . S
N590 H597 0.984 . S
N591 C584 1.356 . S
N591 H594 0.984 . S
N591 H595 0.985 . S
H592 N587 0.984 . S
H593 N587 0.985 . S
H594 N591 0.984 . S
H595 N591 0.985 . S
H596 N590 0.984 . S
H597 N590 0.984 . S
H598 N586 0.984 . S
H599 N586 0.985 . S
C169 C76 1.556 . S
C171 C106 1.592 . S
C189 C126 1.510 . S
C187 C87 1.503 . S
C207 C146 1.592 . S
C205 C54 1.554 . S
C225 C166 1.512 . S
C223 C65 1.504 . S
C243 C107 1.595 1_565 S
C241 C32 1.568 . S
C259 C43 1.503 . S
C261 C127 1.510 . S
C277 C10 1.563 . S
C279 C147 1.593 . S
C295 C21 1.504 1_455 S
C297 C167 1.513 . S
C315 C97 0.990 . S
C313 C60 1.016 1_655 S
C333 C117 1.019 . S
C331 C71 1.052 . S
C351 C137 0.991 . S
C349 C82 1.018 . S
C367 C49 1.050 . S
C369 C157 1.014 . S
C385 C16 1.015 . S
C387 C100 0.988 . S
C405 C120 1.019 . S
C403 C27 1.045 . S
C423 C140 0.991 . S
C421 C38 1.015 . S
C439 C5 1.043 . S
C441 C160 1.020 . S
C457 C59 1.518 1_556 S
C459 C90 1.459 . S
C475 C70 1.550 1_556 S
C477 C110 1.492 . S
C495 C130 1.456 . S
C493 C81 1.515 1_556 S
C513 C150 1.495 . S
C511 C48 1.550 1_556 S
C529 C15 1.523 1_655 S
C531 C92 1.460 . S
C549 C112 1.492 . S
C547 C26 1.544 . S
C567 C132 1.456 . S
C565 C37 1.521 . S
C583 C4 1.547 . S
C585 C152 1.498 . S
