# Generated by pormake.
# Topology pyr, (3,6)-cn, num edge types: 1
# Building blocks:
#     Node 0, Type 0, BuildingBlock: BETDAH_clean_linker_0, # of connection points: 3
#     Node 1, Type 0, BuildingBlock: BETDAH_clean_linker_0, # of connection points: 3
#     Node 2, Type 0, BuildingBlock: BETDAH_clean_linker_0, # of connection points: 3
#     Node 3, Type 0, BuildingBlock: BETDAH_clean_linker_0, # of connection points: 3
#     Node 4, Type 0, BuildingBlock: BETDAH_clean_linker_0, # of connection points: 3
#     Node 5, Type 0, BuildingBlock: BETDAH_clean_linker_0, # of connection points: 3
#     Node 6, Type 0, BuildingBlock: BETDAH_clean_linker_0, # of connection points: 3
#     Node 7, Type 0, BuildingBlock: BETDAH_clean_linker_0, # of connection points: 3
#     Node 8, Type 1, BuildingBlock: BETDEL_clean_sbu_0, # of connection points: 6
#     Node 9, Type 1, BuildingBlock: BETDEL_clean_sbu_0, # of connection points: 6
#     Node 10, Type 1, BuildingBlock: BETDEL_clean_sbu_0, # of connection points: 6
#     Node 11, Type 1, BuildingBlock: BETDEL_clean_sbu_0, # of connection points: 6
#     Edge 12, Type (0, 1), BuildingBlock: KIFKEQ_clean_linker_1, # of connection points: 2
#     Edge 13, Type (0, 1), BuildingBlock: KIFKEQ_clean_linker_1, # of connection points: 2
#     Edge 14, Type (0, 1), BuildingBlock: KIFKEQ_clean_linker_1, # of connection points: 2
#     Edge 15, Type (0, 1), BuildingBlock: KIFKEQ_clean_linker_1, # of connection points: 2
#     Edge 16, Type (0, 1), BuildingBlock: KIFKEQ_clean_linker_1, # of connection points: 2
#     Edge 17, Type (0, 1), BuildingBlock: KIFKEQ_clean_linker_1, # of connection points: 2
#     Edge 18, Type (0, 1), BuildingBlock: KIFKEQ_clean_linker_1, # of connection points: 2
#     Edge 19, Type (0, 1), BuildingBlock: KIFKEQ_clean_linker_1, # of connection points: 2
#     Edge 20, Type (0, 1), BuildingBlock: KIFKEQ_clean_linker_1, # of connection points: 2
#     Edge 21, Type (0, 1), BuildingBlock: KIFKEQ_clean_linker_1, # of connection points: 2
#     Edge 22, Type (0, 1), BuildingBlock: KIFKEQ_clean_linker_1, # of connection points: 2
#     Edge 23, Type (0, 1), BuildingBlock: KIFKEQ_clean_linker_1, # of connection points: 2
#     Edge 24, Type (0, 1), BuildingBlock: KIFKEQ_clean_linker_1, # of connection points: 2
#     Edge 25, Type (0, 1), BuildingBlock: KIFKEQ_clean_linker_1, # of connection points: 2
#     Edge 26, Type (0, 1), BuildingBlock: KIFKEQ_clean_linker_1, # of connection points: 2
#     Edge 27, Type (0, 1), BuildingBlock: KIFKEQ_clean_linker_1, # of connection points: 2
#     Edge 28, Type (0, 1), BuildingBlock: KIFKEQ_clean_linker_1, # of connection points: 2
#     Edge 29, Type (0, 1), BuildingBlock: KIFKEQ_clean_linker_1, # of connection points: 2
#     Edge 30, Type (0, 1), BuildingBlock: KIFKEQ_clean_linker_1, # of connection points: 2
#     Edge 31, Type (0, 1), BuildingBlock: KIFKEQ_clean_linker_1, # of connection points: 2
#     Edge 32, Type (0, 1), BuildingBlock: KIFKEQ_clean_linker_1, # of connection points: 2
#     Edge 33, Type (0, 1), BuildingBlock: KIFKEQ_clean_linker_1, # of connection points: 2
#     Edge 34, Type (0, 1), BuildingBlock: KIFKEQ_clean_linker_1, # of connection points: 2
#     Edge 35, Type (0, 1), BuildingBlock: KIFKEQ_clean_linker_1, # of connection points: 2
# Relax obj value: 0.072
# Max RMSD: 0.185
# Mean RMSD: 0.133
data_MOF--net-pyr--node1-BETDEL_clean_sbu_0--node2-BETDAH_clean_linker_0--edge1-KIFKEQ_clean_linker_1
_symmetry_space_group_name_H-M    P1
_symmetry_Int_Tables_number       1
_symmetry_cell_setting            triclinic
loop_
_symmetry_equiv_pos_as_xyz
'x, y, z'
_cell_length_a     36.281586
_cell_length_b     38.734384
_cell_length_c     36.870239
_cell_angle_alpha  92.494196
_cell_angle_beta   90.116304
_cell_angle_gamma 101.63109
loop_
_atom_site_label
_atom_site_type_symbol
_atom_site_fract_x
_atom_site_fract_y
_atom_site_fract_z
_atom_type_partial_charge
H0 H 0.2403 0.1593 0.23686 0.0
H1 H 0.24485 0.19787 0.12904 0.0
H2 H 0.15418 0.21176 0.19922 0.0
C3 C 0.2288 0.17308 0.21598 0.0
C4 C 0.19519 0.18518 0.22227 0.0
C5 C 0.24716 0.17789 0.18257 0.0
C6 C 0.23154 0.19482 0.15534 0.0
C7 C 0.19851 0.20745 0.16126 0.0
C8 C 0.18025 0.20269 0.19481 0.0
N9 N 0.18343 0.22289 0.132 0.0
C10 C 0.16368 0.25001 0.1358 0.0
H11 H 0.37158 0.83839 0.746 0.0
H12 H 0.27552 0.88677 0.73353 0.0
H13 H 0.28522 0.79524 0.6671 0.0
C14 C 0.34552 0.83949 0.7321 0.0
C15 C 0.33134 0.81367 0.70489 0.0
C16 C 0.32568 0.86593 0.74271 0.0
C17 C 0.29112 0.86666 0.72547 0.0
C18 C 0.27662 0.84094 0.69818 0.0
C19 C 0.29665 0.81464 0.68839 0.0
N20 N 0.24131 0.83935 0.68077 0.0
C21 C 0.22284 0.86721 0.67695 0.0
H22 H 0.69736 0.36127 0.96186 0.0
H23 H 0.69781 0.41742 0.86324 0.0
H24 H 0.6178 0.32061 0.87654 0.0
C25 C 0.68527 0.36413 0.93551 0.0
C26 C 0.65551 0.33801 0.92183 0.0
C27 C 0.7011 0.39263 0.91432 0.0
C28 C 0.68565 0.39561 0.87973 0.0
C29 C 0.655 0.36979 0.86638 0.0
C30 C 0.64074 0.34092 0.88728 0.0
N31 N 0.63843 0.37078 0.83164 0.0
C32 C 0.64266 0.39981 0.81004 0.0
H33 H 0.81087 0.74304 0.44206 0.0
H34 H 0.86421 0.77276 0.34076 0.0
H35 H 0.78251 0.6763 0.3452 0.0
C36 C 0.81543 0.73702 0.41364 0.0
C37 C 0.79381 0.70637 0.39638 0.0
C38 C 0.84093 0.76126 0.39391 0.0
C39 C 0.84509 0.75422 0.35659 0.0
C40 C 0.82474 0.72335 0.33929 0.0
C41 C 0.7991 0.69951 0.35911 0.0
N42 N 0.82693 0.71878 0.30111 0.0
C43 C 0.84423 0.6935 0.28439 0.0
H44 H 0.92127 0.8554 0.88552 0.0
H45 H 0.82162 0.81893 0.94699 0.0
H46 H 0.82111 0.8973 0.86884 0.0
C47 C 0.89245 0.85654 0.89209 0.0
C48 C 0.87379 0.8793 0.87356 0.0
C49 C 0.8738 0.83429 0.9183 0.0
C50 C 0.83647 0.8357 0.9267 0.0
C51 C 0.81789 0.8589 0.90975 0.0
C52 C 0.83643 0.88072 0.88316 0.0
N53 N 0.77972 0.85774 0.91868 0.0
C54 C 0.76175 0.8861 0.91765 0.0
H55 H 0.77502 0.16357 0.36145 0.0
H56 H 0.78666 0.22995 0.45935 0.0
H57 H 0.70497 0.24033 0.37876 0.0
C58 C 0.76693 0.18453 0.37806 0.0
C59 C 0.73752 0.20037 0.36612 0.0
C60 C 0.78537 0.19512 0.4116 0.0
C61 C 0.7739 0.22199 0.43291 0.0
C62 C 0.74547 0.23857 0.42122 0.0
C63 C 0.72721 0.22772 0.3878 0.0
N64 N 0.73583 0.26552 0.4445 0.0
C65 C 0.71071 0.28699 0.43652 0.0
H66 H 0.34427 0.74647 0.14249 0.0
H67 H 0.34126 0.68859 0.24004 0.0
H68 H 0.43123 0.77666 0.22386 0.0
C69 C 0.35633 0.74278 0.16857 0.0
C70 C 0.38999 0.76529 0.18024 0.0
C71 C 0.3379 0.7155 0.19018 0.0
C72 C 0.35505 0.70932 0.223 0.0
C73 C 0.38925 0.73117 0.23455 0.0
C74 C 0.40589 0.7592 0.21354 0.0
N75 N 0.40746 0.72715 0.26776 0.0
C76 C 0.3988 0.69878 0.29019 0.0
H77 H 0.21451 0.36077 0.66532 0.0
H78 H 0.19953 0.46211 0.70817 0.0
H79 H 0.11081 0.37131 0.71735 0.0
C80 C 0.19786 0.37665 0.68046 0.0
C81 C 0.16119 0.36131 0.6911 0.0
C82 C 0.21188 0.41304 0.68632 0.0
C83 C 0.18943 0.43388 0.70426 0.0
C84 C 0.15353 0.41865 0.71642 0.0
C85 C 0.13933 0.38253 0.70948 0.0
N86 N 0.12977 0.44061 0.73066 0.0
C87 C 0.12467 0.44581 0.7677 0.0
Dy88 Dy 0.04084 0.06269 0.51405 0.0
C89 C 0.98426 0.0085 0.65353 0.0
C90 C 0.07097 0.09432 0.45315 0.0
Dy91 Dy 1.00151 0.04029 0.5895 0.0
O92 O 0.09011 0.08578 0.47997 0.0
O93 O 0.03509 0.08561 0.45954 0.0
O94 O 0.07197 0.01853 0.5183 0.0
O95 O 0.05741 0.04406 0.566 0.0
C96 C 0.07164 0.01887 0.55357 0.0
C97 C 0.95812 0.07267 0.54812 0.0
O98 O 0.04159 0.09027 0.60665 0.0
O99 O 0.05399 0.11273 0.54915 0.0
O100 O 0.98494 0.04161 0.64827 0.0
O101 O 0.99352 0.99293 0.62395 0.0
O102 O 0.94854 0.06221 0.58045 0.0
O103 O 0.98944 0.06506 0.54148 0.0
O104 O 0.9975 0.01582 0.49524 0.0
O105 O 0.98332 0.9922 0.55207 0.0
C106 C 0.05515 0.11645 0.5852 0.0
C107 C 0.98137 0.98987 0.51594 0.0
Dy108 Dy 0.54849 0.06361 0.08177 0.0
C109 C 0.45171 0.00871 0.95986 0.0
C110 C 0.59071 0.09543 0.14028 0.0
Dy111 Dy 0.495 0.0414 0.01737 0.0
O112 O 0.56269 0.06877 0.1414 0.0
O113 O 0.59588 0.10491 0.10696 0.0
O114 O 0.54985 0.00689 0.08954 0.0
O115 O 0.50021 0.02033 0.07062 0.0
C116 C 0.51581 0.99502 0.07753 0.0
C117 C 0.52811 0.10999 0.02169 0.0
O118 O 0.45376 0.0543 0.05761 0.0
O119 O 0.49877 0.08833 0.09614 0.0
O120 O 0.47648 0.03789 0.95878 0.0
O121 O 0.45041 0.99725 0.99254 0.0
O122 O 0.49397 0.09833 0.00971 0.0
O123 O 0.54335 0.08446 0.02856 0.0
O124 O 0.58989 0.04895 0.04239 0.0
O125 O 0.54497 0.01798 1.00162 0.0
C126 C 0.46322 0.07716 0.08544 0.0
C127 C 0.58031 0.02748 0.01344 0.0
Dy128 Dy 0.5227 0.51659 0.5283 0.0
C129 C 0.47219 0.62791 0.61078 0.0
C130 C 0.55537 0.46705 0.49272 0.0
Dy131 Dy 0.50522 0.57865 0.57513 0.0
O132 O 0.52606 0.46031 0.5133 0.0
O133 O 0.56666 0.50099 0.49117 0.0
O134 O 0.46127 0.49145 0.52796 0.0
O135 O 0.48554 0.52174 0.57391 0.0
C136 C 0.45517 0.50484 0.5598 0.0
C137 C 0.57277 0.59076 0.54321 0.0
O138 O 0.53044 0.55194 0.61848 0.0
O139 O 0.55862 0.51729 0.57852 0.0
O140 O 0.50106 0.63479 0.58966 0.0
O141 O 0.46152 0.59396 0.61288 0.0
O142 O 0.56646 0.60459 0.5748 0.0
O143 O 0.54235 0.57349 0.52952 0.0
O144 O 0.49816 0.54374 0.48491 0.0
O145 O 0.46941 0.57798 0.52478 0.0
C146 C 0.55385 0.53025 0.61176 0.0
C147 C 0.47461 0.56532 0.49151 0.0
Dy148 Dy 0.02041 0.5162 0.07277 0.0
C149 C 0.98942 0.64813 0.03012 0.0
C150 C 0.04466 0.45564 0.0866 0.0
Dy151 Dy 0.01221 0.58746 0.04621 0.0
O152 O 0.0257 0.47196 0.10895 0.0
O153 O 0.0501 0.47225 0.05663 0.0
O154 O 0.97297 0.51724 0.11161 0.0
O155 O 0.00924 0.56471 0.0991 0.0
C156 C 0.97975 0.55146 0.11568 0.0
C157 C 0.05111 0.5512 1.00183 0.0
O158 O 0.05983 0.60515 0.08545 0.0
O159 O 0.07718 0.55085 0.08628 0.0
O160 O 0.0197 0.63878 0.01812 0.0
O161 O 0.97171 0.62448 0.05126 0.0
O162 O 0.05797 0.58535 0.0057 0.0
O163 O 0.02223 0.53865 0.01954 0.0
O164 O 0.96945 0.49785 0.03742 0.0
O165 O 0.95585 0.55338 0.03079 0.0
C166 C 0.08449 0.58549 0.09322 0.0
C167 C 0.94662 0.51844 0.02703 0.0
H168 H 0.2235 0.19841 0.2911 0.0
H169 H 0.12153 0.15406 0.23115 0.0
H170 H 0.19224 0.18037 0.34768 0.0
H171 H 0.09044 0.13447 0.28745 0.0
H172 H 0.03618 0.12172 0.39852 0.0
H173 H 0.06494 0.14837 0.34375 0.0
H174 H 0.17249 0.12839 0.37812 0.0
H175 H 0.14402 0.1035 0.43321 0.0
C176 C 0.1943 0.18484 0.29015 0.0
C177 C 0.17495 0.17751 0.25682 0.0
C178 C 0.1764 0.17421 0.32251 0.0
C179 C 0.13887 0.1554 0.32228 0.0
C180 C 0.11917 0.14919 0.2889 0.0
C181 C 0.13697 0.16032 0.25656 0.0
C182 C 0.06601 0.12332 0.3943 0.0
C183 C 0.08791 0.11064 0.42006 0.0
C184 C 0.0825 0.13839 0.36284 0.0
C185 C 0.12118 0.14074 0.35636 0.0
C186 C 0.14287 0.1279 0.38237 0.0
C187 C 0.1265 0.11329 0.4139 0.0
H188 H 0.28932 0.8849 0.80317 0.0
H189 H 0.39711 0.90438 0.75036 0.0
H190 H 0.31714 0.92203 0.85581 0.0
H191 H 0.42492 0.94106 0.80278 0.0
H192 H 0.45707 0.02832 0.88985 0.0
H193 H 0.42373 0.9973 0.83659 0.0
H194 H 0.36384 0.9172 0.90477 0.0
H195 H 0.3972 0.94845 0.9582 0.0
C196 C 0.31877 0.89759 0.80259 0.0
C197 C 0.34108 0.89171 0.77272 0.0
C198 C 0.33478 0.91852 0.83283 0.0
C199 C 0.37328 0.93436 0.83355 0.0
C200 C 0.39514 0.9295 0.80303 0.0
C201 C 0.37928 0.90833 0.77307 0.0
C202 C 0.43659 0.00421 0.89349 0.0
C203 C 0.42985 0.99068 0.92812 0.0
C204 C 0.4176 0.98638 0.86297 0.0
C205 C 0.39122 0.95471 0.8664 0.0
C206 C 0.38371 0.9417 0.90125 0.0
C207 C 0.40296 0.95945 0.9318 0.0
H208 H 0.64539 0.38765 0.73844 0.0
H209 H 0.63127 0.46667 0.82023 0.0
H210 H 0.62898 0.42406 0.69123 0.0
H211 H 0.61601 0.50431 0.77285 0.0
H212 H 0.53676 0.53218 0.68406 0.0
H213 H 0.56471 0.5053 0.73292 0.0
H214 H 0.64493 0.47494 0.65763 0.0
H215 H 0.61595 0.50052 0.60863 0.0
C216 C 0.63986 0.41345 0.74608 0.0
C217 C 0.63984 0.42467 0.78266 0.0
C218 C 0.63054 0.43446 0.71904 0.0
C219 C 0.62104 0.46728 0.72805 0.0
C220 C 0.62264 0.47905 0.76488 0.0
C221 C 0.63179 0.45779 0.79199 0.0
C222 C 0.56067 0.52015 0.67807 0.0
C223 C 0.5738 0.5181 0.64236 0.0
C224 C 0.5769 0.50487 0.70617 0.0
C225 C 0.60693 0.48752 0.6993 0.0
C226 C 0.62131 0.48727 0.66388 0.0
C227 C 0.60479 0.50213 0.63575 0.0
H228 H 0.81242 0.63678 0.24191 0.0
H229 H 0.91906 0.69937 0.27837 0.0
H230 H 0.84499 0.60159 0.20099 0.0
H231 H 0.95198 0.66402 0.23806 0.0
H232 H 0.99455 0.62247 0.13115 0.0
H233 H 0.96142 0.65557 0.17333 0.0
H234 H 0.88581 0.55881 0.19936 0.0
H235 H 0.91862 0.52587 0.15662 0.0
C236 C 0.8429 0.64251 0.24151 0.0
C237 C 0.86343 0.67041 0.26323 0.0
C238 C 0.86159 0.62241 0.21817 0.0
C239 C 0.90115 0.63006 0.21606 0.0
C240 C 0.92152 0.65772 0.23857 0.0
C241 C 0.90279 0.67773 0.2619 0.0
C242 C 0.97081 0.60832 0.14586 0.0
C243 C 0.95921 0.57159 0.14069 0.0
C244 C 0.95197 0.62723 0.17023 0.0
C245 C 0.92106 0.60985 0.18997 0.0
C246 C 0.90928 0.57309 0.18443 0.0
C247 C 0.92817 0.55419 0.16007 0.0
H248 H 0.25877 0.11163 0.19353 0.0
H249 H 0.31285 0.21238 0.15393 0.0
H250 H 0.31297 0.08669 0.17462 0.0
H251 H 0.36695 0.18751 0.13498 0.0
H252 H 0.38782 0.04975 0.08326 0.0
H253 H 0.3377 0.07411 0.11207 0.0
H254 H 0.42002 0.16062 0.1595 0.0
H255 H 0.47046 0.13618 0.13071 0.0
C256 C 0.28254 0.12855 0.18137 0.0
C257 C 0.28161 0.16386 0.17501 0.0
C258 C 0.31338 0.11425 0.17033 0.0
C259 C 0.34406 0.13513 0.15318 0.0
C260 C 0.34382 0.17086 0.14833 0.0
C261 C 0.3128 0.18502 0.15893 0.0
C262 C 0.39532 0.07386 0.09999 0.0
C263 C 0.43312 0.09113 0.10454 0.0
C264 C 0.3666 0.08764 0.11673 0.0
C265 C 0.37497 0.11922 0.13805 0.0
C266 C 0.41278 0.1363 0.14306 0.0
C267 C 0.44162 0.12224 0.12669 0.0
H268 H 0.23312 0.939 0.68552 0.0
H269 H 0.15786 0.84608 0.64128 0.0
H270 H 0.19347 0.97632 0.65885 0.0
H271 H 0.11846 0.88286 0.61475 0.0
H272 H 0.09589 0.9603 0.52986 0.0
H273 H 0.13059 0.9243 0.56367 0.0
H274 H 0.12621 0.99055 0.66017 0.0
H275 H 0.09088 0.0267 0.62608 0.0
C276 C 0.20778 0.92667 0.67061 0.0
C277 C 0.19831 0.88986 0.66533 0.0
C278 C 0.18509 0.9479 0.65545 0.0
C279 C 0.15299 0.9325 0.63446 0.0
C280 C 0.14319 0.89553 0.63039 0.0
C281 C 0.16559 0.87448 0.6457 0.0
C282 C 0.10206 0.96707 0.55836 0.0
C283 C 0.0907 0.99628 0.57533 0.0
C284 C 0.12184 0.94638 0.57777 0.0
C285 C 0.13113 0.95455 0.61462 0.0
C286 C 0.11965 0.98375 0.63176 0.0
C287 C 0.09927 0.00426 0.61235 0.0
H288 H 0.76855 0.40831 0.88038 0.0
H289 H 0.71189 0.43065 0.97879 0.0
H290 H 0.82842 0.44101 0.90635 0.0
H291 H 0.77158 0.46387 0.00453 0.0
H292 H 0.88383 0.54676 0.02136 0.0
H293 H 0.82378 0.51988 0.9918 0.0
H294 H 0.86759 0.42704 0.9622 0.0
H295 H 0.92742 0.45352 0.99222 0.0
C296 C 0.76881 0.42097 0.90719 0.0
C297 C 0.73571 0.41712 0.9276 0.0
C298 C 0.80302 0.43935 0.92214 0.0
C299 C 0.80457 0.45475 0.95748 0.0
C300 C 0.77111 0.45237 0.97718 0.0
C301 C 0.73705 0.43341 0.96251 0.0
C302 C 0.88066 0.52062 0.00851 0.0
C303 C 0.9103 0.50219 0.00921 0.0
C304 C 0.8463 0.50527 0.99169 0.0
C305 C 0.84119 0.47152 0.97458 0.0
C306 C 0.87095 0.45326 0.97489 0.0
C307 C 0.90505 0.4683 0.99232 0.0
H308 H 0.79756 0.68229 0.46486 0.0
H309 H 0.72144 0.67938 0.37415 0.0
H310 H 0.74626 0.64974 0.50022 0.0
H311 H 0.67001 0.64759 0.40954 0.0
H312 H 0.58708 0.57167 0.4732 0.0
H313 H 0.64254 0.59443 0.43742 0.0
H314 H 0.69139 0.66033 0.52996 0.0
H315 H 0.63664 0.63646 0.56589 0.0
C316 C 0.76987 0.67457 0.45244 0.0
C317 C 0.76359 0.68348 0.41671 0.0
C318 C 0.74039 0.65603 0.47274 0.0
C319 C 0.70378 0.64616 0.45794 0.0
C320 C 0.69784 0.65418 0.42177 0.0
C321 C 0.72738 0.67249 0.40141 0.0
C322 C 0.60998 0.59059 0.48599 0.0
C323 C 0.60751 0.60234 0.52231 0.0
C324 C 0.64165 0.60392 0.4654 0.0
C325 C 0.6715 0.62947 0.48061 0.0
C326 C 0.66932 0.64037 0.51735 0.0
C327 C 0.63777 0.62688 0.53795 0.0
H328 H 0.19394 0.30982 0.10472 0.0
H329 H 0.09491 0.25757 0.15976 0.0
H330 H 0.16403 0.35962 0.09402 0.0
H331 H 0.06431 0.30737 0.14875 0.0
H332 H 0.03927 0.42096 0.14988 0.0
H333 H 0.06791 0.37104 0.16429 0.0
H334 H 0.11258 0.36972 0.0558 0.0
H335 H 0.08454 0.4198 0.04174 0.0
C336 C 0.16579 0.30931 0.11479 0.0
C337 C 0.14658 0.28027 0.13307 0.0
C338 C 0.14853 0.33758 0.10841 0.0
C339 C 0.11161 0.33728 0.12016 0.0
C340 C 0.09281 0.30845 0.13951 0.0
C341 C 0.11018 0.28001 0.14578 0.0
C342 C 0.05507 0.4098 0.12913 0.0
C343 C 0.05988 0.42426 0.09476 0.0
C344 C 0.07133 0.38118 0.13732 0.0
C345 C 0.09278 0.36662 0.1113 0.0
C346 C 0.09682 0.38074 0.07668 0.0
C347 C 0.08057 0.40927 0.06852 0.0
H348 H 0.61429 0.33413 0.98375 0.0
H349 H 0.66364 0.27122 0.90574 0.0
H350 H 0.58547 0.28043 0.0147 0.0
H351 H 0.6357 0.21776 0.93687 0.0
H352 H 0.60428 0.13247 0.01874 0.0
H353 H 0.63848 0.18989 0.99983 0.0
H354 H 0.53375 0.22593 0.99228 0.0
H355 H 0.49947 0.16835 0.01057 0.0
C356 C 0.61936 0.30882 0.97369 0.0
C357 C 0.64097 0.30648 0.94251 0.0
C358 C 0.6029 0.27824 0.99123 0.0
C359 C 0.60853 0.24505 0.97821 0.0
C360 C 0.63129 0.24304 0.94771 0.0
C361 C 0.64708 0.27347 0.92982 0.0
C362 C 0.58867 0.15286 0.0136 0.0
C363 C 0.54923 0.14596 0.01571 0.0
C364 C 0.6082 0.18561 1.0027 0.0
C365 C 0.58869 0.2122 0.99445 0.0
C366 C 0.54947 0.20595 0.99869 0.0
C367 C 0.52988 0.17301 0.00897 0.0
H368 H 0.85105 0.82789 0.36877 0.0
H369 H 0.87763 0.77035 0.45967 0.0
H370 H 0.88447 0.88284 0.3982 0.0
H371 H 0.91182 0.82525 0.48895 0.0
H372 H 0.93712 0.93366 0.54773 0.0
H373 H 0.90316 0.87893 0.51843 0.0
H374 H 0.94566 0.91497 0.41434 0.0
H375 H 0.97865 0.97017 0.44349 0.0
C376 C 0.86446 0.82694 0.39488 0.0
C377 C 0.86179 0.79472 0.41183 0.0
C378 C 0.88371 0.85848 0.41177 0.0
C379 C 0.90102 0.85864 0.44599 0.0
C380 C 0.89838 0.82632 0.46289 0.0
C381 C 0.87888 0.79479 0.44608 0.0
C382 C 0.93922 0.92998 0.51857 0.0
C383 C 0.96063 0.95646 0.49801 0.0
C384 C 0.91989 0.8984 0.50176 0.0
C385 C 0.92162 0.89234 0.46395 0.0
C386 C 0.94312 0.91884 0.44342 0.0
C387 C 0.96226 0.95051 0.46021 0.0
H388 H 0.40778 0.82029 0.69783 0.0
H389 H 0.30343 0.74367 0.6865 0.0
H390 H 0.4425 0.77518 0.67884 0.0
H391 H 0.33797 0.69911 0.66533 0.0
H392 H 0.41255 0.61781 0.6571 0.0
H393 H 0.37951 0.66228 0.68257 0.0
H394 H 0.4547 0.74283 0.62594 0.0
H395 H 0.48826 0.6986 0.60176 0.0
C396 C 0.39218 0.79381 0.69142 0.0
C397 C 0.35268 0.7858 0.69367 0.0
C398 C 0.41211 0.76797 0.68001 0.0
C399 C 0.39314 0.7334 0.67025 0.0
C400 C 0.35367 0.72527 0.67294 0.0
C401 C 0.33375 0.75106 0.68459 0.0
C402 C 0.42211 0.6451 0.65043 0.0
C403 C 0.45297 0.65478 0.62752 0.0
C404 C 0.40303 0.67059 0.66478 0.0
C405 C 0.41428 0.70629 0.65632 0.0
C406 C 0.44551 0.71581 0.63363 0.0
C407 C 0.46467 0.6904 0.61953 0.0
H408 H 0.92246 0.85931 0.82365 0.0
H409 H 0.86744 0.94553 0.85305 0.0
H410 H 0.95255 0.89172 0.77351 0.0
H411 H 0.89495 0.97668 0.80064 0.0
H412 H 0.97333 0.03844 0.71997 0.0
H413 H 0.9494 0.00838 0.77455 0.0
H414 H 0.93986 0.90771 0.71586 0.0
H415 H 0.9657 0.93789 0.6623 0.0
C416 C 0.91684 0.88529 0.81966 0.0
C417 C 0.89253 0.89974 0.84284 0.0
C418 C 0.93364 0.90369 0.79026 0.0
C419 C 0.92607 0.93683 0.78254 0.0
C420 C 0.90193 0.95145 0.80581 0.0
C421 C 0.88559 0.93326 0.83567 0.0
C422 C 0.96644 0.00987 0.71903 0.0
C423 C 0.97146 0.99045 0.68704 0.0
C424 C 0.95238 0.99258 0.7502 0.0
C425 C 0.94247 0.95547 0.74985 0.0
C426 C 0.94781 0.93621 0.71764 0.0
C427 C 0.96243 0.9535 0.68675 0.0
H428 H 0.76606 0.18393 0.30007 0.0
H429 H 0.66146 0.18706 0.35456 0.0
H430 H 0.73103 0.1598 0.24477 0.0
H431 H 0.62661 0.1637 0.29925 0.0
H432 H 0.57769 0.08001 0.21077 0.0
H433 H 0.61359 0.10682 0.26433 0.0
H434 H 0.6897 0.17557 0.19628 0.0
H435 H 0.65359 0.14841 0.14239 0.0
C436 C 0.73562 0.17957 0.30021 0.0
C437 C 0.71656 0.18735 0.33178 0.0
C438 C 0.71558 0.16606 0.26844 0.0
C439 C 0.67602 0.1597 0.26763 0.0
C440 C 0.65705 0.16794 0.29906 0.0
C441 C 0.67705 0.18167 0.33067 0.0
C442 C 0.60205 0.10088 0.20722 0.0
C443 C 0.61283 0.11217 0.17243 0.0
C444 C 0.62251 0.1164 0.23794 0.0
C445 C 0.65442 0.14347 0.23463 0.0
C446 C 0.6654 0.15462 0.19973 0.0
C447 C 0.64467 0.13922 0.16891 0.0
H448 H 0.39477 0.71222 0.36155 0.0
H449 H 0.40352 0.62999 0.28146 0.0
H450 H 0.40685 0.67482 0.40977 0.0
H451 H 0.41439 0.5915 0.32979 0.0
H452 H 0.49112 0.56111 0.41924 0.0
H453 H 0.46502 0.58864 0.36984 0.0
H454 H 0.38753 0.62472 0.44436 0.0
H455 H 0.41468 0.59829 0.49399 0.0
C456 C 0.39805 0.68555 0.3545 0.0
C457 C 0.39797 0.67369 0.3181 0.0
C458 C 0.4049 0.664 0.3821 0.0
C459 C 0.41182 0.63004 0.37382 0.0
C460 C 0.40977 0.61764 0.33719 0.0
C461 C 0.4031 0.63941 0.30953 0.0
C462 C 0.46817 0.5745 0.425 0.0
C463 C 0.45535 0.57788 0.46067 0.0
C464 C 0.45297 0.59016 0.39655 0.0
C465 C 0.42431 0.60929 0.40303 0.0
C466 C 0.41012 0.61091 0.43843 0.0
C467 C 0.42559 0.59559 0.46691 0.0
H468 H 0.05779 0.43159 0.80101 0.0
H469 H 0.17424 0.48171 0.81738 0.0
H470 H 0.04276 0.45387 0.86112 0.0
H471 H 0.15974 0.50355 0.87801 0.0
H472 H 0.10703 0.57736 0.95551 0.0
H473 H 0.12726 0.54793 0.90161 0.0
H474 H 0.04983 0.45174 0.92619 0.0
H475 H 0.02898 0.48166 0.97983 0.0
C476 C 0.08027 0.44677 0.81797 0.0
C477 C 0.11709 0.45496 0.80495 0.0
C478 C 0.07177 0.45944 0.85245 0.0
C479 C 0.1 0.48067 0.87448 0.0
C480 C 0.13722 0.4877 0.86164 0.0
C481 C 0.14564 0.47501 0.82713 0.0
C482 C 0.09464 0.54981 0.94961 0.0
C483 C 0.06623 0.5319 0.9717 0.0
C484 C 0.10641 0.53282 0.91881 0.0
C485 C 0.09009 0.49744 0.90936 0.0
C486 C 0.06263 0.47914 0.93234 0.0
C487 C 0.05085 0.49618 0.9632 0.0
H488 H 0.78295 0.95442 0.94101 0.0
H489 H 0.68736 0.87411 0.90706 0.0
H490 H 0.74072 0.99407 0.95924 0.0
H491 H 0.64499 0.91273 0.92611 0.0
H492 H 0.57503 0.99339 0.94662 0.0
H493 H 0.62128 0.96446 0.91703 0.0
H494 H 0.69773 0.99726 0.00782 0.0
H495 H 0.65194 0.02724 0.03681 0.0
C496 C 0.75289 0.94567 0.93681 0.0
C497 C 0.73812 0.91162 0.92244 0.0
C498 C 0.72868 0.96809 0.94758 0.0
C499 C 0.68936 0.95657 0.9444 0.0
C500 C 0.67502 0.92281 0.92848 0.0
C501 C 0.69921 0.90058 0.91762 0.0
C502 C 0.60185 0.99473 0.96013 0.0
C503 C 0.60963 0.01234 0.99427 0.0
C504 C 0.62836 0.97802 0.94319 0.0
C505 C 0.66317 0.97819 0.96013 0.0
C506 C 0.67145 0.99693 0.9937 0.0
C507 C 0.64505 0.01394 0.0105 0.0
H508 H 0.79056 0.12495 0.40414 0.0
H509 H 0.8489 0.22553 0.45097 0.0
H510 H 0.83633 0.09602 0.43309 0.0
H511 H 0.89287 0.19603 0.48133 0.0
H512 H 0.90706 0.11095 0.5701 0.0
H513 H 0.86904 0.14128 0.53257 0.0
H514 H 0.92024 0.10598 0.43609 0.0
H515 H 0.95941 0.0763 0.47395 0.0
C516 C 0.81334 0.14105 0.41999 0.0
C517 C 0.81549 0.17765 0.42555 0.0
C518 C 0.83943 0.12437 0.43665 0.0
C519 C 0.86783 0.14386 0.45953 0.0
C520 C 0.87101 0.18046 0.46397 0.0
C521 C 0.8455 0.19722 0.44682 0.0
C522 C 0.91043 0.10988 0.54091 0.0
C523 C 0.93634 0.09157 0.52488 0.0
C524 C 0.88875 0.12723 0.51951 0.0
C525 C 0.89182 0.1259 0.48157 0.0
C526 C 0.91747 0.10734 0.46534 0.0
C527 C 0.93995 0.09063 0.48692 0.0
H528 H 0.30869 0.64441 0.19596 0.0
H529 H 0.28074 0.74046 0.1591 0.0
H530 H 0.24654 0.61175 0.17617 0.0
H531 H 0.22027 0.7078 0.13734 0.0
H532 H 0.10122 0.64973 0.12923 0.0
H533 H 0.16102 0.67922 0.1563 0.0
H534 H 0.2101 0.59019 0.12291 0.0
H535 H 0.14949 0.55999 0.09718 0.0
C536 C 0.28937 0.65856 0.18367 0.0
C537 C 0.29997 0.69504 0.17885 0.0
C538 C 0.25388 0.63977 0.17192 0.0
C539 C 0.22821 0.65704 0.15507 0.0
C540 C 0.23885 0.69356 0.15066 0.0
C541 C 0.27399 0.71228 0.16262 0.0
C542 C 0.12473 0.63637 0.12778 0.0
C543 C 0.12069 0.60265 0.11078 0.0
C544 C 0.15917 0.65337 0.14317 0.0
C545 C 0.19073 0.63738 0.14144 0.0
C546 C 0.18642 0.60323 0.12513 0.0
C547 C 0.15171 0.58598 0.11015 0.0
H548 H 0.22508 0.467 0.6402 0.0
H549 H 0.28056 0.39596 0.69633 0.0
H550 H 0.28431 0.49184 0.61048 0.0
H551 H 0.34013 0.42148 0.66724 0.0
H552 H 0.44468 0.50752 0.63312 0.0
H553 H 0.38598 0.48708 0.66577 0.0
H554 H 0.32659 0.46046 0.56365 0.0
H555 H 0.3854 0.47986 0.531 0.0
C556 C 0.25012 0.45713 0.64656 0.0
C557 C 0.24839 0.42966 0.67058 0.0
C558 C 0.28385 0.47119 0.62947 0.0
C559 C 0.31666 0.45857 0.63667 0.0
C560 C 0.31522 0.43178 0.66146 0.0
C561 C 0.28124 0.41715 0.67794 0.0
C562 C 0.41902 0.49747 0.6177 0.0
C563 C 0.41949 0.4951 0.57956 0.0
C564 C 0.38558 0.48568 0.63636 0.0
C565 C 0.35191 0.4722 0.61716 0.0
C566 C 0.35219 0.47089 0.57903 0.0
C567 C 0.38577 0.48187 0.5604 0.0
H568 H 0.94636 0.84427 0.94446 0.0
H569 H 0.84351 0.76579 0.93203 0.0
H570 H 0.97607 0.80163 0.97453 0.0
H571 H 0.87292 0.72364 0.96231 0.0
H572 H 0.92312 0.66679 0.04796 0.0
H573 H 0.89657 0.71401 0.02303 0.0
H574 H 0.9967 0.74526 0.95945 0.0
H575 H 0.02335 0.69824 0.98473 0.0
C576 C 0.93017 0.81793 0.94798 0.0
C577 C 0.89248 0.80854 0.93609 0.0
C578 C 0.94713 0.79358 0.96528 0.0
C579 C 0.92669 0.75941 0.97114 0.0
C580 C 0.88916 0.75 0.95896 0.0
C581 C 0.87231 0.77419 0.94158 0.0
C582 C 0.93959 0.68405 0.02901 0.0
C583 C 0.97514 0.67881 0.01808 0.0
C584 C 0.92434 0.71092 0.01457 0.0
C585 C 0.94441 0.73313 0.98901 0.0
C586 C 0.98066 0.72874 0.97925 0.0
C587 C 0.99584 0.70175 0.99359 0.0
H588 H 0.46533 0.79379 0.17311 0.0
H589 H 0.3553 0.80682 0.13814 0.0
H590 H 0.49376 0.84732 0.14427 0.0
H591 H 0.38417 0.85828 0.10572 0.0
H592 H 0.44185 0.97409 0.09451 0.0
H593 H 0.41089 0.9167 0.11497 0.0
H594 H 0.51227 0.87679 0.09326 0.0
H595 H 0.54377 0.9352 0.07568 0.0
C596 C 0.4471 0.80781 0.15897 0.0
C597 C 0.40781 0.79597 0.15866 0.0
C598 C 0.46361 0.83836 0.1416 0.0
C599 C 0.44146 0.85762 0.12249 0.0
C600 C 0.40228 0.84482 0.12072 0.0
C601 C 0.38567 0.8147 0.13886 0.0
C602 C 0.45725 0.95283 0.09379 0.0
C603 C 0.49524 0.95901 0.08395 0.0
C604 C 0.43946 0.91972 0.10533 0.0
C605 C 0.45904 0.89178 0.10639 0.0
C606 C 0.49647 0.8977 0.0941 0.0
C607 C 0.5145 0.93107 0.08357 0.0
H608 H 0.19136 0.30241 0.69782 0.0
H609 H 0.09382 0.33683 0.65691 0.0
H610 H 0.16567 0.24229 0.67365 0.0
H611 H 0.0684 0.27703 0.63261 0.0
H612 H 0.06573 0.18006 0.55359 0.0
H613 H 0.09069 0.23839 0.58151 0.0
H614 H 0.10695 0.19133 0.68274 0.0
H615 H 0.08144 0.13271 0.65499 0.0
C616 C 0.16433 0.29703 0.68394 0.0
C617 C 0.14451 0.32424 0.67937 0.0
C618 C 0.1496 0.26268 0.67025 0.0
C619 C 0.11515 0.25509 0.65112 0.0
C620 C 0.09514 0.2822 0.64703 0.0
C621 C 0.10952 0.31633 0.66122 0.0
C622 C 0.07473 0.18204 0.58177 0.0
C623 C 0.07155 0.15169 0.60206 0.0
C624 C 0.08879 0.21549 0.5978 0.0
C625 C 0.1006 0.21937 0.63432 0.0
C626 C 0.09814 0.18906 0.6545 0.0
C627 C 0.08341 0.15556 0.63863 0.0
H628 H 0.73349 0.35676 0.44701 0.0
H629 H 0.63533 0.27522 0.42472 0.0
H630 H 0.69388 0.40042 0.4548 0.0
H631 H 0.59517 0.31902 0.4314 0.0
H632 H 0.53813 0.39612 0.50059 0.0
H633 H 0.57436 0.35244 0.48041 0.0
H634 H 0.65319 0.43359 0.42819 0.0
H635 H 0.61736 0.47745 0.44955 0.0
C636 C 0.70336 0.34848 0.44284 0.0
C637 C 0.68728 0.31293 0.43513 0.0
C638 C 0.6806 0.37347 0.44715 0.0
C639 C 0.64118 0.36335 0.44385 0.0
C640 C 0.62533 0.32772 0.43464 0.0
C641 C 0.64822 0.30268 0.43045 0.0
C642 C 0.56298 0.40451 0.48445 0.0
C643 C 0.57511 0.44019 0.47686 0.0
C644 C 0.58366 0.37941 0.47262 0.0
C645 C 0.61692 0.3894 0.45276 0.0
C646 C 0.62811 0.42499 0.44393 0.0
C647 C 0.60749 0.45012 0.45595 0.0
loop_
_geom_bond_atom_site_label_1
_geom_bond_atom_site_label_2
_geom_bond_distance
_geom_bond_site_symmetry_2
_ccdc_geom_bond_type
H0 C3 0.929 . S
H1 C6 0.929 . S
H2 C8 0.930 . S
C3 H0 0.929 . S
C3 C4 1.398 . S
C3 C5 1.396 . S
C4 C3 1.398 . S
C4 C8 1.407 . S
C5 C3 1.396 . S
C5 C6 1.394 . S
C6 H1 0.929 . S
C6 C5 1.394 . S
C6 C7 1.382 . S
C7 C6 1.382 . S
C7 C8 1.392 . S
C7 N9 1.420 . S
C8 H2 0.930 . S
C8 C4 1.407 . S
C8 C7 1.392 . S
N9 C7 1.420 . S
N9 C10 1.244 . S
C10 N9 1.244 . S
H11 C14 0.929 . S
H12 C17 0.929 . S
H13 C19 0.930 . S
C14 H11 0.929 . S
C14 C15 1.398 . S
C14 C16 1.396 . S
C15 C14 1.398 . S
C15 C19 1.407 . S
C16 C14 1.396 . S
C16 C17 1.394 . S
C17 H12 0.929 . S
C17 C16 1.394 . S
C17 C18 1.382 . S
C18 C17 1.382 . S
C18 C19 1.392 . S
C18 N20 1.420 . S
C19 H13 0.930 . S
C19 C15 1.407 . S
C19 C18 1.392 . S
N20 C18 1.420 . S
N20 C21 1.244 . S
C21 N20 1.244 . S
H22 C25 0.929 . S
H23 C28 0.929 . S
H24 C30 0.930 . S
C25 H22 0.929 . S
C25 C26 1.398 . S
C25 C27 1.396 . S
C26 C25 1.398 . S
C26 C30 1.407 . S
C27 C25 1.396 . S
C27 C28 1.394 . S
C28 H23 0.929 . S
C28 C27 1.394 . S
C28 C29 1.382 . S
C29 C28 1.382 . S
C29 C30 1.392 . S
C29 N31 1.420 . S
C30 H24 0.930 . S
C30 C26 1.407 . S
C30 C29 1.392 . S
N31 C29 1.420 . S
N31 C32 1.244 . S
C32 N31 1.244 . S
H33 C36 0.929 . S
H34 C39 0.929 . S
H35 C41 0.930 . S
C36 H33 0.929 . S
C36 C37 1.398 . S
C36 C38 1.396 . S
C37 C36 1.398 . S
C37 C41 1.407 . S
C38 C36 1.396 . S
C38 C39 1.394 . S
C39 H34 0.929 . S
C39 C38 1.394 . S
C39 C40 1.382 . S
C40 C39 1.382 . S
C40 C41 1.392 . S
C40 N42 1.420 . S
C41 H35 0.930 . S
C41 C37 1.407 . S
C41 C40 1.392 . S
N42 C40 1.420 . S
N42 C43 1.244 . S
C43 N42 1.244 . S
H44 C47 0.929 . S
H45 C50 0.929 . S
H46 C52 0.930 . S
C47 H44 0.929 . S
C47 C48 1.398 . S
C47 C49 1.396 . S
C48 C47 1.398 . S
C48 C52 1.407 . S
C49 C47 1.396 . S
C49 C50 1.394 . S
C50 H45 0.929 . S
C50 C49 1.394 . S
C50 C51 1.382 . S
C51 C50 1.382 . S
C51 C52 1.392 . S
C51 N53 1.420 . S
C52 H46 0.930 . S
C52 C48 1.407 . S
C52 C51 1.392 . S
N53 C51 1.420 . S
N53 C54 1.244 . S
C54 N53 1.244 . S
H55 C58 0.929 . S
H56 C61 0.929 . S
H57 C63 0.930 . S
C58 H55 0.929 . S
C58 C59 1.398 . S
C58 C60 1.396 . S
C59 C58 1.398 . S
C59 C63 1.407 . S
C60 C58 1.396 . S
C60 C61 1.394 . S
C61 H56 0.929 . S
C61 C60 1.394 . S
C61 C62 1.382 . S
C62 C61 1.382 . S
C62 C63 1.392 . S
C62 N64 1.420 . S
C63 H57 0.930 . S
C63 C59 1.407 . S
C63 C62 1.392 . S
N64 C62 1.420 . S
N64 C65 1.244 . S
C65 N64 1.244 . S
H66 C69 0.929 . S
H67 C72 0.929 . S
H68 C74 0.930 . S
C69 H66 0.929 . S
C69 C70 1.398 . S
C69 C71 1.396 . S
C70 C69 1.398 . S
C70 C74 1.407 . S
C71 C69 1.396 . S
C71 C72 1.394 . S
C72 H67 0.929 . S
C72 C71 1.394 . S
C72 C73 1.382 . S
C73 C72 1.382 . S
C73 C74 1.392 . S
C73 N75 1.420 . S
C74 H68 0.930 . S
C74 C70 1.407 . S
C74 C73 1.392 . S
N75 C73 1.420 . S
N75 C76 1.244 . S
C76 N75 1.244 . S
H77 C80 0.929 . S
H78 C83 0.929 . S
H79 C85 0.930 . S
C80 H77 0.929 . S
C80 C81 1.398 . S
C80 C82 1.396 . S
C81 C80 1.398 . S
C81 C85 1.407 . S
C82 C80 1.396 . S
C82 C83 1.394 . S
C83 H78 0.929 . S
C83 C82 1.394 . S
C83 C84 1.382 . S
C84 C83 1.382 . S
C84 C85 1.392 . S
C84 N86 1.420 . S
C85 H79 0.930 . S
C85 C81 1.407 . S
C85 C84 1.392 . S
N86 C84 1.420 . S
N86 C87 1.244 . S
C87 N86 1.244 . S
Dy88 O92 2.398 . S
Dy88 O93 2.491 . S
Dy88 O94 2.403 . S
Dy88 O95 2.664 . S
Dy88 O99 2.326 . S
Dy88 O103 2.310 1_455 S
Dy88 O104 2.351 1_545 S
C89 O100 1.185 . S
C89 O101 1.355 . S
C90 O92 1.185 . S
C90 O93 1.355 . S
Dy91 O95 2.310 1_655 S
Dy91 O98 2.351 1_655 S
Dy91 O100 2.398 1_545 S
Dy91 O101 2.491 1_545 S
Dy91 O102 2.403 . S
Dy91 O103 2.664 . S
Dy91 O105 2.326 1_545 S
O92 Dy88 2.398 . S
O92 C90 1.185 . S
O93 Dy88 2.491 . S
O93 C90 1.355 . S
O94 Dy88 2.403 . S
O94 C96 1.254 . S
O95 Dy88 2.664 . S
O95 Dy91 2.310 1_455 S
O95 C96 1.268 . S
C96 O94 1.254 . S
C96 O95 1.268 . S
C97 O102 1.254 . S
C97 O103 1.268 . S
O98 Dy91 2.351 1_455 S
O98 C106 1.249 . S
O99 Dy88 2.326 . S
O99 C106 1.267 . S
O100 C89 1.185 . S
O100 Dy91 2.398 1_565 S
O101 C89 1.355 . S
O101 Dy91 2.491 1_565 S
O102 Dy91 2.403 . S
O102 C97 1.254 . S
O103 Dy88 2.310 1_655 S
O103 Dy91 2.664 . S
O103 C97 1.268 . S
O104 Dy88 2.351 1_565 S
O104 C107 1.249 1_455 S
O105 Dy91 2.326 1_565 S
O105 C107 1.267 . S
C106 O98 1.249 . S
C106 O99 1.267 . S
C107 O104 1.249 1_655 S
C107 O105 1.267 . S
Dy108 O112 2.398 . S
Dy108 O113 2.491 . S
Dy108 O114 2.403 1_545 S
Dy108 O115 2.664 1_545 S
Dy108 O119 2.326 . S
Dy108 O123 2.310 . S
Dy108 O124 2.351 . S
C109 O120 1.185 1_565 S
C109 O121 1.355 . S
C110 O112 1.185 . S
C110 O113 1.355 . S
Dy111 O115 2.310 1_545 S
Dy111 O118 2.351 . S
Dy111 O120 2.398 1_554 S
Dy111 O121 2.491 1_544 S
Dy111 O122 2.403 1_554 S
Dy111 O123 2.664 . S
Dy111 O125 2.326 . S
O112 Dy108 2.398 . S
O112 C110 1.185 . S
O113 Dy108 2.491 . S
O113 C110 1.355 . S
O114 Dy108 2.403 1_565 S
O114 C116 1.254 . S
O115 Dy108 2.664 1_565 S
O115 Dy111 2.310 1_565 S
O115 C116 1.268 . S
C116 O114 1.254 . S
C116 O115 1.268 . S
C117 O122 1.254 1_554 S
C117 O123 1.268 . S
O118 Dy111 2.351 . S
O118 C126 1.249 . S
O119 Dy108 2.326 . S
O119 C126 1.267 . S
O120 C109 1.185 1_545 S
O120 Dy111 2.398 1_556 S
O121 C109 1.355 . S
O121 Dy111 2.491 1_566 S
O122 Dy111 2.403 1_556 S
O122 C117 1.254 1_556 S
O123 Dy108 2.310 . S
O123 Dy111 2.664 . S
O123 C117 1.268 . S
O124 Dy108 2.351 . S
O124 C127 1.252 . S
O125 Dy111 2.326 . S
O125 C127 1.283 . S
C126 O118 1.249 . S
C126 O119 1.267 . S
C127 O124 1.252 . S
C127 O125 1.283 . S
Dy128 O132 2.398 . S
Dy128 O133 2.491 . S
Dy128 O134 2.403 . S
Dy128 O135 2.664 . S
Dy128 O139 2.326 . S
Dy128 O143 2.310 . S
Dy128 O144 2.351 . S
C129 O140 1.185 . S
C129 O141 1.355 . S
C130 O132 1.185 . S
C130 O133 1.355 . S
Dy131 O135 2.310 . S
Dy131 O138 2.351 . S
Dy131 O140 2.398 . S
Dy131 O141 2.491 . S
Dy131 O142 2.403 . S
Dy131 O143 2.664 . S
Dy131 O145 2.326 . S
O132 Dy128 2.398 . S
O132 C130 1.185 . S
O133 Dy128 2.491 . S
O133 C130 1.355 . S
O134 Dy128 2.403 . S
O134 C136 1.254 . S
O135 Dy128 2.664 . S
O135 Dy131 2.310 . S
O135 C136 1.268 . S
C136 O134 1.254 . S
C136 O135 1.268 . S
C137 O142 1.254 . S
C137 O143 1.268 . S
O138 Dy131 2.351 . S
O138 C146 1.249 . S
O139 Dy128 2.326 . S
O139 C146 1.267 . S
O140 C129 1.185 . S
O140 Dy131 2.398 . S
O141 C129 1.355 . S
O141 Dy131 2.491 . S
O142 Dy131 2.403 . S
O142 C137 1.254 . S
O143 Dy128 2.310 . S
O143 Dy131 2.664 . S
O143 C137 1.268 . S
O144 Dy128 2.351 . S
O144 C147 1.249 . S
O145 Dy131 2.326 . S
O145 C147 1.267 . S
C146 O138 1.249 . S
C146 O139 1.267 . S
C147 O144 1.249 . S
C147 O145 1.267 . S
Dy148 O152 2.398 . S
Dy148 O153 2.491 . S
Dy148 O154 2.418 . S
Dy148 O155 2.668 . S
Dy148 O159 2.326 . S
Dy148 O163 2.300 1_554 S
Dy148 O164 2.351 1_455 S
C149 O160 1.185 . S
C149 O161 1.355 1_556 S
C150 O152 1.185 . S
C150 O153 1.355 . S
Dy151 O155 2.311 . S
Dy151 O158 2.351 . S
Dy151 O160 2.398 1_454 S
Dy151 O161 2.491 1_455 S
Dy151 O162 2.403 1_554 S
Dy151 O163 2.664 1_554 S
Dy151 O165 2.326 1_454 S
O152 Dy148 2.398 . S
O152 C150 1.185 . S
O153 Dy148 2.491 . S
O153 C150 1.355 . S
O154 Dy148 2.418 . S
O154 C156 1.242 1_455 S
O155 Dy148 2.668 . S
O155 Dy151 2.311 . S
O155 C156 1.266 1_455 S
C156 O154 1.242 1_655 S
C156 O155 1.266 1_655 S
C157 O162 1.254 . S
C157 O163 1.278 . S
O158 Dy151 2.351 . S
O158 C166 1.249 . S
O159 Dy148 2.326 . S
O159 C166 1.267 . S
O160 C149 1.185 . S
O160 Dy151 2.398 1_656 S
O161 C149 1.355 1_554 S
O161 Dy151 2.491 1_655 S
O162 Dy151 2.403 1_556 S
O162 C157 1.254 . S
O163 Dy148 2.300 1_556 S
O163 Dy151 2.664 1_556 S
O163 C157 1.278 . S
O164 Dy148 2.351 1_655 S
O164 C167 1.249 1_554 S
O165 Dy151 2.326 1_656 S
O165 C167 1.267 . S
C166 O158 1.249 . S
C166 O159 1.267 . S
C167 O164 1.249 1_556 S
C167 O165 1.267 . S
H168 C176 0.950 . S
H169 C181 0.950 . S
H170 C178 0.950 . S
H171 C180 0.950 . S
H172 C182 0.950 . S
H173 C184 0.950 . S
H174 C186 0.950 . S
H175 C187 0.950 . S
C176 H168 0.950 . S
C176 C177 1.386 . S
C176 C178 1.391 . S
C177 C176 1.386 . S
C177 C181 1.393 . S
C178 H170 0.950 . S
C178 C176 1.391 . S
C178 C179 1.400 . S
C179 C178 1.400 . S
C179 C180 1.398 . S
C179 C185 1.491 . S
C180 H171 0.950 . S
C180 C179 1.398 . S
C180 C181 1.391 . S
C181 H169 0.950 . S
C181 C177 1.393 . S
C181 C180 1.391 . S
C182 H172 0.950 . S
C182 C183 1.386 . S
C182 C184 1.391 . S
C183 C182 1.386 . S
C183 C187 1.393 . S
C184 H173 0.950 . S
C184 C182 1.391 . S
C184 C185 1.400 . S
C185 C179 1.491 . S
C185 C184 1.400 . S
C185 C186 1.398 . S
C186 H174 0.950 . S
C186 C185 1.398 . S
C186 C187 1.391 . S
C187 H175 0.950 . S
C187 C183 1.393 . S
C187 C186 1.391 . S
H188 C196 0.950 . S
H189 C201 0.950 . S
H190 C198 0.950 . S
H191 C200 0.950 . S
H192 C202 0.950 . S
H193 C204 0.950 . S
H194 C206 0.950 . S
H195 C207 0.950 . S
C196 H188 0.950 . S
C196 C197 1.386 . S
C196 C198 1.391 . S
C197 C196 1.386 . S
C197 C201 1.393 . S
C198 H190 0.950 . S
C198 C196 1.391 . S
C198 C199 1.400 . S
C199 C198 1.400 . S
C199 C200 1.398 . S
C199 C205 1.491 . S
C200 H191 0.950 . S
C200 C199 1.398 . S
C200 C201 1.391 . S
C201 H189 0.950 . S
C201 C197 1.393 . S
C201 C200 1.391 . S
C202 H192 0.950 . S
C202 C203 1.386 . S
C202 C204 1.391 . S
C203 C202 1.386 . S
C203 C207 1.393 . S
C204 H193 0.950 . S
C204 C202 1.391 . S
C204 C205 1.400 . S
C205 C199 1.491 . S
C205 C204 1.400 . S
C205 C206 1.398 . S
C206 H194 0.950 . S
C206 C205 1.398 . S
C206 C207 1.391 . S
C207 H195 0.950 . S
C207 C203 1.393 . S
C207 C206 1.391 . S
H208 C216 0.950 . S
H209 C221 0.950 . S
H210 C218 0.950 . S
H211 C220 0.950 . S
H212 C222 0.950 . S
H213 C224 0.950 . S
H214 C226 0.950 . S
H215 C227 0.950 . S
C216 H208 0.950 . S
C216 C217 1.386 . S
C216 C218 1.391 . S
C217 C216 1.386 . S
C217 C221 1.393 . S
C218 H210 0.950 . S
C218 C216 1.391 . S
C218 C219 1.400 . S
C219 C218 1.400 . S
C219 C220 1.398 . S
C219 C225 1.491 . S
C220 H211 0.950 . S
C220 C219 1.398 . S
C220 C221 1.391 . S
C221 H209 0.950 . S
C221 C217 1.393 . S
C221 C220 1.391 . S
C222 H212 0.950 . S
C222 C223 1.386 . S
C222 C224 1.391 . S
C223 C222 1.386 . S
C223 C227 1.393 . S
C224 H213 0.950 . S
C224 C222 1.391 . S
C224 C225 1.400 . S
C225 C219 1.491 . S
C225 C224 1.400 . S
C225 C226 1.398 . S
C226 H214 0.950 . S
C226 C225 1.398 . S
C226 C227 1.391 . S
C227 H215 0.950 . S
C227 C223 1.393 . S
C227 C226 1.391 . S
H228 C236 0.950 . S
H229 C241 0.950 . S
H230 C238 0.950 . S
H231 C240 0.950 . S
H232 C242 0.950 . S
H233 C244 0.950 . S
H234 C246 0.950 . S
H235 C247 0.950 . S
C236 H228 0.950 . S
C236 C237 1.386 . S
C236 C238 1.391 . S
C237 C236 1.386 . S
C237 C241 1.393 . S
C238 H230 0.950 . S
C238 C236 1.391 . S
C238 C239 1.400 . S
C239 C238 1.400 . S
C239 C240 1.398 . S
C239 C245 1.491 . S
C240 H231 0.950 . S
C240 C239 1.398 . S
C240 C241 1.391 . S
C241 H229 0.950 . S
C241 C237 1.393 . S
C241 C240 1.391 . S
C242 H232 0.950 . S
C242 C243 1.386 . S
C242 C244 1.391 . S
C243 C242 1.386 . S
C243 C247 1.393 . S
C244 H233 0.950 . S
C244 C242 1.391 . S
C244 C245 1.400 . S
C245 C239 1.491 . S
C245 C244 1.400 . S
C245 C246 1.398 . S
C246 H234 0.950 . S
C246 C245 1.398 . S
C246 C247 1.391 . S
C247 H235 0.950 . S
C247 C243 1.393 . S
C247 C246 1.391 . S
H248 C256 0.950 . S
H249 C261 0.950 . S
H250 C258 0.950 . S
H251 C260 0.950 . S
H252 C262 0.950 . S
H253 C264 0.950 . S
H254 C266 0.950 . S
H255 C267 0.950 . S
C256 H248 0.950 . S
C256 C257 1.386 . S
C256 C258 1.391 . S
C257 C256 1.386 . S
C257 C261 1.393 . S
C258 H250 0.950 . S
C258 C256 1.391 . S
C258 C259 1.400 . S
C259 C258 1.400 . S
C259 C260 1.398 . S
C259 C265 1.491 . S
C260 H251 0.950 . S
C260 C259 1.398 . S
C260 C261 1.391 . S
C261 H249 0.950 . S
C261 C257 1.393 . S
C261 C260 1.391 . S
C262 H252 0.950 . S
C262 C263 1.386 . S
C262 C264 1.391 . S
C263 C262 1.386 . S
C263 C267 1.393 . S
C264 H253 0.950 . S
C264 C262 1.391 . S
C264 C265 1.400 . S
C265 C259 1.491 . S
C265 C264 1.400 . S
C265 C266 1.398 . S
C266 H254 0.950 . S
C266 C265 1.398 . S
C266 C267 1.391 . S
C267 H255 0.950 . S
C267 C263 1.393 . S
C267 C266 1.391 . S
H268 C276 0.950 . S
H269 C281 0.950 . S
H270 C278 0.950 1_545 S
H271 C280 0.950 . S
H272 C282 0.950 . S
H273 C284 0.950 . S
H274 C286 0.950 . S
H275 C287 0.950 . S
C276 H268 0.950 . S
C276 C277 1.386 . S
C276 C278 1.391 . S
C277 C276 1.386 . S
C277 C281 1.393 . S
C278 H270 0.950 1_565 S
C278 C276 1.391 . S
C278 C279 1.400 . S
C279 C278 1.400 . S
C279 C280 1.398 . S
C279 C285 1.491 . S
C280 H271 0.950 . S
C280 C279 1.398 . S
C280 C281 1.391 . S
C281 H269 0.950 . S
C281 C277 1.393 . S
C281 C280 1.391 . S
C282 H272 0.950 . S
C282 C283 1.386 . S
C282 C284 1.391 . S
C283 C282 1.386 . S
C283 C287 1.393 1_565 S
C284 H273 0.950 . S
C284 C282 1.391 . S
C284 C285 1.400 . S
C285 C279 1.491 . S
C285 C284 1.400 . S
C285 C286 1.398 1_565 S
C286 H274 0.950 . S
C286 C285 1.398 1_545 S
C286 C287 1.391 . S
C287 H275 0.950 . S
C287 C283 1.393 1_545 S
C287 C286 1.391 . S
H288 C296 0.950 . S
H289 C301 0.950 . S
H290 C298 0.950 . S
H291 C300 0.950 . S
H292 C302 0.950 . S
H293 C304 0.950 1_554 S
H294 C306 0.950 . S
H295 C307 0.950 . S
C296 H288 0.950 . S
C296 C297 1.386 . S
C296 C298 1.391 . S
C297 C296 1.386 . S
C297 C301 1.393 . S
C298 H290 0.950 . S
C298 C296 1.391 . S
C298 C299 1.400 . S
C299 C298 1.400 . S
C299 C300 1.398 . S
C299 C305 1.491 . S
C300 H291 0.950 . S
C300 C299 1.398 . S
C300 C301 1.391 . S
C301 H289 0.950 . S
C301 C297 1.393 . S
C301 C300 1.391 . S
C302 H292 0.950 . S
C302 C303 1.386 1_554 S
C302 C304 1.391 1_554 S
C303 C302 1.386 1_556 S
C303 C307 1.393 . S
C304 H293 0.950 1_556 S
C304 C302 1.391 1_556 S
C304 C305 1.400 . S
C305 C299 1.491 . S
C305 C304 1.400 . S
C305 C306 1.398 . S
C306 H294 0.950 . S
C306 C305 1.398 . S
C306 C307 1.391 . S
C307 H295 0.950 . S
C307 C303 1.393 . S
C307 C306 1.391 . S
H308 C316 0.950 . S
H309 C321 0.950 . S
H310 C318 0.950 . S
H311 C320 0.950 . S
H312 C322 0.950 . S
H313 C324 0.950 . S
H314 C326 0.950 . S
H315 C327 0.950 . S
C316 H308 0.950 . S
C316 C317 1.386 . S
C316 C318 1.391 . S
C317 C316 1.386 . S
C317 C321 1.393 . S
C318 H310 0.950 . S
C318 C316 1.391 . S
C318 C319 1.400 . S
C319 C318 1.400 . S
C319 C320 1.398 . S
C319 C325 1.491 . S
C320 H311 0.950 . S
C320 C319 1.398 . S
C320 C321 1.391 . S
C321 H309 0.950 . S
C321 C317 1.393 . S
C321 C320 1.391 . S
C322 H312 0.950 . S
C322 C323 1.386 . S
C322 C324 1.391 . S
C323 C322 1.386 . S
C323 C327 1.393 . S
C324 H313 0.950 . S
C324 C322 1.391 . S
C324 C325 1.400 . S
C325 C319 1.491 . S
C325 C324 1.400 . S
C325 C326 1.398 . S
C326 H314 0.950 . S
C326 C325 1.398 . S
C326 C327 1.391 . S
C327 H315 0.950 . S
C327 C323 1.393 . S
C327 C326 1.391 . S
H328 C336 0.950 . S
H329 C341 0.950 . S
H330 C338 0.950 . S
H331 C340 0.950 . S
H332 C342 0.950 . S
H333 C344 0.950 . S
H334 C346 0.950 . S
H335 C347 0.950 . S
C336 H328 0.950 . S
C336 C337 1.386 . S
C336 C338 1.391 . S
C337 C336 1.386 . S
C337 C341 1.393 . S
C338 H330 0.950 . S
C338 C336 1.391 . S
C338 C339 1.400 . S
C339 C338 1.400 . S
C339 C340 1.398 . S
C339 C345 1.491 . S
C340 H331 0.950 . S
C340 C339 1.398 . S
C340 C341 1.391 . S
C341 H329 0.950 . S
C341 C337 1.393 . S
C341 C340 1.391 . S
C342 H332 0.950 . S
C342 C343 1.386 . S
C342 C344 1.391 . S
C343 C342 1.386 . S
C343 C347 1.393 . S
C344 H333 0.950 . S
C344 C342 1.391 . S
C344 C345 1.400 . S
C345 C339 1.491 . S
C345 C344 1.400 . S
C345 C346 1.398 . S
C346 H334 0.950 . S
C346 C345 1.398 . S
C346 C347 1.391 . S
C347 H335 0.950 . S
C347 C343 1.393 . S
C347 C346 1.391 . S
H348 C356 0.950 . S
H349 C361 0.950 . S
H350 C358 0.950 1_554 S
H351 C360 0.950 . S
H352 C362 0.950 . S
H353 C364 0.950 . S
H354 C366 0.950 . S
H355 C367 0.950 . S
C356 H348 0.950 . S
C356 C357 1.386 . S
C356 C358 1.391 . S
C357 C356 1.386 . S
C357 C361 1.393 . S
C358 H350 0.950 1_556 S
C358 C356 1.391 . S
C358 C359 1.400 . S
C359 C358 1.400 . S
C359 C360 1.398 . S
C359 C365 1.491 . S
C360 H351 0.950 . S
C360 C359 1.398 . S
C360 C361 1.391 . S
C361 H349 0.950 . S
C361 C357 1.393 . S
C361 C360 1.391 . S
C362 H352 0.950 . S
C362 C363 1.386 1_556 S
C362 C364 1.391 . S
C363 C362 1.386 1_554 S
C363 C367 1.393 . S
C364 H353 0.950 . S
C364 C362 1.391 . S
C364 C365 1.400 . S
C365 C359 1.491 . S
C365 C364 1.400 . S
C365 C366 1.398 1_556 S
C366 H354 0.950 . S
C366 C365 1.398 1_554 S
C366 C367 1.391 . S
C367 H355 0.950 . S
C367 C363 1.393 . S
C367 C366 1.391 . S
H368 C376 0.950 . S
H369 C381 0.950 . S
H370 C378 0.950 . S
H371 C380 0.950 . S
H372 C382 0.950 . S
H373 C384 0.950 . S
H374 C386 0.950 . S
H375 C387 0.950 . S
C376 H368 0.950 . S
C376 C377 1.386 . S
C376 C378 1.391 . S
C377 C376 1.386 . S
C377 C381 1.393 . S
C378 H370 0.950 . S
C378 C376 1.391 . S
C378 C379 1.400 . S
C379 C378 1.400 . S
C379 C380 1.398 . S
C379 C385 1.491 . S
C380 H371 0.950 . S
C380 C379 1.398 . S
C380 C381 1.391 . S
C381 H369 0.950 . S
C381 C377 1.393 . S
C381 C380 1.391 . S
C382 H372 0.950 . S
C382 C383 1.386 . S
C382 C384 1.391 . S
C383 C382 1.386 . S
C383 C387 1.393 . S
C384 H373 0.950 . S
C384 C382 1.391 . S
C384 C385 1.400 . S
C385 C379 1.491 . S
C385 C384 1.400 . S
C385 C386 1.398 . S
C386 H374 0.950 . S
C386 C385 1.398 . S
C386 C387 1.391 . S
C387 H375 0.950 . S
C387 C383 1.393 . S
C387 C386 1.391 . S
H388 C396 0.950 . S
H389 C401 0.950 . S
H390 C398 0.950 . S
H391 C400 0.950 . S
H392 C402 0.950 . S
H393 C404 0.950 . S
H394 C406 0.950 . S
H395 C407 0.950 . S
C396 H388 0.950 . S
C396 C397 1.386 . S
C396 C398 1.391 . S
C397 C396 1.386 . S
C397 C401 1.393 . S
C398 H390 0.950 . S
C398 C396 1.391 . S
C398 C399 1.400 . S
C399 C398 1.400 . S
C399 C400 1.398 . S
C399 C405 1.491 . S
C400 H391 0.950 . S
C400 C399 1.398 . S
C400 C401 1.391 . S
C401 H389 0.950 . S
C401 C397 1.393 . S
C401 C400 1.391 . S
C402 H392 0.950 . S
C402 C403 1.386 . S
C402 C404 1.391 . S
C403 C402 1.386 . S
C403 C407 1.393 . S
C404 H393 0.950 . S
C404 C402 1.391 . S
C404 C405 1.400 . S
C405 C399 1.491 . S
C405 C404 1.400 . S
C405 C406 1.398 . S
C406 H394 0.950 . S
C406 C405 1.398 . S
C406 C407 1.391 . S
C407 H395 0.950 . S
C407 C403 1.393 . S
C407 C406 1.391 . S
H408 C416 0.950 . S
H409 C421 0.950 . S
H410 C418 0.950 . S
H411 C420 0.950 . S
H412 C422 0.950 . S
H413 C424 0.950 . S
H414 C426 0.950 . S
H415 C427 0.950 . S
C416 H408 0.950 . S
C416 C417 1.386 . S
C416 C418 1.391 . S
C417 C416 1.386 . S
C417 C421 1.393 . S
C418 H410 0.950 . S
C418 C416 1.391 . S
C418 C419 1.400 . S
C419 C418 1.400 . S
C419 C420 1.398 . S
C419 C425 1.491 . S
C420 H411 0.950 . S
C420 C419 1.398 . S
C420 C421 1.391 . S
C421 H409 0.950 . S
C421 C417 1.393 . S
C421 C420 1.391 . S
C422 H412 0.950 . S
C422 C423 1.386 . S
C422 C424 1.391 . S
C423 C422 1.386 . S
C423 C427 1.393 . S
C424 H413 0.950 . S
C424 C422 1.391 . S
C424 C425 1.400 . S
C425 C419 1.491 . S
C425 C424 1.400 . S
C425 C426 1.398 . S
C426 H414 0.950 . S
C426 C425 1.398 . S
C426 C427 1.391 . S
C427 H415 0.950 . S
C427 C423 1.393 . S
C427 C426 1.391 . S
H428 C436 0.950 . S
H429 C441 0.950 . S
H430 C438 0.950 . S
H431 C440 0.950 . S
H432 C442 0.950 . S
H433 C444 0.950 . S
H434 C446 0.950 . S
H435 C447 0.950 . S
C436 H428 0.950 . S
C436 C437 1.386 . S
C436 C438 1.391 . S
C437 C436 1.386 . S
C437 C441 1.393 . S
C438 H430 0.950 . S
C438 C436 1.391 . S
C438 C439 1.400 . S
C439 C438 1.400 . S
C439 C440 1.398 . S
C439 C445 1.491 . S
C440 H431 0.950 . S
C440 C439 1.398 . S
C440 C441 1.391 . S
C441 H429 0.950 . S
C441 C437 1.393 . S
C441 C440 1.391 . S
C442 H432 0.950 . S
C442 C443 1.386 . S
C442 C444 1.391 . S
C443 C442 1.386 . S
C443 C447 1.393 . S
C444 H433 0.950 . S
C444 C442 1.391 . S
C444 C445 1.400 . S
C445 C439 1.491 . S
C445 C444 1.400 . S
C445 C446 1.398 . S
C446 H434 0.950 . S
C446 C445 1.398 . S
C446 C447 1.391 . S
C447 H435 0.950 . S
C447 C443 1.393 . S
C447 C446 1.391 . S
H448 C456 0.950 . S
H449 C461 0.950 . S
H450 C458 0.950 . S
H451 C460 0.950 . S
H452 C462 0.950 . S
H453 C464 0.950 . S
H454 C466 0.950 . S
H455 C467 0.950 . S
C456 H448 0.950 . S
C456 C457 1.386 . S
C456 C458 1.391 . S
C457 C456 1.386 . S
C457 C461 1.393 . S
C458 H450 0.950 . S
C458 C456 1.391 . S
C458 C459 1.400 . S
C459 C458 1.400 . S
C459 C460 1.398 . S
C459 C465 1.491 . S
C460 H451 0.950 . S
C460 C459 1.398 . S
C460 C461 1.391 . S
C461 H449 0.950 . S
C461 C457 1.393 . S
C461 C460 1.391 . S
C462 H452 0.950 . S
C462 C463 1.386 . S
C462 C464 1.391 . S
C463 C462 1.386 . S
C463 C467 1.393 . S
C464 H453 0.950 . S
C464 C462 1.391 . S
C464 C465 1.400 . S
C465 C459 1.491 . S
C465 C464 1.400 . S
C465 C466 1.398 . S
C466 H454 0.950 . S
C466 C465 1.398 . S
C466 C467 1.391 . S
C467 H455 0.950 . S
C467 C463 1.393 . S
C467 C466 1.391 . S
H468 C476 0.950 . S
H469 C481 0.950 . S
H470 C478 0.950 . S
H471 C480 0.950 . S
H472 C482 0.950 . S
H473 C484 0.950 . S
H474 C486 0.950 . S
H475 C487 0.950 . S
C476 H468 0.950 . S
C476 C477 1.386 . S
C476 C478 1.391 . S
C477 C476 1.386 . S
C477 C481 1.393 . S
C478 H470 0.950 . S
C478 C476 1.391 . S
C478 C479 1.400 . S
C479 C478 1.400 . S
C479 C480 1.398 . S
C479 C485 1.491 . S
C480 H471 0.950 . S
C480 C479 1.398 . S
C480 C481 1.391 . S
C481 H469 0.950 . S
C481 C477 1.393 . S
C481 C480 1.391 . S
C482 H472 0.950 . S
C482 C483 1.386 . S
C482 C484 1.391 . S
C483 C482 1.386 . S
C483 C487 1.393 . S
C484 H473 0.950 . S
C484 C482 1.391 . S
C484 C485 1.400 . S
C485 C479 1.491 . S
C485 C484 1.400 . S
C485 C486 1.398 . S
C486 H474 0.950 . S
C486 C485 1.398 . S
C486 C487 1.391 . S
C487 H475 0.950 . S
C487 C483 1.393 . S
C487 C486 1.391 . S
H488 C496 0.950 . S
H489 C501 0.950 . S
H490 C498 0.950 . S
H491 C500 0.950 . S
H492 C502 0.950 . S
H493 C504 0.950 . S
H494 C506 0.950 . S
H495 C507 0.950 1_545 S
C496 H488 0.950 . S
C496 C497 1.386 . S
C496 C498 1.391 . S
C497 C496 1.386 . S
C497 C501 1.393 . S
C498 H490 0.950 . S
C498 C496 1.391 . S
C498 C499 1.400 . S
C499 C498 1.400 . S
C499 C500 1.398 . S
C499 C505 1.491 . S
C500 H491 0.950 . S
C500 C499 1.398 . S
C500 C501 1.391 . S
C501 H489 0.950 . S
C501 C497 1.393 . S
C501 C500 1.391 . S
C502 H492 0.950 . S
C502 C503 1.386 1_554 S
C502 C504 1.391 1_554 S
C503 C502 1.386 1_556 S
C503 C507 1.393 . S
C504 H493 0.950 . S
C504 C502 1.391 1_556 S
C504 C505 1.400 . S
C505 C499 1.491 . S
C505 C504 1.400 . S
C505 C506 1.398 . S
C506 H494 0.950 . S
C506 C505 1.398 . S
C506 C507 1.391 . S
C507 H495 0.950 1_565 S
C507 C503 1.393 . S
C507 C506 1.391 . S
H508 C516 0.950 . S
H509 C521 0.950 . S
H510 C518 0.950 . S
H511 C520 0.950 . S
H512 C522 0.950 . S
H513 C524 0.950 . S
H514 C526 0.950 . S
H515 C527 0.950 . S
C516 H508 0.950 . S
C516 C517 1.386 . S
C516 C518 1.391 . S
C517 C516 1.386 . S
C517 C521 1.393 . S
C518 H510 0.950 . S
C518 C516 1.391 . S
C518 C519 1.400 . S
C519 C518 1.400 . S
C519 C520 1.398 . S
C519 C525 1.491 . S
C520 H511 0.950 . S
C520 C519 1.398 . S
C520 C521 1.391 . S
C521 H509 0.950 . S
C521 C517 1.393 . S
C521 C520 1.391 . S
C522 H512 0.950 . S
C522 C523 1.386 . S
C522 C524 1.391 . S
C523 C522 1.386 . S
C523 C527 1.393 . S
C524 H513 0.950 . S
C524 C522 1.391 . S
C524 C525 1.400 . S
C525 C519 1.491 . S
C525 C524 1.400 . S
C525 C526 1.398 . S
C526 H514 0.950 . S
C526 C525 1.398 . S
C526 C527 1.391 . S
C527 H515 0.950 . S
C527 C523 1.393 . S
C527 C526 1.391 . S
H528 C536 0.950 . S
H529 C541 0.950 . S
H530 C538 0.950 . S
H531 C540 0.950 . S
H532 C542 0.950 . S
H533 C544 0.950 . S
H534 C546 0.950 . S
H535 C547 0.950 . S
C536 H528 0.950 . S
C536 C537 1.386 . S
C536 C538 1.391 . S
C537 C536 1.386 . S
C537 C541 1.393 . S
C538 H530 0.950 . S
C538 C536 1.391 . S
C538 C539 1.400 . S
C539 C538 1.400 . S
C539 C540 1.398 . S
C539 C545 1.491 . S
C540 H531 0.950 . S
C540 C539 1.398 . S
C540 C541 1.391 . S
C541 H529 0.950 . S
C541 C537 1.393 . S
C541 C540 1.391 . S
C542 H532 0.950 . S
C542 C543 1.386 . S
C542 C544 1.391 . S
C543 C542 1.386 . S
C543 C547 1.393 . S
C544 H533 0.950 . S
C544 C542 1.391 . S
C544 C545 1.400 . S
C545 C539 1.491 . S
C545 C544 1.400 . S
C545 C546 1.398 . S
C546 H534 0.950 . S
C546 C545 1.398 . S
C546 C547 1.391 . S
C547 H535 0.950 . S
C547 C543 1.393 . S
C547 C546 1.391 . S
H548 C556 0.950 . S
H549 C561 0.950 . S
H550 C558 0.950 . S
H551 C560 0.950 . S
H552 C562 0.950 . S
H553 C564 0.950 . S
H554 C566 0.950 . S
H555 C567 0.950 . S
C556 H548 0.950 . S
C556 C557 1.386 . S
C556 C558 1.391 . S
C557 C556 1.386 . S
C557 C561 1.393 . S
C558 H550 0.950 . S
C558 C556 1.391 . S
C558 C559 1.400 . S
C559 C558 1.400 . S
C559 C560 1.398 . S
C559 C565 1.491 . S
C560 H551 0.950 . S
C560 C559 1.398 . S
C560 C561 1.391 . S
C561 H549 0.950 . S
C561 C557 1.393 . S
C561 C560 1.391 . S
C562 H552 0.950 . S
C562 C563 1.386 . S
C562 C564 1.391 . S
C563 C562 1.386 . S
C563 C567 1.393 . S
C564 H553 0.950 . S
C564 C562 1.391 . S
C564 C565 1.400 . S
C565 C559 1.491 . S
C565 C564 1.400 . S
C565 C566 1.398 . S
C566 H554 0.950 . S
C566 C565 1.398 . S
C566 C567 1.391 . S
C567 H555 0.950 . S
C567 C563 1.393 . S
C567 C566 1.391 . S
H568 C576 0.950 . S
H569 C581 0.950 . S
H570 C578 0.950 . S
H571 C580 0.950 . S
H572 C582 0.950 . S
H573 C584 0.950 . S
H574 C586 0.950 . S
H575 C587 0.950 . S
C576 H568 0.950 . S
C576 C577 1.386 . S
C576 C578 1.391 . S
C577 C576 1.386 . S
C577 C581 1.393 . S
C578 H570 0.950 . S
C578 C576 1.391 . S
C578 C579 1.400 . S
C579 C578 1.400 . S
C579 C580 1.398 . S
C579 C585 1.491 . S
C580 H571 0.950 . S
C580 C579 1.398 . S
C580 C581 1.391 . S
C581 H569 0.950 . S
C581 C577 1.393 . S
C581 C580 1.391 . S
C582 H572 0.950 . S
C582 C583 1.386 . S
C582 C584 1.391 . S
C583 C582 1.386 . S
C583 C587 1.393 . S
C584 H573 0.950 . S
C584 C582 1.391 . S
C584 C585 1.400 . S
C585 C579 1.491 . S
C585 C584 1.400 . S
C585 C586 1.398 . S
C586 H574 0.950 . S
C586 C585 1.398 . S
C586 C587 1.391 . S
C587 H575 0.950 . S
C587 C583 1.393 . S
C587 C586 1.391 . S
H588 C596 0.950 . S
H589 C601 0.950 . S
H590 C598 0.950 . S
H591 C600 0.950 . S
H592 C602 0.950 . S
H593 C604 0.950 . S
H594 C606 0.950 . S
H595 C607 0.950 . S
C596 H588 0.950 . S
C596 C597 1.386 . S
C596 C598 1.391 . S
C597 C596 1.386 . S
C597 C601 1.393 . S
C598 H590 0.950 . S
C598 C596 1.391 . S
C598 C599 1.400 . S
C599 C598 1.400 . S
C599 C600 1.398 . S
C599 C605 1.491 . S
C600 H591 0.950 . S
C600 C599 1.398 . S
C600 C601 1.391 . S
C601 H589 0.950 . S
C601 C597 1.393 . S
C601 C600 1.391 . S
C602 H592 0.950 . S
C602 C603 1.386 . S
C602 C604 1.391 . S
C603 C602 1.386 . S
C603 C607 1.393 . S
C604 H593 0.950 . S
C604 C602 1.391 . S
C604 C605 1.400 . S
C605 C599 1.491 . S
C605 C604 1.400 . S
C605 C606 1.398 . S
C606 H594 0.950 . S
C606 C605 1.398 . S
C606 C607 1.391 . S
C607 H595 0.950 . S
C607 C603 1.393 . S
C607 C606 1.391 . S
H608 C616 0.950 . S
H609 C621 0.950 . S
H610 C618 0.950 . S
H611 C620 0.950 . S
H612 C622 0.950 . S
H613 C624 0.950 . S
H614 C626 0.950 . S
H615 C627 0.950 . S
C616 H608 0.950 . S
C616 C617 1.386 . S
C616 C618 1.391 . S
C617 C616 1.386 . S
C617 C621 1.393 . S
C618 H610 0.950 . S
C618 C616 1.391 . S
C618 C619 1.400 . S
C619 C618 1.400 . S
C619 C620 1.398 . S
C619 C625 1.491 . S
C620 H611 0.950 . S
C620 C619 1.398 . S
C620 C621 1.391 . S
C621 H609 0.950 . S
C621 C617 1.393 . S
C621 C620 1.391 . S
C622 H612 0.950 . S
C622 C623 1.386 . S
C622 C624 1.391 . S
C623 C622 1.386 . S
C623 C627 1.393 . S
C624 H613 0.950 . S
C624 C622 1.391 . S
C624 C625 1.400 . S
C625 C619 1.491 . S
C625 C624 1.400 . S
C625 C626 1.398 . S
C626 H614 0.950 . S
C626 C625 1.398 . S
C626 C627 1.391 . S
C627 H615 0.950 . S
C627 C623 1.393 . S
C627 C626 1.391 . S
H628 C636 0.950 . S
H629 C641 0.950 . S
H630 C638 0.950 . S
H631 C640 0.950 . S
H632 C642 0.950 . S
H633 C644 0.950 . S
H634 C646 0.950 . S
H635 C647 0.950 . S
C636 H628 0.950 . S
C636 C637 1.386 . S
C636 C638 1.391 . S
C637 C636 1.386 . S
C637 C641 1.393 . S
C638 H630 0.950 . S
C638 C636 1.391 . S
C638 C639 1.400 . S
C639 C638 1.400 . S
C639 C640 1.398 . S
C639 C645 1.491 . S
C640 H631 0.950 . S
C640 C639 1.398 . S
C640 C641 1.391 . S
C641 H629 0.950 . S
C641 C637 1.393 . S
C641 C640 1.391 . S
C642 H632 0.950 . S
C642 C643 1.386 . S
C642 C644 1.391 . S
C643 C642 1.386 . S
C643 C647 1.393 . S
C644 H633 0.950 . S
C644 C642 1.391 . S
C644 C645 1.400 . S
C645 C639 1.491 . S
C645 C644 1.400 . S
C645 C646 1.398 . S
C646 H634 0.950 . S
C646 C645 1.398 . S
C646 C647 1.391 . S
C647 H635 0.950 . S
C647 C643 1.393 . S
C647 C646 1.391 . S
C177 C4 1.511 . S
C183 C90 1.497 . S
C197 C16 1.592 . S
C203 C109 1.560 . S
C223 C146 1.381 . S
C217 C32 1.390 . S
C237 C43 1.566 . S
C243 C156 1.520 . S
C263 C126 2.278 . S
C257 C5 2.227 . S
C283 C96 1.214 1_565 S
C277 C21 1.232 . S
C303 C167 1.440 . S
C297 C27 1.471 . S
C323 C137 1.329 . S
C317 C37 1.337 . S
C337 C10 1.616 . S
C343 C150 1.625 . S
C363 C117 1.834 . S
C357 C26 1.886 . S
C377 C38 1.553 . S
C383 C107 1.557 . S
C397 C15 1.348 . S
C403 C129 1.342 . S
C423 C89 1.625 . S
C417 C48 1.637 . S
C437 C59 1.437 . S
C443 C110 1.417 . S
C457 C76 1.684 . S
C463 C147 1.653 . S
C477 C87 1.435 . S
C483 C157 1.406 . S
C497 C54 1.680 . S
C503 C127 1.675 1_566 S
C523 C97 1.835 . S
C517 C60 1.901 . S
C543 C166 1.371 . S
C537 C71 1.392 . S
C563 C136 1.257 . S
C557 C82 1.304 . S
C577 C49 1.833 . S
C583 C149 1.866 . S
C603 C116 1.410 . S
C597 C70 1.472 . S
C623 C106 1.876 . S
C617 C81 1.884 . S
C637 C65 1.285 . S
C643 C130 1.277 . S
