# Generated by pormake.
# Topology eea, (3,6)-cn, num edge types: 1
# Building blocks:
#     Node 0, Type 0, BuildingBlock: KAKCAD_clean_linker_0, # of connection points: 3
#     Node 1, Type 0, BuildingBlock: KAKCAD_clean_linker_0, # of connection points: 3
#     Node 2, Type 0, BuildingBlock: KAKCAD_clean_linker_0, # of connection points: 3
#     Node 3, Type 0, BuildingBlock: KAKCAD_clean_linker_0, # of connection points: 3
#     Node 4, Type 0, BuildingBlock: KAKCAD_clean_linker_0, # of connection points: 3
#     Node 5, Type 0, BuildingBlock: KAKCAD_clean_linker_0, # of connection points: 3
#     Node 6, Type 0, BuildingBlock: KAKCAD_clean_linker_0, # of connection points: 3
#     Node 7, Type 0, BuildingBlock: KAKCAD_clean_linker_0, # of connection points: 3
#     Node 8, Type 0, BuildingBlock: KAKCAD_clean_linker_0, # of connection points: 3
#     Node 9, Type 0, BuildingBlock: KAKCAD_clean_linker_0, # of connection points: 3
#     Node 10, Type 0, BuildingBlock: KAKCAD_clean_linker_0, # of connection points: 3
#     Node 11, Type 0, BuildingBlock: KAKCAD_clean_linker_0, # of connection points: 3
#     Node 12, Type 0, BuildingBlock: KAKCAD_clean_linker_0, # of connection points: 3
#     Node 13, Type 0, BuildingBlock: KAKCAD_clean_linker_0, # of connection points: 3
#     Node 14, Type 0, BuildingBlock: KAKCAD_clean_linker_0, # of connection points: 3
#     Node 15, Type 0, BuildingBlock: KAKCAD_clean_linker_0, # of connection points: 3
#     Node 16, Type 0, BuildingBlock: KAKCAD_clean_linker_0, # of connection points: 3
#     Node 17, Type 0, BuildingBlock: KAKCAD_clean_linker_0, # of connection points: 3
#     Node 18, Type 1, BuildingBlock: CUWYAW_clean_sbu_0, # of connection points: 6
#     Node 19, Type 1, BuildingBlock: CUWYAW_clean_sbu_0, # of connection points: 6
#     Node 20, Type 1, BuildingBlock: CUWYAW_clean_sbu_0, # of connection points: 6
#     Node 21, Type 1, BuildingBlock: CUWYAW_clean_sbu_0, # of connection points: 6
#     Node 22, Type 1, BuildingBlock: CUWYAW_clean_sbu_0, # of connection points: 6
#     Node 23, Type 1, BuildingBlock: CUWYAW_clean_sbu_0, # of connection points: 6
#     Node 24, Type 1, BuildingBlock: CUWYAW_clean_sbu_0, # of connection points: 6
#     Node 25, Type 1, BuildingBlock: CUWYAW_clean_sbu_0, # of connection points: 6
#     Node 26, Type 1, BuildingBlock: CUWYAW_clean_sbu_0, # of connection points: 6
#     Edge 27, Type (0, 1), BuildingBlock: XUDNAN_clean_linker_2, # of connection points: 2
#     Edge 28, Type (0, 1), BuildingBlock: XUDNAN_clean_linker_2, # of connection points: 2
#     Edge 29, Type (0, 1), BuildingBlock: XUDNAN_clean_linker_2, # of connection points: 2
#     Edge 30, Type (0, 1), BuildingBlock: XUDNAN_clean_linker_2, # of connection points: 2
#     Edge 31, Type (0, 1), BuildingBlock: XUDNAN_clean_linker_2, # of connection points: 2
#     Edge 32, Type (0, 1), BuildingBlock: XUDNAN_clean_linker_2, # of connection points: 2
#     Edge 33, Type (0, 1), BuildingBlock: XUDNAN_clean_linker_2, # of connection points: 2
#     Edge 34, Type (0, 1), BuildingBlock: XUDNAN_clean_linker_2, # of connection points: 2
#     Edge 35, Type (0, 1), BuildingBlock: XUDNAN_clean_linker_2, # of connection points: 2
#     Edge 36, Type (0, 1), BuildingBlock: XUDNAN_clean_linker_2, # of connection points: 2
#     Edge 37, Type (0, 1), BuildingBlock: XUDNAN_clean_linker_2, # of connection points: 2
#     Edge 38, Type (0, 1), BuildingBlock: XUDNAN_clean_linker_2, # of connection points: 2
#     Edge 39, Type (0, 1), BuildingBlock: XUDNAN_clean_linker_2, # of connection points: 2
#     Edge 40, Type (0, 1), BuildingBlock: XUDNAN_clean_linker_2, # of connection points: 2
#     Edge 41, Type (0, 1), BuildingBlock: XUDNAN_clean_linker_2, # of connection points: 2
#     Edge 42, Type (0, 1), BuildingBlock: XUDNAN_clean_linker_2, # of connection points: 2
#     Edge 43, Type (0, 1), BuildingBlock: XUDNAN_clean_linker_2, # of connection points: 2
#     Edge 44, Type (0, 1), BuildingBlock: XUDNAN_clean_linker_2, # of connection points: 2
#     Edge 45, Type (0, 1), BuildingBlock: XUDNAN_clean_linker_2, # of connection points: 2
#     Edge 46, Type (0, 1), BuildingBlock: XUDNAN_clean_linker_2, # of connection points: 2
#     Edge 47, Type (0, 1), BuildingBlock: XUDNAN_clean_linker_2, # of connection points: 2
#     Edge 48, Type (0, 1), BuildingBlock: XUDNAN_clean_linker_2, # of connection points: 2
#     Edge 49, Type (0, 1), BuildingBlock: XUDNAN_clean_linker_2, # of connection points: 2
#     Edge 50, Type (0, 1), BuildingBlock: XUDNAN_clean_linker_2, # of connection points: 2
#     Edge 51, Type (0, 1), BuildingBlock: XUDNAN_clean_linker_2, # of connection points: 2
#     Edge 52, Type (0, 1), BuildingBlock: XUDNAN_clean_linker_2, # of connection points: 2
#     Edge 53, Type (0, 1), BuildingBlock: XUDNAN_clean_linker_2, # of connection points: 2
#     Edge 54, Type (0, 1), BuildingBlock: XUDNAN_clean_linker_2, # of connection points: 2
#     Edge 55, Type (0, 1), BuildingBlock: XUDNAN_clean_linker_2, # of connection points: 2
#     Edge 56, Type (0, 1), BuildingBlock: XUDNAN_clean_linker_2, # of connection points: 2
#     Edge 57, Type (0, 1), BuildingBlock: XUDNAN_clean_linker_2, # of connection points: 2
#     Edge 58, Type (0, 1), BuildingBlock: XUDNAN_clean_linker_2, # of connection points: 2
#     Edge 59, Type (0, 1), BuildingBlock: XUDNAN_clean_linker_2, # of connection points: 2
#     Edge 60, Type (0, 1), BuildingBlock: XUDNAN_clean_linker_2, # of connection points: 2
#     Edge 61, Type (0, 1), BuildingBlock: XUDNAN_clean_linker_2, # of connection points: 2
#     Edge 62, Type (0, 1), BuildingBlock: XUDNAN_clean_linker_2, # of connection points: 2
#     Edge 63, Type (0, 1), BuildingBlock: XUDNAN_clean_linker_2, # of connection points: 2
#     Edge 64, Type (0, 1), BuildingBlock: XUDNAN_clean_linker_2, # of connection points: 2
#     Edge 65, Type (0, 1), BuildingBlock: XUDNAN_clean_linker_2, # of connection points: 2
#     Edge 66, Type (0, 1), BuildingBlock: XUDNAN_clean_linker_2, # of connection points: 2
#     Edge 67, Type (0, 1), BuildingBlock: XUDNAN_clean_linker_2, # of connection points: 2
#     Edge 68, Type (0, 1), BuildingBlock: XUDNAN_clean_linker_2, # of connection points: 2
#     Edge 69, Type (0, 1), BuildingBlock: XUDNAN_clean_linker_2, # of connection points: 2
#     Edge 70, Type (0, 1), BuildingBlock: XUDNAN_clean_linker_2, # of connection points: 2
#     Edge 71, Type (0, 1), BuildingBlock: XUDNAN_clean_linker_2, # of connection points: 2
#     Edge 72, Type (0, 1), BuildingBlock: XUDNAN_clean_linker_2, # of connection points: 2
#     Edge 73, Type (0, 1), BuildingBlock: XUDNAN_clean_linker_2, # of connection points: 2
#     Edge 74, Type (0, 1), BuildingBlock: XUDNAN_clean_linker_2, # of connection points: 2
#     Edge 75, Type (0, 1), BuildingBlock: XUDNAN_clean_linker_2, # of connection points: 2
#     Edge 76, Type (0, 1), BuildingBlock: XUDNAN_clean_linker_2, # of connection points: 2
#     Edge 77, Type (0, 1), BuildingBlock: XUDNAN_clean_linker_2, # of connection points: 2
#     Edge 78, Type (0, 1), BuildingBlock: XUDNAN_clean_linker_2, # of connection points: 2
#     Edge 79, Type (0, 1), BuildingBlock: XUDNAN_clean_linker_2, # of connection points: 2
#     Edge 80, Type (0, 1), BuildingBlock: XUDNAN_clean_linker_2, # of connection points: 2
# Relax obj value: 0.034
# Max RMSD: 0.134
# Mean RMSD: 0.074
data_MOF--net-eea--node1-CUWYAW_clean_sbu_0--node2-KAKCAD_clean_linker_0--edge1-XUDNAN_clean_linker_2
_symmetry_space_group_name_H-M    P1
_symmetry_Int_Tables_number       1
_symmetry_cell_setting            triclinic
loop_
_symmetry_equiv_pos_as_xyz
'x, y, z'
_cell_length_a     62.723596
_cell_length_b     62.406934
_cell_length_c     90.527502
_cell_angle_alpha  93.62257
_cell_angle_beta   93.269621
_cell_angle_gamma 119.94776
loop_
_atom_site_label
_atom_site_type_symbol
_atom_site_fract_x
_atom_site_fract_y
_atom_site_fract_z
_atom_type_partial_charge
C0 C 0.25499 0.163 0.47221 0.0
C1 C 0.27632 0.16324 0.47814 0.0
C2 C 0.24777 0.15769 0.45694 0.0
C3 C 0.26167 0.15246 0.44723 0.0
C4 C 0.28315 0.15293 0.45311 0.0
C5 C 0.29042 0.15831 0.46841 0.0
C6 C 0.25322 0.14579 0.4311 0.0
C7 C 0.24363 0.15868 0.42362 0.0
C8 C 0.23381 0.15134 0.40866 0.0
C9 C 0.23357 0.13086 0.40113 0.0
C10 C 0.24313 0.11785 0.40844 0.0
C11 C 0.25324 0.12558 0.42334 0.0
C12 C 0.24079 0.095 0.4009 0.0
C13 C 0.21737 0.07507 0.39541 0.0
C14 C 0.26168 0.0926 0.39963 0.0
C15 C 0.25919 0.07053 0.39297 0.0
C16 C 0.23565 0.05017 0.38777 0.0
C17 C 0.22276 0.16437 0.40113 0.0
C18 C 0.20535 0.16848 0.40792 0.0
C19 C 0.22926 0.17247 0.38709 0.0
C20 C 0.21854 0.18456 0.37998 0.0
C21 C 0.20086 0.18832 0.38668 0.0
C22 C 0.19437 0.1802 0.40072 0.0
C23 C 0.21478 0.05282 0.38905 0.0
H24 H 0.24344 0.16622 0.47941 0.0
H25 H 0.23088 0.15701 0.45279 0.0
H26 H 0.29436 0.14923 0.44588 0.0
H27 H 0.30711 0.15865 0.47262 0.0
H28 H 0.24381 0.17451 0.42943 0.0
H29 H 0.2599 0.11499 0.42909 0.0
H30 H 0.22542 0.12468 0.38968 0.0
H31 H 0.20097 0.07647 0.39645 0.0
H32 H 0.27994 0.10786 0.40374 0.0
H33 H 0.27576 0.0695 0.39191 0.0
H34 H 0.19993 0.16224 0.41871 0.0
H35 H 0.24272 0.16959 0.38168 0.0
H36 H 0.19631 0.03752 0.38552 0.0
H37 H 0.18088 0.18303 0.40614 0.0
H38 H 0.22372 0.19054 0.36911 0.0
C39 C 0.88663 0.14754 0.47924 0.0
C40 C 0.88274 0.12793 0.48765 0.0
C41 C 0.89046 0.14639 0.46419 0.0
C42 C 0.89007 0.12543 0.45716 0.0
C43 C 0.88606 0.10578 0.46556 0.0
C44 C 0.88261 0.1071 0.48065 0.0
C45 C 0.8933 0.12379 0.44104 0.0
C46 C 0.91258 0.14383 0.435 0.0
C47 C 0.91554 0.14251 0.4197 0.0
C48 C 0.89849 0.12085 0.41044 0.0
C49 C 0.87917 0.1006 0.41632 0.0
C50 C 0.87688 0.10216 0.43164 0.0
C51 C 0.86072 0.07816 0.4064 0.0
C52 C 0.84929 0.08061 0.39333 0.0
C53 C 0.85363 0.05416 0.41024 0.0
C54 C 0.83514 0.03307 0.40133 0.0
C55 C 0.82311 0.03559 0.38855 0.0
C56 C 0.93656 0.16356 0.41346 0.0
C57 C 0.94441 0.18839 0.41858 0.0
C58 C 0.94929 0.159 0.4025 0.0
C59 C 0.96952 0.1787 0.397 0.0
C60 C 0.97766 0.20348 0.40238 0.0
C61 C 0.96472 0.20807 0.41314 0.0
C62 C 0.83057 0.05957 0.38456 0.0
H63 H 0.88698 0.16389 0.48436 0.0
H64 H 0.89331 0.16172 0.45796 0.0
H65 H 0.88578 0.08945 0.46046 0.0
H66 H 0.87949 0.09162 0.48681 0.0
H67 H 0.92568 0.16021 0.44233 0.0
H68 H 0.8617 0.08682 0.43617 0.0
H69 H 0.90017 0.1197 0.39861 0.0
H70 H 0.85425 0.09885 0.39014 0.0
H71 H 0.86225 0.05173 0.4202 0.0
H72 H 0.82965 0.01483 0.40471 0.0
H73 H 0.93481 0.19267 0.42679 0.0
H74 H 0.94406 0.14016 0.39842 0.0
H75 H 0.8217 0.06204 0.37472 0.0
H76 H 0.97027 0.22694 0.41736 0.0
H77 H 0.97927 0.17449 0.38886 0.0
C78 C 0.90221 0.76649 0.4895 0.0
C79 C 0.88002 0.74418 0.49042 0.0
C80 C 0.90711 0.77736 0.47608 0.0
C81 C 0.8896 0.76641 0.46352 0.0
C82 C 0.86725 0.74437 0.46458 0.0
C83 C 0.86261 0.73325 0.47784 0.0
C84 C 0.8945 0.77742 0.44917 0.0
C85 C 0.91574 0.78187 0.44236 0.0
C86 C 0.91876 0.78929 0.42793 0.0
C87 C 0.90071 0.79305 0.42057 0.0
C88 C 0.87978 0.78967 0.42741 0.0
C89 C 0.87687 0.78171 0.44174 0.0
C90 C 0.86071 0.79368 0.41935 0.0
C91 C 0.86766 0.81204 0.40942 0.0
C92 C 0.83535 0.77873 0.42109 0.0
C93 C 0.81751 0.78168 0.41287 0.0
C94 C 0.82459 0.79929 0.40256 0.0
C95 C 0.9399 0.79181 0.42003 0.0
C96 C 0.96451 0.80742 0.42623 0.0
C97 C 0.93541 0.7792 0.4058 0.0
C98 C 0.95499 0.78277 0.39769 0.0
C99 C 0.97969 0.79944 0.40345 0.0
C100 C 0.98424 0.81131 0.41799 0.0
C101 C 0.8498 0.81459 0.40101 0.0
H102 H 0.91594 0.77519 0.49905 0.0
H103 H 0.92446 0.79438 0.47554 0.0
H104 H 0.85352 0.73546 0.45503 0.0
H105 H 0.84534 0.7161 0.47829 0.0
H106 H 0.92919 0.77822 0.44793 0.0
H107 H 0.86091 0.77887 0.44726 0.0
H108 H 0.90292 0.79825 0.40932 0.0
H109 H 0.88693 0.8244 0.40801 0.0
H110 H 0.82908 0.76413 0.4284 0.0
H111 H 0.79812 0.76949 0.41412 0.0
H112 H 0.96845 0.81733 0.43721 0.0
H113 H 0.91663 0.76667 0.40087 0.0
H114 H 0.85568 0.8284 0.39316 0.0
H115 H 0.00296 0.8243 0.4228 0.0
H116 H 0.95068 0.77264 0.38675 0.0
C117 C 0.14558 0.26181 0.52487 0.0
C118 C 0.13737 0.27791 0.52043 0.0
C119 C 0.14029 0.25188 0.53853 0.0
C120 C 0.12683 0.25795 0.5482 0.0
C121 C 0.11828 0.27372 0.54363 0.0
C122 C 0.12332 0.2834 0.52992 0.0
C123 C 0.12237 0.24858 0.56316 0.0
C124 C 0.14066 0.24646 0.57157 0.0
C125 C 0.13705 0.23839 0.58585 0.0
C126 C 0.11492 0.23301 0.59191 0.0
C127 C 0.09641 0.23523 0.5838 0.0
C128 C 0.10018 0.24253 0.56932 0.0
C129 C 0.07331 0.23041 0.59048 0.0
C130 C 0.06209 0.21165 0.60003 0.0
C131 C 0.06221 0.24464 0.58728 0.0
C132 C 0.04019 0.23973 0.59302 0.0
C133 C 0.02888 0.22079 0.60234 0.0
C134 C 0.15668 0.23611 0.5945 0.0
C135 C 0.17044 0.2271 0.58734 0.0
C136 C 0.16207 0.24318 0.60992 0.0
C137 C 0.18078 0.24144 0.61794 0.0
C138 C 0.19479 0.2328 0.61075 0.0
C139 C 0.18929 0.22556 0.59534 0.0
C140 C 0.04022 0.20704 0.60599 0.0
H141 H 0.15662 0.25728 0.51797 0.0
H142 H 0.14686 0.2395 0.54152 0.0
H143 H 0.10811 0.2791 0.55078 0.0
H144 H 0.11623 0.29531 0.5268 0.0
H145 H 0.15816 0.25191 0.56718 0.0
H146 H 0.08565 0.24326 0.56272 0.0
H147 H 0.11221 0.22725 0.603 0.0
H148 H 0.06983 0.20007 0.60264 0.0
H149 H 0.07054 0.25969 0.58034 0.0
H150 H 0.03196 0.2508 0.59017 0.0
H151 H 0.16661 0.22115 0.57552 0.0
H152 H 0.15211 0.25047 0.61581 0.0
H153 H 0.03173 0.19217 0.61305 0.0
H154 H 0.19979 0.21904 0.58937 0.0
H155 H 0.18416 0.24681 0.62983 0.0
C156 C 0.76755 0.85125 0.53286 0.0
C157 C 0.77675 0.87121 0.52413 0.0
C158 C 0.77281 0.85556 0.54833 0.0
C159 C 0.78777 0.87992 0.55539 0.0
C160 C 0.79761 0.89979 0.54651 0.0
C161 C 0.79196 0.89549 0.53107 0.0
C162 C 0.79217 0.88461 0.57195 0.0
C163 C 0.79429 0.86756 0.58047 0.0
C164 C 0.79657 0.87087 0.59611 0.0
C165 C 0.79753 0.89205 0.60326 0.0
C166 C 0.7961 0.90962 0.59495 0.0
C167 C 0.79325 0.90568 0.57935 0.0
C168 C 0.797 0.93189 0.60251 0.0
C169 C 0.78237 0.92964 0.61415 0.0
C170 C 0.8123 0.95553 0.59796 0.0
C171 C 0.81303 0.97652 0.60496 0.0
C172 C 0.79823 0.97426 0.61651 0.0
C173 C 0.79694 0.8517 0.60493 0.0
C174 C 0.78127 0.8263 0.60014 0.0
C175 C 0.81246 0.8585 0.61829 0.0
C176 C 0.81206 0.8403 0.62675 0.0
C177 C 0.79613 0.81491 0.62201 0.0
C178 C 0.78094 0.80816 0.60853 0.0
C179 C 0.78288 0.95061 0.62103 0.0
H180 H 0.75554 0.83237 0.52776 0.0
H181 H 0.76448 0.83979 0.55475 0.0
H182 H 0.80961 0.91873 0.55147 0.0
H183 H 0.79944 0.91116 0.52453 0.0
H184 H 0.79429 0.85167 0.57492 0.0
H185 H 0.79097 0.91869 0.57302 0.0
H186 H 0.79914 0.89478 0.6153 0.0
H187 H 0.77026 0.91162 0.6178 0.0
H188 H 0.82387 0.95779 0.58907 0.0
H189 H 0.82492 0.99451 0.60119 0.0
H190 H 0.76885 0.82036 0.59 0.0
H191 H 0.82495 0.8779 0.62223 0.0
H192 H 0.77144 0.94837 0.63 0.0
H193 H 0.76874 0.78879 0.60442 0.0
H194 H 0.82388 0.84615 0.63712 0.0
C195 C 0.08712 0.86331 0.53054 0.0
C196 C 0.1091 0.86483 0.52636 0.0
C197 C 0.08462 0.86809 0.54545 0.0
C198 C 0.10416 0.87497 0.55651 0.0
C199 C 0.12618 0.87673 0.55242 0.0
C200 C 0.12855 0.8715 0.53755 0.0
C201 C 0.10155 0.88024 0.57229 0.0
C202 C 0.08097 0.86305 0.57903 0.0
C203 C 0.07869 0.86772 0.59406 0.0
C204 C 0.09653 0.89021 0.60215 0.0
C205 C 0.11686 0.90776 0.59549 0.0
C206 C 0.1196 0.90248 0.58065 0.0
C207 C 0.13457 0.93194 0.60399 0.0
C208 C 0.12628 0.94788 0.60915 0.0
C209 C 0.15941 0.93886 0.60746 0.0
C210 C 0.17554 0.96108 0.6164 0.0
C211 C 0.16721 0.97701 0.62183 0.0
C212 C 0.05826 0.84887 0.6016 0.0
C213 C 0.03347 0.84067 0.59679 0.0
C214 C 0.06372 0.83961 0.61407 0.0
C215 C 0.0448 0.82281 0.62182 0.0
C216 C 0.01991 0.81531 0.61752 0.0
C217 C 0.01446 0.82419 0.60474 0.0
C218 C 0.14245 0.97027 0.61779 0.0
H219 H 0.0719 0.85877 0.52229 0.0
H220 H 0.06752 0.86685 0.54832 0.0
H221 H 0.14143 0.88174 0.56078 0.0
H222 H 0.14556 0.87238 0.5349 0.0
H223 H 0.06721 0.84567 0.57276 0.0
H224 H 0.1353 0.91604 0.57548 0.0
H225 H 0.09458 0.89409 0.61369 0.0
H226 H 0.10723 0.94299 0.60645 0.0
H227 H 0.16612 0.92672 0.60362 0.0
H228 H 0.19432 0.96536 0.61936 0.0
H229 H 0.02889 0.84766 0.58718 0.0
H230 H 0.08272 0.84543 0.61784 0.0
H231 H 0.1354 0.98225 0.62129 0.0
H232 H 0.99561 0.81905 0.60113 0.0
H233 H 0.04979 0.81584 0.63127 0.0
C234 C 0.92903 0.49951 0.80521 0.0
C235 C 0.9466 0.49421 0.81165 0.0
C236 C 0.92157 0.49388 0.78994 0.0
C237 C 0.9314 0.48271 0.78073 0.0
C238 C 0.94891 0.47733 0.78714 0.0
C239 C 0.95646 0.48306 0.80242 0.0
C240 C 0.92315 0.47649 0.76452 0.0
C241 C 0.92017 0.49343 0.75632 0.0
C242 C 0.91148 0.48741 0.74112 0.0
C243 C 0.90583 0.46413 0.7342 0.0
C244 C 0.90864 0.44692 0.74215 0.0
C245 C 0.91754 0.45335 0.7573 0.0
C246 C 0.90176 0.42219 0.73446 0.0
C247 C 0.88061 0.40959 0.72412 0.0
C248 C 0.91675 0.41157 0.73673 0.0
C249 C 0.91129 0.38946 0.72831 0.0
C250 C 0.89089 0.37775 0.71742 0.0
C251 C 0.90708 0.50466 0.73248 0.0
C252 C 0.89674 0.51813 0.73884 0.0
C253 C 0.9113 0.5062 0.71737 0.0
C254 C 0.90371 0.51927 0.7086 0.0
C255 C 0.89227 0.5316 0.71481 0.0
C256 C 0.88955 0.53162 0.73009 0.0
C257 C 0.87534 0.38776 0.71565 0.0
H258 H 0.92068 0.50764 0.812 0.0
H259 H 0.90773 0.49786 0.78539 0.0
H260 H 0.95703 0.46898 0.78031 0.0
H261 H 0.97028 0.47904 0.80696 0.0
H262 H 0.9249 0.51144 0.76175 0.0
H263 H 0.9192 0.43997 0.76361 0.0
H264 H 0.89884 0.45918 0.72254 0.0
H265 H 0.86824 0.41681 0.72239 0.0
H266 H 0.93319 0.42083 0.74458 0.0
H267 H 0.92356 0.38209 0.72988 0.0
H268 H 0.89304 0.51726 0.75039 0.0
H269 H 0.91984 0.49668 0.71217 0.0
H270 H 0.8592 0.37881 0.70755 0.0
H271 H 0.88062 0.54091 0.73507 0.0
H272 H 0.9062 0.51924 0.69686 0.0
C273 C 0.5412 0.46268 0.8151 0.0
C274 C 0.54182 0.44542 0.8242 0.0
C275 C 0.54815 0.46369 0.80058 0.0
C276 C 0.55555 0.44728 0.79481 0.0
C277 C 0.55713 0.43079 0.80403 0.0
C278 C 0.55063 0.43005 0.81857 0.0
C279 C 0.5595 0.44558 0.77888 0.0
C280 C 0.57768 0.46614 0.77252 0.0
C281 C 0.58186 0.46356 0.75756 0.0
C282 C 0.5669 0.44072 0.74884 0.0
C283 C 0.54836 0.42031 0.75496 0.0
C284 C 0.54508 0.42274 0.77004 0.0
C285 C 0.5325 0.39642 0.74558 0.0
C286 C 0.51972 0.39573 0.73214 0.0
C287 C 0.53016 0.3742 0.74996 0.0
C288 C 0.51566 0.35177 0.7409 0.0
C289 C 0.50282 0.35108 0.72748 0.0
C290 C 0.60231 0.48414 0.75092 0.0
C291 C 0.60283 0.50668 0.74957 0.0
C292 C 0.6205 0.48047 0.74483 0.0
C293 C 0.63857 0.49874 0.73725 0.0
C294 C 0.63856 0.5209 0.73534 0.0
C295 C 0.62066 0.52481 0.74171 0.0
C296 C 0.50479 0.37322 0.72324 0.0
H297 H 0.53439 0.47471 0.81895 0.0
H298 H 0.54664 0.47648 0.79363 0.0
H299 H 0.56302 0.41811 0.79987 0.0
H300 H 0.55215 0.41706 0.82531 0.0
H301 H 0.58915 0.4837 0.77932 0.0
H302 H 0.53087 0.40695 0.77484 0.0
H303 H 0.56988 0.43876 0.73727 0.0
H304 H 0.52114 0.41261 0.72858 0.0
H305 H 0.53991 0.37429 0.76026 0.0
H306 H 0.51435 0.33492 0.74442 0.0
H307 H 0.5889 0.50984 0.7541 0.0
H308 H 0.62043 0.4632 0.74573 0.0
H309 H 0.49518 0.37318 0.7129 0.0
H310 H 0.6203 0.54178 0.74044 0.0
H311 H 0.65199 0.49512 0.73237 0.0
C312 C 0.57001 0.08693 0.81664 0.0
C313 C 0.54642 0.07043 0.82079 0.0
C314 C 0.57317 0.09295 0.802 0.0
C315 C 0.5529 0.08233 0.79098 0.0
C316 C 0.52944 0.0652 0.79502 0.0
C317 C 0.52621 0.05948 0.80972 0.0
C318 C 0.55612 0.08993 0.77555 0.0
C319 C 0.57799 0.09579 0.76902 0.0
C320 C 0.58208 0.10496 0.75499 0.0
C321 C 0.56339 0.10741 0.74727 0.0
C322 C 0.54103 0.1007 0.75333 0.0
C323 C 0.53767 0.09226 0.76749 0.0
C324 C 0.52103 0.10244 0.7449 0.0
C325 C 0.52606 0.12416 0.73842 0.0
C326 C 0.49667 0.08223 0.7433 0.0
C327 C 0.47777 0.08356 0.73524 0.0
C328 C 0.48276 0.10528 0.72878 0.0
C329 C 0.60606 0.11257 0.74863 0.0
C330 C 0.62836 0.12354 0.758 0.0
C331 C 0.60705 0.10944 0.73318 0.0
C332 C 0.62971 0.11755 0.72729 0.0
C333 C 0.65202 0.12875 0.73668 0.0
C334 C 0.65091 0.13124 0.75214 0.0
C335 C 0.50706 0.12564 0.73054 0.0
H336 H 0.58615 0.09539 0.82472 0.0
H337 H 0.59149 0.10643 0.79945 0.0
H338 H 0.51342 0.05626 0.78685 0.0
H339 H 0.5077 0.04688 0.81243 0.0
H340 H 0.5918 0.09298 0.77485 0.0
H341 H 0.52087 0.08827 0.77238 0.0
H342 H 0.56615 0.11458 0.73653 0.0
H343 H 0.54465 0.14007 0.73958 0.0
H344 H 0.4923 0.06522 0.74813 0.0
H345 H 0.45918 0.06766 0.73414 0.0
H346 H 0.62858 0.12665 0.76992 0.0
H347 H 0.59031 0.1007 0.72558 0.0
H348 H 0.51143 0.14255 0.72559 0.0
H349 H 0.66751 0.13923 0.75982 0.0
H350 H 0.62971 0.11544 0.71532 0.0
C351 C 0.79254 0.58034 0.85917 0.0
C352 C 0.78075 0.59361 0.85522 0.0
C353 C 0.78916 0.56989 0.87265 0.0
C354 C 0.77419 0.57271 0.88267 0.0
C355 C 0.76257 0.58618 0.87879 0.0
C356 C 0.76566 0.59632 0.8652 0.0
C357 C 0.77058 0.5615 0.89704 0.0
C358 C 0.79012 0.56073 0.90499 0.0
C359 C 0.78674 0.54974 0.9184 0.0
C360 C 0.76347 0.53953 0.92386 0.0
C361 C 0.74403 0.54081 0.91636 0.0
C362 C 0.74761 0.5516 0.90292 0.0
C363 C 0.72025 0.53157 0.9229 0.0
C364 C 0.70841 0.50792 0.92799 0.0
C365 C 0.70984 0.54683 0.92467 0.0
C366 C 0.68818 0.53875 0.93165 0.0
C367 C 0.67637 0.51513 0.93678 0.0
C368 C 0.80761 0.54953 0.92698 0.0
C369 C 0.82477 0.54554 0.91972 0.0
C370 C 0.81043 0.55328 0.94261 0.0
C371 C 0.82964 0.55272 0.95077 0.0
C372 C 0.84691 0.54887 0.94356 0.0
C373 C 0.84425 0.54529 0.92791 0.0
C374 C 0.68656 0.49971 0.93478 0.0
H375 H 0.80464 0.57819 0.85193 0.0
H376 H 0.79815 0.55937 0.87512 0.0
H377 H 0.7512 0.58911 0.88628 0.0
H378 H 0.75599 0.6061 0.86251 0.0
H379 H 0.80821 0.56936 0.90096 0.0
H380 H 0.73225 0.55179 0.89695 0.0
H381 H 0.76049 0.53088 0.93414 0.0
H382 H 0.71606 0.4958 0.92672 0.0
H383 H 0.71875 0.56522 0.92094 0.0
H384 H 0.68057 0.55091 0.93295 0.0
H385 H 0.82303 0.54235 0.9077 0.0
H386 H 0.79788 0.55683 0.94861 0.0
H387 H 0.67786 0.48146 0.9387 0.0
H388 H 0.85731 0.54251 0.92197 0.0
H389 H 0.83074 0.55508 0.96279 0.0
C390 C 0.39768 0.16421 0.86921 0.0
C391 C 0.40858 0.18453 0.86081 0.0
C392 C 0.40172 0.16784 0.88473 0.0
C393 C 0.41698 0.19184 0.89217 0.0
C394 C 0.42807 0.21212 0.88369 0.0
C395 C 0.42381 0.2085 0.86819 0.0
C396 C 0.42117 0.19571 0.9087 0.0
C397 C 0.42395 0.17858 0.91673 0.0
C398 C 0.42725 0.18173 0.93233 0.0
C399 C 0.42799 0.20237 0.94002 0.0
C400 C 0.42611 0.22016 0.93215 0.0
C401 C 0.42243 0.21655 0.91654 0.0
C402 C 0.42887 0.24302 0.94013 0.0
C403 C 0.44507 0.26637 0.93555 0.0
C404 C 0.41546 0.24174 0.95227 0.0
C405 C 0.41801 0.26344 0.9596 0.0
C406 C 0.43433 0.2868 0.95505 0.0
C407 C 0.4306 0.16366 0.94047 0.0
C408 C 0.41475 0.15094 0.95114 0.0
C409 C 0.44922 0.15841 0.93716 0.0
C410 C 0.45189 0.14062 0.94434 0.0
C411 C 0.4357 0.12745 0.95477 0.0
C412 C 0.41711 0.13276 0.95813 0.0
C413 C 0.44789 0.28806 0.943 0.0
H414 H 0.38562 0.14556 0.8638 0.0
H415 H 0.39253 0.15185 0.8909 0.0
H416 H 0.44028 0.23079 0.88902 0.0
H417 H 0.43268 0.22445 0.86195 0.0
H418 H 0.42365 0.16272 0.91086 0.0
H419 H 0.42014 0.22986 0.91053 0.0
H420 H 0.43105 0.2051 0.95207 0.0
H421 H 0.45577 0.26788 0.92629 0.0
H422 H 0.40279 0.22394 0.95598 0.0
H423 H 0.40748 0.262 0.96894 0.0
H424 H 0.4002 0.15466 0.9538 0.0
H425 H 0.46168 0.16807 0.92898 0.0
H426 H 0.46049 0.30582 0.93922 0.0
H427 H 0.4045 0.12289 0.96619 0.0
H428 H 0.46627 0.13675 0.94151 0.0
C429 C 0.76283 0.18541 0.85452 0.0
C430 C 0.78654 0.193 0.85009 0.0
C431 C 0.75926 0.18697 0.8696 0.0
C432 C 0.77924 0.19589 0.8807 0.0
C433 C 0.80273 0.2025 0.87629 0.0
C434 C 0.80637 0.20128 0.86123 0.0
C435 C 0.77598 0.19956 0.89673 0.0
C436 C 0.7541 0.18312 0.9028 0.0
C437 C 0.75095 0.18722 0.91782 0.0
C438 C 0.76987 0.20805 0.92678 0.0
C439 C 0.79171 0.22452 0.9209 0.0
C440 C 0.79467 0.2202 0.90598 0.0
C441 C 0.81136 0.2469 0.93008 0.0
C442 C 0.80708 0.26599 0.93513 0.0
C443 C 0.83497 0.24999 0.93294 0.0
C444 C 0.85417 0.27199 0.94062 0.0
C445 C 0.85033 0.29167 0.94528 0.0
C446 C 0.72769 0.17 0.92406 0.0
C447 C 0.70472 0.16325 0.9165 0.0
C448 C 0.72823 0.16028 0.93758 0.0
C449 C 0.70619 0.14352 0.94319 0.0
C450 C 0.68311 0.13637 0.93548 0.0
C451 C 0.68275 0.14688 0.9222 0.0
C452 C 0.82641 0.28824 0.94254 0.0
H453 H 0.74695 0.17843 0.84634 0.0
H454 H 0.74091 0.18185 0.87249 0.0
H455 H 0.81852 0.20896 0.88447 0.0
H456 H 0.82496 0.20755 0.85837 0.0
H457 H 0.73962 0.16688 0.89595 0.0
H458 H 0.81134 0.23357 0.9015 0.0
H459 H 0.76753 0.21161 0.93828 0.0
H460 H 0.78901 0.26402 0.93287 0.0
H461 H 0.83857 0.23538 0.92915 0.0
H462 H 0.87205 0.27353 0.94283 0.0
H463 H 0.70376 0.17084 0.9062 0.0
H464 H 0.74573 0.16516 0.94363 0.0
H465 H 0.82269 0.30299 0.94568 0.0
H466 H 0.66543 0.14248 0.91613 0.0
H467 H 0.7073 0.1357 0.95335 0.0
C468 C 0.57684 0.81234 0.13781 0.0
C469 C 0.59636 0.81114 0.14541 0.0
C470 C 0.57201 0.80702 0.12236 0.0
C471 C 0.58643 0.80016 0.11418 0.0
C472 C 0.60588 0.79889 0.12173 0.0
C473 C 0.61088 0.80445 0.13716 0.0
C474 C 0.58141 0.79462 0.09779 0.0
C475 C 0.57778 0.81066 0.08916 0.0
C476 C 0.57373 0.80597 0.0736 0.0
C477 C 0.5732 0.78495 0.06663 0.0
C478 C 0.57603 0.76832 0.07515 0.0
C479 C 0.58032 0.77338 0.09071 0.0
C480 C 0.57343 0.74511 0.06786 0.0
C481 C 0.55713 0.72213 0.07282 0.0
C482 C 0.58679 0.74567 0.05581 0.0
C483 C 0.58396 0.7236 0.04888 0.0
C484 C 0.56738 0.7006 0.05371 0.0
C485 C 0.56961 0.8229 0.06471 0.0
C486 C 0.55197 0.82942 0.06834 0.0
C487 C 0.58349 0.83294 0.05275 0.0
C488 C 0.58012 0.84964 0.04474 0.0
C489 C 0.56248 0.85617 0.04839 0.0
C490 C 0.5483 0.84576 0.06018 0.0
C491 C 0.55399 0.70006 0.06573 0.0
H492 H 0.565 0.81699 0.14382 0.0
H493 H 0.55673 0.8079 0.11682 0.0
H494 H 0.61751 0.794 0.11566 0.0
H495 H 0.62635 0.80379 0.14258 0.0
H496 H 0.57869 0.82716 0.09455 0.0
H497 H 0.58264 0.76065 0.09732 0.0
H498 H 0.56959 0.781 0.05462 0.0
H499 H 0.54649 0.7212 0.08202 0.0
H500 H 0.59951 0.76319 0.05183 0.0
H501 H 0.59439 0.72446 0.03958 0.0
H502 H 0.54095 0.82179 0.07747 0.0
H503 H 0.59727 0.82824 0.0498 0.0
H504 H 0.54119 0.68256 0.0697 0.0
H505 H 0.53469 0.85063 0.06326 0.0
H506 H 0.59118 0.85735 0.03564 0.0
C507 C 0.24473 0.83519 0.14992 0.0
C508 C 0.23168 0.81739 0.15965 0.0
C509 C 0.2467 0.82772 0.13539 0.0
C510 C 0.23579 0.80231 0.13034 0.0
C511 C 0.2231 0.78462 0.14021 0.0
C512 C 0.221 0.79206 0.15464 0.0
C513 C 0.23768 0.79395 0.11495 0.0
C514 C 0.25983 0.80637 0.10833 0.0
C515 C 0.26202 0.79739 0.09421 0.0
C516 C 0.24196 0.77513 0.08698 0.0
C517 C 0.21935 0.76247 0.09327 0.0
C518 C 0.21738 0.77276 0.10708 0.0
C519 C 0.19808 0.7384 0.08572 0.0
C520 C 0.19568 0.73201 0.07025 0.0
C521 C 0.17999 0.7212 0.09401 0.0
C522 C 0.16013 0.69891 0.08713 0.0
C523 C 0.15818 0.69202 0.07176 0.0
C524 C 0.28496 0.81152 0.08676 0.0
C525 C 0.29685 0.83762 0.08735 0.0
C526 C 0.2942 0.79897 0.07819 0.0
C527 C 0.31378 0.81199 0.0697 0.0
C528 C 0.32477 0.83788 0.0697 0.0
C529 C 0.31663 0.85067 0.07895 0.0
C530 C 0.17648 0.70905 0.06348 0.0
H531 H 0.25302 0.85485 0.15346 0.0
H532 H 0.25644 0.84182 0.12804 0.0
H533 H 0.215 0.76493 0.13685 0.0
H534 H 0.21126 0.77793 0.16197 0.0
H535 H 0.27562 0.8227 0.11431 0.0
H536 H 0.19995 0.76446 0.11186 0.0
H537 H 0.24412 0.7679 0.07637 0.0
H538 H 0.20853 0.7446 0.06318 0.0
H539 H 0.18101 0.72453 0.10596 0.0
H540 H 0.14637 0.68726 0.09411 0.0
H541 H 0.29012 0.84787 0.09374 0.0
H542 H 0.28595 0.77898 0.07778 0.0
H543 H 0.17643 0.70486 0.05171 0.0
H544 H 0.32465 0.87061 0.07906 0.0
H545 H 0.31995 0.80172 0.06281 0.0
C546 C 0.23083 0.41956 0.15257 0.0
C547 C 0.20696 0.40778 0.15731 0.0
C548 C 0.23426 0.4238 0.1377 0.0
C549 C 0.2139 0.41592 0.127 0.0
C550 C 0.18997 0.4033 0.13163 0.0
C551 C 0.18655 0.39947 0.14658 0.0
C552 C 0.21781 0.42208 0.11133 0.0
C553 C 0.23823 0.42349 0.10471 0.0
C554 C 0.24386 0.43232 0.0907 0.0
C555 C 0.22809 0.43869 0.083 0.0
C556 C 0.20721 0.43664 0.08914 0.0
C557 C 0.20221 0.4284 0.10329 0.0
C558 C 0.19162 0.4448 0.08118 0.0
C559 C 0.20268 0.46784 0.07532 0.0
C560 C 0.16571 0.42987 0.07954 0.0
C561 C 0.15113 0.43791 0.0722 0.0
C562 C 0.16223 0.46118 0.0666 0.0
C563 C 0.26722 0.43692 0.08462 0.0
C564 C 0.28923 0.44656 0.09412 0.0
C565 C 0.26818 0.43357 0.0692 0.0
C566 C 0.29072 0.44087 0.06339 0.0
C567 C 0.31287 0.45143 0.07287 0.0
C568 C 0.3117 0.45353 0.08833 0.0
C569 C 0.18814 0.47599 0.06816 0.0
H570 H 0.24703 0.42576 0.16037 0.0
H571 H 0.25302 0.43392 0.13473 0.0
H572 H 0.17378 0.39656 0.12373 0.0
H573 H 0.16788 0.39051 0.14975 0.0
H574 H 0.24996 0.41796 0.11054 0.0
H575 H 0.18686 0.42823 0.1083 0.0
H576 H 0.23237 0.44597 0.07234 0.0
H577 H 0.2226 0.47982 0.07653 0.0
H578 H 0.15675 0.41197 0.0839 0.0
H579 H 0.13118 0.42623 0.07124 0.0
H580 H 0.28936 0.44965 0.10604 0.0
H581 H 0.25156 0.42578 0.06154 0.0
H582 H 0.19716 0.49396 0.06388 0.0
H583 H 0.32825 0.46101 0.09602 0.0
H584 H 0.29084 0.43903 0.05143 0.0
C585 C 0.45627 0.90661 0.18548 0.0
C586 C 0.447 0.92143 0.18029 0.0
C587 C 0.45306 0.89937 0.19992 0.0
C588 C 0.44079 0.90704 0.20964 0.0
C589 C 0.43195 0.92229 0.20447 0.0
C590 C 0.43487 0.92923 0.18998 0.0
C591 C 0.43705 0.89897 0.22501 0.0
C592 C 0.45524 0.89625 0.23323 0.0
C593 C 0.45178 0.88823 0.24757 0.0
C594 C 0.42957 0.88259 0.25356 0.0
C595 C 0.41165 0.88604 0.24587 0.0
C596 C 0.41542 0.89414 0.23162 0.0
C597 C 0.38993 0.88271 0.25341 0.0
C598 C 0.37434 0.86017 0.2591 0.0
C599 C 0.38643 0.90303 0.25647 0.0
C600 C 0.36853 0.90122 0.26569 0.0
C601 C 0.35343 0.8789 0.27175 0.0
C602 C 0.47166 0.88684 0.25667 0.0
C603 C 0.48687 0.87907 0.25013 0.0
C604 C 0.47563 0.89346 0.27215 0.0
C605 C 0.49394 0.89209 0.28084 0.0
C606 C 0.50935 0.8846 0.27434 0.0
C607 C 0.50551 0.87802 0.25885 0.0
C608 C 0.35604 0.85819 0.26804 0.0
H609 H 0.46546 0.90006 0.17824 0.0
H610 H 0.45979 0.88731 0.20331 0.0
H611 H 0.42292 0.92911 0.21165 0.0
H612 H 0.42782 0.94095 0.18638 0.0
H613 H 0.47253 0.90126 0.22868 0.0
H614 H 0.40121 0.89623 0.22565 0.0
H615 H 0.42636 0.87611 0.26448 0.0
H616 H 0.37679 0.84429 0.25695 0.0
H617 H 0.39839 0.92067 0.25234 0.0
H618 H 0.36686 0.91745 0.26839 0.0
H619 H 0.48427 0.8736 0.23828 0.0
H620 H 0.46475 0.90001 0.27764 0.0
H621 H 0.34474 0.84084 0.27265 0.0
H622 H 0.51709 0.87236 0.25339 0.0
H623 H 0.49583 0.89683 0.29274 0.0
C624 C 0.07683 0.53095 0.2037 0.0
C625 C 0.08749 0.55331 0.19705 0.0
C626 C 0.08398 0.53068 0.21858 0.0
C627 C 0.10194 0.55277 0.22707 0.0
C628 C 0.1133 0.57488 0.2202 0.0
C629 C 0.10613 0.57516 0.20538 0.0
C630 C 0.10795 0.55317 0.24322 0.0
C631 C 0.11133 0.53443 0.24877 0.0
C632 C 0.11718 0.5351 0.26411 0.0
C633 C 0.11903 0.55451 0.27393 0.0
C634 C 0.11588 0.57338 0.26847 0.0
C635 C 0.11036 0.57259 0.25318 0.0
C636 C 0.11905 0.59453 0.27854 0.0
C637 C 0.10353 0.59069 0.28986 0.0
C638 C 0.13672 0.61887 0.27618 0.0
C639 C 0.1386 0.63915 0.28486 0.0
C640 C 0.12252 0.63542 0.29585 0.0
C641 C 0.12298 0.51657 0.26978 0.0
C642 C 0.11477 0.50659 0.28321 0.0
C643 C 0.138 0.50978 0.26218 0.0
C644 C 0.14535 0.49408 0.26811 0.0
C645 C 0.13785 0.48479 0.28179 0.0
C646 C 0.12208 0.49081 0.28914 0.0
C647 C 0.10507 0.61103 0.29837 0.0
H648 H 0.06229 0.51385 0.19758 0.0
H649 H 0.07478 0.51339 0.2236 0.0
H650 H 0.12758 0.59209 0.22635 0.0
H651 H 0.11503 0.59256 0.20046 0.0
H652 H 0.10977 0.51953 0.24112 0.0
H653 H 0.10753 0.58704 0.24908 0.0
H654 H 0.124 0.55562 0.28573 0.0
H655 H 0.0897 0.57202 0.29178 0.0
H656 H 0.14886 0.62219 0.26748 0.0
H657 H 0.15207 0.65778 0.28264 0.0
H658 H 0.10298 0.51126 0.28925 0.0
H659 H 0.14484 0.5173 0.25188 0.0
H660 H 0.09254 0.60774 0.30683 0.0
H661 H 0.11612 0.48407 0.29974 0.0
H662 H 0.15726 0.48954 0.2621 0.0
C663 C 0.43687 0.52523 0.19427 0.0
C664 C 0.46099 0.53492 0.19008 0.0
C665 C 0.43276 0.52618 0.20925 0.0
C666 C 0.45261 0.53664 0.22054 0.0
C667 C 0.47673 0.54589 0.21638 0.0
C668 C 0.48087 0.54506 0.20135 0.0
C669 C 0.44811 0.53845 0.23649 0.0
C670 C 0.42688 0.5194 0.24185 0.0
C671 C 0.42159 0.52159 0.25658 0.0
C672 C 0.43796 0.54311 0.26607 0.0
C673 C 0.45929 0.56233 0.26099 0.0
C674 C 0.46434 0.55977 0.24627 0.0
C675 C 0.47542 0.58574 0.27084 0.0
C676 C 0.46497 0.59818 0.27818 0.0
C677 C 0.50117 0.59587 0.27291 0.0
C678 C 0.5161 0.61769 0.28249 0.0
C679 C 0.5056 0.63005 0.29003 0.0
C680 C 0.39845 0.50183 0.26185 0.0
C681 C 0.37575 0.49202 0.25308 0.0
C682 C 0.39876 0.49286 0.27568 0.0
C683 C 0.37689 0.47418 0.28051 0.0
C684 C 0.35411 0.46422 0.27169 0.0
C685 C 0.35389 0.47363 0.25797 0.0
C686 C 0.47985 0.62013 0.28752 0.0
H687 H 0.42104 0.51687 0.18596 0.0
H688 H 0.41395 0.51915 0.21194 0.0
H689 H 0.49247 0.55381 0.22474 0.0
H690 H 0.49971 0.55287 0.19857 0.0
H691 H 0.41443 0.50267 0.23458 0.0
H692 H 0.48034 0.57498 0.24225 0.0
H693 H 0.43384 0.54515 0.27737 0.0
H694 H 0.44523 0.59107 0.27654 0.0
H695 H 0.50969 0.5866 0.26737 0.0
H696 H 0.53577 0.62454 0.2842 0.0
H697 H 0.37481 0.49888 0.24251 0.0
H698 H 0.41602 0.49998 0.28265 0.0
H699 H 0.47106 0.6294 0.29269 0.0
H700 H 0.33673 0.46701 0.25101 0.0
H701 H 0.37796 0.46728 0.29104 0.0
C702 C 0.52865 0.00426 0.04105 0.0
Eu703 Eu 0.5109 0.99917 0.0135 0.0
C704 C 0.51732 0.99532 0.055 0.0
C705 C 0.49837 0.99921 0.05959 0.0
C706 C 0.48738 0.99003 0.07255 0.0
C707 C 0.49484 0.97647 0.0812 0.0
C708 C 0.51377 0.97252 0.07651 0.0
C709 C 0.52488 0.98189 0.0636 0.0
C710 C 0.487 0.02099 1.0019 0.0
C711 C 0.4534 0.95076 0.01025 0.0
C712 C 0.46414 0.96762 0.95528 0.0
Eu713 Eu 0.48181 0.97491 0.98299 0.0
C714 C 0.47362 0.98112 0.94213 0.0
C715 C 0.47574 0.96861 0.92937 0.0
C716 C 0.48629 0.98139 0.9172 0.0
C717 C 0.49482 0.00701 0.91746 0.0
C718 C 0.4923 0.01941 0.93019 0.0
C719 C 0.48193 0.00666 0.94241 0.0
C720 C 0.50603 0.95363 0.99511 0.0
C721 C 0.5378 0.02281 0.98532 0.0
O722 O 0.5267 0.98715 0.03102 0.0
O723 O 0.52509 0.02104 0.03518 0.0
O724 O 0.50834 0.03332 0.00982 0.0
O725 O 0.47865 0.99788 1.00129 0.0
O726 O 0.47473 0.96528 0.01853 0.0
O727 O 0.45037 0.95273 0.99597 0.0
O728 O 0.45831 0.97854 0.96584 0.0
O729 O 0.476 0.95697 0.96049 0.0
O730 O 0.48422 0.94087 0.9878 0.0
O731 O 0.51418 0.97657 0.99518 0.0
O732 O 0.51512 0.01087 0.9785 0.0
O733 O 0.54236 0.01947 0.99922 0.0
H734 H 0.49192 0.0093 0.05316 0.0
H735 H 0.47318 0.99385 0.07583 0.0
H736 H 0.51977 0.96182 0.08266 0.0
H737 H 0.53927 0.97839 0.06023 0.0
H738 H 0.46967 0.94897 0.92894 0.0
H739 H 0.48824 0.97126 0.90772 0.0
H740 H 0.49827 0.03902 0.93074 0.0
H741 H 0.48072 0.01691 0.95213 0.0
C742 C 0.98115 0.49932 0.04855 0.0
Eu743 Eu 0.98911 0.49618 0.02076 0.0
C744 C 0.99476 0.50883 0.06354 0.0
C745 C 0.99136 0.49203 0.074 0.0
C746 C 0.00309 0.50061 0.08847 0.0
C747 C 0.01857 0.52623 0.09278 0.0
C748 C 0.02215 0.54301 0.08221 0.0
C749 C 0.01016 0.53443 0.0678 0.0
C750 C 0.96455 0.45372 1.00202 0.0
C751 C 0.03795 0.49178 0.01763 0.0
C752 C 0.01238 0.48862 0.96223 0.0
Eu753 Eu 0.00907 0.49799 0.99022 0.0
C754 C 0.00552 0.49332 0.94737 0.0
C755 C 0.01717 0.51727 0.94265 0.0
C756 C 0.01093 0.52101 0.92834 0.0
C757 C 0.99291 0.50091 0.91844 0.0
C758 C 0.98114 0.47702 0.92326 0.0
C759 C 0.98746 0.47328 0.93753 0.0
C760 C 0.03449 0.54119 0.00821 0.0
C761 C 0.96533 0.51162 0.99442 0.0
O762 O 0.98323 0.51563 0.03947 0.0
O763 O 0.98107 0.48007 0.04185 0.0
O764 O 0.95374 0.46168 0.01075 0.0
O765 O 0.98765 0.46786 0.00398 0.0
O766 O 0.02691 0.50072 0.02589 0.0
O767 O 0.03089 0.48438 0.0033 0.0
O768 O 0.99413 0.47356 0.96946 0.0
O769 O 0.03007 0.5075 0.97092 0.0
O770 O 0.04436 0.53444 0.99803 0.0
O771 O 0.01148 0.52633 0.00728 0.0
O772 O 0.97702 0.50486 0.98513 0.0
O773 O 0.96872 0.51207 0.00898 0.0
H774 H 0.97926 0.47221 0.07107 0.0
H775 H 0.99947 0.48714 0.09637 0.0
H776 H 0.03418 0.56285 0.08505 0.0
H777 H 0.0128 0.54791 0.06009 0.0
H778 H 0.03128 0.53312 0.94993 0.0
H779 H 0.0206 0.5396 0.92494 0.0
H780 H 0.96692 0.46117 0.91604 0.0
H781 H 0.97824 0.45461 0.94086 0.0
C782 C 0.46197 0.47048 0.96403 0.0
Eu783 Eu 0.48265 0.48644 0.99126 0.0
C784 C 0.46978 0.4646 0.94995 0.0
C785 C 0.46704 0.47479 0.93709 0.0
C786 C 0.47489 0.47004 0.92373 0.0
C787 C 0.4855 0.45482 0.92294 0.0
C788 C 0.48836 0.44473 0.93588 0.0
C789 C 0.4807 0.44965 0.94926 0.0
C790 C 0.50863 0.53468 0.00256 0.0
C791 C 0.53777 0.49248 0.99193 0.0
C792 C 0.53587 0.51443 0.04788 0.0
Eu793 Eu 0.51474 0.49768 0.02072 0.0
C794 C 0.52653 0.517 0.06209 0.0
C795 C 0.54301 0.53153 0.07457 0.0
C796 C 0.53405 0.53439 0.08796 0.0
C797 C 0.50844 0.523 0.08902 0.0
C798 C 0.49203 0.50831 0.0765 0.0
C799 C 0.50098 0.50521 0.06322 0.0
C800 C 0.48874 0.44938 0.0095 0.0
C801 C 0.45856 0.48977 0.02005 0.0
O802 O 0.45836 0.45574 0.97447 0.0
O803 O 0.47355 0.49395 0.96927 0.0
O804 O 0.48618 0.52417 0.99615 0.0
O805 O 0.51655 0.51969 1.00231 0.0
O806 O 0.51484 0.48154 0.98549 0.0
O807 O 0.54401 0.50442 0.00546 0.0
O808 O 0.53585 0.5288 0.03796 0.0
O809 O 0.52769 0.49164 0.04205 0.0
O810 O 0.511 0.45976 0.01618 0.0
O811 O 0.48099 0.46448 0.00969 0.0
O812 O 0.48134 0.50037 0.02673 0.0
O813 O 0.45291 0.4793 0.00618 0.0
H814 H 0.45881 0.48648 0.93737 0.0
H815 H 0.47223 0.4779 0.91394 0.0
H816 H 0.49674 0.43317 0.93568 0.0
H817 H 0.48339 0.4418 0.95905 0.0
H818 H 0.5628 0.54077 0.07392 0.0
H819 H 0.54714 0.54595 0.09738 0.0
H820 H 0.47221 0.499 0.077 0.0
H821 H 0.4879 0.49358 0.05385 0.0
C822 C 0.20361 0.34253 0.37625 0.0
Eu823 Eu 0.1826 0.34274 0.35063 0.0
C824 C 0.19552 0.33727 0.39124 0.0
C825 C 0.17842 0.34343 0.3965 0.0
C826 C 0.17131 0.33894 0.41086 0.0
C827 C 0.18099 0.32799 0.4202 0.0
C828 C 0.19756 0.32117 0.41474 0.0
C829 C 0.20482 0.32586 0.40039 0.0
C830 C 0.1772 0.37933 0.34003 0.0
C831 C 0.1221 0.31588 0.35284 0.0
C832 C 0.1254 0.32669 0.29642 0.0
Eu833 Eu 0.14599 0.32706 0.32223 0.0
C834 C 0.13506 0.3385 0.28278 0.0
C835 C 0.13159 0.32353 0.26961 0.0
C836 C 0.14201 0.33426 0.25687 0.0
C837 C 0.15586 0.36029 0.2569 0.0
C838 C 0.15884 0.37525 0.27006 0.0
C839 C 0.1488 0.36449 0.28288 0.0
C840 C 0.15164 0.29066 0.33274 0.0
C841 C 0.20633 0.35472 0.32018 0.0
O842 O 0.19355 0.32352 0.36601 0.0
O843 O 0.2052 0.36258 0.37142 0.0
O844 O 0.19789 0.38289 0.34654 0.0
O845 O 0.16007 0.35722 0.34048 0.0
O846 O 0.14467 0.32374 0.35923 0.0
O847 O 0.11755 0.31695 0.33854 0.0
O848 O 0.12757 0.34132 0.30818 0.0
O849 O 0.13051 0.30949 0.29968 0.0
O850 O 0.13075 0.28701 0.32651 0.0
O851 O 0.16873 0.31277 0.33223 0.0
O852 O 0.18415 0.34921 0.31425 0.0
O853 O 0.21036 0.35095 0.33402 0.0
H854 H 0.17071 0.35193 0.38957 0.0
H855 H 0.15822 0.34404 0.41466 0.0
H856 H 0.20542 0.31283 0.4217 0.0
H857 H 0.21792 0.32084 0.3965 0.0
H858 H 0.12123 0.30344 0.26927 0.0
H859 H 0.13965 0.32204 0.2471 0.0
H860 H 0.16895 0.39533 0.27052 0.0
H861 H 0.15207 0.37659 0.29289 0.0
C862 C 0.66607 0.86015 0.38276 0.0
Eu863 Eu 0.65731 0.8407 0.35529 0.0
C864 C 0.67976 0.85923 0.39623 0.0
C865 C 0.67869 0.83702 0.39949 0.0
C866 C 0.69207 0.83661 0.41225 0.0
C867 C 0.70701 0.85846 0.42191 0.0
C868 C 0.70849 0.88078 0.41833 0.0
C869 C 0.69491 0.8811 0.40566 0.0
C870 C 0.62272 0.79407 0.34404 0.0
C871 C 0.69431 0.81863 0.35001 0.0
C872 C 0.6585 0.80919 0.29647 0.0
Eu873 Eu 0.664 0.82686 0.32415 0.0
C874 C 0.65048 0.81284 0.28175 0.0
C875 C 0.65701 0.83663 0.27785 0.0
C876 C 0.64968 0.83956 0.2636 0.0
C877 C 0.63553 0.81874 0.25306 0.0
C878 C 0.62849 0.79492 0.25722 0.0
C879 C 0.63599 0.79204 0.2714 0.0
C880 C 0.69674 0.8742 0.33599 0.0
C881 C 0.6269 0.84901 0.32915 0.0
O882 O 0.67961 0.87175 0.37228 0.0
O883 O 0.64571 0.83961 0.37758 0.0
O884 O 0.61842 0.80836 0.3529 0.0
O885 O 0.64549 0.80423 0.34225 0.0
O886 O 0.68864 0.83236 0.35883 0.0
O887 O 0.68387 0.8106 0.33622 0.0
O888 O 0.64132 0.79932 0.30549 0.0
O889 O 0.67947 0.82727 0.30318 0.0
O890 O 0.70315 0.86084 0.32793 0.0
O891 O 0.6739 0.86242 0.33682 0.0
O892 O 0.63302 0.83572 0.32022 0.0
O893 O 0.63649 0.85616 0.34318 0.0
H894 H 0.66743 0.81996 0.39222 0.0
H895 H 0.69026 0.81905 0.41467 0.0
H896 H 0.72023 0.89808 0.42528 0.0
H897 H 0.69633 0.89851 0.40317 0.0
H898 H 0.66801 0.85295 0.28574 0.0
H899 H 0.65559 0.85817 0.26074 0.0
H900 H 0.61715 0.77844 0.24951 0.0
H901 H 0.63055 0.77352 0.27427 0.0
C902 C 0.14676 0.82023 0.29965 0.0
Eu903 Eu 0.16118 0.83539 0.32774 0.0
C904 C 0.15925 0.82385 0.28595 0.0
C905 C 0.1778 0.84753 0.28303 0.0
C906 C 0.18949 0.85052 0.26999 0.0
C907 C 0.18307 0.82987 0.25969 0.0
C908 C 0.16482 0.80614 0.26284 0.0
C909 C 0.15298 0.80321 0.2758 0.0
C910 C 0.18296 0.88277 0.34063 0.0
C911 C 0.21911 0.84941 0.33373 0.0
C912 C 0.1989 0.85897 0.38771 0.0
Eu913 Eu 0.18478 0.84391 0.35957 0.0
C914 C 0.18604 0.85669 0.40118 0.0
C915 C 0.16565 0.83397 0.40387 0.0
C916 C 0.1533 0.83243 0.4165 0.0
C917 C 0.16087 0.85362 0.42661 0.0
C918 C 0.1811 0.8764 0.4237 0.0
C919 C 0.19358 0.87786 0.41116 0.0
C920 C 0.16436 0.79706 0.34639 0.0
C921 C 0.12678 0.83034 0.35321 0.0
O922 O 0.15078 0.80715 0.309 0.0
O923 O 0.14702 0.83964 0.30629 0.0
O924 O 0.1631 0.87279 0.33136 0.0
O925 O 0.191 0.86807 0.34179 0.0
O926 O 0.19843 0.83857 0.32461 0.0
O927 O 0.2194 0.85663 0.34786 0.0
O928 O 0.19655 0.87269 0.37814 0.0
O929 O 0.19719 0.83866 0.38131 0.0
O930 O 0.18467 0.80774 0.35532 0.0
O931 O 0.15521 0.81093 0.34549 0.0
O932 O 0.14708 0.84015 0.36265 0.0
O933 O 0.12677 0.82363 0.33908 0.0
H934 H 0.18322 0.86377 0.29078 0.0
H935 H 0.20327 0.8691 0.26791 0.0
H936 H 0.15977 0.78972 0.25536 0.0
H937 H 0.13896 0.78474 0.27794 0.0
H938 H 0.15922 0.81739 0.39622 0.0
H939 H 0.13802 0.81451 0.4184 0.0
H940 H 0.18716 0.89325 0.43101 0.0
H941 H 0.20902 0.89565 0.40917 0.0
C942 C 0.85153 0.66584 0.71428 0.0
Eu943 Eu 0.83702 0.66799 0.68716 0.0
C944 C 0.84047 0.65889 0.72833 0.0
C945 C 0.81997 0.66113 0.7315 0.0
C946 C 0.81015 0.65502 0.74511 0.0
C947 C 0.82049 0.64627 0.75565 0.0
C948 C 0.84057 0.6434 0.75222 0.0
C949 C 0.85051 0.64974 0.73868 0.0
C950 C 0.8207 0.6984 0.67831 0.0
C951 C 0.77744 0.62881 0.68003 0.0
C952 C 0.79923 0.66089 0.62837 0.0
Eu953 Eu 0.8128 0.65631 0.65517 0.0
C954 C 0.81107 0.66895 0.61456 0.0
C955 C 0.82854 0.66275 0.61003 0.0
C956 C 0.83882 0.66977 0.59661 0.0
C957 C 0.83205 0.68335 0.58754 0.0
C958 C 0.81522 0.69028 0.59239 0.0
C959 C 0.80478 0.68307 0.60575 0.0
C960 C 0.82805 0.62489 0.66348 0.0
C961 C 0.87259 0.69559 0.66287 0.0
O962 O 0.84396 0.64766 0.70367 0.0
O963 O 0.85354 0.68606 0.70949 0.0
O964 O 0.8411 0.70641 0.68683 0.0
O965 O 0.80983 0.67524 0.6755 0.0
O966 O 0.79799 0.63628 0.68886 0.0
O967 O 0.778 0.63692 0.6668 0.0
O968 O 0.80647 0.67824 0.6395 0.0
O969 O 0.79638 0.63997 0.63255 0.0
O970 O 0.80867 0.61812 0.65421 0.0
O971 O 0.83955 0.6481 0.66692 0.0
O972 O 0.85232 0.68782 0.65368 0.0
O973 O 0.87175 0.68728 0.676 0.0
H974 H 0.81173 0.66781 0.72351 0.0
H975 H 0.79449 0.65711 0.74741 0.0
H976 H 0.84901 0.6369 0.76019 0.0
H977 H 0.86623 0.64776 0.73637 0.0
H978 H 0.83404 0.65224 0.61677 0.0
H979 H 0.852 0.66445 0.59327 0.0
H980 H 0.80952 0.7006 0.58561 0.0
H981 H 0.7915 0.68823 0.60911 0.0
C982 C 0.35275 0.20262 0.71148 0.0
Eu983 Eu 0.33957 0.17965 0.68468 0.0
C984 C 0.35964 0.19767 0.72607 0.0
C985 C 0.35224 0.1733 0.72914 0.0
C986 C 0.35873 0.16882 0.74314 0.0
C987 C 0.37295 0.18868 0.75427 0.0
C988 C 0.38076 0.21311 0.75096 0.0
C989 C 0.37407 0.21753 0.737 0.0
C990 C 0.29855 0.13503 0.67569 0.0
C991 C 0.36429 0.14464 0.67984 0.0
C992 C 0.32668 0.13569 0.62649 0.0
Eu993 Eu 0.3386 0.15753 0.65357 0.0
C994 C 0.32173 0.14212 0.61191 0.0
C995 C 0.32956 0.1669 0.60967 0.0
C996 C 0.32475 0.17287 0.59573 0.0
C997 C 0.31188 0.15412 0.58383 0.0
C998 C 0.30377 0.12925 0.58625 0.0
C999 C 0.30869 0.12333 0.60018 0.0
C1000 C 0.37965 0.20195 0.66306 0.0
C1001 C 0.31361 0.1924 0.65842 0.0
O1002 O 0.36833 0.20653 0.70158 0.0
O1003 O 0.32968 0.18822 0.70599 0.0
O1004 O 0.29847 0.15245 0.68425 0.0
O1005 O 0.3203 0.14108 0.67326 0.0
O1006 O 0.36446 0.1631 0.688 0.0
O1007 O 0.35135 0.13578 0.66666 0.0
O1008 O 0.31046 0.13225 0.63589 0.0
O1009 O 0.3495 0.14883 0.63266 0.0
O1010 O 0.38005 0.18436 0.65489 0.0
O1011 O 0.35772 0.19584 0.66495 0.0
O1012 O 0.31384 0.17428 0.65013 0.0
O1013 O 0.32604 0.20085 0.67175 0.0
H1014 H 0.34125 0.15774 0.72074 0.0
H1015 H 0.35219 0.14978 0.74533 0.0
H1016 H 0.39215 0.22888 0.75914 0.0
H1017 H 0.38015 0.23647 0.73474 0.0
H1018 H 0.33948 0.18162 0.61869 0.0
H1019 H 0.33146 0.19222 0.59423 0.0
H1020 H 0.29339 0.11431 0.57742 0.0
H1021 H 0.30227 0.10406 0.60181 0.0
C1022 C 0.80094 0.14814 0.62769 0.0
Eu1023 Eu 0.82215 0.16695 0.65455 0.0
C1024 C 0.81025 0.14426 0.61361 0.0
C1025 C 0.81433 0.16024 0.60248 0.0
C1026 C 0.82451 0.15775 0.58957 0.0
C1027 C 0.8307 0.13906 0.58738 0.0
C1028 C 0.82609 0.12273 0.5984 0.0
C1029 C 0.81605 0.12531 0.61135 0.0
C1030 C 0.84034 0.21377 0.66711 0.0
C1031 C 0.88137 0.18522 0.65306 0.0
C1032 C 0.87746 0.19461 0.71026 0.0
Eu1033 Eu 0.85685 0.18024 0.68296 0.0
C1034 C 0.86806 0.19695 0.72461 0.0
C1035 C 0.86481 0.18024 0.73514 0.0
C1036 C 0.85382 0.18065 0.74811 0.0
C1037 C 0.84595 0.19792 0.75092 0.0
C1038 C 0.84993 0.21514 0.74056 0.0
C1039 C 0.86081 0.21464 0.72758 0.0
C1040 C 0.83716 0.13337 0.66977 0.0
C1041 C 0.79866 0.16552 0.68445 0.0
O1042 O 0.80035 0.13457 0.6383 0.0
O1043 O 0.80882 0.17124 0.63277 0.0
O1044 O 0.81862 0.20066 0.65971 0.0
O1045 O 0.85255 0.20266 0.66634 0.0
O1046 O 0.85831 0.17283 0.64672 0.0
O1047 O 0.88665 0.19309 0.66742 0.0
O1048 O 0.87951 0.21016 0.7006 0.0
O1049 O 0.86831 0.17191 0.70397 0.0
O1050 O 0.85992 0.14651 0.67567 0.0
O1051 O 0.82593 0.14518 0.67152 0.0
O1052 O 0.82184 0.17776 0.69061 0.0
O1053 O 0.79289 0.15585 0.67039 0.0
H1054 H 0.81003 0.175 0.60388 0.0
H1055 H 0.82803 0.17086 0.58145 0.0
H1056 H 0.83014 0.10781 0.59702 0.0
H1057 H 0.81307 0.11255 0.61963 0.0
H1058 H 0.87021 0.16639 0.73317 0.0
H1059 H 0.85088 0.16693 0.75571 0.0
H1060 H 0.84459 0.22905 0.74246 0.0
H1061 H 0.86318 0.22787 0.71977 0.0
H1062 H 0.36986 0.8816 0.07485 0.0
H1063 H 0.31975 0.82397 0.04015 0.0
H1064 H 0.3477 0.84634 0.02149 0.0
H1065 H 0.38744 0.93303 0.05382 0.0
H1066 H 0.41955 0.94985 0.06116 0.0
H1067 H 0.39645 0.92915 0.07228 0.0
H1068 H 0.41969 0.90511 0.07558 0.0
H1069 H 0.4431 0.9256 0.06452 0.0
H1070 H 0.42686 0.89249 0.0594 0.0
H1071 H 0.37892 0.87566 0.00641 0.0
H1072 H 0.41387 0.90921 0.99568 0.0
H1073 H 0.44555 0.94767 0.03994 0.0
C1074 C 0.36495 0.87369 0.06333 0.0
C1075 C 0.34272 0.85098 0.05892 0.0
C1076 C 0.33685 0.84113 0.04377 0.0
C1077 C 0.35253 0.85376 0.03309 0.0
C1078 C 0.37417 0.87611 0.03774 0.0
C1079 C 0.38065 0.88592 0.05249 0.0
C1080 C 0.40513 0.91033 0.05437 0.0
C1081 C 0.40194 0.93185 0.06079 0.0
C1082 C 0.42485 0.90824 0.06404 0.0
C1083 C 0.41101 0.91284 0.03833 0.0
C1084 C 0.3928 0.89289 0.02896 0.0
C1085 C 0.39344 0.89129 0.01362 0.0
C1086 C 0.41332 0.91053 0.00763 0.0
C1087 C 0.43243 0.93105 0.01697 0.0
C1088 C 0.43128 0.93213 0.03254 0.0
H1089 H 0.12267 0.4369 0.04505 0.0
H1090 H 0.16719 0.50672 0.07297 0.0
H1091 H 0.14151 0.52274 0.06225 0.0
H1092 H 0.11309 0.46409 0.01245 0.0
H1093 H 0.08175 0.43906 0.00753 0.0
H1094 H 0.10407 0.43317 0.01701 0.0
H1095 H 0.07525 0.41492 0.03781 0.0
H1096 H 0.05284 0.42068 0.02838 0.0
H1097 H 0.06453 0.43335 0.04745 0.0
H1098 H 0.10967 0.53008 0.05017 0.0
H1099 H 0.07405 0.52914 0.03646 0.0
H1100 H 0.05089 0.45561 0.01508 0.0
C1101 C 0.12699 0.45557 0.04884 0.0
C1102 C 0.14693 0.47064 0.0598 0.0
C1103 C 0.15216 0.49501 0.06447 0.0
C1104 C 0.13766 0.50423 0.05848 0.0
C1105 C 0.11816 0.48895 0.04771 0.0
C1106 C 0.11286 0.46522 0.04282 0.0
C1107 C 0.09059 0.45264 0.03122 0.0
C1108 C 0.09782 0.44691 0.01616 0.0
C1109 C 0.06956 0.429 0.03654 0.0
C1110 C 0.08395 0.47286 0.03059 0.0
C1111 C 0.10014 0.4936 0.04025 0.0
C1112 C 0.09708 0.51413 0.04242 0.0
C1113 C 0.07679 0.51339 0.03462 0.0
C1114 C 0.06002 0.49243 0.02465 0.0
C1115 C 0.06381 0.47204 0.02243 0.0
H1116 H 0.5236 0.6592 0.04301 0.0
H1117 H 0.60293 0.68929 0.04726 0.0
H1118 H 0.59665 0.64971 0.03487 0.0
H1119 H 0.50579 0.59621 0.04931 0.0
H1120 H 0.47909 0.5825 0.03575 0.0
H1121 H 0.4899 0.61289 0.0453 0.0
H1122 H 0.49336 0.63102 0.01997 0.0
H1123 H 0.48254 0.6007 0.01034 0.0
H1124 H 0.5116 0.6267 0.00668 0.0
H1125 H 0.58134 0.60619 0.02279 0.0
H1126 H 0.55842 0.56329 0.01007 0.0
H1127 H 0.48941 0.56294 0.0125 0.0
C1128 C 0.53961 0.65736 0.0414 0.0
C1129 C 0.56374 0.67713 0.04614 0.0
C1130 C 0.58432 0.6743 0.04365 0.0
C1131 C 0.58091 0.6519 0.0367 0.0
C1132 C 0.55683 0.6327 0.03218 0.0
C1133 C 0.53655 0.63531 0.03431 0.0
C1134 C 0.51268 0.6122 0.02799 0.0
C1135 C 0.49588 0.60025 0.04032 0.0
C1136 C 0.49926 0.61801 0.0155 0.0
C1137 C 0.52267 0.59618 0.02196 0.0
C1138 C 0.54814 0.60818 0.02465 0.0
C1139 C 0.56142 0.59671 0.0205 0.0
C1140 C 0.54829 0.5724 0.01332 0.0
C1141 C 0.52228 0.56009 0.01019 0.0
C1142 C 0.50936 0.57214 0.01458 0.0
H1143 H 0.84912 0.32424 0.96698 0.0
H1144 H 0.89929 0.31451 0.93985 0.0
H1145 H 0.93393 0.35418 0.95184 0.0
H1146 H 0.87699 0.39014 0.96427 0.0
H1147 H 0.87192 0.39692 0.98296 0.0
H1148 H 0.85116 0.36703 0.97279 0.0
H1149 H 0.85916 0.34528 0.99411 0.0
H1150 H 0.87999 0.3751 0.00432 0.0
H1151 H 0.89045 0.35345 1.00011 0.0
H1152 H 0.96348 0.39465 0.96718 0.0
H1153 H 0.98512 0.43415 0.98368 0.0
H1154 H 0.91516 0.41939 0.9989 0.0
C1155 C 0.86728 0.33044 0.96339 0.0
C1156 C 0.87131 0.31584 0.95253 0.0
C1157 C 0.89562 0.3248 0.94841 0.0
C1158 C 0.91547 0.3475 0.95506 0.0
C1159 C 0.91077 0.36131 0.96569 0.0
C1160 C 0.88724 0.35325 0.96972 0.0
C1161 C 0.88704 0.37203 0.98108 0.0
C1162 C 0.87082 0.38213 0.9749 0.0
C1163 C 0.87867 0.36079 0.99577 0.0
C1164 C 0.91417 0.39183 0.98286 0.0
C1165 C 0.92758 0.3852 0.97397 0.0
C1166 C 0.95312 0.40019 0.97405 0.0
C1167 C 0.96523 0.42262 0.98339 0.0
C1168 C 0.95173 0.43 0.99232 0.0
C1169 C 0.9259 0.41434 0.99205 0.0
H1170 H 0.66775 0.54043 0.9593 0.0
H1171 H 0.63337 0.4706 0.93091 0.0
H1172 H 0.59473 0.45646 0.94289 0.0
H1173 H 0.63884 0.51429 0.99248 0.0
H1174 H 0.63529 0.54041 0.99826 0.0
H1175 H 0.66044 0.54484 0.98771 0.0
H1176 H 0.64621 0.56462 0.96794 0.0
H1177 H 0.6211 0.56032 0.97845 0.0
H1178 H 0.61485 0.54758 0.95923 0.0
H1179 H 0.55929 0.45109 0.95667 0.0
H1180 H 0.52956 0.45403 0.97215 0.0
H1181 H 0.58733 0.52652 0.99259 0.0
C1182 C 0.65206 0.52217 0.95563 0.0
C1183 C 0.65344 0.50657 0.94418 0.0
C1184 C 0.63267 0.48271 0.93975 0.0
C1185 C 0.61069 0.47457 0.94645 0.0
C1186 C 0.60991 0.49041 0.95769 0.0
C1187 C 0.63007 0.51363 0.96235 0.0
C1188 C 0.62427 0.52705 0.9746 0.0
C1189 C 0.64069 0.53193 0.98912 0.0
C1190 C 0.62675 0.55132 0.96976 0.0
C1191 C 0.59754 0.5079 0.97594 0.0
C1192 C 0.58964 0.48694 0.96604 0.0
C1193 C 0.56534 0.46726 0.96458 0.0
C1194 C 0.54859 0.46914 0.97339 0.0
C1195 C 0.55628 0.49041 0.98362 0.0
C1196 C 0.58115 0.50988 0.98504 0.0
H1197 H 0.47733 0.13148 0.96896 0.0
H1198 H 0.39938 0.07946 0.95638 0.0
H1199 H 0.40383 0.04614 0.96707 0.0
H1200 H 0.49926 0.08938 0.96136 0.0
H1201 H 0.52238 0.10202 0.97715 0.0
H1202 H 0.51292 0.12159 0.96855 0.0
H1203 H 0.50177 0.13276 0.99395 0.0
H1204 H 0.51127 0.11326 0.00262 0.0
H1205 H 0.48058 0.10817 0.00412 0.0
H1206 H 0.41755 0.01812 0.97799 0.0
H1207 H 0.43869 0.9984 0.99025 0.0
H1208 H 0.50706 0.06949 0.99671 0.0
C1209 C 0.46123 0.11306 0.96849 0.0
C1210 C 0.43803 0.1079 0.96184 0.0
C1211 C 0.41726 0.08372 0.96153 0.0
C1212 C 0.41965 0.06471 0.96749 0.0
C1213 C 0.44287 0.07036 0.97387 0.0
C1214 C 0.46322 0.09402 0.97457 0.0
C1215 C 0.48598 0.09539 0.98226 0.0
C1216 C 0.50633 0.10251 0.97169 0.0
C1217 C 0.49545 0.11347 0.99659 0.0
C1218 C 0.47535 0.06875 0.98568 0.0
C1219 C 0.4505 0.05452 0.98064 0.0
C1220 C 0.43693 0.02914 0.98212 0.0
C1221 C 0.44906 0.0181 0.98905 0.0
C1222 C 0.47436 0.03253 0.99452 0.0
C1223 C 0.4876 0.05812 0.99279 0.0
H1224 H 0.67106 0.12841 0.96459 0.0
H1225 H 0.64152 0.10039 0.91842 0.0
H1226 H 0.602 0.06966 0.92655 0.0
H1227 H 0.64131 0.06754 0.97847 0.0
H1228 H 0.63528 0.07848 0.99576 0.0
H1229 H 0.66152 0.09919 0.98652 0.0
H1230 H 0.64588 0.13052 0.9864 0.0
H1231 H 0.61956 0.10989 0.99561 0.0
H1232 H 0.61501 0.12035 0.97822 0.0
H1233 H 0.56575 0.04287 0.93899 0.0
H1234 H 0.53441 0.0189 0.95528 0.0
H1235 H 0.58645 0.06115 0.99417 0.0
C1236 C 0.65637 0.1157 0.95618 0.0
C1237 C 0.65947 0.11731 0.94079 0.0
C1238 C 0.6396 0.10025 0.93023 0.0
C1239 C 0.61705 0.08248 0.93474 0.0
C1240 C 0.61458 0.08161 0.94989 0.0
C1241 C 0.63365 0.0975 0.96051 0.0
C1242 C 0.62585 0.09198 0.9761 0.0
C1243 C 0.64195 0.08381 0.98472 0.0
C1244 C 0.62662 0.11453 0.98458 0.0
C1245 C 0.5994 0.07055 0.97249 0.0
C1246 C 0.59346 0.06519 0.95726 0.0
C1247 C 0.57019 0.04678 0.95094 0.0
C1248 C 0.55243 0.03333 0.96039 0.0
C1249 C 0.55783 0.0381 0.9761 0.0
C1250 C 0.58178 0.05696 0.98224 0.0
H1251 H 0.86725 0.51913 0.9379 0.0
H1252 H 0.8733 0.57793 0.96938 0.0
H1253 H 0.90456 0.57498 0.98537 0.0
H1254 H 0.87377 0.48264 0.96376 0.0
H1255 H 0.89264 0.47445 0.95319 0.0
H1256 H 0.87119 0.4815 0.94376 0.0
H1257 H 0.90678 0.51559 0.93097 0.0
H1258 H 0.92834 0.5085 0.94028 0.0
H1259 H 0.93385 0.53983 0.94221 0.0
H1260 H 0.93217 0.56348 0.99896 0.0
H1261 H 0.95799 0.5468 0.00837 0.0
H1262 H 0.93724 0.4979 0.96735 0.0
C1263 C 0.87547 0.53176 0.94799 0.0
C1264 C 0.86743 0.54851 0.95245 0.0
C1265 C 0.87857 0.56446 0.96587 0.0
C1266 C 0.89654 0.5631 0.97499 0.0
C1267 C 0.90358 0.54604 0.97044 0.0
C1268 C 0.89377 0.53094 0.95715 0.0
C1269 C 0.90462 0.51413 0.95498 0.0
C1270 C 0.88434 0.48655 0.95386 0.0
C1271 C 0.91927 0.51987 0.9413 0.0
C1272 C 0.92163 0.52183 0.96928 0.0
C1273 C 0.92058 0.54018 0.97804 0.0
C1274 C 0.93345 0.54937 0.99213 0.0
C1275 C 0.94792 0.53966 0.99741 0.0
C1276 C 0.94965 0.52117 0.98855 0.0
C1277 C 0.93645 0.51226 0.97426 0.0
H1278 H 0.47761 0.32924 0.96535 0.0
H1279 H 0.3979 0.29623 0.96247 0.0
H1280 H 0.40307 0.33491 0.97547 0.0
H1281 H 0.49021 0.36022 1.00178 0.0
H1282 H 0.51837 0.38731 0.99805 0.0
H1283 H 0.50838 0.35765 0.98778 0.0
H1284 H 0.5095 0.37667 0.96292 0.0
H1285 H 0.51972 0.40639 0.97321 0.0
H1286 H 0.49242 0.39253 0.96011 0.0
H1287 H 0.41715 0.37763 0.98836 0.0
H1288 H 0.43906 0.4198 1.00212 0.0
H1289 H 0.50929 0.42354 0.99778 0.0
C1290 C 0.46127 0.33028 0.96734 0.0
C1291 C 0.43735 0.30987 0.96287 0.0
C1292 C 0.41637 0.31168 0.96589 0.0
C1293 C 0.41913 0.33358 0.97316 0.0
C1294 C 0.44299 0.35339 0.97742 0.0
C1295 C 0.4637 0.35186 0.97472 0.0
C1296 C 0.48724 0.37534 0.98103 0.0
C1297 C 0.5019 0.36979 0.99286 0.0
C1298 C 0.50315 0.3885 0.96857 0.0
C1299 C 0.47656 0.39017 0.9879 0.0
C1300 C 0.45103 0.37741 0.98546 0.0
C1301 C 0.43712 0.3877 0.99043 0.0
C1302 C 0.44966 0.41158 0.99821 0.0
C1303 C 0.47572 0.42455 1.00115 0.0
C1304 C 0.48929 0.41374 0.99588 0.0
H1305 H 0.13955 0.67731 0.0417 0.0
H1306 H 0.12938 0.64888 0.08509 0.0
H1307 H 0.09448 0.60954 0.07374 0.0
H1308 H 0.07687 0.64511 0.02572 0.0
H1309 H 0.08382 0.63767 0.00771 0.0
H1310 H 0.1065 0.66524 0.01932 0.0
H1311 H 0.13844 0.65057 0.01787 0.0
H1312 H 0.11597 0.62311 0.00612 0.0
H1313 H 0.13048 0.62022 0.02304 0.0
H1314 H 0.05949 0.57333 0.05792 0.0
H1315 H 0.03172 0.54032 0.03807 0.0
H1316 H 0.06979 0.58871 0.00465 0.0
C1317 C 0.13048 0.66303 0.04899 0.0
C1318 C 0.13739 0.66728 0.06459 0.0
C1319 C 0.12423 0.64732 0.07332 0.0
C1320 C 0.10433 0.62449 0.06693 0.0
C1321 C 0.0981 0.62126 0.05166 0.0
C1322 C 0.11121 0.63969 0.04273 0.0
C1323 C 0.10225 0.63051 0.02642 0.0
C1324 C 0.09174 0.64553 0.01938 0.0
C1325 C 0.12302 0.63114 0.01786 0.0
C1326 C 0.082 0.60405 0.02763 0.0
C1327 C 0.0795 0.59937 0.04233 0.0
C1328 C 0.06137 0.57665 0.04635 0.0
C1329 C 0.04565 0.55804 0.03502 0.0
C1330 C 0.04882 0.56195 0.01991 0.0
C1331 C 0.06715 0.58528 0.01617 0.0
H1332 H 0.3242 0.43231 0.04807 0.0
H1333 H 0.35669 0.49339 0.08344 0.0
H1334 H 0.39695 0.51007 0.07338 0.0
H1335 H 0.37631 0.42399 0.04615 0.0
H1336 H 0.3723 0.41775 0.02616 0.0
H1337 H 0.34592 0.41029 0.03623 0.0
H1338 H 0.3351 0.43717 0.02019 0.0
H1339 H 0.36151 0.44478 0.0101 0.0
H1340 H 0.35805 0.46926 0.01918 0.0
H1341 H 0.43389 0.51961 0.0601 0.0
H1342 H 0.46517 0.52183 0.044 0.0
H1343 H 0.40856 0.45624 0.01623 0.0
C1344 C 0.33968 0.44933 0.05365 0.0
C1345 C 0.33718 0.46133 0.06669 0.0
C1346 C 0.35812 0.48343 0.07368 0.0
C1347 C 0.38107 0.49324 0.06796 0.0
C1348 C 0.38282 0.48096 0.05512 0.0
C1349 C 0.36271 0.45957 0.04799 0.0
C1350 C 0.36968 0.45008 0.03433 0.0
C1351 C 0.36583 0.42398 0.03581 0.0
C1352 C 0.35522 0.45035 0.02011 0.0
C1353 C 0.3969 0.46939 0.03498 0.0
C1354 C 0.40407 0.48698 0.04711 0.0
C1355 C 0.42847 0.5061 0.05048 0.0
C1356 C 0.4461 0.50717 0.04128 0.0
C1357 C 0.43922 0.48931 0.02881 0.0
C1358 C 0.41423 0.47037 0.02554 0.0
H1359 H 0.51908 0.8507 0.03593 0.0
H1360 H 0.59824 0.90201 0.04232 0.0
H1361 H 0.59246 0.93273 0.02929 0.0
H1362 H 0.50947 0.86509 0.99902 0.0
H1363 H 0.47991 0.86207 1.00184 0.0
H1364 H 0.49034 0.84435 0.0118 0.0
H1365 H 0.48477 0.86271 0.03682 0.0
H1366 H 0.47436 0.8805 0.02693 0.0
H1367 H 0.50014 0.89599 0.04113 0.0
H1368 H 0.57771 0.9585 0.01675 0.0
H1369 H 0.55538 0.97629 0.00368 0.0
H1370 H 0.48618 0.90716 0.00419 0.0
C1371 C 0.53516 0.86843 0.03458 0.0
C1372 C 0.5591 0.87412 0.04013 0.0
C1373 C 0.57978 0.89733 0.03804 0.0
C1374 C 0.57666 0.91488 0.03074 0.0
C1375 C 0.55277 0.90875 0.02546 0.0
C1376 C 0.5324 0.88599 0.02714 0.0
C1377 C 0.50879 0.88383 0.02017 0.0
C1378 C 0.49641 0.86257 0.00745 0.0
C1379 C 0.49097 0.88057 0.03197 0.0
C1380 C 0.51904 0.90896 0.01434 0.0
C1381 C 0.54441 0.92317 0.01766 0.0
C1382 C 0.55789 0.94745 0.01394 0.0
C1383 C 0.54509 0.9574 0.00656 0.0
C1384 C 0.5192 0.94292 0.00281 0.0
C1385 C 0.50606 0.91843 0.00673 0.0
H1386 H 0.99126 0.21004 0.37379 0.0
H1387 H 0.01526 0.244 0.41944 0.0
H1388 H 0.0534 0.27799 0.41137 0.0
H1389 H 0.0505 0.22338 0.36396 0.0
H1390 H 0.04573 0.22972 0.34528 0.0
H1391 H 0.01968 0.20872 0.35451 0.0
H1392 H 0.99915 0.23523 0.34999 0.0
H1393 H 0.02522 0.25638 0.34079 0.0
H1394 H 0.01587 0.26797 0.35639 0.0
H1395 H 0.09035 0.30639 0.3988 0.0
H1396 H 0.12308 0.32811 0.38236 0.0
H1397 H 0.07494 0.27698 0.34459 0.0
C1398 C 0.00451 0.22468 0.38207 0.0
C1399 C 1.00016 0.22439 0.39726 0.0
C1400 C 0.01794 0.24399 0.40773 0.0
C1401 C 0.03973 0.26334 0.40326 0.0
C1402 C 0.04347 0.26301 0.38825 0.0
C1403 C 0.02631 0.24429 0.37778 0.0
C1404 C 0.03518 0.2481 0.36239 0.0
C1405 C 0.03794 0.22618 0.35617 0.0
C1406 C 0.01782 0.25217 0.35176 0.0
C1407 C 0.06015 0.27167 0.36589 0.0
C1408 C 0.06455 0.2799 0.38089 0.0
C1409 C 0.08696 0.30035 0.387 0.0
C1410 C 0.10545 0.31256 0.37758 0.0
C1411 C 0.10139 0.30448 0.36218 0.0
C1412 C 0.07829 0.28396 0.35625 0.0
H1413 H 0.78851 0.80987 0.40996 0.0
H1414 H 0.81852 0.79127 0.37251 0.0
H1415 H 0.78736 0.79259 0.3552 0.0
H1416 H 0.72396 0.7756 0.39495 0.0
H1417 H 0.71714 0.79896 0.40197 0.0
H1418 H 0.74104 0.79567 0.41171 0.0
H1419 H 0.77261 0.84198 0.41003 0.0
H1420 H 0.74887 0.84558 0.40038 0.0
H1421 H 0.77711 0.85385 0.39212 0.0
H1422 H 0.75301 0.79524 0.34201 0.0
H1423 H 0.71947 0.80255 0.33334 0.0
H1424 H 0.71269 0.82205 0.37906 0.0
C1425 C 0.78833 0.80598 0.39811 0.0
C1426 C 0.80575 0.80035 0.39249 0.0
C1427 C 0.8053 0.79564 0.37695 0.0
C1428 C 0.78764 0.79626 0.36707 0.0
C1429 C 0.77074 0.80192 0.3729 0.0
C1430 C 0.77105 0.80699 0.38803 0.0
C1431 C 0.75142 0.81368 0.39121 0.0
C1432 C 0.73226 0.79485 0.40051 0.0
C1433 C 0.76322 0.84036 0.39888 0.0
C1434 C 0.74014 0.81156 0.37551 0.0
C1435 C 0.75139 0.80443 0.36517 0.0
C1436 C 0.74408 0.8009 0.34998 0.0
C1437 C 0.72493 0.80502 0.34517 0.0
C1438 C 0.71344 0.81291 0.35549 0.0
C1439 C 0.72116 0.81612 0.37088 0.0
H1440 H 0.20101 0.01618 0.36548 0.0
H1441 H 0.26325 0.02893 0.39603 0.0
H1442 H 0.25788 0.98875 0.38613 0.0
H1443 H 0.16383 0.95183 0.37032 0.0
H1444 H 0.15026 0.94275 0.35126 0.0
H1445 H 0.16034 0.97362 0.35974 0.0
H1446 H 0.1882 0.99238 0.33857 0.0
H1447 H 0.17823 0.96155 0.33004 0.0
H1448 H 0.21073 0.98345 0.3347 0.0
H1449 H 0.2455 0.94696 0.37331 0.0
H1450 H 0.22537 0.90521 0.35943 0.0
H1451 H 0.16889 0.91779 0.3389 0.0
C1452 C 0.21351 0.0106 0.37019 0.0
C1453 C 0.23276 0.02608 0.38149 0.0
C1454 C 0.24877 0.01791 0.38712 0.0
C1455 C 0.24576 0.99496 0.38165 0.0
C1456 C 0.2265 0.98018 0.37065 0.0
C1457 C 0.21051 0.98755 0.36506 0.0
C1458 C 0.19047 0.96755 0.35384 0.0
C1459 C 0.1647 0.9584 0.35911 0.0
C1460 C 0.19201 0.97679 0.33837 0.0
C1461 C 0.19761 0.9477 0.35408 0.0
C1462 C 0.21863 0.95552 0.36373 0.0
C1463 C 0.22895 0.94056 0.3658 0.0
C1464 C 0.21733 0.91686 0.35791 0.0
C1465 C 0.1954 0.9082 0.34828 0.0
C1466 C 0.18556 0.92392 0.34627 0.0
H1467 H 0.55385 0.66828 0.28853 0.0
H1468 H 0.49278 0.64359 0.316 0.0
H1469 H 0.51666 0.6821 0.33283 0.0
H1470 H 0.60256 0.69656 0.31999 0.0
H1471 H 0.62332 0.72186 0.3101 0.0
H1472 H 0.60158 0.69215 0.30003 0.0
H1473 H 0.58429 0.71359 0.28355 0.0
H1474 H 0.60587 0.7433 0.29364 0.0
H1475 H 0.5732 0.73246 0.29223 0.0
H1476 H 0.54523 0.72429 0.34559 0.0
H1477 H 0.57857 0.76668 0.35479 0.0
H1478 H 0.62363 0.76284 0.32125 0.0
C1479 C 0.54559 0.67072 0.2982 0.0
C1480 C 0.52109 0.65287 0.30068 0.0
C1481 C 0.51111 0.65713 0.31348 0.0
C1482 C 0.52464 0.6789 0.32325 0.0
C1483 C 0.54842 0.69618 0.32032 0.0
C1484 C 0.55904 0.69226 0.30826 0.0
C1485 C 0.58509 0.714 0.30781 0.0
C1486 C 0.60427 0.70564 0.30959 0.0
C1487 C 0.58722 0.72657 0.29345 0.0
C1488 C 0.58717 0.73085 0.32135 0.0
C1489 C 0.56567 0.72019 0.32829 0.0
C1490 C 0.56231 0.73269 0.3404 0.0
C1491 C 0.58135 0.75679 0.34552 0.0
C1492 C 0.60368 0.76809 0.33872 0.0
C1493 C 0.60677 0.75472 0.32664 0.0
H1494 H 0.30323 0.84675 0.27102 0.0
H1495 H 0.36584 0.9088 0.29766 0.0
H1496 H 0.33872 0.90673 0.317 0.0
H1497 H 0.25925 0.8662 0.2795 0.0
H1498 H 0.23384 0.83497 0.27973 0.0
H1499 H 0.25835 0.84079 0.26828 0.0
H1500 H 0.2657 0.80874 0.28114 0.0
H1501 H 0.24134 0.80301 0.29272 0.0
H1502 H 0.27189 0.81243 0.30112 0.0
H1503 H 0.30501 0.89724 0.33374 0.0
H1504 H 0.2663 0.88395 0.34549 0.0
H1505 H 0.22503 0.82961 0.30737 0.0
C1506 C 0.31114 0.85984 0.28095 0.0
C1507 C 0.33661 0.87791 0.28292 0.0
C1508 C 0.34634 0.89492 0.29595 0.0
C1509 C 0.33112 0.89379 0.30701 0.0
C1510 C 0.3061 0.87572 0.30479 0.0
C1511 C 0.29607 0.85928 0.29199 0.0
C1512 C 0.26836 0.84244 0.29209 0.0
C1513 C 0.25412 0.84634 0.27914 0.0
C1514 C 0.26143 0.81503 0.29175 0.0
C1515 C 0.26447 0.85191 0.30696 0.0
C1516 C 0.28651 0.8709 0.31419 0.0
C1517 C 0.28761 0.88244 0.32815 0.0
C1518 C 0.26554 0.87468 0.33479 0.0
C1519 C 0.24261 0.85578 0.32738 0.0
C1520 C 0.24223 0.84416 0.31333 0.0
H1521 H 0.11283 0.44272 0.29618 0.0
H1522 H 0.18546 0.4944 0.28355 0.0
H1523 H 0.20286 0.4719 0.29624 0.0
H1524 H 0.13313 0.43711 0.3324 0.0
H1525 H 0.11098 0.40442 0.33205 0.0
H1526 H 0.1038 0.42365 0.32122 0.0
H1527 H 0.09516 0.39397 0.2977 0.0
H1528 H 0.10303 0.37473 0.30807 0.0
H1529 H 0.11883 0.38782 0.29208 0.0
H1530 H 0.21308 0.44604 0.31169 0.0
H1531 H 0.21511 0.41679 0.32805 0.0
H1532 H 0.13592 0.38116 0.33046 0.0
C1533 C 0.13237 0.44922 0.29604 0.0
C1534 C 0.14777 0.47025 0.2888 0.0
C1535 C 0.17323 0.4781 0.2888 0.0
C1536 C 0.18332 0.46553 0.29605 0.0
C1537 C 0.1677 0.44504 0.30318 0.0
C1538 C 0.14275 0.43678 0.30316 0.0
C1539 C 0.13021 0.41455 0.31196 0.0
C1540 C 0.11887 0.42029 0.32519 0.0
C1541 C 0.11066 0.39139 0.30185 0.0
C1542 C 0.15214 0.41197 0.31716 0.0
C1543 C 0.17357 0.42977 0.31195 0.0
C1544 C 0.19641 0.43188 0.31574 0.0
C1545 C 0.19741 0.41531 0.32511 0.0
C1546 C 0.17567 0.39681 0.33046 0.0
C1547 C 0.15275 0.39506 0.32639 0.0
H1548 H 0.3398 0.45724 0.30029 0.0
H1549 H 0.31513 0.42496 0.25428 0.0
H1550 H 0.27561 0.39288 0.26192 0.0
H1551 H 0.31183 0.39777 0.31634 0.0
H1552 H 0.30364 0.40962 0.33238 0.0
H1553 H 0.33032 0.43015 0.32341 0.0
H1554 H 0.31262 0.45941 0.32006 0.0
H1555 H 0.28591 0.43898 0.32902 0.0
H1556 H 0.28202 0.44701 0.31068 0.0
H1557 H 0.23763 0.36611 0.27409 0.0
H1558 H 0.2045 0.34479 0.29037 0.0
H1559 H 0.25442 0.39163 0.32884 0.0
C1560 C 0.32631 0.44322 0.29182 0.0
C1561 C 0.33069 0.444 0.2766 0.0
C1562 C 0.31219 0.42533 0.26594 0.0
C1563 C 0.28969 0.40681 0.27019 0.0
C1564 C 0.28593 0.40681 0.28519 0.0
C1565 C 0.30378 0.42433 0.29589 0.0
C1566 C 0.29484 0.42015 0.31126 0.0
C1567 C 0.31113 0.41406 0.32145 0.0
C1568 C 0.29379 0.44273 0.31815 0.0
C1569 C 0.26909 0.39771 0.30749 0.0
C1570 C 0.26433 0.39045 0.29235 0.0
C1571 C 0.24129 0.37131 0.28599 0.0
C1572 C 0.22259 0.35933 0.29532 0.0
C1573 C 0.22707 0.36623 0.31087 0.0
C1574 C 0.25073 0.38552 0.31704 0.0
H1575 H 0.52641 0.85128 0.27138 0.0
H1576 H 0.53809 0.91671 0.2988 0.0
H1577 H 0.56866 0.91417 0.31566 0.0
H1578 H 0.53226 0.81841 0.30036 0.0
H1579 H 0.54925 0.80682 0.29052 0.0
H1580 H 0.52821 0.81359 0.28031 0.0
H1581 H 0.56348 0.84326 0.26539 0.0
H1582 H 0.5846 0.83643 0.27548 0.0
H1583 H 0.59176 0.86818 0.27523 0.0
H1584 H 0.59621 0.9035 0.33042 0.0
H1585 H 0.62197 0.88747 0.34094 0.0
H1586 H 0.59519 0.83077 0.30327 0.0
C1587 C 0.53563 0.86533 0.28078 0.0
C1588 C 0.52931 0.88394 0.28382 0.0
C1589 C 0.54187 0.90179 0.29638 0.0
C1590 C 0.5595 0.90067 0.306 0.0
C1591 C 0.56484 0.88185 0.30285 0.0
C1592 C 0.55363 0.86473 0.29043 0.0
C1593 C 0.56308 0.84656 0.2896 0.0
C1594 C 0.54194 0.81976 0.29024 0.0
C1595 C 0.57653 0.84874 0.2756 0.0
C1596 C 0.58102 0.85596 0.30362 0.0
C1597 C 0.58161 0.87626 0.31111 0.0
C1598 C 0.59609 0.88775 0.32459 0.0
C1599 C 0.61056 0.87841 0.33052 0.0
C1600 C 0.61066 0.8579 0.32294 0.0
C1601 C 0.59565 0.84658 0.30929 0.0
H1602 H 0.16292 0.67632 0.31075 0.0
H1603 H 0.08401 0.64339 0.29921 0.0
H1604 H 0.08587 0.68119 0.31115 0.0
H1605 H 0.1651 0.70674 0.34698 0.0
H1606 H 0.19481 0.73364 0.34538 0.0
H1607 H 0.18697 0.70379 0.3362 0.0
H1608 H 0.19614 0.72268 0.31103 0.0
H1609 H 0.20383 0.75253 0.32011 0.0
H1610 H 0.18031 0.73829 0.30454 0.0
H1611 H 0.09717 0.72396 0.32253 0.0
H1612 H 0.11625 0.76686 0.335 0.0
H1613 H 0.18719 0.77057 0.34044 0.0
C1614 C 0.14604 0.67706 0.31086 0.0
C1615 C 0.12331 0.65707 0.3041 0.0
C1616 C 0.10153 0.65851 0.30447 0.0
C1617 C 0.10246 0.67991 0.31113 0.0
C1618 C 0.12524 0.69948 0.31753 0.0
C1619 C 0.14657 0.69809 0.31765 0.0
C1620 C 0.16866 0.7216 0.32536 0.0
C1621 C 0.17952 0.71611 0.33931 0.0
C1622 C 0.18839 0.73453 0.31462 0.0
C1623 C 0.1565 0.73656 0.32942 0.0
C1624 C 0.1315 0.7236 0.32467 0.0
C1625 C 0.11665 0.73414 0.3265 0.0
C1626 C 0.12761 0.75848 0.33353 0.0
C1627 C 0.15304 0.77173 0.3388 0.0
C1628 C 0.1676 0.76062 0.33671 0.0
H1629 H 0.81986 0.99152 0.37786 0.0
H1630 H 0.77806 0.0297 0.38001 0.0
H1631 H 0.74176 0.99288 0.36634 0.0
H1632 H 0.79432 0.96042 0.34051 0.0
H1633 H 0.79364 0.93217 0.34453 0.0
H1634 H 0.81649 0.96148 0.35455 0.0
H1635 H 0.80193 0.94376 0.37954 0.0
H1636 H 0.77908 0.91441 0.36958 0.0
H1637 H 0.76979 0.93055 0.38256 0.0
H1638 H 0.70943 0.95153 0.35393 0.0
H1639 H 0.68348 0.9087 0.34176 0.0
H1640 H 0.74637 0.89749 0.34587 0.0
C1641 C 0.80304 0.99206 0.37542 0.0
C1642 C 0.80174 0.01347 0.37995 0.0
C1643 C 0.7795 0.01359 0.3765 0.0
C1644 C 0.75877 0.99274 0.3688 0.0
C1645 C 0.76062 0.97196 0.36448 0.0
C1646 C 0.7822 0.97146 0.36752 0.0
C1647 C 0.77918 0.94675 0.36141 0.0
C1648 C 0.79697 0.95043 0.34954 0.0
C1649 C 0.7827 0.93306 0.37403 0.0
C1650 C 0.75249 0.93344 0.35456 0.0
C1651 C 0.74214 0.94831 0.35663 0.0
C1652 C 0.7174 0.93983 0.35205 0.0
C1653 C 0.70282 0.91549 0.34517 0.0
C1654 C 0.71307 0.90004 0.3427 0.0
C1655 C 0.73827 0.90917 0.34736 0.0
H1656 H 0.02728 0.80841 0.41147 0.0
H1657 H 0.9789 0.80422 0.37367 0.0
H1658 H 0.01119 0.81175 0.35725 0.0
H1659 H 0.08409 0.85873 0.39944 0.0
H1660 H 0.10319 0.84654 0.40596 0.0
H1661 H 0.07636 0.84076 0.41514 0.0
H1662 H 0.0596 0.79347 0.411 0.0
H1663 H 0.08636 0.79906 0.4018 0.0
H1664 H 0.05578 0.77889 0.39244 0.0
H1665 H 0.0472 0.81773 0.34453 0.0
H1666 H 0.08659 0.8244 0.33631 0.0
H1667 H 0.11376 0.82745 0.38207 0.0
C1668 C 0.02356 0.80932 0.39977 0.0
C1669 C 1.00018 0.80519 0.39388 0.0
C1670 C 0.99622 0.80652 0.37846 0.0
C1671 C 0.01457 0.81104 0.36901 0.0
C1672 C 0.0371 0.81458 0.37509 0.0
C1673 C 0.0419 0.81408 0.39011 0.0
C1674 C 0.06795 0.81862 0.39362 0.0
C1675 C 0.08383 0.8426 0.40416 0.0
C1676 C 0.06737 0.79616 0.40009 0.0
C1677 C 0.07677 0.82146 0.37817 0.0
C1678 C 0.05855 0.81895 0.3677 0.0
C1679 C 0.06173 0.81993 0.35262 0.0
C1680 C 0.08416 0.82363 0.34805 0.0
C1681 C 0.10331 0.82652 0.35852 0.0
C1682 C 0.09956 0.82554 0.37382 0.0
H1683 H 0.22316 0.23203 0.37395 0.0
H1684 H 0.15146 0.17146 0.3821 0.0
H1685 H 0.13103 0.19105 0.369 0.0
H1686 H 0.20765 0.28041 0.37952 0.0
H1687 H 0.22569 0.29792 0.36527 0.0
H1688 H 0.23471 0.2791 0.3752 0.0
H1689 H 0.2336 0.25562 0.35022 0.0
H1690 H 0.22461 0.27437 0.34021 0.0
H1691 H 0.2058 0.24094 0.33749 0.0
H1692 H 0.11846 0.21661 0.35466 0.0
H1693 H 0.11454 0.24757 0.34084 0.0
H1694 H 0.19446 0.29195 0.34239 0.0
C1695 C 0.20316 0.22289 0.3729 0.0
C1696 C 0.1888 0.20024 0.37895 0.0
C1697 C 0.16272 0.18892 0.37758 0.0
C1698 C 0.15099 0.19984 0.37013 0.0
C1699 C 0.16566 0.22217 0.36427 0.0
C1700 C 0.19117 0.23369 0.36566 0.0
C1701 C 0.20262 0.25788 0.35861 0.0
C1702 C 0.21861 0.28014 0.37035 0.0
C1703 C 0.21753 0.25714 0.34588 0.0
C1704 C 0.17953 0.2579 0.3528 0.0
C1705 C 0.15842 0.23715 0.3562 0.0
C1706 C 0.13485 0.23297 0.35195 0.0
C1707 C 0.13281 0.25058 0.34407 0.0
C1708 C 0.15421 0.27207 0.34062 0.0
C1709 C 0.17783 0.2757 0.34499 0.0
H1710 H 0.68889 0.5405 0.73685 0.0
H1711 H 0.62806 0.54177 0.71247 0.0
H1712 H 0.65677 0.56924 0.69544 0.0
H1713 H 0.73504 0.60544 0.7339 0.0
H1714 H 0.75971 0.59885 0.73204 0.0
H1715 H 0.73442 0.57983 0.74245 0.0
H1716 H 0.72609 0.54054 0.7258 0.0
H1717 H 0.75121 0.55948 0.71528 0.0
H1718 H 0.72069 0.53915 0.7059 0.0
H1719 H 0.69187 0.5946 0.68015 0.0
H1720 H 0.7313 0.61916 0.66926 0.0
H1721 H 0.76935 0.60246 0.70424 0.0
C1722 C 0.68169 0.54672 0.72798 0.0
C1723 C 0.65626 0.53904 0.72596 0.0
C1724 C 0.64752 0.54765 0.71429 0.0
C1725 C 0.66365 0.56311 0.70452 0.0
C1726 C 0.68855 0.57007 0.70668 0.0
C1727 C 0.69761 0.56247 0.71827 0.0
C1728 C 0.72521 0.5728 0.71825 0.0
C1729 C 0.73943 0.59027 0.7325 0.0
C1730 C 0.73113 0.55173 0.71618 0.0
C1731 C 0.73018 0.58707 0.70471 0.0
C1732 C 0.7088 0.58517 0.69813 0.0
C1733 C 0.70876 0.59636 0.68528 0.0
C1734 C 0.73122 0.61016 0.67912 0.0
C1735 C 0.75344 0.6128 0.68588 0.0
C1736 C 0.75274 0.60093 0.69881 0.0
H1737 H 0.47115 0.14231 0.73092 0.0
H1738 H 0.44914 0.07085 0.70689 0.0
H1739 H 0.41583 0.07265 0.69205 0.0
H1740 H 0.40905 0.13183 0.73264 0.0
H1741 H 0.41783 0.16356 0.73029 0.0
H1742 H 0.43992 0.15667 0.73905 0.0
H1743 H 0.4705 0.17955 0.71978 0.0
H1744 H 0.44853 0.18656 0.71099 0.0
H1745 H 0.46048 0.17039 0.7002 0.0
H1746 H 0.38602 0.08302 0.67918 0.0
H1747 H 0.36073 0.10048 0.66984 0.0
H1748 H 0.4012 0.16447 0.7029 0.0
C1749 C 0.45934 0.1271 0.7225 0.0
C1750 C 0.4627 0.10644 0.72001 0.0
C1751 C 0.44673 0.08674 0.70903 0.0
C1752 C 0.42783 0.08764 0.70053 0.0
C1753 C 0.42499 0.10825 0.70326 0.0
C1754 C 0.44017 0.12755 0.71405 0.0
C1755 C 0.43302 0.14745 0.71484 0.0
C1756 C 0.42444 0.15002 0.73011 0.0
C1757 C 0.45441 0.17246 0.71123 0.0
C1758 C 0.41167 0.13647 0.70268 0.0
C1759 C 0.40738 0.11389 0.69611 0.0
C1760 C 0.38909 0.1006 0.68431 0.0
C1761 C 0.37486 0.11068 0.67906 0.0
C1762 C 0.37887 0.13374 0.68569 0.0
C1763 C 0.39747 0.14666 0.69771 0.0
H1764 H 0.88826 0.33437 0.72479 0.0
H1765 H 0.88267 0.37183 0.68726 0.0
H1766 H 0.87229 0.33483 0.67016 0.0
H1767 H 0.91413 0.2997 0.70608 0.0
H1768 H 0.89609 0.27209 0.71507 0.0
H1769 H 0.90514 0.30222 0.72438 0.0
H1770 H 0.85941 0.28771 0.72761 0.0
H1771 H 0.84968 0.25759 0.71812 0.0
H1772 H 0.83699 0.27585 0.71146 0.0
H1773 H 0.85914 0.29313 0.65738 0.0
H1774 H 0.84447 0.24884 0.6496 0.0
H1775 H 0.85899 0.23798 0.69501 0.0
C1776 C 0.88531 0.33487 0.71294 0.0
C1777 C 0.88627 0.35591 0.70731 0.0
C1778 C 0.88184 0.35579 0.69178 0.0
C1779 C 0.87608 0.33494 0.68199 0.0
C1780 C 0.87484 0.31433 0.68788 0.0
C1781 C 0.87936 0.31407 0.70298 0.0
C1782 C 0.8751 0.28882 0.70643 0.0
C1783 C 0.89904 0.29084 0.7134 0.0
C1784 C 0.85406 0.27679 0.7165 0.0
C1785 C 0.86753 0.27503 0.69092 0.0
C1786 C 0.8675 0.29014 0.6804 0.0
C1787 C 0.85953 0.28123 0.66545 0.0
C1788 C 0.85124 0.25613 0.66113 0.0
C1789 C 0.85131 0.24044 0.67169 0.0
C1790 C 0.85969 0.24998 0.68672 0.0
H1791 H 0.21785 0.00874 0.62203 0.0
H1792 H 0.15465 0.99789 0.64495 0.0
H1793 H 0.18132 0.03683 0.66098 0.0
H1794 H 0.26137 0.03243 0.65547 0.0
H1795 H 0.28681 0.05424 0.6461 0.0
H1796 H 0.26265 0.02572 0.63598 0.0
H1797 H 0.25489 0.05086 0.61675 0.0
H1798 H 0.27917 0.07931 0.62682 0.0
H1799 H 0.24862 0.07491 0.62318 0.0
H1800 H 0.21415 0.07798 0.67378 0.0
H1801 H 0.25196 0.11718 0.68373 0.0
H1802 H 0.29481 0.09913 0.65477 0.0
C1803 C 0.20957 0.01429 0.63052 0.0
C1804 C 0.18387 1.00021 0.63193 0.0
C1805 C 0.17402 0.00853 0.6432 0.0
C1806 C 0.18908 0.03058 0.65252 0.0
C1807 C 0.21415 0.04404 0.65069 0.0
C1808 C 0.22444 0.03609 0.64012 0.0
C1809 C 0.25211 0.05384 0.64075 0.0
C1810 C 0.26659 0.04077 0.64482 0.0
C1811 C 0.25909 0.06541 0.626 0.0
C1812 C 0.25564 0.07307 0.65322 0.0
C1813 C 0.23343 0.06716 0.65868 0.0
C1814 C 0.23171 0.08268 0.66972 0.0
C1815 C 0.25326 0.10489 0.6753 0.0
C1816 C 0.27625 0.11119 0.66999 0.0
C1817 C 0.27745 0.09486 0.65896 0.0
H1818 H 0.0157 0.21656 0.63104 0.0
H1819 H 0.98752 0.21139 0.58528 0.0
H1820 H 0.94698 0.20154 0.59343 0.0
H1821 H 0.95918 0.16702 0.64282 0.0
H1822 H 0.96313 0.18293 0.66097 0.0
H1823 H 0.98981 0.18883 0.65158 0.0
H1824 H 0.00478 0.23593 0.65412 0.0
H1825 H 0.97811 0.23017 0.66349 0.0
H1826 H 0.98442 0.24635 0.64705 0.0
H1827 H 0.90964 0.19152 0.60617 0.0
H1828 H 0.87771 0.18399 0.62293 0.0
H1829 H 0.92988 0.19757 0.66101 0.0
C1830 C 1.00089 0.2132 0.62278 0.0
C1831 C 0.00465 0.21468 0.60752 0.0
C1832 C 0.98501 0.21047 0.59702 0.0
C1833 C 0.96193 0.20479 0.60153 0.0
C1834 C 0.95884 0.20363 0.61663 0.0
C1835 C 0.97775 0.20787 0.62714 0.0
C1836 C 0.96954 0.20617 0.64271 0.0
C1837 C 0.97047 0.18497 0.64995 0.0
C1838 C 0.98514 0.23115 0.65241 0.0
C1839 C 0.94307 0.20028 0.63927 0.0
C1840 C 0.93732 0.19869 0.62412 0.0
C1841 C 0.91395 0.19286 0.61806 0.0
C1842 C 0.89591 0.18857 0.62772 0.0
C1843 C 0.90129 0.19033 0.64333 0.0
C1844 C 0.92528 0.19636 0.64916 0.0
H1845 H 0.83465 0.81373 0.63754 0.0
H1846 H 0.75481 0.77196 0.62723 0.0
H1847 H 0.75256 0.7386 0.6414 0.0
H1848 H 0.84398 0.76197 0.63486 0.0
H1849 H 0.86792 0.77404 0.65018 0.0
H1850 H 0.86337 0.79509 0.63952 0.0
H1851 H 0.85807 0.8159 0.66364 0.0
H1852 H 0.86261 0.79489 0.67438 0.0
H1853 H 0.8351 0.79701 0.67546 0.0
H1854 H 0.75895 0.70872 0.65515 0.0
H1855 H 0.7736 0.6846 0.66868 0.0
H1856 H 0.84894 0.74642 0.67163 0.0
C1857 C 0.81665 0.79775 0.63845 0.0
C1858 C 0.79491 0.79542 0.63115 0.0
C1859 C 0.77177 0.774 0.63246 0.0
C1860 C 0.77027 0.75502 0.64059 0.0
C1861 C 0.79203 0.75779 0.64749 0.0
C1862 C 0.81478 0.77864 0.64661 0.0
C1863 C 0.83536 0.77667 0.65488 0.0
C1864 C 0.85374 0.77696 0.64422 0.0
C1865 C 0.84856 0.79735 0.66786 0.0
C1866 C 0.82059 0.75138 0.66045 0.0
C1867 C 0.79563 0.74081 0.65597 0.0
C1868 C 0.77837 0.71692 0.65892 0.0
C1869 C 0.78685 0.70339 0.66659 0.0
C1870 C 0.81227 0.71389 0.67136 0.0
C1871 C 0.82932 0.73827 0.66839 0.0
H1872 H 0.9713 0.77864 0.60826 0.0
H1873 H 0.0232 0.81566 0.64788 0.0
H1874 H 0.99158 0.78839 0.66328 0.0
H1875 H 0.91786 0.77266 0.62566 0.0
H1876 H 0.89663 0.7428 0.61557 0.0
H1877 H 0.92359 0.76478 0.60738 0.0
H1878 H 0.93685 0.73172 0.60373 0.0
H1879 H 0.90998 0.70976 0.612 0.0
H1880 H 0.9404 0.71718 0.61954 0.0
H1881 H 0.95533 0.75679 0.67449 0.0
H1882 H 0.91507 0.72444 0.68116 0.0
H1883 H 0.88499 0.70938 0.63481 0.0
C1884 C 0.97601 0.78122 0.62017 0.0
C1885 C 1.0001 0.79912 0.62674 0.0
C1886 C 0.00529 0.80165 0.64242 0.0
C1887 C 0.98735 0.78637 0.65134 0.0
C1888 C 0.96404 0.76882 0.6445 0.0
C1889 C 0.95813 0.76631 0.62932 0.0
C1890 C 0.93133 0.74627 0.62495 0.0
C1891 C 0.91648 0.75729 0.61798 0.0
C1892 C 0.92955 0.72497 0.61443 0.0
C1893 C 0.92329 0.73788 0.64005 0.0
C1894 C 0.94256 0.75106 0.65113 0.0
C1895 C 0.94002 0.74642 0.66594 0.0
C1896 C 0.91708 0.7279 0.66961 0.0
C1897 C 0.89685 0.71438 0.65853 0.0
C1898 C 0.90006 0.71949 0.64354 0.0
H1899 H 0.20853 0.1972 0.60705 0.0
H1900 H 0.22756 0.26585 0.63375 0.0
H1901 H 0.26051 0.26344 0.64836 0.0
H1902 H 0.21849 0.16655 0.63596 0.0
H1903 H 0.2319 0.15235 0.62475 0.0
H1904 H 0.21001 0.1596 0.61615 0.0
H1905 H 0.24185 0.18572 0.59827 0.0
H1906 H 0.26386 0.17853 0.60682 0.0
H1907 H 0.27211 0.21048 0.60585 0.0
H1908 H 0.29035 0.25286 0.66074 0.0
H1909 H 0.31561 0.2352 0.66968 0.0
H1910 H 0.27862 0.17453 0.63423 0.0
C1911 C 0.21982 0.21196 0.61582 0.0
C1912 C 0.21521 0.23164 0.61927 0.0
C1913 C 0.23029 0.2503 0.63103 0.0
C1914 C 0.24924 0.24923 0.63933 0.0
C1915 C 0.25314 0.22953 0.63568 0.0
C1916 C 0.23899 0.21131 0.62414 0.0
C1917 C 0.24688 0.19199 0.62262 0.0
C1918 C 0.22555 0.16609 0.62502 0.0
C1919 C 0.25676 0.19167 0.60749 0.0
C1920 C 0.26742 0.20202 0.63526 0.0
C1921 C 0.27074 0.22371 0.64263 0.0
C1922 C 0.28806 0.23599 0.65499 0.0
C1923 C 0.30228 0.22577 0.66 0.0
C1924 C 0.29919 0.20353 0.65263 0.0
C1925 C 0.28162 0.19168 0.64002 0.0
H1926 H 0.83908 0.01919 0.62661 0.0
H1927 H 0.75889 0.97944 0.6231 0.0
H1928 H 0.76001 0.01642 0.63567 0.0
H1929 H 0.84875 0.05007 0.66269 0.0
H1930 H 0.87538 0.07861 0.65893 0.0
H1931 H 0.86821 0.04957 0.64892 0.0
H1932 H 0.86742 0.06734 0.62387 0.0
H1933 H 0.8747 0.09647 0.63384 0.0
H1934 H 0.84759 0.08014 0.62061 0.0
H1935 H 0.77001 0.05779 0.64866 0.0
H1936 H 0.78822 0.09967 0.6624 0.0
H1937 H 0.8618 0.11161 0.65817 0.0
C1938 C 0.82177 0.01839 0.62834 0.0
C1939 C 0.79888 0.99653 0.62385 0.0
C1940 C 0.77661 0.99599 0.62654 0.0
C1941 C 0.77707 0.01692 0.63358 0.0
C1942 C 0.79996 0.03817 0.63791 0.0
C1943 C 0.8219 0.03902 0.63545 0.0
C1944 C 0.84404 0.06375 0.64172 0.0
C1945 C 0.86003 0.06028 0.65379 0.0
C1946 C 0.85933 0.07775 0.62927 0.0
C1947 C 0.83113 0.07654 0.64831 0.0
C1948 C 0.80571 0.06164 0.6458 0.0
C1949 C 0.78989 0.06959 0.65072 0.0
C1950 C 0.80036 0.09334 0.65849 0.0
C1951 C 0.82634 0.10864 0.6614 0.0
C1952 C 0.84186 0.10013 0.6562 0.0
H1953 H 0.45439 0.32981 0.71595 0.0
H1954 H 0.51766 0.31916 0.7171 0.0
H1955 H 0.4933 0.28023 0.70023 0.0
H1956 H 0.40878 0.26446 0.71623 0.0
H1957 H 0.38572 0.26589 0.70421 0.0
H1958 H 0.40821 0.29306 0.7162 0.0
H1959 H 0.42148 0.31819 0.69337 0.0
H1960 H 0.39906 0.29112 0.68131 0.0
H1961 H 0.43115 0.30678 0.67785 0.0
H1962 H 0.46239 0.24315 0.68269 0.0
H1963 H 0.42615 0.20885 0.66719 0.0
H1964 H 0.3825 0.24279 0.67821 0.0
C1965 C 0.46307 0.31926 0.71259 0.0
C1966 C 0.4879 0.32745 0.71772 0.0
C1967 C 0.49861 0.31307 0.7133 0.0
C1968 C 0.48497 0.29104 0.7037 0.0
C1969 C 0.46055 0.28351 0.69877 0.0
C1970 C 0.44958 0.29701 0.70321 0.0
C1971 C 0.42279 0.28437 0.69669 0.0
C1972 C 0.40535 0.27648 0.70907 0.0
C1973 C 0.41837 0.30112 0.68671 0.0
C1974 C 0.42056 0.26196 0.68766 0.0
C1975 C 0.44256 0.26183 0.68898 0.0
C1976 C 0.44506 0.24303 0.68161 0.0
C1977 C 0.42443 0.2237 0.67278 0.0
C1978 C 0.40162 0.22326 0.67152 0.0
C1979 C 0.39976 0.24272 0.67899 0.0
H1980 H 0.66323 0.10942 0.71177 0.0
H1981 H 0.69631 0.17028 0.7473 0.0
H1982 H 0.73683 0.18557 0.73785 0.0
H1983 H 0.71401 0.09879 0.71039 0.0
H1984 H 0.71075 0.09303 0.69039 0.0
H1985 H 0.6841 0.08626 0.70004 0.0
H1986 H 0.67535 0.11453 0.68403 0.0
H1987 H 0.70195 0.12133 0.6743 0.0
H1988 H 0.69932 0.14634 0.68337 0.0
H1989 H 0.774 0.1937 0.72529 0.0
H1990 H 0.80531 0.19579 0.70935 0.0
H1991 H 0.74835 0.13173 0.68063 0.0
C1992 C 0.67887 0.12613 0.7175 0.0
C1993 C 0.6764 0.13833 0.73049 0.0
C1994 C 0.69761 0.16005 0.73762 0.0
C1995 C 0.72076 0.16908 0.73225 0.0
C1996 C 0.72252 0.1565 0.71956 0.0
C1997 C 0.70215 0.13566 0.71215 0.0
C1998 C 0.7092 0.12595 0.69858 0.0
C1999 C 0.70422 0.09944 0.69994 0.0
C2000 C 0.69565 0.12711 0.68422 0.0
C2001 C 0.73673 0.14452 0.69961 0.0
C2002 C 0.74397 0.16185 0.71188 0.0
C2003 C 0.76853 0.18039 0.71557 0.0
C2004 C 0.7862 0.18133 0.70645 0.0
C2005 C 0.77928 0.16398 0.69368 0.0
C2006 C 0.75415 0.14541 0.6902 0.0
H2007 H 0.90139 0.57971 0.71627 0.0
H2008 H 0.8575 0.50688 0.69144 0.0
H2009 H 0.83695 0.52312 0.67528 0.0
H2010 H 0.85486 0.59734 0.71505 0.0
H2011 H 0.87611 0.62931 0.7125 0.0
H2012 H 0.88696 0.61172 0.72219 0.0
H2013 H 0.92016 0.62219 0.70369 0.0
H2014 H 0.90897 0.63949 0.69393 0.0
H2015 H 0.91062 0.61448 0.684 0.0
H2016 H 0.8194 0.54629 0.66294 0.0
H2017 H 0.80788 0.57594 0.65382 0.0
H2018 H 0.86586 0.63502 0.68479 0.0
C2019 C 0.88749 0.56731 0.70739 0.0
C2020 C 0.88092 0.54208 0.70503 0.0
C2021 C 0.8628 0.5263 0.6933 0.0
C2022 C 0.85101 0.53533 0.68413 0.0
C2023 C 0.85784 0.56027 0.6867 0.0
C2024 C 0.87586 0.57617 0.6979 0.0
C2025 C 0.88002 0.60231 0.698 0.0
C2026 C 0.87412 0.61064 0.71281 0.0
C2027 C 0.90652 0.6207 0.6947 0.0
C2028 C 0.86124 0.59846 0.68527 0.0
C2029 C 0.84852 0.57401 0.67902 0.0
C2030 C 0.8294 0.56556 0.66762 0.0
C2031 C 0.82299 0.58252 0.66252 0.0
C2032 C 0.83587 0.6077 0.66867 0.0
C2033 C 0.85553 0.61582 0.68001 0.0
H2034 H 0.48831 0.93921 0.16493 0.0
H2035 H 0.41113 0.91906 0.16045 0.0
H2036 H 0.4147 0.93011 0.1346 0.0
H2037 H 0.50992 0.9922 0.14406 0.0
H2038 H 0.53254 0.98704 0.13561 0.0
H2039 H 0.52373 0.97691 0.15361 0.0
H2040 H 0.51199 0.93211 0.14373 0.0
H2041 H 0.52071 0.9421 0.12569 0.0
H2042 H 0.49011 0.91674 0.12746 0.0
H2043 H 0.42652 0.9428 0.10906 0.0
H2044 H 0.44608 0.9581 0.08623 0.0
H2045 H 0.51624 0.97191 0.10759 0.0
C2046 C 0.47213 0.93697 0.15847 0.0
C2047 C 0.4494 0.92823 0.16472 0.0
C2048 C 0.42876 0.9259 0.15595 0.0
C2049 C 0.43058 0.93201 0.14123 0.0
C2050 C 0.45323 0.9406 0.13541 0.0
C2051 C 0.4737 0.94325 0.14378 0.0
C2052 C 0.49606 0.95359 0.135 0.0
C2053 C 0.51678 0.97894 0.14252 0.0
C2054 C 0.50525 0.93502 0.13284 0.0
C2055 C 0.48496 0.95627 0.12038 0.0
C2056 C 0.4602 0.94853 0.12083 0.0
C2057 C 0.44596 0.9491 0.10864 0.0
C2058 C 0.45735 0.95802 0.09571 0.0
C2059 C 0.48285 0.96646 0.09498 0.0
C2060 C 0.49669 0.9654 0.10758 0.0
H2061 H 0.07681 0.52038 0.17229 0.0
H2062 H 0.07727 0.58806 0.18733 0.0
H2063 H 0.06123 0.58935 0.16208 0.0
H2064 H 0.09525 0.53721 0.13551 0.0
H2065 H 0.07547 0.50607 0.12658 0.0
H2066 H 0.0878 0.51089 0.14574 0.0
H2067 H 0.0434 0.48462 0.15333 0.0
H2068 H 0.03094 0.47975 0.13421 0.0
H2069 H 0.02052 0.49304 0.14831 0.0
H2070 H 0.04331 0.58228 0.13566 0.0
H2071 H 0.02526 0.56768 0.10962 0.0
H2072 H 0.03768 0.50529 0.11142 0.0
C2073 C 0.07353 0.53546 0.17025 0.0
C2074 C 0.07841 0.5542 0.18174 0.0
C2075 C 0.07403 0.57372 0.17863 0.0
C2076 C 0.06481 0.57455 0.16435 0.0
C2077 C 0.06016 0.55579 0.15329 0.0
C2078 C 0.06445 0.53666 0.15603 0.0
C2079 C 0.05757 0.51865 0.14219 0.0
C2080 C 0.08039 0.51819 0.13721 0.0
C2081 C 0.03687 0.49247 0.14467 0.0
C2082 C 0.04845 0.5305 0.13132 0.0
C2083 C 0.05014 0.55191 0.13795 0.0
C2084 C 0.04216 0.5657 0.13028 0.0
C2085 C 0.03209 0.55732 0.11544 0.0
C2086 C 0.03017 0.5354 0.10836 0.0
C2087 C 0.03866 0.52199 0.11648 0.0
H2088 H 0.49514 0.52661 0.17658 0.0
H2089 H 0.43675 0.54349 0.16705 0.0
H2090 H 0.44274 0.54244 0.14043 0.0
H2091 H 0.53496 0.56458 0.14985 0.0
H2092 H 0.54523 0.54305 0.14482 0.0
H2093 H 0.53634 0.54497 0.16322 0.0
H2094 H 0.50459 0.4977 0.15964 0.0
H2095 H 0.51336 0.49564 0.14124 0.0
H2096 H 0.48145 0.485 0.14385 0.0
H2097 H 0.45423 0.53866 0.11474 0.0
H2098 H 0.47136 0.53352 0.09177 0.0
H2099 H 0.52334 0.52058 0.11782 0.0
C2100 C 0.48377 0.53036 0.16895 0.0
C2101 C 0.46528 0.5349 0.174 0.0
C2102 C 0.45067 0.53942 0.16351 0.0
C2103 C 0.45406 0.53907 0.14834 0.0
C2104 C 0.47228 0.53436 0.14375 0.0
C2105 C 0.487 0.53022 0.15373 0.0
C2106 C 0.50525 0.52558 0.14583 0.0
C2107 C 0.53203 0.54575 0.15125 0.0
C2108 C 0.50089 0.49943 0.14776 0.0
C2109 C 0.49838 0.52766 0.12985 0.0
C2110 C 0.47926 0.53267 0.12892 0.0
C2111 C 0.46927 0.53483 0.11533 0.0
C2112 C 0.47904 0.53176 0.10234 0.0
C2113 C 0.49869 0.52667 0.10299 0.0
C2114 C 0.50853 0.52475 0.11698 0.0
H2115 H 0.95566 0.46632 0.8307 0.0
H2116 H 0.95524 0.53557 0.82953 0.0
H2117 H 0.96694 0.54483 0.85664 0.0
H2118 H 0.93081 0.45101 0.86544 0.0
H2119 H 0.95005 0.43864 0.87136 0.0
H2120 H 0.9418 0.43749 0.85183 0.0
H2121 H 0.98817 0.46095 0.84741 0.0
H2122 H 0.99656 0.46204 0.86692 0.0
H2123 H 0.00892 0.49039 0.8581 0.0
H2124 H 0.97799 0.54618 0.88404 0.0
H2125 H 0.98821 0.5398 0.90954 0.0
H2126 H 0.9832 0.47062 0.89253 0.0
C2127 C 0.95832 0.4836 0.83609 0.0
C2128 C 0.95441 0.50016 0.82794 0.0
C2129 C 0.95773 0.52237 0.83552 0.0
C2130 C 0.96452 0.52788 0.85092 0.0
C2131 C 0.96806 0.51107 0.8586 0.0
C2132 C 0.96518 0.48944 0.85143 0.0
C2133 C 0.97003 0.47445 0.86226 0.0
C2134 C 0.94678 0.44889 0.86275 0.0
C2135 C 0.99224 0.47181 0.85844 0.0
C2136 C 0.97596 0.49098 0.87666 0.0
C2137 C 0.97472 0.51201 0.87432 0.0
C2138 C 0.97919 0.52986 0.88599 0.0
C2139 C 0.98512 0.52614 0.90043 0.0
C2140 C 0.98659 0.50474 0.90309 0.0
C2141 C 0.98195 0.48702 0.89096 0.0
H2142 H 0.54465 0.48157 0.84514 0.0
H2143 H 0.51617 0.40205 0.83706 0.0
H2144 H 0.5003 0.39636 0.86155 0.0
H2145 H 0.56228 0.48827 0.88454 0.0
H2146 H 0.55238 0.51027 0.8891 0.0
H2147 H 0.56263 0.50854 0.8711 0.0
H2148 H 0.52117 0.50121 0.85834 0.0
H2149 H 0.51082 0.50296 0.87629 0.0
H2150 H 0.49246 0.47595 0.86307 0.0
H2151 H 0.4873 0.39887 0.88688 0.0
H2152 H 0.47628 0.40936 0.91094 0.0
H2153 H 0.51114 0.48679 0.90243 0.0
C2154 C 0.53499 0.46292 0.84845 0.0
C2155 C 0.53214 0.44234 0.83912 0.0
C2156 C 0.51937 0.4183 0.84405 0.0
C2157 C 0.51004 0.41479 0.85795 0.0
C2158 C 0.51332 0.43543 0.86684 0.0
C2159 C 0.52531 0.45901 0.86228 0.0
C2160 C 0.52565 0.47788 0.87388 0.0
C2161 C 0.55233 0.49739 0.88002 0.0
C2162 C 0.51169 0.49022 0.86751 0.0
C2163 C 0.5119 0.46116 0.88561 0.0
C2164 C 0.50515 0.43678 0.88135 0.0
C2165 C 0.49248 0.4179 0.89034 0.0
C2166 C 0.48642 0.42406 0.90403 0.0
C2167 C 0.49284 0.44887 0.90858 0.0
C2168 C 0.50579 0.46762 0.8992 0.0
H2169 H 0.51344 0.02647 0.8316 0.0
H2170 H 0.57092 0.10269 0.84609 0.0
H2171 H 0.56504 0.09432 0.87219 0.0
H2172 H 0.47324 0.02324 0.85919 0.0
H2173 H 0.4626 0.9911 0.86155 0.0
H2174 H 0.47234 0.00263 0.84397 0.0
H2175 H 0.50387 0.98729 0.84516 0.0
H2176 H 0.49429 0.9758 0.86279 0.0
H2177 H 0.5264 0.99752 0.86116 0.0
H2178 H 0.55289 0.07774 0.89687 0.0
H2179 H 0.53418 0.05467 0.91814 0.0
H2180 H 0.48223 0.99049 0.88751 0.0
C2181 C 0.52473 0.04153 0.84021 0.0
C2182 C 0.54287 0.06522 0.83664 0.0
C2183 C 0.55733 0.08419 0.8484 0.0
C2184 C 0.554 0.0797 0.86332 0.0
C2185 C 0.53596 0.0562 0.86638 0.0
C2186 C 0.52144 0.03748 0.85516 0.0
C2187 C 0.50276 0.01413 0.86145 0.0
C2188 C 0.47616 0.00739 0.85623 0.0
C2189 C 0.5071 0.99241 0.8574 0.0
C2190 C 0.50901 0.02268 0.87796 0.0
C2191 C 0.52834 0.04694 0.88057 0.0
C2192 C 0.53758 0.0588 0.89495 0.0
C2193 C 0.52666 0.04557 0.90697 0.0
C2194 C 0.5065 0.02077 0.90458 0.0
C2195 C 0.49772 0.00929 0.88981 0.0
H2196 H 0.14147 0.25735 0.49346 0.0
H2197 H 0.1489 0.32521 0.51518 0.0
H2198 H 0.15964 0.34463 0.49185 0.0
H2199 H 0.19362 0.28802 0.47219 0.0
H2200 H 0.1792 0.2654 0.45609 0.0
H2201 H 0.17102 0.25627 0.47435 0.0
H2202 H 0.12488 0.23956 0.46559 0.0
H2203 H 0.13292 0.24867 0.44731 0.0
H2204 H 0.11592 0.25989 0.45746 0.0
H2205 H 0.16961 0.35692 0.46626 0.0
H2206 H 0.17973 0.36175 0.44029 0.0
H2207 H 0.16784 0.28683 0.43531 0.0
C2208 C 0.14551 0.27635 0.49339 0.0
C2209 C 0.14401 0.28956 0.50623 0.0
C2210 C 0.14927 0.31436 0.50548 0.0
C2211 C 0.1556 0.32569 0.49228 0.0
C2212 C 0.15684 0.31212 0.47989 0.0
C2213 C 0.1521 0.28806 0.48032 0.0
C2214 C 0.15529 0.27784 0.46548 0.0
C2215 C 0.17602 0.27152 0.46713 0.0
C2216 C 0.13079 0.25515 0.45855 0.0
C2217 C 0.16262 0.29995 0.45667 0.0
C2218 C 0.16322 0.31946 0.46518 0.0
C2219 C 0.16921 0.34179 0.45948 0.0
C2220 C 0.1748 0.34431 0.44469 0.0
C2221 C 0.17454 0.32468 0.43577 0.0
C2222 C 0.16839 0.30223 0.4419 0.0
H2223 H 0.75645 0.89326 0.50813 0.0
H2224 H 0.77988 0.83874 0.50381 0.0
H2225 H 0.76625 0.83061 0.47677 0.0
H2226 H 0.70156 0.85883 0.48331 0.0
H2227 H 0.70356 0.88585 0.47591 0.0
H2228 H 0.71672 0.88841 0.49458 0.0
H2229 H 0.75919 0.92346 0.48825 0.0
H2230 H 0.74615 0.92097 0.46953 0.0
H2231 H 0.77305 0.91783 0.47267 0.0
H2232 H 0.74971 0.82853 0.45015 0.0
H2233 H 0.72954 0.83078 0.42655 0.0
H2234 H 0.71456 0.88469 0.44909 0.0
C2235 C 0.75903 0.87989 0.50142 0.0
C2236 C 0.76945 0.86681 0.50792 0.0
C2237 C 0.77199 0.84897 0.49894 0.0
C2238 C 0.76439 0.84432 0.48361 0.0
C2239 C 0.75407 0.85749 0.47754 0.0
C2240 C 0.75122 0.87477 0.4862 0.0
C2241 C 0.73833 0.8854 0.4772 0.0
C2242 C 0.71357 0.87924 0.4831 0.0
C2243 C 0.75519 0.91358 0.4769 0.0
C2244 C 0.73437 0.87144 0.46209 0.0
C2245 C 0.74376 0.8556 0.46245 0.0
C2246 C 0.74218 0.84079 0.44977 0.0
C2247 C 0.73052 0.84207 0.43643 0.0
C2248 C 0.72034 0.85787 0.43589 0.0
C2249 C 0.72246 0.87274 0.44896 0.0
H2250 H 0.1512 0.88682 0.5117 0.0
H2251 H 0.07312 0.83071 0.50477 0.0
H2252 H 0.07744 0.82272 0.47842 0.0
H2253 H 0.15665 0.91048 0.47641 0.0
H2254 H 0.18676 0.91422 0.47457 0.0
H2255 H 0.17735 0.91633 0.49277 0.0
H2256 H 0.18591 0.88167 0.50019 0.0
H2257 H 0.19552 0.87958 0.48204 0.0
H2258 H 0.17127 0.85222 0.4888 0.0
H2259 H 0.0903 0.82126 0.45253 0.0
H2260 H 0.11112 0.82477 0.42974 0.0
H2261 H 0.18138 0.87883 0.45445 0.0
C2262 C 0.13498 0.87261 0.50477 0.0
C2263 C 0.11174 0.85959 0.51044 0.0
C2264 C 0.09103 0.84144 0.50074 0.0
C2265 C 0.09332 0.8366 0.48573 0.0
C2266 C 0.11649 0.84982 0.48057 0.0
C2267 C 0.13699 0.86727 0.48984 0.0
C2268 C 0.15998 0.87837 0.48169 0.0
C2269 C 0.17081 0.90652 0.48134 0.0
C2270 C 0.17931 0.8726 0.48859 0.0
C2271 C 0.14919 0.86448 0.46636 0.0
C2272 C 0.12405 0.84824 0.46588 0.0
C2273 C 0.11004 0.83373 0.45282 0.0
C2274 C 0.1221 0.83574 0.43994 0.0
C2275 C 0.14801 0.85196 0.44023 0.0
C2276 C 0.16156 0.86648 0.45369 0.0
H2277 H 0.61055 0.78758 0.16496 0.0
H2278 H 0.59359 0.84693 0.16322 0.0
H2279 H 0.60127 0.85519 0.19061 0.0
H2280 H 0.58363 0.76509 0.19822 0.0
H2281 H 0.60747 0.75899 0.20498 0.0
H2282 H 0.60034 0.75759 0.18527 0.0
H2283 H 0.64618 0.78988 0.18282 0.0
H2284 H 0.65349 0.79127 0.20251 0.0
H2285 H 0.66087 0.81934 0.19418 0.0
H2286 H 0.61038 0.85651 0.21837 0.0
H2287 H 0.6211 0.85137 0.2441 0.0
H2288 H 0.63455 0.79299 0.2271 0.0
C2289 C 0.60872 0.80253 0.17026 0.0
C2290 C 0.60138 0.81653 0.16188 0.0
C2291 C 0.5988 0.83564 0.16939 0.0
C2292 C 0.60328 0.8406 0.18494 0.0
C2293 C 0.61047 0.8264 0.19282 0.0
C2294 C 0.61331 0.80786 0.18571 0.0
C2295 C 0.62144 0.7954 0.19668 0.0
C2296 C 0.60206 0.76763 0.19626 0.0
C2297 C 0.64702 0.79921 0.19388 0.0
C2298 C 0.62262 0.80974 0.2111 0.0
C2299 C 0.61617 0.8275 0.20868 0.0
C2300 C 0.61562 0.84277 0.22039 0.0
C2301 C 0.62188 0.83981 0.23496 0.0
C2302 C 0.6287 0.82178 0.23766 0.0
C2303 C 0.62908 0.80668 0.22549 0.0
H2304 H 0.18988 0.79758 0.17407 0.0
H2305 H 0.2677 0.85402 0.17992 0.0
H2306 H 0.26368 0.86454 0.20607 0.0
H2307 H 0.16857 0.83148 0.19721 0.0
H2308 H 0.14556 0.80384 0.20442 0.0
H2309 H 0.15454 0.80185 0.18606 0.0
H2310 H 0.16542 0.76868 0.19335 0.0
H2311 H 0.15664 0.77067 0.21175 0.0
H2312 H 0.18711 0.77575 0.2094 0.0
H2313 H 0.25139 0.86692 0.23207 0.0
H2314 H 0.23166 0.8622 0.2554 0.0
H2315 H 0.16171 0.80475 0.23201 0.0
C2316 C 0.20607 0.8122 0.18084 0.0
C2317 C 0.22912 0.82495 0.17501 0.0
C2318 C 0.24982 0.84418 0.18415 0.0
C2319 C 0.24773 0.85018 0.19902 0.0
C2320 C 0.22478 0.83693 0.20448 0.0
C2321 C 0.20428 0.81849 0.19562 0.0
C2322 C 0.1818 0.80673 0.20416 0.0
C2323 C 0.16142 0.81126 0.19757 0.0
C2324 C 0.17219 0.77881 0.2047 0.0
C2325 C 0.19292 0.82113 0.21932 0.0
C2326 C 0.21769 0.8385 0.2193 0.0
C2327 C 0.23193 0.85354 0.23217 0.0
C2328 C 0.22052 0.85076 0.24537 0.0
C2329 C 0.1951 0.83302 0.24563 0.0
C2330 C 0.18123 0.81821 0.23233 0.0
H2331 H 0.16886 0.36927 0.16975 0.0
H2332 H 0.23697 0.43989 0.18156 0.0
H2333 H 0.23174 0.43499 0.20808 0.0
H2334 H 0.13577 0.37878 0.19844 0.0
H2335 H 0.11924 0.34647 0.20169 0.0
H2336 H 0.12889 0.35495 0.18356 0.0
H2337 H 0.15212 0.33037 0.18436 0.0
H2338 H 0.14264 0.32191 0.20253 0.0
H2339 H 0.175 0.33751 0.19974 0.0
H2340 H 0.21965 0.42208 0.23342 0.0
H2341 H 0.20047 0.40313 0.25567 0.0
H2342 H 0.13809 0.34322 0.22734 0.0
C2343 C 0.18261 0.38389 0.17785 0.0
C2344 C 0.20353 0.40484 0.1734 0.0
C2345 C 0.22112 0.4233 0.18453 0.0
C2346 C 0.21822 0.42082 0.19969 0.0
C2347 C 0.19747 0.39995 0.20361 0.0
C2348 C 0.17984 0.38192 0.19303 0.0
C2349 C 0.15887 0.36164 0.20023 0.0
C2350 C 0.13424 0.3604 0.19571 0.0
C2351 C 0.15707 0.33637 0.19649 0.0
C2352 C 0.16755 0.37107 0.21652 0.0
C2353 C 0.18993 0.39309 0.21823 0.0
C2354 C 0.20194 0.40499 0.23223 0.0
C2355 C 0.19074 0.39415 0.24483 0.0
C2356 C 0.16753 0.37172 0.2434 0.0
C2357 C 0.1559 0.36019 0.22896 0.0
H2358 H 0.78607 0.57473 0.82819 0.0
H2359 H 0.78403 0.63795 0.84955 0.0
H2360 H 0.7905 0.65651 0.82581 0.0
H2361 H 0.83559 0.61029 0.80697 0.0
H2362 H 0.82367 0.58727 0.79102 0.0
H2363 H 0.81647 0.5778 0.80931 0.0
H2364 H 0.76965 0.55513 0.80033 0.0
H2365 H 0.77671 0.56463 0.78201 0.0
H2366 H 0.75676 0.57213 0.79191 0.0
H2367 H 0.79874 0.66903 0.79995 0.0
H2368 H 0.8108 0.67573 0.77437 0.0
H2369 H 0.80975 0.60557 0.77039 0.0
C2370 C 0.78706 0.59253 0.82796 0.0
C2371 C 0.78431 0.60471 0.84081 0.0
C2372 C 0.78549 0.62788 0.83985 0.0
C2373 C 0.7893 0.63868 0.82641 0.0
C2374 C 0.79205 0.6262 0.81403 0.0
C2375 C 0.79115 0.60372 0.81471 0.0
C2376 C 0.79611 0.59482 0.80005 0.0
C2377 C 0.81934 0.59242 0.80196 0.0
C2378 C 0.77345 0.57022 0.79317 0.0
C2379 C 0.80034 0.61602 0.79109 0.0
C2380 C 0.79755 0.63376 0.79927 0.0
C2381 C 0.80087 0.65522 0.79341 0.0
C2382 C 0.80759 0.65881 0.77887 0.0
C2383 C 0.81119 0.64117 0.77045 0.0
C2384 C 0.80723 0.6194 0.77662 0.0
H2385 H 0.39583 0.21079 0.84287 0.0
H2386 H 0.41051 0.14979 0.84177 0.0
H2387 H 0.403 0.14398 0.81427 0.0
H2388 H 0.34651 0.18347 0.81306 0.0
H2389 H 0.35518 0.21271 0.80588 0.0
H2390 H 0.36183 0.21196 0.82539 0.0
H2391 H 0.40819 0.24344 0.82373 0.0
H2392 H 0.40169 0.24423 0.8042 0.0
H2393 H 0.42458 0.23641 0.81031 0.0
H2394 H 0.39506 0.14586 0.78682 0.0
H2395 H 0.3856 0.15404 0.76164 0.0
H2396 H 0.37436 0.21262 0.78112 0.0
C2397 C 0.39761 0.19631 0.83682 0.0
C2398 C 0.40387 0.1808 0.84438 0.0
C2399 C 0.40561 0.16177 0.83614 0.0
C2400 C 0.40148 0.15842 0.82055 0.0
C2401 C 0.39544 0.17412 0.81343 0.0
C2402 C 0.39333 0.19257 0.82131 0.0
C2403 C 0.38621 0.20669 0.81106 0.0
C2404 C 0.36093 0.2035 0.81403 0.0
C2405 C 0.40638 0.23433 0.81241 0.0
C2406 C 0.38487 0.19348 0.79615 0.0
C2407 C 0.39031 0.1748 0.79773 0.0
C2408 C 0.39057 0.16031 0.78546 0.0
C2409 C 0.38503 0.165 0.77121 0.0
C2410 C 0.37916 0.18394 0.76936 0.0
C2411 C 0.37909 0.19825 0.78207 0.0
H2412 H 0.81984 0.1837 0.83631 0.0
H2413 H 0.76338 0.20343 0.82722 0.0
H2414 H 0.77131 0.20526 0.80087 0.0
H2415 H 0.86236 0.22563 0.81297 0.0
H2416 H 0.87327 0.20502 0.80701 0.0
H2417 H 0.86194 0.20348 0.82497 0.0
H2418 H 0.83037 0.15657 0.81817 0.0
H2419 H 0.84159 0.15797 0.80017 0.0
H2420 H 0.8092 0.14666 0.80152 0.0
H2421 H 0.78603 0.20588 0.77547 0.0
H2422 H 0.80688 0.20591 0.75317 0.0
H2423 H 0.85586 0.18896 0.77927 0.0
C2424 C 0.80915 0.18852 0.82886 0.0
C2425 C 0.79079 0.19322 0.83399 0.0
C2426 C 0.77713 0.19915 0.82365 0.0
C2427 C 0.78164 0.20045 0.80863 0.0
C2428 C 0.80002 0.19597 0.80405 0.0
C2429 C 0.81361 0.1902 0.81387 0.0
C2430 C 0.83294 0.18712 0.80623 0.0
C2431 C 0.85918 0.20647 0.81321 0.0
C2432 C 0.82823 0.16049 0.80654 0.0
C2433 C 0.82815 0.19213 0.79058 0.0
C2434 C 0.80899 0.19706 0.78953 0.0
C2435 C 0.80117 0.2022 0.77619 0.0
C2436 C 0.8133 0.20238 0.76359 0.0
C2437 C 0.83322 0.19765 0.76441 0.0
C2438 C 0.84059 0.19242 0.77815 0.0
H2439 H 0.29318 0.13892 0.4952 0.0
H2440 H 0.27447 0.1972 0.49805 0.0
H2441 H 0.28266 0.20211 0.52543 0.0
H2442 H 0.26581 0.11095 0.52668 0.0
H2443 H 0.28952 0.10416 0.53264 0.0
H2444 H 0.28356 0.10615 0.51324 0.0
H2445 H 0.32955 0.13973 0.51251 0.0
H2446 H 0.33572 0.13767 0.53189 0.0
H2447 H 0.34335 0.16728 0.52561 0.0
H2448 H 0.29047 0.19886 0.55255 0.0
H2449 H 0.2986 0.18858 0.57736 0.0
H2450 H 0.31403 0.13381 0.55655 0.0
C2451 C 0.2913 0.15309 0.50154 0.0
C2452 C 0.28315 0.16765 0.49448 0.0
C2453 C 0.28041 0.18562 0.50323 0.0
C2454 C 0.28515 0.18865 0.51877 0.0
C2455 C 0.29277 0.1737 0.52537 0.0
C2456 C 0.29604 0.15642 0.51703 0.0
C2457 C 0.30371 0.14219 0.52685 0.0
C2458 C 0.2845 0.11421 0.52472 0.0
C2459 C 0.32962 0.14702 0.52405 0.0
C2460 C 0.30387 0.15389 0.54204 0.0
C2461 C 0.29758 0.17207 0.54096 0.0
C2462 C 0.29573 0.18488 0.55353 0.0
C2463 C 0.30049 0.17899 0.56758 0.0
C2464 C 0.30706 0.16045 0.56894 0.0
C2465 C 0.30883 0.14789 0.55593 0.0
H2466 H 0.85175 0.14097 0.50075 0.0
H2467 H 0.90487 0.11737 0.51072 0.0
H2468 H 0.89802 0.11847 0.53732 0.0
H2469 H 0.86728 0.18279 0.53442 0.0
H2470 H 0.83566 0.17444 0.53627 0.0
H2471 H 0.84538 0.17263 0.51811 0.0
H2472 H 0.81085 0.12634 0.51316 0.0
H2473 H 0.80104 0.12802 0.53129 0.0
H2474 H 0.80916 0.10485 0.52609 0.0
H2475 H 0.88547 0.12228 0.56286 0.0
H2476 H 0.8671 0.12699 0.58532 0.0
H2477 H 0.8206 0.14622 0.55856 0.0
C2478 C 0.86211 0.13629 0.50857 0.0
C2479 C 0.87891 0.12915 0.50368 0.0
C2480 C 0.89181 0.12274 0.51421 0.0
C2481 C 0.88813 0.12343 0.52935 0.0
C2482 C 0.87135 0.13041 0.53378 0.0
C2483 C 0.85846 0.13662 0.5237 0.0
C2484 C 0.84087 0.14265 0.53131 0.0
C2485 C 0.84772 0.16974 0.52994 0.0
C2486 C 0.81388 0.12437 0.52509 0.0
C2487 C 0.84589 0.13886 0.54724 0.0
C2488 C 0.86364 0.13195 0.54843 0.0
C2489 C 0.87142 0.12751 0.56203 0.0
C2490 C 0.8607 0.13004 0.57473 0.0
C2491 C 0.84217 0.13677 0.57379 0.0
C2492 C 0.83484 0.14129 0.55978 0.0
H2493 H 0.87911 0.76347 0.51835 0.0
H2494 H 0.86898 0.69679 0.49353 0.0
H2495 H 0.85832 0.67488 0.51618 0.0
H2496 H 0.90443 0.75592 0.55404 0.0
H2497 H 0.88804 0.76705 0.5649 0.0
H2498 H 0.89712 0.77821 0.54713 0.0
H2499 H 0.85163 0.76433 0.53832 0.0
H2500 H 0.84241 0.75309 0.55604 0.0
H2501 H 0.82784 0.73249 0.53913 0.0
H2502 H 0.84743 0.65982 0.54115 0.0
H2503 H 0.83459 0.65171 0.56644 0.0
H2504 H 0.85001 0.72756 0.57502 0.0
C2505 C 0.87505 0.74439 0.51781 0.0
C2506 C 0.87505 0.7318 0.50428 0.0
C2507 C 0.86911 0.70669 0.50383 0.0
C2508 C 0.86313 0.69417 0.51663 0.0
C2509 C 0.86299 0.70696 0.52978 0.0
C2510 C 0.86865 0.73147 0.53047 0.0
C2511 C 0.86545 0.74032 0.54574 0.0
C2512 C 0.89024 0.76164 0.5534 0.0
C2513 C 0.84565 0.748 0.54474 0.0
C2514 C 0.85681 0.71688 0.55344 0.0
C2515 C 0.85588 0.69799 0.54409 0.0
C2516 C 0.84821 0.6745 0.54861 0.0
C2517 C 0.84106 0.6701 0.56301 0.0
C2518 C 0.84136 0.689 0.57271 0.0
C2519 C 0.84949 0.71273 0.56783 0.0
loop_
_geom_bond_atom_site_label_1
_geom_bond_atom_site_label_2
_geom_bond_distance
_geom_bond_site_symmetry_2
_ccdc_geom_bond_type
C0 C1 1.386 . S
C0 C2 1.397 . S
C0 H24 0.931 . S
C1 C0 1.386 . S
C1 C5 1.397 . S
C2 C0 1.397 . S
C2 C3 1.384 . S
C2 H25 0.930 . S
C3 C2 1.384 . S
C3 C4 1.377 . S
C3 C6 1.481 . S
C4 C3 1.377 . S
C4 C5 1.389 . S
C4 H26 0.929 . S
C5 C1 1.397 . S
C5 C4 1.389 . S
C5 H27 0.931 . S
C6 C3 1.481 . S
C6 C7 1.387 . S
C6 C11 1.390 . S
C7 C6 1.387 . S
C7 C8 1.401 . S
C7 H28 0.930 . S
C8 C7 1.401 . S
C8 C9 1.376 . S
C8 C17 1.511 . S
C9 C8 1.376 . S
C9 C10 1.392 . S
C9 H30 0.931 . S
C10 C9 1.392 . S
C10 C11 1.361 . S
C10 C12 1.500 . S
C11 C6 1.390 . S
C11 C10 1.361 . S
C11 H29 0.931 . S
C12 C10 1.500 . S
C12 C13 1.371 . S
C12 C14 1.365 . S
C13 C12 1.371 . S
C13 C23 1.386 . S
C13 H31 0.931 . S
C14 C12 1.365 . S
C14 C15 1.409 . S
C14 H32 0.929 . S
C15 C14 1.409 . S
C15 C16 1.380 . S
C15 H33 0.930 . S
C16 C15 1.380 . S
C16 C23 1.357 . S
C17 C8 1.511 . S
C17 C18 1.341 . S
C17 C19 1.371 . S
C18 C17 1.341 . S
C18 C22 1.394 . S
C18 H34 0.930 . S
C19 C17 1.371 . S
C19 C20 1.392 . S
C19 H35 0.931 . S
C20 C19 1.392 . S
C20 C21 1.331 . S
C20 H38 0.932 . S
C21 C20 1.331 . S
C21 C22 1.336 . S
C22 C18 1.394 . S
C22 C21 1.336 . S
C22 H37 0.929 . S
C23 C13 1.386 . S
C23 C16 1.357 . S
C23 H36 0.928 . S
H24 C0 0.931 . S
H25 C2 0.930 . S
H26 C4 0.929 . S
H27 C5 0.931 . S
H28 C7 0.930 . S
H29 C11 0.931 . S
H30 C9 0.931 . S
H31 C13 0.931 . S
H32 C14 0.929 . S
H33 C15 0.930 . S
H34 C18 0.930 . S
H35 C19 0.931 . S
H36 C23 0.928 . S
H37 C22 0.929 . S
H38 C20 0.932 . S
C39 C40 1.386 . S
C39 C41 1.397 . S
C39 H63 0.931 . S
C40 C39 1.386 . S
C40 C44 1.397 . S
C41 C39 1.397 . S
C41 C42 1.384 . S
C41 H64 0.930 . S
C42 C41 1.384 . S
C42 C43 1.377 . S
C42 C45 1.481 . S
C43 C42 1.377 . S
C43 C44 1.389 . S
C43 H65 0.929 . S
C44 C40 1.397 . S
C44 C43 1.389 . S
C44 H66 0.931 . S
C45 C42 1.481 . S
C45 C46 1.387 . S
C45 C50 1.390 . S
C46 C45 1.387 . S
C46 C47 1.401 . S
C46 H67 0.930 . S
C47 C46 1.401 . S
C47 C48 1.376 . S
C47 C56 1.511 . S
C48 C47 1.376 . S
C48 C49 1.392 . S
C48 H69 0.931 . S
C49 C48 1.392 . S
C49 C50 1.361 . S
C49 C51 1.500 . S
C50 C45 1.390 . S
C50 C49 1.361 . S
C50 H68 0.931 . S
C51 C49 1.500 . S
C51 C52 1.371 . S
C51 C53 1.365 . S
C52 C51 1.371 . S
C52 C62 1.386 . S
C52 H70 0.931 . S
C53 C51 1.365 . S
C53 C54 1.409 . S
C53 H71 0.929 . S
C54 C53 1.409 . S
C54 C55 1.380 . S
C54 H72 0.930 . S
C55 C54 1.380 . S
C55 C62 1.357 . S
C56 C47 1.511 . S
C56 C57 1.341 . S
C56 C58 1.371 . S
C57 C56 1.341 . S
C57 C61 1.394 . S
C57 H73 0.930 . S
C58 C56 1.371 . S
C58 C59 1.392 . S
C58 H74 0.931 . S
C59 C58 1.392 . S
C59 C60 1.331 . S
C59 H77 0.932 . S
C60 C59 1.331 . S
C60 C61 1.336 . S
C61 C57 1.394 . S
C61 C60 1.336 . S
C61 H76 0.929 . S
C62 C52 1.386 . S
C62 C55 1.357 . S
C62 H75 0.928 . S
H63 C39 0.931 . S
H64 C41 0.930 . S
H65 C43 0.929 . S
H66 C44 0.931 . S
H67 C46 0.930 . S
H68 C50 0.931 . S
H69 C48 0.931 . S
H70 C52 0.931 . S
H71 C53 0.929 . S
H72 C54 0.930 . S
H73 C57 0.930 . S
H74 C58 0.931 . S
H75 C62 0.928 . S
H76 C61 0.929 . S
H77 C59 0.932 . S
C78 C79 1.386 . S
C78 C80 1.397 . S
C78 H102 0.931 . S
C79 C78 1.386 . S
C79 C83 1.397 . S
C80 C78 1.397 . S
C80 C81 1.384 . S
C80 H103 0.930 . S
C81 C80 1.384 . S
C81 C82 1.377 . S
C81 C84 1.481 . S
C82 C81 1.377 . S
C82 C83 1.389 . S
C82 H104 0.929 . S
C83 C79 1.397 . S
C83 C82 1.389 . S
C83 H105 0.931 . S
C84 C81 1.481 . S
C84 C85 1.387 . S
C84 C89 1.390 . S
C85 C84 1.387 . S
C85 C86 1.401 . S
C85 H106 0.930 . S
C86 C85 1.401 . S
C86 C87 1.376 . S
C86 C95 1.511 . S
C87 C86 1.376 . S
C87 C88 1.392 . S
C87 H108 0.931 . S
C88 C87 1.392 . S
C88 C89 1.361 . S
C88 C90 1.500 . S
C89 C84 1.390 . S
C89 C88 1.361 . S
C89 H107 0.931 . S
C90 C88 1.500 . S
C90 C91 1.371 . S
C90 C92 1.365 . S
C91 C90 1.371 . S
C91 C101 1.386 . S
C91 H109 0.931 . S
C92 C90 1.365 . S
C92 C93 1.409 . S
C92 H110 0.929 . S
C93 C92 1.409 . S
C93 C94 1.380 . S
C93 H111 0.930 . S
C94 C93 1.380 . S
C94 C101 1.357 . S
C95 C86 1.511 . S
C95 C96 1.341 . S
C95 C97 1.371 . S
C96 C95 1.341 . S
C96 C100 1.394 . S
C96 H112 0.930 . S
C97 C95 1.371 . S
C97 C98 1.392 . S
C97 H113 0.931 . S
C98 C97 1.392 . S
C98 C99 1.331 . S
C98 H116 0.932 . S
C99 C98 1.331 . S
C99 C100 1.336 . S
C100 C96 1.394 . S
C100 C99 1.336 . S
C100 H115 0.929 . S
C101 C91 1.386 . S
C101 C94 1.357 . S
C101 H114 0.928 . S
H102 C78 0.931 . S
H103 C80 0.930 . S
H104 C82 0.929 . S
H105 C83 0.931 . S
H106 C85 0.930 . S
H107 C89 0.931 . S
H108 C87 0.931 . S
H109 C91 0.931 . S
H110 C92 0.929 . S
H111 C93 0.930 . S
H112 C96 0.930 . S
H113 C97 0.931 . S
H114 C101 0.928 . S
H115 C100 0.929 . S
H116 C98 0.932 . S
C117 C118 1.386 . S
C117 C119 1.397 . S
C117 H141 0.931 . S
C118 C117 1.386 . S
C118 C122 1.397 . S
C119 C117 1.397 . S
C119 C120 1.384 . S
C119 H142 0.930 . S
C120 C119 1.384 . S
C120 C121 1.377 . S
C120 C123 1.481 . S
C121 C120 1.377 . S
C121 C122 1.389 . S
C121 H143 0.929 . S
C122 C118 1.397 . S
C122 C121 1.389 . S
C122 H144 0.931 . S
C123 C120 1.481 . S
C123 C124 1.387 . S
C123 C128 1.390 . S
C124 C123 1.387 . S
C124 C125 1.401 . S
C124 H145 0.930 . S
C125 C124 1.401 . S
C125 C126 1.376 . S
C125 C134 1.511 . S
C126 C125 1.376 . S
C126 C127 1.392 . S
C126 H147 0.931 . S
C127 C126 1.392 . S
C127 C128 1.361 . S
C127 C129 1.500 . S
C128 C123 1.390 . S
C128 C127 1.361 . S
C128 H146 0.931 . S
C129 C127 1.500 . S
C129 C130 1.371 . S
C129 C131 1.365 . S
C130 C129 1.371 . S
C130 C140 1.386 . S
C130 H148 0.931 . S
C131 C129 1.365 . S
C131 C132 1.409 . S
C131 H149 0.929 . S
C132 C131 1.409 . S
C132 C133 1.380 . S
C132 H150 0.930 . S
C133 C132 1.380 . S
C133 C140 1.357 . S
C134 C125 1.511 . S
C134 C135 1.341 . S
C134 C136 1.371 . S
C135 C134 1.341 . S
C135 C139 1.394 . S
C135 H151 0.930 . S
C136 C134 1.371 . S
C136 C137 1.392 . S
C136 H152 0.931 . S
C137 C136 1.392 . S
C137 C138 1.331 . S
C137 H155 0.932 . S
C138 C137 1.331 . S
C138 C139 1.336 . S
C139 C135 1.394 . S
C139 C138 1.336 . S
C139 H154 0.929 . S
C140 C130 1.386 . S
C140 C133 1.357 . S
C140 H153 0.928 . S
H141 C117 0.931 . S
H142 C119 0.930 . S
H143 C121 0.929 . S
H144 C122 0.931 . S
H145 C124 0.930 . S
H146 C128 0.931 . S
H147 C126 0.931 . S
H148 C130 0.931 . S
H149 C131 0.929 . S
H150 C132 0.930 . S
H151 C135 0.930 . S
H152 C136 0.931 . S
H153 C140 0.928 . S
H154 C139 0.929 . S
H155 C137 0.932 . S
C156 C157 1.386 . S
C156 C158 1.397 . S
C156 H180 0.931 . S
C157 C156 1.386 . S
C157 C161 1.397 . S
C158 C156 1.397 . S
C158 C159 1.384 . S
C158 H181 0.930 . S
C159 C158 1.384 . S
C159 C160 1.377 . S
C159 C162 1.481 . S
C160 C159 1.377 . S
C160 C161 1.389 . S
C160 H182 0.929 . S
C161 C157 1.397 . S
C161 C160 1.389 . S
C161 H183 0.931 . S
C162 C159 1.481 . S
C162 C163 1.387 . S
C162 C167 1.390 . S
C163 C162 1.387 . S
C163 C164 1.401 . S
C163 H184 0.930 . S
C164 C163 1.401 . S
C164 C165 1.376 . S
C164 C173 1.511 . S
C165 C164 1.376 . S
C165 C166 1.392 . S
C165 H186 0.931 . S
C166 C165 1.392 . S
C166 C167 1.361 . S
C166 C168 1.500 . S
C167 C162 1.390 . S
C167 C166 1.361 . S
C167 H185 0.931 . S
C168 C166 1.500 . S
C168 C169 1.371 . S
C168 C170 1.365 . S
C169 C168 1.371 . S
C169 C179 1.386 . S
C169 H187 0.931 . S
C170 C168 1.365 . S
C170 C171 1.409 . S
C170 H188 0.929 . S
C171 C170 1.409 . S
C171 C172 1.380 . S
C171 H189 0.930 . S
C172 C171 1.380 . S
C172 C179 1.357 . S
C173 C164 1.511 . S
C173 C174 1.341 . S
C173 C175 1.371 . S
C174 C173 1.341 . S
C174 C178 1.394 . S
C174 H190 0.930 . S
C175 C173 1.371 . S
C175 C176 1.392 . S
C175 H191 0.931 . S
C176 C175 1.392 . S
C176 C177 1.331 . S
C176 H194 0.932 . S
C177 C176 1.331 . S
C177 C178 1.336 . S
C178 C174 1.394 . S
C178 C177 1.336 . S
C178 H193 0.929 . S
C179 C169 1.386 . S
C179 C172 1.357 . S
C179 H192 0.928 . S
H180 C156 0.931 . S
H181 C158 0.930 . S
H182 C160 0.929 . S
H183 C161 0.931 . S
H184 C163 0.930 . S
H185 C167 0.931 . S
H186 C165 0.931 . S
H187 C169 0.931 . S
H188 C170 0.929 . S
H189 C171 0.930 . S
H190 C174 0.930 . S
H191 C175 0.931 . S
H192 C179 0.928 . S
H193 C178 0.929 . S
H194 C176 0.932 . S
C195 C196 1.386 . S
C195 C197 1.397 . S
C195 H219 0.931 . S
C196 C195 1.386 . S
C196 C200 1.397 . S
C197 C195 1.397 . S
C197 C198 1.384 . S
C197 H220 0.930 . S
C198 C197 1.384 . S
C198 C199 1.377 . S
C198 C201 1.481 . S
C199 C198 1.377 . S
C199 C200 1.389 . S
C199 H221 0.929 . S
C200 C196 1.397 . S
C200 C199 1.389 . S
C200 H222 0.931 . S
C201 C198 1.481 . S
C201 C202 1.387 . S
C201 C206 1.390 . S
C202 C201 1.387 . S
C202 C203 1.401 . S
C202 H223 0.930 . S
C203 C202 1.401 . S
C203 C204 1.376 . S
C203 C212 1.511 . S
C204 C203 1.376 . S
C204 C205 1.392 . S
C204 H225 0.931 . S
C205 C204 1.392 . S
C205 C206 1.361 . S
C205 C207 1.500 . S
C206 C201 1.390 . S
C206 C205 1.361 . S
C206 H224 0.931 . S
C207 C205 1.500 . S
C207 C208 1.371 . S
C207 C209 1.365 . S
C208 C207 1.371 . S
C208 C218 1.386 . S
C208 H226 0.931 . S
C209 C207 1.365 . S
C209 C210 1.409 . S
C209 H227 0.929 . S
C210 C209 1.409 . S
C210 C211 1.380 . S
C210 H228 0.930 . S
C211 C210 1.380 . S
C211 C218 1.357 . S
C212 C203 1.511 . S
C212 C213 1.341 . S
C212 C214 1.371 . S
C213 C212 1.341 . S
C213 C217 1.394 . S
C213 H229 0.930 . S
C214 C212 1.371 . S
C214 C215 1.392 . S
C214 H230 0.931 . S
C215 C214 1.392 . S
C215 C216 1.331 . S
C215 H233 0.932 . S
C216 C215 1.331 . S
C216 C217 1.336 . S
C217 C213 1.394 . S
C217 C216 1.336 . S
C217 H232 0.929 . S
C218 C208 1.386 . S
C218 C211 1.357 . S
C218 H231 0.928 . S
H219 C195 0.931 . S
H220 C197 0.930 . S
H221 C199 0.929 . S
H222 C200 0.931 . S
H223 C202 0.930 . S
H224 C206 0.931 . S
H225 C204 0.931 . S
H226 C208 0.931 . S
H227 C209 0.929 . S
H228 C210 0.930 . S
H229 C213 0.930 . S
H230 C214 0.931 . S
H231 C218 0.928 . S
H232 C217 0.929 . S
H233 C215 0.932 . S
C234 C235 1.386 . S
C234 C236 1.397 . S
C234 H258 0.931 . S
C235 C234 1.386 . S
C235 C239 1.397 1_655 S
C236 C234 1.397 . S
C236 C237 1.384 . S
C236 H259 0.930 . S
C237 C236 1.384 . S
C237 C238 1.377 . S
C237 C240 1.481 . S
C238 C237 1.377 . S
C238 C239 1.389 1_655 S
C238 H260 0.929 1_655 S
C239 C235 1.397 1_455 S
C239 C238 1.389 1_455 S
C239 H261 0.931 . S
C240 C237 1.481 . S
C240 C241 1.387 . S
C240 C245 1.390 . S
C241 C240 1.387 . S
C241 C242 1.401 . S
C241 H262 0.930 . S
C242 C241 1.401 . S
C242 C243 1.376 . S
C242 C251 1.511 . S
C243 C242 1.376 . S
C243 C244 1.392 . S
C243 H264 0.931 . S
C244 C243 1.392 . S
C244 C245 1.361 . S
C244 C246 1.500 . S
C245 C240 1.390 . S
C245 C244 1.361 . S
C245 H263 0.931 . S
C246 C244 1.500 . S
C246 C247 1.371 . S
C246 C248 1.365 . S
C247 C246 1.371 . S
C247 C257 1.386 . S
C247 H265 0.931 . S
C248 C246 1.365 . S
C248 C249 1.409 . S
C248 H266 0.929 . S
C249 C248 1.409 . S
C249 C250 1.380 . S
C249 H267 0.930 . S
C250 C249 1.380 . S
C250 C257 1.357 . S
C251 C242 1.511 . S
C251 C252 1.341 . S
C251 C253 1.371 . S
C252 C251 1.341 . S
C252 C256 1.394 . S
C252 H268 0.930 . S
C253 C251 1.371 . S
C253 C254 1.392 . S
C253 H269 0.931 . S
C254 C253 1.392 . S
C254 C255 1.331 . S
C254 H272 0.932 . S
C255 C254 1.331 . S
C255 C256 1.336 . S
C256 C252 1.394 . S
C256 C255 1.336 . S
C256 H271 0.929 . S
C257 C247 1.386 . S
C257 C250 1.357 . S
C257 H270 0.928 . S
H258 C234 0.931 . S
H259 C236 0.930 . S
H260 C238 0.929 1_455 S
H261 C239 0.931 . S
H262 C241 0.930 . S
H263 C245 0.931 . S
H264 C243 0.931 . S
H265 C247 0.931 . S
H266 C248 0.929 . S
H267 C249 0.930 . S
H268 C252 0.930 . S
H269 C253 0.931 . S
H270 C257 0.928 . S
H271 C256 0.929 . S
H272 C254 0.932 . S
C273 C274 1.386 . S
C273 C275 1.397 . S
C273 H297 0.931 . S
C274 C273 1.386 . S
C274 C278 1.397 . S
C275 C273 1.397 . S
C275 C276 1.384 . S
C275 H298 0.930 . S
C276 C275 1.384 . S
C276 C277 1.377 . S
C276 C279 1.481 . S
C277 C276 1.377 . S
C277 C278 1.389 . S
C277 H299 0.929 . S
C278 C274 1.397 . S
C278 C277 1.389 . S
C278 H300 0.931 . S
C279 C276 1.481 . S
C279 C280 1.387 . S
C279 C284 1.390 . S
C280 C279 1.387 . S
C280 C281 1.401 . S
C280 H301 0.930 . S
C281 C280 1.401 . S
C281 C282 1.376 . S
C281 C290 1.511 . S
C282 C281 1.376 . S
C282 C283 1.392 . S
C282 H303 0.931 . S
C283 C282 1.392 . S
C283 C284 1.361 . S
C283 C285 1.500 . S
C284 C279 1.390 . S
C284 C283 1.361 . S
C284 H302 0.931 . S
C285 C283 1.500 . S
C285 C286 1.371 . S
C285 C287 1.365 . S
C286 C285 1.371 . S
C286 C296 1.386 . S
C286 H304 0.931 . S
C287 C285 1.365 . S
C287 C288 1.409 . S
C287 H305 0.929 . S
C288 C287 1.409 . S
C288 C289 1.380 . S
C288 H306 0.930 . S
C289 C288 1.380 . S
C289 C296 1.357 . S
C290 C281 1.511 . S
C290 C291 1.341 . S
C290 C292 1.371 . S
C291 C290 1.341 . S
C291 C295 1.394 . S
C291 H307 0.930 . S
C292 C290 1.371 . S
C292 C293 1.392 . S
C292 H308 0.931 . S
C293 C292 1.392 . S
C293 C294 1.331 . S
C293 H311 0.932 . S
C294 C293 1.331 . S
C294 C295 1.336 . S
C295 C291 1.394 . S
C295 C294 1.336 . S
C295 H310 0.929 . S
C296 C286 1.386 . S
C296 C289 1.357 . S
C296 H309 0.928 . S
H297 C273 0.931 . S
H298 C275 0.930 . S
H299 C277 0.929 . S
H300 C278 0.931 . S
H301 C280 0.930 . S
H302 C284 0.931 . S
H303 C282 0.931 . S
H304 C286 0.931 . S
H305 C287 0.929 . S
H306 C288 0.930 . S
H307 C291 0.930 . S
H308 C292 0.931 . S
H309 C296 0.928 . S
H310 C295 0.929 . S
H311 C293 0.932 . S
C312 C313 1.386 . S
C312 C314 1.397 . S
C312 H336 0.931 . S
C313 C312 1.386 . S
C313 C317 1.397 . S
C314 C312 1.397 . S
C314 C315 1.384 . S
C314 H337 0.930 . S
C315 C314 1.384 . S
C315 C316 1.377 . S
C315 C318 1.481 . S
C316 C315 1.377 . S
C316 C317 1.389 . S
C316 H338 0.929 . S
C317 C313 1.397 . S
C317 C316 1.389 . S
C317 H339 0.931 . S
C318 C315 1.481 . S
C318 C319 1.387 . S
C318 C323 1.390 . S
C319 C318 1.387 . S
C319 C320 1.401 . S
C319 H340 0.930 . S
C320 C319 1.401 . S
C320 C321 1.376 . S
C320 C329 1.511 . S
C321 C320 1.376 . S
C321 C322 1.392 . S
C321 H342 0.931 . S
C322 C321 1.392 . S
C322 C323 1.361 . S
C322 C324 1.500 . S
C323 C318 1.390 . S
C323 C322 1.361 . S
C323 H341 0.931 . S
C324 C322 1.500 . S
C324 C325 1.371 . S
C324 C326 1.365 . S
C325 C324 1.371 . S
C325 C335 1.386 . S
C325 H343 0.931 . S
C326 C324 1.365 . S
C326 C327 1.409 . S
C326 H344 0.929 . S
C327 C326 1.409 . S
C327 C328 1.380 . S
C327 H345 0.930 . S
C328 C327 1.380 . S
C328 C335 1.357 . S
C329 C320 1.511 . S
C329 C330 1.341 . S
C329 C331 1.371 . S
C330 C329 1.341 . S
C330 C334 1.394 . S
C330 H346 0.930 . S
C331 C329 1.371 . S
C331 C332 1.392 . S
C331 H347 0.931 . S
C332 C331 1.392 . S
C332 C333 1.331 . S
C332 H350 0.932 . S
C333 C332 1.331 . S
C333 C334 1.336 . S
C334 C330 1.394 . S
C334 C333 1.336 . S
C334 H349 0.929 . S
C335 C325 1.386 . S
C335 C328 1.357 . S
C335 H348 0.928 . S
H336 C312 0.931 . S
H337 C314 0.930 . S
H338 C316 0.929 . S
H339 C317 0.931 . S
H340 C319 0.930 . S
H341 C323 0.931 . S
H342 C321 0.931 . S
H343 C325 0.931 . S
H344 C326 0.929 . S
H345 C327 0.930 . S
H346 C330 0.930 . S
H347 C331 0.931 . S
H348 C335 0.928 . S
H349 C334 0.929 . S
H350 C332 0.932 . S
C351 C352 1.386 . S
C351 C353 1.397 . S
C351 H375 0.931 . S
C352 C351 1.386 . S
C352 C356 1.397 . S
C353 C351 1.397 . S
C353 C354 1.384 . S
C353 H376 0.930 . S
C354 C353 1.384 . S
C354 C355 1.377 . S
C354 C357 1.481 . S
C355 C354 1.377 . S
C355 C356 1.389 . S
C355 H377 0.929 . S
C356 C352 1.397 . S
C356 C355 1.389 . S
C356 H378 0.931 . S
C357 C354 1.481 . S
C357 C358 1.387 . S
C357 C362 1.390 . S
C358 C357 1.387 . S
C358 C359 1.401 . S
C358 H379 0.930 . S
C359 C358 1.401 . S
C359 C360 1.376 . S
C359 C368 1.511 . S
C360 C359 1.376 . S
C360 C361 1.392 . S
C360 H381 0.931 . S
C361 C360 1.392 . S
C361 C362 1.361 . S
C361 C363 1.500 . S
C362 C357 1.390 . S
C362 C361 1.361 . S
C362 H380 0.931 . S
C363 C361 1.500 . S
C363 C364 1.371 . S
C363 C365 1.365 . S
C364 C363 1.371 . S
C364 C374 1.386 . S
C364 H382 0.931 . S
C365 C363 1.365 . S
C365 C366 1.409 . S
C365 H383 0.929 . S
C366 C365 1.409 . S
C366 C367 1.380 . S
C366 H384 0.930 . S
C367 C366 1.380 . S
C367 C374 1.357 . S
C368 C359 1.511 . S
C368 C369 1.341 . S
C368 C370 1.371 . S
C369 C368 1.341 . S
C369 C373 1.394 . S
C369 H385 0.930 . S
C370 C368 1.371 . S
C370 C371 1.392 . S
C370 H386 0.931 . S
C371 C370 1.392 . S
C371 C372 1.331 . S
C371 H389 0.932 . S
C372 C371 1.331 . S
C372 C373 1.336 . S
C373 C369 1.394 . S
C373 C372 1.336 . S
C373 H388 0.929 . S
C374 C364 1.386 . S
C374 C367 1.357 . S
C374 H387 0.928 . S
H375 C351 0.931 . S
H376 C353 0.930 . S
H377 C355 0.929 . S
H378 C356 0.931 . S
H379 C358 0.930 . S
H380 C362 0.931 . S
H381 C360 0.931 . S
H382 C364 0.931 . S
H383 C365 0.929 . S
H384 C366 0.930 . S
H385 C369 0.930 . S
H386 C370 0.931 . S
H387 C374 0.928 . S
H388 C373 0.929 . S
H389 C371 0.932 . S
C390 C391 1.386 . S
C390 C392 1.397 . S
C390 H414 0.931 . S
C391 C390 1.386 . S
C391 C395 1.397 . S
C392 C390 1.397 . S
C392 C393 1.384 . S
C392 H415 0.930 . S
C393 C392 1.384 . S
C393 C394 1.377 . S
C393 C396 1.481 . S
C394 C393 1.377 . S
C394 C395 1.389 . S
C394 H416 0.929 . S
C395 C391 1.397 . S
C395 C394 1.389 . S
C395 H417 0.931 . S
C396 C393 1.481 . S
C396 C397 1.387 . S
C396 C401 1.390 . S
C397 C396 1.387 . S
C397 C398 1.401 . S
C397 H418 0.930 . S
C398 C397 1.401 . S
C398 C399 1.376 . S
C398 C407 1.511 . S
C399 C398 1.376 . S
C399 C400 1.392 . S
C399 H420 0.931 . S
C400 C399 1.392 . S
C400 C401 1.361 . S
C400 C402 1.500 . S
C401 C396 1.390 . S
C401 C400 1.361 . S
C401 H419 0.931 . S
C402 C400 1.500 . S
C402 C403 1.371 . S
C402 C404 1.365 . S
C403 C402 1.371 . S
C403 C413 1.386 . S
C403 H421 0.931 . S
C404 C402 1.365 . S
C404 C405 1.409 . S
C404 H422 0.929 . S
C405 C404 1.409 . S
C405 C406 1.380 . S
C405 H423 0.930 . S
C406 C405 1.380 . S
C406 C413 1.357 . S
C407 C398 1.511 . S
C407 C408 1.341 . S
C407 C409 1.371 . S
C408 C407 1.341 . S
C408 C412 1.394 . S
C408 H424 0.930 . S
C409 C407 1.371 . S
C409 C410 1.392 . S
C409 H425 0.931 . S
C410 C409 1.392 . S
C410 C411 1.331 . S
C410 H428 0.932 . S
C411 C410 1.331 . S
C411 C412 1.336 . S
C412 C408 1.394 . S
C412 C411 1.336 . S
C412 H427 0.929 . S
C413 C403 1.386 . S
C413 C406 1.357 . S
C413 H426 0.928 . S
H414 C390 0.931 . S
H415 C392 0.930 . S
H416 C394 0.929 . S
H417 C395 0.931 . S
H418 C397 0.930 . S
H419 C401 0.931 . S
H420 C399 0.931 . S
H421 C403 0.931 . S
H422 C404 0.929 . S
H423 C405 0.930 . S
H424 C408 0.930 . S
H425 C409 0.931 . S
H426 C413 0.928 . S
H427 C412 0.929 . S
H428 C410 0.932 . S
C429 C430 1.386 . S
C429 C431 1.397 . S
C429 H453 0.931 . S
C430 C429 1.386 . S
C430 C434 1.397 . S
C431 C429 1.397 . S
C431 C432 1.384 . S
C431 H454 0.930 . S
C432 C431 1.384 . S
C432 C433 1.377 . S
C432 C435 1.481 . S
C433 C432 1.377 . S
C433 C434 1.389 . S
C433 H455 0.929 . S
C434 C430 1.397 . S
C434 C433 1.389 . S
C434 H456 0.931 . S
C435 C432 1.481 . S
C435 C436 1.387 . S
C435 C440 1.390 . S
C436 C435 1.387 . S
C436 C437 1.401 . S
C436 H457 0.930 . S
C437 C436 1.401 . S
C437 C438 1.376 . S
C437 C446 1.511 . S
C438 C437 1.376 . S
C438 C439 1.392 . S
C438 H459 0.931 . S
C439 C438 1.392 . S
C439 C440 1.361 . S
C439 C441 1.500 . S
C440 C435 1.390 . S
C440 C439 1.361 . S
C440 H458 0.931 . S
C441 C439 1.500 . S
C441 C442 1.371 . S
C441 C443 1.365 . S
C442 C441 1.371 . S
C442 C452 1.386 . S
C442 H460 0.931 . S
C443 C441 1.365 . S
C443 C444 1.409 . S
C443 H461 0.929 . S
C444 C443 1.409 . S
C444 C445 1.380 . S
C444 H462 0.930 . S
C445 C444 1.380 . S
C445 C452 1.357 . S
C446 C437 1.511 . S
C446 C447 1.341 . S
C446 C448 1.371 . S
C447 C446 1.341 . S
C447 C451 1.394 . S
C447 H463 0.930 . S
C448 C446 1.371 . S
C448 C449 1.392 . S
C448 H464 0.931 . S
C449 C448 1.392 . S
C449 C450 1.331 . S
C449 H467 0.932 . S
C450 C449 1.331 . S
C450 C451 1.336 . S
C451 C447 1.394 . S
C451 C450 1.336 . S
C451 H466 0.929 . S
C452 C442 1.386 . S
C452 C445 1.357 . S
C452 H465 0.928 . S
H453 C429 0.931 . S
H454 C431 0.930 . S
H455 C433 0.929 . S
H456 C434 0.931 . S
H457 C436 0.930 . S
H458 C440 0.931 . S
H459 C438 0.931 . S
H460 C442 0.931 . S
H461 C443 0.929 . S
H462 C444 0.930 . S
H463 C447 0.930 . S
H464 C448 0.931 . S
H465 C452 0.928 . S
H466 C451 0.929 . S
H467 C449 0.932 . S
C468 C469 1.386 . S
C468 C470 1.397 . S
C468 H492 0.931 . S
C469 C468 1.386 . S
C469 C473 1.397 . S
C470 C468 1.397 . S
C470 C471 1.384 . S
C470 H493 0.930 . S
C471 C470 1.384 . S
C471 C472 1.377 . S
C471 C474 1.481 . S
C472 C471 1.377 . S
C472 C473 1.389 . S
C472 H494 0.929 . S
C473 C469 1.397 . S
C473 C472 1.389 . S
C473 H495 0.931 . S
C474 C471 1.481 . S
C474 C475 1.387 . S
C474 C479 1.390 . S
C475 C474 1.387 . S
C475 C476 1.401 . S
C475 H496 0.930 . S
C476 C475 1.401 . S
C476 C477 1.376 . S
C476 C485 1.511 . S
C477 C476 1.376 . S
C477 C478 1.392 . S
C477 H498 0.931 . S
C478 C477 1.392 . S
C478 C479 1.361 . S
C478 C480 1.500 . S
C479 C474 1.390 . S
C479 C478 1.361 . S
C479 H497 0.931 . S
C480 C478 1.500 . S
C480 C481 1.371 . S
C480 C482 1.365 . S
C481 C480 1.371 . S
C481 C491 1.386 . S
C481 H499 0.931 . S
C482 C480 1.365 . S
C482 C483 1.409 . S
C482 H500 0.929 . S
C483 C482 1.409 . S
C483 C484 1.380 . S
C483 H501 0.930 . S
C484 C483 1.380 . S
C484 C491 1.357 . S
C485 C476 1.511 . S
C485 C486 1.341 . S
C485 C487 1.371 . S
C486 C485 1.341 . S
C486 C490 1.394 . S
C486 H502 0.930 . S
C487 C485 1.371 . S
C487 C488 1.392 . S
C487 H503 0.931 . S
C488 C487 1.392 . S
C488 C489 1.331 . S
C488 H506 0.932 . S
C489 C488 1.331 . S
C489 C490 1.336 . S
C490 C486 1.394 . S
C490 C489 1.336 . S
C490 H505 0.929 . S
C491 C481 1.386 . S
C491 C484 1.357 . S
C491 H504 0.928 . S
H492 C468 0.931 . S
H493 C470 0.930 . S
H494 C472 0.929 . S
H495 C473 0.931 . S
H496 C475 0.930 . S
H497 C479 0.931 . S
H498 C477 0.931 . S
H499 C481 0.931 . S
H500 C482 0.929 . S
H501 C483 0.930 . S
H502 C486 0.930 . S
H503 C487 0.931 . S
H504 C491 0.928 . S
H505 C490 0.929 . S
H506 C488 0.932 . S
C507 C508 1.386 . S
C507 C509 1.397 . S
C507 H531 0.931 . S
C508 C507 1.386 . S
C508 C512 1.397 . S
C509 C507 1.397 . S
C509 C510 1.384 . S
C509 H532 0.930 . S
C510 C509 1.384 . S
C510 C511 1.377 . S
C510 C513 1.481 . S
C511 C510 1.377 . S
C511 C512 1.389 . S
C511 H533 0.929 . S
C512 C508 1.397 . S
C512 C511 1.389 . S
C512 H534 0.931 . S
C513 C510 1.481 . S
C513 C514 1.387 . S
C513 C518 1.390 . S
C514 C513 1.387 . S
C514 C515 1.401 . S
C514 H535 0.930 . S
C515 C514 1.401 . S
C515 C516 1.376 . S
C515 C524 1.511 . S
C516 C515 1.376 . S
C516 C517 1.392 . S
C516 H537 0.931 . S
C517 C516 1.392 . S
C517 C518 1.361 . S
C517 C519 1.500 . S
C518 C513 1.390 . S
C518 C517 1.361 . S
C518 H536 0.931 . S
C519 C517 1.500 . S
C519 C520 1.371 . S
C519 C521 1.365 . S
C520 C519 1.371 . S
C520 C530 1.386 . S
C520 H538 0.931 . S
C521 C519 1.365 . S
C521 C522 1.409 . S
C521 H539 0.929 . S
C522 C521 1.409 . S
C522 C523 1.380 . S
C522 H540 0.930 . S
C523 C522 1.380 . S
C523 C530 1.357 . S
C524 C515 1.511 . S
C524 C525 1.341 . S
C524 C526 1.371 . S
C525 C524 1.341 . S
C525 C529 1.394 . S
C525 H541 0.930 . S
C526 C524 1.371 . S
C526 C527 1.392 . S
C526 H542 0.931 . S
C527 C526 1.392 . S
C527 C528 1.331 . S
C527 H545 0.932 . S
C528 C527 1.331 . S
C528 C529 1.336 . S
C529 C525 1.394 . S
C529 C528 1.336 . S
C529 H544 0.929 . S
C530 C520 1.386 . S
C530 C523 1.357 . S
C530 H543 0.928 . S
H531 C507 0.931 . S
H532 C509 0.930 . S
H533 C511 0.929 . S
H534 C512 0.931 . S
H535 C514 0.930 . S
H536 C518 0.931 . S
H537 C516 0.931 . S
H538 C520 0.931 . S
H539 C521 0.929 . S
H540 C522 0.930 . S
H541 C525 0.930 . S
H542 C526 0.931 . S
H543 C530 0.928 . S
H544 C529 0.929 . S
H545 C527 0.932 . S
C546 C547 1.386 . S
C546 C548 1.397 . S
C546 H570 0.931 . S
C547 C546 1.386 . S
C547 C551 1.397 . S
C548 C546 1.397 . S
C548 C549 1.384 . S
C548 H571 0.930 . S
C549 C548 1.384 . S
C549 C550 1.377 . S
C549 C552 1.481 . S
C550 C549 1.377 . S
C550 C551 1.389 . S
C550 H572 0.929 . S
C551 C547 1.397 . S
C551 C550 1.389 . S
C551 H573 0.931 . S
C552 C549 1.481 . S
C552 C553 1.387 . S
C552 C557 1.390 . S
C553 C552 1.387 . S
C553 C554 1.401 . S
C553 H574 0.930 . S
C554 C553 1.401 . S
C554 C555 1.376 . S
C554 C563 1.511 . S
C555 C554 1.376 . S
C555 C556 1.392 . S
C555 H576 0.931 . S
C556 C555 1.392 . S
C556 C557 1.361 . S
C556 C558 1.500 . S
C557 C552 1.390 . S
C557 C556 1.361 . S
C557 H575 0.931 . S
C558 C556 1.500 . S
C558 C559 1.371 . S
C558 C560 1.365 . S
C559 C558 1.371 . S
C559 C569 1.386 . S
C559 H577 0.931 . S
C560 C558 1.365 . S
C560 C561 1.409 . S
C560 H578 0.929 . S
C561 C560 1.409 . S
C561 C562 1.380 . S
C561 H579 0.930 . S
C562 C561 1.380 . S
C562 C569 1.357 . S
C563 C554 1.511 . S
C563 C564 1.341 . S
C563 C565 1.371 . S
C564 C563 1.341 . S
C564 C568 1.394 . S
C564 H580 0.930 . S
C565 C563 1.371 . S
C565 C566 1.392 . S
C565 H581 0.931 . S
C566 C565 1.392 . S
C566 C567 1.331 . S
C566 H584 0.932 . S
C567 C566 1.331 . S
C567 C568 1.336 . S
C568 C564 1.394 . S
C568 C567 1.336 . S
C568 H583 0.929 . S
C569 C559 1.386 . S
C569 C562 1.357 . S
C569 H582 0.928 . S
H570 C546 0.931 . S
H571 C548 0.930 . S
H572 C550 0.929 . S
H573 C551 0.931 . S
H574 C553 0.930 . S
H575 C557 0.931 . S
H576 C555 0.931 . S
H577 C559 0.931 . S
H578 C560 0.929 . S
H579 C561 0.930 . S
H580 C564 0.930 . S
H581 C565 0.931 . S
H582 C569 0.928 . S
H583 C568 0.929 . S
H584 C566 0.932 . S
C585 C586 1.386 . S
C585 C587 1.397 . S
C585 H609 0.931 . S
C586 C585 1.386 . S
C586 C590 1.397 . S
C587 C585 1.397 . S
C587 C588 1.384 . S
C587 H610 0.930 . S
C588 C587 1.384 . S
C588 C589 1.377 . S
C588 C591 1.481 . S
C589 C588 1.377 . S
C589 C590 1.389 . S
C589 H611 0.929 . S
C590 C586 1.397 . S
C590 C589 1.389 . S
C590 H612 0.931 . S
C591 C588 1.481 . S
C591 C592 1.387 . S
C591 C596 1.390 . S
C592 C591 1.387 . S
C592 C593 1.401 . S
C592 H613 0.930 . S
C593 C592 1.401 . S
C593 C594 1.376 . S
C593 C602 1.511 . S
C594 C593 1.376 . S
C594 C595 1.392 . S
C594 H615 0.931 . S
C595 C594 1.392 . S
C595 C596 1.361 . S
C595 C597 1.500 . S
C596 C591 1.390 . S
C596 C595 1.361 . S
C596 H614 0.931 . S
C597 C595 1.500 . S
C597 C598 1.371 . S
C597 C599 1.365 . S
C598 C597 1.371 . S
C598 C608 1.386 . S
C598 H616 0.931 . S
C599 C597 1.365 . S
C599 C600 1.409 . S
C599 H617 0.929 . S
C600 C599 1.409 . S
C600 C601 1.380 . S
C600 H618 0.930 . S
C601 C600 1.380 . S
C601 C608 1.357 . S
C602 C593 1.511 . S
C602 C603 1.341 . S
C602 C604 1.371 . S
C603 C602 1.341 . S
C603 C607 1.394 . S
C603 H619 0.930 . S
C604 C602 1.371 . S
C604 C605 1.392 . S
C604 H620 0.931 . S
C605 C604 1.392 . S
C605 C606 1.331 . S
C605 H623 0.932 . S
C606 C605 1.331 . S
C606 C607 1.336 . S
C607 C603 1.394 . S
C607 C606 1.336 . S
C607 H622 0.929 . S
C608 C598 1.386 . S
C608 C601 1.357 . S
C608 H621 0.928 . S
H609 C585 0.931 . S
H610 C587 0.930 . S
H611 C589 0.929 . S
H612 C590 0.931 . S
H613 C592 0.930 . S
H614 C596 0.931 . S
H615 C594 0.931 . S
H616 C598 0.931 . S
H617 C599 0.929 . S
H618 C600 0.930 . S
H619 C603 0.930 . S
H620 C604 0.931 . S
H621 C608 0.928 . S
H622 C607 0.929 . S
H623 C605 0.932 . S
C624 C625 1.382 1_655 S
C624 C626 1.388 1_655 S
C624 H648 0.947 . S
C625 C624 1.382 1_455 S
C625 C629 1.397 . S
C626 C624 1.388 1_455 S
C626 C627 1.384 . S
C626 H649 0.926 1_455 S
C627 C626 1.384 . S
C627 C628 1.377 . S
C627 C630 1.481 . S
C628 C627 1.377 . S
C628 C629 1.389 . S
C628 H650 0.929 . S
C629 C625 1.397 . S
C629 C628 1.389 . S
C629 H651 0.931 . S
C630 C627 1.481 . S
C630 C631 1.387 . S
C630 C635 1.390 . S
C631 C630 1.387 . S
C631 C632 1.401 . S
C631 H652 0.930 . S
C632 C631 1.401 . S
C632 C633 1.376 . S
C632 C641 1.511 . S
C633 C632 1.376 . S
C633 C634 1.392 . S
C633 H654 0.931 . S
C634 C633 1.392 . S
C634 C635 1.361 . S
C634 C636 1.500 . S
C635 C630 1.390 . S
C635 C634 1.361 . S
C635 H653 0.931 . S
C636 C634 1.500 . S
C636 C637 1.371 . S
C636 C638 1.365 . S
C637 C636 1.371 . S
C637 C647 1.386 . S
C637 H655 0.931 . S
C638 C636 1.365 . S
C638 C639 1.409 . S
C638 H656 0.929 . S
C639 C638 1.409 . S
C639 C640 1.380 . S
C639 H657 0.930 . S
C640 C639 1.380 . S
C640 C647 1.357 . S
C641 C632 1.511 . S
C641 C642 1.341 . S
C641 C643 1.371 . S
C642 C641 1.341 . S
C642 C646 1.394 . S
C642 H658 0.930 . S
C643 C641 1.371 . S
C643 C644 1.392 . S
C643 H659 0.931 . S
C644 C643 1.392 . S
C644 C645 1.331 . S
C644 H662 0.932 . S
C645 C644 1.331 . S
C645 C646 1.336 . S
C646 C642 1.394 . S
C646 C645 1.336 . S
C646 H661 0.929 . S
C647 C637 1.386 . S
C647 C640 1.357 . S
C647 H660 0.928 . S
H648 C624 0.947 . S
H649 C626 0.926 1_655 S
H650 C628 0.929 . S
H651 C629 0.931 . S
H652 C631 0.930 . S
H653 C635 0.931 . S
H654 C633 0.931 . S
H655 C637 0.931 . S
H656 C638 0.929 . S
H657 C639 0.930 . S
H658 C642 0.930 . S
H659 C643 0.931 . S
H660 C647 0.928 . S
H661 C646 0.929 . S
H662 C644 0.932 . S
C663 C664 1.386 . S
C663 C665 1.397 . S
C663 H687 0.931 . S
C664 C663 1.386 . S
C664 C668 1.397 . S
C665 C663 1.397 . S
C665 C666 1.384 . S
C665 H688 0.930 . S
C666 C665 1.384 . S
C666 C667 1.377 . S
C666 C669 1.481 . S
C667 C666 1.377 . S
C667 C668 1.389 . S
C667 H689 0.929 . S
C668 C664 1.397 . S
C668 C667 1.389 . S
C668 H690 0.931 . S
C669 C666 1.481 . S
C669 C670 1.387 . S
C669 C674 1.390 . S
C670 C669 1.387 . S
C670 C671 1.401 . S
C670 H691 0.930 . S
C671 C670 1.401 . S
C671 C672 1.376 . S
C671 C680 1.511 . S
C672 C671 1.376 . S
C672 C673 1.392 . S
C672 H693 0.931 . S
C673 C672 1.392 . S
C673 C674 1.361 . S
C673 C675 1.500 . S
C674 C669 1.390 . S
C674 C673 1.361 . S
C674 H692 0.931 . S
C675 C673 1.500 . S
C675 C676 1.371 . S
C675 C677 1.365 . S
C676 C675 1.371 . S
C676 C686 1.386 . S
C676 H694 0.931 . S
C677 C675 1.365 . S
C677 C678 1.409 . S
C677 H695 0.929 . S
C678 C677 1.409 . S
C678 C679 1.380 . S
C678 H696 0.930 . S
C679 C678 1.380 . S
C679 C686 1.357 . S
C680 C671 1.511 . S
C680 C681 1.341 . S
C680 C682 1.371 . S
C681 C680 1.341 . S
C681 C685 1.394 . S
C681 H697 0.930 . S
C682 C680 1.371 . S
C682 C683 1.392 . S
C682 H698 0.931 . S
C683 C682 1.392 . S
C683 C684 1.331 . S
C683 H701 0.932 . S
C684 C683 1.331 . S
C684 C685 1.336 . S
C685 C681 1.394 . S
C685 C684 1.336 . S
C685 H700 0.929 . S
C686 C676 1.386 . S
C686 C679 1.357 . S
C686 H699 0.928 . S
H687 C663 0.931 . S
H688 C665 0.930 . S
H689 C667 0.929 . S
H690 C668 0.931 . S
H691 C670 0.930 . S
H692 C674 0.931 . S
H693 C672 0.931 . S
H694 C676 0.931 . S
H695 C677 0.929 . S
H696 C678 0.930 . S
H697 C681 0.930 . S
H698 C682 0.931 . S
H699 C686 0.928 . S
H700 C685 0.929 . S
H701 C683 0.932 . S
C702 Eu703 2.835 . S
C702 C704 1.500 . S
C702 O722 1.257 1_545 S
C702 O723 1.260 . S
Eu703 C702 2.835 . S
Eu703 O722 2.473 1_545 S
Eu703 O723 2.480 . S
Eu703 O724 2.430 . S
Eu703 O725 2.670 1_554 S
Eu703 O726 2.394 1_545 S
Eu703 O731 2.355 1_545 S
Eu703 O733 2.374 . S
C704 C702 1.500 . S
C704 C705 1.377 . S
C704 C709 1.377 1_545 S
C705 C704 1.377 . S
C705 C706 1.395 . S
C705 H734 0.931 . S
C706 C705 1.395 . S
C706 C707 1.383 1_545 S
C706 H735 0.931 . S
C707 C706 1.383 1_565 S
C707 C708 1.394 . S
C708 C707 1.394 . S
C708 C709 1.378 . S
C708 H736 0.931 . S
C709 C704 1.377 1_565 S
C709 C708 1.378 . S
C709 H737 0.931 . S
C710 O724 1.253 . S
C710 O725 1.272 1_554 S
C711 O726 1.251 . S
C711 O727 1.251 1_554 S
C712 Eu713 2.835 . S
C712 C714 1.500 . S
C712 O728 1.257 1_565 S
C712 O729 1.260 . S
Eu713 C712 2.835 . S
Eu713 O725 2.355 1_565 S
Eu713 O727 2.374 . S
Eu713 O728 2.473 1_565 S
Eu713 O729 2.480 . S
Eu713 O730 2.430 . S
Eu713 O731 2.670 1_556 S
Eu713 O732 2.394 1_565 S
C714 C712 1.500 . S
C714 C715 1.377 . S
C714 C719 1.377 1_565 S
C715 C714 1.377 . S
C715 C716 1.395 . S
C715 H738 0.931 . S
C716 C715 1.395 . S
C716 C717 1.383 1_565 S
C716 H739 0.931 . S
C717 C716 1.383 1_545 S
C717 C718 1.394 . S
C718 C717 1.394 . S
C718 C719 1.378 . S
C718 H740 0.931 . S
C719 C714 1.377 1_545 S
C719 C718 1.378 . S
C719 H741 0.931 . S
C720 O730 1.259 1_554 S
C720 O731 1.270 . S
C721 O732 1.251 . S
C721 O733 1.251 1_556 S
O722 C702 1.257 1_565 S
O722 Eu703 2.473 1_565 S
O723 C702 1.260 . S
O723 Eu703 2.480 . S
O724 Eu703 2.430 . S
O724 C710 1.253 . S
O725 Eu703 2.670 1_556 S
O725 C710 1.272 1_556 S
O725 Eu713 2.355 1_545 S
O726 Eu703 2.394 1_565 S
O726 C711 1.251 . S
O727 C711 1.251 1_556 S
O727 Eu713 2.374 . S
O728 C712 1.257 1_545 S
O728 Eu713 2.473 1_545 S
O729 C712 1.260 . S
O729 Eu713 2.480 . S
O730 Eu713 2.430 . S
O730 C720 1.259 1_556 S
O731 Eu703 2.355 1_565 S
O731 Eu713 2.670 1_554 S
O731 C720 1.270 . S
O732 Eu713 2.394 1_545 S
O732 C721 1.251 . S
O733 Eu703 2.374 . S
O733 C721 1.251 1_554 S
H734 C705 0.931 . S
H735 C706 0.931 . S
H736 C708 0.931 . S
H737 C709 0.931 . S
H738 C715 0.931 . S
H739 C716 0.931 . S
H740 C718 0.931 . S
H741 C719 0.931 . S
C742 Eu743 2.835 . S
C742 C744 1.500 1_655 S
C742 O762 1.257 1_655 S
C742 O763 1.260 . S
Eu743 C742 2.835 . S
Eu743 O762 2.473 1_655 S
Eu743 O763 2.480 . S
Eu743 O764 2.430 . S
Eu743 O765 2.670 1_554 S
Eu743 O766 2.394 1_655 S
Eu743 O771 2.355 1_655 S
Eu743 O773 2.374 . S
C744 C742 1.500 1_455 S
C744 C745 1.377 1_455 S
C744 C749 1.377 . S
C745 C744 1.377 1_655 S
C745 C746 1.395 . S
C745 H774 0.931 . S
C746 C745 1.395 . S
C746 C747 1.383 1_655 S
C746 H775 0.931 . S
C747 C746 1.383 1_455 S
C747 C748 1.394 . S
C748 C747 1.394 . S
C748 C749 1.378 . S
C748 H776 0.931 . S
C749 C744 1.377 . S
C749 C748 1.378 . S
C749 H777 0.931 . S
C750 O764 1.259 1_556 S
C750 O765 1.270 . S
C751 O766 1.251 . S
C751 O767 1.251 . S
C752 Eu753 2.835 . S
C752 C754 1.500 1_455 S
C752 O768 1.257 1_455 S
C752 O769 1.260 . S
Eu753 C752 2.835 . S
Eu753 O765 2.355 1_455 S
Eu753 O767 2.374 1_556 S
Eu753 O768 2.473 1_455 S
Eu753 O769 2.480 . S
Eu753 O770 2.430 . S
Eu753 O771 2.670 1_556 S
Eu753 O772 2.394 1_455 S
C754 C752 1.500 1_655 S
C754 C755 1.377 1_655 S
C754 C759 1.377 . S
C755 C754 1.377 1_455 S
C755 C756 1.395 . S
C755 H778 0.931 . S
C756 C755 1.395 . S
C756 C757 1.383 1_455 S
C756 H779 0.931 . S
C757 C756 1.383 1_655 S
C757 C758 1.394 . S
C758 C757 1.394 . S
C758 C759 1.378 . S
C758 H780 0.931 . S
C759 C754 1.377 . S
C759 C758 1.378 . S
C759 H781 0.931 . S
C760 O770 1.259 1_554 S
C760 O771 1.270 . S
C761 O772 1.251 . S
C761 O773 1.251 1_556 S
O762 C742 1.257 1_455 S
O762 Eu743 2.473 1_455 S
O763 C742 1.260 . S
O763 Eu743 2.480 . S
O764 Eu743 2.430 . S
O764 C750 1.259 1_554 S
O765 Eu743 2.670 1_556 S
O765 C750 1.270 . S
O765 Eu753 2.355 1_655 S
O766 Eu743 2.394 1_455 S
O766 C751 1.251 . S
O767 C751 1.251 . S
O767 Eu753 2.374 1_554 S
O768 C752 1.257 1_655 S
O768 Eu753 2.473 1_655 S
O769 C752 1.260 . S
O769 Eu753 2.480 . S
O770 Eu753 2.430 . S
O770 C760 1.259 1_556 S
O771 Eu743 2.355 1_455 S
O771 Eu753 2.670 1_554 S
O771 C760 1.270 . S
O772 Eu753 2.394 1_655 S
O772 C761 1.251 . S
O773 Eu743 2.374 . S
O773 C761 1.251 1_554 S
H774 C745 0.931 . S
H775 C746 0.931 . S
H776 C748 0.931 . S
H777 C749 0.931 . S
H778 C755 0.931 . S
H779 C756 0.931 . S
H780 C758 0.931 . S
H781 C759 0.931 . S
C782 Eu783 2.835 . S
C782 C784 1.500 . S
C782 O802 1.257 . S
C782 O803 1.260 . S
Eu783 C782 2.835 . S
Eu783 O802 2.473 . S
Eu783 O803 2.480 . S
Eu783 O804 2.430 . S
Eu783 O805 2.670 1_556 S
Eu783 O806 2.394 . S
Eu783 O811 2.355 . S
Eu783 O813 2.355 1_556 S
C784 C782 1.500 . S
C784 C785 1.377 . S
C784 C789 1.377 . S
C785 C784 1.377 . S
C785 C786 1.395 . S
C785 H814 0.931 . S
C786 C785 1.395 . S
C786 C787 1.383 . S
C786 H815 0.931 . S
C787 C786 1.383 . S
C787 C788 1.394 . S
C788 C787 1.394 . S
C788 C789 1.378 . S
C788 H816 0.931 . S
C789 C784 1.377 . S
C789 C788 1.378 . S
C789 H817 0.931 . S
C790 O804 1.259 1_554 S
C790 O805 1.270 . S
C791 O806 1.251 . S
C791 O807 1.251 1_556 S
C792 Eu793 2.835 . S
C792 C794 1.500 . S
C792 O808 1.257 . S
C792 O809 1.260 . S
Eu793 C792 2.835 . S
Eu793 O805 2.355 . S
Eu793 O807 2.374 . S
Eu793 O808 2.473 . S
Eu793 O809 2.480 . S
Eu793 O810 2.430 . S
Eu793 O811 2.670 1_554 S
Eu793 O812 2.394 . S
C794 C792 1.500 . S
C794 C795 1.377 . S
C794 C799 1.377 . S
C795 C794 1.377 . S
C795 C796 1.395 . S
C795 H818 0.931 . S
C796 C795 1.395 . S
C796 C797 1.383 . S
C796 H819 0.931 . S
C797 C796 1.383 . S
C797 C798 1.394 . S
C798 C797 1.394 . S
C798 C799 1.378 . S
C798 H820 0.931 . S
C799 C794 1.377 . S
C799 C798 1.378 . S
C799 H821 0.931 . S
C800 O810 1.259 1_556 S
C800 O811 1.270 . S
C801 O812 1.251 . S
C801 O813 1.276 . S
O802 C782 1.257 . S
O802 Eu783 2.473 . S
O803 C782 1.260 . S
O803 Eu783 2.480 . S
O804 Eu783 2.430 . S
O804 C790 1.259 1_556 S
O805 Eu783 2.670 1_554 S
O805 C790 1.270 . S
O805 Eu793 2.355 . S
O806 Eu783 2.394 . S
O806 C791 1.251 . S
O807 C791 1.251 1_554 S
O807 Eu793 2.374 . S
O808 C792 1.257 . S
O808 Eu793 2.473 . S
O809 C792 1.260 . S
O809 Eu793 2.480 . S
O810 Eu793 2.430 . S
O810 C800 1.259 1_554 S
O811 Eu783 2.355 . S
O811 Eu793 2.670 1_556 S
O811 C800 1.270 . S
O812 Eu793 2.394 . S
O812 C801 1.251 . S
O813 Eu783 2.355 1_554 S
O813 C801 1.276 . S
H814 C785 0.931 . S
H815 C786 0.931 . S
H816 C788 0.931 . S
H817 C789 0.931 . S
H818 C795 0.931 . S
H819 C796 0.931 . S
H820 C798 0.931 . S
H821 C799 0.931 . S
C822 Eu823 2.835 . S
C822 C824 1.500 . S
C822 O842 1.257 . S
C822 O843 1.260 . S
Eu823 C822 2.835 . S
Eu823 O842 2.473 . S
Eu823 O843 2.480 . S
Eu823 O844 2.430 . S
Eu823 O845 2.670 . S
Eu823 O846 2.394 . S
Eu823 O851 2.355 . S
Eu823 O853 2.374 . S
C824 C822 1.500 . S
C824 C825 1.377 . S
C824 C829 1.377 . S
C825 C824 1.377 . S
C825 C826 1.395 . S
C825 H854 0.931 . S
C826 C825 1.395 . S
C826 C827 1.383 . S
C826 H855 0.931 . S
C827 C826 1.383 . S
C827 C828 1.394 . S
C828 C827 1.394 . S
C828 C829 1.378 . S
C828 H856 0.931 . S
C829 C824 1.377 . S
C829 C828 1.378 . S
C829 H857 0.931 . S
C830 O844 1.259 . S
C830 O845 1.270 . S
C831 O846 1.251 . S
C831 O847 1.251 . S
C832 Eu833 2.835 . S
C832 C834 1.500 . S
C832 O848 1.257 . S
C832 O849 1.260 . S
Eu833 C832 2.835 . S
Eu833 O845 2.355 . S
Eu833 O847 2.374 . S
Eu833 O848 2.473 . S
Eu833 O849 2.480 . S
Eu833 O850 2.430 . S
Eu833 O851 2.670 . S
Eu833 O852 2.394 . S
C834 C832 1.500 . S
C834 C835 1.377 . S
C834 C839 1.377 . S
C835 C834 1.377 . S
C835 C836 1.395 . S
C835 H858 0.931 . S
C836 C835 1.395 . S
C836 C837 1.383 . S
C836 H859 0.931 . S
C837 C836 1.383 . S
C837 C838 1.394 . S
C838 C837 1.394 . S
C838 C839 1.378 . S
C838 H860 0.931 . S
C839 C834 1.377 . S
C839 C838 1.378 . S
C839 H861 0.931 . S
C840 O850 1.259 . S
C840 O851 1.270 . S
C841 O852 1.251 . S
C841 O853 1.251 . S
O842 C822 1.257 . S
O842 Eu823 2.473 . S
O843 C822 1.260 . S
O843 Eu823 2.480 . S
O844 Eu823 2.430 . S
O844 C830 1.259 . S
O845 Eu823 2.670 . S
O845 C830 1.270 . S
O845 Eu833 2.355 . S
O846 Eu823 2.394 . S
O846 C831 1.251 . S
O847 C831 1.251 . S
O847 Eu833 2.374 . S
O848 C832 1.257 . S
O848 Eu833 2.473 . S
O849 C832 1.260 . S
O849 Eu833 2.480 . S
O850 Eu833 2.430 . S
O850 C840 1.259 . S
O851 Eu823 2.355 . S
O851 Eu833 2.670 . S
O851 C840 1.270 . S
O852 Eu833 2.394 . S
O852 C841 1.251 . S
O853 Eu823 2.374 . S
O853 C841 1.251 . S
H854 C825 0.931 . S
H855 C826 0.931 . S
H856 C828 0.931 . S
H857 C829 0.931 . S
H858 C835 0.931 . S
H859 C836 0.931 . S
H860 C838 0.931 . S
H861 C839 0.931 . S
C862 Eu863 2.835 . S
C862 C864 1.500 . S
C862 O882 1.257 . S
C862 O883 1.260 . S
Eu863 C862 2.835 . S
Eu863 O882 2.473 . S
Eu863 O883 2.480 . S
Eu863 O884 2.430 . S
Eu863 O885 2.670 . S
Eu863 O886 2.394 . S
Eu863 O891 2.355 . S
Eu863 O893 2.374 . S
C864 C862 1.500 . S
C864 C865 1.377 . S
C864 C869 1.377 . S
C865 C864 1.377 . S
C865 C866 1.395 . S
C865 H894 0.931 . S
C866 C865 1.395 . S
C866 C867 1.383 . S
C866 H895 0.931 . S
C867 C866 1.383 . S
C867 C868 1.394 . S
C868 C867 1.394 . S
C868 C869 1.378 . S
C868 H896 0.931 . S
C869 C864 1.377 . S
C869 C868 1.378 . S
C869 H897 0.931 . S
C870 O884 1.259 . S
C870 O885 1.270 . S
C871 O886 1.251 . S
C871 O887 1.251 . S
C872 Eu873 2.835 . S
C872 C874 1.500 . S
C872 O888 1.257 . S
C872 O889 1.260 . S
Eu873 C872 2.835 . S
Eu873 O885 2.355 . S
Eu873 O887 2.374 . S
Eu873 O888 2.473 . S
Eu873 O889 2.480 . S
Eu873 O890 2.430 . S
Eu873 O891 2.670 . S
Eu873 O892 2.394 . S
C874 C872 1.500 . S
C874 C875 1.377 . S
C874 C879 1.377 . S
C875 C874 1.377 . S
C875 C876 1.395 . S
C875 H898 0.931 . S
C876 C875 1.395 . S
C876 C877 1.383 . S
C876 H899 0.931 . S
C877 C876 1.383 . S
C877 C878 1.394 . S
C878 C877 1.394 . S
C878 C879 1.378 . S
C878 H900 0.931 . S
C879 C874 1.377 . S
C879 C878 1.378 . S
C879 H901 0.931 . S
C880 O890 1.259 . S
C880 O891 1.270 . S
C881 O892 1.251 . S
C881 O893 1.251 . S
O882 C862 1.257 . S
O882 Eu863 2.473 . S
O883 C862 1.260 . S
O883 Eu863 2.480 . S
O884 Eu863 2.430 . S
O884 C870 1.259 . S
O885 Eu863 2.670 . S
O885 C870 1.270 . S
O885 Eu873 2.355 . S
O886 Eu863 2.394 . S
O886 C871 1.251 . S
O887 C871 1.251 . S
O887 Eu873 2.374 . S
O888 C872 1.257 . S
O888 Eu873 2.473 . S
O889 C872 1.260 . S
O889 Eu873 2.480 . S
O890 Eu873 2.430 . S
O890 C880 1.259 . S
O891 Eu863 2.355 . S
O891 Eu873 2.670 . S
O891 C880 1.270 . S
O892 Eu873 2.394 . S
O892 C881 1.251 . S
O893 Eu863 2.374 . S
O893 C881 1.251 . S
H894 C865 0.931 . S
H895 C866 0.931 . S
H896 C868 0.931 . S
H897 C869 0.931 . S
H898 C875 0.931 . S
H899 C876 0.931 . S
H900 C878 0.931 . S
H901 C879 0.931 . S
C902 Eu903 2.835 . S
C902 C904 1.500 . S
C902 O922 1.257 . S
C902 O923 1.260 . S
Eu903 C902 2.835 . S
Eu903 O922 2.473 . S
Eu903 O923 2.480 . S
Eu903 O924 2.430 . S
Eu903 O925 2.670 . S
Eu903 O926 2.394 . S
Eu903 O931 2.355 . S
Eu903 O933 2.374 . S
C904 C902 1.500 . S
C904 C905 1.377 . S
C904 C909 1.377 . S
C905 C904 1.377 . S
C905 C906 1.395 . S
C905 H934 0.931 . S
C906 C905 1.395 . S
C906 C907 1.383 . S
C906 H935 0.931 . S
C907 C906 1.383 . S
C907 C908 1.394 . S
C908 C907 1.394 . S
C908 C909 1.378 . S
C908 H936 0.931 . S
C909 C904 1.377 . S
C909 C908 1.378 . S
C909 H937 0.931 . S
C910 O924 1.259 . S
C910 O925 1.270 . S
C911 O926 1.251 . S
C911 O927 1.251 . S
C912 Eu913 2.835 . S
C912 C914 1.500 . S
C912 O928 1.257 . S
C912 O929 1.260 . S
Eu913 C912 2.835 . S
Eu913 O925 2.355 . S
Eu913 O927 2.374 . S
Eu913 O928 2.473 . S
Eu913 O929 2.480 . S
Eu913 O930 2.430 . S
Eu913 O931 2.670 . S
Eu913 O932 2.394 . S
C914 C912 1.500 . S
C914 C915 1.377 . S
C914 C919 1.377 . S
C915 C914 1.377 . S
C915 C916 1.395 . S
C915 H938 0.931 . S
C916 C915 1.395 . S
C916 C917 1.383 . S
C916 H939 0.931 . S
C917 C916 1.383 . S
C917 C918 1.394 . S
C918 C917 1.394 . S
C918 C919 1.378 . S
C918 H940 0.931 . S
C919 C914 1.377 . S
C919 C918 1.378 . S
C919 H941 0.931 . S
C920 O930 1.259 . S
C920 O931 1.270 . S
C921 O932 1.251 . S
C921 O933 1.251 . S
O922 C902 1.257 . S
O922 Eu903 2.473 . S
O923 C902 1.260 . S
O923 Eu903 2.480 . S
O924 Eu903 2.430 . S
O924 C910 1.259 . S
O925 Eu903 2.670 . S
O925 C910 1.270 . S
O925 Eu913 2.355 . S
O926 Eu903 2.394 . S
O926 C911 1.251 . S
O927 C911 1.251 . S
O927 Eu913 2.374 . S
O928 C912 1.257 . S
O928 Eu913 2.473 . S
O929 C912 1.260 . S
O929 Eu913 2.480 . S
O930 Eu913 2.430 . S
O930 C920 1.259 . S
O931 Eu903 2.355 . S
O931 Eu913 2.670 . S
O931 C920 1.270 . S
O932 Eu913 2.394 . S
O932 C921 1.251 . S
O933 Eu903 2.374 . S
O933 C921 1.251 . S
H934 C905 0.931 . S
H935 C906 0.931 . S
H936 C908 0.931 . S
H937 C909 0.931 . S
H938 C915 0.931 . S
H939 C916 0.931 . S
H940 C918 0.931 . S
H941 C919 0.931 . S
C942 Eu943 2.835 . S
C942 C944 1.500 . S
C942 O962 1.257 . S
C942 O963 1.260 . S
Eu943 C942 2.835 . S
Eu943 O962 2.473 . S
Eu943 O963 2.480 . S
Eu943 O964 2.430 . S
Eu943 O965 2.670 . S
Eu943 O966 2.394 . S
Eu943 O971 2.355 . S
Eu943 O973 2.374 . S
C944 C942 1.500 . S
C944 C945 1.377 . S
C944 C949 1.377 . S
C945 C944 1.377 . S
C945 C946 1.395 . S
C945 H974 0.931 . S
C946 C945 1.395 . S
C946 C947 1.383 . S
C946 H975 0.931 . S
C947 C946 1.383 . S
C947 C948 1.394 . S
C948 C947 1.394 . S
C948 C949 1.378 . S
C948 H976 0.931 . S
C949 C944 1.377 . S
C949 C948 1.378 . S
C949 H977 0.931 . S
C950 O964 1.259 . S
C950 O965 1.270 . S
C951 O966 1.251 . S
C951 O967 1.251 . S
C952 Eu953 2.835 . S
C952 C954 1.500 . S
C952 O968 1.257 . S
C952 O969 1.260 . S
Eu953 C952 2.835 . S
Eu953 O965 2.355 . S
Eu953 O967 2.374 . S
Eu953 O968 2.473 . S
Eu953 O969 2.480 . S
Eu953 O970 2.430 . S
Eu953 O971 2.670 . S
Eu953 O972 2.394 . S
C954 C952 1.500 . S
C954 C955 1.377 . S
C954 C959 1.377 . S
C955 C954 1.377 . S
C955 C956 1.395 . S
C955 H978 0.931 . S
C956 C955 1.395 . S
C956 C957 1.383 . S
C956 H979 0.931 . S
C957 C956 1.383 . S
C957 C958 1.394 . S
C958 C957 1.394 . S
C958 C959 1.378 . S
C958 H980 0.931 . S
C959 C954 1.377 . S
C959 C958 1.378 . S
C959 H981 0.931 . S
C960 O970 1.259 . S
C960 O971 1.270 . S
C961 O972 1.251 . S
C961 O973 1.251 . S
O962 C942 1.257 . S
O962 Eu943 2.473 . S
O963 C942 1.260 . S
O963 Eu943 2.480 . S
O964 Eu943 2.430 . S
O964 C950 1.259 . S
O965 Eu943 2.670 . S
O965 C950 1.270 . S
O965 Eu953 2.355 . S
O966 Eu943 2.394 . S
O966 C951 1.251 . S
O967 C951 1.251 . S
O967 Eu953 2.374 . S
O968 C952 1.257 . S
O968 Eu953 2.473 . S
O969 C952 1.260 . S
O969 Eu953 2.480 . S
O970 Eu953 2.430 . S
O970 C960 1.259 . S
O971 Eu943 2.355 . S
O971 Eu953 2.670 . S
O971 C960 1.270 . S
O972 Eu953 2.394 . S
O972 C961 1.251 . S
O973 Eu943 2.374 . S
O973 C961 1.251 . S
H974 C945 0.931 . S
H975 C946 0.931 . S
H976 C948 0.931 . S
H977 C949 0.931 . S
H978 C955 0.931 . S
H979 C956 0.931 . S
H980 C958 0.931 . S
H981 C959 0.931 . S
C982 Eu983 2.835 . S
C982 C984 1.500 . S
C982 O1002 1.257 . S
C982 O1003 1.260 . S
Eu983 C982 2.835 . S
Eu983 O1002 2.473 . S
Eu983 O1003 2.480 . S
Eu983 O1004 2.430 . S
Eu983 O1005 2.670 . S
Eu983 O1006 2.394 . S
Eu983 O1011 2.355 . S
Eu983 O1013 2.374 . S
C984 C982 1.500 . S
C984 C985 1.377 . S
C984 C989 1.377 . S
C985 C984 1.377 . S
C985 C986 1.395 . S
C985 H1014 0.931 . S
C986 C985 1.395 . S
C986 C987 1.383 . S
C986 H1015 0.931 . S
C987 C986 1.383 . S
C987 C988 1.394 . S
C988 C987 1.394 . S
C988 C989 1.378 . S
C988 H1016 0.931 . S
C989 C984 1.377 . S
C989 C988 1.378 . S
C989 H1017 0.931 . S
C990 O1004 1.259 . S
C990 O1005 1.270 . S
C991 O1006 1.251 . S
C991 O1007 1.251 . S
C992 Eu993 2.835 . S
C992 C994 1.500 . S
C992 O1008 1.257 . S
C992 O1009 1.260 . S
Eu993 C992 2.835 . S
Eu993 O1005 2.355 . S
Eu993 O1007 2.374 . S
Eu993 O1008 2.473 . S
Eu993 O1009 2.480 . S
Eu993 O1010 2.430 . S
Eu993 O1011 2.670 . S
Eu993 O1012 2.394 . S
C994 C992 1.500 . S
C994 C995 1.377 . S
C994 C999 1.377 . S
C995 C994 1.377 . S
C995 C996 1.395 . S
C995 H1018 0.931 . S
C996 C995 1.395 . S
C996 C997 1.383 . S
C996 H1019 0.931 . S
C997 C996 1.383 . S
C997 C998 1.394 . S
C998 C997 1.394 . S
C998 C999 1.378 . S
C998 H1020 0.931 . S
C999 C994 1.377 . S
C999 C998 1.378 . S
C999 H1021 0.931 . S
C1000 O1010 1.259 . S
C1000 O1011 1.270 . S
C1001 O1012 1.251 . S
C1001 O1013 1.251 . S
O1002 C982 1.257 . S
O1002 Eu983 2.473 . S
O1003 C982 1.260 . S
O1003 Eu983 2.480 . S
O1004 Eu983 2.430 . S
O1004 C990 1.259 . S
O1005 Eu983 2.670 . S
O1005 C990 1.270 . S
O1005 Eu993 2.355 . S
O1006 Eu983 2.394 . S
O1006 C991 1.251 . S
O1007 C991 1.251 . S
O1007 Eu993 2.374 . S
O1008 C992 1.257 . S
O1008 Eu993 2.473 . S
O1009 C992 1.260 . S
O1009 Eu993 2.480 . S
O1010 Eu993 2.430 . S
O1010 C1000 1.259 . S
O1011 Eu983 2.355 . S
O1011 Eu993 2.670 . S
O1011 C1000 1.270 . S
O1012 Eu993 2.394 . S
O1012 C1001 1.251 . S
O1013 Eu983 2.374 . S
O1013 C1001 1.251 . S
H1014 C985 0.931 . S
H1015 C986 0.931 . S
H1016 C988 0.931 . S
H1017 C989 0.931 . S
H1018 C995 0.931 . S
H1019 C996 0.931 . S
H1020 C998 0.931 . S
H1021 C999 0.931 . S
C1022 Eu1023 2.835 . S
C1022 C1024 1.500 . S
C1022 O1042 1.257 . S
C1022 O1043 1.260 . S
Eu1023 C1022 2.835 . S
Eu1023 O1042 2.473 . S
Eu1023 O1043 2.480 . S
Eu1023 O1044 2.430 . S
Eu1023 O1045 2.670 . S
Eu1023 O1046 2.394 . S
Eu1023 O1051 2.355 . S
Eu1023 O1053 2.374 . S
C1024 C1022 1.500 . S
C1024 C1025 1.377 . S
C1024 C1029 1.377 . S
C1025 C1024 1.377 . S
C1025 C1026 1.395 . S
C1025 H1054 0.931 . S
C1026 C1025 1.395 . S
C1026 C1027 1.383 . S
C1026 H1055 0.931 . S
C1027 C1026 1.383 . S
C1027 C1028 1.394 . S
C1028 C1027 1.394 . S
C1028 C1029 1.378 . S
C1028 H1056 0.931 . S
C1029 C1024 1.377 . S
C1029 C1028 1.378 . S
C1029 H1057 0.931 . S
C1030 O1044 1.259 . S
C1030 O1045 1.270 . S
C1031 O1046 1.251 . S
C1031 O1047 1.251 . S
C1032 Eu1033 2.835 . S
C1032 C1034 1.500 . S
C1032 O1048 1.257 . S
C1032 O1049 1.260 . S
Eu1033 C1032 2.835 . S
Eu1033 O1045 2.355 . S
Eu1033 O1047 2.374 . S
Eu1033 O1048 2.473 . S
Eu1033 O1049 2.480 . S
Eu1033 O1050 2.430 . S
Eu1033 O1051 2.670 . S
Eu1033 O1052 2.394 . S
C1034 C1032 1.500 . S
C1034 C1035 1.377 . S
C1034 C1039 1.377 . S
C1035 C1034 1.377 . S
C1035 C1036 1.395 . S
C1035 H1058 0.931 . S
C1036 C1035 1.395 . S
C1036 C1037 1.383 . S
C1036 H1059 0.931 . S
C1037 C1036 1.383 . S
C1037 C1038 1.394 . S
C1038 C1037 1.394 . S
C1038 C1039 1.378 . S
C1038 H1060 0.931 . S
C1039 C1034 1.377 . S
C1039 C1038 1.378 . S
C1039 H1061 0.931 . S
C1040 O1050 1.259 . S
C1040 O1051 1.270 . S
C1041 O1052 1.251 . S
C1041 O1053 1.251 . S
O1042 C1022 1.257 . S
O1042 Eu1023 2.473 . S
O1043 C1022 1.260 . S
O1043 Eu1023 2.480 . S
O1044 Eu1023 2.430 . S
O1044 C1030 1.259 . S
O1045 Eu1023 2.670 . S
O1045 C1030 1.270 . S
O1045 Eu1033 2.355 . S
O1046 Eu1023 2.394 . S
O1046 C1031 1.251 . S
O1047 C1031 1.251 . S
O1047 Eu1033 2.374 . S
O1048 C1032 1.257 . S
O1048 Eu1033 2.473 . S
O1049 C1032 1.260 . S
O1049 Eu1033 2.480 . S
O1050 Eu1033 2.430 . S
O1050 C1040 1.259 . S
O1051 Eu1023 2.355 . S
O1051 Eu1033 2.670 . S
O1051 C1040 1.270 . S
O1052 Eu1033 2.394 . S
O1052 C1041 1.251 . S
O1053 Eu1023 2.374 . S
O1053 C1041 1.251 . S
H1054 C1025 0.931 . S
H1055 C1026 0.931 . S
H1056 C1028 0.931 . S
H1057 C1029 0.931 . S
H1058 C1035 0.931 . S
H1059 C1036 0.931 . S
H1060 C1038 0.931 . S
H1061 C1039 0.931 . S
H1062 C1074 0.930 . S
H1063 C1076 0.930 . S
H1064 C1077 0.930 . S
H1065 C1081 0.959 . S
H1066 C1081 0.959 . S
H1067 C1081 0.961 . S
H1068 C1082 0.960 . S
H1069 C1082 0.961 . S
H1070 C1082 0.959 . S
H1071 C1085 0.928 . S
H1072 C1086 0.931 1_556 S
H1073 C1088 0.930 . S
C1074 H1062 0.930 . S
C1074 C1075 1.399 . S
C1074 C1079 1.399 . S
C1075 C1074 1.399 . S
C1075 C1076 1.376 . S
C1076 H1063 0.930 . S
C1076 C1075 1.376 . S
C1076 C1077 1.388 . S
C1077 H1064 0.930 . S
C1077 C1076 1.388 . S
C1077 C1078 1.390 . S
C1078 C1077 1.390 . S
C1078 C1079 1.394 . S
C1078 C1084 1.465 . S
C1079 C1074 1.399 . S
C1079 C1078 1.394 . S
C1079 C1080 1.516 . S
C1080 C1079 1.516 . S
C1080 C1081 1.502 . S
C1080 C1082 1.561 . S
C1080 C1083 1.526 . S
C1081 H1065 0.959 . S
C1081 H1066 0.959 . S
C1081 H1067 0.961 . S
C1081 C1080 1.502 . S
C1082 H1068 0.960 . S
C1082 H1069 0.961 . S
C1082 H1070 0.959 . S
C1082 C1080 1.561 . S
C1083 C1080 1.526 . S
C1083 C1084 1.396 . S
C1083 C1088 1.390 . S
C1084 C1078 1.465 . S
C1084 C1083 1.396 . S
C1084 C1085 1.399 . S
C1085 H1071 0.928 . S
C1085 C1084 1.399 . S
C1085 C1086 1.385 . S
C1086 H1072 0.931 1_554 S
C1086 C1085 1.385 . S
C1086 C1087 1.389 . S
C1087 C1086 1.389 . S
C1087 C1088 1.387 . S
C1088 H1073 0.930 . S
C1088 C1083 1.390 . S
C1088 C1087 1.387 . S
H1089 C1101 0.930 . S
H1090 C1103 0.930 . S
H1091 C1104 0.930 . S
H1092 C1108 0.959 . S
H1093 C1108 0.959 1_556 S
H1094 C1108 0.961 . S
H1095 C1109 0.960 . S
H1096 C1109 0.961 . S
H1097 C1109 0.959 . S
H1098 C1112 0.929 . S
H1099 C1113 0.931 . S
H1100 C1115 0.930 . S
C1101 H1089 0.930 . S
C1101 C1102 1.399 . S
C1101 C1106 1.399 . S
C1102 C1101 1.399 . S
C1102 C1103 1.376 . S
C1103 H1090 0.930 . S
C1103 C1102 1.376 . S
C1103 C1104 1.388 . S
C1104 H1091 0.930 . S
C1104 C1103 1.388 . S
C1104 C1105 1.390 . S
C1105 C1104 1.390 . S
C1105 C1106 1.394 . S
C1105 C1111 1.465 . S
C1106 C1101 1.399 . S
C1106 C1105 1.394 . S
C1106 C1107 1.516 . S
C1107 C1106 1.516 . S
C1107 C1108 1.502 . S
C1107 C1109 1.561 . S
C1107 C1110 1.526 . S
C1108 H1092 0.959 . S
C1108 H1093 0.959 1_554 S
C1108 H1094 0.961 . S
C1108 C1107 1.502 . S
C1109 H1095 0.960 . S
C1109 H1096 0.961 . S
C1109 H1097 0.959 . S
C1109 C1107 1.561 . S
C1110 C1107 1.526 . S
C1110 C1111 1.396 . S
C1110 C1115 1.390 . S
C1111 C1105 1.465 . S
C1111 C1110 1.396 . S
C1111 C1112 1.399 . S
C1112 H1098 0.929 . S
C1112 C1111 1.399 . S
C1112 C1113 1.385 . S
C1113 H1099 0.931 . S
C1113 C1112 1.385 . S
C1113 C1114 1.389 . S
C1114 C1113 1.389 . S
C1114 C1115 1.387 . S
C1115 H1100 0.930 . S
C1115 C1110 1.390 . S
C1115 C1114 1.387 . S
H1116 C1128 0.930 . S
H1117 C1130 0.930 . S
H1118 C1131 0.930 . S
H1119 C1135 0.959 1_554 S
H1120 C1135 0.959 . S
H1121 C1135 0.961 . S
H1122 C1136 0.960 . S
H1123 C1136 0.961 . S
H1124 C1136 0.959 . S
H1125 C1139 0.929 . S
H1126 C1140 0.931 . S
H1127 C1142 0.930 1_556 S
C1128 H1116 0.930 . S
C1128 C1129 1.399 . S
C1128 C1133 1.399 . S
C1129 C1128 1.399 . S
C1129 C1130 1.376 . S
C1130 H1117 0.930 . S
C1130 C1129 1.376 . S
C1130 C1131 1.388 . S
C1131 H1118 0.930 . S
C1131 C1130 1.388 . S
C1131 C1132 1.390 . S
C1132 C1131 1.390 . S
C1132 C1133 1.394 . S
C1132 C1138 1.465 . S
C1133 C1128 1.399 . S
C1133 C1132 1.394 . S
C1133 C1134 1.516 . S
C1134 C1133 1.516 . S
C1134 C1135 1.502 1_554 S
C1134 C1136 1.561 1_554 S
C1134 C1137 1.526 . S
C1135 H1119 0.959 1_556 S
C1135 H1120 0.959 . S
C1135 H1121 0.961 . S
C1135 C1134 1.502 1_556 S
C1136 H1122 0.960 . S
C1136 H1123 0.961 . S
C1136 H1124 0.959 . S
C1136 C1134 1.561 1_556 S
C1137 C1134 1.526 . S
C1137 C1138 1.396 . S
C1137 C1142 1.390 . S
C1138 C1132 1.465 . S
C1138 C1137 1.396 . S
C1138 C1139 1.399 . S
C1139 H1125 0.929 . S
C1139 C1138 1.399 . S
C1139 C1140 1.385 . S
C1140 H1126 0.931 . S
C1140 C1139 1.385 . S
C1140 C1141 1.389 . S
C1141 C1140 1.389 . S
C1141 C1142 1.387 . S
C1142 H1127 0.930 1_554 S
C1142 C1137 1.390 . S
C1142 C1141 1.387 . S
H1143 C1155 0.930 . S
H1144 C1157 0.930 . S
H1145 C1158 0.930 . S
H1146 C1162 0.959 1_556 S
H1147 C1162 0.959 . S
H1148 C1162 0.961 . S
H1149 C1163 0.960 . S
H1150 C1163 0.961 . S
H1151 C1163 0.959 . S
H1152 C1166 0.929 . S
H1153 C1167 0.931 . S
H1154 C1169 0.930 1_554 S
C1155 H1143 0.930 . S
C1155 C1156 1.399 . S
C1155 C1160 1.399 . S
C1156 C1155 1.399 . S
C1156 C1157 1.376 . S
C1157 H1144 0.930 . S
C1157 C1156 1.376 . S
C1157 C1158 1.388 . S
C1158 H1145 0.930 . S
C1158 C1157 1.388 . S
C1158 C1159 1.390 . S
C1159 C1158 1.390 . S
C1159 C1160 1.394 . S
C1159 C1165 1.465 . S
C1160 C1155 1.399 . S
C1160 C1159 1.394 . S
C1160 C1161 1.516 . S
C1161 C1160 1.516 . S
C1161 C1162 1.502 1_556 S
C1161 C1163 1.561 1_556 S
C1161 C1164 1.526 . S
C1162 H1146 0.959 1_554 S
C1162 H1147 0.959 . S
C1162 H1148 0.961 . S
C1162 C1161 1.502 1_554 S
C1163 H1149 0.960 . S
C1163 H1150 0.961 . S
C1163 H1151 0.959 . S
C1163 C1161 1.561 1_554 S
C1164 C1161 1.526 . S
C1164 C1165 1.396 . S
C1164 C1169 1.390 . S
C1165 C1159 1.465 . S
C1165 C1164 1.396 . S
C1165 C1166 1.399 . S
C1166 H1152 0.929 . S
C1166 C1165 1.399 . S
C1166 C1167 1.385 . S
C1167 H1153 0.931 . S
C1167 C1166 1.385 . S
C1167 C1168 1.389 . S
C1168 C1167 1.389 . S
C1168 C1169 1.387 . S
C1169 H1154 0.930 1_556 S
C1169 C1164 1.390 . S
C1169 C1168 1.387 . S
H1170 C1182 0.930 . S
H1171 C1184 0.930 . S
H1172 C1185 0.930 . S
H1173 C1189 0.959 . S
H1174 C1189 0.959 1_554 S
H1175 C1189 0.961 . S
H1176 C1190 0.960 . S
H1177 C1190 0.961 . S
H1178 C1190 0.959 . S
H1179 C1193 0.929 . S
H1180 C1194 0.931 . S
H1181 C1196 0.930 . S
C1182 H1170 0.930 . S
C1182 C1183 1.399 . S
C1182 C1187 1.399 . S
C1183 C1182 1.399 . S
C1183 C1184 1.376 . S
C1184 H1171 0.930 . S
C1184 C1183 1.376 . S
C1184 C1185 1.388 . S
C1185 H1172 0.930 . S
C1185 C1184 1.388 . S
C1185 C1186 1.390 . S
C1186 C1185 1.390 . S
C1186 C1187 1.394 . S
C1186 C1192 1.465 . S
C1187 C1182 1.399 . S
C1187 C1186 1.394 . S
C1187 C1188 1.516 . S
C1188 C1187 1.516 . S
C1188 C1189 1.502 . S
C1188 C1190 1.561 . S
C1188 C1191 1.526 . S
C1189 H1173 0.959 . S
C1189 H1174 0.959 1_556 S
C1189 H1175 0.961 . S
C1189 C1188 1.502 . S
C1190 H1176 0.960 . S
C1190 H1177 0.961 . S
C1190 H1178 0.959 . S
C1190 C1188 1.561 . S
C1191 C1188 1.526 . S
C1191 C1192 1.396 . S
C1191 C1196 1.390 . S
C1192 C1186 1.465 . S
C1192 C1191 1.396 . S
C1192 C1193 1.399 . S
C1193 H1179 0.929 . S
C1193 C1192 1.399 . S
C1193 C1194 1.385 . S
C1194 H1180 0.931 . S
C1194 C1193 1.385 . S
C1194 C1195 1.389 . S
C1195 C1194 1.389 . S
C1195 C1196 1.387 . S
C1196 H1181 0.930 . S
C1196 C1191 1.390 . S
C1196 C1195 1.387 . S
H1197 C1209 0.930 . S
H1198 C1211 0.930 . S
H1199 C1212 0.930 . S
H1200 C1216 0.959 . S
H1201 C1216 0.959 . S
H1202 C1216 0.961 . S
H1203 C1217 0.960 . S
H1204 C1217 0.961 . S
H1205 C1217 0.959 1_556 S
H1206 C1220 0.929 . S
H1207 C1221 0.931 . S
H1208 C1223 0.943 . S
C1209 H1197 0.930 . S
C1209 C1210 1.399 . S
C1209 C1214 1.399 . S
C1210 C1209 1.399 . S
C1210 C1211 1.376 . S
C1211 H1198 0.930 . S
C1211 C1210 1.376 . S
C1211 C1212 1.388 . S
C1212 H1199 0.930 . S
C1212 C1211 1.388 . S
C1212 C1213 1.390 . S
C1213 C1212 1.390 . S
C1213 C1214 1.394 . S
C1213 C1219 1.465 . S
C1214 C1209 1.399 . S
C1214 C1213 1.394 . S
C1214 C1215 1.484 1_556 S
C1215 C1214 1.484 1_554 S
C1215 C1216 1.534 . S
C1215 C1217 1.576 . S
C1215 C1218 1.508 1_554 S
C1216 H1200 0.959 . S
C1216 H1201 0.959 . S
C1216 H1202 0.961 . S
C1216 C1215 1.534 . S
C1217 H1203 0.960 . S
C1217 H1204 0.961 . S
C1217 H1205 0.959 1_554 S
C1217 C1215 1.576 . S
C1218 C1215 1.508 1_556 S
C1218 C1219 1.396 . S
C1218 C1223 1.384 1_556 S
C1219 C1213 1.465 . S
C1219 C1218 1.396 . S
C1219 C1220 1.399 . S
C1220 H1206 0.929 . S
C1220 C1219 1.399 . S
C1220 C1221 1.385 . S
C1221 H1207 0.931 . S
C1221 C1220 1.385 . S
C1221 C1222 1.389 . S
C1222 C1221 1.389 . S
C1222 C1223 1.379 1_556 S
C1223 H1208 0.943 . S
C1223 C1218 1.384 1_554 S
C1223 C1222 1.379 1_554 S
H1224 C1236 0.930 . S
H1225 C1238 0.930 . S
H1226 C1239 0.930 . S
H1227 C1243 0.959 . S
H1228 C1243 0.959 . S
H1229 C1243 0.961 . S
H1230 C1244 0.960 . S
H1231 C1244 0.961 . S
H1232 C1244 0.959 . S
H1233 C1247 0.929 . S
H1234 C1248 0.931 . S
H1235 C1250 0.930 . S
C1236 H1224 0.930 . S
C1236 C1237 1.399 . S
C1236 C1241 1.399 . S
C1237 C1236 1.399 . S
C1237 C1238 1.376 . S
C1238 H1225 0.930 . S
C1238 C1237 1.376 . S
C1238 C1239 1.388 . S
C1239 H1226 0.930 . S
C1239 C1238 1.388 . S
C1239 C1240 1.390 . S
C1240 C1239 1.390 . S
C1240 C1241 1.394 . S
C1240 C1246 1.465 . S
C1241 C1236 1.399 . S
C1241 C1240 1.394 . S
C1241 C1242 1.516 . S
C1242 C1241 1.516 . S
C1242 C1243 1.502 1_556 S
C1242 C1244 1.561 . S
C1242 C1245 1.526 . S
C1243 H1227 0.959 . S
C1243 H1228 0.959 . S
C1243 H1229 0.961 . S
C1243 C1242 1.502 1_554 S
C1244 H1230 0.960 . S
C1244 H1231 0.961 . S
C1244 H1232 0.959 . S
C1244 C1242 1.561 . S
C1245 C1242 1.526 . S
C1245 C1246 1.396 . S
C1245 C1250 1.390 . S
C1246 C1240 1.465 . S
C1246 C1245 1.396 . S
C1246 C1247 1.399 . S
C1247 H1233 0.929 . S
C1247 C1246 1.399 . S
C1247 C1248 1.385 . S
C1248 H1234 0.931 . S
C1248 C1247 1.385 . S
C1248 C1249 1.389 . S
C1249 C1248 1.389 . S
C1249 C1250 1.387 . S
C1250 H1235 0.930 . S
C1250 C1245 1.390 . S
C1250 C1249 1.387 . S
H1251 C1263 0.930 . S
H1252 C1265 0.930 . S
H1253 C1266 0.930 . S
H1254 C1270 0.959 . S
H1255 C1270 0.959 . S
H1256 C1270 0.961 . S
H1257 C1271 0.960 . S
H1258 C1271 0.961 . S
H1259 C1271 0.959 . S
H1260 C1274 0.929 . S
H1261 C1275 0.931 1_554 S
H1262 C1277 0.930 . S
C1263 H1251 0.930 . S
C1263 C1264 1.399 . S
C1263 C1268 1.399 . S
C1264 C1263 1.399 . S
C1264 C1265 1.376 . S
C1265 H1252 0.930 . S
C1265 C1264 1.376 . S
C1265 C1266 1.388 . S
C1266 H1253 0.930 . S
C1266 C1265 1.388 . S
C1266 C1267 1.390 . S
C1267 C1266 1.390 . S
C1267 C1268 1.394 . S
C1267 C1273 1.465 . S
C1268 C1263 1.399 . S
C1268 C1267 1.394 . S
C1268 C1269 1.516 . S
C1269 C1268 1.516 . S
C1269 C1270 1.502 . S
C1269 C1271 1.561 . S
C1269 C1272 1.526 . S
C1270 H1254 0.959 . S
C1270 H1255 0.959 . S
C1270 H1256 0.961 . S
C1270 C1269 1.502 . S
C1271 H1257 0.960 . S
C1271 H1258 0.961 . S
C1271 H1259 0.959 . S
C1271 C1269 1.561 . S
C1272 C1269 1.526 . S
C1272 C1273 1.396 . S
C1272 C1277 1.390 . S
C1273 C1267 1.465 . S
C1273 C1272 1.396 . S
C1273 C1274 1.399 . S
C1274 H1260 0.929 . S
C1274 C1273 1.399 . S
C1274 C1275 1.385 . S
C1275 H1261 0.931 1_556 S
C1275 C1274 1.385 . S
C1275 C1276 1.389 . S
C1276 C1275 1.389 . S
C1276 C1277 1.387 . S
C1277 H1262 0.930 . S
C1277 C1272 1.390 . S
C1277 C1276 1.387 . S
H1278 C1290 0.930 . S
H1279 C1292 0.930 . S
H1280 C1293 0.930 . S
H1281 C1297 0.959 . S
H1282 C1297 0.959 . S
H1283 C1297 0.961 . S
H1284 C1298 0.960 . S
H1285 C1298 0.961 . S
H1286 C1298 0.959 . S
H1287 C1301 0.929 . S
H1288 C1302 0.931 . S
H1289 C1304 0.877 1_554 S
C1290 H1278 0.930 . S
C1290 C1291 1.399 . S
C1290 C1295 1.399 . S
C1291 C1290 1.399 . S
C1291 C1292 1.376 . S
C1292 H1279 0.930 . S
C1292 C1291 1.376 . S
C1292 C1293 1.388 . S
C1293 H1280 0.930 . S
C1293 C1292 1.388 . S
C1293 C1294 1.390 . S
C1294 C1293 1.390 . S
C1294 C1295 1.394 . S
C1294 C1300 1.465 . S
C1295 C1290 1.399 . S
C1295 C1294 1.394 . S
C1295 C1296 1.516 1_556 S
C1296 C1295 1.516 1_554 S
C1296 C1297 1.502 . S
C1296 C1298 1.561 . S
C1296 C1299 1.526 1_554 S
C1297 H1281 0.959 . S
C1297 H1282 0.959 . S
C1297 H1283 0.961 . S
C1297 C1296 1.502 . S
C1298 H1284 0.960 . S
C1298 H1285 0.961 . S
C1298 H1286 0.959 . S
C1298 C1296 1.561 . S
C1299 C1296 1.526 1_556 S
C1299 C1300 1.396 . S
C1299 C1304 1.404 . S
C1300 C1294 1.465 . S
C1300 C1299 1.396 . S
C1300 C1301 1.399 . S
C1301 H1287 0.929 . S
C1301 C1300 1.399 . S
C1301 C1302 1.385 . S
C1302 H1288 0.931 . S
C1302 C1301 1.385 . S
C1302 C1303 1.389 . S
C1303 C1302 1.389 . S
C1303 C1304 1.427 . S
C1304 H1289 0.877 1_556 S
C1304 C1299 1.404 . S
C1304 C1303 1.427 . S
H1305 C1317 0.930 . S
H1306 C1319 0.930 . S
H1307 C1320 0.930 . S
H1308 C1324 0.998 . S
H1309 C1324 0.925 1_556 S
H1310 C1324 0.943 1_556 S
H1311 C1325 0.960 . S
H1312 C1325 0.961 . S
H1313 C1325 0.959 . S
H1314 C1328 0.929 . S
H1315 C1329 0.931 . S
H1316 C1331 0.930 1_556 S
C1317 H1305 0.930 . S
C1317 C1318 1.399 . S
C1317 C1322 1.399 . S
C1318 C1317 1.399 . S
C1318 C1319 1.376 . S
C1319 H1306 0.930 . S
C1319 C1318 1.376 . S
C1319 C1320 1.388 . S
C1320 H1307 0.930 . S
C1320 C1319 1.388 . S
C1320 C1321 1.390 . S
C1321 C1320 1.390 . S
C1321 C1322 1.394 . S
C1321 C1327 1.465 . S
C1322 C1317 1.399 . S
C1322 C1321 1.394 . S
C1322 C1323 1.516 . S
C1323 C1322 1.516 . S
C1323 C1324 1.520 . S
C1323 C1325 1.561 1_554 S
C1323 C1326 1.526 . S
C1324 H1308 0.998 . S
C1324 H1309 0.925 1_554 S
C1324 H1310 0.943 1_554 S
C1324 C1323 1.520 . S
C1325 H1311 0.960 . S
C1325 H1312 0.961 . S
C1325 H1313 0.959 . S
C1325 C1323 1.561 1_556 S
C1326 C1323 1.526 . S
C1326 C1327 1.396 . S
C1326 C1331 1.390 . S
C1327 C1321 1.465 . S
C1327 C1326 1.396 . S
C1327 C1328 1.399 . S
C1328 H1314 0.929 . S
C1328 C1327 1.399 . S
C1328 C1329 1.385 . S
C1329 H1315 0.931 . S
C1329 C1328 1.385 . S
C1329 C1330 1.389 . S
C1330 C1329 1.389 . S
C1330 C1331 1.387 . S
C1331 H1316 0.930 1_554 S
C1331 C1326 1.390 . S
C1331 C1330 1.387 . S
H1332 C1344 0.930 . S
H1333 C1346 0.930 . S
H1334 C1347 0.930 . S
H1335 C1351 0.959 . S
H1336 C1351 0.959 . S
H1337 C1351 0.961 . S
H1338 C1352 0.960 . S
H1339 C1352 0.961 1_556 S
H1340 C1352 0.959 . S
H1341 C1355 0.929 . S
H1342 C1356 0.931 . S
H1343 C1358 0.930 . S
C1344 H1332 0.930 . S
C1344 C1345 1.399 . S
C1344 C1349 1.399 . S
C1345 C1344 1.399 . S
C1345 C1346 1.376 . S
C1346 H1333 0.930 . S
C1346 C1345 1.376 . S
C1346 C1347 1.388 . S
C1347 H1334 0.930 . S
C1347 C1346 1.388 . S
C1347 C1348 1.390 . S
C1348 C1347 1.390 . S
C1348 C1349 1.394 . S
C1348 C1354 1.465 . S
C1349 C1344 1.399 . S
C1349 C1348 1.394 . S
C1349 C1350 1.516 . S
C1350 C1349 1.516 . S
C1350 C1351 1.502 . S
C1350 C1352 1.561 . S
C1350 C1353 1.526 . S
C1351 H1335 0.959 . S
C1351 H1336 0.959 . S
C1351 H1337 0.961 . S
C1351 C1350 1.502 . S
C1352 H1338 0.960 . S
C1352 H1339 0.961 1_554 S
C1352 H1340 0.959 . S
C1352 C1350 1.561 . S
C1353 C1350 1.526 . S
C1353 C1354 1.396 . S
C1353 C1358 1.390 . S
C1354 C1348 1.465 . S
C1354 C1353 1.396 . S
C1354 C1355 1.399 . S
C1355 H1341 0.929 . S
C1355 C1354 1.399 . S
C1355 C1356 1.385 . S
C1356 H1342 0.931 . S
C1356 C1355 1.385 . S
C1356 C1357 1.389 . S
C1357 C1356 1.389 . S
C1357 C1358 1.387 . S
C1358 H1343 0.930 . S
C1358 C1353 1.390 . S
C1358 C1357 1.387 . S
H1359 C1371 0.930 . S
H1360 C1373 0.930 . S
H1361 C1374 0.930 . S
H1362 C1378 0.959 . S
H1363 C1378 0.959 . S
H1364 C1378 0.961 . S
H1365 C1379 0.960 . S
H1366 C1379 0.961 1_556 S
H1367 C1379 0.959 . S
H1368 C1382 0.929 . S
H1369 C1383 0.931 . S
H1370 C1385 0.930 1_556 S
C1371 H1359 0.930 . S
C1371 C1372 1.399 . S
C1371 C1376 1.399 . S
C1372 C1371 1.399 . S
C1372 C1373 1.376 . S
C1373 H1360 0.930 . S
C1373 C1372 1.376 . S
C1373 C1374 1.388 . S
C1374 H1361 0.930 . S
C1374 C1373 1.388 . S
C1374 C1375 1.390 . S
C1375 C1374 1.390 . S
C1375 C1376 1.394 . S
C1375 C1381 1.465 . S
C1376 C1371 1.399 . S
C1376 C1375 1.394 . S
C1376 C1377 1.516 . S
C1377 C1376 1.516 . S
C1377 C1378 1.502 1_554 S
C1377 C1379 1.561 . S
C1377 C1380 1.526 . S
C1378 H1362 0.959 . S
C1378 H1363 0.959 . S
C1378 H1364 0.961 . S
C1378 C1377 1.502 1_556 S
C1379 H1365 0.960 . S
C1379 H1366 0.961 1_554 S
C1379 H1367 0.959 . S
C1379 C1377 1.561 . S
C1380 C1377 1.526 . S
C1380 C1381 1.396 . S
C1380 C1385 1.390 . S
C1381 C1375 1.465 . S
C1381 C1380 1.396 . S
C1381 C1382 1.399 . S
C1382 H1368 0.929 . S
C1382 C1381 1.399 . S
C1382 C1383 1.385 . S
C1383 H1369 0.931 . S
C1383 C1382 1.385 . S
C1383 C1384 1.389 . S
C1384 C1383 1.389 . S
C1384 C1385 1.387 . S
C1385 H1370 0.930 1_554 S
C1385 C1380 1.390 . S
C1385 C1384 1.387 . S
H1386 C1398 0.930 . S
H1387 C1400 0.930 . S
H1388 C1401 0.930 . S
H1389 C1405 0.959 . S
H1390 C1405 0.959 . S
H1391 C1405 0.961 . S
H1392 C1406 0.960 . S
H1393 C1406 0.961 . S
H1394 C1406 0.959 . S
H1395 C1409 0.929 . S
H1396 C1410 0.931 . S
H1397 C1412 0.930 . S
C1398 H1386 0.930 . S
C1398 C1399 1.399 . S
C1398 C1403 1.399 1_655 S
C1399 C1398 1.399 . S
C1399 C1400 1.376 . S
C1400 H1387 0.930 . S
C1400 C1399 1.376 . S
C1400 C1401 1.388 1_655 S
C1401 H1388 0.930 . S
C1401 C1400 1.388 1_455 S
C1401 C1402 1.390 . S
C1402 C1401 1.390 . S
C1402 C1403 1.394 . S
C1402 C1408 1.465 . S
C1403 C1398 1.399 1_455 S
C1403 C1402 1.394 . S
C1403 C1404 1.516 . S
C1404 C1403 1.516 . S
C1404 C1405 1.502 . S
C1404 C1406 1.561 . S
C1404 C1407 1.526 . S
C1405 H1389 0.959 . S
C1405 H1390 0.959 . S
C1405 H1391 0.961 . S
C1405 C1404 1.502 . S
C1406 H1392 0.960 . S
C1406 H1393 0.961 . S
C1406 H1394 0.959 . S
C1406 C1404 1.561 . S
C1407 C1404 1.526 . S
C1407 C1408 1.396 . S
C1407 C1412 1.390 . S
C1408 C1402 1.465 . S
C1408 C1407 1.396 . S
C1408 C1409 1.399 . S
C1409 H1395 0.929 . S
C1409 C1408 1.399 . S
C1409 C1410 1.385 . S
C1410 H1396 0.931 . S
C1410 C1409 1.385 . S
C1410 C1411 1.389 . S
C1411 C1410 1.389 . S
C1411 C1412 1.387 . S
C1412 H1397 0.930 . S
C1412 C1407 1.390 . S
C1412 C1411 1.387 . S
H1413 C1425 0.930 . S
H1414 C1427 0.930 . S
H1415 C1428 0.930 . S
H1416 C1432 0.959 . S
H1417 C1432 0.959 . S
H1418 C1432 0.961 . S
H1419 C1433 0.960 . S
H1420 C1433 0.961 . S
H1421 C1433 0.959 . S
H1422 C1436 0.929 . S
H1423 C1437 0.931 . S
H1424 C1439 0.930 . S
C1425 H1413 0.930 . S
C1425 C1426 1.399 . S
C1425 C1430 1.399 . S
C1426 C1425 1.399 . S
C1426 C1427 1.376 . S
C1427 H1414 0.930 . S
C1427 C1426 1.376 . S
C1427 C1428 1.388 . S
C1428 H1415 0.930 . S
C1428 C1427 1.388 . S
C1428 C1429 1.390 . S
C1429 C1428 1.390 . S
C1429 C1430 1.394 . S
C1429 C1435 1.465 . S
C1430 C1425 1.399 . S
C1430 C1429 1.394 . S
C1430 C1431 1.516 . S
C1431 C1430 1.516 . S
C1431 C1432 1.502 . S
C1431 C1433 1.561 . S
C1431 C1434 1.526 . S
C1432 H1416 0.959 . S
C1432 H1417 0.959 . S
C1432 H1418 0.961 . S
C1432 C1431 1.502 . S
C1433 H1419 0.960 . S
C1433 H1420 0.961 . S
C1433 H1421 0.959 . S
C1433 C1431 1.561 . S
C1434 C1431 1.526 . S
C1434 C1435 1.396 . S
C1434 C1439 1.390 . S
C1435 C1429 1.465 . S
C1435 C1434 1.396 . S
C1435 C1436 1.399 . S
C1436 H1422 0.929 . S
C1436 C1435 1.399 . S
C1436 C1437 1.385 . S
C1437 H1423 0.931 . S
C1437 C1436 1.385 . S
C1437 C1438 1.389 . S
C1438 C1437 1.389 . S
C1438 C1439 1.387 . S
C1439 H1424 0.930 . S
C1439 C1434 1.390 . S
C1439 C1438 1.387 . S
H1440 C1452 0.930 . S
H1441 C1454 0.930 . S
H1442 C1455 0.930 1_565 S
H1443 C1459 0.959 . S
H1444 C1459 0.959 . S
H1445 C1459 0.961 . S
H1446 C1460 0.960 . S
H1447 C1460 0.961 . S
H1448 C1460 0.959 . S
H1449 C1463 0.929 . S
H1450 C1464 0.931 . S
H1451 C1466 0.930 . S
C1452 H1440 0.930 . S
C1452 C1453 1.399 . S
C1452 C1457 1.399 1_545 S
C1453 C1452 1.399 . S
C1453 C1454 1.376 . S
C1454 H1441 0.930 . S
C1454 C1453 1.376 . S
C1454 C1455 1.388 . S
C1455 H1442 0.930 1_545 S
C1455 C1454 1.388 . S
C1455 C1456 1.390 1_545 S
C1456 C1455 1.390 1_565 S
C1456 C1457 1.394 . S
C1456 C1462 1.465 . S
C1457 C1452 1.399 1_565 S
C1457 C1456 1.394 . S
C1457 C1458 1.516 . S
C1458 C1457 1.516 . S
C1458 C1459 1.502 . S
C1458 C1460 1.561 . S
C1458 C1461 1.526 . S
C1459 H1443 0.959 . S
C1459 H1444 0.959 . S
C1459 H1445 0.961 . S
C1459 C1458 1.502 . S
C1460 H1446 0.960 . S
C1460 H1447 0.961 . S
C1460 H1448 0.959 . S
C1460 C1458 1.561 . S
C1461 C1458 1.526 . S
C1461 C1462 1.396 . S
C1461 C1466 1.390 . S
C1462 C1456 1.465 . S
C1462 C1461 1.396 . S
C1462 C1463 1.399 . S
C1463 H1449 0.929 . S
C1463 C1462 1.399 . S
C1463 C1464 1.385 . S
C1464 H1450 0.931 . S
C1464 C1463 1.385 . S
C1464 C1465 1.389 . S
C1465 C1464 1.389 . S
C1465 C1466 1.387 . S
C1466 H1451 0.930 . S
C1466 C1461 1.390 . S
C1466 C1465 1.387 . S
H1467 C1479 0.930 . S
H1468 C1481 0.930 . S
H1469 C1482 0.930 . S
H1470 C1486 0.959 . S
H1471 C1486 0.959 . S
H1472 C1486 0.961 . S
H1473 C1487 0.960 . S
H1474 C1487 0.961 . S
H1475 C1487 0.959 . S
H1476 C1490 0.929 . S
H1477 C1491 0.931 . S
H1478 C1493 0.930 . S
C1479 H1467 0.930 . S
C1479 C1480 1.399 . S
C1479 C1484 1.399 . S
C1480 C1479 1.399 . S
C1480 C1481 1.376 . S
C1481 H1468 0.930 . S
C1481 C1480 1.376 . S
C1481 C1482 1.388 . S
C1482 H1469 0.930 . S
C1482 C1481 1.388 . S
C1482 C1483 1.390 . S
C1483 C1482 1.390 . S
C1483 C1484 1.394 . S
C1483 C1489 1.465 . S
C1484 C1479 1.399 . S
C1484 C1483 1.394 . S
C1484 C1485 1.516 . S
C1485 C1484 1.516 . S
C1485 C1486 1.502 . S
C1485 C1487 1.561 . S
C1485 C1488 1.526 . S
C1486 H1470 0.959 . S
C1486 H1471 0.959 . S
C1486 H1472 0.961 . S
C1486 C1485 1.502 . S
C1487 H1473 0.960 . S
C1487 H1474 0.961 . S
C1487 H1475 0.959 . S
C1487 C1485 1.561 . S
C1488 C1485 1.526 . S
C1488 C1489 1.396 . S
C1488 C1493 1.390 . S
C1489 C1483 1.465 . S
C1489 C1488 1.396 . S
C1489 C1490 1.399 . S
C1490 H1476 0.929 . S
C1490 C1489 1.399 . S
C1490 C1491 1.385 . S
C1491 H1477 0.931 . S
C1491 C1490 1.385 . S
C1491 C1492 1.389 . S
C1492 C1491 1.389 . S
C1492 C1493 1.387 . S
C1493 H1478 0.930 . S
C1493 C1488 1.390 . S
C1493 C1492 1.387 . S
H1494 C1506 0.930 . S
H1495 C1508 0.930 . S
H1496 C1509 0.930 . S
H1497 C1513 0.959 . S
H1498 C1513 0.959 . S
H1499 C1513 0.961 . S
H1500 C1514 0.960 . S
H1501 C1514 0.961 . S
H1502 C1514 0.959 . S
H1503 C1517 0.929 . S
H1504 C1518 0.931 . S
H1505 C1520 0.930 . S
C1506 H1494 0.930 . S
C1506 C1507 1.399 . S
C1506 C1511 1.399 . S
C1507 C1506 1.399 . S
C1507 C1508 1.376 . S
C1508 H1495 0.930 . S
C1508 C1507 1.376 . S
C1508 C1509 1.388 . S
C1509 H1496 0.930 . S
C1509 C1508 1.388 . S
C1509 C1510 1.390 . S
C1510 C1509 1.390 . S
C1510 C1511 1.394 . S
C1510 C1516 1.465 . S
C1511 C1506 1.399 . S
C1511 C1510 1.394 . S
C1511 C1512 1.516 . S
C1512 C1511 1.516 . S
C1512 C1513 1.502 . S
C1512 C1514 1.561 . S
C1512 C1515 1.526 . S
C1513 H1497 0.959 . S
C1513 H1498 0.959 . S
C1513 H1499 0.961 . S
C1513 C1512 1.502 . S
C1514 H1500 0.960 . S
C1514 H1501 0.961 . S
C1514 H1502 0.959 . S
C1514 C1512 1.561 . S
C1515 C1512 1.526 . S
C1515 C1516 1.396 . S
C1515 C1520 1.390 . S
C1516 C1510 1.465 . S
C1516 C1515 1.396 . S
C1516 C1517 1.399 . S
C1517 H1503 0.929 . S
C1517 C1516 1.399 . S
C1517 C1518 1.385 . S
C1518 H1504 0.931 . S
C1518 C1517 1.385 . S
C1518 C1519 1.389 . S
C1519 C1518 1.389 . S
C1519 C1520 1.387 . S
C1520 H1505 0.930 . S
C1520 C1515 1.390 . S
C1520 C1519 1.387 . S
H1521 C1533 0.930 . S
H1522 C1535 0.930 . S
H1523 C1536 0.930 . S
H1524 C1540 0.959 . S
H1525 C1540 0.959 . S
H1526 C1540 0.961 . S
H1527 C1541 0.960 . S
H1528 C1541 0.961 . S
H1529 C1541 0.959 . S
H1530 C1544 0.929 . S
H1531 C1545 0.931 . S
H1532 C1547 0.930 . S
C1533 H1521 0.930 . S
C1533 C1534 1.399 . S
C1533 C1538 1.399 . S
C1534 C1533 1.399 . S
C1534 C1535 1.376 . S
C1535 H1522 0.930 . S
C1535 C1534 1.376 . S
C1535 C1536 1.388 . S
C1536 H1523 0.930 . S
C1536 C1535 1.388 . S
C1536 C1537 1.390 . S
C1537 C1536 1.390 . S
C1537 C1538 1.394 . S
C1537 C1543 1.465 . S
C1538 C1533 1.399 . S
C1538 C1537 1.394 . S
C1538 C1539 1.516 . S
C1539 C1538 1.516 . S
C1539 C1540 1.502 . S
C1539 C1541 1.561 . S
C1539 C1542 1.526 . S
C1540 H1524 0.959 . S
C1540 H1525 0.959 . S
C1540 H1526 0.961 . S
C1540 C1539 1.502 . S
C1541 H1527 0.960 . S
C1541 H1528 0.961 . S
C1541 H1529 0.959 . S
C1541 C1539 1.561 . S
C1542 C1539 1.526 . S
C1542 C1543 1.396 . S
C1542 C1547 1.390 . S
C1543 C1537 1.465 . S
C1543 C1542 1.396 . S
C1543 C1544 1.399 . S
C1544 H1530 0.929 . S
C1544 C1543 1.399 . S
C1544 C1545 1.385 . S
C1545 H1531 0.931 . S
C1545 C1544 1.385 . S
C1545 C1546 1.389 . S
C1546 C1545 1.389 . S
C1546 C1547 1.387 . S
C1547 H1532 0.930 . S
C1547 C1542 1.390 . S
C1547 C1546 1.387 . S
H1548 C1560 0.930 . S
H1549 C1562 0.930 . S
H1550 C1563 0.930 . S
H1551 C1567 0.959 . S
H1552 C1567 0.959 . S
H1553 C1567 0.961 . S
H1554 C1568 0.960 . S
H1555 C1568 0.961 . S
H1556 C1568 0.959 . S
H1557 C1571 0.929 . S
H1558 C1572 0.931 . S
H1559 C1574 0.930 . S
C1560 H1548 0.930 . S
C1560 C1561 1.399 . S
C1560 C1565 1.399 . S
C1561 C1560 1.399 . S
C1561 C1562 1.376 . S
C1562 H1549 0.930 . S
C1562 C1561 1.376 . S
C1562 C1563 1.388 . S
C1563 H1550 0.930 . S
C1563 C1562 1.388 . S
C1563 C1564 1.390 . S
C1564 C1563 1.390 . S
C1564 C1565 1.394 . S
C1564 C1570 1.465 . S
C1565 C1560 1.399 . S
C1565 C1564 1.394 . S
C1565 C1566 1.516 . S
C1566 C1565 1.516 . S
C1566 C1567 1.502 . S
C1566 C1568 1.561 . S
C1566 C1569 1.526 . S
C1567 H1551 0.959 . S
C1567 H1552 0.959 . S
C1567 H1553 0.961 . S
C1567 C1566 1.502 . S
C1568 H1554 0.960 . S
C1568 H1555 0.961 . S
C1568 H1556 0.959 . S
C1568 C1566 1.561 . S
C1569 C1566 1.526 . S
C1569 C1570 1.396 . S
C1569 C1574 1.390 . S
C1570 C1564 1.465 . S
C1570 C1569 1.396 . S
C1570 C1571 1.399 . S
C1571 H1557 0.929 . S
C1571 C1570 1.399 . S
C1571 C1572 1.385 . S
C1572 H1558 0.931 . S
C1572 C1571 1.385 . S
C1572 C1573 1.389 . S
C1573 C1572 1.389 . S
C1573 C1574 1.387 . S
C1574 H1559 0.930 . S
C1574 C1569 1.390 . S
C1574 C1573 1.387 . S
H1575 C1587 0.930 . S
H1576 C1589 0.930 . S
H1577 C1590 0.930 . S
H1578 C1594 0.959 . S
H1579 C1594 0.959 . S
H1580 C1594 0.961 . S
H1581 C1595 0.960 . S
H1582 C1595 0.961 . S
H1583 C1595 0.959 . S
H1584 C1598 0.929 . S
H1585 C1599 0.931 . S
H1586 C1601 0.930 . S
C1587 H1575 0.930 . S
C1587 C1588 1.399 . S
C1587 C1592 1.399 . S
C1588 C1587 1.399 . S
C1588 C1589 1.376 . S
C1589 H1576 0.930 . S
C1589 C1588 1.376 . S
C1589 C1590 1.388 . S
C1590 H1577 0.930 . S
C1590 C1589 1.388 . S
C1590 C1591 1.390 . S
C1591 C1590 1.390 . S
C1591 C1592 1.394 . S
C1591 C1597 1.465 . S
C1592 C1587 1.399 . S
C1592 C1591 1.394 . S
C1592 C1593 1.516 . S
C1593 C1592 1.516 . S
C1593 C1594 1.502 . S
C1593 C1595 1.561 . S
C1593 C1596 1.526 . S
C1594 H1578 0.959 . S
C1594 H1579 0.959 . S
C1594 H1580 0.961 . S
C1594 C1593 1.502 . S
C1595 H1581 0.960 . S
C1595 H1582 0.961 . S
C1595 H1583 0.959 . S
C1595 C1593 1.561 . S
C1596 C1593 1.526 . S
C1596 C1597 1.396 . S
C1596 C1601 1.390 . S
C1597 C1591 1.465 . S
C1597 C1596 1.396 . S
C1597 C1598 1.399 . S
C1598 H1584 0.929 . S
C1598 C1597 1.399 . S
C1598 C1599 1.385 . S
C1599 H1585 0.931 . S
C1599 C1598 1.385 . S
C1599 C1600 1.389 . S
C1600 C1599 1.389 . S
C1600 C1601 1.387 . S
C1601 H1586 0.930 . S
C1601 C1596 1.390 . S
C1601 C1600 1.387 . S
H1602 C1614 0.930 . S
H1603 C1616 0.930 . S
H1604 C1617 0.930 . S
H1605 C1621 0.959 . S
H1606 C1621 0.959 . S
H1607 C1621 0.961 . S
H1608 C1622 0.960 . S
H1609 C1622 0.961 . S
H1610 C1622 0.959 . S
H1611 C1625 0.929 . S
H1612 C1626 0.931 . S
H1613 C1628 0.930 . S
C1614 H1602 0.930 . S
C1614 C1615 1.399 . S
C1614 C1619 1.399 . S
C1615 C1614 1.399 . S
C1615 C1616 1.376 . S
C1616 H1603 0.930 . S
C1616 C1615 1.376 . S
C1616 C1617 1.388 . S
C1617 H1604 0.930 . S
C1617 C1616 1.388 . S
C1617 C1618 1.390 . S
C1618 C1617 1.390 . S
C1618 C1619 1.394 . S
C1618 C1624 1.465 . S
C1619 C1614 1.399 . S
C1619 C1618 1.394 . S
C1619 C1620 1.516 . S
C1620 C1619 1.516 . S
C1620 C1621 1.502 . S
C1620 C1622 1.561 . S
C1620 C1623 1.526 . S
C1621 H1605 0.959 . S
C1621 H1606 0.959 . S
C1621 H1607 0.961 . S
C1621 C1620 1.502 . S
C1622 H1608 0.960 . S
C1622 H1609 0.961 . S
C1622 H1610 0.959 . S
C1622 C1620 1.561 . S
C1623 C1620 1.526 . S
C1623 C1624 1.396 . S
C1623 C1628 1.390 . S
C1624 C1618 1.465 . S
C1624 C1623 1.396 . S
C1624 C1625 1.399 . S
C1625 H1611 0.929 . S
C1625 C1624 1.399 . S
C1625 C1626 1.385 . S
C1626 H1612 0.931 . S
C1626 C1625 1.385 . S
C1626 C1627 1.389 . S
C1627 C1626 1.389 . S
C1627 C1628 1.387 . S
C1628 H1613 0.930 . S
C1628 C1623 1.390 . S
C1628 C1627 1.387 . S
H1629 C1641 0.930 . S
H1630 C1643 0.930 . S
H1631 C1644 0.927 . S
H1632 C1648 0.959 . S
H1633 C1648 0.959 . S
H1634 C1648 0.961 . S
H1635 C1649 0.960 . S
H1636 C1649 0.961 . S
H1637 C1649 0.959 . S
H1638 C1652 0.929 . S
H1639 C1653 0.931 . S
H1640 C1655 0.930 . S
C1641 H1629 0.930 . S
C1641 C1642 1.399 . S
C1641 C1646 1.399 1_545 S
C1642 C1641 1.399 . S
C1642 C1643 1.376 . S
C1643 H1630 0.930 . S
C1643 C1642 1.376 . S
C1643 C1644 1.388 . S
C1644 H1631 0.927 . S
C1644 C1643 1.388 . S
C1644 C1645 1.390 1_545 S
C1645 C1644 1.390 1_565 S
C1645 C1646 1.394 . S
C1645 C1651 1.465 . S
C1646 C1641 1.399 1_565 S
C1646 C1645 1.394 . S
C1646 C1647 1.516 . S
C1647 C1646 1.516 . S
C1647 C1648 1.502 . S
C1647 C1649 1.561 . S
C1647 C1650 1.526 . S
C1648 H1632 0.959 . S
C1648 H1633 0.959 . S
C1648 H1634 0.961 . S
C1648 C1647 1.502 . S
C1649 H1635 0.960 . S
C1649 H1636 0.961 . S
C1649 H1637 0.959 . S
C1649 C1647 1.561 . S
C1650 C1647 1.526 . S
C1650 C1651 1.396 . S
C1650 C1655 1.390 . S
C1651 C1645 1.465 . S
C1651 C1650 1.396 . S
C1651 C1652 1.399 . S
C1652 H1638 0.929 . S
C1652 C1651 1.399 . S
C1652 C1653 1.385 . S
C1653 H1639 0.931 . S
C1653 C1652 1.385 . S
C1653 C1654 1.389 . S
C1654 C1653 1.389 . S
C1654 C1655 1.387 . S
C1655 H1640 0.930 . S
C1655 C1650 1.390 . S
C1655 C1654 1.387 . S
H1656 C1668 0.930 . S
H1657 C1670 0.930 . S
H1658 C1671 0.930 . S
H1659 C1675 0.959 . S
H1660 C1675 0.959 . S
H1661 C1675 0.961 . S
H1662 C1676 0.960 . S
H1663 C1676 0.961 . S
H1664 C1676 0.959 . S
H1665 C1679 0.929 . S
H1666 C1680 0.931 . S
H1667 C1682 0.930 . S
C1668 H1656 0.930 . S
C1668 C1669 1.399 1_455 S
C1668 C1673 1.399 . S
C1669 C1668 1.399 1_655 S
C1669 C1670 1.376 . S
C1670 H1657 0.930 . S
C1670 C1669 1.376 . S
C1670 C1671 1.388 1_655 S
C1671 H1658 0.930 . S
C1671 C1670 1.388 1_455 S
C1671 C1672 1.390 . S
C1672 C1671 1.390 . S
C1672 C1673 1.394 . S
C1672 C1678 1.465 . S
C1673 C1668 1.399 . S
C1673 C1672 1.394 . S
C1673 C1674 1.516 . S
C1674 C1673 1.516 . S
C1674 C1675 1.502 . S
C1674 C1676 1.561 . S
C1674 C1677 1.526 . S
C1675 H1659 0.959 . S
C1675 H1660 0.959 . S
C1675 H1661 0.961 . S
C1675 C1674 1.502 . S
C1676 H1662 0.960 . S
C1676 H1663 0.961 . S
C1676 H1664 0.959 . S
C1676 C1674 1.561 . S
C1677 C1674 1.526 . S
C1677 C1678 1.396 . S
C1677 C1682 1.390 . S
C1678 C1672 1.465 . S
C1678 C1677 1.396 . S
C1678 C1679 1.399 . S
C1679 H1665 0.929 . S
C1679 C1678 1.399 . S
C1679 C1680 1.385 . S
C1680 H1666 0.931 . S
C1680 C1679 1.385 . S
C1680 C1681 1.389 . S
C1681 C1680 1.389 . S
C1681 C1682 1.387 . S
C1682 H1667 0.930 . S
C1682 C1677 1.390 . S
C1682 C1681 1.387 . S
H1683 C1695 0.930 . S
H1684 C1697 0.930 . S
H1685 C1698 0.930 . S
H1686 C1702 0.959 . S
H1687 C1702 0.959 . S
H1688 C1702 0.961 . S
H1689 C1703 0.960 . S
H1690 C1703 0.961 . S
H1691 C1703 0.959 . S
H1692 C1706 0.929 . S
H1693 C1707 0.931 . S
H1694 C1709 0.930 . S
C1695 H1683 0.930 . S
C1695 C1696 1.399 . S
C1695 C1700 1.399 . S
C1696 C1695 1.399 . S
C1696 C1697 1.376 . S
C1697 H1684 0.930 . S
C1697 C1696 1.376 . S
C1697 C1698 1.388 . S
C1698 H1685 0.930 . S
C1698 C1697 1.388 . S
C1698 C1699 1.390 . S
C1699 C1698 1.390 . S
C1699 C1700 1.394 . S
C1699 C1705 1.465 . S
C1700 C1695 1.399 . S
C1700 C1699 1.394 . S
C1700 C1701 1.516 . S
C1701 C1700 1.516 . S
C1701 C1702 1.502 . S
C1701 C1703 1.561 . S
C1701 C1704 1.526 . S
C1702 H1686 0.959 . S
C1702 H1687 0.959 . S
C1702 H1688 0.961 . S
C1702 C1701 1.502 . S
C1703 H1689 0.960 . S
C1703 H1690 0.961 . S
C1703 H1691 0.959 . S
C1703 C1701 1.561 . S
C1704 C1701 1.526 . S
C1704 C1705 1.396 . S
C1704 C1709 1.390 . S
C1705 C1699 1.465 . S
C1705 C1704 1.396 . S
C1705 C1706 1.399 . S
C1706 H1692 0.929 . S
C1706 C1705 1.399 . S
C1706 C1707 1.385 . S
C1707 H1693 0.931 . S
C1707 C1706 1.385 . S
C1707 C1708 1.389 . S
C1708 C1707 1.389 . S
C1708 C1709 1.387 . S
C1709 H1694 0.930 . S
C1709 C1704 1.390 . S
C1709 C1708 1.387 . S
H1710 C1722 0.930 . S
H1711 C1724 0.930 . S
H1712 C1725 0.930 . S
H1713 C1729 0.959 . S
H1714 C1729 0.959 . S
H1715 C1729 0.961 . S
H1716 C1730 0.960 . S
H1717 C1730 0.961 . S
H1718 C1730 0.959 . S
H1719 C1733 0.929 . S
H1720 C1734 0.931 . S
H1721 C1736 0.930 . S
C1722 H1710 0.930 . S
C1722 C1723 1.399 . S
C1722 C1727 1.399 . S
C1723 C1722 1.399 . S
C1723 C1724 1.376 . S
C1724 H1711 0.930 . S
C1724 C1723 1.376 . S
C1724 C1725 1.388 . S
C1725 H1712 0.930 . S
C1725 C1724 1.388 . S
C1725 C1726 1.390 . S
C1726 C1725 1.390 . S
C1726 C1727 1.394 . S
C1726 C1732 1.465 . S
C1727 C1722 1.399 . S
C1727 C1726 1.394 . S
C1727 C1728 1.516 . S
C1728 C1727 1.516 . S
C1728 C1729 1.502 . S
C1728 C1730 1.561 . S
C1728 C1731 1.526 . S
C1729 H1713 0.959 . S
C1729 H1714 0.959 . S
C1729 H1715 0.961 . S
C1729 C1728 1.502 . S
C1730 H1716 0.960 . S
C1730 H1717 0.961 . S
C1730 H1718 0.959 . S
C1730 C1728 1.561 . S
C1731 C1728 1.526 . S
C1731 C1732 1.396 . S
C1731 C1736 1.390 . S
C1732 C1726 1.465 . S
C1732 C1731 1.396 . S
C1732 C1733 1.399 . S
C1733 H1719 0.929 . S
C1733 C1732 1.399 . S
C1733 C1734 1.385 . S
C1734 H1720 0.931 . S
C1734 C1733 1.385 . S
C1734 C1735 1.389 . S
C1735 C1734 1.389 . S
C1735 C1736 1.387 . S
C1736 H1721 0.930 . S
C1736 C1731 1.390 . S
C1736 C1735 1.387 . S
H1737 C1749 0.930 . S
H1738 C1751 0.930 . S
H1739 C1752 0.930 . S
H1740 C1756 0.959 . S
H1741 C1756 0.959 . S
H1742 C1756 0.961 . S
H1743 C1757 0.960 . S
H1744 C1757 0.961 . S
H1745 C1757 0.959 . S
H1746 C1760 0.929 . S
H1747 C1761 0.931 . S
H1748 C1763 0.930 . S
C1749 H1737 0.930 . S
C1749 C1750 1.399 . S
C1749 C1754 1.399 . S
C1750 C1749 1.399 . S
C1750 C1751 1.376 . S
C1751 H1738 0.930 . S
C1751 C1750 1.376 . S
C1751 C1752 1.388 . S
C1752 H1739 0.930 . S
C1752 C1751 1.388 . S
C1752 C1753 1.390 . S
C1753 C1752 1.390 . S
C1753 C1754 1.394 . S
C1753 C1759 1.465 . S
C1754 C1749 1.399 . S
C1754 C1753 1.394 . S
C1754 C1755 1.516 . S
C1755 C1754 1.516 . S
C1755 C1756 1.502 . S
C1755 C1757 1.561 . S
C1755 C1758 1.526 . S
C1756 H1740 0.959 . S
C1756 H1741 0.959 . S
C1756 H1742 0.961 . S
C1756 C1755 1.502 . S
C1757 H1743 0.960 . S
C1757 H1744 0.961 . S
C1757 H1745 0.959 . S
C1757 C1755 1.561 . S
C1758 C1755 1.526 . S
C1758 C1759 1.396 . S
C1758 C1763 1.390 . S
C1759 C1753 1.465 . S
C1759 C1758 1.396 . S
C1759 C1760 1.399 . S
C1760 H1746 0.929 . S
C1760 C1759 1.399 . S
C1760 C1761 1.385 . S
C1761 H1747 0.931 . S
C1761 C1760 1.385 . S
C1761 C1762 1.389 . S
C1762 C1761 1.389 . S
C1762 C1763 1.387 . S
C1763 H1748 0.930 . S
C1763 C1758 1.390 . S
C1763 C1762 1.387 . S
H1764 C1776 0.930 . S
H1765 C1778 0.930 . S
H1766 C1779 0.930 . S
H1767 C1783 0.959 . S
H1768 C1783 0.959 . S
H1769 C1783 0.961 . S
H1770 C1784 0.960 . S
H1771 C1784 0.961 . S
H1772 C1784 0.959 . S
H1773 C1787 0.929 . S
H1774 C1788 0.931 . S
H1775 C1790 0.930 . S
C1776 H1764 0.930 . S
C1776 C1777 1.399 . S
C1776 C1781 1.399 . S
C1777 C1776 1.399 . S
C1777 C1778 1.376 . S
C1778 H1765 0.930 . S
C1778 C1777 1.376 . S
C1778 C1779 1.388 . S
C1779 H1766 0.930 . S
C1779 C1778 1.388 . S
C1779 C1780 1.390 . S
C1780 C1779 1.390 . S
C1780 C1781 1.394 . S
C1780 C1786 1.465 . S
C1781 C1776 1.399 . S
C1781 C1780 1.394 . S
C1781 C1782 1.516 . S
C1782 C1781 1.516 . S
C1782 C1783 1.502 . S
C1782 C1784 1.561 . S
C1782 C1785 1.526 . S
C1783 H1767 0.959 . S
C1783 H1768 0.959 . S
C1783 H1769 0.961 . S
C1783 C1782 1.502 . S
C1784 H1770 0.960 . S
C1784 H1771 0.961 . S
C1784 H1772 0.959 . S
C1784 C1782 1.561 . S
C1785 C1782 1.526 . S
C1785 C1786 1.396 . S
C1785 C1790 1.390 . S
C1786 C1780 1.465 . S
C1786 C1785 1.396 . S
C1786 C1787 1.399 . S
C1787 H1773 0.929 . S
C1787 C1786 1.399 . S
C1787 C1788 1.385 . S
C1788 H1774 0.931 . S
C1788 C1787 1.385 . S
C1788 C1789 1.389 . S
C1789 C1788 1.389 . S
C1789 C1790 1.387 . S
C1790 H1775 0.930 . S
C1790 C1785 1.390 . S
C1790 C1789 1.387 . S
H1791 C1803 0.930 . S
H1792 C1805 0.930 . S
H1793 C1806 0.939 . S
H1794 C1810 0.959 . S
H1795 C1810 0.959 . S
H1796 C1810 0.961 . S
H1797 C1811 0.960 . S
H1798 C1811 0.961 . S
H1799 C1811 0.959 . S
H1800 C1814 0.929 . S
H1801 C1815 0.931 . S
H1802 C1817 0.930 . S
C1803 H1791 0.930 . S
C1803 C1804 1.399 . S
C1803 C1808 1.399 1_565 S
C1804 C1803 1.399 . S
C1804 C1805 1.376 . S
C1805 H1792 0.930 . S
C1805 C1804 1.376 . S
C1805 C1806 1.388 . S
C1806 H1793 0.939 . S
C1806 C1805 1.388 . S
C1806 C1807 1.390 1_565 S
C1807 C1806 1.390 1_545 S
C1807 C1808 1.394 . S
C1807 C1813 1.465 . S
C1808 C1803 1.399 1_545 S
C1808 C1807 1.394 . S
C1808 C1809 1.516 . S
C1809 C1808 1.516 . S
C1809 C1810 1.502 . S
C1809 C1811 1.561 . S
C1809 C1812 1.526 . S
C1810 H1794 0.959 . S
C1810 H1795 0.959 . S
C1810 H1796 0.961 . S
C1810 C1809 1.502 . S
C1811 H1797 0.960 . S
C1811 H1798 0.961 . S
C1811 H1799 0.959 . S
C1811 C1809 1.561 . S
C1812 C1809 1.526 . S
C1812 C1813 1.396 . S
C1812 C1817 1.390 . S
C1813 C1807 1.465 . S
C1813 C1812 1.396 . S
C1813 C1814 1.399 . S
C1814 H1800 0.929 . S
C1814 C1813 1.399 . S
C1814 C1815 1.385 . S
C1815 H1801 0.931 . S
C1815 C1814 1.385 . S
C1815 C1816 1.389 . S
C1816 C1815 1.389 . S
C1816 C1817 1.387 . S
C1817 H1802 0.930 . S
C1817 C1812 1.390 . S
C1817 C1816 1.387 . S
H1818 C1830 0.930 . S
H1819 C1832 0.930 1_455 S
H1820 C1833 0.930 . S
H1821 C1837 0.959 . S
H1822 C1837 0.959 . S
H1823 C1837 0.961 . S
H1824 C1838 0.960 . S
H1825 C1838 0.961 . S
H1826 C1838 0.959 . S
H1827 C1841 0.929 . S
H1828 C1842 0.931 . S
H1829 C1844 0.930 . S
C1830 H1818 0.930 . S
C1830 C1831 1.399 . S
C1830 C1835 1.399 1_455 S
C1831 C1830 1.399 . S
C1831 C1832 1.376 1_455 S
C1832 H1819 0.930 1_655 S
C1832 C1831 1.376 1_655 S
C1832 C1833 1.388 . S
C1833 H1820 0.930 . S
C1833 C1832 1.388 . S
C1833 C1834 1.390 . S
C1834 C1833 1.390 . S
C1834 C1835 1.394 . S
C1834 C1840 1.465 . S
C1835 C1830 1.399 1_655 S
C1835 C1834 1.394 . S
C1835 C1836 1.516 . S
C1836 C1835 1.516 . S
C1836 C1837 1.502 . S
C1836 C1838 1.561 . S
C1836 C1839 1.526 . S
C1837 H1821 0.959 . S
C1837 H1822 0.959 . S
C1837 H1823 0.961 . S
C1837 C1836 1.502 . S
C1838 H1824 0.960 . S
C1838 H1825 0.961 . S
C1838 H1826 0.959 . S
C1838 C1836 1.561 . S
C1839 C1836 1.526 . S
C1839 C1840 1.396 . S
C1839 C1844 1.390 . S
C1840 C1834 1.465 . S
C1840 C1839 1.396 . S
C1840 C1841 1.399 . S
C1841 H1827 0.929 . S
C1841 C1840 1.399 . S
C1841 C1842 1.385 . S
C1842 H1828 0.931 . S
C1842 C1841 1.385 . S
C1842 C1843 1.389 . S
C1843 C1842 1.389 . S
C1843 C1844 1.387 . S
C1844 H1829 0.930 . S
C1844 C1839 1.390 . S
C1844 C1843 1.387 . S
H1845 C1857 0.930 . S
H1846 C1859 0.930 . S
H1847 C1860 0.930 . S
H1848 C1864 0.959 . S
H1849 C1864 0.959 . S
H1850 C1864 0.961 . S
H1851 C1865 0.960 . S
H1852 C1865 0.961 . S
H1853 C1865 0.959 . S
H1854 C1868 0.929 . S
H1855 C1869 0.931 . S
H1856 C1871 0.930 . S
C1857 H1845 0.930 . S
C1857 C1858 1.399 . S
C1857 C1862 1.399 . S
C1858 C1857 1.399 . S
C1858 C1859 1.376 . S
C1859 H1846 0.930 . S
C1859 C1858 1.376 . S
C1859 C1860 1.388 . S
C1860 H1847 0.930 . S
C1860 C1859 1.388 . S
C1860 C1861 1.390 . S
C1861 C1860 1.390 . S
C1861 C1862 1.394 . S
C1861 C1867 1.465 . S
C1862 C1857 1.399 . S
C1862 C1861 1.394 . S
C1862 C1863 1.516 . S
C1863 C1862 1.516 . S
C1863 C1864 1.502 . S
C1863 C1865 1.561 . S
C1863 C1866 1.526 . S
C1864 H1848 0.959 . S
C1864 H1849 0.959 . S
C1864 H1850 0.961 . S
C1864 C1863 1.502 . S
C1865 H1851 0.960 . S
C1865 H1852 0.961 . S
C1865 H1853 0.959 . S
C1865 C1863 1.561 . S
C1866 C1863 1.526 . S
C1866 C1867 1.396 . S
C1866 C1871 1.390 . S
C1867 C1861 1.465 . S
C1867 C1866 1.396 . S
C1867 C1868 1.399 . S
C1868 H1854 0.929 . S
C1868 C1867 1.399 . S
C1868 C1869 1.385 . S
C1869 H1855 0.931 . S
C1869 C1868 1.385 . S
C1869 C1870 1.389 . S
C1870 C1869 1.389 . S
C1870 C1871 1.387 . S
C1871 H1856 0.930 . S
C1871 C1866 1.390 . S
C1871 C1870 1.387 . S
H1872 C1884 0.922 . S
H1873 C1886 0.930 . S
H1874 C1887 0.930 . S
H1875 C1891 0.959 . S
H1876 C1891 0.959 . S
H1877 C1891 0.961 . S
H1878 C1892 0.960 . S
H1879 C1892 0.961 . S
H1880 C1892 0.959 . S
H1881 C1895 0.929 . S
H1882 C1896 0.931 . S
H1883 C1898 0.930 . S
C1884 H1872 0.922 . S
C1884 C1885 1.399 . S
C1884 C1889 1.399 1_455 S
C1885 C1884 1.399 . S
C1885 C1886 1.376 . S
C1886 H1873 0.930 . S
C1886 C1885 1.376 . S
C1886 C1887 1.388 . S
C1887 H1874 0.930 . S
C1887 C1886 1.388 . S
C1887 C1888 1.390 1_455 S
C1888 C1887 1.390 1_655 S
C1888 C1889 1.394 . S
C1888 C1894 1.465 . S
C1889 C1884 1.399 1_655 S
C1889 C1888 1.394 . S
C1889 C1890 1.516 . S
C1890 C1889 1.516 . S
C1890 C1891 1.502 . S
C1890 C1892 1.561 . S
C1890 C1893 1.526 . S
C1891 H1875 0.959 . S
C1891 H1876 0.959 . S
C1891 H1877 0.961 . S
C1891 C1890 1.502 . S
C1892 H1878 0.960 . S
C1892 H1879 0.961 . S
C1892 H1880 0.959 . S
C1892 C1890 1.561 . S
C1893 C1890 1.526 . S
C1893 C1894 1.396 . S
C1893 C1898 1.390 . S
C1894 C1888 1.465 . S
C1894 C1893 1.396 . S
C1894 C1895 1.399 . S
C1895 H1881 0.929 . S
C1895 C1894 1.399 . S
C1895 C1896 1.385 . S
C1896 H1882 0.931 . S
C1896 C1895 1.385 . S
C1896 C1897 1.389 . S
C1897 C1896 1.389 . S
C1897 C1898 1.387 . S
C1898 H1883 0.930 . S
C1898 C1893 1.390 . S
C1898 C1897 1.387 . S
H1899 C1911 0.930 . S
H1900 C1913 0.930 . S
H1901 C1914 0.930 . S
H1902 C1918 0.959 . S
H1903 C1918 0.959 . S
H1904 C1918 0.961 . S
H1905 C1919 0.960 . S
H1906 C1919 0.961 . S
H1907 C1919 0.959 . S
H1908 C1922 0.929 . S
H1909 C1923 0.931 . S
H1910 C1925 0.930 . S
C1911 H1899 0.930 . S
C1911 C1912 1.399 . S
C1911 C1916 1.399 . S
C1912 C1911 1.399 . S
C1912 C1913 1.376 . S
C1913 H1900 0.930 . S
C1913 C1912 1.376 . S
C1913 C1914 1.388 . S
C1914 H1901 0.930 . S
C1914 C1913 1.388 . S
C1914 C1915 1.390 . S
C1915 C1914 1.390 . S
C1915 C1916 1.394 . S
C1915 C1921 1.465 . S
C1916 C1911 1.399 . S
C1916 C1915 1.394 . S
C1916 C1917 1.516 . S
C1917 C1916 1.516 . S
C1917 C1918 1.502 . S
C1917 C1919 1.561 . S
C1917 C1920 1.526 . S
C1918 H1902 0.959 . S
C1918 H1903 0.959 . S
C1918 H1904 0.961 . S
C1918 C1917 1.502 . S
C1919 H1905 0.960 . S
C1919 H1906 0.961 . S
C1919 H1907 0.959 . S
C1919 C1917 1.561 . S
C1920 C1917 1.526 . S
C1920 C1921 1.396 . S
C1920 C1925 1.390 . S
C1921 C1915 1.465 . S
C1921 C1920 1.396 . S
C1921 C1922 1.399 . S
C1922 H1908 0.929 . S
C1922 C1921 1.399 . S
C1922 C1923 1.385 . S
C1923 H1909 0.931 . S
C1923 C1922 1.385 . S
C1923 C1924 1.389 . S
C1924 C1923 1.389 . S
C1924 C1925 1.387 . S
C1925 H1910 0.930 . S
C1925 C1920 1.390 . S
C1925 C1924 1.387 . S
H1926 C1938 0.930 . S
H1927 C1940 0.930 . S
H1928 C1941 0.944 . S
H1929 C1945 0.959 . S
H1930 C1945 0.959 . S
H1931 C1945 0.961 . S
H1932 C1946 0.960 . S
H1933 C1946 0.961 . S
H1934 C1946 0.959 . S
H1935 C1949 0.929 . S
H1936 C1950 0.931 . S
H1937 C1952 0.930 . S
C1938 H1926 0.930 . S
C1938 C1939 1.399 . S
C1938 C1943 1.399 1_565 S
C1939 C1938 1.399 . S
C1939 C1940 1.376 . S
C1940 H1927 0.930 . S
C1940 C1939 1.376 . S
C1940 C1941 1.388 . S
C1941 H1928 0.944 . S
C1941 C1940 1.388 . S
C1941 C1942 1.390 1_565 S
C1942 C1941 1.390 1_545 S
C1942 C1943 1.394 . S
C1942 C1948 1.465 . S
C1943 C1938 1.399 1_545 S
C1943 C1942 1.394 . S
C1943 C1944 1.516 . S
C1944 C1943 1.516 . S
C1944 C1945 1.502 . S
C1944 C1946 1.561 . S
C1944 C1947 1.526 . S
C1945 H1929 0.959 . S
C1945 H1930 0.959 . S
C1945 H1931 0.961 . S
C1945 C1944 1.502 . S
C1946 H1932 0.960 . S
C1946 H1933 0.961 . S
C1946 H1934 0.959 . S
C1946 C1944 1.561 . S
C1947 C1944 1.526 . S
C1947 C1948 1.396 . S
C1947 C1952 1.390 . S
C1948 C1942 1.465 . S
C1948 C1947 1.396 . S
C1948 C1949 1.399 . S
C1949 H1935 0.929 . S
C1949 C1948 1.399 . S
C1949 C1950 1.385 . S
C1950 H1936 0.931 . S
C1950 C1949 1.385 . S
C1950 C1951 1.389 . S
C1951 C1950 1.389 . S
C1951 C1952 1.387 . S
C1952 H1937 0.930 . S
C1952 C1947 1.390 . S
C1952 C1951 1.387 . S
H1953 C1965 0.930 . S
H1954 C1967 0.930 . S
H1955 C1968 0.930 . S
H1956 C1972 0.959 . S
H1957 C1972 0.959 . S
H1958 C1972 0.961 . S
H1959 C1973 0.960 . S
H1960 C1973 0.961 . S
H1961 C1973 0.959 . S
H1962 C1976 0.929 . S
H1963 C1977 0.931 . S
H1964 C1979 0.930 . S
C1965 H1953 0.930 . S
C1965 C1966 1.399 . S
C1965 C1970 1.399 . S
C1966 C1965 1.399 . S
C1966 C1967 1.376 . S
C1967 H1954 0.930 . S
C1967 C1966 1.376 . S
C1967 C1968 1.388 . S
C1968 H1955 0.930 . S
C1968 C1967 1.388 . S
C1968 C1969 1.390 . S
C1969 C1968 1.390 . S
C1969 C1970 1.394 . S
C1969 C1975 1.465 . S
C1970 C1965 1.399 . S
C1970 C1969 1.394 . S
C1970 C1971 1.516 . S
C1971 C1970 1.516 . S
C1971 C1972 1.502 . S
C1971 C1973 1.561 . S
C1971 C1974 1.526 . S
C1972 H1956 0.959 . S
C1972 H1957 0.959 . S
C1972 H1958 0.961 . S
C1972 C1971 1.502 . S
C1973 H1959 0.960 . S
C1973 H1960 0.961 . S
C1973 H1961 0.959 . S
C1973 C1971 1.561 . S
C1974 C1971 1.526 . S
C1974 C1975 1.396 . S
C1974 C1979 1.390 . S
C1975 C1969 1.465 . S
C1975 C1974 1.396 . S
C1975 C1976 1.399 . S
C1976 H1962 0.929 . S
C1976 C1975 1.399 . S
C1976 C1977 1.385 . S
C1977 H1963 0.931 . S
C1977 C1976 1.385 . S
C1977 C1978 1.389 . S
C1978 C1977 1.389 . S
C1978 C1979 1.387 . S
C1979 H1964 0.930 . S
C1979 C1974 1.390 . S
C1979 C1978 1.387 . S
H1980 C1992 0.930 . S
H1981 C1994 0.930 . S
H1982 C1995 0.930 . S
H1983 C1999 0.959 . S
H1984 C1999 0.959 . S
H1985 C1999 0.961 . S
H1986 C2000 0.960 . S
H1987 C2000 0.961 . S
H1988 C2000 0.959 . S
H1989 C2003 0.929 . S
H1990 C2004 0.931 . S
H1991 C2006 0.930 . S
C1992 H1980 0.930 . S
C1992 C1993 1.399 . S
C1992 C1997 1.399 . S
C1993 C1992 1.399 . S
C1993 C1994 1.376 . S
C1994 H1981 0.930 . S
C1994 C1993 1.376 . S
C1994 C1995 1.388 . S
C1995 H1982 0.930 . S
C1995 C1994 1.388 . S
C1995 C1996 1.390 . S
C1996 C1995 1.390 . S
C1996 C1997 1.394 . S
C1996 C2002 1.465 . S
C1997 C1992 1.399 . S
C1997 C1996 1.394 . S
C1997 C1998 1.516 . S
C1998 C1997 1.516 . S
C1998 C1999 1.502 . S
C1998 C2000 1.561 . S
C1998 C2001 1.526 . S
C1999 H1983 0.959 . S
C1999 H1984 0.959 . S
C1999 H1985 0.961 . S
C1999 C1998 1.502 . S
C2000 H1986 0.960 . S
C2000 H1987 0.961 . S
C2000 H1988 0.959 . S
C2000 C1998 1.561 . S
C2001 C1998 1.526 . S
C2001 C2002 1.396 . S
C2001 C2006 1.390 . S
C2002 C1996 1.465 . S
C2002 C2001 1.396 . S
C2002 C2003 1.399 . S
C2003 H1989 0.929 . S
C2003 C2002 1.399 . S
C2003 C2004 1.385 . S
C2004 H1990 0.931 . S
C2004 C2003 1.385 . S
C2004 C2005 1.389 . S
C2005 C2004 1.389 . S
C2005 C2006 1.387 . S
C2006 H1991 0.930 . S
C2006 C2001 1.390 . S
C2006 C2005 1.387 . S
H2007 C2019 0.930 . S
H2008 C2021 0.930 . S
H2009 C2022 0.930 . S
H2010 C2026 0.959 . S
H2011 C2026 0.959 . S
H2012 C2026 0.961 . S
H2013 C2027 0.960 . S
H2014 C2027 0.961 . S
H2015 C2027 0.959 . S
H2016 C2030 0.929 . S
H2017 C2031 0.931 . S
H2018 C2033 0.930 . S
C2019 H2007 0.930 . S
C2019 C2020 1.399 . S
C2019 C2024 1.399 . S
C2020 C2019 1.399 . S
C2020 C2021 1.376 . S
C2021 H2008 0.930 . S
C2021 C2020 1.376 . S
C2021 C2022 1.388 . S
C2022 H2009 0.930 . S
C2022 C2021 1.388 . S
C2022 C2023 1.390 . S
C2023 C2022 1.390 . S
C2023 C2024 1.394 . S
C2023 C2029 1.465 . S
C2024 C2019 1.399 . S
C2024 C2023 1.394 . S
C2024 C2025 1.516 . S
C2025 C2024 1.516 . S
C2025 C2026 1.502 . S
C2025 C2027 1.561 . S
C2025 C2028 1.526 . S
C2026 H2010 0.959 . S
C2026 H2011 0.959 . S
C2026 H2012 0.961 . S
C2026 C2025 1.502 . S
C2027 H2013 0.960 . S
C2027 H2014 0.961 . S
C2027 H2015 0.959 . S
C2027 C2025 1.561 . S
C2028 C2025 1.526 . S
C2028 C2029 1.396 . S
C2028 C2033 1.390 . S
C2029 C2023 1.465 . S
C2029 C2028 1.396 . S
C2029 C2030 1.399 . S
C2030 H2016 0.929 . S
C2030 C2029 1.399 . S
C2030 C2031 1.385 . S
C2031 H2017 0.931 . S
C2031 C2030 1.385 . S
C2031 C2032 1.389 . S
C2032 C2031 1.389 . S
C2032 C2033 1.387 . S
C2033 H2018 0.930 . S
C2033 C2028 1.390 . S
C2033 C2032 1.387 . S
H2034 C2046 0.930 . S
H2035 C2048 0.930 . S
H2036 C2049 0.930 . S
H2037 C2053 0.959 . S
H2038 C2053 0.959 . S
H2039 C2053 0.961 . S
H2040 C2054 0.960 . S
H2041 C2054 0.961 . S
H2042 C2054 0.959 . S
H2043 C2057 0.929 . S
H2044 C2058 0.931 . S
H2045 C2060 0.930 . S
C2046 H2034 0.930 . S
C2046 C2047 1.399 . S
C2046 C2051 1.399 . S
C2047 C2046 1.399 . S
C2047 C2048 1.376 . S
C2048 H2035 0.930 . S
C2048 C2047 1.376 . S
C2048 C2049 1.388 . S
C2049 H2036 0.930 . S
C2049 C2048 1.388 . S
C2049 C2050 1.390 . S
C2050 C2049 1.390 . S
C2050 C2051 1.394 . S
C2050 C2056 1.465 . S
C2051 C2046 1.399 . S
C2051 C2050 1.394 . S
C2051 C2052 1.516 . S
C2052 C2051 1.516 . S
C2052 C2053 1.502 . S
C2052 C2054 1.561 . S
C2052 C2055 1.526 . S
C2053 H2037 0.959 . S
C2053 H2038 0.959 . S
C2053 H2039 0.961 . S
C2053 C2052 1.502 . S
C2054 H2040 0.960 . S
C2054 H2041 0.961 . S
C2054 H2042 0.959 . S
C2054 C2052 1.561 . S
C2055 C2052 1.526 . S
C2055 C2056 1.396 . S
C2055 C2060 1.390 . S
C2056 C2050 1.465 . S
C2056 C2055 1.396 . S
C2056 C2057 1.399 1_565 S
C2057 H2043 0.929 . S
C2057 C2056 1.399 1_545 S
C2057 C2058 1.385 . S
C2058 H2044 0.931 . S
C2058 C2057 1.385 . S
C2058 C2059 1.389 1_545 S
C2059 C2058 1.389 1_565 S
C2059 C2060 1.387 . S
C2060 H2045 0.930 . S
C2060 C2055 1.390 . S
C2060 C2059 1.387 . S
H2061 C2073 0.930 . S
H2062 C2075 0.930 . S
H2063 C2076 0.930 . S
H2064 C2080 0.959 . S
H2065 C2080 0.959 . S
H2066 C2080 0.961 . S
H2067 C2081 0.960 . S
H2068 C2081 0.961 . S
H2069 C2081 0.959 . S
H2070 C2084 0.929 . S
H2071 C2085 0.931 . S
H2072 C2087 0.930 . S
C2073 H2061 0.930 . S
C2073 C2074 1.399 . S
C2073 C2078 1.399 . S
C2074 C2073 1.399 . S
C2074 C2075 1.376 . S
C2075 H2062 0.930 . S
C2075 C2074 1.376 . S
C2075 C2076 1.388 . S
C2076 H2063 0.930 . S
C2076 C2075 1.388 . S
C2076 C2077 1.390 . S
C2077 C2076 1.390 . S
C2077 C2078 1.394 . S
C2077 C2083 1.465 . S
C2078 C2073 1.399 . S
C2078 C2077 1.394 . S
C2078 C2079 1.516 . S
C2079 C2078 1.516 . S
C2079 C2080 1.502 . S
C2079 C2081 1.561 1_455 S
C2079 C2082 1.526 . S
C2080 H2064 0.959 . S
C2080 H2065 0.959 . S
C2080 H2066 0.961 . S
C2080 C2079 1.502 . S
C2081 H2067 0.960 . S
C2081 H2068 0.961 . S
C2081 H2069 0.959 . S
C2081 C2079 1.561 1_655 S
C2082 C2079 1.526 . S
C2082 C2083 1.396 . S
C2082 C2087 1.390 . S
C2083 C2077 1.465 . S
C2083 C2082 1.396 . S
C2083 C2084 1.399 . S
C2084 H2070 0.929 . S
C2084 C2083 1.399 . S
C2084 C2085 1.385 . S
C2085 H2071 0.931 . S
C2085 C2084 1.385 . S
C2085 C2086 1.389 . S
C2086 C2085 1.389 . S
C2086 C2087 1.387 . S
C2087 H2072 0.930 . S
C2087 C2082 1.390 . S
C2087 C2086 1.387 . S
H2088 C2100 0.930 . S
H2089 C2102 0.930 . S
H2090 C2103 0.930 . S
H2091 C2107 0.959 . S
H2092 C2107 0.959 . S
H2093 C2107 0.961 . S
H2094 C2108 0.960 . S
H2095 C2108 0.961 . S
H2096 C2108 0.959 . S
H2097 C2111 0.929 . S
H2098 C2112 0.931 . S
H2099 C2114 0.930 . S
C2100 H2088 0.930 . S
C2100 C2101 1.399 . S
C2100 C2105 1.399 . S
C2101 C2100 1.399 . S
C2101 C2102 1.376 . S
C2102 H2089 0.930 . S
C2102 C2101 1.376 . S
C2102 C2103 1.388 . S
C2103 H2090 0.930 . S
C2103 C2102 1.388 . S
C2103 C2104 1.390 . S
C2104 C2103 1.390 . S
C2104 C2105 1.394 . S
C2104 C2110 1.465 . S
C2105 C2100 1.399 . S
C2105 C2104 1.394 . S
C2105 C2106 1.516 . S
C2106 C2105 1.516 . S
C2106 C2107 1.502 . S
C2106 C2108 1.561 . S
C2106 C2109 1.526 . S
C2107 H2091 0.959 . S
C2107 H2092 0.959 . S
C2107 H2093 0.961 . S
C2107 C2106 1.502 . S
C2108 H2094 0.960 . S
C2108 H2095 0.961 . S
C2108 H2096 0.959 . S
C2108 C2106 1.561 . S
C2109 C2106 1.526 . S
C2109 C2110 1.396 . S
C2109 C2114 1.390 . S
C2110 C2104 1.465 . S
C2110 C2109 1.396 . S
C2110 C2111 1.399 . S
C2111 H2097 0.929 . S
C2111 C2110 1.399 . S
C2111 C2112 1.385 . S
C2112 H2098 0.931 . S
C2112 C2111 1.385 . S
C2112 C2113 1.389 . S
C2113 C2112 1.389 . S
C2113 C2114 1.387 . S
C2114 H2099 0.930 . S
C2114 C2109 1.390 . S
C2114 C2113 1.387 . S
H2115 C2127 0.930 . S
H2116 C2129 0.930 . S
H2117 C2130 0.930 . S
H2118 C2134 0.959 . S
H2119 C2134 0.959 . S
H2120 C2134 0.961 . S
H2121 C2135 0.960 . S
H2122 C2135 0.961 . S
H2123 C2135 0.959 . S
H2124 C2138 0.929 . S
H2125 C2139 0.931 . S
H2126 C2141 0.930 . S
C2127 H2115 0.930 . S
C2127 C2128 1.399 . S
C2127 C2132 1.399 . S
C2128 C2127 1.399 . S
C2128 C2129 1.376 . S
C2129 H2116 0.930 . S
C2129 C2128 1.376 . S
C2129 C2130 1.388 . S
C2130 H2117 0.930 . S
C2130 C2129 1.388 . S
C2130 C2131 1.390 . S
C2131 C2130 1.390 . S
C2131 C2132 1.394 . S
C2131 C2137 1.465 . S
C2132 C2127 1.399 . S
C2132 C2131 1.394 . S
C2132 C2133 1.516 . S
C2133 C2132 1.516 . S
C2133 C2134 1.502 . S
C2133 C2135 1.561 1_655 S
C2133 C2136 1.526 . S
C2134 H2118 0.959 . S
C2134 H2119 0.959 . S
C2134 H2120 0.961 . S
C2134 C2133 1.502 . S
C2135 H2121 0.960 . S
C2135 H2122 0.961 . S
C2135 H2123 0.959 . S
C2135 C2133 1.561 1_455 S
C2136 C2133 1.526 . S
C2136 C2137 1.396 . S
C2136 C2141 1.390 . S
C2137 C2131 1.465 . S
C2137 C2136 1.396 . S
C2137 C2138 1.399 . S
C2138 H2124 0.929 . S
C2138 C2137 1.399 . S
C2138 C2139 1.385 . S
C2139 H2125 0.931 . S
C2139 C2138 1.385 . S
C2139 C2140 1.389 . S
C2140 C2139 1.389 . S
C2140 C2141 1.387 . S
C2141 H2126 0.930 . S
C2141 C2136 1.390 . S
C2141 C2140 1.387 . S
H2142 C2154 0.930 . S
H2143 C2156 0.930 . S
H2144 C2157 0.930 . S
H2145 C2161 0.959 . S
H2146 C2161 0.959 . S
H2147 C2161 0.961 . S
H2148 C2162 0.960 . S
H2149 C2162 0.961 . S
H2150 C2162 0.959 . S
H2151 C2165 0.929 . S
H2152 C2166 0.931 . S
H2153 C2168 0.930 . S
C2154 H2142 0.930 . S
C2154 C2155 1.399 . S
C2154 C2159 1.399 . S
C2155 C2154 1.399 . S
C2155 C2156 1.376 . S
C2156 H2143 0.930 . S
C2156 C2155 1.376 . S
C2156 C2157 1.388 . S
C2157 H2144 0.930 . S
C2157 C2156 1.388 . S
C2157 C2158 1.390 . S
C2158 C2157 1.390 . S
C2158 C2159 1.394 . S
C2158 C2164 1.465 . S
C2159 C2154 1.399 . S
C2159 C2158 1.394 . S
C2159 C2160 1.516 . S
C2160 C2159 1.516 . S
C2160 C2161 1.502 . S
C2160 C2162 1.561 . S
C2160 C2163 1.526 . S
C2161 H2145 0.959 . S
C2161 H2146 0.959 . S
C2161 H2147 0.961 . S
C2161 C2160 1.502 . S
C2162 H2148 0.960 . S
C2162 H2149 0.961 . S
C2162 H2150 0.959 . S
C2162 C2160 1.561 . S
C2163 C2160 1.526 . S
C2163 C2164 1.396 . S
C2163 C2168 1.390 . S
C2164 C2158 1.465 . S
C2164 C2163 1.396 . S
C2164 C2165 1.399 . S
C2165 H2151 0.929 . S
C2165 C2164 1.399 . S
C2165 C2166 1.385 . S
C2166 H2152 0.931 . S
C2166 C2165 1.385 . S
C2166 C2167 1.389 . S
C2167 C2166 1.389 . S
C2167 C2168 1.387 . S
C2168 H2153 0.930 . S
C2168 C2163 1.390 . S
C2168 C2167 1.387 . S
H2169 C2181 0.930 . S
H2170 C2183 0.930 . S
H2171 C2184 0.930 . S
H2172 C2188 0.959 . S
H2173 C2188 0.959 . S
H2174 C2188 0.961 . S
H2175 C2189 0.960 . S
H2176 C2189 0.961 . S
H2177 C2189 0.959 . S
H2178 C2192 0.929 . S
H2179 C2193 0.931 . S
H2180 C2195 0.930 . S
C2181 H2169 0.930 . S
C2181 C2182 1.399 . S
C2181 C2186 1.399 . S
C2182 C2181 1.399 . S
C2182 C2183 1.376 . S
C2183 H2170 0.930 . S
C2183 C2182 1.376 . S
C2183 C2184 1.388 . S
C2184 H2171 0.930 . S
C2184 C2183 1.388 . S
C2184 C2185 1.390 . S
C2185 C2184 1.390 . S
C2185 C2186 1.394 . S
C2185 C2191 1.465 . S
C2186 C2181 1.399 . S
C2186 C2185 1.394 . S
C2186 C2187 1.516 1_545 S
C2187 C2186 1.516 1_565 S
C2187 C2188 1.502 . S
C2187 C2189 1.561 . S
C2187 C2190 1.526 1_565 S
C2188 H2172 0.959 . S
C2188 H2173 0.959 . S
C2188 H2174 0.961 . S
C2188 C2187 1.502 . S
C2189 H2175 0.960 . S
C2189 H2176 0.961 . S
C2189 H2177 0.959 . S
C2189 C2187 1.561 . S
C2190 C2187 1.526 1_545 S
C2190 C2191 1.396 . S
C2190 C2195 1.390 1_545 S
C2191 C2185 1.465 . S
C2191 C2190 1.396 . S
C2191 C2192 1.399 . S
C2192 H2178 0.929 . S
C2192 C2191 1.399 . S
C2192 C2193 1.385 . S
C2193 H2179 0.931 . S
C2193 C2192 1.385 . S
C2193 C2194 1.389 . S
C2194 C2193 1.389 . S
C2194 C2195 1.387 1_545 S
C2195 H2180 0.930 . S
C2195 C2190 1.390 1_565 S
C2195 C2194 1.387 1_565 S
H2196 C2208 0.930 . S
H2197 C2210 0.930 . S
H2198 C2211 0.930 . S
H2199 C2215 0.959 . S
H2200 C2215 0.959 . S
H2201 C2215 0.961 . S
H2202 C2216 0.960 . S
H2203 C2216 0.961 . S
H2204 C2216 0.959 . S
H2205 C2219 0.929 . S
H2206 C2220 0.931 . S
H2207 C2222 0.930 . S
C2208 H2196 0.930 . S
C2208 C2209 1.399 . S
C2208 C2213 1.399 . S
C2209 C2208 1.399 . S
C2209 C2210 1.376 . S
C2210 H2197 0.930 . S
C2210 C2209 1.376 . S
C2210 C2211 1.388 . S
C2211 H2198 0.930 . S
C2211 C2210 1.388 . S
C2211 C2212 1.390 . S
C2212 C2211 1.390 . S
C2212 C2213 1.394 . S
C2212 C2218 1.465 . S
C2213 C2208 1.399 . S
C2213 C2212 1.394 . S
C2213 C2214 1.516 . S
C2214 C2213 1.516 . S
C2214 C2215 1.502 . S
C2214 C2216 1.561 . S
C2214 C2217 1.526 . S
C2215 H2199 0.959 . S
C2215 H2200 0.959 . S
C2215 H2201 0.961 . S
C2215 C2214 1.502 . S
C2216 H2202 0.960 . S
C2216 H2203 0.961 . S
C2216 H2204 0.959 . S
C2216 C2214 1.561 . S
C2217 C2214 1.526 . S
C2217 C2218 1.396 . S
C2217 C2222 1.390 . S
C2218 C2212 1.465 . S
C2218 C2217 1.396 . S
C2218 C2219 1.399 . S
C2219 H2205 0.929 . S
C2219 C2218 1.399 . S
C2219 C2220 1.385 . S
C2220 H2206 0.931 . S
C2220 C2219 1.385 . S
C2220 C2221 1.389 . S
C2221 C2220 1.389 . S
C2221 C2222 1.387 . S
C2222 H2207 0.930 . S
C2222 C2217 1.390 . S
C2222 C2221 1.387 . S
H2223 C2235 0.930 . S
H2224 C2237 0.930 . S
H2225 C2238 0.930 . S
H2226 C2242 0.959 . S
H2227 C2242 0.959 . S
H2228 C2242 0.961 . S
H2229 C2243 0.960 . S
H2230 C2243 0.961 . S
H2231 C2243 0.959 . S
H2232 C2246 0.929 . S
H2233 C2247 0.931 . S
H2234 C2249 0.930 . S
C2235 H2223 0.930 . S
C2235 C2236 1.399 . S
C2235 C2240 1.399 . S
C2236 C2235 1.399 . S
C2236 C2237 1.376 . S
C2237 H2224 0.930 . S
C2237 C2236 1.376 . S
C2237 C2238 1.388 . S
C2238 H2225 0.930 . S
C2238 C2237 1.388 . S
C2238 C2239 1.390 . S
C2239 C2238 1.390 . S
C2239 C2240 1.394 . S
C2239 C2245 1.465 . S
C2240 C2235 1.399 . S
C2240 C2239 1.394 . S
C2240 C2241 1.516 . S
C2241 C2240 1.516 . S
C2241 C2242 1.502 . S
C2241 C2243 1.561 . S
C2241 C2244 1.526 . S
C2242 H2226 0.959 . S
C2242 H2227 0.959 . S
C2242 H2228 0.961 . S
C2242 C2241 1.502 . S
C2243 H2229 0.960 . S
C2243 H2230 0.961 . S
C2243 H2231 0.959 . S
C2243 C2241 1.561 . S
C2244 C2241 1.526 . S
C2244 C2245 1.396 . S
C2244 C2249 1.390 . S
C2245 C2239 1.465 . S
C2245 C2244 1.396 . S
C2245 C2246 1.399 . S
C2246 H2232 0.929 . S
C2246 C2245 1.399 . S
C2246 C2247 1.385 . S
C2247 H2233 0.931 . S
C2247 C2246 1.385 . S
C2247 C2248 1.389 . S
C2248 C2247 1.389 . S
C2248 C2249 1.387 . S
C2249 H2234 0.930 . S
C2249 C2244 1.390 . S
C2249 C2248 1.387 . S
H2250 C2262 0.930 . S
H2251 C2264 0.930 . S
H2252 C2265 0.930 . S
H2253 C2269 0.959 . S
H2254 C2269 0.959 . S
H2255 C2269 0.961 . S
H2256 C2270 0.960 . S
H2257 C2270 0.961 . S
H2258 C2270 0.959 . S
H2259 C2273 0.929 . S
H2260 C2274 0.931 . S
H2261 C2276 0.930 . S
C2262 H2250 0.930 . S
C2262 C2263 1.399 . S
C2262 C2267 1.399 . S
C2263 C2262 1.399 . S
C2263 C2264 1.376 . S
C2264 H2251 0.930 . S
C2264 C2263 1.376 . S
C2264 C2265 1.388 . S
C2265 H2252 0.930 . S
C2265 C2264 1.388 . S
C2265 C2266 1.390 . S
C2266 C2265 1.390 . S
C2266 C2267 1.394 . S
C2266 C2272 1.465 . S
C2267 C2262 1.399 . S
C2267 C2266 1.394 . S
C2267 C2268 1.516 . S
C2268 C2267 1.516 . S
C2268 C2269 1.502 . S
C2268 C2270 1.561 . S
C2268 C2271 1.526 . S
C2269 H2253 0.959 . S
C2269 H2254 0.959 . S
C2269 H2255 0.961 . S
C2269 C2268 1.502 . S
C2270 H2256 0.960 . S
C2270 H2257 0.961 . S
C2270 H2258 0.959 . S
C2270 C2268 1.561 . S
C2271 C2268 1.526 . S
C2271 C2272 1.396 . S
C2271 C2276 1.390 . S
C2272 C2266 1.465 . S
C2272 C2271 1.396 . S
C2272 C2273 1.399 . S
C2273 H2259 0.929 . S
C2273 C2272 1.399 . S
C2273 C2274 1.385 . S
C2274 H2260 0.931 . S
C2274 C2273 1.385 . S
C2274 C2275 1.389 . S
C2275 C2274 1.389 . S
C2275 C2276 1.387 . S
C2276 H2261 0.930 . S
C2276 C2271 1.390 . S
C2276 C2275 1.387 . S
H2277 C2289 0.930 . S
H2278 C2291 0.930 . S
H2279 C2292 0.930 . S
H2280 C2296 0.959 . S
H2281 C2296 0.959 . S
H2282 C2296 0.961 . S
H2283 C2297 0.960 . S
H2284 C2297 0.961 . S
H2285 C2297 0.959 . S
H2286 C2300 0.929 . S
H2287 C2301 0.931 . S
H2288 C2303 0.930 . S
C2289 H2277 0.930 . S
C2289 C2290 1.399 . S
C2289 C2294 1.399 . S
C2290 C2289 1.399 . S
C2290 C2291 1.376 . S
C2291 H2278 0.930 . S
C2291 C2290 1.376 . S
C2291 C2292 1.388 . S
C2292 H2279 0.930 . S
C2292 C2291 1.388 . S
C2292 C2293 1.390 . S
C2293 C2292 1.390 . S
C2293 C2294 1.394 . S
C2293 C2299 1.465 . S
C2294 C2289 1.399 . S
C2294 C2293 1.394 . S
C2294 C2295 1.516 . S
C2295 C2294 1.516 . S
C2295 C2296 1.502 . S
C2295 C2297 1.561 . S
C2295 C2298 1.526 . S
C2296 H2280 0.959 . S
C2296 H2281 0.959 . S
C2296 H2282 0.961 . S
C2296 C2295 1.502 . S
C2297 H2283 0.960 . S
C2297 H2284 0.961 . S
C2297 H2285 0.959 . S
C2297 C2295 1.561 . S
C2298 C2295 1.526 . S
C2298 C2299 1.396 . S
C2298 C2303 1.390 . S
C2299 C2293 1.465 . S
C2299 C2298 1.396 . S
C2299 C2300 1.399 . S
C2300 H2286 0.929 . S
C2300 C2299 1.399 . S
C2300 C2301 1.385 . S
C2301 H2287 0.931 . S
C2301 C2300 1.385 . S
C2301 C2302 1.389 . S
C2302 C2301 1.389 . S
C2302 C2303 1.387 . S
C2303 H2288 0.930 . S
C2303 C2298 1.390 . S
C2303 C2302 1.387 . S
H2304 C2316 0.930 . S
H2305 C2318 0.930 . S
H2306 C2319 0.930 . S
H2307 C2323 0.959 . S
H2308 C2323 0.959 . S
H2309 C2323 0.961 . S
H2310 C2324 0.960 . S
H2311 C2324 0.961 . S
H2312 C2324 0.959 . S
H2313 C2327 0.929 . S
H2314 C2328 0.931 . S
H2315 C2330 0.930 . S
C2316 H2304 0.930 . S
C2316 C2317 1.399 . S
C2316 C2321 1.399 . S
C2317 C2316 1.399 . S
C2317 C2318 1.376 . S
C2318 H2305 0.930 . S
C2318 C2317 1.376 . S
C2318 C2319 1.388 . S
C2319 H2306 0.930 . S
C2319 C2318 1.388 . S
C2319 C2320 1.390 . S
C2320 C2319 1.390 . S
C2320 C2321 1.394 . S
C2320 C2326 1.465 . S
C2321 C2316 1.399 . S
C2321 C2320 1.394 . S
C2321 C2322 1.516 . S
C2322 C2321 1.516 . S
C2322 C2323 1.502 . S
C2322 C2324 1.561 . S
C2322 C2325 1.526 . S
C2323 H2307 0.959 . S
C2323 H2308 0.959 . S
C2323 H2309 0.961 . S
C2323 C2322 1.502 . S
C2324 H2310 0.960 . S
C2324 H2311 0.961 . S
C2324 H2312 0.959 . S
C2324 C2322 1.561 . S
C2325 C2322 1.526 . S
C2325 C2326 1.396 . S
C2325 C2330 1.390 . S
C2326 C2320 1.465 . S
C2326 C2325 1.396 . S
C2326 C2327 1.399 . S
C2327 H2313 0.929 . S
C2327 C2326 1.399 . S
C2327 C2328 1.385 . S
C2328 H2314 0.931 . S
C2328 C2327 1.385 . S
C2328 C2329 1.389 . S
C2329 C2328 1.389 . S
C2329 C2330 1.387 . S
C2330 H2315 0.930 . S
C2330 C2325 1.390 . S
C2330 C2329 1.387 . S
H2331 C2343 0.930 . S
H2332 C2345 0.930 . S
H2333 C2346 0.930 . S
H2334 C2350 0.959 . S
H2335 C2350 0.959 . S
H2336 C2350 0.961 . S
H2337 C2351 0.960 . S
H2338 C2351 0.961 . S
H2339 C2351 0.959 . S
H2340 C2354 0.929 . S
H2341 C2355 0.931 . S
H2342 C2357 0.930 . S
C2343 H2331 0.930 . S
C2343 C2344 1.399 . S
C2343 C2348 1.399 . S
C2344 C2343 1.399 . S
C2344 C2345 1.376 . S
C2345 H2332 0.930 . S
C2345 C2344 1.376 . S
C2345 C2346 1.388 . S
C2346 H2333 0.930 . S
C2346 C2345 1.388 . S
C2346 C2347 1.390 . S
C2347 C2346 1.390 . S
C2347 C2348 1.394 . S
C2347 C2353 1.465 . S
C2348 C2343 1.399 . S
C2348 C2347 1.394 . S
C2348 C2349 1.516 . S
C2349 C2348 1.516 . S
C2349 C2350 1.502 . S
C2349 C2351 1.561 . S
C2349 C2352 1.526 . S
C2350 H2334 0.959 . S
C2350 H2335 0.959 . S
C2350 H2336 0.961 . S
C2350 C2349 1.502 . S
C2351 H2337 0.960 . S
C2351 H2338 0.961 . S
C2351 H2339 0.959 . S
C2351 C2349 1.561 . S
C2352 C2349 1.526 . S
C2352 C2353 1.396 . S
C2352 C2357 1.390 . S
C2353 C2347 1.465 . S
C2353 C2352 1.396 . S
C2353 C2354 1.399 . S
C2354 H2340 0.929 . S
C2354 C2353 1.399 . S
C2354 C2355 1.385 . S
C2355 H2341 0.931 . S
C2355 C2354 1.385 . S
C2355 C2356 1.389 . S
C2356 C2355 1.389 . S
C2356 C2357 1.387 . S
C2357 H2342 0.930 . S
C2357 C2352 1.390 . S
C2357 C2356 1.387 . S
H2358 C2370 0.930 . S
H2359 C2372 0.930 . S
H2360 C2373 0.930 . S
H2361 C2377 0.959 . S
H2362 C2377 0.959 . S
H2363 C2377 0.961 . S
H2364 C2378 0.960 . S
H2365 C2378 0.961 . S
H2366 C2378 0.959 . S
H2367 C2381 0.929 . S
H2368 C2382 0.931 . S
H2369 C2384 0.930 . S
C2370 H2358 0.930 . S
C2370 C2371 1.399 . S
C2370 C2375 1.399 . S
C2371 C2370 1.399 . S
C2371 C2372 1.376 . S
C2372 H2359 0.930 . S
C2372 C2371 1.376 . S
C2372 C2373 1.388 . S
C2373 H2360 0.930 . S
C2373 C2372 1.388 . S
C2373 C2374 1.390 . S
C2374 C2373 1.390 . S
C2374 C2375 1.394 . S
C2374 C2380 1.465 . S
C2375 C2370 1.399 . S
C2375 C2374 1.394 . S
C2375 C2376 1.516 . S
C2376 C2375 1.516 . S
C2376 C2377 1.502 . S
C2376 C2378 1.561 . S
C2376 C2379 1.526 . S
C2377 H2361 0.959 . S
C2377 H2362 0.959 . S
C2377 H2363 0.961 . S
C2377 C2376 1.502 . S
C2378 H2364 0.960 . S
C2378 H2365 0.961 . S
C2378 H2366 0.959 . S
C2378 C2376 1.561 . S
C2379 C2376 1.526 . S
C2379 C2380 1.396 . S
C2379 C2384 1.390 . S
C2380 C2374 1.465 . S
C2380 C2379 1.396 . S
C2380 C2381 1.399 . S
C2381 H2367 0.929 . S
C2381 C2380 1.399 . S
C2381 C2382 1.385 . S
C2382 H2368 0.931 . S
C2382 C2381 1.385 . S
C2382 C2383 1.389 . S
C2383 C2382 1.389 . S
C2383 C2384 1.387 . S
C2384 H2369 0.930 . S
C2384 C2379 1.390 . S
C2384 C2383 1.387 . S
H2385 C2397 0.930 . S
H2386 C2399 0.930 . S
H2387 C2400 0.930 . S
H2388 C2404 0.959 . S
H2389 C2404 0.959 . S
H2390 C2404 0.961 . S
H2391 C2405 0.960 . S
H2392 C2405 0.961 . S
H2393 C2405 0.959 . S
H2394 C2408 0.929 . S
H2395 C2409 0.931 . S
H2396 C2411 0.930 . S
C2397 H2385 0.930 . S
C2397 C2398 1.399 . S
C2397 C2402 1.399 . S
C2398 C2397 1.399 . S
C2398 C2399 1.376 . S
C2399 H2386 0.930 . S
C2399 C2398 1.376 . S
C2399 C2400 1.388 . S
C2400 H2387 0.930 . S
C2400 C2399 1.388 . S
C2400 C2401 1.390 . S
C2401 C2400 1.390 . S
C2401 C2402 1.394 . S
C2401 C2407 1.465 . S
C2402 C2397 1.399 . S
C2402 C2401 1.394 . S
C2402 C2403 1.516 . S
C2403 C2402 1.516 . S
C2403 C2404 1.502 . S
C2403 C2405 1.561 . S
C2403 C2406 1.526 . S
C2404 H2388 0.959 . S
C2404 H2389 0.959 . S
C2404 H2390 0.961 . S
C2404 C2403 1.502 . S
C2405 H2391 0.960 . S
C2405 H2392 0.961 . S
C2405 H2393 0.959 . S
C2405 C2403 1.561 . S
C2406 C2403 1.526 . S
C2406 C2407 1.396 . S
C2406 C2411 1.390 . S
C2407 C2401 1.465 . S
C2407 C2406 1.396 . S
C2407 C2408 1.399 . S
C2408 H2394 0.929 . S
C2408 C2407 1.399 . S
C2408 C2409 1.385 . S
C2409 H2395 0.931 . S
C2409 C2408 1.385 . S
C2409 C2410 1.389 . S
C2410 C2409 1.389 . S
C2410 C2411 1.387 . S
C2411 H2396 0.930 . S
C2411 C2406 1.390 . S
C2411 C2410 1.387 . S
H2412 C2424 0.930 . S
H2413 C2426 0.930 . S
H2414 C2427 0.930 . S
H2415 C2431 0.959 . S
H2416 C2431 0.959 . S
H2417 C2431 0.961 . S
H2418 C2432 0.960 . S
H2419 C2432 0.961 . S
H2420 C2432 0.959 . S
H2421 C2435 0.929 . S
H2422 C2436 0.931 . S
H2423 C2438 0.930 . S
C2424 H2412 0.930 . S
C2424 C2425 1.399 . S
C2424 C2429 1.399 . S
C2425 C2424 1.399 . S
C2425 C2426 1.376 . S
C2426 H2413 0.930 . S
C2426 C2425 1.376 . S
C2426 C2427 1.388 . S
C2427 H2414 0.930 . S
C2427 C2426 1.388 . S
C2427 C2428 1.390 . S
C2428 C2427 1.390 . S
C2428 C2429 1.394 . S
C2428 C2434 1.465 . S
C2429 C2424 1.399 . S
C2429 C2428 1.394 . S
C2429 C2430 1.516 . S
C2430 C2429 1.516 . S
C2430 C2431 1.502 . S
C2430 C2432 1.561 . S
C2430 C2433 1.526 . S
C2431 H2415 0.959 . S
C2431 H2416 0.959 . S
C2431 H2417 0.961 . S
C2431 C2430 1.502 . S
C2432 H2418 0.960 . S
C2432 H2419 0.961 . S
C2432 H2420 0.959 . S
C2432 C2430 1.561 . S
C2433 C2430 1.526 . S
C2433 C2434 1.396 . S
C2433 C2438 1.390 . S
C2434 C2428 1.465 . S
C2434 C2433 1.396 . S
C2434 C2435 1.399 . S
C2435 H2421 0.929 . S
C2435 C2434 1.399 . S
C2435 C2436 1.385 . S
C2436 H2422 0.931 . S
C2436 C2435 1.385 . S
C2436 C2437 1.389 . S
C2437 C2436 1.389 . S
C2437 C2438 1.387 . S
C2438 H2423 0.930 . S
C2438 C2433 1.390 . S
C2438 C2437 1.387 . S
H2439 C2451 0.930 . S
H2440 C2453 0.930 . S
H2441 C2454 0.930 . S
H2442 C2458 0.959 . S
H2443 C2458 0.959 . S
H2444 C2458 0.961 . S
H2445 C2459 0.960 . S
H2446 C2459 0.961 . S
H2447 C2459 0.959 . S
H2448 C2462 0.929 . S
H2449 C2463 0.931 . S
H2450 C2465 0.930 . S
C2451 H2439 0.930 . S
C2451 C2452 1.399 . S
C2451 C2456 1.399 . S
C2452 C2451 1.399 . S
C2452 C2453 1.376 . S
C2453 H2440 0.930 . S
C2453 C2452 1.376 . S
C2453 C2454 1.388 . S
C2454 H2441 0.930 . S
C2454 C2453 1.388 . S
C2454 C2455 1.390 . S
C2455 C2454 1.390 . S
C2455 C2456 1.394 . S
C2455 C2461 1.465 . S
C2456 C2451 1.399 . S
C2456 C2455 1.394 . S
C2456 C2457 1.516 . S
C2457 C2456 1.516 . S
C2457 C2458 1.502 . S
C2457 C2459 1.561 . S
C2457 C2460 1.526 . S
C2458 H2442 0.959 . S
C2458 H2443 0.959 . S
C2458 H2444 0.961 . S
C2458 C2457 1.502 . S
C2459 H2445 0.960 . S
C2459 H2446 0.961 . S
C2459 H2447 0.959 . S
C2459 C2457 1.561 . S
C2460 C2457 1.526 . S
C2460 C2461 1.396 . S
C2460 C2465 1.390 . S
C2461 C2455 1.465 . S
C2461 C2460 1.396 . S
C2461 C2462 1.399 . S
C2462 H2448 0.929 . S
C2462 C2461 1.399 . S
C2462 C2463 1.385 . S
C2463 H2449 0.931 . S
C2463 C2462 1.385 . S
C2463 C2464 1.389 . S
C2464 C2463 1.389 . S
C2464 C2465 1.387 . S
C2465 H2450 0.930 . S
C2465 C2460 1.390 . S
C2465 C2464 1.387 . S
H2466 C2478 0.930 . S
H2467 C2480 0.930 . S
H2468 C2481 0.930 . S
H2469 C2485 0.959 . S
H2470 C2485 0.959 . S
H2471 C2485 0.961 . S
H2472 C2486 0.960 . S
H2473 C2486 0.961 . S
H2474 C2486 0.959 . S
H2475 C2489 0.929 . S
H2476 C2490 0.931 . S
H2477 C2492 0.930 . S
C2478 H2466 0.930 . S
C2478 C2479 1.399 . S
C2478 C2483 1.399 . S
C2479 C2478 1.399 . S
C2479 C2480 1.376 . S
C2480 H2467 0.930 . S
C2480 C2479 1.376 . S
C2480 C2481 1.388 . S
C2481 H2468 0.930 . S
C2481 C2480 1.388 . S
C2481 C2482 1.390 . S
C2482 C2481 1.390 . S
C2482 C2483 1.394 . S
C2482 C2488 1.465 . S
C2483 C2478 1.399 . S
C2483 C2482 1.394 . S
C2483 C2484 1.516 . S
C2484 C2483 1.516 . S
C2484 C2485 1.502 . S
C2484 C2486 1.561 . S
C2484 C2487 1.526 . S
C2485 H2469 0.959 . S
C2485 H2470 0.959 . S
C2485 H2471 0.961 . S
C2485 C2484 1.502 . S
C2486 H2472 0.960 . S
C2486 H2473 0.961 . S
C2486 H2474 0.959 . S
C2486 C2484 1.561 . S
C2487 C2484 1.526 . S
C2487 C2488 1.396 . S
C2487 C2492 1.390 . S
C2488 C2482 1.465 . S
C2488 C2487 1.396 . S
C2488 C2489 1.399 . S
C2489 H2475 0.929 . S
C2489 C2488 1.399 . S
C2489 C2490 1.385 . S
C2490 H2476 0.931 . S
C2490 C2489 1.385 . S
C2490 C2491 1.389 . S
C2491 C2490 1.389 . S
C2491 C2492 1.387 . S
C2492 H2477 0.930 . S
C2492 C2487 1.390 . S
C2492 C2491 1.387 . S
H2493 C2505 0.930 . S
H2494 C2507 0.930 . S
H2495 C2508 0.930 . S
H2496 C2512 0.959 . S
H2497 C2512 0.959 . S
H2498 C2512 0.961 . S
H2499 C2513 0.960 . S
H2500 C2513 0.961 . S
H2501 C2513 0.959 . S
H2502 C2516 0.929 . S
H2503 C2517 0.931 . S
H2504 C2519 0.930 . S
C2505 H2493 0.930 . S
C2505 C2506 1.399 . S
C2505 C2510 1.399 . S
C2506 C2505 1.399 . S
C2506 C2507 1.376 . S
C2507 H2494 0.930 . S
C2507 C2506 1.376 . S
C2507 C2508 1.388 . S
C2508 H2495 0.930 . S
C2508 C2507 1.388 . S
C2508 C2509 1.390 . S
C2509 C2508 1.390 . S
C2509 C2510 1.394 . S
C2509 C2515 1.465 . S
C2510 C2505 1.399 . S
C2510 C2509 1.394 . S
C2510 C2511 1.516 . S
C2511 C2510 1.516 . S
C2511 C2512 1.502 . S
C2511 C2513 1.561 . S
C2511 C2514 1.526 . S
C2512 H2496 0.959 . S
C2512 H2497 0.959 . S
C2512 H2498 0.961 . S
C2512 C2511 1.502 . S
C2513 H2499 0.960 . S
C2513 H2500 0.961 . S
C2513 H2501 0.959 . S
C2513 C2511 1.561 . S
C2514 C2511 1.526 . S
C2514 C2515 1.396 . S
C2514 C2519 1.390 . S
C2515 C2509 1.465 . S
C2515 C2514 1.396 . S
C2515 C2516 1.399 . S
C2516 H2502 0.929 . S
C2516 C2515 1.399 . S
C2516 C2517 1.385 . S
C2517 H2503 0.931 . S
C2517 C2516 1.385 . S
C2517 C2518 1.389 . S
C2518 C2517 1.389 . S
C2518 C2519 1.387 . S
C2519 H2504 0.930 . S
C2519 C2514 1.390 . S
C2519 C2518 1.387 . S
C1075 C528 1.637 . S
C1087 C711 1.630 . S
C1102 C562 1.784 . S
C1114 C751 1.789 . S
C1129 C484 1.736 . S
C1141 C790 1.770 . S
C1156 C445 1.566 . S
C1168 C750 1.591 . S
C1195 C791 1.489 . S
C1183 C367 1.480 . S
C1210 C411 1.406 . S
C1222 C710 1.465 1_556 S
C1249 C721 1.633 . S
C1237 C450 1.656 . S
C1276 C761 1.723 . S
C1264 C372 1.788 . S
C1291 C406 1.698 . S
C1303 C800 1.768 . S
C1318 C523 1.533 . S
C1330 C760 1.580 . S
C1345 C567 1.436 . S
C1357 C801 1.473 . S
C1384 C720 1.481 . S
C1372 C489 1.400 . S
C1411 C831 1.656 . S
C1399 C60 1.624 . S
C1426 C94 1.800 . S
C1438 C871 1.750 . S
C1453 C16 1.707 . S
C1465 C910 1.763 . S
C1480 C679 1.555 . S
C1492 C870 1.532 . S
C1507 C601 1.498 . S
C1519 C911 1.438 . S
C1534 C645 1.393 . S
C1546 C830 1.414 . S
C1561 C684 1.644 . S
C1573 C841 1.646 . S
C1588 C606 1.788 . S
C1600 C881 1.724 . S
C1627 C920 1.725 . S
C1615 C640 1.764 . S
C1642 C55 1.595 . S
C1654 C880 1.541 . S
C1681 C921 1.473 . S
C1669 C99 1.438 . S
C1696 C21 1.424 . S
C1708 C840 1.431 . S
C1735 C951 1.595 . S
C1723 C294 1.676 . S
C1750 C328 1.808 . S
C1762 C991 1.743 . S
C1789 C1030 1.712 . S
C1777 C250 1.738 . S
C1816 C990 1.528 . S
C1804 C211 1.566 . S
C1843 C1031 1.454 . S
C1831 C133 1.504 . S
C1858 C177 1.450 . S
C1870 C950 1.442 . S
C1885 C216 1.659 . S
C1897 C961 1.646 . S
C1912 C138 1.786 . S
C1924 C1001 1.724 . S
C1951 C1040 1.721 . S
C1939 C172 1.764 . S
C1966 C289 1.533 . S
C1978 C1000 1.579 . S
C1993 C333 1.435 . S
C2005 C1041 1.474 . S
C2020 C255 1.446 . S
C2032 C960 1.426 . S
C2047 C586 1.341 . S
C2059 C707 1.349 . S
C2086 C747 1.838 . S
C2074 C625 1.840 . S
C2101 C664 1.545 . S
C2113 C797 1.580 . S
C2128 C235 1.845 . S
C2140 C757 1.864 . S
C2155 C274 1.554 . S
C2167 C787 1.563 . S
C2194 C717 1.328 . S
C2182 C313 1.328 . S
C2209 C118 1.344 . S
C2221 C827 1.349 . S
C2236 C157 1.830 . S
C2248 C867 1.850 . S
C2263 C196 1.568 . S
C2275 C917 1.579 . S
C2290 C469 1.858 . S
C2302 C877 1.854 . S
C2329 C907 1.564 . S
C2317 C508 1.552 . S
C2344 C547 1.328 . S
C2356 C837 1.328 . S
C2371 C352 1.346 . S
C2383 C947 1.346 . S
C2398 C391 1.832 . S
C2410 C987 1.849 . S
C2437 C1037 1.580 . S
C2425 C430 1.557 . S
C2452 C1 1.858 . S
C2464 C997 1.853 . S
C2479 C40 1.538 . S
C2491 C1027 1.566 . S
C2506 C79 1.343 . S
C2518 C957 1.333 . S
