# Generated by pormake.
# Topology ptr, (4,4)-cn, num edge types: 1
# Building blocks:
#     Node 0, Type 0, BuildingBlock: AZAVOO_clean_sbu_0, # of connection points: 4
#     Node 1, Type 0, BuildingBlock: AZAVOO_clean_sbu_0, # of connection points: 4
#     Node 2, Type 0, BuildingBlock: AZAVOO_clean_sbu_0, # of connection points: 4
#     Node 3, Type 0, BuildingBlock: AZAVOO_clean_sbu_0, # of connection points: 4
#     Node 4, Type 0, BuildingBlock: AZAVOO_clean_sbu_0, # of connection points: 4
#     Node 5, Type 0, BuildingBlock: AZAVOO_clean_sbu_0, # of connection points: 4
#     Node 6, Type 0, BuildingBlock: AZAVOO_clean_sbu_0, # of connection points: 4
#     Node 7, Type 0, BuildingBlock: AZAVOO_clean_sbu_0, # of connection points: 4
#     Node 8, Type 0, BuildingBlock: AZAVOO_clean_sbu_0, # of connection points: 4
#     Node 9, Type 0, BuildingBlock: AZAVOO_clean_sbu_0, # of connection points: 4
#     Node 10, Type 0, BuildingBlock: AZAVOO_clean_sbu_0, # of connection points: 4
#     Node 11, Type 0, BuildingBlock: AZAVOO_clean_sbu_0, # of connection points: 4
#     Node 12, Type 0, BuildingBlock: AZAVOO_clean_sbu_0, # of connection points: 4
#     Node 13, Type 0, BuildingBlock: AZAVOO_clean_sbu_0, # of connection points: 4
#     Node 14, Type 0, BuildingBlock: AZAVOO_clean_sbu_0, # of connection points: 4
#     Node 15, Type 0, BuildingBlock: AZAVOO_clean_sbu_0, # of connection points: 4
#     Node 16, Type 0, BuildingBlock: AZAVOO_clean_sbu_0, # of connection points: 4
#     Node 17, Type 0, BuildingBlock: AZAVOO_clean_sbu_0, # of connection points: 4
#     Node 18, Type 1, BuildingBlock: GIZVER_clean_linker_0, # of connection points: 4
#     Node 19, Type 1, BuildingBlock: GIZVER_clean_linker_0, # of connection points: 4
#     Node 20, Type 1, BuildingBlock: GIZVER_clean_linker_0, # of connection points: 4
#     Node 21, Type 1, BuildingBlock: GIZVER_clean_linker_0, # of connection points: 4
#     Node 22, Type 1, BuildingBlock: GIZVER_clean_linker_0, # of connection points: 4
#     Node 23, Type 1, BuildingBlock: GIZVER_clean_linker_0, # of connection points: 4
#     Node 24, Type 1, BuildingBlock: GIZVER_clean_linker_0, # of connection points: 4
#     Node 25, Type 1, BuildingBlock: GIZVER_clean_linker_0, # of connection points: 4
#     Node 26, Type 1, BuildingBlock: GIZVER_clean_linker_0, # of connection points: 4
#     Node 27, Type 1, BuildingBlock: GIZVER_clean_linker_0, # of connection points: 4
#     Node 28, Type 1, BuildingBlock: GIZVER_clean_linker_0, # of connection points: 4
#     Node 29, Type 1, BuildingBlock: GIZVER_clean_linker_0, # of connection points: 4
#     Node 30, Type 1, BuildingBlock: GIZVER_clean_linker_0, # of connection points: 4
#     Node 31, Type 1, BuildingBlock: GIZVER_clean_linker_0, # of connection points: 4
#     Node 32, Type 1, BuildingBlock: GIZVER_clean_linker_0, # of connection points: 4
#     Node 33, Type 1, BuildingBlock: GIZVER_clean_linker_0, # of connection points: 4
#     Node 34, Type 1, BuildingBlock: GIZVER_clean_linker_0, # of connection points: 4
#     Node 35, Type 1, BuildingBlock: GIZVER_clean_linker_0, # of connection points: 4
#     Edge 36, Type (0, 1), BuildingBlock: KIFKEQ_clean_linker_1, # of connection points: 2
#     Edge 37, Type (0, 1), BuildingBlock: KIFKEQ_clean_linker_1, # of connection points: 2
#     Edge 38, Type (0, 1), BuildingBlock: KIFKEQ_clean_linker_1, # of connection points: 2
#     Edge 39, Type (0, 1), BuildingBlock: KIFKEQ_clean_linker_1, # of connection points: 2
#     Edge 40, Type (0, 1), BuildingBlock: KIFKEQ_clean_linker_1, # of connection points: 2
#     Edge 41, Type (0, 1), BuildingBlock: KIFKEQ_clean_linker_1, # of connection points: 2
#     Edge 42, Type (0, 1), BuildingBlock: KIFKEQ_clean_linker_1, # of connection points: 2
#     Edge 43, Type (0, 1), BuildingBlock: KIFKEQ_clean_linker_1, # of connection points: 2
#     Edge 44, Type (0, 1), BuildingBlock: KIFKEQ_clean_linker_1, # of connection points: 2
#     Edge 45, Type (0, 1), BuildingBlock: KIFKEQ_clean_linker_1, # of connection points: 2
#     Edge 46, Type (0, 1), BuildingBlock: KIFKEQ_clean_linker_1, # of connection points: 2
#     Edge 47, Type (0, 1), BuildingBlock: KIFKEQ_clean_linker_1, # of connection points: 2
#     Edge 48, Type (0, 1), BuildingBlock: KIFKEQ_clean_linker_1, # of connection points: 2
#     Edge 49, Type (0, 1), BuildingBlock: KIFKEQ_clean_linker_1, # of connection points: 2
#     Edge 50, Type (0, 1), BuildingBlock: KIFKEQ_clean_linker_1, # of connection points: 2
#     Edge 51, Type (0, 1), BuildingBlock: KIFKEQ_clean_linker_1, # of connection points: 2
#     Edge 52, Type (0, 1), BuildingBlock: KIFKEQ_clean_linker_1, # of connection points: 2
#     Edge 53, Type (0, 1), BuildingBlock: KIFKEQ_clean_linker_1, # of connection points: 2
#     Edge 54, Type (0, 1), BuildingBlock: KIFKEQ_clean_linker_1, # of connection points: 2
#     Edge 55, Type (0, 1), BuildingBlock: KIFKEQ_clean_linker_1, # of connection points: 2
#     Edge 56, Type (0, 1), BuildingBlock: KIFKEQ_clean_linker_1, # of connection points: 2
#     Edge 57, Type (0, 1), BuildingBlock: KIFKEQ_clean_linker_1, # of connection points: 2
#     Edge 58, Type (0, 1), BuildingBlock: KIFKEQ_clean_linker_1, # of connection points: 2
#     Edge 59, Type (0, 1), BuildingBlock: KIFKEQ_clean_linker_1, # of connection points: 2
#     Edge 60, Type (0, 1), BuildingBlock: KIFKEQ_clean_linker_1, # of connection points: 2
#     Edge 61, Type (0, 1), BuildingBlock: KIFKEQ_clean_linker_1, # of connection points: 2
#     Edge 62, Type (0, 1), BuildingBlock: KIFKEQ_clean_linker_1, # of connection points: 2
#     Edge 63, Type (0, 1), BuildingBlock: KIFKEQ_clean_linker_1, # of connection points: 2
#     Edge 64, Type (0, 1), BuildingBlock: KIFKEQ_clean_linker_1, # of connection points: 2
#     Edge 65, Type (0, 1), BuildingBlock: KIFKEQ_clean_linker_1, # of connection points: 2
#     Edge 66, Type (0, 1), BuildingBlock: KIFKEQ_clean_linker_1, # of connection points: 2
#     Edge 67, Type (0, 1), BuildingBlock: KIFKEQ_clean_linker_1, # of connection points: 2
#     Edge 68, Type (0, 1), BuildingBlock: KIFKEQ_clean_linker_1, # of connection points: 2
#     Edge 69, Type (0, 1), BuildingBlock: KIFKEQ_clean_linker_1, # of connection points: 2
#     Edge 70, Type (0, 1), BuildingBlock: KIFKEQ_clean_linker_1, # of connection points: 2
#     Edge 71, Type (0, 1), BuildingBlock: KIFKEQ_clean_linker_1, # of connection points: 2
#     Edge 72, Type (0, 1), BuildingBlock: KIFKEQ_clean_linker_1, # of connection points: 2
#     Edge 73, Type (0, 1), BuildingBlock: KIFKEQ_clean_linker_1, # of connection points: 2
#     Edge 74, Type (0, 1), BuildingBlock: KIFKEQ_clean_linker_1, # of connection points: 2
#     Edge 75, Type (0, 1), BuildingBlock: KIFKEQ_clean_linker_1, # of connection points: 2
#     Edge 76, Type (0, 1), BuildingBlock: KIFKEQ_clean_linker_1, # of connection points: 2
#     Edge 77, Type (0, 1), BuildingBlock: KIFKEQ_clean_linker_1, # of connection points: 2
#     Edge 78, Type (0, 1), BuildingBlock: KIFKEQ_clean_linker_1, # of connection points: 2
#     Edge 79, Type (0, 1), BuildingBlock: KIFKEQ_clean_linker_1, # of connection points: 2
#     Edge 80, Type (0, 1), BuildingBlock: KIFKEQ_clean_linker_1, # of connection points: 2
#     Edge 81, Type (0, 1), BuildingBlock: KIFKEQ_clean_linker_1, # of connection points: 2
#     Edge 82, Type (0, 1), BuildingBlock: KIFKEQ_clean_linker_1, # of connection points: 2
#     Edge 83, Type (0, 1), BuildingBlock: KIFKEQ_clean_linker_1, # of connection points: 2
#     Edge 84, Type (0, 1), BuildingBlock: KIFKEQ_clean_linker_1, # of connection points: 2
#     Edge 85, Type (0, 1), BuildingBlock: KIFKEQ_clean_linker_1, # of connection points: 2
#     Edge 86, Type (0, 1), BuildingBlock: KIFKEQ_clean_linker_1, # of connection points: 2
#     Edge 87, Type (0, 1), BuildingBlock: KIFKEQ_clean_linker_1, # of connection points: 2
#     Edge 88, Type (0, 1), BuildingBlock: KIFKEQ_clean_linker_1, # of connection points: 2
#     Edge 89, Type (0, 1), BuildingBlock: KIFKEQ_clean_linker_1, # of connection points: 2
#     Edge 90, Type (0, 1), BuildingBlock: KIFKEQ_clean_linker_1, # of connection points: 2
#     Edge 91, Type (0, 1), BuildingBlock: KIFKEQ_clean_linker_1, # of connection points: 2
#     Edge 92, Type (0, 1), BuildingBlock: KIFKEQ_clean_linker_1, # of connection points: 2
#     Edge 93, Type (0, 1), BuildingBlock: KIFKEQ_clean_linker_1, # of connection points: 2
#     Edge 94, Type (0, 1), BuildingBlock: KIFKEQ_clean_linker_1, # of connection points: 2
#     Edge 95, Type (0, 1), BuildingBlock: KIFKEQ_clean_linker_1, # of connection points: 2
#     Edge 96, Type (0, 1), BuildingBlock: KIFKEQ_clean_linker_1, # of connection points: 2
#     Edge 97, Type (0, 1), BuildingBlock: KIFKEQ_clean_linker_1, # of connection points: 2
#     Edge 98, Type (0, 1), BuildingBlock: KIFKEQ_clean_linker_1, # of connection points: 2
#     Edge 99, Type (0, 1), BuildingBlock: KIFKEQ_clean_linker_1, # of connection points: 2
#     Edge 100, Type (0, 1), BuildingBlock: KIFKEQ_clean_linker_1, # of connection points: 2
#     Edge 101, Type (0, 1), BuildingBlock: KIFKEQ_clean_linker_1, # of connection points: 2
#     Edge 102, Type (0, 1), BuildingBlock: KIFKEQ_clean_linker_1, # of connection points: 2
#     Edge 103, Type (0, 1), BuildingBlock: KIFKEQ_clean_linker_1, # of connection points: 2
#     Edge 104, Type (0, 1), BuildingBlock: KIFKEQ_clean_linker_1, # of connection points: 2
#     Edge 105, Type (0, 1), BuildingBlock: KIFKEQ_clean_linker_1, # of connection points: 2
#     Edge 106, Type (0, 1), BuildingBlock: KIFKEQ_clean_linker_1, # of connection points: 2
#     Edge 107, Type (0, 1), BuildingBlock: KIFKEQ_clean_linker_1, # of connection points: 2
# Relax obj value: 0.078
# Max RMSD: 0.236
# Mean RMSD: 0.124
data_MOF--net-ptr--node1-AZAVOO_clean_sbu_0--node2-GIZVER_clean_linker_0--edge1-KIFKEQ_clean_linker_1
_symmetry_space_group_name_H-M    P1
_symmetry_Int_Tables_number       1
_symmetry_cell_setting            triclinic
loop_
_symmetry_equiv_pos_as_xyz
'x, y, z'
_cell_length_a     82.201282
_cell_length_b     81.080838
_cell_length_c     46.935609
_cell_angle_alpha  91.62331
_cell_angle_beta   91.529144
_cell_angle_gamma 120.03503
loop_
_atom_site_label
_atom_site_type_symbol
_atom_site_fract_x
_atom_site_fract_y
_atom_site_fract_z
_atom_type_partial_charge
Mg0 Mg 0.01435 0.37042 0.97682 0.0
O1 O 0.01056 0.38561 0.01647 0.0
O2 O 0.9858 0.38912 0.00564 0.0
Mg3 Mg 0.97395 0.37676 0.96071 0.0
C4 C 0.99913 0.39138 0.02289 0.0
C5 C 0.05215 0.373 0.99357 0.0
O6 O 0.05684 0.38577 0.97416 0.0
O7 O 0.98883 0.34184 0.98782 0.0
O8 O 0.96518 0.34671 0.97548 0.0
O9 O 0.03268 0.39884 0.9588 0.0
O10 O 1.00196 0.382 0.95063 0.0
C11 C 0.97123 0.336 0.98478 0.0
C12 C 0.01755 0.39757 0.94754 0.0
O13 O 0.03515 0.36404 0.00092 0.0
Mg14 Mg 0.63376 0.64067 0.03921 0.0
O15 O 0.61738 0.62483 -0.0025 0.0
O16 O 0.58883 0.62174 -0.00095 0.0
Mg17 Mg 0.58664 0.63468 0.0417 0.0
C18 C 0.60093 0.61905 0.98639 0.0
C19 C 0.67316 0.64451 0.03608 0.0
O20 O 0.66872 0.63858 0.062 0.0
O21 O 0.63725 0.66872 0.0241 0.0
O22 O 0.60873 0.66502 0.02967 0.0
O23 O 0.62334 0.61293 0.0597 0.0
O24 O 0.60843 0.62927 0.05989 0.0
C25 C 0.62594 0.67521 0.02345 0.0
C26 C 0.60867 0.614 0.06614 0.0
O27 O 0.66156 0.64685 0.02069 0.0
Mg28 Mg 0.38255 0.00568 0.97739 0.0
O29 O 0.39825 0.00703 0.01947 0.0
O30 O 0.42728 0.03221 0.01851 0.0
Mg31 Mg 0.43031 0.04657 0.97649 0.0
C32 C 0.4147 0.01785 0.03091 0.0
C33 C 0.34234 0.97064 0.97988 0.0
O34 O 0.34651 0.96792 0.95399 0.0
O35 O 0.37972 0.03087 0.9927 0.0
O36 O 0.40896 0.05547 0.99015 0.0
O37 O 0.39249 0.98755 0.95673 0.0
O38 O 0.40793 0.01906 0.95725 0.0
C39 C 0.39164 0.04867 -0.00454 0.0
C40 C 0.40731 0.00324 0.95044 0.0
O41 O 0.35445 0.98493 -0.00469 0.0
Mg42 Mg 0.00673 0.6391 0.02342 0.0
O43 O 0.0105 0.62349 0.98407 0.0
O44 O 0.03517 0.62009 -0.00371 0.0
Mg45 Mg 0.04699 0.63273 0.04088 0.0
C46 C 0.02199 0.6176 0.97854 0.0
C47 C 0.97014 0.63232 0.99087 0.0
O48 O 0.9666 0.61465 0.99194 0.0
O49 O 0.03235 0.66727 0.01237 0.0
O50 O 0.05609 0.66275 0.02561 0.0
O51 O 0.98779 0.61128 0.04236 0.0
O52 O 0.01873 0.62727 0.04919 0.0
C53 C 0.04994 0.67324 0.01576 0.0
C54 C 1.0029 0.61209 0.05279 0.0
O55 O 0.98619 0.64584 -0.00011 0.0
Mg56 Mg 0.37634 0.37249 0.96294 0.0
O57 O 0.39251 0.38737 0.00562 0.0
O58 O 0.42165 0.39205 0.00156 0.0
Mg59 Mg 0.4247 0.38229 0.95716 0.0
C60 C 0.40922 0.39324 0.0158 0.0
C61 C 0.34366 0.37512 0.99123 0.0
O62 O 0.35651 0.3933 0.99288 0.0
O63 O 0.37515 0.34479 0.97442 0.0
O64 O 0.40464 0.35125 0.96855 0.0
O65 O 0.38432 0.40052 0.94523 0.0
O66 O 0.40143 0.38644 0.94264 0.0
C67 C 0.38762 0.33982 0.97454 0.0
C68 C 0.39971 0.40112 0.93815 0.0
O69 O 0.34786 0.36306 0.98129 0.0
Mg70 Mg 0.62836 0.00459 0.04137 0.0
O71 O 0.61014 0.99952 0.00015 0.0
O72 O 0.58204 0.97391 0.00655 0.0
Mg73 Mg 0.58221 0.96218 0.0499 0.0
C74 C 0.59324 0.98751 0.99144 0.0
C75 C 0.66248 0.04377 0.0264 0.0
O76 O 0.65344 0.04958 0.04278 0.0
O77 O 0.63254 0.97964 0.02816 0.0
O78 O 0.60419 0.95459 0.03508 0.0
O79 O 0.61704 0.02207 0.06108 0.0
O80 O 0.60422 0.99098 0.06449 0.0
C81 C 0.6212 0.96165 0.02785 0.0
C82 C 0.60349 0.00625 0.06975 0.0
O83 O 0.65539 0.02599 0.02061 0.0
Mg84 Mg 0.67689 0.70097 0.3058 0.0
O85 O 0.67599 0.71764 0.346 0.0
O86 O 0.65316 0.72449 0.33733 0.0
Mg87 Mg 0.63946 0.7123 0.29321 0.0
C88 C 0.6663 0.7253 0.35349 0.0
C89 C 0.70624 0.68868 0.31199 0.0
O90 O 0.70383 0.68919 0.28431 0.0
O91 O 0.65018 0.67393 0.31777 0.0
O92 O 0.6282 0.68185 0.30854 0.0
O93 O 0.69693 0.72847 0.28745 0.0
O94 O 0.66605 0.7145 0.28088 0.0
C95 C 0.63302 0.66993 0.3167 0.0
C96 C 0.68242 0.72905 0.27739 0.0
O97 O 0.69639 0.69248 0.32851 0.0
Mg98 Mg 0.29674 0.97056 0.38234 0.0
O99 O 0.28063 0.95545 0.34008 0.0
O100 O 0.25176 0.95153 0.34178 0.0
Mg101 Mg 0.24919 0.96358 0.38482 0.0
C102 C 0.26419 0.94955 0.32886 0.0
C103 C 0.34035 0.98861 0.37432 0.0
O104 O 0.3414 0.9995 0.39638 0.0
O105 O 0.30016 0.99897 0.3687 0.0
O106 O 0.27101 0.99393 0.37284 0.0
O107 O 0.2864 0.94246 0.40137 0.0
O108 O 0.27129 0.95859 0.40296 0.0
C109 C 0.28828 0.00475 0.36741 0.0
C110 C 0.27165 0.94325 0.40825 0.0
O111 O 0.32427 0.97632 0.36341 0.0
Mg112 Mg 0.04305 0.33434 0.31037 0.0
O113 O 0.05972 0.33649 0.35165 0.0
O114 O 0.08879 0.36137 0.34901 0.0
Mg115 Mg 0.09066 0.375 0.30642 0.0
C116 C 0.07643 0.34729 0.36219 0.0
C117 C 1.00034 0.31193 0.31956 0.0
O118 O 1.001 0.32339 0.29982 0.0
O119 O 0.0403 0.35966 0.32577 0.0
O120 O 0.06938 0.38385 0.32049 0.0
O121 O 0.05294 0.31602 0.2901 0.0
O122 O 0.06775 0.34747 0.28878 0.0
C123 C 0.05232 0.37747 0.32704 0.0
C124 C 0.0674 0.3317 0.28285 0.0
O125 O 0.01558 0.31335 0.32933 0.0
Mg126 Mg 0.66672 0.96982 0.36665 0.0
O127 O 0.67115 0.95415 0.32789 0.0
O128 O 0.69695 0.95269 0.33982 0.0
Mg129 Mg 0.70965 0.96799 0.38271 0.0
C130 C 0.68313 0.94887 0.32253 0.0
C131 C 0.6296 0.96876 0.35745 0.0
O132 O 0.62905 0.96222 0.38292 0.0
O133 O 0.69033 0.99866 0.35309 0.0
O134 O 0.71576 0.99626 0.3636 0.0
O135 O 0.65047 0.942 0.38725 0.0
O136 O 0.68119 0.96099 0.39343 0.0
C137 C 0.70812 0.00549 0.35395 0.0
C138 C 0.66642 0.94496 0.39801 0.0
O139 O 0.644 0.97328 0.34293 0.0
Mg140 Mg 0.04071 0.71186 0.29137 0.0
O141 O 0.05808 0.72469 0.33368 0.0
O142 O 0.08646 0.72794 0.32722 0.0
Mg143 Mg 0.08783 0.71905 0.28125 0.0
C144 C 0.07472 0.72941 0.34282 0.0
C145 C 0.00553 0.71386 0.30917 0.0
O146 O 0.01419 0.7294 0.2948 0.0
O147 O 0.03776 0.68275 0.29996 0.0
O148 O 0.06649 0.68814 0.29079 0.0
O149 O 0.05079 0.7413 0.27672 0.0
O150 O 0.06536 0.72505 0.26928 0.0
C151 C 0.04958 0.67698 0.29756 0.0
C152 C 0.06519 0.74078 0.26733 0.0
O153 O 0.01317 0.7037 0.31254 0.0
Mg154 Mg 0.2965 0.33818 0.37491 0.0
O155 O 0.27965 0.33445 0.33263 0.0
O156 O 0.25166 0.30797 0.33648 0.0
Mg157 Mg 0.24967 0.29621 0.38046 0.0
C158 C 0.26326 0.32202 0.32243 0.0
C159 C 0.32826 0.37511 0.34742 0.0
O160 O 0.31504 0.37972 0.34669 0.0
O161 O 0.30008 0.31287 0.3618 0.0
O162 O 0.27158 0.28789 0.36806 0.0
O163 O 0.28611 0.35643 0.39445 0.0
O164 O 0.27143 0.32501 0.39558 0.0
C165 C 0.28871 0.2949 0.3615 0.0
C166 C 0.27159 0.34071 0.40136 0.0
O167 O 0.32456 0.35903 0.35653 0.0
Mg168 Mg 0.33727 0.02569 0.64257 0.0
O169 O 0.33559 0.04146 0.68333 0.0
O170 O 0.31133 0.04628 0.67555 0.0
Mg171 Mg 0.29709 0.03317 0.63207 0.0
C172 C 0.32512 0.04813 0.69125 0.0
C173 C 0.37363 0.02439 0.65063 0.0
O174 O 0.37576 0.03346 0.62704 0.0
O175 O 0.31204 0.99751 0.65518 0.0
O176 O 0.28843 0.00334 0.64776 0.0
O177 O 0.35521 0.05396 0.62411 0.0
O178 O 0.32423 0.0375 0.61854 0.0
C179 C 0.29458 0.99235 0.65529 0.0
C180 C 0.33979 0.05298 0.61478 0.0
O181 O 0.35859 0.01896 0.66392 0.0
Mg182 Mg 0.95669 0.29659 0.7104 0.0
O183 O 0.93932 0.28149 0.66904 0.0
O184 O 0.91138 0.27969 0.67202 0.0
Mg185 Mg 0.91062 0.29292 0.71528 0.0
C186 C 0.92289 0.27646 0.65858 0.0
C187 C 0.99957 0.31324 0.70201 0.0
O188 O 1.00028 0.32415 0.72381 0.0
O189 O 0.96142 0.32523 0.69589 0.0
O190 O 0.93349 0.32277 0.70261 0.0
O191 O 0.94533 0.26868 0.73047 0.0
O192 O 0.93189 0.2864 0.73231 0.0
C193 C 0.95065 0.33238 0.69581 0.0
C194 C 0.93137 0.27069 0.73806 0.0
O195 O 0.9836 0.30089 0.69081 0.0
Mg196 Mg 0.71316 0.66604 0.6364 0.0
O197 O 0.72894 0.66594 0.67743 0.0
O198 O 0.75914 0.68821 0.67388 0.0
Mg199 Mg 0.76266 0.70196 0.63103 0.0
C200 C 0.74594 0.67515 0.68749 0.0
C201 C 0.67188 0.63562 0.63936 0.0
O202 O 0.67561 0.63334 0.61297 0.0
O203 O 0.71481 0.69362 0.65184 0.0
O204 O 0.74483 0.71517 0.64538 0.0
O205 O 0.71877 0.6445 0.61615 0.0
O206 O 0.73758 0.67566 0.61428 0.0
C207 C 0.72831 0.71085 0.6526 0.0
C208 C 0.73449 0.65866 0.60856 0.0
O209 O 0.68489 0.64845 0.65576 0.0
Mg210 Mg 0.33201 0.30968 0.70225 0.0
O211 O 0.33563 0.29411 0.66264 0.0
O212 O 0.36197 0.29298 0.67199 0.0
Mg213 Mg 0.37421 0.30589 0.71631 0.0
C214 C 0.34785 0.2895 0.65564 0.0
C215 C 0.30534 0.32564 0.69064 0.0
O216 O 0.31473 0.33553 0.714 0.0
O217 O 0.35642 0.33856 0.68981 0.0
O218 O 0.38125 0.3351 0.70024 0.0
O219 O 0.31486 0.28175 0.72211 0.0
O220 O 0.34587 0.29929 0.72703 0.0
C221 C 0.37415 0.34497 0.69131 0.0
C222 C 0.33068 0.28359 0.73134 0.0
O223 O 0.3098 0.31416 0.67903 0.0
Mg224 Mg 0.71192 0.04109 0.64396 0.0
O225 O 0.72995 0.05567 0.68538 0.0
O226 O 0.75846 0.05943 0.67884 0.0
Mg227 Mg 0.7586 0.04667 0.63517 0.0
C228 C 0.74695 0.06155 0.6941 0.0
C229 C 0.67813 0.04598 0.66093 0.0
O230 O 0.68767 0.06127 0.64635 0.0
O231 O 0.70831 0.01232 0.65581 0.0
O232 O 0.73708 0.01678 0.6492 0.0
O233 O 0.72253 0.06951 0.62503 0.0
O234 O 0.73611 0.05205 0.62083 0.0
C235 C 0.72003 0.00632 0.65595 0.0
C236 C 0.73627 0.06766 0.6159 0.0
O237 O 0.68477 0.03497 0.66492 0.0
Mg238 Mg 0.9567 0.66352 0.695 0.0
O239 O 0.9387 0.65835 0.65351 0.0
O240 O 0.91026 0.63339 0.66042 0.0
Mg241 Mg 0.90996 0.62235 0.70452 0.0
C242 C 0.92171 0.64656 0.64491 0.0
C243 C 0.99324 0.70103 0.68347 0.0
O244 O 0.9863 0.7067 0.70392 0.0
O245 O 0.95989 0.63777 0.68333 0.0
O246 O 0.93128 0.61342 0.69105 0.0
O247 O 0.94633 0.68221 0.71331 0.0
O248 O 0.93251 0.65115 0.71816 0.0
C249 C 0.94823 0.61989 0.68389 0.0
C250 C 0.93243 0.66685 0.72251 0.0
O251 O 0.98399 0.68377 0.67388 0.0
H252 H 0.15564 0.31081 0.13524 0.0
H253 H 0.15415 0.32834 0.04978 0.0
H254 H 0.1324 0.34654 0.11865 0.0
H255 H 0.16006 0.2945 0.09119 0.0
H256 H 0.16462 0.30589 0.05799 0.0
H257 H 0.18384 0.31458 0.13489 0.0
H258 H 0.24085 0.33905 0.10994 0.0
H259 H 0.19666 0.3238 0.04631 0.0
C260 C 0.15318 0.31944 0.12052 0.0
C261 C 0.14479 0.32971 0.13031 0.0
C262 C 0.15773 0.3198 0.09177 0.0
C263 C 0.15197 0.32908 0.07235 0.0
C264 C 0.14268 0.33865 0.08197 0.0
C265 C 0.13989 0.33953 0.11113 0.0
C266 C 0.1669 0.30866 0.08151 0.0
C267 C 0.18776 0.31867 0.0898 0.0
C268 C 0.19395 0.32 0.11854 0.0
C269 C 0.21315 0.32781 0.1263 0.0
C270 C 0.2261 0.33392 0.10474 0.0
C271 C 0.22023 0.33254 0.07611 0.0
C272 C 0.20114 0.3252 0.06861 0.0
H273 H 0.70313 0.84737 0.14338 0.0
H274 H 0.68698 0.83052 0.05422 0.0
H275 H 0.68142 0.78924 0.11444 0.0
H276 H 0.71631 0.87102 0.10381 0.0
H277 H 0.70587 0.86403 0.06855 0.0
H278 H 0.69649 0.87195 0.14448 0.0
H279 H 0.65819 0.89071 0.1187 0.0
H280 H 0.68046 0.86907 0.05549 0.0
C281 C 0.69712 0.83648 0.12625 0.0
C282 C 0.69196 0.81769 0.13204 0.0
C283 C 0.69526 0.8413 0.09817 0.0
C284 C 0.68812 0.82696 0.07598 0.0
C285 C 0.68342 0.80822 0.08178 0.0
C286 C 0.68519 0.80375 0.10983 0.0
C287 C 0.70275 0.86194 0.09152 0.0
C288 C 0.68931 0.8688 0.09924 0.0
C289 C 0.68809 0.87359 0.12789 0.0
C290 C 0.6766 0.88119 0.13513 0.0
C291 C 0.66629 0.88391 0.11342 0.0
C292 C 0.6677 0.87973 0.08471 0.0
C293 C 0.67909 0.872 0.0777 0.0
H294 H 0.18022 0.83587 0.14466 0.0
H295 H 0.16943 0.80474 0.06419 0.0
H296 H 0.12384 0.8021 0.11044 0.0
H297 H 0.20168 0.82207 0.11891 0.0
H298 H 0.20099 0.82351 0.08123 0.0
H299 H 0.21117 0.85094 0.15127 0.0
H300 H 0.24521 0.90503 0.11518 0.0
H301 H 0.21569 0.85436 0.06015 0.0
C302 C 0.17067 0.82735 0.12714 0.0
C303 C 0.15134 0.81956 0.13045 0.0
C304 C 0.17747 0.82283 0.10265 0.0
C305 C 0.16441 0.80972 0.08167 0.0
C306 C 0.14492 0.80176 0.08469 0.0
C307 C 0.13878 0.80803 0.10808 0.0
C308 C 0.19817 0.82893 0.10146 0.0
C309 C 0.2111 0.85031 0.10516 0.0
C310 C 0.21622 0.85933 0.13262 0.0
C311 C 0.22778 0.87918 0.13619 0.0
C312 C 0.23534 0.88986 0.1122 0.0
C313 C 0.23149 0.88101 0.08479 0.0
C314 C 0.21891 0.86127 0.08129 0.0
H315 H 0.36602 0.18988 0.84462 0.0
H316 H 0.38133 0.20604 0.93369 0.0
H317 H 0.34514 0.22182 0.88933 0.0
H318 H 0.39409 0.19083 0.86814 0.0
H319 H 0.39814 0.19442 0.90593 0.0
H320 H 0.37011 0.15987 0.84632 0.0
H321 H 0.35126 0.1115 0.89875 0.0
H322 H 0.38126 0.1682 0.93725 0.0
C323 C 0.36438 0.19594 0.86448 0.0
C324 C 0.35372 0.20507 0.86448 0.0
C325 C 0.37395 0.19574 0.88961 0.0
C326 C 0.37304 0.2051 0.91472 0.0
C327 C 0.36251 0.2144 0.91481 0.0
C328 C 0.35234 0.21367 0.88988 0.0
C329 C 0.38689 0.18762 0.88868 0.0
C330 C 0.37608 0.16635 0.89157 0.0
C331 C 0.36833 0.15396 0.86718 0.0
C332 C 0.35952 0.1341 0.86951 0.0
C333 C 0.35776 0.12678 0.89671 0.0
C334 C 0.36567 0.13896 0.92113 0.0
C335 C 0.37467 0.15874 0.91851 0.0
H336 H 0.84119 0.16714 0.88656 0.0
H337 H 0.86185 0.18187 0.97459 0.0
H338 H 0.88193 0.22474 0.91262 0.0
H339 H 0.84528 0.14391 0.92788 0.0
H340 H 0.83987 0.14945 0.96191 0.0
H341 H 0.82275 0.13473 0.88599 0.0
H342 H 0.76484 0.11285 0.90468 0.0
H343 H 0.808 0.14229 0.97082 0.0
C344 C 0.84944 0.17758 0.90346 0.0
C345 C 0.86088 0.19664 0.89651 0.0
C346 C 0.8492 0.17204 0.93179 0.0
C347 C 0.86112 0.18594 0.95301 0.0
C348 C 0.87288 0.20492 0.94594 0.0
C349 C 0.87239 0.21014 0.91797 0.0
C350 C 0.83849 0.15113 0.93868 0.0
C351 C 0.81786 0.14094 0.92897 0.0
C352 C 0.81226 0.1334 0.90069 0.0
C353 C 0.79316 0.12337 0.89165 0.0
C354 C 0.77964 0.12076 0.91132 0.0
C355 C 0.78481 0.12714 0.93991 0.0
C356 C 0.80396 0.13749 0.94864 0.0
H357 H 0.82697 0.6487 0.86979 0.0
H358 H 0.84088 0.63603 0.95252 0.0
H359 H 0.88408 0.66713 0.89418 0.0
H360 H 0.80522 0.61624 0.90307 0.0
H361 H 0.80881 0.62354 0.93977 0.0
H362 H 0.79611 0.63318 0.8673 0.0
H363 H 0.76573 0.65911 0.90035 0.0
H364 H 0.79553 0.64209 0.95804 0.0
C365 C 0.83715 0.65028 0.88614 0.0
C366 C 0.85618 0.65972 0.8796 0.0
C367 C 0.83138 0.64197 0.91269 0.0
C368 C 0.84514 0.64315 0.93261 0.0
C369 C 0.86429 0.6525 0.92625 0.0
C370 C 0.86957 0.66104 0.89998 0.0
C371 C 0.81063 0.62901 0.91792 0.0
C372 C 0.79856 0.63806 0.91312 0.0
C373 C 0.79248 0.63916 0.88528 0.0
C374 C 0.78112 0.64726 0.88045 0.0
C375 C 0.77491 0.65329 0.90391 0.0
C376 C 0.77959 0.65103 0.93192 0.0
C377 C 0.79182 0.64382 0.93645 0.0
H378 H 0.81642 0.63211 0.45317 0.0
H379 H 0.81441 0.65257 0.36988 0.0
H380 H 0.78481 0.66004 0.43877 0.0
H381 H 0.82432 0.6198 0.4072 0.0
H382 H 0.82886 0.63323 0.37596 0.0
H383 H 0.84511 0.6367 0.45337 0.0
H384 H 0.9028 0.67521 0.43714 0.0
H385 H 0.86053 0.65733 0.36911 0.0
C386 C 0.81231 0.63982 0.43904 0.0
C387 C 0.80077 0.64653 0.44915 0.0
C388 C 0.81782 0.64239 0.41061 0.0
C389 C 0.81083 0.65109 0.39208 0.0
C390 C 0.79892 0.65757 0.40218 0.0
C391 C 0.79423 0.65541 0.43082 0.0
C392 C 0.82984 0.63447 0.39969 0.0
C393 C 0.85021 0.64646 0.41037 0.0
C394 C 0.85553 0.64583 0.43893 0.0
C395 C 0.87439 0.65662 0.44893 0.0
C396 C 0.88809 0.66767 0.4299 0.0
C397 C 0.88326 0.66774 0.40106 0.0
C398 C 0.86427 0.65736 0.39144 0.0
H399 H 0.35934 0.17355 0.48924 0.0
H400 H 0.34195 0.15821 0.40024 0.0
H401 H 0.32358 0.1149 0.46187 0.0
H402 H 0.37553 0.19639 0.45118 0.0
H403 H 0.36672 0.1905 0.41489 0.0
H404 H 0.3561 0.20178 0.48804 0.0
H405 H 0.32533 0.22751 0.45443 0.0
H406 H 0.34438 0.19921 0.39741 0.0
C407 C 0.35112 0.16292 0.4724 0.0
C408 C 0.34089 0.14366 0.4788 0.0
C409 C 0.35108 0.16839 0.44418 0.0
C410 C 0.34138 0.15423 0.4222 0.0
C411 C 0.3313 0.1349 0.42857 0.0
C412 C 0.33079 0.12986 0.45696 0.0
C413 C 0.36239 0.18914 0.43736 0.0
C414 C 0.35132 0.19917 0.44226 0.0
C415 C 0.34967 0.20492 0.47017 0.0
C416 C 0.34007 0.21499 0.47496 0.0
C417 C 0.33199 0.21898 0.45141 0.0
C418 C 0.33334 0.21324 0.42359 0.0
C419 C 0.34306 0.20337 0.41899 0.0
H420 H 0.83665 0.15445 0.47088 0.0
H421 H 0.83225 0.14369 0.37986 0.0
H422 H 0.7825 0.12157 0.42797 0.0
H423 H 0.8627 0.15468 0.44195 0.0
H424 H 0.86217 0.15692 0.40438 0.0
H425 H 0.86637 0.18133 0.47558 0.0
H426 H 0.89922 0.23705 0.4432 0.0
H427 H 0.87412 0.18769 0.3854 0.0
C428 C 0.82816 0.14943 0.45112 0.0
C429 C 0.80858 0.13843 0.45222 0.0
C430 C 0.83688 0.15193 0.42494 0.0
C431 C 0.82566 0.14318 0.39977 0.0
C432 C 0.80597 0.13237 0.40071 0.0
C433 C 0.79759 0.1308 0.42683 0.0
C434 C 0.85799 0.16075 0.42477 0.0
C435 C 0.86814 0.18216 0.42974 0.0
C436 C 0.87149 0.1904 0.45764 0.0
C437 C 0.88267 0.21023 0.46264 0.0
C438 C 0.89018 0.22179 0.43938 0.0
C439 C 0.88743 0.21381 0.41155 0.0
C440 C 0.87605 0.19399 0.40678 0.0
H441 H 0.02527 0.51936 0.19073 0.0
H442 H 0.02976 0.53511 0.28016 0.0
H443 H 1.00276 0.5538 0.21966 0.0
H444 H 0.05137 0.52207 0.22605 0.0
H445 H 0.04748 0.52139 0.26321 0.0
H446 H 0.02961 0.49382 0.19271 0.0
H447 H 0.00864 0.44015 0.23114 0.0
H448 H 0.02865 0.49147 0.28417 0.0
C449 C 0.02158 0.52553 0.2084 0.0
C450 C 0.01201 0.53534 0.20269 0.0
C451 C 0.02756 0.52487 0.23646 0.0
C452 C 0.02432 0.53477 0.25874 0.0
C453 C 0.01549 0.54549 0.25303 0.0
C454 C 0.00872 0.54493 0.22499 0.0
C455 C 0.04014 0.51654 0.24177 0.0
C456 C 0.02959 0.495 0.23879 0.0
C457 C 0.02573 0.48563 0.21166 0.0
C458 C 0.01747 0.46574 0.20888 0.0
C459 C 0.01361 0.45529 0.23352 0.0
C460 C 0.01788 0.46437 0.2609 0.0
C461 C 0.02526 0.48422 0.26327 0.0
H462 H 0.5122 0.50529 0.20309 0.0
H463 H 0.51886 0.52044 0.29325 0.0
H464 H 0.54155 0.56397 0.23227 0.0
H465 H 0.51113 0.48299 0.2434 0.0
H466 H 0.50621 0.48782 0.27834 0.0
H467 H 0.48738 0.47654 0.20189 0.0
H468 H 0.43033 0.44269 0.22635 0.0
H469 H 0.47404 0.47518 0.29028 0.0
C470 C 0.5165 0.51589 0.22041 0.0
C471 C 0.52633 0.53524 0.21424 0.0
C472 C 0.51303 0.51029 0.24882 0.0
C473 C 0.52042 0.52447 0.27124 0.0
C474 C 0.53052 0.54388 0.26522 0.0
C475 C 0.53298 0.54902 0.23678 0.0
C476 C 0.50396 0.48938 0.25532 0.0
C477 C 0.48312 0.478 0.24685 0.0
C478 C 0.47711 0.47207 0.21807 0.0
C479 C 0.458 0.45972 0.21019 0.0
C480 C 0.44496 0.45308 0.23166 0.0
C481 C 0.45064 0.45861 0.26034 0.0
C482 C 0.46964 0.47134 0.26795 0.0
H483 H 0.49234 0.98202 0.20981 0.0
H484 H 0.50225 0.97099 0.29598 0.0
H485 H 0.54837 1.00114 0.24165 0.0
H486 H 0.46791 0.95237 0.24069 0.0
H487 H 0.47073 0.95725 0.27824 0.0
H488 H 0.46288 0.97402 0.20807 0.0
H489 H 0.43435 1.0008 0.24484 0.0
H490 H 0.4587 0.97621 0.29922 0.0
C491 C 0.50181 0.98402 0.22761 0.0
C492 C 0.52116 0.99346 0.22328 0.0
C493 C 0.49475 0.97633 0.25406 0.0
C494 C 0.5075 0.9777 0.27603 0.0
C495 C 0.52694 0.98683 0.27176 0.0
C496 C 0.53356 0.99504 0.24561 0.0
C497 C 0.47369 0.96416 0.25739 0.0
C498 C 0.46329 0.9751 0.25418 0.0
C499 C 0.45898 0.97901 0.22686 0.0
C500 C 0.44926 0.98898 0.2235 0.0
C501 C 0.44287 0.99414 0.24761 0.0
C502 C 0.44578 0.98919 0.27489 0.0
C503 C 0.45642 0.98007 0.27819 0.0
H504 H 0.4956 0.98753 0.79902 0.0
H505 H 0.48272 0.98836 0.70952 0.0
H506 H 0.46181 0.01139 0.77263 0.0
H507 H 0.4944 0.96299 0.75627 0.0
H508 H 0.50048 0.97361 0.72264 0.0
H509 H 0.51642 0.97776 0.79939 0.0
H510 H 0.57466 0.01392 0.78332 0.0
H511 H 0.5328 0.99788 0.7151 0.0
C512 C 0.48953 0.99172 0.78204 0.0
C513 C 0.47918 1.00056 0.78922 0.0
C514 C 0.49149 0.98775 0.75331 0.0
C515 C 0.4822 0.99215 0.73167 0.0
C516 C 0.47171 1.00091 0.73875 0.0
C517 C 0.47058 0.00535 0.76736 0.0
C518 C 0.5016 0.97694 0.74601 0.0
C519 C 0.5221 0.98751 0.75643 0.0
C520 C 0.52715 0.9865 0.78498 0.0
C521 C 0.54603 0.99661 0.79505 0.0
C522 C 0.55999 0.00698 0.77599 0.0
C523 C 0.5554 0.00715 0.74708 0.0
C524 C 0.5364 0.99771 0.73744 0.0
H525 H 0.03245 0.50955 0.8036 0.0
H526 H 0.01455 0.4885 0.71611 0.0
H527 H 0.00811 0.45 0.78168 0.0
H528 H 0.04556 0.53083 0.76059 0.0
H529 H 0.03356 0.52236 0.72648 0.0
H530 H 0.02866 0.53567 0.80196 0.0
H531 H 0.98955 0.55354 0.77692 0.0
H532 H 0.00778 0.52729 0.71441 0.0
C533 C 0.02579 0.49789 0.78771 0.0
C534 C 0.01987 0.47932 0.79585 0.0
C535 C 0.02365 0.50138 0.75895 0.0
C536 C 0.01579 0.48598 0.73841 0.0
C537 C 0.01053 0.46748 0.74652 0.0
C538 C 0.01231 0.4643 0.77528 0.0
C539 C 0.03145 0.52162 0.74983 0.0
C540 C 0.01896 0.52966 0.75759 0.0
C541 C 0.01946 0.53641 0.78577 0.0
C542 C 0.00858 0.5447 0.793 0.0
C543 C 0.99723 0.54627 0.77175 0.0
C544 C 0.99698 0.54021 0.7434 0.0
C545 C 0.00773 0.53174 0.73639 0.0
H546 H 0.51383 0.49243 0.81005 0.0
H547 H 0.50384 0.47653 0.72032 0.0
H548 H 0.45756 0.46293 0.77389 0.0
H549 H 0.53686 0.48777 0.77864 0.0
H550 H 0.53485 0.48922 0.741 0.0
H551 H 0.5444 0.51607 0.81173 0.0
H552 H 0.57645 0.57051 0.77529 0.0
H553 H 0.54735 0.51979 0.72048 0.0
C554 C 0.5044 0.48703 0.79129 0.0
C555 C 0.48505 0.47877 0.79462 0.0
C556 C 0.51143 0.487 0.76435 0.0
C557 C 0.49868 0.47788 0.74076 0.0
C558 C 0.47916 0.46923 0.74402 0.0
C559 C 0.47257 0.47049 0.7708 0.0
C560 C 0.53217 0.4941 0.76184 0.0
C561 C 0.54383 0.51557 0.76561 0.0
C562 C 0.54886 0.52457 0.79311 0.0
C563 C 0.56047 0.54443 0.79673 0.0
C564 C 0.56711 0.55523 0.77256 0.0
C565 C 0.56272 0.54649 0.74503 0.0
C566 C 0.55075 0.52667 0.74166 0.0
H567 H 0.69638 0.85378 0.52635 0.0
H568 H 0.71217 0.87257 0.61452 0.0
H569 H 0.67651 0.88782 0.56775 0.0
H570 H 0.72727 0.85939 0.55192 0.0
H571 H 0.72819 0.85943 0.58984 0.0
H572 H 0.70624 0.8302 0.52279 0.0
H573 H 0.68798 0.77754 0.56384 0.0
H574 H 0.71015 0.83002 0.61439 0.0
C575 C 0.69495 0.86059 0.54554 0.0
C576 C 0.68458 0.87004 0.54422 0.0
C577 C 0.70471 0.86115 0.57095 0.0
C578 C 0.70385 0.87115 0.59532 0.0
C579 C 0.69341 0.88053 0.59436 0.0
C580 C 0.68344 0.87945 0.56901 0.0
C581 C 0.71837 0.85385 0.57066 0.0
C582 C 0.70847 0.83235 0.56885 0.0
C583 C 0.70343 0.82238 0.54209 0.0
C584 C 0.69603 0.80255 0.54015 0.0
C585 C 0.69327 0.79277 0.56534 0.0
C586 C 0.69852 0.80249 0.59223 0.0
C587 C 0.70577 0.82229 0.59383 0.0
H588 H 0.1764 0.82945 0.53941 0.0
H589 H 0.18385 0.84141 0.63053 0.0
H590 H 0.206 0.88716 0.57318 0.0
H591 H 0.17548 0.80552 0.57749 0.0
H592 H 0.1702 0.80909 0.6129 0.0
H593 H 0.15246 0.79989 0.53634 0.0
H594 H 0.09452 0.77035 0.55817 0.0
H595 H 0.13795 0.7984 0.62407 0.0
C596 C 0.18097 0.83944 0.55759 0.0
C597 C 0.19071 0.85903 0.55296 0.0
C598 C 0.17776 0.83283 0.58551 0.0
C599 C 0.1853 0.84621 0.60895 0.0
C600 C 0.19527 0.86585 0.60443 0.0
C601 C 0.19754 0.87202 0.57653 0.0
C602 C 0.16835 0.81164 0.59018 0.0
C603 C 0.14762 0.80102 0.58107 0.0
C604 C 0.14193 0.79588 0.55205 0.0
C605 C 0.12276 0.78518 0.54329 0.0
C606 C 0.10931 0.77945 0.56416 0.0
C607 C 0.11467 0.78416 0.59313 0.0
C608 C 0.13381 0.79503 0.60159 0.0
H609 H 0.15684 0.31015 0.53845 0.0
H610 H 0.16925 0.31011 0.62822 0.0
H611 H 0.21389 0.33904 0.57083 0.0
H612 H 0.13376 0.28527 0.57286 0.0
H613 H 0.13752 0.29114 0.61024 0.0
H614 H 0.1291 0.30772 0.53977 0.0
H615 H 0.09686 0.33045 0.57641 0.0
H616 H 0.12231 0.30689 0.63048 0.0
C617 C 0.16669 0.31535 0.55668 0.0
C618 C 0.18592 0.3263 0.55203 0.0
C619 C 0.16038 0.31028 0.58441 0.0
C620 C 0.17382 0.31513 0.60715 0.0
C621 C 0.1932 0.32547 0.60237 0.0
C622 C 0.19902 0.33169 0.57498 0.0
C623 C 0.13959 0.29742 0.58895 0.0
C624 C 0.12839 0.30757 0.58577 0.0
C625 C 0.12438 0.31185 0.5585 0.0
C626 C 0.11317 0.32025 0.55497 0.0
C627 C 0.1058 0.32426 0.57903 0.0
C628 C 0.1087 0.31918 0.60618 0.0
C629 C 0.12024 0.31106 0.60957 0.0
H630 H 0.02969 0.40677 0.06096 0.0
H631 H 0.97427 0.39972 0.04762 0.0
H632 H 0.03407 0.4253 0.10547 0.0
H633 H 0.97873 0.41823 0.09178 0.0
H634 H 0.98603 0.43339 0.18844 0.0
H635 H 0.98171 0.41514 0.14381 0.0
H636 H 0.0376 0.45705 0.12089 0.0
H637 H 0.04199 0.47522 0.16582 0.0
C638 C 0.01842 0.40906 0.06756 0.0
C639 C 1.00163 0.40174 0.05069 0.0
C640 C 0.02099 0.41981 0.0929 0.0
C641 C 0.00676 0.42327 0.10204 0.0
C642 C 0.9899 0.4157 0.08541 0.0
C643 C 0.98739 0.40514 0.06002 0.0
C644 C 0.99734 0.43874 0.17377 0.0
C645 C 0.01432 0.45574 0.18054 0.0
C646 C 0.99485 0.42834 0.1482 0.0
C647 C 0.00935 0.43462 0.12891 0.0
C648 C 0.02626 0.45176 0.13549 0.0
C649 C 0.02868 0.46228 0.161 0.0
H650 H 0.60949 0.58596 0.09545 0.0
H651 H 0.57246 0.60678 0.06986 0.0
H652 H 0.58545 0.56311 0.12503 0.0
H653 H 0.54794 0.58324 0.09818 0.0
H654 H 0.52559 0.56441 0.18793 0.0
H655 H 0.54259 0.58026 0.14656 0.0
H656 H 0.55638 0.53585 0.13181 0.0
H657 H 0.54033 0.52069 0.17461 0.0
C658 C 0.59602 0.58534 0.09559 0.0
C659 C 0.59302 0.59843 0.08071 0.0
C660 C 0.5821 0.57207 0.11239 0.0
C661 C 0.5647 0.57137 0.11434 0.0
C662 C 0.5613 0.58365 0.09783 0.0
C663 C 0.57536 0.59715 0.08145 0.0
C664 C 0.53201 0.55787 0.17558 0.0
C665 C 0.53197 0.54154 0.18491 0.0
C666 C 0.54164 0.56687 0.15157 0.0
C667 C 0.55126 0.55959 0.136 0.0
C668 C 0.54959 0.54216 0.14372 0.0
C669 C 0.54011 0.53327 0.16802 0.0
H670 H 0.4466 0.03976 0.06439 0.0
H671 H 0.39406 0.98614 0.06157 0.0
H672 H 0.45519 0.03254 0.11042 0.0
H673 H 0.4027 0.97906 0.10795 0.0
H674 H 0.43496 0.96488 0.17598 0.0
H675 H 0.42658 0.97175 0.12917 0.0
H676 H 0.44462 0.02935 0.15991 0.0
H677 H 0.45331 0.02258 0.20643 0.0
C678 C 0.43684 0.02645 0.07358 0.0
C679 C 0.41961 0.01353 0.05925 0.0
C680 C 0.44175 0.02237 0.10005 0.0
C681 C 0.42962 0.00525 0.11276 0.0
C682 C 0.41241 0.99229 0.09849 0.0
C683 C 0.40742 0.99642 0.07204 0.0
C684 C 0.43733 0.97906 0.17257 0.0
C685 C 0.44483 0.99322 0.19477 0.0
C686 C 0.43234 0.98292 0.14593 0.0
C687 C 0.43491 1.00107 0.14094 0.0
C688 C 0.44262 0.01528 0.16307 0.0
C689 C 0.44747 0.01138 0.18972 0.0
H690 H 0.40623 0.97271 0.9228 0.0
H691 H 0.44249 0.03311 0.94171 0.0
H692 H 0.42848 0.97315 0.88945 0.0
H693 H 0.46528 0.03342 0.90944 0.0
H694 H 0.47913 0.03121 0.81467 0.0
H695 H 0.46559 0.03215 0.85951 0.0
H696 H 0.45774 0.97667 0.87758 0.0
H697 H 0.47024 0.97527 0.83164 0.0
C698 C 0.41922 0.98599 0.92046 0.0
C699 C 0.42242 0.00294 0.93451 0.0
C700 C 0.43211 0.98623 0.90147 0.0
C701 C 0.44863 0.00339 0.8964 0.0
C702 C 0.4525 0.02004 0.91228 0.0
C703 C 0.43946 0.01985 0.93093 0.0
C704 C 0.47473 0.01932 0.82839 0.0
C705 C 0.47537 0.00301 0.81932 0.0
C706 C 0.46716 0.01994 0.85436 0.0
C707 C 0.46026 0.00433 0.87207 0.0
C708 C 0.46253 0.98875 0.86417 0.0
C709 C 0.46994 0.98806 0.83799 0.0
H710 H 0.98896 0.39753 0.91648 0.0
H711 H 0.04769 0.4333 0.94235 0.0
H712 H 0.99092 0.42204 0.88582 0.0
H713 H 0.04958 0.45812 0.91206 0.0
H714 H 0.99504 0.4696 0.83777 0.0
H715 H 0.99509 0.45336 0.88097 0.0
H716 H 0.04952 0.46115 0.86125 0.0
H717 H 0.04948 0.47774 0.81874 0.0
C718 C 1.0022 0.4108 0.91612 0.0
C719 C 0.0182 0.41338 0.93165 0.0
C720 C 0.00331 0.42497 0.89865 0.0
C721 C 0.02044 0.44208 0.89637 0.0
C722 C 0.03623 0.44502 0.91302 0.0
C723 C 0.03513 0.4308 0.93043 0.0
C724 C 0.0073 0.4685 0.84352 0.0
C725 C 0.02236 0.47503 0.82536 0.0
C726 C 0.00726 0.45899 0.86795 0.0
C727 C 0.02219 0.45569 0.87439 0.0
C728 C 0.03788 0.46358 0.85721 0.0
C729 C 0.03792 0.47312 0.83286 0.0
H730 H 0.56805 0.60619 0.95457 0.0
H731 H 0.62089 0.60665 0.9554 0.0
H732 H 0.55835 0.58725 0.90976 0.0
H733 H 0.61095 0.5873 0.91091 0.0
H734 H 0.59573 0.57211 0.81549 0.0
H735 H 0.60539 0.58987 0.86125 0.0
H736 H 0.54894 0.55568 0.88981 0.0
H737 H 0.53906 0.53839 0.8433 0.0
C738 C 0.5776 0.60223 0.94526 0.0
C739 C 0.5953 0.60803 0.9586 0.0
C740 C 0.57195 0.59121 0.91966 0.0
C741 C 0.58382 0.58566 0.90677 0.0
C742 C 0.60153 0.5915 0.92007 0.0
C743 C 0.60722 0.60258 0.94564 0.0
C744 C 0.58533 0.56845 0.83146 0.0
C745 C 0.56655 0.55403 0.82562 0.0
C746 C 0.59094 0.57848 0.85786 0.0
C747 C 0.57794 0.57428 0.8792 0.0
C748 C 0.55925 0.55947 0.87368 0.0
C749 C 0.55362 0.54942 0.84717 0.0
H750 H 0.04191 0.60051 0.96268 0.0
H751 H 0.99703 0.60982 0.93285 0.0
H752 H 0.03812 0.58187 0.91927 0.0
H753 H 0.99362 0.59143 0.88865 0.0
H754 H 0.98026 0.54173 0.82563 0.0
H755 H 0.98321 0.55916 0.87056 0.0
H756 H 0.04373 0.58575 0.8696 0.0
H757 H 0.04072 0.56813 0.82499 0.0
C758 C 0.03131 0.59875 0.94675 0.0
C759 C 0.0198 0.60677 0.95131 0.0
C760 C 0.02921 0.58808 0.92171 0.0
C761 C 0.01562 0.58518 0.90039 0.0
C762 C 0.00408 0.59319 0.90482 0.0
C763 C 0.00613 0.60386 0.93005 0.0
C764 C 0.99418 0.5512 0.83521 0.0
C765 C 0.01026 0.55352 0.82186 0.0
C766 C 0.99587 0.56129 0.8608 0.0
C767 C 0.0137 0.57397 0.8736 0.0
C768 C 0.02976 0.57593 0.86055 0.0
C769 C 0.02806 0.56578 0.83502 0.0
H770 H 0.39475 0.42253 0.89967 0.0
H771 H 0.43773 0.41719 0.94608 0.0
H772 H 0.41837 0.44648 0.87094 0.0
H773 H 0.46183 0.44235 0.91899 0.0
H774 H 0.49123 0.45869 0.83382 0.0
H775 H 0.47273 0.44425 0.87456 0.0
H776 H 0.44325 0.4754 0.8613 0.0
H777 H 0.46108 0.48867 0.81886 0.0
C778 C 0.40941 0.42696 0.90423 0.0
C779 C 0.41445 0.41777 0.9245 0.0
C780 C 0.42307 0.44089 0.88794 0.0
C781 C 0.44217 0.4463 0.89216 0.0
C782 C 0.44727 0.43815 0.91433 0.0
C783 C 0.4335 0.42378 0.92999 0.0
C784 C 0.48116 0.46284 0.84017 0.0
C785 C 0.47745 0.47466 0.82327 0.0
C786 C 0.47051 0.45461 0.86371 0.0
C787 C 0.45612 0.45831 0.8712 0.0
C788 C 0.45374 0.47169 0.85574 0.0
C789 C 0.46409 0.47952 0.83167 0.0
H790 H 0.55702 0.96806 0.96956 0.0
H791 H 0.61314 0.0111 0.94908 0.0
H792 H 0.54496 0.97079 0.92325 0.0
H793 H 0.60108 0.01343 0.90221 0.0
H794 H 0.57073 0.02602 0.8312 0.0
H795 H 0.58186 0.02425 0.8791 0.0
H796 H 0.54539 0.96302 0.87385 0.0
H797 H 0.53407 0.96491 0.82618 0.0
C798 C 0.56684 0.97804 0.95512 0.0
C799 C 0.58609 0.98934 0.96307 0.0
C800 C 0.5599 0.97953 0.92845 0.0
C801 C 0.57203 0.99227 0.90893 0.0
C802 C 0.59129 0.00365 0.91688 0.0
C803 C 0.59823 0.00224 0.94369 0.0
C804 C 0.56505 0.01221 0.84041 0.0
C805 C 0.55154 0.9956 0.825 0.0
C806 C 0.5715 0.01117 0.86776 0.0
C807 C 0.56464 0.99348 0.88027 0.0
C808 C 0.55081 0.97691 0.86503 0.0
C809 C 0.54429 0.97797 0.83773 0.0
H810 H 0.57429 0.97529 0.09208 0.0
H811 H 0.59752 0.03584 0.08362 0.0
H812 H 0.55082 0.97457 0.12275 0.0
H813 H 0.57368 0.03509 0.11455 0.0
H814 H 0.55244 0.02622 0.20902 0.0
H815 H 0.56942 0.03085 0.16554 0.0
H816 H 0.5235 0.97794 0.12863 0.0
H817 H 0.50691 0.97292 0.17263 0.0
C818 C 0.57411 0.98839 0.09614 0.0
C819 C 0.58785 0.00563 0.08545 0.0
C820 C 0.56051 0.98796 0.11368 0.0
C821 C 0.56031 0.00477 0.12109 0.0
C822 C 0.57353 0.02191 0.10936 0.0
C823 C 0.58716 0.02233 0.09165 0.0
C824 C 0.54579 0.01582 0.19133 0.0
C825 C 0.52855 0.99902 0.19447 0.0
C826 C 0.55544 0.01855 0.16628 0.0
C827 C 0.54798 0.00454 0.14385 0.0
C828 C 0.52979 0.98879 0.1458 0.0
C829 C 0.52017 0.98602 0.17092 0.0
H830 H 0.02669 0.59788 0.05005 0.0
H831 H 0.9769 0.59033 0.08987 0.0
H832 H 0.02676 0.57347 0.07907 0.0
H833 H 0.97756 0.56702 0.12047 0.0
H834 H 0.97874 0.5245 0.17374 0.0
H835 H 0.97452 0.5382 0.13039 0.0
H836 H 0.03506 0.57139 0.12497 0.0
H837 H 0.03885 0.5565 0.16671 0.0
C838 C 0.01582 0.59102 0.06519 0.0
C839 C 1.002 0.59615 0.0682 0.0
C840 C 0.01584 0.57705 0.08192 0.0
C841 C 1.00237 0.56837 0.10267 0.0
C842 C 0.98803 0.57302 0.10457 0.0
C843 C 0.98772 0.58658 0.08723 0.0
C844 C 0.99099 0.53415 0.1624 0.0
C845 C 0.00908 0.53944 0.17324 0.0
C846 C 0.98867 0.54227 0.13785 0.0
C847 C 0.00444 0.55634 0.12434 0.0
C848 C 0.02249 0.56051 0.1343 0.0
C849 C 0.02475 0.55201 0.15835 0.0
H850 H 0.39912 0.41711 0.04182 0.0
H851 H 0.43255 0.39028 0.05446 0.0
H852 H 0.41177 0.43517 0.08728 0.0
H853 H 0.44421 0.4071 0.10065 0.0
H854 H 0.47645 0.45091 0.16968 0.0
H855 H 0.46471 0.43626 0.12238 0.0
H856 H 0.41226 0.43495 0.13624 0.0
H857 H 0.42482 0.45151 0.18225 0.0
C858 C 0.40887 0.41479 0.0547 0.0
C859 C 0.41493 0.4024 0.04469 0.0
C860 C 0.41613 0.4251 0.08081 0.0
C861 C 0.42927 0.42286 0.09774 0.0
C862 C 0.43466 0.40979 0.08798 0.0
C863 C 0.42778 0.39991 0.06163 0.0
C864 C 0.46263 0.44806 0.16239 0.0
C865 C 0.45157 0.4523 0.18011 0.0
C866 C 0.45568 0.4392 0.13535 0.0
C867 C 0.43729 0.43391 0.12549 0.0
C868 C 0.42649 0.43879 0.14282 0.0
C869 C 0.43362 0.44806 0.16956 0.0
H870 H 0.64523 0.73785 0.38055 0.0
H871 H 0.69772 0.73786 0.38901 0.0
H872 H 0.65304 0.75701 0.42487 0.0
H873 H 0.70584 0.75761 0.433 0.0
H874 H 0.70485 0.77516 0.52579 0.0
H875 H 0.69759 0.75646 0.48121 0.0
H876 H 0.67346 0.78839 0.44529 0.0
H877 H 0.67979 0.80645 0.49077 0.0
C878 C 0.65849 0.742 0.39182 0.0
C879 C 0.67084 0.73627 0.38121 0.0
C880 C 0.66305 0.75316 0.41716 0.0
C881 C 0.68013 0.75902 0.43248 0.0
C882 C 0.69245 0.75319 0.42196 0.0
C883 C 0.68782 0.74187 0.39669 0.0
C884 C 0.69776 0.77806 0.50853 0.0
C885 C 0.69258 0.79209 0.51205 0.0
C886 C 0.69387 0.7675 0.48275 0.0
C887 C 0.68487 0.77082 0.4596 0.0
C888 C 0.68012 0.78522 0.46283 0.0
C889 C 0.68393 0.79573 0.48878 0.0
H890 H 0.23571 0.93635 0.41464 0.0
H891 H 0.27234 0.91386 0.43362 0.0
H892 H 0.21131 0.91173 0.44183 0.0
H893 H 0.24849 0.88995 0.46218 0.0
H894 H 0.20397 0.84585 0.51018 0.0
H895 H 0.21947 0.8626 0.46799 0.0
H896 H 0.20627 0.90664 0.4899 0.0
H897 H 0.18974 0.88922 0.53061 0.0
C898 C 0.23854 0.92611 0.4245 0.0
C899 C 0.25605 0.92722 0.42222 0.0
C900 C 0.22456 0.912 0.44025 0.0
C901 C 0.22791 0.89891 0.45464 0.0
C902 C 0.24516 0.89952 0.45116 0.0
C903 C 0.25899 0.9134 0.43496 0.0
C904 C 0.20376 0.85871 0.50529 0.0
C905 C 0.19595 0.86641 0.52402 0.0
C906 C 0.21292 0.86851 0.48134 0.0
C907 C 0.21463 0.88629 0.47583 0.0
C908 C 0.20529 0.89302 0.49321 0.0
C909 C 0.19595 0.88312 0.51684 0.0
H910 H 0.10926 0.36884 0.3941 0.0
H911 H 0.056 0.31612 0.39373 0.0
H912 H 0.11826 0.36185 0.44006 0.0
H913 H 0.06524 0.30891 0.43929 0.0
H914 H 0.07863 0.31297 0.5348 0.0
H915 H 0.0701 0.31964 0.48839 0.0
H916 H 0.12697 0.3407 0.46244 0.0
H917 H 0.13577 0.33488 0.50967 0.0
C918 C 0.09949 0.35571 0.40373 0.0
C919 C 0.08185 0.34309 0.39025 0.0
C920 C 0.10473 0.35164 0.43 0.0
C921 C 0.09249 0.33482 0.44337 0.0
C922 C 0.0749 0.32214 0.4298 0.0
C923 C 0.06962 0.32625 0.4036 0.0
C924 C 0.0894 0.31925 0.51935 0.0
C925 C 0.10796 0.32364 0.52607 0.0
C926 C 0.08443 0.32281 0.49255 0.0
C927 C 0.09784 0.33071 0.47166 0.0
C928 C 0.11636 0.33484 0.47819 0.0
C929 C 0.12136 0.33132 0.50511 0.0
H930 H 0.09514 0.36086 0.2555 0.0
H931 H 0.0744 0.30223 0.27589 0.0
H932 H 0.11769 0.35962 0.22478 0.0
H933 H 0.09774 0.30115 0.246 0.0
H934 H 0.11613 0.29922 0.1532 0.0
H935 H 0.10064 0.29942 0.19659 0.0
H936 H 0.14456 0.35766 0.21697 0.0
H937 H 0.15928 0.35756 0.17243 0.0
C938 C 0.09575 0.34783 0.25401 0.0
C939 C 0.08283 0.33156 0.26776 0.0
C940 C 0.10886 0.34715 0.23653 0.0
C941 C 0.10954 0.33023 0.23269 0.0
C942 C 0.09738 0.3143 0.248 0.0
C943 C 0.08406 0.31492 0.26521 0.0
C944 C 0.12268 0.31181 0.1675 0.0
C945 C 0.13873 0.32839 0.15972 0.0
C946 C 0.11389 0.31196 0.19245 0.0
C947 C 0.12116 0.32869 0.21015 0.0
C948 C 0.1383 0.3447 0.20349 0.0
C949 C 0.14686 0.34464 0.17823 0.0
H950 H 0.65515 0.73318 0.24945 0.0
H951 H 0.71475 0.76297 0.27174 0.0
H952 H 0.65942 0.75941 0.22061 0.0
H953 H 0.71898 0.78942 0.24324 0.0
H954 H 0.6691 0.81079 0.17631 0.0
H955 H 0.66779 0.79276 0.21812 0.0
H956 H 0.71765 0.79233 0.19213 0.0
H957 H 0.71893 0.81048 0.15091 0.0
C958 C 0.66911 0.7455 0.24869 0.0
C959 C 0.68463 0.74589 0.26263 0.0
C960 C 0.67154 0.76064 0.23231 0.0
C961 C 0.68957 0.77651 0.22953 0.0
C962 C 0.70495 0.7773 0.24466 0.0
C963 C 0.70252 0.76215 0.26101 0.0
C964 C 0.68014 0.80745 0.18036 0.0
C965 C 0.6942 0.81208 0.16077 0.0
C966 C 0.67929 0.79695 0.20401 0.0
C967 C 0.6925 0.79091 0.2083 0.0
C968 C 0.70738 0.79689 0.18972 0.0
C969 C 0.70816 0.8073 0.16611 0.0
H970 H 0.2835 0.93595 0.29873 0.0
H971 H 0.23313 0.94022 0.29453 0.0
H972 H 0.27432 0.91846 0.25242 0.0
H973 H 0.22402 0.92272 0.24842 0.0
H974 H 0.22657 0.91099 0.1524 0.0
H975 H 0.2356 0.92811 0.19894 0.0
H976 H 0.24861 0.8865 0.23137 0.0
H977 H 0.23973 0.86945 0.18456 0.0
C978 C 0.27053 0.93323 0.28793 0.0
C979 C 0.25907 0.93951 0.30035 0.0
C980 C 0.26521 0.92309 0.26153 0.0
C981 C 0.24844 0.91921 0.24688 0.0
C982 C 0.23709 0.92564 0.25914 0.0
C983 C 0.2423 0.9356 0.28562 0.0
C984 C 0.23137 0.90552 0.16949 0.0
C985 C 0.23247 0.88892 0.16491 0.0
C986 C 0.23642 0.91524 0.19614 0.0
C987 C 0.24284 0.90865 0.21874 0.0
C988 C 0.24387 0.89198 0.21423 0.0
C989 C 0.23862 0.88213 0.18759 0.0
H990 H 0.6592 0.94135 0.27551 0.0
H991 H 0.70235 0.93062 0.30916 0.0
H992 H 0.65701 0.92347 0.23131 0.0
H993 H 0.69979 0.9125 0.26568 0.0
H994 H 0.70709 0.90275 0.17137 0.0
H995 H 0.70788 0.91821 0.21702 0.0
H996 H 0.64729 0.89178 0.2111 0.0
H997 H 0.64658 0.87646 0.16514 0.0
C998 C 0.6681 0.93509 0.2736 0.0
C999 C 0.68107 0.93761 0.29581 0.0
C1000 C 0.66677 0.92474 0.24835 0.0
C1001 C 0.67831 0.91663 0.24487 0.0
C1002 C 0.69096 0.91885 0.26736 0.0
C1003 C 0.69236 0.92923 0.2924 0.0
C1004 C 0.69391 0.8999 0.18011 0.0
C1005 C 0.67678 0.88836 0.16468 0.0
C1006 C 0.69434 0.90882 0.20626 0.0
C1007 C 0.67764 0.90634 0.21769 0.0
C1008 C 0.66044 0.89429 0.20268 0.0
C1009 C 0.66002 0.8854 0.17647 0.0
H1010 H 0.06909 0.77608 0.26081 0.0
H1011 H 0.09667 0.74342 0.24528 0.0
H1012 H 0.09366 0.80263 0.23591 0.0
H1013 H 0.12088 0.76959 0.22063 0.0
H1014 H 0.16518 0.81523 0.18158 0.0
H1015 H 0.14709 0.80193 0.2232 0.0
H1016 H 0.10144 0.80715 0.18564 0.0
H1017 H 0.12007 0.8217 0.14461 0.0
C1018 C 0.08053 0.77467 0.25252 0.0
C1019 C 0.0809 0.7576 0.25497 0.0
C1020 C 0.09458 0.78987 0.23829 0.0
C1021 C 0.10932 0.78832 0.22645 0.0
C1022 C 0.11002 0.77152 0.23004 0.0
C1023 C 0.09599 0.75637 0.24405 0.0
C1024 C 0.15173 0.81458 0.1827 0.0
C1025 C 0.14383 0.81897 0.15919 0.0
C1026 C 0.14121 0.80664 0.20651 0.0
C1027 C 0.12254 0.80273 0.20716 0.0
C1028 C 0.1157 0.80973 0.18567 0.0
C1029 C 0.12634 0.81794 0.16199 0.0
H1030 H 0.24061 0.29332 0.28435 0.0
H1031 H 0.27168 0.35469 0.29556 0.0
H1032 H 0.22861 0.29561 0.23774 0.0
H1033 H 0.25868 0.35716 0.24952 0.0
H1034 H 0.24602 0.3552 0.15382 0.0
H1035 H 0.25875 0.35414 0.20045 0.0
H1036 H 0.20728 0.30187 0.21515 0.0
H1037 H 0.19541 0.30188 0.1674 0.0
C1038 C 0.24475 0.30734 0.27682 0.0
C1039 C 0.25705 0.32383 0.2935 0.0
C1040 C 0.23769 0.30868 0.2502 0.0
C1041 C 0.24235 0.32657 0.23983 0.0
C1042 C 0.2549 0.34313 0.25651 0.0
C1043 C 0.26234 0.34176 0.28294 0.0
C1044 C 0.23749 0.34332 0.16683 0.0
C1045 C 0.21977 0.32846 0.15645 0.0
C1046 C 0.2447 0.34288 0.19391 0.0
C1047 C 0.23422 0.32778 0.21167 0.0
C1048 C 0.21606 0.31347 0.20188 0.0
C1049 C 0.20903 0.31368 0.17455 0.0
H1050 H 0.23411 0.31439 0.39618 0.0
H1051 H 0.27438 0.36724 0.44058 0.0
H1052 H 0.20945 0.31242 0.42599 0.0
H1053 H 0.25028 0.36482 0.47176 0.0
H1054 H 0.20603 0.35999 0.52636 0.0
H1055 H 0.22351 0.36514 0.48306 0.0
H1056 H 0.20061 0.30416 0.47157 0.0
H1057 H 0.1823 0.29929 0.51342 0.0
C1058 C 0.23765 0.32558 0.41237 0.0
C1059 C 0.25616 0.34079 0.41646 0.0
C1060 C 0.22354 0.32445 0.42959 0.0
C1061 C 0.2278 0.33823 0.45186 0.0
C1062 C 0.24622 0.35401 0.45475 0.0
C1063 C 0.26017 0.35537 0.437 0.0
C1064 C 0.20431 0.34776 0.51377 0.0
C1065 C 0.19285 0.32928 0.52293 0.0
C1066 C 0.2145 0.35066 0.48922 0.0
C1067 C 0.2139 0.33513 0.47393 0.0
C1068 C 0.20138 0.31654 0.48231 0.0
C1069 C 0.19087 0.31366 0.50641 0.0
H1070 H 0.69768 0.94777 0.42454 0.0
H1071 H 0.63806 0.90913 0.40902 0.0
H1072 H 0.69969 0.92474 0.45402 0.0
H1073 H 0.64011 0.88588 0.43878 0.0
H1074 H 0.65171 0.8697 0.53084 0.0
H1075 H 0.64586 0.88456 0.49039 0.0
H1076 H 0.69718 0.89341 0.45399 0.0
H1077 H 0.70343 0.87932 0.49488 0.0
C1078 C 0.68505 0.93421 0.42694 0.0
C1079 C 0.66773 0.9303 0.41435 0.0
C1080 C 0.68622 0.92092 0.44377 0.0
C1081 C 0.67008 0.9034 0.44858 0.0
C1082 C 0.65278 0.89928 0.43552 0.0
C1083 C 0.65162 0.91259 0.41848 0.0
C1084 C 0.66151 0.87442 0.51386 0.0
C1085 C 0.67819 0.87362 0.51635 0.0
C1086 C 0.6581 0.88282 0.49057 0.0
C1087 C 0.67128 0.89051 0.46931 0.0
C1088 C 0.68696 0.88794 0.47037 0.0
C1089 C 0.69041 0.87961 0.49366 0.0
H1090 H 0.06701 0.75398 0.37214 0.0
H1091 H 0.09686 0.72304 0.37938 0.0
H1092 H 0.07974 0.76932 0.41918 0.0
H1093 H 0.10843 0.73701 0.42726 0.0
H1094 H 0.14037 0.7755 0.50232 0.0
H1095 H 0.12934 0.76366 0.45369 0.0
H1096 H 0.07891 0.7665 0.46724 0.0
H1097 H 0.09104 0.78053 0.51461 0.0
C1098 C 0.07601 0.7502 0.38415 0.0
C1099 C 0.081 0.73739 0.37224 0.0
C1100 C 0.08328 0.75891 0.41122 0.0
C1101 C 0.09529 0.75458 0.42731 0.0
C1102 C 0.09976 0.74126 0.41544 0.0
C1103 C 0.09293 0.73301 0.38808 0.0
C1104 C 0.12719 0.77416 0.49475 0.0
C1105 C 0.11659 0.77891 0.51276 0.0
C1106 C 0.1206 0.7669 0.46686 0.0
C1107 C 0.10297 0.76368 0.45636 0.0
C1108 C 0.0926 0.76885 0.47418 0.0
C1109 C 0.09943 0.77661 0.50176 0.0
H1110 H 0.30394 0.06093 0.71735 0.0
H1111 H 0.35648 0.06113 0.72716 0.0
H1112 H 0.31199 0.08128 0.76046 0.0
H1113 H 0.36471 0.08191 0.7701 0.0
H1114 H 0.34174 0.13496 0.81964 0.0
H1115 H 0.33354 0.11387 0.77697 0.0
H1116 H 0.35627 0.08244 0.81871 0.0
H1117 H 0.36521 0.10396 0.86064 0.0
C1118 C 0.31722 0.06529 0.7287 0.0
C1119 C 0.32959 0.05939 0.7187 0.0
C1120 C 0.32189 0.07711 0.75334 0.0
C1121 C 0.33906 0.08339 0.76863 0.0
C1122 C 0.35128 0.07719 0.75899 0.0
C1123 C 0.34658 0.0653 0.73433 0.0
C1124 C 0.34506 0.12361 0.8196 0.0
C1125 C 0.35396 0.12106 0.84365 0.0
C1126 C 0.34021 0.1114 0.79527 0.0
C1127 C 0.34419 0.0964 0.79444 0.0
C1128 C 0.35314 0.09393 0.81849 0.0
C1129 C 0.35801 0.10612 0.84272 0.0
H1130 H 0.89804 0.26841 0.75152 0.0
H1131 H 0.92962 0.23923 0.76033 0.0
H1132 H 0.87461 0.2461 0.78259 0.0
H1133 H 0.90685 0.2176 0.7925 0.0
H1134 H 0.86523 0.17879 0.84932 0.0
H1135 H 0.87692 0.19294 0.80377 0.0
H1136 H 0.87437 0.24285 0.83185 0.0
H1137 H 0.86172 0.2282 0.87632 0.0
C1138 C 0.8999 0.25712 0.75982 0.0
C1139 C 0.91583 0.25576 0.75372 0.0
C1140 C 0.88649 0.24436 0.7778 0.0
C1141 C 0.88889 0.23014 0.79049 0.0
C1142 C 0.90429 0.22814 0.78295 0.0
C1143 C 0.91752 0.24072 0.76466 0.0
C1144 C 0.86645 0.19243 0.84521 0.0
C1145 C 0.86292 0.20257 0.86657 0.0
C1146 C 0.87342 0.20069 0.81926 0.0
C1147 C 0.87711 0.21929 0.81432 0.0
C1148 C 0.87174 0.22852 0.83466 0.0
C1149 C 0.86462 0.2202 0.86038 0.0
H1150 H 0.72368 0.64461 0.71917 0.0
H1151 H 0.77911 0.69457 0.71909 0.0
H1152 H 0.73203 0.63618 0.7645 0.0
H1153 H 0.78722 0.68646 0.76471 0.0
H1154 H 0.80273 0.65861 0.83379 0.0
H1155 H 0.7939 0.66393 0.78636 0.0
H1156 H 0.73801 0.64655 0.81375 0.0
H1157 H 0.74652 0.64026 0.86052 0.0
C1158 C 0.73759 0.65388 0.72891 0.0
C1159 C 0.75071 0.67027 0.71548 0.0
C1160 C 0.74236 0.64907 0.75494 0.0
C1161 C 0.76032 0.66061 0.76823 0.0
C1162 C 0.77339 0.67704 0.75483 0.0
C1163 C 0.76867 0.68178 0.72875 0.0
C1164 C 0.78847 0.6556 0.82949 0.0
C1165 C 0.7754 0.64921 0.85102 0.0
C1166 C 0.78347 0.65888 0.80243 0.0
C1167 C 0.7653 0.65587 0.79632 0.0
C1168 C 0.75208 0.64891 0.81761 0.0
C1169 C 0.75704 0.64554 0.84458 0.0
H1170 H 0.76705 0.68523 0.58585 0.0
H1171 H 0.73245 0.6246 0.59577 0.0
H1172 H 0.78632 0.67938 0.55333 0.0
H1173 H 0.75196 0.61876 0.56342 0.0
H1174 H 0.76633 0.62127 0.46614 0.0
H1175 H 0.75326 0.62222 0.51173 0.0
H1176 H 0.80796 0.6674 0.54343 0.0
H1177 H 0.82092 0.66639 0.49732 0.0
C1178 C 0.76386 0.67069 0.5817 0.0
C1179 C 0.74804 0.65536 0.59299 0.0
C1180 C 0.77501 0.66733 0.5632 0.0
C1181 C 0.77056 0.64858 0.55563 0.0
C1182 C 0.75558 0.63334 0.5686 0.0
C1183 C 0.74441 0.6367 0.58711 0.0
C1184 C 0.77563 0.63088 0.48329 0.0
C1185 C 0.79453 0.64374 0.47854 0.0
C1186 C 0.76822 0.63142 0.50942 0.0
C1187 C 0.77957 0.645 0.53112 0.0
C1188 C 0.79887 0.6569 0.527 0.0
C1189 C 0.80632 0.65625 0.50082 0.0
H1190 H 0.31135 0.05266 0.58327 0.0
H1191 H 0.36863 0.08992 0.61492 0.0
H1192 H 0.31237 0.07835 0.5567 0.0
H1193 H 0.36948 0.1161 0.58933 0.0
H1194 H 0.31321 0.12639 0.51614 0.0
H1195 H 0.31324 0.10752 0.55578 0.0
H1196 H 0.37148 0.12525 0.54209 0.0
H1197 H 0.3715 0.14486 0.50373 0.0
C1198 C 0.32405 0.0665 0.58503 0.0
C1199 C 0.33996 0.06921 0.60094 0.0
C1200 C 0.32461 0.08136 0.56997 0.0
C1201 C 0.34103 0.09943 0.57076 0.0
C1202 C 0.3567 0.10233 0.58778 0.0
C1203 C 0.3562 0.08735 0.60254 0.0
C1204 C 0.32617 0.1268 0.52256 0.0
C1205 C 0.34238 0.13708 0.50718 0.0
C1206 C 0.32616 0.11577 0.54491 0.0
C1207 C 0.34223 0.11442 0.55178 0.0
C1208 C 0.35887 0.12597 0.5377 0.0
C1209 C 0.35895 0.13727 0.51569 0.0
H1210 H 0.88995 0.26533 0.62775 0.0
H1211 H 0.9418 0.26394 0.62534 0.0
H1212 H 0.87991 0.24839 0.58125 0.0
H1213 H 0.93152 0.2466 0.5792 0.0
H1214 H 0.91761 0.23718 0.48346 0.0
H1215 H 0.92682 0.25263 0.53082 0.0
H1216 H 0.86983 0.21764 0.55679 0.0
H1217 H 0.86038 0.20264 0.50861 0.0
C1218 C 0.89919 0.26135 0.6174 0.0
C1219 C 0.91676 0.26613 0.63026 0.0
C1220 C 0.89334 0.25148 0.59082 0.0
C1221 C 0.9049 0.24614 0.57647 0.0
C1222 C 0.92238 0.25075 0.58947 0.0
C1223 C 0.92826 0.26066 0.61599 0.0
C1224 C 0.90696 0.2329 0.49914 0.0
C1225 C 0.88818 0.21888 0.49214 0.0
C1226 C 0.91231 0.24158 0.52646 0.0
C1227 C 0.89908 0.23639 0.54764 0.0
C1228 C 0.88032 0.22213 0.54085 0.0
C1229 C 0.87494 0.21341 0.51337 0.0
H1230 H 0.37515 0.2943 0.62022 0.0
H1231 H 0.31538 0.26049 0.63029 0.0
H1232 H 0.37232 0.27498 0.57786 0.0
H1233 H 0.3125 0.24009 0.58892 0.0
H1234 H 0.31135 0.21837 0.49761 0.0
H1235 H 0.31273 0.23657 0.54028 0.0
H1236 H 0.36827 0.246 0.56241 0.0
H1237 H 0.36763 0.22948 0.51812 0.0
C1238 C 0.36137 0.28265 0.61325 0.0
C1239 C 0.34547 0.27892 0.62834 0.0
C1240 C 0.35974 0.27133 0.58919 0.0
C1241 C 0.34222 0.25561 0.58002 0.0
C1242 C 0.32621 0.25213 0.59497 0.0
C1243 C 0.32781 0.26381 0.6187 0.0
C1244 C 0.32396 0.22447 0.51143 0.0
C1245 C 0.33957 0.22281 0.50389 0.0
C1246 C 0.32464 0.23472 0.53628 0.0
C1247 C 0.34077 0.2432 0.55478 0.0
C1248 C 0.35583 0.24029 0.54831 0.0
C1249 C 0.35532 0.2304 0.52308 0.0
H1250 H 0.76655 0.06735 0.59426 0.0
H1251 H 0.73908 0.10091 0.5983 0.0
H1252 H 0.7871 0.08788 0.55879 0.0
H1253 H 0.75968 0.12139 0.56214 0.0
H1254 H 0.78818 0.10148 0.46399 0.0
H1255 H 0.77401 0.08781 0.50833 0.0
H1256 H 0.79552 0.14428 0.54709 0.0
H1257 H 0.81003 0.1582 0.50195 0.0
C1258 C 0.76517 0.07936 0.58816 0.0
C1259 C 0.75097 0.08231 0.59881 0.0
C1260 C 0.77695 0.09111 0.56778 0.0
C1261 C 0.77475 0.106 0.55753 0.0
C1262 C 0.76166 0.11001 0.56982 0.0
C1263 C 0.74982 0.09822 0.59035 0.0
C1264 C 0.78981 0.11102 0.48188 0.0
C1265 C 0.79994 0.13087 0.47953 0.0
C1266 C 0.7819 0.1032 0.50734 0.0
C1267 C 0.78385 0.11502 0.53114 0.0
C1268 C 0.79389 0.13493 0.52896 0.0
C1269 C 0.80214 0.14284 0.50332 0.0
H1270 H 0.94175 0.67045 0.60287 0.0
H1271 H 0.8857 0.62662 0.62221 0.0
H1272 H 0.92986 0.67296 0.55595 0.0
H1273 H 0.87383 0.62952 0.57586 0.0
H1274 H 0.86333 0.62459 0.47894 0.0
H1275 H 0.87482 0.62236 0.52625 0.0
H1276 H 0.91027 0.6837 0.53325 0.0
H1277 H 0.89891 0.68585 0.4857 0.0
C1278 C 0.92691 0.66141 0.59721 0.0
C1279 C 0.91472 0.64828 0.61632 0.0
C1280 C 0.92006 0.66294 0.57038 0.0
C1281 C 0.90087 0.65143 0.56212 0.0
C1282 C 0.88872 0.63838 0.58131 0.0
C1283 C 0.89555 0.6368 0.60801 0.0
C1284 C 0.87335 0.63761 0.49077 0.0
C1285 C 0.8802 0.65539 0.47864 0.0
C1286 C 0.87998 0.63634 0.51788 0.0
C1287 C 0.89354 0.65285 0.53353 0.0
C1288 C 0.90009 0.67068 0.52158 0.0
C1289 C 0.89352 0.67193 0.49443 0.0
H1290 H 0.90242 0.63701 0.74548 0.0
H1291 H 0.92824 0.69769 0.73545 0.0
H1292 H 0.88001 0.63806 0.77664 0.0
H1293 H 0.90543 0.69875 0.76679 0.0
H1294 H 0.88687 0.69215 0.86276 0.0
H1295 H 0.90206 0.69562 0.8178 0.0
H1296 H 0.85398 0.64311 0.78424 0.0
H1297 H 0.83921 0.63918 0.82974 0.0
C1298 C 0.90302 0.65052 0.74929 0.0
C1299 C 0.91723 0.66728 0.7381 0.0
C1300 C 0.89001 0.65112 0.76709 0.0
C1301 C 0.89088 0.66851 0.77426 0.0
C1302 C 0.90447 0.68515 0.76185 0.0
C1303 C 0.91752 0.68454 0.74389 0.0
C1304 C 0.87933 0.68163 0.84549 0.0
C1305 C 0.86209 0.66515 0.85006 0.0
C1306 C 0.88797 0.68368 0.81958 0.0
C1307 C 0.87944 0.66936 0.79767 0.0
C1308 C 0.86111 0.65415 0.80099 0.0
C1309 C 0.85253 0.65202 0.82699 0.0
H1310 H 0.35353 0.26922 0.71994 0.0
H1311 H 0.30915 0.26267 0.77362 0.0
H1312 H 0.35613 0.24474 0.74514 0.0
H1313 H 0.31263 0.2394 0.80067 0.0
H1314 H 0.31823 0.19595 0.84616 0.0
H1315 H 0.31006 0.21056 0.8077 0.0
H1316 H 0.36867 0.24181 0.78677 0.0
H1317 H 0.37618 0.22598 0.82344 0.0
C1318 C 0.34444 0.26258 0.73737 0.0
C1319 C 0.33135 0.26793 0.74524 0.0
C1320 C 0.34595 0.24859 0.75198 0.0
C1321 C 0.33486 0.24016 0.77548 0.0
C1322 C 0.32127 0.24518 0.78253 0.0
C1323 C 0.31936 0.25871 0.76726 0.0
C1324 C 0.32911 0.20539 0.83243 0.0
C1325 C 0.34777 0.20979 0.83748 0.0
C1326 C 0.32455 0.21405 0.8107 0.0
C1327 C 0.33873 0.22782 0.7943 0.0
C1328 C 0.35721 0.23118 0.7984 0.0
C1329 C 0.36161 0.22211 0.81954 0.0
H1330 H 0.78325 0.08125 0.71572 0.0
H1331 H 0.72626 0.0641 0.73715 0.0
H1332 H 0.79467 0.09673 0.76296 0.0
H1333 H 0.73782 0.07974 0.78449 0.0
H1334 H 0.76375 0.08803 0.87572 0.0
H1335 H 0.75254 0.07404 0.82771 0.0
H1336 H 0.79766 0.12438 0.79285 0.0
H1337 H 0.80877 0.1387 0.84114 0.0
C1338 C 0.77313 0.0808 0.73046 0.0
C1339 C 0.75379 0.07131 0.72267 0.0
C1340 C 0.77974 0.08981 0.75747 0.0
C1341 C 0.76715 0.08942 0.7774 0.0
C1342 C 0.74783 0.08011 0.76961 0.0
C1343 C 0.74122 0.07122 0.74247 0.0
C1344 C 0.77117 0.09628 0.85785 0.0
C1345 C 0.78702 0.11462 0.86226 0.0
C1346 C 0.76473 0.08822 0.83034 0.0
C1347 C 0.77409 0.09819 0.80654 0.0
C1348 C 0.7902 0.11635 0.81085 0.0
C1349 C 0.79659 0.12451 0.83846 0.0
H1350 H 0.09023 0.39424 0.99058 0.0
H1351 H 0.04633 0.3416 0.0222 0.0
H1352 H 0.11386 0.38654 0.00759 0.0
H1353 H 0.07007 0.33386 0.03903 0.0
H1354 H 0.11567 0.31755 0.04086 0.0
H1355 H 0.09411 0.3261 0.01733 0.0
H1356 H 0.12589 0.38292 0.05646 0.0
H1357 H 0.14726 0.37426 0.08016 0.0
C1358 C 0.08562 0.38102 0.00118 0.0
C1359 C 0.0664 0.36854 0.00512 0.0
C1360 C 0.09917 0.37665 0.01091 0.0
C1361 C 0.0938 0.35955 0.0244 0.0
C1362 C 0.07459 0.34703 0.02833 0.0
C1363 C 0.06102 0.35154 0.01897 0.0
C1364 C 0.11838 0.33204 0.0436 0.0
C1365 C 0.13319 0.34533 0.06206 0.0
C1366 C 0.10591 0.33684 0.03052 0.0
C1367 C 0.10821 0.3551 0.03537 0.0
C1368 C 0.12381 0.36877 0.05227 0.0
C1369 C 0.13608 0.36387 0.0657 0.0
H1370 H 0.60906 0.69629 0.03429 0.0
H1371 H 0.66002 0.70088 0.00281 0.0
H1372 H 0.62378 0.73071 0.03728 0.0
H1373 H 0.67456 0.73551 0.00446 0.0
H1374 H 0.70086 0.78864 0.06797 0.0
H1375 H 0.68675 0.75761 0.04323 0.0
H1376 H 0.6376 0.76169 0.02019 0.0
H1377 H 0.65178 0.79276 0.0463 0.0
C1378 C 0.62324 0.70463 0.02713 0.0
C1379 C 0.6335 0.6958 0.01897 0.0
C1380 C 0.63168 0.72449 0.02861 0.0
C1381 C 0.65055 0.73605 0.02161 0.0
C1382 C 0.66018 0.72712 0.01078 0.0
C1383 C 0.65182 0.70723 0.0097 0.0
C1384 C 0.6873 0.78315 0.05677 0.0
C1385 C 0.6773 0.79292 0.05922 0.0
C1386 C 0.67917 0.76534 0.0424 0.0
C1387 C 0.66081 0.75685 0.03002 0.0
C1388 C 0.65159 0.76758 0.03001 0.0
C1389 C 0.65976 0.78548 0.04459 0.0
H1390 H 0.3278 0.97461 0.02946 0.0
H1391 H 0.3149 0.93649 0.95537 0.0
H1392 H 0.29781 0.95226 0.04869 0.0
H1393 H 0.2847 0.91409 0.97468 0.0
H1394 H 0.25001 0.87144 0.04631 0.0
H1395 H 0.27479 0.89309 0.01614 0.0
H1396 H 0.26343 0.93804 0.0401 0.0
H1397 H 0.23862 0.91636 0.07027 0.0
C1398 C 0.3185 0.96152 0.01717 0.0
C1399 C 0.32379 0.95729 0.99097 0.0
C1400 C 0.30122 0.94878 0.02806 0.0
C1401 C 0.28883 0.93146 0.01309 0.0
C1402 C 0.29399 0.9273 0.98671 0.0
C1403 C 0.31126 0.94014 0.97567 0.0
C1404 C 0.25234 0.88573 0.04431 0.0
C1405 C 0.24258 0.8923 0.06094 0.0
C1406 C 0.26659 0.89816 0.02709 0.0
C1407 C 0.2713 0.91737 0.02624 0.0
C1408 C 0.26037 0.92342 0.04085 0.0
C1409 C 0.24613 0.911 0.058 0.0
H1410 H 0.41087 0.08457 0.02074 0.0
H1411 H 0.35708 0.04336 0.98095 0.0
H1412 H 0.40227 0.10922 0.0178 0.0
H1413 H 0.34898 0.06794 0.97587 0.0
H1414 H 0.39814 0.14704 0.9488 0.0
H1415 H 0.40248 0.12627 0.98004 0.0
H1416 H 0.34207 0.09139 0.98532 0.0
H1417 H 0.33797 0.11176 0.952 0.0
C1418 C 0.39707 0.08074 0.0118 0.0
C1419 C 0.38481 0.06218 0.00049 0.0
C1420 C 0.39216 0.09489 0.00986 0.0
C1421 C 0.37518 0.09091 -0.00439 0.0
C1422 C 0.36217 0.0718 0.98706 0.0
C1423 C 0.36687 0.05757 0.98977 0.0
C1424 C 0.38583 0.13535 0.95755 0.0
C1425 C 0.36774 0.13077 0.94772 0.0
C1426 C 0.38826 0.12333 0.97566 0.0
C1427 C 0.3726 0.10662 0.98469 0.0
C1428 C 0.35448 0.10365 0.97795 0.0
C1429 C 0.35207 0.11544 0.95919 0.0
H1430 H 0.9774 0.30676 -0.00075 0.0
H1431 H 0.93298 0.31944 0.98226 0.0
H1432 H 0.95391 0.27297 0.00146 0.0
H1433 H 0.90981 0.28598 0.98347 0.0
H1434 H 0.91009 0.21758 0.94769 0.0
H1435 H 0.93466 0.24873 0.96648 0.0
H1436 H 0.89277 0.25738 0.00723 0.0
H1437 H 0.86812 0.22629 0.98718 0.0
C1438 C 0.96266 0.30242 -0.00365 0.0
C1439 C 0.95716 0.31585 0.99013 0.0
C1440 C 0.94917 0.28301 -0.00249 0.0
C1441 C 0.92989 0.27659 0.99243 0.0
C1442 C 0.92442 0.29025 0.98792 0.0
C1443 C 0.93783 0.30956 0.98687 0.0
C1444 C 0.90629 0.22583 0.96173 0.0
C1445 C 0.88729 0.21959 0.96613 0.0
C1446 C 0.92038 0.24375 0.97252 0.0
C1447 C 0.91574 0.25585 0.98795 0.0
C1448 C 0.89683 0.24865 0.99488 0.0
C1449 C 0.88271 0.23072 0.98385 0.0
H1450 H 0.69941 0.63763 0.06153 0.0
H1451 H 0.68786 0.65928 0.98515 0.0
H1452 H 0.7286 0.64222 0.0421 0.0
H1453 H 0.71686 0.66367 0.96572 0.0
H1454 H 0.77499 0.68172 0.94268 0.0
H1455 H 0.75132 0.68246 0.97217 0.0
H1456 H 0.73698 0.62728 0.00285 0.0
H1457 H 0.76071 0.62661 0.97342 0.0
C1458 C 0.70313 0.64347 0.04067 0.0
C1459 C 0.69125 0.64801 0.02482 0.0
C1460 C 0.71984 0.64605 0.02955 0.0
C1461 C 0.7251 0.65338 0.00244 0.0
C1462 C 0.7134 0.65829 0.98688 0.0
C1463 C 0.69666 0.65561 -0.00209 0.0
C1464 C 0.76712 0.66999 0.95634 0.0
C1465 C 0.76954 0.65401 0.95554 0.0
C1466 C 0.75347 0.67035 0.97304 0.0
C1467 C 0.74199 0.65474 0.98934 0.0
C1468 C 0.74561 0.63955 0.99056 0.0
C1469 C 0.75927 0.63919 0.97381 0.0
H1470 H 0.96873 0.66484 0.00237 0.0
H1471 H 0.93665 0.60829 0.96238 0.0
H1472 H 0.94243 0.6701 0.99316 0.0
H1473 H 0.91067 0.61381 0.95186 0.0
H1474 H 0.86078 0.62107 0.95214 0.0
H1475 H 0.88616 0.61674 0.97129 0.0
H1476 H 0.9261 0.67579 0.95715 0.0
H1477 H 0.90057 0.68034 0.93994 0.0
C1478 C 0.95615 0.65363 0.99119 0.0
C1479 C 0.95481 0.63616 0.98301 0.0
C1480 C 0.94103 0.65664 0.98589 0.0
C1481 C 0.92426 0.64236 0.9719 0.0
C1482 C 0.9231 0.625 0.96334 0.0
C1483 C 0.93812 0.6219 0.96901 0.0
C1484 C 0.87488 0.63329 0.95415 0.0
C1485 C 0.87866 0.651 0.94421 0.0
C1486 C 0.88954 0.63073 0.96458 0.0
C1487 C 0.90834 0.64576 0.96508 0.0
C1488 C 0.91188 0.66383 0.95717 0.0
C1489 C 0.89721 0.66644 0.9471 0.0
H1490 H 0.40873 0.32574 -0.0023 0.0
H1491 H 0.35379 0.30843 0.9598 0.0
H1492 H 0.40136 0.29263 -0.00404 0.0
H1493 H 0.34681 0.27564 0.956 0.0
H1494 H 0.33589 0.21777 0.94419 0.0
H1495 H 0.34068 0.24636 0.97061 0.0
H1496 H 0.40063 0.27254 0.96021 0.0
H1497 H 0.39575 0.2437 0.9357 0.0
C1498 C 0.39498 0.31477 0.98927 0.0
C1499 C 0.38193 0.31965 0.97852 0.0
C1500 C 0.39078 0.29578 0.98804 0.0
C1501 C 0.37365 0.28132 0.97515 0.0
C1502 C 0.36009 0.28616 0.96634 0.0
C1503 C 0.36412 0.30508 0.96831 0.0
C1504 C 0.35011 0.22942 0.94873 0.0
C1505 C 0.36545 0.2286 0.93786 0.0
C1506 C 0.35288 0.24594 0.96349 0.0
C1507 C 0.37101 0.26214 0.96696 0.0
C1508 C 0.38645 0.26049 0.95834 0.0
C1509 C 0.38369 0.24386 0.94417 0.0
H1510 H 0.68853 0.03652 0.00306 0.0
H1511 H 0.67896 0.08263 0.02765 0.0
H1512 H 0.71975 0.05961 0.9879 0.0
H1513 H 0.7102 0.1057 0.01229 0.0
H1514 H 0.7547 0.13259 0.93978 0.0
H1515 H 0.7256 0.11376 0.96442 0.0
H1516 H 0.75121 0.08615 0.0094 0.0
H1517 H 0.78035 0.10512 0.98479 0.0
C1518 C 0.69306 0.05156 0.0052 0.0
C1519 C 0.68122 0.05772 0.01645 0.0
C1520 C 0.71103 0.0648 -0.00319 0.0
C1521 C 0.71746 0.08446 -0.00082 0.0
C1522 C 0.7056 0.09063 0.01026 0.0
C1523 C 0.68772 0.07741 0.01901 0.0
C1524 C 0.75428 0.123 0.95574 0.0
C1525 C 0.76973 0.12033 0.96053 0.0
C1526 C 0.73763 0.11218 0.96975 0.0
C1527 C 0.73607 0.0983 0.9885 0.0
C1528 C 0.75198 0.0966 0.99479 0.0
C1529 C 0.76872 0.10762 0.98104 0.0
H1530 H 0.65764 0.96932 0.0315 0.0
H1531 H 0.60072 0.92376 0.01197 0.0
H1532 H 0.6681 0.94612 0.03394 0.0
H1533 H 0.61126 0.90056 0.0134 0.0
H1534 H 0.63138 0.87145 0.07957 0.0
H1535 H 0.61991 0.88967 0.05451 0.0
H1536 H 0.67344 0.92131 0.01546 0.0
H1537 H 0.68503 0.9032 0.04143 0.0
C1538 C 0.64747 0.95441 0.02675 0.0
C1539 C 0.62829 0.94834 0.02225 0.0
C1540 C 0.65348 0.94106 0.02797 0.0
C1541 C 0.64045 0.92139 0.02441 0.0
C1542 C 0.62159 0.91555 0.01695 0.0
C1543 C 0.61555 0.92886 0.01606 0.0
C1544 C 0.64044 0.88183 0.06483 0.0
C1545 C 0.65912 0.88608 0.06265 0.0
C1546 C 0.63387 0.89228 0.05031 0.0
C1547 C 0.64587 0.90723 0.03327 0.0
C1548 C 0.66396 0.91012 0.02881 0.0
C1549 C 0.67053 0.8996 0.04338 0.0
H1550 H 0.04335 0.70312 0.0156 0.0
H1551 H 0.08779 0.68964 0.00898 0.0
H1552 H 0.06689 0.73683 0.02376 0.0
H1553 H 0.11123 0.72345 0.01671 0.0
H1554 H 0.14525 0.79266 0.02711 0.0
H1555 H 0.12238 0.76311 6e-05 0.0
H1556 H 0.08994 0.74302 0.07487 0.0
H1557 H 0.1129 0.77104 0.10223 0.0
C1558 C 0.05808 0.70739 0.01468 0.0
C1559 C 0.0637 0.69366 0.01224 0.0
C1560 C 0.07154 0.7267 0.01924 0.0
C1561 C 0.09079 0.73262 0.02084 0.0
C1562 C 0.09646 0.71921 0.01524 0.0
C1563 C 0.08302 0.69986 0.01111 0.0
C1564 C 0.13323 0.78194 0.03776 0.0
C1565 C 0.13082 0.78467 0.06682 0.0
C1566 C 0.12012 0.76516 0.0222 0.0
C1567 C 0.10423 0.75115 0.03533 0.0
C1568 C 0.10178 0.75391 0.06407 0.0
C1569 C 0.11498 0.77021 0.07968 0.0
H1570 H 0.33118 0.39528 0.02223 0.0
H1571 H 0.31215 0.34076 0.97813 0.0
H1572 H 0.29925 0.3845 0.03657 0.0
H1573 H 0.28011 0.33023 0.99141 0.0
H1574 H 0.23418 0.31058 0.05808 0.0
H1575 H 0.26313 0.32091 0.03337 0.0
H1576 H 0.26774 0.37585 0.02219 0.0
H1577 H 0.23886 0.36542 0.04799 0.0
C1578 C 0.32013 0.38107 0.01534 0.0
C1579 C 0.32423 0.36879 -0.00062 0.0
C1580 C 0.30177 0.37494 0.02327 0.0
C1581 C 0.28705 0.35647 0.01514 0.0
C1582 C 0.29112 0.34442 -0.00155 0.0
C1583 C 0.3095 0.35046 0.99083 0.0
C1584 C 0.24111 0.32462 0.04944 0.0
C1585 C 0.23435 0.33718 0.05452 0.0
C1586 C 0.25771 0.3306 0.0353 0.0
C1587 C 0.26792 0.34931 0.02598 0.0
C1588 C 0.2604 0.36146 0.0295 0.0
C1589 C 0.24376 0.35545 0.04382 0.0
H1590 H 0.71766 0.69003 0.36783 0.0
H1591 H 0.72799 0.6783 0.28189 0.0
H1592 H 0.74231 0.68425 0.38619 0.0
H1593 H 0.75279 0.67273 0.30027 0.0
H1594 H 0.77834 0.64131 0.3523 0.0
H1595 H 0.7567 0.64961 0.32851 0.0
H1596 H 0.77664 0.69888 0.38657 0.0
H1597 H 0.79806 0.69045 0.41033 0.0
C1598 C 0.72518 0.68623 0.35285 0.0
C1599 C 0.72084 0.68464 0.3234 0.0
C1600 C 0.73944 0.68308 0.36334 0.0
C1601 C 0.74965 0.6782 0.34465 0.0
C1602 C 0.74515 0.67639 0.31523 0.0
C1603 C 0.73096 0.67964 0.30472 0.0
C1604 C 0.7785 0.65424 0.3593 0.0
C1605 C 0.78978 0.66519 0.38321 0.0
C1606 C 0.76603 0.65894 0.34583 0.0
C1607 C 0.76466 0.67468 0.35607 0.0
C1608 C 0.77701 0.6864 0.37863 0.0
C1609 C 0.78942 0.68171 0.39203 0.0
H1610 H 0.32436 0.03494 0.37271 0.0
H1611 H 0.26709 0.02083 0.35267 0.0
H1612 H 0.33391 0.0686 0.37671 0.0
H1613 H 0.27674 0.05456 0.35581 0.0
H1614 H 0.29537 0.10547 0.4231 0.0
H1615 H 0.28478 0.07505 0.39763 0.0
H1616 H 0.33854 0.09824 0.3588 0.0
H1617 H 0.3492 0.12874 0.38505 0.0
C1618 C 0.31391 0.03905 0.36823 0.0
C1619 C 0.29489 0.02516 0.36301 0.0
C1620 C 0.31941 0.05842 0.37036 0.0
C1621 C 0.30602 0.06432 0.36709 0.0
C1622 C 0.28734 0.0505 0.35912 0.0
C1623 C 0.28182 0.03115 0.35725 0.0
C1624 C 0.30463 0.10426 0.40824 0.0
C1625 C 0.3231 0.11936 0.40611 0.0
C1626 C 0.29858 0.08681 0.39355 0.0
C1627 C 0.31091 0.08405 0.37644 0.0
C1628 C 0.3288 0.0998 0.37216 0.0
C1629 C 0.33483 0.11733 0.38685 0.0
H1630 H 0.99395 0.28241 0.35272 0.0
H1631 H 0.96538 0.30721 0.30788 0.0
H1632 H 0.96395 0.25729 0.36822 0.0
H1633 H 0.93519 0.28187 0.32351 0.0
H1634 H 0.89387 0.24914 0.3979 0.0
H1635 H 0.9199 0.27231 0.37087 0.0
H1636 H 0.93414 0.22928 0.34786 0.0
H1637 H 0.90843 0.20628 0.37532 0.0
C1638 C 0.98126 0.28249 0.34611 0.0
C1639 C 0.98205 0.29684 0.32914 0.0
C1640 C 0.96404 0.26796 0.35474 0.0
C1641 C 0.94722 0.26751 0.34678 0.0
C1642 C 0.94796 0.28188 0.32989 0.0
C1643 C 0.96522 0.29635 0.32099 0.0
C1644 C 0.90227 0.24453 0.38642 0.0
C1645 C 0.89927 0.22598 0.38898 0.0
C1646 C 0.91712 0.25776 0.37088 0.0
C1647 C 0.92924 0.25266 0.35776 0.0
C1648 C 0.92518 0.23365 0.3582 0.0
C1649 C 0.91031 0.22042 0.37361 0.0
H1650 H 0.01691 0.37031 0.33977 0.0
H1651 H 0.07322 0.41623 0.32686 0.0
H1652 H 0.00542 0.39279 0.33839 0.0
H1653 H 0.06179 0.43826 0.32394 0.0
H1654 H 0.04326 0.47659 0.30687 0.0
H1655 H 0.04894 0.45646 0.33787 0.0
H1656 H 0.99912 0.40687 0.3008 0.0
H1657 H 0.99239 0.42723 0.27212 0.0
C1658 C 0.0269 0.38523 0.33713 0.0
C1659 C 0.04591 0.39136 0.33265 0.0
C1660 C 0.02029 0.39813 0.33617 0.0
C1661 C 0.03251 0.41736 0.33034 0.0
C1662 C 0.05182 0.4237 0.32867 0.0
C1663 C 0.05843 0.41091 0.32999 0.0
C1664 C 0.03295 0.46152 0.3063 0.0
C1665 C 0.01777 0.45345 0.286 0.0
C1666 C 0.03642 0.44987 0.32384 0.0
C1667 C 0.02511 0.42989 0.32083 0.0
C1668 C 0.00842 0.42213 0.30357 0.0
C1669 C 0.00467 0.43384 0.28666 0.0
H1670 H 0.59797 0.65901 0.33489 0.0
H1671 H 0.63367 0.63661 0.31045 0.0
H1672 H 0.57117 0.62673 0.33498 0.0
H1673 H 0.60676 0.60438 0.30906 0.0
H1674 H 0.55734 0.5471 0.30415 0.0
H1675 H 0.58178 0.57688 0.32801 0.0
H1676 H 0.55276 0.60554 0.29742 0.0
H1677 H 0.52831 0.5758 0.2748 0.0
C1678 C 0.60013 0.64714 0.3299 0.0
C1679 C 0.61786 0.65037 0.32221 0.0
C1680 C 0.58474 0.62861 0.3298 0.0
C1681 C 0.58659 0.61285 0.32139 0.0
C1682 C 0.60469 0.61604 0.31587 0.0
C1683 C 0.62018 0.63459 0.31649 0.0
C1684 C 0.5558 0.55961 0.30382 0.0
C1685 C 0.54101 0.55922 0.28758 0.0
C1686 C 0.56996 0.57676 0.31705 0.0
C1687 C 0.56957 0.59382 0.31417 0.0
C1688 C 0.55364 0.59282 0.3004 0.0
C1689 C 0.53953 0.57572 0.28734 0.0
H1690 H 0.34252 0.96323 0.3375 0.0
H1691 H 0.37712 0.01605 0.38682 0.0
H1692 H 0.37064 0.9643 0.32013 0.0
H1693 H 0.40541 0.01712 0.36915 0.0
H1694 H 0.44402 0.02075 0.29199 0.0
H1695 H 0.41984 0.02118 0.32068 0.0
H1696 H 0.39859 0.96208 0.33856 0.0
H1697 H 0.4227 0.96164 0.30972 0.0
C1698 C 0.35613 0.97508 0.34466 0.0
C1699 C 0.35756 0.98959 0.36347 0.0
C1700 C 0.37226 0.97558 0.33494 0.0
C1701 C 0.39023 0.99068 0.34354 0.0
C1702 C 0.39173 0.00528 0.36224 0.0
C1703 C 0.37554 0.00466 0.3723 0.0
C1704 C 0.43454 0.00805 0.30283 0.0
C1705 C 0.43515 0.99113 0.29853 0.0
C1706 C 0.42071 0.00829 0.31925 0.0
C1707 C 0.40714 0.99157 0.33143 0.0
C1708 C 0.40872 0.9751 0.32906 0.0
C1709 C 0.42266 0.97491 0.31286 0.0
H1710 H 0.62858 0.98804 0.31098 0.0
H1711 H 0.59534 0.95578 0.38022 0.0
H1712 H 0.60308 0.99331 0.29493 0.0
H1713 H 0.56992 0.96108 0.36417 0.0
H1714 H 0.52231 0.95544 0.29887 0.0
H1715 H 0.54698 0.95141 0.32203 0.0
H1716 H 0.58699 0.01094 0.31224 0.0
H1717 H 0.56227 0.01504 0.28948 0.0
C1718 C 0.61584 0.98204 0.32272 0.0
C1719 C 0.614 0.97149 0.34685 0.0
C1720 C 0.6013 0.98521 0.3137 0.0
C1721 C 0.58455 0.97773 0.32845 0.0
C1722 C 0.58263 0.96698 0.35235 0.0
C1723 C 0.59722 0.96398 0.36154 0.0
C1724 C 0.5362 0.96781 0.30258 0.0
C1725 C 0.54037 0.98553 0.29214 0.0
C1726 C 0.55038 0.96547 0.31564 0.0
C1727 C 0.569 0.98077 0.31837 0.0
C1728 C 0.57286 0.99879 0.30982 0.0
C1729 C 0.55868 1.00116 0.297 0.0
H1730 H 0.01506 0.64781 0.31262 0.0
H1731 H 0.07052 0.65982 0.29048 0.0
H1732 H 0.00492 0.61388 0.31372 0.0
H1733 H 0.06035 0.62635 0.29031 0.0
H1734 H 0.04448 0.56803 0.29176 0.0
H1735 H 0.05114 0.59837 0.3134 0.0
H1736 H 0.9972 0.58853 0.28067 0.0
H1737 H 0.98978 0.55733 0.26146 0.0
C1738 C 0.02512 0.64327 0.30821 0.0
C1739 C 0.04355 0.65658 0.30115 0.0
C1740 C 0.0193 0.62379 0.30874 0.0
C1741 C 0.03174 0.61719 0.30205 0.0
C1742 C 0.05037 0.63071 0.29621 0.0
C1743 C 0.05619 0.65006 0.29593 0.0
C1744 C 0.03361 0.57183 0.29031 0.0
C1745 C 0.01682 0.56041 0.27391 0.0
C1746 C 0.03761 0.58951 0.30231 0.0
C1747 C 0.02513 0.59642 0.29763 0.0
C1748 C 0.00734 0.58394 0.28447 0.0
C1749 C 1.00315 0.56604 0.27309 0.0
H1750 H 0.33977 0.40756 0.31811 0.0
H1751 H 0.36035 0.37367 0.3578 0.0
H1752 H 0.3713 0.42941 0.30287 0.0
H1753 H 0.39198 0.39588 0.34364 0.0
H1754 H 0.43709 0.42268 0.27641 0.0
H1755 H 0.4084 0.40354 0.30124 0.0
H1756 H 0.40293 0.4534 0.31618 0.0
H1757 H 0.43156 0.47236 0.29023 0.0
C1758 C 0.35107 0.40489 0.32385 0.0
C1759 C 0.3475 0.38875 0.33884 0.0
C1760 C 0.36922 0.41754 0.31538 0.0
C1761 C 0.38427 0.41445 0.32197 0.0
C1762 C 0.38073 0.39857 0.33773 0.0
C1763 C 0.36256 0.38582 0.34589 0.0
C1764 C 0.43003 0.42961 0.28585 0.0
C1765 C 0.43652 0.44895 0.28181 0.0
C1766 C 0.41356 0.41867 0.30008 0.0
C1767 C 0.40319 0.42685 0.31059 0.0
C1768 C 0.41039 0.44656 0.30797 0.0
C1769 C 0.4269 0.45751 0.29356 0.0
H1770 H 0.26857 0.25715 0.34461 0.0
H1771 H 0.32504 0.30253 0.36745 0.0
H1772 H 0.27913 0.23397 0.34646 0.0
H1773 H 0.33546 0.27937 0.37054 0.0
H1774 H 0.35243 0.23693 0.38142 0.0
H1775 H 0.34162 0.25506 0.35363 0.0
H1776 H 0.28641 0.22226 0.38737 0.0
H1777 H 0.29717 0.2041 0.41412 0.0
C1778 C 0.28331 0.26221 0.34957 0.0
C1779 C 0.29589 0.28162 0.35651 0.0
C1780 C 0.28937 0.24891 0.3507 0.0
C1781 C 0.30806 0.25468 0.35931 0.0
C1782 C 0.32099 0.27433 0.36367 0.0
C1783 C 0.31498 0.28767 0.36211 0.0
C1784 C 0.33777 0.23309 0.38168 0.0
C1785 C 0.32561 0.21925 0.39991 0.0
C1786 C 0.33163 0.24361 0.36611 0.0
C1787 C 0.31324 0.24043 0.36866 0.0
C1788 C 0.30061 0.22512 0.38459 0.0
C1789 C 0.30675 0.21467 0.40005 0.0
H1790 H 0.7405 0.01964 0.32552 0.0
H1791 H 0.70438 0.03629 0.36687 0.0
H1792 H 0.76456 0.05304 0.32268 0.0
H1793 H 0.72878 0.06955 0.36636 0.0
H1794 H 0.77398 0.12797 0.37379 0.0
H1795 H 0.74941 0.09859 0.34951 0.0
H1796 H 0.78629 0.07491 0.3548 0.0
H1797 H 0.81085 0.10455 0.37701 0.0
C1798 C 0.73766 0.03054 0.33365 0.0
C1799 C 0.72071 0.02544 0.34669 0.0
C1800 C 0.75152 0.04972 0.33233 0.0
C1801 C 0.74904 0.06422 0.34504 0.0
C1802 C 0.73138 0.05903 0.35607 0.0
C1803 C 0.7173 0.03986 0.35657 0.0
C1804 C 0.77701 0.11674 0.36834 0.0
C1805 C 0.79426 0.11847 0.3773 0.0
C1806 C 0.76283 0.09973 0.35491 0.0
C1807 C 0.76545 0.08392 0.35094 0.0
C1808 C 0.78351 0.08657 0.35718 0.0
C1809 C 0.79777 0.1037 0.36997 0.0
H1810 H 0.98781 0.7347 0.31283 0.0
H1811 H 0.98062 0.67934 0.32961 0.0
H1812 H 0.95655 0.7246 0.33013 0.0
H1813 H 0.9494 0.6693 0.34676 0.0
H1814 H 0.88837 0.65105 0.35379 0.0
H1815 H 0.91733 0.66292 0.32796 0.0
H1816 H 0.94204 0.71593 0.37848 0.0
H1817 H 0.91308 0.70403 0.40426 0.0
C1818 C 0.97956 0.72037 0.32014 0.0
C1819 C 0.98672 0.70784 0.31997 0.0
C1820 C 0.96168 0.71462 0.33002 0.0
C1821 C 0.95051 0.69614 0.33954 0.0
C1822 C 0.95759 0.68354 0.33911 0.0
C1823 C 0.97554 0.68936 0.32957 0.0
C1824 C 0.89978 0.66547 0.35866 0.0
C1825 C 0.89856 0.67665 0.38097 0.0
C1826 C 0.9164 0.67216 0.34415 0.0
C1827 C 0.93199 0.69023 0.35151 0.0
C1828 C 0.93023 0.70197 0.37232 0.0
C1829 C 0.9137 0.69519 0.38705 0.0
H1830 H 0.40949 0.04005 0.63299 0.0
H1831 H 0.37142 0.99966 0.69114 0.0
H1832 H 0.43412 0.03359 0.64921 0.0
H1833 H 0.39613 0.99313 0.70722 0.0
H1834 H 0.43933 0.9737 0.71175 0.0
H1835 H 0.4154 0.9787 0.6876 0.0
H1836 H 0.45302 0.03961 0.69604 0.0
H1837 H 0.47672 0.03451 0.72045 0.0
C1838 C 0.40635 0.02974 0.64919 0.0
C1839 C 0.3885 0.02041 0.66087 0.0
C1840 C 0.42048 0.02607 0.65846 0.0
C1841 C 0.41702 0.01278 0.67933 0.0
C1842 C 0.39912 0.00327 0.69081 0.0
C1843 C 0.38503 0.00714 0.68181 0.0
C1844 C 0.44265 0.98809 0.70745 0.0
C1845 C 0.4599 0.00373 0.71742 0.0
C1846 C 0.42891 0.99097 0.69407 0.0
C1847 C 0.43229 0.00955 0.69019 0.0
C1848 C 0.45005 0.02514 0.69856 0.0
C1849 C 0.46366 0.02226 0.71233 0.0
H1850 H 0.93452 0.35435 0.70504 0.0
H1851 H 0.98524 0.35724 0.67578 0.0
H1852 H 0.94985 0.38883 0.70661 0.0
H1853 H 1.00042 0.3919 0.67611 0.0
H1854 H 0.02709 0.44653 0.73664 0.0
H1855 H 0.01253 0.41474 0.71424 0.0
H1856 H 0.96428 0.41935 0.68722 0.0
H1857 H 0.97891 0.45124 0.71089 0.0
C1858 C 0.94879 0.36231 0.69812 0.0
C1859 C 0.95877 0.35299 0.69092 0.0
C1860 C 0.95759 0.3822 0.69877 0.0
C1861 C 0.97654 0.39329 0.69192 0.0
C1862 C 0.98596 0.38386 0.68222 0.0
C1863 C 0.97723 0.36396 0.68191 0.0
C1864 C 0.01362 0.44094 0.72511 0.0
C1865 C 0.004 0.45116 0.72567 0.0
C1866 C 0.00526 0.42271 0.71208 0.0
C1867 C 0.98703 0.41423 0.6992 0.0
C1868 C 0.97817 0.42526 0.69743 0.0
C1869 C 0.98659 0.4436 0.71063 0.0
H1870 H 0.64308 0.60321 0.61301 0.0
H1871 H 0.65806 0.63952 0.68973 0.0
H1872 H 0.61268 0.58125 0.63213 0.0
H1873 H 0.62779 0.6176 0.70873 0.0
H1874 H 0.56897 0.58183 0.732 0.0
H1875 H 0.59298 0.60396 0.70113 0.0
H1876 H 0.60395 0.55943 0.67303 0.0
H1877 H 0.58018 0.53741 0.70405 0.0
C1878 C 0.63981 0.60661 0.6338 0.0
C1879 C 0.65302 0.62301 0.65 0.0
C1880 C 0.62243 0.59403 0.6447 0.0
C1881 C 0.61785 0.59775 0.67183 0.0
C1882 C 0.6308 0.6145 0.68756 0.0
C1883 C 0.64823 0.62696 0.67681 0.0
C1884 C 0.57622 0.57667 0.71869 0.0
C1885 C 0.57294 0.558 0.72079 0.0
C1886 C 0.58996 0.58933 0.70111 0.0
C1887 C 0.60055 0.58349 0.68514 0.0
C1888 C 0.59596 0.56431 0.68505 0.0
C1889 C 0.58228 0.55166 0.70276 0.0
H1890 H 0.75142 0.74896 0.64643 0.0
H1891 H 0.69594 0.70809 0.67247 0.0
H1892 H 0.74259 0.77317 0.64541 0.0
H1893 H 0.68724 0.73275 0.67278 0.0
H1894 H 0.67248 0.76672 0.60764 0.0
H1895 H 0.67945 0.74602 0.63513 0.0
H1896 H 0.73342 0.79429 0.66279 0.0
H1897 H 0.72695 0.8147 0.63333 0.0
C1898 C 0.73748 0.74527 0.65284 0.0
C1899 C 0.72423 0.72642 0.65871 0.0
C1900 C 0.73242 0.75931 0.65257 0.0
C1901 C 0.71401 0.75493 0.65852 0.0
C1902 C 0.70137 0.73654 0.66734 0.0
C1903 C 0.70638 0.72239 0.66725 0.0
C1904 C 0.68566 0.773 0.62015 0.0
C1905 C 0.69946 0.79216 0.61733 0.0
C1906 C 0.68963 0.76113 0.63627 0.0
C1907 C 0.70738 0.76831 0.65037 0.0
C1908 C 0.71991 0.78813 0.65128 0.0
C1909 C 0.71607 0.79993 0.63469 0.0
H1910 H 0.29689 0.96015 0.64604 0.0
H1911 H 0.2604 0.97969 0.678 0.0
H1912 H 0.27108 0.92733 0.64548 0.0
H1913 H 0.23478 0.94682 0.67899 0.0
H1914 H 0.19137 0.8962 0.61877 0.0
H1915 H 0.21553 0.92589 0.64187 0.0
H1916 H 0.24772 0.8989 0.6647 0.0
H1917 H 0.2235 0.8692 0.64035 0.0
C1918 C 0.28352 0.95736 0.65394 0.0
C1919 C 0.28055 0.97249 0.6615 0.0
C1920 C 0.26867 0.93848 0.6538 0.0
C1921 C 0.25061 0.93432 0.66167 0.0
C1922 C 0.24829 0.94944 0.67198 0.0
C1923 C 0.263 0.96831 0.67157 0.0
C1924 C 0.20323 0.89642 0.62983 0.0
C1925 C 0.20563 0.88049 0.62768 0.0
C1926 C 0.21719 0.9135 0.64314 0.0
C1927 C 0.2339 0.91503 0.65474 0.0
C1928 C 0.23527 0.89839 0.65542 0.0
C1929 C 0.22125 0.88126 0.64194 0.0
H1930 H 0.03596 0.34073 0.71631 0.0
H1931 H 1.00278 0.28873 0.66453 0.0
H1932 H 0.06477 0.34269 0.69952 0.0
H1933 H 0.03152 0.29073 0.64787 0.0
H1934 H 0.0849 0.29003 0.63812 0.0
H1935 H 0.05954 0.28877 0.66581 0.0
H1936 H 0.08031 0.34841 0.65254 0.0
H1937 H 0.10569 0.34964 0.62503 0.0
C1938 C 0.0348 0.3297 0.70141 0.0
C1939 C 0.01706 0.31461 0.69166 0.0
C1940 C 0.05131 0.33084 0.69183 0.0
C1941 C 0.05041 0.31678 0.6726 0.0
C1942 C 0.03268 0.3016 0.66309 0.0
C1943 C 0.0162 0.30057 0.6724 0.0
C1944 C 0.08445 0.30302 0.64208 0.0
C1945 C 0.09721 0.31992 0.62943 0.0
C1946 C 0.06979 0.30224 0.65757 0.0
C1947 C 0.06776 0.3184 0.66091 0.0
C1948 C 0.08151 0.33573 0.65038 0.0
C1949 C 0.09605 0.33645 0.63466 0.0
H1950 H 0.29477 0.35161 0.70601 0.0
H1951 H 0.2781 0.30155 0.65099 0.0
H1952 H 0.26647 0.35209 0.68996 0.0
H1953 H 0.24985 0.30204 0.63509 0.0
H1954 H 0.19279 0.2967 0.63129 0.0
H1955 H 0.2197 0.29713 0.65557 0.0
H1956 H 0.25343 0.3576 0.64405 0.0
H1957 H 0.22647 0.35715 0.61985 0.0
C1958 C 0.28511 0.34074 0.69045 0.0
C1959 C 0.28872 0.32655 0.67974 0.0
C1960 C 0.2689 0.34103 0.68129 0.0
C1961 C 0.25583 0.32698 0.66153 0.0
C1962 C 0.25949 0.31286 0.65073 0.0
C1963 C 0.27579 0.31271 0.6596 0.0
C1964 C 0.20575 0.3102 0.63488 0.0
C1965 C 0.20754 0.3269 0.62373 0.0
C1966 C 0.22123 0.31039 0.64837 0.0
C1967 C 0.23875 0.32733 0.65125 0.0
C1968 C 0.24012 0.34433 0.64215 0.0
C1969 C 0.22469 0.34409 0.62838 0.0
H1970 H 0.68589 0.97585 0.63962 0.0
H1971 H 0.73935 0.99094 0.68097 0.0
H1972 H 0.6781 0.94279 0.63479 0.0
H1973 H 0.73113 0.95758 0.67815 0.0
H1974 H 0.72641 0.9097 0.61652 0.0
H1975 H 0.7311 0.93838 0.6414 0.0
H1976 H 0.6709 0.91283 0.64819 0.0
H1977 H 0.66635 0.88438 0.62158 0.0
C1978 C 0.69565 0.97192 0.64875 0.0
C1979 C 0.71334 0.98597 0.6602 0.0
C1980 C 0.69116 0.95286 0.64613 0.0
C1981 C 0.70415 0.94738 0.65548 0.0
C1982 C 0.72102 0.96126 0.66976 0.0
C1983 C 0.72569 0.98039 0.67167 0.0
C1984 C 0.71422 0.90996 0.62424 0.0
C1985 C 0.69602 0.8949 0.61697 0.0
C1986 C 0.71687 0.92648 0.63863 0.0
C1987 C 0.70136 0.92825 0.6465 0.0
C1988 C 0.68319 0.9123 0.64178 0.0
C1989 C 0.68054 0.89588 0.62686 0.0
H1990 H 0.01328 0.73979 0.69179 0.0
H1991 H 0.0157 0.69249 0.65164 0.0
H1992 H 0.04442 0.76188 0.67504 0.0
H1993 H 0.04691 0.71462 0.63514 0.0
H1994 H 0.10917 0.75735 0.631 0.0
H1995 H 0.08033 0.73783 0.65618 0.0
H1996 H 0.05742 0.77209 0.62557 0.0
H1997 H 0.08612 0.79135 0.60018 0.0
C1998 C 0.02046 0.7341 0.67945 0.0
C1999 C 0.01198 0.71439 0.67291 0.0
C2000 C 0.03828 0.74675 0.6699 0.0
C2001 C 0.04812 0.73994 0.65401 0.0
C2002 C 0.03974 0.72023 0.64772 0.0
C2003 C 0.02181 0.70759 0.6569 0.0
C2004 C 0.09818 0.76104 0.63052 0.0
C2005 C 0.09982 0.7759 0.61399 0.0
C2006 C 0.08164 0.74976 0.64458 0.0
C2007 C 0.0666 0.75336 0.64259 0.0
C2008 C 0.06881 0.76906 0.6276 0.0
C2009 C 0.08522 0.78012 0.6132 0.0
H2010 H 0.92697 0.58139 0.67264 0.0
H2011 H 0.98457 0.62715 0.68508 0.0
H2012 H 0.93739 0.55812 0.6751 0.0
H2013 H 0.99491 0.60393 0.68849 0.0
H2014 H 0.01204 0.56128 0.69701 0.0
H2015 H 0.99925 0.57828 0.67084 0.0
H2016 H 0.94793 0.54886 0.71613 0.0
H2017 H 0.96057 0.53172 0.74143 0.0
C2018 C 0.9419 0.5865 0.67543 0.0
C2019 C 0.95491 0.60613 0.67929 0.0
C2020 C 0.94786 0.57314 0.67689 0.0
C2021 C 0.96694 0.57909 0.68256 0.0
C2022 C 0.98012 0.59877 0.68391 0.0
C2023 C 0.97417 0.61214 0.68216 0.0
C2024 C 0.99771 0.55787 0.7003 0.0
C2025 C 0.9873 0.54534 0.72135 0.0
C2026 C 0.99047 0.56778 0.68562 0.0
C2027 C 0.97271 0.56525 0.69176 0.0
C2028 C 0.9616 0.55116 0.71064 0.0
C2029 C 0.96884 0.54132 0.72527 0.0
H2030 H 0.40592 0.35898 0.66156 0.0
H2031 H 0.3725 0.37618 0.70966 0.0
H2032 H 0.43144 0.39199 0.66216 0.0
H2033 H 0.39839 0.40895 0.71244 0.0
H2034 H 0.48019 0.43943 0.71859 0.0
H2035 H 0.45387 0.41108 0.69615 0.0
H2036 H 0.42027 0.43853 0.69788 0.0
H2037 H 0.44667 0.46666 0.72209 0.0
C2038 C 0.40397 0.36997 0.67184 0.0
C2039 C 0.38735 0.3651 0.68573 0.0
C2040 C 0.41867 0.38888 0.67254 0.0
C2041 C 0.41738 0.40327 0.68811 0.0
C2042 C 0.40006 0.39849 0.70004 0.0
C2043 C 0.38514 0.37963 0.69858 0.0
C2044 C 0.46741 0.43967 0.71321 0.0
C2045 C 0.46545 0.45519 0.72224 0.0
C2046 C 0.45216 0.42332 0.70024 0.0
C2047 C 0.43459 0.42216 0.69554 0.0
C2048 C 0.43332 0.43856 0.70189 0.0
C2049 C 0.44852 0.45482 0.71539 0.0
H2050 H 0.6622 0.06855 0.66234 0.0
H2051 H 0.65153 0.01229 0.68173 0.0
H2052 H 0.63098 0.06029 0.67783 0.0
H2053 H 0.62034 0.00409 0.69712 0.0
H2054 H 0.56 0.98903 0.70112 0.0
H2055 H 0.58923 0.99913 0.67664 0.0
H2056 H 0.61532 0.05299 0.72511 0.0
H2057 H 0.58612 0.04285 0.74952 0.0
C2058 C 0.6532 0.05442 0.66987 0.0
C2059 C 0.65938 0.04109 0.67093 0.0
C2060 C 0.63533 0.04972 0.67871 0.0
C2061 C 0.62318 0.03151 0.68843 0.0
C2062 C 0.62929 0.01814 0.68928 0.0
C2063 C 0.64723 0.0229 0.68076 0.0
C2064 C 0.57179 0.00327 0.70574 0.0
C2065 C 0.57087 0.01519 0.72713 0.0
C2066 C 0.58857 0.00895 0.69205 0.0
C2067 C 0.60461 0.02672 0.6993 0.0
C2068 C 0.60318 0.03924 0.71904 0.0
C2069 C 0.58649 0.03347 0.73296 0.0
loop_
_geom_bond_atom_site_label_1
_geom_bond_atom_site_label_2
_geom_bond_distance
_geom_bond_site_symmetry_2
_ccdc_geom_bond_type
Mg0 O1 2.028 1_556 S
Mg0 O7 1.986 1_455 S
Mg0 O9 2.114 . S
Mg0 O10 2.251 1_455 S
Mg0 O13 2.010 1_556 S
O1 Mg0 2.028 1_554 S
O1 C4 1.250 1_455 S
O2 Mg3 2.028 1_554 S
O2 C4 1.248 . S
Mg3 O2 2.028 1_556 S
Mg3 O8 2.032 . S
Mg3 O10 2.079 . S
C4 O1 1.250 1_655 S
C4 O2 1.248 . S
C5 O6 1.264 1_554 S
C5 O13 1.249 . S
O6 C5 1.264 1_556 S
O7 Mg0 1.986 1_655 S
O7 C11 1.246 . S
O8 Mg3 2.032 . S
O8 C11 1.259 . S
O9 Mg0 2.114 . S
O9 C12 1.252 . S
O10 Mg0 2.251 1_655 S
O10 Mg3 2.079 . S
O10 C12 1.273 1_655 S
C11 O7 1.246 . S
C11 O8 1.259 . S
C12 O9 1.252 . S
C12 O10 1.273 1_455 S
O13 Mg0 2.010 1_554 S
O13 C5 1.249 . S
Mg14 O15 2.028 1_554 S
Mg14 O21 1.986 . S
Mg14 O23 2.114 . S
Mg14 O24 2.251 . S
Mg14 O27 2.010 . S
O15 Mg14 2.028 1_556 S
O15 C18 1.250 . S
O16 Mg17 2.028 1_556 S
O16 C18 1.248 . S
Mg17 O16 2.028 1_554 S
Mg17 O22 2.032 . S
Mg17 O24 2.079 . S
C18 O15 1.250 . S
C18 O16 1.248 . S
C19 O20 1.264 . S
C19 O27 1.249 . S
O20 C19 1.264 . S
O21 Mg14 1.986 . S
O21 C25 1.246 . S
O22 Mg17 2.032 . S
O22 C25 1.259 . S
O23 Mg14 2.114 . S
O23 C26 1.252 . S
O24 Mg14 2.251 . S
O24 Mg17 2.079 . S
O24 C26 1.273 . S
C25 O21 1.246 . S
C25 O22 1.259 . S
C26 O23 1.252 . S
C26 O24 1.273 . S
O27 Mg14 2.010 . S
O27 C19 1.249 . S
Mg28 O29 2.021 1_556 S
Mg28 O35 1.989 1_565 S
Mg28 O37 2.114 . S
Mg28 O38 2.251 1_565 S
Mg28 O41 2.010 1_556 S
O29 Mg28 2.021 1_554 S
O29 C32 1.243 1_565 S
O30 Mg31 2.028 1_554 S
O30 C32 1.248 . S
Mg31 O30 2.028 1_556 S
Mg31 O36 2.032 . S
Mg31 O38 2.079 . S
C32 O29 1.243 1_545 S
C32 O30 1.248 . S
C33 O34 1.264 1_554 S
C33 O41 1.249 . S
O34 C33 1.264 1_556 S
O35 Mg28 1.989 1_545 S
O35 C39 1.253 . S
O36 Mg31 2.032 . S
O36 C39 1.259 . S
O37 Mg28 2.114 . S
O37 C40 1.252 . S
O38 Mg28 2.251 1_545 S
O38 Mg31 2.079 . S
O38 C40 1.273 1_545 S
C39 O35 1.253 . S
C39 O36 1.259 . S
C40 O37 1.252 . S
C40 O38 1.273 1_565 S
O41 Mg28 2.010 1_554 S
O41 C33 1.249 . S
Mg42 O43 2.028 1_554 S
Mg42 O49 1.986 1_655 S
Mg42 O51 2.114 . S
Mg42 O52 2.251 1_655 S
Mg42 O55 2.010 . S
O43 Mg42 2.028 1_556 S
O43 C46 1.250 1_655 S
O44 Mg45 2.028 1_556 S
O44 C46 1.248 . S
Mg45 O44 2.028 1_554 S
Mg45 O50 2.032 . S
Mg45 O52 2.079 . S
C46 O43 1.250 1_455 S
C46 O44 1.248 . S
C47 O48 1.264 . S
C47 O55 1.249 . S
O48 C47 1.264 . S
O49 Mg42 1.986 1_455 S
O49 C53 1.246 . S
O50 Mg45 2.032 . S
O50 C53 1.259 . S
O51 Mg42 2.114 . S
O51 C54 1.252 . S
O52 Mg42 2.251 1_455 S
O52 Mg45 2.079 . S
O52 C54 1.273 1_455 S
C53 O49 1.246 . S
C53 O50 1.259 . S
C54 O51 1.252 . S
C54 O52 1.273 1_655 S
O55 Mg42 2.010 . S
O55 C47 1.249 . S
Mg56 O57 2.028 1_556 S
Mg56 O63 1.986 . S
Mg56 O65 2.114 . S
Mg56 O66 2.251 . S
Mg56 O69 2.010 1_556 S
O57 Mg56 2.028 1_554 S
O57 C60 1.250 . S
O58 Mg59 2.028 1_554 S
O58 C60 1.248 . S
Mg59 O58 2.028 1_556 S
Mg59 O64 2.032 . S
Mg59 O66 2.079 . S
C60 O57 1.250 . S
C60 O58 1.248 . S
C61 O62 1.262 . S
C61 O69 1.249 . S
O62 C61 1.262 . S
O63 Mg56 1.986 . S
O63 C67 1.246 . S
O64 Mg59 2.032 . S
O64 C67 1.259 . S
O65 Mg56 2.114 . S
O65 C68 1.252 . S
O66 Mg56 2.251 . S
O66 Mg59 2.079 . S
O66 C68 1.273 . S
C67 O63 1.246 . S
C67 O64 1.259 . S
C68 O65 1.252 . S
C68 O66 1.273 . S
O69 Mg56 2.010 1_554 S
O69 C61 1.249 . S
Mg70 O71 2.028 1_554 S
Mg70 O77 1.986 1_545 S
Mg70 O79 2.114 . S
Mg70 O80 2.251 1_545 S
Mg70 O83 2.010 . S
O71 Mg70 2.028 1_556 S
O71 C74 1.250 1_545 S
O72 Mg73 2.028 1_556 S
O72 C74 1.248 . S
Mg73 O72 2.028 1_554 S
Mg73 O78 2.032 . S
Mg73 O80 2.079 . S
C74 O71 1.250 1_565 S
C74 O72 1.248 . S
C75 O76 1.264 . S
C75 O83 1.249 . S
O76 C75 1.264 . S
O77 Mg70 1.986 1_565 S
O77 C81 1.246 . S
O78 Mg73 2.032 . S
O78 C81 1.259 . S
O79 Mg70 2.114 . S
O79 C82 1.252 . S
O80 Mg70 2.251 1_565 S
O80 Mg73 2.079 . S
O80 C82 1.273 1_565 S
C81 O77 1.246 . S
C81 O78 1.259 . S
C82 O79 1.252 . S
C82 O80 1.273 1_545 S
O83 Mg70 2.010 . S
O83 C75 1.249 . S
Mg84 O85 2.028 . S
Mg84 O91 1.986 . S
Mg84 O93 2.114 . S
Mg84 O94 2.251 . S
Mg84 O97 2.010 . S
O85 Mg84 2.028 . S
O85 C88 1.250 . S
O86 Mg87 2.028 . S
O86 C88 1.248 . S
Mg87 O86 2.028 . S
Mg87 O92 2.032 . S
Mg87 O94 2.079 . S
C88 O85 1.250 . S
C88 O86 1.248 . S
C89 O90 1.264 . S
C89 O97 1.249 . S
O90 C89 1.264 . S
O91 Mg84 1.986 . S
O91 C95 1.246 . S
O92 Mg87 2.032 . S
O92 C95 1.259 . S
O93 Mg84 2.114 . S
O93 C96 1.252 . S
O94 Mg84 2.251 . S
O94 Mg87 2.079 . S
O94 C96 1.273 . S
C95 O91 1.246 . S
C95 O92 1.259 . S
C96 O93 1.252 . S
C96 O94 1.273 . S
O97 Mg84 2.010 . S
O97 C89 1.249 . S
Mg98 O99 2.028 . S
Mg98 O105 1.986 1_565 S
Mg98 O107 2.114 . S
Mg98 O108 2.251 . S
Mg98 O111 2.010 . S
O99 Mg98 2.028 . S
O99 C102 1.250 . S
O100 Mg101 2.028 . S
O100 C102 1.248 . S
Mg101 O100 2.028 . S
Mg101 O106 2.032 1_565 S
Mg101 O108 2.079 . S
C102 O99 1.250 . S
C102 O100 1.248 . S
C103 O104 1.264 . S
C103 O111 1.249 . S
O104 C103 1.264 . S
O105 Mg98 1.986 1_545 S
O105 C109 1.246 . S
O106 Mg101 2.032 1_545 S
O106 C109 1.259 . S
O107 Mg98 2.114 . S
O107 C110 1.252 . S
O108 Mg98 2.251 . S
O108 Mg101 2.079 . S
O108 C110 1.273 . S
C109 O105 1.246 . S
C109 O106 1.259 . S
C110 O107 1.252 . S
C110 O108 1.273 . S
O111 Mg98 2.010 . S
O111 C103 1.249 . S
Mg112 O113 2.028 . S
Mg112 O119 1.986 . S
Mg112 O121 2.114 . S
Mg112 O122 2.251 . S
Mg112 O125 2.010 1_455 S
O113 Mg112 2.028 . S
O113 C116 1.250 . S
O114 Mg115 2.028 . S
O114 C116 1.248 . S
Mg115 O114 2.028 . S
Mg115 O120 2.032 . S
Mg115 O122 2.079 . S
C116 O113 1.250 . S
C116 O114 1.248 . S
C117 O118 1.264 . S
C117 O125 1.249 . S
O118 C117 1.264 . S
O119 Mg112 1.986 . S
O119 C123 1.246 . S
O120 Mg115 2.032 . S
O120 C123 1.259 . S
O121 Mg112 2.114 . S
O121 C124 1.252 . S
O122 Mg112 2.251 . S
O122 Mg115 2.079 . S
O122 C124 1.273 . S
C123 O119 1.246 . S
C123 O120 1.259 . S
C124 O121 1.252 . S
C124 O122 1.273 . S
O125 Mg112 2.010 1_655 S
O125 C117 1.249 . S
Mg126 O127 2.028 . S
Mg126 O133 1.986 1_565 S
Mg126 O135 2.114 . S
Mg126 O136 2.251 . S
Mg126 O139 2.010 . S
O127 Mg126 2.028 . S
O127 C130 1.250 . S
O128 Mg129 2.028 . S
O128 C130 1.248 . S
Mg129 O128 2.028 . S
Mg129 O134 2.032 1_565 S
Mg129 O136 2.079 . S
C130 O127 1.250 . S
C130 O128 1.248 . S
C131 O132 1.264 . S
C131 O139 1.249 . S
O132 C131 1.264 . S
O133 Mg126 1.986 1_545 S
O133 C137 1.246 . S
O134 Mg129 2.032 1_545 S
O134 C137 1.259 . S
O135 Mg126 2.114 . S
O135 C138 1.252 . S
O136 Mg126 2.251 . S
O136 Mg129 2.079 . S
O136 C138 1.273 . S
C137 O133 1.246 . S
C137 O134 1.259 . S
C138 O135 1.252 . S
C138 O136 1.273 . S
O139 Mg126 2.010 . S
O139 C131 1.249 . S
Mg140 O141 2.028 . S
Mg140 O147 1.986 . S
Mg140 O149 2.114 . S
Mg140 O150 2.251 . S
Mg140 O153 2.010 1_455 S
O141 Mg140 2.028 . S
O141 C144 1.250 . S
O142 Mg143 2.028 . S
O142 C144 1.248 . S
Mg143 O142 2.028 . S
Mg143 O148 2.032 . S
Mg143 O150 2.079 . S
C144 O141 1.250 . S
C144 O142 1.248 . S
C145 O146 1.264 . S
C145 O153 1.249 . S
O146 C145 1.264 . S
O147 Mg140 1.986 . S
O147 C151 1.246 . S
O148 Mg143 2.032 . S
O148 C151 1.259 . S
O149 Mg140 2.114 . S
O149 C152 1.252 . S
O150 Mg140 2.251 . S
O150 Mg143 2.079 . S
O150 C152 1.273 . S
C151 O147 1.246 . S
C151 O148 1.259 . S
C152 O149 1.252 . S
C152 O150 1.273 . S
O153 Mg140 2.010 1_655 S
O153 C145 1.249 . S
Mg154 O155 2.028 . S
Mg154 O161 1.986 . S
Mg154 O163 2.114 . S
Mg154 O164 2.251 . S
Mg154 O167 2.010 . S
O155 Mg154 2.028 . S
O155 C158 1.250 . S
O156 Mg157 2.028 . S
O156 C158 1.248 . S
Mg157 O156 2.028 . S
Mg157 O162 2.032 . S
Mg157 O164 2.079 . S
C158 O155 1.250 . S
C158 O156 1.248 . S
C159 O160 1.264 . S
C159 O167 1.249 . S
O160 C159 1.264 . S
O161 Mg154 1.986 . S
O161 C165 1.246 . S
O162 Mg157 2.032 . S
O162 C165 1.259 . S
O163 Mg154 2.114 . S
O163 C166 1.252 . S
O164 Mg154 2.251 . S
O164 Mg157 2.079 . S
O164 C166 1.273 . S
C165 O161 1.246 . S
C165 O162 1.259 . S
C166 O163 1.252 . S
C166 O164 1.273 . S
O167 Mg154 2.010 . S
O167 C159 1.249 . S
Mg168 O169 2.028 . S
Mg168 O175 1.986 1_545 S
Mg168 O177 2.114 . S
Mg168 O178 2.251 . S
Mg168 O181 2.010 . S
O169 Mg168 2.028 . S
O169 C172 1.250 . S
O170 Mg171 2.028 . S
O170 C172 1.248 . S
Mg171 O170 2.028 . S
Mg171 O176 2.032 1_545 S
Mg171 O178 2.079 . S
C172 O169 1.250 . S
C172 O170 1.248 . S
C173 O174 1.264 . S
C173 O181 1.249 . S
O174 C173 1.264 . S
O175 Mg168 1.986 1_565 S
O175 C179 1.246 . S
O176 Mg171 2.032 1_565 S
O176 C179 1.259 . S
O177 Mg168 2.114 . S
O177 C180 1.252 . S
O178 Mg168 2.251 . S
O178 Mg171 2.079 . S
O178 C180 1.273 . S
C179 O175 1.246 . S
C179 O176 1.259 . S
C180 O177 1.252 . S
C180 O178 1.273 . S
O181 Mg168 2.010 . S
O181 C173 1.249 . S
Mg182 O183 2.028 . S
Mg182 O189 1.986 . S
Mg182 O191 2.114 . S
Mg182 O192 2.251 . S
Mg182 O195 2.010 1_655 S
O183 Mg182 2.028 . S
O183 C186 1.250 . S
O184 Mg185 2.028 . S
O184 C186 1.248 . S
Mg185 O184 2.028 . S
Mg185 O190 2.032 . S
Mg185 O192 2.079 . S
C186 O183 1.250 . S
C186 O184 1.248 . S
C187 O188 1.264 . S
C187 O195 1.249 . S
O188 C187 1.264 . S
O189 Mg182 1.986 . S
O189 C193 1.246 . S
O190 Mg185 2.032 . S
O190 C193 1.259 . S
O191 Mg182 2.114 . S
O191 C194 1.252 . S
O192 Mg182 2.251 . S
O192 Mg185 2.079 . S
O192 C194 1.273 . S
C193 O189 1.246 . S
C193 O190 1.259 . S
C194 O191 1.252 . S
C194 O192 1.273 . S
O195 Mg182 2.010 1_455 S
O195 C187 1.249 . S
Mg196 O197 2.028 . S
Mg196 O203 1.986 . S
Mg196 O205 2.114 . S
Mg196 O206 2.251 . S
Mg196 O209 2.010 . S
O197 Mg196 2.028 . S
O197 C200 1.250 . S
O198 Mg199 2.028 . S
O198 C200 1.248 . S
Mg199 O198 2.028 . S
Mg199 O204 2.032 . S
Mg199 O206 2.079 . S
C200 O197 1.250 . S
C200 O198 1.248 . S
C201 O202 1.264 . S
C201 O209 1.249 . S
O202 C201 1.264 . S
O203 Mg196 1.986 . S
O203 C207 1.246 . S
O204 Mg199 2.032 . S
O204 C207 1.259 . S
O205 Mg196 2.114 . S
O205 C208 1.252 . S
O206 Mg196 2.251 . S
O206 Mg199 2.079 . S
O206 C208 1.273 . S
C207 O203 1.246 . S
C207 O204 1.259 . S
C208 O205 1.252 . S
C208 O206 1.273 . S
O209 Mg196 2.010 . S
O209 C201 1.249 . S
Mg210 O211 2.028 . S
Mg210 O217 1.986 . S
Mg210 O219 2.114 . S
Mg210 O220 2.251 . S
Mg210 O223 2.010 . S
O211 Mg210 2.028 . S
O211 C214 1.250 . S
O212 Mg213 2.028 . S
O212 C214 1.248 . S
Mg213 O212 2.028 . S
Mg213 O218 2.032 . S
Mg213 O220 2.079 . S
C214 O211 1.250 . S
C214 O212 1.248 . S
C215 O216 1.264 . S
C215 O223 1.249 . S
O216 C215 1.264 . S
O217 Mg210 1.986 . S
O217 C221 1.246 . S
O218 Mg213 2.032 . S
O218 C221 1.259 . S
O219 Mg210 2.114 . S
O219 C222 1.252 . S
O220 Mg210 2.251 . S
O220 Mg213 2.079 . S
O220 C222 1.273 . S
C221 O217 1.246 . S
C221 O218 1.259 . S
C222 O219 1.252 . S
C222 O220 1.273 . S
O223 Mg210 2.010 . S
O223 C215 1.249 . S
Mg224 O225 2.028 . S
Mg224 O231 1.986 1_545 S
Mg224 O233 2.114 . S
Mg224 O234 2.251 . S
Mg224 O237 2.010 . S
O225 Mg224 2.028 . S
O225 C228 1.250 . S
O226 Mg227 2.028 . S
O226 C228 1.248 . S
Mg227 O226 2.028 . S
Mg227 O232 2.032 1_545 S
Mg227 O234 2.079 . S
C228 O225 1.250 . S
C228 O226 1.248 . S
C229 O230 1.264 . S
C229 O237 1.249 . S
O230 C229 1.264 . S
O231 Mg224 1.986 1_565 S
O231 C235 1.246 . S
O232 Mg227 2.032 1_565 S
O232 C235 1.259 . S
O233 Mg224 2.114 . S
O233 C236 1.252 . S
O234 Mg224 2.251 . S
O234 Mg227 2.079 . S
O234 C236 1.273 . S
C235 O231 1.246 . S
C235 O232 1.259 . S
C236 O233 1.252 . S
C236 O234 1.273 . S
O237 Mg224 2.010 . S
O237 C229 1.249 . S
Mg238 O239 2.028 . S
Mg238 O245 1.986 . S
Mg238 O247 2.114 . S
Mg238 O248 2.251 . S
Mg238 O251 2.010 1_655 S
O239 Mg238 2.028 . S
O239 C242 1.250 . S
O240 Mg241 2.028 . S
O240 C242 1.248 . S
Mg241 O240 2.028 . S
Mg241 O246 2.032 . S
Mg241 O248 2.079 . S
C242 O239 1.250 . S
C242 O240 1.248 . S
C243 O244 1.264 . S
C243 O251 1.249 . S
O244 C243 1.264 . S
O245 Mg238 1.986 . S
O245 C249 1.246 . S
O246 Mg241 2.032 . S
O246 C249 1.259 . S
O247 Mg238 2.114 . S
O247 C250 1.252 . S
O248 Mg238 2.251 . S
O248 Mg241 2.079 . S
O248 C250 1.273 . S
C249 O245 1.246 . S
C249 O246 1.259 . S
C250 O247 1.252 . S
C250 O248 1.273 . S
O251 Mg238 2.010 1_455 S
O251 C243 1.249 . S
H252 C260 0.930 . S
H253 C263 0.930 . S
H254 C265 0.930 . S
H255 C266 0.970 . S
H256 C266 0.970 . S
H257 C268 0.930 . S
H258 C270 0.930 . S
H259 C272 0.930 . S
C260 H252 0.930 . S
C260 C261 1.382 . S
C260 C262 1.426 . S
C261 C260 1.382 . S
C261 C265 1.389 . S
C262 C260 1.426 . S
C262 C263 1.375 . S
C262 C266 1.532 . S
C263 H253 0.930 . S
C263 C262 1.375 . S
C263 C264 1.416 . S
C264 C263 1.416 . S
C264 C265 1.371 . S
C265 H254 0.930 . S
C265 C261 1.389 . S
C265 C264 1.371 . S
C266 H255 0.970 . S
C266 H256 0.970 . S
C266 C262 1.532 . S
C266 C267 1.499 . S
C267 C266 1.499 . S
C267 C268 1.370 . S
C267 C272 1.415 . S
C268 H257 0.930 . S
C268 C267 1.370 . S
C268 C269 1.407 . S
C269 C268 1.407 . S
C269 C270 1.365 . S
C270 H258 0.930 . S
C270 C269 1.365 . S
C270 C271 1.393 . S
C271 C270 1.393 . S
C271 C272 1.387 . S
C272 H259 0.930 . S
C272 C267 1.415 . S
C272 C271 1.387 . S
H273 C281 0.930 . S
H274 C284 0.930 . S
H275 C286 0.930 . S
H276 C287 0.970 . S
H277 C287 0.970 . S
H278 C289 0.930 . S
H279 C291 0.930 . S
H280 C293 0.930 . S
C281 H273 0.930 . S
C281 C282 1.382 . S
C281 C283 1.426 . S
C282 C281 1.382 . S
C282 C286 1.389 . S
C283 C281 1.426 . S
C283 C284 1.375 . S
C283 C287 1.532 . S
C284 H274 0.930 . S
C284 C283 1.375 . S
C284 C285 1.416 . S
C285 C284 1.416 . S
C285 C286 1.371 . S
C286 H275 0.930 . S
C286 C282 1.389 . S
C286 C285 1.371 . S
C287 H276 0.970 . S
C287 H277 0.970 . S
C287 C283 1.532 . S
C287 C288 1.499 . S
C288 C287 1.499 . S
C288 C289 1.370 . S
C288 C293 1.415 . S
C289 H278 0.930 . S
C289 C288 1.370 . S
C289 C290 1.407 . S
C290 C289 1.407 . S
C290 C291 1.365 . S
C291 H279 0.930 . S
C291 C290 1.365 . S
C291 C292 1.393 . S
C292 C291 1.393 . S
C292 C293 1.387 . S
C293 H280 0.930 . S
C293 C288 1.415 . S
C293 C292 1.387 . S
H294 C302 0.930 . S
H295 C305 0.930 . S
H296 C307 0.930 . S
H297 C308 0.970 . S
H298 C308 0.970 . S
H299 C310 0.930 . S
H300 C312 0.930 . S
H301 C314 0.930 . S
C302 H294 0.930 . S
C302 C303 1.382 . S
C302 C304 1.426 . S
C303 C302 1.382 . S
C303 C307 1.389 . S
C304 C302 1.426 . S
C304 C305 1.375 . S
C304 C308 1.532 . S
C305 H295 0.930 . S
C305 C304 1.375 . S
C305 C306 1.416 . S
C306 C305 1.416 . S
C306 C307 1.371 . S
C307 H296 0.930 . S
C307 C303 1.389 . S
C307 C306 1.371 . S
C308 H297 0.970 . S
C308 H298 0.970 . S
C308 C304 1.532 . S
C308 C309 1.499 . S
C309 C308 1.499 . S
C309 C310 1.370 . S
C309 C314 1.415 . S
C310 H299 0.930 . S
C310 C309 1.370 . S
C310 C311 1.407 . S
C311 C310 1.407 . S
C311 C312 1.365 . S
C312 H300 0.930 . S
C312 C311 1.365 . S
C312 C313 1.393 . S
C313 C312 1.393 . S
C313 C314 1.387 . S
C314 H301 0.930 . S
C314 C309 1.415 . S
C314 C313 1.387 . S
H315 C323 0.930 . S
H316 C326 0.930 . S
H317 C328 0.930 . S
H318 C329 0.970 . S
H319 C329 0.970 . S
H320 C331 0.930 . S
H321 C333 0.930 . S
H322 C335 0.930 . S
C323 H315 0.930 . S
C323 C324 1.382 . S
C323 C325 1.426 . S
C324 C323 1.382 . S
C324 C328 1.389 . S
C325 C323 1.426 . S
C325 C326 1.375 . S
C325 C329 1.532 . S
C326 H316 0.930 . S
C326 C325 1.375 . S
C326 C327 1.416 . S
C327 C326 1.416 . S
C327 C328 1.371 . S
C328 H317 0.930 . S
C328 C324 1.389 . S
C328 C327 1.371 . S
C329 H318 0.970 . S
C329 H319 0.970 . S
C329 C325 1.532 . S
C329 C330 1.499 . S
C330 C329 1.499 . S
C330 C331 1.370 . S
C330 C335 1.415 . S
C331 H320 0.930 . S
C331 C330 1.370 . S
C331 C332 1.407 . S
C332 C331 1.407 . S
C332 C333 1.365 . S
C333 H321 0.930 . S
C333 C332 1.365 . S
C333 C334 1.393 . S
C334 C333 1.393 . S
C334 C335 1.387 . S
C335 H322 0.930 . S
C335 C330 1.415 . S
C335 C334 1.387 . S
H336 C344 0.930 . S
H337 C347 0.930 . S
H338 C349 0.930 . S
H339 C350 0.970 . S
H340 C350 0.970 . S
H341 C352 0.930 . S
H342 C354 0.930 . S
H343 C356 0.930 . S
C344 H336 0.930 . S
C344 C345 1.382 . S
C344 C346 1.426 . S
C345 C344 1.382 . S
C345 C349 1.389 . S
C346 C344 1.426 . S
C346 C347 1.375 . S
C346 C350 1.532 . S
C347 H337 0.930 . S
C347 C346 1.375 . S
C347 C348 1.416 . S
C348 C347 1.416 . S
C348 C349 1.371 . S
C349 H338 0.930 . S
C349 C345 1.389 . S
C349 C348 1.371 . S
C350 H339 0.970 . S
C350 H340 0.970 . S
C350 C346 1.532 . S
C350 C351 1.499 . S
C351 C350 1.499 . S
C351 C352 1.370 . S
C351 C356 1.415 . S
C352 H341 0.930 . S
C352 C351 1.370 . S
C352 C353 1.407 . S
C353 C352 1.407 . S
C353 C354 1.365 . S
C354 H342 0.930 . S
C354 C353 1.365 . S
C354 C355 1.393 . S
C355 C354 1.393 . S
C355 C356 1.387 . S
C356 H343 0.930 . S
C356 C351 1.415 . S
C356 C355 1.387 . S
H357 C365 0.930 . S
H358 C368 0.930 . S
H359 C370 0.930 . S
H360 C371 0.970 . S
H361 C371 0.970 . S
H362 C373 0.930 . S
H363 C375 0.930 . S
H364 C377 0.930 . S
C365 H357 0.930 . S
C365 C366 1.382 . S
C365 C367 1.426 . S
C366 C365 1.382 . S
C366 C370 1.389 . S
C367 C365 1.426 . S
C367 C368 1.375 . S
C367 C371 1.532 . S
C368 H358 0.930 . S
C368 C367 1.375 . S
C368 C369 1.416 . S
C369 C368 1.416 . S
C369 C370 1.371 . S
C370 H359 0.930 . S
C370 C366 1.389 . S
C370 C369 1.371 . S
C371 H360 0.970 . S
C371 H361 0.970 . S
C371 C367 1.532 . S
C371 C372 1.499 . S
C372 C371 1.499 . S
C372 C373 1.370 . S
C372 C377 1.415 . S
C373 H362 0.930 . S
C373 C372 1.370 . S
C373 C374 1.407 . S
C374 C373 1.407 . S
C374 C375 1.365 . S
C375 H363 0.930 . S
C375 C374 1.365 . S
C375 C376 1.393 . S
C376 C375 1.393 . S
C376 C377 1.387 . S
C377 H364 0.930 . S
C377 C372 1.415 . S
C377 C376 1.387 . S
H378 C386 0.930 . S
H379 C389 0.930 . S
H380 C391 0.930 . S
H381 C392 0.970 . S
H382 C392 0.970 . S
H383 C394 0.930 . S
H384 C396 0.930 . S
H385 C398 0.930 . S
C386 H378 0.930 . S
C386 C387 1.382 . S
C386 C388 1.426 . S
C387 C386 1.382 . S
C387 C391 1.389 . S
C388 C386 1.426 . S
C388 C389 1.375 . S
C388 C392 1.532 . S
C389 H379 0.930 . S
C389 C388 1.375 . S
C389 C390 1.416 . S
C390 C389 1.416 . S
C390 C391 1.371 . S
C391 H380 0.930 . S
C391 C387 1.389 . S
C391 C390 1.371 . S
C392 H381 0.970 . S
C392 H382 0.970 . S
C392 C388 1.532 . S
C392 C393 1.499 . S
C393 C392 1.499 . S
C393 C394 1.370 . S
C393 C398 1.415 . S
C394 H383 0.930 . S
C394 C393 1.370 . S
C394 C395 1.407 . S
C395 C394 1.407 . S
C395 C396 1.365 . S
C396 H384 0.930 . S
C396 C395 1.365 . S
C396 C397 1.393 . S
C397 C396 1.393 . S
C397 C398 1.387 . S
C398 H385 0.930 . S
C398 C393 1.415 . S
C398 C397 1.387 . S
H399 C407 0.930 . S
H400 C410 0.930 . S
H401 C412 0.930 . S
H402 C413 0.970 . S
H403 C413 0.970 . S
H404 C415 0.930 . S
H405 C417 0.930 . S
H406 C419 0.930 . S
C407 H399 0.930 . S
C407 C408 1.382 . S
C407 C409 1.426 . S
C408 C407 1.382 . S
C408 C412 1.389 . S
C409 C407 1.426 . S
C409 C410 1.375 . S
C409 C413 1.532 . S
C410 H400 0.930 . S
C410 C409 1.375 . S
C410 C411 1.416 . S
C411 C410 1.416 . S
C411 C412 1.371 . S
C412 H401 0.930 . S
C412 C408 1.389 . S
C412 C411 1.371 . S
C413 H402 0.970 . S
C413 H403 0.970 . S
C413 C409 1.532 . S
C413 C414 1.499 . S
C414 C413 1.499 . S
C414 C415 1.370 . S
C414 C419 1.415 . S
C415 H404 0.930 . S
C415 C414 1.370 . S
C415 C416 1.407 . S
C416 C415 1.407 . S
C416 C417 1.365 . S
C417 H405 0.930 . S
C417 C416 1.365 . S
C417 C418 1.393 . S
C418 C417 1.393 . S
C418 C419 1.387 . S
C419 H406 0.930 . S
C419 C414 1.415 . S
C419 C418 1.387 . S
H420 C428 0.930 . S
H421 C431 0.930 . S
H422 C433 0.930 . S
H423 C434 0.970 . S
H424 C434 0.970 . S
H425 C436 0.930 . S
H426 C438 0.930 . S
H427 C440 0.930 . S
C428 H420 0.930 . S
C428 C429 1.382 . S
C428 C430 1.426 . S
C429 C428 1.382 . S
C429 C433 1.389 . S
C430 C428 1.426 . S
C430 C431 1.375 . S
C430 C434 1.532 . S
C431 H421 0.930 . S
C431 C430 1.375 . S
C431 C432 1.416 . S
C432 C431 1.416 . S
C432 C433 1.371 . S
C433 H422 0.930 . S
C433 C429 1.389 . S
C433 C432 1.371 . S
C434 H423 0.970 . S
C434 H424 0.970 . S
C434 C430 1.532 . S
C434 C435 1.499 . S
C435 C434 1.499 . S
C435 C436 1.370 . S
C435 C440 1.415 . S
C436 H425 0.930 . S
C436 C435 1.370 . S
C436 C437 1.407 . S
C437 C436 1.407 . S
C437 C438 1.365 . S
C438 H426 0.930 . S
C438 C437 1.365 . S
C438 C439 1.393 . S
C439 C438 1.393 . S
C439 C440 1.387 . S
C440 H427 0.930 . S
C440 C435 1.415 . S
C440 C439 1.387 . S
H441 C449 0.930 . S
H442 C452 0.930 . S
H443 C454 0.930 . S
H444 C455 0.970 . S
H445 C455 0.970 . S
H446 C457 0.930 . S
H447 C459 0.930 . S
H448 C461 0.930 . S
C449 H441 0.930 . S
C449 C450 1.382 . S
C449 C451 1.426 . S
C450 C449 1.382 . S
C450 C454 1.389 1_455 S
C451 C449 1.426 . S
C451 C452 1.375 . S
C451 C455 1.532 . S
C452 H442 0.930 . S
C452 C451 1.375 . S
C452 C453 1.416 . S
C453 C452 1.416 . S
C453 C454 1.371 1_455 S
C454 H443 0.930 . S
C454 C450 1.389 1_655 S
C454 C453 1.371 1_655 S
C455 H444 0.970 . S
C455 H445 0.970 . S
C455 C451 1.532 . S
C455 C456 1.499 . S
C456 C455 1.499 . S
C456 C457 1.370 . S
C456 C461 1.415 . S
C457 H446 0.930 . S
C457 C456 1.370 . S
C457 C458 1.410 . S
C458 C457 1.410 . S
C458 C459 1.368 1_455 S
C459 H447 0.930 . S
C459 C458 1.368 1_655 S
C459 C460 1.393 1_655 S
C460 C459 1.393 1_455 S
C460 C461 1.387 . S
C461 H448 0.930 . S
C461 C456 1.415 . S
C461 C460 1.387 . S
H462 C470 0.930 . S
H463 C473 0.930 . S
H464 C475 0.930 . S
H465 C476 0.970 . S
H466 C476 0.970 . S
H467 C478 0.930 . S
H468 C480 0.930 . S
H469 C482 0.930 . S
C470 H462 0.930 . S
C470 C471 1.382 . S
C470 C472 1.426 . S
C471 C470 1.382 . S
C471 C475 1.389 . S
C472 C470 1.426 . S
C472 C473 1.375 . S
C472 C476 1.532 . S
C473 H463 0.930 . S
C473 C472 1.375 . S
C473 C474 1.416 . S
C474 C473 1.416 . S
C474 C475 1.371 . S
C475 H464 0.930 . S
C475 C471 1.389 . S
C475 C474 1.371 . S
C476 H465 0.970 . S
C476 H466 0.970 . S
C476 C472 1.532 . S
C476 C477 1.499 . S
C477 C476 1.499 . S
C477 C478 1.370 . S
C477 C482 1.415 . S
C478 H467 0.930 . S
C478 C477 1.370 . S
C478 C479 1.407 . S
C479 C478 1.407 . S
C479 C480 1.365 . S
C480 H468 0.930 . S
C480 C479 1.365 . S
C480 C481 1.393 . S
C481 C480 1.393 . S
C481 C482 1.387 . S
C482 H469 0.930 . S
C482 C477 1.415 . S
C482 C481 1.387 . S
H483 C491 0.930 . S
H484 C494 0.930 . S
H485 C496 0.930 . S
H486 C497 0.970 . S
H487 C497 0.970 . S
H488 C499 0.930 . S
H489 C501 0.930 . S
H490 C503 0.930 . S
C491 H483 0.930 . S
C491 C492 1.382 . S
C491 C493 1.426 . S
C492 C491 1.382 . S
C492 C496 1.389 1_565 S
C493 C491 1.426 . S
C493 C494 1.375 . S
C493 C497 1.532 . S
C494 H484 0.930 . S
C494 C493 1.375 . S
C494 C495 1.416 . S
C495 C494 1.416 . S
C495 C496 1.371 1_565 S
C496 H485 0.930 . S
C496 C492 1.389 1_545 S
C496 C495 1.371 1_545 S
C497 H486 0.970 . S
C497 H487 0.970 . S
C497 C493 1.532 . S
C497 C498 1.499 . S
C498 C497 1.499 . S
C498 C499 1.370 . S
C498 C503 1.415 . S
C499 H488 0.930 . S
C499 C498 1.370 . S
C499 C500 1.437 . S
C500 C499 1.437 . S
C500 C501 1.354 1_565 S
C501 H489 0.930 . S
C501 C500 1.354 1_545 S
C501 C502 1.393 1_545 S
C502 C501 1.393 1_565 S
C502 C503 1.387 . S
C503 H490 0.930 . S
C503 C498 1.415 . S
C503 C502 1.387 . S
H504 C512 0.930 . S
H505 C515 0.930 . S
H506 C517 0.930 . S
H507 C518 0.970 . S
H508 C518 0.970 . S
H509 C520 0.930 . S
H510 C522 0.930 . S
H511 C524 0.930 . S
C512 H504 0.930 . S
C512 C513 1.382 . S
C512 C514 1.426 . S
C513 C512 1.382 . S
C513 C517 1.389 1_565 S
C514 C512 1.426 . S
C514 C515 1.375 . S
C514 C518 1.532 . S
C515 H505 0.930 . S
C515 C514 1.375 . S
C515 C516 1.416 . S
C516 C515 1.416 . S
C516 C517 1.371 1_565 S
C517 H506 0.930 . S
C517 C513 1.389 1_545 S
C517 C516 1.371 1_545 S
C518 H507 0.970 . S
C518 H508 0.970 . S
C518 C514 1.532 . S
C518 C519 1.499 . S
C519 C518 1.499 . S
C519 C520 1.370 . S
C519 C524 1.415 . S
C520 H509 0.930 . S
C520 C519 1.370 . S
C520 C521 1.407 . S
C521 C520 1.407 . S
C521 C522 1.365 1_565 S
C522 H510 0.930 . S
C522 C521 1.365 1_545 S
C522 C523 1.393 1_545 S
C523 C522 1.393 1_565 S
C523 C524 1.387 . S
C524 H511 0.930 . S
C524 C519 1.415 . S
C524 C523 1.387 . S
H525 C533 0.930 . S
H526 C536 0.930 . S
H527 C538 0.930 . S
H528 C539 0.970 . S
H529 C539 0.970 . S
H530 C541 0.930 . S
H531 C543 0.930 . S
H532 C545 0.930 . S
C533 H525 0.930 . S
C533 C534 1.382 . S
C533 C535 1.426 . S
C534 C533 1.382 . S
C534 C538 1.389 1_455 S
C535 C533 1.426 . S
C535 C536 1.375 . S
C535 C539 1.532 . S
C536 H526 0.930 . S
C536 C535 1.375 . S
C536 C537 1.416 . S
C537 C536 1.416 . S
C537 C538 1.371 1_455 S
C538 H527 0.930 . S
C538 C534 1.389 1_655 S
C538 C537 1.371 1_655 S
C539 H528 0.970 . S
C539 H529 0.970 . S
C539 C535 1.532 . S
C539 C540 1.499 . S
C540 C539 1.499 . S
C540 C541 1.370 . S
C540 C545 1.415 . S
C541 H530 0.930 . S
C541 C540 1.370 . S
C541 C542 1.407 . S
C542 C541 1.407 . S
C542 C543 1.365 1_455 S
C543 H531 0.930 . S
C543 C542 1.365 1_655 S
C543 C544 1.393 1_655 S
C544 C543 1.393 1_455 S
C544 C545 1.387 . S
C545 H532 0.930 . S
C545 C540 1.415 . S
C545 C544 1.387 . S
H546 C554 0.930 . S
H547 C557 0.930 . S
H548 C559 0.930 . S
H549 C560 0.970 . S
H550 C560 0.970 . S
H551 C562 0.930 . S
H552 C564 0.930 . S
H553 C566 0.930 . S
C554 H546 0.930 . S
C554 C555 1.382 . S
C554 C556 1.426 . S
C555 C554 1.382 . S
C555 C559 1.389 . S
C556 C554 1.426 . S
C556 C557 1.375 . S
C556 C560 1.532 . S
C557 H547 0.930 . S
C557 C556 1.375 . S
C557 C558 1.416 . S
C558 C557 1.416 . S
C558 C559 1.371 . S
C559 H548 0.930 . S
C559 C555 1.389 . S
C559 C558 1.371 . S
C560 H549 0.970 . S
C560 H550 0.970 . S
C560 C556 1.532 . S
C560 C561 1.499 . S
C561 C560 1.499 . S
C561 C562 1.370 . S
C561 C566 1.415 . S
C562 H551 0.930 . S
C562 C561 1.370 . S
C562 C563 1.407 . S
C563 C562 1.407 . S
C563 C564 1.365 . S
C564 H552 0.930 . S
C564 C563 1.365 . S
C564 C565 1.393 . S
C565 C564 1.393 . S
C565 C566 1.387 . S
C566 H553 0.930 . S
C566 C561 1.415 . S
C566 C565 1.387 . S
H567 C575 0.930 . S
H568 C578 0.930 . S
H569 C580 0.930 . S
H570 C581 0.970 . S
H571 C581 0.970 . S
H572 C583 0.930 . S
H573 C585 0.930 . S
H574 C587 0.930 . S
C575 H567 0.930 . S
C575 C576 1.382 . S
C575 C577 1.426 . S
C576 C575 1.382 . S
C576 C580 1.389 . S
C577 C575 1.426 . S
C577 C578 1.375 . S
C577 C581 1.532 . S
C578 H568 0.930 . S
C578 C577 1.375 . S
C578 C579 1.416 . S
C579 C578 1.416 . S
C579 C580 1.371 . S
C580 H569 0.930 . S
C580 C576 1.389 . S
C580 C579 1.371 . S
C581 H570 0.970 . S
C581 H571 0.970 . S
C581 C577 1.532 . S
C581 C582 1.499 . S
C582 C581 1.499 . S
C582 C583 1.370 . S
C582 C587 1.415 . S
C583 H572 0.930 . S
C583 C582 1.370 . S
C583 C584 1.407 . S
C584 C583 1.407 . S
C584 C585 1.365 . S
C585 H573 0.930 . S
C585 C584 1.365 . S
C585 C586 1.393 . S
C586 C585 1.393 . S
C586 C587 1.387 . S
C587 H574 0.930 . S
C587 C582 1.415 . S
C587 C586 1.387 . S
H588 C596 0.930 . S
H589 C599 0.930 . S
H590 C601 0.930 . S
H591 C602 0.970 . S
H592 C602 0.970 . S
H593 C604 0.930 . S
H594 C606 0.930 . S
H595 C608 0.930 . S
C596 H588 0.930 . S
C596 C597 1.382 . S
C596 C598 1.426 . S
C597 C596 1.382 . S
C597 C601 1.389 . S
C598 C596 1.426 . S
C598 C599 1.375 . S
C598 C602 1.532 . S
C599 H589 0.930 . S
C599 C598 1.375 . S
C599 C600 1.416 . S
C600 C599 1.416 . S
C600 C601 1.371 . S
C601 H590 0.930 . S
C601 C597 1.389 . S
C601 C600 1.371 . S
C602 H591 0.970 . S
C602 H592 0.970 . S
C602 C598 1.532 . S
C602 C603 1.499 . S
C603 C602 1.499 . S
C603 C604 1.370 . S
C603 C608 1.415 . S
C604 H593 0.930 . S
C604 C603 1.370 . S
C604 C605 1.407 . S
C605 C604 1.407 . S
C605 C606 1.365 . S
C606 H594 0.930 . S
C606 C605 1.365 . S
C606 C607 1.393 . S
C607 C606 1.393 . S
C607 C608 1.387 . S
C608 H595 0.930 . S
C608 C603 1.415 . S
C608 C607 1.387 . S
H609 C617 0.930 . S
H610 C620 0.930 . S
H611 C622 0.930 . S
H612 C623 0.970 . S
H613 C623 0.970 . S
H614 C625 0.930 . S
H615 C627 0.930 . S
H616 C629 0.930 . S
C617 H609 0.930 . S
C617 C618 1.382 . S
C617 C619 1.426 . S
C618 C617 1.382 . S
C618 C622 1.389 . S
C619 C617 1.426 . S
C619 C620 1.375 . S
C619 C623 1.532 . S
C620 H610 0.930 . S
C620 C619 1.375 . S
C620 C621 1.416 . S
C621 C620 1.416 . S
C621 C622 1.371 . S
C622 H611 0.930 . S
C622 C618 1.389 . S
C622 C621 1.371 . S
C623 H612 0.970 . S
C623 H613 0.970 . S
C623 C619 1.532 . S
C623 C624 1.499 . S
C624 C623 1.499 . S
C624 C625 1.370 . S
C624 C629 1.415 . S
C625 H614 0.930 . S
C625 C624 1.370 . S
C625 C626 1.407 . S
C626 C625 1.407 . S
C626 C627 1.365 . S
C627 H615 0.930 . S
C627 C626 1.365 . S
C627 C628 1.393 . S
C628 C627 1.393 . S
C628 C629 1.387 . S
C629 H616 0.930 . S
C629 C624 1.415 . S
C629 C628 1.387 . S
H630 C638 0.950 . S
H631 C643 0.950 . S
H632 C640 0.950 . S
H633 C642 0.950 . S
H634 C644 0.950 . S
H635 C646 0.950 . S
H636 C648 0.950 . S
H637 C649 0.950 . S
C638 H630 0.950 . S
C638 C639 1.386 . S
C638 C640 1.391 . S
C639 C638 1.386 . S
C639 C643 1.393 1_655 S
C640 H632 0.950 . S
C640 C638 1.391 . S
C640 C641 1.400 . S
C641 C640 1.400 . S
C641 C642 1.398 1_655 S
C641 C647 1.491 . S
C642 H633 0.950 . S
C642 C641 1.398 1_455 S
C642 C643 1.391 . S
C643 H631 0.950 . S
C643 C639 1.393 1_455 S
C643 C642 1.391 . S
C644 H634 0.950 . S
C644 C645 1.386 1_455 S
C644 C646 1.391 . S
C645 C644 1.386 1_655 S
C645 C649 1.393 . S
C646 H635 0.950 . S
C646 C644 1.391 . S
C646 C647 1.400 1_455 S
C647 C641 1.491 . S
C647 C646 1.400 1_655 S
C647 C648 1.398 . S
C648 H636 0.950 . S
C648 C647 1.398 . S
C648 C649 1.391 . S
C649 H637 0.950 . S
C649 C645 1.393 . S
C649 C648 1.391 . S
H650 C658 0.950 . S
H651 C663 0.950 . S
H652 C660 0.950 . S
H653 C662 0.950 . S
H654 C664 0.950 . S
H655 C666 0.950 . S
H656 C668 0.950 . S
H657 C669 0.950 . S
C658 H650 0.950 . S
C658 C659 1.386 . S
C658 C660 1.391 . S
C659 C658 1.386 . S
C659 C663 1.393 . S
C660 H652 0.950 . S
C660 C658 1.391 . S
C660 C661 1.400 . S
C661 C660 1.400 . S
C661 C662 1.398 . S
C661 C667 1.491 . S
C662 H653 0.950 . S
C662 C661 1.398 . S
C662 C663 1.391 . S
C663 H651 0.950 . S
C663 C659 1.393 . S
C663 C662 1.391 . S
C664 H654 0.950 . S
C664 C665 1.386 . S
C664 C666 1.391 . S
C665 C664 1.386 . S
C665 C669 1.393 . S
C666 H655 0.950 . S
C666 C664 1.391 . S
C666 C667 1.400 . S
C667 C661 1.491 . S
C667 C666 1.400 . S
C667 C668 1.398 . S
C668 H656 0.950 . S
C668 C667 1.398 . S
C668 C669 1.391 . S
C669 H657 0.950 . S
C669 C665 1.393 . S
C669 C668 1.391 . S
H670 C678 0.950 . S
H671 C683 0.950 . S
H672 C680 0.950 . S
H673 C682 0.950 . S
H674 C684 0.950 . S
H675 C686 0.950 . S
H676 C688 0.950 . S
H677 C689 0.950 . S
C678 H670 0.950 . S
C678 C679 1.386 . S
C678 C680 1.391 . S
C679 C678 1.386 . S
C679 C683 1.393 . S
C680 H672 0.950 . S
C680 C678 1.391 . S
C680 C681 1.400 . S
C681 C680 1.400 . S
C681 C682 1.398 . S
C681 C687 1.491 . S
C682 H673 0.950 . S
C682 C681 1.398 . S
C682 C683 1.391 . S
C683 H671 0.950 . S
C683 C679 1.393 . S
C683 C682 1.391 . S
C684 H674 0.950 . S
C684 C685 1.386 . S
C684 C686 1.391 . S
C685 C684 1.386 . S
C685 C689 1.393 . S
C686 H675 0.950 . S
C686 C684 1.391 . S
C686 C687 1.400 . S
C687 C681 1.491 . S
C687 C686 1.400 . S
C687 C688 1.398 . S
C688 H676 0.950 . S
C688 C687 1.398 . S
C688 C689 1.391 . S
C689 H677 0.950 . S
C689 C685 1.393 . S
C689 C688 1.391 . S
H690 C698 0.950 . S
H691 C703 0.950 1_545 S
H692 C700 0.950 . S
H693 C702 0.954 1_545 S
H694 C704 0.946 . S
H695 C706 0.948 1_545 S
H696 C708 0.950 . S
H697 C709 0.950 . S
C698 H690 0.950 . S
C698 C699 1.386 . S
C698 C700 1.391 . S
C699 C698 1.386 . S
C699 C703 1.393 . S
C700 H692 0.950 . S
C700 C698 1.391 . S
C700 C701 1.400 . S
C701 C700 1.400 . S
C701 C702 1.405 . S
C701 C707 1.491 . S
C702 H693 0.954 1_565 S
C702 C701 1.405 . S
C702 C703 1.381 . S
C703 H691 0.950 1_565 S
C703 C699 1.393 . S
C703 C702 1.381 . S
C704 H694 0.946 . S
C704 C705 1.382 1_545 S
C704 C706 1.403 1_545 S
C705 C704 1.382 1_565 S
C705 C709 1.393 . S
C706 H695 0.948 1_565 S
C706 C704 1.403 1_565 S
C706 C707 1.399 . S
C707 C701 1.491 . S
C707 C706 1.399 . S
C707 C708 1.398 . S
C708 H696 0.950 . S
C708 C707 1.398 . S
C708 C709 1.391 . S
C709 H697 0.950 . S
C709 C705 1.393 . S
C709 C708 1.391 . S
H710 C718 0.950 1_655 S
H711 C723 0.950 . S
H712 C720 0.932 1_655 S
H713 C722 0.950 . S
H714 C724 0.950 . S
H715 C726 0.950 . S
H716 C728 0.950 . S
H717 C729 0.950 . S
C718 H710 0.950 1_455 S
C718 C719 1.386 . S
C718 C720 1.424 . S
C719 C718 1.386 . S
C719 C723 1.393 . S
C720 H712 0.932 1_455 S
C720 C718 1.424 . S
C720 C721 1.392 . S
C721 C720 1.392 . S
C721 C722 1.398 . S
C721 C727 1.491 . S
C722 H713 0.950 . S
C722 C721 1.398 . S
C722 C723 1.391 . S
C723 H711 0.950 . S
C723 C719 1.393 . S
C723 C722 1.391 . S
C724 H714 0.950 . S
C724 C725 1.386 . S
C724 C726 1.391 . S
C725 C724 1.386 . S
C725 C729 1.393 1_455 S
C726 H715 0.950 . S
C726 C724 1.391 . S
C726 C727 1.400 . S
C727 C721 1.491 . S
C727 C726 1.400 . S
C727 C728 1.398 1_455 S
C728 H716 0.950 . S
C728 C727 1.398 1_655 S
C728 C729 1.391 . S
C729 H717 0.950 . S
C729 C725 1.393 1_655 S
C729 C728 1.391 . S
H730 C738 0.950 . S
H731 C743 0.950 . S
H732 C740 0.950 . S
H733 C742 0.950 . S
H734 C744 0.950 . S
H735 C746 0.950 . S
H736 C748 0.950 . S
H737 C749 0.950 . S
C738 H730 0.950 . S
C738 C739 1.386 . S
C738 C740 1.391 . S
C739 C738 1.386 . S
C739 C743 1.393 . S
C740 H732 0.950 . S
C740 C738 1.391 . S
C740 C741 1.400 . S
C741 C740 1.400 . S
C741 C742 1.398 . S
C741 C747 1.491 . S
C742 H733 0.950 . S
C742 C741 1.398 . S
C742 C743 1.391 . S
C743 H731 0.950 . S
C743 C739 1.393 . S
C743 C742 1.391 . S
C744 H734 0.950 . S
C744 C745 1.386 . S
C744 C746 1.391 . S
C745 C744 1.386 . S
C745 C749 1.393 . S
C746 H735 0.950 . S
C746 C744 1.391 . S
C746 C747 1.400 . S
C747 C741 1.491 . S
C747 C746 1.400 . S
C747 C748 1.398 . S
C748 H736 0.950 . S
C748 C747 1.398 . S
C748 C749 1.391 . S
C749 H737 0.950 . S
C749 C745 1.393 . S
C749 C748 1.391 . S
H750 C758 0.950 . S
H751 C763 0.950 . S
H752 C760 0.950 . S
H753 C762 0.950 . S
H754 C764 0.950 . S
H755 C766 0.950 . S
H756 C768 0.950 . S
H757 C769 0.950 . S
C758 H750 0.950 . S
C758 C759 1.386 . S
C758 C760 1.391 . S
C759 C758 1.386 . S
C759 C763 1.393 1_455 S
C760 H752 0.950 . S
C760 C758 1.391 . S
C760 C761 1.400 . S
C761 C760 1.400 . S
C761 C762 1.398 1_455 S
C761 C767 1.491 . S
C762 H753 0.950 . S
C762 C761 1.398 1_655 S
C762 C763 1.391 . S
C763 H751 0.950 . S
C763 C759 1.393 1_655 S
C763 C762 1.391 . S
C764 H754 0.950 . S
C764 C765 1.386 1_655 S
C764 C766 1.391 . S
C765 C764 1.386 1_455 S
C765 C769 1.393 . S
C766 H755 0.950 . S
C766 C764 1.391 . S
C766 C767 1.400 1_655 S
C767 C761 1.491 . S
C767 C766 1.400 1_455 S
C767 C768 1.398 . S
C768 H756 0.950 . S
C768 C767 1.398 . S
C768 C769 1.391 . S
C769 H757 0.950 . S
C769 C765 1.393 . S
C769 C768 1.391 . S
H770 C778 0.950 . S
H771 C783 0.950 . S
H772 C780 0.950 . S
H773 C782 0.950 . S
H774 C784 0.950 . S
H775 C786 0.950 . S
H776 C788 0.950 . S
H777 C789 0.950 . S
C778 H770 0.950 . S
C778 C779 1.386 . S
C778 C780 1.391 . S
C779 C778 1.386 . S
C779 C783 1.393 . S
C780 H772 0.950 . S
C780 C778 1.391 . S
C780 C781 1.400 . S
C781 C780 1.400 . S
C781 C782 1.398 . S
C781 C787 1.491 . S
C782 H773 0.950 . S
C782 C781 1.398 . S
C782 C783 1.391 . S
C783 H771 0.950 . S
C783 C779 1.393 . S
C783 C782 1.391 . S
C784 H774 0.950 . S
C784 C785 1.386 . S
C784 C786 1.391 . S
C785 C784 1.386 . S
C785 C789 1.393 . S
C786 H775 0.950 . S
C786 C784 1.391 . S
C786 C787 1.400 . S
C787 C781 1.491 . S
C787 C786 1.400 . S
C787 C788 1.398 . S
C788 H776 0.950 . S
C788 C787 1.398 . S
C788 C789 1.391 . S
C789 H777 0.950 . S
C789 C785 1.393 . S
C789 C788 1.391 . S
H790 C798 0.950 . S
H791 C803 0.955 . S
H792 C800 0.950 . S
H793 C802 0.948 . S
H794 C804 0.950 . S
H795 C806 0.950 . S
H796 C808 0.950 . S
H797 C809 0.950 . S
C798 H790 0.950 . S
C798 C799 1.386 . S
C798 C800 1.391 . S
C799 C798 1.386 . S
C799 C803 1.393 . S
C800 H792 0.950 . S
C800 C798 1.391 . S
C800 C801 1.400 . S
C801 C800 1.400 . S
C801 C802 1.398 . S
C801 C807 1.491 . S
C802 H793 0.948 . S
C802 C801 1.398 . S
C802 C803 1.391 . S
C803 H791 0.955 . S
C803 C799 1.393 . S
C803 C802 1.391 . S
C804 H794 0.950 . S
C804 C805 1.384 1_545 S
C804 C806 1.391 . S
C805 C804 1.384 1_565 S
C805 C809 1.398 . S
C806 H795 0.950 . S
C806 C804 1.391 . S
C806 C807 1.400 1_545 S
C807 C801 1.491 . S
C807 C806 1.400 1_565 S
C807 C808 1.398 . S
C808 H796 0.950 . S
C808 C807 1.398 . S
C808 C809 1.391 . S
C809 H797 0.950 . S
C809 C805 1.398 . S
C809 C808 1.391 . S
H810 C818 0.950 . S
H811 C823 0.950 . S
H812 C820 0.950 . S
H813 C822 0.950 . S
H814 C824 0.950 . S
H815 C826 0.950 . S
H816 C828 0.950 . S
H817 C829 0.950 . S
C818 H810 0.950 . S
C818 C819 1.386 1_565 S
C818 C820 1.391 . S
C819 C818 1.386 1_545 S
C819 C823 1.393 . S
C820 H812 0.950 . S
C820 C818 1.391 . S
C820 C821 1.400 1_565 S
C821 C820 1.400 1_545 S
C821 C822 1.398 . S
C821 C827 1.491 . S
C822 H813 0.950 . S
C822 C821 1.398 . S
C822 C823 1.391 . S
C823 H811 0.950 . S
C823 C819 1.393 . S
C823 C822 1.391 . S
C824 H814 0.950 . S
C824 C825 1.386 . S
C824 C826 1.391 . S
C825 C824 1.386 . S
C825 C829 1.393 1_545 S
C826 H815 0.950 . S
C826 C824 1.391 . S
C826 C827 1.400 . S
C827 C821 1.491 . S
C827 C826 1.400 . S
C827 C828 1.398 1_545 S
C828 H816 0.950 . S
C828 C827 1.398 1_565 S
C828 C829 1.391 . S
C829 H817 0.950 . S
C829 C825 1.393 1_565 S
C829 C828 1.391 . S
H830 C838 0.950 1_455 S
H831 C843 0.950 . S
H832 C840 0.949 . S
H833 C842 0.950 . S
H834 C844 0.950 . S
H835 C846 0.950 . S
H836 C848 0.950 . S
H837 C849 0.950 . S
C838 H830 0.950 1_655 S
C838 C839 1.386 . S
C838 C840 1.394 1_655 S
C839 C838 1.386 . S
C839 C843 1.393 . S
C840 H832 0.949 . S
C840 C838 1.394 1_455 S
C840 C841 1.399 1_455 S
C841 C840 1.399 1_655 S
C841 C842 1.398 . S
C841 C847 1.491 . S
C842 H833 0.950 . S
C842 C841 1.398 . S
C842 C843 1.391 . S
C843 H831 0.950 . S
C843 C839 1.393 . S
C843 C842 1.391 . S
C844 H834 0.950 . S
C844 C845 1.396 . S
C844 C846 1.391 . S
C845 C844 1.396 . S
C845 C849 1.405 1_655 S
C846 H835 0.950 . S
C846 C844 1.391 . S
C846 C847 1.400 . S
C847 C841 1.491 . S
C847 C846 1.400 . S
C847 C848 1.398 1_655 S
C848 H836 0.950 . S
C848 C847 1.398 1_455 S
C848 C849 1.391 . S
C849 H837 0.950 . S
C849 C845 1.405 1_455 S
C849 C848 1.391 . S
H850 C858 0.950 . S
H851 C863 0.950 . S
H852 C860 0.950 . S
H853 C862 0.950 . S
H854 C864 0.950 . S
H855 C866 0.950 . S
H856 C868 0.950 . S
H857 C869 0.950 . S
C858 H850 0.950 . S
C858 C859 1.386 . S
C858 C860 1.391 . S
C859 C858 1.386 . S
C859 C863 1.393 . S
C860 H852 0.950 . S
C860 C858 1.391 . S
C860 C861 1.400 . S
C861 C860 1.400 . S
C861 C862 1.398 . S
C861 C867 1.491 . S
C862 H853 0.950 . S
C862 C861 1.398 . S
C862 C863 1.391 . S
C863 H851 0.950 . S
C863 C859 1.393 . S
C863 C862 1.391 . S
C864 H854 0.950 . S
C864 C865 1.386 . S
C864 C866 1.391 . S
C865 C864 1.386 . S
C865 C869 1.393 . S
C866 H855 0.950 . S
C866 C864 1.391 . S
C866 C867 1.400 . S
C867 C861 1.491 . S
C867 C866 1.400 . S
C867 C868 1.398 . S
C868 H856 0.950 . S
C868 C867 1.398 . S
C868 C869 1.391 . S
C869 H857 0.950 . S
C869 C865 1.393 . S
C869 C868 1.391 . S
H870 C878 0.950 . S
H871 C883 0.950 . S
H872 C880 0.950 . S
H873 C882 0.950 . S
H874 C884 0.950 . S
H875 C886 0.950 . S
H876 C888 0.950 . S
H877 C889 0.950 . S
C878 H870 0.950 . S
C878 C879 1.386 . S
C878 C880 1.391 . S
C879 C878 1.386 . S
C879 C883 1.393 . S
C880 H872 0.950 . S
C880 C878 1.391 . S
C880 C881 1.400 . S
C881 C880 1.400 . S
C881 C882 1.398 . S
C881 C887 1.491 . S
C882 H873 0.950 . S
C882 C881 1.398 . S
C882 C883 1.391 . S
C883 H871 0.950 . S
C883 C879 1.393 . S
C883 C882 1.391 . S
C884 H874 0.950 . S
C884 C885 1.386 . S
C884 C886 1.391 . S
C885 C884 1.386 . S
C885 C889 1.393 . S
C886 H875 0.950 . S
C886 C884 1.391 . S
C886 C887 1.400 . S
C887 C881 1.491 . S
C887 C886 1.400 . S
C887 C888 1.398 . S
C888 H876 0.950 . S
C888 C887 1.398 . S
C888 C889 1.391 . S
C889 H877 0.950 . S
C889 C885 1.393 . S
C889 C888 1.391 . S
H890 C898 0.950 . S
H891 C903 0.950 . S
H892 C900 0.950 . S
H893 C902 0.950 . S
H894 C904 0.950 . S
H895 C906 0.950 . S
H896 C908 0.950 . S
H897 C909 0.950 . S
C898 H890 0.950 . S
C898 C899 1.386 . S
C898 C900 1.391 . S
C899 C898 1.386 . S
C899 C903 1.393 . S
C900 H892 0.950 . S
C900 C898 1.391 . S
C900 C901 1.400 . S
C901 C900 1.400 . S
C901 C902 1.398 . S
C901 C907 1.491 . S
C902 H893 0.950 . S
C902 C901 1.398 . S
C902 C903 1.391 . S
C903 H891 0.950 . S
C903 C899 1.393 . S
C903 C902 1.391 . S
C904 H894 0.950 . S
C904 C905 1.386 . S
C904 C906 1.391 . S
C905 C904 1.386 . S
C905 C909 1.393 . S
C906 H895 0.950 . S
C906 C904 1.391 . S
C906 C907 1.400 . S
C907 C901 1.491 . S
C907 C906 1.400 . S
C907 C908 1.398 . S
C908 H896 0.950 . S
C908 C907 1.398 . S
C908 C909 1.391 . S
C909 H897 0.950 . S
C909 C905 1.393 . S
C909 C908 1.391 . S
H910 C918 0.950 . S
H911 C923 0.950 . S
H912 C920 0.950 . S
H913 C922 0.950 . S
H914 C924 0.950 . S
H915 C926 0.950 . S
H916 C928 0.950 . S
H917 C929 0.950 . S
C918 H910 0.950 . S
C918 C919 1.386 . S
C918 C920 1.391 . S
C919 C918 1.386 . S
C919 C923 1.393 . S
C920 H912 0.950 . S
C920 C918 1.391 . S
C920 C921 1.400 . S
C921 C920 1.400 . S
C921 C922 1.398 . S
C921 C927 1.491 . S
C922 H913 0.950 . S
C922 C921 1.398 . S
C922 C923 1.391 . S
C923 H911 0.950 . S
C923 C919 1.393 . S
C923 C922 1.391 . S
C924 H914 0.950 . S
C924 C925 1.386 . S
C924 C926 1.391 . S
C925 C924 1.386 . S
C925 C929 1.393 . S
C926 H915 0.950 . S
C926 C924 1.391 . S
C926 C927 1.400 . S
C927 C921 1.491 . S
C927 C926 1.400 . S
C927 C928 1.398 . S
C928 H916 0.950 . S
C928 C927 1.398 . S
C928 C929 1.391 . S
C929 H917 0.950 . S
C929 C925 1.393 . S
C929 C928 1.391 . S
H930 C938 0.950 . S
H931 C943 0.950 . S
H932 C940 0.950 . S
H933 C942 0.950 . S
H934 C944 0.950 . S
H935 C946 0.950 . S
H936 C948 0.950 . S
H937 C949 0.950 . S
C938 H930 0.950 . S
C938 C939 1.386 . S
C938 C940 1.391 . S
C939 C938 1.386 . S
C939 C943 1.393 . S
C940 H932 0.950 . S
C940 C938 1.391 . S
C940 C941 1.400 . S
C941 C940 1.400 . S
C941 C942 1.398 . S
C941 C947 1.491 . S
C942 H933 0.950 . S
C942 C941 1.398 . S
C942 C943 1.391 . S
C943 H931 0.950 . S
C943 C939 1.393 . S
C943 C942 1.391 . S
C944 H934 0.950 . S
C944 C945 1.386 . S
C944 C946 1.391 . S
C945 C944 1.386 . S
C945 C949 1.393 . S
C946 H935 0.950 . S
C946 C944 1.391 . S
C946 C947 1.400 . S
C947 C941 1.491 . S
C947 C946 1.400 . S
C947 C948 1.398 . S
C948 H936 0.950 . S
C948 C947 1.398 . S
C948 C949 1.391 . S
C949 H937 0.950 . S
C949 C945 1.393 . S
C949 C948 1.391 . S
H950 C958 0.950 . S
H951 C963 0.950 . S
H952 C960 0.950 . S
H953 C962 0.950 . S
H954 C964 0.950 . S
H955 C966 0.950 . S
H956 C968 0.950 . S
H957 C969 0.950 . S
C958 H950 0.950 . S
C958 C959 1.386 . S
C958 C960 1.391 . S
C959 C958 1.386 . S
C959 C963 1.393 . S
C960 H952 0.950 . S
C960 C958 1.391 . S
C960 C961 1.400 . S
C961 C960 1.400 . S
C961 C962 1.398 . S
C961 C967 1.491 . S
C962 H953 0.950 . S
C962 C961 1.398 . S
C962 C963 1.391 . S
C963 H951 0.950 . S
C963 C959 1.393 . S
C963 C962 1.391 . S
C964 H954 0.950 . S
C964 C965 1.386 . S
C964 C966 1.391 . S
C965 C964 1.386 . S
C965 C969 1.393 . S
C966 H955 0.950 . S
C966 C964 1.391 . S
C966 C967 1.400 . S
C967 C961 1.491 . S
C967 C966 1.400 . S
C967 C968 1.398 . S
C968 H956 0.950 . S
C968 C967 1.398 . S
C968 C969 1.391 . S
C969 H957 0.950 . S
C969 C965 1.393 . S
C969 C968 1.391 . S
H970 C978 0.950 . S
H971 C983 0.950 . S
H972 C980 0.950 . S
H973 C982 0.950 . S
H974 C984 0.950 . S
H975 C986 0.950 . S
H976 C988 0.950 . S
H977 C989 0.950 . S
C978 H970 0.950 . S
C978 C979 1.386 . S
C978 C980 1.391 . S
C979 C978 1.386 . S
C979 C983 1.393 . S
C980 H972 0.950 . S
C980 C978 1.391 . S
C980 C981 1.400 . S
C981 C980 1.400 . S
C981 C982 1.398 . S
C981 C987 1.491 . S
C982 H973 0.950 . S
C982 C981 1.398 . S
C982 C983 1.391 . S
C983 H971 0.950 . S
C983 C979 1.393 . S
C983 C982 1.391 . S
C984 H974 0.950 . S
C984 C985 1.386 . S
C984 C986 1.391 . S
C985 C984 1.386 . S
C985 C989 1.393 . S
C986 H975 0.950 . S
C986 C984 1.391 . S
C986 C987 1.400 . S
C987 C981 1.491 . S
C987 C986 1.400 . S
C987 C988 1.398 . S
C988 H976 0.950 . S
C988 C987 1.398 . S
C988 C989 1.391 . S
C989 H977 0.950 . S
C989 C985 1.393 . S
C989 C988 1.391 . S
H990 C998 0.950 . S
H991 C1003 0.950 . S
H992 C1000 0.950 . S
H993 C1002 0.950 . S
H994 C1004 0.950 . S
H995 C1006 0.950 . S
H996 C1008 0.950 . S
H997 C1009 0.950 . S
C998 H990 0.950 . S
C998 C999 1.386 . S
C998 C1000 1.391 . S
C999 C998 1.386 . S
C999 C1003 1.393 . S
C1000 H992 0.950 . S
C1000 C998 1.391 . S
C1000 C1001 1.400 . S
C1001 C1000 1.400 . S
C1001 C1002 1.398 . S
C1001 C1007 1.491 . S
C1002 H993 0.950 . S
C1002 C1001 1.398 . S
C1002 C1003 1.391 . S
C1003 H991 0.950 . S
C1003 C999 1.393 . S
C1003 C1002 1.391 . S
C1004 H994 0.950 . S
C1004 C1005 1.386 . S
C1004 C1006 1.391 . S
C1005 C1004 1.386 . S
C1005 C1009 1.393 . S
C1006 H995 0.950 . S
C1006 C1004 1.391 . S
C1006 C1007 1.400 . S
C1007 C1001 1.491 . S
C1007 C1006 1.400 . S
C1007 C1008 1.398 . S
C1008 H996 0.950 . S
C1008 C1007 1.398 . S
C1008 C1009 1.391 . S
C1009 H997 0.950 . S
C1009 C1005 1.393 . S
C1009 C1008 1.391 . S
H1010 C1018 0.950 . S
H1011 C1023 0.950 . S
H1012 C1020 0.950 . S
H1013 C1022 0.950 . S
H1014 C1024 0.950 . S
H1015 C1026 0.950 . S
H1016 C1028 0.950 . S
H1017 C1029 0.950 . S
C1018 H1010 0.950 . S
C1018 C1019 1.386 . S
C1018 C1020 1.391 . S
C1019 C1018 1.386 . S
C1019 C1023 1.393 . S
C1020 H1012 0.950 . S
C1020 C1018 1.391 . S
C1020 C1021 1.400 . S
C1021 C1020 1.400 . S
C1021 C1022 1.398 . S
C1021 C1027 1.491 . S
C1022 H1013 0.950 . S
C1022 C1021 1.398 . S
C1022 C1023 1.391 . S
C1023 H1011 0.950 . S
C1023 C1019 1.393 . S
C1023 C1022 1.391 . S
C1024 H1014 0.950 . S
C1024 C1025 1.386 . S
C1024 C1026 1.391 . S
C1025 C1024 1.386 . S
C1025 C1029 1.393 . S
C1026 H1015 0.950 . S
C1026 C1024 1.391 . S
C1026 C1027 1.400 . S
C1027 C1021 1.491 . S
C1027 C1026 1.400 . S
C1027 C1028 1.398 . S
C1028 H1016 0.950 . S
C1028 C1027 1.398 . S
C1028 C1029 1.391 . S
C1029 H1017 0.950 . S
C1029 C1025 1.393 . S
C1029 C1028 1.391 . S
H1030 C1038 0.950 . S
H1031 C1043 0.950 . S
H1032 C1040 0.950 . S
H1033 C1042 0.950 . S
H1034 C1044 0.950 . S
H1035 C1046 0.950 . S
H1036 C1048 0.950 . S
H1037 C1049 0.950 . S
C1038 H1030 0.950 . S
C1038 C1039 1.386 . S
C1038 C1040 1.391 . S
C1039 C1038 1.386 . S
C1039 C1043 1.393 . S
C1040 H1032 0.950 . S
C1040 C1038 1.391 . S
C1040 C1041 1.400 . S
C1041 C1040 1.400 . S
C1041 C1042 1.398 . S
C1041 C1047 1.491 . S
C1042 H1033 0.950 . S
C1042 C1041 1.398 . S
C1042 C1043 1.391 . S
C1043 H1031 0.950 . S
C1043 C1039 1.393 . S
C1043 C1042 1.391 . S
C1044 H1034 0.950 . S
C1044 C1045 1.386 . S
C1044 C1046 1.391 . S
C1045 C1044 1.386 . S
C1045 C1049 1.393 . S
C1046 H1035 0.950 . S
C1046 C1044 1.391 . S
C1046 C1047 1.400 . S
C1047 C1041 1.491 . S
C1047 C1046 1.400 . S
C1047 C1048 1.398 . S
C1048 H1036 0.950 . S
C1048 C1047 1.398 . S
C1048 C1049 1.391 . S
C1049 H1037 0.950 . S
C1049 C1045 1.393 . S
C1049 C1048 1.391 . S
H1050 C1058 0.950 . S
H1051 C1063 0.950 . S
H1052 C1060 0.950 . S
H1053 C1062 0.950 . S
H1054 C1064 0.950 . S
H1055 C1066 0.950 . S
H1056 C1068 0.950 . S
H1057 C1069 0.950 . S
C1058 H1050 0.950 . S
C1058 C1059 1.386 . S
C1058 C1060 1.391 . S
C1059 C1058 1.386 . S
C1059 C1063 1.393 . S
C1060 H1052 0.950 . S
C1060 C1058 1.391 . S
C1060 C1061 1.400 . S
C1061 C1060 1.400 . S
C1061 C1062 1.398 . S
C1061 C1067 1.491 . S
C1062 H1053 0.950 . S
C1062 C1061 1.398 . S
C1062 C1063 1.391 . S
C1063 H1051 0.950 . S
C1063 C1059 1.393 . S
C1063 C1062 1.391 . S
C1064 H1054 0.950 . S
C1064 C1065 1.386 . S
C1064 C1066 1.391 . S
C1065 C1064 1.386 . S
C1065 C1069 1.393 . S
C1066 H1055 0.950 . S
C1066 C1064 1.391 . S
C1066 C1067 1.400 . S
C1067 C1061 1.491 . S
C1067 C1066 1.400 . S
C1067 C1068 1.398 . S
C1068 H1056 0.950 . S
C1068 C1067 1.398 . S
C1068 C1069 1.391 . S
C1069 H1057 0.950 . S
C1069 C1065 1.393 . S
C1069 C1068 1.391 . S
H1070 C1078 0.950 . S
H1071 C1083 0.950 . S
H1072 C1080 0.950 . S
H1073 C1082 0.950 . S
H1074 C1084 0.950 . S
H1075 C1086 0.950 . S
H1076 C1088 0.950 . S
H1077 C1089 0.950 . S
C1078 H1070 0.950 . S
C1078 C1079 1.386 . S
C1078 C1080 1.391 . S
C1079 C1078 1.386 . S
C1079 C1083 1.393 . S
C1080 H1072 0.950 . S
C1080 C1078 1.391 . S
C1080 C1081 1.400 . S
C1081 C1080 1.400 . S
C1081 C1082 1.398 . S
C1081 C1087 1.491 . S
C1082 H1073 0.950 . S
C1082 C1081 1.398 . S
C1082 C1083 1.391 . S
C1083 H1071 0.950 . S
C1083 C1079 1.393 . S
C1083 C1082 1.391 . S
C1084 H1074 0.950 . S
C1084 C1085 1.386 . S
C1084 C1086 1.391 . S
C1085 C1084 1.386 . S
C1085 C1089 1.393 . S
C1086 H1075 0.950 . S
C1086 C1084 1.391 . S
C1086 C1087 1.400 . S
C1087 C1081 1.491 . S
C1087 C1086 1.400 . S
C1087 C1088 1.398 . S
C1088 H1076 0.950 . S
C1088 C1087 1.398 . S
C1088 C1089 1.391 . S
C1089 H1077 0.950 . S
C1089 C1085 1.393 . S
C1089 C1088 1.391 . S
H1090 C1098 0.950 . S
H1091 C1103 0.950 . S
H1092 C1100 0.950 . S
H1093 C1102 0.950 . S
H1094 C1104 0.950 . S
H1095 C1106 0.950 . S
H1096 C1108 0.950 . S
H1097 C1109 0.950 . S
C1098 H1090 0.950 . S
C1098 C1099 1.386 . S
C1098 C1100 1.391 . S
C1099 C1098 1.386 . S
C1099 C1103 1.393 . S
C1100 H1092 0.950 . S
C1100 C1098 1.391 . S
C1100 C1101 1.400 . S
C1101 C1100 1.400 . S
C1101 C1102 1.398 . S
C1101 C1107 1.491 . S
C1102 H1093 0.950 . S
C1102 C1101 1.398 . S
C1102 C1103 1.391 . S
C1103 H1091 0.950 . S
C1103 C1099 1.393 . S
C1103 C1102 1.391 . S
C1104 H1094 0.950 . S
C1104 C1105 1.386 . S
C1104 C1106 1.391 . S
C1105 C1104 1.386 . S
C1105 C1109 1.393 . S
C1106 H1095 0.950 . S
C1106 C1104 1.391 . S
C1106 C1107 1.400 . S
C1107 C1101 1.491 . S
C1107 C1106 1.400 . S
C1107 C1108 1.398 . S
C1108 H1096 0.950 . S
C1108 C1107 1.398 . S
C1108 C1109 1.391 . S
C1109 H1097 0.950 . S
C1109 C1105 1.393 . S
C1109 C1108 1.391 . S
H1110 C1118 0.950 . S
H1111 C1123 0.950 . S
H1112 C1120 0.950 . S
H1113 C1122 0.950 . S
H1114 C1124 0.950 . S
H1115 C1126 0.950 . S
H1116 C1128 0.950 . S
H1117 C1129 0.950 . S
C1118 H1110 0.950 . S
C1118 C1119 1.386 . S
C1118 C1120 1.391 . S
C1119 C1118 1.386 . S
C1119 C1123 1.393 . S
C1120 H1112 0.950 . S
C1120 C1118 1.391 . S
C1120 C1121 1.400 . S
C1121 C1120 1.400 . S
C1121 C1122 1.398 . S
C1121 C1127 1.491 . S
C1122 H1113 0.950 . S
C1122 C1121 1.398 . S
C1122 C1123 1.391 . S
C1123 H1111 0.950 . S
C1123 C1119 1.393 . S
C1123 C1122 1.391 . S
C1124 H1114 0.950 . S
C1124 C1125 1.386 . S
C1124 C1126 1.391 . S
C1125 C1124 1.386 . S
C1125 C1129 1.393 . S
C1126 H1115 0.950 . S
C1126 C1124 1.391 . S
C1126 C1127 1.400 . S
C1127 C1121 1.491 . S
C1127 C1126 1.400 . S
C1127 C1128 1.398 . S
C1128 H1116 0.950 . S
C1128 C1127 1.398 . S
C1128 C1129 1.391 . S
C1129 H1117 0.950 . S
C1129 C1125 1.393 . S
C1129 C1128 1.391 . S
H1130 C1138 0.950 . S
H1131 C1143 0.950 . S
H1132 C1140 0.950 . S
H1133 C1142 0.950 . S
H1134 C1144 0.950 . S
H1135 C1146 0.950 . S
H1136 C1148 0.950 . S
H1137 C1149 0.950 . S
C1138 H1130 0.950 . S
C1138 C1139 1.386 . S
C1138 C1140 1.391 . S
C1139 C1138 1.386 . S
C1139 C1143 1.393 . S
C1140 H1132 0.950 . S
C1140 C1138 1.391 . S
C1140 C1141 1.400 . S
C1141 C1140 1.400 . S
C1141 C1142 1.398 . S
C1141 C1147 1.491 . S
C1142 H1133 0.950 . S
C1142 C1141 1.398 . S
C1142 C1143 1.391 . S
C1143 H1131 0.950 . S
C1143 C1139 1.393 . S
C1143 C1142 1.391 . S
C1144 H1134 0.950 . S
C1144 C1145 1.386 . S
C1144 C1146 1.391 . S
C1145 C1144 1.386 . S
C1145 C1149 1.393 . S
C1146 H1135 0.950 . S
C1146 C1144 1.391 . S
C1146 C1147 1.400 . S
C1147 C1141 1.491 . S
C1147 C1146 1.400 . S
C1147 C1148 1.398 . S
C1148 H1136 0.950 . S
C1148 C1147 1.398 . S
C1148 C1149 1.391 . S
C1149 H1137 0.950 . S
C1149 C1145 1.393 . S
C1149 C1148 1.391 . S
H1150 C1158 0.950 . S
H1151 C1163 0.950 . S
H1152 C1160 0.950 . S
H1153 C1162 0.950 . S
H1154 C1164 0.950 . S
H1155 C1166 0.950 . S
H1156 C1168 0.950 . S
H1157 C1169 0.950 . S
C1158 H1150 0.950 . S
C1158 C1159 1.386 . S
C1158 C1160 1.391 . S
C1159 C1158 1.386 . S
C1159 C1163 1.393 . S
C1160 H1152 0.950 . S
C1160 C1158 1.391 . S
C1160 C1161 1.400 . S
C1161 C1160 1.400 . S
C1161 C1162 1.398 . S
C1161 C1167 1.491 . S
C1162 H1153 0.950 . S
C1162 C1161 1.398 . S
C1162 C1163 1.391 . S
C1163 H1151 0.950 . S
C1163 C1159 1.393 . S
C1163 C1162 1.391 . S
C1164 H1154 0.950 . S
C1164 C1165 1.386 . S
C1164 C1166 1.391 . S
C1165 C1164 1.386 . S
C1165 C1169 1.393 . S
C1166 H1155 0.950 . S
C1166 C1164 1.391 . S
C1166 C1167 1.400 . S
C1167 C1161 1.491 . S
C1167 C1166 1.400 . S
C1167 C1168 1.398 . S
C1168 H1156 0.950 . S
C1168 C1167 1.398 . S
C1168 C1169 1.391 . S
C1169 H1157 0.950 . S
C1169 C1165 1.393 . S
C1169 C1168 1.391 . S
H1170 C1178 0.950 . S
H1171 C1183 0.950 . S
H1172 C1180 0.950 . S
H1173 C1182 0.950 . S
H1174 C1184 0.950 . S
H1175 C1186 0.950 . S
H1176 C1188 0.950 . S
H1177 C1189 0.950 . S
C1178 H1170 0.950 . S
C1178 C1179 1.386 . S
C1178 C1180 1.391 . S
C1179 C1178 1.386 . S
C1179 C1183 1.393 . S
C1180 H1172 0.950 . S
C1180 C1178 1.391 . S
C1180 C1181 1.400 . S
C1181 C1180 1.400 . S
C1181 C1182 1.398 . S
C1181 C1187 1.491 . S
C1182 H1173 0.950 . S
C1182 C1181 1.398 . S
C1182 C1183 1.391 . S
C1183 H1171 0.950 . S
C1183 C1179 1.393 . S
C1183 C1182 1.391 . S
C1184 H1174 0.950 . S
C1184 C1185 1.386 . S
C1184 C1186 1.391 . S
C1185 C1184 1.386 . S
C1185 C1189 1.393 . S
C1186 H1175 0.950 . S
C1186 C1184 1.391 . S
C1186 C1187 1.400 . S
C1187 C1181 1.491 . S
C1187 C1186 1.400 . S
C1187 C1188 1.398 . S
C1188 H1176 0.950 . S
C1188 C1187 1.398 . S
C1188 C1189 1.391 . S
C1189 H1177 0.950 . S
C1189 C1185 1.393 . S
C1189 C1188 1.391 . S
H1190 C1198 0.950 . S
H1191 C1203 0.950 . S
H1192 C1200 0.950 . S
H1193 C1202 0.950 . S
H1194 C1204 0.950 . S
H1195 C1206 0.950 . S
H1196 C1208 0.950 . S
H1197 C1209 0.950 . S
C1198 H1190 0.950 . S
C1198 C1199 1.386 . S
C1198 C1200 1.391 . S
C1199 C1198 1.386 . S
C1199 C1203 1.393 . S
C1200 H1192 0.950 . S
C1200 C1198 1.391 . S
C1200 C1201 1.400 . S
C1201 C1200 1.400 . S
C1201 C1202 1.398 . S
C1201 C1207 1.491 . S
C1202 H1193 0.950 . S
C1202 C1201 1.398 . S
C1202 C1203 1.391 . S
C1203 H1191 0.950 . S
C1203 C1199 1.393 . S
C1203 C1202 1.391 . S
C1204 H1194 0.950 . S
C1204 C1205 1.386 . S
C1204 C1206 1.391 . S
C1205 C1204 1.386 . S
C1205 C1209 1.393 . S
C1206 H1195 0.950 . S
C1206 C1204 1.391 . S
C1206 C1207 1.400 . S
C1207 C1201 1.491 . S
C1207 C1206 1.400 . S
C1207 C1208 1.398 . S
C1208 H1196 0.950 . S
C1208 C1207 1.398 . S
C1208 C1209 1.391 . S
C1209 H1197 0.950 . S
C1209 C1205 1.393 . S
C1209 C1208 1.391 . S
H1210 C1218 0.950 . S
H1211 C1223 0.950 . S
H1212 C1220 0.950 . S
H1213 C1222 0.950 . S
H1214 C1224 0.950 . S
H1215 C1226 0.950 . S
H1216 C1228 0.950 . S
H1217 C1229 0.950 . S
C1218 H1210 0.950 . S
C1218 C1219 1.386 . S
C1218 C1220 1.391 . S
C1219 C1218 1.386 . S
C1219 C1223 1.393 . S
C1220 H1212 0.950 . S
C1220 C1218 1.391 . S
C1220 C1221 1.400 . S
C1221 C1220 1.400 . S
C1221 C1222 1.398 . S
C1221 C1227 1.491 . S
C1222 H1213 0.950 . S
C1222 C1221 1.398 . S
C1222 C1223 1.391 . S
C1223 H1211 0.950 . S
C1223 C1219 1.393 . S
C1223 C1222 1.391 . S
C1224 H1214 0.950 . S
C1224 C1225 1.386 . S
C1224 C1226 1.391 . S
C1225 C1224 1.386 . S
C1225 C1229 1.393 . S
C1226 H1215 0.950 . S
C1226 C1224 1.391 . S
C1226 C1227 1.400 . S
C1227 C1221 1.491 . S
C1227 C1226 1.400 . S
C1227 C1228 1.398 . S
C1228 H1216 0.950 . S
C1228 C1227 1.398 . S
C1228 C1229 1.391 . S
C1229 H1217 0.950 . S
C1229 C1225 1.393 . S
C1229 C1228 1.391 . S
H1230 C1238 0.950 . S
H1231 C1243 0.950 . S
H1232 C1240 0.950 . S
H1233 C1242 0.950 . S
H1234 C1244 0.950 . S
H1235 C1246 0.950 . S
H1236 C1248 0.950 . S
H1237 C1249 0.950 . S
C1238 H1230 0.950 . S
C1238 C1239 1.386 . S
C1238 C1240 1.391 . S
C1239 C1238 1.386 . S
C1239 C1243 1.393 . S
C1240 H1232 0.950 . S
C1240 C1238 1.391 . S
C1240 C1241 1.400 . S
C1241 C1240 1.400 . S
C1241 C1242 1.398 . S
C1241 C1247 1.491 . S
C1242 H1233 0.950 . S
C1242 C1241 1.398 . S
C1242 C1243 1.391 . S
C1243 H1231 0.950 . S
C1243 C1239 1.393 . S
C1243 C1242 1.391 . S
C1244 H1234 0.950 . S
C1244 C1245 1.386 . S
C1244 C1246 1.391 . S
C1245 C1244 1.386 . S
C1245 C1249 1.393 . S
C1246 H1235 0.950 . S
C1246 C1244 1.391 . S
C1246 C1247 1.400 . S
C1247 C1241 1.491 . S
C1247 C1246 1.400 . S
C1247 C1248 1.398 . S
C1248 H1236 0.950 . S
C1248 C1247 1.398 . S
C1248 C1249 1.391 . S
C1249 H1237 0.950 . S
C1249 C1245 1.393 . S
C1249 C1248 1.391 . S
H1250 C1258 0.950 . S
H1251 C1263 0.950 . S
H1252 C1260 0.950 . S
H1253 C1262 0.950 . S
H1254 C1264 0.950 . S
H1255 C1266 0.950 . S
H1256 C1268 0.950 . S
H1257 C1269 0.950 . S
C1258 H1250 0.950 . S
C1258 C1259 1.386 . S
C1258 C1260 1.391 . S
C1259 C1258 1.386 . S
C1259 C1263 1.393 . S
C1260 H1252 0.950 . S
C1260 C1258 1.391 . S
C1260 C1261 1.400 . S
C1261 C1260 1.400 . S
C1261 C1262 1.398 . S
C1261 C1267 1.491 . S
C1262 H1253 0.950 . S
C1262 C1261 1.398 . S
C1262 C1263 1.391 . S
C1263 H1251 0.950 . S
C1263 C1259 1.393 . S
C1263 C1262 1.391 . S
C1264 H1254 0.950 . S
C1264 C1265 1.386 . S
C1264 C1266 1.391 . S
C1265 C1264 1.386 . S
C1265 C1269 1.393 . S
C1266 H1255 0.950 . S
C1266 C1264 1.391 . S
C1266 C1267 1.400 . S
C1267 C1261 1.491 . S
C1267 C1266 1.400 . S
C1267 C1268 1.398 . S
C1268 H1256 0.950 . S
C1268 C1267 1.398 . S
C1268 C1269 1.391 . S
C1269 H1257 0.950 . S
C1269 C1265 1.393 . S
C1269 C1268 1.391 . S
H1270 C1278 0.950 . S
H1271 C1283 0.950 . S
H1272 C1280 0.950 . S
H1273 C1282 0.950 . S
H1274 C1284 0.950 . S
H1275 C1286 0.950 . S
H1276 C1288 0.950 . S
H1277 C1289 0.950 . S
C1278 H1270 0.950 . S
C1278 C1279 1.386 . S
C1278 C1280 1.391 . S
C1279 C1278 1.386 . S
C1279 C1283 1.393 . S
C1280 H1272 0.950 . S
C1280 C1278 1.391 . S
C1280 C1281 1.400 . S
C1281 C1280 1.400 . S
C1281 C1282 1.398 . S
C1281 C1287 1.491 . S
C1282 H1273 0.950 . S
C1282 C1281 1.398 . S
C1282 C1283 1.391 . S
C1283 H1271 0.950 . S
C1283 C1279 1.393 . S
C1283 C1282 1.391 . S
C1284 H1274 0.950 . S
C1284 C1285 1.386 . S
C1284 C1286 1.391 . S
C1285 C1284 1.386 . S
C1285 C1289 1.393 . S
C1286 H1275 0.950 . S
C1286 C1284 1.391 . S
C1286 C1287 1.400 . S
C1287 C1281 1.491 . S
C1287 C1286 1.400 . S
C1287 C1288 1.398 . S
C1288 H1276 0.950 . S
C1288 C1287 1.398 . S
C1288 C1289 1.391 . S
C1289 H1277 0.950 . S
C1289 C1285 1.393 . S
C1289 C1288 1.391 . S
H1290 C1298 0.950 . S
H1291 C1303 0.950 . S
H1292 C1300 0.950 . S
H1293 C1302 0.950 . S
H1294 C1304 0.950 . S
H1295 C1306 0.950 . S
H1296 C1308 0.950 . S
H1297 C1309 0.950 . S
C1298 H1290 0.950 . S
C1298 C1299 1.386 . S
C1298 C1300 1.391 . S
C1299 C1298 1.386 . S
C1299 C1303 1.393 . S
C1300 H1292 0.950 . S
C1300 C1298 1.391 . S
C1300 C1301 1.400 . S
C1301 C1300 1.400 . S
C1301 C1302 1.398 . S
C1301 C1307 1.491 . S
C1302 H1293 0.950 . S
C1302 C1301 1.398 . S
C1302 C1303 1.391 . S
C1303 H1291 0.950 . S
C1303 C1299 1.393 . S
C1303 C1302 1.391 . S
C1304 H1294 0.950 . S
C1304 C1305 1.386 . S
C1304 C1306 1.391 . S
C1305 C1304 1.386 . S
C1305 C1309 1.393 . S
C1306 H1295 0.950 . S
C1306 C1304 1.391 . S
C1306 C1307 1.400 . S
C1307 C1301 1.491 . S
C1307 C1306 1.400 . S
C1307 C1308 1.398 . S
C1308 H1296 0.950 . S
C1308 C1307 1.398 . S
C1308 C1309 1.391 . S
C1309 H1297 0.950 . S
C1309 C1305 1.393 . S
C1309 C1308 1.391 . S
H1310 C1318 0.950 . S
H1311 C1323 0.950 . S
H1312 C1320 0.950 . S
H1313 C1322 0.950 . S
H1314 C1324 0.950 . S
H1315 C1326 0.950 . S
H1316 C1328 0.950 . S
H1317 C1329 0.950 . S
C1318 H1310 0.950 . S
C1318 C1319 1.386 . S
C1318 C1320 1.391 . S
C1319 C1318 1.386 . S
C1319 C1323 1.393 . S
C1320 H1312 0.950 . S
C1320 C1318 1.391 . S
C1320 C1321 1.400 . S
C1321 C1320 1.400 . S
C1321 C1322 1.398 . S
C1321 C1327 1.491 . S
C1322 H1313 0.950 . S
C1322 C1321 1.398 . S
C1322 C1323 1.391 . S
C1323 H1311 0.950 . S
C1323 C1319 1.393 . S
C1323 C1322 1.391 . S
C1324 H1314 0.950 . S
C1324 C1325 1.386 . S
C1324 C1326 1.391 . S
C1325 C1324 1.386 . S
C1325 C1329 1.393 . S
C1326 H1315 0.950 . S
C1326 C1324 1.391 . S
C1326 C1327 1.400 . S
C1327 C1321 1.491 . S
C1327 C1326 1.400 . S
C1327 C1328 1.398 . S
C1328 H1316 0.950 . S
C1328 C1327 1.398 . S
C1328 C1329 1.391 . S
C1329 H1317 0.950 . S
C1329 C1325 1.393 . S
C1329 C1328 1.391 . S
H1330 C1338 0.950 . S
H1331 C1343 0.950 . S
H1332 C1340 0.950 . S
H1333 C1342 0.950 . S
H1334 C1344 0.950 . S
H1335 C1346 0.950 . S
H1336 C1348 0.950 . S
H1337 C1349 0.950 . S
C1338 H1330 0.950 . S
C1338 C1339 1.386 . S
C1338 C1340 1.391 . S
C1339 C1338 1.386 . S
C1339 C1343 1.393 . S
C1340 H1332 0.950 . S
C1340 C1338 1.391 . S
C1340 C1341 1.400 . S
C1341 C1340 1.400 . S
C1341 C1342 1.398 . S
C1341 C1347 1.491 . S
C1342 H1333 0.950 . S
C1342 C1341 1.398 . S
C1342 C1343 1.391 . S
C1343 H1331 0.950 . S
C1343 C1339 1.393 . S
C1343 C1342 1.391 . S
C1344 H1334 0.950 . S
C1344 C1345 1.386 . S
C1344 C1346 1.391 . S
C1345 C1344 1.386 . S
C1345 C1349 1.393 . S
C1346 H1335 0.950 . S
C1346 C1344 1.391 . S
C1346 C1347 1.400 . S
C1347 C1341 1.491 . S
C1347 C1346 1.400 . S
C1347 C1348 1.398 . S
C1348 H1336 0.950 . S
C1348 C1347 1.398 . S
C1348 C1349 1.391 . S
C1349 H1337 0.950 . S
C1349 C1345 1.393 . S
C1349 C1348 1.391 . S
H1350 C1358 0.950 . S
H1351 C1363 0.950 . S
H1352 C1360 0.950 . S
H1353 C1362 0.950 . S
H1354 C1364 0.950 . S
H1355 C1366 0.950 . S
H1356 C1368 0.950 . S
H1357 C1369 0.950 . S
C1358 H1350 0.950 . S
C1358 C1359 1.386 . S
C1358 C1360 1.391 . S
C1359 C1358 1.386 . S
C1359 C1363 1.393 . S
C1360 H1352 0.950 . S
C1360 C1358 1.391 . S
C1360 C1361 1.400 . S
C1361 C1360 1.400 . S
C1361 C1362 1.398 . S
C1361 C1367 1.491 . S
C1362 H1353 0.950 . S
C1362 C1361 1.398 . S
C1362 C1363 1.391 . S
C1363 H1351 0.950 . S
C1363 C1359 1.393 . S
C1363 C1362 1.391 . S
C1364 H1354 0.950 . S
C1364 C1365 1.386 . S
C1364 C1366 1.391 . S
C1365 C1364 1.386 . S
C1365 C1369 1.393 . S
C1366 H1355 0.950 . S
C1366 C1364 1.391 . S
C1366 C1367 1.400 . S
C1367 C1361 1.491 . S
C1367 C1366 1.400 . S
C1367 C1368 1.398 . S
C1368 H1356 0.950 . S
C1368 C1367 1.398 . S
C1368 C1369 1.391 . S
C1369 H1357 0.950 . S
C1369 C1365 1.393 . S
C1369 C1368 1.391 . S
H1370 C1378 0.950 . S
H1371 C1383 0.950 1_556 S
H1372 C1380 0.950 . S
H1373 C1382 0.950 . S
H1374 C1384 0.950 . S
H1375 C1386 0.950 . S
H1376 C1388 0.950 . S
H1377 C1389 0.950 . S
C1378 H1370 0.950 . S
C1378 C1379 1.386 . S
C1378 C1380 1.391 . S
C1379 C1378 1.386 . S
C1379 C1383 1.393 . S
C1380 H1372 0.950 . S
C1380 C1378 1.391 . S
C1380 C1381 1.400 . S
C1381 C1380 1.400 . S
C1381 C1382 1.398 . S
C1381 C1387 1.491 . S
C1382 H1373 0.950 . S
C1382 C1381 1.398 . S
C1382 C1383 1.391 . S
C1383 H1371 0.950 1_554 S
C1383 C1379 1.393 . S
C1383 C1382 1.391 . S
C1384 H1374 0.950 . S
C1384 C1385 1.386 . S
C1384 C1386 1.391 . S
C1385 C1384 1.386 . S
C1385 C1389 1.393 . S
C1386 H1375 0.950 . S
C1386 C1384 1.391 . S
C1386 C1387 1.400 . S
C1387 C1381 1.491 . S
C1387 C1386 1.400 . S
C1387 C1388 1.398 . S
C1388 H1376 0.950 . S
C1388 C1387 1.398 . S
C1388 C1389 1.391 . S
C1389 H1377 0.950 . S
C1389 C1385 1.393 . S
C1389 C1388 1.391 . S
H1390 C1398 0.950 . S
H1391 C1403 0.950 . S
H1392 C1400 0.950 . S
H1393 C1402 0.950 . S
H1394 C1404 0.950 . S
H1395 C1406 0.950 . S
H1396 C1408 0.950 . S
H1397 C1409 0.950 . S
C1398 H1390 0.950 . S
C1398 C1399 1.386 . S
C1398 C1400 1.391 . S
C1399 C1398 1.386 . S
C1399 C1403 1.393 . S
C1400 H1392 0.950 . S
C1400 C1398 1.391 . S
C1400 C1401 1.400 . S
C1401 C1400 1.400 . S
C1401 C1402 1.398 . S
C1401 C1407 1.491 . S
C1402 H1393 0.950 . S
C1402 C1401 1.398 . S
C1402 C1403 1.391 . S
C1403 H1391 0.950 . S
C1403 C1399 1.393 . S
C1403 C1402 1.391 . S
C1404 H1394 0.950 . S
C1404 C1405 1.386 . S
C1404 C1406 1.391 . S
C1405 C1404 1.386 . S
C1405 C1409 1.393 . S
C1406 H1395 0.950 . S
C1406 C1404 1.391 . S
C1406 C1407 1.400 . S
C1407 C1401 1.491 . S
C1407 C1406 1.400 . S
C1407 C1408 1.398 . S
C1408 H1396 0.950 . S
C1408 C1407 1.398 . S
C1408 C1409 1.391 . S
C1409 H1397 0.950 . S
C1409 C1405 1.393 . S
C1409 C1408 1.391 . S
H1410 C1418 0.950 . S
H1411 C1423 0.950 . S
H1412 C1420 0.950 1_554 S
H1413 C1422 0.950 . S
H1414 C1424 0.950 . S
H1415 C1426 0.950 . S
H1416 C1428 0.950 . S
H1417 C1429 0.950 . S
C1418 H1410 0.950 . S
C1418 C1419 1.386 1_554 S
C1418 C1420 1.391 1_554 S
C1419 C1418 1.386 1_556 S
C1419 C1423 1.393 . S
C1420 H1412 0.950 1_556 S
C1420 C1418 1.391 1_556 S
C1420 C1421 1.400 . S
C1421 C1420 1.400 . S
C1421 C1422 1.398 . S
C1421 C1427 1.491 . S
C1422 H1413 0.950 . S
C1422 C1421 1.398 . S
C1422 C1423 1.391 . S
C1423 H1411 0.950 . S
C1423 C1419 1.393 . S
C1423 C1422 1.391 . S
C1424 H1414 0.950 . S
C1424 C1425 1.386 . S
C1424 C1426 1.391 . S
C1425 C1424 1.386 . S
C1425 C1429 1.393 . S
C1426 H1415 0.950 . S
C1426 C1424 1.391 . S
C1426 C1427 1.400 . S
C1427 C1421 1.491 . S
C1427 C1426 1.400 . S
C1427 C1428 1.398 . S
C1428 H1416 0.950 . S
C1428 C1427 1.398 . S
C1428 C1429 1.391 . S
C1429 H1417 0.950 . S
C1429 C1425 1.393 . S
C1429 C1428 1.391 . S
H1430 C1438 0.950 . S
H1431 C1443 0.950 . S
H1432 C1440 0.950 1_554 S
H1433 C1442 0.950 . S
H1434 C1444 0.950 . S
H1435 C1446 0.950 . S
H1436 C1448 0.950 . S
H1437 C1449 0.950 . S
C1438 H1430 0.950 . S
C1438 C1439 1.386 1_554 S
C1438 C1440 1.391 1_554 S
C1439 C1438 1.386 1_556 S
C1439 C1443 1.393 . S
C1440 H1432 0.950 1_556 S
C1440 C1438 1.391 1_556 S
C1440 C1441 1.400 . S
C1441 C1440 1.400 . S
C1441 C1442 1.398 . S
C1441 C1447 1.491 . S
C1442 H1433 0.950 . S
C1442 C1441 1.398 . S
C1442 C1443 1.391 . S
C1443 H1431 0.950 . S
C1443 C1439 1.393 . S
C1443 C1442 1.391 . S
C1444 H1434 0.950 . S
C1444 C1445 1.386 . S
C1444 C1446 1.391 . S
C1445 C1444 1.386 . S
C1445 C1449 1.393 . S
C1446 H1435 0.950 . S
C1446 C1444 1.391 . S
C1446 C1447 1.400 . S
C1447 C1441 1.491 . S
C1447 C1446 1.400 . S
C1447 C1448 1.398 . S
C1448 H1436 0.950 . S
C1448 C1447 1.398 . S
C1448 C1449 1.391 . S
C1449 H1437 0.950 . S
C1449 C1445 1.393 . S
C1449 C1448 1.391 . S
H1450 C1458 0.950 . S
H1451 C1463 0.950 . S
H1452 C1460 0.950 . S
H1453 C1462 0.950 . S
H1454 C1464 0.950 . S
H1455 C1466 0.950 . S
H1456 C1468 0.950 . S
H1457 C1469 0.950 . S
C1458 H1450 0.950 . S
C1458 C1459 1.386 . S
C1458 C1460 1.391 . S
C1459 C1458 1.386 . S
C1459 C1463 1.393 . S
C1460 H1452 0.950 . S
C1460 C1458 1.391 . S
C1460 C1461 1.400 . S
C1461 C1460 1.400 . S
C1461 C1462 1.398 . S
C1461 C1467 1.491 . S
C1462 H1453 0.950 . S
C1462 C1461 1.398 . S
C1462 C1463 1.391 . S
C1463 H1451 0.950 . S
C1463 C1459 1.393 . S
C1463 C1462 1.391 . S
C1464 H1454 0.950 . S
C1464 C1465 1.386 . S
C1464 C1466 1.391 . S
C1465 C1464 1.386 . S
C1465 C1469 1.393 . S
C1466 H1455 0.950 . S
C1466 C1464 1.391 . S
C1466 C1467 1.400 . S
C1467 C1461 1.491 . S
C1467 C1466 1.400 . S
C1467 C1468 1.398 . S
C1468 H1456 0.950 . S
C1468 C1467 1.398 . S
C1468 C1469 1.391 . S
C1469 H1457 0.950 . S
C1469 C1465 1.393 . S
C1469 C1468 1.391 . S
H1470 C1478 0.950 . S
H1471 C1483 0.950 . S
H1472 C1480 0.950 . S
H1473 C1482 0.950 . S
H1474 C1484 0.950 . S
H1475 C1486 0.950 . S
H1476 C1488 0.950 . S
H1477 C1489 0.950 . S
C1478 H1470 0.950 . S
C1478 C1479 1.386 . S
C1478 C1480 1.391 . S
C1479 C1478 1.386 . S
C1479 C1483 1.393 . S
C1480 H1472 0.950 . S
C1480 C1478 1.391 . S
C1480 C1481 1.400 . S
C1481 C1480 1.400 . S
C1481 C1482 1.398 . S
C1481 C1487 1.491 . S
C1482 H1473 0.950 . S
C1482 C1481 1.398 . S
C1482 C1483 1.391 . S
C1483 H1471 0.950 . S
C1483 C1479 1.393 . S
C1483 C1482 1.391 . S
C1484 H1474 0.950 . S
C1484 C1485 1.386 . S
C1484 C1486 1.391 . S
C1485 C1484 1.386 . S
C1485 C1489 1.393 . S
C1486 H1475 0.950 . S
C1486 C1484 1.391 . S
C1486 C1487 1.400 . S
C1487 C1481 1.491 . S
C1487 C1486 1.400 . S
C1487 C1488 1.398 . S
C1488 H1476 0.950 . S
C1488 C1487 1.398 . S
C1488 C1489 1.391 . S
C1489 H1477 0.950 . S
C1489 C1485 1.393 . S
C1489 C1488 1.391 . S
H1490 C1498 0.950 . S
H1491 C1503 0.950 . S
H1492 C1500 0.950 . S
H1493 C1502 0.950 . S
H1494 C1504 0.950 . S
H1495 C1506 0.950 . S
H1496 C1508 0.950 . S
H1497 C1509 0.950 . S
C1498 H1490 0.950 . S
C1498 C1499 1.386 . S
C1498 C1500 1.391 . S
C1499 C1498 1.386 . S
C1499 C1503 1.393 . S
C1500 H1492 0.950 . S
C1500 C1498 1.391 . S
C1500 C1501 1.400 . S
C1501 C1500 1.400 . S
C1501 C1502 1.398 . S
C1501 C1507 1.491 . S
C1502 H1493 0.950 . S
C1502 C1501 1.398 . S
C1502 C1503 1.391 . S
C1503 H1491 0.950 . S
C1503 C1499 1.393 . S
C1503 C1502 1.391 . S
C1504 H1494 0.950 . S
C1504 C1505 1.386 . S
C1504 C1506 1.391 . S
C1505 C1504 1.386 . S
C1505 C1509 1.393 . S
C1506 H1495 0.950 . S
C1506 C1504 1.391 . S
C1506 C1507 1.400 . S
C1507 C1501 1.491 . S
C1507 C1506 1.400 . S
C1507 C1508 1.398 . S
C1508 H1496 0.950 . S
C1508 C1507 1.398 . S
C1508 C1509 1.391 . S
C1509 H1497 0.950 . S
C1509 C1505 1.393 . S
C1509 C1508 1.391 . S
H1510 C1518 0.950 . S
H1511 C1523 0.955 . S
H1512 C1520 0.950 . S
H1513 C1522 0.950 . S
H1514 C1524 0.950 . S
H1515 C1526 0.950 . S
H1516 C1528 0.950 . S
H1517 C1529 0.950 . S
C1518 H1510 0.950 . S
C1518 C1519 1.386 . S
C1518 C1520 1.391 . S
C1519 C1518 1.386 . S
C1519 C1523 1.390 1_556 S
C1520 H1512 0.950 . S
C1520 C1518 1.391 . S
C1520 C1521 1.400 . S
C1521 C1520 1.400 . S
C1521 C1522 1.398 . S
C1521 C1527 1.491 . S
C1522 H1513 0.950 . S
C1522 C1521 1.398 . S
C1522 C1523 1.388 1_556 S
C1523 H1511 0.955 . S
C1523 C1519 1.390 1_554 S
C1523 C1522 1.388 1_554 S
C1524 H1514 0.950 . S
C1524 C1525 1.386 . S
C1524 C1526 1.391 . S
C1525 C1524 1.386 . S
C1525 C1529 1.393 . S
C1526 H1515 0.950 . S
C1526 C1524 1.391 . S
C1526 C1527 1.400 . S
C1527 C1521 1.491 . S
C1527 C1526 1.400 . S
C1527 C1528 1.398 . S
C1528 H1516 0.950 . S
C1528 C1527 1.398 . S
C1528 C1529 1.391 . S
C1529 H1517 0.950 . S
C1529 C1525 1.393 . S
C1529 C1528 1.391 . S
H1530 C1538 0.950 . S
H1531 C1543 0.952 1_556 S
H1532 C1540 0.950 . S
H1533 C1542 0.950 . S
H1534 C1544 0.950 . S
H1535 C1546 0.950 . S
H1536 C1548 0.950 . S
H1537 C1549 0.950 . S
C1538 H1530 0.950 . S
C1538 C1539 1.386 . S
C1538 C1540 1.391 . S
C1539 C1538 1.386 . S
C1539 C1543 1.393 . S
C1540 H1532 0.950 . S
C1540 C1538 1.391 . S
C1540 C1541 1.400 . S
C1541 C1540 1.400 . S
C1541 C1542 1.398 . S
C1541 C1547 1.491 . S
C1542 H1533 0.950 . S
C1542 C1541 1.398 . S
C1542 C1543 1.391 . S
C1543 H1531 0.952 1_554 S
C1543 C1539 1.393 . S
C1543 C1542 1.391 . S
C1544 H1534 0.950 . S
C1544 C1545 1.386 . S
C1544 C1546 1.391 . S
C1545 C1544 1.386 . S
C1545 C1549 1.393 . S
C1546 H1535 0.950 . S
C1546 C1544 1.391 . S
C1546 C1547 1.400 . S
C1547 C1541 1.491 . S
C1547 C1546 1.400 . S
C1547 C1548 1.398 . S
C1548 H1536 0.950 . S
C1548 C1547 1.398 . S
C1548 C1549 1.391 . S
C1549 H1537 0.950 . S
C1549 C1545 1.393 . S
C1549 C1548 1.391 . S
H1550 C1558 0.950 . S
H1551 C1563 0.950 1_556 S
H1552 C1560 0.950 . S
H1553 C1562 0.950 . S
H1554 C1564 0.950 . S
H1555 C1566 0.950 . S
H1556 C1568 0.950 . S
H1557 C1569 0.950 . S
C1558 H1550 0.950 . S
C1558 C1559 1.386 . S
C1558 C1560 1.391 . S
C1559 C1558 1.386 . S
C1559 C1563 1.393 . S
C1560 H1552 0.950 . S
C1560 C1558 1.391 . S
C1560 C1561 1.400 . S
C1561 C1560 1.400 . S
C1561 C1562 1.398 . S
C1561 C1567 1.491 . S
C1562 H1553 0.950 . S
C1562 C1561 1.398 . S
C1562 C1563 1.391 . S
C1563 H1551 0.950 1_554 S
C1563 C1559 1.393 . S
C1563 C1562 1.391 . S
C1564 H1554 0.950 . S
C1564 C1565 1.386 . S
C1564 C1566 1.391 . S
C1565 C1564 1.386 . S
C1565 C1569 1.393 . S
C1566 H1555 0.950 . S
C1566 C1564 1.391 . S
C1566 C1567 1.400 . S
C1567 C1561 1.491 . S
C1567 C1566 1.400 . S
C1567 C1568 1.398 . S
C1568 H1556 0.950 . S
C1568 C1567 1.398 . S
C1568 C1569 1.391 . S
C1569 H1557 0.950 . S
C1569 C1565 1.393 . S
C1569 C1568 1.391 . S
H1570 C1578 0.950 . S
H1571 C1583 0.950 . S
H1572 C1580 0.950 . S
H1573 C1582 0.950 . S
H1574 C1584 0.950 . S
H1575 C1586 0.950 . S
H1576 C1588 0.950 . S
H1577 C1589 0.950 . S
C1578 H1570 0.950 . S
C1578 C1579 1.386 . S
C1578 C1580 1.391 . S
C1579 C1578 1.386 . S
C1579 C1583 1.393 . S
C1580 H1572 0.950 . S
C1580 C1578 1.391 . S
C1580 C1581 1.400 . S
C1581 C1580 1.400 . S
C1581 C1582 1.398 . S
C1581 C1587 1.491 . S
C1582 H1573 0.950 . S
C1582 C1581 1.398 . S
C1582 C1583 1.391 . S
C1583 H1571 0.950 . S
C1583 C1579 1.393 . S
C1583 C1582 1.391 . S
C1584 H1574 0.950 . S
C1584 C1585 1.386 . S
C1584 C1586 1.391 . S
C1585 C1584 1.386 . S
C1585 C1589 1.393 . S
C1586 H1575 0.950 . S
C1586 C1584 1.391 . S
C1586 C1587 1.400 . S
C1587 C1581 1.491 . S
C1587 C1586 1.400 . S
C1587 C1588 1.398 . S
C1588 H1576 0.950 . S
C1588 C1587 1.398 . S
C1588 C1589 1.391 . S
C1589 H1577 0.950 . S
C1589 C1585 1.393 . S
C1589 C1588 1.391 . S
H1590 C1598 0.950 . S
H1591 C1603 0.950 . S
H1592 C1600 0.950 . S
H1593 C1602 0.950 . S
H1594 C1604 0.950 . S
H1595 C1606 0.950 . S
H1596 C1608 0.950 . S
H1597 C1609 0.950 . S
C1598 H1590 0.950 . S
C1598 C1599 1.386 . S
C1598 C1600 1.391 . S
C1599 C1598 1.386 . S
C1599 C1603 1.393 . S
C1600 H1592 0.950 . S
C1600 C1598 1.391 . S
C1600 C1601 1.400 . S
C1601 C1600 1.400 . S
C1601 C1602 1.398 . S
C1601 C1607 1.491 . S
C1602 H1593 0.950 . S
C1602 C1601 1.398 . S
C1602 C1603 1.391 . S
C1603 H1591 0.950 . S
C1603 C1599 1.393 . S
C1603 C1602 1.391 . S
C1604 H1594 0.950 . S
C1604 C1605 1.386 . S
C1604 C1606 1.391 . S
C1605 C1604 1.386 . S
C1605 C1609 1.393 . S
C1606 H1595 0.950 . S
C1606 C1604 1.391 . S
C1606 C1607 1.400 . S
C1607 C1601 1.491 . S
C1607 C1606 1.400 . S
C1607 C1608 1.398 . S
C1608 H1596 0.950 . S
C1608 C1607 1.398 . S
C1608 C1609 1.391 . S
C1609 H1597 0.950 . S
C1609 C1605 1.393 . S
C1609 C1608 1.391 . S
H1610 C1618 0.950 . S
H1611 C1623 0.950 . S
H1612 C1620 0.950 . S
H1613 C1622 0.950 . S
H1614 C1624 0.950 . S
H1615 C1626 0.950 . S
H1616 C1628 0.950 . S
H1617 C1629 0.950 . S
C1618 H1610 0.950 . S
C1618 C1619 1.386 . S
C1618 C1620 1.391 . S
C1619 C1618 1.386 . S
C1619 C1623 1.393 . S
C1620 H1612 0.950 . S
C1620 C1618 1.391 . S
C1620 C1621 1.400 . S
C1621 C1620 1.400 . S
C1621 C1622 1.398 . S
C1621 C1627 1.491 . S
C1622 H1613 0.950 . S
C1622 C1621 1.398 . S
C1622 C1623 1.391 . S
C1623 H1611 0.950 . S
C1623 C1619 1.393 . S
C1623 C1622 1.391 . S
C1624 H1614 0.950 . S
C1624 C1625 1.386 . S
C1624 C1626 1.391 . S
C1625 C1624 1.386 . S
C1625 C1629 1.393 . S
C1626 H1615 0.950 . S
C1626 C1624 1.391 . S
C1626 C1627 1.400 . S
C1627 C1621 1.491 . S
C1627 C1626 1.400 . S
C1627 C1628 1.398 . S
C1628 H1616 0.950 . S
C1628 C1627 1.398 . S
C1628 C1629 1.391 . S
C1629 H1617 0.950 . S
C1629 C1625 1.393 . S
C1629 C1628 1.391 . S
H1630 C1638 0.950 . S
H1631 C1643 0.950 . S
H1632 C1640 0.950 . S
H1633 C1642 0.950 . S
H1634 C1644 0.950 . S
H1635 C1646 0.950 . S
H1636 C1648 0.950 . S
H1637 C1649 0.950 . S
C1638 H1630 0.950 . S
C1638 C1639 1.386 . S
C1638 C1640 1.391 . S
C1639 C1638 1.386 . S
C1639 C1643 1.393 . S
C1640 H1632 0.950 . S
C1640 C1638 1.391 . S
C1640 C1641 1.400 . S
C1641 C1640 1.400 . S
C1641 C1642 1.398 . S
C1641 C1647 1.491 . S
C1642 H1633 0.950 . S
C1642 C1641 1.398 . S
C1642 C1643 1.391 . S
C1643 H1631 0.950 . S
C1643 C1639 1.393 . S
C1643 C1642 1.391 . S
C1644 H1634 0.950 . S
C1644 C1645 1.386 . S
C1644 C1646 1.391 . S
C1645 C1644 1.386 . S
C1645 C1649 1.393 . S
C1646 H1635 0.950 . S
C1646 C1644 1.391 . S
C1646 C1647 1.400 . S
C1647 C1641 1.491 . S
C1647 C1646 1.400 . S
C1647 C1648 1.398 . S
C1648 H1636 0.950 . S
C1648 C1647 1.398 . S
C1648 C1649 1.391 . S
C1649 H1637 0.950 . S
C1649 C1645 1.393 . S
C1649 C1648 1.391 . S
H1650 C1658 0.945 1_655 S
H1651 C1663 0.950 . S
H1652 C1660 0.950 1_655 S
H1653 C1662 0.950 . S
H1654 C1664 0.950 . S
H1655 C1666 0.950 . S
H1656 C1668 0.950 . S
H1657 C1669 0.950 . S
C1658 H1650 0.945 1_455 S
C1658 C1659 1.386 . S
C1658 C1660 1.391 . S
C1659 C1658 1.386 . S
C1659 C1663 1.393 . S
C1660 H1652 0.950 1_455 S
C1660 C1658 1.391 . S
C1660 C1661 1.400 . S
C1661 C1660 1.400 . S
C1661 C1662 1.398 . S
C1661 C1667 1.491 . S
C1662 H1653 0.950 . S
C1662 C1661 1.398 . S
C1662 C1663 1.391 . S
C1663 H1651 0.950 . S
C1663 C1659 1.393 . S
C1663 C1662 1.391 . S
C1664 H1654 0.950 . S
C1664 C1665 1.386 . S
C1664 C1666 1.391 . S
C1665 C1664 1.386 . S
C1665 C1669 1.393 1_455 S
C1666 H1655 0.950 . S
C1666 C1664 1.391 . S
C1666 C1667 1.400 . S
C1667 C1661 1.491 . S
C1667 C1666 1.400 . S
C1667 C1668 1.398 1_455 S
C1668 H1656 0.950 . S
C1668 C1667 1.398 1_655 S
C1668 C1669 1.391 . S
C1669 H1657 0.950 . S
C1669 C1665 1.393 1_655 S
C1669 C1668 1.391 . S
H1670 C1678 0.950 . S
H1671 C1683 0.950 . S
H1672 C1680 0.950 . S
H1673 C1682 0.950 . S
H1674 C1684 0.950 . S
H1675 C1686 0.950 . S
H1676 C1688 0.950 . S
H1677 C1689 0.950 . S
C1678 H1670 0.950 . S
C1678 C1679 1.386 . S
C1678 C1680 1.391 . S
C1679 C1678 1.386 . S
C1679 C1683 1.393 . S
C1680 H1672 0.950 . S
C1680 C1678 1.391 . S
C1680 C1681 1.400 . S
C1681 C1680 1.400 . S
C1681 C1682 1.398 . S
C1681 C1687 1.491 . S
C1682 H1673 0.950 . S
C1682 C1681 1.398 . S
C1682 C1683 1.391 . S
C1683 H1671 0.950 . S
C1683 C1679 1.393 . S
C1683 C1682 1.391 . S
C1684 H1674 0.950 . S
C1684 C1685 1.386 . S
C1684 C1686 1.391 . S
C1685 C1684 1.386 . S
C1685 C1689 1.393 . S
C1686 H1675 0.950 . S
C1686 C1684 1.391 . S
C1686 C1687 1.400 . S
C1687 C1681 1.491 . S
C1687 C1686 1.400 . S
C1687 C1688 1.398 . S
C1688 H1676 0.950 . S
C1688 C1687 1.398 . S
C1688 C1689 1.391 . S
C1689 H1677 0.950 . S
C1689 C1685 1.393 . S
C1689 C1688 1.391 . S
H1690 C1698 0.950 . S
H1691 C1703 0.966 . S
H1692 C1700 0.950 . S
H1693 C1702 0.950 . S
H1694 C1704 0.950 . S
H1695 C1706 0.950 . S
H1696 C1708 0.950 . S
H1697 C1709 0.950 . S
C1698 H1690 0.950 . S
C1698 C1699 1.386 . S
C1698 C1700 1.391 . S
C1699 C1698 1.386 . S
C1699 C1703 1.386 1_565 S
C1700 H1692 0.950 . S
C1700 C1698 1.391 . S
C1700 C1701 1.400 . S
C1701 C1700 1.400 . S
C1701 C1702 1.398 1_565 S
C1701 C1707 1.491 . S
C1702 H1693 0.950 . S
C1702 C1701 1.398 1_545 S
C1702 C1703 1.382 . S
C1703 H1691 0.966 . S
C1703 C1699 1.386 1_545 S
C1703 C1702 1.382 . S
C1704 H1694 0.950 . S
C1704 C1705 1.386 1_545 S
C1704 C1706 1.391 . S
C1705 C1704 1.386 1_565 S
C1705 C1709 1.393 . S
C1706 H1695 0.950 . S
C1706 C1704 1.391 . S
C1706 C1707 1.400 1_545 S
C1707 C1701 1.491 . S
C1707 C1706 1.400 1_565 S
C1707 C1708 1.398 . S
C1708 H1696 0.950 . S
C1708 C1707 1.398 . S
C1708 C1709 1.391 . S
C1709 H1697 0.950 . S
C1709 C1705 1.393 . S
C1709 C1708 1.391 . S
H1710 C1718 0.950 . S
H1711 C1723 0.950 . S
H1712 C1720 0.920 1_545 S
H1713 C1722 0.950 . S
H1714 C1724 0.950 . S
H1715 C1726 0.950 . S
H1716 C1728 0.950 . S
H1717 C1729 0.950 . S
C1718 H1710 0.950 . S
C1718 C1719 1.386 . S
C1718 C1720 1.391 . S
C1719 C1718 1.386 . S
C1719 C1723 1.393 . S
C1720 H1712 0.920 1_565 S
C1720 C1718 1.391 . S
C1720 C1721 1.400 . S
C1721 C1720 1.400 . S
C1721 C1722 1.398 . S
C1721 C1727 1.491 . S
C1722 H1713 0.950 . S
C1722 C1721 1.398 . S
C1722 C1723 1.391 . S
C1723 H1711 0.950 . S
C1723 C1719 1.393 . S
C1723 C1722 1.391 . S
C1724 H1714 0.950 . S
C1724 C1725 1.386 . S
C1724 C1726 1.391 . S
C1725 C1724 1.386 . S
C1725 C1729 1.393 1_565 S
C1726 H1715 0.950 . S
C1726 C1724 1.391 . S
C1726 C1727 1.400 . S
C1727 C1721 1.491 . S
C1727 C1726 1.400 . S
C1727 C1728 1.398 1_565 S
C1728 H1716 0.950 . S
C1728 C1727 1.398 1_545 S
C1728 C1729 1.391 . S
C1729 H1717 0.950 . S
C1729 C1725 1.393 1_545 S
C1729 C1728 1.391 . S
H1730 C1738 0.950 . S
H1731 C1743 0.950 . S
H1732 C1740 0.950 1_655 S
H1733 C1742 0.950 . S
H1734 C1744 0.950 . S
H1735 C1746 0.950 . S
H1736 C1748 0.950 . S
H1737 C1749 0.950 . S
C1738 H1730 0.950 . S
C1738 C1739 1.386 . S
C1738 C1740 1.391 . S
C1739 C1738 1.386 . S
C1739 C1743 1.393 . S
C1740 H1732 0.950 1_455 S
C1740 C1738 1.391 . S
C1740 C1741 1.400 . S
C1741 C1740 1.400 . S
C1741 C1742 1.398 . S
C1741 C1747 1.491 . S
C1742 H1733 0.950 . S
C1742 C1741 1.398 . S
C1742 C1743 1.391 . S
C1743 H1731 0.950 . S
C1743 C1739 1.393 . S
C1743 C1742 1.391 . S
C1744 H1734 0.950 . S
C1744 C1745 1.386 . S
C1744 C1746 1.391 . S
C1745 C1744 1.386 . S
C1745 C1749 1.393 1_455 S
C1746 H1735 0.950 . S
C1746 C1744 1.391 . S
C1746 C1747 1.400 . S
C1747 C1741 1.491 . S
C1747 C1746 1.400 . S
C1747 C1748 1.398 1_455 S
C1748 H1736 0.950 . S
C1748 C1747 1.398 1_655 S
C1748 C1749 1.391 . S
C1749 H1737 0.950 . S
C1749 C1745 1.393 1_655 S
C1749 C1748 1.391 . S
H1750 C1758 0.950 . S
H1751 C1763 0.950 . S
H1752 C1760 0.950 . S
H1753 C1762 0.950 . S
H1754 C1764 0.950 . S
H1755 C1766 0.950 . S
H1756 C1768 0.950 . S
H1757 C1769 0.950 . S
C1758 H1750 0.950 . S
C1758 C1759 1.386 . S
C1758 C1760 1.391 . S
C1759 C1758 1.386 . S
C1759 C1763 1.393 . S
C1760 H1752 0.950 . S
C1760 C1758 1.391 . S
C1760 C1761 1.400 . S
C1761 C1760 1.400 . S
C1761 C1762 1.398 . S
C1761 C1767 1.491 . S
C1762 H1753 0.950 . S
C1762 C1761 1.398 . S
C1762 C1763 1.391 . S
C1763 H1751 0.950 . S
C1763 C1759 1.393 . S
C1763 C1762 1.391 . S
C1764 H1754 0.950 . S
C1764 C1765 1.386 . S
C1764 C1766 1.391 . S
C1765 C1764 1.386 . S
C1765 C1769 1.393 . S
C1766 H1755 0.950 . S
C1766 C1764 1.391 . S
C1766 C1767 1.400 . S
C1767 C1761 1.491 . S
C1767 C1766 1.400 . S
C1767 C1768 1.398 . S
C1768 H1756 0.950 . S
C1768 C1767 1.398 . S
C1768 C1769 1.391 . S
C1769 H1757 0.950 . S
C1769 C1765 1.393 . S
C1769 C1768 1.391 . S
H1770 C1778 0.950 . S
H1771 C1783 0.950 . S
H1772 C1780 0.950 . S
H1773 C1782 0.950 . S
H1774 C1784 0.950 . S
H1775 C1786 0.950 . S
H1776 C1788 0.950 . S
H1777 C1789 0.950 . S
C1778 H1770 0.950 . S
C1778 C1779 1.386 . S
C1778 C1780 1.391 . S
C1779 C1778 1.386 . S
C1779 C1783 1.393 . S
C1780 H1772 0.950 . S
C1780 C1778 1.391 . S
C1780 C1781 1.400 . S
C1781 C1780 1.400 . S
C1781 C1782 1.398 . S
C1781 C1787 1.491 . S
C1782 H1773 0.950 . S
C1782 C1781 1.398 . S
C1782 C1783 1.391 . S
C1783 H1771 0.950 . S
C1783 C1779 1.393 . S
C1783 C1782 1.391 . S
C1784 H1774 0.950 . S
C1784 C1785 1.386 . S
C1784 C1786 1.391 . S
C1785 C1784 1.386 . S
C1785 C1789 1.393 . S
C1786 H1775 0.950 . S
C1786 C1784 1.391 . S
C1786 C1787 1.400 . S
C1787 C1781 1.491 . S
C1787 C1786 1.400 . S
C1787 C1788 1.398 . S
C1788 H1776 0.950 . S
C1788 C1787 1.398 . S
C1788 C1789 1.391 . S
C1789 H1777 0.950 . S
C1789 C1785 1.393 . S
C1789 C1788 1.391 . S
H1790 C1798 0.950 . S
H1791 C1803 0.950 . S
H1792 C1800 0.950 . S
H1793 C1802 0.950 . S
H1794 C1804 0.950 . S
H1795 C1806 0.950 . S
H1796 C1808 0.950 . S
H1797 C1809 0.950 . S
C1798 H1790 0.950 . S
C1798 C1799 1.386 . S
C1798 C1800 1.391 . S
C1799 C1798 1.386 . S
C1799 C1803 1.393 . S
C1800 H1792 0.950 . S
C1800 C1798 1.391 . S
C1800 C1801 1.400 . S
C1801 C1800 1.400 . S
C1801 C1802 1.398 . S
C1801 C1807 1.491 . S
C1802 H1793 0.950 . S
C1802 C1801 1.398 . S
C1802 C1803 1.391 . S
C1803 H1791 0.950 . S
C1803 C1799 1.393 . S
C1803 C1802 1.391 . S
C1804 H1794 0.950 . S
C1804 C1805 1.386 . S
C1804 C1806 1.391 . S
C1805 C1804 1.386 . S
C1805 C1809 1.393 . S
C1806 H1795 0.950 . S
C1806 C1804 1.391 . S
C1806 C1807 1.400 . S
C1807 C1801 1.491 . S
C1807 C1806 1.400 . S
C1807 C1808 1.398 . S
C1808 H1796 0.950 . S
C1808 C1807 1.398 . S
C1808 C1809 1.391 . S
C1809 H1797 0.950 . S
C1809 C1805 1.393 . S
C1809 C1808 1.391 . S
H1810 C1818 0.950 . S
H1811 C1823 0.950 . S
H1812 C1820 0.950 . S
H1813 C1822 0.950 . S
H1814 C1824 0.950 . S
H1815 C1826 0.950 . S
H1816 C1828 0.950 . S
H1817 C1829 0.950 . S
C1818 H1810 0.950 . S
C1818 C1819 1.386 . S
C1818 C1820 1.391 . S
C1819 C1818 1.386 . S
C1819 C1823 1.393 . S
C1820 H1812 0.950 . S
C1820 C1818 1.391 . S
C1820 C1821 1.400 . S
C1821 C1820 1.400 . S
C1821 C1822 1.398 . S
C1821 C1827 1.491 . S
C1822 H1813 0.950 . S
C1822 C1821 1.398 . S
C1822 C1823 1.391 . S
C1823 H1811 0.950 . S
C1823 C1819 1.393 . S
C1823 C1822 1.391 . S
C1824 H1814 0.950 . S
C1824 C1825 1.386 . S
C1824 C1826 1.391 . S
C1825 C1824 1.386 . S
C1825 C1829 1.393 . S
C1826 H1815 0.950 . S
C1826 C1824 1.391 . S
C1826 C1827 1.400 . S
C1827 C1821 1.491 . S
C1827 C1826 1.400 . S
C1827 C1828 1.398 . S
C1828 H1816 0.950 . S
C1828 C1827 1.398 . S
C1828 C1829 1.391 . S
C1829 H1817 0.950 . S
C1829 C1825 1.393 . S
C1829 C1828 1.391 . S
H1830 C1838 0.950 . S
H1831 C1843 0.950 1_565 S
H1832 C1840 0.950 . S
H1833 C1842 0.950 1_565 S
H1834 C1844 0.950 . S
H1835 C1846 0.950 . S
H1836 C1848 0.950 . S
H1837 C1849 0.950 . S
C1838 H1830 0.950 . S
C1838 C1839 1.386 . S
C1838 C1840 1.391 . S
C1839 C1838 1.386 . S
C1839 C1843 1.393 . S
C1840 H1832 0.950 . S
C1840 C1838 1.391 . S
C1840 C1841 1.400 . S
C1841 C1840 1.400 . S
C1841 C1842 1.398 . S
C1841 C1847 1.491 . S
C1842 H1833 0.950 1_545 S
C1842 C1841 1.398 . S
C1842 C1843 1.391 . S
C1843 H1831 0.950 1_545 S
C1843 C1839 1.393 . S
C1843 C1842 1.391 . S
C1844 H1834 0.950 . S
C1844 C1845 1.386 1_565 S
C1844 C1846 1.391 . S
C1845 C1844 1.386 1_545 S
C1845 C1849 1.393 . S
C1846 H1835 0.950 . S
C1846 C1844 1.391 . S
C1846 C1847 1.400 1_565 S
C1847 C1841 1.491 . S
C1847 C1846 1.400 1_545 S
C1847 C1848 1.398 . S
C1848 H1836 0.950 . S
C1848 C1847 1.398 . S
C1848 C1849 1.391 . S
C1849 H1837 0.950 . S
C1849 C1845 1.393 . S
C1849 C1848 1.391 . S
H1850 C1858 0.950 . S
H1851 C1863 0.950 . S
H1852 C1860 0.950 . S
H1853 C1862 0.950 . S
H1854 C1864 0.950 . S
H1855 C1866 0.950 . S
H1856 C1868 0.950 . S
H1857 C1869 0.950 . S
C1858 H1850 0.950 . S
C1858 C1859 1.386 . S
C1858 C1860 1.391 . S
C1859 C1858 1.386 . S
C1859 C1863 1.393 1_655 S
C1860 H1852 0.950 . S
C1860 C1858 1.391 . S
C1860 C1861 1.400 . S
C1861 C1860 1.400 . S
C1861 C1862 1.398 1_655 S
C1861 C1867 1.491 . S
C1862 H1853 0.950 . S
C1862 C1861 1.398 1_455 S
C1862 C1863 1.391 . S
C1863 H1851 0.950 . S
C1863 C1859 1.393 1_455 S
C1863 C1862 1.391 . S
C1864 H1854 0.950 . S
C1864 C1865 1.386 1_455 S
C1864 C1866 1.391 . S
C1865 C1864 1.386 1_655 S
C1865 C1869 1.393 . S
C1866 H1855 0.950 . S
C1866 C1864 1.391 . S
C1866 C1867 1.400 1_455 S
C1867 C1861 1.491 . S
C1867 C1866 1.400 1_655 S
C1867 C1868 1.398 . S
C1868 H1856 0.950 . S
C1868 C1867 1.398 . S
C1868 C1869 1.391 . S
C1869 H1857 0.950 . S
C1869 C1865 1.393 . S
C1869 C1868 1.391 . S
H1870 C1878 0.950 . S
H1871 C1883 0.950 . S
H1872 C1880 0.950 . S
H1873 C1882 0.950 . S
H1874 C1884 0.950 . S
H1875 C1886 0.950 . S
H1876 C1888 0.950 . S
H1877 C1889 0.950 . S
C1878 H1870 0.950 . S
C1878 C1879 1.386 . S
C1878 C1880 1.391 . S
C1879 C1878 1.386 . S
C1879 C1883 1.393 . S
C1880 H1872 0.950 . S
C1880 C1878 1.391 . S
C1880 C1881 1.400 . S
C1881 C1880 1.400 . S
C1881 C1882 1.398 . S
C1881 C1887 1.491 . S
C1882 H1873 0.950 . S
C1882 C1881 1.398 . S
C1882 C1883 1.391 . S
C1883 H1871 0.950 . S
C1883 C1879 1.393 . S
C1883 C1882 1.391 . S
C1884 H1874 0.950 . S
C1884 C1885 1.386 . S
C1884 C1886 1.391 . S
C1885 C1884 1.386 . S
C1885 C1889 1.393 . S
C1886 H1875 0.950 . S
C1886 C1884 1.391 . S
C1886 C1887 1.400 . S
C1887 C1881 1.491 . S
C1887 C1886 1.400 . S
C1887 C1888 1.398 . S
C1888 H1876 0.950 . S
C1888 C1887 1.398 . S
C1888 C1889 1.391 . S
C1889 H1877 0.950 . S
C1889 C1885 1.393 . S
C1889 C1888 1.391 . S
H1890 C1898 0.950 . S
H1891 C1903 0.950 . S
H1892 C1900 0.950 . S
H1893 C1902 0.950 . S
H1894 C1904 0.950 . S
H1895 C1906 0.950 . S
H1896 C1908 0.950 . S
H1897 C1909 0.950 . S
C1898 H1890 0.950 . S
C1898 C1899 1.386 . S
C1898 C1900 1.391 . S
C1899 C1898 1.386 . S
C1899 C1903 1.393 . S
C1900 H1892 0.950 . S
C1900 C1898 1.391 . S
C1900 C1901 1.400 . S
C1901 C1900 1.400 . S
C1901 C1902 1.398 . S
C1901 C1907 1.491 . S
C1902 H1893 0.950 . S
C1902 C1901 1.398 . S
C1902 C1903 1.391 . S
C1903 H1891 0.950 . S
C1903 C1899 1.393 . S
C1903 C1902 1.391 . S
C1904 H1894 0.950 . S
C1904 C1905 1.386 . S
C1904 C1906 1.391 . S
C1905 C1904 1.386 . S
C1905 C1909 1.393 . S
C1906 H1895 0.950 . S
C1906 C1904 1.391 . S
C1906 C1907 1.400 . S
C1907 C1901 1.491 . S
C1907 C1906 1.400 . S
C1907 C1908 1.398 . S
C1908 H1896 0.950 . S
C1908 C1907 1.398 . S
C1908 C1909 1.391 . S
C1909 H1897 0.950 . S
C1909 C1905 1.393 . S
C1909 C1908 1.391 . S
H1910 C1918 0.950 . S
H1911 C1923 0.950 . S
H1912 C1920 0.950 . S
H1913 C1922 0.950 . S
H1914 C1924 0.950 . S
H1915 C1926 0.950 . S
H1916 C1928 0.950 . S
H1917 C1929 0.950 . S
C1918 H1910 0.950 . S
C1918 C1919 1.386 . S
C1918 C1920 1.391 . S
C1919 C1918 1.386 . S
C1919 C1923 1.393 . S
C1920 H1912 0.950 . S
C1920 C1918 1.391 . S
C1920 C1921 1.400 . S
C1921 C1920 1.400 . S
C1921 C1922 1.398 . S
C1921 C1927 1.491 . S
C1922 H1913 0.950 . S
C1922 C1921 1.398 . S
C1922 C1923 1.391 . S
C1923 H1911 0.950 . S
C1923 C1919 1.393 . S
C1923 C1922 1.391 . S
C1924 H1914 0.950 . S
C1924 C1925 1.386 . S
C1924 C1926 1.391 . S
C1925 C1924 1.386 . S
C1925 C1929 1.393 . S
C1926 H1915 0.950 . S
C1926 C1924 1.391 . S
C1926 C1927 1.400 . S
C1927 C1921 1.491 . S
C1927 C1926 1.400 . S
C1927 C1928 1.398 . S
C1928 H1916 0.950 . S
C1928 C1927 1.398 . S
C1928 C1929 1.391 . S
C1929 H1917 0.950 . S
C1929 C1925 1.393 . S
C1929 C1928 1.391 . S
H1930 C1938 0.950 . S
H1931 C1943 0.950 . S
H1932 C1940 0.950 . S
H1933 C1942 0.950 . S
H1934 C1944 0.950 . S
H1935 C1946 0.950 . S
H1936 C1948 0.950 . S
H1937 C1949 0.950 . S
C1938 H1930 0.950 . S
C1938 C1939 1.386 . S
C1938 C1940 1.391 . S
C1939 C1938 1.386 . S
C1939 C1943 1.393 . S
C1940 H1932 0.950 . S
C1940 C1938 1.391 . S
C1940 C1941 1.400 . S
C1941 C1940 1.400 . S
C1941 C1942 1.398 . S
C1941 C1947 1.491 . S
C1942 H1933 0.950 . S
C1942 C1941 1.398 . S
C1942 C1943 1.391 . S
C1943 H1931 0.950 . S
C1943 C1939 1.393 . S
C1943 C1942 1.391 . S
C1944 H1934 0.950 . S
C1944 C1945 1.386 . S
C1944 C1946 1.391 . S
C1945 C1944 1.386 . S
C1945 C1949 1.393 . S
C1946 H1935 0.950 . S
C1946 C1944 1.391 . S
C1946 C1947 1.400 . S
C1947 C1941 1.491 . S
C1947 C1946 1.400 . S
C1947 C1948 1.398 . S
C1948 H1936 0.950 . S
C1948 C1947 1.398 . S
C1948 C1949 1.391 . S
C1949 H1937 0.950 . S
C1949 C1945 1.393 . S
C1949 C1948 1.391 . S
H1950 C1958 0.950 . S
H1951 C1963 0.950 . S
H1952 C1960 0.950 . S
H1953 C1962 0.950 . S
H1954 C1964 0.950 . S
H1955 C1966 0.950 . S
H1956 C1968 0.950 . S
H1957 C1969 0.950 . S
C1958 H1950 0.950 . S
C1958 C1959 1.386 . S
C1958 C1960 1.391 . S
C1959 C1958 1.386 . S
C1959 C1963 1.393 . S
C1960 H1952 0.950 . S
C1960 C1958 1.391 . S
C1960 C1961 1.400 . S
C1961 C1960 1.400 . S
C1961 C1962 1.398 . S
C1961 C1967 1.491 . S
C1962 H1953 0.950 . S
C1962 C1961 1.398 . S
C1962 C1963 1.391 . S
C1963 H1951 0.950 . S
C1963 C1959 1.393 . S
C1963 C1962 1.391 . S
C1964 H1954 0.950 . S
C1964 C1965 1.386 . S
C1964 C1966 1.391 . S
C1965 C1964 1.386 . S
C1965 C1969 1.393 . S
C1966 H1955 0.950 . S
C1966 C1964 1.391 . S
C1966 C1967 1.400 . S
C1967 C1961 1.491 . S
C1967 C1966 1.400 . S
C1967 C1968 1.398 . S
C1968 H1956 0.950 . S
C1968 C1967 1.398 . S
C1968 C1969 1.391 . S
C1969 H1957 0.950 . S
C1969 C1965 1.393 . S
C1969 C1968 1.391 . S
H1970 C1978 0.950 . S
H1971 C1983 0.950 . S
H1972 C1980 0.950 . S
H1973 C1982 0.950 . S
H1974 C1984 0.950 . S
H1975 C1986 0.950 . S
H1976 C1988 0.950 . S
H1977 C1989 0.950 . S
C1978 H1970 0.950 . S
C1978 C1979 1.386 . S
C1978 C1980 1.391 . S
C1979 C1978 1.386 . S
C1979 C1983 1.393 . S
C1980 H1972 0.950 . S
C1980 C1978 1.391 . S
C1980 C1981 1.400 . S
C1981 C1980 1.400 . S
C1981 C1982 1.398 . S
C1981 C1987 1.491 . S
C1982 H1973 0.950 . S
C1982 C1981 1.398 . S
C1982 C1983 1.391 . S
C1983 H1971 0.950 . S
C1983 C1979 1.393 . S
C1983 C1982 1.391 . S
C1984 H1974 0.950 . S
C1984 C1985 1.386 . S
C1984 C1986 1.391 . S
C1985 C1984 1.386 . S
C1985 C1989 1.393 . S
C1986 H1975 0.950 . S
C1986 C1984 1.391 . S
C1986 C1987 1.400 . S
C1987 C1981 1.491 . S
C1987 C1986 1.400 . S
C1987 C1988 1.398 . S
C1988 H1976 0.950 . S
C1988 C1987 1.398 . S
C1988 C1989 1.391 . S
C1989 H1977 0.950 . S
C1989 C1985 1.393 . S
C1989 C1988 1.391 . S
H1990 C1998 0.950 . S
H1991 C2003 0.950 . S
H1992 C2000 0.950 . S
H1993 C2002 0.950 . S
H1994 C2004 0.950 . S
H1995 C2006 0.950 . S
H1996 C2008 0.950 . S
H1997 C2009 0.950 . S
C1998 H1990 0.950 . S
C1998 C1999 1.386 . S
C1998 C2000 1.391 . S
C1999 C1998 1.386 . S
C1999 C2003 1.393 . S
C2000 H1992 0.950 . S
C2000 C1998 1.391 . S
C2000 C2001 1.400 . S
C2001 C2000 1.400 . S
C2001 C2002 1.398 . S
C2001 C2007 1.491 . S
C2002 H1993 0.950 . S
C2002 C2001 1.398 . S
C2002 C2003 1.391 . S
C2003 H1991 0.950 . S
C2003 C1999 1.393 . S
C2003 C2002 1.391 . S
C2004 H1994 0.950 . S
C2004 C2005 1.386 . S
C2004 C2006 1.391 . S
C2005 C2004 1.386 . S
C2005 C2009 1.393 . S
C2006 H1995 0.950 . S
C2006 C2004 1.391 . S
C2006 C2007 1.400 . S
C2007 C2001 1.491 . S
C2007 C2006 1.400 . S
C2007 C2008 1.398 . S
C2008 H1996 0.950 . S
C2008 C2007 1.398 . S
C2008 C2009 1.391 . S
C2009 H1997 0.950 . S
C2009 C2005 1.393 . S
C2009 C2008 1.391 . S
H2010 C2018 0.950 . S
H2011 C2023 0.950 . S
H2012 C2020 0.950 . S
H2013 C2022 0.950 . S
H2014 C2024 0.950 . S
H2015 C2026 0.950 . S
H2016 C2028 0.950 . S
H2017 C2029 0.950 . S
C2018 H2010 0.950 . S
C2018 C2019 1.386 . S
C2018 C2020 1.391 . S
C2019 C2018 1.386 . S
C2019 C2023 1.393 1_655 S
C2020 H2012 0.950 . S
C2020 C2018 1.391 . S
C2020 C2021 1.400 . S
C2021 C2020 1.400 . S
C2021 C2022 1.398 1_655 S
C2021 C2027 1.491 . S
C2022 H2013 0.950 . S
C2022 C2021 1.398 1_455 S
C2022 C2023 1.391 . S
C2023 H2011 0.950 . S
C2023 C2019 1.393 1_455 S
C2023 C2022 1.391 . S
C2024 H2014 0.950 . S
C2024 C2025 1.386 1_455 S
C2024 C2026 1.391 . S
C2025 C2024 1.386 1_655 S
C2025 C2029 1.393 . S
C2026 H2015 0.950 . S
C2026 C2024 1.391 . S
C2026 C2027 1.400 1_455 S
C2027 C2021 1.491 . S
C2027 C2026 1.400 1_655 S
C2027 C2028 1.398 . S
C2028 H2016 0.950 . S
C2028 C2027 1.398 . S
C2028 C2029 1.391 . S
C2029 H2017 0.950 . S
C2029 C2025 1.393 . S
C2029 C2028 1.391 . S
H2030 C2038 0.950 . S
H2031 C2043 0.950 . S
H2032 C2040 0.950 . S
H2033 C2042 0.950 . S
H2034 C2044 0.950 . S
H2035 C2046 0.950 . S
H2036 C2048 0.950 . S
H2037 C2049 0.950 . S
C2038 H2030 0.950 . S
C2038 C2039 1.386 . S
C2038 C2040 1.391 . S
C2039 C2038 1.386 . S
C2039 C2043 1.393 . S
C2040 H2032 0.950 . S
C2040 C2038 1.391 . S
C2040 C2041 1.400 . S
C2041 C2040 1.400 . S
C2041 C2042 1.398 . S
C2041 C2047 1.491 . S
C2042 H2033 0.950 . S
C2042 C2041 1.398 . S
C2042 C2043 1.391 . S
C2043 H2031 0.950 . S
C2043 C2039 1.393 . S
C2043 C2042 1.391 . S
C2044 H2034 0.950 . S
C2044 C2045 1.386 . S
C2044 C2046 1.391 . S
C2045 C2044 1.386 . S
C2045 C2049 1.393 . S
C2046 H2035 0.950 . S
C2046 C2044 1.391 . S
C2046 C2047 1.400 . S
C2047 C2041 1.491 . S
C2047 C2046 1.400 . S
C2047 C2048 1.398 . S
C2048 H2036 0.950 . S
C2048 C2047 1.398 . S
C2048 C2049 1.391 . S
C2049 H2037 0.950 . S
C2049 C2045 1.393 . S
C2049 C2048 1.391 . S
H2050 C2058 0.950 . S
H2051 C2063 0.950 . S
H2052 C2060 0.950 . S
H2053 C2062 0.950 . S
H2054 C2064 0.944 1_565 S
H2055 C2066 0.950 . S
H2056 C2068 0.950 . S
H2057 C2069 0.950 . S
C2058 H2050 0.950 . S
C2058 C2059 1.386 . S
C2058 C2060 1.391 . S
C2059 C2058 1.386 . S
C2059 C2063 1.393 . S
C2060 H2052 0.950 . S
C2060 C2058 1.391 . S
C2060 C2061 1.400 . S
C2061 C2060 1.400 . S
C2061 C2062 1.398 . S
C2061 C2067 1.491 . S
C2062 H2053 0.950 . S
C2062 C2061 1.398 . S
C2062 C2063 1.391 . S
C2063 H2051 0.950 . S
C2063 C2059 1.393 . S
C2063 C2062 1.391 . S
C2064 H2054 0.944 1_545 S
C2064 C2065 1.404 . S
C2064 C2066 1.380 . S
C2065 C2064 1.404 . S
C2065 C2069 1.393 . S
C2066 H2055 0.950 . S
C2066 C2064 1.380 . S
C2066 C2067 1.400 . S
C2067 C2061 1.491 . S
C2067 C2066 1.400 . S
C2067 C2068 1.398 . S
C2068 H2056 0.950 . S
C2068 C2067 1.398 . S
C2068 C2069 1.391 . S
C2069 H2057 0.950 . S
C2069 C2065 1.393 . S
C2069 C2068 1.391 . S
C639 C4 1.560 . S
C645 C458 1.557 1_655 S
C659 C26 1.574 . S
C665 C471 1.538 . S
C685 C500 1.456 1_545 S
C679 C32 1.495 . S
C699 C40 1.502 . S
C705 C513 1.458 . S
C719 C12 1.549 . S
C725 C534 1.500 . S
C739 C18 1.521 . S
C745 C563 1.497 . S
C759 C46 1.533 . S
C765 C542 1.525 . S
C785 C555 1.484 . S
C779 C68 1.554 . S
C805 C521 1.493 . S
C799 C74 1.494 . S
C819 C82 1.504 . S
C825 C492 1.472 1_545 S
C845 C450 1.488 1_655 S
C839 C54 1.566 . S
C859 C60 1.512 . S
C865 C479 1.523 . S
C879 C88 1.595 . S
C885 C584 1.570 . S
C899 C110 1.593 . S
C905 C597 1.552 . S
C925 C626 1.525 . S
C919 C116 1.553 . S
C939 C124 1.518 . S
C945 C261 1.472 . S
C959 C96 1.567 . S
C965 C282 1.523 . S
C979 C102 1.514 . S
C985 C311 1.489 . S
C999 C130 1.558 . S
C1005 C290 1.554 . S
C1019 C152 1.582 . S
C1025 C303 1.517 . S
C1045 C269 1.529 . S
C1039 C158 1.517 . S
C1065 C618 1.485 . S
C1059 C166 1.530 . S
C1085 C576 1.500 . S
C1079 C138 1.560 . S
C1105 C605 1.544 . S
C1099 C144 1.543 . S
C1119 C172 1.581 . S
C1125 C332 1.562 . S
C1139 C194 1.593 . S
C1145 C345 1.548 . S
C1159 C200 1.533 . S
C1165 C374 1.512 . S
C1179 C208 1.532 . S
C1185 C387 1.486 . S
C1205 C408 1.524 . S
C1199 C180 1.568 . S
C1225 C437 1.519 . S
C1219 C186 1.544 . S
C1245 C416 1.576 . S
C1239 C214 1.570 . S
C1265 C429 1.526 . S
C1259 C236 1.578 . S
C1279 C242 1.528 . S
C1285 C395 1.531 . S
C1305 C366 1.446 . S
C1299 C250 1.512 . S
C1319 C222 1.563 . S
C1325 C324 1.522 . S
C1345 C353 1.517 . S
C1339 C228 1.520 . S
C1365 C264 1.316 . S
C1359 C5 1.218 . S
C1379 C25 1.322 . S
C1385 C285 1.238 . S
C1405 C313 1.267 . S
C1399 C33 1.183 . S
C1425 C334 1.212 . S
C1419 C39 1.273 . S
C1445 C348 1.236 . S
C1439 C11 1.327 . S
C1465 C376 1.264 . S
C1459 C19 1.174 1_556 S
C1479 C47 1.241 1_556 S
C1485 C369 1.292 . S
C1499 C67 1.345 . S
C1505 C327 1.160 . S
C1519 C75 1.225 1_556 S
C1525 C355 1.336 . S
C1539 C81 1.312 . S
C1545 C292 1.257 . S
C1565 C306 1.205 . S
C1559 C53 1.334 . S
C1579 C61 1.136 . S
C1585 C271 1.275 . S
C1605 C390 1.301 . S
C1599 C89 1.169 . S
C1619 C109 1.371 . S
C1625 C411 1.265 . S
C1639 C117 1.193 . S
C1645 C439 1.281 . S
C1665 C460 1.184 . S
C1659 C123 1.257 . S
C1679 C95 1.315 . S
C1685 C474 1.240 . S
C1699 C103 1.137 . S
C1705 C502 1.230 . S
C1719 C131 1.159 . S
C1725 C495 1.215 . S
C1739 C151 1.310 . S
C1745 C453 1.182 . S
C1765 C481 1.282 . S
C1759 C159 1.144 . S
C1779 C165 1.328 . S
C1785 C418 1.246 . S
C1799 C137 1.389 . S
C1805 C432 1.207 . S
C1825 C397 1.315 . S
C1819 C145 1.159 . S
C1845 C516 1.242 1_545 S
C1839 C173 1.171 . S
C1859 C193 1.280 . S
C1865 C537 1.209 1_655 S
C1879 C201 1.178 . S
C1885 C565 1.263 . S
C1905 C586 1.203 . S
C1899 C207 1.294 . S
C1925 C600 1.268 . S
C1919 C179 1.378 . S
C1939 C187 1.170 . S
C1945 C628 1.271 . S
C1959 C215 1.213 . S
C1965 C621 1.264 . S
C1979 C235 1.373 . S
C1985 C579 1.248 . S
C2005 C607 1.324 . S
C1999 C243 1.174 . S
C2025 C544 1.184 1_655 S
C2019 C249 1.264 . S
C2045 C558 1.198 . S
C2039 C221 1.351 . S
C2059 C229 1.120 . S
C2065 C523 1.251 1_545 S
