# Generated by pormake.
# Topology pth, (4,4)-cn, num edge types: 1
# Building blocks:
#     Node 0, Type 0, BuildingBlock: TATPOV_clean_sbu_0, # of connection points: 4
#     Node 1, Type 0, BuildingBlock: TATPOV_clean_sbu_0, # of connection points: 4
#     Node 2, Type 0, BuildingBlock: TATPOV_clean_sbu_0, # of connection points: 4
#     Node 3, Type 1, BuildingBlock: NAWXER_clean_linker_0, # of connection points: 4
#     Node 4, Type 1, BuildingBlock: NAWXER_clean_linker_0, # of connection points: 4
#     Node 5, Type 1, BuildingBlock: NAWXER_clean_linker_0, # of connection points: 4
#     Edge 6, Type (0, 1), BuildingBlock: UVAHIK_clean_linker_0, # of connection points: 2
#     Edge 7, Type (0, 1), BuildingBlock: UVAHIK_clean_linker_0, # of connection points: 2
#     Edge 8, Type (0, 1), BuildingBlock: UVAHIK_clean_linker_0, # of connection points: 2
#     Edge 9, Type (0, 1), BuildingBlock: UVAHIK_clean_linker_0, # of connection points: 2
#     Edge 10, Type (0, 1), BuildingBlock: UVAHIK_clean_linker_0, # of connection points: 2
#     Edge 11, Type (0, 1), BuildingBlock: UVAHIK_clean_linker_0, # of connection points: 2
#     Edge 12, Type (0, 1), BuildingBlock: UVAHIK_clean_linker_0, # of connection points: 2
#     Edge 13, Type (0, 1), BuildingBlock: UVAHIK_clean_linker_0, # of connection points: 2
#     Edge 14, Type (0, 1), BuildingBlock: UVAHIK_clean_linker_0, # of connection points: 2
#     Edge 15, Type (0, 1), BuildingBlock: UVAHIK_clean_linker_0, # of connection points: 2
#     Edge 16, Type (0, 1), BuildingBlock: UVAHIK_clean_linker_0, # of connection points: 2
#     Edge 17, Type (0, 1), BuildingBlock: UVAHIK_clean_linker_0, # of connection points: 2
# Relax obj value: 0.037
# Max RMSD: 0.160
# Mean RMSD: 0.080
data_MOF--net-pth--node1-TATPOV_clean_sbu_0--node2-NAWXER_clean_linker_0--edge1-UVAHIK_clean_linker_0
_symmetry_space_group_name_H-M    P1
_symmetry_Int_Tables_number       1
_symmetry_cell_setting            triclinic
loop_
_symmetry_equiv_pos_as_xyz
'x, y, z'
_cell_length_a     36.152622
_cell_length_b     35.850796
_cell_length_c     79.605042
_cell_angle_alpha  92.370574
_cell_angle_beta   92.178014
_cell_angle_gamma 120.88883
loop_
_atom_site_label
_atom_site_type_symbol
_atom_site_fract_x
_atom_site_fract_y
_atom_site_fract_z
_atom_type_partial_charge
Zn0 Zn 0.13702 0.0239 0.03987 0.0
Zn1 Zn 0.0875 0.05175 0.05426 0.0
O2 O 0.09832 0.01839 0.07236 0.0
O3 O 0.14219 -0.00046 0.06171 0.0
O4 O 0.0556 0.07702 0.06586 0.0
O5 O 0.18061 0.08554 0.03469 0.0
O6 O 0.13937 0.10663 0.0462 0.0
C7 C 0.12039 -2e-05 0.07372 0.0
C8 C 0.05008 0.98706 0.02367 0.0
O9 O 0.04621 0.01117 0.03481 0.0
O10 O 0.08484 0.98647 0.02336 0.0
C11 C 0.03472 0.06232 0.07887 0.0
O12 O 0.03148 0.02737 0.08499 0.0
C13 C 0.17311 0.11549 0.03866 0.0
Zn14 Zn 0.13758 0.11069 0.37206 0.0
Zn15 Zn 0.0624 0.0714 0.38696 0.0
O16 O 0.10805 0.08324 0.40594 0.0
O17 O 0.17023 0.11756 0.39426 0.0
O18 O 0.00827 0.05111 0.39909 0.0
O19 O 0.12837 0.15814 0.36427 0.0
O20 O 0.06503 0.12227 0.37491 0.0
C21 C 0.14907 0.10158 0.40703 0.0
C22 C 0.07452 0.02082 0.35891 0.0
O23 O 0.05101 0.02125 0.37034 0.0
O24 O 0.11128 0.05418 0.35719 0.0
C25 C 0.98696 0.0157 0.4062 0.0
O26 O -0.00032 0.98733 0.40571 0.0
C27 C 0.09191 0.15357 0.36668 0.0
Zn28 Zn 0.09567 0.97369 0.7484 0.0
Zn29 Zn 0.04818 0.98755 0.72538 0.0
O30 O 0.09368 0.98528 0.71142 0.0
O31 O 0.13405 0.97588 0.73015 0.0
O32 O 0.00924 0.99248 0.70806 0.0
O33 O 0.04341 0.91716 0.75383 0.0
O34 O 0.00494 0.93181 0.73624 0.0
C35 C 0.12598 0.98119 0.7151 0.0
C36 C 0.09511 0.05372 0.75524 0.0
O37 O 0.07269 0.0428 0.74123 0.0
O38 O 0.1078 0.02947 0.76105 0.0
C39 C 0.01829 0.02703 0.70099 0.0
O40 O 0.05568 0.06284 0.70494 0.0
C41 C 0.00711 0.90756 0.747 0.0
C42 C 0.93256 0.35764 0.24057 0.0
C43 C 0.96714 0.37453 0.25295 0.0
C44 C 0.92699 0.38576 0.23047 0.0
C45 C 0.95586 0.43099 0.23275 0.0
C46 C 0.9951 0.41979 0.2554 0.0
C47 C 0.98938 0.44767 0.24548 0.0
C48 C 0.95249 0.46214 0.22218 0.0
C49 C 0.98502 0.38026 0.18894 0.0
C50 C 0.95576 0.35895 0.17483 0.0
C51 C 0.98452 0.41354 0.19847 0.0
C52 C 0.95387 0.4253 0.19439 0.0
C53 C 0.92612 0.37176 0.17038 0.0
C54 C 0.9252 0.40467 0.18009 0.0
C55 C 0.95298 0.4605 0.20442 0.0
C56 C 0.02699 0.64553 0.19142 0.0
C57 C 0.00146 0.64531 0.17763 0.0
C58 C 0.01338 0.60819 0.20015 0.0
C59 C 0.97395 0.56992 0.19529 0.0
C60 C 0.96206 0.60687 0.17269 0.0
C61 C 0.94864 0.56925 0.18136 0.0
C62 C 0.96024 0.5306 0.2046 0.0
C63 C 0.94737 0.62719 0.23764 0.0
C64 C 0.97227 0.64016 0.25311 0.0
C65 C 0.9417 0.59136 0.22766 0.0
C66 C 0.96171 0.56846 0.23274 0.0
C67 C 0.99053 0.61587 0.25848 0.0
C68 C 0.98548 0.58064 0.2484 0.0
C69 C 0.95762 0.53117 0.22225 0.0
H70 H 0.91053 0.3228 0.2385 0.0
H71 H 0.90052 0.3723 0.22087 0.0
H72 H 0.02153 0.4337 0.26504 0.0
H73 H 0.01185 0.48246 0.24753 0.0
H74 H 0.00888 0.37172 0.19241 0.0
H75 H 0.00835 0.43028 0.20895 0.0
H76 H 0.9033 0.35593 0.15953 0.0
H77 H 0.90181 0.41377 0.17653 0.0
H78 H 0.05737 0.67473 0.19554 0.0
H79 H 0.03376 0.60915 0.2107 0.0
H80 H 0.94203 0.60574 0.16199 0.0
H81 H 0.91834 0.53984 0.17733 0.0
H82 H 0.93283 0.6451 0.23308 0.0
H83 H 0.92175 0.58173 0.21597 0.0
H84 H 0.00885 0.62401 0.27052 0.0
H85 H 0.00074 0.56322 0.2528 0.0
N86 N 0.95441 0.49714 0.2303 0.0
N87 N 0.95692 0.49493 0.1963 0.0
C88 C 0.6801 0.03463 0.52232 0.0
C89 C 0.66457 -0.0014 0.51055 0.0
C90 C 0.65218 0.03809 0.53306 0.0
C91 C 0.60824 0.0056 0.53221 0.0
C92 C 0.62056 0.96614 0.50972 0.0
C93 C 0.59255 0.96985 0.52036 0.0
C94 C 0.57828 0.00944 0.54325 0.0
C95 C 0.666 0.98499 0.57671 0.0
C96 C 0.69121 0.01907 0.58906 0.0
C97 C 0.63171 0.98379 0.56745 0.0
C98 C 0.62221 0.01683 0.57028 0.0
C99 C 0.68142 0.05193 0.59191 0.0
C100 C 0.64712 0.05066 0.58267 0.0
C101 C 0.58532 0.01559 0.56099 0.0
C102 C 0.41671 0.99279 0.58155 0.0
C103 C 0.43162 0.02286 0.59567 0.0
C104 C 0.44584 0.99169 0.57083 0.0
C105 C 0.49045 0.0212 0.57381 0.0
C106 C 0.4763 0.05202 0.59878 0.0
C107 C 0.50544 0.05111 0.58796 0.0
C108 C 0.52163 0.01935 0.56276 0.0
C109 C 0.44873 0.06271 0.53066 0.0
C110 C 0.41844 0.03007 0.51875 0.0
C111 C 0.48018 0.0577 0.53918 0.0
C112 C 0.48226 0.02009 0.53592 0.0
C113 C 0.42088 0.99248 0.51546 0.0
C114 C 0.45282 0.98779 0.52384 0.0
C115 C 0.51561 0.01498 0.545 0.0
H116 H 0.7139 0.06004 0.52327 0.0
H117 H 0.66481 0.06634 0.54192 0.0
H118 H 0.60765 0.93831 0.50063 0.0
H119 H 0.55866 0.94465 0.51942 0.0
H120 H 0.67281 0.95927 0.57418 0.0
H121 H 0.6123 0.95675 0.55824 0.0
H122 H 0.6997 0.07819 0.60153 0.0
H123 H 0.64006 0.07622 0.5852 0.0
H124 H 0.38256 0.96928 0.57905 0.0
H125 H 0.43344 0.96711 0.5604 0.0
H126 H 0.4887 0.07566 0.60954 0.0
H127 H 0.53971 0.07391 0.59061 0.0
H128 H 0.44869 0.09258 0.53324 0.0
H129 H 0.50322 0.08344 0.54822 0.0
H130 H 0.39786 0.9664 0.50655 0.0
H131 H 0.45401 0.95857 0.52114 0.0
N132 N 0.54376 0.00954 0.5359 0.0
N133 N 0.5566 0.02013 0.57007 0.0
C134 C 0.37103 0.42867 0.8661 0.0
C135 C 0.34643 0.4397 0.85555 0.0
C136 C 0.4095 0.46108 0.87462 0.0
C137 C 0.42418 0.50516 0.87277 0.0
C138 C 0.36082 0.48404 0.8541 0.0
C139 C 0.39958 0.51643 0.8625 0.0
C140 C 0.46712 0.5393 0.88013 0.0
C141 C 0.38399 0.48156 0.92407 0.0
C142 C 0.40163 0.46627 0.93609 0.0
C143 C 0.409 0.50682 0.91137 0.0
C144 C 0.4517 0.51635 0.91032 0.0
C145 C 0.44437 0.47618 0.93505 0.0
C146 C 0.46907 0.50092 0.92234 0.0
C147 C 0.47994 0.54403 0.89748 0.0
C148 C 0.65602 0.70624 0.90262 0.0
C149 C 0.677 0.6939 0.91439 0.0
C150 C 0.61551 0.67541 0.89499 0.0
C151 C 0.59529 0.63176 0.89904 0.0
C152 C 0.65702 0.65006 0.91821 0.0
C153 C 0.61634 0.61935 0.9107 0.0
C154 C 0.55117 0.59951 0.89198 0.0
C155 C 0.63537 0.6201 0.85005 0.0
C156 C 0.63653 0.65071 0.83925 0.0
C157 C 0.60327 0.60136 0.86137 0.0
C158 C 0.5713 0.61233 0.86202 0.0
C159 C 0.60353 0.66062 0.83957 0.0
C160 C 0.5709 0.64122 0.85079 0.0
C161 C 0.53889 0.59346 0.87463 0.0
H162 H 0.36161 0.39498 0.86726 0.0
H163 H 0.42859 0.45168 0.88216 0.0
H164 H 0.3425 0.49376 0.84628 0.0
H165 H 0.41063 0.55035 0.86084 0.0
H166 H 0.3512 0.47465 0.92468 0.0
H167 H 0.39517 0.5194 0.9026 0.0
H168 H 0.45862 0.46427 0.94396 0.0
H169 H 0.5019 0.5078 0.92184 0.0
H170 H 0.67079 0.73982 0.89945 0.0
H171 H 0.5995 0.68589 0.88626 0.0
H172 H 0.67225 0.63979 0.92739 0.0
H173 H 0.60116 0.5859 0.91408 0.0
H174 H 0.65941 0.61067 0.84984 0.0
H175 H 0.60353 0.57838 0.86973 0.0
H176 H 0.60356 0.68425 0.83153 0.0
H177 H 0.54623 0.64981 0.85109 0.0
N178 N 0.49722 0.564 0.86932 0.0
N179 N 0.52143 0.57428 0.90269 0.0
C180 C 0.01737 0.12164 0.08066 0.0
C181 C 0.01788 0.08681 0.08793 0.0
C182 C 0.00485 0.14704 0.08977 0.0
C183 C 0.00301 0.18324 0.133 0.0
H184 H 0.92815 0.22073 0.1139 0.0
C185 C 0.95863 0.29064 0.17267 0.0
C186 C 0.95683 0.32393 0.1647 0.0
C187 C 0.96157 0.25864 0.16324 0.0
C188 C 0.94951 0.21099 0.11938 0.0
H189 H 0.00439 0.05056 0.11032 0.0
H190 H 0.98298 0.09526 0.12627 0.0
H191 H 0.94116 0.1702 0.09733 0.0
H192 H 0.95639 0.3498 0.14064 0.0
H193 H 0.9628 0.29472 0.12415 0.0
H194 H 0.01283 0.22494 0.15477 0.0
C195 C 0.99238 0.10289 0.11352 0.0
C196 C 0.95677 0.18189 0.10989 0.0
C197 C 0.00443 0.07718 0.10435 0.0
C198 C 0.95734 0.32424 0.14708 0.0
C199 C 0.96084 0.29254 0.13765 0.0
C200 C 0.99618 0.21266 0.1424 0.0
C201 C 0.99302 0.13842 0.10641 0.0
C202 C 0.98367 0.16782 0.11661 0.0
C203 C 0.96339 0.25951 0.14562 0.0
C204 C 0.96943 0.22706 0.13571 0.0
H205 H 0.02743 0.12983 0.06802 0.0
H206 H 0.00592 0.1744 0.08401 0.0
H207 H 0.02447 0.17351 0.1384 0.0
H208 H 0.95766 0.28931 0.18623 0.0
H209 H 0.96246 0.23323 0.16981 0.0
C210 C 0.93824 0.04021 0.41691 0.0
C211 C 0.9492 0.00789 0.41552 0.0
C212 C 0.90375 0.03409 0.42612 0.0
C213 C 0.83682 0.97115 0.45997 0.0
H214 H 0.76675 0.01853 0.44517 0.0
C215 C 0.69385 0.95632 0.49627 0.0
C216 C 0.69408 0.99546 0.49892 0.0
C217 C 0.72203 0.9537 0.48538 0.0
C218 C 0.78614 0.00525 0.44948 0.0
H219 H 0.93192 0.94337 0.42254 0.0
H220 H 0.87099 0.93236 0.4385 0.0
H221 H 0.82029 0.0201 0.42706 0.0
H222 H 0.72332 0.06221 0.49206 0.0
H223 H 0.77239 0.05761 0.47301 0.0
H224 H 0.80243 0.95641 0.48245 0.0
C225 C 0.88963 0.96275 0.43262 0.0
C226 C 0.81689 0.00622 0.43913 0.0
C227 C 0.92439 0.96896 0.42341 0.0
C228 C 0.7227 0.03175 0.49036 0.0
C229 C 0.75047 0.02899 0.47935 0.0
C230 C 0.80574 0.96986 0.47028 0.0
C231 C 0.87902 0.99537 0.43413 0.0
C232 C 0.8433 0.99007 0.4444 0.0
C233 C 0.75051 0.98999 0.47676 0.0
C234 C 0.78074 0.98773 0.46527 0.0
H235 H 0.95672 0.07071 0.41107 0.0
H236 H 0.89713 0.06029 0.42727 0.0
H237 H 0.85686 0.95882 0.46451 0.0
H238 H 0.67227 0.92793 0.50279 0.0
H239 H 0.72129 0.92321 0.48356 0.0
C240 C 0.92623 0.86195 0.74651 0.0
C241 C 0.96705 0.8713 0.75305 0.0
C242 C 0.88881 0.83274 0.75414 0.0
C243 C 0.85676 0.79655 0.7958 0.0
H244 H 0.74733 0.70736 0.77351 0.0
C245 C 0.71502 0.6848 0.8341 0.0
C246 C 0.67303 0.67319 0.82823 0.0
C247 C 0.74959 0.70602 0.82398 0.0
C248 C 0.77752 0.73253 0.77989 0.0
H249 H 0.00018 0.85488 0.772 0.0
H250 H 0.93498 0.80424 0.7853 0.0
H251 H 0.80998 0.74795 0.75689 0.0
H252 H 0.63463 0.67469 0.80694 0.0
H253 H 0.69551 0.71359 0.7895 0.0
H254 H 0.82468 0.78268 0.81865 0.0
C255 C 0.93205 0.81988 0.77439 0.0
C256 C 0.81337 0.75553 0.77038 0.0
C257 C 0.96935 0.84876 0.76671 0.0
C258 C 0.66659 0.68354 0.81194 0.0
C259 C 0.70142 0.7053 0.80184 0.0
C260 C 0.821 0.77404 0.80524 0.0
C261 C 0.89162 0.81264 0.76851 0.0
C262 C 0.85339 0.78748 0.7783 0.0
C263 C 0.7434 0.717 0.80779 0.0
C264 C 0.78099 0.74146 0.79746 0.0
H265 H 0.92331 0.8786 0.73595 0.0
H266 H 0.85801 0.82774 0.74938 0.0
H267 H 0.88698 0.82174 0.80218 0.0
H268 H 0.72148 0.67808 0.84666 0.0
H269 H 0.78129 0.71381 0.8289 0.0
C270 C 0.14555 0.96016 0.09144 0.0
C271 C 0.11625 0.97417 0.0883 0.0
C272 C 0.13766 0.92976 0.10332 0.0
C273 C 0.06608 0.87035 0.13752 0.0
H274 H 0.08999 0.78082 0.12277 0.0
C275 C 0.98839 0.70019 0.16438 0.0
C276 C 0.01642 0.68508 0.16837 0.0
C277 C 0.003 0.73824 0.15593 0.0
C278 C 0.08352 0.80579 0.12714 0.0
H279 H 0.05683 0.96897 0.09581 0.0
H280 H 0.04236 0.9151 0.11614 0.0
H281 H 0.11264 0.84385 0.10637 0.0
H282 H 0.08139 0.69748 0.16648 0.0
H283 H 0.10675 0.76366 0.15155 0.0
H284 H 0.03542 0.83091 0.15799 0.0
C285 C 0.07192 0.9281 0.1097 0.0
C286 C 0.09674 0.84215 0.11781 0.0
C287 C 0.08016 0.95899 0.09798 0.0
C288 C 0.05919 0.70856 0.16366 0.0
C289 C 0.07362 0.74624 0.15504 0.0
C290 C 0.0524 0.83364 0.14676 0.0
C291 C 0.09991 0.91211 0.11216 0.0
C292 C 0.08809 0.87489 0.12282 0.0
C293 C 0.0457 0.7615 0.15111 0.0
C294 C 0.06087 0.80095 0.14161 0.0
H295 H 0.17393 0.97164 0.08431 0.0
H296 H 0.16059 0.91917 0.10522 0.0
H297 H 0.05937 0.89513 0.1419 0.0
H298 H 0.95536 0.68287 0.16799 0.0
H299 H 0.98071 0.7491 0.15291 0.0
C300 C 0.21694 0.12715 0.42514 0.0
C301 C 0.17184 0.10009 0.42258 0.0
C302 C 0.23941 0.12133 0.43843 0.0
C303 C 0.23328 0.03472 0.46196 0.0
H304 H 0.32912 0.12774 0.49003 0.0
C305 C 0.37231 0.02063 0.49257 0.0
C306 C 0.38512 0.03576 0.5096 0.0
C307 C 0.34218 0.0273 0.48383 0.0
C308 C 0.30216 0.10141 0.48239 0.0
H309 H 0.1147 0.04708 0.43241 0.0
H310 H 0.15424 0.03646 0.4555 0.0
H311 H 0.28346 0.14409 0.47203 0.0
H312 H 0.3749 0.06865 0.53087 0.0
H313 H 0.32351 0.08162 0.51534 0.0
H314 H 0.25297 0.99236 0.4718 0.0
C315 C 0.17203 0.06222 0.44722 0.0
C316 C 0.27624 0.11079 0.47206 0.0
C317 C 0.14944 0.06849 0.43407 0.0
C318 C 0.3666 0.05734 0.51768 0.0
C319 C 0.33696 0.06459 0.50885 0.0
C320 C 0.25959 0.02548 0.47207 0.0
C321 C 0.2173 0.08796 0.44928 0.0
C322 C 0.24188 0.07761 0.46161 0.0
C323 C 0.32459 0.04973 0.49184 0.0
C324 C 0.2946 0.05884 0.48221 0.0
H325 H 0.23507 0.15188 0.41653 0.0
H326 H 0.27434 0.14145 0.43968 0.0
H327 H 0.20726 0.00862 0.45389 0.0
H328 H 0.38635 0.00461 0.48581 0.0
H329 H 0.33358 0.016 0.47064 0.0
C330 C 0.11046 0.13049 0.75666 0.0
C331 C 0.10728 0.09502 0.76481 0.0
C332 C 0.12613 0.17073 0.76568 0.0
C333 C 0.14705 0.2241 0.80841 0.0
H334 H 0.25041 0.31831 0.79136 0.0
C335 C 0.28066 0.3644 0.85164 0.0
C336 C 0.30776 0.40506 0.84525 0.0
C337 C 0.24784 0.33002 0.84126 0.0
C338 C 0.22101 0.29294 0.79619 0.0
H339 H 0.11552 0.07298 0.78887 0.0
H340 H 0.14205 0.14276 0.80458 0.0
H341 H 0.20615 0.25106 0.77384 0.0
H342 H 0.31978 0.44195 0.82307 0.0
H343 H 0.26138 0.3827 0.80524 0.0
H344 H 0.16212 0.26551 0.83087 0.0
C345 C 0.13276 0.13967 0.79126 0.0
C346 C 0.1957 0.25431 0.78611 0.0
C347 C 0.11795 0.09985 0.78223 0.0
C348 C 0.29947 0.41123 0.8285 0.0
C349 C 0.26628 0.37698 0.81817 0.0
C350 C 0.17202 0.26296 0.81842 0.0
C351 C 0.13787 0.17573 0.78302 0.0
C352 C 0.15935 0.21905 0.79235 0.0
C353 C 0.24088 0.33555 0.82426 0.0
C354 C 0.2102 0.29731 0.81267 0.0
H355 H 0.10245 0.12764 0.74324 0.0
H356 H 0.12981 0.19813 0.75906 0.0
H357 H 0.11886 0.19746 0.81343 0.0
H358 H 0.2855 0.35869 0.86457 0.0
H359 H 0.22931 0.29858 0.84641 0.0
C360 C 0.99443 0.06512 0.68145 0.0
C361 C 0.98637 0.02674 0.68868 0.0
C362 C 0.96359 0.06467 0.67013 0.0
C363 C 0.84676 0.0007 0.6574 0.0
H364 H 0.88033 0.06593 0.61748 0.0
C365 C 0.72104 0.98137 0.60578 0.0
C366 C 0.72674 0.01977 0.59934 0.0
C367 C 0.75364 0.98235 0.61614 0.0
C368 C 0.8705 0.04786 0.62865 0.0
H369 H 0.9399 0.9576 0.68942 0.0
H370 H 0.88662 0.95676 0.66959 0.0
H371 H 0.93567 0.06777 0.63668 0.0
H372 H 0.77169 0.08909 0.59832 0.0
H373 H 0.82843 0.0909 0.61659 0.0
H374 H 0.78168 0.98078 0.64942 0.0
C375 C 0.91637 0.98739 0.67287 0.0
C376 C 0.9022 0.04896 0.63966 0.0
C377 C 0.94709 0.98784 0.68418 0.0
C378 C 0.76613 0.05903 0.60323 0.0
C379 C 0.7988 0.05999 0.61356 0.0
C380 C 0.81513 -0.00045 0.6464 0.0
C381 C 0.92408 0.02582 0.6658 0.0
C382 C 0.89066 0.02526 0.65414 0.0
C383 C 0.79274 0.02173 0.62027 0.0
C384 C 0.8266 0.02301 0.63188 0.0
H385 H 0.02434 0.09564 0.68467 0.0
H386 H 0.97036 0.09493 0.66503 0.0
H387 H 0.83681 0.98275 0.6686 0.0
H388 H 0.69095 0.95067 0.60314 0.0
H389 H 0.74818 0.95222 0.62094 0.0
C390 C 0.01471 0.92675 0.00088 0.0
C391 C 0.0138 0.95911 0.01114 0.0
C392 C 0.98009 0.89955 0.98934 0.0
C393 C 0.88774 0.89114 0.965 0.0
H394 H 0.84081 0.76656 0.96477 0.0
C395 C 0.72362 0.76573 0.93066 0.0
C396 C 0.71854 0.7269 0.92337 0.0
C397 C 0.76152 0.79546 0.94024 0.0
C398 C 0.85394 0.80128 0.96442 0.0
H399 H 0.97611 0.98878 0.01711 0.0
H400 H 0.91569 0.94135 0.99678 0.0
H401 H 0.90354 0.81599 0.98361 0.0
H402 H 0.74963 0.68944 0.91976 0.0
H403 H 0.81638 0.74185 0.93614 0.0
H404 H 0.83848 0.87662 0.94571 0.0
C405 C 0.94331 0.93716 0.99772 0.0
C406 C 0.88978 0.82956 0.97528 0.0
C407 C 0.97776 0.9641 0.00942 0.0
C408 C 0.75256 0.71893 0.92542 0.0
C409 C 0.79067 0.74887 0.93486 0.0
C410 C 0.85213 0.86289 0.954 0.0
C411 C 0.94402 0.90442 0.98767 0.0
C412 C 0.90682 0.87471 0.97576 0.0
C413 C 0.79535 0.78719 0.94261 0.0
C414 C 0.83456 0.81756 0.95367 0.0
H415 H 0.04198 0.92203 0.00189 0.0
H416 H 0.9816 0.87479 0.98164 0.0
H417 H 0.90061 0.92589 0.96499 0.0
H418 H 0.69765 0.7724 0.92945 0.0
H419 H 0.76365 0.82424 0.94623 0.0
C420 C 0.02871 0.94012 0.35211 0.0
C421 C 0.05924 0.9817 0.34737 0.0
C422 C 0.01646 0.90314 0.34137 0.0
C423 C 0.98183 0.83043 0.31348 0.0
H424 H 0.07129 0.83262 0.28744 0.0
C425 C 0.9477 0.68977 0.26476 0.0
C426 C 0.98007 0.67926 0.26353 0.0
C427 C 0.95555 0.7267 0.27459 0.0
C428 C 0.04596 0.83114 0.29474 0.0
H429 H 0.09903 0.01754 0.32737 0.0
H430 H 0.07643 0.95366 0.30842 0.0
H431 H 0.08784 0.89565 0.30566 0.0
H432 H 0.04636 0.7 0.27154 0.0
H433 H 0.05913 0.7625 0.28925 0.0
H434 H 0.94066 0.76477 0.30316 0.0
C435 C 0.06319 0.94908 0.32066 0.0
C436 C 0.05527 0.86774 0.30501 0.0
C437 C 0.076 0.98581 0.33148 0.0
C438 C 0.02035 0.70652 0.27239 0.0
C439 C 0.02796 0.74296 0.28235 0.0
C440 C 0.97267 0.79345 0.30335 0.0
C441 C 0.03398 0.90715 0.32558 0.0
C442 C 0.02337 0.86797 0.31451 0.0
C443 C 0.99582 0.75377 0.28351 0.0
C444 C 0.00473 0.7933 0.29392 0.0
H445 H 0.01533 0.93607 0.36431 0.0
H446 H 0.99425 0.87141 0.34568 0.0
H447 H 0.9563 0.82956 0.32045 0.0
H448 H 0.91613 0.66929 0.25827 0.0
H449 H 0.93017 0.73425 0.27504 0.0
C450 C 0.19423 0.98627 0.70659 0.0
C451 C 0.1555 0.98476 0.70203 0.0
C452 C 0.22343 0.99205 0.69454 0.0
C453 C 0.23277 0.97933 0.64929 0.0
H454 H 0.35443 0.06234 0.66057 0.0
C455 C 0.36172 0.01855 0.60126 0.0
C456 C 0.40064 0.02259 0.60743 0.0
C457 C 0.33174 0.01641 0.61236 0.0
C458 C 0.32065 0.03871 0.65727 0.0
H459 H 0.11672 0.98729 0.68112 0.0
H460 H 0.1678 -0.00297 0.66 0.0
H461 H 0.3016 0.05268 0.6807 0.0
H462 H 0.43861 0.02738 0.63004 0.0
H463 H 0.38623 0.02313 0.64939 0.0
H464 H 0.25181 0.9646 0.62601 0.0
C465 C 0.17541 0.99375 0.67295 0.0
C466 C 0.2904 0.03326 0.6688 0.0
C467 C 0.14626 0.98831 0.68505 0.0
C468 C 0.40919 0.02493 0.62492 0.0
C469 C 0.37914 0.02254 0.63601 0.0
C470 C 0.26308 0.98456 0.63778 0.0
C471 C 0.2145 0.99616 0.67762 0.0
C472 C 0.24621 0.00322 0.665 0.0
C473 C 0.33994 0.01803 0.62986 0.0
C474 C 0.30745 0.01403 0.6417 0.0
H475 H 0.2024 0.9836 0.71954 0.0
H476 H 0.25301 0.99313 0.69846 0.0
H477 H 0.19894 0.95567 0.64609 0.0
H478 H 0.35451 0.01721 0.58784 0.0
H479 H 0.30221 0.01366 0.60721 0.0
C480 C 0.23797 0.16943 0.02437 0.0
C481 C 0.20115 0.15972 0.03296 0.0
C482 C 0.26116 0.20895 0.01694 0.0
C483 C 0.31488 0.30215 0.00746 0.0
H484 H 0.24549 0.33541 0.98094 0.0
C485 C 0.3943 0.44721 0.96615 0.0
C486 C 0.3758 0.43928 0.94958 0.0
C487 C 0.37222 0.41875 0.97848 0.0
C488 C 0.26531 0.32657 0.98829 0.0
H489 H 0.16118 0.185 0.04126 0.0
H490 H 0.20198 0.25422 0.02835 0.0
H491 H 0.21048 0.27518 -0.00087 0.0
H492 H 0.31897 0.39648 0.93308 0.0
H493 H 0.28042 0.34637 0.95457 0.0
H494 H 0.36946 0.35205 0.99606 0.0
C495 C 0.21246 0.2309 0.02718 0.0
C496 C 0.24532 0.2924 -0.00113 0.0
C497 C 0.18929 0.19135 0.03467 0.0
C498 C 0.33386 0.40352 0.94578 0.0
C499 C 0.3118 0.37489 0.95811 0.0
C500 C 0.33485 0.33628 0.9969 0.0
C501 C 0.24809 0.23971 0.01792 0.0
C502 C 0.26982 0.27925 0.00831 0.0
C503 C 0.3312 0.38162 0.97449 0.0
C504 C 0.31021 0.34836 0.98695 0.0
H505 H 0.24806 0.14586 0.02283 0.0
H506 H 0.2882 0.21452 0.00976 0.0
H507 H 0.33469 0.2931 0.0147 0.0
H508 H 0.42631 0.475 0.9695 0.0
H509 H 0.38768 0.42536 0.99106 0.0
C510 C 0.10748 0.21407 0.34824 0.0
C511 C 0.07841 0.1807 0.3579 0.0
C512 C 0.09304 0.23443 0.3375 0.0
C513 C 0.00322 0.25219 0.32676 0.0
H514 H 0.04592 0.26409 0.28213 0.0
C515 C 0.94209 0.31302 0.27198 0.0
C516 C 0.97515 0.34573 0.26329 0.0
C517 C 0.95143 0.28937 0.28318 0.0
C518 C 0.03384 0.26118 0.29455 0.0
H519 H 0.01188 0.14462 0.36471 0.0
H520 H 0.98671 0.18023 0.34587 0.0
H521 H 0.06996 0.23312 0.30351 0.0
H522 H 0.04319 0.37799 0.2588 0.0
H523 H 0.0595 0.33707 0.27828 0.0
H524 H 0.96738 0.28075 0.31773 0.0
C525 C 0.02066 0.19057 0.34663 0.0
C526 C 0.04776 0.24363 0.30683 0.0
C527 C 0.03513 0.17016 0.35741 0.0
C528 C 0.01719 0.35317 0.26546 0.0
C529 C 0.02643 0.32948 0.27651 0.0
C530 C 0.98929 0.26986 0.31444 0.0
C531 C 0.04922 0.22189 0.33616 0.0
C532 C 0.03317 0.23957 0.32314 0.0
C533 C 0.99385 0.29778 0.2857 0.0
C534 C 0.00501 0.27514 0.29828 0.0
H535 H 0.14112 0.22331 0.34843 0.0
H536 H 0.11602 0.25924 0.32988 0.0
H537 H 0.99147 0.2495 0.33923 0.0
H538 H 0.90946 0.30684 0.27056 0.0
H539 H 0.92561 0.26483 0.28998 0.0
loop_
_geom_bond_atom_site_label_1
_geom_bond_atom_site_label_2
_geom_bond_distance
_geom_bond_site_symmetry_2
_ccdc_geom_bond_type
Zn0 O3 2.031 1_545 S
Zn0 O5 2.049 . S
Zn0 O10 2.067 1_545 S
Zn1 O2 1.962 . S
Zn1 O4 1.986 . S
Zn1 O6 1.996 . S
Zn1 O9 1.943 . S
O2 Zn1 1.962 . S
O2 C7 1.254 1_545 S
O3 Zn0 2.031 1_565 S
O3 C7 1.269 . S
O4 Zn1 1.986 . S
O4 C11 1.262 . S
O5 Zn0 2.049 . S
O5 C13 1.260 . S
O6 Zn1 1.996 . S
O6 C13 1.257 . S
C7 O2 1.254 1_565 S
C7 O3 1.269 . S
C8 O9 1.257 . S
C8 O10 1.264 1_545 S
O9 Zn1 1.943 . S
O9 C8 1.257 . S
O10 Zn0 2.067 1_565 S
O10 C8 1.264 1_565 S
C11 O4 1.262 . S
C11 O12 1.232 . S
O12 C11 1.232 . S
C13 O5 1.260 . S
C13 O6 1.257 . S
Zn14 O17 2.031 . S
Zn14 O19 2.049 . S
Zn14 O24 2.067 . S
Zn15 O16 1.962 . S
Zn15 O18 1.986 1_455 S
Zn15 O20 1.996 . S
Zn15 O23 1.943 1_455 S
O16 Zn15 1.962 . S
O16 C21 1.254 . S
O17 Zn14 2.031 . S
O17 C21 1.269 . S
O18 Zn15 1.986 1_655 S
O18 C25 1.262 . S
O19 Zn14 2.049 . S
O19 C27 1.260 . S
O20 Zn15 1.996 . S
O20 C27 1.257 . S
C21 O16 1.254 . S
C21 O17 1.269 . S
C22 O23 1.249 1_455 S
C22 O24 1.270 . S
O23 Zn15 1.943 1_655 S
O23 C22 1.249 1_655 S
O24 Zn14 2.067 . S
O24 C22 1.270 . S
C25 O18 1.262 . S
C25 O26 1.232 . S
O26 C25 1.232 . S
C27 O19 1.260 . S
C27 O20 1.257 . S
Zn28 O31 2.031 1_565 S
Zn28 O33 2.049 . S
Zn28 O38 2.067 1_565 S
Zn29 O30 1.962 1_545 S
Zn29 O32 1.986 1_445 S
Zn29 O34 1.996 1_445 S
Zn29 O37 1.943 . S
O30 Zn29 1.962 1_565 S
O30 C35 1.254 . S
O31 Zn28 2.031 1_545 S
O31 C35 1.269 1_545 S
O32 Zn29 1.986 1_665 S
O32 C39 1.262 1_565 S
O33 Zn28 2.049 . S
O33 C41 1.260 1_455 S
O34 Zn29 1.996 1_665 S
O34 C41 1.257 . S
C35 O30 1.254 . S
C35 O31 1.269 1_565 S
C36 O37 1.249 . S
C36 O38 1.270 . S
O37 Zn29 1.943 . S
O37 C36 1.249 . S
O38 Zn28 2.067 1_545 S
O38 C36 1.270 . S
C39 O32 1.262 1_545 S
C39 O40 1.213 1_655 S
O40 C39 1.213 1_455 S
C41 O33 1.260 1_655 S
C41 O34 1.257 . S
C42 C43 1.384 . S
C42 C44 1.384 . S
C42 H70 0.931 1_455 S
C43 C42 1.384 . S
C43 C46 1.382 . S
C44 C42 1.384 . S
C44 C45 1.381 . S
C44 H71 0.930 1_455 S
C45 C44 1.381 . S
C45 C47 1.381 . S
C45 C48 1.487 . S
C46 C43 1.382 . S
C46 C47 1.387 . S
C46 H72 0.930 . S
C47 C45 1.381 . S
C47 C46 1.387 . S
C47 H73 0.931 . S
C48 C45 1.487 . S
C48 C55 1.399 . S
C48 N86 1.343 . S
C49 C50 1.384 . S
C49 C51 1.384 . S
C49 H74 0.931 . S
C50 C49 1.384 . S
C50 C53 1.382 . S
C51 C49 1.384 . S
C51 C52 1.381 . S
C51 H75 0.930 . S
C52 C51 1.381 . S
C52 C54 1.381 . S
C52 C55 1.487 . S
C53 C50 1.382 . S
C53 C54 1.387 . S
C53 H76 0.930 1_455 S
C54 C52 1.381 . S
C54 C53 1.387 . S
C54 H77 0.931 1_455 S
C55 C48 1.399 . S
C55 C52 1.487 . S
C55 N87 1.343 . S
C56 C57 1.384 . S
C56 C58 1.384 . S
C56 H78 0.931 . S
C57 C56 1.384 . S
C57 C60 1.382 . S
C58 C56 1.384 . S
C58 C59 1.381 . S
C58 H79 0.930 . S
C59 C58 1.381 . S
C59 C61 1.381 . S
C59 C62 1.487 . S
C60 C57 1.382 . S
C60 C61 1.387 . S
C60 H80 0.930 1_455 S
C61 C59 1.381 . S
C61 C60 1.387 . S
C61 H81 0.931 1_455 S
C62 C59 1.487 . S
C62 C69 1.399 . S
C62 N87 1.343 . S
C63 C64 1.384 . S
C63 C65 1.384 . S
C63 H82 0.931 1_455 S
C64 C63 1.384 . S
C64 C67 1.382 . S
C65 C63 1.384 . S
C65 C66 1.381 . S
C65 H83 0.930 1_455 S
C66 C65 1.381 . S
C66 C68 1.381 . S
C66 C69 1.487 . S
C67 C64 1.382 . S
C67 C68 1.387 . S
C67 H84 0.930 . S
C68 C66 1.381 . S
C68 C67 1.387 . S
C68 H85 0.931 . S
C69 C62 1.399 . S
C69 C66 1.487 . S
C69 N86 1.343 . S
H70 C42 0.931 1_655 S
H71 C44 0.930 1_655 S
H72 C46 0.930 . S
H73 C47 0.931 . S
H74 C49 0.931 . S
H75 C51 0.930 . S
H76 C53 0.930 1_655 S
H77 C54 0.931 1_655 S
H78 C56 0.931 . S
H79 C58 0.930 . S
H80 C60 0.930 1_655 S
H81 C61 0.931 1_655 S
H82 C63 0.931 1_655 S
H83 C65 0.930 1_655 S
H84 C67 0.930 . S
H85 C68 0.931 . S
N86 C48 1.343 . S
N86 C69 1.343 . S
N87 C55 1.343 . S
N87 C62 1.343 . S
C88 C89 1.384 . S
C88 C90 1.384 . S
C88 H116 0.931 . S
C89 C88 1.384 . S
C89 C92 1.382 . S
C90 C88 1.384 . S
C90 C91 1.381 . S
C90 H117 0.930 . S
C91 C90 1.381 . S
C91 C93 1.381 . S
C91 C94 1.487 . S
C92 C89 1.382 . S
C92 C93 1.387 . S
C92 H118 0.930 1_545 S
C93 C91 1.381 . S
C93 C92 1.387 . S
C93 H119 0.931 1_545 S
C94 C91 1.487 . S
C94 C101 1.399 . S
C94 N132 1.343 . S
C95 C96 1.381 1_565 S
C95 C97 1.380 1_565 S
C95 H120 0.938 . S
C96 C95 1.381 1_545 S
C96 C99 1.382 . S
C97 C95 1.380 1_545 S
C97 C98 1.381 . S
C97 H121 0.930 1_545 S
C98 C97 1.381 . S
C98 C100 1.381 . S
C98 C101 1.487 . S
C99 C96 1.382 . S
C99 C100 1.387 . S
C99 H122 0.930 . S
C100 C98 1.381 . S
C100 C99 1.387 . S
C100 H123 0.931 . S
C101 C94 1.399 . S
C101 C98 1.487 . S
C101 N133 1.343 . S
C102 C103 1.380 1_565 S
C102 C104 1.387 1_565 S
C102 H124 0.932 . S
C103 C102 1.380 1_545 S
C103 C106 1.382 . S
C104 C102 1.387 1_545 S
C104 C105 1.381 . S
C104 H125 0.930 1_545 S
C105 C104 1.381 . S
C105 C107 1.381 . S
C105 C108 1.487 . S
C106 C103 1.382 . S
C106 C107 1.387 . S
C106 H126 0.930 . S
C107 C105 1.381 . S
C107 C106 1.387 . S
C107 H127 0.931 . S
C108 C105 1.487 . S
C108 C115 1.399 . S
C108 N133 1.343 . S
C109 C110 1.384 . S
C109 C111 1.384 . S
C109 H128 0.931 . S
C110 C109 1.384 . S
C110 C113 1.382 . S
C111 C109 1.384 . S
C111 C112 1.381 . S
C111 H129 0.930 . S
C112 C111 1.381 . S
C112 C114 1.381 . S
C112 C115 1.487 . S
C113 C110 1.382 . S
C113 C114 1.387 . S
C113 H130 0.930 1_545 S
C114 C112 1.381 . S
C114 C113 1.387 . S
C114 H131 0.931 1_545 S
C115 C108 1.399 . S
C115 C112 1.487 . S
C115 N132 1.343 . S
H116 C88 0.931 . S
H117 C90 0.930 . S
H118 C92 0.930 1_565 S
H119 C93 0.931 1_565 S
H120 C95 0.938 . S
H121 C97 0.930 1_565 S
H122 C99 0.930 . S
H123 C100 0.931 . S
H124 C102 0.932 . S
H125 C104 0.930 1_565 S
H126 C106 0.930 . S
H127 C107 0.931 . S
H128 C109 0.931 . S
H129 C111 0.930 . S
H130 C113 0.930 1_565 S
H131 C114 0.931 1_565 S
N132 C94 1.343 . S
N132 C115 1.343 . S
N133 C101 1.343 . S
N133 C108 1.343 . S
C134 C135 1.384 . S
C134 C136 1.384 . S
C134 H162 0.931 . S
C135 C134 1.384 . S
C135 C138 1.382 . S
C136 C134 1.384 . S
C136 C137 1.381 . S
C136 H163 0.930 . S
C137 C136 1.381 . S
C137 C139 1.381 . S
C137 C140 1.487 . S
C138 C135 1.382 . S
C138 C139 1.387 . S
C138 H164 0.930 . S
C139 C137 1.381 . S
C139 C138 1.387 . S
C139 H165 0.931 . S
C140 C137 1.487 . S
C140 C147 1.399 . S
C140 N178 1.343 . S
C141 C142 1.384 . S
C141 C143 1.384 . S
C141 H166 0.931 . S
C142 C141 1.384 . S
C142 C145 1.382 . S
C143 C141 1.384 . S
C143 C144 1.381 . S
C143 H167 0.930 . S
C144 C143 1.381 . S
C144 C146 1.381 . S
C144 C147 1.487 . S
C145 C142 1.382 . S
C145 C146 1.387 . S
C145 H168 0.930 . S
C146 C144 1.381 . S
C146 C145 1.387 . S
C146 H169 0.931 . S
C147 C140 1.399 . S
C147 C144 1.487 . S
C147 N179 1.343 . S
C148 C149 1.384 . S
C148 C150 1.384 . S
C148 H170 0.931 . S
C149 C148 1.384 . S
C149 C152 1.382 . S
C150 C148 1.384 . S
C150 C151 1.381 . S
C150 H171 0.930 . S
C151 C150 1.381 . S
C151 C153 1.381 . S
C151 C154 1.487 . S
C152 C149 1.382 . S
C152 C153 1.387 . S
C152 H172 0.930 . S
C153 C151 1.381 . S
C153 C152 1.387 . S
C153 H173 0.931 . S
C154 C151 1.487 . S
C154 C161 1.399 . S
C154 N179 1.343 . S
C155 C156 1.384 . S
C155 C157 1.384 . S
C155 H174 0.931 . S
C156 C155 1.384 . S
C156 C159 1.382 . S
C157 C155 1.384 . S
C157 C158 1.381 . S
C157 H175 0.930 . S
C158 C157 1.381 . S
C158 C160 1.381 . S
C158 C161 1.487 . S
C159 C156 1.382 . S
C159 C160 1.387 . S
C159 H176 0.930 . S
C160 C158 1.381 . S
C160 C159 1.387 . S
C160 H177 0.931 . S
C161 C154 1.399 . S
C161 C158 1.487 . S
C161 N178 1.343 . S
H162 C134 0.931 . S
H163 C136 0.930 . S
H164 C138 0.930 . S
H165 C139 0.931 . S
H166 C141 0.931 . S
H167 C143 0.930 . S
H168 C145 0.930 . S
H169 C146 0.931 . S
H170 C148 0.931 . S
H171 C150 0.930 . S
H172 C152 0.930 . S
H173 C153 0.931 . S
H174 C155 0.931 . S
H175 C157 0.930 . S
H176 C159 0.930 . S
H177 C160 0.931 . S
N178 C140 1.343 . S
N178 C161 1.343 . S
N179 C147 1.343 . S
N179 C154 1.343 . S
C180 C181 1.349 . S
C180 C182 1.327 . S
C180 H205 0.950 . S
C181 C180 1.349 . S
C181 C197 1.349 . S
C182 C180 1.327 . S
C182 C201 1.429 . S
C182 H206 0.950 . S
C183 C200 1.574 . S
C183 C202 1.368 . S
C183 H207 0.949 . S
H184 C188 0.949 . S
C185 C186 1.349 . S
C185 C187 1.327 . S
C185 H208 0.950 . S
C186 C185 1.349 . S
C186 C198 1.349 . S
C187 C185 1.327 . S
C187 C203 1.429 . S
C187 H209 0.950 . S
C188 H184 0.949 . S
C188 C196 1.574 . S
C188 C204 1.368 . S
H189 C197 0.950 . S
H190 C195 0.950 . S
H191 C196 0.949 . S
H192 C198 0.950 . S
H193 C199 0.950 . S
H194 C200 0.949 . S
C195 H190 0.950 . S
C195 C197 1.327 . S
C195 C201 1.429 . S
C196 C188 1.574 . S
C196 H191 0.949 . S
C196 C202 1.368 . S
C197 C181 1.349 . S
C197 H189 0.950 . S
C197 C195 1.327 . S
C198 C186 1.349 . S
C198 H192 0.950 . S
C198 C199 1.327 . S
C199 H193 0.950 . S
C199 C198 1.327 . S
C199 C203 1.429 . S
C200 C183 1.574 . S
C200 H194 0.949 . S
C200 C204 1.368 . S
C201 C182 1.429 . S
C201 C195 1.429 . S
C201 C202 1.523 . S
C202 C183 1.368 . S
C202 C196 1.368 . S
C202 C201 1.523 . S
C203 C187 1.429 . S
C203 C199 1.429 . S
C203 C204 1.523 . S
C204 C188 1.368 . S
C204 C200 1.368 . S
C204 C203 1.523 . S
H205 C180 0.950 . S
H206 C182 0.950 . S
H207 C183 0.949 . S
H208 C185 0.950 . S
H209 C187 0.950 . S
C210 C211 1.349 . S
C210 C212 1.327 . S
C210 H235 0.950 . S
C211 C210 1.349 . S
C211 C227 1.349 . S
C212 C210 1.327 . S
C212 C231 1.429 . S
C212 H236 0.950 . S
C213 C230 1.574 . S
C213 C232 1.368 . S
C213 H237 0.949 1_545 S
H214 C218 0.949 . S
C215 C216 1.349 . S
C215 C217 1.327 . S
C215 H238 0.950 1_545 S
C216 C215 1.349 . S
C216 C228 1.349 . S
C217 C215 1.327 . S
C217 C233 1.429 . S
C217 H239 0.950 1_545 S
C218 H214 0.949 . S
C218 C226 1.574 . S
C218 C234 1.368 . S
H219 C227 0.950 1_565 S
H220 C225 0.950 1_565 S
H221 C226 0.949 . S
H222 C228 0.950 . S
H223 C229 0.950 . S
H224 C230 0.949 1_565 S
C225 H220 0.950 1_545 S
C225 C227 1.327 . S
C225 C231 1.429 . S
C226 C218 1.574 . S
C226 H221 0.949 . S
C226 C232 1.368 . S
C227 C211 1.349 . S
C227 H219 0.950 1_545 S
C227 C225 1.327 . S
C228 C216 1.349 . S
C228 H222 0.950 . S
C228 C229 1.327 . S
C229 H223 0.950 . S
C229 C228 1.327 . S
C229 C233 1.429 . S
C230 C213 1.574 . S
C230 H224 0.949 1_545 S
C230 C234 1.368 . S
C231 C212 1.429 . S
C231 C225 1.429 . S
C231 C232 1.523 . S
C232 C213 1.368 . S
C232 C226 1.368 . S
C232 C231 1.523 . S
C233 C217 1.429 . S
C233 C229 1.429 . S
C233 C234 1.523 . S
C234 C218 1.368 . S
C234 C230 1.368 . S
C234 C233 1.523 . S
H235 C210 0.950 . S
H236 C212 0.950 . S
H237 C213 0.949 1_565 S
H238 C215 0.950 1_565 S
H239 C217 0.950 1_565 S
C240 C241 1.349 . S
C240 C242 1.327 . S
C240 H265 0.950 . S
C241 C240 1.349 . S
C241 C257 1.349 . S
C242 C240 1.327 . S
C242 C261 1.429 . S
C242 H266 0.950 . S
C243 C260 1.574 . S
C243 C262 1.368 . S
C243 H267 0.949 . S
H244 C248 0.949 . S
C245 C246 1.349 . S
C245 C247 1.327 . S
C245 H268 0.950 . S
C246 C245 1.349 . S
C246 C258 1.349 . S
C247 C245 1.327 . S
C247 C263 1.429 . S
C247 H269 0.950 . S
C248 H244 0.949 . S
C248 C256 1.574 . S
C248 C264 1.368 . S
H249 C257 0.950 . S
H250 C255 0.950 . S
H251 C256 0.949 . S
H252 C258 0.950 . S
H253 C259 0.950 . S
H254 C260 0.949 . S
C255 H250 0.950 . S
C255 C257 1.327 . S
C255 C261 1.429 . S
C256 C248 1.574 . S
C256 H251 0.949 . S
C256 C262 1.368 . S
C257 C241 1.349 . S
C257 H249 0.950 . S
C257 C255 1.327 . S
C258 C246 1.349 . S
C258 H252 0.950 . S
C258 C259 1.327 . S
C259 H253 0.950 . S
C259 C258 1.327 . S
C259 C263 1.429 . S
C260 C243 1.574 . S
C260 H254 0.949 . S
C260 C264 1.368 . S
C261 C242 1.429 . S
C261 C255 1.429 . S
C261 C262 1.523 . S
C262 C243 1.368 . S
C262 C256 1.368 . S
C262 C261 1.523 . S
C263 C247 1.429 . S
C263 C259 1.429 . S
C263 C264 1.523 . S
C264 C248 1.368 . S
C264 C260 1.368 . S
C264 C263 1.523 . S
H265 C240 0.950 . S
H266 C242 0.950 . S
H267 C243 0.949 . S
H268 C245 0.950 . S
H269 C247 0.950 . S
C270 C271 1.349 . S
C270 C272 1.327 . S
C270 H295 0.950 . S
C271 C270 1.349 . S
C271 C287 1.349 . S
C272 C270 1.327 . S
C272 C291 1.429 . S
C272 H296 0.950 . S
C273 C290 1.574 . S
C273 C292 1.368 . S
C273 H297 0.949 . S
H274 C278 0.949 . S
C275 C276 1.349 . S
C275 C277 1.327 . S
C275 H298 0.950 . S
C276 C275 1.349 . S
C276 C288 1.349 . S
C277 C275 1.327 . S
C277 C293 1.429 . S
C277 H299 0.950 . S
C278 H274 0.949 . S
C278 C286 1.574 . S
C278 C294 1.368 . S
H279 C287 0.950 . S
H280 C285 0.950 . S
H281 C286 0.949 . S
H282 C288 0.950 . S
H283 C289 0.950 . S
H284 C290 0.949 . S
C285 H280 0.950 . S
C285 C287 1.327 . S
C285 C291 1.429 . S
C286 C278 1.574 . S
C286 H281 0.949 . S
C286 C292 1.368 . S
C287 C271 1.349 . S
C287 H279 0.950 . S
C287 C285 1.327 . S
C288 C276 1.349 . S
C288 H282 0.950 . S
C288 C289 1.327 . S
C289 H283 0.950 . S
C289 C288 1.327 . S
C289 C293 1.429 . S
C290 C273 1.574 . S
C290 H284 0.949 . S
C290 C294 1.368 . S
C291 C272 1.429 . S
C291 C285 1.429 . S
C291 C292 1.523 . S
C292 C273 1.368 . S
C292 C286 1.368 . S
C292 C291 1.523 . S
C293 C277 1.429 . S
C293 C289 1.429 . S
C293 C294 1.523 . S
C294 C278 1.368 . S
C294 C290 1.368 . S
C294 C293 1.523 . S
H295 C270 0.950 . S
H296 C272 0.950 . S
H297 C273 0.949 . S
H298 C275 0.950 . S
H299 C277 0.950 . S
C300 C301 1.349 . S
C300 C302 1.327 . S
C300 H325 0.950 . S
C301 C300 1.349 . S
C301 C317 1.349 . S
C302 C300 1.327 . S
C302 C321 1.429 . S
C302 H326 0.950 . S
C303 C320 1.574 . S
C303 C322 1.368 . S
C303 H327 0.949 . S
H304 C308 0.949 . S
C305 C306 1.349 . S
C305 C307 1.327 . S
C305 H328 0.950 1_545 S
C306 C305 1.349 . S
C306 C318 1.349 . S
C307 C305 1.327 . S
C307 C323 1.429 . S
C307 H329 0.950 1_545 S
C308 H304 0.949 . S
C308 C316 1.574 . S
C308 C324 1.368 . S
H309 C317 0.950 . S
H310 C315 0.950 . S
H311 C316 0.949 . S
H312 C318 0.950 . S
H313 C319 0.950 . S
H314 C320 0.949 . S
C315 H310 0.950 . S
C315 C317 1.327 . S
C315 C321 1.429 . S
C316 C308 1.574 . S
C316 H311 0.949 . S
C316 C322 1.368 . S
C317 C301 1.349 . S
C317 H309 0.950 . S
C317 C315 1.327 . S
C318 C306 1.349 . S
C318 H312 0.950 . S
C318 C319 1.327 . S
C319 H313 0.950 . S
C319 C318 1.327 . S
C319 C323 1.429 . S
C320 C303 1.574 . S
C320 H314 0.949 . S
C320 C324 1.368 . S
C321 C302 1.429 . S
C321 C315 1.429 . S
C321 C322 1.523 . S
C322 C303 1.368 . S
C322 C316 1.368 . S
C322 C321 1.523 . S
C323 C307 1.429 . S
C323 C319 1.429 . S
C323 C324 1.523 . S
C324 C308 1.368 . S
C324 C320 1.368 . S
C324 C323 1.523 . S
H325 C300 0.950 . S
H326 C302 0.950 . S
H327 C303 0.949 . S
H328 C305 0.950 1_565 S
H329 C307 0.950 1_565 S
C330 C331 1.349 . S
C330 C332 1.327 . S
C330 H355 0.950 . S
C331 C330 1.349 . S
C331 C347 1.349 . S
C332 C330 1.327 . S
C332 C351 1.429 . S
C332 H356 0.950 . S
C333 C350 1.574 . S
C333 C352 1.368 . S
C333 H357 0.949 . S
H334 C338 0.949 . S
C335 C336 1.349 . S
C335 C337 1.327 . S
C335 H358 0.950 . S
C336 C335 1.349 . S
C336 C348 1.349 . S
C337 C335 1.327 . S
C337 C353 1.429 . S
C337 H359 0.950 . S
C338 H334 0.949 . S
C338 C346 1.574 . S
C338 C354 1.368 . S
H339 C347 0.950 . S
H340 C345 0.950 . S
H341 C346 0.949 . S
H342 C348 0.950 . S
H343 C349 0.950 . S
H344 C350 0.949 . S
C345 H340 0.950 . S
C345 C347 1.327 . S
C345 C351 1.429 . S
C346 C338 1.574 . S
C346 H341 0.949 . S
C346 C352 1.368 . S
C347 C331 1.349 . S
C347 H339 0.950 . S
C347 C345 1.327 . S
C348 C336 1.349 . S
C348 H342 0.950 . S
C348 C349 1.327 . S
C349 H343 0.950 . S
C349 C348 1.327 . S
C349 C353 1.429 . S
C350 C333 1.574 . S
C350 H344 0.949 . S
C350 C354 1.368 . S
C351 C332 1.429 . S
C351 C345 1.429 . S
C351 C352 1.523 . S
C352 C333 1.368 . S
C352 C346 1.368 . S
C352 C351 1.523 . S
C353 C337 1.429 . S
C353 C349 1.429 . S
C353 C354 1.523 . S
C354 C338 1.368 . S
C354 C350 1.368 . S
C354 C353 1.523 . S
H355 C330 0.950 . S
H356 C332 0.950 . S
H357 C333 0.949 . S
H358 C335 0.950 . S
H359 C337 0.950 . S
C360 C361 1.349 . S
C360 C362 1.327 . S
C360 H385 0.950 . S
C361 C360 1.349 . S
C361 C377 1.349 1_545 S
C362 C360 1.327 . S
C362 C381 1.429 . S
C362 H386 0.950 . S
C363 C380 1.574 . S
C363 C382 1.368 1_565 S
C363 H387 0.949 . S
H364 C368 0.949 . S
C365 C366 1.349 1_565 S
C365 C367 1.327 . S
C365 H388 0.950 . S
C366 C365 1.349 1_545 S
C366 C378 1.349 . S
C367 C365 1.327 . S
C367 C383 1.429 1_565 S
C367 H389 0.950 . S
C368 H364 0.949 . S
C368 C376 1.574 . S
C368 C384 1.368 . S
H369 C377 0.950 . S
H370 C375 0.950 . S
H371 C376 0.949 . S
H372 C378 0.950 . S
H373 C379 0.950 . S
H374 C380 0.949 . S
C375 H370 0.950 . S
C375 C377 1.327 . S
C375 C381 1.429 1_565 S
C376 C368 1.574 . S
C376 H371 0.949 . S
C376 C382 1.368 . S
C377 C361 1.349 1_565 S
C377 H369 0.950 . S
C377 C375 1.327 . S
C378 C366 1.349 . S
C378 H372 0.950 . S
C378 C379 1.327 . S
C379 H373 0.950 . S
C379 C378 1.327 . S
C379 C383 1.429 . S
C380 C363 1.574 . S
C380 H374 0.949 . S
C380 C384 1.368 1_565 S
C381 C362 1.429 . S
C381 C375 1.429 1_545 S
C381 C382 1.523 . S
C382 C363 1.368 1_545 S
C382 C376 1.368 . S
C382 C381 1.523 . S
C383 C367 1.429 1_545 S
C383 C379 1.429 . S
C383 C384 1.523 . S
C384 C368 1.368 . S
C384 C380 1.368 1_545 S
C384 C383 1.523 . S
H385 C360 0.950 . S
H386 C362 0.950 . S
H387 C363 0.949 . S
H388 C365 0.950 . S
H389 C367 0.950 . S
C390 C391 1.349 . S
C390 C392 1.327 . S
C390 H415 0.950 1_655 S
C391 C390 1.349 . S
C391 C407 1.349 . S
C392 C390 1.327 . S
C392 C411 1.429 . S
C392 H416 0.950 1_554 S
C393 C410 1.603 . S
C393 C412 1.386 . S
C393 H417 0.908 1_556 S
H394 C398 0.949 . S
C395 C396 1.349 . S
C395 C397 1.327 . S
C395 H418 0.950 . S
C396 C395 1.349 . S
C396 C408 1.349 . S
C397 C395 1.327 . S
C397 C413 1.429 . S
C397 H419 0.950 . S
C398 H394 0.949 . S
C398 C406 1.574 . S
C398 C414 1.368 . S
H399 C407 0.950 . S
H400 C405 0.950 . S
H401 C406 0.949 . S
H402 C408 0.950 . S
H403 C409 0.950 . S
H404 C410 0.949 . S
C405 H400 0.950 . S
C405 C407 1.327 . S
C405 C411 1.429 . S
C406 C398 1.574 . S
C406 H401 0.949 . S
C406 C412 1.368 . S
C407 C391 1.349 . S
C407 H399 0.950 . S
C407 C405 1.327 . S
C408 C396 1.349 . S
C408 H402 0.950 . S
C408 C409 1.327 . S
C409 H403 0.950 . S
C409 C408 1.327 . S
C409 C413 1.429 . S
C410 C393 1.603 . S
C410 H404 0.949 . S
C410 C414 1.368 . S
C411 C392 1.429 . S
C411 C405 1.429 . S
C411 C412 1.523 1_554 S
C412 C393 1.386 . S
C412 C406 1.368 . S
C412 C411 1.523 1_556 S
C413 C397 1.429 . S
C413 C409 1.429 . S
C413 C414 1.523 . S
C414 C398 1.368 . S
C414 C410 1.368 . S
C414 C413 1.523 . S
H415 C390 0.950 1_455 S
H416 C392 0.950 1_556 S
H417 C393 0.908 1_554 S
H418 C395 0.950 . S
H419 C397 0.950 . S
C420 C421 1.349 . S
C420 C422 1.327 . S
C420 H445 0.951 . S
C421 C420 1.349 . S
C421 C437 1.349 1_455 S
C422 C420 1.327 . S
C422 C441 1.429 . S
C422 H446 0.950 . S
C423 C440 1.574 . S
C423 C442 1.368 1_655 S
C423 H447 0.949 . S
H424 C428 0.949 . S
C425 C426 1.349 1_655 S
C425 C427 1.327 . S
C425 H448 0.950 . S
C426 C425 1.349 1_455 S
C426 C438 1.349 . S
C427 C425 1.327 . S
C427 C443 1.429 1_655 S
C427 H449 0.950 . S
C428 H424 0.949 . S
C428 C436 1.574 . S
C428 C444 1.368 . S
H429 C437 0.950 . S
H430 C435 0.950 . S
H431 C436 0.949 . S
H432 C438 0.950 . S
H433 C439 0.950 . S
H434 C440 0.949 . S
C435 H430 0.950 . S
C435 C437 1.327 . S
C435 C441 1.429 1_655 S
C436 C428 1.574 . S
C436 H431 0.949 . S
C436 C442 1.368 . S
C437 C421 1.349 1_655 S
C437 H429 0.950 . S
C437 C435 1.327 . S
C438 C426 1.349 . S
C438 H432 0.950 . S
C438 C439 1.327 . S
C439 H433 0.950 . S
C439 C438 1.327 . S
C439 C443 1.429 . S
C440 C423 1.574 . S
C440 H434 0.949 . S
C440 C444 1.368 1_655 S
C441 C422 1.429 . S
C441 C435 1.429 1_455 S
C441 C442 1.523 . S
C442 C423 1.368 1_455 S
C442 C436 1.368 . S
C442 C441 1.523 . S
C443 C427 1.429 1_455 S
C443 C439 1.429 . S
C443 C444 1.523 . S
C444 C428 1.368 . S
C444 C440 1.368 1_455 S
C444 C443 1.523 . S
H445 C420 0.951 . S
H446 C422 0.950 . S
H447 C423 0.949 . S
H448 C425 0.950 . S
H449 C427 0.950 . S
C450 C451 1.349 1_545 S
C450 C452 1.327 . S
C450 H475 0.950 . S
C451 C450 1.349 1_565 S
C451 C467 1.349 . S
C452 C450 1.327 . S
C452 C471 1.429 . S
C452 H476 0.950 . S
C453 C470 1.574 . S
C453 C472 1.368 1_565 S
C453 H477 0.949 . S
H454 C458 0.949 . S
C455 C456 1.349 1_565 S
C455 C457 1.327 . S
C455 H478 0.950 . S
C456 C455 1.349 1_545 S
C456 C468 1.349 . S
C457 C455 1.327 . S
C457 C473 1.429 1_565 S
C457 H479 0.950 . S
C458 H454 0.949 . S
C458 C466 1.574 . S
C458 C474 1.368 . S
H459 C467 0.950 . S
H460 C465 0.950 . S
H461 C466 0.949 . S
H462 C468 0.950 . S
H463 C469 0.950 . S
H464 C470 0.949 . S
C465 H460 0.950 . S
C465 C467 1.327 . S
C465 C471 1.429 1_565 S
C466 C458 1.574 . S
C466 H461 0.949 . S
C466 C472 1.368 . S
C467 C451 1.349 . S
C467 H459 0.950 . S
C467 C465 1.327 . S
C468 C456 1.349 . S
C468 H462 0.950 . S
C468 C469 1.327 . S
C469 H463 0.950 . S
C469 C468 1.327 . S
C469 C473 1.429 . S
C470 C453 1.574 . S
C470 H464 0.949 . S
C470 C474 1.368 1_565 S
C471 C452 1.429 . S
C471 C465 1.429 1_545 S
C471 C472 1.523 . S
C472 C453 1.368 1_545 S
C472 C466 1.368 . S
C472 C471 1.523 . S
C473 C457 1.429 1_545 S
C473 C469 1.429 . S
C473 C474 1.523 . S
C474 C458 1.368 . S
C474 C470 1.368 1_545 S
C474 C473 1.523 . S
H475 C450 0.950 . S
H476 C452 0.950 . S
H477 C453 0.949 . S
H478 C455 0.950 . S
H479 C457 0.950 . S
C480 C481 1.349 . S
C480 C482 1.327 1_554 S
C480 H505 0.950 . S
C481 C480 1.349 . S
C481 C497 1.349 . S
C482 C480 1.327 1_556 S
C482 C501 1.429 1_556 S
C482 H506 0.950 . S
C483 C500 1.574 1_554 S
C483 C502 1.368 1_554 S
C483 H507 0.949 . S
H484 C488 0.949 . S
C485 C486 1.349 . S
C485 C487 1.327 . S
C485 H508 0.950 . S
C486 C485 1.349 . S
C486 C498 1.349 . S
C487 C485 1.327 . S
C487 C503 1.429 . S
C487 H509 0.950 . S
C488 H484 0.949 . S
C488 C496 1.574 . S
C488 C504 1.368 . S
H489 C497 0.950 . S
H490 C495 0.950 . S
H491 C496 0.949 . S
H492 C498 0.950 . S
H493 C499 0.950 . S
H494 C500 0.949 . S
C495 H490 0.950 . S
C495 C497 1.327 . S
C495 C501 1.429 . S
C496 C488 1.574 . S
C496 H491 0.949 . S
C496 C502 1.368 . S
C497 C481 1.349 . S
C497 H489 0.950 . S
C497 C495 1.327 . S
C498 C486 1.349 . S
C498 H492 0.950 . S
C498 C499 1.327 . S
C499 H493 0.950 . S
C499 C498 1.327 . S
C499 C503 1.429 . S
C500 C483 1.574 1_556 S
C500 H494 0.949 . S
C500 C504 1.368 . S
C501 C482 1.429 1_554 S
C501 C495 1.429 . S
C501 C502 1.523 1_554 S
C502 C483 1.368 1_556 S
C502 C496 1.368 . S
C502 C501 1.523 1_556 S
C503 C487 1.429 . S
C503 C499 1.429 . S
C503 C504 1.523 . S
C504 C488 1.368 . S
C504 C500 1.368 . S
C504 C503 1.523 . S
H505 C480 0.950 . S
H506 C482 0.950 . S
H507 C483 0.949 . S
H508 C485 0.950 . S
H509 C487 0.950 . S
C510 C511 1.349 . S
C510 C512 1.327 . S
C510 H535 0.950 . S
C511 C510 1.349 . S
C511 C527 1.349 . S
C512 C510 1.327 . S
C512 C531 1.429 . S
C512 H536 0.950 . S
C513 C530 1.574 . S
C513 C532 1.368 1_655 S
C513 H537 0.949 . S
H514 C518 0.949 . S
C515 C516 1.349 1_655 S
C515 C517 1.327 . S
C515 H538 0.950 . S
C516 C515 1.349 1_455 S
C516 C528 1.349 . S
C517 C515 1.327 . S
C517 C533 1.429 1_655 S
C517 H539 0.950 . S
C518 H514 0.949 . S
C518 C526 1.574 . S
C518 C534 1.368 . S
H519 C527 0.950 1_655 S
H520 C525 0.950 1_655 S
H521 C526 0.949 . S
H522 C528 0.950 . S
H523 C529 0.950 . S
H524 C530 0.949 . S
C525 H520 0.950 1_455 S
C525 C527 1.327 . S
C525 C531 1.429 . S
C526 C518 1.574 . S
C526 H521 0.949 . S
C526 C532 1.368 . S
C527 C511 1.349 . S
C527 H519 0.950 1_455 S
C527 C525 1.327 . S
C528 C516 1.349 . S
C528 H522 0.950 . S
C528 C529 1.327 . S
C529 H523 0.950 . S
C529 C528 1.327 . S
C529 C533 1.429 . S
C530 C513 1.574 . S
C530 H524 0.949 . S
C530 C534 1.368 1_655 S
C531 C512 1.429 . S
C531 C525 1.429 . S
C531 C532 1.523 . S
C532 C513 1.368 1_455 S
C532 C526 1.368 . S
C532 C531 1.523 . S
C533 C517 1.429 1_455 S
C533 C529 1.429 . S
C533 C534 1.523 . S
C534 C518 1.368 . S
C534 C530 1.368 1_455 S
C534 C533 1.523 . S
H535 C510 0.950 . S
H536 C512 0.950 . S
H537 C513 0.949 . S
H538 C515 0.950 . S
H539 C517 0.950 . S
C186 C50 1.294 . S
C181 C11 1.283 . S
C211 C25 1.357 . S
C216 C89 1.369 . S
C241 C41 1.355 . S
C246 C156 1.415 . S
C271 C7 1.318 . S
C276 C57 1.322 . S
C306 C110 1.393 . S
C301 C21 1.388 . S
C331 C36 1.374 . S
C336 C135 1.428 . S
C366 C96 1.363 . S
C361 C39 1.351 . S
C391 C8 1.368 1_665 S
C396 C149 1.429 . S
C426 C64 1.486 . S
C421 C22 1.428 1_565 S
C456 C103 1.387 . S
C451 C35 1.383 . S
C486 C142 1.413 . S
C481 C13 1.350 . S
C511 C27 1.405 . S
C516 C43 1.457 . S
