# Generated by pormake.
# Topology zzz, (3,6)-cn, num edge types: 1
# Building blocks:
#     Node 0, Type 0, BuildingBlock: QEWDON_clean_linker_0, # of connection points: 3
#     Node 1, Type 0, BuildingBlock: QEWDON_clean_linker_0, # of connection points: 3
#     Node 2, Type 0, BuildingBlock: QEWDON_clean_linker_0, # of connection points: 3
#     Node 3, Type 0, BuildingBlock: QEWDON_clean_linker_0, # of connection points: 3
#     Node 4, Type 0, BuildingBlock: QEWDON_clean_linker_0, # of connection points: 3
#     Node 5, Type 0, BuildingBlock: QEWDON_clean_linker_0, # of connection points: 3
#     Node 6, Type 0, BuildingBlock: QEWDON_clean_linker_0, # of connection points: 3
#     Node 7, Type 0, BuildingBlock: QEWDON_clean_linker_0, # of connection points: 3
#     Node 8, Type 1, BuildingBlock: FUNLAD_clean_sbu_0, # of connection points: 6
#     Node 9, Type 1, BuildingBlock: FUNLAD_clean_sbu_0, # of connection points: 6
#     Node 10, Type 1, BuildingBlock: FUNLAD_clean_sbu_0, # of connection points: 6
#     Node 11, Type 1, BuildingBlock: FUNLAD_clean_sbu_0, # of connection points: 6
#     Edge 12, Type (0, 1), BuildingBlock: UVAHIK_clean_linker_0, # of connection points: 2
#     Edge 13, Type (0, 1), BuildingBlock: UVAHIK_clean_linker_0, # of connection points: 2
#     Edge 14, Type (0, 1), BuildingBlock: UVAHIK_clean_linker_0, # of connection points: 2
#     Edge 15, Type (0, 1), BuildingBlock: UVAHIK_clean_linker_0, # of connection points: 2
#     Edge 16, Type (0, 1), BuildingBlock: UVAHIK_clean_linker_0, # of connection points: 2
#     Edge 17, Type (0, 1), BuildingBlock: UVAHIK_clean_linker_0, # of connection points: 2
#     Edge 18, Type (0, 1), BuildingBlock: UVAHIK_clean_linker_0, # of connection points: 2
#     Edge 19, Type (0, 1), BuildingBlock: UVAHIK_clean_linker_0, # of connection points: 2
#     Edge 20, Type (0, 1), BuildingBlock: UVAHIK_clean_linker_0, # of connection points: 2
#     Edge 21, Type (0, 1), BuildingBlock: UVAHIK_clean_linker_0, # of connection points: 2
#     Edge 22, Type (0, 1), BuildingBlock: UVAHIK_clean_linker_0, # of connection points: 2
#     Edge 23, Type (0, 1), BuildingBlock: UVAHIK_clean_linker_0, # of connection points: 2
#     Edge 24, Type (0, 1), BuildingBlock: UVAHIK_clean_linker_0, # of connection points: 2
#     Edge 25, Type (0, 1), BuildingBlock: UVAHIK_clean_linker_0, # of connection points: 2
#     Edge 26, Type (0, 1), BuildingBlock: UVAHIK_clean_linker_0, # of connection points: 2
#     Edge 27, Type (0, 1), BuildingBlock: UVAHIK_clean_linker_0, # of connection points: 2
#     Edge 28, Type (0, 1), BuildingBlock: UVAHIK_clean_linker_0, # of connection points: 2
#     Edge 29, Type (0, 1), BuildingBlock: UVAHIK_clean_linker_0, # of connection points: 2
#     Edge 30, Type (0, 1), BuildingBlock: UVAHIK_clean_linker_0, # of connection points: 2
#     Edge 31, Type (0, 1), BuildingBlock: UVAHIK_clean_linker_0, # of connection points: 2
#     Edge 32, Type (0, 1), BuildingBlock: UVAHIK_clean_linker_0, # of connection points: 2
#     Edge 33, Type (0, 1), BuildingBlock: UVAHIK_clean_linker_0, # of connection points: 2
#     Edge 34, Type (0, 1), BuildingBlock: UVAHIK_clean_linker_0, # of connection points: 2
#     Edge 35, Type (0, 1), BuildingBlock: UVAHIK_clean_linker_0, # of connection points: 2
# Relax obj value: 0.086
# Max RMSD: 0.173
# Mean RMSD: 0.067
data_MOF--net-zzz--node1-FUNLAD_clean_sbu_0--node2-QEWDON_clean_linker_0--edge1-UVAHIK_clean_linker_0
_symmetry_space_group_name_H-M    P1
_symmetry_Int_Tables_number       1
_symmetry_cell_setting            triclinic
loop_
_symmetry_equiv_pos_as_xyz
'x, y, z'
_cell_length_a     69.693994
_cell_length_b     75.416193
_cell_length_c     21.915211
_cell_angle_alpha  86.121635
_cell_angle_beta   85.849766
_cell_angle_gamma 89.058177
loop_
_atom_site_label
_atom_site_type_symbol
_atom_site_fract_x
_atom_site_fract_y
_atom_site_fract_z
_atom_type_partial_charge
H0 H 0.79797 0.51983 0.13704 0.0
C1 C 0.80436 0.51747 0.18054 0.0
C2 C 0.82162 0.50772 0.18252 0.0
C3 C 0.796 0.52505 0.23336 0.0
H4 H 0.84439 0.49876 0.23848 0.0
C5 C 0.83046 0.50539 0.23786 0.0
C6 C 0.82281 0.51329 0.29046 0.0
C7 C 0.80547 0.52299 0.28824 0.0
C8 C 0.77826 0.53625 0.2294 0.0
H9 H 0.79959 0.5291 0.32898 0.0
C10 C 0.76355 0.53159 0.19281 0.0
C11 C 0.7475 0.54285 0.18488 0.0
C12 C 0.77637 0.55216 0.25947 0.0
H13 H 0.78753 0.55635 0.28705 0.0
C14 C 0.76029 0.5632 0.25261 0.0
H15 H 0.76473 0.51937 0.16942 0.0
C16 C 0.746 0.55868 0.21524 0.0
H17 H 0.73371 0.56751 0.21025 0.0
H18 H 0.75904 0.57545 0.27571 0.0
H19 H 0.99205 0.78904 0.02017 0.0
C20 C 0.99202 0.79455 0.06458 0.0
C21 C 1.00165 0.81051 0.0697 0.0
C22 C 0.98201 0.78601 0.11641 0.0
H23 H 0.0078 0.83085 0.12923 0.0
C24 C 1.00107 0.81809 0.12628 0.0
C25 C 0.99067 0.81023 0.17775 0.0
C26 C 0.9813 0.79412 0.17286 0.0
C27 C 0.97194 0.76891 0.11162 0.0
H28 H 0.97361 0.78792 0.21325 0.0
C29 C 0.98007 0.75568 0.07473 0.0
C30 C 0.9709 0.73925 0.07298 0.0
C31 C 0.9542 0.76555 0.14508 0.0
H32 H 0.94723 0.77554 0.17253 0.0
C33 C 0.9451 0.74928 0.14321 0.0
H34 H 0.99378 0.75786 0.04891 0.0
C35 C 0.95345 0.73614 0.10781 0.0
H36 H 0.94615 0.72359 0.10691 0.0
H37 H 0.93151 0.74685 0.16932 0.0
H38 H 0.74609 0.99764 0.03896 0.0
C39 C 0.73879 0.99989 0.08319 0.0
C40 C 0.72065 0.00831 0.08566 0.0
C41 C 0.74689 0.99332 0.13748 0.0
H42 H 0.69642 0.0162 0.14434 0.0
C43 C 0.71083 0.01051 0.14271 0.0
C44 C 0.71824 0.00361 0.19717 0.0
C45 C 0.73634 0.99506 0.19443 0.0
C46 C 0.76526 0.98292 0.13404 0.0
H47 H 0.74202 0.98954 0.23647 0.0
C48 C 0.78126 0.98869 0.0947 0.0
C49 C 0.79806 0.97805 0.08931 0.0
C50 C 0.76652 0.96656 0.16842 0.0
H51 H 0.75443 0.96162 0.19826 0.0
C52 C 0.78316 0.95608 0.16334 0.0
H53 H 0.78058 1.00128 0.06794 0.0
C54 C 0.79878 0.96171 0.12387 0.0
H55 H 0.81155 0.95334 0.12071 0.0
H56 H 0.78388 0.94347 0.18976 0.0
H57 H 0.53212 0.70865 0.02989 0.0
C58 C 0.53216 0.70261 0.07619 0.0
C59 C 0.52187 0.68689 0.09202 0.0
C60 C 0.54326 0.71003 0.11912 0.0
H61 H 0.51536 0.66627 0.16289 0.0
C62 C 0.52251 0.67884 0.15141 0.0
C63 C 0.5336 0.68584 0.1946 0.0
C64 C 0.54399 0.70145 0.17825 0.0
C65 C 0.55537 0.72584 0.1007 0.0
H66 H 0.55271 0.70684 0.21142 0.0
C67 C 0.54803 0.74084 0.06743 0.0
C68 C 0.55995 0.75545 0.04869 0.0
C69 C 0.5747 0.72572 0.11522 0.0
H70 H 0.58082 0.71432 0.13995 0.0
C71 C 0.58649 0.74015 0.09686 0.0
H72 H 0.53316 0.74111 0.056 0.0
C73 C 0.57923 0.75488 0.06378 0.0
H74 H 0.58865 0.76599 0.05066 0.0
H75 H 0.60135 0.73988 0.10821 0.0
H76 H 0.24077 0.52271 0.2374 0.0
C77 C 0.23427 0.51737 0.19918 0.0
C78 C 0.21593 0.50992 0.20871 0.0
C79 C 0.24392 0.51854 0.14032 0.0
H80 H 0.19277 0.49831 0.16585 0.0
C81 C 0.20729 0.50342 0.15917 0.0
C82 C 0.21634 0.50494 0.09999 0.0
C83 C 0.23466 0.51255 0.09052 0.0
C84 C 0.2632 0.52685 0.13116 0.0
H85 H 0.2416 0.51378 0.04458 0.0
C86 C 0.27694 0.52334 0.17463 0.0
C87 C 0.29462 0.53221 0.16909 0.0
C88 C 0.26768 0.53899 0.08078 0.0
H89 H 0.25735 0.54214 0.04692 0.0
C90 C 0.28534 0.54767 0.0747 0.0
H91 H 0.27376 0.51393 0.21352 0.0
C92 C 0.29869 0.54444 0.11883 0.0
H93 H 0.31224 0.5514 0.1135 0.0
H94 H 0.28859 0.5571 0.03603 0.0
H95 H 0.01809 0.22705 0.35289 0.0
C96 C 0.02682 0.22113 0.31647 0.0
C97 C 0.03362 0.20364 0.32577 0.0
C98 C 0.03052 0.23068 0.25944 0.0
H99 H 0.0488 0.18196 0.28466 0.0
C100 C 0.04436 0.19578 0.27817 0.0
C101 C 0.04777 0.2048 0.22052 0.0
C102 C 0.04081 0.2223 0.21126 0.0
C103 C 0.02233 0.24885 0.24922 0.0
H104 H 0.04325 0.22928 0.16657 0.0
C105 C 0.02343 0.26147 0.29341 0.0
C106 C 0.01445 0.27823 0.28555 0.0
C107 C 0.01252 0.25339 0.19642 0.0
H108 H 0.01126 0.24391 0.162 0.0
C109 C 1.00368 0.27005 0.18844 0.0
H110 H 0.03103 0.25821 0.33421 0.0
C111 C 1.00449 0.28237 0.23291 0.0
H112 H 0.99751 0.29521 0.22596 0.0
H113 H 0.99602 0.27337 0.14789 0.0
H114 H 0.29434 0.00362 0.3586 0.0
C115 C 0.30181 0.00813 0.31539 0.0
C116 C 0.32074 0.0143 0.31495 0.0
C117 C 0.29296 0.00693 0.25996 0.0
H118 H 0.34564 0.02345 0.25853 0.0
C119 C 0.33073 0.01946 0.25901 0.0
C120 C 0.32255 0.01782 0.20336 0.0
C121 C 0.30361 0.01166 0.2039 0.0
C122 C 0.27342 0.99908 0.26029 0.0
H123 H 0.29735 0.01034 0.16063 0.0
C124 C 0.25848 0.0031 0.30472 0.0
C125 C 0.2405 0.99467 0.30613 0.0
C126 C 0.26988 0.98677 0.21704 0.0
H127 H 0.28106 0.98308 0.18315 0.0
C128 C 0.25205 0.97863 0.21794 0.0
H129 H 0.26086 0.01254 0.33846 0.0
C130 C 0.2375 0.98246 0.26223 0.0
H131 H 0.22379 0.97589 0.26209 0.0
H132 H 0.24957 0.96915 0.1845 0.0
H133 H 0.53341 0.30405 0.33917 0.0
C134 C 0.52613 0.31066 0.30175 0.0
C135 C 0.51874 0.32797 0.30757 0.0
C136 C 0.52494 0.30226 0.24659 0.0
H137 H 0.50518 0.35045 0.26137 0.0
C138 C 0.51 0.33676 0.25818 0.0
C139 C 0.50914 0.32888 0.20254 0.0
C140 C 0.51645 0.31158 0.1971 0.0
C141 C 0.53397 0.28445 0.23835 0.0
H142 H 0.51579 0.30553 0.15385 0.0
C143 C 0.53199 0.27047 0.28462 0.0
C144 C 0.54064 0.25368 0.27553 0.0
C145 C 0.54485 0.28146 0.18334 0.0
H146 H 0.54702 0.29198 0.14748 0.0
C147 C 0.55327 0.26491 0.174 0.0
H148 H 0.52376 0.27264 0.32736 0.0
C149 C 0.55114 0.25112 0.21939 0.0
H150 H 0.55757 0.23832 0.21006 0.0
H151 H 0.56149 0.26276 0.13125 0.0
C152 C 0.03146 0.97573 0.76379 0.0
N153 N 0.00707 0.98595 0.5978 0.0
C154 C 0.02011 0.97323 0.58083 0.0
C155 C 0.01462 0.95911 0.54863 0.0
C156 C 0.99558 0.95807 0.5331 0.0
C157 C 0.98267 0.97195 0.54683 0.0
C158 C 0.98874 0.98587 0.57995 0.0
Zn159 Zn 0.01522 1.00138 0.665 0.0
C160 C 0.9839 0.00419 0.76521 0.0
N161 N 0.03427 0.02861 0.81408 0.0
C162 C 0.05296 0.02874 0.82854 0.0
C163 C 0.02118 0.04045 0.83719 0.0
C164 C 0.02675 0.05333 0.87485 0.0
C165 C 0.04608 0.05434 0.88786 0.0
C166 C 0.05925 0.0417 0.86509 0.0
Zn167 Zn 0.02577 0.01345 0.7465 0.0
O168 O 0.02426 0.97769 0.71217 0.0
C169 C 0.05701 0.01047 0.64536 0.0
O170 O 0.03403 0.9893 0.79353 0.0
H171 H 0.00655 0.04058 0.82396 0.0
H172 H 0.03451 0.97327 0.59608 0.0
H173 H 0.0632 0.0193 0.8096 0.0
O174 O 0.04308 0.00426 0.61948 0.0
O175 O 0.05403 0.01549 0.69956 0.0
H176 H 0.97852 0.99595 0.59456 0.0
O177 O 0.01719 0.03718 0.69903 0.0
O178 O 0.00645 0.02552 0.61897 0.0
O179 O 0.99747 0.01103 0.79122 0.0
O180 O 0.98732 0.99872 0.71182 0.0
C181 C 0.00952 0.03912 0.64811 0.0
H182 H 0.02495 0.94863 0.53847 0.0
H183 H 0.96782 0.97147 0.53552 0.0
H184 H 0.01624 0.06301 0.89088 0.0
H185 H 0.07429 0.04209 0.87439 0.0
C186 C 0.49108 0.0031 0.62494 0.0
N187 N 0.52041 0.04901 0.66194 0.0
C188 C 0.52213 0.05299 0.60027 0.0
C189 C 0.52336 0.07061 0.57665 0.0
C190 C 0.52243 0.08439 0.61662 0.0
C191 C 0.52001 0.08005 0.68004 0.0
C192 C 0.5192 0.06213 0.70191 0.0
Zn193 Zn 0.52025 0.02239 0.69088 0.0
C194 C 0.49127 0.01313 0.7921 0.0
N195 N 0.52015 0.96621 0.73946 0.0
C196 C 0.52162 0.95356 0.69785 0.0
C197 C 0.51916 0.96161 0.80075 0.0
C198 C 0.51965 0.94376 0.8223 0.0
C199 C 0.52137 0.9304 0.78053 0.0
C200 C 0.52235 0.9355 0.71747 0.0
Zn201 Zn 0.52008 0.99288 0.71154 0.0
O202 O 0.4982 0.01818 0.63197 0.0
C203 C 0.549 1.00227 0.60997 0.0
O204 O 0.49807 0.98925 0.65191 0.0
H205 H 0.5182 0.97183 0.83317 0.0
H206 H 0.52275 0.04247 0.56905 0.0
H207 H 0.52237 0.95746 0.64934 0.0
O208 O 0.54204 0.0175 0.62093 0.0
O209 O 0.54212 0.98862 0.6407 0.0
H210 H 0.51781 0.05871 0.75075 0.0
O211 O 0.54207 0.99709 0.77051 0.0
O212 O 0.54231 0.02603 0.75048 0.0
O213 O 0.49801 0.99777 0.78147 0.0
O214 O 0.49849 0.0267 0.76166 0.0
C215 C 0.54926 0.01216 0.77745 0.0
H216 H 0.52498 0.07344 0.52743 0.0
H217 H 0.51928 0.09036 0.71225 0.0
H218 H 0.51913 0.94047 0.87127 0.0
H219 H 0.52355 0.92564 0.68367 0.0
C220 C 0.52926 0.48226 0.62677 0.0
N221 N 0.47569 0.50797 0.65145 0.0
C222 C 0.47608 0.50596 0.59009 0.0
C223 C 0.45907 0.50589 0.56051 0.0
C224 C 0.44145 0.50838 0.59391 0.0
C225 C 0.44132 0.51071 0.65693 0.0
C226 C 0.45874 0.51025 0.68518 0.0
Zn227 Zn 0.50176 0.50816 0.68946 0.0
C228 C 0.50595 0.48066 0.78924 0.0
N229 N 0.55783 0.5084 0.7562 0.0
C230 C 0.57449 0.51128 0.72075 0.0
C231 C 0.55781 0.50616 0.81836 0.0
C232 C 0.57495 0.50667 0.8472 0.0
C233 C 0.5923 0.50983 0.81197 0.0
C234 C 0.592 0.51219 0.74793 0.0
Zn235 Zn 0.53174 0.50808 0.71874 0.0
O236 O 0.51212 0.48824 0.6319 0.0
C237 C 0.52744 0.53548 0.61838 0.0
O238 O 0.54194 0.48868 0.65761 0.0
H239 H 0.54442 0.5042 0.8459 0.0
H240 H 0.48965 0.5046 0.56359 0.0
H241 H 0.57419 0.51304 0.67144 0.0
O242 O 0.51084 0.52857 0.62286 0.0
O243 O 0.54009 0.52928 0.6533 0.0
H244 H 0.45873 0.51189 0.73383 0.0
O245 O 0.52114 0.5274 0.77994 0.0
O246 O 0.49206 0.52812 0.74738 0.0
O247 O 0.52286 0.48689 0.78235 0.0
O248 O 0.49292 0.48765 0.75729 0.0
C249 C 0.5042 0.53396 0.78139 0.0
H250 H 0.45969 0.50433 0.51161 0.0
H251 H 0.42791 0.51273 0.68392 0.0
H252 H 0.57456 0.50507 0.89677 0.0
H253 H 0.60513 0.51464 0.71928 0.0
C254 C 0.04945 0.51368 0.6126 0.0
N255 N 0.02115 0.46599 0.67025 0.0
C256 C 0.02447 0.46319 0.60963 0.0
C257 C 0.02531 0.44599 0.58988 0.0
C258 C 0.02223 0.43147 0.63259 0.0
C259 C 0.01854 0.43461 0.69478 0.0
C260 C 0.01827 0.4521 0.71285 0.0
Zn261 Zn 0.02001 0.49197 0.69382 0.0
C262 C 0.04766 0.50014 0.7821 0.0
N263 N 0.0181 0.54717 0.72949 0.0
C264 C 0.01985 0.56096 0.68606 0.0
C265 C 0.0149 0.55013 0.79002 0.0
C266 C 0.01267 0.5674 0.80871 0.0
C267 C 0.01422 0.58181 0.76495 0.0
C268 C 0.01814 0.57854 0.70301 0.0
Zn269 Zn 0.01946 0.52116 0.70639 0.0
O270 O 0.04269 0.49828 0.62668 0.0
C271 C 0.992 0.51293 0.61745 0.0
O272 O 0.04191 0.52694 0.63844 0.0
H273 H 0.01385 0.53906 0.82404 0.0
H274 H 0.02631 0.47434 0.57616 0.0
H275 H 0.02236 0.55835 0.6382 0.0
O276 O 0.99911 0.49758 0.62981 0.0
O277 O 0.99828 0.52622 0.64235 0.0
H278 H 0.01561 0.45457 0.76078 0.0
O279 O 0.99702 0.51489 0.7737 0.0
O280 O 0.99734 0.48624 0.76185 0.0
O281 O 0.04071 0.51556 0.76971 0.0
O282 O 0.04099 0.48684 0.75817 0.0
C283 C 0.99002 0.49959 0.78779 0.0
H284 H 0.02789 0.44408 0.54141 0.0
H285 H 0.01606 0.42367 0.72894 0.0
H286 H 0.00981 0.5695 0.85696 0.0
H287 H 0.01938 0.58942 0.66813 0.0
C288 C 0.21665 0.01516 0.35859 0.0
C289 C 0.22465 0.99807 0.35316 0.0
C290 C 0.19963 0.01761 0.39568 0.0
C291 C 0.15707 0.99179 0.45947 0.0
H292 H 0.14434 0.03341 0.54953 0.0
C293 C 0.07951 0.00518 0.55364 0.0
C294 C 0.07657 0.0111 0.61313 0.0
C295 C 0.09794 0.00473 0.52402 0.0
C296 C 0.14773 0.02164 0.52496 0.0
H297 H 0.222 0.97039 0.38529 0.0
H298 H 0.19286 0.97466 0.45129 0.0
H299 H 0.17647 0.03034 0.49786 0.0
H300 H 0.09081 0.02163 0.68745 0.0
H301 H 0.12312 0.02069 0.63573 0.0
H302 H 0.12862 0.9829 0.48698 0.0
C303 C 0.1992 0.98614 0.42558 0.0
C304 C 0.1661 0.01996 0.49482 0.0
C305 C 0.21601 0.98369 0.3882 0.0
C306 C 0.09254 0.01697 0.64166 0.0
C307 C 0.11107 0.01652 0.61188 0.0
C308 C 0.13881 0.99347 0.48941 0.0
C309 C 0.19038 0.00301 0.42831 0.0
C310 C 0.17102 0.00498 0.46168 0.0
C311 C 0.11404 0.01013 0.55298 0.0
C312 C 0.1338 0.00844 0.52229 0.0
H313 H 0.22298 0.02645 0.33169 0.0
H314 H 0.19325 0.03079 0.39637 0.0
H315 H 0.16012 0.9802 0.43366 0.0
H316 H 0.06757 1.00066 0.52998 0.0
H317 H 0.09958 1.00006 0.47825 0.0
C318 C 0.52104 0.23484 0.35657 0.0
C319 C 0.5387 0.23855 0.32309 0.0
C320 C 0.51885 0.21928 0.39529 0.0
C321 C 0.5376 0.17404 0.40676 0.0
H322 H 0.51622 0.17064 0.57535 0.0
C323 C 0.54012 0.10772 0.54959 0.0
C324 C 0.52452 0.10308 0.59137 0.0
C325 C 0.54161 0.1249 0.52177 0.0
C326 C 0.52197 0.1713 0.52804 0.0
H327 H 0.56829 0.22948 0.30829 0.0
H328 H 0.56428 0.2023 0.37412 0.0
H329 H 0.51875 0.19976 0.51865 0.0
H330 H 0.49842 0.11283 0.63795 0.0
H331 H 0.50058 0.14283 0.5877 0.0
H332 H 0.54032 0.1458 0.41439 0.0
C333 C 0.55209 0.21128 0.36983 0.0
C334 C 0.52347 0.188 0.49573 0.0
C335 C 0.55433 0.22683 0.3319 0.0
C336 C 0.51064 0.11612 0.60603 0.0
C337 C 0.51195 0.13331 0.57732 0.0
C338 C 0.53584 0.1574 0.43849 0.0
C339 C 0.53423 0.2071 0.40078 0.0
C340 C 0.53159 0.18953 0.43506 0.0
C341 C 0.52732 0.13786 0.53397 0.0
C342 C 0.52832 0.15576 0.49997 0.0
H343 H 0.50868 0.24351 0.35076 0.0
H344 H 0.50492 0.21636 0.41866 0.0
H345 H 0.54357 0.17478 0.35961 0.0
H346 H 0.55118 0.09798 0.53817 0.0
H347 H 0.554 0.12795 0.49031 0.0
C348 C 0.31412 0.51154 0.23503 0.0
C349 C 0.30859 0.52896 0.21654 0.0
C350 C 0.32732 0.50849 0.2798 0.0
C351 C 0.34677 0.52751 0.41069 0.0
H352 H 0.39201 0.4986 0.37299 0.0
C353 C 0.41212 0.52456 0.55974 0.0
C354 C 0.42353 0.50908 0.56172 0.0
C355 C 0.39674 0.52613 0.52201 0.0
C356 C 0.3793 0.50639 0.38513 0.0
H357 H 0.31211 0.55681 0.231 0.0
H358 H 0.33499 0.55146 0.31026 0.0
H359 H 0.36772 0.50282 0.29891 0.0
H360 H 0.42737 0.48273 0.52908 0.0
H361 H 0.39994 0.48497 0.46582 0.0
H362 H 0.35801 0.53083 0.4974 0.0
C363 C 0.32921 0.54021 0.28974 0.0
C364 C 0.36544 0.50889 0.3423 0.0
C365 C 0.31628 0.54327 0.24417 0.0
C366 C 0.41878 0.49485 0.52787 0.0
C367 C 0.4032 0.49625 0.49115 0.0
C368 C 0.36047 0.52477 0.45409 0.0
C369 C 0.33493 0.5228 0.3077 0.0
C370 C 0.34916 0.51961 0.3544 0.0
C371 C 0.39228 0.5121 0.48625 0.0
C372 C 0.37704 0.5143 0.4417 0.0
H373 H 0.30842 0.50029 0.21427 0.0
H374 H 0.33147 0.49494 0.29303 0.0
H375 H 0.33422 0.53571 0.42129 0.0
H376 H 0.41569 0.53577 0.58505 0.0
H377 H 0.3889 0.53863 0.51906 0.0
C378 C 0.03306 0.29787 0.34685 0.0
C379 C 0.01531 0.29147 0.33206 0.0
C380 C 0.03375 0.31147 0.38704 0.0
C381 C 1.00266 0.34712 0.45431 0.0
H382 H 0.04603 0.35223 0.55276 0.0
C383 C 0.00612 0.40242 0.62352 0.0
C384 C 0.02231 0.41326 0.61115 0.0
C385 C 0.00526 0.38614 0.59672 0.0
C386 C 0.03382 0.3509 0.52558 0.0
H387 H 0.98444 0.29352 0.34939 0.0
H388 H 0.98553 0.31651 0.422 0.0
H389 H 0.04417 0.3261 0.49349 0.0
H390 H 0.05061 0.41536 0.5637 0.0
H391 H 0.04936 0.38663 0.51826 0.0
H392 H 0.99221 0.37179 0.48772 0.0
C393 C 0.99897 0.3117 0.40094 0.0
C394 C 0.03279 0.33601 0.49113 0.0
C395 C 0.9983 0.2984 0.35975 0.0
C396 C 0.03797 0.40721 0.57385 0.0
C397 C 0.03729 0.39078 0.54812 0.0
C398 C 1.00352 0.36178 0.48969 0.0
C399 C 0.0167 0.31873 0.41427 0.0
C400 C 0.01732 0.33401 0.45423 0.0
C401 C 0.02076 0.38029 0.55819 0.0
C402 C 0.01922 0.36393 0.52501 0.0
H403 H 0.04636 0.29279 0.3256 0.0
H404 H 0.04768 0.31664 0.39506 0.0
H405 H 0.99073 0.34641 0.42564 0.0
H406 H 0.99381 0.40687 0.65178 0.0
H407 H 0.99238 0.37825 0.60527 0.0
C408 C 0.82276 0.9723 0.00404 0.0
C409 C 0.81506 0.98364 0.04811 0.0
C410 C 0.84004 0.97639 0.96982 0.0
C411 C 0.88526 0.99901 0.98011 0.0
H412 H 0.89233 0.99455 0.80474 0.0
C413 C 0.95893 0.01295 0.84662 0.0
C414 C 0.96427 1.00283 0.7964 0.0
C415 C 0.94032 0.01189 0.87538 0.0
C416 C 0.89076 0.9956 0.85387 0.0
H417 H 0.81917 0.00828 0.09036 0.0
H418 H 0.84973 0.01532 0.03118 0.0
H419 H 0.86045 0.99065 0.8571 0.0
H420 H 0.95427 0.98349 0.73757 0.0
H421 H 0.92221 0.98103 0.78904 0.0
H422 H 0.91557 0.00315 0.97796 0.0
C423 C 0.84227 0.00333 0.02285 0.0
C424 C 0.8724 0.9935 0.88375 0.0
C425 C 0.82474 0.9994 0.05631 0.0
C426 C 0.9506 0.99155 0.77591 0.0
C427 C 0.93209 0.99027 0.80526 0.0
C428 C 0.90369 1.00082 0.95046 0.0
C429 C 0.8502 0.99176 0.97971 0.0
C430 C 0.86945 0.9951 0.94724 0.0
C431 C 0.9266 1.00047 0.85537 0.0
C432 C 0.90678 0.99905 0.88685 0.0
H433 H 0.81559 0.96004 0.99698 0.0
H434 H 0.84584 0.96715 0.93727 0.0
H435 H 0.88349 1.00008 0.02925 0.0
H436 H 0.96906 0.02191 0.86322 0.0
H437 H 0.93668 0.02024 0.91288 0.0
C438 C 0.56339 0.77924 0.96306 0.0
C439 C 0.55253 0.77151 0.01431 0.0
C440 C 0.55758 0.79533 0.93419 0.0
C441 C 0.5302 0.83594 0.96634 0.0
H442 H 0.53525 0.84532 0.78981 0.0
C443 C 0.51049 0.90467 0.85319 0.0
C444 C 0.52256 0.91135 0.80296 0.0
C445 C 0.51225 0.887 0.8763 0.0
C446 C 0.53394 0.84301 0.83922 0.0
H447 H 0.52676 0.77437 0.07442 0.0
H448 H 0.51658 0.80261 0.02395 0.0
H449 H 0.54144 0.81543 0.83437 0.0
H450 H 0.5459 0.90461 0.73752 0.0
H451 H 0.54924 0.87393 0.77834 0.0
H452 H 0.52331 0.86355 0.97164 0.0
C453 C 0.52965 0.7962 0.00631 0.0
C454 C 0.53741 0.82583 0.86473 0.0
C455 C 0.53537 0.77996 0.03485 0.0
C456 C 0.53622 0.89983 0.77578 0.0
C457 C 0.53809 0.8822 0.7992 0.0
C458 C 0.52687 0.85314 0.9409 0.0
C459 C 0.54084 0.80419 0.95614 0.0
C460 C 0.53575 0.82212 0.92864 0.0
C461 C 0.52623 0.87555 0.85014 0.0
C462 C 0.52886 0.85698 0.87698 0.0
H463 H 0.57661 0.77297 0.9459 0.0
H464 H 0.56662 0.80116 0.896 0.0
H465 H 0.52907 0.8336 0.01578 0.0
H466 H 0.49962 0.91311 0.87461 0.0
H467 H 0.50259 0.88232 0.91471 0.0
C468 C 0.72475 0.5212 0.14759 0.0
C469 C 0.7326 0.53832 0.14368 0.0
C470 C 0.71059 0.51704 0.10897 0.0
C471 C 0.69079 0.53036 0.96175 0.0
H472 H 0.64421 0.50779 0.03413 0.0
C473 C 0.62245 0.5259 0.82901 0.0
C474 C 0.61041 0.51121 0.84277 0.0
C475 C 0.63843 0.52813 0.8627 0.0
C476 C 0.65725 0.51378 0.01276 0.0
H477 H 0.73213 0.56436 0.09551 0.0
H478 H 0.70746 0.55706 0.02772 0.0
H479 H 0.67011 0.51352 0.09869 0.0
H480 H 0.60616 0.48686 0.90006 0.0
H481 H 0.63438 0.49037 0.95745 0.0
H482 H 0.67812 0.53047 0.87568 0.0
C483 C 0.71223 0.54689 0.06075 0.0
C484 C 0.67206 0.51712 0.04997 0.0
C485 C 0.72619 0.55111 0.09988 0.0
C486 C 0.61509 0.49843 0.88908 0.0
C487 C 0.6312 0.50052 0.92219 0.0
C488 C 0.67607 0.52682 0.92433 0.0
C489 C 0.7042 0.52984 0.06512 0.0
C490 C 0.6889 0.52559 0.02496 0.0
C491 C 0.64286 0.5156 0.9104 0.0
C492 C 0.65901 0.51862 0.94942 0.0
H493 H 0.72938 0.51111 0.18111 0.0
H494 H 0.70472 0.50377 0.11309 0.0
H495 H 0.70373 0.53673 0.94117 0.0
H496 H 0.61904 0.53603 0.7939 0.0
H497 H 0.64689 0.54003 0.85272 0.0
C498 C 0.98342 0.70831 0.06243 0.0
C499 C 0.97936 0.7252 0.03508 0.0
C500 C 0.98982 0.6945 0.02638 0.0
C501 C 0.01265 0.67095 0.93602 0.0
H502 H 0.97821 0.65908 0.81383 0.0
C503 C 0.02641 0.61226 0.7785 0.0
C504 C 0.01127 0.60008 0.78453 0.0
C505 C 0.02395 0.62899 0.80238 0.0
C506 C 0.98804 0.66237 0.84737 0.0
H507 H 0.97894 0.74106 0.94911 0.0
H508 H 0.98962 0.71663 0.88547 0.0
H509 H 0.97229 0.68607 0.86909 0.0
H510 H 0.98163 0.5958 0.81809 0.0
H511 H 0.97709 0.62527 0.85803 0.0
H512 H 0.02828 0.64714 0.91472 0.0
C513 C 0.98812 0.71421 0.93487 0.0
C514 C 0.98472 0.67781 0.87869 0.0
C515 C 0.98211 0.72816 0.97112 0.0
C516 C 0.99347 0.60504 0.81287 0.0
C517 C 0.99087 0.62186 0.83546 0.0
C518 C 0.0162 0.6557 0.90378 0.0
C519 C 0.99188 0.69723 0.96221 0.0
C520 C 0.99676 0.68204 0.9242 0.0
C521 C 0.00617 0.63389 0.83131 0.0
C522 C 1.00369 0.65108 0.86009 0.0
H523 H 0.98136 0.70575 0.1117 0.0
H524 H 0.99247 0.6815 0.04852 0.0
H525 H 0.02214 0.67395 0.97088 0.0
H526 H 0.04028 0.60862 0.75709 0.0
H527 H 0.03594 0.63805 0.79864 0.0
C528 C 0.04138 0.18202 0.41171 0.0
C529 C 0.0276 0.19232 0.38132 0.0
C530 C 0.03572 0.16785 0.45295 0.0
C531 C 0.01992 0.14055 0.55047 0.0
H532 H 0.98445 0.10966 0.48109 0.0
C533 C 1.00402 0.07126 0.66303 0.0
C534 C 0.00522 0.05734 0.62331 0.0
C535 C 1.00269 0.08888 0.64 0.0
C536 C 0.99434 0.11815 0.50109 0.0
H537 H 0.99711 0.19678 0.373 0.0
H538 H 0.98711 0.17202 0.44584 0.0
H539 H 0.99016 0.13955 0.43393 0.0
H540 H 0.00486 0.05088 0.52861 0.0
H541 H 1.00291 0.08184 0.48785 0.0
H542 H 0.02492 0.11893 0.6156 0.0
C543 C 1.00229 0.17482 0.43737 0.0
C544 C 0.99742 0.13536 0.47462 0.0
C545 C 0.00798 0.18911 0.39637 0.0
C546 C 1.00395 0.06135 0.56024 0.0
C547 C 1.00277 0.07908 0.53702 0.0
C548 C 0.01683 0.12339 0.57694 0.0
C549 C 0.01614 0.16365 0.46428 0.0
C550 C 0.01058 0.14659 0.49821 0.0
C551 C 1.0027 0.09305 0.57659 0.0
C552 C 1.00431 0.11185 0.55183 0.0
H553 H 0.0566 0.18422 0.40051 0.0
H554 H 0.04676 0.15945 0.47252 0.0
H555 H 0.03005 0.14892 0.56989 0.0
H556 H 0.00466 0.06858 0.71206 0.0
H557 H 1.00219 0.09928 0.67184 0.0
C558 C 0.33449 0.99657 0.40203 0.0
C559 C 0.33158 0.01315 0.37068 0.0
C560 C 0.34919 0.99427 0.44223 0.0
C561 C 0.38537 0.01835 0.5217 0.0
H562 H 0.41869 0.97839 0.48215 0.0
C563 C 0.46528 0.01782 0.56556 0.0
C564 C 0.47319 1.00221 0.59271 0.0
C565 C 0.44694 0.01782 0.54395 0.0
C566 C 0.40943 0.98946 0.49439 0.0
H567 H 0.34048 0.0406 0.36035 0.0
H568 H 0.36595 0.03671 0.43064 0.0
H569 H 0.3869 0.98094 0.44224 0.0
H570 H 0.46835 0.97413 0.61576 0.0
H571 H 0.43627 0.97413 0.57727 0.0
H572 H 0.40815 0.02716 0.57222 0.0
C573 C 0.35699 0.02545 0.42461 0.0
C574 C 0.39116 0.99089 0.47182 0.0
C575 C 0.34241 0.02772 0.38429 0.0
C576 C 0.4627 0.98637 0.59493 0.0
C577 C 0.44431 0.98637 0.57304 0.0
C578 C 0.40363 0.01695 0.54408 0.0
C579 C 0.36111 0.00854 0.45194 0.0
C580 C 0.37909 0.00558 0.48403 0.0
C581 C 0.43605 1.00222 0.54878 0.0
C582 C 0.41605 1.00273 0.52941 0.0
H583 H 0.32645 0.9851 0.3918 0.0
H584 H 0.35183 0.98113 0.46332 0.0
H585 H 0.37632 0.02967 0.53274 0.0
H586 H 0.47299 0.03024 0.56275 0.0
H587 H 0.44117 0.03015 0.52411 0.0
C588 C 0.54102 0.3408 0.37726 0.0
C589 C 0.52216 0.33829 0.36087 0.0
C590 C 0.54503 0.35474 0.41342 0.0
C591 C 0.53079 0.39911 0.4208 0.0
H592 H 0.54775 0.40205 0.58438 0.0
C593 C 0.52001 0.46204 0.54906 0.0
C594 C 0.53346 0.46683 0.58952 0.0
C595 C 0.5221 0.44618 0.52012 0.0
C596 C 0.54342 0.40145 0.53811 0.0
H597 H 0.49249 0.34703 0.37454 0.0
H598 H 0.49954 0.37141 0.43711 0.0
H599 H 0.5445 0.37283 0.54302 0.0
H600 H 0.56011 0.45902 0.6297 0.0
H601 H 0.56392 0.43116 0.5781 0.0
H602 H 0.52959 0.42747 0.41499 0.0
C603 C 0.51117 0.36268 0.42189 0.0
C604 C 0.54146 0.38475 0.5148 0.0
C605 C 0.50715 0.34875 0.38629 0.0
C606 C 0.54955 0.45571 0.59847 0.0
C607 C 0.55162 0.43969 0.56947 0.0
C608 C 0.53294 0.41571 0.44359 0.0
C609 C 0.53021 0.36626 0.43334 0.0
C610 C 0.53459 0.38353 0.45667 0.0
C611 C 0.53774 0.43464 0.53064 0.0
C612 C 0.53866 0.4171 0.50327 0.0
H613 H 0.55286 0.33304 0.35776 0.0
H614 H 0.55983 0.35737 0.42162 0.0
H615 H 0.52572 0.39842 0.37541 0.0
H616 H 0.50743 0.47028 0.54115 0.0
H617 H 0.51095 0.44264 0.49134 0.0
C618 C 0.19404 0.49578 0.29259 0.0
C619 C 0.20456 0.51064 0.26816 0.0
C620 C 0.18012 0.49739 0.34093 0.0
C621 C 0.1467 0.53081 0.39976 0.0
H622 H 0.1328 0.49297 0.52284 0.0
C623 C 0.07538 0.50055 0.54479 0.0
C624 C 0.06725 0.51555 0.57191 0.0
C625 C 0.09348 0.50142 0.51338 0.0
C626 C 0.1365 0.50364 0.48859 0.0
H627 H 0.20975 0.53855 0.2775 0.0
H628 H 0.18547 0.54135 0.36279 0.0
H629 H 0.1637 0.49164 0.4634 0.0
H630 H 0.07141 0.54344 0.58515 0.0
H631 H 0.10313 0.54498 0.52936 0.0
H632 H 0.11922 0.54254 0.42392 0.0
C633 C 0.18787 0.5285 0.34406 0.0
C634 C 0.1542 0.5029 0.45475 0.0
C635 C 0.20189 0.52686 0.29578 0.0
C636 C 0.07727 0.53167 0.56461 0.0
C637 C 0.09543 0.53255 0.53285 0.0
C638 C 0.12899 0.53156 0.43377 0.0
C639 C 0.1764 0.51392 0.3657 0.0
C640 C 0.15926 0.51621 0.40876 0.0
C641 C 0.10387 0.51731 0.50818 0.0
C642 C 0.12349 0.51771 0.47722 0.0
H643 H 0.1959 0.48312 0.27216 0.0
H644 H 0.17144 0.48593 0.35617 0.0
H645 H 0.15008 0.54118 0.36415 0.0
H646 H 0.06801 0.48795 0.54916 0.0
H647 H 0.09942 0.48957 0.49351 0.0
C648 C 0.02974 0.8262 0.01577 0.0
C649 C 0.01053 0.82091 0.01587 0.0
C650 C 0.0366 0.84044 0.9766 0.0
C651 C 0.04038 0.87938 0.93799 0.0
H652 H 0.02031 0.89456 0.78245 0.0
C653 C 0.03466 0.95321 0.85217 0.0
C654 C 0.03564 0.95753 0.78878 0.0
C655 C 0.03555 0.93541 0.87469 0.0
C656 C 0.02639 0.89048 0.82536 0.0
H657 H 0.98378 0.82533 0.97275 0.0
H658 H 0.9955 0.85037 0.90497 0.0
H659 H 0.01545 0.86418 0.82422 0.0
H660 H 0.03982 0.94687 0.69923 0.0
H661 H 0.04214 0.91603 0.73831 0.0
H662 H 0.05144 0.90564 0.93891 0.0
C663 C 0.0055 0.84343 0.93401 0.0
C664 C 0.02336 0.87307 0.84969 0.0
C665 C 0.99874 0.82903 0.9727 0.0
C666 C 0.03877 0.94389 0.74843 0.0
C667 C 0.03995 0.92619 0.77084 0.0
C668 C 0.04356 0.89675 0.91338 0.0
C669 C 0.02424 0.84984 0.9376 0.0
C670 C 0.02991 0.86741 0.90704 0.0
C671 C 0.03772 0.92164 0.83417 0.0
C672 C 0.03622 0.90266 0.85743 0.0
H673 H 0.03904 0.82013 0.04903 0.0
H674 H 0.05125 0.8447 0.97946 0.0
H675 H 0.04543 0.87564 0.98268 0.0
H676 H 0.03215 0.96347 0.88422 0.0
H677 H 0.0336 0.93244 0.92375 0.0
C678 C 0.70568 0.99762 0.99558 0.0
C679 C 0.70985 0.01186 0.03032 0.0
C680 C 0.69034 0.99893 0.95777 0.0
C681 C 0.65441 0.0282 0.88568 0.0
H682 H 0.61898 0.99057 0.9432 0.0
C683 C 0.57509 0.0294 0.82101 0.0
C684 C 0.56706 0.01303 0.81011 0.0
C685 C 0.59304 0.02998 0.84571 0.0
C686 C 0.62874 1.00102 0.92556 0.0
H687 H 0.70275 0.03918 0.04799 0.0
H688 H 0.6762 0.04162 0.98056 0.0
H689 H 0.65104 0.99033 0.97969 0.0
H690 H 0.57159 0.98444 0.81694 0.0
H691 H 0.60283 0.98544 0.85773 0.0
H692 H 0.63219 0.03876 0.83061 0.0
C693 C 0.68464 0.02943 0.98297 0.0
C694 C 0.64715 1.00086 0.94659 0.0
C695 C 0.69984 0.02806 0.02139 0.0
C696 C 0.5772 0.99729 0.8254 0.0
C697 C 0.59519 0.99787 0.84913 0.0
C698 C 0.63602 0.02821 0.86366 0.0
C699 C 0.67911 0.01455 0.95354 0.0
C700 C 0.66017 0.01442 0.92693 0.0
C701 C 0.60345 0.01421 0.85935 0.0
C702 C 0.62292 0.0146 0.88338 0.0
H703 H 0.71303 0.98494 0.00211 0.0
H704 H 0.68646 0.98733 0.93499 0.0
H705 H 0.66417 0.03887 0.87014 0.0
H706 H 0.56764 0.04177 0.80962 0.0
H707 H 0.59877 0.04279 0.85391 0.0
C708 C 0.5229 0.6732 0.99087 0.0
C709 C 0.51253 0.67713 0.04579 0.0
C710 C 0.51668 0.6598 0.95601 0.0
C711 C 0.49308 0.61764 0.98694 0.0
H712 H 0.49737 0.61473 0.8105 0.0
C713 C 0.51057 0.55334 0.86553 0.0
C714 C 0.49958 0.54966 0.81677 0.0
C715 C 0.50805 0.56938 0.89363 0.0
C716 C 0.49588 0.61542 0.85983 0.0
H717 H 0.48641 0.67169 0.10341 0.0
H718 H 0.47564 0.64823 0.04279 0.0
H719 H 0.4997 0.6437 0.85394 0.0
H720 H 0.47704 0.55968 0.75996 0.0
H721 H 0.47296 0.58797 0.80846 0.0
H722 H 0.49025 0.58931 0.993 0.0
C723 C 0.4887 0.65529 0.0272 0.0
C724 C 0.49731 0.63195 0.88459 0.0
C725 C 0.49483 0.66874 0.06171 0.0
C726 C 0.4856 0.5621 0.79783 0.0
C727 C 0.48336 0.57832 0.82514 0.0
C728 C 0.49199 0.60113 0.96225 0.0
C729 C 0.50004 0.65011 0.97571 0.0
C730 C 0.49617 0.63317 0.94843 0.0
C731 C 0.49474 0.58218 0.87274 0.0
C732 C 0.49367 0.59984 0.89854 0.0
H733 H 0.53665 0.67935 0.97766 0.0
H734 H 0.52573 0.65605 0.91657 0.0
H735 H 0.49242 0.61813 0.03634 0.0
H736 H 0.52148 0.54402 0.88095 0.0
H737 H 0.51708 0.57209 0.93003 0.0
C738 C 0.84193 0.48611 0.12365 0.0
C739 C 0.83263 0.50277 0.12576 0.0
C740 C 0.85686 0.48334 0.07904 0.0
C741 C 0.89566 0.50874 0.0117 0.0
H742 H 0.90708 0.47269 0.89593 0.0
C743 C 0.96262 0.51351 0.84669 0.0
C744 C 0.97239 0.498 0.82941 0.0
C745 C 0.94511 0.51253 0.88139 0.0
C746 C 0.90422 0.48266 0.92885 0.0
H747 H 0.8304 0.52903 0.07998 0.0
H748 H 0.85659 0.52422 0.00247 0.0
H749 H 0.87551 0.47326 0.95345 0.0
H750 H 0.97157 0.46921 0.83597 0.0
H751 H 0.94111 0.46744 0.89926 0.0
H752 H 0.92428 0.5178 0.9902 0.0
C753 C 0.85226 0.51332 0.03507 0.0
C754 C 0.88612 0.48305 0.96114 0.0
C755 C 0.8372 0.51602 0.0791 0.0
C756 C 0.96439 0.4814 0.84876 0.0
C757 C 0.94686 0.4804 0.88447 0.0
C758 C 0.91375 0.50815 0.9806 0.0
C759 C 0.86276 0.49727 0.03656 0.0
C760 C 0.88164 0.49635 0.00183 0.0
C761 C 0.93698 0.496 0.90094 0.0
C762 C 0.91818 0.49537 0.93775 0.0
H763 H 0.83862 0.4757 0.15921 0.0
H764 H 0.86483 0.47089 0.08106 0.0
H765 H 0.89266 0.51882 0.04418 0.0
H766 H 0.9682 0.52656 0.83199 0.0
H767 H 0.93776 0.52485 0.89169 0.0
C768 C 0.07223 0.1834 0.17854 0.0
C769 C 0.05624 0.19461 0.16939 0.0
C770 C 0.07672 0.16976 0.13971 0.0
C771 C 0.06783 0.13395 0.09495 0.0
H772 H 0.06314 0.1339 0.91976 0.0
C773 C 0.04251 0.07369 0.97635 0.0
C774 C 0.05243 0.06939 0.92117 0.0
C775 C 0.04701 0.08904 0.0043 0.0
C776 C 0.06473 0.13374 0.9686 0.0
H777 H 0.03363 0.20151 0.10898 0.0
H778 H 0.04158 0.17777 0.04059 0.0
H779 H 0.0649 0.16223 0.96771 0.0
H780 H 0.07495 0.07759 0.85218 0.0
H781 H 0.08267 0.10471 0.90083 0.0
H782 H 0.06685 0.10556 0.09639 0.0
C783 C 0.05063 0.17949 0.07784 0.0
C784 C 0.06562 0.14993 0.99601 0.0
C785 C 0.04611 0.19315 0.11687 0.0
C786 C 0.06724 0.08053 0.8951 0.0
C787 C 0.07153 0.09608 0.92255 0.0
C788 C 0.06669 0.11783 0.06773 0.0
C789 C 0.06535 0.1671 0.09082 0.0
C790 C 0.0669 0.15019 0.05966 0.0
C791 C 0.06132 0.10056 0.97711 0.0
C792 C 0.06478 0.11756 0.00451 0.0
H793 H 0.0804 0.18436 0.2184 0.0
H794 H 0.08838 0.16062 0.15012 0.0
H795 H 0.06853 0.13369 0.14422 0.0
H796 H 0.03101 0.06533 0.99722 0.0
H797 H 0.03881 0.09225 0.04608 0.0
C798 C 0.33953 0.00587 0.11025 0.0
C799 C 0.33514 0.02034 0.146 0.0
C800 C 0.35504 0.00666 0.06579 0.0
C801 C 0.4009 0.03113 0.02997 0.0
H802 H 0.40445 0.00335 0.88706 0.0
C803 C 0.46721 0.0317 0.85191 0.0
C804 C 0.47393 0.01492 0.83488 0.0
C805 C 0.44988 0.03336 0.88785 0.0
C806 C 0.40368 0.01112 0.92698 0.0
H807 H 0.34254 0.04739 0.16062 0.0
H808 H 0.36891 0.04922 0.08093 0.0
H809 H 0.37391 0.00526 0.94825 0.0
H810 H 0.46772 0.98671 0.84297 0.0
H811 H 0.43749 0.98968 0.90496 0.0
H812 H 0.43068 0.03712 0.00789 0.0
C813 C 0.36094 0.03697 0.08846 0.0
C814 C 0.38617 0.0122 0.96224 0.0
C815 C 0.34564 0.03606 0.1335 0.0
C816 C 0.46305 0.99984 0.85538 0.0
C817 C 0.44562 1.00154 0.89045 0.0
C818 C 0.41832 0.03025 0.9942 0.0
C819 C 0.36638 0.02204 0.05564 0.0
C820 C 0.38456 0.02203 0.0148 0.0
C821 C 0.43875 0.01832 0.90666 0.0
C822 C 0.41998 0.02003 0.94283 0.0
H823 H 0.33187 0.99349 0.11975 0.0
H824 H 0.35879 0.99481 0.04214 0.0
H825 H 0.40048 0.03853 0.07068 0.0
H826 H 0.47521 0.04359 0.83675 0.0
H827 H 0.44492 0.04648 0.89956 0.0
C828 C 0.51597 0.34287 0.09687 0.0
C829 C 0.50309 0.33998 0.14864 0.0
C830 C 0.5124 0.35634 0.05192 0.0
C831 C 0.48495 0.39891 0.03552 0.0
H832 H 0.50783 0.39897 0.86894 0.0
C833 C 0.48359 0.45907 0.85061 0.0
C834 C 0.50233 0.46433 0.82964 0.0
C835 C 0.48061 0.44309 0.88653 0.0
C836 C 0.50123 0.39906 0.91523 0.0
H837 H 0.47572 0.34793 0.19205 0.0
H838 H 0.46889 0.37085 0.11214 0.0
H839 H 0.5071 0.37141 0.93407 0.0
H840 H 0.53256 0.45683 0.82936 0.0
H841 H 0.52725 0.42892 0.89028 0.0
H842 H 0.47906 0.42667 0.01575 0.0
C843 C 0.48214 0.36323 0.10706 0.0
C844 C 0.50095 0.38332 0.95284 0.0
C845 C 0.4859 0.34995 0.15253 0.0
C846 C 0.51795 0.45328 0.84509 0.0
C847 C 0.51493 0.43721 0.87955 0.0
C848 C 0.48492 0.41458 0.9974 0.0
C849 C 0.49569 0.36708 0.05724 0.0
C850 C 0.49336 0.38312 0.01422 0.0
C851 C 0.49628 0.43194 0.90049 0.0
C852 C 0.49356 0.41489 0.93756 0.0
H853 H 0.52948 0.33556 0.09324 0.0
H854 H 0.52336 0.35895 0.01501 0.0
H855 H 0.47922 0.39948 0.08258 0.0
H856 H 0.4713 0.4673 0.83934 0.0
H857 H 0.46609 0.43928 0.90243 0.0
C858 C 0.19668 0.48379 0.04879 0.0
C859 C 0.20511 0.50057 0.04849 0.0
C860 C 0.18191 0.48103 0.01074 0.0
C861 C 0.15399 0.50272 0.88528 0.0
H862 H 0.11178 0.47612 0.97058 0.0
C863 C 0.07545 0.51342 0.82766 0.0
C864 C 0.06509 0.49822 0.81692 0.0
C865 C 0.09336 0.5118 0.85226 0.0
C866 C 0.12353 0.4834 0.94594 0.0
H867 H 0.2056 0.52732 0.00626 0.0
H868 H 0.17956 0.52278 0.94093 0.0
H869 H 0.14278 0.4763 0.0152 0.0
H870 H 0.06508 0.4694 0.82613 0.0
H871 H 0.09627 0.46663 0.87128 0.0
H872 H 0.13418 0.51057 0.81779 0.0
C873 C 0.18452 0.51153 0.96916 0.0
C874 C 0.14138 0.48343 0.97117 0.0
C875 C 0.1995 0.51419 0.00654 0.0
C876 C 0.07269 0.48136 0.83395 0.0
C877 C 0.09052 0.47976 0.8596 0.0
C878 C 0.13604 0.5029 0.86061 0.0
C879 C 0.175 0.49511 0.97256 0.0
C880 C 0.15679 0.49334 0.94171 0.0
C881 C 0.1012 0.49497 0.86758 0.0
C882 C 0.12057 0.49349 0.89125 0.0
H883 H 0.20079 0.4731 0.08098 0.0
H884 H 0.17533 0.46807 0.01343 0.0
H885 H 0.16556 0.5102 0.86057 0.0
H886 H 0.07009 0.52662 0.81496 0.0
H887 H 0.10117 0.52374 0.85888 0.0
C888 C 0.0047 0.82764 0.25625 0.0
C889 C 0.98851 0.82005 0.23424 0.0
C890 C 1.00253 0.84014 0.30041 0.0
C891 C 0.9679 0.8739 0.35308 0.0
H892 H 0.00571 0.87997 0.47099 0.0
C893 C 0.98271 0.94165 0.44927 0.0
C894 C 0.98918 0.94159 0.50836 0.0
C895 C 0.97935 0.92556 0.42357 0.0
C896 C 0.99477 0.87841 0.43915 0.0
H897 H 0.95741 0.81872 0.24373 0.0
H898 H 0.95358 0.84044 0.32209 0.0
H899 H 0.00594 0.85285 0.4173 0.0
H900 H 0.99597 0.92507 0.58872 0.0
H901 H 0.98949 0.89708 0.54512 0.0
H902 H 0.95676 0.89953 0.37504 0.0
C903 C 0.96795 0.83689 0.30446 0.0
C904 C 0.99507 0.86289 0.40779 0.0
C905 C 0.97014 0.82429 0.26027 0.0
C906 C 0.99117 0.92537 0.5427 0.0
C907 C 0.98759 0.90936 0.51751 0.0
C908 C 0.96755 0.88943 0.38473 0.0
C909 C 0.98411 0.84535 0.32363 0.0
C910 C 0.98195 0.86061 0.36332 0.0
C911 C 0.98224 0.90918 0.45691 0.0
C912 C 0.98123 0.89204 0.4273 0.0
H913 H 0.01902 0.82457 0.23693 0.0
H914 H 0.0153 0.84646 0.31359 0.0
H915 H 0.95768 0.87266 0.31872 0.0
H916 H 0.98116 0.95405 0.422 0.0
H917 H 0.9754 0.92595 0.37662 0.0
C918 C 0.69542 0.01912 0.26967 0.0
C919 C 0.70549 0.00354 0.25454 0.0
C920 C 0.67974 0.0184 0.31314 0.0
C921 C 0.65301 0.99043 0.43578 0.0
H922 H 0.60913 0.01712 0.37755 0.0
C923 C 0.57633 0.98484 0.55991 0.0
C924 C 0.56605 1.00093 0.56566 0.0
C925 C 0.5935 0.98427 0.52241 0.0
C926 C 0.62126 0.00972 0.39497 0.0
H927 H 0.70785 0.97519 0.27616 0.0
H928 H 0.68043 0.97391 0.35278 0.0
H929 H 0.63973 0.01837 0.31695 0.0
H930 H 0.56565 0.02894 0.53541 0.0
H931 H 0.59537 0.02795 0.47095 0.0
H932 H 0.6344 0.98187 0.51417 0.0
C933 C 0.68471 0.9867 0.33102 0.0
C934 C 0.63886 0.01048 0.36021 0.0
C935 C 0.70049 0.98743 0.2874 0.0
C936 C 0.5731 0.01628 0.53197 0.0
C937 C 0.59017 0.0157 0.49465 0.0
C938 C 0.63534 0.98973 0.47087 0.0
C939 C 0.67367 1.00208 0.34246 0.0
C940 C 0.65503 1.00102 0.38039 0.0
C941 C 0.60072 0.99974 0.48968 0.0
C942 C 0.61928 0.99952 0.45114 0.0
H943 H 0.69904 0.03173 0.24525 0.0
H944 H 0.67185 0.03057 0.322 0.0
H945 H 0.66518 0.98299 0.45263 0.0
H946 H 0.57135 0.97278 0.58538 0.0
H947 H 0.60113 0.9717 0.51911 0.0
C948 C 0.55351 0.67048 0.27397 0.0
C949 C 0.53536 0.67555 0.25421 0.0
C950 C 0.55508 0.65761 0.32268 0.0
C951 C 0.52617 0.63171 0.44806 0.0
H952 H 0.56363 0.59428 0.4157 0.0
C953 C 0.51566 0.56032 0.54899 0.0
C954 C 0.53108 0.55168 0.57714 0.0
C955 C 0.5183 0.57654 0.51515 0.0
C956 C 0.55328 0.60474 0.4258 0.0
H957 H 0.50465 0.67216 0.27257 0.0
H958 H 0.50728 0.64976 0.35654 0.0
H959 H 0.56449 0.62181 0.34998 0.0
H960 H 0.56157 0.55312 0.58996 0.0
H961 H 0.56628 0.58145 0.529 0.0
H962 H 0.5144 0.61424 0.52196 0.0
C963 C 0.52037 0.65565 0.3352 0.0
C964 C 0.55381 0.62057 0.38838 0.0
C965 C 0.51883 0.66845 0.28672 0.0
C966 C 0.5494 0.55942 0.56882 0.0
C967 C 0.5521 0.57562 0.53404 0.0
C968 C 0.52553 0.61585 0.48492 0.0
C969 C 0.53852 0.64964 0.35268 0.0
C970 C 0.53992 0.63408 0.39804 0.0
C971 C 0.53647 0.58449 0.50789 0.0
C972 C 0.53876 0.60203 0.47323 0.0
H973 H 0.5665 0.67565 0.24948 0.0
H974 H 0.56927 0.65349 0.33552 0.0
H975 H 0.51553 0.64195 0.45783 0.0
H976 H 0.50134 0.55479 0.55435 0.0
H977 H 0.50606 0.58292 0.49465 0.0
C978 C 0.84404 0.4976 0.36414 0.0
C979 C 0.83483 0.51336 0.34354 0.0
C980 C 0.8596 0.49821 0.40053 0.0
C981 C 0.88763 0.52586 0.49365 0.0
H982 H 0.93084 0.49963 0.42104 0.0
C983 C 0.96491 0.53084 0.57327 0.0
C984 C 0.97516 0.51469 0.57988 0.0
C985 C 0.94763 0.5317 0.54422 0.0
C986 C 0.91891 0.50688 0.44243 0.0
H987 H 0.83349 0.54192 0.34935 0.0
H988 H 0.86064 0.54296 0.41387 0.0
H989 H 0.89961 0.49841 0.3791 0.0
H990 H 0.97553 0.4869 0.55958 0.0
H991 H 0.94554 0.48833 0.51005 0.0
H992 H 0.90698 0.53413 0.55764 0.0
C993 C 0.85584 0.53016 0.40164 0.0
C994 C 0.90098 0.50614 0.41843 0.0
C995 C 0.84024 0.52956 0.36501 0.0
C996 C 0.96808 0.49959 0.55513 0.0
C997 C 0.95086 0.50043 0.52639 0.0
C998 C 0.90561 0.52647 0.51817 0.0
C999 C 0.86624 0.51457 0.41715 0.0
C1000 C 0.88509 0.51546 0.44409 0.0
C1001 C 0.94027 0.51643 0.52117 0.0
C1002 C 0.92143 0.51684 0.49314 0.0
H1003 H 0.84004 0.48493 0.3486 0.0
H1004 H 0.86709 0.48594 0.41299 0.0
H1005 H 0.87563 0.53321 0.51418 0.0
H1006 H 0.96996 0.54271 0.59196 0.0
H1007 H 0.93997 0.54429 0.5402 0.0
loop_
_geom_bond_atom_site_label_1
_geom_bond_atom_site_label_2
_geom_bond_distance
_geom_bond_site_symmetry_2
_ccdc_geom_bond_type
H0 C1 0.949 . S
C1 H0 0.949 . S
C1 C2 1.395 . S
C1 C3 1.391 . S
C2 C1 1.395 . S
C2 C5 1.390 . S
C3 C1 1.391 . S
C3 C7 1.387 . S
C3 C8 1.491 . S
H4 C5 0.950 . S
C5 C2 1.390 . S
C5 H4 0.950 . S
C5 C6 1.378 . S
C6 C5 1.378 . S
C6 C7 1.409 . S
C7 C3 1.387 . S
C7 C6 1.409 . S
C7 H9 0.951 . S
C8 C3 1.491 . S
C8 C10 1.382 . S
C8 C12 1.404 . S
H9 C7 0.951 . S
C10 C8 1.382 . S
C10 C11 1.390 . S
C10 H15 0.949 . S
C11 C10 1.390 . S
C11 C16 1.399 . S
C12 C8 1.404 . S
C12 H13 0.950 . S
C12 C14 1.375 . S
H13 C12 0.950 . S
C14 C12 1.375 . S
C14 C16 1.382 . S
C14 H18 0.950 . S
H15 C10 0.949 . S
C16 C11 1.399 . S
C16 C14 1.382 . S
C16 H17 0.952 . S
H17 C16 0.952 . S
H18 C14 0.950 . S
H19 C20 0.949 . S
C20 H19 0.949 . S
C20 C21 1.395 . S
C20 C22 1.391 1_556 S
C21 C20 1.395 . S
C21 C24 1.390 1_556 S
C22 C20 1.391 1_554 S
C22 C26 1.387 . S
C22 C27 1.491 . S
H23 C24 0.950 . S
C24 C21 1.390 1_554 S
C24 H23 0.950 . S
C24 C25 1.378 . S
C25 C24 1.378 . S
C25 C26 1.409 . S
C26 C22 1.387 . S
C26 C25 1.409 . S
C26 H28 0.951 . S
C27 C22 1.491 . S
C27 C29 1.382 1_554 S
C27 C31 1.404 . S
H28 C26 0.951 . S
C29 C27 1.382 1_556 S
C29 C30 1.390 . S
C29 H34 0.949 . S
C30 C29 1.390 . S
C30 C35 1.399 1_556 S
C31 C27 1.404 . S
C31 H32 0.950 . S
C31 C33 1.375 . S
H32 C31 0.950 . S
C33 C31 1.375 . S
C33 C35 1.382 . S
C33 H37 0.950 . S
H34 C29 0.949 . S
C35 C30 1.399 1_554 S
C35 C33 1.382 . S
C35 H36 0.952 . S
H36 C35 0.952 . S
H37 C33 0.950 . S
H38 C39 0.949 1_556 S
C39 H38 0.949 1_554 S
C39 C40 1.395 . S
C39 C41 1.391 . S
C40 C39 1.395 . S
C40 C43 1.390 . S
C41 C39 1.391 . S
C41 C45 1.387 . S
C41 C46 1.491 . S
H42 C43 0.949 1_545 S
C43 C40 1.390 . S
C43 H42 0.949 1_565 S
C43 C44 1.378 . S
C44 C43 1.378 . S
C44 C45 1.409 . S
C45 C41 1.387 . S
C45 C44 1.409 . S
C45 H47 0.951 . S
C46 C41 1.491 . S
C46 C48 1.382 . S
C46 C50 1.404 . S
H47 C45 0.951 . S
C48 C46 1.382 . S
C48 C49 1.390 . S
C48 H53 0.949 1_565 S
C49 C48 1.390 . S
C49 C54 1.399 . S
C50 C46 1.404 . S
C50 H51 0.950 . S
C50 C52 1.375 . S
H51 C50 0.950 . S
C52 C50 1.375 . S
C52 C54 1.382 . S
C52 H56 0.950 . S
H53 C48 0.949 1_545 S
C54 C49 1.399 . S
C54 C52 1.382 . S
C54 H55 0.952 . S
H55 C54 0.952 . S
H56 C52 0.950 . S
H57 C58 0.949 1_556 S
C58 H57 0.949 1_554 S
C58 C59 1.395 . S
C58 C60 1.391 . S
C59 C58 1.395 . S
C59 C62 1.390 . S
C60 C58 1.391 . S
C60 C64 1.387 . S
C60 C65 1.491 . S
H61 C62 0.950 . S
C62 C59 1.390 . S
C62 H61 0.950 . S
C62 C63 1.378 . S
C63 C62 1.378 . S
C63 C64 1.409 . S
C64 C60 1.387 . S
C64 C63 1.409 . S
C64 H66 0.951 . S
C65 C60 1.491 . S
C65 C67 1.382 . S
C65 C69 1.404 . S
H66 C64 0.951 . S
C67 C65 1.382 . S
C67 C68 1.390 . S
C67 H72 0.949 . S
C68 C67 1.390 . S
C68 C73 1.399 . S
C69 C65 1.404 . S
C69 H70 0.950 . S
C69 C71 1.375 . S
H70 C69 0.950 . S
C71 C69 1.375 . S
C71 C73 1.382 . S
C71 H75 0.950 . S
H72 C67 0.949 . S
C73 C68 1.399 . S
C73 C71 1.382 . S
C73 H74 0.952 . S
H74 C73 0.952 . S
H75 C71 0.950 . S
H76 C77 0.949 . S
C77 H76 0.949 . S
C77 C78 1.395 . S
C77 C79 1.391 . S
C78 C77 1.395 . S
C78 C81 1.390 . S
C79 C77 1.391 . S
C79 C83 1.387 . S
C79 C84 1.491 . S
H80 C81 0.950 . S
C81 C78 1.390 . S
C81 H80 0.950 . S
C81 C82 1.378 . S
C82 C81 1.378 . S
C82 C83 1.409 . S
C83 C79 1.387 . S
C83 C82 1.409 . S
C83 H85 0.951 . S
C84 C79 1.491 . S
C84 C86 1.382 . S
C84 C88 1.404 . S
H85 C83 0.951 . S
C86 C84 1.382 . S
C86 C87 1.390 . S
C86 H91 0.949 . S
C87 C86 1.390 . S
C87 C92 1.399 . S
C88 C84 1.404 . S
C88 H89 0.950 . S
C88 C90 1.375 . S
H89 C88 0.950 . S
C90 C88 1.375 . S
C90 C92 1.382 . S
C90 H94 0.950 . S
H91 C86 0.949 . S
C92 C87 1.399 . S
C92 C90 1.382 . S
C92 H93 0.952 . S
H93 C92 0.952 . S
H94 C90 0.950 . S
H95 C96 0.949 . S
C96 H95 0.949 . S
C96 C97 1.395 . S
C96 C98 1.391 . S
C97 C96 1.395 . S
C97 C100 1.390 . S
C98 C96 1.391 . S
C98 C102 1.387 . S
C98 C103 1.491 . S
H99 C100 0.950 . S
C100 C97 1.390 . S
C100 H99 0.950 . S
C100 C101 1.378 . S
C101 C100 1.378 . S
C101 C102 1.409 . S
C102 C98 1.387 . S
C102 C101 1.409 . S
C102 H104 0.951 . S
C103 C98 1.491 . S
C103 C105 1.382 . S
C103 C107 1.404 . S
H104 C102 0.951 . S
C105 C103 1.382 . S
C105 C106 1.390 . S
C105 H110 0.949 . S
C106 C105 1.390 . S
C106 C111 1.399 . S
C107 C103 1.404 . S
C107 H108 0.950 . S
C107 C109 1.375 . S
H108 C107 0.950 . S
C109 C107 1.375 . S
C109 C111 1.382 . S
C109 H113 0.950 . S
H110 C105 0.949 . S
C111 C106 1.399 . S
C111 C109 1.382 . S
C111 H112 0.952 . S
H112 C111 0.952 . S
H113 C109 0.950 . S
H114 C115 0.949 . S
C115 H114 0.949 . S
C115 C116 1.395 . S
C115 C117 1.391 . S
C116 C115 1.395 . S
C116 C119 1.390 . S
C117 C115 1.391 . S
C117 C121 1.387 . S
C117 C122 1.491 . S
H118 C119 0.950 . S
C119 C116 1.390 . S
C119 H118 0.950 . S
C119 C120 1.378 . S
C120 C119 1.378 . S
C120 C121 1.409 . S
C121 C117 1.387 . S
C121 C120 1.409 . S
C121 H123 0.951 . S
C122 C117 1.491 . S
C122 C124 1.382 . S
C122 C126 1.404 1_545 S
H123 C121 0.951 . S
C124 C122 1.382 . S
C124 C125 1.390 . S
C124 H129 0.949 . S
C125 C124 1.390 . S
C125 C130 1.399 1_545 S
C126 C122 1.404 1_565 S
C126 H127 0.950 . S
C126 C128 1.375 . S
H127 C126 0.950 . S
C128 C126 1.375 . S
C128 C130 1.382 . S
C128 H132 0.950 . S
H129 C124 0.949 . S
C130 C125 1.399 1_565 S
C130 C128 1.382 . S
C130 H131 0.952 . S
H131 C130 0.952 . S
H132 C128 0.950 . S
H133 C134 0.949 . S
C134 H133 0.949 . S
C134 C135 1.395 . S
C134 C136 1.391 . S
C135 C134 1.395 . S
C135 C138 1.390 . S
C136 C134 1.391 . S
C136 C140 1.387 . S
C136 C141 1.491 . S
H137 C138 0.950 . S
C138 C135 1.390 . S
C138 H137 0.950 . S
C138 C139 1.378 . S
C139 C138 1.378 . S
C139 C140 1.409 . S
C140 C136 1.387 . S
C140 C139 1.409 . S
C140 H142 0.951 . S
C141 C136 1.491 . S
C141 C143 1.382 . S
C141 C145 1.404 . S
H142 C140 0.951 . S
C143 C141 1.382 . S
C143 C144 1.390 . S
C143 H148 0.949 . S
C144 C143 1.390 . S
C144 C149 1.399 . S
C145 C141 1.404 . S
C145 H146 0.950 . S
C145 C147 1.375 . S
H146 C145 0.950 . S
C147 C145 1.375 . S
C147 C149 1.382 . S
C147 H151 0.950 . S
H148 C143 0.949 . S
C149 C144 1.399 . S
C149 C147 1.382 . S
C149 H150 0.952 . S
H150 C149 0.952 . S
H151 C147 0.950 . S
C152 O168 1.251 . S
C152 O170 1.254 . S
N153 C154 1.333 . S
N153 C158 1.307 1_455 S
N153 Zn159 2.020 . S
C154 N153 1.333 . S
C154 C155 1.379 . S
C154 H172 0.952 . S
C155 C154 1.379 . S
C155 C156 1.390 . S
C155 H182 0.949 . S
C156 C155 1.390 . S
C156 C157 1.357 1_455 S
C157 C156 1.357 1_655 S
C157 C158 1.370 . S
C157 H183 0.950 . S
C158 N153 1.307 1_655 S
C158 C157 1.370 . S
C158 H176 0.981 . S
Zn159 N153 2.020 . S
Zn159 O168 2.039 . S
Zn159 O174 2.034 . S
Zn159 O178 2.025 1_565 S
Zn159 O180 2.030 1_455 S
C160 O179 1.246 . S
C160 O180 1.230 1_545 S
N161 C162 1.307 . S
N161 C163 1.333 . S
N161 Zn167 2.020 . S
C162 N161 1.307 . S
C162 C166 1.370 . S
C162 H173 0.948 . S
C163 N161 1.333 . S
C163 C164 1.379 . S
C163 H171 0.952 . S
C164 C163 1.379 . S
C164 C165 1.390 . S
C164 H184 0.949 . S
C165 C164 1.390 . S
C165 C166 1.357 . S
C166 C162 1.370 . S
C166 C165 1.357 . S
C166 H185 0.950 . S
Zn167 N161 2.020 . S
Zn167 O170 2.025 1_545 S
Zn167 O175 2.024 . S
Zn167 O177 2.039 . S
Zn167 O179 2.034 1_455 S
O168 C152 1.251 . S
O168 Zn159 2.039 . S
C169 O174 1.246 1_545 S
C169 O175 1.249 . S
O170 C152 1.254 . S
O170 Zn167 2.025 1_565 S
H171 C163 0.952 . S
H172 C154 0.952 . S
H173 C162 0.948 . S
O174 Zn159 2.034 . S
O174 C169 1.246 1_565 S
O175 Zn167 2.024 . S
O175 C169 1.249 . S
H176 C158 0.981 . S
O177 Zn167 2.039 . S
O177 C181 1.251 . S
O178 Zn159 2.025 1_545 S
O178 C181 1.254 . S
O179 C160 1.246 . S
O179 Zn167 2.034 1_655 S
O180 Zn159 2.030 1_655 S
O180 C160 1.230 1_565 S
C181 O177 1.251 . S
C181 O178 1.254 . S
H182 C155 0.949 . S
H183 C157 0.950 . S
H184 C164 0.949 . S
H185 C166 0.950 . S
C186 O202 1.251 . S
C186 O204 1.254 1_545 S
N187 C188 1.333 . S
N187 C192 1.307 . S
N187 Zn193 2.020 . S
C188 N187 1.333 . S
C188 C189 1.379 . S
C188 H206 0.952 . S
C189 C188 1.379 . S
C189 C190 1.390 . S
C189 H216 0.949 . S
C190 C189 1.390 . S
C190 C191 1.357 . S
C191 C190 1.357 . S
C191 C192 1.370 . S
C191 H217 0.950 . S
C192 N187 1.307 . S
C192 C191 1.370 . S
C192 H210 0.948 . S
Zn193 N187 2.020 . S
Zn193 O202 2.039 . S
Zn193 O208 2.034 . S
Zn193 O212 2.025 . S
Zn193 O214 2.024 . S
C194 O213 1.246 1_545 S
C194 O214 1.249 . S
N195 C196 1.307 . S
N195 C197 1.333 . S
N195 Zn201 2.020 . S
C196 N195 1.307 . S
C196 C200 1.370 . S
C196 H207 0.948 . S
C197 N195 1.333 . S
C197 C198 1.379 . S
C197 H205 0.952 . S
C198 C197 1.379 . S
C198 C199 1.390 . S
C198 H218 0.949 . S
C199 C198 1.390 . S
C199 C200 1.357 . S
C200 C196 1.370 . S
C200 C199 1.357 . S
C200 H219 0.950 . S
Zn201 N195 2.020 . S
Zn201 O204 2.025 . S
Zn201 O209 2.024 . S
Zn201 O211 2.039 . S
Zn201 O213 2.034 . S
O202 C186 1.251 . S
O202 Zn193 2.039 . S
C203 O208 1.246 . S
C203 O209 1.249 1_545 S
O204 C186 1.254 1_565 S
O204 Zn201 2.025 . S
H205 C197 0.952 . S
H206 C188 0.952 . S
H207 C196 0.948 . S
O208 Zn193 2.034 . S
O208 C203 1.246 . S
O209 Zn201 2.024 . S
O209 C203 1.249 1_565 S
H210 C192 0.948 . S
O211 Zn201 2.039 . S
O211 C215 1.251 1_565 S
O212 Zn193 2.025 . S
O212 C215 1.254 . S
O213 C194 1.246 1_565 S
O213 Zn201 2.034 . S
O214 Zn193 2.024 . S
O214 C194 1.249 . S
C215 O211 1.251 1_545 S
C215 O212 1.254 . S
H216 C189 0.949 . S
H217 C191 0.950 . S
H218 C198 0.949 . S
H219 C200 0.950 . S
C220 O236 1.251 . S
C220 O238 1.254 . S
N221 C222 1.333 . S
N221 C226 1.307 . S
N221 Zn227 2.020 . S
C222 N221 1.333 . S
C222 C223 1.379 . S
C222 H240 0.952 . S
C223 C222 1.379 . S
C223 C224 1.390 . S
C223 H250 0.949 . S
C224 C223 1.390 . S
C224 C225 1.357 . S
C225 C224 1.357 . S
C225 C226 1.370 . S
C225 H251 0.950 . S
C226 N221 1.307 . S
C226 C225 1.370 . S
C226 H244 0.948 . S
Zn227 N221 2.020 . S
Zn227 O236 2.039 . S
Zn227 O242 2.034 . S
Zn227 O246 2.025 . S
Zn227 O248 2.024 . S
C228 O247 1.246 . S
C228 O248 1.249 . S
N229 C230 1.307 . S
N229 C231 1.333 . S
N229 Zn235 2.020 . S
C230 N229 1.307 . S
C230 C234 1.370 . S
C230 H241 0.948 . S
C231 N229 1.333 . S
C231 C232 1.379 . S
C231 H239 0.952 . S
C232 C231 1.379 . S
C232 C233 1.390 . S
C232 H252 0.949 . S
C233 C232 1.390 . S
C233 C234 1.357 . S
C234 C230 1.370 . S
C234 C233 1.357 . S
C234 H253 0.950 . S
Zn235 N229 2.020 . S
Zn235 O238 2.025 . S
Zn235 O243 2.024 . S
Zn235 O245 2.039 . S
Zn235 O247 2.034 . S
O236 C220 1.251 . S
O236 Zn227 2.039 . S
C237 O242 1.246 . S
C237 O243 1.249 . S
O238 C220 1.254 . S
O238 Zn235 2.025 . S
H239 C231 0.952 . S
H240 C222 0.952 . S
H241 C230 0.948 . S
O242 Zn227 2.034 . S
O242 C237 1.246 . S
O243 Zn235 2.024 . S
O243 C237 1.249 . S
H244 C226 0.948 . S
O245 Zn235 2.039 . S
O245 C249 1.251 . S
O246 Zn227 2.025 . S
O246 C249 1.254 . S
O247 C228 1.246 . S
O247 Zn235 2.034 . S
O248 Zn227 2.024 . S
O248 C228 1.249 . S
C249 O245 1.251 . S
C249 O246 1.254 . S
H250 C223 0.949 . S
H251 C225 0.950 . S
H252 C232 0.949 . S
H253 C234 0.950 . S
C254 O270 1.251 . S
C254 O272 1.254 . S
N255 C256 1.333 . S
N255 C260 1.307 . S
N255 Zn261 2.020 . S
C256 N255 1.333 . S
C256 C257 1.379 . S
C256 H274 0.952 . S
C257 C256 1.379 . S
C257 C258 1.390 . S
C257 H284 0.949 . S
C258 C257 1.390 . S
C258 C259 1.357 . S
C259 C258 1.357 . S
C259 C260 1.370 . S
C259 H285 0.950 . S
C260 N255 1.307 . S
C260 C259 1.370 . S
C260 H278 0.948 . S
Zn261 N255 2.020 . S
Zn261 O270 2.039 . S
Zn261 O276 1.997 1_455 S
Zn261 O280 2.025 1_455 S
Zn261 O282 2.024 . S
C262 O281 1.246 . S
C262 O282 1.249 . S
N263 C264 1.307 . S
N263 C265 1.333 . S
N263 Zn269 2.020 . S
C264 N263 1.307 . S
C264 C268 1.370 . S
C264 H275 0.948 . S
C265 N263 1.333 . S
C265 C266 1.379 . S
C265 H273 0.971 . S
C266 C265 1.379 . S
C266 C267 1.390 . S
C266 H286 0.933 1_455 S
C267 C266 1.390 . S
C267 C268 1.357 . S
C268 C264 1.370 . S
C268 C267 1.357 . S
C268 H287 0.950 . S
Zn269 N263 2.020 . S
Zn269 O272 2.025 . S
Zn269 O277 2.024 1_455 S
Zn269 O279 2.039 1_455 S
Zn269 O281 2.034 . S
O270 C254 1.251 . S
O270 Zn261 2.039 . S
C271 O276 1.270 . S
C271 O277 1.249 . S
O272 C254 1.254 . S
O272 Zn269 2.025 . S
H273 C265 0.971 . S
H274 C256 0.952 . S
H275 C264 0.948 . S
O276 Zn261 1.997 1_655 S
O276 C271 1.270 . S
O277 Zn269 2.024 1_655 S
O277 C271 1.249 . S
H278 C260 0.948 . S
O279 Zn269 2.039 1_655 S
O279 C283 1.251 . S
O280 Zn261 2.025 1_655 S
O280 C283 1.254 . S
O281 C262 1.246 . S
O281 Zn269 2.034 . S
O282 Zn261 2.024 . S
O282 C262 1.249 . S
C283 O279 1.251 . S
C283 O280 1.254 . S
H284 C257 0.949 . S
H285 C259 0.950 . S
H286 C266 0.933 1_655 S
H287 C268 0.950 . S
C288 C289 1.349 . S
C288 C290 1.327 . S
C288 H313 0.950 . S
C289 C288 1.349 . S
C289 C305 1.349 1_545 S
C290 C288 1.327 . S
C290 C309 1.429 . S
C290 H314 0.950 . S
C291 C308 1.574 . S
C291 C310 1.368 1_565 S
C291 H315 0.949 . S
H292 C296 0.949 . S
C293 C294 1.349 1_565 S
C293 C295 1.327 . S
C293 H316 0.950 . S
C294 C293 1.349 1_545 S
C294 C306 1.349 . S
C295 C293 1.327 . S
C295 C311 1.429 1_565 S
C295 H317 0.950 . S
C296 H292 0.949 . S
C296 C304 1.574 . S
C296 C312 1.368 . S
H297 C305 0.950 . S
H298 C303 0.950 . S
H299 C304 0.949 . S
H300 C306 0.950 . S
H301 C307 0.950 . S
H302 C308 0.949 . S
C303 H298 0.950 . S
C303 C305 1.327 . S
C303 C309 1.429 1_565 S
C304 C296 1.574 . S
C304 H299 0.949 . S
C304 C310 1.368 . S
C305 C289 1.349 1_565 S
C305 H297 0.950 . S
C305 C303 1.327 . S
C306 C294 1.349 . S
C306 H300 0.950 . S
C306 C307 1.327 . S
C307 H301 0.950 . S
C307 C306 1.327 . S
C307 C311 1.429 . S
C308 C291 1.574 . S
C308 H302 0.949 . S
C308 C312 1.368 1_565 S
C309 C290 1.429 . S
C309 C303 1.429 1_545 S
C309 C310 1.523 . S
C310 C291 1.368 1_545 S
C310 C304 1.368 . S
C310 C309 1.523 . S
C311 C295 1.429 1_545 S
C311 C307 1.429 . S
C311 C312 1.523 . S
C312 C296 1.368 . S
C312 C308 1.368 1_545 S
C312 C311 1.523 . S
H313 C288 0.950 . S
H314 C290 0.950 . S
H315 C291 0.949 . S
H316 C293 0.950 . S
H317 C295 0.950 . S
C318 C319 1.349 . S
C318 C320 1.327 . S
C318 H343 0.950 . S
C319 C318 1.349 . S
C319 C335 1.349 . S
C320 C318 1.327 . S
C320 C339 1.429 . S
C320 H344 0.950 . S
C321 C338 1.574 . S
C321 C340 1.368 . S
C321 H345 0.949 . S
H322 C326 0.949 . S
C323 C324 1.349 . S
C323 C325 1.327 . S
C323 H346 0.950 . S
C324 C323 1.349 . S
C324 C336 1.349 . S
C325 C323 1.327 . S
C325 C341 1.429 . S
C325 H347 0.950 . S
C326 H322 0.949 . S
C326 C334 1.574 . S
C326 C342 1.368 . S
H327 C335 0.950 . S
H328 C333 0.950 . S
H329 C334 0.949 . S
H330 C336 0.950 . S
H331 C337 0.950 . S
H332 C338 0.949 . S
C333 H328 0.950 . S
C333 C335 1.327 . S
C333 C339 1.429 . S
C334 C326 1.574 . S
C334 H329 0.949 . S
C334 C340 1.368 . S
C335 C319 1.349 . S
C335 H327 0.950 . S
C335 C333 1.327 . S
C336 C324 1.349 . S
C336 H330 0.950 . S
C336 C337 1.327 . S
C337 H331 0.950 . S
C337 C336 1.327 . S
C337 C341 1.429 . S
C338 C321 1.574 . S
C338 H332 0.949 . S
C338 C342 1.368 . S
C339 C320 1.429 . S
C339 C333 1.429 . S
C339 C340 1.523 . S
C340 C321 1.368 . S
C340 C334 1.368 . S
C340 C339 1.523 . S
C341 C325 1.429 . S
C341 C337 1.429 . S
C341 C342 1.523 . S
C342 C326 1.368 . S
C342 C338 1.368 . S
C342 C341 1.523 . S
H343 C318 0.950 . S
H344 C320 0.950 . S
H345 C321 0.949 . S
H346 C323 0.950 . S
H347 C325 0.950 . S
C348 C349 1.349 . S
C348 C350 1.327 . S
C348 H373 0.950 . S
C349 C348 1.349 . S
C349 C365 1.349 . S
C350 C348 1.327 . S
C350 C369 1.429 . S
C350 H374 0.950 . S
C351 C368 1.574 . S
C351 C370 1.368 . S
C351 H375 0.949 . S
H352 C356 0.949 . S
C353 C354 1.349 . S
C353 C355 1.327 . S
C353 H376 0.950 . S
C354 C353 1.349 . S
C354 C366 1.349 . S
C355 C353 1.327 . S
C355 C371 1.429 . S
C355 H377 0.950 . S
C356 H352 0.949 . S
C356 C364 1.574 . S
C356 C372 1.368 . S
H357 C365 0.950 . S
H358 C363 0.950 . S
H359 C364 0.949 . S
H360 C366 0.950 . S
H361 C367 0.950 . S
H362 C368 0.949 . S
C363 H358 0.950 . S
C363 C365 1.327 . S
C363 C369 1.429 . S
C364 C356 1.574 . S
C364 H359 0.949 . S
C364 C370 1.368 . S
C365 C349 1.349 . S
C365 H357 0.950 . S
C365 C363 1.327 . S
C366 C354 1.349 . S
C366 H360 0.950 . S
C366 C367 1.327 . S
C367 H361 0.950 . S
C367 C366 1.327 . S
C367 C371 1.429 . S
C368 C351 1.574 . S
C368 H362 0.949 . S
C368 C372 1.368 . S
C369 C350 1.429 . S
C369 C363 1.429 . S
C369 C370 1.523 . S
C370 C351 1.368 . S
C370 C364 1.368 . S
C370 C369 1.523 . S
C371 C355 1.429 . S
C371 C367 1.429 . S
C371 C372 1.523 . S
C372 C356 1.368 . S
C372 C368 1.368 . S
C372 C371 1.523 . S
H373 C348 0.950 . S
H374 C350 0.950 . S
H375 C351 0.949 . S
H376 C353 0.950 . S
H377 C355 0.950 . S
C378 C379 1.349 . S
C378 C380 1.327 . S
C378 H403 0.950 . S
C379 C378 1.349 . S
C379 C395 1.349 . S
C380 C378 1.327 . S
C380 C399 1.429 . S
C380 H404 0.950 . S
C381 C398 1.574 . S
C381 C400 1.368 . S
C381 H405 0.949 . S
H382 C386 0.949 . S
C383 C384 1.349 . S
C383 C385 1.327 . S
C383 H406 0.950 1_455 S
C384 C383 1.349 . S
C384 C396 1.349 . S
C385 C383 1.327 . S
C385 C401 1.429 . S
C385 H407 0.950 1_455 S
C386 H382 0.949 . S
C386 C394 1.574 . S
C386 C402 1.368 . S
H387 C395 0.950 . S
H388 C393 0.950 . S
H389 C394 0.949 . S
H390 C396 0.950 . S
H391 C397 0.950 . S
H392 C398 0.929 1_655 S
C393 H388 0.950 . S
C393 C395 1.327 . S
C393 C399 1.429 . S
C394 C386 1.574 . S
C394 H389 0.949 . S
C394 C400 1.368 . S
C395 C379 1.349 . S
C395 H387 0.950 . S
C395 C393 1.327 . S
C396 C384 1.349 . S
C396 H390 0.950 . S
C396 C397 1.327 . S
C397 H391 0.950 . S
C397 C396 1.327 . S
C397 C401 1.429 . S
C398 C381 1.574 . S
C398 H392 0.929 1_455 S
C398 C402 1.368 . S
C399 C380 1.429 . S
C399 C393 1.429 . S
C399 C400 1.523 . S
C400 C381 1.368 . S
C400 C394 1.368 . S
C400 C399 1.523 . S
C401 C385 1.429 . S
C401 C397 1.429 . S
C401 C402 1.523 . S
C402 C386 1.368 . S
C402 C398 1.368 . S
C402 C401 1.523 . S
H403 C378 0.950 . S
H404 C380 0.950 . S
H405 C381 0.949 . S
H406 C383 0.950 1_655 S
H407 C385 0.950 1_655 S
C408 C409 1.349 . S
C408 C410 1.327 . S
C408 H433 0.950 . S
C409 C408 1.349 . S
C409 C425 1.345 1_566 S
C410 C408 1.327 . S
C410 C429 1.437 . S
C410 H434 0.950 . S
C411 C428 1.574 . S
C411 C430 1.399 . S
C411 H435 0.949 . S
H412 C416 0.949 . S
C413 C414 1.349 . S
C413 C415 1.327 . S
C413 H436 0.950 . S
C414 C413 1.349 . S
C414 C426 1.349 1_545 S
C415 C413 1.327 . S
C415 C431 1.429 . S
C415 H437 0.950 . S
C416 H412 0.949 . S
C416 C424 1.574 . S
C416 C432 1.368 1_565 S
H417 C425 0.957 . S
H418 C423 0.950 . S
H419 C424 0.949 . S
H420 C426 0.950 . S
H421 C427 0.950 . S
H422 C428 0.949 . S
C423 H418 0.950 . S
C423 C425 1.324 1_556 S
C423 C429 1.421 1_545 S
C424 C416 1.574 . S
C424 H419 0.949 . S
C424 C430 1.340 1_565 S
C425 C409 1.345 1_544 S
C425 H417 0.957 . S
C425 C423 1.324 1_554 S
C426 C414 1.349 1_565 S
C426 H420 0.950 . S
C426 C427 1.327 . S
C427 H421 0.950 . S
C427 C426 1.327 . S
C427 C431 1.429 1_565 S
C428 C411 1.574 . S
C428 H422 0.949 . S
C428 C432 1.368 . S
C429 C410 1.437 . S
C429 C423 1.421 1_565 S
C429 C430 1.522 1_565 S
C430 C411 1.399 . S
C430 C424 1.340 1_545 S
C430 C429 1.522 1_545 S
C431 C415 1.429 . S
C431 C427 1.429 1_545 S
C431 C432 1.523 . S
C432 C416 1.368 1_545 S
C432 C428 1.368 . S
C432 C431 1.523 . S
H433 C408 0.950 . S
H434 C410 0.950 . S
H435 C411 0.949 . S
H436 C413 0.950 . S
H437 C415 0.950 . S
C438 C439 1.349 . S
C438 C440 1.327 . S
C438 H463 0.950 . S
C439 C438 1.349 . S
C439 C455 1.349 1_556 S
C440 C438 1.327 . S
C440 C459 1.429 . S
C440 H464 0.950 . S
C441 C458 1.574 . S
C441 C460 1.368 . S
C441 H465 0.949 . S
H442 C446 0.949 . S
C443 C444 1.349 . S
C443 C445 1.327 . S
C443 H466 0.950 . S
C444 C443 1.349 . S
C444 C456 1.349 . S
C445 C443 1.327 . S
C445 C461 1.429 . S
C445 H467 0.950 . S
C446 H442 0.949 . S
C446 C454 1.574 . S
C446 C462 1.368 . S
H447 C455 0.950 . S
H448 C453 0.950 . S
H449 C454 0.949 . S
H450 C456 0.950 . S
H451 C457 0.950 . S
H452 C458 0.949 . S
C453 H448 0.950 . S
C453 C455 1.327 . S
C453 C459 1.429 1_554 S
C454 C446 1.574 . S
C454 H449 0.949 . S
C454 C460 1.368 . S
C455 C439 1.349 1_554 S
C455 H447 0.950 . S
C455 C453 1.327 . S
C456 C444 1.349 . S
C456 H450 0.950 . S
C456 C457 1.327 . S
C457 H451 0.950 . S
C457 C456 1.327 . S
C457 C461 1.429 . S
C458 C441 1.574 . S
C458 H452 0.949 . S
C458 C462 1.368 . S
C459 C440 1.429 . S
C459 C453 1.429 1_556 S
C459 C460 1.523 . S
C460 C441 1.368 . S
C460 C454 1.368 . S
C460 C459 1.523 . S
C461 C445 1.429 . S
C461 C457 1.429 . S
C461 C462 1.523 . S
C462 C446 1.368 . S
C462 C458 1.368 . S
C462 C461 1.523 . S
H463 C438 0.950 . S
H464 C440 0.950 . S
H465 C441 0.949 . S
H466 C443 0.950 . S
H467 C445 0.950 . S
C468 C469 1.349 . S
C468 C470 1.327 . S
C468 H493 0.950 . S
C469 C468 1.349 . S
C469 C485 1.349 1_554 S
C470 C468 1.327 . S
C470 C489 1.429 1_554 S
C470 H494 0.950 . S
C471 C488 1.574 . S
C471 C490 1.368 . S
C471 H495 0.949 . S
H472 C476 0.949 . S
C473 C474 1.349 . S
C473 C475 1.327 . S
C473 H496 0.950 . S
C474 C473 1.349 . S
C474 C486 1.349 . S
C475 C473 1.327 . S
C475 C491 1.429 . S
C475 H497 0.950 . S
C476 H472 0.949 . S
C476 C484 1.574 . S
C476 C492 1.368 . S
H477 C485 0.950 . S
H478 C483 0.950 . S
H479 C484 0.949 . S
H480 C486 0.950 . S
H481 C487 0.950 . S
H482 C488 0.949 . S
C483 H478 0.950 . S
C483 C485 1.327 . S
C483 C489 1.429 . S
C484 C476 1.574 . S
C484 H479 0.949 . S
C484 C490 1.368 . S
C485 C469 1.349 1_556 S
C485 H477 0.950 . S
C485 C483 1.327 . S
C486 C474 1.349 . S
C486 H480 0.950 . S
C486 C487 1.327 . S
C487 H481 0.950 . S
C487 C486 1.327 . S
C487 C491 1.429 . S
C488 C471 1.574 . S
C488 H482 0.949 . S
C488 C492 1.368 . S
C489 C470 1.429 1_556 S
C489 C483 1.429 . S
C489 C490 1.523 . S
C490 C471 1.368 . S
C490 C484 1.368 . S
C490 C489 1.523 . S
C491 C475 1.429 . S
C491 C487 1.429 . S
C491 C492 1.523 . S
C492 C476 1.368 . S
C492 C488 1.368 . S
C492 C491 1.523 . S
H493 C468 0.950 . S
H494 C470 0.950 . S
H495 C471 0.949 . S
H496 C473 0.950 . S
H497 C475 0.950 . S
C498 C499 1.349 . S
C498 C500 1.327 . S
C498 H523 0.950 1_556 S
C499 C498 1.349 . S
C499 C515 1.349 1_655 S
C500 C498 1.327 . S
C500 C519 1.429 . S
C500 H524 0.950 . S
C501 C518 1.574 . S
C501 C520 1.368 1_455 S
C501 H525 0.949 . S
H502 C506 0.949 . S
C503 C504 1.349 . S
C503 C505 1.327 . S
C503 H526 0.950 . S
C504 C503 1.349 . S
C504 C516 1.346 . S
C505 C503 1.327 . S
C505 C521 1.429 . S
C505 H527 0.950 . S
C506 H502 0.949 . S
C506 C514 1.574 . S
C506 C522 1.368 1_655 S
H507 C515 0.950 . S
H508 C513 0.950 . S
H509 C514 0.949 . S
H510 C516 0.952 1_655 S
H511 C517 0.950 . S
H512 C518 0.949 . S
C513 H508 0.950 . S
C513 C515 1.327 . S
C513 C519 1.429 1_455 S
C514 C506 1.574 . S
C514 H509 0.949 . S
C514 C520 1.368 . S
C515 C499 1.349 1_455 S
C515 H507 0.950 . S
C515 C513 1.327 . S
C516 C504 1.346 . S
C516 H510 0.952 1_455 S
C516 C517 1.328 1_455 S
C517 H511 0.950 . S
C517 C516 1.328 1_655 S
C517 C521 1.429 1_655 S
C518 C501 1.574 . S
C518 H512 0.949 . S
C518 C522 1.368 . S
C519 C500 1.429 . S
C519 C513 1.429 1_655 S
C519 C520 1.523 . S
C520 C501 1.368 1_655 S
C520 C514 1.368 . S
C520 C519 1.523 . S
C521 C505 1.429 . S
C521 C517 1.429 1_455 S
C521 C522 1.523 . S
C522 C506 1.368 1_455 S
C522 C518 1.368 . S
C522 C521 1.523 . S
H523 C498 0.950 1_554 S
H524 C500 0.950 . S
H525 C501 0.949 . S
H526 C503 0.950 . S
H527 C505 0.950 . S
C528 C529 1.349 . S
C528 C530 1.327 . S
C528 H553 0.950 . S
C529 C528 1.349 . S
C529 C545 1.349 . S
C530 C528 1.327 . S
C530 C549 1.429 . S
C530 H554 0.950 . S
C531 C548 1.574 . S
C531 C550 1.368 . S
C531 H555 0.949 . S
H532 C536 0.949 . S
C533 C534 1.349 . S
C533 C535 1.327 . S
C533 H556 0.950 1_455 S
C534 C533 1.349 . S
C534 C546 1.349 . S
C535 C533 1.327 . S
C535 C551 1.429 . S
C535 H557 0.950 1_455 S
C536 H532 0.949 . S
C536 C544 1.574 . S
C536 C552 1.368 . S
H537 C545 0.950 . S
H538 C543 0.950 . S
H539 C544 0.949 . S
H540 C546 0.950 . S
H541 C547 0.950 . S
H542 C548 0.968 . S
C543 H538 0.950 . S
C543 C545 1.327 . S
C543 C549 1.429 . S
C544 C536 1.574 . S
C544 H539 0.949 . S
C544 C550 1.368 . S
C545 C529 1.349 . S
C545 H537 0.950 . S
C545 C543 1.327 . S
C546 C534 1.349 . S
C546 H540 0.950 . S
C546 C547 1.327 . S
C547 H541 0.950 . S
C547 C546 1.327 . S
C547 C551 1.429 . S
C548 C531 1.574 . S
C548 H542 0.968 . S
C548 C552 1.368 . S
C549 C530 1.429 . S
C549 C543 1.429 . S
C549 C550 1.523 . S
C550 C531 1.368 . S
C550 C544 1.368 . S
C550 C549 1.523 . S
C551 C535 1.429 . S
C551 C547 1.429 . S
C551 C552 1.523 . S
C552 C536 1.368 . S
C552 C548 1.368 . S
C552 C551 1.523 . S
H553 C528 0.950 . S
H554 C530 0.950 . S
H555 C531 0.949 . S
H556 C533 0.950 1_655 S
H557 C535 0.950 1_655 S
C558 C559 1.349 . S
C558 C560 1.327 . S
C558 H583 0.950 1_545 S
C559 C558 1.349 . S
C559 C575 1.349 . S
C560 C558 1.327 . S
C560 C579 1.424 . S
C560 H584 0.955 1_545 S
C561 C578 1.574 . S
C561 C580 1.368 . S
C561 H585 0.949 . S
H562 C566 0.949 . S
C563 C564 1.349 . S
C563 C565 1.327 . S
C563 H586 0.950 . S
C564 C563 1.349 . S
C564 C576 1.349 1_545 S
C565 C563 1.327 . S
C565 C581 1.429 . S
C565 H587 0.950 . S
C566 H562 0.949 . S
C566 C574 1.574 . S
C566 C582 1.368 1_565 S
H567 C575 0.950 . S
H568 C573 0.950 . S
H569 C574 0.949 . S
H570 C576 0.950 . S
H571 C577 0.950 . S
H572 C578 0.949 . S
C573 H568 0.950 . S
C573 C575 1.327 . S
C573 C579 1.429 . S
C574 C566 1.574 . S
C574 H569 0.949 . S
C574 C580 1.368 1_565 S
C575 C559 1.349 . S
C575 H567 0.950 . S
C575 C573 1.327 . S
C576 C564 1.349 1_565 S
C576 H570 0.950 . S
C576 C577 1.327 . S
C577 H571 0.950 . S
C577 C576 1.327 . S
C577 C581 1.429 1_565 S
C578 C561 1.574 . S
C578 H572 0.949 . S
C578 C582 1.368 . S
C579 C560 1.424 . S
C579 C573 1.429 . S
C579 C580 1.523 . S
C580 C561 1.368 . S
C580 C574 1.368 1_545 S
C580 C579 1.523 . S
C581 C565 1.429 . S
C581 C577 1.429 1_545 S
C581 C582 1.523 . S
C582 C566 1.368 1_545 S
C582 C578 1.368 . S
C582 C581 1.523 . S
H583 C558 0.950 1_565 S
H584 C560 0.955 1_565 S
H585 C561 0.949 . S
H586 C563 0.950 . S
H587 C565 0.950 . S
C588 C589 1.349 . S
C588 C590 1.327 . S
C588 H613 0.950 . S
C589 C588 1.349 . S
C589 C605 1.349 . S
C590 C588 1.327 . S
C590 C609 1.429 . S
C590 H614 0.950 . S
C591 C608 1.574 . S
C591 C610 1.368 . S
C591 H615 0.949 . S
H592 C596 0.949 . S
C593 C594 1.349 . S
C593 C595 1.327 . S
C593 H616 0.950 . S
C594 C593 1.349 . S
C594 C606 1.349 . S
C595 C593 1.327 . S
C595 C611 1.429 . S
C595 H617 0.950 . S
C596 H592 0.949 . S
C596 C604 1.574 . S
C596 C612 1.368 . S
H597 C605 0.950 . S
H598 C603 0.950 . S
H599 C604 0.949 . S
H600 C606 0.950 . S
H601 C607 0.950 . S
H602 C608 0.949 . S
C603 H598 0.950 . S
C603 C605 1.327 . S
C603 C609 1.429 . S
C604 C596 1.574 . S
C604 H599 0.949 . S
C604 C610 1.368 . S
C605 C589 1.349 . S
C605 H597 0.950 . S
C605 C603 1.327 . S
C606 C594 1.349 . S
C606 H600 0.950 . S
C606 C607 1.327 . S
C607 H601 0.950 . S
C607 C606 1.327 . S
C607 C611 1.429 . S
C608 C591 1.574 . S
C608 H602 0.949 . S
C608 C612 1.368 . S
C609 C590 1.429 . S
C609 C603 1.429 . S
C609 C610 1.523 . S
C610 C591 1.368 . S
C610 C604 1.368 . S
C610 C609 1.523 . S
C611 C595 1.429 . S
C611 C607 1.429 . S
C611 C612 1.523 . S
C612 C596 1.368 . S
C612 C608 1.368 . S
C612 C611 1.523 . S
H613 C588 0.950 . S
H614 C590 0.950 . S
H615 C591 0.949 . S
H616 C593 0.950 . S
H617 C595 0.950 . S
C618 C619 1.349 . S
C618 C620 1.327 . S
C618 H643 0.950 . S
C619 C618 1.349 . S
C619 C635 1.349 . S
C620 C618 1.327 . S
C620 C639 1.429 . S
C620 H644 0.950 . S
C621 C638 1.574 . S
C621 C640 1.368 . S
C621 H645 0.949 . S
H622 C626 0.949 . S
C623 C624 1.349 . S
C623 C625 1.327 . S
C623 H646 0.950 . S
C624 C623 1.349 . S
C624 C636 1.349 . S
C625 C623 1.327 . S
C625 C641 1.429 . S
C625 H647 0.950 . S
C626 H622 0.949 . S
C626 C634 1.574 . S
C626 C642 1.368 . S
H627 C635 0.950 . S
H628 C633 0.950 . S
H629 C634 0.949 . S
H630 C636 0.950 . S
H631 C637 0.950 . S
H632 C638 0.949 . S
C633 H628 0.950 . S
C633 C635 1.327 . S
C633 C639 1.429 . S
C634 C626 1.574 . S
C634 H629 0.949 . S
C634 C640 1.368 . S
C635 C619 1.349 . S
C635 H627 0.950 . S
C635 C633 1.327 . S
C636 C624 1.349 . S
C636 H630 0.950 . S
C636 C637 1.327 . S
C637 H631 0.950 . S
C637 C636 1.327 . S
C637 C641 1.429 . S
C638 C621 1.574 . S
C638 H632 0.949 . S
C638 C642 1.368 . S
C639 C620 1.429 . S
C639 C633 1.429 . S
C639 C640 1.523 . S
C640 C621 1.368 . S
C640 C634 1.368 . S
C640 C639 1.523 . S
C641 C625 1.429 . S
C641 C637 1.429 . S
C641 C642 1.523 . S
C642 C626 1.368 . S
C642 C638 1.368 . S
C642 C641 1.523 . S
H643 C618 0.950 . S
H644 C620 0.950 . S
H645 C621 0.949 . S
H646 C623 0.950 . S
H647 C625 0.950 . S
C648 C649 1.349 . S
C648 C650 1.327 . S
C648 H673 0.950 . S
C649 C648 1.349 . S
C649 C665 1.349 . S
C650 C648 1.327 . S
C650 C669 1.429 . S
C650 H674 0.946 1_655 S
C651 C668 1.574 1_655 S
C651 C670 1.368 . S
C651 H675 0.949 . S
H652 C656 0.949 . S
C653 C654 1.349 . S
C653 C655 1.327 . S
C653 H676 0.950 . S
C654 C653 1.349 . S
C654 C666 1.349 . S
C655 C653 1.327 . S
C655 C671 1.429 . S
C655 H677 0.950 . S
C656 H652 0.949 . S
C656 C664 1.574 . S
C656 C672 1.368 . S
H657 C665 0.950 1_554 S
H658 C663 0.950 . S
H659 C664 0.949 . S
H660 C666 0.950 . S
H661 C667 0.950 . S
H662 C668 0.949 . S
C663 H658 0.950 . S
C663 C665 1.327 . S
C663 C669 1.429 . S
C664 C656 1.574 . S
C664 H659 0.949 . S
C664 C670 1.368 1_455 S
C665 C649 1.349 . S
C665 H657 0.950 1_556 S
C665 C663 1.327 . S
C666 C654 1.349 . S
C666 H660 0.950 . S
C666 C667 1.327 . S
C667 H661 0.950 . S
C667 C666 1.327 . S
C667 C671 1.429 . S
C668 C651 1.574 1_455 S
C668 H662 0.949 . S
C668 C672 1.368 . S
C669 C650 1.429 . S
C669 C663 1.429 . S
C669 C670 1.523 . S
C670 C651 1.368 . S
C670 C664 1.368 1_655 S
C670 C669 1.523 . S
C671 C655 1.429 . S
C671 C667 1.429 . S
C671 C672 1.523 . S
C672 C656 1.368 . S
C672 C668 1.368 . S
C672 C671 1.523 . S
H673 C648 0.950 . S
H674 C650 0.946 1_455 S
H675 C651 0.949 . S
H676 C653 0.950 . S
H677 C655 0.950 . S
C678 C679 1.349 . S
C678 C680 1.327 1_554 S
C678 H703 0.950 . S
C679 C678 1.349 . S
C679 C695 1.349 1_564 S
C680 C678 1.327 1_556 S
C680 C699 1.432 . S
C680 H704 0.950 1_556 S
C681 C698 1.574 . S
C681 C700 1.368 . S
C681 H705 0.949 . S
H682 C686 0.949 . S
C683 C684 1.349 . S
C683 C685 1.327 . S
C683 H706 0.950 . S
C684 C683 1.349 . S
C684 C696 1.349 1_545 S
C685 C683 1.327 . S
C685 C701 1.429 . S
C685 H707 0.950 . S
C686 H682 0.949 . S
C686 C694 1.574 . S
C686 C702 1.368 1_565 S
H687 C695 0.950 . S
H688 C693 0.950 . S
H689 C694 0.949 . S
H690 C696 0.950 . S
H691 C697 0.950 . S
H692 C698 0.949 . S
C693 H688 0.950 . S
C693 C695 1.327 . S
C693 C699 1.425 1_545 S
C694 C686 1.574 . S
C694 H689 0.949 . S
C694 C700 1.368 1_565 S
C695 C679 1.349 1_546 S
C695 H687 0.950 . S
C695 C693 1.327 . S
C696 C684 1.349 1_565 S
C696 H690 0.950 . S
C696 C697 1.327 . S
C697 H691 0.950 . S
C697 C696 1.327 . S
C697 C701 1.429 1_565 S
C698 C681 1.574 . S
C698 H692 0.949 . S
C698 C702 1.368 . S
C699 C680 1.432 . S
C699 C693 1.425 1_565 S
C699 C700 1.523 1_565 S
C700 C681 1.368 . S
C700 C694 1.368 1_545 S
C700 C699 1.523 1_545 S
C701 C685 1.429 . S
C701 C697 1.429 1_545 S
C701 C702 1.523 . S
C702 C686 1.368 1_545 S
C702 C698 1.368 . S
C702 C701 1.523 . S
H703 C678 0.950 . S
H704 C680 0.950 1_554 S
H705 C681 0.949 . S
H706 C683 0.950 . S
H707 C685 0.950 . S
C708 C709 1.349 1_556 S
C708 C710 1.327 . S
C708 H733 0.950 . S
C709 C708 1.349 1_554 S
C709 C725 1.349 . S
C710 C708 1.327 . S
C710 C729 1.429 . S
C710 H734 0.950 . S
C711 C728 1.574 . S
C711 C730 1.368 . S
C711 H735 0.949 . S
H712 C716 0.949 . S
C713 C714 1.349 . S
C713 C715 1.327 . S
C713 H736 0.950 . S
C714 C713 1.349 . S
C714 C726 1.349 . S
C715 C713 1.327 . S
C715 C731 1.429 . S
C715 H737 0.950 . S
C716 H712 0.949 . S
C716 C724 1.574 . S
C716 C732 1.368 . S
H717 C725 0.950 . S
H718 C723 0.950 . S
H719 C724 0.949 . S
H720 C726 0.950 . S
H721 C727 0.950 . S
H722 C728 0.949 . S
C723 H718 0.950 . S
C723 C725 1.327 . S
C723 C729 1.429 1_554 S
C724 C716 1.574 . S
C724 H719 0.949 . S
C724 C730 1.368 . S
C725 C709 1.349 . S
C725 H717 0.950 . S
C725 C723 1.327 . S
C726 C714 1.349 . S
C726 H720 0.950 . S
C726 C727 1.327 . S
C727 H721 0.950 . S
C727 C726 1.327 . S
C727 C731 1.429 . S
C728 C711 1.574 . S
C728 H722 0.949 . S
C728 C732 1.368 . S
C729 C710 1.429 . S
C729 C723 1.429 1_556 S
C729 C730 1.523 . S
C730 C711 1.368 . S
C730 C724 1.368 . S
C730 C729 1.523 . S
C731 C715 1.429 . S
C731 C727 1.429 . S
C731 C732 1.523 . S
C732 C716 1.368 . S
C732 C728 1.368 . S
C732 C731 1.523 . S
H733 C708 0.950 . S
H734 C710 0.950 . S
H735 C711 0.949 . S
H736 C713 0.950 . S
H737 C715 0.950 . S
C738 C739 1.349 . S
C738 C740 1.327 1_554 S
C738 H763 0.950 . S
C739 C738 1.349 . S
C739 C755 1.349 . S
C740 C738 1.327 1_556 S
C740 C759 1.429 . S
C740 H764 0.950 . S
C741 C758 1.574 . S
C741 C760 1.368 . S
C741 H765 0.949 1_556 S
H742 C746 0.949 . S
C743 C744 1.349 . S
C743 C745 1.327 . S
C743 H766 0.950 . S
C744 C743 1.349 . S
C744 C756 1.349 . S
C745 C743 1.327 . S
C745 C761 1.429 . S
C745 H767 0.950 . S
C746 H742 0.949 . S
C746 C754 1.574 . S
C746 C762 1.368 . S
H747 C755 0.950 . S
H748 C753 0.950 . S
H749 C754 0.949 . S
H750 C756 0.950 . S
H751 C757 0.950 . S
H752 C758 0.949 . S
C753 H748 0.950 . S
C753 C755 1.327 . S
C753 C759 1.429 1_554 S
C754 C746 1.574 . S
C754 H749 0.949 . S
C754 C760 1.368 . S
C755 C739 1.349 . S
C755 H747 0.950 . S
C755 C753 1.327 . S
C756 C744 1.349 . S
C756 H750 0.950 . S
C756 C757 1.327 . S
C757 H751 0.950 . S
C757 C756 1.327 . S
C757 C761 1.429 . S
C758 C741 1.574 . S
C758 H752 0.949 . S
C758 C762 1.368 . S
C759 C740 1.429 . S
C759 C753 1.429 1_556 S
C759 C760 1.523 . S
C760 C741 1.368 . S
C760 C754 1.368 . S
C760 C759 1.523 . S
C761 C745 1.429 . S
C761 C757 1.429 . S
C761 C762 1.523 . S
C762 C746 1.368 . S
C762 C758 1.368 . S
C762 C761 1.523 . S
H763 C738 0.950 . S
H764 C740 0.950 . S
H765 C741 0.949 1_554 S
H766 C743 0.950 . S
H767 C745 0.950 . S
C768 C769 1.349 . S
C768 C770 1.327 . S
C768 H793 0.950 . S
C769 C768 1.349 . S
C769 C785 1.349 . S
C770 C768 1.327 . S
C770 C789 1.429 . S
C770 H794 0.950 . S
C771 C788 1.574 . S
C771 C790 1.368 . S
C771 H795 0.949 . S
H772 C776 0.949 . S
C773 C774 1.349 1_554 S
C773 C775 1.327 . S
C773 H796 0.950 . S
C774 C773 1.349 1_556 S
C774 C786 1.349 . S
C775 C773 1.327 . S
C775 C791 1.429 . S
C775 H797 0.950 . S
C776 H772 0.949 . S
C776 C784 1.574 . S
C776 C792 1.368 . S
H777 C785 0.950 . S
H778 C783 0.950 . S
H779 C784 0.949 . S
H780 C786 0.950 . S
H781 C787 0.950 . S
H782 C788 0.949 . S
C783 H778 0.950 . S
C783 C785 1.327 . S
C783 C789 1.429 . S
C784 C776 1.574 . S
C784 H779 0.949 . S
C784 C790 1.368 . S
C785 C769 1.349 . S
C785 H777 0.950 . S
C785 C783 1.327 . S
C786 C774 1.349 . S
C786 H780 0.950 . S
C786 C787 1.327 . S
C787 H781 0.950 . S
C787 C786 1.327 . S
C787 C791 1.429 1_556 S
C788 C771 1.574 . S
C788 H782 0.949 . S
C788 C792 1.368 . S
C789 C770 1.429 . S
C789 C783 1.429 . S
C789 C790 1.523 . S
C790 C771 1.368 . S
C790 C784 1.368 . S
C790 C789 1.523 . S
C791 C775 1.429 . S
C791 C787 1.429 1_554 S
C791 C792 1.523 . S
C792 C776 1.368 . S
C792 C788 1.368 . S
C792 C791 1.523 . S
H793 C768 0.950 . S
H794 C770 0.950 . S
H795 C771 0.949 . S
H796 C773 0.950 . S
H797 C775 0.950 . S
C798 C799 1.349 1_565 S
C798 C800 1.327 . S
C798 H823 0.950 . S
C799 C798 1.349 1_545 S
C799 C815 1.349 . S
C800 C798 1.327 . S
C800 C819 1.429 1_565 S
C800 H824 0.950 . S
C801 C818 1.574 . S
C801 C820 1.368 . S
C801 H825 0.949 . S
H802 C806 0.949 . S
C803 C804 1.349 . S
C803 C805 1.327 . S
C803 H826 0.950 . S
C804 C803 1.349 . S
C804 C816 1.349 1_545 S
C805 C803 1.327 . S
C805 C821 1.429 . S
C805 H827 0.950 . S
C806 H802 0.949 . S
C806 C814 1.574 1_556 S
C806 C822 1.368 1_565 S
H807 C815 0.950 . S
H808 C813 0.950 . S
H809 C814 0.949 . S
H810 C816 0.950 . S
H811 C817 0.950 . S
H812 C818 0.949 . S
C813 H808 0.950 . S
C813 C815 1.327 . S
C813 C819 1.429 . S
C814 C806 1.574 1_554 S
C814 H809 0.949 . S
C814 C820 1.368 1_565 S
C815 C799 1.349 . S
C815 H807 0.950 . S
C815 C813 1.327 . S
C816 C804 1.349 1_565 S
C816 H810 0.950 . S
C816 C817 1.327 . S
C817 H811 0.950 . S
C817 C816 1.327 . S
C817 C821 1.429 1_565 S
C818 C801 1.574 . S
C818 H812 0.949 . S
C818 C822 1.368 1_554 S
C819 C800 1.429 1_545 S
C819 C813 1.429 . S
C819 C820 1.523 . S
C820 C801 1.368 . S
C820 C814 1.368 1_545 S
C820 C819 1.523 . S
C821 C805 1.429 . S
C821 C817 1.429 1_545 S
C821 C822 1.523 . S
C822 C806 1.368 1_545 S
C822 C818 1.368 1_556 S
C822 C821 1.523 . S
H823 C798 0.950 . S
H824 C800 0.950 . S
H825 C801 0.949 . S
H826 C803 0.950 . S
H827 C805 0.950 . S
C828 C829 1.349 . S
C828 C830 1.327 . S
C828 H853 0.950 . S
C829 C828 1.349 . S
C829 C845 1.349 . S
C830 C828 1.327 . S
C830 C849 1.429 . S
C830 H854 0.950 . S
C831 C848 1.574 1_554 S
C831 C850 1.368 . S
C831 H855 0.949 . S
H832 C836 0.949 . S
C833 C834 1.349 . S
C833 C835 1.327 . S
C833 H856 0.950 . S
C834 C833 1.349 . S
C834 C846 1.349 . S
C835 C833 1.327 . S
C835 C851 1.429 . S
C835 H857 0.950 . S
C836 H832 0.949 . S
C836 C844 1.574 1_556 S
C836 C852 1.368 . S
H837 C845 0.950 . S
H838 C843 0.950 . S
H839 C844 0.949 . S
H840 C846 0.950 . S
H841 C847 0.950 . S
H842 C848 0.949 . S
C843 H838 0.950 . S
C843 C845 1.327 . S
C843 C849 1.429 . S
C844 C836 1.574 1_554 S
C844 H839 0.949 . S
C844 C850 1.368 . S
C845 C829 1.349 . S
C845 H837 0.950 . S
C845 C843 1.327 . S
C846 C834 1.349 . S
C846 H840 0.950 . S
C846 C847 1.327 . S
C847 H841 0.950 . S
C847 C846 1.327 . S
C847 C851 1.429 . S
C848 C831 1.574 1_556 S
C848 H842 0.949 . S
C848 C852 1.368 . S
C849 C830 1.429 . S
C849 C843 1.429 . S
C849 C850 1.523 . S
C850 C831 1.368 . S
C850 C844 1.368 . S
C850 C849 1.523 . S
C851 C835 1.429 . S
C851 C847 1.429 . S
C851 C852 1.523 . S
C852 C836 1.368 . S
C852 C848 1.368 . S
C852 C851 1.523 . S
H853 C828 0.950 . S
H854 C830 0.950 . S
H855 C831 0.949 . S
H856 C833 0.950 . S
H857 C835 0.950 . S
C858 C859 1.349 . S
C858 C860 1.327 . S
C858 H883 0.950 . S
C859 C858 1.349 . S
C859 C875 1.349 . S
C860 C858 1.327 . S
C860 C879 1.429 . S
C860 H884 0.950 . S
C861 C878 1.574 . S
C861 C880 1.368 1_556 S
C861 H885 0.949 . S
H862 C866 0.949 . S
C863 C864 1.349 . S
C863 C865 1.327 . S
C863 H886 0.950 . S
C864 C863 1.349 . S
C864 C876 1.349 . S
C865 C863 1.327 . S
C865 C881 1.429 . S
C865 H887 0.950 . S
C866 H862 0.949 . S
C866 C874 1.574 . S
C866 C882 1.368 1_554 S
H867 C875 0.950 . S
H868 C873 0.950 . S
H869 C874 0.949 . S
H870 C876 0.950 . S
H871 C877 0.950 . S
H872 C878 0.949 . S
C873 H868 0.950 . S
C873 C875 1.327 . S
C873 C879 1.429 . S
C874 C866 1.574 . S
C874 H869 0.949 . S
C874 C880 1.368 . S
C875 C859 1.349 . S
C875 H867 0.950 . S
C875 C873 1.327 . S
C876 C864 1.349 . S
C876 H870 0.950 . S
C876 C877 1.327 . S
C877 H871 0.950 . S
C877 C876 1.327 . S
C877 C881 1.429 . S
C878 C861 1.574 . S
C878 H872 0.949 . S
C878 C882 1.368 . S
C879 C860 1.429 . S
C879 C873 1.429 . S
C879 C880 1.523 . S
C880 C861 1.368 1_554 S
C880 C874 1.368 . S
C880 C879 1.523 . S
C881 C865 1.429 . S
C881 C877 1.429 . S
C881 C882 1.523 . S
C882 C866 1.368 1_556 S
C882 C878 1.368 . S
C882 C881 1.523 . S
H883 C858 0.950 . S
H884 C860 0.950 . S
H885 C861 0.949 . S
H886 C863 0.950 . S
H887 C865 0.950 . S
C888 C889 1.349 . S
C888 C890 1.328 1_655 S
C888 H913 0.950 1_655 S
C889 C888 1.349 . S
C889 C905 1.349 . S
C890 C888 1.328 1_455 S
C890 C909 1.431 1_455 S
C890 H914 0.947 . S
C891 C908 1.574 . S
C891 C910 1.368 . S
C891 H915 0.949 . S
H892 C896 0.949 . S
C893 C894 1.368 . S
C893 C895 1.327 . S
C893 H916 0.950 . S
C894 C893 1.368 . S
C894 C906 1.335 1_655 S
C895 C893 1.327 . S
C895 C911 1.429 . S
C895 H917 0.950 . S
C896 H892 0.949 . S
C896 C904 1.574 . S
C896 C912 1.368 1_455 S
H897 C905 0.950 . S
H898 C903 0.950 . S
H899 C904 0.949 . S
H900 C906 0.950 . S
H901 C907 0.950 . S
H902 C908 0.949 . S
C903 H898 0.950 . S
C903 C905 1.327 . S
C903 C909 1.429 . S
C904 C896 1.574 . S
C904 H899 0.949 . S
C904 C910 1.368 1_455 S
C905 C889 1.349 . S
C905 H897 0.950 . S
C905 C903 1.327 . S
C906 C894 1.335 1_455 S
C906 H900 0.950 . S
C906 C907 1.327 . S
C907 H901 0.950 . S
C907 C906 1.327 . S
C907 C911 1.429 1_455 S
C908 C891 1.574 . S
C908 H902 0.949 . S
C908 C912 1.368 . S
C909 C890 1.431 1_655 S
C909 C903 1.429 . S
C909 C910 1.523 . S
C910 C891 1.368 . S
C910 C904 1.368 1_655 S
C910 C909 1.523 . S
C911 C895 1.429 . S
C911 C907 1.429 1_655 S
C911 C912 1.523 . S
C912 C896 1.368 1_655 S
C912 C908 1.368 . S
C912 C911 1.523 . S
H913 C888 0.950 1_455 S
H914 C890 0.947 . S
H915 C891 0.949 . S
H916 C893 0.950 . S
H917 C895 0.950 . S
C918 C919 1.349 1_545 S
C918 C920 1.327 . S
C918 H943 0.950 . S
C919 C918 1.349 1_565 S
C919 C935 1.349 . S
C920 C918 1.327 . S
C920 C939 1.429 1_545 S
C920 H944 0.950 . S
C921 C938 1.574 . S
C921 C940 1.368 . S
C921 H945 0.949 . S
H922 C926 0.949 . S
C923 C924 1.339 1_565 S
C923 C925 1.327 . S
C923 H946 0.950 . S
C924 C923 1.339 1_545 S
C924 C936 1.358 . S
C925 C923 1.327 . S
C925 C941 1.441 . S
C925 H947 0.950 . S
C926 H922 0.949 . S
C926 C934 1.574 . S
C926 C942 1.337 1_545 S
H927 C935 0.950 . S
H928 C933 0.950 . S
H929 C934 0.949 . S
H930 C936 0.950 . S
H931 C937 0.950 . S
H932 C938 0.949 . S
C933 H928 0.950 . S
C933 C935 1.327 . S
C933 C939 1.429 . S
C934 C926 1.574 . S
C934 H929 0.949 . S
C934 C940 1.368 1_545 S
C935 C919 1.349 . S
C935 H927 0.950 . S
C935 C933 1.327 . S
C936 C924 1.358 . S
C936 H930 0.950 . S
C936 C937 1.327 . S
C937 H931 0.950 . S
C937 C936 1.327 . S
C937 C941 1.415 1_545 S
C938 C921 1.574 . S
C938 H932 0.949 . S
C938 C942 1.403 . S
C939 C920 1.429 1_565 S
C939 C933 1.429 . S
C939 C940 1.523 . S
C940 C921 1.368 . S
C940 C934 1.368 1_565 S
C940 C939 1.523 . S
C941 C925 1.441 . S
C941 C937 1.415 1_565 S
C941 C942 1.522 . S
C942 C926 1.337 1_565 S
C942 C938 1.403 . S
C942 C941 1.522 . S
H943 C918 0.950 . S
H944 C920 0.950 . S
H945 C921 0.949 . S
H946 C923 0.950 . S
H947 C925 0.950 . S
C948 C949 1.349 . S
C948 C950 1.327 . S
C948 H973 0.950 . S
C949 C948 1.349 . S
C949 C965 1.349 . S
C950 C948 1.327 . S
C950 C969 1.429 . S
C950 H974 0.950 . S
C951 C968 1.574 . S
C951 C970 1.368 . S
C951 H975 0.949 . S
H952 C956 0.949 . S
C953 C954 1.349 . S
C953 C955 1.327 . S
C953 H976 0.950 . S
C954 C953 1.349 . S
C954 C966 1.349 . S
C955 C953 1.327 . S
C955 C971 1.429 . S
C955 H977 0.950 . S
C956 H952 0.949 . S
C956 C964 1.574 . S
C956 C972 1.368 . S
H957 C965 0.950 . S
H958 C963 0.950 . S
H959 C964 0.949 . S
H960 C966 0.950 . S
H961 C967 0.950 . S
H962 C968 0.949 . S
C963 H958 0.950 . S
C963 C965 1.327 . S
C963 C969 1.429 . S
C964 C956 1.574 . S
C964 H959 0.949 . S
C964 C970 1.368 . S
C965 C949 1.349 . S
C965 H957 0.950 . S
C965 C963 1.327 . S
C966 C954 1.349 . S
C966 H960 0.950 . S
C966 C967 1.327 . S
C967 H961 0.950 . S
C967 C966 1.327 . S
C967 C971 1.429 . S
C968 C951 1.574 . S
C968 H962 0.949 . S
C968 C972 1.368 . S
C969 C950 1.429 . S
C969 C963 1.429 . S
C969 C970 1.523 . S
C970 C951 1.368 . S
C970 C964 1.368 . S
C970 C969 1.523 . S
C971 C955 1.429 . S
C971 C967 1.429 . S
C971 C972 1.523 . S
C972 C956 1.368 . S
C972 C968 1.368 . S
C972 C971 1.523 . S
H973 C948 0.950 . S
H974 C950 0.950 . S
H975 C951 0.949 . S
H976 C953 0.950 . S
H977 C955 0.950 . S
C978 C979 1.349 . S
C978 C980 1.327 . S
C978 H1003 0.950 . S
C979 C978 1.349 . S
C979 C995 1.349 . S
C980 C978 1.327 . S
C980 C999 1.429 . S
C980 H1004 0.950 . S
C981 C998 1.574 . S
C981 C1000 1.368 . S
C981 H1005 0.949 . S
H982 C986 0.949 . S
C983 C984 1.349 . S
C983 C985 1.327 . S
C983 H1006 0.950 . S
C984 C983 1.349 . S
C984 C996 1.349 . S
C985 C983 1.327 . S
C985 C1001 1.429 . S
C985 H1007 0.950 . S
C986 H982 0.949 . S
C986 C994 1.574 . S
C986 C1002 1.368 . S
H987 C995 0.950 . S
H988 C993 0.950 . S
H989 C994 0.949 . S
H990 C996 0.950 . S
H991 C997 0.950 . S
H992 C998 0.949 . S
C993 H988 0.950 . S
C993 C995 1.327 . S
C993 C999 1.429 . S
C994 C986 1.574 . S
C994 H989 0.949 . S
C994 C1000 1.368 . S
C995 C979 1.349 . S
C995 H987 0.950 . S
C995 C993 1.327 . S
C996 C984 1.349 . S
C996 H990 0.950 . S
C996 C997 1.327 . S
C997 H991 0.950 . S
C997 C996 1.327 . S
C997 C1001 1.429 . S
C998 C981 1.574 . S
C998 H992 0.949 . S
C998 C1002 1.368 . S
C999 C980 1.429 . S
C999 C993 1.429 . S
C999 C1000 1.523 . S
C1000 C981 1.368 . S
C1000 C994 1.368 . S
C1000 C999 1.523 . S
C1001 C985 1.429 . S
C1001 C997 1.429 . S
C1001 C1002 1.523 . S
C1002 C986 1.368 . S
C1002 C998 1.368 . S
C1002 C1001 1.523 . S
H1003 C978 0.950 . S
H1004 C980 0.950 . S
H1005 C981 0.949 . S
H1006 C983 0.950 . S
H1007 C985 0.950 . S
C289 C125 1.810 . S
C294 C169 1.920 . S
C324 C190 1.570 . S
C319 C144 1.473 . S
C354 C224 1.348 . S
C349 C87 1.297 . S
C384 C258 1.543 . S
C379 C106 1.432 . S
C414 C160 1.921 . S
C409 C49 1.831 1_556 S
C439 C68 1.493 1_556 S
C444 C199 1.570 . S
C469 C11 1.313 . S
C474 C233 1.349 . S
C499 C30 1.476 . S
C504 C267 1.544 . S
C534 C181 0.358 . S
C529 C97 0.508 . S
C564 C186 0.854 . S
C559 C116 0.842 . S
C594 C220 0.763 . S
C589 C135 0.762 . S
C619 C78 0.361 . S
C624 C254 0.262 . S
C649 C21 0.507 . S
C654 C152 0.361 . S
C684 C215 0.853 . S
C679 C40 0.841 . S
C714 C249 0.763 . S
C709 C59 0.762 . S
C739 C2 0.359 . S
C744 C283 0.262 . S
C769 C101 1.281 . S
C774 C165 1.305 . S
C799 C120 1.731 . S
C804 C194 1.765 . S
C834 C228 1.574 . S
C829 C139 1.549 . S
C864 C262 1.668 . S
C859 C82 1.632 . S
C889 C25 1.282 . S
C894 C156 1.298 1_655 S
C924 C203 1.764 . S
C919 C44 1.731 . S
C954 C237 1.574 . S
C949 C63 1.549 . S
C979 C6 1.633 . S
C984 C271 1.669 . S
