# Generated by pormake.
# Topology tsx, (6,3)-cn, num edge types: 1
# Building blocks:
#     Node 0, Type 0, BuildingBlock: MIDCAF_clean_sbu_0, # of connection points: 6
#     Node 1, Type 0, BuildingBlock: MIDCAF_clean_sbu_0, # of connection points: 6
#     Node 2, Type 1, BuildingBlock: MIDCAF_clean_linker_0, # of connection points: 3
#     Node 3, Type 1, BuildingBlock: MIDCAF_clean_linker_0, # of connection points: 3
#     Node 4, Type 1, BuildingBlock: MIDCAF_clean_linker_0, # of connection points: 3
#     Node 5, Type 1, BuildingBlock: MIDCAF_clean_linker_0, # of connection points: 3
#     Edge 6, Type (0, 1), BuildingBlock: OJICUG_clean_linker_0, # of connection points: 2
#     Edge 7, Type (0, 1), BuildingBlock: OJICUG_clean_linker_0, # of connection points: 2
#     Edge 8, Type (0, 1), BuildingBlock: OJICUG_clean_linker_0, # of connection points: 2
#     Edge 9, Type (0, 1), BuildingBlock: OJICUG_clean_linker_0, # of connection points: 2
#     Edge 10, Type (0, 1), BuildingBlock: OJICUG_clean_linker_0, # of connection points: 2
#     Edge 11, Type (0, 1), BuildingBlock: OJICUG_clean_linker_0, # of connection points: 2
#     Edge 12, Type (0, 1), BuildingBlock: OJICUG_clean_linker_0, # of connection points: 2
#     Edge 13, Type (0, 1), BuildingBlock: OJICUG_clean_linker_0, # of connection points: 2
#     Edge 14, Type (0, 1), BuildingBlock: OJICUG_clean_linker_0, # of connection points: 2
#     Edge 15, Type (0, 1), BuildingBlock: OJICUG_clean_linker_0, # of connection points: 2
#     Edge 16, Type (0, 1), BuildingBlock: OJICUG_clean_linker_0, # of connection points: 2
#     Edge 17, Type (0, 1), BuildingBlock: OJICUG_clean_linker_0, # of connection points: 2
# Relax obj value: 0.119
# Max RMSD: 0.182
# Mean RMSD: 0.114
data_MOF--net-tsx--node1-MIDCAF_clean_sbu_0--node2-MIDCAF_clean_linker_0--edge1-OJICUG_clean_linker_0
_symmetry_space_group_name_H-M    P1
_symmetry_Int_Tables_number       1
_symmetry_cell_setting            triclinic
loop_
_symmetry_equiv_pos_as_xyz
'x, y, z'
_cell_length_a     18.280304
_cell_length_b     19.222569
_cell_length_c     35.068023
_cell_angle_alpha  90.286504
_cell_angle_beta   100.06912
_cell_angle_gamma 90.183144
loop_
_atom_site_label
_atom_site_type_symbol
_atom_site_fract_x
_atom_site_fract_y
_atom_site_fract_z
_atom_type_partial_charge
Zn0 Zn 0.93278 0.02489 0.98591 0.0
Zn1 Zn 0.17343 0.01945 0.08745 0.0
Zn2 Zn 0.05307 0.03333 0.03641 0.0
C3 C 0.20632 0.11121 0.03085 0.0
C4 C 0.14542 0.88874 0.06035 0.0
O5 O 1.01212 0.92319 0.02805 0.0
O6 O 0.90467 0.92645 0.98799 0.0
C7 C 0.90512 0.11825 0.04288 0.0
O8 O 0.13914 0.09648 1.01469 0.0
O9 O 0.2342 0.0841 0.06276 0.0
O10 O 0.19447 0.91948 0.08433 0.0
O11 O 0.08896 0.92277 0.04243 0.0
O12 O 0.87594 0.0927 1.01059 0.0
O13 O 0.97091 0.09982 0.05918 0.0
O14 O 0.08162 0.07996 0.98317 0.0
O15 O 0.97766 0.05776 0.94218 0.0
C16 C 0.04341 0.08086 0.94862 0.0
O17 O 0.02695 0.07966 0.09073 0.0
O18 O 0.13039 0.05493 0.13132 0.0
C19 C 0.95294 0.8922 1.01024 0.0
C20 C 0.06553 0.07964 0.12523 0.0
Zn21 Zn 0.6675 0.51281 0.58989 0.0
Zn22 Zn 0.42974 0.51739 0.48378 0.0
Zn23 Zn 0.54884 0.52665 0.53539 0.0
C24 C 0.54279 0.5756 0.44846 0.0
C25 C 0.39917 0.61053 0.54013 0.0
O26 O 0.51807 0.56985 0.58911 0.0
O27 O 0.61721 0.54326 0.63254 0.0
C28 C 0.64236 0.38306 0.55883 0.0
O29 O 0.57971 0.57513 0.4833 0.0
O30 O 0.47766 0.55102 0.4412 0.0
O31 O 0.37116 0.58505 0.50763 0.0
O32 O 0.46458 0.59216 0.55702 0.0
O33 O 0.68999 0.41323 0.58388 0.0
O34 O 0.58592 0.41695 0.54085 0.0
O35 O 0.63605 0.59058 0.51561 0.0
O36 O 0.72629 0.58167 0.5665 0.0
C37 C 0.70127 0.60733 0.53378 0.0
O38 O 0.50924 0.41632 0.52623 0.0
O39 O 0.4023 0.41861 0.48573 0.0
C40 C 0.55238 0.56771 0.62448 0.0
C41 C 0.45064 0.38479 0.50819 0.0
C42 C 0.75459 0.11229 0.46663 0.0
C43 C 0.77525 0.14421 0.50323 0.0
C44 C 0.84804 0.1338 0.52348 0.0
C45 C 0.89929 0.09545 0.50701 0.0
H46 H 0.04223 0.90318 0.52133 0.0
H47 H 0.13505 0.82814 0.55857 0.0
H48 H 0.2843 0.87183 0.47888 0.0
H49 H 0.19189 0.94919 0.44247 0.0
H50 H 0.11179 0.0118 0.35739 0.0
H51 H 0.11605 0.04175 0.29052 0.0
H52 H 0.88477 0.09988 0.27288 0.0
H53 H 0.88009 0.06993 0.34021 0.0
H54 H 0.79002 0.05337 0.42101 0.0
H55 H 0.69883 0.11752 0.4504 0.0
H56 H 0.86735 0.15847 0.55123 0.0
H57 H 0.95567 0.09123 0.52269 0.0
N58 N 0.99364 -0.00061 0.47201 0.0
N59 N 0.05065 0.98683 0.41743 0.0
N60 N 0.93752 0.04656 0.41254 0.0
C61 C 0.05026 0.97436 0.45558 0.0
C62 C 0.99419 0.02278 0.39566 0.0
C63 C 0.93721 0.03535 0.4507 0.0
C64 C 0.10951 0.93234 0.47906 0.0
C65 C 0.09555 0.89846 0.51247 0.0
C66 C 0.14861 0.855 0.53364 0.0
C67 C 0.21711 0.84389 0.5218 0.0
C68 C 0.2325 0.87999 0.48921 0.0
C69 C 0.17914 0.92357 0.46797 0.0
C70 C 0.99572 0.0386 0.35436 0.0
C71 C 0.06166 0.03079 0.3394 0.0
C72 C 0.06429 0.04861 0.3011 0.0
C73 C 1.00096 0.07417 0.2766 0.0
C74 C 0.93446 0.08061 0.29114 0.0
C75 C 0.932 0.06355 0.32973 0.0
C76 C 0.87969 0.06746 0.46965 0.0
C77 C 0.80661 0.07515 0.44979 0.0
C78 C 0.90224 0.89334 0.55141 0.0
C79 C 0.90879 0.82095 0.55691 0.0
C80 C 0.96807 0.79556 0.58445 0.0
C81 C 0.01949 0.84101 0.60574 0.0
H82 H 0.19846 0.01573 0.54924 0.0
H83 H 0.28358 0.08252 0.51709 0.0
H84 H 0.36346 0.19176 0.62449 0.0
H85 H 0.28144 0.12391 0.65658 0.0
H86 H 0.23461 0.069 0.73498 0.0
H87 H 0.2288 0.10156 0.80208 0.0
H88 H 1.00232 0.02764 0.78635 0.0
H89 H 1.00779 0.99467 0.71987 0.0
H90 H 0.94854 0.99434 0.56812 0.0
H91 H 0.85724 0.91472 0.53061 0.0
H92 H 0.97383 0.74044 0.59039 0.0
H93 H 0.06453 0.82004 0.62671 0.0
N94 N 0.12206 0.98906 0.60397 0.0
N95 N 0.17562 0.04173 0.66279 0.0
N96 N 0.06991 0.97139 0.6599 0.0
C97 C 0.17583 0.0301 0.62454 0.0
C98 C 0.12295 0.01287 0.68069 0.0
C99 C 0.06925 0.95956 0.62163 0.0
C100 C 0.23216 0.065 0.60541 0.0
C101 C 0.23507 0.05326 0.56607 0.0
C102 C 0.28384 0.09171 0.5476 0.0
C103 C 0.33043 0.14296 0.56804 0.0
C104 C 0.32971 0.15207 0.60779 0.0
C105 C 0.28162 0.11347 0.62622 0.0
C106 C 0.12148 0.0294 0.72193 0.0
C107 C 0.18361 0.05953 0.74589 0.0
C108 C 0.18052 0.07811 0.78429 0.0
C109 C 0.11483 0.06812 0.79914 0.0
C110 C 0.0533 0.0371 0.7754 0.0
C111 C 0.05667 0.01764 0.73736 0.0
C112 C 1.01329 0.91275 0.59979 0.0
C113 C 0.95425 0.93888 0.57272 0.0
C114 C 0.25885 0.61681 0.9701 0.0
C115 C 0.28034 0.65086 1.006 0.0
C116 C 0.35421 0.64322 0.02543 0.0
C117 C 0.40557 0.60524 1.00877 0.0
H118 H 0.54695 0.40954 0.02317 0.0
H119 H 0.64138 0.33643 0.06076 0.0
H120 H 0.78507 0.3732 0.97741 0.0
H121 H 0.69101 0.44863 0.94065 0.0
H122 H 0.54431 0.43979 0.84378 0.0
H123 H 0.53831 0.46047 0.77436 0.0
H124 H 0.43 0.65682 0.78479 0.0
H125 H 0.4336 0.63553 0.85398 0.0
H126 H 0.29334 0.55631 0.92487 0.0
H127 H 0.20235 0.61996 0.95457 0.0
H128 H 0.37397 0.66959 0.05262 0.0
H129 H 0.46259 0.6027 0.02377 0.0
N130 N 0.4978 0.50536 0.97346 0.0
N131 N 0.54869 0.48653 0.91724 0.0
N132 N 0.43908 0.55131 0.91421 0.0
C133 C 0.55156 0.47709 0.95597 0.0
C134 C 0.49251 0.5239 0.89625 0.0
C135 C 0.44134 0.5421 0.95271 0.0
C136 C 0.61133 0.43511 0.97908 0.0
C137 C 0.59937 0.40358 1.01352 0.0
C138 C 0.65334 0.36125 0.03489 0.0
C139 C 0.72086 0.34897 0.02222 0.0
C140 C 0.73412 0.38241 0.98839 0.0
C141 C 0.6798 0.42482 0.96696 0.0
C142 C 0.48947 0.53599 0.85432 0.0
C143 C 0.51887 0.48715 0.83125 0.0
C144 C 0.5149 0.49866 0.79157 0.0
C145 C 0.48302 0.55988 0.77443 0.0
C146 C 0.45418 0.60902 0.79741 0.0
C147 C 0.45641 0.59673 0.8369 0.0
C148 C 0.38482 0.57491 0.97206 0.0
C149 C 0.31082 0.58003 0.95309 0.0
C150 C 0.40203 0.39987 0.04942 0.0
C151 C 0.40928 0.32744 0.0546 0.0
C152 C 0.46819 0.30221 0.08242 0.0
C153 C 0.51868 0.34781 0.10422 0.0
H154 H 0.69781 0.52374 0.04893 0.0
H155 H 0.78395 0.59066 1.01751 0.0
H156 H 0.86259 0.69842 0.12553 0.0
H157 H 0.77958 0.63043 0.15691 0.0
H158 H 0.73379 0.57148 0.23493 0.0
H159 H 0.72869 0.60173 0.30243 0.0
H160 H 0.50102 0.53098 0.286 0.0
H161 H 0.50581 0.50026 0.2191 0.0
H162 H 0.44702 0.50104 0.06684 0.0
H163 H 0.35725 0.42112 0.02843 0.0
H164 H 0.47441 0.24704 0.08813 0.0
H165 H 0.56356 0.32693 0.12533 0.0
N166 N 0.62038 0.49644 0.10325 0.0
N167 N 0.67396 0.54769 0.16246 0.0
N168 N 0.56815 0.4773 0.15903 0.0
C169 C 0.67419 0.53703 0.12414 0.0
C170 C 0.62125 0.51833 0.18012 0.0
C171 C 0.56747 0.46646 0.12066 0.0
C172 C 0.73084 0.57224 0.10537 0.0
C173 C 0.73435 0.56099 0.06605 0.0
C174 C 0.78371 0.5995 0.048 0.0
C175 C 0.83029 0.65037 0.06883 0.0
C176 C 0.82889 0.65903 0.10854 0.0
C177 C 0.78022 0.62035 0.12655 0.0
C178 C 0.62002 0.53362 0.22152 0.0
C179 C 0.68267 0.56224 0.24577 0.0
C180 C 0.67999 0.5795 0.28439 0.0
C181 C 0.61421 0.5697 0.29917 0.0
C182 C 0.55211 0.54026 0.27511 0.0
C183 C 0.55507 0.52208 0.23685 0.0
C184 C 0.51191 0.41959 0.09856 0.0
C185 C 0.45313 0.44558 0.07126 0.0
C186 C 0.32355 0.15725 1.01549 0.0
C187 C 0.24865 0.16868 1.01765 0.0
H188 H 0.43347 0.19978 0.02417 0.0
C189 C 0.22463 0.23696 0.02247 0.0
H190 H 0.34342 0.10491 1.01211 0.0
C191 C 0.27658 0.29115 0.0308 0.0
C192 C 0.35305 0.27763 0.03398 0.0
H193 H 0.16729 0.24681 0.02492 0.0
H194 H 0.25741 0.34156 0.03872 0.0
C195 C 0.37523 0.2114 0.0232 0.0
C196 C 0.14519 0.79926 1.00896 0.0
C197 C 0.16056 0.81742 0.04833 0.0
H198 H 0.17253 0.73377 0.96438 0.0
C199 C 0.2038 0.77264 0.07452 0.0
H200 H 0.11221 0.83312 0.98813 0.0
C201 C 0.23694 0.71415 0.06111 0.0
C202 C 0.22947 0.7006 0.0211 0.0
H203 H 0.21562 0.78515 0.10515 0.0
H204 H 0.27205 0.68209 0.08201 0.0
C205 C 0.17996 0.74187 0.99537 0.0
C206 C 0.97047 0.78883 0.05431 0.0
C207 C 0.93482 0.81988 1.01989 0.0
H208 H 0.96748 0.70858 0.096 0.0
C209 C 0.87249 0.78634 0.99821 0.0
H210 H 0.01795 0.81333 0.07204 0.0
C211 C 0.84184 0.7275 1.01264 0.0
C212 C 0.87333 0.70034 0.04894 0.0
H213 H 0.84391 0.80852 0.97138 0.0
H214 H 0.79012 0.70703 0.9967 0.0
C215 C 0.94053 0.72924 0.06844 0.0
C216 C 0.897 0.24486 0.05266 0.0
C217 C 0.86691 0.1784 0.05622 0.0
H218 H 0.8738 0.35207 0.03874 0.0
C219 C 0.79075 0.17199 0.05705 0.0
H220 H 0.9554 0.25089 0.05118 0.0
C221 C 0.744 0.22949 0.04968 0.0
C222 C 0.77255 0.29438 0.04087 0.0
H223 H 0.76613 0.12106 0.05903 0.0
H224 H 0.68467 0.2212 0.04694 0.0
C225 C 0.85004 0.30246 0.04471 0.0
C226 C 0.72238 0.73278 0.52598 0.0
C227 C 0.74502 0.66412 0.52101 0.0
H228 H 0.75713 0.837 0.54192 0.0
C229 C 0.81965 0.65133 0.51883 0.0
H230 H 0.66528 0.7436 0.52854 0.0
C231 C 0.87234 0.70468 0.52631 0.0
C232 C 0.85148 0.77148 0.53692 0.0
H233 H 0.83847 0.59861 0.51544 0.0
H234 H 0.9303 0.6921 0.52709 0.0
C235 C 0.77531 0.78618 0.53405 0.0
C236 C 0.64405 0.29572 0.50651 0.0
C237 C 0.65836 0.31241 0.5461 0.0
H238 H 0.67125 0.23095 0.46164 0.0
C239 C 0.69973 0.26617 0.57211 0.0
H240 H 0.61241 0.33072 0.48582 0.0
C241 C 0.73169 0.20724 0.55842 0.0
C242 C 0.72521 0.19482 0.51833 0.0
H243 H 0.71056 0.27749 0.60288 0.0
H244 H 0.76501 0.17375 0.57928 0.0
C245 C 0.67784 0.238 0.49268 0.0
C246 C 0.46935 0.28173 0.55243 0.0
C247 C 0.43305 0.31241 0.51803 0.0
H248 H 0.46755 0.20176 0.59438 0.0
C249 C 0.37064 0.27848 0.49668 0.0
H250 H 0.51682 0.30653 0.56997 0.0
C251 C 0.34058 0.21962 0.51144 0.0
C252 C 0.37278 0.19285 0.54772 0.0
H253 H 0.34152 0.30038 0.46989 0.0
H254 H 0.28877 0.19883 0.49577 0.0
C255 C 0.44005 0.22211 0.56686 0.0
C256 C 0.28347 0.66401 0.55277 0.0
C257 C 0.36011 0.67025 0.55335 0.0
H258 H 0.17805 0.71431 0.54242 0.0
C259 C 0.39129 0.73682 0.55186 0.0
H260 H 0.25809 0.61304 0.55318 0.0
C261 C 0.34519 0.79517 0.54472 0.0
C262 C 0.26747 0.78768 0.53962 0.0
H263 H 0.45014 0.74277 0.5515 0.0
H264 H 0.36992 0.84516 0.54041 0.0
C265 C 0.23758 0.7222 0.54623 0.0
C266 C 0.96795 0.06982 0.16667 0.0
C267 C 0.03438 0.1 0.15966 0.0
H268 H 0.90521 0.03728 0.20992 0.0
C269 C 0.08165 0.13311 0.1903 0.0
H270 H 0.93114 0.04314 0.14359 0.0
C271 C 0.06728 0.12945 0.22799 0.0
C272 C 1.00545 0.09231 0.23589 0.0
H273 H 0.13325 0.15671 0.18561 0.0
H274 H 0.10728 0.15176 0.25133 0.0
C275 C 0.95355 0.06594 0.20467 0.0
C276 C 0.02986 0.13097 0.88315 0.0
C277 C 0.0761 0.09975 0.91454 0.0
H278 H 1.00674 0.14602 0.82187 0.0
C279 C 0.14358 0.07026 0.90878 0.0
H280 H 0.9776 0.15418 0.8869 0.0
C281 C 0.15993 0.06482 0.87121 0.0
C282 C 0.10894 0.08894 0.83927 0.0
H283 H 0.17972 0.0452 0.93249 0.0
H284 H 0.20898 0.03656 0.86682 0.0
C285 C 0.04611 0.12566 0.8459 0.0
C286 C 0.54655 0.63048 0.68566 0.0
C287 C 0.51459 0.58241 0.65727 0.0
H288 H 0.5597 0.6618 0.74531 0.0
C289 C 0.46288 0.53374 0.66627 0.0
H290 H 0.58801 0.66725 0.67956 0.0
C291 C 0.44885 0.5289 0.70416 0.0
C292 C 0.48495 0.57386 0.7332 0.0
H293 H 0.4392 0.49496 0.6451 0.0
H294 H 0.41326 0.48755 0.71132 0.0
C295 C 0.53099 0.62689 0.72327 0.0
C296 C 0.64309 0.56642 0.40874 0.0
C297 C 0.57618 0.59644 0.41497 0.0
H298 H 0.70784 0.53393 0.36625 0.0
C299 C 0.53059 0.6298 0.38414 0.0
H300 H 0.67863 0.53965 0.43201 0.0
C301 C 0.54678 0.62613 0.34683 0.0
C302 C 0.60887 0.58893 0.3396 0.0
H303 H 0.4787 0.65331 0.38828 0.0
H304 H 0.50779 0.64809 0.32314 0.0
C305 C 0.65938 0.56264 0.37111 0.0
loop_
_geom_bond_atom_site_label_1
_geom_bond_atom_site_label_2
_geom_bond_distance
_geom_bond_site_symmetry_2
_ccdc_geom_bond_type
Zn0 O6 1.920 1_545 S
Zn0 O12 1.898 . S
Zn0 O15 1.905 1_545 S
Zn1 O9 1.905 . S
Zn1 O10 1.898 1_545 S
Zn1 O18 1.920 1_545 S
Zn2 O5 2.080 1_445 S
Zn2 O8 2.114 . S
Zn2 O11 2.120 1_545 S
Zn2 O13 2.120 1_455 S
Zn2 O14 2.114 1_554 S
Zn2 O17 2.080 . S
C3 O8 1.166 . S
C3 O9 1.182 . S
C4 O10 1.167 . S
C4 O11 1.299 . S
O5 Zn2 2.080 1_665 S
O5 C19 1.305 . S
O6 Zn0 1.920 1_565 S
O6 C19 1.234 1_556 S
C7 O12 1.167 . S
C7 O13 1.299 1_556 S
O8 Zn2 2.114 . S
O8 C3 1.166 . S
O9 Zn1 1.905 . S
O9 C3 1.182 . S
O10 Zn1 1.898 1_565 S
O10 C4 1.167 . S
O11 Zn2 2.120 1_565 S
O11 C4 1.299 . S
O12 Zn0 1.898 . S
O12 C7 1.167 . S
O13 Zn2 2.120 1_655 S
O13 C7 1.299 1_554 S
O14 Zn2 2.114 1_556 S
O14 C16 1.166 1_445 S
O15 Zn0 1.905 1_565 S
O15 C16 1.182 . S
C16 O14 1.166 1_665 S
C16 O15 1.182 . S
O17 Zn2 2.080 . S
O17 C20 1.305 1_545 S
O18 Zn1 1.920 1_565 S
O18 C20 1.234 . S
C19 O5 1.305 . S
C19 O6 1.234 1_554 S
C20 O17 1.305 1_565 S
C20 O18 1.234 . S
Zn21 O27 1.920 . S
Zn21 O33 1.898 . S
Zn21 O36 1.905 . S
Zn22 O30 1.905 . S
Zn22 O31 1.898 . S
Zn22 O39 1.920 . S
Zn23 O26 2.080 . S
Zn23 O29 2.114 . S
Zn23 O32 2.120 . S
Zn23 O34 2.120 . S
Zn23 O35 2.114 . S
Zn23 O38 2.080 . S
C24 O29 1.166 . S
C24 O30 1.182 . S
C25 O31 1.167 . S
C25 O32 1.299 . S
O26 Zn23 2.080 . S
O26 C40 1.305 . S
O27 Zn21 1.920 . S
O27 C40 1.234 . S
C28 O33 1.167 . S
C28 O34 1.299 . S
O29 Zn23 2.114 . S
O29 C24 1.166 . S
O30 Zn22 1.905 . S
O30 C24 1.182 . S
O31 Zn22 1.898 . S
O31 C25 1.167 . S
O32 Zn23 2.120 . S
O32 C25 1.299 . S
O33 Zn21 1.898 . S
O33 C28 1.167 . S
O34 Zn23 2.120 . S
O34 C28 1.299 . S
O35 Zn23 2.114 . S
O35 C37 1.166 . S
O36 Zn21 1.905 . S
O36 C37 1.182 . S
C37 O35 1.166 . S
C37 O36 1.182 . S
O38 Zn23 2.080 . S
O38 C41 1.305 . S
O39 Zn22 1.920 . S
O39 C41 1.234 . S
C40 O26 1.305 . S
C40 O27 1.234 . S
C41 O38 1.305 . S
C41 O39 1.234 . S
C42 C43 1.384 . S
C42 H55 0.947 . S
C42 C77 1.382 . S
C43 C42 1.384 . S
C43 C44 1.378 . S
C44 C43 1.378 . S
C44 C45 1.378 . S
C44 H56 0.952 . S
C45 C44 1.378 . S
C45 H57 0.950 1_655 S
C45 C76 1.383 . S
H46 C65 0.947 . S
H47 C66 0.946 . S
H48 C68 0.953 . S
H49 C69 0.945 . S
H50 C71 0.952 . S
H51 C72 0.949 . S
H52 C74 0.950 . S
H53 C75 0.948 . S
H54 C77 0.951 . S
H55 C42 0.947 . S
H56 C44 0.952 . S
H57 C45 0.950 1_455 S
N58 C61 1.382 1_545 S
N58 C63 1.363 . S
N59 C61 1.371 . S
N59 C62 1.372 1_565 S
N60 C62 1.361 . S
N60 C63 1.377 . S
C61 N58 1.382 1_565 S
C61 N59 1.371 . S
C61 C64 1.480 . S
C62 N59 1.372 1_545 S
C62 N60 1.361 . S
C62 C70 1.457 . S
C63 N58 1.363 . S
C63 N60 1.377 . S
C63 C76 1.479 1_455 S
C64 C61 1.480 . S
C64 C65 1.383 . S
C64 C69 1.385 . S
C65 H46 0.947 . S
C65 C64 1.383 . S
C65 C66 1.388 . S
C66 H47 0.946 . S
C66 C65 1.388 . S
C66 C67 1.384 . S
C67 C66 1.384 . S
C67 C68 1.377 . S
C68 H48 0.953 . S
C68 C67 1.377 . S
C68 C69 1.369 . S
C69 H49 0.945 . S
C69 C64 1.385 . S
C69 C68 1.369 . S
C70 C62 1.457 . S
C70 C71 1.372 1_545 S
C70 C75 1.364 . S
C71 H50 0.952 . S
C71 C70 1.372 1_565 S
C71 C72 1.389 . S
C72 H51 0.949 . S
C72 C71 1.389 . S
C72 C73 1.387 1_565 S
C73 C72 1.387 1_545 S
C73 C74 1.372 . S
C74 H52 0.950 . S
C74 C73 1.372 . S
C74 C75 1.379 . S
C75 H53 0.948 . S
C75 C70 1.364 . S
C75 C74 1.379 . S
C76 C45 1.383 . S
C76 C63 1.479 1_655 S
C76 C77 1.398 . S
C77 C42 1.382 . S
C77 H54 0.951 . S
C77 C76 1.398 . S
C78 C79 1.384 . S
C78 H91 0.947 . S
C78 C113 1.382 . S
C79 C78 1.384 . S
C79 C80 1.378 . S
C80 C79 1.378 . S
C80 C81 1.378 . S
C80 H92 0.952 . S
C81 C80 1.378 . S
C81 H93 0.950 . S
C81 C112 1.383 . S
H82 C101 0.947 . S
H83 C102 0.946 . S
H84 C104 0.953 . S
H85 C105 0.945 . S
H86 C107 0.952 . S
H87 C108 0.949 . S
H88 C110 0.950 . S
H89 C111 0.948 . S
H90 C113 0.951 . S
H91 C78 0.947 . S
H92 C80 0.952 . S
H93 C81 0.950 . S
N94 C97 1.382 . S
N94 C99 1.363 1_445 S
N95 C97 1.371 . S
N95 C98 1.372 . S
N96 C98 1.361 1_665 S
N96 C99 1.377 . S
C97 N94 1.382 . S
C97 N95 1.371 . S
C97 C100 1.480 . S
C98 N95 1.372 . S
C98 N96 1.361 1_445 S
C98 C106 1.457 . S
C99 N94 1.363 1_665 S
C99 N96 1.377 . S
C99 C112 1.479 . S
C100 C97 1.480 . S
C100 C101 1.383 . S
C100 C105 1.385 . S
C101 H82 0.947 . S
C101 C100 1.383 . S
C101 C102 1.388 . S
C102 H83 0.946 . S
C102 C101 1.388 . S
C102 C103 1.384 . S
C103 C102 1.384 . S
C103 C104 1.377 . S
C104 H84 0.953 . S
C104 C103 1.377 . S
C104 C105 1.369 . S
C105 H85 0.945 . S
C105 C100 1.385 . S
C105 C104 1.369 . S
C106 C98 1.457 . S
C106 C107 1.372 . S
C106 C111 1.364 1_445 S
C107 H86 0.952 . S
C107 C106 1.372 . S
C107 C108 1.389 . S
C108 H87 0.949 . S
C108 C107 1.389 . S
C108 C109 1.387 . S
C109 C108 1.387 . S
C109 C110 1.372 1_445 S
C110 H88 0.950 . S
C110 C109 1.372 1_665 S
C110 C111 1.379 . S
C111 H89 0.948 . S
C111 C106 1.364 1_665 S
C111 C110 1.379 . S
C112 C81 1.383 . S
C112 C99 1.479 . S
C112 C113 1.398 . S
C113 C78 1.382 . S
C113 H90 0.951 . S
C113 C112 1.398 . S
C114 C115 1.384 . S
C114 H127 0.947 . S
C114 C149 1.382 . S
C115 C114 1.384 . S
C115 C116 1.377 1_556 S
C116 C115 1.377 1_554 S
C116 C117 1.377 1_554 S
C116 H128 0.955 . S
C117 C116 1.377 1_556 S
C117 H129 0.950 . S
C117 C148 1.383 . S
H118 C137 0.947 . S
H119 C138 0.973 . S
H120 C140 0.953 . S
H121 C141 0.945 . S
H122 C143 0.952 . S
H123 C144 0.949 . S
H124 C146 0.950 . S
H125 C147 0.948 . S
H126 C149 0.951 . S
H127 C114 0.947 . S
H128 C116 0.955 . S
H129 C117 0.950 . S
N130 C133 1.382 . S
N130 C135 1.363 . S
N131 C133 1.371 . S
N131 C134 1.372 . S
N132 C134 1.361 . S
N132 C135 1.377 . S
C133 N130 1.382 . S
C133 N131 1.371 . S
C133 C136 1.480 . S
C134 N131 1.372 . S
C134 N132 1.361 . S
C134 C142 1.457 . S
C135 N130 1.363 . S
C135 N132 1.377 . S
C135 C148 1.479 . S
C136 C133 1.480 . S
C136 C137 1.383 . S
C136 C141 1.385 . S
C137 H118 0.947 . S
C137 C136 1.383 . S
C137 C138 1.376 1_556 S
C138 H119 0.973 . S
C138 C137 1.376 1_554 S
C138 C139 1.370 1_554 S
C139 C138 1.370 1_556 S
C139 C140 1.377 . S
C140 H120 0.953 . S
C140 C139 1.377 . S
C140 C141 1.369 . S
C141 H121 0.945 . S
C141 C136 1.385 . S
C141 C140 1.369 . S
C142 C134 1.457 . S
C142 C143 1.372 . S
C142 C147 1.364 . S
C143 H122 0.952 . S
C143 C142 1.372 . S
C143 C144 1.389 . S
C144 H123 0.949 . S
C144 C143 1.389 . S
C144 C145 1.387 . S
C145 C144 1.387 . S
C145 C146 1.372 . S
C146 H124 0.950 . S
C146 C145 1.372 . S
C146 C147 1.379 . S
C147 H125 0.948 . S
C147 C142 1.364 . S
C147 C146 1.379 . S
C148 C117 1.383 . S
C148 C135 1.479 . S
C148 C149 1.398 . S
C149 C114 1.382 . S
C149 H126 0.951 . S
C149 C148 1.398 . S
C150 C151 1.384 . S
C150 H163 0.947 . S
C150 C185 1.382 . S
C151 C150 1.384 . S
C151 C152 1.378 . S
C152 C151 1.378 . S
C152 C153 1.378 . S
C152 H164 0.952 . S
C153 C152 1.378 . S
C153 H165 0.950 . S
C153 C184 1.383 . S
H154 C173 0.947 . S
H155 C174 0.946 . S
H156 C176 0.953 . S
H157 C177 0.945 . S
H158 C179 0.952 . S
H159 C180 0.949 . S
H160 C182 0.950 . S
H161 C183 0.948 . S
H162 C185 0.951 . S
H163 C150 0.947 . S
H164 C152 0.952 . S
H165 C153 0.950 . S
N166 C169 1.382 . S
N166 C171 1.363 . S
N167 C169 1.371 . S
N167 C170 1.372 . S
N168 C170 1.361 . S
N168 C171 1.377 . S
C169 N166 1.382 . S
C169 N167 1.371 . S
C169 C172 1.480 . S
C170 N167 1.372 . S
C170 N168 1.361 . S
C170 C178 1.457 . S
C171 N166 1.363 . S
C171 N168 1.377 . S
C171 C184 1.479 . S
C172 C169 1.480 . S
C172 C173 1.383 . S
C172 C177 1.385 . S
C173 H154 0.947 . S
C173 C172 1.383 . S
C173 C174 1.388 . S
C174 H155 0.946 . S
C174 C173 1.388 . S
C174 C175 1.384 . S
C175 C174 1.384 . S
C175 C176 1.377 . S
C176 H156 0.953 . S
C176 C175 1.377 . S
C176 C177 1.369 . S
C177 H157 0.945 . S
C177 C172 1.385 . S
C177 C176 1.369 . S
C178 C170 1.457 . S
C178 C179 1.372 . S
C178 C183 1.364 . S
C179 H158 0.952 . S
C179 C178 1.372 . S
C179 C180 1.389 . S
C180 H159 0.949 . S
C180 C179 1.389 . S
C180 C181 1.387 . S
C181 C180 1.387 . S
C181 C182 1.372 . S
C182 H160 0.950 . S
C182 C181 1.372 . S
C182 C183 1.379 . S
C183 H161 0.948 . S
C183 C178 1.364 . S
C183 C182 1.379 . S
C184 C153 1.383 . S
C184 C171 1.479 . S
C184 C185 1.398 . S
C185 C150 1.382 . S
C185 H162 0.951 . S
C185 C184 1.398 . S
C186 C187 1.387 1_556 S
C186 H190 0.950 . S
C186 C195 1.390 1_556 S
C187 C186 1.387 1_554 S
C187 C189 1.387 . S
H188 C195 0.926 1_556 S
C189 C187 1.387 . S
C189 C191 1.390 . S
C189 H193 0.950 . S
H190 C186 0.950 . S
C191 C189 1.390 . S
C191 C192 1.387 . S
C191 H194 0.950 . S
C192 C191 1.387 . S
C192 C195 1.412 . S
H193 C189 0.950 . S
H194 C191 0.950 . S
C195 C186 1.390 1_554 S
C195 H188 0.926 1_554 S
C195 C192 1.412 . S
C196 C197 1.387 . S
C196 H200 0.950 . S
C196 C205 1.390 . S
C197 C196 1.387 . S
C197 C199 1.387 1_556 S
H198 C205 0.950 . S
C199 C197 1.387 1_554 S
C199 C201 1.390 . S
C199 H203 0.950 . S
H200 C196 0.950 . S
C201 C199 1.390 . S
C201 C202 1.387 1_554 S
C201 H204 0.950 . S
C202 C201 1.387 1_556 S
C202 C205 1.387 . S
H203 C199 0.950 . S
H204 C201 0.950 . S
C205 C196 1.390 . S
C205 H198 0.950 . S
C205 C202 1.387 . S
C206 C207 1.387 . S
C206 H210 0.950 . S
C206 C215 1.390 . S
C207 C206 1.387 . S
C207 C209 1.387 . S
H208 C215 0.950 . S
C209 C207 1.387 . S
C209 C211 1.390 . S
C209 H213 0.950 . S
H210 C206 0.950 . S
C211 C209 1.390 . S
C211 C212 1.387 . S
C211 H214 0.950 . S
C212 C211 1.387 . S
C212 C215 1.387 . S
H213 C209 0.950 . S
H214 C211 0.950 . S
C215 C206 1.390 . S
C215 H208 0.950 . S
C215 C212 1.387 . S
C216 C217 1.387 1_556 S
C216 H220 0.950 . S
C216 C225 1.390 . S
C217 C216 1.387 1_554 S
C217 C219 1.387 . S
H218 C225 0.950 . S
C219 C217 1.387 . S
C219 C221 1.390 . S
C219 H223 0.950 . S
H220 C216 0.950 . S
C221 C219 1.390 . S
C221 C222 1.387 1_554 S
C221 H224 0.950 . S
C222 C221 1.387 1_556 S
C222 C225 1.387 . S
H223 C219 0.950 . S
H224 C221 0.950 . S
C225 C216 1.390 . S
C225 H218 0.950 . S
C225 C222 1.387 . S
C226 C227 1.387 . S
C226 H230 0.950 . S
C226 C235 1.390 . S
C227 C226 1.387 . S
C227 C229 1.387 . S
H228 C235 0.950 . S
C229 C227 1.387 . S
C229 C231 1.390 . S
C229 H233 0.950 . S
H230 C226 0.950 . S
C231 C229 1.390 . S
C231 C232 1.387 . S
C231 H234 0.950 . S
C232 C231 1.387 . S
C232 C235 1.387 . S
H233 C229 0.950 . S
H234 C231 0.950 . S
C235 C226 1.390 . S
C235 H228 0.950 . S
C235 C232 1.387 . S
C236 C237 1.387 . S
C236 H240 0.950 . S
C236 C245 1.390 . S
C237 C236 1.387 . S
C237 C239 1.387 . S
H238 C245 0.950 . S
C239 C237 1.387 . S
C239 C241 1.390 . S
C239 H243 0.950 . S
H240 C236 0.950 . S
C241 C239 1.390 . S
C241 C242 1.387 . S
C241 H244 0.950 . S
C242 C241 1.387 . S
C242 C245 1.387 . S
H243 C239 0.950 . S
H244 C241 0.950 . S
C245 C236 1.390 . S
C245 H238 0.950 . S
C245 C242 1.387 . S
C246 C247 1.387 . S
C246 H250 0.950 . S
C246 C255 1.390 . S
C247 C246 1.387 . S
C247 C249 1.387 . S
H248 C255 0.950 . S
C249 C247 1.387 . S
C249 C251 1.390 . S
C249 H253 0.950 . S
H250 C246 0.950 . S
C251 C249 1.390 . S
C251 C252 1.387 . S
C251 H254 0.950 . S
C252 C251 1.387 . S
C252 C255 1.387 . S
H253 C249 0.950 . S
H254 C251 0.950 . S
C255 C246 1.390 . S
C255 H248 0.950 . S
C255 C252 1.387 . S
C256 C257 1.387 . S
C256 H260 0.950 . S
C256 C265 1.390 . S
C257 C256 1.387 . S
C257 C259 1.387 . S
H258 C265 0.950 . S
C259 C257 1.387 . S
C259 C261 1.390 . S
C259 H263 0.950 . S
H260 C256 0.950 . S
C261 C259 1.390 . S
C261 C262 1.387 . S
C261 H264 0.950 . S
C262 C261 1.387 . S
C262 C265 1.387 . S
H263 C259 0.950 . S
H264 C261 0.950 . S
C265 C256 1.390 . S
C265 H258 0.950 . S
C265 C262 1.387 . S
C266 C267 1.387 1_655 S
C266 H270 0.950 . S
C266 C275 1.390 1_565 S
C267 C266 1.387 1_455 S
C267 C269 1.387 1_565 S
H268 C275 0.950 . S
C269 C267 1.387 1_545 S
C269 C271 1.390 . S
C269 H273 0.950 . S
H270 C266 0.950 . S
C271 C269 1.390 . S
C271 C272 1.387 . S
C271 H274 0.950 . S
C272 C271 1.387 . S
C272 C275 1.387 1_455 S
H273 C269 0.950 . S
H274 C271 0.950 . S
C275 C266 1.390 1_545 S
C275 H268 0.950 . S
C275 C272 1.387 1_655 S
C276 C277 1.387 1_655 S
C276 H280 0.950 . S
C276 C285 1.390 . S
C277 C276 1.387 1_455 S
C277 C279 1.387 1_565 S
H278 C285 0.950 . S
C279 C277 1.387 1_545 S
C279 C281 1.390 . S
C279 H283 0.950 . S
H280 C276 0.950 . S
C281 C279 1.390 . S
C281 C282 1.387 . S
C281 H284 0.950 . S
C282 C281 1.387 . S
C282 C285 1.387 1_445 S
H283 C279 0.950 . S
H284 C281 0.950 . S
C285 C276 1.390 . S
C285 H278 0.950 . S
C285 C282 1.387 1_665 S
C286 C287 1.387 . S
C286 H290 0.950 . S
C286 C295 1.390 . S
C287 C286 1.387 . S
C287 C289 1.387 . S
H288 C295 0.950 . S
C289 C287 1.387 . S
C289 C291 1.390 . S
C289 H293 0.950 . S
H290 C286 0.950 . S
C291 C289 1.390 . S
C291 C292 1.387 . S
C291 H294 0.950 . S
C292 C291 1.387 . S
C292 C295 1.387 . S
H293 C289 0.950 . S
H294 C291 0.950 . S
C295 C286 1.390 . S
C295 H288 0.950 . S
C295 C292 1.387 . S
C296 C297 1.387 . S
C296 H300 0.950 . S
C296 C305 1.390 . S
C297 C296 1.387 . S
C297 C299 1.387 . S
H298 C305 0.950 . S
C299 C297 1.387 . S
C299 C301 1.390 . S
C299 H303 0.950 . S
H300 C296 0.950 . S
C301 C299 1.390 . S
C301 C302 1.387 . S
C301 H304 0.950 . S
C302 C301 1.387 . S
C302 C305 1.387 . S
H303 C299 0.950 . S
H304 C301 0.950 . S
C305 C296 1.390 . S
C305 H298 0.950 . S
C305 C302 1.387 . S
C192 C151 1.337 . S
C187 C3 1.240 . S
C197 C4 1.492 1_556 S
C202 C115 1.625 . S
C207 C19 1.513 . S
C212 C175 1.606 . S
C217 C7 1.244 1_554 S
C222 C139 1.323 . S
C227 C37 1.244 . S
C232 C79 1.336 . S
C237 C28 1.492 . S
C242 C43 1.625 . S
C252 C103 1.607 . S
C247 C41 1.516 . S
C262 C67 1.322 . S
C257 C25 1.239 . S
C267 C20 1.320 . S
C272 C73 1.521 . S
C277 C16 1.366 1_455 S
C282 C109 1.528 . S
C292 C145 1.521 . S
C287 C40 1.318 . S
C297 C24 1.362 . S
C302 C181 1.525 . S
