# Generated by pormake.
# Topology anh, (6,3)-cn, num edge types: 1
# Building blocks:
#     Node 0, Type 0, BuildingBlock: CUWYAW_clean_sbu_0, # of connection points: 6
#     Node 1, Type 0, BuildingBlock: CUWYAW_clean_sbu_0, # of connection points: 6
#     Node 2, Type 0, BuildingBlock: CUWYAW_clean_sbu_0, # of connection points: 6
#     Node 3, Type 1, BuildingBlock: BELTOD_clean_linker_0, # of connection points: 3
#     Node 4, Type 1, BuildingBlock: BELTOD_clean_linker_0, # of connection points: 3
#     Node 5, Type 1, BuildingBlock: BELTOD_clean_linker_0, # of connection points: 3
#     Node 6, Type 1, BuildingBlock: BELTOD_clean_linker_0, # of connection points: 3
#     Node 7, Type 1, BuildingBlock: BELTOD_clean_linker_0, # of connection points: 3
#     Node 8, Type 1, BuildingBlock: BELTOD_clean_linker_0, # of connection points: 3
#     Edge 9, Type (0, 1), BuildingBlock: AJUNOK_clean_linker_0, # of connection points: 2
#     Edge 10, Type (0, 1), BuildingBlock: AJUNOK_clean_linker_0, # of connection points: 2
#     Edge 11, Type (0, 1), BuildingBlock: AJUNOK_clean_linker_0, # of connection points: 2
#     Edge 12, Type (0, 1), BuildingBlock: AJUNOK_clean_linker_0, # of connection points: 2
#     Edge 13, Type (0, 1), BuildingBlock: AJUNOK_clean_linker_0, # of connection points: 2
#     Edge 14, Type (0, 1), BuildingBlock: AJUNOK_clean_linker_0, # of connection points: 2
#     Edge 15, Type (0, 1), BuildingBlock: AJUNOK_clean_linker_0, # of connection points: 2
#     Edge 16, Type (0, 1), BuildingBlock: AJUNOK_clean_linker_0, # of connection points: 2
#     Edge 17, Type (0, 1), BuildingBlock: AJUNOK_clean_linker_0, # of connection points: 2
#     Edge 18, Type (0, 1), BuildingBlock: AJUNOK_clean_linker_0, # of connection points: 2
#     Edge 19, Type (0, 1), BuildingBlock: AJUNOK_clean_linker_0, # of connection points: 2
#     Edge 20, Type (0, 1), BuildingBlock: AJUNOK_clean_linker_0, # of connection points: 2
#     Edge 21, Type (0, 1), BuildingBlock: AJUNOK_clean_linker_0, # of connection points: 2
#     Edge 22, Type (0, 1), BuildingBlock: AJUNOK_clean_linker_0, # of connection points: 2
#     Edge 23, Type (0, 1), BuildingBlock: AJUNOK_clean_linker_0, # of connection points: 2
#     Edge 24, Type (0, 1), BuildingBlock: AJUNOK_clean_linker_0, # of connection points: 2
#     Edge 25, Type (0, 1), BuildingBlock: AJUNOK_clean_linker_0, # of connection points: 2
#     Edge 26, Type (0, 1), BuildingBlock: AJUNOK_clean_linker_0, # of connection points: 2
# Relax obj value: 0.330
# Max RMSD: 0.191
# Mean RMSD: 0.159
data_MOF--net-anh--node1-CUWYAW_clean_sbu_0--node2-BELTOD_clean_linker_0--edge1-AJUNOK_clean_linker_0
_symmetry_space_group_name_H-M    P1
_symmetry_Int_Tables_number       1
_symmetry_cell_setting            triclinic
loop_
_symmetry_equiv_pos_as_xyz
'x, y, z'
_cell_length_a     27.223292
_cell_length_b     27.051352
_cell_length_c     47.269824
_cell_angle_alpha  90.49517
_cell_angle_beta   89.745737
_cell_angle_gamma 120.19211
loop_
_atom_site_label
_atom_site_type_symbol
_atom_site_fract_x
_atom_site_fract_y
_atom_site_fract_z
_atom_type_partial_charge
C0 C 1.00275 0.45633 0.12437 0.0
Eu1 Eu 1.06274 0.55611 0.14891 0.0
C2 C 0.96263 0.39848 0.13392 0.0
C3 C 0.94489 0.38889 0.16221 0.0
C4 C 0.9118 0.33316 0.17208 0.0
C5 C 0.89594 0.28631 0.15376 0.0
C6 C 0.91261 0.29622 0.12524 0.0
C7 C 0.94576 0.35207 0.11537 0.0
C8 C 1.07708 0.56225 0.20689 0.0
C9 C 0.98221 0.61712 0.15494 0.0
C10 C 0.18309 0.75959 0.19941 0.0
Eu11 Eu 0.11628 0.66982 0.16987 0.0
C12 C 0.24392 0.78048 0.20453 0.0
C13 C 0.26128 0.77104 0.23089 0.0
C14 C 0.31415 0.77492 0.23375 0.0
C15 C 0.35067 0.78888 0.21037 0.0
C16 C 0.33504 0.8022 0.18457 0.0
C17 C 0.2823 0.79829 0.18168 0.0
C18 C 1.10023 0.66617 0.11382 0.0
C19 C 0.19952 0.6176 0.14787 0.0
O20 O 0.98607 0.49374 0.12656 0.0
O21 O 1.0548 0.47667 0.13308 0.0
O22 O 1.08394 0.52813 0.19028 0.0
O23 O 1.05998 0.58962 0.19245 0.0
O24 O 0.98902 0.57574 0.14353 0.0
O25 O 1.02552 0.65839 0.16953 0.0
O26 O 0.14819 0.71032 0.21099 0.0
O27 O 0.16894 0.76253 0.17334 0.0
O28 O 1.0939 0.70043 0.13085 0.0
O29 O 0.1175 0.63703 0.12674 0.0
O30 O 0.19465 0.65459 0.16496 0.0
O31 O 0.15264 0.57861 0.13502 0.0
H32 H 0.95827 0.42445 0.17684 0.0
H33 H 0.90066 0.32671 0.19431 0.0
H34 H 0.90097 0.26076 0.11076 0.0
H35 H 0.95957 0.35898 0.0935 0.0
H36 H 0.23252 0.75702 0.2488 0.0
H37 H 0.32577 0.76524 0.25398 0.0
H38 H 0.36225 0.81257 0.16617 0.0
H39 H 0.27033 0.80555 0.16098 0.0
C40 C 0.54318 0.171 0.46226 0.0
Eu41 Eu 0.57723 0.1053 0.48396 0.0
C42 C 0.57191 0.23412 0.46397 0.0
C43 C 0.55728 0.25988 0.48582 0.0
C44 C 0.59615 0.31522 0.49492 0.0
C45 C 0.6497 0.34574 0.48199 0.0
C46 C 0.66072 0.3234 0.45749 0.0
C47 C 0.62198 0.26794 0.44843 0.0
C48 C 0.5828 0.09857 0.54211 0.0
C49 C 0.71754 0.19006 0.4877 0.0
C50 C 0.68227 1.00356 0.53097 0.0
Eu51 Eu 0.64068 1.05525 0.50185 0.0
C52 C 0.69159 0.95469 0.53134 0.0
C53 C 0.71396 0.94112 0.50758 0.0
C54 C 0.73644 0.90505 0.51033 0.0
C55 C 0.73617 0.88171 0.53674 0.0
C56 C 0.70963 0.89156 0.55987 0.0
C57 C 0.68776 0.92814 0.55721 0.0
C58 C 0.64559 1.06527 0.44525 0.0
C59 C 0.50199 0.96778 0.48428 0.0
O60 O 0.56922 0.14985 0.44756 0.0
O61 O 0.52413 0.14441 0.48625 0.0
O62 O 0.53669 0.08485 0.52827 0.0
O63 O 0.62318 0.11507 0.52482 0.0
O64 O 0.66924 0.18135 0.47636 0.0
O65 O 0.71551 0.14837 0.50311 0.0
O66 O 0.63106 0.99497 0.53531 0.0
O67 O 0.71035 1.04212 0.51184 0.0
O68 O 0.68728 1.07257 0.4611 0.0
O69 O 0.60082 1.04885 0.45976 0.0
O70 O 0.54949 0.97287 0.49564 0.0
O71 O 0.50289 1.01486 0.47609 0.0
H72 H 0.51855 0.23525 0.49786 0.0
H73 H 0.58657 0.33156 0.51389 0.0
H74 H 0.7014 0.34689 0.44689 0.0
H75 H 0.63403 0.2499 0.43104 0.0
H76 H 0.71717 0.96098 0.48733 0.0
H77 H 0.75605 0.8972 0.49217 0.0
H78 H 0.70897 0.87378 0.58042 0.0
H79 H 0.67105 0.93844 0.57578 0.0
C80 C 0.78368 0.67817 0.8066 0.0
Eu81 Eu 0.67959 0.63862 0.82364 0.0
C82 C 0.81274 0.6519 0.79223 0.0
C83 C 0.87175 0.67841 0.79399 0.0
C84 C 0.89909 0.64895 0.78555 0.0
C85 C 0.86768 0.59205 0.77547 0.0
C86 C 0.809 0.56775 0.77117 0.0
C87 C 0.78174 0.59767 0.77944 0.0
C88 C 0.64447 0.63413 0.8784 0.0
C89 C 0.61468 0.49443 0.82215 0.0
C90 C 0.45359 0.54015 0.84244 0.0
Eu91 Eu 0.55716 0.57282 0.8283 0.0
C92 C 0.42409 0.57293 0.84024 0.0
C93 C 0.42341 0.59847 0.81449 0.0
C94 C 0.40502 0.63814 0.8137 0.0
C95 C 0.38792 0.65339 0.83865 0.0
C96 C 0.38696 0.62676 0.86417 0.0
C97 C 0.40465 0.58659 0.86493 0.0
C98 C 0.59705 0.58258 0.77496 0.0
C99 C 0.61918 0.71605 0.81889 0.0
O100 O 0.74518 0.68144 0.79174 0.0
O101 O 0.76693 0.66088 0.83246 0.0
O102 O 0.68553 0.67891 0.86638 0.0
O103 O 0.62377 0.59226 0.86099 0.0
O104 O 0.66022 0.54458 0.81566 0.0
O105 O 0.56872 0.49444 0.83171 0.0
O106 O 0.49527 0.5607 0.8608 0.0
O107 O 0.46677 0.5248 0.81858 0.0
O108 O 0.55568 0.535 0.78471 0.0
O109 O 0.61276 0.62118 0.79339 0.0
O110 O 0.57173 0.66629 0.82401 0.0
O111 O 0.66794 0.71624 0.81703 0.0
H112 H 0.89632 0.72038 0.80365 0.0
H113 H 0.94428 0.66899 0.78959 0.0
H114 H 0.78379 0.52437 0.76324 0.0
H115 H 0.73614 0.5771 0.7774 0.0
H116 H 0.43908 0.58955 0.79514 0.0
H117 H 0.40575 0.65818 0.79383 0.0
H118 H 0.37293 0.63746 0.88358 0.0
H119 H 0.40538 0.56794 0.88501 0.0
P120 P 0.73111 0.90826 0.26511 0.0
H121 H 0.69699 0.85967 0.20785 0.0
H122 H 0.60078 0.80873 0.18833 0.0
H123 H 0.53219 0.76921 0.27297 0.0
H124 H 0.62806 0.81878 0.29226 0.0
H125 H 0.84643 0.99793 0.2504 0.0
H126 H 0.88177 0.08393 0.22142 0.0
H127 H 0.70976 1.03083 0.19623 0.0
H128 H 0.67469 0.94683 0.22605 0.0
H129 H 0.78479 0.9551 0.32007 0.0
H130 H 0.63549 0.92692 0.27476 0.0
O131 O 0.78025 0.89158 0.27394 0.0
H132 H 0.75981 0.99824 0.35928 0.0
H133 H 0.61023 0.9695 0.314 0.0
C134 C 0.66888 0.84632 0.25146 0.0
C135 C 0.66135 0.83773 0.22215 0.0
C136 C 0.60642 0.80862 0.211 0.0
C137 C 0.55942 0.78788 0.22927 0.0
C138 C 0.5678 0.78606 0.25844 0.0
C139 C 0.62269 0.81482 0.26951 0.0
C140 C 0.75814 0.96523 0.23981 0.0
C141 C 0.81652 1.0043 0.2382 0.0
C142 C 0.83659 1.05336 0.22168 0.0
C143 C 0.79839 1.0642 0.20681 0.0
C144 C 0.74008 1.02406 0.20784 0.0
C145 C 0.7201 0.9755 0.22455 0.0
C146 C 0.71131 0.93651 0.29486 0.0
C147 C 0.74644 0.95766 0.31867 0.0
C148 C 0.73241 0.98273 0.34087 0.0
C149 C 0.68324 0.98734 0.33945 0.0
C150 C 0.64817 0.96621 0.31557 0.0
C151 C 0.66256 0.94172 0.29327 0.0
P152 P 0.89767 0.65296 0.62037 0.0
H153 H 0.94413 0.61768 0.57381 0.0
H154 H 0.89202 0.54418 0.53752 0.0
H155 H 0.74421 0.46781 0.59143 0.0
H156 H 0.7952 0.54017 0.62727 0.0
H157 H 0.94702 0.7771 0.61889 0.0
H158 H 0.9162 0.83523 0.59321 0.0
H159 H 0.80671 0.68931 0.54105 0.0
H160 H 0.83552 0.63154 0.56672 0.0
H161 H 0.88005 0.60586 0.67765 0.0
H162 H 0.80425 0.67796 0.624 0.0
O163 O 0.96357 0.67932 0.63269 0.0
H164 H 0.80573 0.58402 0.71316 0.0
H165 H 0.73204 0.65743 0.65925 0.0
C166 C 0.87337 0.58524 0.60302 0.0
C167 C 0.90155 0.58331 0.57844 0.0
C168 C 0.87168 0.54188 0.5576 0.0
C169 C 0.81389 0.50213 0.56159 0.0
C170 C 0.7885 0.49921 0.58782 0.0
C171 C 0.81806 0.5405 0.60845 0.0
C172 C 0.89461 0.7001 0.59462 0.0
C173 C 0.91855 0.75843 0.60103 0.0
C174 C 0.90084 0.79152 0.58641 0.0
C175 C 0.859 0.76637 0.56529 0.0
C176 C 0.83907 0.70951 0.55724 0.0
C177 C 0.85634 0.67656 0.57188 0.0
C178 C 0.84902 0.64497 0.64841 0.0
C179 C 0.84842 0.61806 0.67374 0.0
C180 C 0.80567 0.60501 0.69382 0.0
C181 C 0.7633 0.61908 0.68884 0.0
C182 C 0.76445 0.64648 0.66365 0.0
C183 C 0.80641 0.65871 0.64353 0.0
P184 P 0.10987 0.74032 0.89838 0.0
H185 H 0.17003 0.79886 0.84722 0.0
H186 H 0.25637 0.8072 0.82629 0.0
H187 H 0.29421 0.75567 0.90568 0.0
H188 H 0.2092 0.74776 0.9263 0.0
H189 H 0.98873 0.66867 0.89012 0.0
H190 H 0.93215 0.59076 0.85752 0.0
H191 H 1.0836 0.592 0.8285 0.0
H192 H 0.14009 0.66942 0.86193 0.0
H193 H 0.13039 0.80954 0.949 0.0
H194 H 1.07467 0.63327 0.92866 0.0
O195 O 1.08737 0.78627 0.89208 0.0
H196 H 0.12716 0.78831 -0.00059 0.0
H197 H 1.06941 0.61141 0.97897 0.0
C198 C 0.18288 0.77191 0.88813 0.0
C199 C 0.19859 0.79231 0.86047 0.0
C200 C 0.24768 0.79682 0.8485 0.0
C201 C 0.28106 0.78081 0.86421 0.0
C202 C 0.26926 0.7683 0.89306 0.0
C203 C 0.2202 0.76343 0.9049 0.0
C204 C 1.06864 0.67646 0.87761 0.0
C205 C 1.00961 0.65132 0.87725 0.0
C206 C 0.97723 0.60589 0.85891 0.0
C207 C 1.00343 0.58481 0.84045 0.0
C208 C 1.0623 0.60709 0.84254 0.0
C209 C 1.09464 0.65218 0.86131 0.0
C210 C 1.1016 0.7228 0.93523 0.0
C211 C 0.11651 0.76612 0.95543 0.0
C212 C 0.11474 0.75395 0.98414 0.0
C213 C 1.09828 0.69826 0.99303 0.0
C214 C 1.08309 0.65486 0.97268 0.0
C215 C 1.08528 0.66719 0.94394 0.0
P216 P 0.11946 0.564 0.4307 0.0
H217 H 0.22342 0.59544 0.46528 0.0
H218 H 0.30765 0.68355 0.47906 0.0
H219 H 0.23654 0.78008 0.44348 0.0
H220 H 0.14883 0.69058 0.43267 0.0
H221 H 1.07514 0.50416 0.48672 0.0
H222 H 0.98475 0.42225 0.50168 0.0
H223 H 0.91194 0.42096 0.42061 0.0
H224 H 1.00012 0.50549 0.40714 0.0
H225 H 0.13599 0.65674 0.38906 0.0
H226 H 1.0843 0.47784 0.38587 0.0
O227 O 0.14851 0.52254 0.43278 0.0
H228 H 0.12712 0.65715 0.33774 0.0
H229 H 1.07322 0.47756 0.33477 0.0
C230 C 0.17821 0.63379 0.44644 0.0
C231 C 0.22487 0.63515 0.46039 0.0
C232 C 0.2751 0.6871 0.46785 0.0
C233 C 0.28308 0.74178 0.46124 0.0
C234 C 0.23479 0.74041 0.44876 0.0
C235 C 0.18367 0.68806 0.44197 0.0
C236 C 1.04655 0.51363 0.44566 0.0
C237 C 1.03931 0.4877 0.4724 0.0
C238 C 0.9869 0.4386 0.48067 0.0
C239 C 0.93896 0.41111 0.46229 0.0
C240 C 0.946 0.43881 0.43597 0.0
C241 C 0.99784 0.48845 0.42802 0.0
C242 C 0.11215 0.56749 0.39203 0.0
C243 C 0.12288 0.61744 0.37771 0.0
C244 C 0.11735 0.61758 0.34798 0.0
C245 C 1.10068 0.56773 0.33162 0.0
C246 C 1.08819 0.51747 0.34618 0.0
C247 C 1.0942 0.51752 0.3757 0.0
P248 P 0.63535 0.11376 0.76496 0.0
H249 H 0.71316 0.22643 0.79309 0.0
H250 H 0.7067 0.30993 0.80666 0.0
H251 H 0.52849 0.21898 0.78561 0.0
H252 H 0.53498 0.13417 0.77296 0.0
H253 H 0.68855 0.08048 0.81086 0.0
H254 H 0.68356 0.99088 0.82433 0.0
H255 H 0.54354 0.89809 0.76695 0.0
H256 H 0.54821 0.98828 0.75386 0.0
H257 H 0.58469 0.16308 0.72533 0.0
H258 H 0.64742 1.04535 0.71976 0.0
O259 O 0.70603 0.14612 0.76265 0.0
H260 H 0.57124 0.15716 0.67415 0.0
H261 H 0.63396 1.03945 0.66846 0.0
C262 C 0.62462 0.17172 0.78172 0.0
C263 C 0.67196 0.22312 0.79179 0.0
C264 C 0.66837 0.2723 0.79939 0.0
C265 C 0.61709 0.27361 0.7975 0.0
C266 C 0.56904 0.22134 0.78829 0.0
C267 C 0.57263 0.17174 0.78084 0.0
C268 C 0.61863 1.04321 0.78124 0.0
C269 C 0.65561 1.04102 0.8015 0.0
C270 C 0.65341 0.98888 0.80887 0.0
C271 C 0.61414 0.93546 0.79635 0.0
C272 C 0.5749 0.9372 0.77725 0.0
C273 C 0.5773 0.98961 0.76978 0.0
C274 C 0.61552 0.10321 0.72722 0.0
C275 C 0.5942 0.13463 0.71352 0.0
C276 C 0.58683 0.13159 0.68389 0.0
C277 C 0.6019 0.09821 0.66687 0.0
C278 C 0.62255 1.06628 0.68063 0.0
C279 C 0.62946 1.06899 0.71023 0.0
P280 P 0.58281 0.59628 0.10156 0.0
H281 H 0.61733 0.5393 0.14527 0.0
H282 H 0.70695 0.54455 0.15785 0.0
H283 H 0.79807 0.69259 0.10522 0.0
H284 H 0.70751 0.68659 0.0922 0.0
H285 H 0.49925 0.61396 0.06864 0.0
H286 H 0.41695 0.62251 0.07962 0.0
H287 H 0.45068 0.62427 0.16858 0.0
H288 H 0.53607 0.61748 0.15721 0.0
H289 H 0.58453 0.52115 0.05624 0.0
H290 H 0.61078 0.69174 0.06173 0.0
O291 O 0.54363 0.52557 0.10561 0.0
H292 H 0.59829 0.53061 0.00502 0.0
H293 H 0.62208 0.7007 0.01023 0.0
C294 C 0.65336 0.61287 0.11777 0.0
C295 C 0.65625 0.57396 0.13667 0.0
C296 C 0.7085 0.57648 0.14365 0.0
C297 C 0.76162 0.61841 0.13238 0.0
C298 C 0.75921 0.65929 0.1146 0.0
C299 C 0.70658 0.65621 0.10725 0.0
C300 C 0.5281 0.61767 0.11171 0.0
C301 C 0.49139 0.61836 0.09068 0.0
C302 C 0.44197 0.6217 0.09714 0.0
C303 C 0.42421 0.6229 0.12524 0.0
C304 C 0.46144 0.62355 0.14656 0.0
C305 C 0.51146 0.62016 0.13998 0.0
C306 C 0.59558 0.60537 0.06318 0.0
C307 C 0.59287 0.5607 0.04649 0.0
C308 C 0.60051 0.56603 0.01694 0.0
C309 C 0.61157 0.61647 0.00299 0.0
C310 C 0.61497 0.66152 0.0199 0.0
C311 C 0.60795 0.65634 0.04954 0.0
C312 C 0.30768 0.65419 0.15814 0.0
C313 C 0.25721 0.6195 0.1423 0.0
C314 C 0.36027 0.65473 0.1531 0.0
C315 C 0.36666 0.62112 0.13159 0.0
H316 H 0.3066 0.68112 0.17489 0.0
H317 H 0.39668 0.68268 0.16603 0.0
S318 S 0.24788 0.52004 0.08467 0.0
N319 N 0.21864 0.54894 0.10439 0.0
N320 N 0.31447 0.54965 0.09532 0.0
C321 C 0.31626 0.58589 0.11591 0.0
C322 C 0.26296 0.58513 0.12111 0.0
C323 C 0.77767 0.28873 0.46361 0.0
C324 C 0.77444 0.24637 0.4822 0.0
C325 C 0.8294 0.34085 0.45792 0.0
C326 C 0.88276 0.35447 0.46984 0.0
H327 H 0.73943 0.28167 0.45316 0.0
H328 H 0.8269 0.37098 0.44397 0.0
S329 S 0.90042 0.25572 0.51803 0.0
N330 N 0.83147 0.22156 0.51166 0.0
N331 N 0.92747 0.31602 0.50018 0.0
C332 C 0.88028 0.31146 0.488 0.0
C333 C 0.82717 0.25877 0.49418 0.0
C334 C 0.56662 0.77379 0.81166 0.0
C335 C 0.61797 0.7723 0.81379 0.0
C336 C 0.56544 0.82533 0.80601 0.0
C337 C 0.61554 0.87949 0.80247 0.0
H338 H 0.5265 0.73448 0.81416 0.0
H339 H 0.52444 0.82259 0.80471 0.0
S340 S 0.7618 0.90076 0.80489 0.0
N341 N 0.72073 0.83183 0.81109 0.0
N342 N 0.71849 0.92621 0.80075 0.0
C343 C 0.66704 0.87844 0.80453 0.0
C344 C 0.66823 0.82607 0.81004 0.0
C345 C 0.92159 0.66769 0.15157 0.0
C346 C 0.92556 0.61725 0.15002 0.0
C347 C 0.86996 0.66815 0.14565 0.0
C348 C 0.81793 0.61797 0.13842 0.0
H349 H 0.95921 0.70783 0.15696 0.0
H350 H 0.87081 0.70853 0.14712 0.0
S351 S 0.8034 0.47391 0.13101 0.0
N352 N 0.87067 0.51536 0.14001 0.0
N353 N 0.77583 0.51602 0.12978 0.0
C354 C 0.82138 0.56731 0.137 0.0
C355 C 0.87402 0.56703 0.14248 0.0
C356 C 0.39287 0.90446 0.47796 0.0
C357 C 0.44715 0.90911 0.47942 0.0
C358 C 0.34149 0.85157 0.47253 0.0
C359 C 0.34011 0.79894 0.46753 0.0
H360 H 0.38971 0.94241 0.48133 0.0
H361 H 0.30217 0.85239 0.4725 0.0
S362 S 0.47154 0.78759 0.46589 0.0
N363 N 0.49584 0.85543 0.47406 0.0
N364 N 0.40203 0.75836 0.46253 0.0
C365 C 0.39475 0.80349 0.46834 0.0
C366 C 0.44694 0.85734 0.47451 0.0
C367 C 0.66187 0.4365 0.80477 0.0
C368 C 0.61453 0.43745 0.81687 0.0
C369 C 0.66216 0.38466 0.79874 0.0
C370 C 0.61513 0.32931 0.80438 0.0
H371 H 0.69948 0.47655 0.79953 0.0
H372 H 0.69989 0.38838 0.789 0.0
S373 S 0.48076 0.30596 0.83776 0.0
N374 N 0.51923 0.37622 0.83506 0.0
N375 N 0.52009 0.28071 0.82455 0.0
C376 C 0.56771 0.32969 0.81689 0.0
C377 C 0.56736 0.38261 0.82293 0.0
C378 C 0.73945 0.79598 0.55256 0.0
C379 C 0.76748 0.85106 0.54102 0.0
C380 C 0.76947 0.76837 0.55943 0.0
C381 C 0.82864 0.79525 0.55535 0.0
H382 H 0.69419 0.77457 0.55673 0.0
H383 H 0.74649 0.72636 0.56891 0.0
S384 S 0.92151 0.9391 0.52544 0.0
N385 N 0.85731 0.93136 0.52533 0.0
N386 N 0.91394 0.87924 0.53857 0.0
C387 C 0.85706 0.84996 0.54346 0.0
C388 C 0.82635 0.87788 0.53614 0.0
C389 C 0.95208 0.5812 0.76982 0.0
C390 C 0.89432 0.55594 0.77728 0.0
C391 C 0.99076 0.57998 0.78887 0.0
C392 C 0.97151 0.5522 0.81503 0.0
H393 H 0.96878 0.61174 0.75271 0.0
H394 H 1.03557 0.60966 0.78547 0.0
S395 S 0.82247 0.44976 0.83407 0.0
N396 N 0.8182 0.48059 0.80491 0.0
N397 N 0.89106 0.47706 0.84021 0.0
C398 C 0.9134 0.5121 0.81757 0.0
C399 C 0.87415 0.51403 0.79847 0.0
C400 C 0.40294 0.73871 0.22406 0.0
C401 C 0.40383 0.78699 0.21255 0.0
C402 C 0.45323 0.73719 0.22763 0.0
C403 C 0.50592 0.78377 0.21965 0.0
H404 H 0.36315 0.70222 0.23072 0.0
H405 H 0.45118 0.70026 0.23757 0.0
S406 S 0.53095 0.92044 0.18889 0.0
N407 N 0.46143 0.88219 0.19317 0.0
N408 N 0.55597 0.8796 0.19986 0.0
C409 C 0.50706 0.83157 0.20734 0.0
C410 C 0.45599 0.83313 0.2038 0.0
C411 C 0.74433 0.38839 0.50513 0.0
C412 C 0.69694 0.3933 0.49757 0.0
C413 C 0.78431 0.42582 0.5248 0.0
C414 C 0.77756 0.46882 0.5377 0.0
H415 H 0.74847 0.35305 0.49727 0.0
H416 H 0.8187 0.41908 0.53112 0.0
S417 S 0.66556 0.50461 0.52253 0.0
N418 N 0.64899 0.44814 0.50238 0.0
N419 N 0.72403 0.51856 0.5396 0.0
C420 C 0.73249 0.47649 0.52908 0.0
C421 C 0.69204 0.4386 0.50899 0.0
C422 C 0.39557 0.74361 0.85658 0.0
C423 C 0.3693 0.69585 0.83844 0.0
C424 C 0.37024 0.77661 0.86219 0.0
C425 C 0.31766 0.76235 0.85002 0.0
H426 H 0.43387 0.7531 0.86793 0.0
H427 H 0.38925 0.81025 0.87803 0.0
S428 S 0.2357 0.64513 0.7984 0.0
N429 N 0.29189 0.63956 0.80592 0.0
N430 N 0.24333 0.70075 0.81676 0.0
C431 C 0.29396 0.71798 0.82972 0.0
C432 C 0.32001 0.6847 0.82391 0.0
C433 C 0.88929 0.19168 0.16018 0.0
C434 C 0.86646 0.22749 0.16507 0.0
C435 C 0.86623 0.13833 0.17326 0.0
C436 C 0.81931 0.11877 0.19153 0.0
H437 H 0.92654 0.20587 0.14695 0.0
H438 H 0.88574 0.11252 0.16935 0.0
S439 S 0.74203 0.19515 0.21001 0.0
N440 N 0.7926 0.23858 0.18814 0.0
N441 N 0.74985 0.13877 0.21327 0.0
C442 C 0.795 0.15345 0.19591 0.0
C443 C 0.81849 0.20774 0.18258 0.0
C444 C 1.07094 0.69813 0.0715 0.0
C445 C 1.09752 0.66971 0.08289 0.0
C446 C 1.07046 0.70603 0.04238 0.0
C447 C 1.09671 0.68597 0.02355 0.0
H448 H 1.05068 0.71492 0.08522 0.0
H449 H 1.04963 0.72837 0.03454 0.0
S450 S 0.17207 0.60859 0.04271 0.0
N451 N 0.14993 0.62047 0.07323 0.0
N452 N 0.15004 0.63632 0.01829 0.0
C453 C 0.1226 0.65649 0.03459 0.0
C454 C 0.12276 0.64811 0.06434 0.0
C455 C 0.60547 1.00173 0.40288 0.0
C456 C 0.64737 1.05344 0.41503 0.0
C457 C 0.6159 0.98196 0.37724 0.0
C458 C 0.66846 1.01333 0.36324 0.0
H459 H 0.56654 0.97438 0.41429 0.0
H460 H 0.58428 0.94022 0.36933 0.0
S461 S 0.78704 0.15615 0.38399 0.0
N462 N 0.7396 0.13905 0.40947 0.0
N463 N 0.75899 0.10215 0.36127 0.0
C464 C 0.70832 1.06733 0.374 0.0
C465 C 0.69772 0.08736 0.39992 0.0
C466 C 0.66862 0.64248 0.73928 0.0
C467 C 0.63332 0.58789 0.75062 0.0
C468 C 0.71025 0.65188 0.71923 0.0
C469 C 0.71845 0.60709 0.70994 0.0
H470 H 0.66509 0.67868 0.74656 0.0
H471 H 0.73716 0.69488 0.71141 0.0
S472 S 0.63546 0.45554 0.73202 0.0
N473 N 0.6075 0.48776 0.75026 0.0
N474 N 0.68649 0.50566 0.71256 0.0
C475 C 0.68254 0.55191 0.72052 0.0
C476 C 0.63951 0.54216 0.74076 0.0
C477 C 0.54307 0.08962 0.59174 0.0
C478 C 0.58831 0.09839 0.57382 0.0
C479 C 0.54778 0.08995 0.62157 0.0
C480 C 0.59764 0.09805 0.63495 0.0
H481 H 0.50365 0.08282 0.58268 0.0
H482 H 0.51173 0.08311 0.63429 0.0
S483 S 0.72898 0.12373 0.5978 0.0
N484 N 0.68511 0.11628 0.57196 0.0
N485 N 0.69371 0.11623 0.62748 0.0
C486 C 0.6431 0.10671 0.61721 0.0
C487 C 0.63855 0.10708 0.5869 0.0
C488 C 0.59285 0.57978 0.92295 0.0
C489 C 0.63542 0.63009 0.91005 0.0
C490 C 0.58526 0.57576 0.95271 0.0
C491 C 0.61987 0.62185 0.97113 0.0
H492 H 0.56505 0.54306 0.90995 0.0
H493 H 0.55153 0.53617 0.96134 0.0
S494 S 0.7396 0.76242 0.94834 0.0
N495 N 0.71345 0.72687 0.91847 0.0
N496 N 0.70029 0.71873 0.97371 0.0
C497 C 0.66283 0.67218 0.95841 0.0
C498 C 0.67032 0.67643 0.9282 0.0
C499 C 1.06512 0.59414 0.2561 0.0
C500 C 1.08424 0.56474 0.23856 0.0
C501 C 1.07104 0.59559 0.28592 0.0
C502 C 1.09646 0.56778 0.29965 0.0
H503 H 1.04478 0.6157 0.24675 0.0
H504 H 1.05457 0.61783 0.29836 0.0
S505 S 0.15934 0.49022 0.26319 0.0
N506 N 0.13304 0.51033 0.23725 0.0
N507 N 0.14514 0.514 0.29258 0.0
C508 C 0.11723 0.53977 0.28216 0.0
C509 C 0.11093 0.53804 0.25193 0.0
loop_
_geom_bond_atom_site_label_1
_geom_bond_atom_site_label_2
_geom_bond_distance
_geom_bond_site_symmetry_2
_ccdc_geom_bond_type
C0 Eu1 2.835 . S
C0 C2 1.500 . S
C0 O20 1.257 . S
C0 O21 1.260 . S
Eu1 C0 2.835 . S
Eu1 O20 2.473 . S
Eu1 O21 2.480 . S
Eu1 O22 2.430 1_655 S
Eu1 O23 2.670 1_655 S
Eu1 O24 2.394 . S
Eu1 O29 2.355 1_655 S
Eu1 O31 2.374 1_655 S
C2 C0 1.500 . S
C2 C3 1.377 . S
C2 C7 1.377 . S
C3 C2 1.377 . S
C3 C4 1.395 . S
C3 H32 0.931 . S
C4 C3 1.395 . S
C4 C5 1.383 . S
C4 H33 0.931 . S
C5 C4 1.383 . S
C5 C6 1.394 . S
C6 C5 1.394 . S
C6 C7 1.378 . S
C6 H34 0.931 . S
C7 C2 1.377 . S
C7 C6 1.378 . S
C7 H35 0.931 . S
C8 O22 1.259 . S
C8 O23 1.270 . S
C9 O24 1.251 . S
C9 O25 1.251 . S
C10 Eu11 2.835 . S
C10 C12 1.500 . S
C10 O26 1.257 . S
C10 O27 1.260 . S
Eu11 C10 2.835 . S
Eu11 O23 2.355 . S
Eu11 O25 2.374 1_455 S
Eu11 O26 2.473 . S
Eu11 O27 2.480 . S
Eu11 O28 2.430 . S
Eu11 O29 2.670 . S
Eu11 O30 2.394 . S
C12 C10 1.500 . S
C12 C13 1.377 . S
C12 C17 1.377 . S
C13 C12 1.377 . S
C13 C14 1.395 . S
C13 H36 0.931 . S
C14 C13 1.395 . S
C14 C15 1.383 . S
C14 H37 0.931 . S
C15 C14 1.383 . S
C15 C16 1.394 . S
C16 C15 1.394 . S
C16 C17 1.378 . S
C16 H38 0.931 . S
C17 C12 1.377 . S
C17 C16 1.378 . S
C17 H39 0.931 . S
C18 O28 1.259 . S
C18 O29 1.270 . S
C19 O30 1.251 . S
C19 O31 1.251 . S
O20 C0 1.257 . S
O20 Eu1 2.473 . S
O21 C0 1.260 . S
O21 Eu1 2.480 . S
O22 Eu1 2.430 1_455 S
O22 C8 1.259 . S
O23 Eu1 2.670 1_455 S
O23 C8 1.270 . S
O23 Eu11 2.355 . S
O24 Eu1 2.394 . S
O24 C9 1.251 . S
O25 C9 1.251 . S
O25 Eu11 2.374 1_655 S
O26 C10 1.257 . S
O26 Eu11 2.473 . S
O27 C10 1.260 . S
O27 Eu11 2.480 . S
O28 Eu11 2.430 . S
O28 C18 1.259 . S
O29 Eu1 2.355 1_455 S
O29 Eu11 2.670 . S
O29 C18 1.270 . S
O30 Eu11 2.394 . S
O30 C19 1.251 . S
O31 Eu1 2.374 1_455 S
O31 C19 1.251 . S
H32 C3 0.931 . S
H33 C4 0.931 . S
H34 C6 0.931 . S
H35 C7 0.931 . S
H36 C13 0.931 . S
H37 C14 0.931 . S
H38 C16 0.931 . S
H39 C17 0.931 . S
C40 Eu41 2.835 . S
C40 C42 1.500 . S
C40 O60 1.257 . S
C40 O61 1.260 . S
Eu41 C40 2.835 . S
Eu41 O60 2.473 . S
Eu41 O61 2.480 . S
Eu41 O62 2.430 . S
Eu41 O63 2.670 . S
Eu41 O64 2.394 . S
Eu41 O69 2.355 . S
Eu41 O71 2.374 1_545 S
C42 C40 1.500 . S
C42 C43 1.377 . S
C42 C47 1.377 . S
C43 C42 1.377 . S
C43 C44 1.395 . S
C43 H72 0.931 . S
C44 C43 1.395 . S
C44 C45 1.383 . S
C44 H73 0.931 . S
C45 C44 1.383 . S
C45 C46 1.394 . S
C46 C45 1.394 . S
C46 C47 1.378 . S
C46 H74 0.931 . S
C47 C42 1.377 . S
C47 C46 1.378 . S
C47 H75 0.931 . S
C48 O62 1.259 . S
C48 O63 1.270 . S
C49 O64 1.251 . S
C49 O65 1.251 . S
C50 Eu51 2.835 . S
C50 C52 1.500 . S
C50 O66 1.257 . S
C50 O67 1.260 . S
Eu51 C50 2.835 . S
Eu51 O63 2.355 1_565 S
Eu51 O65 2.374 1_565 S
Eu51 O66 2.473 . S
Eu51 O67 2.480 . S
Eu51 O68 2.430 1_565 S
Eu51 O69 2.670 1_565 S
Eu51 O70 2.394 . S
C52 C50 1.500 . S
C52 C53 1.377 . S
C52 C57 1.377 . S
C53 C52 1.377 . S
C53 C54 1.395 . S
C53 H76 0.931 . S
C54 C53 1.395 . S
C54 C55 1.383 . S
C54 H77 0.931 . S
C55 C54 1.383 . S
C55 C56 1.394 . S
C56 C55 1.394 . S
C56 C57 1.378 . S
C56 H78 0.931 . S
C57 C52 1.377 . S
C57 C56 1.378 . S
C57 H79 0.931 . S
C58 O68 1.259 . S
C58 O69 1.270 . S
C59 O70 1.251 . S
C59 O71 1.251 . S
O60 C40 1.257 . S
O60 Eu41 2.473 . S
O61 C40 1.260 . S
O61 Eu41 2.480 . S
O62 Eu41 2.430 . S
O62 C48 1.259 . S
O63 Eu41 2.670 . S
O63 C48 1.270 . S
O63 Eu51 2.355 1_545 S
O64 Eu41 2.394 . S
O64 C49 1.251 . S
O65 C49 1.251 . S
O65 Eu51 2.374 1_545 S
O66 C50 1.257 . S
O66 Eu51 2.473 . S
O67 C50 1.260 . S
O67 Eu51 2.480 . S
O68 Eu51 2.430 1_545 S
O68 C58 1.259 . S
O69 Eu41 2.355 . S
O69 Eu51 2.670 1_545 S
O69 C58 1.270 . S
O70 Eu51 2.394 . S
O70 C59 1.251 . S
O71 Eu41 2.374 1_565 S
O71 C59 1.251 . S
H72 C43 0.931 . S
H73 C44 0.931 . S
H74 C46 0.931 . S
H75 C47 0.931 . S
H76 C53 0.931 . S
H77 C54 0.931 . S
H78 C56 0.931 . S
H79 C57 0.931 . S
C80 Eu81 2.835 . S
C80 C82 1.500 . S
C80 O100 1.257 . S
C80 O101 1.260 . S
Eu81 C80 2.835 . S
Eu81 O100 2.473 . S
Eu81 O101 2.480 . S
Eu81 O102 2.430 . S
Eu81 O103 2.670 . S
Eu81 O104 2.394 . S
Eu81 O109 2.355 . S
Eu81 O111 2.374 . S
C82 C80 1.500 . S
C82 C83 1.377 . S
C82 C87 1.377 . S
C83 C82 1.377 . S
C83 C84 1.395 . S
C83 H112 0.931 . S
C84 C83 1.395 . S
C84 C85 1.383 . S
C84 H113 0.931 . S
C85 C84 1.383 . S
C85 C86 1.394 . S
C86 C85 1.394 . S
C86 C87 1.378 . S
C86 H114 0.931 . S
C87 C82 1.377 . S
C87 C86 1.378 . S
C87 H115 0.931 . S
C88 O102 1.259 . S
C88 O103 1.270 . S
C89 O104 1.251 . S
C89 O105 1.251 . S
C90 Eu91 2.835 . S
C90 C92 1.500 . S
C90 O106 1.257 . S
C90 O107 1.260 . S
Eu91 C90 2.835 . S
Eu91 O103 2.355 . S
Eu91 O105 2.374 . S
Eu91 O106 2.473 . S
Eu91 O107 2.480 . S
Eu91 O108 2.430 . S
Eu91 O109 2.670 . S
Eu91 O110 2.394 . S
C92 C90 1.500 . S
C92 C93 1.377 . S
C92 C97 1.377 . S
C93 C92 1.377 . S
C93 C94 1.395 . S
C93 H116 0.931 . S
C94 C93 1.395 . S
C94 C95 1.383 . S
C94 H117 0.931 . S
C95 C94 1.383 . S
C95 C96 1.394 . S
C96 C95 1.394 . S
C96 C97 1.378 . S
C96 H118 0.931 . S
C97 C92 1.377 . S
C97 C96 1.378 . S
C97 H119 0.931 . S
C98 O108 1.259 . S
C98 O109 1.270 . S
C99 O110 1.251 . S
C99 O111 1.251 . S
O100 C80 1.257 . S
O100 Eu81 2.473 . S
O101 C80 1.260 . S
O101 Eu81 2.480 . S
O102 Eu81 2.430 . S
O102 C88 1.259 . S
O103 Eu81 2.670 . S
O103 C88 1.270 . S
O103 Eu91 2.355 . S
O104 Eu81 2.394 . S
O104 C89 1.251 . S
O105 C89 1.251 . S
O105 Eu91 2.374 . S
O106 C90 1.257 . S
O106 Eu91 2.473 . S
O107 C90 1.260 . S
O107 Eu91 2.480 . S
O108 Eu91 2.430 . S
O108 C98 1.259 . S
O109 Eu81 2.355 . S
O109 Eu91 2.670 . S
O109 C98 1.270 . S
O110 Eu91 2.394 . S
O110 C99 1.251 . S
O111 Eu81 2.374 . S
O111 C99 1.251 . S
H112 C83 0.931 . S
H113 C84 0.931 . S
H114 C86 0.931 . S
H115 C87 0.931 . S
H116 C93 0.931 . S
H117 C94 0.931 . S
H118 C96 0.931 . S
H119 C97 0.931 . S
P120 O131 1.490 1_545 S
P120 C134 1.812 1_545 S
P120 C140 1.803 . S
P120 C146 1.819 . S
H121 C135 0.941 . S
H122 C136 0.939 . S
H123 C138 0.940 . S
H124 C139 0.940 1_545 S
H125 C141 0.939 . S
H126 C142 0.942 . S
H127 C144 0.940 . S
H128 C145 0.939 . S
H129 C147 0.941 . S
H130 C151 0.939 . S
O131 P120 1.490 1_565 S
H132 C148 0.939 . S
H133 C150 0.940 . S
C134 P120 1.812 1_565 S
C134 C135 1.389 . S
C134 C139 1.391 . S
C135 H121 0.941 . S
C135 C134 1.389 . S
C135 C136 1.397 . S
C136 H122 0.939 . S
C136 C135 1.397 . S
C136 C137 1.378 . S
C137 C136 1.378 . S
C137 C138 1.378 . S
C138 H123 0.940 . S
C138 C137 1.378 . S
C138 C139 1.396 . S
C139 H124 0.940 1_565 S
C139 C134 1.391 . S
C139 C138 1.396 . S
C140 P120 1.803 . S
C140 C141 1.378 . S
C140 C145 1.400 . S
C141 H125 0.939 . S
C141 C140 1.378 . S
C141 C142 1.361 . S
C142 H126 0.942 . S
C142 C141 1.361 . S
C142 C143 1.369 . S
C143 C142 1.369 . S
C143 C144 1.404 . S
C144 H127 0.940 . S
C144 C143 1.404 . S
C144 C145 1.389 . S
C145 H128 0.939 . S
C145 C140 1.400 . S
C145 C144 1.389 . S
C146 P120 1.819 . S
C146 C147 1.391 1_545 S
C146 C151 1.391 . S
C147 H129 0.941 . S
C147 C146 1.391 1_565 S
C147 C148 1.396 . S
C148 H132 0.939 . S
C148 C147 1.396 . S
C148 C149 1.397 1_565 S
C149 C148 1.397 1_545 S
C149 C150 1.385 . S
C150 H133 0.940 . S
C150 C149 1.385 . S
C150 C151 1.388 . S
C151 H130 0.939 . S
C151 C146 1.391 . S
C151 C150 1.388 . S
P152 O163 1.490 . S
P152 C166 1.812 . S
P152 C172 1.803 . S
P152 C178 1.819 . S
H153 C167 0.941 . S
H154 C168 0.939 . S
H155 C170 0.940 . S
H156 C171 0.940 . S
H157 C173 0.939 . S
H158 C174 0.942 . S
H159 C176 0.940 . S
H160 C177 0.939 . S
H161 C179 0.941 . S
H162 C183 0.939 . S
O163 P152 1.490 . S
H164 C180 0.939 . S
H165 C182 0.940 . S
C166 P152 1.812 . S
C166 C167 1.389 . S
C166 C171 1.391 . S
C167 H153 0.941 . S
C167 C166 1.389 . S
C167 C168 1.397 . S
C168 H154 0.939 . S
C168 C167 1.397 . S
C168 C169 1.378 . S
C169 C168 1.378 . S
C169 C170 1.378 . S
C170 H155 0.940 . S
C170 C169 1.378 . S
C170 C171 1.396 . S
C171 H156 0.940 . S
C171 C166 1.391 . S
C171 C170 1.396 . S
C172 P152 1.803 . S
C172 C173 1.378 . S
C172 C177 1.400 . S
C173 H157 0.939 . S
C173 C172 1.378 . S
C173 C174 1.361 . S
C174 H158 0.942 . S
C174 C173 1.361 . S
C174 C175 1.369 . S
C175 C174 1.369 . S
C175 C176 1.404 . S
C176 H159 0.940 . S
C176 C175 1.404 . S
C176 C177 1.389 . S
C177 H160 0.939 . S
C177 C172 1.400 . S
C177 C176 1.389 . S
C178 P152 1.819 . S
C178 C179 1.391 . S
C178 C183 1.391 . S
C179 H161 0.941 . S
C179 C178 1.391 . S
C179 C180 1.396 . S
C180 H164 0.939 . S
C180 C179 1.396 . S
C180 C181 1.397 . S
C181 C180 1.397 . S
C181 C182 1.385 . S
C182 H165 0.940 . S
C182 C181 1.385 . S
C182 C183 1.388 . S
C183 H162 0.939 . S
C183 C178 1.391 . S
C183 C182 1.388 . S
P184 O195 1.490 . S
P184 C198 1.812 . S
P184 C204 1.803 1_455 S
P184 C210 1.819 . S
H185 C199 0.941 . S
H186 C200 0.939 . S
H187 C202 0.940 . S
H188 C203 0.940 . S
H189 C205 0.939 . S
H190 C206 0.942 . S
H191 C208 0.940 . S
H192 C209 0.939 . S
H193 C211 0.941 . S
H194 C215 0.939 . S
O195 P184 1.490 . S
H196 C212 0.939 1_554 S
H197 C214 0.940 . S
C198 P184 1.812 . S
C198 C199 1.389 . S
C198 C203 1.391 . S
C199 H185 0.941 . S
C199 C198 1.389 . S
C199 C200 1.397 . S
C200 H186 0.939 . S
C200 C199 1.397 . S
C200 C201 1.378 . S
C201 C200 1.378 . S
C201 C202 1.378 . S
C202 H187 0.940 . S
C202 C201 1.378 . S
C202 C203 1.396 . S
C203 H188 0.940 . S
C203 C198 1.391 . S
C203 C202 1.396 . S
C204 P184 1.803 1_655 S
C204 C205 1.378 . S
C204 C209 1.400 . S
C205 H189 0.939 . S
C205 C204 1.378 . S
C205 C206 1.361 . S
C206 H190 0.942 . S
C206 C205 1.361 . S
C206 C207 1.369 . S
C207 C206 1.369 . S
C207 C208 1.404 . S
C208 H191 0.940 . S
C208 C207 1.404 . S
C208 C209 1.389 . S
C209 H192 0.939 . S
C209 C204 1.400 . S
C209 C208 1.389 . S
C210 P184 1.819 . S
C210 C211 1.391 . S
C210 C215 1.391 1_455 S
C211 H193 0.941 . S
C211 C210 1.391 . S
C211 C212 1.396 . S
C212 H196 0.939 1_556 S
C212 C211 1.396 . S
C212 C213 1.397 1_556 S
C213 C212 1.397 1_554 S
C213 C214 1.385 1_454 S
C214 H197 0.940 . S
C214 C213 1.385 1_656 S
C214 C215 1.388 . S
C215 H194 0.939 . S
C215 C210 1.391 1_655 S
C215 C214 1.388 . S
P216 O227 1.490 . S
P216 C230 1.812 . S
P216 C236 1.803 . S
P216 C242 1.819 . S
H217 C231 0.941 . S
H218 C232 0.939 . S
H219 C234 0.940 . S
H220 C235 0.940 . S
H221 C237 0.939 1_455 S
H222 C238 0.942 . S
H223 C240 0.940 . S
H224 C241 0.939 1_455 S
H225 C243 0.941 . S
H226 C247 0.939 1_655 S
O227 P216 1.490 . S
H228 C244 0.939 . S
H229 C246 0.940 1_655 S
C230 P216 1.812 . S
C230 C231 1.389 . S
C230 C235 1.391 . S
C231 H217 0.941 . S
C231 C230 1.389 . S
C231 C232 1.397 . S
C232 H218 0.939 . S
C232 C231 1.397 . S
C232 C233 1.378 . S
C233 C232 1.378 . S
C233 C234 1.378 . S
C234 H219 0.940 . S
C234 C233 1.378 . S
C234 C235 1.396 . S
C235 H220 0.940 . S
C235 C230 1.391 . S
C235 C234 1.396 . S
C236 P216 1.803 . S
C236 C237 1.378 1_455 S
C236 C241 1.400 1_455 S
C237 H221 0.939 1_655 S
C237 C236 1.378 1_655 S
C237 C238 1.361 . S
C238 H222 0.942 . S
C238 C237 1.361 . S
C238 C239 1.369 . S
C239 C238 1.369 . S
C239 C240 1.404 . S
C240 H223 0.940 . S
C240 C239 1.404 . S
C240 C241 1.389 . S
C241 H224 0.939 1_655 S
C241 C236 1.400 1_655 S
C241 C240 1.389 . S
C242 P216 1.819 . S
C242 C243 1.391 . S
C242 C247 1.391 . S
C243 H225 0.941 . S
C243 C242 1.391 . S
C243 C244 1.396 . S
C244 H228 0.939 . S
C244 C243 1.396 . S
C244 C245 1.397 . S
C245 C244 1.397 . S
C245 C246 1.385 . S
C246 H229 0.940 1_455 S
C246 C245 1.385 . S
C246 C247 1.388 . S
C247 H226 0.939 1_455 S
C247 C242 1.391 . S
C247 C246 1.388 . S
P248 O259 1.490 . S
P248 C262 1.812 . S
P248 C268 1.803 1_545 S
P248 C274 1.819 . S
H249 C263 0.941 . S
H250 C264 0.939 . S
H251 C266 0.940 . S
H252 C267 0.940 . S
H253 C269 0.939 . S
H254 C270 0.942 . S
H255 C272 0.940 . S
H256 C273 0.939 . S
H257 C275 0.941 . S
H258 C279 0.939 . S
O259 P248 1.490 . S
H260 C276 0.939 . S
H261 C278 0.940 . S
C262 P248 1.812 . S
C262 C263 1.389 . S
C262 C267 1.391 . S
C263 H249 0.941 . S
C263 C262 1.389 . S
C263 C264 1.397 . S
C264 H250 0.939 . S
C264 C263 1.397 . S
C264 C265 1.378 . S
C265 C264 1.378 . S
C265 C266 1.378 . S
C266 H251 0.940 . S
C266 C265 1.378 . S
C266 C267 1.396 . S
C267 H252 0.940 . S
C267 C262 1.391 . S
C267 C266 1.396 . S
C268 P248 1.803 1_565 S
C268 C269 1.378 . S
C268 C273 1.400 . S
C269 H253 0.939 . S
C269 C268 1.378 . S
C269 C270 1.361 . S
C270 H254 0.942 . S
C270 C269 1.361 . S
C270 C271 1.369 . S
C271 C270 1.369 . S
C271 C272 1.404 . S
C272 H255 0.940 . S
C272 C271 1.404 . S
C272 C273 1.389 . S
C273 H256 0.939 . S
C273 C268 1.400 . S
C273 C272 1.389 . S
C274 P248 1.819 . S
C274 C275 1.391 . S
C274 C279 1.391 1_545 S
C275 H257 0.941 . S
C275 C274 1.391 . S
C275 C276 1.396 . S
C276 H260 0.939 . S
C276 C275 1.396 . S
C276 C277 1.397 . S
C277 C276 1.397 . S
C277 C278 1.385 1_545 S
C278 H261 0.940 . S
C278 C277 1.385 1_565 S
C278 C279 1.388 . S
C279 H258 0.939 . S
C279 C274 1.391 1_565 S
C279 C278 1.388 . S
P280 O291 1.490 . S
P280 C294 1.812 . S
P280 C300 1.803 . S
P280 C306 1.819 . S
H281 C295 0.941 . S
H282 C296 0.939 . S
H283 C298 0.940 . S
H284 C299 0.940 . S
H285 C301 0.939 . S
H286 C302 0.942 . S
H287 C304 0.940 . S
H288 C305 0.939 . S
H289 C307 0.941 . S
H290 C311 0.939 . S
O291 P280 1.490 . S
H292 C308 0.939 . S
H293 C310 0.940 . S
C294 P280 1.812 . S
C294 C295 1.389 . S
C294 C299 1.391 . S
C295 H281 0.941 . S
C295 C294 1.389 . S
C295 C296 1.397 . S
C296 H282 0.939 . S
C296 C295 1.397 . S
C296 C297 1.378 . S
C297 C296 1.378 . S
C297 C298 1.378 . S
C298 H283 0.940 . S
C298 C297 1.378 . S
C298 C299 1.396 . S
C299 H284 0.940 . S
C299 C294 1.391 . S
C299 C298 1.396 . S
C300 P280 1.803 . S
C300 C301 1.378 . S
C300 C305 1.400 . S
C301 H285 0.939 . S
C301 C300 1.378 . S
C301 C302 1.361 . S
C302 H286 0.942 . S
C302 C301 1.361 . S
C302 C303 1.369 . S
C303 C302 1.369 . S
C303 C304 1.404 . S
C304 H287 0.940 . S
C304 C303 1.404 . S
C304 C305 1.389 . S
C305 H288 0.939 . S
C305 C300 1.400 . S
C305 C304 1.389 . S
C306 P280 1.819 . S
C306 C307 1.391 . S
C306 C311 1.391 . S
C307 H289 0.941 . S
C307 C306 1.391 . S
C307 C308 1.396 . S
C308 H292 0.939 . S
C308 C307 1.396 . S
C308 C309 1.397 . S
C309 C308 1.397 . S
C309 C310 1.385 . S
C310 H293 0.940 . S
C310 C309 1.385 . S
C310 C311 1.388 . S
C311 H290 0.939 . S
C311 C306 1.391 . S
C311 C310 1.388 . S
C312 C313 1.369 . S
C312 C314 1.419 . S
C312 H316 0.930 . S
C313 C312 1.369 . S
C313 C322 1.429 . S
C314 C312 1.419 . S
C314 C315 1.363 . S
C314 H317 0.929 . S
C315 C314 1.363 . S
C315 C321 1.428 . S
H316 C312 0.930 . S
H317 C314 0.929 . S
S318 N319 1.613 . S
S318 N320 1.610 . S
N319 S318 1.613 . S
N319 C322 1.350 . S
N320 S318 1.610 . S
N320 C321 1.351 . S
C321 C315 1.428 . S
C321 N320 1.351 . S
C321 C322 1.434 . S
C322 C313 1.429 . S
C322 N319 1.350 . S
C322 C321 1.434 . S
C323 C324 1.369 . S
C323 C325 1.419 . S
C323 H327 0.930 . S
C324 C323 1.369 . S
C324 C333 1.429 . S
C325 C323 1.419 . S
C325 C326 1.363 . S
C325 H328 0.929 . S
C326 C325 1.363 . S
C326 C332 1.428 . S
H327 C323 0.930 . S
H328 C325 0.929 . S
S329 N330 1.613 . S
S329 N331 1.610 . S
N330 S329 1.613 . S
N330 C333 1.350 . S
N331 S329 1.610 . S
N331 C332 1.351 . S
C332 C326 1.428 . S
C332 N331 1.351 . S
C332 C333 1.434 . S
C333 C324 1.429 . S
C333 N330 1.350 . S
C333 C332 1.434 . S
C334 C335 1.369 . S
C334 C336 1.419 . S
C334 H338 0.930 . S
C335 C334 1.369 . S
C335 C344 1.429 . S
C336 C334 1.419 . S
C336 C337 1.363 . S
C336 H339 0.929 . S
C337 C336 1.363 . S
C337 C343 1.428 . S
H338 C334 0.930 . S
H339 C336 0.929 . S
S340 N341 1.613 . S
S340 N342 1.610 . S
N341 S340 1.613 . S
N341 C344 1.350 . S
N342 S340 1.610 . S
N342 C343 1.351 . S
C343 C337 1.428 . S
C343 N342 1.351 . S
C343 C344 1.434 . S
C344 C335 1.429 . S
C344 N341 1.350 . S
C344 C343 1.434 . S
C345 C346 1.369 . S
C345 C347 1.419 . S
C345 H349 0.930 . S
C346 C345 1.369 . S
C346 C355 1.429 . S
C347 C345 1.419 . S
C347 C348 1.363 . S
C347 H350 0.929 . S
C348 C347 1.363 . S
C348 C354 1.428 . S
H349 C345 0.930 . S
H350 C347 0.929 . S
S351 N352 1.613 . S
S351 N353 1.610 . S
N352 S351 1.613 . S
N352 C355 1.350 . S
N353 S351 1.610 . S
N353 C354 1.351 . S
C354 C348 1.428 . S
C354 N353 1.351 . S
C354 C355 1.434 . S
C355 C346 1.429 . S
C355 N352 1.350 . S
C355 C354 1.434 . S
C356 C357 1.369 . S
C356 C358 1.419 . S
C356 H360 0.930 . S
C357 C356 1.369 . S
C357 C366 1.429 . S
C358 C356 1.419 . S
C358 C359 1.363 . S
C358 H361 0.929 . S
C359 C358 1.363 . S
C359 C365 1.428 . S
H360 C356 0.930 . S
H361 C358 0.929 . S
S362 N363 1.613 . S
S362 N364 1.610 . S
N363 S362 1.613 . S
N363 C366 1.350 . S
N364 S362 1.610 . S
N364 C365 1.351 . S
C365 C359 1.428 . S
C365 N364 1.351 . S
C365 C366 1.434 . S
C366 C357 1.429 . S
C366 N363 1.350 . S
C366 C365 1.434 . S
C367 C368 1.369 . S
C367 C369 1.419 . S
C367 H371 0.930 . S
C368 C367 1.369 . S
C368 C377 1.429 . S
C369 C367 1.419 . S
C369 C370 1.363 . S
C369 H372 0.929 . S
C370 C369 1.363 . S
C370 C376 1.428 . S
H371 C367 0.930 . S
H372 C369 0.929 . S
S373 N374 1.613 . S
S373 N375 1.610 . S
N374 S373 1.613 . S
N374 C377 1.350 . S
N375 S373 1.610 . S
N375 C376 1.351 . S
C376 C370 1.428 . S
C376 N375 1.351 . S
C376 C377 1.434 . S
C377 C368 1.429 . S
C377 N374 1.350 . S
C377 C376 1.434 . S
C378 C379 1.369 . S
C378 C380 1.419 . S
C378 H382 0.930 . S
C379 C378 1.369 . S
C379 C388 1.429 . S
C380 C378 1.419 . S
C380 C381 1.363 . S
C380 H383 0.929 . S
C381 C380 1.363 . S
C381 C387 1.428 . S
H382 C378 0.930 . S
H383 C380 0.929 . S
S384 N385 1.613 . S
S384 N386 1.610 . S
N385 S384 1.613 . S
N385 C388 1.350 . S
N386 S384 1.610 . S
N386 C387 1.351 . S
C387 C381 1.428 . S
C387 N386 1.351 . S
C387 C388 1.434 . S
C388 C379 1.429 . S
C388 N385 1.350 . S
C388 C387 1.434 . S
C389 C390 1.369 . S
C389 C391 1.419 . S
C389 H393 0.930 . S
C390 C389 1.369 . S
C390 C399 1.429 . S
C391 C389 1.419 . S
C391 C392 1.363 . S
C391 H394 0.929 . S
C392 C391 1.363 . S
C392 C398 1.428 . S
H393 C389 0.930 . S
H394 C391 0.929 . S
S395 N396 1.613 . S
S395 N397 1.610 . S
N396 S395 1.613 . S
N396 C399 1.350 . S
N397 S395 1.610 . S
N397 C398 1.351 . S
C398 C392 1.428 . S
C398 N397 1.351 . S
C398 C399 1.434 . S
C399 C390 1.429 . S
C399 N396 1.350 . S
C399 C398 1.434 . S
C400 C401 1.369 . S
C400 C402 1.419 . S
C400 H404 0.930 . S
C401 C400 1.369 . S
C401 C410 1.429 . S
C402 C400 1.419 . S
C402 C403 1.363 . S
C402 H405 0.929 . S
C403 C402 1.363 . S
C403 C409 1.428 . S
H404 C400 0.930 . S
H405 C402 0.929 . S
S406 N407 1.613 . S
S406 N408 1.610 . S
N407 S406 1.613 . S
N407 C410 1.350 . S
N408 S406 1.610 . S
N408 C409 1.351 . S
C409 C403 1.428 . S
C409 N408 1.351 . S
C409 C410 1.434 . S
C410 C401 1.429 . S
C410 N407 1.350 . S
C410 C409 1.434 . S
C411 C412 1.369 . S
C411 C413 1.419 . S
C411 H415 0.930 . S
C412 C411 1.369 . S
C412 C421 1.429 . S
C413 C411 1.419 . S
C413 C414 1.363 . S
C413 H416 0.929 . S
C414 C413 1.363 . S
C414 C420 1.428 . S
H415 C411 0.930 . S
H416 C413 0.929 . S
S417 N418 1.613 . S
S417 N419 1.610 . S
N418 S417 1.613 . S
N418 C421 1.350 . S
N419 S417 1.610 . S
N419 C420 1.351 . S
C420 C414 1.428 . S
C420 N419 1.351 . S
C420 C421 1.434 . S
C421 C412 1.429 . S
C421 N418 1.350 . S
C421 C420 1.434 . S
C422 C423 1.369 . S
C422 C424 1.419 . S
C422 H426 0.930 . S
C423 C422 1.369 . S
C423 C432 1.429 . S
C424 C422 1.419 . S
C424 C425 1.363 . S
C424 H427 0.929 . S
C425 C424 1.363 . S
C425 C431 1.428 . S
H426 C422 0.930 . S
H427 C424 0.929 . S
S428 N429 1.613 . S
S428 N430 1.610 . S
N429 S428 1.613 . S
N429 C432 1.350 . S
N430 S428 1.610 . S
N430 C431 1.351 . S
C431 C425 1.428 . S
C431 N430 1.351 . S
C431 C432 1.434 . S
C432 C423 1.429 . S
C432 N429 1.350 . S
C432 C431 1.434 . S
C433 C434 1.369 . S
C433 C435 1.419 . S
C433 H437 0.930 . S
C434 C433 1.369 . S
C434 C443 1.429 . S
C435 C433 1.419 . S
C435 C436 1.363 . S
C435 H438 0.929 . S
C436 C435 1.363 . S
C436 C442 1.428 . S
H437 C433 0.930 . S
H438 C435 0.929 . S
S439 N440 1.613 . S
S439 N441 1.610 . S
N440 S439 1.613 . S
N440 C443 1.350 . S
N441 S439 1.610 . S
N441 C442 1.351 . S
C442 C436 1.428 . S
C442 N441 1.351 . S
C442 C443 1.434 . S
C443 C434 1.429 . S
C443 N440 1.350 . S
C443 C442 1.434 . S
C444 C445 1.369 . S
C444 C446 1.419 . S
C444 H448 0.930 . S
C445 C444 1.369 . S
C445 C454 1.429 1_455 S
C446 C444 1.419 . S
C446 C447 1.363 . S
C446 H449 0.929 . S
C447 C446 1.363 . S
C447 C453 1.428 1_455 S
H448 C444 0.930 . S
H449 C446 0.929 . S
S450 N451 1.613 . S
S450 N452 1.610 . S
N451 S450 1.613 . S
N451 C454 1.350 . S
N452 S450 1.610 . S
N452 C453 1.351 . S
C453 C447 1.428 1_655 S
C453 N452 1.351 . S
C453 C454 1.434 . S
C454 C445 1.429 1_655 S
C454 N451 1.350 . S
C454 C453 1.434 . S
C455 C456 1.369 . S
C455 C457 1.419 . S
C455 H459 0.930 . S
C456 C455 1.369 . S
C456 C465 1.429 . S
C457 C455 1.419 . S
C457 C458 1.363 . S
C457 H460 0.929 . S
C458 C457 1.363 . S
C458 C464 1.428 . S
H459 C455 0.930 . S
H460 C457 0.929 . S
S461 N462 1.613 . S
S461 N463 1.610 . S
N462 S461 1.613 . S
N462 C465 1.350 . S
N463 S461 1.610 . S
N463 C464 1.351 . S
C464 C458 1.428 . S
C464 N463 1.351 . S
C464 C465 1.434 . S
C465 C456 1.429 . S
C465 N462 1.350 . S
C465 C464 1.434 . S
C466 C467 1.369 . S
C466 C468 1.419 . S
C466 H470 0.930 . S
C467 C466 1.369 . S
C467 C476 1.429 . S
C468 C466 1.419 . S
C468 C469 1.363 . S
C468 H471 0.929 . S
C469 C468 1.363 . S
C469 C475 1.428 . S
H470 C466 0.930 . S
H471 C468 0.929 . S
S472 N473 1.613 . S
S472 N474 1.610 . S
N473 S472 1.613 . S
N473 C476 1.350 . S
N474 S472 1.610 . S
N474 C475 1.351 . S
C475 C469 1.428 . S
C475 N474 1.351 . S
C475 C476 1.434 . S
C476 C467 1.429 . S
C476 N473 1.350 . S
C476 C475 1.434 . S
C477 C478 1.369 . S
C477 C479 1.419 . S
C477 H481 0.930 . S
C478 C477 1.369 . S
C478 C487 1.429 1_545 S
C479 C477 1.419 . S
C479 C480 1.363 . S
C479 H482 0.929 . S
C480 C479 1.363 . S
C480 C486 1.428 1_545 S
H481 C477 0.930 . S
H482 C479 0.929 . S
S483 N484 1.613 . S
S483 N485 1.610 . S
N484 S483 1.613 . S
N484 C487 1.350 . S
N485 S483 1.610 . S
N485 C486 1.351 . S
C486 C480 1.428 1_565 S
C486 N485 1.351 . S
C486 C487 1.434 . S
C487 C478 1.429 1_565 S
C487 N484 1.350 . S
C487 C486 1.434 . S
C488 C489 1.369 . S
C488 C490 1.419 . S
C488 H492 0.930 . S
C489 C488 1.369 . S
C489 C498 1.429 . S
C490 C488 1.419 . S
C490 C491 1.363 . S
C490 H493 0.929 . S
C491 C490 1.363 . S
C491 C497 1.428 . S
H492 C488 0.930 . S
H493 C490 0.929 . S
S494 N495 1.613 . S
S494 N496 1.610 . S
N495 S494 1.613 . S
N495 C498 1.350 . S
N496 S494 1.610 . S
N496 C497 1.351 . S
C497 C491 1.428 . S
C497 N496 1.351 . S
C497 C498 1.434 . S
C498 C489 1.429 . S
C498 N495 1.350 . S
C498 C497 1.434 . S
C499 C500 1.369 . S
C499 C501 1.419 . S
C499 H503 0.930 . S
C500 C499 1.369 . S
C500 C509 1.429 . S
C501 C499 1.419 . S
C501 C502 1.363 . S
C501 H504 0.929 . S
C502 C501 1.363 . S
C502 C508 1.428 . S
H503 C499 0.930 . S
H504 C501 0.929 . S
S505 N506 1.613 . S
S505 N507 1.610 . S
N506 S505 1.613 . S
N506 C509 1.350 1_655 S
N507 S505 1.610 . S
N507 C508 1.351 1_655 S
C508 C502 1.428 . S
C508 N507 1.351 1_455 S
C508 C509 1.434 . S
C509 C500 1.429 . S
C509 N506 1.350 1_455 S
C509 C508 1.434 . S
C313 C19 3.028 . S
C315 C303 2.965 . S
C324 C49 3.118 . S
C326 C239 3.047 . S
C335 C99 3.045 . S
C337 C271 2.984 . S
C346 C9 3.125 . S
C348 C297 3.064 . S
C359 C233 2.973 . S
C357 C59 3.032 . S
C370 C265 3.044 . S
C368 C89 3.103 . S
C379 C55 0.691 . S
C381 C175 0.666 . S
C390 C85 0.696 . S
C392 C207 0.702 . S
C401 C15 0.669 . S
C403 C137 0.658 . S
C414 C169 0.693 . S
C412 C45 0.736 . S
C425 C201 0.699 . S
C423 C95 0.675 . S
C434 C5 0.709 . S
C436 C143 0.714 . S
C447 C213 0.989 . S
C445 C18 1.025 . S
C456 C58 1.003 . S
C458 C149 0.972 . S
C467 C98 1.026 . S
C469 C181 1.029 . S
C480 C277 1.775 . S
C478 C48 1.728 . S
C491 C309 1.781 1_556 S
C489 C88 1.722 . S
C500 C8 1.726 . S
C502 C245 1.795 . S
