# Generated by pormake.
# Topology pth, (4,4)-cn, num edge types: 1
# Building blocks:
#     Node 0, Type 0, BuildingBlock: AZAVOO_clean_sbu_0, # of connection points: 4
#     Node 1, Type 0, BuildingBlock: AZAVOO_clean_sbu_0, # of connection points: 4
#     Node 2, Type 0, BuildingBlock: AZAVOO_clean_sbu_0, # of connection points: 4
#     Node 3, Type 1, BuildingBlock: NAHDIM_clean_linker_0, # of connection points: 4
#     Node 4, Type 1, BuildingBlock: NAHDIM_clean_linker_0, # of connection points: 4
#     Node 5, Type 1, BuildingBlock: NAHDIM_clean_linker_0, # of connection points: 4
#     Edge 6, Type (0, 1), BuildingBlock: TEMPAE_clean_linker_10, # of connection points: 2
#     Edge 7, Type (0, 1), BuildingBlock: TEMPAE_clean_linker_10, # of connection points: 2
#     Edge 8, Type (0, 1), BuildingBlock: TEMPAE_clean_linker_10, # of connection points: 2
#     Edge 9, Type (0, 1), BuildingBlock: TEMPAE_clean_linker_10, # of connection points: 2
#     Edge 10, Type (0, 1), BuildingBlock: TEMPAE_clean_linker_10, # of connection points: 2
#     Edge 11, Type (0, 1), BuildingBlock: TEMPAE_clean_linker_10, # of connection points: 2
#     Edge 12, Type (0, 1), BuildingBlock: TEMPAE_clean_linker_10, # of connection points: 2
#     Edge 13, Type (0, 1), BuildingBlock: TEMPAE_clean_linker_10, # of connection points: 2
#     Edge 14, Type (0, 1), BuildingBlock: TEMPAE_clean_linker_10, # of connection points: 2
#     Edge 15, Type (0, 1), BuildingBlock: TEMPAE_clean_linker_10, # of connection points: 2
#     Edge 16, Type (0, 1), BuildingBlock: TEMPAE_clean_linker_10, # of connection points: 2
#     Edge 17, Type (0, 1), BuildingBlock: TEMPAE_clean_linker_10, # of connection points: 2
# Relax obj value: 0.086
# Max RMSD: 0.220
# Mean RMSD: 0.131
data_MOF--net-pth--node1-AZAVOO_clean_sbu_0--node2-NAHDIM_clean_linker_0--edge1-TEMPAE_clean_linker_10
_symmetry_space_group_name_H-M    P1
_symmetry_Int_Tables_number       1
_symmetry_cell_setting            triclinic
loop_
_symmetry_equiv_pos_as_xyz
'x, y, z'
_cell_length_a     31.695308
_cell_length_b     32.28392
_cell_length_c     80.05515
_cell_angle_alpha  90.531227
_cell_angle_beta   93.213235
_cell_angle_gamma 121.97499
loop_
_atom_site_label
_atom_site_type_symbol
_atom_site_fract_x
_atom_site_fract_y
_atom_site_fract_z
_atom_type_partial_charge
Mg0 Mg 0.16255 0.08796 0.03694 0.0
O1 O 0.09136 0.05376 0.0195 0.0
O2 O 0.09564 0.10966 0.00227 0.0
Mg3 Mg 0.16782 0.18206 0.01036 0.0
C4 C 0.07316 0.06611 0.00734 0.0
C5 C 0.14539 0.99734 0.05716 0.0
O6 O 0.19068 0.01248 0.05296 0.0
O7 O 0.13386 0.12537 0.05302 0.0
O8 O 0.13856 0.18194 0.03598 0.0
O9 O 0.19922 0.07264 0.01653 0.0
O10 O 0.20114 0.14168 0.02025 0.0
C11 C 0.12815 0.16095 0.04993 0.0
C12 C 0.21166 0.11538 0.01145 0.0
O13 O 0.12483 0.02034 0.05233 0.0
Mg14 Mg 0.9846 0.05088 0.3652 0.0
O15 O 0.0497 0.06302 0.38313 0.0
O16 O 0.07777 0.13256 0.39822 0.0
Mg17 Mg 0.03182 0.16535 0.38989 0.0
C18 C 0.07936 0.09488 0.39449 0.0
C19 C 0.9761 0.95215 0.35693 0.0
O20 O 0.96143 0.9449 0.37224 0.0
O21 O 0.03846 0.11011 0.34849 0.0
O22 O 0.06107 0.17803 0.36367 0.0
O23 O 0.93029 0.01173 0.38488 0.0
O24 O 0.97073 0.09143 0.38168 0.0
C25 C 0.06196 0.15665 0.3503 0.0
C26 C 0.94144 0.05462 0.39015 0.0
O27 O 0.98818 0.99239 0.35041 0.0
Mg28 Mg 0.99626 0.01202 0.68552 0.0
O29 O 0.03611 0.06777 0.70789 0.0
O30 O 0.97784 0.06589 0.72293 0.0
Mg31 Mg 0.90169 0.01362 0.70955 0.0
C32 C 0.02343 0.08223 0.72051 0.0
C33 C 0.08931 0.01386 0.67551 0.0
O34 O 0.06519 0.97335 0.68356 0.0
O35 O 0.98213 0.06606 0.6718 0.0
O36 O 0.92561 0.06498 0.68772 0.0
O37 O 0.98806 0.9529 0.70208 0.0
O38 O 0.93206 0.97345 0.69852 0.0
C39 C 0.95322 0.08073 0.67541 0.0
C40 C 0.94673 0.94786 0.70611 0.0
O41 O 0.07081 0.04038 0.67392 0.0
C42 C 0.97321 0.64433 0.30668 0.0
C43 C 0.00391 0.69095 0.29718 0.0
C44 C 0.00271 0.66433 0.26869 0.0
C45 C 0.05355 0.68661 0.2662 0.0
C46 C 0.06989 0.66589 0.25471 0.0
C47 C 0.03457 0.62194 0.24563 0.0
C48 C 0.98304 0.60043 0.2477 0.0
C49 C 0.96776 0.6225 0.25905 0.0
C50 C 0.12494 0.69031 0.25256 0.0
C51 C 0.94428 0.55326 0.23839 0.0
C52 C 0.07917 0.32403 0.28226 0.0
C53 C 0.06559 0.34935 0.26974 0.0
C54 C 0.09592 0.43101 0.25975 0.0
C55 C 0.05216 0.41719 0.24972 0.0
C56 C 0.04589 0.45217 0.24174 0.0
C57 C 0.08507 0.50195 0.24315 0.0
C58 C 0.12963 0.51599 0.2529 0.0
C59 C 0.13433 0.48025 0.26116 0.0
C60 C 0.99717 0.43559 0.23177 0.0
C61 C 0.17225 0.56863 0.25454 0.0
C62 C 0.06839 0.41565 0.14039 0.0
C63 C 0.0259 0.40629 0.14833 0.0
C64 C 0.02265 0.44467 0.15504 0.0
C65 C 0.06303 0.49351 0.15407 0.0
C66 C 0.10499 0.50326 0.14554 0.0
C67 C 0.10692 0.4641 0.1387 0.0
C68 C 0.9767 0.43271 0.16378 0.0
C69 C 0.14856 0.55483 0.14427 0.0
C70 C 0.90649 0.72795 0.13668 0.0
C71 C 0.95542 0.72928 0.13666 0.0
C72 C 0.96871 0.66176 0.13921 0.0
C73 C 0.9412 0.61139 0.14107 0.0
C74 C 0.96291 0.58792 0.14904 0.0
C75 C 0.01408 0.61552 0.15468 0.0
C76 C 0.04291 0.66616 0.15186 0.0
C77 C 0.01972 0.68894 0.14437 0.0
C78 C 0.93077 0.53383 0.1517 0.0
C79 C 0.098 0.69634 0.15699 0.0
C80 C 0.0517 0.59631 0.2351 0.0
C81 C 0.0656 0.56666 0.2432 0.0
C82 C 0.07912 0.53878 0.23416 0.0
C83 C 0.08019 0.54136 0.21658 0.0
C84 C 0.09485 0.51468 0.20719 0.0
C85 C 0.09074 0.51321 0.18981 0.0
C86 C 0.07219 0.53868 0.18116 0.0
C87 C 0.06297 0.53321 0.16357 0.0
C88 C 0.04646 0.56048 0.15524 0.0
C89 C 0.03657 0.59162 0.16414 0.0
C90 C 0.04321 0.59563 0.18187 0.0
C91 C 0.03111 0.62441 0.19136 0.0
C92 C 0.03532 0.62596 0.2088 0.0
C93 C 0.05087 0.59806 0.21744 0.0
C94 C 0.06476 0.57007 0.20815 0.0
C95 C 0.06093 0.56887 0.19037 0.0
C96 C 0.05559 0.31972 0.15516 0.0
C97 C 0.04498 0.32983 0.13722 0.0
O98 O 0.98659 0.68223 0.28044 0.0
O99 O 0.9448 0.68285 0.13242 0.0
O100 O 0.0742 0.37942 0.13448 0.0
O101 O 0.10212 0.39819 0.26833 0.0
H102 H 0.04345 0.70109 0.29852 0.0
H103 H 0.97752 0.61483 0.30151 0.0
H104 H 0.93301 0.63175 0.30548 0.0
H105 H 0.98634 0.65094 0.32017 0.0
H106 H 0.08043 0.72006 0.27328 0.0
H107 H 0.92854 0.60604 0.26096 0.0
H108 H 0.13841 0.66725 0.25777 0.0
H109 H 0.14702 0.72709 0.259 0.0
H110 H 0.13181 0.69392 0.23904 0.0
H111 H 0.90602 0.53995 0.24211 0.0
H112 H 0.95285 0.52456 0.24077 0.0
H113 H 0.94501 0.55867 0.22472 0.0
H114 H 0.02773 0.34304 0.27101 0.0
H115 H 0.05232 0.31444 0.29229 0.0
H116 H 0.11248 0.35351 0.29015 0.0
H117 H 0.08139 0.27105 0.26786 0.0
H118 H 0.0225 0.37915 0.24806 0.0
H119 H 0.16807 0.49065 0.26881 0.0
H120 H 0.00264 0.4357 0.2182 0.0
H121 H 0.98414 0.46077 0.23427 0.0
H122 H 0.96741 0.39801 0.23471 0.0
H123 H 0.20591 0.57301 0.26141 0.0
H124 H 0.16059 0.59067 0.26133 0.0
H125 H 0.18212 0.58356 0.24193 0.0
H126 H 0.00487 0.31724 0.13521 0.0
H127 H 0.99534 0.36923 0.14965 0.0
H128 H 0.13938 0.47109 0.13243 0.0
H129 H 0.98559 0.43717 0.17753 0.0
H130 H 0.9453 0.39457 0.16077 0.0
H131 H 0.96436 0.45802 0.16023 0.0
H132 H 0.17809 0.55644 0.13693 0.0
H133 H 0.16494 0.57129 0.15703 0.0
H134 H 0.13555 0.57736 0.13825 0.0
H135 H 0.97325 0.74039 0.14967 0.0
H136 H 0.91381 0.76458 0.14037 0.0
H137 H 0.88224 0.7015 0.14581 0.0
H138 H 0.88631 0.71647 0.12406 0.0
H139 H 0.90202 0.59073 0.13681 0.0
H140 H 0.04149 0.72782 0.14248 0.0
H141 H 0.93585 0.52613 0.1649 0.0
H142 H 0.94222 0.51392 0.14359 0.0
H143 H 0.89056 0.51921 0.1486 0.0
H144 H 0.11653 0.73278 0.15142 0.0
H145 H 0.11646 0.67696 0.15313 0.0
H146 H 0.10354 0.70189 0.17082 0.0
H147 H 0.06392 0.56374 0.25667 0.0
H148 H 0.10861 0.49373 0.21317 0.0
H149 H 0.10153 0.49116 0.18323 0.0
H150 H 0.03887 0.55559 0.14174 0.0
H151 H 0.01751 0.64554 0.18542 0.0
H152 H 0.02511 0.64839 0.21544 0.0
H153 H 0.09575 0.33298 0.1576 0.0
H154 H 0.03302 0.27988 0.15718 0.0
H155 H 0.04562 0.33853 0.16435 0.0
C156 C 0.41064 0.03475 0.63696 0.0
C157 C 0.3992 0.06682 0.62607 0.0
C158 C 0.42775 0.06833 0.59855 0.0
C159 C 0.45416 0.11796 0.59506 0.0
C160 C 0.49233 0.13647 0.584 0.0
C161 C 0.50462 0.10463 0.57652 0.0
C162 C 0.47729 0.05426 0.57985 0.0
C163 C 0.4384 0.0366 0.5906 0.0
C164 C 0.51986 0.19011 0.58047 0.0
C165 C 0.48991 0.01929 0.57244 0.0
C166 C 0.85187 0.32278 0.63013 0.0
C167 C 0.82371 0.27167 0.62152 0.0
C168 C 0.77881 0.24868 0.59434 0.0
C169 C 0.7504 0.1976 0.59473 0.0
C170 C 0.70513 0.17014 0.58497 0.0
C171 C 0.68754 0.19454 0.57492 0.0
C172 C 0.71657 0.24621 0.57442 0.0
C173 C 0.7625 0.27252 0.58388 0.0
C174 C 0.67596 0.11513 0.58554 0.0
C175 C 0.69867 0.27383 0.56423 0.0
C176 C 0.75724 0.18848 0.47433 0.0
C177 C 0.72873 0.13972 0.47893 0.0
C178 C 0.68064 0.12058 0.48425 0.0
C179 C 0.66111 0.15102 0.48512 0.0
C180 C 0.68809 0.19876 0.47913 0.0
C181 C 0.73582 0.21673 0.47364 0.0
C182 C 0.65199 0.06885 0.48994 0.0
C183 C 0.66789 0.23181 0.47956 0.0
C184 C 0.27254 0.99313 0.48467 0.0
C185 C 0.30065 0.03304 0.47222 0.0
C186 C 0.3823 0.04441 0.47079 0.0
C187 C 0.40042 0.01364 0.47325 0.0
C188 C 0.44851 0.03178 0.48076 0.0
C189 C 0.47925 0.08206 0.48554 0.0
C190 C 0.46217 0.11387 0.48203 0.0
C191 C 0.41376 0.09465 0.47471 0.0
C192 C 0.46585 0.99704 0.48413 0.0
C193 C 0.49461 0.16797 0.48643 0.0
C194 C 0.5479 0.12439 0.56604 0.0
C195 C 0.59555 0.14882 0.57427 0.0
C196 C 0.6381 0.16631 0.5654 0.0
C197 C 0.63311 0.15802 0.54783 0.0
C198 C 0.67486 0.17249 0.53864 0.0
C199 C 0.66974 0.16525 0.52134 0.0
C200 C 0.62261 0.14316 0.51251 0.0
C201 C 0.61718 0.13611 0.49487 0.0
C202 C 0.5701 0.11547 0.48641 0.0
C203 C 0.52782 0.101 0.4952 0.0
C204 C 0.5323 0.10631 0.51291 0.0
C205 C 0.49038 0.09088 0.52219 0.0
C206 C 0.49531 0.0967 0.53958 0.0
C207 C 0.54236 0.11839 0.54837 0.0
C208 C 0.58513 0.13472 0.53926 0.0
C209 C 0.57998 0.12793 0.52155 0.0
C210 C 0.88939 0.24399 0.48189 0.0
C211 C 0.83869 0.19729 0.47757 0.0
O212 O 0.39163 0.05027 0.60948 0.0
O213 O 0.33422 0.02474 0.46483 0.0
O214 O 0.80577 0.20985 0.47096 0.0
O215 O 0.82126 0.27572 0.60434 0.0
H216 H 0.4317 0.10516 0.62773 0.0
H217 H 0.44447 0.03646 0.63291 0.0
H218 H 0.37895 0.99607 0.6358 0.0
H219 H 0.41777 0.04776 0.65032 0.0
H220 H 0.44471 0.14206 0.60096 0.0
H221 H 0.41728 0.99821 0.59333 0.0
H222 H 0.55818 0.20861 0.5866 0.0
H223 H 0.50106 0.20827 0.58522 0.0
H224 H 0.52314 0.19507 0.56679 0.0
H225 H 0.46884 0.98261 0.57777 0.0
H226 H 0.53045 0.03407 0.57466 0.0
H227 H 0.48098 0.01499 0.55869 0.0
H228 H 0.78543 0.25298 0.62606 0.0
H229 H 0.85551 0.32027 0.64391 0.0
H230 H 0.83092 0.34103 0.62747 0.0
H231 H 0.88958 0.34583 0.62549 0.0
H232 H 0.76372 0.17922 0.60261 0.0
H233 H 0.78494 0.31205 0.58369 0.0
H234 H 0.66359 0.09818 0.57265 0.0
H235 H 0.6421 0.10294 0.59241 0.0
H236 H 0.6981 0.10156 0.59191 0.0
H237 H 0.72172 0.31382 0.56724 0.0
H238 H 0.65926 0.26052 0.56643 0.0
H239 H 0.70042 0.26753 0.55071 0.0
H240 H 0.82587 0.17862 0.48955 0.0
H241 H 0.74436 0.11694 0.47878 0.0
H242 H 0.75777 0.25396 0.46968 0.0
H243 H 0.65245 0.06955 0.50382 0.0
H244 H 0.66829 0.04754 0.48593 0.0
H245 H 0.61245 0.04989 0.48492 0.0
H246 H 0.69198 0.26676 0.47346 0.0
H247 H 0.66488 0.24017 0.49277 0.0
H248 H 0.62986 0.21301 0.47318 0.0
H249 H 0.32037 0.06824 0.47976 0.0
H250 H 0.24522 0.99871 0.4908 0.0
H251 H 0.2994 0.99487 0.49461 0.0
H252 H 0.25314 0.95626 0.47828 0.0
H253 H 0.37602 0.97501 0.4699 0.0
H254 H 0.40039 0.11879 0.47215 0.0
H255 H 0.47388 0.99702 0.49782 0.0
H256 H 0.50104 0.00954 0.47804 0.0
H257 H 0.43771 0.95905 0.47947 0.0
H258 H 0.47785 0.18842 0.48138 0.0
H259 H 0.53185 0.18315 0.48149 0.0
H260 H 0.50031 0.174 0.50026 0.0
H261 H 0.59957 0.15437 0.5878 0.0
H262 H 0.71203 0.18961 0.54473 0.0
H263 H 0.70342 0.17756 0.51499 0.0
H264 H 0.56641 0.11109 0.47285 0.0
H265 H 0.45321 0.07397 0.51611 0.0
H266 H 0.4618 0.08424 0.54606 0.0
H267 H 0.9164 0.23494 0.48736 0.0
H268 H 0.88552 0.2672 0.49124 0.0
H269 H 0.90436 0.26523 0.47054 0.0
C270 C 0.67704 0.74716 0.78485 0.0
C271 C 0.72401 0.75857 0.79567 0.0
C272 C 0.68746 0.68571 0.81256 0.0
C273 C 0.65826 0.69747 0.82169 0.0
C274 C 0.62168 0.66302 0.83159 0.0
C275 C 0.61608 0.61674 0.8332 0.0
C276 C 0.6476 0.60592 0.82489 0.0
C277 C 0.68263 0.64049 0.81456 0.0
C278 C 0.58809 0.67582 0.83989 0.0
C279 C 0.64346 0.55741 0.82657 0.0
C280 C 0.24519 0.33269 0.82144 0.0
C281 C 0.27662 0.32525 0.80934 0.0
C282 C 0.35594 0.40289 0.81184 0.0
C283 C 0.38827 0.38941 0.81886 0.0
C284 C 0.43281 0.42387 0.82798 0.0
C285 C 0.44483 0.47259 0.83023 0.0
C286 C 0.413 0.48655 0.82268 0.0
C287 C 0.36921 0.45152 0.81335 0.0
C288 C 0.46672 0.40814 0.83538 0.0
C289 C 0.4247 0.53819 0.82476 0.0
C290 C 0.34462 0.41362 0.92642 0.0
C291 C 0.38125 0.40201 0.92521 0.0
C292 C 0.43038 0.43834 0.92227 0.0
C293 C 0.44265 0.4869 0.92012 0.0
C294 C 0.40694 0.49937 0.92294 0.0
C295 C 0.35835 0.46246 0.92627 0.0
C296 C 0.4681 0.42409 0.92013 0.0
C297 C 0.41905 0.55099 0.92122 0.0
C298 C 0.7619 0.82703 0.92462 0.0
C299 C 0.7521 0.81149 0.94279 0.0
C300 C 0.69728 0.72221 0.93797 0.0
C301 C 0.6959 0.67818 0.93789 0.0
C302 C 0.65452 0.6349 0.93053 0.0
C303 C 0.61351 0.63581 0.92309 0.0
C304 C 0.61356 0.67964 0.92385 0.0
C305 C 0.65523 0.72226 0.93133 0.0
C306 C 0.65539 0.58866 0.93009 0.0
C307 C 0.57022 0.68187 0.91617 0.0
C308 C 0.57492 0.5787 0.84255 0.0
C309 C 0.5323 0.5423 0.8332 0.0
C310 C 0.48968 0.50854 0.84098 0.0
C311 C 0.48931 0.51092 0.85861 0.0
C312 C 0.44643 0.47867 0.86677 0.0
C313 C 0.44605 0.48181 0.88406 0.0
C314 C 0.48853 0.51742 0.89394 0.0
C315 C 0.48808 0.52127 0.91156 0.0
C316 C 0.52993 0.55892 0.9209 0.0
C317 C 0.57272 0.59269 0.91306 0.0
C318 C 0.57456 0.58786 0.89555 0.0
C319 C 0.61755 0.62008 0.88735 0.0
C320 C 0.61826 0.61634 0.87005 0.0
C321 C 0.57573 0.58085 0.86023 0.0
C322 C 0.53253 0.54712 0.86827 0.0
C323 C 0.53206 0.5505 0.88596 0.0
C324 C 0.22093 0.3202 0.9113 0.0
C325 C 0.27178 0.33267 0.91903 0.0
O326 O 0.71946 0.71606 0.80139 0.0
O327 O 0.74002 0.7636 0.94415 0.0
O328 O 0.29565 0.37858 0.9271 0.0
O329 O 0.31202 0.36991 0.8034 0.0
H330 H 0.72978 0.78311 0.80657 0.0
H331 H 0.6439 0.7315 0.79229 0.0
H332 H 0.66892 0.72052 0.77439 0.0
H333 H 0.68237 0.78117 0.77954 0.0
H334 H 0.6627 0.73295 0.82084 0.0
H335 H 0.70578 0.63192 0.80768 0.0
H336 H 0.5485 0.64537 0.83801 0.0
H337 H 0.59138 0.70942 0.83499 0.0
H338 H 0.59828 0.68211 0.85356 0.0
H339 H 0.67564 0.55768 0.82161 0.0
H340 H 0.60881 0.52845 0.81952 0.0
H341 H 0.64102 0.54771 0.83991 0.0
H342 H 0.29504 0.30865 0.81628 0.0
H343 H 0.21635 0.29709 0.82619 0.0
H344 H 0.22658 0.34995 0.81511 0.0
H345 H 0.26937 0.35679 0.83233 0.0
H346 H 0.37905 0.35216 0.81708 0.0
H347 H 0.34426 0.46159 0.80764 0.0
H348 H 0.46658 0.4091 0.84924 0.0
H349 H 0.50562 0.43387 0.83213 0.0
H350 H 0.45496 0.37058 0.83095 0.0
H351 H 0.39453 0.54236 0.81898 0.0
H352 H 0.45981 0.56354 0.81886 0.0
H353 H 0.43056 0.54933 0.83827 0.0
H354 H 0.29327 0.33305 0.90841 0.0
H355 H 0.37121 0.36444 0.92605 0.0
H356 H 0.33002 0.47114 0.92767 0.0
H357 H 0.47176 0.42043 0.90657 0.0
H358 H 0.4567 0.38865 0.92579 0.0
H359 H 0.50526 0.45273 0.92591 0.0
H360 H 0.38758 0.55498 0.92427 0.0
H361 H 0.42842 0.56218 0.9082 0.0
H362 H 0.45221 0.57633 0.92968 0.0
H363 H 0.72073 0.81451 0.94676 0.0
H364 H 0.77334 0.86592 0.92374 0.0
H365 H 0.72781 0.80471 0.91616 0.0
H366 H 0.79181 0.82252 0.9201 0.0
H367 H 0.7281 0.67815 0.9432 0.0
H368 H 0.65484 0.75553 0.93159 0.0
H369 H 0.65592 0.57799 0.91692 0.0
H370 H 0.62102 0.55839 0.93513 0.0
H371 H 0.68841 0.59299 0.93743 0.0
H372 H 0.57445 0.71781 0.91874 0.0
H373 H 0.53493 0.6528 0.9211 0.0
H374 H 0.56698 0.67515 0.9024 0.0
H375 H 0.53173 0.54117 0.81963 0.0
H376 H 0.41244 0.45078 0.85989 0.0
H377 H 0.4116 0.45614 0.8895 0.0
H378 H 0.52871 0.56276 0.93431 0.0
H379 H 0.65117 0.64868 0.8942 0.0
H380 H 0.65236 0.64208 0.86441 0.0
H381 H 0.19753 0.32063 0.92105 0.0
H382 H 0.20109 0.28346 0.90479 0.0
H383 H 0.22606 0.3475 0.90198 0.0
C384 C 0.10833 0.16548 0.0796 0.0
C385 C 0.11126 0.18047 0.06308 0.0
C386 C 0.096 0.18675 0.09231 0.0
C387 C 0.08621 0.22368 0.08836 0.0
C388 C 0.0877 0.23793 0.07165 0.0
C389 C 0.10022 0.21622 0.05923 0.0
C390 C 0.0947 0.17064 0.11002 0.0
C391 C 0.07716 0.27696 0.06692 0.0
C392 C 0.01688 0.25767 0.11709 0.0
C393 C 0.05594 0.30158 0.12485 0.0
C394 C 0.02626 0.23114 0.10551 0.0
C395 C 0.07594 0.2488 0.10171 0.0
C396 C 0.11568 0.29221 0.10994 0.0
C397 C 0.10522 0.31798 0.12147 0.0
C398 C 0.98295 0.18487 0.09704 0.0
C399 C 0.16918 0.31205 0.10628 0.0
H400 H 0.11681 0.13793 0.08271 0.0
H401 H 0.10198 0.22787 0.0465 0.0
H402 H 0.12422 0.20163 0.11817 0.0
H403 H 0.05844 0.15956 0.11505 0.0
H404 H 0.10046 0.13962 0.11085 0.0
H405 H 0.07804 0.28256 0.05324 0.0
H406 H 0.04002 0.26705 0.07083 0.0
H407 H 0.10521 0.31214 0.07358 0.0
H408 H 0.97884 0.24436 0.11996 0.0
H409 H 0.13555 0.35133 0.12775 0.0
H410 H 0.98892 0.15418 0.09857 0.0
H411 H 0.98034 0.18981 0.08341 0.0
H412 H 0.94689 0.17455 0.10212 0.0
H413 H 0.1784 0.28362 0.10809 0.0
H414 H 0.19589 0.34481 0.11438 0.0
H415 H 0.17442 0.32208 0.093 0.0
C416 C 0.95554 0.10121 0.41675 0.0
C417 C 0.92283 0.06227 0.40554 0.0
C418 C 0.93765 0.11569 0.42973 0.0
C419 C 0.88565 0.09078 0.43139 0.0
C420 C 0.8527 0.04905 0.42084 0.0
C421 C 0.87184 0.03504 0.40802 0.0
C422 C 0.97421 0.15976 0.44091 0.0
C423 C 0.79709 0.02144 0.42231 0.0
C424 C 0.84991 0.12725 0.47083 0.0
C425 C 0.8439 0.16492 0.46517 0.0
C426 C 0.86072 0.10061 0.45979 0.0
C427 C 0.86611 0.11238 0.44275 0.0
C428 C 0.85817 0.14913 0.43685 0.0
C429 C 0.84747 0.17516 0.44816 0.0
C430 C 0.86891 0.06171 0.46653 0.0
C431 C 0.86355 0.16279 0.41876 0.0
H432 H 0.99513 0.12135 0.41506 0.0
H433 H 0.84662 0.00486 0.3993 0.0
H434 H 0.96934 0.19064 0.43809 0.0
H435 H 0.96711 0.15178 0.45426 0.0
H436 H 0.01352 0.17161 0.43915 0.0
H437 H 0.77754 0.98588 0.41503 0.0
H438 H 0.78828 0.01468 0.4356 0.0
H439 H 0.78224 0.04374 0.4175 0.0
H440 H 0.84762 0.11964 0.48402 0.0
H441 H 0.84348 0.20467 0.44379 0.0
H442 H 0.90918 0.07493 0.46683 0.0
H443 H 0.84871 0.02808 0.45825 0.0
H444 H 0.85648 0.05223 0.4794 0.0
H445 H 0.90307 0.17972 0.41586 0.0
H446 H 0.85181 0.189 0.4159 0.0
H447 H 0.84097 0.12967 0.41035 0.0
C448 C 0.94253 0.90353 0.73209 0.0
C449 C 0.91922 0.9173 0.71993 0.0
C450 C 0.91681 0.87647 0.74569 0.0
C451 C 0.86657 0.86241 0.74692 0.0
C452 C 0.84266 0.8753 0.73443 0.0
C453 C 0.86939 0.90287 0.72117 0.0
C454 C 0.9436 0.86387 0.7589 0.0
C455 C 0.78886 0.8604 0.73515 0.0
C456 C 0.77399 0.75867 0.77213 0.0
C457 C 0.76846 0.78438 0.78518 0.0
C458 C 0.80868 0.78348 0.76017 0.0
C459 C 0.83859 0.83516 0.76136 0.0
C460 C 0.83588 0.86099 0.77523 0.0
C461 C 0.80047 0.8353 0.78689 0.0
C462 C 0.81029 0.75461 0.74555 0.0
C463 C 0.8677 0.91607 0.77707 0.0
H464 H 0.98118 0.91487 0.7312 0.0
H465 H 0.85112 0.91305 0.7117 0.0
H466 H 0.94583 0.88171 0.77112 0.0
H467 H 0.92249 0.82387 0.76054 0.0
H468 H 0.982 0.87573 0.75575 0.0
H469 H 0.77533 0.87182 0.72409 0.0
H470 H 0.76468 0.82014 0.73584 0.0
H471 H 0.78455 0.87703 0.74661 0.0
H472 H 0.7491 0.7193 0.77074 0.0
H473 H 0.7962 0.85531 0.79692 0.0
H474 H 0.84936 0.76768 0.74299 0.0
H475 H 0.79237 0.75991 0.73416 0.0
H476 H 0.79045 0.71487 0.74774 0.0
H477 H 0.90697 0.92932 0.77474 0.0
H478 H 0.86674 0.9299 0.78971 0.0
H479 H 0.85395 0.93199 0.76764 0.0
C480 C 0.07102 0.94008 0.07256 0.0
C481 C 0.119 0.95515 0.06794 0.0
C482 C 0.04614 0.90159 0.08331 0.0
C483 C 0.0697 0.8774 0.08959 0.0
C484 C 0.11771 0.89172 0.08475 0.0
C485 C 0.14185 0.93049 0.07398 0.0
C486 C 0.99494 0.88742 0.08819 0.0
C487 C 0.14384 0.86658 0.09115 0.0
C488 C 0.0233 0.81445 0.13023 0.0
C489 C 0.98903 0.76609 0.1245 0.0
C490 C 0.05118 0.85072 0.11905 0.0
C491 C 0.04448 0.8383 0.10169 0.0
C492 C 0.01092 0.78924 0.09585 0.0
C493 C 0.9832 0.75376 0.10732 0.0
C494 C 0.08631 0.90268 0.12576 0.0
C495 C 0.00294 0.77458 0.07744 0.0
H496 H 0.05297 0.95877 0.06793 0.0
H497 H 0.17885 0.9418 0.07045 0.0
H498 H 0.9678 0.8481 0.08497 0.0
H499 H 0.99579 0.8929 0.10194 0.0
H500 H 0.9813 0.90909 0.08188 0.0
H501 H 0.18021 0.88071 0.08566 0.0
H502 H 0.15042 0.87188 0.10498 0.0
H503 H 0.11993 0.82665 0.08822 0.0
H504 H 0.02727 0.82414 0.14348 0.0
H505 H 0.95613 0.71656 0.10281 0.0
H506 H 0.07272 0.92611 0.12106 0.0
H507 H 0.12393 0.9174 0.12123 0.0
H508 H 0.08969 0.90566 0.13967 0.0
H509 H 0.98492 0.7917 0.07067 0.0
H510 H 0.97908 0.73432 0.07511 0.0
H511 H 0.03925 0.78792 0.07204 0.0
C512 C 0.13064 0.0569 0.39787 0.0
C513 C 0.11478 0.08648 0.4044 0.0
C514 C 0.16269 0.0473 0.40752 0.0
C515 C 0.17811 0.06675 0.42422 0.0
C516 C 0.16232 0.09678 0.43083 0.0
C517 C 0.13133 0.10671 0.42078 0.0
C518 C 0.17968 0.01604 0.39993 0.0
C519 C 0.17713 0.11743 0.44868 0.0
C520 C 0.21585 0.00467 0.45646 0.0
C521 C 0.2678 0.0376 0.45869 0.0
C522 C 0.18645 0.01299 0.4449 0.0
C523 C 0.2094 0.05463 0.43508 0.0
C524 C 0.26186 0.08649 0.43658 0.0
C525 C 0.29029 0.0777 0.44841 0.0
C526 C 0.13051 0.9783 0.44373 0.0
C527 C 0.28781 0.13081 0.42611 0.0
H528 H 0.11813 0.04138 0.38517 0.0
H529 H 0.11878 0.12919 0.42597 0.0
H530 H 0.221 0.03571 0.40107 0.0
H531 H 0.16547 0.98202 0.40683 0.0
H532 H 0.16658 0.00596 0.3865 0.0
H533 H 0.16175 0.14021 0.45189 0.0
H534 H 0.16364 0.08718 0.45744 0.0
H535 H 0.21833 0.1401 0.45076 0.0
H536 H 0.19745 0.97296 0.46397 0.0
H537 H 0.33034 0.10296 0.44993 0.0
H538 H 0.11648 0.96509 0.43055 0.0
H539 H 0.11252 0.99782 0.4479 0.0
H540 H 0.11863 0.94616 0.45154 0.0
H541 H 0.27531 0.12034 0.41268 0.0
H542 H 0.32904 0.14908 0.42756 0.0
H543 H 0.27784 0.15757 0.42985 0.0
C544 C 0.04912 0.13399 0.74705 0.0
C545 C 0.06259 0.11902 0.73284 0.0
C546 C 0.08535 0.16832 0.75896 0.0
C547 C 0.13643 0.18837 0.75663 0.0
C548 C 0.15045 0.17382 0.74229 0.0
C549 C 0.11337 0.13926 0.73057 0.0
C550 C 0.06889 0.18285 0.77411 0.0
C551 C 0.20462 0.1946 0.73938 0.0
C552 C 0.22757 0.3072 0.78124 0.0
C553 C 0.24332 0.29054 0.79491 0.0
C554 C 0.19397 0.27452 0.7684 0.0
C555 C 0.17498 0.22391 0.76942 0.0
C556 C 0.19082 0.20692 0.78316 0.0
C557 C 0.22469 0.24043 0.79575 0.0
C558 C 0.17787 0.294 0.75396 0.0
C559 C 0.17098 0.15318 0.7848 0.0
H560 H 0.01007 0.1187 0.74897 0.0
H561 H 0.12424 0.12808 0.71964 0.0
H562 H 0.08265 0.17385 0.78571 0.0
H563 H 0.08522 0.22292 0.77469 0.0
H564 H 0.02768 0.16418 0.77398 0.0
H565 H 0.20938 0.18008 0.72747 0.0
H566 H 0.22462 0.23501 0.73909 0.0
H567 H 0.22261 0.18586 0.74987 0.0
H568 H 0.24103 0.34578 0.78071 0.0
H569 H 0.23605 0.22737 0.80646 0.0
H570 H 0.1374 0.27955 0.75405 0.0
H571 H 0.1839 0.28143 0.74188 0.0
H572 H 0.19841 0.33458 0.7545 0.0
H573 H 0.13012 0.133 0.78597 0.0
H574 H 0.18872 0.14618 0.79586 0.0
H575 H 0.17731 0.13801 0.77339 0.0
C576 C 0.93816 0.10683 0.64763 0.0
C577 C 0.94932 0.11592 0.66494 0.0
C578 C 0.92295 0.13392 0.63825 0.0
C579 C 0.91999 0.17136 0.64643 0.0
C580 C 0.9355 0.18323 0.66365 0.0
C581 C 0.94925 0.15484 0.67275 0.0
C582 C 0.90611 0.11972 0.61998 0.0
C583 C 0.93414 0.22362 0.67278 0.0
C584 C 0.89816 0.26154 0.6234 0.0
C585 C 0.84808 0.24334 0.62624 0.0
C586 C 0.92195 0.23759 0.62933 0.0
C587 C 0.89453 0.19373 0.63782 0.0
C588 C 0.8431 0.17349 0.63966 0.0
C589 C 0.8207 0.19882 0.63402 0.0
C590 C 0.97691 0.26055 0.62729 0.0
C591 C 0.81212 0.1261 0.64825 0.0
H592 H 0.93778 0.07633 0.64167 0.0
H593 H 0.95811 0.16185 0.68616 0.0
H594 H 0.86477 0.09924 0.6185 0.0
H595 H 0.92026 0.15256 0.61242 0.0
H596 H 0.91865 0.09619 0.61487 0.0
H597 H 0.95385 0.23261 0.68545 0.0
H598 H 0.95138 0.25718 0.66552 0.0
H599 H 0.89482 0.21219 0.67418 0.0
H600 H 0.91918 0.29541 0.61706 0.0
H601 H 0.78178 0.18416 0.63598 0.0
H602 H 0.98447 0.23304 0.62239 0.0
H603 H 0.99784 0.27452 0.6397 0.0
H604 H 0.99147 0.29141 0.61875 0.0
H605 H 0.81759 0.09749 0.64299 0.0
H606 H 0.77171 0.1126 0.64696 0.0
H607 H 0.82427 0.13152 0.66178 0.0
C608 C 0.9926 0.98507 0.00642 0.0
C609 C 0.02521 0.02821 -0.00145 0.0
C610 C 0.9475 0.94836 0.99814 0.0
C611 C 0.93505 0.95458 0.98149 0.0
C612 C 0.96794 0.99791 0.97343 0.0
C613 C 0.01243 0.03436 0.9821 0.0
C614 C 0.91312 0.903 0.00723 0.0
C615 C 0.95631 0.00561 0.9556 0.0
C616 C 0.84108 0.8431 0.95388 0.0
C617 C 0.79825 0.84561 0.9541 0.0
C618 C 0.88566 0.87784 0.96295 0.0
C619 C 0.88743 0.91596 0.9725 0.0
C620 C 0.84404 0.91808 0.97305 0.0
C621 C 0.80013 0.88312 0.96375 0.0
C622 C 0.93124 0.87455 0.96195 0.0
C623 C 0.8443 0.95793 0.98317 0.0
H624 H 0.00213 0.98012 0.01916 0.0
H625 H 0.0377 0.06733 0.97586 0.0
H626 H 0.87611 0.89876 0.00772 0.0
H627 H 0.90719 0.87016 0.00033 0.0
H628 H 0.92801 0.90401 0.02023 0.0
H629 H 0.98621 0.04095 0.95103 0.0
H630 H 0.95127 0.97554 0.9472 0.0
H631 H 0.92081 0.00475 0.95461 0.0
H632 H 0.83996 0.81457 0.94625 0.0
H633 H 0.76735 0.88562 0.96378 0.0
H634 H 0.94606 0.87336 0.9747 0.0
H635 H 0.96101 0.90761 0.95622 0.0
H636 H 0.92325 0.84176 0.95443 0.0
H637 H 0.85767 0.95888 0.99636 0.0
H638 H 0.80678 0.9529 0.983 0.0
H639 H 0.87045 0.994 0.97811 0.0
C640 C 0.99813 0.92324 0.33162 0.0
C641 C 0.97901 0.91417 0.34748 0.0
C642 C 0.00192 0.88785 0.3227 0.0
C643 C 0.98605 0.84226 0.32977 0.0
C644 C 0.96619 0.83266 0.34568 0.0
C645 C 0.96301 0.86877 0.35435 0.0
C646 C 0.02342 0.89942 0.30578 0.0
C647 C 0.9487 0.78439 0.3536 0.0
C648 C 0.95687 0.7332 0.30181 0.0
C649 C 0.00029 0.73204 0.30471 0.0
C650 C 0.95201 0.76938 0.30966 0.0
C651 C 0.99137 0.80498 0.32076 0.0
C652 C 0.0354 0.80417 0.32364 0.0
C653 C 0.03922 0.76757 0.31564 0.0
C654 C 0.90442 0.76896 0.30633 0.0
C655 C 0.07816 0.84148 0.3354 0.0
H656 H 0.0106 0.95823 0.32622 0.0
H657 H 0.94804 0.86137 0.36657 0.0
H658 H 0.0575 0.8977 0.3061 0.0
H659 H 0.99631 0.87177 0.29615 0.0
H660 H 0.03315 0.93623 0.30189 0.0
H661 H 0.93306 0.78225 0.36586 0.0
H662 H 0.91973 0.75391 0.34514 0.0
H663 H 0.98025 0.7788 0.35552 0.0
H664 H 0.92643 0.70531 0.29356 0.0
H665 H 0.07252 0.76635 0.3181 0.0
H666 H 0.91294 0.80478 0.30178 0.0
H667 H 0.88567 0.76326 0.31814 0.0
H668 H 0.87806 0.73979 0.29693 0.0
H669 H 0.09074 0.87895 0.33148 0.0
H670 H 0.11047 0.83677 0.33584 0.0
H671 H 0.06561 0.83846 0.34824 0.0
C672 C 0.15789 0.06387 0.65661 0.0
C673 C 0.13643 0.02695 0.66814 0.0
C674 C 0.20127 0.0743 0.64904 0.0
C675 C 0.22381 0.04749 0.65326 0.0
C676 C 0.20288 0.01098 0.66516 0.0
C677 C 0.1594 0.00104 0.67238 0.0
C678 C 0.22244 0.11325 0.6363 0.0
C679 C 0.22609 0.98194 0.67015 0.0
C680 C 0.30573 0.03188 0.62438 0.0
C681 C 0.35362 0.06528 0.63177 0.0
C682 C 0.2633 0.02772 0.6307 0.0
C683 C 0.26873 0.05652 0.64506 0.0
C684 C 0.31694 0.09069 0.65246 0.0
C685 C 0.35877 0.09475 0.64568 0.0
C686 C 0.21252 0.99114 0.62238 0.0
C687 C 0.32421 0.12133 0.66798 0.0
H688 H 0.14026 0.08395 0.65325 0.0
H689 H 0.14329 0.97266 0.68137 0.0
H690 H 0.26198 0.14116 0.64008 0.0
H691 H 0.22171 0.09669 0.62399 0.0
H692 H 0.20134 0.13174 0.63474 0.0
H693 H 0.20625 0.95614 0.68008 0.0
H694 H 0.22561 0.96069 0.6591 0.0
H695 H 0.26566 0.00699 0.67476 0.0
H696 H 0.30122 0.00827 0.61383 0.0
H697 H 0.39566 0.11998 0.65157 0.0
H698 H 0.19078 0.00863 0.61993 0.0
H699 H 0.19148 0.96092 0.63086 0.0
H700 H 0.21498 0.97531 0.61037 0.0
H701 H 0.3042 0.14075 0.6661 0.0
H702 H 0.3642 0.14868 0.67146 0.0
H703 H 0.30819 0.09726 0.67863 0.0
C704 C 0.27524 0.17325 0.99338 0.0
C705 C 0.22825 0.13116 0.99472 0.0
C706 C 0.2857 0.201 0.97911 0.0
C707 C 0.24761 0.18676 0.96617 0.0
C708 C 0.20157 0.14174 0.96684 0.0
C709 C 0.1925 0.11423 0.98116 0.0
C710 C 0.33553 0.24832 0.97879 0.0
C711 C 0.15982 0.12536 0.9534 0.0
C712 C 0.24571 0.29223 0.94661 0.0
C713 C 0.26575 0.2947 0.93124 0.0
C714 C 0.2389 0.25667 0.95792 0.0
C715 C 0.25276 0.22288 0.95378 0.0
C716 C 0.27268 0.22493 0.93821 0.0
C717 C 0.27871 0.26073 0.92707 0.0
C718 C 0.21713 0.25551 0.97435 0.0
C719 C 0.28799 0.18965 0.93343 0.0
H720 H 0.30242 0.18664 0.00407 0.0
H721 H 0.15574 0.0822 0.98244 0.0
H722 H 0.34991 0.25345 0.96617 0.0
H723 H 0.33107 0.27939 0.98175 0.0
H724 H 0.36365 0.24971 0.9881 0.0
H725 H 0.13051 0.08607 0.95415 0.0
H726 H 0.14233 0.14708 0.95492 0.0
H727 H 0.17416 0.13158 0.94075 0.0
H728 H 0.23529 0.31822 0.94976 0.0
H729 H 0.29384 0.26238 0.91511 0.0
H730 H 0.24441 0.262 0.98493 0.0
H731 H 0.18327 0.21894 0.97573 0.0
H732 H 0.20699 0.28347 0.97542 0.0
H733 H 0.31791 0.19398 0.94253 0.0
H734 H 0.30169 0.19532 0.92067 0.0
H735 H 0.25598 0.15148 0.93393 0.0
C736 C 0.10095 0.23666 0.33656 0.0
C737 C 0.08403 0.18669 0.33564 0.0
C738 C 0.10949 0.26312 0.32204 0.0
C739 C 0.10157 0.2392 0.30626 0.0
C740 C 0.09118 0.19086 0.30543 0.0
C741 C 0.0819 0.16482 0.32013 0.0
C742 C 0.12221 0.31515 0.32366 0.0
C743 C 0.08695 0.16564 0.2889 0.0
C744 C 0.01527 0.26058 0.2653 0.0
C745 C 0.06912 0.3182 0.25832 0.0
C746 C 0.02937 0.23551 0.28319 0.0
C747 C 0.09339 0.26013 0.29104 0.0
C748 C 0.14563 0.30799 0.28067 0.0
C749 C 0.1351 0.33556 0.26266 0.0
C750 C 0.98739 0.19587 0.29201 0.0
C751 C 0.19782 0.32503 0.28681 0.0
H752 H 0.10398 0.25442 0.34852 0.0
H753 H 0.07032 0.12664 0.31928 0.0
H754 H 0.15117 0.33858 0.31512 0.0
H755 H 0.08831 0.31606 0.32026 0.0
H756 H 0.13592 0.3309 0.33665 0.0
H757 H 0.09238 0.13462 0.29065 0.0
H758 H 0.04933 0.15103 0.28264 0.0
H759 H 0.11484 0.19176 0.28049 0.0
H760 H 0.97722 0.24937 0.26154 0.0
H761 H 0.16567 0.36653 0.25707 0.0
H762 H 0.99732 0.19984 0.30569 0.0
H763 H 0.97989 0.15998 0.28736 0.0
H764 H 0.95315 0.19679 0.28941 0.0
H765 H 0.21483 0.36148 0.2933 0.0
H766 H 0.21999 0.32925 0.276 0.0
H767 H 0.19869 0.29911 0.29561 0.0
loop_
_geom_bond_atom_site_label_1
_geom_bond_atom_site_label_2
_geom_bond_distance
_geom_bond_site_symmetry_2
_ccdc_geom_bond_type
Mg0 O1 2.028 . S
Mg0 O7 1.986 . S
Mg0 O9 2.114 . S
Mg0 O10 2.251 . S
Mg0 O13 2.010 . S
O1 Mg0 2.028 . S
O1 C4 1.250 . S
O2 Mg3 2.028 . S
O2 C4 1.248 . S
Mg3 O2 2.028 . S
Mg3 O8 2.032 . S
Mg3 O10 2.079 . S
C4 O1 1.250 . S
C4 O2 1.248 . S
C5 O6 1.264 . S
C5 O13 1.249 . S
O6 C5 1.264 . S
O7 Mg0 1.986 . S
O7 C11 1.246 . S
O8 Mg3 2.032 . S
O8 C11 1.259 . S
O9 Mg0 2.114 . S
O9 C12 1.252 . S
O10 Mg0 2.251 . S
O10 Mg3 2.079 . S
O10 C12 1.273 . S
C11 O7 1.246 . S
C11 O8 1.259 . S
C12 O9 1.252 . S
C12 O10 1.273 . S
O13 Mg0 2.010 . S
O13 C5 1.249 . S
Mg14 O15 2.028 1_655 S
Mg14 O21 1.986 1_655 S
Mg14 O23 2.115 . S
Mg14 O24 2.251 . S
Mg14 O27 2.010 1_545 S
O15 Mg14 2.028 1_455 S
O15 C18 1.250 . S
O16 Mg17 2.028 . S
O16 C18 1.248 . S
Mg17 O16 2.028 . S
Mg17 O22 2.032 . S
Mg17 O24 2.079 1_455 S
C18 O15 1.250 . S
C18 O16 1.248 . S
C19 O20 1.264 . S
C19 O27 1.249 . S
O20 C19 1.264 . S
O21 Mg14 1.986 1_455 S
O21 C25 1.246 . S
O22 Mg17 2.032 . S
O22 C25 1.259 . S
O23 Mg14 2.115 . S
O23 C26 1.258 . S
O24 Mg14 2.251 . S
O24 Mg17 2.079 1_655 S
O24 C26 1.273 . S
C25 O21 1.246 . S
C25 O22 1.259 . S
C26 O23 1.258 . S
C26 O24 1.273 . S
O27 Mg14 2.010 1_565 S
O27 C19 1.249 . S
Mg28 O29 2.028 . S
Mg28 O35 1.986 . S
Mg28 O37 2.114 1_545 S
Mg28 O38 2.251 1_455 S
Mg28 O41 2.010 . S
O29 Mg28 2.028 . S
O29 C32 1.250 . S
O30 Mg31 2.028 1_455 S
O30 C32 1.248 . S
Mg31 O30 2.028 1_655 S
Mg31 O36 2.032 . S
Mg31 O38 2.079 . S
C32 O29 1.250 . S
C32 O30 1.248 . S
C33 O34 1.264 1_545 S
C33 O41 1.249 . S
O34 C33 1.264 1_565 S
O35 Mg28 1.986 . S
O35 C39 1.246 1_455 S
O36 Mg31 2.032 . S
O36 C39 1.259 . S
O37 Mg28 2.114 1_565 S
O37 C40 1.252 1_455 S
O38 Mg28 2.251 1_655 S
O38 Mg31 2.079 . S
O38 C40 1.273 1_545 S
C39 O35 1.246 1_655 S
C39 O36 1.259 . S
C40 O37 1.252 1_655 S
C40 O38 1.273 1_565 S
O41 Mg28 2.010 . S
O41 C33 1.249 . S
C42 C43 1.560 1_655 S
C42 H103 0.959 . S
C42 H104 0.959 . S
C42 H105 0.960 . S
C43 C42 1.560 1_455 S
C43 O98 1.426 1_455 S
C43 H102 0.980 . S
C44 C45 1.407 . S
C44 C49 1.418 1_455 S
C44 O98 1.334 1_455 S
C45 C44 1.407 . S
C45 C46 1.360 . S
C45 H106 0.929 . S
C46 C45 1.360 . S
C46 C47 1.401 . S
C46 C50 1.527 . S
C47 C46 1.401 . S
C47 C48 1.405 1_455 S
C47 C80 1.587 . S
C48 C47 1.405 1_655 S
C48 C49 1.332 . S
C48 C51 1.496 . S
C49 C44 1.418 1_655 S
C49 C48 1.332 . S
C49 H107 0.929 . S
C50 C46 1.527 . S
C50 H108 0.959 . S
C50 H109 0.961 . S
C50 H110 0.961 . S
C51 C48 1.496 . S
C51 H111 0.960 . S
C51 H112 0.960 . S
C51 H113 0.961 . S
C52 C53 1.517 . S
C52 H115 0.961 . S
C52 H116 0.960 . S
C52 H117 0.959 . S
C53 C52 1.517 . S
C53 O101 1.468 . S
C53 H114 0.980 . S
C54 C55 1.349 . S
C54 C59 1.367 . S
C54 O101 1.408 . S
C55 C54 1.349 . S
C55 C56 1.407 . S
C55 H118 0.930 . S
C56 C55 1.407 . S
C56 C57 1.449 . S
C56 C60 1.535 1_455 S
C57 C56 1.449 . S
C57 C58 1.384 . S
C57 C82 1.553 . S
C58 C57 1.384 . S
C58 C59 1.364 . S
C58 C61 1.450 . S
C59 C54 1.367 . S
C59 C58 1.364 . S
C59 H119 0.931 . S
C60 C56 1.535 1_655 S
C60 H120 0.959 . S
C60 H121 0.961 . S
C60 H122 0.959 . S
C61 C58 1.450 . S
C61 H123 0.960 . S
C61 H124 0.960 . S
C61 H125 0.960 . S
C62 C63 1.309 . S
C62 C67 1.304 . S
C62 O100 1.435 . S
C63 C62 1.309 . S
C63 C64 1.476 . S
C63 H127 0.930 . S
C64 C63 1.476 . S
C64 C65 1.400 . S
C64 C68 1.567 1_455 S
C65 C64 1.400 . S
C65 C66 1.373 . S
C65 C87 1.432 . S
C66 C65 1.373 . S
C66 C67 1.339 . S
C66 C69 1.530 . S
C67 C62 1.304 . S
C67 C66 1.339 . S
C67 H128 0.930 . S
C68 C64 1.567 1_655 S
C68 H129 0.961 . S
C68 H130 0.960 . S
C68 H131 0.958 . S
C69 C66 1.530 . S
C69 H132 0.961 . S
C69 H133 0.960 . S
C69 H134 0.960 . S
C70 C71 1.530 . S
C70 H136 0.961 . S
C70 H137 0.961 1_455 S
C70 H138 0.959 1_455 S
C71 C70 1.530 . S
C71 O99 1.412 . S
C71 H135 0.980 . S
C72 C73 1.288 1_455 S
C72 C77 1.377 . S
C72 O99 1.393 . S
C73 C72 1.288 1_655 S
C73 C74 1.369 1_655 S
C73 H139 0.932 . S
C74 C73 1.369 1_455 S
C74 C75 1.398 . S
C74 C78 1.527 1_455 S
C75 C74 1.398 . S
C75 C76 1.380 . S
C75 C89 1.497 . S
C76 C75 1.380 . S
C76 C77 1.383 . S
C76 C79 1.603 . S
C77 C72 1.377 . S
C77 C76 1.383 . S
C77 H140 0.929 . S
C78 C74 1.527 1_655 S
C78 H141 0.961 . S
C78 H142 0.959 . S
C78 H143 0.959 . S
C79 C76 1.603 . S
C79 H144 0.960 . S
C79 H145 0.962 . S
C79 H146 0.961 . S
C80 C47 1.587 . S
C80 C81 1.360 . S
C80 C93 1.412 . S
C81 C80 1.360 . S
C81 C82 1.365 . S
C81 H147 0.929 . S
C82 C57 1.553 . S
C82 C81 1.365 . S
C82 C83 1.404 . S
C83 C82 1.404 . S
C83 C84 1.395 . S
C83 C94 1.451 . S
C84 C83 1.395 . S
C84 C85 1.322 . S
C84 H148 0.930 . S
C85 C84 1.322 . S
C85 C86 1.459 . S
C85 H149 0.929 . S
C86 C85 1.459 . S
C86 C87 1.445 . S
C86 C95 1.395 . S
C87 C65 1.432 . S
C87 C86 1.445 . S
C87 C88 1.370 . S
C88 C87 1.370 . S
C88 C89 1.438 . S
C88 H150 0.930 . S
C89 C75 1.497 . S
C89 C88 1.438 . S
C89 C90 1.360 . S
C90 C89 1.360 . S
C90 C91 1.401 . S
C90 C95 1.446 . S
C91 C90 1.401 . S
C91 C92 1.347 . S
C91 H151 0.929 . S
C92 C91 1.347 . S
C92 C93 1.455 . S
C92 H152 0.930 . S
C93 C80 1.412 . S
C93 C92 1.455 . S
C93 C94 1.331 . S
C94 C83 1.451 . S
C94 C93 1.331 . S
C94 C95 1.497 . S
C95 C86 1.395 . S
C95 C90 1.446 . S
C95 C94 1.497 . S
C96 C97 1.582 . S
C96 H153 0.962 . S
C96 H154 0.959 . S
C96 H155 0.958 . S
C97 C96 1.582 . S
C97 O100 1.458 . S
C97 H126 0.980 . S
O98 C43 1.426 1_655 S
O98 C44 1.334 1_655 S
O99 C71 1.412 . S
O99 C72 1.393 . S
O100 C62 1.435 . S
O100 C97 1.458 . S
O101 C53 1.468 . S
O101 C54 1.408 . S
H102 C43 0.980 . S
H103 C42 0.959 . S
H104 C42 0.959 . S
H105 C42 0.960 . S
H106 C45 0.929 . S
H107 C49 0.929 . S
H108 C50 0.959 . S
H109 C50 0.961 . S
H110 C50 0.961 . S
H111 C51 0.960 . S
H112 C51 0.960 . S
H113 C51 0.961 . S
H114 C53 0.980 . S
H115 C52 0.961 . S
H116 C52 0.960 . S
H117 C52 0.959 . S
H118 C55 0.930 . S
H119 C59 0.931 . S
H120 C60 0.959 . S
H121 C60 0.961 . S
H122 C60 0.959 . S
H123 C61 0.960 . S
H124 C61 0.960 . S
H125 C61 0.960 . S
H126 C97 0.980 . S
H127 C63 0.930 . S
H128 C67 0.930 . S
H129 C68 0.961 . S
H130 C68 0.960 . S
H131 C68 0.958 . S
H132 C69 0.961 . S
H133 C69 0.960 . S
H134 C69 0.960 . S
H135 C71 0.980 . S
H136 C70 0.961 . S
H137 C70 0.961 1_655 S
H138 C70 0.959 1_655 S
H139 C73 0.932 . S
H140 C77 0.929 . S
H141 C78 0.961 . S
H142 C78 0.959 . S
H143 C78 0.959 . S
H144 C79 0.960 . S
H145 C79 0.962 . S
H146 C79 0.961 . S
H147 C81 0.929 . S
H148 C84 0.930 . S
H149 C85 0.929 . S
H150 C88 0.930 . S
H151 C91 0.929 . S
H152 C92 0.930 . S
H153 C96 0.962 . S
H154 C96 0.959 . S
H155 C96 0.958 . S
C156 C157 1.560 . S
C156 H217 0.959 . S
C156 H218 0.959 . S
C156 H219 0.960 . S
C157 C156 1.560 . S
C157 O212 1.426 . S
C157 H216 0.980 . S
C158 C159 1.407 . S
C158 C163 1.418 . S
C158 O212 1.334 . S
C159 C158 1.407 . S
C159 C160 1.360 . S
C159 H220 0.929 . S
C160 C159 1.360 . S
C160 C161 1.401 . S
C160 C164 1.527 . S
C161 C160 1.401 . S
C161 C162 1.405 . S
C161 C194 1.587 . S
C162 C161 1.405 . S
C162 C163 1.332 . S
C162 C165 1.496 . S
C163 C158 1.418 . S
C163 C162 1.332 . S
C163 H221 0.929 1_545 S
C164 C160 1.527 . S
C164 H222 0.959 . S
C164 H223 0.961 . S
C164 H224 0.961 . S
C165 C162 1.496 . S
C165 H225 0.960 1_545 S
C165 H226 0.960 . S
C165 H227 0.961 . S
C166 C167 1.517 . S
C166 H229 0.961 . S
C166 H230 0.960 . S
C166 H231 0.959 . S
C167 C166 1.517 . S
C167 O215 1.468 . S
C167 H228 0.980 . S
C168 C169 1.349 . S
C168 C173 1.367 . S
C168 O215 1.408 . S
C169 C168 1.349 . S
C169 C170 1.407 . S
C169 H232 0.930 . S
C170 C169 1.407 . S
C170 C171 1.449 . S
C170 C174 1.535 . S
C171 C170 1.449 . S
C171 C172 1.384 . S
C171 C196 1.553 . S
C172 C171 1.384 . S
C172 C173 1.364 . S
C172 C175 1.450 . S
C173 C168 1.367 . S
C173 C172 1.364 . S
C173 H233 0.931 . S
C174 C170 1.535 . S
C174 H234 0.959 . S
C174 H235 0.961 . S
C174 H236 0.959 . S
C175 C172 1.450 . S
C175 H237 0.960 . S
C175 H238 0.960 . S
C175 H239 0.960 . S
C176 C177 1.309 . S
C176 C181 1.304 . S
C176 O214 1.435 . S
C177 C176 1.309 . S
C177 C178 1.476 . S
C177 H241 0.930 . S
C178 C177 1.476 . S
C178 C179 1.400 . S
C178 C182 1.567 . S
C179 C178 1.400 . S
C179 C180 1.373 . S
C179 C201 1.432 . S
C180 C179 1.373 . S
C180 C181 1.339 . S
C180 C183 1.530 . S
C181 C176 1.304 . S
C181 C180 1.339 . S
C181 H242 0.930 . S
C182 C178 1.567 . S
C182 H243 0.961 . S
C182 H244 0.960 . S
C182 H245 0.958 . S
C183 C180 1.530 . S
C183 H246 0.961 . S
C183 H247 0.960 . S
C183 H248 0.960 . S
C184 C185 1.530 . S
C184 H250 0.961 . S
C184 H251 0.961 . S
C184 H252 0.959 . S
C185 C184 1.530 . S
C185 O213 1.412 . S
C185 H249 0.980 . S
C186 C187 1.288 . S
C186 C191 1.377 . S
C186 O213 1.393 . S
C187 C186 1.288 . S
C187 C188 1.369 . S
C187 H253 0.932 1_545 S
C188 C187 1.369 . S
C188 C189 1.398 . S
C188 C192 1.527 1_545 S
C189 C188 1.398 . S
C189 C190 1.380 . S
C189 C203 1.497 . S
C190 C189 1.380 . S
C190 C191 1.383 . S
C190 C193 1.603 . S
C191 C186 1.377 . S
C191 C190 1.383 . S
C191 H254 0.929 . S
C192 C188 1.527 1_565 S
C192 H255 0.961 1_565 S
C192 H256 0.959 . S
C192 H257 0.959 . S
C193 C190 1.603 . S
C193 H258 0.960 . S
C193 H259 0.962 . S
C193 H260 0.961 . S
C194 C161 1.587 . S
C194 C195 1.360 . S
C194 C207 1.412 . S
C195 C194 1.360 . S
C195 C196 1.365 . S
C195 H261 0.929 . S
C196 C171 1.553 . S
C196 C195 1.365 . S
C196 C197 1.404 . S
C197 C196 1.404 . S
C197 C198 1.395 . S
C197 C208 1.451 . S
C198 C197 1.395 . S
C198 C199 1.322 . S
C198 H262 0.930 . S
C199 C198 1.322 . S
C199 C200 1.459 . S
C199 H263 0.929 . S
C200 C199 1.459 . S
C200 C201 1.445 . S
C200 C209 1.395 . S
C201 C179 1.432 . S
C201 C200 1.445 . S
C201 C202 1.370 . S
C202 C201 1.370 . S
C202 C203 1.438 . S
C202 H264 0.930 . S
C203 C189 1.497 . S
C203 C202 1.438 . S
C203 C204 1.360 . S
C204 C203 1.360 . S
C204 C205 1.401 . S
C204 C209 1.446 . S
C205 C204 1.401 . S
C205 C206 1.347 . S
C205 H265 0.929 . S
C206 C205 1.347 . S
C206 C207 1.455 . S
C206 H266 0.930 . S
C207 C194 1.412 . S
C207 C206 1.455 . S
C207 C208 1.331 . S
C208 C197 1.451 . S
C208 C207 1.331 . S
C208 C209 1.497 . S
C209 C200 1.395 . S
C209 C204 1.446 . S
C209 C208 1.497 . S
C210 C211 1.582 . S
C210 H267 0.962 . S
C210 H268 0.959 . S
C210 H269 0.958 . S
C211 C210 1.582 . S
C211 O214 1.458 . S
C211 H240 0.980 . S
O212 C157 1.426 . S
O212 C158 1.334 . S
O213 C185 1.412 . S
O213 C186 1.393 . S
O214 C176 1.435 . S
O214 C211 1.458 . S
O215 C167 1.468 . S
O215 C168 1.408 . S
H216 C157 0.980 . S
H217 C156 0.959 . S
H218 C156 0.959 . S
H219 C156 0.960 . S
H220 C159 0.929 . S
H221 C163 0.929 1_565 S
H222 C164 0.959 . S
H223 C164 0.961 . S
H224 C164 0.961 . S
H225 C165 0.960 1_565 S
H226 C165 0.960 . S
H227 C165 0.961 . S
H228 C167 0.980 . S
H229 C166 0.961 . S
H230 C166 0.960 . S
H231 C166 0.959 . S
H232 C169 0.930 . S
H233 C173 0.931 . S
H234 C174 0.959 . S
H235 C174 0.961 . S
H236 C174 0.959 . S
H237 C175 0.960 . S
H238 C175 0.960 . S
H239 C175 0.960 . S
H240 C211 0.980 . S
H241 C177 0.930 . S
H242 C181 0.930 . S
H243 C182 0.961 . S
H244 C182 0.960 . S
H245 C182 0.958 . S
H246 C183 0.961 . S
H247 C183 0.960 . S
H248 C183 0.960 . S
H249 C185 0.980 . S
H250 C184 0.961 . S
H251 C184 0.961 . S
H252 C184 0.959 . S
H253 C187 0.932 1_565 S
H254 C191 0.929 . S
H255 C192 0.961 1_545 S
H256 C192 0.959 . S
H257 C192 0.959 . S
H258 C193 0.960 . S
H259 C193 0.962 . S
H260 C193 0.961 . S
H261 C195 0.929 . S
H262 C198 0.930 . S
H263 C199 0.929 . S
H264 C202 0.930 . S
H265 C205 0.929 . S
H266 C206 0.930 . S
H267 C210 0.962 . S
H268 C210 0.959 . S
H269 C210 0.958 . S
C270 C271 1.560 . S
C270 H331 0.959 . S
C270 H332 0.959 . S
C270 H333 0.960 . S
C271 C270 1.560 . S
C271 O326 1.426 . S
C271 H330 0.980 . S
C272 C273 1.407 . S
C272 C277 1.418 . S
C272 O326 1.334 . S
C273 C272 1.407 . S
C273 C274 1.360 . S
C273 H334 0.929 . S
C274 C273 1.360 . S
C274 C275 1.401 . S
C274 C278 1.527 . S
C275 C274 1.401 . S
C275 C276 1.405 . S
C275 C308 1.587 . S
C276 C275 1.405 . S
C276 C277 1.332 . S
C276 C279 1.496 . S
C277 C272 1.418 . S
C277 C276 1.332 . S
C277 H335 0.929 . S
C278 C274 1.527 . S
C278 H336 0.959 . S
C278 H337 0.961 . S
C278 H338 0.961 . S
C279 C276 1.496 . S
C279 H339 0.960 . S
C279 H340 0.960 . S
C279 H341 0.961 . S
C280 C281 1.517 . S
C280 H343 0.961 . S
C280 H344 0.960 . S
C280 H345 0.959 . S
C281 C280 1.517 . S
C281 O329 1.468 . S
C281 H342 0.980 . S
C282 C283 1.349 . S
C282 C287 1.367 . S
C282 O329 1.408 . S
C283 C282 1.349 . S
C283 C284 1.407 . S
C283 H346 0.930 . S
C284 C283 1.407 . S
C284 C285 1.449 . S
C284 C288 1.535 . S
C285 C284 1.449 . S
C285 C286 1.384 . S
C285 C310 1.553 . S
C286 C285 1.384 . S
C286 C287 1.364 . S
C286 C289 1.450 . S
C287 C282 1.367 . S
C287 C286 1.364 . S
C287 H347 0.931 . S
C288 C284 1.535 . S
C288 H348 0.959 . S
C288 H349 0.961 . S
C288 H350 0.959 . S
C289 C286 1.450 . S
C289 H351 0.960 . S
C289 H352 0.960 . S
C289 H353 0.960 . S
C290 C291 1.309 . S
C290 C295 1.304 . S
C290 O328 1.435 . S
C291 C290 1.309 . S
C291 C292 1.476 . S
C291 H355 0.930 . S
C292 C291 1.476 . S
C292 C293 1.400 . S
C292 C296 1.567 . S
C293 C292 1.400 . S
C293 C294 1.373 . S
C293 C315 1.432 . S
C294 C293 1.373 . S
C294 C295 1.339 . S
C294 C297 1.530 . S
C295 C290 1.304 . S
C295 C294 1.339 . S
C295 H356 0.930 . S
C296 C292 1.567 . S
C296 H357 0.961 . S
C296 H358 0.960 . S
C296 H359 0.958 . S
C297 C294 1.530 . S
C297 H360 0.961 . S
C297 H361 0.960 . S
C297 H362 0.960 . S
C298 C299 1.530 . S
C298 H364 0.961 . S
C298 H365 0.961 . S
C298 H366 0.959 . S
C299 C298 1.530 . S
C299 O327 1.412 . S
C299 H363 0.980 . S
C300 C301 1.288 . S
C300 C305 1.377 . S
C300 O327 1.393 . S
C301 C300 1.288 . S
C301 C302 1.369 . S
C301 H367 0.932 . S
C302 C301 1.369 . S
C302 C303 1.398 . S
C302 C306 1.527 . S
C303 C302 1.398 . S
C303 C304 1.380 . S
C303 C317 1.497 . S
C304 C303 1.380 . S
C304 C305 1.383 . S
C304 C307 1.603 . S
C305 C300 1.377 . S
C305 C304 1.383 . S
C305 H368 0.929 . S
C306 C302 1.527 . S
C306 H369 0.961 . S
C306 H370 0.959 . S
C306 H371 0.959 . S
C307 C304 1.603 . S
C307 H372 0.960 . S
C307 H373 0.962 . S
C307 H374 0.961 . S
C308 C275 1.587 . S
C308 C309 1.360 . S
C308 C321 1.412 . S
C309 C308 1.360 . S
C309 C310 1.365 . S
C309 H375 0.929 . S
C310 C285 1.553 . S
C310 C309 1.365 . S
C310 C311 1.404 . S
C311 C310 1.404 . S
C311 C312 1.395 . S
C311 C322 1.451 . S
C312 C311 1.395 . S
C312 C313 1.322 . S
C312 H376 0.930 . S
C313 C312 1.322 . S
C313 C314 1.459 . S
C313 H377 0.929 . S
C314 C313 1.459 . S
C314 C315 1.445 . S
C314 C323 1.395 . S
C315 C293 1.432 . S
C315 C314 1.445 . S
C315 C316 1.370 . S
C316 C315 1.370 . S
C316 C317 1.438 . S
C316 H378 0.930 . S
C317 C303 1.497 . S
C317 C316 1.438 . S
C317 C318 1.360 . S
C318 C317 1.360 . S
C318 C319 1.401 . S
C318 C323 1.446 . S
C319 C318 1.401 . S
C319 C320 1.347 . S
C319 H379 0.929 . S
C320 C319 1.347 . S
C320 C321 1.455 . S
C320 H380 0.930 . S
C321 C308 1.412 . S
C321 C320 1.455 . S
C321 C322 1.331 . S
C322 C311 1.451 . S
C322 C321 1.331 . S
C322 C323 1.497 . S
C323 C314 1.395 . S
C323 C318 1.446 . S
C323 C322 1.497 . S
C324 C325 1.582 . S
C324 H381 0.962 . S
C324 H382 0.959 . S
C324 H383 0.958 . S
C325 C324 1.582 . S
C325 O328 1.458 . S
C325 H354 0.980 . S
O326 C271 1.426 . S
O326 C272 1.334 . S
O327 C299 1.412 . S
O327 C300 1.393 . S
O328 C290 1.435 . S
O328 C325 1.458 . S
O329 C281 1.468 . S
O329 C282 1.408 . S
H330 C271 0.980 . S
H331 C270 0.959 . S
H332 C270 0.959 . S
H333 C270 0.960 . S
H334 C273 0.929 . S
H335 C277 0.929 . S
H336 C278 0.959 . S
H337 C278 0.961 . S
H338 C278 0.961 . S
H339 C279 0.960 . S
H340 C279 0.960 . S
H341 C279 0.961 . S
H342 C281 0.980 . S
H343 C280 0.961 . S
H344 C280 0.960 . S
H345 C280 0.959 . S
H346 C283 0.930 . S
H347 C287 0.931 . S
H348 C288 0.959 . S
H349 C288 0.961 . S
H350 C288 0.959 . S
H351 C289 0.960 . S
H352 C289 0.960 . S
H353 C289 0.960 . S
H354 C325 0.980 . S
H355 C291 0.930 . S
H356 C295 0.930 . S
H357 C296 0.961 . S
H358 C296 0.960 . S
H359 C296 0.958 . S
H360 C297 0.961 . S
H361 C297 0.960 . S
H362 C297 0.960 . S
H363 C299 0.980 . S
H364 C298 0.961 . S
H365 C298 0.961 . S
H366 C298 0.959 . S
H367 C301 0.932 . S
H368 C305 0.929 . S
H369 C306 0.961 . S
H370 C306 0.959 . S
H371 C306 0.959 . S
H372 C307 0.960 . S
H373 C307 0.962 . S
H374 C307 0.961 . S
H375 C309 0.929 . S
H376 C312 0.930 . S
H377 C313 0.929 . S
H378 C316 0.930 . S
H379 C319 0.929 . S
H380 C320 0.930 . S
H381 C324 0.962 . S
H382 C324 0.959 . S
H383 C324 0.958 . S
C384 C385 1.391 . S
C384 C386 1.394 . S
C384 H400 0.931 1_455 S
C385 C384 1.391 . S
C385 C389 1.376 . S
C386 C384 1.394 . S
C386 C387 1.369 . S
C386 C390 1.531 1_455 S
C387 C386 1.369 . S
C387 C388 1.410 . S
C387 C395 1.503 . S
C388 C387 1.410 . S
C388 C389 1.392 . S
C388 C391 1.511 . S
C389 C385 1.376 . S
C389 C388 1.392 . S
C389 H401 0.929 . S
C390 C386 1.531 1_655 S
C390 H402 0.960 . S
C390 H403 0.962 . S
C390 H404 0.960 . S
C391 C388 1.511 . S
C391 H405 0.961 . S
C391 H406 0.961 . S
C391 H407 0.961 . S
C392 C393 1.370 . S
C392 C394 1.363 . S
C392 H408 0.931 . S
C393 C392 1.370 . S
C393 C397 1.408 . S
C394 C392 1.363 . S
C394 C395 1.370 . S
C394 C398 1.525 . S
C395 C387 1.503 . S
C395 C394 1.370 . S
C395 C396 1.403 . S
C396 C395 1.403 . S
C396 C397 1.404 . S
C396 C399 1.539 . S
C397 C393 1.408 . S
C397 C396 1.404 . S
C397 H409 0.930 . S
C398 C394 1.525 . S
C398 H410 0.955 1_455 S
C398 H411 0.962 . S
C398 H412 0.959 1_455 S
C399 C396 1.539 . S
C399 H413 0.958 . S
C399 H414 0.961 . S
C399 H415 0.960 . S
H400 C384 0.931 1_655 S
H401 C389 0.929 . S
H402 C390 0.960 . S
H403 C390 0.962 . S
H404 C390 0.960 . S
H405 C391 0.961 . S
H406 C391 0.961 . S
H407 C391 0.961 . S
H408 C392 0.931 . S
H409 C397 0.930 . S
H410 C398 0.955 1_655 S
H411 C398 0.962 . S
H412 C398 0.959 1_655 S
H413 C399 0.958 . S
H414 C399 0.961 . S
H415 C399 0.960 . S
C416 C417 1.391 . S
C416 C418 1.394 . S
C416 H432 0.931 . S
C417 C416 1.391 . S
C417 C421 1.376 . S
C418 C416 1.394 . S
C418 C419 1.369 . S
C418 C422 1.531 . S
C419 C418 1.369 . S
C419 C420 1.410 . S
C419 C427 1.503 . S
C420 C419 1.410 . S
C420 C421 1.392 . S
C420 C423 1.511 . S
C421 C417 1.376 . S
C421 C420 1.392 . S
C421 H433 0.929 1_545 S
C422 C418 1.531 . S
C422 H434 0.960 . S
C422 H435 0.962 . S
C422 H436 0.960 . S
C423 C420 1.511 . S
C423 H437 0.961 1_545 S
C423 H438 0.961 1_545 S
C423 H439 0.961 . S
C424 C425 1.370 . S
C424 C426 1.363 . S
C424 H440 0.931 . S
C425 C424 1.370 . S
C425 C429 1.408 . S
C426 C424 1.363 . S
C426 C427 1.370 . S
C426 C430 1.524 1_545 S
C427 C419 1.503 . S
C427 C426 1.370 . S
C427 C428 1.403 . S
C428 C427 1.403 . S
C428 C429 1.404 . S
C428 C431 1.539 . S
C429 C425 1.408 . S
C429 C428 1.404 . S
C429 H441 0.930 . S
C430 C426 1.524 1_565 S
C430 H442 0.956 1_565 S
C430 H443 0.961 . S
C430 H444 0.961 . S
C431 C428 1.539 . S
C431 H445 0.958 . S
C431 H446 0.961 . S
C431 H447 0.960 . S
H432 C416 0.931 . S
H433 C421 0.929 1_565 S
H434 C422 0.960 . S
H435 C422 0.962 . S
H436 C422 0.960 . S
H437 C423 0.961 1_565 S
H438 C423 0.961 1_565 S
H439 C423 0.961 . S
H440 C424 0.931 . S
H441 C429 0.930 . S
H442 C430 0.956 1_545 S
H443 C430 0.961 . S
H444 C430 0.961 . S
H445 C431 0.958 . S
H446 C431 0.961 . S
H447 C431 0.960 . S
C448 C449 1.391 . S
C448 C450 1.394 . S
C448 H464 0.931 1_655 S
C449 C448 1.391 . S
C449 C453 1.376 . S
C450 C448 1.394 . S
C450 C451 1.369 . S
C450 C454 1.531 . S
C451 C450 1.369 . S
C451 C452 1.410 . S
C451 C459 1.503 . S
C452 C451 1.410 . S
C452 C453 1.392 . S
C452 C455 1.511 . S
C453 C449 1.376 . S
C453 C452 1.392 . S
C453 H465 0.929 . S
C454 C450 1.531 . S
C454 H466 0.960 . S
C454 H467 0.962 . S
C454 H468 0.960 . S
C455 C452 1.511 . S
C455 H469 0.961 . S
C455 H470 0.961 . S
C455 H471 0.961 . S
C456 C457 1.370 . S
C456 C458 1.363 . S
C456 H472 0.931 . S
C457 C456 1.370 . S
C457 C461 1.408 . S
C458 C456 1.363 . S
C458 C459 1.370 . S
C458 C462 1.524 . S
C459 C451 1.503 . S
C459 C458 1.370 . S
C459 C460 1.403 . S
C460 C459 1.403 . S
C460 C461 1.404 . S
C460 C463 1.539 . S
C461 C457 1.408 . S
C461 C460 1.404 . S
C461 H473 0.930 . S
C462 C458 1.524 . S
C462 H474 0.956 . S
C462 H475 0.961 . S
C462 H476 0.961 . S
C463 C460 1.539 . S
C463 H477 0.958 . S
C463 H478 0.961 . S
C463 H479 0.960 . S
H464 C448 0.931 1_455 S
H465 C453 0.929 . S
H466 C454 0.960 . S
H467 C454 0.962 . S
H468 C454 0.960 . S
H469 C455 0.961 . S
H470 C455 0.961 . S
H471 C455 0.961 . S
H472 C456 0.931 . S
H473 C461 0.930 . S
H474 C462 0.956 . S
H475 C462 0.961 . S
H476 C462 0.961 . S
H477 C463 0.958 . S
H478 C463 0.961 . S
H479 C463 0.960 . S
C480 C481 1.391 . S
C480 C482 1.394 . S
C480 H496 0.931 . S
C481 C480 1.391 . S
C481 C485 1.376 . S
C482 C480 1.394 . S
C482 C483 1.369 . S
C482 C486 1.531 . S
C483 C482 1.369 . S
C483 C484 1.410 . S
C483 C491 1.503 . S
C484 C483 1.410 . S
C484 C485 1.392 . S
C484 C487 1.511 . S
C485 C481 1.376 . S
C485 C484 1.392 . S
C485 H497 0.929 1_565 S
C486 C482 1.531 . S
C486 H498 0.960 . S
C486 H499 0.962 1_455 S
C486 H500 0.960 . S
C487 C484 1.511 . S
C487 H501 0.961 . S
C487 H502 0.961 . S
C487 H503 0.961 . S
C488 C489 1.370 . S
C488 C490 1.363 . S
C488 H504 0.931 . S
C489 C488 1.370 . S
C489 C493 1.408 . S
C490 C488 1.363 . S
C490 C491 1.370 . S
C490 C494 1.524 . S
C491 C483 1.503 . S
C491 C490 1.370 . S
C491 C492 1.403 . S
C492 C491 1.403 . S
C492 C493 1.404 . S
C492 C495 1.539 . S
C493 C489 1.408 . S
C493 C492 1.404 . S
C493 H505 0.930 . S
C494 C490 1.524 . S
C494 H506 0.956 . S
C494 H507 0.961 . S
C494 H508 0.961 . S
C495 C492 1.539 . S
C495 H509 0.958 . S
C495 H510 0.961 . S
C495 H511 0.960 . S
H496 C480 0.931 . S
H497 C485 0.929 1_545 S
H498 C486 0.960 . S
H499 C486 0.962 1_655 S
H500 C486 0.960 . S
H501 C487 0.961 . S
H502 C487 0.961 . S
H503 C487 0.961 . S
H504 C488 0.931 . S
H505 C493 0.930 . S
H506 C494 0.956 . S
H507 C494 0.961 . S
H508 C494 0.961 . S
H509 C495 0.958 . S
H510 C495 0.961 . S
H511 C495 0.960 . S
C512 C513 1.391 . S
C512 C514 1.394 . S
C512 H528 0.931 . S
C513 C512 1.391 . S
C513 C517 1.376 . S
C514 C512 1.394 . S
C514 C515 1.369 . S
C514 C518 1.531 . S
C515 C514 1.369 . S
C515 C516 1.410 . S
C515 C523 1.503 . S
C516 C515 1.410 . S
C516 C517 1.392 . S
C516 C519 1.511 . S
C517 C513 1.376 . S
C517 C516 1.392 . S
C517 H529 0.929 . S
C518 C514 1.531 . S
C518 H530 0.960 . S
C518 H531 0.962 . S
C518 H532 0.960 . S
C519 C516 1.511 . S
C519 H533 0.961 . S
C519 H534 0.961 . S
C519 H535 0.961 . S
C520 C521 1.370 . S
C520 C522 1.363 . S
C520 H536 0.931 . S
C521 C520 1.370 . S
C521 C525 1.408 . S
C522 C520 1.363 . S
C522 C523 1.370 . S
C522 C526 1.524 . S
C523 C515 1.503 . S
C523 C522 1.370 . S
C523 C524 1.403 . S
C524 C523 1.403 . S
C524 C525 1.404 . S
C524 C527 1.539 . S
C525 C521 1.408 . S
C525 C524 1.404 . S
C525 H537 0.930 . S
C526 C522 1.524 . S
C526 H538 0.956 . S
C526 H539 0.961 . S
C526 H540 0.961 1_545 S
C527 C524 1.539 . S
C527 H541 0.958 . S
C527 H542 0.961 . S
C527 H543 0.960 . S
H528 C512 0.931 . S
H529 C517 0.929 . S
H530 C518 0.960 . S
H531 C518 0.962 . S
H532 C518 0.960 . S
H533 C519 0.961 . S
H534 C519 0.961 . S
H535 C519 0.961 . S
H536 C520 0.931 . S
H537 C525 0.930 . S
H538 C526 0.956 . S
H539 C526 0.961 . S
H540 C526 0.961 1_565 S
H541 C527 0.958 . S
H542 C527 0.961 . S
H543 C527 0.960 . S
C544 C545 1.391 . S
C544 C546 1.394 . S
C544 H560 0.931 . S
C545 C544 1.391 . S
C545 C549 1.376 . S
C546 C544 1.394 . S
C546 C547 1.369 . S
C546 C550 1.531 . S
C547 C546 1.369 . S
C547 C548 1.410 . S
C547 C555 1.503 . S
C548 C547 1.410 . S
C548 C549 1.392 . S
C548 C551 1.511 . S
C549 C545 1.376 . S
C549 C548 1.392 . S
C549 H561 0.929 . S
C550 C546 1.531 . S
C550 H562 0.960 . S
C550 H563 0.962 . S
C550 H564 0.960 . S
C551 C548 1.511 . S
C551 H565 0.961 . S
C551 H566 0.961 . S
C551 H567 0.961 . S
C552 C553 1.370 . S
C552 C554 1.363 . S
C552 H568 0.931 . S
C553 C552 1.370 . S
C553 C557 1.408 . S
C554 C552 1.363 . S
C554 C555 1.370 . S
C554 C558 1.524 . S
C555 C547 1.503 . S
C555 C554 1.370 . S
C555 C556 1.403 . S
C556 C555 1.403 . S
C556 C557 1.404 . S
C556 C559 1.539 . S
C557 C553 1.408 . S
C557 C556 1.404 . S
C557 H569 0.930 . S
C558 C554 1.524 . S
C558 H570 0.956 . S
C558 H571 0.961 . S
C558 H572 0.961 . S
C559 C556 1.539 . S
C559 H573 0.958 . S
C559 H574 0.961 . S
C559 H575 0.960 . S
H560 C544 0.931 . S
H561 C549 0.929 . S
H562 C550 0.960 . S
H563 C550 0.962 . S
H564 C550 0.960 . S
H565 C551 0.961 . S
H566 C551 0.961 . S
H567 C551 0.961 . S
H568 C552 0.931 . S
H569 C557 0.930 . S
H570 C558 0.956 . S
H571 C558 0.961 . S
H572 C558 0.961 . S
H573 C559 0.958 . S
H574 C559 0.961 . S
H575 C559 0.960 . S
C576 C577 1.391 . S
C576 C578 1.394 . S
C576 H592 0.931 . S
C577 C576 1.391 . S
C577 C581 1.376 . S
C578 C576 1.394 . S
C578 C579 1.369 . S
C578 C582 1.531 . S
C579 C578 1.369 . S
C579 C580 1.410 . S
C579 C587 1.503 . S
C580 C579 1.410 . S
C580 C581 1.392 . S
C580 C583 1.511 . S
C581 C577 1.376 . S
C581 C580 1.392 . S
C581 H593 0.929 . S
C582 C578 1.531 . S
C582 H594 0.960 . S
C582 H595 0.962 . S
C582 H596 0.960 . S
C583 C580 1.511 . S
C583 H597 0.961 . S
C583 H598 0.961 . S
C583 H599 0.961 . S
C584 C585 1.370 . S
C584 C586 1.363 . S
C584 H600 0.931 . S
C585 C584 1.370 . S
C585 C589 1.408 . S
C586 C584 1.363 . S
C586 C587 1.370 . S
C586 C590 1.524 . S
C587 C579 1.503 . S
C587 C586 1.370 . S
C587 C588 1.403 . S
C588 C587 1.403 . S
C588 C589 1.404 . S
C588 C591 1.539 1_545 S
C589 C585 1.408 . S
C589 C588 1.404 . S
C589 H601 0.930 . S
C590 C586 1.524 . S
C590 H602 0.956 . S
C590 H603 0.961 . S
C590 H604 0.961 . S
C591 C588 1.539 1_565 S
C591 H605 0.958 . S
C591 H606 0.961 . S
C591 H607 0.960 1_565 S
H592 C576 0.931 . S
H593 C581 0.929 . S
H594 C582 0.960 . S
H595 C582 0.962 . S
H596 C582 0.960 . S
H597 C583 0.961 . S
H598 C583 0.961 . S
H599 C583 0.961 . S
H600 C584 0.931 . S
H601 C589 0.930 . S
H602 C590 0.956 . S
H603 C590 0.961 . S
H604 C590 0.961 . S
H605 C591 0.958 . S
H606 C591 0.961 . S
H607 C591 0.960 1_545 S
C608 C609 1.391 . S
C608 C610 1.394 . S
C608 H624 0.931 . S
C609 C608 1.391 . S
C609 C613 1.376 1_554 S
C610 C608 1.394 . S
C610 C611 1.369 1_554 S
C610 C614 1.531 . S
C611 C610 1.369 1_556 S
C611 C612 1.410 . S
C611 C619 1.503 . S
C612 C611 1.410 . S
C612 C613 1.392 . S
C612 C615 1.511 . S
C613 C609 1.376 1_556 S
C613 C612 1.392 . S
C613 H625 0.929 1_665 S
C614 C610 1.531 . S
C614 H626 0.960 . S
C614 H627 0.962 . S
C614 H628 0.960 . S
C615 C612 1.511 . S
C615 H629 0.961 . S
C615 H630 0.961 . S
C615 H631 0.961 . S
C616 C617 1.370 . S
C616 C618 1.363 . S
C616 H632 0.931 . S
C617 C616 1.370 . S
C617 C621 1.408 . S
C618 C616 1.363 . S
C618 C619 1.370 . S
C618 C622 1.524 . S
C619 C611 1.503 . S
C619 C618 1.370 . S
C619 C620 1.403 . S
C620 C619 1.403 . S
C620 C621 1.404 . S
C620 C623 1.539 . S
C621 C617 1.408 . S
C621 C620 1.404 . S
C621 H633 0.930 . S
C622 C618 1.524 . S
C622 H634 0.956 1_556 S
C622 H635 0.961 . S
C622 H636 0.961 . S
C623 C620 1.539 . S
C623 H637 0.958 . S
C623 H638 0.961 . S
C623 H639 0.960 . S
H624 C608 0.931 . S
H625 C613 0.929 1_445 S
H626 C614 0.960 . S
H627 C614 0.962 . S
H628 C614 0.960 . S
H629 C615 0.961 . S
H630 C615 0.961 . S
H631 C615 0.961 . S
H632 C616 0.931 . S
H633 C621 0.930 . S
H634 C622 0.956 1_554 S
H635 C622 0.961 . S
H636 C622 0.961 . S
H637 C623 0.958 . S
H638 C623 0.961 . S
H639 C623 0.960 . S
C640 C641 1.395 . S
C640 C642 1.394 . S
C640 H656 0.931 . S
C641 C640 1.395 . S
C641 C645 1.376 1_455 S
C642 C640 1.394 . S
C642 C643 1.369 . S
C642 C646 1.531 . S
C643 C642 1.369 . S
C643 C644 1.410 1_455 S
C643 C651 1.503 . S
C644 C643 1.410 1_655 S
C644 C645 1.392 . S
C644 C647 1.511 . S
C645 C641 1.376 1_655 S
C645 C644 1.392 . S
C645 H657 0.929 . S
C646 C642 1.531 . S
C646 H658 0.960 . S
C646 H659 0.962 . S
C646 H660 0.960 . S
C647 C644 1.511 . S
C647 H661 0.961 . S
C647 H662 0.961 . S
C647 H663 0.961 . S
C648 C649 1.370 1_655 S
C648 C650 1.363 . S
C648 H664 0.931 . S
C649 C648 1.370 1_455 S
C649 C653 1.408 . S
C650 C648 1.363 . S
C650 C651 1.370 1_655 S
C650 C654 1.524 . S
C651 C643 1.503 . S
C651 C650 1.370 1_455 S
C651 C652 1.403 . S
C652 C651 1.403 . S
C652 C653 1.404 . S
C652 C655 1.539 . S
C653 C649 1.408 . S
C653 C652 1.404 . S
C653 H665 0.930 . S
C654 C650 1.524 . S
C654 H666 0.956 . S
C654 H667 0.961 . S
C654 H668 0.961 . S
C655 C652 1.539 . S
C655 H669 0.958 . S
C655 H670 0.961 . S
C655 H671 0.960 . S
H656 C640 0.931 . S
H657 C645 0.929 . S
H658 C646 0.960 . S
H659 C646 0.962 . S
H660 C646 0.960 . S
H661 C647 0.961 . S
H662 C647 0.961 . S
H663 C647 0.961 . S
H664 C648 0.931 . S
H665 C653 0.930 . S
H666 C654 0.956 . S
H667 C654 0.961 . S
H668 C654 0.961 . S
H669 C655 0.958 . S
H670 C655 0.961 . S
H671 C655 0.960 . S
C672 C673 1.391 . S
C672 C674 1.394 . S
C672 H688 0.931 . S
C673 C672 1.391 . S
C673 C677 1.395 . S
C674 C672 1.394 . S
C674 C675 1.369 . S
C674 C678 1.531 . S
C675 C674 1.369 . S
C675 C676 1.410 . S
C675 C683 1.503 . S
C676 C675 1.410 . S
C676 C677 1.387 . S
C676 C679 1.511 1_545 S
C677 C673 1.395 . S
C677 C676 1.387 . S
C677 H689 0.916 1_545 S
C678 C674 1.531 . S
C678 H690 0.960 . S
C678 H691 0.962 . S
C678 H692 0.960 . S
C679 C676 1.511 1_565 S
C679 H693 0.961 . S
C679 H694 0.961 . S
C679 H695 0.961 . S
C680 C681 1.370 . S
C680 C682 1.363 . S
C680 H696 0.931 . S
C681 C680 1.370 . S
C681 C685 1.408 . S
C682 C680 1.363 . S
C682 C683 1.370 . S
C682 C686 1.524 . S
C683 C675 1.503 . S
C683 C682 1.370 . S
C683 C684 1.403 . S
C684 C683 1.403 . S
C684 C685 1.404 . S
C684 C687 1.539 . S
C685 C681 1.408 . S
C685 C684 1.404 . S
C685 H697 0.930 . S
C686 C682 1.524 . S
C686 H698 0.956 . S
C686 H699 0.961 . S
C686 H700 0.961 . S
C687 C684 1.539 . S
C687 H701 0.958 . S
C687 H702 0.961 . S
C687 H703 0.960 . S
H688 C672 0.931 . S
H689 C677 0.916 1_565 S
H690 C678 0.960 . S
H691 C678 0.962 . S
H692 C678 0.960 . S
H693 C679 0.961 . S
H694 C679 0.961 . S
H695 C679 0.961 . S
H696 C680 0.931 . S
H697 C685 0.930 . S
H698 C686 0.956 . S
H699 C686 0.961 . S
H700 C686 0.961 . S
H701 C687 0.958 . S
H702 C687 0.961 . S
H703 C687 0.960 . S
C704 C705 1.391 1_556 S
C704 C706 1.394 . S
C704 H720 0.917 1_556 S
C705 C704 1.391 1_554 S
C705 C709 1.376 . S
C706 C704 1.394 . S
C706 C707 1.369 . S
C706 C710 1.531 . S
C707 C706 1.369 . S
C707 C708 1.410 . S
C707 C715 1.503 . S
C708 C707 1.410 . S
C708 C709 1.392 1_556 S
C708 C711 1.511 . S
C709 C705 1.376 . S
C709 C708 1.392 1_554 S
C709 H721 0.929 . S
C710 C706 1.531 . S
C710 H722 0.960 . S
C710 H723 0.962 . S
C710 H724 0.960 . S
C711 C708 1.511 . S
C711 H725 0.961 . S
C711 H726 0.961 . S
C711 H727 0.961 . S
C712 C713 1.370 . S
C712 C714 1.363 . S
C712 H728 0.931 . S
C713 C712 1.370 . S
C713 C717 1.408 . S
C714 C712 1.363 . S
C714 C715 1.370 . S
C714 C718 1.524 . S
C715 C707 1.503 . S
C715 C714 1.370 . S
C715 C716 1.403 . S
C716 C715 1.403 . S
C716 C717 1.404 . S
C716 C719 1.539 . S
C717 C713 1.408 . S
C717 C716 1.404 . S
C717 H729 0.930 . S
C718 C714 1.524 . S
C718 H730 0.978 . S
C718 H731 0.961 1_556 S
C718 H732 0.961 . S
C719 C716 1.539 . S
C719 H733 0.958 . S
C719 H734 0.961 . S
C719 H735 0.960 . S
H720 C704 0.917 1_554 S
H721 C709 0.929 . S
H722 C710 0.960 . S
H723 C710 0.962 . S
H724 C710 0.960 . S
H725 C711 0.961 . S
H726 C711 0.961 . S
H727 C711 0.961 . S
H728 C712 0.931 . S
H729 C717 0.930 . S
H730 C718 0.978 . S
H731 C718 0.961 1_554 S
H732 C718 0.961 . S
H733 C719 0.958 . S
H734 C719 0.961 . S
H735 C719 0.960 . S
C736 C737 1.391 . S
C736 C738 1.394 . S
C736 H752 0.931 . S
C737 C736 1.391 . S
C737 C741 1.376 . S
C738 C736 1.394 . S
C738 C739 1.369 . S
C738 C742 1.531 . S
C739 C738 1.369 . S
C739 C740 1.410 . S
C739 C747 1.503 . S
C740 C739 1.410 . S
C740 C741 1.392 . S
C740 C743 1.511 . S
C741 C737 1.376 . S
C741 C740 1.392 . S
C741 H753 0.929 . S
C742 C738 1.531 . S
C742 H754 0.960 . S
C742 H755 0.962 . S
C742 H756 0.960 . S
C743 C740 1.511 . S
C743 H757 0.961 . S
C743 H758 0.961 . S
C743 H759 0.961 . S
C744 C745 1.370 . S
C744 C746 1.363 . S
C744 H760 0.931 1_455 S
C745 C744 1.370 . S
C745 C749 1.408 . S
C746 C744 1.363 . S
C746 C747 1.370 . S
C746 C750 1.524 1_455 S
C747 C739 1.503 . S
C747 C746 1.370 . S
C747 C748 1.403 . S
C748 C747 1.403 . S
C748 C749 1.404 . S
C748 C751 1.539 . S
C749 C745 1.408 . S
C749 C748 1.404 . S
C749 H761 0.930 . S
C750 C746 1.524 1_655 S
C750 H762 0.956 . S
C750 H763 0.961 . S
C750 H764 0.961 . S
C751 C748 1.539 . S
C751 H765 0.958 . S
C751 H766 0.961 . S
C751 H767 0.960 . S
H752 C736 0.931 . S
H753 C741 0.929 . S
H754 C742 0.960 . S
H755 C742 0.962 . S
H756 C742 0.960 . S
H757 C743 0.961 . S
H758 C743 0.961 . S
H759 C743 0.961 . S
H760 C744 0.931 1_655 S
H761 C749 0.930 . S
H762 C750 0.956 . S
H763 C750 0.961 . S
H764 C750 0.961 . S
H765 C751 0.958 . S
H766 C751 0.961 . S
H767 C751 0.960 . S
C393 C97 1.053 . S
C385 C11 1.449 . S
C417 C26 1.564 . S
C425 C211 1.231 . S
C449 C40 1.213 . S
C457 C271 1.000 . S
C481 C5 1.145 1_565 S
C489 C71 1.089 . S
C521 C185 1.159 . S
C513 C18 1.433 . S
C545 C32 1.342 . S
C553 C281 0.890 . S
C585 C167 0.799 . S
C577 C39 1.230 . S
C609 C4 1.300 1_665 S
C617 C299 1.073 . S
C649 C43 0.952 . S
C641 C19 1.134 1_455 S
C681 C157 0.856 . S
C673 C33 1.069 . S
C713 C325 1.107 . S
C705 C12 1.458 . S
C737 C25 1.373 . S
C745 C53 0.804 . S
