# Generated by pormake.
# Topology apo, (3,6)-cn, num edge types: 1
# Building blocks:
#     Node 0, Type 0, BuildingBlock: QEWDON_clean_linker_0, # of connection points: 3
#     Node 1, Type 0, BuildingBlock: QEWDON_clean_linker_0, # of connection points: 3
#     Node 2, Type 0, BuildingBlock: QEWDON_clean_linker_0, # of connection points: 3
#     Node 3, Type 0, BuildingBlock: QEWDON_clean_linker_0, # of connection points: 3
#     Node 4, Type 0, BuildingBlock: QEWDON_clean_linker_0, # of connection points: 3
#     Node 5, Type 0, BuildingBlock: QEWDON_clean_linker_0, # of connection points: 3
#     Node 6, Type 0, BuildingBlock: QEWDON_clean_linker_0, # of connection points: 3
#     Node 7, Type 0, BuildingBlock: QEWDON_clean_linker_0, # of connection points: 3
#     Node 8, Type 1, BuildingBlock: MIDCAF_clean_sbu_0, # of connection points: 6
#     Node 9, Type 1, BuildingBlock: MIDCAF_clean_sbu_0, # of connection points: 6
#     Node 10, Type 1, BuildingBlock: MIDCAF_clean_sbu_0, # of connection points: 6
#     Node 11, Type 1, BuildingBlock: MIDCAF_clean_sbu_0, # of connection points: 6
#     Edge 12, Type (0, 1), BuildingBlock: AJUNOK_clean_linker_0, # of connection points: 2
#     Edge 13, Type (0, 1), BuildingBlock: AJUNOK_clean_linker_0, # of connection points: 2
#     Edge 14, Type (0, 1), BuildingBlock: AJUNOK_clean_linker_0, # of connection points: 2
#     Edge 15, Type (0, 1), BuildingBlock: AJUNOK_clean_linker_0, # of connection points: 2
#     Edge 16, Type (0, 1), BuildingBlock: AJUNOK_clean_linker_0, # of connection points: 2
#     Edge 17, Type (0, 1), BuildingBlock: AJUNOK_clean_linker_0, # of connection points: 2
#     Edge 18, Type (0, 1), BuildingBlock: AJUNOK_clean_linker_0, # of connection points: 2
#     Edge 19, Type (0, 1), BuildingBlock: AJUNOK_clean_linker_0, # of connection points: 2
#     Edge 20, Type (0, 1), BuildingBlock: AJUNOK_clean_linker_0, # of connection points: 2
#     Edge 21, Type (0, 1), BuildingBlock: AJUNOK_clean_linker_0, # of connection points: 2
#     Edge 22, Type (0, 1), BuildingBlock: AJUNOK_clean_linker_0, # of connection points: 2
#     Edge 23, Type (0, 1), BuildingBlock: AJUNOK_clean_linker_0, # of connection points: 2
#     Edge 24, Type (0, 1), BuildingBlock: AJUNOK_clean_linker_0, # of connection points: 2
#     Edge 25, Type (0, 1), BuildingBlock: AJUNOK_clean_linker_0, # of connection points: 2
#     Edge 26, Type (0, 1), BuildingBlock: AJUNOK_clean_linker_0, # of connection points: 2
#     Edge 27, Type (0, 1), BuildingBlock: AJUNOK_clean_linker_0, # of connection points: 2
#     Edge 28, Type (0, 1), BuildingBlock: AJUNOK_clean_linker_0, # of connection points: 2
#     Edge 29, Type (0, 1), BuildingBlock: AJUNOK_clean_linker_0, # of connection points: 2
#     Edge 30, Type (0, 1), BuildingBlock: AJUNOK_clean_linker_0, # of connection points: 2
#     Edge 31, Type (0, 1), BuildingBlock: AJUNOK_clean_linker_0, # of connection points: 2
#     Edge 32, Type (0, 1), BuildingBlock: AJUNOK_clean_linker_0, # of connection points: 2
#     Edge 33, Type (0, 1), BuildingBlock: AJUNOK_clean_linker_0, # of connection points: 2
#     Edge 34, Type (0, 1), BuildingBlock: AJUNOK_clean_linker_0, # of connection points: 2
#     Edge 35, Type (0, 1), BuildingBlock: AJUNOK_clean_linker_0, # of connection points: 2
# Relax obj value: 0.009
# Max RMSD: 0.102
# Mean RMSD: 0.087
data_MOF--net-apo--node1-MIDCAF_clean_sbu_0--node2-QEWDON_clean_linker_0--edge1-AJUNOK_clean_linker_0
_symmetry_space_group_name_H-M    P1
_symmetry_Int_Tables_number       1
_symmetry_cell_setting            triclinic
loop_
_symmetry_equiv_pos_as_xyz
'x, y, z'
_cell_length_a     29.08435
_cell_length_b     31.736636
_cell_length_c     25.042039
_cell_angle_alpha  90.790766
_cell_angle_beta   89.812033
_cell_angle_gamma 90.344819
loop_
_atom_site_label
_atom_site_type_symbol
_atom_site_fract_x
_atom_site_fract_y
_atom_site_fract_z
_atom_type_partial_charge
H0 H 0.32411 0.41675 0.3349 0.0
C1 C 0.33495 0.39927 0.36952 0.0
C2 C 0.37636 0.41014 0.39491 0.0
C3 C 0.30616 0.36742 0.38984 0.0
H4 H 0.42193 0.39542 0.45949 0.0
C5 C 0.38965 0.38769 0.43999 0.0
C6 C 0.36102 0.35666 0.46198 0.0
C7 C 0.31919 0.34629 0.43668 0.0
C8 C 0.26039 0.36036 0.36495 0.0
H9 H 0.29641 0.32307 0.45415 0.0
C10 C 0.24639 0.32043 0.34536 0.0
C11 C 0.20272 0.31481 0.3211 0.0
C12 C 0.23071 0.39477 0.35966 0.0
H13 H 0.24067 0.42577 0.37436 0.0
C14 C 0.18765 0.3895 0.33635 0.0
H15 H 0.26961 0.29405 0.34874 0.0
C16 C 0.1735 0.34993 0.31779 0.0
H17 H 0.13885 0.34678 0.30259 0.0
H18 H 0.16473 0.41612 0.3335 0.0
H19 H 0.1982 0.11071 0.83969 0.0
C20 C 0.1834 0.1182 0.8784 0.0
C21 C 0.14195 0.09897 0.89438 0.0
C22 C 0.20817 0.14423 0.91393 0.0
H23 H 0.0914 0.09561 0.95765 0.0
C24 C 0.1231 0.1103 0.94433 0.0
C25 C 0.14629 0.13808 0.97936 0.0
C26 C 0.18952 0.15406 0.96454 0.0
C27 C 0.25653 0.15496 0.90138 0.0
H28 H 0.20876 0.17377 0.99235 0.0
C29 C 0.26835 0.1806 0.85781 0.0
C30 C 0.31498 0.18928 0.84601 0.0
C31 C 0.29144 0.13733 0.93229 0.0
H32 H 0.28301 0.11711 0.96549 0.0
C33 C 0.33745 0.14508 0.92023 0.0
H34 H 0.24139 0.19447 0.83413 0.0
C35 C 0.34921 0.17102 0.87781 0.0
H36 H 0.38524 0.1782 0.87146 0.0
H37 H 0.36415 0.13151 0.94449 0.0
H38 H 0.83393 0.09099 0.71915 0.0
C39 C 0.84564 0.10932 0.68553 0.0
C40 C 0.88957 0.10248 0.66368 0.0
C41 C 0.81489 0.13746 0.66196 0.0
H42 H 0.93603 0.11983 0.60027 0.0
C43 C 0.90249 0.12508 0.61811 0.0
C44 C 0.87116 0.15106 0.59179 0.0
C45 C 0.82739 0.15771 0.61425 0.0
C46 C 0.76778 0.14101 0.68406 0.0
H47 H 0.80264 0.17699 0.59366 0.0
C48 C 0.75135 0.17942 0.70511 0.0
C49 C 0.70632 0.18234 0.72642 0.0
C50 C 0.73949 0.1051 0.68544 0.0
H51 H 0.75164 0.07516 0.66978 0.0
C52 C 0.69507 0.10763 0.70615 0.0
H53 H 0.77377 0.2068 0.70491 0.0
C54 C 0.67835 0.14592 0.72585 0.0
H55 H 0.64285 0.14707 0.73879 0.0
H56 H 0.67315 0.07994 0.70602 0.0
H57 H 0.70773 0.38859 0.19567 0.0
C58 C 0.69112 0.3776 0.15931 0.0
C59 C 0.64846 0.39448 0.14462 0.0
C60 C 0.71431 0.34929 0.12525 0.0
H61 H 0.59619 0.39474 0.0837 0.0
C62 C 0.62819 0.38081 0.09653 0.0
C63 C 0.6505 0.35201 0.06227 0.0
C64 C 0.69401 0.33681 0.07641 0.0
C65 C 0.76256 0.33829 0.13705 0.0
H66 H 0.71228 0.31584 0.04931 0.0
C67 C 0.77424 0.3134 0.18123 0.0
C68 C 0.82079 0.30422 0.19212 0.0
C69 C 0.79753 0.35454 0.10449 0.0
H70 H 0.78923 0.37405 0.07071 0.0
C71 C 0.84346 0.34625 0.11553 0.0
H72 H 0.74722 0.30055 0.20618 0.0
C73 C 0.85506 0.32112 0.15862 0.0
H74 H 0.89095 0.31352 0.16424 0.0
H75 H 0.87021 0.35875 0.08998 0.0
H76 H 0.62839 0.66241 0.74911 0.0
C77 C 0.62366 0.66786 0.70684 0.0
C78 C 0.60165 0.63724 0.67482 0.0
C79 C 0.63811 0.70615 0.68444 0.0
H80 H 0.57986 0.62021 0.59532 0.0
C81 C 0.59636 0.64419 0.62005 0.0
C82 C 0.6116 0.68171 0.59685 0.0
C83 C 0.63169 0.71303 0.62944 0.0
C84 C 0.65909 0.73972 0.7181 0.0
H85 H 0.64274 0.74251 0.612 0.0
C86 C 0.70283 0.73441 0.74086 0.0
C87 C 0.72676 0.76913 0.76383 0.0
C88 C 0.6371 0.77873 0.7231 0.0
H89 H 0.60337 0.78335 0.70595 0.0
C90 C 0.65876 0.81226 0.74944 0.0
H91 H 0.71868 0.70371 0.73812 0.0
C92 C 0.70341 0.80786 0.76874 0.0
H93 H 0.72025 0.83561 0.78518 0.0
H94 H 0.64167 0.84239 0.75285 0.0
H95 H 0.87663 0.82689 0.25131 0.0
C96 C 0.88119 0.82455 0.20839 0.0
C97 C 0.90407 0.85695 0.18123 0.0
C98 C 0.86566 0.78851 0.18035 0.0
H99 H 0.92639 0.87955 0.10464 0.0
C100 C 0.90928 0.85415 0.12558 0.0
C101 C 0.89266 0.81914 0.09661 0.0
C102 C 0.87182 0.78592 0.1244 0.0
C103 C 0.84395 0.75291 0.20912 0.0
H104 H 0.85973 0.75838 0.10239 0.0
C105 C 0.8053 0.75903 0.24258 0.0
C106 C 0.78082 0.72413 0.26344 0.0
C107 C 0.8606 0.71202 0.2005 0.0
H108 H 0.89056 0.70662 0.17554 0.0
C109 C 0.83864 0.6777 0.22357 0.0
H110 H 0.79373 0.79084 0.25036 0.0
C111 C 0.79882 0.68347 0.25384 0.0
H112 H 0.78117 0.65554 0.26762 0.0
H113 H 0.85158 0.64621 0.2163 0.0
H114 H 0.13306 0.83254 0.30312 0.0
C115 C 0.13214 0.82958 0.3462 0.0
C116 C 0.10956 0.86014 0.37729 0.0
C117 C 0.15281 0.79477 0.37049 0.0
H118 H 0.0899 0.8795 0.45643 0.0
C119 C 0.10817 0.85604 0.43282 0.0
C120 C 0.1298 0.82229 0.45821 0.0
C121 C 0.15185 0.79134 0.4266 0.0
C122 C 0.17137 0.7603 0.33651 0.0
H123 H 0.16719 0.76427 0.44538 0.0
C124 C 0.21877 0.75145 0.33457 0.0
C125 C 0.23564 0.71864 0.30118 0.0
C126 C 0.14095 0.73656 0.30466 0.0
H127 H 0.10441 0.74303 0.30547 0.0
C128 C 0.15729 0.7041 0.27186 0.0
H129 H 0.24228 0.77073 0.35799 0.0
C130 C 0.20415 0.6951 0.27014 0.0
H131 H 0.21569 0.66926 0.24488 0.0
H132 H 0.13349 0.68571 0.24777 0.0
H133 H 0.38895 0.66688 0.79538 0.0
C134 C 0.39418 0.67005 0.8381 0.0
C135 C 0.41464 0.63726 0.86634 0.0
C136 C 0.38183 0.70746 0.86497 0.0
H137 H 0.43574 0.61562 0.94363 0.0
C138 C 0.4204 0.64122 0.92175 0.0
C139 C 0.40706 0.67798 0.94913 0.0
C140 C 0.38875 0.71145 0.92038 0.0
C141 C 0.3622 0.74299 0.8357 0.0
H142 H 0.37942 0.74039 0.94113 0.0
C143 C 0.31725 0.74048 0.81549 0.0
C144 C 0.29562 0.77658 0.79527 0.0
C145 C 0.38679 0.78098 0.83285 0.0
H146 H 0.42142 0.78339 0.84848 0.0
C147 C 0.36637 0.81645 0.81127 0.0
H148 H 0.29852 0.71096 0.81814 0.0
C149 C 0.32092 0.81463 0.7937 0.0
H150 H 0.3052 0.84369 0.78133 0.0
H151 H 0.38521 0.84595 0.81013 0.0
Zn152 Zn 0.04848 0.10749 0.36901 0.0
Zn153 Zn 0.95252 0.10475 0.20583 0.0
Zn154 Zn 1.00322 0.11177 0.28519 0.0
C155 C 0.03823 0.13624 0.16992 0.0
C156 C 0.95435 0.02521 0.23745 0.0
O157 O 0.96025 0.14341 0.34848 0.0
O158 O 1.00119 0.12749 0.41957 0.0
C159 C 0.09846 0.16161 0.30493 0.0
O160 O 0.04675 0.13832 0.22042 0.0
O161 O 1.00043 0.12107 0.15377 0.0
O162 O 0.9305 0.04663 0.20616 0.0
O163 O 0.98525 0.04343 0.26696 0.0
O164 O 0.09611 0.14808 0.35191 0.0
O165 O 0.06792 0.1497 0.27038 0.0
O166 O 0.01937 0.04413 0.30469 0.0
O167 O 0.06916 0.04899 0.37105 0.0
C168 C 0.04796 0.02682 0.33704 0.0
O169 O 0.94078 0.15316 0.29837 0.0
O170 O 0.90568 0.14617 0.22068 0.0
C171 C 0.96596 0.14401 0.3996 0.0
C172 C 0.90802 0.16327 0.26622 0.0
Zn173 Zn 0.54926 0.38506 0.67705 0.0
Zn174 Zn 0.45252 0.38635 0.84355 0.0
Zn175 Zn 0.50293 0.38112 0.76191 0.0
C176 C 0.4573 0.4668 0.8135 0.0
C177 C 0.40614 0.33083 0.77948 0.0
O178 O 0.56677 0.34313 0.77596 0.0
O179 O 0.59639 0.34485 0.6948 0.0
C180 C 0.54849 0.46603 0.71001 0.0
O181 O 0.48695 0.44878 0.78231 0.0
O182 O 0.43344 0.44522 0.84509 0.0
O183 O 0.40417 0.34649 0.82588 0.0
O184 O 0.43951 0.34112 0.7479 0.0
O185 O 0.56981 0.44405 0.67595 0.0
O186 O 0.51981 0.4485 0.74249 0.0
O187 O 0.45913 0.35136 0.69809 0.0
O188 O 0.50145 0.36511 0.62689 0.0
C189 C 0.465 0.35034 0.64695 0.0
O190 O 0.54588 0.3534 0.82603 0.0
O191 O 0.49998 0.36762 0.89431 0.0
C192 C 0.59783 0.3315 0.7419 0.0
C193 C 0.5377 0.35352 0.87672 0.0
Zn194 Zn 0.05249 0.85925 0.85554 0.0
Zn195 Zn 0.96748 0.85647 0.69318 0.0
Zn196 Zn 0.01048 0.86393 0.77659 0.0
C197 C 0.96816 0.94255 0.71762 0.0
C198 C 0.91515 0.81081 0.7607 0.0
O199 O 0.0783 0.83114 0.76186 0.0
O200 O 0.09077 0.80944 0.84347 0.0
C201 C 0.0634 0.94157 0.82349 0.0
O202 O 0.99328 0.92997 0.75651 0.0
O203 O 0.95178 0.91618 0.68459 0.0
O204 O 0.91835 0.81833 0.71164 0.0
O205 O 0.94508 0.8267 0.79346 0.0
O206 O 0.08468 0.91396 0.8492 0.0
O207 O 0.02732 0.93091 0.79666 0.0
O208 O 0.96673 0.8347 0.8422 0.0
O209 O 1.00746 0.85434 0.91261 0.0
C210 C 0.97149 0.83806 0.89346 0.0
O211 O 0.05603 0.83611 0.71115 0.0
O212 O 0.01 0.83382 0.64114 0.0
C213 C 0.1025 0.80973 0.79503 0.0
C214 C 0.04897 0.8279 0.66105 0.0
Zn215 Zn 0.5657 0.63897 0.19754 0.0
Zn216 Zn 0.43019 0.62184 0.40347 0.0
Zn217 Zn 0.5143 0.62726 0.26822 0.0
C218 C 0.52587 0.66394 0.40043 0.0
C219 C 0.47341 0.55885 0.31986 0.0
O220 O 0.47551 0.65794 0.20122 0.0
O221 O 0.52749 0.65389 0.13691 0.0
C222 C 0.59877 0.68839 0.27945 0.0
O223 O 0.53503 0.65521 0.35034 0.0
O224 O 0.48837 0.65361 0.42423 0.0
O225 O 0.4635 0.59406 0.34096 0.0
O226 O 0.50042 0.5603 0.27977 0.0
O227 O 0.599 0.68638 0.2292 0.0
O228 O 0.5708 0.66479 0.30569 0.0
O229 O 0.53829 0.56258 0.24461 0.0
O230 O 0.597 0.58352 0.19576 0.0
C231 C 0.57495 0.554 0.21762 0.0
O232 O 0.44915 0.65765 0.24651 0.0
O233 O 0.44027 0.63686 0.32667 0.0
C234 C 0.48748 0.66328 0.15207 0.0
C235 C 0.42396 0.65717 0.28823 0.0
C236 C 0.12026 0.92912 0.33317 0.0
C237 C 0.09013 0.8985 0.35338 0.0
C238 C 0.10507 0.97019 0.32388 0.0
C239 C 0.05915 0.98171 0.33359 0.0
H240 H 0.1565 0.92223 0.32847 0.0
H241 H 0.13004 0.99376 0.31194 0.0
S242 S 0.96546 0.91152 0.37948 0.0
N243 N 0.0114 0.8811 0.37772 0.0
N244 N 0.98279 0.95845 0.35954 0.0
C245 C 0.02788 0.95058 0.34965 0.0
C246 C 0.04343 0.90883 0.35971 0.0
C247 C 0.39433 0.56974 0.82078 0.0
C248 C 0.42844 0.59757 0.8396 0.0
C249 C 0.40492 0.52774 0.80839 0.0
C250 C 0.45 0.51256 0.81361 0.0
H251 H 0.35876 0.57963 0.81946 0.0
H252 H 0.37721 0.50638 0.79742 0.0
S253 S 0.55238 0.57444 0.85501 0.0
N254 N 0.50964 0.60848 0.85801 0.0
N255 N 0.52949 0.52925 0.83465 0.0
C256 C 0.48497 0.54085 0.82852 0.0
C257 C 0.47415 0.58355 0.8415 0.0
C258 C 0.61776 0.5667 0.71228 0.0
C259 C 0.58543 0.59672 0.69665 0.0
C260 C 0.60467 0.52462 0.71981 0.0
C261 C 0.55879 0.51144 0.71279 0.0
H262 H 0.65384 0.57515 0.71504 0.0
H263 H 0.63101 0.50178 0.72878 0.0
S264 S 0.46046 0.57889 0.67741 0.0
N265 N 0.50509 0.61137 0.67861 0.0
N266 N 0.48058 0.53205 0.69291 0.0
C267 C 0.52566 0.54165 0.70061 0.0
C268 C 0.539 0.58444 0.69257 0.0
C269 C 0.8878 0.92358 0.23099 0.0
C270 C 0.92025 0.89553 0.20941 0.0
C271 C 0.90034 0.96501 0.24475 0.0
C272 C 0.94582 0.97946 0.23826 0.0
H273 H 0.85187 0.91451 0.23322 0.0
H274 H 0.87367 0.98671 0.25736 0.0
S275 S 0.04477 0.91634 0.1907 0.0
N276 N 1.00062 0.88337 0.18771 0.0
N277 N 0.02415 0.96146 0.21384 0.0
C278 C 0.97932 0.9507 0.2211 0.0
C279 C 0.96649 0.90859 0.20659 0.0
C280 C 0.9383 0.03985 0.64242 0.0
C281 C 0.91811 0.06628 0.68151 0.0
C282 C 0.95797 0.00145 0.65577 0.0
C283 C 0.95798 0.98734 0.70864 0.0
H284 H 0.93634 0.04726 0.60043 0.0
H285 H 0.97094 0.98143 0.62377 0.0
S286 S 0.91387 0.04551 0.8271 0.0
N287 N 0.9042 0.07731 0.77672 0.0
N288 N 0.93836 0.00313 0.80093 0.0
C289 C 0.94039 0.01403 0.74875 0.0
C290 C 0.921 0.05388 0.73534 0.0
C291 C 0.65795 0.466 0.186 0.0
C292 C 0.62902 0.43151 0.17397 0.0
C293 C 0.63996 0.50462 0.20342 0.0
C294 C 0.59231 0.51049 0.20982 0.0
H295 H 0.69461 0.4641 0.17871 0.0
H296 H 0.6636 0.53074 0.2097 0.0
S297 S 0.50213 0.42887 0.18971 0.0
N298 N 0.55061 0.40443 0.17495 0.0
N299 N 0.51681 0.47763 0.20657 0.0
C300 C 0.56318 0.47561 0.20136 0.0
C301 C 0.58152 0.43604 0.18357 0.0
C302 C 0.41364 0.45233 0.32207 0.0
C303 C 0.40405 0.44692 0.37672 0.0
C304 C 0.4376 0.48799 0.30405 0.0
C305 C 0.45312 0.51932 0.33997 0.0
H306 H 0.40195 0.42915 0.29293 0.0
H307 H 0.44204 0.49201 0.26155 0.0
S308 S 0.43681 0.52069 0.48689 0.0
N309 N 0.41133 0.47676 0.46646 0.0
N310 N 0.45785 0.54261 0.43256 0.0
C311 C 0.44437 0.5141 0.39466 0.0
C312 C 0.41965 0.47812 0.41305 0.0
C313 C 0.07345 0.05707 0.86085 0.0
C314 C 0.12163 0.06274 0.86342 0.0
C315 C 0.05385 0.01877 0.84299 0.0
C316 C 0.08166 0.98511 0.82625 0.0
H317 H 0.05072 0.08149 0.87573 0.0
H318 H 0.01715 0.0144 0.84664 0.0
S319 S 0.20895 0.98457 0.81859 0.0
N320 N 0.19626 0.03143 0.84366 0.0
N321 N 0.15911 0.96101 0.8076 0.0
C322 C 0.12945 0.99154 0.82416 0.0
C323 C 0.14953 0.02997 0.84318 0.0
C324 C 0.08055 0.16488 0.03345 0.0
C325 C 0.12507 0.14805 0.03211 0.0
C326 C 0.05455 0.1653 0.08055 0.0
C327 C 0.07183 0.14864 0.12826 0.0
H328 H 0.06461 0.17537 0.99694 0.0
H329 H 0.01927 0.17594 0.07861 0.0
S330 S 0.18884 0.10611 0.14763 0.0
N331 N 0.18745 0.11862 0.08379 0.0
N332 N 0.13816 0.11918 0.17268 0.0
C333 C 0.11782 0.13531 0.12879 0.0
C334 C 0.14452 0.13496 0.08052 0.0
C335 C 0.41588 0.31569 0.51587 0.0
C336 C 0.3751 0.33912 0.51401 0.0
C337 C 0.4422 0.31441 0.56263 0.0
C338 C 0.42867 0.33647 0.60921 0.0
H339 H 0.43009 0.30221 0.47946 0.0
H340 H 0.47571 0.29971 0.56064 0.0
S341 S 0.32063 0.3961 0.62755 0.0
N342 N 0.31913 0.37983 0.56459 0.0
N343 N 0.36853 0.37709 0.6528 0.0
C344 C 0.38519 0.35547 0.60981 0.0
C345 C 0.3584 0.35694 0.56197 0.0
C346 C 0.58327 0.32432 1.01132 0.0
C347 C 0.62819 0.34078 1.01059 0.0
C348 C 0.55588 0.32421 0.96546 0.0
C349 C 0.57213 0.34081 0.91699 0.0
H350 H 0.56807 0.31417 0.0486 0.0
H351 H 0.52042 0.31394 0.96908 0.0
S352 S 0.68966 0.38194 0.89213 0.0
N353 N 0.68977 0.36946 0.956 0.0
N354 N 0.63797 0.36944 0.86949 0.0
C355 C 0.61846 0.35353 0.91429 0.0
C356 C 0.64656 0.35357 0.96128 0.0
C357 C 0.86549 0.14176 0.49295 0.0
C358 C 0.88342 0.16455 0.53698 0.0
C359 C 0.88923 0.14009 0.44381 0.0
C360 C 0.93155 0.16112 0.43752 0.0
H361 H 0.83586 0.12137 0.49829 0.0
H362 H 0.87722 0.1184 0.41303 0.0
S363 S 0.98783 0.23176 0.5369 0.0
N364 N 0.94178 0.21375 0.56816 0.0
N365 N 0.98624 0.21074 0.47621 0.0
C366 C 0.94653 0.18808 0.47902 0.0
C367 C 0.92251 0.18975 0.52876 0.0
C368 C 0.92745 0.7852 1.01516 0.0
C369 C 0.89998 0.81715 0.03775 0.0
C370 C 0.94562 0.78902 0.96331 0.0
C371 C 0.9363 0.82452 0.93212 0.0
H372 H 0.93847 0.75911 0.03937 0.0
H373 H 0.97073 0.76617 0.94965 0.0
S374 S 0.85985 0.91304 0.96942 0.0
N375 N 0.85919 0.88243 1.02226 0.0
N376 N 0.89342 0.88942 0.92502 0.0
C377 C 0.90503 0.85428 0.95216 0.0
C378 C 0.88686 0.85066 1.00499 0.0
C379 C 0.61762 0.65731 0.50173 0.0
C380 C 0.60291 0.688 0.53912 0.0
C381 C 0.59749 0.65399 0.45093 0.0
C382 C 0.56166 0.68093 0.43634 0.0
H383 H 0.64177 0.63335 0.51361 0.0
H384 H 0.60598 0.62704 0.42581 0.0
S385 S 0.51667 0.77102 0.51583 0.0
N386 N 0.55555 0.74966 0.55488 0.0
N387 N 0.51723 0.74296 0.45977 0.0
C388 C 0.55071 0.71473 0.47085 0.0
C389 C 0.57143 0.71836 0.52231 0.0
C390 C 0.44893 0.71162 0.02508 0.0
C391 C 0.41634 0.68193 1.00703 0.0
C392 C 0.46825 0.70852 0.07604 0.0
C393 C 0.45489 0.6762 0.11082 0.0
H394 H 0.46259 0.73497 0.99803 0.0
H395 H 0.49656 0.72934 0.08661 0.0
S396 S 0.36542 0.59506 0.08547 0.0
N397 N 0.36739 0.6225 0.02989 0.0
N398 N 0.40338 0.61717 0.12621 0.0
C399 C 0.41894 0.64914 0.09534 0.0
C400 C 0.39976 0.65184 0.04313 0.0
C401 C 0.1044 0.78244 0.53907 0.0
C402 C 0.1249 0.81866 0.51726 0.0
C403 C 0.08522 0.7834 0.59073 0.0
C404 C 0.08635 0.82039 0.62237 0.0
H405 H 0.09896 0.75463 0.51428 0.0
H406 H 0.06532 0.75645 0.6038 0.0
S407 S 0.14188 0.92155 0.58663 0.0
N408 N 0.15123 0.89041 0.53439 0.0
N409 N 0.11284 0.89282 0.62981 0.0
C410 C 0.11051 0.85538 0.60287 0.0
C411 C 0.13058 0.85427 0.55082 0.0
C412 C 0.19401 0.23758 0.33822 0.0
C413 C 0.185 0.27198 0.30523 0.0
C414 C 0.16934 0.19984 0.33285 0.0
C415 C 0.13361 0.19494 0.2952 0.0
H416 H 0.21764 0.24064 0.37137 0.0
H417 H 0.17585 0.1755 0.36176 0.0
S418 S 0.10535 0.27072 0.18919 0.0
N419 N 0.14562 0.29482 0.22482 0.0
N420 N 0.09682 0.22465 0.21754 0.0
C421 C 0.12791 0.22699 0.25781 0.0
C422 C 0.154 0.26537 0.26237 0.0
C423 C 0.30755 0.26199 0.81032 0.0
C424 C 0.32862 0.22227 0.80698 0.0
C425 C 0.3299 0.29797 0.79101 0.0
C426 C 0.3742 0.2955 0.7683 0.0
H427 H 0.2764 0.26629 0.83353 0.0
H428 H 0.31522 0.32848 0.80057 0.0
S429 S 0.43662 0.19749 0.73401 0.0
N430 N 0.39014 0.18126 0.76602 0.0
N431 N 0.43279 0.24934 0.73147 0.0
C432 C 0.39175 0.25541 0.75638 0.0
C433 C 0.36888 0.2186 0.7757 0.0
C434 C 0.69664 0.25967 0.71228 0.0
C435 C 0.68642 0.22397 0.74283 0.0
C436 C 0.67097 0.29651 0.71766 0.0
C437 C 0.63307 0.29913 0.75276 0.0
H438 H 0.72219 0.25838 0.68079 0.0
H439 H 0.67856 0.32197 0.69053 0.0
S440 S 0.59983 0.21914 0.85228 0.0
N441 N 0.64274 0.19733 0.8187 0.0
N442 N 0.59213 0.2659 0.82574 0.0
C443 C 0.62574 0.26575 0.78799 0.0
C444 C 0.6528 0.22827 0.78349 0.0
C445 C 0.81174 0.23277 0.23182 0.0
C446 C 0.83408 0.2722 0.2324 0.0
C447 C 0.83297 0.19721 0.25312 0.0
C448 C 0.87741 0.19971 0.27527 0.0
H449 H 0.78028 0.22816 0.20941 0.0
H450 H 0.81718 0.16667 0.24573 0.0
S451 S 0.94355 0.2977 0.30191 0.0
N452 N 0.89743 0.3135 0.2696 0.0
N453 N 0.9379 0.24615 0.30793 0.0
C454 C 0.89649 0.23987 0.28408 0.0
C455 C 0.87478 0.27627 0.26267 0.0
C456 C 0.79668 0.79434 0.81562 0.0
C457 C 0.77745 0.76779 0.77545 0.0
C458 C 0.84392 0.80435 0.81622 0.0
C459 C 0.87367 0.78724 0.77755 0.0
H460 H 0.7746 0.81028 0.84422 0.0
H461 H 0.8561 0.82875 0.84343 0.0
S462 S 0.84443 0.70789 0.673 0.0
N463 N 0.79482 0.71942 0.70153 0.0
N464 N 0.88326 0.73584 0.70597 0.0
C465 C 0.85638 0.75579 0.7429 0.0
C466 C 0.80835 0.74661 0.74093 0.0
C467 C 0.71801 0.69723 0.32461 0.0
C468 C 0.73371 0.72805 0.2883 0.0
C469 C 0.67081 0.68873 0.33144 0.0
C470 C 0.63784 0.71169 0.30349 0.0
H471 H 0.74221 0.67638 0.34345 0.0
H472 H 0.66075 0.6605 0.35242 0.0
S473 S 0.65889 0.80576 0.22105 0.0
N474 N 0.7107 0.78841 0.23539 0.0
N475 N 0.6228 0.77425 0.25235 0.0
C476 C 0.65264 0.74821 0.27721 0.0
C477 C 0.70048 0.75588 0.26815 0.0
C478 C 0.30643 0.69813 0.24887 0.0
C479 C 0.28559 0.70789 0.29851 0.0
C480 C 0.35186 0.68345 0.24555 0.0
C481 C 0.37826 0.67778 0.29175 0.0
H482 H 0.28716 0.70112 0.21219 0.0
H483 H 0.36576 0.6751 0.20668 0.0
S484 S 0.34231 0.70351 0.43087 0.0
N485 N 0.29642 0.71329 0.39461 0.0
N486 N 0.38215 0.6878 0.38809 0.0
C487 C 0.35887 0.68974 0.34128 0.0
C488 C 0.31253 0.70433 0.34474 0.0
C489 C 0.21476 0.75498 0.81768 0.0
C490 C 0.24523 0.77641 0.78354 0.0
C491 C 0.16739 0.76232 0.8163 0.0
C492 C 0.14838 0.7921 0.78162 0.0
H493 H 0.22761 0.73487 0.84877 0.0
H494 H 0.14597 0.74709 0.8459 0.0
S495 S 0.21207 0.85036 0.67715 0.0
N496 N 0.25177 0.82218 0.70675 0.0
N497 N 0.1633 0.83926 0.708 0.0
C498 C 0.17777 0.81074 0.74396 0.0
C499 C 0.22601 0.80219 0.74414 0.0
loop_
_geom_bond_atom_site_label_1
_geom_bond_atom_site_label_2
_geom_bond_distance
_geom_bond_site_symmetry_2
_ccdc_geom_bond_type
H0 C1 0.949 . S
C1 H0 0.949 . S
C1 C2 1.395 . S
C1 C3 1.391 . S
C2 C1 1.395 . S
C2 C5 1.390 . S
C3 C1 1.391 . S
C3 C7 1.387 . S
C3 C8 1.491 . S
H4 C5 0.950 . S
C5 C2 1.390 . S
C5 H4 0.950 . S
C5 C6 1.378 . S
C6 C5 1.378 . S
C6 C7 1.409 . S
C7 C3 1.387 . S
C7 C6 1.409 . S
C7 H9 0.951 . S
C8 C3 1.491 . S
C8 C10 1.382 . S
C8 C12 1.404 . S
H9 C7 0.951 . S
C10 C8 1.382 . S
C10 C11 1.390 . S
C10 H15 0.949 . S
C11 C10 1.390 . S
C11 C16 1.399 . S
C12 C8 1.404 . S
C12 H13 0.950 . S
C12 C14 1.375 . S
H13 C12 0.950 . S
C14 C12 1.375 . S
C14 C16 1.382 . S
C14 H18 0.950 . S
H15 C10 0.949 . S
C16 C11 1.399 . S
C16 C14 1.382 . S
C16 H17 0.952 . S
H17 C16 0.952 . S
H18 C14 0.950 . S
H19 C20 0.949 . S
C20 H19 0.949 . S
C20 C21 1.395 . S
C20 C22 1.391 . S
C21 C20 1.395 . S
C21 C24 1.390 . S
C22 C20 1.391 . S
C22 C26 1.387 . S
C22 C27 1.491 . S
H23 C24 0.950 . S
C24 C21 1.390 . S
C24 H23 0.950 . S
C24 C25 1.378 . S
C25 C24 1.378 . S
C25 C26 1.409 . S
C26 C22 1.387 . S
C26 C25 1.409 . S
C26 H28 0.951 . S
C27 C22 1.491 . S
C27 C29 1.382 . S
C27 C31 1.404 . S
H28 C26 0.951 . S
C29 C27 1.382 . S
C29 C30 1.390 . S
C29 H34 0.949 . S
C30 C29 1.390 . S
C30 C35 1.399 . S
C31 C27 1.404 . S
C31 H32 0.950 . S
C31 C33 1.375 . S
H32 C31 0.950 . S
C33 C31 1.375 . S
C33 C35 1.382 . S
C33 H37 0.950 . S
H34 C29 0.949 . S
C35 C30 1.399 . S
C35 C33 1.382 . S
C35 H36 0.952 . S
H36 C35 0.952 . S
H37 C33 0.950 . S
H38 C39 0.949 . S
C39 H38 0.949 . S
C39 C40 1.395 . S
C39 C41 1.391 . S
C40 C39 1.395 . S
C40 C43 1.390 . S
C41 C39 1.391 . S
C41 C45 1.387 . S
C41 C46 1.491 . S
H42 C43 0.950 . S
C43 C40 1.390 . S
C43 H42 0.950 . S
C43 C44 1.378 . S
C44 C43 1.378 . S
C44 C45 1.409 . S
C45 C41 1.387 . S
C45 C44 1.409 . S
C45 H47 0.951 . S
C46 C41 1.491 . S
C46 C48 1.382 . S
C46 C50 1.404 . S
H47 C45 0.951 . S
C48 C46 1.382 . S
C48 C49 1.390 . S
C48 H53 0.949 . S
C49 C48 1.390 . S
C49 C54 1.399 . S
C50 C46 1.404 . S
C50 H51 0.950 . S
C50 C52 1.375 . S
H51 C50 0.950 . S
C52 C50 1.375 . S
C52 C54 1.382 . S
C52 H56 0.950 . S
H53 C48 0.949 . S
C54 C49 1.399 . S
C54 C52 1.382 . S
C54 H55 0.952 . S
H55 C54 0.952 . S
H56 C52 0.950 . S
H57 C58 0.949 . S
C58 H57 0.949 . S
C58 C59 1.395 . S
C58 C60 1.391 . S
C59 C58 1.395 . S
C59 C62 1.390 . S
C60 C58 1.391 . S
C60 C64 1.387 . S
C60 C65 1.491 . S
H61 C62 0.950 . S
C62 C59 1.390 . S
C62 H61 0.950 . S
C62 C63 1.378 . S
C63 C62 1.378 . S
C63 C64 1.409 . S
C64 C60 1.387 . S
C64 C63 1.409 . S
C64 H66 0.951 . S
C65 C60 1.491 . S
C65 C67 1.382 . S
C65 C69 1.404 . S
H66 C64 0.951 . S
C67 C65 1.382 . S
C67 C68 1.390 . S
C67 H72 0.949 . S
C68 C67 1.390 . S
C68 C73 1.399 . S
C69 C65 1.404 . S
C69 H70 0.950 . S
C69 C71 1.375 . S
H70 C69 0.950 . S
C71 C69 1.375 . S
C71 C73 1.382 . S
C71 H75 0.950 . S
H72 C67 0.949 . S
C73 C68 1.399 . S
C73 C71 1.382 . S
C73 H74 0.952 . S
H74 C73 0.952 . S
H75 C71 0.950 . S
H76 C77 0.949 . S
C77 H76 0.949 . S
C77 C78 1.395 . S
C77 C79 1.391 . S
C78 C77 1.395 . S
C78 C81 1.390 . S
C79 C77 1.391 . S
C79 C83 1.387 . S
C79 C84 1.491 . S
H80 C81 0.950 . S
C81 C78 1.390 . S
C81 H80 0.950 . S
C81 C82 1.378 . S
C82 C81 1.378 . S
C82 C83 1.409 . S
C83 C79 1.387 . S
C83 C82 1.409 . S
C83 H85 0.951 . S
C84 C79 1.491 . S
C84 C86 1.382 . S
C84 C88 1.404 . S
H85 C83 0.951 . S
C86 C84 1.382 . S
C86 C87 1.390 . S
C86 H91 0.949 . S
C87 C86 1.390 . S
C87 C92 1.399 . S
C88 C84 1.404 . S
C88 H89 0.950 . S
C88 C90 1.375 . S
H89 C88 0.950 . S
C90 C88 1.375 . S
C90 C92 1.382 . S
C90 H94 0.950 . S
H91 C86 0.949 . S
C92 C87 1.399 . S
C92 C90 1.382 . S
C92 H93 0.952 . S
H93 C92 0.952 . S
H94 C90 0.950 . S
H95 C96 0.949 . S
C96 H95 0.949 . S
C96 C97 1.395 . S
C96 C98 1.391 . S
C97 C96 1.395 . S
C97 C100 1.390 . S
C98 C96 1.391 . S
C98 C102 1.387 . S
C98 C103 1.491 . S
H99 C100 0.950 . S
C100 C97 1.390 . S
C100 H99 0.950 . S
C100 C101 1.378 . S
C101 C100 1.378 . S
C101 C102 1.409 . S
C102 C98 1.387 . S
C102 C101 1.409 . S
C102 H104 0.951 . S
C103 C98 1.491 . S
C103 C105 1.382 . S
C103 C107 1.404 . S
H104 C102 0.951 . S
C105 C103 1.382 . S
C105 C106 1.390 . S
C105 H110 0.949 . S
C106 C105 1.390 . S
C106 C111 1.399 . S
C107 C103 1.404 . S
C107 H108 0.950 . S
C107 C109 1.375 . S
H108 C107 0.950 . S
C109 C107 1.375 . S
C109 C111 1.382 . S
C109 H113 0.950 . S
H110 C105 0.949 . S
C111 C106 1.399 . S
C111 C109 1.382 . S
C111 H112 0.952 . S
H112 C111 0.952 . S
H113 C109 0.950 . S
H114 C115 0.949 . S
C115 H114 0.949 . S
C115 C116 1.395 . S
C115 C117 1.391 . S
C116 C115 1.395 . S
C116 C119 1.390 . S
C117 C115 1.391 . S
C117 C121 1.387 . S
C117 C122 1.491 . S
H118 C119 0.950 . S
C119 C116 1.390 . S
C119 H118 0.950 . S
C119 C120 1.378 . S
C120 C119 1.378 . S
C120 C121 1.409 . S
C121 C117 1.387 . S
C121 C120 1.409 . S
C121 H123 0.951 . S
C122 C117 1.491 . S
C122 C124 1.382 . S
C122 C126 1.404 . S
H123 C121 0.951 . S
C124 C122 1.382 . S
C124 C125 1.390 . S
C124 H129 0.949 . S
C125 C124 1.390 . S
C125 C130 1.399 . S
C126 C122 1.404 . S
C126 H127 0.950 . S
C126 C128 1.375 . S
H127 C126 0.950 . S
C128 C126 1.375 . S
C128 C130 1.382 . S
C128 H132 0.950 . S
H129 C124 0.949 . S
C130 C125 1.399 . S
C130 C128 1.382 . S
C130 H131 0.952 . S
H131 C130 0.952 . S
H132 C128 0.950 . S
H133 C134 0.949 . S
C134 H133 0.949 . S
C134 C135 1.395 . S
C134 C136 1.391 . S
C135 C134 1.395 . S
C135 C138 1.390 . S
C136 C134 1.391 . S
C136 C140 1.387 . S
C136 C141 1.491 . S
H137 C138 0.950 . S
C138 C135 1.390 . S
C138 H137 0.950 . S
C138 C139 1.378 . S
C139 C138 1.378 . S
C139 C140 1.409 . S
C140 C136 1.387 . S
C140 C139 1.409 . S
C140 H142 0.951 . S
C141 C136 1.491 . S
C141 C143 1.382 . S
C141 C145 1.404 . S
H142 C140 0.951 . S
C143 C141 1.382 . S
C143 C144 1.390 . S
C143 H148 0.949 . S
C144 C143 1.390 . S
C144 C149 1.399 . S
C145 C141 1.404 . S
C145 H146 0.950 . S
C145 C147 1.375 . S
H146 C145 0.950 . S
C147 C145 1.375 . S
C147 C149 1.382 . S
C147 H151 0.950 . S
H148 C143 0.949 . S
C149 C144 1.399 . S
C149 C147 1.382 . S
C149 H150 0.952 . S
H150 C149 0.952 . S
H151 C147 0.950 . S
Zn152 O158 1.920 1_455 S
Zn152 O164 1.898 . S
Zn152 O167 1.905 . S
Zn153 O161 1.905 1_655 S
Zn153 O162 1.898 . S
Zn153 O170 1.920 . S
Zn154 O157 2.080 1_455 S
Zn154 O160 2.114 . S
Zn154 O163 2.120 1_455 S
Zn154 O165 2.120 . S
Zn154 O166 2.114 . S
Zn154 O169 2.080 1_455 S
C155 O160 1.166 . S
C155 O161 1.182 . S
C156 O162 1.167 . S
C156 O163 1.299 . S
O157 Zn154 2.080 1_655 S
O157 C171 1.305 . S
O158 Zn152 1.920 1_655 S
O158 C171 1.234 . S
C159 O164 1.167 . S
C159 O165 1.299 . S
O160 Zn154 2.114 . S
O160 C155 1.166 . S
O161 Zn153 1.905 1_455 S
O161 C155 1.182 . S
O162 Zn153 1.898 . S
O162 C156 1.167 . S
O163 Zn154 2.120 1_655 S
O163 C156 1.299 . S
O164 Zn152 1.898 . S
O164 C159 1.167 . S
O165 Zn154 2.120 . S
O165 C159 1.299 . S
O166 Zn154 2.114 . S
O166 C168 1.166 . S
O167 Zn152 1.905 . S
O167 C168 1.182 . S
C168 O166 1.166 . S
C168 O167 1.182 . S
O169 Zn154 2.080 1_655 S
O169 C172 1.305 . S
O170 Zn153 1.920 . S
O170 C172 1.234 . S
C171 O157 1.305 . S
C171 O158 1.234 . S
C172 O169 1.305 . S
C172 O170 1.234 . S
Zn173 O179 1.920 . S
Zn173 O185 1.898 . S
Zn173 O188 1.905 . S
Zn174 O182 1.905 . S
Zn174 O183 1.898 . S
Zn174 O191 1.920 . S
Zn175 O178 2.080 . S
Zn175 O181 2.114 . S
Zn175 O184 2.120 . S
Zn175 O186 2.120 . S
Zn175 O187 2.114 . S
Zn175 O190 2.080 . S
C176 O181 1.166 . S
C176 O182 1.182 . S
C177 O183 1.167 . S
C177 O184 1.299 . S
O178 Zn175 2.080 . S
O178 C192 1.305 . S
O179 Zn173 1.920 . S
O179 C192 1.234 . S
C180 O185 1.167 . S
C180 O186 1.299 . S
O181 Zn175 2.114 . S
O181 C176 1.166 . S
O182 Zn174 1.905 . S
O182 C176 1.182 . S
O183 Zn174 1.898 . S
O183 C177 1.167 . S
O184 Zn175 2.120 . S
O184 C177 1.299 . S
O185 Zn173 1.898 . S
O185 C180 1.167 . S
O186 Zn175 2.120 . S
O186 C180 1.299 . S
O187 Zn175 2.114 . S
O187 C189 1.166 . S
O188 Zn173 1.905 . S
O188 C189 1.182 . S
C189 O187 1.166 . S
C189 O188 1.182 . S
O190 Zn175 2.080 . S
O190 C193 1.305 . S
O191 Zn174 1.920 . S
O191 C193 1.234 . S
C192 O178 1.305 . S
C192 O179 1.234 . S
C193 O190 1.305 . S
C193 O191 1.234 . S
Zn194 O200 1.920 . S
Zn194 O206 1.898 . S
Zn194 O209 1.905 1_455 S
Zn195 O203 1.905 . S
Zn195 O204 1.898 . S
Zn195 O212 1.920 1_655 S
Zn196 O199 2.093 . S
Zn196 O202 2.100 1_455 S
Zn196 O205 2.108 1_455 S
Zn196 O207 2.134 . S
Zn196 O208 2.104 1_455 S
Zn196 O211 2.091 . S
C197 O202 1.166 . S
C197 O203 1.182 . S
C198 O204 1.167 . S
C198 O205 1.299 . S
O199 Zn196 2.093 . S
O199 C213 1.305 . S
O200 Zn194 1.920 . S
O200 C213 1.234 . S
C201 O206 1.167 . S
C201 O207 1.299 . S
O202 Zn196 2.100 1_655 S
O202 C197 1.166 . S
O203 Zn195 1.905 . S
O203 C197 1.182 . S
O204 Zn195 1.898 . S
O204 C198 1.167 . S
O205 Zn196 2.108 1_655 S
O205 C198 1.299 . S
O206 Zn194 1.898 . S
O206 C201 1.167 . S
O207 Zn196 2.134 . S
O207 C201 1.299 . S
O208 Zn196 2.104 1_655 S
O208 C210 1.166 . S
O209 Zn194 1.905 1_655 S
O209 C210 1.182 . S
C210 O208 1.166 . S
C210 O209 1.182 . S
O211 Zn196 2.091 . S
O211 C214 1.305 . S
O212 Zn195 1.920 1_455 S
O212 C214 1.234 . S
C213 O199 1.305 . S
C213 O200 1.234 . S
C214 O211 1.305 . S
C214 O212 1.234 . S
Zn215 O221 1.920 . S
Zn215 O227 1.898 . S
Zn215 O230 1.905 . S
Zn216 O224 1.905 . S
Zn216 O225 1.898 . S
Zn216 O233 1.920 . S
Zn217 O220 2.080 . S
Zn217 O223 2.114 . S
Zn217 O226 2.120 . S
Zn217 O228 2.120 . S
Zn217 O229 2.114 . S
Zn217 O232 2.080 . S
C218 O223 1.166 . S
C218 O224 1.182 . S
C219 O225 1.167 . S
C219 O226 1.299 . S
O220 Zn217 2.080 . S
O220 C234 1.305 . S
O221 Zn215 1.920 . S
O221 C234 1.234 . S
C222 O227 1.167 . S
C222 O228 1.299 . S
O223 Zn217 2.114 . S
O223 C218 1.166 . S
O224 Zn216 1.905 . S
O224 C218 1.182 . S
O225 Zn216 1.898 . S
O225 C219 1.167 . S
O226 Zn217 2.120 . S
O226 C219 1.299 . S
O227 Zn215 1.898 . S
O227 C222 1.167 . S
O228 Zn217 2.120 . S
O228 C222 1.299 . S
O229 Zn217 2.114 . S
O229 C231 1.166 . S
O230 Zn215 1.905 . S
O230 C231 1.182 . S
C231 O229 1.166 . S
C231 O230 1.182 . S
O232 Zn217 2.080 . S
O232 C235 1.305 . S
O233 Zn216 1.920 . S
O233 C235 1.234 . S
C234 O220 1.305 . S
C234 O221 1.234 . S
C235 O232 1.305 . S
C235 O233 1.234 . S
C236 C237 1.369 . S
C236 C238 1.419 . S
C236 H240 0.930 . S
C237 C236 1.369 . S
C237 C246 1.429 . S
C238 C236 1.419 . S
C238 C239 1.363 . S
C238 H241 0.929 1_565 S
C239 C238 1.363 . S
C239 C245 1.428 . S
H240 C236 0.930 . S
H241 C238 0.929 1_545 S
S242 N243 1.613 . S
S242 N244 1.610 . S
N243 S242 1.613 . S
N243 C246 1.350 . S
N244 S242 1.610 . S
N244 C245 1.351 . S
C245 C239 1.428 . S
C245 N244 1.351 . S
C245 C246 1.434 . S
C246 C237 1.429 . S
C246 N243 1.350 . S
C246 C245 1.434 . S
C247 C248 1.369 . S
C247 C249 1.419 . S
C247 H251 0.930 . S
C248 C247 1.369 . S
C248 C257 1.429 . S
C249 C247 1.419 . S
C249 C250 1.363 . S
C249 H252 0.929 . S
C250 C249 1.363 . S
C250 C256 1.428 . S
H251 C247 0.930 . S
H252 C249 0.929 . S
S253 N254 1.613 . S
S253 N255 1.610 . S
N254 S253 1.613 . S
N254 C257 1.350 . S
N255 S253 1.610 . S
N255 C256 1.351 . S
C256 C250 1.428 . S
C256 N255 1.351 . S
C256 C257 1.434 . S
C257 C248 1.429 . S
C257 N254 1.350 . S
C257 C256 1.434 . S
C258 C259 1.369 . S
C258 C260 1.419 . S
C258 H262 0.930 . S
C259 C258 1.369 . S
C259 C268 1.429 . S
C260 C258 1.419 . S
C260 C261 1.363 . S
C260 H263 0.929 . S
C261 C260 1.363 . S
C261 C267 1.428 . S
H262 C258 0.930 . S
H263 C260 0.929 . S
S264 N265 1.613 . S
S264 N266 1.610 . S
N265 S264 1.613 . S
N265 C268 1.350 . S
N266 S264 1.610 . S
N266 C267 1.351 . S
C267 C261 1.428 . S
C267 N266 1.351 . S
C267 C268 1.434 . S
C268 C259 1.429 . S
C268 N265 1.350 . S
C268 C267 1.434 . S
C269 C270 1.369 . S
C269 C271 1.419 . S
C269 H273 0.930 . S
C270 C269 1.369 . S
C270 C279 1.429 . S
C271 C269 1.419 . S
C271 C272 1.363 . S
C271 H274 0.929 1_565 S
C272 C271 1.363 . S
C272 C278 1.428 . S
H273 C269 0.930 . S
H274 C271 0.929 1_545 S
S275 N276 1.613 1_455 S
S275 N277 1.608 1_455 S
N276 S275 1.613 1_655 S
N276 C279 1.350 . S
N277 S275 1.608 1_655 S
N277 C278 1.365 . S
C278 C272 1.428 . S
C278 N277 1.365 . S
C278 C279 1.434 . S
C279 C270 1.429 . S
C279 N276 1.350 . S
C279 C278 1.434 . S
C280 C281 1.369 . S
C280 C282 1.419 . S
C280 H284 0.930 . S
C281 C280 1.369 . S
C281 C290 1.429 . S
C282 C280 1.419 . S
C282 C283 1.363 . S
C282 H285 0.929 1_545 S
C283 C282 1.363 . S
C283 C289 1.428 . S
H284 C280 0.930 . S
H285 C282 0.929 1_565 S
S286 N287 1.613 . S
S286 N288 1.610 . S
N287 S286 1.613 . S
N287 C290 1.350 . S
N288 S286 1.610 . S
N288 C289 1.351 . S
C289 C283 1.428 . S
C289 N288 1.351 . S
C289 C290 1.434 . S
C290 C281 1.429 . S
C290 N287 1.350 . S
C290 C289 1.434 . S
C291 C292 1.369 . S
C291 C293 1.419 . S
C291 H295 0.930 . S
C292 C291 1.369 . S
C292 C301 1.429 . S
C293 C291 1.419 . S
C293 C294 1.363 . S
C293 H296 0.929 . S
C294 C293 1.363 . S
C294 C300 1.428 . S
H295 C291 0.930 . S
H296 C293 0.929 . S
S297 N298 1.613 . S
S297 N299 1.610 . S
N298 S297 1.613 . S
N298 C301 1.350 . S
N299 S297 1.610 . S
N299 C300 1.351 . S
C300 C294 1.428 . S
C300 N299 1.351 . S
C300 C301 1.434 . S
C301 C292 1.429 . S
C301 N298 1.350 . S
C301 C300 1.434 . S
C302 C303 1.369 . S
C302 C304 1.419 . S
C302 H306 0.930 . S
C303 C302 1.369 . S
C303 C312 1.429 . S
C304 C302 1.419 . S
C304 C305 1.363 . S
C304 H307 0.929 . S
C305 C304 1.363 . S
C305 C311 1.428 . S
H306 C302 0.930 . S
H307 C304 0.929 . S
S308 N309 1.613 . S
S308 N310 1.610 . S
N309 S308 1.613 . S
N309 C312 1.350 . S
N310 S308 1.610 . S
N310 C311 1.351 . S
C311 C305 1.428 . S
C311 N310 1.351 . S
C311 C312 1.434 . S
C312 C303 1.429 . S
C312 N309 1.350 . S
C312 C311 1.434 . S
C313 C314 1.369 . S
C313 C315 1.419 . S
C313 H317 0.930 . S
C314 C313 1.369 . S
C314 C323 1.429 . S
C315 C313 1.419 . S
C315 C316 1.363 . S
C315 H318 0.929 . S
C316 C315 1.363 . S
C316 C322 1.428 . S
H317 C313 0.930 . S
H318 C315 0.929 . S
S319 N320 1.613 . S
S319 N321 1.610 1_545 S
N320 S319 1.613 . S
N320 C323 1.350 . S
N321 S319 1.610 1_565 S
N321 C322 1.351 1_565 S
C322 C316 1.428 . S
C322 N321 1.351 1_545 S
C322 C323 1.434 . S
C323 C314 1.429 . S
C323 N320 1.350 . S
C323 C322 1.434 . S
C324 C325 1.369 . S
C324 C326 1.419 . S
C324 H328 0.930 . S
C325 C324 1.369 . S
C325 C334 1.429 . S
C326 C324 1.419 . S
C326 C327 1.363 . S
C326 H329 0.929 . S
C327 C326 1.363 . S
C327 C333 1.428 . S
H328 C324 0.930 . S
H329 C326 0.929 . S
S330 N331 1.613 1_554 S
S330 N332 1.610 . S
N331 S330 1.613 1_556 S
N331 C334 1.350 1_556 S
N332 S330 1.610 . S
N332 C333 1.351 . S
C333 C327 1.428 . S
C333 N332 1.351 . S
C333 C334 1.434 . S
C334 C325 1.429 . S
C334 N331 1.350 1_554 S
C334 C333 1.434 . S
C335 C336 1.369 . S
C335 C337 1.419 . S
C335 H339 0.930 . S
C336 C335 1.369 . S
C336 C345 1.429 . S
C337 C335 1.419 . S
C337 C338 1.363 . S
C337 H340 0.929 . S
C338 C337 1.363 . S
C338 C344 1.428 . S
H339 C335 0.930 . S
H340 C337 0.929 . S
S341 N342 1.613 . S
S341 N343 1.610 . S
N342 S341 1.613 . S
N342 C345 1.350 . S
N343 S341 1.610 . S
N343 C344 1.351 . S
C344 C338 1.428 . S
C344 N343 1.351 . S
C344 C345 1.434 . S
C345 C336 1.429 . S
C345 N342 1.350 . S
C345 C344 1.434 . S
C346 C347 1.369 . S
C346 C348 1.419 . S
C346 H350 0.930 . S
C347 C346 1.369 . S
C347 C356 1.429 . S
C348 C346 1.419 . S
C348 C349 1.363 . S
C348 H351 0.929 . S
C349 C348 1.363 . S
C349 C355 1.428 . S
H350 C346 0.930 . S
H351 C348 0.929 . S
S352 N353 1.613 . S
S352 N354 1.610 . S
N353 S352 1.613 . S
N353 C356 1.350 . S
N354 S352 1.610 . S
N354 C355 1.351 . S
C355 C349 1.428 . S
C355 N354 1.351 . S
C355 C356 1.434 . S
C356 C347 1.429 . S
C356 N353 1.350 . S
C356 C355 1.434 . S
C357 C358 1.369 . S
C357 C359 1.419 . S
C357 H361 0.930 . S
C358 C357 1.369 . S
C358 C367 1.429 . S
C359 C357 1.419 . S
C359 C360 1.363 . S
C359 H362 0.929 . S
C360 C359 1.363 . S
C360 C366 1.428 . S
H361 C357 0.930 . S
H362 C359 0.929 . S
S363 N364 1.613 . S
S363 N365 1.610 . S
N364 S363 1.613 . S
N364 C367 1.350 . S
N365 S363 1.610 . S
N365 C366 1.351 . S
C366 C360 1.428 . S
C366 N365 1.351 . S
C366 C367 1.434 . S
C367 C358 1.429 . S
C367 N364 1.350 . S
C367 C366 1.434 . S
C368 C369 1.369 . S
C368 C370 1.419 . S
C368 H372 0.930 . S
C369 C368 1.369 . S
C369 C378 1.429 . S
C370 C368 1.419 . S
C370 C371 1.363 . S
C370 H373 0.929 . S
C371 C370 1.363 . S
C371 C377 1.428 . S
H372 C368 0.930 . S
H373 C370 0.929 . S
S374 N375 1.613 1_556 S
S374 N376 1.610 . S
N375 S374 1.613 1_554 S
N375 C378 1.350 1_554 S
N376 S374 1.610 . S
N376 C377 1.351 . S
C377 C371 1.428 . S
C377 N376 1.351 . S
C377 C378 1.434 . S
C378 C369 1.429 . S
C378 N375 1.350 1_556 S
C378 C377 1.434 . S
C379 C380 1.369 . S
C379 C381 1.419 . S
C379 H383 0.930 . S
C380 C379 1.369 . S
C380 C389 1.429 . S
C381 C379 1.419 . S
C381 C382 1.363 . S
C381 H384 0.929 . S
C382 C381 1.363 . S
C382 C388 1.428 . S
H383 C379 0.930 . S
H384 C381 0.929 . S
S385 N386 1.613 . S
S385 N387 1.610 . S
N386 S385 1.613 . S
N386 C389 1.350 . S
N387 S385 1.610 . S
N387 C388 1.351 . S
C388 C382 1.428 . S
C388 N387 1.351 . S
C388 C389 1.434 . S
C389 C380 1.429 . S
C389 N386 1.350 . S
C389 C388 1.434 . S
C390 C391 1.369 . S
C390 C392 1.419 . S
C390 H394 0.930 1_554 S
C391 C390 1.369 . S
C391 C400 1.429 . S
C392 C390 1.419 . S
C392 C393 1.363 . S
C392 H395 0.929 . S
C393 C392 1.363 . S
C393 C399 1.428 . S
H394 C390 0.930 1_556 S
H395 C392 0.929 . S
S396 N397 1.613 . S
S396 N398 1.610 . S
N397 S396 1.613 . S
N397 C400 1.350 . S
N398 S396 1.610 . S
N398 C399 1.351 . S
C399 C393 1.428 . S
C399 N398 1.351 . S
C399 C400 1.434 . S
C400 C391 1.429 . S
C400 N397 1.350 . S
C400 C399 1.434 . S
C401 C402 1.369 . S
C401 C403 1.419 . S
C401 H405 0.930 . S
C402 C401 1.369 . S
C402 C411 1.429 . S
C403 C401 1.419 . S
C403 C404 1.363 . S
C403 H406 0.929 . S
C404 C403 1.363 . S
C404 C410 1.428 . S
H405 C401 0.930 . S
H406 C403 0.929 . S
S407 N408 1.613 . S
S407 N409 1.610 . S
N408 S407 1.613 . S
N408 C411 1.350 . S
N409 S407 1.610 . S
N409 C410 1.351 . S
C410 C404 1.428 . S
C410 N409 1.351 . S
C410 C411 1.434 . S
C411 C402 1.429 . S
C411 N408 1.350 . S
C411 C410 1.434 . S
C412 C413 1.369 . S
C412 C414 1.419 . S
C412 H416 0.930 . S
C413 C412 1.369 . S
C413 C422 1.429 . S
C414 C412 1.419 . S
C414 C415 1.363 . S
C414 H417 0.929 . S
C415 C414 1.363 . S
C415 C421 1.428 . S
H416 C412 0.930 . S
H417 C414 0.929 . S
S418 N419 1.613 . S
S418 N420 1.610 . S
N419 S418 1.613 . S
N419 C422 1.350 . S
N420 S418 1.610 . S
N420 C421 1.351 . S
C421 C415 1.428 . S
C421 N420 1.351 . S
C421 C422 1.434 . S
C422 C413 1.429 . S
C422 N419 1.350 . S
C422 C421 1.434 . S
C423 C424 1.369 . S
C423 C425 1.419 . S
C423 H427 0.930 . S
C424 C423 1.369 . S
C424 C433 1.429 . S
C425 C423 1.419 . S
C425 C426 1.363 . S
C425 H428 0.929 . S
C426 C425 1.363 . S
C426 C432 1.428 . S
H427 C423 0.930 . S
H428 C425 0.929 . S
S429 N430 1.613 . S
S429 N431 1.610 . S
N430 S429 1.613 . S
N430 C433 1.350 . S
N431 S429 1.610 . S
N431 C432 1.351 . S
C432 C426 1.428 . S
C432 N431 1.351 . S
C432 C433 1.434 . S
C433 C424 1.429 . S
C433 N430 1.350 . S
C433 C432 1.434 . S
C434 C435 1.369 . S
C434 C436 1.419 . S
C434 H438 0.930 . S
C435 C434 1.369 . S
C435 C444 1.429 . S
C436 C434 1.419 . S
C436 C437 1.363 . S
C436 H439 0.929 . S
C437 C436 1.363 . S
C437 C443 1.428 . S
H438 C434 0.930 . S
H439 C436 0.929 . S
S440 N441 1.613 . S
S440 N442 1.610 . S
N441 S440 1.613 . S
N441 C444 1.350 . S
N442 S440 1.610 . S
N442 C443 1.351 . S
C443 C437 1.428 . S
C443 N442 1.351 . S
C443 C444 1.434 . S
C444 C435 1.429 . S
C444 N441 1.350 . S
C444 C443 1.434 . S
C445 C446 1.369 . S
C445 C447 1.419 . S
C445 H449 0.930 . S
C446 C445 1.369 . S
C446 C455 1.429 . S
C447 C445 1.419 . S
C447 C448 1.363 . S
C447 H450 0.929 . S
C448 C447 1.363 . S
C448 C454 1.428 . S
H449 C445 0.930 . S
H450 C447 0.929 . S
S451 N452 1.613 . S
S451 N453 1.610 . S
N452 S451 1.613 . S
N452 C455 1.350 . S
N453 S451 1.610 . S
N453 C454 1.351 . S
C454 C448 1.428 . S
C454 N453 1.351 . S
C454 C455 1.434 . S
C455 C446 1.429 . S
C455 N452 1.350 . S
C455 C454 1.434 . S
C456 C457 1.369 . S
C456 C458 1.419 . S
C456 H460 0.930 . S
C457 C456 1.369 . S
C457 C466 1.429 . S
C458 C456 1.419 . S
C458 C459 1.363 . S
C458 H461 0.929 . S
C459 C458 1.363 . S
C459 C465 1.428 . S
H460 C456 0.930 . S
H461 C458 0.929 . S
S462 N463 1.613 . S
S462 N464 1.610 . S
N463 S462 1.613 . S
N463 C466 1.350 . S
N464 S462 1.610 . S
N464 C465 1.351 . S
C465 C459 1.428 . S
C465 N464 1.351 . S
C465 C466 1.434 . S
C466 C457 1.429 . S
C466 N463 1.350 . S
C466 C465 1.434 . S
C467 C468 1.369 . S
C467 C469 1.419 . S
C467 H471 0.930 . S
C468 C467 1.369 . S
C468 C477 1.429 . S
C469 C467 1.419 . S
C469 C470 1.363 . S
C469 H472 0.929 . S
C470 C469 1.363 . S
C470 C476 1.428 . S
H471 C467 0.930 . S
H472 C469 0.929 . S
S473 N474 1.613 . S
S473 N475 1.610 . S
N474 S473 1.613 . S
N474 C477 1.350 . S
N475 S473 1.610 . S
N475 C476 1.351 . S
C476 C470 1.428 . S
C476 N475 1.351 . S
C476 C477 1.434 . S
C477 C468 1.429 . S
C477 N474 1.350 . S
C477 C476 1.434 . S
C478 C479 1.369 . S
C478 C480 1.419 . S
C478 H482 0.930 . S
C479 C478 1.369 . S
C479 C488 1.429 . S
C480 C478 1.419 . S
C480 C481 1.363 . S
C480 H483 0.929 . S
C481 C480 1.363 . S
C481 C487 1.428 . S
H482 C478 0.930 . S
H483 C480 0.929 . S
S484 N485 1.613 . S
S484 N486 1.610 . S
N485 S484 1.613 . S
N485 C488 1.350 . S
N486 S484 1.610 . S
N486 C487 1.351 . S
C487 C481 1.428 . S
C487 N486 1.351 . S
C487 C488 1.434 . S
C488 C479 1.429 . S
C488 N485 1.350 . S
C488 C487 1.434 . S
C489 C490 1.369 . S
C489 C491 1.419 . S
C489 H493 0.930 . S
C490 C489 1.369 . S
C490 C499 1.429 . S
C491 C489 1.419 . S
C491 C492 1.363 . S
C491 H494 0.929 . S
C492 C491 1.363 . S
C492 C498 1.428 . S
H493 C489 0.930 . S
H494 C491 0.929 . S
S495 N496 1.613 . S
S495 N497 1.610 . S
N496 S495 1.613 . S
N496 C499 1.350 . S
N497 S495 1.610 . S
N497 C498 1.351 . S
C498 C492 1.428 . S
C498 N497 1.351 . S
C498 C499 1.434 . S
C499 C490 1.429 . S
C499 N496 1.350 . S
C499 C498 1.434 . S
C237 C116 1.449 . S
C239 C168 1.407 1_565 S
C250 C176 1.401 . S
C248 C135 1.441 . S
C261 C180 1.399 . S
C259 C78 1.451 . S
C270 C97 1.449 . S
C272 C156 1.399 1_565 S
C283 C197 1.407 1_545 S
C281 C40 1.446 . S
C294 C231 1.407 . S
C292 C59 1.448 . S
C303 C2 1.441 . S
C305 C219 1.391 . S
C314 C21 1.444 . S
C316 C201 1.389 1_545 S
C327 C155 1.396 . S
C325 C25 1.540 1_554 S
C338 C189 1.404 . S
C336 C6 1.539 . S
C349 C193 1.396 . S
C347 C63 1.536 1_556 S
C360 C171 1.399 . S
C358 C44 1.539 . S
C371 C210 1.400 . S
C369 C101 1.543 1_556 S
C380 C82 1.544 . S
C382 C218 1.395 . S
C393 C234 1.399 . S
C391 C139 1.541 1_554 S
C402 C120 1.539 . S
C404 C214 1.393 . S
C415 C159 1.381 . S
C413 C11 1.371 . S
C426 C177 1.386 . S
C424 C30 1.378 . S
C435 C49 1.368 . S
C437 C192 1.387 . S
C448 C172 1.383 . S
C446 C68 1.366 . S
C459 C198 1.386 . S
C457 C87 1.429 . S
C468 C106 1.429 . S
C470 C222 1.384 . S
C479 C125 1.407 . S
C481 C235 1.382 . S
C490 C144 1.407 . S
C492 C213 1.385 . S
