# Generated by pormake.
# Topology ptr, (4,4)-cn, num edge types: 1
# Building blocks:
#     Node 0, Type 0, BuildingBlock: KUFVIS_clean_sbu_0, # of connection points: 4
#     Node 1, Type 0, BuildingBlock: KUFVIS_clean_sbu_0, # of connection points: 4
#     Node 2, Type 0, BuildingBlock: KUFVIS_clean_sbu_0, # of connection points: 4
#     Node 3, Type 0, BuildingBlock: KUFVIS_clean_sbu_0, # of connection points: 4
#     Node 4, Type 0, BuildingBlock: KUFVIS_clean_sbu_0, # of connection points: 4
#     Node 5, Type 0, BuildingBlock: KUFVIS_clean_sbu_0, # of connection points: 4
#     Node 6, Type 0, BuildingBlock: KUFVIS_clean_sbu_0, # of connection points: 4
#     Node 7, Type 0, BuildingBlock: KUFVIS_clean_sbu_0, # of connection points: 4
#     Node 8, Type 0, BuildingBlock: KUFVIS_clean_sbu_0, # of connection points: 4
#     Node 9, Type 0, BuildingBlock: KUFVIS_clean_sbu_0, # of connection points: 4
#     Node 10, Type 0, BuildingBlock: KUFVIS_clean_sbu_0, # of connection points: 4
#     Node 11, Type 0, BuildingBlock: KUFVIS_clean_sbu_0, # of connection points: 4
#     Node 12, Type 0, BuildingBlock: KUFVIS_clean_sbu_0, # of connection points: 4
#     Node 13, Type 0, BuildingBlock: KUFVIS_clean_sbu_0, # of connection points: 4
#     Node 14, Type 0, BuildingBlock: KUFVIS_clean_sbu_0, # of connection points: 4
#     Node 15, Type 0, BuildingBlock: KUFVIS_clean_sbu_0, # of connection points: 4
#     Node 16, Type 0, BuildingBlock: KUFVIS_clean_sbu_0, # of connection points: 4
#     Node 17, Type 0, BuildingBlock: KUFVIS_clean_sbu_0, # of connection points: 4
#     Node 18, Type 1, BuildingBlock: MIFKUJ_clean_linker_1, # of connection points: 4
#     Node 19, Type 1, BuildingBlock: MIFKUJ_clean_linker_1, # of connection points: 4
#     Node 20, Type 1, BuildingBlock: MIFKUJ_clean_linker_1, # of connection points: 4
#     Node 21, Type 1, BuildingBlock: MIFKUJ_clean_linker_1, # of connection points: 4
#     Node 22, Type 1, BuildingBlock: MIFKUJ_clean_linker_1, # of connection points: 4
#     Node 23, Type 1, BuildingBlock: MIFKUJ_clean_linker_1, # of connection points: 4
#     Node 24, Type 1, BuildingBlock: MIFKUJ_clean_linker_1, # of connection points: 4
#     Node 25, Type 1, BuildingBlock: MIFKUJ_clean_linker_1, # of connection points: 4
#     Node 26, Type 1, BuildingBlock: MIFKUJ_clean_linker_1, # of connection points: 4
#     Node 27, Type 1, BuildingBlock: MIFKUJ_clean_linker_1, # of connection points: 4
#     Node 28, Type 1, BuildingBlock: MIFKUJ_clean_linker_1, # of connection points: 4
#     Node 29, Type 1, BuildingBlock: MIFKUJ_clean_linker_1, # of connection points: 4
#     Node 30, Type 1, BuildingBlock: MIFKUJ_clean_linker_1, # of connection points: 4
#     Node 31, Type 1, BuildingBlock: MIFKUJ_clean_linker_1, # of connection points: 4
#     Node 32, Type 1, BuildingBlock: MIFKUJ_clean_linker_1, # of connection points: 4
#     Node 33, Type 1, BuildingBlock: MIFKUJ_clean_linker_1, # of connection points: 4
#     Node 34, Type 1, BuildingBlock: MIFKUJ_clean_linker_1, # of connection points: 4
#     Node 35, Type 1, BuildingBlock: MIFKUJ_clean_linker_1, # of connection points: 4
#     Edge 36, Type (0, 1), None
#     Edge 37, Type (0, 1), None
#     Edge 38, Type (0, 1), None
#     Edge 39, Type (0, 1), None
#     Edge 40, Type (0, 1), None
#     Edge 41, Type (0, 1), None
#     Edge 42, Type (0, 1), None
#     Edge 43, Type (0, 1), None
#     Edge 44, Type (0, 1), None
#     Edge 45, Type (0, 1), None
#     Edge 46, Type (0, 1), None
#     Edge 47, Type (0, 1), None
#     Edge 48, Type (0, 1), None
#     Edge 49, Type (0, 1), None
#     Edge 50, Type (0, 1), None
#     Edge 51, Type (0, 1), None
#     Edge 52, Type (0, 1), None
#     Edge 53, Type (0, 1), None
#     Edge 54, Type (0, 1), None
#     Edge 55, Type (0, 1), None
#     Edge 56, Type (0, 1), None
#     Edge 57, Type (0, 1), None
#     Edge 58, Type (0, 1), None
#     Edge 59, Type (0, 1), None
#     Edge 60, Type (0, 1), None
#     Edge 61, Type (0, 1), None
#     Edge 62, Type (0, 1), None
#     Edge 63, Type (0, 1), None
#     Edge 64, Type (0, 1), None
#     Edge 65, Type (0, 1), None
#     Edge 66, Type (0, 1), None
#     Edge 67, Type (0, 1), None
#     Edge 68, Type (0, 1), None
#     Edge 69, Type (0, 1), None
#     Edge 70, Type (0, 1), None
#     Edge 71, Type (0, 1), None
#     Edge 72, Type (0, 1), None
#     Edge 73, Type (0, 1), None
#     Edge 74, Type (0, 1), None
#     Edge 75, Type (0, 1), None
#     Edge 76, Type (0, 1), None
#     Edge 77, Type (0, 1), None
#     Edge 78, Type (0, 1), None
#     Edge 79, Type (0, 1), None
#     Edge 80, Type (0, 1), None
#     Edge 81, Type (0, 1), None
#     Edge 82, Type (0, 1), None
#     Edge 83, Type (0, 1), None
#     Edge 84, Type (0, 1), None
#     Edge 85, Type (0, 1), None
#     Edge 86, Type (0, 1), None
#     Edge 87, Type (0, 1), None
#     Edge 88, Type (0, 1), None
#     Edge 89, Type (0, 1), None
#     Edge 90, Type (0, 1), None
#     Edge 91, Type (0, 1), None
#     Edge 92, Type (0, 1), None
#     Edge 93, Type (0, 1), None
#     Edge 94, Type (0, 1), None
#     Edge 95, Type (0, 1), None
#     Edge 96, Type (0, 1), None
#     Edge 97, Type (0, 1), None
#     Edge 98, Type (0, 1), None
#     Edge 99, Type (0, 1), None
#     Edge 100, Type (0, 1), None
#     Edge 101, Type (0, 1), None
#     Edge 102, Type (0, 1), None
#     Edge 103, Type (0, 1), None
#     Edge 104, Type (0, 1), None
#     Edge 105, Type (0, 1), None
#     Edge 106, Type (0, 1), None
#     Edge 107, Type (0, 1), None
# Relax obj value: 0.042
# Max RMSD: 0.156
# Mean RMSD: 0.069
data_MOF--net-ptr--node1-KUFVIS_clean_sbu_0--node2-MIFKUJ_clean_linker_1--edge1-none
_symmetry_space_group_name_H-M    P1
_symmetry_Int_Tables_number       1
_symmetry_cell_setting            triclinic
loop_
_symmetry_equiv_pos_as_xyz
'x, y, z'
_cell_length_a     48.205366
_cell_length_b     48.02902
_cell_length_c     32.964318
_cell_angle_alpha  89.627569
_cell_angle_beta   90.567166
_cell_angle_gamma 119.41264
loop_
_atom_site_label
_atom_site_type_symbol
_atom_site_fract_x
_atom_site_fract_y
_atom_site_fract_z
_atom_type_partial_charge
Mn0 Mn 0.99462 0.34201 1.00612 0.0
Mn1 Mn 0.06512 0.41069 0.00951 0.0
C2 C 1.00357 0.38328 0.96156 0.0
C3 C 0.96238 0.29031 0.98195 0.0
C4 C 0.01212 0.39405 0.07011 0.0
O5 O 0.02291 0.32941 0.03978 0.0
O6 O 0.06923 0.37536 0.03401 0.0
C7 C 0.10134 0.39276 0.95335 0.0
N8 N 0.09102 0.41335 0.96455 0.0
C9 C 0.1199 0.44958 0.91036 0.0
C10 C 0.13113 0.42893 0.89845 0.0
C11 C 0.12169 0.40033 0.91995 0.0
C12 C 0.09981 0.44082 0.94399 0.0
H13 H 0.09405 0.37073 0.96976 0.0
C14 C 0.05296 0.34631 0.04557 0.0
O15 O 0.95593 0.29988 0.01546 0.0
O16 O 0.98835 0.31011 0.96345 0.0
N17 N 0.06535 0.4473 0.98678 0.0
C18 C 0.0497 0.46265 0.99966 0.0
C19 C 0.05482 0.49062 0.97988 0.0
C20 C 0.07664 0.50299 0.94779 0.0
C21 C 0.09283 0.48703 0.93548 0.0
C22 C 0.0865 0.45903 0.95614 0.0
H23 H 0.03299 0.45331 0.02434 0.0
O24 O 0.97497 0.36075 0.96943 0.0
O25 O 0.0266 0.3807 0.97912 0.0
O26 O 0.99163 0.36778 0.05383 0.0
O27 O 0.04042 0.41095 0.05684 0.0
C28 C 0.11376 0.49689 0.90227 0.0
C29 C 0.12724 0.47813 0.88966 0.0
H30 H 0.1467 0.43461 0.87258 0.0
H31 H 0.13007 0.38417 0.91077 0.0
H32 H 0.04155 0.50216 0.98924 0.0
H33 H 0.08018 0.52419 0.93196 0.0
H34 H 0.11898 0.5184 0.88558 0.0
H35 H 0.14276 0.48558 0.86357 0.0
Mn36 Mn 0.6538 0.65822 0.03392 0.0
Mn37 Mn 0.65774 0.58983 0.03031 0.0
C38 C 0.6232 0.61669 0.0784 0.0
C39 C 0.67121 0.71014 0.05711 0.0
C40 C 0.61664 0.60338 0.97282 0.0
O41 O 0.69396 0.67179 0.99991 0.0
O42 O 0.69181 0.62411 0.99795 0.0
C43 C 0.7183 0.61571 0.07671 0.0
N44 N 0.6873 0.59281 0.07147 0.0
C45 C 0.6899 0.56315 0.12909 0.0
C46 C 0.72192 0.58629 0.13495 0.0
C47 C 0.73614 0.61275 0.10872 0.0
C48 C 0.67332 0.56751 0.09681 0.0
H49 H 0.72934 0.63609 0.05665 0.0
C50 C 0.7044 0.65349 0.98782 0.0
O51 O 0.65491 0.69973 0.02374 0.0
O52 O 0.67877 0.69104 0.07613 0.0
N53 N 0.62706 0.55354 0.0596 0.0
C54 C 0.59605 0.53347 0.04971 0.0
C55 C 0.57848 0.5057 0.07272 0.0
C56 C 0.59294 0.49846 0.10522 0.0
C57 C 0.62512 0.5191 0.11422 0.0
C58 C 0.64158 0.54633 0.08996 0.0
H59 H 0.58485 0.53863 0.02445 0.0
O60 O 0.6164 0.63909 0.07041 0.0
O61 O 0.64896 0.6197 0.06134 0.0
O62 O 0.62523 0.63142 0.98628 0.0
O63 O 0.62665 0.58517 0.98758 0.0
C64 C 0.64139 0.51395 0.14659 0.0
C65 C 0.67373 0.53606 0.15416 0.0
H66 H 0.73576 0.58406 0.15957 0.0
H67 H 0.76079 0.63079 0.11314 0.0
H68 H 0.55396 0.48992 0.06508 0.0
H69 H 0.57921 0.47709 0.12309 0.0
H70 H 0.62918 0.49321 0.16604 0.0
H71 H 0.68593 0.53202 0.17935 0.0
Mn72 Mn 0.3454 0.99467 0.02731 0.0
Mn73 Mn 0.41616 0.063 0.02165 0.0
C74 C 0.38665 0.00252 0.07083 0.0
C75 C 0.29427 0.96478 0.05452 0.0
C76 C 0.39501 0.00856 0.96147 0.0
O77 O 0.33443 0.02418 0.99356 0.0
O78 O 0.3819 0.06934 0.99758 0.0
C79 C 0.40264 0.10245 0.07809 0.0
N80 N 0.42129 0.0899 0.06678 0.0
C81 C 0.45821 0.1166 0.1215 0.0
C82 C 0.4395 0.12999 0.13361 0.0
C83 C 0.41153 0.12279 0.11189 0.0
C84 C 0.4481 0.09645 0.08764 0.0
H85 H 0.38114 0.09695 0.06144 0.0
C86 C 0.35262 0.05399 0.9865 0.0
O87 O 0.3019 0.95712 0.02032 0.0
O88 O 0.3156 0.99103 0.07142 0.0
N89 N 0.45185 0.06071 0.04377 0.0
C90 C 0.46641 0.04465 0.02927 0.0
C91 C 0.49462 0.04902 0.0478 0.0
C92 C 0.50777 0.07011 0.08069 0.0
C93 C 0.49243 0.08642 0.095 0.0
C94 C 0.46454 0.08135 0.07508 0.0
H95 H 0.45662 0.0287 1.0037 0.0
O96 O 0.3633 0.97404 0.06385 0.0
O97 O 0.38511 0.02583 0.0526 0.0
O98 O 0.36884 0.98916 0.97866 0.0
O99 O 0.41358 0.03681 0.97439 0.0
C100 C 0.50343 0.10714 0.12864 0.0
C101 C 0.48623 0.12208 0.14202 0.0
H102 H 0.44625 0.14565 0.15969 0.0
H103 H 0.39689 0.13292 0.12117 0.0
H104 H 0.50629 0.03627 0.03667 0.0
H105 H 0.52959 0.0735 0.09483 0.0
H106 H 0.52481 0.11135 0.14482 0.0
H107 H 0.49466 0.13757 0.16829 0.0
Mn108 Mn 0.99943 0.65822 1.00635 0.0
Mn109 Mn 0.07036 0.65984 1.00583 0.0
C110 C 0.0078 0.62666 0.96039 0.0
C111 C 0.96631 0.67814 0.98446 0.0
C112 C 0.01805 0.62 0.06551 0.0
O113 O 0.02739 0.69802 0.04053 0.0
O114 O 0.07251 0.69554 0.03744 0.0
C115 C 0.10356 0.7194 0.95741 0.0
N116 N 0.09513 0.68812 0.9632 0.0
C117 C 0.12364 0.68817 0.90371 0.0
C118 C 0.13291 0.72046 0.89735 0.0
C119 C 0.1227 0.7361 0.92425 0.0
C120 C 0.10447 0.67278 0.93724 0.0
H121 H 0.09569 0.73152 0.97787 0.0
C122 C 0.05673 0.70885 0.04929 0.0
O123 O 0.96067 0.66168 0.01776 0.0
O124 O 0.99199 0.68433 0.96506 0.0
N125 N 0.07359 0.62756 0.97629 0.0
C126 C 0.06222 0.59635 0.98642 0.0
C127 C 0.06993 0.57728 0.96224 0.0
C128 C 0.08996 0.59055 0.92864 0.0
C129 C 0.10213 0.62295 0.9195 0.0
C130 C 0.09359 0.64085 0.94464 0.0
H131 H 0.04705 0.58602 0.01243 0.0
O132 O 0.97934 0.62075 0.9694 0.0
O133 O 0.03114 0.65199 0.97727 0.0
O134 O 0.99838 0.62892 0.05306 0.0
O135 O 0.04558 0.62984 0.04991 0.0
C136 C 0.12177 0.638 0.88588 0.0
C137 C 0.13242 0.67057 0.87788 0.0
H138 H 0.14767 0.73341 0.87178 0.0
H139 H 0.12958 0.76097 0.91942 0.0
H140 H 0.06017 0.55241 0.96943 0.0
H141 H 0.09555 0.57569 0.9097 0.0
H142 H 0.12852 0.62464 0.86572 0.0
H143 H 0.14724 0.68183 0.85172 0.0
Mn144 Mn 0.34378 0.34886 0.02727 0.0
Mn145 Mn 0.41464 0.35044 0.02395 0.0
C146 C 0.38413 0.38131 0.07215 0.0
C147 C 0.29227 0.32745 0.05299 0.0
C148 C 0.39561 0.3866 0.96433 0.0
O149 O 0.33328 0.30912 0.99312 0.0
O150 O 0.38122 0.31202 0.99648 0.0
C151 C 0.39821 0.29425 0.07647 0.0
N152 N 0.41772 0.32568 0.06754 0.0
C153 C 0.45302 0.3314 0.12289 0.0
C154 C 0.43347 0.29902 0.1325 0.0
C155 C 0.40589 0.2804 0.10926 0.0
C156 C 0.44423 0.34381 0.08975 0.0
H157 H 0.37699 0.27991 0.05868 0.0
C158 C 0.35208 0.29824 0.98507 0.0
O159 O 0.30009 0.34317 0.01899 0.0
O160 O 0.3136 0.32256 0.07066 0.0
N161 N 0.44968 0.38602 0.04928 0.0
C162 C 0.46393 0.4174 0.03851 0.0
C163 C 0.49066 0.43966 0.06034 0.0
C164 C 0.5031 0.42927 0.09208 0.0
C165 C 0.48831 0.39677 0.10218 0.0
C166 C 0.46141 0.37573 0.0797 0.0
H167 H 0.4545 0.42546 0.01408 0.0
O168 O 0.36074 0.38652 0.06404 0.0
O169 O 0.38313 0.35663 0.05432 0.0
O170 O 0.36829 0.37851 0.97932 0.0
O171 O 0.41419 0.37693 0.97836 0.0
C172 C 0.49818 0.38469 0.13499 0.0
C173 C 0.48051 0.35201 0.14539 0.0
H174 H 0.43922 0.28829 0.15791 0.0
H175 H 0.39058 0.25545 0.11664 0.0
H176 H 0.50117 0.46476 0.05297 0.0
H177 H 0.52335 0.44644 0.10947 0.0
H178 H 0.51883 0.40047 0.15306 0.0
H179 H 0.48794 0.34311 0.17117 0.0
Mn180 Mn 0.65697 0.0084 1.00867 0.0
Mn181 Mn 0.58701 0.93884 0.01525 0.0
C182 C 0.61539 0.99857 0.96444 0.0
C183 C 0.70844 0.03995 0.98312 0.0
C184 C 0.6061 0.99398 0.07344 0.0
O185 O 0.6691 0.98011 0.04313 0.0
O186 O 0.62159 0.93472 0.04236 0.0
C187 C 0.60376 0.89963 0.96278 0.0
N188 N 0.58386 0.9112 0.97195 0.0
C189 C 0.54834 0.8819 0.91708 0.0
C190 C 0.56836 0.86949 0.90716 0.0
C191 C 0.59625 0.8785 0.93002 0.0
C192 C 0.55712 0.90292 0.94996 0.0
H193 H 0.62519 0.9065 0.98035 0.0
C194 C 0.65095 0.95079 0.05276 0.0
O195 O 0.69949 0.04721 0.01651 0.0
O196 O 0.68821 0.01343 0.96563 0.0
N197 N 0.55079 0.93871 0.99079 0.0
C198 C 0.53477 0.95386 1.00332 0.0
C199 C 0.50644 0.94773 0.98339 0.0
C200 C 0.49463 0.92574 0.95125 0.0
C201 C 0.51132 0.91017 0.93923 0.0
C202 C 0.5393 0.91708 0.9604 0.0
H203 H 0.54356 0.97052 0.02829 0.0
O204 O 0.63808 0.02745 0.97119 0.0
O205 O 0.61771 0.97587 0.98332 0.0
O206 O 0.63254 0.01324 0.05672 0.0
O207 O 0.58767 0.96568 0.06064 0.0
C208 C 0.50166 0.88855 0.90654 0.0
C209 C 0.52025 0.87456 0.89533 0.0
H210 H 0.56267 0.85321 0.8819 0.0
H211 H 0.61189 0.86913 0.92244 0.0
H212 H 0.49371 0.95988 0.99281 0.0
H213 H 0.47283 0.92115 0.93586 0.0
H214 H 0.48025 0.88291 0.88942 0.0
H215 H 0.51283 0.85835 0.86978 0.0
Mn216 Mn 0.65876 0.67504 0.33947 0.0
Mn217 Mn 0.72887 0.7442 0.34155 0.0
C218 C 0.667 0.71565 0.29421 0.0
C219 C 0.62683 0.62307 0.31592 0.0
C220 C 0.67623 0.72764 0.40269 0.0
O221 O 0.6876 0.66316 0.37312 0.0
O222 O 0.73356 0.7094 0.36669 0.0
C223 C 0.76514 0.72612 0.28571 0.0
N224 N 0.75465 0.74664 0.29657 0.0
C225 C 0.78324 0.78252 0.24195 0.0
C226 C 0.79464 0.76194 0.23038 0.0
C227 C 0.78543 0.73354 0.25226 0.0
C228 C 0.76322 0.7739 0.27565 0.0
H229 H 0.75805 0.70426 0.30244 0.0
C230 C 0.71764 0.68042 0.37865 0.0
O231 O 0.62037 0.63273 0.34937 0.0
O232 O 0.65264 0.64293 0.2972 0.0
N233 N 0.72856 0.78037 0.31811 0.0
C234 C 0.7125 0.79547 0.33041 0.0
C235 C 0.71725 0.82311 0.31003 0.0
C236 C 0.73921 0.83548 0.27811 0.0
C237 C 0.75575 0.81975 0.26633 0.0
C238 C 0.7497 0.79202 0.28744 0.0
H239 H 0.69571 0.78611 0.35501 0.0
O240 O 0.63854 0.69308 0.30261 0.0
O241 O 0.69029 0.71356 0.31179 0.0
O242 O 0.65579 0.70108 0.38696 0.0
O243 O 0.70432 0.74471 0.38887 0.0
C244 C 0.77665 0.8295 0.23309 0.0
C245 C 0.79033 0.81084 0.22085 0.0
H246 H 0.81015 0.7675 0.20447 0.0
H247 H 0.79394 0.71743 0.24334 0.0
H248 H 0.70358 0.83443 0.31864 0.0
H249 H 0.74245 0.8564 0.26185 0.0
H250 H 0.78163 0.8508 0.21605 0.0
H251 H 0.80578 0.81816 0.1947 0.0
Mn252 Mn 0.32074 0.98994 0.36737 0.0
Mn253 Mn 0.32447 0.92145 0.36368 0.0
C254 C 0.28986 0.94834 0.41163 0.0
C255 C 0.33817 0.04182 0.39067 0.0
C256 C 0.28371 0.93532 0.30598 0.0
O257 O 0.36101 0.00349 0.33363 0.0
O258 O 0.35882 0.95579 0.33163 0.0
C259 C 0.38476 0.94699 0.41063 0.0
N260 N 0.35376 0.92418 0.4051 0.0
C261 C 0.35591 0.8943 0.46274 0.0
C262 C 0.38792 0.91734 0.4689 0.0
C263 C 0.40236 0.94386 0.44281 0.0
C264 C 0.33955 0.89882 0.43031 0.0
H265 H 0.39597 0.96741 0.39067 0.0
C266 C 0.3715 0.9852 0.32163 0.0
O267 O 0.32201 0.03151 0.35719 0.0
O268 O 0.3456 0.02264 0.40975 0.0
N269 N 0.29354 0.8851 0.39267 0.0
C270 C 0.2626 0.86506 0.38239 0.0
C271 C 0.24487 0.83715 0.40509 0.0
C272 C 0.25907 0.82981 0.43779 0.0
C273 C 0.29117 0.85042 0.44722 0.0
C274 C 0.30783 0.87774 0.42317 0.0
H275 H 0.25161 0.8703 0.35696 0.0
O276 O 0.2832 0.97082 0.40361 0.0
O277 O 0.31567 0.9513 0.39473 0.0
O278 O 0.29231 0.96332 0.31956 0.0
O279 O 0.29363 0.91703 0.32071 0.0
C280 C 0.30721 0.84511 0.47974 0.0
C281 C 0.33952 0.86714 0.48764 0.0
H282 H 0.40158 0.91498 0.49364 0.0
H283 H 0.42702 0.96183 0.44745 0.0
H284 H 0.22046 0.82128 0.39698 0.0
H285 H 0.24524 0.80831 0.45541 0.0
H286 H 0.29484 0.82429 0.49904 0.0
H287 H 0.35154 0.86297 0.51294 0.0
Mn288 Mn 0.0132 0.32927 0.36029 0.0
Mn289 Mn 0.08417 0.39726 0.35376 0.0
C290 C 0.05454 0.33711 0.40361 0.0
C291 C 0.96214 0.29978 0.38783 0.0
C292 C 0.06236 0.34238 0.29412 0.0
O293 O 1.00236 0.35878 0.32635 0.0
O294 O 0.04997 0.40384 0.32991 0.0
C295 C 0.07152 0.43742 0.41006 0.0
N296 N 0.08985 0.4245 0.3987 0.0
C297 C 0.12717 0.45122 0.45303 0.0
C298 C 0.10881 0.46499 0.46518 0.0
C299 C 0.0808 0.45796 0.44368 0.0
C300 C 0.1167 0.4309 0.41935 0.0
H301 H 0.04999 0.43204 0.39358 0.0
C302 C 0.02062 0.38855 0.31908 0.0
O303 O 0.96957 0.29188 0.35367 0.0
O304 O 0.98362 0.32605 0.4045 0.0
N305 N 0.11977 0.39469 0.37563 0.0
C306 C 0.13396 0.37826 0.36117 0.0
C307 C 0.16213 0.38236 0.37955 0.0
C308 C 0.17562 0.40358 0.41225 0.0
C309 C 0.16066 0.42029 0.42653 0.0
C310 C 0.1328 0.41545 0.40676 0.0
H311 H 0.1239 0.36219 0.33575 0.0
O312 O 0.03103 0.30866 0.39695 0.0
O313 O 0.0531 0.36041 0.38518 0.0
O314 O 0.03627 0.32322 0.31165 0.0
O315 O 0.08108 0.37071 0.30664 0.0
C316 C 0.17203 0.44117 0.45999 0.0
C317 C 0.1552 0.45649 0.47336 0.0
H318 H 0.11585 0.4808 0.49113 0.0
H319 H 0.06643 0.46837 0.45299 0.0
H320 H 0.17349 0.36931 0.36844 0.0
H321 H 0.19739 0.40676 0.42629 0.0
H322 H 0.19341 0.44521 0.47604 0.0
H323 H 0.16391 0.47211 0.4995 0.0
Mn324 Mn 0.66805 0.99304 0.34053 0.0
Mn325 Mn 0.73908 0.99484 0.34118 0.0
C326 C 0.67677 0.96123 0.29533 0.0
C327 C 0.63475 0.01257 0.31802 0.0
C328 C 0.68648 0.95527 0.40063 0.0
O329 O 0.69576 0.03305 0.37449 0.0
O330 O 0.74102 0.03081 0.37196 0.0
C331 C 0.77221 0.0539 0.29183 0.0
N332 N 0.76388 0.02271 0.29827 0.0
C333 C 0.79261 0.02224 0.23927 0.0
C334 C 0.80177 0.05443 0.23223 0.0
C335 C 0.7914 0.07028 0.25855 0.0
C336 C 0.77331 0.00714 0.2728 0.0
H337 H 0.76423 0.06618 0.31185 0.0
C338 C 0.72511 0.04409 0.38338 0.0
O339 O 0.62916 0.99634 0.35149 0.0
O340 O 0.66051 0.01881 0.29875 0.0
N341 N 0.74254 0.9623 0.31255 0.0
C342 C 0.73196 0.93145 0.32392 0.0
C343 C 0.74064 0.91245 0.30113 0.0
C344 C 0.7604 0.92534 0.26722 0.0
C345 C 0.77166 0.95737 0.2567 0.0
C346 C 0.76256 0.97532 0.28087 0.0
H347 H 0.71713 0.92149 0.35029 0.0
O348 O 0.64825 0.95535 0.30391 0.0
O349 O 0.69997 0.98672 0.3121 0.0
O350 O 0.66685 0.96404 0.38762 0.0
O351 O 0.71417 0.9652 0.3855 0.0
C352 C 0.7914 0.97211 0.22306 0.0
C353 C 0.80171 0.0045 0.2142 0.0
H354 H 0.81661 0.06716 0.20663 0.0
H355 H 0.7982 0.09508 0.25321 0.0
H356 H 0.73235 0.88809 0.31009 0.0
H357 H 0.767 0.91063 0.24952 0.0
H358 H 0.79861 0.95871 0.20367 0.0
H359 H 0.81667 0.01553 0.18807 0.0
Mn360 Mn 0.00945 0.68238 0.36041 0.0
Mn361 Mn 0.08026 0.68379 0.35785 0.0
C362 C 0.04965 0.71475 0.40554 0.0
C363 C 0.95786 0.66131 0.38582 0.0
C364 C 0.06164 0.72001 0.29782 0.0
O365 O 0.99896 0.64255 0.32638 0.0
O366 O 0.04693 0.64553 0.33008 0.0
C367 C 0.0633 0.62745 0.41029 0.0
N368 N 0.08297 0.65886 0.4015 0.0
C369 C 0.11798 0.66429 0.45708 0.0
C370 C 0.09825 0.63191 0.46657 0.0
C371 C 0.07073 0.61345 0.44315 0.0
C372 C 0.10941 0.67685 0.42389 0.0
H373 H 0.04213 0.61322 0.39235 0.0
C374 C 0.01784 0.63174 0.31843 0.0
O375 O 0.96586 0.67692 0.35174 0.0
O376 O 0.97903 0.65627 0.4037 0.0
N377 N 0.11525 0.71923 0.38346 0.0
C378 C 0.12972 0.75064 0.37275 0.0
C379 C 0.15647 0.77275 0.39469 0.0
C380 C 0.16871 0.76218 0.42647 0.0
C381 C 0.15368 0.72967 0.43654 0.0
C382 C 0.12678 0.70878 0.41395 0.0
H383 H 0.12047 0.75882 0.34825 0.0
O384 O 0.0264 0.72011 0.39711 0.0
O385 O 0.04864 0.69003 0.38784 0.0
O386 O 0.03422 0.71191 0.3125 0.0
O387 O 0.08018 0.7104 0.31222 0.0
C388 C 0.16332 0.71742 0.4694 0.0
C389 C 0.14544 0.68475 0.47972 0.0
H390 H 0.10382 0.62107 0.49201 0.0
H391 H 0.05529 0.5885 0.45043 0.0
H392 H 0.1672 0.79788 0.38736 0.0
H393 H 0.18901 0.77924 0.44387 0.0
H394 H 0.18397 0.73308 0.48757 0.0
H395 H 0.1527 0.67572 0.50555 0.0
Mn396 Mn 0.32334 0.33976 0.34199 0.0
Mn397 Mn 0.25334 0.27028 0.34909 0.0
C398 C 0.28162 0.32982 0.29797 0.0
C399 C 0.37471 0.37135 0.31619 0.0
C400 C 0.27266 0.32565 0.40692 0.0
O401 O 0.33558 0.31154 0.37644 0.0
O402 O 0.28799 0.26626 0.3762 0.0
C403 C 0.26992 0.23077 0.29692 0.0
N404 N 0.25007 0.24243 0.30599 0.0
C405 C 0.21442 0.2129 0.25133 0.0
C406 C 0.23439 0.20041 0.24151 0.0
C407 C 0.26232 0.20948 0.26432 0.0
C408 C 0.22329 0.23408 0.28406 0.0
H409 H 0.29137 0.23769 0.31445 0.0
C410 C 0.31741 0.28229 0.38635 0.0
O411 O 0.36583 0.3786 0.34964 0.0
O412 O 0.35448 0.34478 0.29879 0.0
N413 N 0.21708 0.27006 0.32465 0.0
C414 C 0.2011 0.28528 0.33707 0.0
C415 C 0.17276 0.27913 0.31714 0.0
C416 C 0.16088 0.25703 0.28514 0.0
C417 C 0.17751 0.24135 0.27325 0.0
C418 C 0.20552 0.24831 0.2944 0.0
H419 H 0.20996 0.30205 0.36193 0.0
O420 O 0.30433 0.35871 0.30458 0.0
O421 O 0.28398 0.30716 0.31688 0.0
O422 O 0.2991 0.34475 0.39011 0.0
O423 O 0.25411 0.29733 0.39428 0.0
C424 C 0.16777 0.21959 0.24071 0.0
C425 C 0.1863 0.20551 0.22963 0.0
H426 H 0.22862 0.184 0.21638 0.0
H427 H 0.27791 0.20004 0.25682 0.0
H428 H 0.16008 0.29135 0.32646 0.0
H429 H 0.13909 0.25243 0.26973 0.0
H430 H 0.14633 0.21391 0.22362 0.0
H431 H 0.17881 0.18918 0.20419 0.0
Mn432 Mn 0.3257 0.00678 0.67311 0.0
Mn433 Mn 0.39571 0.07605 0.67506 0.0
C434 C 0.33382 0.04735 0.62781 0.0
C435 C 0.29372 0.95481 0.64957 0.0
C436 C 0.34311 0.05942 0.73626 0.0
O437 O 0.35464 0.99499 0.70671 0.0
O438 O 0.40049 0.04134 0.70028 0.0
C439 C 0.43206 0.05803 0.61927 0.0
N440 N 0.42151 0.07851 0.6301 0.0
C441 C 0.45006 0.11439 0.57546 0.0
C442 C 0.46152 0.09385 0.56392 0.0
C443 C 0.45236 0.06548 0.58583 0.0
C444 C 0.43003 0.10576 0.60914 0.0
H445 H 0.42501 0.03619 0.63602 0.0
C446 C 0.38467 0.01235 0.71225 0.0
O447 O 0.28734 0.96448 0.68307 0.0
O448 O 0.31952 0.97466 0.63082 0.0
N449 N 0.39531 0.11216 0.65156 0.0
C450 C 0.37918 0.1272 0.66382 0.0
C451 C 0.38387 0.15481 0.64341 0.0
C452 C 0.40585 0.16721 0.61151 0.0
C453 C 0.42245 0.15153 0.59976 0.0
C454 C 0.41645 0.12383 0.6209 0.0
H455 H 0.36238 0.11782 0.68841 0.0
O456 O 0.30539 0.02476 0.63629 0.0
O457 O 0.35716 0.04532 0.64535 0.0
O458 O 0.32272 0.03281 0.7206 0.0
O459 O 0.37116 0.07656 0.72237 0.0
C460 C 0.44336 0.1613 0.56653 0.0
C461 C 0.4571 0.14269 0.55432 0.0
H462 H 0.47704 0.09942 0.53802 0.0
H463 H 0.46092 0.04939 0.57694 0.0
H464 H 0.37015 0.16607 0.65197 0.0
H465 H 0.40904 0.18811 0.59522 0.0
H466 H 0.4483 0.18258 0.54947 0.0
H467 H 0.47256 0.15002 0.52817 0.0
Mn468 Mn 0.98921 0.32517 0.70097 0.0
Mn469 Mn 0.99273 0.25658 0.69675 0.0
C470 C 0.95835 0.28347 0.74507 0.0
C471 C 0.00672 0.37696 0.72467 0.0
C472 C 0.95193 0.27069 0.63945 0.0
O473 O 0.02941 0.33873 0.66706 0.0
O474 O 0.02698 0.29093 0.66462 0.0
C475 C 0.05319 0.28194 0.7433 0.0
N476 N 0.02214 0.2592 0.73792 0.0
C477 C 0.02442 0.22923 0.79538 0.0
C478 C 0.05647 0.2522 0.80138 0.0
C479 C 0.07088 0.27874 0.7753 0.0
C480 C 0.00798 0.23383 0.76312 0.0
H481 H 0.06436 0.30238 0.72335 0.0
C482 C 0.03972 0.32037 0.65475 0.0
O483 O 0.99055 0.36681 0.69118 0.0
O484 O 0.01416 0.35769 0.7435 0.0
N485 N 0.96186 0.22022 0.72577 0.0
C486 C 0.93088 0.20023 0.71563 0.0
C487 C 0.91318 0.17233 0.73835 0.0
C488 C 0.92746 0.16492 0.7709 0.0
C489 C 0.9596 0.18547 0.78017 0.0
C490 C 0.97622 0.2128 0.75613 0.0
H491 H 0.91983 0.20552 0.69031 0.0
O492 O 0.95172 0.30601 0.73727 0.0
O493 O 0.9841 0.28643 0.72805 0.0
O494 O 0.96066 0.29871 0.65311 0.0
O495 O 0.96178 0.25229 0.65403 0.0
C496 C 0.97572 0.18009 0.81253 0.0
C497 C 0.00808 0.20206 0.82027 0.0
H498 H 0.0702 0.24978 0.82599 0.0
H499 H 0.09557 0.29666 0.77982 0.0
H500 H 0.88872 0.15653 0.73039 0.0
H501 H 0.91364 0.14343 0.78854 0.0
H502 H 0.96339 0.15926 0.83182 0.0
H503 H 0.02016 0.19783 0.84544 0.0
Mn504 Mn 0.67804 0.66231 0.69355 0.0
Mn505 Mn 0.74896 0.73046 0.68768 0.0
C506 C 0.71933 0.67002 0.7369 0.0
C507 C 0.62695 0.63252 0.72095 0.0
C508 C 0.72745 0.67598 0.62749 0.0
O509 O 0.66717 0.69195 0.65992 0.0
O510 O 0.71476 0.73699 0.66383 0.0
C511 C 0.7359 0.77014 0.74429 0.0
N512 N 0.75438 0.75743 0.73284 0.0
C513 C 0.79152 0.78401 0.78739 0.0
C514 C 0.773 0.79758 0.79964 0.0
C515 C 0.74501 0.79051 0.77807 0.0
C516 C 0.78121 0.76385 0.75354 0.0
H517 H 0.71438 0.76475 0.72776 0.0
C518 C 0.68544 0.72175 0.65286 0.0
O519 O 0.63446 0.62486 0.68668 0.0
O520 O 0.64836 0.65875 0.7378 0.0
N521 N 0.78458 0.72794 0.70958 0.0
C522 C 0.79891 0.71169 0.695 0.0
C523 C 0.82708 0.71583 0.71344 0.0
C524 C 0.84042 0.73691 0.74629 0.0
C525 C 0.82532 0.75345 0.76066 0.0
C526 C 0.79746 0.74858 0.74085 0.0
H527 H 0.78897 0.69572 0.66947 0.0
O528 O 0.69591 0.64157 0.72996 0.0
O529 O 0.71786 0.69338 0.71872 0.0
O530 O 0.70129 0.65667 0.64478 0.0
O531 O 0.74611 0.70422 0.64036 0.0
C532 C 0.83653 0.77418 0.79428 0.0
C533 C 0.81954 0.78932 0.80777 0.0
H534 H 0.77991 0.81326 0.82571 0.0
H535 H 0.73051 0.80077 0.78746 0.0
H536 H 0.83856 0.70291 0.70225 0.0
H537 H 0.86219 0.74012 0.76037 0.0
H538 H 0.85789 0.77825 0.81038 0.0
H539 H 0.82812 0.80481 0.83403 0.0
Mn540 Mn 0.3342 0.32446 0.67365 0.0
Mn541 Mn 0.4053 0.3264 0.67467 0.0
C542 C 0.34311 0.29273 0.62855 0.0
C543 C 0.30107 0.34415 0.65094 0.0
C544 C 0.35254 0.28673 0.73391 0.0
O545 O 0.36175 0.36441 0.70775 0.0
O546 O 0.40713 0.36237 0.70535 0.0
C547 C 0.43845 0.38545 0.6253 0.0
N548 N 0.43016 0.35428 0.6318 0.0
C549 C 0.45903 0.35383 0.57294 0.0
C550 C 0.46815 0.386 0.56584 0.0
C551 C 0.45768 0.40183 0.59206 0.0
C552 C 0.43967 0.33872 0.60642 0.0
H553 H 0.43039 0.39771 0.64524 0.0
C554 C 0.39111 0.37556 0.71669 0.0
O555 O 0.29528 0.32779 0.68434 0.0
O556 O 0.32687 0.35033 0.63182 0.0
N557 N 0.40888 0.29388 0.64617 0.0
C558 C 0.39835 0.26306 0.65761 0.0
C559 C 0.40715 0.24409 0.63494 0.0
C560 C 0.42697 0.25699 0.60107 0.0
C561 C 0.43817 0.28899 0.59049 0.0
C562 C 0.42896 0.30692 0.61454 0.0
H563 H 0.38348 0.25309 0.68394 0.0
O564 O 0.31455 0.28683 0.63692 0.0
O565 O 0.36623 0.31821 0.64544 0.0
O566 O 0.33286 0.29539 0.72073 0.0
O567 O 0.38031 0.29677 0.71896 0.0
C568 C 0.45796 0.30375 0.5569 0.0
C569 C 0.46823 0.33611 0.54798 0.0
H570 H 0.48303 0.39873 0.54027 0.0
H571 H 0.46445 0.42661 0.58667 0.0
H572 H 0.39892 0.21975 0.64397 0.0
H573 H 0.43367 0.24232 0.58348 0.0
H574 H 0.46526 0.29036 0.5376 0.0
H575 H 0.48323 0.34715 0.52189 0.0
Mn576 Mn 0.67777 0.01738 0.69401 0.0
Mn577 Mn 0.74847 0.01861 0.69098 0.0
C578 C 0.71807 0.04963 0.73906 0.0
C579 C 0.62621 0.9962 0.71949 0.0
C580 C 0.7298 0.05501 0.63126 0.0
O581 O 0.66717 0.97763 0.65982 0.0
O582 O 0.715 0.9803 0.66338 0.0
C583 C 0.73168 0.96232 0.74344 0.0
N584 N 0.75132 0.99372 0.73457 0.0
C585 C 0.78652 0.99919 0.78995 0.0
C586 C 0.76682 0.96682 0.7995 0.0
C587 C 0.73922 0.94834 0.77622 0.0
C588 C 0.77785 0.01172 0.75682 0.0
H589 H 0.71045 0.94808 0.72561 0.0
C590 C 0.68589 0.96664 0.65185 0.0
O591 O 0.63419 0.01196 0.68553 0.0
O592 O 0.6474 0.99114 0.73726 0.0
N593 N 0.78356 0.05408 0.71643 0.0
C594 C 0.79798 0.08548 0.70571 0.0
C595 C 0.82479 0.10761 0.72755 0.0
C596 C 0.83712 0.09706 0.75925 0.0
C597 C 0.82213 0.06455 0.76932 0.0
C598 C 0.79518 0.04365 0.74684 0.0
H599 H 0.78866 0.09365 0.68128 0.0
O600 O 0.6948 0.05501 0.73085 0.0
O601 O 0.71698 0.02492 0.72121 0.0
O602 O 0.70248 0.04703 0.64616 0.0
O603 O 0.74827 0.04522 0.64538 0.0
C604 C 0.83188 0.05233 0.80211 0.0
C605 C 0.81404 0.01966 0.81247 0.0
H606 H 0.77247 0.956 0.82489 0.0
H607 H 0.7238 0.9234 0.78355 0.0
H608 H 0.83549 0.13273 0.72021 0.0
H609 H 0.85746 0.11414 0.77659 0.0
H610 H 0.85257 0.06801 0.82019 0.0
H611 H 0.82138 0.01066 0.83823 0.0
Mn612 Mn 0.98836 0.67336 0.67523 0.0
Mn613 Mn 0.91807 0.60418 0.6818 0.0
C614 C 0.94684 0.66399 0.63116 0.0
C615 C 0.03986 0.70468 0.64962 0.0
C616 C 0.93785 0.65926 0.74034 0.0
O617 O 1.00015 0.64465 0.70937 0.0
O618 O 0.95252 0.59941 0.70827 0.0
C619 C 0.93377 0.56461 0.62848 0.0
N620 N 0.91426 0.57656 0.63814 0.0
C621 C 0.87827 0.54784 0.58339 0.0
C622 C 0.89787 0.53505 0.57297 0.0
C623 C 0.9258 0.54357 0.59553 0.0
C624 C 0.88748 0.56873 0.61646 0.0
H625 H 0.95522 0.5711 0.64582 0.0
C626 C 0.98191 0.61526 0.71864 0.0
O627 O 0.03105 0.71191 0.68314 0.0
O628 O 0.01946 0.67827 0.63203 0.0
N629 N 0.88202 0.60476 0.65789 0.0
C630 C 0.86651 0.62032 0.67078 0.0
C631 C 0.83825 0.61475 0.65115 0.0
C632 C 0.82599 0.5929 0.61891 0.0
C633 C 0.84218 0.57691 0.60646 0.0
C634 C 0.87012 0.58327 0.62736 0.0
H635 H 0.87566 0.6369 0.69582 0.0
O636 O 0.96969 0.69278 0.63797 0.0
O637 O 0.94894 0.64114 0.64991 0.0
O638 O 0.96422 0.67841 0.72342 0.0
O639 O 0.91929 0.63097 0.7276 0.0
C640 C 0.83208 0.55543 0.57361 0.0
C641 C 0.8502 0.54103 0.56195 0.0
H642 H 0.89183 0.51885 0.54755 0.0
H643 H 0.94111 0.53391 0.58755 0.0
H644 H 0.82592 0.62722 0.66088 0.0
H645 H 0.80424 0.58872 0.60376 0.0
H646 H 0.81069 0.55021 0.5567 0.0
H647 H 0.84245 0.52493 0.53625 0.0
H648 H 0.12627 0.36167 0.18179 0.0
H649 H 0.09833 0.37724 0.23032 0.0
H650 H 0.0531 0.28211 0.28134 0.0
H651 H 0.08175 0.26684 0.23305 0.0
H652 H 0.15208 0.30673 0.23677 0.0
H653 H 0.14849 0.35244 0.08132 0.0
H654 H 0.11641 0.36853 0.04176 0.0
H655 H 0.03106 0.29418 0.09758 0.0
H656 H 0.06394 0.27727 0.1371 0.0
H657 H 0.18441 0.26828 0.08393 0.0
H658 H 0.23144 0.27735 0.04474 0.0
H659 H 0.28879 0.36457 0.11092 0.0
H660 H 0.24196 0.35627 0.14894 0.0
H661 H 0.15651 0.30488 0.08694 0.0
H662 H 0.21714 0.27834 0.18639 0.0
H663 H 0.26086 0.28851 0.23371 0.0
H664 H 0.24798 0.36087 0.29339 0.0
H665 H 0.20601 0.35245 0.24501 0.0
C666 C 0.10585 0.31302 0.20354 0.0
C667 C 0.10953 0.34385 0.20249 0.0
C668 C 0.09369 0.35276 0.23042 0.0
C669 C 0.07357 0.3309 0.25969 0.0
C670 C 0.06816 0.29936 0.25888 0.0
C671 C 0.08452 0.29061 0.23134 0.0
C672 C 0.12856 0.30644 0.18114 0.0
C673 C 0.15297 0.30587 0.20395 0.0
C674 C 0.12999 0.30651 0.13832 0.0
C675 C 0.1088 0.31367 0.11241 0.0
C676 C 0.12286 0.33902 0.08469 0.0
C677 C 0.10434 0.3484 0.06219 0.0
C678 C 0.07107 0.33287 0.06676 0.0
C679 C 0.05661 0.30662 0.09338 0.0
C680 C 0.0754 0.29712 0.11615 0.0
C681 C 0.20971 0.31119 0.12016 0.0
C682 C 0.20712 0.28934 0.09004 0.0
C683 C 0.23385 0.29451 0.06761 0.0
C684 C 0.26349 0.32159 0.07504 0.0
C685 C 0.26608 0.34345 0.10488 0.0
C686 C 0.23941 0.33853 0.12689 0.0
C687 C 0.18105 0.30662 0.14259 0.0
C688 C 0.15534 0.30475 0.1198 0.0
C689 C 0.18012 0.30789 0.18554 0.0
C690 C 0.20771 0.31421 0.21236 0.0
C691 C 0.22393 0.29669 0.20925 0.0
C692 C 0.24851 0.30209 0.23666 0.0
C693 C 0.25641 0.32423 0.2683 0.0
C694 C 0.24149 0.34289 0.27004 0.0
C695 C 0.21739 0.33791 0.24247 0.0
H696 H 0.7192 0.93744 0.18291 0.0
H697 H 0.71356 0.97536 0.22702 0.0
H698 H 0.64609 0.89715 0.30024 0.0
H699 H 0.64922 0.85918 0.25466 0.0
H700 H 0.68797 0.84409 0.24155 0.0
H701 H 0.72508 0.91926 0.09122 0.0
H702 H 0.70962 0.95358 0.05194 0.0
H703 H 0.61862 0.90882 0.11211 0.0
H704 H 0.6341 0.87532 0.15099 0.0
H705 H 0.63437 0.77472 0.11054 0.0
H706 H 0.62715 0.72787 0.07231 0.0
H707 H 0.72756 0.75991 0.08418 0.0
H708 H 0.73514 0.80819 0.11974 0.0
H709 H 0.68951 0.84892 0.09152 0.0
H710 H 0.64005 0.78882 0.2422 0.0
H711 H 0.63291 0.7464 0.28917 0.0
H712 H 0.70792 0.73839 0.23003 0.0
H713 H 0.71806 0.78366 0.1864 0.0
C714 C 0.68491 0.89512 0.21534 0.0
C715 C 0.70274 0.92826 0.20797 0.0
C716 C 0.70011 0.95004 0.23369 0.0
C717 C 0.68072 0.93916 0.26814 0.0
C718 C 0.66211 0.90618 0.27466 0.0
C719 C 0.66409 0.88447 0.24862 0.0
C720 C 0.68806 0.87126 0.18946 0.0
C721 C 0.68833 0.84521 0.20871 0.0
C722 C 0.68838 0.8725 0.14648 0.0
C723 C 0.68075 0.89485 0.12412 0.0
C724 C 0.70198 0.91723 0.09611 0.0
C725 C 0.69326 0.93693 0.07397 0.0
C726 C 0.66293 0.93379 0.07895 0.0
C727 C 0.64212 0.91169 0.10748 0.0
C728 C 0.65094 0.89256 0.12983 0.0
C729 C 0.68514 0.79447 0.11878 0.0
C730 C 0.65491 0.77197 0.10428 0.0
C731 C 0.65084 0.74533 0.08241 0.0
C732 C 0.6768 0.74035 0.07564 0.0
C733 C 0.70721 0.76326 0.08921 0.0
C734 C 0.7115 0.79067 0.10956 0.0
C735 C 0.6888 0.82156 0.14399 0.0
C736 C 0.69001 0.8483 0.12441 0.0
C737 C 0.68683 0.81945 0.18687 0.0
C738 C 0.67971 0.7899 0.21026 0.0
C739 C 0.65529 0.77827 0.2393 0.0
C740 C 0.65113 0.75396 0.26618 0.0
C741 C 0.67112 0.74049 0.26452 0.0
C742 C 0.69341 0.74971 0.2332 0.0
C743 C 0.69834 0.77486 0.20706 0.0
H744 H 0.08353 0.81627 0.23711 0.0
H745 H 0.05309 0.7717 0.28415 0.0
H746 H 0.10047 0.72242 0.23719 0.0
H747 H 0.13023 0.76651 0.19011 0.0
H748 H 0.15574 0.84783 0.24116 0.0
H749 H 0.06647 0.78868 0.13913 0.0
H750 H 0.03416 0.73999 0.09864 0.0
H751 H 0.12082 0.74573 0.05364 0.0
H752 H 0.15215 0.79312 0.09355 0.0
H753 H 0.21151 0.86296 0.08079 0.0
H754 H 0.25656 0.90113 0.04109 0.0
H755 H 0.26554 0.97776 0.11759 0.0
H756 H 0.2188 0.93963 0.15602 0.0
H757 H 0.15763 0.85006 0.09104 0.0
H758 H 0.23573 0.86818 0.19575 0.0
H759 H 0.27827 0.89356 0.24661 0.0
H760 H 0.23504 0.94783 0.29031 0.0
H761 H 0.1919 0.92145 0.24015 0.0
C762 C 0.10895 0.79457 0.20992 0.0
C763 C 0.08659 0.7954 0.23621 0.0
C764 C 0.06914 0.76989 0.2629 0.0
C765 C 0.07442 0.7436 0.26431 0.0
C766 C 0.09586 0.74234 0.23675 0.0
C767 C 0.11282 0.76748 0.20972 0.0
C768 C 0.13133 0.82336 0.18661 0.0
C769 C 0.15575 0.84889 0.20825 0.0
C770 C 0.1325 0.82351 0.1438 0.0
C771 C 0.11178 0.79465 0.11926 0.0
C772 C 0.07829 0.77929 0.12039 0.0
C773 C 0.05988 0.7516 0.09716 0.0
C774 C 0.07481 0.7388 0.07297 0.0
C775 C 0.1083 0.75458 0.072 0.0
C776 C 0.12642 0.782 0.09471 0.0
C777 C 0.21149 0.89808 0.12192 0.0
C778 C 0.22257 0.88802 0.08877 0.0
C779 C 0.24846 0.90995 0.06588 0.0
C780 C 0.26453 0.94252 0.07597 0.0
C781 C 0.25358 0.95279 0.109 0.0
C782 C 0.22709 0.93087 0.13141 0.0
C783 C 0.18327 0.87411 0.14543 0.0
C784 C 0.15738 0.84981 0.12394 0.0
C785 C 0.18245 0.87329 0.18844 0.0
C786 C 0.2109 0.89324 0.21389 0.0
C787 C 0.2358 0.88605 0.21572 0.0
C788 C 0.25993 0.90037 0.24499 0.0
C789 C 0.25994 0.92262 0.27252 0.0
C790 C 0.23579 0.93094 0.26934 0.0
C791 C 0.21119 0.91597 0.24068 0.0
H792 H 0.27535 0.19691 0.80183 0.0
H793 H 0.29164 0.24124 0.75342 0.0
H794 H 0.38999 0.27651 0.78795 0.0
H795 H 0.3734 0.23268 0.83679 0.0
H796 H 0.31172 0.1555 0.79486 0.0
H797 H 0.28429 0.21922 0.89304 0.0
H798 H 0.29928 0.26744 0.93417 0.0
H799 H 0.38011 0.26137 0.98166 0.0
H800 H 0.36544 0.21445 0.94095 0.0
H801 H 0.36345 0.15067 0.94412 0.0
H802 H 0.37889 0.11843 0.98471 0.0
H803 H 0.29945 0.03244 0.93629 0.0
H804 H 0.28347 0.06558 0.89552 0.0
H805 H 0.31473 0.15828 0.94498 0.0
H806 H 0.36768 0.12914 0.84436 0.0
H807 H 0.38092 0.09898 0.79624 0.0
H808 H 0.28398 0.0518 0.75148 0.0
H809 H 0.27104 0.08267 0.79939 0.0
C810 C 0.32315 0.21175 0.8231 0.0
C811 C 0.30031 0.21468 0.7996 0.0
C812 C 0.30969 0.24002 0.77197 0.0
C813 C 0.34216 0.26235 0.76669 0.0
C814 C 0.36483 0.2597 0.79113 0.0
C815 C 0.35539 0.23477 0.81922 0.0
C816 C 0.31433 0.18272 0.84781 0.0
C817 C 0.31122 0.15554 0.82777 0.0
C818 C 0.31532 0.1836 0.89065 0.0
C819 C 0.32375 0.21319 0.91391 0.0
C820 C 0.30527 0.22853 0.91229 0.0
C821 C 0.31367 0.25585 0.93606 0.0
C822 C 0.34085 0.26831 0.96136 0.0
C823 C 0.35907 0.25269 0.96259 0.0
C824 C 0.35066 0.22565 0.93927 0.0
C825 C 0.32223 0.11069 0.9167 0.0
C826 C 0.34897 0.12489 0.94241 0.0
C827 C 0.35789 0.10627 0.9656 0.0
C828 C 0.34046 0.0727 0.96382 0.0
C829 C 0.31327 0.05822 0.93855 0.0
C830 C 0.30429 0.07711 0.915 0.0
C831 C 0.31413 0.1319 0.89212 0.0
C832 C 0.31346 0.15735 0.91208 0.0
C833 C 0.31245 0.13072 0.84925 0.0
C834 C 0.31833 0.10797 0.82563 0.0
C835 C 0.34907 0.11169 0.82495 0.0
C836 C 0.35662 0.09453 0.7973 0.0
C837 C 0.33349 0.07302 0.77004 0.0
C838 C 0.30221 0.06793 0.77237 0.0
C839 C 0.2948 0.08559 0.79963 0.0
H840 H 0.78497 0.06457 0.84863 0.0
H841 H 0.74129 0.03039 0.80296 0.0
H842 H 0.74652 0.11383 0.74619 0.0
H843 H 0.78742 0.14798 0.79498 0.0
H844 H 0.84344 0.15599 0.79697 0.0
H845 H 0.80352 0.06863 0.916 0.0
H846 H 0.7555 0.02983 0.95266 0.0
H847 H 0.72809 0.10218 0.96748 0.0
H848 H 0.77448 0.13992 0.928 0.0
H849 H 0.86488 0.22946 0.91908 0.0
H850 H 0.90322 0.27587 0.95855 0.0
H851 H 0.96854 0.23877 0.95992 0.0
H852 H 0.92901 0.19099 0.92275 0.0
H853 H 0.84645 0.15405 0.94701 0.0
H854 H 0.85734 0.21131 0.78922 0.0
H855 H 0.89426 0.25263 0.74352 0.0
H856 H 0.97361 0.25724 0.81034 0.0
H857 H 0.93667 0.21248 0.85278 0.0
C858 C 0.78957 0.10913 0.82605 0.0
C859 C 0.77582 0.07568 0.828 0.0
C860 C 0.75164 0.05608 0.80073 0.0
C861 C 0.74213 0.06966 0.76958 0.0
C862 C 0.75434 0.10284 0.76906 0.0
C863 C 0.77773 0.12234 0.79701 0.0
C864 C 0.8183 0.13093 0.8506 0.0
C865 C 0.84424 0.15553 0.82982 0.0
C866 C 0.81955 0.12986 0.89352 0.0
C867 C 0.79189 0.10677 0.91792 0.0
C868 C 0.78685 0.07593 0.92658 0.0
C869 C 0.75966 0.05391 0.94777 0.0
C870 C 0.73822 0.06311 0.96282 0.0
C871 C 0.74436 0.09456 0.95628 0.0
C872 C 0.77073 0.11606 0.93361 0.0
C873 C 0.89448 0.20726 0.91725 0.0
C874 C 0.88729 0.23113 0.92827 0.0
C875 C 0.90905 0.25745 0.95093 0.0
C876 C 0.93865 0.26067 0.96209 0.0
C877 C 0.94579 0.23664 0.95158 0.0
C878 C 0.92339 0.20958 0.93026 0.0
C879 C 0.87105 0.17967 0.89314 0.0
C880 C 0.84613 0.15405 0.91409 0.0
C881 C 0.8702 0.18061 0.85014 0.0
C882 C 0.89378 0.20837 0.8252 0.0
C883 C 0.88264 0.2205 0.79385 0.0
C884 C 0.9038 0.24428 0.76765 0.0
C885 C 0.93681 0.25705 0.77219 0.0
C886 C 0.94824 0.24665 0.80493 0.0
C887 C 0.92697 0.22182 0.83033 0.0
H888 H 0.79297 0.64499 0.79085 0.0
H889 H 0.75195 0.63788 0.7415 0.0
H890 H 0.73917 0.70994 0.80222 0.0
H891 H 0.78182 0.7187 0.85056 0.0
H892 H 0.84657 0.69045 0.79942 0.0
H893 H 0.76179 0.63575 0.88978 0.0
H894 H 0.71374 0.62043 0.92867 0.0
H895 H 0.7585 0.71298 0.98642 0.0
H896 H 0.80722 0.72836 0.94697 0.0
H897 H 0.93583 0.73029 0.89003 0.0
H898 H 0.97616 0.72271 0.92618 0.0
H899 H 0.90304 0.65074 1.00155 0.0
H900 H 0.86258 0.65698 0.96395 0.0
H901 H 0.8434 0.69495 0.94925 0.0
H902 H 0.91605 0.73328 0.80088 0.0
H903 H 0.94464 0.71864 0.75167 0.0
H904 H 0.90437 0.62482 0.80583 0.0
H905 H 0.87673 0.63988 0.85558 0.0
C906 C 0.79112 0.68291 0.8241 0.0
C907 C 0.78171 0.65964 0.79348 0.0
C908 C 0.75823 0.65546 0.76533 0.0
C909 C 0.74378 0.67454 0.7671 0.0
C910 C 0.75126 0.6961 0.79931 0.0
C911 C 0.77515 0.70064 0.82733 0.0
C912 C 0.81878 0.6894 0.85071 0.0
C913 C 0.84603 0.69202 0.83218 0.0
C914 C 0.81791 0.69082 0.89356 0.0
C915 C 0.78809 0.68324 0.91527 0.0
C916 C 0.76122 0.65303 0.91024 0.0
C917 C 0.73376 0.64428 0.93264 0.0
C918 C 0.73233 0.66552 0.96065 0.0
C919 C 0.75881 0.69627 0.96478 0.0
C920 C 0.78667 0.70494 0.94253 0.0
C921 C 0.8959 0.69368 0.92341 0.0
C922 C 0.92837 0.71277 0.91421 0.0
C923 C 0.95149 0.70867 0.93518 0.0
C924 C 0.94273 0.68603 0.96657 0.0
C925 C 0.91055 0.6685 0.97765 0.0
C926 C 0.88737 0.67211 0.95611 0.0
C927 C 0.87075 0.69473 0.89775 0.0
C928 C 0.84435 0.69446 0.91642 0.0
C929 C 0.87135 0.69343 0.85485 0.0
C930 C 0.8946 0.68779 0.83219 0.0
C931 C 0.91446 0.71002 0.80311 0.0
C932 C 0.93071 0.70162 0.775 0.0
C933 C 0.92657 0.67055 0.77483 0.0
C934 C 0.90795 0.64892 0.80525 0.0
C935 C 0.89233 0.65756 0.83387 0.0
H936 H 0.79141 0.69644 0.51499 0.0
H937 H 0.76313 0.71134 0.56382 0.0
H938 H 0.71877 0.61601 0.61413 0.0
H939 H 0.74776 0.6014 0.56554 0.0
H940 H 0.81796 0.64184 0.5694 0.0
H941 H 0.81389 0.68809 0.41452 0.0
H942 H 0.78133 0.70376 0.37521 0.0
H943 H 0.69643 0.62821 0.4304 0.0
H944 H 0.72981 0.61181 0.4697 0.0
H945 H 0.84973 0.60372 0.41593 0.0
H946 H 0.8966 0.61213 0.37688 0.0
H947 H 0.95497 0.6985 0.44415 0.0
H948 H 0.90831 0.69095 0.48193 0.0
H949 H 0.82249 0.64059 0.41954 0.0
H950 H 0.88273 0.61326 0.51899 0.0
H951 H 0.92616 0.62296 0.5666 0.0
H952 H 0.91361 0.69547 0.62643 0.0
H953 H 0.87197 0.68754 0.57774 0.0
C954 C 0.77146 0.64773 0.53637 0.0
C955 C 0.77479 0.67842 0.5356 0.0
C956 C 0.75875 0.68695 0.56369 0.0
C957 C 0.73878 0.66484 0.59285 0.0
C958 C 0.73371 0.63343 0.59175 0.0
C959 C 0.75026 0.62506 0.56405 0.0
C960 C 0.7944 0.64156 0.51383 0.0
C961 C 0.81886 0.64107 0.53657 0.0
C962 C 0.79587 0.64184 0.47102 0.0
C963 C 0.77446 0.6488 0.44527 0.0
C964 C 0.78826 0.67435 0.41781 0.0
C965 C 0.76946 0.68348 0.39547 0.0
C966 C 0.73616 0.66746 0.39992 0.0
C967 C 0.722 0.64103 0.42631 0.0
C968 C 0.74106 0.63181 0.44894 0.0
C969 C 0.87553 0.64628 0.45267 0.0
C970 C 0.87263 0.62447 0.4223 0.0
C971 C 0.89927 0.62925 0.39995 0.0
C972 C 0.92916 0.65587 0.40777 0.0
C973 C 0.93207 0.67771 0.43783 0.0
C974 C 0.90548 0.67321 0.45971 0.0
C975 C 0.84698 0.64202 0.47514 0.0
C976 C 0.82131 0.64031 0.4524 0.0
C977 C 0.84602 0.64314 0.51812 0.0
C978 C 0.87352 0.64926 0.545 0.0
C979 C 0.88954 0.63155 0.54194 0.0
C980 C 0.91394 0.63668 0.56952 0.0
C981 C 0.92183 0.65871 0.60129 0.0
C982 C 0.90712 0.67757 0.60298 0.0
C983 C 0.88321 0.67287 0.57523 0.0
H984 H 0.38581 0.26898 0.51639 0.0
H985 H 0.38005 0.30689 0.56039 0.0
H986 H 0.31252 0.22866 0.63354 0.0
H987 H 0.31577 0.19071 0.58806 0.0
H988 H 0.35455 0.17564 0.57503 0.0
H989 H 0.39162 0.25078 0.42457 0.0
H990 H 0.37608 0.28508 0.38535 0.0
H991 H 0.28519 0.24034 0.44578 0.0
H992 H 0.30073 0.20686 0.48457 0.0
H993 H 0.30115 0.10624 0.4441 0.0
H994 H 0.29402 0.05941 0.40592 0.0
H995 H 0.39448 0.09167 0.41773 0.0
H996 H 0.40196 0.13993 0.45326 0.0
H997 H 0.35624 0.18051 0.425 0.0
H998 H 0.30669 0.12035 0.57563 0.0
H999 H 0.29961 0.07796 0.62265 0.0
H1000 H 0.37472 0.07008 0.56361 0.0
H1001 H 0.3848 0.1153 0.51994 0.0
C1002 C 0.3515 0.22666 0.54878 0.0
C1003 C 0.36933 0.2598 0.54142 0.0
C1004 C 0.36662 0.28157 0.56707 0.0
C1005 C 0.34717 0.27068 0.60146 0.0
C1006 C 0.32858 0.2377 0.60801 0.0
C1007 C 0.33064 0.216 0.58202 0.0
C1008 C 0.35468 0.20282 0.52293 0.0
C1009 C 0.35495 0.17677 0.54219 0.0
C1010 C 0.35502 0.20407 0.47995 0.0
C1011 C 0.34734 0.22638 0.45758 0.0
C1012 C 0.36852 0.24875 0.42952 0.0
C1013 C 0.35976 0.26843 0.40742 0.0
C1014 C 0.32944 0.2653 0.41249 0.0
C1015 C 0.30868 0.24322 0.44107 0.0
C1016 C 0.31754 0.22408 0.46337 0.0
C1017 C 0.35194 0.1261 0.45229 0.0
C1018 C 0.32172 0.10353 0.43783 0.0
C1019 C 0.31771 0.0769 0.416 0.0
C1020 C 0.3437 0.07199 0.40923 0.0
C1021 C 0.3741 0.09496 0.42277 0.0
C1022 C 0.37833 0.12236 0.44309 0.0
C1023 C 0.35552 0.15317 0.47748 0.0
C1024 C 0.35671 0.17989 0.45789 0.0
C1025 C 0.3535 0.15103 0.52036 0.0
C1026 C 0.3464 0.12148 0.54375 0.0
C1027 C 0.32196 0.10982 0.57277 0.0
C1028 C 0.31784 0.08554 0.59967 0.0
C1029 C 0.33788 0.07213 0.59805 0.0
C1030 C 0.36017 0.08136 0.56674 0.0
C1031 C 0.36507 0.10649 0.54058 0.0
H1032 H 0.7515 0.15142 0.57111 0.0
H1033 H 0.72115 0.10668 0.61795 0.0
H1034 H 0.76878 0.05778 0.57056 0.0
H1035 H 0.79846 0.10205 0.52369 0.0
H1036 H 0.82379 0.18324 0.57498 0.0
H1037 H 0.73435 0.1237 0.47326 0.0
H1038 H 0.70224 0.0749 0.43286 0.0
H1039 H 0.78911 0.08163 0.38704 0.0
H1040 H 0.82026 0.1291 0.42689 0.0
H1041 H 0.87908 0.19825 0.41453 0.0
H1042 H 0.92411 0.23617 0.37465 0.0
H1043 H 0.93379 0.3131 0.4511 0.0
H1044 H 0.88703 0.2752 0.48974 0.0
H1045 H 0.82536 0.18572 0.42486 0.0
H1046 H 0.90375 0.20381 0.52909 0.0
H1047 H 0.94642 0.22915 0.57978 0.0
H1048 H 0.90318 0.28318 0.62424 0.0
H1049 H 0.8599 0.25683 0.57423 0.0
C1050 C 0.77704 0.12993 0.54373 0.0
C1051 C 0.75465 0.1306 0.57009 0.0
C1052 C 0.73724 0.105 0.59667 0.0
C1053 C 0.74259 0.07874 0.59789 0.0
C1054 C 0.7641 0.07766 0.57027 0.0
C1055 C 0.78101 0.1029 0.54337 0.0
C1056 C 0.79931 0.1588 0.52044 0.0
C1057 C 0.82373 0.18435 0.54207 0.0
C1058 C 0.80039 0.15903 0.47762 0.0
C1059 C 0.77976 0.13016 0.45302 0.0
C1060 C 0.74627 0.11451 0.45435 0.0
C1061 C 0.72797 0.08677 0.43115 0.0
C1062 C 0.74302 0.07421 0.40679 0.0
C1063 C 0.77651 0.0903 0.40554 0.0
C1064 C 0.79452 0.11776 0.42822 0.0
C1065 C 0.87937 0.23353 0.45564 0.0
C1066 C 0.89028 0.22332 0.42246 0.0
C1067 C 0.91616 0.24511 0.39947 0.0
C1068 C 0.93242 0.2777 0.40948 0.0
C1069 C 0.92167 0.28812 0.44256 0.0
C1070 C 0.89518 0.26633 0.46508 0.0
C1071 C 0.85113 0.20966 0.47922 0.0
C1072 C 0.82518 0.18541 0.45776 0.0
C1073 C 0.85039 0.2088 0.52223 0.0
C1074 C 0.87889 0.22873 0.54762 0.0
C1075 C 0.90384 0.22161 0.54919 0.0
C1076 C 0.92805 0.23592 0.57836 0.0
C1077 C 0.92809 0.25808 0.60605 0.0
C1078 C 0.9039 0.26636 0.60313 0.0
C1079 C 0.87921 0.2514 0.57457 0.0
H1080 H 0.94177 0.53083 0.13557 0.0
H1081 H 0.95738 0.57476 0.08664 0.0
H1082 H 0.05621 0.60994 0.11846 0.0
H1083 H 0.04031 0.56654 0.16779 0.0
H1084 H 0.97934 0.4897 0.12753 0.0
H1085 H 0.95078 0.55286 0.22568 0.0
H1086 H 0.96519 0.60077 0.26722 0.0
H1087 H 0.04637 0.59535 0.31475 0.0
H1088 H 0.03234 0.54885 0.27359 0.0
H1089 H 0.03108 0.48522 0.27708 0.0
H1090 H 0.04673 0.453 0.31749 0.0
H1091 H 0.96746 0.36697 0.26892 0.0
H1092 H 0.95133 0.40003 0.22828 0.0
H1093 H 0.982 0.49255 0.27765 0.0
H1094 H 0.03584 0.46408 0.17772 0.0
H1095 H 0.04957 0.43396 0.13015 0.0
H1096 H 0.95281 0.38613 0.08469 0.0
H1097 H 0.9394 0.41692 0.13205 0.0
C1098 C 0.98986 0.54568 0.15554 0.0
C1099 C 0.96669 0.54852 0.13264 0.0
C1100 C 0.97569 0.57361 0.10469 0.0
C1101 C 0.00808 0.59578 0.09848 0.0
C1102 C 0.0311 0.59323 0.12233 0.0
C1103 C 0.02205 0.56856 0.15072 0.0
C1104 C 0.98141 0.51679 0.18039 0.0
C1105 C 0.97877 0.48976 0.16044 0.0
C1106 C 0.98235 0.51771 0.22324 0.0
C1107 C 0.99049 0.54724 0.24649 0.0
C1108 C 0.97173 0.56227 0.245 0.0
C1109 C 0.97978 0.5894 0.26902 0.0
C1110 C 0.00688 0.60195 0.29448 0.0
C1111 C 0.02537 0.58662 0.29558 0.0
C1112 C 0.01735 0.55981 0.27197 0.0
C1113 C 0.98997 0.44518 0.24956 0.0
C1114 C 0.01669 0.45943 0.2753 0.0
C1115 C 0.02574 0.44084 0.29838 0.0
C1116 C 0.0084 0.40727 0.29649 0.0
C1117 C 0.98121 0.39275 0.27125 0.0
C1118 C 0.97214 0.4116 0.24779 0.0
C1119 C 0.98181 0.46631 0.22489 0.0
C1120 C 0.9808 0.49161 0.24476 0.0
C1121 C 0.9803 0.46514 0.18202 0.0
C1122 C 0.98656 0.44257 0.15858 0.0
C1123 C 0.01738 0.44651 0.15825 0.0
C1124 C 0.02521 0.42937 0.13093 0.0
C1125 C 1.00227 0.40767 0.10363 0.0
C1126 C 0.97091 0.4024 0.10561 0.0
C1127 C 0.96323 0.42003 0.13254 0.0
H1128 H 0.45129 0.39688 0.18166 0.0
H1129 H 0.40767 0.36243 0.13607 0.0
H1130 H 0.41238 0.44551 0.07895 0.0
H1131 H 0.45322 0.47993 0.12763 0.0
H1132 H 0.50939 0.48867 0.13013 0.0
H1133 H 0.47009 0.40106 0.24919 0.0
H1134 H 0.42227 0.36191 0.28593 0.0
H1135 H 0.39342 0.43324 0.2999 0.0
H1136 H 0.4396 0.47131 0.26039 0.0
H1137 H 0.52922 0.5611 0.25381 0.0
H1138 H 0.56709 0.6075 0.29369 0.0
H1139 H 0.63393 0.57226 0.29306 0.0
H1140 H 0.59486 0.52443 0.25558 0.0
H1141 H 0.51192 0.48623 0.28018 0.0
H1142 H 0.52244 0.54392 0.12283 0.0
H1143 H 0.55907 0.58547 0.07713 0.0
H1144 H 0.63884 0.59093 0.14384 0.0
H1145 H 0.60224 0.54601 0.18627 0.0
C1146 C 0.45564 0.44128 0.15888 0.0
C1147 C 0.44206 0.40785 0.16095 0.0
C1148 C 0.41791 0.3881 0.13373 0.0
C1149 C 0.40825 0.4015 0.10253 0.0
C1150 C 0.42032 0.43466 0.10187 0.0
C1151 C 0.44368 0.45431 0.12974 0.0
C1152 C 0.48422 0.46325 0.18358 0.0
C1153 C 0.51006 0.48813 0.16299 0.0
C1154 C 0.48535 0.46206 0.2265 0.0
C1155 C 0.45773 0.43871 0.25074 0.0
C1156 C 0.45315 0.40805 0.2596 0.0
C1157 C 0.42607 0.38583 0.28082 0.0
C1158 C 0.40429 0.39466 0.29567 0.0
C1159 C 0.40995 0.42592 0.28885 0.0
C1160 C 0.4362 0.44761 0.26617 0.0
C1161 C 0.55963 0.53985 0.25091 0.0
C1162 C 0.55186 0.56316 0.26267 0.0
C1163 C 0.57335 0.58946 0.2856 0.0
C1164 C 0.60324 0.59322 0.29629 0.0
C1165 C 0.61093 0.5697 0.28511 0.0
C1166 C 0.58881 0.54264 0.26357 0.0
C1167 C 0.53649 0.51226 0.22652 0.0
C1168 C 0.5117 0.48637 0.24726 0.0
C1169 C 0.53575 0.51337 0.18352 0.0
C1170 C 0.55913 0.54141 0.15876 0.0
C1171 C 0.54778 0.55338 0.12747 0.0
C1172 C 0.56877 0.57729 0.10126 0.0
C1173 C 0.60182 0.59034 0.10574 0.0
C1174 C 0.61345 0.58015 0.13848 0.0
C1175 C 0.59235 0.55521 0.1639 0.0
H1176 H 0.58326 0.0672 0.13424 0.0
H1177 H 0.61207 0.05305 0.08476 0.0
H1178 H 0.57315 0.95938 0.13906 0.0
H1179 H 0.54528 0.97397 0.18906 0.0
H1180 H 0.51401 0.02376 0.1332 0.0
H1181 H 0.60362 0.06409 0.22334 0.0
H1182 H 0.64422 0.05683 0.25935 0.0
H1183 H 0.57151 0.98483 0.33512 0.0
H1184 H 0.53081 0.99066 0.29763 0.0
H1185 H 0.4298 0.96804 0.2242 0.0
H1186 H 0.38163 0.95217 0.2631 0.0
H1187 H 0.42518 0.04501 0.32004 0.0
H1188 H 0.47404 0.0609 0.28066 0.0
H1189 H 0.5111 0.02803 0.28306 0.0
H1190 H 0.46054 0.97788 0.12484 0.0
H1191 H 0.41949 0.97063 0.07544 0.0
H1192 H 0.40623 0.04234 0.13626 0.0
H1193 H 0.44887 0.05122 0.18469 0.0
C1194 C 0.56246 0.02176 0.16563 0.0
C1195 C 0.58201 0.04409 0.13643 0.0
C1196 C 0.59838 0.03597 0.10817 0.0
C1197 C 0.59467 0.00507 0.10797 0.0
C1198 C 0.57637 0.98335 0.1385 0.0
C1199 C 0.56064 0.99173 0.16726 0.0
C1200 C 0.53906 0.02702 0.18849 0.0
C1201 C 0.51354 0.0253 0.16598 0.0
C1202 C 0.53853 0.02824 0.2314 0.0
C1203 C 0.56387 0.0274 0.25692 0.0
C1204 C 0.5963 0.04661 0.24755 0.0
C1205 C 0.61959 0.0427 0.26844 0.0
C1206 C 0.61102 0.02017 0.29993 0.0
C1207 C 0.57888 0.00251 0.31113 0.0
C1208 C 0.55554 0.0059 0.28966 0.0
C1209 C 0.45551 0.01568 0.24934 0.0
C1210 C 0.42894 0.98523 0.24454 0.0
C1211 C 0.40141 0.97617 0.26695 0.0
C1212 C 0.3996 0.99735 0.2947 0.0
C1213 C 0.42579 0.02832 0.29863 0.0
C1214 C 0.45372 0.03729 0.2764 0.0
C1215 C 0.48539 0.02367 0.2275 0.0
C1216 C 0.512 0.0276 0.25023 0.0
C1217 C 0.48619 0.02233 0.18465 0.0
C1218 C 0.45842 0.01562 0.15815 0.0
C1219 C 0.44914 0.9924 0.1275 0.0
C1220 C 0.42567 0.98815 0.09931 0.0
C1221 C 0.41108 0.00711 0.10108 0.0
C1222 C 0.41842 0.0286 0.13335 0.0
C1223 C 0.4423 0.0332 0.16143 0.0
H1224 H 0.45899 0.02928 0.84891 0.0
H1225 H 0.43067 0.04405 0.89786 0.0
H1226 H 0.38653 0.94867 0.94802 0.0
H1227 H 0.41558 0.93421 0.89933 0.0
H1228 H 0.48593 0.97513 0.90317 0.0
H1229 H 0.48117 0.02065 0.74801 0.0
H1230 H 0.44836 0.03588 0.70856 0.0
H1231 H 0.36377 0.96037 0.76437 0.0
H1232 H 0.39741 0.94437 0.8038 0.0
H1233 H 0.51829 0.93714 0.75016 0.0
H1234 H 0.56537 0.94617 0.7111 0.0
H1235 H 0.62265 0.03344 0.77722 0.0
H1236 H 0.57578 0.02517 0.81511 0.0
H1237 H 0.49017 0.97354 0.75331 0.0
H1238 H 0.55126 0.94733 0.8525 0.0
H1239 H 0.59491 0.95748 0.89995 0.0
H1240 H 0.58167 0.02954 0.95984 0.0
H1241 H 0.53977 0.02113 0.91135 0.0
C1242 C 0.43915 0.98056 0.87022 0.0
C1243 C 0.44241 0.01123 0.86952 0.0
C1244 C 0.42636 0.01968 0.89768 0.0
C1245 C 0.40643 0.99752 0.92683 0.0
C1246 C 0.40143 0.96613 0.92566 0.0
C1247 C 0.41801 0.95784 0.89789 0.0
C1248 C 0.46215 0.97451 0.84765 0.0
C1249 C 0.48678 0.9743 0.87034 0.0
C1250 C 0.46352 0.97467 0.80484 0.0
C1251 C 0.44193 0.98139 0.77908 0.0
C1252 C 0.45556 0.00681 0.75142 0.0
C1253 C 0.43661 0.01569 0.72898 0.0
C1254 C 0.40332 0.99956 0.73356 0.0
C1255 C 0.38932 0.97327 0.76017 0.0
C1256 C 0.40854 0.96428 0.78288 0.0
C1257 C 0.54355 0.98008 0.78635 0.0
C1258 C 0.54099 0.95822 0.75626 0.0
C1259 C 0.56775 0.96335 0.73392 0.0
C1260 C 0.59739 0.99043 0.74138 0.0
C1261 C 0.59994 0.01233 0.77115 0.0
C1262 C 0.57325 0.00743 0.79308 0.0
C1263 C 0.51489 0.97542 0.80885 0.0
C1264 C 0.48905 0.97334 0.78618 0.0
C1265 C 0.51401 0.97661 0.85182 0.0
C1266 C 0.54166 0.98305 0.87858 0.0
C1267 C 0.55797 0.96562 0.87543 0.0
C1268 C 0.5825 0.97101 0.90291 0.0
C1269 C 0.59027 0.99304 0.93465 0.0
C1270 C 0.57528 0.01164 0.93642 0.0
C1271 C 0.55123 0.00667 0.90877 0.0
H1272 H 0.05035 0.60383 0.8474 0.0
H1273 H 0.04391 0.64127 0.89146 0.0
H1274 H 0.97743 0.56251 0.96482 0.0
H1275 H 0.98178 0.52496 0.9196 0.0
H1276 H 0.02363 0.51264 0.90821 0.0
H1277 H 0.05799 0.58669 0.75885 0.0
H1278 H 0.04164 0.62038 0.71975 0.0
H1279 H 0.94877 0.5703 0.77491 0.0
H1280 H 0.96521 0.53753 0.81376 0.0
H1281 H 0.96922 0.4406 0.77927 0.0
H1282 H 0.96226 0.39386 0.74107 0.0
H1283 H 0.06299 0.4271 0.75143 0.0
H1284 H 0.07027 0.47529 0.78698 0.0
H1285 H 0.02277 0.51415 0.75802 0.0
H1286 H 0.97684 0.45707 0.91118 0.0
H1287 H 0.97007 0.41465 0.95789 0.0
H1288 H 0.04472 0.40677 0.89756 0.0
H1289 H 0.05462 0.45216 0.85425 0.0
C1290 C 0.01693 0.56129 0.88019 0.0
C1291 C 0.03388 0.59441 0.87242 0.0
C1292 C 0.03077 0.61593 0.89808 0.0
C1293 C 0.01156 0.60478 0.93265 0.0
C1294 C 0.99334 0.57175 0.93916 0.0
C1295 C 0.99599 0.55029 0.91332 0.0
C1296 C 0.02143 0.53787 0.8552 0.0
C1297 C 0.02335 0.51296 0.87532 0.0
C1298 C 0.02137 0.53832 0.81223 0.0
C1299 C 0.01278 0.55969 0.78923 0.0
C1300 C 0.03422 0.58328 0.76256 0.0
C1301 C 0.02498 0.60261 0.74053 0.0
C1302 C 0.99393 0.5979 0.7442 0.0
C1303 C 0.9728 0.57441 0.77121 0.0
C1304 C 0.98215 0.55565 0.79353 0.0
C1305 C 0.02012 0.46094 0.78683 0.0
C1306 C 0.98987 0.43809 0.77278 0.0
C1307 C 0.98595 0.41152 0.75091 0.0
C1308 C 0.01209 0.40695 0.74363 0.0
C1309 C 0.0425 0.43013 0.75688 0.0
C1310 C 0.04661 0.45747 0.77726 0.0
C1311 C 0.02366 0.48832 0.81131 0.0
C1312 C 0.0237 0.51422 0.79092 0.0
C1313 C 0.02247 0.48714 0.8543 0.0
C1314 C 0.01628 0.45821 0.87858 0.0
C1315 C 0.99218 0.44665 0.90806 0.0
C1316 C 0.98821 0.42231 0.93477 0.0
C1317 C 0.00806 0.4087 0.93256 0.0
C1318 C 0.03028 0.41813 0.90113 0.0
C1319 C 0.03507 0.44335 0.87518 0.0
H1320 H 0.41676 0.48288 0.90426 0.0
H1321 H 0.38661 0.43808 0.95108 0.0
H1322 H 0.43462 0.38961 0.90354 0.0
H1323 H 0.46412 0.43395 0.85671 0.0
H1324 H 0.48894 0.51516 0.90803 0.0
H1325 H 0.39978 0.45513 0.80618 0.0
H1326 H 0.36793 0.40621 0.76589 0.0
H1327 H 0.45508 0.41333 0.72052 0.0
H1328 H 0.48598 0.46096 0.76023 0.0
H1329 H 0.54449 0.53063 0.74752 0.0
H1330 H 0.58935 0.56886 0.70765 0.0
H1331 H 0.5983 0.64543 0.78424 0.0
H1332 H 0.55169 0.60722 0.82283 0.0
H1333 H 0.49066 0.51749 0.75791 0.0
H1334 H 0.56902 0.5362 0.86255 0.0
H1335 H 0.61151 0.5618 0.91342 0.0
H1336 H 0.56766 0.61546 0.95721 0.0
H1337 H 0.52456 0.58885 0.90702 0.0
C1338 C 0.44249 0.46162 0.87681 0.0
C1339 C 0.42004 0.46215 0.90321 0.0
C1340 C 0.40274 0.4365 0.92977 0.0
C1341 C 0.40826 0.41035 0.93095 0.0
C1342 C 0.42981 0.4094 0.90329 0.0
C1343 C 0.44663 0.43469 0.8764 0.0
C1344 C 0.46464 0.49055 0.8535 0.0
C1345 C 0.48891 0.51623 0.87512 0.0
C1346 C 0.46577 0.49075 0.81068 0.0
C1347 C 0.44531 0.46181 0.78613 0.0
C1348 C 0.41181 0.44601 0.78738 0.0
C1349 C 0.39367 0.41819 0.76426 0.0
C1350 C 0.40888 0.4057 0.74007 0.0
C1351 C 0.44237 0.42194 0.7389 0.0
C1352 C 0.46023 0.44949 0.76149 0.0
C1353 C 0.54441 0.5657 0.7887 0.0
C1354 C 0.55548 0.55569 0.75548 0.0
C1355 C 0.58127 0.57766 0.73249 0.0
C1356 C 0.59728 0.61024 0.74255 0.0
C1357 C 0.58637 0.62046 0.77566 0.0
C1358 C 0.55996 0.59849 0.79817 0.0
C1359 C 0.51627 0.54164 0.81227 0.0
C1360 C 0.49045 0.51722 0.79081 0.0
C1361 C 0.51548 0.54081 0.85529 0.0
C1362 C 0.54388 0.56093 0.88072 0.0
C1363 C 0.56894 0.55398 0.88254 0.0
C1364 C 0.59304 0.56843 0.91182 0.0
C1365 C 0.59286 0.59056 0.93938 0.0
C1366 C 0.56855 0.59866 0.93622 0.0
C1367 C 0.54397 0.58356 0.90755 0.0
H1368 H 0.60913 0.866 0.46926 0.0
H1369 H 0.62553 0.91035 0.42087 0.0
H1370 H 0.72397 0.94447 0.45396 0.0
H1371 H 0.70727 0.90061 0.50277 0.0
H1372 H 0.64538 0.824 0.46147 0.0
H1373 H 0.61807 0.88782 0.55962 0.0
H1374 H 0.63317 0.93604 0.6008 0.0
H1375 H 0.71371 0.92956 0.64854 0.0
H1376 H 0.69895 0.88265 0.60777 0.0
H1377 H 0.69661 0.81867 0.61096 0.0
H1378 H 0.71181 0.7862 0.65146 0.0
H1379 H 0.63236 0.70048 0.60253 0.0
H1380 H 0.6166 0.73384 0.56186 0.0
H1381 H 0.6481 0.82655 0.61159 0.0
H1382 H 0.70095 0.79716 0.51104 0.0
H1383 H 0.71406 0.76696 0.46284 0.0
H1384 H 0.6172 0.72029 0.41782 0.0
H1385 H 0.60439 0.75122 0.46581 0.0
C1386 C 0.65697 0.88026 0.4898 0.0
C1387 C 0.63414 0.88353 0.46671 0.0
C1388 C 0.64359 0.90888 0.4391 0.0
C1389 C 0.6761 0.93089 0.43341 0.0
C1390 C 0.69878 0.92791 0.45745 0.0
C1391 C 0.68927 0.90297 0.48552 0.0
C1392 C 0.648 0.85119 0.51446 0.0
C1393 C 0.64482 0.82399 0.49438 0.0
C1394 C 0.6489 0.852 0.55729 0.0
C1395 C 0.65739 0.88159 0.5806 0.0
C1396 C 0.63902 0.89704 0.57893 0.0
C1397 C 0.64747 0.92436 0.60273 0.0
C1398 C 0.6746 0.93671 0.62811 0.0
C1399 C 0.69271 0.92097 0.6294 0.0
C1400 C 0.68425 0.89394 0.60605 0.0
C1401 C 0.6554 0.77884 0.58329 0.0
C1402 C 0.68207 0.7929 0.60912 0.0
C1403 C 0.69086 0.77415 0.63227 0.0
C1404 C 0.67336 0.74059 0.6303 0.0
C1405 C 0.64623 0.72625 0.60493 0.0
C1406 C 0.63738 0.74527 0.58144 0.0
C1407 C 0.64748 0.80019 0.55872 0.0
C1408 C 0.6469 0.82568 0.5787 0.0
C1409 C 0.64588 0.79907 0.51583 0.0
C1410 C 0.65165 0.77625 0.49219 0.0
C1411 C 0.68232 0.77981 0.49155 0.0
C1412 C 0.6898 0.76263 0.46386 0.0
C1413 C 0.66666 0.74125 0.4365 0.0
C1414 C 0.63543 0.73632 0.43879 0.0
C1415 C 0.6281 0.75401 0.46609 0.0
H1416 H 0.11623 0.72965 0.51544 0.0
H1417 H 0.07263 0.6955 0.46968 0.0
H1418 H 0.07813 0.77897 0.41264 0.0
H1419 H 0.11899 0.81311 0.46149 0.0
H1420 H 0.17491 0.82119 0.46376 0.0
H1421 H 0.13521 0.73366 0.58297 0.0
H1422 H 0.08718 0.69477 0.61958 0.0
H1423 H 0.05915 0.76672 0.63346 0.0
H1424 H 0.10556 0.80455 0.59409 0.0
H1425 H 0.19598 0.89377 0.58738 0.0
H1426 H 0.23419 0.93992 0.62733 0.0
H1427 H 0.30021 0.90367 0.62643 0.0
H1428 H 0.26078 0.85608 0.58887 0.0
H1429 H 0.1779 0.81874 0.61377 0.0
H1430 H 0.18887 0.87646 0.45617 0.0
H1431 H 0.22577 0.91761 0.4103 0.0
H1432 H 0.30513 0.92218 0.47703 0.0
H1433 H 0.2682 0.87748 0.51953 0.0
C1434 C 0.12101 0.77423 0.4927 0.0
C1435 C 0.10717 0.74077 0.49473 0.0
C1436 C 0.08302 0.7212 0.46741 0.0
C1437 C 0.07361 0.73478 0.43617 0.0
C1438 C 0.08588 0.76797 0.4356 0.0
C1439 C 0.10925 0.78746 0.46357 0.0
C1440 C 0.14974 0.79599 0.5173 0.0
C1441 C 0.17569 0.82064 0.49661 0.0
C1442 C 0.15099 0.79477 0.5602 0.0
C1443 C 0.12331 0.77162 0.58453 0.0
C1444 C 0.11842 0.74086 0.59338 0.0
C1445 C 0.09121 0.71877 0.6145 0.0
C1446 C 0.06959 0.72785 0.62927 0.0
C1447 C 0.07555 0.75921 0.62248 0.0
C1448 C 0.10194 0.78077 0.59989 0.0
C1449 C 0.22595 0.87203 0.58432 0.0
C1450 C 0.21852 0.89556 0.59617 0.0
C1451 C 0.2402 0.92171 0.61915 0.0
C1452 C 0.26996 0.92512 0.62981 0.0
C1453 C 0.27732 0.90139 0.61851 0.0
C1454 C 0.255 0.87447 0.59691 0.0
C1455 C 0.20254 0.84455 0.56001 0.0
C1456 C 0.17759 0.81887 0.58085 0.0
C1457 C 0.20169 0.84564 0.517 0.0
C1458 C 0.22529 0.87345 0.4921 0.0
C1459 C 0.21416 0.88559 0.46075 0.0
C1460 C 0.23532 0.90928 0.43444 0.0
C1461 C 0.26833 0.92199 0.43888 0.0
C1462 C 0.27976 0.91162 0.47165 0.0
C1463 C 0.25849 0.88684 0.49713 0.0
H1464 H 0.12802 0.31195 0.45774 0.0
H1465 H 0.08701 0.30486 0.40839 0.0
H1466 H 0.07466 0.37734 0.46867 0.0
H1467 H 0.11726 0.38603 0.51708 0.0
H1468 H 0.18173 0.35754 0.46601 0.0
H1469 H 0.097 0.30281 0.55634 0.0
H1470 H 0.049 0.28741 0.59539 0.0
H1471 H 0.09389 0.37983 0.65351 0.0
H1472 H 0.14256 0.39527 0.61391 0.0
H1473 H 0.27103 0.3967 0.55648 0.0
H1474 H 0.31117 0.38871 0.5925 0.0
H1475 H 0.2378 0.31695 0.66781 0.0
H1476 H 0.19754 0.32355 0.63032 0.0
H1477 H 0.17863 0.36173 0.61587 0.0
H1478 H 0.25117 0.39997 0.46726 0.0
H1479 H 0.27959 0.38512 0.41805 0.0
H1480 H 0.23905 0.29133 0.47238 0.0
H1481 H 0.21156 0.3066 0.52211 0.0
C1482 C 0.12636 0.35005 0.49079 0.0
C1483 C 0.11685 0.32669 0.46027 0.0
C1484 C 0.09338 0.32253 0.43212 0.0
C1485 C 0.07904 0.34171 0.43376 0.0
C1486 C 0.08665 0.3634 0.46585 0.0
C1487 C 0.11052 0.36791 0.49391 0.0
C1488 C 0.15401 0.3565 0.51737 0.0
C1489 C 0.18122 0.35908 0.49878 0.0
C1490 C 0.15316 0.35783 0.56023 0.0
C1491 C 0.12335 0.35023 0.58199 0.0
C1492 C 0.09646 0.32004 0.57692 0.0
C1493 C 0.06904 0.31125 0.59942 0.0
C1494 C 0.06766 0.33242 0.62759 0.0
C1495 C 0.09417 0.36316 0.63177 0.0
C1496 C 0.12199 0.37187 0.60941 0.0
C1497 C 0.23098 0.36022 0.58985 0.0
C1498 C 0.26347 0.37912 0.5806 0.0
C1499 C 0.28649 0.37478 0.60149 0.0
C1500 C 0.27761 0.3521 0.63284 0.0
C1501 C 0.24542 0.33474 0.64392 0.0
C1502 C 0.22233 0.33857 0.62246 0.0
C1503 C 0.20591 0.36151 0.56428 0.0
C1504 C 0.17957 0.36133 0.58303 0.0
C1505 C 0.20649 0.36031 0.52138 0.0
C1506 C 0.22959 0.35451 0.49864 0.0
C1507 C 0.24947 0.37666 0.46951 0.0
C1508 C 0.26562 0.36814 0.4414 0.0
C1509 C 0.26135 0.33702 0.44129 0.0
C1510 C 0.2427 0.31546 0.47174 0.0
C1511 C 0.22718 0.32422 0.50036 0.0
loop_
_geom_bond_atom_site_label_1
_geom_bond_atom_site_label_2
_geom_bond_distance
_geom_bond_site_symmetry_2
_ccdc_geom_bond_type
Mn0 O5 2.095 1_655 S
Mn0 O15 2.162 . S
Mn0 O16 2.297 1_554 S
Mn0 O24 2.385 1_554 S
Mn0 O25 2.209 1_654 S
Mn0 O26 2.094 . S
Mn1 O6 2.121 . S
Mn1 N8 2.257 1_554 S
Mn1 N17 2.282 1_554 S
Mn1 O25 2.215 1_554 S
Mn1 O27 2.117 . S
C2 O24 1.234 1_455 S
C2 O25 1.283 . S
C3 O15 1.281 1_556 S
C3 O16 1.236 . S
C4 O26 1.240 . S
C4 O27 1.264 1_655 S
O5 Mn0 2.095 1_455 S
O5 C14 1.250 . S
O6 Mn1 2.121 . S
O6 C14 1.258 . S
C7 N8 1.326 . S
C7 C11 1.460 . S
C7 H13 0.929 . S
N8 Mn1 2.257 1_556 S
N8 C7 1.326 . S
N8 C12 1.362 . S
C9 C10 1.258 . S
C9 C12 1.431 . S
C9 C29 1.449 . S
C10 C9 1.258 . S
C10 C11 1.477 . S
C10 H30 0.931 . S
C11 C7 1.460 . S
C11 C10 1.477 . S
C11 H31 0.930 . S
C12 N8 1.362 . S
C12 C9 1.431 . S
C12 C22 1.476 . S
H13 C7 0.929 . S
C14 O5 1.250 . S
C14 O6 1.258 . S
O15 Mn0 2.162 . S
O15 C3 1.281 1_554 S
O16 Mn0 2.297 1_556 S
O16 C3 1.236 . S
N17 Mn1 2.282 1_556 S
N17 C18 1.328 1_556 S
N17 C22 1.318 . S
C18 N17 1.328 1_554 S
C18 C19 1.457 1_554 S
C18 H23 0.929 . S
C19 C18 1.457 1_556 S
C19 C20 1.291 . S
C19 H32 0.931 . S
C20 C19 1.291 . S
C20 C21 1.373 . S
C20 H33 0.929 . S
C21 C20 1.373 . S
C21 C22 1.396 . S
C21 C28 1.403 . S
C22 C12 1.476 . S
C22 N17 1.318 . S
C22 C21 1.396 . S
H23 C18 0.929 . S
O24 Mn0 2.385 1_556 S
O24 C2 1.234 1_655 S
O25 Mn0 2.209 1_456 S
O25 Mn1 2.215 1_556 S
O25 C2 1.283 . S
O26 Mn0 2.094 . S
O26 C4 1.240 . S
O27 Mn1 2.117 . S
O27 C4 1.264 1_455 S
C28 C21 1.403 . S
C28 C29 1.399 . S
C28 H34 0.929 . S
C29 C9 1.449 . S
C29 C28 1.399 . S
C29 H35 0.930 . S
H30 C10 0.931 . S
H31 C11 0.930 . S
H32 C19 0.931 . S
H33 C20 0.929 . S
H34 C28 0.929 . S
H35 C29 0.930 . S
Mn36 O41 2.095 1_554 S
Mn36 O51 2.162 . S
Mn36 O52 2.297 . S
Mn36 O60 2.385 . S
Mn36 O61 2.209 . S
Mn36 O62 2.094 1_554 S
Mn37 O42 2.121 . S
Mn37 N44 2.257 1_556 S
Mn37 N53 2.282 1_556 S
Mn37 O61 2.215 1_556 S
Mn37 O63 2.117 . S
C38 O60 1.234 . S
C38 O61 1.283 . S
C39 O51 1.281 . S
C39 O52 1.236 . S
C40 O62 1.240 . S
C40 O63 1.264 . S
O41 Mn36 2.095 1_556 S
O41 C50 1.250 . S
O42 Mn37 2.121 . S
O42 C50 1.258 . S
C43 N44 1.326 . S
C43 C47 1.460 . S
C43 H49 0.929 . S
N44 Mn37 2.257 1_554 S
N44 C43 1.326 . S
N44 C48 1.362 . S
C45 C46 1.258 . S
C45 C48 1.431 . S
C45 C65 1.449 . S
C46 C45 1.258 . S
C46 C47 1.477 . S
C46 H66 0.931 . S
C47 C43 1.460 . S
C47 C46 1.477 . S
C47 H67 0.930 . S
C48 N44 1.362 . S
C48 C45 1.431 . S
C48 C58 1.476 . S
H49 C43 0.929 . S
C50 O41 1.250 . S
C50 O42 1.258 . S
O51 Mn36 2.162 . S
O51 C39 1.281 . S
O52 Mn36 2.297 . S
O52 C39 1.236 . S
N53 Mn37 2.282 1_554 S
N53 C54 1.328 . S
N53 C58 1.318 . S
C54 N53 1.328 . S
C54 C55 1.457 . S
C54 H59 0.929 1_554 S
C55 C54 1.457 . S
C55 C56 1.291 . S
C55 H68 0.931 . S
C56 C55 1.291 . S
C56 C57 1.373 . S
C56 H69 0.929 . S
C57 C56 1.373 . S
C57 C58 1.396 . S
C57 C64 1.403 . S
C58 C48 1.476 . S
C58 N53 1.318 . S
C58 C57 1.396 . S
H59 C54 0.929 1_556 S
O60 Mn36 2.385 . S
O60 C38 1.234 . S
O61 Mn36 2.209 . S
O61 Mn37 2.215 1_554 S
O61 C38 1.283 . S
O62 Mn36 2.094 1_556 S
O62 C40 1.240 . S
O63 Mn37 2.117 . S
O63 C40 1.264 . S
C64 C57 1.403 . S
C64 C65 1.399 . S
C64 H70 0.929 . S
C65 C45 1.449 . S
C65 C64 1.399 . S
C65 H71 0.930 . S
H66 C46 0.931 . S
H67 C47 0.930 . S
H68 C55 0.931 . S
H69 C56 0.929 . S
H70 C64 0.929 . S
H71 C65 0.930 . S
Mn72 O77 2.095 1_564 S
Mn72 O87 2.162 . S
Mn72 O88 2.297 . S
Mn72 O96 2.385 . S
Mn72 O97 2.209 1_565 S
Mn72 O98 2.094 1_554 S
Mn73 O78 2.122 . S
Mn73 N80 2.255 1_556 S
Mn73 N89 2.281 1_556 S
Mn73 O97 2.213 1_556 S
Mn73 O99 2.119 . S
C74 O96 1.234 1_545 S
C74 O97 1.283 . S
C75 O87 1.281 . S
C75 O88 1.236 . S
C76 O98 1.240 . S
C76 O99 1.264 1_565 S
O77 Mn72 2.095 1_546 S
O77 C86 1.250 . S
O78 Mn73 2.122 . S
O78 C86 1.258 . S
C79 N80 1.326 . S
C79 C83 1.460 . S
C79 H85 0.929 . S
N80 Mn73 2.255 1_554 S
N80 C79 1.326 . S
N80 C84 1.362 . S
C81 C82 1.258 . S
C81 C84 1.431 . S
C81 C101 1.449 . S
C82 C81 1.258 . S
C82 C83 1.477 . S
C82 H102 0.931 . S
C83 C79 1.460 . S
C83 C82 1.477 . S
C83 H103 0.930 . S
C84 N80 1.362 . S
C84 C81 1.431 . S
C84 C94 1.476 . S
H85 C79 0.929 . S
C86 O77 1.250 . S
C86 O78 1.258 . S
O87 Mn72 2.162 . S
O87 C75 1.281 . S
O88 Mn72 2.297 . S
O88 C75 1.236 . S
N89 Mn73 2.281 1_554 S
N89 C90 1.328 . S
N89 C94 1.318 . S
C90 N89 1.328 . S
C90 C91 1.457 . S
C90 H95 0.929 1_554 S
C91 C90 1.457 . S
C91 C92 1.291 . S
C91 H104 0.931 . S
C92 C91 1.291 . S
C92 C93 1.373 . S
C92 H105 0.929 . S
C93 C92 1.373 . S
C93 C94 1.396 . S
C93 C100 1.403 . S
C94 C84 1.476 . S
C94 N89 1.318 . S
C94 C93 1.396 . S
H95 C90 0.929 1_556 S
O96 Mn72 2.385 . S
O96 C74 1.234 1_565 S
O97 Mn72 2.209 1_545 S
O97 Mn73 2.213 1_554 S
O97 C74 1.283 . S
O98 Mn72 2.094 1_556 S
O98 C76 1.240 . S
O99 Mn73 2.119 . S
O99 C76 1.264 1_545 S
C100 C93 1.403 . S
C100 C101 1.399 . S
C100 H106 0.929 . S
C101 C81 1.449 . S
C101 C100 1.399 . S
C101 H107 0.930 . S
H102 C82 0.931 . S
H103 C83 0.930 . S
H104 C91 0.931 . S
H105 C92 0.929 . S
H106 C100 0.929 . S
H107 C101 0.930 . S
Mn108 O113 2.095 1_655 S
Mn108 O123 2.162 . S
Mn108 O124 2.297 1_554 S
Mn108 O132 2.385 1_554 S
Mn108 O133 2.209 1_654 S
Mn108 O134 2.094 . S
Mn109 O114 2.121 . S
Mn109 N116 2.257 1_554 S
Mn109 N125 2.282 1_554 S
Mn109 O133 2.215 1_554 S
Mn109 O135 2.117 . S
C110 O132 1.234 1_455 S
C110 O133 1.283 . S
C111 O123 1.281 1_556 S
C111 O124 1.236 . S
C112 O134 1.240 . S
C112 O135 1.264 1_655 S
O113 Mn108 2.095 1_455 S
O113 C122 1.250 . S
O114 Mn109 2.121 . S
O114 C122 1.258 . S
C115 N116 1.326 . S
C115 C119 1.460 . S
C115 H121 0.929 . S
N116 Mn109 2.257 1_556 S
N116 C115 1.326 . S
N116 C120 1.362 . S
C117 C118 1.258 . S
C117 C120 1.431 . S
C117 C137 1.449 . S
C118 C117 1.258 . S
C118 C119 1.477 . S
C118 H138 0.931 . S
C119 C115 1.460 . S
C119 C118 1.477 . S
C119 H139 0.930 . S
C120 N116 1.362 . S
C120 C117 1.431 . S
C120 C130 1.476 . S
H121 C115 0.929 . S
C122 O113 1.250 . S
C122 O114 1.258 . S
O123 Mn108 2.162 . S
O123 C111 1.281 1_554 S
O124 Mn108 2.297 1_556 S
O124 C111 1.236 . S
N125 Mn109 2.282 1_556 S
N125 C126 1.328 1_556 S
N125 C130 1.318 . S
C126 N125 1.328 1_554 S
C126 C127 1.457 1_554 S
C126 H131 0.929 . S
C127 C126 1.457 1_556 S
C127 C128 1.291 . S
C127 H140 0.931 . S
C128 C127 1.291 . S
C128 C129 1.373 . S
C128 H141 0.929 . S
C129 C128 1.373 . S
C129 C130 1.396 . S
C129 C136 1.403 . S
C130 C120 1.476 . S
C130 N125 1.318 . S
C130 C129 1.396 . S
H131 C126 0.929 . S
O132 Mn108 2.385 1_556 S
O132 C110 1.234 1_655 S
O133 Mn108 2.209 1_456 S
O133 Mn109 2.215 1_556 S
O133 C110 1.283 . S
O134 Mn108 2.094 . S
O134 C112 1.240 . S
O135 Mn109 2.117 . S
O135 C112 1.264 1_455 S
C136 C129 1.403 . S
C136 C137 1.399 . S
C136 H142 0.929 . S
C137 C117 1.449 . S
C137 C136 1.399 . S
C137 H143 0.930 . S
H138 C118 0.931 . S
H139 C119 0.930 . S
H140 C127 0.931 . S
H141 C128 0.929 . S
H142 C136 0.929 . S
H143 C137 0.930 . S
Mn144 O149 2.095 1_554 S
Mn144 O159 2.162 . S
Mn144 O160 2.297 . S
Mn144 O168 2.385 . S
Mn144 O169 2.209 . S
Mn144 O170 2.094 1_554 S
Mn145 O150 2.121 . S
Mn145 N152 2.257 1_556 S
Mn145 N161 2.282 1_556 S
Mn145 O169 2.215 1_556 S
Mn145 O171 2.117 . S
C146 O168 1.234 . S
C146 O169 1.283 . S
C147 O159 1.281 . S
C147 O160 1.236 . S
C148 O170 1.240 . S
C148 O171 1.264 . S
O149 Mn144 2.095 1_556 S
O149 C158 1.250 . S
O150 Mn145 2.121 . S
O150 C158 1.258 . S
C151 N152 1.326 . S
C151 C155 1.460 . S
C151 H157 0.929 . S
N152 Mn145 2.257 1_554 S
N152 C151 1.326 . S
N152 C156 1.362 . S
C153 C154 1.258 . S
C153 C156 1.431 . S
C153 C173 1.449 . S
C154 C153 1.258 . S
C154 C155 1.477 . S
C154 H174 0.931 . S
C155 C151 1.460 . S
C155 C154 1.477 . S
C155 H175 0.930 . S
C156 N152 1.362 . S
C156 C153 1.431 . S
C156 C166 1.476 . S
H157 C151 0.929 . S
C158 O149 1.250 . S
C158 O150 1.258 . S
O159 Mn144 2.162 . S
O159 C147 1.281 . S
O160 Mn144 2.297 . S
O160 C147 1.236 . S
N161 Mn145 2.282 1_554 S
N161 C162 1.328 . S
N161 C166 1.318 . S
C162 N161 1.328 . S
C162 C163 1.457 . S
C162 H167 0.929 1_554 S
C163 C162 1.457 . S
C163 C164 1.291 . S
C163 H176 0.931 . S
C164 C163 1.291 . S
C164 C165 1.373 . S
C164 H177 0.929 . S
C165 C164 1.373 . S
C165 C166 1.396 . S
C165 C172 1.403 . S
C166 C156 1.476 . S
C166 N161 1.318 . S
C166 C165 1.396 . S
H167 C162 0.929 1_556 S
O168 Mn144 2.385 . S
O168 C146 1.234 . S
O169 Mn144 2.209 . S
O169 Mn145 2.215 1_554 S
O169 C146 1.283 . S
O170 Mn144 2.094 1_556 S
O170 C148 1.240 . S
O171 Mn145 2.117 . S
O171 C148 1.264 . S
C172 C165 1.403 . S
C172 C173 1.399 . S
C172 H178 0.929 . S
C173 C153 1.449 . S
C173 C172 1.399 . S
C173 H179 0.930 . S
H174 C154 0.931 . S
H175 C155 0.930 . S
H176 C163 0.931 . S
H177 C164 0.929 . S
H178 C172 0.929 . S
H179 C173 0.930 . S
Mn180 O185 2.095 1_545 S
Mn180 O195 2.162 . S
Mn180 O196 2.297 1_554 S
Mn180 O204 2.385 1_554 S
Mn180 O205 2.209 1_544 S
Mn180 O206 2.094 . S
Mn181 O186 2.121 . S
Mn181 N188 2.257 1_554 S
Mn181 N197 2.282 1_554 S
Mn181 O205 2.215 1_554 S
Mn181 O207 2.117 . S
C182 O204 1.234 1_565 S
C182 O205 1.283 . S
C183 O195 1.281 1_556 S
C183 O196 1.236 . S
C184 O206 1.240 . S
C184 O207 1.264 1_545 S
O185 Mn180 2.095 1_565 S
O185 C194 1.250 . S
O186 Mn181 2.121 . S
O186 C194 1.258 . S
C187 N188 1.326 . S
C187 C191 1.460 . S
C187 H193 0.929 . S
N188 Mn181 2.257 1_556 S
N188 C187 1.326 . S
N188 C192 1.362 . S
C189 C190 1.258 . S
C189 C192 1.431 . S
C189 C209 1.449 . S
C190 C189 1.258 . S
C190 C191 1.477 . S
C190 H210 0.931 . S
C191 C187 1.460 . S
C191 C190 1.477 . S
C191 H211 0.930 . S
C192 N188 1.362 . S
C192 C189 1.431 . S
C192 C202 1.476 . S
H193 C187 0.929 . S
C194 O185 1.250 . S
C194 O186 1.258 . S
O195 Mn180 2.162 . S
O195 C183 1.281 1_554 S
O196 Mn180 2.297 1_556 S
O196 C183 1.236 . S
N197 Mn181 2.282 1_556 S
N197 C198 1.328 1_556 S
N197 C202 1.318 . S
C198 N197 1.328 1_554 S
C198 C199 1.457 1_554 S
C198 H203 0.929 . S
C199 C198 1.457 1_556 S
C199 C200 1.291 . S
C199 H212 0.931 . S
C200 C199 1.291 . S
C200 C201 1.373 . S
C200 H213 0.929 . S
C201 C200 1.373 . S
C201 C202 1.396 . S
C201 C208 1.403 . S
C202 C192 1.476 . S
C202 N197 1.318 . S
C202 C201 1.396 . S
H203 C198 0.929 . S
O204 Mn180 2.385 1_556 S
O204 C182 1.234 1_545 S
O205 Mn180 2.209 1_566 S
O205 Mn181 2.215 1_556 S
O205 C182 1.283 . S
O206 Mn180 2.094 . S
O206 C184 1.240 . S
O207 Mn181 2.117 . S
O207 C184 1.264 1_565 S
C208 C201 1.403 . S
C208 C209 1.399 . S
C208 H214 0.929 . S
C209 C189 1.449 . S
C209 C208 1.399 . S
C209 H215 0.930 . S
H210 C190 0.931 . S
H211 C191 0.930 . S
H212 C199 0.931 . S
H213 C200 0.929 . S
H214 C208 0.929 . S
H215 C209 0.930 . S
Mn216 O221 2.095 . S
Mn216 O231 2.162 . S
Mn216 O232 2.297 . S
Mn216 O240 2.385 . S
Mn216 O241 2.209 . S
Mn216 O242 2.094 . S
Mn217 O222 2.121 . S
Mn217 N224 2.257 . S
Mn217 N233 2.282 . S
Mn217 O241 2.215 . S
Mn217 O243 2.117 . S
C218 O240 1.234 . S
C218 O241 1.283 . S
C219 O231 1.281 . S
C219 O232 1.236 . S
C220 O242 1.240 . S
C220 O243 1.264 . S
O221 Mn216 2.095 . S
O221 C230 1.250 . S
O222 Mn217 2.121 . S
O222 C230 1.258 . S
C223 N224 1.326 . S
C223 C227 1.460 . S
C223 H229 0.929 . S
N224 Mn217 2.257 . S
N224 C223 1.326 . S
N224 C228 1.362 . S
C225 C226 1.258 . S
C225 C228 1.431 . S
C225 C245 1.449 . S
C226 C225 1.258 . S
C226 C227 1.477 . S
C226 H246 0.931 . S
C227 C223 1.460 . S
C227 C226 1.477 . S
C227 H247 0.930 . S
C228 N224 1.362 . S
C228 C225 1.431 . S
C228 C238 1.476 . S
H229 C223 0.929 . S
C230 O221 1.250 . S
C230 O222 1.258 . S
O231 Mn216 2.162 . S
O231 C219 1.281 . S
O232 Mn216 2.297 . S
O232 C219 1.236 . S
N233 Mn217 2.282 . S
N233 C234 1.328 . S
N233 C238 1.318 . S
C234 N233 1.328 . S
C234 C235 1.457 . S
C234 H239 0.929 . S
C235 C234 1.457 . S
C235 C236 1.291 . S
C235 H248 0.931 . S
C236 C235 1.291 . S
C236 C237 1.373 . S
C236 H249 0.929 . S
C237 C236 1.373 . S
C237 C238 1.396 . S
C237 C244 1.403 . S
C238 C228 1.476 . S
C238 N233 1.318 . S
C238 C237 1.396 . S
H239 C234 0.929 . S
O240 Mn216 2.385 . S
O240 C218 1.234 . S
O241 Mn216 2.209 . S
O241 Mn217 2.215 . S
O241 C218 1.283 . S
O242 Mn216 2.094 . S
O242 C220 1.240 . S
O243 Mn217 2.117 . S
O243 C220 1.264 . S
C244 C237 1.403 . S
C244 C245 1.399 . S
C244 H250 0.929 . S
C245 C225 1.449 . S
C245 C244 1.399 . S
C245 H251 0.930 . S
H246 C226 0.931 . S
H247 C227 0.930 . S
H248 C235 0.931 . S
H249 C236 0.929 . S
H250 C244 0.929 . S
H251 C245 0.930 . S
Mn252 O257 2.095 . S
Mn252 O267 2.162 1_565 S
Mn252 O268 2.297 1_565 S
Mn252 O276 2.385 . S
Mn252 O277 2.209 . S
Mn252 O278 2.094 . S
Mn253 O258 2.121 . S
Mn253 N260 2.257 . S
Mn253 N269 2.282 . S
Mn253 O277 2.215 . S
Mn253 O279 2.117 . S
C254 O276 1.234 . S
C254 O277 1.283 . S
C255 O267 1.281 . S
C255 O268 1.236 . S
C256 O278 1.240 . S
C256 O279 1.264 . S
O257 Mn252 2.095 . S
O257 C266 1.250 . S
O258 Mn253 2.121 . S
O258 C266 1.258 . S
C259 N260 1.326 . S
C259 C263 1.460 . S
C259 H265 0.929 . S
N260 Mn253 2.257 . S
N260 C259 1.326 . S
N260 C264 1.362 . S
C261 C262 1.258 . S
C261 C264 1.431 . S
C261 C281 1.449 . S
C262 C261 1.258 . S
C262 C263 1.477 . S
C262 H282 0.931 . S
C263 C259 1.460 . S
C263 C262 1.477 . S
C263 H283 0.930 . S
C264 N260 1.362 . S
C264 C261 1.431 . S
C264 C274 1.476 . S
H265 C259 0.929 . S
C266 O257 1.250 . S
C266 O258 1.258 . S
O267 Mn252 2.162 1_545 S
O267 C255 1.281 . S
O268 Mn252 2.297 1_545 S
O268 C255 1.236 . S
N269 Mn253 2.282 . S
N269 C270 1.328 . S
N269 C274 1.318 . S
C270 N269 1.328 . S
C270 C271 1.457 . S
C270 H275 0.929 . S
C271 C270 1.457 . S
C271 C272 1.291 . S
C271 H284 0.931 . S
C272 C271 1.291 . S
C272 C273 1.373 . S
C272 H285 0.929 . S
C273 C272 1.373 . S
C273 C274 1.396 . S
C273 C280 1.403 . S
C274 C264 1.476 . S
C274 N269 1.318 . S
C274 C273 1.396 . S
H275 C270 0.929 . S
O276 Mn252 2.385 . S
O276 C254 1.234 . S
O277 Mn252 2.209 . S
O277 Mn253 2.215 . S
O277 C254 1.283 . S
O278 Mn252 2.094 . S
O278 C256 1.240 . S
O279 Mn253 2.117 . S
O279 C256 1.264 . S
C280 C273 1.403 . S
C280 C281 1.399 . S
C280 H286 0.929 . S
C281 C261 1.449 . S
C281 C280 1.399 . S
C281 H287 0.930 . S
H282 C262 0.931 . S
H283 C263 0.930 . S
H284 C271 0.931 . S
H285 C272 0.929 . S
H286 C280 0.929 . S
H287 C281 0.930 . S
Mn288 O293 2.095 . S
Mn288 O303 2.162 1_455 S
Mn288 O304 2.297 1_455 S
Mn288 O312 2.385 . S
Mn288 O313 2.209 . S
Mn288 O314 2.094 . S
Mn289 O294 2.121 . S
Mn289 N296 2.257 . S
Mn289 N305 2.282 . S
Mn289 O313 2.215 . S
Mn289 O315 2.117 . S
C290 O312 1.234 . S
C290 O313 1.283 . S
C291 O303 1.281 . S
C291 O304 1.236 . S
C292 O314 1.240 . S
C292 O315 1.264 . S
O293 Mn288 2.095 . S
O293 C302 1.250 . S
O294 Mn289 2.121 . S
O294 C302 1.258 . S
C295 N296 1.326 . S
C295 C299 1.460 . S
C295 H301 0.929 . S
N296 Mn289 2.257 . S
N296 C295 1.326 . S
N296 C300 1.362 . S
C297 C298 1.258 . S
C297 C300 1.431 . S
C297 C317 1.449 . S
C298 C297 1.258 . S
C298 C299 1.477 . S
C298 H318 0.931 . S
C299 C295 1.460 . S
C299 C298 1.477 . S
C299 H319 0.930 . S
C300 N296 1.362 . S
C300 C297 1.431 . S
C300 C310 1.476 . S
H301 C295 0.929 . S
C302 O293 1.250 . S
C302 O294 1.258 . S
O303 Mn288 2.162 1_655 S
O303 C291 1.281 . S
O304 Mn288 2.297 1_655 S
O304 C291 1.236 . S
N305 Mn289 2.282 . S
N305 C306 1.328 . S
N305 C310 1.318 . S
C306 N305 1.328 . S
C306 C307 1.457 . S
C306 H311 0.929 . S
C307 C306 1.457 . S
C307 C308 1.291 . S
C307 H320 0.931 . S
C308 C307 1.291 . S
C308 C309 1.373 . S
C308 H321 0.929 . S
C309 C308 1.373 . S
C309 C310 1.396 . S
C309 C316 1.403 . S
C310 C300 1.476 . S
C310 N305 1.318 . S
C310 C309 1.396 . S
H311 C306 0.929 . S
O312 Mn288 2.385 . S
O312 C290 1.234 . S
O313 Mn288 2.209 . S
O313 Mn289 2.215 . S
O313 C290 1.283 . S
O314 Mn288 2.094 . S
O314 C292 1.240 . S
O315 Mn289 2.117 . S
O315 C292 1.264 . S
C316 C309 1.403 . S
C316 C317 1.399 . S
C316 H322 0.929 . S
C317 C297 1.449 . S
C317 C316 1.399 . S
C317 H323 0.930 . S
H318 C298 0.931 . S
H319 C299 0.930 . S
H320 C307 0.931 . S
H321 C308 0.929 . S
H322 C316 0.929 . S
H323 C317 0.930 . S
Mn324 O329 2.095 1_565 S
Mn324 O339 2.162 . S
Mn324 O340 2.297 1_565 S
Mn324 O348 2.385 . S
Mn324 O349 2.209 . S
Mn324 O350 2.094 . S
Mn325 O330 2.121 1_565 S
Mn325 N332 2.257 1_565 S
Mn325 N341 2.282 . S
Mn325 O349 2.215 . S
Mn325 O351 2.117 . S
C326 O348 1.234 . S
C326 O349 1.283 . S
C327 O339 1.281 . S
C327 O340 1.236 1_565 S
C328 O350 1.240 . S
C328 O351 1.264 . S
O329 Mn324 2.095 1_545 S
O329 C338 1.250 . S
O330 Mn325 2.121 1_545 S
O330 C338 1.258 . S
C331 N332 1.328 . S
C331 C335 1.460 . S
C331 H337 0.929 . S
N332 Mn325 2.257 1_545 S
N332 C331 1.328 . S
N332 C336 1.361 1_545 S
C333 C334 1.258 1_565 S
C333 C336 1.431 . S
C333 C353 1.449 . S
C334 C333 1.258 1_545 S
C334 C335 1.477 . S
C334 H354 0.931 . S
C335 C331 1.460 . S
C335 C334 1.477 . S
C335 H355 0.930 . S
C336 N332 1.361 1_565 S
C336 C333 1.431 . S
C336 C346 1.476 . S
H337 C331 0.929 . S
C338 O329 1.250 . S
C338 O330 1.258 . S
O339 Mn324 2.162 . S
O339 C327 1.281 . S
O340 Mn324 2.297 1_545 S
O340 C327 1.236 1_545 S
N341 Mn325 2.282 . S
N341 C342 1.328 . S
N341 C346 1.318 . S
C342 N341 1.328 . S
C342 C343 1.457 . S
C342 H347 0.929 . S
C343 C342 1.457 . S
C343 C344 1.291 . S
C343 H356 0.931 . S
C344 C343 1.291 . S
C344 C345 1.373 . S
C344 H357 0.929 . S
C345 C344 1.373 . S
C345 C346 1.396 . S
C345 C352 1.403 . S
C346 C336 1.476 . S
C346 N341 1.318 . S
C346 C345 1.396 . S
H347 C342 0.929 . S
O348 Mn324 2.385 . S
O348 C326 1.234 . S
O349 Mn324 2.209 . S
O349 Mn325 2.215 . S
O349 C326 1.283 . S
O350 Mn324 2.094 . S
O350 C328 1.240 . S
O351 Mn325 2.117 . S
O351 C328 1.264 . S
C352 C345 1.403 . S
C352 C353 1.399 . S
C352 H358 0.929 . S
C353 C333 1.449 . S
C353 C352 1.399 . S
C353 H359 0.930 . S
H354 C334 0.931 . S
H355 C335 0.930 . S
H356 C343 0.931 . S
H357 C344 0.929 . S
H358 C352 0.929 . S
H359 C353 0.930 . S
Mn360 O365 2.095 . S
Mn360 O375 2.162 1_455 S
Mn360 O376 2.297 1_455 S
Mn360 O384 2.385 . S
Mn360 O385 2.209 . S
Mn360 O386 2.094 . S
Mn361 O366 2.121 . S
Mn361 N368 2.257 . S
Mn361 N377 2.282 . S
Mn361 O385 2.215 . S
Mn361 O387 2.117 . S
C362 O384 1.234 . S
C362 O385 1.283 . S
C363 O375 1.281 . S
C363 O376 1.236 . S
C364 O386 1.240 . S
C364 O387 1.264 . S
O365 Mn360 2.095 . S
O365 C374 1.250 . S
O366 Mn361 2.121 . S
O366 C374 1.258 . S
C367 N368 1.326 . S
C367 C371 1.460 . S
C367 H373 0.929 . S
N368 Mn361 2.257 . S
N368 C367 1.326 . S
N368 C372 1.362 . S
C369 C370 1.258 . S
C369 C372 1.431 . S
C369 C389 1.449 . S
C370 C369 1.258 . S
C370 C371 1.477 . S
C370 H390 0.931 . S
C371 C367 1.460 . S
C371 C370 1.477 . S
C371 H391 0.930 . S
C372 N368 1.362 . S
C372 C369 1.431 . S
C372 C382 1.476 . S
H373 C367 0.929 . S
C374 O365 1.250 . S
C374 O366 1.258 . S
O375 Mn360 2.162 1_655 S
O375 C363 1.281 . S
O376 Mn360 2.297 1_655 S
O376 C363 1.236 . S
N377 Mn361 2.282 . S
N377 C378 1.328 . S
N377 C382 1.318 . S
C378 N377 1.328 . S
C378 C379 1.457 . S
C378 H383 0.929 . S
C379 C378 1.457 . S
C379 C380 1.291 . S
C379 H392 0.931 . S
C380 C379 1.291 . S
C380 C381 1.373 . S
C380 H393 0.929 . S
C381 C380 1.373 . S
C381 C382 1.396 . S
C381 C388 1.403 . S
C382 C372 1.476 . S
C382 N377 1.318 . S
C382 C381 1.396 . S
H383 C378 0.929 . S
O384 Mn360 2.385 . S
O384 C362 1.234 . S
O385 Mn360 2.209 . S
O385 Mn361 2.215 . S
O385 C362 1.283 . S
O386 Mn360 2.094 . S
O386 C364 1.240 . S
O387 Mn361 2.117 . S
O387 C364 1.264 . S
C388 C381 1.403 . S
C388 C389 1.399 . S
C388 H394 0.929 . S
C389 C369 1.449 . S
C389 C388 1.399 . S
C389 H395 0.930 . S
H390 C370 0.931 . S
H391 C371 0.930 . S
H392 C379 0.931 . S
H393 C380 0.929 . S
H394 C388 0.929 . S
H395 C389 0.930 . S
Mn396 O401 2.095 . S
Mn396 O411 2.162 . S
Mn396 O412 2.297 . S
Mn396 O420 2.385 . S
Mn396 O421 2.209 . S
Mn396 O422 2.094 . S
Mn397 O402 2.121 . S
Mn397 N404 2.257 . S
Mn397 N413 2.282 . S
Mn397 O421 2.215 . S
Mn397 O423 2.117 . S
C398 O420 1.234 . S
C398 O421 1.283 . S
C399 O411 1.281 . S
C399 O412 1.236 . S
C400 O422 1.240 . S
C400 O423 1.264 . S
O401 Mn396 2.095 . S
O401 C410 1.250 . S
O402 Mn397 2.121 . S
O402 C410 1.258 . S
C403 N404 1.326 . S
C403 C407 1.460 . S
C403 H409 0.929 . S
N404 Mn397 2.257 . S
N404 C403 1.326 . S
N404 C408 1.362 . S
C405 C406 1.258 . S
C405 C408 1.431 . S
C405 C425 1.449 . S
C406 C405 1.258 . S
C406 C407 1.477 . S
C406 H426 0.931 . S
C407 C403 1.460 . S
C407 C406 1.477 . S
C407 H427 0.930 . S
C408 N404 1.362 . S
C408 C405 1.431 . S
C408 C418 1.476 . S
H409 C403 0.929 . S
C410 O401 1.250 . S
C410 O402 1.258 . S
O411 Mn396 2.162 . S
O411 C399 1.281 . S
O412 Mn396 2.297 . S
O412 C399 1.236 . S
N413 Mn397 2.282 . S
N413 C414 1.328 . S
N413 C418 1.318 . S
C414 N413 1.328 . S
C414 C415 1.457 . S
C414 H419 0.929 . S
C415 C414 1.457 . S
C415 C416 1.291 . S
C415 H428 0.931 . S
C416 C415 1.291 . S
C416 C417 1.373 . S
C416 H429 0.929 . S
C417 C416 1.373 . S
C417 C418 1.396 . S
C417 C424 1.403 . S
C418 C408 1.476 . S
C418 N413 1.318 . S
C418 C417 1.396 . S
H419 C414 0.929 . S
O420 Mn396 2.385 . S
O420 C398 1.234 . S
O421 Mn396 2.209 . S
O421 Mn397 2.215 . S
O421 C398 1.283 . S
O422 Mn396 2.094 . S
O422 C400 1.240 . S
O423 Mn397 2.117 . S
O423 C400 1.264 . S
C424 C417 1.403 . S
C424 C425 1.399 . S
C424 H430 0.929 . S
C425 C405 1.449 . S
C425 C424 1.399 . S
C425 H431 0.930 . S
H426 C406 0.931 . S
H427 C407 0.930 . S
H428 C415 0.931 . S
H429 C416 0.929 . S
H430 C424 0.929 . S
H431 C425 0.930 . S
Mn432 O437 2.095 . S
Mn432 O447 2.162 1_545 S
Mn432 O448 2.297 1_545 S
Mn432 O456 2.385 . S
Mn432 O457 2.209 . S
Mn432 O458 2.094 . S
Mn433 O438 2.121 . S
Mn433 N440 2.257 . S
Mn433 N449 2.282 . S
Mn433 O457 2.215 . S
Mn433 O459 2.117 . S
C434 O456 1.234 . S
C434 O457 1.283 . S
C435 O447 1.281 . S
C435 O448 1.236 . S
C436 O458 1.240 . S
C436 O459 1.264 . S
O437 Mn432 2.095 . S
O437 C446 1.250 . S
O438 Mn433 2.121 . S
O438 C446 1.258 . S
C439 N440 1.326 . S
C439 C443 1.460 . S
C439 H445 0.929 . S
N440 Mn433 2.257 . S
N440 C439 1.326 . S
N440 C444 1.362 . S
C441 C442 1.258 . S
C441 C444 1.431 . S
C441 C461 1.449 . S
C442 C441 1.258 . S
C442 C443 1.477 . S
C442 H462 0.931 . S
C443 C439 1.460 . S
C443 C442 1.477 . S
C443 H463 0.930 . S
C444 N440 1.362 . S
C444 C441 1.431 . S
C444 C454 1.476 . S
H445 C439 0.929 . S
C446 O437 1.250 . S
C446 O438 1.258 . S
O447 Mn432 2.162 1_565 S
O447 C435 1.281 . S
O448 Mn432 2.297 1_565 S
O448 C435 1.236 . S
N449 Mn433 2.282 . S
N449 C450 1.328 . S
N449 C454 1.318 . S
C450 N449 1.328 . S
C450 C451 1.457 . S
C450 H455 0.929 . S
C451 C450 1.457 . S
C451 C452 1.291 . S
C451 H464 0.931 . S
C452 C451 1.291 . S
C452 C453 1.373 . S
C452 H465 0.929 . S
C453 C452 1.373 . S
C453 C454 1.396 . S
C453 C460 1.403 . S
C454 C444 1.476 . S
C454 N449 1.318 . S
C454 C453 1.396 . S
H455 C450 0.929 . S
O456 Mn432 2.385 . S
O456 C434 1.234 . S
O457 Mn432 2.209 . S
O457 Mn433 2.215 . S
O457 C434 1.283 . S
O458 Mn432 2.094 . S
O458 C436 1.240 . S
O459 Mn433 2.117 . S
O459 C436 1.264 . S
C460 C453 1.403 . S
C460 C461 1.399 . S
C460 H466 0.929 . S
C461 C441 1.449 . S
C461 C460 1.399 . S
C461 H467 0.930 . S
H462 C442 0.931 . S
H463 C443 0.930 . S
H464 C451 0.931 . S
H465 C452 0.929 . S
H466 C460 0.929 . S
H467 C461 0.930 . S
Mn468 O473 2.095 1_655 S
Mn468 O483 2.162 . S
Mn468 O484 2.297 1_655 S
Mn468 O492 2.385 . S
Mn468 O493 2.209 . S
Mn468 O494 2.094 . S
Mn469 O474 2.121 1_655 S
Mn469 N476 2.283 . S
Mn469 N485 2.282 . S
Mn469 O493 2.215 . S
Mn469 O495 2.117 . S
C470 O492 1.234 . S
C470 O493 1.283 . S
C471 O483 1.281 . S
C471 O484 1.236 1_655 S
C472 O494 1.240 . S
C472 O495 1.264 . S
O473 Mn468 2.095 1_455 S
O473 C482 1.250 . S
O474 Mn469 2.121 1_455 S
O474 C482 1.258 . S
C475 N476 1.290 1_455 S
C475 C479 1.460 . S
C475 H481 0.929 . S
N476 Mn469 2.283 . S
N476 C475 1.290 1_655 S
N476 C480 1.375 . S
C477 C478 1.258 1_655 S
C477 C480 1.431 . S
C477 C497 1.449 . S
C478 C477 1.258 1_455 S
C478 C479 1.477 . S
C478 H498 0.931 . S
C479 C475 1.460 . S
C479 C478 1.477 . S
C479 H499 0.930 . S
C480 N476 1.375 . S
C480 C477 1.431 . S
C480 C490 1.476 . S
H481 C475 0.929 . S
C482 O473 1.250 . S
C482 O474 1.258 . S
O483 Mn468 2.162 . S
O483 C471 1.281 . S
O484 Mn468 2.297 1_455 S
O484 C471 1.236 1_455 S
N485 Mn469 2.282 . S
N485 C486 1.328 . S
N485 C490 1.318 . S
C486 N485 1.328 . S
C486 C487 1.457 . S
C486 H491 0.929 . S
C487 C486 1.457 . S
C487 C488 1.291 . S
C487 H500 0.931 . S
C488 C487 1.291 . S
C488 C489 1.373 . S
C488 H501 0.929 . S
C489 C488 1.373 . S
C489 C490 1.396 . S
C489 C496 1.403 . S
C490 C480 1.476 . S
C490 N485 1.318 . S
C490 C489 1.396 . S
H491 C486 0.929 . S
O492 Mn468 2.385 . S
O492 C470 1.234 . S
O493 Mn468 2.209 . S
O493 Mn469 2.215 . S
O493 C470 1.283 . S
O494 Mn468 2.094 . S
O494 C472 1.240 . S
O495 Mn469 2.117 . S
O495 C472 1.264 . S
C496 C489 1.403 . S
C496 C497 1.399 . S
C496 H502 0.929 . S
C497 C477 1.449 . S
C497 C496 1.399 . S
C497 H503 0.930 . S
H498 C478 0.931 . S
H499 C479 0.930 . S
H500 C487 0.931 . S
H501 C488 0.929 . S
H502 C496 0.929 . S
H503 C497 0.930 . S
Mn504 O509 2.095 . S
Mn504 O519 2.162 . S
Mn504 O520 2.297 . S
Mn504 O528 2.385 . S
Mn504 O529 2.209 . S
Mn504 O530 2.094 . S
Mn505 O510 2.121 . S
Mn505 N512 2.257 . S
Mn505 N521 2.282 . S
Mn505 O529 2.215 . S
Mn505 O531 2.117 . S
C506 O528 1.234 . S
C506 O529 1.283 . S
C507 O519 1.281 . S
C507 O520 1.236 . S
C508 O530 1.240 . S
C508 O531 1.264 . S
O509 Mn504 2.095 . S
O509 C518 1.250 . S
O510 Mn505 2.121 . S
O510 C518 1.258 . S
C511 N512 1.326 . S
C511 C515 1.460 . S
C511 H517 0.929 . S
N512 Mn505 2.257 . S
N512 C511 1.326 . S
N512 C516 1.362 . S
C513 C514 1.258 . S
C513 C516 1.431 . S
C513 C533 1.449 . S
C514 C513 1.258 . S
C514 C515 1.477 . S
C514 H534 0.931 . S
C515 C511 1.460 . S
C515 C514 1.477 . S
C515 H535 0.930 . S
C516 N512 1.362 . S
C516 C513 1.431 . S
C516 C526 1.476 . S
H517 C511 0.929 . S
C518 O509 1.250 . S
C518 O510 1.258 . S
O519 Mn504 2.162 . S
O519 C507 1.281 . S
O520 Mn504 2.297 . S
O520 C507 1.236 . S
N521 Mn505 2.282 . S
N521 C522 1.328 . S
N521 C526 1.318 . S
C522 N521 1.328 . S
C522 C523 1.457 . S
C522 H527 0.929 . S
C523 C522 1.457 . S
C523 C524 1.291 . S
C523 H536 0.931 . S
C524 C523 1.291 . S
C524 C525 1.373 . S
C524 H537 0.929 . S
C525 C524 1.373 . S
C525 C526 1.396 . S
C525 C532 1.403 . S
C526 C516 1.476 . S
C526 N521 1.318 . S
C526 C525 1.396 . S
H527 C522 0.929 . S
O528 Mn504 2.385 . S
O528 C506 1.234 . S
O529 Mn504 2.209 . S
O529 Mn505 2.215 . S
O529 C506 1.283 . S
O530 Mn504 2.094 . S
O530 C508 1.240 . S
O531 Mn505 2.117 . S
O531 C508 1.264 . S
C532 C525 1.403 . S
C532 C533 1.399 . S
C532 H538 0.929 . S
C533 C513 1.449 . S
C533 C532 1.399 . S
C533 H539 0.930 . S
H534 C514 0.931 . S
H535 C515 0.930 . S
H536 C523 0.931 . S
H537 C524 0.929 . S
H538 C532 0.929 . S
H539 C533 0.930 . S
Mn540 O545 2.095 . S
Mn540 O555 2.162 . S
Mn540 O556 2.297 . S
Mn540 O564 2.385 . S
Mn540 O565 2.209 . S
Mn540 O566 2.094 . S
Mn541 O546 2.121 . S
Mn541 N548 2.257 . S
Mn541 N557 2.282 . S
Mn541 O565 2.215 . S
Mn541 O567 2.117 . S
C542 O564 1.234 . S
C542 O565 1.283 . S
C543 O555 1.281 . S
C543 O556 1.236 . S
C544 O566 1.240 . S
C544 O567 1.264 . S
O545 Mn540 2.095 . S
O545 C554 1.250 . S
O546 Mn541 2.121 . S
O546 C554 1.258 . S
C547 N548 1.326 . S
C547 C551 1.460 . S
C547 H553 0.929 . S
N548 Mn541 2.257 . S
N548 C547 1.326 . S
N548 C552 1.362 . S
C549 C550 1.258 . S
C549 C552 1.431 . S
C549 C569 1.449 . S
C550 C549 1.258 . S
C550 C551 1.477 . S
C550 H570 0.931 . S
C551 C547 1.460 . S
C551 C550 1.477 . S
C551 H571 0.930 . S
C552 N548 1.362 . S
C552 C549 1.431 . S
C552 C562 1.476 . S
H553 C547 0.929 . S
C554 O545 1.250 . S
C554 O546 1.258 . S
O555 Mn540 2.162 . S
O555 C543 1.281 . S
O556 Mn540 2.297 . S
O556 C543 1.236 . S
N557 Mn541 2.282 . S
N557 C558 1.328 . S
N557 C562 1.318 . S
C558 N557 1.328 . S
C558 C559 1.457 . S
C558 H563 0.929 . S
C559 C558 1.457 . S
C559 C560 1.291 . S
C559 H572 0.931 . S
C560 C559 1.291 . S
C560 C561 1.373 . S
C560 H573 0.929 . S
C561 C560 1.373 . S
C561 C562 1.396 . S
C561 C568 1.403 . S
C562 C552 1.476 . S
C562 N557 1.318 . S
C562 C561 1.396 . S
H563 C558 0.929 . S
O564 Mn540 2.385 . S
O564 C542 1.234 . S
O565 Mn540 2.209 . S
O565 Mn541 2.215 . S
O565 C542 1.283 . S
O566 Mn540 2.094 . S
O566 C544 1.240 . S
O567 Mn541 2.117 . S
O567 C544 1.264 . S
C568 C561 1.403 . S
C568 C569 1.399 . S
C568 H574 0.929 . S
C569 C549 1.449 . S
C569 C568 1.399 . S
C569 H575 0.930 . S
H570 C550 0.931 . S
H571 C551 0.930 . S
H572 C559 0.931 . S
H573 C560 0.929 . S
H574 C568 0.929 . S
H575 C569 0.930 . S
Mn576 O581 2.095 1_545 S
Mn576 O591 2.162 . S
Mn576 O592 2.297 1_545 S
Mn576 O600 2.385 . S
Mn576 O601 2.209 . S
Mn576 O602 2.094 . S
Mn577 O582 2.121 1_545 S
Mn577 N584 2.257 1_545 S
Mn577 N593 2.282 . S
Mn577 O601 2.215 . S
Mn577 O603 2.117 . S
C578 O600 1.234 . S
C578 O601 1.283 . S
C579 O591 1.281 . S
C579 O592 1.236 1_545 S
C580 O602 1.240 . S
C580 O603 1.264 . S
O581 Mn576 2.095 1_565 S
O581 C590 1.250 . S
O582 Mn577 2.121 1_565 S
O582 C590 1.258 . S
C583 N584 1.326 . S
C583 C587 1.460 . S
C583 H589 0.929 . S
N584 Mn577 2.257 1_565 S
N584 C583 1.326 . S
N584 C588 1.362 1_565 S
C585 C586 1.258 1_545 S
C585 C588 1.431 . S
C585 C605 1.449 . S
C586 C585 1.258 1_565 S
C586 C587 1.477 . S
C586 H606 0.931 . S
C587 C583 1.460 . S
C587 C586 1.477 . S
C587 H607 0.930 . S
C588 N584 1.362 1_545 S
C588 C585 1.431 . S
C588 C598 1.476 . S
H589 C583 0.929 . S
C590 O581 1.250 . S
C590 O582 1.258 . S
O591 Mn576 2.162 . S
O591 C579 1.281 . S
O592 Mn576 2.297 1_565 S
O592 C579 1.236 1_565 S
N593 Mn577 2.282 . S
N593 C594 1.328 . S
N593 C598 1.318 . S
C594 N593 1.328 . S
C594 C595 1.457 . S
C594 H599 0.929 . S
C595 C594 1.457 . S
C595 C596 1.291 . S
C595 H608 0.931 . S
C596 C595 1.291 . S
C596 C597 1.373 . S
C596 H609 0.929 . S
C597 C596 1.373 . S
C597 C598 1.396 . S
C597 C604 1.403 . S
C598 C588 1.476 . S
C598 N593 1.318 . S
C598 C597 1.396 . S
H599 C594 0.929 . S
O600 Mn576 2.385 . S
O600 C578 1.234 . S
O601 Mn576 2.209 . S
O601 Mn577 2.215 . S
O601 C578 1.283 . S
O602 Mn576 2.094 . S
O602 C580 1.240 . S
O603 Mn577 2.117 . S
O603 C580 1.264 . S
C604 C597 1.403 . S
C604 C605 1.399 . S
C604 H610 0.929 . S
C605 C585 1.449 . S
C605 C604 1.399 . S
C605 H611 0.930 . S
H606 C586 0.931 . S
H607 C587 0.930 . S
H608 C595 0.931 . S
H609 C596 0.929 . S
H610 C604 0.929 . S
H611 C605 0.930 . S
Mn612 O617 2.095 . S
Mn612 O627 2.162 1_655 S
Mn612 O628 2.297 1_655 S
Mn612 O636 2.385 . S
Mn612 O637 2.209 . S
Mn612 O638 2.094 . S
Mn613 O618 2.121 . S
Mn613 N620 2.257 . S
Mn613 N629 2.282 . S
Mn613 O637 2.215 . S
Mn613 O639 2.117 . S
C614 O636 1.234 . S
C614 O637 1.283 . S
C615 O627 1.281 . S
C615 O628 1.236 . S
C616 O638 1.240 . S
C616 O639 1.264 . S
O617 Mn612 2.095 . S
O617 C626 1.250 . S
O618 Mn613 2.121 . S
O618 C626 1.258 . S
C619 N620 1.326 . S
C619 C623 1.460 . S
C619 H625 0.929 . S
N620 Mn613 2.257 . S
N620 C619 1.326 . S
N620 C624 1.362 . S
C621 C622 1.258 . S
C621 C624 1.431 . S
C621 C641 1.449 . S
C622 C621 1.258 . S
C622 C623 1.477 . S
C622 H642 0.931 . S
C623 C619 1.460 . S
C623 C622 1.477 . S
C623 H643 0.930 . S
C624 N620 1.362 . S
C624 C621 1.431 . S
C624 C634 1.476 . S
H625 C619 0.929 . S
C626 O617 1.250 . S
C626 O618 1.258 . S
O627 Mn612 2.162 1_455 S
O627 C615 1.281 . S
O628 Mn612 2.297 1_455 S
O628 C615 1.236 . S
N629 Mn613 2.282 . S
N629 C630 1.328 . S
N629 C634 1.318 . S
C630 N629 1.328 . S
C630 C631 1.457 . S
C630 H635 0.929 . S
C631 C630 1.457 . S
C631 C632 1.291 . S
C631 H644 0.931 . S
C632 C631 1.291 . S
C632 C633 1.373 . S
C632 H645 0.929 . S
C633 C632 1.373 . S
C633 C634 1.396 . S
C633 C640 1.403 . S
C634 C624 1.476 . S
C634 N629 1.318 . S
C634 C633 1.396 . S
H635 C630 0.929 . S
O636 Mn612 2.385 . S
O636 C614 1.234 . S
O637 Mn612 2.209 . S
O637 Mn613 2.215 . S
O637 C614 1.283 . S
O638 Mn612 2.094 . S
O638 C616 1.240 . S
O639 Mn613 2.117 . S
O639 C616 1.264 . S
C640 C633 1.403 . S
C640 C641 1.399 . S
C640 H646 0.929 . S
C641 C621 1.449 . S
C641 C640 1.399 . S
C641 H647 0.930 . S
H642 C622 0.931 . S
H643 C623 0.930 . S
H644 C631 0.931 . S
H645 C632 0.929 . S
H646 C640 0.929 . S
H647 C641 0.930 . S
H648 C667 0.949 . S
H649 C668 0.950 . S
H650 C670 0.950 . S
H651 C671 0.950 . S
H652 C673 0.950 . S
H653 C676 0.950 . S
H654 C677 0.950 . S
H655 C679 0.951 . S
H656 C680 0.949 . S
H657 C682 0.949 . S
H658 C683 0.950 . S
H659 C685 0.950 . S
H660 C686 0.950 . S
H661 C688 0.950 . S
H662 C691 0.950 . S
H663 C692 0.950 . S
H664 C694 0.951 . S
H665 C695 0.949 . S
C666 C667 1.376 . S
C666 C671 1.386 . S
C666 C672 1.483 . S
C667 H648 0.949 . S
C667 C666 1.376 . S
C667 C668 1.397 . S
C668 H649 0.950 . S
C668 C667 1.397 . S
C668 C669 1.391 . S
C669 C668 1.391 . S
C669 C670 1.405 . S
C670 H650 0.950 . S
C670 C669 1.405 . S
C670 C671 1.367 . S
C671 H651 0.950 . S
C671 C666 1.386 . S
C671 C670 1.367 . S
C672 C666 1.483 . S
C672 C673 1.382 . S
C672 C674 1.403 . S
C673 H652 0.950 . S
C673 C672 1.382 . S
C673 C689 1.411 . S
C674 C672 1.403 . S
C674 C675 1.489 . S
C674 C688 1.411 . S
C675 C674 1.489 . S
C675 C676 1.383 . S
C675 C680 1.382 . S
C676 H653 0.950 . S
C676 C675 1.383 . S
C676 C677 1.395 . S
C677 H654 0.950 . S
C677 C676 1.395 . S
C677 C678 1.288 . S
C678 C677 1.288 . S
C678 C679 1.392 . S
C679 H655 0.951 . S
C679 C678 1.392 . S
C679 C680 1.392 . S
C680 H656 0.949 . S
C680 C675 1.382 . S
C680 C679 1.392 . S
C681 C682 1.376 . S
C681 C686 1.386 . S
C681 C687 1.483 . S
C682 H657 0.949 . S
C682 C681 1.376 . S
C682 C683 1.397 . S
C683 H658 0.950 . S
C683 C682 1.397 . S
C683 C684 1.391 . S
C684 C683 1.391 . S
C684 C685 1.405 . S
C685 H659 0.950 . S
C685 C684 1.405 . S
C685 C686 1.367 . S
C686 H660 0.950 . S
C686 C681 1.386 . S
C686 C685 1.367 . S
C687 C681 1.483 . S
C687 C688 1.382 . S
C687 C689 1.403 . S
C688 H661 0.950 . S
C688 C674 1.411 . S
C688 C687 1.382 . S
C689 C673 1.411 . S
C689 C687 1.403 . S
C689 C690 1.489 . S
C690 C689 1.489 . S
C690 C691 1.383 . S
C690 C695 1.382 . S
C691 H662 0.950 . S
C691 C690 1.383 . S
C691 C692 1.395 . S
C692 H663 0.950 . S
C692 C691 1.395 . S
C692 C693 1.288 . S
C693 C692 1.288 . S
C693 C694 1.392 . S
C694 H664 0.951 . S
C694 C693 1.392 . S
C694 C695 1.392 . S
C695 H665 0.949 . S
C695 C690 1.382 . S
C695 C694 1.392 . S
H696 C715 0.949 . S
H697 C716 0.950 . S
H698 C718 0.950 . S
H699 C719 0.950 . S
H700 C721 0.950 . S
H701 C724 0.950 . S
H702 C725 0.950 . S
H703 C727 0.951 . S
H704 C728 0.949 . S
H705 C730 0.949 . S
H706 C731 0.950 . S
H707 C733 0.950 . S
H708 C734 0.950 . S
H709 C736 0.950 . S
H710 C739 0.950 . S
H711 C740 0.950 . S
H712 C742 0.951 . S
H713 C743 0.949 . S
C714 C715 1.376 . S
C714 C719 1.386 . S
C714 C720 1.483 . S
C715 H696 0.949 . S
C715 C714 1.376 . S
C715 C716 1.397 . S
C716 H697 0.950 . S
C716 C715 1.397 . S
C716 C717 1.391 . S
C717 C716 1.391 . S
C717 C718 1.405 . S
C718 H698 0.950 . S
C718 C717 1.405 . S
C718 C719 1.367 . S
C719 H699 0.950 . S
C719 C714 1.386 . S
C719 C718 1.367 . S
C720 C714 1.483 . S
C720 C721 1.382 . S
C720 C722 1.403 . S
C721 H700 0.950 . S
C721 C720 1.382 . S
C721 C737 1.411 . S
C722 C720 1.403 . S
C722 C723 1.489 . S
C722 C736 1.411 . S
C723 C722 1.489 . S
C723 C724 1.383 . S
C723 C728 1.382 . S
C724 H701 0.950 . S
C724 C723 1.383 . S
C724 C725 1.395 . S
C725 H702 0.950 . S
C725 C724 1.395 . S
C725 C726 1.288 . S
C726 C725 1.288 . S
C726 C727 1.392 . S
C727 H703 0.951 . S
C727 C726 1.392 . S
C727 C728 1.392 . S
C728 H704 0.949 . S
C728 C723 1.382 . S
C728 C727 1.392 . S
C729 C730 1.376 . S
C729 C734 1.386 . S
C729 C735 1.483 . S
C730 H705 0.949 . S
C730 C729 1.376 . S
C730 C731 1.397 . S
C731 H706 0.950 . S
C731 C730 1.397 . S
C731 C732 1.391 . S
C732 C731 1.391 . S
C732 C733 1.405 . S
C733 H707 0.950 . S
C733 C732 1.405 . S
C733 C734 1.367 . S
C734 H708 0.950 . S
C734 C729 1.386 . S
C734 C733 1.367 . S
C735 C729 1.483 . S
C735 C736 1.382 . S
C735 C737 1.403 . S
C736 H709 0.950 . S
C736 C722 1.411 . S
C736 C735 1.382 . S
C737 C721 1.411 . S
C737 C735 1.403 . S
C737 C738 1.489 . S
C738 C737 1.489 . S
C738 C739 1.383 . S
C738 C743 1.382 . S
C739 H710 0.950 . S
C739 C738 1.383 . S
C739 C740 1.395 . S
C740 H711 0.950 . S
C740 C739 1.395 . S
C740 C741 1.288 . S
C741 C740 1.288 . S
C741 C742 1.392 . S
C742 H712 0.951 . S
C742 C741 1.392 . S
C742 C743 1.392 . S
C743 H713 0.949 . S
C743 C738 1.382 . S
C743 C742 1.392 . S
H744 C763 0.949 . S
H745 C764 0.950 . S
H746 C766 0.950 . S
H747 C767 0.950 . S
H748 C769 0.950 . S
H749 C772 0.950 . S
H750 C773 0.950 . S
H751 C775 0.951 . S
H752 C776 0.949 . S
H753 C778 0.949 . S
H754 C779 0.950 . S
H755 C781 0.950 . S
H756 C782 0.950 . S
H757 C784 0.950 . S
H758 C787 0.950 . S
H759 C788 0.950 . S
H760 C790 0.951 . S
H761 C791 0.949 . S
C762 C763 1.376 . S
C762 C767 1.386 . S
C762 C768 1.483 . S
C763 H744 0.949 . S
C763 C762 1.376 . S
C763 C764 1.397 . S
C764 H745 0.950 . S
C764 C763 1.397 . S
C764 C765 1.391 . S
C765 C764 1.391 . S
C765 C766 1.405 . S
C766 H746 0.950 . S
C766 C765 1.405 . S
C766 C767 1.367 . S
C767 H747 0.950 . S
C767 C762 1.386 . S
C767 C766 1.367 . S
C768 C762 1.483 . S
C768 C769 1.382 . S
C768 C770 1.403 . S
C769 H748 0.950 . S
C769 C768 1.382 . S
C769 C785 1.411 . S
C770 C768 1.403 . S
C770 C771 1.489 . S
C770 C784 1.411 . S
C771 C770 1.489 . S
C771 C772 1.383 . S
C771 C776 1.382 . S
C772 H749 0.950 . S
C772 C771 1.383 . S
C772 C773 1.395 . S
C773 H750 0.950 . S
C773 C772 1.395 . S
C773 C774 1.288 . S
C774 C773 1.288 . S
C774 C775 1.392 . S
C775 H751 0.951 . S
C775 C774 1.392 . S
C775 C776 1.392 . S
C776 H752 0.949 . S
C776 C771 1.382 . S
C776 C775 1.392 . S
C777 C778 1.376 . S
C777 C782 1.386 . S
C777 C783 1.483 . S
C778 H753 0.949 . S
C778 C777 1.376 . S
C778 C779 1.397 . S
C779 H754 0.950 . S
C779 C778 1.397 . S
C779 C780 1.391 . S
C780 C779 1.391 . S
C780 C781 1.405 . S
C781 H755 0.950 . S
C781 C780 1.405 . S
C781 C782 1.367 . S
C782 H756 0.950 . S
C782 C777 1.386 . S
C782 C781 1.367 . S
C783 C777 1.483 . S
C783 C784 1.382 . S
C783 C785 1.403 . S
C784 H757 0.950 . S
C784 C770 1.411 . S
C784 C783 1.382 . S
C785 C769 1.411 . S
C785 C783 1.403 . S
C785 C786 1.489 . S
C786 C785 1.489 . S
C786 C787 1.383 . S
C786 C791 1.382 . S
C787 H758 0.950 . S
C787 C786 1.383 . S
C787 C788 1.395 . S
C788 H759 0.950 . S
C788 C787 1.395 . S
C788 C789 1.288 . S
C789 C788 1.288 . S
C789 C790 1.392 . S
C790 H760 0.951 . S
C790 C789 1.392 . S
C790 C791 1.392 . S
C791 H761 0.949 . S
C791 C786 1.382 . S
C791 C790 1.392 . S
H792 C811 0.949 . S
H793 C812 0.950 . S
H794 C814 0.950 . S
H795 C815 0.950 . S
H796 C817 0.950 . S
H797 C820 0.950 . S
H798 C821 0.950 . S
H799 C823 0.951 . S
H800 C824 0.949 . S
H801 C826 0.949 . S
H802 C827 0.950 . S
H803 C829 0.950 . S
H804 C830 0.950 . S
H805 C832 0.950 . S
H806 C835 0.950 . S
H807 C836 0.950 . S
H808 C838 0.951 . S
H809 C839 0.949 . S
C810 C811 1.376 . S
C810 C815 1.386 . S
C810 C816 1.483 . S
C811 H792 0.949 . S
C811 C810 1.376 . S
C811 C812 1.397 . S
C812 H793 0.950 . S
C812 C811 1.397 . S
C812 C813 1.391 . S
C813 C812 1.391 . S
C813 C814 1.405 . S
C814 H794 0.950 . S
C814 C813 1.405 . S
C814 C815 1.367 . S
C815 H795 0.950 . S
C815 C810 1.386 . S
C815 C814 1.367 . S
C816 C810 1.483 . S
C816 C817 1.382 . S
C816 C818 1.403 . S
C817 H796 0.950 . S
C817 C816 1.382 . S
C817 C833 1.411 . S
C818 C816 1.403 . S
C818 C819 1.489 . S
C818 C832 1.411 . S
C819 C818 1.489 . S
C819 C820 1.383 . S
C819 C824 1.382 . S
C820 H797 0.950 . S
C820 C819 1.383 . S
C820 C821 1.395 . S
C821 H798 0.950 . S
C821 C820 1.395 . S
C821 C822 1.288 . S
C822 C821 1.288 . S
C822 C823 1.392 . S
C823 H799 0.951 . S
C823 C822 1.392 . S
C823 C824 1.392 . S
C824 H800 0.949 . S
C824 C819 1.382 . S
C824 C823 1.392 . S
C825 C826 1.376 . S
C825 C830 1.386 . S
C825 C831 1.483 . S
C826 H801 0.949 . S
C826 C825 1.376 . S
C826 C827 1.397 . S
C827 H802 0.950 . S
C827 C826 1.397 . S
C827 C828 1.391 . S
C828 C827 1.391 . S
C828 C829 1.405 . S
C829 H803 0.950 . S
C829 C828 1.405 . S
C829 C830 1.367 . S
C830 H804 0.950 . S
C830 C825 1.386 . S
C830 C829 1.367 . S
C831 C825 1.483 . S
C831 C832 1.382 . S
C831 C833 1.403 . S
C832 H805 0.950 . S
C832 C818 1.411 . S
C832 C831 1.382 . S
C833 C817 1.411 . S
C833 C831 1.403 . S
C833 C834 1.489 . S
C834 C833 1.489 . S
C834 C835 1.383 . S
C834 C839 1.382 . S
C835 H806 0.950 . S
C835 C834 1.383 . S
C835 C836 1.395 . S
C836 H807 0.950 . S
C836 C835 1.395 . S
C836 C837 1.288 . S
C837 C836 1.288 . S
C837 C838 1.392 . S
C838 H808 0.951 . S
C838 C837 1.392 . S
C838 C839 1.392 . S
C839 H809 0.949 . S
C839 C834 1.382 . S
C839 C838 1.392 . S
H840 C859 0.949 . S
H841 C860 0.950 . S
H842 C862 0.950 . S
H843 C863 0.950 . S
H844 C865 0.950 . S
H845 C868 0.950 . S
H846 C869 0.950 . S
H847 C871 0.951 . S
H848 C872 0.949 . S
H849 C874 0.949 . S
H850 C875 0.950 . S
H851 C877 0.950 . S
H852 C878 0.950 . S
H853 C880 0.950 . S
H854 C883 0.950 . S
H855 C884 0.950 . S
H856 C886 0.951 . S
H857 C887 0.949 . S
C858 C859 1.376 . S
C858 C863 1.386 . S
C858 C864 1.483 . S
C859 H840 0.949 . S
C859 C858 1.376 . S
C859 C860 1.397 . S
C860 H841 0.950 . S
C860 C859 1.397 . S
C860 C861 1.391 . S
C861 C860 1.391 . S
C861 C862 1.405 . S
C862 H842 0.950 . S
C862 C861 1.405 . S
C862 C863 1.367 . S
C863 H843 0.950 . S
C863 C858 1.386 . S
C863 C862 1.367 . S
C864 C858 1.483 . S
C864 C865 1.382 . S
C864 C866 1.403 . S
C865 H844 0.950 . S
C865 C864 1.382 . S
C865 C881 1.411 . S
C866 C864 1.403 . S
C866 C867 1.489 . S
C866 C880 1.411 . S
C867 C866 1.489 . S
C867 C868 1.383 . S
C867 C872 1.382 . S
C868 H845 0.950 . S
C868 C867 1.383 . S
C868 C869 1.395 . S
C869 H846 0.950 . S
C869 C868 1.395 . S
C869 C870 1.288 . S
C870 C869 1.288 . S
C870 C871 1.392 . S
C871 H847 0.951 . S
C871 C870 1.392 . S
C871 C872 1.392 . S
C872 H848 0.949 . S
C872 C867 1.382 . S
C872 C871 1.392 . S
C873 C874 1.376 . S
C873 C878 1.386 . S
C873 C879 1.483 . S
C874 H849 0.949 . S
C874 C873 1.376 . S
C874 C875 1.397 . S
C875 H850 0.950 . S
C875 C874 1.397 . S
C875 C876 1.391 . S
C876 C875 1.391 . S
C876 C877 1.405 . S
C877 H851 0.950 . S
C877 C876 1.405 . S
C877 C878 1.367 . S
C878 H852 0.950 . S
C878 C873 1.386 . S
C878 C877 1.367 . S
C879 C873 1.483 . S
C879 C880 1.382 . S
C879 C881 1.403 . S
C880 H853 0.950 . S
C880 C866 1.411 . S
C880 C879 1.382 . S
C881 C865 1.411 . S
C881 C879 1.403 . S
C881 C882 1.489 . S
C882 C881 1.489 . S
C882 C883 1.383 . S
C882 C887 1.382 . S
C883 H854 0.950 . S
C883 C882 1.383 . S
C883 C884 1.395 . S
C884 H855 0.950 . S
C884 C883 1.395 . S
C884 C885 1.288 . S
C885 C884 1.288 . S
C885 C886 1.392 . S
C886 H856 0.951 . S
C886 C885 1.392 . S
C886 C887 1.392 . S
C887 H857 0.949 . S
C887 C882 1.382 . S
C887 C886 1.392 . S
H888 C907 0.949 . S
H889 C908 0.950 . S
H890 C910 0.950 . S
H891 C911 0.950 . S
H892 C913 0.950 . S
H893 C916 0.950 . S
H894 C917 0.950 . S
H895 C919 0.951 . S
H896 C920 0.949 . S
H897 C922 0.949 . S
H898 C923 0.950 . S
H899 C925 0.950 . S
H900 C926 0.950 . S
H901 C928 0.950 . S
H902 C931 0.950 . S
H903 C932 0.950 . S
H904 C934 0.951 . S
H905 C935 0.949 . S
C906 C907 1.376 . S
C906 C911 1.386 . S
C906 C912 1.483 . S
C907 H888 0.949 . S
C907 C906 1.376 . S
C907 C908 1.397 . S
C908 H889 0.950 . S
C908 C907 1.397 . S
C908 C909 1.391 . S
C909 C908 1.391 . S
C909 C910 1.405 . S
C910 H890 0.950 . S
C910 C909 1.405 . S
C910 C911 1.367 . S
C911 H891 0.950 . S
C911 C906 1.386 . S
C911 C910 1.367 . S
C912 C906 1.483 . S
C912 C913 1.382 . S
C912 C914 1.403 . S
C913 H892 0.950 . S
C913 C912 1.382 . S
C913 C929 1.411 . S
C914 C912 1.403 . S
C914 C915 1.489 . S
C914 C928 1.411 . S
C915 C914 1.489 . S
C915 C916 1.383 . S
C915 C920 1.382 . S
C916 H893 0.950 . S
C916 C915 1.383 . S
C916 C917 1.395 . S
C917 H894 0.950 . S
C917 C916 1.395 . S
C917 C918 1.288 . S
C918 C917 1.288 . S
C918 C919 1.392 . S
C919 H895 0.951 . S
C919 C918 1.392 . S
C919 C920 1.392 . S
C920 H896 0.949 . S
C920 C915 1.382 . S
C920 C919 1.392 . S
C921 C922 1.376 . S
C921 C926 1.386 . S
C921 C927 1.483 . S
C922 H897 0.949 . S
C922 C921 1.376 . S
C922 C923 1.397 . S
C923 H898 0.950 . S
C923 C922 1.397 . S
C923 C924 1.391 . S
C924 C923 1.391 . S
C924 C925 1.405 . S
C925 H899 0.950 . S
C925 C924 1.405 . S
C925 C926 1.367 . S
C926 H900 0.950 . S
C926 C921 1.386 . S
C926 C925 1.367 . S
C927 C921 1.483 . S
C927 C928 1.382 . S
C927 C929 1.403 . S
C928 H901 0.950 . S
C928 C914 1.411 . S
C928 C927 1.382 . S
C929 C913 1.411 . S
C929 C927 1.403 . S
C929 C930 1.489 . S
C930 C929 1.489 . S
C930 C931 1.383 . S
C930 C935 1.382 . S
C931 H902 0.950 . S
C931 C930 1.383 . S
C931 C932 1.395 . S
C932 H903 0.950 . S
C932 C931 1.395 . S
C932 C933 1.288 . S
C933 C932 1.288 . S
C933 C934 1.392 . S
C934 H904 0.951 . S
C934 C933 1.392 . S
C934 C935 1.392 . S
C935 H905 0.949 . S
C935 C930 1.382 . S
C935 C934 1.392 . S
H936 C955 0.949 . S
H937 C956 0.950 . S
H938 C958 0.950 . S
H939 C959 0.950 . S
H940 C961 0.950 . S
H941 C964 0.950 . S
H942 C965 0.950 . S
H943 C967 0.951 . S
H944 C968 0.949 . S
H945 C970 0.949 . S
H946 C971 0.950 . S
H947 C973 0.950 . S
H948 C974 0.950 . S
H949 C976 0.950 . S
H950 C979 0.950 . S
H951 C980 0.950 . S
H952 C982 0.951 . S
H953 C983 0.949 . S
C954 C955 1.376 . S
C954 C959 1.386 . S
C954 C960 1.483 . S
C955 H936 0.949 . S
C955 C954 1.376 . S
C955 C956 1.397 . S
C956 H937 0.950 . S
C956 C955 1.397 . S
C956 C957 1.391 . S
C957 C956 1.391 . S
C957 C958 1.405 . S
C958 H938 0.950 . S
C958 C957 1.405 . S
C958 C959 1.367 . S
C959 H939 0.950 . S
C959 C954 1.386 . S
C959 C958 1.367 . S
C960 C954 1.483 . S
C960 C961 1.382 . S
C960 C962 1.403 . S
C961 H940 0.950 . S
C961 C960 1.382 . S
C961 C977 1.411 . S
C962 C960 1.403 . S
C962 C963 1.489 . S
C962 C976 1.411 . S
C963 C962 1.489 . S
C963 C964 1.383 . S
C963 C968 1.382 . S
C964 H941 0.950 . S
C964 C963 1.383 . S
C964 C965 1.395 . S
C965 H942 0.950 . S
C965 C964 1.395 . S
C965 C966 1.288 . S
C966 C965 1.288 . S
C966 C967 1.392 . S
C967 H943 0.951 . S
C967 C966 1.392 . S
C967 C968 1.392 . S
C968 H944 0.949 . S
C968 C963 1.382 . S
C968 C967 1.392 . S
C969 C970 1.376 . S
C969 C974 1.386 . S
C969 C975 1.483 . S
C970 H945 0.949 . S
C970 C969 1.376 . S
C970 C971 1.397 . S
C971 H946 0.950 . S
C971 C970 1.397 . S
C971 C972 1.391 . S
C972 C971 1.391 . S
C972 C973 1.405 . S
C973 H947 0.950 . S
C973 C972 1.405 . S
C973 C974 1.367 . S
C974 H948 0.950 . S
C974 C969 1.386 . S
C974 C973 1.367 . S
C975 C969 1.483 . S
C975 C976 1.382 . S
C975 C977 1.403 . S
C976 H949 0.950 . S
C976 C962 1.411 . S
C976 C975 1.382 . S
C977 C961 1.411 . S
C977 C975 1.403 . S
C977 C978 1.489 . S
C978 C977 1.489 . S
C978 C979 1.383 . S
C978 C983 1.382 . S
C979 H950 0.950 . S
C979 C978 1.383 . S
C979 C980 1.395 . S
C980 H951 0.950 . S
C980 C979 1.395 . S
C980 C981 1.288 . S
C981 C980 1.288 . S
C981 C982 1.392 . S
C982 H952 0.951 . S
C982 C981 1.392 . S
C982 C983 1.392 . S
C983 H953 0.949 . S
C983 C978 1.382 . S
C983 C982 1.392 . S
H984 C1003 0.949 . S
H985 C1004 0.950 . S
H986 C1006 0.950 . S
H987 C1007 0.950 . S
H988 C1009 0.950 . S
H989 C1012 0.950 . S
H990 C1013 0.950 . S
H991 C1015 0.951 . S
H992 C1016 0.949 . S
H993 C1018 0.949 . S
H994 C1019 0.950 . S
H995 C1021 0.950 . S
H996 C1022 0.950 . S
H997 C1024 0.950 . S
H998 C1027 0.950 . S
H999 C1028 0.950 . S
H1000 C1030 0.951 . S
H1001 C1031 0.949 . S
C1002 C1003 1.376 . S
C1002 C1007 1.386 . S
C1002 C1008 1.483 . S
C1003 H984 0.949 . S
C1003 C1002 1.376 . S
C1003 C1004 1.397 . S
C1004 H985 0.950 . S
C1004 C1003 1.397 . S
C1004 C1005 1.391 . S
C1005 C1004 1.391 . S
C1005 C1006 1.405 . S
C1006 H986 0.950 . S
C1006 C1005 1.405 . S
C1006 C1007 1.367 . S
C1007 H987 0.950 . S
C1007 C1002 1.386 . S
C1007 C1006 1.367 . S
C1008 C1002 1.483 . S
C1008 C1009 1.382 . S
C1008 C1010 1.403 . S
C1009 H988 0.950 . S
C1009 C1008 1.382 . S
C1009 C1025 1.411 . S
C1010 C1008 1.403 . S
C1010 C1011 1.489 . S
C1010 C1024 1.411 . S
C1011 C1010 1.489 . S
C1011 C1012 1.383 . S
C1011 C1016 1.382 . S
C1012 H989 0.950 . S
C1012 C1011 1.383 . S
C1012 C1013 1.395 . S
C1013 H990 0.950 . S
C1013 C1012 1.395 . S
C1013 C1014 1.288 . S
C1014 C1013 1.288 . S
C1014 C1015 1.392 . S
C1015 H991 0.951 . S
C1015 C1014 1.392 . S
C1015 C1016 1.392 . S
C1016 H992 0.949 . S
C1016 C1011 1.382 . S
C1016 C1015 1.392 . S
C1017 C1018 1.376 . S
C1017 C1022 1.386 . S
C1017 C1023 1.483 . S
C1018 H993 0.949 . S
C1018 C1017 1.376 . S
C1018 C1019 1.397 . S
C1019 H994 0.950 . S
C1019 C1018 1.397 . S
C1019 C1020 1.391 . S
C1020 C1019 1.391 . S
C1020 C1021 1.405 . S
C1021 H995 0.950 . S
C1021 C1020 1.405 . S
C1021 C1022 1.367 . S
C1022 H996 0.950 . S
C1022 C1017 1.386 . S
C1022 C1021 1.367 . S
C1023 C1017 1.483 . S
C1023 C1024 1.382 . S
C1023 C1025 1.403 . S
C1024 H997 0.950 . S
C1024 C1010 1.411 . S
C1024 C1023 1.382 . S
C1025 C1009 1.411 . S
C1025 C1023 1.403 . S
C1025 C1026 1.489 . S
C1026 C1025 1.489 . S
C1026 C1027 1.383 . S
C1026 C1031 1.382 . S
C1027 H998 0.950 . S
C1027 C1026 1.383 . S
C1027 C1028 1.395 . S
C1028 H999 0.950 . S
C1028 C1027 1.395 . S
C1028 C1029 1.288 . S
C1029 C1028 1.288 . S
C1029 C1030 1.392 . S
C1030 H1000 0.951 . S
C1030 C1029 1.392 . S
C1030 C1031 1.392 . S
C1031 H1001 0.949 . S
C1031 C1026 1.382 . S
C1031 C1030 1.392 . S
H1032 C1051 0.949 . S
H1033 C1052 0.950 . S
H1034 C1054 0.950 . S
H1035 C1055 0.950 . S
H1036 C1057 0.950 . S
H1037 C1060 0.950 . S
H1038 C1061 0.950 . S
H1039 C1063 0.951 . S
H1040 C1064 0.949 . S
H1041 C1066 0.949 . S
H1042 C1067 0.950 . S
H1043 C1069 0.950 . S
H1044 C1070 0.950 . S
H1045 C1072 0.950 . S
H1046 C1075 0.950 . S
H1047 C1076 0.950 . S
H1048 C1078 0.951 . S
H1049 C1079 0.949 . S
C1050 C1051 1.376 . S
C1050 C1055 1.386 . S
C1050 C1056 1.483 . S
C1051 H1032 0.949 . S
C1051 C1050 1.376 . S
C1051 C1052 1.397 . S
C1052 H1033 0.950 . S
C1052 C1051 1.397 . S
C1052 C1053 1.391 . S
C1053 C1052 1.391 . S
C1053 C1054 1.405 . S
C1054 H1034 0.950 . S
C1054 C1053 1.405 . S
C1054 C1055 1.367 . S
C1055 H1035 0.950 . S
C1055 C1050 1.386 . S
C1055 C1054 1.367 . S
C1056 C1050 1.483 . S
C1056 C1057 1.382 . S
C1056 C1058 1.403 . S
C1057 H1036 0.950 . S
C1057 C1056 1.382 . S
C1057 C1073 1.411 . S
C1058 C1056 1.403 . S
C1058 C1059 1.489 . S
C1058 C1072 1.411 . S
C1059 C1058 1.489 . S
C1059 C1060 1.383 . S
C1059 C1064 1.382 . S
C1060 H1037 0.950 . S
C1060 C1059 1.383 . S
C1060 C1061 1.395 . S
C1061 H1038 0.950 . S
C1061 C1060 1.395 . S
C1061 C1062 1.288 . S
C1062 C1061 1.288 . S
C1062 C1063 1.392 . S
C1063 H1039 0.951 . S
C1063 C1062 1.392 . S
C1063 C1064 1.392 . S
C1064 H1040 0.949 . S
C1064 C1059 1.382 . S
C1064 C1063 1.392 . S
C1065 C1066 1.376 . S
C1065 C1070 1.386 . S
C1065 C1071 1.483 . S
C1066 H1041 0.949 . S
C1066 C1065 1.376 . S
C1066 C1067 1.397 . S
C1067 H1042 0.950 . S
C1067 C1066 1.397 . S
C1067 C1068 1.391 . S
C1068 C1067 1.391 . S
C1068 C1069 1.405 . S
C1069 H1043 0.950 . S
C1069 C1068 1.405 . S
C1069 C1070 1.367 . S
C1070 H1044 0.950 . S
C1070 C1065 1.386 . S
C1070 C1069 1.367 . S
C1071 C1065 1.483 . S
C1071 C1072 1.382 . S
C1071 C1073 1.403 . S
C1072 H1045 0.950 . S
C1072 C1058 1.411 . S
C1072 C1071 1.382 . S
C1073 C1057 1.411 . S
C1073 C1071 1.403 . S
C1073 C1074 1.489 . S
C1074 C1073 1.489 . S
C1074 C1075 1.383 . S
C1074 C1079 1.382 . S
C1075 H1046 0.950 . S
C1075 C1074 1.383 . S
C1075 C1076 1.395 . S
C1076 H1047 0.950 . S
C1076 C1075 1.395 . S
C1076 C1077 1.288 . S
C1077 C1076 1.288 . S
C1077 C1078 1.392 . S
C1078 H1048 0.951 . S
C1078 C1077 1.392 . S
C1078 C1079 1.392 . S
C1079 H1049 0.949 . S
C1079 C1074 1.382 . S
C1079 C1078 1.392 . S
H1080 C1099 0.949 . S
H1081 C1100 0.950 . S
H1082 C1102 0.950 . S
H1083 C1103 0.950 . S
H1084 C1105 0.950 . S
H1085 C1108 0.950 . S
H1086 C1109 0.950 . S
H1087 C1111 0.951 . S
H1088 C1112 0.949 . S
H1089 C1114 0.949 . S
H1090 C1115 0.950 . S
H1091 C1117 0.950 . S
H1092 C1118 0.950 . S
H1093 C1120 0.950 . S
H1094 C1123 0.950 . S
H1095 C1124 0.950 . S
H1096 C1126 0.951 . S
H1097 C1127 0.949 . S
C1098 C1099 1.376 . S
C1098 C1103 1.386 1_655 S
C1098 C1104 1.483 . S
C1099 H1080 0.949 . S
C1099 C1098 1.376 . S
C1099 C1100 1.397 . S
C1100 H1081 0.950 . S
C1100 C1099 1.397 . S
C1100 C1101 1.391 . S
C1101 C1100 1.391 . S
C1101 C1102 1.405 1_655 S
C1102 H1082 0.950 . S
C1102 C1101 1.405 1_455 S
C1102 C1103 1.367 . S
C1103 H1083 0.950 . S
C1103 C1098 1.386 1_455 S
C1103 C1102 1.367 . S
C1104 C1098 1.483 . S
C1104 C1105 1.382 . S
C1104 C1106 1.403 1_655 S
C1105 H1084 0.950 . S
C1105 C1104 1.382 . S
C1105 C1121 1.411 . S
C1106 C1104 1.403 1_455 S
C1106 C1107 1.489 . S
C1106 C1120 1.411 . S
C1107 C1106 1.489 . S
C1107 C1108 1.383 1_455 S
C1107 C1112 1.382 . S
C1108 H1085 0.950 . S
C1108 C1107 1.383 1_655 S
C1108 C1109 1.395 . S
C1109 H1086 0.950 . S
C1109 C1108 1.395 . S
C1109 C1110 1.288 1_655 S
C1110 C1109 1.288 1_455 S
C1110 C1111 1.392 . S
C1111 H1087 0.951 . S
C1111 C1110 1.392 . S
C1111 C1112 1.392 . S
C1112 H1088 0.949 . S
C1112 C1107 1.382 . S
C1112 C1111 1.392 . S
C1113 C1114 1.376 . S
C1113 C1118 1.386 1_455 S
C1113 C1119 1.483 . S
C1114 H1089 0.949 . S
C1114 C1113 1.376 . S
C1114 C1115 1.397 . S
C1115 H1090 0.950 . S
C1115 C1114 1.397 . S
C1115 C1116 1.391 . S
C1116 C1115 1.391 . S
C1116 C1117 1.405 1_455 S
C1117 H1091 0.950 . S
C1117 C1116 1.405 1_655 S
C1117 C1118 1.367 . S
C1118 H1092 0.950 . S
C1118 C1113 1.386 1_655 S
C1118 C1117 1.367 . S
C1119 C1113 1.483 . S
C1119 C1120 1.382 . S
C1119 C1121 1.403 1_455 S
C1120 H1093 0.950 . S
C1120 C1106 1.411 . S
C1120 C1119 1.382 . S
C1121 C1105 1.411 . S
C1121 C1119 1.403 1_655 S
C1121 C1122 1.489 . S
C1122 C1121 1.489 . S
C1122 C1123 1.383 1_655 S
C1122 C1127 1.382 . S
C1123 H1094 0.950 . S
C1123 C1122 1.383 1_455 S
C1123 C1124 1.395 . S
C1124 H1095 0.950 . S
C1124 C1123 1.395 . S
C1124 C1125 1.288 1_455 S
C1125 C1124 1.288 1_655 S
C1125 C1126 1.392 . S
C1126 H1096 0.951 . S
C1126 C1125 1.392 . S
C1126 C1127 1.392 . S
C1127 H1097 0.949 . S
C1127 C1122 1.382 . S
C1127 C1126 1.392 . S
H1128 C1147 0.949 . S
H1129 C1148 0.950 . S
H1130 C1150 0.950 . S
H1131 C1151 0.950 . S
H1132 C1153 0.950 . S
H1133 C1156 0.950 . S
H1134 C1157 0.950 . S
H1135 C1159 0.951 . S
H1136 C1160 0.949 . S
H1137 C1162 0.949 . S
H1138 C1163 0.950 . S
H1139 C1165 0.950 . S
H1140 C1166 0.950 . S
H1141 C1168 0.950 . S
H1142 C1171 0.950 . S
H1143 C1172 0.950 . S
H1144 C1174 0.951 . S
H1145 C1175 0.949 . S
C1146 C1147 1.376 . S
C1146 C1151 1.386 . S
C1146 C1152 1.483 . S
C1147 H1128 0.949 . S
C1147 C1146 1.376 . S
C1147 C1148 1.397 . S
C1148 H1129 0.950 . S
C1148 C1147 1.397 . S
C1148 C1149 1.391 . S
C1149 C1148 1.391 . S
C1149 C1150 1.405 . S
C1150 H1130 0.950 . S
C1150 C1149 1.405 . S
C1150 C1151 1.367 . S
C1151 H1131 0.950 . S
C1151 C1146 1.386 . S
C1151 C1150 1.367 . S
C1152 C1146 1.483 . S
C1152 C1153 1.382 . S
C1152 C1154 1.403 . S
C1153 H1132 0.950 . S
C1153 C1152 1.382 . S
C1153 C1169 1.411 . S
C1154 C1152 1.403 . S
C1154 C1155 1.489 . S
C1154 C1168 1.411 . S
C1155 C1154 1.489 . S
C1155 C1156 1.383 . S
C1155 C1160 1.382 . S
C1156 H1133 0.950 . S
C1156 C1155 1.383 . S
C1156 C1157 1.395 . S
C1157 H1134 0.950 . S
C1157 C1156 1.395 . S
C1157 C1158 1.288 . S
C1158 C1157 1.288 . S
C1158 C1159 1.392 . S
C1159 H1135 0.951 . S
C1159 C1158 1.392 . S
C1159 C1160 1.392 . S
C1160 H1136 0.949 . S
C1160 C1155 1.382 . S
C1160 C1159 1.392 . S
C1161 C1162 1.376 . S
C1161 C1166 1.386 . S
C1161 C1167 1.483 . S
C1162 H1137 0.949 . S
C1162 C1161 1.376 . S
C1162 C1163 1.397 . S
C1163 H1138 0.950 . S
C1163 C1162 1.397 . S
C1163 C1164 1.391 . S
C1164 C1163 1.391 . S
C1164 C1165 1.405 . S
C1165 H1139 0.950 . S
C1165 C1164 1.405 . S
C1165 C1166 1.367 . S
C1166 H1140 0.950 . S
C1166 C1161 1.386 . S
C1166 C1165 1.367 . S
C1167 C1161 1.483 . S
C1167 C1168 1.382 . S
C1167 C1169 1.403 . S
C1168 H1141 0.950 . S
C1168 C1154 1.411 . S
C1168 C1167 1.382 . S
C1169 C1153 1.411 . S
C1169 C1167 1.403 . S
C1169 C1170 1.489 . S
C1170 C1169 1.489 . S
C1170 C1171 1.383 . S
C1170 C1175 1.382 . S
C1171 H1142 0.950 . S
C1171 C1170 1.383 . S
C1171 C1172 1.395 . S
C1172 H1143 0.950 . S
C1172 C1171 1.395 . S
C1172 C1173 1.288 . S
C1173 C1172 1.288 . S
C1173 C1174 1.392 . S
C1174 H1144 0.951 . S
C1174 C1173 1.392 . S
C1174 C1175 1.392 . S
C1175 H1145 0.949 . S
C1175 C1170 1.382 . S
C1175 C1174 1.392 . S
H1176 C1195 0.949 . S
H1177 C1196 0.950 . S
H1178 C1198 0.950 . S
H1179 C1199 0.950 . S
H1180 C1201 0.950 . S
H1181 C1204 0.950 . S
H1182 C1205 0.950 . S
H1183 C1207 0.951 . S
H1184 C1208 0.949 . S
H1185 C1210 0.949 . S
H1186 C1211 0.950 . S
H1187 C1213 0.950 . S
H1188 C1214 0.950 . S
H1189 C1216 0.950 . S
H1190 C1219 0.950 . S
H1191 C1220 0.950 . S
H1192 C1222 0.951 . S
H1193 C1223 0.949 . S
C1194 C1195 1.376 . S
C1194 C1199 1.386 1_545 S
C1194 C1200 1.483 . S
C1195 H1176 0.949 . S
C1195 C1194 1.376 . S
C1195 C1196 1.397 . S
C1196 H1177 0.950 . S
C1196 C1195 1.397 . S
C1196 C1197 1.391 . S
C1197 C1196 1.391 . S
C1197 C1198 1.405 1_545 S
C1198 H1178 0.950 . S
C1198 C1197 1.405 1_565 S
C1198 C1199 1.367 . S
C1199 H1179 0.950 . S
C1199 C1194 1.386 1_565 S
C1199 C1198 1.367 . S
C1200 C1194 1.483 . S
C1200 C1201 1.382 . S
C1200 C1202 1.403 1_545 S
C1201 H1180 0.950 . S
C1201 C1200 1.382 . S
C1201 C1217 1.411 . S
C1202 C1200 1.403 1_565 S
C1202 C1203 1.489 . S
C1202 C1216 1.411 . S
C1203 C1202 1.489 . S
C1203 C1204 1.383 1_565 S
C1203 C1208 1.382 . S
C1204 H1181 0.950 . S
C1204 C1203 1.383 1_545 S
C1204 C1205 1.395 . S
C1205 H1182 0.950 . S
C1205 C1204 1.395 . S
C1205 C1206 1.288 1_545 S
C1206 C1205 1.288 1_565 S
C1206 C1207 1.392 . S
C1207 H1183 0.951 . S
C1207 C1206 1.392 . S
C1207 C1208 1.392 . S
C1208 H1184 0.949 . S
C1208 C1203 1.382 . S
C1208 C1207 1.392 . S
C1209 C1210 1.376 . S
C1209 C1214 1.386 1_565 S
C1209 C1215 1.483 . S
C1210 H1185 0.949 . S
C1210 C1209 1.376 . S
C1210 C1211 1.397 . S
C1211 H1186 0.950 . S
C1211 C1210 1.397 . S
C1211 C1212 1.391 . S
C1212 C1211 1.391 . S
C1212 C1213 1.405 1_565 S
C1213 H1187 0.950 . S
C1213 C1212 1.405 1_545 S
C1213 C1214 1.367 . S
C1214 H1188 0.950 . S
C1214 C1209 1.386 1_545 S
C1214 C1213 1.367 . S
C1215 C1209 1.483 . S
C1215 C1216 1.382 . S
C1215 C1217 1.403 1_565 S
C1216 H1189 0.950 . S
C1216 C1202 1.411 . S
C1216 C1215 1.382 . S
C1217 C1201 1.411 . S
C1217 C1215 1.403 1_545 S
C1217 C1218 1.489 . S
C1218 C1217 1.489 . S
C1218 C1219 1.383 1_545 S
C1218 C1223 1.382 . S
C1219 H1190 0.950 . S
C1219 C1218 1.383 1_565 S
C1219 C1220 1.395 . S
C1220 H1191 0.950 . S
C1220 C1219 1.395 . S
C1220 C1221 1.288 1_565 S
C1221 C1220 1.288 1_545 S
C1221 C1222 1.392 . S
C1222 H1192 0.951 . S
C1222 C1221 1.392 . S
C1222 C1223 1.392 . S
C1223 H1193 0.949 . S
C1223 C1218 1.382 . S
C1223 C1222 1.392 . S
H1224 C1243 0.949 . S
H1225 C1244 0.950 . S
H1226 C1246 0.950 . S
H1227 C1247 0.950 . S
H1228 C1249 0.950 . S
H1229 C1252 0.950 . S
H1230 C1253 0.950 . S
H1231 C1255 0.951 . S
H1232 C1256 0.949 . S
H1233 C1258 0.949 . S
H1234 C1259 0.950 . S
H1235 C1261 0.950 . S
H1236 C1262 0.950 . S
H1237 C1264 0.950 . S
H1238 C1267 0.950 . S
H1239 C1268 0.950 . S
H1240 C1270 0.951 . S
H1241 C1271 0.949 . S
C1242 C1243 1.384 . S
C1242 C1247 1.382 1_545 S
C1242 C1248 1.479 . S
C1243 H1224 0.949 . S
C1243 C1242 1.384 . S
C1243 C1244 1.397 . S
C1244 H1225 0.950 . S
C1244 C1243 1.397 . S
C1244 C1245 1.391 1_545 S
C1245 C1244 1.391 1_565 S
C1245 C1246 1.405 . S
C1246 H1226 0.950 . S
C1246 C1245 1.405 . S
C1246 C1247 1.367 . S
C1247 H1227 0.950 . S
C1247 C1242 1.382 1_565 S
C1247 C1246 1.367 . S
C1248 C1242 1.479 . S
C1248 C1249 1.382 . S
C1248 C1250 1.403 1_545 S
C1249 H1228 0.950 . S
C1249 C1248 1.382 . S
C1249 C1265 1.411 . S
C1250 C1248 1.403 1_565 S
C1250 C1251 1.505 . S
C1250 C1264 1.411 . S
C1251 C1250 1.505 . S
C1251 C1252 1.346 1_565 S
C1251 C1256 1.402 . S
C1252 H1229 0.950 . S
C1252 C1251 1.346 1_545 S
C1252 C1253 1.395 . S
C1253 H1230 0.950 . S
C1253 C1252 1.395 . S
C1253 C1254 1.288 . S
C1254 C1253 1.288 . S
C1254 C1255 1.392 1_545 S
C1255 H1231 0.951 . S
C1255 C1254 1.392 1_565 S
C1255 C1256 1.392 . S
C1256 H1232 0.949 . S
C1256 C1251 1.402 . S
C1256 C1255 1.392 . S
C1257 C1258 1.377 . S
C1257 C1262 1.386 1_565 S
C1257 C1263 1.482 . S
C1258 H1233 0.949 . S
C1258 C1257 1.377 . S
C1258 C1259 1.397 . S
C1259 H1234 0.950 . S
C1259 C1258 1.397 . S
C1259 C1260 1.391 1_565 S
C1260 C1259 1.391 1_545 S
C1260 C1261 1.405 . S
C1261 H1235 0.950 . S
C1261 C1260 1.405 . S
C1261 C1262 1.367 . S
C1262 H1236 0.950 . S
C1262 C1257 1.386 1_545 S
C1262 C1261 1.367 . S
C1263 C1257 1.482 . S
C1263 C1264 1.382 . S
C1263 C1265 1.403 1_565 S
C1264 H1237 0.950 . S
C1264 C1250 1.411 . S
C1264 C1263 1.382 . S
C1265 C1249 1.411 . S
C1265 C1263 1.403 1_545 S
C1265 C1266 1.489 . S
C1266 C1265 1.489 . S
C1266 C1267 1.383 1_545 S
C1266 C1271 1.382 . S
C1267 H1238 0.950 . S
C1267 C1266 1.383 1_565 S
C1267 C1268 1.395 . S
C1268 H1239 0.950 . S
C1268 C1267 1.395 . S
C1268 C1269 1.288 . S
C1269 C1268 1.288 . S
C1269 C1270 1.392 1_565 S
C1270 H1240 0.951 . S
C1270 C1269 1.392 1_545 S
C1270 C1271 1.392 . S
C1271 H1241 0.949 . S
C1271 C1266 1.382 . S
C1271 C1270 1.392 . S
H1272 C1291 0.949 . S
H1273 C1292 0.950 . S
H1274 C1294 0.950 . S
H1275 C1295 0.950 . S
H1276 C1297 0.950 . S
H1277 C1300 0.950 . S
H1278 C1301 0.950 . S
H1279 C1303 0.951 . S
H1280 C1304 0.949 . S
H1281 C1306 0.949 . S
H1282 C1307 0.950 . S
H1283 C1309 0.950 . S
H1284 C1310 0.950 . S
H1285 C1312 0.950 . S
H1286 C1315 0.950 . S
H1287 C1316 0.950 . S
H1288 C1318 0.951 . S
H1289 C1319 0.949 . S
C1290 C1291 1.376 . S
C1290 C1295 1.386 1_455 S
C1290 C1296 1.483 . S
C1291 H1272 0.949 . S
C1291 C1290 1.376 . S
C1291 C1292 1.397 . S
C1292 H1273 0.950 . S
C1292 C1291 1.397 . S
C1292 C1293 1.391 . S
C1293 C1292 1.391 . S
C1293 C1294 1.405 1_455 S
C1294 H1274 0.950 . S
C1294 C1293 1.405 1_655 S
C1294 C1295 1.367 . S
C1295 H1275 0.950 . S
C1295 C1290 1.386 1_655 S
C1295 C1294 1.367 . S
C1296 C1290 1.483 . S
C1296 C1297 1.382 . S
C1296 C1298 1.403 1_455 S
C1297 H1276 0.950 . S
C1297 C1296 1.382 . S
C1297 C1313 1.411 . S
C1298 C1296 1.403 1_655 S
C1298 C1299 1.489 . S
C1298 C1312 1.411 . S
C1299 C1298 1.489 . S
C1299 C1300 1.383 1_655 S
C1299 C1304 1.382 . S
C1300 H1277 0.950 . S
C1300 C1299 1.383 1_455 S
C1300 C1301 1.395 . S
C1301 H1278 0.950 . S
C1301 C1300 1.395 . S
C1301 C1302 1.288 1_455 S
C1302 C1301 1.288 1_655 S
C1302 C1303 1.392 . S
C1303 H1279 0.951 . S
C1303 C1302 1.392 . S
C1303 C1304 1.392 . S
C1304 H1280 0.949 . S
C1304 C1299 1.382 . S
C1304 C1303 1.392 . S
C1305 C1306 1.376 . S
C1305 C1310 1.386 1_655 S
C1305 C1311 1.483 . S
C1306 H1281 0.949 . S
C1306 C1305 1.376 . S
C1306 C1307 1.397 . S
C1307 H1282 0.950 . S
C1307 C1306 1.397 . S
C1307 C1308 1.391 . S
C1308 C1307 1.391 . S
C1308 C1309 1.405 1_655 S
C1309 H1283 0.950 . S
C1309 C1308 1.405 1_455 S
C1309 C1310 1.367 . S
C1310 H1284 0.950 . S
C1310 C1305 1.386 1_455 S
C1310 C1309 1.367 . S
C1311 C1305 1.483 . S
C1311 C1312 1.382 . S
C1311 C1313 1.403 1_655 S
C1312 H1285 0.950 . S
C1312 C1298 1.411 . S
C1312 C1311 1.382 . S
C1313 C1297 1.411 . S
C1313 C1311 1.403 1_455 S
C1313 C1314 1.489 . S
C1314 C1313 1.489 . S
C1314 C1315 1.383 1_455 S
C1314 C1319 1.382 . S
C1315 H1286 0.950 . S
C1315 C1314 1.383 1_655 S
C1315 C1316 1.395 . S
C1316 H1287 0.950 . S
C1316 C1315 1.395 . S
C1316 C1317 1.288 1_655 S
C1317 C1316 1.288 1_455 S
C1317 C1318 1.392 . S
C1318 H1288 0.951 . S
C1318 C1317 1.392 . S
C1318 C1319 1.392 . S
C1319 H1289 0.949 . S
C1319 C1314 1.382 . S
C1319 C1318 1.392 . S
H1320 C1339 0.949 . S
H1321 C1340 0.950 . S
H1322 C1342 0.950 . S
H1323 C1343 0.950 . S
H1324 C1345 0.950 . S
H1325 C1348 0.950 . S
H1326 C1349 0.950 . S
H1327 C1351 0.951 . S
H1328 C1352 0.949 . S
H1329 C1354 0.949 . S
H1330 C1355 0.950 . S
H1331 C1357 0.950 . S
H1332 C1358 0.950 . S
H1333 C1360 0.950 . S
H1334 C1363 0.950 . S
H1335 C1364 0.950 . S
H1336 C1366 0.951 . S
H1337 C1367 0.949 . S
C1338 C1339 1.376 . S
C1338 C1343 1.386 . S
C1338 C1344 1.483 . S
C1339 H1320 0.949 . S
C1339 C1338 1.376 . S
C1339 C1340 1.397 . S
C1340 H1321 0.950 . S
C1340 C1339 1.397 . S
C1340 C1341 1.391 . S
C1341 C1340 1.391 . S
C1341 C1342 1.405 . S
C1342 H1322 0.950 . S
C1342 C1341 1.405 . S
C1342 C1343 1.367 . S
C1343 H1323 0.950 . S
C1343 C1338 1.386 . S
C1343 C1342 1.367 . S
C1344 C1338 1.483 . S
C1344 C1345 1.382 . S
C1344 C1346 1.403 . S
C1345 H1324 0.950 . S
C1345 C1344 1.382 . S
C1345 C1361 1.411 . S
C1346 C1344 1.403 . S
C1346 C1347 1.489 . S
C1346 C1360 1.411 . S
C1347 C1346 1.489 . S
C1347 C1348 1.383 . S
C1347 C1352 1.382 . S
C1348 H1325 0.950 . S
C1348 C1347 1.383 . S
C1348 C1349 1.395 . S
C1349 H1326 0.950 . S
C1349 C1348 1.395 . S
C1349 C1350 1.288 . S
C1350 C1349 1.288 . S
C1350 C1351 1.392 . S
C1351 H1327 0.951 . S
C1351 C1350 1.392 . S
C1351 C1352 1.392 . S
C1352 H1328 0.949 . S
C1352 C1347 1.382 . S
C1352 C1351 1.392 . S
C1353 C1354 1.376 . S
C1353 C1358 1.386 . S
C1353 C1359 1.483 . S
C1354 H1329 0.949 . S
C1354 C1353 1.376 . S
C1354 C1355 1.397 . S
C1355 H1330 0.950 . S
C1355 C1354 1.397 . S
C1355 C1356 1.391 . S
C1356 C1355 1.391 . S
C1356 C1357 1.405 . S
C1357 H1331 0.950 . S
C1357 C1356 1.405 . S
C1357 C1358 1.367 . S
C1358 H1332 0.950 . S
C1358 C1353 1.386 . S
C1358 C1357 1.367 . S
C1359 C1353 1.483 . S
C1359 C1360 1.382 . S
C1359 C1361 1.403 . S
C1360 H1333 0.950 . S
C1360 C1346 1.411 . S
C1360 C1359 1.382 . S
C1361 C1345 1.411 . S
C1361 C1359 1.403 . S
C1361 C1362 1.489 . S
C1362 C1361 1.489 . S
C1362 C1363 1.383 . S
C1362 C1367 1.382 . S
C1363 H1334 0.950 . S
C1363 C1362 1.383 . S
C1363 C1364 1.395 . S
C1364 H1335 0.950 . S
C1364 C1363 1.395 . S
C1364 C1365 1.288 . S
C1365 C1364 1.288 . S
C1365 C1366 1.392 . S
C1366 H1336 0.951 . S
C1366 C1365 1.392 . S
C1366 C1367 1.392 . S
C1367 H1337 0.949 . S
C1367 C1362 1.382 . S
C1367 C1366 1.392 . S
H1368 C1387 0.949 . S
H1369 C1388 0.950 . S
H1370 C1390 0.950 . S
H1371 C1391 0.950 . S
H1372 C1393 0.950 . S
H1373 C1396 0.950 . S
H1374 C1397 0.950 . S
H1375 C1399 0.951 . S
H1376 C1400 0.949 . S
H1377 C1402 0.949 . S
H1378 C1403 0.950 . S
H1379 C1405 0.950 . S
H1380 C1406 0.950 . S
H1381 C1408 0.950 . S
H1382 C1411 0.950 . S
H1383 C1412 0.950 . S
H1384 C1414 0.951 . S
H1385 C1415 0.949 . S
C1386 C1387 1.376 . S
C1386 C1391 1.386 . S
C1386 C1392 1.483 . S
C1387 H1368 0.949 . S
C1387 C1386 1.376 . S
C1387 C1388 1.397 . S
C1388 H1369 0.950 . S
C1388 C1387 1.397 . S
C1388 C1389 1.391 . S
C1389 C1388 1.391 . S
C1389 C1390 1.405 . S
C1390 H1370 0.950 . S
C1390 C1389 1.405 . S
C1390 C1391 1.367 . S
C1391 H1371 0.950 . S
C1391 C1386 1.386 . S
C1391 C1390 1.367 . S
C1392 C1386 1.483 . S
C1392 C1393 1.382 . S
C1392 C1394 1.403 . S
C1393 H1372 0.950 . S
C1393 C1392 1.382 . S
C1393 C1409 1.411 . S
C1394 C1392 1.403 . S
C1394 C1395 1.489 . S
C1394 C1408 1.411 . S
C1395 C1394 1.489 . S
C1395 C1396 1.383 . S
C1395 C1400 1.382 . S
C1396 H1373 0.950 . S
C1396 C1395 1.383 . S
C1396 C1397 1.395 . S
C1397 H1374 0.950 . S
C1397 C1396 1.395 . S
C1397 C1398 1.288 . S
C1398 C1397 1.288 . S
C1398 C1399 1.392 . S
C1399 H1375 0.951 . S
C1399 C1398 1.392 . S
C1399 C1400 1.392 . S
C1400 H1376 0.949 . S
C1400 C1395 1.382 . S
C1400 C1399 1.392 . S
C1401 C1402 1.376 . S
C1401 C1406 1.386 . S
C1401 C1407 1.483 . S
C1402 H1377 0.949 . S
C1402 C1401 1.376 . S
C1402 C1403 1.397 . S
C1403 H1378 0.950 . S
C1403 C1402 1.397 . S
C1403 C1404 1.391 . S
C1404 C1403 1.391 . S
C1404 C1405 1.405 . S
C1405 H1379 0.950 . S
C1405 C1404 1.405 . S
C1405 C1406 1.367 . S
C1406 H1380 0.950 . S
C1406 C1401 1.386 . S
C1406 C1405 1.367 . S
C1407 C1401 1.483 . S
C1407 C1408 1.382 . S
C1407 C1409 1.403 . S
C1408 H1381 0.950 . S
C1408 C1394 1.411 . S
C1408 C1407 1.382 . S
C1409 C1393 1.411 . S
C1409 C1407 1.403 . S
C1409 C1410 1.489 . S
C1410 C1409 1.489 . S
C1410 C1411 1.383 . S
C1410 C1415 1.382 . S
C1411 H1382 0.950 . S
C1411 C1410 1.383 . S
C1411 C1412 1.395 . S
C1412 H1383 0.950 . S
C1412 C1411 1.395 . S
C1412 C1413 1.288 . S
C1413 C1412 1.288 . S
C1413 C1414 1.392 . S
C1414 H1384 0.951 . S
C1414 C1413 1.392 . S
C1414 C1415 1.392 . S
C1415 H1385 0.949 . S
C1415 C1410 1.382 . S
C1415 C1414 1.392 . S
H1416 C1435 0.949 . S
H1417 C1436 0.950 . S
H1418 C1438 0.950 . S
H1419 C1439 0.950 . S
H1420 C1441 0.950 . S
H1421 C1444 0.950 . S
H1422 C1445 0.950 . S
H1423 C1447 0.951 . S
H1424 C1448 0.949 . S
H1425 C1450 0.949 . S
H1426 C1451 0.950 . S
H1427 C1453 0.950 . S
H1428 C1454 0.950 . S
H1429 C1456 0.950 . S
H1430 C1459 0.950 . S
H1431 C1460 0.950 . S
H1432 C1462 0.951 . S
H1433 C1463 0.949 . S
C1434 C1435 1.376 . S
C1434 C1439 1.386 . S
C1434 C1440 1.483 . S
C1435 H1416 0.949 . S
C1435 C1434 1.376 . S
C1435 C1436 1.397 . S
C1436 H1417 0.950 . S
C1436 C1435 1.397 . S
C1436 C1437 1.391 . S
C1437 C1436 1.391 . S
C1437 C1438 1.405 . S
C1438 H1418 0.950 . S
C1438 C1437 1.405 . S
C1438 C1439 1.367 . S
C1439 H1419 0.950 . S
C1439 C1434 1.386 . S
C1439 C1438 1.367 . S
C1440 C1434 1.483 . S
C1440 C1441 1.382 . S
C1440 C1442 1.403 . S
C1441 H1420 0.950 . S
C1441 C1440 1.382 . S
C1441 C1457 1.411 . S
C1442 C1440 1.403 . S
C1442 C1443 1.489 . S
C1442 C1456 1.411 . S
C1443 C1442 1.489 . S
C1443 C1444 1.383 . S
C1443 C1448 1.382 . S
C1444 H1421 0.950 . S
C1444 C1443 1.383 . S
C1444 C1445 1.395 . S
C1445 H1422 0.950 . S
C1445 C1444 1.395 . S
C1445 C1446 1.288 . S
C1446 C1445 1.288 . S
C1446 C1447 1.392 . S
C1447 H1423 0.951 . S
C1447 C1446 1.392 . S
C1447 C1448 1.392 . S
C1448 H1424 0.949 . S
C1448 C1443 1.382 . S
C1448 C1447 1.392 . S
C1449 C1450 1.376 . S
C1449 C1454 1.386 . S
C1449 C1455 1.483 . S
C1450 H1425 0.949 . S
C1450 C1449 1.376 . S
C1450 C1451 1.397 . S
C1451 H1426 0.950 . S
C1451 C1450 1.397 . S
C1451 C1452 1.391 . S
C1452 C1451 1.391 . S
C1452 C1453 1.405 . S
C1453 H1427 0.950 . S
C1453 C1452 1.405 . S
C1453 C1454 1.367 . S
C1454 H1428 0.950 . S
C1454 C1449 1.386 . S
C1454 C1453 1.367 . S
C1455 C1449 1.483 . S
C1455 C1456 1.382 . S
C1455 C1457 1.403 . S
C1456 H1429 0.950 . S
C1456 C1442 1.411 . S
C1456 C1455 1.382 . S
C1457 C1441 1.411 . S
C1457 C1455 1.403 . S
C1457 C1458 1.489 . S
C1458 C1457 1.489 . S
C1458 C1459 1.383 . S
C1458 C1463 1.382 . S
C1459 H1430 0.950 . S
C1459 C1458 1.383 . S
C1459 C1460 1.395 . S
C1460 H1431 0.950 . S
C1460 C1459 1.395 . S
C1460 C1461 1.288 . S
C1461 C1460 1.288 . S
C1461 C1462 1.392 . S
C1462 H1432 0.951 . S
C1462 C1461 1.392 . S
C1462 C1463 1.392 . S
C1463 H1433 0.949 . S
C1463 C1458 1.382 . S
C1463 C1462 1.392 . S
H1464 C1483 0.949 . S
H1465 C1484 0.950 . S
H1466 C1486 0.950 . S
H1467 C1487 0.950 . S
H1468 C1489 0.950 . S
H1469 C1492 0.950 . S
H1470 C1493 0.950 . S
H1471 C1495 0.951 . S
H1472 C1496 0.949 . S
H1473 C1498 0.949 . S
H1474 C1499 0.950 . S
H1475 C1501 0.950 . S
H1476 C1502 0.950 . S
H1477 C1504 0.950 . S
H1478 C1507 0.950 . S
H1479 C1508 0.950 . S
H1480 C1510 0.951 . S
H1481 C1511 0.949 . S
C1482 C1483 1.376 . S
C1482 C1487 1.386 . S
C1482 C1488 1.483 . S
C1483 H1464 0.949 . S
C1483 C1482 1.376 . S
C1483 C1484 1.397 . S
C1484 H1465 0.950 . S
C1484 C1483 1.397 . S
C1484 C1485 1.391 . S
C1485 C1484 1.391 . S
C1485 C1486 1.405 . S
C1486 H1466 0.950 . S
C1486 C1485 1.405 . S
C1486 C1487 1.367 . S
C1487 H1467 0.950 . S
C1487 C1482 1.386 . S
C1487 C1486 1.367 . S
C1488 C1482 1.483 . S
C1488 C1489 1.382 . S
C1488 C1490 1.403 . S
C1489 H1468 0.950 . S
C1489 C1488 1.382 . S
C1489 C1505 1.411 . S
C1490 C1488 1.403 . S
C1490 C1491 1.489 . S
C1490 C1504 1.411 . S
C1491 C1490 1.489 . S
C1491 C1492 1.383 . S
C1491 C1496 1.382 . S
C1492 H1469 0.950 . S
C1492 C1491 1.383 . S
C1492 C1493 1.395 . S
C1493 H1470 0.950 . S
C1493 C1492 1.395 . S
C1493 C1494 1.288 . S
C1494 C1493 1.288 . S
C1494 C1495 1.392 . S
C1495 H1471 0.951 . S
C1495 C1494 1.392 . S
C1495 C1496 1.392 . S
C1496 H1472 0.949 . S
C1496 C1491 1.382 . S
C1496 C1495 1.392 . S
C1497 C1498 1.376 . S
C1497 C1502 1.386 . S
C1497 C1503 1.483 . S
C1498 H1473 0.949 . S
C1498 C1497 1.376 . S
C1498 C1499 1.397 . S
C1499 H1474 0.950 . S
C1499 C1498 1.397 . S
C1499 C1500 1.391 . S
C1500 C1499 1.391 . S
C1500 C1501 1.405 . S
C1501 H1475 0.950 . S
C1501 C1500 1.405 . S
C1501 C1502 1.367 . S
C1502 H1476 0.950 . S
C1502 C1497 1.386 . S
C1502 C1501 1.367 . S
C1503 C1497 1.483 . S
C1503 C1504 1.382 . S
C1503 C1505 1.403 . S
C1504 H1477 0.950 . S
C1504 C1490 1.411 . S
C1504 C1503 1.382 . S
C1505 C1489 1.411 . S
C1505 C1503 1.403 . S
C1505 C1506 1.489 . S
C1506 C1505 1.489 . S
C1506 C1507 1.383 . S
C1506 C1511 1.382 . S
C1507 H1478 0.950 . S
C1507 C1506 1.383 . S
C1507 C1508 1.395 . S
C1508 H1479 0.950 . S
C1508 C1507 1.395 . S
C1508 C1509 1.288 . S
C1509 C1508 1.288 . S
C1509 C1510 1.392 . S
C1510 H1480 0.951 . S
C1510 C1509 1.392 . S
C1510 C1511 1.392 . S
C1511 H1481 0.949 . S
C1511 C1506 1.382 . S
C1511 C1510 1.392 . S
C4 C1125 1.505 . S
C38 C1173 2.127 . S
C1221 C74 1.539 . S
C76 C1245 1.453 . S
C2 C1317 1.641 . S
C40 C1365 1.863 . S
C110 C1293 1.623 . S
C1341 C148 1.924 . S
C1269 C182 1.582 . S
C184 C1197 1.526 . S
C1101 C112 1.513 . S
C146 C1149 1.993 . S
C220 C1413 2.017 . S
C254 C1461 2.290 . S
C1485 C290 2.053 . S
C292 C669 1.807 . S
C218 C741 2.068 . S
C256 C789 1.964 . S
C326 C717 2.096 . S
C364 C765 2.044 . S
C693 C398 1.965 . S
C1509 C400 1.840 . S
C1389 C328 1.884 . S
C1437 C362 2.154 . S
C436 C837 1.943 . S
C470 C885 2.234 . S
C506 C909 2.019 . S
C508 C957 1.891 . S
C1029 C434 2.092 . S
C1077 C472 2.013 . S
C1005 C542 2.179 . S
C1053 C580 2.094 . S
C614 C981 1.985 . S
C933 C616 1.752 . S
C544 C813 1.861 . S
C861 C578 2.088 . S
C678 C14 2.229 . S
C39 C732 1.797 . S
C780 C75 1.840 . S
C828 C86 1.832 . S
C876 C3 1.844 . S
C918 C50 2.119 . S
C111 C924 1.856 . S
C158 C822 1.918 . S
C183 C870 1.954 . S
C194 C726 1.948 . S
C774 C122 1.967 . S
C147 C684 1.735 . S
C966 C230 2.174 . S
C255 C1020 1.847 . S
C291 C1068 1.829 . S
C1116 C302 1.302 . S
C219 C1164 1.758 . S
C266 C1212 1.376 . S
C327 C1206 1.390 . S
C374 C1110 1.380 . S
C1158 C399 1.852 . S
C410 C1014 1.885 . S
C338 C1062 1.917 . S
C972 C363 1.786 . S
C1254 C446 1.486 . S
C471 C1308 1.420 . S
C507 C1356 1.766 . S
C1404 C518 1.804 . S
C1452 C435 1.839 . S
C482 C1494 2.114 . S
C543 C1500 1.812 . S
C590 C1398 1.917 . S
C1446 C615 1.914 . S
C1302 C626 1.361 . S
C1350 C554 1.867 . S
C579 C1260 1.350 . S
