# Generated by pormake.
# Topology pyr, (3,6)-cn, num edge types: 1
# Building blocks:
#     Node 0, Type 0, BuildingBlock: MIDCAF_clean_linker_0, # of connection points: 3
#     Node 1, Type 0, BuildingBlock: MIDCAF_clean_linker_0, # of connection points: 3
#     Node 2, Type 0, BuildingBlock: MIDCAF_clean_linker_0, # of connection points: 3
#     Node 3, Type 0, BuildingBlock: MIDCAF_clean_linker_0, # of connection points: 3
#     Node 4, Type 0, BuildingBlock: MIDCAF_clean_linker_0, # of connection points: 3
#     Node 5, Type 0, BuildingBlock: MIDCAF_clean_linker_0, # of connection points: 3
#     Node 6, Type 0, BuildingBlock: MIDCAF_clean_linker_0, # of connection points: 3
#     Node 7, Type 0, BuildingBlock: MIDCAF_clean_linker_0, # of connection points: 3
#     Node 8, Type 1, BuildingBlock: INOVEN_clean_sbu_0, # of connection points: 6
#     Node 9, Type 1, BuildingBlock: INOVEN_clean_sbu_0, # of connection points: 6
#     Node 10, Type 1, BuildingBlock: INOVEN_clean_sbu_0, # of connection points: 6
#     Node 11, Type 1, BuildingBlock: INOVEN_clean_sbu_0, # of connection points: 6
#     Edge 12, Type (0, 1), BuildingBlock: EZIPEK_clean_linker_0, # of connection points: 2
#     Edge 13, Type (0, 1), BuildingBlock: EZIPEK_clean_linker_0, # of connection points: 2
#     Edge 14, Type (0, 1), BuildingBlock: EZIPEK_clean_linker_0, # of connection points: 2
#     Edge 15, Type (0, 1), BuildingBlock: EZIPEK_clean_linker_0, # of connection points: 2
#     Edge 16, Type (0, 1), BuildingBlock: EZIPEK_clean_linker_0, # of connection points: 2
#     Edge 17, Type (0, 1), BuildingBlock: EZIPEK_clean_linker_0, # of connection points: 2
#     Edge 18, Type (0, 1), BuildingBlock: EZIPEK_clean_linker_0, # of connection points: 2
#     Edge 19, Type (0, 1), BuildingBlock: EZIPEK_clean_linker_0, # of connection points: 2
#     Edge 20, Type (0, 1), BuildingBlock: EZIPEK_clean_linker_0, # of connection points: 2
#     Edge 21, Type (0, 1), BuildingBlock: EZIPEK_clean_linker_0, # of connection points: 2
#     Edge 22, Type (0, 1), BuildingBlock: EZIPEK_clean_linker_0, # of connection points: 2
#     Edge 23, Type (0, 1), BuildingBlock: EZIPEK_clean_linker_0, # of connection points: 2
#     Edge 24, Type (0, 1), BuildingBlock: EZIPEK_clean_linker_0, # of connection points: 2
#     Edge 25, Type (0, 1), BuildingBlock: EZIPEK_clean_linker_0, # of connection points: 2
#     Edge 26, Type (0, 1), BuildingBlock: EZIPEK_clean_linker_0, # of connection points: 2
#     Edge 27, Type (0, 1), BuildingBlock: EZIPEK_clean_linker_0, # of connection points: 2
#     Edge 28, Type (0, 1), BuildingBlock: EZIPEK_clean_linker_0, # of connection points: 2
#     Edge 29, Type (0, 1), BuildingBlock: EZIPEK_clean_linker_0, # of connection points: 2
#     Edge 30, Type (0, 1), BuildingBlock: EZIPEK_clean_linker_0, # of connection points: 2
#     Edge 31, Type (0, 1), BuildingBlock: EZIPEK_clean_linker_0, # of connection points: 2
#     Edge 32, Type (0, 1), BuildingBlock: EZIPEK_clean_linker_0, # of connection points: 2
#     Edge 33, Type (0, 1), BuildingBlock: EZIPEK_clean_linker_0, # of connection points: 2
#     Edge 34, Type (0, 1), BuildingBlock: EZIPEK_clean_linker_0, # of connection points: 2
#     Edge 35, Type (0, 1), BuildingBlock: EZIPEK_clean_linker_0, # of connection points: 2
# Relax obj value: 0.132
# Max RMSD: 0.141
# Mean RMSD: 0.065
data_MOF--net-pyr--node1-INOVEN_clean_sbu_0--node2-MIDCAF_clean_linker_0--edge1-EZIPEK_clean_linker_0
_symmetry_space_group_name_H-M    P1
_symmetry_Int_Tables_number       1
_symmetry_cell_setting            triclinic
loop_
_symmetry_equiv_pos_as_xyz
'x, y, z'
_cell_length_a     36.056543
_cell_length_b     38.309522
_cell_length_c     34.408526
_cell_angle_alpha  90.42384
_cell_angle_beta   88.892478
_cell_angle_gamma 102.10013
loop_
_atom_site_label
_atom_site_type_symbol
_atom_site_fract_x
_atom_site_fract_y
_atom_site_fract_z
_atom_type_partial_charge
C0 C 0.27401 0.2988 0.36548 0.0
C1 C 0.25901 0.26284 0.37425 0.0
C2 C 0.27651 0.23633 0.35854 0.0
C3 C 0.30606 0.24523 0.33123 0.0
H4 H 0.406 0.22253 0.27496 0.0
H5 H 0.44124 0.17833 0.25172 0.0
H6 H 0.43774 0.21615 0.13453 0.0
H7 H 0.40237 0.26067 0.15727 0.0
H8 H 0.33999 0.31086 0.13929 0.0
H9 H 0.29876 0.33738 0.09746 0.0
H10 H 0.26269 0.39192 0.1967 0.0
H11 H 0.30411 0.36676 0.23816 0.0
H12 H 0.31178 0.33522 0.32841 0.0
H13 H 0.26113 0.31961 0.3778 0.0
H14 H 0.26556 0.20847 0.36536 0.0
H15 H 0.31702 0.22392 0.31735 0.0
N16 N 0.36275 0.26711 0.26883 0.0
N17 N 0.36563 0.2931 0.20684 0.0
N18 N 0.32904 0.31163 0.25684 0.0
C19 C 0.37677 0.26983 0.23172 0.0
C20 C 0.34192 0.31436 0.21947 0.0
C21 C 0.33914 0.28818 0.28163 0.0
C22 C 0.40096 0.24509 0.21794 0.0
C23 C 0.41286 0.22177 0.24423 0.0
C24 C 0.43308 0.19647 0.23111 0.0
C25 C 0.44175 0.19393 0.19148 0.0
C26 C 0.43113 0.21777 0.16525 0.0
C27 C 0.41092 0.24318 0.17834 0.0
C28 C 0.32479 0.3361 0.19224 0.0
C29 C 0.32415 0.32935 0.15195 0.0
C30 C 0.30051 0.34431 0.12804 0.0
C31 C 0.27705 0.36585 0.14429 0.0
C32 C 0.28015 0.37493 0.18375 0.0
C33 C 0.30387 0.3604 0.20742 0.0
C34 C 0.31792 0.2807 0.31874 0.0
C35 C 0.30292 0.30763 0.33738 0.0
C36 C 0.18497 0.93548 0.62859 0.0
C37 C 0.15314 0.9294 0.60471 0.0
C38 C 0.13289 0.89428 0.59866 0.0
C39 C 0.14436 0.86565 0.61644 0.0
H40 H 0.22915 0.79313 0.57915 0.0
H41 H 0.27588 0.76452 0.54628 0.0
H42 H 0.28572 0.7056 0.65044 0.0
H43 H 0.23899 0.73349 0.68342 0.0
H44 H 0.25132 0.78184 0.76003 0.0
H45 H 0.28448 0.79998 0.82063 0.0
H46 H 0.23437 0.8926 0.82723 0.0
H47 H 0.20094 0.8749 0.76697 0.0
H48 H 0.2199 0.91246 0.66614 0.0
H49 H 0.20114 0.96234 0.63328 0.0
H50 H 0.10833 0.88914 0.5802 0.0
H51 H 0.12861 0.8387 0.61142 0.0
N52 N 0.19706 0.81564 0.64003 0.0
N53 N 0.21997 0.79402 0.69639 0.0
N54 N 0.19498 0.84553 0.69959 0.0
C55 C 0.21323 0.79103 0.65765 0.0
C56 C 0.21074 0.82099 0.71767 0.0
C57 C 0.18751 0.84265 0.66108 0.0
C58 C 0.23113 0.76628 0.63428 0.0
C59 C 0.24012 0.77307 0.59464 0.0
C60 C 0.26683 0.75683 0.57575 0.0
C61 C 0.28465 0.7337 0.59637 0.0
C62 C 0.27246 0.72376 0.63434 0.0
C63 C 0.24581 0.73983 0.65314 0.0
C64 C 0.22402 0.82731 0.75812 0.0
C65 C 0.24654 0.80561 0.77478 0.0
C66 C 0.26549 0.81582 0.80944 0.0
C67 C 0.2621 0.84777 0.82786 0.0
C68 C 0.23734 0.86791 0.81314 0.0
C69 C 0.21835 0.85774 0.77861 0.0
C70 C 0.17537 0.87204 0.64139 0.0
C71 C 0.19556 0.90709 0.64735 0.0
C72 C 0.63753 0.25633 0.94648 0.0
C73 C 0.60476 0.23571 0.93001 0.0
C74 C 0.58978 0.24932 0.89721 0.0
C75 C 0.607 0.283 0.88161 0.0
H76 H 0.59972 0.36261 0.7933 0.0
H77 H 0.57512 0.39206 0.73918 0.0
H78 H 0.66352 0.48551 0.75503 0.0
H79 H 0.68845 0.45644 0.80878 0.0
H80 H 0.75612 0.45625 0.86953 0.0
H81 H 0.81411 0.48611 0.90256 0.0
H82 H 0.7988 0.40076 0.98586 0.0
H83 H 0.74113 0.37065 0.95327 0.0
H84 H 0.6798 0.30465 0.94501 0.0
H85 H 0.64959 0.24673 0.97186 0.0
H86 H 0.56435 0.23413 0.88406 0.0
H87 H 0.59445 0.29269 0.85662 0.0
N88 N 0.64423 0.35592 0.85246 0.0
N89 N 0.69383 0.40674 0.85774 0.0
N90 N 0.6903 0.35873 0.90046 0.0
C91 C 0.66179 0.38924 0.83952 0.0
C92 C 0.70834 0.39173 0.88826 0.0
C93 C 0.65841 0.34041 0.88308 0.0
C94 C 0.64629 0.40686 0.80594 0.0
C95 C 0.61408 0.38941 0.78538 0.0
C96 C 0.59989 0.40628 0.75423 0.0
C97 C 0.61731 0.44121 0.74267 0.0
C98 C 0.64943 0.45864 0.76306 0.0
C99 C 0.66369 0.4418 0.79404 0.0
C100 C 0.74359 0.4108 0.90844 0.0
C101 C 0.76492 0.44377 0.89491 0.0
C102 C 0.79818 0.46096 0.91381 0.0
C103 C 0.81092 0.44575 0.9468 0.0
C104 C 0.78963 0.41309 0.96055 0.0
C105 C 0.75653 0.39586 0.94168 0.0
C106 C 0.63972 0.30396 0.8984 0.0
C107 C 0.65474 0.28976 0.93096 0.0
C108 C 0.75013 0.66931 0.4599 0.0
C109 C 0.72827 0.63763 0.44472 0.0
C110 C 0.74106 0.62357 0.41025 0.0
C111 C 0.77508 0.64076 0.39157 0.0
H112 H 0.84307 0.65287 0.28207 0.0
H113 H 0.86727 0.62266 0.22715 0.0
H114 H 0.98173 0.66324 0.26422 0.0
H115 H 0.95757 0.69518 0.3183 0.0
H116 H 0.96204 0.77455 0.3883 0.0
H117 H 0.98988 0.8316 0.42042 0.0
H118 H 0.87784 0.84646 0.45121 0.0
H119 H 0.85019 0.7895 0.42067 0.0
H120 H 0.79972 0.71092 0.45407 0.0
H121 H 0.74094 0.68082 0.48631 0.0
H122 H 0.72467 0.59928 0.39778 0.0
H123 H 0.78404 0.62911 0.36516 0.0
N124 N 0.84878 0.67686 0.35621 0.0
N125 N 0.90122 0.72562 0.35477 0.0
N126 N 0.85205 0.72354 0.40124 0.0
C127 C 0.88261 0.69355 0.33965 0.0
C128 C 0.88566 0.74105 0.38544 0.0
C129 C 0.83347 0.69142 0.38735 0.0
C130 C 0.89825 0.67654 0.30499 0.0
C131 C 0.87347 0.65572 0.27845 0.0
C132 C 0.88734 0.63835 0.24682 0.0
C133 C 0.92651 0.6401 0.24118 0.0
C134 C 0.95142 0.66123 0.26748 0.0
C135 C 0.93754 0.67956 0.29856 0.0
C136 C 0.90376 0.77705 0.40188 0.0
C137 C 0.94335 0.79008 0.4017 0.0
C138 C 0.95932 0.82275 0.42021 0.0
C139 C 0.9361 0.84369 0.43858 0.0
C140 C 0.89659 0.83108 0.43764 0.0
C141 C 0.88077 0.79827 0.42002 0.0
C142 C 0.79703 0.67265 0.40672 0.0
C143 C 0.78388 0.68658 0.44121 0.0
C144 C 0.59859 0.88096 0.86698 0.0
C145 C 0.59318 0.88531 0.90702 0.0
C146 C 0.60586 0.86256 0.9331 0.0
C147 C 0.62504 0.83663 0.91941 0.0
H148 H 0.70766 0.77719 0.95267 0.0
H149 H 0.75469 0.75313 0.98886 0.0
H150 H 0.76133 0.67865 0.8958 0.0
H151 H 0.71473 0.70254 0.85946 0.0
H152 H 0.72606 0.74655 0.76864 0.0
H153 H 0.78071 0.76558 0.72461 0.0
H154 H 0.77016 0.87505 0.73829 0.0
H155 H 0.71499 0.85627 0.7811 0.0
H156 H 0.62254 0.85312 0.82221 0.0
H157 H 0.58872 0.89815 0.84647 0.0
H158 H 0.60171 0.86549 0.96413 0.0
H159 H 0.63536 0.82013 0.94035 0.0
N160 N 0.66673 0.7846 0.88932 0.0
N161 N 0.70346 0.7667 0.83904 0.0
N162 N 0.67016 0.81174 0.82791 0.0
C163 C 0.69018 0.76331 0.87622 0.0
C164 C 0.69386 0.79085 0.81476 0.0
C165 C 0.65579 0.8083 0.86488 0.0
C166 C 0.70785 0.74195 0.90309 0.0
C167 C 0.7179 0.75466 0.9407 0.0
C168 C 0.74487 0.74108 0.96133 0.0
C169 C 0.76159 0.71441 0.94472 0.0
C170 C 0.74869 0.69926 0.909 0.0
C171 C 0.72208 0.71294 0.88831 0.0
C172 C 0.71671 0.80001 0.77881 0.0
C173 C 0.73443 0.77449 0.76091 0.0
C174 C 0.76565 0.78528 0.73586 0.0
C175 C 0.77999 0.82175 0.7293 0.0
C176 C 0.75972 0.84681 0.74352 0.0
C177 C 0.72803 0.83598 0.76784 0.0
C178 C 0.63205 0.83314 0.87935 0.0
C179 C 0.61799 0.85522 0.85326 0.0
C180 C 0.8301 0.18753 0.29779 0.0
C181 C 0.80935 0.20578 0.27412 0.0
C182 C 0.81001 0.24198 0.28111 0.0
C183 C 0.82845 0.25894 0.31355 0.0
H184 H 0.80916 0.33506 0.38942 0.0
H185 H 0.76087 0.36666 0.4124 0.0
H186 H 0.77403 0.33308 0.52968 0.0
H187 H 0.82243 0.30085 0.50705 0.0
H188 H 0.85118 0.2256 0.51453 0.0
H189 H 0.86704 0.17764 0.55331 0.0
H190 H 0.95294 0.16506 0.46844 0.0
H191 H 0.93607 0.21204 0.42862 0.0
H192 H 0.86251 0.18906 0.34931 0.0
H193 H 0.82988 0.15956 0.2926 0.0
H194 H 0.79422 0.25641 0.26288 0.0
H195 H 0.82647 0.28628 0.31962 0.0
N196 N 0.84039 0.28091 0.39284 0.0
N197 N 0.86034 0.27163 0.45559 0.0
N198 N 0.87501 0.23677 0.40338 0.0
C199 C 0.84231 0.28992 0.43107 0.0
C200 C 0.87742 0.24551 0.4417 0.0
C201 C 0.85652 0.25438 0.37871 0.0
C202 C 0.81925 0.31489 0.4463 0.0
C203 C 0.80239 0.3348 0.42024 0.0
C204 C 0.77482 0.35294 0.43326 0.0
C205 C 0.76371 0.35165 0.47251 0.0
C206 C 0.78228 0.33408 0.4992 0.0
C207 C 0.80995 0.31581 0.48618 0.0
C208 C 0.89237 0.22235 0.46858 0.0
C209 C 0.87407 0.21322 0.50462 0.0
C210 C 0.88297 0.18579 0.52671 0.0
C211 C 0.91101 0.16784 0.51357 0.0
C212 C 0.93116 0.17864 0.47891 0.0
C213 C 0.92157 0.20541 0.45631 0.0
C214 C 0.8465 0.23989 0.33943 0.0
C215 C 0.84879 0.20454 0.33012 0.0
C216 C 0.25099 0.62986 0.19166 0.0
C217 C 0.23681 0.64549 0.1598 0.0
C218 C 0.25689 0.67883 0.14659 0.0
C219 C 0.29026 0.69626 0.16481 0.0
H220 H 0.36125 0.79114 0.16734 0.0
H221 H 0.39075 0.84779 0.13729 0.0
H222 H 0.49196 0.85064 0.2026 0.0
H223 H 0.46242 0.79333 0.2334 0.0
H224 H 0.45204 0.72856 0.30781 0.0
H225 H 0.47629 0.69961 0.36264 0.0
H226 H 0.38333 0.60915 0.35249 0.0
H227 H 0.35885 0.63763 0.29808 0.0
H228 H 0.29444 0.63444 0.23444 0.0
H229 H 0.23602 0.60417 0.20246 0.0
H230 H 0.24658 0.69151 0.12217 0.0
H231 H 0.30471 0.72197 0.15363 0.0
N232 N 0.35844 0.73265 0.2031 0.0
N233 N 0.40562 0.73581 0.25001 0.0
N234 N 0.35526 0.68541 0.24669 0.0
C235 C 0.3909 0.75096 0.21944 0.0
C236 C 0.38782 0.7029 0.264 0.0
C237 C 0.34035 0.70001 0.21617 0.0
C238 C 0.40932 0.78704 0.20299 0.0
C239 C 0.38976 0.8036 0.17575 0.0
C240 C 0.40657 0.83633 0.15844 0.0
C241 C 0.44362 0.8538 0.16753 0.0
C242 C 0.46326 0.83786 0.19511 0.0
C243 C 0.44629 0.80498 0.21274 0.0
C244 C 0.4033 0.68571 0.29794 0.0
C245 C 0.43662 0.70253 0.31715 0.0
C246 C 0.45059 0.68594 0.34869 0.0
C247 C 0.43177 0.65199 0.36206 0.0
C248 C 0.39851 0.63525 0.34307 0.0
C249 C 0.38454 0.65176 0.31167 0.0
C250 C 0.30466 0.68086 0.19688 0.0
C251 C 0.28448 0.64728 0.20996 0.0
C252 C 0.12549 0.27975 0.6515 0.0
C253 C 0.11119 0.25005 0.67531 0.0
C254 C 0.11162 0.25547 0.71596 0.0
C255 C 0.12614 0.28946 0.73219 0.0
H256 H 0.0927 0.39454 0.79756 0.0
H257 H 0.06843 0.42601 0.85178 0.0
H258 H 0.18294 0.47503 0.88224 0.0
H259 H 0.20717 0.44508 0.82703 0.0
H260 H 0.26529 0.46428 0.74406 0.0
H261 H 0.32443 0.49333 0.71047 0.0
H262 H 0.30189 0.41551 0.61836 0.0
H263 H 0.24325 0.38622 0.6515 0.0
H264 H 0.15272 0.3352 0.64831 0.0
H265 H 0.12542 0.27674 0.62017 0.0
H266 H 0.10094 0.23326 0.73521 0.0
H267 H 0.1265 0.29248 0.76351 0.0
N268 N 0.14806 0.36842 0.7576 0.0
N269 N 0.19981 0.41767 0.75406 0.0
N270 N 0.19359 0.37222 0.70703 0.0
C271 C 0.16707 0.40045 0.77232 0.0
C272 C 0.21326 0.40384 0.72126 0.0
C273 C 0.16133 0.35408 0.72489 0.0
C274 C 0.15202 0.41726 0.80748 0.0
C275 C 0.11278 0.41186 0.8159 0.0
C276 C 0.09881 0.42993 0.84707 0.0
C277 C 0.12362 0.45331 0.87152 0.0
C278 C 0.16291 0.45752 0.86401 0.0
C279 C 0.17681 0.4403 0.83222 0.0
C280 C 0.24912 0.42266 0.70078 0.0
C281 C 0.27275 0.45335 0.71659 0.0
C282 C 0.30667 0.47008 0.69737 0.0
C283 C 0.31774 0.45678 0.66168 0.0
C284 C 0.29408 0.42643 0.64572 0.0
C285 C 0.26041 0.40962 0.66492 0.0
C286 C 0.1417 0.31877 0.70828 0.0
C287 C 0.14104 0.31334 0.6677 0.0
Gd288 Gd 0.02462 0.0641 0.52316 0.0
Gd289 Gd 0.02103 1.02567 0.59986 0.0
C290 C 0.05295 0.10987 0.60262 0.0
C291 C 0.02267 0.10868 0.46808 0.0
C292 C 0.0505 0.14098 0.45646 0.0
C293 C 0.06682 0.14237 0.41905 0.0
C294 C 0.06534 0.16758 0.48379 0.0
C295 C 0.11525 0.19344 0.43785 0.0
C296 C 0.09734 0.19391 0.47436 0.0
C297 C 0.09905 0.16827 0.40989 0.0
C298 C 0.08811 1.03967 0.54025 0.0
C299 C 0.99361 0.98014 0.51981 0.0
C300 C 0.02211 0.98076 0.6549 0.0
C301 C 0.99383 0.94852 0.66608 0.0
C302 C 0.97391 0.94844 0.70153 0.0
C303 C 0.98243 0.92025 0.6396 0.0
C304 C 0.92864 0.89553 0.68151 0.0
C305 C 0.95013 0.89375 0.64743 0.0
C306 C 0.94144 0.92226 0.70909 0.0
C307 C 0.9578 0.05045 0.58293 0.0
O308 O 0.03939 0.11004 0.56705 0.0
O309 O 0.05438 0.07942 0.61999 0.0
O310 O 0.0344 0.07888 0.46281 0.0
O311 O 1.00469 0.10978 0.50139 0.0
O312 O 0.07497 1.04049 0.50564 0.0
O313 O 0.06792 0.0536 0.56326 0.0
O314 O 1.00778 0.98008 0.55518 0.0
O315 O 0.99111 1.0106 0.50312 0.0
O316 O 1.01087 1.01079 0.66021 0.0
O317 O 0.04028 0.97969 0.62172 0.0
O318 O 0.97082 0.04932 0.61753 0.0
O319 O 0.97777 1.03627 0.55993 0.0
H320 H 0.05594 0.12214 0.39761 0.0
H321 H 0.05344 0.16712 0.51297 0.0
H322 H 0.10926 0.21346 0.49608 0.0
H323 H 0.11229 0.16781 0.3814 0.0
H324 H 0.98217 0.96983 0.72242 0.0
H325 H 0.99723 0.91948 0.61202 0.0
H326 H 0.94083 0.87295 0.62614 0.0
H327 H 0.92537 0.92371 0.73577 0.0
Gd328 Gd 0.56016 0.0493 0.05884 0.0
Gd329 Gd 0.48192 1.04038 1.03271 0.0
C330 C 0.50271 0.08819 0.10862 0.0
C331 C 0.63023 0.07573 0.07516 0.0
C332 C 0.65431 0.0948 0.106 0.0
C333 C 0.65895 0.07814 0.14135 0.0
C334 C 0.67504 0.12957 0.09887 0.0
C335 C 0.70498 0.13052 0.16141 0.0
C336 C 0.70009 0.14736 0.12645 0.0
C337 C 0.68417 0.09591 0.16886 0.0
C338 C 0.51564 0.98665 0.08516 0.0
C339 C 0.53792 0.99693 0.98803 0.0
C340 C 0.4128 1.01852 1.01036 0.0
C341 C 0.39071 0.98802 0.98916 0.0
C342 C 0.36309 0.99406 0.96346 0.0
C343 C 0.39781 0.95347 0.99277 0.0
C344 C 0.35081 0.93186 0.9439 0.0
C345 C 0.37777 0.92542 0.97031 0.0
C346 C 0.34331 0.96617 0.94092 0.0
C347 C 0.52746 0.10212 1.00664 0.0
O348 O 0.53739 0.08249 0.10442 0.0
O349 O 0.47516 0.07259 0.08573 0.0
O350 O 0.61368 1.04245 0.08144 0.0
O351 O 0.60867 0.09359 0.057 0.0
O352 O 0.55178 0.99215 0.07771 0.0
O353 O 0.5057 1.01659 0.08268 0.0
O354 O 0.50257 0.9989 0.99615 0.0
O355 O 0.56638 1.01873 1.0046 0.0
O356 O 0.43866 1.03999 0.98985 0.0
O357 O 0.42432 1.01222 1.04489 0.0
O358 O 0.49264 0.09893 1.01855 0.0
O359 O 0.53649 0.07175 1.00788 0.0
H360 H 0.64355 0.05127 0.1476 0.0
H361 H 0.67224 0.14281 0.07169 0.0
H362 H 0.71594 0.17412 0.12042 0.0
H363 H 0.68766 0.08266 0.19584 0.0
H364 H 0.35736 1.02054 0.96028 0.0
H365 H 0.41917 0.94835 1.01239 0.0
H366 H 0.38391 0.89904 0.97271 0.0
H367 H 0.32261 0.97146 0.92055 0.0
Gd368 Gd 0.52044 0.51411 0.52911 0.0
Gd369 Gd 0.52633 0.57793 0.57664 0.0
C370 C 0.55868 0.51625 0.61549 0.0
C371 C 0.53558 0.46023 0.49084 0.0
C372 C 0.56592 0.44006 0.49285 0.0
C373 C 0.57954 0.42703 0.45844 0.0
C374 C 0.58397 0.43669 0.52808 0.0
C375 C 0.6299 0.40918 0.49401 0.0
C376 C 0.61592 0.42148 0.52863 0.0
C377 C 0.61128 0.41153 0.45903 0.0
C378 C 0.45537 0.5152 0.57058 0.0
C379 C 0.48833 0.57638 0.49017 0.0
C380 C 0.51069 0.63257 0.61237 0.0
C381 C 0.48323 0.65455 0.60304 0.0
C382 C 0.47737 0.66332 0.56426 0.0
C383 C 0.4589 0.66249 0.63249 0.0
C384 C 0.4217 0.68519 0.58447 0.0
C385 C 0.42838 0.67782 0.62327 0.0
C386 C 0.44663 0.67843 0.55501 0.0
C387 C 0.59116 0.57674 0.53499 0.0
O388 O 0.55723 0.50324 0.57959 0.0
O389 O 0.54532 0.54509 0.62338 0.0
O390 O 0.51137 0.45685 0.52002 0.0
O391 O 0.54674 0.49327 0.47953 0.0
O392 O 0.45644 0.50341 0.53518 0.0
O393 O 0.48894 0.52462 0.58251 0.0
O394 O 0.49109 0.59022 0.52565 0.0
O395 O 0.50023 0.54667 0.48273 0.0
O396 O 0.53995 0.63478 0.5888 0.0
O397 O 0.49537 0.59972 0.62196 0.0
O398 O 0.59029 0.58801 0.57064 0.0
O399 O 0.55756 0.56751 0.52312 0.0
H400 H 0.56619 0.42968 0.43097 0.0
H401 H 0.57393 0.44638 0.55504 0.0
H402 H 0.63004 0.41975 0.55584 0.0
H403 H 0.62189 0.40212 0.4321 0.0
H404 H 0.49577 0.65749 0.54096 0.0
H405 H 0.46269 0.65558 0.66243 0.0
H406 H 0.40931 0.68305 0.64628 0.0
H407 H 0.44179 0.68413 0.52495 0.0
Gd408 Gd 0.02384 0.50921 0.07853 0.0
Gd409 Gd 0.02192 0.58247 1.03262 0.0
C410 C 0.09535 0.57814 0.08417 0.0
C411 C 0.04081 0.44959 0.09784 0.0
C412 C 0.07536 0.43488 0.09552 0.0
C413 C 0.084 0.41511 0.12692 0.0
C414 C 0.10124 0.44256 0.06404 0.0
C415 C 0.14456 0.412 0.09647 0.0
C416 C 0.13554 0.43086 0.06437 0.0
C417 C 0.11833 0.4038 0.12743 0.0
C418 C 0.98745 0.55321 0.12259 0.0
C419 C 0.95149 0.51287 1.02445 0.0
C420 C 1.00357 0.64194 1.01492 0.0
C421 C 0.96707 0.65261 1.00949 0.0
C422 C 0.93595 0.62846 0.99404 0.0
C423 C 0.96321 0.68726 1.01941 0.0
C424 C 0.89848 0.67419 0.9962 0.0
C425 C 0.92908 0.698 1.01287 0.0
C426 C 0.90196 0.63923 0.98733 0.0
C427 C 0.05912 0.53898 0.98878 0.0
O428 O 0.08261 0.5432 0.08806 0.0
O429 O 0.07651 0.59922 0.0658 0.0
O430 O 0.04235 0.47642 0.12196 0.0
O431 O 0.02444 0.45395 0.06508 0.0
O432 O 0.99152 0.52176 0.13311 0.0
O433 O 1.00207 0.55796 0.08874 0.0
O434 O 0.96442 0.54766 1.0196 0.0
O435 O 0.96973 0.49228 1.04439 0.0
O436 O 1.01248 0.61975 0.98898 0.0
O437 O 1.01101 0.63397 0.05044 0.0
O438 O 0.0543 0.5702 0.97816 0.0
O439 O 0.04418 0.53373 1.02251 0.0
H440 H 0.06454 0.40915 0.15153 0.0
H441 H 0.09532 0.45815 1.03968 0.0
H442 H 0.1554 0.43724 1.04015 0.0
H443 H 0.12477 0.38912 0.15233 0.0
H444 H 0.93812 0.60148 0.98643 0.0
H445 H 0.98678 0.70616 1.03161 0.0
H446 H 0.92681 0.72511 1.01981 0.0
H447 H 0.87865 0.62056 0.97439 0.0
C448 C 0.22124 0.23327 0.43131 0.0
C449 C 0.22236 0.252 0.39582 0.0
C450 C 0.15307 0.2427 0.39788 0.0
C451 C 0.15187 0.21802 0.42848 0.0
N452 N 0.18511 0.18744 0.4731 0.0
N453 N 0.18852 0.27081 0.34227 0.0
C454 C 0.18602 0.21304 0.44543 0.0
C455 C 0.18809 0.2563 0.37851 0.0
N456 N 0.2539 0.23476 0.45132 0.0
N457 N 0.12055 0.25271 0.38711 0.0
H458 H 0.21323 0.27994 0.32594 0.0
H459 H 0.16397 0.27077 0.32677 0.0
H460 H 0.09447 0.24315 0.40108 0.0
H461 H 0.12026 0.27309 0.3673 0.0
H462 H 0.2544 0.22431 0.47912 0.0
H463 H 0.28005 0.24959 0.4416 0.0
H464 H 0.20938 0.17993 0.48309 0.0
H465 H 0.16006 0.1717 0.48412 0.0
C466 C 0.27363 0.86145 0.89843 0.0
C467 C 0.28777 0.86288 0.85965 0.0
C468 C 0.34793 0.90031 0.88014 0.0
C469 C 0.33149 0.90356 0.91734 0.0
N470 N 0.27945 0.88761 0.96313 0.0
N471 N 0.33742 0.88479 0.81233 0.0
C472 C 0.29467 0.88382 0.92705 0.0
C473 C 0.32495 0.88211 0.85023 0.0
N474 N 0.24019 0.83859 0.90768 0.0
N475 N 0.38547 0.9149 0.87343 0.0
H476 H 0.32178 0.87149 0.78948 0.0
H477 H 0.36221 0.90205 0.80299 0.0
H478 H 0.40292 0.92911 0.89454 0.0
H479 H 0.40019 0.91035 0.84821 0.0
H480 H 0.22973 0.83384 0.93597 0.0
H481 H 0.22429 0.82203 0.8871 0.0
H482 H 0.25122 0.87736 0.9708 0.0
H483 H 0.29485 0.90255 0.9852 0.0
C484 C 0.56637 0.47019 0.71372 0.0
C485 C 0.6019 0.45978 0.70961 0.0
C486 C 0.61082 0.4894 0.64533 0.0
C487 C 0.57381 0.4969 0.64794 0.0
N488 N 0.51324 0.48686 0.68175 0.0
N489 N 0.65456 0.45377 0.66773 0.0
C490 C 0.55076 0.48522 0.6814 0.0
C491 C 0.62312 0.46776 0.67426 0.0
N492 N 0.54794 0.46691 0.749 0.0
N493 N 0.63507 0.5044 0.61618 0.0
H494 H 0.66425 0.4377 0.68789 0.0
H495 H 0.66888 0.45528 0.64101 0.0
H496 H 0.62771 0.52159 0.59577 0.0
H497 H 0.66356 0.50288 0.61464 0.0
H498 H 0.52418 0.47764 0.75503 0.0
H499 H 0.55836 0.45637 0.77336 0.0
H500 H 0.49406 0.47519 0.70334 0.0
H501 H 0.50032 0.49664 0.65856 0.0
C502 C 0.92804 0.58109 0.20633 0.0
C503 C 0.94103 0.61877 0.20878 0.0
C504 C 0.98509 0.61473 0.1535 0.0
C505 C 0.96924 0.57761 0.14857 0.0
N506 N 0.91728 0.52875 0.16487 0.0
N507 N 0.9757 0.67213 0.17736 0.0
C508 C 0.93814 0.56191 0.17332 0.0
C509 C 0.96765 0.63578 0.18009 0.0
N510 N 0.90763 0.56298 0.23648 0.0
N511 N 1.0182 0.62976 0.13489 0.0
H512 H 0.96288 0.68837 0.19535 0.0
H513 H 0.99199 0.68577 0.15468 0.0
H514 H 0.03245 0.61531 0.11642 0.0
H515 H 0.03321 0.65554 0.14074 0.0
H516 H 0.90075 0.5352 0.23784 0.0
H517 H 0.90133 0.5754 0.2621 0.0
H518 H 0.89223 0.51748 0.17977 0.0
H519 H 0.92239 0.51437 0.14022 0.0
C520 C 0.4392 0.12997 0.17306 0.0
C521 C 0.46058 0.16526 0.17702 0.0
C522 C 0.51558 0.148 0.14511 0.0
C523 C 0.49325 0.11291 0.13939 0.0
N524 N 0.44112 0.06782 0.163 0.0
N525 N 0.52151 0.20544 0.17774 0.0
C526 C 0.45732 0.1031 0.15828 0.0
C527 C 0.49965 0.17345 0.16662 0.0
N528 N 0.40124 0.12229 0.18185 0.0
N529 N 0.55105 0.15787 0.12874 0.0
H530 H 0.51047 0.22466 0.1931 0.0
H531 H 0.55096 0.21171 0.17499 0.0
H532 H 0.56531 0.14046 0.11457 0.0
H533 H 0.56602 0.18421 0.12733 0.0
H534 H 0.38354 0.09787 0.17528 0.0
H535 H 0.38678 0.14116 0.19302 0.0
H536 H 0.4163 0.05875 0.17919 0.0
H537 H 0.45537 0.04782 0.1548 0.0
C538 C 0.14178 0.96375 0.54545 0.0
C539 C 0.14095 0.9601 0.58655 0.0
C540 C 0.12379 1.01813 0.59304 0.0
C541 C 0.11494 1.01736 0.55315 0.0
N542 N 0.12318 0.99311 0.48916 0.0
N543 N 0.12633 0.98241 0.64979 0.0
C544 C 0.12637 0.99134 0.52852 0.0
C545 C 0.13092 0.98704 0.61051 0.0
N546 N 0.15897 0.94203 0.52282 0.0
N547 N 0.12669 0.04898 0.61391 0.0
H548 H 0.12925 0.95914 0.66383 0.0
H549 H 0.11564 1.00018 0.66772 0.0
H550 H 0.12548 0.07312 0.60065 0.0
H551 H 0.13552 0.05148 0.64266 0.0
H552 H 0.1638 0.94545 0.49304 0.0
H553 H 0.17157 0.92233 0.53433 0.0
H554 H 0.12426 0.97179 0.47053 0.0
H555 H 0.12063 1.01636 0.47496 0.0
C556 C 0.84536 0.48241 1.00222 0.0
C557 C 0.84695 0.46355 0.96663 0.0
C558 C 0.91683 0.48028 0.9673 0.0
C559 C 0.91533 0.49601 1.00469 0.0
N560 N 0.87844 0.51026 0.05924 0.0
N561 N 0.88428 0.44003 0.91813 0.0
C562 C 0.8796 0.49657 1.02255 0.0
C563 C 0.88275 0.46127 0.94998 0.0
N564 N 0.81115 0.48779 1.01593 0.0
N565 N 0.95073 0.48479 0.94753 0.0
H566 H 0.8601 0.42604 0.90437 0.0
H567 H 0.90933 0.43392 0.90727 0.0
H568 H 0.97598 0.49938 0.95873 0.0
H569 H 0.95332 0.47719 0.91865 0.0
H570 H 0.80815 0.50439 1.03933 0.0
H571 H 0.78568 0.4777 1.00199 0.0
H572 H 0.85367 0.50804 0.0759 0.0
H573 H 0.90284 0.52211 0.07408 0.0
C574 C 0.68849 0.58706 0.4847 0.0
C575 C 0.69162 0.62002 0.46476 0.0
C576 C 0.62803 0.62408 0.48978 0.0
C577 C 0.62437 0.59047 0.50839 0.0
N578 N 0.64688 0.53616 0.51549 0.0
N579 N 0.66076 0.66548 0.44102 0.0
C580 C 0.65336 0.5708 0.50334 0.0
C581 C 0.66025 0.63719 0.46516 0.0
N582 N 0.71949 0.57196 0.48717 0.0
N583 N 0.60126 0.64406 0.49647 0.0
H584 H 0.68357 0.67552 0.42233 0.0
H585 H 0.63732 0.67681 0.43676 0.0
H586 H 0.57675 0.63514 0.51323 0.0
H587 H 0.60452 0.67048 0.48762 0.0
H588 H 0.72027 0.5501 0.50471 0.0
H589 H 0.7456 0.583 0.47409 0.0
H590 H 0.66558 0.51931 0.51011 0.0
H591 H 0.62096 0.52321 0.52766 0.0
C592 C 0.21301 0.35169 0.11296 0.0
C593 C 0.2467 0.37696 0.12173 0.0
C594 C 0.21514 0.42606 0.10738 0.0
C595 C 0.1815 0.40074 0.09874 0.0
N596 N 0.15178 0.34042 0.08196 0.0
N597 N 0.28316 0.43706 0.11699 0.0
C598 C 0.18171 0.36382 0.09758 0.0
C599 C 0.24885 0.41383 0.11526 0.0
N600 N 0.20979 0.31644 0.12184 0.0
N601 N 0.21438 0.4615 0.11047 0.0
H602 H 0.30822 0.42858 0.1226 0.0
H603 H 0.2873 0.46384 0.10923 0.0
H604 H 0.19034 0.4716 0.10489 0.0
H605 H 0.2368 0.48061 0.12116 0.0
H606 H 0.18433 0.29771 0.1205 0.0
H607 H 0.23176 0.30618 0.1334 0.0
H608 H 0.15178 0.31357 0.07697 0.0
H609 H 0.12851 0.3487 0.07039 0.0
C610 C 0.58903 0.16755 0.93342 0.0
C611 C 0.58506 0.20109 0.94898 0.0
C612 C 0.54832 0.16972 1.00429 0.0
C613 C 0.54926 0.13585 0.9871 0.0
N614 N 0.5632 0.10384 0.92976 0.0
N615 N 0.55505 0.23365 0.9958 0.0
C616 C 0.5679 0.13507 0.95025 0.0
C617 C 0.56301 0.20197 0.98344 0.0
N618 N 0.61341 0.16661 0.90274 0.0
N619 N 0.53443 0.17132 1.04132 0.0
H620 H 0.56543 0.25782 0.98166 0.0
H621 H 0.53543 0.23559 1.01789 0.0
H622 H 0.52359 0.14873 0.05781 0.0
H623 H 0.53688 0.19496 0.0571 0.0
H624 H 0.62087 0.14321 0.89283 0.0
H625 H 0.62858 0.18966 0.88922 0.0
H626 H 0.57299 0.10225 0.90126 0.0
H627 H 0.54581 0.08018 0.9394 0.0
C628 C 0.94458 0.88226 0.49989 0.0
C629 C 0.95254 0.87837 0.45956 0.0
C630 C 0.99152 0.93977 0.4601 0.0
C631 C 0.97941 0.9451 0.49895 0.0
N632 N 0.93694 0.92279 0.55241 0.0
N633 N 0.97809 0.90686 0.39967 0.0
C634 C 0.95394 0.91667 0.51794 0.0
C635 C 0.97456 0.9081 0.43923 0.0
N636 N 0.92915 0.85284 0.52151 0.0
N637 N 0.02044 0.96418 0.44344 0.0
H638 H 0.96549 0.88475 0.38319 0.0
H639 H 0.99035 0.92901 0.38298 0.0
H640 H 0.0345 0.98698 0.45792 0.0
H641 H 0.03309 0.9599 0.41684 0.0
H642 H 0.92622 0.85355 0.55168 0.0
H643 H 0.92308 0.8271 0.50986 0.0
H644 H 0.91511 0.90408 0.56533 0.0
H645 H 0.94162 0.94773 0.56596 0.0
C646 C 0.3188 0.6885 0.56886 0.0
C647 C 0.3199 0.72396 0.58141 0.0
C648 C 0.38935 0.73627 0.58034 0.0
C649 C 0.38776 0.69934 0.57543 0.0
N650 N 0.35228 0.63986 0.56278 0.0
N651 N 0.35578 0.78221 0.59968 0.0
C652 C 0.35287 0.67536 0.56825 0.0
C653 C 0.3551 0.74833 0.58643 0.0
N654 N 0.28507 0.66758 0.55796 0.0
N655 N 0.4237 0.75959 0.57962 0.0
H656 H 0.33143 0.79245 0.60399 0.0
H657 H 0.38032 0.79962 0.60866 0.0
H658 H 0.44925 0.75121 0.57556 0.0
H659 H 0.42675 0.78722 0.57938 0.0
H660 H 0.28249 0.64231 0.54564 0.0
H661 H 0.25988 0.67694 0.55827 0.0
H662 H 0.32754 0.62021 0.56186 0.0
H663 H 0.37696 0.62977 0.56067 0.0
C664 C 0.82316 0.85379 0.67711 0.0
C665 C 0.81864 0.83456 0.71249 0.0
C666 C 0.88766 0.84631 0.71921 0.0
C667 C 0.89154 0.87083 0.68813 0.0
N668 N 0.86253 0.90089 0.63928 0.0
N669 N 0.84669 0.81649 0.77048 0.0
C670 C 0.85924 0.87506 0.66709 0.0
C671 C 0.85093 0.83138 0.73424 0.0
N672 N 0.79292 0.85172 0.65326 0.0
N673 N 0.91919 0.83754 0.73449 0.0
H674 H 0.82043 0.80624 0.7836 0.0
H675 H 0.86926 0.81725 0.78914 0.0
H676 H 0.94653 0.84811 0.72389 0.0
H677 H 0.91792 0.81725 0.75479 0.0
H678 H 0.79524 0.8625 0.6254 0.0
H679 H 0.76618 0.83618 0.65996 0.0
H680 H 0.8393 0.90776 0.62614 0.0
H681 H 0.88828 0.91753 0.63145 0.0
C682 C 0.74346 0.17805 0.25397 0.0
C683 C 0.78298 0.18591 0.24525 0.0
C684 C 0.77156 0.15369 0.18349 0.0
C685 C 0.73191 0.1493 0.19042 0.0
N686 N 0.67979 0.16215 0.22905 0.0
N687 N 0.83482 0.18542 0.20014 0.0
C688 C 0.71773 0.16281 0.22481 0.0
C689 C 0.79715 0.17486 0.20955 0.0
N690 N 0.73058 0.18402 0.29057 0.0
N691 N 0.78471 0.13673 0.15269 0.0
H692 H 0.85438 0.20068 0.21876 0.0
H693 H 0.8462 0.18148 0.17281 0.0
H694 H 0.76677 0.12094 0.13303 0.0
H695 H 0.81315 0.13579 0.14844 0.0
H696 H 0.70251 0.17519 0.29976 0.0
H697 H 0.7485 0.19489 0.31299 0.0
H698 H 0.66839 0.1752 0.25152 0.0
H699 H 0.65994 0.15118 0.20829 0.0
C700 C 0.48089 0.62056 0.39073 0.0
C701 C 0.44689 0.63358 0.39544 0.0
C702 C 0.43816 0.60635 0.46098 0.0
C703 C 0.4738 0.59601 0.45753 0.0
N704 N 0.53307 0.60147 0.42186 0.0
N705 N 0.39723 0.6448 0.43861 0.0
C706 C 0.49623 0.60536 0.42311 0.0
C707 C 0.42674 0.62819 0.43166 0.0
N708 N 0.49807 0.62156 0.3549 0.0
N709 N 0.41421 0.5939 0.49134 0.0
H710 H 0.38822 0.66101 0.41813 0.0
H711 H 0.38412 0.64527 0.4658 0.0
H712 H 0.42082 0.57681 0.51231 0.0
H713 H 0.38639 0.59744 0.49353 0.0
H714 H 0.5204 0.6089 0.34862 0.0
H715 H 0.48786 0.63223 0.33051 0.0
H716 H 0.55202 0.61142 0.39938 0.0
H717 H 0.54597 0.59173 0.4451 0.0
C718 C 0.08407 0.45709 0.93386 0.0
C719 C 0.10863 0.47448 0.90373 0.0
C720 C 0.10813 0.53182 0.9369 0.0
C721 C 0.07849 0.51526 0.96298 0.0
N722 N 0.03346 0.46117 0.97973 0.0
N723 N 0.13679 0.53046 0.87289 0.0
C724 C 0.06533 0.47754 0.95992 0.0
C725 C 0.11872 0.51243 0.90432 0.0
N726 N 0.07918 0.42104 0.9384 0.0
N727 N 0.12726 0.56598 0.94364 0.0
H728 H 0.14328 0.51774 0.84754 0.0
H729 H 0.14137 0.55814 0.87033 0.0
H730 H 0.12212 0.58068 0.96801 0.0
H731 H 0.1513 0.57803 0.92759 0.0
H732 H 0.06463 0.4075 0.96213 0.0
H733 H 0.09304 0.40535 0.92077 0.0
H734 H 0.02042 0.43449 0.97547 0.0
H735 H 1.01789 0.47515 0.99729 0.0
C736 C 0.59605 0.95041 0.92066 0.0
C737 C 0.57554 0.91459 0.92209 0.0
C738 C 0.52633 0.93259 0.96297 0.0
C739 C 0.54665 0.96888 0.96099 0.0
N740 N 0.59299 1.01265 0.92603 0.0
N741 N 0.51639 0.87333 0.93433 0.0
C742 C 0.57904 0.97787 0.936 0.0
C743 C 0.539 0.90632 0.93977 0.0
N744 N 0.63243 0.95823 0.90626 0.0
N745 N 0.49674 0.92229 0.98871 0.0
H746 H 0.52503 0.85349 0.91766 0.0
H747 H 0.48792 0.86692 0.94292 0.0
H748 H 0.48684 0.9394 1.00792 0.0
H749 H 0.48427 0.89566 0.99412 0.0
H750 H 0.65002 0.98344 0.90867 0.0
H751 H 0.64621 0.93896 0.89489 0.0
H752 H 0.61446 1.02038 0.90521 0.0
H753 H 0.58003 1.03328 0.9351 0.0
C754 C 0.93007 0.13807 0.5727 0.0
C755 C 0.91678 0.13554 0.53408 0.0
C756 C 0.91854 0.07193 0.53239 0.0
C757 C 0.93391 0.0754 0.57019 0.0
N758 N 0.93251 0.10545 0.63193 0.0
N759 N 0.88663 0.09791 0.48212 0.0
C760 C 0.93287 0.10646 0.59232 0.0
C761 C 0.90735 0.10171 0.51533 0.0
N762 N 0.94153 0.17055 0.59021 0.0
N763 N 0.91446 1.04011 0.5131 0.0
H764 H 0.87684 0.11892 0.46962 0.0
H765 H 0.87614 0.07342 0.46885 0.0
H766 H 0.91721 1.01667 0.52696 0.0
H767 H 0.90874 1.03703 0.48358 0.0
H768 H 0.95492 0.17355 0.61699 0.0
H769 H 0.94093 0.1946 0.57648 0.0
H770 H 0.92925 0.12713 0.64917 0.0
H771 H 0.92973 0.08163 0.64722 0.0
C772 C 0.20179 0.61082 0.1035 0.0
C773 C 0.20061 0.62738 0.14056 0.0
C774 C 0.13095 0.60781 0.14217 0.0
C775 C 0.13182 0.59462 0.10352 0.0
N776 N 0.16763 0.58498 1.04623 0.0
N777 N 0.16363 0.64627 0.19267 0.0
C778 C 0.16719 0.59655 0.08386 0.0
C779 C 0.16503 0.6271 0.15921 0.0
N780 N 0.23601 0.60763 0.08771 0.0
N781 N 0.09772 0.60073 0.16324 0.0
H782 H 0.18783 0.66054 0.20618 0.0
H783 H 0.13846 0.65054 0.20528 0.0
H784 H 0.0725 0.58594 0.15217 0.0
H785 H 0.09586 0.60638 0.19278 0.0
H786 H 0.23893 0.59273 0.06286 0.0
H787 H 0.26173 0.61769 0.1012 0.0
H788 H 0.19185 0.58922 1.02849 0.0
H789 H 0.14304 0.57275 1.03193 0.0
C790 C 0.3847 0.45479 0.6392 0.0
C791 C 0.35459 0.47356 0.64134 0.0
C792 C 0.39445 0.5229 0.60411 0.0
C793 C 0.42201 0.50189 0.59725 0.0
N794 N 0.44257 0.44658 0.60647 0.0
N795 N 0.32931 0.52423 0.62219 0.0
C796 C 0.41695 0.46752 0.61445 0.0
C797 C 0.35918 0.50743 0.62302 0.0
N798 N 0.38303 0.42534 0.6619 0.0
N799 N 0.40238 0.55799 0.59343 0.0
H800 H 0.30314 0.51385 0.63552 0.0
H801 H 0.32945 0.54696 0.60571 0.0
H802 H 0.42812 0.57012 0.58029 0.0
H803 H 0.38526 0.57581 0.60107 0.0
H804 H 0.40564 0.41263 0.66498 0.0
H805 H 0.3602 0.41553 0.68065 0.0
H806 H 0.4382 0.41976 0.61408 0.0
H807 H 0.46731 0.45534 0.59001 0.0
C808 C 0.83207 0.72184 0.94294 0.0
C809 C 0.79674 0.70642 0.96094 0.0
C810 C 0.82916 0.67439 1.00636 0.0
C811 C 0.86366 0.68647 0.98525 0.0
N812 N 0.89696 0.71714 0.92967 0.0
N813 N 0.76043 0.66579 1.00742 0.0
C814 C 0.86492 0.70913 0.95261 0.0
C815 C 0.79492 0.68217 0.99219 0.0
N816 N 0.83432 0.74914 0.91701 0.0
N817 N 0.82937 0.65618 1.04034 0.0
H818 H 0.73497 0.67155 0.99823 0.0
H819 H 0.75679 0.6449 1.02724 0.0
H820 H 0.85397 0.65009 0.05145 0.0
H821 H 0.80597 0.64966 0.05909 0.0
H822 H 0.85991 0.76402 0.90616 0.0
H823 H 0.81086 0.75924 0.90902 0.0
H824 H 0.89803 0.73002 0.903 0.0
H825 H 0.92169 0.70821 0.93544 0.0
C826 C 0.45033 0.92024 0.15468 0.0
C827 C 0.46197 0.88776 0.14641 0.0
C828 C 0.50603 0.91898 0.0958 0.0
C829 C 0.49354 0.95173 0.10313 0.0
N830 N 0.44308 0.9776 0.13107 0.0
N831 N 0.49486 0.85448 0.10325 0.0
C832 C 0.46256 0.95068 0.13005 0.0
C833 C 0.48824 0.88674 0.11544 0.0
N834 N 0.42797 0.92236 0.18677 0.0
N835 N 0.53473 0.91806 0.06952 0.0
H836 H 0.48294 0.83044 0.11695 0.0
H837 H 0.50956 0.85096 0.07767 0.0
H838 H 0.54388 0.93756 1.04862 0.0
H839 H 0.54973 0.8976 0.06843 0.0
H840 H 0.42213 0.94631 0.1971 0.0
H841 H 0.41828 0.90075 0.20522 0.0
H842 H 0.41831 0.97648 0.14752 0.0
H843 H 0.44805 0.9987 0.11171 0.0
C844 C 0.1204 0.19741 0.63263 0.0
C845 C 0.09653 0.21342 0.65752 0.0
C846 C 0.04647 0.15875 0.65102 0.0
C847 C 0.06855 0.14496 0.62243 0.0
N848 N 0.12479 0.15415 0.58162 0.0
N849 N 0.03338 0.21144 0.68336 0.0
C850 C 0.10493 0.1653 0.61181 0.0
C851 C 0.05861 0.19457 0.66489 0.0
N852 N 0.1584 0.21178 0.63031 0.0
N853 N 1.014 0.1375 0.66538 0.0
H854 H 0.04049 0.23796 0.69251 0.0
H855 H 1.00448 0.20035 0.68592 0.0
H856 H 1.00447 0.11124 0.65613 0.0
H857 H 0.99862 0.14476 0.68894 0.0
H858 H 0.17776 0.19943 0.61571 0.0
H859 H 0.17123 0.23407 0.64641 0.0
H860 H 0.14937 0.16989 0.56959 0.0
H861 H 0.11513 0.13033 0.56661 0.0
C862 C 0.73393 0.40373 0.48705 0.0
C863 C 0.73033 0.36626 0.48445 0.0
C864 C 0.66183 0.35733 0.49675 0.0
C865 C 0.66483 0.39468 0.4939 0.0
N866 N 0.7027 0.45382 0.48374 0.0
N867 N 0.69092 0.30692 0.48326 0.0
C868 C 0.70067 0.41808 0.48867 0.0
C869 C 0.69434 0.34284 0.4888 0.0
N870 N 0.76921 0.42543 0.48831 0.0
N871 N 0.62791 0.3358 0.50721 0.0
H872 H 0.71403 0.29508 0.47779 0.0
H873 H 0.66495 0.28902 0.48135 0.0
H874 H 0.60333 0.34554 0.51247 0.0
H875 H 0.62479 0.30886 0.51384 0.0
H876 H 0.77389 0.45274 0.49389 0.0
H877 H 0.79407 0.41555 0.48711 0.0
H878 H 0.72741 0.47178 0.47551 0.0
H879 H 0.67893 0.46528 0.4853 0.0
loop_
_geom_bond_atom_site_label_1
_geom_bond_atom_site_label_2
_geom_bond_distance
_geom_bond_site_symmetry_2
_ccdc_geom_bond_type
C0 C1 1.384 . S
C0 H13 0.947 . S
C0 C35 1.382 . S
C1 C0 1.384 . S
C1 C2 1.378 . S
C2 C1 1.378 . S
C2 C3 1.378 . S
C2 H14 0.952 . S
C3 C2 1.378 . S
C3 H15 0.950 . S
C3 C34 1.383 . S
H4 C23 0.947 . S
H5 C24 0.946 . S
H6 C26 0.953 . S
H7 C27 0.945 . S
H8 C29 0.952 . S
H9 C30 0.949 . S
H10 C32 0.950 . S
H11 C33 0.948 . S
H12 C35 0.951 . S
H13 C0 0.947 . S
H14 C2 0.952 . S
H15 C3 0.950 . S
N16 C19 1.382 . S
N16 C21 1.363 . S
N17 C19 1.371 . S
N17 C20 1.372 . S
N18 C20 1.361 . S
N18 C21 1.377 . S
C19 N16 1.382 . S
C19 N17 1.371 . S
C19 C22 1.480 . S
C20 N17 1.372 . S
C20 N18 1.361 . S
C20 C28 1.457 . S
C21 N16 1.363 . S
C21 N18 1.377 . S
C21 C34 1.479 . S
C22 C19 1.480 . S
C22 C23 1.383 . S
C22 C27 1.385 . S
C23 H4 0.947 . S
C23 C22 1.383 . S
C23 C24 1.388 . S
C24 H5 0.946 . S
C24 C23 1.388 . S
C24 C25 1.384 . S
C25 C24 1.384 . S
C25 C26 1.377 . S
C26 H6 0.953 . S
C26 C25 1.377 . S
C26 C27 1.369 . S
C27 H7 0.945 . S
C27 C22 1.385 . S
C27 C26 1.369 . S
C28 C20 1.457 . S
C28 C29 1.372 . S
C28 C33 1.364 . S
C29 H8 0.952 . S
C29 C28 1.372 . S
C29 C30 1.389 . S
C30 H9 0.949 . S
C30 C29 1.389 . S
C30 C31 1.387 . S
C31 C30 1.387 . S
C31 C32 1.372 . S
C32 H10 0.950 . S
C32 C31 1.372 . S
C32 C33 1.379 . S
C33 H11 0.948 . S
C33 C28 1.364 . S
C33 C32 1.379 . S
C34 C3 1.383 . S
C34 C21 1.479 . S
C34 C35 1.398 . S
C35 C0 1.382 . S
C35 H12 0.951 . S
C35 C34 1.398 . S
C36 C37 1.384 . S
C36 H49 0.947 . S
C36 C71 1.382 . S
C37 C36 1.384 . S
C37 C38 1.378 . S
C38 C37 1.378 . S
C38 C39 1.378 . S
C38 H50 0.952 . S
C39 C38 1.378 . S
C39 H51 0.950 . S
C39 C70 1.383 . S
H40 C59 0.947 . S
H41 C60 0.946 . S
H42 C62 0.953 . S
H43 C63 0.945 . S
H44 C65 0.952 . S
H45 C66 0.949 . S
H46 C68 0.950 . S
H47 C69 0.948 . S
H48 C71 0.951 . S
H49 C36 0.947 . S
H50 C38 0.952 . S
H51 C39 0.950 . S
N52 C55 1.382 . S
N52 C57 1.363 . S
N53 C55 1.371 . S
N53 C56 1.372 . S
N54 C56 1.361 . S
N54 C57 1.377 . S
C55 N52 1.382 . S
C55 N53 1.371 . S
C55 C58 1.480 . S
C56 N53 1.372 . S
C56 N54 1.361 . S
C56 C64 1.457 . S
C57 N52 1.363 . S
C57 N54 1.377 . S
C57 C70 1.479 . S
C58 C55 1.480 . S
C58 C59 1.383 . S
C58 C63 1.385 . S
C59 H40 0.947 . S
C59 C58 1.383 . S
C59 C60 1.388 . S
C60 H41 0.946 . S
C60 C59 1.388 . S
C60 C61 1.384 . S
C61 C60 1.384 . S
C61 C62 1.377 . S
C62 H42 0.953 . S
C62 C61 1.377 . S
C62 C63 1.369 . S
C63 H43 0.945 . S
C63 C58 1.385 . S
C63 C62 1.369 . S
C64 C56 1.457 . S
C64 C65 1.372 . S
C64 C69 1.364 . S
C65 H44 0.952 . S
C65 C64 1.372 . S
C65 C66 1.389 . S
C66 H45 0.949 . S
C66 C65 1.389 . S
C66 C67 1.387 . S
C67 C66 1.387 . S
C67 C68 1.372 . S
C68 H46 0.950 . S
C68 C67 1.372 . S
C68 C69 1.379 . S
C69 H47 0.948 . S
C69 C64 1.364 . S
C69 C68 1.379 . S
C70 C39 1.383 . S
C70 C57 1.479 . S
C70 C71 1.398 . S
C71 C36 1.382 . S
C71 H48 0.951 . S
C71 C70 1.398 . S
C72 C73 1.384 . S
C72 H85 0.947 . S
C72 C107 1.382 . S
C73 C72 1.384 . S
C73 C74 1.378 . S
C74 C73 1.378 . S
C74 C75 1.378 . S
C74 H86 0.952 . S
C75 C74 1.378 . S
C75 H87 0.950 . S
C75 C106 1.383 . S
H76 C95 0.947 . S
H77 C96 0.946 . S
H78 C98 0.953 . S
H79 C99 0.945 . S
H80 C101 0.952 . S
H81 C102 0.949 . S
H82 C104 0.950 . S
H83 C105 0.948 . S
H84 C107 0.951 . S
H85 C72 0.947 . S
H86 C74 0.952 . S
H87 C75 0.950 . S
N88 C91 1.382 . S
N88 C93 1.363 . S
N89 C91 1.371 . S
N89 C92 1.372 . S
N90 C92 1.361 . S
N90 C93 1.377 . S
C91 N88 1.382 . S
C91 N89 1.371 . S
C91 C94 1.480 . S
C92 N89 1.372 . S
C92 N90 1.361 . S
C92 C100 1.457 . S
C93 N88 1.363 . S
C93 N90 1.377 . S
C93 C106 1.479 . S
C94 C91 1.480 . S
C94 C95 1.383 . S
C94 C99 1.385 . S
C95 H76 0.947 . S
C95 C94 1.383 . S
C95 C96 1.388 . S
C96 H77 0.946 . S
C96 C95 1.388 . S
C96 C97 1.384 . S
C97 C96 1.384 . S
C97 C98 1.377 . S
C98 H78 0.953 . S
C98 C97 1.377 . S
C98 C99 1.369 . S
C99 H79 0.945 . S
C99 C94 1.385 . S
C99 C98 1.369 . S
C100 C92 1.457 . S
C100 C101 1.372 . S
C100 C105 1.364 . S
C101 H80 0.952 . S
C101 C100 1.372 . S
C101 C102 1.389 . S
C102 H81 0.949 . S
C102 C101 1.389 . S
C102 C103 1.387 . S
C103 C102 1.387 . S
C103 C104 1.372 . S
C104 H82 0.950 . S
C104 C103 1.372 . S
C104 C105 1.379 . S
C105 H83 0.948 . S
C105 C100 1.364 . S
C105 C104 1.379 . S
C106 C75 1.383 . S
C106 C93 1.479 . S
C106 C107 1.398 . S
C107 C72 1.382 . S
C107 H84 0.951 . S
C107 C106 1.398 . S
C108 C109 1.384 . S
C108 H121 0.947 . S
C108 C143 1.382 . S
C109 C108 1.384 . S
C109 C110 1.378 . S
C110 C109 1.378 . S
C110 C111 1.378 . S
C110 H122 0.952 . S
C111 C110 1.378 . S
C111 H123 0.950 . S
C111 C142 1.383 . S
H112 C131 0.947 . S
H113 C132 0.946 . S
H114 C134 0.953 . S
H115 C135 0.945 . S
H116 C137 0.952 . S
H117 C138 0.949 . S
H118 C140 0.950 . S
H119 C141 0.948 . S
H120 C143 0.951 . S
H121 C108 0.947 . S
H122 C110 0.952 . S
H123 C111 0.950 . S
N124 C127 1.382 . S
N124 C129 1.363 . S
N125 C127 1.371 . S
N125 C128 1.372 . S
N126 C128 1.361 . S
N126 C129 1.377 . S
C127 N124 1.382 . S
C127 N125 1.371 . S
C127 C130 1.480 . S
C128 N125 1.372 . S
C128 N126 1.361 . S
C128 C136 1.457 . S
C129 N124 1.363 . S
C129 N126 1.377 . S
C129 C142 1.479 . S
C130 C127 1.480 . S
C130 C131 1.383 . S
C130 C135 1.385 . S
C131 H112 0.947 . S
C131 C130 1.383 . S
C131 C132 1.388 . S
C132 H113 0.946 . S
C132 C131 1.388 . S
C132 C133 1.384 . S
C133 C132 1.384 . S
C133 C134 1.377 . S
C134 H114 0.953 . S
C134 C133 1.377 . S
C134 C135 1.369 . S
C135 H115 0.945 . S
C135 C130 1.385 . S
C135 C134 1.369 . S
C136 C128 1.457 . S
C136 C137 1.372 . S
C136 C141 1.364 . S
C137 H116 0.952 . S
C137 C136 1.372 . S
C137 C138 1.389 . S
C138 H117 0.949 . S
C138 C137 1.389 . S
C138 C139 1.387 . S
C139 C138 1.387 . S
C139 C140 1.372 . S
C140 H118 0.950 . S
C140 C139 1.372 . S
C140 C141 1.379 . S
C141 H119 0.948 . S
C141 C136 1.364 . S
C141 C140 1.379 . S
C142 C111 1.383 . S
C142 C129 1.479 . S
C142 C143 1.398 . S
C143 C108 1.382 . S
C143 H120 0.951 . S
C143 C142 1.398 . S
C144 C145 1.384 . S
C144 H157 0.947 . S
C144 C179 1.382 . S
C145 C144 1.384 . S
C145 C146 1.378 . S
C146 C145 1.378 . S
C146 C147 1.378 . S
C146 H158 0.952 . S
C147 C146 1.378 . S
C147 H159 0.950 . S
C147 C178 1.383 . S
H148 C167 0.947 . S
H149 C168 0.946 . S
H150 C170 0.953 . S
H151 C171 0.945 . S
H152 C173 0.952 . S
H153 C174 0.949 . S
H154 C176 0.950 . S
H155 C177 0.948 . S
H156 C179 0.951 . S
H157 C144 0.947 . S
H158 C146 0.952 . S
H159 C147 0.950 . S
N160 C163 1.382 . S
N160 C165 1.363 . S
N161 C163 1.371 . S
N161 C164 1.372 . S
N162 C164 1.361 . S
N162 C165 1.377 . S
C163 N160 1.382 . S
C163 N161 1.371 . S
C163 C166 1.480 . S
C164 N161 1.372 . S
C164 N162 1.361 . S
C164 C172 1.457 . S
C165 N160 1.363 . S
C165 N162 1.377 . S
C165 C178 1.479 . S
C166 C163 1.480 . S
C166 C167 1.383 . S
C166 C171 1.385 . S
C167 H148 0.947 . S
C167 C166 1.383 . S
C167 C168 1.388 . S
C168 H149 0.946 . S
C168 C167 1.388 . S
C168 C169 1.384 . S
C169 C168 1.384 . S
C169 C170 1.377 . S
C170 H150 0.953 . S
C170 C169 1.377 . S
C170 C171 1.369 . S
C171 H151 0.945 . S
C171 C166 1.385 . S
C171 C170 1.369 . S
C172 C164 1.457 . S
C172 C173 1.372 . S
C172 C177 1.364 . S
C173 H152 0.952 . S
C173 C172 1.372 . S
C173 C174 1.389 . S
C174 H153 0.949 . S
C174 C173 1.389 . S
C174 C175 1.387 . S
C175 C174 1.387 . S
C175 C176 1.372 . S
C176 H154 0.950 . S
C176 C175 1.372 . S
C176 C177 1.379 . S
C177 H155 0.948 . S
C177 C172 1.364 . S
C177 C176 1.379 . S
C178 C147 1.383 . S
C178 C165 1.479 . S
C178 C179 1.398 . S
C179 C144 1.382 . S
C179 H156 0.951 . S
C179 C178 1.398 . S
C180 C181 1.384 . S
C180 H193 0.947 . S
C180 C215 1.382 . S
C181 C180 1.384 . S
C181 C182 1.378 . S
C182 C181 1.378 . S
C182 C183 1.378 . S
C182 H194 0.952 . S
C183 C182 1.378 . S
C183 H195 0.950 . S
C183 C214 1.383 . S
H184 C203 0.947 . S
H185 C204 0.946 . S
H186 C206 0.953 . S
H187 C207 0.945 . S
H188 C209 0.952 . S
H189 C210 0.949 . S
H190 C212 0.950 . S
H191 C213 0.948 . S
H192 C215 0.951 . S
H193 C180 0.947 . S
H194 C182 0.952 . S
H195 C183 0.950 . S
N196 C199 1.382 . S
N196 C201 1.363 . S
N197 C199 1.371 . S
N197 C200 1.372 . S
N198 C200 1.361 . S
N198 C201 1.377 . S
C199 N196 1.382 . S
C199 N197 1.371 . S
C199 C202 1.480 . S
C200 N197 1.372 . S
C200 N198 1.361 . S
C200 C208 1.457 . S
C201 N196 1.363 . S
C201 N198 1.377 . S
C201 C214 1.479 . S
C202 C199 1.480 . S
C202 C203 1.383 . S
C202 C207 1.385 . S
C203 H184 0.947 . S
C203 C202 1.383 . S
C203 C204 1.388 . S
C204 H185 0.946 . S
C204 C203 1.388 . S
C204 C205 1.384 . S
C205 C204 1.384 . S
C205 C206 1.377 . S
C206 H186 0.953 . S
C206 C205 1.377 . S
C206 C207 1.369 . S
C207 H187 0.945 . S
C207 C202 1.385 . S
C207 C206 1.369 . S
C208 C200 1.457 . S
C208 C209 1.372 . S
C208 C213 1.364 . S
C209 H188 0.952 . S
C209 C208 1.372 . S
C209 C210 1.389 . S
C210 H189 0.949 . S
C210 C209 1.389 . S
C210 C211 1.387 . S
C211 C210 1.387 . S
C211 C212 1.372 . S
C212 H190 0.950 . S
C212 C211 1.372 . S
C212 C213 1.379 . S
C213 H191 0.948 . S
C213 C208 1.364 . S
C213 C212 1.379 . S
C214 C183 1.383 . S
C214 C201 1.479 . S
C214 C215 1.398 . S
C215 C180 1.382 . S
C215 H192 0.951 . S
C215 C214 1.398 . S
C216 C217 1.384 . S
C216 H229 0.947 . S
C216 C251 1.382 . S
C217 C216 1.384 . S
C217 C218 1.378 . S
C218 C217 1.378 . S
C218 C219 1.378 . S
C218 H230 0.952 . S
C219 C218 1.378 . S
C219 H231 0.950 . S
C219 C250 1.383 . S
H220 C239 0.947 . S
H221 C240 0.946 . S
H222 C242 0.953 . S
H223 C243 0.945 . S
H224 C245 0.952 . S
H225 C246 0.949 . S
H226 C248 0.950 . S
H227 C249 0.948 . S
H228 C251 0.951 . S
H229 C216 0.947 . S
H230 C218 0.952 . S
H231 C219 0.950 . S
N232 C235 1.382 . S
N232 C237 1.363 . S
N233 C235 1.371 . S
N233 C236 1.372 . S
N234 C236 1.361 . S
N234 C237 1.377 . S
C235 N232 1.382 . S
C235 N233 1.371 . S
C235 C238 1.480 . S
C236 N233 1.372 . S
C236 N234 1.361 . S
C236 C244 1.457 . S
C237 N232 1.363 . S
C237 N234 1.377 . S
C237 C250 1.479 . S
C238 C235 1.480 . S
C238 C239 1.383 . S
C238 C243 1.385 . S
C239 H220 0.947 . S
C239 C238 1.383 . S
C239 C240 1.388 . S
C240 H221 0.946 . S
C240 C239 1.388 . S
C240 C241 1.384 . S
C241 C240 1.384 . S
C241 C242 1.377 . S
C242 H222 0.953 . S
C242 C241 1.377 . S
C242 C243 1.369 . S
C243 H223 0.945 . S
C243 C238 1.385 . S
C243 C242 1.369 . S
C244 C236 1.457 . S
C244 C245 1.372 . S
C244 C249 1.364 . S
C245 H224 0.952 . S
C245 C244 1.372 . S
C245 C246 1.389 . S
C246 H225 0.949 . S
C246 C245 1.389 . S
C246 C247 1.387 . S
C247 C246 1.387 . S
C247 C248 1.372 . S
C248 H226 0.950 . S
C248 C247 1.372 . S
C248 C249 1.379 . S
C249 H227 0.948 . S
C249 C244 1.364 . S
C249 C248 1.379 . S
C250 C219 1.383 . S
C250 C237 1.479 . S
C250 C251 1.398 . S
C251 C216 1.382 . S
C251 H228 0.951 . S
C251 C250 1.398 . S
C252 C253 1.384 . S
C252 H265 0.947 . S
C252 C287 1.382 . S
C253 C252 1.384 . S
C253 C254 1.378 . S
C254 C253 1.378 . S
C254 C255 1.378 . S
C254 H266 0.952 . S
C255 C254 1.378 . S
C255 H267 0.950 . S
C255 C286 1.383 . S
H256 C275 0.947 . S
H257 C276 0.946 . S
H258 C278 0.953 . S
H259 C279 0.945 . S
H260 C281 0.952 . S
H261 C282 0.949 . S
H262 C284 0.950 . S
H263 C285 0.948 . S
H264 C287 0.951 . S
H265 C252 0.947 . S
H266 C254 0.952 . S
H267 C255 0.950 . S
N268 C271 1.382 . S
N268 C273 1.363 . S
N269 C271 1.371 . S
N269 C272 1.372 . S
N270 C272 1.361 . S
N270 C273 1.377 . S
C271 N268 1.382 . S
C271 N269 1.371 . S
C271 C274 1.480 . S
C272 N269 1.372 . S
C272 N270 1.361 . S
C272 C280 1.457 . S
C273 N268 1.363 . S
C273 N270 1.377 . S
C273 C286 1.479 . S
C274 C271 1.480 . S
C274 C275 1.383 . S
C274 C279 1.385 . S
C275 H256 0.947 . S
C275 C274 1.383 . S
C275 C276 1.388 . S
C276 H257 0.946 . S
C276 C275 1.388 . S
C276 C277 1.384 . S
C277 C276 1.384 . S
C277 C278 1.377 . S
C278 H258 0.953 . S
C278 C277 1.377 . S
C278 C279 1.369 . S
C279 H259 0.945 . S
C279 C274 1.385 . S
C279 C278 1.369 . S
C280 C272 1.457 . S
C280 C281 1.372 . S
C280 C285 1.364 . S
C281 H260 0.952 . S
C281 C280 1.372 . S
C281 C282 1.389 . S
C282 H261 0.949 . S
C282 C281 1.389 . S
C282 C283 1.387 . S
C283 C282 1.387 . S
C283 C284 1.372 . S
C284 H262 0.950 . S
C284 C283 1.372 . S
C284 C285 1.379 . S
C285 H263 0.948 . S
C285 C280 1.364 . S
C285 C284 1.379 . S
C286 C255 1.383 . S
C286 C273 1.479 . S
C286 C287 1.398 . S
C287 C252 1.382 . S
C287 H264 0.951 . S
C287 C286 1.398 . S
Gd288 C291 2.818 . S
Gd288 O308 2.377 . S
Gd288 O310 2.448 . S
Gd288 O311 2.506 . S
Gd288 O312 2.435 1_545 S
Gd288 O313 2.717 1_545 S
Gd288 O315 2.395 1_445 S
Gd288 O319 2.327 1_455 S
Gd289 C300 2.818 . S
Gd289 O309 2.395 1_665 S
Gd289 O313 2.327 1_655 S
Gd289 O314 2.377 . S
Gd289 O316 2.448 . S
Gd289 O317 2.506 . S
Gd289 O318 2.435 1_565 S
Gd289 O319 2.717 1_565 S
C290 O308 1.240 . S
C290 O309 1.240 . S
C291 Gd288 2.818 . S
C291 C292 1.510 . S
C291 O310 1.249 . S
C291 O311 1.252 . S
C292 C291 1.510 . S
C292 C293 1.404 . S
C292 C294 1.352 . S
C293 C292 1.404 . S
C293 C297 1.389 . S
C293 H320 0.930 . S
C294 C292 1.352 . S
C294 C296 1.374 . S
C294 H321 0.931 . S
C295 C296 1.359 . S
C295 C297 1.364 . S
C296 C294 1.374 . S
C296 C295 1.359 . S
C296 H322 0.931 . S
C297 C293 1.389 . S
C297 C295 1.364 . S
C297 H323 0.931 . S
C298 O312 1.256 . S
C298 O313 1.257 . S
C299 O314 1.240 . S
C299 O315 1.240 . S
C300 Gd289 2.818 . S
C300 C301 1.510 . S
C300 O316 1.249 . S
C300 O317 1.252 . S
C301 C300 1.510 . S
C301 C302 1.404 . S
C301 C303 1.352 . S
C302 C301 1.404 . S
C302 C306 1.389 . S
C302 H324 0.930 . S
C303 C301 1.352 . S
C303 C305 1.374 . S
C303 H325 0.931 . S
C304 C305 1.359 . S
C304 C306 1.364 . S
C305 C303 1.374 . S
C305 C304 1.359 . S
C305 H326 0.931 . S
C306 C302 1.389 . S
C306 C304 1.364 . S
C306 H327 0.931 . S
C307 O318 1.256 . S
C307 O319 1.257 . S
O308 Gd288 2.377 . S
O308 C290 1.240 . S
O309 Gd289 2.395 1_445 S
O309 C290 1.240 . S
O310 Gd288 2.448 . S
O310 C291 1.249 . S
O311 Gd288 2.506 . S
O311 C291 1.252 . S
O312 Gd288 2.435 1_565 S
O312 C298 1.256 . S
O313 Gd288 2.717 1_565 S
O313 Gd289 2.327 1_455 S
O313 C298 1.257 . S
O314 Gd289 2.377 . S
O314 C299 1.240 . S
O315 Gd288 2.395 1_665 S
O315 C299 1.240 . S
O316 Gd289 2.448 . S
O316 C300 1.249 . S
O317 Gd289 2.506 . S
O317 C300 1.252 . S
O318 Gd289 2.435 1_545 S
O318 C307 1.256 . S
O319 Gd288 2.327 1_655 S
O319 Gd289 2.717 1_545 S
O319 C307 1.257 . S
H320 C293 0.930 . S
H321 C294 0.931 . S
H322 C296 0.931 . S
H323 C297 0.931 . S
H324 C302 0.930 . S
H325 C303 0.931 . S
H326 C305 0.931 . S
H327 C306 0.931 . S
Gd328 C331 2.818 1_565 S
Gd328 O348 2.377 1_565 S
Gd328 O350 2.448 1_565 S
Gd328 O351 2.506 1_565 S
Gd328 O352 2.435 . S
Gd328 O353 2.717 . S
Gd328 O355 2.395 1_554 S
Gd328 O359 2.327 1_564 S
Gd329 C340 2.818 1_545 S
Gd329 O349 2.395 1_556 S
Gd329 O353 2.327 1_546 S
Gd329 O354 2.377 1_545 S
Gd329 O356 2.448 1_545 S
Gd329 O357 2.506 1_545 S
Gd329 O358 2.435 . S
Gd329 O359 2.717 . S
C330 O348 1.240 . S
C330 O349 1.240 . S
C331 Gd328 2.818 1_545 S
C331 C332 1.510 . S
C331 O350 1.249 . S
C331 O351 1.252 . S
C332 C331 1.510 . S
C332 C333 1.404 . S
C332 C334 1.352 . S
C333 C332 1.404 . S
C333 C337 1.389 . S
C333 H360 0.930 . S
C334 C332 1.352 . S
C334 C336 1.374 . S
C334 H361 0.931 . S
C335 C336 1.359 . S
C335 C337 1.364 . S
C336 C334 1.374 . S
C336 C335 1.359 . S
C336 H362 0.931 . S
C337 C333 1.389 . S
C337 C335 1.364 . S
C337 H363 0.931 . S
C338 O352 1.256 . S
C338 O353 1.257 . S
C339 O354 1.240 . S
C339 O355 1.240 . S
C340 Gd329 2.818 1_565 S
C340 C341 1.510 . S
C340 O356 1.249 . S
C340 O357 1.252 . S
C341 C340 1.510 . S
C341 C342 1.404 . S
C341 C343 1.352 . S
C342 C341 1.404 . S
C342 C346 1.389 . S
C342 H364 0.930 . S
C343 C341 1.352 . S
C343 C345 1.374 . S
C343 H365 0.931 . S
C344 C345 1.359 . S
C344 C346 1.364 . S
C345 C343 1.374 . S
C345 C344 1.359 . S
C345 H366 0.931 . S
C346 C342 1.389 . S
C346 C344 1.364 . S
C346 H367 0.931 . S
C347 O358 1.256 . S
C347 O359 1.257 . S
O348 Gd328 2.377 1_545 S
O348 C330 1.240 . S
O349 Gd329 2.395 1_554 S
O349 C330 1.240 . S
O350 Gd328 2.448 1_545 S
O350 C331 1.249 . S
O351 Gd328 2.506 1_545 S
O351 C331 1.252 . S
O352 Gd328 2.435 . S
O352 C338 1.256 . S
O353 Gd328 2.717 . S
O353 Gd329 2.327 1_564 S
O353 C338 1.257 . S
O354 Gd329 2.377 1_565 S
O354 C339 1.240 . S
O355 Gd328 2.395 1_556 S
O355 C339 1.240 . S
O356 Gd329 2.448 1_565 S
O356 C340 1.249 . S
O357 Gd329 2.506 1_565 S
O357 C340 1.252 . S
O358 Gd329 2.435 . S
O358 C347 1.256 . S
O359 Gd328 2.327 1_546 S
O359 Gd329 2.717 . S
O359 C347 1.257 . S
H360 C333 0.930 . S
H361 C334 0.931 . S
H362 C336 0.931 . S
H363 C337 0.931 . S
H364 C342 0.930 . S
H365 C343 0.931 . S
H366 C345 0.931 . S
H367 C346 0.931 . S
Gd368 C371 2.818 . S
Gd368 O388 2.377 . S
Gd368 O390 2.448 . S
Gd368 O391 2.506 . S
Gd368 O392 2.435 . S
Gd368 O393 2.717 . S
Gd368 O395 2.395 . S
Gd368 O399 2.327 . S
Gd369 C380 2.818 . S
Gd369 O389 2.395 . S
Gd369 O393 2.327 . S
Gd369 O394 2.377 . S
Gd369 O396 2.448 . S
Gd369 O397 2.506 . S
Gd369 O398 2.435 . S
Gd369 O399 2.717 . S
C370 O388 1.240 . S
C370 O389 1.240 . S
C371 Gd368 2.818 . S
C371 C372 1.510 . S
C371 O390 1.249 . S
C371 O391 1.252 . S
C372 C371 1.510 . S
C372 C373 1.404 . S
C372 C374 1.352 . S
C373 C372 1.404 . S
C373 C377 1.389 . S
C373 H400 0.930 . S
C374 C372 1.352 . S
C374 C376 1.374 . S
C374 H401 0.931 . S
C375 C376 1.359 . S
C375 C377 1.364 . S
C376 C374 1.374 . S
C376 C375 1.359 . S
C376 H402 0.931 . S
C377 C373 1.389 . S
C377 C375 1.364 . S
C377 H403 0.931 . S
C378 O392 1.256 . S
C378 O393 1.257 . S
C379 O394 1.240 . S
C379 O395 1.240 . S
C380 Gd369 2.818 . S
C380 C381 1.510 . S
C380 O396 1.249 . S
C380 O397 1.252 . S
C381 C380 1.510 . S
C381 C382 1.404 . S
C381 C383 1.352 . S
C382 C381 1.404 . S
C382 C386 1.389 . S
C382 H404 0.930 . S
C383 C381 1.352 . S
C383 C385 1.374 . S
C383 H405 0.931 . S
C384 C385 1.359 . S
C384 C386 1.364 . S
C385 C383 1.374 . S
C385 C384 1.359 . S
C385 H406 0.931 . S
C386 C382 1.389 . S
C386 C384 1.364 . S
C386 H407 0.931 . S
C387 O398 1.256 . S
C387 O399 1.257 . S
O388 Gd368 2.377 . S
O388 C370 1.240 . S
O389 Gd369 2.395 . S
O389 C370 1.240 . S
O390 Gd368 2.448 . S
O390 C371 1.249 . S
O391 Gd368 2.506 . S
O391 C371 1.252 . S
O392 Gd368 2.435 . S
O392 C378 1.256 . S
O393 Gd368 2.717 . S
O393 Gd369 2.327 . S
O393 C378 1.257 . S
O394 Gd369 2.377 . S
O394 C379 1.240 . S
O395 Gd368 2.395 . S
O395 C379 1.240 . S
O396 Gd369 2.448 . S
O396 C380 1.249 . S
O397 Gd369 2.506 . S
O397 C380 1.252 . S
O398 Gd369 2.435 . S
O398 C387 1.256 . S
O399 Gd368 2.327 . S
O399 Gd369 2.717 . S
O399 C387 1.257 . S
H400 C373 0.930 . S
H401 C374 0.931 . S
H402 C376 0.931 . S
H403 C377 0.931 . S
H404 C382 0.930 . S
H405 C383 0.931 . S
H406 C385 0.931 . S
H407 C386 0.931 . S
Gd408 C411 2.818 . S
Gd408 O428 2.377 . S
Gd408 O430 2.448 . S
Gd408 O431 2.506 . S
Gd408 O432 2.435 1_455 S
Gd408 O433 2.717 1_455 S
Gd408 O435 2.398 1_455 S
Gd408 O439 2.327 1_554 S
Gd409 C420 2.818 . S
Gd409 O429 2.396 1_656 S
Gd409 O433 2.327 1_556 S
Gd409 O434 2.376 . S
Gd409 O436 2.448 . S
Gd409 O437 2.505 . S
Gd409 O438 2.436 1_655 S
Gd409 O439 2.718 1_655 S
C410 O428 1.240 . S
C410 O429 1.240 . S
C411 Gd408 2.818 . S
C411 C412 1.510 . S
C411 O430 1.249 . S
C411 O431 1.252 . S
C412 C411 1.510 . S
C412 C413 1.404 . S
C412 C414 1.352 . S
C413 C412 1.404 . S
C413 C417 1.389 . S
C413 H440 0.930 . S
C414 C412 1.352 . S
C414 C416 1.374 . S
C414 H441 0.931 . S
C415 C416 1.359 . S
C415 C417 1.364 . S
C416 C414 1.374 . S
C416 C415 1.359 . S
C416 H442 0.931 . S
C417 C413 1.389 . S
C417 C415 1.364 . S
C417 H443 0.931 . S
C418 O432 1.256 . S
C418 O433 1.257 . S
C419 O434 1.240 . S
C419 O435 1.237 1_556 S
C420 Gd409 2.818 . S
C420 C421 1.510 . S
C420 O436 1.249 . S
C420 O437 1.252 . S
C421 C420 1.510 . S
C421 C422 1.404 . S
C421 C423 1.352 . S
C422 C421 1.404 . S
C422 C426 1.389 . S
C422 H444 0.930 . S
C423 C421 1.352 . S
C423 C425 1.374 . S
C423 H445 0.931 . S
C424 C425 1.359 . S
C424 C426 1.364 . S
C425 C423 1.374 . S
C425 C424 1.359 . S
C425 H446 0.931 . S
C426 C422 1.389 . S
C426 C424 1.364 . S
C426 H447 0.931 . S
C427 O438 1.256 . S
C427 O439 1.257 . S
O428 Gd408 2.377 . S
O428 C410 1.240 . S
O429 Gd409 2.396 1_454 S
O429 C410 1.240 . S
O430 Gd408 2.448 . S
O430 C411 1.249 . S
O431 Gd408 2.506 . S
O431 C411 1.252 . S
O432 Gd408 2.435 1_655 S
O432 C418 1.256 . S
O433 Gd408 2.717 1_655 S
O433 Gd409 2.327 1_554 S
O433 C418 1.257 . S
O434 Gd409 2.376 . S
O434 C419 1.240 . S
O435 Gd408 2.398 1_655 S
O435 C419 1.237 1_554 S
O436 Gd409 2.448 . S
O436 C420 1.249 . S
O437 Gd409 2.505 . S
O437 C420 1.252 . S
O438 Gd409 2.436 1_455 S
O438 C427 1.256 . S
O439 Gd408 2.327 1_556 S
O439 Gd409 2.718 1_455 S
O439 C427 1.257 . S
H440 C413 0.930 . S
H441 C414 0.931 . S
H442 C416 0.931 . S
H443 C417 0.931 . S
H444 C422 0.930 . S
H445 C423 0.931 . S
H446 C425 0.931 . S
H447 C426 0.931 . S
C448 C449 1.363 . S
C448 C454 1.379 . S
C448 N456 1.356 . S
C449 C448 1.363 . S
C449 C455 1.363 . S
C450 C451 1.363 . S
C450 C455 1.379 . S
C450 N457 1.356 . S
C451 C450 1.363 . S
C451 C454 1.363 . S
N452 C454 1.356 . S
N452 H464 0.984 . S
N452 H465 0.985 . S
N453 C455 1.356 . S
N453 H458 0.984 . S
N453 H459 0.985 . S
C454 C448 1.379 . S
C454 C451 1.363 . S
C454 N452 1.356 . S
C455 C449 1.363 . S
C455 C450 1.379 . S
C455 N453 1.356 . S
N456 C448 1.356 . S
N456 H462 0.984 . S
N456 H463 0.984 . S
N457 C450 1.356 . S
N457 H460 0.984 . S
N457 H461 0.985 . S
H458 N453 0.984 . S
H459 N453 0.985 . S
H460 N457 0.984 . S
H461 N457 0.985 . S
H462 N456 0.984 . S
H463 N456 0.984 . S
H464 N452 0.984 . S
H465 N452 0.985 . S
C466 C467 1.363 . S
C466 C472 1.379 . S
C466 N474 1.356 . S
C467 C466 1.363 . S
C467 C473 1.363 . S
C468 C469 1.363 . S
C468 C473 1.379 . S
C468 N475 1.356 . S
C469 C468 1.363 . S
C469 C472 1.363 . S
N470 C472 1.356 . S
N470 H482 0.984 . S
N470 H483 0.985 . S
N471 C473 1.356 . S
N471 H476 0.984 . S
N471 H477 0.985 . S
C472 C466 1.379 . S
C472 C469 1.363 . S
C472 N470 1.356 . S
C473 C467 1.363 . S
C473 C468 1.379 . S
C473 N471 1.356 . S
N474 C466 1.356 . S
N474 H480 0.984 . S
N474 H481 0.984 . S
N475 C468 1.356 . S
N475 H478 0.984 . S
N475 H479 0.985 . S
H476 N471 0.984 . S
H477 N471 0.985 . S
H478 N475 0.984 . S
H479 N475 0.985 . S
H480 N474 0.984 . S
H481 N474 0.984 . S
H482 N470 0.984 . S
H483 N470 0.985 . S
C484 C485 1.363 . S
C484 C490 1.379 . S
C484 N492 1.356 . S
C485 C484 1.363 . S
C485 C491 1.363 . S
C486 C487 1.363 . S
C486 C491 1.379 . S
C486 N493 1.356 . S
C487 C486 1.363 . S
C487 C490 1.363 . S
N488 C490 1.356 . S
N488 H500 0.984 . S
N488 H501 0.985 . S
N489 C491 1.356 . S
N489 H494 0.984 . S
N489 H495 0.985 . S
C490 C484 1.379 . S
C490 C487 1.363 . S
C490 N488 1.356 . S
C491 C485 1.363 . S
C491 C486 1.379 . S
C491 N489 1.356 . S
N492 C484 1.356 . S
N492 H498 0.984 . S
N492 H499 0.984 . S
N493 C486 1.356 . S
N493 H496 0.984 . S
N493 H497 0.985 . S
H494 N489 0.984 . S
H495 N489 0.985 . S
H496 N493 0.984 . S
H497 N493 0.985 . S
H498 N492 0.984 . S
H499 N492 0.984 . S
H500 N488 0.984 . S
H501 N488 0.985 . S
C502 C503 1.363 . S
C502 C508 1.379 . S
C502 N510 1.356 . S
C503 C502 1.363 . S
C503 C509 1.363 . S
C504 C505 1.363 . S
C504 C509 1.379 . S
C504 N511 1.356 . S
C505 C504 1.363 . S
C505 C508 1.363 . S
N506 C508 1.356 . S
N506 H518 0.984 . S
N506 H519 0.985 . S
N507 C509 1.356 . S
N507 H512 0.984 . S
N507 H513 0.985 . S
C508 C502 1.379 . S
C508 C505 1.363 . S
C508 N506 1.356 . S
C509 C503 1.363 . S
C509 C504 1.379 . S
C509 N507 1.356 . S
N510 C502 1.356 . S
N510 H516 0.984 . S
N510 H517 0.984 . S
N511 C504 1.356 . S
N511 H514 0.984 . S
N511 H515 0.985 . S
H512 N507 0.984 . S
H513 N507 0.985 . S
H514 N511 0.984 . S
H515 N511 0.985 . S
H516 N510 0.984 . S
H517 N510 0.984 . S
H518 N506 0.984 . S
H519 N506 0.985 . S
C520 C521 1.363 . S
C520 C526 1.379 . S
C520 N528 1.356 . S
C521 C520 1.363 . S
C521 C527 1.363 . S
C522 C523 1.363 . S
C522 C527 1.379 . S
C522 N529 1.356 . S
C523 C522 1.363 . S
C523 C526 1.363 . S
N524 C526 1.356 . S
N524 H536 0.984 . S
N524 H537 0.985 . S
N525 C527 1.356 . S
N525 H530 0.984 . S
N525 H531 0.985 . S
C526 C520 1.379 . S
C526 C523 1.363 . S
C526 N524 1.356 . S
C527 C521 1.363 . S
C527 C522 1.379 . S
C527 N525 1.356 . S
N528 C520 1.356 . S
N528 H534 0.984 . S
N528 H535 0.984 . S
N529 C522 1.356 . S
N529 H532 0.984 . S
N529 H533 0.985 . S
H530 N525 0.984 . S
H531 N525 0.985 . S
H532 N529 0.984 . S
H533 N529 0.985 . S
H534 N528 0.984 . S
H535 N528 0.984 . S
H536 N524 0.984 . S
H537 N524 0.985 . S
C538 C539 1.363 . S
C538 C544 1.379 . S
C538 N546 1.356 . S
C539 C538 1.363 . S
C539 C545 1.363 . S
C540 C541 1.363 . S
C540 C545 1.379 . S
C540 N547 1.356 . S
C541 C540 1.363 . S
C541 C544 1.363 . S
N542 C544 1.356 . S
N542 H554 0.984 . S
N542 H555 0.985 . S
N543 C545 1.356 . S
N543 H548 0.984 . S
N543 H549 0.985 . S
C544 C538 1.379 . S
C544 C541 1.363 . S
C544 N542 1.356 . S
C545 C539 1.363 . S
C545 C540 1.379 . S
C545 N543 1.356 . S
N546 C538 1.356 . S
N546 H552 0.984 . S
N546 H553 0.984 . S
N547 C540 1.356 . S
N547 H550 0.984 . S
N547 H551 0.985 . S
H548 N543 0.984 . S
H549 N543 0.985 . S
H550 N547 0.984 . S
H551 N547 0.985 . S
H552 N546 0.984 . S
H553 N546 0.984 . S
H554 N542 0.984 . S
H555 N542 0.985 . S
C556 C557 1.363 . S
C556 C562 1.379 . S
C556 N564 1.356 . S
C557 C556 1.363 . S
C557 C563 1.363 . S
C558 C559 1.363 . S
C558 C563 1.379 . S
C558 N565 1.356 . S
C559 C558 1.363 . S
C559 C562 1.363 . S
N560 C562 1.356 . S
N560 H572 0.984 . S
N560 H573 0.985 . S
N561 C563 1.356 . S
N561 H566 0.984 . S
N561 H567 0.985 . S
C562 C556 1.379 . S
C562 C559 1.363 . S
C562 N560 1.356 . S
C563 C557 1.363 . S
C563 C558 1.379 . S
C563 N561 1.356 . S
N564 C556 1.356 . S
N564 H570 0.984 . S
N564 H571 0.984 . S
N565 C558 1.356 . S
N565 H568 0.984 . S
N565 H569 0.985 . S
H566 N561 0.984 . S
H567 N561 0.985 . S
H568 N565 0.984 . S
H569 N565 0.985 . S
H570 N564 0.984 . S
H571 N564 0.984 . S
H572 N560 0.984 . S
H573 N560 0.985 . S
C574 C575 1.363 . S
C574 C580 1.379 . S
C574 N582 1.356 . S
C575 C574 1.363 . S
C575 C581 1.363 . S
C576 C577 1.363 . S
C576 C581 1.379 . S
C576 N583 1.356 . S
C577 C576 1.363 . S
C577 C580 1.363 . S
N578 C580 1.356 . S
N578 H590 0.984 . S
N578 H591 0.985 . S
N579 C581 1.356 . S
N579 H584 0.984 . S
N579 H585 0.985 . S
C580 C574 1.379 . S
C580 C577 1.363 . S
C580 N578 1.356 . S
C581 C575 1.363 . S
C581 C576 1.379 . S
C581 N579 1.356 . S
N582 C574 1.356 . S
N582 H588 0.984 . S
N582 H589 0.984 . S
N583 C576 1.356 . S
N583 H586 0.984 . S
N583 H587 0.985 . S
H584 N579 0.984 . S
H585 N579 0.985 . S
H586 N583 0.984 . S
H587 N583 0.985 . S
H588 N582 0.984 . S
H589 N582 0.984 . S
H590 N578 0.984 . S
H591 N578 0.985 . S
C592 C593 1.363 . S
C592 C598 1.379 . S
C592 N600 1.356 . S
C593 C592 1.363 . S
C593 C599 1.363 . S
C594 C595 1.363 . S
C594 C599 1.379 . S
C594 N601 1.356 . S
C595 C594 1.363 . S
C595 C598 1.363 . S
N596 C598 1.356 . S
N596 H608 0.984 . S
N596 H609 0.985 . S
N597 C599 1.356 . S
N597 H602 0.984 . S
N597 H603 0.985 . S
C598 C592 1.379 . S
C598 C595 1.363 . S
C598 N596 1.356 . S
C599 C593 1.363 . S
C599 C594 1.379 . S
C599 N597 1.356 . S
N600 C592 1.356 . S
N600 H606 0.984 . S
N600 H607 0.984 . S
N601 C594 1.356 . S
N601 H604 0.984 . S
N601 H605 0.985 . S
H602 N597 0.984 . S
H603 N597 0.985 . S
H604 N601 0.984 . S
H605 N601 0.985 . S
H606 N600 0.984 . S
H607 N600 0.984 . S
H608 N596 0.984 . S
H609 N596 0.985 . S
C610 C611 1.363 . S
C610 C616 1.379 . S
C610 N618 1.356 . S
C611 C610 1.363 . S
C611 C617 1.363 . S
C612 C613 1.363 . S
C612 C617 1.379 . S
C612 N619 1.356 . S
C613 C612 1.363 . S
C613 C616 1.363 . S
N614 C616 1.356 . S
N614 H626 0.984 . S
N614 H627 0.985 . S
N615 C617 1.356 . S
N615 H620 0.984 . S
N615 H621 0.985 . S
C616 C610 1.379 . S
C616 C613 1.363 . S
C616 N614 1.356 . S
C617 C611 1.363 . S
C617 C612 1.379 . S
C617 N615 1.356 . S
N618 C610 1.356 . S
N618 H624 0.984 . S
N618 H625 0.984 . S
N619 C612 1.356 . S
N619 H622 0.984 . S
N619 H623 0.985 1_556 S
H620 N615 0.984 . S
H621 N615 0.985 . S
H622 N619 0.984 . S
H623 N619 0.985 1_554 S
H624 N618 0.984 . S
H625 N618 0.984 . S
H626 N614 0.984 . S
H627 N614 0.985 . S
C628 C629 1.363 . S
C628 C634 1.379 . S
C628 N636 1.356 . S
C629 C628 1.363 . S
C629 C635 1.363 . S
C630 C631 1.363 . S
C630 C635 1.379 . S
C630 N637 1.356 . S
C631 C630 1.363 . S
C631 C634 1.363 . S
N632 C634 1.356 . S
N632 H644 0.984 . S
N632 H645 0.985 . S
N633 C635 1.356 . S
N633 H638 0.984 . S
N633 H639 0.985 . S
C634 C628 1.379 . S
C634 C631 1.363 . S
C634 N632 1.356 . S
C635 C629 1.363 . S
C635 C630 1.379 . S
C635 N633 1.356 . S
N636 C628 1.356 . S
N636 H642 0.984 . S
N636 H643 0.984 . S
N637 C630 1.356 . S
N637 H640 0.984 . S
N637 H641 0.985 . S
H638 N633 0.984 . S
H639 N633 0.985 . S
H640 N637 0.984 . S
H641 N637 0.985 . S
H642 N636 0.984 . S
H643 N636 0.984 . S
H644 N632 0.984 . S
H645 N632 0.985 . S
C646 C647 1.363 . S
C646 C652 1.379 . S
C646 N654 1.356 . S
C647 C646 1.363 . S
C647 C653 1.363 . S
C648 C649 1.363 . S
C648 C653 1.379 . S
C648 N655 1.356 . S
C649 C648 1.363 . S
C649 C652 1.363 . S
N650 C652 1.356 . S
N650 H662 0.984 . S
N650 H663 0.985 . S
N651 C653 1.356 . S
N651 H656 0.984 . S
N651 H657 0.985 . S
C652 C646 1.379 . S
C652 C649 1.363 . S
C652 N650 1.356 . S
C653 C647 1.363 . S
C653 C648 1.379 . S
C653 N651 1.356 . S
N654 C646 1.356 . S
N654 H660 0.984 . S
N654 H661 0.984 . S
N655 C648 1.356 . S
N655 H658 0.984 . S
N655 H659 0.985 . S
H656 N651 0.984 . S
H657 N651 0.985 . S
H658 N655 0.984 . S
H659 N655 0.985 . S
H660 N654 0.984 . S
H661 N654 0.984 . S
H662 N650 0.984 . S
H663 N650 0.985 . S
C664 C665 1.363 . S
C664 C670 1.379 . S
C664 N672 1.356 . S
C665 C664 1.363 . S
C665 C671 1.363 . S
C666 C667 1.363 . S
C666 C671 1.379 . S
C666 N673 1.356 . S
C667 C666 1.363 . S
C667 C670 1.363 . S
N668 C670 1.356 . S
N668 H680 0.984 . S
N668 H681 0.985 . S
N669 C671 1.356 . S
N669 H674 0.984 . S
N669 H675 0.985 . S
C670 C664 1.379 . S
C670 C667 1.363 . S
C670 N668 1.356 . S
C671 C665 1.363 . S
C671 C666 1.379 . S
C671 N669 1.356 . S
N672 C664 1.356 . S
N672 H678 0.984 . S
N672 H679 0.984 . S
N673 C666 1.356 . S
N673 H676 0.984 . S
N673 H677 0.985 . S
H674 N669 0.984 . S
H675 N669 0.985 . S
H676 N673 0.984 . S
H677 N673 0.985 . S
H678 N672 0.984 . S
H679 N672 0.984 . S
H680 N668 0.984 . S
H681 N668 0.985 . S
C682 C683 1.363 . S
C682 C688 1.379 . S
C682 N690 1.356 . S
C683 C682 1.363 . S
C683 C689 1.363 . S
C684 C685 1.363 . S
C684 C689 1.379 . S
C684 N691 1.356 . S
C685 C684 1.363 . S
C685 C688 1.363 . S
N686 C688 1.356 . S
N686 H698 0.984 . S
N686 H699 0.985 . S
N687 C689 1.356 . S
N687 H692 0.984 . S
N687 H693 0.985 . S
C688 C682 1.379 . S
C688 C685 1.363 . S
C688 N686 1.356 . S
C689 C683 1.363 . S
C689 C684 1.379 . S
C689 N687 1.356 . S
N690 C682 1.356 . S
N690 H696 0.984 . S
N690 H697 0.984 . S
N691 C684 1.356 . S
N691 H694 0.984 . S
N691 H695 0.985 . S
H692 N687 0.984 . S
H693 N687 0.985 . S
H694 N691 0.984 . S
H695 N691 0.985 . S
H696 N690 0.984 . S
H697 N690 0.984 . S
H698 N686 0.984 . S
H699 N686 0.985 . S
C700 C701 1.363 . S
C700 C706 1.379 . S
C700 N708 1.356 . S
C701 C700 1.363 . S
C701 C707 1.363 . S
C702 C703 1.363 . S
C702 C707 1.379 . S
C702 N709 1.356 . S
C703 C702 1.363 . S
C703 C706 1.363 . S
N704 C706 1.356 . S
N704 H716 0.984 . S
N704 H717 0.985 . S
N705 C707 1.356 . S
N705 H710 0.984 . S
N705 H711 0.985 . S
C706 C700 1.379 . S
C706 C703 1.363 . S
C706 N704 1.356 . S
C707 C701 1.363 . S
C707 C702 1.379 . S
C707 N705 1.356 . S
N708 C700 1.356 . S
N708 H714 0.984 . S
N708 H715 0.984 . S
N709 C702 1.356 . S
N709 H712 0.984 . S
N709 H713 0.985 . S
H710 N705 0.984 . S
H711 N705 0.985 . S
H712 N709 0.984 . S
H713 N709 0.985 . S
H714 N708 0.984 . S
H715 N708 0.984 . S
H716 N704 0.984 . S
H717 N704 0.985 . S
C718 C719 1.363 . S
C718 C724 1.379 . S
C718 N726 1.356 . S
C719 C718 1.363 . S
C719 C725 1.363 . S
C720 C721 1.363 . S
C720 C725 1.379 . S
C720 N727 1.356 . S
C721 C720 1.363 . S
C721 C724 1.363 . S
N722 C724 1.356 . S
N722 H734 0.984 . S
N722 H735 0.985 . S
N723 C725 1.356 . S
N723 H728 0.984 . S
N723 H729 0.985 . S
C724 C718 1.379 . S
C724 C721 1.363 . S
C724 N722 1.356 . S
C725 C719 1.363 . S
C725 C720 1.379 . S
C725 N723 1.356 . S
N726 C718 1.356 . S
N726 H732 0.984 . S
N726 H733 0.984 . S
N727 C720 1.356 . S
N727 H730 0.984 . S
N727 H731 0.985 . S
H728 N723 0.984 . S
H729 N723 0.985 . S
H730 N727 0.984 . S
H731 N727 0.985 . S
H732 N726 0.984 . S
H733 N726 0.984 . S
H734 N722 0.984 . S
H735 N722 0.985 . S
C736 C737 1.363 . S
C736 C742 1.379 . S
C736 N744 1.356 . S
C737 C736 1.363 . S
C737 C743 1.363 . S
C738 C739 1.363 . S
C738 C743 1.379 . S
C738 N745 1.356 . S
C739 C738 1.363 . S
C739 C742 1.363 . S
N740 C742 1.356 . S
N740 H752 0.984 . S
N740 H753 0.985 . S
N741 C743 1.356 . S
N741 H746 0.984 . S
N741 H747 0.985 . S
C742 C736 1.379 . S
C742 C739 1.363 . S
C742 N740 1.356 . S
C743 C737 1.363 . S
C743 C738 1.379 . S
C743 N741 1.356 . S
N744 C736 1.356 . S
N744 H750 0.984 . S
N744 H751 0.984 . S
N745 C738 1.356 . S
N745 H748 0.984 . S
N745 H749 0.985 . S
H746 N741 0.984 . S
H747 N741 0.985 . S
H748 N745 0.984 . S
H749 N745 0.985 . S
H750 N744 0.984 . S
H751 N744 0.984 . S
H752 N740 0.984 . S
H753 N740 0.985 . S
C754 C755 1.363 . S
C754 C760 1.379 . S
C754 N762 1.356 . S
C755 C754 1.363 . S
C755 C761 1.363 . S
C756 C757 1.363 . S
C756 C761 1.379 . S
C756 N763 1.356 . S
C757 C756 1.363 . S
C757 C760 1.363 . S
N758 C760 1.356 . S
N758 H770 0.984 . S
N758 H771 0.985 . S
N759 C761 1.356 . S
N759 H764 0.984 . S
N759 H765 0.985 . S
C760 C754 1.379 . S
C760 C757 1.363 . S
C760 N758 1.356 . S
C761 C755 1.363 . S
C761 C756 1.379 . S
C761 N759 1.356 . S
N762 C754 1.356 . S
N762 H768 0.984 . S
N762 H769 0.984 . S
N763 C756 1.356 . S
N763 H766 0.984 . S
N763 H767 0.985 . S
H764 N759 0.984 . S
H765 N759 0.985 . S
H766 N763 0.984 . S
H767 N763 0.985 . S
H768 N762 0.984 . S
H769 N762 0.984 . S
H770 N758 0.984 . S
H771 N758 0.985 . S
C772 C773 1.363 . S
C772 C778 1.379 . S
C772 N780 1.356 . S
C773 C772 1.363 . S
C773 C779 1.363 . S
C774 C775 1.363 . S
C774 C779 1.379 . S
C774 N781 1.356 . S
C775 C774 1.363 . S
C775 C778 1.363 . S
N776 C778 1.356 . S
N776 H788 0.984 . S
N776 H789 0.985 . S
N777 C779 1.356 . S
N777 H782 0.984 . S
N777 H783 0.985 . S
C778 C772 1.379 . S
C778 C775 1.363 . S
C778 N776 1.356 . S
C779 C773 1.363 . S
C779 C774 1.379 . S
C779 N777 1.356 . S
N780 C772 1.356 . S
N780 H786 0.984 . S
N780 H787 0.984 . S
N781 C774 1.356 . S
N781 H784 0.984 . S
N781 H785 0.985 . S
H782 N777 0.984 . S
H783 N777 0.985 . S
H784 N781 0.984 . S
H785 N781 0.985 . S
H786 N780 0.984 . S
H787 N780 0.984 . S
H788 N776 0.984 . S
H789 N776 0.985 . S
C790 C791 1.363 . S
C790 C796 1.379 . S
C790 N798 1.356 . S
C791 C790 1.363 . S
C791 C797 1.363 . S
C792 C793 1.363 . S
C792 C797 1.379 . S
C792 N799 1.356 . S
C793 C792 1.363 . S
C793 C796 1.363 . S
N794 C796 1.356 . S
N794 H806 0.984 . S
N794 H807 0.985 . S
N795 C797 1.356 . S
N795 H800 0.984 . S
N795 H801 0.985 . S
C796 C790 1.379 . S
C796 C793 1.363 . S
C796 N794 1.356 . S
C797 C791 1.363 . S
C797 C792 1.379 . S
C797 N795 1.356 . S
N798 C790 1.356 . S
N798 H804 0.984 . S
N798 H805 0.984 . S
N799 C792 1.356 . S
N799 H802 0.984 . S
N799 H803 0.985 . S
H800 N795 0.984 . S
H801 N795 0.985 . S
H802 N799 0.984 . S
H803 N799 0.985 . S
H804 N798 0.984 . S
H805 N798 0.984 . S
H806 N794 0.984 . S
H807 N794 0.985 . S
C808 C809 1.363 . S
C808 C814 1.379 . S
C808 N816 1.356 . S
C809 C808 1.363 . S
C809 C815 1.363 . S
C810 C811 1.363 . S
C810 C815 1.379 . S
C810 N817 1.356 . S
C811 C810 1.363 . S
C811 C814 1.363 . S
N812 C814 1.356 . S
N812 H824 0.984 . S
N812 H825 0.985 . S
N813 C815 1.356 . S
N813 H818 0.984 . S
N813 H819 0.985 . S
C814 C808 1.379 . S
C814 C811 1.363 . S
C814 N812 1.356 . S
C815 C809 1.363 . S
C815 C810 1.379 . S
C815 N813 1.356 . S
N816 C808 1.356 . S
N816 H822 0.984 . S
N816 H823 0.984 . S
N817 C810 1.356 . S
N817 H820 0.984 . S
N817 H821 0.985 . S
H818 N813 0.984 . S
H819 N813 0.985 . S
H820 N817 0.984 . S
H821 N817 0.985 . S
H822 N816 0.984 . S
H823 N816 0.984 . S
H824 N812 0.984 . S
H825 N812 0.985 . S
C826 C827 1.363 . S
C826 C832 1.379 . S
C826 N834 1.356 . S
C827 C826 1.363 . S
C827 C833 1.363 . S
C828 C829 1.363 . S
C828 C833 1.379 . S
C828 N835 1.356 . S
C829 C828 1.363 . S
C829 C832 1.363 . S
N830 C832 1.356 . S
N830 H842 0.984 . S
N830 H843 0.985 . S
N831 C833 1.356 . S
N831 H836 0.984 . S
N831 H837 0.985 . S
C832 C826 1.379 . S
C832 C829 1.363 . S
C832 N830 1.356 . S
C833 C827 1.363 . S
C833 C828 1.379 . S
C833 N831 1.356 . S
N834 C826 1.356 . S
N834 H840 0.984 . S
N834 H841 0.984 . S
N835 C828 1.356 . S
N835 H838 0.984 . S
N835 H839 0.985 . S
H836 N831 0.984 . S
H837 N831 0.985 . S
H838 N835 0.984 . S
H839 N835 0.985 . S
H840 N834 0.984 . S
H841 N834 0.984 . S
H842 N830 0.984 . S
H843 N830 0.985 . S
C844 C845 1.363 . S
C844 C850 1.379 . S
C844 N852 1.356 . S
C845 C844 1.363 . S
C845 C851 1.363 . S
C846 C847 1.363 . S
C846 C851 1.379 . S
C846 N853 1.356 . S
C847 C846 1.363 . S
C847 C850 1.363 . S
N848 C850 1.356 . S
N848 H860 0.984 . S
N848 H861 0.985 . S
N849 C851 1.356 . S
N849 H854 0.984 . S
N849 H855 0.985 . S
C850 C844 1.379 . S
C850 C847 1.363 . S
C850 N848 1.356 . S
C851 C845 1.363 . S
C851 C846 1.379 . S
C851 N849 1.356 . S
N852 C844 1.356 . S
N852 H858 0.984 . S
N852 H859 0.984 . S
N853 C846 1.356 . S
N853 H856 0.984 . S
N853 H857 0.985 1_455 S
H854 N849 0.984 . S
H855 N849 0.985 . S
H856 N853 0.984 . S
H857 N853 0.985 1_655 S
H858 N852 0.984 . S
H859 N852 0.984 . S
H860 N848 0.984 . S
H861 N848 0.985 . S
C862 C863 1.363 . S
C862 C868 1.379 . S
C862 N870 1.356 . S
C863 C862 1.363 . S
C863 C869 1.363 . S
C864 C865 1.363 . S
C864 C869 1.379 . S
C864 N871 1.356 . S
C865 C864 1.363 . S
C865 C868 1.363 . S
N866 C868 1.356 . S
N866 H878 0.984 . S
N866 H879 0.985 . S
N867 C869 1.356 . S
N867 H872 0.984 . S
N867 H873 0.985 . S
C868 C862 1.379 . S
C868 C865 1.363 . S
C868 N866 1.356 . S
C869 C863 1.363 . S
C869 C864 1.379 . S
C869 N867 1.356 . S
N870 C862 1.356 . S
N870 H876 0.984 . S
N870 H877 0.984 . S
N871 C864 1.356 . S
N871 H874 0.984 . S
N871 H875 0.985 . S
H872 N867 0.984 . S
H873 N867 0.985 . S
H874 N871 0.984 . S
H875 N871 0.985 . S
H876 N870 0.984 . S
H877 N870 0.984 . S
H878 N866 0.984 . S
H879 N866 0.985 . S
C449 C1 1.353 . S
C451 C295 1.421 . S
C467 C67 1.133 . S
C469 C344 1.124 . S
C487 C370 2.464 . S
C485 C97 2.491 . S
C503 C133 2.461 . S
C505 C418 2.401 . S
C523 C330 2.622 . S
C521 C25 2.474 . S
C541 C298 0.917 . S
C539 C37 0.936 . S
C559 C419 1.933 . S
C557 C103 1.981 . S
C577 C387 1.680 . S
C575 C109 1.698 . S
C593 C31 1.756 . S
C595 C415 1.852 . S
C613 C347 2.319 . S
C611 C73 2.406 . S
C629 C139 2.358 . S
C631 C299 2.353 . S
C647 C61 1.154 . S
C649 C384 1.189 . S
C667 C304 1.419 . S
C665 C175 1.276 . S
C683 C181 1.096 . S
C685 C335 1.110 . S
C701 C247 2.518 . S
C703 C379 2.485 . S
C719 C277 2.445 . S
C721 C427 2.388 . S
C737 C145 2.351 . S
C739 C339 2.611 . S
C757 C307 0.923 . S
C755 C211 0.931 . S
C775 C410 1.922 . S
C773 C217 1.949 . S
C793 C378 1.697 . S
C791 C283 1.708 . S
C809 C169 1.655 . S
C811 C424 1.845 . S
C829 C338 2.326 . S
C827 C241 2.410 . S
C847 C290 2.338 . S
C845 C253 2.349 . S
C863 C205 1.191 . S
C865 C375 1.197 . S
