# Generated by pormake.
# Topology hwx, (6,3)-cn, num edge types: 1
# Building blocks:
#     Node 0, Type 0, BuildingBlock: IZENUY_clean_sbu_0, # of connection points: 6
#     Node 1, Type 0, BuildingBlock: IZENUY_clean_sbu_0, # of connection points: 6
#     Node 2, Type 0, BuildingBlock: IZENUY_clean_sbu_0, # of connection points: 6
#     Node 3, Type 0, BuildingBlock: IZENUY_clean_sbu_0, # of connection points: 6
#     Node 4, Type 1, BuildingBlock: BELTOD_clean_linker_0, # of connection points: 3
#     Node 5, Type 1, BuildingBlock: BELTOD_clean_linker_0, # of connection points: 3
#     Node 6, Type 1, BuildingBlock: BELTOD_clean_linker_0, # of connection points: 3
#     Node 7, Type 1, BuildingBlock: BELTOD_clean_linker_0, # of connection points: 3
#     Node 8, Type 1, BuildingBlock: BELTOD_clean_linker_0, # of connection points: 3
#     Node 9, Type 1, BuildingBlock: BELTOD_clean_linker_0, # of connection points: 3
#     Node 10, Type 1, BuildingBlock: BELTOD_clean_linker_0, # of connection points: 3
#     Node 11, Type 1, BuildingBlock: BELTOD_clean_linker_0, # of connection points: 3
#     Edge 12, Type (0, 1), BuildingBlock: ZUJKAS_clean_linker_0, # of connection points: 2
#     Edge 13, Type (0, 1), BuildingBlock: ZUJKAS_clean_linker_0, # of connection points: 2
#     Edge 14, Type (0, 1), BuildingBlock: ZUJKAS_clean_linker_0, # of connection points: 2
#     Edge 15, Type (0, 1), BuildingBlock: ZUJKAS_clean_linker_0, # of connection points: 2
#     Edge 16, Type (0, 1), BuildingBlock: ZUJKAS_clean_linker_0, # of connection points: 2
#     Edge 17, Type (0, 1), BuildingBlock: ZUJKAS_clean_linker_0, # of connection points: 2
#     Edge 18, Type (0, 1), BuildingBlock: ZUJKAS_clean_linker_0, # of connection points: 2
#     Edge 19, Type (0, 1), BuildingBlock: ZUJKAS_clean_linker_0, # of connection points: 2
#     Edge 20, Type (0, 1), BuildingBlock: ZUJKAS_clean_linker_0, # of connection points: 2
#     Edge 21, Type (0, 1), BuildingBlock: ZUJKAS_clean_linker_0, # of connection points: 2
#     Edge 22, Type (0, 1), BuildingBlock: ZUJKAS_clean_linker_0, # of connection points: 2
#     Edge 23, Type (0, 1), BuildingBlock: ZUJKAS_clean_linker_0, # of connection points: 2
#     Edge 24, Type (0, 1), BuildingBlock: ZUJKAS_clean_linker_0, # of connection points: 2
#     Edge 25, Type (0, 1), BuildingBlock: ZUJKAS_clean_linker_0, # of connection points: 2
#     Edge 26, Type (0, 1), BuildingBlock: ZUJKAS_clean_linker_0, # of connection points: 2
#     Edge 27, Type (0, 1), BuildingBlock: ZUJKAS_clean_linker_0, # of connection points: 2
#     Edge 28, Type (0, 1), BuildingBlock: ZUJKAS_clean_linker_0, # of connection points: 2
#     Edge 29, Type (0, 1), BuildingBlock: ZUJKAS_clean_linker_0, # of connection points: 2
#     Edge 30, Type (0, 1), BuildingBlock: ZUJKAS_clean_linker_0, # of connection points: 2
#     Edge 31, Type (0, 1), BuildingBlock: ZUJKAS_clean_linker_0, # of connection points: 2
#     Edge 32, Type (0, 1), BuildingBlock: ZUJKAS_clean_linker_0, # of connection points: 2
#     Edge 33, Type (0, 1), BuildingBlock: ZUJKAS_clean_linker_0, # of connection points: 2
#     Edge 34, Type (0, 1), BuildingBlock: ZUJKAS_clean_linker_0, # of connection points: 2
#     Edge 35, Type (0, 1), BuildingBlock: ZUJKAS_clean_linker_0, # of connection points: 2
# Relax obj value: 0.046
# Max RMSD: 0.072
# Mean RMSD: 0.061
data_MOF--net-hwx--node1-IZENUY_clean_sbu_0--node2-BELTOD_clean_linker_0--edge1-ZUJKAS_clean_linker_0
_symmetry_space_group_name_H-M    P1
_symmetry_Int_Tables_number       1
_symmetry_cell_setting            triclinic
loop_
_symmetry_equiv_pos_as_xyz
'x, y, z'
_cell_length_a     67.978762
_cell_length_b     68.055522
_cell_length_c     32.483428
_cell_angle_alpha  89.46877
_cell_angle_beta   90.567896
_cell_angle_gamma 90.001372
loop_
_atom_site_label
_atom_site_type_symbol
_atom_site_fract_x
_atom_site_fract_y
_atom_site_fract_z
_atom_type_partial_charge
Fe0 Fe 0.23801 0.19689 0.04991 0.0
Fe1 Fe 0.23801 0.19621 0.9557 0.0
O2 O 0.23196 0.18496 0.0033 0.0
Fe3 Fe 0.21978 0.16189 0.00431 0.0
O4 O 0.20558 0.16705 0.05105 0.0
O5 O 0.21246 0.1979 0.06454 0.0
O6 O 0.23484 0.22187 0.02913 0.0
C7 C 0.2252 0.22812 0.99814 0.0
C8 C 0.24591 0.1568 0.06802 0.0
O9 O 0.22313 0.21762 0.96664 0.0
C10 C 0.24728 0.15805 0.93937 0.0
O11 O 0.26402 0.19672 0.03818 0.0
O12 O 0.26051 0.20808 0.97504 0.0
O13 O 0.23962 0.15059 0.03387 0.0
O14 O 0.2422 0.17414 0.07939 0.0
C15 C 0.20033 0.17998 0.9403 0.0
O16 O 0.25322 0.17557 0.94151 0.0
O17 O 0.23179 0.15263 0.95774 0.0
C18 C 0.27126 0.20439 0.00625 0.0
O19 O 0.21667 0.18644 0.92765 0.0
O20 O 0.19905 0.17154 0.97489 0.0
C21 C 0.20126 0.18323 0.06781 0.0
Fe22 Fe 0.25626 0.7079 0.54946 0.0
Fe23 Fe 0.27446 0.67296 0.50455 0.0
O24 O 0.26225 0.69596 0.50306 0.0
Fe25 Fe 0.25614 0.70702 0.4551 0.0
O26 O 0.27105 0.72841 0.46647 0.0
O27 O 0.25958 0.73289 0.52869 0.0
O28 O 0.28182 0.70877 0.56538 0.0
C29 C 0.2928 0.69395 0.56943 0.0
C30 C 0.22302 0.71544 0.50438 0.0
O31 O 0.28839 0.6779 0.5522 0.0
C32 C 0.24693 0.66881 0.4391 0.0
O33 O 0.2519 0.68504 0.57856 0.0
O34 O 0.25446 0.66169 0.53261 0.0
O35 O 0.23367 0.71894 0.47339 0.0
O36 O 0.23028 0.70793 0.53672 0.0
C37 C 0.29396 0.69106 0.44175 0.0
O38 O 0.26276 0.66378 0.45725 0.0
O39 O 0.24086 0.6863 0.44069 0.0
C40 C 0.24815 0.66775 0.56659 0.0
O41 O 0.29525 0.6828 0.47658 0.0
O42 O 0.27753 0.69716 0.42806 0.0
C43 C 0.26912 0.73902 0.4978 0.0
Fe44 Fe 0.76898 0.78981 0.96062 0.0
Fe45 Fe 0.76884 0.78941 0.05509 0.0
O46 O 0.7742 0.80148 0.00796 0.0
Fe47 Fe 0.7847 0.82526 0.00802 0.0
O48 O 0.76396 0.83543 0.97953 0.0
O49 O 0.76348 0.81266 0.93215 0.0
O50 O 0.74306 0.78839 0.97238 0.0
C51 C 0.73616 0.78011 0.00397 0.0
C52 C 0.80456 0.80615 0.94318 0.0
O53 O 0.74703 0.77648 0.03506 0.0
C54 C 0.80543 0.8082 0.07118 0.0
O55 O 0.77352 0.76479 0.98025 0.0
O56 O 0.78494 0.76904 0.043 0.0
O57 O 0.79898 0.82167 0.96092 0.0
O58 O 0.79461 0.79055 0.9459 0.0
C59 C 0.75717 0.82681 0.07289 0.0
O60 O 0.78968 0.80018 0.08351 0.0
O61 O 0.80608 0.81672 0.0366 0.0
C62 C 0.78329 0.75866 0.0112 0.0
O63 O 0.75235 0.80895 0.07048 0.0
O64 O 0.77241 0.83317 0.05508 0.0
C65 C 0.75844 0.82949 0.94465 0.0
Fe66 Fe 0.71123 0.33612 0.50773 0.0
Fe67 Fe 0.72903 0.30018 0.55232 0.0
O68 O 0.72264 0.3127 0.506 0.0
Fe69 Fe 0.72769 0.30186 0.45788 0.0
O70 O 0.73236 0.32523 0.43114 0.0
O71 O 0.73121 0.34752 0.47955 0.0
O72 O 0.72375 0.3438 0.55532 0.0
C73 C 0.73935 0.33768 0.57283 0.0
C74 C 0.69143 0.31738 0.44147 0.0
O75 O 0.74489 0.32014 0.56869 0.0
C76 C 0.71505 0.26954 0.50671 0.0
O77 O 0.6905 0.32634 0.53599 0.0
O78 O 0.70812 0.30969 0.58148 0.0
O79 O 0.70192 0.30211 0.44316 0.0
O80 O 0.69656 0.33275 0.4605 0.0
C81 C 0.7614 0.29257 0.50037 0.0
O82 O 0.71364 0.27932 0.53932 0.0
O83 O 0.724 0.27649 0.47582 0.0
C84 C 0.69189 0.31714 0.56978 0.0
O85 O 0.75109 0.2884 0.53153 0.0
O86 O 0.75381 0.30089 0.46923 0.0
C87 C 0.73693 0.34203 0.44466 0.0
P88 P 0.21631 0.50018 0.01217 0.0
H89 H 0.21681 0.48851 0.09852 0.0
H90 H 0.20911 0.50615 0.1615 0.0
H91 H 0.18867 0.55561 0.08825 0.0
H92 H 0.19538 0.53752 0.02587 0.0
H93 H 0.22845 0.46985 0.9563 0.0
H94 H 0.21992 0.4352 0.94976 0.0
H95 H 0.17621 0.44157 0.04445 0.0
H96 H 0.18488 0.47636 0.05079 0.0
H97 H 0.23546 0.53539 0.98189 0.0
H98 H 0.1874 0.49813 0.94397 0.0
O99 O 0.24062 0.49863 0.01904 0.0
H100 H 0.23053 0.55592 0.92066 0.0
H101 H 0.18237 0.51868 0.88227 0.0
C102 C 0.20672 0.51166 0.0575 0.0
C103 C 0.21016 0.50294 0.09613 0.0
C104 C 0.20593 0.51315 0.13211 0.0
C105 C 0.19853 0.53246 0.13009 0.0
C106 C 0.19417 0.54073 0.09117 0.0
C107 C 0.19818 0.5304 0.05524 0.0
C108 C 0.20758 0.47553 0.00452 0.0
C109 C 0.21685 0.46384 0.97527 0.0
C110 C 0.21184 0.44406 0.97136 0.0
C111 C 0.19745 0.4356 0.99676 0.0
C112 C 0.18754 0.44763 0.02483 0.0
C113 C 0.19249 0.4675 0.02851 0.0
C114 C 0.21204 0.51509 0.96699 0.0
C115 C 0.22385 0.53163 0.96028 0.0
C116 C 0.22089 0.54345 0.92548 0.0
C117 C 0.20604 0.5389 0.89669 0.0
C118 C 0.19403 0.52241 0.90378 0.0
C119 C 0.1969 0.51068 0.93895 0.0
P120 P 0.98207 0.85499 0.5108 0.0
H121 H 0.98514 0.86477 0.59755 0.0
H122 H 0.96551 0.8558 0.65765 0.0
H123 H 0.9265 0.82221 0.57947 0.0
H124 H 0.94631 0.8309 0.51997 0.0
H125 H 0.02248 0.86412 0.48776 0.0
H126 H 0.05275 0.84462 0.48843 0.0
H127 H 0.02083 0.79511 0.53838 0.0
H128 H 0.99064 0.81472 0.53788 0.0
H129 H 0.95805 0.87987 0.45646 0.0
H130 H 0.97715 0.81945 0.46129 0.0
O131 O 0.98761 0.87885 0.51312 0.0
H132 H 0.93883 0.87305 0.39411 0.0
H133 H 0.95809 0.81257 0.39902 0.0
C134 C 0.96701 0.84879 0.55425 0.0
C135 C 0.97228 0.85557 0.59341 0.0
C136 C 0.96104 0.85046 0.62768 0.0
C137 C 0.94441 0.83833 0.62332 0.0
C138 C 0.93933 0.8314 0.58397 0.0
C139 C 0.95058 0.83653 0.54977 0.0
C140 C 0.00443 0.84094 0.51334 0.0
C141 C 0.02205 0.84915 0.4993 0.0
C142 C 0.03932 0.83802 0.49974 0.0
C143 C 0.03912 0.81839 0.51359 0.0
C144 C 0.02138 0.81018 0.52738 0.0
C145 C 0.00417 0.8214 0.52736 0.0
C146 C 0.9693 0.85027 0.46311 0.0
C147 C 0.95836 0.86522 0.44377 0.0
C148 C 0.94741 0.86131 0.40812 0.0
C149 C 0.94701 0.84228 0.39163 0.0
C150 C 0.95804 0.82735 0.41113 0.0
C151 C 0.96908 0.83131 0.44657 0.0
P152 P 0.84856 0.4875 0.00829 0.0
H153 H 0.86678 0.47511 0.9314 0.0
H154 H 0.85397 0.45785 0.87103 0.0
H155 H 0.79605 0.45733 0.92458 0.0
H156 H 0.80896 0.47456 0.98479 0.0
H157 H 0.87258 0.52129 0.0316 0.0
H158 H 0.86613 0.5566 0.03245 0.0
H159 H 0.80749 0.5463 0.98485 0.0
H160 H 0.81413 0.51104 0.98365 0.0
H161 H 0.8392 0.4469 0.02934 0.0
H162 H 0.83525 0.50353 0.08728 0.0
O163 O 0.87278 0.48359 0.01076 0.0
H164 H 0.82521 0.43133 0.09045 0.0
H165 H 0.82113 0.48804 0.14847 0.0
C166 C 0.83886 0.47592 0.96273 0.0
C167 C 0.85132 0.47132 0.9301 0.0
C168 C 0.84401 0.4614 0.89568 0.0
C169 C 0.82402 0.45614 0.89314 0.0
C170 C 0.81147 0.46132 0.92545 0.0
C171 C 0.81884 0.4711 0.95995 0.0
C172 C 0.84399 0.51356 0.00668 0.0
C173 C 0.85841 0.52664 0.02089 0.0
C174 C 0.85464 0.54682 0.02173 0.0
C175 C 0.83632 0.55428 0.00856 0.0
C176 C 0.82187 0.54107 0.99453 0.0
C177 C 0.82564 0.52088 0.99385 0.0
C178 C 0.83782 0.47642 0.05332 0.0
C179 C 0.83511 0.45602 0.05503 0.0
C180 C 0.82708 0.44714 0.08996 0.0
C181 C 0.82189 0.45849 0.12414 0.0
C182 C 0.82503 0.47891 0.12266 0.0
C183 C 0.83296 0.4878 0.08754 0.0
P184 P 0.03318 0.23801 0.50317 0.0
H185 H 0.0361 0.25523 0.42125 0.0
H186 H 0.05183 0.24434 0.35811 0.0
H187 H 0.06787 0.18964 0.41827 0.0
H188 H 0.05158 0.20045 0.4809 0.0
H189 H 0.00461 0.25244 0.56119 0.0
H190 H 0.9687 0.25376 0.56029 0.0
H191 H 0.9677 0.2216 0.4462 0.0
H192 H 0.00366 0.22041 0.44723 0.0
H193 H 0.07343 0.2379 0.53252 0.0
H194 H 0.01855 0.21147 0.56894 0.0
O195 O 0.03894 0.26179 0.50593 0.0
H196 H 0.08976 0.2233 0.59269 0.0
H197 H 0.03482 0.19682 0.62947 0.0
C198 C 0.04313 0.22885 0.45595 0.0
C199 C 0.0429 0.24085 0.4207 0.0
C200 C 0.05197 0.23463 0.38471 0.0
C201 C 0.06141 0.21625 0.38333 0.0
C202 C 0.06071 0.20385 0.41822 0.0
C203 C 0.05155 0.21008 0.4542 0.0
C204 C 0.00678 0.23641 0.50427 0.0
C205 C 0.99663 0.24544 0.53629 0.0
C206 C 0.97611 0.24609 0.53583 0.0
C207 C 0.96536 0.23783 0.50309 0.0
C208 C 0.97559 0.22828 0.47159 0.0
C209 C 0.99616 0.22753 0.47224 0.0
C210 C 0.04478 0.226 0.5466 0.0
C211 C 0.06493 0.22886 0.55343 0.0
C212 C 0.07426 0.22039 0.58767 0.0
C213 C 0.06356 0.20891 0.61584 0.0
C214 C 0.04338 0.20576 0.60849 0.0
C215 C 0.03408 0.21413 0.57391 0.0
P216 P 0.72298 0.99772 0.49477 0.0
H217 H 0.72242 0.00691 0.40723 0.0
H218 H 0.71519 0.98715 0.34655 0.0
H219 H 0.69693 0.93915 0.42554 0.0
H220 H 0.7032 0.95932 0.48566 0.0
H221 H 0.73275 0.02932 0.55002 0.0
H222 H 0.72191 0.06338 0.55453 0.0
H223 H 0.67914 0.05321 0.45771 0.0
H224 H 0.69016 0.01903 0.45334 0.0
H225 H 0.7445 0.96355 0.52387 0.0
H226 H 0.69712 0.99976 0.56722 0.0
O227 O 0.7469 0.00119 0.48623 0.0
H228 H 0.74326 0.94392 0.58693 0.0
H229 H 0.69629 0.98069 0.63143 0.0
C230 C 0.71348 0.98459 0.45095 0.0
C231 C 0.71636 0.99231 0.41136 0.0
C232 C 0.71241 0.9809 0.37671 0.0
C233 C 0.7058 0.96139 0.38106 0.0
C234 C 0.70187 0.95413 0.42086 0.0
C235 C 0.70562 0.96565 0.45547 0.0
C236 C 0.71244 0.02175 0.50106 0.0
C237 C 0.72083 0.03435 0.53019 0.0
C238 C 0.71452 0.05379 0.5329 0.0
C239 C 0.6997 0.06104 0.50636 0.0
C240 C 0.69075 0.04811 0.47825 0.0
C241 C 0.69703 0.02856 0.47574 0.0
C242 C 0.7212 0.98331 0.54128 0.0
C243 C 0.73394 0.96737 0.54724 0.0
C244 C 0.73327 0.95623 0.58345 0.0
C245 C 0.7199 0.96091 0.61466 0.0
C246 C 0.70673 0.97663 0.60803 0.0
C247 C 0.70731 0.98767 0.57147 0.0
P248 P 0.50971 0.34742 0.0007 0.0
H249 H 0.50191 0.34875 0.91245 0.0
H250 H 0.52228 0.34203 0.85241 0.0
H251 H 0.57116 0.32766 0.93335 0.0
H252 H 0.5507 0.33386 0.99277 0.0
H253 H 0.47084 0.35326 0.03521 0.0
H254 H 0.44155 0.33251 0.03869 0.0
H255 H 0.47196 0.28714 0.97218 0.0
H256 H 0.50133 0.30786 0.96965 0.0
H257 H 0.53477 0.37373 0.04825 0.0
H258 H 0.5155 0.31346 0.05582 0.0
O259 O 0.50275 0.37087 0.9966 0.0
H260 H 0.5553 0.36882 0.10964 0.0
H261 H 0.53557 0.30853 0.11784 0.0
C262 C 0.52475 0.34183 0.95703 0.0
C263 C 0.517 0.34404 0.91713 0.0
C264 C 0.52868 0.3403 0.88289 0.0
C265 C 0.54837 0.3343 0.88804 0.0
C266 C 0.55599 0.33195 0.92822 0.0
C267 C 0.54429 0.33565 0.96236 0.0
C268 C 0.48805 0.33226 0.00136 0.0
C269 C 0.47112 0.33891 0.02108 0.0
C270 C 0.45438 0.32705 0.02295 0.0
C271 C 0.45436 0.30822 0.00541 0.0
C272 C 0.47152 0.30151 0.98618 0.0
C273 C 0.48826 0.31342 0.98433 0.0
C274 C 0.5233 0.3441 0.04805 0.0
C275 C 0.53467 0.35955 0.06363 0.0
C276 C 0.54636 0.35671 0.0988 0.0
C277 C 0.54699 0.3383 0.11885 0.0
C278 C 0.53553 0.32285 0.10301 0.0
C279 C 0.52388 0.3257 0.06778 0.0
P280 P 0.3524 0.00548 0.50857 0.0
H281 H 0.36591 0.00863 0.59377 0.0
H282 H 0.35266 0.02539 0.65378 0.0
H283 H 0.30359 0.04611 0.57962 0.0
H284 H 0.31661 0.02882 0.52038 0.0
H285 H 0.36964 0.97146 0.46917 0.0
H286 H 0.36016 0.93685 0.46631 0.0
H287 H 0.31126 0.94864 0.54654 0.0
H288 H 0.3205 0.98328 0.5481 0.0
H289 H 0.3591 0.04432 0.47362 0.0
H290 H 0.32612 0.99247 0.44123 0.0
O291 O 0.37687 0.00744 0.51027 0.0
H292 H 0.34641 0.06117 0.4121 0.0
H293 H 0.31397 0.00889 0.37907 0.0
C294 C 0.34248 0.01786 0.55249 0.0
C295 C 0.35233 0.01683 0.59052 0.0
C296 C 0.34476 0.02648 0.62474 0.0
C297 C 0.32713 0.03725 0.62151 0.0
C298 C 0.31711 0.03784 0.58338 0.0
C299 C 0.32466 0.02812 0.54928 0.0
C300 C 0.34602 0.97983 0.50947 0.0
C301 C 0.357 0.96651 0.48645 0.0
C302 C 0.35158 0.94672 0.48496 0.0
C303 C 0.33499 0.93991 0.50637 0.0
C304 C 0.324 0.95339 0.52936 0.0
C305 C 0.3294 0.9732 0.53066 0.0
C306 C 0.34373 0.01712 0.46182 0.0
C307 C 0.34934 0.03649 0.45293 0.0
C308 C 0.34215 0.04605 0.41761 0.0
C309 C 0.32921 0.03637 0.39046 0.0
C310 C 0.32372 0.01687 0.39949 0.0
C311 C 0.33083 0.00738 0.43496 0.0
P312 P 0.46354 0.7432 0.01254 0.0
H313 H 0.45693 0.76049 0.093 0.0
H314 H 0.44206 0.7479 0.15598 0.0
H315 H 0.43441 0.69119 0.09917 0.0
H316 H 0.44917 0.70403 0.03593 0.0
H317 H 0.48985 0.74205 0.94214 0.0
H318 H 0.52552 0.73909 0.93683 0.0
H319 H 0.52989 0.73215 0.06907 0.0
H320 H 0.49423 0.73431 0.07384 0.0
H321 H 0.42821 0.75767 0.97142 0.0
H322 H 0.46735 0.70818 0.96069 0.0
O323 O 0.46124 0.76761 0.01302 0.0
H324 H 0.40873 0.7458 0.91331 0.0
H325 H 0.44775 0.69601 0.90248 0.0
C326 C 0.45368 0.73333 0.05953 0.0
C327 C 0.45208 0.74535 0.09409 0.0
C328 C 0.44375 0.73806 0.13025 0.0
C329 C 0.43696 0.71856 0.13251 0.0
C330 C 0.43925 0.70635 0.09817 0.0
C331 C 0.44767 0.71366 0.06202 0.0
C332 C 0.48934 0.73791 0.00824 0.0
C333 C 0.49846 0.73932 0.96984 0.0
C334 C 0.51889 0.73787 0.96692 0.0
C335 C 0.53062 0.73542 0.00254 0.0
C336 C 0.52133 0.73365 0.04092 0.0
C337 C 0.50088 0.73496 0.04373 0.0
C338 C 0.44948 0.73407 0.9696 0.0
C339 C 0.43264 0.74426 0.95641 0.0
C340 C 0.42141 0.73735 0.92342 0.0
C341 C 0.42673 0.71998 0.90321 0.0
C342 C 0.44346 0.70959 0.91704 0.0
C343 C 0.45466 0.71651 0.95025 0.0
H344 H 0.1768 0.15346 0.0932 0.0
H345 H 0.14919 0.15579 0.14092 0.0
H346 H 0.15923 0.21808 0.15206 0.0
H347 H 0.1866 0.21599 0.1044 0.0
H348 H 0.15126 0.16912 0.22268 0.0
H349 H 0.09992 0.2148 0.12937 0.0
H350 H 0.12041 0.20189 0.10718 0.0
H351 H 0.12422 0.22503 0.13242 0.0
C352 C 0.17299 0.16769 0.10547 0.0
C353 C 0.18394 0.18454 0.095 0.0
C354 C 0.15723 0.16898 0.13273 0.0
C355 C 0.152 0.18715 0.14952 0.0
C356 C 0.16276 0.20399 0.13879 0.0
H357 H 0.08544 0.23961 0.33719 0.0
H358 H 0.10546 0.2303 0.27863 0.0
C359 C 0.17852 0.20272 0.11175 0.0
C360 C 0.13615 0.18852 0.18031 0.0
H361 H 0.09413 0.21363 0.20218 0.0
C362 C 0.13855 0.17855 0.21803 0.0
C363 C 0.1196 0.20082 0.17401 0.0
C364 C 0.11574 0.2111 0.13339 0.0
C365 C 0.12543 0.18145 0.25055 0.0
C366 C 0.10937 0.19444 0.24483 0.0
C367 C 0.10651 0.20374 0.2065 0.0
C368 C 0.09634 0.19985 0.2792 0.0
C369 C 0.12945 0.17144 0.29142 0.0
C370 C 0.08432 0.18585 0.29855 0.0
C371 C 0.07273 0.19116 0.33206 0.0
C372 C 0.07289 0.21059 0.34656 0.0
C373 C 0.0847 0.2246 0.32647 0.0
C374 C 0.09625 0.21929 0.2931 0.0
H375 H 0.14436 0.16476 0.29291 0.0
H376 H 0.12805 0.18202 0.31704 0.0
H377 H 0.11848 0.15958 0.29624 0.0
H378 H 0.08394 0.17084 0.28782 0.0
H379 H 0.0636 0.18008 0.34651 0.0
H380 H 0.2378 0.67389 0.64655 0.0
H381 H 0.22487 0.64989 0.69554 0.0
H382 H 0.22334 0.60602 0.60061 0.0
H383 H 0.23668 0.62984 0.55138 0.0
H384 H 0.19082 0.62691 0.697 0.0
H385 H 0.25831 0.58083 0.68929 0.0
H386 H 0.25712 0.60529 0.66761 0.0
H387 H 0.24582 0.58511 0.64106 0.0
C388 C 0.23462 0.65918 0.63591 0.0
C389 C 0.23857 0.65371 0.59517 0.0
C390 C 0.22717 0.64549 0.66397 0.0
C391 C 0.22348 0.6261 0.65187 0.0
C392 C 0.22649 0.62081 0.61076 0.0
H393 H 0.20144 0.52632 0.81749 0.0
H394 H 0.20178 0.54645 0.75449 0.0
C395 C 0.23406 0.63447 0.58267 0.0
C396 C 0.21748 0.61132 0.68304 0.0
H397 H 0.23368 0.5704 0.73458 0.0
C398 C 0.20008 0.61443 0.70498 0.0
C399 C 0.22959 0.59505 0.69333 0.0
C400 C 0.24884 0.59137 0.6719 0.0
C401 C 0.19468 0.60193 0.73759 0.0
C402 C 0.20714 0.58609 0.74874 0.0
C403 C 0.22412 0.58253 0.72578 0.0
C404 C 0.20399 0.57414 0.7864 0.0
C405 C 0.17583 0.60591 0.76013 0.0
C406 C 0.20491 0.58308 0.82511 0.0
C407 C 0.20474 0.57166 0.861 0.0
C408 C 0.20373 0.55106 0.85885 0.0
C409 C 0.20204 0.54217 0.82008 0.0
C410 C 0.2023 0.55362 0.78411 0.0
H411 H 0.16524 0.61434 0.74057 0.0
H412 H 0.16874 0.59202 0.77032 0.0
H413 H 0.17915 0.6148 0.78781 0.0
H414 H 0.2066 0.59885 0.82756 0.0
H415 H 0.20591 0.57891 0.89047 0.0
H416 H 0.8105 0.78996 0.14593 0.0
H417 H 0.83718 0.79503 0.19585 0.0
H418 H 0.86525 0.83538 0.11194 0.0
H419 H 0.83873 0.83041 0.06162 0.0
H420 H 0.88206 0.79173 0.18184 0.0
H421 H 0.85377 0.86553 0.22491 0.0
H422 H 0.8382 0.84717 0.20145 0.0
H423 H 0.85594 0.86009 0.17098 0.0
C424 C 0.82242 0.7998 0.13789 0.0
C425 C 0.82238 0.80991 0.0999 0.0
C426 C 0.83765 0.80262 0.16641 0.0
C427 C 0.85301 0.81569 0.15757 0.0
C428 C 0.8534 0.82533 0.11929 0.0
H429 H 0.94327 0.86376 0.32036 0.0
H430 H 0.92193 0.85683 0.26102 0.0
C431 C 0.83825 0.82243 0.0906 0.0
C432 C 0.86815 0.81985 0.18919 0.0
H433 H 0.88241 0.85438 0.2588 0.0
C434 C 0.88225 0.80543 0.19864 0.0
C435 C 0.86832 0.83779 0.2107 0.0
C436 C 0.85323 0.85357 0.20186 0.0
C437 C 0.89661 0.8085 0.22928 0.0
C438 C 0.89646 0.82626 0.25168 0.0
C439 C 0.8825 0.84078 0.24164 0.0
C440 C 0.91016 0.82986 0.2866 0.0
C441 C 0.91193 0.79281 0.23694 0.0
C442 C 0.91051 0.81708 0.32077 0.0
C443 C 0.92272 0.82097 0.35454 0.0
C444 C 0.93461 0.83786 0.35506 0.0
C445 C 0.93418 0.85069 0.3209 0.0
C446 C 0.92207 0.84671 0.28696 0.0
H447 H 0.91389 0.78345 0.20943 0.0
H448 H 0.92637 0.79934 0.24541 0.0
H449 H 0.90711 0.78317 0.26265 0.0
H450 H 0.90101 0.80431 0.32173 0.0
H451 H 0.92246 0.81101 0.38075 0.0
H452 H 0.72838 0.37425 0.59811 0.0
H453 H 0.74438 0.39472 0.64993 0.0
H454 H 0.78974 0.35105 0.66679 0.0
H455 H 0.77385 0.33035 0.61488 0.0
H456 H 0.75224 0.38181 0.73446 0.0
H457 H 0.81973 0.40443 0.65087 0.0
H458 H 0.79792 0.39568 0.62459 0.0
H459 H 0.8139 0.37864 0.65091 0.0
C460 C 0.74186 0.36902 0.61248 0.0
C461 C 0.74979 0.3506 0.60237 0.0
C462 C 0.75096 0.38076 0.64213 0.0
C463 C 0.76829 0.37445 0.66191 0.0
C464 C 0.7765 0.35627 0.65145 0.0
H465 H 0.84088 0.42441 0.85638 0.0
H466 H 0.82745 0.40468 0.80008 0.0
C467 C 0.76733 0.34444 0.62193 0.0
C468 C 0.77711 0.38646 0.69508 0.0
H469 H 0.81735 0.414 0.72042 0.0
C470 C 0.76645 0.3889 0.73142 0.0
C471 C 0.79569 0.39552 0.69101 0.0
C472 C 0.8075 0.39362 0.65219 0.0
C473 C 0.77398 0.40004 0.76412 0.0
C474 C 0.79244 0.40944 0.75986 0.0
C475 C 0.80316 0.40686 0.72355 0.0
C476 C 0.80087 0.42192 0.79285 0.0
C477 C 0.76227 0.40124 0.80326 0.0
C478 C 0.7906 0.43842 0.80686 0.0
C479 C 0.7982 0.44966 0.83912 0.0
C480 C 0.81637 0.44479 0.85758 0.0
C481 C 0.82692 0.42862 0.84259 0.0
C482 C 0.81924 0.4173 0.81053 0.0
H483 H 0.75161 0.38892 0.80594 0.0
H484 H 0.77206 0.40103 0.83082 0.0
H485 H 0.75378 0.41517 0.80317 0.0
H486 H 0.77666 0.44258 0.79293 0.0
H487 H 0.7899 0.46223 0.84952 0.0
H488 H 0.67925 0.28943 0.38646 0.0
H489 H 0.65303 0.29243 0.33462 0.0
H490 H 0.63875 0.35006 0.37953 0.0
H491 H 0.66507 0.34738 0.43099 0.0
H492 H 0.61236 0.29928 0.34106 0.0
H493 H 0.64972 0.36001 0.25741 0.0
H494 H 0.66208 0.34515 0.29601 0.0
H495 H 0.64589 0.36463 0.31106 0.0
C496 C 0.67048 0.30271 0.38549 0.0
C497 C 0.67445 0.31828 0.41254 0.0
C498 C 0.65549 0.30438 0.35586 0.0
C499 C 0.64424 0.32162 0.35273 0.0
C500 C 0.64758 0.33681 0.38083 0.0
H501 H 0.55368 0.36327 0.1832 0.0
H502 H 0.5764 0.35865 0.24137 0.0
C503 C 0.66258 0.33521 0.41035 0.0
C504 C 0.62935 0.32393 0.31945 0.0
H505 H 0.61742 0.35208 0.23531 0.0
C506 C 0.61346 0.31078 0.31785 0.0
C507 C 0.63089 0.33893 0.28918 0.0
C508 C 0.64815 0.35289 0.28812 0.0
C509 C 0.59886 0.31244 0.28711 0.0
C510 C 0.60038 0.32749 0.257 0.0
C511 C 0.61626 0.34063 0.25862 0.0
C512 C 0.58588 0.32972 0.22298 0.0
C513 C 0.58176 0.29831 0.28747 0.0
C514 C 0.58378 0.31501 0.1933 0.0
C515 C 0.57093 0.31766 0.15986 0.0
C516 C 0.55999 0.33513 0.15538 0.0
C517 C 0.56204 0.34976 0.18545 0.0
C518 C 0.57492 0.3471 0.21883 0.0
H519 H 0.58021 0.29089 0.31786 0.0
H520 H 0.56778 0.30601 0.27973 0.0
H521 H 0.58416 0.28685 0.26398 0.0
H522 H 0.59243 0.30167 0.19547 0.0
H523 H 0.56998 0.30625 0.1369 0.0
H524 H 0.27745 0.16613 0.88653 0.0
H525 H 0.29171 0.14431 0.83545 0.0
H526 H 0.25374 0.09737 0.87581 0.0
H527 H 0.2393 0.11905 0.92712 0.0
H528 H 0.29571 0.08716 0.86188 0.0
H529 H 0.25927 0.12648 0.73099 0.0
H530 H 0.27271 0.14156 0.76673 0.0
H531 H 0.2511 0.12874 0.78347 0.0
C532 C 0.27219 0.15113 0.88483 0.0
C533 C 0.25707 0.14441 0.91071 0.0
C534 C 0.28033 0.13872 0.85552 0.0
C535 C 0.27358 0.11935 0.85161 0.0
C536 C 0.25906 0.11233 0.87832 0.0
H537 H 0.28871 0.04098 0.64531 0.0
H538 H 0.2759 0.06013 0.70247 0.0
C539 C 0.25081 0.12476 0.90753 0.0
C540 C 0.28123 0.10665 0.8187 0.0
H541 H 0.28181 0.10141 0.71431 0.0
C542 C 0.29269 0.09022 0.8296 0.0
C543 C 0.27704 0.11062 0.77673 0.0
C544 C 0.26424 0.12771 0.76355 0.0
C545 C 0.30037 0.0778 0.7994 0.0
C546 C 0.29653 0.08203 0.75738 0.0
C547 C 0.28481 0.09828 0.74658 0.0
C548 C 0.30448 0.06979 0.72397 0.0
C549 C 0.31233 0.06013 0.81261 0.0
C550 C 0.3248 0.06896 0.71707 0.0
C551 C 0.33217 0.0582 0.68417 0.0
C552 C 0.31934 0.04807 0.65749 0.0
C553 C 0.29899 0.04881 0.66485 0.0
C554 C 0.29164 0.05964 0.69764 0.0
H555 H 0.31031 0.05652 0.84573 0.0
H556 H 0.30828 0.0471 0.79404 0.0
H557 H 0.32816 0.06324 0.8076 0.0
H558 H 0.33492 0.07701 0.73659 0.0
H559 H 0.34788 0.05824 0.67903 0.0
H560 H 0.33078 0.6755 0.4556 0.0
H561 H 0.35947 0.67795 0.41061 0.0
H562 H 0.32533 0.71183 0.3228 0.0
H563 H 0.29673 0.70958 0.36726 0.0
H564 H 0.36259 0.66563 0.32603 0.0
H565 H 0.37504 0.74556 0.34439 0.0
H566 H 0.36037 0.73126 0.37977 0.0
H567 H 0.35004 0.73948 0.33143 0.0
C568 C 0.3294 0.68352 0.42676 0.0
C569 C 0.31145 0.69237 0.41506 0.0
C570 C 0.34579 0.68487 0.40113 0.0
C571 C 0.34454 0.69528 0.36373 0.0
C572 C 0.32665 0.704 0.3519 0.0
H573 H 0.40327 0.6968 0.13552 0.0
H574 H 0.38375 0.68871 0.19599 0.0
C575 C 0.31029 0.7026 0.37729 0.0
C576 C 0.36169 0.69684 0.33626 0.0
H577 H 0.39016 0.73052 0.28636 0.0
C578 C 0.36887 0.67976 0.31776 0.0
C579 C 0.37004 0.71525 0.32611 0.0
C580 C 0.36363 0.73393 0.34675 0.0
C581 C 0.38347 0.68077 0.28752 0.0
C582 C 0.39081 0.69935 0.27525 0.0
C583 C 0.3844 0.71629 0.29551 0.0
C584 C 0.40402 0.70187 0.23957 0.0
C585 C 0.39069 0.66197 0.26863 0.0
C586 C 0.42189 0.71199 0.2439 0.0
C587 C 0.43305 0.71671 0.20929 0.0
C588 C 0.42647 0.71149 0.16968 0.0
C589 C 0.40891 0.70075 0.16562 0.0
C590 C 0.39774 0.69607 0.20022 0.0
H591 H 0.38874 0.64927 0.28994 0.0
H592 H 0.38203 0.65899 0.24024 0.0
H593 H 0.40646 0.66305 0.2603 0.0
H594 H 0.42695 0.71667 0.27399 0.0
H595 H 0.44663 0.72482 0.21345 0.0
H596 H 0.74121 0.86483 0.96206 0.0
H597 H 0.72757 0.88885 0.91297 0.0
H598 H 0.74097 0.84999 0.81285 0.0
H599 H 0.75389 0.82575 0.86156 0.0
H600 H 0.74626 0.90803 0.856 0.0
H601 H 0.68714 0.86663 0.77871 0.0
H602 H 0.69862 0.85799 0.82584 0.0
H603 H 0.70962 0.85297 0.77673 0.0
C604 C 0.74092 0.86128 0.92962 0.0
C605 C 0.74864 0.84338 0.91572 0.0
C606 C 0.7331 0.87501 0.90161 0.0
C607 C 0.73291 0.87112 0.85921 0.0
C608 C 0.74034 0.85311 0.84543 0.0
H609 H 0.75189 0.94701 0.65736 0.0
H610 H 0.7524 0.927 0.71975 0.0
C611 C 0.74792 0.83931 0.87338 0.0
C612 C 0.72689 0.88652 0.82892 0.0
H613 H 0.70157 0.89334 0.73866 0.0
C614 C 0.73617 0.90493 0.83082 0.0
C615 C 0.71337 0.88276 0.7965 0.0
C616 C 0.70147 0.86408 0.79463 0.0
C617 C 0.73334 0.91912 0.79975 0.0
C618 C 0.72143 0.91455 0.76518 0.0
C619 C 0.71105 0.89672 0.76472 0.0
C620 C 0.72082 0.92729 0.72787 0.0
C621 C 0.74342 0.93876 0.8041 0.0
C622 C 0.70284 0.93363 0.71073 0.0
C623 C 0.70246 0.94473 0.67422 0.0
C624 C 0.72007 0.94961 0.65409 0.0
C625 C 0.73802 0.94332 0.67162 0.0
C626 C 0.73837 0.93214 0.7078 0.0
H627 H 0.74545 0.94261 0.83704 0.0
H628 H 0.75823 0.93799 0.79016 0.0
H629 H 0.73494 0.95068 0.78852 0.0
H630 H 0.6891 0.92987 0.72546 0.0
H631 H 0.68836 0.94911 0.66132 0.0
H632 H 0.82781 0.83787 0.92593 0.0
H633 H 0.8536 0.84036 0.87441 0.0
H634 H 0.84543 0.77933 0.84417 0.0
H635 H 0.81935 0.77669 0.89535 0.0
H636 H 0.88912 0.81928 0.86478 0.0
H637 H 0.83725 0.80826 0.73347 0.0
H638 H 0.82897 0.81366 0.78476 0.0
H639 H 0.83709 0.78932 0.77237 0.0
C640 C 0.83152 0.82492 0.90851 0.0
C641 C 0.82132 0.80714 0.91443 0.0
C642 C 0.84631 0.82638 0.87914 0.0
C643 C 0.85117 0.81013 0.85506 0.0
C644 C 0.84161 0.79214 0.86194 0.0
H645 H 0.92811 0.80263 0.64243 0.0
H646 H 0.90675 0.79455 0.70039 0.0
C647 C 0.82677 0.79065 0.89132 0.0
C648 C 0.86583 0.81231 0.82195 0.0
H649 H 0.87077 0.81199 0.7175 0.0
C650 C 0.88516 0.81761 0.83257 0.0
C651 C 0.86057 0.81013 0.78 0.0
C652 C 0.83982 0.80519 0.76675 0.0
C653 C 0.89941 0.82083 0.80226 0.0
C654 C 0.89405 0.819 0.76029 0.0
C655 C 0.87482 0.81334 0.74973 0.0
C656 C 0.9079 0.82362 0.72666 0.0
C657 C 0.92009 0.82604 0.81541 0.0
C658 C 0.91551 0.84268 0.72216 0.0
C659 C 0.92762 0.84737 0.68899 0.0
C660 C 0.93222 0.83311 0.65952 0.0
C661 C 0.92466 0.81399 0.66432 0.0
C662 C 0.91256 0.80932 0.69752 0.0
H663 H 0.92316 0.82144 0.84775 0.0
H664 H 0.93109 0.81908 0.79513 0.0
H665 H 0.92201 0.84221 0.81333 0.0
H666 H 0.9117 0.85406 0.74375 0.0
H667 H 0.93293 0.8623 0.6858 0.0
H668 H 0.74261 0.38173 0.45469 0.0
H669 H 0.75827 0.40468 0.40637 0.0
H670 H 0.77035 0.35681 0.32438 0.0
H671 H 0.75486 0.33383 0.37217 0.0
H672 H 0.80285 0.38414 0.33933 0.0
H673 H 0.73249 0.42029 0.29227 0.0
H674 H 0.73789 0.41846 0.34654 0.0
H675 H 0.73316 0.39659 0.3177 0.0
C676 C 0.7487 0.37608 0.42648 0.0
C677 C 0.74731 0.35597 0.41711 0.0
C678 C 0.75756 0.38921 0.39889 0.0
C679 C 0.76526 0.38242 0.3617 0.0
C680 C 0.76443 0.36232 0.3529 0.0
H681 H 0.7934 0.43025 0.12665 0.0
H682 H 0.78019 0.41349 0.18733 0.0
C683 C 0.7555 0.34923 0.38022 0.0
C684 C 0.77377 0.39614 0.33111 0.0
H685 H 0.76121 0.43076 0.25876 0.0
C686 C 0.79384 0.39454 0.32203 0.0
C687 C 0.76187 0.40949 0.30842 0.0
C688 C 0.74012 0.41134 0.31634 0.0
C689 C 0.80228 0.40571 0.29023 0.0
C690 C 0.79031 0.41885 0.26716 0.0
C691 C 0.77033 0.42073 0.27675 0.0
C692 C 0.79797 0.42967 0.23098 0.0
C693 C 0.82372 0.40281 0.28038 0.0
C694 C 0.81214 0.44449 0.23558 0.0
C695 C 0.81975 0.45408 0.20092 0.0
C696 C 0.81332 0.44895 0.16114 0.0
C697 C 0.79885 0.43433 0.15683 0.0
C698 C 0.7912 0.42484 0.19144 0.0
H699 H 0.83012 0.38988 0.29682 0.0
H700 H 0.82566 0.40085 0.24676 0.0
H701 H 0.83213 0.41606 0.28963 0.0
H702 H 0.81741 0.44853 0.26592 0.0
H703 H 0.83096 0.46521 0.20521 0.0
H704 H 0.19679 0.2012 0.86915 0.0
H705 H 0.16857 0.20304 0.82239 0.0
H706 H 0.13622 0.16353 0.90107 0.0
H707 H 0.16453 0.16156 0.9485 0.0
H708 H 0.13632 0.15425 0.81261 0.0
H709 H 0.11511 0.23127 0.84432 0.0
H710 H 0.14091 0.22803 0.83499 0.0
H711 H 0.13001 0.21673 0.8795 0.0
C712 C 0.18369 0.19291 0.87671 0.0
C713 C 0.18293 0.18121 0.91259 0.0
C714 C 0.16754 0.19408 0.85003 0.0
C715 C 0.15029 0.18359 0.85857 0.0
C716 C 0.14941 0.17181 0.89416 0.0
H717 H 0.05006 0.20941 0.69489 0.0
H718 H 0.0681 0.20008 0.75779 0.0
C719 C 0.16557 0.17074 0.92119 0.0
C720 C 0.13354 0.18467 0.82924 0.0
H721 H 0.103 0.21759 0.78129 0.0
C722 C 0.12874 0.16798 0.80618 0.0
C723 C 0.12353 0.20253 0.82138 0.0
C724 C 0.12748 0.22064 0.8466 0.0
C725 C 0.11501 0.16903 0.77364 0.0
C726 C 0.10608 0.18728 0.76383 0.0
C727 C 0.10998 0.20363 0.78862 0.0
C728 C 0.09408 0.19028 0.72596 0.0
C729 C 0.11051 0.15072 0.7495 0.0
C730 C 0.10263 0.18766 0.68726 0.0
C731 C 0.09239 0.19296 0.65139 0.0
C732 C 0.07341 0.20107 0.65352 0.0
C733 C 0.06458 0.20301 0.69224 0.0
C734 C 0.07489 0.19777 0.72819 0.0
H735 H 0.11331 0.13726 0.76826 0.0
H736 H 0.09499 0.15059 0.73857 0.0
H737 H 0.12021 0.15021 0.72225 0.0
H738 H 0.11757 0.18227 0.68484 0.0
H739 H 0.09952 0.19115 0.62198 0.0
H740 H 0.25856 0.63151 0.42101 0.0
H741 H 0.24324 0.60874 0.37295 0.0
H742 H 0.19685 0.65056 0.34819 0.0
H743 H 0.21235 0.67376 0.39576 0.0
H744 H 0.20635 0.59152 0.37056 0.0
H745 H 0.21808 0.63986 0.23371 0.0
H746 H 0.22971 0.6445 0.28281 0.0
H747 H 0.20419 0.65038 0.27478 0.0
C748 C 0.24507 0.63592 0.40548 0.0
C749 C 0.23683 0.65459 0.41186 0.0
C750 C 0.23629 0.62283 0.37809 0.0
C751 C 0.21908 0.62807 0.35653 0.0
C752 C 0.21036 0.64639 0.36388 0.0
H753 H 0.1707 0.56027 0.14953 0.0
H754 H 0.17168 0.5832 0.20725 0.0
C755 C 0.21921 0.65959 0.39119 0.0
C756 C 0.21085 0.61445 0.32546 0.0
H757 H 0.20423 0.60883 0.2219 0.0
C758 C 0.20565 0.59537 0.33809 0.0
C759 C 0.20988 0.61954 0.28313 0.0
C760 C 0.21588 0.63961 0.26756 0.0
C761 C 0.20018 0.58104 0.30938 0.0
C762 C 0.20009 0.58589 0.267 0.0
C763 C 0.20429 0.60521 0.2545 0.0
C764 C 0.19797 0.57073 0.2349 0.0
C765 C 0.19497 0.5607 0.32452 0.0
C766 C 0.21238 0.55612 0.23151 0.0
C767 C 0.21206 0.54323 0.19838 0.0
C768 C 0.19728 0.54463 0.16785 0.0
C769 C 0.18243 0.5589 0.17216 0.0
C770 C 0.18287 0.57193 0.20524 0.0
H771 H 0.19003 0.56088 0.35702 0.0
H772 H 0.1832 0.5541 0.30514 0.0
H773 H 0.20818 0.55116 0.32294 0.0
H774 H 0.22443 0.55525 0.25355 0.0
H775 H 0.224 0.5328 0.19575 0.0
H776 H 0.3057 0.72545 0.61389 0.0
H777 H 0.33198 0.72609 0.66551 0.0
H778 H 0.3445 0.66503 0.64294 0.0
H779 H 0.31798 0.66412 0.59147 0.0
H780 H 0.34063 0.67311 0.72522 0.0
H781 H 0.39148 0.72632 0.65266 0.0
H782 H 0.36683 0.73561 0.65542 0.0
H783 H 0.37187 0.71446 0.62435 0.0
C784 C 0.31414 0.71218 0.61952 0.0
C785 C 0.30968 0.69471 0.59858 0.0
C786 C 0.32927 0.71262 0.64886 0.0
C787 C 0.34037 0.69568 0.65762 0.0
C788 C 0.33617 0.67829 0.63642 0.0
H789 H 0.44007 0.70568 0.83005 0.0
H790 H 0.42043 0.69648 0.76952 0.0
C791 C 0.32102 0.67782 0.60702 0.0
C792 C 0.3554 0.6959 0.69095 0.0
H793 H 0.39559 0.72107 0.7256 0.0
C794 C 0.35283 0.68338 0.72506 0.0
C795 C 0.37149 0.70907 0.69041 0.0
C796 C 0.37573 0.72198 0.65354 0.0
C797 C 0.36532 0.68444 0.75962 0.0
C798 C 0.38054 0.69861 0.76026 0.0
C799 C 0.38377 0.71037 0.72525 0.0
C800 C 0.3924 0.70243 0.79783 0.0
C801 C 0.36195 0.67055 0.79532 0.0
C802 C 0.38314 0.70875 0.83376 0.0
C803 C 0.39427 0.71392 0.86831 0.0
C804 C 0.41493 0.71302 0.86753 0.0
C805 C 0.42418 0.70632 0.83175 0.0
C806 C 0.413 0.70117 0.7971 0.0
H807 H 0.35434 0.65695 0.7852 0.0
H808 H 0.37603 0.66642 0.8107 0.0
H809 H 0.35247 0.67784 0.81823 0.0
H810 H 0.36728 0.7102 0.83474 0.0
H811 H 0.3867 0.71885 0.89553 0.0
H812 H 0.72542 0.81825 0.12185 0.0
H813 H 0.70884 0.84031 0.16969 0.0
H814 H 0.74794 0.88731 0.13437 0.0
H815 H 0.76426 0.86567 0.08633 0.0
H816 H 0.72544 0.85852 0.23588 0.0
H817 H 0.6953 0.91476 0.12916 0.0
H818 H 0.70376 0.89112 0.11175 0.0
H819 H 0.72099 0.91082 0.12041 0.0
C820 C 0.73031 0.83336 0.1239 0.0
C821 C 0.74621 0.84016 0.10026 0.0
C822 C 0.72081 0.84594 0.15122 0.0
C823 C 0.72691 0.86556 0.15505 0.0
C824 C 0.74261 0.8724 0.13115 0.0
H825 H 0.73115 0.96009 0.31634 0.0
H826 H 0.73188 0.93644 0.2606 0.0
C827 C 0.75207 0.8599 0.10392 0.0
C828 C 0.71819 0.87859 0.18637 0.0
H829 H 0.70077 0.92515 0.19964 0.0
C830 C 0.71958 0.87291 0.22796 0.0
C831 C 0.71047 0.89732 0.17597 0.0
C832 C 0.70734 0.90377 0.13183 0.0
C833 C 0.71477 0.88599 0.25949 0.0
C834 C 0.70829 0.90515 0.24904 0.0
C835 C 0.70585 0.91046 0.20749 0.0
C836 C 0.70617 0.92048 0.28068 0.0
C837 C 0.71779 0.87969 0.30377 0.0
C838 C 0.69112 0.91961 0.30988 0.0
C839 C 0.69048 0.93333 0.34171 0.0
C840 C 0.70492 0.9481 0.34489 0.0
C841 C 0.71956 0.94921 0.31461 0.0
C842 C 0.72011 0.9356 0.28279 0.0
H843 H 0.72492 0.86503 0.30654 0.0
H844 H 0.72702 0.8906 0.32028 0.0
H845 H 0.70335 0.87898 0.31933 0.0
H846 H 0.68011 0.90813 0.30844 0.0
H847 H 0.67883 0.93219 0.36411 0.0
H848 H 0.68816 0.29565 0.6406 0.0
H849 H 0.66163 0.29703 0.69056 0.0
H850 H 0.63139 0.34007 0.61494 0.0
H851 H 0.65769 0.33847 0.56424 0.0
H852 H 0.65098 0.32908 0.73382 0.0
H853 H 0.58717 0.30237 0.64232 0.0
H854 H 0.61225 0.29938 0.62571 0.0
H855 H 0.59994 0.32258 0.61883 0.0
C856 C 0.67577 0.30526 0.6343 0.0
C857 C 0.67508 0.317 0.59846 0.0
C858 C 0.6606 0.30601 0.6629 0.0
C859 C 0.64442 0.31849 0.65631 0.0
C860 C 0.64351 0.33001 0.62025 0.0
H861 H 0.55017 0.35597 0.81657 0.0
H862 H 0.57274 0.3516 0.75908 0.0
C863 C 0.65863 0.32916 0.59141 0.0
C864 C 0.62932 0.32042 0.68866 0.0
H865 H 0.58014 0.31614 0.70771 0.0
C866 C 0.63552 0.32613 0.72813 0.0
C867 C 0.60913 0.31667 0.68112 0.0
C868 C 0.60171 0.30973 0.63981 0.0
C869 C 0.62208 0.32832 0.76021 0.0
C870 C 0.60193 0.32455 0.75271 0.0
C871 C 0.59564 0.319 0.71323 0.0
C872 C 0.58727 0.3262 0.78583 0.0
C873 C 0.62947 0.33494 0.8018 0.0
C874 C 0.58772 0.31306 0.81931 0.0
C875 C 0.57478 0.31541 0.85202 0.0
C876 C 0.56114 0.33096 0.85186 0.0
C877 C 0.56035 0.34374 0.81754 0.0
C878 C 0.57328 0.34133 0.78475 0.0
H879 H 0.64459 0.34108 0.80025 0.0
H880 H 0.61954 0.34622 0.81474 0.0
H881 H 0.62973 0.32218 0.82333 0.0
H882 H 0.59827 0.30113 0.82035 0.0
H883 H 0.57552 0.30508 0.87756 0.0
H884 H 0.24996 0.11672 0.06244 0.0
H885 H 0.26425 0.0943 0.11416 0.0
H886 H 0.27887 0.14363 0.191 0.0
H887 H 0.26441 0.16604 0.14012 0.0
H888 H 0.30179 0.09164 0.14937 0.0
H889 H 0.24608 0.10895 0.26707 0.0
H890 H 0.2432 0.11604 0.21368 0.0
H891 H 0.25846 0.13035 0.24763 0.0
C892 C 0.25628 0.12279 0.09029 0.0
C893 C 0.25579 0.14315 0.09741 0.0
C894 C 0.26444 0.10997 0.11977 0.0
C895 C 0.27221 0.11729 0.15677 0.0
C896 C 0.27249 0.13764 0.16313 0.0
H897 H 0.34819 0.06199 0.33856 0.0
H898 H 0.33423 0.08035 0.28027 0.0
C899 C 0.26427 0.15043 0.13389 0.0
C900 C 0.27983 0.10374 0.18916 0.0
H901 H 0.2743 0.09113 0.2903 0.0
C902 C 0.29571 0.09139 0.18012 0.0
C903 C 0.27164 0.1032 0.22903 0.0
C904 C 0.25378 0.11519 0.2399 0.0
C905 C 0.30405 0.07895 0.21035 0.0
C906 C 0.29648 0.07918 0.2508 0.0
C907 C 0.28022 0.0911 0.25941 0.0
C908 C 0.30526 0.06736 0.28493 0.0
C909 C 0.32072 0.06557 0.19855 0.0
C910 C 0.29351 0.05429 0.30758 0.0
C911 C 0.30134 0.04408 0.34146 0.0
C912 C 0.3211 0.04673 0.35346 0.0
C913 C 0.33288 0.05972 0.33045 0.0
C914 C 0.325 0.07002 0.29669 0.0
H915 H 0.32072 0.06277 0.1649 0.0
H916 H 0.33491 0.07266 0.2067 0.0
H917 H 0.31987 0.05127 0.21515 0.0
H918 H 0.27819 0.05216 0.29929 0.0
H919 H 0.29174 0.03446 0.35882 0.0
H920 H 0.22309 0.25311 0.06301 0.0
H921 H 0.21349 0.28764 0.06197 0.0
H922 H 0.20223 0.28456 0.93127 0.0
H923 H 0.21143 0.24978 0.93215 0.0
H924 H 0.23213 0.31638 0.01948 0.0
H925 H 0.1537 0.31337 0.97076 0.0
H926 H 0.16703 0.29195 0.98869 0.0
H927 H 0.17013 0.30087 0.93689 0.0
C928 C 0.21839 0.25969 0.03406 0.0
C929 C 0.21815 0.24871 0.9976 0.0
C930 C 0.21285 0.27943 0.03356 0.0
C931 C 0.20695 0.28864 0.99665 0.0
C932 C 0.20632 0.27766 0.96028 0.0
H933 H 0.19438 0.41156 0.92972 0.0
H934 H 0.19464 0.37553 0.92976 0.0
C935 C 0.21174 0.25781 0.96079 0.0
C936 C 0.20309 0.31009 0.99595 0.0
H937 H 0.16863 0.34508 0.97212 0.0
C938 C 0.21819 0.32263 0.00939 0.0
C939 C 0.18493 0.31821 0.98254 0.0
C940 C 0.16794 0.30541 0.96924 0.0
C941 C 0.2157 0.34305 0.00951 0.0
C942 C 0.19757 0.35117 0.99619 0.0
C943 C 0.18248 0.33873 0.98243 0.0
C944 C 0.19437 0.37265 0.99609 0.0
C945 C 0.23261 0.35588 0.02331 0.0
C946 C 0.19346 0.38282 0.03336 0.0
C947 C 0.19338 0.40334 0.03348 0.0
C948 C 0.19422 0.41403 0.99626 0.0
C949 C 0.19398 0.40373 0.95888 0.0
C950 C 0.194 0.38318 0.95882 0.0
H951 H 0.24669 0.34761 0.02525 0.0
H952 H 0.23447 0.36853 0.00188 0.0
H953 H 0.22942 0.36179 0.05426 0.0
H954 H 0.19365 0.37487 0.06242 0.0
H955 H 0.19373 0.41081 0.06277 0.0
H956 H 0.19948 0.72173 0.57087 0.0
H957 H 0.16695 0.73694 0.57097 0.0
H958 H 0.16753 0.74062 0.43831 0.0
H959 H 0.20036 0.72601 0.43804 0.0
H960 H 0.15756 0.77465 0.4702 0.0
H961 H 0.11316 0.71627 0.54407 0.0
H962 H 0.13404 0.72301 0.575 0.0
H963 H 0.13771 0.71192 0.52555 0.0
C964 C 0.19257 0.72551 0.54168 0.0
C965 C 0.20252 0.72273 0.50444 0.0
C966 C 0.1739 0.73409 0.54177 0.0
C967 C 0.16466 0.73967 0.50461 0.0
C968 C 0.17436 0.73639 0.46735 0.0
H969 H 0.04354 0.78112 0.48471 0.0
H970 H 0.0739 0.76183 0.4815 0.0
C971 C 0.19312 0.72804 0.46724 0.0
C972 C 0.14561 0.7503 0.50469 0.0
H973 H 0.09861 0.74832 0.54053 0.0
C974 C 0.14462 0.7688 0.48527 0.0
C975 C 0.12866 0.74258 0.52391 0.0
C976 C 0.12835 0.72226 0.54292 0.0
C977 C 0.12729 0.77996 0.48522 0.0
C978 C 0.11065 0.77269 0.50629 0.0
C979 C 0.11147 0.75399 0.5249 0.0
C980 C 0.09223 0.78423 0.50915 0.0
C981 C 0.12693 0.79928 0.46203 0.0
C982 C 0.0924 0.80306 0.52644 0.0
C983 C 0.07514 0.81414 0.52796 0.0
C984 C 0.05733 0.80644 0.51292 0.0
C985 C 0.05706 0.78736 0.49672 0.0
C986 C 0.07438 0.77636 0.4948 0.0
H987 H 0.13835 0.79979 0.43779 0.0
H988 H 0.11235 0.80197 0.44734 0.0
H989 H 0.13002 0.8114 0.48379 0.0
H990 H 0.1059 0.8092 0.53878 0.0
H991 H 0.07569 0.82868 0.54123 0.0
H992 H 0.80342 0.73944 0.07326 0.0
H993 H 0.81498 0.70535 0.07393 0.0
H994 H 0.79182 0.6976 0.95109 0.0
H995 H 0.78051 0.7316 0.9498 0.0
H996 H 0.79242 0.67167 0.06564 0.0
H997 H 0.84749 0.67628 0.94128 0.0
H998 H 0.83748 0.6978 0.96552 0.0
H999 H 0.82373 0.68539 0.92592 0.0
C1000 C 0.80094 0.73054 0.04623 0.0
C1001 C 0.79103 0.73829 0.01145 0.0
C1002 C 0.80754 0.71107 0.0467 0.0
C1003 C 0.80452 0.69904 0.01234 0.0
C1004 C 0.79471 0.70674 0.97759 0.0
H1005 H 0.81754 0.57696 0.95031 0.0
H1006 H 0.81033 0.61217 0.95314 0.0
C1007 C 0.78813 0.72618 0.97705 0.0
C1008 C 0.81067 0.67813 0.01343 0.0
H1009 H 0.83772 0.64401 0.96228 0.0
C1010 C 0.8025 0.66565 0.04336 0.0
C1011 C 0.8238 0.67032 0.98426 0.0
C1012 C 0.83379 0.68318 0.95267 0.0
C1013 C 0.8066 0.64542 0.04406 0.0
C1014 C 0.81941 0.63757 0.01437 0.0
C1015 C 0.82783 0.65009 0.98487 0.0
C1016 C 0.82393 0.6163 0.01291 0.0
C1017 C 0.79672 0.63252 0.07572 0.0
C1018 C 0.83415 0.60704 0.04541 0.0
C1019 C 0.83823 0.58692 0.04396 0.0
C1020 C 0.8322 0.57571 0.0099 0.0
C1021 C 0.82214 0.58512 0.97721 0.0
C1022 C 0.81812 0.60524 0.97865 0.0
H1023 H 0.78414 0.64005 0.09041 0.0
H1024 H 0.79132 0.61871 0.06155 0.0
H1025 H 0.80754 0.62852 0.10019 0.0
H1026 H 0.83899 0.61538 0.07188 0.0
H1027 H 0.84587 0.58009 0.06977 0.0
H1028 H 0.78313 0.27576 0.56265 0.0
H1029 H 0.8175 0.26528 0.56087 0.0
H1030 H 0.82109 0.28396 0.43394 0.0
H1031 H 0.78684 0.29483 0.43557 0.0
H1032 H 0.83536 0.23775 0.51148 0.0
H1033 H 0.86791 0.31166 0.48643 0.0
H1034 H 0.84271 0.30821 0.50186 0.0
H1035 H 0.84952 0.30512 0.44896 0.0
C1036 C 0.79122 0.27771 0.53436 0.0
C1037 C 0.78223 0.28622 0.49929 0.0
C1038 C 0.81086 0.27168 0.5334 0.0
C1039 C 0.82191 0.27409 0.49747 0.0
C1040 C 0.81294 0.28234 0.46226 0.0
H1041 H 0.94313 0.24812 0.43579 0.0
H1042 H 0.90782 0.25514 0.43317 0.0
C1043 C 0.79333 0.28846 0.46321 0.0
C1044 C 0.84277 0.26776 0.49679 0.0
H1045 H 0.88954 0.28447 0.48191 0.0
C1046 C 0.84722 0.24796 0.50512 0.0
C1047 C 0.8582 0.28113 0.48851 0.0
C1048 C 0.85443 0.30275 0.48131 0.0
C1049 C 0.86671 0.24112 0.50492 0.0
C1050 C 0.8821 0.25449 0.49658 0.0
C1051 C 0.87765 0.27425 0.48806 0.0
C1052 C 0.90302 0.24846 0.49751 0.0
C1053 C 0.87068 0.21962 0.51307 0.0
C1054 C 0.91194 0.24225 0.53452 0.0
C1055 C 0.93209 0.23819 0.53612 0.0
C1056 C 0.94367 0.24031 0.5007 0.0
C1057 C 0.93457 0.24608 0.46345 0.0
C1058 C 0.91444 0.25022 0.46194 0.0
H1059 H 0.8572 0.21056 0.50908 0.0
H1060 H 0.88222 0.21404 0.49224 0.0
H1061 H 0.87602 0.21767 0.54525 0.0
H1062 H 0.90343 0.24108 0.56245 0.0
H1063 H 0.93867 0.23366 0.56519 0.0
H1064 H 0.71209 0.2456 0.44004 0.0
H1065 H 0.70401 0.21068 0.43923 0.0
H1066 H 0.69545 0.21135 0.5706 0.0
H1067 H 0.70313 0.24646 0.57162 0.0
H1068 H 0.72521 0.18257 0.4789 0.0
H1069 H 0.64797 0.18005 0.53219 0.0
H1070 H 0.65954 0.20249 0.51484 0.0
H1071 H 0.66425 0.19318 0.56599 0.0
C1072 C 0.70823 0.23841 0.46873 0.0
C1073 C 0.70838 0.24882 0.50595 0.0
C1074 C 0.70357 0.21844 0.46818 0.0
C1075 C 0.69894 0.20842 0.50476 0.0
C1076 C 0.69855 0.21885 0.54185 0.0
H1077 H 0.69498 0.08541 0.57232 0.0
H1078 H 0.6927 0.12135 0.57094 0.0
C1079 C 0.70309 0.23891 0.54241 0.0
C1080 C 0.69641 0.18677 0.50444 0.0
H1081 H 0.66506 0.14939 0.52983 0.0
C1082 C 0.71197 0.17535 0.48966 0.0
C1083 C 0.67918 0.17736 0.51877 0.0
C1084 C 0.6617 0.18889 0.5335 0.0
C1085 C 0.71093 0.15479 0.48939 0.0
C1086 C 0.69375 0.14537 0.50381 0.0
C1087 C 0.67816 0.15672 0.51866 0.0
C1088 C 0.69217 0.12369 0.50451 0.0
C1089 C 0.72842 0.14326 0.47456 0.0
C1090 C 0.69192 0.11315 0.4676 0.0
C1091 C 0.69332 0.09266 0.46826 0.0
C1092 C 0.69498 0.08237 0.50589 0.0
C1093 C 0.69402 0.09294 0.54285 0.0
C1094 C 0.69259 0.11344 0.54214 0.0
H1095 H 0.74186 0.15249 0.47242 0.0
H1096 H 0.73154 0.13061 0.49546 0.0
H1097 H 0.72511 0.13739 0.44349 0.0
H1098 H 0.69144 0.12084 0.43826 0.0
H1099 H 0.69416 0.085 0.43925 0.0
H1100 H 0.29114 0.2229 0.94433 0.0
H1101 H 0.32405 0.23709 0.94721 0.0
H1102 H 0.3311 0.21646 0.0724 0.0
H1103 H 0.29797 0.20238 0.0701 0.0
H1104 H 0.34037 0.25563 0.06262 0.0
H1105 H 0.3781 0.2113 0.94507 0.0
H1106 H 0.35553 0.22194 0.92637 0.0
H1107 H 0.35496 0.20399 0.96737 0.0
C1108 C 0.29973 0.22116 0.97239 0.0
C1109 C 0.29186 0.21154 0.00705 0.0
C1110 C 0.31862 0.22917 0.97385 0.0
C1111 C 0.33012 0.2276 0.00981 0.0
C1112 C 0.32249 0.21773 0.04426 0.0
H1113 H 0.4522 0.26864 0.02131 0.0
H1114 H 0.42259 0.24819 0.02481 0.0
C1115 C 0.30356 0.20969 0.04285 0.0
C1116 C 0.3495 0.23752 0.01224 0.0
H1117 H 0.39383 0.24145 0.96434 0.0
C1118 C 0.35215 0.25237 0.04146 0.0
C1119 C 0.36493 0.2331 0.98493 0.0
C1120 C 0.36335 0.21657 0.95444 0.0
C1121 C 0.36953 0.26346 0.04304 0.0
C1122 C 0.38451 0.25978 0.0142 0.0
C1123 C 0.38221 0.2444 0.98608 0.0
C1124 C 0.40243 0.27211 0.01199 0.0
C1125 C 0.37168 0.27905 0.07551 0.0
C1126 C 0.40089 0.29225 0.00293 0.0
C1127 C 0.41774 0.30394 0.00073 0.0
C1128 C 0.43649 0.29568 0.00729 0.0
C1129 C 0.43799 0.27542 0.01576 0.0
C1130 C 0.4211 0.26373 0.01797 0.0
H1131 H 0.36173 0.27628 0.10187 0.0
H1132 H 0.38706 0.27982 0.08727 0.0
H1133 H 0.36779 0.29356 0.06186 0.0
H1134 H 0.38664 0.29892 0.99721 0.0
H1135 H 0.41609 0.31941 0.99334 0.0
H1136 H 0.29208 0.75675 0.43929 0.0
H1137 H 0.30508 0.79029 0.43958 0.0
H1138 H 0.27651 0.80093 0.5552 0.0
H1139 H 0.26377 0.76741 0.55564 0.0
H1140 H 0.28539 0.82533 0.43981 0.0
H1141 H 0.33244 0.81849 0.57941 0.0
H1142 H 0.32206 0.79744 0.55372 0.0
H1143 H 0.30737 0.81158 0.58846 0.0
C1144 C 0.2886 0.7662 0.46486 0.0
C1145 C 0.27692 0.75935 0.49751 0.0
C1146 C 0.29606 0.78536 0.46497 0.0
C1147 C 0.29204 0.79799 0.49774 0.0
C1148 C 0.28019 0.79128 0.53009 0.0
H1149 H 0.29768 0.92483 0.50047 0.0
H1150 H 0.28795 0.89032 0.49749 0.0
C1151 C 0.27281 0.77213 0.53012 0.0
C1152 C 0.29969 0.8184 0.49759 0.0
H1153 H 0.32635 0.85108 0.55448 0.0
C1154 C 0.29447 0.83093 0.46472 0.0
C1155 C 0.31179 0.82559 0.52979 0.0
C1156 C 0.31893 0.81252 0.56463 0.0
C1157 C 0.30055 0.85065 0.46375 0.0
C1158 C 0.31181 0.8581 0.497 0.0
C1159 C 0.31751 0.84541 0.52927 0.0
C1160 C 0.31772 0.87905 0.49907 0.0
C1161 C 0.29502 0.86322 0.42692 0.0
C1162 C 0.33767 0.88417 0.50231 0.0
C1163 C 0.34328 0.90389 0.50479 0.0
C1164 C 0.32903 0.9189 0.50421 0.0
C1165 C 0.30904 0.91367 0.50137 0.0
C1166 C 0.30345 0.89395 0.49906 0.0
H1167 H 0.29168 0.85413 0.39948 0.0
H1168 H 0.28164 0.87183 0.43408 0.0
H1169 H 0.30699 0.87367 0.41907 0.0
H1170 H 0.34892 0.87289 0.50277 0.0
H1171 H 0.35878 0.90736 0.50763 0.0
H1172 H 0.71808 0.75607 0.06004 0.0
H1173 H 0.68405 0.74445 0.05865 0.0
H1174 H 0.67346 0.77709 0.94614 0.0
H1175 H 0.70753 0.78841 0.94671 0.0
H1176 H 0.6506 0.76563 0.06173 0.0
H1177 H 0.65173 0.72382 0.91637 0.0
H1178 H 0.67392 0.73207 0.94181 0.0
H1179 H 0.65989 0.74869 0.90961 0.0
C1180 C 0.70855 0.76068 0.03483 0.0
C1181 C 0.71556 0.77307 0.00333 0.0
C1182 C 0.68912 0.754 0.03408 0.0
C1183 C 0.67634 0.75958 0.00186 0.0
C1184 C 0.68322 0.77213 0.97066 0.0
H1185 H 0.55291 0.75938 0.9536 0.0
H1186 H 0.58865 0.76273 0.95352 0.0
C1187 C 0.70268 0.77871 0.97121 0.0
C1188 C 0.65552 0.75315 0.00201 0.0
H1189 H 0.61987 0.73153 0.94301 0.0
C1190 C 0.64394 0.75792 0.03604 0.0
C1191 C 0.64689 0.74303 0.96849 0.0
C1192 C 0.6588 0.73642 0.9322 0.0
C1193 C 0.62379 0.75355 0.03675 0.0
C1194 C 0.61507 0.74407 0.00264 0.0
C1195 C 0.62667 0.73886 0.96903 0.0
C1196 C 0.59366 0.74053 0.00046 0.0
C1197 C 0.61177 0.7597 0.07326 0.0
C1198 C 0.58476 0.72657 0.02625 0.0
C1199 C 0.5643 0.72442 0.02607 0.0
C1200 C 0.55243 0.73626 0.00015 0.0
C1201 C 0.56156 0.74981 0.97349 0.0
C1202 C 0.58199 0.75185 0.97355 0.0
H1203 H 0.62022 0.76929 0.09456 0.0
H1204 H 0.59833 0.76765 0.0628 0.0
H1205 H 0.60702 0.74643 0.0906 0.0
H1206 H 0.59362 0.71757 0.04692 0.0
H1207 H 0.55778 0.71364 0.04652 0.0
loop_
_geom_bond_atom_site_label_1
_geom_bond_atom_site_label_2
_geom_bond_distance
_geom_bond_site_symmetry_2
_ccdc_geom_bond_type
Fe0 O2 1.918 . S
Fe0 O5 1.997 . S
Fe0 O6 2.002 . S
Fe0 O11 1.976 . S
Fe0 O14 1.996 . S
Fe1 O2 1.918 1_556 S
Fe1 O9 1.997 . S
Fe1 O12 1.996 . S
Fe1 O16 1.976 . S
Fe1 O19 2.002 . S
O2 Fe0 1.918 . S
O2 Fe1 1.918 1_554 S
O2 Fe3 1.918 . S
Fe3 O2 1.918 . S
Fe3 O4 2.002 . S
Fe3 O13 1.976 . S
Fe3 O17 1.996 1_554 S
Fe3 O20 1.997 1_554 S
O4 Fe3 2.002 . S
O4 C21 1.295 . S
O5 Fe0 1.997 . S
O5 C21 1.235 . S
O6 Fe0 2.002 . S
O6 C7 1.295 . S
C7 O6 1.295 . S
C7 O9 1.235 1_554 S
C8 O13 1.287 . S
C8 O14 1.255 . S
O9 Fe1 1.997 . S
O9 C7 1.235 1_556 S
C10 O16 1.287 . S
C10 O17 1.255 . S
O11 Fe0 1.976 . S
O11 C18 1.287 . S
O12 Fe1 1.996 . S
O12 C18 1.255 1_556 S
O13 Fe3 1.976 . S
O13 C8 1.287 . S
O14 Fe0 1.996 . S
O14 C8 1.255 . S
C15 O19 1.295 . S
C15 O20 1.235 . S
O16 Fe1 1.976 . S
O16 C10 1.287 . S
O17 Fe3 1.996 1_556 S
O17 C10 1.255 . S
C18 O11 1.287 . S
C18 O12 1.255 1_554 S
O19 Fe1 2.002 . S
O19 C15 1.295 . S
O20 Fe3 1.997 1_556 S
O20 C15 1.235 . S
C21 O4 1.295 . S
C21 O5 1.235 . S
Fe22 O24 1.918 . S
Fe22 O27 1.997 . S
Fe22 O28 2.002 . S
Fe22 O33 1.976 . S
Fe22 O36 1.996 . S
Fe23 O24 1.918 . S
Fe23 O31 1.997 . S
Fe23 O34 1.996 . S
Fe23 O38 1.976 . S
Fe23 O41 2.002 . S
O24 Fe22 1.918 . S
O24 Fe23 1.918 . S
O24 Fe25 1.918 . S
Fe25 O24 1.918 . S
Fe25 O26 2.002 . S
Fe25 O35 1.976 . S
Fe25 O39 1.996 . S
Fe25 O42 1.997 . S
O26 Fe25 2.002 . S
O26 C43 1.295 . S
O27 Fe22 1.997 . S
O27 C43 1.235 . S
O28 Fe22 2.002 . S
O28 C29 1.295 . S
C29 O28 1.295 . S
C29 O31 1.235 . S
C30 O35 1.287 . S
C30 O36 1.255 . S
O31 Fe23 1.997 . S
O31 C29 1.235 . S
C32 O38 1.287 . S
C32 O39 1.255 . S
O33 Fe22 1.976 . S
O33 C40 1.287 . S
O34 Fe23 1.996 . S
O34 C40 1.255 . S
O35 Fe25 1.976 . S
O35 C30 1.287 . S
O36 Fe22 1.996 . S
O36 C30 1.255 . S
C37 O41 1.295 . S
C37 O42 1.235 . S
O38 Fe23 1.976 . S
O38 C32 1.287 . S
O39 Fe25 1.996 . S
O39 C32 1.255 . S
C40 O33 1.287 . S
C40 O34 1.255 . S
O41 Fe23 2.002 . S
O41 C37 1.295 . S
O42 Fe25 1.997 . S
O42 C37 1.235 . S
C43 O26 1.295 . S
C43 O27 1.235 . S
Fe44 O46 1.918 1_556 S
Fe44 O49 1.997 . S
Fe44 O50 2.002 . S
Fe44 O55 1.976 . S
Fe44 O58 1.996 . S
Fe45 O46 1.918 . S
Fe45 O53 1.997 . S
Fe45 O56 1.996 . S
Fe45 O60 1.976 . S
Fe45 O63 2.002 . S
O46 Fe44 1.918 1_554 S
O46 Fe45 1.918 . S
O46 Fe47 1.918 . S
Fe47 O46 1.918 . S
Fe47 O48 2.002 1_554 S
Fe47 O57 1.976 1_554 S
Fe47 O61 1.996 . S
Fe47 O64 1.997 . S
O48 Fe47 2.002 1_556 S
O48 C65 1.295 . S
O49 Fe44 1.997 . S
O49 C65 1.235 . S
O50 Fe44 2.002 . S
O50 C51 1.295 1_556 S
C51 O50 1.295 1_554 S
C51 O53 1.235 . S
C52 O57 1.287 . S
C52 O58 1.255 . S
O53 Fe45 1.997 . S
O53 C51 1.235 . S
C54 O60 1.287 . S
C54 O61 1.255 . S
O55 Fe44 1.976 . S
O55 C62 1.287 1_556 S
O56 Fe45 1.996 . S
O56 C62 1.255 . S
O57 Fe47 1.976 1_556 S
O57 C52 1.287 . S
O58 Fe44 1.996 . S
O58 C52 1.255 . S
C59 O63 1.295 . S
C59 O64 1.235 . S
O60 Fe45 1.976 . S
O60 C54 1.287 . S
O61 Fe47 1.996 . S
O61 C54 1.255 . S
C62 O55 1.287 1_554 S
C62 O56 1.255 . S
O63 Fe45 2.002 . S
O63 C59 1.295 . S
O64 Fe47 1.997 . S
O64 C59 1.235 . S
C65 O48 1.295 . S
C65 O49 1.235 . S
Fe66 O68 1.918 . S
Fe66 O71 1.997 . S
Fe66 O72 2.002 . S
Fe66 O77 1.976 . S
Fe66 O80 1.996 . S
Fe67 O68 1.918 . S
Fe67 O75 1.997 . S
Fe67 O78 1.996 . S
Fe67 O82 1.976 . S
Fe67 O85 2.002 . S
O68 Fe66 1.918 . S
O68 Fe67 1.918 . S
O68 Fe69 1.918 . S
Fe69 O68 1.918 . S
Fe69 O70 2.002 . S
Fe69 O79 1.976 . S
Fe69 O83 1.996 . S
Fe69 O86 1.997 . S
O70 Fe69 2.002 . S
O70 C87 1.295 . S
O71 Fe66 1.997 . S
O71 C87 1.235 . S
O72 Fe66 2.002 . S
O72 C73 1.295 . S
C73 O72 1.295 . S
C73 O75 1.235 . S
C74 O79 1.287 . S
C74 O80 1.255 . S
O75 Fe67 1.997 . S
O75 C73 1.235 . S
C76 O82 1.287 . S
C76 O83 1.255 . S
O77 Fe66 1.976 . S
O77 C84 1.287 . S
O78 Fe67 1.996 . S
O78 C84 1.255 . S
O79 Fe69 1.976 . S
O79 C74 1.287 . S
O80 Fe66 1.996 . S
O80 C74 1.255 . S
C81 O85 1.295 . S
C81 O86 1.235 . S
O82 Fe67 1.976 . S
O82 C76 1.287 . S
O83 Fe69 1.996 . S
O83 C76 1.255 . S
C84 O77 1.287 . S
C84 O78 1.255 . S
O85 Fe67 2.002 . S
O85 C81 1.295 . S
O86 Fe69 1.997 . S
O86 C81 1.235 . S
C87 O70 1.295 . S
C87 O71 1.235 . S
P88 O99 1.490 . S
P88 C102 1.812 . S
P88 C108 1.803 . S
P88 C114 1.819 1_554 S
H89 C103 0.941 . S
H90 C104 0.939 . S
H91 C106 0.940 . S
H92 C107 0.940 . S
H93 C109 0.939 . S
H94 C110 0.942 . S
H95 C112 0.940 . S
H96 C113 0.939 . S
H97 C115 0.941 . S
H98 C119 0.939 . S
O99 P88 1.490 . S
H100 C116 0.939 . S
H101 C118 0.940 . S
C102 P88 1.812 . S
C102 C103 1.389 . S
C102 C107 1.391 . S
C103 H89 0.941 . S
C103 C102 1.389 . S
C103 C104 1.397 . S
C104 H90 0.939 . S
C104 C103 1.397 . S
C104 C105 1.378 . S
C105 C104 1.378 . S
C105 C106 1.378 . S
C106 H91 0.940 . S
C106 C105 1.378 . S
C106 C107 1.396 . S
C107 H92 0.940 . S
C107 C102 1.391 . S
C107 C106 1.396 . S
C108 P88 1.803 . S
C108 C109 1.378 1_554 S
C108 C113 1.400 . S
C109 H93 0.939 . S
C109 C108 1.378 1_556 S
C109 C110 1.361 . S
C110 H94 0.942 . S
C110 C109 1.361 . S
C110 C111 1.369 1_556 S
C111 C110 1.369 1_554 S
C111 C112 1.404 . S
C112 H95 0.940 . S
C112 C111 1.404 . S
C112 C113 1.389 . S
C113 H96 0.939 . S
C113 C108 1.400 . S
C113 C112 1.389 . S
C114 P88 1.819 1_556 S
C114 C115 1.391 . S
C114 C119 1.391 . S
C115 H97 0.941 . S
C115 C114 1.391 . S
C115 C116 1.396 . S
C116 H100 0.939 . S
C116 C115 1.396 . S
C116 C117 1.397 . S
C117 C116 1.397 . S
C117 C118 1.385 . S
C118 H101 0.940 . S
C118 C117 1.385 . S
C118 C119 1.388 . S
C119 H98 0.939 . S
C119 C114 1.391 . S
C119 C118 1.388 . S
P120 O131 1.490 . S
P120 C134 1.812 . S
P120 C140 1.803 1_655 S
P120 C146 1.819 . S
H121 C135 0.941 . S
H122 C136 0.939 . S
H123 C138 0.940 . S
H124 C139 0.940 . S
H125 C141 0.939 . S
H126 C142 0.942 . S
H127 C144 0.940 . S
H128 C145 0.940 1_655 S
H129 C147 0.941 . S
H130 C151 0.939 . S
O131 P120 1.490 . S
H132 C148 0.939 . S
H133 C150 0.940 . S
C134 P120 1.812 . S
C134 C135 1.389 . S
C134 C139 1.391 . S
C135 H121 0.941 . S
C135 C134 1.389 . S
C135 C136 1.397 . S
C136 H122 0.939 . S
C136 C135 1.397 . S
C136 C137 1.378 . S
C137 C136 1.378 . S
C137 C138 1.378 . S
C138 H123 0.940 . S
C138 C137 1.378 . S
C138 C139 1.396 . S
C139 H124 0.940 . S
C139 C134 1.391 . S
C139 C138 1.396 . S
C140 P120 1.803 1_455 S
C140 C141 1.378 . S
C140 C145 1.400 . S
C141 H125 0.939 . S
C141 C140 1.378 . S
C141 C142 1.361 . S
C142 H126 0.942 . S
C142 C141 1.361 . S
C142 C143 1.369 . S
C143 C142 1.369 . S
C143 C144 1.404 . S
C144 H127 0.940 . S
C144 C143 1.404 . S
C144 C145 1.389 . S
C145 H128 0.940 1_455 S
C145 C140 1.400 . S
C145 C144 1.389 . S
C146 P120 1.819 . S
C146 C147 1.391 . S
C146 C151 1.391 . S
C147 H129 0.941 . S
C147 C146 1.391 . S
C147 C148 1.396 . S
C148 H132 0.939 . S
C148 C147 1.396 . S
C148 C149 1.397 . S
C149 C148 1.397 . S
C149 C150 1.385 . S
C150 H133 0.940 . S
C150 C149 1.385 . S
C150 C151 1.388 . S
C151 H130 0.939 . S
C151 C146 1.391 . S
C151 C150 1.388 . S
P152 O163 1.490 . S
P152 C166 1.812 1_554 S
P152 C172 1.803 . S
P152 C178 1.819 . S
H153 C167 0.941 . S
H154 C168 0.939 . S
H155 C170 0.940 . S
H156 C171 0.940 . S
H157 C173 0.939 . S
H158 C174 0.942 . S
H159 C176 0.940 . S
H160 C177 0.939 . S
H161 C179 0.941 . S
H162 C183 0.939 . S
O163 P152 1.490 . S
H164 C180 0.939 . S
H165 C182 0.940 . S
C166 P152 1.812 1_556 S
C166 C167 1.389 . S
C166 C171 1.391 . S
C167 H153 0.941 . S
C167 C166 1.389 . S
C167 C168 1.397 . S
C168 H154 0.939 . S
C168 C167 1.397 . S
C168 C169 1.378 . S
C169 C168 1.378 . S
C169 C170 1.378 . S
C170 H155 0.940 . S
C170 C169 1.378 . S
C170 C171 1.396 . S
C171 H156 0.940 . S
C171 C166 1.391 . S
C171 C170 1.396 . S
C172 P152 1.803 . S
C172 C173 1.378 . S
C172 C177 1.400 1_554 S
C173 H157 0.939 . S
C173 C172 1.378 . S
C173 C174 1.361 . S
C174 H158 0.942 . S
C174 C173 1.361 . S
C174 C175 1.369 . S
C175 C174 1.369 . S
C175 C176 1.404 1_554 S
C176 H159 0.940 . S
C176 C175 1.404 1_556 S
C176 C177 1.389 . S
C177 H160 0.939 . S
C177 C172 1.400 1_556 S
C177 C176 1.389 . S
C178 P152 1.819 . S
C178 C179 1.391 . S
C178 C183 1.391 . S
C179 H161 0.941 . S
C179 C178 1.391 . S
C179 C180 1.396 . S
C180 H164 0.939 . S
C180 C179 1.396 . S
C180 C181 1.397 . S
C181 C180 1.397 . S
C181 C182 1.385 . S
C182 H165 0.940 . S
C182 C181 1.385 . S
C182 C183 1.388 . S
C183 H162 0.939 . S
C183 C178 1.391 . S
C183 C182 1.388 . S
P184 O195 1.490 . S
P184 C198 1.812 . S
P184 C204 1.748 1_455 S
P184 C210 1.819 . S
H185 C199 0.941 . S
H186 C200 0.939 . S
H187 C202 0.940 . S
H188 C203 0.940 . S
H189 C205 0.939 . S
H190 C206 0.942 . S
H191 C208 0.940 . S
H192 C209 0.939 . S
H193 C211 0.941 . S
H194 C215 0.939 . S
O195 P184 1.490 . S
H196 C212 0.939 . S
H197 C214 0.940 . S
C198 P184 1.812 . S
C198 C199 1.389 . S
C198 C203 1.391 . S
C199 H185 0.941 . S
C199 C198 1.389 . S
C199 C200 1.397 . S
C200 H186 0.939 . S
C200 C199 1.397 . S
C200 C201 1.378 . S
C201 C200 1.378 . S
C201 C202 1.378 . S
C202 H187 0.940 . S
C202 C201 1.378 . S
C202 C203 1.396 . S
C203 H188 0.940 . S
C203 C198 1.391 . S
C203 C202 1.396 . S
C204 P184 1.748 1_655 S
C204 C205 1.414 . S
C204 C209 1.425 . S
C205 H189 0.939 . S
C205 C204 1.414 . S
C205 C206 1.361 . S
C206 H190 0.942 . S
C206 C205 1.361 . S
C206 C207 1.369 . S
C207 C206 1.369 . S
C207 C208 1.404 . S
C208 H191 0.940 . S
C208 C207 1.404 . S
C208 C209 1.389 . S
C209 H192 0.939 . S
C209 C204 1.425 . S
C209 C208 1.389 . S
C210 P184 1.819 . S
C210 C211 1.391 . S
C210 C215 1.391 . S
C211 H193 0.941 . S
C211 C210 1.391 . S
C211 C212 1.396 . S
C212 H196 0.939 . S
C212 C211 1.396 . S
C212 C213 1.397 . S
C213 C212 1.397 . S
C213 C214 1.385 . S
C214 H197 0.940 . S
C214 C213 1.385 . S
C214 C215 1.388 . S
C215 H194 0.939 . S
C215 C210 1.391 . S
C215 C214 1.388 . S
P216 O227 1.490 . S
P216 C230 1.812 . S
P216 C236 1.803 1_565 S
P216 C242 1.819 . S
H217 C231 0.941 . S
H218 C232 0.939 . S
H219 C234 0.940 . S
H220 C235 0.940 . S
H221 C237 0.939 . S
H222 C238 0.942 . S
H223 C240 0.940 . S
H224 C241 0.939 . S
H225 C243 0.941 . S
H226 C247 0.939 1_545 S
O227 P216 1.490 . S
H228 C244 0.939 . S
H229 C246 0.940 . S
C230 P216 1.812 . S
C230 C231 1.389 . S
C230 C235 1.391 . S
C231 H217 0.941 . S
C231 C230 1.389 . S
C231 C232 1.397 . S
C232 H218 0.939 . S
C232 C231 1.397 . S
C232 C233 1.378 . S
C233 C232 1.378 . S
C233 C234 1.378 . S
C234 H219 0.940 . S
C234 C233 1.378 . S
C234 C235 1.396 . S
C235 H220 0.940 . S
C235 C230 1.391 . S
C235 C234 1.396 . S
C236 P216 1.803 1_545 S
C236 C237 1.378 . S
C236 C241 1.400 . S
C237 H221 0.939 . S
C237 C236 1.378 . S
C237 C238 1.361 . S
C238 H222 0.942 . S
C238 C237 1.361 . S
C238 C239 1.369 . S
C239 C238 1.369 . S
C239 C240 1.404 . S
C240 H223 0.940 . S
C240 C239 1.404 . S
C240 C241 1.389 . S
C241 H224 0.939 . S
C241 C236 1.400 . S
C241 C240 1.389 . S
C242 P216 1.819 . S
C242 C243 1.391 . S
C242 C247 1.391 . S
C243 H225 0.941 . S
C243 C242 1.391 . S
C243 C244 1.396 . S
C244 H228 0.939 . S
C244 C243 1.396 . S
C244 C245 1.397 . S
C245 C244 1.397 . S
C245 C246 1.385 . S
C246 H229 0.940 . S
C246 C245 1.385 . S
C246 C247 1.388 . S
C247 H226 0.939 1_565 S
C247 C242 1.391 . S
C247 C246 1.388 . S
P248 O259 1.490 . S
P248 C262 1.812 . S
P248 C268 1.803 . S
P248 C274 1.819 1_556 S
H249 C263 0.941 . S
H250 C264 0.939 . S
H251 C266 0.940 . S
H252 C267 0.940 . S
H253 C269 0.939 . S
H254 C270 0.942 . S
H255 C272 0.940 . S
H256 C273 0.939 . S
H257 C275 0.941 . S
H258 C279 0.939 . S
O259 P248 1.490 . S
H260 C276 0.939 . S
H261 C278 0.940 . S
C262 P248 1.812 . S
C262 C263 1.389 . S
C262 C267 1.391 . S
C263 H249 0.941 . S
C263 C262 1.389 . S
C263 C264 1.397 . S
C264 H250 0.939 . S
C264 C263 1.397 . S
C264 C265 1.378 . S
C265 C264 1.378 . S
C265 C266 1.378 . S
C266 H251 0.940 . S
C266 C265 1.378 . S
C266 C267 1.396 . S
C267 H252 0.940 . S
C267 C262 1.391 . S
C267 C266 1.396 . S
C268 P248 1.803 . S
C268 C269 1.378 1_556 S
C268 C273 1.400 . S
C269 H253 0.939 . S
C269 C268 1.378 1_554 S
C269 C270 1.361 . S
C270 H254 0.942 . S
C270 C269 1.361 . S
C270 C271 1.369 . S
C271 C270 1.369 . S
C271 C272 1.404 1_554 S
C272 H255 0.940 . S
C272 C271 1.404 1_556 S
C272 C273 1.389 . S
C273 H256 0.939 . S
C273 C268 1.400 . S
C273 C272 1.389 . S
C274 P248 1.819 1_554 S
C274 C275 1.391 . S
C274 C279 1.391 . S
C275 H257 0.941 . S
C275 C274 1.391 . S
C275 C276 1.396 . S
C276 H260 0.939 . S
C276 C275 1.396 . S
C276 C277 1.397 . S
C277 C276 1.397 . S
C277 C278 1.385 . S
C278 H261 0.940 . S
C278 C277 1.385 . S
C278 C279 1.388 . S
C279 H258 0.939 . S
C279 C274 1.391 . S
C279 C278 1.388 . S
P280 O291 1.490 . S
P280 C294 1.812 . S
P280 C300 1.803 1_545 S
P280 C306 1.819 . S
H281 C295 0.941 . S
H282 C296 0.939 . S
H283 C298 0.940 . S
H284 C299 0.940 . S
H285 C301 0.939 . S
H286 C302 0.942 . S
H287 C304 0.940 . S
H288 C305 0.939 . S
H289 C307 0.941 . S
H290 C311 0.939 . S
O291 P280 1.490 . S
H292 C308 0.939 . S
H293 C310 0.940 . S
C294 P280 1.812 . S
C294 C295 1.389 . S
C294 C299 1.391 . S
C295 H281 0.941 . S
C295 C294 1.389 . S
C295 C296 1.397 . S
C296 H282 0.939 . S
C296 C295 1.397 . S
C296 C297 1.378 . S
C297 C296 1.378 . S
C297 C298 1.378 . S
C298 H283 0.940 . S
C298 C297 1.378 . S
C298 C299 1.396 . S
C299 H284 0.940 . S
C299 C294 1.391 . S
C299 C298 1.396 . S
C300 P280 1.803 1_565 S
C300 C301 1.378 . S
C300 C305 1.400 . S
C301 H285 0.939 . S
C301 C300 1.378 . S
C301 C302 1.361 . S
C302 H286 0.942 . S
C302 C301 1.361 . S
C302 C303 1.369 . S
C303 C302 1.369 . S
C303 C304 1.404 . S
C304 H287 0.940 . S
C304 C303 1.404 . S
C304 C305 1.389 . S
C305 H288 0.939 . S
C305 C300 1.400 . S
C305 C304 1.389 . S
C306 P280 1.819 . S
C306 C307 1.391 . S
C306 C311 1.391 . S
C307 H289 0.941 . S
C307 C306 1.391 . S
C307 C308 1.396 . S
C308 H292 0.939 . S
C308 C307 1.396 . S
C308 C309 1.397 . S
C309 C308 1.397 . S
C309 C310 1.385 . S
C310 H293 0.940 . S
C310 C309 1.385 . S
C310 C311 1.388 . S
C311 H290 0.939 . S
C311 C306 1.391 . S
C311 C310 1.388 . S
P312 O323 1.490 . S
P312 C326 1.812 . S
P312 C332 1.803 . S
P312 C338 1.819 1_554 S
H313 C327 0.941 . S
H314 C328 0.939 . S
H315 C330 0.940 . S
H316 C331 0.940 . S
H317 C333 0.939 . S
H318 C334 0.942 . S
H319 C336 0.940 . S
H320 C337 0.939 . S
H321 C339 0.941 . S
H322 C343 0.939 . S
O323 P312 1.490 . S
H324 C340 0.939 . S
H325 C342 0.940 . S
C326 P312 1.812 . S
C326 C327 1.389 . S
C326 C331 1.391 . S
C327 H313 0.941 . S
C327 C326 1.389 . S
C327 C328 1.397 . S
C328 H314 0.939 . S
C328 C327 1.397 . S
C328 C329 1.378 . S
C329 C328 1.378 . S
C329 C330 1.378 . S
C330 H315 0.940 . S
C330 C329 1.378 . S
C330 C331 1.396 . S
C331 H316 0.940 . S
C331 C326 1.391 . S
C331 C330 1.396 . S
C332 P312 1.803 . S
C332 C333 1.378 1_554 S
C332 C337 1.400 . S
C333 H317 0.939 . S
C333 C332 1.378 1_556 S
C333 C334 1.361 . S
C334 H318 0.942 . S
C334 C333 1.361 . S
C334 C335 1.369 1_556 S
C335 C334 1.369 1_554 S
C335 C336 1.404 . S
C336 H319 0.940 . S
C336 C335 1.404 . S
C336 C337 1.389 . S
C337 H320 0.939 . S
C337 C332 1.400 . S
C337 C336 1.389 . S
C338 P312 1.819 1_556 S
C338 C339 1.391 . S
C338 C343 1.391 . S
C339 H321 0.941 . S
C339 C338 1.391 . S
C339 C340 1.396 . S
C340 H324 0.939 . S
C340 C339 1.396 . S
C340 C341 1.397 . S
C341 C340 1.397 . S
C341 C342 1.385 . S
C342 H325 0.940 . S
C342 C341 1.385 . S
C342 C343 1.388 . S
C343 H322 0.939 . S
C343 C338 1.391 . S
C343 C342 1.388 . S
H344 C352 0.929 . S
H345 C354 0.930 . S
H346 C356 0.930 . S
H347 C359 0.929 . S
H348 C362 0.930 . S
H349 C364 0.960 . S
H350 C364 0.960 . S
H351 C364 0.960 . S
C352 H344 0.929 . S
C352 C353 1.377 . S
C352 C354 1.384 . S
C353 C352 1.377 . S
C353 C359 1.390 . S
C354 H345 0.930 . S
C354 C352 1.384 . S
C354 C355 1.372 . S
C355 C354 1.372 . S
C355 C356 1.400 . S
C355 C360 1.490 . S
C356 H346 0.930 . S
C356 C355 1.400 . S
C356 C359 1.386 . S
H357 C373 0.930 . S
H358 C374 0.931 . S
C359 H347 0.929 . S
C359 C353 1.390 . S
C359 C356 1.386 . S
C360 C355 1.490 . S
C360 C362 1.395 . S
C360 C363 1.403 . S
H361 C367 0.930 . S
C362 H348 0.930 . S
C362 C360 1.395 . S
C362 C365 1.403 . S
C363 C360 1.403 . S
C363 C364 1.524 . S
C363 C367 1.400 . S
C364 H349 0.960 . S
C364 H350 0.960 . S
C364 H351 0.960 . S
C364 C363 1.524 . S
C365 C362 1.403 . S
C365 C366 1.392 . S
C365 C369 1.495 . S
C366 C365 1.392 . S
C366 C367 1.385 . S
C366 C368 1.478 . S
C367 H361 0.930 . S
C367 C363 1.400 . S
C367 C366 1.385 . S
C368 C366 1.478 . S
C368 C370 1.381 . S
C368 C374 1.383 . S
C369 C365 1.495 . S
C369 H375 0.959 . S
C369 H376 0.961 . S
C369 H377 0.960 . S
C370 C368 1.381 . S
C370 C371 1.394 . S
C370 H378 0.930 . S
C371 C370 1.394 . S
C371 C372 1.383 . S
C371 H379 0.929 . S
C372 C371 1.383 . S
C372 C373 1.377 . S
C373 H357 0.930 . S
C373 C372 1.377 . S
C373 C374 1.379 . S
C374 H358 0.931 . S
C374 C368 1.383 . S
C374 C373 1.379 . S
H375 C369 0.959 . S
H376 C369 0.961 . S
H377 C369 0.960 . S
H378 C370 0.930 . S
H379 C371 0.929 . S
H380 C388 0.929 . S
H381 C390 0.930 . S
H382 C392 0.930 . S
H383 C395 0.929 . S
H384 C398 0.930 . S
H385 C400 0.960 . S
H386 C400 0.960 . S
H387 C400 0.960 . S
C388 H380 0.929 . S
C388 C389 1.377 . S
C388 C390 1.384 . S
C389 C388 1.377 . S
C389 C395 1.390 . S
C390 H381 0.930 . S
C390 C388 1.384 . S
C390 C391 1.372 . S
C391 C390 1.372 . S
C391 C392 1.400 . S
C391 C396 1.490 . S
C392 H382 0.930 . S
C392 C391 1.400 . S
C392 C395 1.386 . S
H393 C409 0.930 . S
H394 C410 0.931 . S
C395 H383 0.929 . S
C395 C389 1.390 . S
C395 C392 1.386 . S
C396 C391 1.490 . S
C396 C398 1.395 . S
C396 C399 1.403 . S
H397 C403 0.930 . S
C398 H384 0.930 . S
C398 C396 1.395 . S
C398 C401 1.403 . S
C399 C396 1.403 . S
C399 C400 1.524 . S
C399 C403 1.400 . S
C400 H385 0.960 . S
C400 H386 0.960 . S
C400 H387 0.960 . S
C400 C399 1.524 . S
C401 C398 1.403 . S
C401 C402 1.392 . S
C401 C405 1.495 . S
C402 C401 1.392 . S
C402 C403 1.385 . S
C402 C404 1.478 . S
C403 H397 0.930 . S
C403 C399 1.400 . S
C403 C402 1.385 . S
C404 C402 1.478 . S
C404 C406 1.381 . S
C404 C410 1.383 . S
C405 C401 1.495 . S
C405 H411 0.959 . S
C405 H412 0.961 . S
C405 H413 0.960 . S
C406 C404 1.381 . S
C406 C407 1.394 . S
C406 H414 0.930 . S
C407 C406 1.394 . S
C407 C408 1.383 . S
C407 H415 0.929 . S
C408 C407 1.383 . S
C408 C409 1.377 . S
C409 H393 0.930 . S
C409 C408 1.377 . S
C409 C410 1.379 . S
C410 H394 0.931 . S
C410 C404 1.383 . S
C410 C409 1.379 . S
H411 C405 0.959 . S
H412 C405 0.961 . S
H413 C405 0.960 . S
H414 C406 0.930 . S
H415 C407 0.929 . S
H416 C424 0.929 . S
H417 C426 0.930 . S
H418 C428 0.930 . S
H419 C431 0.929 . S
H420 C434 0.930 . S
H421 C436 0.960 . S
H422 C436 0.960 . S
H423 C436 0.960 . S
C424 H416 0.929 . S
C424 C425 1.377 . S
C424 C426 1.384 . S
C425 C424 1.377 . S
C425 C431 1.390 . S
C426 H417 0.930 . S
C426 C424 1.384 . S
C426 C427 1.372 . S
C427 C426 1.372 . S
C427 C428 1.400 . S
C427 C432 1.490 . S
C428 H418 0.930 . S
C428 C427 1.400 . S
C428 C431 1.386 . S
H429 C445 0.930 . S
H430 C446 0.931 . S
C431 H419 0.929 . S
C431 C425 1.390 . S
C431 C428 1.386 . S
C432 C427 1.490 . S
C432 C434 1.395 . S
C432 C435 1.403 . S
H433 C439 0.930 . S
C434 H420 0.930 . S
C434 C432 1.395 . S
C434 C437 1.403 . S
C435 C432 1.403 . S
C435 C436 1.524 . S
C435 C439 1.400 . S
C436 H421 0.960 . S
C436 H422 0.960 . S
C436 H423 0.960 . S
C436 C435 1.524 . S
C437 C434 1.403 . S
C437 C438 1.392 . S
C437 C441 1.495 . S
C438 C437 1.392 . S
C438 C439 1.385 . S
C438 C440 1.478 . S
C439 H433 0.930 . S
C439 C435 1.400 . S
C439 C438 1.385 . S
C440 C438 1.478 . S
C440 C442 1.381 . S
C440 C446 1.383 . S
C441 C437 1.495 . S
C441 H447 0.959 . S
C441 H448 0.961 . S
C441 H449 0.960 . S
C442 C440 1.381 . S
C442 C443 1.394 . S
C442 H450 0.930 . S
C443 C442 1.394 . S
C443 C444 1.383 . S
C443 H451 0.929 . S
C444 C443 1.383 . S
C444 C445 1.377 . S
C445 H429 0.930 . S
C445 C444 1.377 . S
C445 C446 1.379 . S
C446 H430 0.931 . S
C446 C440 1.383 . S
C446 C445 1.379 . S
H447 C441 0.959 . S
H448 C441 0.961 . S
H449 C441 0.960 . S
H450 C442 0.930 . S
H451 C443 0.929 . S
H452 C460 0.929 . S
H453 C462 0.930 . S
H454 C464 0.930 . S
H455 C467 0.929 . S
H456 C470 0.930 . S
H457 C472 0.960 . S
H458 C472 0.960 . S
H459 C472 0.960 . S
C460 H452 0.929 . S
C460 C461 1.377 . S
C460 C462 1.384 . S
C461 C460 1.377 . S
C461 C467 1.390 . S
C462 H453 0.930 . S
C462 C460 1.384 . S
C462 C463 1.372 . S
C463 C462 1.372 . S
C463 C464 1.400 . S
C463 C468 1.490 . S
C464 H454 0.930 . S
C464 C463 1.400 . S
C464 C467 1.386 . S
H465 C481 0.930 . S
H466 C482 0.931 . S
C467 H455 0.929 . S
C467 C461 1.390 . S
C467 C464 1.386 . S
C468 C463 1.490 . S
C468 C470 1.395 . S
C468 C471 1.403 . S
H469 C475 0.930 . S
C470 H456 0.930 . S
C470 C468 1.395 . S
C470 C473 1.403 . S
C471 C468 1.403 . S
C471 C472 1.524 . S
C471 C475 1.400 . S
C472 H457 0.960 . S
C472 H458 0.960 . S
C472 H459 0.960 . S
C472 C471 1.524 . S
C473 C470 1.403 . S
C473 C474 1.392 . S
C473 C477 1.495 . S
C474 C473 1.392 . S
C474 C475 1.385 . S
C474 C476 1.478 . S
C475 H469 0.930 . S
C475 C471 1.400 . S
C475 C474 1.385 . S
C476 C474 1.478 . S
C476 C478 1.381 . S
C476 C482 1.383 . S
C477 C473 1.495 . S
C477 H483 0.959 . S
C477 H484 0.961 . S
C477 H485 0.960 . S
C478 C476 1.381 . S
C478 C479 1.394 . S
C478 H486 0.930 . S
C479 C478 1.394 . S
C479 C480 1.383 . S
C479 H487 0.929 . S
C480 C479 1.383 . S
C480 C481 1.377 . S
C481 H465 0.930 . S
C481 C480 1.377 . S
C481 C482 1.379 . S
C482 H466 0.931 . S
C482 C476 1.383 . S
C482 C481 1.379 . S
H483 C477 0.959 . S
H484 C477 0.961 . S
H485 C477 0.960 . S
H486 C478 0.930 . S
H487 C479 0.929 . S
H488 C496 0.929 . S
H489 C498 0.930 . S
H490 C500 0.930 . S
H491 C503 0.929 . S
H492 C506 0.930 . S
H493 C508 0.960 . S
H494 C508 0.960 . S
H495 C508 0.960 . S
C496 H488 0.929 . S
C496 C497 1.377 . S
C496 C498 1.384 . S
C497 C496 1.377 . S
C497 C503 1.390 . S
C498 H489 0.930 . S
C498 C496 1.384 . S
C498 C499 1.372 . S
C499 C498 1.372 . S
C499 C500 1.400 . S
C499 C504 1.490 . S
C500 H490 0.930 . S
C500 C499 1.400 . S
C500 C503 1.386 . S
H501 C517 0.930 . S
H502 C518 0.931 . S
C503 H491 0.929 . S
C503 C497 1.390 . S
C503 C500 1.386 . S
C504 C499 1.490 . S
C504 C506 1.395 . S
C504 C507 1.403 . S
H505 C511 0.930 . S
C506 H492 0.930 . S
C506 C504 1.395 . S
C506 C509 1.403 . S
C507 C504 1.403 . S
C507 C508 1.524 . S
C507 C511 1.400 . S
C508 H493 0.960 . S
C508 H494 0.960 . S
C508 H495 0.960 . S
C508 C507 1.524 . S
C509 C506 1.403 . S
C509 C510 1.392 . S
C509 C513 1.495 . S
C510 C509 1.392 . S
C510 C511 1.385 . S
C510 C512 1.478 . S
C511 H505 0.930 . S
C511 C507 1.400 . S
C511 C510 1.385 . S
C512 C510 1.478 . S
C512 C514 1.381 . S
C512 C518 1.383 . S
C513 C509 1.495 . S
C513 H519 0.959 . S
C513 H520 0.961 . S
C513 H521 0.960 . S
C514 C512 1.381 . S
C514 C515 1.394 . S
C514 H522 0.930 . S
C515 C514 1.394 . S
C515 C516 1.383 . S
C515 H523 0.929 . S
C516 C515 1.383 . S
C516 C517 1.377 . S
C517 H501 0.930 . S
C517 C516 1.377 . S
C517 C518 1.379 . S
C518 H502 0.931 . S
C518 C512 1.383 . S
C518 C517 1.379 . S
H519 C513 0.959 . S
H520 C513 0.961 . S
H521 C513 0.960 . S
H522 C514 0.930 . S
H523 C515 0.929 . S
H524 C532 0.929 . S
H525 C534 0.930 . S
H526 C536 0.930 . S
H527 C539 0.929 . S
H528 C542 0.930 . S
H529 C544 0.960 . S
H530 C544 0.960 . S
H531 C544 0.960 . S
C532 H524 0.929 . S
C532 C533 1.377 . S
C532 C534 1.384 . S
C533 C532 1.377 . S
C533 C539 1.390 . S
C534 H525 0.930 . S
C534 C532 1.384 . S
C534 C535 1.372 . S
C535 C534 1.372 . S
C535 C536 1.400 . S
C535 C540 1.490 . S
C536 H526 0.930 . S
C536 C535 1.400 . S
C536 C539 1.386 . S
H537 C553 0.930 . S
H538 C554 0.931 . S
C539 H527 0.929 . S
C539 C533 1.390 . S
C539 C536 1.386 . S
C540 C535 1.490 . S
C540 C542 1.395 . S
C540 C543 1.403 . S
H541 C547 0.930 . S
C542 H528 0.930 . S
C542 C540 1.395 . S
C542 C545 1.403 . S
C543 C540 1.403 . S
C543 C544 1.524 . S
C543 C547 1.400 . S
C544 H529 0.960 . S
C544 H530 0.960 . S
C544 H531 0.960 . S
C544 C543 1.524 . S
C545 C542 1.403 . S
C545 C546 1.392 . S
C545 C549 1.495 . S
C546 C545 1.392 . S
C546 C547 1.385 . S
C546 C548 1.478 . S
C547 H541 0.930 . S
C547 C543 1.400 . S
C547 C546 1.385 . S
C548 C546 1.478 . S
C548 C550 1.381 . S
C548 C554 1.383 . S
C549 C545 1.495 . S
C549 H555 0.959 . S
C549 H556 0.961 . S
C549 H557 0.960 . S
C550 C548 1.381 . S
C550 C551 1.394 . S
C550 H558 0.930 . S
C551 C550 1.394 . S
C551 C552 1.383 . S
C551 H559 0.929 . S
C552 C551 1.383 . S
C552 C553 1.377 . S
C553 H537 0.930 . S
C553 C552 1.377 . S
C553 C554 1.379 . S
C554 H538 0.931 . S
C554 C548 1.383 . S
C554 C553 1.379 . S
H555 C549 0.959 . S
H556 C549 0.961 . S
H557 C549 0.960 . S
H558 C550 0.930 . S
H559 C551 0.929 . S
H560 C568 0.929 . S
H561 C570 0.930 . S
H562 C572 0.930 . S
H563 C575 0.929 . S
H564 C578 0.930 . S
H565 C580 0.960 . S
H566 C580 0.960 . S
H567 C580 0.960 . S
C568 H560 0.929 . S
C568 C569 1.377 . S
C568 C570 1.384 . S
C569 C568 1.377 . S
C569 C575 1.390 . S
C570 H561 0.930 . S
C570 C568 1.384 . S
C570 C571 1.372 . S
C571 C570 1.372 . S
C571 C572 1.400 . S
C571 C576 1.490 . S
C572 H562 0.930 . S
C572 C571 1.400 . S
C572 C575 1.386 . S
H573 C589 0.930 . S
H574 C590 0.931 . S
C575 H563 0.929 . S
C575 C569 1.390 . S
C575 C572 1.386 . S
C576 C571 1.490 . S
C576 C578 1.395 . S
C576 C579 1.403 . S
H577 C583 0.930 . S
C578 H564 0.930 . S
C578 C576 1.395 . S
C578 C581 1.403 . S
C579 C576 1.403 . S
C579 C580 1.524 . S
C579 C583 1.400 . S
C580 H565 0.960 . S
C580 H566 0.960 . S
C580 H567 0.960 . S
C580 C579 1.524 . S
C581 C578 1.403 . S
C581 C582 1.392 . S
C581 C585 1.495 . S
C582 C581 1.392 . S
C582 C583 1.385 . S
C582 C584 1.478 . S
C583 H577 0.930 . S
C583 C579 1.400 . S
C583 C582 1.385 . S
C584 C582 1.478 . S
C584 C586 1.381 . S
C584 C590 1.383 . S
C585 C581 1.495 . S
C585 H591 0.959 . S
C585 H592 0.961 . S
C585 H593 0.960 . S
C586 C584 1.381 . S
C586 C587 1.394 . S
C586 H594 0.930 . S
C587 C586 1.394 . S
C587 C588 1.383 . S
C587 H595 0.929 . S
C588 C587 1.383 . S
C588 C589 1.377 . S
C589 H573 0.930 . S
C589 C588 1.377 . S
C589 C590 1.379 . S
C590 H574 0.931 . S
C590 C584 1.383 . S
C590 C589 1.379 . S
H591 C585 0.959 . S
H592 C585 0.961 . S
H593 C585 0.960 . S
H594 C586 0.930 . S
H595 C587 0.929 . S
H596 C604 0.929 . S
H597 C606 0.930 . S
H598 C608 0.930 . S
H599 C611 0.929 . S
H600 C614 0.930 . S
H601 C616 0.960 . S
H602 C616 0.960 . S
H603 C616 0.960 . S
C604 H596 0.929 . S
C604 C605 1.377 . S
C604 C606 1.384 . S
C605 C604 1.377 . S
C605 C611 1.390 . S
C606 H597 0.930 . S
C606 C604 1.384 . S
C606 C607 1.372 . S
C607 C606 1.372 . S
C607 C608 1.400 . S
C607 C612 1.490 . S
C608 H598 0.930 . S
C608 C607 1.400 . S
C608 C611 1.386 . S
H609 C625 0.930 . S
H610 C626 0.931 . S
C611 H599 0.929 . S
C611 C605 1.390 . S
C611 C608 1.386 . S
C612 C607 1.490 . S
C612 C614 1.395 . S
C612 C615 1.403 . S
H613 C619 0.930 . S
C614 H600 0.930 . S
C614 C612 1.395 . S
C614 C617 1.403 . S
C615 C612 1.403 . S
C615 C616 1.524 . S
C615 C619 1.400 . S
C616 H601 0.960 . S
C616 H602 0.960 . S
C616 H603 0.960 . S
C616 C615 1.524 . S
C617 C614 1.403 . S
C617 C618 1.392 . S
C617 C621 1.495 . S
C618 C617 1.392 . S
C618 C619 1.385 . S
C618 C620 1.478 . S
C619 H613 0.930 . S
C619 C615 1.400 . S
C619 C618 1.385 . S
C620 C618 1.478 . S
C620 C622 1.381 . S
C620 C626 1.383 . S
C621 C617 1.495 . S
C621 H627 0.959 . S
C621 H628 0.961 . S
C621 H629 0.960 . S
C622 C620 1.381 . S
C622 C623 1.394 . S
C622 H630 0.930 . S
C623 C622 1.394 . S
C623 C624 1.383 . S
C623 H631 0.929 . S
C624 C623 1.383 . S
C624 C625 1.377 . S
C625 H609 0.930 . S
C625 C624 1.377 . S
C625 C626 1.379 . S
C626 H610 0.931 . S
C626 C620 1.383 . S
C626 C625 1.379 . S
H627 C621 0.959 . S
H628 C621 0.961 . S
H629 C621 0.960 . S
H630 C622 0.930 . S
H631 C623 0.929 . S
H632 C640 0.929 . S
H633 C642 0.930 . S
H634 C644 0.930 . S
H635 C647 0.929 . S
H636 C650 0.930 . S
H637 C652 0.960 . S
H638 C652 0.960 . S
H639 C652 0.960 . S
C640 H632 0.929 . S
C640 C641 1.377 . S
C640 C642 1.384 . S
C641 C640 1.377 . S
C641 C647 1.390 . S
C642 H633 0.930 . S
C642 C640 1.384 . S
C642 C643 1.372 . S
C643 C642 1.372 . S
C643 C644 1.400 . S
C643 C648 1.490 . S
C644 H634 0.930 . S
C644 C643 1.400 . S
C644 C647 1.386 . S
H645 C661 0.930 . S
H646 C662 0.931 . S
C647 H635 0.929 . S
C647 C641 1.390 . S
C647 C644 1.386 . S
C648 C643 1.490 . S
C648 C650 1.395 . S
C648 C651 1.403 . S
H649 C655 0.930 . S
C650 H636 0.930 . S
C650 C648 1.395 . S
C650 C653 1.403 . S
C651 C648 1.403 . S
C651 C652 1.524 . S
C651 C655 1.400 . S
C652 H637 0.960 . S
C652 H638 0.960 . S
C652 H639 0.960 . S
C652 C651 1.524 . S
C653 C650 1.403 . S
C653 C654 1.392 . S
C653 C657 1.495 . S
C654 C653 1.392 . S
C654 C655 1.385 . S
C654 C656 1.478 . S
C655 H649 0.930 . S
C655 C651 1.400 . S
C655 C654 1.385 . S
C656 C654 1.478 . S
C656 C658 1.381 . S
C656 C662 1.383 . S
C657 C653 1.495 . S
C657 H663 0.959 . S
C657 H664 0.961 . S
C657 H665 0.960 . S
C658 C656 1.381 . S
C658 C659 1.394 . S
C658 H666 0.930 . S
C659 C658 1.394 . S
C659 C660 1.383 . S
C659 H667 0.929 . S
C660 C659 1.383 . S
C660 C661 1.377 . S
C661 H645 0.930 . S
C661 C660 1.377 . S
C661 C662 1.379 . S
C662 H646 0.931 . S
C662 C656 1.383 . S
C662 C661 1.379 . S
H663 C657 0.959 . S
H664 C657 0.961 . S
H665 C657 0.960 . S
H666 C658 0.930 . S
H667 C659 0.929 . S
H668 C676 0.929 . S
H669 C678 0.930 . S
H670 C680 0.930 . S
H671 C683 0.929 . S
H672 C686 0.930 . S
H673 C688 0.960 . S
H674 C688 0.960 . S
H675 C688 0.960 . S
C676 H668 0.929 . S
C676 C677 1.377 . S
C676 C678 1.384 . S
C677 C676 1.377 . S
C677 C683 1.390 . S
C678 H669 0.930 . S
C678 C676 1.384 . S
C678 C679 1.372 . S
C679 C678 1.372 . S
C679 C680 1.400 . S
C679 C684 1.490 . S
C680 H670 0.930 . S
C680 C679 1.400 . S
C680 C683 1.386 . S
H681 C697 0.930 . S
H682 C698 0.931 . S
C683 H671 0.929 . S
C683 C677 1.390 . S
C683 C680 1.386 . S
C684 C679 1.490 . S
C684 C686 1.395 . S
C684 C687 1.403 . S
H685 C691 0.930 . S
C686 H672 0.930 . S
C686 C684 1.395 . S
C686 C689 1.403 . S
C687 C684 1.403 . S
C687 C688 1.524 . S
C687 C691 1.400 . S
C688 H673 0.960 . S
C688 H674 0.960 . S
C688 H675 0.960 . S
C688 C687 1.524 . S
C689 C686 1.403 . S
C689 C690 1.392 . S
C689 C693 1.495 . S
C690 C689 1.392 . S
C690 C691 1.385 . S
C690 C692 1.478 . S
C691 H685 0.930 . S
C691 C687 1.400 . S
C691 C690 1.385 . S
C692 C690 1.478 . S
C692 C694 1.381 . S
C692 C698 1.383 . S
C693 C689 1.495 . S
C693 H699 0.959 . S
C693 H700 0.961 . S
C693 H701 0.960 . S
C694 C692 1.381 . S
C694 C695 1.394 . S
C694 H702 0.930 . S
C695 C694 1.394 . S
C695 C696 1.383 . S
C695 H703 0.929 . S
C696 C695 1.383 . S
C696 C697 1.377 . S
C697 H681 0.930 . S
C697 C696 1.377 . S
C697 C698 1.379 . S
C698 H682 0.931 . S
C698 C692 1.383 . S
C698 C697 1.379 . S
H699 C693 0.959 . S
H700 C693 0.961 . S
H701 C693 0.960 . S
H702 C694 0.930 . S
H703 C695 0.929 . S
H704 C712 0.929 . S
H705 C714 0.930 . S
H706 C716 0.930 . S
H707 C719 0.929 . S
H708 C722 0.930 . S
H709 C724 0.960 . S
H710 C724 0.960 . S
H711 C724 0.960 . S
C712 H704 0.929 . S
C712 C713 1.377 . S
C712 C714 1.384 . S
C713 C712 1.377 . S
C713 C719 1.390 . S
C714 H705 0.930 . S
C714 C712 1.384 . S
C714 C715 1.372 . S
C715 C714 1.372 . S
C715 C716 1.400 . S
C715 C720 1.490 . S
C716 H706 0.930 . S
C716 C715 1.400 . S
C716 C719 1.386 . S
H717 C733 0.930 . S
H718 C734 0.931 . S
C719 H707 0.929 . S
C719 C713 1.390 . S
C719 C716 1.386 . S
C720 C715 1.490 . S
C720 C722 1.395 . S
C720 C723 1.403 . S
H721 C727 0.930 . S
C722 H708 0.930 . S
C722 C720 1.395 . S
C722 C725 1.403 . S
C723 C720 1.403 . S
C723 C724 1.524 . S
C723 C727 1.400 . S
C724 H709 0.960 . S
C724 H710 0.960 . S
C724 H711 0.960 . S
C724 C723 1.524 . S
C725 C722 1.403 . S
C725 C726 1.392 . S
C725 C729 1.495 . S
C726 C725 1.392 . S
C726 C727 1.385 . S
C726 C728 1.478 . S
C727 H721 0.930 . S
C727 C723 1.400 . S
C727 C726 1.385 . S
C728 C726 1.478 . S
C728 C730 1.381 . S
C728 C734 1.383 . S
C729 C725 1.495 . S
C729 H735 0.959 . S
C729 H736 0.961 . S
C729 H737 0.960 . S
C730 C728 1.381 . S
C730 C731 1.394 . S
C730 H738 0.930 . S
C731 C730 1.394 . S
C731 C732 1.383 . S
C731 H739 0.929 . S
C732 C731 1.383 . S
C732 C733 1.377 . S
C733 H717 0.930 . S
C733 C732 1.377 . S
C733 C734 1.379 . S
C734 H718 0.931 . S
C734 C728 1.383 . S
C734 C733 1.379 . S
H735 C729 0.959 . S
H736 C729 0.961 . S
H737 C729 0.960 . S
H738 C730 0.930 . S
H739 C731 0.929 . S
H740 C748 0.929 . S
H741 C750 0.930 . S
H742 C752 0.930 . S
H743 C755 0.929 . S
H744 C758 0.930 . S
H745 C760 0.960 . S
H746 C760 0.960 . S
H747 C760 0.960 . S
C748 H740 0.929 . S
C748 C749 1.377 . S
C748 C750 1.384 . S
C749 C748 1.377 . S
C749 C755 1.390 . S
C750 H741 0.930 . S
C750 C748 1.384 . S
C750 C751 1.372 . S
C751 C750 1.372 . S
C751 C752 1.400 . S
C751 C756 1.490 . S
C752 H742 0.930 . S
C752 C751 1.400 . S
C752 C755 1.386 . S
H753 C769 0.930 . S
H754 C770 0.931 . S
C755 H743 0.929 . S
C755 C749 1.390 . S
C755 C752 1.386 . S
C756 C751 1.490 . S
C756 C758 1.395 . S
C756 C759 1.403 . S
H757 C763 0.930 . S
C758 H744 0.930 . S
C758 C756 1.395 . S
C758 C761 1.403 . S
C759 C756 1.403 . S
C759 C760 1.524 . S
C759 C763 1.400 . S
C760 H745 0.960 . S
C760 H746 0.960 . S
C760 H747 0.960 . S
C760 C759 1.524 . S
C761 C758 1.403 . S
C761 C762 1.392 . S
C761 C765 1.495 . S
C762 C761 1.392 . S
C762 C763 1.385 . S
C762 C764 1.478 . S
C763 H757 0.930 . S
C763 C759 1.400 . S
C763 C762 1.385 . S
C764 C762 1.478 . S
C764 C766 1.381 . S
C764 C770 1.383 . S
C765 C761 1.495 . S
C765 H771 0.959 . S
C765 H772 0.961 . S
C765 H773 0.960 . S
C766 C764 1.381 . S
C766 C767 1.394 . S
C766 H774 0.930 . S
C767 C766 1.394 . S
C767 C768 1.383 . S
C767 H775 0.929 . S
C768 C767 1.383 . S
C768 C769 1.377 . S
C769 H753 0.930 . S
C769 C768 1.377 . S
C769 C770 1.379 . S
C770 H754 0.931 . S
C770 C764 1.383 . S
C770 C769 1.379 . S
H771 C765 0.959 . S
H772 C765 0.961 . S
H773 C765 0.960 . S
H774 C766 0.930 . S
H775 C767 0.929 . S
H776 C784 0.929 . S
H777 C786 0.930 . S
H778 C788 0.930 . S
H779 C791 0.929 . S
H780 C794 0.930 . S
H781 C796 0.960 . S
H782 C796 0.960 . S
H783 C796 0.960 . S
C784 H776 0.929 . S
C784 C785 1.377 . S
C784 C786 1.384 . S
C785 C784 1.377 . S
C785 C791 1.390 . S
C786 H777 0.930 . S
C786 C784 1.384 . S
C786 C787 1.372 . S
C787 C786 1.372 . S
C787 C788 1.400 . S
C787 C792 1.490 . S
C788 H778 0.930 . S
C788 C787 1.400 . S
C788 C791 1.386 . S
H789 C805 0.930 . S
H790 C806 0.931 . S
C791 H779 0.929 . S
C791 C785 1.390 . S
C791 C788 1.386 . S
C792 C787 1.490 . S
C792 C794 1.395 . S
C792 C795 1.403 . S
H793 C799 0.930 . S
C794 H780 0.930 . S
C794 C792 1.395 . S
C794 C797 1.403 . S
C795 C792 1.403 . S
C795 C796 1.524 . S
C795 C799 1.400 . S
C796 H781 0.960 . S
C796 H782 0.960 . S
C796 H783 0.960 . S
C796 C795 1.524 . S
C797 C794 1.403 . S
C797 C798 1.392 . S
C797 C801 1.495 . S
C798 C797 1.392 . S
C798 C799 1.385 . S
C798 C800 1.478 . S
C799 H793 0.930 . S
C799 C795 1.400 . S
C799 C798 1.385 . S
C800 C798 1.478 . S
C800 C802 1.381 . S
C800 C806 1.383 . S
C801 C797 1.495 . S
C801 H807 0.959 . S
C801 H808 0.961 . S
C801 H809 0.960 . S
C802 C800 1.381 . S
C802 C803 1.394 . S
C802 H810 0.930 . S
C803 C802 1.394 . S
C803 C804 1.383 . S
C803 H811 0.929 . S
C804 C803 1.383 . S
C804 C805 1.377 . S
C805 H789 0.930 . S
C805 C804 1.377 . S
C805 C806 1.379 . S
C806 H790 0.931 . S
C806 C800 1.383 . S
C806 C805 1.379 . S
H807 C801 0.959 . S
H808 C801 0.961 . S
H809 C801 0.960 . S
H810 C802 0.930 . S
H811 C803 0.929 . S
H812 C820 0.929 . S
H813 C822 0.930 . S
H814 C824 0.930 . S
H815 C827 0.929 . S
H816 C830 0.930 . S
H817 C832 0.960 . S
H818 C832 0.960 . S
H819 C832 0.960 . S
C820 H812 0.929 . S
C820 C821 1.377 . S
C820 C822 1.384 . S
C821 C820 1.377 . S
C821 C827 1.390 . S
C822 H813 0.930 . S
C822 C820 1.384 . S
C822 C823 1.372 . S
C823 C822 1.372 . S
C823 C824 1.400 . S
C823 C828 1.490 . S
C824 H814 0.930 . S
C824 C823 1.400 . S
C824 C827 1.386 . S
H825 C841 0.930 . S
H826 C842 0.931 . S
C827 H815 0.929 . S
C827 C821 1.390 . S
C827 C824 1.386 . S
C828 C823 1.490 . S
C828 C830 1.395 . S
C828 C831 1.403 . S
H829 C835 0.930 . S
C830 H816 0.930 . S
C830 C828 1.395 . S
C830 C833 1.403 . S
C831 C828 1.403 . S
C831 C832 1.524 . S
C831 C835 1.400 . S
C832 H817 0.960 . S
C832 H818 0.960 . S
C832 H819 0.960 . S
C832 C831 1.524 . S
C833 C830 1.403 . S
C833 C834 1.392 . S
C833 C837 1.495 . S
C834 C833 1.392 . S
C834 C835 1.385 . S
C834 C836 1.478 . S
C835 H829 0.930 . S
C835 C831 1.400 . S
C835 C834 1.385 . S
C836 C834 1.478 . S
C836 C838 1.381 . S
C836 C842 1.383 . S
C837 C833 1.495 . S
C837 H843 0.959 . S
C837 H844 0.961 . S
C837 H845 0.960 . S
C838 C836 1.381 . S
C838 C839 1.394 . S
C838 H846 0.930 . S
C839 C838 1.394 . S
C839 C840 1.383 . S
C839 H847 0.929 . S
C840 C839 1.383 . S
C840 C841 1.377 . S
C841 H825 0.930 . S
C841 C840 1.377 . S
C841 C842 1.379 . S
C842 H826 0.931 . S
C842 C836 1.383 . S
C842 C841 1.379 . S
H843 C837 0.959 . S
H844 C837 0.961 . S
H845 C837 0.960 . S
H846 C838 0.930 . S
H847 C839 0.929 . S
H848 C856 0.929 . S
H849 C858 0.930 . S
H850 C860 0.930 . S
H851 C863 0.929 . S
H852 C866 0.930 . S
H853 C868 0.960 . S
H854 C868 0.960 . S
H855 C868 0.960 . S
C856 H848 0.929 . S
C856 C857 1.377 . S
C856 C858 1.384 . S
C857 C856 1.377 . S
C857 C863 1.390 . S
C858 H849 0.930 . S
C858 C856 1.384 . S
C858 C859 1.372 . S
C859 C858 1.372 . S
C859 C860 1.400 . S
C859 C864 1.490 . S
C860 H850 0.930 . S
C860 C859 1.400 . S
C860 C863 1.386 . S
H861 C877 0.930 . S
H862 C878 0.931 . S
C863 H851 0.929 . S
C863 C857 1.390 . S
C863 C860 1.386 . S
C864 C859 1.490 . S
C864 C866 1.395 . S
C864 C867 1.403 . S
H865 C871 0.930 . S
C866 H852 0.930 . S
C866 C864 1.395 . S
C866 C869 1.403 . S
C867 C864 1.403 . S
C867 C868 1.524 . S
C867 C871 1.400 . S
C868 H853 0.960 . S
C868 H854 0.960 . S
C868 H855 0.960 . S
C868 C867 1.524 . S
C869 C866 1.403 . S
C869 C870 1.392 . S
C869 C873 1.495 . S
C870 C869 1.392 . S
C870 C871 1.385 . S
C870 C872 1.478 . S
C871 H865 0.930 . S
C871 C867 1.400 . S
C871 C870 1.385 . S
C872 C870 1.478 . S
C872 C874 1.381 . S
C872 C878 1.383 . S
C873 C869 1.495 . S
C873 H879 0.959 . S
C873 H880 0.961 . S
C873 H881 0.960 . S
C874 C872 1.381 . S
C874 C875 1.394 . S
C874 H882 0.930 . S
C875 C874 1.394 . S
C875 C876 1.383 . S
C875 H883 0.929 . S
C876 C875 1.383 . S
C876 C877 1.377 . S
C877 H861 0.930 . S
C877 C876 1.377 . S
C877 C878 1.379 . S
C878 H862 0.931 . S
C878 C872 1.383 . S
C878 C877 1.379 . S
H879 C873 0.959 . S
H880 C873 0.961 . S
H881 C873 0.960 . S
H882 C874 0.930 . S
H883 C875 0.929 . S
H884 C892 0.929 . S
H885 C894 0.930 . S
H886 C896 0.930 . S
H887 C899 0.929 . S
H888 C902 0.930 . S
H889 C904 0.960 . S
H890 C904 0.960 . S
H891 C904 0.960 . S
C892 H884 0.929 . S
C892 C893 1.377 . S
C892 C894 1.384 . S
C893 C892 1.377 . S
C893 C899 1.390 . S
C894 H885 0.930 . S
C894 C892 1.384 . S
C894 C895 1.372 . S
C895 C894 1.372 . S
C895 C896 1.400 . S
C895 C900 1.490 . S
C896 H886 0.930 . S
C896 C895 1.400 . S
C896 C899 1.386 . S
H897 C913 0.930 . S
H898 C914 0.931 . S
C899 H887 0.929 . S
C899 C893 1.390 . S
C899 C896 1.386 . S
C900 C895 1.490 . S
C900 C902 1.395 . S
C900 C903 1.403 . S
H901 C907 0.930 . S
C902 H888 0.930 . S
C902 C900 1.395 . S
C902 C905 1.403 . S
C903 C900 1.403 . S
C903 C904 1.524 . S
C903 C907 1.400 . S
C904 H889 0.960 . S
C904 H890 0.960 . S
C904 H891 0.960 . S
C904 C903 1.524 . S
C905 C902 1.403 . S
C905 C906 1.392 . S
C905 C909 1.495 . S
C906 C905 1.392 . S
C906 C907 1.385 . S
C906 C908 1.478 . S
C907 H901 0.930 . S
C907 C903 1.400 . S
C907 C906 1.385 . S
C908 C906 1.478 . S
C908 C910 1.381 . S
C908 C914 1.383 . S
C909 C905 1.495 . S
C909 H915 0.959 . S
C909 H916 0.961 . S
C909 H917 0.960 . S
C910 C908 1.381 . S
C910 C911 1.394 . S
C910 H918 0.930 . S
C911 C910 1.394 . S
C911 C912 1.383 . S
C911 H919 0.929 . S
C912 C911 1.383 . S
C912 C913 1.377 . S
C913 H897 0.930 . S
C913 C912 1.377 . S
C913 C914 1.379 . S
C914 H898 0.931 . S
C914 C908 1.383 . S
C914 C913 1.379 . S
H915 C909 0.959 . S
H916 C909 0.961 . S
H917 C909 0.960 . S
H918 C910 0.930 . S
H919 C911 0.929 . S
H920 C928 0.929 . S
H921 C930 0.930 . S
H922 C932 0.930 . S
H923 C935 0.929 . S
H924 C938 0.930 . S
H925 C940 0.960 . S
H926 C940 0.960 1_554 S
H927 C940 0.960 . S
C928 H920 0.929 . S
C928 C929 1.377 . S
C928 C930 1.384 . S
C929 C928 1.377 . S
C929 C935 1.390 1_554 S
C930 H921 0.930 . S
C930 C928 1.384 . S
C930 C931 1.372 . S
C931 C930 1.372 . S
C931 C932 1.400 1_554 S
C931 C936 1.490 . S
C932 H922 0.930 . S
C932 C931 1.400 1_556 S
C932 C935 1.386 . S
H933 C949 0.930 . S
H934 C950 0.931 . S
C935 H923 0.929 . S
C935 C929 1.390 1_556 S
C935 C932 1.386 . S
C936 C931 1.490 . S
C936 C938 1.395 . S
C936 C939 1.403 1_554 S
H937 C943 0.930 . S
C938 H924 0.930 . S
C938 C936 1.395 . S
C938 C941 1.403 . S
C939 C936 1.403 1_556 S
C939 C940 1.524 . S
C939 C943 1.400 . S
C940 H925 0.960 . S
C940 H926 0.960 1_556 S
C940 H927 0.960 . S
C940 C939 1.524 . S
C941 C938 1.403 . S
C941 C942 1.392 . S
C941 C945 1.495 . S
C942 C941 1.392 . S
C942 C943 1.385 1_554 S
C942 C944 1.478 . S
C943 H937 0.930 . S
C943 C939 1.400 . S
C943 C942 1.385 1_556 S
C944 C942 1.478 . S
C944 C946 1.381 . S
C944 C950 1.383 1_554 S
C945 C941 1.495 . S
C945 H951 0.959 . S
C945 H952 0.961 . S
C945 H953 0.960 . S
C946 C944 1.381 . S
C946 C947 1.394 . S
C946 H954 0.930 . S
C947 C946 1.394 . S
C947 C948 1.383 . S
C947 H955 0.929 . S
C948 C947 1.383 . S
C948 C949 1.377 1_554 S
C949 H933 0.930 . S
C949 C948 1.377 1_556 S
C949 C950 1.379 . S
C950 H934 0.931 . S
C950 C944 1.383 1_556 S
C950 C949 1.379 . S
H951 C945 0.959 . S
H952 C945 0.961 . S
H953 C945 0.960 . S
H954 C946 0.930 . S
H955 C947 0.929 . S
H956 C964 0.929 . S
H957 C966 0.930 . S
H958 C968 0.930 . S
H959 C971 0.929 . S
H960 C974 0.930 . S
H961 C976 0.960 . S
H962 C976 0.960 . S
H963 C976 0.960 . S
C964 H956 0.929 . S
C964 C965 1.377 . S
C964 C966 1.384 . S
C965 C964 1.377 . S
C965 C971 1.390 . S
C966 H957 0.930 . S
C966 C964 1.384 . S
C966 C967 1.372 . S
C967 C966 1.372 . S
C967 C968 1.400 . S
C967 C972 1.490 . S
C968 H958 0.930 . S
C968 C967 1.400 . S
C968 C971 1.386 . S
H969 C985 0.930 . S
H970 C986 0.931 . S
C971 H959 0.929 . S
C971 C965 1.390 . S
C971 C968 1.386 . S
C972 C967 1.490 . S
C972 C974 1.395 . S
C972 C975 1.403 . S
H973 C979 0.930 . S
C974 H960 0.930 . S
C974 C972 1.395 . S
C974 C977 1.403 . S
C975 C972 1.403 . S
C975 C976 1.524 . S
C975 C979 1.400 . S
C976 H961 0.960 . S
C976 H962 0.960 . S
C976 H963 0.960 . S
C976 C975 1.524 . S
C977 C974 1.403 . S
C977 C978 1.392 . S
C977 C981 1.495 . S
C978 C977 1.392 . S
C978 C979 1.385 . S
C978 C980 1.478 . S
C979 H973 0.930 . S
C979 C975 1.400 . S
C979 C978 1.385 . S
C980 C978 1.478 . S
C980 C982 1.381 . S
C980 C986 1.383 . S
C981 C977 1.495 . S
C981 H987 0.959 . S
C981 H988 0.961 . S
C981 H989 0.960 . S
C982 C980 1.381 . S
C982 C983 1.394 . S
C982 H990 0.930 . S
C983 C982 1.394 . S
C983 C984 1.383 . S
C983 H991 0.929 . S
C984 C983 1.383 . S
C984 C985 1.377 . S
C985 H969 0.930 . S
C985 C984 1.377 . S
C985 C986 1.379 . S
C986 H970 0.931 . S
C986 C980 1.383 . S
C986 C985 1.379 . S
H987 C981 0.959 . S
H988 C981 0.961 . S
H989 C981 0.960 . S
H990 C982 0.930 . S
H991 C983 0.929 . S
H992 C1000 0.929 . S
H993 C1002 0.930 . S
H994 C1004 0.930 . S
H995 C1007 0.929 . S
H996 C1010 0.930 . S
H997 C1012 0.960 . S
H998 C1012 0.960 1_554 S
H999 C1012 0.960 . S
C1000 H992 0.929 . S
C1000 C1001 1.377 . S
C1000 C1002 1.384 . S
C1001 C1000 1.377 . S
C1001 C1007 1.390 1_554 S
C1002 H993 0.930 . S
C1002 C1000 1.384 . S
C1002 C1003 1.372 . S
C1003 C1002 1.372 . S
C1003 C1004 1.400 1_554 S
C1003 C1008 1.490 . S
C1004 H994 0.930 . S
C1004 C1003 1.400 1_556 S
C1004 C1007 1.386 . S
H1005 C1021 0.930 . S
H1006 C1022 0.931 . S
C1007 H995 0.929 . S
C1007 C1001 1.390 1_556 S
C1007 C1004 1.386 . S
C1008 C1003 1.490 . S
C1008 C1010 1.395 . S
C1008 C1011 1.400 1_554 S
H1009 C1015 0.931 . S
C1010 H996 0.930 . S
C1010 C1008 1.395 . S
C1010 C1013 1.403 . S
C1011 C1008 1.400 1_556 S
C1011 C1012 1.526 . S
C1011 C1015 1.400 . S
C1012 H997 0.960 . S
C1012 H998 0.960 1_556 S
C1012 H999 0.960 . S
C1012 C1011 1.526 . S
C1013 C1010 1.403 . S
C1013 C1014 1.392 . S
C1013 C1017 1.495 . S
C1014 C1013 1.392 . S
C1014 C1015 1.385 1_554 S
C1014 C1016 1.478 . S
C1015 H1009 0.931 . S
C1015 C1011 1.400 . S
C1015 C1014 1.385 1_556 S
C1016 C1014 1.478 . S
C1016 C1018 1.381 . S
C1016 C1022 1.383 1_554 S
C1017 C1013 1.495 . S
C1017 H1023 0.959 . S
C1017 H1024 0.961 . S
C1017 H1025 0.960 . S
C1018 C1016 1.381 . S
C1018 C1019 1.394 . S
C1018 H1026 0.930 . S
C1019 C1018 1.394 . S
C1019 C1020 1.383 . S
C1019 H1027 0.929 . S
C1020 C1019 1.383 . S
C1020 C1021 1.377 1_554 S
C1021 H1005 0.930 . S
C1021 C1020 1.377 1_556 S
C1021 C1022 1.379 . S
C1022 H1006 0.931 . S
C1022 C1016 1.383 1_556 S
C1022 C1021 1.379 . S
H1023 C1017 0.959 . S
H1024 C1017 0.961 . S
H1025 C1017 0.960 . S
H1026 C1018 0.930 . S
H1027 C1019 0.929 . S
H1028 C1036 0.929 . S
H1029 C1038 0.930 . S
H1030 C1040 0.930 . S
H1031 C1043 0.929 . S
H1032 C1046 0.930 . S
H1033 C1048 0.960 . S
H1034 C1048 0.960 . S
H1035 C1048 0.960 . S
C1036 H1028 0.929 . S
C1036 C1037 1.377 . S
C1036 C1038 1.384 . S
C1037 C1036 1.377 . S
C1037 C1043 1.390 . S
C1038 H1029 0.930 . S
C1038 C1036 1.384 . S
C1038 C1039 1.372 . S
C1039 C1038 1.372 . S
C1039 C1040 1.400 . S
C1039 C1044 1.490 . S
C1040 H1030 0.930 . S
C1040 C1039 1.400 . S
C1040 C1043 1.386 . S
H1041 C1057 0.930 . S
H1042 C1058 0.931 . S
C1043 H1031 0.929 . S
C1043 C1037 1.390 . S
C1043 C1040 1.386 . S
C1044 C1039 1.490 . S
C1044 C1046 1.395 . S
C1044 C1047 1.403 . S
H1045 C1051 0.930 . S
C1046 H1032 0.930 . S
C1046 C1044 1.395 . S
C1046 C1049 1.403 . S
C1047 C1044 1.403 . S
C1047 C1048 1.524 . S
C1047 C1051 1.400 . S
C1048 H1033 0.960 . S
C1048 H1034 0.960 . S
C1048 H1035 0.960 . S
C1048 C1047 1.524 . S
C1049 C1046 1.403 . S
C1049 C1050 1.392 . S
C1049 C1053 1.495 . S
C1050 C1049 1.392 . S
C1050 C1051 1.385 . S
C1050 C1052 1.478 . S
C1051 H1045 0.930 . S
C1051 C1047 1.400 . S
C1051 C1050 1.385 . S
C1052 C1050 1.478 . S
C1052 C1054 1.381 . S
C1052 C1058 1.383 . S
C1053 C1049 1.495 . S
C1053 H1059 0.959 . S
C1053 H1060 0.961 . S
C1053 H1061 0.960 . S
C1054 C1052 1.381 . S
C1054 C1055 1.394 . S
C1054 H1062 0.930 . S
C1055 C1054 1.394 . S
C1055 C1056 1.383 . S
C1055 H1063 0.929 . S
C1056 C1055 1.383 . S
C1056 C1057 1.377 . S
C1057 H1041 0.930 . S
C1057 C1056 1.377 . S
C1057 C1058 1.379 . S
C1058 H1042 0.931 . S
C1058 C1052 1.383 . S
C1058 C1057 1.379 . S
H1059 C1053 0.959 . S
H1060 C1053 0.961 . S
H1061 C1053 0.960 . S
H1062 C1054 0.930 . S
H1063 C1055 0.929 . S
H1064 C1072 0.929 . S
H1065 C1074 0.930 . S
H1066 C1076 0.930 . S
H1067 C1079 0.929 . S
H1068 C1082 0.930 . S
H1069 C1084 0.960 . S
H1070 C1084 0.960 . S
H1071 C1084 0.960 . S
C1072 H1064 0.929 . S
C1072 C1073 1.377 . S
C1072 C1074 1.384 . S
C1073 C1072 1.377 . S
C1073 C1079 1.390 . S
C1074 H1065 0.930 . S
C1074 C1072 1.384 . S
C1074 C1075 1.372 . S
C1075 C1074 1.372 . S
C1075 C1076 1.400 . S
C1075 C1080 1.490 . S
C1076 H1066 0.930 . S
C1076 C1075 1.400 . S
C1076 C1079 1.386 . S
H1077 C1093 0.930 . S
H1078 C1094 0.931 . S
C1079 H1067 0.929 . S
C1079 C1073 1.390 . S
C1079 C1076 1.386 . S
C1080 C1075 1.490 . S
C1080 C1082 1.395 . S
C1080 C1083 1.403 . S
H1081 C1087 0.930 . S
C1082 H1068 0.930 . S
C1082 C1080 1.395 . S
C1082 C1085 1.403 . S
C1083 C1080 1.403 . S
C1083 C1084 1.524 . S
C1083 C1087 1.400 . S
C1084 H1069 0.960 . S
C1084 H1070 0.960 . S
C1084 H1071 0.960 . S
C1084 C1083 1.524 . S
C1085 C1082 1.403 . S
C1085 C1086 1.392 . S
C1085 C1089 1.495 . S
C1086 C1085 1.392 . S
C1086 C1087 1.385 . S
C1086 C1088 1.478 . S
C1087 H1081 0.930 . S
C1087 C1083 1.400 . S
C1087 C1086 1.385 . S
C1088 C1086 1.478 . S
C1088 C1090 1.381 . S
C1088 C1094 1.383 . S
C1089 C1085 1.495 . S
C1089 H1095 0.959 . S
C1089 H1096 0.961 . S
C1089 H1097 0.960 . S
C1090 C1088 1.381 . S
C1090 C1091 1.394 . S
C1090 H1098 0.930 . S
C1091 C1090 1.394 . S
C1091 C1092 1.383 . S
C1091 H1099 0.929 . S
C1092 C1091 1.383 . S
C1092 C1093 1.377 . S
C1093 H1077 0.930 . S
C1093 C1092 1.377 . S
C1093 C1094 1.379 . S
C1094 H1078 0.931 . S
C1094 C1088 1.383 . S
C1094 C1093 1.379 . S
H1095 C1089 0.959 . S
H1096 C1089 0.961 . S
H1097 C1089 0.960 . S
H1098 C1090 0.930 . S
H1099 C1091 0.929 . S
H1100 C1108 0.929 . S
H1101 C1110 0.930 . S
H1102 C1112 0.930 . S
H1103 C1115 0.929 . S
H1104 C1118 0.930 . S
H1105 C1120 0.960 . S
H1106 C1120 0.960 . S
H1107 C1120 0.960 . S
C1108 H1100 0.929 . S
C1108 C1109 1.377 1_556 S
C1108 C1110 1.384 . S
C1109 C1108 1.377 1_554 S
C1109 C1115 1.390 . S
C1110 H1101 0.930 . S
C1110 C1108 1.384 . S
C1110 C1111 1.372 1_556 S
C1111 C1110 1.372 1_554 S
C1111 C1112 1.400 . S
C1111 C1116 1.490 . S
C1112 H1102 0.930 . S
C1112 C1111 1.400 . S
C1112 C1115 1.386 . S
H1113 C1129 0.930 . S
H1114 C1130 0.931 . S
C1115 H1103 0.929 . S
C1115 C1109 1.390 . S
C1115 C1112 1.386 . S
C1116 C1111 1.490 . S
C1116 C1118 1.395 . S
C1116 C1119 1.403 1_554 S
H1117 C1123 0.930 . S
C1118 H1104 0.930 . S
C1118 C1116 1.395 . S
C1118 C1121 1.403 . S
C1119 C1116 1.403 1_556 S
C1119 C1120 1.524 . S
C1119 C1123 1.400 . S
C1120 H1105 0.960 . S
C1120 H1106 0.960 . S
C1120 H1107 0.960 . S
C1120 C1119 1.524 . S
C1121 C1118 1.403 . S
C1121 C1122 1.392 . S
C1121 C1125 1.495 . S
C1122 C1121 1.392 . S
C1122 C1123 1.385 1_554 S
C1122 C1124 1.478 . S
C1123 H1117 0.930 . S
C1123 C1119 1.400 . S
C1123 C1122 1.385 1_556 S
C1124 C1122 1.478 . S
C1124 C1126 1.381 1_554 S
C1124 C1130 1.383 . S
C1125 C1121 1.495 . S
C1125 H1131 0.959 . S
C1125 H1132 0.961 . S
C1125 H1133 0.960 . S
C1126 C1124 1.381 1_556 S
C1126 C1127 1.394 . S
C1126 H1134 0.930 . S
C1127 C1126 1.394 . S
C1127 C1128 1.383 1_556 S
C1127 H1135 0.929 . S
C1128 C1127 1.383 1_554 S
C1128 C1129 1.377 . S
C1129 H1113 0.930 . S
C1129 C1128 1.377 . S
C1129 C1130 1.379 . S
C1130 H1114 0.931 . S
C1130 C1124 1.383 . S
C1130 C1129 1.379 . S
H1131 C1125 0.959 . S
H1132 C1125 0.961 . S
H1133 C1125 0.960 . S
H1134 C1126 0.930 . S
H1135 C1127 0.929 . S
H1136 C1144 0.929 . S
H1137 C1146 0.930 . S
H1138 C1148 0.930 . S
H1139 C1151 0.929 . S
H1140 C1154 0.930 . S
H1141 C1156 0.960 . S
H1142 C1156 0.960 . S
H1143 C1156 0.960 . S
C1144 H1136 0.929 . S
C1144 C1145 1.377 . S
C1144 C1146 1.384 . S
C1145 C1144 1.377 . S
C1145 C1151 1.390 . S
C1146 H1137 0.930 . S
C1146 C1144 1.384 . S
C1146 C1147 1.372 . S
C1147 C1146 1.372 . S
C1147 C1148 1.400 . S
C1147 C1152 1.490 . S
C1148 H1138 0.930 . S
C1148 C1147 1.400 . S
C1148 C1151 1.386 . S
H1149 C1165 0.930 . S
H1150 C1166 0.931 . S
C1151 H1139 0.929 . S
C1151 C1145 1.390 . S
C1151 C1148 1.386 . S
C1152 C1147 1.490 . S
C1152 C1154 1.395 . S
C1152 C1155 1.403 . S
H1153 C1159 0.930 . S
C1154 H1140 0.930 . S
C1154 C1152 1.395 . S
C1154 C1157 1.403 . S
C1155 C1152 1.403 . S
C1155 C1156 1.524 . S
C1155 C1159 1.400 . S
C1156 H1141 0.960 . S
C1156 H1142 0.960 . S
C1156 H1143 0.960 . S
C1156 C1155 1.524 . S
C1157 C1154 1.403 . S
C1157 C1158 1.392 . S
C1157 C1161 1.495 . S
C1158 C1157 1.392 . S
C1158 C1159 1.385 . S
C1158 C1160 1.478 . S
C1159 H1153 0.930 . S
C1159 C1155 1.400 . S
C1159 C1158 1.385 . S
C1160 C1158 1.478 . S
C1160 C1162 1.381 . S
C1160 C1166 1.383 . S
C1161 C1157 1.495 . S
C1161 H1167 0.959 . S
C1161 H1168 0.961 . S
C1161 H1169 0.960 . S
C1162 C1160 1.381 . S
C1162 C1163 1.394 . S
C1162 H1170 0.930 . S
C1163 C1162 1.394 . S
C1163 C1164 1.383 . S
C1163 H1171 0.929 . S
C1164 C1163 1.383 . S
C1164 C1165 1.377 . S
C1165 H1149 0.930 . S
C1165 C1164 1.377 . S
C1165 C1166 1.379 . S
C1166 H1150 0.931 . S
C1166 C1160 1.383 . S
C1166 C1165 1.379 . S
H1167 C1161 0.959 . S
H1168 C1161 0.961 . S
H1169 C1161 0.960 . S
H1170 C1162 0.930 . S
H1171 C1163 0.929 . S
H1172 C1180 0.929 . S
H1173 C1182 0.930 . S
H1174 C1184 0.930 . S
H1175 C1187 0.929 . S
H1176 C1190 0.930 . S
H1177 C1192 0.960 . S
H1178 C1192 0.960 . S
H1179 C1192 0.960 . S
C1180 H1172 0.929 . S
C1180 C1181 1.377 . S
C1180 C1182 1.384 . S
C1181 C1180 1.377 . S
C1181 C1187 1.390 1_554 S
C1182 H1173 0.930 . S
C1182 C1180 1.384 . S
C1182 C1183 1.372 . S
C1183 C1182 1.372 . S
C1183 C1184 1.400 1_554 S
C1183 C1188 1.490 . S
C1184 H1174 0.930 . S
C1184 C1183 1.400 1_556 S
C1184 C1187 1.386 . S
H1185 C1201 0.930 . S
H1186 C1202 0.931 . S
C1187 H1175 0.929 . S
C1187 C1181 1.390 1_556 S
C1187 C1184 1.386 . S
C1188 C1183 1.490 . S
C1188 C1190 1.395 . S
C1188 C1191 1.403 1_554 S
H1189 C1195 0.930 . S
C1190 H1176 0.930 . S
C1190 C1188 1.395 . S
C1190 C1193 1.403 . S
C1191 C1188 1.403 1_556 S
C1191 C1192 1.524 . S
C1191 C1195 1.400 . S
C1192 H1177 0.960 . S
C1192 H1178 0.960 . S
C1192 H1179 0.960 . S
C1192 C1191 1.524 . S
C1193 C1190 1.403 . S
C1193 C1194 1.392 . S
C1193 C1197 1.495 . S
C1194 C1193 1.392 . S
C1194 C1195 1.385 1_554 S
C1194 C1196 1.478 . S
C1195 H1189 0.930 . S
C1195 C1191 1.400 . S
C1195 C1194 1.385 1_556 S
C1196 C1194 1.478 . S
C1196 C1198 1.381 . S
C1196 C1202 1.383 . S
C1197 C1193 1.495 . S
C1197 H1203 0.959 . S
C1197 H1204 0.961 . S
C1197 H1205 0.960 . S
C1198 C1196 1.381 . S
C1198 C1199 1.394 . S
C1198 H1206 0.930 . S
C1199 C1198 1.394 . S
C1199 C1200 1.383 . S
C1199 H1207 0.929 . S
C1200 C1199 1.383 . S
C1200 C1201 1.377 . S
C1201 H1185 0.930 . S
C1201 C1200 1.377 . S
C1201 C1202 1.379 . S
C1202 H1186 0.931 . S
C1202 C1196 1.383 . S
C1202 C1201 1.379 . S
H1203 C1197 0.959 . S
H1204 C1197 0.961 . S
H1205 C1197 0.960 . S
H1206 C1198 0.930 . S
H1207 C1199 0.929 . S
C353 C21 1.543 . S
C372 C201 1.474 . S
C389 C40 1.630 . S
C408 C117 1.526 . S
C444 C149 1.517 . S
C425 C54 1.508 . S
C461 C73 1.660 . S
C480 C169 1.663 . S
C516 C277 1.520 . S
C497 C74 1.513 . S
C552 C297 1.623 . S
C533 C10 1.624 . S
C588 C329 1.499 . S
C569 C37 1.542 . S
C624 C245 1.551 . S
C605 C65 1.666 . S
C641 C52 1.503 . S
C660 C137 1.510 . S
C677 C87 1.668 . S
C696 C181 1.673 . S
C713 C15 1.550 . S
C732 C213 1.490 . S
C768 C105 1.499 . S
C749 C32 1.615 . S
C785 C29 1.554 . S
C804 C341 1.496 . S
C840 C233 1.566 . S
C821 C59 1.663 . S
C876 C265 1.502 . S
C857 C84 1.504 . S
C893 C8 1.622 . S
C912 C309 1.624 . S
C948 C111 1.606 . S
C929 C7 1.763 . S
C984 C143 1.630 . S
C965 C30 1.630 . S
C1001 C62 1.783 . S
C1020 C175 1.777 . S
C1037 C81 1.623 . S
C1056 C207 1.577 . S
C1092 C239 1.618 . S
C1073 C76 1.782 . S
C1109 C18 1.630 . S
C1128 C271 1.631 . S
C1145 C43 1.764 . S
C1164 C303 1.765 . S
C1181 C51 1.621 . S
C1200 C335 1.555 . S
