# Generated by pormake.
# Topology pth, (4,4)-cn, num edge types: 1
# Building blocks:
#     Node 0, Type 0, BuildingBlock: GALJAG_clean_sbu_0, # of connection points: 4
#     Node 1, Type 0, BuildingBlock: GALJAG_clean_sbu_0, # of connection points: 4
#     Node 2, Type 0, BuildingBlock: GALJAG_clean_sbu_0, # of connection points: 4
#     Node 3, Type 1, BuildingBlock: AZAVOO_clean_linker_0, # of connection points: 4
#     Node 4, Type 1, BuildingBlock: AZAVOO_clean_linker_0, # of connection points: 4
#     Node 5, Type 1, BuildingBlock: AZAVOO_clean_linker_0, # of connection points: 4
#     Edge 6, Type (0, 1), BuildingBlock: EZIPEK_clean_linker_0, # of connection points: 2
#     Edge 7, Type (0, 1), BuildingBlock: EZIPEK_clean_linker_0, # of connection points: 2
#     Edge 8, Type (0, 1), BuildingBlock: EZIPEK_clean_linker_0, # of connection points: 2
#     Edge 9, Type (0, 1), BuildingBlock: EZIPEK_clean_linker_0, # of connection points: 2
#     Edge 10, Type (0, 1), BuildingBlock: EZIPEK_clean_linker_0, # of connection points: 2
#     Edge 11, Type (0, 1), BuildingBlock: EZIPEK_clean_linker_0, # of connection points: 2
#     Edge 12, Type (0, 1), BuildingBlock: EZIPEK_clean_linker_0, # of connection points: 2
#     Edge 13, Type (0, 1), BuildingBlock: EZIPEK_clean_linker_0, # of connection points: 2
#     Edge 14, Type (0, 1), BuildingBlock: EZIPEK_clean_linker_0, # of connection points: 2
#     Edge 15, Type (0, 1), BuildingBlock: EZIPEK_clean_linker_0, # of connection points: 2
#     Edge 16, Type (0, 1), BuildingBlock: EZIPEK_clean_linker_0, # of connection points: 2
#     Edge 17, Type (0, 1), BuildingBlock: EZIPEK_clean_linker_0, # of connection points: 2
# Relax obj value: 0.144
# Max RMSD: 0.233
# Mean RMSD: 0.162
data_MOF--net-pth--node1-GALJAG_clean_sbu_0--node2-AZAVOO_clean_linker_0--edge1-EZIPEK_clean_linker_0
_symmetry_space_group_name_H-M    P1
_symmetry_Int_Tables_number       1
_symmetry_cell_setting            triclinic
loop_
_symmetry_equiv_pos_as_xyz
'x, y, z'
_cell_length_a     20.739157
_cell_length_b     21.048634
_cell_length_c     53.666964
_cell_angle_alpha  93.499942
_cell_angle_beta   88.816044
_cell_angle_gamma 119.95482
loop_
_atom_site_label
_atom_site_type_symbol
_atom_site_fract_x
_atom_site_fract_y
_atom_site_fract_z
_atom_type_partial_charge
In0 In 0.11142 0.04375 0.07253 0.0
O1 O 0.03793 0.06941 0.09848 0.0
O2 O 0.15485 0.12553 0.10596 0.0
C3 C 0.01996 0.97281 0.03345 0.0
C4 C 0.2208 0.14678 0.04657 0.0
C5 C 0.11509 0.94004 0.0976 0.0
O6 O 0.01358 0.01992 0.04734 0.0
O7 O 0.07051 0.96007 0.03964 0.0
O8 O 0.17298 0.99036 0.08808 0.0
O9 O 0.05586 0.94139 0.09416 0.0
C10 C 0.09152 0.11471 0.11243 0.0
O11 O 0.2262 0.09496 0.05507 0.0
O12 O 0.16166 0.14765 0.05167 0.0
In13 In 0.03221 0.02315 0.40158 0.0
O14 O 0.08091 0.11204 0.37322 0.0
O15 O 0.96416 0.05913 0.3796 0.0
C16 C 0.15602 0.05209 0.42635 0.0
C17 C 0.96235 0.03329 0.44314 0.0
C18 C 0.99318 0.89687 0.3749 0.0
O19 O 0.15048 0.1018 0.41625 0.0
O20 O 0.10123 0.98836 0.4229 0.0
O21 O 0.94869 0.90396 0.38968 0.0
O22 O 0.05549 0.95412 0.37259 0.0
C23 C 0.01939 0.10766 0.36844 0.0
O24 O 0.9478 0.97235 0.43252 0.0
O25 O 0.00975 0.08886 0.43228 0.0
In26 In 0.07735 0.07981 0.73974 0.0
O27 O 0.00261 0.96271 0.75143 0.0
O28 O 0.00881 0.04997 0.77541 0.0
C29 C 0.17707 0.0526 0.71582 0.0
C30 C 0.9763 0.0807 0.70929 0.0
C31 C 0.17994 0.20944 0.76135 0.0
O32 O 0.15277 0.02924 0.73704 0.0
O33 O 0.14916 0.08688 0.70634 0.0
O34 O 0.14427 0.20529 0.74199 0.0
O35 O 0.16196 0.14885 0.77032 0.0
C36 C 0.98102 0.98164 0.77118 0.0
O37 O 0.00379 0.12519 0.72807 0.0
O38 O 0.00011 0.03624 0.70571 0.0
H39 H 0.06341 0.39425 0.07562 0.0
H40 H 0.09804 0.9687 0.26097 0.0
H41 H 0.91748 0.32764 0.20444 0.0
H42 H 0.93696 0.23693 0.17986 0.0
H43 H 0.1497 0.31931 0.2163 0.0
H44 H 0.13254 0.41411 0.23959 0.0
H45 H 0.94199 0.42168 0.17246 0.0
H46 H 0.97106 0.39925 0.12952 0.0
H47 H 0.20581 0.52109 0.1482 0.0
H48 H 0.17564 0.54049 0.19134 0.0
H49 H 0.94422 0.56206 0.18292 0.0
H50 H 0.96988 0.65424 0.15238 0.0
H51 H 0.20067 0.77254 0.17549 0.0
H52 H 0.17478 0.68056 0.20616 0.0
H53 H 0.91489 0.60762 0.23209 0.0
H54 H 0.91791 0.72562 0.23485 0.0
H55 H 0.14506 0.83258 0.26215 0.0
H56 H 0.14225 0.71479 0.25823 0.0
H57 H 0.88195 0.49277 0.28237 0.0
H58 H 0.85944 0.56578 0.31532 0.0
H59 H 0.09623 0.70657 0.3257 0.0
H60 H 0.11845 0.63097 0.29407 0.0
H61 H 0.89985 0.32851 0.26109 0.0
H62 H 0.89754 0.23969 0.28934 0.0
H63 H 0.10814 0.40622 0.32125 0.0
H64 H 0.11121 0.49476 0.29272 0.0
O65 O 0.05311 0.40397 0.09267 0.0
O66 O 0.1732 0.46936 0.10301 0.0
O67 O 0.97978 0.86433 0.24441 0.0
O68 O 0.09552 0.92146 0.25953 0.0
C69 C 0.02485 0.44809 0.22993 0.0
C70 C 0.03923 0.49693 0.21089 0.0
C71 C 0.04106 0.56367 0.21648 0.0
C72 C 0.02827 0.58241 0.24091 0.0
C73 C 0.01555 0.5348 0.26029 0.0
C74 C 0.01413 0.46734 0.25485 0.0
C75 C 0.02453 0.3786 0.22319 0.0
C76 C 0.96737 0.32484 0.20767 0.0
C77 C 0.97842 0.27317 0.19368 0.0
C78 C 0.04563 0.27311 0.19581 0.0
C79 C 0.09795 0.31948 0.21423 0.0
C80 C 0.08805 0.37318 0.22756 0.0
C81 C 0.05664 0.48086 0.1851 0.0
C82 C -0.00046 0.44225 0.16732 0.0
C83 C 0.01637 0.43006 0.14277 0.0
C84 C 0.09076 0.45791 0.13547 0.0
C85 C 0.14792 0.4985 0.15324 0.0
C86 C 0.13089 0.50931 0.1779 0.0
C87 C 0.05771 0.61526 0.19665 0.0
C88 C 0.0004 0.60739 0.18112 0.0
C89 C 0.01497 0.65959 0.1638 0.0
C90 C 0.08702 0.71971 0.16187 0.0
C91 C 0.14488 0.72619 0.17682 0.0
C92 C 0.13019 0.67415 0.19422 0.0
C93 C 0.02762 0.65241 0.24564 0.0
C94 C 0.9649 0.6565 0.23895 0.0
C95 C 0.96702 0.72404 0.24033 0.0
C96 C 0.03161 0.7885 0.2489 0.0
C97 C 0.09424 0.78397 0.2557 0.0
C98 C 0.09252 0.71663 0.25378 0.0
C99 C 0.00188 0.55703 0.2857 0.0
C100 C 0.92882 0.53674 0.29276 0.0
C101 C 0.91602 0.57885 0.31131 0.0
C102 C 0.97628 0.643 0.3222 0.0
C103 C 0.04907 0.65806 0.31715 0.0
C104 C 0.06173 0.61459 0.29927 0.0
C105 C 0.00556 0.41825 0.27492 0.0
C106 C 0.94479 0.34627 0.2745 0.0
C107 C 0.9436 0.29564 0.29047 0.0
C108 C 0.00292 0.31654 0.30717 0.0
C109 C 0.06198 0.38933 0.30843 0.0
C110 C 0.06337 0.43985 0.29236 0.0
C111 C 0.10848 0.44435 0.10943 0.0
C112 C 0.03381 0.8602 0.25075 0.0
H113 H 0.72235 0.0754 0.41335 0.0
H114 H 0.15885 0.11654 0.59369 0.0
H115 H 0.66479 0.98048 0.56879 0.0
H116 H 0.75529 0.95924 0.54498 0.0
H117 H 0.85705 0.17906 0.51973 0.0
H118 H 0.77221 0.20295 0.54568 0.0
H119 H 0.59442 0.99448 0.51236 0.0
H120 H 0.63753 0.00603 0.46914 0.0
H121 H 0.71164 0.2382 0.4759 0.0
H122 H 0.66602 0.22538 0.51881 0.0
H123 H 0.45867 0.99252 0.51341 0.0
H124 H 0.37581 0.99099 0.48109 0.0
H125 H 0.42104 0.20655 0.50836 0.0
H126 H 0.5064 0.20931 0.54018 0.0
H127 H 0.37065 0.96725 0.56417 0.0
H128 H 0.24736 0.95581 0.56713 0.0
H129 H 0.34852 0.18172 0.59614 0.0
H130 H 0.47149 0.19274 0.59257 0.0
H131 H 0.45886 0.95508 0.61541 0.0
H132 H 0.37378 0.93608 0.65032 0.0
H133 H 0.46899 0.1706 0.66211 0.0
H134 H 0.55661 0.18947 0.62815 0.0
H135 H 0.59087 0.97252 0.61586 0.0
H136 H 0.67583 0.96919 0.64644 0.0
H137 H 0.82947 0.19923 0.6381 0.0
H138 H 0.74448 0.20268 0.60768 0.0
O139 O 0.70361 0.07178 0.43018 0.0
O140 O 0.73575 0.18981 0.43386 0.0
O141 O 0.15803 0.00462 0.57641 0.0
O142 O 0.20686 0.11942 0.59247 0.0
C143 C 0.64235 0.09642 0.5645 0.0
C144 C 0.60118 0.102 0.54486 0.0
C145 C 0.5329 0.09879 0.5498 0.0
C146 C 0.50461 0.089 0.57421 0.0
C147 C 0.54582 0.08432 0.59399 0.0
C148 C 0.6152 0.08877 0.5892 0.0
C149 C 0.71049 0.09259 0.55828 0.0
C150 C 0.70925 0.02545 0.55931 0.0
C151 C 0.76023 0.01303 0.54551 0.0
C152 C 0.80976 0.06628 0.5296 0.0
C153 C 0.81744 0.1365 0.53129 0.0
C154 C 0.76917 0.15013 0.54609 0.0
C155 C 0.62809 0.10926 0.51874 0.0
C156 C 0.62021 0.04777 0.50446 0.0
C157 C 0.64504 0.05458 0.47984 0.0
C158 C 0.67923 0.12323 0.46923 0.0
C159 C 0.68609 0.18461 0.48356 0.0
C160 C 0.66021 0.17751 0.50805 0.0
C161 C 0.48831 0.10103 0.52904 0.0
C162 C 0.45229 0.04021 0.51198 0.0
C163 C 0.40536 0.03937 0.49361 0.0
C164 C 0.39315 0.09887 0.49241 0.0
C165 C 0.43074 0.16065 0.50898 0.0
C166 C 0.47868 0.16196 0.52713 0.0
C167 C 0.42974 0.08044 0.57852 0.0
C168 C 0.36588 0.01389 0.57141 0.0
C169 C 0.29565 0.00768 0.57298 0.0
C170 C 0.28811 0.06797 0.58182 0.0
C171 C 0.35232 0.13427 0.58926 0.0
C172 C 0.42257 0.14053 0.58748 0.0
C173 C 0.51391 0.07367 0.61933 0.0
C174 C 0.4641 0.00235 0.62641 0.0
C175 C 0.41524 0.99153 0.64614 0.0
C176 C 0.41412 0.05194 0.65834 0.0
C177 C 0.4687 0.12334 0.65278 0.0
C178 C 0.51886 0.13413 0.63353 0.0
C179 C 0.66122 0.08805 0.6098 0.0
C180 C 0.64193 0.02256 0.6211 0.0
C181 C 0.69044 0.02054 0.63834 0.0
C182 C 0.75864 0.08399 0.64441 0.0
C183 C 0.77693 0.14989 0.63363 0.0
C184 C 0.72854 0.15187 0.61641 0.0
C185 C 0.70784 0.13056 0.44336 0.0
C186 C 0.21367 0.06182 0.58335 0.0
H187 H 0.67745 0.67241 0.06858 0.0
H188 H 0.19422 0.11428 0.86955 0.0
H189 H 0.64236 0.74934 0.93721 0.0
H190 H 0.74549 0.84355 0.9632 0.0
H191 H 0.89064 0.76885 0.93163 0.0
H192 H 0.78593 0.67144 0.90667 0.0
H193 H 0.56273 0.6505 0.96785 0.0
H194 H 0.59903 0.6701 0.01199 0.0
H195 H 0.72458 0.55853 0.99741 0.0
H196 H 0.69025 0.54205 0.95312 0.0
H197 H 0.42016 0.50297 0.95077 0.0
H198 H 0.34871 0.41299 0.98192 0.0
H199 H 0.49028 0.31799 0.97092 0.0
H200 H 0.56147 0.40782 0.93968 0.0
H201 H 0.37383 0.47735 0.89435 0.0
H202 H 0.25716 0.36195 0.88599 0.0
H203 H 0.37885 0.24434 0.88151 0.0
H204 H 0.49474 0.35986 0.89064 0.0
H205 H 0.49191 0.60715 0.85251 0.0
H206 H 0.40591 0.5441 0.81691 0.0
H207 H 0.45942 0.37059 0.81605 0.0
H208 H 0.55013 0.43682 0.8498 0.0
H209 H 0.63168 0.74638 0.87827 0.0
H210 H 0.71811 0.83609 0.84925 0.0
H211 H 0.7943 0.68597 0.82482 0.0
H212 H 0.70732 0.59598 0.85359 0.0
O213 O 0.6636 0.66396 0.05107 0.0
O214 O 0.72678 0.6056 0.04262 0.0
O215 O 0.17945 0.22355 0.87589 0.0
O216 O 0.23936 0.16046 0.8733 0.0
C217 C 0.64002 0.6321 0.91252 0.0
C218 C 0.60029 0.5813 0.93079 0.0
C219 C 0.53701 0.51396 0.92391 0.0
C220 C 0.51262 0.4966 0.89893 0.0
C221 C 0.55341 0.54598 0.88032 0.0
C222 C 0.61745 0.61397 0.88714 0.0
C223 C 0.70645 0.70274 0.92054 0.0
C224 C 0.69695 0.75474 0.93529 0.0
C225 C 0.75566 0.80844 0.95005 0.0
C226 C 0.82495 0.81195 0.94959 0.0
C227 C 0.83724 0.76646 0.93224 0.0
C228 C 0.77774 0.71118 0.91799 0.0
C229 C 0.62555 0.59667 0.95726 0.0
C230 C 0.59924 0.63166 0.97418 0.0
C231 C 0.61954 0.64217 -0.0006 0.0
C232 C 0.66512 0.61629 0.00821 0.0
C233 C 0.68974 0.57948 0.99123 0.0
C234 C 0.67066 0.57041 0.96592 0.0
C235 C 0.49549 0.46133 0.9431 0.0
C236 C 0.43579 0.46291 0.95521 0.0
C237 C 0.39546 0.41206 0.9729 0.0
C238 C 0.41473 0.35946 0.97857 0.0
C239 C 0.47514 0.35856 0.9667 0.0
C240 C 0.51536 0.40935 0.94898 0.0
C241 C 0.44261 0.4269 0.89269 0.0
C242 C 0.37509 0.42659 0.89144 0.0
C243 C 0.30861 0.36062 0.88672 0.0
C244 C 0.30879 0.294 0.88278 0.0
C245 C 0.37675 0.29467 0.88424 0.0
C246 C 0.44302 0.36052 0.88935 0.0
C247 C 0.52574 0.52546 0.85413 0.0
C248 C 0.48815 0.55768 0.84372 0.0
C249 C 0.43854 0.52133 0.82365 0.0
C250 C 0.42382 0.45105 0.81478 0.0
C251 C 0.46847 0.42378 0.82313 0.0
C252 C 0.5204 0.46168 0.8423 0.0
C253 C 0.66315 0.66471 0.86788 0.0
C254 C 0.66621 0.73249 0.86637 0.0
C255 C 0.7154 0.78349 0.84995 0.0
C256 C 0.76247 0.76741 0.83508 0.0
C257 C 0.75829 0.69905 0.83621 0.0
C258 C 0.70864 0.64783 0.85246 0.0
C259 C 0.6871 0.62805 0.03497 0.0
C260 C 0.23851 0.22407 0.87715 0.0
C261 C 0.04229 0.11607 0.15541 0.0
C262 C 0.08169 0.15466 0.13436 0.0
C263 C 0.11041 0.27145 0.1561 0.0
C264 C 0.06454 0.23251 0.17616 0.0
N265 N 0.98352 0.11827 0.19484 0.0
N266 N 0.14393 0.2669 0.11281 0.0
C267 C 0.02962 0.15483 0.17582 0.0
C268 C 0.11379 0.23184 0.13426 0.0
N269 N 0.01919 0.04295 0.1562 0.0
N270 N 0.15108 0.34644 0.15787 0.0
H271 H 0.14696 0.23984 0.09627 0.0
H272 H 0.15993 0.32162 0.11061 0.0
H273 H 0.14814 0.37833 0.17294 0.0
H274 H 0.19245 0.37719 0.14531 0.0
H275 H 0.99751 0.01328 0.17204 0.0
H276 H 0.02658 0.01264 0.14145 0.0
H277 H 0.94927 0.06148 0.19438 0.0
H278 H 0.97682 0.1453 0.21078 0.0
C279 C 0.96535 0.07935 0.48781 0.0
C280 C 0.92381 0.03885 0.46597 0.0
C281 C 0.80693 0.00463 0.48772 0.0
C282 C 0.84823 0.04804 0.50915 0.0
N283 N 0.96396 0.11392 0.53189 0.0
N284 N 0.8069 0.97627 0.44337 0.0
C285 C 0.92685 0.08194 0.50981 0.0
C286 C 0.84505 0.00409 0.46555 0.0
N287 N 0.04146 0.11724 0.48728 0.0
N288 N 0.7311 0.96299 0.48851 0.0
H289 H 0.83253 0.97727 0.42637 0.0
H290 H 0.75065 0.95898 0.44118 0.0
H291 H 0.6995 0.96446 0.50357 0.0
H292 H 0.69926 0.92235 0.47486 0.0
H293 H 0.07525 0.15394 0.50151 0.0
H294 H 0.07204 0.11564 0.47188 0.0
H295 H 0.02054 0.13426 0.5347 0.0
H296 H 0.93665 0.11492 0.54834 0.0
C297 C 0.85223 0.87796 0.77819 0.0
C298 C 0.92497 0.92747 0.78765 0.0
C299 C 0.88871 0.87654 0.82886 0.0
C300 C 0.81804 0.82317 0.8188 0.0
N301 N 0.73424 0.76668 0.78356 0.0
N302 N 0.01652 0.96832 0.82071 0.0
C303 C 0.80032 0.82199 0.79334 0.0
C304 C 0.94427 0.9256 0.81271 0.0
N305 N 0.83169 0.88659 0.75512 0.0
N306 N 0.90236 0.88073 0.85391 0.0
H307 H 0.05888 0.00452 0.80939 0.0
H308 H 0.03604 0.96387 0.83786 0.0
H309 H 0.86424 0.84386 0.86617 0.0
H310 H 0.94927 0.92357 0.86292 0.0
H311 H 0.77725 0.85778 0.74829 0.0
H312 H 0.86784 0.92713 0.74348 0.0
H313 H 0.72169 0.75755 0.76454 0.0
H314 H 0.69349 0.72647 0.79431 0.0
C315 C 0.10697 0.81932 0.10309 0.0
C316 C 0.11683 0.88694 0.11368 0.0
C317 C 0.107 0.84497 0.15577 0.0
C318 C 0.10059 0.7785 0.14528 0.0
N319 N 0.10715 0.70636 0.1097 0.0
N320 N 0.14133 0.97101 0.14949 0.0
C321 C 0.10446 0.76684 0.11911 0.0
C322 C 0.12171 0.90195 0.13987 0.0
N323 N 0.09773 0.80457 0.07784 0.0
N324 N 0.09567 0.85231 0.18074 0.0
H325 H 0.1523 0.0141 0.13831 0.0
H326 H 0.15305 0.98742 0.16832 0.0
H327 H 0.08475 0.8118 0.1931 0.0
H328 H 0.09114 0.89599 0.18897 0.0
H329 H 0.08173 0.75315 0.06918 0.0
H330 H 0.10168 0.84288 0.06554 0.0
H331 H 0.1173 0.69825 0.09103 0.0
H332 H 0.10505 0.6667 0.12097 0.0
C333 C 0.20134 0.04634 0.46842 0.0
C334 C 0.2178 0.06768 0.4434 0.0
C335 C 0.35106 0.1194 0.45174 0.0
C336 C 0.33365 0.09189 0.47589 0.0
N337 N 0.24343 0.02469 0.50709 0.0
N338 N 0.30606 0.11642 0.41006 0.0
C339 C 0.25911 0.05425 0.48421 0.0
C340 C 0.29219 0.10273 0.43476 0.0
N341 N 0.13096 0.02109 0.47742 0.0
N342 N 0.42385 0.1617 0.44518 0.0
H343 H 0.26427 0.10408 0.39701 0.0
H344 H 0.358 0.13462 0.402 0.0
H345 H 0.46818 0.17293 0.45694 0.0
H346 H 0.44054 0.19004 0.42891 0.0
H347 H 0.11769 0.01384 0.49623 0.0
H348 H 0.08613 0.01277 0.46655 0.0
H349 H 0.1899 0.98818 0.51291 0.0
H350 H 0.28438 0.03304 0.51993 0.0
C351 C 0.30726 0.32101 0.76068 0.0
C352 C 0.23846 0.27997 0.77301 0.0
C353 C 0.28589 0.366 0.80979 0.0
C354 C 0.35759 0.40149 0.7988 0.0
N355 N 0.43709 0.41814 0.76363 0.0
N356 N 0.16027 0.26167 0.80877 0.0
C357 C 0.36807 0.38108 0.77399 0.0
C358 C 0.22701 0.30257 0.79731 0.0
N359 N 0.31465 0.30143 0.73645 0.0
N360 N 0.27385 0.39298 0.83214 0.0
H361 H 0.11391 0.21836 0.79958 0.0
H362 H 0.15123 0.26811 0.82766 0.0
H363 H 0.31553 0.43698 0.84264 0.0
H364 H 0.22138 0.3754 0.83966 0.0
H365 H 0.36069 0.33195 0.7255 0.0
H366 H 0.27285 0.25547 0.72659 0.0
H367 H 0.45208 0.40228 0.74679 0.0
H368 H 0.48096 0.4652 0.77236 0.0
C369 C 0.85277 0.07263 0.70287 0.0
C370 C 0.91999 0.08048 0.69269 0.0
C371 C 0.87633 0.08067 0.65061 0.0
C372 C 0.81306 0.08088 0.66108 0.0
N373 N 0.74545 0.08755 0.69729 0.0
N374 N 0.00184 0.1049 0.65747 0.0
C375 C 0.80244 0.07977 0.68727 0.0
C376 C 0.93339 0.08772 0.66669 0.0
N377 N 0.83538 0.05511 0.72715 0.0
N378 N 0.88107 0.07203 0.62529 0.0
H379 H 0.04592 0.1125 0.66867 0.0
H380 H 0.01727 0.11855 0.63912 0.0
H381 H 0.84046 0.06691 0.61287 0.0
H382 H 0.9218 0.06343 0.61672 0.0
H383 H 0.78364 0.04081 0.7348 0.0
H384 H 0.86999 0.04809 0.73913 0.0
H385 H 0.73986 0.0955 0.71638 0.0
H386 H 0.7069 0.09198 0.68642 0.0
C387 C 0.9208 0.85649 0.01286 0.0
C388 C 0.9702 0.9329 0.01192 0.0
C389 C 0.92489 0.93111 0.96986 0.0
C390 C 0.87907 0.85377 0.97018 0.0
N391 N 0.84155 0.74084 0.99024 0.0
N392 N 0.02825 0.04238 0.98882 0.0
C393 C 0.87968 0.81588 0.99115 0.0
C394 C 0.97465 0.97028 0.99024 0.0
N395 N 0.9106 0.82328 0.03489 0.0
N396 N 0.9201 0.96697 0.95021 0.0
H397 H 0.06509 0.07289 0.00348 0.0
H398 H 0.03994 0.07068 0.97258 0.0
H399 H 0.88709 0.93947 0.93443 0.0
H400 H 0.94545 0.02389 0.95007 0.0
H401 H 0.86884 0.76963 0.03758 0.0
H402 H 0.93947 0.85128 0.05131 0.0
H403 H 0.8476 0.7102 0.00357 0.0
H404 H 0.80808 0.70862 0.97518 0.0
C405 C 0.97905 0.77166 0.37592 0.0
C406 C 0.97595 0.82573 0.36219 0.0
C407 C 0.95162 0.74854 0.32363 0.0
C408 C 0.96513 0.6994 0.33666 0.0
N409 N 0.99099 0.6623 0.37499 0.0
N410 N 0.96259 0.86874 0.32314 0.0
C411 C 0.97785 0.71006 0.36284 0.0
C412 C 0.96252 0.81473 0.33611 0.0
N413 N 0.98371 0.77964 0.40142 0.0
N414 N 0.92769 0.7317 0.29934 0.0
H415 H 0.96617 0.91616 0.33181 0.0
H416 H 0.96334 0.86879 0.30374 0.0
H417 H 0.92094 0.68502 0.28922 0.0
H418 H 0.90837 0.76058 0.28977 0.0
H419 H 0.97884 0.73913 0.41275 0.0
H420 H 0.98765 0.82533 0.41156 0.0
H421 H 0.00968 0.67115 0.39339 0.0
H422 H 0.98598 0.61441 0.36619 0.0
C423 C 0.30717 0.07258 0.71355 0.0
C424 C 0.2349 0.04205 0.70285 0.0
C425 C 0.27883 0.01389 0.66339 0.0
C426 C 0.35049 0.04141 0.67435 0.0
N427 N 0.42811 0.08086 0.71124 0.0
N428 N 0.14722 0.96679 0.67022 0.0
C429 C 0.36304 0.06547 0.69994 0.0
C430 C 0.21927 0.00721 0.67859 0.0
N431 N 0.32387 0.11217 0.73598 0.0
N432 N 0.26837 0.9982 0.63822 0.0
H433 H 0.10209 0.96005 0.68105 0.0
H434 H 0.1317 0.93393 0.65367 0.0
H435 H 0.31049 0.00377 0.62612 0.0
H436 H 0.21944 0.98577 0.62898 0.0
H437 H 0.37776 0.14271 0.74326 0.0
H438 H 0.28504 0.11967 0.74645 0.0
H439 H 0.43767 0.09187 0.73041 0.0
H440 H 0.46983 0.07571 0.70173 0.0
C441 C 0.32804 0.27092 0.03904 0.0
C442 C 0.27605 0.19892 0.02973 0.0
C443 C 0.3149 0.23209 0.98688 0.0
C444 C 0.36929 0.30322 0.99627 0.0
N445 N 0.43724 0.38771 0.03092 0.0
N446 N 0.22673 0.10616 0.9958 0.0
C447 C 0.37879 0.32189 0.02229 0.0
C448 C 0.27186 0.17792 0.00394 0.0
N449 N 0.32755 0.29088 0.06375 0.0
N450 N 0.30216 0.21748 0.9617 0.0
H451 H 0.19257 0.06524 0.00766 0.0
H452 H 0.22705 0.08582 0.97766 0.0
H453 H 0.33297 0.25557 0.94855 0.0
H454 H 0.25757 0.16963 0.95379 0.0
H455 H 0.35796 0.34473 0.07119 0.0
H456 H 0.29311 0.25395 0.07671 0.0
H457 H 0.45174 0.40172 0.04973 0.0
H458 H 0.47516 0.4265 0.0191 0.0
C459 C 0.03245 0.16168 0.3269 0.0
C460 C 0.01332 0.15959 0.35249 0.0
C461 C 0.97945 0.25455 0.34754 0.0
C462 C 0.00496 0.26132 0.32261 0.0
N463 N 0.06364 0.22819 0.28904 0.0
N464 N 0.97998 0.21171 0.38837 0.0
C465 C 0.03367 0.21673 0.3124 0.0
C466 C 0.98947 0.20783 0.36313 0.0
N467 N 0.04665 0.10928 0.31624 0.0
N468 N 0.94449 0.29193 0.35616 0.0
H469 H 0.98779 0.17939 0.40057 0.0
H470 H 0.97076 0.25139 0.39758 0.0
H471 H 0.93768 0.32792 0.34543 0.0
H472 H 0.91703 0.28298 0.37316 0.0
H473 H 0.05309 0.10282 0.29713 0.0
H474 H 0.04584 0.06795 0.32626 0.0
H475 H 0.093 0.20342 0.2816 0.0
H476 H 0.06381 0.26664 0.27761 0.0
loop_
_geom_bond_atom_site_label_1
_geom_bond_atom_site_label_2
_geom_bond_distance
_geom_bond_site_symmetry_2
_ccdc_geom_bond_type
In0 O1 2.294 . S
In0 O2 2.326 . S
In0 O6 2.266 1_445 S
In0 O7 2.326 1_545 S
In0 O8 2.266 1_545 S
In0 O9 2.326 1_545 S
In0 O11 2.294 . S
In0 O12 2.326 . S
O1 In0 2.294 . S
O1 C10 1.240 . S
O2 In0 2.326 . S
O2 C10 1.252 . S
C3 O6 1.252 . S
C3 O7 1.260 1_655 S
C4 O11 1.240 . S
C4 O12 1.252 . S
C5 O8 1.252 . S
C5 O9 1.260 . S
O6 In0 2.266 1_665 S
O6 C3 1.252 . S
O7 In0 2.326 1_565 S
O7 C3 1.260 1_455 S
O8 In0 2.266 1_565 S
O8 C5 1.252 . S
O9 In0 2.326 1_565 S
O9 C5 1.260 . S
C10 O1 1.240 . S
C10 O2 1.252 . S
O11 In0 2.294 . S
O11 C4 1.240 . S
O12 In0 2.326 . S
O12 C4 1.252 . S
In13 O14 2.294 . S
In13 O15 2.326 1_455 S
In13 O19 2.266 . S
In13 O20 2.326 1_545 S
In13 O21 2.266 1_445 S
In13 O22 2.326 1_545 S
In13 O24 2.294 1_445 S
In13 O25 2.326 . S
O14 In13 2.294 . S
O14 C23 1.240 . S
O15 In13 2.326 1_655 S
O15 C23 1.252 1_655 S
C16 O19 1.252 . S
C16 O20 1.260 1_545 S
C17 O24 1.240 1_545 S
C17 O25 1.252 1_655 S
C18 O21 1.252 1_455 S
C18 O22 1.260 . S
O19 In13 2.266 . S
O19 C16 1.252 . S
O20 In13 2.326 1_565 S
O20 C16 1.260 1_565 S
O21 In13 2.266 1_665 S
O21 C18 1.252 1_655 S
O22 In13 2.326 1_565 S
O22 C18 1.260 . S
C23 O14 1.240 . S
C23 O15 1.252 1_455 S
O24 In13 2.294 1_665 S
O24 C17 1.240 1_565 S
O25 In13 2.326 . S
O25 C17 1.252 1_455 S
In26 O27 2.294 1_545 S
In26 O28 2.326 . S
In26 O32 2.266 . S
In26 O33 2.326 . S
In26 O34 2.266 . S
In26 O35 2.326 . S
In26 O37 2.294 . S
In26 O38 2.326 . S
O27 In26 2.294 1_565 S
O27 C36 1.240 . S
O28 In26 2.326 . S
O28 C36 1.252 1_545 S
C29 O32 1.252 . S
C29 O33 1.260 . S
C30 O37 1.240 . S
C30 O38 1.252 . S
C31 O34 1.252 . S
C31 O35 1.260 . S
O32 In26 2.266 . S
O32 C29 1.252 . S
O33 In26 2.326 . S
O33 C29 1.260 . S
O34 In26 2.266 . S
O34 C31 1.252 . S
O35 In26 2.326 . S
O35 C31 1.260 . S
C36 O27 1.240 . S
C36 O28 1.252 1_565 S
O37 In26 2.294 . S
O37 C30 1.240 . S
O38 In26 2.326 . S
O38 C30 1.252 . S
H39 O65 0.856 . S
H40 O68 0.854 1_545 S
H41 C76 0.930 . S
H42 C77 0.930 . S
H43 C79 0.930 . S
H44 C80 0.930 . S
H45 C82 0.931 1_655 S
H46 C83 0.930 1_655 S
H47 C85 0.930 . S
H48 C86 0.929 . S
H49 C88 0.930 1_655 S
H50 C89 0.931 1_655 S
H51 C91 0.930 . S
H52 C92 0.929 . S
H53 C94 0.939 . S
H54 C95 0.930 1_655 S
H55 C97 0.930 . S
H56 C98 0.932 . S
H57 C100 0.930 . S
H58 C101 0.929 . S
H59 C103 0.931 . S
H60 C104 0.930 . S
H61 C106 0.929 . S
H62 C107 0.931 . S
H63 C109 0.930 . S
H64 C110 0.929 . S
O65 H39 0.856 . S
O65 C111 1.300 . S
O66 C111 1.209 . S
O67 C112 1.199 . S
O68 H40 0.854 1_565 S
O68 C112 1.297 . S
C69 C70 1.404 . S
C69 C74 1.397 . S
C69 C75 1.492 . S
C70 C69 1.404 . S
C70 C71 1.396 . S
C70 C81 1.492 . S
C71 C70 1.396 . S
C71 C72 1.397 . S
C71 C87 1.509 . S
C72 C71 1.397 . S
C72 C73 1.412 . S
C72 C93 1.485 . S
C73 C72 1.412 . S
C73 C74 1.388 . S
C73 C99 1.490 . S
C74 C69 1.397 . S
C74 C73 1.388 . S
C74 C105 1.519 . S
C75 C69 1.492 . S
C75 C76 1.363 1_455 S
C75 C80 1.390 . S
C76 H41 0.930 . S
C76 C75 1.363 1_655 S
C76 C77 1.372 . S
C77 H42 0.930 . S
C77 C76 1.372 . S
C77 C78 1.383 1_655 S
C78 C77 1.383 1_455 S
C78 C79 1.395 . S
C79 H43 0.930 . S
C79 C78 1.395 . S
C79 C80 1.362 . S
C80 H44 0.930 . S
C80 C75 1.390 . S
C80 C79 1.362 . S
C81 C70 1.492 . S
C81 C82 1.377 . S
C81 C86 1.397 . S
C82 H45 0.931 1_455 S
C82 C81 1.377 . S
C82 C83 1.376 . S
C83 H46 0.930 1_455 S
C83 C82 1.376 . S
C83 C84 1.376 . S
C84 C83 1.376 . S
C84 C85 1.378 . S
C84 C111 1.486 . S
C85 H47 0.930 . S
C85 C84 1.378 . S
C85 C86 1.376 . S
C86 H48 0.929 . S
C86 C81 1.397 . S
C86 C85 1.376 . S
C87 C71 1.509 . S
C87 C88 1.391 . S
C87 C92 1.386 . S
C88 H49 0.930 1_455 S
C88 C87 1.391 . S
C88 C89 1.375 . S
C89 H50 0.931 1_455 S
C89 C88 1.375 . S
C89 C90 1.375 . S
C90 C89 1.375 . S
C90 C91 1.361 . S
C91 H51 0.930 . S
C91 C90 1.361 . S
C91 C92 1.399 . S
C92 H52 0.929 . S
C92 C87 1.386 . S
C92 C91 1.399 . S
C93 C72 1.485 . S
C93 C94 1.379 1_455 S
C93 C98 1.360 . S
C94 H53 0.939 . S
C94 C93 1.379 1_655 S
C94 C95 1.379 1_655 S
C95 H54 0.930 1_455 S
C95 C94 1.379 1_455 S
C95 C96 1.397 . S
C96 C95 1.397 . S
C96 C97 1.390 . S
C96 C112 1.476 . S
C97 H55 0.930 . S
C97 C96 1.390 . S
C97 C98 1.366 . S
C98 H56 0.932 . S
C98 C93 1.360 . S
C98 C97 1.366 . S
C99 C73 1.490 . S
C99 C100 1.380 1_455 S
C99 C104 1.386 . S
C100 H57 0.930 . S
C100 C99 1.380 1_655 S
C100 C101 1.381 . S
C101 H58 0.929 . S
C101 C100 1.381 . S
C101 C102 1.371 1_655 S
C102 C101 1.371 1_455 S
C102 C103 1.380 . S
C103 H59 0.931 . S
C103 C102 1.380 . S
C103 C104 1.387 . S
C104 H60 0.930 . S
C104 C99 1.386 . S
C104 C103 1.387 . S
C105 C74 1.519 . S
C105 C106 1.377 1_455 S
C105 C110 1.361 . S
C106 H61 0.929 . S
C106 C105 1.377 1_655 S
C106 C107 1.386 . S
C107 H62 0.931 . S
C107 C106 1.386 . S
C107 C108 1.363 1_655 S
C108 C107 1.363 1_455 S
C108 C109 1.385 . S
C109 H63 0.930 . S
C109 C108 1.385 . S
C109 C110 1.396 . S
C110 H64 0.929 . S
C110 C105 1.361 . S
C110 C109 1.396 . S
C111 O65 1.300 . S
C111 O66 1.209 . S
C111 C84 1.486 . S
C112 O67 1.199 . S
C112 O68 1.297 . S
C112 C96 1.476 . S
H113 O139 0.856 . S
H114 O142 0.854 . S
H115 C150 0.930 . S
H116 C151 0.930 . S
H117 C153 0.930 . S
H118 C154 0.930 . S
H119 C156 0.931 1_565 S
H120 C157 0.930 1_565 S
H121 C159 0.930 . S
H122 C160 0.929 . S
H123 C162 0.930 1_565 S
H124 C163 0.931 1_565 S
H125 C165 0.930 . S
H126 C166 0.929 . S
H127 C168 0.931 1_565 S
H128 C169 0.930 1_565 S
H129 C171 0.930 . S
H130 C172 0.932 . S
H131 C174 0.923 1_565 S
H132 C175 0.929 . S
H133 C177 0.931 . S
H134 C178 0.930 . S
H135 C180 0.929 1_565 S
H136 C181 0.931 1_565 S
H137 C183 0.930 . S
H138 C184 0.929 . S
O139 H113 0.856 . S
O139 C185 1.300 . S
O140 C185 1.209 . S
O141 C186 1.199 . S
O142 H114 0.854 . S
O142 C186 1.297 . S
C143 C144 1.404 . S
C143 C148 1.397 . S
C143 C149 1.492 . S
C144 C143 1.404 . S
C144 C145 1.396 . S
C144 C155 1.492 . S
C145 C144 1.396 . S
C145 C146 1.397 . S
C145 C161 1.509 . S
C146 C145 1.397 . S
C146 C147 1.412 . S
C146 C167 1.485 . S
C147 C146 1.412 . S
C147 C148 1.388 . S
C147 C173 1.490 . S
C148 C143 1.397 . S
C148 C147 1.388 . S
C148 C179 1.519 . S
C149 C143 1.492 . S
C149 C150 1.363 1_545 S
C149 C154 1.390 . S
C150 H115 0.930 . S
C150 C149 1.363 1_565 S
C150 C151 1.372 . S
C151 H116 0.930 . S
C151 C150 1.372 . S
C151 C152 1.383 1_565 S
C152 C151 1.383 1_545 S
C152 C153 1.395 . S
C153 H117 0.930 . S
C153 C152 1.395 . S
C153 C154 1.362 . S
C154 H118 0.930 . S
C154 C149 1.390 . S
C154 C153 1.362 . S
C155 C144 1.492 . S
C155 C156 1.377 . S
C155 C160 1.397 . S
C156 H119 0.931 1_545 S
C156 C155 1.377 . S
C156 C157 1.376 . S
C157 H120 0.930 1_545 S
C157 C156 1.376 . S
C157 C158 1.376 . S
C158 C157 1.376 . S
C158 C159 1.378 . S
C158 C185 1.486 . S
C159 H121 0.930 . S
C159 C158 1.378 . S
C159 C160 1.376 . S
C160 H122 0.929 . S
C160 C155 1.397 . S
C160 C159 1.376 . S
C161 C145 1.509 . S
C161 C162 1.391 . S
C161 C166 1.386 . S
C162 H123 0.930 1_545 S
C162 C161 1.391 . S
C162 C163 1.375 . S
C163 H124 0.931 1_545 S
C163 C162 1.375 . S
C163 C164 1.375 . S
C164 C163 1.375 . S
C164 C165 1.361 . S
C165 H125 0.930 . S
C165 C164 1.361 . S
C165 C166 1.399 . S
C166 H126 0.929 . S
C166 C161 1.386 . S
C166 C165 1.399 . S
C167 C146 1.485 . S
C167 C168 1.394 . S
C167 C172 1.360 . S
C168 H127 0.931 1_545 S
C168 C167 1.394 . S
C168 C169 1.372 . S
C169 H128 0.930 1_545 S
C169 C168 1.372 . S
C169 C170 1.397 . S
C170 C169 1.397 . S
C170 C171 1.390 . S
C170 C186 1.476 . S
C171 H129 0.930 . S
C171 C170 1.390 . S
C171 C172 1.366 . S
C172 H130 0.932 . S
C172 C167 1.360 . S
C172 C171 1.366 . S
C173 C147 1.490 . S
C173 C174 1.387 . S
C173 C178 1.386 . S
C174 H131 0.923 1_545 S
C174 C173 1.387 . S
C174 C175 1.381 1_545 S
C175 H132 0.929 . S
C175 C174 1.381 1_565 S
C175 C176 1.371 1_565 S
C176 C175 1.371 1_545 S
C176 C177 1.380 . S
C177 H133 0.931 . S
C177 C176 1.380 . S
C177 C178 1.387 . S
C178 H134 0.930 . S
C178 C173 1.386 . S
C178 C177 1.387 . S
C179 C148 1.519 . S
C179 C180 1.377 . S
C179 C184 1.361 . S
C180 H135 0.929 1_545 S
C180 C179 1.377 . S
C180 C181 1.386 . S
C181 H136 0.931 1_545 S
C181 C180 1.386 . S
C181 C182 1.363 . S
C182 C181 1.363 . S
C182 C183 1.385 . S
C183 H137 0.930 . S
C183 C182 1.385 . S
C183 C184 1.396 . S
C184 H138 0.929 . S
C184 C179 1.361 . S
C184 C183 1.396 . S
C185 O139 1.300 . S
C185 O140 1.209 . S
C185 C158 1.486 . S
C186 O141 1.199 . S
C186 O142 1.297 . S
C186 C170 1.476 . S
H187 O213 0.856 . S
H188 O216 0.854 . S
H189 C224 0.930 . S
H190 C225 0.930 . S
H191 C227 0.930 . S
H192 C228 0.930 . S
H193 C230 0.931 . S
H194 C231 0.930 . S
H195 C233 0.930 . S
H196 C234 0.929 . S
H197 C236 0.930 . S
H198 C237 0.931 . S
H199 C239 0.930 . S
H200 C240 0.929 . S
H201 C242 0.931 . S
H202 C243 0.930 . S
H203 C245 0.930 . S
H204 C246 0.932 . S
H205 C248 0.930 . S
H206 C249 0.929 . S
H207 C251 0.931 . S
H208 C252 0.930 . S
H209 C254 0.929 . S
H210 C255 0.931 . S
H211 C257 0.930 . S
H212 C258 0.929 . S
O213 H187 0.856 . S
O213 C259 1.300 . S
O214 C259 1.209 . S
O215 C260 1.199 . S
O216 H188 0.854 . S
O216 C260 1.297 . S
C217 C218 1.404 . S
C217 C222 1.397 . S
C217 C223 1.492 . S
C218 C217 1.404 . S
C218 C219 1.396 . S
C218 C229 1.492 . S
C219 C218 1.396 . S
C219 C220 1.397 . S
C219 C235 1.509 . S
C220 C219 1.397 . S
C220 C221 1.412 . S
C220 C241 1.485 . S
C221 C220 1.412 . S
C221 C222 1.388 . S
C221 C247 1.490 . S
C222 C217 1.397 . S
C222 C221 1.388 . S
C222 C253 1.519 . S
C223 C217 1.492 . S
C223 C224 1.363 . S
C223 C228 1.390 . S
C224 H189 0.930 . S
C224 C223 1.363 . S
C224 C225 1.372 . S
C225 H190 0.930 . S
C225 C224 1.372 . S
C225 C226 1.383 . S
C226 C225 1.383 . S
C226 C227 1.395 . S
C227 H191 0.930 . S
C227 C226 1.395 . S
C227 C228 1.362 . S
C228 H192 0.930 . S
C228 C223 1.390 . S
C228 C227 1.362 . S
C229 C218 1.492 . S
C229 C230 1.377 . S
C229 C234 1.397 . S
C230 H193 0.931 . S
C230 C229 1.377 . S
C230 C231 1.376 1_556 S
C231 H194 0.930 . S
C231 C230 1.376 1_554 S
C231 C232 1.376 . S
C232 C231 1.376 . S
C232 C233 1.378 . S
C232 C259 1.486 . S
C233 H195 0.930 . S
C233 C232 1.378 . S
C233 C234 1.376 1_554 S
C234 H196 0.929 . S
C234 C229 1.397 . S
C234 C233 1.376 1_556 S
C235 C219 1.509 . S
C235 C236 1.391 . S
C235 C240 1.386 . S
C236 H197 0.930 . S
C236 C235 1.391 . S
C236 C237 1.375 . S
C237 H198 0.931 . S
C237 C236 1.375 . S
C237 C238 1.375 . S
C238 C237 1.375 . S
C238 C239 1.361 . S
C239 H199 0.930 . S
C239 C238 1.361 . S
C239 C240 1.399 . S
C240 H200 0.929 . S
C240 C235 1.386 . S
C240 C239 1.399 . S
C241 C220 1.485 . S
C241 C242 1.394 . S
C241 C246 1.360 . S
C242 H201 0.931 . S
C242 C241 1.394 . S
C242 C243 1.372 . S
C243 H202 0.930 . S
C243 C242 1.372 . S
C243 C244 1.397 . S
C244 C243 1.397 . S
C244 C245 1.390 . S
C244 C260 1.476 . S
C245 H203 0.930 . S
C245 C244 1.390 . S
C245 C246 1.366 . S
C246 H204 0.932 . S
C246 C241 1.360 . S
C246 C245 1.366 . S
C247 C221 1.490 . S
C247 C248 1.380 . S
C247 C252 1.386 . S
C248 H205 0.930 . S
C248 C247 1.380 . S
C248 C249 1.381 . S
C249 H206 0.929 . S
C249 C248 1.381 . S
C249 C250 1.371 . S
C250 C249 1.371 . S
C250 C251 1.380 . S
C251 H207 0.931 . S
C251 C250 1.380 . S
C251 C252 1.387 . S
C252 H208 0.930 . S
C252 C247 1.386 . S
C252 C251 1.387 . S
C253 C222 1.519 . S
C253 C254 1.377 . S
C253 C258 1.361 . S
C254 H209 0.929 . S
C254 C253 1.377 . S
C254 C255 1.386 . S
C255 H210 0.931 . S
C255 C254 1.386 . S
C255 C256 1.363 . S
C256 C255 1.363 . S
C256 C257 1.385 . S
C257 H211 0.930 . S
C257 C256 1.385 . S
C257 C258 1.396 . S
C258 H212 0.929 . S
C258 C253 1.361 . S
C258 C257 1.396 . S
C259 O213 1.300 . S
C259 O214 1.209 . S
C259 C232 1.486 . S
C260 O215 1.199 . S
C260 O216 1.297 . S
C260 C244 1.476 . S
C261 C262 1.363 . S
C261 C267 1.379 1_455 S
C261 N269 1.356 1_455 S
C262 C261 1.363 . S
C262 C268 1.363 . S
C263 C264 1.363 . S
C263 C268 1.379 . S
C263 N270 1.356 . S
C264 C263 1.363 . S
C264 C267 1.363 1_455 S
N265 C267 1.356 . S
N265 H277 0.984 . S
N265 H278 0.985 . S
N266 C268 1.356 . S
N266 H271 0.984 . S
N266 H272 0.985 . S
C267 C261 1.379 1_655 S
C267 C264 1.363 1_655 S
C267 N265 1.356 . S
C268 C262 1.363 . S
C268 C263 1.379 . S
C268 N266 1.356 . S
N269 C261 1.356 1_655 S
N269 H275 0.984 . S
N269 H276 0.979 1_655 S
N270 C263 1.356 . S
N270 H273 0.984 . S
N270 H274 0.985 . S
H271 N266 0.984 . S
H272 N266 0.985 . S
H273 N270 0.984 . S
H274 N270 0.985 . S
H275 N269 0.984 . S
H276 N269 0.979 1_455 S
H277 N265 0.984 . S
H278 N265 0.985 . S
C279 C280 1.363 . S
C279 C285 1.379 . S
C279 N287 1.356 . S
C280 C279 1.363 . S
C280 C286 1.363 1_545 S
C281 C282 1.363 1_565 S
C281 C286 1.379 . S
C281 N288 1.356 . S
C282 C281 1.363 1_545 S
C282 C285 1.363 . S
N283 C285 1.356 . S
N283 H295 0.984 . S
N283 H296 0.985 . S
N284 C286 1.356 . S
N284 H289 0.984 . S
N284 H290 0.985 . S
C285 C279 1.379 . S
C285 C282 1.363 . S
C285 N283 1.356 . S
C286 C280 1.363 1_565 S
C286 C281 1.379 . S
C286 N284 1.356 . S
N287 C279 1.356 . S
N287 H293 0.984 1_655 S
N287 H294 0.984 1_655 S
N288 C281 1.356 . S
N288 H291 0.984 . S
N288 H292 0.985 . S
H289 N284 0.984 . S
H290 N284 0.985 . S
H291 N288 0.984 . S
H292 N288 0.985 . S
H293 N287 0.984 1_455 S
H294 N287 0.984 1_455 S
H295 N283 0.984 . S
H296 N283 0.985 . S
C297 C298 1.363 . S
C297 C303 1.379 . S
C297 N305 1.356 . S
C298 C297 1.363 . S
C298 C304 1.363 . S
C299 C300 1.363 . S
C299 C304 1.379 . S
C299 N306 1.356 . S
C300 C299 1.363 . S
C300 C303 1.363 . S
N301 C303 1.356 . S
N301 H313 0.984 . S
N301 H314 0.985 . S
N302 C304 1.356 1_455 S
N302 H307 0.984 . S
N302 H308 0.985 . S
C303 C297 1.379 . S
C303 C300 1.363 . S
C303 N301 1.356 . S
C304 C298 1.363 . S
C304 C299 1.379 . S
C304 N302 1.356 1_655 S
N305 C297 1.356 . S
N305 H311 0.984 . S
N305 H312 0.984 . S
N306 C299 1.356 . S
N306 H309 0.984 . S
N306 H310 0.985 . S
H307 N302 0.984 . S
H308 N302 0.985 . S
H309 N306 0.984 . S
H310 N306 0.985 . S
H311 N305 0.984 . S
H312 N305 0.984 . S
H313 N301 0.984 . S
H314 N301 0.985 . S
C315 C316 1.363 . S
C315 C321 1.379 . S
C315 N323 1.356 1_455 S
C316 C315 1.363 . S
C316 C322 1.363 . S
C317 C318 1.363 . S
C317 C322 1.379 . S
C317 N324 1.356 . S
C318 C317 1.363 . S
C318 C321 1.363 . S
N319 C321 1.356 . S
N319 H331 0.984 1_455 S
N319 H332 0.985 . S
N320 C322 1.356 1_545 S
N320 H325 0.984 . S
N320 H326 0.985 . S
C321 C315 1.379 . S
C321 C318 1.363 . S
C321 N319 1.356 . S
C322 C316 1.363 . S
C322 C317 1.379 . S
C322 N320 1.356 1_565 S
N323 C315 1.356 1_655 S
N323 H329 0.984 . S
N323 H330 0.984 1_655 S
N324 C317 1.356 . S
N324 H327 0.984 . S
N324 H328 0.985 . S
H325 N320 0.984 . S
H326 N320 0.985 . S
H327 N324 0.984 . S
H328 N324 0.985 . S
H329 N323 0.984 . S
H330 N323 0.984 1_455 S
H331 N319 0.984 1_655 S
H332 N319 0.985 . S
C333 C334 1.363 1_565 S
C333 C339 1.379 1_565 S
C333 N341 1.356 . S
C334 C333 1.363 1_545 S
C334 C340 1.363 . S
C335 C336 1.363 . S
C335 C340 1.379 . S
C335 N342 1.356 . S
C336 C335 1.363 . S
C336 C339 1.363 . S
N337 C339 1.356 . S
N337 H349 0.984 1_545 S
N337 H350 0.985 . S
N338 C340 1.356 . S
N338 H343 0.984 . S
N338 H344 0.985 . S
C339 C333 1.379 1_545 S
C339 C336 1.363 . S
C339 N337 1.356 . S
C340 C334 1.363 . S
C340 C335 1.379 . S
C340 N338 1.356 . S
N341 C333 1.356 . S
N341 H347 0.984 . S
N341 H348 0.984 . S
N342 C335 1.356 . S
N342 H345 0.984 . S
N342 H346 0.985 . S
H343 N338 0.984 . S
H344 N338 0.985 . S
H345 N342 0.984 . S
H346 N342 0.985 . S
H347 N341 0.984 . S
H348 N341 0.984 . S
H349 N337 0.984 1_565 S
H350 N337 0.985 . S
C351 C352 1.363 . S
C351 C357 1.379 . S
C351 N359 1.356 . S
C352 C351 1.363 . S
C352 C358 1.363 . S
C353 C354 1.363 . S
C353 C358 1.379 . S
C353 N360 1.356 . S
C354 C353 1.363 . S
C354 C357 1.363 . S
N355 C357 1.356 . S
N355 H367 0.984 . S
N355 H368 0.985 . S
N356 C358 1.356 . S
N356 H361 0.984 . S
N356 H362 0.985 . S
C357 C351 1.379 . S
C357 C354 1.363 . S
C357 N355 1.356 . S
C358 C352 1.363 . S
C358 C353 1.379 . S
C358 N356 1.356 . S
N359 C351 1.356 . S
N359 H365 0.984 . S
N359 H366 0.984 . S
N360 C353 1.356 . S
N360 H363 0.984 . S
N360 H364 0.985 . S
H361 N356 0.984 . S
H362 N356 0.985 . S
H363 N360 0.984 . S
H364 N360 0.985 . S
H365 N359 0.984 . S
H366 N359 0.984 . S
H367 N355 0.984 . S
H368 N355 0.985 . S
C369 C370 1.363 . S
C369 C375 1.379 . S
C369 N377 1.356 . S
C370 C369 1.363 . S
C370 C376 1.363 . S
C371 C372 1.363 . S
C371 C376 1.379 . S
C371 N378 1.356 . S
C372 C371 1.363 . S
C372 C375 1.363 . S
N373 C375 1.356 . S
N373 H385 0.984 . S
N373 H386 0.985 . S
N374 C376 1.356 1_565 S
N374 H379 0.984 . S
N374 H380 0.985 . S
C375 C369 1.379 . S
C375 C372 1.363 . S
C375 N373 1.356 . S
C376 C370 1.363 . S
C376 C371 1.379 . S
C376 N374 1.356 1_545 S
N377 C369 1.356 . S
N377 H383 0.984 . S
N377 H384 0.984 . S
N378 C371 1.356 . S
N378 H381 0.984 . S
N378 H382 0.985 1_545 S
H379 N374 0.984 . S
H380 N374 0.985 . S
H381 N378 0.984 . S
H382 N378 0.985 1_565 S
H383 N377 0.984 . S
H384 N377 0.984 . S
H385 N373 0.984 . S
H386 N373 0.985 . S
C387 C388 1.363 . S
C387 C393 1.379 1_554 S
C387 N395 1.356 . S
C388 C387 1.363 . S
C388 C394 1.363 . S
C389 C390 1.363 . S
C389 C394 1.379 1_556 S
C389 N396 1.356 . S
C390 C389 1.363 . S
C390 C393 1.363 . S
N391 C393 1.356 . S
N391 H403 0.984 . S
N391 H404 0.985 . S
N392 C394 1.356 1_545 S
N392 H397 0.984 1_655 S
N392 H398 0.985 1_655 S
C393 C387 1.379 1_556 S
C393 C390 1.363 . S
C393 N391 1.356 . S
C394 C388 1.363 . S
C394 C389 1.379 1_554 S
C394 N392 1.356 1_565 S
N395 C387 1.356 . S
N395 H401 0.984 . S
N395 H402 0.984 . S
N396 C389 1.356 . S
N396 H399 0.984 . S
N396 H400 0.985 1_565 S
H397 N392 0.984 1_455 S
H398 N392 0.985 1_455 S
H399 N396 0.984 . S
H400 N396 0.985 1_545 S
H401 N395 0.984 . S
H402 N395 0.984 . S
H403 N391 0.984 . S
H404 N391 0.985 . S
C405 C406 1.363 . S
C405 C411 1.379 . S
C405 N413 1.356 . S
C406 C405 1.363 . S
C406 C412 1.363 1_455 S
C407 C408 1.363 1_655 S
C407 C412 1.379 . S
C407 N414 1.356 . S
C408 C407 1.363 1_455 S
C408 C411 1.363 . S
N409 C411 1.356 . S
N409 H421 0.984 . S
N409 H422 0.985 . S
N410 C412 1.356 . S
N410 H415 0.984 . S
N410 H416 0.985 . S
C411 C405 1.379 . S
C411 C408 1.363 . S
C411 N409 1.356 . S
C412 C406 1.363 1_655 S
C412 C407 1.379 . S
C412 N410 1.356 . S
N413 C405 1.356 . S
N413 H419 0.984 . S
N413 H420 0.984 . S
N414 C407 1.356 . S
N414 H417 0.984 . S
N414 H418 0.985 . S
H415 N410 0.984 . S
H416 N410 0.985 . S
H417 N414 0.984 . S
H418 N414 0.985 . S
H419 N413 0.984 . S
H420 N413 0.984 . S
H421 N409 0.984 . S
H422 N409 0.985 . S
C423 C424 1.363 . S
C423 C429 1.379 . S
C423 N431 1.356 . S
C424 C423 1.363 . S
C424 C430 1.363 . S
C425 C426 1.363 . S
C425 C430 1.379 . S
C425 N432 1.356 . S
C426 C425 1.363 . S
C426 C429 1.363 . S
N427 C429 1.356 . S
N427 H439 0.984 . S
N427 H440 0.985 . S
N428 C430 1.356 . S
N428 H433 0.984 . S
N428 H434 0.985 . S
C429 C423 1.379 . S
C429 C426 1.363 . S
C429 N427 1.356 . S
C430 C424 1.363 . S
C430 C425 1.379 . S
C430 N428 1.356 . S
N431 C423 1.356 . S
N431 H437 0.984 . S
N431 H438 0.984 . S
N432 C425 1.356 . S
N432 H435 0.984 . S
N432 H436 0.985 . S
H433 N428 0.984 . S
H434 N428 0.985 . S
H435 N432 0.984 . S
H436 N432 0.985 . S
H437 N431 0.984 . S
H438 N431 0.984 . S
H439 N427 0.984 . S
H440 N427 0.985 . S
C441 C442 1.363 . S
C441 C447 1.379 . S
C441 N449 1.356 . S
C442 C441 1.363 . S
C442 C448 1.363 . S
C443 C444 1.363 . S
C443 C448 1.379 . S
C443 N450 1.356 . S
C444 C443 1.363 . S
C444 C447 1.363 . S
N445 C447 1.356 . S
N445 H457 0.984 . S
N445 H458 0.985 1_554 S
N446 C448 1.356 . S
N446 H451 0.984 . S
N446 H452 0.985 . S
C447 C441 1.379 . S
C447 C444 1.363 . S
C447 N445 1.356 . S
C448 C442 1.363 . S
C448 C443 1.379 . S
C448 N446 1.356 . S
N449 C441 1.356 . S
N449 H455 0.984 . S
N449 H456 0.984 . S
N450 C443 1.356 . S
N450 H453 0.967 1_554 S
N450 H454 0.985 . S
H451 N446 0.984 . S
H452 N446 0.985 . S
H453 N450 0.967 1_556 S
H454 N450 0.985 . S
H455 N449 0.984 . S
H456 N449 0.984 . S
H457 N445 0.984 . S
H458 N445 0.985 1_556 S
C459 C460 1.363 . S
C459 C465 1.379 . S
C459 N467 1.356 . S
C460 C459 1.363 . S
C460 C466 1.363 . S
C461 C462 1.363 . S
C461 C466 1.379 . S
C461 N468 1.356 . S
C462 C461 1.363 . S
C462 C465 1.363 . S
N463 C465 1.356 . S
N463 H475 0.984 . S
N463 H476 0.985 . S
N464 C466 1.356 . S
N464 H469 0.984 . S
N464 H470 0.985 . S
C465 C459 1.379 . S
C465 C462 1.363 . S
C465 N463 1.356 . S
C466 C460 1.363 . S
C466 C461 1.379 . S
C466 N464 1.356 . S
N467 C459 1.356 . S
N467 H473 0.984 . S
N467 H474 0.984 . S
N468 C461 1.356 . S
N468 H471 0.984 . S
N468 H472 0.985 . S
H469 N464 0.984 . S
H470 N464 0.985 . S
H471 N468 0.984 . S
H472 N468 0.985 . S
H473 N467 0.984 . S
H474 N467 0.984 . S
H475 N463 0.984 . S
H476 N463 0.985 . S
C264 C78 1.513 . S
C262 C10 1.640 . S
C280 C17 1.579 . S
C282 C152 1.457 . S
C298 C36 2.106 1_655 S
C300 C256 2.098 . S
C316 C5 1.009 . S
C318 C90 1.000 . S
C336 C164 1.007 . S
C334 C16 1.020 . S
C352 C31 1.830 . S
C354 C250 1.618 . S
C372 C182 2.072 . S
C370 C30 2.084 1_655 S
C388 C3 1.621 . S
C390 C226 1.500 . S
C408 C102 1.644 . S
C406 C18 1.860 . S
C426 C176 1.586 . S
C424 C29 1.785 . S
C444 C238 0.983 1_554 S
C442 C4 0.992 . S
C460 C23 2.140 . S
C462 C108 2.134 . S
