# Generated by pormake.
# Topology pyr, (3,6)-cn, num edge types: 1
# Building blocks:
#     Node 0, Type 0, BuildingBlock: PAMTOO_clean_linker_0, # of connection points: 3
#     Node 1, Type 0, BuildingBlock: PAMTOO_clean_linker_0, # of connection points: 3
#     Node 2, Type 0, BuildingBlock: PAMTOO_clean_linker_0, # of connection points: 3
#     Node 3, Type 0, BuildingBlock: PAMTOO_clean_linker_0, # of connection points: 3
#     Node 4, Type 0, BuildingBlock: PAMTOO_clean_linker_0, # of connection points: 3
#     Node 5, Type 0, BuildingBlock: PAMTOO_clean_linker_0, # of connection points: 3
#     Node 6, Type 0, BuildingBlock: PAMTOO_clean_linker_0, # of connection points: 3
#     Node 7, Type 0, BuildingBlock: PAMTOO_clean_linker_0, # of connection points: 3
#     Node 8, Type 1, BuildingBlock: JUFBIX_clean_sbu_0, # of connection points: 6
#     Node 9, Type 1, BuildingBlock: JUFBIX_clean_sbu_0, # of connection points: 6
#     Node 10, Type 1, BuildingBlock: JUFBIX_clean_sbu_0, # of connection points: 6
#     Node 11, Type 1, BuildingBlock: JUFBIX_clean_sbu_0, # of connection points: 6
#     Edge 12, Type (0, 1), BuildingBlock: OJICUG_clean_linker_0, # of connection points: 2
#     Edge 13, Type (0, 1), BuildingBlock: OJICUG_clean_linker_0, # of connection points: 2
#     Edge 14, Type (0, 1), BuildingBlock: OJICUG_clean_linker_0, # of connection points: 2
#     Edge 15, Type (0, 1), BuildingBlock: OJICUG_clean_linker_0, # of connection points: 2
#     Edge 16, Type (0, 1), BuildingBlock: OJICUG_clean_linker_0, # of connection points: 2
#     Edge 17, Type (0, 1), BuildingBlock: OJICUG_clean_linker_0, # of connection points: 2
#     Edge 18, Type (0, 1), BuildingBlock: OJICUG_clean_linker_0, # of connection points: 2
#     Edge 19, Type (0, 1), BuildingBlock: OJICUG_clean_linker_0, # of connection points: 2
#     Edge 20, Type (0, 1), BuildingBlock: OJICUG_clean_linker_0, # of connection points: 2
#     Edge 21, Type (0, 1), BuildingBlock: OJICUG_clean_linker_0, # of connection points: 2
#     Edge 22, Type (0, 1), BuildingBlock: OJICUG_clean_linker_0, # of connection points: 2
#     Edge 23, Type (0, 1), BuildingBlock: OJICUG_clean_linker_0, # of connection points: 2
#     Edge 24, Type (0, 1), BuildingBlock: OJICUG_clean_linker_0, # of connection points: 2
#     Edge 25, Type (0, 1), BuildingBlock: OJICUG_clean_linker_0, # of connection points: 2
#     Edge 26, Type (0, 1), BuildingBlock: OJICUG_clean_linker_0, # of connection points: 2
#     Edge 27, Type (0, 1), BuildingBlock: OJICUG_clean_linker_0, # of connection points: 2
#     Edge 28, Type (0, 1), BuildingBlock: OJICUG_clean_linker_0, # of connection points: 2
#     Edge 29, Type (0, 1), BuildingBlock: OJICUG_clean_linker_0, # of connection points: 2
#     Edge 30, Type (0, 1), BuildingBlock: OJICUG_clean_linker_0, # of connection points: 2
#     Edge 31, Type (0, 1), BuildingBlock: OJICUG_clean_linker_0, # of connection points: 2
#     Edge 32, Type (0, 1), BuildingBlock: OJICUG_clean_linker_0, # of connection points: 2
#     Edge 33, Type (0, 1), BuildingBlock: OJICUG_clean_linker_0, # of connection points: 2
#     Edge 34, Type (0, 1), BuildingBlock: OJICUG_clean_linker_0, # of connection points: 2
#     Edge 35, Type (0, 1), BuildingBlock: OJICUG_clean_linker_0, # of connection points: 2
# Relax obj value: 0.162
# Max RMSD: 0.207
# Mean RMSD: 0.140
data_MOF--net-pry--node1-JUFBIX_clean_sbu_0--node2-PAMTOO_clean_linker_0--edge1-OJICUG_clean_linker_0
_symmetry_space_group_name_H-M    P1
_symmetry_Int_Tables_number       1
_symmetry_cell_setting            triclinic
loop_
_symmetry_equiv_pos_as_xyz
'x, y, z'
_cell_length_a     26.331661
_cell_length_b     25.770202
_cell_length_c     26.913136
_cell_angle_alpha  79.853712
_cell_angle_beta   87.467763
_cell_angle_gamma 95.128298
loop_
_atom_site_label
_atom_site_type_symbol
_atom_site_fract_x
_atom_site_fract_y
_atom_site_fract_z
_atom_type_partial_charge
H0 H 0.12984 0.21283 0.27106 0.0
H1 H 0.24336 0.1017 0.28616 0.0
H2 H 0.24765 0.22137 0.15267 0.0
H3 H 0.2615 0.10895 0.13975 0.0
C4 C 0.2887 0.09988 0.1699 0.0
O5 O 0.29191 0.14025 0.19789 0.0
H6 H 0.27316 0.06224 0.19492 0.0
C7 C 0.1633 0.19799 0.25597 0.0
C8 C 0.1859 0.2232 0.20828 0.0
C9 C 0.18344 0.15438 0.28496 0.0
C10 C 0.22713 0.13531 0.26492 0.0
C11 C 0.24966 0.15885 0.21682 0.0
C12 C 0.22908 0.20273 0.18892 0.0
H13 H 0.4122 0.97119 0.67546 0.0
H14 H 0.41814 0.84683 0.58892 0.0
H15 H 0.54101 0.87901 0.68224 0.0
H16 H 0.57461 0.84029 0.58251 0.0
C17 C 0.53669 0.81919 0.57852 0.0
O18 O 0.50569 0.8183 0.62129 0.0
H19 H 0.51953 0.84005 0.54448 0.0
C20 C 0.43357 0.94201 0.66156 0.0
C21 C 0.48001 0.92993 0.68202 0.0
C22 C 0.41116 0.91242 0.62798 0.0
C23 C 0.43631 0.87162 0.61297 0.0
C24 C 0.4839 0.86083 0.63153 0.0
C25 C 0.50567 0.88982 0.66596 0.0
H26 H 0.77139 0.29938 1.01023 0.0
H27 H 0.67749 0.31798 0.88152 0.0
H28 H 0.80256 0.43309 0.88862 0.0
H29 H 0.71214 0.48372 0.83822 0.0
C30 C 0.69105 0.4455 0.83419 0.0
O31 O 0.72484 0.40707 0.83693 0.0
H32 H 0.66112 0.43487 0.86586 0.0
C33 C 0.76182 0.32114 0.97425 0.0
C34 C 0.79287 0.36771 0.95225 0.0
C35 C 0.71963 0.30208 0.94941 0.0
C36 C 0.70835 0.33174 0.90268 0.0
C37 C 0.73732 0.37922 0.88158 0.0
C38 C 0.77979 0.39677 0.90593 0.0
H39 H 0.91612 0.7303 0.50501 0.0
H40 H 0.97345 0.61165 0.42934 0.0
H41 H 0.07506 0.74283 0.45365 0.0
H42 H 0.12154 0.66784 0.35867 0.0
C43 C 0.07983 0.66955 0.36509 0.0
O44 O 0.06712 0.65542 0.41635 0.0
H45 H 0.07236 0.71138 0.35121 0.0
C46 C 0.94764 0.71494 0.48687 0.0
C47 C 0.99664 0.74273 0.48197 0.0
C48 C 0.93874 0.66792 0.46765 0.0
C49 C 0.97949 0.64811 0.44406 0.0
C50 C 1.02838 0.67498 0.43936 0.0
C51 C 0.03708 0.72199 0.45845 0.0
H52 H 0.82816 0.95781 0.85422 0.0
H53 H 0.82007 0.829 0.98195 0.0
H54 H 0.94152 0.84584 0.86804 0.0
H55 H 0.89199 0.74183 0.90067 0.0
C56 C 0.89147 0.74012 0.94235 0.0
O57 O 0.90296 0.79025 0.95298 0.0
H58 H 0.85224 0.7246 0.95823 0.0
C59 C 0.843 0.92273 0.87438 0.0
C60 C 0.88822 0.90557 0.855 0.0
C61 C 0.81802 0.89593 0.92072 0.0
C62 C 0.83866 0.85093 0.94684 0.0
C63 C 0.88312 0.83334 0.92768 0.0
C64 C 0.90764 0.86071 0.88234 0.0
H65 H 0.74383 0.1443 0.35805 0.0
H66 H 0.59176 0.19221 0.34407 0.0
H67 H 0.69072 0.25412 0.44627 0.0
H68 H 0.58508 0.19081 0.47869 0.0
C69 C 0.56741 0.22472 0.45678 0.0
O70 O 0.59798 0.24906 0.41451 0.0
H71 H 0.53028 0.20879 0.4446 0.0
C72 C 0.715 0.16956 0.36638 0.0
C73 C 0.72378 0.20148 0.40286 0.0
C74 C 0.6676 0.16548 0.34482 0.0
C75 C 0.62893 0.19476 0.35967 0.0
C76 C 0.63718 0.22614 0.39643 0.0
C77 C 0.68488 0.23056 0.41712 0.0
H78 H 0.33607 0.71205 0.10205 0.0
H79 H 0.31638 0.58021 0.22682 0.0
H80 H 0.44666 0.69345 0.2164 0.0
H81 H 0.45887 0.57566 0.24337 0.0
C82 C 0.42782 0.56713 0.27401 0.0
O83 O 0.39806 0.60895 0.27069 0.0
H84 H 0.40385 0.5309 0.26892 0.0
C85 C 0.34997 0.69 0.13595 0.0
C86 C 0.39505 0.70968 0.15592 0.0
C87 C 0.32112 0.64321 0.16126 0.0
C88 C 0.338 0.61605 0.20662 0.0
C89 C 0.38313 0.63435 0.2261 0.0
C90 C 0.41166 0.6804 0.2006 0.0
H91 H 0.09553 0.31373 0.72847 0.0
H92 H 0.13843 0.47838 0.66512 0.0
H93 H 0.0926 0.37035 0.56802 0.0
H94 H 0.16617 0.51096 0.51033 0.0
C95 C 0.16691 0.47343 0.53778 0.0
O96 O 0.12517 0.46828 0.57201 0.0
H97 H 0.16312 0.441 0.51543 0.0
C98 C 0.10109 0.34578 0.69613 0.0
C99 C 0.09234 0.33545 0.64736 0.0
C100 C 0.11731 0.39743 0.70311 0.0
C101 C 0.12572 0.43835 0.66071 0.0
C102 C 0.11642 0.42851 0.61241 0.0
C103 C 0.09875 0.37751 0.60589 0.0
Co104 Co 1.00412 0.04533 0.55891 0.0
C105 C 1.02756 0.94429 0.54925 0.0
Co106 Co 0.07729 0.02515 0.58911 0.0
C107 C 0.92618 0.10595 0.5115 0.0
C108 C 0.89841 0.02677 0.54715 0.0
N109 N 0.94151 0.06007 0.53567 0.0
N110 N 0.87506 0.10257 0.5088 0.0
C111 C 0.85749 0.05288 0.53083 0.0
H112 H 0.95154 0.14161 0.49817 0.0
H113 H 0.89667 0.98659 0.56785 0.0
C114 C 0.05386 0.12622 0.59881 0.0
N115 N 0.13855 0.00893 0.61509 0.0
C116 C 0.17703 0.98702 0.5943 0.0
C117 C 0.15213 0.01261 0.6622 0.0
N118 N 0.2134 0.97607 0.62712 0.0
C119 C 0.19804 0.99206 0.66981 0.0
C120 C 0.08547 0.07186 0.48624 0.0
O121 O 1.01425 0.11356 0.57663 0.0
O122 O 0.08678 0.09314 0.60786 0.0
O123 O 0.11105 0.05368 0.52347 0.0
O124 O 0.03735 0.07233 0.49352 0.0
O125 O 0.06775 0.95715 0.57046 0.0
H126 H 0.12951 0.02819 0.68965 0.0
H127 H 0.17754 0.97761 0.55664 0.0
O128 O 0.9944 0.97717 0.54116 0.0
O129 O 0.97085 0.01835 0.62409 0.0
O130 O 0.04298 0.99664 0.65426 0.0
C131 C 0.99516 0.99836 0.66114 0.0
H132 H 0.81779 0.0368 0.53491 0.0
H133 H 0.21864 0.98895 0.70399 0.0
Co134 Co 0.53911 0.00882 1.00784 0.0
C135 C 0.51011 0.91202 0.07057 0.0
Co136 Co 0.57398 1.0011 0.08087 0.0
C137 C 0.51913 0.98896 0.90856 0.0
C138 C 0.48582 0.0575 0.92437 0.0
N139 N 0.51185 0.01731 0.94539 0.0
N140 N 0.4993 0.01019 0.86509 0.0
C141 C 0.47791 0.05316 0.87507 0.0
H142 H 0.54045 0.95461 0.91302 0.0
H143 H 0.47479 0.08895 0.94315 0.0
C144 C 0.60271 0.09799 1.01986 0.0
N145 N 0.60211 0.99417 0.1425 0.0
C146 C 0.59989 0.02901 0.17407 0.0
C147 C 0.6331 0.95854 0.16368 0.0
N148 N 0.62837 0.01693 0.21374 0.0
C149 C 0.65003 0.97304 0.20751 0.0
C150 C 0.63482 0.96817 1.00706 0.0
O151 O 0.5724 0.07951 0.99036 0.0
O152 O 0.6095 0.06974 0.06215 0.0
O153 O 0.63143 0.97194 0.05351 0.0
O154 O 0.5984 0.9822 0.97989 0.0
O155 O 0.53898 0.93293 0.09975 0.0
H156 H 0.64438 0.92558 0.14728 0.0
H157 H 0.58026 0.06451 0.16666 0.0
O158 O 0.50531 0.93759 1.02619 0.0
O159 O 0.48045 0.03555 0.03586 0.0
O160 O 0.51583 0.03046 0.10821 0.0
C161 C 0.47838 0.0423 0.08157 0.0
H162 H 0.45822 0.07983 0.84866 0.0
H163 H 0.67715 0.95407 0.23195 0.0
Co164 Co 0.593 0.51331 0.53731 0.0
C165 C 0.5143 0.52329 0.4709 0.0
Co166 Co 0.51579 0.49366 0.57514 0.0
C167 C 0.69785 0.55852 0.51225 0.0
C168 C 0.67106 0.50686 0.46279 0.0
N169 N 0.6566 0.52725 0.5034 0.0
N170 N 0.73757 0.55843 0.47863 0.0
C171 C 0.72067 0.52577 0.44759 0.0
H172 H 0.69833 0.5813 0.54239 0.0
H173 H 0.647 0.47979 0.44536 0.0
C174 C 0.59573 0.48387 0.64106 0.0
N175 N 0.45118 0.47806 0.60768 0.0
C176 C 0.40734 0.49674 0.59152 0.0
C177 C 0.4364 0.43864 0.64705 0.0
N178 N 0.36577 0.46965 0.61823 0.0
C179 C 0.38389 0.43317 0.65342 0.0
C180 C 0.55514 0.40763 0.54722 0.0
O181 O 0.62344 0.49922 0.6003 0.0
O182 O 0.54727 0.47876 0.63891 0.0
O183 O 0.51591 0.42206 0.56788 0.0
O184 O 0.59326 0.44119 0.53199 0.0
O185 O 0.4859 0.50858 0.51121 0.0
H186 H 0.46186 0.41306 0.66747 0.0
H187 H 0.40558 0.52663 0.55806 0.0
O188 O 0.56241 0.52762 0.47398 0.0
O189 O 0.592 0.58536 0.54309 0.0
O190 O 0.51539 0.56561 0.5813 0.0
C191 C 0.55267 0.5998 0.56392 0.0
H192 H 0.74267 0.51548 0.41647 0.0
H193 H 0.36075 0.40281 0.67993 0.0
Co194 Co 0.07804 0.49338 1.02894 0.0
C195 C 0.9778 0.44276 0.04014 0.0
Co196 Co 0.03752 0.49392 0.10247 0.0
C197 C 0.104 0.45688 0.93541 0.0
C198 C 0.14122 0.53336 0.93881 0.0
N199 N 0.10955 0.49332 0.96581 0.0
N200 N 0.13096 0.47274 0.89047 0.0
C201 C 0.15447 0.52086 0.89277 0.0
H202 H 0.07989 0.41992 0.94577 0.0
H203 H 0.15261 0.57022 0.95109 0.0
C204 C 0.13733 0.5461 0.09 0.0
N205 N 1.00783 0.4966 0.16577 0.0
C206 C 1.01329 0.53968 0.18794 0.0
C207 C 0.98829 0.45688 0.20306 0.0
N208 N 0.99962 0.52849 0.23782 0.0
C209 C 0.98356 0.47633 0.24757 0.0
C210 C 0.09537 0.40781 0.10329 0.0
O211 O 0.13751 0.53257 0.0469 0.0
O212 O 0.09752 0.53324 0.1195 0.0
O213 O 0.06546 0.43016 0.12935 0.0
O214 O 0.10581 0.42797 0.05676 0.0
O215 O 0.97733 0.45453 0.08431 0.0
H216 H 0.98188 0.41579 0.19912 0.0
H217 H 1.03192 0.57756 0.16886 0.0
O218 O 1.01841 0.45489 1.01143 0.0
O219 O 0.04964 0.55842 1.00201 0.0
O220 O 1.00994 0.55751 0.07541 0.0
C221 C 1.01957 0.57924 1.02946 0.0
H222 H 0.1777 0.54651 0.86243 0.0
H223 H 0.97216 0.45328 0.28465 0.0
C224 C 0.18802 0.11385 0.37772 0.0
C225 C 0.1587 0.13008 0.33624 0.0
H226 H 0.18832 0.08318 0.45734 0.0
C227 C 0.10513 0.12537 0.3447 0.0
H228 H 0.2293 0.11721 0.373 0.0
C229 C 0.08172 0.1066 0.3931 0.0
C230 C 0.11099 0.09141 0.43474 0.0
H231 H 0.08099 0.13627 0.31377 0.0
H232 H 0.04045 0.10404 0.3978 0.0
C233 C 0.16448 0.09473 0.42629 0.0
C234 C 0.49308 0.00671 0.72683 0.0
C235 C 0.4955 0.95259 0.72644 0.0
H236 H 0.49316 0.06771 0.7712 0.0
C237 C 0.50409 0.91866 0.77146 0.0
H238 H 0.4867 0.03369 0.69249 0.0
C239 C 0.50689 0.93786 0.8167 0.0
C240 C 0.50136 0.99143 0.81776 0.0
H241 H 0.50521 0.87658 0.77241 0.0
H242 H 0.51075 0.91008 0.85114 0.0
C243 C 0.49611 0.02597 0.77202 0.0
C244 C 0.69621 0.47201 0.73883 0.0
C245 C 0.66647 0.45249 0.78394 0.0
H246 H 0.69739 0.49721 0.65854 0.0
C247 C 0.61333 0.44219 0.7817 0.0
H248 H 0.73719 0.48045 0.73957 0.0
C249 C 0.59031 0.45206 0.73542 0.0
C250 C 0.61995 0.47231 0.69025 0.0
H251 H 0.58943 0.42718 0.81591 0.0
H252 H 0.54924 0.44412 0.73511 0.0
C253 C 0.67328 0.48171 0.69252 0.0
C254 C 1.03092 0.65214 0.29012 0.0
C255 C 0.05196 0.63214 0.33578 0.0
H256 H 0.99656 0.6344 0.2236 0.0
C257 C 0.05125 0.57702 0.35091 0.0
H258 H 1.03132 0.69446 0.27739 0.0
C259 C 1.03107 0.5426 0.32025 0.0
C260 C 1.01205 0.56275 0.27346 0.0
H261 H 0.06787 0.56067 0.38565 0.0
H262 H 0.03303 0.50046 0.33184 0.0
C263 C 1.01115 0.61782 0.25934 0.0
C264 C 0.38104 0.07785 0.17694 0.0
C265 C 0.3405 0.0917 0.14652 0.0
H266 H 0.45636 0.05185 0.18058 0.0
C267 C 0.34686 0.09159 0.09433 0.0
H268 H 0.37703 0.07682 0.21734 0.0
C269 C 0.39192 0.07689 0.07328 0.0
C270 C 0.43208 0.0617 0.10377 0.0
H271 H 0.31624 0.10145 0.06985 0.0
H272 H 0.39479 0.07636 1.0331 0.0
C273 C 0.42636 0.06329 0.15583 0.0
C274 C 0.32005 0.89264 0.65505 0.0
C275 C 0.35745 0.91832 0.61804 0.0
H276 H 0.2439 0.89179 0.68682 0.0
C277 C 0.34448 0.9582 0.57949 0.0
H278 H 0.32979 0.86245 0.68558 0.0
C279 C 0.29515 0.97444 0.5799 0.0
C280 C 0.25921 0.95182 0.61959 0.0
H281 H 0.37331 0.97911 0.55132 0.0
H282 H 0.28631 0.0074 0.55178 0.0
C283 C 0.27135 0.90959 0.65603 0.0
C284 C 0.84029 0.38664 1.02819 0.0
C285 C 0.84026 0.38485 0.97615 0.0
H286 H 0.88346 0.40656 0.08945 0.0
C287 C 0.88625 0.39962 0.9465 0.0
H288 H 0.80545 0.37557 0.05208 0.0
C289 C 0.93084 0.41654 0.96789 0.0
C290 C 0.93081 0.41987 1.01958 0.0
H291 H 0.88785 0.39793 0.90653 0.0
H292 H 0.96523 0.4281 0.94338 0.0
C293 C 0.88498 0.40437 0.0496 0.0
C294 C 0.8559 0.63114 0.51601 0.0
C295 C 0.88663 0.64032 0.47074 0.0
H296 H 0.7847 0.597 0.55441 0.0
C297 C 0.86729 0.62313 0.42802 0.0
H298 H 0.87011 0.64368 0.54962 0.0
C299 C 0.81833 0.59696 0.43054 0.0
C300 C 0.78761 0.58692 0.47597 0.0
H301 H 0.88985 0.63053 0.39238 0.0
H302 H 0.8045 0.58511 0.39657 0.0
C303 C 0.80693 0.60454 0.51867 0.0
C304 C 0.14342 0.30748 0.20676 0.0
C305 C 0.16456 0.2714 0.18003 0.0
H306 H 0.10491 0.37735 0.20395 0.0
C307 C 0.16397 0.28163 0.12677 0.0
H308 H 0.14446 0.30254 0.24748 0.0
C309 C 0.14205 0.32602 0.10136 0.0
C310 C 0.11958 0.3608 0.12865 0.0
H311 H 0.17951 0.25483 0.10467 0.0
H312 H 0.14189 0.33257 0.0605 0.0
C313 C 0.12087 0.35094 0.18162 0.0
C314 C 0.7105 0.20858 1.00021 0.0
C315 C 0.68849 0.25054 0.97061 0.0
H316 H 0.70033 0.12802 0.0396 0.0
C317 C 0.6368 0.24185 0.95956 0.0
H318 H 0.75019 0.21265 1.00899 0.0
C319 C 0.60901 0.19234 0.97537 0.0
C320 C 0.63141 0.15078 1.00436 0.0
H321 H 0.61746 0.27315 0.93847 0.0
H322 H 0.56975 0.1867 0.96533 0.0
C323 C 0.68205 0.15964 1.01749 0.0
C324 C 0.96844 0.83103 0.49172 0.0
C325 C 1.00482 0.79414 0.49979 0.0
H326 H 0.94697 0.90692 0.50103 0.0
C327 C 0.04885 0.80696 0.52465 0.0
H328 H 0.93454 0.82289 0.47191 0.0
C329 C 0.05621 0.85554 0.54111 0.0
C330 C 1.01971 0.89231 0.53299 0.0
H331 H 0.07738 0.77922 0.53186 0.0
H332 H 0.09052 0.86428 0.5601 0.0
C333 C 0.97573 0.87942 0.50818 0.0
C334 C 0.4974 0.72737 0.57597 0.0
C335 C 0.54151 0.76301 0.57239 0.0
H336 H 0.46653 0.64758 0.57719 0.0
C337 C 0.58949 0.7452 0.56408 0.0
H338 H 0.45994 0.74048 0.5816 0.0
C339 C 0.5933 0.69209 0.56085 0.0
C340 C 0.54922 0.65604 0.5664 0.0
H341 H 0.62397 0.77217 0.56069 0.0
H342 H 0.63074 0.67909 0.55489 0.0
C343 C 0.50123 0.67427 0.57364 0.0
C344 C 0.96928 0.93841 0.80056 0.0
C345 C 0.91545 0.93326 0.80614 0.0
H346 H 0.03643 0.96247 0.75096 0.0
C347 C 0.88827 0.95191 0.76386 0.0
H348 H 0.9917 0.92556 0.83241 0.0
C349 C 0.91414 0.97362 0.71706 0.0
C350 C 0.96786 0.97714 0.71127 0.0
H351 H 0.84691 0.94824 0.76644 0.0
H352 H 0.89188 0.98672 0.68513 0.0
C353 C 0.99508 0.9598 0.75379 0.0
C354 C 0.60933 0.09749 0.31335 0.0
C355 C 0.65746 0.12672 0.31087 0.0
H356 H 0.56269 0.03898 0.28357 0.0
C357 C 0.69651 0.11683 0.2773 0.0
H358 H 0.5787 0.10299 0.3395 0.0
C359 C 0.68767 0.0785 0.24723 0.0
C360 C 0.63947 0.05036 0.24946 0.0
H361 H 0.73373 0.13917 0.27369 0.0
H362 H 0.71772 0.0721 0.22083 0.0
C363 C 0.60029 0.06017 0.28229 0.0
C364 C 0.41816 0.53841 0.36911 0.0
C365 C 0.45007 0.55722 0.32522 0.0
H366 H 0.41326 0.51292 0.44961 0.0
C367 C 0.50298 0.56568 0.32965 0.0
H368 H 0.37723 0.53168 0.36658 0.0
C369 C 0.52369 0.55474 0.37692 0.0
C370 C 0.49193 0.53538 0.42093 0.0
H371 H 0.52843 0.58033 0.29645 0.0
H372 H 0.5647 0.56137 0.37889 0.0
C373 C 0.43884 0.52766 0.41652 0.0
C374 C 0.08541 0.394 0.79304 0.0
C375 C 0.12414 0.40984 0.75432 0.0
H376 H 0.05676 0.40212 0.8667 0.0
C377 C 0.16743 0.442 0.7633 0.0
H378 H 0.05147 0.36945 0.78698 0.0
C379 C 0.17069 0.46038 0.80896 0.0
C380 C 0.13054 0.44746 0.84663 0.0
H381 H 0.19825 0.45409 0.7344 0.0
H382 H 0.20422 0.48585 0.8142 0.0
C383 C 0.08849 0.41274 0.83874 0.0
C384 C 0.73203 0.93297 0.91153 0.0
C385 C 0.77097 0.91489 0.94245 0.0
H386 H 0.65858 0.96318 0.9074 0.0
C387 C 0.76433 0.91441 0.99479 0.0
H388 H 0.73541 0.93348 0.8712 0.0
C389 C 0.72027 0.93137 1.01557 0.0
C390 C 0.68123 0.94917 0.98475 0.0
H391 H 0.79363 0.90151 1.01983 0.0
H392 H 0.71692 0.93062 0.05596 0.0
C393 C 0.68771 0.94967 0.9324 0.0
C394 C 0.81712 0.19266 0.40909 0.0
C395 C 0.76883 0.19405 0.43307 0.0
H396 H 0.89021 0.16207 0.41574 0.0
C397 C 0.76096 0.17519 0.48527 0.0
H398 H 0.82395 0.20708 0.36882 0.0
C399 C 0.79835 0.149 0.51155 0.0
C400 C 0.84427 0.14218 0.48622 0.0
H401 H 0.72403 0.17544 0.50461 0.0
H402 H 0.78993 0.13032 0.55071 0.0
C403 C 0.85489 0.16706 0.43574 0.0
C404 C 0.22917 0.60576 0.17428 0.0
C405 C 0.27285 0.62257 0.14145 0.0
H406 H 0.15233 0.56915 0.1838 0.0
C407 C 0.27075 0.61665 0.0906 0.0
H408 H 0.22936 0.61034 0.21352 0.0
C409 C 0.22654 0.59257 0.07351 0.0
C410 C 0.18331 0.57449 0.10679 0.0
H411 H 0.30386 0.62901 0.06449 0.0
H412 H 0.22651 0.58741 0.03443 0.0
C413 C 0.18493 0.58226 0.15715 0.0
C414 C 0.23472 0.42484 0.58455 0.0
C415 C 0.21705 0.47312 0.56309 0.0
H416 H 0.29584 0.38603 0.61974 0.0
C417 C 0.24734 0.52062 0.5639 0.0
H418 H 0.2121 0.38769 0.58424 0.0
C419 C 0.29566 0.51964 0.58353 0.0
C420 C 0.31392 0.47123 0.60369 0.0
H421 H 0.23433 0.55835 0.5479 0.0
H422 H 0.31919 0.55658 0.58224 0.0
C423 C 0.28248 0.42393 0.60507 0.0
C424 C 0.96499 0.68398 0.93443 0.0
C425 C 0.929 0.70295 0.96521 0.0
H426 H 1.02212 0.63018 0.93045 0.0
C427 C 0.92656 0.68462 1.0176 0.0
H428 H 0.96794 0.6978 0.8939 0.0
C429 C 0.95761 0.64612 0.03859 0.0
C430 C 0.99195 0.62507 1.00763 0.0
H431 H 0.89939 0.6989 0.04213 0.0
H432 H 0.9535 0.63169 0.07902 0.0
C433 C 0.99609 0.64536 0.9554 0.0
C434 C 0.44646 0.79452 0.16374 0.0
C435 C 0.42362 0.76186 0.13251 0.0
H436 H 0.49151 0.86607 0.16887 0.0
C437 C 0.42865 0.77977 0.07969 0.0
H438 H 0.44221 0.78348 0.20453 0.0
C439 C 0.45646 0.82863 0.05895 0.0
C440 C 0.48026 0.8602 0.09058 0.0
H441 H 0.41182 0.75576 0.05433 0.0
H442 H 0.45988 0.8413 1.01827 0.0
C443 C 0.47465 0.84245 0.14316 0.0
C444 C 0.04031 0.2697 0.60703 0.0
C445 C 0.07939 0.28067 0.63869 0.0
H446 H 1.00131 0.21223 0.56992 0.0
C447 C 0.1087 0.23991 0.65876 0.0
H448 H 1.01702 0.30038 0.59121 0.0
C449 C 0.10017 0.1896 0.64612 0.0
C450 C 0.06174 0.17889 0.61363 0.0
H451 H 0.13942 0.24744 0.68281 0.0
H452 H 0.12404 0.15925 0.66144 0.0
C453 C 1.03134 0.21925 0.5949 0.0
C454 C 0.5142 0.28819 0.49163 0.0
C455 C 0.56025 0.26486 0.48983 0.0
H456 H 0.4761 0.35158 0.51333 0.0
C457 C 0.60221 0.28443 0.5138 0.0
H458 H 0.48144 0.27381 0.47318 0.0
C459 C 0.59967 0.32954 0.53535 0.0
C460 C 0.55455 0.35459 0.53466 0.0
H461 H 0.63781 0.26653 0.51346 0.0
H462 H 0.63351 0.34608 0.55075 0.0
C463 C 0.51114 0.33242 0.51464 0.0
loop_
_geom_bond_atom_site_label_1
_geom_bond_atom_site_label_2
_geom_bond_distance
_geom_bond_site_symmetry_2
_ccdc_geom_bond_type
H0 C7 0.929 . S
H1 C10 0.930 . S
H2 C12 0.929 . S
H3 C4 0.969 . S
C4 H3 0.969 . S
C4 O5 1.550 . S
C4 H6 0.973 . S
O5 C4 1.550 . S
O5 C11 1.412 . S
H6 C4 0.973 . S
C7 H0 0.929 . S
C7 C8 1.400 . S
C7 C9 1.364 . S
C8 C7 1.400 . S
C8 C12 1.377 . S
C9 C7 1.364 . S
C9 C10 1.374 . S
C10 H1 0.930 . S
C10 C9 1.374 . S
C10 C11 1.383 . S
C11 O5 1.412 . S
C11 C10 1.383 . S
C11 C12 1.394 . S
C12 H2 0.929 . S
C12 C8 1.377 . S
C12 C11 1.394 . S
H13 C20 0.929 . S
H14 C23 0.930 . S
H15 C25 0.929 . S
H16 C17 0.969 . S
C17 H16 0.969 . S
C17 O18 1.550 . S
C17 H19 0.973 . S
O18 C17 1.550 . S
O18 C24 1.412 . S
H19 C17 0.973 . S
C20 H13 0.929 . S
C20 C21 1.400 . S
C20 C22 1.364 . S
C21 C20 1.400 . S
C21 C25 1.377 . S
C22 C20 1.364 . S
C22 C23 1.374 . S
C23 H14 0.930 . S
C23 C22 1.374 . S
C23 C24 1.383 . S
C24 O18 1.412 . S
C24 C23 1.383 . S
C24 C25 1.394 . S
C25 H15 0.929 . S
C25 C21 1.377 . S
C25 C24 1.394 . S
H26 C33 0.929 . S
H27 C36 0.930 . S
H28 C38 0.929 . S
H29 C30 0.969 . S
C30 H29 0.969 . S
C30 O31 1.550 . S
C30 H32 0.973 . S
O31 C30 1.550 . S
O31 C37 1.412 . S
H32 C30 0.973 . S
C33 H26 0.929 . S
C33 C34 1.400 . S
C33 C35 1.364 . S
C34 C33 1.400 . S
C34 C38 1.377 . S
C35 C33 1.364 . S
C35 C36 1.374 . S
C36 H27 0.930 . S
C36 C35 1.374 . S
C36 C37 1.383 . S
C37 O31 1.412 . S
C37 C36 1.383 . S
C37 C38 1.394 . S
C38 H28 0.929 . S
C38 C34 1.377 . S
C38 C37 1.394 . S
H39 C46 0.929 . S
H40 C49 0.930 . S
H41 C51 0.929 1_455 S
H42 C43 0.969 . S
C43 H42 0.969 . S
C43 O44 1.550 . S
C43 H45 0.973 . S
O44 C43 1.550 . S
O44 C50 1.412 . S
H45 C43 0.973 . S
C46 H39 0.929 . S
C46 C47 1.400 . S
C46 C48 1.364 . S
C47 C46 1.400 . S
C47 C51 1.377 . S
C48 C46 1.364 . S
C48 C49 1.374 . S
C49 H40 0.930 . S
C49 C48 1.374 . S
C49 C50 1.383 . S
C50 O44 1.412 . S
C50 C49 1.383 . S
C50 C51 1.394 . S
C51 H41 0.929 1_655 S
C51 C47 1.377 . S
C51 C50 1.394 . S
H52 C59 0.929 . S
H53 C62 0.930 . S
H54 C64 0.929 . S
H55 C56 0.969 . S
C56 H55 0.969 . S
C56 O57 1.550 . S
C56 H58 0.973 . S
O57 C56 1.550 . S
O57 C63 1.412 . S
H58 C56 0.973 . S
C59 H52 0.929 . S
C59 C60 1.400 . S
C59 C61 1.364 . S
C60 C59 1.400 . S
C60 C64 1.377 . S
C61 C59 1.364 . S
C61 C62 1.374 . S
C62 H53 0.930 . S
C62 C61 1.374 . S
C62 C63 1.383 . S
C63 O57 1.412 . S
C63 C62 1.383 . S
C63 C64 1.394 . S
C64 H54 0.929 . S
C64 C60 1.377 . S
C64 C63 1.394 . S
H65 C72 0.929 . S
H66 C75 0.930 . S
H67 C77 0.929 . S
H68 C69 0.969 . S
C69 H68 0.969 . S
C69 O70 1.550 . S
C69 H71 0.973 . S
O70 C69 1.550 . S
O70 C76 1.412 . S
H71 C69 0.973 . S
C72 H65 0.929 . S
C72 C73 1.400 . S
C72 C74 1.364 . S
C73 C72 1.400 . S
C73 C77 1.377 . S
C74 C72 1.364 . S
C74 C75 1.374 . S
C75 H66 0.930 . S
C75 C74 1.374 . S
C75 C76 1.383 . S
C76 O70 1.412 . S
C76 C75 1.383 . S
C76 C77 1.394 . S
C77 H67 0.929 . S
C77 C73 1.377 . S
C77 C76 1.394 . S
H78 C85 0.929 . S
H79 C88 0.930 . S
H80 C90 0.929 . S
H81 C82 0.969 . S
C82 H81 0.969 . S
C82 O83 1.550 . S
C82 H84 0.973 . S
O83 C82 1.550 . S
O83 C89 1.412 . S
H84 C82 0.973 . S
C85 H78 0.929 . S
C85 C86 1.400 . S
C85 C87 1.364 . S
C86 C85 1.400 . S
C86 C90 1.377 . S
C87 C85 1.364 . S
C87 C88 1.374 . S
C88 H79 0.930 . S
C88 C87 1.374 . S
C88 C89 1.383 . S
C89 O83 1.412 . S
C89 C88 1.383 . S
C89 C90 1.394 . S
C90 H80 0.929 . S
C90 C86 1.377 . S
C90 C89 1.394 . S
H91 C98 0.929 . S
H92 C101 0.930 . S
H93 C103 0.929 . S
H94 C95 0.969 . S
C95 H94 0.969 . S
C95 O96 1.550 . S
C95 H97 0.973 . S
O96 C95 1.550 . S
O96 C102 1.412 . S
H97 C95 0.973 . S
C98 H91 0.929 . S
C98 C99 1.400 . S
C98 C100 1.364 . S
C99 C98 1.400 . S
C99 C103 1.377 . S
C100 C98 1.364 . S
C100 C101 1.374 . S
C101 H92 0.930 . S
C101 C100 1.374 . S
C101 C102 1.383 . S
C102 O96 1.412 . S
C102 C101 1.383 . S
C102 C103 1.394 . S
C103 H93 0.929 . S
C103 C99 1.377 . S
C103 C102 1.394 . S
Co104 N109 2.057 . S
Co104 O121 2.021 . S
Co104 O124 2.062 . S
Co104 O128 2.117 1_545 S
Co104 O129 2.020 . S
C105 O125 1.259 1_655 S
C105 O128 1.258 . S
Co106 N115 2.057 . S
Co106 O122 2.117 1_565 S
Co106 O123 2.020 1_565 S
Co106 O125 2.021 . S
Co106 O130 2.062 . S
C107 N109 1.316 . S
C107 N110 1.347 . S
C107 H112 0.931 . S
C108 N109 1.375 1_565 S
C108 C111 1.350 1_565 S
C108 H113 0.930 . S
N109 Co104 2.057 . S
N109 C107 1.316 . S
N109 C108 1.375 1_545 S
N110 C107 1.347 . S
N110 C111 1.373 . S
C111 C108 1.350 1_545 S
C111 N110 1.373 . S
C111 H132 0.931 1_545 S
H112 C107 0.931 . S
H113 C108 0.930 . S
C114 O121 1.259 1_455 S
C114 O122 1.258 . S
N115 Co106 2.057 . S
N115 C116 1.316 . S
N115 C117 1.375 1_565 S
C116 N115 1.316 . S
C116 N118 1.347 . S
C116 H127 0.931 . S
C117 N115 1.375 1_545 S
C117 C119 1.350 . S
C117 H126 0.930 . S
N118 C116 1.347 . S
N118 C119 1.373 1_565 S
C119 C117 1.350 . S
C119 N118 1.373 1_545 S
C119 H133 0.931 . S
C120 O123 1.256 . S
C120 O124 1.255 1_455 S
O121 Co104 2.021 . S
O121 C114 1.259 1_655 S
O122 Co106 2.117 1_545 S
O122 C114 1.258 . S
O123 Co106 2.020 1_545 S
O123 C120 1.256 . S
O124 Co104 2.062 . S
O124 C120 1.255 1_655 S
O125 C105 1.259 1_455 S
O125 Co106 2.021 . S
H126 C117 0.930 . S
H127 C116 0.931 . S
O128 Co104 2.117 1_565 S
O128 C105 1.258 . S
O129 Co104 2.020 . S
O129 C131 1.256 1_545 S
O130 Co106 2.062 . S
O130 C131 1.255 1_455 S
C131 O129 1.256 1_565 S
C131 O130 1.255 1_655 S
H132 C111 0.931 1_565 S
H133 C119 0.931 . S
Co134 N139 2.057 1_545 S
Co134 O151 2.021 . S
Co134 O154 2.062 1_545 S
Co134 O158 2.117 1_546 S
Co134 O159 2.020 . S
C135 O155 1.259 . S
C135 O158 1.258 . S
Co136 N145 2.057 . S
Co136 O152 2.117 . S
Co136 O153 2.021 . S
Co136 O155 2.021 1_545 S
Co136 O160 2.062 . S
C137 N139 1.316 . S
C137 N140 1.347 . S
C137 H142 0.931 1_565 S
C138 N139 1.375 . S
C138 C141 1.350 . S
C138 H143 0.930 . S
N139 Co134 2.057 1_565 S
N139 C137 1.316 . S
N139 C138 1.375 . S
N140 C137 1.347 . S
N140 C141 1.373 . S
C141 C138 1.350 . S
C141 N140 1.373 . S
C141 H162 0.931 . S
H142 C137 0.931 1_545 S
H143 C138 0.930 . S
C144 O151 1.259 . S
C144 O152 1.258 1_556 S
N145 Co136 2.057 . S
N145 C146 1.316 . S
N145 C147 1.375 . S
C146 N145 1.316 . S
C146 N148 1.347 . S
C146 H157 0.931 . S
C147 N145 1.375 . S
C147 C149 1.350 . S
C147 H156 0.930 . S
N148 C146 1.347 . S
N148 C149 1.373 . S
C149 C147 1.350 . S
C149 N148 1.373 . S
C149 H163 0.931 . S
C150 O153 1.255 1_566 S
C150 O154 1.255 . S
O151 Co134 2.021 . S
O151 C144 1.259 . S
O152 Co136 2.117 . S
O152 C144 1.258 1_554 S
O153 Co136 2.021 . S
O153 C150 1.255 1_544 S
O154 Co134 2.062 1_565 S
O154 C150 1.255 . S
O155 C135 1.259 . S
O155 Co136 2.021 1_565 S
H156 C147 0.930 . S
H157 C146 0.931 . S
O158 Co134 2.117 1_564 S
O158 C135 1.258 . S
O159 Co134 2.020 . S
O159 C161 1.256 1_556 S
O160 Co136 2.062 . S
O160 C161 1.255 . S
C161 O159 1.256 1_554 S
C161 O160 1.255 . S
H162 C141 0.931 . S
H163 C149 0.931 . S
Co164 N169 2.057 . S
Co164 O181 2.021 . S
Co164 O184 2.062 . S
Co164 O188 2.117 . S
Co164 O189 2.020 . S
C165 O185 1.259 . S
C165 O188 1.258 . S
Co166 N175 2.057 . S
Co166 O182 2.117 . S
Co166 O183 2.020 . S
Co166 O185 2.021 . S
Co166 O190 2.062 . S
C167 N169 1.316 . S
C167 N170 1.347 . S
C167 H172 0.931 . S
C168 N169 1.375 . S
C168 C171 1.350 . S
C168 H173 0.930 . S
N169 Co164 2.057 . S
N169 C167 1.316 . S
N169 C168 1.375 . S
N170 C167 1.347 . S
N170 C171 1.373 . S
C171 C168 1.350 . S
C171 N170 1.373 . S
C171 H192 0.931 . S
H172 C167 0.931 . S
H173 C168 0.930 . S
C174 O181 1.259 . S
C174 O182 1.258 . S
N175 Co166 2.057 . S
N175 C176 1.316 . S
N175 C177 1.375 . S
C176 N175 1.316 . S
C176 N178 1.347 . S
C176 H187 0.931 . S
C177 N175 1.375 . S
C177 C179 1.350 . S
C177 H186 0.930 . S
N178 C176 1.347 . S
N178 C179 1.373 . S
C179 C177 1.350 . S
C179 N178 1.373 . S
C179 H193 0.931 . S
C180 O183 1.256 . S
C180 O184 1.255 . S
O181 Co164 2.021 . S
O181 C174 1.259 . S
O182 Co166 2.117 . S
O182 C174 1.258 . S
O183 Co166 2.020 . S
O183 C180 1.256 . S
O184 Co164 2.062 . S
O184 C180 1.255 . S
O185 C165 1.259 . S
O185 Co166 2.021 . S
H186 C177 0.930 . S
H187 C176 0.931 . S
O188 Co164 2.117 . S
O188 C165 1.258 . S
O189 Co164 2.020 . S
O189 C191 1.256 . S
O190 Co166 2.062 . S
O190 C191 1.255 . S
C191 O189 1.256 . S
C191 O190 1.255 . S
H192 C171 0.931 . S
H193 C179 0.931 . S
Co194 N199 2.057 . S
Co194 O211 2.021 . S
Co194 O214 2.062 1_556 S
Co194 O218 2.117 1_455 S
Co194 O219 2.020 . S
C195 O215 1.259 . S
C195 O218 1.258 1_554 S
Co196 N205 2.057 . S
Co196 O212 2.117 . S
Co196 O213 2.020 . S
Co196 O215 2.021 1_455 S
Co196 O220 2.062 1_455 S
C197 N199 1.316 . S
C197 N200 1.347 . S
C197 H202 0.931 . S
C198 N199 1.375 . S
C198 C201 1.350 . S
C198 H203 0.930 1_455 S
N199 Co194 2.057 . S
N199 C197 1.316 . S
N199 C198 1.375 . S
N200 C197 1.347 . S
N200 C201 1.373 . S
C201 C198 1.350 . S
C201 N200 1.373 . S
C201 H222 0.931 . S
H202 C197 0.931 . S
H203 C198 0.930 1_655 S
C204 O211 1.259 1_554 S
C204 O212 1.258 . S
N205 Co196 2.057 . S
N205 C206 1.316 1_455 S
N205 C207 1.375 . S
C206 N205 1.316 1_655 S
C206 N208 1.347 . S
C206 H217 0.931 . S
C207 N205 1.375 . S
C207 C209 1.350 . S
C207 H216 0.930 . S
N208 C206 1.347 . S
N208 C209 1.373 1_655 S
C209 C207 1.350 . S
C209 N208 1.373 1_455 S
C209 H223 0.931 . S
C210 O213 1.256 . S
C210 O214 1.255 . S
O211 Co194 2.021 . S
O211 C204 1.259 1_556 S
O212 Co196 2.117 . S
O212 C204 1.258 . S
O213 Co196 2.020 . S
O213 C210 1.256 . S
O214 Co194 2.062 1_554 S
O214 C210 1.255 . S
O215 C195 1.259 . S
O215 Co196 2.021 1_655 S
H216 C207 0.930 . S
H217 C206 0.931 . S
O218 Co194 2.117 1_655 S
O218 C195 1.258 1_556 S
O219 Co194 2.020 . S
O219 C221 1.256 . S
O220 Co196 2.062 1_655 S
O220 C221 1.255 1_654 S
C221 O219 1.256 . S
C221 O220 1.255 1_456 S
H222 C201 0.931 . S
H223 C209 0.931 . S
C224 C225 1.387 . S
C224 H228 0.950 . S
C224 C233 1.390 . S
C225 C224 1.387 . S
C225 C227 1.387 . S
H226 C233 0.950 1_565 S
C227 C225 1.387 . S
C227 C229 1.390 . S
C227 H231 0.950 . S
H228 C224 0.950 . S
C229 C227 1.390 . S
C229 C230 1.387 . S
C229 H232 0.950 . S
C230 C229 1.387 . S
C230 C233 1.387 . S
H231 C227 0.950 . S
H232 C229 0.950 . S
C233 C224 1.390 . S
C233 H226 0.950 1_545 S
C233 C230 1.387 . S
C234 C235 1.387 . S
C234 H238 0.950 1_565 S
C234 C243 1.390 . S
C235 C234 1.387 . S
C235 C237 1.387 . S
H236 C243 0.950 1_545 S
C237 C235 1.387 . S
C237 C239 1.390 . S
C237 H241 0.950 . S
H238 C234 0.950 1_545 S
C239 C237 1.390 . S
C239 C240 1.387 . S
C239 H242 0.950 . S
C240 C239 1.387 . S
C240 C243 1.387 . S
H241 C237 0.950 . S
H242 C239 0.950 . S
C243 C234 1.390 . S
C243 H236 0.950 1_565 S
C243 C240 1.387 . S
C244 C245 1.387 . S
C244 H248 0.950 . S
C244 C253 1.390 . S
C245 C244 1.387 . S
C245 C247 1.387 . S
H246 C253 0.950 . S
C247 C245 1.387 . S
C247 C249 1.390 . S
C247 H251 0.950 . S
H248 C244 0.950 . S
C249 C247 1.390 . S
C249 C250 1.387 . S
C249 H252 0.950 . S
C250 C249 1.387 . S
C250 C253 1.387 . S
H251 C247 0.950 . S
H252 C249 0.950 . S
C253 C244 1.390 . S
C253 H246 0.950 . S
C253 C250 1.387 . S
C254 C255 1.387 . S
C254 H258 0.950 . S
C254 C263 1.390 . S
C255 C254 1.387 . S
C255 C257 1.387 . S
H256 C263 0.950 . S
C257 C255 1.387 . S
C257 C259 1.390 . S
C257 H261 0.950 . S
H258 C254 0.950 . S
C259 C257 1.390 . S
C259 C260 1.387 . S
C259 H262 0.950 . S
C260 C259 1.387 . S
C260 C263 1.387 . S
H261 C257 0.950 . S
H262 C259 0.950 . S
C263 C254 1.390 . S
C263 H256 0.950 . S
C263 C260 1.387 . S
C264 C265 1.387 . S
C264 H268 0.950 1_545 S
C264 C273 1.390 . S
C265 C264 1.387 . S
C265 C267 1.387 . S
H266 C273 0.950 1_565 S
C267 C265 1.387 . S
C267 C269 1.390 . S
C267 H271 0.950 . S
H268 C264 0.950 1_565 S
C269 C267 1.390 . S
C269 C270 1.387 . S
C269 H272 0.950 . S
C270 C269 1.387 . S
C270 C273 1.387 . S
H271 C267 0.950 . S
H272 C269 0.950 . S
C273 C264 1.390 . S
C273 H266 0.950 1_545 S
C273 C270 1.387 . S
C274 C275 1.387 . S
C274 H278 0.950 . S
C274 C283 1.390 . S
C275 C274 1.387 . S
C275 C277 1.387 . S
H276 C283 0.950 . S
C277 C275 1.387 . S
C277 C279 1.390 . S
C277 H281 0.950 . S
H278 C274 0.950 . S
C279 C277 1.390 . S
C279 C280 1.387 . S
C279 H282 0.950 . S
C280 C279 1.387 . S
C280 C283 1.387 . S
H281 C277 0.950 . S
H282 C279 0.950 . S
C283 C274 1.390 . S
C283 H276 0.950 . S
C283 C280 1.387 . S
C284 C285 1.387 . S
C284 H288 0.950 . S
C284 C293 1.390 . S
C285 C284 1.387 . S
C285 C287 1.387 . S
H286 C293 0.950 . S
C287 C285 1.387 . S
C287 C289 1.390 . S
C287 H291 0.950 . S
H288 C284 0.950 . S
C289 C287 1.390 . S
C289 C290 1.387 . S
C289 H292 0.950 1_556 S
C290 C289 1.387 . S
C290 C293 1.387 . S
H291 C287 0.950 . S
H292 C289 0.950 1_554 S
C293 C284 1.390 . S
C293 H286 0.950 . S
C293 C290 1.387 . S
C294 C295 1.387 . S
C294 H298 0.950 . S
C294 C303 1.390 . S
C295 C294 1.387 . S
C295 C297 1.387 . S
H296 C303 0.950 . S
C297 C295 1.387 . S
C297 C299 1.390 . S
C297 H301 0.950 . S
H298 C294 0.950 . S
C299 C297 1.390 . S
C299 C300 1.387 . S
C299 H302 0.950 . S
C300 C299 1.387 . S
C300 C303 1.387 . S
H301 C297 0.950 . S
H302 C299 0.950 . S
C303 C294 1.390 . S
C303 H296 0.950 . S
C303 C300 1.387 . S
C304 C305 1.387 . S
C304 H308 0.950 . S
C304 C313 1.390 . S
C305 C304 1.387 . S
C305 C307 1.387 . S
H306 C313 0.950 . S
C307 C305 1.387 . S
C307 C309 1.390 . S
C307 H311 0.950 . S
H308 C304 0.950 . S
C309 C307 1.390 . S
C309 C310 1.387 . S
C309 H312 0.950 . S
C310 C309 1.387 . S
C310 C313 1.387 . S
H311 C307 0.950 . S
H312 C309 0.950 . S
C313 C304 1.390 . S
C313 H306 0.950 . S
C313 C310 1.387 . S
C314 C315 1.387 . S
C314 H318 0.950 . S
C314 C323 1.390 . S
C315 C314 1.387 . S
C315 C317 1.387 . S
H316 C323 0.950 . S
C317 C315 1.387 . S
C317 C319 1.390 . S
C317 H321 0.950 . S
H318 C314 0.950 . S
C319 C317 1.390 . S
C319 C320 1.387 . S
C319 H322 0.950 . S
C320 C319 1.387 . S
C320 C323 1.387 . S
H321 C317 0.950 . S
H322 C319 0.950 . S
C323 C314 1.390 . S
C323 H316 0.950 . S
C323 C320 1.387 . S
C324 C325 1.387 . S
C324 H328 0.950 . S
C324 C333 1.390 . S
C325 C324 1.387 . S
C325 C327 1.387 . S
H326 C333 0.950 . S
C327 C325 1.387 . S
C327 C329 1.390 . S
C327 H331 0.950 . S
H328 C324 0.950 . S
C329 C327 1.390 . S
C329 C330 1.387 . S
C329 H332 0.950 . S
C330 C329 1.387 . S
C330 C333 1.387 . S
H331 C327 0.950 . S
H332 C329 0.950 . S
C333 C324 1.390 . S
C333 H326 0.950 . S
C333 C330 1.387 . S
C334 C335 1.387 . S
C334 H338 0.950 . S
C334 C343 1.390 . S
C335 C334 1.387 . S
C335 C337 1.387 . S
H336 C343 0.950 . S
C337 C335 1.387 . S
C337 C339 1.390 . S
C337 H341 0.950 . S
H338 C334 0.950 . S
C339 C337 1.390 . S
C339 C340 1.387 . S
C339 H342 0.950 . S
C340 C339 1.387 . S
C340 C343 1.387 . S
H341 C337 0.950 . S
H342 C339 0.950 . S
C343 C334 1.390 . S
C343 H336 0.950 . S
C343 C340 1.387 . S
C344 C345 1.387 . S
C344 H348 0.950 . S
C344 C353 1.390 . S
C345 C344 1.387 . S
C345 C347 1.387 . S
H346 C353 0.950 . S
C347 C345 1.387 . S
C347 C349 1.390 1_565 S
C347 H351 0.950 1_565 S
H348 C344 0.950 . S
C349 C347 1.390 1_545 S
C349 C350 1.387 1_545 S
C349 H352 0.950 . S
C350 C349 1.387 1_565 S
C350 C353 1.387 . S
H351 C347 0.950 1_545 S
H352 C349 0.950 . S
C353 C344 1.390 . S
C353 H346 0.950 . S
C353 C350 1.387 . S
C354 C355 1.387 . S
C354 H358 0.950 . S
C354 C363 1.390 . S
C355 C354 1.387 . S
C355 C357 1.387 . S
H356 C363 0.950 . S
C357 C355 1.387 . S
C357 C359 1.390 . S
C357 H361 0.950 . S
H358 C354 0.950 . S
C359 C357 1.390 . S
C359 C360 1.387 . S
C359 H362 0.950 . S
C360 C359 1.387 . S
C360 C363 1.387 . S
H361 C357 0.950 . S
H362 C359 0.950 . S
C363 C354 1.390 . S
C363 H356 0.950 . S
C363 C360 1.387 . S
C364 C365 1.387 . S
C364 H368 0.950 . S
C364 C373 1.390 . S
C365 C364 1.387 . S
C365 C367 1.387 . S
H366 C373 0.950 . S
C367 C365 1.387 . S
C367 C369 1.390 . S
C367 H371 0.950 . S
H368 C364 0.950 . S
C369 C367 1.390 . S
C369 C370 1.387 . S
C369 H372 0.950 . S
C370 C369 1.387 . S
C370 C373 1.387 . S
H371 C367 0.950 . S
H372 C369 0.950 . S
C373 C364 1.390 . S
C373 H366 0.950 . S
C373 C370 1.387 . S
C374 C375 1.387 . S
C374 H378 0.950 . S
C374 C383 1.390 . S
C375 C374 1.387 . S
C375 C377 1.387 . S
H376 C383 0.950 . S
C377 C375 1.387 . S
C377 C379 1.390 . S
C377 H381 0.950 . S
H378 C374 0.950 . S
C379 C377 1.390 . S
C379 C380 1.387 . S
C379 H382 0.950 . S
C380 C379 1.387 . S
C380 C383 1.387 . S
H381 C377 0.950 . S
H382 C379 0.950 . S
C383 C374 1.390 . S
C383 H376 0.950 . S
C383 C380 1.387 . S
C384 C385 1.387 . S
C384 H388 0.950 . S
C384 C393 1.390 . S
C385 C384 1.387 . S
C385 C387 1.387 . S
H386 C393 0.950 . S
C387 C385 1.387 . S
C387 C389 1.390 1_556 S
C387 H391 0.950 1_556 S
H388 C384 0.950 . S
C389 C387 1.390 1_554 S
C389 C390 1.387 1_554 S
C389 H392 0.950 . S
C390 C389 1.387 1_556 S
C390 C393 1.387 . S
H391 C387 0.950 1_554 S
H392 C389 0.950 . S
C393 C384 1.390 . S
C393 H386 0.950 . S
C393 C390 1.387 . S
C394 C395 1.387 . S
C394 H398 0.950 . S
C394 C403 1.390 . S
C395 C394 1.387 . S
C395 C397 1.387 . S
H396 C403 0.950 . S
C397 C395 1.387 . S
C397 C399 1.390 . S
C397 H401 0.950 . S
H398 C394 0.950 . S
C399 C397 1.390 . S
C399 C400 1.387 . S
C399 H402 0.950 . S
C400 C399 1.387 . S
C400 C403 1.387 . S
H401 C397 0.950 . S
H402 C399 0.950 . S
C403 C394 1.390 . S
C403 H396 0.950 . S
C403 C400 1.387 . S
C404 C405 1.387 . S
C404 H408 0.950 . S
C404 C413 1.390 . S
C405 C404 1.387 . S
C405 C407 1.387 . S
H406 C413 0.950 . S
C407 C405 1.387 . S
C407 C409 1.390 . S
C407 H411 0.950 . S
H408 C404 0.950 . S
C409 C407 1.390 . S
C409 C410 1.387 . S
C409 H412 0.950 1_554 S
C410 C409 1.387 . S
C410 C413 1.387 . S
H411 C407 0.950 . S
H412 C409 0.950 1_556 S
C413 C404 1.390 . S
C413 H406 0.950 . S
C413 C410 1.387 . S
C414 C415 1.387 . S
C414 H418 0.950 . S
C414 C423 1.390 . S
C415 C414 1.387 . S
C415 C417 1.387 . S
H416 C423 0.950 . S
C417 C415 1.387 . S
C417 C419 1.390 . S
C417 H421 0.950 . S
H418 C414 0.950 . S
C419 C417 1.390 . S
C419 C420 1.387 . S
C419 H422 0.950 . S
C420 C419 1.387 . S
C420 C423 1.387 . S
H421 C417 0.950 . S
H422 C419 0.950 . S
C423 C414 1.390 . S
C423 H416 0.950 . S
C423 C420 1.387 . S
C424 C425 1.387 . S
C424 H428 0.950 . S
C424 C433 1.390 . S
C425 C424 1.387 . S
C425 C427 1.387 1_556 S
H426 C433 0.950 . S
C427 C425 1.387 1_554 S
C427 C429 1.390 . S
C427 H431 0.950 . S
H428 C424 0.950 . S
C429 C427 1.390 . S
C429 C430 1.387 1_554 S
C429 H432 0.950 . S
C430 C429 1.387 1_556 S
C430 C433 1.387 . S
H431 C427 0.950 . S
H432 C429 0.950 . S
C433 C424 1.390 . S
C433 H426 0.950 . S
C433 C430 1.387 . S
C434 C435 1.387 . S
C434 H438 0.950 . S
C434 C443 1.390 . S
C435 C434 1.387 . S
C435 C437 1.387 . S
H436 C443 0.950 . S
C437 C435 1.387 . S
C437 C439 1.390 . S
C437 H441 0.948 . S
H438 C434 0.950 . S
C439 C437 1.390 . S
C439 C440 1.387 . S
C439 H442 0.950 1_554 S
C440 C439 1.387 . S
C440 C443 1.387 . S
H441 C437 0.948 . S
H442 C439 0.950 1_556 S
C443 C434 1.390 . S
C443 H436 0.950 . S
C443 C440 1.387 . S
C444 C445 1.387 . S
C444 H448 0.950 1_455 S
C444 C453 1.390 . S
C445 C444 1.387 . S
C445 C447 1.387 . S
H446 C453 0.950 1_655 S
C447 C445 1.387 . S
C447 C449 1.390 . S
C447 H451 0.950 . S
H448 C444 0.950 1_655 S
C449 C447 1.390 . S
C449 C450 1.387 . S
C449 H452 0.950 . S
C450 C449 1.387 . S
C450 C453 1.387 . S
H451 C447 0.950 . S
H452 C449 0.950 . S
C453 C444 1.390 . S
C453 H446 0.950 1_455 S
C453 C450 1.387 . S
C454 C455 1.387 . S
C454 H458 0.950 . S
C454 C463 1.390 . S
C455 C454 1.387 . S
C455 C457 1.387 . S
H456 C463 0.950 . S
C457 C455 1.387 . S
C457 C459 1.390 . S
C457 H461 0.950 . S
H458 C454 0.950 . S
C459 C457 1.390 . S
C459 C460 1.387 . S
C459 H462 0.950 . S
C460 C459 1.387 . S
C460 C463 1.387 . S
H461 C457 0.950 . S
H462 C459 0.950 . S
C463 C454 1.390 . S
C463 H456 0.950 . S
C463 C460 1.387 . S
C225 C9 2.428 . S
C230 C120 2.448 . S
C235 C21 1.114 . S
C240 N140 1.100 . S
C250 C174 1.759 . S
C245 C30 1.734 . S
C255 C43 1.069 . S
C260 N208 1.131 . S
C270 C161 2.192 . S
C265 C4 2.186 . S
C280 N118 1.474 . S
C275 C22 1.514 . S
C290 C195 1.762 1_556 S
C285 C34 1.755 . S
C300 N170 1.018 . S
C295 C48 0.998 . S
C305 C8 1.835 . S
C310 C210 1.846 . S
C320 C144 1.792 . S
C315 C35 1.777 . S
C325 C47 1.444 . S
C330 C105 1.466 . S
C335 C17 1.265 . S
C340 C191 1.263 . S
C350 C131 2.163 . S
C345 C60 2.134 . S
C355 C74 1.322 . S
C360 N148 1.322 . S
C365 C82 1.609 . S
C370 C165 1.598 . S
C375 C100 1.537 . S
C380 N200 1.440 . S
C385 C61 2.510 . S
C390 C150 2.527 . S
C400 N110 1.154 . S
C395 C73 1.178 . S
C410 C204 2.083 . S
C405 C87 2.078 . S
C420 N178 0.821 . S
C415 C95 0.797 . S
C425 C56 1.795 . S
C430 C221 1.864 1_655 S
C440 C135 1.823 . S
C435 C86 1.785 . S
C450 C114 1.460 . S
C445 C99 1.423 . S
C455 C69 1.353 . S
C460 C180 1.358 . S
