# Generated by pormake.
# Topology ptr, (4,4)-cn, num edge types: 1
# Building blocks:
#     Node 0, Type 0, BuildingBlock: CEKHIL_clean_sbu_0, # of connection points: 4
#     Node 1, Type 0, BuildingBlock: CEKHIL_clean_sbu_0, # of connection points: 4
#     Node 2, Type 0, BuildingBlock: CEKHIL_clean_sbu_0, # of connection points: 4
#     Node 3, Type 0, BuildingBlock: CEKHIL_clean_sbu_0, # of connection points: 4
#     Node 4, Type 0, BuildingBlock: CEKHIL_clean_sbu_0, # of connection points: 4
#     Node 5, Type 0, BuildingBlock: CEKHIL_clean_sbu_0, # of connection points: 4
#     Node 6, Type 0, BuildingBlock: CEKHIL_clean_sbu_0, # of connection points: 4
#     Node 7, Type 0, BuildingBlock: CEKHIL_clean_sbu_0, # of connection points: 4
#     Node 8, Type 0, BuildingBlock: CEKHIL_clean_sbu_0, # of connection points: 4
#     Node 9, Type 0, BuildingBlock: CEKHIL_clean_sbu_0, # of connection points: 4
#     Node 10, Type 0, BuildingBlock: CEKHIL_clean_sbu_0, # of connection points: 4
#     Node 11, Type 0, BuildingBlock: CEKHIL_clean_sbu_0, # of connection points: 4
#     Node 12, Type 0, BuildingBlock: CEKHIL_clean_sbu_0, # of connection points: 4
#     Node 13, Type 0, BuildingBlock: CEKHIL_clean_sbu_0, # of connection points: 4
#     Node 14, Type 0, BuildingBlock: CEKHIL_clean_sbu_0, # of connection points: 4
#     Node 15, Type 0, BuildingBlock: CEKHIL_clean_sbu_0, # of connection points: 4
#     Node 16, Type 0, BuildingBlock: CEKHIL_clean_sbu_0, # of connection points: 4
#     Node 17, Type 0, BuildingBlock: CEKHIL_clean_sbu_0, # of connection points: 4
#     Node 18, Type 1, BuildingBlock: NAWXER_clean_linker_0, # of connection points: 4
#     Node 19, Type 1, BuildingBlock: NAWXER_clean_linker_0, # of connection points: 4
#     Node 20, Type 1, BuildingBlock: NAWXER_clean_linker_0, # of connection points: 4
#     Node 21, Type 1, BuildingBlock: NAWXER_clean_linker_0, # of connection points: 4
#     Node 22, Type 1, BuildingBlock: NAWXER_clean_linker_0, # of connection points: 4
#     Node 23, Type 1, BuildingBlock: NAWXER_clean_linker_0, # of connection points: 4
#     Node 24, Type 1, BuildingBlock: NAWXER_clean_linker_0, # of connection points: 4
#     Node 25, Type 1, BuildingBlock: NAWXER_clean_linker_0, # of connection points: 4
#     Node 26, Type 1, BuildingBlock: NAWXER_clean_linker_0, # of connection points: 4
#     Node 27, Type 1, BuildingBlock: NAWXER_clean_linker_0, # of connection points: 4
#     Node 28, Type 1, BuildingBlock: NAWXER_clean_linker_0, # of connection points: 4
#     Node 29, Type 1, BuildingBlock: NAWXER_clean_linker_0, # of connection points: 4
#     Node 30, Type 1, BuildingBlock: NAWXER_clean_linker_0, # of connection points: 4
#     Node 31, Type 1, BuildingBlock: NAWXER_clean_linker_0, # of connection points: 4
#     Node 32, Type 1, BuildingBlock: NAWXER_clean_linker_0, # of connection points: 4
#     Node 33, Type 1, BuildingBlock: NAWXER_clean_linker_0, # of connection points: 4
#     Node 34, Type 1, BuildingBlock: NAWXER_clean_linker_0, # of connection points: 4
#     Node 35, Type 1, BuildingBlock: NAWXER_clean_linker_0, # of connection points: 4
#     Edge 36, Type (0, 1), BuildingBlock: TEMPAE_clean_linker_10, # of connection points: 2
#     Edge 37, Type (0, 1), BuildingBlock: TEMPAE_clean_linker_10, # of connection points: 2
#     Edge 38, Type (0, 1), BuildingBlock: TEMPAE_clean_linker_10, # of connection points: 2
#     Edge 39, Type (0, 1), BuildingBlock: TEMPAE_clean_linker_10, # of connection points: 2
#     Edge 40, Type (0, 1), BuildingBlock: TEMPAE_clean_linker_10, # of connection points: 2
#     Edge 41, Type (0, 1), BuildingBlock: TEMPAE_clean_linker_10, # of connection points: 2
#     Edge 42, Type (0, 1), BuildingBlock: TEMPAE_clean_linker_10, # of connection points: 2
#     Edge 43, Type (0, 1), BuildingBlock: TEMPAE_clean_linker_10, # of connection points: 2
#     Edge 44, Type (0, 1), BuildingBlock: TEMPAE_clean_linker_10, # of connection points: 2
#     Edge 45, Type (0, 1), BuildingBlock: TEMPAE_clean_linker_10, # of connection points: 2
#     Edge 46, Type (0, 1), BuildingBlock: TEMPAE_clean_linker_10, # of connection points: 2
#     Edge 47, Type (0, 1), BuildingBlock: TEMPAE_clean_linker_10, # of connection points: 2
#     Edge 48, Type (0, 1), BuildingBlock: TEMPAE_clean_linker_10, # of connection points: 2
#     Edge 49, Type (0, 1), BuildingBlock: TEMPAE_clean_linker_10, # of connection points: 2
#     Edge 50, Type (0, 1), BuildingBlock: TEMPAE_clean_linker_10, # of connection points: 2
#     Edge 51, Type (0, 1), BuildingBlock: TEMPAE_clean_linker_10, # of connection points: 2
#     Edge 52, Type (0, 1), BuildingBlock: TEMPAE_clean_linker_10, # of connection points: 2
#     Edge 53, Type (0, 1), BuildingBlock: TEMPAE_clean_linker_10, # of connection points: 2
#     Edge 54, Type (0, 1), BuildingBlock: TEMPAE_clean_linker_10, # of connection points: 2
#     Edge 55, Type (0, 1), BuildingBlock: TEMPAE_clean_linker_10, # of connection points: 2
#     Edge 56, Type (0, 1), BuildingBlock: TEMPAE_clean_linker_10, # of connection points: 2
#     Edge 57, Type (0, 1), BuildingBlock: TEMPAE_clean_linker_10, # of connection points: 2
#     Edge 58, Type (0, 1), BuildingBlock: TEMPAE_clean_linker_10, # of connection points: 2
#     Edge 59, Type (0, 1), BuildingBlock: TEMPAE_clean_linker_10, # of connection points: 2
#     Edge 60, Type (0, 1), BuildingBlock: TEMPAE_clean_linker_10, # of connection points: 2
#     Edge 61, Type (0, 1), BuildingBlock: TEMPAE_clean_linker_10, # of connection points: 2
#     Edge 62, Type (0, 1), BuildingBlock: TEMPAE_clean_linker_10, # of connection points: 2
#     Edge 63, Type (0, 1), BuildingBlock: TEMPAE_clean_linker_10, # of connection points: 2
#     Edge 64, Type (0, 1), BuildingBlock: TEMPAE_clean_linker_10, # of connection points: 2
#     Edge 65, Type (0, 1), BuildingBlock: TEMPAE_clean_linker_10, # of connection points: 2
#     Edge 66, Type (0, 1), BuildingBlock: TEMPAE_clean_linker_10, # of connection points: 2
#     Edge 67, Type (0, 1), BuildingBlock: TEMPAE_clean_linker_10, # of connection points: 2
#     Edge 68, Type (0, 1), BuildingBlock: TEMPAE_clean_linker_10, # of connection points: 2
#     Edge 69, Type (0, 1), BuildingBlock: TEMPAE_clean_linker_10, # of connection points: 2
#     Edge 70, Type (0, 1), BuildingBlock: TEMPAE_clean_linker_10, # of connection points: 2
#     Edge 71, Type (0, 1), BuildingBlock: TEMPAE_clean_linker_10, # of connection points: 2
#     Edge 72, Type (0, 1), BuildingBlock: TEMPAE_clean_linker_10, # of connection points: 2
#     Edge 73, Type (0, 1), BuildingBlock: TEMPAE_clean_linker_10, # of connection points: 2
#     Edge 74, Type (0, 1), BuildingBlock: TEMPAE_clean_linker_10, # of connection points: 2
#     Edge 75, Type (0, 1), BuildingBlock: TEMPAE_clean_linker_10, # of connection points: 2
#     Edge 76, Type (0, 1), BuildingBlock: TEMPAE_clean_linker_10, # of connection points: 2
#     Edge 77, Type (0, 1), BuildingBlock: TEMPAE_clean_linker_10, # of connection points: 2
#     Edge 78, Type (0, 1), BuildingBlock: TEMPAE_clean_linker_10, # of connection points: 2
#     Edge 79, Type (0, 1), BuildingBlock: TEMPAE_clean_linker_10, # of connection points: 2
#     Edge 80, Type (0, 1), BuildingBlock: TEMPAE_clean_linker_10, # of connection points: 2
#     Edge 81, Type (0, 1), BuildingBlock: TEMPAE_clean_linker_10, # of connection points: 2
#     Edge 82, Type (0, 1), BuildingBlock: TEMPAE_clean_linker_10, # of connection points: 2
#     Edge 83, Type (0, 1), BuildingBlock: TEMPAE_clean_linker_10, # of connection points: 2
#     Edge 84, Type (0, 1), BuildingBlock: TEMPAE_clean_linker_10, # of connection points: 2
#     Edge 85, Type (0, 1), BuildingBlock: TEMPAE_clean_linker_10, # of connection points: 2
#     Edge 86, Type (0, 1), BuildingBlock: TEMPAE_clean_linker_10, # of connection points: 2
#     Edge 87, Type (0, 1), BuildingBlock: TEMPAE_clean_linker_10, # of connection points: 2
#     Edge 88, Type (0, 1), BuildingBlock: TEMPAE_clean_linker_10, # of connection points: 2
#     Edge 89, Type (0, 1), BuildingBlock: TEMPAE_clean_linker_10, # of connection points: 2
#     Edge 90, Type (0, 1), BuildingBlock: TEMPAE_clean_linker_10, # of connection points: 2
#     Edge 91, Type (0, 1), BuildingBlock: TEMPAE_clean_linker_10, # of connection points: 2
#     Edge 92, Type (0, 1), BuildingBlock: TEMPAE_clean_linker_10, # of connection points: 2
#     Edge 93, Type (0, 1), BuildingBlock: TEMPAE_clean_linker_10, # of connection points: 2
#     Edge 94, Type (0, 1), BuildingBlock: TEMPAE_clean_linker_10, # of connection points: 2
#     Edge 95, Type (0, 1), BuildingBlock: TEMPAE_clean_linker_10, # of connection points: 2
#     Edge 96, Type (0, 1), BuildingBlock: TEMPAE_clean_linker_10, # of connection points: 2
#     Edge 97, Type (0, 1), BuildingBlock: TEMPAE_clean_linker_10, # of connection points: 2
#     Edge 98, Type (0, 1), BuildingBlock: TEMPAE_clean_linker_10, # of connection points: 2
#     Edge 99, Type (0, 1), BuildingBlock: TEMPAE_clean_linker_10, # of connection points: 2
#     Edge 100, Type (0, 1), BuildingBlock: TEMPAE_clean_linker_10, # of connection points: 2
#     Edge 101, Type (0, 1), BuildingBlock: TEMPAE_clean_linker_10, # of connection points: 2
#     Edge 102, Type (0, 1), BuildingBlock: TEMPAE_clean_linker_10, # of connection points: 2
#     Edge 103, Type (0, 1), BuildingBlock: TEMPAE_clean_linker_10, # of connection points: 2
#     Edge 104, Type (0, 1), BuildingBlock: TEMPAE_clean_linker_10, # of connection points: 2
#     Edge 105, Type (0, 1), BuildingBlock: TEMPAE_clean_linker_10, # of connection points: 2
#     Edge 106, Type (0, 1), BuildingBlock: TEMPAE_clean_linker_10, # of connection points: 2
#     Edge 107, Type (0, 1), BuildingBlock: TEMPAE_clean_linker_10, # of connection points: 2
# Relax obj value: 0.032
# Max RMSD: 0.131
# Mean RMSD: 0.053
data_MOF--net-ptr--node1-CEKHIL_clean_sbu_0--node2-NAWXER_clean_linker_0--edge1-TEMPAE_clean_linker_10
_symmetry_space_group_name_H-M    P1
_symmetry_Int_Tables_number       1
_symmetry_cell_setting            triclinic
loop_
_symmetry_equiv_pos_as_xyz
'x, y, z'
_cell_length_a     88.360065
_cell_length_b     87.37126
_cell_length_c     65.234807
_cell_angle_alpha  91.052157
_cell_angle_beta   89.411963
_cell_angle_gamma 121.01759
loop_
_atom_site_label
_atom_site_type_symbol
_atom_site_fract_x
_atom_site_fract_y
_atom_site_fract_z
_atom_type_partial_charge
Co0 Co 0.00746 0.34072 0.00623 0.0
O1 O 0.01217 0.32795 0.02638 0.0
O2 O 0.03209 0.35429 0.01406 0.0
C3 C 0.99169 0.31713 0.98509 0.0
O4 O 0.00757 0.35761 0.98493 0.0
Co5 Co 0.96904 0.33099 0.99703 0.0
O6 O 0.98006 0.34572 0.97236 0.0
C7 C 0.98698 0.35189 0.03442 0.0
C8 C 0.02841 0.34116 0.02622 0.0
C9 C 0.99653 0.35721 0.97188 0.0
O10 O 0.00141 0.35295 0.02845 0.0
O11 O 0.97233 0.3427 0.02479 0.0
O12 O 0.00884 0.32584 0.98442 0.0
O13 O 0.98482 0.32195 0.9995 0.0
Co14 Co 0.6613 0.66323 0.00902 0.0
O15 O 0.67666 0.67455 0.98601 0.0
O16 O 0.67164 0.64946 0.00018 0.0
C17 C 0.67121 0.68807 0.02852 0.0
O18 O 0.64704 0.64784 0.0331 0.0
Co19 Co 0.63339 0.67273 0.02292 0.0
O20 O 0.63083 0.65833 0.04724 0.0
C21 C 0.62663 0.64974 0.98629 0.0
C22 C 0.67983 0.6616 0.98637 0.0
C23 C 0.63672 0.64774 0.04723 0.0
O24 O 0.64074 0.64937 0.98981 0.0
O25 O 0.62196 0.65907 0.99697 0.0
O26 O 0.67977 0.67965 0.02792 0.0
O27 O 0.658 0.68218 0.01609 0.0
Co28 Co 0.33741 0.00138 0.00823 0.0
O29 O 0.32507 0.0073 0.98889 0.0
O30 O 0.35075 0.02685 0.00298 0.0
C31 C 0.3136 0.984 0.02773 0.0
O32 O 0.35359 0.00013 0.02952 0.0
Co33 Co 0.32748 0.96198 0.01285 0.0
O34 O 0.34256 0.97136 0.03755 0.0
C35 C 0.35093 0.98333 0.97904 0.0
C36 C 0.3379 0.02373 0.9907 0.0
C37 C 0.3536 0.98795 0.04041 0.0
O38 O 0.35029 0.99704 0.98528 0.0
O39 O 0.34231 0.96801 0.98743 0.0
O40 O 0.32232 0.00123 0.03039 0.0
O41 O 0.31855 0.97803 0.01242 0.0
Co42 Co 0.99753 0.665 0.00959 0.0
O43 O 0.99184 0.67646 0.98875 0.0
O44 O 0.97243 0.65136 0.00402 0.0
C45 C 0.01479 0.6897 0.02856 0.0
O46 O 0.99863 0.6496 0.03201 0.0
Co47 Co 0.03645 0.67488 0.0151 0.0
O48 O 0.02709 0.6604 0.04019 0.0
C49 C 0.01572 0.65181 0.98034 0.0
C50 C 0.9756 0.6635 0.99059 0.0
C51 C 0.01063 0.64972 0.04322 0.0
O52 O 0.00182 0.65101 0.98784 0.0
O53 O 0.03113 0.66175 0.98805 0.0
O54 O 0.99772 0.68138 0.03048 0.0
O55 O 0.02062 0.68395 0.01393 0.0
Co56 Co 0.34031 0.34314 0.00575 0.0
O57 O 0.32436 0.33038 0.02783 0.0
O58 O 0.32832 0.35537 0.01444 0.0
C59 C 0.33251 0.31921 0.98532 0.0
O60 O 0.35499 0.35985 0.98271 0.0
Co61 Co 0.37033 0.33635 0.993 0.0
O62 O 0.37343 0.35171 0.9695 0.0
C63 C 0.37429 0.35778 0.03022 0.0
C64 C 0.32026 0.34268 0.02766 0.0
C65 C 0.36654 0.36142 0.96938 0.0
O66 O 0.35977 0.35717 0.02622 0.0
O67 O 0.38033 0.34968 0.0195 0.0
O68 O 0.32309 0.32674 0.98572 0.0
O69 O 0.34527 0.32535 0.99842 0.0
Co70 Co 0.66405 0.00045 0.01019 0.0
O71 O 0.67588 0.99484 0.03058 0.0
O72 O 0.65098 0.97499 0.0152 0.0
C73 C 0.68829 0.01828 0.99152 0.0
O74 O 0.64852 0.00142 0.98791 0.0
Co75 Co 0.6732 0.03967 0.00594 0.0
O76 O 0.65891 0.03023 0.98057 0.0
C77 C 0.6502 0.01804 0.03975 0.0
C78 C 0.66337 0.97829 0.0283 0.0
C79 C 0.64849 0.01359 0.97704 0.0
O80 O 0.65 0.00426 0.03209 0.0
O81 O 0.65981 0.03376 0.03256 0.0
O82 O 0.68023 0.00104 0.9892 0.0
O83 O 0.68258 0.02399 0.00635 0.0
Co84 Co 0.67002 0.67449 0.3433 0.0
O85 O 0.6746 0.66115 0.36276 0.0
O86 O 0.69468 0.6877 0.35102 0.0
C87 C 0.65404 0.65149 0.32147 0.0
O88 O 0.67027 0.69178 0.32251 0.0
Co89 Co 0.63143 0.66503 0.33583 0.0
O90 O 0.6423 0.6836 0.31456 0.0
C91 C 0.64971 0.68435 0.37354 0.0
C92 C 0.6909 0.67423 0.36266 0.0
C93 C 0.65894 0.69368 0.31234 0.0
O94 O 0.66425 0.68646 0.36627 0.0
O95 O 0.63479 0.67469 0.36464 0.0
O96 O 0.67119 0.66005 0.32083 0.0
O97 O 0.64729 0.65594 0.33638 0.0
Co98 Co 0.3313 0.99754 0.34532 0.0
O99 O 0.34824 0.0079 0.32352 0.0
O100 O 0.3407 0.98241 0.33864 0.0
C101 C 0.34133 0.02273 0.3641 0.0
O102 O 0.31488 0.98295 0.36855 0.0
Co103 Co 0.30465 0.00987 0.35469 0.0
O104 O 0.29916 0.9951 0.37954 0.0
C105 C 0.29937 0.98692 0.31843 0.0
C106 C 0.35013 0.99418 0.32488 0.0
C107 C 0.30401 0.98373 0.38119 0.0
O108 O 0.31183 0.98458 0.32456 0.0
O109 O 0.29553 0.99765 0.32741 0.0
O110 O 0.34884 0.01333 0.36558 0.0
O111 O 0.32921 0.01748 0.35032 0.0
Co112 Co 0.00807 0.33851 0.34122 0.0
O113 O 0.99695 0.34409 0.31981 0.0
O114 O 0.02167 0.36379 0.33572 0.0
C115 C 0.98325 0.32134 0.3593 0.0
O116 O 0.02335 0.33802 0.36408 0.0
Co117 Co 0.99845 0.29967 0.3494 0.0
O118 O 0.01175 0.31 0.37535 0.0
C119 C 0.02085 0.31899 0.31377 0.0
C120 C 0.00979 0.36051 0.32195 0.0
C121 C 0.02274 0.32672 0.37692 0.0
O122 O 0.0218 0.33351 0.32009 0.0
O123 O 0.0112 0.30392 0.32246 0.0
O124 O 0.99176 0.33861 0.36167 0.0
O125 O 0.98921 0.3152 0.3453 0.0
Co126 Co 0.65964 0.99186 0.3437 0.0
O127 O 0.65335 0.00378 0.32406 0.0
O128 O 0.63469 0.97751 0.33761 0.0
C129 C 0.67617 0.01619 0.36352 0.0
O130 O 0.66097 0.97573 0.36486 0.0
Co131 Co 0.69852 0.0025 0.35065 0.0
O132 O 0.68897 0.98781 0.37564 0.0
C133 C 0.67936 0.98094 0.31406 0.0
C134 C 0.63736 0.99018 0.32523 0.0
C135 C 0.67255 0.97625 0.37711 0.0
O136 O 0.66498 0.97949 0.32093 0.0
O137 O 0.69433 0.99057 0.32293 0.0
O138 O 0.65911 0.007 0.36586 0.0
O139 O 0.68239 0.01117 0.34862 0.0
Co140 Co 0.00707 0.67175 0.34522 0.0
O141 O 0.98966 0.65788 0.36555 0.0
O142 O 0.99464 0.68365 0.3535 0.0
C143 C 0.0008 0.64892 0.32359 0.0
O144 O 0.02315 0.68931 0.32361 0.0
Co145 Co 0.03783 0.6653 0.33543 0.0
O146 O 0.04176 0.68086 0.31175 0.0
C147 C 0.03901 0.68485 0.37325 0.0
C148 C 0.98559 0.67019 0.36556 0.0
C149 C 0.03506 0.69073 0.31092 0.0
O150 O 0.02527 0.68504 0.36728 0.0
O151 O 0.04525 0.67644 0.36349 0.0
O152 O 0.99123 0.65628 0.32352 0.0
O153 O 0.0125 0.65434 0.33793 0.0
Co154 Co 0.32941 0.33439 0.34127 0.0
O155 O 0.34097 0.32993 0.3632 0.0
O156 O 0.3169 0.30918 0.34707 0.0
C157 C 0.35399 0.35227 0.32311 0.0
O158 O 0.31397 0.33365 0.31772 0.0
Co159 Co 0.33697 0.37257 0.33281 0.0
O160 O 0.32339 0.36153 0.30735 0.0
C161 C 0.31364 0.35217 0.36718 0.0
C162 C 0.32882 0.31321 0.36104 0.0
C163 C 0.31347 0.34466 0.30526 0.0
O164 O 0.31464 0.33846 0.36193 0.0
O165 O 0.32212 0.36722 0.35817 0.0
O166 O 0.34644 0.33501 0.32151 0.0
O167 O 0.34744 0.35809 0.33682 0.0
Co168 Co 0.34183 0.01029 0.67462 0.0
O169 O 0.34697 0.99829 0.6954 0.0
O170 O 0.36651 0.02422 0.6818 0.0
C171 C 0.32567 0.986 0.65449 0.0
O172 O 0.3418 0.0265 0.65264 0.0
Co173 Co 0.3035 0.00058 0.66514 0.0
O174 O 0.31435 0.01487 0.6401 0.0
C175 C 0.32156 0.02197 0.70226 0.0
C176 C 0.36315 0.01162 0.69462 0.0
C177 C 0.33088 0.02613 0.63948 0.0
O178 O 0.33606 0.02321 0.69627 0.0
O179 O 0.30685 0.01244 0.69284 0.0
O180 O 0.34282 0.99466 0.65345 0.0
O181 O 0.31907 0.99138 0.66862 0.0
Co182 Co 0.99385 0.32852 0.67456 0.0
O183 O 0.01026 0.34132 0.65277 0.0
O184 O 0.00637 0.31663 0.66692 0.0
C185 C 0.00059 0.35245 0.69457 0.0
O186 O 0.97886 0.31174 0.69738 0.0
Co187 Co 0.96303 0.33428 0.68666 0.0
O188 O 0.96194 0.3213 0.71177 0.0
C189 C 0.96015 0.313 0.64952 0.0
C190 C 0.01458 0.32921 0.65361 0.0
C191 C 0.9684 0.31121 0.71158 0.0
O192 O 0.9749 0.31413 0.65368 0.0
O193 O 0.95359 0.32064 0.66019 0.0
O194 O 0.0104 0.34535 0.69491 0.0
O195 O 0.9881 0.34586 0.68111 0.0
Co196 Co 0.67363 0.66934 0.6754 0.0
O197 O 0.66183 0.67442 0.65436 0.0
O198 O 0.68677 0.69459 0.66944 0.0
C199 C 0.64938 0.65222 0.69447 0.0
O200 O 0.68942 0.66923 0.69801 0.0
Co201 Co 0.66433 0.63042 0.68291 0.0
O202 O 0.67947 0.64098 0.70744 0.0
C203 C 0.68749 0.65042 0.64821 0.0
C204 C 0.67446 0.69097 0.65611 0.0
C205 C 0.68994 0.65777 0.70968 0.0
O206 O 0.68726 0.6645 0.65385 0.0
O207 O 0.67851 0.63535 0.65707 0.0
O208 O 0.65772 0.66952 0.69627 0.0
O209 O 0.65498 0.64598 0.68012 0.0
Co210 Co 0.33024 0.3291 0.67804 0.0
O211 O 0.32411 0.34125 0.6586 0.0
O212 O 0.30539 0.31463 0.67122 0.0
C213 C 0.34601 0.35299 0.69884 0.0
O214 O 0.33163 0.31274 0.69893 0.0
Co215 Co 0.36948 0.34073 0.68498 0.0
O216 O 0.35991 0.32385 0.7081 0.0
C217 C 0.35115 0.32032 0.64762 0.0
C218 C 0.30815 0.32757 0.65922 0.0
C219 C 0.34347 0.31248 0.71005 0.0
O220 O 0.33639 0.31758 0.65496 0.0
O221 O 0.36601 0.33048 0.65646 0.0
O222 O 0.32891 0.34352 0.70052 0.0
O223 O 0.35267 0.34858 0.68383 0.0
Co224 Co 0.67342 0.00929 0.67495 0.0
O225 O 0.65729 0.99665 0.69694 0.0
O226 O 0.66197 0.02199 0.68392 0.0
C227 C 0.66521 0.98509 0.6548 0.0
O228 O 0.68818 0.02591 0.65198 0.0
Co229 Co 0.70284 0.00212 0.66095 0.0
O230 O 0.70302 0.01473 0.63583 0.0
C231 C 0.7079 0.02405 0.69833 0.0
C232 C 0.65363 0.00927 0.69705 0.0
C233 C 0.69742 0.02554 0.63684 0.0
O234 O 0.6931 0.02313 0.69521 0.0
O235 O 0.71369 0.01602 0.687 0.0
O236 O 0.65611 0.99297 0.6548 0.0
O237 O 0.67806 0.9913 0.66775 0.0
Co238 Co 0.99409 0.66826 0.67617 0.0
O239 O 0.0056 0.66233 0.69672 0.0
O240 O 0.98018 0.643 0.68195 0.0
C241 C 0.0184 0.68506 0.65701 0.0
O242 O 0.97859 0.66928 0.65391 0.0
Co243 Co 0.00454 0.70771 0.67005 0.0
O244 O 0.98883 0.6979 0.64578 0.0
C245 C 0.98258 0.688 0.70545 0.0
C246 C 0.99251 0.64599 0.69497 0.0
C247 C 0.97822 0.6812 0.64292 0.0
O248 O 0.98101 0.67348 0.69807 0.0
O249 O 0.99267 0.70333 0.69753 0.0
O250 O 0.00973 0.66776 0.65506 0.0
O251 O 0.0131 0.69137 0.67159 0.0
C252 C 0.22337 0.33643 0.13745 0.0
C253 C 0.22051 0.32811 0.11802 0.0
C254 C 0.20923 0.3345 0.14922 0.0
C255 C 0.19177 0.32352 0.14233 0.0
C256 C 0.20302 0.31754 0.11091 0.0
C257 C 0.18885 0.31521 0.12297 0.0
C258 C 0.17661 0.32186 0.15423 0.0
C259 C 0.20466 0.30422 0.19634 0.0
C260 C 0.21201 0.31541 0.2137 0.0
C261 C 0.19241 0.30546 0.18409 0.0
C262 C 0.18751 0.31808 0.18884 0.0
C263 C 0.20666 0.32766 0.21865 0.0
C264 C 0.19448 0.32889 0.20644 0.0
C265 C 0.17509 0.32019 0.17581 0.0
C266 C 0.10443 0.3122 0.19422 0.0
C267 C 0.10915 0.32341 0.21169 0.0
C268 C 0.11743 0.31199 0.18202 0.0
C269 C 0.13538 0.32313 0.18695 0.0
C270 C 0.12714 0.33461 0.21646 0.0
C271 C 0.14009 0.33438 0.20429 0.0
C272 C 0.14936 0.32256 0.17492 0.0
C273 C 0.12495 0.34377 0.13213 0.0
C274 C 0.11622 0.3323 0.11533 0.0
C275 C 0.136 0.34094 0.14464 0.0
C276 C 0.13851 0.32655 0.14064 0.0
C277 C 0.11889 0.31796 0.11134 0.0
C278 C 0.13004 0.31523 0.12376 0.0
C279 C 0.15058 0.32373 0.15336 0.0
H280 H 0.23656 0.34453 0.14365 0.0
H281 H 0.21205 0.34186 0.16359 0.0
H282 H 0.20021 0.3113 0.09584 0.0
H283 H 0.17555 0.30701 0.11704 0.0
H284 H 0.20833 0.29449 0.19226 0.0
H285 H 0.18687 0.29666 0.17085 0.0
H286 H 0.21224 0.33668 0.23171 0.0
H287 H 0.19084 0.33867 0.21047 0.0
H288 H 0.09068 0.30322 0.19034 0.0
H289 H 0.11344 0.30284 0.16902 0.0
H290 H 0.13121 0.34355 0.22965 0.0
H291 H 0.15385 0.34305 0.20841 0.0
H292 H 0.12348 0.35513 0.13543 0.0
H293 H 0.14278 0.35013 0.15727 0.0
H294 H 0.1122 0.3087 0.09874 0.0
H295 H 0.1319 0.30412 0.12034 0.0
N296 N 0.16413 0.3233 0.14387 0.0
N297 N 0.16165 0.32084 0.18527 0.0
C298 C 0.66052 0.8774 0.1274 0.0
C299 C 0.67297 0.88787 0.1124 0.0
C300 C 0.66355 0.8666 0.14017 0.0
C301 C 0.67912 0.86607 0.13828 0.0
C302 C 0.6884 0.88702 0.11028 0.0
C303 C 0.69137 0.87611 0.12301 0.0
C304 C 0.68227 0.85455 0.15176 0.0
C305 C 0.68752 0.89886 0.19304 0.0
C306 C 0.67494 0.89334 0.20887 0.0
C307 C 0.68903 0.88627 0.1811 0.0
C308 C 0.67788 0.86793 0.18464 0.0
C309 C 0.66358 0.87496 0.21211 0.0
C310 C 0.66512 0.8624 0.20019 0.0
C311 C 0.68028 0.85452 0.1733 0.0
C312 C 0.69964 0.80176 0.2019 0.0
C313 C 0.68448 0.79006 0.21311 0.0
C314 C 0.69966 0.8147 0.18954 0.0
C315 C 0.68464 0.81627 0.18857 0.0
C316 C 0.6695 0.79167 0.21213 0.0
C317 C 0.66966 0.80483 0.20016 0.0
C318 C 0.68431 0.82968 0.17543 0.0
C319 C 0.67682 0.78501 0.13393 0.0
C320 C 0.69144 0.78962 0.12115 0.0
C321 C 0.67545 0.79815 0.14473 0.0
C322 C 0.68866 0.81618 0.14303 0.0
C323 C 0.70468 0.80774 0.11949 0.0
C324 C 0.70322 0.82093 0.13023 0.0
C325 C 0.68682 0.83002 0.15403 0.0
H326 H 0.64832 0.8774 0.12916 0.0
H327 H 0.65363 0.85854 0.15143 0.0
H328 H 0.69836 0.89503 0.09904 0.0
H329 H 0.70339 0.87577 0.12118 0.0
H330 H 0.69666 0.91292 0.1904 0.0
H331 H 0.6993 0.89091 0.16956 0.0
H332 H 0.65362 0.87028 0.22402 0.0
H333 H 0.65641 0.84832 0.20322 0.0
H334 H 0.71132 0.80072 0.20253 0.0
H335 H 0.71139 0.82352 0.1808 0.0
H336 H 0.65773 0.78283 0.2208 0.0
H337 H 0.65797 0.80586 0.19961 0.0
H338 H 0.66614 0.77127 0.13516 0.0
H339 H 0.66388 0.79424 0.15413 0.0
H340 H 0.71615 0.81174 0.10988 0.0
H341 H 0.71348 0.83482 0.12866 0.0
N342 N 0.68567 0.84241 0.14293 0.0
N343 N 0.68117 0.84195 0.18428 0.0
C344 C 0.11076 0.78843 0.13387 0.0
C345 C 0.10041 0.79151 0.1202 0.0
C346 C 0.12379 0.8024 0.1457 0.0
C347 C 0.12682 0.81974 0.14404 0.0
C348 C 0.10354 0.80896 0.11861 0.0
C349 C 0.11676 0.82298 0.13028 0.0
C350 C 0.14088 0.83457 0.15619 0.0
C351 C 0.09708 0.80008 0.2004 0.0
C352 C 0.10242 0.79316 0.2162 0.0
C353 C 0.10965 0.81345 0.18773 0.0
C354 C 0.12774 0.81989 0.19046 0.0
C355 C 0.12052 0.79973 0.21891 0.0
C356 C 0.13301 0.81297 0.20624 0.0
C357 C 0.14148 0.83436 0.17777 0.0
C358 C 0.20424 0.90652 0.19952 0.0
C359 C 0.21122 0.90126 0.21533 0.0
C360 C 0.19063 0.8937 0.1871 0.0
C361 C 0.184 0.87543 0.19011 0.0
C362 C 0.20449 0.88297 0.21831 0.0
C363 C 0.19096 0.87021 0.20588 0.0
C364 C 0.16939 0.86154 0.17753 0.0
C365 C 0.2156 0.89174 0.13587 0.0
C366 C 0.21262 0.89902 0.11839 0.0
C367 C 0.20152 0.8794 0.14782 0.0
C368 C 0.18411 0.87463 0.1432 0.0
C369 C 0.19508 0.89365 0.11333 0.0
C370 C 0.18101 0.88165 0.12565 0.0
C371 C 0.16902 0.86157 0.15585 0.0
H372 H 0.10904 0.77529 0.13517 0.0
H373 H 0.13169 0.79972 0.15596 0.0
H374 H 0.0957 0.8118 0.10846 0.0
H375 H 0.11899 0.83632 0.12876 0.0
H376 H 0.08323 0.79539 0.1981 0.0
H377 H 0.10525 0.81893 0.17605 0.0
H378 H 0.12505 0.79446 0.23072 0.0
H379 H 0.14687 0.81773 0.2087 0.0
H380 H 0.20901 0.92052 0.19709 0.0
H381 H 0.18518 0.89803 0.17531 0.0
H382 H 0.20973 0.87853 0.23022 0.0
H383 H 0.18601 0.85619 0.20851 0.0
H384 H 0.22884 0.89557 0.14048 0.0
H385 H 0.20432 0.87356 0.16064 0.0
H386 H 0.19211 0.8985 0.0997 0.0
H387 H 0.16768 0.87787 0.12144 0.0
N388 N 0.15463 0.84816 0.14604 0.0
N389 N 0.15571 0.84787 0.18755 0.0
C390 C 0.33288 0.11589 0.82286 0.0
C391 C 0.32032 0.10686 0.80731 0.0
C392 C 0.33199 0.12856 0.83542 0.0
C393 C 0.31825 0.13203 0.83295 0.0
C394 C 0.30668 0.11045 0.8048 0.0
C395 C 0.30568 0.12292 0.81748 0.0
C396 C 0.31735 0.14589 0.84532 0.0
C397 C 0.31409 0.10516 0.88945 0.0
C398 C 0.32685 0.11239 0.90509 0.0
C399 C 0.3111 0.11632 0.8772 0.0
C400 C 0.3212 0.13497 0.87995 0.0
C401 C 0.33648 0.13096 0.90832 0.0
C402 C 0.3337 0.14213 0.89585 0.0
C403 C 0.31864 0.14723 0.86696 0.0
C404 C 0.30133 0.20512 0.88433 0.0
C405 C 0.31263 0.21344 0.90109 0.0
C406 C 0.30183 0.19152 0.87332 0.0
C407 C 0.31415 0.18656 0.87841 0.0
C408 C 0.32425 0.20785 0.90688 0.0
C409 C 0.32504 0.19456 0.89559 0.0
C410 C 0.31568 0.17293 0.86623 0.0
C411 C 0.3282 0.2172 0.82274 0.0
C412 C 0.31677 0.21229 0.80586 0.0
C413 C 0.32773 0.20418 0.83531 0.0
C414 C 0.31551 0.18597 0.83157 0.0
C415 C 0.30478 0.19406 0.80189 0.0
C416 C 0.30419 0.18103 0.81461 0.0
C417 C 0.31519 0.17204 0.84456 0.0
H418 H 0.34365 0.11352 0.8249 0.0
H419 H 0.34217 0.13582 0.84681 0.0
H420 H 0.29677 0.10359 0.79301 0.0
H421 H 0.29507 0.12549 0.81517 0.0
H422 H 0.30625 0.09084 0.88692 0.0
H423 H 0.30087 0.11035 0.86563 0.0
H424 H 0.34638 0.13688 0.92027 0.0
H425 H 0.34152 0.15644 0.89848 0.0
H426 H 0.2921 0.20911 0.87983 0.0
H427 H 0.29271 0.18503 0.86073 0.0
H428 H 0.33308 0.21413 0.91979 0.0
H429 H 0.33447 0.19082 0.90003 0.0
H430 H 0.33786 0.23111 0.82591 0.0
H431 H 0.33707 0.20836 0.84781 0.0
H432 H 0.29581 0.18988 0.789 0.0
H433 H 0.29482 0.16708 0.81125 0.0
N434 N 0.31572 0.15837 0.83504 0.0
N435 N 0.31767 0.16067 0.87649 0.0
C436 C 0.91019 0.20283 0.88389 0.0
C437 C 0.90636 0.2101 0.90111 0.0
C438 C 0.89658 0.18844 0.87308 0.0
C439 C 0.87885 0.18152 0.87885 0.0
C440 C 0.88877 0.20264 0.90752 0.0
C441 C 0.87513 0.18851 0.89645 0.0
C442 C 0.86412 0.16699 0.86684 0.0
C443 C 0.89005 0.21241 0.82243 0.0
C444 C 0.90022 0.20988 0.80764 0.0
C445 C 0.87844 0.19834 0.83493 0.0
C446 C 0.87668 0.1815 0.83262 0.0
C447 C 0.89865 0.1931 0.80548 0.0
C448 C 0.88674 0.1789 0.81772 0.0
C449 C 0.86373 0.16647 0.84518 0.0
C450 C 0.79017 0.11387 0.82238 0.0
C451 C 0.79194 0.10221 0.80883 0.0
C452 C 0.8043 0.12574 0.83486 0.0
C453 C 0.82043 0.12626 0.8337 0.0
C454 C 0.808 0.10258 0.80793 0.0
C455 C 0.82224 0.1147 0.82009 0.0
C456 C 0.83573 0.1395 0.84582 0.0
C457 C 0.79754 0.09651 0.88757 0.0
C458 C 0.79218 0.10263 0.90456 0.0
C459 C 0.81199 0.10852 0.87575 0.0
C460 C 0.82092 0.12695 0.88027 0.0
C461 C 0.80153 0.1209 0.90966 0.0
C462 C 0.81572 0.13295 0.89757 0.0
C463 C 0.83584 0.14013 0.86749 0.0
H464 H 0.92372 0.20822 0.87892 0.0
H465 H 0.89997 0.18279 0.86021 0.0
H466 H 0.88554 0.20806 0.92079 0.0
H467 H 0.86162 0.18331 0.90139 0.0
H468 H 0.89105 0.22525 0.82424 0.0
H469 H 0.87059 0.20052 0.84617 0.0
H470 H 0.90631 0.19091 0.794 0.0
H471 H 0.88543 0.16594 0.81565 0.0
H472 H 0.77789 0.11382 0.82322 0.0
H473 H 0.80278 0.13475 0.84512 0.0
H474 H 0.80968 0.09383 0.79741 0.0
H475 H 0.83465 0.11506 0.81891 0.0
H476 H 0.7907 0.08241 0.88362 0.0
H477 H 0.81619 0.10332 0.86318 0.0
H478 H 0.79762 0.12589 0.92275 0.0
H479 H 0.82246 0.14704 0.90159 0.0
N480 N 0.85007 0.15387 0.87713 0.0
N481 N 0.84966 0.15267 0.83551 0.0
C482 C 0.79037 0.68678 0.88988 0.0
C483 C 0.77881 0.67068 0.89971 0.0
C484 C 0.80468 0.68854 0.87857 0.0
C485 C 0.8077 0.67428 0.87711 0.0
C486 C 0.7819 0.65646 0.8983 0.0
C487 C 0.79638 0.65833 0.88729 0.0
C488 C 0.82273 0.67597 0.86517 0.0
C489 C 0.78217 0.67069 0.82067 0.0
C490 C 0.78782 0.68485 0.807 0.0
C491 C 0.79436 0.66927 0.83267 0.0
C492 C 0.81243 0.68228 0.83175 0.0
C493 C 0.80593 0.69765 0.80564 0.0
C494 C 0.81813 0.69638 0.81795 0.0
C495 C 0.82548 0.68067 0.84427 0.0
C496 C 0.88549 0.66975 0.8214 0.0
C497 C 0.89468 0.68399 0.80785 0.0
C498 C 0.87183 0.66858 0.83356 0.0
C499 C 0.86736 0.68184 0.83275 0.0
C500 C 0.89013 0.69718 0.80694 0.0
C501 C 0.87658 0.69609 0.81925 0.0
C502 C 0.85233 0.68033 0.84477 0.0
C503 C 0.89127 0.68548 0.8928 0.0
C504 C 0.88554 0.66946 0.9032 0.0
C505 C 0.87964 0.6874 0.88026 0.0
C506 C 0.86205 0.67339 0.87814 0.0
C507 C 0.86797 0.65542 0.90096 0.0
C508 C 0.85626 0.65746 0.88872 0.0
C509 C 0.84944 0.67552 0.86564 0.0
H510 H 0.78822 0.69791 0.89079 0.0
H511 H 0.81342 0.70103 0.87101 0.0
H512 H 0.77323 0.64399 0.90594 0.0
H513 H 0.79858 0.64724 0.88641 0.0
H514 H 0.76835 0.66036 0.8216 0.0
H515 H 0.78962 0.65775 0.84237 0.0
H516 H 0.81063 0.70862 0.79509 0.0
H517 H 0.83201 0.70644 0.8167 0.0
H518 H 0.88849 0.65921 0.82212 0.0
H519 H 0.86449 0.65704 0.84317 0.0
H520 H 0.89704 0.70834 0.79668 0.0
H521 H 0.87326 0.70639 0.81818 0.0
H522 H 0.90478 0.69647 0.89428 0.0
H523 H 0.88429 0.69989 0.87245 0.0
H524 H 0.86324 0.643 0.90896 0.0
H525 H 0.84269 0.64656 0.88738 0.0
N526 N 0.83472 0.67345 0.875 0.0
N527 N 0.84026 0.68279 0.83492 0.0
C528 C 0.77233 0.65044 0.46404 0.0
C529 C 0.77891 0.66344 0.44876 0.0
C530 C 0.78387 0.64776 0.47583 0.0
C531 C 0.80224 0.65844 0.473 0.0
C532 C 0.79721 0.67372 0.44547 0.0
C533 C 0.80875 0.67127 0.45751 0.0
C534 C 0.81482 0.65597 0.48537 0.0
C535 C 0.78621 0.67077 0.53215 0.0
C536 C 0.77397 0.65582 0.54332 0.0
C537 C 0.79896 0.67 0.52004 0.0
C538 C 0.79976 0.65437 0.51921 0.0
C539 C 0.77474 0.64016 0.54237 0.0
C540 C 0.78771 0.63953 0.53061 0.0
C541 C 0.81339 0.6536 0.5068 0.0
C542 C 0.88446 0.66593 0.52948 0.0
C543 C 0.87976 0.65322 0.54489 0.0
C544 C 0.87153 0.66573 0.51714 0.0
C545 C 0.85366 0.65251 0.51959 0.0
C546 C 0.86185 0.6402 0.54761 0.0
C547 C 0.84892 0.63987 0.53508 0.0
C548 C 0.8398 0.65246 0.5069 0.0
C549 C 0.87532 0.64434 0.4644 0.0
C550 C 0.88322 0.65718 0.44903 0.0
C551 C 0.86131 0.64306 0.47595 0.0
C552 C 0.85542 0.65503 0.4728 0.0
C553 C 0.87684 0.66861 0.44527 0.0
C554 C 0.8631 0.66757 0.45708 0.0
C555 C 0.84107 0.65448 0.48535 0.0
H556 H 0.75824 0.6421 0.46656 0.0
H557 H 0.77835 0.63716 0.48693 0.0
H558 H 0.80258 0.68381 0.43374 0.0
H559 H 0.82283 0.67955 0.45482 0.0
H560 H 0.78586 0.68298 0.53274 0.0
H561 H 0.80829 0.68165 0.51147 0.0
H562 H 0.76552 0.62855 0.55106 0.0
H563 H 0.78823 0.6274 0.53022 0.0
H564 H 0.89811 0.67638 0.52735 0.0
H565 H 0.87551 0.67606 0.50586 0.0
H566 H 0.85785 0.63026 0.5594 0.0
H567 H 0.8352 0.62971 0.53745 0.0
H568 H 0.87987 0.6352 0.4673 0.0
H569 H 0.85516 0.63276 0.48737 0.0
H570 H 0.88275 0.6786 0.43347 0.0
H571 H 0.85867 0.67682 0.45416 0.0
N572 N 0.82861 0.65631 0.47554 0.0
N573 N 0.82587 0.65188 0.51673 0.0
C574 C 0.33078 0.21878 0.46596 0.0
C575 C 0.33967 0.22441 0.44705 0.0
C576 C 0.33321 0.20744 0.4785 0.0
C577 C 0.34523 0.20208 0.47296 0.0
C578 C 0.35103 0.21828 0.4411 0.0
C579 C 0.35384 0.20735 0.45394 0.0
C580 C 0.34824 0.19025 0.48621 0.0
C581 C 0.36111 0.23819 0.52662 0.0
C582 C 0.34991 0.2338 0.54375 0.0
C583 C 0.36116 0.22473 0.51471 0.0
C584 C 0.34984 0.20669 0.51962 0.0
C585 C 0.33858 0.21573 0.54852 0.0
C586 C 0.33863 0.20234 0.53665 0.0
C587 C 0.34993 0.19217 0.50778 0.0
C588 C 0.36315 0.13256 0.53038 0.0
C589 C 0.35291 0.12706 0.54843 0.0
C590 C 0.36368 0.14584 0.51818 0.0
C591 C 0.35322 0.15324 0.52313 0.0
C592 C 0.34381 0.13578 0.55424 0.0
C593 C 0.34379 0.1485 0.54165 0.0
C594 C 0.35187 0.16594 0.50949 0.0
C595 C 0.338 0.11714 0.47167 0.0
C596 C 0.34935 0.12053 0.45484 0.0
C597 C 0.3378 0.13116 0.48204 0.0
C598 C 0.34943 0.14891 0.47632 0.0
C599 C 0.36031 0.1383 0.44853 0.0
C600 C 0.36036 0.15233 0.4592 0.0
C601 C 0.35022 0.16401 0.48789 0.0
H602 H 0.32201 0.22323 0.47128 0.0
H603 H 0.32563 0.20288 0.49253 0.0
H604 H 0.35772 0.22179 0.42643 0.0
H605 H 0.36284 0.20305 0.44902 0.0
H606 H 0.37014 0.25201 0.52275 0.0
H607 H 0.37018 0.2284 0.50186 0.0
H608 H 0.32964 0.21193 0.56147 0.0
H609 H 0.32981 0.18851 0.54072 0.0
H610 H 0.37045 0.12635 0.52526 0.0
H611 H 0.37191 0.14993 0.50461 0.0
H612 H 0.33646 0.13269 0.56845 0.0
H613 H 0.33603 0.15436 0.54625 0.0
H614 H 0.32941 0.10369 0.47707 0.0
H615 H 0.32881 0.12815 0.49482 0.0
H616 H 0.36881 0.14142 0.43527 0.0
H617 H 0.36917 0.1659 0.45424 0.0
N618 N 0.34864 0.17632 0.47715 0.0
N619 N 0.35154 0.17991 0.51847 0.0
C620 C 0.77578 0.1178 0.46495 0.0
C621 C 0.76726 0.12 0.44813 0.0
C622 C 0.78947 0.13261 0.47511 0.0
C623 C 0.79446 0.14998 0.46925 0.0
C624 C 0.77306 0.13746 0.44157 0.0
C625 C 0.78649 0.15228 0.45206 0.0
C626 C 0.80803 0.16577 0.48085 0.0
C627 C 0.76329 0.1312 0.52344 0.0
C628 C 0.76858 0.12657 0.54145 0.0
C629 C 0.7757 0.14507 0.51115 0.0
C630 C 0.79378 0.154 0.51606 0.0
C631 C 0.78647 0.13673 0.5472 0.0
C632 C 0.79888 0.15006 0.53458 0.0
C633 C 0.80771 0.1675 0.50246 0.0
C634 C 0.87371 0.23949 0.5202 0.0
C635 C 0.8791 0.23437 0.53774 0.0
C636 C 0.85938 0.22679 0.50846 0.0
C637 C 0.85059 0.20864 0.51362 0.0
C638 C 0.86967 0.21629 0.54329 0.0
C639 C 0.85572 0.20362 0.53132 0.0
C640 C 0.83581 0.19457 0.50127 0.0
C641 C 0.88289 0.22297 0.46054 0.0
C642 C 0.88023 0.2309 0.44343 0.0
C643 C 0.86856 0.21012 0.47181 0.0
C644 C 0.85126 0.20546 0.46683 0.0
C645 C 0.86276 0.22529 0.43772 0.0
C646 C 0.84845 0.21277 0.44935 0.0
C647 C 0.83606 0.19296 0.47967 0.0
H648 H 0.7717 0.10465 0.47059 0.0
H649 H 0.79586 0.13048 0.4879 0.0
H650 H 0.76727 0.13974 0.42829 0.0
H651 H 0.79043 0.16556 0.44697 0.0
H652 H 0.74966 0.12386 0.51847 0.0
H653 H 0.77118 0.14844 0.49755 0.0
H654 H 0.79105 0.13428 0.5614 0.0
H655 H 0.81263 0.15703 0.53916 0.0
H656 H 0.8806 0.25327 0.51542 0.0
H657 H 0.85532 0.23115 0.49529 0.0
H658 H 0.87289 0.21184 0.55706 0.0
H659 H 0.84898 0.18977 0.53589 0.0
H660 H 0.89605 0.22691 0.46559 0.0
H661 H 0.87107 0.20415 0.48475 0.0
H662 H 0.86006 0.23058 0.42428 0.0
H663 H 0.83519 0.20904 0.44489 0.0
N664 N 0.82205 0.17872 0.4703 0.0
N665 N 0.82168 0.18178 0.51165 0.0
C666 C 0.97848 0.54082 0.1494 0.0
C667 C 0.99128 0.5497 0.1341 0.0
C668 C 0.97899 0.52808 0.16158 0.0
C669 C 0.99242 0.52412 0.15885 0.0
C670 C 0.00449 0.54542 0.13117 0.0
C671 C 0.00497 0.53268 0.14333 0.0
C672 C 0.99339 0.51093 0.17185 0.0
C673 C 0.00476 0.55703 0.214 0.0
C674 C 0.9908 0.55269 0.2278 0.0
C675 C 0.00539 0.54367 0.20266 0.0
C676 C 0.99215 0.52572 0.20499 0.0
C677 C 0.97748 0.53465 0.2299 0.0
C678 C 0.97827 0.52128 0.21876 0.0
C679 C 0.99293 0.5115 0.19344 0.0
C680 C 0.01212 0.45656 0.21597 0.0
C681 C 0.00289 0.45096 0.23469 0.0
C682 C 0.01003 0.468 0.20318 0.0
C683 C 0.99802 0.4735 0.20824 0.0
C684 C 0.9915 0.45719 0.24014 0.0
C685 C 0.98902 0.46818 0.22703 0.0
C686 C 0.99559 0.48571 0.1949 0.0
C687 C 0.98247 0.43855 0.15349 0.0
C688 C 0.9942 0.44263 0.13694 0.0
C689 C 0.98296 0.45221 0.16551 0.0
C690 C 0.9953 0.47017 0.16129 0.0
C691 C 0.00659 0.46063 0.13287 0.0
C692 C 0.00703 0.47426 0.14484 0.0
C693 C 0.99545 0.48479 0.17319 0.0
H694 H 0.96796 0.54357 0.15182 0.0
H695 H 0.96884 0.52127 0.17307 0.0
H696 H 0.01469 0.55216 0.11971 0.0
H697 H 0.01539 0.52978 0.14088 0.0
H698 H 0.01544 0.57071 0.21229 0.0
H699 H 0.01636 0.5473 0.1923 0.0
H700 H 0.96641 0.53082 0.24013 0.0
H701 H 0.96793 0.50746 0.22071 0.0
H702 H 0.02091 0.45205 0.211 0.0
H703 H 0.01796 0.47259 0.18941 0.0
H704 H 0.98456 0.45374 0.25465 0.0
H705 H 0.98001 0.47255 0.23164 0.0
H706 H 0.97259 0.42483 0.15681 0.0
H707 H 0.9735 0.44876 0.17785 0.0
H708 H 0.01595 0.46421 0.1204 0.0
H709 H 0.01661 0.48803 0.14129 0.0
N710 N 0.99463 0.49759 0.16255 0.0
N711 N 0.99407 0.49894 0.20413 0.0
C712 C 0.46146 0.43111 0.15904 0.0
C713 C 0.45632 0.43673 0.14172 0.0
C714 C 0.47595 0.44335 0.17088 0.0
C715 C 0.48518 0.46161 0.16619 0.0
C716 C 0.46595 0.45496 0.1368 0.0
C717 C 0.48005 0.46722 0.14895 0.0
C718 C 0.50074 0.47504 0.1782 0.0
C719 C 0.45625 0.44968 0.22335 0.0
C720 C 0.45803 0.43838 0.23693 0.0
C721 C 0.47052 0.4618 0.21145 0.0
C722 C 0.48687 0.46287 0.21287 0.0
C723 C 0.47459 0.4398 0.23861 0.0
C724 C 0.48892 0.45206 0.22681 0.0
C725 C 0.50181 0.4753 0.19985 0.0
C726 C 0.56005 0.54884 0.21866 0.0
C727 C 0.57106 0.54661 0.23216 0.0
C728 C 0.54682 0.53428 0.20772 0.0
C729 C 0.54429 0.51719 0.21006 0.0
C730 C 0.56839 0.52939 0.23454 0.0
C731 C 0.555 0.51478 0.22371 0.0
C732 C 0.53017 0.50188 0.19854 0.0
C733 C 0.57341 0.53576 0.15401 0.0
C734 C 0.56809 0.54325 0.13883 0.0
C735 C 0.56084 0.5221 0.16637 0.0
C736 C 0.54277 0.51586 0.16393 0.0
C737 C 0.54998 0.53675 0.13627 0.0
C738 C 0.53748 0.52315 0.1486 0.0
C739 C 0.52914 0.50164 0.17697 0.0
H740 H 0.45439 0.41724 0.16347 0.0
H741 H 0.48 0.4384 0.18349 0.0
H742 H 0.46291 0.45985 0.12326 0.0
H743 H 0.48705 0.48115 0.14472 0.0
H744 H 0.44384 0.44928 0.22201 0.0
H745 H 0.46879 0.47032 0.20107 0.0
H746 H 0.47642 0.43121 0.24876 0.0
H747 H 0.50149 0.45279 0.22818 0.0
H748 H 0.56139 0.56177 0.21681 0.0
H749 H 0.53843 0.53634 0.19755 0.0
H750 H 0.57672 0.52722 0.24465 0.0
H751 H 0.55315 0.50165 0.22576 0.0
H752 H 0.58725 0.54034 0.15617 0.0
H753 H 0.56524 0.51636 0.17774 0.0
H754 H 0.54544 0.54241 0.12496 0.0
H755 H 0.52363 0.51857 0.14641 0.0
N756 N 0.51447 0.48828 0.1677 0.0
N757 N 0.51653 0.48864 0.2092 0.0
C758 C 0.45313 0.00825 0.22322 0.0
C759 C 0.44187 0.99247 0.2338 0.0
C760 C 0.46641 0.00927 0.21045 0.0
C761 C 0.46871 0.99458 0.20825 0.0
C762 C 0.4441 0.97775 0.23146 0.0
C763 C 0.45758 0.97889 0.21898 0.0
C764 C 0.4832 0.99579 0.1956 0.0
C765 C 0.44263 0.99279 0.15222 0.0
C766 C 0.44879 0.00692 0.13838 0.0
C767 C 0.45448 0.99066 0.16407 0.0
C768 C 0.47275 0.00288 0.16274 0.0
C769 C 0.46706 0.01901 0.13682 0.0
C770 C 0.47891 0.01701 0.14889 0.0
C771 C 0.48555 0.00041 0.17469 0.0
C772 C 0.54518 0.98897 0.14992 0.0
C773 C 0.55435 0.00342 0.13663 0.0
C774 C 0.53129 0.98742 0.16197 0.0
C775 C 0.52664 0.00057 0.16137 0.0
C776 C 0.54939 0.0163 0.13566 0.0
C777 C 0.53567 0.01488 0.14789 0.0
C778 C 0.51202 0.99927 0.17408 0.0
C779 C 0.55263 0.00332 0.21866 0.0
C780 C 0.54633 0.98957 0.23302 0.0
C781 C 0.54085 0.00513 0.20626 0.0
C782 C 0.52258 0.99284 0.2075 0.0
C783 C 0.52809 0.97752 0.23459 0.0
C784 C 0.51634 0.97911 0.22191 0.0
C785 C 0.50974 0.99487 0.19512 0.0
H786 H 0.45161 0.01975 0.22478 0.0
H787 H 0.47504 0.02159 0.20252 0.0
H788 H 0.43565 0.96551 0.2396 0.0
H789 H 0.45927 0.96748 0.21759 0.0
H790 H 0.42866 0.983 0.15337 0.0
H791 H 0.44933 0.97916 0.17388 0.0
H792 H 0.47217 0.03 0.12624 0.0
H793 H 0.49293 0.0265 0.14738 0.0
H794 H 0.54854 0.97869 0.15069 0.0
H795 H 0.52414 0.97591 0.17168 0.0
H796 H 0.55628 0.02761 0.12559 0.0
H797 H 0.53223 0.02509 0.14698 0.0
H798 H 0.56664 0.01297 0.21745 0.0
H799 H 0.54603 0.01633 0.19599 0.0
H800 H 0.52294 0.96684 0.2456 0.0
H801 H 0.50232 0.96961 0.22341 0.0
N802 N 0.49532 0.99317 0.20493 0.0
N803 N 0.49991 0.00201 0.16479 0.0
C804 C 0.56089 0.01431 0.8049 0.0
C805 C 0.55755 0.00222 0.78857 0.0
C806 C 0.54699 0.01301 0.8167 0.0
C807 C 0.52951 0.99963 0.81236 0.0
C808 C 0.53998 0.98869 0.78451 0.0
C809 C 0.5261 0.98755 0.79615 0.0
C810 C 0.51464 0.9989 0.82375 0.0
C811 C 0.54266 0.98241 0.86699 0.0
C812 C 0.55046 0.99425 0.88375 0.0
C813 C 0.53044 0.98346 0.85453 0.0
C814 C 0.52589 0.99646 0.85849 0.0
C815 C 0.5456 0.00703 0.88784 0.0
C816 C 0.53336 0.00802 0.87543 0.0
C817 C 0.51321 0.99798 0.8453 0.0
C818 C 0.4412 0.98959 0.85899 0.0
C819 C 0.44442 0.99819 0.8783 0.0
C820 C 0.45487 0.98977 0.84784 0.0
C821 C 0.47233 0.99936 0.85513 0.0
C822 C 0.46184 0.00723 0.88588 0.0
C823 C 0.4756 0.00792 0.87438 0.0
C824 C 0.48713 -0.00025 0.84358 0.0
C825 C 0.46341 0.02081 0.79961 0.0
C826 C 0.45466 0.009 0.78306 0.0
C827 C 0.47459 0.0183 0.81228 0.0
C828 C 0.47718 0.00392 0.80867 0.0
C829 C 0.45756 0.99479 0.77935 0.0
C830 C 0.46884 0.99239 0.79191 0.0
C831 C 0.48884 0.001 0.82198 0.0
H832 H 0.57419 0.02507 0.80826 0.0
H833 H 0.54986 0.02273 0.82888 0.0
H834 H 0.53692 0.97896 0.77231 0.0
H835 H 0.51267 0.97718 0.79254 0.0
H836 H 0.54587 0.97223 0.86361 0.0
H837 H 0.52448 0.97406 0.84186 0.0
H838 H 0.55152 0.01654 0.90041 0.0
H839 H 0.53 0.0181 0.87882 0.0
H840 H 0.42809 0.9826 0.85239 0.0
H841 H 0.45162 0.98218 0.83361 0.0
H842 H 0.46492 0.01353 0.90092 0.0
H843 H 0.48884 0.0151 0.88065 0.0
H844 H 0.46175 0.03207 0.80268 0.0
H845 H 0.48123 0.02758 0.82489 0.0
H846 H 0.45086 0.98529 0.76695 0.0
H847 H 0.47075 0.98128 0.78882 0.0
N848 N 0.50239 0.00032 0.81293 0.0
N849 N 0.49953 0.99847 0.85438 0.0
C850 C 0.98414 0.54331 0.79613 0.0
C851 C 0.99619 0.55267 0.78029 0.0
C852 C 0.98649 0.53184 0.8086 0.0
C853 C 0.00095 0.52953 0.80553 0.0
C854 C 0.01052 0.55011 0.77712 0.0
C855 C 0.01278 0.53854 0.78951 0.0
C856 C 0.00344 0.51728 0.81852 0.0
C857 C 0.01418 0.56352 0.86005 0.0
C858 C 0.00245 0.55896 0.87669 0.0
C859 C 0.01418 0.55021 0.84785 0.0
C860 C 0.00235 0.5321 0.85194 0.0
C861 C 0.99046 0.54081 0.88054 0.0
C862 C 0.99051 0.52752 0.86837 0.0
C863 C 0.00309 0.51789 0.84014 0.0
C864 C 0.01922 0.46039 0.8627 0.0
C865 C 0.00852 0.45397 0.88033 0.0
C866 C 0.01886 0.47313 0.85038 0.0
C867 C 0.00716 0.47916 0.85474 0.0
C868 C 0.99762 0.4609 0.8853 0.0
C869 C 0.99684 0.47317 0.8726 0.0
C870 C 0.00592 0.49217 0.84147 0.0
C871 C 0.99485 0.44622 0.7992 0.0
C872 C 0.00897 0.45063 0.78563 0.0
C873 C 0.99395 0.45955 0.8103 0.0
C874 C 0.00711 0.47753 0.80798 0.0
C875 C 0.02206 0.46873 0.78331 0.0
C876 C 0.02102 0.48206 0.79422 0.0
C877 C 0.0064 0.49168 0.81978 0.0
H878 H 0.97276 0.54465 0.79876 0.0
H879 H 0.9769 0.52465 0.82051 0.0
H880 H 0.0202 0.55726 0.76527 0.0
H881 H 0.02396 0.53686 0.78679 0.0
H882 H 0.0238 0.57736 0.8569 0.0
H883 H 0.02379 0.55408 0.83561 0.0
H884 H 0.98112 0.53687 0.89309 0.0
H885 H 0.98132 0.51363 0.87185 0.0
H886 H 0.02778 0.45547 0.85815 0.0
H887 H 0.02779 0.4782 0.83746 0.0
H888 H 0.98965 0.45693 0.89908 0.0
H889 H 0.98801 0.4779 0.87671 0.0
H890 H 0.98431 0.43248 0.80103 0.0
H891 H 0.98296 0.45584 0.82063 0.0
H892 H 0.03323 0.47262 0.77322 0.0
H893 H 0.03128 0.4959 0.79224 0.0
N894 N 0.00524 0.50428 0.80916 0.0
N895 N 0.00422 0.50527 0.85074 0.0
C896 C 0.53651 0.57442 0.79456 0.0
C897 C 0.54618 0.56872 0.78287 0.0
C898 C 0.52176 0.56215 0.80577 0.0
C899 C 0.51634 0.54395 0.80526 0.0
C900 C 0.54076 0.55051 0.78242 0.0
C901 C 0.52583 0.53819 0.79335 0.0
C902 C 0.50073 0.53089 0.81699 0.0
C903 C 0.54354 0.55845 0.86469 0.0
C904 C 0.54142 0.57071 0.8767 0.0
C905 C 0.52999 0.54637 0.85173 0.0
C906 C 0.51405 0.54621 0.85083 0.0
C907 C 0.52562 0.57082 0.87545 0.0
C908 C 0.51192 0.55847 0.86278 0.0
C909 C 0.4993 0.53254 0.83835 0.0
C910 C 0.43852 0.46033 0.85945 0.0
C911 C 0.43036 0.46472 0.87514 0.0
C912 C 0.45169 0.47364 0.84742 0.0
C913 C 0.45663 0.4916 0.85038 0.0
C914 C 0.43551 0.48271 0.87842 0.0
C915 C 0.44853 0.49605 0.86611 0.0
C916 C 0.47109 0.50581 0.83807 0.0
C917 C 0.42726 0.47112 0.7951 0.0
C918 C 0.431 0.45967 0.7837 0.0
C919 C 0.44078 0.48598 0.80543 0.0
C920 C 0.45824 0.48968 0.8043 0.0
C921 C 0.44853 0.46367 0.78215 0.0
C922 C 0.46208 0.47869 0.79219 0.0
C923 C 0.47236 0.50438 0.81656 0.0
H924 H 0.54046 0.5884 0.79515 0.0
H925 H 0.51449 0.56682 0.81471 0.0
H926 H 0.54794 0.54579 0.77336 0.0
H927 H 0.5218 0.5242 0.79272 0.0
H928 H 0.55563 0.55814 0.86549 0.0
H929 H 0.53177 0.53683 0.84279 0.0
H930 H 0.52369 0.58008 0.88474 0.0
H931 H 0.49964 0.55843 0.86235 0.0
H932 H 0.43517 0.44664 0.85698 0.0
H933 H 0.45829 0.46988 0.83613 0.0
H934 H 0.4295 0.48644 0.89055 0.0
H935 H 0.45234 0.50984 0.86892 0.0
H936 H 0.41383 0.4683 0.79645 0.0
H937 H 0.4376 0.49443 0.81456 0.0
H938 H 0.45174 0.45514 0.7732 0.0
H939 H 0.47548 0.48136 0.79111 0.0
N940 N 0.48722 0.51685 0.80683 0.0
N941 N 0.48456 0.51995 0.84814 0.0
C942 C 0.66273 0.7788 0.49327 0.0
C943 C 0.64923 0.76923 0.47885 0.0
C944 C 0.66309 0.79248 0.50512 0.0
C945 C 0.64972 0.79656 0.50309 0.0
C946 C 0.63583 0.77325 0.47693 0.0
C947 C 0.6361 0.7868 0.4889 0.0
C948 C 0.65055 0.81188 0.51428 0.0
C949 C 0.64591 0.77372 0.56291 0.0
C950 C 0.66186 0.78018 0.57358 0.0
C951 C 0.64334 0.78509 0.55053 0.0
C952 C 0.65662 0.80313 0.54882 0.0
C953 C 0.67506 0.79827 0.57197 0.0
C954 C 0.67236 0.8097 0.55989 0.0
C955 C 0.65422 0.81522 0.53549 0.0
C956 C 0.63868 0.87336 0.55246 0.0
C957 C 0.65346 0.88575 0.56391 0.0
C958 C 0.63858 0.85908 0.54238 0.0
C959 C 0.65319 0.85686 0.54377 0.0
C960 C 0.66808 0.88353 0.56528 0.0
C961 C 0.66786 0.86906 0.55546 0.0
C962 C 0.65304 0.84175 0.53309 0.0
C963 C 0.66589 0.88187 0.484 0.0
C964 C 0.65107 0.87795 0.47227 0.0
C965 C 0.66533 0.86913 0.49709 0.0
C966 C 0.65002 0.85217 0.49841 0.0
C967 C 0.63566 0.86106 0.47375 0.0
C968 C 0.63522 0.84814 0.48656 0.0
C969 C 0.64986 0.83869 0.51188 0.0
H970 H 0.67338 0.77618 0.4948 0.0
H971 H 0.67413 0.80023 0.51534 0.0
H972 H 0.6252 0.76601 0.46601 0.0
H973 H 0.62573 0.78979 0.48693 0.0
H974 H 0.63556 0.75981 0.56388 0.0
H975 H 0.63102 0.77981 0.54228 0.0
H976 H 0.68741 0.80357 0.58017 0.0
H977 H 0.68272 0.8236 0.55882 0.0
H978 H 0.62726 0.8748 0.55121 0.0
H979 H 0.62704 0.84966 0.53362 0.0
H980 H 0.67955 0.89283 0.57423 0.0
H981 H 0.67922 0.86752 0.55676 0.0
H982 H 0.6779 0.89482 0.48306 0.0
H983 H 0.67694 0.87243 0.50598 0.0
H984 H 0.62412 0.85779 0.46471 0.0
H985 H 0.62332 0.83509 0.48736 0.0
N986 N 0.64857 0.8238 0.50325 0.0
N987 N 0.65531 0.83004 0.54414 0.0
C988 C 0.12898 0.76772 0.49356 0.0
C989 C 0.12099 0.77298 0.47899 0.0
C990 C 0.14294 0.78049 0.5056 0.0
C991 C 0.14904 0.79874 0.50345 0.0
C992 C 0.12702 0.79125 0.47703 0.0
C993 C 0.14096 0.80399 0.48906 0.0
C994 C 0.16442 0.81251 0.51527 0.0
C995 C 0.12079 0.78348 0.55991 0.0
C996 C 0.12299 0.77162 0.57206 0.0
C997 C 0.13489 0.79662 0.54869 0.0
C998 C 0.15153 0.79827 0.54936 0.0
C999 C 0.13984 0.7736 0.57308 0.0
C1000 C 0.15402 0.78691 0.56194 0.0
C1001 C 0.16614 0.81172 0.53666 0.0
C1002 C 0.22635 0.88477 0.55685 0.0
C1003 C 0.23776 0.88158 0.56847 0.0
C1004 C 0.21208 0.87081 0.54641 0.0
C1005 C 0.20889 0.85336 0.54731 0.0
C1006 C 0.2343 0.86398 0.56967 0.0
C1007 C 0.2199 0.84997 0.55928 0.0
C1008 C 0.19412 0.83876 0.53563 0.0
C1009 C 0.2358 0.87433 0.49028 0.0
C1010 C 0.23009 0.88245 0.47642 0.0
C1011 C 0.22361 0.86035 0.50258 0.0
C1012 C 0.20552 0.85444 0.50147 0.0
C1013 C 0.21197 0.87635 0.4752 0.0
C1014 C 0.19983 0.86246 0.48752 0.0
C1015 C 0.19229 0.83965 0.51425 0.0
H1016 H 0.12485 0.75378 0.49517 0.0
H1017 H 0.14927 0.77612 0.51618 0.0
H1018 H 0.12102 0.7957 0.46607 0.0
H1019 H 0.14548 0.818 0.48711 0.0
H1020 H 0.10818 0.7827 0.55917 0.0
H1021 H 0.13278 0.80552 0.53939 0.0
H1022 H 0.142 0.76465 0.58217 0.0
H1023 H 0.16679 0.78803 0.5627 0.0
H1024 H 0.22831 0.89804 0.55602 0.0
H1025 H 0.20349 0.87363 0.53759 0.0
H1026 H 0.24285 0.86107 0.57839 0.0
H1027 H 0.21758 0.83656 0.56022 0.0
H1028 H 0.24965 0.87856 0.49134 0.0
H1029 H 0.2283 0.85404 0.51277 0.0
H1030 H 0.20717 0.88247 0.46487 0.0
H1031 H 0.18595 0.8581 0.48634 0.0
N1032 N 0.17748 0.8265 0.50493 0.0
N1033 N 0.181 0.8248 0.54608 0.0
C1034 C 0.23057 0.35185 0.49327 0.0
C1035 C 0.22644 0.34322 0.47392 0.0
C1036 C 0.2175 0.35212 0.5053 0.0
C1037 C 0.19984 0.34315 0.49865 0.0
C1038 C 0.20884 0.33478 0.46709 0.0
C1039 C 0.19574 0.33463 0.47933 0.0
C1040 C 0.18555 0.34322 0.51083 0.0
C1041 C 0.20913 0.32095 0.55386 0.0
C1042 C 0.21759 0.33227 0.57087 0.0
C1043 C 0.19817 0.32383 0.5412 0.0
C1044 C 0.19553 0.33812 0.54525 0.0
C1045 C 0.21473 0.34646 0.57493 0.0
C1046 C 0.20369 0.34924 0.56236 0.0
C1047 C 0.18372 0.34116 0.53231 0.0
C1048 C 0.11057 0.32779 0.54785 0.0
C1049 C 0.11351 0.33731 0.56651 0.0
C1050 C 0.1247 0.32911 0.53654 0.0
C1051 C 0.14216 0.34063 0.54308 0.0
C1052 C 0.13101 0.34809 0.5735 0.0
C1053 C 0.14514 0.3498 0.56186 0.0
C1054 C 0.1574 0.34252 0.53119 0.0
C1055 C 0.12578 0.35615 0.48979 0.0
C1056 C 0.12099 0.34682 0.47084 0.0
C1057 C 0.13882 0.35638 0.50206 0.0
C1058 C 0.1467 0.34648 0.49624 0.0
C1059 C 0.13016 0.33834 0.4643 0.0
C1060 C 0.14262 0.33799 0.47691 0.0
C1061 C 0.15933 0.34488 0.50968 0.0
H1062 H 0.24391 0.35846 0.49919 0.0
H1063 H 0.22133 0.35955 0.51965 0.0
H1064 H 0.20511 0.3285 0.45206 0.0
H1065 H 0.18233 0.32788 0.47358 0.0
H1066 H 0.21078 0.30971 0.55047 0.0
H1067 H 0.19166 0.31482 0.52833 0.0
H1068 H 0.22122 0.35562 0.58767 0.0
H1069 H 0.20173 0.36028 0.56582 0.0
H1070 H 0.09737 0.31943 0.54179 0.0
H1071 H 0.12195 0.32126 0.52255 0.0
H1072 H 0.13389 0.35516 0.58807 0.0
H1073 H 0.15846 0.35839 0.56754 0.0
H1074 H 0.11922 0.36295 0.4955 0.0
H1075 H 0.14237 0.36394 0.51633 0.0
H1076 H 0.12765 0.33176 0.44946 0.0
H1077 H 0.14885 0.33071 0.47163 0.0
N1078 N 0.17327 0.34499 0.50049 0.0
N1079 N 0.16982 0.34102 0.54159 0.0
C1080 C 0.97223 0.36211 0.05955 0.0
C1081 C 0.98763 0.36281 0.05246 0.0
C1082 C 0.97297 0.37387 0.07499 0.0
C1083 C 0.9895 0.38666 0.0835 0.0
C1084 C 0.00496 0.38683 0.07721 0.0
C1085 C 0.00384 0.37488 0.0618 0.0
C1086 C 0.95617 0.37318 0.08144 0.0
C1087 C 0.02282 0.40026 0.08598 0.0
C1088 C 0.99448 0.43035 0.10211 0.0
C1089 C 0.99313 0.42823 0.12343 0.0
C1090 C 0.99342 0.41695 0.08902 0.0
C1091 C 0.99083 0.40095 0.09743 0.0
C1092 C 0.98942 0.39866 0.11893 0.0
C1093 C 0.9906 0.41236 0.1317 0.0
C1094 C 0.99497 0.41988 0.06616 0.0
C1095 C 0.98666 0.38177 0.12841 0.0
H1096 H 0.95961 0.35274 0.05262 0.0
H1097 H 0.01582 0.37549 0.05658 0.0
H1098 H 0.955 0.37292 0.0984 0.0
H1099 H 0.95651 0.38537 0.07623 0.0
H1100 H 0.94422 0.36131 0.07494 0.0
H1101 H 0.03324 0.39746 0.08105 0.0
H1102 H 0.02666 0.41384 0.08088 0.0
H1103 H 0.02231 0.40037 0.10297 0.0
H1104 H 0.99612 0.44244 0.09559 0.0
H1105 H 0.98972 0.41072 0.14818 0.0
H1106 H 0.98275 0.40945 0.05843 0.0
H1107 H 0.00607 0.41871 0.05995 0.0
H1108 H 0.99721 0.43319 0.06212 0.0
H1109 H 0.97434 0.37007 0.1224 0.0
H1110 H 0.98579 0.38207 0.1454 0.0
H1111 H 0.99769 0.37974 0.12412 0.0
C1112 C 0.61684 0.63172 0.0768 0.0
C1113 C 0.63011 0.63377 0.06313 0.0
C1114 C 0.60878 0.61728 0.09018 0.0
C1115 C 0.61422 0.60461 0.09008 0.0
C1116 C 0.62829 0.60713 0.07722 0.0
C1117 C 0.63603 0.62164 0.06381 0.0
C1118 C 0.59377 0.61506 0.10363 0.0
C1119 C 0.63465 0.59406 0.07696 0.0
C1120 C 0.59653 0.57246 0.13455 0.0
C1121 C 0.58123 0.55805 0.12587 0.0
C1122 C 0.60799 0.58741 0.12281 0.0
C1123 C 0.60394 0.58795 0.10199 0.0
C1124 C 0.58899 0.57307 0.09293 0.0
C1125 C 0.57788 0.55828 0.10495 0.0
C1126 C 0.62394 0.60293 0.13293 0.0
C1127 C 0.58421 0.57309 0.07076 0.0
H1128 H 0.6122 0.64104 0.07655 0.0
H1129 H 0.64638 0.62316 0.05347 0.0
H1130 H 0.5813 0.60293 0.0987 0.0
H1131 H 0.59613 0.61318 0.1198 0.0
H1132 H 0.59196 0.62671 0.10294 0.0
H1133 H 0.64713 0.59912 0.06818 0.0
H1134 H 0.63675 0.59116 0.09281 0.0
H1135 H 0.62444 0.58125 0.06983 0.0
H1136 H 0.59917 0.57241 0.15073 0.0
H1137 H 0.5663 0.547 0.09804 0.0
H1138 H 0.6218 0.61433 0.13479 0.0
H1139 H 0.63584 0.60749 0.12321 0.0
H1140 H 0.62655 0.59948 0.14828 0.0
H1141 H 0.58084 0.58355 0.06858 0.0
H1142 H 0.5728 0.56003 0.06572 0.0
H1143 H 0.59564 0.57634 0.06068 0.0
C1144 C 0.37917 0.0109 0.06185 0.0
C1145 C 0.36762 0.99301 0.05601 0.0
C1146 C 0.39291 0.01554 0.07594 0.0
C1147 C 0.39528 0.002 0.08412 0.0
C1148 C 0.38357 0.98395 0.07843 0.0
C1149 C 0.36988 0.97969 0.06462 0.0
C1150 C 0.405 0.0349 0.08191 0.0
C1151 C 0.38569 0.96908 0.08662 0.0
C1152 C 0.43923 0.0103 0.10361 0.0
C1153 C 0.43616 0.00828 0.12479 0.0
C1154 C 0.4264 0.00933 0.09023 0.0
C1155 C 0.41019 0.00644 0.09825 0.0
C1156 C 0.40748 0.00549 0.11974 0.0
C1157 C 0.42044 0.00628 0.13274 0.0
C1158 C 0.42976 0.0102 0.06742 0.0
C1159 C 0.39051 0.0027 0.12894 0.0
H1160 H 0.37753 0.02128 0.05537 0.0
H1161 H 0.36113 0.96582 0.06022 0.0
H1162 H 0.40529 0.03653 0.09884 0.0
H1163 H 0.41868 0.03941 0.07686 0.0
H1164 H 0.40086 0.04372 0.07505 0.0
H1165 H 0.37542 0.95572 0.08071 0.0
H1166 H 0.39886 0.97133 0.0823 0.0
H1167 H 0.38498 0.96901 0.10361 0.0
H1168 H 0.45131 0.01172 0.09738 0.0
H1169 H 0.41814 0.00496 0.14914 0.0
H1170 H 0.42664 0.01967 0.06026 0.0
H1171 H 0.42097 0.99685 0.06033 0.0
H1172 H 0.44366 0.01438 0.06376 0.0
H1173 H 0.38695 0.01196 0.12211 0.0
H1174 H 0.39143 0.00473 0.14585 0.0
H1175 H 0.37961 0.98889 0.12547 0.0
C1176 C 0.36517 0.99542 0.94508 0.0
C1177 C 0.36351 0.98571 0.96266 0.0
C1178 C 0.37749 0.99788 0.92973 0.0
C1179 C 0.38885 0.99112 0.93257 0.0
C1180 C 0.38736 0.98157 0.95053 0.0
C1181 C 0.37448 0.9787 0.96516 0.0
C1182 C 0.37824 0.00752 0.91044 0.0
C1183 C 0.3996 0.97467 0.95451 0.0
C1184 C 0.41256 0.98199 0.88972 0.0
C1185 C 0.42965 0.99716 0.89085 0.0
C1186 C 0.39885 0.98042 0.90226 0.0
C1187 C 0.4024 0.99397 0.91696 0.0
C1188 C 0.41943 0.00947 0.91795 0.0
C1189 C 0.43271 0.01104 0.90461 0.0
C1190 C 0.3807 0.96391 0.90031 0.0
C1191 C 0.42389 0.02403 0.93377 0.0
H1192 H 0.35663 0.0008 0.94321 0.0
H1193 H 0.37335 0.97142 0.97894 0.0
H1194 H 0.39143 0.01977 0.90889 0.0
H1195 H 0.37632 0.99889 0.89684 0.0
H1196 H 0.36804 0.01135 0.91027 0.0
H1197 H 0.39722 0.96825 0.96969 0.0
H1198 H 0.39787 0.96477 0.94247 0.0
H1199 H 0.41355 0.98582 0.95383 0.0
H1200 H 0.40989 0.97097 0.87951 0.0
H1201 H 0.44561 0.02309 0.90529 0.0
H1202 H 0.37043 0.96761 0.90002 0.0
H1203 H 0.37801 0.9553 0.91378 0.0
H1204 H 0.37942 0.95598 0.88623 0.0
H1205 H 0.41454 0.02888 0.93275 0.0
H1206 H 0.43755 0.03558 0.93198 0.0
H1207 H 0.42254 0.01858 0.94936 0.0
C1208 C 0.01055 0.38954 0.96481 0.0
C1209 C 0.0025 0.37193 0.95737 0.0
C1210 C 0.01313 0.40342 0.95198 0.0
C1211 C 0.00809 0.39962 0.93109 0.0
C1212 C 0.00113 0.38202 0.92323 0.0
C1213 C 0.99803 0.36829 0.93661 0.0
C1214 C 0.02001 0.42184 0.96114 0.0
C1215 C 0.99622 0.37754 0.90091 0.0
C1216 C 0.9932 0.42763 0.90381 0.0
C1217 C 0.00858 0.44006 0.89336 0.0
C1218 C 0.99303 0.41471 0.91641 0.0
C1219 C 0.00838 0.41358 0.91802 0.0
C1220 C 0.02383 0.42571 0.90721 0.0
C1221 C 0.02386 0.439 0.89536 0.0
C1222 C 0.97637 0.40228 0.92806 0.0
C1223 C 0.0403 0.42458 0.90806 0.0
H1224 H 0.01372 0.39224 0.98098 0.0
H1225 H 0.99177 0.35462 0.93094 0.0
H1226 H 0.0311 0.43206 0.95187 0.0
H1227 H 0.00937 0.42503 0.96101 0.0
H1228 H 0.02459 0.4229 0.97719 0.0
H1229 H 0.99353 0.36399 0.89667 0.0
H1230 H 0.98421 0.37809 0.89767 0.0
H1231 H 0.00695 0.38745 0.89097 0.0
H1232 H 0.98113 0.42782 0.90207 0.0
H1233 H 0.03596 0.44862 0.88778 0.0
H1234 H 0.97933 0.4028 0.94463 0.0
H1235 H 0.97105 0.38832 0.92263 0.0
H1236 H 0.96595 0.40567 0.9262 0.0
H1237 H 0.0454 0.42702 0.92398 0.0
H1238 H 0.05091 0.4344 0.89789 0.0
H1239 H 0.03715 0.41096 0.90346 0.0
C1240 C 0.59677 0.63205 0.97045 0.0
C1241 C 0.61494 0.63855 0.96938 0.0
C1242 C 0.58536 0.62112 0.9548 0.0
C1243 C 0.59235 0.61695 0.93741 0.0
C1244 C 0.61074 0.62371 0.93607 0.0
C1245 C 0.62181 0.63426 0.95223 0.0
C1246 C 0.56577 0.61382 0.95702 0.0
C1247 C 0.6187 0.61986 0.91755 0.0
C1248 C 0.56062 0.57548 0.9067 0.0
C1249 C 0.55527 0.5827 0.89138 0.0
C1250 C 0.57291 0.58652 0.92163 0.0
C1251 C 0.58028 0.60523 0.92087 0.0
C1252 C 0.57535 0.61262 0.90496 0.0
C1253 C 0.56268 0.60121 0.89054 0.0
C1254 C 0.57752 0.5781 0.93861 0.0
C1255 C 0.58323 0.63253 0.9034 0.0
H1256 H 0.59138 0.6352 0.98377 0.0
H1257 H 0.63588 0.63938 0.95129 0.0
H1258 H 0.561 0.61835 0.94416 0.0
H1259 H 0.55849 0.59901 0.9563 0.0
H1260 H 0.56244 0.61809 0.97167 0.0
H1261 H 0.63332 0.62666 0.91856 0.0
H1262 H 0.61321 0.60527 0.9159 0.0
H1263 H 0.6152 0.62427 0.90346 0.0
H1264 H 0.55473 0.56111 0.90736 0.0
H1265 H 0.55856 0.60672 0.87856 0.0
H1266 H 0.57345 0.58106 0.95359 0.0
H1267 H 0.592 0.58386 0.93922 0.0
H1268 H 0.57098 0.56338 0.93665 0.0
H1269 H 0.57911 0.63754 0.91679 0.0
H1270 H 0.57908 0.6362 0.88919 0.0
H1271 H 0.59786 0.63948 0.90366 0.0
C1272 C 0.99682 0.62798 0.95459 0.0
C1273 C 0.01363 0.6399 0.96271 0.0
C1274 C 0.99444 0.61547 0.93925 0.0
C1275 C 0.00922 0.61485 0.93182 0.0
C1276 C 0.02631 0.62732 0.93928 0.0
C1277 C 0.02831 0.63968 0.95462 0.0
C1278 C 0.97602 0.60242 0.93161 0.0
C1279 C 0.04241 0.62713 0.93164 0.0
C1280 C 0.00243 0.57072 0.91192 0.0
C1281 C 0.00338 0.57305 0.89064 0.0
C1282 C 0.00402 0.58412 0.92543 0.0
C1283 C 0.00671 0.60031 0.91749 0.0
C1284 C 0.00747 0.6027 0.89602 0.0
C1285 C 0.00579 0.58902 0.88283 0.0
C1286 C 0.00315 0.58107 0.94825 0.0
C1287 C 0.01027 0.61977 0.88702 0.0
H1288 H 0.98538 0.62808 0.96059 0.0
H1289 H 0.04138 0.64888 0.96064 0.0
H1290 H 0.97568 0.60224 0.91461 0.0
H1291 H 0.97203 0.58874 0.9365 0.0
H1292 H 0.96617 0.60568 0.93756 0.0
H1293 H 0.05488 0.63858 0.9378 0.0
H1294 H 0.04157 0.61456 0.93627 0.0
H1295 H 0.04297 0.6275 0.91465 0.0
H1296 H 0.00087 0.55855 0.91808 0.0
H1297 H 0.00634 0.59082 0.86639 0.0
H1298 H 0.99267 0.58286 0.95529 0.0
H1299 H 0.01584 0.59108 0.95549 0.0
H1300 H 0.00042 0.56751 0.9519 0.0
H1301 H 0.99992 0.62241 0.89263 0.0
H1302 H 0.01002 0.61931 0.86999 0.0
H1303 H 0.02319 0.63119 0.89213 0.0
C1304 C 0.36506 0.38602 0.95184 0.0
C1305 C 0.3732 0.37597 0.95422 0.0
C1306 C 0.37218 0.40064 0.93857 0.0
C1307 C 0.38792 0.40543 0.92768 0.0
C1308 C 0.39597 0.39513 0.92971 0.0
C1309 C 0.38847 0.38048 0.94281 0.0
C1310 C 0.36308 0.41116 0.93649 0.0
C1311 C 0.41285 0.39986 0.91848 0.0
C1312 C 0.40391 0.43437 0.88059 0.0
C1313 C 0.41749 0.45056 0.88884 0.0
C1314 C 0.39327 0.41987 0.89327 0.0
C1315 C 0.3965 0.42155 0.91464 0.0
C1316 C 0.40955 0.43819 0.92315 0.0
C1317 C 0.41984 0.45254 0.91013 0.0
C1318 C 0.37927 0.40246 0.88365 0.0
C1319 C 0.41352 0.44048 0.94583 0.0
H1320 H 0.35322 0.3826 0.96049 0.0
H1321 H 0.39492 0.37288 0.94453 0.0
H1322 H 0.37173 0.42493 0.94259 0.0
H1323 H 0.36064 0.41228 0.92008 0.0
H1324 H 0.35029 0.40497 0.94484 0.0
H1325 H 0.41732 0.39034 0.92154 0.0
H1326 H 0.41096 0.40001 0.90172 0.0
H1327 H 0.4235 0.41346 0.92316 0.0
H1328 H 0.40197 0.4329 0.86412 0.0
H1329 H 0.43041 0.46501 0.91651 0.0
H1330 H 0.36673 0.39684 0.89238 0.0
H1331 H 0.3836 0.3926 0.88408 0.0
H1332 H 0.3767 0.40408 0.86743 0.0
H1333 H 0.40118 0.43538 0.95485 0.0
H1334 H 0.42273 0.45467 0.95027 0.0
H1335 H 0.41959 0.43258 0.95009 0.0
C1336 C 0.62107 0.99059 0.95836 0.0
C1337 C 0.63492 0.00837 0.96083 0.0
C1338 C 0.60708 0.98609 0.94474 0.0
C1339 C 0.60691 -0.00031 0.93345 0.0
C1340 C 0.62125 0.01749 0.93516 0.0
C1341 C 0.63507 0.02158 0.94872 0.0
C1342 C 0.59213 0.96692 0.94309 0.0
C1343 C 0.62161 0.03241 0.92338 0.0
C1344 C 0.57702 0.99116 0.88784 0.0
C1345 C 0.56388 0.99364 0.89674 0.0
C1346 C 0.59064 0.99212 0.89978 0.0
C1347 C 0.59122 0.99581 0.92107 0.0
C1348 C 0.5776 0.99756 0.93027 0.0
C1349 C 0.56406 0.99636 0.91802 0.0
C1350 C 0.60483 0.98999 0.88945 0.0
C1351 C 0.57773 0.00153 0.95292 0.0
H1352 H 0.62083 0.98026 0.96754 0.0
H1353 H 0.64576 0.03534 0.95028 0.0
H1354 H 0.58004 0.96564 0.9501 0.0
H1355 H 0.5891 0.96271 0.92677 0.0
H1356 H 0.5952 0.95767 0.95095 0.0
H1357 H 0.63421 0.04533 0.9255 0.0
H1358 H 0.6197 0.02903 0.90678 0.0
H1359 H 0.61059 0.03417 0.92857 0.0
H1360 H 0.57708 0.98916 0.8714 0.0
H1361 H 0.55375 0.99787 0.92509 0.0
H1362 H 0.60732 0.98071 0.89815 0.0
H1363 H 0.61736 0.00309 0.88919 0.0
H1364 H 0.60128 0.9849 0.87343 0.0
H1365 H 0.57904 0.99165 0.96198 0.0
H1366 H 0.56557 0.00132 0.95792 0.0
H1367 H 0.58929 0.01491 0.95657 0.0
C1368 C 0.6234 0.99824 0.06077 0.0
C1369 C 0.63771 0.01539 0.05662 0.0
C1370 C 0.61027 0.99574 0.07493 0.0
C1371 C 0.61159 0.01071 0.0854 0.0
C1372 C 0.62644 0.02793 0.08207 0.0
C1373 C 0.63926 0.03008 0.06763 0.0
C1374 C 0.59458 0.97718 0.07794 0.0
C1375 C 0.62846 0.04419 0.09319 0.0
C1376 C 0.56939 0.00858 0.10264 0.0
C1377 C 0.5689 0.00498 0.12356 0.0
C1378 C 0.58313 0.01028 0.09005 0.0
C1379 C 0.59682 0.00856 0.09864 0.0
C1380 C 0.59639 0.00491 0.11977 0.0
C1381 C 0.58235 0.00304 0.13197 0.0
C1382 C 0.58297 0.01393 0.06753 0.0
C1383 C 0.61087 0.0032 0.12952 0.0
H1384 H 0.62204 0.98679 0.05234 0.0
H1385 H 0.65034 0.04336 0.06469 0.0
H1386 H 0.59249 0.97399 0.09449 0.0
H1387 H 0.58248 0.97651 0.07215 0.0
H1388 H 0.59615 0.9668 0.0698 0.0
H1389 H 0.64152 0.05634 0.09032 0.0
H1390 H 0.618 0.04671 0.08811 0.0
H1391 H 0.62681 0.04189 0.10994 0.0
H1392 H 0.55889 0.00987 0.09607 0.0
H1393 H 0.58206 0.00041 0.14819 0.0
H1394 H 0.58323 0.00334 0.05815 0.0
H1395 H 0.59495 0.0268 0.0636 0.0
H1396 H 0.57115 0.01451 0.06318 0.0
H1397 H 0.61194 0.9924 0.12176 0.0
H1398 H 0.60853 0.00026 0.14613 0.0
H1399 H 0.62374 0.01577 0.1276 0.0
C1400 C 0.01838 0.63658 0.07212 0.0
C1401 C 0.00545 0.63595 0.05918 0.0
C1402 C 0.01445 0.62254 0.08536 0.0
C1403 C 0.99712 0.60748 0.08583 0.0
C1404 C 0.98375 0.60715 0.0737 0.0
C1405 C 0.98807 0.62139 0.06048 0.0
C1406 C 0.0291 0.62347 0.09808 0.0
C1407 C 0.96507 0.5914 0.07398 0.0
C1408 C 0.99505 0.56461 0.10038 0.0
C1409 C 0.99111 0.56359 0.12138 0.0
C1410 C 0.99636 0.57846 0.08849 0.0
C1411 C 0.99354 0.59157 0.09775 0.0
C1412 C 0.98881 0.59021 0.11873 0.0
C1413 C 0.98771 0.57626 0.13032 0.0
C1414 C 0.00142 0.57941 0.06616 0.0
C1415 C 0.9856 0.60386 0.12912 0.0
H1416 H 0.03181 0.64782 0.07147 0.0
H1417 H 0.97796 0.62077 0.05063 0.0
H1418 H 0.02508 0.62092 0.11441 0.0
H1419 H 0.03178 0.61294 0.0928 0.0
H1420 H 0.04154 0.63663 0.09703 0.0
H1421 H 0.95582 0.59407 0.06556 0.0
H1422 H 0.9647 0.57961 0.06679 0.0
H1423 H 0.96033 0.58785 0.08999 0.0
H1424 H 0.99732 0.55467 0.09326 0.0
H1425 H 0.98479 0.57566 0.14656 0.0
H1426 H 0.01449 0.59161 0.06361 0.0
H1427 H 0.99173 0.58038 0.05642 0.0
H1428 H 0.00214 0.56761 0.061 0.0
H1429 H 0.9982 0.61687 0.1302 0.0
H1430 H 0.98014 0.59983 0.14482 0.0
H1431 H 0.97633 0.60597 0.11996 0.0
C1432 C 0.37685 0.36785 0.06671 0.0
C1433 C 0.38486 0.36875 0.04778 0.0
C1434 C 0.38702 0.37785 0.08368 0.0
C1435 C 0.40547 0.38948 0.08131 0.0
C1436 C 0.4135 0.39069 0.06203 0.0
C1437 C 0.40312 0.38003 0.04559 0.0
C1438 C 0.37813 0.37573 0.10419 0.0
C1439 C 0.43302 0.40336 0.05869 0.0
C1440 C 0.43128 0.42888 0.1175 0.0
C1441 C 0.44162 0.42369 0.12816 0.0
C1442 C 0.41907 0.41768 0.1026 0.0
C1443 C 0.41654 0.40052 0.09884 0.0
C1444 C 0.42589 0.39463 0.11059 0.0
C1445 C 0.43854 0.40637 0.12483 0.0
C1446 C 0.40962 0.42461 0.0901 0.0
C1447 C 0.42313 0.37619 0.10749 0.0
H1448 H 0.36271 0.35896 0.06835 0.0
H1449 H 0.40923 0.38078 0.03084 0.0
H1450 H 0.38413 0.37122 0.11569 0.0
H1451 H 0.38021 0.38875 0.10972 0.0
H1452 H 0.36371 0.36593 0.1035 0.0
H1453 H 0.43701 0.40333 0.04248 0.0
H1454 H 0.43665 0.41716 0.06313 0.0
H1455 H 0.44074 0.39962 0.06854 0.0
H1456 H 0.43303 0.44195 0.12037 0.0
H1457 H 0.44645 0.40214 0.13272 0.0
H1458 H 0.39516 0.41512 0.09041 0.0
H1459 H 0.41392 0.42583 0.07386 0.0
H1460 H 0.41232 0.43788 0.09568 0.0
H1461 H 0.40882 0.366 0.10692 0.0
H1462 H 0.42933 0.3727 0.11986 0.0
H1463 H 0.42898 0.37549 0.09263 0.0
C1464 C 0.63472 0.69062 0.40244 0.0
C1465 C 0.65035 0.6947 0.39212 0.0
C1466 C 0.63478 0.70165 0.41836 0.0
C1467 C 0.65082 0.71725 0.42397 0.0
C1468 C 0.66678 0.72096 0.41438 0.0
C1469 C 0.66637 0.70958 0.39864 0.0
C1470 C 0.61752 0.69709 0.42845 0.0
C1471 C 0.68415 0.73752 0.41987 0.0
C1472 C 0.6472 0.75627 0.4439 0.0
C1473 C 0.64962 0.75579 0.46502 0.0
C1474 C 0.64773 0.74389 0.43042 0.0
C1475 C 0.65059 0.73058 0.43827 0.0
C1476 C 0.65303 0.73 0.4596 0.0
C1477 C 0.65263 0.74272 0.47274 0.0
C1478 C 0.64527 0.74508 0.40774 0.0
C1479 C 0.6559 0.71588 0.46853 0.0
H1480 H 0.6223 0.67903 0.3977 0.0
H1481 H 0.67853 0.71285 0.3908 0.0
H1482 H 0.61888 0.69791 0.44538 0.0
H1483 H 0.61381 0.70691 0.42391 0.0
H1484 H 0.60661 0.68351 0.42405 0.0
H1485 H 0.69556 0.73753 0.41254 0.0
H1486 H 0.68402 0.74951 0.41483 0.0
H1487 H 0.68609 0.73872 0.43672 0.0
H1488 H 0.64514 0.76654 0.43786 0.0
H1489 H 0.65441 0.74229 0.48909 0.0
H1490 H 0.63353 0.73255 0.40215 0.0
H1491 H 0.65688 0.74668 0.39914 0.0
H1492 H 0.6435 0.75644 0.4041 0.0
H1493 H 0.64446 0.70242 0.46488 0.0
H1494 H 0.65767 0.71732 0.48543 0.0
H1495 H 0.66774 0.7166 0.46152 0.0
C1496 C 0.2997 0.95648 0.39894 0.0
C1497 C 0.29578 0.97009 0.39743 0.0
C1498 C 0.29065 0.94249 0.41285 0.0
C1499 C 0.27734 0.94208 0.4255 0.0
C1500 C 0.27387 0.95616 0.42471 0.0
C1501 C 0.28313 0.96999 0.41073 0.0
C1502 C 0.29482 0.92778 0.41337 0.0
C1503 C 0.2598 0.95623 0.438 0.0
C1504 C 0.23886 0.89753 0.44249 0.0
C1505 C 0.24287 0.89721 0.46316 0.0
C1506 C 0.2502 0.91186 0.42998 0.0
C1507 C 0.26599 0.92624 0.43831 0.0
C1508 C 0.2704 0.92577 0.45901 0.0
C1509 C 0.25877 0.91125 0.47121 0.0
C1510 C 0.24506 0.91179 0.40795 0.0
C1511 C 0.28713 0.94084 0.46842 0.0
H1512 H 0.30951 0.95645 0.38887 0.0
H1513 H 0.28006 0.98047 0.40985 0.0
H1514 H 0.29704 0.92532 0.42938 0.0
H1515 H 0.28342 0.91519 0.40732 0.0
H1516 H 0.30667 0.93094 0.40409 0.0
H1517 H 0.25963 0.96879 0.43667 0.0
H1518 H 0.24663 0.94487 0.43347 0.0
H1519 H 0.26188 0.95443 0.45431 0.0
H1520 H 0.22675 0.88657 0.43609 0.0
H1521 H 0.26188 0.91113 0.48721 0.0
H1522 H 0.25576 0.91339 0.39751 0.0
H1523 H 0.24321 0.92325 0.40544 0.0
H1524 H 0.23267 0.89928 0.40363 0.0
H1525 H 0.29871 0.94357 0.4589 0.0
H1526 H 0.28924 0.93787 0.48426 0.0
H1527 H 0.28653 0.95322 0.46887 0.0
C1528 C 0.03278 0.32631 0.41244 0.0
C1529 C 0.03676 0.33295 0.3925 0.0
C1530 C 0.04631 0.33049 0.42659 0.0
C1531 C 0.06418 0.34086 0.4203 0.0
C1532 C 0.0682 0.34802 0.40032 0.0
C1533 C 0.05441 0.34424 0.38679 0.0
C1534 C 0.04146 0.32321 0.448 0.0
C1535 C 0.08702 0.35858 0.39272 0.0
C1536 C 0.10226 0.35907 0.45837 0.0
C1537 C 0.10629 0.34544 0.45813 0.0
C1538 C 0.08827 0.35758 0.44663 0.0
C1539 C 0.07851 0.34246 0.43367 0.0
C1540 C 0.08257 0.32877 0.43317 0.0
C1541 C 0.09603 0.33022 0.44572 0.0
C1542 C 0.08393 0.37216 0.4481 0.0
C1543 C 0.07278 0.31259 0.4192 0.0
H1544 H 0.01909 0.31765 0.41686 0.0
H1545 H 0.05746 0.3492 0.37126 0.0
H1546 H 0.04418 0.31225 0.44976 0.0
H1547 H 0.04959 0.33375 0.45951 0.0
H1548 H 0.02728 0.3179 0.45145 0.0
H1549 H 0.08798 0.36429 0.37734 0.0
H1550 H 0.09534 0.36963 0.40358 0.0
H1551 H 0.0926 0.34975 0.39176 0.0
H1552 H 0.11008 0.37103 0.46757 0.0
H1553 H 0.0984 0.31924 0.4458 0.0
H1554 H 0.0697 0.36633 0.45163 0.0
H1555 H 0.08648 0.37895 0.43318 0.0
H1556 H 0.09182 0.38233 0.46009 0.0
H1557 H 0.05866 0.30476 0.42367 0.0
H1558 H 0.07829 0.3037 0.41969 0.0
H1559 H 0.07336 0.31686 0.40314 0.0
C1560 C 0.03032 0.30406 0.28784 0.0
C1561 C 0.03213 0.31982 0.2963 0.0
C1562 C 0.04192 0.30463 0.27263 0.0
C1563 C 0.05573 0.32136 0.26574 0.0
C1564 C 0.05721 0.3373 0.27355 0.0
C1565 C 0.04537 0.33634 0.28871 0.0
C1566 C 0.03982 0.28733 0.26455 0.0
C1567 C 0.07178 0.35538 0.26657 0.0
C1568 C 0.09724 0.32308 0.2467 0.0
C1569 C 0.09542 0.32302 0.22537 0.0
C1570 C 0.08447 0.3227 0.25996 0.0
C1571 C 0.06946 0.32216 0.25169 0.0
C1572 C 0.0675 0.32207 0.23017 0.0
C1573 C 0.08052 0.32249 0.21724 0.0
C1574 C 0.08701 0.32273 0.28283 0.0
C1575 C 0.05164 0.32149 0.22083 0.0
H1576 H 0.02004 0.29122 0.29342 0.0
H1577 H 0.04687 0.3486 0.29506 0.0
H1578 H 0.03965 0.28704 0.24754 0.0
H1579 H 0.05125 0.28629 0.26942 0.0
H1580 H 0.02753 0.27546 0.27017 0.0
H1581 H 0.0702 0.36641 0.27277 0.0
H1582 H 0.08472 0.35763 0.2717 0.0
H1583 H 0.07214 0.35595 0.24959 0.0
H1584 H 0.10856 0.32317 0.25308 0.0
H1585 H 0.07913 0.3226 0.20076 0.0
H1586 H 0.07592 0.3104 0.28951 0.0
H1587 H 0.08691 0.33423 0.29018 0.0
H1588 H 0.09959 0.32351 0.28677 0.0
H1589 H 0.03937 0.30928 0.22575 0.0
H1590 H 0.05215 0.3216 0.20381 0.0
H1591 H 0.05081 0.33312 0.22635 0.0
C1592 C 0.67964 0.71325 0.28495 0.0
C1593 C 0.66527 0.70864 0.298 0.0
C1594 C 0.6848 0.72676 0.27038 0.0
C1595 C 0.6757 0.73615 0.26939 0.0
C1596 C 0.66165 0.73197 0.28317 0.0
C1597 C 0.65644 0.71809 0.29707 0.0
C1598 C 0.69955 0.73054 0.2556 0.0
C1599 C 0.6519 0.74198 0.28304 0.0
C1600 C 0.69467 0.78104 0.24361 0.0
C1601 C 0.68412 0.7762 0.22605 0.0
C1602 C 0.69269 0.76803 0.25751 0.0
C1603 C 0.6801 0.7498 0.25343 0.0
C1604 C 0.67022 0.74484 0.235 0.0
C1605 C 0.67218 0.75815 0.22166 0.0
C1606 C 0.70323 0.7739 0.27714 0.0
C1607 C 0.65696 0.72555 0.22985 0.0
H1608 H 0.6864 0.70586 0.28563 0.0
H1609 H 0.64546 0.71467 0.30736 0.0
H1610 H 0.69427 0.72723 0.23974 0.0
H1611 H 0.70979 0.74495 0.25603 0.0
H1612 H 0.70587 0.7227 0.25903 0.0
H1613 H 0.64221 0.738 0.29579 0.0
H1614 H 0.66139 0.75657 0.28429 0.0
H1615 H 0.64473 0.73941 0.26833 0.0
H1616 H 0.70383 0.79506 0.24696 0.0
H1617 H 0.66412 0.7545 0.20796 0.0
H1618 H 0.70941 0.76583 0.27983 0.0
H1619 H 0.69426 0.7717 0.29026 0.0
H1620 H 0.71373 0.78825 0.277 0.0
H1621 H 0.66287 0.71715 0.23199 0.0
H1622 H 0.65208 0.72376 0.21384 0.0
H1623 H 0.64548 0.72057 0.24037 0.0
C1624 C 0.27445 0.97815 0.29399 0.0
C1625 C 0.2883 0.97607 0.30084 0.0
C1626 C 0.26282 0.96693 0.27867 0.0
C1627 C 0.26508 0.9533 0.26994 0.0
C1628 C 0.27945 0.9516 0.27609 0.0
C1629 C 0.2909 0.96301 0.29148 0.0
C1630 C 0.24766 0.96918 0.27246 0.0
C1631 C 0.2823 0.93725 0.26703 0.0
C1632 C 0.22379 0.91195 0.25035 0.0
C1633 C 0.22513 0.91469 0.22914 0.0
C1634 C 0.2368 0.92436 0.26373 0.0
C1635 C 0.25152 0.93991 0.2557 0.0
C1636 C 0.25299 0.94278 0.23431 0.0
C1637 C 0.23972 0.93013 0.22125 0.0
C1638 C 0.2347 0.92089 0.28648 0.0
C1639 C 0.26854 0.9592 0.22524 0.0
H1640 H 0.27237 0.98827 0.30096 0.0
H1641 H 0.30161 0.96134 0.29653 0.0
H1642 H 0.24726 0.97003 0.25555 0.0
H1643 H 0.23499 0.95735 0.27725 0.0
H1644 H 0.24858 0.98131 0.27949 0.0
H1645 H 0.29499 0.93875 0.27205 0.0
H1646 H 0.27136 0.92393 0.27176 0.0
H1647 H 0.28217 0.93752 0.25004 0.0
H1648 H 0.2124 0.90017 0.25653 0.0
H1649 H 0.24087 0.93219 0.20484 0.0
H1650 H 0.23407 0.9318 0.29465 0.0
H1651 H 0.24632 0.92074 0.29251 0.0
H1652 H 0.2226 0.90799 0.29019 0.0
H1653 H 0.26916 0.97138 0.23156 0.0
H1654 H 0.26783 0.95932 0.20826 0.0
H1655 H 0.28102 0.95994 0.22954 0.0
C1656 C 0.69379 0.97108 0.28809 0.0
C1657 C 0.67842 0.97008 0.29583 0.0
C1658 C 0.69293 0.95951 0.27237 0.0
C1659 C 0.67631 0.9466 0.26416 0.0
C1660 C 0.66084 0.94609 0.27114 0.0
C1661 C 0.66208 0.95784 0.28689 0.0
C1662 C 0.70974 0.96053 0.26524 0.0
C1663 C 0.64289 0.93255 0.26268 0.0
C1664 C 0.67606 0.92237 0.21506 0.0
C1665 C 0.67438 0.90668 0.22278 0.0
C1666 C 0.67638 0.9354 0.22829 0.0
C1667 C 0.67502 0.93264 0.24971 0.0
C1668 C 0.67304 0.91671 0.25754 0.0
C1669 C 0.67278 0.90395 0.24399 0.0
C1670 C 0.67845 0.95221 0.21941 0.0
C1671 C 0.67161 0.9133 0.28031 0.0
H1672 H 0.70651 0.98057 0.29472 0.0
H1673 H 0.65012 0.957 0.29263 0.0
H1674 H 0.7096 0.94828 0.26982 0.0
H1675 H 0.71071 0.96118 0.24827 0.0
H1676 H 0.72171 0.97231 0.27183 0.0
H1677 H 0.63243 0.93511 0.26816 0.0
H1678 H 0.6431 0.93263 0.24568 0.0
H1679 H 0.63934 0.91897 0.26745 0.0
H1680 H 0.67713 0.92447 0.19865 0.0
H1681 H 0.67178 0.89201 0.25009 0.0
H1682 H 0.69094 0.96398 0.22496 0.0
H1683 H 0.6675 0.95405 0.22468 0.0
H1684 H 0.67863 0.95199 0.20238 0.0
H1685 H 0.68385 0.92364 0.28809 0.0
H1686 H 0.66952 0.89995 0.28384 0.0
H1687 H 0.66049 0.91425 0.28689 0.0
C1688 C 0.056 0.70764 0.2825 0.0
C1689 C 0.04206 0.70501 0.29538 0.0
C1690 C 0.06383 0.7219 0.26887 0.0
C1691 C 0.05751 0.73382 0.26792 0.0
C1692 C 0.04298 0.73087 0.28021 0.0
C1693 C 0.03545 0.71653 0.29386 0.0
C1694 C 0.07934 0.7246 0.25605 0.0
C1695 C 0.03577 0.74321 0.27942 0.0
C1696 C 0.09265 0.77993 0.25093 0.0
C1697 C 0.08935 0.77899 0.22982 0.0
C1698 C 0.08176 0.76566 0.26372 0.0
C1699 C 0.06716 0.75008 0.25522 0.0
C1700 C 0.06309 0.74948 0.23417 0.0
C1701 C 0.07428 0.76396 0.22168 0.0
C1702 C 0.08652 0.76689 0.28611 0.0
C1703 C 0.04752 0.73316 0.2246 0.0
H1704 H 0.06118 0.69881 0.2834 0.0
H1705 H 0.0246 0.71457 0.30361 0.0
H1706 H 0.07689 0.72555 0.23961 0.0
H1707 H 0.09135 0.73735 0.2606 0.0
H1708 H 0.08204 0.7136 0.25779 0.0
H1709 H 0.0233 0.73802 0.28825 0.0
H1710 H 0.04564 0.7565 0.28586 0.0
H1711 H 0.03333 0.7452 0.26331 0.0
H1712 H 0.10407 0.7917 0.25736 0.0
H1713 H 0.07169 0.76315 0.20537 0.0
H1714 H 0.09082 0.75725 0.28926 0.0
H1715 H 0.07484 0.76326 0.2959 0.0
H1716 H 0.09733 0.78048 0.29066 0.0
H1717 H 0.05029 0.72214 0.22368 0.0
H1718 H 0.0447 0.73575 0.2089 0.0
H1719 H 0.03554 0.72852 0.2342 0.0
C1720 C 0.29784 0.34976 0.27686 0.0
C1721 C 0.29969 0.33774 0.28904 0.0
C1722 C 0.28353 0.34385 0.26346 0.0
C1723 C 0.2708 0.3254 0.26191 0.0
C1724 C 0.27312 0.31304 0.27316 0.0
C1725 C 0.2875 0.31936 0.28669 0.0
C1726 C 0.28155 0.3575 0.25179 0.0
C1727 C 0.26001 0.29323 0.27159 0.0
C1728 C 0.22567 0.31692 0.2477 0.0
C1729 C 0.22572 0.31499 0.22631 0.0
C1730 C 0.23984 0.31926 0.25962 0.0
C1731 C 0.25437 0.31948 0.24997 0.0
C1732 C 0.25393 0.31622 0.22858 0.0
C1733 C 0.23964 0.3141 0.21696 0.0
C1734 C 0.23974 0.32266 0.2824 0.0
C1735 C 0.26902 0.31603 0.21777 0.0
H1736 H 0.3072 0.36398 0.27836 0.0
H1737 H 0.28885 0.30992 0.29588 0.0
H1738 H 0.27982 0.35406 0.23519 0.0
H1739 H 0.26957 0.35745 0.25717 0.0
H1740 H 0.29312 0.37124 0.25378 0.0
H1741 H 0.26499 0.28529 0.27889 0.0
H1742 H 0.24751 0.29015 0.27926 0.0
H1743 H 0.25687 0.28893 0.2553 0.0
H1744 H 0.21475 0.31717 0.25509 0.0
H1745 H 0.23983 0.31265 0.20044 0.0
H1746 H 0.25015 0.33663 0.28612 0.0
H1747 H 0.24278 0.31376 0.29107 0.0
H1748 H 0.22684 0.32055 0.28778 0.0
H1749 H 0.28048 0.32987 0.21687 0.0
H1750 H 0.26542 0.31043 0.20194 0.0
H1751 H 0.2733 0.30811 0.22645 0.0
C1752 C 0.30064 0.34132 0.40187 0.0
C1753 C 0.30158 0.35039 0.38397 0.0
C1754 C 0.28936 0.33991 0.41804 0.0
C1755 C 0.27834 0.34713 0.4158 0.0
C1756 C 0.27907 0.35601 0.39754 0.0
C1757 C 0.29093 0.35781 0.38201 0.0
C1758 C 0.2894 0.33092 0.43756 0.0
C1759 C 0.26713 0.36338 0.39426 0.0
C1760 C 0.23624 0.32912 0.44699 0.0
C1761 C 0.24038 0.34348 0.46049 0.0
C1762 C 0.24857 0.32996 0.43266 0.0
C1763 C 0.26577 0.34523 0.43231 0.0
C1764 C 0.27046 0.35927 0.44671 0.0
C1765 C 0.25765 0.35838 0.46037 0.0
C1766 C 0.24293 0.31485 0.41727 0.0
C1767 C 0.28883 0.37556 0.44722 0.0
H1768 H 0.30901 0.3357 0.4034 0.0
H1769 H 0.29157 0.36468 0.36804 0.0
H1770 H 0.29247 0.34022 0.4508 0.0
H1771 H 0.27613 0.31908 0.44031 0.0
H1772 H 0.2992 0.32656 0.43711 0.0
H1773 H 0.26889 0.3693 0.37886 0.0
H1774 H 0.25312 0.3526 0.39599 0.0
H1775 H 0.26981 0.37379 0.40603 0.0
H1776 H 0.22318 0.31727 0.44729 0.0
H1777 H 0.2611 0.36969 0.47048 0.0
H1778 H 0.25199 0.30962 0.41774 0.0
H1779 H 0.24364 0.31987 0.40157 0.0
H1780 H 0.22924 0.30365 0.42002 0.0
H1781 H 0.29887 0.37153 0.44693 0.0
H1782 H 0.29105 0.38408 0.46103 0.0
H1783 H 0.29098 0.38368 0.43343 0.0
C1784 C 0.65278 0.94472 0.38814 0.0
C1785 C 0.66691 0.96201 0.39241 0.0
C1786 C 0.64865 0.93056 0.40136 0.0
C1787 C 0.65861 0.9339 0.41951 0.0
C1788 C 0.67226 0.95154 0.42443 0.0
C1789 C 0.67641 0.96534 0.41067 0.0
C1790 C 0.63425 0.9119 0.39535 0.0
C1791 C 0.68288 0.95573 0.44389 0.0
C1792 C 0.64146 0.89888 0.46122 0.0
C1793 C 0.65205 0.89143 0.45812 0.0
C1794 C 0.64333 0.91268 0.4487 0.0
C1795 C 0.65581 0.9188 0.43248 0.0
C1796 C 0.66612 0.91085 0.42897 0.0
C1797 C 0.66427 0.89741 0.44201 0.0
C1798 C 0.63238 0.92107 0.45319 0.0
C1799 C 0.67929 0.9167 0.4116 0.0
H1800 H 0.64549 0.94207 0.37396 0.0
H1801 H 0.68723 0.97873 0.41411 0.0
H1802 H 0.64015 0.90354 0.39214 0.0
H1803 H 0.62474 0.90561 0.40813 0.0
H1804 H 0.62692 0.91172 0.38152 0.0
H1805 H 0.6917 0.97034 0.44652 0.0
H1806 H 0.67396 0.95002 0.45729 0.0
H1807 H 0.69112 0.94954 0.44306 0.0
H1808 H 0.63212 0.89427 0.47383 0.0
H1809 H 0.67239 0.89154 0.43966 0.0
H1810 H 0.62488 0.92045 0.43935 0.0
H1811 H 0.64118 0.9354 0.45728 0.0
H1812 H 0.62292 0.91443 0.46597 0.0
H1813 H 0.67274 0.91596 0.39688 0.0
H1814 H 0.68545 0.9084 0.41019 0.0
H1815 H 0.6899 0.93082 0.41407 0.0
C1816 C 0.04367 0.70678 0.40147 0.0
C1817 C 0.0488 0.69579 0.39148 0.0
C1818 C 0.05394 0.7186 0.41731 0.0
C1819 C 0.0697 0.71943 0.4233 0.0
C1820 C 0.0745 0.70777 0.41399 0.0
C1821 C 0.064 0.6961 0.39823 0.0
C1822 C 0.04835 0.73075 0.42698 0.0
C1823 C 0.09118 0.70821 0.42003 0.0
C1824 C 0.10778 0.763 0.44407 0.0
C1825 C 0.10712 0.75956 0.46507 0.0
C1826 C 0.0954 0.75019 0.43043 0.0
C1827 C 0.08201 0.7335 0.43796 0.0
C1828 C 0.08101 0.73005 0.4592 0.0
C1829 C 0.09362 0.74313 0.47252 0.0
C1830 C 0.09696 0.75435 0.40787 0.0
C1831 C 0.06685 0.71244 0.46778 0.0
H1832 H 0.03191 0.7066 0.39651 0.0
H1833 H 0.06804 0.68758 0.39079 0.0
H1834 H 0.04866 0.73024 0.44394 0.0
H1835 H 0.05777 0.74475 0.42254 0.0
H1836 H 0.03488 0.72718 0.42216 0.0
H1837 H 0.0923 0.69733 0.41249 0.0
H1838 H 0.10285 0.7212 0.4157 0.0
H1839 H 0.09163 0.70702 0.43688 0.0
H1840 H 0.11833 0.77556 0.43817 0.0
H1841 H 0.09294 0.74049 0.48878 0.0
H1842 H 0.08432 0.75243 0.40207 0.0
H1843 H 0.09969 0.74501 0.39913 0.0
H1844 H 0.10766 0.76824 0.40463 0.0
H1845 H 0.05361 0.70959 0.46305 0.0
H1846 H 0.06728 0.71225 0.48478 0.0
H1847 H 0.06848 0.70149 0.4615 0.0
C1848 C 0.30633 0.02962 0.72959 0.0
C1849 C 0.32206 0.03289 0.7202 0.0
C1850 C 0.30648 0.04088 0.7453 0.0
C1851 C 0.32274 0.05589 0.75161 0.0
C1852 C 0.33872 0.05888 0.74278 0.0
C1853 C 0.3382 0.04728 0.72726 0.0
C1854 C 0.28918 0.03711 0.75457 0.0
C1855 C 0.3563 0.07482 0.74901 0.0
C1856 C 0.32035 0.09548 0.772 0.0
C1857 C 0.32164 0.09413 0.7932 0.0
C1858 C 0.32102 0.08329 0.75833 0.0
C1859 C 0.32284 0.06929 0.76607 0.0
C1860 C 0.32433 0.06795 0.78747 0.0
C1861 C 0.32383 0.08049 0.80081 0.0
C1862 C 0.31962 0.08532 0.73559 0.0
C1863 C 0.3261 0.05308 0.79626 0.0
H1864 H 0.29381 0.01843 0.72441 0.0
H1865 H 0.35043 0.04993 0.72011 0.0
H1866 H 0.28988 0.03731 0.77155 0.0
H1867 H 0.28651 0.0477 0.75014 0.0
H1868 H 0.27791 0.02399 0.74943 0.0
H1869 H 0.36759 0.0744 0.74199 0.0
H1870 H 0.35695 0.08726 0.74419 0.0
H1871 H 0.35778 0.07555 0.76592 0.0
H1872 H 0.3189 0.10617 0.7661 0.0
H1873 H 0.32472 0.07939 0.81723 0.0
H1874 H 0.30766 0.07335 0.72935 0.0
H1875 H 0.3312 0.08633 0.72749 0.0
H1876 H 0.31888 0.09731 0.73206 0.0
H1877 H 0.31425 0.03999 0.79231 0.0
H1878 H 0.32761 0.05421 0.81321 0.0
H1879 H 0.33768 0.05314 0.78944 0.0
C1880 C 0.95757 0.30004 0.74681 0.0
C1881 C 0.96195 0.29706 0.72704 0.0
C1882 C 0.94938 0.28607 0.76085 0.0
C1883 C 0.94496 0.26861 0.75469 0.0
C1884 C 0.94993 0.26568 0.73497 0.0
C1885 C 0.95861 0.28002 0.72147 0.0
C1886 C 0.94477 0.28984 0.78195 0.0
C1887 C 0.94509 0.24721 0.72765 0.0
C1888 C 0.93015 0.23233 0.79456 0.0
C1889 C 0.91179 0.22456 0.79384 0.0
C1890 C 0.94121 0.24679 0.78197 0.0
C1891 C 0.93361 0.25322 0.76807 0.0
C1892 C 0.91501 0.24507 0.76707 0.0
C1893 C 0.90433 0.23097 0.78018 0.0
C1894 C 0.96098 0.2554 0.7838 0.0
C1895 C 0.90636 0.25127 0.75217 0.0
H1896 H 0.96029 0.31325 0.75118 0.0
H1897 H 0.96186 0.27767 0.70611 0.0
H1898 H 0.93025 0.28369 0.78325 0.0
H1899 H 0.94891 0.28382 0.79384 0.0
H1900 H 0.9511 0.30439 0.78523 0.0
H1901 H 0.95117 0.24741 0.71259 0.0
H1902 H 0.94928 0.24081 0.73897 0.0
H1903 H 0.93053 0.23873 0.72614 0.0
H1904 H 0.93582 0.22733 0.80529 0.0
H1905 H 0.89009 0.22482 0.77966 0.0
H1906 H 0.96693 0.26967 0.78828 0.0
H1907 H 0.96673 0.25497 0.76876 0.0
H1908 H 0.96477 0.24875 0.7953 0.0
H1909 H 0.91031 0.26531 0.75575 0.0
H1910 H 0.89172 0.24293 0.75263 0.0
H1911 H 0.91086 0.2509 0.73632 0.0
C1912 C 0.70725 0.65162 0.73479 0.0
C1913 C 0.70407 0.66402 0.72538 0.0
C1914 C 0.72132 0.65713 0.74844 0.0
C1915 C 0.73244 0.67552 0.75313 0.0
C1916 C 0.72905 0.68813 0.74422 0.0
C1917 C 0.71497 0.68224 0.73031 0.0
C1918 C 0.72454 0.64324 0.75747 0.0
C1919 C 0.74045 0.70781 0.74915 0.0
C1920 C 0.75895 0.68301 0.80147 0.0
C1921 C 0.7748 0.68546 0.7934 0.0
C1922 C 0.74546 0.6811 0.78853 0.0
C1923 C 0.7478 0.68131 0.76701 0.0
C1924 C 0.76416 0.68476 0.75883 0.0
C1925 C 0.77753 0.6869 0.77216 0.0
C1926 C 0.72835 0.6778 0.79787 0.0
C1927 C 0.76713 0.68491 0.73599 0.0
H1928 H 0.699 0.63752 0.73109 0.0
H1929 H 0.7126 0.69192 0.72319 0.0
H1930 H 0.73787 0.64601 0.75304 0.0
H1931 H 0.72415 0.64386 0.77446 0.0
H1932 H 0.71464 0.62947 0.7523 0.0
H1933 H 0.73543 0.71577 0.74195 0.0
H1934 H 0.74112 0.71009 0.76599 0.0
H1935 H 0.75413 0.71282 0.74369 0.0
H1936 H 0.75692 0.68211 0.81793 0.0
H1937 H 0.78974 0.68869 0.76589 0.0
H1938 H 0.7179 0.66363 0.7953 0.0
H1939 H 0.72396 0.68618 0.79045 0.0
H1940 H 0.72957 0.68064 0.81464 0.0
H1941 H 0.75879 0.67119 0.72959 0.0
H1942 H 0.78114 0.68969 0.73212 0.0
H1943 H 0.76318 0.69355 0.72833 0.0
C1944 C 0.70747 0.64155 0.632 0.0
C1945 C 0.69948 0.65183 0.63145 0.0
C1946 C 0.71947 0.64308 0.61681 0.0
C1947 C 0.7232 0.65482 0.60032 0.0
C1948 C 0.71491 0.66501 0.59944 0.0
C1949 C 0.70333 0.66361 0.61523 0.0
C1950 C 0.72838 0.63232 0.6186 0.0
C1951 C 0.71822 0.67731 0.5818 0.0
C1952 C 0.76635 0.66945 0.57247 0.0
C1953 C 0.76079 0.65668 0.55662 0.0
C1954 C 0.75416 0.66938 0.58648 0.0
C1955 C 0.73598 0.65646 0.58423 0.0
C1956 C 0.73024 0.64409 0.5676 0.0
C1957 C 0.74278 0.64419 0.55413 0.0
C1958 C 0.76085 0.68252 0.60427 0.0
C1959 C 0.71094 0.63039 0.56442 0.0
H1960 H 0.70469 0.6326 0.64466 0.0
H1961 H 0.69709 0.67151 0.61475 0.0
H1962 H 0.72509 0.62324 0.60512 0.0
H1963 H 0.74293 0.64138 0.61878 0.0
H1964 H 0.72437 0.62418 0.6327 0.0
H1965 H 0.71028 0.68384 0.58305 0.0
H1966 H 0.7324 0.68783 0.58119 0.0
H1967 H 0.71498 0.66968 0.56709 0.0
H1968 H 0.78033 0.67902 0.5744 0.0
H1969 H 0.73854 0.6344 0.54173 0.0
H1970 H 0.7583 0.6752 0.61883 0.0
H1971 H 0.75369 0.68985 0.60513 0.0
H1972 H 0.77523 0.69237 0.60312 0.0
H1973 H 0.70619 0.6205 0.57689 0.0
H1974 H 0.7085 0.62313 0.54951 0.0
H1975 H 0.70297 0.63689 0.56504 0.0
C1976 C 0.34758 0.05842 0.63153 0.0
C1977 C 0.33731 0.04068 0.62465 0.0
C1978 C 0.35158 0.07261 0.61848 0.0
C1979 C 0.34571 0.06892 0.59787 0.0
C1980 C 0.33637 0.05102 0.59051 0.0
C1981 C 0.33191 0.03706 0.60415 0.0
C1982 C 0.36098 0.09142 0.62716 0.0
C1983 C 0.33051 0.04658 0.56844 0.0
C1984 C 0.33553 0.10097 0.5717 0.0
C1985 C 0.35122 0.11203 0.56089 0.0
C1986 C 0.33374 0.08713 0.58396 0.0
C1987 C 0.34763 0.08357 0.58475 0.0
C1988 C 0.36326 0.09417 0.57337 0.0
C1989 C 0.36502 0.10849 0.56192 0.0
C1990 C 0.31699 0.07643 0.59626 0.0
C1991 C 0.37811 0.09037 0.57328 0.0
H1992 H 0.35157 0.06116 0.64749 0.0
H1993 H 0.32402 0.0233 0.59887 0.0
H1994 H 0.37248 0.10038 0.61747 0.0
H1995 H 0.35187 0.09663 0.62717 0.0
H1996 H 0.36565 0.09213 0.64309 0.0
H1997 H 0.32589 0.03242 0.56444 0.0
H1998 H 0.31953 0.04895 0.56566 0.0
H1999 H 0.34148 0.05534 0.55799 0.0
H2000 H 0.32447 0.10299 0.57058 0.0
H2001 H 0.37732 0.11695 0.55396 0.0
H2002 H 0.32024 0.07667 0.6127 0.0
H2003 H 0.30993 0.06229 0.59099 0.0
H2004 H 0.3079 0.0816 0.5949 0.0
H2005 H 0.38391 0.09268 0.58883 0.0
H2006 H 0.38876 0.09891 0.56234 0.0
H2007 H 0.37296 0.07615 0.56913 0.0
C2008 C 0.95829 0.30362 0.61284 0.0
C2009 C 0.94999 0.30209 0.63174 0.0
C2010 C 0.94841 0.29387 0.59558 0.0
C2011 C 0.92999 0.28189 0.59761 0.0
C2012 C 0.9217 0.28003 0.61686 0.0
C2013 C 0.93176 0.29043 0.6336 0.0
C2014 C 0.95757 0.29665 0.57515 0.0
C2015 C 0.9022 0.26697 0.61983 0.0
C2016 C 0.89689 0.2649 0.55415 0.0
C2017 C 0.89402 0.24768 0.55079 0.0
C2018 C 0.90958 0.27674 0.5683 0.0
C2019 C 0.91922 0.27104 0.57982 0.0
C2020 C 0.91705 0.25406 0.5758 0.0
C2021 C 0.90474 0.24276 0.56105 0.0
C2022 C 0.91199 0.29501 0.57169 0.0
C2023 C 0.92684 0.24733 0.58799 0.0
H2024 H 0.97239 0.31283 0.61146 0.0
H2025 H 0.92543 0.28921 0.64831 0.0
H2026 H 0.95569 0.28384 0.56911 0.0
H2027 H 0.95163 0.30139 0.56387 0.0
H2028 H 0.97196 0.30653 0.57616 0.0
H2029 H 0.89799 0.26655 0.63602 0.0
H2030 H 0.89441 0.27069 0.61008 0.0
H2031 H 0.89891 0.25335 0.615 0.0
H2032 H 0.88873 0.26893 0.54643 0.0
H2033 H 0.90314 0.22976 0.55808 0.0
H2034 H 0.92623 0.30538 0.57246 0.0
H2035 H 0.90594 0.29538 0.58653 0.0
H2036 H 0.90574 0.29848 0.55935 0.0
H2037 H 0.94122 0.25721 0.588 0.0
H2038 H 0.92466 0.23438 0.58193 0.0
H2039 H 0.92232 0.24552 0.60418 0.0
C2040 C 0.36682 0.31307 0.62047 0.0
C2041 C 0.35092 0.31025 0.62895 0.0
C2042 C 0.36686 0.30207 0.60459 0.0
C2043 C 0.35061 0.28789 0.59699 0.0
C2044 C 0.33453 0.28566 0.60454 0.0
C2045 C 0.33487 0.29688 0.62043 0.0
C2046 C 0.38429 0.30495 0.59683 0.0
C2047 C 0.31693 0.27074 0.59671 0.0
C2048 C 0.35067 0.26277 0.54877 0.0
C2049 C 0.35034 0.24793 0.55715 0.0
C2050 C 0.35071 0.27593 0.5615 0.0
C2051 C 0.35045 0.27417 0.58305 0.0
C2052 C 0.35026 0.25929 0.59155 0.0
C2053 C 0.35024 0.24638 0.5785 0.0
C2054 C 0.35092 0.29165 0.55194 0.0
C2055 C 0.35012 0.25698 0.61447 0.0
H2056 H 0.37932 0.32349 0.62673 0.0
H2057 H 0.3225 0.29466 0.62672 0.0
H2058 H 0.38599 0.2939 0.60199 0.0
H2059 H 0.38457 0.30483 0.57983 0.0
H2060 H 0.39567 0.31778 0.60251 0.0
H2061 H 0.30578 0.27216 0.60227 0.0
H2062 H 0.31677 0.27032 0.57971 0.0
H2063 H 0.31478 0.25775 0.60195 0.0
H2064 H 0.35062 0.26393 0.53226 0.0
H2065 H 0.35031 0.2351 0.58505 0.0
H2066 H 0.36261 0.3043 0.55736 0.0
H2067 H 0.33904 0.29202 0.55679 0.0
H2068 H 0.35124 0.29111 0.53493 0.0
H2069 H 0.36201 0.26854 0.62147 0.0
H2070 H 0.34984 0.24456 0.61858 0.0
H2071 H 0.3384 0.2566 0.62137 0.0
C2072 C 0.70475 0.03567 0.60069 0.0
C2073 C 0.70375 0.03962 0.62138 0.0
C2074 C 0.71275 0.04935 0.58626 0.0
C2075 C 0.72058 0.06738 0.59293 0.0
C2076 C 0.71899 0.07135 0.61371 0.0
C2077 C 0.71029 0.05736 0.62763 0.0
C2078 C 0.71355 0.04455 0.56409 0.0
C2079 C 0.72764 0.09038 0.6216 0.0
C2080 C 0.76164 0.10099 0.56439 0.0
C2081 C 0.75584 0.11099 0.55401 0.0
C2082 C 0.75032 0.08693 0.57716 0.0
C2083 C 0.73242 0.08205 0.57893 0.0
C2084 C 0.72616 0.09145 0.56783 0.0
C2085 C 0.738 0.10602 0.55579 0.0
C2086 C 0.75765 0.07748 0.58903 0.0
C2087 C 0.707 0.0862 0.56878 0.0
H2088 H 0.69953 0.0219 0.59586 0.0
H2089 H 0.70962 0.06038 0.64369 0.0
H2090 H 0.71033 0.05247 0.55383 0.0
H2091 H 0.72714 0.04776 0.5603 0.0
H2092 H 0.70433 0.03012 0.56082 0.0
H2093 H 0.72394 0.09118 0.63774 0.0
H2094 H 0.74221 0.0967 0.62073 0.0
H2095 H 0.72398 0.09829 0.61196 0.0
H2096 H 0.77513 0.10412 0.56262 0.0
H2097 H 0.73329 0.11362 0.54804 0.0
H2098 H 0.75094 0.06322 0.58427 0.0
H2099 H 0.75512 0.07795 0.60566 0.0
H2100 H 0.77209 0.0835 0.5867 0.0
H2101 H 0.69836 0.07169 0.56554 0.0
H2102 H 0.70388 0.09369 0.5577 0.0
H2103 H 0.70374 0.0888 0.58443 0.0
C2104 C 0.95305 0.65738 0.62188 0.0
C2105 C 0.96425 0.6755 0.6271 0.0
C2106 C 0.93915 0.65196 0.60784 0.0
C2107 C 0.93625 0.66492 0.59901 0.0
C2108 C 0.94767 0.68321 0.60395 0.0
C2109 C 0.96154 0.68827 0.6178 0.0
C2110 C 0.92738 0.63235 0.6027 0.0
C2111 C 0.94497 0.69747 0.595 0.0
C2112 C 0.90945 0.65683 0.55062 0.0
C2113 C 0.89351 0.65418 0.55867 0.0
C2114 C 0.92318 0.65939 0.56359 0.0
C2115 C 0.92098 0.65953 0.58511 0.0
C2116 C 0.90466 0.65619 0.59331 0.0
C2117 C 0.89109 0.65347 0.57998 0.0
C2118 C 0.94028 0.66263 0.55425 0.0
C2119 C 0.90183 0.65639 0.61615 0.0
H2120 H 0.95505 0.64741 0.62888 0.0
H2121 H 0.97004 0.7023 0.6217 0.0
H2122 H 0.91373 0.62764 0.60804 0.0
H2123 H 0.92679 0.63018 0.58585 0.0
H2124 H 0.93202 0.62406 0.60989 0.0
H2125 H 0.95519 0.71113 0.60016 0.0
H2126 H 0.94526 0.69683 0.57801 0.0
H2127 H 0.9318 0.69511 0.59952 0.0
H2128 H 0.91127 0.65716 0.53414 0.0
H2129 H 0.87883 0.65156 0.58626 0.0
H2130 H 0.94438 0.65391 0.56138 0.0
H2131 H 0.95088 0.67667 0.55728 0.0
H2132 H 0.9392 0.66018 0.53741 0.0
H2133 H 0.90532 0.64743 0.6239 0.0
H2134 H 0.88797 0.65219 0.62008 0.0
H2135 H 0.91063 0.67008 0.62241 0.0
C2136 C 0.95623 0.67054 0.7281 0.0
C2137 C 0.97128 0.6869 0.72301 0.0
C2138 C 0.9443 0.66969 0.74307 0.0
C2139 C 0.94761 0.68553 0.75338 0.0
C2140 C 0.96322 0.70191 0.74906 0.0
C2141 C 0.97481 0.70242 0.73386 0.0
C2142 C 0.92775 0.65198 0.74717 0.0
C2143 C 0.96734 0.71904 0.75994 0.0
C2144 C 0.9084 0.68802 0.77318 0.0
C2145 C 0.90847 0.68466 0.79409 0.0
C2146 C 0.92103 0.68825 0.75979 0.0
C2147 C 0.93415 0.68521 0.76753 0.0
C2148 C 0.93439 0.68194 0.78867 0.0
C2149 C 0.92146 0.6816 0.8017 0.0
C2150 C 0.92023 0.69161 0.7373 0.0
C2151 C 0.94831 0.67887 0.79751 0.0
H2152 H 0.95337 0.65848 0.71981 0.0
H2153 H 0.98649 0.71509 0.7302 0.0
H2154 H 0.92626 0.64925 0.76384 0.0
H2155 H 0.91603 0.65247 0.74219 0.0
H2156 H 0.92774 0.64072 0.73897 0.0
H2157 H 0.98076 0.73031 0.75619 0.0
H2158 H 0.95755 0.72271 0.7555 0.0
H2159 H 0.96635 0.71721 0.77679 0.0
H2160 H 0.89823 0.69013 0.7672 0.0
H2161 H 0.92162 0.67914 0.8179 0.0
H2162 H 0.91878 0.68018 0.72797 0.0
H2163 H 0.93272 0.70366 0.73254 0.0
H2164 H 0.90907 0.69355 0.73372 0.0
H2165 H 0.94769 0.66708 0.78996 0.0
H2166 H 0.94674 0.67666 0.81431 0.0
H2167 H 0.96164 0.69054 0.79447 0.0
C2168 C 0.35091 0.29592 0.73506 0.0
C2169 C 0.33804 0.29791 0.72505 0.0
C2170 C 0.34619 0.28176 0.74843 0.0
C2171 C 0.32813 0.26929 0.75213 0.0
C2172 C 0.31503 0.27137 0.74247 0.0
C2173 C 0.32013 0.28561 0.72898 0.0
C2174 C 0.36059 0.27998 0.75833 0.0
C2175 C 0.29564 0.25843 0.74621 0.0
C2176 C 0.31847 0.22415 0.77069 0.0
C2177 C 0.31794 0.22618 0.79201 0.0
C2178 C 0.32111 0.23782 0.75746 0.0
C2179 C 0.32314 0.25387 0.76575 0.0
C2180 C 0.32187 0.2557 0.78722 0.0
C2181 C 0.31938 0.24187 0.80009 0.0
C2182 C 0.32252 0.23539 0.73469 0.0
C2183 C 0.32375 0.2725 0.79664 0.0
H2184 H 0.36479 0.30527 0.73217 0.0
H2185 H 0.31007 0.28703 0.72141 0.0
H2186 H 0.35931 0.28001 0.77526 0.0
H2187 H 0.35923 0.26704 0.75371 0.0
H2188 H 0.37402 0.29092 0.75404 0.0
H2189 H 0.28711 0.26233 0.73824 0.0
H2190 H 0.29208 0.24486 0.74081 0.0
H2191 H 0.29276 0.2576 0.76289 0.0
H2192 H 0.31752 0.21212 0.76437 0.0
H2193 H 0.31873 0.2434 0.81655 0.0
H2194 H 0.33615 0.245 0.72944 0.0
H2195 H 0.31347 0.23826 0.7262 0.0
H2196 H 0.31937 0.22166 0.73057 0.0
H2197 H 0.33743 0.28382 0.79438 0.0
H2198 H 0.32081 0.27117 0.81333 0.0
H2199 H 0.31476 0.27594 0.78896 0.0
C2200 C 0.73747 0.04342 0.71425 0.0
C2201 C 0.71907 0.03526 0.71555 0.0
C2202 C 0.74839 0.05433 0.73023 0.0
C2203 C 0.74069 0.05679 0.74817 0.0
C2204 C 0.7221 0.04845 0.74968 0.0
C2205 C 0.7115 0.03796 0.7332 0.0
C2206 C 0.76818 0.06333 0.72783 0.0
C2207 C 0.71343 0.05046 0.76877 0.0
C2208 C 0.77092 0.0719 0.79443 0.0
C2209 C 0.77743 0.09029 0.79481 0.0
C2210 C 0.7582 0.06065 0.77998 0.0
C2211 C 0.75225 0.06811 0.76528 0.0
C2212 C 0.75849 0.08664 0.76596 0.0
C2213 C 0.77089 0.0975 0.7809 0.0
C2214 C 0.75155 0.0409 0.78004 0.0
C2215 C 0.75276 0.09514 0.75028 0.0
H2216 H 0.74338 0.04153 0.70052 0.0
H2217 H 0.69726 0.03158 0.73428 0.0
H2218 H 0.77438 0.078 0.72981 0.0
H2219 H 0.77364 0.05874 0.73988 0.0
H2220 H 0.77206 0.06053 0.71261 0.0
H2221 H 0.69879 0.04291 0.76761 0.0
H2222 H 0.71728 0.04564 0.78224 0.0
H2223 H 0.71805 0.06475 0.7717 0.0
H2224 H 0.77596 0.06638 0.80532 0.0
H2225 H 0.77608 0.11177 0.78116 0.0
H2226 H 0.75638 0.03719 0.76615 0.0
H2227 H 0.73691 0.03308 0.77955 0.0
H2228 H 0.75604 0.03698 0.79377 0.0
H2229 H 0.75749 0.0939 0.73487 0.0
H2230 H 0.75799 0.10952 0.7537 0.0
H2231 H 0.73815 0.08813 0.74956 0.0
C2232 C 0.05874 0.35624 0.04161 0.0
C2233 C 0.04194 0.34096 0.03919 0.0
C2234 C 0.07153 0.356 0.05402 0.0
C2235 C 0.06745 0.34004 0.06398 0.0
C2236 C 0.05053 0.32458 0.06149 0.0
C2237 C 0.03797 0.32526 0.04923 0.0
C2238 C 0.08938 0.3728 0.05652 0.0
C2239 C 0.04572 0.30724 0.07167 0.0
C2240 C 0.10404 0.33239 0.08074 0.0
C2241 C 0.10435 0.3352 0.10203 0.0
C2242 C 0.09236 0.33429 0.06812 0.0
C2243 C 0.08084 0.33934 0.07694 0.0
C2244 C 0.08141 0.34269 0.09831 0.0
C2245 C 0.09308 0.34048 0.11061 0.0
C2246 C 0.09206 0.33049 0.0454 0.0
C2247 C 0.06939 0.34818 0.10827 0.0
H2248 H 0.06185 0.36843 0.03395 0.0
H2249 H 0.02503 0.31336 0.04736 0.0
H2250 H 0.09197 0.37662 0.07299 0.0
H2251 H 0.09989 0.37039 0.05098 0.0
H2252 H 0.09038 0.38418 0.04799 0.0
H2253 H 0.03202 0.2964 0.06808 0.0
H2254 H 0.05495 0.30285 0.06663 0.0
H2255 H 0.04704 0.30922 0.08855 0.0
H2256 H 0.11292 0.32865 0.07389 0.0
H2257 H 0.09305 0.34248 0.12705 0.0
H2258 H 0.09419 0.34216 0.03656 0.0
H2259 H 0.07891 0.31903 0.041 0.0
H2260 H 0.10229 0.32729 0.04084 0.0
H2261 H 0.07062 0.35993 0.10042 0.0
H2262 H 0.07236 0.35155 0.12481 0.0
H2263 H 0.05545 0.33717 0.10674 0.0
C2264 C 0.6921 0.71165 0.05314 0.0
C2265 C 0.67579 0.70301 0.04297 0.0
C2266 C 0.6967 0.72621 0.06647 0.0
C2267 C 0.68456 0.73198 0.06989 0.0
C2268 C 0.66798 0.7231 0.05988 0.0
C2269 C 0.66387 0.70882 0.04641 0.0
C2270 C 0.71459 0.73554 0.07666 0.0
C2271 C 0.65456 0.7287 0.06338 0.0
C2272 C 0.68612 0.75863 0.11707 0.0
C2273 C 0.69218 0.77555 0.1088 0.0
C2274 C 0.68436 0.74447 0.10478 0.0
C2275 C 0.68904 0.74738 0.08381 0.0
C2276 C 0.69629 0.7647 0.07569 0.0
C2277 C 0.69766 0.77856 0.08825 0.0
C2278 C 0.67653 0.72618 0.11399 0.0
C2279 C 0.70167 0.76836 0.05345 0.0
H2280 H 0.70138 0.70722 0.05042 0.0
H2281 H 0.65122 0.70214 0.03864 0.0
H2282 H 0.72212 0.74977 0.07214 0.0
H2283 H 0.71304 0.73533 0.09356 0.0
H2284 H 0.72244 0.7293 0.07251 0.0
H2285 H 0.64209 0.72006 0.05484 0.0
H2286 H 0.65143 0.72819 0.07996 0.0
H2287 H 0.66011 0.74269 0.05849 0.0
H2288 H 0.68225 0.75631 0.13305 0.0
H2289 H 0.70224 0.79153 0.08166 0.0
H2290 H 0.68481 0.72035 0.11026 0.0
H2291 H 0.66326 0.71712 0.1073 0.0
H2292 H 0.67515 0.7265 0.13091 0.0
H2293 H 0.70993 0.76265 0.049 0.0
H2294 H 0.70914 0.78289 0.05021 0.0
H2295 H 0.68972 0.76184 0.04363 0.0
C2296 C 0.28558 0.95535 0.03381 0.0
C2297 C 0.29902 0.97192 0.04132 0.0
C2298 C 0.27138 0.94378 0.04634 0.0
C2299 C 0.27096 0.94868 0.06706 0.0
C2300 C 0.28469 0.96531 0.0748 0.0
C2301 C 0.29844 0.97688 0.06171 0.0
C2302 C 0.25675 0.92639 0.03736 0.0
C2303 C 0.28497 0.97076 0.09696 0.0
C2304 C 0.22713 0.92577 0.09543 0.0
C2305 C 0.22769 0.91194 0.10539 0.0
C2306 C 0.24106 0.93776 0.08283 0.0
C2307 C 0.25621 0.93629 0.08062 0.0
C2308 C 0.2571 0.92268 0.09094 0.0
C2309 C 0.24274 0.9105 0.10288 0.0
C2310 C 0.23948 0.95188 0.0717 0.0
C2311 C 0.27319 0.9209 0.08928 0.0
H2312 H 0.28597 0.95158 0.01797 0.0
H2313 H 0.30894 0.98966 0.06754 0.0
H2314 H 0.25596 0.91497 0.04552 0.0
H2315 H 0.24387 0.92555 0.03945 0.0
H2316 H 0.25873 0.92491 0.02076 0.0
H2317 H 0.2968 0.98396 0.10068 0.0
H2318 H 0.27299 0.97137 0.10052 0.0
H2319 H 0.28479 0.96061 0.10711 0.0
H2320 H 0.21581 0.92732 0.09751 0.0
H2321 H 0.24328 0.89971 0.11004 0.0
H2322 H 0.24088 0.95054 0.05494 0.0
H2323 H 0.25027 0.96537 0.07648 0.0
H2324 H 0.22664 0.95097 0.07466 0.0
H2325 H 0.27484 0.91758 0.07323 0.0
H2326 H 0.2723 0.91037 0.09939 0.0
H2327 H 0.28524 0.93378 0.09339 0.0
C2328 C 0.3213 0.0349 0.97177 0.0
C2329 C 0.33746 0.03798 0.97929 0.0
C2330 C 0.32035 0.04781 0.96035 0.0
C2331 C 0.33601 0.06411 0.95595 0.0
C2332 C 0.3524 0.06738 0.9636 0.0
C2333 C 0.35291 0.05432 0.97539 0.0
C2334 C 0.30256 0.0439 0.95285 0.0
C2335 C 0.3694 0.0845 0.95895 0.0
C2336 C 0.33278 0.08753 0.90916 0.0
C2337 C 0.33001 0.10058 0.91813 0.0
C2338 C 0.3355 0.07606 0.92131 0.0
C2339 C 0.33509 0.07745 0.94296 0.0
C2340 C 0.3325 0.09077 0.95209 0.0
C2341 C 0.33014 0.10227 0.93955 0.0
C2342 C 0.33848 0.06222 0.91098 0.0
C2343 C 0.33162 0.09246 0.97509 0.0
H2344 H 0.30928 0.02235 0.9749 0.0
H2345 H 0.36543 0.0567 0.98111 0.0
H2346 H 0.30017 0.05465 0.95804 0.0
H2347 H 0.30234 0.04362 0.93584 0.0
H2348 H 0.29156 0.03092 0.9584 0.0
H2349 H 0.381 0.08513 0.96629 0.0
H2350 H 0.37158 0.08573 0.94213 0.0
H2351 H 0.36855 0.09616 0.9643 0.0
H2352 H 0.3329 0.08636 0.89259 0.0
H2353 H 0.32788 0.11229 0.94651 0.0
H2354 H 0.32724 0.04865 0.91431 0.0
H2355 H 0.35057 0.0631 0.91711 0.0
H2356 H 0.33981 0.0638 0.89408 0.0
H2357 H 0.32009 0.08015 0.98117 0.0
H2358 H 0.33042 0.10408 0.97978 0.0
H2359 H 0.3436 0.09389 0.98233 0.0
C2360 C 0.96307 0.29769 0.96734 0.0
C2361 C 0.98062 0.30248 0.97062 0.0
C2362 C 0.95194 0.28309 0.95467 0.0
C2363 C 0.95841 0.27276 0.94551 0.0
C2364 C 0.97624 0.27772 0.94849 0.0
C2365 C 0.98722 0.2927 0.96085 0.0
C2366 C 0.93314 0.2785 0.95145 0.0
C2367 C 0.98349 0.26682 0.93929 0.0
C2368 C 0.92275 0.22499 0.93326 0.0
C2369 C 0.92061 0.22571 0.91214 0.0
C2370 C 0.93558 0.24004 0.94415 0.0
C2371 C 0.94618 0.25628 0.9337 0.0
C2372 C 0.94424 0.25697 0.91228 0.0
C2373 C 0.93157 0.24158 0.90169 0.0
C2374 C 0.93751 0.23868 0.96691 0.0
C2375 C 0.95502 0.27413 0.90071 0.0
H2376 H 0.95797 0.30532 0.97475 0.0
H2377 H 0.00078 0.29636 0.96348 0.0
H2378 H 0.93009 0.27721 0.93483 0.0
H2379 H 0.92389 0.26543 0.95847 0.0
H2380 H 0.93061 0.28871 0.95831 0.0
H2381 H 0.99784 0.27293 0.94229 0.0
H2382 H 0.97639 0.25321 0.9458 0.0
H2383 H 0.98128 0.26529 0.92249 0.0
H2384 H 0.91431 0.21263 0.94124 0.0
H2385 H 0.92976 0.2421 0.88536 0.0
H2386 H 0.93349 0.24713 0.97542 0.0
H2387 H 0.95153 0.24372 0.97078 0.0
H2388 H 0.92933 0.22475 0.97235 0.0
H2389 H 0.95174 0.28414 0.90633 0.0
H2390 H 0.95256 0.27219 0.88393 0.0
H2391 H 0.96931 0.27979 0.90349 0.0
C2392 C 0.70098 0.65166 0.9774 0.0
C2393 C 0.69284 0.66124 0.97234 0.0
C2394 C 0.71452 0.65252 0.96512 0.0
C2395 C 0.71973 0.6629 0.94716 0.0
C2396 C 0.71103 0.672 0.94155 0.0
C2397 C 0.69781 0.67123 0.95435 0.0
C2398 C 0.72369 0.64287 0.97177 0.0
C2399 C 0.71595 0.68286 0.92226 0.0
C2400 C 0.76631 0.68121 0.92713 0.0
C2401 C 0.76364 0.66877 0.91164 0.0
C2402 C 0.75212 0.67936 0.93892 0.0
C2403 C 0.73484 0.66493 0.93477 0.0
C2404 C 0.73206 0.65247 0.9189 0.0
C2405 C 0.74656 0.65444 0.90765 0.0
C2406 C 0.75564 0.69274 0.95595 0.0
C2407 C 0.71378 0.63715 0.91376 0.0
H2408 H 0.69721 0.644 0.99136 0.0
H2409 H 0.69143 0.67854 0.95033 0.0
H2410 H 0.72322 0.63382 0.95932 0.0
H2411 H 0.73782 0.6527 0.9749 0.0
H2412 H 0.71768 0.6349 0.98578 0.0
H2413 H 0.70698 0.68796 0.91926 0.0
H2414 H 0.72964 0.69442 0.92356 0.0
H2415 H 0.71559 0.67468 0.90886 0.0
H2416 H 0.77957 0.6922 0.93028 0.0
H2417 H 0.74454 0.64492 0.89552 0.0
H2418 H 0.75091 0.68575 0.97076 0.0
H2419 H 0.74825 0.69959 0.95312 0.0
H2420 H 0.76989 0.70299 0.95742 0.0
H2421 H 0.70795 0.62843 0.92725 0.0
H2422 H 0.71383 0.6289 0.90062 0.0
H2423 H 0.70505 0.64234 0.90997 0.0
C2424 C 0.94384 0.65311 0.98387 0.0
C2425 C 0.96157 0.66279 0.97776 0.0
C2426 C 0.93066 0.65331 0.97218 0.0
C2427 C 0.93535 0.66309 0.95376 0.0
C2428 C 0.95318 0.67243 0.94725 0.0
C2429 C 0.96609 0.67231 0.95944 0.0
C2430 C 0.91183 0.64346 0.97977 0.0
C2431 C 0.95868 0.68271 0.9275 0.0
C2432 C 0.90031 0.65297 0.91374 0.0
C2433 C 0.89783 0.66746 0.91656 0.0
C2434 C 0.91234 0.65123 0.92591 0.0
C2435 C 0.92179 0.6641 0.94151 0.0
C2436 C 0.91895 0.67851 0.94474 0.0
C2437 C 0.90713 0.68012 0.93206 0.0
C2438 C 0.91529 0.63591 0.92171 0.0
C2439 C 0.92856 0.69235 0.96144 0.0
H2440 H 0.94033 0.64579 0.99808 0.0
H2441 H 0.97977 0.67968 0.95456 0.0
H2442 H 0.90733 0.65306 0.98261 0.0
H2443 H 0.903 0.63376 0.96794 0.0
H2444 H 0.91029 0.63618 0.99416 0.0
H2445 H 0.97291 0.68838 0.92405 0.0
H2446 H 0.9508 0.67388 0.91452 0.0
H2447 H 0.95604 0.69381 0.92845 0.0
H2448 H 0.89315 0.64324 0.90165 0.0
H2449 H 0.90505 0.69122 0.93434 0.0
H2450 H 0.91296 0.62811 0.93583 0.0
H2451 H 0.92922 0.64118 0.91707 0.0
H2452 H 0.90652 0.62676 0.9094 0.0
H2453 H 0.92659 0.68574 0.97641 0.0
H2454 H 0.92401 0.70204 0.96279 0.0
H2455 H 0.94295 0.69983 0.95823 0.0
C2456 C 0.312 0.29397 0.96225 0.0
C2457 C 0.32877 0.3044 0.97106 0.0
C2458 C 0.30794 0.27902 0.94988 0.0
C2459 C 0.32112 0.27472 0.94594 0.0
C2460 C 0.33828 0.28565 0.95418 0.0
C2461 C 0.34183 0.30025 0.96685 0.0
C2462 C 0.28944 0.26748 0.94163 0.0
C2463 C 0.3528 0.28172 0.94996 0.0
C2464 C 0.31014 0.2276 0.93341 0.0
C2465 C 0.31285 0.22841 0.91219 0.0
C2466 C 0.31188 0.24234 0.94444 0.0
C2467 C 0.31691 0.25836 0.93401 0.0
C2468 C 0.31919 0.25905 0.91247 0.0
C2469 C 0.31695 0.24395 0.90176 0.0
C2470 C 0.30894 0.24097 0.96734 0.0
C2471 C 0.32487 0.27598 0.90088 0.0
H2472 H 0.30186 0.29714 0.96558 0.0
H2473 H 0.35485 0.30839 0.97352 0.0
H2474 H 0.28974 0.26586 0.92476 0.0
H2475 H 0.28328 0.25396 0.94828 0.0
H2476 H 0.28096 0.27313 0.94529 0.0
H2477 H 0.36571 0.29226 0.95631 0.0
H2478 H 0.34931 0.26879 0.95683 0.0
H2479 H 0.35427 0.2805 0.9332 0.0
H2480 H 0.30686 0.21548 0.94137 0.0
H2481 H 0.31917 0.24452 0.88533 0.0
H2482 H 0.2998 0.24561 0.97184 0.0
H2483 H 0.32164 0.24973 0.97534 0.0
H2484 H 0.3034 0.2271 0.97276 0.0
H2485 H 0.31608 0.28122 0.90459 0.0
H2486 H 0.32479 0.27391 0.88402 0.0
H2487 H 0.33842 0.28637 0.90563 0.0
C2488 C 0.70761 0.04828 0.97619 0.0
C2489 C 0.70308 0.03047 0.97818 0.0
C2490 C 0.72176 0.06001 0.96365 0.0
C2491 C 0.73187 0.05387 0.95335 0.0
C2492 C 0.72736 0.03589 0.95539 0.0
C2493 C 0.71286 0.02434 0.96757 0.0
C2494 C 0.72589 0.07896 0.96144 0.0
C2495 C 0.73806 0.02896 0.94502 0.0
C2496 C 0.76029 0.0793 0.90773 0.0
C2497 C 0.77682 0.09 0.91697 0.0
C2498 C 0.74547 0.06762 0.91943 0.0
C2499 C 0.74738 0.06634 0.94075 0.0
C2500 C 0.76415 0.07696 0.95007 0.0
C2501 C 0.77865 0.08885 0.93808 0.0
C2502 C 0.72773 0.05681 0.90904 0.0
C2503 C 0.76681 0.07567 0.97266 0.0
H2504 H 0.69998 0.05301 0.98426 0.0
H2505 H 0.70942 0.01059 0.9692 0.0
H2506 H 0.73926 0.08843 0.96756 0.0
H2507 H 0.72594 0.082 0.94499 0.0
H2508 H 0.71622 0.08137 0.96965 0.0
H2509 H 0.73288 0.01466 0.94829 0.0
H2510 H 0.73809 0.03052 0.92819 0.0
H2511 H 0.75199 0.03688 0.95024 0.0
H2512 H 0.75892 0.08036 0.8914 0.0
H2513 H 0.7915 0.09709 0.94514 0.0
H2514 H 0.71809 0.05971 0.91642 0.0
H2515 H 0.72258 0.04234 0.91081 0.0
H2516 H 0.72841 0.05968 0.89242 0.0
H2517 H 0.75852 0.0794 0.98182 0.0
H2518 H 0.7808 0.08447 0.9774 0.0
H2519 H 0.76256 0.06169 0.97647 0.0
C2520 C 0.64925 0.94648 0.03966 0.0
C2521 C 0.66365 0.96407 0.03997 0.0
C2522 C 0.64962 0.9331 0.05091 0.0
C2523 C 0.66481 0.93742 0.06254 0.0
C2524 C 0.67942 0.95512 0.06274 0.0
C2525 C 0.67863 0.96822 0.05154 0.0
C2526 C 0.63374 0.91438 0.0505 0.0
C2527 C 0.69592 0.96027 0.07481 0.0
C2528 C 0.66275 0.90958 0.10766 0.0
C2529 C 0.66997 0.89982 0.09925 0.0
C2530 C 0.66037 0.92135 0.09567 0.0
C2531 C 0.66551 0.9236 0.0748 0.0
C2532 C 0.6725 0.91356 0.0661 0.0
C2533 C 0.67459 0.90176 0.07841 0.0
C2534 C 0.65286 0.9318 0.10552 0.0
C2535 C 0.67821 0.91565 0.04393 0.0
H2536 H 0.63763 0.94321 0.03077 0.0
H2537 H 0.68986 0.98176 0.05178 0.0
H2538 H 0.63761 0.90483 0.04482 0.0
H2539 H 0.62851 0.91036 0.06627 0.0
H2540 H 0.623 0.91316 0.0406 0.0
H2541 H 0.70625 0.97456 0.07304 0.0
H2542 H 0.69266 0.95769 0.09133 0.0
H2543 H 0.70147 0.95196 0.06974 0.0
H2544 H 0.65936 0.90838 0.1238 0.0
H2545 H 0.67989 0.89406 0.07168 0.0
H2546 H 0.64162 0.93023 0.09636 0.0
H2547 H 0.66307 0.94623 0.10589 0.0
H2548 H 0.64825 0.9275 0.12145 0.0
H2549 H 0.66722 0.91345 0.03382 0.0
H2550 H 0.68254 0.90622 0.03922 0.0
H2551 H 0.6893 0.92949 0.04141 0.0
C2552 C 0.02035 0.71328 0.05466 0.0
C2553 C 0.02674 0.70441 0.04254 0.0
C2554 C 0.03169 0.72758 0.06765 0.0
C2555 C 0.04973 0.73284 0.06879 0.0
C2556 C 0.05617 0.72371 0.05683 0.0
C2557 C 0.04462 0.70972 0.04367 0.0
C2558 C 0.02444 0.73722 0.07991 0.0
C2559 C 0.07525 0.72872 0.05792 0.0
C2560 C 0.08414 0.77953 0.08691 0.0
C2561 C 0.08675 0.77662 0.10732 0.0
C2562 C 0.07177 0.76549 0.07437 0.0
C2563 C 0.06199 0.74803 0.08231 0.0
C2564 C 0.06439 0.745 0.10293 0.0
C2565 C 0.0766 0.75935 0.11524 0.0
C2566 C 0.06941 0.76928 0.05251 0.0
C2567 C 0.05431 0.72653 0.11188 0.0
H2568 H 0.00654 0.70926 0.05373 0.0
H2569 H 0.04958 0.70282 0.03441 0.0
H2570 H 0.02661 0.7366 0.09651 0.0
H2571 H 0.03155 0.75154 0.07577 0.0
H2572 H 0.01009 0.73148 0.07726 0.0
H2573 H 0.07801 0.71989 0.04813 0.0
H2574 H 0.08397 0.7427 0.05298 0.0
H2575 H 0.07881 0.72796 0.07398 0.0
H2576 H 0.09205 0.79274 0.08051 0.0
H2577 H 0.07824 0.75701 0.13109 0.0
H2578 H 0.05526 0.76424 0.04942 0.0
H2579 H 0.07361 0.76215 0.0418 0.0
H2580 H 0.07718 0.78376 0.0491 0.0
H2581 H 0.03989 0.72101 0.11053 0.0
H2582 H 0.05755 0.72646 0.12828 0.0
H2583 H 0.05737 0.71744 0.10313 0.0
C2584 C 0.30402 0.33414 0.06083 0.0
C2585 C 0.30664 0.34188 0.04153 0.0
C2586 C 0.29064 0.33264 0.07391 0.0
C2587 C 0.27926 0.33845 0.06716 0.0
C2588 C 0.28191 0.34632 0.04766 0.0
C2589 C 0.2958 0.34822 0.0352 0.0
C2590 C 0.28859 0.32473 0.09487 0.0
C2591 C 0.26974 0.3522 0.0397 0.0
C2592 C 0.23397 0.317 0.09197 0.0
C2593 C 0.23567 0.33073 0.10508 0.0
C2594 C 0.24795 0.31945 0.07931 0.0
C2595 C 0.26428 0.33581 0.08027 0.0
C2596 C 0.26627 0.34961 0.09371 0.0
C2597 C 0.25187 0.34703 0.10567 0.0
C2598 C 0.24522 0.30454 0.06483 0.0
C2599 C 0.28362 0.36709 0.0955 0.0
H2600 H 0.31254 0.32938 0.06577 0.0
H2601 H 0.29777 0.35407 0.02017 0.0
H2602 H 0.2886 0.33392 0.10683 0.0
H2603 H 0.27575 0.312 0.09589 0.0
H2604 H 0.2993 0.32205 0.09832 0.0
H2605 H 0.27367 0.35816 0.02424 0.0
H2606 H 0.25604 0.34059 0.03888 0.0
H2607 H 0.26961 0.36217 0.05036 0.0
H2608 H 0.22172 0.30422 0.09162 0.0
H2609 H 0.25333 0.35792 0.11533 0.0
H2610 H 0.25429 0.29983 0.06885 0.0
H2611 H 0.24837 0.30951 0.0489 0.0
H2612 H 0.23145 0.29298 0.06522 0.0
H2613 H 0.29436 0.36457 0.09928 0.0
H2614 H 0.28326 0.37612 0.10746 0.0
H2615 H 0.28704 0.37406 0.08063 0.0
C2616 C 0.70087 0.65708 0.38275 0.0
C2617 C 0.70438 0.67349 0.37509 0.0
C2618 C 0.71339 0.6559 0.39455 0.0
C2619 C 0.7297 0.67157 0.39913 0.0
C2620 C 0.7333 0.68822 0.39156 0.0
C2621 C 0.72064 0.68896 0.37943 0.0
C2622 C 0.70916 0.63784 0.40203 0.0
C2623 C 0.75045 0.70524 0.39642 0.0
C2624 C 0.75393 0.66886 0.44538 0.0
C2625 C 0.76669 0.66609 0.43606 0.0
C2626 C 0.74214 0.67123 0.43352 0.0
C2627 C 0.74294 0.67041 0.41186 0.0
C2628 C 0.75586 0.66765 0.40239 0.0
C2629 C 0.76771 0.6657 0.41463 0.0
C2630 C 0.72873 0.67442 0.44416 0.0
C2631 C 0.75688 0.66632 0.37936 0.0
H2632 H 0.68836 0.64505 0.37932 0.0
H2633 H 0.72336 0.70167 0.37361 0.0
H2634 H 0.71936 0.63493 0.39655 0.0
H2635 H 0.70935 0.63788 0.41903 0.0
H2636 H 0.69603 0.6269 0.3967 0.0
H2637 H 0.7511 0.71714 0.38964 0.0
H2638 H 0.75207 0.70727 0.41328 0.0
H2639 H 0.76174 0.70424 0.39056 0.0
H2640 H 0.75328 0.66932 0.46197 0.0
H2641 H 0.77751 0.66341 0.40746 0.0
H2642 H 0.7152 0.66319 0.44073 0.0
H2643 H 0.72971 0.68675 0.43835 0.0
H2644 H 0.73053 0.67572 0.46106 0.0
H2645 H 0.74433 0.65487 0.37344 0.0
H2646 H 0.76792 0.6645 0.37441 0.0
H2647 H 0.75861 0.67854 0.3722 0.0
C2648 C 0.35021 0.0378 0.39848 0.0
C2649 C 0.34512 0.03762 0.37818 0.0
C2650 C 0.35202 0.05111 0.4124 0.0
C2651 C 0.3491 0.06469 0.40558 0.0
C2652 C 0.34474 0.06492 0.38482 0.0
C2653 C 0.34255 0.05123 0.37145 0.0
C2654 C 0.3563 0.05023 0.43453 0.0
C2655 C 0.34195 0.07941 0.37682 0.0
C2656 C 0.33392 0.08913 0.44072 0.0
C2657 C 0.34958 0.10564 0.44365 0.0
C2658 C 0.33381 0.07531 0.42933 0.0
C2659 C 0.34965 0.07819 0.42018 0.0
C2660 C 0.36559 0.0946 0.42349 0.0
C2661 C 0.3654 0.10805 0.43538 0.0
C2662 C 0.31658 0.05785 0.42642 0.0
C2663 C 0.38269 0.09825 0.41375 0.0
H2664 H 0.35203 0.02714 0.40368 0.0
H2665 H 0.33873 0.05111 0.35568 0.0
H2666 H 0.36775 0.06318 0.43966 0.0
H2667 H 0.3449 0.04764 0.44433 0.0
H2668 H 0.35931 0.03953 0.43707 0.0
H2669 H 0.33998 0.07841 0.35995 0.0
H2670 H 0.33017 0.07852 0.38425 0.0
H2671 H 0.35346 0.09277 0.38069 0.0
H2672 H 0.32158 0.08712 0.44677 0.0
H2673 H 0.37767 0.12055 0.43797 0.0
H2674 H 0.31832 0.04644 0.42972 0.0
H2675 H 0.31226 0.05641 0.41023 0.0
H2676 H 0.30593 0.05699 0.43644 0.0
H2677 H 0.38527 0.08744 0.4173 0.0
H2678 H 0.39415 0.11121 0.41897 0.0
H2679 H 0.38166 0.09848 0.39683 0.0
C2680 C 0.96675 0.31354 0.39252 0.0
C2681 C 0.968 0.30921 0.37205 0.0
C2682 C 0.95268 0.30141 0.40494 0.0
C2683 C 0.93935 0.28491 0.39641 0.0
C2684 C 0.94035 0.2808 0.37553 0.0
C2685 C 0.95482 0.29288 0.36371 0.0
C2686 C 0.95234 0.30603 0.42729 0.0
C2687 C 0.92616 0.26359 0.36569 0.0
C2688 C 0.91117 0.24455 0.42947 0.0
C2689 C 0.89557 0.24501 0.43171 0.0
C2690 C 0.92574 0.25784 0.41871 0.0
C2691 C 0.92456 0.27165 0.40932 0.0
C2692 C 0.90891 0.27224 0.4114 0.0
C2693 C 0.89473 0.25909 0.42281 0.0
C2694 C 0.94234 0.25694 0.41715 0.0
C2695 C 0.907 0.28655 0.40123 0.0
H2696 H 0.97706 0.32613 0.39898 0.0
H2697 H 0.95576 0.28961 0.34781 0.0
H2698 H 0.93986 0.30563 0.43094 0.0
H2699 H 0.95278 0.29596 0.43698 0.0
H2700 H 0.96362 0.31946 0.4315 0.0
H2701 H 0.92837 0.26295 0.34898 0.0
H2702 H 0.92576 0.25204 0.37304 0.0
H2703 H 0.91303 0.26215 0.36801 0.0
H2704 H 0.91198 0.23365 0.43587 0.0
H2705 H 0.88299 0.25993 0.42477 0.0
H2706 H 0.95398 0.26993 0.42188 0.0
H2707 H 0.94449 0.25432 0.401 0.0
H2708 H 0.9417 0.24628 0.42681 0.0
H2709 H 0.91752 0.29995 0.40663 0.0
H2710 H 0.89397 0.28515 0.40436 0.0
H2711 H 0.90861 0.28592 0.3844 0.0
C2712 C 0.00421 0.37078 0.28913 0.0
C2713 C 0.01063 0.37471 0.30925 0.0
C2714 C 0.00417 0.38384 0.27699 0.0
C2715 C 0.01008 0.40105 0.28548 0.0
C2716 C 0.01666 0.40511 0.3058 0.0
C2717 C 0.01715 0.39194 0.31735 0.0
C2718 C 0.9976 0.37915 0.25517 0.0
C2719 C 0.02257 0.42312 0.31559 0.0
C2720 C 0.02114 0.43904 0.24922 0.0
C2721 C 0.00503 0.43863 0.24835 0.0
C2722 C 0.023 0.42692 0.26122 0.0
C2723 C 0.00863 0.41448 0.27329 0.0
C2724 C 0.99256 0.41436 0.27309 0.0
C2725 C 0.99085 0.42616 0.26037 0.0
C2726 C 0.04021 0.42717 0.26063 0.0
C2727 C 0.97704 0.40156 0.2861 0.0
H2728 H 0.99932 0.35748 0.28281 0.0
H2729 H 0.02198 0.39491 0.33299 0.0
H2730 H 0.98529 0.37949 0.25352 0.0
H2731 H 0.0075 0.38914 0.24454 0.0
H2732 H 0.99484 0.36568 0.2504 0.0
H2733 H 0.02773 0.42429 0.33136 0.0
H2734 H 0.033 0.43391 0.30619 0.0
H2735 H 0.01129 0.42534 0.3163 0.0
H2736 H 0.03238 0.44881 0.24049 0.0
H2737 H 0.97821 0.42533 0.25964 0.0
H2738 H 0.03782 0.41397 0.25526 0.0
H2739 H 0.04591 0.42956 0.27625 0.0
H2740 H 0.05009 0.43761 0.25035 0.0
H2741 H 0.97198 0.38765 0.28068 0.0
H2742 H 0.96605 0.40425 0.28562 0.0
H2743 H 0.98123 0.40247 0.30228 0.0
C2744 C 0.62497 0.63119 0.30489 0.0
C2745 C 0.64295 0.6371 0.3067 0.0
C2746 C 0.61401 0.6169 0.29173 0.0
C2747 C 0.62117 0.6081 0.28043 0.0
C2748 C 0.63939 0.61418 0.28198 0.0
C2749 C 0.65012 0.62874 0.29498 0.0
C2750 C 0.59472 0.61104 0.29017 0.0
C2751 C 0.64743 0.60496 0.27039 0.0
C2752 C 0.58804 0.56027 0.26467 0.0
C2753 C 0.58488 0.56216 0.2441 0.0
C2754 C 0.60028 0.57504 0.27646 0.0
C2755 C 0.60939 0.59216 0.26757 0.0
C2756 C 0.60656 0.59413 0.24673 0.0
C2757 C 0.59447 0.57909 0.2352 0.0
C2758 C 0.60311 0.57238 0.2986 0.0
C2759 C 0.61594 0.61221 0.23676 0.0
H2760 H 0.61942 0.63771 0.31382 0.0
H2761 H 0.66402 0.63325 0.29643 0.0
H2762 H 0.59106 0.61083 0.2739 0.0
H2763 H 0.58646 0.59725 0.29594 0.0
H2764 H 0.59146 0.61993 0.29908 0.0
H2765 H 0.66193 0.61173 0.27271 0.0
H2766 H 0.64126 0.59095 0.27551 0.0
H2767 H 0.64475 0.6045 0.25375 0.0
H2768 H 0.58058 0.54733 0.27179 0.0
H2769 H 0.5924 0.58064 0.21921 0.0
H2770 H 0.59841 0.57941 0.30876 0.0
H2771 H 0.61739 0.57824 0.30168 0.0
H2772 H 0.596 0.55805 0.30275 0.0
H2773 H 0.61214 0.62113 0.24455 0.0
H2774 H 0.61276 0.61137 0.22019 0.0
H2775 H 0.63044 0.61852 0.23844 0.0
C2776 C 0.36941 0.98161 0.31695 0.0
C2777 C 0.36253 0.99223 0.31132 0.0
C2778 C 0.38202 0.98064 0.30462 0.0
C2779 C 0.38753 0.99019 0.28605 0.0
C2780 C 0.38014 0.00042 0.27999 0.0
C2781 C 0.36788 0.00148 0.29282 0.0
C2782 C 0.38985 0.96984 0.31174 0.0
C2783 C 0.38537 0.01048 0.26009 0.0
C2784 C 0.43239 0.00445 0.26299 0.0
C2785 C 0.42799 0.9915 0.24754 0.0
C2786 C 0.4194 0.00383 0.27605 0.0
C2787 C 0.40154 0.99014 0.27328 0.0
C2788 C 0.39705 0.97696 0.25774 0.0
C2789 C 0.41039 0.9777 0.24517 0.0
C2790 C 0.42475 0.01794 0.29269 0.0
C2791 C 0.37812 0.96238 0.25406 0.0
H2792 H 0.36532 0.9745 0.3313 0.0
H2793 H 0.36244 0.00956 0.28832 0.0
H2794 H 0.38811 0.95985 0.29981 0.0
H2795 H 0.40426 0.97877 0.3142 0.0
H2796 H 0.38376 0.96275 0.32623 0.0
H2797 H 0.37753 0.01685 0.25699 0.0
H2798 H 0.39955 0.02103 0.26056 0.0
H2799 H 0.38358 0.00131 0.24711 0.0
H2800 H 0.44606 0.015 0.26493 0.0
H2801 H 0.40702 0.96774 0.23312 0.0
H2802 H 0.41984 0.01155 0.30778 0.0
H2803 H 0.41868 0.02609 0.28978 0.0
H2804 H 0.4393 0.027 0.2936 0.0
H2805 H 0.37227 0.95481 0.26832 0.0
H2806 H 0.3769 0.95288 0.24171 0.0
H2807 H 0.3702 0.96838 0.24974 0.0
C2808 C 0.62483 0.0049 0.30492 0.0
C2809 C 0.62308 0.98921 0.31266 0.0
C2810 C 0.61176 0.00435 0.29241 0.0
C2811 C 0.59675 0.98765 0.2871 0.0
C2812 C 0.59489 0.97173 0.29488 0.0
C2813 C 0.60802 0.97272 0.30779 0.0
C2814 C 0.61405 0.02165 0.28479 0.0
C2815 C 0.57924 0.95367 0.28922 0.0
C2816 C 0.5564 0.98792 0.26808 0.0
C2817 C 0.55875 0.98818 0.2468 0.0
C2818 C 0.56854 0.9875 0.28141 0.0
C2819 C 0.58316 0.98696 0.2732 0.0
C2820 C 0.58529 0.98669 0.25166 0.0
C2821 C 0.57315 0.98753 0.23871 0.0
C2822 C 0.56603 0.98819 0.30427 0.0
C2823 C 0.60051 0.98578 0.24231 0.0
H2824 H 0.63643 0.01768 0.30877 0.0
H2825 H 0.60671 0.96056 0.31364 0.0
H2826 H 0.6149 0.02193 0.26781 0.0
H2827 H 0.60241 0.02265 0.28914 0.0
H2828 H 0.62611 0.03354 0.29105 0.0
H2829 H 0.57975 0.94258 0.29657 0.0
H2830 H 0.5668 0.95299 0.29384 0.0
H2831 H 0.57877 0.95166 0.27234 0.0
H2832 H 0.54531 0.98857 0.27431 0.0
H2833 H 0.57486 0.9876 0.22222 0.0
H2834 H 0.5774 0.0005 0.31091 0.0
H2835 H 0.56563 0.97666 0.31168 0.0
H2836 H 0.5537 0.98807 0.30818 0.0
H2837 H 0.61316 0.99805 0.24639 0.0
H2838 H 0.59957 0.98441 0.22533 0.0
H2839 H 0.60095 0.97429 0.24857 0.0
C2840 C 0.01237 0.63187 0.30515 0.0
C2841 C 0.99887 0.63563 0.30797 0.0
C2842 C 0.0106 0.61889 0.29086 0.0
C2843 C 0.99479 0.60918 0.27945 0.0
C2844 C 0.98118 0.61307 0.28204 0.0
C2845 C 0.98347 0.62642 0.29617 0.0
C2846 C 0.02555 0.61535 0.28825 0.0
C2847 C 0.96403 0.60278 0.27036 0.0
C2848 C 0.99641 0.58381 0.23247 0.0
C2849 C 0.99056 0.56686 0.24054 0.0
C2850 C 0.99746 0.59765 0.24482 0.0
C2851 C 0.99226 0.59436 0.26563 0.0
C2852 C 0.98569 0.57712 0.27365 0.0
C2853 C 0.98508 0.56364 0.26108 0.0
C2854 C 0.00468 0.61593 0.23579 0.0
C2855 C 0.97983 0.57305 0.29573 0.0
H2856 H 0.02436 0.63907 0.31413 0.0
H2857 H 0.973 0.62929 0.29838 0.0
H2858 H 0.02118 0.60159 0.29319 0.0
H2859 H 0.02934 0.61629 0.27185 0.0
H2860 H 0.0374 0.62488 0.2973 0.0
H2861 H 0.95511 0.60801 0.27342 0.0
H2862 H 0.96664 0.60331 0.25365 0.0
H2863 H 0.9571 0.58852 0.27473 0.0
H2864 H 0.00034 0.58634 0.21652 0.0
H2865 H 0.9808 0.55071 0.26759 0.0
H2866 H 0.01721 0.62563 0.24359 0.0
H2867 H 0.99531 0.62064 0.23836 0.0
H2868 H 0.00728 0.61605 0.21908 0.0
H2869 H 0.99136 0.58067 0.30601 0.0
H2870 H 0.97361 0.55862 0.29908 0.0
H2871 H 0.97024 0.5773 0.29948 0.0
C2872 C 0.37771 0.35806 0.29779 0.0
C2873 C 0.36888 0.36448 0.30985 0.0
C2874 C 0.39223 0.36965 0.28561 0.0
C2875 C 0.39785 0.38804 0.28531 0.0
C2876 C 0.38879 0.39452 0.29721 0.0
C2877 C 0.37449 0.38269 0.30945 0.0
C2878 C 0.40168 0.36229 0.27329 0.0
C2879 C 0.39424 0.41399 0.29705 0.0
C2880 C 0.44488 0.42194 0.26965 0.0
C2881 C 0.44266 0.42517 0.24923 0.0
C2882 C 0.43045 0.40966 0.28146 0.0
C2883 C 0.41335 0.40056 0.27273 0.0
C2884 C 0.411 0.40369 0.25213 0.0
C2885 C 0.42569 0.41586 0.24059 0.0
C2886 C 0.43349 0.40656 0.30334 0.0
C2887 C 0.39294 0.39432 0.24232 0.0
H2888 H 0.37345 0.344 0.2981 0.0
H2889 H 0.36766 0.3877 0.31868 0.0
H2890 H 0.40158 0.36507 0.25679 0.0
H2891 H 0.41571 0.369 0.27813 0.0
H2892 H 0.39559 0.34765 0.27513 0.0
H2893 H 0.38551 0.4168 0.30674 0.0
H2894 H 0.40799 0.42237 0.30271 0.0
H2895 H 0.39398 0.41813 0.28115 0.0
H2896 H 0.45788 0.42922 0.27656 0.0
H2897 H 0.42387 0.41801 0.22472 0.0
H2898 H 0.42829 0.39214 0.30569 0.0
H2899 H 0.42622 0.41059 0.31395 0.0
H2900 H 0.4477 0.41417 0.30758 0.0
H2901 H 0.38708 0.37964 0.24276 0.0
H2902 H 0.39335 0.39825 0.22614 0.0
H2903 H 0.384 0.39745 0.25108 0.0
C2904 C 0.33562 0.30368 0.39368 0.0
C2905 C 0.32889 0.29944 0.37369 0.0
C2906 C 0.33644 0.29098 0.40571 0.0
C2907 C 0.33097 0.27386 0.39725 0.0
C2908 C 0.32414 0.26952 0.37705 0.0
C2909 C 0.3229 0.2823 0.36561 0.0
C2910 C 0.34327 0.29594 0.4274 0.0
C2911 C 0.31867 0.2516 0.36729 0.0
C2912 C 0.3512 0.2494 0.42168 0.0
C2913 C 0.3372 0.23671 0.43373 0.0
C2914 C 0.34916 0.26117 0.40928 0.0
C2915 C 0.33292 0.26072 0.40939 0.0
C2916 C 0.31875 0.24806 0.42152 0.0
C2917 C 0.32096 0.23602 0.43323 0.0
C2918 C 0.36447 0.27423 0.39619 0.0
C2919 C 0.30135 0.24743 0.4224 0.0
H2920 H 0.34012 0.31691 0.39996 0.0
H2921 H 0.31784 0.2791 0.35008 0.0
H2922 H 0.33362 0.28591 0.43821 0.0
H2923 H 0.35575 0.29591 0.42885 0.0
H2924 H 0.3458 0.30934 0.43212 0.0
H2925 H 0.31346 0.25026 0.35152 0.0
H2926 H 0.33018 0.24973 0.36661 0.0
H2927 H 0.3084 0.24069 0.37672 0.0
H2928 H 0.36393 0.25041 0.42214 0.0
H2929 H 0.30987 0.22607 0.44201 0.0
H2930 H 0.36918 0.28808 0.40158 0.0
H2931 H 0.36017 0.27315 0.38004 0.0
H2932 H 0.37573 0.27195 0.39662 0.0
H2933 H 0.30355 0.26058 0.42768 0.0
H2934 H 0.29174 0.23699 0.43289 0.0
H2935 H 0.29543 0.24478 0.40689 0.0
C2936 C 0.70411 0.04496 0.36908 0.0
C2937 C 0.68802 0.03139 0.37693 0.0
C2938 C 0.71601 0.05938 0.38144 0.0
C2939 C 0.71193 0.05998 0.40237 0.0
C2940 C 0.69564 0.04631 0.41041 0.0
C2941 C 0.68371 0.03225 0.39747 0.0
C2942 C 0.73303 0.0739 0.37213 0.0
C2943 C 0.69106 0.04628 0.43277 0.0
C2944 C 0.75249 0.08819 0.4352 0.0
C2945 C 0.75246 0.1042 0.43741 0.0
C2946 C 0.73886 0.07337 0.42477 0.0
C2947 C 0.72508 0.07471 0.41577 0.0
C2948 C 0.72477 0.09067 0.41816 0.0
C2949 C 0.73832 0.10512 0.42917 0.0
C2950 C 0.73949 0.05646 0.42283 0.0
C2951 C 0.71047 0.09271 0.40848 0.0
H2952 H 0.70737 0.04435 0.35312 0.0
H2953 H 0.6713 0.02166 0.40355 0.0
H2954 H 0.73446 0.08715 0.375 0.0
H2955 H 0.74444 0.07417 0.37943 0.0
H2956 H 0.73368 0.07198 0.35533 0.0
H2957 H 0.67768 0.03494 0.4365 0.0
H2958 H 0.70087 0.04541 0.44239 0.0
H2959 H 0.6917 0.05895 0.43702 0.0
H2960 H 0.7634 0.0873 0.44118 0.0
H2961 H 0.73786 0.1172 0.43119 0.0
H2962 H 0.74211 0.0544 0.40666 0.0
H2963 H 0.72657 0.04473 0.42717 0.0
H2964 H 0.74994 0.05689 0.4326 0.0
H2965 H 0.71115 0.09173 0.39155 0.0
H2966 H 0.71166 0.10569 0.41256 0.0
H2967 H 0.69726 0.08176 0.41332 0.0
C2968 C 0.96964 0.68356 0.38291 0.0
C2969 C 0.97097 0.66857 0.37832 0.0
C2970 C 0.95564 0.68201 0.39492 0.0
C2971 C 0.94252 0.66501 0.40205 0.0
C2972 C 0.9438 0.64984 0.39737 0.0
C2973 C 0.95812 0.65184 0.38574 0.0
C2974 C 0.95489 0.69854 0.39997 0.0
C2975 C 0.92988 0.63144 0.40436 0.0
C2976 C 0.91336 0.66147 0.44706 0.0
C2977 C 0.89825 0.65884 0.43704 0.0
C2978 C 0.92801 0.66376 0.43585 0.0
C2979 C 0.92729 0.663 0.41415 0.0
C2980 C 0.91191 0.66009 0.40399 0.0
C2981 C 0.89763 0.65824 0.41559 0.0
C2982 C 0.94429 0.66716 0.4472 0.0
C2983 C 0.91051 0.6588 0.3809 0.0
H2984 H 0.97962 0.69653 0.37729 0.0
H2985 H 0.95905 0.6402 0.38209 0.0
H2986 H 0.94273 0.69723 0.39342 0.0
H2987 H 0.95427 0.70006 0.41683 0.0
H2988 H 0.96649 0.71085 0.39393 0.0
H2989 H 0.93278 0.621 0.3993 0.0
H2990 H 0.92886 0.63125 0.42132 0.0
H2991 H 0.9168 0.62794 0.39821 0.0
H2992 H 0.91384 0.6621 0.46367 0.0
H2993 H 0.88585 0.6561 0.40791 0.0
H2994 H 0.95589 0.67995 0.4422 0.0
H2995 H 0.94713 0.65644 0.44351 0.0
H2996 H 0.94285 0.66777 0.46409 0.0
H2997 H 0.92102 0.67142 0.37407 0.0
H2998 H 0.8975 0.65614 0.37542 0.0
H2999 H 0.91252 0.64795 0.37515 0.0
C3000 C 0.37373 0.9971 0.71839 0.0
C3001 C 0.37704 0.01229 0.7077 0.0
C3002 C 0.38678 0.99733 0.73066 0.0
C3003 C 0.40347 0.01322 0.73248 0.0
C3004 C 0.40683 0.02869 0.72193 0.0
C3005 C 0.39359 0.02801 0.70953 0.0
C3006 C 0.38277 0.98051 0.74149 0.0
C3007 C 0.42439 0.04593 0.72374 0.0
C3008 C 0.43078 0.01616 0.77857 0.0
C3009 C 0.4423 0.01124 0.76989 0.0
C3010 C 0.41845 0.01743 0.76645 0.0
C3011 C 0.41745 0.01346 0.7452 0.0
C3012 C 0.42925 0.00884 0.73627 0.0
C3013 C 0.4416 0.00791 0.74869 0.0
C3014 C 0.40619 0.02256 0.77649 0.0
C3015 C 0.42852 0.00442 0.71367 0.0
H3016 H 0.36098 0.9849 0.71698 0.0
H3017 H 0.39616 0.03981 0.70137 0.0
H3018 H 0.3922 0.97639 0.73644 0.0
H3019 H 0.38446 0.98303 0.75828 0.0
H3020 H 0.36913 0.96927 0.73848 0.0
H3021 H 0.42474 0.05688 0.71497 0.0
H3022 H 0.42727 0.05016 0.74008 0.0
H3023 H 0.43511 0.04389 0.71803 0.0
H3024 H 0.43106 0.01855 0.79495 0.0
H3025 H 0.45068 0.00445 0.74177 0.0
H3026 H 0.39239 0.01114 0.7756 0.0
H3027 H 0.40669 0.03382 0.76825 0.0
H3028 H 0.40953 0.02652 0.79285 0.0
H3029 H 0.41546 0.99256 0.70985 0.0
H3030 H 0.43896 0.00157 0.709 0.0
H3031 H 0.43 0.01566 0.70446 0.0
C3032 C 0.98914 0.37012 0.71176 0.0
C3033 C 0.0027 0.36637 0.70939 0.0
C3034 C 0.99092 0.38355 0.72531 0.0
C3035 C 0.00679 0.39375 0.73648 0.0
C3036 C 0.0205 0.38995 0.73432 0.0
C3037 C 0.01822 0.37615 0.72089 0.0
C3038 C 0.97587 0.38699 0.72744 0.0
C3039 C 0.0377 0.40074 0.74578 0.0
C3040 C 0.01542 0.43933 0.75306 0.0
C3041 C 0.00974 0.43643 0.77355 0.0
C3042 C 0.01535 0.42578 0.74112 0.0
C3043 C 0.00914 0.40881 0.74975 0.0
C3044 C 0.0038 0.40589 0.77054 0.0
C3045 C 0.0043 0.41979 0.78223 0.0
C3046 C 0.0213 0.42945 0.71904 0.0
C3047 C 0.99695 0.38791 0.7802 0.0
H3048 H 0.97708 0.36254 0.70299 0.0
H3049 H 0.02874 0.37331 0.71904 0.0
H3050 H 0.97204 0.38637 0.74379 0.0
H3051 H 0.98014 0.4006 0.72206 0.0
H3052 H 0.96405 0.37721 0.71851 0.0
H3053 H 0.04678 0.39566 0.743 0.0
H3054 H 0.0444 0.41487 0.74097 0.0
H3055 H 0.03518 0.40056 0.76249 0.0
H3056 H 0.01943 0.45203 0.74608 0.0
H3057 H 0.00024 0.41753 0.79816 0.0
H3058 H 0.00982 0.42152 0.70876 0.0
H3059 H 0.03101 0.42528 0.71572 0.0
H3060 H 0.02738 0.44379 0.71527 0.0
H3061 H 0.98446 0.37785 0.77261 0.0
H3062 H 0.9944 0.38816 0.79688 0.0
H3063 H 0.00652 0.38341 0.77796 0.0
C3064 C 0.63204 0.64682 0.72683 0.0
C3065 C 0.6347 0.64036 0.70815 0.0
C3066 C 0.61806 0.63559 0.73988 0.0
C3067 C 0.60629 0.61761 0.73385 0.0
C3068 C 0.6089 0.61106 0.71495 0.0
C3069 C 0.6232 0.62248 0.70244 0.0
C3070 C 0.61591 0.64293 0.76011 0.0
C3071 C 0.59646 0.59207 0.70782 0.0
C3072 C 0.57793 0.58254 0.773 0.0
C3073 C 0.56175 0.58167 0.7709 0.0
C3074 C 0.59271 0.59455 0.76144 0.0
C3075 C 0.59109 0.60563 0.74714 0.0
C3076 C 0.57475 0.60482 0.74504 0.0
C3077 C 0.56031 0.59296 0.75711 0.0
C3078 C 0.61 0.59528 0.76441 0.0
C3079 C 0.57241 0.61617 0.72969 0.0
H3080 H 0.641 0.66062 0.73134 0.0
H3081 H 0.62518 0.61746 0.68796 0.0
H3082 H 0.603 0.64218 0.76056 0.0
H3083 H 0.61597 0.63472 0.77286 0.0
H3084 H 0.62654 0.65703 0.76284 0.0
H3085 H 0.60022 0.58914 0.69258 0.0
H3086 H 0.59628 0.5826 0.71906 0.0
H3087 H 0.58282 0.58952 0.70685 0.0
H3088 H 0.57905 0.5739 0.78382 0.0
H3089 H 0.54773 0.59217 0.75541 0.0
H3090 H 0.62064 0.60918 0.76801 0.0
H3091 H 0.61379 0.59114 0.75002 0.0
H3092 H 0.6093 0.58649 0.77692 0.0
H3093 H 0.58207 0.63051 0.73272 0.0
H3094 H 0.5589 0.61408 0.7301 0.0
H3095 H 0.57503 0.61298 0.71399 0.0
C3096 C 0.66503 0.7002 0.62518 0.0
C3097 C 0.67442 0.70492 0.64368 0.0
C3098 C 0.66395 0.71297 0.6136 0.0
C3099 C 0.6721 0.73082 0.62096 0.0
C3100 C 0.68177 0.73572 0.63954 0.0
C3101 C 0.683 0.72272 0.65058 0.0
C3102 C 0.65387 0.70729 0.59363 0.0
C3103 C 0.69035 0.75454 0.64807 0.0
C3104 C 0.67985 0.76676 0.58309 0.0
C3105 C 0.6648 0.76801 0.58618 0.0
C3106 C 0.68249 0.75481 0.59441 0.0
C3107 C 0.66996 0.74416 0.60946 0.0
C3108 C 0.65495 0.74571 0.61296 0.0
C3109 C 0.65245 0.75749 0.60111 0.0
C3110 C 0.69845 0.75326 0.5899 0.0
C3111 C 0.64144 0.73482 0.62911 0.0
H3112 H 0.65849 0.68645 0.61973 0.0
H3113 H 0.69017 0.72637 0.66495 0.0
H3114 H 0.64219 0.70882 0.59479 0.0
H3115 H 0.6623 0.71597 0.58105 0.0
H3116 H 0.64929 0.69318 0.58942 0.0
H3117 H 0.69773 0.75629 0.66246 0.0
H3118 H 0.69958 0.76415 0.63665 0.0
H3119 H 0.6801 0.75801 0.65124 0.0
H3120 H 0.68932 0.77482 0.57141 0.0
H3121 H 0.6409 0.75859 0.60361 0.0
H3122 H 0.69413 0.73947 0.58456 0.0
H3123 H 0.7063 0.75581 0.60406 0.0
H3124 H 0.70712 0.76275 0.578 0.0
H3125 H 0.63497 0.72041 0.62511 0.0
H3126 H 0.63108 0.73837 0.63075 0.0
H3127 H 0.64801 0.73685 0.64416 0.0
C3128 C 0.32112 0.96268 0.62829 0.0
C3129 C 0.31425 0.97115 0.64033 0.0
C3130 C 0.31002 0.94793 0.61564 0.0
C3131 C 0.29174 0.94177 0.61486 0.0
C3132 C 0.28486 0.95058 0.62663 0.0
C3133 C 0.29617 0.96506 0.63933 0.0
C3134 C 0.31777 0.93873 0.60347 0.0
C3135 C 0.26549 0.9446 0.62599 0.0
C3136 C 0.26269 0.91345 0.57063 0.0
C3137 C 0.2529 0.89658 0.57961 0.0
C3138 C 0.2759 0.92817 0.58164 0.0
C3139 C 0.27957 0.92593 0.60206 0.0
C3140 C 0.27039 0.90876 0.61086 0.0
C3141 C 0.2571 0.89432 0.59958 0.0
C3142 C 0.28535 0.94627 0.57173 0.0
C3143 C 0.27405 0.90581 0.63254 0.0
H3144 H 0.33508 0.96732 0.62909 0.0
H3145 H 0.2908 0.9716 0.64853 0.0
H3146 H 0.31168 0.92468 0.60843 0.0
H3147 H 0.31474 0.93837 0.58694 0.0
H3148 H 0.33231 0.94546 0.60535 0.0
H3149 H 0.26238 0.9533 0.63551 0.0
H3150 H 0.26139 0.9446 0.60997 0.0
H3151 H 0.25745 0.93072 0.63157 0.0
H3152 H 0.25982 0.91524 0.55504 0.0
H3153 H 0.24954 0.88139 0.60673 0.0
H3154 H 0.29986 0.95246 0.57317 0.0
H3155 H 0.28173 0.95525 0.57974 0.0
H3156 H 0.28198 0.9455 0.55524 0.0
H3157 H 0.28844 0.91172 0.63488 0.0
H3158 H 0.26716 0.89141 0.63635 0.0
H3159 H 0.26962 0.9126 0.64346 0.0
C3160 C 0.03109 0.33681 0.62053 0.0
C3161 C 0.02846 0.32987 0.64029 0.0
C3162 C 0.04433 0.33756 0.60776 0.0
C3163 C 0.05557 0.33183 0.61527 0.0
C3164 C 0.05303 0.32496 0.63532 0.0
C3165 C 0.03927 0.32376 0.64747 0.0
C3166 C 0.04626 0.3444 0.58623 0.0
C3167 C 0.06507 0.31925 0.64411 0.0
C3168 C 0.08196 0.32 0.57887 0.0
C3169 C 0.09846 0.33596 0.57869 0.0
C3170 C 0.06775 0.31863 0.59024 0.0
C3171 C 0.07022 0.33335 0.60233 0.0
C3172 C 0.08681 0.34943 0.6024 0.0
C3173 C 0.10059 0.35065 0.59031 0.0
C3174 C 0.05011 0.30138 0.58939 0.0
C3175 C 0.09007 0.36531 0.61546 0.0
H3176 H 0.02259 0.34138 0.61495 0.0
H3177 H 0.03729 0.31852 0.66283 0.0
H3178 H 0.05932 0.35677 0.58441 0.0
H3179 H 0.04567 0.33439 0.57503 0.0
H3180 H 0.03582 0.34735 0.58236 0.0
H3181 H 0.06147 0.31448 0.66009 0.0
H3182 H 0.0646 0.3084 0.63453 0.0
H3183 H 0.07892 0.33063 0.64397 0.0
H3184 H 0.08012 0.30841 0.57033 0.0
H3185 H 0.11306 0.36322 0.58997 0.0
H3186 H 0.03957 0.30409 0.58524 0.0
H3187 H 0.04677 0.29515 0.6047 0.0
H3188 H 0.05001 0.29165 0.5781 0.0
H3189 H 0.08111 0.36997 0.61075 0.0
H3190 H 0.10391 0.37665 0.61431 0.0
H3191 H 0.08716 0.36139 0.63176 0.0
C3192 C 0.2971 0.34239 0.6366 0.0
C3193 C 0.29397 0.32699 0.64672 0.0
C3194 C 0.28403 0.3423 0.62451 0.0
C3195 C 0.26744 0.32636 0.62227 0.0
C3196 C 0.26418 0.31072 0.63239 0.0
C3197 C 0.27748 0.31125 0.6446 0.0
C3198 C 0.28799 0.35931 0.61416 0.0
C3199 C 0.24671 0.29345 0.63019 0.0
C3200 C 0.22972 0.33222 0.60553 0.0
C3201 C 0.22952 0.32948 0.58423 0.0
C3202 C 0.24166 0.33076 0.61817 0.0
C3203 C 0.25358 0.32624 0.60937 0.0
C3204 C 0.25305 0.32284 0.588 0.0
C3205 C 0.24111 0.32459 0.57568 0.0
C3206 C 0.24188 0.3346 0.64087 0.0
C3207 C 0.2655 0.3179 0.57806 0.0
H3208 H 0.30979 0.35463 0.63822 0.0
H3209 H 0.27502 0.29929 0.65232 0.0
H3210 H 0.28666 0.35718 0.5973 0.0
H3211 H 0.27831 0.36311 0.61917 0.0
H3212 H 0.3015 0.37062 0.61763 0.0
H3213 H 0.2463 0.28245 0.63893 0.0
H3214 H 0.23585 0.29535 0.63565 0.0
H3215 H 0.24413 0.28937 0.61378 0.0
H3216 H 0.22059 0.33564 0.61235 0.0
H3217 H 0.24122 0.32264 0.55924 0.0
H3218 H 0.25476 0.34651 0.64514 0.0
H3219 H 0.24044 0.32323 0.64978 0.0
H3220 H 0.23119 0.3371 0.64546 0.0
H3221 H 0.27926 0.32934 0.5793 0.0
H3222 H 0.26242 0.31423 0.56159 0.0
H3223 H 0.2649 0.30652 0.5861 0.0
C3224 C 0.65227 0.96746 0.62231 0.0
C3225 C 0.66188 0.97047 0.64041 0.0
C3226 C 0.64982 0.95393 0.60833 0.0
C3227 C 0.65689 0.94304 0.61284 0.0
C3228 C 0.6663 0.94586 0.6313 0.0
C3229 C 0.66882 0.95964 0.64475 0.0
C3230 C 0.63998 0.95148 0.58861 0.0
C3231 C 0.6738 0.93436 0.63686 0.0
C3232 C 0.63963 0.89735 0.58828 0.0
C3233 C 0.65348 0.90071 0.57491 0.0
C3234 C 0.64018 0.91119 0.60015 0.0
C3235 C 0.65479 0.92879 0.59829 0.0
C3236 C 0.66837 0.93237 0.58401 0.0
C3237 C 0.66764 0.91822 0.57263 0.0
C3238 C 0.6256 0.90679 0.61544 0.0
C3239 C 0.68401 0.95102 0.58133 0.0
H3240 H 0.64699 0.97591 0.61889 0.0
H3241 H 0.67617 0.96187 0.6588 0.0
H3242 H 0.64875 0.95353 0.57534 0.0
H3243 H 0.62854 0.93763 0.58735 0.0
H3244 H 0.63513 0.96091 0.58751 0.0
H3245 H 0.68019 0.93789 0.65218 0.0
H3246 H 0.66317 0.92008 0.63681 0.0
H3247 H 0.68373 0.93585 0.62527 0.0
H3248 H 0.62871 0.88377 0.59009 0.0
H3249 H 0.67823 0.92081 0.56207 0.0
H3250 H 0.62047 0.91591 0.61371 0.0
H3251 H 0.63092 0.90875 0.63123 0.0
H3252 H 0.61445 0.89279 0.61374 0.0
H3253 H 0.6795 0.96062 0.57923 0.0
H3254 H 0.69233 0.95188 0.568 0.0
H3255 H 0.69231 0.95523 0.59533 0.0
C3256 C 0.04141 0.68985 0.63101 0.0
C3257 C 0.03335 0.69684 0.64354 0.0
C3258 C 0.05611 0.7011 0.61884 0.0
C3259 C 0.06269 0.71971 0.61902 0.0
C3260 C 0.05438 0.72675 0.63137 0.0
C3261 C 0.0399 0.71525 0.6436 0.0
C3262 C 0.06476 0.69313 0.60605 0.0
C3263 C 0.06081 0.74648 0.63173 0.0
C3264 C 0.10996 0.75315 0.60361 0.0
C3265 C 0.10774 0.7574 0.58365 0.0
C3266 C 0.09548 0.74044 0.61504 0.0
C3267 C 0.07834 0.73192 0.60642 0.0
C3268 C 0.07605 0.73583 0.58613 0.0
C3269 C 0.09078 0.7484 0.57496 0.0
C3270 C 0.09847 0.73648 0.63656 0.0
C3271 C 0.05797 0.7271 0.57642 0.0
H3272 H 0.03643 0.67562 0.63099 0.0
H3273 H 0.03367 0.72072 0.65319 0.0
H3274 H 0.06483 0.69634 0.58967 0.0
H3275 H 0.07873 0.69907 0.61081 0.0
H3276 H 0.05796 0.67839 0.60751 0.0
H3277 H 0.05258 0.74974 0.64173 0.0
H3278 H 0.07464 0.75417 0.6373 0.0
H3279 H 0.06072 0.75102 0.61598 0.0
H3280 H 0.12295 0.76012 0.61056 0.0
H3281 H 0.08897 0.75128 0.55939 0.0
H3282 H 0.09242 0.72187 0.63846 0.0
H3283 H 0.09197 0.74101 0.64771 0.0
H3284 H 0.11272 0.74319 0.64045 0.0
H3285 H 0.05151 0.71235 0.5769 0.0
H3286 H 0.05852 0.73109 0.56024 0.0
H3287 H 0.0495 0.73082 0.58524 0.0
C3288 C 0.00688 0.63493 0.71829 0.0
C3289 C 0.99194 0.63159 0.70718 0.0
C3290 C 0.00682 0.62154 0.72988 0.0
C3291 C 0.99137 0.60441 0.7306 0.0
C3292 C 0.97618 0.60094 0.71953 0.0
C3293 C 0.97668 0.61457 0.70783 0.0
C3294 C 0.02335 0.62574 0.74129 0.0
C3295 C 0.9594 0.58289 0.72012 0.0
C3296 C 0.99776 0.56643 0.74622 0.0
C3297 C 0.99395 0.56522 0.76728 0.0
C3298 C 0.99657 0.57882 0.73399 0.0
C3299 C 0.99125 0.59019 0.74297 0.0
C3300 C 0.98687 0.58869 0.76406 0.0
C3301 C 0.98837 0.57632 0.77598 0.0
C3302 C 0.00145 0.58007 0.71158 0.0
C3303 C 0.98104 0.6005 0.77418 0.0
H3304 H 0.01876 0.64803 0.71779 0.0
H3305 H 0.96508 0.61192 0.69933 0.0
H3306 H 0.02055 0.62369 0.75795 0.0
H3307 H 0.02779 0.61651 0.73612 0.0
H3308 H 0.03433 0.63968 0.73896 0.0
H3309 H 0.94869 0.58239 0.71081 0.0
H3310 H 0.96198 0.57243 0.71431 0.0
H3311 H 0.95473 0.57954 0.73618 0.0
H3312 H 0.00175 0.55769 0.73925 0.0
H3313 H 0.9856 0.57568 0.79226 0.0
H3314 H 0.01307 0.59347 0.70847 0.0
H3315 H 0.99043 0.57849 0.70196 0.0
H3316 H 0.00466 0.56981 0.70676 0.0
H3317 H 0.99206 0.61461 0.774 0.0
H3318 H 0.97682 0.59675 0.79032 0.0
H3319 H 0.96993 0.59976 0.76553 0.0
C3320 C 0.35061 0.37089 0.7311 0.0
C3321 C 0.35729 0.36807 0.71277 0.0
C3322 C 0.36144 0.38538 0.7442 0.0
C3323 C 0.37922 0.3974 0.73858 0.0
C3324 C 0.38595 0.39461 0.72003 0.0
C3325 C 0.37495 0.37991 0.70745 0.0
C3326 C 0.35393 0.3878 0.76405 0.0
C3327 C 0.40478 0.40722 0.71337 0.0
C3328 C 0.40506 0.44468 0.76011 0.0
C3329 C 0.41667 0.44347 0.77351 0.0
C3330 C 0.3923 0.4296 0.74916 0.0
C3331 C 0.39099 0.41292 0.75199 0.0
C3332 C 0.40214 0.4115 0.76627 0.0
C3333 C 0.41498 0.42685 0.77672 0.0
C3334 C 0.38082 0.4317 0.73384 0.0
C3335 C 0.40093 0.39389 0.76998 0.0
H3336 H 0.33697 0.36171 0.73528 0.0
H3337 H 0.38016 0.37783 0.69325 0.0
H3338 H 0.36181 0.38776 0.77717 0.0
H3339 H 0.35479 0.40092 0.76432 0.0
H3340 H 0.33992 0.37714 0.76631 0.0
H3341 H 0.40783 0.40337 0.69825 0.0
H3342 H 0.40726 0.421 0.71238 0.0
H3343 H 0.41407 0.4075 0.7249 0.0
H3344 H 0.40643 0.45758 0.75763 0.0
H3345 H 0.42384 0.42591 0.78732 0.0
H3346 H 0.3667 0.42166 0.73653 0.0
H3347 H 0.38413 0.42929 0.71811 0.0
H3348 H 0.38259 0.44524 0.73456 0.0
H3349 H 0.38705 0.38332 0.77302 0.0
H3350 H 0.40923 0.39467 0.7831 0.0
H3351 H 0.40532 0.38973 0.75607 0.0
C3352 C 0.62873 0.99324 0.72169 0.0
C3353 C 0.64034 0.00893 0.71126 0.0
C3354 C 0.61561 0.99244 0.73468 0.0
C3355 C 0.61424 0.00778 0.73754 0.0
C3356 C 0.62618 0.02379 0.7274 0.0
C3357 C 0.63901 0.02413 0.71423 0.0
C3358 C 0.60296 0.97505 0.745 0.0
C3359 C 0.62529 0.04049 0.73034 0.0
C3360 C 0.56989 0.00076 0.75428 0.0
C3361 C 0.57224 0.00392 0.77551 0.0
C3362 C 0.58347 0.00202 0.74176 0.0
C3363 C 0.59993 0.00685 0.75061 0.0
C3364 C 0.60253 0.01037 0.77195 0.0
C3365 C 0.58862 0.00873 0.78417 0.0
C3366 C 0.58014 0.99802 0.71908 0.0
C3367 C 0.61998 0.01574 0.78189 0.0
H3368 H 0.62967 0.98144 0.71939 0.0
H3369 H 0.64804 0.03632 0.70629 0.0
H3370 H 0.6034 0.97708 0.76186 0.0
H3371 H 0.58925 0.97033 0.74 0.0
H3372 H 0.60599 0.96443 0.74143 0.0
H3373 H 0.63607 0.05207 0.72211 0.0
H3374 H 0.61244 0.03811 0.72469 0.0
H3375 H 0.62613 0.04399 0.74689 0.0
H3376 H 0.55744 0.99742 0.74735 0.0
H3377 H 0.59051 0.01099 0.80058 0.0
H3378 H 0.58216 0.98688 0.71465 0.0
H3379 H 0.58971 0.00983 0.71016 0.0
H3380 H 0.56656 0.99433 0.71463 0.0
H3381 H 0.62282 0.00482 0.77997 0.0
H3382 H 0.62011 0.01878 0.79852 0.0
H3383 H 0.63082 0.02767 0.77428 0.0
loop_
_geom_bond_atom_site_label_1
_geom_bond_atom_site_label_2
_geom_bond_distance
_geom_bond_site_symmetry_2
_ccdc_geom_bond_type
Co0 O1 2.216 . S
Co0 O2 2.091 . S
Co0 O4 2.004 1_554 S
Co0 O10 2.021 . S
Co0 O12 2.137 1_454 S
Co0 O13 2.244 1_455 S
O1 Co0 2.216 . S
O1 C8 1.247 . S
O2 Co0 2.091 . S
O2 C8 1.261 . S
C3 O12 1.247 . S
C3 O13 1.272 1_556 S
O4 Co0 2.004 1_556 S
O4 C9 1.259 . S
Co5 O6 2.061 1_554 S
Co5 O11 2.052 . S
Co5 O13 2.135 . S
O6 Co5 2.061 1_556 S
O6 C9 1.235 1_655 S
C7 O10 1.238 1_655 S
C7 O11 1.241 . S
C8 O1 1.247 . S
C8 O2 1.261 . S
C9 O4 1.259 . S
C9 O6 1.235 1_455 S
O10 Co0 2.021 . S
O10 C7 1.238 1_455 S
O11 Co5 2.052 . S
O11 C7 1.241 . S
O12 Co0 2.137 1_656 S
O12 C3 1.247 . S
O13 Co0 2.244 1_655 S
O13 C3 1.272 1_554 S
O13 Co5 2.135 . S
Co14 O15 2.216 1_554 S
Co14 O16 2.091 . S
Co14 O18 2.004 . S
Co14 O24 2.021 1_554 S
Co14 O26 2.137 . S
Co14 O27 2.244 . S
O15 Co14 2.216 1_556 S
O15 C22 1.247 . S
O16 Co14 2.091 . S
O16 C22 1.261 1_554 S
C17 O26 1.247 . S
C17 O27 1.272 . S
O18 Co14 2.004 . S
O18 C23 1.259 . S
Co19 O20 2.061 . S
Co19 O25 2.052 1_554 S
Co19 O27 2.135 . S
O20 Co19 2.061 . S
O20 C23 1.235 . S
C21 O24 1.238 . S
C21 O25 1.241 . S
C22 O15 1.247 . S
C22 O16 1.261 1_556 S
C23 O18 1.259 . S
C23 O20 1.235 . S
O24 Co14 2.021 1_556 S
O24 C21 1.238 . S
O25 Co19 2.052 1_556 S
O25 C21 1.241 . S
O26 Co14 2.137 . S
O26 C17 1.247 . S
O27 Co14 2.244 . S
O27 C17 1.272 . S
O27 Co19 2.135 . S
Co28 O29 2.216 1_554 S
Co28 O30 2.091 . S
Co28 O32 2.004 . S
Co28 O38 2.021 1_554 S
Co28 O40 2.136 . S
Co28 O41 2.244 1_545 S
O29 Co28 2.216 1_556 S
O29 C36 1.247 . S
O30 Co28 2.091 . S
O30 C36 1.261 1_554 S
C31 O40 1.228 1_565 S
C31 O41 1.272 . S
O32 Co28 2.004 . S
O32 C37 1.259 . S
Co33 O34 2.061 . S
Co33 O39 2.052 1_554 S
Co33 O41 2.135 . S
O34 Co33 2.061 . S
O34 C37 1.235 1_565 S
C35 O38 1.238 1_565 S
C35 O39 1.241 . S
C36 O29 1.247 . S
C36 O30 1.261 1_556 S
C37 O32 1.259 . S
C37 O34 1.235 1_545 S
O38 Co28 2.021 1_556 S
O38 C35 1.238 1_545 S
O39 Co33 2.052 1_556 S
O39 C35 1.241 . S
O40 Co28 2.136 . S
O40 C31 1.228 1_545 S
O41 Co28 2.244 1_565 S
O41 C31 1.272 . S
O41 Co33 2.135 . S
Co42 O43 2.216 1_554 S
Co42 O44 2.091 . S
Co42 O46 2.004 . S
Co42 O52 2.021 1_554 S
Co42 O54 2.137 1_655 S
Co42 O55 2.244 1_655 S
O43 Co42 2.216 1_556 S
O43 C50 1.247 . S
O44 Co42 2.091 . S
O44 C50 1.261 1_554 S
C45 O54 1.247 . S
C45 O55 1.272 . S
O46 Co42 2.004 . S
O46 C51 1.301 . S
Co47 O48 2.061 . S
Co47 O53 2.052 1_554 S
Co47 O55 2.135 . S
O48 Co47 2.061 . S
O48 C51 1.192 1_455 S
C49 O52 1.238 1_455 S
C49 O53 1.241 . S
C50 O43 1.247 . S
C50 O44 1.261 1_556 S
C51 O46 1.301 . S
C51 O48 1.192 1_655 S
O52 Co42 2.021 1_556 S
O52 C49 1.238 1_655 S
O53 Co47 2.052 1_556 S
O53 C49 1.241 . S
O54 Co42 2.137 1_455 S
O54 C45 1.247 . S
O55 Co42 2.244 1_455 S
O55 C45 1.272 . S
O55 Co47 2.135 . S
Co56 O57 2.216 . S
Co56 O58 2.091 . S
Co56 O60 2.004 1_554 S
Co56 O66 2.021 . S
Co56 O68 2.137 1_554 S
Co56 O69 2.234 1_554 S
O57 Co56 2.216 . S
O57 C64 1.247 . S
O58 Co56 2.091 . S
O58 C64 1.261 . S
C59 O68 1.247 . S
C59 O69 1.298 . S
O60 Co56 2.004 1_556 S
O60 C65 1.259 . S
Co61 O62 2.061 . S
Co61 O67 2.052 1_556 S
Co61 O69 2.138 . S
O62 Co61 2.061 . S
O62 C65 1.235 . S
C63 O66 1.238 . S
C63 O67 1.241 . S
C64 O57 1.247 . S
C64 O58 1.261 . S
C65 O60 1.259 . S
C65 O62 1.235 . S
O66 Co56 2.021 . S
O66 C63 1.238 . S
O67 Co61 2.052 1_554 S
O67 C63 1.241 . S
O68 Co56 2.137 1_556 S
O68 C59 1.247 . S
O69 Co56 2.234 1_556 S
O69 C59 1.298 . S
O69 Co61 2.138 . S
Co70 O71 2.216 . S
Co70 O72 2.091 . S
Co70 O74 2.004 1_554 S
Co70 O80 2.021 . S
Co70 O82 2.137 1_564 S
Co70 O83 2.244 1_565 S
O71 Co70 2.216 . S
O71 C78 1.247 . S
O72 Co70 2.091 . S
O72 C78 1.261 . S
C73 O82 1.247 . S
C73 O83 1.272 1_556 S
O74 Co70 2.004 1_556 S
O74 C79 1.302 . S
Co75 O76 2.061 1_554 S
Co75 O81 2.052 . S
Co75 O83 2.135 . S
O76 Co75 2.061 1_556 S
O76 C79 1.192 1_545 S
C77 O80 1.238 1_545 S
C77 O81 1.241 . S
C78 O71 1.247 . S
C78 O72 1.261 . S
C79 O74 1.302 . S
C79 O76 1.192 1_565 S
O80 Co70 2.021 . S
O80 C77 1.238 1_565 S
O81 Co75 2.052 . S
O81 C77 1.241 . S
O82 Co70 2.137 1_546 S
O82 C73 1.247 . S
O83 Co70 2.244 1_545 S
O83 C73 1.272 1_554 S
O83 Co75 2.135 . S
Co84 O85 2.216 . S
Co84 O86 2.091 . S
Co84 O88 2.004 . S
Co84 O94 2.021 . S
Co84 O96 2.137 . S
Co84 O97 2.244 . S
O85 Co84 2.216 . S
O85 C92 1.247 . S
O86 Co84 2.091 . S
O86 C92 1.261 . S
C87 O96 1.247 . S
C87 O97 1.272 . S
O88 Co84 2.004 . S
O88 C93 1.259 . S
Co89 O90 2.061 . S
Co89 O95 2.052 . S
Co89 O97 2.135 . S
O90 Co89 2.061 . S
O90 C93 1.235 . S
C91 O94 1.238 . S
C91 O95 1.241 . S
C92 O85 1.247 . S
C92 O86 1.261 . S
C93 O88 1.259 . S
C93 O90 1.235 . S
O94 Co84 2.021 . S
O94 C91 1.238 . S
O95 Co89 2.052 . S
O95 C91 1.241 . S
O96 Co84 2.137 . S
O96 C87 1.247 . S
O97 Co84 2.244 . S
O97 C87 1.272 . S
O97 Co89 2.135 . S
Co98 O99 2.215 1_565 S
Co98 O100 2.091 . S
Co98 O102 2.004 . S
Co98 O108 2.021 . S
Co98 O110 2.137 1_565 S
Co98 O111 2.244 1_565 S
O99 Co98 2.215 1_545 S
O99 C106 1.242 1_545 S
O100 Co98 2.091 . S
O100 C106 1.261 . S
C101 O110 1.247 . S
C101 O111 1.272 . S
O102 Co98 2.004 . S
O102 C107 1.259 . S
Co103 O104 2.061 . S
Co103 O109 2.052 . S
Co103 O111 2.135 1_565 S
O104 Co103 2.061 . S
O104 C107 1.235 . S
C105 O108 1.238 . S
C105 O109 1.241 . S
C106 O99 1.242 1_565 S
C106 O100 1.261 . S
C107 O102 1.259 . S
C107 O104 1.235 . S
O108 Co98 2.021 . S
O108 C105 1.238 . S
O109 Co103 2.052 . S
O109 C105 1.241 . S
O110 Co98 2.137 1_545 S
O110 C101 1.247 . S
O111 Co98 2.244 1_545 S
O111 C101 1.272 . S
O111 Co103 2.135 1_545 S
Co112 O113 2.216 . S
Co112 O114 2.091 . S
Co112 O116 2.004 . S
Co112 O122 2.021 . S
Co112 O124 2.137 1_455 S
Co112 O125 2.244 . S
O113 Co112 2.216 . S
O113 C120 1.247 . S
O114 Co112 2.091 . S
O114 C120 1.261 . S
C115 O124 1.247 . S
C115 O125 1.272 1_655 S
O116 Co112 2.004 . S
O116 C121 1.259 . S
Co117 O118 2.061 . S
Co117 O123 2.052 . S
Co117 O125 2.135 . S
O118 Co117 2.061 . S
O118 C121 1.235 . S
C119 O122 1.238 . S
C119 O123 1.241 . S
C120 O113 1.247 . S
C120 O114 1.261 . S
C121 O116 1.259 . S
C121 O118 1.235 . S
O122 Co112 2.021 . S
O122 C119 1.238 . S
O123 Co117 2.052 . S
O123 C119 1.241 . S
O124 Co112 2.137 1_655 S
O124 C115 1.247 . S
O125 Co112 2.244 . S
O125 C115 1.272 1_455 S
O125 Co117 2.135 . S
Co126 O127 2.232 . S
Co126 O128 2.091 . S
Co126 O130 2.004 . S
Co126 O136 2.021 . S
Co126 O138 2.137 1_565 S
Co126 O139 2.244 1_565 S
O127 Co126 2.232 . S
O127 C134 1.247 . S
O128 Co126 2.091 . S
O128 C134 1.261 . S
C129 O138 1.247 . S
C129 O139 1.272 . S
O130 Co126 2.004 . S
O130 C135 1.259 . S
Co131 O132 2.061 . S
Co131 O137 2.052 . S
Co131 O139 2.135 1_565 S
O132 Co131 2.061 . S
O132 C135 1.235 . S
C133 O136 1.238 . S
C133 O137 1.241 . S
C134 O127 1.247 . S
C134 O128 1.261 . S
C135 O130 1.259 . S
C135 O132 1.235 . S
O136 Co126 2.021 . S
O136 C133 1.238 . S
O137 Co131 2.052 . S
O137 C133 1.241 . S
O138 Co126 2.137 1_545 S
O138 C129 1.247 . S
O139 Co126 2.244 1_545 S
O139 C129 1.272 . S
O139 Co131 2.135 1_545 S
Co140 O141 2.216 1_455 S
Co140 O142 2.091 1_455 S
Co140 O144 2.004 . S
Co140 O150 2.021 . S
Co140 O152 2.137 1_455 S
Co140 O153 2.244 . S
O141 Co140 2.216 1_655 S
O141 C148 1.247 . S
O142 Co140 2.091 1_655 S
O142 C148 1.261 . S
C143 O152 1.247 1_455 S
C143 O153 1.272 . S
O144 Co140 2.004 . S
O144 C149 1.259 . S
Co145 O146 2.061 . S
Co145 O151 2.052 . S
Co145 O153 2.135 . S
O146 Co145 2.061 . S
O146 C149 1.235 . S
C147 O150 1.238 . S
C147 O151 1.241 . S
C148 O141 1.247 . S
C148 O142 1.261 . S
C149 O144 1.259 . S
C149 O146 1.235 . S
O150 Co140 2.021 . S
O150 C147 1.238 . S
O151 Co145 2.052 . S
O151 C147 1.241 . S
O152 Co140 2.137 1_655 S
O152 C143 1.247 1_655 S
O153 Co140 2.244 . S
O153 C143 1.272 . S
O153 Co145 2.135 . S
Co154 O155 2.216 . S
Co154 O156 2.091 . S
Co154 O158 2.004 . S
Co154 O164 2.021 . S
Co154 O166 2.137 . S
Co154 O167 2.244 . S
O155 Co154 2.216 . S
O155 C162 1.247 . S
O156 Co154 2.091 . S
O156 C162 1.261 . S
C157 O166 1.247 . S
C157 O167 1.272 . S
O158 Co154 2.004 . S
O158 C163 1.259 . S
Co159 O160 2.061 . S
Co159 O165 2.052 . S
Co159 O167 2.135 . S
O160 Co159 2.061 . S
O160 C163 1.235 . S
C161 O164 1.238 . S
C161 O165 1.241 . S
C162 O155 1.247 . S
C162 O156 1.261 . S
C163 O158 1.259 . S
C163 O160 1.235 . S
O164 Co154 2.021 . S
O164 C161 1.238 . S
O165 Co159 2.052 . S
O165 C161 1.241 . S
O166 Co154 2.137 . S
O166 C157 1.247 . S
O167 Co154 2.244 . S
O167 C157 1.272 . S
O167 Co159 2.135 . S
Co168 O169 2.216 . S
Co168 O170 2.091 . S
Co168 O172 2.004 . S
Co168 O178 2.021 . S
Co168 O180 2.137 1_545 S
Co168 O181 2.248 . S
O169 Co168 2.216 . S
O169 C176 1.247 . S
O170 Co168 2.091 . S
O170 C176 1.261 . S
C171 O180 1.247 . S
C171 O181 1.248 1_565 S
O172 Co168 2.004 . S
O172 C177 1.259 . S
Co173 O174 2.061 . S
Co173 O179 2.052 . S
Co173 O181 2.161 . S
O174 Co173 2.061 . S
O174 C177 1.235 . S
C175 O178 1.238 . S
C175 O179 1.241 . S
C176 O169 1.247 . S
C176 O170 1.261 . S
C177 O172 1.259 . S
C177 O174 1.235 . S
O178 Co168 2.021 . S
O178 C175 1.238 . S
O179 Co173 2.052 . S
O179 C175 1.241 . S
O180 Co168 2.137 1_565 S
O180 C171 1.247 . S
O181 Co168 2.248 . S
O181 C171 1.248 1_545 S
O181 Co173 2.161 . S
Co182 O183 2.216 1_655 S
Co182 O184 2.091 1_655 S
Co182 O186 2.004 . S
Co182 O192 2.021 . S
Co182 O194 2.137 1_655 S
Co182 O195 2.244 . S
O183 Co182 2.216 1_455 S
O183 C190 1.247 . S
O184 Co182 2.091 1_455 S
O184 C190 1.261 . S
C185 O194 1.247 1_655 S
C185 O195 1.272 . S
O186 Co182 2.004 . S
O186 C191 1.259 . S
Co187 O188 2.061 . S
Co187 O193 2.052 . S
Co187 O195 2.135 . S
O188 Co187 2.061 . S
O188 C191 1.235 . S
C189 O192 1.238 . S
C189 O193 1.241 . S
C190 O183 1.247 . S
C190 O184 1.261 . S
C191 O186 1.259 . S
C191 O188 1.235 . S
O192 Co182 2.021 . S
O192 C189 1.238 . S
O193 Co187 2.052 . S
O193 C189 1.241 . S
O194 Co182 2.137 1_455 S
O194 C185 1.247 1_455 S
O195 Co182 2.244 . S
O195 C185 1.272 . S
O195 Co187 2.135 . S
Co196 O197 2.216 . S
Co196 O198 2.091 . S
Co196 O200 2.004 . S
Co196 O206 2.021 . S
Co196 O208 2.137 . S
Co196 O209 2.244 . S
O197 Co196 2.216 . S
O197 C204 1.247 . S
O198 Co196 2.091 . S
O198 C204 1.261 . S
C199 O208 1.247 . S
C199 O209 1.272 . S
O200 Co196 2.004 . S
O200 C205 1.259 . S
Co201 O202 2.061 . S
Co201 O207 2.052 . S
Co201 O209 2.135 . S
O202 Co201 2.061 . S
O202 C205 1.235 . S
C203 O206 1.238 . S
C203 O207 1.241 . S
C204 O197 1.247 . S
C204 O198 1.261 . S
C205 O200 1.259 . S
C205 O202 1.235 . S
O206 Co196 2.021 . S
O206 C203 1.238 . S
O207 Co201 2.052 . S
O207 C203 1.241 . S
O208 Co196 2.137 . S
O208 C199 1.247 . S
O209 Co196 2.244 . S
O209 C199 1.272 . S
O209 Co201 2.135 . S
Co210 O211 2.216 . S
Co210 O212 2.091 . S
Co210 O214 2.004 . S
Co210 O220 2.021 . S
Co210 O222 2.137 . S
Co210 O223 2.244 . S
O211 Co210 2.216 . S
O211 C218 1.247 . S
O212 Co210 2.091 . S
O212 C218 1.261 . S
C213 O222 1.247 . S
C213 O223 1.272 . S
O214 Co210 2.004 . S
O214 C219 1.259 . S
Co215 O216 2.061 . S
Co215 O221 2.052 . S
Co215 O223 2.135 . S
O216 Co215 2.061 . S
O216 C219 1.235 . S
C217 O220 1.238 . S
C217 O221 1.241 . S
C218 O211 1.247 . S
C218 O212 1.261 . S
C219 O214 1.259 . S
C219 O216 1.235 . S
O220 Co210 2.021 . S
O220 C217 1.238 . S
O221 Co215 2.052 . S
O221 C217 1.241 . S
O222 Co210 2.137 . S
O222 C213 1.247 . S
O223 Co210 2.244 . S
O223 C213 1.272 . S
O223 Co215 2.135 . S
Co224 O225 2.216 . S
Co224 O226 2.091 . S
Co224 O228 2.004 . S
Co224 O234 2.021 . S
Co224 O236 2.137 1_545 S
Co224 O237 2.240 . S
O225 Co224 2.216 . S
O225 C232 1.247 . S
O226 Co224 2.091 . S
O226 C232 1.261 . S
C227 O236 1.247 . S
C227 O237 1.272 1_565 S
O228 Co224 2.004 . S
O228 C233 1.259 . S
Co229 O230 2.061 . S
Co229 O235 2.052 . S
Co229 O237 2.134 . S
O230 Co229 2.061 . S
O230 C233 1.235 . S
C231 O234 1.238 . S
C231 O235 1.241 . S
C232 O225 1.247 . S
C232 O226 1.261 . S
C233 O228 1.259 . S
C233 O230 1.235 . S
O234 Co224 2.021 . S
O234 C231 1.238 . S
O235 Co229 2.052 . S
O235 C231 1.241 . S
O236 Co224 2.137 1_565 S
O236 C227 1.247 . S
O237 Co224 2.240 . S
O237 C227 1.272 1_545 S
O237 Co229 2.134 . S
Co238 O239 2.216 . S
Co238 O240 2.091 . S
Co238 O242 2.004 . S
Co238 O248 2.021 . S
Co238 O250 2.137 1_655 S
Co238 O251 2.248 . S
O239 Co238 2.216 . S
O239 C246 1.247 . S
O240 Co238 2.091 . S
O240 C246 1.261 . S
C241 O250 1.247 . S
C241 O251 1.251 1_455 S
O242 Co238 2.004 . S
O242 C247 1.259 . S
Co243 O244 2.061 . S
Co243 O249 2.052 . S
Co243 O251 2.158 . S
O244 Co243 2.061 . S
O244 C247 1.235 . S
C245 O248 1.238 . S
C245 O249 1.241 . S
C246 O239 1.247 . S
C246 O240 1.261 . S
C247 O242 1.259 . S
C247 O244 1.235 . S
O248 Co238 2.021 . S
O248 C245 1.238 . S
O249 Co243 2.052 . S
O249 C245 1.241 . S
O250 Co238 2.137 1_455 S
O250 C241 1.247 . S
O251 Co238 2.248 . S
O251 C241 1.251 1_655 S
O251 Co243 2.158 . S
C252 C253 1.384 . S
C252 C254 1.384 . S
C252 H280 0.931 . S
C253 C252 1.384 . S
C253 C256 1.382 . S
C254 C252 1.384 . S
C254 C255 1.381 . S
C254 H281 0.930 . S
C255 C254 1.381 . S
C255 C257 1.381 . S
C255 C258 1.487 . S
C256 C253 1.382 . S
C256 C257 1.387 . S
C256 H282 0.930 . S
C257 C255 1.381 . S
C257 C256 1.387 . S
C257 H283 0.931 . S
C258 C255 1.487 . S
C258 C265 1.399 . S
C258 N296 1.343 . S
C259 C260 1.384 . S
C259 C261 1.384 . S
C259 H284 0.931 . S
C260 C259 1.384 . S
C260 C263 1.382 . S
C261 C259 1.384 . S
C261 C262 1.381 . S
C261 H285 0.930 . S
C262 C261 1.381 . S
C262 C264 1.381 . S
C262 C265 1.487 . S
C263 C260 1.382 . S
C263 C264 1.387 . S
C263 H286 0.930 . S
C264 C262 1.381 . S
C264 C263 1.387 . S
C264 H287 0.931 . S
C265 C258 1.399 . S
C265 C262 1.487 . S
C265 N297 1.343 . S
C266 C267 1.384 . S
C266 C268 1.384 . S
C266 H288 0.931 . S
C267 C266 1.384 . S
C267 C270 1.382 . S
C268 C266 1.384 . S
C268 C269 1.381 . S
C268 H289 0.930 . S
C269 C268 1.381 . S
C269 C271 1.381 . S
C269 C272 1.487 . S
C270 C267 1.382 . S
C270 C271 1.387 . S
C270 H290 0.930 . S
C271 C269 1.381 . S
C271 C270 1.387 . S
C271 H291 0.931 . S
C272 C269 1.487 . S
C272 C279 1.399 . S
C272 N297 1.343 . S
C273 C274 1.384 . S
C273 C275 1.384 . S
C273 H292 0.931 . S
C274 C273 1.384 . S
C274 C277 1.382 . S
C275 C273 1.384 . S
C275 C276 1.381 . S
C275 H293 0.930 . S
C276 C275 1.381 . S
C276 C278 1.381 . S
C276 C279 1.487 . S
C277 C274 1.382 . S
C277 C278 1.387 . S
C277 H294 0.930 . S
C278 C276 1.381 . S
C278 C277 1.387 . S
C278 H295 0.931 . S
C279 C272 1.399 . S
C279 C276 1.487 . S
C279 N296 1.343 . S
H280 C252 0.931 . S
H281 C254 0.930 . S
H282 C256 0.930 . S
H283 C257 0.931 . S
H284 C259 0.931 . S
H285 C261 0.930 . S
H286 C263 0.930 . S
H287 C264 0.931 . S
H288 C266 0.931 . S
H289 C268 0.930 . S
H290 C270 0.930 . S
H291 C271 0.931 . S
H292 C273 0.931 . S
H293 C275 0.930 . S
H294 C277 0.930 . S
H295 C278 0.931 . S
N296 C258 1.343 . S
N296 C279 1.343 . S
N297 C265 1.343 . S
N297 C272 1.343 . S
C298 C299 1.384 . S
C298 C300 1.384 . S
C298 H326 0.931 . S
C299 C298 1.384 . S
C299 C302 1.382 . S
C300 C298 1.384 . S
C300 C301 1.381 . S
C300 H327 0.930 . S
C301 C300 1.381 . S
C301 C303 1.381 . S
C301 C304 1.487 . S
C302 C299 1.382 . S
C302 C303 1.387 . S
C302 H328 0.930 . S
C303 C301 1.381 . S
C303 C302 1.387 . S
C303 H329 0.931 . S
C304 C301 1.487 . S
C304 C311 1.399 . S
C304 N342 1.343 . S
C305 C306 1.384 . S
C305 C307 1.384 . S
C305 H330 0.931 . S
C306 C305 1.384 . S
C306 C309 1.382 . S
C307 C305 1.384 . S
C307 C308 1.381 . S
C307 H331 0.930 . S
C308 C307 1.381 . S
C308 C310 1.381 . S
C308 C311 1.487 . S
C309 C306 1.382 . S
C309 C310 1.387 . S
C309 H332 0.930 . S
C310 C308 1.381 . S
C310 C309 1.387 . S
C310 H333 0.931 . S
C311 C304 1.399 . S
C311 C308 1.487 . S
C311 N343 1.343 . S
C312 C313 1.384 . S
C312 C314 1.384 . S
C312 H334 0.931 . S
C313 C312 1.384 . S
C313 C316 1.382 . S
C314 C312 1.384 . S
C314 C315 1.381 . S
C314 H335 0.930 . S
C315 C314 1.381 . S
C315 C317 1.381 . S
C315 C318 1.487 . S
C316 C313 1.382 . S
C316 C317 1.387 . S
C316 H336 0.930 . S
C317 C315 1.381 . S
C317 C316 1.387 . S
C317 H337 0.931 . S
C318 C315 1.487 . S
C318 C325 1.399 . S
C318 N343 1.343 . S
C319 C320 1.384 . S
C319 C321 1.384 . S
C319 H338 0.931 . S
C320 C319 1.384 . S
C320 C323 1.382 . S
C321 C319 1.384 . S
C321 C322 1.381 . S
C321 H339 0.930 . S
C322 C321 1.381 . S
C322 C324 1.381 . S
C322 C325 1.487 . S
C323 C320 1.382 . S
C323 C324 1.387 . S
C323 H340 0.930 . S
C324 C322 1.381 . S
C324 C323 1.387 . S
C324 H341 0.931 . S
C325 C318 1.399 . S
C325 C322 1.487 . S
C325 N342 1.343 . S
H326 C298 0.931 . S
H327 C300 0.930 . S
H328 C302 0.930 . S
H329 C303 0.931 . S
H330 C305 0.931 . S
H331 C307 0.930 . S
H332 C309 0.930 . S
H333 C310 0.931 . S
H334 C312 0.931 . S
H335 C314 0.930 . S
H336 C316 0.930 . S
H337 C317 0.931 . S
H338 C319 0.931 . S
H339 C321 0.930 . S
H340 C323 0.930 . S
H341 C324 0.931 . S
N342 C304 1.343 . S
N342 C325 1.343 . S
N343 C311 1.343 . S
N343 C318 1.343 . S
C344 C345 1.384 . S
C344 C346 1.384 . S
C344 H372 0.931 . S
C345 C344 1.384 . S
C345 C348 1.382 . S
C346 C344 1.384 . S
C346 C347 1.381 . S
C346 H373 0.930 . S
C347 C346 1.381 . S
C347 C349 1.381 . S
C347 C350 1.487 . S
C348 C345 1.382 . S
C348 C349 1.387 . S
C348 H374 0.930 . S
C349 C347 1.381 . S
C349 C348 1.387 . S
C349 H375 0.931 . S
C350 C347 1.487 . S
C350 C357 1.399 . S
C350 N388 1.343 . S
C351 C352 1.384 . S
C351 C353 1.384 . S
C351 H376 0.931 . S
C352 C351 1.384 . S
C352 C355 1.382 . S
C353 C351 1.384 . S
C353 C354 1.381 . S
C353 H377 0.930 . S
C354 C353 1.381 . S
C354 C356 1.381 . S
C354 C357 1.487 . S
C355 C352 1.382 . S
C355 C356 1.387 . S
C355 H378 0.930 . S
C356 C354 1.381 . S
C356 C355 1.387 . S
C356 H379 0.931 . S
C357 C350 1.399 . S
C357 C354 1.487 . S
C357 N389 1.343 . S
C358 C359 1.384 . S
C358 C360 1.384 . S
C358 H380 0.931 . S
C359 C358 1.384 . S
C359 C362 1.382 . S
C360 C358 1.384 . S
C360 C361 1.381 . S
C360 H381 0.930 . S
C361 C360 1.381 . S
C361 C363 1.381 . S
C361 C364 1.487 . S
C362 C359 1.382 . S
C362 C363 1.387 . S
C362 H382 0.930 . S
C363 C361 1.381 . S
C363 C362 1.387 . S
C363 H383 0.931 . S
C364 C361 1.487 . S
C364 C371 1.399 . S
C364 N389 1.343 . S
C365 C366 1.384 . S
C365 C367 1.384 . S
C365 H384 0.931 . S
C366 C365 1.384 . S
C366 C369 1.382 . S
C367 C365 1.384 . S
C367 C368 1.381 . S
C367 H385 0.930 . S
C368 C367 1.381 . S
C368 C370 1.381 . S
C368 C371 1.487 . S
C369 C366 1.382 . S
C369 C370 1.387 . S
C369 H386 0.930 . S
C370 C368 1.381 . S
C370 C369 1.387 . S
C370 H387 0.931 . S
C371 C364 1.399 . S
C371 C368 1.487 . S
C371 N388 1.343 . S
H372 C344 0.931 . S
H373 C346 0.930 . S
H374 C348 0.930 . S
H375 C349 0.931 . S
H376 C351 0.931 . S
H377 C353 0.930 . S
H378 C355 0.930 . S
H379 C356 0.931 . S
H380 C358 0.931 . S
H381 C360 0.930 . S
H382 C362 0.930 . S
H383 C363 0.931 . S
H384 C365 0.931 . S
H385 C367 0.930 . S
H386 C369 0.930 . S
H387 C370 0.931 . S
N388 C350 1.343 . S
N388 C371 1.343 . S
N389 C357 1.343 . S
N389 C364 1.343 . S
C390 C391 1.384 . S
C390 C392 1.384 . S
C390 H418 0.931 . S
C391 C390 1.384 . S
C391 C394 1.382 . S
C392 C390 1.384 . S
C392 C393 1.381 . S
C392 H419 0.930 . S
C393 C392 1.381 . S
C393 C395 1.381 . S
C393 C396 1.487 . S
C394 C391 1.382 . S
C394 C395 1.387 . S
C394 H420 0.930 . S
C395 C393 1.381 . S
C395 C394 1.387 . S
C395 H421 0.931 . S
C396 C393 1.487 . S
C396 C403 1.399 . S
C396 N434 1.343 . S
C397 C398 1.384 . S
C397 C399 1.384 . S
C397 H422 0.931 . S
C398 C397 1.384 . S
C398 C401 1.382 . S
C399 C397 1.384 . S
C399 C400 1.381 . S
C399 H423 0.930 . S
C400 C399 1.381 . S
C400 C402 1.381 . S
C400 C403 1.487 . S
C401 C398 1.382 . S
C401 C402 1.387 . S
C401 H424 0.930 . S
C402 C400 1.381 . S
C402 C401 1.387 . S
C402 H425 0.931 . S
C403 C396 1.399 . S
C403 C400 1.487 . S
C403 N435 1.343 . S
C404 C405 1.384 . S
C404 C406 1.384 . S
C404 H426 0.931 . S
C405 C404 1.384 . S
C405 C408 1.382 . S
C406 C404 1.384 . S
C406 C407 1.381 . S
C406 H427 0.930 . S
C407 C406 1.381 . S
C407 C409 1.381 . S
C407 C410 1.487 . S
C408 C405 1.382 . S
C408 C409 1.387 . S
C408 H428 0.930 . S
C409 C407 1.381 . S
C409 C408 1.387 . S
C409 H429 0.931 . S
C410 C407 1.487 . S
C410 C417 1.399 . S
C410 N435 1.343 . S
C411 C412 1.384 . S
C411 C413 1.384 . S
C411 H430 0.931 . S
C412 C411 1.384 . S
C412 C415 1.382 . S
C413 C411 1.384 . S
C413 C414 1.381 . S
C413 H431 0.930 . S
C414 C413 1.381 . S
C414 C416 1.381 . S
C414 C417 1.487 . S
C415 C412 1.382 . S
C415 C416 1.387 . S
C415 H432 0.930 . S
C416 C414 1.381 . S
C416 C415 1.387 . S
C416 H433 0.931 . S
C417 C410 1.399 . S
C417 C414 1.487 . S
C417 N434 1.343 . S
H418 C390 0.931 . S
H419 C392 0.930 . S
H420 C394 0.930 . S
H421 C395 0.931 . S
H422 C397 0.931 . S
H423 C399 0.930 . S
H424 C401 0.930 . S
H425 C402 0.931 . S
H426 C404 0.931 . S
H427 C406 0.930 . S
H428 C408 0.930 . S
H429 C409 0.931 . S
H430 C411 0.931 . S
H431 C413 0.930 . S
H432 C415 0.930 . S
H433 C416 0.931 . S
N434 C396 1.343 . S
N434 C417 1.343 . S
N435 C403 1.343 . S
N435 C410 1.343 . S
C436 C437 1.384 . S
C436 C438 1.384 . S
C436 H464 0.931 . S
C437 C436 1.384 . S
C437 C440 1.382 . S
C438 C436 1.384 . S
C438 C439 1.381 . S
C438 H465 0.930 . S
C439 C438 1.381 . S
C439 C441 1.381 . S
C439 C442 1.487 . S
C440 C437 1.382 . S
C440 C441 1.387 . S
C440 H466 0.930 . S
C441 C439 1.381 . S
C441 C440 1.387 . S
C441 H467 0.931 . S
C442 C439 1.487 . S
C442 C449 1.399 . S
C442 N480 1.343 . S
C443 C444 1.384 . S
C443 C445 1.384 . S
C443 H468 0.931 . S
C444 C443 1.384 . S
C444 C447 1.382 . S
C445 C443 1.384 . S
C445 C446 1.381 . S
C445 H469 0.930 . S
C446 C445 1.381 . S
C446 C448 1.381 . S
C446 C449 1.487 . S
C447 C444 1.382 . S
C447 C448 1.387 . S
C447 H470 0.930 . S
C448 C446 1.381 . S
C448 C447 1.387 . S
C448 H471 0.931 . S
C449 C442 1.399 . S
C449 C446 1.487 . S
C449 N481 1.343 . S
C450 C451 1.384 . S
C450 C452 1.384 . S
C450 H472 0.931 . S
C451 C450 1.384 . S
C451 C454 1.382 . S
C452 C450 1.384 . S
C452 C453 1.381 . S
C452 H473 0.930 . S
C453 C452 1.381 . S
C453 C455 1.381 . S
C453 C456 1.487 . S
C454 C451 1.382 . S
C454 C455 1.387 . S
C454 H474 0.930 . S
C455 C453 1.381 . S
C455 C454 1.387 . S
C455 H475 0.931 . S
C456 C453 1.487 . S
C456 C463 1.399 . S
C456 N481 1.343 . S
C457 C458 1.384 . S
C457 C459 1.384 . S
C457 H476 0.931 . S
C458 C457 1.384 . S
C458 C461 1.382 . S
C459 C457 1.384 . S
C459 C460 1.381 . S
C459 H477 0.930 . S
C460 C459 1.381 . S
C460 C462 1.381 . S
C460 C463 1.487 . S
C461 C458 1.382 . S
C461 C462 1.387 . S
C461 H478 0.930 . S
C462 C460 1.381 . S
C462 C461 1.387 . S
C462 H479 0.931 . S
C463 C456 1.399 . S
C463 C460 1.487 . S
C463 N480 1.343 . S
H464 C436 0.931 . S
H465 C438 0.930 . S
H466 C440 0.930 . S
H467 C441 0.931 . S
H468 C443 0.931 . S
H469 C445 0.930 . S
H470 C447 0.930 . S
H471 C448 0.931 . S
H472 C450 0.931 . S
H473 C452 0.930 . S
H474 C454 0.930 . S
H475 C455 0.931 . S
H476 C457 0.931 . S
H477 C459 0.930 . S
H478 C461 0.930 . S
H479 C462 0.931 . S
N480 C442 1.343 . S
N480 C463 1.343 . S
N481 C449 1.343 . S
N481 C456 1.343 . S
C482 C483 1.384 . S
C482 C484 1.384 . S
C482 H510 0.931 . S
C483 C482 1.384 . S
C483 C486 1.382 . S
C484 C482 1.384 . S
C484 C485 1.381 . S
C484 H511 0.930 . S
C485 C484 1.381 . S
C485 C487 1.381 . S
C485 C488 1.487 . S
C486 C483 1.382 . S
C486 C487 1.387 . S
C486 H512 0.930 . S
C487 C485 1.381 . S
C487 C486 1.387 . S
C487 H513 0.931 . S
C488 C485 1.487 . S
C488 C495 1.399 . S
C488 N526 1.343 . S
C489 C490 1.384 . S
C489 C491 1.384 . S
C489 H514 0.931 . S
C490 C489 1.384 . S
C490 C493 1.382 . S
C491 C489 1.384 . S
C491 C492 1.381 . S
C491 H515 0.930 . S
C492 C491 1.381 . S
C492 C494 1.381 . S
C492 C495 1.487 . S
C493 C490 1.382 . S
C493 C494 1.387 . S
C493 H516 0.930 . S
C494 C492 1.381 . S
C494 C493 1.387 . S
C494 H517 0.931 . S
C495 C488 1.399 . S
C495 C492 1.487 . S
C495 N527 1.343 . S
C496 C497 1.384 . S
C496 C498 1.384 . S
C496 H518 0.931 . S
C497 C496 1.384 . S
C497 C500 1.382 . S
C498 C496 1.384 . S
C498 C499 1.381 . S
C498 H519 0.930 . S
C499 C498 1.381 . S
C499 C501 1.381 . S
C499 C502 1.487 . S
C500 C497 1.382 . S
C500 C501 1.387 . S
C500 H520 0.930 . S
C501 C499 1.381 . S
C501 C500 1.387 . S
C501 H521 0.931 . S
C502 C499 1.487 . S
C502 C509 1.399 . S
C502 N527 1.343 . S
C503 C504 1.384 . S
C503 C505 1.384 . S
C503 H522 0.931 . S
C504 C503 1.384 . S
C504 C507 1.382 . S
C505 C503 1.384 . S
C505 C506 1.381 . S
C505 H523 0.930 . S
C506 C505 1.381 . S
C506 C508 1.381 . S
C506 C509 1.487 . S
C507 C504 1.382 . S
C507 C508 1.387 . S
C507 H524 0.930 . S
C508 C506 1.381 . S
C508 C507 1.387 . S
C508 H525 0.931 . S
C509 C502 1.399 . S
C509 C506 1.487 . S
C509 N526 1.343 . S
H510 C482 0.931 . S
H511 C484 0.930 . S
H512 C486 0.930 . S
H513 C487 0.931 . S
H514 C489 0.931 . S
H515 C491 0.930 . S
H516 C493 0.930 . S
H517 C494 0.931 . S
H518 C496 0.931 . S
H519 C498 0.930 . S
H520 C500 0.930 . S
H521 C501 0.931 . S
H522 C503 0.931 . S
H523 C505 0.930 . S
H524 C507 0.930 . S
H525 C508 0.931 . S
N526 C488 1.343 . S
N526 C509 1.343 . S
N527 C495 1.343 . S
N527 C502 1.343 . S
C528 C529 1.384 . S
C528 C530 1.384 . S
C528 H556 0.931 . S
C529 C528 1.384 . S
C529 C532 1.382 . S
C530 C528 1.384 . S
C530 C531 1.381 . S
C530 H557 0.930 . S
C531 C530 1.381 . S
C531 C533 1.381 . S
C531 C534 1.487 . S
C532 C529 1.382 . S
C532 C533 1.387 . S
C532 H558 0.930 . S
C533 C531 1.381 . S
C533 C532 1.387 . S
C533 H559 0.931 . S
C534 C531 1.487 . S
C534 C541 1.399 . S
C534 N572 1.343 . S
C535 C536 1.384 . S
C535 C537 1.384 . S
C535 H560 0.931 . S
C536 C535 1.384 . S
C536 C539 1.382 . S
C537 C535 1.384 . S
C537 C538 1.381 . S
C537 H561 0.930 . S
C538 C537 1.381 . S
C538 C540 1.381 . S
C538 C541 1.487 . S
C539 C536 1.382 . S
C539 C540 1.387 . S
C539 H562 0.930 . S
C540 C538 1.381 . S
C540 C539 1.387 . S
C540 H563 0.931 . S
C541 C534 1.399 . S
C541 C538 1.487 . S
C541 N573 1.343 . S
C542 C543 1.384 . S
C542 C544 1.384 . S
C542 H564 0.931 . S
C543 C542 1.384 . S
C543 C546 1.382 . S
C544 C542 1.384 . S
C544 C545 1.381 . S
C544 H565 0.930 . S
C545 C544 1.381 . S
C545 C547 1.381 . S
C545 C548 1.487 . S
C546 C543 1.382 . S
C546 C547 1.387 . S
C546 H566 0.930 . S
C547 C545 1.381 . S
C547 C546 1.387 . S
C547 H567 0.931 . S
C548 C545 1.487 . S
C548 C555 1.399 . S
C548 N573 1.343 . S
C549 C550 1.384 . S
C549 C551 1.384 . S
C549 H568 0.931 . S
C550 C549 1.384 . S
C550 C553 1.382 . S
C551 C549 1.384 . S
C551 C552 1.381 . S
C551 H569 0.930 . S
C552 C551 1.381 . S
C552 C554 1.381 . S
C552 C555 1.487 . S
C553 C550 1.382 . S
C553 C554 1.387 . S
C553 H570 0.930 . S
C554 C552 1.381 . S
C554 C553 1.387 . S
C554 H571 0.931 . S
C555 C548 1.399 . S
C555 C552 1.487 . S
C555 N572 1.343 . S
H556 C528 0.931 . S
H557 C530 0.930 . S
H558 C532 0.930 . S
H559 C533 0.931 . S
H560 C535 0.931 . S
H561 C537 0.930 . S
H562 C539 0.930 . S
H563 C540 0.931 . S
H564 C542 0.931 . S
H565 C544 0.930 . S
H566 C546 0.930 . S
H567 C547 0.931 . S
H568 C549 0.931 . S
H569 C551 0.930 . S
H570 C553 0.930 . S
H571 C554 0.931 . S
N572 C534 1.343 . S
N572 C555 1.343 . S
N573 C541 1.343 . S
N573 C548 1.343 . S
C574 C575 1.384 . S
C574 C576 1.384 . S
C574 H602 0.931 . S
C575 C574 1.384 . S
C575 C578 1.382 . S
C576 C574 1.384 . S
C576 C577 1.381 . S
C576 H603 0.930 . S
C577 C576 1.381 . S
C577 C579 1.381 . S
C577 C580 1.487 . S
C578 C575 1.382 . S
C578 C579 1.387 . S
C578 H604 0.930 . S
C579 C577 1.381 . S
C579 C578 1.387 . S
C579 H605 0.931 . S
C580 C577 1.487 . S
C580 C587 1.399 . S
C580 N618 1.343 . S
C581 C582 1.384 . S
C581 C583 1.384 . S
C581 H606 0.931 . S
C582 C581 1.384 . S
C582 C585 1.382 . S
C583 C581 1.384 . S
C583 C584 1.381 . S
C583 H607 0.930 . S
C584 C583 1.381 . S
C584 C586 1.381 . S
C584 C587 1.487 . S
C585 C582 1.382 . S
C585 C586 1.387 . S
C585 H608 0.930 . S
C586 C584 1.381 . S
C586 C585 1.387 . S
C586 H609 0.931 . S
C587 C580 1.399 . S
C587 C584 1.487 . S
C587 N619 1.343 . S
C588 C589 1.384 . S
C588 C590 1.384 . S
C588 H610 0.931 . S
C589 C588 1.384 . S
C589 C592 1.382 . S
C590 C588 1.384 . S
C590 C591 1.381 . S
C590 H611 0.930 . S
C591 C590 1.381 . S
C591 C593 1.381 . S
C591 C594 1.487 . S
C592 C589 1.382 . S
C592 C593 1.387 . S
C592 H612 0.930 . S
C593 C591 1.381 . S
C593 C592 1.387 . S
C593 H613 0.931 . S
C594 C591 1.487 . S
C594 C601 1.399 . S
C594 N619 1.343 . S
C595 C596 1.384 . S
C595 C597 1.384 . S
C595 H614 0.931 . S
C596 C595 1.384 . S
C596 C599 1.382 . S
C597 C595 1.384 . S
C597 C598 1.381 . S
C597 H615 0.930 . S
C598 C597 1.381 . S
C598 C600 1.381 . S
C598 C601 1.487 . S
C599 C596 1.382 . S
C599 C600 1.387 . S
C599 H616 0.930 . S
C600 C598 1.381 . S
C600 C599 1.387 . S
C600 H617 0.931 . S
C601 C594 1.399 . S
C601 C598 1.487 . S
C601 N618 1.343 . S
H602 C574 0.931 . S
H603 C576 0.930 . S
H604 C578 0.930 . S
H605 C579 0.931 . S
H606 C581 0.931 . S
H607 C583 0.930 . S
H608 C585 0.930 . S
H609 C586 0.931 . S
H610 C588 0.931 . S
H611 C590 0.930 . S
H612 C592 0.930 . S
H613 C593 0.931 . S
H614 C595 0.931 . S
H615 C597 0.930 . S
H616 C599 0.930 . S
H617 C600 0.931 . S
N618 C580 1.343 . S
N618 C601 1.343 . S
N619 C587 1.343 . S
N619 C594 1.343 . S
C620 C621 1.384 . S
C620 C622 1.384 . S
C620 H648 0.931 . S
C621 C620 1.384 . S
C621 C624 1.382 . S
C622 C620 1.384 . S
C622 C623 1.381 . S
C622 H649 0.930 . S
C623 C622 1.381 . S
C623 C625 1.381 . S
C623 C626 1.487 . S
C624 C621 1.382 . S
C624 C625 1.387 . S
C624 H650 0.930 . S
C625 C623 1.381 . S
C625 C624 1.387 . S
C625 H651 0.931 . S
C626 C623 1.487 . S
C626 C633 1.399 . S
C626 N664 1.343 . S
C627 C628 1.384 . S
C627 C629 1.384 . S
C627 H652 0.931 . S
C628 C627 1.384 . S
C628 C631 1.382 . S
C629 C627 1.384 . S
C629 C630 1.381 . S
C629 H653 0.930 . S
C630 C629 1.381 . S
C630 C632 1.381 . S
C630 C633 1.487 . S
C631 C628 1.382 . S
C631 C632 1.387 . S
C631 H654 0.930 . S
C632 C630 1.381 . S
C632 C631 1.387 . S
C632 H655 0.931 . S
C633 C626 1.399 . S
C633 C630 1.487 . S
C633 N665 1.343 . S
C634 C635 1.384 . S
C634 C636 1.384 . S
C634 H656 0.931 . S
C635 C634 1.384 . S
C635 C638 1.382 . S
C636 C634 1.384 . S
C636 C637 1.381 . S
C636 H657 0.930 . S
C637 C636 1.381 . S
C637 C639 1.381 . S
C637 C640 1.487 . S
C638 C635 1.382 . S
C638 C639 1.387 . S
C638 H658 0.930 . S
C639 C637 1.381 . S
C639 C638 1.387 . S
C639 H659 0.931 . S
C640 C637 1.487 . S
C640 C647 1.399 . S
C640 N665 1.343 . S
C641 C642 1.384 . S
C641 C643 1.384 . S
C641 H660 0.931 . S
C642 C641 1.384 . S
C642 C645 1.382 . S
C643 C641 1.384 . S
C643 C644 1.381 . S
C643 H661 0.930 . S
C644 C643 1.381 . S
C644 C646 1.381 . S
C644 C647 1.487 . S
C645 C642 1.382 . S
C645 C646 1.387 . S
C645 H662 0.930 . S
C646 C644 1.381 . S
C646 C645 1.387 . S
C646 H663 0.931 . S
C647 C640 1.399 . S
C647 C644 1.487 . S
C647 N664 1.343 . S
H648 C620 0.931 . S
H649 C622 0.930 . S
H650 C624 0.930 . S
H651 C625 0.931 . S
H652 C627 0.931 . S
H653 C629 0.930 . S
H654 C631 0.930 . S
H655 C632 0.931 . S
H656 C634 0.931 . S
H657 C636 0.930 . S
H658 C638 0.930 . S
H659 C639 0.931 . S
H660 C641 0.931 . S
H661 C643 0.930 . S
H662 C645 0.930 . S
H663 C646 0.931 . S
N664 C626 1.343 . S
N664 C647 1.343 . S
N665 C633 1.343 . S
N665 C640 1.343 . S
C666 C667 1.384 . S
C666 C668 1.384 . S
C666 H694 0.931 . S
C667 C666 1.384 . S
C667 C670 1.382 1_655 S
C668 C666 1.384 . S
C668 C669 1.405 . S
C668 H695 0.930 . S
C669 C668 1.405 . S
C669 C671 1.369 1_655 S
C669 C672 1.473 1_655 S
C670 C667 1.382 1_455 S
C670 C671 1.387 . S
C670 H696 0.930 . S
C671 C669 1.369 1_455 S
C671 C670 1.387 . S
C671 H697 0.931 . S
C672 C669 1.473 1_455 S
C672 C679 1.399 1_455 S
C672 N710 1.312 . S
C673 C674 1.384 . S
C673 C675 1.384 . S
C673 H698 0.931 . S
C674 C673 1.384 . S
C674 C677 1.382 1_455 S
C675 C673 1.384 . S
C675 C676 1.382 1_455 S
C675 H699 0.930 . S
C676 C675 1.382 1_655 S
C676 C678 1.378 . S
C676 C679 1.496 . S
C677 C674 1.382 1_655 S
C677 C678 1.387 . S
C677 H700 0.930 . S
C678 C676 1.378 . S
C678 C677 1.387 . S
C678 H701 0.931 . S
C679 C672 1.399 1_655 S
C679 C676 1.496 . S
C679 N711 1.361 . S
C680 C681 1.384 . S
C680 C682 1.384 . S
C680 H702 0.931 . S
C681 C680 1.384 . S
C681 C684 1.382 1_455 S
C682 C680 1.384 . S
C682 C683 1.422 . S
C682 H703 0.930 . S
C683 C682 1.422 . S
C683 C685 1.361 1_455 S
C683 C686 1.465 . S
C684 C681 1.382 1_655 S
C684 C685 1.387 . S
C684 H704 0.930 . S
C685 C683 1.361 1_655 S
C685 C684 1.387 . S
C685 H705 0.931 . S
C686 C683 1.465 . S
C686 C693 1.399 . S
C686 N711 1.319 1_455 S
C687 C688 1.384 . S
C687 C689 1.384 . S
C687 H706 0.931 . S
C688 C687 1.384 . S
C688 C691 1.382 1_655 S
C689 C687 1.384 . S
C689 C690 1.379 1_655 S
C689 H707 0.930 . S
C690 C689 1.379 1_455 S
C690 C692 1.388 . S
C690 C693 1.496 . S
C691 C688 1.382 1_455 S
C691 C692 1.387 . S
C691 H708 0.930 . S
C692 C690 1.388 . S
C692 C691 1.387 . S
C692 H709 0.931 . S
C693 C686 1.399 . S
C693 C690 1.496 . S
C693 N710 1.361 . S
H694 C666 0.931 . S
H695 C668 0.930 . S
H696 C670 0.930 . S
H697 C671 0.931 . S
H698 C673 0.931 . S
H699 C675 0.930 . S
H700 C677 0.930 . S
H701 C678 0.931 . S
H702 C680 0.931 . S
H703 C682 0.930 . S
H704 C684 0.930 . S
H705 C685 0.931 . S
H706 C687 0.931 . S
H707 C689 0.930 . S
H708 C691 0.930 . S
H709 C692 0.931 . S
N710 C672 1.312 . S
N710 C693 1.361 . S
N711 C679 1.361 . S
N711 C686 1.319 1_655 S
C712 C713 1.384 . S
C712 C714 1.384 . S
C712 H740 0.931 . S
C713 C712 1.384 . S
C713 C716 1.382 . S
C714 C712 1.384 . S
C714 C715 1.381 . S
C714 H741 0.930 . S
C715 C714 1.381 . S
C715 C717 1.381 . S
C715 C718 1.487 . S
C716 C713 1.382 . S
C716 C717 1.387 . S
C716 H742 0.930 . S
C717 C715 1.381 . S
C717 C716 1.387 . S
C717 H743 0.931 . S
C718 C715 1.487 . S
C718 C725 1.399 . S
C718 N756 1.343 . S
C719 C720 1.384 . S
C719 C721 1.384 . S
C719 H744 0.931 . S
C720 C719 1.384 . S
C720 C723 1.382 . S
C721 C719 1.384 . S
C721 C722 1.381 . S
C721 H745 0.930 . S
C722 C721 1.381 . S
C722 C724 1.381 . S
C722 C725 1.487 . S
C723 C720 1.382 . S
C723 C724 1.387 . S
C723 H746 0.930 . S
C724 C722 1.381 . S
C724 C723 1.387 . S
C724 H747 0.931 . S
C725 C718 1.399 . S
C725 C722 1.487 . S
C725 N757 1.343 . S
C726 C727 1.384 . S
C726 C728 1.384 . S
C726 H748 0.931 . S
C727 C726 1.384 . S
C727 C730 1.382 . S
C728 C726 1.384 . S
C728 C729 1.381 . S
C728 H749 0.930 . S
C729 C728 1.381 . S
C729 C731 1.381 . S
C729 C732 1.487 . S
C730 C727 1.382 . S
C730 C731 1.387 . S
C730 H750 0.930 . S
C731 C729 1.381 . S
C731 C730 1.387 . S
C731 H751 0.931 . S
C732 C729 1.487 . S
C732 C739 1.399 . S
C732 N757 1.343 . S
C733 C734 1.384 . S
C733 C735 1.384 . S
C733 H752 0.931 . S
C734 C733 1.384 . S
C734 C737 1.382 . S
C735 C733 1.384 . S
C735 C736 1.381 . S
C735 H753 0.930 . S
C736 C735 1.381 . S
C736 C738 1.381 . S
C736 C739 1.487 . S
C737 C734 1.382 . S
C737 C738 1.387 . S
C737 H754 0.930 . S
C738 C736 1.381 . S
C738 C737 1.387 . S
C738 H755 0.931 . S
C739 C732 1.399 . S
C739 C736 1.487 . S
C739 N756 1.343 . S
H740 C712 0.931 . S
H741 C714 0.930 . S
H742 C716 0.930 . S
H743 C717 0.931 . S
H744 C719 0.931 . S
H745 C721 0.930 . S
H746 C723 0.930 . S
H747 C724 0.931 . S
H748 C726 0.931 . S
H749 C728 0.930 . S
H750 C730 0.930 . S
H751 C731 0.931 . S
H752 C733 0.931 . S
H753 C735 0.930 . S
H754 C737 0.930 . S
H755 C738 0.931 . S
N756 C718 1.343 . S
N756 C739 1.343 . S
N757 C725 1.343 . S
N757 C732 1.343 . S
C758 C759 1.384 1_545 S
C758 C760 1.384 . S
C758 H786 0.931 . S
C759 C758 1.384 1_565 S
C759 C762 1.382 . S
C760 C758 1.384 . S
C760 C761 1.381 1_545 S
C760 H787 0.930 . S
C761 C760 1.381 1_565 S
C761 C763 1.381 . S
C761 C764 1.487 . S
C762 C759 1.382 . S
C762 C763 1.387 . S
C762 H788 0.930 . S
C763 C761 1.381 . S
C763 C762 1.387 . S
C763 H789 0.931 . S
C764 C761 1.487 . S
C764 C771 1.399 1_565 S
C764 N802 1.343 . S
C765 C766 1.384 1_565 S
C765 C767 1.384 . S
C765 H790 0.931 . S
C766 C765 1.384 1_545 S
C766 C769 1.382 . S
C767 C765 1.384 . S
C767 C768 1.381 1_565 S
C767 H791 0.930 . S
C768 C767 1.381 1_545 S
C768 C770 1.381 . S
C768 C771 1.487 . S
C769 C766 1.382 . S
C769 C770 1.387 . S
C769 H792 0.930 . S
C770 C768 1.381 . S
C770 C769 1.387 . S
C770 H793 0.931 . S
C771 C764 1.399 1_545 S
C771 C768 1.487 . S
C771 N803 1.343 . S
C772 C773 1.384 1_565 S
C772 C774 1.384 . S
C772 H794 0.931 . S
C773 C772 1.384 1_545 S
C773 C776 1.382 . S
C774 C772 1.384 . S
C774 C775 1.381 1_565 S
C774 H795 0.930 . S
C775 C774 1.381 1_545 S
C775 C777 1.381 . S
C775 C778 1.487 . S
C776 C773 1.382 . S
C776 C777 1.387 . S
C776 H796 0.930 . S
C777 C775 1.381 . S
C777 C776 1.387 . S
C777 H797 0.931 . S
C778 C775 1.487 . S
C778 C785 1.399 1_545 S
C778 N803 1.343 . S
C779 C780 1.384 1_545 S
C779 C781 1.384 . S
C779 H798 0.931 . S
C780 C779 1.384 1_565 S
C780 C783 1.382 . S
C781 C779 1.384 . S
C781 C782 1.381 1_545 S
C781 H799 0.930 . S
C782 C781 1.381 1_565 S
C782 C784 1.381 . S
C782 C785 1.487 . S
C783 C780 1.382 . S
C783 C784 1.387 . S
C783 H800 0.930 . S
C784 C782 1.381 . S
C784 C783 1.387 . S
C784 H801 0.931 . S
C785 C778 1.399 1_565 S
C785 C782 1.487 . S
C785 N802 1.343 . S
H786 C758 0.931 . S
H787 C760 0.930 . S
H788 C762 0.930 . S
H789 C763 0.931 . S
H790 C765 0.931 . S
H791 C767 0.930 . S
H792 C769 0.930 . S
H793 C770 0.931 . S
H794 C772 0.931 . S
H795 C774 0.930 . S
H796 C776 0.930 . S
H797 C777 0.931 . S
H798 C779 0.931 . S
H799 C781 0.930 . S
H800 C783 0.930 . S
H801 C784 0.931 . S
N802 C764 1.343 . S
N802 C785 1.343 . S
N803 C771 1.343 . S
N803 C778 1.343 . S
C804 C805 1.384 . S
C804 C806 1.384 . S
C804 H832 0.931 . S
C805 C804 1.384 . S
C805 C808 1.382 1_545 S
C806 C804 1.384 . S
C806 C807 1.380 . S
C806 H833 0.930 . S
C807 C806 1.380 . S
C807 C809 1.385 1_545 S
C807 C810 1.490 1_545 S
C808 C805 1.382 1_565 S
C808 C809 1.387 . S
C808 H834 0.930 . S
C809 C807 1.385 1_565 S
C809 C808 1.387 . S
C809 H835 0.931 . S
C810 C807 1.490 1_565 S
C810 C817 1.399 1_565 S
C810 N848 1.363 . S
C811 C812 1.384 . S
C811 C813 1.384 . S
C811 H836 0.931 . S
C812 C811 1.384 . S
C812 C815 1.382 1_565 S
C813 C811 1.384 . S
C813 C814 1.400 . S
C813 H837 0.930 . S
C814 C813 1.400 . S
C814 C816 1.372 1_565 S
C814 C817 1.474 1_565 S
C815 C812 1.382 1_545 S
C815 C816 1.387 . S
C815 H838 0.930 . S
C816 C814 1.372 1_545 S
C816 C815 1.387 . S
C816 H839 0.931 . S
C817 C810 1.399 1_545 S
C817 C814 1.474 1_545 S
C817 N849 1.313 . S
C818 C819 1.384 . S
C818 C820 1.384 . S
C818 H840 0.931 . S
C819 C818 1.384 . S
C819 C822 1.382 1_565 S
C820 C818 1.384 . S
C820 C821 1.380 1_565 S
C820 H841 0.930 . S
C821 C820 1.380 1_545 S
C821 C823 1.385 . S
C821 C824 1.497 . S
C822 C819 1.382 1_545 S
C822 C823 1.387 . S
C822 H842 0.930 . S
C823 C821 1.385 . S
C823 C822 1.387 . S
C823 H843 0.931 . S
C824 C821 1.497 . S
C824 C831 1.399 1_545 S
C824 N849 1.363 . S
C825 C826 1.384 . S
C825 C827 1.384 . S
C825 H844 0.931 . S
C826 C825 1.384 . S
C826 C829 1.382 1_545 S
C827 C825 1.384 . S
C827 C828 1.416 . S
C827 H845 0.930 . S
C828 C827 1.416 . S
C828 C830 1.364 1_545 S
C828 C831 1.474 1_545 S
C829 C826 1.382 1_565 S
C829 C830 1.387 . S
C829 H846 0.930 . S
C830 C828 1.364 1_565 S
C830 C829 1.387 . S
C830 H847 0.931 . S
C831 C824 1.399 1_565 S
C831 C828 1.474 1_565 S
C831 N848 1.313 . S
H832 C804 0.931 . S
H833 C806 0.930 . S
H834 C808 0.930 . S
H835 C809 0.931 . S
H836 C811 0.931 . S
H837 C813 0.930 . S
H838 C815 0.930 . S
H839 C816 0.931 . S
H840 C818 0.931 . S
H841 C820 0.930 . S
H842 C822 0.930 . S
H843 C823 0.931 . S
H844 C825 0.931 . S
H845 C827 0.930 . S
H846 C829 0.930 . S
H847 C830 0.931 . S
N848 C810 1.363 . S
N848 C831 1.313 . S
N849 C817 1.313 . S
N849 C824 1.363 . S
C850 C851 1.384 . S
C850 C852 1.384 . S
C850 H878 0.931 . S
C851 C850 1.384 . S
C851 C854 1.382 1_655 S
C852 C850 1.384 . S
C852 C853 1.431 . S
C852 H879 0.930 . S
C853 C852 1.431 . S
C853 C855 1.357 1_655 S
C853 C856 1.463 . S
C854 C851 1.382 1_455 S
C854 C855 1.387 . S
C854 H880 0.930 . S
C855 C853 1.357 1_455 S
C855 C854 1.387 . S
C855 H881 0.931 . S
C856 C853 1.463 . S
C856 C863 1.399 . S
C856 N894 1.321 1_655 S
C857 C858 1.384 . S
C857 C859 1.384 . S
C857 H882 0.931 . S
C858 C857 1.384 . S
C858 C861 1.382 1_455 S
C859 C857 1.384 . S
C859 C860 1.381 1_455 S
C859 H883 0.930 . S
C860 C859 1.381 1_655 S
C860 C862 1.383 . S
C860 C863 1.498 . S
C861 C858 1.382 1_655 S
C861 C862 1.387 . S
C861 H884 0.930 . S
C862 C860 1.383 . S
C862 C861 1.387 . S
C862 H885 0.931 . S
C863 C856 1.399 . S
C863 C860 1.498 . S
C863 N895 1.360 . S
C864 C865 1.384 . S
C864 C866 1.384 . S
C864 H886 0.931 . S
C865 C864 1.384 . S
C865 C868 1.382 1_455 S
C866 C864 1.384 . S
C866 C867 1.414 . S
C866 H887 0.930 . S
C867 C866 1.414 . S
C867 C869 1.365 1_455 S
C867 C870 1.470 1_455 S
C868 C865 1.382 1_655 S
C868 C869 1.387 . S
C868 H888 0.930 . S
C869 C867 1.365 1_655 S
C869 C868 1.387 . S
C869 H889 0.931 . S
C870 C867 1.470 1_655 S
C870 C877 1.399 1_655 S
C870 N895 1.313 . S
C871 C872 1.384 . S
C871 C873 1.384 . S
C871 H890 0.931 . S
C872 C871 1.384 . S
C872 C875 1.382 1_655 S
C873 C871 1.384 . S
C873 C874 1.381 . S
C873 H891 0.930 . S
C874 C873 1.381 . S
C874 C876 1.383 1_655 S
C874 C877 1.491 1_655 S
C875 C872 1.382 1_455 S
C875 C876 1.387 . S
C875 H892 0.930 . S
C876 C874 1.383 1_455 S
C876 C875 1.387 . S
C876 H893 0.931 . S
C877 C870 1.399 1_455 S
C877 C874 1.491 1_455 S
C877 N894 1.360 . S
H878 C850 0.931 . S
H879 C852 0.930 . S
H880 C854 0.930 . S
H881 C855 0.931 . S
H882 C857 0.931 . S
H883 C859 0.930 . S
H884 C861 0.930 . S
H885 C862 0.931 . S
H886 C864 0.931 . S
H887 C866 0.930 . S
H888 C868 0.930 . S
H889 C869 0.931 . S
H890 C871 0.931 . S
H891 C873 0.930 . S
H892 C875 0.930 . S
H893 C876 0.931 . S
N894 C856 1.321 1_455 S
N894 C877 1.360 . S
N895 C863 1.360 . S
N895 C870 1.313 . S
C896 C897 1.384 . S
C896 C898 1.384 . S
C896 H924 0.931 . S
C897 C896 1.384 . S
C897 C900 1.382 . S
C898 C896 1.384 . S
C898 C899 1.381 . S
C898 H925 0.930 . S
C899 C898 1.381 . S
C899 C901 1.381 . S
C899 C902 1.487 . S
C900 C897 1.382 . S
C900 C901 1.387 . S
C900 H926 0.930 . S
C901 C899 1.381 . S
C901 C900 1.387 . S
C901 H927 0.931 . S
C902 C899 1.487 . S
C902 C909 1.399 . S
C902 N940 1.343 . S
C903 C904 1.384 . S
C903 C905 1.384 . S
C903 H928 0.931 . S
C904 C903 1.384 . S
C904 C907 1.382 . S
C905 C903 1.384 . S
C905 C906 1.381 . S
C905 H929 0.930 . S
C906 C905 1.381 . S
C906 C908 1.381 . S
C906 C909 1.487 . S
C907 C904 1.382 . S
C907 C908 1.387 . S
C907 H930 0.930 . S
C908 C906 1.381 . S
C908 C907 1.387 . S
C908 H931 0.931 . S
C909 C902 1.399 . S
C909 C906 1.487 . S
C909 N941 1.343 . S
C910 C911 1.384 . S
C910 C912 1.384 . S
C910 H932 0.931 . S
C911 C910 1.384 . S
C911 C914 1.382 . S
C912 C910 1.384 . S
C912 C913 1.381 . S
C912 H933 0.930 . S
C913 C912 1.381 . S
C913 C915 1.381 . S
C913 C916 1.487 . S
C914 C911 1.382 . S
C914 C915 1.387 . S
C914 H934 0.930 . S
C915 C913 1.381 . S
C915 C914 1.387 . S
C915 H935 0.931 . S
C916 C913 1.487 . S
C916 C923 1.399 . S
C916 N941 1.343 . S
C917 C918 1.384 . S
C917 C919 1.384 . S
C917 H936 0.931 . S
C918 C917 1.384 . S
C918 C921 1.382 . S
C919 C917 1.384 . S
C919 C920 1.381 . S
C919 H937 0.930 . S
C920 C919 1.381 . S
C920 C922 1.381 . S
C920 C923 1.487 . S
C921 C918 1.382 . S
C921 C922 1.387 . S
C921 H938 0.930 . S
C922 C920 1.381 . S
C922 C921 1.387 . S
C922 H939 0.931 . S
C923 C916 1.399 . S
C923 C920 1.487 . S
C923 N940 1.343 . S
H924 C896 0.931 . S
H925 C898 0.930 . S
H926 C900 0.930 . S
H927 C901 0.931 . S
H928 C903 0.931 . S
H929 C905 0.930 . S
H930 C907 0.930 . S
H931 C908 0.931 . S
H932 C910 0.931 . S
H933 C912 0.930 . S
H934 C914 0.930 . S
H935 C915 0.931 . S
H936 C917 0.931 . S
H937 C919 0.930 . S
H938 C921 0.930 . S
H939 C922 0.931 . S
N940 C902 1.343 . S
N940 C923 1.343 . S
N941 C909 1.343 . S
N941 C916 1.343 . S
C942 C943 1.384 . S
C942 C944 1.384 . S
C942 H970 0.931 . S
C943 C942 1.384 . S
C943 C946 1.382 . S
C944 C942 1.384 . S
C944 C945 1.381 . S
C944 H971 0.930 . S
C945 C944 1.381 . S
C945 C947 1.381 . S
C945 C948 1.487 . S
C946 C943 1.382 . S
C946 C947 1.387 . S
C946 H972 0.930 . S
C947 C945 1.381 . S
C947 C946 1.387 . S
C947 H973 0.931 . S
C948 C945 1.487 . S
C948 C955 1.399 . S
C948 N986 1.343 . S
C949 C950 1.384 . S
C949 C951 1.384 . S
C949 H974 0.931 . S
C950 C949 1.384 . S
C950 C953 1.382 . S
C951 C949 1.384 . S
C951 C952 1.381 . S
C951 H975 0.930 . S
C952 C951 1.381 . S
C952 C954 1.381 . S
C952 C955 1.487 . S
C953 C950 1.382 . S
C953 C954 1.387 . S
C953 H976 0.930 . S
C954 C952 1.381 . S
C954 C953 1.387 . S
C954 H977 0.931 . S
C955 C948 1.399 . S
C955 C952 1.487 . S
C955 N987 1.343 . S
C956 C957 1.384 . S
C956 C958 1.384 . S
C956 H978 0.931 . S
C957 C956 1.384 . S
C957 C960 1.382 . S
C958 C956 1.384 . S
C958 C959 1.381 . S
C958 H979 0.930 . S
C959 C958 1.381 . S
C959 C961 1.381 . S
C959 C962 1.487 . S
C960 C957 1.382 . S
C960 C961 1.387 . S
C960 H980 0.930 . S
C961 C959 1.381 . S
C961 C960 1.387 . S
C961 H981 0.931 . S
C962 C959 1.487 . S
C962 C969 1.399 . S
C962 N987 1.343 . S
C963 C964 1.384 . S
C963 C965 1.384 . S
C963 H982 0.931 . S
C964 C963 1.384 . S
C964 C967 1.382 . S
C965 C963 1.384 . S
C965 C966 1.381 . S
C965 H983 0.930 . S
C966 C965 1.381 . S
C966 C968 1.381 . S
C966 C969 1.487 . S
C967 C964 1.382 . S
C967 C968 1.387 . S
C967 H984 0.930 . S
C968 C966 1.381 . S
C968 C967 1.387 . S
C968 H985 0.931 . S
C969 C962 1.399 . S
C969 C966 1.487 . S
C969 N986 1.343 . S
H970 C942 0.931 . S
H971 C944 0.930 . S
H972 C946 0.930 . S
H973 C947 0.931 . S
H974 C949 0.931 . S
H975 C951 0.930 . S
H976 C953 0.930 . S
H977 C954 0.931 . S
H978 C956 0.931 . S
H979 C958 0.930 . S
H980 C960 0.930 . S
H981 C961 0.931 . S
H982 C963 0.931 . S
H983 C965 0.930 . S
H984 C967 0.930 . S
H985 C968 0.931 . S
N986 C948 1.343 . S
N986 C969 1.343 . S
N987 C955 1.343 . S
N987 C962 1.343 . S
C988 C989 1.384 . S
C988 C990 1.384 . S
C988 H1016 0.931 . S
C989 C988 1.384 . S
C989 C992 1.382 . S
C990 C988 1.384 . S
C990 C991 1.381 . S
C990 H1017 0.930 . S
C991 C990 1.381 . S
C991 C993 1.381 . S
C991 C994 1.487 . S
C992 C989 1.382 . S
C992 C993 1.387 . S
C992 H1018 0.930 . S
C993 C991 1.381 . S
C993 C992 1.387 . S
C993 H1019 0.931 . S
C994 C991 1.487 . S
C994 C1001 1.399 . S
C994 N1032 1.343 . S
C995 C996 1.384 . S
C995 C997 1.384 . S
C995 H1020 0.931 . S
C996 C995 1.384 . S
C996 C999 1.382 . S
C997 C995 1.384 . S
C997 C998 1.381 . S
C997 H1021 0.930 . S
C998 C997 1.381 . S
C998 C1000 1.381 . S
C998 C1001 1.487 . S
C999 C996 1.382 . S
C999 C1000 1.387 . S
C999 H1022 0.930 . S
C1000 C998 1.381 . S
C1000 C999 1.387 . S
C1000 H1023 0.931 . S
C1001 C994 1.399 . S
C1001 C998 1.487 . S
C1001 N1033 1.343 . S
C1002 C1003 1.384 . S
C1002 C1004 1.384 . S
C1002 H1024 0.931 . S
C1003 C1002 1.384 . S
C1003 C1006 1.382 . S
C1004 C1002 1.384 . S
C1004 C1005 1.381 . S
C1004 H1025 0.930 . S
C1005 C1004 1.381 . S
C1005 C1007 1.381 . S
C1005 C1008 1.487 . S
C1006 C1003 1.382 . S
C1006 C1007 1.387 . S
C1006 H1026 0.930 . S
C1007 C1005 1.381 . S
C1007 C1006 1.387 . S
C1007 H1027 0.931 . S
C1008 C1005 1.487 . S
C1008 C1015 1.399 . S
C1008 N1033 1.343 . S
C1009 C1010 1.384 . S
C1009 C1011 1.384 . S
C1009 H1028 0.931 . S
C1010 C1009 1.384 . S
C1010 C1013 1.382 . S
C1011 C1009 1.384 . S
C1011 C1012 1.381 . S
C1011 H1029 0.930 . S
C1012 C1011 1.381 . S
C1012 C1014 1.381 . S
C1012 C1015 1.487 . S
C1013 C1010 1.382 . S
C1013 C1014 1.387 . S
C1013 H1030 0.930 . S
C1014 C1012 1.381 . S
C1014 C1013 1.387 . S
C1014 H1031 0.931 . S
C1015 C1008 1.399 . S
C1015 C1012 1.487 . S
C1015 N1032 1.343 . S
H1016 C988 0.931 . S
H1017 C990 0.930 . S
H1018 C992 0.930 . S
H1019 C993 0.931 . S
H1020 C995 0.931 . S
H1021 C997 0.930 . S
H1022 C999 0.930 . S
H1023 C1000 0.931 . S
H1024 C1002 0.931 . S
H1025 C1004 0.930 . S
H1026 C1006 0.930 . S
H1027 C1007 0.931 . S
H1028 C1009 0.931 . S
H1029 C1011 0.930 . S
H1030 C1013 0.930 . S
H1031 C1014 0.931 . S
N1032 C994 1.343 . S
N1032 C1015 1.343 . S
N1033 C1001 1.343 . S
N1033 C1008 1.343 . S
C1034 C1035 1.384 . S
C1034 C1036 1.384 . S
C1034 H1062 0.931 . S
C1035 C1034 1.384 . S
C1035 C1038 1.382 . S
C1036 C1034 1.384 . S
C1036 C1037 1.381 . S
C1036 H1063 0.930 . S
C1037 C1036 1.381 . S
C1037 C1039 1.381 . S
C1037 C1040 1.487 . S
C1038 C1035 1.382 . S
C1038 C1039 1.387 . S
C1038 H1064 0.930 . S
C1039 C1037 1.381 . S
C1039 C1038 1.387 . S
C1039 H1065 0.931 . S
C1040 C1037 1.487 . S
C1040 C1047 1.399 . S
C1040 N1078 1.343 . S
C1041 C1042 1.384 . S
C1041 C1043 1.384 . S
C1041 H1066 0.931 . S
C1042 C1041 1.384 . S
C1042 C1045 1.382 . S
C1043 C1041 1.384 . S
C1043 C1044 1.381 . S
C1043 H1067 0.930 . S
C1044 C1043 1.381 . S
C1044 C1046 1.381 . S
C1044 C1047 1.487 . S
C1045 C1042 1.382 . S
C1045 C1046 1.387 . S
C1045 H1068 0.930 . S
C1046 C1044 1.381 . S
C1046 C1045 1.387 . S
C1046 H1069 0.931 . S
C1047 C1040 1.399 . S
C1047 C1044 1.487 . S
C1047 N1079 1.343 . S
C1048 C1049 1.384 . S
C1048 C1050 1.384 . S
C1048 H1070 0.931 . S
C1049 C1048 1.384 . S
C1049 C1052 1.382 . S
C1050 C1048 1.384 . S
C1050 C1051 1.381 . S
C1050 H1071 0.930 . S
C1051 C1050 1.381 . S
C1051 C1053 1.381 . S
C1051 C1054 1.487 . S
C1052 C1049 1.382 . S
C1052 C1053 1.387 . S
C1052 H1072 0.930 . S
C1053 C1051 1.381 . S
C1053 C1052 1.387 . S
C1053 H1073 0.931 . S
C1054 C1051 1.487 . S
C1054 C1061 1.399 . S
C1054 N1079 1.343 . S
C1055 C1056 1.384 . S
C1055 C1057 1.384 . S
C1055 H1074 0.931 . S
C1056 C1055 1.384 . S
C1056 C1059 1.382 . S
C1057 C1055 1.384 . S
C1057 C1058 1.381 . S
C1057 H1075 0.930 . S
C1058 C1057 1.381 . S
C1058 C1060 1.381 . S
C1058 C1061 1.487 . S
C1059 C1056 1.382 . S
C1059 C1060 1.387 . S
C1059 H1076 0.930 . S
C1060 C1058 1.381 . S
C1060 C1059 1.387 . S
C1060 H1077 0.931 . S
C1061 C1054 1.399 . S
C1061 C1058 1.487 . S
C1061 N1078 1.343 . S
H1062 C1034 0.931 . S
H1063 C1036 0.930 . S
H1064 C1038 0.930 . S
H1065 C1039 0.931 . S
H1066 C1041 0.931 . S
H1067 C1043 0.930 . S
H1068 C1045 0.930 . S
H1069 C1046 0.931 . S
H1070 C1048 0.931 . S
H1071 C1050 0.930 . S
H1072 C1052 0.930 . S
H1073 C1053 0.931 . S
H1074 C1055 0.931 . S
H1075 C1057 0.930 . S
H1076 C1059 0.930 . S
H1077 C1060 0.931 . S
N1078 C1040 1.343 . S
N1078 C1061 1.343 . S
N1079 C1047 1.343 . S
N1079 C1054 1.343 . S
C1080 C1081 1.391 . S
C1080 C1082 1.394 . S
C1080 H1096 0.931 . S
C1081 C1080 1.391 . S
C1081 C1085 1.376 1_655 S
C1082 C1080 1.394 . S
C1082 C1083 1.369 . S
C1082 C1086 1.531 . S
C1083 C1082 1.369 . S
C1083 C1084 1.410 1_655 S
C1083 C1091 1.503 . S
C1084 C1083 1.410 1_455 S
C1084 C1085 1.392 . S
C1084 C1087 1.511 . S
C1085 C1081 1.376 1_455 S
C1085 C1084 1.392 . S
C1085 H1097 0.929 . S
C1086 C1082 1.531 . S
C1086 H1098 0.960 . S
C1086 H1099 0.962 . S
C1086 H1100 0.960 . S
C1087 C1084 1.511 . S
C1087 H1101 0.961 . S
C1087 H1102 0.961 . S
C1087 H1103 0.961 . S
C1088 C1089 1.370 . S
C1088 C1090 1.363 . S
C1088 H1104 0.931 . S
C1089 C1088 1.370 . S
C1089 C1093 1.408 1_655 S
C1090 C1088 1.363 . S
C1090 C1091 1.370 . S
C1090 C1094 1.524 . S
C1091 C1083 1.503 . S
C1091 C1090 1.370 . S
C1091 C1092 1.403 1_655 S
C1092 C1091 1.403 1_455 S
C1092 C1093 1.404 . S
C1092 C1095 1.539 . S
C1093 C1089 1.408 1_455 S
C1093 C1092 1.404 . S
C1093 H1105 0.930 . S
C1094 C1090 1.524 . S
C1094 H1106 0.956 . S
C1094 H1107 0.961 . S
C1094 H1108 0.961 . S
C1095 C1092 1.539 . S
C1095 H1109 0.958 . S
C1095 H1110 0.961 . S
C1095 H1111 0.960 . S
H1096 C1080 0.931 . S
H1097 C1085 0.929 . S
H1098 C1086 0.960 . S
H1099 C1086 0.962 . S
H1100 C1086 0.960 . S
H1101 C1087 0.961 . S
H1102 C1087 0.961 . S
H1103 C1087 0.961 . S
H1104 C1088 0.931 . S
H1105 C1093 0.930 . S
H1106 C1094 0.956 . S
H1107 C1094 0.961 . S
H1108 C1094 0.961 . S
H1109 C1095 0.958 . S
H1110 C1095 0.961 . S
H1111 C1095 0.960 . S
C1112 C1113 1.391 . S
C1112 C1114 1.394 . S
C1112 H1128 0.931 . S
C1113 C1112 1.391 . S
C1113 C1117 1.376 . S
C1114 C1112 1.394 . S
C1114 C1115 1.369 . S
C1114 C1118 1.531 . S
C1115 C1114 1.369 . S
C1115 C1116 1.410 . S
C1115 C1123 1.503 . S
C1116 C1115 1.410 . S
C1116 C1117 1.392 . S
C1116 C1119 1.511 . S
C1117 C1113 1.376 . S
C1117 C1116 1.392 . S
C1117 H1129 0.929 . S
C1118 C1114 1.531 . S
C1118 H1130 0.960 . S
C1118 H1131 0.962 . S
C1118 H1132 0.960 . S
C1119 C1116 1.511 . S
C1119 H1133 0.961 . S
C1119 H1134 0.961 . S
C1119 H1135 0.961 . S
C1120 C1121 1.370 . S
C1120 C1122 1.363 . S
C1120 H1136 0.931 . S
C1121 C1120 1.370 . S
C1121 C1125 1.408 . S
C1122 C1120 1.363 . S
C1122 C1123 1.370 . S
C1122 C1126 1.524 . S
C1123 C1115 1.503 . S
C1123 C1122 1.370 . S
C1123 C1124 1.403 . S
C1124 C1123 1.403 . S
C1124 C1125 1.404 . S
C1124 C1127 1.539 . S
C1125 C1121 1.408 . S
C1125 C1124 1.404 . S
C1125 H1137 0.930 . S
C1126 C1122 1.524 . S
C1126 H1138 0.956 . S
C1126 H1139 0.961 . S
C1126 H1140 0.961 . S
C1127 C1124 1.539 . S
C1127 H1141 0.958 . S
C1127 H1142 0.961 . S
C1127 H1143 0.960 . S
H1128 C1112 0.931 . S
H1129 C1117 0.929 . S
H1130 C1118 0.960 . S
H1131 C1118 0.962 . S
H1132 C1118 0.960 . S
H1133 C1119 0.961 . S
H1134 C1119 0.961 . S
H1135 C1119 0.961 . S
H1136 C1120 0.931 . S
H1137 C1125 0.930 . S
H1138 C1126 0.956 . S
H1139 C1126 0.961 . S
H1140 C1126 0.961 . S
H1141 C1127 0.958 . S
H1142 C1127 0.961 . S
H1143 C1127 0.960 . S
C1144 C1145 1.391 . S
C1144 C1146 1.394 . S
C1144 H1160 0.931 . S
C1145 C1144 1.391 . S
C1145 C1149 1.376 1_545 S
C1146 C1144 1.394 . S
C1146 C1147 1.369 . S
C1146 C1150 1.531 . S
C1147 C1146 1.369 . S
C1147 C1148 1.410 1_545 S
C1147 C1155 1.503 . S
C1148 C1147 1.410 1_565 S
C1148 C1149 1.392 . S
C1148 C1151 1.511 . S
C1149 C1145 1.376 1_565 S
C1149 C1148 1.392 . S
C1149 H1161 0.929 . S
C1150 C1146 1.531 . S
C1150 H1162 0.960 . S
C1150 H1163 0.962 . S
C1150 H1164 0.960 . S
C1151 C1148 1.511 . S
C1151 H1165 0.961 . S
C1151 H1166 0.961 . S
C1151 H1167 0.961 . S
C1152 C1153 1.370 . S
C1152 C1154 1.363 . S
C1152 H1168 0.931 . S
C1153 C1152 1.370 . S
C1153 C1157 1.408 1_545 S
C1154 C1152 1.363 . S
C1154 C1155 1.370 . S
C1154 C1158 1.524 . S
C1155 C1147 1.503 . S
C1155 C1154 1.370 . S
C1155 C1156 1.403 1_545 S
C1156 C1155 1.403 1_565 S
C1156 C1157 1.404 . S
C1156 C1159 1.539 . S
C1157 C1153 1.408 1_565 S
C1157 C1156 1.404 . S
C1157 H1169 0.930 . S
C1158 C1154 1.524 . S
C1158 H1170 0.956 . S
C1158 H1171 0.961 . S
C1158 H1172 0.961 . S
C1159 C1156 1.539 . S
C1159 H1173 0.958 . S
C1159 H1174 0.961 . S
C1159 H1175 0.960 . S
H1160 C1144 0.931 . S
H1161 C1149 0.929 . S
H1162 C1150 0.960 . S
H1163 C1150 0.962 . S
H1164 C1150 0.960 . S
H1165 C1151 0.961 . S
H1166 C1151 0.961 . S
H1167 C1151 0.961 . S
H1168 C1152 0.931 . S
H1169 C1157 0.930 . S
H1170 C1158 0.956 . S
H1171 C1158 0.961 . S
H1172 C1158 0.961 . S
H1173 C1159 0.958 . S
H1174 C1159 0.961 . S
H1175 C1159 0.960 . S
C1176 C1177 1.391 . S
C1176 C1178 1.394 . S
C1176 H1192 0.931 . S
C1177 C1176 1.391 . S
C1177 C1181 1.376 1_545 S
C1178 C1176 1.394 . S
C1178 C1179 1.369 . S
C1178 C1182 1.531 . S
C1179 C1178 1.369 . S
C1179 C1180 1.410 1_545 S
C1179 C1187 1.503 . S
C1180 C1179 1.410 1_565 S
C1180 C1181 1.392 . S
C1180 C1183 1.511 . S
C1181 C1177 1.376 1_565 S
C1181 C1180 1.392 . S
C1181 H1193 0.929 . S
C1182 C1178 1.531 . S
C1182 H1194 0.960 . S
C1182 H1195 0.962 . S
C1182 H1196 0.960 . S
C1183 C1180 1.511 . S
C1183 H1197 0.961 . S
C1183 H1198 0.961 . S
C1183 H1199 0.961 . S
C1184 C1185 1.370 . S
C1184 C1186 1.363 . S
C1184 H1200 0.931 . S
C1185 C1184 1.370 . S
C1185 C1189 1.408 1_565 S
C1186 C1184 1.363 . S
C1186 C1187 1.370 1_565 S
C1186 C1190 1.524 . S
C1187 C1179 1.503 . S
C1187 C1186 1.370 1_545 S
C1187 C1188 1.403 . S
C1188 C1187 1.403 . S
C1188 C1189 1.404 . S
C1188 C1191 1.539 . S
C1189 C1185 1.408 1_545 S
C1189 C1188 1.404 . S
C1189 H1201 0.930 . S
C1190 C1186 1.524 . S
C1190 H1202 0.956 . S
C1190 H1203 0.961 . S
C1190 H1204 0.961 . S
C1191 C1188 1.539 . S
C1191 H1205 0.958 . S
C1191 H1206 0.961 . S
C1191 H1207 0.960 . S
H1192 C1176 0.931 . S
H1193 C1181 0.929 . S
H1194 C1182 0.960 . S
H1195 C1182 0.962 . S
H1196 C1182 0.960 . S
H1197 C1183 0.961 . S
H1198 C1183 0.961 . S
H1199 C1183 0.961 . S
H1200 C1184 0.931 . S
H1201 C1189 0.930 . S
H1202 C1190 0.956 . S
H1203 C1190 0.961 . S
H1204 C1190 0.961 . S
H1205 C1191 0.958 . S
H1206 C1191 0.961 . S
H1207 C1191 0.960 . S
C1208 C1209 1.391 . S
C1208 C1210 1.394 . S
C1208 H1224 0.931 . S
C1209 C1208 1.391 . S
C1209 C1213 1.376 . S
C1210 C1208 1.394 . S
C1210 C1211 1.369 . S
C1210 C1214 1.531 . S
C1211 C1210 1.369 . S
C1211 C1212 1.410 . S
C1211 C1219 1.503 . S
C1212 C1211 1.410 . S
C1212 C1213 1.392 . S
C1212 C1215 1.511 . S
C1213 C1209 1.376 . S
C1213 C1212 1.392 . S
C1213 H1225 0.929 . S
C1214 C1210 1.531 . S
C1214 H1226 0.960 . S
C1214 H1227 0.962 1_455 S
C1214 H1228 0.960 . S
C1215 C1212 1.511 . S
C1215 H1229 0.961 . S
C1215 H1230 0.961 . S
C1215 H1231 0.961 . S
C1216 C1217 1.370 1_655 S
C1216 C1218 1.363 . S
C1216 H1232 0.931 . S
C1217 C1216 1.370 1_455 S
C1217 C1221 1.408 . S
C1218 C1216 1.363 . S
C1218 C1219 1.370 1_655 S
C1218 C1222 1.524 . S
C1219 C1211 1.503 . S
C1219 C1218 1.370 1_455 S
C1219 C1220 1.403 . S
C1220 C1219 1.403 . S
C1220 C1221 1.404 . S
C1220 C1223 1.539 . S
C1221 C1217 1.408 . S
C1221 C1220 1.404 . S
C1221 H1233 0.930 . S
C1222 C1218 1.524 . S
C1222 H1234 0.956 . S
C1222 H1235 0.961 . S
C1222 H1236 0.961 . S
C1223 C1220 1.539 . S
C1223 H1237 0.958 . S
C1223 H1238 0.961 . S
C1223 H1239 0.960 . S
H1224 C1208 0.931 . S
H1225 C1213 0.929 . S
H1226 C1214 0.960 . S
H1227 C1214 0.962 1_655 S
H1228 C1214 0.960 . S
H1229 C1215 0.961 . S
H1230 C1215 0.961 . S
H1231 C1215 0.961 . S
H1232 C1216 0.931 . S
H1233 C1221 0.930 . S
H1234 C1222 0.956 . S
H1235 C1222 0.961 . S
H1236 C1222 0.961 . S
H1237 C1223 0.958 . S
H1238 C1223 0.961 . S
H1239 C1223 0.960 . S
C1240 C1241 1.391 . S
C1240 C1242 1.394 . S
C1240 H1256 0.931 . S
C1241 C1240 1.391 . S
C1241 C1245 1.376 . S
C1242 C1240 1.394 . S
C1242 C1243 1.369 . S
C1242 C1246 1.531 . S
C1243 C1242 1.369 . S
C1243 C1244 1.410 . S
C1243 C1251 1.503 . S
C1244 C1243 1.410 . S
C1244 C1245 1.392 . S
C1244 C1247 1.511 . S
C1245 C1241 1.376 . S
C1245 C1244 1.392 . S
C1245 H1257 0.929 . S
C1246 C1242 1.531 . S
C1246 H1258 0.960 . S
C1246 H1259 0.962 . S
C1246 H1260 0.960 . S
C1247 C1244 1.511 . S
C1247 H1261 0.961 . S
C1247 H1262 0.961 . S
C1247 H1263 0.961 . S
C1248 C1249 1.370 . S
C1248 C1250 1.363 . S
C1248 H1264 0.931 . S
C1249 C1248 1.370 . S
C1249 C1253 1.408 . S
C1250 C1248 1.363 . S
C1250 C1251 1.370 . S
C1250 C1254 1.524 . S
C1251 C1243 1.503 . S
C1251 C1250 1.370 . S
C1251 C1252 1.403 . S
C1252 C1251 1.403 . S
C1252 C1253 1.404 . S
C1252 C1255 1.539 . S
C1253 C1249 1.408 . S
C1253 C1252 1.404 . S
C1253 H1265 0.930 . S
C1254 C1250 1.524 . S
C1254 H1266 0.956 . S
C1254 H1267 0.961 . S
C1254 H1268 0.961 . S
C1255 C1252 1.539 . S
C1255 H1269 0.958 . S
C1255 H1270 0.961 . S
C1255 H1271 0.960 . S
H1256 C1240 0.931 . S
H1257 C1245 0.929 . S
H1258 C1246 0.960 . S
H1259 C1246 0.962 . S
H1260 C1246 0.960 . S
H1261 C1247 0.961 . S
H1262 C1247 0.961 . S
H1263 C1247 0.961 . S
H1264 C1248 0.931 . S
H1265 C1253 0.930 . S
H1266 C1254 0.956 . S
H1267 C1254 0.961 . S
H1268 C1254 0.961 . S
H1269 C1255 0.958 . S
H1270 C1255 0.961 . S
H1271 C1255 0.960 . S
C1272 C1273 1.391 1_655 S
C1272 C1274 1.394 . S
C1272 H1288 0.931 . S
C1273 C1272 1.391 1_455 S
C1273 C1277 1.376 . S
C1274 C1272 1.394 . S
C1274 C1275 1.369 1_655 S
C1274 C1278 1.531 . S
C1275 C1274 1.369 1_455 S
C1275 C1276 1.410 . S
C1275 C1283 1.503 . S
C1276 C1275 1.410 . S
C1276 C1277 1.392 . S
C1276 C1279 1.511 . S
C1277 C1273 1.376 . S
C1277 C1276 1.392 . S
C1277 H1289 0.929 . S
C1278 C1274 1.531 . S
C1278 H1290 0.960 . S
C1278 H1291 0.962 . S
C1278 H1292 0.960 . S
C1279 C1276 1.511 . S
C1279 H1293 0.961 . S
C1279 H1294 0.961 . S
C1279 H1295 0.961 . S
C1280 C1281 1.370 1_655 S
C1280 C1282 1.363 . S
C1280 H1296 0.931 . S
C1281 C1280 1.370 1_455 S
C1281 C1285 1.408 . S
C1282 C1280 1.363 . S
C1282 C1283 1.370 1_655 S
C1282 C1286 1.524 . S
C1283 C1275 1.503 . S
C1283 C1282 1.370 1_455 S
C1283 C1284 1.403 . S
C1284 C1283 1.403 . S
C1284 C1285 1.404 . S
C1284 C1287 1.539 . S
C1285 C1281 1.408 . S
C1285 C1284 1.404 . S
C1285 H1297 0.930 . S
C1286 C1282 1.524 . S
C1286 H1298 0.956 . S
C1286 H1299 0.961 1_655 S
C1286 H1300 0.961 . S
C1287 C1284 1.539 . S
C1287 H1301 0.958 . S
C1287 H1302 0.961 . S
C1287 H1303 0.960 . S
H1288 C1272 0.931 . S
H1289 C1277 0.929 . S
H1290 C1278 0.960 . S
H1291 C1278 0.962 . S
H1292 C1278 0.960 . S
H1293 C1279 0.961 . S
H1294 C1279 0.961 . S
H1295 C1279 0.961 . S
H1296 C1280 0.931 . S
H1297 C1285 0.930 . S
H1298 C1286 0.956 . S
H1299 C1286 0.961 1_455 S
H1300 C1286 0.961 . S
H1301 C1287 0.958 . S
H1302 C1287 0.961 . S
H1303 C1287 0.960 . S
C1304 C1305 1.391 . S
C1304 C1306 1.394 . S
C1304 H1320 0.931 . S
C1305 C1304 1.391 . S
C1305 C1309 1.376 . S
C1306 C1304 1.394 . S
C1306 C1307 1.369 . S
C1306 C1310 1.531 . S
C1307 C1306 1.369 . S
C1307 C1308 1.410 . S
C1307 C1315 1.503 . S
C1308 C1307 1.410 . S
C1308 C1309 1.392 . S
C1308 C1311 1.511 . S
C1309 C1305 1.376 . S
C1309 C1308 1.392 . S
C1309 H1321 0.929 . S
C1310 C1306 1.531 . S
C1310 H1322 0.960 . S
C1310 H1323 0.962 . S
C1310 H1324 0.960 . S
C1311 C1308 1.511 . S
C1311 H1325 0.961 . S
C1311 H1326 0.961 . S
C1311 H1327 0.961 . S
C1312 C1313 1.370 . S
C1312 C1314 1.363 . S
C1312 H1328 0.931 . S
C1313 C1312 1.370 . S
C1313 C1317 1.408 . S
C1314 C1312 1.363 . S
C1314 C1315 1.370 . S
C1314 C1318 1.524 . S
C1315 C1307 1.503 . S
C1315 C1314 1.370 . S
C1315 C1316 1.403 . S
C1316 C1315 1.403 . S
C1316 C1317 1.404 . S
C1316 C1319 1.539 . S
C1317 C1313 1.408 . S
C1317 C1316 1.404 . S
C1317 H1329 0.930 . S
C1318 C1314 1.524 . S
C1318 H1330 0.956 . S
C1318 H1331 0.961 . S
C1318 H1332 0.961 . S
C1319 C1316 1.539 . S
C1319 H1333 0.958 . S
C1319 H1334 0.961 . S
C1319 H1335 0.960 . S
H1320 C1304 0.931 . S
H1321 C1309 0.929 . S
H1322 C1310 0.960 . S
H1323 C1310 0.962 . S
H1324 C1310 0.960 . S
H1325 C1311 0.961 . S
H1326 C1311 0.961 . S
H1327 C1311 0.961 . S
H1328 C1312 0.931 . S
H1329 C1317 0.930 . S
H1330 C1318 0.956 . S
H1331 C1318 0.961 . S
H1332 C1318 0.961 . S
H1333 C1319 0.958 . S
H1334 C1319 0.961 . S
H1335 C1319 0.960 . S
C1336 C1337 1.391 . S
C1336 C1338 1.394 . S
C1336 H1352 0.931 . S
C1337 C1336 1.391 . S
C1337 C1341 1.376 1_565 S
C1338 C1336 1.394 . S
C1338 C1339 1.408 . S
C1338 C1342 1.531 . S
C1339 C1338 1.408 . S
C1339 C1340 1.406 1_565 S
C1339 C1347 1.478 . S
C1340 C1339 1.406 1_545 S
C1340 C1341 1.392 . S
C1340 C1343 1.511 . S
C1341 C1337 1.376 1_545 S
C1341 C1340 1.392 . S
C1341 H1353 0.929 . S
C1342 C1338 1.531 . S
C1342 H1354 0.960 . S
C1342 H1355 0.962 . S
C1342 H1356 0.960 . S
C1343 C1340 1.511 . S
C1343 H1357 0.961 . S
C1343 H1358 0.961 . S
C1343 H1359 0.961 . S
C1344 C1345 1.370 . S
C1344 C1346 1.363 . S
C1344 H1360 0.931 . S
C1345 C1344 1.370 . S
C1345 C1349 1.408 1_565 S
C1346 C1344 1.363 . S
C1346 C1347 1.370 . S
C1346 C1350 1.524 . S
C1347 C1339 1.478 . S
C1347 C1346 1.370 . S
C1347 C1348 1.403 1_565 S
C1348 C1347 1.403 1_545 S
C1348 C1349 1.404 . S
C1348 C1351 1.539 . S
C1349 C1345 1.408 1_545 S
C1349 C1348 1.404 . S
C1349 H1361 0.930 . S
C1350 C1346 1.524 . S
C1350 H1362 0.956 . S
C1350 H1363 0.961 . S
C1350 H1364 0.961 . S
C1351 C1348 1.539 . S
C1351 H1365 0.958 . S
C1351 H1366 0.961 . S
C1351 H1367 0.960 . S
H1352 C1336 0.931 . S
H1353 C1341 0.929 . S
H1354 C1342 0.960 . S
H1355 C1342 0.962 . S
H1356 C1342 0.960 . S
H1357 C1343 0.961 . S
H1358 C1343 0.961 . S
H1359 C1343 0.961 . S
H1360 C1344 0.931 . S
H1361 C1349 0.930 . S
H1362 C1350 0.956 . S
H1363 C1350 0.961 . S
H1364 C1350 0.961 . S
H1365 C1351 0.958 . S
H1366 C1351 0.961 . S
H1367 C1351 0.960 . S
C1368 C1369 1.391 1_565 S
C1368 C1370 1.394 . S
C1368 H1384 0.931 . S
C1369 C1368 1.391 1_545 S
C1369 C1373 1.376 . S
C1370 C1368 1.394 . S
C1370 C1371 1.369 1_565 S
C1370 C1374 1.531 . S
C1371 C1370 1.369 1_545 S
C1371 C1372 1.410 . S
C1371 C1379 1.503 . S
C1372 C1371 1.410 . S
C1372 C1373 1.392 . S
C1372 C1375 1.511 . S
C1373 C1369 1.376 . S
C1373 C1372 1.392 . S
C1373 H1385 0.929 . S
C1374 C1370 1.531 . S
C1374 H1386 0.960 . S
C1374 H1387 0.962 . S
C1374 H1388 0.960 . S
C1375 C1372 1.511 . S
C1375 H1389 0.961 . S
C1375 H1390 0.961 . S
C1375 H1391 0.961 . S
C1376 C1377 1.370 . S
C1376 C1378 1.363 . S
C1376 H1392 0.931 . S
C1377 C1376 1.370 . S
C1377 C1381 1.408 1_545 S
C1378 C1376 1.363 . S
C1378 C1379 1.370 . S
C1378 C1382 1.524 . S
C1379 C1371 1.503 . S
C1379 C1378 1.370 . S
C1379 C1380 1.403 1_545 S
C1380 C1379 1.403 1_565 S
C1380 C1381 1.404 . S
C1380 C1383 1.539 . S
C1381 C1377 1.408 1_565 S
C1381 C1380 1.404 . S
C1381 H1393 0.930 . S
C1382 C1378 1.524 . S
C1382 H1394 0.956 . S
C1382 H1395 0.961 . S
C1382 H1396 0.961 . S
C1383 C1380 1.539 . S
C1383 H1397 0.958 . S
C1383 H1398 0.961 . S
C1383 H1399 0.960 . S
H1384 C1368 0.931 . S
H1385 C1373 0.929 . S
H1386 C1374 0.960 . S
H1387 C1374 0.962 . S
H1388 C1374 0.960 . S
H1389 C1375 0.961 . S
H1390 C1375 0.961 . S
H1391 C1375 0.961 . S
H1392 C1376 0.931 . S
H1393 C1381 0.930 . S
H1394 C1382 0.956 . S
H1395 C1382 0.961 . S
H1396 C1382 0.961 . S
H1397 C1383 0.958 . S
H1398 C1383 0.961 . S
H1399 C1383 0.960 . S
C1400 C1401 1.391 1_455 S
C1400 C1402 1.394 . S
C1400 H1416 0.931 . S
C1401 C1400 1.391 1_655 S
C1401 C1405 1.376 . S
C1402 C1400 1.394 . S
C1402 C1403 1.369 1_455 S
C1402 C1406 1.531 . S
C1403 C1402 1.369 1_655 S
C1403 C1404 1.410 . S
C1403 C1411 1.503 . S
C1404 C1403 1.410 . S
C1404 C1405 1.392 . S
C1404 C1407 1.511 . S
C1405 C1401 1.376 . S
C1405 C1404 1.392 . S
C1405 H1417 0.929 . S
C1406 C1402 1.531 . S
C1406 H1418 0.960 . S
C1406 H1419 0.962 . S
C1406 H1420 0.960 . S
C1407 C1404 1.511 . S
C1407 H1421 0.961 . S
C1407 H1422 0.961 . S
C1407 H1423 0.961 . S
C1408 C1409 1.370 . S
C1408 C1410 1.363 . S
C1408 H1424 0.931 . S
C1409 C1408 1.370 . S
C1409 C1413 1.408 . S
C1410 C1408 1.363 . S
C1410 C1411 1.370 . S
C1410 C1414 1.524 . S
C1411 C1403 1.503 . S
C1411 C1410 1.370 . S
C1411 C1412 1.403 . S
C1412 C1411 1.403 . S
C1412 C1413 1.404 . S
C1412 C1415 1.539 . S
C1413 C1409 1.408 . S
C1413 C1412 1.404 . S
C1413 H1425 0.930 . S
C1414 C1410 1.524 . S
C1414 H1426 0.956 1_655 S
C1414 H1427 0.961 . S
C1414 H1428 0.961 . S
C1415 C1412 1.539 . S
C1415 H1429 0.958 1_655 S
C1415 H1430 0.961 . S
C1415 H1431 0.960 . S
H1416 C1400 0.931 . S
H1417 C1405 0.929 . S
H1418 C1406 0.960 . S
H1419 C1406 0.962 . S
H1420 C1406 0.960 . S
H1421 C1407 0.961 . S
H1422 C1407 0.961 . S
H1423 C1407 0.961 . S
H1424 C1408 0.931 . S
H1425 C1413 0.930 . S
H1426 C1414 0.956 1_455 S
H1427 C1414 0.961 . S
H1428 C1414 0.961 . S
H1429 C1415 0.958 1_455 S
H1430 C1415 0.961 . S
H1431 C1415 0.960 . S
C1432 C1433 1.391 . S
C1432 C1434 1.394 . S
C1432 H1448 0.931 . S
C1433 C1432 1.391 . S
C1433 C1437 1.376 . S
C1434 C1432 1.394 . S
C1434 C1435 1.369 . S
C1434 C1438 1.531 . S
C1435 C1434 1.369 . S
C1435 C1436 1.410 . S
C1435 C1443 1.503 . S
C1436 C1435 1.410 . S
C1436 C1437 1.392 . S
C1436 C1439 1.511 . S
C1437 C1433 1.376 . S
C1437 C1436 1.392 . S
C1437 H1449 0.929 . S
C1438 C1434 1.531 . S
C1438 H1450 0.960 . S
C1438 H1451 0.962 . S
C1438 H1452 0.960 . S
C1439 C1436 1.511 . S
C1439 H1453 0.961 . S
C1439 H1454 0.961 . S
C1439 H1455 0.961 . S
C1440 C1441 1.370 . S
C1440 C1442 1.363 . S
C1440 H1456 0.931 . S
C1441 C1440 1.370 . S
C1441 C1445 1.408 . S
C1442 C1440 1.363 . S
C1442 C1443 1.370 . S
C1442 C1446 1.524 . S
C1443 C1435 1.503 . S
C1443 C1442 1.370 . S
C1443 C1444 1.403 . S
C1444 C1443 1.403 . S
C1444 C1445 1.404 . S
C1444 C1447 1.539 . S
C1445 C1441 1.408 . S
C1445 C1444 1.404 . S
C1445 H1457 0.930 . S
C1446 C1442 1.524 . S
C1446 H1458 0.956 . S
C1446 H1459 0.961 . S
C1446 H1460 0.961 . S
C1447 C1444 1.539 . S
C1447 H1461 0.958 . S
C1447 H1462 0.961 . S
C1447 H1463 0.960 . S
H1448 C1432 0.931 . S
H1449 C1437 0.929 . S
H1450 C1438 0.960 . S
H1451 C1438 0.962 . S
H1452 C1438 0.960 . S
H1453 C1439 0.961 . S
H1454 C1439 0.961 . S
H1455 C1439 0.961 . S
H1456 C1440 0.931 . S
H1457 C1445 0.930 . S
H1458 C1446 0.956 . S
H1459 C1446 0.961 . S
H1460 C1446 0.961 . S
H1461 C1447 0.958 . S
H1462 C1447 0.961 . S
H1463 C1447 0.960 . S
C1464 C1465 1.391 . S
C1464 C1466 1.394 . S
C1464 H1480 0.931 . S
C1465 C1464 1.391 . S
C1465 C1469 1.376 . S
C1466 C1464 1.394 . S
C1466 C1467 1.369 . S
C1466 C1470 1.531 . S
C1467 C1466 1.369 . S
C1467 C1468 1.410 . S
C1467 C1475 1.503 . S
C1468 C1467 1.410 . S
C1468 C1469 1.392 . S
C1468 C1471 1.511 . S
C1469 C1465 1.376 . S
C1469 C1468 1.392 . S
C1469 H1481 0.929 . S
C1470 C1466 1.531 . S
C1470 H1482 0.960 . S
C1470 H1483 0.962 . S
C1470 H1484 0.960 . S
C1471 C1468 1.511 . S
C1471 H1485 0.961 . S
C1471 H1486 0.961 . S
C1471 H1487 0.961 . S
C1472 C1473 1.370 . S
C1472 C1474 1.363 . S
C1472 H1488 0.931 . S
C1473 C1472 1.370 . S
C1473 C1477 1.408 . S
C1474 C1472 1.363 . S
C1474 C1475 1.370 . S
C1474 C1478 1.524 . S
C1475 C1467 1.503 . S
C1475 C1474 1.370 . S
C1475 C1476 1.403 . S
C1476 C1475 1.403 . S
C1476 C1477 1.404 . S
C1476 C1479 1.539 . S
C1477 C1473 1.408 . S
C1477 C1476 1.404 . S
C1477 H1489 0.930 . S
C1478 C1474 1.524 . S
C1478 H1490 0.956 . S
C1478 H1491 0.961 . S
C1478 H1492 0.961 . S
C1479 C1476 1.539 . S
C1479 H1493 0.958 . S
C1479 H1494 0.961 . S
C1479 H1495 0.960 . S
H1480 C1464 0.931 . S
H1481 C1469 0.929 . S
H1482 C1470 0.960 . S
H1483 C1470 0.962 . S
H1484 C1470 0.960 . S
H1485 C1471 0.961 . S
H1486 C1471 0.961 . S
H1487 C1471 0.961 . S
H1488 C1472 0.931 . S
H1489 C1477 0.930 . S
H1490 C1478 0.956 . S
H1491 C1478 0.961 . S
H1492 C1478 0.961 . S
H1493 C1479 0.958 . S
H1494 C1479 0.961 . S
H1495 C1479 0.960 . S
C1496 C1497 1.391 . S
C1496 C1498 1.394 . S
C1496 H1512 0.931 . S
C1497 C1496 1.391 . S
C1497 C1501 1.376 . S
C1498 C1496 1.394 . S
C1498 C1499 1.369 . S
C1498 C1502 1.531 . S
C1499 C1498 1.369 . S
C1499 C1500 1.410 . S
C1499 C1507 1.503 . S
C1500 C1499 1.410 . S
C1500 C1501 1.392 . S
C1500 C1503 1.511 . S
C1501 C1497 1.376 . S
C1501 C1500 1.392 . S
C1501 H1513 0.929 . S
C1502 C1498 1.531 . S
C1502 H1514 0.960 . S
C1502 H1515 0.962 . S
C1502 H1516 0.960 . S
C1503 C1500 1.511 . S
C1503 H1517 0.961 . S
C1503 H1518 0.961 . S
C1503 H1519 0.961 . S
C1504 C1505 1.370 . S
C1504 C1506 1.363 . S
C1504 H1520 0.931 . S
C1505 C1504 1.370 . S
C1505 C1509 1.408 . S
C1506 C1504 1.363 . S
C1506 C1507 1.370 . S
C1506 C1510 1.524 . S
C1507 C1499 1.503 . S
C1507 C1506 1.370 . S
C1507 C1508 1.403 . S
C1508 C1507 1.403 . S
C1508 C1509 1.404 . S
C1508 C1511 1.539 . S
C1509 C1505 1.408 . S
C1509 C1508 1.404 . S
C1509 H1521 0.930 . S
C1510 C1506 1.524 . S
C1510 H1522 0.956 . S
C1510 H1523 0.961 . S
C1510 H1524 0.961 . S
C1511 C1508 1.539 . S
C1511 H1525 0.958 . S
C1511 H1526 0.961 . S
C1511 H1527 0.960 . S
H1512 C1496 0.931 . S
H1513 C1501 0.929 . S
H1514 C1502 0.960 . S
H1515 C1502 0.962 . S
H1516 C1502 0.960 . S
H1517 C1503 0.961 . S
H1518 C1503 0.961 . S
H1519 C1503 0.961 . S
H1520 C1504 0.931 . S
H1521 C1509 0.930 . S
H1522 C1510 0.956 . S
H1523 C1510 0.961 . S
H1524 C1510 0.961 . S
H1525 C1511 0.958 . S
H1526 C1511 0.961 . S
H1527 C1511 0.960 . S
C1528 C1529 1.391 . S
C1528 C1530 1.394 . S
C1528 H1544 0.931 . S
C1529 C1528 1.391 . S
C1529 C1533 1.376 . S
C1530 C1528 1.394 . S
C1530 C1531 1.369 . S
C1530 C1534 1.531 . S
C1531 C1530 1.369 . S
C1531 C1532 1.410 . S
C1531 C1539 1.503 . S
C1532 C1531 1.410 . S
C1532 C1533 1.392 . S
C1532 C1535 1.511 . S
C1533 C1529 1.376 . S
C1533 C1532 1.392 . S
C1533 H1545 0.929 . S
C1534 C1530 1.531 . S
C1534 H1546 0.960 . S
C1534 H1547 0.962 . S
C1534 H1548 0.960 . S
C1535 C1532 1.511 . S
C1535 H1549 0.961 . S
C1535 H1550 0.961 . S
C1535 H1551 0.961 . S
C1536 C1537 1.370 . S
C1536 C1538 1.363 . S
C1536 H1552 0.931 . S
C1537 C1536 1.370 . S
C1537 C1541 1.408 . S
C1538 C1536 1.363 . S
C1538 C1539 1.370 . S
C1538 C1542 1.524 . S
C1539 C1531 1.503 . S
C1539 C1538 1.370 . S
C1539 C1540 1.403 . S
C1540 C1539 1.403 . S
C1540 C1541 1.404 . S
C1540 C1543 1.539 . S
C1541 C1537 1.408 . S
C1541 C1540 1.404 . S
C1541 H1553 0.930 . S
C1542 C1538 1.524 . S
C1542 H1554 0.956 . S
C1542 H1555 0.961 . S
C1542 H1556 0.961 . S
C1543 C1540 1.539 . S
C1543 H1557 0.958 . S
C1543 H1558 0.961 . S
C1543 H1559 0.960 . S
H1544 C1528 0.931 . S
H1545 C1533 0.929 . S
H1546 C1534 0.960 . S
H1547 C1534 0.962 . S
H1548 C1534 0.960 . S
H1549 C1535 0.961 . S
H1550 C1535 0.961 . S
H1551 C1535 0.961 . S
H1552 C1536 0.931 . S
H1553 C1541 0.930 . S
H1554 C1542 0.956 . S
H1555 C1542 0.961 . S
H1556 C1542 0.961 . S
H1557 C1543 0.958 . S
H1558 C1543 0.961 . S
H1559 C1543 0.960 . S
C1560 C1561 1.391 . S
C1560 C1562 1.394 . S
C1560 H1576 0.931 . S
C1561 C1560 1.391 . S
C1561 C1565 1.376 . S
C1562 C1560 1.394 . S
C1562 C1563 1.369 . S
C1562 C1566 1.531 . S
C1563 C1562 1.369 . S
C1563 C1564 1.410 . S
C1563 C1571 1.503 . S
C1564 C1563 1.410 . S
C1564 C1565 1.392 . S
C1564 C1567 1.511 . S
C1565 C1561 1.376 . S
C1565 C1564 1.392 . S
C1565 H1577 0.929 . S
C1566 C1562 1.531 . S
C1566 H1578 0.960 . S
C1566 H1579 0.962 . S
C1566 H1580 0.960 . S
C1567 C1564 1.511 . S
C1567 H1581 0.961 . S
C1567 H1582 0.961 . S
C1567 H1583 0.961 . S
C1568 C1569 1.370 . S
C1568 C1570 1.363 . S
C1568 H1584 0.931 . S
C1569 C1568 1.370 . S
C1569 C1573 1.408 . S
C1570 C1568 1.363 . S
C1570 C1571 1.370 . S
C1570 C1574 1.524 . S
C1571 C1563 1.503 . S
C1571 C1570 1.370 . S
C1571 C1572 1.403 . S
C1572 C1571 1.403 . S
C1572 C1573 1.404 . S
C1572 C1575 1.539 . S
C1573 C1569 1.408 . S
C1573 C1572 1.404 . S
C1573 H1585 0.930 . S
C1574 C1570 1.524 . S
C1574 H1586 0.956 . S
C1574 H1587 0.961 . S
C1574 H1588 0.961 . S
C1575 C1572 1.539 . S
C1575 H1589 0.958 . S
C1575 H1590 0.961 . S
C1575 H1591 0.960 . S
H1576 C1560 0.931 . S
H1577 C1565 0.929 . S
H1578 C1566 0.960 . S
H1579 C1566 0.962 . S
H1580 C1566 0.960 . S
H1581 C1567 0.961 . S
H1582 C1567 0.961 . S
H1583 C1567 0.961 . S
H1584 C1568 0.931 . S
H1585 C1573 0.930 . S
H1586 C1574 0.956 . S
H1587 C1574 0.961 . S
H1588 C1574 0.961 . S
H1589 C1575 0.958 . S
H1590 C1575 0.961 . S
H1591 C1575 0.960 . S
C1592 C1593 1.391 . S
C1592 C1594 1.394 . S
C1592 H1608 0.931 . S
C1593 C1592 1.391 . S
C1593 C1597 1.376 . S
C1594 C1592 1.394 . S
C1594 C1595 1.369 . S
C1594 C1598 1.531 . S
C1595 C1594 1.369 . S
C1595 C1596 1.410 . S
C1595 C1603 1.503 . S
C1596 C1595 1.410 . S
C1596 C1597 1.392 . S
C1596 C1599 1.511 . S
C1597 C1593 1.376 . S
C1597 C1596 1.392 . S
C1597 H1609 0.929 . S
C1598 C1594 1.531 . S
C1598 H1610 0.960 . S
C1598 H1611 0.962 . S
C1598 H1612 0.960 . S
C1599 C1596 1.511 . S
C1599 H1613 0.961 . S
C1599 H1614 0.961 . S
C1599 H1615 0.961 . S
C1600 C1601 1.370 . S
C1600 C1602 1.363 . S
C1600 H1616 0.931 . S
C1601 C1600 1.370 . S
C1601 C1605 1.408 . S
C1602 C1600 1.363 . S
C1602 C1603 1.370 . S
C1602 C1606 1.524 . S
C1603 C1595 1.503 . S
C1603 C1602 1.370 . S
C1603 C1604 1.403 . S
C1604 C1603 1.403 . S
C1604 C1605 1.404 . S
C1604 C1607 1.539 . S
C1605 C1601 1.408 . S
C1605 C1604 1.404 . S
C1605 H1617 0.930 . S
C1606 C1602 1.524 . S
C1606 H1618 0.956 . S
C1606 H1619 0.961 . S
C1606 H1620 0.961 . S
C1607 C1604 1.539 . S
C1607 H1621 0.958 . S
C1607 H1622 0.961 . S
C1607 H1623 0.960 . S
H1608 C1592 0.931 . S
H1609 C1597 0.929 . S
H1610 C1598 0.960 . S
H1611 C1598 0.962 . S
H1612 C1598 0.960 . S
H1613 C1599 0.961 . S
H1614 C1599 0.961 . S
H1615 C1599 0.961 . S
H1616 C1600 0.931 . S
H1617 C1605 0.930 . S
H1618 C1606 0.956 . S
H1619 C1606 0.961 . S
H1620 C1606 0.961 . S
H1621 C1607 0.958 . S
H1622 C1607 0.961 . S
H1623 C1607 0.960 . S
C1624 C1625 1.391 . S
C1624 C1626 1.394 . S
C1624 H1640 0.931 . S
C1625 C1624 1.391 . S
C1625 C1629 1.376 . S
C1626 C1624 1.394 . S
C1626 C1627 1.369 . S
C1626 C1630 1.531 . S
C1627 C1626 1.369 . S
C1627 C1628 1.410 . S
C1627 C1635 1.503 . S
C1628 C1627 1.410 . S
C1628 C1629 1.392 . S
C1628 C1631 1.511 . S
C1629 C1625 1.376 . S
C1629 C1628 1.392 . S
C1629 H1641 0.929 . S
C1630 C1626 1.531 . S
C1630 H1642 0.960 . S
C1630 H1643 0.962 . S
C1630 H1644 0.960 . S
C1631 C1628 1.511 . S
C1631 H1645 0.961 . S
C1631 H1646 0.961 . S
C1631 H1647 0.961 . S
C1632 C1633 1.370 . S
C1632 C1634 1.363 . S
C1632 H1648 0.931 . S
C1633 C1632 1.370 . S
C1633 C1637 1.408 . S
C1634 C1632 1.363 . S
C1634 C1635 1.370 . S
C1634 C1638 1.524 . S
C1635 C1627 1.503 . S
C1635 C1634 1.370 . S
C1635 C1636 1.403 . S
C1636 C1635 1.403 . S
C1636 C1637 1.404 . S
C1636 C1639 1.539 . S
C1637 C1633 1.408 . S
C1637 C1636 1.404 . S
C1637 H1649 0.930 . S
C1638 C1634 1.524 . S
C1638 H1650 0.956 . S
C1638 H1651 0.961 . S
C1638 H1652 0.961 . S
C1639 C1636 1.539 . S
C1639 H1653 0.958 . S
C1639 H1654 0.961 . S
C1639 H1655 0.960 . S
H1640 C1624 0.931 . S
H1641 C1629 0.929 . S
H1642 C1630 0.960 . S
H1643 C1630 0.962 . S
H1644 C1630 0.960 . S
H1645 C1631 0.961 . S
H1646 C1631 0.961 . S
H1647 C1631 0.961 . S
H1648 C1632 0.931 . S
H1649 C1637 0.930 . S
H1650 C1638 0.956 . S
H1651 C1638 0.961 . S
H1652 C1638 0.961 . S
H1653 C1639 0.958 . S
H1654 C1639 0.961 . S
H1655 C1639 0.960 . S
C1656 C1657 1.391 . S
C1656 C1658 1.394 . S
C1656 H1672 0.931 . S
C1657 C1656 1.391 . S
C1657 C1661 1.376 . S
C1658 C1656 1.394 . S
C1658 C1659 1.369 . S
C1658 C1662 1.531 . S
C1659 C1658 1.369 . S
C1659 C1660 1.410 . S
C1659 C1667 1.503 . S
C1660 C1659 1.410 . S
C1660 C1661 1.392 . S
C1660 C1663 1.511 . S
C1661 C1657 1.376 . S
C1661 C1660 1.392 . S
C1661 H1673 0.929 . S
C1662 C1658 1.531 . S
C1662 H1674 0.960 . S
C1662 H1675 0.962 . S
C1662 H1676 0.960 . S
C1663 C1660 1.511 . S
C1663 H1677 0.961 . S
C1663 H1678 0.961 . S
C1663 H1679 0.961 . S
C1664 C1665 1.370 . S
C1664 C1666 1.363 . S
C1664 H1680 0.931 . S
C1665 C1664 1.370 . S
C1665 C1669 1.408 . S
C1666 C1664 1.363 . S
C1666 C1667 1.370 . S
C1666 C1670 1.524 . S
C1667 C1659 1.503 . S
C1667 C1666 1.370 . S
C1667 C1668 1.403 . S
C1668 C1667 1.403 . S
C1668 C1669 1.404 . S
C1668 C1671 1.539 . S
C1669 C1665 1.408 . S
C1669 C1668 1.404 . S
C1669 H1681 0.930 . S
C1670 C1666 1.524 . S
C1670 H1682 0.956 . S
C1670 H1683 0.961 . S
C1670 H1684 0.961 . S
C1671 C1668 1.539 . S
C1671 H1685 0.958 . S
C1671 H1686 0.961 . S
C1671 H1687 0.960 . S
H1672 C1656 0.931 . S
H1673 C1661 0.929 . S
H1674 C1662 0.960 . S
H1675 C1662 0.962 . S
H1676 C1662 0.960 . S
H1677 C1663 0.961 . S
H1678 C1663 0.961 . S
H1679 C1663 0.961 . S
H1680 C1664 0.931 . S
H1681 C1669 0.930 . S
H1682 C1670 0.956 . S
H1683 C1670 0.961 . S
H1684 C1670 0.961 . S
H1685 C1671 0.958 . S
H1686 C1671 0.961 . S
H1687 C1671 0.960 . S
C1688 C1689 1.391 . S
C1688 C1690 1.394 . S
C1688 H1704 0.931 . S
C1689 C1688 1.391 . S
C1689 C1693 1.376 . S
C1690 C1688 1.394 . S
C1690 C1691 1.369 . S
C1690 C1694 1.531 . S
C1691 C1690 1.369 . S
C1691 C1692 1.410 . S
C1691 C1699 1.503 . S
C1692 C1691 1.410 . S
C1692 C1693 1.392 . S
C1692 C1695 1.511 . S
C1693 C1689 1.376 . S
C1693 C1692 1.392 . S
C1693 H1705 0.929 . S
C1694 C1690 1.531 . S
C1694 H1706 0.960 . S
C1694 H1707 0.962 . S
C1694 H1708 0.960 . S
C1695 C1692 1.511 . S
C1695 H1709 0.961 . S
C1695 H1710 0.961 . S
C1695 H1711 0.961 . S
C1696 C1697 1.370 . S
C1696 C1698 1.363 . S
C1696 H1712 0.931 . S
C1697 C1696 1.370 . S
C1697 C1701 1.408 . S
C1698 C1696 1.363 . S
C1698 C1699 1.370 . S
C1698 C1702 1.524 . S
C1699 C1691 1.503 . S
C1699 C1698 1.370 . S
C1699 C1700 1.403 . S
C1700 C1699 1.403 . S
C1700 C1701 1.404 . S
C1700 C1703 1.539 . S
C1701 C1697 1.408 . S
C1701 C1700 1.404 . S
C1701 H1713 0.930 . S
C1702 C1698 1.524 . S
C1702 H1714 0.956 . S
C1702 H1715 0.961 . S
C1702 H1716 0.961 . S
C1703 C1700 1.539 . S
C1703 H1717 0.958 . S
C1703 H1718 0.961 . S
C1703 H1719 0.960 . S
H1704 C1688 0.931 . S
H1705 C1693 0.929 . S
H1706 C1694 0.960 . S
H1707 C1694 0.962 . S
H1708 C1694 0.960 . S
H1709 C1695 0.961 . S
H1710 C1695 0.961 . S
H1711 C1695 0.961 . S
H1712 C1696 0.931 . S
H1713 C1701 0.930 . S
H1714 C1702 0.956 . S
H1715 C1702 0.961 . S
H1716 C1702 0.961 . S
H1717 C1703 0.958 . S
H1718 C1703 0.961 . S
H1719 C1703 0.960 . S
C1720 C1721 1.391 . S
C1720 C1722 1.394 . S
C1720 H1736 0.931 . S
C1721 C1720 1.391 . S
C1721 C1725 1.376 . S
C1722 C1720 1.394 . S
C1722 C1723 1.369 . S
C1722 C1726 1.531 . S
C1723 C1722 1.369 . S
C1723 C1724 1.410 . S
C1723 C1731 1.503 . S
C1724 C1723 1.410 . S
C1724 C1725 1.392 . S
C1724 C1727 1.511 . S
C1725 C1721 1.376 . S
C1725 C1724 1.392 . S
C1725 H1737 0.929 . S
C1726 C1722 1.531 . S
C1726 H1738 0.960 . S
C1726 H1739 0.962 . S
C1726 H1740 0.960 . S
C1727 C1724 1.511 . S
C1727 H1741 0.961 . S
C1727 H1742 0.961 . S
C1727 H1743 0.961 . S
C1728 C1729 1.370 . S
C1728 C1730 1.363 . S
C1728 H1744 0.931 . S
C1729 C1728 1.370 . S
C1729 C1733 1.408 . S
C1730 C1728 1.363 . S
C1730 C1731 1.370 . S
C1730 C1734 1.524 . S
C1731 C1723 1.503 . S
C1731 C1730 1.370 . S
C1731 C1732 1.403 . S
C1732 C1731 1.403 . S
C1732 C1733 1.404 . S
C1732 C1735 1.539 . S
C1733 C1729 1.408 . S
C1733 C1732 1.404 . S
C1733 H1745 0.930 . S
C1734 C1730 1.524 . S
C1734 H1746 0.956 . S
C1734 H1747 0.961 . S
C1734 H1748 0.961 . S
C1735 C1732 1.539 . S
C1735 H1749 0.958 . S
C1735 H1750 0.961 . S
C1735 H1751 0.960 . S
H1736 C1720 0.931 . S
H1737 C1725 0.929 . S
H1738 C1726 0.960 . S
H1739 C1726 0.962 . S
H1740 C1726 0.960 . S
H1741 C1727 0.961 . S
H1742 C1727 0.961 . S
H1743 C1727 0.961 . S
H1744 C1728 0.931 . S
H1745 C1733 0.930 . S
H1746 C1734 0.956 . S
H1747 C1734 0.961 . S
H1748 C1734 0.961 . S
H1749 C1735 0.958 . S
H1750 C1735 0.961 . S
H1751 C1735 0.960 . S
C1752 C1753 1.391 . S
C1752 C1754 1.394 . S
C1752 H1768 0.931 . S
C1753 C1752 1.391 . S
C1753 C1757 1.376 . S
C1754 C1752 1.394 . S
C1754 C1755 1.369 . S
C1754 C1758 1.531 . S
C1755 C1754 1.369 . S
C1755 C1756 1.410 . S
C1755 C1763 1.503 . S
C1756 C1755 1.410 . S
C1756 C1757 1.392 . S
C1756 C1759 1.511 . S
C1757 C1753 1.376 . S
C1757 C1756 1.392 . S
C1757 H1769 0.929 . S
C1758 C1754 1.531 . S
C1758 H1770 0.960 . S
C1758 H1771 0.962 . S
C1758 H1772 0.960 . S
C1759 C1756 1.511 . S
C1759 H1773 0.961 . S
C1759 H1774 0.961 . S
C1759 H1775 0.961 . S
C1760 C1761 1.370 . S
C1760 C1762 1.363 . S
C1760 H1776 0.931 . S
C1761 C1760 1.370 . S
C1761 C1765 1.408 . S
C1762 C1760 1.363 . S
C1762 C1763 1.370 . S
C1762 C1766 1.524 . S
C1763 C1755 1.503 . S
C1763 C1762 1.370 . S
C1763 C1764 1.403 . S
C1764 C1763 1.403 . S
C1764 C1765 1.404 . S
C1764 C1767 1.539 . S
C1765 C1761 1.408 . S
C1765 C1764 1.404 . S
C1765 H1777 0.930 . S
C1766 C1762 1.524 . S
C1766 H1778 0.956 . S
C1766 H1779 0.961 . S
C1766 H1780 0.961 . S
C1767 C1764 1.539 . S
C1767 H1781 0.958 . S
C1767 H1782 0.961 . S
C1767 H1783 0.960 . S
H1768 C1752 0.931 . S
H1769 C1757 0.929 . S
H1770 C1758 0.960 . S
H1771 C1758 0.962 . S
H1772 C1758 0.960 . S
H1773 C1759 0.961 . S
H1774 C1759 0.961 . S
H1775 C1759 0.961 . S
H1776 C1760 0.931 . S
H1777 C1765 0.930 . S
H1778 C1766 0.956 . S
H1779 C1766 0.961 . S
H1780 C1766 0.961 . S
H1781 C1767 0.958 . S
H1782 C1767 0.961 . S
H1783 C1767 0.960 . S
C1784 C1785 1.391 . S
C1784 C1786 1.394 . S
C1784 H1800 0.931 . S
C1785 C1784 1.391 . S
C1785 C1789 1.376 . S
C1786 C1784 1.394 . S
C1786 C1787 1.369 . S
C1786 C1790 1.531 . S
C1787 C1786 1.369 . S
C1787 C1788 1.410 . S
C1787 C1795 1.503 . S
C1788 C1787 1.410 . S
C1788 C1789 1.392 . S
C1788 C1791 1.511 . S
C1789 C1785 1.376 . S
C1789 C1788 1.392 . S
C1789 H1801 0.929 . S
C1790 C1786 1.531 . S
C1790 H1802 0.960 . S
C1790 H1803 0.962 . S
C1790 H1804 0.960 . S
C1791 C1788 1.511 . S
C1791 H1805 0.961 . S
C1791 H1806 0.961 . S
C1791 H1807 0.961 . S
C1792 C1793 1.370 . S
C1792 C1794 1.363 . S
C1792 H1808 0.931 . S
C1793 C1792 1.370 . S
C1793 C1797 1.408 . S
C1794 C1792 1.363 . S
C1794 C1795 1.370 . S
C1794 C1798 1.524 . S
C1795 C1787 1.503 . S
C1795 C1794 1.370 . S
C1795 C1796 1.403 . S
C1796 C1795 1.403 . S
C1796 C1797 1.404 . S
C1796 C1799 1.539 . S
C1797 C1793 1.408 . S
C1797 C1796 1.404 . S
C1797 H1809 0.930 . S
C1798 C1794 1.524 . S
C1798 H1810 0.956 . S
C1798 H1811 0.961 . S
C1798 H1812 0.961 . S
C1799 C1796 1.539 . S
C1799 H1813 0.958 . S
C1799 H1814 0.961 . S
C1799 H1815 0.960 . S
H1800 C1784 0.931 . S
H1801 C1789 0.929 . S
H1802 C1790 0.960 . S
H1803 C1790 0.962 . S
H1804 C1790 0.960 . S
H1805 C1791 0.961 . S
H1806 C1791 0.961 . S
H1807 C1791 0.961 . S
H1808 C1792 0.931 . S
H1809 C1797 0.930 . S
H1810 C1798 0.956 . S
H1811 C1798 0.961 . S
H1812 C1798 0.961 . S
H1813 C1799 0.958 . S
H1814 C1799 0.961 . S
H1815 C1799 0.960 . S
C1816 C1817 1.391 . S
C1816 C1818 1.394 . S
C1816 H1832 0.931 . S
C1817 C1816 1.391 . S
C1817 C1821 1.376 . S
C1818 C1816 1.394 . S
C1818 C1819 1.369 . S
C1818 C1822 1.531 . S
C1819 C1818 1.369 . S
C1819 C1820 1.410 . S
C1819 C1827 1.503 . S
C1820 C1819 1.410 . S
C1820 C1821 1.392 . S
C1820 C1823 1.511 . S
C1821 C1817 1.376 . S
C1821 C1820 1.392 . S
C1821 H1833 0.929 . S
C1822 C1818 1.531 . S
C1822 H1834 0.960 . S
C1822 H1835 0.962 . S
C1822 H1836 0.960 . S
C1823 C1820 1.511 . S
C1823 H1837 0.961 . S
C1823 H1838 0.961 . S
C1823 H1839 0.961 . S
C1824 C1825 1.370 . S
C1824 C1826 1.363 . S
C1824 H1840 0.931 . S
C1825 C1824 1.370 . S
C1825 C1829 1.408 . S
C1826 C1824 1.363 . S
C1826 C1827 1.370 . S
C1826 C1830 1.524 . S
C1827 C1819 1.503 . S
C1827 C1826 1.370 . S
C1827 C1828 1.403 . S
C1828 C1827 1.403 . S
C1828 C1829 1.404 . S
C1828 C1831 1.539 . S
C1829 C1825 1.408 . S
C1829 C1828 1.404 . S
C1829 H1841 0.930 . S
C1830 C1826 1.524 . S
C1830 H1842 0.956 . S
C1830 H1843 0.961 . S
C1830 H1844 0.961 . S
C1831 C1828 1.539 . S
C1831 H1845 0.958 . S
C1831 H1846 0.961 . S
C1831 H1847 0.960 . S
H1832 C1816 0.931 . S
H1833 C1821 0.929 . S
H1834 C1822 0.960 . S
H1835 C1822 0.962 . S
H1836 C1822 0.960 . S
H1837 C1823 0.961 . S
H1838 C1823 0.961 . S
H1839 C1823 0.961 . S
H1840 C1824 0.931 . S
H1841 C1829 0.930 . S
H1842 C1830 0.956 . S
H1843 C1830 0.961 . S
H1844 C1830 0.961 . S
H1845 C1831 0.958 . S
H1846 C1831 0.961 . S
H1847 C1831 0.960 . S
C1848 C1849 1.391 . S
C1848 C1850 1.394 . S
C1848 H1864 0.931 . S
C1849 C1848 1.391 . S
C1849 C1853 1.376 . S
C1850 C1848 1.394 . S
C1850 C1851 1.369 . S
C1850 C1854 1.531 . S
C1851 C1850 1.369 . S
C1851 C1852 1.410 . S
C1851 C1859 1.503 . S
C1852 C1851 1.410 . S
C1852 C1853 1.392 . S
C1852 C1855 1.511 . S
C1853 C1849 1.376 . S
C1853 C1852 1.392 . S
C1853 H1865 0.929 . S
C1854 C1850 1.531 . S
C1854 H1866 0.960 . S
C1854 H1867 0.962 . S
C1854 H1868 0.960 . S
C1855 C1852 1.511 . S
C1855 H1869 0.961 . S
C1855 H1870 0.961 . S
C1855 H1871 0.961 . S
C1856 C1857 1.370 . S
C1856 C1858 1.363 . S
C1856 H1872 0.931 . S
C1857 C1856 1.370 . S
C1857 C1861 1.408 . S
C1858 C1856 1.363 . S
C1858 C1859 1.370 . S
C1858 C1862 1.524 . S
C1859 C1851 1.503 . S
C1859 C1858 1.370 . S
C1859 C1860 1.403 . S
C1860 C1859 1.403 . S
C1860 C1861 1.404 . S
C1860 C1863 1.539 . S
C1861 C1857 1.408 . S
C1861 C1860 1.404 . S
C1861 H1873 0.930 . S
C1862 C1858 1.524 . S
C1862 H1874 0.956 . S
C1862 H1875 0.961 . S
C1862 H1876 0.961 . S
C1863 C1860 1.539 . S
C1863 H1877 0.958 . S
C1863 H1878 0.961 . S
C1863 H1879 0.960 . S
H1864 C1848 0.931 . S
H1865 C1853 0.929 . S
H1866 C1854 0.960 . S
H1867 C1854 0.962 . S
H1868 C1854 0.960 . S
H1869 C1855 0.961 . S
H1870 C1855 0.961 . S
H1871 C1855 0.961 . S
H1872 C1856 0.931 . S
H1873 C1861 0.930 . S
H1874 C1862 0.956 . S
H1875 C1862 0.961 . S
H1876 C1862 0.961 . S
H1877 C1863 0.958 . S
H1878 C1863 0.961 . S
H1879 C1863 0.960 . S
C1880 C1881 1.391 . S
C1880 C1882 1.394 . S
C1880 H1896 0.931 . S
C1881 C1880 1.391 . S
C1881 C1885 1.376 . S
C1882 C1880 1.394 . S
C1882 C1883 1.369 . S
C1882 C1886 1.531 . S
C1883 C1882 1.369 . S
C1883 C1884 1.410 . S
C1883 C1891 1.503 . S
C1884 C1883 1.410 . S
C1884 C1885 1.392 . S
C1884 C1887 1.511 . S
C1885 C1881 1.376 . S
C1885 C1884 1.392 . S
C1885 H1897 0.929 . S
C1886 C1882 1.531 . S
C1886 H1898 0.960 . S
C1886 H1899 0.962 . S
C1886 H1900 0.960 . S
C1887 C1884 1.511 . S
C1887 H1901 0.961 . S
C1887 H1902 0.961 . S
C1887 H1903 0.961 . S
C1888 C1889 1.370 . S
C1888 C1890 1.363 . S
C1888 H1904 0.931 . S
C1889 C1888 1.370 . S
C1889 C1893 1.408 . S
C1890 C1888 1.363 . S
C1890 C1891 1.370 . S
C1890 C1894 1.524 . S
C1891 C1883 1.503 . S
C1891 C1890 1.370 . S
C1891 C1892 1.403 . S
C1892 C1891 1.403 . S
C1892 C1893 1.404 . S
C1892 C1895 1.539 . S
C1893 C1889 1.408 . S
C1893 C1892 1.404 . S
C1893 H1905 0.930 . S
C1894 C1890 1.524 . S
C1894 H1906 0.956 . S
C1894 H1907 0.961 . S
C1894 H1908 0.961 . S
C1895 C1892 1.539 . S
C1895 H1909 0.958 . S
C1895 H1910 0.961 . S
C1895 H1911 0.960 . S
H1896 C1880 0.931 . S
H1897 C1885 0.929 . S
H1898 C1886 0.960 . S
H1899 C1886 0.962 . S
H1900 C1886 0.960 . S
H1901 C1887 0.961 . S
H1902 C1887 0.961 . S
H1903 C1887 0.961 . S
H1904 C1888 0.931 . S
H1905 C1893 0.930 . S
H1906 C1894 0.956 . S
H1907 C1894 0.961 . S
H1908 C1894 0.961 . S
H1909 C1895 0.958 . S
H1910 C1895 0.961 . S
H1911 C1895 0.960 . S
C1912 C1913 1.391 . S
C1912 C1914 1.394 . S
C1912 H1928 0.931 . S
C1913 C1912 1.391 . S
C1913 C1917 1.376 . S
C1914 C1912 1.394 . S
C1914 C1915 1.369 . S
C1914 C1918 1.531 . S
C1915 C1914 1.369 . S
C1915 C1916 1.410 . S
C1915 C1923 1.503 . S
C1916 C1915 1.410 . S
C1916 C1917 1.392 . S
C1916 C1919 1.511 . S
C1917 C1913 1.376 . S
C1917 C1916 1.392 . S
C1917 H1929 0.929 . S
C1918 C1914 1.531 . S
C1918 H1930 0.960 . S
C1918 H1931 0.962 . S
C1918 H1932 0.960 . S
C1919 C1916 1.511 . S
C1919 H1933 0.961 . S
C1919 H1934 0.961 . S
C1919 H1935 0.961 . S
C1920 C1921 1.370 . S
C1920 C1922 1.363 . S
C1920 H1936 0.931 . S
C1921 C1920 1.370 . S
C1921 C1925 1.408 . S
C1922 C1920 1.363 . S
C1922 C1923 1.370 . S
C1922 C1926 1.524 . S
C1923 C1915 1.503 . S
C1923 C1922 1.370 . S
C1923 C1924 1.403 . S
C1924 C1923 1.403 . S
C1924 C1925 1.404 . S
C1924 C1927 1.539 . S
C1925 C1921 1.408 . S
C1925 C1924 1.404 . S
C1925 H1937 0.930 . S
C1926 C1922 1.524 . S
C1926 H1938 0.956 . S
C1926 H1939 0.961 . S
C1926 H1940 0.961 . S
C1927 C1924 1.539 . S
C1927 H1941 0.958 . S
C1927 H1942 0.961 . S
C1927 H1943 0.960 . S
H1928 C1912 0.931 . S
H1929 C1917 0.929 . S
H1930 C1918 0.960 . S
H1931 C1918 0.962 . S
H1932 C1918 0.960 . S
H1933 C1919 0.961 . S
H1934 C1919 0.961 . S
H1935 C1919 0.961 . S
H1936 C1920 0.931 . S
H1937 C1925 0.930 . S
H1938 C1926 0.956 . S
H1939 C1926 0.961 . S
H1940 C1926 0.961 . S
H1941 C1927 0.958 . S
H1942 C1927 0.961 . S
H1943 C1927 0.960 . S
C1944 C1945 1.391 . S
C1944 C1946 1.394 . S
C1944 H1960 0.931 . S
C1945 C1944 1.391 . S
C1945 C1949 1.376 . S
C1946 C1944 1.394 . S
C1946 C1947 1.369 . S
C1946 C1950 1.531 . S
C1947 C1946 1.369 . S
C1947 C1948 1.410 . S
C1947 C1955 1.503 . S
C1948 C1947 1.410 . S
C1948 C1949 1.392 . S
C1948 C1951 1.511 . S
C1949 C1945 1.376 . S
C1949 C1948 1.392 . S
C1949 H1961 0.929 . S
C1950 C1946 1.531 . S
C1950 H1962 0.960 . S
C1950 H1963 0.962 . S
C1950 H1964 0.960 . S
C1951 C1948 1.511 . S
C1951 H1965 0.961 . S
C1951 H1966 0.961 . S
C1951 H1967 0.961 . S
C1952 C1953 1.370 . S
C1952 C1954 1.363 . S
C1952 H1968 0.931 . S
C1953 C1952 1.370 . S
C1953 C1957 1.408 . S
C1954 C1952 1.363 . S
C1954 C1955 1.370 . S
C1954 C1958 1.524 . S
C1955 C1947 1.503 . S
C1955 C1954 1.370 . S
C1955 C1956 1.403 . S
C1956 C1955 1.403 . S
C1956 C1957 1.404 . S
C1956 C1959 1.539 . S
C1957 C1953 1.408 . S
C1957 C1956 1.404 . S
C1957 H1969 0.930 . S
C1958 C1954 1.524 . S
C1958 H1970 0.956 . S
C1958 H1971 0.961 . S
C1958 H1972 0.961 . S
C1959 C1956 1.539 . S
C1959 H1973 0.958 . S
C1959 H1974 0.961 . S
C1959 H1975 0.960 . S
H1960 C1944 0.931 . S
H1961 C1949 0.929 . S
H1962 C1950 0.960 . S
H1963 C1950 0.962 . S
H1964 C1950 0.960 . S
H1965 C1951 0.961 . S
H1966 C1951 0.961 . S
H1967 C1951 0.961 . S
H1968 C1952 0.931 . S
H1969 C1957 0.930 . S
H1970 C1958 0.956 . S
H1971 C1958 0.961 . S
H1972 C1958 0.961 . S
H1973 C1959 0.958 . S
H1974 C1959 0.961 . S
H1975 C1959 0.960 . S
C1976 C1977 1.391 . S
C1976 C1978 1.394 . S
C1976 H1992 0.931 . S
C1977 C1976 1.391 . S
C1977 C1981 1.376 . S
C1978 C1976 1.394 . S
C1978 C1979 1.369 . S
C1978 C1982 1.531 . S
C1979 C1978 1.369 . S
C1979 C1980 1.410 . S
C1979 C1987 1.503 . S
C1980 C1979 1.410 . S
C1980 C1981 1.392 . S
C1980 C1983 1.511 . S
C1981 C1977 1.376 . S
C1981 C1980 1.392 . S
C1981 H1993 0.929 . S
C1982 C1978 1.531 . S
C1982 H1994 0.960 . S
C1982 H1995 0.962 . S
C1982 H1996 0.960 . S
C1983 C1980 1.511 . S
C1983 H1997 0.961 . S
C1983 H1998 0.961 . S
C1983 H1999 0.961 . S
C1984 C1985 1.370 . S
C1984 C1986 1.363 . S
C1984 H2000 0.931 . S
C1985 C1984 1.370 . S
C1985 C1989 1.408 . S
C1986 C1984 1.363 . S
C1986 C1987 1.370 . S
C1986 C1990 1.524 . S
C1987 C1979 1.503 . S
C1987 C1986 1.370 . S
C1987 C1988 1.403 . S
C1988 C1987 1.403 . S
C1988 C1989 1.404 . S
C1988 C1991 1.539 . S
C1989 C1985 1.408 . S
C1989 C1988 1.404 . S
C1989 H2001 0.930 . S
C1990 C1986 1.524 . S
C1990 H2002 0.956 . S
C1990 H2003 0.961 . S
C1990 H2004 0.961 . S
C1991 C1988 1.539 . S
C1991 H2005 0.958 . S
C1991 H2006 0.961 . S
C1991 H2007 0.960 . S
H1992 C1976 0.931 . S
H1993 C1981 0.929 . S
H1994 C1982 0.960 . S
H1995 C1982 0.962 . S
H1996 C1982 0.960 . S
H1997 C1983 0.961 . S
H1998 C1983 0.961 . S
H1999 C1983 0.961 . S
H2000 C1984 0.931 . S
H2001 C1989 0.930 . S
H2002 C1990 0.956 . S
H2003 C1990 0.961 . S
H2004 C1990 0.961 . S
H2005 C1991 0.958 . S
H2006 C1991 0.961 . S
H2007 C1991 0.960 . S
C2008 C2009 1.391 . S
C2008 C2010 1.394 . S
C2008 H2024 0.931 . S
C2009 C2008 1.391 . S
C2009 C2013 1.376 . S
C2010 C2008 1.394 . S
C2010 C2011 1.369 . S
C2010 C2014 1.531 . S
C2011 C2010 1.369 . S
C2011 C2012 1.410 . S
C2011 C2019 1.503 . S
C2012 C2011 1.410 . S
C2012 C2013 1.392 . S
C2012 C2015 1.511 . S
C2013 C2009 1.376 . S
C2013 C2012 1.392 . S
C2013 H2025 0.929 . S
C2014 C2010 1.531 . S
C2014 H2026 0.960 . S
C2014 H2027 0.962 . S
C2014 H2028 0.960 . S
C2015 C2012 1.511 . S
C2015 H2029 0.961 . S
C2015 H2030 0.961 . S
C2015 H2031 0.961 . S
C2016 C2017 1.370 . S
C2016 C2018 1.363 . S
C2016 H2032 0.931 . S
C2017 C2016 1.370 . S
C2017 C2021 1.408 . S
C2018 C2016 1.363 . S
C2018 C2019 1.370 . S
C2018 C2022 1.524 . S
C2019 C2011 1.503 . S
C2019 C2018 1.370 . S
C2019 C2020 1.403 . S
C2020 C2019 1.403 . S
C2020 C2021 1.404 . S
C2020 C2023 1.539 . S
C2021 C2017 1.408 . S
C2021 C2020 1.404 . S
C2021 H2033 0.930 . S
C2022 C2018 1.524 . S
C2022 H2034 0.956 . S
C2022 H2035 0.961 . S
C2022 H2036 0.961 . S
C2023 C2020 1.539 . S
C2023 H2037 0.958 . S
C2023 H2038 0.961 . S
C2023 H2039 0.960 . S
H2024 C2008 0.931 . S
H2025 C2013 0.929 . S
H2026 C2014 0.960 . S
H2027 C2014 0.962 . S
H2028 C2014 0.960 . S
H2029 C2015 0.961 . S
H2030 C2015 0.961 . S
H2031 C2015 0.961 . S
H2032 C2016 0.931 . S
H2033 C2021 0.930 . S
H2034 C2022 0.956 . S
H2035 C2022 0.961 . S
H2036 C2022 0.961 . S
H2037 C2023 0.958 . S
H2038 C2023 0.961 . S
H2039 C2023 0.960 . S
C2040 C2041 1.391 . S
C2040 C2042 1.394 . S
C2040 H2056 0.931 . S
C2041 C2040 1.391 . S
C2041 C2045 1.376 . S
C2042 C2040 1.394 . S
C2042 C2043 1.369 . S
C2042 C2046 1.531 . S
C2043 C2042 1.369 . S
C2043 C2044 1.410 . S
C2043 C2051 1.503 . S
C2044 C2043 1.410 . S
C2044 C2045 1.392 . S
C2044 C2047 1.511 . S
C2045 C2041 1.376 . S
C2045 C2044 1.392 . S
C2045 H2057 0.929 . S
C2046 C2042 1.531 . S
C2046 H2058 0.960 . S
C2046 H2059 0.962 . S
C2046 H2060 0.960 . S
C2047 C2044 1.511 . S
C2047 H2061 0.961 . S
C2047 H2062 0.961 . S
C2047 H2063 0.961 . S
C2048 C2049 1.370 . S
C2048 C2050 1.363 . S
C2048 H2064 0.931 . S
C2049 C2048 1.370 . S
C2049 C2053 1.408 . S
C2050 C2048 1.363 . S
C2050 C2051 1.370 . S
C2050 C2054 1.524 . S
C2051 C2043 1.503 . S
C2051 C2050 1.370 . S
C2051 C2052 1.403 . S
C2052 C2051 1.403 . S
C2052 C2053 1.404 . S
C2052 C2055 1.539 . S
C2053 C2049 1.408 . S
C2053 C2052 1.404 . S
C2053 H2065 0.930 . S
C2054 C2050 1.524 . S
C2054 H2066 0.956 . S
C2054 H2067 0.961 . S
C2054 H2068 0.961 . S
C2055 C2052 1.539 . S
C2055 H2069 0.958 . S
C2055 H2070 0.961 . S
C2055 H2071 0.960 . S
H2056 C2040 0.931 . S
H2057 C2045 0.929 . S
H2058 C2046 0.960 . S
H2059 C2046 0.962 . S
H2060 C2046 0.960 . S
H2061 C2047 0.961 . S
H2062 C2047 0.961 . S
H2063 C2047 0.961 . S
H2064 C2048 0.931 . S
H2065 C2053 0.930 . S
H2066 C2054 0.956 . S
H2067 C2054 0.961 . S
H2068 C2054 0.961 . S
H2069 C2055 0.958 . S
H2070 C2055 0.961 . S
H2071 C2055 0.960 . S
C2072 C2073 1.391 . S
C2072 C2074 1.394 . S
C2072 H2088 0.931 . S
C2073 C2072 1.391 . S
C2073 C2077 1.376 . S
C2074 C2072 1.394 . S
C2074 C2075 1.369 . S
C2074 C2078 1.531 . S
C2075 C2074 1.369 . S
C2075 C2076 1.410 . S
C2075 C2083 1.503 . S
C2076 C2075 1.410 . S
C2076 C2077 1.392 . S
C2076 C2079 1.511 . S
C2077 C2073 1.376 . S
C2077 C2076 1.392 . S
C2077 H2089 0.929 . S
C2078 C2074 1.531 . S
C2078 H2090 0.960 . S
C2078 H2091 0.962 . S
C2078 H2092 0.960 . S
C2079 C2076 1.511 . S
C2079 H2093 0.961 . S
C2079 H2094 0.961 . S
C2079 H2095 0.961 . S
C2080 C2081 1.370 . S
C2080 C2082 1.363 . S
C2080 H2096 0.931 . S
C2081 C2080 1.370 . S
C2081 C2085 1.408 . S
C2082 C2080 1.363 . S
C2082 C2083 1.370 . S
C2082 C2086 1.524 . S
C2083 C2075 1.503 . S
C2083 C2082 1.370 . S
C2083 C2084 1.403 . S
C2084 C2083 1.403 . S
C2084 C2085 1.404 . S
C2084 C2087 1.539 . S
C2085 C2081 1.408 . S
C2085 C2084 1.404 . S
C2085 H2097 0.930 . S
C2086 C2082 1.524 . S
C2086 H2098 0.956 . S
C2086 H2099 0.961 . S
C2086 H2100 0.961 . S
C2087 C2084 1.539 . S
C2087 H2101 0.958 . S
C2087 H2102 0.961 . S
C2087 H2103 0.960 . S
H2088 C2072 0.931 . S
H2089 C2077 0.929 . S
H2090 C2078 0.960 . S
H2091 C2078 0.962 . S
H2092 C2078 0.960 . S
H2093 C2079 0.961 . S
H2094 C2079 0.961 . S
H2095 C2079 0.961 . S
H2096 C2080 0.931 . S
H2097 C2085 0.930 . S
H2098 C2086 0.956 . S
H2099 C2086 0.961 . S
H2100 C2086 0.961 . S
H2101 C2087 0.958 . S
H2102 C2087 0.961 . S
H2103 C2087 0.960 . S
C2104 C2105 1.391 . S
C2104 C2106 1.394 . S
C2104 H2120 0.931 . S
C2105 C2104 1.391 . S
C2105 C2109 1.376 . S
C2106 C2104 1.394 . S
C2106 C2107 1.369 . S
C2106 C2110 1.531 . S
C2107 C2106 1.369 . S
C2107 C2108 1.410 . S
C2107 C2115 1.503 . S
C2108 C2107 1.410 . S
C2108 C2109 1.392 . S
C2108 C2111 1.511 . S
C2109 C2105 1.376 . S
C2109 C2108 1.392 . S
C2109 H2121 0.929 . S
C2110 C2106 1.531 . S
C2110 H2122 0.960 . S
C2110 H2123 0.962 . S
C2110 H2124 0.960 . S
C2111 C2108 1.511 . S
C2111 H2125 0.961 . S
C2111 H2126 0.961 . S
C2111 H2127 0.961 . S
C2112 C2113 1.370 . S
C2112 C2114 1.363 . S
C2112 H2128 0.931 . S
C2113 C2112 1.370 . S
C2113 C2117 1.408 . S
C2114 C2112 1.363 . S
C2114 C2115 1.370 . S
C2114 C2118 1.524 . S
C2115 C2107 1.503 . S
C2115 C2114 1.370 . S
C2115 C2116 1.403 . S
C2116 C2115 1.403 . S
C2116 C2117 1.404 . S
C2116 C2119 1.539 . S
C2117 C2113 1.408 . S
C2117 C2116 1.404 . S
C2117 H2129 0.930 . S
C2118 C2114 1.524 . S
C2118 H2130 0.956 . S
C2118 H2131 0.961 . S
C2118 H2132 0.961 . S
C2119 C2116 1.539 . S
C2119 H2133 0.958 . S
C2119 H2134 0.961 . S
C2119 H2135 0.960 . S
H2120 C2104 0.931 . S
H2121 C2109 0.929 . S
H2122 C2110 0.960 . S
H2123 C2110 0.962 . S
H2124 C2110 0.960 . S
H2125 C2111 0.961 . S
H2126 C2111 0.961 . S
H2127 C2111 0.961 . S
H2128 C2112 0.931 . S
H2129 C2117 0.930 . S
H2130 C2118 0.956 . S
H2131 C2118 0.961 . S
H2132 C2118 0.961 . S
H2133 C2119 0.958 . S
H2134 C2119 0.961 . S
H2135 C2119 0.960 . S
C2136 C2137 1.391 . S
C2136 C2138 1.394 . S
C2136 H2152 0.931 . S
C2137 C2136 1.391 . S
C2137 C2141 1.376 . S
C2138 C2136 1.394 . S
C2138 C2139 1.369 . S
C2138 C2142 1.531 . S
C2139 C2138 1.369 . S
C2139 C2140 1.410 . S
C2139 C2147 1.503 . S
C2140 C2139 1.410 . S
C2140 C2141 1.392 . S
C2140 C2143 1.511 . S
C2141 C2137 1.376 . S
C2141 C2140 1.392 . S
C2141 H2153 0.929 . S
C2142 C2138 1.531 . S
C2142 H2154 0.960 . S
C2142 H2155 0.962 . S
C2142 H2156 0.960 . S
C2143 C2140 1.511 . S
C2143 H2157 0.961 . S
C2143 H2158 0.961 . S
C2143 H2159 0.961 . S
C2144 C2145 1.370 . S
C2144 C2146 1.363 . S
C2144 H2160 0.931 . S
C2145 C2144 1.370 . S
C2145 C2149 1.408 . S
C2146 C2144 1.363 . S
C2146 C2147 1.370 . S
C2146 C2150 1.524 . S
C2147 C2139 1.503 . S
C2147 C2146 1.370 . S
C2147 C2148 1.403 . S
C2148 C2147 1.403 . S
C2148 C2149 1.404 . S
C2148 C2151 1.539 . S
C2149 C2145 1.408 . S
C2149 C2148 1.404 . S
C2149 H2161 0.930 . S
C2150 C2146 1.524 . S
C2150 H2162 0.956 . S
C2150 H2163 0.961 . S
C2150 H2164 0.961 . S
C2151 C2148 1.539 . S
C2151 H2165 0.958 . S
C2151 H2166 0.961 . S
C2151 H2167 0.960 . S
H2152 C2136 0.931 . S
H2153 C2141 0.929 . S
H2154 C2142 0.960 . S
H2155 C2142 0.962 . S
H2156 C2142 0.960 . S
H2157 C2143 0.961 . S
H2158 C2143 0.961 . S
H2159 C2143 0.961 . S
H2160 C2144 0.931 . S
H2161 C2149 0.930 . S
H2162 C2150 0.956 . S
H2163 C2150 0.961 . S
H2164 C2150 0.961 . S
H2165 C2151 0.958 . S
H2166 C2151 0.961 . S
H2167 C2151 0.960 . S
C2168 C2169 1.391 . S
C2168 C2170 1.394 . S
C2168 H2184 0.931 . S
C2169 C2168 1.391 . S
C2169 C2173 1.376 . S
C2170 C2168 1.394 . S
C2170 C2171 1.369 . S
C2170 C2174 1.531 . S
C2171 C2170 1.369 . S
C2171 C2172 1.410 . S
C2171 C2179 1.503 . S
C2172 C2171 1.410 . S
C2172 C2173 1.392 . S
C2172 C2175 1.511 . S
C2173 C2169 1.376 . S
C2173 C2172 1.392 . S
C2173 H2185 0.929 . S
C2174 C2170 1.531 . S
C2174 H2186 0.960 . S
C2174 H2187 0.962 . S
C2174 H2188 0.960 . S
C2175 C2172 1.511 . S
C2175 H2189 0.961 . S
C2175 H2190 0.961 . S
C2175 H2191 0.961 . S
C2176 C2177 1.370 . S
C2176 C2178 1.363 . S
C2176 H2192 0.931 . S
C2177 C2176 1.370 . S
C2177 C2181 1.408 . S
C2178 C2176 1.363 . S
C2178 C2179 1.370 . S
C2178 C2182 1.524 . S
C2179 C2171 1.503 . S
C2179 C2178 1.370 . S
C2179 C2180 1.403 . S
C2180 C2179 1.403 . S
C2180 C2181 1.404 . S
C2180 C2183 1.539 . S
C2181 C2177 1.408 . S
C2181 C2180 1.404 . S
C2181 H2193 0.930 . S
C2182 C2178 1.524 . S
C2182 H2194 0.956 . S
C2182 H2195 0.961 . S
C2182 H2196 0.961 . S
C2183 C2180 1.539 . S
C2183 H2197 0.958 . S
C2183 H2198 0.961 . S
C2183 H2199 0.960 . S
H2184 C2168 0.931 . S
H2185 C2173 0.929 . S
H2186 C2174 0.960 . S
H2187 C2174 0.962 . S
H2188 C2174 0.960 . S
H2189 C2175 0.961 . S
H2190 C2175 0.961 . S
H2191 C2175 0.961 . S
H2192 C2176 0.931 . S
H2193 C2181 0.930 . S
H2194 C2182 0.956 . S
H2195 C2182 0.961 . S
H2196 C2182 0.961 . S
H2197 C2183 0.958 . S
H2198 C2183 0.961 . S
H2199 C2183 0.960 . S
C2200 C2201 1.391 . S
C2200 C2202 1.394 . S
C2200 H2216 0.931 . S
C2201 C2200 1.391 . S
C2201 C2205 1.376 . S
C2202 C2200 1.394 . S
C2202 C2203 1.369 . S
C2202 C2206 1.531 . S
C2203 C2202 1.369 . S
C2203 C2204 1.410 . S
C2203 C2211 1.503 . S
C2204 C2203 1.410 . S
C2204 C2205 1.392 . S
C2204 C2207 1.511 . S
C2205 C2201 1.376 . S
C2205 C2204 1.392 . S
C2205 H2217 0.929 . S
C2206 C2202 1.531 . S
C2206 H2218 0.960 . S
C2206 H2219 0.962 . S
C2206 H2220 0.960 . S
C2207 C2204 1.511 . S
C2207 H2221 0.961 . S
C2207 H2222 0.961 . S
C2207 H2223 0.961 . S
C2208 C2209 1.370 . S
C2208 C2210 1.363 . S
C2208 H2224 0.931 . S
C2209 C2208 1.370 . S
C2209 C2213 1.408 . S
C2210 C2208 1.363 . S
C2210 C2211 1.370 . S
C2210 C2214 1.524 . S
C2211 C2203 1.503 . S
C2211 C2210 1.370 . S
C2211 C2212 1.403 . S
C2212 C2211 1.403 . S
C2212 C2213 1.404 . S
C2212 C2215 1.539 . S
C2213 C2209 1.408 . S
C2213 C2212 1.404 . S
C2213 H2225 0.930 . S
C2214 C2210 1.524 . S
C2214 H2226 0.956 . S
C2214 H2227 0.961 . S
C2214 H2228 0.961 . S
C2215 C2212 1.539 . S
C2215 H2229 0.958 . S
C2215 H2230 0.961 . S
C2215 H2231 0.960 . S
H2216 C2200 0.931 . S
H2217 C2205 0.929 . S
H2218 C2206 0.960 . S
H2219 C2206 0.962 . S
H2220 C2206 0.960 . S
H2221 C2207 0.961 . S
H2222 C2207 0.961 . S
H2223 C2207 0.961 . S
H2224 C2208 0.931 . S
H2225 C2213 0.930 . S
H2226 C2214 0.956 . S
H2227 C2214 0.961 . S
H2228 C2214 0.961 . S
H2229 C2215 0.958 . S
H2230 C2215 0.961 . S
H2231 C2215 0.960 . S
C2232 C2233 1.391 . S
C2232 C2234 1.394 . S
C2232 H2248 0.931 . S
C2233 C2232 1.391 . S
C2233 C2237 1.376 . S
C2234 C2232 1.394 . S
C2234 C2235 1.369 . S
C2234 C2238 1.531 . S
C2235 C2234 1.369 . S
C2235 C2236 1.410 . S
C2235 C2243 1.503 . S
C2236 C2235 1.410 . S
C2236 C2237 1.392 . S
C2236 C2239 1.511 . S
C2237 C2233 1.376 . S
C2237 C2236 1.392 . S
C2237 H2249 0.929 . S
C2238 C2234 1.531 . S
C2238 H2250 0.960 . S
C2238 H2251 0.962 . S
C2238 H2252 0.960 . S
C2239 C2236 1.511 . S
C2239 H2253 0.961 . S
C2239 H2254 0.961 . S
C2239 H2255 0.961 . S
C2240 C2241 1.370 . S
C2240 C2242 1.363 . S
C2240 H2256 0.931 . S
C2241 C2240 1.370 . S
C2241 C2245 1.408 . S
C2242 C2240 1.363 . S
C2242 C2243 1.370 . S
C2242 C2246 1.524 . S
C2243 C2235 1.503 . S
C2243 C2242 1.370 . S
C2243 C2244 1.403 . S
C2244 C2243 1.403 . S
C2244 C2245 1.404 . S
C2244 C2247 1.539 . S
C2245 C2241 1.408 . S
C2245 C2244 1.404 . S
C2245 H2257 0.930 . S
C2246 C2242 1.524 . S
C2246 H2258 0.956 . S
C2246 H2259 0.961 . S
C2246 H2260 0.961 . S
C2247 C2244 1.539 . S
C2247 H2261 0.958 . S
C2247 H2262 0.961 . S
C2247 H2263 0.960 . S
H2248 C2232 0.931 . S
H2249 C2237 0.929 . S
H2250 C2238 0.960 . S
H2251 C2238 0.962 . S
H2252 C2238 0.960 . S
H2253 C2239 0.961 . S
H2254 C2239 0.961 . S
H2255 C2239 0.961 . S
H2256 C2240 0.931 . S
H2257 C2245 0.930 . S
H2258 C2246 0.956 . S
H2259 C2246 0.961 . S
H2260 C2246 0.961 . S
H2261 C2247 0.958 . S
H2262 C2247 0.961 . S
H2263 C2247 0.960 . S
C2264 C2265 1.391 . S
C2264 C2266 1.394 . S
C2264 H2280 0.931 . S
C2265 C2264 1.391 . S
C2265 C2269 1.376 . S
C2266 C2264 1.394 . S
C2266 C2267 1.369 . S
C2266 C2270 1.531 . S
C2267 C2266 1.369 . S
C2267 C2268 1.410 . S
C2267 C2275 1.503 . S
C2268 C2267 1.410 . S
C2268 C2269 1.392 . S
C2268 C2271 1.511 . S
C2269 C2265 1.376 . S
C2269 C2268 1.392 . S
C2269 H2281 0.929 . S
C2270 C2266 1.531 . S
C2270 H2282 0.960 . S
C2270 H2283 0.962 . S
C2270 H2284 0.960 . S
C2271 C2268 1.511 . S
C2271 H2285 0.961 . S
C2271 H2286 0.961 . S
C2271 H2287 0.961 . S
C2272 C2273 1.370 . S
C2272 C2274 1.363 . S
C2272 H2288 0.931 . S
C2273 C2272 1.370 . S
C2273 C2277 1.408 . S
C2274 C2272 1.363 . S
C2274 C2275 1.370 . S
C2274 C2278 1.524 . S
C2275 C2267 1.503 . S
C2275 C2274 1.370 . S
C2275 C2276 1.403 . S
C2276 C2275 1.403 . S
C2276 C2277 1.404 . S
C2276 C2279 1.539 . S
C2277 C2273 1.408 . S
C2277 C2276 1.404 . S
C2277 H2289 0.930 . S
C2278 C2274 1.524 . S
C2278 H2290 0.956 . S
C2278 H2291 0.961 . S
C2278 H2292 0.961 . S
C2279 C2276 1.539 . S
C2279 H2293 0.958 . S
C2279 H2294 0.961 . S
C2279 H2295 0.960 . S
H2280 C2264 0.931 . S
H2281 C2269 0.929 . S
H2282 C2270 0.960 . S
H2283 C2270 0.962 . S
H2284 C2270 0.960 . S
H2285 C2271 0.961 . S
H2286 C2271 0.961 . S
H2287 C2271 0.961 . S
H2288 C2272 0.931 . S
H2289 C2277 0.930 . S
H2290 C2278 0.956 . S
H2291 C2278 0.961 . S
H2292 C2278 0.961 . S
H2293 C2279 0.958 . S
H2294 C2279 0.961 . S
H2295 C2279 0.960 . S
C2296 C2297 1.391 . S
C2296 C2298 1.394 . S
C2296 H2312 0.931 . S
C2297 C2296 1.391 . S
C2297 C2301 1.376 . S
C2298 C2296 1.394 . S
C2298 C2299 1.369 . S
C2298 C2302 1.531 . S
C2299 C2298 1.369 . S
C2299 C2300 1.410 . S
C2299 C2307 1.503 . S
C2300 C2299 1.410 . S
C2300 C2301 1.392 . S
C2300 C2303 1.511 . S
C2301 C2297 1.376 . S
C2301 C2300 1.392 . S
C2301 H2313 0.929 . S
C2302 C2298 1.531 . S
C2302 H2314 0.960 . S
C2302 H2315 0.962 . S
C2302 H2316 0.960 . S
C2303 C2300 1.511 . S
C2303 H2317 0.961 . S
C2303 H2318 0.961 . S
C2303 H2319 0.961 . S
C2304 C2305 1.370 . S
C2304 C2306 1.363 . S
C2304 H2320 0.931 . S
C2305 C2304 1.370 . S
C2305 C2309 1.408 . S
C2306 C2304 1.363 . S
C2306 C2307 1.370 . S
C2306 C2310 1.524 . S
C2307 C2299 1.503 . S
C2307 C2306 1.370 . S
C2307 C2308 1.403 . S
C2308 C2307 1.403 . S
C2308 C2309 1.404 . S
C2308 C2311 1.539 . S
C2309 C2305 1.408 . S
C2309 C2308 1.404 . S
C2309 H2321 0.930 . S
C2310 C2306 1.524 . S
C2310 H2322 0.956 . S
C2310 H2323 0.961 . S
C2310 H2324 0.961 . S
C2311 C2308 1.539 . S
C2311 H2325 0.958 . S
C2311 H2326 0.961 . S
C2311 H2327 0.960 . S
H2312 C2296 0.931 . S
H2313 C2301 0.929 . S
H2314 C2302 0.960 . S
H2315 C2302 0.962 . S
H2316 C2302 0.960 . S
H2317 C2303 0.961 . S
H2318 C2303 0.961 . S
H2319 C2303 0.961 . S
H2320 C2304 0.931 . S
H2321 C2309 0.930 . S
H2322 C2310 0.956 . S
H2323 C2310 0.961 . S
H2324 C2310 0.961 . S
H2325 C2311 0.958 . S
H2326 C2311 0.961 . S
H2327 C2311 0.960 . S
C2328 C2329 1.391 . S
C2328 C2330 1.394 . S
C2328 H2344 0.953 . S
C2329 C2328 1.391 . S
C2329 C2333 1.376 . S
C2330 C2328 1.394 . S
C2330 C2331 1.369 . S
C2330 C2334 1.531 . S
C2331 C2330 1.369 . S
C2331 C2332 1.410 . S
C2331 C2339 1.503 . S
C2332 C2331 1.410 . S
C2332 C2333 1.392 . S
C2332 C2335 1.511 . S
C2333 C2329 1.376 . S
C2333 C2332 1.392 . S
C2333 H2345 0.929 . S
C2334 C2330 1.531 . S
C2334 H2346 0.960 . S
C2334 H2347 0.962 . S
C2334 H2348 0.948 1_556 S
C2335 C2332 1.511 . S
C2335 H2349 0.961 . S
C2335 H2350 0.961 . S
C2335 H2351 0.961 . S
C2336 C2337 1.370 . S
C2336 C2338 1.363 . S
C2336 H2352 0.931 . S
C2337 C2336 1.370 . S
C2337 C2341 1.408 . S
C2338 C2336 1.363 . S
C2338 C2339 1.370 . S
C2338 C2342 1.524 . S
C2339 C2331 1.503 . S
C2339 C2338 1.370 . S
C2339 C2340 1.403 . S
C2340 C2339 1.403 . S
C2340 C2341 1.404 . S
C2340 C2343 1.539 . S
C2341 C2337 1.408 . S
C2341 C2340 1.404 . S
C2341 H2353 0.930 . S
C2342 C2338 1.524 . S
C2342 H2354 0.956 . S
C2342 H2355 0.961 . S
C2342 H2356 0.961 . S
C2343 C2340 1.539 . S
C2343 H2357 0.958 . S
C2343 H2358 0.961 . S
C2343 H2359 0.960 . S
H2344 C2328 0.953 . S
H2345 C2333 0.929 . S
H2346 C2334 0.960 . S
H2347 C2334 0.962 . S
H2348 C2334 0.948 1_554 S
H2349 C2335 0.961 . S
H2350 C2335 0.961 . S
H2351 C2335 0.961 . S
H2352 C2336 0.931 . S
H2353 C2341 0.930 . S
H2354 C2342 0.956 . S
H2355 C2342 0.961 . S
H2356 C2342 0.961 . S
H2357 C2343 0.958 . S
H2358 C2343 0.961 . S
H2359 C2343 0.960 . S
C2360 C2361 1.391 . S
C2360 C2362 1.394 . S
C2360 H2376 0.931 . S
C2361 C2360 1.391 . S
C2361 C2365 1.376 . S
C2362 C2360 1.394 . S
C2362 C2363 1.369 . S
C2362 C2366 1.531 . S
C2363 C2362 1.369 . S
C2363 C2364 1.410 . S
C2363 C2371 1.503 . S
C2364 C2363 1.410 . S
C2364 C2365 1.392 . S
C2364 C2367 1.511 . S
C2365 C2361 1.376 . S
C2365 C2364 1.392 . S
C2365 H2377 0.929 . S
C2366 C2362 1.531 . S
C2366 H2378 0.960 . S
C2366 H2379 0.962 . S
C2366 H2380 0.960 . S
C2367 C2364 1.511 . S
C2367 H2381 0.961 . S
C2367 H2382 0.961 . S
C2367 H2383 0.961 . S
C2368 C2369 1.370 . S
C2368 C2370 1.363 . S
C2368 H2384 0.931 . S
C2369 C2368 1.370 . S
C2369 C2373 1.408 . S
C2370 C2368 1.363 . S
C2370 C2371 1.370 . S
C2370 C2374 1.524 . S
C2371 C2363 1.503 . S
C2371 C2370 1.370 . S
C2371 C2372 1.403 . S
C2372 C2371 1.403 . S
C2372 C2373 1.404 . S
C2372 C2375 1.539 . S
C2373 C2369 1.408 . S
C2373 C2372 1.404 . S
C2373 H2385 0.930 . S
C2374 C2370 1.524 . S
C2374 H2386 0.956 . S
C2374 H2387 0.961 . S
C2374 H2388 0.961 . S
C2375 C2372 1.539 . S
C2375 H2389 0.958 . S
C2375 H2390 0.961 . S
C2375 H2391 0.960 . S
H2376 C2360 0.931 . S
H2377 C2365 0.929 . S
H2378 C2366 0.960 . S
H2379 C2366 0.962 . S
H2380 C2366 0.960 . S
H2381 C2367 0.961 . S
H2382 C2367 0.961 . S
H2383 C2367 0.961 . S
H2384 C2368 0.931 . S
H2385 C2373 0.930 . S
H2386 C2374 0.956 . S
H2387 C2374 0.961 . S
H2388 C2374 0.961 . S
H2389 C2375 0.958 . S
H2390 C2375 0.961 . S
H2391 C2375 0.960 . S
C2392 C2393 1.391 . S
C2392 C2394 1.394 . S
C2392 H2408 0.931 1_556 S
C2393 C2392 1.391 . S
C2393 C2397 1.376 . S
C2394 C2392 1.394 . S
C2394 C2395 1.369 . S
C2394 C2398 1.531 . S
C2395 C2394 1.369 . S
C2395 C2396 1.410 . S
C2395 C2403 1.503 . S
C2396 C2395 1.410 . S
C2396 C2397 1.392 . S
C2396 C2399 1.511 . S
C2397 C2393 1.376 . S
C2397 C2396 1.392 . S
C2397 H2409 0.929 . S
C2398 C2394 1.531 . S
C2398 H2410 0.960 . S
C2398 H2411 0.962 . S
C2398 H2412 0.960 1_556 S
C2399 C2396 1.511 . S
C2399 H2413 0.961 . S
C2399 H2414 0.961 . S
C2399 H2415 0.961 . S
C2400 C2401 1.370 . S
C2400 C2402 1.363 . S
C2400 H2416 0.931 . S
C2401 C2400 1.370 . S
C2401 C2405 1.408 . S
C2402 C2400 1.363 . S
C2402 C2403 1.370 . S
C2402 C2406 1.524 . S
C2403 C2395 1.503 . S
C2403 C2402 1.370 . S
C2403 C2404 1.403 . S
C2404 C2403 1.403 . S
C2404 C2405 1.404 . S
C2404 C2407 1.539 . S
C2405 C2401 1.408 . S
C2405 C2404 1.404 . S
C2405 H2417 0.930 . S
C2406 C2402 1.524 . S
C2406 H2418 0.956 . S
C2406 H2419 0.961 . S
C2406 H2420 0.961 . S
C2407 C2404 1.539 . S
C2407 H2421 0.958 . S
C2407 H2422 0.961 . S
C2407 H2423 0.960 . S
H2408 C2392 0.931 1_554 S
H2409 C2397 0.929 . S
H2410 C2398 0.960 . S
H2411 C2398 0.962 . S
H2412 C2398 0.960 1_554 S
H2413 C2399 0.961 . S
H2414 C2399 0.961 . S
H2415 C2399 0.961 . S
H2416 C2400 0.931 . S
H2417 C2405 0.930 . S
H2418 C2406 0.956 . S
H2419 C2406 0.961 . S
H2420 C2406 0.961 . S
H2421 C2407 0.958 . S
H2422 C2407 0.961 . S
H2423 C2407 0.960 . S
C2424 C2425 1.391 . S
C2424 C2426 1.394 . S
C2424 H2440 0.931 . S
C2425 C2424 1.391 . S
C2425 C2429 1.376 . S
C2426 C2424 1.394 . S
C2426 C2427 1.369 . S
C2426 C2430 1.531 . S
C2427 C2426 1.369 . S
C2427 C2428 1.410 . S
C2427 C2435 1.503 . S
C2428 C2427 1.410 . S
C2428 C2429 1.392 . S
C2428 C2431 1.511 . S
C2429 C2425 1.376 . S
C2429 C2428 1.392 . S
C2429 H2441 0.929 . S
C2430 C2426 1.531 . S
C2430 H2442 0.960 . S
C2430 H2443 0.962 . S
C2430 H2444 0.960 . S
C2431 C2428 1.511 . S
C2431 H2445 0.961 . S
C2431 H2446 0.961 . S
C2431 H2447 0.961 . S
C2432 C2433 1.370 . S
C2432 C2434 1.363 . S
C2432 H2448 0.931 . S
C2433 C2432 1.370 . S
C2433 C2437 1.408 . S
C2434 C2432 1.363 . S
C2434 C2435 1.370 . S
C2434 C2438 1.524 . S
C2435 C2427 1.503 . S
C2435 C2434 1.370 . S
C2435 C2436 1.403 . S
C2436 C2435 1.403 . S
C2436 C2437 1.404 . S
C2436 C2439 1.539 . S
C2437 C2433 1.408 . S
C2437 C2436 1.404 . S
C2437 H2449 0.930 . S
C2438 C2434 1.524 . S
C2438 H2450 0.956 . S
C2438 H2451 0.961 . S
C2438 H2452 0.961 . S
C2439 C2436 1.539 . S
C2439 H2453 0.958 . S
C2439 H2454 0.961 . S
C2439 H2455 0.960 . S
H2440 C2424 0.931 . S
H2441 C2429 0.929 . S
H2442 C2430 0.960 . S
H2443 C2430 0.962 . S
H2444 C2430 0.960 . S
H2445 C2431 0.961 . S
H2446 C2431 0.961 . S
H2447 C2431 0.961 . S
H2448 C2432 0.931 . S
H2449 C2437 0.930 . S
H2450 C2438 0.956 . S
H2451 C2438 0.961 . S
H2452 C2438 0.961 . S
H2453 C2439 0.958 . S
H2454 C2439 0.961 . S
H2455 C2439 0.960 . S
C2456 C2457 1.391 . S
C2456 C2458 1.394 . S
C2456 H2472 0.931 . S
C2457 C2456 1.391 . S
C2457 C2461 1.376 . S
C2458 C2456 1.394 . S
C2458 C2459 1.369 . S
C2458 C2462 1.531 . S
C2459 C2458 1.369 . S
C2459 C2460 1.410 . S
C2459 C2467 1.503 . S
C2460 C2459 1.410 . S
C2460 C2461 1.392 . S
C2460 C2463 1.511 . S
C2461 C2457 1.376 . S
C2461 C2460 1.392 . S
C2461 H2473 0.929 . S
C2462 C2458 1.531 . S
C2462 H2474 0.960 . S
C2462 H2475 0.962 . S
C2462 H2476 0.960 . S
C2463 C2460 1.511 . S
C2463 H2477 0.961 . S
C2463 H2478 0.961 . S
C2463 H2479 0.961 . S
C2464 C2465 1.370 . S
C2464 C2466 1.363 . S
C2464 H2480 0.931 . S
C2465 C2464 1.370 . S
C2465 C2469 1.408 . S
C2466 C2464 1.363 . S
C2466 C2467 1.370 . S
C2466 C2470 1.524 . S
C2467 C2459 1.503 . S
C2467 C2466 1.370 . S
C2467 C2468 1.403 . S
C2468 C2467 1.403 . S
C2468 C2469 1.404 . S
C2468 C2471 1.539 . S
C2469 C2465 1.408 . S
C2469 C2468 1.404 . S
C2469 H2481 0.930 . S
C2470 C2466 1.524 . S
C2470 H2482 0.956 . S
C2470 H2483 0.961 . S
C2470 H2484 0.961 . S
C2471 C2468 1.539 . S
C2471 H2485 0.958 . S
C2471 H2486 0.961 . S
C2471 H2487 0.960 . S
H2472 C2456 0.931 . S
H2473 C2461 0.929 . S
H2474 C2462 0.960 . S
H2475 C2462 0.962 . S
H2476 C2462 0.960 . S
H2477 C2463 0.961 . S
H2478 C2463 0.961 . S
H2479 C2463 0.961 . S
H2480 C2464 0.931 . S
H2481 C2469 0.930 . S
H2482 C2470 0.956 . S
H2483 C2470 0.961 . S
H2484 C2470 0.961 . S
H2485 C2471 0.958 . S
H2486 C2471 0.961 . S
H2487 C2471 0.960 . S
C2488 C2489 1.391 . S
C2488 C2490 1.394 . S
C2488 H2504 0.931 . S
C2489 C2488 1.391 . S
C2489 C2493 1.376 . S
C2490 C2488 1.394 . S
C2490 C2491 1.369 . S
C2490 C2494 1.531 . S
C2491 C2490 1.369 . S
C2491 C2492 1.410 . S
C2491 C2499 1.503 . S
C2492 C2491 1.410 . S
C2492 C2493 1.392 . S
C2492 C2495 1.511 . S
C2493 C2489 1.376 . S
C2493 C2492 1.392 . S
C2493 H2505 0.929 . S
C2494 C2490 1.531 . S
C2494 H2506 0.960 . S
C2494 H2507 0.962 . S
C2494 H2508 0.960 . S
C2495 C2492 1.511 . S
C2495 H2509 0.961 . S
C2495 H2510 0.961 . S
C2495 H2511 0.961 . S
C2496 C2497 1.370 . S
C2496 C2498 1.363 . S
C2496 H2512 0.931 . S
C2497 C2496 1.370 . S
C2497 C2501 1.408 . S
C2498 C2496 1.363 . S
C2498 C2499 1.370 . S
C2498 C2502 1.524 . S
C2499 C2491 1.503 . S
C2499 C2498 1.370 . S
C2499 C2500 1.403 . S
C2500 C2499 1.403 . S
C2500 C2501 1.404 . S
C2500 C2503 1.539 . S
C2501 C2497 1.408 . S
C2501 C2500 1.404 . S
C2501 H2513 0.930 . S
C2502 C2498 1.524 . S
C2502 H2514 0.956 . S
C2502 H2515 0.961 . S
C2502 H2516 0.961 . S
C2503 C2500 1.539 . S
C2503 H2517 0.958 . S
C2503 H2518 0.961 . S
C2503 H2519 0.960 . S
H2504 C2488 0.931 . S
H2505 C2493 0.929 . S
H2506 C2494 0.960 . S
H2507 C2494 0.962 . S
H2508 C2494 0.960 . S
H2509 C2495 0.961 . S
H2510 C2495 0.961 . S
H2511 C2495 0.961 . S
H2512 C2496 0.931 . S
H2513 C2501 0.930 . S
H2514 C2502 0.956 . S
H2515 C2502 0.961 . S
H2516 C2502 0.961 . S
H2517 C2503 0.958 . S
H2518 C2503 0.961 . S
H2519 C2503 0.960 . S
C2520 C2521 1.391 . S
C2520 C2522 1.394 . S
C2520 H2536 0.931 . S
C2521 C2520 1.391 . S
C2521 C2525 1.376 . S
C2522 C2520 1.394 . S
C2522 C2523 1.369 . S
C2522 C2526 1.531 . S
C2523 C2522 1.369 . S
C2523 C2524 1.410 . S
C2523 C2531 1.503 . S
C2524 C2523 1.410 . S
C2524 C2525 1.392 . S
C2524 C2527 1.511 . S
C2525 C2521 1.376 . S
C2525 C2524 1.392 . S
C2525 H2537 0.929 . S
C2526 C2522 1.531 . S
C2526 H2538 0.960 . S
C2526 H2539 0.962 . S
C2526 H2540 0.960 . S
C2527 C2524 1.511 . S
C2527 H2541 0.961 . S
C2527 H2542 0.961 . S
C2527 H2543 0.961 . S
C2528 C2529 1.370 . S
C2528 C2530 1.363 . S
C2528 H2544 0.931 . S
C2529 C2528 1.370 . S
C2529 C2533 1.408 . S
C2530 C2528 1.363 . S
C2530 C2531 1.370 . S
C2530 C2534 1.524 . S
C2531 C2523 1.503 . S
C2531 C2530 1.370 . S
C2531 C2532 1.403 . S
C2532 C2531 1.403 . S
C2532 C2533 1.404 . S
C2532 C2535 1.539 . S
C2533 C2529 1.408 . S
C2533 C2532 1.404 . S
C2533 H2545 0.930 . S
C2534 C2530 1.524 . S
C2534 H2546 0.956 . S
C2534 H2547 0.961 . S
C2534 H2548 0.961 . S
C2535 C2532 1.539 . S
C2535 H2549 0.958 . S
C2535 H2550 0.961 . S
C2535 H2551 0.960 . S
H2536 C2520 0.931 . S
H2537 C2525 0.929 . S
H2538 C2526 0.960 . S
H2539 C2526 0.962 . S
H2540 C2526 0.960 . S
H2541 C2527 0.961 . S
H2542 C2527 0.961 . S
H2543 C2527 0.961 . S
H2544 C2528 0.931 . S
H2545 C2533 0.930 . S
H2546 C2534 0.956 . S
H2547 C2534 0.961 . S
H2548 C2534 0.961 . S
H2549 C2535 0.958 . S
H2550 C2535 0.961 . S
H2551 C2535 0.960 . S
C2552 C2553 1.391 . S
C2552 C2554 1.394 . S
C2552 H2568 0.931 . S
C2553 C2552 1.391 . S
C2553 C2557 1.376 . S
C2554 C2552 1.394 . S
C2554 C2555 1.369 . S
C2554 C2558 1.531 . S
C2555 C2554 1.369 . S
C2555 C2556 1.410 . S
C2555 C2563 1.503 . S
C2556 C2555 1.410 . S
C2556 C2557 1.392 . S
C2556 C2559 1.511 . S
C2557 C2553 1.376 . S
C2557 C2556 1.392 . S
C2557 H2569 0.929 . S
C2558 C2554 1.531 . S
C2558 H2570 0.960 . S
C2558 H2571 0.962 . S
C2558 H2572 0.960 . S
C2559 C2556 1.511 . S
C2559 H2573 0.961 . S
C2559 H2574 0.961 . S
C2559 H2575 0.961 . S
C2560 C2561 1.370 . S
C2560 C2562 1.363 . S
C2560 H2576 0.931 . S
C2561 C2560 1.370 . S
C2561 C2565 1.408 . S
C2562 C2560 1.363 . S
C2562 C2563 1.370 . S
C2562 C2566 1.524 . S
C2563 C2555 1.503 . S
C2563 C2562 1.370 . S
C2563 C2564 1.403 . S
C2564 C2563 1.403 . S
C2564 C2565 1.404 . S
C2564 C2567 1.539 . S
C2565 C2561 1.408 . S
C2565 C2564 1.404 . S
C2565 H2577 0.930 . S
C2566 C2562 1.524 . S
C2566 H2578 0.956 . S
C2566 H2579 0.961 . S
C2566 H2580 0.961 . S
C2567 C2564 1.539 . S
C2567 H2581 0.958 . S
C2567 H2582 0.961 . S
C2567 H2583 0.960 . S
H2568 C2552 0.931 . S
H2569 C2557 0.929 . S
H2570 C2558 0.960 . S
H2571 C2558 0.962 . S
H2572 C2558 0.960 . S
H2573 C2559 0.961 . S
H2574 C2559 0.961 . S
H2575 C2559 0.961 . S
H2576 C2560 0.931 . S
H2577 C2565 0.930 . S
H2578 C2566 0.956 . S
H2579 C2566 0.961 . S
H2580 C2566 0.961 . S
H2581 C2567 0.958 . S
H2582 C2567 0.961 . S
H2583 C2567 0.960 . S
C2584 C2585 1.391 . S
C2584 C2586 1.394 . S
C2584 H2600 0.931 . S
C2585 C2584 1.391 . S
C2585 C2589 1.376 . S
C2586 C2584 1.394 . S
C2586 C2587 1.369 . S
C2586 C2590 1.531 . S
C2587 C2586 1.369 . S
C2587 C2588 1.410 . S
C2587 C2595 1.503 . S
C2588 C2587 1.410 . S
C2588 C2589 1.392 . S
C2588 C2591 1.511 . S
C2589 C2585 1.376 . S
C2589 C2588 1.392 . S
C2589 H2601 0.929 . S
C2590 C2586 1.531 . S
C2590 H2602 0.960 . S
C2590 H2603 0.962 . S
C2590 H2604 0.960 . S
C2591 C2588 1.511 . S
C2591 H2605 0.961 . S
C2591 H2606 0.961 . S
C2591 H2607 0.961 . S
C2592 C2593 1.370 . S
C2592 C2594 1.363 . S
C2592 H2608 0.931 . S
C2593 C2592 1.370 . S
C2593 C2597 1.408 . S
C2594 C2592 1.363 . S
C2594 C2595 1.370 . S
C2594 C2598 1.524 . S
C2595 C2587 1.503 . S
C2595 C2594 1.370 . S
C2595 C2596 1.403 . S
C2596 C2595 1.403 . S
C2596 C2597 1.404 . S
C2596 C2599 1.539 . S
C2597 C2593 1.408 . S
C2597 C2596 1.404 . S
C2597 H2609 0.930 . S
C2598 C2594 1.524 . S
C2598 H2610 0.956 . S
C2598 H2611 0.961 . S
C2598 H2612 0.961 . S
C2599 C2596 1.539 . S
C2599 H2613 0.958 . S
C2599 H2614 0.961 . S
C2599 H2615 0.960 . S
H2600 C2584 0.931 . S
H2601 C2589 0.929 . S
H2602 C2590 0.960 . S
H2603 C2590 0.962 . S
H2604 C2590 0.960 . S
H2605 C2591 0.961 . S
H2606 C2591 0.961 . S
H2607 C2591 0.961 . S
H2608 C2592 0.931 . S
H2609 C2597 0.930 . S
H2610 C2598 0.956 . S
H2611 C2598 0.961 . S
H2612 C2598 0.961 . S
H2613 C2599 0.958 . S
H2614 C2599 0.961 . S
H2615 C2599 0.960 . S
C2616 C2617 1.391 . S
C2616 C2618 1.394 . S
C2616 H2632 0.931 . S
C2617 C2616 1.391 . S
C2617 C2621 1.376 . S
C2618 C2616 1.394 . S
C2618 C2619 1.369 . S
C2618 C2622 1.531 . S
C2619 C2618 1.369 . S
C2619 C2620 1.410 . S
C2619 C2627 1.503 . S
C2620 C2619 1.410 . S
C2620 C2621 1.392 . S
C2620 C2623 1.511 . S
C2621 C2617 1.376 . S
C2621 C2620 1.392 . S
C2621 H2633 0.929 . S
C2622 C2618 1.531 . S
C2622 H2634 0.960 . S
C2622 H2635 0.962 . S
C2622 H2636 0.960 . S
C2623 C2620 1.511 . S
C2623 H2637 0.961 . S
C2623 H2638 0.961 . S
C2623 H2639 0.961 . S
C2624 C2625 1.370 . S
C2624 C2626 1.363 . S
C2624 H2640 0.931 . S
C2625 C2624 1.370 . S
C2625 C2629 1.408 . S
C2626 C2624 1.363 . S
C2626 C2627 1.370 . S
C2626 C2630 1.524 . S
C2627 C2619 1.503 . S
C2627 C2626 1.370 . S
C2627 C2628 1.403 . S
C2628 C2627 1.403 . S
C2628 C2629 1.404 . S
C2628 C2631 1.539 . S
C2629 C2625 1.408 . S
C2629 C2628 1.404 . S
C2629 H2641 0.930 . S
C2630 C2626 1.524 . S
C2630 H2642 0.956 . S
C2630 H2643 0.961 . S
C2630 H2644 0.961 . S
C2631 C2628 1.539 . S
C2631 H2645 0.958 . S
C2631 H2646 0.961 . S
C2631 H2647 0.960 . S
H2632 C2616 0.931 . S
H2633 C2621 0.929 . S
H2634 C2622 0.960 . S
H2635 C2622 0.962 . S
H2636 C2622 0.960 . S
H2637 C2623 0.961 . S
H2638 C2623 0.961 . S
H2639 C2623 0.961 . S
H2640 C2624 0.931 . S
H2641 C2629 0.930 . S
H2642 C2630 0.956 . S
H2643 C2630 0.961 . S
H2644 C2630 0.961 . S
H2645 C2631 0.958 . S
H2646 C2631 0.961 . S
H2647 C2631 0.960 . S
C2648 C2649 1.391 . S
C2648 C2650 1.394 . S
C2648 H2664 0.931 . S
C2649 C2648 1.391 . S
C2649 C2653 1.376 . S
C2650 C2648 1.394 . S
C2650 C2651 1.369 . S
C2650 C2654 1.531 . S
C2651 C2650 1.369 . S
C2651 C2652 1.410 . S
C2651 C2659 1.503 . S
C2652 C2651 1.410 . S
C2652 C2653 1.392 . S
C2652 C2655 1.511 . S
C2653 C2649 1.376 . S
C2653 C2652 1.392 . S
C2653 H2665 0.929 . S
C2654 C2650 1.531 . S
C2654 H2666 0.960 . S
C2654 H2667 0.962 . S
C2654 H2668 0.960 . S
C2655 C2652 1.511 . S
C2655 H2669 0.961 . S
C2655 H2670 0.961 . S
C2655 H2671 0.961 . S
C2656 C2657 1.370 . S
C2656 C2658 1.363 . S
C2656 H2672 0.931 . S
C2657 C2656 1.370 . S
C2657 C2661 1.408 . S
C2658 C2656 1.363 . S
C2658 C2659 1.370 . S
C2658 C2662 1.524 . S
C2659 C2651 1.503 . S
C2659 C2658 1.370 . S
C2659 C2660 1.403 . S
C2660 C2659 1.403 . S
C2660 C2661 1.404 . S
C2660 C2663 1.539 . S
C2661 C2657 1.408 . S
C2661 C2660 1.404 . S
C2661 H2673 0.930 . S
C2662 C2658 1.524 . S
C2662 H2674 0.956 . S
C2662 H2675 0.961 . S
C2662 H2676 0.961 . S
C2663 C2660 1.539 . S
C2663 H2677 0.958 . S
C2663 H2678 0.961 . S
C2663 H2679 0.960 . S
H2664 C2648 0.931 . S
H2665 C2653 0.929 . S
H2666 C2654 0.960 . S
H2667 C2654 0.962 . S
H2668 C2654 0.960 . S
H2669 C2655 0.961 . S
H2670 C2655 0.961 . S
H2671 C2655 0.961 . S
H2672 C2656 0.931 . S
H2673 C2661 0.930 . S
H2674 C2662 0.956 . S
H2675 C2662 0.961 . S
H2676 C2662 0.961 . S
H2677 C2663 0.958 . S
H2678 C2663 0.961 . S
H2679 C2663 0.960 . S
C2680 C2681 1.391 . S
C2680 C2682 1.394 . S
C2680 H2696 0.931 . S
C2681 C2680 1.391 . S
C2681 C2685 1.376 . S
C2682 C2680 1.394 . S
C2682 C2683 1.369 . S
C2682 C2686 1.531 . S
C2683 C2682 1.369 . S
C2683 C2684 1.410 . S
C2683 C2691 1.503 . S
C2684 C2683 1.410 . S
C2684 C2685 1.392 . S
C2684 C2687 1.511 . S
C2685 C2681 1.376 . S
C2685 C2684 1.392 . S
C2685 H2697 0.929 . S
C2686 C2682 1.531 . S
C2686 H2698 0.960 . S
C2686 H2699 0.962 . S
C2686 H2700 0.960 . S
C2687 C2684 1.511 . S
C2687 H2701 0.961 . S
C2687 H2702 0.961 . S
C2687 H2703 0.961 . S
C2688 C2689 1.370 . S
C2688 C2690 1.363 . S
C2688 H2704 0.931 . S
C2689 C2688 1.370 . S
C2689 C2693 1.408 . S
C2690 C2688 1.363 . S
C2690 C2691 1.370 . S
C2690 C2694 1.524 . S
C2691 C2683 1.503 . S
C2691 C2690 1.370 . S
C2691 C2692 1.403 . S
C2692 C2691 1.403 . S
C2692 C2693 1.404 . S
C2692 C2695 1.539 . S
C2693 C2689 1.408 . S
C2693 C2692 1.404 . S
C2693 H2705 0.930 . S
C2694 C2690 1.524 . S
C2694 H2706 0.956 . S
C2694 H2707 0.961 . S
C2694 H2708 0.961 . S
C2695 C2692 1.539 . S
C2695 H2709 0.958 . S
C2695 H2710 0.961 . S
C2695 H2711 0.960 . S
H2696 C2680 0.931 . S
H2697 C2685 0.929 . S
H2698 C2686 0.960 . S
H2699 C2686 0.962 . S
H2700 C2686 0.960 . S
H2701 C2687 0.961 . S
H2702 C2687 0.961 . S
H2703 C2687 0.961 . S
H2704 C2688 0.931 . S
H2705 C2693 0.930 . S
H2706 C2694 0.956 . S
H2707 C2694 0.961 . S
H2708 C2694 0.961 . S
H2709 C2695 0.958 . S
H2710 C2695 0.961 . S
H2711 C2695 0.960 . S
C2712 C2713 1.391 . S
C2712 C2714 1.394 . S
C2712 H2728 0.931 . S
C2713 C2712 1.391 . S
C2713 C2717 1.376 . S
C2714 C2712 1.394 . S
C2714 C2715 1.369 . S
C2714 C2718 1.535 . S
C2715 C2714 1.369 . S
C2715 C2716 1.410 . S
C2715 C2723 1.503 . S
C2716 C2715 1.410 . S
C2716 C2717 1.392 . S
C2716 C2719 1.511 . S
C2717 C2713 1.376 . S
C2717 C2716 1.392 . S
C2717 H2729 0.929 . S
C2718 C2714 1.535 . S
C2718 H2730 0.931 1_455 S
C2718 H2731 0.985 . S
C2718 H2732 0.962 1_455 S
C2719 C2716 1.511 . S
C2719 H2733 0.961 . S
C2719 H2734 0.961 . S
C2719 H2735 0.961 1_455 S
C2720 C2721 1.370 . S
C2720 C2722 1.363 . S
C2720 H2736 0.931 . S
C2721 C2720 1.370 . S
C2721 C2725 1.408 1_455 S
C2722 C2720 1.363 . S
C2722 C2723 1.370 . S
C2722 C2726 1.524 . S
C2723 C2715 1.503 . S
C2723 C2722 1.370 . S
C2723 C2724 1.403 1_455 S
C2724 C2723 1.403 1_655 S
C2724 C2725 1.404 . S
C2724 C2727 1.539 . S
C2725 C2721 1.408 1_655 S
C2725 C2724 1.404 . S
C2725 H2737 0.930 . S
C2726 C2722 1.524 . S
C2726 H2738 0.956 . S
C2726 H2739 0.961 . S
C2726 H2740 0.961 . S
C2727 C2724 1.539 . S
C2727 H2741 0.958 . S
C2727 H2742 0.961 . S
C2727 H2743 0.960 . S
H2728 C2712 0.931 . S
H2729 C2717 0.929 . S
H2730 C2718 0.931 1_655 S
H2731 C2718 0.985 . S
H2732 C2718 0.962 1_655 S
H2733 C2719 0.961 . S
H2734 C2719 0.961 . S
H2735 C2719 0.961 1_655 S
H2736 C2720 0.931 . S
H2737 C2725 0.930 . S
H2738 C2726 0.956 . S
H2739 C2726 0.961 . S
H2740 C2726 0.961 . S
H2741 C2727 0.958 . S
H2742 C2727 0.961 . S
H2743 C2727 0.960 . S
C2744 C2745 1.391 . S
C2744 C2746 1.394 . S
C2744 H2760 0.931 . S
C2745 C2744 1.391 . S
C2745 C2749 1.376 . S
C2746 C2744 1.394 . S
C2746 C2747 1.369 . S
C2746 C2750 1.531 . S
C2747 C2746 1.369 . S
C2747 C2748 1.410 . S
C2747 C2755 1.503 . S
C2748 C2747 1.410 . S
C2748 C2749 1.392 . S
C2748 C2751 1.511 . S
C2749 C2745 1.376 . S
C2749 C2748 1.392 . S
C2749 H2761 0.929 . S
C2750 C2746 1.531 . S
C2750 H2762 0.960 . S
C2750 H2763 0.962 . S
C2750 H2764 0.960 . S
C2751 C2748 1.511 . S
C2751 H2765 0.961 . S
C2751 H2766 0.961 . S
C2751 H2767 0.961 . S
C2752 C2753 1.370 . S
C2752 C2754 1.363 . S
C2752 H2768 0.931 . S
C2753 C2752 1.370 . S
C2753 C2757 1.408 . S
C2754 C2752 1.363 . S
C2754 C2755 1.370 . S
C2754 C2758 1.524 . S
C2755 C2747 1.503 . S
C2755 C2754 1.370 . S
C2755 C2756 1.403 . S
C2756 C2755 1.403 . S
C2756 C2757 1.404 . S
C2756 C2759 1.539 . S
C2757 C2753 1.408 . S
C2757 C2756 1.404 . S
C2757 H2769 0.930 . S
C2758 C2754 1.524 . S
C2758 H2770 0.956 . S
C2758 H2771 0.961 . S
C2758 H2772 0.961 . S
C2759 C2756 1.539 . S
C2759 H2773 0.958 . S
C2759 H2774 0.961 . S
C2759 H2775 0.960 . S
H2760 C2744 0.931 . S
H2761 C2749 0.929 . S
H2762 C2750 0.960 . S
H2763 C2750 0.962 . S
H2764 C2750 0.960 . S
H2765 C2751 0.961 . S
H2766 C2751 0.961 . S
H2767 C2751 0.961 . S
H2768 C2752 0.931 . S
H2769 C2757 0.930 . S
H2770 C2758 0.956 . S
H2771 C2758 0.961 . S
H2772 C2758 0.961 . S
H2773 C2759 0.958 . S
H2774 C2759 0.961 . S
H2775 C2759 0.960 . S
C2776 C2777 1.391 . S
C2776 C2778 1.394 . S
C2776 H2792 0.931 . S
C2777 C2776 1.391 . S
C2777 C2781 1.376 . S
C2778 C2776 1.394 . S
C2778 C2779 1.369 . S
C2778 C2782 1.531 . S
C2779 C2778 1.369 . S
C2779 C2780 1.410 . S
C2779 C2787 1.503 . S
C2780 C2779 1.410 . S
C2780 C2781 1.392 . S
C2780 C2783 1.511 . S
C2781 C2777 1.376 . S
C2781 C2780 1.392 . S
C2781 H2793 0.929 . S
C2782 C2778 1.531 . S
C2782 H2794 0.960 . S
C2782 H2795 1.004 . S
C2782 H2796 0.960 . S
C2783 C2780 1.511 . S
C2783 H2797 1.004 . S
C2783 H2798 0.961 . S
C2783 H2799 0.961 . S
C2784 C2785 1.370 1_545 S
C2784 C2786 1.363 . S
C2784 H2800 0.931 . S
C2785 C2784 1.370 1_565 S
C2785 C2789 1.408 . S
C2786 C2784 1.363 . S
C2786 C2787 1.370 1_545 S
C2786 C2790 1.524 . S
C2787 C2779 1.503 . S
C2787 C2786 1.370 1_565 S
C2787 C2788 1.403 . S
C2788 C2787 1.403 . S
C2788 C2789 1.404 . S
C2788 C2791 1.539 . S
C2789 C2785 1.408 . S
C2789 C2788 1.404 . S
C2789 H2801 0.930 . S
C2790 C2786 1.524 . S
C2790 H2802 0.956 . S
C2790 H2803 0.961 . S
C2790 H2804 0.961 . S
C2791 C2788 1.539 . S
C2791 H2805 0.958 . S
C2791 H2806 0.961 . S
C2791 H2807 0.960 . S
H2792 C2776 0.931 . S
H2793 C2781 0.929 . S
H2794 C2782 0.960 . S
H2795 C2782 1.004 . S
H2796 C2782 0.960 . S
H2797 C2783 1.004 . S
H2798 C2783 0.961 . S
H2799 C2783 0.961 . S
H2800 C2784 0.931 . S
H2801 C2789 0.930 . S
H2802 C2790 0.956 . S
H2803 C2790 0.961 . S
H2804 C2790 0.961 . S
H2805 C2791 0.958 . S
H2806 C2791 0.961 . S
H2807 C2791 0.960 . S
C2808 C2809 1.391 1_545 S
C2808 C2810 1.394 . S
C2808 H2824 0.931 . S
C2809 C2808 1.391 1_565 S
C2809 C2813 1.376 . S
C2810 C2808 1.394 . S
C2810 C2811 1.369 1_545 S
C2810 C2814 1.531 . S
C2811 C2810 1.369 1_565 S
C2811 C2812 1.410 . S
C2811 C2819 1.503 . S
C2812 C2811 1.410 . S
C2812 C2813 1.392 . S
C2812 C2815 1.511 . S
C2813 C2809 1.376 . S
C2813 C2812 1.392 . S
C2813 H2825 0.929 . S
C2814 C2810 1.531 . S
C2814 H2826 0.960 . S
C2814 H2827 0.962 . S
C2814 H2828 0.960 . S
C2815 C2812 1.511 . S
C2815 H2829 0.961 . S
C2815 H2830 0.961 . S
C2815 H2831 0.961 . S
C2816 C2817 1.370 . S
C2816 C2818 1.363 . S
C2816 H2832 0.931 . S
C2817 C2816 1.370 . S
C2817 C2821 1.408 . S
C2818 C2816 1.363 . S
C2818 C2819 1.370 . S
C2818 C2822 1.524 . S
C2819 C2811 1.503 . S
C2819 C2818 1.370 . S
C2819 C2820 1.403 . S
C2820 C2819 1.403 . S
C2820 C2821 1.404 . S
C2820 C2823 1.539 . S
C2821 C2817 1.408 . S
C2821 C2820 1.404 . S
C2821 H2833 0.930 . S
C2822 C2818 1.524 . S
C2822 H2834 0.956 1_565 S
C2822 H2835 0.961 . S
C2822 H2836 0.961 . S
C2823 C2820 1.539 . S
C2823 H2837 0.959 1_565 S
C2823 H2838 0.961 . S
C2823 H2839 0.960 . S
H2824 C2808 0.931 . S
H2825 C2813 0.929 . S
H2826 C2814 0.960 . S
H2827 C2814 0.962 . S
H2828 C2814 0.960 . S
H2829 C2815 0.961 . S
H2830 C2815 0.961 . S
H2831 C2815 0.961 . S
H2832 C2816 0.931 . S
H2833 C2821 0.930 . S
H2834 C2822 0.956 1_545 S
H2835 C2822 0.961 . S
H2836 C2822 0.961 . S
H2837 C2823 0.959 1_545 S
H2838 C2823 0.961 . S
H2839 C2823 0.960 . S
C2840 C2841 1.391 . S
C2840 C2842 1.394 . S
C2840 H2856 0.931 . S
C2841 C2840 1.391 . S
C2841 C2845 1.376 1_455 S
C2842 C2840 1.394 . S
C2842 C2843 1.369 . S
C2842 C2846 1.531 . S
C2843 C2842 1.369 . S
C2843 C2844 1.410 1_455 S
C2843 C2851 1.503 . S
C2844 C2843 1.410 1_655 S
C2844 C2845 1.392 . S
C2844 C2847 1.511 . S
C2845 C2841 1.376 1_655 S
C2845 C2844 1.392 . S
C2845 H2857 0.929 . S
C2846 C2842 1.531 . S
C2846 H2858 0.960 . S
C2846 H2859 0.962 . S
C2846 H2860 0.960 . S
C2847 C2844 1.511 . S
C2847 H2861 0.961 . S
C2847 H2862 0.961 . S
C2847 H2863 0.961 . S
C2848 C2849 1.370 . S
C2848 C2850 1.363 . S
C2848 H2864 0.931 . S
C2849 C2848 1.370 . S
C2849 C2853 1.408 1_455 S
C2850 C2848 1.363 . S
C2850 C2851 1.370 . S
C2850 C2854 1.524 . S
C2851 C2843 1.503 . S
C2851 C2850 1.370 . S
C2851 C2852 1.403 1_455 S
C2852 C2851 1.403 1_655 S
C2852 C2853 1.404 . S
C2852 C2855 1.539 . S
C2853 C2849 1.408 1_655 S
C2853 C2852 1.404 . S
C2853 H2865 0.930 . S
C2854 C2850 1.524 . S
C2854 H2866 0.956 . S
C2854 H2867 0.961 . S
C2854 H2868 0.961 . S
C2855 C2852 1.539 . S
C2855 H2869 0.958 . S
C2855 H2870 0.961 . S
C2855 H2871 0.960 . S
H2856 C2840 0.931 . S
H2857 C2845 0.929 . S
H2858 C2846 0.960 . S
H2859 C2846 0.962 . S
H2860 C2846 0.960 . S
H2861 C2847 0.961 . S
H2862 C2847 0.961 . S
H2863 C2847 0.961 . S
H2864 C2848 0.931 . S
H2865 C2853 0.930 . S
H2866 C2854 0.956 . S
H2867 C2854 0.961 . S
H2868 C2854 0.961 . S
H2869 C2855 0.958 . S
H2870 C2855 0.961 . S
H2871 C2855 0.960 . S
C2872 C2873 1.391 . S
C2872 C2874 1.394 . S
C2872 H2888 0.931 . S
C2873 C2872 1.391 . S
C2873 C2877 1.376 . S
C2874 C2872 1.394 . S
C2874 C2875 1.369 . S
C2874 C2878 1.531 . S
C2875 C2874 1.369 . S
C2875 C2876 1.410 . S
C2875 C2883 1.503 . S
C2876 C2875 1.410 . S
C2876 C2877 1.392 . S
C2876 C2879 1.511 . S
C2877 C2873 1.376 . S
C2877 C2876 1.392 . S
C2877 H2889 0.929 . S
C2878 C2874 1.531 . S
C2878 H2890 0.960 . S
C2878 H2891 0.962 . S
C2878 H2892 0.960 . S
C2879 C2876 1.511 . S
C2879 H2893 0.961 . S
C2879 H2894 0.961 . S
C2879 H2895 0.961 . S
C2880 C2881 1.370 . S
C2880 C2882 1.363 . S
C2880 H2896 0.931 . S
C2881 C2880 1.370 . S
C2881 C2885 1.408 . S
C2882 C2880 1.363 . S
C2882 C2883 1.370 . S
C2882 C2886 1.524 . S
C2883 C2875 1.503 . S
C2883 C2882 1.370 . S
C2883 C2884 1.403 . S
C2884 C2883 1.403 . S
C2884 C2885 1.404 . S
C2884 C2887 1.539 . S
C2885 C2881 1.408 . S
C2885 C2884 1.404 . S
C2885 H2897 0.930 . S
C2886 C2882 1.524 . S
C2886 H2898 0.956 . S
C2886 H2899 0.961 . S
C2886 H2900 0.961 . S
C2887 C2884 1.539 . S
C2887 H2901 0.958 . S
C2887 H2902 0.961 . S
C2887 H2903 0.960 . S
H2888 C2872 0.931 . S
H2889 C2877 0.929 . S
H2890 C2878 0.960 . S
H2891 C2878 0.962 . S
H2892 C2878 0.960 . S
H2893 C2879 0.961 . S
H2894 C2879 0.961 . S
H2895 C2879 0.961 . S
H2896 C2880 0.931 . S
H2897 C2885 0.930 . S
H2898 C2886 0.956 . S
H2899 C2886 0.961 . S
H2900 C2886 0.961 . S
H2901 C2887 0.958 . S
H2902 C2887 0.961 . S
H2903 C2887 0.960 . S
C2904 C2905 1.391 . S
C2904 C2906 1.394 . S
C2904 H2920 0.931 . S
C2905 C2904 1.391 . S
C2905 C2909 1.376 . S
C2906 C2904 1.394 . S
C2906 C2907 1.369 . S
C2906 C2910 1.531 . S
C2907 C2906 1.369 . S
C2907 C2908 1.410 . S
C2907 C2915 1.503 . S
C2908 C2907 1.410 . S
C2908 C2909 1.392 . S
C2908 C2911 1.511 . S
C2909 C2905 1.376 . S
C2909 C2908 1.392 . S
C2909 H2921 0.929 . S
C2910 C2906 1.531 . S
C2910 H2922 0.960 . S
C2910 H2923 0.962 . S
C2910 H2924 0.960 . S
C2911 C2908 1.511 . S
C2911 H2925 0.961 . S
C2911 H2926 0.961 . S
C2911 H2927 0.961 . S
C2912 C2913 1.370 . S
C2912 C2914 1.363 . S
C2912 H2928 0.931 . S
C2913 C2912 1.370 . S
C2913 C2917 1.408 . S
C2914 C2912 1.363 . S
C2914 C2915 1.370 . S
C2914 C2918 1.524 . S
C2915 C2907 1.503 . S
C2915 C2914 1.370 . S
C2915 C2916 1.403 . S
C2916 C2915 1.403 . S
C2916 C2917 1.404 . S
C2916 C2919 1.539 . S
C2917 C2913 1.408 . S
C2917 C2916 1.404 . S
C2917 H2929 0.930 . S
C2918 C2914 1.524 . S
C2918 H2930 0.956 . S
C2918 H2931 0.961 . S
C2918 H2932 0.961 . S
C2919 C2916 1.539 . S
C2919 H2933 0.958 . S
C2919 H2934 0.961 . S
C2919 H2935 0.960 . S
H2920 C2904 0.931 . S
H2921 C2909 0.929 . S
H2922 C2910 0.960 . S
H2923 C2910 0.962 . S
H2924 C2910 0.960 . S
H2925 C2911 0.961 . S
H2926 C2911 0.961 . S
H2927 C2911 0.961 . S
H2928 C2912 0.931 . S
H2929 C2917 0.930 . S
H2930 C2918 0.956 . S
H2931 C2918 0.961 . S
H2932 C2918 0.961 . S
H2933 C2919 0.958 . S
H2934 C2919 0.961 . S
H2935 C2919 0.960 . S
C2936 C2937 1.391 . S
C2936 C2938 1.394 . S
C2936 H2952 0.931 . S
C2937 C2936 1.391 . S
C2937 C2941 1.376 . S
C2938 C2936 1.394 . S
C2938 C2939 1.369 . S
C2938 C2942 1.531 . S
C2939 C2938 1.369 . S
C2939 C2940 1.410 . S
C2939 C2947 1.503 . S
C2940 C2939 1.410 . S
C2940 C2941 1.392 . S
C2940 C2943 1.511 . S
C2941 C2937 1.376 . S
C2941 C2940 1.392 . S
C2941 H2953 0.929 . S
C2942 C2938 1.531 . S
C2942 H2954 0.960 . S
C2942 H2955 0.962 . S
C2942 H2956 0.960 . S
C2943 C2940 1.511 . S
C2943 H2957 0.961 . S
C2943 H2958 0.961 . S
C2943 H2959 0.961 . S
C2944 C2945 1.370 . S
C2944 C2946 1.363 . S
C2944 H2960 0.931 . S
C2945 C2944 1.370 . S
C2945 C2949 1.408 . S
C2946 C2944 1.363 . S
C2946 C2947 1.370 . S
C2946 C2950 1.524 . S
C2947 C2939 1.503 . S
C2947 C2946 1.370 . S
C2947 C2948 1.403 . S
C2948 C2947 1.403 . S
C2948 C2949 1.404 . S
C2948 C2951 1.539 . S
C2949 C2945 1.408 . S
C2949 C2948 1.404 . S
C2949 H2961 0.930 . S
C2950 C2946 1.524 . S
C2950 H2962 0.956 . S
C2950 H2963 0.961 . S
C2950 H2964 0.961 . S
C2951 C2948 1.539 . S
C2951 H2965 0.958 . S
C2951 H2966 0.961 . S
C2951 H2967 0.960 . S
H2952 C2936 0.931 . S
H2953 C2941 0.929 . S
H2954 C2942 0.960 . S
H2955 C2942 0.962 . S
H2956 C2942 0.960 . S
H2957 C2943 0.961 . S
H2958 C2943 0.961 . S
H2959 C2943 0.961 . S
H2960 C2944 0.931 . S
H2961 C2949 0.930 . S
H2962 C2950 0.956 . S
H2963 C2950 0.961 . S
H2964 C2950 0.961 . S
H2965 C2951 0.958 . S
H2966 C2951 0.961 . S
H2967 C2951 0.960 . S
C2968 C2969 1.391 . S
C2968 C2970 1.394 . S
C2968 H2984 0.931 . S
C2969 C2968 1.391 . S
C2969 C2973 1.376 . S
C2970 C2968 1.394 . S
C2970 C2971 1.369 . S
C2970 C2974 1.531 . S
C2971 C2970 1.369 . S
C2971 C2972 1.410 . S
C2971 C2979 1.503 . S
C2972 C2971 1.410 . S
C2972 C2973 1.392 . S
C2972 C2975 1.511 . S
C2973 C2969 1.376 . S
C2973 C2972 1.392 . S
C2973 H2985 0.929 . S
C2974 C2970 1.531 . S
C2974 H2986 0.960 . S
C2974 H2987 0.962 . S
C2974 H2988 0.960 . S
C2975 C2972 1.511 . S
C2975 H2989 0.961 . S
C2975 H2990 0.961 . S
C2975 H2991 0.961 . S
C2976 C2977 1.370 . S
C2976 C2978 1.363 . S
C2976 H2992 0.931 . S
C2977 C2976 1.370 . S
C2977 C2981 1.408 . S
C2978 C2976 1.363 . S
C2978 C2979 1.370 . S
C2978 C2982 1.524 . S
C2979 C2971 1.503 . S
C2979 C2978 1.370 . S
C2979 C2980 1.403 . S
C2980 C2979 1.403 . S
C2980 C2981 1.404 . S
C2980 C2983 1.539 . S
C2981 C2977 1.408 . S
C2981 C2980 1.404 . S
C2981 H2993 0.930 . S
C2982 C2978 1.524 . S
C2982 H2994 0.956 . S
C2982 H2995 0.961 . S
C2982 H2996 0.961 . S
C2983 C2980 1.539 . S
C2983 H2997 0.958 . S
C2983 H2998 0.961 . S
C2983 H2999 0.960 . S
H2984 C2968 0.931 . S
H2985 C2973 0.929 . S
H2986 C2974 0.960 . S
H2987 C2974 0.962 . S
H2988 C2974 0.960 . S
H2989 C2975 0.961 . S
H2990 C2975 0.961 . S
H2991 C2975 0.961 . S
H2992 C2976 0.931 . S
H2993 C2981 0.930 . S
H2994 C2982 0.956 . S
H2995 C2982 0.961 . S
H2996 C2982 0.961 . S
H2997 C2983 0.958 . S
H2998 C2983 0.961 . S
H2999 C2983 0.960 . S
C3000 C3001 1.391 1_565 S
C3000 C3002 1.394 . S
C3000 H3016 0.931 . S
C3001 C3000 1.391 1_545 S
C3001 C3005 1.376 . S
C3002 C3000 1.394 . S
C3002 C3003 1.369 1_565 S
C3002 C3006 1.531 . S
C3003 C3002 1.369 1_545 S
C3003 C3004 1.410 . S
C3003 C3011 1.503 . S
C3004 C3003 1.410 . S
C3004 C3005 1.392 . S
C3004 C3007 1.511 . S
C3005 C3001 1.376 . S
C3005 C3004 1.392 . S
C3005 H3017 0.929 . S
C3006 C3002 1.531 . S
C3006 H3018 0.960 . S
C3006 H3019 0.962 . S
C3006 H3020 0.960 . S
C3007 C3004 1.511 . S
C3007 H3021 0.961 . S
C3007 H3022 0.961 . S
C3007 H3023 0.961 . S
C3008 C3009 1.370 1_565 S
C3008 C3010 1.363 . S
C3008 H3024 0.931 . S
C3009 C3008 1.370 1_545 S
C3009 C3013 1.408 . S
C3010 C3008 1.363 . S
C3010 C3011 1.370 1_565 S
C3010 C3014 1.524 . S
C3011 C3003 1.503 . S
C3011 C3010 1.370 1_545 S
C3011 C3012 1.403 . S
C3012 C3011 1.403 . S
C3012 C3013 1.404 . S
C3012 C3015 1.539 . S
C3013 C3009 1.408 . S
C3013 C3012 1.404 . S
C3013 H3025 0.930 . S
C3014 C3010 1.524 . S
C3014 H3026 0.956 . S
C3014 H3027 1.030 . S
C3014 H3028 0.961 . S
C3015 C3012 1.539 . S
C3015 H3029 0.958 . S
C3015 H3030 0.961 . S
C3015 H3031 0.960 . S
H3016 C3000 0.931 . S
H3017 C3005 0.929 . S
H3018 C3006 0.960 . S
H3019 C3006 0.962 . S
H3020 C3006 0.960 . S
H3021 C3007 0.961 . S
H3022 C3007 0.961 . S
H3023 C3007 0.961 . S
H3024 C3008 0.931 . S
H3025 C3013 0.930 . S
H3026 C3014 0.956 . S
H3027 C3014 1.030 . S
H3028 C3014 0.961 . S
H3029 C3015 0.958 . S
H3030 C3015 0.961 . S
H3031 C3015 0.960 . S
C3032 C3033 1.391 . S
C3032 C3034 1.394 . S
C3032 H3048 0.931 . S
C3033 C3032 1.391 . S
C3033 C3037 1.376 1_655 S
C3034 C3032 1.394 . S
C3034 C3035 1.369 . S
C3034 C3038 1.531 . S
C3035 C3034 1.369 . S
C3035 C3036 1.410 1_655 S
C3035 C3043 1.503 . S
C3036 C3035 1.410 1_455 S
C3036 C3037 1.392 . S
C3036 C3039 1.511 . S
C3037 C3033 1.376 1_455 S
C3037 C3036 1.392 . S
C3037 H3049 0.929 . S
C3038 C3034 1.531 . S
C3038 H3050 0.960 . S
C3038 H3051 0.962 . S
C3038 H3052 0.960 . S
C3039 C3036 1.511 . S
C3039 H3053 0.961 . S
C3039 H3054 0.961 . S
C3039 H3055 0.961 . S
C3040 C3041 1.363 1_455 S
C3040 C3042 1.386 1_455 S
C3040 H3056 0.924 . S
C3041 C3040 1.363 1_655 S
C3041 C3045 1.408 . S
C3042 C3040 1.386 1_655 S
C3042 C3043 1.367 . S
C3042 C3046 1.520 1_655 S
C3043 C3035 1.503 . S
C3043 C3042 1.367 . S
C3043 C3044 1.403 . S
C3044 C3043 1.403 . S
C3044 C3045 1.404 . S
C3044 C3047 1.539 . S
C3045 C3041 1.408 . S
C3045 C3044 1.404 . S
C3045 H3057 0.930 . S
C3046 C3042 1.520 1_455 S
C3046 H3058 0.956 1_455 S
C3046 H3059 0.961 . S
C3046 H3060 0.961 . S
C3047 C3044 1.539 . S
C3047 H3061 0.958 . S
C3047 H3062 0.961 . S
C3047 H3063 0.960 . S
H3048 C3032 0.931 . S
H3049 C3037 0.929 . S
H3050 C3038 0.960 . S
H3051 C3038 0.962 . S
H3052 C3038 0.960 . S
H3053 C3039 0.961 . S
H3054 C3039 0.961 . S
H3055 C3039 0.961 . S
H3056 C3040 0.924 . S
H3057 C3045 0.930 . S
H3058 C3046 0.956 1_655 S
H3059 C3046 0.961 . S
H3060 C3046 0.961 . S
H3061 C3047 0.958 . S
H3062 C3047 0.961 . S
H3063 C3047 0.960 . S
C3064 C3065 1.391 . S
C3064 C3066 1.394 . S
C3064 H3080 0.931 . S
C3065 C3064 1.391 . S
C3065 C3069 1.376 . S
C3066 C3064 1.394 . S
C3066 C3067 1.369 . S
C3066 C3070 1.531 . S
C3067 C3066 1.369 . S
C3067 C3068 1.410 . S
C3067 C3075 1.503 . S
C3068 C3067 1.410 . S
C3068 C3069 1.392 . S
C3068 C3071 1.511 . S
C3069 C3065 1.376 . S
C3069 C3068 1.392 . S
C3069 H3081 0.929 . S
C3070 C3066 1.531 . S
C3070 H3082 0.960 . S
C3070 H3083 0.962 . S
C3070 H3084 0.960 . S
C3071 C3068 1.511 . S
C3071 H3085 0.961 . S
C3071 H3086 0.961 . S
C3071 H3087 0.961 . S
C3072 C3073 1.370 . S
C3072 C3074 1.363 . S
C3072 H3088 0.931 . S
C3073 C3072 1.370 . S
C3073 C3077 1.408 . S
C3074 C3072 1.363 . S
C3074 C3075 1.370 . S
C3074 C3078 1.524 . S
C3075 C3067 1.503 . S
C3075 C3074 1.370 . S
C3075 C3076 1.403 . S
C3076 C3075 1.403 . S
C3076 C3077 1.404 . S
C3076 C3079 1.539 . S
C3077 C3073 1.408 . S
C3077 C3076 1.404 . S
C3077 H3089 0.930 . S
C3078 C3074 1.524 . S
C3078 H3090 0.956 . S
C3078 H3091 0.961 . S
C3078 H3092 0.961 . S
C3079 C3076 1.539 . S
C3079 H3093 0.958 . S
C3079 H3094 0.961 . S
C3079 H3095 0.960 . S
H3080 C3064 0.931 . S
H3081 C3069 0.929 . S
H3082 C3070 0.960 . S
H3083 C3070 0.962 . S
H3084 C3070 0.960 . S
H3085 C3071 0.961 . S
H3086 C3071 0.961 . S
H3087 C3071 0.961 . S
H3088 C3072 0.931 . S
H3089 C3077 0.930 . S
H3090 C3078 0.956 . S
H3091 C3078 0.961 . S
H3092 C3078 0.961 . S
H3093 C3079 0.958 . S
H3094 C3079 0.961 . S
H3095 C3079 0.960 . S
C3096 C3097 1.391 . S
C3096 C3098 1.394 . S
C3096 H3112 0.931 . S
C3097 C3096 1.391 . S
C3097 C3101 1.376 . S
C3098 C3096 1.394 . S
C3098 C3099 1.369 . S
C3098 C3102 1.531 . S
C3099 C3098 1.369 . S
C3099 C3100 1.410 . S
C3099 C3107 1.503 . S
C3100 C3099 1.410 . S
C3100 C3101 1.392 . S
C3100 C3103 1.511 . S
C3101 C3097 1.376 . S
C3101 C3100 1.392 . S
C3101 H3113 0.929 . S
C3102 C3098 1.531 . S
C3102 H3114 0.960 . S
C3102 H3115 0.962 . S
C3102 H3116 0.960 . S
C3103 C3100 1.511 . S
C3103 H3117 0.961 . S
C3103 H3118 0.961 . S
C3103 H3119 0.961 . S
C3104 C3105 1.370 . S
C3104 C3106 1.363 . S
C3104 H3120 0.931 . S
C3105 C3104 1.370 . S
C3105 C3109 1.408 . S
C3106 C3104 1.363 . S
C3106 C3107 1.370 . S
C3106 C3110 1.524 . S
C3107 C3099 1.503 . S
C3107 C3106 1.370 . S
C3107 C3108 1.403 . S
C3108 C3107 1.403 . S
C3108 C3109 1.404 . S
C3108 C3111 1.539 . S
C3109 C3105 1.408 . S
C3109 C3108 1.404 . S
C3109 H3121 0.930 . S
C3110 C3106 1.524 . S
C3110 H3122 0.956 . S
C3110 H3123 0.961 . S
C3110 H3124 0.961 . S
C3111 C3108 1.539 . S
C3111 H3125 0.958 . S
C3111 H3126 0.961 . S
C3111 H3127 0.960 . S
H3112 C3096 0.931 . S
H3113 C3101 0.929 . S
H3114 C3102 0.960 . S
H3115 C3102 0.962 . S
H3116 C3102 0.960 . S
H3117 C3103 0.961 . S
H3118 C3103 0.961 . S
H3119 C3103 0.961 . S
H3120 C3104 0.931 . S
H3121 C3109 0.930 . S
H3122 C3110 0.956 . S
H3123 C3110 0.961 . S
H3124 C3110 0.961 . S
H3125 C3111 0.958 . S
H3126 C3111 0.961 . S
H3127 C3111 0.960 . S
C3128 C3129 1.391 . S
C3128 C3130 1.394 . S
C3128 H3144 0.931 . S
C3129 C3128 1.391 . S
C3129 C3133 1.376 . S
C3130 C3128 1.394 . S
C3130 C3131 1.369 . S
C3130 C3134 1.531 . S
C3131 C3130 1.369 . S
C3131 C3132 1.410 . S
C3131 C3139 1.503 . S
C3132 C3131 1.410 . S
C3132 C3133 1.392 . S
C3132 C3135 1.511 . S
C3133 C3129 1.376 . S
C3133 C3132 1.392 . S
C3133 H3145 0.929 . S
C3134 C3130 1.531 . S
C3134 H3146 0.960 . S
C3134 H3147 0.962 . S
C3134 H3148 0.960 . S
C3135 C3132 1.511 . S
C3135 H3149 0.961 . S
C3135 H3150 0.961 . S
C3135 H3151 0.961 . S
C3136 C3137 1.370 . S
C3136 C3138 1.363 . S
C3136 H3152 0.931 . S
C3137 C3136 1.370 . S
C3137 C3141 1.408 . S
C3138 C3136 1.363 . S
C3138 C3139 1.370 . S
C3138 C3142 1.524 . S
C3139 C3131 1.503 . S
C3139 C3138 1.370 . S
C3139 C3140 1.403 . S
C3140 C3139 1.403 . S
C3140 C3141 1.404 . S
C3140 C3143 1.539 . S
C3141 C3137 1.408 . S
C3141 C3140 1.404 . S
C3141 H3153 0.930 . S
C3142 C3138 1.524 . S
C3142 H3154 0.956 . S
C3142 H3155 0.961 . S
C3142 H3156 0.961 . S
C3143 C3140 1.539 . S
C3143 H3157 0.958 . S
C3143 H3158 0.961 . S
C3143 H3159 0.960 . S
H3144 C3128 0.931 . S
H3145 C3133 0.929 . S
H3146 C3134 0.960 . S
H3147 C3134 0.962 . S
H3148 C3134 0.960 . S
H3149 C3135 0.961 . S
H3150 C3135 0.961 . S
H3151 C3135 0.961 . S
H3152 C3136 0.931 . S
H3153 C3141 0.930 . S
H3154 C3142 0.956 . S
H3155 C3142 0.961 . S
H3156 C3142 0.961 . S
H3157 C3143 0.958 . S
H3158 C3143 0.961 . S
H3159 C3143 0.960 . S
C3160 C3161 1.391 . S
C3160 C3162 1.394 . S
C3160 H3176 0.931 . S
C3161 C3160 1.391 . S
C3161 C3165 1.376 . S
C3162 C3160 1.394 . S
C3162 C3163 1.369 . S
C3162 C3166 1.531 . S
C3163 C3162 1.369 . S
C3163 C3164 1.410 . S
C3163 C3171 1.503 . S
C3164 C3163 1.410 . S
C3164 C3165 1.392 . S
C3164 C3167 1.511 . S
C3165 C3161 1.376 . S
C3165 C3164 1.392 . S
C3165 H3177 0.929 . S
C3166 C3162 1.531 . S
C3166 H3178 0.960 . S
C3166 H3179 0.962 . S
C3166 H3180 0.960 . S
C3167 C3164 1.511 . S
C3167 H3181 0.961 . S
C3167 H3182 0.961 . S
C3167 H3183 0.961 . S
C3168 C3169 1.370 . S
C3168 C3170 1.363 . S
C3168 H3184 0.931 . S
C3169 C3168 1.370 . S
C3169 C3173 1.408 . S
C3170 C3168 1.363 . S
C3170 C3171 1.370 . S
C3170 C3174 1.524 . S
C3171 C3163 1.503 . S
C3171 C3170 1.370 . S
C3171 C3172 1.403 . S
C3172 C3171 1.403 . S
C3172 C3173 1.404 . S
C3172 C3175 1.539 . S
C3173 C3169 1.408 . S
C3173 C3172 1.404 . S
C3173 H3185 0.930 . S
C3174 C3170 1.524 . S
C3174 H3186 0.956 . S
C3174 H3187 0.961 . S
C3174 H3188 0.961 . S
C3175 C3172 1.539 . S
C3175 H3189 0.958 . S
C3175 H3190 0.961 . S
C3175 H3191 0.960 . S
H3176 C3160 0.931 . S
H3177 C3165 0.929 . S
H3178 C3166 0.960 . S
H3179 C3166 0.962 . S
H3180 C3166 0.960 . S
H3181 C3167 0.961 . S
H3182 C3167 0.961 . S
H3183 C3167 0.961 . S
H3184 C3168 0.931 . S
H3185 C3173 0.930 . S
H3186 C3174 0.956 . S
H3187 C3174 0.961 . S
H3188 C3174 0.961 . S
H3189 C3175 0.958 . S
H3190 C3175 0.961 . S
H3191 C3175 0.960 . S
C3192 C3193 1.391 . S
C3192 C3194 1.394 . S
C3192 H3208 0.931 . S
C3193 C3192 1.391 . S
C3193 C3197 1.376 . S
C3194 C3192 1.394 . S
C3194 C3195 1.369 . S
C3194 C3198 1.531 . S
C3195 C3194 1.369 . S
C3195 C3196 1.410 . S
C3195 C3203 1.503 . S
C3196 C3195 1.410 . S
C3196 C3197 1.392 . S
C3196 C3199 1.511 . S
C3197 C3193 1.376 . S
C3197 C3196 1.392 . S
C3197 H3209 0.929 . S
C3198 C3194 1.531 . S
C3198 H3210 0.960 . S
C3198 H3211 0.962 . S
C3198 H3212 0.960 . S
C3199 C3196 1.511 . S
C3199 H3213 0.961 . S
C3199 H3214 0.961 . S
C3199 H3215 0.961 . S
C3200 C3201 1.370 . S
C3200 C3202 1.363 . S
C3200 H3216 0.931 . S
C3201 C3200 1.370 . S
C3201 C3205 1.408 . S
C3202 C3200 1.363 . S
C3202 C3203 1.370 . S
C3202 C3206 1.524 . S
C3203 C3195 1.503 . S
C3203 C3202 1.370 . S
C3203 C3204 1.403 . S
C3204 C3203 1.403 . S
C3204 C3205 1.404 . S
C3204 C3207 1.539 . S
C3205 C3201 1.408 . S
C3205 C3204 1.404 . S
C3205 H3217 0.930 . S
C3206 C3202 1.524 . S
C3206 H3218 0.956 . S
C3206 H3219 0.961 . S
C3206 H3220 0.961 . S
C3207 C3204 1.539 . S
C3207 H3221 0.958 . S
C3207 H3222 0.961 . S
C3207 H3223 0.960 . S
H3208 C3192 0.931 . S
H3209 C3197 0.929 . S
H3210 C3198 0.960 . S
H3211 C3198 0.962 . S
H3212 C3198 0.960 . S
H3213 C3199 0.961 . S
H3214 C3199 0.961 . S
H3215 C3199 0.961 . S
H3216 C3200 0.931 . S
H3217 C3205 0.930 . S
H3218 C3206 0.956 . S
H3219 C3206 0.961 . S
H3220 C3206 0.961 . S
H3221 C3207 0.958 . S
H3222 C3207 0.961 . S
H3223 C3207 0.960 . S
C3224 C3225 1.391 . S
C3224 C3226 1.394 . S
C3224 H3240 0.931 . S
C3225 C3224 1.391 . S
C3225 C3229 1.376 . S
C3226 C3224 1.394 . S
C3226 C3227 1.369 . S
C3226 C3230 1.531 . S
C3227 C3226 1.369 . S
C3227 C3228 1.410 . S
C3227 C3235 1.503 . S
C3228 C3227 1.410 . S
C3228 C3229 1.392 . S
C3228 C3231 1.511 . S
C3229 C3225 1.376 . S
C3229 C3228 1.392 . S
C3229 H3241 0.929 . S
C3230 C3226 1.531 . S
C3230 H3242 0.960 . S
C3230 H3243 0.962 . S
C3230 H3244 0.960 . S
C3231 C3228 1.511 . S
C3231 H3245 0.961 . S
C3231 H3246 0.961 . S
C3231 H3247 0.961 . S
C3232 C3233 1.370 . S
C3232 C3234 1.363 . S
C3232 H3248 0.931 . S
C3233 C3232 1.370 . S
C3233 C3237 1.408 . S
C3234 C3232 1.363 . S
C3234 C3235 1.370 . S
C3234 C3238 1.524 . S
C3235 C3227 1.503 . S
C3235 C3234 1.370 . S
C3235 C3236 1.403 . S
C3236 C3235 1.403 . S
C3236 C3237 1.404 . S
C3236 C3239 1.539 . S
C3237 C3233 1.408 . S
C3237 C3236 1.404 . S
C3237 H3249 0.930 . S
C3238 C3234 1.524 . S
C3238 H3250 0.956 . S
C3238 H3251 0.961 . S
C3238 H3252 0.961 . S
C3239 C3236 1.539 . S
C3239 H3253 0.958 . S
C3239 H3254 0.961 . S
C3239 H3255 0.960 . S
H3240 C3224 0.931 . S
H3241 C3229 0.929 . S
H3242 C3230 0.960 . S
H3243 C3230 0.962 . S
H3244 C3230 0.960 . S
H3245 C3231 0.961 . S
H3246 C3231 0.961 . S
H3247 C3231 0.961 . S
H3248 C3232 0.931 . S
H3249 C3237 0.930 . S
H3250 C3238 0.956 . S
H3251 C3238 0.961 . S
H3252 C3238 0.961 . S
H3253 C3239 0.958 . S
H3254 C3239 0.961 . S
H3255 C3239 0.960 . S
C3256 C3257 1.391 . S
C3256 C3258 1.394 . S
C3256 H3272 0.931 . S
C3257 C3256 1.391 . S
C3257 C3261 1.376 . S
C3258 C3256 1.394 . S
C3258 C3259 1.369 . S
C3258 C3262 1.531 . S
C3259 C3258 1.369 . S
C3259 C3260 1.410 . S
C3259 C3267 1.503 . S
C3260 C3259 1.410 . S
C3260 C3261 1.392 . S
C3260 C3263 1.511 . S
C3261 C3257 1.376 . S
C3261 C3260 1.392 . S
C3261 H3273 0.929 . S
C3262 C3258 1.531 . S
C3262 H3274 0.960 . S
C3262 H3275 0.962 . S
C3262 H3276 0.960 . S
C3263 C3260 1.511 . S
C3263 H3277 0.961 . S
C3263 H3278 0.961 . S
C3263 H3279 0.961 . S
C3264 C3265 1.370 . S
C3264 C3266 1.363 . S
C3264 H3280 0.931 . S
C3265 C3264 1.370 . S
C3265 C3269 1.408 . S
C3266 C3264 1.363 . S
C3266 C3267 1.370 . S
C3266 C3270 1.524 . S
C3267 C3259 1.503 . S
C3267 C3266 1.370 . S
C3267 C3268 1.403 . S
C3268 C3267 1.403 . S
C3268 C3269 1.404 . S
C3268 C3271 1.539 . S
C3269 C3265 1.408 . S
C3269 C3268 1.404 . S
C3269 H3281 0.930 . S
C3270 C3266 1.524 . S
C3270 H3282 0.956 . S
C3270 H3283 0.961 . S
C3270 H3284 0.961 . S
C3271 C3268 1.539 . S
C3271 H3285 0.958 . S
C3271 H3286 0.961 . S
C3271 H3287 0.960 . S
H3272 C3256 0.931 . S
H3273 C3261 0.929 . S
H3274 C3262 0.960 . S
H3275 C3262 0.962 . S
H3276 C3262 0.960 . S
H3277 C3263 0.961 . S
H3278 C3263 0.961 . S
H3279 C3263 0.961 . S
H3280 C3264 0.931 . S
H3281 C3269 0.930 . S
H3282 C3270 0.956 . S
H3283 C3270 0.961 . S
H3284 C3270 0.961 . S
H3285 C3271 0.958 . S
H3286 C3271 0.961 . S
H3287 C3271 0.960 . S
C3288 C3289 1.391 1_455 S
C3288 C3290 1.394 . S
C3288 H3304 0.931 . S
C3289 C3288 1.391 1_655 S
C3289 C3293 1.376 . S
C3290 C3288 1.394 . S
C3290 C3291 1.369 1_455 S
C3290 C3294 1.531 . S
C3291 C3290 1.369 1_655 S
C3291 C3292 1.410 . S
C3291 C3299 1.503 . S
C3292 C3291 1.410 . S
C3292 C3293 1.392 . S
C3292 C3295 1.511 . S
C3293 C3289 1.376 . S
C3293 C3292 1.392 . S
C3293 H3305 0.929 . S
C3294 C3290 1.531 . S
C3294 H3306 0.960 . S
C3294 H3307 0.962 . S
C3294 H3308 0.960 . S
C3295 C3292 1.511 . S
C3295 H3309 0.961 . S
C3295 H3310 0.961 . S
C3295 H3311 0.961 . S
C3296 C3297 1.370 . S
C3296 C3298 1.363 . S
C3296 H3312 0.931 . S
C3297 C3296 1.370 . S
C3297 C3301 1.408 1_655 S
C3298 C3296 1.363 . S
C3298 C3299 1.370 . S
C3298 C3302 1.524 . S
C3299 C3291 1.503 . S
C3299 C3298 1.370 . S
C3299 C3300 1.403 1_655 S
C3300 C3299 1.403 1_455 S
C3300 C3301 1.404 . S
C3300 C3303 1.539 . S
C3301 C3297 1.408 1_455 S
C3301 C3300 1.404 . S
C3301 H3313 0.930 . S
C3302 C3298 1.524 . S
C3302 H3314 0.956 . S
C3302 H3315 0.961 . S
C3302 H3316 0.961 . S
C3303 C3300 1.539 . S
C3303 H3317 0.958 . S
C3303 H3318 0.961 . S
C3303 H3319 0.960 . S
H3304 C3288 0.931 . S
H3305 C3293 0.929 . S
H3306 C3294 0.960 . S
H3307 C3294 0.962 . S
H3308 C3294 0.960 . S
H3309 C3295 0.961 . S
H3310 C3295 0.961 . S
H3311 C3295 0.961 . S
H3312 C3296 0.931 . S
H3313 C3301 0.930 . S
H3314 C3302 0.956 . S
H3315 C3302 0.961 . S
H3316 C3302 0.961 . S
H3317 C3303 0.958 . S
H3318 C3303 0.961 . S
H3319 C3303 0.960 . S
C3320 C3321 1.391 . S
C3320 C3322 1.394 . S
C3320 H3336 0.931 . S
C3321 C3320 1.391 . S
C3321 C3325 1.376 . S
C3322 C3320 1.394 . S
C3322 C3323 1.369 . S
C3322 C3326 1.531 . S
C3323 C3322 1.369 . S
C3323 C3324 1.410 . S
C3323 C3331 1.503 . S
C3324 C3323 1.410 . S
C3324 C3325 1.392 . S
C3324 C3327 1.511 . S
C3325 C3321 1.376 . S
C3325 C3324 1.392 . S
C3325 H3337 0.929 . S
C3326 C3322 1.531 . S
C3326 H3338 0.960 . S
C3326 H3339 0.962 . S
C3326 H3340 0.960 . S
C3327 C3324 1.511 . S
C3327 H3341 0.961 . S
C3327 H3342 0.961 . S
C3327 H3343 0.961 . S
C3328 C3329 1.370 . S
C3328 C3330 1.363 . S
C3328 H3344 0.931 . S
C3329 C3328 1.370 . S
C3329 C3333 1.408 . S
C3330 C3328 1.363 . S
C3330 C3331 1.370 . S
C3330 C3334 1.524 . S
C3331 C3323 1.503 . S
C3331 C3330 1.370 . S
C3331 C3332 1.403 . S
C3332 C3331 1.403 . S
C3332 C3333 1.404 . S
C3332 C3335 1.539 . S
C3333 C3329 1.408 . S
C3333 C3332 1.404 . S
C3333 H3345 0.930 . S
C3334 C3330 1.524 . S
C3334 H3346 0.956 . S
C3334 H3347 0.961 . S
C3334 H3348 0.961 . S
C3335 C3332 1.539 . S
C3335 H3349 0.958 . S
C3335 H3350 0.961 . S
C3335 H3351 0.960 . S
H3336 C3320 0.931 . S
H3337 C3325 0.929 . S
H3338 C3326 0.960 . S
H3339 C3326 0.962 . S
H3340 C3326 0.960 . S
H3341 C3327 0.961 . S
H3342 C3327 0.961 . S
H3343 C3327 0.961 . S
H3344 C3328 0.931 . S
H3345 C3333 0.930 . S
H3346 C3334 0.956 . S
H3347 C3334 0.961 . S
H3348 C3334 0.961 . S
H3349 C3335 0.958 . S
H3350 C3335 0.961 . S
H3351 C3335 0.960 . S
C3352 C3353 1.391 1_565 S
C3352 C3354 1.394 . S
C3352 H3368 0.931 . S
C3353 C3352 1.391 1_545 S
C3353 C3357 1.376 . S
C3354 C3352 1.394 . S
C3354 C3355 1.369 1_565 S
C3354 C3358 1.531 . S
C3355 C3354 1.369 1_545 S
C3355 C3356 1.410 . S
C3355 C3363 1.503 . S
C3356 C3355 1.410 . S
C3356 C3357 1.392 . S
C3356 C3359 1.511 . S
C3357 C3353 1.376 . S
C3357 C3356 1.392 . S
C3357 H3369 0.929 . S
C3358 C3354 1.531 . S
C3358 H3370 0.960 . S
C3358 H3371 0.962 . S
C3358 H3372 0.960 . S
C3359 C3356 1.511 . S
C3359 H3373 0.961 . S
C3359 H3374 0.961 . S
C3359 H3375 0.961 . S
C3360 C3361 1.370 . S
C3360 C3362 1.363 . S
C3360 H3376 0.931 . S
C3361 C3360 1.370 . S
C3361 C3365 1.408 . S
C3362 C3360 1.363 . S
C3362 C3363 1.370 . S
C3362 C3366 1.524 . S
C3363 C3355 1.503 . S
C3363 C3362 1.370 . S
C3363 C3364 1.403 . S
C3364 C3363 1.403 . S
C3364 C3365 1.404 . S
C3364 C3367 1.539 . S
C3365 C3361 1.408 . S
C3365 C3364 1.404 . S
C3365 H3377 0.930 . S
C3366 C3362 1.524 . S
C3366 H3378 0.956 1_545 S
C3366 H3379 0.961 . S
C3366 H3380 0.961 . S
C3367 C3364 1.539 . S
C3367 H3381 0.958 1_545 S
C3367 H3382 0.961 . S
C3367 H3383 0.960 . S
H3368 C3352 0.931 . S
H3369 C3357 0.929 . S
H3370 C3358 0.960 . S
H3371 C3358 0.962 . S
H3372 C3358 0.960 . S
H3373 C3359 0.961 . S
H3374 C3359 0.961 . S
H3375 C3359 0.961 . S
H3376 C3360 0.931 . S
H3377 C3365 0.930 . S
H3378 C3366 0.956 1_565 S
H3379 C3366 0.961 . S
H3380 C3366 0.961 . S
H3381 C3367 0.958 1_565 S
H3382 C3367 0.961 . S
H3383 C3367 0.960 . S
C1081 C7 1.452 . S
C1089 C688 1.456 . S
C1113 C23 1.592 . S
C1121 C734 1.588 . S
C1153 C766 1.477 . S
C1145 C37 1.428 . S
C1177 C35 1.430 1_545 S
C1185 C819 1.455 . S
C1209 C9 1.463 . S
C1217 C865 1.484 . S
C1241 C21 1.575 . S
C1249 C904 1.612 . S
C1273 C49 1.438 . S
C1281 C858 1.449 . S
C1313 C911 1.598 . S
C1305 C65 1.599 . S
C1345 C812 1.489 . S
C1337 C79 1.419 . S
C1369 C77 1.436 . S
C1377 C773 1.440 . S
C1409 C667 1.489 . S
C1401 C51 1.457 . S
C1433 C63 1.549 . S
C1441 C713 1.601 . S
C1465 C91 1.666 . S
C1473 C943 1.689 . S
C1497 C107 1.664 . S
C1505 C1010 1.643 . S
C1537 C1056 1.636 . S
C1529 C121 1.656 . S
C1561 C119 1.623 . S
C1569 C267 1.608 . S
C1593 C93 1.660 . S
C1601 C313 1.644 . S
C1625 C105 1.634 . S
C1633 C359 1.635 . S
C1657 C133 1.550 . S
C1665 C306 1.563 . S
C1689 C149 1.643 . S
C1697 C352 1.628 . S
C1729 C260 1.648 . S
C1721 C163 1.663 . S
C1761 C1035 1.722 . S
C1753 C161 1.671 . S
C1793 C964 1.639 . S
C1785 C135 1.647 . S
C1825 C989 1.674 . S
C1817 C147 1.662 . S
C1849 C175 1.565 . S
C1857 C391 1.589 . S
C1881 C191 1.625 . S
C1889 C444 1.626 . S
C1913 C205 1.664 . S
C1921 C490 1.663 . S
C1945 C203 1.666 . S
C1953 C536 1.731 . S
C1985 C589 1.651 . S
C1977 C177 1.671 . S
C2017 C635 1.665 . S
C2009 C189 1.666 . S
C2049 C582 1.677 . S
C2041 C217 1.650 . S
C2081 C628 1.662 . S
C2073 C233 1.682 . S
C2105 C247 1.662 . S
C2113 C543 1.654 . S
C2145 C497 1.622 . S
C2137 C245 1.616 . S
C2169 C219 1.672 . S
C2177 C412 1.666 . S
C2209 C451 1.645 . S
C2201 C231 1.642 . S
C2241 C274 1.621 . S
C2233 C8 1.635 . S
C2265 C17 1.539 . S
C2273 C320 1.528 . S
C2305 C366 1.625 . S
C2297 C31 1.637 . S
C2337 C398 1.622 . S
C2329 C36 1.652 . S
C2369 C437 1.592 . S
C2361 C3 1.609 . S
C2401 C483 1.509 . S
C2393 C22 1.553 . S
C2425 C50 1.636 . S
C2433 C504 1.633 . S
C2457 C59 1.532 . S
C2465 C405 1.498 . S
C2489 C73 1.625 . S
C2497 C458 1.600 . S
C2521 C78 1.668 . S
C2529 C299 1.666 . S
C2561 C345 1.605 . S
C2553 C45 1.594 . S
C2585 C64 1.554 . S
C2593 C253 1.524 . S
C2625 C529 1.575 . S
C2617 C92 1.583 . S
C2649 C101 1.671 . S
C2657 C596 1.671 . S
C2681 C115 1.677 . S
C2689 C642 1.679 . S
C2721 C681 1.430 . S
C2713 C120 1.428 . S
C2745 C87 1.585 . S
C2753 C727 1.580 . S
C2777 C106 1.374 . S
C2785 C759 1.387 . S
C2809 C134 1.407 . S
C2817 C780 1.399 . S
C2841 C143 1.412 . S
C2849 C674 1.414 . S
C2881 C720 1.596 . S
C2873 C157 1.597 . S
C2905 C162 1.614 . S
C2913 C575 1.592 . S
C2937 C129 1.670 . S
C2945 C621 1.667 . S
C2977 C550 1.651 . S
C2969 C148 1.671 . S
C3009 C826 1.419 . S
C3001 C176 1.398 . S
C3033 C185 1.400 . S
C3041 C872 1.404 . S
C3065 C199 1.589 . S
C3073 C897 1.588 . S
C3105 C950 1.577 . S
C3097 C204 1.594 . S
C3137 C1003 1.666 . S
C3129 C171 1.683 . S
C3161 C190 1.675 . S
C3169 C1049 1.669 . S
C3193 C218 1.607 . S
C3201 C1042 1.580 . S
C3225 C227 1.675 . S
C3233 C957 1.638 . S
C3265 C996 1.657 . S
C3257 C241 1.670 . S
C3297 C851 1.416 . S
C3289 C246 1.421 . S
C3329 C918 1.568 . S
C3321 C213 1.604 . S
C3353 C232 1.395 . S
C3361 C805 1.392 . S
