# Generated by pormake.
# Topology pto, (3,4)-cn, num edge types: 1
# Building blocks:
#     Node 0, Type 0, BuildingBlock: ESEHIV_clean_linker_0, # of connection points: 3
#     Node 1, Type 0, BuildingBlock: ESEHIV_clean_linker_0, # of connection points: 3
#     Node 2, Type 0, BuildingBlock: ESEHIV_clean_linker_0, # of connection points: 3
#     Node 3, Type 0, BuildingBlock: ESEHIV_clean_linker_0, # of connection points: 3
#     Node 4, Type 0, BuildingBlock: ESEHIV_clean_linker_0, # of connection points: 3
#     Node 5, Type 0, BuildingBlock: ESEHIV_clean_linker_0, # of connection points: 3
#     Node 6, Type 0, BuildingBlock: ESEHIV_clean_linker_0, # of connection points: 3
#     Node 7, Type 0, BuildingBlock: ESEHIV_clean_linker_0, # of connection points: 3
#     Node 8, Type 1, BuildingBlock: KOZSID_clean_sbu_0, # of connection points: 4
#     Node 9, Type 1, BuildingBlock: KOZSID_clean_sbu_0, # of connection points: 4
#     Node 10, Type 1, BuildingBlock: KOZSID_clean_sbu_0, # of connection points: 4
#     Node 11, Type 1, BuildingBlock: KOZSID_clean_sbu_0, # of connection points: 4
#     Node 12, Type 1, BuildingBlock: KOZSID_clean_sbu_0, # of connection points: 4
#     Node 13, Type 1, BuildingBlock: KOZSID_clean_sbu_0, # of connection points: 4
#     Edge 14, Type (0, 1), BuildingBlock: ZUJKAS_clean_linker_0, # of connection points: 2
#     Edge 15, Type (0, 1), BuildingBlock: ZUJKAS_clean_linker_0, # of connection points: 2
#     Edge 16, Type (0, 1), BuildingBlock: ZUJKAS_clean_linker_0, # of connection points: 2
#     Edge 17, Type (0, 1), BuildingBlock: ZUJKAS_clean_linker_0, # of connection points: 2
#     Edge 18, Type (0, 1), BuildingBlock: ZUJKAS_clean_linker_0, # of connection points: 2
#     Edge 19, Type (0, 1), BuildingBlock: ZUJKAS_clean_linker_0, # of connection points: 2
#     Edge 20, Type (0, 1), BuildingBlock: ZUJKAS_clean_linker_0, # of connection points: 2
#     Edge 21, Type (0, 1), BuildingBlock: ZUJKAS_clean_linker_0, # of connection points: 2
#     Edge 22, Type (0, 1), BuildingBlock: ZUJKAS_clean_linker_0, # of connection points: 2
#     Edge 23, Type (0, 1), BuildingBlock: ZUJKAS_clean_linker_0, # of connection points: 2
#     Edge 24, Type (0, 1), BuildingBlock: ZUJKAS_clean_linker_0, # of connection points: 2
#     Edge 25, Type (0, 1), BuildingBlock: ZUJKAS_clean_linker_0, # of connection points: 2
#     Edge 26, Type (0, 1), BuildingBlock: ZUJKAS_clean_linker_0, # of connection points: 2
#     Edge 27, Type (0, 1), BuildingBlock: ZUJKAS_clean_linker_0, # of connection points: 2
#     Edge 28, Type (0, 1), BuildingBlock: ZUJKAS_clean_linker_0, # of connection points: 2
#     Edge 29, Type (0, 1), BuildingBlock: ZUJKAS_clean_linker_0, # of connection points: 2
#     Edge 30, Type (0, 1), BuildingBlock: ZUJKAS_clean_linker_0, # of connection points: 2
#     Edge 31, Type (0, 1), BuildingBlock: ZUJKAS_clean_linker_0, # of connection points: 2
#     Edge 32, Type (0, 1), BuildingBlock: ZUJKAS_clean_linker_0, # of connection points: 2
#     Edge 33, Type (0, 1), BuildingBlock: ZUJKAS_clean_linker_0, # of connection points: 2
#     Edge 34, Type (0, 1), BuildingBlock: ZUJKAS_clean_linker_0, # of connection points: 2
#     Edge 35, Type (0, 1), BuildingBlock: ZUJKAS_clean_linker_0, # of connection points: 2
#     Edge 36, Type (0, 1), BuildingBlock: ZUJKAS_clean_linker_0, # of connection points: 2
#     Edge 37, Type (0, 1), BuildingBlock: ZUJKAS_clean_linker_0, # of connection points: 2
# Relax obj value: 0.000
# Max RMSD: 0.023
# Mean RMSD: 0.010
data_MOF--net-pto--node1-KOZSID_clean_sbu_0--node2-ESEHIV_clean_linker_0--edge1-ZUJKAS_clean_linker_0
_symmetry_space_group_name_H-M    P1
_symmetry_Int_Tables_number       1
_symmetry_cell_setting            triclinic
loop_
_symmetry_equiv_pos_as_xyz
'x, y, z'
_cell_length_a     47.32181
_cell_length_b     63.909155
_cell_length_c     55.706776
_cell_angle_alpha  88.09269
_cell_angle_beta   87.362861
_cell_angle_gamma 92.568651
loop_
_atom_site_label
_atom_site_type_symbol
_atom_site_fract_x
_atom_site_fract_y
_atom_site_fract_z
_atom_type_partial_charge
H0 H 0.2711 0.28673 0.27241 0.0
H1 H 0.293 0.22411 0.2919 0.0
H2 H 0.23111 0.25508 0.33525 0.0
C3 C 0.26825 0.27294 0.28429 0.0
C4 C 0.2493 0.27309 0.30445 0.0
C5 C 0.28405 0.25532 0.2796 0.0
C6 C 0.28085 0.23774 0.29545 0.0
C7 C 0.26191 0.23751 0.31566 0.0
C8 C 0.2463 0.25531 0.32007 0.0
H9 H 0.25492 0.73693 0.75166 0.0
H10 H 0.27648 0.80176 0.7336 0.0
H11 H 0.22006 0.76657 0.68996 0.0
C12 C 0.25331 0.75059 0.73981 0.0
C13 C 0.23566 0.74949 0.72025 0.0
C14 C 0.26812 0.76938 0.74476 0.0
C15 C 0.26516 0.78721 0.72982 0.0
C16 C 0.24775 0.78641 0.71006 0.0
C17 C 0.23305 0.76747 0.70545 0.0
H18 H 0.74513 0.79729 0.28955 0.0
H19 H 0.80429 0.76431 0.33135 0.0
H20 H 0.76799 0.73545 0.27048 0.0
C21 C 0.75702 0.78347 0.2929 0.0
C22 C 0.75444 0.76646 0.2777 0.0
C23 C 0.77488 0.7828 0.31234 0.0
C24 C 0.79035 0.76487 0.31646 0.0
C25 C 0.78803 0.74769 0.30144 0.0
C26 C 0.76993 0.74862 0.28215 0.0
H27 H 0.74807 0.23421 0.74984 0.0
H28 H 0.81106 0.26977 0.70562 0.0
H29 H 0.77166 0.29743 0.76732 0.0
C30 C 0.76091 0.24853 0.74613 0.0
C31 C 0.75784 0.26555 0.7612 0.0
C32 C 0.7798 0.25003 0.72588 0.0
C33 C 0.79585 0.26881 0.72081 0.0
C34 C 0.79317 0.28603 0.73569 0.0
C35 C 0.77397 0.28425 0.75577 0.0
H36 H 0.73975 0.80401 0.74064 0.0
H37 H 0.7618 0.74156 0.76075 0.0
H38 H 0.80105 0.77253 0.69721 0.0
C39 C 0.75184 0.79033 0.73718 0.0
C40 C 0.7705 0.79033 0.7168 0.0
C41 C 0.74882 0.77291 0.75328 0.0
C42 C 0.76454 0.75524 0.74869 0.0
C43 C 0.78323 0.75486 0.72839 0.0
C44 C 0.78605 0.77247 0.71252 0.0
H45 H 0.75467 0.22734 0.29868 0.0
H46 H 0.77791 0.29198 0.2809 0.0
H47 H 0.81121 0.26169 0.3429 0.0
C48 C 0.76587 0.24185 0.30277 0.0
C49 C 0.78304 0.24236 0.32269 0.0
C50 C 0.76378 0.25968 0.28762 0.0
C51 C 0.77932 0.27817 0.29253 0.0
C52 C 0.79677 0.27899 0.31226 0.0
C53 C 0.79841 0.26101 0.32728 0.0
H54 H 0.22871 0.26448 0.70077 0.0
H55 H 0.28269 0.22987 0.74589 0.0
H56 H 0.26308 0.29293 0.76262 0.0
C57 C 0.24125 0.2635 0.71652 0.0
C58 C 0.24371 0.28083 0.73131 0.0
C59 C 0.25536 0.24509 0.72154 0.0
C60 C 0.27241 0.24422 0.74151 0.0
C61 C 0.2755 0.26145 0.75637 0.0
C62 C 0.261 0.27966 0.75114 0.0
H63 H 0.22222 0.75884 0.32752 0.0
H64 H 0.25932 0.73128 0.2649 0.0
H65 H 0.2843 0.7943 0.28212 0.0
C66 C 0.23668 0.75999 0.31183 0.0
C67 C 0.25265 0.77878 0.30645 0.0
C68 C 0.23921 0.74267 0.29711 0.0
C69 C 0.25792 0.74434 0.27674 0.0
C70 C 0.27409 0.76297 0.27104 0.0
C71 C 0.27134 0.78008 0.28603 0.0
C72 C 0.06014 0.54092 0.35298 0.0
C73 C 0.06973 0.54732 0.37486 0.0
C74 C 0.05455 0.5356 0.3923 0.0
C75 C 0.03672 0.5227 0.38012 0.0
N76 N 0.03978 0.52533 0.35592 0.0
Co77 Co 0.01796 0.50999 0.33134 0.0
N78 N 0.99396 0.49404 0.35704 0.0
C79 C 0.99493 0.49605 0.3811 0.0
C80 C 0.97599 0.48285 0.3942 0.0
C81 C 0.96226 0.47157 0.37755 0.0
C82 C 0.97377 0.47853 0.35518 0.0
N83 N 0.99648 0.49438 0.30675 0.0
C84 C 0.97632 0.47863 0.30971 0.0
C85 C 0.9679 0.4714 0.28779 0.0
C86 C 0.98336 0.4829 0.27035 0.0
C87 C 0.00036 0.49637 0.28254 0.0
N88 N 0.04163 0.52624 0.30562 0.0
C89 C 0.03987 0.52484 0.28154 0.0
C90 C 0.05793 0.53864 0.26841 0.0
C91 C 0.07188 0.54974 0.28506 0.0
C92 C 0.06154 0.54195 0.3075 0.0
N93 N 0.04576 0.4876 0.33164 0.0
C94 C 0.08275 0.45419 0.33174 0.0
C95 C 0.07599 0.46423 0.31025 0.0
C96 C 0.05764 0.48073 0.31061 0.0
C97 C 0.07113 0.46145 0.35324 0.0
C98 C 0.05295 0.47809 0.35279 0.0
N99 N 0.99017 0.53239 0.33103 0.0
C100 C 0.96188 0.55634 0.30899 0.0
C101 C 0.95329 0.56585 0.33015 0.0
C102 C 0.96301 0.55804 0.35183 0.0
C103 C 0.98117 0.54138 0.35187 0.0
C104 C 0.98014 0.5398 0.30984 0.0
H105 H 0.98783 0.53619 0.36897 0.0
H106 H 0.98613 0.53348 0.29304 0.0
H107 H 0.05311 0.48745 0.29359 0.0
H108 H 0.0448 0.48285 0.36977 0.0
C109 C 0.01538 0.50925 0.39088 0.0
C110 C 0.07035 0.55063 0.33 0.0
C111 C 0.96547 0.46941 0.33279 0.0
C112 C 0.02056 0.51073 0.27178 0.0
H113 H 0.08568 0.55951 0.37788 0.0
H114 H 0.05578 0.53675 0.41157 0.0
H115 H 0.97308 0.48121 0.41357 0.0
H116 H 0.94599 0.45932 0.38142 0.0
H117 H 0.95254 0.45884 0.28467 0.0
H118 H 0.98268 0.48137 0.25109 0.0
H119 H 0.06029 0.54066 0.24904 0.0
H120 H 0.0875 0.56241 0.28109 0.0
H121 H 0.08421 0.45905 0.29308 0.0
H122 H 0.07608 0.45438 0.37039 0.0
H123 H 0.95516 0.56195 0.2917 0.0
H124 H 0.9566 0.5647 0.36875 0.0
C125 C 0.05727 0.55049 0.71972 0.0
C126 C 0.0659 0.55806 0.74142 0.0
C127 C 0.05081 0.54664 0.75915 0.0
C128 C 0.03382 0.5329 0.74733 0.0
N129 N 0.03735 0.53463 0.72308 0.0
Co130 Co 0.01558 0.51862 0.69898 0.0
N131 N 0.99297 0.50211 0.72512 0.0
C132 C 0.99575 0.50336 0.74911 0.0
C133 C 0.97876 0.48911 0.7626 0.0
C134 C 0.96445 0.47786 0.7463 0.0
C135 C 0.9734 0.48607 0.72367 0.0
N136 N 0.99319 0.50314 0.6749 0.0
C137 C 0.97278 0.48762 0.67822 0.0
C138 C 0.96219 0.48153 0.65656 0.0
C139 C 0.97686 0.4933 0.63887 0.0
C140 C 0.99532 0.50597 0.65069 0.0
N141 N 0.03883 0.53462 0.67284 0.0
C142 C 0.03745 0.53236 0.64886 0.0
C143 C 0.05615 0.54546 0.63538 0.0
C144 C 0.07023 0.55689 0.6517 0.0
C145 C 0.05915 0.55011 0.67427 0.0
N146 N 0.04381 0.49653 0.69879 0.0
C147 C 0.08148 0.4636 0.69919 0.0
C148 C 0.06962 0.47022 0.6779 0.0
C149 C 0.05118 0.48669 0.67806 0.0
C150 C 0.07465 0.47402 0.72015 0.0
C151 C 0.05588 0.49023 0.71957 0.0
N152 N 0.98738 0.54073 0.6992 0.0
C153 C 0.96195 0.5672 0.67822 0.0
C154 C 0.95006 0.57392 0.69988 0.0
C155 C 0.95665 0.5634 0.72113 0.0
C156 C 0.97514 0.54699 0.72038 0.0
C157 C 0.9803 0.55067 0.67828 0.0
H158 H 0.97951 0.53984 0.73724 0.0
H159 H 0.98869 0.54637 0.66118 0.0
H160 H 0.04296 0.49106 0.66123 0.0
H161 H 0.05119 0.49721 0.73626 0.0
C162 C 0.01462 0.51802 0.75845 0.0
C163 C 0.068 0.55933 0.69643 0.0
C164 C 0.96349 0.47763 0.70134 0.0
C165 C 0.01657 0.51926 0.63953 0.0
H166 H 0.08129 0.57068 0.74418 0.0
H167 H 0.05193 0.54827 0.77837 0.0
H168 H 0.97728 0.48694 0.78198 0.0
H169 H 0.94949 0.46486 0.75067 0.0
H170 H 0.94594 0.4695 0.65381 0.0
H171 H 0.97488 0.49231 0.61966 0.0
H172 H 0.05864 0.54697 0.61597 0.0
H173 H 0.08644 0.56912 0.64749 0.0
H174 H 0.07462 0.46275 0.66115 0.0
H175 H 0.08313 0.46931 0.73713 0.0
H176 H 0.95712 0.57463 0.66123 0.0
H177 H 0.94819 0.56812 0.73842 0.0
C178 C 0.26055 0.98181 0.55008 0.0
C179 C 0.28646 0.97528 0.55752 0.0
C180 C 0.30688 0.98694 0.5444 0.0
C181 C 0.2924 0.99979 0.52967 0.0
N182 N 0.26389 0.99724 0.53274 0.0
Co183 Co 0.2348 0.01195 0.51415 0.0
N184 N 0.26498 0.02823 0.4939 0.0
C185 C 0.29337 0.02709 0.49521 0.0
C186 C 0.30869 0.04063 0.47948 0.0
C187 C 0.28895 0.05126 0.46756 0.0
C188 C 0.26263 0.04352 0.47675 0.0
N189 N 0.20572 0.0266 0.49551 0.0
C190 C 0.20907 0.04203 0.47819 0.0
C191 C 0.18326 0.04818 0.4702 0.0
C192 C 0.1628 0.0364 0.48316 0.0
C193 C 0.17723 0.02378 0.49822 0.0
N194 N 0.20463 0.99578 0.53447 0.0
C195 C 0.17626 0.99713 0.53335 0.0
C196 C 0.16092 0.98393 0.54944 0.0
C197 C 0.18063 0.97331 0.5614 0.0
C198 C 0.20695 0.98062 0.55177 0.0
N199 N 0.23477 0.03476 0.53753 0.0
C200 C 0.23508 0.06858 0.56876 0.0
C201 C 0.20962 0.05936 0.56166 0.0
C202 C 0.20995 0.04263 0.54614 0.0
C203 C 0.26033 0.06029 0.56037 0.0
C204 C 0.25969 0.0435 0.545 0.0
N205 N 0.23486 0.98914 0.49077 0.0
C206 C 0.20978 0.96281 0.46857 0.0
C207 C 0.23526 0.95514 0.45972 0.0
C208 C 0.26049 0.96513 0.46622 0.0
C209 C 0.2598 0.98192 0.48158 0.0
C210 C 0.21006 0.9797 0.4839 0.0
H211 H 0.27978 0.98866 0.48589 0.0
H212 H 0.18995 0.98466 0.49019 0.0
H213 H 0.18988 0.03651 0.54113 0.0
H214 H 0.27967 0.03798 0.53929 0.0
C215 C 0.30499 0.01374 0.51208 0.0
C216 C 0.23344 0.97221 0.55919 0.0
C217 C 0.2361 0.05183 0.46935 0.0
C218 C 0.16464 0.01014 0.51612 0.0
H219 H 0.29028 0.96304 0.57071 0.0
H220 H 0.32958 0.98581 0.5451 0.0
H221 H 0.33149 0.04282 0.47731 0.0
H222 H 0.29342 0.0636 0.45396 0.0
H223 H 0.17963 0.06021 0.4567 0.0
H224 H 0.14009 0.03731 0.48217 0.0
H225 H 0.13811 0.98195 0.55182 0.0
H226 H 0.17614 0.96128 0.57537 0.0
H227 H 0.18949 0.06532 0.56759 0.0
H228 H 0.2806 0.06666 0.56573 0.0
H229 H 0.18964 0.95555 0.46418 0.0
H230 H 0.2808 0.96009 0.45943 0.0
C231 C 0.46802 0.79305 0.04609 0.0
C232 C 0.45865 0.81228 0.05318 0.0
C233 C 0.47427 0.82726 0.03977 0.0
C234 C 0.4922 0.81639 0.02533 0.0
N235 N 0.48886 0.79533 0.02855 0.0
Co236 Co 0.51084 0.77361 0.01153 0.0
N237 N 0.53538 0.79573 0.99329 0.0
C238 C 0.53473 0.81672 0.99551 0.0
C239 C 0.55425 0.82792 0.98069 0.0
C240 C 0.56806 0.81323 0.96807 0.0
C241 C 0.55598 0.79385 0.97587 0.0
N242 N 0.53233 0.7519 0.99404 0.0
C243 C 0.55274 0.7542 0.97612 0.0
C244 C 0.56083 0.73495 0.96795 0.0
C245 C 0.54496 0.71996 0.98111 0.0
C246 C 0.52803 0.73083 0.9964 0.0
N247 N 0.48677 0.75149 0.03023 0.0
C248 C 0.48832 0.73047 0.02889 0.0
C249 C 0.46972 0.71927 0.04453 0.0
C250 C 0.45569 0.73401 0.0569 0.0
C251 C 0.46665 0.75341 0.04804 0.0
N252 N 0.48349 0.77385 0.98552 0.0
C253 C 0.44698 0.77401 0.94687 0.0
C254 C 0.45312 0.75529 0.95878 0.0
C255 C 0.47123 0.75557 0.97787 0.0
C256 C 0.45899 0.79269 0.95499 0.0
C257 C 0.47695 0.79226 0.9742 0.0
N258 N 0.5382 0.77337 0.03754 0.0
C259 C 0.56655 0.75426 0.06505 0.0
C260 C 0.57486 0.77271 0.07609 0.0
C261 C 0.56489 0.79155 0.06714 0.0
C262 C 0.54685 0.79153 0.04799 0.0
C263 C 0.54837 0.75493 0.04602 0.0
H264 H 0.53992 0.80639 0.04218 0.0
H265 H 0.54271 0.74029 0.0386 0.0
H266 H 0.47512 0.74076 0.98602 0.0
H267 H 0.48555 0.80702 0.97935 0.0
C268 C 0.51404 0.8255 0.0102 0.0
C269 C 0.4576 0.77315 0.05748 0.0
C270 C 0.5642 0.7742 0.96563 0.0
C271 C 0.50761 0.72171 0.01287 0.0
H272 H 0.44271 0.81521 0.06706 0.0
H273 H 0.47332 0.84409 0.04098 0.0
H274 H 0.55752 0.84478 0.97882 0.0
H275 H 0.58478 0.81642 0.95435 0.0
H276 H 0.57624 0.732 0.95366 0.0
H277 H 0.54535 0.70315 0.97945 0.0
H278 H 0.46692 0.70241 0.04685 0.0
H279 H 0.43942 0.73085 0.07102 0.0
H280 H 0.44391 0.74042 0.9535 0.0
H281 H 0.4551 0.80762 0.94626 0.0
H282 H 0.57409 0.73928 0.07097 0.0
H283 H 0.57045 0.80629 0.07518 0.0
C284 C 0.82023 0.98621 0.55445 0.0
C285 C 0.84621 0.98023 0.56223 0.0
C286 C 0.86643 0.99221 0.54923 0.0
C287 C 0.85169 0.0048 0.53436 0.0
N288 N 0.82324 0.00173 0.53721 0.0
Co289 Co 0.79378 0.01642 0.51904 0.0
N290 N 0.82357 0.03281 0.49856 0.0
C291 C 0.85197 0.03131 0.49913 0.0
C292 C 0.86702 0.04457 0.48291 0.0
C293 C 0.84708 0.05535 0.4714 0.0
C294 C 0.82093 0.04808 0.48143 0.0
N295 N 0.76432 0.03139 0.50116 0.0
C296 C 0.76733 0.04707 0.4841 0.0
C297 C 0.74126 0.05385 0.47734 0.0
C298 C 0.72108 0.04206 0.49058 0.0
C299 C 0.73585 0.02891 0.50472 0.0
N300 N 0.76398 0.99974 0.53925 0.0
C301 C 0.73556 0.00066 0.53809 0.0
C302 C 0.72053 0.98676 0.55361 0.0
C303 C 0.74052 0.9761 0.56519 0.0
C304 C 0.76668 0.9842 0.55602 0.0
N305 N 0.794 0.03892 0.54281 0.0
C306 C 0.79405 0.0724 0.57459 0.0
C307 C 0.76874 0.0622 0.56861 0.0
C308 C 0.7692 0.04564 0.55291 0.0
C309 C 0.81938 0.06525 0.56473 0.0
C310 C 0.81888 0.04863 0.54906 0.0
N311 N 0.79355 0.99392 0.49527 0.0
C312 C 0.76781 0.96961 0.47097 0.0
C313 C 0.79284 0.96049 0.46351 0.0
C314 C 0.8183 0.96862 0.47185 0.0
C315 C 0.81819 0.98528 0.48746 0.0
C316 C 0.76864 0.98612 0.48675 0.0
H317 H 0.83829 0.99078 0.49309 0.0
H318 H 0.74878 0.99212 0.49203 0.0
H319 H 0.74917 0.03871 0.54898 0.0
H320 H 0.83889 0.04404 0.5421 0.0
C321 C 0.86393 0.01838 0.51625 0.0
C322 C 0.7934 0.97609 0.56324 0.0
C323 C 0.79429 0.0566 0.47453 0.0
C324 C 0.72362 0.01444 0.5219 0.0
H325 H 0.85012 0.96812 0.57557 0.0
H326 H 0.88917 0.99141 0.55001 0.0
H327 H 0.88979 0.04652 0.48018 0.0
H328 H 0.85132 0.06745 0.45749 0.0
H329 H 0.73718 0.06628 0.46449 0.0
H330 H 0.69835 0.04322 0.49028 0.0
H331 H 0.69776 0.98442 0.55594 0.0
H332 H 0.73634 0.96357 0.57861 0.0
H333 H 0.7485 0.06725 0.57556 0.0
H334 H 0.83961 0.07239 0.56912 0.0
H335 H 0.74752 0.96372 0.46513 0.0
H336 H 0.83829 0.96224 0.46627 0.0
C337 C 0.48008 0.27293 0.0567 0.0
C338 C 0.47233 0.29222 0.06497 0.0
C339 C 0.48814 0.30713 0.05164 0.0
C340 C 0.50472 0.29617 0.03618 0.0
N341 N 0.50025 0.27512 0.03858 0.0
Co342 Co 0.5213 0.2533 0.0209 0.0
N343 N 0.54507 0.27531 0.00176 0.0
C344 C 0.54357 0.29635 0.00297 0.0
C345 C 0.56189 0.30745 0.98702 0.0
C346 C 0.57568 0.29265 0.97458 0.0
C347 C 0.56487 0.27329 0.98372 0.0
N348 N 0.54292 0.23148 0.00373 0.0
C349 C 0.56353 0.23365 0.98598 0.0
C350 C 0.57278 0.21438 0.97895 0.0
C351 C 0.55736 0.19947 0.99264 0.0
C352 C 0.53964 0.21043 0.00718 0.0
N353 N 0.49695 0.23129 0.0395 0.0
C354 C 0.49745 0.21028 0.03733 0.0
C355 C 0.47804 0.19917 0.05234 0.0
C356 C 0.46444 0.21394 0.065 0.0
C357 C 0.47653 0.23328 0.05705 0.0
N358 N 0.49344 0.25349 0.99529 0.0
C359 C 0.45595 0.25403 0.95739 0.0
C360 C 0.4664 0.23525 0.96594 0.0
C361 C 0.48483 0.23532 0.98482 0.0
C362 C 0.46419 0.27249 0.9684 0.0
C363 C 0.48283 0.27188 0.98711 0.0
N364 N 0.54917 0.25311 0.04651 0.0
C365 C 0.57381 0.23438 0.07704 0.0
C366 C 0.58666 0.25302 0.08443 0.0
C367 C 0.58082 0.27167 0.07224 0.0
C368 C 0.56215 0.27136 0.05354 0.0
C369 C 0.55543 0.23477 0.05813 0.0
H370 H 0.55834 0.28614 0.04526 0.0
H371 H 0.54641 0.22002 0.05337 0.0
H372 H 0.49196 0.22048 0.99049 0.0
H373 H 0.4886 0.28653 0.99446 0.0
C374 C 0.52476 0.30519 0.01932 0.0
C375 C 0.46844 0.25299 0.06722 0.0
C376 C 0.5738 0.25349 0.97436 0.0
C377 C 0.51795 0.20142 0.02253 0.0
H378 H 0.45713 0.29526 0.0794 0.0
H379 H 0.48789 0.32395 0.05327 0.0
H380 H 0.5647 0.32431 0.98459 0.0
H381 H 0.59172 0.29573 0.96026 0.0
H382 H 0.58853 0.21137 0.96493 0.0
H383 H 0.55827 0.18264 0.99154 0.0
H384 H 0.47471 0.18233 0.05429 0.0
H385 H 0.44783 0.21082 0.07884 0.0
H386 H 0.46027 0.22049 0.9582 0.0
H387 H 0.45681 0.28747 0.96226 0.0
H388 H 0.57803 0.21949 0.08571 0.0
H389 H 0.5901 0.28654 0.07745 0.0
H390 H 0.22203 0.2966 0.27164 0.0
H391 H 0.19474 0.32757 0.27877 0.0
H392 H 0.20993 0.32229 0.35441 0.0
H393 H 0.23797 0.29157 0.34735 0.0
H394 H 0.14594 0.33063 0.309 0.0
H395 H 0.23446 0.38369 0.33578 0.0
H396 H 0.24024 0.35956 0.32071 0.0
H397 H 0.23034 0.359 0.35225 0.0
C398 C 0.21987 0.30217 0.28976 0.0
C399 C 0.23234 0.29172 0.30891 0.0
C400 C 0.20411 0.31978 0.29382 0.0
C401 C 0.20063 0.32736 0.31705 0.0
C402 C 0.21276 0.31687 0.33628 0.0
H403 H 0.07573 0.41763 0.35883 0.0
H404 H 0.10468 0.38687 0.3569 0.0
C405 C 0.22851 0.29921 0.33225 0.0
C406 C 0.18382 0.34604 0.32107 0.0
H407 H 0.18845 0.39675 0.33856 0.0
C408 C 0.15518 0.34507 0.31553 0.0
C409 C 0.19607 0.36489 0.32937 0.0
C410 C 0.22702 0.36702 0.33471 0.0
C411 C 0.1384 0.36249 0.31807 0.0
C412 C 0.15053 0.38126 0.32666 0.0
C413 C 0.17919 0.38225 0.33218 0.0
C414 C 0.13405 0.4003 0.32905 0.0
C415 C 0.10801 0.36084 0.31093 0.0
C416 C 0.14154 0.41825 0.31458 0.0
C417 C 0.12519 0.43589 0.31575 0.0
C418 C 0.10114 0.43595 0.33156 0.0
C419 C 0.09422 0.41814 0.34658 0.0
C420 C 0.11056 0.40048 0.34534 0.0
H421 H 0.10378 0.34699 0.29987 0.0
H422 H 0.09383 0.35926 0.32738 0.0
H423 H 0.10253 0.37516 0.30063 0.0
H424 H 0.15971 0.41844 0.302 0.0
H425 H 0.13133 0.44946 0.30422 0.0
H426 H 0.18048 0.74436 0.70802 0.0
H427 H 0.15379 0.71147 0.70163 0.0
H428 H 0.22791 0.67689 0.71532 0.0
H429 H 0.25478 0.7097 0.72167 0.0
H430 H 0.16403 0.6798 0.66861 0.0
H431 H 0.16748 0.64979 0.76315 0.0
H432 H 0.1764 0.67678 0.75427 0.0
H433 H 0.20146 0.65696 0.74882 0.0
C434 C 0.19117 0.72976 0.70946 0.0
C435 C 0.2197 0.72961 0.71552 0.0
C436 C 0.17587 0.711 0.70588 0.0
C437 C 0.18876 0.69175 0.70838 0.0
C438 C 0.2174 0.69156 0.71383 0.0
H439 H 0.12443 0.56222 0.70373 0.0
H440 H 0.15496 0.59434 0.7046 0.0
C441 C 0.23271 0.71031 0.71746 0.0
C442 C 0.17214 0.67188 0.70545 0.0
H443 H 0.14767 0.62676 0.73545 0.0
C444 C 0.16041 0.66819 0.6832 0.0
C445 C 0.1675 0.65678 0.72454 0.0
C446 C 0.17863 0.66028 0.74912 0.0
C447 C 0.14437 0.64966 0.67945 0.0
C448 C 0.13958 0.63463 0.6986 0.0
C449 C 0.15148 0.63828 0.72078 0.0
C450 C 0.12168 0.61524 0.69632 0.0
C451 C 0.13308 0.64619 0.65493 0.0
C452 C 0.09294 0.61637 0.69137 0.0
C453 C 0.07565 0.5981 0.69081 0.0
C454 C 0.08684 0.5785 0.69538 0.0
C455 C 0.11557 0.57728 0.70007 0.0
C456 C 0.13289 0.59554 0.70059 0.0
H457 H 0.1451 0.65601 0.64075 0.0
H458 H 0.13398 0.62949 0.65019 0.0
H459 H 0.11064 0.65055 0.65502 0.0
H460 H 0.08371 0.63141 0.68857 0.0
H461 H 0.05342 0.59926 0.68736 0.0
H462 H 0.81724 0.72557 0.2681 0.0
H463 H 0.84418 0.69432 0.27497 0.0
H464 H 0.8243 0.69636 0.35116 0.0
H465 H 0.79667 0.72735 0.34438 0.0
H466 H 0.89124 0.6901 0.30378 0.0
H467 H 0.80097 0.63566 0.33464 0.0
H468 H 0.79615 0.66041 0.31912 0.0
H469 H 0.80382 0.65969 0.3504 0.0
C470 C 0.81831 0.71923 0.28629 0.0
C471 C 0.80467 0.72886 0.30569 0.0
C472 C 0.83386 0.70146 0.2902 0.0
C473 C 0.83593 0.6929 0.31352 0.0
C474 C 0.82259 0.70255 0.33297 0.0
H475 H 0.95811 0.60177 0.35539 0.0
H476 H 0.92924 0.63253 0.35267 0.0
C477 C 0.80706 0.72036 0.32909 0.0
C478 C 0.85253 0.67408 0.31743 0.0
H479 H 0.84693 0.6227 0.33666 0.0
C480 C 0.8816 0.67537 0.31102 0.0
C481 C 0.83978 0.65486 0.32664 0.0
C482 C 0.80842 0.6524 0.33293 0.0
C483 C 0.89833 0.65793 0.31365 0.0
C484 C 0.88567 0.63879 0.32323 0.0
C485 C 0.85658 0.63746 0.32954 0.0
C486 C 0.90215 0.61977 0.32598 0.0
C487 C 0.92926 0.65998 0.30566 0.0
C488 C 0.89591 0.60221 0.31241 0.0
C489 C 0.91221 0.58456 0.31404 0.0
C490 C 0.93496 0.58412 0.32942 0.0
C491 C 0.94063 0.60155 0.3435 0.0
C492 C 0.92435 0.61921 0.3418 0.0
H493 H 0.93421 0.6742 0.29395 0.0
H494 H 0.94223 0.66111 0.3217 0.0
H495 H 0.93564 0.64602 0.29575 0.0
H496 H 0.87873 0.6023 0.3002 0.0
H497 H 0.90704 0.57127 0.30323 0.0
H498 H 0.80758 0.30539 0.69181 0.0
H499 H 0.8375 0.33724 0.68351 0.0
H500 H 0.84713 0.34375 0.75954 0.0
H501 H 0.81864 0.31137 0.76794 0.0
H502 H 0.83055 0.37694 0.69635 0.0
H503 H 0.92834 0.3485 0.73447 0.0
H504 H 0.8983 0.33119 0.72913 0.0
H505 H 0.89876 0.34628 0.75585 0.0
C506 C 0.81644 0.3134 0.70676 0.0
C507 C 0.8108 0.3057 0.73054 0.0
C508 C 0.83335 0.33171 0.70198 0.0
C509 C 0.84498 0.34268 0.72087 0.0
C510 C 0.83895 0.33529 0.74464 0.0
H511 H 0.90874 0.47193 0.71863 0.0
H512 H 0.87973 0.43906 0.72177 0.0
C513 C 0.82226 0.31691 0.74942 0.0
C514 C 0.86295 0.3621 0.71581 0.0
H515 H 0.92715 0.38544 0.72669 0.0
C516 C 0.85177 0.37875 0.70281 0.0
C517 C 0.89083 0.36432 0.72385 0.0
C518 C 0.90488 0.34654 0.73637 0.0
C519 C 0.8674 0.39778 0.69823 0.0
C520 C 0.89466 0.4004 0.70745 0.0
C521 C 0.90612 0.38353 0.71986 0.0
C522 C 0.91166 0.42051 0.7047 0.0
C523 C 0.85466 0.41475 0.68329 0.0
C524 C 0.93945 0.42093 0.6946 0.0
C525 C 0.95614 0.43957 0.69329 0.0
C526 C 0.9453 0.45806 0.70204 0.0
C527 C 0.91742 0.45777 0.71179 0.0
C528 C 0.90082 0.43909 0.71336 0.0
H529 H 0.8385 0.40813 0.67144 0.0
H530 H 0.84399 0.4257 0.69541 0.0
H531 H 0.87113 0.42381 0.67194 0.0
H532 H 0.9483 0.40679 0.68791 0.0
H533 H 0.97764 0.43953 0.6857 0.0
H534 H 0.25647 0.23549 0.36494 0.0
H535 H 0.25086 0.20403 0.3914 0.0
H536 H 0.25327 0.16522 0.32957 0.0
H537 H 0.25838 0.19649 0.303 0.0
H538 H 0.20756 0.17044 0.39162 0.0
H539 H 0.31586 0.14312 0.37239 0.0
H540 H 0.30629 0.16964 0.36562 0.0
H541 H 0.29619 0.14889 0.34633 0.0
C542 C 0.25557 0.22027 0.35696 0.0
C543 C 0.25811 0.21851 0.33185 0.0
C544 C 0.25249 0.20233 0.37211 0.0
C545 C 0.25209 0.18234 0.36242 0.0
C546 C 0.25412 0.18052 0.3374 0.0
H547 H 0.24235 0.05456 0.4206 0.0
H548 H 0.24477 0.08655 0.39465 0.0
C549 C 0.25711 0.19841 0.32225 0.0
C550 C 0.24939 0.16334 0.37843 0.0
H551 H 0.28396 0.11988 0.39528 0.0
C552 C 0.22428 0.15941 0.39255 0.0
C553 C 0.27124 0.14901 0.3795 0.0
C554 C 0.29904 0.15288 0.36532 0.0
C555 C 0.22018 0.14122 0.40738 0.0
C556 C 0.24204 0.12686 0.40843 0.0
C557 C 0.2672 0.13088 0.39438 0.0
C558 C 0.23938 0.10757 0.42404 0.0
C559 C 0.19224 0.13728 0.42132 0.0
C560 C 0.2357 0.10883 0.44911 0.0
C561 C 0.23423 0.09063 0.46381 0.0
C562 C 0.23666 0.07099 0.45364 0.0
C563 C 0.24034 0.06965 0.42865 0.0
C564 C 0.24176 0.08784 0.41393 0.0
H565 H 0.17531 0.14658 0.41365 0.0
H566 H 0.18539 0.12042 0.42158 0.0
H567 H 0.19461 0.14192 0.44017 0.0
H568 H 0.23446 0.12391 0.45733 0.0
H569 H 0.23158 0.09186 0.48313 0.0
H570 H 0.30614 0.74097 0.75881 0.0
H571 H 0.33615 0.74246 0.79344 0.0
H572 H 0.30226 0.80161 0.81207 0.0
H573 H 0.27179 0.80007 0.77774 0.0
H574 H 0.37756 0.77517 0.80355 0.0
H575 H 0.29143 0.76454 0.87483 0.0
H576 H 0.28644 0.75802 0.84397 0.0
H577 H 0.28691 0.78489 0.85244 0.0
C578 C 0.30489 0.7542 0.77042 0.0
C579 C 0.28652 0.77037 0.76561 0.0
C580 C 0.32214 0.75507 0.79009 0.0
C581 C 0.32115 0.77201 0.80542 0.0
C582 C 0.30303 0.78826 0.80061 0.0
H583 H 0.40658 0.80179 0.93576 0.0
H584 H 0.37698 0.80197 0.90089 0.0
C585 C 0.28585 0.78745 0.78088 0.0
C586 C 0.33943 0.77282 0.82626 0.0
H587 H 0.33768 0.77184 0.88761 0.0
C588 C 0.3689 0.7744 0.82195 0.0
C589 C 0.32798 0.7719 0.85018 0.0
C590 C 0.29647 0.76958 0.85577 0.0
C591 C 0.3873 0.77534 0.84098 0.0
C592 C 0.37587 0.77418 0.86494 0.0
C593 C 0.34637 0.77272 0.86923 0.0
C594 C 0.39416 0.77419 0.88584 0.0
C595 C 0.41876 0.77798 0.83523 0.0
C596 C 0.4134 0.75838 0.88909 0.0
C597 C 0.43052 0.75833 0.90886 0.0
C598 C 0.42855 0.774 0.92594 0.0
C599 C 0.40896 0.78968 0.92278 0.0
C600 C 0.39189 0.78973 0.90295 0.0
H601 H 0.42346 0.78454 0.81668 0.0
H602 H 0.42913 0.78843 0.84807 0.0
H603 H 0.42826 0.76245 0.83658 0.0
H604 H 0.4151 0.74599 0.87637 0.0
H605 H 0.44554 0.74614 0.9106 0.0
H606 H 0.73228 0.80524 0.33186 0.0
H607 H 0.73658 0.83561 0.35736 0.0
H608 H 0.82736 0.83147 0.35452 0.0
H609 H 0.82327 0.80123 0.32874 0.0
H610 H 0.76384 0.83761 0.40337 0.0
H611 H 0.81255 0.89338 0.3328 0.0
H612 H 0.79357 0.86938 0.32571 0.0
H613 H 0.82887 0.86862 0.33608 0.0
C614 C 0.75316 0.81089 0.33653 0.0
C615 C 0.77745 0.80092 0.32822 0.0
C616 C 0.75557 0.82815 0.35118 0.0
C617 C 0.78229 0.83586 0.35758 0.0
C618 C 0.80657 0.82585 0.34953 0.0
H619 H 0.82189 0.92461 0.46761 0.0
H620 H 0.81984 0.89429 0.44186 0.0
C621 C 0.80418 0.80851 0.33499 0.0
C622 C 0.78467 0.8543 0.37284 0.0
H623 H 0.80834 0.90559 0.37237 0.0
C624 C 0.7736 0.85248 0.39665 0.0
C625 C 0.79719 0.87367 0.36386 0.0
C626 C 0.80857 0.87656 0.33817 0.0
C627 C 0.77497 0.86953 0.41185 0.0
C628 C 0.78784 0.88881 0.40298 0.0
C629 C 0.79867 0.8907 0.37911 0.0
C630 C 0.78973 0.90733 0.41815 0.0
C631 C 0.76227 0.86696 0.43718 0.0
C632 C 0.77386 0.92481 0.41301 0.0
C633 C 0.77499 0.94214 0.42764 0.0
C634 C 0.79227 0.94237 0.44752 0.0
C635 C 0.80856 0.92496 0.45232 0.0
C636 C 0.80726 0.90758 0.43777 0.0
H637 H 0.74862 0.85239 0.43982 0.0
H638 H 0.77955 0.86625 0.44995 0.0
H639 H 0.7495 0.88057 0.44171 0.0
H640 H 0.76033 0.92491 0.39784 0.0
H641 H 0.76246 0.95541 0.42334 0.0
H642 H 0.74939 0.23245 0.79359 0.0
H643 H 0.71716 0.22973 0.82928 0.0
H644 H 0.68952 0.29186 0.81347 0.0
H645 H 0.72146 0.29465 0.77758 0.0
H646 H 0.70378 0.28495 0.86153 0.0
H647 H 0.63014 0.22193 0.8317 0.0
H648 H 0.6669 0.21596 0.82974 0.0
H649 H 0.65456 0.23684 0.81114 0.0
C650 C 0.73617 0.24543 0.79751 0.0
C651 C 0.73795 0.26375 0.78269 0.0
C652 C 0.71778 0.24384 0.81792 0.0
C653 C 0.70073 0.26049 0.82384 0.0
C654 C 0.70249 0.27882 0.80917 0.0
H655 H 0.55913 0.26102 0.9285 0.0
H656 H 0.59025 0.26269 0.89184 0.0
C657 C 0.72085 0.28042 0.78875 0.0
C658 C 0.68166 0.25907 0.84573 0.0
H659 H 0.6245 0.23149 0.87241 0.0
C660 C 0.68641 0.2733 0.86392 0.0
C661 C 0.65887 0.24398 0.84863 0.0
C662 C 0.65206 0.2289 0.82921 0.0
C663 C 0.66917 0.27267 0.88514 0.0
C664 C 0.64685 0.25722 0.88833 0.0
C665 C 0.64183 0.24318 0.86999 0.0
C666 C 0.62809 0.25568 0.91039 0.0
C667 C 0.67468 0.28875 0.9038 0.0
C668 C 0.63903 0.25088 0.93283 0.0
C669 C 0.62132 0.24993 0.95366 0.0
C670 C 0.59245 0.25363 0.95225 0.0
C671 C 0.58139 0.25811 0.92982 0.0
C672 C 0.59908 0.25904 0.909 0.0
H673 H 0.68802 0.30237 0.89625 0.0
H674 H 0.65449 0.29452 0.91142 0.0
H675 H 0.68597 0.28144 0.91871 0.0
H676 H 0.66126 0.24792 0.93421 0.0
H677 H 0.63012 0.24646 0.97088 0.0
H678 H 0.19975 0.8008 0.69073 0.0
H679 H 0.19565 0.83169 0.66416 0.0
H680 H 0.28523 0.84612 0.66773 0.0
H681 H 0.28973 0.81487 0.6935 0.0
H682 H 0.20788 0.87331 0.6726 0.0
H683 H 0.27439 0.84742 0.5956 0.0
H684 H 0.2613 0.82975 0.61997 0.0
H685 H 0.29195 0.84686 0.62348 0.0
C686 C 0.21865 0.81038 0.68559 0.0
C687 C 0.2451 0.8053 0.69414 0.0
C688 C 0.21623 0.8281 0.67055 0.0
C689 C 0.2402 0.84101 0.66369 0.0
C690 C 0.26655 0.83615 0.67243 0.0
H691 H 0.24711 0.96893 0.6061 0.0
H692 H 0.24732 0.93687 0.63166 0.0
C693 C 0.26901 0.81842 0.68741 0.0
C694 C 0.23758 0.85982 0.6478 0.0
H695 H 0.26243 0.88324 0.59454 0.0
C696 C 0.21967 0.87545 0.65546 0.0
C697 C 0.25266 0.86242 0.62529 0.0
C698 C 0.27094 0.84564 0.61545 0.0
C699 C 0.21696 0.89388 0.64148 0.0
C700 C 0.233 0.89687 0.61947 0.0
C701 C 0.25038 0.88101 0.61154 0.0
C702 C 0.23218 0.91635 0.60436 0.0
C703 C 0.19669 0.90983 0.65026 0.0
C704 C 0.22419 0.91539 0.58044 0.0
C705 C 0.2244 0.9336 0.56584 0.0
C706 C 0.23274 0.953 0.57494 0.0
C707 C 0.24059 0.95405 0.59885 0.0
C708 C 0.24049 0.93582 0.61343 0.0
H709 H 0.18041 0.9027 0.66345 0.0
H710 H 0.20866 0.92237 0.65933 0.0
H711 H 0.18582 0.91715 0.63509 0.0
H712 H 0.21783 0.90052 0.57307 0.0
H713 H 0.21828 0.93256 0.5474 0.0
H714 H 0.71642 0.73626 0.26382 0.0
H715 H 0.68613 0.73776 0.22931 0.0
H716 H 0.71976 0.80029 0.21064 0.0
H717 H 0.75035 0.79885 0.24492 0.0
H718 H 0.64467 0.76987 0.21931 0.0
H719 H 0.73042 0.76596 0.14805 0.0
H720 H 0.73482 0.75758 0.17889 0.0
H721 H 0.73587 0.785 0.17066 0.0
C722 C 0.7175 0.75027 0.25225 0.0
C723 C 0.7358 0.76742 0.25701 0.0
C724 C 0.70011 0.75113 0.23266 0.0
C725 C 0.70097 0.76905 0.21736 0.0
C726 C 0.71906 0.78625 0.22212 0.0
H727 H 0.61793 0.80082 0.08609 0.0
H728 H 0.64754 0.8004 0.12091 0.0
C729 C 0.73631 0.78545 0.2418 0.0
C730 C 0.68266 0.76985 0.19657 0.0
H731 H 0.68435 0.77137 0.13522 0.0
C732 C 0.65326 0.77015 0.2009 0.0
C733 C 0.69407 0.77033 0.17265 0.0
C734 C 0.72551 0.76956 0.16713 0.0
C735 C 0.63488 0.7712 0.18187 0.0
C736 C 0.64624 0.77141 0.15789 0.0
C737 C 0.67569 0.77119 0.1536 0.0
C738 C 0.62793 0.77173 0.13698 0.0
C739 C 0.60356 0.77256 0.18764 0.0
C740 C 0.6073 0.75562 0.1343 0.0
C741 C 0.5901 0.75595 0.11459 0.0
C742 C 0.59341 0.77227 0.09695 0.0
C743 C 0.61445 0.78821 0.09951 0.0
C744 C 0.63155 0.78792 0.11932 0.0
H745 H 0.59933 0.77838 0.20598 0.0
H746 H 0.59374 0.78308 0.17447 0.0
H747 H 0.59312 0.75672 0.18694 0.0
H748 H 0.60455 0.74273 0.14744 0.0
H749 H 0.57396 0.74353 0.11335 0.0
H750 H 0.78456 0.20885 0.73934 0.0
H751 H 0.78851 0.17893 0.71321 0.0
H752 H 0.78585 0.22034 0.65073 0.0
H753 H 0.78155 0.25034 0.67675 0.0
H754 H 0.74772 0.18324 0.65192 0.0
H755 H 0.859 0.1653 0.66925 0.0
H756 H 0.83618 0.16828 0.69551 0.0
H757 H 0.84462 0.1904 0.67534 0.0
C758 C 0.78476 0.21157 0.72003 0.0
C759 C 0.78278 0.23193 0.71007 0.0
C760 C 0.78725 0.19451 0.70515 0.0
C761 C 0.78777 0.1975 0.68008 0.0
C762 C 0.78567 0.21777 0.67006 0.0
H763 H 0.82742 0.10862 0.57019 0.0
H764 H 0.8261 0.13896 0.59582 0.0
C765 C 0.78336 0.23487 0.68492 0.0
C766 C 0.78964 0.17939 0.66432 0.0
H767 H 0.83294 0.14079 0.64687 0.0
C768 C 0.76635 0.17397 0.65074 0.0
C769 C 0.8141 0.1675 0.66271 0.0
C770 C 0.84005 0.17318 0.6763 0.0
C771 C 0.76668 0.15668 0.63586 0.0
C772 C 0.79085 0.14445 0.63474 0.0
C773 C 0.81436 0.15011 0.64796 0.0
C774 C 0.79215 0.12578 0.61977 0.0
C775 C 0.74129 0.15175 0.62126 0.0
C776 C 0.77385 0.1082 0.62506 0.0
C777 C 0.77468 0.09077 0.61059 0.0
C778 C 0.79391 0.09059 0.59056 0.0
C779 C 0.81258 0.10813 0.58561 0.0
C780 C 0.81176 0.12553 0.60015 0.0
H781 H 0.72735 0.16523 0.61993 0.0
H782 H 0.748 0.14731 0.60283 0.0
H783 H 0.72869 0.13829 0.63 0.0
H784 H 0.75892 0.10796 0.64042 0.0
H785 H 0.76038 0.07739 0.61518 0.0
H786 H 0.27428 0.26901 0.23385 0.0
H787 H 0.30605 0.26813 0.198 0.0
H788 H 0.36957 0.24053 0.24049 0.0
H789 H 0.33791 0.24133 0.27642 0.0
H790 H 0.35959 0.28686 0.18906 0.0
H791 H 0.36291 0.20028 0.18551 0.0
H792 H 0.33706 0.21301 0.20409 0.0
H793 H 0.37257 0.21066 0.21371 0.0
C794 C 0.29508 0.26286 0.23558 0.0
C795 C 0.30355 0.25515 0.25794 0.0
C796 C 0.31314 0.26228 0.21508 0.0
C797 C 0.33996 0.25394 0.21651 0.0
C798 C 0.34869 0.24656 0.23887 0.0
H799 H 0.4803 0.24078 0.11268 0.0
H800 H 0.44902 0.2411 0.14916 0.0
C801 C 0.3306 0.24706 0.25938 0.0
C802 C 0.35895 0.25334 0.19466 0.0
H803 H 0.39447 0.22025 0.1584 0.0
C804 C 0.36713 0.2723 0.18229 0.0
C805 C 0.36877 0.2343 0.1859 0.0
C806 C 0.35971 0.21338 0.19783 0.0
C807 C 0.38519 0.27277 0.16156 0.0
C808 C 0.39497 0.25374 0.15282 0.0
C809 C 0.38691 0.23479 0.16521 0.0
C810 C 0.41357 0.25321 0.13076 0.0
C811 C 0.39407 0.29364 0.14941 0.0
C812 C 0.40375 0.25955 0.10838 0.0
C813 C 0.4215 0.2593 0.08765 0.0
C814 C 0.44927 0.25271 0.08906 0.0
C815 C 0.45893 0.24599 0.11134 0.0
C816 C 0.44115 0.24617 0.13206 0.0
H817 H 0.39025 0.30688 0.1614 0.0
H818 H 0.41686 0.29416 0.14359 0.0
H819 H 0.38165 0.29594 0.13319 0.0
H820 H 0.38236 0.26467 0.10696 0.0
H821 H 0.41368 0.26436 0.07053 0.0
H822 H 0.79406 0.73598 0.68565 0.0
H823 H 0.82202 0.70522 0.67872 0.0
H824 H 0.83799 0.70055 0.75425 0.0
H825 H 0.8108 0.73159 0.76123 0.0
H826 H 0.88642 0.69725 0.72399 0.0
H827 H 0.79789 0.64396 0.69781 0.0
H828 H 0.80186 0.66851 0.68104 0.0
H829 H 0.79214 0.66822 0.71261 0.0
C830 C 0.80367 0.72847 0.70075 0.0
C831 C 0.80009 0.73617 0.72402 0.0
C832 C 0.81937 0.71078 0.6968 0.0
C833 C 0.8317 0.70044 0.71603 0.0
C834 C 0.82845 0.70822 0.7392 0.0
H835 H 0.90141 0.57819 0.72753 0.0
H836 H 0.87291 0.60911 0.73034 0.0
C837 C 0.81276 0.72587 0.74318 0.0
C838 C 0.84852 0.68176 0.71207 0.0
H839 H 0.844 0.63106 0.69456 0.0
C840 C 0.87719 0.68279 0.71751 0.0
C841 C 0.83629 0.66287 0.70384 0.0
C842 C 0.8053 0.66065 0.69866 0.0
C843 C 0.89404 0.66541 0.71491 0.0
C844 C 0.88194 0.64662 0.70631 0.0
C845 C 0.85324 0.64556 0.70094 0.0
C846 C 0.89855 0.62767 0.70364 0.0
C847 C 0.92445 0.66715 0.72194 0.0
C848 C 0.92207 0.62776 0.68736 0.0
C849 C 0.9385 0.61017 0.68581 0.0
C850 C 0.93162 0.59214 0.70047 0.0
C851 C 0.90754 0.59193 0.71627 0.0
C852 C 0.89112 0.60952 0.71778 0.0
H853 H 0.92857 0.68086 0.73324 0.0
H854 H 0.93018 0.65275 0.73195 0.0
H855 H 0.93854 0.66905 0.70546 0.0
H856 H 0.92791 0.64153 0.67604 0.0
H857 H 0.95701 0.61091 0.67358 0.0
H858 H 0.85172 0.28284 0.32544 0.0
H859 H 0.87965 0.31509 0.33211 0.0
H860 H 0.8082 0.3516 0.31538 0.0
H861 H 0.77981 0.31942 0.30951 0.0
H862 H 0.89312 0.34749 0.2989 0.0
H863 H 0.83296 0.37648 0.37794 0.0
H864 H 0.82853 0.34991 0.3682 0.0
H865 H 0.81154 0.37081 0.35297 0.0
C866 C 0.84178 0.29771 0.32361 0.0
C867 C 0.8135 0.29855 0.317 0.0
C868 C 0.85782 0.31612 0.32729 0.0
C869 C 0.84589 0.33572 0.32457 0.0
C870 C 0.81767 0.33663 0.31804 0.0
H871 H 0.9097 0.46499 0.32309 0.0
H872 H 0.8807 0.43214 0.32191 0.0
C873 C 0.80159 0.31823 0.31439 0.0
C874 C 0.86341 0.35523 0.32732 0.0
H875 H 0.86759 0.40029 0.35854 0.0
C876 C 0.88768 0.35896 0.31207 0.0
C877 C 0.85618 0.37018 0.34446 0.0
C878 C 0.83103 0.36661 0.36199 0.0
C879 C 0.9046 0.37747 0.31313 0.0
C880 C 0.89729 0.39248 0.33017 0.0
C881 C 0.8731 0.38873 0.3455 0.0
C882 C 0.91437 0.41228 0.33208 0.0
C883 C 0.92976 0.38107 0.29559 0.0
C884 C 0.94264 0.41196 0.33869 0.0
C885 C 0.95909 0.43062 0.33933 0.0
C886 C 0.94744 0.44982 0.33347 0.0
C887 C 0.91898 0.45025 0.32757 0.0
C888 C 0.90251 0.43158 0.32693 0.0
H889 H 0.92858 0.37052 0.28017 0.0
H890 H 0.93138 0.39756 0.28853 0.0
H891 H 0.94942 0.37794 0.30494 0.0
H892 H 0.95201 0.39726 0.34314 0.0
H893 H 0.98102 0.43009 0.34404 0.0
H894 H 0.26178 0.32199 0.73508 0.0
H895 H 0.2347 0.35322 0.72864 0.0
H896 H 0.16341 0.31442 0.70833 0.0
H897 H 0.18968 0.28309 0.716 0.0
H898 H 0.21118 0.36906 0.68881 0.0
H899 H 0.12721 0.3489 0.75958 0.0
H900 H 0.15952 0.33502 0.75707 0.0
H901 H 0.13087 0.32893 0.73793 0.0
C902 C 0.2402 0.32006 0.72958 0.0
C903 C 0.22785 0.29997 0.7263 0.0
C904 C 0.22484 0.33795 0.7257 0.0
C905 C 0.19685 0.33613 0.71845 0.0
C906 C 0.18474 0.31618 0.71447 0.0
H907 H 0.07328 0.42575 0.67861 0.0
H908 H 0.10247 0.39512 0.68196 0.0
C909 C 0.19997 0.29828 0.71854 0.0
C910 C 0.18037 0.35512 0.71496 0.0
H911 H 0.11921 0.37772 0.73298 0.0
C912 C 0.19115 0.371 0.69855 0.0
C913 C 0.15429 0.35767 0.7278 0.0
C914 C 0.14241 0.34183 0.74675 0.0
C915 C 0.17627 0.38919 0.69437 0.0
C916 C 0.15004 0.39149 0.70687 0.0
C917 C 0.13927 0.37572 0.7233 0.0
C918 C 0.1336 0.41038 0.70351 0.0
C919 C 0.18841 0.40581 0.67648 0.0
C920 C 0.14163 0.429 0.71448 0.0
C921 C 0.12498 0.44645 0.71271 0.0
C922 C 0.10011 0.44556 0.69982 0.0
C923 C 0.09249 0.42697 0.68842 0.0
C924 C 0.10902 0.40946 0.6904 0.0
H925 H 0.20749 0.40068 0.66634 0.0
H926 H 0.17225 0.41001 0.66353 0.0
H927 H 0.19433 0.42018 0.68611 0.0
H928 H 0.16049 0.42989 0.72478 0.0
H929 H 0.13147 0.46062 0.72153 0.0
H930 H 0.18325 0.73817 0.31209 0.0
H931 H 0.15502 0.70555 0.32077 0.0
H932 H 0.22779 0.66991 0.3027 0.0
H933 H 0.2564 0.70243 0.29475 0.0
H934 H 0.14393 0.67401 0.28899 0.0
H935 H 0.19929 0.64307 0.3674 0.0
H936 H 0.20397 0.66999 0.35651 0.0
H937 H 0.22226 0.64974 0.34146 0.0
C938 C 0.19337 0.7234 0.31036 0.0
C939 C 0.22211 0.7229 0.30281 0.0
C940 C 0.17717 0.70478 0.31519 0.0
C941 C 0.18941 0.68533 0.31271 0.0
C942 C 0.21806 0.68476 0.30518 0.0
H943 H 0.12691 0.55568 0.3188 0.0
H944 H 0.15572 0.58875 0.31544 0.0
C945 C 0.23428 0.70335 0.30036 0.0
C946 C 0.17184 0.66564 0.31684 0.0
H947 H 0.16599 0.61966 0.35014 0.0
C948 C 0.1486 0.66219 0.30248 0.0
C949 C 0.17809 0.65024 0.3344 0.0
C950 C 0.2021 0.65347 0.35099 0.0
C951 C 0.13176 0.64354 0.30485 0.0
C952 C 0.13807 0.62809 0.32232 0.0
C953 C 0.16124 0.63156 0.33676 0.0
C954 C 0.12104 0.60811 0.3256 0.0
C955 C 0.1078 0.64028 0.28819 0.0
C956 C 0.09224 0.60807 0.33294 0.0
C957 C 0.0759 0.58928 0.3348 0.0
C958 C 0.08818 0.57032 0.32945 0.0
C959 C 0.11714 0.57024 0.32288 0.0
C960 C 0.1335 0.58903 0.321 0.0
H961 H 0.10999 0.65123 0.27223 0.0
H962 H 0.10676 0.62396 0.28192 0.0
H963 H 0.08745 0.64309 0.29799 0.0
H964 H 0.08238 0.62258 0.33699 0.0
H965 H 0.05358 0.58954 0.34002 0.0
H966 H 0.77433 0.83155 0.72869 0.0
H967 H 0.77912 0.86246 0.70153 0.0
H968 H 0.78107 0.82269 0.6405 0.0
H969 H 0.77518 0.79166 0.66752 0.0
H970 H 0.82214 0.87414 0.66753 0.0
H971 H 0.7192 0.8627 0.62457 0.0
H972 H 0.72739 0.84856 0.65177 0.0
H973 H 0.74136 0.84065 0.62309 0.0
C974 C 0.77537 0.82936 0.70948 0.0
C975 C 0.77408 0.80912 0.70027 0.0
C976 C 0.77834 0.84704 0.694 0.0
C977 C 0.78002 0.84488 0.66901 0.0
C978 C 0.77927 0.82472 0.65972 0.0
H979 H 0.79534 0.93608 0.54883 0.0
H980 H 0.79369 0.90384 0.57435 0.0
C981 C 0.77622 0.807 0.6752 0.0
C982 C 0.78287 0.86376 0.65275 0.0
H983 H 0.75027 0.89019 0.60834 0.0
C984 C 0.80642 0.87768 0.65461 0.0
C985 C 0.76232 0.86831 0.6359 0.0
C986 C 0.736 0.85439 0.63378 0.0
C987 C 0.8101 0.89596 0.63991 0.0
C988 C 0.78947 0.90056 0.62319 0.0
C989 C 0.76606 0.88657 0.62117 0.0
C990 C 0.79147 0.92001 0.60787 0.0
C991 C 0.83624 0.91004 0.64216 0.0
C992 C 0.79058 0.9397 0.61831 0.0
C993 C 0.79152 0.958 0.60378 0.0
C994 C 0.79324 0.9568 0.57869 0.0
C995 C 0.79412 0.93719 0.56821 0.0
C996 C 0.79315 0.91888 0.58272 0.0
H997 H 0.85324 0.90172 0.65107 0.0
H998 H 0.84459 0.91625 0.62424 0.0
H999 H 0.83073 0.92354 0.6532 0.0
H1000 H 0.78871 0.94088 0.63766 0.0
H1001 H 0.79062 0.97307 0.61207 0.0
H1002 H 0.77524 0.27685 0.24225 0.0
H1003 H 0.74479 0.27596 0.20797 0.0
H1004 H 0.68127 0.239 0.25065 0.0
H1005 H 0.71099 0.2406 0.28532 0.0
H1006 H 0.72406 0.24218 0.18417 0.0
H1007 H 0.6355 0.28572 0.22376 0.0
H1008 H 0.66956 0.28504 0.23699 0.0
H1009 H 0.64417 0.26333 0.24179 0.0
C1010 C 0.7546 0.26882 0.24448 0.0
C1011 C 0.74548 0.25893 0.26661 0.0
C1012 C 0.73732 0.26818 0.2248 0.0
C1013 C 0.71058 0.2577 0.22686 0.0
C1014 C 0.70157 0.24756 0.24879 0.0
H1015 H 0.57865 0.23145 0.12758 0.0
H1016 H 0.60946 0.23208 0.16172 0.0
C1017 C 0.71876 0.24826 0.26851 0.0
C1018 C 0.69241 0.25699 0.20589 0.0
H1019 H 0.62739 0.26928 0.18687 0.0
C1020 C 0.70299 0.24821 0.18471 0.0
C1021 C 0.66492 0.26488 0.20664 0.0
C1022 C 0.65292 0.27546 0.22843 0.0
C1023 C 0.68662 0.24678 0.16439 0.0
C1024 C 0.65909 0.25451 0.16524 0.0
C1025 C 0.64849 0.2633 0.18637 0.0
C1026 C 0.64097 0.25376 0.14431 0.0
C1027 C 0.69865 0.23668 0.1423 0.0
C1028 C 0.64848 0.26585 0.12331 0.0
C1029 C 0.63094 0.26553 0.1038 0.0
C1030 C 0.60561 0.25308 0.10494 0.0
C1031 C 0.59821 0.24096 0.12602 0.0
C1032 C 0.61568 0.2414 0.14558 0.0
H1033 H 0.71748 0.22761 0.14624 0.0
H1034 H 0.68245 0.22606 0.13463 0.0
H1035 H 0.70516 0.24905 0.12844 0.0
H1036 H 0.66777 0.27569 0.12213 0.0
H1037 H 0.63729 0.27493 0.08776 0.0
H1038 H 0.20698 0.22952 0.70203 0.0
H1039 H 0.2017 0.19927 0.67655 0.0
H1040 H 0.29071 0.18868 0.68072 0.0
H1041 H 0.29633 0.21909 0.7059 0.0
H1042 H 0.23029 0.19242 0.63161 0.0
H1043 H 0.25109 0.13131 0.70098 0.0
H1044 H 0.24237 0.15762 0.70842 0.0
H1045 H 0.27761 0.15235 0.69761 0.0
C1046 C 0.22549 0.22086 0.69739 0.0
C1047 C 0.25208 0.2267 0.70606 0.0
C1048 C 0.22239 0.20352 0.68294 0.0
C1049 C 0.24573 0.1916 0.67706 0.0
C1050 C 0.27232 0.19744 0.68548 0.0
H1051 H 0.26987 0.10391 0.56432 0.0
H1052 H 0.27105 0.13377 0.59065 0.0
C1053 C 0.27548 0.21481 0.69988 0.0
C1054 C 0.2424 0.17331 0.66165 0.0
H1055 H 0.24911 0.12037 0.66069 0.0
C1056 C 0.23426 0.17665 0.63797 0.0
C1057 C 0.24727 0.15274 0.67013 0.0
C1058 C 0.25483 0.14817 0.69574 0.0
C1059 C 0.23157 0.15999 0.62232 0.0
C1060 C 0.23743 0.13954 0.63055 0.0
C1061 C 0.24485 0.13611 0.65441 0.0
C1062 C 0.23644 0.12153 0.61453 0.0
C1063 C 0.22234 0.16436 0.59715 0.0
C1064 C 0.21691 0.1046 0.61952 0.0
C1065 C 0.21628 0.08745 0.60458 0.0
C1066 C 0.23541 0.08685 0.58455 0.0
C1067 C 0.25504 0.10382 0.57972 0.0
C1068 C 0.25556 0.12098 0.5946 0.0
H1069 H 0.21204 0.1796 0.59555 0.0
H1070 H 0.24116 0.16498 0.58446 0.0
H1071 H 0.20737 0.15174 0.59159 0.0
H1072 H 0.20211 0.1047 0.63494 0.0
H1073 H 0.20113 0.07451 0.60891 0.0
H1074 H 0.30971 0.73348 0.25448 0.0
H1075 H 0.34136 0.73589 0.21841 0.0
H1076 H 0.31471 0.79828 0.20256 0.0
H1077 H 0.28277 0.79595 0.23846 0.0
H1078 H 0.32698 0.74279 0.17043 0.0
H1079 H 0.40178 0.8053 0.19975 0.0
H1080 H 0.37722 0.79068 0.22044 0.0
H1081 H 0.36515 0.8116 0.20176 0.0
C1082 C 0.31048 0.74769 0.24327 0.0
C1083 C 0.29374 0.76455 0.24938 0.0
C1084 C 0.32867 0.74907 0.22274 0.0
C1085 C 0.33063 0.76735 0.20801 0.0
C1086 C 0.31393 0.78419 0.21397 0.0
H1087 H 0.4013 0.78028 0.06083 0.0
H1088 H 0.37008 0.77903 0.09745 0.0
C1089 C 0.29571 0.78283 0.23449 0.0
C1090 C 0.34959 0.76856 0.18605 0.0
H1091 H 0.40717 0.79547 0.15913 0.0
C1092 C 0.34455 0.75428 0.16795 0.0
C1093 C 0.37264 0.78342 0.18302 0.0
C1094 C 0.37977 0.79852 0.20233 0.0
C1095 C 0.36175 0.75464 0.14672 0.0
C1096 C 0.38435 0.76986 0.14342 0.0
C1097 C 0.38964 0.78395 0.16165 0.0
C1098 C 0.40312 0.77111 0.12135 0.0
C1099 C 0.35592 0.73851 0.12818 0.0
C1100 C 0.43206 0.76755 0.12278 0.0
C1101 C 0.44979 0.76835 0.10198 0.0
C1102 C 0.43884 0.7729 0.07953 0.0
C1103 C 0.41002 0.77674 0.07807 0.0
C1104 C 0.39226 0.77591 0.09888 0.0
H1105 H 0.34234 0.72505 0.13582 0.0
H1106 H 0.34474 0.74587 0.11323 0.0
H1107 H 0.37597 0.7325 0.12059 0.0
H1108 H 0.44083 0.76388 0.13997 0.0
H1109 H 0.47202 0.76534 0.10335 0.0
H1110 H 0.83025 0.22717 0.34265 0.0
H1111 H 0.83315 0.19584 0.36872 0.0
H1112 H 0.74335 0.18293 0.36423 0.0
H1113 H 0.74005 0.21464 0.33892 0.0
H1114 H 0.76108 0.17875 0.41043 0.0
H1115 H 0.82926 0.13536 0.34746 0.0
H1116 H 0.84363 0.16087 0.35417 0.0
H1117 H 0.81151 0.15851 0.33823 0.0
C1118 C 0.81107 0.21776 0.34737 0.0
C1119 C 0.78493 0.22336 0.3386 0.0
C1120 C 0.81283 0.19973 0.36203 0.0
C1121 C 0.78856 0.18687 0.36805 0.0
C1122 C 0.76239 0.19255 0.35963 0.0
H1123 H 0.77933 0.05955 0.42797 0.0
H1124 H 0.77811 0.09149 0.40227 0.0
C1125 C 0.76058 0.2106 0.34502 0.0
C1126 C 0.79026 0.16764 0.38346 0.0
H1127 H 0.82092 0.12033 0.38684 0.0
C1128 C 0.77413 0.16596 0.40528 0.0
C1129 C 0.80702 0.15088 0.37653 0.0
C1130 C 0.82365 0.15133 0.35272 0.0
C1131 C 0.77452 0.14803 0.42049 0.0
C1132 C 0.79193 0.13153 0.41389 0.0
C1133 C 0.80783 0.13311 0.39196 0.0
C1134 C 0.79339 0.11226 0.42925 0.0
C1135 C 0.7558 0.14675 0.44323 0.0
C1136 C 0.80287 0.11333 0.45272 0.0
C1137 C 0.80338 0.09518 0.46736 0.0
C1138 C 0.79465 0.07571 0.45865 0.0
C1139 C 0.78595 0.07451 0.43499 0.0
C1140 C 0.78531 0.09267 0.42038 0.0
H1141 H 0.73857 0.15797 0.44249 0.0
H1142 H 0.74617 0.13069 0.44654 0.0
H1143 H 0.76874 0.15066 0.45871 0.0
H1144 H 0.80979 0.12821 0.45973 0.0
H1145 H 0.81037 0.09632 0.48554 0.0
H1146 H 0.32716 0.24401 0.75903 0.0
H1147 H 0.35683 0.24186 0.79373 0.0
H1148 H 0.29571 0.2752 0.83556 0.0
H1149 H 0.26526 0.27652 0.80136 0.0
H1150 H 0.38166 0.27325 0.81814 0.0
H1151 H 0.30744 0.22526 0.87978 0.0
H1152 H 0.30204 0.22856 0.84805 0.0
H1153 H 0.29251 0.24868 0.86835 0.0
C1154 C 0.31978 0.25058 0.77573 0.0
C1155 C 0.29372 0.26033 0.77742 0.0
C1156 C 0.33688 0.24948 0.79549 0.0
C1157 C 0.32828 0.25807 0.81735 0.0
C1158 C 0.30249 0.26806 0.81903 0.0
H1159 H 0.40788 0.27583 0.95294 0.0
H1160 H 0.37719 0.2769 0.91868 0.0
C1161 C 0.28528 0.26906 0.79933 0.0
C1162 C 0.34673 0.2571 0.83815 0.0
H1163 H 0.34835 0.24044 0.89698 0.0
C1164 C 0.37443 0.26596 0.83533 0.0
C1165 C 0.33726 0.24757 0.86057 0.0
C1166 C 0.30829 0.23679 0.86436 0.0
C1167 C 0.39275 0.26586 0.85444 0.0
C1168 C 0.38316 0.25652 0.87687 0.0
C1169 C 0.35552 0.24766 0.87974 0.0
C1170 C 0.40164 0.25572 0.89755 0.0
C1171 C 0.42209 0.27602 0.85067 0.0
C1172 C 0.42531 0.24327 0.89703 0.0
C1173 C 0.44282 0.2426 0.91655 0.0
C1174 C 0.43698 0.25441 0.9369 0.0
C1175 C 0.41309 0.26675 0.9374 0.0
C1176 C 0.39548 0.2673 0.91793 0.0
H1177 H 0.42429 0.28605 0.83395 0.0
H1178 H 0.42737 0.28572 0.86616 0.0
H1179 H 0.43776 0.26365 0.84931 0.0
H1180 H 0.43021 0.23407 0.88153 0.0
H1181 H 0.46118 0.23309 0.91555 0.0
H1182 H 0.25036 0.82021 0.29279 0.0
H1183 H 0.24663 0.85022 0.31872 0.0
H1184 H 0.24445 0.80872 0.38145 0.0
H1185 H 0.24862 0.77862 0.35571 0.0
H1186 H 0.20224 0.83962 0.38215 0.0
H1187 H 0.31066 0.87398 0.35992 0.0
H1188 H 0.28981 0.8685 0.3345 0.0
H1189 H 0.30026 0.84727 0.35357 0.0
C1190 C 0.24939 0.81747 0.3121 0.0
C1191 C 0.24994 0.79701 0.32217 0.0
C1192 C 0.24719 0.83463 0.32687 0.0
C1193 C 0.24557 0.83167 0.35197 0.0
C1194 C 0.24569 0.8113 0.3621 0.0
H1195 H 0.27116 0.92279 0.46093 0.0
H1196 H 0.27265 0.89289 0.43477 0.0
C1197 C 0.24795 0.79412 0.34736 0.0
C1198 C 0.24373 0.84983 0.36769 0.0
H1199 H 0.28027 0.89398 0.38399 0.0
C1200 C 0.21926 0.85153 0.38258 0.0
C1201 C 0.26613 0.86518 0.36834 0.0
C1202 C 0.29333 0.86365 0.3534 0.0
C1203 C 0.21648 0.86835 0.39799 0.0
C1204 C 0.23866 0.88391 0.39829 0.0
C1205 C 0.26322 0.88209 0.38355 0.0
C1206 C 0.23718 0.90193 0.41425 0.0
C1207 C 0.19011 0.86913 0.41416 0.0
C1208 C 0.21684 0.917 0.41125 0.0
C1209 C 0.21604 0.93423 0.42608 0.0
C1210 C 0.23569 0.93673 0.44409 0.0
C1211 C 0.256 0.92153 0.44701 0.0
C1212 C 0.25679 0.90437 0.43218 0.0
H1213 H 0.17807 0.85378 0.41564 0.0
H1214 H 0.19549 0.87387 0.43246 0.0
H1215 H 0.17611 0.88094 0.40666 0.0
H1216 H 0.20183 0.91559 0.39722 0.0
H1217 H 0.2004 0.94578 0.42312 0.0
H1218 H 0.69498 0.78693 0.75671 0.0
H1219 H 0.66366 0.78799 0.79289 0.0
H1220 H 0.72743 0.76032 0.835 0.0
H1221 H 0.75909 0.75962 0.79907 0.0
H1222 H 0.64367 0.7535 0.82421 0.0
H1223 H 0.70688 0.81323 0.87161 0.0
H1224 H 0.71199 0.80922 0.83979 0.0
H1225 H 0.72629 0.79147 0.86126 0.0
C1226 C 0.70243 0.78127 0.77373 0.0
C1227 C 0.72955 0.77327 0.77506 0.0
C1228 C 0.68447 0.78178 0.79432 0.0
C1229 C 0.69341 0.77449 0.81663 0.0
C1230 C 0.72032 0.76631 0.818 0.0
H1231 H 0.61908 0.76309 0.96192 0.0
H1232 H 0.65013 0.76306 0.92529 0.0
C1233 C 0.73825 0.76573 0.79742 0.0
C1234 C 0.67436 0.77505 0.83842 0.0
H1235 H 0.66814 0.79606 0.89386 0.0
C1236 C 0.64889 0.76288 0.83941 0.0
C1237 C 0.68135 0.78727 0.85819 0.0
C1238 C 0.70799 0.8012 0.8577 0.0
C1239 C 0.63044 0.76224 0.85992 0.0
C1240 C 0.63743 0.77446 0.87972 0.0
C1241 C 0.66286 0.7867 0.87866 0.0
C1242 C 0.61872 0.77466 0.90177 0.0
C1243 C 0.60402 0.74807 0.86044 0.0
C1244 C 0.591 0.78151 0.90071 0.0
C1245 C 0.57333 0.78142 0.92152 0.0
C1246 C 0.58322 0.77462 0.94368 0.0
C1247 C 0.6111 0.76823 0.94489 0.0
C1248 C 0.62874 0.76825 0.92407 0.0
H1249 H 0.60556 0.7358 0.84683 0.0
H1250 H 0.59982 0.7403 0.87846 0.0
H1251 H 0.58564 0.75755 0.85636 0.0
H1252 H 0.58306 0.78698 0.8838 0.0
H1253 H 0.55192 0.78657 0.92035 0.0
loop_
_geom_bond_atom_site_label_1
_geom_bond_atom_site_label_2
_geom_bond_distance
_geom_bond_site_symmetry_2
_ccdc_geom_bond_type
H0 C3 0.931 . S
H1 C6 0.928 . S
H2 C8 0.930 . S
C3 H0 0.931 . S
C3 C4 1.413 . S
C3 C5 1.360 . S
C4 C3 1.413 . S
C4 C8 1.429 . S
C5 C3 1.360 . S
C5 C6 1.372 . S
C6 H1 0.928 . S
C6 C5 1.372 . S
C6 C7 1.404 . S
C7 C6 1.404 . S
C7 C8 1.391 . S
C8 H2 0.930 . S
C8 C4 1.429 . S
C8 C7 1.391 . S
H9 C12 0.931 . S
H10 C15 0.928 . S
H11 C17 0.930 . S
C12 H9 0.931 . S
C12 C13 1.413 . S
C12 C14 1.360 . S
C13 C12 1.413 . S
C13 C17 1.429 . S
C14 C12 1.360 . S
C14 C15 1.372 . S
C15 H10 0.928 . S
C15 C14 1.372 . S
C15 C16 1.404 . S
C16 C15 1.404 . S
C16 C17 1.391 . S
C17 H11 0.930 . S
C17 C13 1.429 . S
C17 C16 1.391 . S
H18 C21 0.931 . S
H19 C24 0.928 . S
H20 C26 0.930 . S
C21 H18 0.931 . S
C21 C22 1.413 . S
C21 C23 1.360 . S
C22 C21 1.413 . S
C22 C26 1.429 . S
C23 C21 1.360 . S
C23 C24 1.372 . S
C24 H19 0.928 . S
C24 C23 1.372 . S
C24 C25 1.404 . S
C25 C24 1.404 . S
C25 C26 1.391 . S
C26 H20 0.930 . S
C26 C22 1.429 . S
C26 C25 1.391 . S
H27 C30 0.931 . S
H28 C33 0.928 . S
H29 C35 0.930 . S
C30 H27 0.931 . S
C30 C31 1.413 . S
C30 C32 1.360 . S
C31 C30 1.413 . S
C31 C35 1.429 . S
C32 C30 1.360 . S
C32 C33 1.372 . S
C33 H28 0.928 . S
C33 C32 1.372 . S
C33 C34 1.404 . S
C34 C33 1.404 . S
C34 C35 1.391 . S
C35 H29 0.930 . S
C35 C31 1.429 . S
C35 C34 1.391 . S
H36 C39 0.931 . S
H37 C42 0.928 . S
H38 C44 0.930 . S
C39 H36 0.931 . S
C39 C40 1.413 . S
C39 C41 1.360 . S
C40 C39 1.413 . S
C40 C44 1.429 . S
C41 C39 1.360 . S
C41 C42 1.372 . S
C42 H37 0.928 . S
C42 C41 1.372 . S
C42 C43 1.404 . S
C43 C42 1.404 . S
C43 C44 1.391 . S
C44 H38 0.930 . S
C44 C40 1.429 . S
C44 C43 1.391 . S
H45 C48 0.931 . S
H46 C51 0.928 . S
H47 C53 0.930 . S
C48 H45 0.931 . S
C48 C49 1.413 . S
C48 C50 1.360 . S
C49 C48 1.413 . S
C49 C53 1.429 . S
C50 C48 1.360 . S
C50 C51 1.372 . S
C51 H46 0.928 . S
C51 C50 1.372 . S
C51 C52 1.404 . S
C52 C51 1.404 . S
C52 C53 1.391 . S
C53 H47 0.930 . S
C53 C49 1.429 . S
C53 C52 1.391 . S
H54 C57 0.931 . S
H55 C60 0.928 . S
H56 C62 0.930 . S
C57 H54 0.931 . S
C57 C58 1.413 . S
C57 C59 1.360 . S
C58 C57 1.413 . S
C58 C62 1.429 . S
C59 C57 1.360 . S
C59 C60 1.372 . S
C60 H55 0.928 . S
C60 C59 1.372 . S
C60 C61 1.404 . S
C61 C60 1.404 . S
C61 C62 1.391 . S
C62 H56 0.930 . S
C62 C58 1.429 . S
C62 C61 1.391 . S
H63 C66 0.931 . S
H64 C69 0.928 . S
H65 C71 0.930 . S
C66 H63 0.931 . S
C66 C67 1.413 . S
C66 C68 1.360 . S
C67 C66 1.413 . S
C67 C71 1.429 . S
C68 C66 1.360 . S
C68 C69 1.372 . S
C69 H64 0.928 . S
C69 C68 1.372 . S
C69 C70 1.404 . S
C70 C69 1.404 . S
C70 C71 1.391 . S
C71 H65 0.930 . S
C71 C67 1.429 . S
C71 C70 1.391 . S
C72 C73 1.443 . S
C72 N76 1.376 . S
C72 C110 1.389 . S
C73 C72 1.443 . S
C73 C74 1.340 . S
C73 H113 0.951 . S
C74 C73 1.340 . S
C74 C75 1.439 . S
C74 H114 0.950 . S
C75 C74 1.439 . S
C75 N76 1.374 . S
C75 C109 1.395 . S
N76 C72 1.376 . S
N76 C75 1.374 . S
N76 Co77 2.008 . S
Co77 N76 2.008 . S
Co77 N78 1.984 1_455 S
Co77 N83 2.008 . S
Co77 N88 1.995 . S
Co77 N93 2.282 . S
Co77 N99 2.282 1_455 S
N78 Co77 1.984 1_655 S
N78 C79 1.377 . S
N78 C82 1.396 . S
C79 N78 1.377 . S
C79 C80 1.464 . S
C79 C109 1.374 1_655 S
C80 C79 1.464 . S
C80 C81 1.339 . S
C80 H115 0.949 . S
C81 C80 1.339 . S
C81 C82 1.439 . S
C81 H116 0.950 . S
C82 N78 1.396 . S
C82 C81 1.439 . S
C82 C111 1.392 . S
N83 Co77 2.008 . S
N83 C84 1.376 1_455 S
N83 C87 1.374 . S
C84 N83 1.376 1_655 S
C84 C85 1.443 . S
C84 C111 1.389 . S
C85 C84 1.443 . S
C85 C86 1.340 . S
C85 H117 0.951 . S
C86 C85 1.340 . S
C86 C87 1.439 1_655 S
C86 H118 0.950 . S
C87 N83 1.374 . S
C87 C86 1.439 1_455 S
C87 C112 1.395 . S
N88 Co77 1.995 . S
N88 C89 1.376 . S
N88 C92 1.383 . S
C89 N88 1.376 . S
C89 C90 1.446 . S
C89 C112 1.391 . S
C90 C89 1.446 . S
C90 C91 1.339 . S
C90 H119 0.949 . S
C91 C90 1.339 . S
C91 C92 1.439 . S
C91 H120 0.950 . S
C92 N88 1.383 . S
C92 C91 1.439 . S
C92 C110 1.392 . S
N93 Co77 2.282 . S
N93 C96 1.332 . S
N93 C98 1.332 . S
C94 C95 1.386 . S
C94 C97 1.388 . S
C95 C94 1.386 . S
C95 C96 1.382 . S
C95 H121 0.950 . S
C96 N93 1.332 . S
C96 C95 1.382 . S
C96 H107 0.952 . S
C97 C94 1.388 . S
C97 C98 1.382 . S
C97 H122 0.950 . S
C98 N93 1.332 . S
C98 C97 1.382 . S
C98 H108 0.948 . S
N99 Co77 2.282 1_655 S
N99 C103 1.332 . S
N99 C104 1.332 . S
C100 C101 1.388 . S
C100 C104 1.382 . S
C100 H123 0.950 . S
C101 C100 1.388 . S
C101 C102 1.386 . S
C102 C101 1.386 . S
C102 C103 1.382 . S
C102 H124 0.950 . S
C103 N99 1.332 . S
C103 C102 1.382 . S
C103 H105 0.952 . S
C104 N99 1.332 . S
C104 C100 1.382 . S
C104 H106 0.948 . S
H105 C103 0.952 . S
H106 C104 0.948 . S
H107 C96 0.952 . S
H108 C98 0.948 . S
C109 C75 1.395 . S
C109 C79 1.374 1_455 S
C110 C72 1.389 . S
C110 C92 1.392 . S
C111 C82 1.392 . S
C111 C84 1.389 . S
C112 C87 1.395 . S
C112 C89 1.391 . S
H113 C73 0.951 . S
H114 C74 0.950 . S
H115 C80 0.949 . S
H116 C81 0.950 . S
H117 C85 0.951 . S
H118 C86 0.950 . S
H119 C90 0.949 . S
H120 C91 0.950 . S
H121 C95 0.950 . S
H122 C97 0.950 . S
H123 C100 0.950 . S
H124 C102 0.950 . S
C125 C126 1.443 . S
C125 N129 1.376 . S
C125 C163 1.389 . S
C126 C125 1.443 . S
C126 C127 1.340 . S
C126 H166 0.951 . S
C127 C126 1.340 . S
C127 C128 1.439 . S
C127 H167 0.950 . S
C128 C127 1.439 . S
C128 N129 1.374 . S
C128 C162 1.395 . S
N129 C125 1.376 . S
N129 C128 1.374 . S
N129 Co130 2.008 . S
Co130 N129 2.008 . S
Co130 N131 1.995 1_455 S
Co130 N136 2.008 1_455 S
Co130 N141 1.995 . S
Co130 N146 2.282 . S
Co130 N152 2.282 1_455 S
N131 Co130 1.995 1_655 S
N131 C132 1.376 . S
N131 C135 1.383 . S
C132 N131 1.376 . S
C132 C133 1.446 . S
C132 C162 1.391 1_655 S
C133 C132 1.446 . S
C133 C134 1.339 . S
C133 H168 0.949 . S
C134 C133 1.339 . S
C134 C135 1.439 . S
C134 H169 0.950 . S
C135 N131 1.383 . S
C135 C134 1.439 . S
C135 C164 1.392 . S
N136 Co130 2.008 1_655 S
N136 C137 1.376 . S
N136 C140 1.374 1_655 S
C137 N136 1.376 . S
C137 C138 1.443 . S
C137 C164 1.389 . S
C138 C137 1.443 . S
C138 C139 1.340 . S
C138 H170 0.951 . S
C139 C138 1.340 . S
C139 C140 1.439 1_655 S
C139 H171 0.950 . S
C140 N136 1.374 1_455 S
C140 C139 1.439 1_455 S
C140 C165 1.395 . S
N141 Co130 1.995 . S
N141 C142 1.376 . S
N141 C145 1.383 . S
C142 N141 1.376 . S
C142 C143 1.446 . S
C142 C165 1.391 . S
C143 C142 1.446 . S
C143 C144 1.339 . S
C143 H172 0.949 . S
C144 C143 1.339 . S
C144 C145 1.439 . S
C144 H173 0.950 . S
C145 N141 1.383 . S
C145 C144 1.439 . S
C145 C163 1.392 . S
N146 Co130 2.282 . S
N146 C149 1.332 . S
N146 C151 1.332 . S
C147 C148 1.386 . S
C147 C150 1.388 . S
C148 C147 1.386 . S
C148 C149 1.382 . S
C148 H174 0.950 . S
C149 N146 1.332 . S
C149 C148 1.382 . S
C149 H160 0.952 . S
C150 C147 1.388 . S
C150 C151 1.382 . S
C150 H175 0.950 . S
C151 N146 1.332 . S
C151 C150 1.382 . S
C151 H161 0.948 . S
N152 Co130 2.282 1_655 S
N152 C156 1.332 . S
N152 C157 1.332 . S
C153 C154 1.388 . S
C153 C157 1.382 . S
C153 H176 0.950 . S
C154 C153 1.388 . S
C154 C155 1.386 . S
C155 C154 1.386 . S
C155 C156 1.382 . S
C155 H177 0.950 . S
C156 N152 1.332 . S
C156 C155 1.382 . S
C156 H158 0.952 . S
C157 N152 1.332 . S
C157 C153 1.382 . S
C157 H159 0.948 . S
H158 C156 0.952 . S
H159 C157 0.948 . S
H160 C149 0.952 . S
H161 C151 0.948 . S
C162 C128 1.395 . S
C162 C132 1.391 1_455 S
C163 C125 1.389 . S
C163 C145 1.392 . S
C164 C135 1.392 . S
C164 C137 1.389 . S
C165 C140 1.395 . S
C165 C142 1.391 . S
H166 C126 0.951 . S
H167 C127 0.950 . S
H168 C133 0.949 . S
H169 C134 0.950 . S
H170 C138 0.951 . S
H171 C139 0.950 . S
H172 C143 0.949 . S
H173 C144 0.950 . S
H174 C148 0.950 . S
H175 C150 0.950 . S
H176 C153 0.950 . S
H177 C155 0.950 . S
C178 C179 1.443 . S
C178 N182 1.376 . S
C178 C216 1.389 . S
C179 C178 1.443 . S
C179 C180 1.340 . S
C179 H219 0.951 . S
C180 C179 1.340 . S
C180 C181 1.439 . S
C180 H220 0.950 . S
C181 C180 1.439 . S
C181 N182 1.374 . S
C181 C215 1.395 1_565 S
N182 C178 1.376 . S
N182 C181 1.374 . S
N182 Co183 2.008 1_565 S
Co183 N182 2.008 1_545 S
Co183 N184 1.995 . S
Co183 N189 2.008 . S
Co183 N194 1.995 1_545 S
Co183 N199 2.282 . S
Co183 N205 2.282 1_545 S
N184 Co183 1.995 . S
N184 C185 1.376 . S
N184 C188 1.383 . S
C185 N184 1.376 . S
C185 C186 1.446 . S
C185 C215 1.391 . S
C186 C185 1.446 . S
C186 C187 1.339 . S
C186 H221 0.949 . S
C187 C186 1.339 . S
C187 C188 1.439 . S
C187 H222 0.950 . S
C188 N184 1.383 . S
C188 C187 1.439 . S
C188 C217 1.392 . S
N189 Co183 2.008 . S
N189 C190 1.376 . S
N189 C193 1.374 . S
C190 N189 1.376 . S
C190 C191 1.443 . S
C190 C217 1.389 . S
C191 C190 1.443 . S
C191 C192 1.340 . S
C191 H223 0.951 . S
C192 C191 1.340 . S
C192 C193 1.439 . S
C192 H224 0.950 . S
C193 N189 1.374 . S
C193 C192 1.439 . S
C193 C218 1.395 . S
N194 Co183 1.995 1_565 S
N194 C195 1.376 . S
N194 C198 1.383 . S
C195 N194 1.376 . S
C195 C196 1.446 . S
C195 C218 1.391 1_565 S
C196 C195 1.446 . S
C196 C197 1.339 . S
C196 H225 0.949 . S
C197 C196 1.339 . S
C197 C198 1.439 . S
C197 H226 0.950 . S
C198 N194 1.383 . S
C198 C197 1.439 . S
C198 C216 1.392 . S
N199 Co183 2.282 . S
N199 C202 1.332 . S
N199 C204 1.332 . S
C200 C201 1.386 . S
C200 C203 1.388 . S
C201 C200 1.386 . S
C201 C202 1.382 . S
C201 H227 0.950 . S
C202 N199 1.332 . S
C202 C201 1.382 . S
C202 H213 0.952 . S
C203 C200 1.388 . S
C203 C204 1.382 . S
C203 H228 0.950 . S
C204 N199 1.332 . S
C204 C203 1.382 . S
C204 H214 0.948 . S
N205 Co183 2.282 1_565 S
N205 C209 1.332 . S
N205 C210 1.332 . S
C206 C207 1.388 . S
C206 C210 1.382 . S
C206 H229 0.950 . S
C207 C206 1.388 . S
C207 C208 1.386 . S
C208 C207 1.386 . S
C208 C209 1.382 . S
C208 H230 0.950 . S
C209 N205 1.332 . S
C209 C208 1.382 . S
C209 H211 0.952 . S
C210 N205 1.332 . S
C210 C206 1.382 . S
C210 H212 0.948 . S
H211 C209 0.952 . S
H212 C210 0.948 . S
H213 C202 0.952 . S
H214 C204 0.948 . S
C215 C181 1.395 1_545 S
C215 C185 1.391 . S
C216 C178 1.389 . S
C216 C198 1.392 . S
C217 C188 1.392 . S
C217 C190 1.389 . S
C218 C193 1.395 . S
C218 C195 1.391 1_545 S
H219 C179 0.951 . S
H220 C180 0.950 . S
H221 C186 0.949 . S
H222 C187 0.950 . S
H223 C191 0.951 . S
H224 C192 0.950 . S
H225 C196 0.949 . S
H226 C197 0.950 . S
H227 C201 0.950 . S
H228 C203 0.950 . S
H229 C206 0.950 . S
H230 C208 0.950 . S
C231 C232 1.443 . S
C231 N235 1.376 . S
C231 C269 1.389 . S
C232 C231 1.443 . S
C232 C233 1.340 . S
C232 H272 0.951 . S
C233 C232 1.340 . S
C233 C234 1.439 . S
C233 H273 0.950 . S
C234 C233 1.439 . S
C234 N235 1.374 . S
C234 C268 1.395 . S
N235 C231 1.376 . S
N235 C234 1.374 . S
N235 Co236 2.008 . S
Co236 N235 2.008 . S
Co236 N237 1.995 1_554 S
Co236 N242 2.008 1_554 S
Co236 N247 1.995 . S
Co236 N252 2.282 1_554 S
Co236 N258 2.282 . S
N237 Co236 1.995 1_556 S
N237 C238 1.376 . S
N237 C241 1.383 . S
C238 N237 1.376 . S
C238 C239 1.446 . S
C238 C268 1.391 1_556 S
C239 C238 1.446 . S
C239 C240 1.339 . S
C239 H274 0.949 . S
C240 C239 1.339 . S
C240 C241 1.439 . S
C240 H275 0.950 . S
C241 N237 1.383 . S
C241 C240 1.439 . S
C241 C270 1.392 . S
N242 Co236 2.008 1_556 S
N242 C243 1.376 . S
N242 C246 1.374 . S
C243 N242 1.376 . S
C243 C244 1.443 . S
C243 C270 1.389 . S
C244 C243 1.443 . S
C244 C245 1.340 . S
C244 H276 0.951 . S
C245 C244 1.340 . S
C245 C246 1.439 . S
C245 H277 0.950 . S
C246 N242 1.374 . S
C246 C245 1.439 . S
C246 C271 1.395 1_556 S
N247 Co236 1.995 . S
N247 C248 1.376 . S
N247 C251 1.383 . S
C248 N247 1.376 . S
C248 C249 1.446 . S
C248 C271 1.391 . S
C249 C248 1.446 . S
C249 C250 1.339 . S
C249 H278 0.949 . S
C250 C249 1.339 . S
C250 C251 1.439 . S
C250 H279 0.950 . S
C251 N247 1.383 . S
C251 C250 1.439 . S
C251 C269 1.392 . S
N252 Co236 2.282 1_556 S
N252 C255 1.332 . S
N252 C257 1.332 . S
C253 C254 1.386 . S
C253 C256 1.388 . S
C254 C253 1.386 . S
C254 C255 1.382 . S
C254 H280 0.950 . S
C255 N252 1.332 . S
C255 C254 1.382 . S
C255 H266 0.952 . S
C256 C253 1.388 . S
C256 C257 1.382 . S
C256 H281 0.950 . S
C257 N252 1.332 . S
C257 C256 1.382 . S
C257 H267 0.948 . S
N258 Co236 2.282 . S
N258 C262 1.332 . S
N258 C263 1.332 . S
C259 C260 1.388 . S
C259 C263 1.382 . S
C259 H282 0.950 . S
C260 C259 1.388 . S
C260 C261 1.386 . S
C261 C260 1.386 . S
C261 C262 1.382 . S
C261 H283 0.950 . S
C262 N258 1.332 . S
C262 C261 1.382 . S
C262 H264 0.952 . S
C263 N258 1.332 . S
C263 C259 1.382 . S
C263 H265 0.948 . S
H264 C262 0.952 . S
H265 C263 0.948 . S
H266 C255 0.952 . S
H267 C257 0.948 . S
C268 C234 1.395 . S
C268 C238 1.391 1_554 S
C269 C231 1.389 . S
C269 C251 1.392 . S
C270 C241 1.392 . S
C270 C243 1.389 . S
C271 C246 1.395 1_554 S
C271 C248 1.391 . S
H272 C232 0.951 . S
H273 C233 0.950 . S
H274 C239 0.949 . S
H275 C240 0.950 . S
H276 C244 0.951 . S
H277 C245 0.950 . S
H278 C249 0.949 . S
H279 C250 0.950 . S
H280 C254 0.950 . S
H281 C256 0.950 . S
H282 C259 0.950 . S
H283 C261 0.950 . S
C284 C285 1.443 . S
C284 N288 1.376 1_565 S
C284 C322 1.389 . S
C285 C284 1.443 . S
C285 C286 1.340 . S
C285 H325 0.951 . S
C286 C285 1.340 . S
C286 C287 1.439 1_565 S
C286 H326 0.950 . S
C287 C286 1.439 1_545 S
C287 N288 1.374 . S
C287 C321 1.395 . S
N288 C284 1.376 1_545 S
N288 C287 1.374 . S
N288 Co289 2.008 . S
Co289 N288 2.008 . S
Co289 N290 1.995 . S
Co289 N295 2.008 . S
Co289 N300 1.995 . S
Co289 N305 2.282 . S
Co289 N311 2.282 1_545 S
N290 Co289 1.995 . S
N290 C291 1.376 . S
N290 C294 1.383 . S
C291 N290 1.376 . S
C291 C292 1.446 . S
C291 C321 1.391 . S
C292 C291 1.446 . S
C292 C293 1.339 . S
C292 H327 0.949 . S
C293 C292 1.339 . S
C293 C294 1.439 . S
C293 H328 0.950 . S
C294 N290 1.383 . S
C294 C293 1.439 . S
C294 C323 1.392 . S
N295 Co289 2.008 . S
N295 C296 1.376 . S
N295 C299 1.374 . S
C296 N295 1.376 . S
C296 C297 1.443 . S
C296 C323 1.389 . S
C297 C296 1.443 . S
C297 C298 1.340 . S
C297 H329 0.951 . S
C298 C297 1.340 . S
C298 C299 1.439 . S
C298 H330 0.950 . S
C299 N295 1.374 . S
C299 C298 1.439 . S
C299 C324 1.395 . S
N300 Co289 1.995 . S
N300 C301 1.376 . S
N300 C304 1.383 1_545 S
C301 N300 1.376 . S
C301 C302 1.446 1_545 S
C301 C324 1.391 . S
C302 C301 1.446 1_565 S
C302 C303 1.339 . S
C302 H331 0.949 . S
C303 C302 1.339 . S
C303 C304 1.439 . S
C303 H332 0.950 . S
C304 N300 1.383 1_565 S
C304 C303 1.439 . S
C304 C322 1.392 . S
N305 Co289 2.282 . S
N305 C308 1.332 . S
N305 C310 1.332 . S
C306 C307 1.386 . S
C306 C309 1.388 . S
C307 C306 1.386 . S
C307 C308 1.382 . S
C307 H333 0.950 . S
C308 N305 1.332 . S
C308 C307 1.382 . S
C308 H319 0.952 . S
C309 C306 1.388 . S
C309 C310 1.382 . S
C309 H334 0.950 . S
C310 N305 1.332 . S
C310 C309 1.382 . S
C310 H320 0.948 . S
N311 Co289 2.282 1_565 S
N311 C315 1.332 . S
N311 C316 1.332 . S
C312 C313 1.388 . S
C312 C316 1.382 . S
C312 H335 0.950 . S
C313 C312 1.388 . S
C313 C314 1.386 . S
C314 C313 1.386 . S
C314 C315 1.382 . S
C314 H336 0.950 . S
C315 N311 1.332 . S
C315 C314 1.382 . S
C315 H317 0.952 . S
C316 N311 1.332 . S
C316 C312 1.382 . S
C316 H318 0.948 . S
H317 C315 0.952 . S
H318 C316 0.948 . S
H319 C308 0.952 . S
H320 C310 0.948 . S
C321 C287 1.395 . S
C321 C291 1.391 . S
C322 C284 1.389 . S
C322 C304 1.392 . S
C323 C294 1.392 . S
C323 C296 1.389 . S
C324 C299 1.395 . S
C324 C301 1.391 . S
H325 C285 0.951 . S
H326 C286 0.950 . S
H327 C292 0.949 . S
H328 C293 0.950 . S
H329 C297 0.951 . S
H330 C298 0.950 . S
H331 C302 0.949 . S
H332 C303 0.950 . S
H333 C307 0.950 . S
H334 C309 0.950 . S
H335 C312 0.950 . S
H336 C314 0.950 . S
C337 C338 1.443 . S
C337 N341 1.376 . S
C337 C375 1.389 . S
C338 C337 1.443 . S
C338 C339 1.340 . S
C338 H378 0.951 . S
C339 C338 1.340 . S
C339 C340 1.439 . S
C339 H379 0.950 . S
C340 C339 1.439 . S
C340 N341 1.374 . S
C340 C374 1.395 . S
N341 C337 1.376 . S
N341 C340 1.374 . S
N341 Co342 2.008 . S
Co342 N341 2.008 . S
Co342 N343 1.995 . S
Co342 N348 2.008 . S
Co342 N353 1.995 . S
Co342 N358 2.282 1_554 S
Co342 N364 2.282 . S
N343 Co342 1.995 . S
N343 C344 1.376 . S
N343 C347 1.383 1_554 S
C344 N343 1.376 . S
C344 C345 1.446 1_554 S
C344 C374 1.391 . S
C345 C344 1.446 1_556 S
C345 C346 1.339 . S
C345 H380 0.949 . S
C346 C345 1.339 . S
C346 C347 1.439 . S
C346 H381 0.950 . S
C347 N343 1.383 1_556 S
C347 C346 1.439 . S
C347 C376 1.392 . S
N348 Co342 2.008 . S
N348 C349 1.376 1_554 S
N348 C352 1.374 . S
C349 N348 1.376 1_556 S
C349 C350 1.443 . S
C349 C376 1.389 . S
C350 C349 1.443 . S
C350 C351 1.340 . S
C350 H382 0.951 . S
C351 C350 1.340 . S
C351 C352 1.439 1_556 S
C351 H383 0.950 . S
C352 N348 1.374 . S
C352 C351 1.439 1_554 S
C352 C377 1.395 . S
N353 Co342 1.995 . S
N353 C354 1.376 . S
N353 C357 1.383 . S
C354 N353 1.376 . S
C354 C355 1.446 . S
C354 C377 1.391 . S
C355 C354 1.446 . S
C355 C356 1.339 . S
C355 H384 0.949 . S
C356 C355 1.339 . S
C356 C357 1.439 . S
C356 H385 0.950 . S
C357 N353 1.383 . S
C357 C356 1.439 . S
C357 C375 1.392 . S
N358 Co342 2.282 1_556 S
N358 C361 1.332 . S
N358 C363 1.332 . S
C359 C360 1.386 . S
C359 C362 1.388 . S
C360 C359 1.386 . S
C360 C361 1.382 . S
C360 H386 0.950 . S
C361 N358 1.332 . S
C361 C360 1.382 . S
C361 H372 0.952 . S
C362 C359 1.388 . S
C362 C363 1.382 . S
C362 H387 0.950 . S
C363 N358 1.332 . S
C363 C362 1.382 . S
C363 H373 0.948 . S
N364 Co342 2.282 . S
N364 C368 1.332 . S
N364 C369 1.332 . S
C365 C366 1.388 . S
C365 C369 1.382 . S
C365 H388 0.950 . S
C366 C365 1.388 . S
C366 C367 1.386 . S
C367 C366 1.386 . S
C367 C368 1.382 . S
C367 H389 0.950 . S
C368 N364 1.332 . S
C368 C367 1.382 . S
C368 H370 0.952 . S
C369 N364 1.332 . S
C369 C365 1.382 . S
C369 H371 0.948 . S
H370 C368 0.952 . S
H371 C369 0.948 . S
H372 C361 0.952 . S
H373 C363 0.948 . S
C374 C340 1.395 . S
C374 C344 1.391 . S
C375 C337 1.389 . S
C375 C357 1.392 . S
C376 C347 1.392 . S
C376 C349 1.389 . S
C377 C352 1.395 . S
C377 C354 1.391 . S
H378 C338 0.951 . S
H379 C339 0.950 . S
H380 C345 0.949 . S
H381 C346 0.950 . S
H382 C350 0.951 . S
H383 C351 0.950 . S
H384 C355 0.949 . S
H385 C356 0.950 . S
H386 C360 0.950 . S
H387 C362 0.950 . S
H388 C365 0.950 . S
H389 C367 0.950 . S
H390 C398 0.929 . S
H391 C400 0.930 . S
H392 C402 0.930 . S
H393 C405 0.929 . S
H394 C408 0.930 . S
H395 C410 0.960 . S
H396 C410 0.960 . S
H397 C410 0.960 . S
C398 H390 0.929 . S
C398 C399 1.377 . S
C398 C400 1.384 . S
C399 C398 1.377 . S
C399 C405 1.390 . S
C400 H391 0.930 . S
C400 C398 1.384 . S
C400 C401 1.372 . S
C401 C400 1.372 . S
C401 C402 1.400 . S
C401 C406 1.490 . S
C402 H392 0.930 . S
C402 C401 1.400 . S
C402 C405 1.386 . S
H403 C419 0.930 . S
H404 C420 0.931 . S
C405 H393 0.929 . S
C405 C399 1.390 . S
C405 C402 1.386 . S
C406 C401 1.490 . S
C406 C408 1.395 . S
C406 C409 1.403 . S
H407 C413 0.930 . S
C408 H394 0.930 . S
C408 C406 1.395 . S
C408 C411 1.403 . S
C409 C406 1.403 . S
C409 C410 1.524 . S
C409 C413 1.400 . S
C410 H395 0.960 . S
C410 H396 0.960 . S
C410 H397 0.960 . S
C410 C409 1.524 . S
C411 C408 1.403 . S
C411 C412 1.392 . S
C411 C415 1.495 . S
C412 C411 1.392 . S
C412 C413 1.385 . S
C412 C414 1.478 . S
C413 H407 0.930 . S
C413 C409 1.400 . S
C413 C412 1.385 . S
C414 C412 1.478 . S
C414 C416 1.381 . S
C414 C420 1.383 . S
C415 C411 1.495 . S
C415 H421 0.959 . S
C415 H422 0.961 . S
C415 H423 0.960 . S
C416 C414 1.381 . S
C416 C417 1.394 . S
C416 H424 0.930 . S
C417 C416 1.394 . S
C417 C418 1.383 . S
C417 H425 0.929 . S
C418 C417 1.383 . S
C418 C419 1.377 . S
C419 H403 0.930 . S
C419 C418 1.377 . S
C419 C420 1.379 . S
C420 H404 0.931 . S
C420 C414 1.383 . S
C420 C419 1.379 . S
H421 C415 0.959 . S
H422 C415 0.961 . S
H423 C415 0.960 . S
H424 C416 0.930 . S
H425 C417 0.929 . S
H426 C434 0.929 . S
H427 C436 0.930 . S
H428 C438 0.930 . S
H429 C441 0.929 . S
H430 C444 0.930 . S
H431 C446 0.960 . S
H432 C446 0.960 . S
H433 C446 0.960 . S
C434 H426 0.929 . S
C434 C435 1.377 . S
C434 C436 1.384 . S
C435 C434 1.377 . S
C435 C441 1.390 . S
C436 H427 0.930 . S
C436 C434 1.384 . S
C436 C437 1.372 . S
C437 C436 1.372 . S
C437 C438 1.400 . S
C437 C442 1.490 . S
C438 H428 0.930 . S
C438 C437 1.400 . S
C438 C441 1.386 . S
H439 C455 0.930 . S
H440 C456 0.931 . S
C441 H429 0.929 . S
C441 C435 1.390 . S
C441 C438 1.386 . S
C442 C437 1.490 . S
C442 C444 1.395 . S
C442 C445 1.403 . S
H443 C449 0.930 . S
C444 H430 0.930 . S
C444 C442 1.395 . S
C444 C447 1.403 . S
C445 C442 1.403 . S
C445 C446 1.524 . S
C445 C449 1.400 . S
C446 H431 0.960 . S
C446 H432 0.960 . S
C446 H433 0.960 . S
C446 C445 1.524 . S
C447 C444 1.403 . S
C447 C448 1.392 . S
C447 C451 1.495 . S
C448 C447 1.392 . S
C448 C449 1.385 . S
C448 C450 1.478 . S
C449 H443 0.930 . S
C449 C445 1.400 . S
C449 C448 1.385 . S
C450 C448 1.478 . S
C450 C452 1.381 . S
C450 C456 1.383 . S
C451 C447 1.495 . S
C451 H457 0.959 . S
C451 H458 0.961 . S
C451 H459 0.960 . S
C452 C450 1.381 . S
C452 C453 1.394 . S
C452 H460 0.930 . S
C453 C452 1.394 . S
C453 C454 1.383 . S
C453 H461 0.929 . S
C454 C453 1.383 . S
C454 C455 1.377 . S
C455 H439 0.930 . S
C455 C454 1.377 . S
C455 C456 1.379 . S
C456 H440 0.931 . S
C456 C450 1.383 . S
C456 C455 1.379 . S
H457 C451 0.959 . S
H458 C451 0.961 . S
H459 C451 0.960 . S
H460 C452 0.930 . S
H461 C453 0.929 . S
H462 C470 0.929 . S
H463 C472 0.930 . S
H464 C474 0.930 . S
H465 C477 0.929 . S
H466 C480 0.930 . S
H467 C482 0.960 . S
H468 C482 0.960 . S
H469 C482 0.960 . S
C470 H462 0.929 . S
C470 C471 1.377 . S
C470 C472 1.384 . S
C471 C470 1.377 . S
C471 C477 1.390 . S
C472 H463 0.930 . S
C472 C470 1.384 . S
C472 C473 1.372 . S
C473 C472 1.372 . S
C473 C474 1.400 . S
C473 C478 1.490 . S
C474 H464 0.930 . S
C474 C473 1.400 . S
C474 C477 1.386 . S
H475 C491 0.930 . S
H476 C492 0.931 . S
C477 H465 0.929 . S
C477 C471 1.390 . S
C477 C474 1.386 . S
C478 C473 1.490 . S
C478 C480 1.395 . S
C478 C481 1.403 . S
H479 C485 0.930 . S
C480 H466 0.930 . S
C480 C478 1.395 . S
C480 C483 1.403 . S
C481 C478 1.403 . S
C481 C482 1.524 . S
C481 C485 1.400 . S
C482 H467 0.960 . S
C482 H468 0.960 . S
C482 H469 0.960 . S
C482 C481 1.524 . S
C483 C480 1.403 . S
C483 C484 1.392 . S
C483 C487 1.495 . S
C484 C483 1.392 . S
C484 C485 1.385 . S
C484 C486 1.478 . S
C485 H479 0.930 . S
C485 C481 1.400 . S
C485 C484 1.385 . S
C486 C484 1.478 . S
C486 C488 1.381 . S
C486 C492 1.383 . S
C487 C483 1.495 . S
C487 H493 0.959 . S
C487 H494 0.961 . S
C487 H495 0.960 . S
C488 C486 1.381 . S
C488 C489 1.394 . S
C488 H496 0.930 . S
C489 C488 1.394 . S
C489 C490 1.383 . S
C489 H497 0.929 . S
C490 C489 1.383 . S
C490 C491 1.377 . S
C491 H475 0.930 . S
C491 C490 1.377 . S
C491 C492 1.379 . S
C492 H476 0.931 . S
C492 C486 1.383 . S
C492 C491 1.379 . S
H493 C487 0.959 . S
H494 C487 0.961 . S
H495 C487 0.960 . S
H496 C488 0.930 . S
H497 C489 0.929 . S
H498 C506 0.929 . S
H499 C508 0.930 . S
H500 C510 0.930 . S
H501 C513 0.929 . S
H502 C516 0.930 . S
H503 C518 0.960 . S
H504 C518 0.960 . S
H505 C518 0.960 . S
C506 H498 0.929 . S
C506 C507 1.377 . S
C506 C508 1.384 . S
C507 C506 1.377 . S
C507 C513 1.390 . S
C508 H499 0.930 . S
C508 C506 1.384 . S
C508 C509 1.372 . S
C509 C508 1.372 . S
C509 C510 1.400 . S
C509 C514 1.490 . S
C510 H500 0.930 . S
C510 C509 1.400 . S
C510 C513 1.386 . S
H511 C527 0.930 . S
H512 C528 0.931 . S
C513 H501 0.929 . S
C513 C507 1.390 . S
C513 C510 1.386 . S
C514 C509 1.490 . S
C514 C516 1.395 . S
C514 C517 1.403 . S
H515 C521 0.930 . S
C516 H502 0.930 . S
C516 C514 1.395 . S
C516 C519 1.403 . S
C517 C514 1.403 . S
C517 C518 1.524 . S
C517 C521 1.400 . S
C518 H503 0.960 . S
C518 H504 0.960 . S
C518 H505 0.960 . S
C518 C517 1.524 . S
C519 C516 1.403 . S
C519 C520 1.392 . S
C519 C523 1.495 . S
C520 C519 1.392 . S
C520 C521 1.385 . S
C520 C522 1.478 . S
C521 H515 0.930 . S
C521 C517 1.400 . S
C521 C520 1.385 . S
C522 C520 1.478 . S
C522 C524 1.381 . S
C522 C528 1.383 . S
C523 C519 1.495 . S
C523 H529 0.959 . S
C523 H530 0.961 . S
C523 H531 0.960 . S
C524 C522 1.381 . S
C524 C525 1.394 . S
C524 H532 0.930 . S
C525 C524 1.394 . S
C525 C526 1.383 . S
C525 H533 0.929 . S
C526 C525 1.383 . S
C526 C527 1.377 . S
C527 H511 0.930 . S
C527 C526 1.377 . S
C527 C528 1.379 . S
C528 H512 0.931 . S
C528 C522 1.383 . S
C528 C527 1.379 . S
H529 C523 0.959 . S
H530 C523 0.961 . S
H531 C523 0.960 . S
H532 C524 0.930 . S
H533 C525 0.929 . S
H534 C542 0.929 . S
H535 C544 0.930 . S
H536 C546 0.930 . S
H537 C549 0.929 . S
H538 C552 0.930 . S
H539 C554 0.960 . S
H540 C554 0.960 . S
H541 C554 0.960 . S
C542 H534 0.929 . S
C542 C543 1.377 . S
C542 C544 1.384 . S
C543 C542 1.377 . S
C543 C549 1.390 . S
C544 H535 0.930 . S
C544 C542 1.384 . S
C544 C545 1.372 . S
C545 C544 1.372 . S
C545 C546 1.400 . S
C545 C550 1.490 . S
C546 H536 0.930 . S
C546 C545 1.400 . S
C546 C549 1.386 . S
H547 C563 0.930 . S
H548 C564 0.931 . S
C549 H537 0.929 . S
C549 C543 1.390 . S
C549 C546 1.386 . S
C550 C545 1.490 . S
C550 C552 1.395 . S
C550 C553 1.403 . S
H551 C557 0.930 . S
C552 H538 0.930 . S
C552 C550 1.395 . S
C552 C555 1.403 . S
C553 C550 1.403 . S
C553 C554 1.524 . S
C553 C557 1.400 . S
C554 H539 0.960 . S
C554 H540 0.960 . S
C554 H541 0.960 . S
C554 C553 1.524 . S
C555 C552 1.403 . S
C555 C556 1.392 . S
C555 C559 1.495 . S
C556 C555 1.392 . S
C556 C557 1.385 . S
C556 C558 1.478 . S
C557 H551 0.930 . S
C557 C553 1.400 . S
C557 C556 1.385 . S
C558 C556 1.478 . S
C558 C560 1.381 . S
C558 C564 1.383 . S
C559 C555 1.495 . S
C559 H565 0.959 . S
C559 H566 0.961 . S
C559 H567 0.960 . S
C560 C558 1.381 . S
C560 C561 1.394 . S
C560 H568 0.930 . S
C561 C560 1.394 . S
C561 C562 1.383 . S
C561 H569 0.929 . S
C562 C561 1.383 . S
C562 C563 1.377 . S
C563 H547 0.930 . S
C563 C562 1.377 . S
C563 C564 1.379 . S
C564 H548 0.931 . S
C564 C558 1.383 . S
C564 C563 1.379 . S
H565 C559 0.959 . S
H566 C559 0.961 . S
H567 C559 0.960 . S
H568 C560 0.930 . S
H569 C561 0.929 . S
H570 C578 0.929 . S
H571 C580 0.930 . S
H572 C582 0.930 . S
H573 C585 0.929 . S
H574 C588 0.930 . S
H575 C590 0.960 . S
H576 C590 0.960 . S
H577 C590 0.960 . S
C578 H570 0.929 . S
C578 C579 1.377 . S
C578 C580 1.384 . S
C579 C578 1.377 . S
C579 C585 1.390 . S
C580 H571 0.930 . S
C580 C578 1.384 . S
C580 C581 1.372 . S
C581 C580 1.372 . S
C581 C582 1.400 . S
C581 C586 1.490 . S
C582 H572 0.930 . S
C582 C581 1.400 . S
C582 C585 1.386 . S
H583 C599 0.930 . S
H584 C600 0.931 . S
C585 H573 0.929 . S
C585 C579 1.390 . S
C585 C582 1.386 . S
C586 C581 1.490 . S
C586 C588 1.395 . S
C586 C589 1.403 . S
H587 C593 0.930 . S
C588 H574 0.930 . S
C588 C586 1.395 . S
C588 C591 1.403 . S
C589 C586 1.403 . S
C589 C590 1.524 . S
C589 C593 1.400 . S
C590 H575 0.960 . S
C590 H576 0.960 . S
C590 H577 0.960 . S
C590 C589 1.524 . S
C591 C588 1.403 . S
C591 C592 1.392 . S
C591 C595 1.495 . S
C592 C591 1.392 . S
C592 C593 1.385 . S
C592 C594 1.478 . S
C593 H587 0.930 . S
C593 C589 1.400 . S
C593 C592 1.385 . S
C594 C592 1.478 . S
C594 C596 1.381 . S
C594 C600 1.383 . S
C595 C591 1.495 . S
C595 H601 0.959 . S
C595 H602 0.961 . S
C595 H603 0.960 . S
C596 C594 1.381 . S
C596 C597 1.394 . S
C596 H604 0.930 . S
C597 C596 1.394 . S
C597 C598 1.383 . S
C597 H605 0.929 . S
C598 C597 1.383 . S
C598 C599 1.377 . S
C599 H583 0.930 . S
C599 C598 1.377 . S
C599 C600 1.379 . S
C600 H584 0.931 . S
C600 C594 1.383 . S
C600 C599 1.379 . S
H601 C595 0.959 . S
H602 C595 0.961 . S
H603 C595 0.960 . S
H604 C596 0.930 . S
H605 C597 0.929 . S
H606 C614 0.929 . S
H607 C616 0.930 . S
H608 C618 0.930 . S
H609 C621 0.929 . S
H610 C624 0.930 . S
H611 C626 0.960 . S
H612 C626 0.960 . S
H613 C626 0.960 . S
C614 H606 0.929 . S
C614 C615 1.377 . S
C614 C616 1.384 . S
C615 C614 1.377 . S
C615 C621 1.390 . S
C616 H607 0.930 . S
C616 C614 1.384 . S
C616 C617 1.372 . S
C617 C616 1.372 . S
C617 C618 1.400 . S
C617 C622 1.490 . S
C618 H608 0.930 . S
C618 C617 1.400 . S
C618 C621 1.386 . S
H619 C635 0.930 . S
H620 C636 0.931 . S
C621 H609 0.929 . S
C621 C615 1.390 . S
C621 C618 1.386 . S
C622 C617 1.490 . S
C622 C624 1.395 . S
C622 C625 1.403 . S
H623 C629 0.930 . S
C624 H610 0.930 . S
C624 C622 1.395 . S
C624 C627 1.403 . S
C625 C622 1.403 . S
C625 C626 1.524 . S
C625 C629 1.400 . S
C626 H611 0.960 . S
C626 H612 0.960 . S
C626 H613 0.960 . S
C626 C625 1.524 . S
C627 C624 1.403 . S
C627 C628 1.392 . S
C627 C631 1.495 . S
C628 C627 1.392 . S
C628 C629 1.385 . S
C628 C630 1.478 . S
C629 H623 0.930 . S
C629 C625 1.400 . S
C629 C628 1.385 . S
C630 C628 1.478 . S
C630 C632 1.381 . S
C630 C636 1.383 . S
C631 C627 1.495 . S
C631 H637 0.959 . S
C631 H638 0.961 . S
C631 H639 0.960 . S
C632 C630 1.381 . S
C632 C633 1.394 . S
C632 H640 0.930 . S
C633 C632 1.394 . S
C633 C634 1.383 . S
C633 H641 0.929 . S
C634 C633 1.383 . S
C634 C635 1.377 . S
C635 H619 0.930 . S
C635 C634 1.377 . S
C635 C636 1.379 . S
C636 H620 0.931 . S
C636 C630 1.383 . S
C636 C635 1.379 . S
H637 C631 0.959 . S
H638 C631 0.961 . S
H639 C631 0.960 . S
H640 C632 0.930 . S
H641 C633 0.929 . S
H642 C650 0.929 . S
H643 C652 0.930 . S
H644 C654 0.930 . S
H645 C657 0.929 . S
H646 C660 0.930 . S
H647 C662 0.960 . S
H648 C662 0.960 . S
H649 C662 0.960 . S
C650 H642 0.929 . S
C650 C651 1.377 . S
C650 C652 1.384 . S
C651 C650 1.377 . S
C651 C657 1.390 . S
C652 H643 0.930 . S
C652 C650 1.384 . S
C652 C653 1.372 . S
C653 C652 1.372 . S
C653 C654 1.400 . S
C653 C658 1.490 . S
C654 H644 0.930 . S
C654 C653 1.400 . S
C654 C657 1.386 . S
H655 C671 0.930 . S
H656 C672 0.931 . S
C657 H645 0.929 . S
C657 C651 1.390 . S
C657 C654 1.386 . S
C658 C653 1.490 . S
C658 C660 1.395 . S
C658 C661 1.403 . S
H659 C665 0.930 . S
C660 H646 0.930 . S
C660 C658 1.395 . S
C660 C663 1.403 . S
C661 C658 1.403 . S
C661 C662 1.524 . S
C661 C665 1.400 . S
C662 H647 0.960 . S
C662 H648 0.960 . S
C662 H649 0.960 . S
C662 C661 1.524 . S
C663 C660 1.403 . S
C663 C664 1.392 . S
C663 C667 1.495 . S
C664 C663 1.392 . S
C664 C665 1.385 . S
C664 C666 1.478 . S
C665 H659 0.930 . S
C665 C661 1.400 . S
C665 C664 1.385 . S
C666 C664 1.478 . S
C666 C668 1.381 . S
C666 C672 1.383 . S
C667 C663 1.495 . S
C667 H673 0.959 . S
C667 H674 0.961 . S
C667 H675 0.960 . S
C668 C666 1.381 . S
C668 C669 1.394 . S
C668 H676 0.930 . S
C669 C668 1.394 . S
C669 C670 1.383 . S
C669 H677 0.929 . S
C670 C669 1.383 . S
C670 C671 1.377 . S
C671 H655 0.930 . S
C671 C670 1.377 . S
C671 C672 1.379 . S
C672 H656 0.931 . S
C672 C666 1.383 . S
C672 C671 1.379 . S
H673 C667 0.959 . S
H674 C667 0.961 . S
H675 C667 0.960 . S
H676 C668 0.930 . S
H677 C669 0.929 . S
H678 C686 0.929 . S
H679 C688 0.930 . S
H680 C690 0.930 . S
H681 C693 0.929 . S
H682 C696 0.930 . S
H683 C698 0.960 . S
H684 C698 0.960 . S
H685 C698 0.960 . S
C686 H678 0.929 . S
C686 C687 1.377 . S
C686 C688 1.384 . S
C687 C686 1.377 . S
C687 C693 1.390 . S
C688 H679 0.930 . S
C688 C686 1.384 . S
C688 C689 1.372 . S
C689 C688 1.372 . S
C689 C690 1.400 . S
C689 C694 1.490 . S
C690 H680 0.930 . S
C690 C689 1.400 . S
C690 C693 1.386 . S
H691 C707 0.930 . S
H692 C708 0.931 . S
C693 H681 0.929 . S
C693 C687 1.390 . S
C693 C690 1.386 . S
C694 C689 1.490 . S
C694 C696 1.395 . S
C694 C697 1.403 . S
H695 C701 0.930 . S
C696 H682 0.930 . S
C696 C694 1.395 . S
C696 C699 1.403 . S
C697 C694 1.403 . S
C697 C698 1.524 . S
C697 C701 1.400 . S
C698 H683 0.960 . S
C698 H684 0.960 . S
C698 H685 0.960 . S
C698 C697 1.524 . S
C699 C696 1.403 . S
C699 C700 1.392 . S
C699 C703 1.495 . S
C700 C699 1.392 . S
C700 C701 1.385 . S
C700 C702 1.478 . S
C701 H695 0.930 . S
C701 C697 1.400 . S
C701 C700 1.385 . S
C702 C700 1.478 . S
C702 C704 1.381 . S
C702 C708 1.383 . S
C703 C699 1.495 . S
C703 H709 0.959 . S
C703 H710 0.961 . S
C703 H711 0.960 . S
C704 C702 1.381 . S
C704 C705 1.394 . S
C704 H712 0.930 . S
C705 C704 1.394 . S
C705 C706 1.383 . S
C705 H713 0.929 . S
C706 C705 1.383 . S
C706 C707 1.377 . S
C707 H691 0.930 . S
C707 C706 1.377 . S
C707 C708 1.379 . S
C708 H692 0.931 . S
C708 C702 1.383 . S
C708 C707 1.379 . S
H709 C703 0.959 . S
H710 C703 0.961 . S
H711 C703 0.960 . S
H712 C704 0.930 . S
H713 C705 0.929 . S
H714 C722 0.929 . S
H715 C724 0.930 . S
H716 C726 0.930 . S
H717 C729 0.929 . S
H718 C732 0.930 . S
H719 C734 0.960 . S
H720 C734 0.960 . S
H721 C734 0.960 . S
C722 H714 0.929 . S
C722 C723 1.377 . S
C722 C724 1.384 . S
C723 C722 1.377 . S
C723 C729 1.390 . S
C724 H715 0.930 . S
C724 C722 1.384 . S
C724 C725 1.372 . S
C725 C724 1.372 . S
C725 C726 1.400 . S
C725 C730 1.490 . S
C726 H716 0.930 . S
C726 C725 1.400 . S
C726 C729 1.386 . S
H727 C743 0.930 . S
H728 C744 0.931 . S
C729 H717 0.929 . S
C729 C723 1.390 . S
C729 C726 1.386 . S
C730 C725 1.490 . S
C730 C732 1.395 . S
C730 C733 1.403 . S
H731 C737 0.930 . S
C732 H718 0.930 . S
C732 C730 1.395 . S
C732 C735 1.403 . S
C733 C730 1.403 . S
C733 C734 1.524 . S
C733 C737 1.400 . S
C734 H719 0.960 . S
C734 H720 0.960 . S
C734 H721 0.960 . S
C734 C733 1.524 . S
C735 C732 1.403 . S
C735 C736 1.392 . S
C735 C739 1.495 . S
C736 C735 1.392 . S
C736 C737 1.385 . S
C736 C738 1.478 . S
C737 H731 0.930 . S
C737 C733 1.400 . S
C737 C736 1.385 . S
C738 C736 1.478 . S
C738 C740 1.381 . S
C738 C744 1.383 . S
C739 C735 1.495 . S
C739 H745 0.959 . S
C739 H746 0.961 . S
C739 H747 0.960 . S
C740 C738 1.381 . S
C740 C741 1.394 . S
C740 H748 0.930 . S
C741 C740 1.394 . S
C741 C742 1.383 . S
C741 H749 0.929 . S
C742 C741 1.383 . S
C742 C743 1.377 . S
C743 H727 0.930 . S
C743 C742 1.377 . S
C743 C744 1.379 . S
C744 H728 0.931 . S
C744 C738 1.383 . S
C744 C743 1.379 . S
H745 C739 0.959 . S
H746 C739 0.961 . S
H747 C739 0.960 . S
H748 C740 0.930 . S
H749 C741 0.929 . S
H750 C758 0.929 . S
H751 C760 0.930 . S
H752 C762 0.930 . S
H753 C765 0.929 . S
H754 C768 0.930 . S
H755 C770 0.960 . S
H756 C770 0.960 . S
H757 C770 0.960 . S
C758 H750 0.929 . S
C758 C759 1.377 . S
C758 C760 1.384 . S
C759 C758 1.377 . S
C759 C765 1.390 . S
C760 H751 0.930 . S
C760 C758 1.384 . S
C760 C761 1.372 . S
C761 C760 1.372 . S
C761 C762 1.400 . S
C761 C766 1.490 . S
C762 H752 0.930 . S
C762 C761 1.400 . S
C762 C765 1.386 . S
H763 C779 0.930 . S
H764 C780 0.931 . S
C765 H753 0.929 . S
C765 C759 1.390 . S
C765 C762 1.386 . S
C766 C761 1.490 . S
C766 C768 1.395 . S
C766 C769 1.403 . S
H767 C773 0.930 . S
C768 H754 0.930 . S
C768 C766 1.395 . S
C768 C771 1.403 . S
C769 C766 1.403 . S
C769 C770 1.524 . S
C769 C773 1.400 . S
C770 H755 0.960 . S
C770 H756 0.960 . S
C770 H757 0.960 . S
C770 C769 1.524 . S
C771 C768 1.403 . S
C771 C772 1.392 . S
C771 C775 1.495 . S
C772 C771 1.392 . S
C772 C773 1.385 . S
C772 C774 1.478 . S
C773 H767 0.930 . S
C773 C769 1.400 . S
C773 C772 1.385 . S
C774 C772 1.478 . S
C774 C776 1.381 . S
C774 C780 1.383 . S
C775 C771 1.495 . S
C775 H781 0.959 . S
C775 H782 0.961 . S
C775 H783 0.960 . S
C776 C774 1.381 . S
C776 C777 1.394 . S
C776 H784 0.930 . S
C777 C776 1.394 . S
C777 C778 1.383 . S
C777 H785 0.929 . S
C778 C777 1.383 . S
C778 C779 1.377 . S
C779 H763 0.930 . S
C779 C778 1.377 . S
C779 C780 1.379 . S
C780 H764 0.931 . S
C780 C774 1.383 . S
C780 C779 1.379 . S
H781 C775 0.959 . S
H782 C775 0.961 . S
H783 C775 0.960 . S
H784 C776 0.930 . S
H785 C777 0.929 . S
H786 C794 0.929 . S
H787 C796 0.930 . S
H788 C798 0.930 . S
H789 C801 0.929 . S
H790 C804 0.930 . S
H791 C806 0.960 . S
H792 C806 0.960 . S
H793 C806 0.960 . S
C794 H786 0.929 . S
C794 C795 1.377 . S
C794 C796 1.384 . S
C795 C794 1.377 . S
C795 C801 1.390 . S
C796 H787 0.930 . S
C796 C794 1.384 . S
C796 C797 1.372 . S
C797 C796 1.372 . S
C797 C798 1.400 . S
C797 C802 1.490 . S
C798 H788 0.930 . S
C798 C797 1.400 . S
C798 C801 1.386 . S
H799 C815 0.930 . S
H800 C816 0.931 . S
C801 H789 0.929 . S
C801 C795 1.390 . S
C801 C798 1.386 . S
C802 C797 1.490 . S
C802 C804 1.395 . S
C802 C805 1.403 . S
H803 C809 0.930 . S
C804 H790 0.930 . S
C804 C802 1.395 . S
C804 C807 1.403 . S
C805 C802 1.403 . S
C805 C806 1.524 . S
C805 C809 1.400 . S
C806 H791 0.960 . S
C806 H792 0.960 . S
C806 H793 0.960 . S
C806 C805 1.524 . S
C807 C804 1.403 . S
C807 C808 1.392 . S
C807 C811 1.495 . S
C808 C807 1.392 . S
C808 C809 1.385 . S
C808 C810 1.478 . S
C809 H803 0.930 . S
C809 C805 1.400 . S
C809 C808 1.385 . S
C810 C808 1.478 . S
C810 C812 1.381 . S
C810 C816 1.383 . S
C811 C807 1.495 . S
C811 H817 0.959 . S
C811 H818 0.961 . S
C811 H819 0.960 . S
C812 C810 1.381 . S
C812 C813 1.394 . S
C812 H820 0.930 . S
C813 C812 1.394 . S
C813 C814 1.383 . S
C813 H821 0.929 . S
C814 C813 1.383 . S
C814 C815 1.377 . S
C815 H799 0.930 . S
C815 C814 1.377 . S
C815 C816 1.379 . S
C816 H800 0.931 . S
C816 C810 1.383 . S
C816 C815 1.379 . S
H817 C811 0.959 . S
H818 C811 0.961 . S
H819 C811 0.960 . S
H820 C812 0.930 . S
H821 C813 0.929 . S
H822 C830 0.929 . S
H823 C832 0.930 . S
H824 C834 0.930 . S
H825 C837 0.929 . S
H826 C840 0.930 . S
H827 C842 0.960 . S
H828 C842 0.960 . S
H829 C842 0.960 . S
C830 H822 0.929 . S
C830 C831 1.377 . S
C830 C832 1.384 . S
C831 C830 1.377 . S
C831 C837 1.390 . S
C832 H823 0.930 . S
C832 C830 1.384 . S
C832 C833 1.372 . S
C833 C832 1.372 . S
C833 C834 1.400 . S
C833 C838 1.490 . S
C834 H824 0.930 . S
C834 C833 1.400 . S
C834 C837 1.386 . S
H835 C851 0.930 . S
H836 C852 0.931 . S
C837 H825 0.929 . S
C837 C831 1.390 . S
C837 C834 1.386 . S
C838 C833 1.490 . S
C838 C840 1.395 . S
C838 C841 1.403 . S
H839 C845 0.930 . S
C840 H826 0.930 . S
C840 C838 1.395 . S
C840 C843 1.403 . S
C841 C838 1.403 . S
C841 C842 1.524 . S
C841 C845 1.400 . S
C842 H827 0.960 . S
C842 H828 0.960 . S
C842 H829 0.960 . S
C842 C841 1.524 . S
C843 C840 1.403 . S
C843 C844 1.392 . S
C843 C847 1.495 . S
C844 C843 1.392 . S
C844 C845 1.385 . S
C844 C846 1.478 . S
C845 H839 0.930 . S
C845 C841 1.400 . S
C845 C844 1.385 . S
C846 C844 1.478 . S
C846 C848 1.381 . S
C846 C852 1.383 . S
C847 C843 1.495 . S
C847 H853 0.959 . S
C847 H854 0.961 . S
C847 H855 0.960 . S
C848 C846 1.381 . S
C848 C849 1.394 . S
C848 H856 0.930 . S
C849 C848 1.394 . S
C849 C850 1.383 . S
C849 H857 0.929 . S
C850 C849 1.383 . S
C850 C851 1.377 . S
C851 H835 0.930 . S
C851 C850 1.377 . S
C851 C852 1.379 . S
C852 H836 0.931 . S
C852 C846 1.383 . S
C852 C851 1.379 . S
H853 C847 0.959 . S
H854 C847 0.961 . S
H855 C847 0.960 . S
H856 C848 0.930 . S
H857 C849 0.929 . S
H858 C866 0.929 . S
H859 C868 0.930 . S
H860 C870 0.930 . S
H861 C873 0.929 . S
H862 C876 0.930 . S
H863 C878 0.960 . S
H864 C878 0.960 . S
H865 C878 0.960 . S
C866 H858 0.929 . S
C866 C867 1.377 . S
C866 C868 1.384 . S
C867 C866 1.377 . S
C867 C873 1.390 . S
C868 H859 0.930 . S
C868 C866 1.384 . S
C868 C869 1.372 . S
C869 C868 1.372 . S
C869 C870 1.400 . S
C869 C874 1.490 . S
C870 H860 0.930 . S
C870 C869 1.400 . S
C870 C873 1.386 . S
H871 C887 0.930 . S
H872 C888 0.931 . S
C873 H861 0.929 . S
C873 C867 1.390 . S
C873 C870 1.386 . S
C874 C869 1.490 . S
C874 C876 1.395 . S
C874 C877 1.403 . S
H875 C881 0.930 . S
C876 H862 0.930 . S
C876 C874 1.395 . S
C876 C879 1.403 . S
C877 C874 1.403 . S
C877 C878 1.524 . S
C877 C881 1.400 . S
C878 H863 0.960 . S
C878 H864 0.960 . S
C878 H865 0.960 . S
C878 C877 1.524 . S
C879 C876 1.403 . S
C879 C880 1.392 . S
C879 C883 1.495 . S
C880 C879 1.392 . S
C880 C881 1.385 . S
C880 C882 1.478 . S
C881 H875 0.930 . S
C881 C877 1.400 . S
C881 C880 1.385 . S
C882 C880 1.478 . S
C882 C884 1.381 . S
C882 C888 1.383 . S
C883 C879 1.495 . S
C883 H889 0.959 . S
C883 H890 0.961 . S
C883 H891 0.960 . S
C884 C882 1.381 . S
C884 C885 1.394 . S
C884 H892 0.930 . S
C885 C884 1.394 . S
C885 C886 1.383 . S
C885 H893 0.929 . S
C886 C885 1.383 . S
C886 C887 1.377 . S
C887 H871 0.930 . S
C887 C886 1.377 . S
C887 C888 1.379 . S
C888 H872 0.931 . S
C888 C882 1.383 . S
C888 C887 1.379 . S
H889 C883 0.959 . S
H890 C883 0.961 . S
H891 C883 0.960 . S
H892 C884 0.930 . S
H893 C885 0.929 . S
H894 C902 0.929 . S
H895 C904 0.930 . S
H896 C906 0.930 . S
H897 C909 0.929 . S
H898 C912 0.930 . S
H899 C914 0.960 . S
H900 C914 0.960 . S
H901 C914 0.960 . S
C902 H894 0.929 . S
C902 C903 1.377 . S
C902 C904 1.384 . S
C903 C902 1.377 . S
C903 C909 1.390 . S
C904 H895 0.930 . S
C904 C902 1.384 . S
C904 C905 1.372 . S
C905 C904 1.372 . S
C905 C906 1.400 . S
C905 C910 1.490 . S
C906 H896 0.930 . S
C906 C905 1.400 . S
C906 C909 1.386 . S
H907 C923 0.930 . S
H908 C924 0.931 . S
C909 H897 0.929 . S
C909 C903 1.390 . S
C909 C906 1.386 . S
C910 C905 1.490 . S
C910 C912 1.395 . S
C910 C913 1.403 . S
H911 C917 0.930 . S
C912 H898 0.930 . S
C912 C910 1.395 . S
C912 C915 1.403 . S
C913 C910 1.403 . S
C913 C914 1.524 . S
C913 C917 1.400 . S
C914 H899 0.960 . S
C914 H900 0.960 . S
C914 H901 0.960 . S
C914 C913 1.524 . S
C915 C912 1.403 . S
C915 C916 1.392 . S
C915 C919 1.495 . S
C916 C915 1.392 . S
C916 C917 1.385 . S
C916 C918 1.478 . S
C917 H911 0.930 . S
C917 C913 1.400 . S
C917 C916 1.385 . S
C918 C916 1.478 . S
C918 C920 1.381 . S
C918 C924 1.383 . S
C919 C915 1.495 . S
C919 H925 0.959 . S
C919 H926 0.961 . S
C919 H927 0.960 . S
C920 C918 1.381 . S
C920 C921 1.394 . S
C920 H928 0.930 . S
C921 C920 1.394 . S
C921 C922 1.383 . S
C921 H929 0.929 . S
C922 C921 1.383 . S
C922 C923 1.377 . S
C923 H907 0.930 . S
C923 C922 1.377 . S
C923 C924 1.379 . S
C924 H908 0.931 . S
C924 C918 1.383 . S
C924 C923 1.379 . S
H925 C919 0.959 . S
H926 C919 0.961 . S
H927 C919 0.960 . S
H928 C920 0.930 . S
H929 C921 0.929 . S
H930 C938 0.929 . S
H931 C940 0.930 . S
H932 C942 0.930 . S
H933 C945 0.929 . S
H934 C948 0.930 . S
H935 C950 0.960 . S
H936 C950 0.960 . S
H937 C950 0.960 . S
C938 H930 0.929 . S
C938 C939 1.377 . S
C938 C940 1.384 . S
C939 C938 1.377 . S
C939 C945 1.390 . S
C940 H931 0.930 . S
C940 C938 1.384 . S
C940 C941 1.372 . S
C941 C940 1.372 . S
C941 C942 1.400 . S
C941 C946 1.490 . S
C942 H932 0.930 . S
C942 C941 1.400 . S
C942 C945 1.386 . S
H943 C959 0.930 . S
H944 C960 0.931 . S
C945 H933 0.929 . S
C945 C939 1.390 . S
C945 C942 1.386 . S
C946 C941 1.490 . S
C946 C948 1.395 . S
C946 C949 1.403 . S
H947 C953 0.930 . S
C948 H934 0.930 . S
C948 C946 1.395 . S
C948 C951 1.403 . S
C949 C946 1.403 . S
C949 C950 1.524 . S
C949 C953 1.400 . S
C950 H935 0.960 . S
C950 H936 0.960 . S
C950 H937 0.960 . S
C950 C949 1.524 . S
C951 C948 1.403 . S
C951 C952 1.392 . S
C951 C955 1.495 . S
C952 C951 1.392 . S
C952 C953 1.385 . S
C952 C954 1.478 . S
C953 H947 0.930 . S
C953 C949 1.400 . S
C953 C952 1.385 . S
C954 C952 1.478 . S
C954 C956 1.381 . S
C954 C960 1.383 . S
C955 C951 1.495 . S
C955 H961 0.959 . S
C955 H962 0.961 . S
C955 H963 0.960 . S
C956 C954 1.381 . S
C956 C957 1.394 . S
C956 H964 0.930 . S
C957 C956 1.394 . S
C957 C958 1.383 . S
C957 H965 0.929 . S
C958 C957 1.383 . S
C958 C959 1.377 . S
C959 H943 0.930 . S
C959 C958 1.377 . S
C959 C960 1.379 . S
C960 H944 0.931 . S
C960 C954 1.383 . S
C960 C959 1.379 . S
H961 C955 0.959 . S
H962 C955 0.961 . S
H963 C955 0.960 . S
H964 C956 0.930 . S
H965 C957 0.929 . S
H966 C974 0.929 . S
H967 C976 0.930 . S
H968 C978 0.930 . S
H969 C981 0.929 . S
H970 C984 0.930 . S
H971 C986 0.960 . S
H972 C986 0.960 . S
H973 C986 0.960 . S
C974 H966 0.929 . S
C974 C975 1.377 . S
C974 C976 1.384 . S
C975 C974 1.377 . S
C975 C981 1.390 . S
C976 H967 0.930 . S
C976 C974 1.384 . S
C976 C977 1.372 . S
C977 C976 1.372 . S
C977 C978 1.400 . S
C977 C982 1.490 . S
C978 H968 0.930 . S
C978 C977 1.400 . S
C978 C981 1.386 . S
H979 C995 0.930 . S
H980 C996 0.931 . S
C981 H969 0.929 . S
C981 C975 1.390 . S
C981 C978 1.386 . S
C982 C977 1.490 . S
C982 C984 1.395 . S
C982 C985 1.403 . S
H983 C989 0.930 . S
C984 H970 0.930 . S
C984 C982 1.395 . S
C984 C987 1.403 . S
C985 C982 1.403 . S
C985 C986 1.524 . S
C985 C989 1.400 . S
C986 H971 0.960 . S
C986 H972 0.960 . S
C986 H973 0.960 . S
C986 C985 1.524 . S
C987 C984 1.403 . S
C987 C988 1.392 . S
C987 C991 1.495 . S
C988 C987 1.392 . S
C988 C989 1.385 . S
C988 C990 1.478 . S
C989 H983 0.930 . S
C989 C985 1.400 . S
C989 C988 1.385 . S
C990 C988 1.478 . S
C990 C992 1.381 . S
C990 C996 1.383 . S
C991 C987 1.495 . S
C991 H997 0.959 . S
C991 H998 0.961 . S
C991 H999 0.960 . S
C992 C990 1.381 . S
C992 C993 1.394 . S
C992 H1000 0.930 . S
C993 C992 1.394 . S
C993 C994 1.383 . S
C993 H1001 0.929 . S
C994 C993 1.383 . S
C994 C995 1.377 . S
C995 H979 0.930 . S
C995 C994 1.377 . S
C995 C996 1.379 . S
C996 H980 0.931 . S
C996 C990 1.383 . S
C996 C995 1.379 . S
H997 C991 0.959 . S
H998 C991 0.961 . S
H999 C991 0.960 . S
H1000 C992 0.930 . S
H1001 C993 0.929 . S
H1002 C1010 0.929 . S
H1003 C1012 0.930 . S
H1004 C1014 0.930 . S
H1005 C1017 0.929 . S
H1006 C1020 0.930 . S
H1007 C1022 0.960 . S
H1008 C1022 0.960 . S
H1009 C1022 0.960 . S
C1010 H1002 0.929 . S
C1010 C1011 1.377 . S
C1010 C1012 1.384 . S
C1011 C1010 1.377 . S
C1011 C1017 1.390 . S
C1012 H1003 0.930 . S
C1012 C1010 1.384 . S
C1012 C1013 1.372 . S
C1013 C1012 1.372 . S
C1013 C1014 1.400 . S
C1013 C1018 1.490 . S
C1014 H1004 0.930 . S
C1014 C1013 1.400 . S
C1014 C1017 1.386 . S
H1015 C1031 0.930 . S
H1016 C1032 0.931 . S
C1017 H1005 0.929 . S
C1017 C1011 1.390 . S
C1017 C1014 1.386 . S
C1018 C1013 1.490 . S
C1018 C1020 1.395 . S
C1018 C1021 1.403 . S
H1019 C1025 0.930 . S
C1020 H1006 0.930 . S
C1020 C1018 1.395 . S
C1020 C1023 1.403 . S
C1021 C1018 1.403 . S
C1021 C1022 1.524 . S
C1021 C1025 1.400 . S
C1022 H1007 0.960 . S
C1022 H1008 0.960 . S
C1022 H1009 0.960 . S
C1022 C1021 1.524 . S
C1023 C1020 1.403 . S
C1023 C1024 1.392 . S
C1023 C1027 1.495 . S
C1024 C1023 1.392 . S
C1024 C1025 1.385 . S
C1024 C1026 1.478 . S
C1025 H1019 0.930 . S
C1025 C1021 1.400 . S
C1025 C1024 1.385 . S
C1026 C1024 1.478 . S
C1026 C1028 1.381 . S
C1026 C1032 1.383 . S
C1027 C1023 1.495 . S
C1027 H1033 0.959 . S
C1027 H1034 0.961 . S
C1027 H1035 0.960 . S
C1028 C1026 1.381 . S
C1028 C1029 1.394 . S
C1028 H1036 0.930 . S
C1029 C1028 1.394 . S
C1029 C1030 1.383 . S
C1029 H1037 0.929 . S
C1030 C1029 1.383 . S
C1030 C1031 1.377 . S
C1031 H1015 0.930 . S
C1031 C1030 1.377 . S
C1031 C1032 1.379 . S
C1032 H1016 0.931 . S
C1032 C1026 1.383 . S
C1032 C1031 1.379 . S
H1033 C1027 0.959 . S
H1034 C1027 0.961 . S
H1035 C1027 0.960 . S
H1036 C1028 0.930 . S
H1037 C1029 0.929 . S
H1038 C1046 0.929 . S
H1039 C1048 0.930 . S
H1040 C1050 0.930 . S
H1041 C1053 0.929 . S
H1042 C1056 0.930 . S
H1043 C1058 0.960 . S
H1044 C1058 0.960 . S
H1045 C1058 0.960 . S
C1046 H1038 0.929 . S
C1046 C1047 1.377 . S
C1046 C1048 1.384 . S
C1047 C1046 1.377 . S
C1047 C1053 1.390 . S
C1048 H1039 0.930 . S
C1048 C1046 1.384 . S
C1048 C1049 1.372 . S
C1049 C1048 1.372 . S
C1049 C1050 1.400 . S
C1049 C1054 1.490 . S
C1050 H1040 0.930 . S
C1050 C1049 1.400 . S
C1050 C1053 1.386 . S
H1051 C1067 0.930 . S
H1052 C1068 0.931 . S
C1053 H1041 0.929 . S
C1053 C1047 1.390 . S
C1053 C1050 1.386 . S
C1054 C1049 1.490 . S
C1054 C1056 1.395 . S
C1054 C1057 1.403 . S
H1055 C1061 0.930 . S
C1056 H1042 0.930 . S
C1056 C1054 1.395 . S
C1056 C1059 1.403 . S
C1057 C1054 1.403 . S
C1057 C1058 1.524 . S
C1057 C1061 1.400 . S
C1058 H1043 0.960 . S
C1058 H1044 0.960 . S
C1058 H1045 0.960 . S
C1058 C1057 1.524 . S
C1059 C1056 1.403 . S
C1059 C1060 1.392 . S
C1059 C1063 1.495 . S
C1060 C1059 1.392 . S
C1060 C1061 1.385 . S
C1060 C1062 1.478 . S
C1061 H1055 0.930 . S
C1061 C1057 1.400 . S
C1061 C1060 1.385 . S
C1062 C1060 1.478 . S
C1062 C1064 1.381 . S
C1062 C1068 1.383 . S
C1063 C1059 1.495 . S
C1063 H1069 0.959 . S
C1063 H1070 0.961 . S
C1063 H1071 0.960 . S
C1064 C1062 1.381 . S
C1064 C1065 1.394 . S
C1064 H1072 0.930 . S
C1065 C1064 1.394 . S
C1065 C1066 1.383 . S
C1065 H1073 0.929 . S
C1066 C1065 1.383 . S
C1066 C1067 1.377 . S
C1067 H1051 0.930 . S
C1067 C1066 1.377 . S
C1067 C1068 1.379 . S
C1068 H1052 0.931 . S
C1068 C1062 1.383 . S
C1068 C1067 1.379 . S
H1069 C1063 0.959 . S
H1070 C1063 0.961 . S
H1071 C1063 0.960 . S
H1072 C1064 0.930 . S
H1073 C1065 0.929 . S
H1074 C1082 0.929 . S
H1075 C1084 0.930 . S
H1076 C1086 0.930 . S
H1077 C1089 0.929 . S
H1078 C1092 0.930 . S
H1079 C1094 0.960 . S
H1080 C1094 0.960 . S
H1081 C1094 0.960 . S
C1082 H1074 0.929 . S
C1082 C1083 1.377 . S
C1082 C1084 1.384 . S
C1083 C1082 1.377 . S
C1083 C1089 1.390 . S
C1084 H1075 0.930 . S
C1084 C1082 1.384 . S
C1084 C1085 1.372 . S
C1085 C1084 1.372 . S
C1085 C1086 1.400 . S
C1085 C1090 1.490 . S
C1086 H1076 0.930 . S
C1086 C1085 1.400 . S
C1086 C1089 1.386 . S
H1087 C1103 0.930 . S
H1088 C1104 0.931 . S
C1089 H1077 0.929 . S
C1089 C1083 1.390 . S
C1089 C1086 1.386 . S
C1090 C1085 1.490 . S
C1090 C1092 1.395 . S
C1090 C1093 1.403 . S
H1091 C1097 0.930 . S
C1092 H1078 0.930 . S
C1092 C1090 1.395 . S
C1092 C1095 1.403 . S
C1093 C1090 1.403 . S
C1093 C1094 1.524 . S
C1093 C1097 1.400 . S
C1094 H1079 0.960 . S
C1094 H1080 0.960 . S
C1094 H1081 0.960 . S
C1094 C1093 1.524 . S
C1095 C1092 1.403 . S
C1095 C1096 1.392 . S
C1095 C1099 1.495 . S
C1096 C1095 1.392 . S
C1096 C1097 1.385 . S
C1096 C1098 1.478 . S
C1097 H1091 0.930 . S
C1097 C1093 1.400 . S
C1097 C1096 1.385 . S
C1098 C1096 1.478 . S
C1098 C1100 1.381 . S
C1098 C1104 1.383 . S
C1099 C1095 1.495 . S
C1099 H1105 0.959 . S
C1099 H1106 0.961 . S
C1099 H1107 0.960 . S
C1100 C1098 1.381 . S
C1100 C1101 1.394 . S
C1100 H1108 0.930 . S
C1101 C1100 1.394 . S
C1101 C1102 1.383 . S
C1101 H1109 0.929 . S
C1102 C1101 1.383 . S
C1102 C1103 1.377 . S
C1103 H1087 0.930 . S
C1103 C1102 1.377 . S
C1103 C1104 1.379 . S
C1104 H1088 0.931 . S
C1104 C1098 1.383 . S
C1104 C1103 1.379 . S
H1105 C1099 0.959 . S
H1106 C1099 0.961 . S
H1107 C1099 0.960 . S
H1108 C1100 0.930 . S
H1109 C1101 0.929 . S
H1110 C1118 0.929 . S
H1111 C1120 0.930 . S
H1112 C1122 0.930 . S
H1113 C1125 0.929 . S
H1114 C1128 0.930 . S
H1115 C1130 0.960 . S
H1116 C1130 0.960 . S
H1117 C1130 0.960 . S
C1118 H1110 0.929 . S
C1118 C1119 1.377 . S
C1118 C1120 1.384 . S
C1119 C1118 1.377 . S
C1119 C1125 1.390 . S
C1120 H1111 0.930 . S
C1120 C1118 1.384 . S
C1120 C1121 1.372 . S
C1121 C1120 1.372 . S
C1121 C1122 1.400 . S
C1121 C1126 1.490 . S
C1122 H1112 0.930 . S
C1122 C1121 1.400 . S
C1122 C1125 1.386 . S
H1123 C1139 0.930 . S
H1124 C1140 0.931 . S
C1125 H1113 0.929 . S
C1125 C1119 1.390 . S
C1125 C1122 1.386 . S
C1126 C1121 1.490 . S
C1126 C1128 1.395 . S
C1126 C1129 1.403 . S
H1127 C1133 0.930 . S
C1128 H1114 0.930 . S
C1128 C1126 1.395 . S
C1128 C1131 1.403 . S
C1129 C1126 1.403 . S
C1129 C1130 1.524 . S
C1129 C1133 1.400 . S
C1130 H1115 0.960 . S
C1130 H1116 0.960 . S
C1130 H1117 0.960 . S
C1130 C1129 1.524 . S
C1131 C1128 1.403 . S
C1131 C1132 1.392 . S
C1131 C1135 1.495 . S
C1132 C1131 1.392 . S
C1132 C1133 1.385 . S
C1132 C1134 1.478 . S
C1133 H1127 0.930 . S
C1133 C1129 1.400 . S
C1133 C1132 1.385 . S
C1134 C1132 1.478 . S
C1134 C1136 1.381 . S
C1134 C1140 1.383 . S
C1135 C1131 1.495 . S
C1135 H1141 0.959 . S
C1135 H1142 0.961 . S
C1135 H1143 0.960 . S
C1136 C1134 1.381 . S
C1136 C1137 1.394 . S
C1136 H1144 0.930 . S
C1137 C1136 1.394 . S
C1137 C1138 1.383 . S
C1137 H1145 0.929 . S
C1138 C1137 1.383 . S
C1138 C1139 1.377 . S
C1139 H1123 0.930 . S
C1139 C1138 1.377 . S
C1139 C1140 1.379 . S
C1140 H1124 0.931 . S
C1140 C1134 1.383 . S
C1140 C1139 1.379 . S
H1141 C1135 0.959 . S
H1142 C1135 0.961 . S
H1143 C1135 0.960 . S
H1144 C1136 0.930 . S
H1145 C1137 0.929 . S
H1146 C1154 0.929 . S
H1147 C1156 0.930 . S
H1148 C1158 0.930 . S
H1149 C1161 0.929 . S
H1150 C1164 0.930 . S
H1151 C1166 0.960 . S
H1152 C1166 0.960 . S
H1153 C1166 0.960 . S
C1154 H1146 0.929 . S
C1154 C1155 1.377 . S
C1154 C1156 1.384 . S
C1155 C1154 1.377 . S
C1155 C1161 1.390 . S
C1156 H1147 0.930 . S
C1156 C1154 1.384 . S
C1156 C1157 1.372 . S
C1157 C1156 1.372 . S
C1157 C1158 1.400 . S
C1157 C1162 1.490 . S
C1158 H1148 0.930 . S
C1158 C1157 1.400 . S
C1158 C1161 1.386 . S
H1159 C1175 0.930 . S
H1160 C1176 0.931 . S
C1161 H1149 0.929 . S
C1161 C1155 1.390 . S
C1161 C1158 1.386 . S
C1162 C1157 1.490 . S
C1162 C1164 1.395 . S
C1162 C1165 1.403 . S
H1163 C1169 0.930 . S
C1164 H1150 0.930 . S
C1164 C1162 1.395 . S
C1164 C1167 1.403 . S
C1165 C1162 1.403 . S
C1165 C1166 1.524 . S
C1165 C1169 1.400 . S
C1166 H1151 0.960 . S
C1166 H1152 0.960 . S
C1166 H1153 0.960 . S
C1166 C1165 1.524 . S
C1167 C1164 1.403 . S
C1167 C1168 1.392 . S
C1167 C1171 1.495 . S
C1168 C1167 1.392 . S
C1168 C1169 1.385 . S
C1168 C1170 1.478 . S
C1169 H1163 0.930 . S
C1169 C1165 1.400 . S
C1169 C1168 1.385 . S
C1170 C1168 1.478 . S
C1170 C1172 1.381 . S
C1170 C1176 1.383 . S
C1171 C1167 1.495 . S
C1171 H1177 0.959 . S
C1171 H1178 0.961 . S
C1171 H1179 0.960 . S
C1172 C1170 1.381 . S
C1172 C1173 1.394 . S
C1172 H1180 0.930 . S
C1173 C1172 1.394 . S
C1173 C1174 1.383 . S
C1173 H1181 0.929 . S
C1174 C1173 1.383 . S
C1174 C1175 1.377 . S
C1175 H1159 0.930 . S
C1175 C1174 1.377 . S
C1175 C1176 1.379 . S
C1176 H1160 0.931 . S
C1176 C1170 1.383 . S
C1176 C1175 1.379 . S
H1177 C1171 0.959 . S
H1178 C1171 0.961 . S
H1179 C1171 0.960 . S
H1180 C1172 0.930 . S
H1181 C1173 0.929 . S
H1182 C1190 0.929 . S
H1183 C1192 0.930 . S
H1184 C1194 0.930 . S
H1185 C1197 0.929 . S
H1186 C1200 0.930 . S
H1187 C1202 0.960 . S
H1188 C1202 0.960 . S
H1189 C1202 0.960 . S
C1190 H1182 0.929 . S
C1190 C1191 1.377 . S
C1190 C1192 1.384 . S
C1191 C1190 1.377 . S
C1191 C1197 1.390 . S
C1192 H1183 0.930 . S
C1192 C1190 1.384 . S
C1192 C1193 1.372 . S
C1193 C1192 1.372 . S
C1193 C1194 1.400 . S
C1193 C1198 1.490 . S
C1194 H1184 0.930 . S
C1194 C1193 1.400 . S
C1194 C1197 1.386 . S
H1195 C1211 0.930 . S
H1196 C1212 0.931 . S
C1197 H1185 0.929 . S
C1197 C1191 1.390 . S
C1197 C1194 1.386 . S
C1198 C1193 1.490 . S
C1198 C1200 1.395 . S
C1198 C1201 1.403 . S
H1199 C1205 0.930 . S
C1200 H1186 0.930 . S
C1200 C1198 1.395 . S
C1200 C1203 1.403 . S
C1201 C1198 1.403 . S
C1201 C1202 1.524 . S
C1201 C1205 1.400 . S
C1202 H1187 0.960 . S
C1202 H1188 0.960 . S
C1202 H1189 0.960 . S
C1202 C1201 1.524 . S
C1203 C1200 1.403 . S
C1203 C1204 1.392 . S
C1203 C1207 1.495 . S
C1204 C1203 1.392 . S
C1204 C1205 1.385 . S
C1204 C1206 1.478 . S
C1205 H1199 0.930 . S
C1205 C1201 1.400 . S
C1205 C1204 1.385 . S
C1206 C1204 1.478 . S
C1206 C1208 1.381 . S
C1206 C1212 1.383 . S
C1207 C1203 1.495 . S
C1207 H1213 0.959 . S
C1207 H1214 0.961 . S
C1207 H1215 0.960 . S
C1208 C1206 1.381 . S
C1208 C1209 1.394 . S
C1208 H1216 0.930 . S
C1209 C1208 1.394 . S
C1209 C1210 1.383 . S
C1209 H1217 0.929 . S
C1210 C1209 1.383 . S
C1210 C1211 1.377 . S
C1211 H1195 0.930 . S
C1211 C1210 1.377 . S
C1211 C1212 1.379 . S
C1212 H1196 0.931 . S
C1212 C1206 1.383 . S
C1212 C1211 1.379 . S
H1213 C1207 0.959 . S
H1214 C1207 0.961 . S
H1215 C1207 0.960 . S
H1216 C1208 0.930 . S
H1217 C1209 0.929 . S
H1218 C1226 0.929 . S
H1219 C1228 0.930 . S
H1220 C1230 0.930 . S
H1221 C1233 0.929 . S
H1222 C1236 0.930 . S
H1223 C1238 0.960 . S
H1224 C1238 0.960 . S
H1225 C1238 0.960 . S
C1226 H1218 0.929 . S
C1226 C1227 1.377 . S
C1226 C1228 1.384 . S
C1227 C1226 1.377 . S
C1227 C1233 1.390 . S
C1228 H1219 0.930 . S
C1228 C1226 1.384 . S
C1228 C1229 1.372 . S
C1229 C1228 1.372 . S
C1229 C1230 1.400 . S
C1229 C1234 1.490 . S
C1230 H1220 0.930 . S
C1230 C1229 1.400 . S
C1230 C1233 1.386 . S
H1231 C1247 0.930 . S
H1232 C1248 0.931 . S
C1233 H1221 0.929 . S
C1233 C1227 1.390 . S
C1233 C1230 1.386 . S
C1234 C1229 1.490 . S
C1234 C1236 1.395 . S
C1234 C1237 1.403 . S
H1235 C1241 0.930 . S
C1236 H1222 0.930 . S
C1236 C1234 1.395 . S
C1236 C1239 1.403 . S
C1237 C1234 1.403 . S
C1237 C1238 1.524 . S
C1237 C1241 1.400 . S
C1238 H1223 0.960 . S
C1238 H1224 0.960 . S
C1238 H1225 0.960 . S
C1238 C1237 1.524 . S
C1239 C1236 1.403 . S
C1239 C1240 1.392 . S
C1239 C1243 1.495 . S
C1240 C1239 1.392 . S
C1240 C1241 1.385 . S
C1240 C1242 1.478 . S
C1241 H1235 0.930 . S
C1241 C1237 1.400 . S
C1241 C1240 1.385 . S
C1242 C1240 1.478 . S
C1242 C1244 1.381 . S
C1242 C1248 1.383 . S
C1243 C1239 1.495 . S
C1243 H1249 0.959 . S
C1243 H1250 0.961 . S
C1243 H1251 0.960 . S
C1244 C1242 1.381 . S
C1244 C1245 1.394 . S
C1244 H1252 0.930 . S
C1245 C1244 1.394 . S
C1245 C1246 1.383 . S
C1245 H1253 0.929 . S
C1246 C1245 1.383 . S
C1246 C1247 1.377 . S
C1247 H1231 0.930 . S
C1247 C1246 1.377 . S
C1247 C1248 1.379 . S
C1248 H1232 0.931 . S
C1248 C1242 1.383 . S
C1248 C1247 1.379 . S
H1249 C1243 0.959 . S
H1250 C1243 0.961 . S
H1251 C1243 0.960 . S
H1252 C1244 0.930 . S
H1253 C1245 0.929 . S
C418 C94 1.544 . S
C399 C4 1.555 . S
C454 C163 1.549 . S
C435 C13 1.550 . S
C490 C101 1.538 . S
C471 C25 1.554 . S
C526 C164 1.543 . S
C507 C34 1.548 . S
C562 C217 1.547 . S
C543 C7 1.546 . S
C598 C253 1.523 . S
C579 C14 1.523 . S
C615 C23 1.534 . S
C634 C313 1.525 . S
C670 C376 1.519 . S
C651 C31 1.526 . S
C706 C216 1.541 . S
C687 C16 1.543 . S
C723 C22 1.526 . S
C742 C260 1.522 . S
C778 C306 1.524 . S
C759 C32 1.533 . S
C814 C375 1.517 . S
C795 C5 1.525 . S
C831 C43 1.557 . S
C850 C154 1.551 . S
C886 C111 1.543 . S
C867 C52 1.553 . S
C903 C58 1.555 . S
C922 C147 1.549 . S
C939 C68 1.551 . S
C958 C110 1.544 . S
C994 C322 1.541 . S
C975 C40 1.544 . S
C1030 C366 1.516 . S
C1011 C50 1.516 . S
C1066 C200 1.554 . S
C1047 C59 1.553 . S
C1083 C70 1.513 . S
C1102 C269 1.504 . S
C1138 C323 1.538 . S
C1119 C49 1.541 . S
C1174 C359 1.508 . S
C1155 C61 1.513 . S
C1210 C207 1.556 . S
C1191 C67 1.555 . S
C1227 C41 1.517 . S
C1246 C270 1.513 . S
