# Generated by pormake.
# Topology ssa, (4,4)-cn, num edge types: 1
# Building blocks:
#     Node 0, Type 0, BuildingBlock: ESEHIV_clean_sbu_0, # of connection points: 4
#     Node 1, Type 0, BuildingBlock: ESEHIV_clean_sbu_0, # of connection points: 4
#     Node 2, Type 0, BuildingBlock: ESEHIV_clean_sbu_0, # of connection points: 4
#     Node 3, Type 0, BuildingBlock: ESEHIV_clean_sbu_0, # of connection points: 4
#     Node 4, Type 0, BuildingBlock: ESEHIV_clean_sbu_0, # of connection points: 4
#     Node 5, Type 0, BuildingBlock: ESEHIV_clean_sbu_0, # of connection points: 4
#     Node 6, Type 1, BuildingBlock: KUFVIS_clean_linker_0, # of connection points: 4
#     Node 7, Type 1, BuildingBlock: KUFVIS_clean_linker_0, # of connection points: 4
#     Node 8, Type 1, BuildingBlock: KUFVIS_clean_linker_0, # of connection points: 4
#     Node 9, Type 1, BuildingBlock: KUFVIS_clean_linker_0, # of connection points: 4
#     Node 10, Type 1, BuildingBlock: KUFVIS_clean_linker_0, # of connection points: 4
#     Node 11, Type 1, BuildingBlock: KUFVIS_clean_linker_0, # of connection points: 4
#     Edge 12, Type (0, 1), BuildingBlock: OJICUG_clean_linker_0, # of connection points: 2
#     Edge 13, Type (0, 1), BuildingBlock: OJICUG_clean_linker_0, # of connection points: 2
#     Edge 14, Type (0, 1), BuildingBlock: OJICUG_clean_linker_0, # of connection points: 2
#     Edge 15, Type (0, 1), BuildingBlock: OJICUG_clean_linker_0, # of connection points: 2
#     Edge 16, Type (0, 1), BuildingBlock: OJICUG_clean_linker_0, # of connection points: 2
#     Edge 17, Type (0, 1), BuildingBlock: OJICUG_clean_linker_0, # of connection points: 2
#     Edge 18, Type (0, 1), BuildingBlock: OJICUG_clean_linker_0, # of connection points: 2
#     Edge 19, Type (0, 1), BuildingBlock: OJICUG_clean_linker_0, # of connection points: 2
#     Edge 20, Type (0, 1), BuildingBlock: OJICUG_clean_linker_0, # of connection points: 2
#     Edge 21, Type (0, 1), BuildingBlock: OJICUG_clean_linker_0, # of connection points: 2
#     Edge 22, Type (0, 1), BuildingBlock: OJICUG_clean_linker_0, # of connection points: 2
#     Edge 23, Type (0, 1), BuildingBlock: OJICUG_clean_linker_0, # of connection points: 2
#     Edge 24, Type (0, 1), BuildingBlock: OJICUG_clean_linker_0, # of connection points: 2
#     Edge 25, Type (0, 1), BuildingBlock: OJICUG_clean_linker_0, # of connection points: 2
#     Edge 26, Type (0, 1), BuildingBlock: OJICUG_clean_linker_0, # of connection points: 2
#     Edge 27, Type (0, 1), BuildingBlock: OJICUG_clean_linker_0, # of connection points: 2
#     Edge 28, Type (0, 1), BuildingBlock: OJICUG_clean_linker_0, # of connection points: 2
#     Edge 29, Type (0, 1), BuildingBlock: OJICUG_clean_linker_0, # of connection points: 2
#     Edge 30, Type (0, 1), BuildingBlock: OJICUG_clean_linker_0, # of connection points: 2
#     Edge 31, Type (0, 1), BuildingBlock: OJICUG_clean_linker_0, # of connection points: 2
#     Edge 32, Type (0, 1), BuildingBlock: OJICUG_clean_linker_0, # of connection points: 2
#     Edge 33, Type (0, 1), BuildingBlock: OJICUG_clean_linker_0, # of connection points: 2
#     Edge 34, Type (0, 1), BuildingBlock: OJICUG_clean_linker_0, # of connection points: 2
#     Edge 35, Type (0, 1), BuildingBlock: OJICUG_clean_linker_0, # of connection points: 2
# Relax obj value: 0.008
# Max RMSD: 0.110
# Mean RMSD: 0.075
data_MOF--net-ssa--node1-ESEHIV_clean_sbu_0--node2-KUFVIS_clean_linker_0--edge1-OJICUG_clean_linker_0
_symmetry_space_group_name_H-M    P1
_symmetry_Int_Tables_number       1
_symmetry_cell_setting            triclinic
loop_
_symmetry_equiv_pos_as_xyz
'x, y, z'
_cell_length_a     38.869452
_cell_length_b     42.424334
_cell_length_c     22.981028
_cell_angle_alpha  87.753897
_cell_angle_beta   91.207694
_cell_angle_gamma 123.01263
loop_
_atom_site_label
_atom_site_type_symbol
_atom_site_fract_x
_atom_site_fract_y
_atom_site_fract_z
_atom_type_partial_charge
Cu0 Cu 0.03474 0.52235 0.01334 0.0
N1 N 1.02394 0.48936 0.95413 0.0
N2 N 0.99156 0.43209 0.91708 0.0
C3 C 0.99201 0.45338 0.95931 0.0
C4 C 1.02441 0.45579 0.88324 0.0
C5 C 0.04441 0.49128 0.90621 0.0
O6 O 0.98148 0.51821 0.02001 0.0
C7 C 0.08865 0.50543 0.06073 0.0
O8 O 0.10033 0.51317 0.00609 0.0
H9 H 0.9701 0.4428 0.9947 0.0
H10 H 0.07237 0.51625 0.89024 0.0
N11 N 0.07818 0.57276 0.00464 0.0
N12 N 0.13034 0.62604 0.04142 0.0
C13 C 0.09931 0.59036 0.0526 0.0
C14 C 0.09625 0.59852 0.96064 0.0
C15 C 0.12847 0.6318 0.98353 0.0
C16 C 0.97673 0.5451 0.00544 0.0
O17 O 1.00937 0.5794 -4e-05 0.0
H18 H 0.09168 0.57707 0.09566 0.0
H19 H 0.08686 0.59357 0.91552 0.0
O20 O 0.05706 0.50548 0.07622 0.0
H21 H 0.03309 0.44811 0.8444 0.0
H22 H 0.14919 0.65776 0.95949 0.0
Cu23 Cu 0.53588 1.01453 0.50665 0.0
N24 N 0.53883 0.99791 0.43389 0.0
N25 N 0.53589 0.95287 0.38147 0.0
C26 C 0.55084 0.97362 0.4296 0.0
C27 C 0.5142 0.96524 0.35369 0.0
C28 C 0.51569 0.99263 0.38636 0.0
O29 O 0.49402 0.96677 0.54337 0.0
C30 C 0.61719 0.07177 0.52069 0.0
O31 O 0.60849 0.08349 0.47221 0.0
H32 H 0.56624 0.96826 0.46462 0.0
H33 H 0.49777 1.00485 0.37874 0.0
N34 N 0.52089 0.04997 0.5086 0.0
N35 N 0.51707 0.09603 0.54664 0.0
C36 C 0.53047 0.07265 0.5539 0.0
C37 C 0.5005 0.05921 0.47097 0.0
C38 C 0.49796 0.08749 0.49442 0.0
C39 C 0.4564 0.95582 0.5377 0.0
O40 O 0.44677 0.98095 0.54099 0.0
H41 H 0.54659 0.07149 0.59205 0.0
H42 H 0.48814 0.04634 0.42964 0.0
O43 O 0.58996 0.03967 0.54292 0.0
H44 H 0.4966 0.95396 0.31422 0.0
H45 H 0.48352 0.10091 0.47423 0.0
Cu46 Cu 0.52929 0.51116 0.04237 0.0
N47 N 0.50979 0.47648 0.98216 0.0
N48 N 0.49587 0.4286 0.92654 0.0
C49 C 0.51202 0.44594 0.97737 0.0
C50 C 0.48314 0.44907 0.89857 0.0
C51 C 0.49192 0.47853 0.9327 0.0
O52 O 0.57017 0.50965 0.09301 0.0
C53 C 0.44693 0.48847 0.07644 0.0
O54 O 0.43561 0.47861 0.02251 0.0
H55 H 0.52596 0.43715 0.00986 0.0
H56 H 0.48639 0.50044 0.9218 0.0
N57 N 0.54967 0.56083 0.01562 0.0
N58 N 0.56116 0.61873 0.01758 0.0
C59 C 0.54033 0.58339 0.041 0.0
C60 C 0.57742 0.58265 0.97417 0.0
C61 C 0.58477 0.61847 0.97557 0.0
C62 C 0.60557 0.514 0.09243 0.0
O63 O 0.62036 0.51082 0.14268 0.0
H64 H 0.52015 0.57453 0.07823 0.0
H65 H 0.59218 0.57362 0.94604 0.0
O66 O 0.48347 0.49984 0.09258 0.0
H67 H 0.46989 0.44399 0.85536 0.0
H68 H 0.60643 0.64257 0.94864 0.0
Cu69 Cu 1.01233 0.52526 0.50826 0.0
N70 N 1.02545 0.50491 0.44856 0.0
N71 N 0.0551 0.47677 0.41419 0.0
C72 C 0.05216 0.49451 0.45901 0.0
C73 C 1.02905 0.4758 0.37332 0.0
C74 C 1.01061 0.49324 0.39478 0.0
O75 O 0.05827 0.57872 0.50923 0.0
C76 C 0.969 0.45448 0.55448 0.0
O77 O 0.95652 0.45052 0.50019 0.0
H78 H 0.06822 0.49871 0.49987 0.0
H79 H 0.98753 0.49637 0.37341 0.0
N80 N 0.96361 0.52476 0.50404 0.0
N81 N 0.91047 0.52204 0.54686 0.0
C82 C 0.93932 0.51376 0.5514 0.0
C83 C 0.94991 0.54127 0.46767 0.0
C84 C 0.91702 0.53961 0.49405 0.0
C85 C 0.09654 0.59127 0.50705 0.0
O86 O 0.10865 0.56849 0.52096 0.0
H87 H 0.94517 0.50297 0.59112 0.0
H88 H 0.96439 0.55569 0.42692 0.0
O89 O 0.99743 0.48732 0.5712 0.0
H90 H 1.0242 0.46388 0.33083 0.0
H91 H 0.90055 0.55183 0.47679 0.0
Cu92 Cu 0.54044 0.04033 0.05307 0.0
N93 N 0.5387 0.0818 0.07357 0.0
N94 N 0.54055 0.13298 0.03948 0.0
C95 C 0.52417 0.09593 0.03384 0.0
C96 C 0.56632 0.14269 0.08524 0.0
C97 C 0.56489 0.11102 0.10658 0.0
O98 O 0.56702 0.05808 0.97678 0.0
C99 C 0.45921 0.98971 0.09632 0.0
O100 O 0.46381 0.02048 0.11574 0.0
H101 H 0.50738 0.08084 0.99558 0.0
H102 H 0.58606 0.11088 0.13765 0.0
N103 N 0.57543 0.03044 0.09482 0.0
N104 N 0.60826 1.00102 0.11149 0.0
C105 C 0.58333 1.00548 0.07545 0.0
C106 C 0.59608 0.04249 0.14523 0.0
C107 C 0.61644 0.02435 0.1556 0.0
C108 C 0.60399 0.08641 0.98179 0.0
O109 O 0.61893 0.0973 0.03421 0.0
H110 H 0.57007 0.99023 0.03595 0.0
H111 H 0.59546 0.06205 0.17323 0.0
O112 O 0.48642 0.99266 0.06208 0.0
H113 H 0.58834 0.17132 0.09756 0.0
H114 H 0.63398 0.02661 0.19422 0.0
Cu115 Cu 0.54161 0.52932 0.51155 0.0
N116 N 0.57021 0.56654 0.45385 0.0
N117 N 0.59181 0.6196 0.40138 0.0
C118 C 0.56869 0.59741 0.44671 0.0
C119 C 0.60843 0.60179 0.37906 0.0
C120 C 0.5949 0.56895 0.41141 0.0
O121 O 0.48803 0.52411 0.51346 0.0
C122 C 0.61257 0.55721 0.57908 0.0
O123 O 0.62866 0.56202 0.52729 0.0
H124 H 0.55064 0.60326 0.47414 0.0
H125 H 0.60214 0.54814 0.40418 0.0
N126 N 0.5364 0.48392 0.49505 0.0
N127 N 0.53761 0.43231 0.51397 0.0
C128 C 0.54732 0.46589 0.53299 0.0
C129 C 0.51916 0.46096 0.44986 0.0
C130 C 0.51951 0.42882 0.46173 0.0
C131 C 0.4529 0.49363 0.50851 0.0
O132 O 0.45011 0.46138 0.51375 0.0
H133 H 0.56018 0.47629 0.57548 0.0
H134 H 0.5059 0.46651 0.41215 0.0
O135 O 0.57455 0.54549 0.58292 0.0
H136 H 0.62777 0.61109 0.3408 0.0
H137 H 0.50669 0.40454 0.43476 0.0
H138 H 0.38689 0.49574 0.30865 0.0
H139 H 0.28513 0.49005 0.38699 0.0
H140 H 0.29028 0.48419 0.19902 0.0
H141 H 0.24859 0.50592 0.19739 0.0
H142 H 0.13003 0.46349 0.26916 0.0
H143 H 0.2186 0.4583 0.37448 0.0
C144 C 0.35804 0.49394 0.30354 0.0
C145 C 0.34197 0.49188 0.24784 0.0
C146 C 0.33775 0.49304 0.35331 0.0
C147 C 0.29969 0.48964 0.34774 0.0
C148 C 0.28129 0.48627 0.29192 0.0
C149 C 0.30316 0.48719 0.24216 0.0
C150 C 0.23935 0.48102 0.2857 0.0
C151 C 0.2273 0.49185 0.23318 0.0
C152 C 0.18782 0.48586 0.22802 0.0
C153 C 0.16028 0.46799 0.2736 0.0
C154 C 0.17158 0.45949 0.32667 0.0
C155 C 0.21091 0.46573 0.33293 0.0
H156 H 0.67205 0.12993 0.73439 0.0
H157 H 0.75505 0.22635 0.83316 0.0
H158 H 0.78261 0.22012 0.65382 0.0
H159 H 0.81458 0.2869 0.66195 0.0
H160 H 0.91987 0.36073 0.76482 0.0
H161 H 0.82537 0.25544 0.84058 0.0
C162 C 0.70026 0.15744 0.73707 0.0
C163 C 0.7259 0.17272 0.68844 0.0
C164 C 0.71029 0.17628 0.78915 0.0
C165 C 0.74748 0.21166 0.79275 0.0
C166 C 0.77441 0.22825 0.74431 0.0
C167 C 0.76272 0.20848 0.69157 0.0
C168 C 0.81487 0.26544 0.74975 0.0
C169 C 0.83136 0.29237 0.70246 0.0
C170 C 0.86891 0.32727 0.70879 0.0
C171 C 0.8906 0.33416 0.76047 0.0
C172 C 0.87507 0.30907 0.80797 0.0
C173 C 0.83707 0.27474 0.80317 0.0
H174 H 0.58134 0.6881 0.2074 0.0
H175 H 0.56916 0.77377 0.12414 0.0
H176 H 0.59285 0.77559 0.30989 0.0
H177 H 0.55077 0.80134 0.30518 0.0
H178 H 0.59265 0.91157 0.23537 0.0
H179 H 0.61377 0.83952 0.13831 0.0
C180 C 0.58136 0.71363 0.21013 0.0
C181 C 0.58779 0.73008 0.26386 0.0
C182 C 0.57459 0.72894 0.15991 0.0
C183 C 0.57463 0.76208 0.16329 0.0
C184 C 0.5811 0.77956 0.21763 0.0
C185 C 0.58727 0.76279 0.26799 0.0
C186 C 0.58295 0.81578 0.22186 0.0
C187 C 0.56667 0.8228 0.27118 0.0
C188 C 0.57045 0.85761 0.27567 0.0
C189 C 0.59055 0.88506 0.23204 0.0
C190 C 0.60571 0.87877 0.18261 0.0
C191 C 0.60174 0.84407 0.17692 0.0
H192 H 0.87853 0.51691 0.80064 0.0
H193 H 0.80682 0.53966 0.90955 0.0
H194 H 0.78095 0.52244 0.72442 0.0
H195 H 0.74994 0.55034 0.73095 0.0
H196 H 0.66992 0.56189 0.83721 0.0
H197 H 0.74116 0.522 0.91576 0.0
C198 C 0.85302 0.52026 0.8057 0.0
C199 C 0.83123 0.52016 0.75632 0.0
C200 C 0.84411 0.52666 0.86111 0.0
C201 C 0.81228 0.53324 0.86697 0.0
C202 C 0.78812 0.53172 0.81807 0.0
C203 C 0.79845 0.52489 0.76298 0.0
C204 C 0.75304 0.53788 0.82359 0.0
C205 C 0.7376 0.5475 0.77378 0.0
C206 C 0.7052 0.55309 0.77835 0.0
C207 C 0.69115 0.55304 0.83355 0.0
C208 C 0.7017 0.53981 0.88301 0.0
C209 C 0.73319 0.53267 0.87792 0.0
H210 H 0.16297 0.66733 0.28619 0.0
H211 H 0.26808 0.76225 0.20453 0.0
H212 H 0.24858 0.7589 0.39098 0.0
H213 H 0.31289 0.80248 0.39558 0.0
H214 H 0.40827 0.9035 0.31041 0.0
H215 H 0.30637 0.82253 0.20981 0.0
C216 C 0.19085 0.69505 0.28955 0.0
C217 C 0.20359 0.7109 0.34425 0.0
C218 C 0.21383 0.71375 0.23931 0.0
C219 C 0.25022 0.74942 0.24374 0.0
C220 C 0.26411 0.76714 0.29809 0.0
C221 C 0.24 0.74695 0.34842 0.0
C222 C 0.30396 0.80572 0.3018 0.0
C223 C 0.32482 0.81909 0.35562 0.0
C224 C 0.36208 0.85433 0.35875 0.0
C225 C 0.37969 0.87622 0.30783 0.0
C226 C 0.35985 0.86456 0.25419 0.0
C227 C 0.32182 0.82986 0.2514 0.0
H228 H 0.51948 0.37132 0.73025 0.0
H229 H 0.50602 0.28246 0.84223 0.0
H230 H 0.54281 0.2926 0.66131 0.0
H231 H 0.51823 0.23231 0.67116 0.0
H232 H 0.53849 0.16194 0.78601 0.0
H233 H 0.53782 0.25344 0.85594 0.0
C234 C 0.52081 0.3465 0.73662 0.0
C235 C 0.53108 0.33325 0.68981 0.0
C236 C 0.51243 0.32867 0.79148 0.0
C237 C 0.51399 0.29641 0.79974 0.0
C238 C 0.52468 0.28212 0.75309 0.0
C239 C 0.53331 0.30137 0.69789 0.0
C240 C 0.5276 0.24799 0.76214 0.0
C241 C 0.52443 0.226 0.71465 0.0
C242 C 0.52963 0.19566 0.7226 0.0
C243 C 0.53608 0.18611 0.77907 0.0
C244 C 0.53799 0.20629 0.82715 0.0
C245 C 0.53431 0.23733 0.81845 0.0
C246 C 0.13458 0.48263 0.08743 0.0
C247 C 0.11603 0.50197 0.10262 0.0
H248 H 0.17305 0.46277 0.11512 0.0
C249 C 0.12811 0.52175 0.15426 0.0
H250 H 0.12656 0.46793 0.04693 0.0
C251 C 0.15677 0.52089 0.19109 0.0
C252 C 0.17281 0.49896 0.17847 0.0
H253 H 0.11548 0.53793 0.16612 0.0
H254 H 0.16396 0.53496 0.23212 0.0
C255 C 0.16215 0.48057 0.12545 0.0
C256 C 0.66803 0.0861 0.60081 0.0
C257 C 0.65394 0.09877 0.55468 0.0
H258 H 0.70472 0.10066 0.67796 0.0
C259 C 0.6722 0.13783 0.5456 0.0
H260 H 0.65503 0.05632 0.60848 0.0
C261 C 0.7004 0.16328 0.58582 0.0
C262 C 0.7112 0.15009 0.63523 0.0
H263 H 0.66216 0.14857 0.51019 0.0
H264 H 0.71056 0.19264 0.58123 0.0
C265 C 0.69682 0.11158 0.64018 0.0
C266 C 0.59854 0.68638 0.04083 0.0
C267 C 0.56185 0.65058 0.0397 0.0
H268 H 0.63105 0.74061 0.07936 0.0
C269 C 0.52697 0.64531 0.06712 0.0
H270 H 0.626 0.69137 0.02043 0.0
C271 C 0.52971 0.67379 0.09976 0.0
C272 C 0.56741 0.70818 0.10588 0.0
H273 H 0.49812 0.61828 0.06639 0.0
H274 H 0.50336 0.66755 0.12502 0.0
C275 C 0.60134 0.71482 0.07399 0.0
C276 C 0.87225 0.48956 0.63753 0.0
C277 C 0.8839 0.51791 0.59396 0.0
H278 H 0.8463 0.46785 0.72231 0.0
C279 C 0.87288 0.54411 0.6011 0.0
H280 H 0.87926 0.46834 0.633 0.0
C281 C 0.85333 0.54348 0.65241 0.0
C282 C 0.84461 0.51676 0.69767 0.0
H283 H 0.88141 0.56636 0.56865 0.0
H284 H 0.84726 0.56523 0.65812 0.0
C285 C 0.85316 0.48914 0.68872 0.0
C286 C 0.39403 0.94903 0.15324 0.0
C287 C 0.42806 0.95293 0.12508 0.0
H288 H 0.34515 0.91735 0.21512 0.0
C289 C 0.43538 0.924 0.13341 0.0
H290 H 0.38757 0.97081 0.14812 0.0
C291 C 0.41115 0.89348 0.17238 0.0
C292 C 0.3786 0.89086 0.20278 0.0
H293 H 0.46164 0.9263 0.11324 0.0
H294 H 0.41928 0.87306 0.18129 0.0
C295 C 0.36956 0.91834 0.19148 0.0
C296 C 0.57384 0.41669 0.5871 0.0
C297 C 0.54115 0.40476 0.54771 0.0
H298 H 0.59679 0.4025 0.66236 0.0
C299 C 0.5095 0.36639 0.54797 0.0
H300 H 0.59888 0.44595 0.5874 0.0
C301 C 0.50852 0.34135 0.5908 0.0
C302 C 0.53938 0.35429 0.63341 0.0
H303 H 0.48383 0.35644 0.51836 0.0
H304 H 0.4819 0.31279 0.59373 0.0
C305 C 0.57295 0.39174 0.62949 0.0
C306 C 0.50999 0.89346 0.32982 0.0
C307 C 0.53916 0.92172 0.36631 0.0
H308 H 0.49572 0.84791 0.27545 0.0
C309 C 0.57279 0.91997 0.38531 0.0
H310 H 0.48319 0.89319 0.31526 0.0
C311 C 0.57941 0.89331 0.36332 0.0
C312 C 0.55251 0.86769 0.32202 0.0
H313 H 0.59584 0.94108 0.41349 0.0
H314 H 0.60807 0.89564 0.37329 0.0
C315 C 0.51646 0.86661 0.30833 0.0
C316 C 0.67092 0.52986 0.04347 0.0
C317 C 0.63045 0.52154 0.03898 0.0
H318 H 0.72553 0.54306 -0.0011 0.0
C319 C 0.6141 0.51881 0.98352 0.0
H320 H 0.68494 0.5324 0.08571 0.0
C321 C 0.63626 0.52246 0.934 0.0
C322 C 0.67728 0.53207 0.93774 0.0
H323 H 0.58415 0.5138 0.97803 0.0
H324 H 0.62073 0.51777 0.89257 0.0
C325 C 0.69422 0.53551 0.99356 0.0
C326 C 0.11079 0.64533 0.43901 0.0
C327 C 0.12567 0.62791 0.4756 0.0
H328 H 0.12396 0.68545 0.36897 0.0
C329 C 0.16815 0.64275 0.47476 0.0
H330 H 0.07837 0.63471 0.43796 0.0
C331 C 0.19445 0.67242 0.43573 0.0
C332 C 0.17886 0.6877 0.39611 0.0
H333 H 0.1808 0.63012 0.50215 0.0
H334 H 0.22642 0.68152 0.43363 0.0
C335 C 0.13696 0.67454 0.39942 0.0
C336 C 0.51416 0.16597 0.98239 0.0
C337 C 0.54412 0.15752 0.99173 0.0
H338 H 0.48933 0.18909 0.92299 0.0
C339 C 0.57442 0.16867 0.94927 0.0
H340 H 0.49018 0.15699 0.01432 0.0
C341 C 0.5737 0.18635 0.89703 0.0
C342 C 0.54281 0.1936 0.88639 0.0
H343 H 0.59739 0.16186 0.95548 0.0
H344 H 0.5964 0.19313 0.86395 0.0
C345 C 0.51375 0.18426 0.93033 0.0
C346 C 0.37976 0.46107 0.473 0.0
C347 C 0.41767 0.49471 0.48352 0.0
H348 H 0.32338 0.4344 0.42452 0.0
C349 C 0.42345 0.52874 0.46151 0.0
H350 H 0.37403 0.43432 0.4893 0.0
C351 C 0.39407 0.52868 0.4248 0.0
C352 C 0.35802 0.49469 0.40979 0.0
H353 H 0.45214 0.55523 0.46854 0.0
H354 H 0.40133 0.5549 0.40368 0.0
C355 C 0.35032 0.46108 0.43647 0.0
C356 C 0.91898 0.37881 0.91865 0.0
C357 C 0.96056 0.39306 0.90775 0.0
H358 H 0.85671 0.33683 0.89765 0.0
C359 C 0.97074 0.36957 0.88252 0.0
H360 H 0.91019 0.39605 0.93881 0.0
C361 C 0.93987 0.3347 0.86143 0.0
C362 C 0.89858 0.32386 0.86244 0.0
H363 H 1.00254 0.37938 0.87523 0.0
H364 H 0.94879 0.31951 0.83546 0.0
C365 C 0.88817 0.34431 0.89636 0.0
C366 C 0.93046 0.56706 0.97236 0.0
C367 C 0.93681 0.53746 0.98118 0.0
H368 H 0.89545 0.58658 0.92895 0.0
C369 C 0.90778 0.50242 0.95779 0.0
H370 H 0.95216 0.59449 0.98953 0.0
C371 C 0.87551 0.49811 0.92259 0.0
C372 C 0.87082 0.52844 0.91066 0.0
H373 H 0.91169 0.47906 0.96301 0.0
H374 H 0.85552 0.47157 0.90176 0.0
C375 C 0.89776 0.56254 0.93788 0.0
C376 C 0.44415 0.90403 0.47294 0.0
C377 C 0.42852 0.92162 0.50387 0.0
H378 H 0.43504 0.86865 0.40208 0.0
C379 C 0.38759 0.91053 0.49374 0.0
H380 H 0.4753 0.91145 0.47989 0.0
C381 C 0.36431 0.88533 0.44998 0.0
C382 C 0.38157 0.87095 0.4152 0.0
H383 H 0.37441 0.92326 0.51693 0.0
H384 H 0.33401 0.87951 0.44023 0.0
C385 C 0.42111 0.8794 0.42842 0.0
C386 C 0.5287 0.39288 0.91283 0.0
C387 C 0.49576 0.39745 0.90288 0.0
H388 H 0.55949 0.36644 0.88545 0.0
C389 C 0.46466 0.37352 0.86405 0.0
H390 H 0.55327 0.41106 0.94215 0.0
C391 C 0.46804 0.34789 0.83228 0.0
C392 C 0.50254 0.34547 0.83861 0.0
H393 H 0.43864 0.37595 0.85608 0.0
H394 H 0.44509 0.33185 0.79957 0.0
C395 C 0.53214 0.36717 0.88072 0.0
C396 C 0.12444 0.48892 0.42746 0.0
C397 C 0.08347 0.46514 0.40947 0.0
H398 H 0.18632 0.504 0.41741 0.0
C399 C 0.07179 0.43159 0.38269 0.0
H400 H 0.13407 0.5147 0.44912 0.0
C401 C 0.1015 0.42433 0.36762 0.0
C402 C 0.14352 0.45186 0.37554 0.0
H403 H 0.04018 0.41232 0.36994 0.0
H404 H 0.09229 0.40053 0.34077 0.0
C405 C 0.15432 0.48229 0.41065 0.0
C406 C 0.6731 0.1319 0.93954 0.0
C407 C 0.63027 0.10911 0.93167 0.0
H408 H 0.73181 0.17108 0.90118 0.0
C409 C 0.61363 0.11104 0.87802 0.0
H410 H 0.6869 0.13131 0.98069 0.0
C411 C 0.63951 0.1348 0.83282 0.0
C412 C 0.68258 0.15658 0.84004 0.0
H413 H 0.58074 0.09467 0.87126 0.0
H414 H 0.62582 0.13564 0.79172 0.0
C415 C 0.69894 0.15523 0.89429 0.0
C416 C 0.62923 0.68008 0.34541 0.0
C417 C 0.59461 0.65296 0.37769 0.0
H418 H 0.65477 0.72744 0.28544 0.0
C419 C 0.56135 0.65736 0.38205 0.0
H420 H 0.6556 0.67789 0.34209 0.0
C421 C 0.56119 0.68614 0.35022 0.0
C422 C 0.59439 0.71112 0.31402 0.0
H423 H 0.53412 0.63691 0.40633 0.0
H424 H 0.53366 0.68673 0.34977 0.0
C425 C 0.62912 0.70887 0.31392 0.0
C426 C 0.55403 0.13861 0.62806 0.0
C427 C 0.5219 0.12359 0.58715 0.0
H428 H 0.58208 0.17347 0.7014 0.0
C429 C 0.49407 0.13513 0.58809 0.0
H430 H 0.57676 0.13137 0.62791 0.0
C431 C 0.49731 0.1597 0.63045 0.0
C432 C 0.52841 0.17325 0.6729 0.0
H433 H 0.4689 0.12416 0.55744 0.0
H434 H 0.47451 0.16685 0.6314 0.0
C435 C 0.55721 0.16299 0.6702 0.0
C436 C 0.43546 0.51784 0.15943 0.0
C437 C 0.41895 0.49056 0.11677 0.0
H438 H 0.42395 0.54121 0.23124 0.0
C439 C 0.37596 0.46644 0.11253 0.0
H440 H 0.46831 0.53756 0.16287 0.0
C441 C 0.3502 0.46799 0.1529 0.0
C442 C 0.36705 0.49419 0.19741 0.0
H443 H 0.36236 0.44547 0.07944 0.0
H444 H 0.31742 0.44763 0.15094 0.0
C445 C 0.4099 0.52003 0.19846 0.0
C446 C 0.92766 0.38529 0.57556 0.0
C447 C 0.94412 0.42205 0.5948 0.0
H448 H 0.88997 0.32592 0.59625 0.0
C449 C 0.93082 0.42676 0.64789 0.0
H450 H 0.93668 0.38098 0.53383 0.0
C451 C 0.90239 0.39535 0.68172 0.0
C452 C 0.88771 0.3585 0.66426 0.0
H453 H 0.94174 0.45463 0.66276 0.0
H454 H 0.89342 0.39983 0.72338 0.0
C455 C 0.90006 0.35377 0.61028 0.0
C456 C 0.65123 0.97614 0.13891 0.0
C457 C 0.61706 0.97208 0.10951 0.0
H458 H 0.67692 0.94767 0.18107 0.0
C459 C 0.58863 0.93724 0.08488 0.0
H460 H 0.67434 1.00286 0.15675 0.0
C461 C 0.5906 0.90577 0.09793 0.0
C462 C 0.62052 0.9086 0.13657 0.0
H463 H 0.56218 0.93307 0.06123 0.0
H464 H 0.56486 0.87835 0.08597 0.0
C465 C 0.65339 0.94468 0.15131 0.0
C466 C 0.67979 0.57673 0.62747 0.0
C467 C 0.63685 0.55902 0.63111 0.0
H468 H 0.73534 0.5894 0.67071 0.0
C469 C 0.61705 0.53978 0.68303 0.0
H470 H 0.69598 0.59158 0.58775 0.0
C471 C 0.63939 0.53775 0.72976 0.0
C472 C 0.68246 0.55562 0.7267 0.0
H473 H 0.58401 0.52509 0.68695 0.0
H474 H 0.62253 0.52137 0.76821 0.0
C475 C 0.70238 0.57518 0.67478 0.0
C476 C 0.17028 0.63635 0.13109 0.0
C477 C 0.15849 0.65108 0.0847 0.0
H478 H 0.19733 0.64478 0.21574 0.0
C479 C 0.17041 0.68886 0.08579 0.0
H480 H 0.1623 0.6076 0.13088 0.0
C481 C 0.19095 0.71046 0.13466 0.0
C482 C 0.19969 0.69444 0.18292 0.0
H483 H 0.16163 0.70086 0.05069 0.0
H484 H 0.19774 0.73879 0.13622 0.0
C485 C 0.19044 0.65765 0.17959 0.0
loop_
_geom_bond_atom_site_label_1
_geom_bond_atom_site_label_2
_geom_bond_distance
_geom_bond_site_symmetry_2
_ccdc_geom_bond_type
Cu0 N1 1.998 1_454 S
Cu0 O6 1.947 1_454 S
Cu0 N11 1.988 . S
Cu0 O20 1.987 . S
N1 Cu0 1.998 1_656 S
N1 C3 1.263 . S
N1 C5 1.389 1_556 S
N2 C3 1.358 . S
N2 C4 1.400 . S
C3 N1 1.263 . S
C3 N2 1.358 . S
C3 H9 0.930 . S
C4 N2 1.400 . S
C4 C5 1.351 1_556 S
C4 H21 0.930 . S
C5 N1 1.389 1_554 S
C5 C4 1.351 1_554 S
C5 H10 0.930 . S
O6 Cu0 1.947 1_656 S
O6 C16 1.282 . S
C7 O8 1.261 1_554 S
C7 O20 1.251 . S
O8 C7 1.261 1_556 S
H9 C3 0.930 . S
H10 C5 0.930 . S
N11 Cu0 1.988 . S
N11 C13 1.335 . S
N11 C14 1.390 . S
N12 C13 1.345 . S
N12 C15 1.336 . S
C13 N11 1.335 . S
C13 N12 1.345 . S
C13 H18 0.930 . S
C14 N11 1.390 . S
C14 C15 1.346 . S
C14 H19 0.930 1_554 S
C15 N12 1.336 . S
C15 C14 1.346 . S
C15 H22 0.929 . S
C16 O6 1.282 . S
C16 O17 1.216 . S
O17 C16 1.216 . S
H18 C13 0.930 . S
H19 C14 0.930 1_556 S
O20 Cu0 1.987 . S
O20 C7 1.251 . S
H21 C4 0.930 . S
H22 C15 0.929 . S
Cu23 N24 1.999 . S
Cu23 O29 1.974 . S
Cu23 N34 1.985 1_565 S
Cu23 O43 1.959 1_565 S
N24 Cu23 1.999 . S
N24 C26 1.263 . S
N24 C28 1.389 . S
N25 C26 1.358 . S
N25 C27 1.400 . S
C26 N24 1.263 . S
C26 N25 1.358 . S
C26 H32 0.930 . S
C27 N25 1.400 . S
C27 C28 1.351 . S
C27 H44 0.930 . S
C28 N24 1.389 . S
C28 C27 1.351 . S
C28 H33 0.930 . S
O29 Cu23 1.974 . S
O29 C39 1.282 . S
C30 O31 1.261 . S
C30 O43 1.251 . S
O31 C30 1.261 . S
H32 C26 0.930 . S
H33 C28 0.930 . S
N34 Cu23 1.985 1_545 S
N34 C36 1.335 . S
N34 C37 1.390 . S
N35 C36 1.345 . S
N35 C38 1.336 . S
C36 N34 1.335 . S
C36 N35 1.345 . S
C36 H41 0.930 . S
C37 N34 1.390 . S
C37 C38 1.346 . S
C37 H42 0.930 . S
C38 N35 1.336 . S
C38 C37 1.346 . S
C38 H45 0.929 . S
C39 O29 1.282 . S
C39 O40 1.216 . S
O40 C39 1.216 . S
H41 C36 0.930 . S
H42 C37 0.930 . S
O43 Cu23 1.959 1_545 S
O43 C30 1.251 . S
H44 C27 0.930 . S
H45 C38 0.929 . S
Cu46 N47 1.999 1_554 S
Cu46 O52 1.974 1_554 S
Cu46 N57 1.985 . S
Cu46 O66 1.959 . S
N47 Cu46 1.999 1_556 S
N47 C49 1.263 . S
N47 C51 1.389 . S
N48 C49 1.358 . S
N48 C50 1.400 . S
C49 N47 1.263 . S
C49 N48 1.358 . S
C49 H55 0.930 . S
C50 N48 1.400 . S
C50 C51 1.351 . S
C50 H67 0.930 . S
C51 N47 1.389 . S
C51 C50 1.351 . S
C51 H56 0.930 . S
O52 Cu46 1.974 1_556 S
O52 C62 1.282 . S
C53 O54 1.261 . S
C53 O66 1.251 . S
O54 C53 1.261 . S
H55 C49 0.930 . S
H56 C51 0.930 . S
N57 Cu46 1.985 . S
N57 C59 1.335 . S
N57 C60 1.390 . S
N58 C59 1.345 . S
N58 C61 1.336 . S
C59 N57 1.335 . S
C59 N58 1.345 . S
C59 H64 0.930 . S
C60 N57 1.390 . S
C60 C61 1.346 . S
C60 H65 0.930 . S
C61 N58 1.336 . S
C61 C60 1.346 . S
C61 H68 0.929 . S
C62 O52 1.282 . S
C62 O63 1.216 1_556 S
O63 C62 1.216 1_554 S
H64 C59 0.930 . S
H65 C60 0.930 . S
O66 Cu46 1.959 . S
O66 C53 1.251 . S
H67 C50 0.930 . S
H68 C61 0.929 . S
Cu69 N70 1.999 1_655 S
Cu69 O75 1.974 1_655 S
Cu69 N80 1.985 . S
Cu69 O89 1.959 . S
N70 Cu69 1.999 1_455 S
N70 C72 1.263 . S
N70 C74 1.389 1_455 S
N71 C72 1.358 . S
N71 C73 1.400 . S
C72 N70 1.263 . S
C72 N71 1.358 . S
C72 H78 0.930 . S
C73 N71 1.400 . S
C73 C74 1.351 1_455 S
C73 H90 0.930 . S
C74 N70 1.389 1_655 S
C74 C73 1.351 1_655 S
C74 H79 0.930 . S
O75 Cu69 1.974 1_455 S
O75 C85 1.282 . S
C76 O77 1.261 . S
C76 O89 1.251 . S
O77 C76 1.261 . S
H78 C72 0.930 . S
H79 C74 0.930 . S
N80 Cu69 1.985 . S
N80 C82 1.335 . S
N80 C83 1.390 . S
N81 C82 1.345 . S
N81 C84 1.336 . S
C82 N80 1.335 . S
C82 N81 1.345 . S
C82 H87 0.930 . S
C83 N80 1.390 . S
C83 C84 1.346 . S
C83 H88 0.930 1_655 S
C84 N81 1.336 . S
C84 C83 1.346 . S
C84 H91 0.929 . S
C85 O75 1.282 . S
C85 O86 1.216 . S
O86 C85 1.216 . S
H87 C82 0.930 . S
H88 C83 0.930 1_455 S
O89 Cu69 1.959 . S
O89 C76 1.251 . S
H90 C73 0.930 . S
H91 C84 0.929 . S
Cu92 N93 1.999 . S
Cu92 O98 1.974 . S
Cu92 N103 1.985 1_545 S
Cu92 O112 1.959 1_545 S
N93 Cu92 1.999 . S
N93 C95 1.263 1_554 S
N93 C97 1.389 . S
N94 C95 1.358 . S
N94 C96 1.400 1_556 S
C95 N93 1.263 1_556 S
C95 N94 1.358 . S
C95 H101 0.930 . S
C96 N94 1.400 1_554 S
C96 C97 1.351 . S
C96 H113 0.930 . S
C97 N93 1.389 . S
C97 C96 1.351 . S
C97 H102 0.930 . S
O98 Cu92 1.974 . S
O98 C108 1.282 1_554 S
C99 O100 1.261 . S
C99 O112 1.251 . S
O100 C99 1.261 . S
H101 C95 0.930 . S
H102 C97 0.930 . S
N103 Cu92 1.985 1_565 S
N103 C105 1.335 . S
N103 C106 1.390 . S
N104 C105 1.345 . S
N104 C107 1.336 . S
C105 N103 1.335 . S
C105 N104 1.345 . S
C105 H110 0.930 . S
C106 N103 1.390 . S
C106 C107 1.346 . S
C106 H111 0.930 1_565 S
C107 N104 1.336 . S
C107 C106 1.346 . S
C107 H114 0.929 . S
C108 O98 1.282 1_556 S
C108 O109 1.216 . S
O109 C108 1.216 . S
H110 C105 0.930 . S
H111 C106 0.930 1_545 S
O112 Cu92 1.959 1_565 S
O112 C99 1.251 . S
H113 C96 0.930 . S
H114 C107 0.929 . S
Cu115 N116 1.999 . S
Cu115 O121 1.974 . S
Cu115 N126 1.985 . S
Cu115 O135 1.959 . S
N116 Cu115 1.999 . S
N116 C118 1.263 . S
N116 C120 1.389 . S
N117 C118 1.358 . S
N117 C119 1.400 . S
C118 N116 1.263 . S
C118 N117 1.358 . S
C118 H124 0.930 . S
C119 N117 1.400 . S
C119 C120 1.351 . S
C119 H136 0.930 . S
C120 N116 1.389 . S
C120 C119 1.351 . S
C120 H125 0.930 . S
O121 Cu115 1.974 . S
O121 C131 1.282 . S
C122 O123 1.261 . S
C122 O135 1.251 . S
O123 C122 1.261 . S
H124 C118 0.930 . S
H125 C120 0.930 . S
N126 Cu115 1.985 . S
N126 C128 1.335 . S
N126 C129 1.390 . S
N127 C128 1.345 . S
N127 C130 1.336 . S
C128 N126 1.335 . S
C128 N127 1.345 . S
C128 H133 0.930 . S
C129 N126 1.390 . S
C129 C130 1.346 . S
C129 H134 0.930 . S
C130 N127 1.336 . S
C130 C129 1.346 . S
C130 H137 0.929 . S
C131 O121 1.282 . S
C131 O132 1.216 . S
O132 C131 1.216 . S
H133 C128 0.930 . S
H134 C129 0.930 . S
O135 Cu115 1.959 . S
O135 C122 1.251 . S
H136 C119 0.930 . S
H137 C130 0.929 . S
H138 C144 0.930 . S
H139 C147 0.931 . S
H140 C149 0.931 . S
H141 C151 0.930 . S
H142 C153 0.930 . S
H143 C155 0.931 . S
C144 H138 0.930 . S
C144 C145 1.380 . S
C144 C146 1.394 . S
C145 C144 1.380 . S
C145 C149 1.382 . S
C146 C144 1.394 . S
C146 C147 1.400 . S
C147 H139 0.931 . S
C147 C146 1.400 . S
C147 C148 1.375 . S
C148 C147 1.375 . S
C148 C149 1.415 . S
C148 C150 1.501 . S
C149 H140 0.931 . S
C149 C145 1.382 . S
C149 C148 1.415 . S
C150 C148 1.501 . S
C150 C151 1.384 . S
C150 C155 1.408 . S
C151 H141 0.930 . S
C151 C150 1.384 . S
C151 C152 1.389 . S
C152 C151 1.389 . S
C152 C153 1.405 . S
C153 H142 0.930 . S
C153 C152 1.405 . S
C153 C154 1.364 . S
C154 C153 1.364 . S
C154 C155 1.400 . S
C155 H143 0.931 . S
C155 C150 1.408 . S
C155 C154 1.400 . S
H156 C162 0.930 . S
H157 C165 0.931 . S
H158 C167 0.931 . S
H159 C169 0.930 . S
H160 C171 0.930 . S
H161 C173 0.931 . S
C162 H156 0.930 . S
C162 C163 1.380 . S
C162 C164 1.394 . S
C163 C162 1.380 . S
C163 C167 1.382 . S
C164 C162 1.394 . S
C164 C165 1.400 . S
C165 H157 0.931 . S
C165 C164 1.400 . S
C165 C166 1.375 . S
C166 C165 1.375 . S
C166 C167 1.415 . S
C166 C168 1.501 . S
C167 H158 0.931 . S
C167 C163 1.382 . S
C167 C166 1.415 . S
C168 C166 1.501 . S
C168 C169 1.384 . S
C168 C173 1.408 . S
C169 H159 0.930 . S
C169 C168 1.384 . S
C169 C170 1.389 . S
C170 C169 1.389 . S
C170 C171 1.405 . S
C171 H160 0.930 . S
C171 C170 1.405 . S
C171 C172 1.364 . S
C172 C171 1.364 . S
C172 C173 1.400 . S
C173 H161 0.931 . S
C173 C168 1.408 . S
C173 C172 1.400 . S
H174 C180 0.930 . S
H175 C183 0.931 . S
H176 C185 0.931 . S
H177 C187 0.930 . S
H178 C189 0.930 . S
H179 C191 0.931 . S
C180 H174 0.930 . S
C180 C181 1.380 . S
C180 C182 1.394 . S
C181 C180 1.380 . S
C181 C185 1.382 . S
C182 C180 1.394 . S
C182 C183 1.400 . S
C183 H175 0.931 . S
C183 C182 1.400 . S
C183 C184 1.375 . S
C184 C183 1.375 . S
C184 C185 1.415 . S
C184 C186 1.501 . S
C185 H176 0.931 . S
C185 C181 1.382 . S
C185 C184 1.415 . S
C186 C184 1.501 . S
C186 C187 1.384 . S
C186 C191 1.408 . S
C187 H177 0.930 . S
C187 C186 1.384 . S
C187 C188 1.389 . S
C188 C187 1.389 . S
C188 C189 1.405 . S
C189 H178 0.930 . S
C189 C188 1.405 . S
C189 C190 1.364 . S
C190 C189 1.364 . S
C190 C191 1.400 . S
C191 H179 0.931 . S
C191 C186 1.408 . S
C191 C190 1.400 . S
H192 C198 0.930 . S
H193 C201 0.931 . S
H194 C203 0.931 . S
H195 C205 0.930 . S
H196 C207 0.930 . S
H197 C209 0.931 . S
C198 H192 0.930 . S
C198 C199 1.380 . S
C198 C200 1.394 . S
C199 C198 1.380 . S
C199 C203 1.382 . S
C200 C198 1.394 . S
C200 C201 1.400 . S
C201 H193 0.931 . S
C201 C200 1.400 . S
C201 C202 1.375 . S
C202 C201 1.375 . S
C202 C203 1.415 . S
C202 C204 1.501 . S
C203 H194 0.931 . S
C203 C199 1.382 . S
C203 C202 1.415 . S
C204 C202 1.501 . S
C204 C205 1.384 . S
C204 C209 1.408 . S
C205 H195 0.930 . S
C205 C204 1.384 . S
C205 C206 1.389 . S
C206 C205 1.389 . S
C206 C207 1.405 . S
C207 H196 0.930 . S
C207 C206 1.405 . S
C207 C208 1.364 . S
C208 C207 1.364 . S
C208 C209 1.400 . S
C209 H197 0.931 . S
C209 C204 1.408 . S
C209 C208 1.400 . S
H210 C216 0.930 . S
H211 C219 0.931 . S
H212 C221 0.931 . S
H213 C223 0.930 . S
H214 C225 0.930 . S
H215 C227 0.931 . S
C216 H210 0.930 . S
C216 C217 1.380 . S
C216 C218 1.394 . S
C217 C216 1.380 . S
C217 C221 1.382 . S
C218 C216 1.394 . S
C218 C219 1.400 . S
C219 H211 0.931 . S
C219 C218 1.400 . S
C219 C220 1.375 . S
C220 C219 1.375 . S
C220 C221 1.415 . S
C220 C222 1.501 . S
C221 H212 0.931 . S
C221 C217 1.382 . S
C221 C220 1.415 . S
C222 C220 1.501 . S
C222 C223 1.384 . S
C222 C227 1.408 . S
C223 H213 0.930 . S
C223 C222 1.384 . S
C223 C224 1.389 . S
C224 C223 1.389 . S
C224 C225 1.405 . S
C225 H214 0.930 . S
C225 C224 1.405 . S
C225 C226 1.364 . S
C226 C225 1.364 . S
C226 C227 1.400 . S
C227 H215 0.931 . S
C227 C222 1.408 . S
C227 C226 1.400 . S
H228 C234 0.930 . S
H229 C237 0.931 . S
H230 C239 0.931 . S
H231 C241 0.930 . S
H232 C243 0.930 . S
H233 C245 0.931 . S
C234 H228 0.930 . S
C234 C235 1.380 . S
C234 C236 1.394 . S
C235 C234 1.380 . S
C235 C239 1.382 . S
C236 C234 1.394 . S
C236 C237 1.400 . S
C237 H229 0.931 . S
C237 C236 1.400 . S
C237 C238 1.375 . S
C238 C237 1.375 . S
C238 C239 1.415 . S
C238 C240 1.501 . S
C239 H230 0.931 . S
C239 C235 1.382 . S
C239 C238 1.415 . S
C240 C238 1.501 . S
C240 C241 1.384 . S
C240 C245 1.408 . S
C241 H231 0.930 . S
C241 C240 1.384 . S
C241 C242 1.389 . S
C242 C241 1.389 . S
C242 C243 1.405 . S
C243 H232 0.930 . S
C243 C242 1.405 . S
C243 C244 1.364 . S
C244 C243 1.364 . S
C244 C245 1.400 . S
C245 H233 0.931 . S
C245 C240 1.408 . S
C245 C244 1.400 . S
C246 C247 1.387 . S
C246 H250 0.950 . S
C246 C255 1.390 . S
C247 C246 1.387 . S
C247 C249 1.387 . S
H248 C255 0.950 . S
C249 C247 1.387 . S
C249 C251 1.390 . S
C249 H253 0.950 . S
H250 C246 0.950 . S
C251 C249 1.390 . S
C251 C252 1.387 . S
C251 H254 0.950 . S
C252 C251 1.387 . S
C252 C255 1.387 . S
H253 C249 0.950 . S
H254 C251 0.950 . S
C255 C246 1.390 . S
C255 H248 0.950 . S
C255 C252 1.387 . S
C256 C257 1.387 . S
C256 H260 0.950 . S
C256 C265 1.390 . S
C257 C256 1.387 . S
C257 C259 1.387 . S
H258 C265 0.950 . S
C259 C257 1.387 . S
C259 C261 1.390 . S
C259 H263 0.950 . S
H260 C256 0.950 . S
C261 C259 1.390 . S
C261 C262 1.387 . S
C261 H264 0.950 . S
C262 C261 1.387 . S
C262 C265 1.387 . S
H263 C259 0.950 . S
H264 C261 0.950 . S
C265 C256 1.390 . S
C265 H258 0.950 . S
C265 C262 1.387 . S
C266 C267 1.387 . S
C266 H270 0.950 . S
C266 C275 1.390 . S
C267 C266 1.387 . S
C267 C269 1.387 . S
H268 C275 0.950 . S
C269 C267 1.387 . S
C269 C271 1.390 . S
C269 H273 0.950 . S
H270 C266 0.950 . S
C271 C269 1.390 . S
C271 C272 1.387 . S
C271 H274 0.950 . S
C272 C271 1.387 . S
C272 C275 1.387 . S
H273 C269 0.950 . S
H274 C271 0.950 . S
C275 C266 1.390 . S
C275 H268 0.950 . S
C275 C272 1.387 . S
C276 C277 1.387 . S
C276 H280 0.950 . S
C276 C285 1.390 . S
C277 C276 1.387 . S
C277 C279 1.387 . S
H278 C285 0.950 . S
C279 C277 1.387 . S
C279 C281 1.390 . S
C279 H283 0.950 . S
H280 C276 0.950 . S
C281 C279 1.390 . S
C281 C282 1.387 . S
C281 H284 0.950 . S
C282 C281 1.387 . S
C282 C285 1.387 . S
H283 C279 0.950 . S
H284 C281 0.950 . S
C285 C276 1.390 . S
C285 H278 0.950 . S
C285 C282 1.387 . S
C286 C287 1.387 . S
C286 H290 0.950 . S
C286 C295 1.390 . S
C287 C286 1.387 . S
C287 C289 1.387 . S
H288 C295 0.950 . S
C289 C287 1.387 . S
C289 C291 1.390 . S
C289 H293 0.950 . S
H290 C286 0.950 . S
C291 C289 1.390 . S
C291 C292 1.387 . S
C291 H294 0.950 . S
C292 C291 1.387 . S
C292 C295 1.387 . S
H293 C289 0.950 . S
H294 C291 0.950 . S
C295 C286 1.390 . S
C295 H288 0.950 . S
C295 C292 1.387 . S
C296 C297 1.387 . S
C296 H300 0.950 . S
C296 C305 1.390 . S
C297 C296 1.387 . S
C297 C299 1.387 . S
H298 C305 0.950 . S
C299 C297 1.387 . S
C299 C301 1.390 . S
C299 H303 0.950 . S
H300 C296 0.950 . S
C301 C299 1.390 . S
C301 C302 1.387 . S
C301 H304 0.950 . S
C302 C301 1.387 . S
C302 C305 1.387 . S
H303 C299 0.950 . S
H304 C301 0.950 . S
C305 C296 1.390 . S
C305 H298 0.950 . S
C305 C302 1.387 . S
C306 C307 1.387 . S
C306 H310 0.950 . S
C306 C315 1.390 . S
C307 C306 1.387 . S
C307 C309 1.387 . S
H308 C315 0.950 . S
C309 C307 1.387 . S
C309 C311 1.390 . S
C309 H313 0.950 . S
H310 C306 0.950 . S
C311 C309 1.390 . S
C311 C312 1.387 . S
C311 H314 0.950 . S
C312 C311 1.387 . S
C312 C315 1.387 . S
H313 C309 0.950 . S
H314 C311 0.950 . S
C315 C306 1.390 . S
C315 H308 0.950 . S
C315 C312 1.387 . S
C316 C317 1.387 . S
C316 H320 0.950 1_556 S
C316 C325 1.390 . S
C317 C316 1.387 . S
C317 C319 1.387 . S
H318 C325 0.950 . S
C319 C317 1.387 . S
C319 C321 1.390 . S
C319 H323 0.950 . S
H320 C316 0.950 1_554 S
C321 C319 1.390 . S
C321 C322 1.387 . S
C321 H324 0.950 . S
C322 C321 1.387 . S
C322 C325 1.387 . S
H323 C319 0.950 . S
H324 C321 0.950 . S
C325 C316 1.390 . S
C325 H318 0.950 . S
C325 C322 1.387 . S
C326 C327 1.387 . S
C326 H330 0.950 . S
C326 C335 1.390 . S
C327 C326 1.387 . S
C327 C329 1.387 . S
H328 C335 0.950 . S
C329 C327 1.387 . S
C329 C331 1.390 . S
C329 H333 0.950 . S
H330 C326 0.950 . S
C331 C329 1.390 . S
C331 C332 1.387 . S
C331 H334 0.950 . S
C332 C331 1.387 . S
C332 C335 1.387 . S
H333 C329 0.950 . S
H334 C331 0.950 . S
C335 C326 1.390 . S
C335 H328 0.950 . S
C335 C332 1.387 . S
C336 C337 1.387 . S
C336 H340 0.950 1_556 S
C336 C345 1.390 . S
C337 C336 1.387 . S
C337 C339 1.387 . S
H338 C345 0.950 . S
C339 C337 1.387 . S
C339 C341 1.390 . S
C339 H343 0.950 . S
H340 C336 0.950 1_554 S
C341 C339 1.390 . S
C341 C342 1.387 . S
C341 H344 0.950 . S
C342 C341 1.387 . S
C342 C345 1.387 . S
H343 C339 0.950 . S
H344 C341 0.950 . S
C345 C336 1.390 . S
C345 H338 0.950 . S
C345 C342 1.387 . S
C346 C347 1.387 . S
C346 H350 0.950 . S
C346 C355 1.390 . S
C347 C346 1.387 . S
C347 C349 1.387 . S
H348 C355 0.950 . S
C349 C347 1.387 . S
C349 C351 1.390 . S
C349 H353 0.950 . S
H350 C346 0.950 . S
C351 C349 1.390 . S
C351 C352 1.387 . S
C351 H354 0.950 . S
C352 C351 1.387 . S
C352 C355 1.387 . S
H353 C349 0.950 . S
H354 C351 0.950 . S
C355 C346 1.390 . S
C355 H348 0.950 . S
C355 C352 1.387 . S
C356 C357 1.387 . S
C356 H360 0.950 . S
C356 C365 1.390 . S
C357 C356 1.387 . S
C357 C359 1.387 . S
H358 C365 0.950 . S
C359 C357 1.387 . S
C359 C361 1.390 . S
C359 H363 0.950 . S
H360 C356 0.950 . S
C361 C359 1.390 . S
C361 C362 1.387 . S
C361 H364 0.950 . S
C362 C361 1.387 . S
C362 C365 1.387 . S
H363 C359 0.950 . S
H364 C361 0.950 . S
C365 C356 1.390 . S
C365 H358 0.950 . S
C365 C362 1.387 . S
C366 C367 1.387 . S
C366 H370 0.950 . S
C366 C375 1.390 . S
C367 C366 1.387 . S
C367 C369 1.387 . S
H368 C375 0.950 . S
C369 C367 1.387 . S
C369 C371 1.390 . S
C369 H373 0.950 . S
H370 C366 0.950 . S
C371 C369 1.390 . S
C371 C372 1.387 . S
C371 H374 0.950 . S
C372 C371 1.387 . S
C372 C375 1.387 . S
H373 C369 0.950 . S
H374 C371 0.950 . S
C375 C366 1.390 . S
C375 H368 0.950 . S
C375 C372 1.387 . S
C376 C377 1.387 . S
C376 H380 0.950 . S
C376 C385 1.390 . S
C377 C376 1.387 . S
C377 C379 1.387 . S
H378 C385 0.950 . S
C379 C377 1.387 . S
C379 C381 1.390 . S
C379 H383 0.950 . S
H380 C376 0.950 . S
C381 C379 1.390 . S
C381 C382 1.387 . S
C381 H384 0.950 . S
C382 C381 1.387 . S
C382 C385 1.387 . S
H383 C379 0.950 . S
H384 C381 0.950 . S
C385 C376 1.390 . S
C385 H378 0.950 . S
C385 C382 1.387 . S
C386 C387 1.387 . S
C386 H390 0.950 . S
C386 C395 1.390 . S
C387 C386 1.387 . S
C387 C389 1.387 . S
H388 C395 0.950 . S
C389 C387 1.387 . S
C389 C391 1.390 . S
C389 H393 0.950 . S
H390 C386 0.950 . S
C391 C389 1.390 . S
C391 C392 1.387 . S
C391 H394 0.950 . S
C392 C391 1.387 . S
C392 C395 1.387 . S
H393 C389 0.950 . S
H394 C391 0.950 . S
C395 C386 1.390 . S
C395 H388 0.950 . S
C395 C392 1.387 . S
C396 C397 1.387 . S
C396 H400 0.950 . S
C396 C405 1.390 . S
C397 C396 1.387 . S
C397 C399 1.387 . S
H398 C405 0.950 . S
C399 C397 1.387 . S
C399 C401 1.390 . S
C399 H403 0.950 . S
H400 C396 0.950 . S
C401 C399 1.390 . S
C401 C402 1.387 . S
C401 H404 0.950 . S
C402 C401 1.387 . S
C402 C405 1.387 . S
H403 C399 0.950 . S
H404 C401 0.950 . S
C405 C396 1.390 . S
C405 H398 0.950 . S
C405 C402 1.387 . S
C406 C407 1.387 . S
C406 H410 0.950 . S
C406 C415 1.390 . S
C407 C406 1.387 . S
C407 C409 1.387 . S
H408 C415 0.950 . S
C409 C407 1.387 . S
C409 C411 1.390 . S
C409 H413 0.950 . S
H410 C406 0.950 . S
C411 C409 1.390 . S
C411 C412 1.387 . S
C411 H414 0.950 . S
C412 C411 1.387 . S
C412 C415 1.387 . S
H413 C409 0.950 . S
H414 C411 0.950 . S
C415 C406 1.390 . S
C415 H408 0.950 . S
C415 C412 1.387 . S
C416 C417 1.387 . S
C416 H420 0.950 . S
C416 C425 1.390 . S
C417 C416 1.387 . S
C417 C419 1.387 . S
H418 C425 0.950 . S
C419 C417 1.387 . S
C419 C421 1.390 . S
C419 H423 0.950 . S
H420 C416 0.950 . S
C421 C419 1.390 . S
C421 C422 1.387 . S
C421 H424 0.950 . S
C422 C421 1.387 . S
C422 C425 1.387 . S
H423 C419 0.950 . S
H424 C421 0.950 . S
C425 C416 1.390 . S
C425 H418 0.950 . S
C425 C422 1.387 . S
C426 C427 1.387 . S
C426 H430 0.950 . S
C426 C435 1.390 . S
C427 C426 1.387 . S
C427 C429 1.387 . S
H428 C435 0.950 . S
C429 C427 1.387 . S
C429 C431 1.390 . S
C429 H433 0.950 . S
H430 C426 0.950 . S
C431 C429 1.390 . S
C431 C432 1.387 . S
C431 H434 0.950 . S
C432 C431 1.387 . S
C432 C435 1.387 . S
H433 C429 0.950 . S
H434 C431 0.950 . S
C435 C426 1.390 . S
C435 H428 0.950 . S
C435 C432 1.387 . S
C436 C437 1.387 . S
C436 H440 0.950 . S
C436 C445 1.390 . S
C437 C436 1.387 . S
C437 C439 1.387 . S
H438 C445 0.950 . S
C439 C437 1.387 . S
C439 C441 1.390 . S
C439 H443 0.950 . S
H440 C436 0.950 . S
C441 C439 1.390 . S
C441 C442 1.387 . S
C441 H444 0.950 . S
C442 C441 1.387 . S
C442 C445 1.387 . S
H443 C439 0.950 . S
H444 C441 0.950 . S
C445 C436 1.390 . S
C445 H438 0.950 . S
C445 C442 1.387 . S
C446 C447 1.387 . S
C446 H450 0.950 . S
C446 C455 1.390 . S
C447 C446 1.387 . S
C447 C449 1.387 . S
H448 C455 0.950 . S
C449 C447 1.387 . S
C449 C451 1.390 . S
C449 H453 0.950 . S
H450 C446 0.950 . S
C451 C449 1.390 . S
C451 C452 1.387 . S
C451 H454 0.950 . S
C452 C451 1.387 . S
C452 C455 1.387 . S
H453 C449 0.950 . S
H454 C451 0.950 . S
C455 C446 1.390 . S
C455 H448 0.950 . S
C455 C452 1.387 . S
C456 C457 1.387 . S
C456 H460 0.950 . S
C456 C465 1.390 . S
C457 C456 1.387 . S
C457 C459 1.387 . S
H458 C465 0.950 . S
C459 C457 1.387 . S
C459 C461 1.390 . S
C459 H463 0.950 . S
H460 C456 0.950 . S
C461 C459 1.390 . S
C461 C462 1.387 . S
C461 H464 0.950 . S
C462 C461 1.387 . S
C462 C465 1.387 . S
H463 C459 0.950 . S
H464 C461 0.950 . S
C465 C456 1.390 . S
C465 H458 0.950 . S
C465 C462 1.387 . S
C466 C467 1.387 . S
C466 H470 0.950 . S
C466 C475 1.390 . S
C467 C466 1.387 . S
C467 C469 1.387 . S
H468 C475 0.950 . S
C469 C467 1.387 . S
C469 C471 1.390 . S
C469 H473 0.950 . S
H470 C466 0.950 . S
C471 C469 1.390 . S
C471 C472 1.387 . S
C471 H474 0.950 . S
C472 C471 1.387 . S
C472 C475 1.387 . S
H473 C469 0.950 . S
H474 C471 0.950 . S
C475 C466 1.390 . S
C475 H468 0.950 . S
C475 C472 1.387 . S
C476 C477 1.387 . S
C476 H480 0.950 . S
C476 C485 1.390 . S
C477 C476 1.387 . S
C477 C479 1.387 . S
H478 C485 0.950 . S
C479 C477 1.387 . S
C479 C481 1.390 . S
C479 H483 0.950 . S
H480 C476 0.950 . S
C481 C479 1.390 . S
C481 C482 1.387 . S
C481 H484 0.950 . S
C482 C481 1.387 . S
C482 C485 1.387 . S
H483 C479 0.950 . S
H484 C481 0.950 . S
C485 C476 1.390 . S
C485 H478 0.950 . S
C485 C482 1.387 . S
C247 C7 1.759 . S
C252 C152 1.686 . S
C257 C30 1.514 . S
C262 C163 1.459 . S
C272 C182 1.585 . S
C267 N58 1.594 . S
C282 C199 1.386 . S
C277 N81 1.360 . S
C292 C226 1.629 . S
C287 C99 1.652 . S
C302 C235 1.394 . S
C297 N127 1.399 . S
C307 N25 1.613 . S
C312 C188 1.577 . S
C317 C62 1.516 . S
C322 C208 1.476 . S
C332 C217 1.644 . S
C327 C85 1.711 . S
C342 C244 1.411 . S
C337 N94 1.421 . S
C347 C131 1.693 . S
C352 C146 1.662 . S
C362 C172 1.369 . S
C357 N2 1.365 . S
C372 C200 1.655 . S
C367 C16 1.776 . S
C377 C39 1.540 . S
C382 C224 1.459 . S
C392 C236 1.588 . S
C387 N48 1.654 . S
C397 N71 1.403 . S
C402 C154 1.352 . S
C407 C108 1.691 . S
C412 C164 1.635 . S
C417 N117 1.462 . S
C422 C181 1.385 . S
C427 N35 1.646 . S
C432 C242 1.596 . S
C442 C145 1.457 . S
C437 C53 1.571 . S
C447 C76 1.797 . S
C452 C170 1.685 . S
C457 N104 1.444 . S
C462 C190 1.366 . S
C467 C122 1.694 . S
C472 C206 1.626 . S
C477 N12 1.375 . S
C482 C218 1.362 . S
