# Generated by pormake.
# Topology wbl, (4,4)-cn, num edge types: 1
# Building blocks:
#     Node 0, Type 0, BuildingBlock: NAWXER_clean_linker_0, # of connection points: 4
#     Node 1, Type 0, BuildingBlock: NAWXER_clean_linker_0, # of connection points: 4
#     Node 2, Type 0, BuildingBlock: NAWXER_clean_linker_0, # of connection points: 4
#     Node 3, Type 0, BuildingBlock: NAWXER_clean_linker_0, # of connection points: 4
#     Node 4, Type 0, BuildingBlock: NAWXER_clean_linker_0, # of connection points: 4
#     Node 5, Type 0, BuildingBlock: NAWXER_clean_linker_0, # of connection points: 4
#     Node 6, Type 0, BuildingBlock: NAWXER_clean_linker_0, # of connection points: 4
#     Node 7, Type 0, BuildingBlock: NAWXER_clean_linker_0, # of connection points: 4
#     Node 8, Type 1, BuildingBlock: QUQFOY_clean_sbu_3, # of connection points: 4
#     Node 9, Type 1, BuildingBlock: QUQFOY_clean_sbu_3, # of connection points: 4
#     Node 10, Type 1, BuildingBlock: QUQFOY_clean_sbu_3, # of connection points: 4
#     Node 11, Type 1, BuildingBlock: QUQFOY_clean_sbu_3, # of connection points: 4
#     Node 12, Type 1, BuildingBlock: QUQFOY_clean_sbu_3, # of connection points: 4
#     Node 13, Type 1, BuildingBlock: QUQFOY_clean_sbu_3, # of connection points: 4
#     Node 14, Type 1, BuildingBlock: QUQFOY_clean_sbu_3, # of connection points: 4
#     Node 15, Type 1, BuildingBlock: QUQFOY_clean_sbu_3, # of connection points: 4
#     Edge 16, Type (0, 1), BuildingBlock: AJUNOK_clean_linker_0, # of connection points: 2
#     Edge 17, Type (0, 1), BuildingBlock: AJUNOK_clean_linker_0, # of connection points: 2
#     Edge 18, Type (0, 1), BuildingBlock: AJUNOK_clean_linker_0, # of connection points: 2
#     Edge 19, Type (0, 1), BuildingBlock: AJUNOK_clean_linker_0, # of connection points: 2
#     Edge 20, Type (0, 1), BuildingBlock: AJUNOK_clean_linker_0, # of connection points: 2
#     Edge 21, Type (0, 1), BuildingBlock: AJUNOK_clean_linker_0, # of connection points: 2
#     Edge 22, Type (0, 1), BuildingBlock: AJUNOK_clean_linker_0, # of connection points: 2
#     Edge 23, Type (0, 1), BuildingBlock: AJUNOK_clean_linker_0, # of connection points: 2
#     Edge 24, Type (0, 1), BuildingBlock: AJUNOK_clean_linker_0, # of connection points: 2
#     Edge 25, Type (0, 1), BuildingBlock: AJUNOK_clean_linker_0, # of connection points: 2
#     Edge 26, Type (0, 1), BuildingBlock: AJUNOK_clean_linker_0, # of connection points: 2
#     Edge 27, Type (0, 1), BuildingBlock: AJUNOK_clean_linker_0, # of connection points: 2
#     Edge 28, Type (0, 1), BuildingBlock: AJUNOK_clean_linker_0, # of connection points: 2
#     Edge 29, Type (0, 1), BuildingBlock: AJUNOK_clean_linker_0, # of connection points: 2
#     Edge 30, Type (0, 1), BuildingBlock: AJUNOK_clean_linker_0, # of connection points: 2
#     Edge 31, Type (0, 1), BuildingBlock: AJUNOK_clean_linker_0, # of connection points: 2
#     Edge 32, Type (0, 1), BuildingBlock: AJUNOK_clean_linker_0, # of connection points: 2
#     Edge 33, Type (0, 1), BuildingBlock: AJUNOK_clean_linker_0, # of connection points: 2
#     Edge 34, Type (0, 1), BuildingBlock: AJUNOK_clean_linker_0, # of connection points: 2
#     Edge 35, Type (0, 1), BuildingBlock: AJUNOK_clean_linker_0, # of connection points: 2
#     Edge 36, Type (0, 1), BuildingBlock: AJUNOK_clean_linker_0, # of connection points: 2
#     Edge 37, Type (0, 1), BuildingBlock: AJUNOK_clean_linker_0, # of connection points: 2
#     Edge 38, Type (0, 1), BuildingBlock: AJUNOK_clean_linker_0, # of connection points: 2
#     Edge 39, Type (0, 1), BuildingBlock: AJUNOK_clean_linker_0, # of connection points: 2
#     Edge 40, Type (0, 1), BuildingBlock: AJUNOK_clean_linker_0, # of connection points: 2
#     Edge 41, Type (0, 1), BuildingBlock: AJUNOK_clean_linker_0, # of connection points: 2
#     Edge 42, Type (0, 1), BuildingBlock: AJUNOK_clean_linker_0, # of connection points: 2
#     Edge 43, Type (0, 1), BuildingBlock: AJUNOK_clean_linker_0, # of connection points: 2
#     Edge 44, Type (0, 1), BuildingBlock: AJUNOK_clean_linker_0, # of connection points: 2
#     Edge 45, Type (0, 1), BuildingBlock: AJUNOK_clean_linker_0, # of connection points: 2
#     Edge 46, Type (0, 1), BuildingBlock: AJUNOK_clean_linker_0, # of connection points: 2
#     Edge 47, Type (0, 1), BuildingBlock: AJUNOK_clean_linker_0, # of connection points: 2
# Relax obj value: 0.171
# Max RMSD: 0.175
# Mean RMSD: 0.146
data_MOF--net-wbl--node1-QUQFOY_clean_sbu_3--node2-NAWXER_clean_linker_0--edge1-AJUNOK_clean_linker_0
_symmetry_space_group_name_H-M    P1
_symmetry_Int_Tables_number       1
_symmetry_cell_setting            triclinic
loop_
_symmetry_equiv_pos_as_xyz
'x, y, z'
_cell_length_a     35.624721
_cell_length_b     36.062568
_cell_length_c     61.699487
_cell_angle_alpha  90.696325
_cell_angle_beta   90.265773
_cell_angle_gamma 89.97291
loop_
_atom_site_label
_atom_site_type_symbol
_atom_site_fract_x
_atom_site_fract_y
_atom_site_fract_z
_atom_type_partial_charge
C0 C 0.14173 0.96492 0.36934 0.0
C1 C 0.15727 0.98668 0.38621 0.0
C2 C 0.12302 0.98164 0.35199 0.0
C3 C 0.11991 0.02047 0.35108 0.0
C4 C 0.15581 0.0255 0.3846 0.0
C5 C 0.13754 0.04213 0.3672 0.0
C6 C 0.09208 0.03837 0.33665 0.0
C7 C 0.17496 0.99 0.29017 0.0
C8 C 0.16117 0.96056 0.27733 0.0
C9 C 0.15055 0.0118 0.3025 0.0
C10 C 0.11186 0.00455 0.30223 0.0
C11 C 0.12249 0.95318 0.27706 0.0
C12 C 0.09793 0.97538 0.28921 0.0
C13 C 0.08589 0.02849 0.31468 0.0
C14 C 0.95995 0.1327 0.28994 0.0
C15 C 0.93374 0.10751 0.28112 0.0
C16 C 0.99235 0.11984 0.30025 0.0
C17 C -0.00066 0.08162 0.30161 0.0
C18 C 0.94168 0.06931 0.28178 0.0
C19 C 0.97436 0.05653 0.29177 0.0
C20 C 0.03177 0.06756 0.31397 0.0
C21 C 0.9532 0.10106 0.36883 0.0
C22 C 0.96842 0.12678 0.38365 0.0
C23 C 0.97484 0.08768 0.3516 0.0
C24 C 0.01201 0.09984 0.34908 0.0
C25 C 0.00437 0.14118 0.38014 0.0
C26 C 0.02611 0.12765 0.36301 0.0
C27 C 0.03847 0.07798 0.33572 0.0
H28 H 0.14239 0.93494 0.37011 0.0
H29 H 0.10878 0.96409 0.34021 0.0
H30 H 0.16647 0.04319 0.39752 0.0
H31 H 0.1351 0.07209 0.36709 0.0
H32 H 0.20477 -0.00414 0.29087 0.0
H33 H 0.16188 0.03458 0.31208 0.0
H34 H 0.11134 0.93047 0.26735 0.0
H35 H 0.06811 0.96952 0.28866 0.0
H36 H 0.95523 0.16231 0.28909 0.0
H37 H 0.01175 0.13968 0.30738 0.0
H38 H 0.922 0.04917 0.27523 0.0
H39 H 0.97935 0.02693 0.29261 0.0
H40 H 0.92573 0.08916 0.37159 0.0
H41 H 0.96366 0.06547 0.34152 0.0
H42 H 0.01675 0.16055 0.39168 0.0
H43 H 0.05489 0.13697 0.36155 0.0
N44 N 0.06823 0.0629 0.34612 0.0
N45 N 0.05574 0.04323 0.3042 0.0
C46 C 0.91994 0.46421 0.61221 0.0
C47 C 0.94065 0.45417 0.63071 0.0
C48 C 0.93652 0.48556 0.596 0.0
C49 C 0.9743 0.49654 0.59785 0.0
C50 C 0.97861 0.4645 0.63216 0.0
C51 C -0.00482 0.48528 0.61595 0.0
C52 C 0.99164 0.52303 0.58266 0.0
C53 C 0.96724 0.42285 0.54264 0.0
C54 C 0.93717 0.42742 0.52814 0.0
C55 C 0.98365 0.45348 0.55281 0.0
C56 C 0.9703 0.48931 0.5487 0.0
C57 C 0.92415 0.46333 0.52368 0.0
C58 C 0.94093 0.49419 0.53376 0.0
C59 C 0.98774 0.52134 0.55986 0.0
C60 C 0.10329 0.6346 0.53381 0.0
C61 C 0.08327 0.65699 0.51928 0.0
C62 C 0.08515 0.60665 0.54508 0.0
C63 C 0.04635 0.60121 0.54264 0.0
C64 C 0.04489 0.64974 0.5157 0.0
C65 C 0.02659 0.62197 0.52727 0.0
C66 C 0.02638 0.57507 0.55679 0.0
C67 C 0.05952 0.66408 0.60871 0.0
C68 C 0.09025 0.65129 0.62088 0.0
C69 C 0.04154 0.64043 0.59379 0.0
C70 C 0.05374 0.60365 0.59128 0.0
C71 C 0.1037 0.61517 0.61728 0.0
C72 C 0.08531 0.59142 0.60278 0.0
C73 C 0.03068 0.57617 0.5795 0.0
H74 H 0.8908 0.45616 0.61043 0.0
H75 H 0.91941 0.49453 0.5825 0.0
H76 H -0.00469 0.45764 0.64627 0.0
H77 H 0.02429 0.49346 0.61787 0.0
H78 H 0.97766 0.39542 0.54639 0.0
H79 H 0.00678 0.44919 0.56397 0.0
H80 H 0.90118 0.46745 0.5124 0.0
H81 H 0.93058 0.52172 0.53023 0.0
H82 H 0.13262 0.63979 0.53737 0.0
H83 H 0.10129 0.59008 0.5563 0.0
H84 H 0.02878 0.66639 0.5045 0.0
H85 H -0.00327 0.61781 0.52491 0.0
H86 H 0.04848 0.69172 0.61145 0.0
H87 H 0.01685 0.65008 0.58523 0.0
H88 H 0.12685 0.60446 0.62679 0.0
H89 H 0.09476 0.56295 0.60118 0.0
N90 N 0.01314 0.55032 0.59147 0.0
N91 N 0.00492 0.54767 0.54771 0.0
C92 C 0.56719 0.42649 0.87048 0.0
C93 C 0.58435 0.44921 0.8863 0.0
C94 C 0.55032 0.44239 0.85225 0.0
C95 C 0.55057 0.48106 0.84978 0.0
C96 C 0.5879 0.48736 0.88254 0.0
C97 C 0.57084 0.50318 0.86453 0.0
C98 C 0.52305 0.49914 0.83548 0.0
C99 C 0.61577 0.46647 0.79141 0.0
C100 C 0.60675 0.43847 0.77628 0.0
C101 C 0.58774 0.48371 0.8035 0.0
C102 C 0.55008 0.47329 0.80073 0.0
C103 C 0.56909 0.42798 0.77338 0.0
C104 C 0.54082 0.44563 0.78539 0.0
C105 C 0.52056 0.4931 0.81292 0.0
C106 C 0.39847 0.60341 0.78991 0.0
C107 C 0.37803 0.58253 0.77453 0.0
C108 C 0.42814 0.58745 0.80127 0.0
C109 C 0.43703 0.54981 0.7982 0.0
C110 C 0.38855 0.54549 0.77046 0.0
C111 C 0.41779 0.52928 0.7822 0.0
C112 C 0.46615 0.53176 0.81162 0.0
C113 C 0.38114 0.56463 0.86453 0.0
C114 C 0.39511 0.5928 0.87828 0.0
C115 C 0.40445 0.54814 0.84895 0.0
C116 C 0.442 0.55946 0.84718 0.0
C117 C 0.43199 0.60546 0.87556 0.0
C118 C 0.45537 0.58862 0.8603 0.0
C119 C 0.46899 0.53774 0.83422 0.0
H120 H 0.56419 0.39699 0.87309 0.0
H121 H 0.53435 0.42491 0.84118 0.0
H122 H 0.60149 0.5053 0.89441 0.0
H123 H 0.57122 0.53308 0.86293 0.0
H124 H 0.64466 0.4749 0.79397 0.0
H125 H 0.59548 0.50569 0.81478 0.0
H126 H 0.56157 0.40656 0.76169 0.0
H127 H 0.51183 0.43759 0.78283 0.0
H128 H 0.39079 0.63176 0.79381 0.0
H129 H 0.44362 0.6045 0.81277 0.0
H130 H 0.3736 0.52879 0.75854 0.0
H131 H 0.42461 0.50038 0.77924 0.0
H132 H 0.35275 0.55447 0.86642 0.0
H133 H 0.39384 0.5253 0.83915 0.0
H134 H 0.44341 0.6269 0.88612 0.0
H135 H 0.48438 0.59744 0.85927 0.0
N136 N 0.49727 0.52125 0.84518 0.0
N137 N 0.49206 0.5095 0.80177 0.0
C138 C 0.49169 0.8707 0.03913 0.0
C139 C 0.45961 0.88136 0.02748 0.0
C140 C 0.51422 0.89727 0.04929 0.0
C141 C 0.50519 0.93502 0.04789 0.0
C142 C 0.45053 0.91912 0.02594 0.0
C143 C 0.47351 0.94589 0.03592 0.0
C144 C 0.52921 0.96279 0.05885 0.0
C145 C 0.46537 0.92117 0.11815 0.0
C146 C 0.4882 0.90154 0.13269 0.0
C147 C 0.4811 0.93761 0.09987 0.0
C148 C 0.51981 0.93464 0.09599 0.0
C149 C 0.52613 0.89558 0.12749 0.0
C150 C 0.54192 0.91251 0.10949 0.0
C151 C 0.53831 0.96029 0.08099 0.0
C152 C 0.60032 0.10035 0.10979 0.0
C153 C 0.63146 0.08869 0.12198 0.0
C154 C 0.58444 0.07677 0.0941 0.0
C155 C 0.59922 0.0411 0.0907 0.0
C156 C 0.64748 0.05385 0.11764 0.0
C157 C 0.63119 0.03005 0.10229 0.0
C158 C 0.57777 0.01319 0.07822 0.0
C159 C 0.63148 0.09148 0.03349 0.0
C160 C 0.60694 0.10898 0.01892 0.0
C161 C 0.62021 0.05982 0.04451 0.0
C162 C 0.58357 0.0459 0.04195 0.0
C163 C 0.5721 0.0922 0.01435 0.0
C164 C 0.56034 0.0613 0.02596 0.0
C165 C 0.56885 0.01595 0.05592 0.0
H166 H 0.49912 0.84168 0.04052 0.0
H167 H 0.53886 0.88835 0.05817 0.0
H168 H 0.42598 0.92782 0.01692 0.0
H169 H 0.46627 0.97496 0.0346 0.0
H170 H 0.43604 0.9261 0.12174 0.0
H171 H 0.46365 0.95501 0.08978 0.0
H172 H 0.54412 0.87968 0.13811 0.0
H173 H 0.57184 0.90995 0.10676 0.0
H174 H 0.58737 0.127 0.11308 0.0
H175 H 0.55932 0.08546 0.08559 0.0
H176 H 0.67111 0.04411 0.12712 0.0
H177 H 0.64255 0.00239 0.1001 0.0
H178 H 0.65882 0.10314 0.03715 0.0
H179 H 0.63997 0.04701 0.05548 0.0
H180 H 0.55325 0.10376 0.00239 0.0
H181 H 0.53243 0.05039 0.02298 0.0
N182 N 0.5447 0.99053 0.04708 0.0
N183 N 0.56226 0.98547 0.08977 0.0
C184 C 0.0639 0.61917 0.88269 0.0
C185 C 0.08106 0.59815 0.8662 0.0
C186 C 0.04835 0.60144 0.90065 0.0
C187 C 0.05005 0.5626 0.90221 0.0
C188 C 0.08551 0.55981 0.86878 0.0
C189 C 0.06998 0.54218 0.88657 0.0
C190 C 0.02499 0.54244 0.91698 0.0
C191 C 0.11432 0.58975 0.95942 0.0
C192 C 0.10213 0.61479 0.97544 0.0
C193 C 0.08846 0.56864 0.94764 0.0
C194 C 0.04983 0.57254 0.95148 0.0
C195 C 0.06368 0.61866 0.97957 0.0
C196 C 0.03762 0.59745 0.9677 0.0
C197 C 0.02262 0.54893 0.93954 0.0
C198 C 0.90511 0.43301 0.96282 0.0
C199 C 0.88414 0.45374 0.97793 0.0
C200 C 0.93499 0.44921 0.95188 0.0
C201 C 0.94346 0.48698 0.95501 0.0
C202 C 0.89475 0.49066 0.98238 0.0
C203 C 0.92402 0.50715 0.97097 0.0
C204 C 0.9717 0.50586 0.94142 0.0
C205 C 0.88833 0.46975 0.88767 0.0
C206 C 0.90295 0.44065 0.87494 0.0
C207 C 0.91082 0.48731 0.90334 0.0
C208 C 0.94832 0.47634 0.90612 0.0
C209 C 0.93979 0.42841 0.87864 0.0
C210 C 0.96245 0.44643 0.89394 0.0
C211 C 0.97449 0.49949 0.91887 0.0
H212 H 0.06009 0.64878 0.88091 0.0
H213 H 0.03256 0.61766 0.91235 0.0
H214 H 0.09889 0.54316 0.85628 0.0
H215 H 0.07148 0.51222 0.88742 0.0
H216 H 0.14401 0.58614 0.95627 0.0
H217 H 0.09881 0.54866 0.93586 0.0
H218 H 0.05395 0.63769 0.99205 0.0
H219 H 0.00798 0.6005 0.97114 0.0
H220 H 0.89757 0.40473 0.95868 0.0
H221 H 0.95076 0.4323 0.94053 0.0
H222 H 0.87962 0.50723 0.99421 0.0
H223 H 0.93049 0.53609 0.97407 0.0
H224 H 0.86008 0.4798 0.88486 0.0
H225 H 0.89972 0.5108 0.91236 0.0
H226 H 0.95179 0.40645 0.86873 0.0
H227 H 0.9915 0.438 0.89569 0.0
N228 N 0.00095 0.51791 0.90765 0.0
N229 N -0.00413 0.53053 0.95092 0.0
C230 C 0.412 0.57383 0.14001 0.0
C231 C 0.43239 0.58442 0.12161 0.0
C232 C 0.42929 0.55316 0.15639 0.0
C233 C 0.46746 0.54347 0.15482 0.0
C234 C 0.47061 0.57505 0.12034 0.0
C235 C 0.48788 0.55501 0.13673 0.0
C236 C 0.48607 0.51851 0.17053 0.0
C237 C 0.45617 0.61855 0.20957 0.0
C238 C 0.42998 0.61258 0.22601 0.0
C239 C 0.47258 0.58862 0.19879 0.0
C240 C 0.46271 0.55218 0.20411 0.0
C241 C 0.42011 0.57632 0.23157 0.0
C242 C 0.43662 0.54616 0.22072 0.0
C243 C 0.48173 0.52073 0.1933 0.0
C244 C 0.60438 0.42485 0.22601 0.0
C245 C 0.58871 0.39082 0.23218 0.0
C246 C 0.5823 0.4514 0.21569 0.0
C247 C 0.54421 0.44446 0.21159 0.0
C248 C 0.55007 0.38473 0.22879 0.0
C249 C 0.52794 0.4115 0.2187 0.0
C250 C 0.52297 0.46916 0.19728 0.0
C251 C 0.56562 0.38165 0.14765 0.0
C252 C 0.59341 0.39693 0.13434 0.0
C253 C 0.54613 0.40424 0.16236 0.0
C254 C 0.55431 0.44222 0.16386 0.0
C255 C 0.60357 0.43426 0.13725 0.0
C256 C 0.58392 0.4568 0.15177 0.0
C257 C 0.52835 0.46801 0.17477 0.0
H258 H 0.38265 0.58108 0.14165 0.0
H259 H 0.41255 0.54394 0.16989 0.0
H260 H 0.48709 0.58224 0.1063 0.0
H261 H 0.51727 0.54784 0.13499 0.0
H262 H 0.46437 0.64646 0.20532 0.0
H263 H 0.49354 0.59398 0.18656 0.0
H264 H 0.40016 0.57141 0.24442 0.0
H265 H 0.42912 0.51822 0.22527 0.0
H266 H 0.634 0.43034 0.22843 0.0
H267 H 0.59528 0.47668 0.21009 0.0
H268 H 0.53733 0.35843 0.23275 0.0
H269 H 0.49868 0.40556 0.2153 0.0
H270 H 0.55744 0.35288 0.14568 0.0
H271 H 0.523 0.39265 0.17137 0.0
H272 H 0.62466 0.44673 0.12706 0.0
H273 H 0.59038 0.48615 0.15265 0.0
N274 N 0.50957 0.49242 0.16228 0.0
N275 N 0.50008 0.49565 0.2059 0.0
C276 C 0.44295 0.92824 0.39137 0.0
C277 C 0.42118 0.94757 0.37618 0.0
C278 C 0.46343 0.94763 0.40721 0.0
C279 C 0.46228 0.98656 0.40806 0.0
C280 C 0.41812 0.9863 0.37805 0.0
C281 C 0.43871 0.00564 0.39376 0.0
C282 C 0.48966 0.00767 0.42129 0.0
C283 C 0.40917 0.95705 0.46593 0.0
C284 C 0.42422 0.93093 0.48017 0.0
C285 C 0.43263 0.98044 0.45448 0.0
C286 C 0.47176 0.97749 0.45655 0.0
C287 C 0.46323 0.92877 0.48308 0.0
C288 C 0.48695 0.95193 0.47124 0.0
C289 C 0.49642 0.00144 0.44351 0.0
C290 C 0.6114 0.11956 0.46436 0.0
C291 C 0.64022 0.09861 0.47391 0.0
C292 C 0.58073 0.1019 0.45457 0.0
C293 C 0.57808 0.06306 0.4545 0.0
C294 C 0.63662 0.05977 0.47452 0.0
C295 C 0.60562 0.04219 0.46507 0.0
C296 C 0.54755 0.04407 0.44266 0.0
C297 C 0.62468 0.07793 0.3877 0.0
C298 C 0.60775 0.1003 0.37192 0.0
C299 C 0.60351 0.06404 0.4048 0.0
C300 C 0.5651 0.07241 0.40639 0.0
C301 C 0.56995 0.11053 0.37434 0.0
C302 C 0.5488 0.09657 0.39138 0.0
C303 C 0.54044 0.05042 0.42051 0.0
H304 H 0.44634 0.89845 0.39002 0.0
H305 H 0.48204 0.9324 0.4178 0.0
H306 H 0.40144 0.00178 0.36655 0.0
H307 H 0.43756 0.03568 0.39412 0.0
H308 H 0.37905 0.95981 0.46397 0.0
H309 H 0.42005 0.00098 0.44403 0.0
H310 H 0.4752 0.90918 0.49436 0.0
H311 H 0.51705 0.94961 0.47334 0.0
H312 H 0.61276 0.14955 0.46423 0.0
H313 H 0.55927 0.11849 0.44683 0.0
H314 H 0.6584 0.04283 0.48167 0.0
H315 H 0.60396 0.01219 0.46521 0.0
H316 H 0.65375 0.06955 0.38611 0.0
H317 H 0.61655 0.04462 0.41577 0.0
H318 H 0.55599 0.12713 0.3622 0.0
H319 H 0.51909 0.10291 0.39212 0.0
N320 N 0.51179 0.03201 0.41075 0.0
N321 N 0.52533 0.01972 0.45341 0.0
C322 C 0.12099 0.9592 0.64856 0.0
C323 C 0.10395 0.93554 0.63323 0.0
C324 C 0.09923 0.97736 0.66423 0.0
C325 C 0.06012 0.97255 0.66443 0.0
C326 C 0.06523 0.92889 0.63432 0.0
C327 C 0.04339 0.9476 0.64968 0.0
C328 C 0.03628 -0.00201 0.67725 0.0
C329 C 0.07434 0.91556 0.72498 0.0
C330 C 0.10526 0.92772 0.73729 0.0
C331 C 0.05352 0.94051 0.71288 0.0
C332 C 0.06304 0.97818 0.71296 0.0
C333 C 0.11485 0.96549 0.73757 0.0
C334 C 0.09341 0.99078 0.72564 0.0
C335 C 0.04066 0.00373 0.69974 0.0
C336 C 0.91342 0.11003 0.71835 0.0
C337 C 0.93245 0.13958 0.72858 0.0
C338 C 0.93352 0.08041 0.70938 0.0
C339 C 0.97288 0.07985 0.71063 0.0
C340 C 0.97169 0.13771 0.73094 0.0
C341 C 0.99172 0.10792 0.72215 0.0
C342 C -0.00535 0.05156 0.69873 0.0
C343 C 0.95002 0.12683 0.6457 0.0
C344 C 0.92858 0.10833 0.62978 0.0
C345 C 0.96842 0.10669 0.66181 0.0
C346 C 0.96521 0.06784 0.66231 0.0
C347 C 0.92383 0.06978 0.63102 0.0
C348 C 0.94206 0.04972 0.6471 0.0
C349 C 0.98994 0.04539 0.67625 0.0
H350 H 0.1508 0.96496 0.64775 0.0
H351 H 0.1126 -0.00294 0.67518 0.0
H352 H 0.05159 0.91108 0.62241 0.0
H353 H 0.01321 0.94386 0.64944 0.0
H354 H 0.06676 0.88645 0.72438 0.0
H355 H 0.02993 0.93038 0.70336 0.0
H356 H 0.13876 0.97526 0.74691 0.0
H357 H 0.10097 0.01987 0.72589 0.0
H358 H 0.88313 0.11028 0.71682 0.0
H359 H 0.91846 0.05849 0.70091 0.0
H360 H 0.98711 0.16013 0.7387 0.0
H361 H 0.02208 0.10782 0.72336 0.0
H362 H 0.9546 0.15647 0.64483 0.0
H363 H 0.98693 0.12122 0.67299 0.0
H364 H 0.90741 0.05496 0.61889 0.0
H365 H 0.93938 0.01979 0.64711 0.0
N366 N 0.01099 0.01887 0.6664 0.0
N367 N 0.01984 0.03046 0.70975 0.0
C368 C 0.38099 0.64357 0.04026 0.0
O369 O 0.4073 0.64173 0.0265 0.0
Cd370 Cd 0.40233 0.65759 0.98925 0.0
O371 O 0.3484 0.65498 0.03491 0.0
Cd372 Cd 0.31961 0.67953 0.00088 0.0
C373 C 0.38254 0.74913 -0.00094 0.0
O374 O 0.34451 0.63318 0.97586 0.0
O375 O 0.32239 0.68224 0.96101 0.0
O376 O 0.26329 0.64736 0.01176 0.0
C377 C 0.33471 0.64947 0.95869 0.0
O378 O 0.40427 0.72479 0.99081 0.0
C379 C 0.2405 0.67254 0.00613 0.0
O380 O 0.35013 0.74006 0.00586 0.0
O381 O 0.25473 0.70251 -0.00068 0.0
C382 C 0.43257 0.86184 0.21793 0.0
O383 O 0.45644 0.8568 0.23294 0.0
Cd384 Cd 0.44257 0.83931 0.26894 0.0
O385 O 0.3975 0.85803 0.22151 0.0
Cd386 Cd 0.35859 0.84375 0.25432 0.0
C387 C 0.39572 0.75829 0.25738 0.0
O388 O 0.39469 0.88173 0.27919 0.0
O389 O 0.35651 0.84434 0.29461 0.0
O390 O 0.31503 0.89106 0.2423 0.0
C391 C 0.37834 0.87196 0.29632 0.0
O392 O 0.42393 0.77453 0.26594 0.0
C393 C 0.28545 0.87366 0.24734 0.0
O394 O 0.36805 0.77707 0.25038 0.0
O395 O 0.2898 0.84067 0.25389 0.0
C396 C 0.19344 0.93271 0.47204 0.0
O397 O 0.20428 0.95678 0.4859 0.0
Cd398 Cd 0.21421 0.94596 0.52397 0.0
O399 O 0.18764 0.89926 0.47754 0.0
Cd400 Cd 0.19675 0.86296 0.51115 0.0
C401 C 0.28822 0.88886 0.5166 0.0
O402 O 0.16609 0.90566 0.53633 0.0
O403 O 0.19483 0.85942 0.5509 0.0
O404 O 0.14301 0.82471 0.50132 0.0
C405 C 0.1734 0.88724 0.55319 0.0
O406 O 0.27607 0.91847 0.5255 0.0
C407 C 0.16029 0.79401 0.50254 0.0
O408 O 0.26552 0.86529 0.5083 0.0
O409 O 0.19519 0.79547 0.5068 0.0
C410 C 0.1239 0.64956 0.7812 0.0
O411 O 0.11835 0.62705 0.76554 0.0
Cd412 Cd 0.1446 0.63305 0.73048 0.0
O413 O 0.14258 0.67929 0.7784 0.0
Cd414 Cd 0.17155 0.7123 0.74701 0.0
C415 C 0.23733 0.64591 0.74556 0.0
O416 O 0.12684 0.69355 0.71923 0.0
O417 O 0.17856 0.71604 0.7073 0.0
O418 O 0.13985 0.76623 0.76131 0.0
C419 C 0.14564 0.70459 0.7032 0.0
O420 O 0.21184 0.62532 0.7373 0.0
C421 C 0.16632 0.78898 0.75804 0.0
O422 O 0.23034 0.67917 0.75139 0.0
O423 O 0.19682 0.77556 0.75077 0.0
C424 C 0.90167 0.14608 0.46872 0.0
O425 O 0.8986 0.1183 0.48105 0.0
Cd426 Cd 0.87252 0.11822 0.51656 0.0
O427 O 0.89045 0.17808 0.47494 0.0
Cd428 Cd 0.86209 0.2064 0.50821 0.0
C429 C 0.7853 0.15179 0.50299 0.0
O430 O 0.89975 0.17138 0.53296 0.0
O431 O 0.85588 0.20254 0.54843 0.0
O432 O 0.90287 0.25838 0.50108 0.0
C433 C 0.88413 0.18146 0.55039 0.0
O434 O 0.80535 0.1258 0.51069 0.0
C435 C 0.87877 0.28345 0.50506 0.0
O436 O 0.79931 0.18349 0.49902 0.0
O437 O 0.84581 0.2726 0.50956 0.0
C438 C 0.88876 0.39257 0.71135 0.0
O439 O 0.91537 0.38847 0.72485 0.0
Cd440 Cd 0.90827 0.37107 0.76183 0.0
O441 O 0.85488 0.3864 0.71677 0.0
Cd442 Cd 0.82435 0.36303 0.75025 0.0
C443 C 0.87549 0.28475 0.75074 0.0
O444 O 0.85558 0.40331 0.77662 0.0
O445 O 0.82774 0.35581 0.7899 0.0
O446 O 0.77149 0.40279 0.74208 0.0
C447 C 0.84396 0.38663 0.79323 0.0
O448 O 0.90042 0.30425 0.76033 0.0
C449 C 0.7463 0.37901 0.74611 0.0
O450 O 0.84576 0.29961 0.74328 0.0
O451 O 0.75754 0.34659 0.75068 0.0
C452 C 0.62684 0.40045 0.97232 0.0
O453 O 0.62308 0.42373 0.98774 0.0
Cd454 Cd 0.65022 0.41669 0.02258 0.0
O455 O 0.64326 0.36951 0.97548 0.0
Cd456 Cd 0.66936 0.3354 0.00743 0.0
C457 C 0.74089 0.39527 0.00653 0.0
O458 O 0.62804 0.3588 0.03528 0.0
O459 O 0.67956 0.33488 0.04712 0.0
O460 O 0.62755 0.2858 -0.00257 0.0
C461 C 0.64693 0.34709 0.05121 0.0
O462 O 0.71717 0.41787 0.01463 0.0
C463 C 0.65097 0.25961 -0.0005 0.0
O464 O 0.73146 0.36217 0.0015 0.0
O465 O 0.68482 0.26882 0.00349 0.0
C466 C 0.67169 0.12326 0.28668 0.0
O467 O 0.67666 0.0946 0.27489 0.0
Cd468 Cd 0.70022 0.09775 0.23865 0.0
O469 O 0.67848 0.15531 0.27924 0.0
Cd470 Cd 0.70034 0.18324 0.24506 0.0
C471 C 0.78356 0.14052 0.25066 0.0
O472 O 0.66469 0.14409 0.22005 0.0
O473 O 0.70896 0.17608 0.20564 0.0
O474 O 0.65319 0.22903 0.2543 0.0
C475 C 0.68056 0.15533 0.20302 0.0
O476 O 0.7668 0.11196 0.2431 0.0
C477 C 0.67224 0.257 0.24874 0.0
O478 O 0.7656 0.17038 0.25456 0.0
O479 O 0.7053 0.25089 0.24189 0.0
C480 C 0.19011 0.89873 0.26968 0.0
C481 C 0.18783 0.93677 0.26521 0.0
C482 C 0.22026 0.87732 0.26203 0.0
C483 C 0.24909 0.8933 0.24967 0.0
H484 H 0.16994 0.88605 0.28038 0.0
H485 H 0.2223 0.84878 0.26718 0.0
S486 S 0.25124 0.99006 0.2298 0.0
N487 N 0.21326 0.98821 0.24498 0.0
N488 N 0.26987 0.94814 0.23045 0.0
C489 C 0.24493 0.93046 0.24333 0.0
C490 C 0.21434 0.9522 0.2512 0.0
C491 C 0.08263 0.72489 0.51174 0.0
C492 C 0.10135 0.69058 0.51028 0.0
C493 C 0.10136 0.75815 0.50763 0.0
C494 C 0.13966 0.75844 0.50217 0.0
H495 H 0.05396 0.72636 0.51745 0.0
H496 H 0.08627 0.78392 0.51015 0.0
S497 S 0.19943 0.67588 0.49205 0.0
N498 N 0.15864 0.65864 0.49957 0.0
N499 N 0.19428 0.7214 0.49262 0.0
C500 C 0.15796 0.72428 0.49905 0.0
C501 C 0.1387 0.69031 0.50292 0.0
C502 C 0.31073 0.57694 0.76339 0.0
C503 C 0.34377 0.59829 0.76435 0.0
C504 C 0.27677 0.59225 0.75637 0.0
C505 C 0.2744 0.62965 0.75037 0.0
H506 H 0.31064 0.54859 0.76899 0.0
H507 H 0.25184 0.57506 0.75662 0.0
S508 S 0.35349 0.69602 0.74697 0.0
N509 N 0.37277 0.65759 0.75614 0.0
N510 N 0.30837 0.68679 0.74384 0.0
C511 C 0.30739 0.65093 0.75034 0.0
C512 C 0.3422 0.63515 0.7571 0.0
C513 C 0.45282 0.82748 0.00238 0.0
C514 C 0.4362 0.85237 0.01711 0.0
C515 C 0.43392 0.79555 0.9954 0.0
C516 C 0.39781 0.78693 0.00312 0.0
H517 H 0.48133 0.83196 0.99695 0.0
H518 H 0.4487 0.77656 0.9847 0.0
S519 S 0.34069 0.84584 0.04018 0.0
N520 N 0.38065 0.8686 0.03776 0.0
N521 N 0.34481 0.80824 0.02481 0.0
C522 C 0.37986 0.81308 0.01673 0.0
C523 C 0.39918 0.84586 0.02371 0.0
C524 C 0.14495 0.66868 0.97991 0.0
C525 C 0.13057 0.63543 0.98802 0.0
C526 C 0.17906 0.6831 0.98769 0.0
C527 C 0.20006 0.66422 0.00352 0.0
H528 H 0.13121 0.68206 0.96639 0.0
H529 H 0.19054 0.70728 0.97986 0.0
S530 S 0.17069 0.57932 0.03227 0.0
N531 N 0.13678 0.58666 0.01448 0.0
N532 N 0.20104 0.61344 0.02915 0.0
C533 C 0.18399 0.63283 0.01312 0.0
C534 C 0.1492 0.6184 0.00528 0.0
C535 C 0.43717 0.662 0.25381 0.0
C536 C 0.41495 0.64493 0.23778 0.0
C537 C 0.42879 0.69774 0.26139 0.0
C538 C 0.39814 0.71781 0.25298 0.0
H539 H 0.46248 0.64854 0.25954 0.0
H540 H 0.44789 0.71047 0.27299 0.0
S541 S 0.3288 0.6825 0.21257 0.0
N542 N 0.3593 0.64831 0.21518 0.0
N543 N 0.34307 0.7157 0.22935 0.0
C544 C 0.37399 0.69959 0.23813 0.0
C545 C 0.38264 0.66309 0.23047 0.0
C546 C 0.37341 0.88414 0.48159 0.0
C547 C 0.3979 0.90832 0.49273 0.0
C548 C 0.3394 0.87327 0.49087 0.0
C549 C 0.3286 0.88706 0.51135 0.0
H550 H 0.37893 0.87649 0.46487 0.0
H551 H 0.3198 0.85758 0.48091 0.0
S552 S 0.3869 0.94442 0.54872 0.0
N553 N 0.41241 0.94034 0.52652 0.0
N554 N 0.34818 0.92038 0.544 0.0
C555 C 0.35505 0.9074 0.52363 0.0
C556 C 0.38984 0.91803 0.51426 0.0
C557 C 0.11009 0.87639 0.76344 0.0
C558 C 0.12789 0.89963 0.74858 0.0
C559 C 0.12536 0.84186 0.76857 0.0
C560 C 0.15877 0.82932 0.75883 0.0
H561 H 0.08256 0.88353 0.76963 0.0
H562 H 0.10912 0.8236 0.77871 0.0
S563 S 0.21957 0.88338 0.72213 0.0
N564 N 0.18316 0.91067 0.72678 0.0
N565 N 0.21225 0.84562 0.73641 0.0
C566 C 0.1791 0.85431 0.74603 0.0
C567 C 0.16346 0.88958 0.74084 0.0
C568 C 0.66307 0.44255 0.75279 0.0
C569 C 0.63742 0.42043 0.76403 0.0
C570 C 0.69696 0.42788 0.74522 0.0
C571 C 0.70665 0.3906 0.74882 0.0
H572 H 0.65777 0.47193 0.75089 0.0
H573 H 0.71668 0.44661 0.73775 0.0
S574 S 0.64634 0.31997 0.77473 0.0
N575 N 0.62168 0.3587 0.7763 0.0
N576 N 0.68554 0.33079 0.76209 0.0
C577 C 0.6797 0.36741 0.75838 0.0
C578 C 0.64502 0.38244 0.76601 0.0
C579 C 0.65338 0.15477 0.00415 0.0
C580 C 0.61637 0.14631 0.01039 0.0
C581 C 0.66414 0.19126 -0.00051 0.0
C582 C 0.63816 0.22057 0.00055 0.0
H583 H 0.67455 0.13322 0.00356 0.0
H584 H 0.69328 0.19669 0.99571 0.0
S585 S 0.53744 0.21328 0.01533 0.0
N586 N 0.55366 0.17059 0.01711 0.0
N587 N 0.5733 0.23845 0.00733 0.0
C588 C 0.60059 0.2122 0.00559 0.0
C589 C 0.58984 0.17527 0.01075 0.0
C590 C 0.88312 0.10432 0.25285 0.0
C591 C 0.89732 0.12043 0.27209 0.0
C592 C 0.84682 0.11233 0.24547 0.0
C593 C 0.82351 0.13719 0.25687 0.0
H594 H 0.89984 0.08457 0.2437 0.0
H595 H 0.83659 0.09824 0.231 0.0
S596 S 0.84737 0.18749 0.30788 0.0
N597 N 0.88518 0.16273 0.3023 0.0
N598 N 0.81743 0.17875 0.28797 0.0
C599 C 0.83789 0.15485 0.27557 0.0
C600 C 0.87468 0.14625 0.28329 0.0
C601 C 0.94201 0.36738 0.50805 0.0
C602 C 0.91941 0.39413 0.51835 0.0
C603 C 0.9277 0.33249 0.50236 0.0
C604 C 0.89029 0.32286 0.50694 0.0
H605 H 0.97147 0.37294 0.50522 0.0
H606 H 0.94677 0.31231 0.49534 0.0
S607 S 0.81858 0.38479 0.53168 0.0
N608 N 0.85716 0.41015 0.5313 0.0
N609 N 0.82995 0.34442 0.5206 0.0
C610 C 0.86666 0.35035 0.51588 0.0
C611 C 0.88132 0.38604 0.5216 0.0
C612 C 0.6906 0.10478 0.50211 0.0
C613 C 0.67485 0.11662 0.48242 0.0
C614 C 0.72568 0.11767 0.50915 0.0
C615 C 0.74608 0.14336 0.49696 0.0
H616 H 0.67614 0.08459 0.5119 0.0
H617 H 0.73734 0.10676 0.52402 0.0
S618 S 0.71719 0.18382 0.4445 0.0
N619 N 0.68238 0.15586 0.4509 0.0
N620 N 0.74775 0.18111 0.46462 0.0
C621 C 0.73 0.15682 0.47777 0.0
C622 C 0.6945 0.14321 0.47038 0.0
C623 C 0.92062 0.19049 0.75553 0.0
C624 C 0.91225 0.17369 0.7354 0.0
C625 C 0.90675 0.2257 0.76088 0.0
C626 C 0.88367 0.24524 0.74642 0.0
H627 H 0.93914 0.17686 0.76691 0.0
H628 H 0.9152 0.23825 0.77619 0.0
S629 S 0.85234 0.21301 0.69196 0.0
N630 N 0.87869 0.17889 0.70111 0.0
N631 N 0.85173 0.2447 0.7115 0.0
C632 C 0.87336 0.22797 0.72674 0.0
C633 C 0.88788 0.19226 0.72114 0.0
C634 C 0.8167 0.46077 0.98806 0.0
C635 C 0.84904 0.43837 0.98726 0.0
C636 C 0.78229 0.44667 0.99492 0.0
C637 C 0.7785 0.40938 0.00092 0.0
H638 H 0.81755 0.48921 0.98265 0.0
H639 H 0.75812 0.46492 0.99477 0.0
S640 S 0.85494 0.33986 0.00386 0.0
N641 N 0.87566 0.37769 0.995 0.0
N642 N 0.81024 0.35077 0.00698 0.0
C643 C 0.81059 0.38675 0.00071 0.0
C644 C 0.84599 0.40133 0.9941 0.0
C645 C 0.64622 0.35167 0.22795 0.0
C646 C 0.61324 0.36007 0.23952 0.0
C647 C 0.66677 0.31939 0.2321 0.0
C648 C 0.65483 0.29412 0.24779 0.0
H649 H 0.65513 0.36904 0.21473 0.0
H650 H 0.69081 0.31311 0.22201 0.0
S651 S 0.57435 0.3064 0.28514 0.0
N652 N 0.57274 0.34312 0.26943 0.0
N653 N 0.61077 0.28181 0.27681 0.0
C654 C 0.62342 0.30337 0.26047 0.0
C655 C 0.60275 0.33647 0.25643 0.0
C656 C 0.14839 0.94193 0.41657 0.0
C657 C 0.17038 0.96945 0.40672 0.0
C658 C 0.15683 0.92916 0.43742 0.0
C659 C 0.18716 0.94389 0.44933 0.0
H660 H 0.12344 0.93133 0.40854 0.0
H661 H 0.13848 0.90881 0.44462 0.0
S662 S 0.25697 0.01183 0.42974 0.0
N663 N 0.22675 0.0073 0.4095 0.0
N664 N 0.24167 0.98434 0.44901 0.0
C665 C 0.21045 0.97 0.43934 0.0
C666 C 0.2023 0.98251 0.41797 0.0
C667 C 0.07978 0.68077 0.65691 0.0
C668 C 0.10445 0.67258 0.63981 0.0
C669 C 0.09338 0.69287 0.6771 0.0
C670 C 0.13208 0.69767 0.68082 0.0
H671 H 0.04998 0.6755 0.65511 0.0
H672 H 0.0735 0.69714 0.69013 0.0
S673 S 0.20773 0.68432 0.6403 0.0
N674 N 0.16882 0.67304 0.62713 0.0
N675 N 0.19458 0.69662 0.66501 0.0
C676 C 0.1568 0.69215 0.66335 0.0
C677 C 0.14293 0.6793 0.64286 0.0
C678 C 0.3673 0.64433 0.90037 0.0
C679 C 0.37347 0.60616 0.89719 0.0
C680 C 0.35269 0.65805 0.91995 0.0
C681 C 0.34466 0.6341 0.93716 0.0
H682 H 0.37499 0.66376 0.88789 0.0
H683 H 0.3495 0.68777 0.92198 0.0
S684 S 0.35372 0.53161 0.93635 0.0
N685 N 0.3685 0.54445 0.91225 0.0
N686 N 0.34158 0.5702 0.94919 0.0
C687 C 0.34929 0.59574 0.93381 0.0
C688 C 0.36356 0.58177 0.91377 0.0
C689 C 0.43945 0.87281 0.15673 0.0
C690 C 0.47391 0.8914 0.1544 0.0
C691 C 0.42576 0.86371 0.17735 0.0
C692 C 0.44617 0.87283 0.19627 0.0
H693 H 0.42319 0.86491 0.14254 0.0
H694 H 0.39941 0.84889 0.17844 0.0
S695 S 0.5355 0.92579 0.19899 0.0
N696 N 0.52619 0.92173 0.17285 0.0
N697 N 0.50106 0.90411 0.21135 0.0
C698 C 0.48013 0.89232 0.19411 0.0
C699 C 0.49384 0.90174 0.17325 0.0
C700 C 0.11723 0.64163 0.84256 0.0
C701 C 0.08932 0.6145 0.8449 0.0
C702 C 0.1274 0.65414 0.82188 0.0
C703 C 0.10991 0.63983 0.803 0.0
H704 H 0.13214 0.65221 0.85667 0.0
H705 H 0.15004 0.67403 0.82065 0.0
S706 S 0.03112 0.57241 0.80118 0.0
N707 N 0.04165 0.57672 0.82716 0.0
N708 N 0.06042 0.60001 0.78845 0.0
C709 C 0.08048 0.6142 0.80542 0.0
C710 C 0.07027 0.6016 0.82635 0.0
C711 C 0.43417 0.63223 0.09264 0.0
C712 C 0.41445 0.60371 0.10304 0.0
C713 C 0.42209 0.64609 0.07273 0.0
C714 C 0.38925 0.63275 0.06271 0.0
H715 H 0.46012 0.64288 0.0995 0.0
H716 H 0.43916 0.66671 0.0648 0.0
S717 S 0.32549 0.56069 0.0837 0.0
N718 N 0.35922 0.56388 0.10209 0.0
N719 N 0.33566 0.59154 0.06504 0.0
C720 C 0.36771 0.60623 0.07351 0.0
C721 C 0.38046 0.59139 0.09363 0.0
C722 C 0.41713 0.94261 0.33612 0.0
C723 C 0.4071 0.9285 0.3564 0.0
C724 C 0.40725 0.92417 0.31694 0.0
C725 C 0.38679 0.89083 0.31719 0.0
H726 H 0.43373 0.9677 0.33505 0.0
H727 H 0.41611 0.93612 0.30177 0.0
S728 S 0.35211 0.84315 0.36618 0.0
N729 N 0.37456 0.87996 0.37578 0.0
N730 N 0.35564 0.845 0.33951 0.0
C731 C 0.37578 0.87672 0.33736 0.0
C732 C 0.38613 0.89554 0.35702 0.0
C733 C 0.13459 0.94815 0.59811 0.0
C734 C 0.12505 0.92252 0.61412 0.0
C735 C 0.15073 0.93644 0.57856 0.0
C736 C 0.15852 0.89876 0.57453 0.0
H737 H 0.12837 0.97734 0.60046 0.0
H738 H 0.15689 0.95705 0.56645 0.0
S739 S 0.1398 0.82094 0.61176 0.0
N740 N 0.12474 0.85812 0.62502 0.0
N741 N 0.15631 0.83594 0.58845 0.0
C742 C 0.15016 0.87296 0.59074 0.0
C743 C 0.133 0.88489 0.6105 0.0
C744 C 0.61909 0.40567 0.91084 0.0
C745 C 0.59333 0.43475 0.90805 0.0
C746 C 0.62902 0.39372 0.93172 0.0
C747 C 0.61338 0.41046 0.95038 0.0
H748 H 0.63237 0.39286 0.89688 0.0
H749 H 0.64992 0.37207 0.93324 0.0
S750 S 0.54025 0.48393 0.95124 0.0
N751 N 0.54941 0.47719 0.9253 0.0
N752 N 0.56788 0.45502 0.96436 0.0
C753 C 0.58616 0.43831 0.94759 0.0
C754 C 0.57617 0.45037 0.92646 0.0
C755 C 0.61875 0.1154 0.15851 0.0
C756 C 0.64388 0.11006 0.14128 0.0
C757 C 0.63084 0.13071 0.17829 0.0
C758 C 0.66833 0.14183 0.18141 0.0
H759 H 0.58988 0.10624 0.15699 0.0
H760 H 0.61074 0.13341 0.19135 0.0
S761 S 0.74455 0.13553 0.14074 0.0
N762 N 0.70744 0.11798 0.12816 0.0
N763 N 0.73018 0.14783 0.16521 0.0
C764 C 0.69341 0.13799 0.16397 0.0
C765 C 0.68119 0.12174 0.14394 0.0
C766 C 0.93008 0.16369 0.41024 0.0
C767 C 0.95086 0.13179 0.40504 0.0
C768 C 0.91424 0.16825 0.43093 0.0
C769 C 0.91883 0.14106 0.447 0.0
H770 H 0.92605 0.18508 0.39828 0.0
H771 H 0.89813 0.19313 0.43429 0.0
S772 S 0.9735 0.05366 0.4412 0.0
N773 N 0.97676 0.07354 0.41734 0.0
N774 N 0.94749 0.0818 0.45616 0.0
C775 C 0.94017 0.10926 0.44183 0.0
C776 C 0.9561 0.10473 0.42086 0.0
C777 C 0.94326 0.40647 0.65975 0.0
C778 C 0.92313 0.4347 0.64924 0.0
C779 C 0.93111 0.39213 0.67947 0.0
C780 C 0.8979 0.40482 0.68925 0.0
H781 H 0.96943 0.39627 0.65307 0.0
H782 H 0.94832 0.37146 0.68736 0.0
S783 S 0.83342 0.47643 0.66792 0.0
N784 N 0.86742 0.47385 0.64986 0.0
N785 N 0.8438 0.4455 0.68655 0.0
C786 C 0.87618 0.4313 0.67837 0.0
C787 C 0.88894 0.44654 0.65842 0.0
C788 C 0.64316 0.07859 0.33946 0.0
C789 C 0.62748 0.10816 0.35139 0.0
C790 C 0.65783 0.08394 0.31874 0.0
C791 C 0.65765 0.11915 0.30914 0.0
H792 H 0.64284 0.05073 0.34585 0.0
H793 H 0.66894 0.06006 0.31009 0.0
S794 S 0.6219 0.20626 0.33441 0.0
N795 N 0.61417 0.17419 0.35274 0.0
N796 N 0.64184 0.18455 0.31374 0.0
C797 C 0.64314 0.14928 0.32124 0.0
C798 C 0.62796 0.14371 0.34234 0.0
C799 C 0.92764 0.11436 0.5898 0.0
C800 C 0.91599 0.12787 0.61012 0.0
C801 C 0.91737 0.13222 0.57074 0.0
C802 C 0.89469 0.16416 0.57116 0.0
H803 H 0.9453 0.08995 0.58863 0.0
H804 H 0.92713 0.12056 0.55551 0.0
S805 S 0.8569 0.21074 0.62041 0.0
N806 N 0.88093 0.17512 0.6298 0.0
N807 N 0.86101 0.20878 0.59375 0.0
C808 C 0.88275 0.17804 0.59142 0.0
C809 C 0.89364 0.15994 0.61096 0.0
C810 C 0.87428 0.45112 0.83878 0.0
C811 C 0.88234 0.42666 0.85573 0.0
C812 C 0.86081 0.4379 0.81879 0.0
C813 C 0.85433 0.39986 0.81519 0.0
H814 H 0.8802 0.48046 0.84064 0.0
H815 H 0.85622 0.45756 0.8059 0.0
S816 S 0.86847 0.3249 0.8551 0.0
N817 N 0.88139 0.3631 0.86816 0.0
N818 N 0.85503 0.33811 0.83072 0.0
C819 C 0.8605 0.37532 0.83241 0.0
C820 C 0.87487 0.38877 0.85265 0.0
C821 C 0.64584 0.37478 0.11058 0.0
C822 C 0.60715 0.37669 0.11496 0.0
C823 C 0.65887 0.36278 0.09024 0.0
C824 C 0.63354 0.35323 0.07354 0.0
H825 H 0.66601 0.3841 0.12265 0.0
H826 H 0.68879 0.36313 0.08719 0.0
S827 S 0.52975 0.3506 0.07737 0.0
N828 N 0.54389 0.36555 0.10145 0.0
N829 N 0.56835 0.34346 0.06322 0.0
C830 C 0.59496 0.35319 0.0781 0.0
C831 C 0.58175 0.3648 0.09884 0.0
loop_
_geom_bond_atom_site_label_1
_geom_bond_atom_site_label_2
_geom_bond_distance
_geom_bond_site_symmetry_2
_ccdc_geom_bond_type
C0 C1 1.384 . S
C0 C2 1.384 . S
C0 H28 0.931 . S
C1 C0 1.384 . S
C1 C4 1.363 1_565 S
C2 C0 1.384 . S
C2 C3 1.412 . S
C2 H29 0.930 . S
C3 C2 1.412 . S
C3 C5 1.366 1_565 S
C3 C6 1.473 1_565 S
C4 C1 1.363 1_545 S
C4 C5 1.397 . S
C4 H30 0.940 . S
C5 C3 1.366 1_545 S
C5 C4 1.397 . S
C5 H31 0.931 . S
C6 C3 1.473 1_545 S
C6 C13 1.399 . S
C6 N44 1.343 . S
C7 C8 1.384 . S
C7 C9 1.384 . S
C7 H32 0.931 . S
C8 C7 1.384 . S
C8 C11 1.382 . S
C9 C7 1.384 . S
C9 C10 1.381 . S
C9 H33 0.930 1_565 S
C10 C9 1.381 . S
C10 C12 1.381 . S
C10 C13 1.487 1_565 S
C11 C8 1.382 . S
C11 C12 1.387 . S
C11 H34 0.930 . S
C12 C10 1.381 . S
C12 C11 1.387 . S
C12 H35 0.931 . S
C13 C6 1.399 . S
C13 C10 1.487 1_545 S
C13 N45 1.343 . S
C14 C15 1.384 . S
C14 C16 1.384 . S
C14 H36 0.931 . S
C15 C14 1.384 . S
C15 C18 1.382 . S
C16 C14 1.384 . S
C16 C17 1.381 . S
C16 H37 0.930 . S
C17 C16 1.381 . S
C17 C19 1.381 . S
C17 C20 1.487 1_655 S
C18 C15 1.382 . S
C18 C19 1.387 . S
C18 H38 0.930 . S
C19 C17 1.381 . S
C19 C18 1.387 . S
C19 H39 0.931 . S
C20 C17 1.487 1_455 S
C20 C27 1.399 . S
C20 N45 1.343 . S
C21 C22 1.384 . S
C21 C23 1.384 . S
C21 H40 0.931 . S
C22 C21 1.384 . S
C22 C25 1.382 . S
C23 C21 1.384 . S
C23 C24 1.381 . S
C23 H41 0.930 . S
C24 C23 1.381 . S
C24 C26 1.381 1_655 S
C24 C27 1.487 1_655 S
C25 C22 1.382 . S
C25 C26 1.387 1_655 S
C25 H42 0.930 . S
C26 C24 1.381 1_455 S
C26 C25 1.387 1_455 S
C26 H43 0.931 . S
C27 C20 1.399 . S
C27 C24 1.487 1_455 S
C27 N44 1.343 . S
H28 C0 0.931 . S
H29 C2 0.930 . S
H30 C4 0.940 . S
H31 C5 0.931 . S
H32 C7 0.931 . S
H33 C9 0.930 1_545 S
H34 C11 0.930 . S
H35 C12 0.931 . S
H36 C14 0.931 . S
H37 C16 0.930 . S
H38 C18 0.930 . S
H39 C19 0.931 . S
H40 C21 0.931 . S
H41 C23 0.930 . S
H42 C25 0.930 . S
H43 C26 0.931 . S
N44 C6 1.343 . S
N44 C27 1.343 . S
N45 C13 1.343 . S
N45 C20 1.343 . S
C46 C47 1.384 . S
C46 C48 1.384 . S
C46 H74 0.931 . S
C47 C46 1.384 . S
C47 C50 1.382 . S
C48 C46 1.384 . S
C48 C49 1.381 . S
C48 H75 0.930 . S
C49 C48 1.381 . S
C49 C51 1.381 . S
C49 C52 1.487 . S
C50 C47 1.382 . S
C50 C51 1.387 . S
C50 H76 0.930 . S
C51 C49 1.381 . S
C51 C50 1.387 . S
C51 H77 0.931 1_655 S
C52 C49 1.487 . S
C52 C59 1.399 . S
C52 N90 1.343 1_655 S
C53 C54 1.384 . S
C53 C55 1.384 . S
C53 H78 0.931 . S
C54 C53 1.384 . S
C54 C57 1.382 . S
C55 C53 1.384 . S
C55 C56 1.381 . S
C55 H79 0.930 . S
C56 C55 1.381 . S
C56 C58 1.381 . S
C56 C59 1.487 . S
C57 C54 1.382 . S
C57 C58 1.387 . S
C57 H80 0.930 . S
C58 C56 1.381 . S
C58 C57 1.387 . S
C58 H81 0.931 . S
C59 C52 1.399 . S
C59 C56 1.487 . S
C59 N91 1.343 1_655 S
C60 C61 1.384 . S
C60 C62 1.384 . S
C60 H82 0.931 . S
C61 C60 1.384 . S
C61 C64 1.382 . S
C62 C60 1.384 . S
C62 C63 1.381 . S
C62 H83 0.930 . S
C63 C62 1.381 . S
C63 C65 1.381 . S
C63 C66 1.487 . S
C64 C61 1.382 . S
C64 C65 1.387 . S
C64 H84 0.930 . S
C65 C63 1.381 . S
C65 C64 1.387 . S
C65 H85 0.931 . S
C66 C63 1.487 . S
C66 C73 1.399 . S
C66 N91 1.343 . S
C67 C68 1.384 . S
C67 C69 1.384 . S
C67 H86 0.931 . S
C68 C67 1.384 . S
C68 C71 1.382 . S
C69 C67 1.384 . S
C69 C70 1.381 . S
C69 H87 0.930 . S
C70 C69 1.381 . S
C70 C72 1.381 . S
C70 C73 1.487 . S
C71 C68 1.382 . S
C71 C72 1.387 . S
C71 H88 0.930 . S
C72 C70 1.381 . S
C72 C71 1.387 . S
C72 H89 0.931 . S
C73 C66 1.399 . S
C73 C70 1.487 . S
C73 N90 1.343 . S
H74 C46 0.931 . S
H75 C48 0.930 . S
H76 C50 0.930 . S
H77 C51 0.931 1_455 S
H78 C53 0.931 . S
H79 C55 0.930 . S
H80 C57 0.930 . S
H81 C58 0.931 . S
H82 C60 0.931 . S
H83 C62 0.930 . S
H84 C64 0.930 . S
H85 C65 0.931 . S
H86 C67 0.931 . S
H87 C69 0.930 . S
H88 C71 0.930 . S
H89 C72 0.931 . S
N90 C52 1.343 1_455 S
N90 C73 1.343 . S
N91 C59 1.343 1_455 S
N91 C66 1.343 . S
C92 C93 1.384 . S
C92 C94 1.384 . S
C92 H120 0.931 . S
C93 C92 1.384 . S
C93 C96 1.382 . S
C94 C92 1.384 . S
C94 C95 1.381 . S
C94 H121 0.930 . S
C95 C94 1.381 . S
C95 C97 1.381 . S
C95 C98 1.487 . S
C96 C93 1.382 . S
C96 C97 1.387 . S
C96 H122 0.930 . S
C97 C95 1.381 . S
C97 C96 1.387 . S
C97 H123 0.931 . S
C98 C95 1.487 . S
C98 C105 1.399 . S
C98 N136 1.343 . S
C99 C100 1.384 . S
C99 C101 1.384 . S
C99 H124 0.931 . S
C100 C99 1.384 . S
C100 C103 1.382 . S
C101 C99 1.384 . S
C101 C102 1.381 . S
C101 H125 0.930 . S
C102 C101 1.381 . S
C102 C104 1.381 . S
C102 C105 1.487 . S
C103 C100 1.382 . S
C103 C104 1.387 . S
C103 H126 0.930 . S
C104 C102 1.381 . S
C104 C103 1.387 . S
C104 H127 0.931 . S
C105 C98 1.399 . S
C105 C102 1.487 . S
C105 N137 1.343 . S
C106 C107 1.384 . S
C106 C108 1.384 . S
C106 H128 0.931 . S
C107 C106 1.384 . S
C107 C110 1.382 . S
C108 C106 1.384 . S
C108 C109 1.381 . S
C108 H129 0.930 . S
C109 C108 1.381 . S
C109 C111 1.381 . S
C109 C112 1.487 . S
C110 C107 1.382 . S
C110 C111 1.387 . S
C110 H130 0.930 . S
C111 C109 1.381 . S
C111 C110 1.387 . S
C111 H131 0.931 . S
C112 C109 1.487 . S
C112 C119 1.399 . S
C112 N137 1.343 . S
C113 C114 1.384 . S
C113 C115 1.384 . S
C113 H132 0.931 . S
C114 C113 1.384 . S
C114 C117 1.382 . S
C115 C113 1.384 . S
C115 C116 1.381 . S
C115 H133 0.930 . S
C116 C115 1.381 . S
C116 C118 1.381 . S
C116 C119 1.487 . S
C117 C114 1.382 . S
C117 C118 1.387 . S
C117 H134 0.930 . S
C118 C116 1.381 . S
C118 C117 1.387 . S
C118 H135 0.931 . S
C119 C112 1.399 . S
C119 C116 1.487 . S
C119 N136 1.343 . S
H120 C92 0.931 . S
H121 C94 0.930 . S
H122 C96 0.930 . S
H123 C97 0.931 . S
H124 C99 0.931 . S
H125 C101 0.930 . S
H126 C103 0.930 . S
H127 C104 0.931 . S
H128 C106 0.931 . S
H129 C108 0.930 . S
H130 C110 0.930 . S
H131 C111 0.931 . S
H132 C113 0.931 . S
H133 C115 0.930 . S
H134 C117 0.930 . S
H135 C118 0.931 . S
N136 C98 1.343 . S
N136 C119 1.343 . S
N137 C105 1.343 . S
N137 C112 1.343 . S
C138 C139 1.384 . S
C138 C140 1.384 . S
C138 H166 0.931 . S
C139 C138 1.384 . S
C139 C142 1.382 . S
C140 C138 1.384 . S
C140 C141 1.381 . S
C140 H167 0.930 . S
C141 C140 1.381 . S
C141 C143 1.381 . S
C141 C144 1.487 . S
C142 C139 1.382 . S
C142 C143 1.387 . S
C142 H168 0.930 . S
C143 C141 1.381 . S
C143 C142 1.387 . S
C143 H169 0.931 . S
C144 C141 1.487 . S
C144 C151 1.399 . S
C144 N182 1.343 1_565 S
C145 C146 1.384 . S
C145 C147 1.384 . S
C145 H170 0.931 . S
C146 C145 1.384 . S
C146 C149 1.382 . S
C147 C145 1.384 . S
C147 C148 1.381 . S
C147 H171 0.930 . S
C148 C147 1.381 . S
C148 C150 1.381 . S
C148 C151 1.487 . S
C149 C146 1.382 . S
C149 C150 1.387 . S
C149 H172 0.930 . S
C150 C148 1.381 . S
C150 C149 1.387 . S
C150 H173 0.931 . S
C151 C144 1.399 . S
C151 C148 1.487 . S
C151 N183 1.343 . S
C152 C153 1.384 . S
C152 C154 1.384 . S
C152 H174 0.931 . S
C153 C152 1.384 . S
C153 C156 1.382 . S
C154 C152 1.384 . S
C154 C155 1.381 . S
C154 H175 0.930 . S
C155 C154 1.381 . S
C155 C157 1.381 . S
C155 C158 1.487 . S
C156 C153 1.382 . S
C156 C157 1.387 . S
C156 H176 0.930 . S
C157 C155 1.381 . S
C157 C156 1.387 . S
C157 H177 0.931 . S
C158 C155 1.487 . S
C158 C165 1.399 . S
C158 N183 1.343 1_545 S
C159 C160 1.384 . S
C159 C161 1.384 . S
C159 H178 0.931 . S
C160 C159 1.384 . S
C160 C163 1.382 . S
C161 C159 1.384 . S
C161 C162 1.381 . S
C161 H179 0.930 . S
C162 C161 1.381 . S
C162 C164 1.381 . S
C162 C165 1.487 . S
C163 C160 1.382 . S
C163 C164 1.387 . S
C163 H180 0.930 . S
C164 C162 1.381 . S
C164 C163 1.387 . S
C164 H181 0.931 . S
C165 C158 1.399 . S
C165 C162 1.487 . S
C165 N182 1.343 . S
H166 C138 0.931 . S
H167 C140 0.930 . S
H168 C142 0.930 . S
H169 C143 0.931 . S
H170 C145 0.931 . S
H171 C147 0.930 . S
H172 C149 0.930 . S
H173 C150 0.931 . S
H174 C152 0.931 . S
H175 C154 0.930 . S
H176 C156 0.930 . S
H177 C157 0.931 . S
H178 C159 0.931 . S
H179 C161 0.930 . S
H180 C163 0.930 . S
H181 C164 0.931 . S
N182 C144 1.343 1_545 S
N182 C165 1.343 . S
N183 C151 1.343 . S
N183 C158 1.343 1_565 S
C184 C185 1.384 . S
C184 C186 1.384 . S
C184 H212 0.931 . S
C185 C184 1.384 . S
C185 C188 1.382 . S
C186 C184 1.384 . S
C186 C187 1.381 . S
C186 H213 0.930 . S
C187 C186 1.381 . S
C187 C189 1.381 . S
C187 C190 1.487 . S
C188 C185 1.382 . S
C188 C189 1.387 . S
C188 H214 0.930 . S
C189 C187 1.381 . S
C189 C188 1.387 . S
C189 H215 0.931 . S
C190 C187 1.487 . S
C190 C197 1.399 . S
C190 N228 1.343 . S
C191 C192 1.384 . S
C191 C193 1.384 . S
C191 H216 0.931 . S
C192 C191 1.384 . S
C192 C195 1.382 . S
C193 C191 1.384 . S
C193 C194 1.381 . S
C193 H217 0.930 . S
C194 C193 1.381 . S
C194 C196 1.381 . S
C194 C197 1.487 . S
C195 C192 1.382 . S
C195 C196 1.387 . S
C195 H218 0.930 . S
C196 C194 1.381 . S
C196 C195 1.387 . S
C196 H219 0.931 . S
C197 C190 1.399 . S
C197 C194 1.487 . S
C197 N229 1.343 1_455 S
C198 C199 1.384 . S
C198 C200 1.384 . S
C198 H220 0.931 . S
C199 C198 1.384 . S
C199 C202 1.382 . S
C200 C198 1.384 . S
C200 C201 1.381 . S
C200 H221 0.930 . S
C201 C200 1.381 . S
C201 C203 1.381 . S
C201 C204 1.487 . S
C202 C199 1.382 . S
C202 C203 1.387 . S
C202 H222 0.930 . S
C203 C201 1.381 . S
C203 C202 1.387 . S
C203 H223 0.931 . S
C204 C201 1.487 . S
C204 C211 1.399 . S
C204 N229 1.343 . S
C205 C206 1.384 . S
C205 C207 1.384 . S
C205 H224 0.931 . S
C206 C205 1.384 . S
C206 C209 1.382 . S
C207 C205 1.384 . S
C207 C208 1.381 . S
C207 H225 0.930 . S
C208 C207 1.381 . S
C208 C210 1.381 . S
C208 C211 1.487 . S
C209 C206 1.382 . S
C209 C210 1.387 . S
C209 H226 0.930 . S
C210 C208 1.381 . S
C210 C209 1.387 . S
C210 H227 0.931 . S
C211 C204 1.399 . S
C211 C208 1.487 . S
C211 N228 1.343 1_655 S
H212 C184 0.931 . S
H213 C186 0.930 . S
H214 C188 0.930 . S
H215 C189 0.931 . S
H216 C191 0.931 . S
H217 C193 0.930 . S
H218 C195 0.930 . S
H219 C196 0.931 . S
H220 C198 0.931 . S
H221 C200 0.930 . S
H222 C202 0.930 . S
H223 C203 0.931 . S
H224 C205 0.931 . S
H225 C207 0.930 . S
H226 C209 0.930 . S
H227 C210 0.931 . S
N228 C190 1.343 . S
N228 C211 1.343 1_455 S
N229 C197 1.343 1_655 S
N229 C204 1.343 . S
C230 C231 1.384 . S
C230 C232 1.384 . S
C230 H258 0.931 . S
C231 C230 1.384 . S
C231 C234 1.382 . S
C232 C230 1.384 . S
C232 C233 1.381 . S
C232 H259 0.930 . S
C233 C232 1.381 . S
C233 C235 1.381 . S
C233 C236 1.487 . S
C234 C231 1.382 . S
C234 C235 1.387 . S
C234 H260 0.930 . S
C235 C233 1.381 . S
C235 C234 1.387 . S
C235 H261 0.931 . S
C236 C233 1.487 . S
C236 C243 1.399 . S
C236 N274 1.343 . S
C237 C238 1.384 . S
C237 C239 1.384 . S
C237 H262 0.931 . S
C238 C237 1.384 . S
C238 C241 1.382 . S
C239 C237 1.384 . S
C239 C240 1.381 . S
C239 H263 0.930 . S
C240 C239 1.381 . S
C240 C242 1.381 . S
C240 C243 1.487 . S
C241 C238 1.382 . S
C241 C242 1.387 . S
C241 H264 0.930 . S
C242 C240 1.381 . S
C242 C241 1.387 . S
C242 H265 0.931 . S
C243 C236 1.399 . S
C243 C240 1.487 . S
C243 N275 1.343 . S
C244 C245 1.384 . S
C244 C246 1.384 . S
C244 H266 0.931 . S
C245 C244 1.384 . S
C245 C248 1.382 . S
C246 C244 1.384 . S
C246 C247 1.381 . S
C246 H267 0.930 . S
C247 C246 1.381 . S
C247 C249 1.381 . S
C247 C250 1.487 . S
C248 C245 1.382 . S
C248 C249 1.387 . S
C248 H268 0.930 . S
C249 C247 1.381 . S
C249 C248 1.387 . S
C249 H269 0.931 . S
C250 C247 1.487 . S
C250 C257 1.399 . S
C250 N275 1.343 . S
C251 C252 1.384 . S
C251 C253 1.384 . S
C251 H270 0.931 . S
C252 C251 1.384 . S
C252 C255 1.382 . S
C253 C251 1.384 . S
C253 C254 1.381 . S
C253 H271 0.930 . S
C254 C253 1.381 . S
C254 C256 1.381 . S
C254 C257 1.487 . S
C255 C252 1.382 . S
C255 C256 1.387 . S
C255 H272 0.930 . S
C256 C254 1.381 . S
C256 C255 1.387 . S
C256 H273 0.931 . S
C257 C250 1.399 . S
C257 C254 1.487 . S
C257 N274 1.343 . S
H258 C230 0.931 . S
H259 C232 0.930 . S
H260 C234 0.930 . S
H261 C235 0.931 . S
H262 C237 0.931 . S
H263 C239 0.930 . S
H264 C241 0.930 . S
H265 C242 0.931 . S
H266 C244 0.931 . S
H267 C246 0.930 . S
H268 C248 0.930 . S
H269 C249 0.931 . S
H270 C251 0.931 . S
H271 C253 0.930 . S
H272 C255 0.930 . S
H273 C256 0.931 . S
N274 C236 1.343 . S
N274 C257 1.343 . S
N275 C243 1.343 . S
N275 C250 1.343 . S
C276 C277 1.384 . S
C276 C278 1.384 . S
C276 H304 0.931 . S
C277 C276 1.384 . S
C277 C280 1.382 . S
C278 C276 1.384 . S
C278 C279 1.381 . S
C278 H305 0.930 . S
C279 C278 1.381 . S
C279 C281 1.381 . S
C279 C282 1.487 . S
C280 C277 1.382 . S
C280 C281 1.387 . S
C280 H306 0.930 . S
C281 C279 1.381 . S
C281 C280 1.387 . S
C281 H307 0.931 1_565 S
C282 C279 1.487 . S
C282 C289 1.399 . S
C282 N320 1.343 1_565 S
C283 C284 1.384 . S
C283 C285 1.384 . S
C283 H308 0.931 . S
C284 C283 1.384 . S
C284 C287 1.382 . S
C285 C283 1.384 . S
C285 C286 1.381 . S
C285 H309 0.930 . S
C286 C285 1.381 . S
C286 C288 1.381 . S
C286 C289 1.487 . S
C287 C284 1.382 . S
C287 C288 1.387 . S
C287 H310 0.930 . S
C288 C286 1.381 . S
C288 C287 1.387 . S
C288 H311 0.931 . S
C289 C282 1.399 . S
C289 C286 1.487 . S
C289 N321 1.343 1_565 S
C290 C291 1.384 . S
C290 C292 1.384 . S
C290 H312 0.931 . S
C291 C290 1.384 . S
C291 C294 1.382 . S
C292 C290 1.384 . S
C292 C293 1.381 . S
C292 H313 0.930 . S
C293 C292 1.381 . S
C293 C295 1.381 . S
C293 C296 1.487 . S
C294 C291 1.382 . S
C294 C295 1.387 . S
C294 H314 0.930 . S
C295 C293 1.381 . S
C295 C294 1.387 . S
C295 H315 0.931 . S
C296 C293 1.487 . S
C296 C303 1.399 . S
C296 N321 1.343 . S
C297 C298 1.384 . S
C297 C299 1.384 . S
C297 H316 0.931 . S
C298 C297 1.384 . S
C298 C301 1.382 . S
C299 C297 1.384 . S
C299 C300 1.381 . S
C299 H317 0.930 . S
C300 C299 1.381 . S
C300 C302 1.381 . S
C300 C303 1.487 . S
C301 C298 1.382 . S
C301 C302 1.387 . S
C301 H318 0.930 . S
C302 C300 1.381 . S
C302 C301 1.387 . S
C302 H319 0.931 . S
C303 C296 1.399 . S
C303 C300 1.487 . S
C303 N320 1.343 . S
H304 C276 0.931 . S
H305 C278 0.930 . S
H306 C280 0.930 . S
H307 C281 0.931 1_545 S
H308 C283 0.931 . S
H309 C285 0.930 . S
H310 C287 0.930 . S
H311 C288 0.931 . S
H312 C290 0.931 . S
H313 C292 0.930 . S
H314 C294 0.930 . S
H315 C295 0.931 . S
H316 C297 0.931 . S
H317 C299 0.930 . S
H318 C301 0.930 . S
H319 C302 0.931 . S
N320 C282 1.343 1_545 S
N320 C303 1.343 . S
N321 C289 1.343 1_545 S
N321 C296 1.343 . S
C322 C323 1.384 . S
C322 C324 1.384 . S
C322 H350 0.931 . S
C323 C322 1.384 . S
C323 C326 1.382 . S
C324 C322 1.384 . S
C324 C325 1.381 1_565 S
C324 H351 0.930 1_565 S
C325 C324 1.381 1_545 S
C325 C327 1.381 1_545 S
C325 C328 1.487 . S
C326 C323 1.382 . S
C326 C327 1.387 . S
C326 H352 0.930 . S
C327 C325 1.381 1_565 S
C327 C326 1.387 . S
C327 H353 0.931 . S
C328 C325 1.487 . S
C328 C335 1.399 . S
C328 N366 1.343 . S
C329 C330 1.384 . S
C329 C331 1.384 . S
C329 H354 0.931 . S
C330 C329 1.384 . S
C330 C333 1.382 . S
C331 C329 1.384 . S
C331 C332 1.381 1_565 S
C331 H355 0.930 . S
C332 C331 1.381 1_545 S
C332 C334 1.381 . S
C332 C335 1.487 . S
C333 C330 1.382 . S
C333 C334 1.387 1_565 S
C333 H356 0.930 1_565 S
C334 C332 1.381 . S
C334 C333 1.387 1_545 S
C334 H357 0.931 . S
C335 C328 1.399 . S
C335 C332 1.487 . S
C335 N367 1.343 . S
C336 C337 1.384 . S
C336 C338 1.384 . S
C336 H358 0.931 . S
C337 C336 1.384 . S
C337 C340 1.382 . S
C338 C336 1.384 . S
C338 C339 1.355 1_655 S
C338 H359 0.930 . S
C339 C338 1.355 1_455 S
C339 C341 1.393 . S
C339 C342 1.501 . S
C340 C337 1.382 . S
C340 C341 1.387 1_655 S
C340 H360 0.930 1_655 S
C341 C339 1.393 . S
C341 C340 1.387 1_455 S
C341 H361 0.931 . S
C342 C339 1.501 . S
C342 C349 1.399 . S
C342 N367 1.343 . S
C343 C344 1.384 . S
C343 C345 1.384 1_655 S
C343 H362 0.931 . S
C344 C343 1.384 . S
C344 C347 1.382 . S
C345 C343 1.384 1_455 S
C345 C346 1.381 . S
C345 H363 0.930 . S
C346 C345 1.381 . S
C346 C348 1.381 1_455 S
C346 C349 1.487 . S
C347 C344 1.382 . S
C347 C348 1.387 . S
C347 H364 0.930 . S
C348 C346 1.381 1_655 S
C348 C347 1.387 . S
C348 H365 0.931 . S
C349 C342 1.399 . S
C349 C346 1.487 . S
C349 N366 1.343 . S
H350 C322 0.931 . S
H351 C324 0.930 1_545 S
H352 C326 0.930 . S
H353 C327 0.931 . S
H354 C329 0.931 . S
H355 C331 0.930 . S
H356 C333 0.930 1_545 S
H357 C334 0.931 . S
H358 C336 0.931 . S
H359 C338 0.930 . S
H360 C340 0.930 1_455 S
H361 C341 0.931 . S
H362 C343 0.931 . S
H363 C345 0.930 . S
H364 C347 0.930 . S
H365 C348 0.931 . S
N366 C328 1.343 . S
N366 C349 1.343 . S
N367 C335 1.343 . S
N367 C342 1.343 . S
C368 O369 1.306 . S
C368 O371 1.160 . S
O369 C368 1.306 . S
O369 Cd370 2.228 . S
Cd370 O369 2.228 . S
Cd370 O374 2.273 1_554 S
Cd370 O378 2.277 . S
O371 C368 1.160 . S
O371 Cd372 2.203 . S
Cd372 O371 2.203 . S
Cd372 O374 2.411 1_554 S
Cd372 O375 2.333 1_554 S
Cd372 O376 2.352 . S
Cd372 O380 2.277 . S
Cd372 O381 2.364 . S
C373 O378 1.209 . S
C373 O380 1.226 . S
O374 Cd370 2.273 1_556 S
O374 Cd372 2.411 1_556 S
O374 C377 1.320 . S
O375 Cd372 2.333 1_556 S
O375 C377 1.214 . S
O376 Cd372 2.352 . S
O376 C379 1.258 . S
C377 O374 1.320 . S
C377 O375 1.214 . S
O378 Cd370 2.277 . S
O378 C373 1.209 . S
C379 O376 1.258 . S
C379 O381 1.284 . S
O380 Cd372 2.277 . S
O380 C373 1.226 . S
O381 Cd372 2.364 . S
O381 C379 1.284 . S
C382 O383 1.306 . S
C382 O385 1.160 . S
O383 C382 1.306 . S
O383 Cd384 2.228 . S
Cd384 O383 2.228 . S
Cd384 O388 2.273 . S
Cd384 O392 2.277 . S
O385 C382 1.160 . S
O385 Cd386 2.203 . S
Cd386 O385 2.203 . S
Cd386 O388 2.411 . S
Cd386 O389 2.333 . S
Cd386 O390 2.352 . S
Cd386 O394 2.277 . S
Cd386 O395 2.356 . S
C387 O392 1.209 . S
C387 O394 1.226 . S
O388 Cd384 2.273 . S
O388 Cd386 2.411 . S
O388 C391 1.320 . S
O389 Cd386 2.333 . S
O389 C391 1.214 . S
O390 Cd386 2.352 . S
O390 C393 1.258 . S
C391 O388 1.320 . S
C391 O389 1.214 . S
O392 Cd384 2.277 . S
O392 C387 1.209 . S
C393 O390 1.258 . S
C393 O395 1.282 . S
O394 Cd386 2.277 . S
O394 C387 1.226 . S
O395 Cd386 2.356 . S
O395 C393 1.282 . S
C396 O397 1.306 . S
C396 O399 1.160 . S
O397 C396 1.306 . S
O397 Cd398 2.228 . S
Cd398 O397 2.228 . S
Cd398 O402 2.273 . S
Cd398 O406 2.277 . S
O399 C396 1.160 . S
O399 Cd400 2.203 . S
Cd400 O399 2.203 . S
Cd400 O402 2.411 . S
Cd400 O403 2.333 . S
Cd400 O404 2.352 . S
Cd400 O408 2.277 . S
Cd400 O409 2.356 . S
C401 O406 1.209 . S
C401 O408 1.226 . S
O402 Cd398 2.273 . S
O402 Cd400 2.411 . S
O402 C405 1.320 . S
O403 Cd400 2.333 . S
O403 C405 1.214 . S
O404 Cd400 2.352 . S
O404 C407 1.258 . S
C405 O402 1.320 . S
C405 O403 1.214 . S
O406 Cd398 2.277 . S
O406 C401 1.209 . S
C407 O404 1.258 . S
C407 O409 1.282 . S
O408 Cd400 2.277 . S
O408 C401 1.226 . S
O409 Cd400 2.356 . S
O409 C407 1.282 . S
C410 O411 1.306 . S
C410 O413 1.160 . S
O411 C410 1.306 . S
O411 Cd412 2.228 . S
Cd412 O411 2.228 . S
Cd412 O416 2.273 . S
Cd412 O420 2.277 . S
O413 C410 1.160 . S
O413 Cd414 2.203 . S
Cd414 O413 2.203 . S
Cd414 O416 2.411 . S
Cd414 O417 2.333 . S
Cd414 O418 2.352 . S
Cd414 O422 2.277 . S
Cd414 O423 2.356 . S
C415 O420 1.209 . S
C415 O422 1.226 . S
O416 Cd412 2.273 . S
O416 Cd414 2.411 . S
O416 C419 1.320 . S
O417 Cd414 2.333 . S
O417 C419 1.214 . S
O418 Cd414 2.352 . S
O418 C421 1.258 . S
C419 O416 1.320 . S
C419 O417 1.214 . S
O420 Cd412 2.277 . S
O420 C415 1.209 . S
C421 O418 1.258 . S
C421 O423 1.282 . S
O422 Cd414 2.277 . S
O422 C415 1.226 . S
O423 Cd414 2.356 . S
O423 C421 1.282 . S
C424 O425 1.306 . S
C424 O427 1.160 . S
O425 C424 1.306 . S
O425 Cd426 2.228 . S
Cd426 O425 2.228 . S
Cd426 O430 2.273 . S
Cd426 O434 2.277 . S
O427 C424 1.160 . S
O427 Cd428 2.203 . S
Cd428 O427 2.203 . S
Cd428 O430 2.411 . S
Cd428 O431 2.333 . S
Cd428 O432 2.352 . S
Cd428 O436 2.277 . S
Cd428 O437 2.356 . S
C429 O434 1.209 . S
C429 O436 1.226 . S
O430 Cd426 2.273 . S
O430 Cd428 2.411 . S
O430 C433 1.320 . S
O431 Cd428 2.333 . S
O431 C433 1.214 . S
O432 Cd428 2.352 . S
O432 C435 1.258 . S
C433 O430 1.320 . S
C433 O431 1.214 . S
O434 Cd426 2.277 . S
O434 C429 1.209 . S
C435 O432 1.258 . S
C435 O437 1.282 . S
O436 Cd428 2.277 . S
O436 C429 1.226 . S
O437 Cd428 2.356 . S
O437 C435 1.282 . S
C438 O439 1.306 . S
C438 O441 1.160 . S
O439 C438 1.306 . S
O439 Cd440 2.228 . S
Cd440 O439 2.228 . S
Cd440 O444 2.273 . S
Cd440 O448 2.277 . S
O441 C438 1.160 . S
O441 Cd442 2.203 . S
Cd442 O441 2.203 . S
Cd442 O444 2.411 . S
Cd442 O445 2.333 . S
Cd442 O446 2.352 . S
Cd442 O450 2.277 . S
Cd442 O451 2.356 . S
C443 O448 1.209 . S
C443 O450 1.226 . S
O444 Cd440 2.273 . S
O444 Cd442 2.411 . S
O444 C447 1.320 . S
O445 Cd442 2.333 . S
O445 C447 1.214 . S
O446 Cd442 2.352 . S
O446 C449 1.258 . S
C447 O444 1.320 . S
C447 O445 1.214 . S
O448 Cd440 2.277 . S
O448 C443 1.209 . S
C449 O446 1.258 . S
C449 O451 1.282 . S
O450 Cd442 2.277 . S
O450 C443 1.226 . S
O451 Cd442 2.356 . S
O451 C449 1.282 . S
C452 O453 1.306 . S
C452 O455 1.160 . S
O453 C452 1.306 . S
O453 Cd454 2.259 . S
Cd454 O453 2.259 . S
Cd454 O458 2.247 1_556 S
Cd454 O462 2.281 . S
O455 C452 1.160 . S
O455 Cd456 2.203 1_556 S
Cd456 O455 2.203 1_554 S
Cd456 O458 2.411 . S
Cd456 O459 2.333 . S
Cd456 O460 2.352 . S
Cd456 O464 2.277 1_554 S
Cd456 O465 2.356 . S
C457 O462 1.209 . S
C457 O464 1.226 . S
O458 Cd454 2.247 1_554 S
O458 Cd456 2.411 . S
O458 C461 1.320 . S
O459 Cd456 2.333 . S
O459 C461 1.214 . S
O460 Cd456 2.352 . S
O460 C463 1.258 . S
C461 O458 1.320 . S
C461 O459 1.214 . S
O462 Cd454 2.281 . S
O462 C457 1.209 . S
C463 O460 1.258 . S
C463 O465 1.282 . S
O464 Cd456 2.277 1_556 S
O464 C457 1.226 . S
O465 Cd456 2.356 . S
O465 C463 1.282 . S
C466 O467 1.306 . S
C466 O469 1.160 . S
O467 C466 1.306 . S
O467 Cd468 2.228 . S
Cd468 O467 2.228 . S
Cd468 O472 2.273 . S
Cd468 O476 2.277 . S
O469 C466 1.160 . S
O469 Cd470 2.203 . S
Cd470 O469 2.203 . S
Cd470 O472 2.411 . S
Cd470 O473 2.333 . S
Cd470 O474 2.352 . S
Cd470 O478 2.277 . S
Cd470 O479 2.356 . S
C471 O476 1.209 . S
C471 O478 1.226 . S
O472 Cd468 2.273 . S
O472 Cd470 2.411 . S
O472 C475 1.320 . S
O473 Cd470 2.333 . S
O473 C475 1.214 . S
O474 Cd470 2.352 . S
O474 C477 1.258 . S
C475 O472 1.320 . S
C475 O473 1.214 . S
O476 Cd468 2.277 . S
O476 C471 1.209 . S
C477 O474 1.258 . S
C477 O479 1.282 . S
O478 Cd470 2.277 . S
O478 C471 1.226 . S
O479 Cd470 2.356 . S
O479 C477 1.282 . S
C480 C481 1.369 . S
C480 C482 1.419 . S
C480 H484 0.930 . S
C481 C480 1.369 . S
C481 C490 1.429 . S
C482 C480 1.419 . S
C482 C483 1.363 . S
C482 H485 0.929 . S
C483 C482 1.363 . S
C483 C489 1.428 . S
H484 C480 0.930 . S
H485 C482 0.929 . S
S486 N487 1.613 . S
S486 N488 1.610 . S
N487 S486 1.613 . S
N487 C490 1.350 . S
N488 S486 1.610 . S
N488 C489 1.351 . S
C489 C483 1.428 . S
C489 N488 1.351 . S
C489 C490 1.434 . S
C490 C481 1.429 . S
C490 N487 1.350 . S
C490 C489 1.434 . S
C491 C492 1.369 . S
C491 C493 1.419 . S
C491 H495 0.930 . S
C492 C491 1.369 . S
C492 C501 1.429 . S
C493 C491 1.419 . S
C493 C494 1.363 . S
C493 H496 0.929 . S
C494 C493 1.363 . S
C494 C500 1.428 . S
H495 C491 0.930 . S
H496 C493 0.929 . S
S497 N498 1.613 . S
S497 N499 1.610 . S
N498 S497 1.613 . S
N498 C501 1.350 . S
N499 S497 1.610 . S
N499 C500 1.351 . S
C500 C494 1.428 . S
C500 N499 1.351 . S
C500 C501 1.434 . S
C501 C492 1.429 . S
C501 N498 1.350 . S
C501 C500 1.434 . S
C502 C503 1.369 . S
C502 C504 1.419 . S
C502 H506 0.930 . S
C503 C502 1.369 . S
C503 C512 1.429 . S
C504 C502 1.419 . S
C504 C505 1.363 . S
C504 H507 0.929 . S
C505 C504 1.363 . S
C505 C511 1.428 . S
H506 C502 0.930 . S
H507 C504 0.929 . S
S508 N509 1.613 . S
S508 N510 1.610 . S
N509 S508 1.613 . S
N509 C512 1.350 . S
N510 S508 1.610 . S
N510 C511 1.351 . S
C511 C505 1.428 . S
C511 N510 1.351 . S
C511 C512 1.434 . S
C512 C503 1.429 . S
C512 N509 1.350 . S
C512 C511 1.434 . S
C513 C514 1.369 . S
C513 C515 1.419 . S
C513 H517 0.930 . S
C514 C513 1.369 . S
C514 C523 1.429 . S
C515 C513 1.419 . S
C515 C516 1.363 . S
C515 H518 0.929 . S
C516 C515 1.363 . S
C516 C522 1.428 . S
H517 C513 0.930 . S
H518 C515 0.929 . S
S519 N520 1.613 . S
S519 N521 1.610 . S
N520 S519 1.613 . S
N520 C523 1.350 . S
N521 S519 1.610 . S
N521 C522 1.351 . S
C522 C516 1.428 . S
C522 N521 1.351 . S
C522 C523 1.434 . S
C523 C514 1.429 . S
C523 N520 1.350 . S
C523 C522 1.434 . S
C524 C525 1.369 . S
C524 C526 1.419 . S
C524 H528 0.930 . S
C525 C524 1.369 . S
C525 C534 1.429 1_556 S
C526 C524 1.419 . S
C526 C527 1.363 . S
C526 H529 0.929 . S
C527 C526 1.363 . S
C527 C533 1.428 1_556 S
H528 C524 0.930 . S
H529 C526 0.929 . S
S530 N531 1.613 . S
S530 N532 1.610 . S
N531 S530 1.613 . S
N531 C534 1.350 . S
N532 S530 1.610 . S
N532 C533 1.351 . S
C533 C527 1.428 1_554 S
C533 N532 1.351 . S
C533 C534 1.434 . S
C534 C525 1.429 1_554 S
C534 N531 1.350 . S
C534 C533 1.434 . S
C535 C536 1.369 . S
C535 C537 1.419 . S
C535 H539 0.930 . S
C536 C535 1.369 . S
C536 C545 1.429 . S
C537 C535 1.419 . S
C537 C538 1.363 . S
C537 H540 0.929 . S
C538 C537 1.363 . S
C538 C544 1.428 . S
H539 C535 0.930 . S
H540 C537 0.929 . S
S541 N542 1.613 . S
S541 N543 1.610 . S
N542 S541 1.613 . S
N542 C545 1.350 . S
N543 S541 1.610 . S
N543 C544 1.351 . S
C544 C538 1.428 . S
C544 N543 1.351 . S
C544 C545 1.434 . S
C545 C536 1.429 . S
C545 N542 1.350 . S
C545 C544 1.434 . S
C546 C547 1.369 . S
C546 C548 1.419 . S
C546 H550 0.930 . S
C547 C546 1.369 . S
C547 C556 1.429 . S
C548 C546 1.419 . S
C548 C549 1.363 . S
C548 H551 0.929 . S
C549 C548 1.363 . S
C549 C555 1.428 . S
H550 C546 0.930 . S
H551 C548 0.929 . S
S552 N553 1.613 . S
S552 N554 1.610 . S
N553 S552 1.613 . S
N553 C556 1.350 . S
N554 S552 1.610 . S
N554 C555 1.351 . S
C555 C549 1.428 . S
C555 N554 1.351 . S
C555 C556 1.434 . S
C556 C547 1.429 . S
C556 N553 1.350 . S
C556 C555 1.434 . S
C557 C558 1.369 . S
C557 C559 1.419 . S
C557 H561 0.930 . S
C558 C557 1.369 . S
C558 C567 1.429 . S
C559 C557 1.419 . S
C559 C560 1.363 . S
C559 H562 0.929 . S
C560 C559 1.363 . S
C560 C566 1.428 . S
H561 C557 0.930 . S
H562 C559 0.929 . S
S563 N564 1.613 . S
S563 N565 1.610 . S
N564 S563 1.613 . S
N564 C567 1.350 . S
N565 S563 1.610 . S
N565 C566 1.351 . S
C566 C560 1.428 . S
C566 N565 1.351 . S
C566 C567 1.434 . S
C567 C558 1.429 . S
C567 N564 1.350 . S
C567 C566 1.434 . S
C568 C569 1.369 . S
C568 C570 1.419 . S
C568 H572 0.930 . S
C569 C568 1.369 . S
C569 C578 1.429 . S
C570 C568 1.419 . S
C570 C571 1.363 . S
C570 H573 0.929 . S
C571 C570 1.363 . S
C571 C577 1.428 . S
H572 C568 0.930 . S
H573 C570 0.929 . S
S574 N575 1.613 . S
S574 N576 1.610 . S
N575 S574 1.613 . S
N575 C578 1.350 . S
N576 S574 1.610 . S
N576 C577 1.351 . S
C577 C571 1.428 . S
C577 N576 1.351 . S
C577 C578 1.434 . S
C578 C569 1.429 . S
C578 N575 1.350 . S
C578 C577 1.434 . S
C579 C580 1.369 . S
C579 C581 1.419 . S
C579 H583 0.930 . S
C580 C579 1.369 . S
C580 C589 1.429 . S
C581 C579 1.419 . S
C581 C582 1.363 . S
C581 H584 0.929 . S
C582 C581 1.363 . S
C582 C588 1.428 . S
H583 C579 0.930 . S
H584 C581 0.929 . S
S585 N586 1.613 . S
S585 N587 1.610 . S
N586 S585 1.613 . S
N586 C589 1.350 . S
N587 S585 1.610 . S
N587 C588 1.351 . S
C588 C582 1.428 . S
C588 N587 1.351 . S
C588 C589 1.434 . S
C589 C580 1.429 . S
C589 N586 1.350 . S
C589 C588 1.434 . S
C590 C591 1.369 . S
C590 C592 1.419 . S
C590 H594 0.930 . S
C591 C590 1.369 . S
C591 C600 1.429 . S
C592 C590 1.419 . S
C592 C593 1.363 . S
C592 H595 0.929 . S
C593 C592 1.363 . S
C593 C599 1.428 . S
H594 C590 0.930 . S
H595 C592 0.929 . S
S596 N597 1.613 . S
S596 N598 1.610 . S
N597 S596 1.613 . S
N597 C600 1.350 . S
N598 S596 1.610 . S
N598 C599 1.351 . S
C599 C593 1.428 . S
C599 N598 1.351 . S
C599 C600 1.434 . S
C600 C591 1.429 . S
C600 N597 1.350 . S
C600 C599 1.434 . S
C601 C602 1.369 . S
C601 C603 1.419 . S
C601 H605 0.930 . S
C602 C601 1.369 . S
C602 C611 1.429 . S
C603 C601 1.419 . S
C603 C604 1.363 . S
C603 H606 0.929 . S
C604 C603 1.363 . S
C604 C610 1.428 . S
H605 C601 0.930 . S
H606 C603 0.929 . S
S607 N608 1.613 . S
S607 N609 1.610 . S
N608 S607 1.613 . S
N608 C611 1.350 . S
N609 S607 1.610 . S
N609 C610 1.351 . S
C610 C604 1.428 . S
C610 N609 1.351 . S
C610 C611 1.434 . S
C611 C602 1.429 . S
C611 N608 1.350 . S
C611 C610 1.434 . S
C612 C613 1.369 . S
C612 C614 1.419 . S
C612 H616 0.930 . S
C613 C612 1.369 . S
C613 C622 1.429 . S
C614 C612 1.419 . S
C614 C615 1.363 . S
C614 H617 0.929 . S
C615 C614 1.363 . S
C615 C621 1.428 . S
H616 C612 0.930 . S
H617 C614 0.929 . S
S618 N619 1.613 . S
S618 N620 1.610 . S
N619 S618 1.613 . S
N619 C622 1.350 . S
N620 S618 1.610 . S
N620 C621 1.351 . S
C621 C615 1.428 . S
C621 N620 1.351 . S
C621 C622 1.434 . S
C622 C613 1.429 . S
C622 N619 1.350 . S
C622 C621 1.434 . S
C623 C624 1.369 . S
C623 C625 1.419 . S
C623 H627 0.930 . S
C624 C623 1.369 . S
C624 C633 1.429 . S
C625 C623 1.419 . S
C625 C626 1.363 . S
C625 H628 0.929 . S
C626 C625 1.363 . S
C626 C632 1.428 . S
H627 C623 0.930 . S
H628 C625 0.929 . S
S629 N630 1.613 . S
S629 N631 1.610 . S
N630 S629 1.613 . S
N630 C633 1.350 . S
N631 S629 1.610 . S
N631 C632 1.351 . S
C632 C626 1.428 . S
C632 N631 1.351 . S
C632 C633 1.434 . S
C633 C624 1.429 . S
C633 N630 1.350 . S
C633 C632 1.434 . S
C634 C635 1.369 . S
C634 C636 1.419 . S
C634 H638 0.930 . S
C635 C634 1.369 . S
C635 C644 1.429 . S
C636 C634 1.419 . S
C636 C637 1.363 . S
C636 H639 0.929 . S
C637 C636 1.363 . S
C637 C643 1.428 . S
H638 C634 0.930 . S
H639 C636 0.929 . S
S640 N641 1.613 . S
S640 N642 1.610 . S
N641 S640 1.613 . S
N641 C644 1.350 . S
N642 S640 1.610 . S
N642 C643 1.351 . S
C643 C637 1.428 . S
C643 N642 1.351 . S
C643 C644 1.434 . S
C644 C635 1.429 . S
C644 N641 1.350 . S
C644 C643 1.434 . S
C645 C646 1.369 . S
C645 C647 1.419 . S
C645 H649 0.930 . S
C646 C645 1.369 . S
C646 C655 1.429 . S
C647 C645 1.419 . S
C647 C648 1.363 . S
C647 H650 0.929 . S
C648 C647 1.363 . S
C648 C654 1.428 . S
H649 C645 0.930 . S
H650 C647 0.929 . S
S651 N652 1.613 . S
S651 N653 1.610 . S
N652 S651 1.613 . S
N652 C655 1.350 . S
N653 S651 1.610 . S
N653 C654 1.351 . S
C654 C648 1.428 . S
C654 N653 1.351 . S
C654 C655 1.434 . S
C655 C646 1.429 . S
C655 N652 1.350 . S
C655 C654 1.434 . S
C656 C657 1.369 . S
C656 C658 1.419 . S
C656 H660 0.930 . S
C657 C656 1.369 . S
C657 C666 1.429 . S
C658 C656 1.419 . S
C658 C659 1.363 . S
C658 H661 0.929 . S
C659 C658 1.363 . S
C659 C665 1.428 . S
H660 C656 0.930 . S
H661 C658 0.929 . S
S662 N663 1.613 . S
S662 N664 1.610 . S
N663 S662 1.613 . S
N663 C666 1.350 . S
N664 S662 1.610 . S
N664 C665 1.351 . S
C665 C659 1.428 . S
C665 N664 1.351 . S
C665 C666 1.434 . S
C666 C657 1.429 . S
C666 N663 1.350 . S
C666 C665 1.434 . S
C667 C668 1.369 . S
C667 C669 1.419 . S
C667 H671 0.930 . S
C668 C667 1.369 . S
C668 C677 1.429 . S
C669 C667 1.419 . S
C669 C670 1.363 . S
C669 H672 0.929 . S
C670 C669 1.363 . S
C670 C676 1.428 . S
H671 C667 0.930 . S
H672 C669 0.929 . S
S673 N674 1.613 . S
S673 N675 1.610 . S
N674 S673 1.613 . S
N674 C677 1.350 . S
N675 S673 1.610 . S
N675 C676 1.351 . S
C676 C670 1.428 . S
C676 N675 1.351 . S
C676 C677 1.434 . S
C677 C668 1.429 . S
C677 N674 1.350 . S
C677 C676 1.434 . S
C678 C679 1.369 . S
C678 C680 1.419 . S
C678 H682 0.930 . S
C679 C678 1.369 . S
C679 C688 1.429 . S
C680 C678 1.419 . S
C680 C681 1.363 . S
C680 H683 0.929 . S
C681 C680 1.363 . S
C681 C687 1.428 . S
H682 C678 0.930 . S
H683 C680 0.929 . S
S684 N685 1.613 . S
S684 N686 1.610 . S
N685 S684 1.613 . S
N685 C688 1.350 . S
N686 S684 1.610 . S
N686 C687 1.351 . S
C687 C681 1.428 . S
C687 N686 1.351 . S
C687 C688 1.434 . S
C688 C679 1.429 . S
C688 N685 1.350 . S
C688 C687 1.434 . S
C689 C690 1.369 . S
C689 C691 1.419 . S
C689 H693 0.930 . S
C690 C689 1.369 . S
C690 C699 1.429 . S
C691 C689 1.419 . S
C691 C692 1.363 . S
C691 H694 0.929 . S
C692 C691 1.363 . S
C692 C698 1.428 . S
H693 C689 0.930 . S
H694 C691 0.929 . S
S695 N696 1.613 . S
S695 N697 1.610 . S
N696 S695 1.613 . S
N696 C699 1.350 . S
N697 S695 1.610 . S
N697 C698 1.351 . S
C698 C692 1.428 . S
C698 N697 1.351 . S
C698 C699 1.434 . S
C699 C690 1.429 . S
C699 N696 1.350 . S
C699 C698 1.434 . S
C700 C701 1.369 . S
C700 C702 1.419 . S
C700 H704 0.930 . S
C701 C700 1.369 . S
C701 C710 1.429 . S
C702 C700 1.419 . S
C702 C703 1.363 . S
C702 H705 0.929 . S
C703 C702 1.363 . S
C703 C709 1.428 . S
H704 C700 0.930 . S
H705 C702 0.929 . S
S706 N707 1.613 . S
S706 N708 1.610 . S
N707 S706 1.613 . S
N707 C710 1.350 . S
N708 S706 1.610 . S
N708 C709 1.351 . S
C709 C703 1.428 . S
C709 N708 1.351 . S
C709 C710 1.434 . S
C710 C701 1.429 . S
C710 N707 1.350 . S
C710 C709 1.434 . S
C711 C712 1.369 . S
C711 C713 1.419 . S
C711 H715 0.930 . S
C712 C711 1.369 . S
C712 C721 1.429 . S
C713 C711 1.419 . S
C713 C714 1.363 . S
C713 H716 0.929 . S
C714 C713 1.363 . S
C714 C720 1.428 . S
H715 C711 0.930 . S
H716 C713 0.929 . S
S717 N718 1.613 . S
S717 N719 1.610 . S
N718 S717 1.613 . S
N718 C721 1.350 . S
N719 S717 1.610 . S
N719 C720 1.351 . S
C720 C714 1.428 . S
C720 N719 1.351 . S
C720 C721 1.434 . S
C721 C712 1.429 . S
C721 N718 1.350 . S
C721 C720 1.434 . S
C722 C723 1.369 . S
C722 C724 1.419 . S
C722 H726 0.930 . S
C723 C722 1.369 . S
C723 C732 1.429 . S
C724 C722 1.419 . S
C724 C725 1.363 . S
C724 H727 0.929 . S
C725 C724 1.363 . S
C725 C731 1.428 . S
H726 C722 0.930 . S
H727 C724 0.929 . S
S728 N729 1.613 . S
S728 N730 1.610 . S
N729 S728 1.613 . S
N729 C732 1.350 . S
N730 S728 1.610 . S
N730 C731 1.351 . S
C731 C725 1.428 . S
C731 N730 1.351 . S
C731 C732 1.434 . S
C732 C723 1.429 . S
C732 N729 1.350 . S
C732 C731 1.434 . S
C733 C734 1.369 . S
C733 C735 1.419 . S
C733 H737 0.930 . S
C734 C733 1.369 . S
C734 C743 1.429 . S
C735 C733 1.419 . S
C735 C736 1.363 . S
C735 H738 0.929 . S
C736 C735 1.363 . S
C736 C742 1.428 . S
H737 C733 0.930 . S
H738 C735 0.929 . S
S739 N740 1.613 . S
S739 N741 1.610 . S
N740 S739 1.613 . S
N740 C743 1.350 . S
N741 S739 1.610 . S
N741 C742 1.351 . S
C742 C736 1.428 . S
C742 N741 1.351 . S
C742 C743 1.434 . S
C743 C734 1.429 . S
C743 N740 1.350 . S
C743 C742 1.434 . S
C744 C745 1.369 . S
C744 C746 1.419 . S
C744 H748 0.930 . S
C745 C744 1.369 . S
C745 C754 1.429 . S
C746 C744 1.419 . S
C746 C747 1.363 . S
C746 H749 0.929 . S
C747 C746 1.363 . S
C747 C753 1.428 . S
H748 C744 0.930 . S
H749 C746 0.929 . S
S750 N751 1.613 . S
S750 N752 1.610 . S
N751 S750 1.613 . S
N751 C754 1.350 . S
N752 S750 1.610 . S
N752 C753 1.351 . S
C753 C747 1.428 . S
C753 N752 1.351 . S
C753 C754 1.434 . S
C754 C745 1.429 . S
C754 N751 1.350 . S
C754 C753 1.434 . S
C755 C756 1.369 . S
C755 C757 1.419 . S
C755 H759 0.930 . S
C756 C755 1.369 . S
C756 C765 1.429 . S
C757 C755 1.419 . S
C757 C758 1.363 . S
C757 H760 0.929 . S
C758 C757 1.363 . S
C758 C764 1.428 . S
H759 C755 0.930 . S
H760 C757 0.929 . S
S761 N762 1.613 . S
S761 N763 1.610 . S
N762 S761 1.613 . S
N762 C765 1.350 . S
N763 S761 1.610 . S
N763 C764 1.351 . S
C764 C758 1.428 . S
C764 N763 1.351 . S
C764 C765 1.434 . S
C765 C756 1.429 . S
C765 N762 1.350 . S
C765 C764 1.434 . S
C766 C767 1.369 . S
C766 C768 1.419 . S
C766 H770 0.930 . S
C767 C766 1.369 . S
C767 C776 1.429 . S
C768 C766 1.419 . S
C768 C769 1.363 . S
C768 H771 0.929 . S
C769 C768 1.363 . S
C769 C775 1.428 . S
H770 C766 0.930 . S
H771 C768 0.929 . S
S772 N773 1.613 . S
S772 N774 1.610 . S
N773 S772 1.613 . S
N773 C776 1.350 . S
N774 S772 1.610 . S
N774 C775 1.351 . S
C775 C769 1.428 . S
C775 N774 1.351 . S
C775 C776 1.434 . S
C776 C767 1.429 . S
C776 N773 1.350 . S
C776 C775 1.434 . S
C777 C778 1.369 . S
C777 C779 1.419 . S
C777 H781 0.930 . S
C778 C777 1.369 . S
C778 C787 1.429 . S
C779 C777 1.419 . S
C779 C780 1.363 . S
C779 H782 0.929 . S
C780 C779 1.363 . S
C780 C786 1.428 . S
H781 C777 0.930 . S
H782 C779 0.929 . S
S783 N784 1.613 . S
S783 N785 1.610 . S
N784 S783 1.613 . S
N784 C787 1.350 . S
N785 S783 1.610 . S
N785 C786 1.351 . S
C786 C780 1.428 . S
C786 N785 1.351 . S
C786 C787 1.434 . S
C787 C778 1.429 . S
C787 N784 1.350 . S
C787 C786 1.434 . S
C788 C789 1.369 . S
C788 C790 1.419 . S
C788 H792 0.930 . S
C789 C788 1.369 . S
C789 C798 1.429 . S
C790 C788 1.419 . S
C790 C791 1.363 . S
C790 H793 0.929 . S
C791 C790 1.363 . S
C791 C797 1.428 . S
H792 C788 0.930 . S
H793 C790 0.929 . S
S794 N795 1.613 . S
S794 N796 1.610 . S
N795 S794 1.613 . S
N795 C798 1.350 . S
N796 S794 1.610 . S
N796 C797 1.351 . S
C797 C791 1.428 . S
C797 N796 1.351 . S
C797 C798 1.434 . S
C798 C789 1.429 . S
C798 N795 1.350 . S
C798 C797 1.434 . S
C799 C800 1.369 . S
C799 C801 1.419 . S
C799 H803 0.930 . S
C800 C799 1.369 . S
C800 C809 1.429 . S
C801 C799 1.419 . S
C801 C802 1.363 . S
C801 H804 0.929 . S
C802 C801 1.363 . S
C802 C808 1.428 . S
H803 C799 0.930 . S
H804 C801 0.929 . S
S805 N806 1.613 . S
S805 N807 1.610 . S
N806 S805 1.613 . S
N806 C809 1.350 . S
N807 S805 1.610 . S
N807 C808 1.351 . S
C808 C802 1.428 . S
C808 N807 1.351 . S
C808 C809 1.434 . S
C809 C800 1.429 . S
C809 N806 1.350 . S
C809 C808 1.434 . S
C810 C811 1.369 . S
C810 C812 1.419 . S
C810 H814 0.930 . S
C811 C810 1.369 . S
C811 C820 1.429 . S
C812 C810 1.419 . S
C812 C813 1.363 . S
C812 H815 0.929 . S
C813 C812 1.363 . S
C813 C819 1.428 . S
H814 C810 0.930 . S
H815 C812 0.929 . S
S816 N817 1.613 . S
S816 N818 1.610 . S
N817 S816 1.613 . S
N817 C820 1.350 . S
N818 S816 1.610 . S
N818 C819 1.351 . S
C819 C813 1.428 . S
C819 N818 1.351 . S
C819 C820 1.434 . S
C820 C811 1.429 . S
C820 N817 1.350 . S
C820 C819 1.434 . S
C821 C822 1.369 . S
C821 C823 1.419 . S
C821 H825 0.930 . S
C822 C821 1.369 . S
C822 C831 1.429 . S
C823 C821 1.419 . S
C823 C824 1.363 . S
C823 H826 0.929 . S
C824 C823 1.363 . S
C824 C830 1.428 . S
H825 C821 0.930 . S
H826 C823 0.929 . S
S827 N828 1.613 . S
S827 N829 1.610 . S
N828 S827 1.613 . S
N828 C831 1.350 . S
N829 S827 1.610 . S
N829 C830 1.351 . S
C830 C824 1.428 . S
C830 N829 1.351 . S
C830 C831 1.434 . S
C831 C822 1.429 . S
C831 N828 1.350 . S
C831 C830 1.434 . S
C483 C393 1.445 . S
C481 C8 1.389 . S
C494 C407 1.440 . S
C492 C61 1.385 . S
C505 C415 1.472 . S
C503 C107 1.424 . S
C514 C139 1.397 . S
C516 C373 1.450 . S
C525 C192 1.352 . S
C527 C379 1.408 1_556 S
C536 C238 1.339 . S
C538 C387 1.395 . S
C549 C401 1.502 . S
C547 C284 1.442 . S
C560 C421 1.467 . S
C558 C330 1.403 . S
C569 C100 1.354 . S
C571 C449 1.419 . S
C582 C463 1.496 . S
C580 C160 1.419 . S
C591 C15 1.338 . S
C593 C471 1.410 . S
C604 C435 1.366 . S
C602 C54 1.312 . S
C613 C291 1.405 . S
C615 C429 1.461 . S
C624 C337 1.423 . S
C626 C443 1.470 . S
C637 C457 1.463 . S
C635 C199 1.414 . S
C646 C245 1.423 . S
C648 C477 1.479 . S
C659 C396 1.671 . S
C657 C1 1.725 . S
C670 C419 1.723 . S
C668 C68 1.719 . S
C679 C114 1.749 . S
C681 C377 1.748 . S
C690 C146 1.773 . S
C692 C382 1.721 . S
C701 C185 1.657 . S
C703 C410 1.596 . S
C714 C368 1.619 . S
C712 C231 1.674 . S
C725 C391 1.656 . S
C723 C277 1.682 . S
C736 C405 1.650 . S
C734 C323 1.678 . S
C747 C452 1.600 . S
C745 C93 1.654 . S
C758 C475 1.647 . S
C756 C153 1.656 . S
C767 C22 1.646 . S
C769 C424 1.604 . S
C780 C438 1.591 . S
C778 C47 1.647 . S
C791 C466 1.719 . S
C789 C298 1.748 . S
C800 C344 1.773 . S
C802 C433 1.771 . S
C813 C447 1.753 . S
C811 C206 1.751 . S
C824 C461 1.717 . S
C822 C252 1.726 . S
