# Generated by pormake.
# Topology pyr, (3,6)-cn, num edge types: 1
# Building blocks:
#     Node 0, Type 0, BuildingBlock: QEWDON_clean_linker_0, # of connection points: 3
#     Node 1, Type 0, BuildingBlock: QEWDON_clean_linker_0, # of connection points: 3
#     Node 2, Type 0, BuildingBlock: QEWDON_clean_linker_0, # of connection points: 3
#     Node 3, Type 0, BuildingBlock: QEWDON_clean_linker_0, # of connection points: 3
#     Node 4, Type 0, BuildingBlock: QEWDON_clean_linker_0, # of connection points: 3
#     Node 5, Type 0, BuildingBlock: QEWDON_clean_linker_0, # of connection points: 3
#     Node 6, Type 0, BuildingBlock: QEWDON_clean_linker_0, # of connection points: 3
#     Node 7, Type 0, BuildingBlock: QEWDON_clean_linker_0, # of connection points: 3
#     Node 8, Type 1, BuildingBlock: BETFAJ_clean_sbu_0, # of connection points: 6
#     Node 9, Type 1, BuildingBlock: BETFAJ_clean_sbu_0, # of connection points: 6
#     Node 10, Type 1, BuildingBlock: BETFAJ_clean_sbu_0, # of connection points: 6
#     Node 11, Type 1, BuildingBlock: BETFAJ_clean_sbu_0, # of connection points: 6
#     Edge 12, Type (0, 1), BuildingBlock: XUDNAN_clean_linker_2, # of connection points: 2
#     Edge 13, Type (0, 1), BuildingBlock: XUDNAN_clean_linker_2, # of connection points: 2
#     Edge 14, Type (0, 1), BuildingBlock: XUDNAN_clean_linker_2, # of connection points: 2
#     Edge 15, Type (0, 1), BuildingBlock: XUDNAN_clean_linker_2, # of connection points: 2
#     Edge 16, Type (0, 1), BuildingBlock: XUDNAN_clean_linker_2, # of connection points: 2
#     Edge 17, Type (0, 1), BuildingBlock: XUDNAN_clean_linker_2, # of connection points: 2
#     Edge 18, Type (0, 1), BuildingBlock: XUDNAN_clean_linker_2, # of connection points: 2
#     Edge 19, Type (0, 1), BuildingBlock: XUDNAN_clean_linker_2, # of connection points: 2
#     Edge 20, Type (0, 1), BuildingBlock: XUDNAN_clean_linker_2, # of connection points: 2
#     Edge 21, Type (0, 1), BuildingBlock: XUDNAN_clean_linker_2, # of connection points: 2
#     Edge 22, Type (0, 1), BuildingBlock: XUDNAN_clean_linker_2, # of connection points: 2
#     Edge 23, Type (0, 1), BuildingBlock: XUDNAN_clean_linker_2, # of connection points: 2
#     Edge 24, Type (0, 1), BuildingBlock: XUDNAN_clean_linker_2, # of connection points: 2
#     Edge 25, Type (0, 1), BuildingBlock: XUDNAN_clean_linker_2, # of connection points: 2
#     Edge 26, Type (0, 1), BuildingBlock: XUDNAN_clean_linker_2, # of connection points: 2
#     Edge 27, Type (0, 1), BuildingBlock: XUDNAN_clean_linker_2, # of connection points: 2
#     Edge 28, Type (0, 1), BuildingBlock: XUDNAN_clean_linker_2, # of connection points: 2
#     Edge 29, Type (0, 1), BuildingBlock: XUDNAN_clean_linker_2, # of connection points: 2
#     Edge 30, Type (0, 1), BuildingBlock: XUDNAN_clean_linker_2, # of connection points: 2
#     Edge 31, Type (0, 1), BuildingBlock: XUDNAN_clean_linker_2, # of connection points: 2
#     Edge 32, Type (0, 1), BuildingBlock: XUDNAN_clean_linker_2, # of connection points: 2
#     Edge 33, Type (0, 1), BuildingBlock: XUDNAN_clean_linker_2, # of connection points: 2
#     Edge 34, Type (0, 1), BuildingBlock: XUDNAN_clean_linker_2, # of connection points: 2
#     Edge 35, Type (0, 1), BuildingBlock: XUDNAN_clean_linker_2, # of connection points: 2
# Relax obj value: 0.172
# Max RMSD: 0.266
# Mean RMSD: 0.196
data_MOF--net-pyr--node1-BETFAJ_clean_sbu_0--node2-QEWDON_clean_linker_0--edge1-XUDNAN_clean_linker_2
_symmetry_space_group_name_H-M    P1
_symmetry_Int_Tables_number       1
_symmetry_cell_setting            triclinic
loop_
_symmetry_equiv_pos_as_xyz
'x, y, z'
_cell_length_a     38.071755
_cell_length_b     41.109578
_cell_length_c     39.102025
_cell_angle_alpha  91.729525
_cell_angle_beta   89.245062
_cell_angle_gamma 109.78892
loop_
_atom_site_label
_atom_site_type_symbol
_atom_site_fract_x
_atom_site_fract_y
_atom_site_fract_z
_atom_type_partial_charge
H0 H 0.44588 0.36456 0.20524 0.0
C1 C 0.42988 0.35753 0.22867 0.0
C2 C 0.42107 0.32382 0.24073 0.0
C3 C 0.41577 0.38121 0.2453 0.0
H4 H 0.38819 0.28679 0.2765 0.0
C5 C 0.39733 0.3136 0.26919 0.0
C6 C 0.38264 0.33702 0.28588 0.0
C7 C 0.3939 0.37123 0.2748 0.0
C8 C 0.41895 0.41455 0.22962 0.0
H9 H 0.38383 0.3899 0.28803 0.0
C10 C 0.38692 0.42407 0.22714 0.0
C11 C 0.38856 0.45549 0.2128 0.0
C12 C 0.45295 0.43652 0.21664 0.0
H13 H 0.478 0.42973 0.21811 0.0
C14 C 0.45487 0.46775 0.20207 0.0
H15 H 0.36028 0.4064 0.23568 0.0
C16 C 0.42297 0.47728 0.20018 0.0
H17 H 0.42532 0.50178 0.18915 0.0
H18 H 0.48123 0.48472 0.19232 0.0
H19 H 0.20523 0.85435 0.76699 0.0
C20 C 0.22293 0.84354 0.75191 0.0
C21 C 0.25648 0.84266 0.76558 0.0
C22 C 0.21251 0.83118 0.71843 0.0
H23 H 0.3041 0.82682 0.75687 0.0
C24 C 0.27917 0.82887 0.74553 0.0
C25 C 0.27002 0.81783 0.71137 0.0
C26 C 0.23626 0.81888 0.6982 0.0
C27 C 0.17796 0.83308 0.70344 0.0
H28 H 0.22881 0.81141 0.67176 0.0
C29 C 0.17313 0.86523 0.70064 0.0
C30 C 0.14236 0.86783 0.683 0.0
C31 C 0.15116 0.80325 0.68949 0.0
H32 H 0.15459 0.77824 0.69128 0.0
C33 C 0.11991 0.80558 0.67284 0.0
H34 H 0.19441 0.88841 0.71049 0.0
C35 C 0.11564 0.83774 0.66929 0.0
H36 H 0.09164 0.83917 0.65565 0.0
H37 H 0.09931 0.78251 0.66212 0.0
H38 H 0.71642 0.46929 0.9085 0.0
C39 C 0.7079 0.44293 0.9171 0.0
C40 C 0.73091 0.4331 0.93988 0.0
C41 C 0.67281 0.41952 0.90703 0.0
H42 H 0.73532 0.39159 0.97006 0.0
C43 C 0.71867 0.39892 0.95151 0.0
C44 C 0.68395 0.3748 0.94154 0.0
C45 C 0.66141 0.38543 0.91919 0.0
C46 C 0.64535 0.43167 0.88862 0.0
H47 H 0.63445 0.36727 0.91163 0.0
C48 C 0.65394 0.45093 0.8581 0.0
C49 C 0.62661 0.46215 0.84238 0.0
C50 C 0.6095 0.42419 0.90293 0.0
H51 H 0.60214 0.41009 0.92643 0.0
C52 C 0.58279 0.43509 0.88764 0.0
H53 H 0.68143 0.457 0.84673 0.0
C54 C 0.59112 0.45373 0.85773 0.0
H55 H 0.56926 0.46106 0.84623 0.0
H56 H 0.55531 0.42894 0.89902 0.0
H57 H 0.93239 0.81785 0.391 0.0
C58 C 0.91022 0.79823 0.40403 0.0
C59 C 0.90393 0.80277 0.43915 0.0
C60 C 0.8883 0.7682 0.38568 0.0
H61 H 0.8691 0.78078 0.48234 0.0
C62 C 0.87473 0.77723 0.45548 0.0
C63 C 0.85196 0.74754 0.43765 0.0
C64 C 0.85894 0.74309 0.40264 0.0
C65 C 0.89347 0.76538 0.34798 0.0
H66 H 0.84135 0.72044 0.38856 0.0
C67 C 0.90793 0.74088 0.33251 0.0
C68 C 0.91298 0.7396 0.29639 0.0
C69 C 0.88395 0.7883 0.32721 0.0
H70 H 0.87291 0.80727 0.33845 0.0
C71 C 0.88802 0.78674 0.29183 0.0
H72 H 0.91594 0.72363 0.34864 0.0
C73 C 0.90215 0.76265 0.27654 0.0
H74 H 0.90402 0.7619 0.24891 0.0
H75 H 0.88001 0.80427 0.27608 0.0
H76 H 0.68919 0.78191 0.95023 0.0
C77 C 0.69993 0.7933 0.92594 0.0
C78 C 0.73211 0.7888 0.91186 0.0
C79 C 0.68301 0.81442 0.91002 0.0
H80 H 0.77079 0.80058 0.86946 0.0
C81 C 0.74606 0.80409 0.88069 0.0
C82 C 0.72952 0.8252 0.86459 0.0
C83 C 0.69835 0.83085 0.87958 0.0
C84 C 0.65042 0.82044 0.92637 0.0
H85 H 0.68594 0.84771 0.86746 0.0
C86 C 0.65104 0.85429 0.93392 0.0
C87 C 0.62139 0.86012 0.95206 0.0
C88 C 0.61944 0.79229 0.93618 0.0
H89 H 0.61844 0.76601 0.9306 0.0
C90 C 0.58956 0.79783 0.95337 0.0
H91 H 0.67503 0.87597 0.92634 0.0
C92 C 0.59055 0.83141 0.96151 0.0
H93 H 0.56755 0.83477 0.97603 0.0
H94 H 0.56581 0.77598 0.96098 0.0
H95 H 0.81655 0.22052 0.57235 0.0
C96 C 0.801 0.21782 0.54882 0.0
C97 C 0.80951 0.20025 0.52022 0.0
C98 C 0.77342 0.23318 0.54717 0.0
H99 H 0.7971 0.18606 0.46703 0.0
C100 C 0.79051 0.19914 0.48935 0.0
C101 C 0.76335 0.21519 0.48694 0.0
C102 C 0.75464 0.23168 0.5162 0.0
C103 C 0.76488 0.25151 0.57767 0.0
H104 H 0.73287 0.24309 0.51503 0.0
C105 C 0.76068 0.28388 0.57435 0.0
C106 C 0.75164 0.30114 0.6028 0.0
C107 C 0.76072 0.23682 0.61014 0.0
H108 H 0.76369 0.21181 0.61342 0.0
C109 C 0.75184 0.254 0.63857 0.0
H110 H 0.76397 0.29551 0.54946 0.0
C111 C 0.74699 0.28591 0.63494 0.0
H112 H 0.73974 0.29875 0.65715 0.0
H113 H 0.74837 0.24239 0.66342 0.0
H114 H 0.44915 0.81956 0.2599 0.0
C115 C 0.42004 0.8062 0.25378 0.0
C116 C 0.39904 0.82418 0.2381 0.0
C117 C 0.4036 0.77066 0.26089 0.0
H118 H 0.34573 0.8189 0.216 0.0
C119 C 0.3617 0.8058 0.22925 0.0
C120 C 0.34497 0.77042 0.23565 0.0
C121 C 0.36618 0.75301 0.25142 0.0
C122 C 0.42677 0.75004 0.2719 0.0
H123 H 0.35384 0.72554 0.25577 0.0
C124 C 0.43229 0.74416 0.30674 0.0
C125 C 0.45154 0.72124 0.31559 0.0
C126 C 0.44089 0.73342 0.24619 0.0
H127 H 0.43674 0.73733 0.21946 0.0
C128 C 0.45935 0.7108 0.25449 0.0
H129 H 0.4215 0.75722 0.32651 0.0
C130 C 0.46418 0.70438 0.28857 0.0
H131 H 0.47723 0.68536 0.29342 0.0
H132 H 0.46939 0.69757 0.2343 0.0
H133 H 0.25808 0.48729 0.77147 0.0
C134 C 0.24208 0.46352 0.75825 0.0
C135 C 0.25282 0.45501 0.72503 0.0
C136 C 0.21243 0.44008 0.77628 0.0
H137 H 0.23962 0.41399 0.6856 0.0
C138 C 0.23254 0.4219 0.71057 0.0
C139 C 0.2042 0.39751 0.72903 0.0
C140 C 0.19359 0.40747 0.76116 0.0
C141 C 0.2058 0.44579 0.81349 0.0
H142 H 0.17182 0.38883 0.77559 0.0
C143 C 0.19317 0.47262 0.82642 0.0
C144 C 0.18435 0.4744 0.86179 0.0
C145 C 0.21083 0.42209 0.83645 0.0
H146 H 0.22075 0.40154 0.82741 0.0
C147 C 0.20305 0.42429 0.87112 0.0
H148 H 0.18902 0.49103 0.80906 0.0
C149 C 0.18977 0.44998 0.88366 0.0
H150 H 0.18413 0.451 0.91084 0.0
H151 H 0.20715 0.40581 0.8884 0.0
Sm152 Sm 0.07593 0.10814 0.55822 0.0
Sm153 Sm 0.04623 0.08012 0.62786 0.0
C154 C 0.09538 0.14115 0.50012 0.0
C155 C 0.12757 0.16711 0.48373 0.0
C156 C 0.13529 0.20274 0.48969 0.0
C157 C 0.16415 0.22684 0.47192 0.0
C158 C 0.1858 0.21578 0.44785 0.0
C159 C 0.17859 0.18018 0.44253 0.0
C160 C 0.14969 0.15614 0.46014 0.0
C161 C 0.12025 0.07925 0.59277 0.0
C162 C 0.09923 0.15998 0.6272 0.0
C163 C 0.02491 0.04511 0.68459 0.0
C164 C 0.99045 1.01898 0.69645 0.0
C165 C 0.96283 1.00022 0.67307 0.0
C166 C 0.92934 0.97652 0.68476 0.0
C167 C 0.92287 0.97143 0.72002 0.0
C168 C 0.95078 0.99027 0.74327 0.0
C169 C 0.98428 1.01385 0.73154 0.0
C170 C 1.00034 0.10681 0.59295 0.0
C171 C 0.02726 1.02698 0.56052 0.0
O172 O 0.07769 0.15153 0.52477 0.0
O173 O 0.09876 0.11117 0.50569 0.0
O174 O 0.10366 0.0984 0.60559 0.0
O175 O 0.11653 0.07734 0.55983 0.0
O176 O 0.09308 0.1583 0.59372 0.0
O177 O 0.0896 0.1315 0.64504 0.0
O178 O 0.04286 0.0354 0.65977 0.0
O179 O 0.02295 0.07587 0.68049 0.0
O180 O 1.01789 0.08864 0.57978 0.0
O181 O 1.00397 0.10896 0.62587 0.0
O182 O 0.03391 1.03074 0.59374 0.0
O183 O 0.03457 0.05439 0.54118 0.0
H184 H 0.11866 0.21206 0.50758 0.0
H185 H 0.16924 0.25414 0.47669 0.0
H186 H 0.19434 0.17084 0.42375 0.0
H187 H 0.14412 0.12886 0.45465 0.0
H188 H 0.96704 1.00418 0.64583 0.0
H189 H 0.90827 0.9626 0.66626 0.0
H190 H 0.94687 0.98654 0.77054 0.0
H191 H 1.00529 1.02825 0.7499 0.0
Sm192 Sm 0.57445 0.11453 0.1138 0.0
Sm193 Sm 0.50577 0.08892 0.07405 0.0
C194 C 0.63553 0.14944 0.14865 0.0
C195 C 0.64573 0.16155 0.18413 0.0
C196 C 0.62428 0.17689 0.20409 0.0
C197 C 0.6341 0.18717 0.23808 0.0
C198 C 0.66522 0.18189 0.25272 0.0
C199 C 0.68658 0.16659 0.23261 0.0
C200 C 0.67696 0.15662 0.19861 0.0
C201 C 0.52586 0.05259 0.13747 0.0
C202 C 0.50549 0.1442 0.13207 0.0
C203 C 0.44362 0.05343 0.04084 0.0
C204 C 0.42691 1.02541 1.01522 0.0
C205 C 0.40589 0.99206 1.02586 0.0
C206 C 0.3857 0.96675 1.00213 0.0
C207 C 0.38591 0.97433 0.96731 0.0
C208 C 0.40797 1.00734 0.95654 0.0
C209 C 0.42817 1.03261 0.98024 0.0
C210 C 0.55498 0.15116 0.05137 0.0
C211 C 0.5742 0.06186 0.05279 0.0
O212 O 0.61597 0.16432 0.13178 0.0
O213 O 0.62448 0.11602 0.14325 0.0
O214 O 0.51654 0.07794 0.12873 0.0
O215 O 0.56156 0.05996 0.13482 0.0
O216 O 0.54171 0.14992 0.13431 0.0
O217 O 0.48367 0.11787 0.11404 0.0
O218 O 0.45222 0.04493 0.07075 0.0
O219 O 0.46751 0.08239 1.03014 0.0
O220 O 0.56389 0.12546 0.05957 0.0
O221 O 0.5193 0.14441 0.05462 0.0
O222 O 0.53767 0.0531 0.05541 0.0
O223 O 0.59612 0.09018 0.06836 0.0
H224 H 0.5998 0.18066 0.19356 0.0
H225 H 0.61699 0.19866 0.25309 0.0
H226 H 0.71096 0.16261 0.24309 0.0
H227 H 0.69381 0.14479 0.18364 0.0
H228 H 0.40408 0.98579 0.05268 0.0
H229 H 0.36933 0.94144 1.01116 0.0
H230 H 0.40836 1.0142 0.92998 0.0
H231 H 0.44366 0.05817 0.97122 0.0
Sm232 Sm 0.55013 0.57495 0.55938 0.0
Sm233 Sm 0.55978 0.63555 0.60328 0.0
C234 C 0.56037 0.52263 0.52491 0.0
C235 C 0.58783 0.50527 0.52934 0.0
C236 C 0.62398 0.52409 0.54103 0.0
C237 C 0.64888 0.50706 0.54855 0.0
C238 C 0.63783 0.47092 0.54498 0.0
C239 C 0.60181 0.45219 0.53288 0.0
C240 C 0.577 0.46929 0.52505 0.0
C241 C 0.48501 0.57073 0.59439 0.0
C242 C 0.58612 0.57761 0.63645 0.0
C243 C 0.55332 0.69072 0.63546 0.0
C244 C 0.52453 0.70688 0.63301 0.0
C245 C 0.48835 0.68681 0.62282 0.0
C246 C 0.46055 0.70157 0.62082 0.0
C247 C 0.46855 0.73713 0.62784 0.0
C248 C 0.50546 0.75751 0.63655 0.0
C249 C 0.53315 0.74241 0.63936 0.0
C250 C 0.62478 0.63755 0.56989 0.0
C251 C 0.52107 0.63138 0.5276 0.0
O252 O 0.57356 0.55452 0.51481 0.0
O253 O 0.53598 0.51844 0.54961 0.0
O254 O 0.51751 0.58201 0.60678 0.0
O255 O 0.48592 0.55995 0.56294 0.0
O256 O 0.58605 0.56699 0.60416 0.0
O257 O 0.57282 0.60258 0.6446 0.0
O258 O 0.54248 0.66005 0.64873 0.0
O259 O 0.57379 0.69256 0.60807 0.0
O260 O 0.59287 0.62863 0.55631 0.0
O261 O 0.62312 0.64592 0.60193 0.0
O262 O 0.52062 0.64124 0.56003 0.0
O263 O 0.53581 0.60763 0.5189 0.0
H264 H 0.6327 0.55188 0.54515 0.0
H265 H 0.67634 0.522 0.55818 0.0
H266 H 0.59279 0.42431 0.52967 0.0
H267 H 0.5491 0.45437 0.51642 0.0
H268 H 0.48141 0.65953 0.61669 0.0
H269 H 0.43257 0.68467 0.61465 0.0
H270 H 0.51302 0.78509 0.64138 0.0
H271 H 0.56123 0.75844 0.64646 0.0
Sm272 Sm 0.04876 0.57273 0.08623 0.0
Sm273 Sm 0.04339 0.64334 0.06152 0.0
C274 C 0.07582 0.52169 0.08957 0.0
C275 C 0.10576 0.51572 0.10936 0.0
C276 C 0.1412 0.54143 0.11225 0.0
C277 C 0.16993 0.53509 0.12961 0.0
C278 C 0.16372 0.50313 0.14485 0.0
C279 C 0.12805 0.47775 0.14273 0.0
C280 C 0.09936 0.48394 0.12495 0.0
C281 C 1.01635 0.60136 0.13778 0.0
C282 C 0.11036 0.64781 0.11339 0.0
C283 C 0.02261 0.69576 0.04404 0.0
C284 C 0.98709 0.70028 0.03559 0.0
C285 C 0.95805 0.67318 1.02015 0.0
C286 C 0.92465 0.67791 1.01161 0.0
C287 C 0.91986 0.70995 1.01813 0.0
C288 C 0.9488 0.73685 0.03416 0.0
C289 C 0.98211 0.73199 0.0429 0.0
C290 C 0.08537 0.61401 1.02089 0.0
C291 C 0.97203 0.56976 0.04844 0.0
O292 O 0.08688 0.54611 0.06709 0.0
O293 O 0.04572 0.52158 0.10636 0.0
O294 O 0.02772 0.61344 0.10886 0.0
O295 O 1.02122 0.57166 0.14003 0.0
O296 O 0.10366 0.61441 0.10657 0.0
O297 O 0.08897 0.66436 0.1016 0.0
O298 O 0.02669 0.68884 0.07588 0.0
O299 O 0.03472 0.67733 1.02206 0.0
O300 O 0.05445 0.59804 0.03494 0.0
O301 O 0.09501 0.64698 1.02799 0.0
O302 O 0.98454 0.60397 0.0513 0.0
O303 O 0.9926 0.55093 0.05715 0.0
H304 H 0.14692 0.56638 0.10082 0.0
H305 H 0.19702 0.55525 0.13124 0.0
H306 H 0.12261 0.45282 0.15414 0.0
H307 H 0.07228 0.4638 0.12308 0.0
H308 H 0.96144 0.64853 1.01414 0.0
H309 H 0.90304 0.65685 0.99896 0.0
H310 H 0.94571 0.7617 0.03981 0.0
H311 H 1.00413 0.75309 0.05504 0.0
H312 H 0.37171 0.28737 0.33538 0.0
H313 H 0.32199 0.35826 0.29309 0.0
H314 H 0.27021 0.33877 0.33376 0.0
H315 H 0.28556 0.21829 0.34351 0.0
H316 H 0.29781 0.20273 0.38264 0.0
H317 H 0.33377 0.22489 0.35283 0.0
H318 H 0.36731 0.26895 0.40076 0.0
H319 H 0.33135 0.24694 0.43073 0.0
H320 H 0.34207 0.2925 0.42415 0.0
H321 H 0.22211 0.31037 0.3765 0.0
H322 H 0.17824 0.2714 0.4165 0.0
H323 H 0.25622 0.21639 0.42981 0.0
C324 C 0.35011 0.29898 0.33479 0.0
C325 C 0.35186 0.3252 0.31151 0.0
C326 C 0.32252 0.33927 0.31147 0.0
C327 C 0.29261 0.32815 0.33434 0.0
C328 C 0.29188 0.30251 0.35694 0.0
C329 C 0.31957 0.28781 0.35723 0.0
C330 C 0.31035 0.25882 0.38252 0.0
C331 C 0.30665 0.22413 0.36428 0.0
C332 C 0.33951 0.26733 0.41124 0.0
C333 C 0.27294 0.25934 0.39588 0.0
C334 C 0.26315 0.2851 0.38107 0.0
C335 C 0.22954 0.29026 0.38855 0.0
C336 C 0.20491 0.26813 0.41146 0.0
C337 C 0.21389 0.24101 0.42643 0.0
C338 C 0.24859 0.23688 0.41873 0.0
H339 H 0.32629 0.88493 0.78384 0.0
H340 H 0.21522 0.83486 0.82492 0.0
H341 H 0.23709 0.86075 0.88214 0.0
H342 H 0.37778 0.87504 0.85794 0.0
H343 H 0.41354 0.91666 0.85333 0.0
H344 H 0.38927 0.89317 0.81616 0.0
H345 H 0.37044 0.94581 0.80038 0.0
H346 H 0.39463 0.96945 0.83745 0.0
H347 H 0.34601 0.96363 0.83139 0.0
H348 H 0.27111 0.89342 0.93439 0.0
H349 H 0.31354 0.93222 0.97699 0.0
H350 H 0.40251 0.9596 0.90134 0.0
C351 C 0.30666 0.87897 0.80497 0.0
C352 C 0.26912 0.85767 0.80008 0.0
C353 C 0.24406 0.85122 0.82816 0.0
C354 C 0.25629 0.86561 0.86072 0.0
C355 C 0.29359 0.88638 0.86464 0.0
C356 C 0.31835 0.8931 0.83747 0.0
C357 C 0.35659 0.91728 0.84801 0.0
C358 C 0.38603 0.89946 0.8436 0.0
C359 C 0.36754 0.95104 0.82813 0.0
C360 C 0.34946 0.92342 0.88536 0.0
C361 C 0.31306 0.90521 0.89456 0.0
C362 C 0.29975 0.90757 0.92755 0.0
C363 C 0.32415 0.9295 0.95164 0.0
C364 C 0.36141 0.94886 0.94256 0.0
C365 C 0.37417 0.94531 0.90904 0.0
H366 H 0.60589 0.5179 0.82647 0.0
H367 H 0.65996 0.44876 0.78296 0.0
H368 H 0.65956 0.47353 0.72595 0.0
H369 H 0.544 0.51017 0.75932 0.0
H370 H 0.54577 0.55456 0.76145 0.0
H371 H 0.55468 0.53462 0.79918 0.0
H372 H 0.61876 0.58317 0.80655 0.0
H373 H 0.60992 0.60349 0.76896 0.0
H374 H 0.6517 0.59236 0.77157 0.0
H375 H 0.64618 0.5017 0.67206 0.0
H376 H 0.62503 0.53248 0.62777 0.0
H377 H 0.57949 0.5832 0.70681 0.0
C378 C 0.6183 0.50833 0.80509 0.0
C379 C 0.63305 0.48127 0.8094 0.0
C380 C 0.64901 0.4697 0.78061 0.0
C381 C 0.6486 0.4835 0.74801 0.0
C382 C 0.63249 0.50918 0.74454 0.0
C383 C 0.6181 0.52179 0.77251 0.0
C384 C 0.60063 0.54816 0.76195 0.0
C385 C 0.5588 0.53615 0.77101 0.0
C386 C 0.62151 0.58392 0.77822 0.0
C387 C 0.60661 0.54802 0.72349 0.0
C388 C 0.62516 0.52546 0.7139 0.0
C389 C 0.63213 0.51973 0.67949 0.0
C390 C 0.61987 0.53735 0.65442 0.0
C391 C 0.60076 0.56062 0.66359 0.0
C392 C 0.59443 0.56605 0.69878 0.0
H393 H 0.95682 0.74867 0.23759 0.0
H394 H 0.90475 0.67273 0.31426 0.0
H395 H 0.92683 0.63029 0.28284 0.0
H396 H 0.93115 0.68983 0.16547 0.0
H397 H 0.97381 0.71004 0.1422 0.0
H398 H 0.95642 0.73535 0.17191 0.0
H399 H 1.01934 0.75488 0.20434 0.0
H400 H 0.03695 0.72968 0.17466 0.0
H401 H 0.03722 0.72273 0.21993 0.0
H402 H 0.95306 0.59522 0.24186 0.0
H403 H 0.98115 0.5705 0.19511 0.0
H404 H 1.01311 0.66792 0.14299 0.0
C405 C 0.94968 0.72309 0.24789 0.0
C406 C 0.92867 0.71435 0.27873 0.0
C407 C 0.9211 0.6806 0.29121 0.0
C408 C 0.93331 0.65611 0.2733 0.0
C409 C 0.95308 0.66549 0.24271 0.0
C410 C 0.96123 0.69821 0.23011 0.0
C411 C 0.98199 0.70148 0.19612 0.0
C412 C 0.95949 0.70966 0.16722 0.0
C413 C 1.0212 0.72881 0.19895 0.0
C414 C 0.98405 0.66536 0.19139 0.0
C415 C 0.96741 0.64511 0.21872 0.0
C416 C 0.96607 0.6109 0.22039 0.0
C417 C 0.98213 0.59706 0.19362 0.0
C418 C 0.99915 0.61713 0.1652 0.0
C419 C 1.00002 0.6518 0.16415 0.0
H420 H 0.4697 0.28972 0.25638 0.0
H421 H 0.39415 0.29914 0.17833 0.0
H422 H 0.40772 0.25402 0.14289 0.0
H423 H 0.53917 0.27758 0.1968 0.0
H424 H 0.55028 0.24698 0.22288 0.0
H425 H 0.53439 0.27968 0.24268 0.0
H426 H 0.48101 0.23215 0.27265 0.0
H427 H 0.49669 0.19933 0.25285 0.0
H428 H 0.44917 0.19763 0.24726 0.0
H429 H 0.42621 0.20684 0.11758 0.0
H430 H 0.45332 0.16254 0.10005 0.0
H431 H 0.52163 0.18521 0.19163 0.0
C432 C 0.45624 0.28218 0.23176 0.0
C433 C 0.43087 0.29763 0.21984 0.0
C434 C 0.41372 0.28751 0.1876 0.0
C435 C 0.42118 0.26192 0.16744 0.0
C436 C 0.44623 0.24707 0.17977 0.0
C437 C 0.46397 0.25699 0.21089 0.0
C438 C 0.49038 0.23716 0.21736 0.0
C439 C 0.53097 0.26183 0.22008 0.0
C440 C 0.4786 0.21527 0.24944 0.0
C441 C 0.48442 0.21446 0.18509 0.0
C442 C 0.45843 0.22048 0.16412 0.0
C443 C 0.44679 0.20202 0.13359 0.0
C444 C 0.46222 0.17675 0.124 0.0
C445 C 0.48946 0.17041 0.14454 0.0
C446 C 0.50097 0.18971 0.17542 0.0
H447 H 0.13147 0.89281 0.62186 0.0
H448 H 0.14869 0.92041 0.72976 0.0
H449 H 0.14716 0.97889 0.71832 0.0
H450 H 0.18942 0.97496 0.5908 0.0
H451 H 0.15965 0.97364 0.55495 0.0
H452 H 0.16141 0.93398 0.57191 0.0
H453 H 0.08981 0.91241 0.5804 0.0
H454 H 0.08748 0.95199 0.56379 0.0
H455 H 0.06867 0.93827 0.6056 0.0
H456 H 0.1419 0.0337 0.69489 0.0
H457 H 0.13417 0.08088 0.66115 0.0
H458 H 0.1235 1.01757 0.56853 0.0
C459 C 0.13449 0.91107 0.6431 0.0
C460 C 0.13981 0.9022 0.67672 0.0
C461 C 0.14451 0.92689 0.70384 0.0
C462 C 0.14369 0.96005 0.69757 0.0
C463 C 0.13863 0.96808 0.66402 0.0
C464 C 0.13427 0.94432 0.63724 0.0
C465 C 0.1298 0.95943 0.60348 0.0
C466 C 0.16199 0.96057 0.57884 0.0
C467 C 0.09167 0.93935 0.58737 0.0
C468 C 0.13197 0.99536 0.61544 0.0
C469 C 0.13698 0.99988 0.65044 0.0
C470 C 0.13838 1.0306 0.66743 0.0
C471 C 0.13411 0.05723 0.64813 0.0
C472 C 0.12886 0.05293 0.61232 0.0
C473 C 0.12826 1.02178 0.59581 0.0
H474 H 0.79866 0.42477 0.95456 0.0
H475 H 0.74187 0.50035 0.95988 0.0
H476 H 0.7968 0.54223 0.98805 0.0
H477 H 0.84257 0.44601 0.03681 0.0
H478 H 0.88555 0.44014 1.02339 0.0
H479 H 0.84249 0.41612 1.00209 0.0
H480 H 0.87161 0.43975 0.94382 0.0
H481 H 0.91485 0.46365 0.9649 0.0
H482 H 0.89198 0.48581 0.93877 0.0
H483 H 0.85612 0.57523 1.01789 0.0
H484 H 0.91786 0.59891 0.04456 0.0
H485 H 0.93836 0.50298 1.02073 0.0
C486 C 0.79778 0.45017 0.96154 0.0
C487 C 0.76571 0.45916 0.95457 0.0
C488 C 0.76608 0.49284 0.96409 0.0
C489 C 0.79712 0.51679 0.98049 0.0
C490 C 0.82786 0.50691 0.98733 0.0
C491 C 0.82867 0.47454 0.97798 0.0
C492 C 0.86539 0.47066 0.98862 0.0
C493 C 0.85858 0.4415 1.01425 0.0
C494 C 0.88725 0.46462 0.95715 0.0
C495 C 0.88495 0.50588 1.0056 0.0
C496 C 0.86257 0.52622 1.00453 0.0
C497 C 0.87399 0.55963 1.0186 0.0
C498 C 0.90936 0.57291 0.03364 0.0
C499 C 0.9335 0.55312 0.03451 0.0
C500 C 0.92073 0.51885 1.0206 0.0
H501 H 0.77588 0.725 0.42532 0.0
H502 H 0.85898 0.71395 0.49438 0.0
H503 H 0.80903 0.67916 0.53246 0.0
H504 H 0.71583 0.73727 0.48831 0.0
H505 H 0.67276 0.71333 0.46694 0.0
H506 H 0.71443 0.73299 0.44228 0.0
H507 H 0.70757 0.67368 0.41335 0.0
H508 H 0.66566 0.65388 0.43783 0.0
H509 H 0.70376 0.63728 0.43953 0.0
H510 H 0.75156 0.65285 0.56685 0.0
H511 H 0.68947 0.63437 0.59448 0.0
H512 H 0.64149 0.66006 0.50358 0.0
C513 C 0.78336 0.71416 0.44786 0.0
C514 C 0.82134 0.72175 0.4567 0.0
C515 C 0.83012 0.70815 0.487 0.0
C516 C 0.80191 0.68837 0.50878 0.0
C517 C 0.76481 0.68218 0.49999 0.0
C518 C 0.75531 0.69431 0.47011 0.0
C519 C 0.71323 0.6861 0.46828 0.0
C520 C 0.70351 0.71941 0.46635 0.0
C521 C 0.69657 0.66125 0.43794 0.0
C522 C 0.70083 0.66848 0.50221 0.0
C523 C 0.73115 0.66636 0.51992 0.0
C524 C 0.72752 0.65375 0.55296 0.0
C525 C 0.69217 0.64339 0.56851 0.0
C526 C 0.66067 0.64534 0.55106 0.0
C527 C 0.66497 0.65752 0.5172 0.0
H528 H 0.36559 0.48627 0.15985 0.0
H529 H 0.33307 0.44525 0.26094 0.0
H530 H 0.27285 0.45462 0.25531 0.0
H531 H 0.32142 0.55353 0.1675 0.0
H532 H 0.30772 0.54851 0.12317 0.0
H533 H 0.34919 0.54029 0.13595 0.0
H534 H 0.32343 0.47888 0.10796 0.0
H535 H 0.28181 0.48678 0.09537 0.0
H536 H 0.27827 0.44995 0.12079 0.0
H537 H 0.21408 0.46378 0.23682 0.0
H538 H 0.1626 0.47619 0.20814 0.0
H539 H 0.23434 0.51384 0.12051 0.0
C540 C 0.3462 0.47997 0.18114 0.0
C541 C 0.35404 0.46469 0.2107 0.0
C542 C 0.32751 0.45636 0.23773 0.0
C543 C 0.29327 0.4618 0.2349 0.0
C544 C 0.28609 0.47608 0.20509 0.0
C545 C 0.31197 0.48552 0.17887 0.0
C546 C 0.29689 0.49964 0.14921 0.0
C547 C 0.32019 0.53776 0.14364 0.0
C548 C 0.29499 0.47748 0.1164 0.0
C549 C 0.25825 0.49596 0.16258 0.0
C550 C 0.25255 0.4823 0.19485 0.0
C551 C 0.21836 0.47492 0.21173 0.0
C552 C 0.18925 0.48183 0.19521 0.0
C553 C 0.19465 0.49617 0.1623 0.0
C554 C 0.22968 0.50341 0.14593 0.0
H555 H 0.61302 0.33672 0.96449 0.0
H556 H 0.72476 0.3322 0.95227 0.0
H557 H 0.70431 0.27518 0.97914 0.0
H558 H 0.59389 0.29714 0.04609 0.0
H559 H 0.54554 0.27332 0.03705 0.0
H560 H 0.56865 0.31354 1.0163 0.0
H561 H 0.55078 0.28292 0.95701 0.0
H562 H 0.52741 0.24263 0.97759 0.0
H563 H 0.56348 0.24537 0.94636 0.0
H564 H 0.67178 0.21852 1.00859 0.0
H565 H 0.62939 0.16659 0.03672 0.0
H566 H 0.53861 0.20732 1.0292 0.0
C567 C 0.63312 0.32358 0.96697 0.0
C568 C 0.67066 0.33925 0.95614 0.0
C569 C 0.69602 0.32115 0.9606 0.0
C570 C 0.6846 0.28859 0.97575 0.0
C571 C 0.6476 0.27413 0.98644 0.0
C572 C 0.62218 0.29099 0.98212 0.0
C573 C 0.58411 0.26989 0.99615 0.0
C574 C 0.57237 0.28966 1.02565 0.0
C575 C 0.55471 0.25959 0.96757 0.0
C576 C 0.59206 0.23857 1.00901 0.0
C577 C 0.62889 0.24154 1.00321 0.0
C578 C 0.64286 0.21593 1.01312 0.0
C579 C 0.61859 0.1865 1.02913 0.0
C580 C 0.58065 0.18275 0.03509 0.0
C581 C 0.56743 0.20932 1.02493 0.0
H582 H 0.92607 0.87268 0.42395 0.0
H583 H 0.9351 0.80238 0.50125 0.0
H584 H 0.96875 0.85194 0.53888 0.0
H585 H 1.01854 0.93953 0.44036 0.0
H586 H 1.00192 0.975 0.43359 0.0
H587 H 0.98039 0.93409 0.41139 0.0
H588 H 0.91599 0.93164 0.43566 0.0
H589 H 0.93734 0.97238 0.45811 0.0
H590 H 0.90992 0.93495 0.48128 0.0
H591 H 0.99697 0.90781 0.57 0.0
H592 H 1.0217 0.96759 0.59227 0.0
H593 H 0.99739 1.00446 0.49545 0.0
C594 C 0.9358 0.86782 0.44853 0.0
C595 C 0.92772 0.83348 0.45967 0.0
C596 C 0.94052 0.8283 0.49225 0.0
C597 C 0.9598 0.85633 0.51381 0.0
C598 C 0.96645 0.8897 0.50254 0.0
C599 C 0.95524 0.89577 0.47061 0.0
C600 C 0.96526 0.93451 0.46559 0.0
C601 C 0.9932 0.94649 0.43597 0.0
C602 C 0.93003 0.94391 0.45982 0.0
C603 C 0.98332 0.94906 0.49985 0.0
C604 C 0.98358 0.92253 0.52062 0.0
C605 C 0.99726 0.92882 0.55386 0.0
C606 C 1.01121 0.96306 0.56632 0.0
C607 C 1.01184 0.99105 0.54569 0.0
C608 C 0.9977 0.9838 0.51183 0.0
H609 H 0.3469 0.83895 0.71541 0.0
H610 H 0.25291 0.76949 0.6578 0.0
H611 H 0.29629 0.74957 0.62302 0.0
H612 H 0.41824 0.85702 0.64805 0.0
H613 H 0.45365 0.8545 0.67697 0.0
H614 H 0.41655 0.86901 0.69261 0.0
H615 H 0.39906 0.82144 0.7381 0.0
H616 H 0.43632 0.80719 0.72291 0.0
H617 H 0.38929 0.77694 0.72456 0.0
H618 H 0.34937 0.73434 0.59683 0.0
H619 H 0.40529 0.718 0.58761 0.0
H620 H 0.46158 0.78983 0.66956 0.0
C621 C 0.33503 0.81947 0.69564 0.0
C622 C 0.29613 0.80615 0.68947 0.0
C623 C 0.28251 0.78104 0.6627 0.0
C624 C 0.30699 0.76941 0.64275 0.0
C625 C 0.34497 0.78269 0.6501 0.0
C626 C 0.35881 0.80673 0.6763 0.0
C627 C 0.39979 0.81316 0.68242 0.0
C628 C 0.42345 0.85065 0.67453 0.0
C629 C 0.40648 0.80412 0.71916 0.0
C630 C 0.40654 0.78804 0.65629 0.0
C631 C 0.37497 0.77167 0.63708 0.0
C632 C 0.37418 0.7468 0.6119 0.0
C633 C 0.40605 0.73742 0.60716 0.0
C634 C 0.43784 0.75195 0.62838 0.0
C635 C 0.43822 0.77838 0.65253 0.0
H636 H 0.76417 0.89426 0.85822 0.0
H637 H 0.7379 0.79611 0.80304 0.0
H638 H 0.77896 0.82506 0.75539 0.0
H639 H 0.77697 0.95103 0.7814 0.0
H640 H 0.81567 0.98427 0.80135 0.0
H641 H 0.7782 0.95728 0.82726 0.0
H642 H 0.8262 0.94037 0.86256 0.0
H643 H 0.86368 0.96678 0.83654 0.0
H644 H 0.85711 0.92156 0.84089 0.0
H645 H 0.82939 0.86276 0.71823 0.0
H646 H 0.88568 0.90616 0.69443 0.0
H647 H 0.88048 0.97971 0.77462 0.0
C648 C 0.76589 0.87931 0.83536 0.0
C649 C 0.74738 0.84327 0.83362 0.0
C650 C 0.75142 0.82393 0.80424 0.0
C651 C 0.77463 0.84015 0.77717 0.0
C652 C 0.79366 0.87565 0.78009 0.0
C653 C 0.78937 0.89507 0.80836 0.0
C654 C 0.8165 0.93177 0.80729 0.0
C655 C 0.79558 0.95762 0.80413 0.0
C656 C 0.8424 0.94061 0.83867 0.0
C657 C 0.83769 0.92959 0.77478 0.0
C658 C 0.82363 0.89723 0.7591 0.0
C659 C 0.84019 0.8884 0.7299 0.0
C660 C 0.87213 0.91322 0.71655 0.0
C661 C 0.88741 0.94631 0.73264 0.0
C662 C 0.86951 0.9546 0.76183 0.0
H663 H 0.74036 0.16307 0.43763 0.0
H664 H 0.74518 0.26855 0.46054 0.0
H665 H 0.71659 0.27012 0.4047 0.0
H666 H 0.76717 0.1766 0.35064 0.0
H667 H 0.73725 0.13451 0.33581 0.0
H668 H 0.75487 0.14054 0.37888 0.0
H669 H 0.68727 0.11604 0.40238 0.0
H670 H 0.66942 0.10993 0.35934 0.0
H671 H 0.65337 0.13529 0.39017 0.0
H672 H 0.68996 0.26114 0.34517 0.0
H673 H 0.66946 0.24283 0.28572 0.0
H674 H 0.68464 0.14436 0.30108 0.0
C675 C 0.7355 0.18656 0.43099 0.0
C676 C 0.74486 0.2156 0.45372 0.0
C677 C 0.73758 0.24567 0.44397 0.0
C678 C 0.72153 0.24691 0.41219 0.0
C679 C 0.71302 0.21794 0.39033 0.0
C680 C 0.71983 0.18837 0.39927 0.0
C681 C 0.70986 0.16141 0.37048 0.0
C682 C 0.74435 0.15278 0.35823 0.0
C683 C 0.67809 0.12874 0.38124 0.0
C684 C 0.69693 0.18067 0.34375 0.0
C685 C 0.69853 0.21307 0.3558 0.0
C686 C 0.68842 0.23575 0.33549 0.0
C687 C 0.6767 0.22511 0.30186 0.0
C688 C 0.67557 0.19225 0.28884 0.0
C689 C 0.68555 0.16975 0.31026 0.0
H690 H 0.5089 0.70157 0.34145 0.0
H691 H 0.40876 0.7224 0.3739 0.0
H692 H 0.41711 0.70472 0.43224 0.0
H693 H 0.4872 0.62307 0.38613 0.0
H694 H 0.53522 0.62917 0.39576 0.0
H695 H 0.52392 0.64756 0.358 0.0
H696 H 0.56783 0.70823 0.37784 0.0
H697 H 0.57931 0.69002 0.41567 0.0
H698 H 0.56122 0.72522 0.41955 0.0
H699 H 0.43691 0.68318 0.48826 0.0
H700 H 0.46307 0.65695 0.53345 0.0
H701 H 0.54427 0.64309 0.46098 0.0
C702 C 0.48814 0.70217 0.36035 0.0
C703 C 0.4578 0.71337 0.35218 0.0
C704 C 0.43258 0.71457 0.37892 0.0
C705 C 0.43694 0.70424 0.41231 0.0
C706 C 0.46643 0.69228 0.41883 0.0
C707 C 0.49139 0.69101 0.39334 0.0
C708 C 0.51932 0.67505 0.40586 0.0
C709 C 0.51621 0.64174 0.38521 0.0
C710 C 0.55928 0.7012 0.40466 0.0
C711 C 0.50619 0.66725 0.44243 0.0
C712 C 0.4761 0.67797 0.44978 0.0
C713 C 0.46021 0.67446 0.4825 0.0
C714 C 0.47525 0.65953 0.50805 0.0
C715 C 0.50533 0.64743 0.50066 0.0
C716 C 0.52083 0.65146 0.46732 0.0
H717 H 0.12492 0.46477 0.90573 0.0
H718 H 0.21253 0.545 0.85455 0.0
H719 H 0.19578 0.58958 0.88861 0.0
H720 H 0.05758 0.5116 0.91281 0.0
H721 H 0.04126 0.49453 0.95424 0.0
H722 H 0.0583 0.46956 0.92381 0.0
H723 H 0.10567 0.46491 0.96871 0.0
H724 H 0.08919 0.4903 0.99908 0.0
H725 H 0.13798 0.50383 0.98781 0.0
H726 H 0.17358 0.62508 0.93336 0.0
H727 H 0.14372 0.64873 0.97971 0.0
H728 H 0.06864 0.54532 1.00021 0.0
C729 C 0.14016 0.49176 0.9012 0.0
C730 C 0.17009 0.50137 0.87729 0.0
C731 C 0.18927 0.53698 0.87226 0.0
C732 C 0.18011 0.56245 0.89177 0.0
C733 C 0.15133 0.55198 0.91597 0.0
C734 C 0.13118 0.51743 0.92025 0.0
C735 C 0.10207 0.51282 0.9484 0.0
C736 C 0.06245 0.49615 0.93394 0.0
C737 C 0.10917 0.49171 0.97773 0.0
C738 C 0.10928 0.55014 0.95979 0.0
C739 C 0.13797 0.57233 0.94091 0.0
C740 C 0.15079 0.60789 0.94789 0.0
C741 C 0.1337 0.6211 0.97444 0.0
C742 C 0.10378 0.59898 0.99373 0.0
C743 C 0.09145 0.56298 0.98607 0.0
H744 H 0.56407 0.88675 0.95542 0.0
H745 H 0.6829 0.91404 0.97419 0.0
H746 H 0.68508 0.97147 0.99627 0.0
H747 H 0.56451 0.97301 0.93286 0.0
H748 H 0.52119 0.96769 0.95503 0.0
H749 H 0.52997 0.93055 0.93637 0.0
H750 H 0.51795 0.90117 0.99521 0.0
H751 H 0.50913 0.93817 1.01395 0.0
H752 H 0.54441 0.9236 0.03189 0.0
H753 H 0.67322 1.02408 1.02129 0.0
H754 H 0.64786 0.06665 0.04826 0.0
H755 H 0.53657 1.00365 1.01509 0.0
C756 C 0.59067 0.90482 0.96392 0.0
C757 C 0.62335 0.89577 0.96277 0.0
C758 C 0.65757 0.92045 0.97403 0.0
C759 C 0.65908 0.95315 0.98682 0.0
C760 C 0.62617 0.96087 0.98821 0.0
C761 C 0.59261 0.93739 0.97703 0.0
C762 C 0.56072 0.9509 0.98371 0.0
C763 C 0.54307 0.95583 0.94998 0.0
C764 C 0.53134 0.92705 1.00762 0.0
C765 C 0.58144 0.98529 1.00117 0.0
C766 C 0.61924 0.99084 1.00314 0.0
C767 C 0.64372 1.02018 1.01958 0.0
C768 C 0.62907 0.04422 0.03482 0.0
C769 C 0.59026 0.03854 0.03377 0.0
C770 C 0.5664 1.0089 1.01623 0.0
H771 H 0.82622 0.16914 0.57601 0.0
H772 H 0.85971 0.19435 0.47063 0.0
H773 H 0.90933 0.16892 0.47639 0.0
H774 H 0.91852 0.19577 0.60762 0.0
H775 H 0.90814 0.16305 0.63951 0.0
H776 H 0.87224 0.17896 0.62562 0.0
H777 H 0.83008 0.11637 0.60952 0.0
H778 H 0.8659 0.10024 0.62334 0.0
H779 H 0.84755 0.09042 0.58055 0.0
H780 H 0.95658 0.14157 0.49446 0.0
H781 H 1.0003 0.11938 0.52477 0.0
H782 H 0.94009 0.11981 0.61957 0.0
C783 C 0.84397 0.16964 0.55404 0.0
C784 C 0.83866 0.18373 0.52279 0.0
C785 C 0.8624 0.18305 0.49466 0.0
C786 C 0.89092 0.16886 0.49773 0.0
C787 C 0.89569 0.15588 0.52918 0.0
C788 C 0.87306 0.15652 0.5569 0.0
C789 C 0.88567 0.14365 0.58869 0.0
C790 C 0.89681 0.17206 0.61702 0.0
C791 C 0.8555 0.11071 0.60125 0.0
C792 C 0.91921 0.13593 0.57464 0.0
C793 C 0.92417 0.14245 0.54011 0.0
C794 C 0.95308 0.13659 0.52153 0.0
C795 C 0.97773 0.12405 0.53887 0.0
C796 C 0.97366 0.11842 0.57443 0.0
C797 C 0.944 0.12432 0.5924 0.0
H798 H 0.315 0.70849 0.19865 0.0
H799 H 0.28579 0.79206 0.24754 0.0
H800 H 0.22223 0.76753 0.22408 0.0
H801 H 0.26609 0.70435 0.12213 0.0
H802 H 0.24985 0.65794 0.11661 0.0
H803 H 0.29227 0.67963 0.13982 0.0
H804 H 0.26594 0.64178 0.19217 0.0
H805 H 0.2235 0.61977 0.16899 0.0
H806 H 0.22153 0.64021 0.21006 0.0
H807 H 0.16466 0.73839 0.19128 0.0
H808 H 0.11389 0.70377 0.15341 0.0
H809 H 0.17727 0.63662 0.12589 0.0
C810 C 0.29487 0.72105 0.20509 0.0
C811 C 0.30544 0.75231 0.22495 0.0
C812 C 0.27847 0.76831 0.23224 0.0
C813 C 0.24223 0.7545 0.2191 0.0
C814 C 0.233 0.72437 0.19883 0.0
C815 C 0.25823 0.70747 0.1921 0.0
C816 C 0.24114 0.67627 0.16814 0.0
C817 C 0.26369 0.67978 0.1347 0.0
C818 C 0.23783 0.64251 0.18591 0.0
C819 C 0.20283 0.67894 0.16189 0.0
C820 C 0.19894 0.70692 0.18002 0.0
C821 C 0.16717 0.71617 0.17727 0.0
C822 C 0.13854 0.69641 0.15544 0.0
C823 C 0.14148 0.66745 0.13658 0.0
C824 C 0.17401 0.6584 0.1402 0.0
H825 H 0.29689 0.44025 0.67223 0.0
H826 H 0.28769 0.52636 0.73519 0.0
H827 H 0.34586 0.56412 0.71004 0.0
H828 H 0.39394 0.46198 0.67089 0.0
H829 H 0.39689 0.45061 0.62633 0.0
H830 H 0.35515 0.42934 0.65036 0.0
H831 H 0.31554 0.44751 0.60634 0.0
H832 H 0.35711 0.46856 0.58193 0.0
H833 H 0.32757 0.49251 0.59631 0.0
H834 H 0.40978 0.59153 0.68198 0.0
H835 H 0.46685 0.60826 0.64601 0.0
H836 H 0.4273 0.50848 0.59324 0.0
C837 C 0.3059 0.46704 0.68065 0.0
C838 C 0.28684 0.47926 0.70697 0.0
C839 C 0.30159 0.51504 0.71651 0.0
C840 C 0.33477 0.53717 0.70196 0.0
C841 C 0.35272 0.52389 0.67673 0.0
C842 C 0.33814 0.48989 0.66542 0.0
C843 C 0.36176 0.48242 0.63661 0.0
C844 C 0.37788 0.45443 0.64667 0.0
C845 C 0.33914 0.47215 0.60332 0.0
C846 C 0.39229 0.51741 0.63387 0.0
C847 C 0.387 0.54081 0.65779 0.0
C848 C 0.41348 0.57377 0.66243 0.0
C849 C 0.44577 0.58315 0.64181 0.0
C850 C 0.45076 0.56029 0.61594 0.0
C851 C 0.42358 0.52696 0.61202 0.0
H852 H 0.80701 0.81116 0.92294 0.0
H853 H 0.705 0.72655 0.94415 0.0
H854 H 0.74157 0.69725 0.97545 0.0
H855 H 0.86527 0.76014 0.90798 0.0
H856 H 0.90559 0.79144 0.92785 0.0
H857 H 0.87098 0.8055 0.90804 0.0
H858 H 0.86295 0.83649 0.96485 0.0
H859 H 0.89743 0.82238 0.98489 0.0
H860 H 0.85155 0.81227 1.00354 0.0
H861 H 0.79052 0.67658 1.00258 0.0
H862 H 0.847 0.66709 1.02439 0.0
H863 H 0.91579 0.76593 0.98491 0.0
C864 C 0.79234 0.78632 0.93393 0.0
C865 C 0.75326 0.77088 0.93088 0.0
C866 C 0.73497 0.73877 0.94628 0.0
C867 C 0.7555 0.72197 0.96399 0.0
C868 C 0.79414 0.73787 0.96624 0.0
C869 C 0.81226 0.76942 0.95172 0.0
C870 C 0.8539 0.78118 0.95752 0.0
C871 C 0.87517 0.78476 0.92332 0.0
C872 C 0.86722 0.81509 0.97898 0.0
C873 C 0.85659 0.75119 0.97738 0.0
C874 C 0.82191 0.72639 0.9822 0.0
C875 C 0.81777 0.69593 0.9991 0.0
C876 C 0.84995 0.6907 1.01127 0.0
C877 C 0.88568 0.71591 1.00656 0.0
C878 C 0.8888 0.74651 0.98949 0.0
H879 H 0.46797 0.85995 0.20884 0.0
H880 H 0.36621 0.8736 0.24711 0.0
H881 H 0.38716 0.93284 0.22555 0.0
H882 H 0.52937 0.9495 0.22914 0.0
H883 H 0.55752 0.95176 0.19127 0.0
H884 H 0.53525 0.9108 0.21104 0.0
H885 H 0.50347 0.88525 0.15346 0.0
H886 H 0.52525 0.92624 0.13363 0.0
H887 H 0.47521 0.90607 0.1325 0.0
H888 H 0.41652 0.98925 0.19538 0.0
H889 H 0.45586 0.04091 0.16468 0.0
H890 H 0.54019 0.99274 0.14855 0.0
C891 C 0.45049 0.87566 0.21337 0.0
C892 C 0.41516 0.86174 0.22948 0.0
C893 C 0.39308 0.88328 0.23443 0.0
C894 C 0.40477 0.91709 0.22229 0.0
C895 C 0.439 0.92958 0.2055 0.0
C896 C 0.46191 0.9098 0.20154 0.0
C897 C 0.49732 0.92958 0.18229 0.0
C898 C 0.53191 0.93578 0.20478 0.0
C899 C 0.50048 0.91065 0.14847 0.0
C900 C 0.49048 0.96326 0.17582 0.0
C901 C 0.45652 0.96262 0.18919 0.0
C902 C 0.44341 0.9902 0.1852 0.0
C903 C 0.46584 1.0194 0.16759 0.0
C904 C 0.5012 1.02104 0.15449 0.0
C905 C 0.51344 0.99243 0.15862 0.0
H906 H 0.17828 0.36755 0.66463 0.0
H907 H 0.19835 0.3425 0.76805 0.0
H908 H 0.17541 0.28069 0.75215 0.0
H909 H 0.09293 0.29457 0.65135 0.0
H910 H 0.1025 0.28685 0.60715 0.0
H911 H 0.12115 0.32982 0.62588 0.0
H912 H 0.18782 0.33266 0.60809 0.0
H913 H 0.16936 0.28965 0.58937 0.0
H914 H 0.20529 0.29941 0.62146 0.0
H915 H 0.15068 0.22221 0.72667 0.0
H916 H 0.12323 0.1686 0.69303 0.0
H917 H 0.11722 0.22795 0.60446 0.0
C918 C 0.17786 0.34898 0.68382 0.0
C919 C 0.18971 0.3601 0.71785 0.0
C920 C 0.18873 0.33486 0.74212 0.0
C921 C 0.176 0.29957 0.73326 0.0
C922 C 0.16424 0.28946 0.69986 0.0
C923 C 0.16486 0.31319 0.6754 0.0
C924 C 0.14975 0.29457 0.64151 0.0
C925 C 0.11449 0.30189 0.63085 0.0
C926 C 0.17985 0.30468 0.61345 0.0
C927 C 0.14057 0.25683 0.651 0.0
C928 C 0.14946 0.25487 0.68484 0.0
C929 C 0.14357 0.22337 0.70014 0.0
C930 C 0.12783 0.19291 0.68063 0.0
C931 C 0.11782 0.19366 0.64589 0.0
C932 C 0.12463 0.22631 0.63083 0.0
H933 H 0.68974 0.31638 0.62119 0.0
H934 H 0.7977 0.35876 0.57197 0.0
H935 H 0.78258 0.41046 0.55662 0.0
H936 H 0.63989 0.33902 0.55933 0.0
H937 H 0.60736 0.34941 0.58781 0.0
H938 H 0.62889 0.31885 0.60025 0.0
H939 H 0.65404 0.35523 0.65557 0.0
H940 H 0.63212 0.38576 0.64351 0.0
H941 H 0.6814 0.40042 0.65255 0.0
H942 H 0.7532 0.45422 0.54156 0.0
H943 H 0.71126 0.48644 0.52709 0.0
H944 H 0.62189 0.4143 0.58468 0.0
C945 C 0.71061 0.33715 0.60822 0.0
C946 C 0.74501 0.33404 0.59808 0.0
C947 C 0.77128 0.361 0.58008 0.0
C948 C 0.76299 0.39041 0.57139 0.0
C949 C 0.72831 0.39229 0.58089 0.0
C950 C 0.70259 0.36644 0.59904 0.0
C951 C 0.66595 0.37296 0.60306 0.0
C952 C 0.63364 0.3433 0.58662 0.0
C953 C 0.65792 0.37896 0.64093 0.0
C954 C 0.67464 0.40584 0.58334 0.0
C955 C 0.71095 0.41695 0.5713 0.0
C956 C 0.72486 0.44602 0.55121 0.0
C957 C 0.70091 0.46411 0.54312 0.0
C958 C 0.66344 0.45268 0.5547 0.0
C959 C 0.65037 0.42339 0.57531 0.0
loop_
_geom_bond_atom_site_label_1
_geom_bond_atom_site_label_2
_geom_bond_distance
_geom_bond_site_symmetry_2
_ccdc_geom_bond_type
H0 C1 0.949 . S
C1 H0 0.949 . S
C1 C2 1.395 . S
C1 C3 1.391 . S
C2 C1 1.395 . S
C2 C5 1.390 . S
C3 C1 1.391 . S
C3 C7 1.387 . S
C3 C8 1.491 . S
H4 C5 0.950 . S
C5 C2 1.390 . S
C5 H4 0.950 . S
C5 C6 1.378 . S
C6 C5 1.378 . S
C6 C7 1.409 . S
C7 C3 1.387 . S
C7 C6 1.409 . S
C7 H9 0.951 . S
C8 C3 1.491 . S
C8 C10 1.382 . S
C8 C12 1.404 . S
H9 C7 0.951 . S
C10 C8 1.382 . S
C10 C11 1.390 . S
C10 H15 0.949 . S
C11 C10 1.390 . S
C11 C16 1.399 . S
C12 C8 1.404 . S
C12 H13 0.950 . S
C12 C14 1.375 . S
H13 C12 0.950 . S
C14 C12 1.375 . S
C14 C16 1.382 . S
C14 H18 0.950 . S
H15 C10 0.949 . S
C16 C11 1.399 . S
C16 C14 1.382 . S
C16 H17 0.952 . S
H17 C16 0.952 . S
H18 C14 0.950 . S
H19 C20 0.949 . S
C20 H19 0.949 . S
C20 C21 1.395 . S
C20 C22 1.391 . S
C21 C20 1.395 . S
C21 C24 1.390 . S
C22 C20 1.391 . S
C22 C26 1.387 . S
C22 C27 1.491 . S
H23 C24 0.950 . S
C24 C21 1.390 . S
C24 H23 0.950 . S
C24 C25 1.378 . S
C25 C24 1.378 . S
C25 C26 1.409 . S
C26 C22 1.387 . S
C26 C25 1.409 . S
C26 H28 0.951 . S
C27 C22 1.491 . S
C27 C29 1.382 . S
C27 C31 1.404 . S
H28 C26 0.951 . S
C29 C27 1.382 . S
C29 C30 1.390 . S
C29 H34 0.949 . S
C30 C29 1.390 . S
C30 C35 1.399 . S
C31 C27 1.404 . S
C31 H32 0.950 . S
C31 C33 1.375 . S
H32 C31 0.950 . S
C33 C31 1.375 . S
C33 C35 1.382 . S
C33 H37 0.950 . S
H34 C29 0.949 . S
C35 C30 1.399 . S
C35 C33 1.382 . S
C35 H36 0.952 . S
H36 C35 0.952 . S
H37 C33 0.950 . S
H38 C39 0.949 . S
C39 H38 0.949 . S
C39 C40 1.395 . S
C39 C41 1.391 . S
C40 C39 1.395 . S
C40 C43 1.390 . S
C41 C39 1.391 . S
C41 C45 1.387 . S
C41 C46 1.491 . S
H42 C43 0.950 . S
C43 C40 1.390 . S
C43 H42 0.950 . S
C43 C44 1.378 . S
C44 C43 1.378 . S
C44 C45 1.409 . S
C45 C41 1.387 . S
C45 C44 1.409 . S
C45 H47 0.951 . S
C46 C41 1.491 . S
C46 C48 1.382 . S
C46 C50 1.404 . S
H47 C45 0.951 . S
C48 C46 1.382 . S
C48 C49 1.390 . S
C48 H53 0.949 . S
C49 C48 1.390 . S
C49 C54 1.399 . S
C50 C46 1.404 . S
C50 H51 0.950 . S
C50 C52 1.375 . S
H51 C50 0.950 . S
C52 C50 1.375 . S
C52 C54 1.382 . S
C52 H56 0.950 . S
H53 C48 0.949 . S
C54 C49 1.399 . S
C54 C52 1.382 . S
C54 H55 0.952 . S
H55 C54 0.952 . S
H56 C52 0.950 . S
H57 C58 0.949 . S
C58 H57 0.949 . S
C58 C59 1.395 . S
C58 C60 1.391 . S
C59 C58 1.395 . S
C59 C62 1.390 . S
C60 C58 1.391 . S
C60 C64 1.387 . S
C60 C65 1.491 . S
H61 C62 0.950 . S
C62 C59 1.390 . S
C62 H61 0.950 . S
C62 C63 1.378 . S
C63 C62 1.378 . S
C63 C64 1.409 . S
C64 C60 1.387 . S
C64 C63 1.409 . S
C64 H66 0.951 . S
C65 C60 1.491 . S
C65 C67 1.382 . S
C65 C69 1.404 . S
H66 C64 0.951 . S
C67 C65 1.382 . S
C67 C68 1.390 . S
C67 H72 0.949 . S
C68 C67 1.390 . S
C68 C73 1.399 . S
C69 C65 1.404 . S
C69 H70 0.950 . S
C69 C71 1.375 . S
H70 C69 0.950 . S
C71 C69 1.375 . S
C71 C73 1.382 . S
C71 H75 0.950 . S
H72 C67 0.949 . S
C73 C68 1.399 . S
C73 C71 1.382 . S
C73 H74 0.952 . S
H74 C73 0.952 . S
H75 C71 0.950 . S
H76 C77 0.949 . S
C77 H76 0.949 . S
C77 C78 1.395 . S
C77 C79 1.391 . S
C78 C77 1.395 . S
C78 C81 1.390 . S
C79 C77 1.391 . S
C79 C83 1.387 . S
C79 C84 1.491 . S
H80 C81 0.950 . S
C81 C78 1.390 . S
C81 H80 0.950 . S
C81 C82 1.378 . S
C82 C81 1.378 . S
C82 C83 1.409 . S
C83 C79 1.387 . S
C83 C82 1.409 . S
C83 H85 0.951 . S
C84 C79 1.491 . S
C84 C86 1.382 . S
C84 C88 1.404 . S
H85 C83 0.951 . S
C86 C84 1.382 . S
C86 C87 1.390 . S
C86 H91 0.949 . S
C87 C86 1.390 . S
C87 C92 1.399 . S
C88 C84 1.404 . S
C88 H89 0.950 . S
C88 C90 1.375 . S
H89 C88 0.950 . S
C90 C88 1.375 . S
C90 C92 1.382 . S
C90 H94 0.950 . S
H91 C86 0.949 . S
C92 C87 1.399 . S
C92 C90 1.382 . S
C92 H93 0.952 . S
H93 C92 0.952 . S
H94 C90 0.950 . S
H95 C96 0.949 . S
C96 H95 0.949 . S
C96 C97 1.395 . S
C96 C98 1.391 . S
C97 C96 1.395 . S
C97 C100 1.390 . S
C98 C96 1.391 . S
C98 C102 1.387 . S
C98 C103 1.491 . S
H99 C100 0.950 . S
C100 C97 1.390 . S
C100 H99 0.950 . S
C100 C101 1.378 . S
C101 C100 1.378 . S
C101 C102 1.409 . S
C102 C98 1.387 . S
C102 C101 1.409 . S
C102 H104 0.951 . S
C103 C98 1.491 . S
C103 C105 1.382 . S
C103 C107 1.404 . S
H104 C102 0.951 . S
C105 C103 1.382 . S
C105 C106 1.390 . S
C105 H110 0.949 . S
C106 C105 1.390 . S
C106 C111 1.399 . S
C107 C103 1.404 . S
C107 H108 0.950 . S
C107 C109 1.375 . S
H108 C107 0.950 . S
C109 C107 1.375 . S
C109 C111 1.382 . S
C109 H113 0.950 . S
H110 C105 0.949 . S
C111 C106 1.399 . S
C111 C109 1.382 . S
C111 H112 0.952 . S
H112 C111 0.952 . S
H113 C109 0.950 . S
H114 C115 0.949 . S
C115 H114 0.949 . S
C115 C116 1.395 . S
C115 C117 1.391 . S
C116 C115 1.395 . S
C116 C119 1.390 . S
C117 C115 1.391 . S
C117 C121 1.387 . S
C117 C122 1.491 . S
H118 C119 0.950 . S
C119 C116 1.390 . S
C119 H118 0.950 . S
C119 C120 1.378 . S
C120 C119 1.378 . S
C120 C121 1.409 . S
C121 C117 1.387 . S
C121 C120 1.409 . S
C121 H123 0.951 . S
C122 C117 1.491 . S
C122 C124 1.382 . S
C122 C126 1.404 . S
H123 C121 0.951 . S
C124 C122 1.382 . S
C124 C125 1.390 . S
C124 H129 0.949 . S
C125 C124 1.390 . S
C125 C130 1.399 . S
C126 C122 1.404 . S
C126 H127 0.950 . S
C126 C128 1.375 . S
H127 C126 0.950 . S
C128 C126 1.375 . S
C128 C130 1.382 . S
C128 H132 0.950 . S
H129 C124 0.949 . S
C130 C125 1.399 . S
C130 C128 1.382 . S
C130 H131 0.952 . S
H131 C130 0.952 . S
H132 C128 0.950 . S
H133 C134 0.949 . S
C134 H133 0.949 . S
C134 C135 1.395 . S
C134 C136 1.391 . S
C135 C134 1.395 . S
C135 C138 1.390 . S
C136 C134 1.391 . S
C136 C140 1.387 . S
C136 C141 1.491 . S
H137 C138 0.950 . S
C138 C135 1.390 . S
C138 H137 0.950 . S
C138 C139 1.378 . S
C139 C138 1.378 . S
C139 C140 1.409 . S
C140 C136 1.387 . S
C140 C139 1.409 . S
C140 H142 0.951 . S
C141 C136 1.491 . S
C141 C143 1.382 . S
C141 C145 1.404 . S
H142 C140 0.951 . S
C143 C141 1.382 . S
C143 C144 1.390 . S
C143 H148 0.949 . S
C144 C143 1.390 . S
C144 C149 1.399 . S
C145 C141 1.404 . S
C145 H146 0.950 . S
C145 C147 1.375 . S
H146 C145 0.950 . S
C147 C145 1.375 . S
C147 C149 1.382 . S
C147 H151 0.950 . S
H148 C143 0.949 . S
C149 C144 1.399 . S
C149 C147 1.382 . S
C149 H150 0.952 . S
H150 C149 0.952 . S
H151 C147 0.950 . S
Sm152 C154 2.846 . S
Sm152 O172 2.543 . S
Sm152 O173 2.450 . S
Sm152 O174 2.681 . S
Sm152 O175 2.464 . S
Sm152 O176 2.396 . S
Sm152 O180 2.386 1_455 S
Sm152 O183 2.408 1_545 S
Sm153 C163 2.846 1_545 S
Sm153 O174 2.386 1_655 S
Sm153 O177 2.408 1_655 S
Sm153 O178 2.543 1_545 S
Sm153 O179 2.450 1_545 S
Sm153 O180 2.681 . S
Sm153 O181 2.464 . S
Sm153 O182 2.396 1_545 S
C154 Sm152 2.846 . S
C154 C155 1.506 . S
C154 O172 1.261 . S
C154 O173 1.242 . S
C155 C154 1.506 . S
C155 C156 1.358 . S
C155 C160 1.382 . S
C156 C155 1.358 . S
C156 C157 1.385 . S
C156 H184 0.930 . S
C157 C156 1.385 . S
C157 C158 1.395 . S
C157 H185 0.929 . S
C158 C157 1.395 . S
C158 C159 1.335 . S
C159 C158 1.335 . S
C159 C160 1.398 . S
C159 H186 0.930 . S
C160 C155 1.382 . S
C160 C159 1.398 . S
C160 H187 0.929 . S
C161 O174 1.271 . S
C161 O175 1.251 . S
C162 O176 1.252 . S
C162 O177 1.272 . S
C163 Sm153 2.846 1_565 S
C163 C164 1.506 . S
C163 O178 1.261 . S
C163 O179 1.242 . S
C164 C163 1.506 . S
C164 C165 1.358 . S
C164 C169 1.382 . S
C165 C164 1.358 . S
C165 C166 1.385 . S
C165 H188 0.930 . S
C166 C165 1.385 . S
C166 C167 1.395 . S
C166 H189 0.929 . S
C167 C166 1.395 . S
C167 C168 1.335 . S
C168 C167 1.335 . S
C168 C169 1.398 . S
C168 H190 0.930 . S
C169 C164 1.382 . S
C169 C168 1.398 . S
C169 H191 0.929 . S
C170 O180 1.271 . S
C170 O181 1.251 . S
C171 O182 1.252 . S
C171 O183 1.272 1_655 S
O172 Sm152 2.543 . S
O172 C154 1.261 . S
O173 Sm152 2.450 . S
O173 C154 1.242 . S
O174 Sm152 2.681 . S
O174 Sm153 2.386 1_455 S
O174 C161 1.271 . S
O175 Sm152 2.464 . S
O175 C161 1.251 . S
O176 Sm152 2.396 . S
O176 C162 1.252 . S
O177 Sm153 2.408 1_455 S
O177 C162 1.272 . S
O178 Sm153 2.543 1_565 S
O178 C163 1.261 . S
O179 Sm153 2.450 1_565 S
O179 C163 1.242 . S
O180 Sm152 2.386 1_655 S
O180 Sm153 2.681 . S
O180 C170 1.271 . S
O181 Sm153 2.464 . S
O181 C170 1.251 . S
O182 Sm153 2.396 1_565 S
O182 C171 1.252 . S
O183 Sm152 2.408 1_565 S
O183 C171 1.272 1_455 S
H184 C156 0.930 . S
H185 C157 0.929 . S
H186 C159 0.930 . S
H187 C160 0.929 . S
H188 C165 0.930 . S
H189 C166 0.929 . S
H190 C168 0.930 . S
H191 C169 0.929 . S
Sm192 C194 2.846 . S
Sm192 O212 2.543 . S
Sm192 O213 2.450 . S
Sm192 O214 2.673 1_545 S
Sm192 O215 2.464 1_545 S
Sm192 O216 2.396 . S
Sm192 O220 2.386 . S
Sm192 O223 2.408 . S
Sm193 C203 2.846 1_544 S
Sm193 O214 2.367 1_545 S
Sm193 O217 2.408 . S
Sm193 O218 2.543 1_545 S
Sm193 O219 2.450 1_554 S
Sm193 O220 2.681 . S
Sm193 O221 2.464 . S
Sm193 O222 2.396 . S
C194 Sm192 2.846 . S
C194 C195 1.506 . S
C194 O212 1.261 . S
C194 O213 1.242 . S
C195 C194 1.506 . S
C195 C196 1.358 . S
C195 C200 1.382 . S
C196 C195 1.358 . S
C196 C197 1.385 . S
C196 H224 0.930 . S
C197 C196 1.385 . S
C197 C198 1.395 . S
C197 H225 0.929 . S
C198 C197 1.395 . S
C198 C199 1.335 . S
C199 C198 1.335 . S
C199 C200 1.398 . S
C199 H226 0.930 . S
C200 C195 1.382 . S
C200 C199 1.398 . S
C200 H227 0.929 . S
C201 O214 1.289 . S
C201 O215 1.251 . S
C202 O216 1.252 . S
C202 O217 1.272 . S
C203 Sm193 2.846 1_566 S
C203 C204 1.506 . S
C203 O218 1.261 1_556 S
C203 O219 1.242 1_565 S
C204 C203 1.506 . S
C204 C205 1.358 . S
C204 C209 1.382 . S
C205 C204 1.358 . S
C205 C206 1.385 . S
C205 H228 0.930 . S
C206 C205 1.385 . S
C206 C207 1.395 . S
C206 H229 0.929 . S
C207 C206 1.395 . S
C207 C208 1.335 . S
C208 C207 1.335 . S
C208 C209 1.398 . S
C208 H230 0.930 . S
C209 C204 1.382 . S
C209 C208 1.398 . S
C209 H231 0.929 1_565 S
C210 O220 1.271 . S
C210 O221 1.251 . S
C211 O222 1.252 1_565 S
C211 O223 1.272 1_565 S
O212 Sm192 2.543 . S
O212 C194 1.261 . S
O213 Sm192 2.450 . S
O213 C194 1.242 . S
O214 Sm192 2.673 1_565 S
O214 Sm193 2.367 1_565 S
O214 C201 1.289 . S
O215 Sm192 2.464 1_565 S
O215 C201 1.251 . S
O216 Sm192 2.396 . S
O216 C202 1.252 . S
O217 Sm193 2.408 . S
O217 C202 1.272 . S
O218 Sm193 2.543 1_565 S
O218 C203 1.261 1_554 S
O219 Sm193 2.450 1_556 S
O219 C203 1.242 1_545 S
O220 Sm192 2.386 . S
O220 Sm193 2.681 . S
O220 C210 1.271 . S
O221 Sm193 2.464 . S
O221 C210 1.251 . S
O222 Sm193 2.396 . S
O222 C211 1.252 1_545 S
O223 Sm192 2.408 . S
O223 C211 1.272 1_545 S
H224 C196 0.930 . S
H225 C197 0.929 . S
H226 C199 0.930 . S
H227 C200 0.929 . S
H228 C205 0.930 . S
H229 C206 0.929 . S
H230 C208 0.930 . S
H231 C209 0.929 1_545 S
Sm232 C234 2.846 . S
Sm232 O252 2.543 . S
Sm232 O253 2.450 . S
Sm232 O254 2.681 . S
Sm232 O255 2.464 . S
Sm232 O256 2.396 . S
Sm232 O260 2.386 . S
Sm232 O263 2.408 . S
Sm233 C243 2.846 . S
Sm233 O254 2.386 . S
Sm233 O257 2.408 . S
Sm233 O258 2.543 . S
Sm233 O259 2.450 . S
Sm233 O260 2.681 . S
Sm233 O261 2.464 . S
Sm233 O262 2.396 . S
C234 Sm232 2.846 . S
C234 C235 1.506 . S
C234 O252 1.261 . S
C234 O253 1.242 . S
C235 C234 1.506 . S
C235 C236 1.358 . S
C235 C240 1.382 . S
C236 C235 1.358 . S
C236 C237 1.385 . S
C236 H264 0.930 . S
C237 C236 1.385 . S
C237 C238 1.395 . S
C237 H265 0.929 . S
C238 C237 1.395 . S
C238 C239 1.335 . S
C239 C238 1.335 . S
C239 C240 1.398 . S
C239 H266 0.930 . S
C240 C235 1.382 . S
C240 C239 1.398 . S
C240 H267 0.929 . S
C241 O254 1.271 . S
C241 O255 1.251 . S
C242 O256 1.252 . S
C242 O257 1.272 . S
C243 Sm233 2.846 . S
C243 C244 1.506 . S
C243 O258 1.261 . S
C243 O259 1.242 . S
C244 C243 1.506 . S
C244 C245 1.358 . S
C244 C249 1.382 . S
C245 C244 1.358 . S
C245 C246 1.385 . S
C245 H268 0.930 . S
C246 C245 1.385 . S
C246 C247 1.395 . S
C246 H269 0.929 . S
C247 C246 1.395 . S
C247 C248 1.335 . S
C248 C247 1.335 . S
C248 C249 1.398 . S
C248 H270 0.930 . S
C249 C244 1.382 . S
C249 C248 1.398 . S
C249 H271 0.929 . S
C250 O260 1.271 . S
C250 O261 1.251 . S
C251 O262 1.252 . S
C251 O263 1.272 . S
O252 Sm232 2.543 . S
O252 C234 1.261 . S
O253 Sm232 2.450 . S
O253 C234 1.242 . S
O254 Sm232 2.681 . S
O254 Sm233 2.386 . S
O254 C241 1.271 . S
O255 Sm232 2.464 . S
O255 C241 1.251 . S
O256 Sm232 2.396 . S
O256 C242 1.252 . S
O257 Sm233 2.408 . S
O257 C242 1.272 . S
O258 Sm233 2.543 . S
O258 C243 1.261 . S
O259 Sm233 2.450 . S
O259 C243 1.242 . S
O260 Sm232 2.386 . S
O260 Sm233 2.681 . S
O260 C250 1.271 . S
O261 Sm233 2.464 . S
O261 C250 1.251 . S
O262 Sm233 2.396 . S
O262 C251 1.252 . S
O263 Sm232 2.408 . S
O263 C251 1.272 . S
H264 C236 0.930 . S
H265 C237 0.929 . S
H266 C239 0.930 . S
H267 C240 0.929 . S
H268 C245 0.930 . S
H269 C246 0.929 . S
H270 C248 0.930 . S
H271 C249 0.929 . S
Sm272 C274 2.846 . S
Sm272 O292 2.543 . S
Sm272 O293 2.450 . S
Sm272 O294 2.681 . S
Sm272 O295 2.464 . S
Sm272 O296 2.396 . S
Sm272 O300 2.386 1_554 S
Sm272 O303 2.408 1_455 S
Sm273 C283 2.863 1_455 S
Sm273 O294 2.357 1_556 S
Sm273 O297 2.389 1_556 S
Sm273 O298 2.545 1_455 S
Sm273 O299 2.477 . S
Sm273 O300 2.681 . S
Sm273 O301 2.489 . S
Sm273 O302 2.406 1_455 S
C274 Sm272 2.846 . S
C274 C275 1.506 . S
C274 O292 1.261 . S
C274 O293 1.242 . S
C275 C274 1.506 . S
C275 C276 1.358 . S
C275 C280 1.382 . S
C276 C275 1.358 . S
C276 C277 1.385 . S
C276 H304 0.930 . S
C277 C276 1.385 . S
C277 C278 1.395 . S
C277 H305 0.929 . S
C278 C277 1.395 . S
C278 C279 1.335 . S
C279 C278 1.335 . S
C279 C280 1.398 . S
C279 H306 0.930 . S
C280 C275 1.382 . S
C280 C279 1.398 . S
C280 H307 0.929 . S
C281 O294 1.271 . S
C281 O295 1.251 . S
C282 O296 1.252 . S
C282 O297 1.272 . S
C283 Sm273 2.863 1_655 S
C283 C284 1.506 . S
C283 O298 1.261 . S
C283 O299 1.242 1_655 S
C284 C283 1.506 . S
C284 C285 1.358 . S
C284 C289 1.382 . S
C285 C284 1.358 . S
C285 C286 1.385 . S
C285 H308 0.930 . S
C286 C285 1.385 . S
C286 C287 1.395 . S
C286 H309 0.929 . S
C287 C286 1.395 . S
C287 C288 1.335 . S
C288 C287 1.335 . S
C288 C289 1.398 . S
C288 H310 0.930 . S
C289 C284 1.382 . S
C289 C288 1.398 . S
C289 H311 0.929 . S
C290 O300 1.271 . S
C290 O301 1.251 . S
C291 O302 1.252 . S
C291 O303 1.272 1_556 S
O292 Sm272 2.543 . S
O292 C274 1.261 . S
O293 Sm272 2.450 . S
O293 C274 1.242 . S
O294 Sm272 2.681 . S
O294 Sm273 2.357 1_554 S
O294 C281 1.271 . S
O295 Sm272 2.464 . S
O295 C281 1.251 . S
O296 Sm272 2.396 . S
O296 C282 1.252 . S
O297 Sm273 2.389 1_554 S
O297 C282 1.272 . S
O298 Sm273 2.545 1_655 S
O298 C283 1.261 . S
O299 Sm273 2.477 . S
O299 C283 1.242 1_455 S
O300 Sm272 2.386 1_556 S
O300 Sm273 2.681 . S
O300 C290 1.271 . S
O301 Sm273 2.489 . S
O301 C290 1.251 . S
O302 Sm273 2.406 1_655 S
O302 C291 1.252 . S
O303 Sm272 2.408 1_655 S
O303 C291 1.272 1_554 S
H304 C276 0.930 . S
H305 C277 0.929 . S
H306 C279 0.930 . S
H307 C280 0.929 . S
H308 C285 0.930 . S
H309 C286 0.929 . S
H310 C288 0.930 . S
H311 C289 0.929 . S
H312 C324 0.930 . S
H313 C326 0.930 . S
H314 C327 0.930 . S
H315 C331 0.959 . S
H316 C331 0.959 . S
H317 C331 0.961 . S
H318 C332 0.960 . S
H319 C332 0.961 . S
H320 C332 0.959 . S
H321 C335 0.929 . S
H322 C336 0.931 . S
H323 C338 0.930 . S
C324 H312 0.930 . S
C324 C325 1.399 . S
C324 C329 1.399 . S
C325 C324 1.399 . S
C325 C326 1.376 . S
C326 H313 0.930 . S
C326 C325 1.376 . S
C326 C327 1.388 . S
C327 H314 0.930 . S
C327 C326 1.388 . S
C327 C328 1.390 . S
C328 C327 1.390 . S
C328 C329 1.394 . S
C328 C334 1.465 . S
C329 C324 1.399 . S
C329 C328 1.394 . S
C329 C330 1.516 . S
C330 C329 1.516 . S
C330 C331 1.502 . S
C330 C332 1.561 . S
C330 C333 1.526 . S
C331 H315 0.959 . S
C331 H316 0.959 . S
C331 H317 0.961 . S
C331 C330 1.502 . S
C332 H318 0.960 . S
C332 H319 0.961 . S
C332 H320 0.959 . S
C332 C330 1.561 . S
C333 C330 1.526 . S
C333 C334 1.396 . S
C333 C338 1.390 . S
C334 C328 1.465 . S
C334 C333 1.396 . S
C334 C335 1.399 . S
C335 H321 0.929 . S
C335 C334 1.399 . S
C335 C336 1.385 . S
C336 H322 0.931 . S
C336 C335 1.385 . S
C336 C337 1.389 . S
C337 C336 1.389 . S
C337 C338 1.387 . S
C338 H323 0.930 . S
C338 C333 1.390 . S
C338 C337 1.387 . S
H339 C351 0.930 . S
H340 C353 0.930 . S
H341 C354 0.930 . S
H342 C358 0.959 . S
H343 C358 0.959 . S
H344 C358 0.961 . S
H345 C359 0.960 . S
H346 C359 0.961 . S
H347 C359 0.959 . S
H348 C362 0.929 . S
H349 C363 0.931 . S
H350 C365 0.930 . S
C351 H339 0.930 . S
C351 C352 1.399 . S
C351 C356 1.399 . S
C352 C351 1.399 . S
C352 C353 1.376 . S
C353 H340 0.930 . S
C353 C352 1.376 . S
C353 C354 1.388 . S
C354 H341 0.930 . S
C354 C353 1.388 . S
C354 C355 1.390 . S
C355 C354 1.390 . S
C355 C356 1.394 . S
C355 C361 1.465 . S
C356 C351 1.399 . S
C356 C355 1.394 . S
C356 C357 1.516 . S
C357 C356 1.516 . S
C357 C358 1.502 . S
C357 C359 1.561 . S
C357 C360 1.526 . S
C358 H342 0.959 . S
C358 H343 0.959 . S
C358 H344 0.961 . S
C358 C357 1.502 . S
C359 H345 0.960 . S
C359 H346 0.961 . S
C359 H347 0.959 . S
C359 C357 1.561 . S
C360 C357 1.526 . S
C360 C361 1.396 . S
C360 C365 1.390 . S
C361 C355 1.465 . S
C361 C360 1.396 . S
C361 C362 1.399 . S
C362 H348 0.929 . S
C362 C361 1.399 . S
C362 C363 1.385 . S
C363 H349 0.931 . S
C363 C362 1.385 . S
C363 C364 1.389 . S
C364 C363 1.389 . S
C364 C365 1.387 . S
C365 H350 0.930 . S
C365 C360 1.390 . S
C365 C364 1.387 . S
H366 C378 0.930 . S
H367 C380 0.930 . S
H368 C381 0.930 . S
H369 C385 0.959 . S
H370 C385 0.959 . S
H371 C385 0.961 . S
H372 C386 0.960 . S
H373 C386 0.961 . S
H374 C386 0.959 . S
H375 C389 0.929 . S
H376 C390 0.931 . S
H377 C392 0.930 . S
C378 H366 0.930 . S
C378 C379 1.399 . S
C378 C383 1.399 . S
C379 C378 1.399 . S
C379 C380 1.376 . S
C380 H367 0.930 . S
C380 C379 1.376 . S
C380 C381 1.388 . S
C381 H368 0.930 . S
C381 C380 1.388 . S
C381 C382 1.390 . S
C382 C381 1.390 . S
C382 C383 1.394 . S
C382 C388 1.465 . S
C383 C378 1.399 . S
C383 C382 1.394 . S
C383 C384 1.516 . S
C384 C383 1.516 . S
C384 C385 1.502 . S
C384 C386 1.561 . S
C384 C387 1.526 . S
C385 H369 0.959 . S
C385 H370 0.959 . S
C385 H371 0.961 . S
C385 C384 1.502 . S
C386 H372 0.960 . S
C386 H373 0.961 . S
C386 H374 0.959 . S
C386 C384 1.561 . S
C387 C384 1.526 . S
C387 C388 1.396 . S
C387 C392 1.390 . S
C388 C382 1.465 . S
C388 C387 1.396 . S
C388 C389 1.399 . S
C389 H375 0.929 . S
C389 C388 1.399 . S
C389 C390 1.385 . S
C390 H376 0.931 . S
C390 C389 1.385 . S
C390 C391 1.389 . S
C391 C390 1.389 . S
C391 C392 1.387 . S
C392 H377 0.930 . S
C392 C387 1.390 . S
C392 C391 1.387 . S
H393 C405 0.930 . S
H394 C407 0.930 . S
H395 C408 0.930 . S
H396 C412 0.942 1_655 S
H397 C412 0.980 . S
H398 C412 0.960 . S
H399 C413 0.960 . S
H400 C413 0.961 . S
H401 C413 0.959 . S
H402 C416 0.929 . S
H403 C417 0.931 . S
H404 C419 0.930 1_455 S
C405 H393 0.930 . S
C405 C406 1.399 . S
C405 C410 1.399 . S
C406 C405 1.399 . S
C406 C407 1.376 . S
C407 H394 0.930 . S
C407 C406 1.376 . S
C407 C408 1.388 . S
C408 H395 0.930 . S
C408 C407 1.388 . S
C408 C409 1.390 . S
C409 C408 1.390 . S
C409 C410 1.394 . S
C409 C415 1.465 . S
C410 C405 1.399 . S
C410 C409 1.394 . S
C410 C411 1.516 . S
C411 C410 1.516 . S
C411 C412 1.499 1_655 S
C411 C413 1.561 1_655 S
C411 C414 1.526 . S
C412 H396 0.942 1_455 S
C412 H397 0.980 . S
C412 H398 0.960 . S
C412 C411 1.499 1_455 S
C413 H399 0.960 . S
C413 H400 0.961 . S
C413 H401 0.959 . S
C413 C411 1.561 1_455 S
C414 C411 1.526 . S
C414 C415 1.396 . S
C414 C419 1.390 . S
C415 C409 1.465 . S
C415 C414 1.396 . S
C415 C416 1.399 . S
C416 H402 0.929 . S
C416 C415 1.399 . S
C416 C417 1.385 . S
C417 H403 0.931 . S
C417 C416 1.385 . S
C417 C418 1.389 . S
C418 C417 1.389 . S
C418 C419 1.387 . S
C419 H404 0.930 1_655 S
C419 C414 1.390 . S
C419 C418 1.387 . S
H420 C432 0.930 . S
H421 C434 0.930 . S
H422 C435 0.930 . S
H423 C439 0.959 . S
H424 C439 0.959 . S
H425 C439 0.961 . S
H426 C440 0.960 . S
H427 C440 0.961 . S
H428 C440 0.959 . S
H429 C443 0.929 . S
H430 C444 0.931 . S
H431 C446 0.930 . S
C432 H420 0.930 . S
C432 C433 1.399 . S
C432 C437 1.399 . S
C433 C432 1.399 . S
C433 C434 1.376 . S
C434 H421 0.930 . S
C434 C433 1.376 . S
C434 C435 1.388 . S
C435 H422 0.930 . S
C435 C434 1.388 . S
C435 C436 1.390 . S
C436 C435 1.390 . S
C436 C437 1.394 . S
C436 C442 1.465 . S
C437 C432 1.399 . S
C437 C436 1.394 . S
C437 C438 1.516 . S
C438 C437 1.516 . S
C438 C439 1.502 . S
C438 C440 1.561 . S
C438 C441 1.526 . S
C439 H423 0.959 . S
C439 H424 0.959 . S
C439 H425 0.961 . S
C439 C438 1.502 . S
C440 H426 0.960 . S
C440 H427 0.961 . S
C440 H428 0.959 . S
C440 C438 1.561 . S
C441 C438 1.526 . S
C441 C442 1.396 . S
C441 C446 1.390 . S
C442 C436 1.465 . S
C442 C441 1.396 . S
C442 C443 1.399 . S
C443 H429 0.929 . S
C443 C442 1.399 . S
C443 C444 1.385 . S
C444 H430 0.931 . S
C444 C443 1.385 . S
C444 C445 1.389 . S
C445 C444 1.389 . S
C445 C446 1.387 . S
C446 H431 0.930 . S
C446 C441 1.390 . S
C446 C445 1.387 . S
H447 C459 0.930 . S
H448 C461 0.930 . S
H449 C462 0.930 . S
H450 C466 0.959 . S
H451 C466 0.959 . S
H452 C466 0.961 . S
H453 C467 0.960 . S
H454 C467 0.961 . S
H455 C467 0.959 . S
H456 C470 0.929 . S
H457 C471 0.931 . S
H458 C473 0.930 . S
C459 H447 0.930 . S
C459 C460 1.399 . S
C459 C464 1.399 . S
C460 C459 1.399 . S
C460 C461 1.376 . S
C461 H448 0.930 . S
C461 C460 1.376 . S
C461 C462 1.388 . S
C462 H449 0.930 . S
C462 C461 1.388 . S
C462 C463 1.390 . S
C463 C462 1.390 . S
C463 C464 1.394 . S
C463 C469 1.465 . S
C464 C459 1.399 . S
C464 C463 1.394 . S
C464 C465 1.516 . S
C465 C464 1.516 . S
C465 C466 1.502 . S
C465 C467 1.561 . S
C465 C468 1.526 . S
C466 H450 0.959 . S
C466 H451 0.959 . S
C466 H452 0.961 . S
C466 C465 1.502 . S
C467 H453 0.960 . S
C467 H454 0.961 . S
C467 H455 0.959 . S
C467 C465 1.561 . S
C468 C465 1.526 . S
C468 C469 1.396 . S
C468 C473 1.390 . S
C469 C463 1.465 . S
C469 C468 1.396 . S
C469 C470 1.399 1_565 S
C470 H456 0.929 . S
C470 C469 1.399 1_545 S
C470 C471 1.385 . S
C471 H457 0.931 . S
C471 C470 1.385 . S
C471 C472 1.389 . S
C472 C471 1.389 . S
C472 C473 1.387 1_545 S
C473 H458 0.930 . S
C473 C468 1.390 . S
C473 C472 1.387 1_565 S
H474 C486 0.930 . S
H475 C488 0.930 . S
H476 C489 0.930 . S
H477 C493 0.959 . S
H478 C493 0.959 . S
H479 C493 0.961 . S
H480 C494 0.960 . S
H481 C494 0.961 . S
H482 C494 0.959 . S
H483 C497 0.929 . S
H484 C498 0.926 1_554 S
H485 C500 0.930 . S
C486 H474 0.930 . S
C486 C487 1.399 . S
C486 C491 1.399 . S
C487 C486 1.399 . S
C487 C488 1.376 . S
C488 H475 0.930 . S
C488 C487 1.376 . S
C488 C489 1.388 . S
C489 H476 0.930 . S
C489 C488 1.388 . S
C489 C490 1.390 . S
C490 C489 1.390 . S
C490 C491 1.394 . S
C490 C496 1.465 . S
C491 C486 1.399 . S
C491 C490 1.394 . S
C491 C492 1.516 . S
C492 C491 1.516 . S
C492 C493 1.502 . S
C492 C494 1.561 . S
C492 C495 1.526 . S
C493 H477 0.959 . S
C493 H478 0.959 . S
C493 H479 0.961 . S
C493 C492 1.502 . S
C494 H480 0.960 . S
C494 H481 0.961 . S
C494 H482 0.959 . S
C494 C492 1.561 . S
C495 C492 1.526 . S
C495 C496 1.396 . S
C495 C500 1.390 . S
C496 C490 1.465 . S
C496 C495 1.396 . S
C496 C497 1.399 . S
C497 H483 0.929 . S
C497 C496 1.399 . S
C497 C498 1.385 . S
C498 H484 0.926 1_556 S
C498 C497 1.385 . S
C498 C499 1.389 . S
C499 C498 1.389 . S
C499 C500 1.387 . S
C500 H485 0.930 . S
C500 C495 1.390 . S
C500 C499 1.387 . S
H501 C513 0.930 . S
H502 C515 0.930 . S
H503 C516 0.930 . S
H504 C520 0.959 . S
H505 C520 0.959 . S
H506 C520 0.961 . S
H507 C521 0.960 . S
H508 C521 0.961 . S
H509 C521 0.959 . S
H510 C524 0.929 . S
H511 C525 0.931 . S
H512 C527 0.930 . S
C513 H501 0.930 . S
C513 C514 1.399 . S
C513 C518 1.399 . S
C514 C513 1.399 . S
C514 C515 1.376 . S
C515 H502 0.930 . S
C515 C514 1.376 . S
C515 C516 1.388 . S
C516 H503 0.930 . S
C516 C515 1.388 . S
C516 C517 1.390 . S
C517 C516 1.390 . S
C517 C518 1.394 . S
C517 C523 1.465 . S
C518 C513 1.399 . S
C518 C517 1.394 . S
C518 C519 1.516 . S
C519 C518 1.516 . S
C519 C520 1.502 . S
C519 C521 1.561 . S
C519 C522 1.526 . S
C520 H504 0.959 . S
C520 H505 0.959 . S
C520 H506 0.961 . S
C520 C519 1.502 . S
C521 H507 0.960 . S
C521 H508 0.961 . S
C521 H509 0.959 . S
C521 C519 1.561 . S
C522 C519 1.526 . S
C522 C523 1.396 . S
C522 C527 1.390 . S
C523 C517 1.465 . S
C523 C522 1.396 . S
C523 C524 1.399 . S
C524 H510 0.929 . S
C524 C523 1.399 . S
C524 C525 1.385 . S
C525 H511 0.931 . S
C525 C524 1.385 . S
C525 C526 1.389 . S
C526 C525 1.389 . S
C526 C527 1.387 . S
C527 H512 0.930 . S
C527 C522 1.390 . S
C527 C526 1.387 . S
H528 C540 0.930 . S
H529 C542 0.930 . S
H530 C543 0.930 . S
H531 C547 0.959 . S
H532 C547 0.959 . S
H533 C547 0.961 . S
H534 C548 0.960 . S
H535 C548 0.961 . S
H536 C548 0.959 . S
H537 C551 0.929 . S
H538 C552 0.931 . S
H539 C554 0.930 . S
C540 H528 0.930 . S
C540 C541 1.399 . S
C540 C545 1.399 . S
C541 C540 1.399 . S
C541 C542 1.376 . S
C542 H529 0.930 . S
C542 C541 1.376 . S
C542 C543 1.388 . S
C543 H530 0.930 . S
C543 C542 1.388 . S
C543 C544 1.390 . S
C544 C543 1.390 . S
C544 C545 1.394 . S
C544 C550 1.465 . S
C545 C540 1.399 . S
C545 C544 1.394 . S
C545 C546 1.516 . S
C546 C545 1.516 . S
C546 C547 1.502 . S
C546 C548 1.561 . S
C546 C549 1.526 . S
C547 H531 0.959 . S
C547 H532 0.959 . S
C547 H533 0.961 . S
C547 C546 1.502 . S
C548 H534 0.960 . S
C548 H535 0.961 . S
C548 H536 0.959 . S
C548 C546 1.561 . S
C549 C546 1.526 . S
C549 C550 1.396 . S
C549 C554 1.390 . S
C550 C544 1.465 . S
C550 C549 1.396 . S
C550 C551 1.399 . S
C551 H537 0.929 . S
C551 C550 1.399 . S
C551 C552 1.385 . S
C552 H538 0.931 . S
C552 C551 1.385 . S
C552 C553 1.389 . S
C553 C552 1.389 . S
C553 C554 1.387 . S
C554 H539 0.930 . S
C554 C549 1.390 . S
C554 C553 1.387 . S
H555 C567 0.930 . S
H556 C569 0.930 . S
H557 C570 0.930 . S
H558 C574 0.959 . S
H559 C574 0.959 . S
H560 C574 0.961 . S
H561 C575 0.960 . S
H562 C575 0.961 . S
H563 C575 0.959 . S
H564 C578 0.929 . S
H565 C579 0.931 . S
H566 C581 0.930 . S
C567 H555 0.930 . S
C567 C568 1.399 . S
C567 C572 1.399 . S
C568 C567 1.399 . S
C568 C569 1.376 . S
C569 H556 0.930 . S
C569 C568 1.376 . S
C569 C570 1.388 . S
C570 H557 0.930 . S
C570 C569 1.388 . S
C570 C571 1.390 . S
C571 C570 1.390 . S
C571 C572 1.394 . S
C571 C577 1.465 . S
C572 C567 1.399 . S
C572 C571 1.394 . S
C572 C573 1.516 1_556 S
C573 C572 1.516 1_554 S
C573 C574 1.502 . S
C573 C575 1.561 . S
C573 C576 1.526 . S
C574 H558 0.959 . S
C574 H559 0.959 . S
C574 H560 0.961 . S
C574 C573 1.502 . S
C575 H561 0.960 . S
C575 H562 0.961 . S
C575 H563 0.959 . S
C575 C573 1.561 . S
C576 C573 1.526 . S
C576 C577 1.396 1_554 S
C576 C581 1.390 . S
C577 C571 1.465 . S
C577 C576 1.396 1_556 S
C577 C578 1.399 . S
C578 H564 0.929 . S
C578 C577 1.399 . S
C578 C579 1.385 . S
C579 H565 0.931 . S
C579 C578 1.385 . S
C579 C580 1.389 1_556 S
C580 C579 1.389 1_554 S
C580 C581 1.387 . S
C581 H566 0.930 . S
C581 C576 1.390 . S
C581 C580 1.387 . S
H582 C594 0.930 . S
H583 C596 0.930 . S
H584 C597 0.930 . S
H585 C601 0.959 . S
H586 C601 0.959 . S
H587 C601 0.961 . S
H588 C602 0.960 . S
H589 C602 0.961 . S
H590 C602 0.959 . S
H591 C605 0.929 . S
H592 C606 0.931 . S
H593 C608 0.930 . S
C594 H582 0.930 . S
C594 C595 1.399 . S
C594 C599 1.399 . S
C595 C594 1.399 . S
C595 C596 1.376 . S
C596 H583 0.930 . S
C596 C595 1.376 . S
C596 C597 1.388 . S
C597 H584 0.930 . S
C597 C596 1.388 . S
C597 C598 1.390 . S
C598 C597 1.390 . S
C598 C599 1.394 . S
C598 C604 1.465 . S
C599 C594 1.399 . S
C599 C598 1.394 . S
C599 C600 1.516 . S
C600 C599 1.516 . S
C600 C601 1.502 . S
C600 C602 1.561 . S
C600 C603 1.526 . S
C601 H585 0.959 . S
C601 H586 0.959 . S
C601 H587 0.961 . S
C601 C600 1.502 . S
C602 H588 0.960 . S
C602 H589 0.961 . S
C602 H590 0.959 . S
C602 C600 1.561 . S
C603 C600 1.526 . S
C603 C604 1.396 . S
C603 C608 1.390 . S
C604 C598 1.465 . S
C604 C603 1.396 . S
C604 C605 1.399 . S
C605 H591 0.929 . S
C605 C604 1.399 . S
C605 C606 1.385 . S
C606 H592 0.931 . S
C606 C605 1.385 . S
C606 C607 1.389 . S
C607 C606 1.389 . S
C607 C608 1.387 . S
C608 H593 0.930 . S
C608 C603 1.390 . S
C608 C607 1.387 . S
H609 C621 0.930 . S
H610 C623 0.930 . S
H611 C624 0.930 . S
H612 C628 0.959 . S
H613 C628 0.959 . S
H614 C628 0.961 . S
H615 C629 0.960 . S
H616 C629 0.961 . S
H617 C629 0.959 . S
H618 C632 0.929 . S
H619 C633 0.931 . S
H620 C635 0.930 . S
C621 H609 0.930 . S
C621 C622 1.399 . S
C621 C626 1.399 . S
C622 C621 1.399 . S
C622 C623 1.376 . S
C623 H610 0.930 . S
C623 C622 1.376 . S
C623 C624 1.388 . S
C624 H611 0.930 . S
C624 C623 1.388 . S
C624 C625 1.390 . S
C625 C624 1.390 . S
C625 C626 1.394 . S
C625 C631 1.465 . S
C626 C621 1.399 . S
C626 C625 1.394 . S
C626 C627 1.516 . S
C627 C626 1.516 . S
C627 C628 1.502 . S
C627 C629 1.561 . S
C627 C630 1.526 . S
C628 H612 0.959 . S
C628 H613 0.959 . S
C628 H614 0.961 . S
C628 C627 1.502 . S
C629 H615 0.960 . S
C629 H616 0.961 . S
C629 H617 0.959 . S
C629 C627 1.561 . S
C630 C627 1.526 . S
C630 C631 1.396 . S
C630 C635 1.390 . S
C631 C625 1.465 . S
C631 C630 1.396 . S
C631 C632 1.399 . S
C632 H618 0.929 . S
C632 C631 1.399 . S
C632 C633 1.385 . S
C633 H619 0.931 . S
C633 C632 1.385 . S
C633 C634 1.389 . S
C634 C633 1.389 . S
C634 C635 1.387 . S
C635 H620 0.930 . S
C635 C630 1.390 . S
C635 C634 1.387 . S
H636 C648 0.930 . S
H637 C650 0.930 . S
H638 C651 0.930 . S
H639 C655 0.959 . S
H640 C655 0.959 . S
H641 C655 0.961 . S
H642 C656 0.960 . S
H643 C656 0.961 . S
H644 C656 0.959 . S
H645 C659 0.929 . S
H646 C660 0.931 . S
H647 C662 0.930 . S
C648 H636 0.930 . S
C648 C649 1.399 . S
C648 C653 1.399 . S
C649 C648 1.399 . S
C649 C650 1.376 . S
C650 H637 0.930 . S
C650 C649 1.376 . S
C650 C651 1.388 . S
C651 H638 0.930 . S
C651 C650 1.388 . S
C651 C652 1.390 . S
C652 C651 1.390 . S
C652 C653 1.394 . S
C652 C658 1.465 . S
C653 C648 1.399 . S
C653 C652 1.394 . S
C653 C654 1.516 . S
C654 C653 1.516 . S
C654 C655 1.502 . S
C654 C656 1.561 . S
C654 C657 1.526 . S
C655 H639 0.959 . S
C655 H640 0.959 . S
C655 H641 0.961 . S
C655 C654 1.502 . S
C656 H642 0.960 . S
C656 H643 0.961 . S
C656 H644 0.959 . S
C656 C654 1.561 . S
C657 C654 1.526 . S
C657 C658 1.396 . S
C657 C662 1.390 . S
C658 C652 1.465 . S
C658 C657 1.396 . S
C658 C659 1.399 . S
C659 H645 0.929 . S
C659 C658 1.399 . S
C659 C660 1.385 . S
C660 H646 0.931 . S
C660 C659 1.385 . S
C660 C661 1.389 . S
C661 C660 1.389 . S
C661 C662 1.387 . S
C662 H647 0.930 . S
C662 C657 1.390 . S
C662 C661 1.387 . S
H663 C675 0.930 . S
H664 C677 0.930 . S
H665 C678 0.930 . S
H666 C682 0.959 . S
H667 C682 0.959 . S
H668 C682 0.961 . S
H669 C683 0.960 . S
H670 C683 0.961 . S
H671 C683 0.959 . S
H672 C686 0.929 . S
H673 C687 0.931 . S
H674 C689 0.930 . S
C675 H663 0.930 . S
C675 C676 1.399 . S
C675 C680 1.399 . S
C676 C675 1.399 . S
C676 C677 1.376 . S
C677 H664 0.930 . S
C677 C676 1.376 . S
C677 C678 1.388 . S
C678 H665 0.930 . S
C678 C677 1.388 . S
C678 C679 1.390 . S
C679 C678 1.390 . S
C679 C680 1.394 . S
C679 C685 1.465 . S
C680 C675 1.399 . S
C680 C679 1.394 . S
C680 C681 1.516 . S
C681 C680 1.516 . S
C681 C682 1.502 . S
C681 C683 1.561 . S
C681 C684 1.526 . S
C682 H666 0.959 . S
C682 H667 0.959 . S
C682 H668 0.961 . S
C682 C681 1.502 . S
C683 H669 0.960 . S
C683 H670 0.961 . S
C683 H671 0.959 . S
C683 C681 1.561 . S
C684 C681 1.526 . S
C684 C685 1.396 . S
C684 C689 1.390 . S
C685 C679 1.465 . S
C685 C684 1.396 . S
C685 C686 1.399 . S
C686 H672 0.929 . S
C686 C685 1.399 . S
C686 C687 1.385 . S
C687 H673 0.931 . S
C687 C686 1.385 . S
C687 C688 1.389 . S
C688 C687 1.389 . S
C688 C689 1.387 . S
C689 H674 0.930 . S
C689 C684 1.390 . S
C689 C688 1.387 . S
H690 C702 0.930 . S
H691 C704 0.930 . S
H692 C705 0.930 . S
H693 C709 0.959 . S
H694 C709 0.959 . S
H695 C709 0.961 . S
H696 C710 0.960 . S
H697 C710 0.961 . S
H698 C710 0.959 . S
H699 C713 0.929 . S
H700 C714 0.931 . S
H701 C716 0.930 . S
C702 H690 0.930 . S
C702 C703 1.399 . S
C702 C707 1.399 . S
C703 C702 1.399 . S
C703 C704 1.376 . S
C704 H691 0.930 . S
C704 C703 1.376 . S
C704 C705 1.388 . S
C705 H692 0.930 . S
C705 C704 1.388 . S
C705 C706 1.390 . S
C706 C705 1.390 . S
C706 C707 1.394 . S
C706 C712 1.465 . S
C707 C702 1.399 . S
C707 C706 1.394 . S
C707 C708 1.516 . S
C708 C707 1.516 . S
C708 C709 1.502 . S
C708 C710 1.561 . S
C708 C711 1.526 . S
C709 H693 0.959 . S
C709 H694 0.959 . S
C709 H695 0.961 . S
C709 C708 1.502 . S
C710 H696 0.960 . S
C710 H697 0.961 . S
C710 H698 0.959 . S
C710 C708 1.561 . S
C711 C708 1.526 . S
C711 C712 1.396 . S
C711 C716 1.390 . S
C712 C706 1.465 . S
C712 C711 1.396 . S
C712 C713 1.399 . S
C713 H699 0.929 . S
C713 C712 1.399 . S
C713 C714 1.385 . S
C714 H700 0.931 . S
C714 C713 1.385 . S
C714 C715 1.389 . S
C715 C714 1.389 . S
C715 C716 1.387 . S
C716 H701 0.930 . S
C716 C711 1.390 . S
C716 C715 1.387 . S
H717 C729 0.930 . S
H718 C731 0.930 . S
H719 C732 0.930 . S
H720 C736 0.959 . S
H721 C736 0.959 . S
H722 C736 0.961 . S
H723 C737 0.960 . S
H724 C737 0.961 . S
H725 C737 0.959 . S
H726 C740 0.929 . S
H727 C741 0.931 . S
H728 C743 0.930 . S
C729 H717 0.930 . S
C729 C730 1.399 . S
C729 C734 1.399 . S
C730 C729 1.399 . S
C730 C731 1.376 . S
C731 H718 0.930 . S
C731 C730 1.376 . S
C731 C732 1.388 . S
C732 H719 0.930 . S
C732 C731 1.388 . S
C732 C733 1.390 . S
C733 C732 1.390 . S
C733 C734 1.394 . S
C733 C739 1.465 . S
C734 C729 1.399 . S
C734 C733 1.394 . S
C734 C735 1.516 . S
C735 C734 1.516 . S
C735 C736 1.502 . S
C735 C737 1.561 . S
C735 C738 1.526 . S
C736 H720 0.959 . S
C736 H721 0.959 . S
C736 H722 0.961 . S
C736 C735 1.502 . S
C737 H723 0.960 . S
C737 H724 0.961 . S
C737 H725 0.959 . S
C737 C735 1.561 . S
C738 C735 1.526 . S
C738 C739 1.396 . S
C738 C743 1.390 . S
C739 C733 1.465 . S
C739 C738 1.396 . S
C739 C740 1.399 . S
C740 H726 0.929 . S
C740 C739 1.399 . S
C740 C741 1.385 . S
C741 H727 0.931 . S
C741 C740 1.385 . S
C741 C742 1.389 . S
C742 C741 1.389 . S
C742 C743 1.387 . S
C743 H728 0.930 . S
C743 C738 1.390 . S
C743 C742 1.387 . S
H744 C756 0.930 . S
H745 C758 0.930 . S
H746 C759 0.930 . S
H747 C763 0.959 . S
H748 C763 0.959 . S
H749 C763 0.961 . S
H750 C764 0.960 . S
H751 C764 0.961 . S
H752 C764 0.959 . S
H753 C767 0.929 . S
H754 C768 0.931 . S
H755 C770 0.930 . S
C756 H744 0.930 . S
C756 C757 1.399 . S
C756 C761 1.399 . S
C757 C756 1.399 . S
C757 C758 1.376 . S
C758 H745 0.930 . S
C758 C757 1.376 . S
C758 C759 1.388 . S
C759 H746 0.930 . S
C759 C758 1.388 . S
C759 C760 1.390 . S
C760 C759 1.390 . S
C760 C761 1.394 . S
C760 C766 1.465 . S
C761 C756 1.399 . S
C761 C760 1.394 . S
C761 C762 1.516 . S
C762 C761 1.516 . S
C762 C763 1.502 . S
C762 C764 1.561 . S
C762 C765 1.526 . S
C763 H747 0.959 . S
C763 H748 0.959 . S
C763 H749 0.961 . S
C763 C762 1.502 . S
C764 H750 0.960 . S
C764 H751 0.961 . S
C764 H752 0.959 . S
C764 C762 1.561 . S
C765 C762 1.526 . S
C765 C766 1.396 . S
C765 C770 1.390 . S
C766 C760 1.465 . S
C766 C765 1.396 . S
C766 C767 1.399 1_556 S
C767 H753 0.929 . S
C767 C766 1.399 1_554 S
C767 C768 1.385 . S
C768 H754 0.931 . S
C768 C767 1.385 . S
C768 C769 1.389 . S
C769 C768 1.389 . S
C769 C770 1.387 1_554 S
C770 H755 0.930 . S
C770 C765 1.390 . S
C770 C769 1.387 1_556 S
H771 C783 0.930 . S
H772 C785 0.930 . S
H773 C786 0.930 . S
H774 C790 0.959 . S
H775 C790 0.959 . S
H776 C790 0.961 . S
H777 C791 0.960 . S
H778 C791 0.961 . S
H779 C791 0.959 . S
H780 C794 0.929 . S
H781 C795 0.931 . S
H782 C797 0.930 . S
C783 H771 0.930 . S
C783 C784 1.399 . S
C783 C788 1.399 . S
C784 C783 1.399 . S
C784 C785 1.376 . S
C785 H772 0.930 . S
C785 C784 1.376 . S
C785 C786 1.388 . S
C786 H773 0.930 . S
C786 C785 1.388 . S
C786 C787 1.390 . S
C787 C786 1.390 . S
C787 C788 1.394 . S
C787 C793 1.465 . S
C788 C783 1.399 . S
C788 C787 1.394 . S
C788 C789 1.516 . S
C789 C788 1.516 . S
C789 C790 1.502 . S
C789 C791 1.561 . S
C789 C792 1.526 . S
C790 H774 0.959 . S
C790 H775 0.959 . S
C790 H776 0.961 . S
C790 C789 1.502 . S
C791 H777 0.960 . S
C791 H778 0.961 . S
C791 H779 0.959 . S
C791 C789 1.561 . S
C792 C789 1.526 . S
C792 C793 1.396 . S
C792 C797 1.390 . S
C793 C787 1.465 . S
C793 C792 1.396 . S
C793 C794 1.399 . S
C794 H780 0.929 . S
C794 C793 1.399 . S
C794 C795 1.385 . S
C795 H781 0.931 . S
C795 C794 1.385 . S
C795 C796 1.389 . S
C796 C795 1.389 . S
C796 C797 1.387 . S
C797 H782 0.930 . S
C797 C792 1.390 . S
C797 C796 1.387 . S
H798 C810 0.930 . S
H799 C812 0.930 . S
H800 C813 0.930 . S
H801 C817 0.959 . S
H802 C817 0.959 . S
H803 C817 0.961 . S
H804 C818 0.960 . S
H805 C818 0.961 . S
H806 C818 0.959 . S
H807 C821 0.929 . S
H808 C822 0.931 . S
H809 C824 0.930 . S
C810 H798 0.930 . S
C810 C811 1.399 . S
C810 C815 1.399 . S
C811 C810 1.399 . S
C811 C812 1.376 . S
C812 H799 0.930 . S
C812 C811 1.376 . S
C812 C813 1.388 . S
C813 H800 0.930 . S
C813 C812 1.388 . S
C813 C814 1.390 . S
C814 C813 1.390 . S
C814 C815 1.394 . S
C814 C820 1.465 . S
C815 C810 1.399 . S
C815 C814 1.394 . S
C815 C816 1.516 . S
C816 C815 1.516 . S
C816 C817 1.502 . S
C816 C818 1.561 . S
C816 C819 1.526 . S
C817 H801 0.959 . S
C817 H802 0.959 . S
C817 H803 0.961 . S
C817 C816 1.502 . S
C818 H804 0.960 . S
C818 H805 0.961 . S
C818 H806 0.959 . S
C818 C816 1.561 . S
C819 C816 1.526 . S
C819 C820 1.396 . S
C819 C824 1.390 . S
C820 C814 1.465 . S
C820 C819 1.396 . S
C820 C821 1.399 . S
C821 H807 0.929 . S
C821 C820 1.399 . S
C821 C822 1.385 . S
C822 H808 0.931 . S
C822 C821 1.385 . S
C822 C823 1.389 . S
C823 C822 1.389 . S
C823 C824 1.387 . S
C824 H809 0.930 . S
C824 C819 1.390 . S
C824 C823 1.387 . S
H825 C837 0.930 . S
H826 C839 0.930 . S
H827 C840 0.930 . S
H828 C844 0.959 . S
H829 C844 0.959 . S
H830 C844 0.961 . S
H831 C845 0.960 . S
H832 C845 0.961 . S
H833 C845 0.959 . S
H834 C848 0.929 . S
H835 C849 0.931 . S
H836 C851 0.930 . S
C837 H825 0.930 . S
C837 C838 1.399 . S
C837 C842 1.399 . S
C838 C837 1.399 . S
C838 C839 1.376 . S
C839 H826 0.930 . S
C839 C838 1.376 . S
C839 C840 1.388 . S
C840 H827 0.930 . S
C840 C839 1.388 . S
C840 C841 1.390 . S
C841 C840 1.390 . S
C841 C842 1.394 . S
C841 C847 1.465 . S
C842 C837 1.399 . S
C842 C841 1.394 . S
C842 C843 1.516 . S
C843 C842 1.516 . S
C843 C844 1.502 . S
C843 C845 1.561 . S
C843 C846 1.526 . S
C844 H828 0.959 . S
C844 H829 0.959 . S
C844 H830 0.961 . S
C844 C843 1.502 . S
C845 H831 0.960 . S
C845 H832 0.961 . S
C845 H833 0.959 . S
C845 C843 1.561 . S
C846 C843 1.526 . S
C846 C847 1.396 . S
C846 C851 1.390 . S
C847 C841 1.465 . S
C847 C846 1.396 . S
C847 C848 1.399 . S
C848 H834 0.929 . S
C848 C847 1.399 . S
C848 C849 1.385 . S
C849 H835 0.931 . S
C849 C848 1.385 . S
C849 C850 1.389 . S
C850 C849 1.389 . S
C850 C851 1.387 . S
C851 H836 0.930 . S
C851 C846 1.390 . S
C851 C850 1.387 . S
H852 C864 0.930 . S
H853 C866 0.930 . S
H854 C867 0.930 . S
H855 C871 0.959 . S
H856 C871 0.959 . S
H857 C871 0.961 . S
H858 C872 0.960 . S
H859 C872 0.961 . S
H860 C872 0.959 . S
H861 C875 0.929 . S
H862 C876 0.931 . S
H863 C878 0.930 . S
C864 H852 0.930 . S
C864 C865 1.399 . S
C864 C869 1.399 . S
C865 C864 1.399 . S
C865 C866 1.376 . S
C866 H853 0.930 . S
C866 C865 1.376 . S
C866 C867 1.388 . S
C867 H854 0.930 . S
C867 C866 1.388 . S
C867 C868 1.390 . S
C868 C867 1.390 . S
C868 C869 1.394 . S
C868 C874 1.465 . S
C869 C864 1.399 . S
C869 C868 1.394 . S
C869 C870 1.516 . S
C870 C869 1.516 . S
C870 C871 1.502 . S
C870 C872 1.561 . S
C870 C873 1.526 . S
C871 H855 0.959 . S
C871 H856 0.959 . S
C871 H857 0.961 . S
C871 C870 1.502 . S
C872 H858 0.960 . S
C872 H859 0.961 . S
C872 H860 0.959 . S
C872 C870 1.561 . S
C873 C870 1.526 . S
C873 C874 1.396 . S
C873 C878 1.390 . S
C874 C868 1.465 . S
C874 C873 1.396 . S
C874 C875 1.399 . S
C875 H861 0.929 . S
C875 C874 1.399 . S
C875 C876 1.385 . S
C876 H862 0.931 . S
C876 C875 1.385 . S
C876 C877 1.389 . S
C877 C876 1.389 . S
C877 C878 1.387 . S
C878 H863 0.930 . S
C878 C873 1.390 . S
C878 C877 1.387 . S
H879 C891 0.930 . S
H880 C893 0.930 . S
H881 C894 0.930 . S
H882 C898 0.959 . S
H883 C898 0.959 . S
H884 C898 0.961 . S
H885 C899 0.960 . S
H886 C899 0.961 . S
H887 C899 0.959 . S
H888 C902 0.929 . S
H889 C903 0.931 . S
H890 C905 0.930 . S
C891 H879 0.930 . S
C891 C892 1.399 . S
C891 C896 1.399 . S
C892 C891 1.399 . S
C892 C893 1.376 . S
C893 H880 0.930 . S
C893 C892 1.376 . S
C893 C894 1.388 . S
C894 H881 0.930 . S
C894 C893 1.388 . S
C894 C895 1.390 . S
C895 C894 1.390 . S
C895 C896 1.394 . S
C895 C901 1.465 . S
C896 C891 1.399 . S
C896 C895 1.394 . S
C896 C897 1.516 . S
C897 C896 1.516 . S
C897 C898 1.502 . S
C897 C899 1.561 . S
C897 C900 1.526 . S
C898 H882 0.959 . S
C898 H883 0.959 . S
C898 H884 0.961 . S
C898 C897 1.502 . S
C899 H885 0.960 . S
C899 H886 0.961 . S
C899 H887 0.959 . S
C899 C897 1.561 . S
C900 C897 1.526 . S
C900 C901 1.396 . S
C900 C905 1.390 . S
C901 C895 1.465 . S
C901 C900 1.396 . S
C901 C902 1.399 . S
C902 H888 0.929 . S
C902 C901 1.399 . S
C902 C903 1.385 . S
C903 H889 0.931 . S
C903 C902 1.385 . S
C903 C904 1.389 . S
C904 C903 1.389 . S
C904 C905 1.387 . S
C905 H890 0.930 . S
C905 C900 1.390 . S
C905 C904 1.387 . S
H906 C918 0.930 . S
H907 C920 0.930 . S
H908 C921 0.930 . S
H909 C925 0.959 . S
H910 C925 0.959 . S
H911 C925 0.961 . S
H912 C926 0.960 . S
H913 C926 0.961 . S
H914 C926 0.959 . S
H915 C929 0.929 . S
H916 C930 0.931 . S
H917 C932 0.930 . S
C918 H906 0.930 . S
C918 C919 1.399 . S
C918 C923 1.399 . S
C919 C918 1.399 . S
C919 C920 1.376 . S
C920 H907 0.930 . S
C920 C919 1.376 . S
C920 C921 1.388 . S
C921 H908 0.930 . S
C921 C920 1.388 . S
C921 C922 1.390 . S
C922 C921 1.390 . S
C922 C923 1.394 . S
C922 C928 1.465 . S
C923 C918 1.399 . S
C923 C922 1.394 . S
C923 C924 1.516 . S
C924 C923 1.516 . S
C924 C925 1.502 . S
C924 C926 1.561 . S
C924 C927 1.526 . S
C925 H909 0.959 . S
C925 H910 0.959 . S
C925 H911 0.961 . S
C925 C924 1.502 . S
C926 H912 0.960 . S
C926 H913 0.961 . S
C926 H914 0.959 . S
C926 C924 1.561 . S
C927 C924 1.526 . S
C927 C928 1.396 . S
C927 C932 1.390 . S
C928 C922 1.465 . S
C928 C927 1.396 . S
C928 C929 1.399 . S
C929 H915 0.929 . S
C929 C928 1.399 . S
C929 C930 1.385 . S
C930 H916 0.931 . S
C930 C929 1.385 . S
C930 C931 1.389 . S
C931 C930 1.389 . S
C931 C932 1.387 . S
C932 H917 0.930 . S
C932 C927 1.390 . S
C932 C931 1.387 . S
H933 C945 0.930 . S
H934 C947 0.930 . S
H935 C948 0.930 . S
H936 C952 0.959 . S
H937 C952 0.959 . S
H938 C952 0.961 . S
H939 C953 0.960 . S
H940 C953 0.961 . S
H941 C953 0.959 . S
H942 C956 0.929 . S
H943 C957 0.931 . S
H944 C959 0.930 . S
C945 H933 0.930 . S
C945 C946 1.399 . S
C945 C950 1.399 . S
C946 C945 1.399 . S
C946 C947 1.376 . S
C947 H934 0.930 . S
C947 C946 1.376 . S
C947 C948 1.388 . S
C948 H935 0.930 . S
C948 C947 1.388 . S
C948 C949 1.390 . S
C949 C948 1.390 . S
C949 C950 1.394 . S
C949 C955 1.465 . S
C950 C945 1.399 . S
C950 C949 1.394 . S
C950 C951 1.516 . S
C951 C950 1.516 . S
C951 C952 1.502 . S
C951 C953 1.561 . S
C951 C954 1.526 . S
C952 H936 0.959 . S
C952 H937 0.959 . S
C952 H938 0.961 . S
C952 C951 1.502 . S
C953 H939 0.960 . S
C953 H940 0.961 . S
C953 H941 0.959 . S
C953 C951 1.561 . S
C954 C951 1.526 . S
C954 C955 1.396 . S
C954 C959 1.390 . S
C955 C949 1.465 . S
C955 C954 1.396 . S
C955 C956 1.399 . S
C956 H942 0.929 . S
C956 C955 1.399 . S
C956 C957 1.385 . S
C957 H943 0.931 . S
C957 C956 1.385 . S
C957 C958 1.389 . S
C958 C957 1.389 . S
C958 C959 1.387 . S
C959 H944 0.930 . S
C959 C954 1.390 . S
C959 C958 1.387 . S
C325 C6 1.145 . S
C337 C158 1.218 . S
C352 C21 1.448 . S
C364 C207 1.501 . S
C391 C242 1.861 . S
C379 C49 1.853 . S
C406 C68 2.048 . S
C418 C281 2.116 1_655 S
C445 C202 2.987 . S
C433 C2 2.877 . S
C472 C161 0.447 . S
C460 C30 0.548 . S
C499 C291 1.909 . S
C487 C40 1.923 . S
C526 C250 1.533 . S
C514 C63 1.516 . S
C541 C11 1.338 . S
C553 C278 1.563 . S
C580 C210 2.568 . S
C568 C44 2.669 . S
C595 C59 1.941 . S
C607 C171 1.970 . S
C622 C25 1.272 . S
C634 C247 1.186 . S
C661 C167 1.452 . S
C649 C82 1.416 . S
C676 C101 1.216 . S
C688 C198 1.244 . S
C703 C125 2.256 . S
C715 C251 2.382 . S
C730 C144 1.827 . S
C742 C290 1.892 . S
C757 C87 1.919 . S
C769 C211 2.016 . S
C796 C170 1.778 . S
C784 C97 1.766 . S
C823 C282 1.652 . S
C811 C120 1.739 . S
C850 C241 1.582 . S
C838 C135 1.628 . S
C865 C78 1.923 . S
C877 C287 2.007 . S
C904 C201 1.870 . S
C892 C116 1.930 . S
C931 C162 2.625 . S
C919 C139 2.632 . S
C946 C106 0.875 . S
C958 C238 0.889 . S
