# Generated by pormake.
# Topology eea, (3,6)-cn, num edge types: 1
# Building blocks:
#     Node 0, Type 0, BuildingBlock: PAMTOO_clean_linker_0, # of connection points: 3
#     Node 1, Type 0, BuildingBlock: PAMTOO_clean_linker_0, # of connection points: 3
#     Node 2, Type 0, BuildingBlock: PAMTOO_clean_linker_0, # of connection points: 3
#     Node 3, Type 0, BuildingBlock: PAMTOO_clean_linker_0, # of connection points: 3
#     Node 4, Type 0, BuildingBlock: PAMTOO_clean_linker_0, # of connection points: 3
#     Node 5, Type 0, BuildingBlock: PAMTOO_clean_linker_0, # of connection points: 3
#     Node 6, Type 0, BuildingBlock: PAMTOO_clean_linker_0, # of connection points: 3
#     Node 7, Type 0, BuildingBlock: PAMTOO_clean_linker_0, # of connection points: 3
#     Node 8, Type 0, BuildingBlock: PAMTOO_clean_linker_0, # of connection points: 3
#     Node 9, Type 0, BuildingBlock: PAMTOO_clean_linker_0, # of connection points: 3
#     Node 10, Type 0, BuildingBlock: PAMTOO_clean_linker_0, # of connection points: 3
#     Node 11, Type 0, BuildingBlock: PAMTOO_clean_linker_0, # of connection points: 3
#     Node 12, Type 0, BuildingBlock: PAMTOO_clean_linker_0, # of connection points: 3
#     Node 13, Type 0, BuildingBlock: PAMTOO_clean_linker_0, # of connection points: 3
#     Node 14, Type 0, BuildingBlock: PAMTOO_clean_linker_0, # of connection points: 3
#     Node 15, Type 0, BuildingBlock: PAMTOO_clean_linker_0, # of connection points: 3
#     Node 16, Type 0, BuildingBlock: PAMTOO_clean_linker_0, # of connection points: 3
#     Node 17, Type 0, BuildingBlock: PAMTOO_clean_linker_0, # of connection points: 3
#     Node 18, Type 1, BuildingBlock: HISSIN_clean_sbu_0, # of connection points: 6
#     Node 19, Type 1, BuildingBlock: HISSIN_clean_sbu_0, # of connection points: 6
#     Node 20, Type 1, BuildingBlock: HISSIN_clean_sbu_0, # of connection points: 6
#     Node 21, Type 1, BuildingBlock: HISSIN_clean_sbu_0, # of connection points: 6
#     Node 22, Type 1, BuildingBlock: HISSIN_clean_sbu_0, # of connection points: 6
#     Node 23, Type 1, BuildingBlock: HISSIN_clean_sbu_0, # of connection points: 6
#     Node 24, Type 1, BuildingBlock: HISSIN_clean_sbu_0, # of connection points: 6
#     Node 25, Type 1, BuildingBlock: HISSIN_clean_sbu_0, # of connection points: 6
#     Node 26, Type 1, BuildingBlock: HISSIN_clean_sbu_0, # of connection points: 6
#     Edge 27, Type (0, 1), None
#     Edge 28, Type (0, 1), None
#     Edge 29, Type (0, 1), None
#     Edge 30, Type (0, 1), None
#     Edge 31, Type (0, 1), None
#     Edge 32, Type (0, 1), None
#     Edge 33, Type (0, 1), None
#     Edge 34, Type (0, 1), None
#     Edge 35, Type (0, 1), None
#     Edge 36, Type (0, 1), None
#     Edge 37, Type (0, 1), None
#     Edge 38, Type (0, 1), None
#     Edge 39, Type (0, 1), None
#     Edge 40, Type (0, 1), None
#     Edge 41, Type (0, 1), None
#     Edge 42, Type (0, 1), None
#     Edge 43, Type (0, 1), None
#     Edge 44, Type (0, 1), None
#     Edge 45, Type (0, 1), None
#     Edge 46, Type (0, 1), None
#     Edge 47, Type (0, 1), None
#     Edge 48, Type (0, 1), None
#     Edge 49, Type (0, 1), None
#     Edge 50, Type (0, 1), None
#     Edge 51, Type (0, 1), None
#     Edge 52, Type (0, 1), None
#     Edge 53, Type (0, 1), None
#     Edge 54, Type (0, 1), None
#     Edge 55, Type (0, 1), None
#     Edge 56, Type (0, 1), None
#     Edge 57, Type (0, 1), None
#     Edge 58, Type (0, 1), None
#     Edge 59, Type (0, 1), None
#     Edge 60, Type (0, 1), None
#     Edge 61, Type (0, 1), None
#     Edge 62, Type (0, 1), None
#     Edge 63, Type (0, 1), None
#     Edge 64, Type (0, 1), None
#     Edge 65, Type (0, 1), None
#     Edge 66, Type (0, 1), None
#     Edge 67, Type (0, 1), None
#     Edge 68, Type (0, 1), None
#     Edge 69, Type (0, 1), None
#     Edge 70, Type (0, 1), None
#     Edge 71, Type (0, 1), None
#     Edge 72, Type (0, 1), None
#     Edge 73, Type (0, 1), None
#     Edge 74, Type (0, 1), None
#     Edge 75, Type (0, 1), None
#     Edge 76, Type (0, 1), None
#     Edge 77, Type (0, 1), None
#     Edge 78, Type (0, 1), None
#     Edge 79, Type (0, 1), None
#     Edge 80, Type (0, 1), None
# Relax obj value: 0.061
# Max RMSD: 0.274
# Mean RMSD: 0.199
data_MOF--net-eea--node1-HISSIN_clean_sbu_0--node2-PAMTOO_clean_linker_0--edge1-none
_symmetry_space_group_name_H-M    P1
_symmetry_Int_Tables_number       1
_symmetry_cell_setting            triclinic
loop_
_symmetry_equiv_pos_as_xyz
'x, y, z'
_cell_length_a     23.853567
_cell_length_b     24.134323
_cell_length_c     37.952741
_cell_angle_alpha  92.613921
_cell_angle_beta   92.214147
_cell_angle_gamma 120.14793
loop_
_atom_site_label
_atom_site_type_symbol
_atom_site_fract_x
_atom_site_fract_y
_atom_site_fract_z
_atom_type_partial_charge
H0 H 0.29391 0.0302 0.44814 0.0
H1 H 0.25074 0.18121 0.4655 0.0
H2 H 0.18457 0.06413 0.36732 0.0
H3 H 0.25876 0.21463 0.36731 0.0
C4 C 0.23648 0.22305 0.3907 0.0
O5 O 0.19322 0.16494 0.40325 0.0
H6 H 0.2754 0.2529 0.41177 0.0
C7 C 0.27189 0.05703 0.43858 0.0
C8 C 0.23793 0.03987 0.40506 0.0
C9 C 0.27678 0.10763 0.46057 0.0
C10 C 0.24648 0.14113 0.4491 0.0
C11 C 0.21458 0.12645 0.41531 0.0
C12 C 0.20949 0.07528 0.39338 0.0
H13 H 0.0145 0.27642 0.44705 0.0
H14 H 0.88217 0.08257 0.46992 0.0
H15 H 0.96353 0.11935 0.36885 0.0
H16 H 0.80627 0.04106 0.38 0.0
C17 C 0.81123 0.01194 0.40052 0.0
O18 O 0.87621 0.03194 0.40747 0.0
H19 H 0.79065 0.01845 0.42514 0.0
C20 C 0.98869 0.22555 0.43882 0.0
C21 C 0.99716 0.20346 0.4053 0.0
C22 C 0.94775 0.18228 0.46235 0.0
C23 C 0.91524 0.11647 0.4524 0.0
C24 C 0.91854 0.09409 0.41837 0.0
C25 C 0.96048 0.13726 0.39497 0.0
H26 H 0.76461 0.72944 0.44758 0.0
H27 H 0.96066 0.7681 0.46564 0.0
H28 H 0.90896 0.83803 0.37528 0.0
H29 H 0.98413 0.77368 0.36192 0.0
C30 C 0.0165 0.79009 0.3867 0.0
O31 O 1.00202 0.82817 0.40827 0.0
H32 H 1.00797 0.74695 0.40032 0.0
C33 C 0.81409 0.75125 0.43985 0.0
C34 C 0.83086 0.78513 0.40905 0.0
C35 C 0.86012 0.74479 0.46083 0.0
C36 C 0.92399 0.77215 0.45011 0.0
C37 C 0.94124 0.80504 0.41916 0.0
C38 C 0.89495 0.81218 0.39896 0.0
H39 H 0.03459 0.28554 0.61078 0.0
H40 H 0.18153 0.23718 0.59112 0.0
H41 H 0.08002 0.18181 0.68579 0.0
H42 H 0.23222 0.25457 0.68923 0.0
C43 C 0.23589 0.22758 0.6657 0.0
O44 O 0.17447 0.18509 0.65042 0.0
H45 H 0.26475 0.26201 0.64611 0.0
C46 C 0.06239 0.26352 0.61907 0.0
C47 C 0.05014 0.23243 0.65099 0.0
C48 C 0.10918 0.26514 0.59703 0.0
C49 C 0.14415 0.23531 0.60723 0.0
C50 C 0.13477 0.20681 0.63946 0.0
C51 C 0.08728 0.2046 0.66111 0.0
H52 H 0.74536 0.74769 0.61154 0.0
H53 H 0.80288 0.94234 0.5934 0.0
H54 H 0.8545 0.89909 0.69386 0.0
H55 H 0.77518 0.97767 0.68537 0.0
C56 C 0.80496 0.00579 0.6639 0.0
O57 O 0.85078 0.98846 0.65703 0.0
H58 H 0.77174 0.99527 0.63997 0.0
C59 C 0.77026 0.79788 0.62105 0.0
C60 C 0.80266 0.81769 0.65512 0.0
C61 C 0.7706 0.84238 0.59854 0.0
C62 C 0.80352 0.90745 0.61017 0.0
C63 C 0.83108 0.9275 0.64482 0.0
C64 C 0.83198 0.88298 0.66724 0.0
H65 H 0.26964 0.98232 0.60898 0.0
H66 H 0.07544 0.82081 0.59322 0.0
H67 H 0.12966 0.95244 0.68531 0.0
H68 H 0.05583 0.81636 0.69839 0.0
C69 C 0.02392 0.79662 0.67348 0.0
O70 O 0.03592 0.84582 0.65223 0.0
H71 H 0.03468 0.76206 0.65925 0.0
C72 C 0.22138 0.95423 0.61817 0.0
C73 C 0.20596 0.97434 0.64986 0.0
C74 C 0.17508 0.89927 0.59745 0.0
C75 C 0.11178 0.86389 0.60861 0.0
C76 C 0.09571 0.8827 0.64047 0.0
C77 C 0.14257 0.9383 0.66082 0.0
H78 H 0.96058 0.36354 0.78143 0.0
H79 H 0.91722 0.5144 0.79889 0.0
H80 H 0.8512 0.39749 0.70065 0.0
H81 H 0.92546 0.54805 0.70077 0.0
C82 C 0.90309 0.55639 0.72414 0.0
O83 O 0.85979 0.49824 0.73663 0.0
H84 H 0.94193 0.5862 0.74525 0.0
C85 C 0.93852 0.39035 0.7719 0.0
C86 C 0.90458 0.37322 0.73837 0.0
C87 C 0.94334 0.44088 0.79391 0.0
C88 C 0.913 0.47436 0.78247 0.0
C89 C 0.88113 0.45972 0.74868 0.0
C90 C 0.8761 0.4086 0.72672 0.0
H91 H 0.68105 0.60974 0.78042 0.0
H92 H 0.54868 0.41589 0.80329 0.0
H93 H 0.63015 0.45266 0.70225 0.0
H94 H 0.4729 0.37435 0.71334 0.0
C95 C 0.47784 0.34522 0.73386 0.0
O96 O 0.54282 0.36525 0.74085 0.0
H97 H 0.45719 0.35168 0.75846 0.0
C98 C 0.65523 0.55888 0.77219 0.0
C99 C 0.66373 0.53679 0.73869 0.0
C100 C 0.61427 0.5156 0.79573 0.0
C101 C 0.58176 0.44979 0.78578 0.0
C102 C 0.58511 0.42741 0.75175 0.0
C103 C 0.62707 0.47058 0.72836 0.0
H104 H 0.43133 0.06286 0.78085 0.0
H105 H 0.62747 0.10183 0.79895 0.0
H106 H 0.57553 0.17117 0.70841 0.0
H107 H 0.65061 0.10534 0.69566 0.0
C108 C 0.68337 0.12316 0.72031 0.0
O109 O 0.66869 0.16156 0.74147 0.0
H110 H 0.67597 0.08132 0.73492 0.0
C111 C 0.4808 0.08468 0.77311 0.0
C112 C 0.4975 0.11845 0.74226 0.0
C113 C 0.52689 0.07834 0.79411 0.0
C114 C 0.59075 0.10577 0.78339 0.0
C115 C 0.60793 0.13847 0.75238 0.0
C116 C 0.56157 0.14545 0.73214 0.0
H117 H 0.70137 0.61895 0.94422 0.0
H118 H 0.84838 0.57067 0.92458 0.0
H119 H 0.74685 0.51526 1.01923 0.0
H120 H 0.8989 0.58788 1.02285 0.0
C121 C 0.90268 0.56116 0.99923 0.0
O122 O 0.84134 0.5186 0.98388 0.0
H123 H 0.93181 0.59665 0.98016 0.0
C124 C 0.72919 0.59695 0.95251 0.0
C125 C 0.71696 0.56587 0.98443 0.0
C126 C 0.77598 0.59857 0.93047 0.0
C127 C 0.81099 0.56877 0.94068 0.0
C128 C 0.8016 0.54026 0.97291 0.0
C129 C 0.75411 0.53804 0.99455 0.0
H130 H 0.4117 0.08077 0.94492 0.0
H131 H 0.46955 0.27544 0.92662 0.0
H132 H 0.52109 0.23231 0.02715 0.0
H133 H 0.44217 0.3112 1.0185 0.0
C134 C 0.472 0.33936 0.99706 0.0
O135 O 0.51759 0.3217 0.99023 0.0
H136 H 0.43979 0.3296 0.97279 0.0
C137 C 0.43666 0.13098 0.9544 0.0
C138 C 0.4691 0.15083 0.98846 0.0
C139 C 0.43708 0.17546 0.93185 0.0
C140 C 0.47009 0.24056 0.94344 0.0
C141 C 0.49767 0.26065 0.97807 0.0
C142 C 0.49851 0.21615 1.00054 0.0
H143 H 0.93643 0.31561 0.94228 0.0
H144 H 0.74227 0.15404 0.9265 0.0
H145 H 0.79625 0.28601 1.01842 0.0
H146 H 0.72207 0.15115 0.03197 0.0
C147 C 0.69062 0.13051 1.00694 0.0
O148 O 0.70258 0.1793 0.98539 0.0
H149 H 0.70236 0.09595 0.99359 0.0
C150 C 0.88815 0.28755 0.95145 0.0
C151 C 0.87266 0.30775 0.98308 0.0
C152 C 0.8419 0.23253 0.93074 0.0
C153 C 0.77858 0.19716 0.94188 0.0
C154 C 0.76242 0.2161 0.97367 0.0
C155 C 0.80923 0.27177 0.99399 0.0
H156 H 0.62731 0.69699 0.11491 0.0
H157 H 0.58428 0.8481 0.13223 0.0
H158 H 0.51791 0.73086 0.03411 0.0
H159 H 0.59182 0.88108 0.03386 0.0
C160 C 0.56995 0.88974 0.05736 0.0
O161 O 0.52667 0.83174 0.07001 0.0
H162 H 0.60985 0.91979 0.07793 0.0
C163 C 0.6053 0.72383 0.10535 0.0
C164 C 0.57132 0.70664 0.07184 0.0
C165 C 0.61024 0.77446 0.12732 0.0
C166 C 0.57996 0.80798 0.11585 0.0
C167 C 0.54799 0.79324 0.08208 0.0
C168 C 0.54286 0.74203 0.06016 0.0
H169 H 0.34804 0.9429 0.11368 0.0
H170 H 0.21594 0.74906 0.13666 0.0
H171 H 0.29706 0.78578 0.03552 0.0
H172 H 0.13986 0.70763 0.04687 0.0
C173 C 0.14486 0.67842 0.06732 0.0
O174 O 0.20984 0.6984 0.0742 0.0
H175 H 0.12433 0.68484 0.09198 0.0
C176 C 0.32227 0.89203 0.10548 0.0
C177 C 0.3307 0.86992 0.07196 0.0
C178 C 0.28142 0.84877 0.12905 0.0
C179 C 0.24896 0.78295 0.11912 0.0
C180 C 0.25221 0.76055 0.08509 0.0
C181 C 0.29406 0.80371 0.06165 0.0
H182 H 0.09789 0.39602 0.11406 0.0
H183 H 0.29402 0.43498 0.13227 0.0
H184 H 0.24222 0.50432 0.04168 0.0
H185 H 0.31736 0.43851 0.029 0.0
C186 C 0.35009 0.45635 0.05366 0.0
O187 O 0.33534 0.49472 0.07481 0.0
H188 H 0.34272 0.41453 0.06828 0.0
C189 C 0.14738 0.41783 0.10634 0.0
C190 C 0.16414 0.4516 0.0755 0.0
C191 C 0.19343 0.41149 0.12738 0.0
C192 C 0.25732 0.43891 0.11669 0.0
C193 C 0.27455 0.47161 0.08567 0.0
C194 C 0.22822 0.47859 0.06541 0.0
H195 H 0.36771 0.9519 0.27754 0.0
H196 H 0.51455 0.90344 0.25781 0.0
H197 H 0.41328 0.84829 0.35256 0.0
H198 H 0.56559 0.92123 0.35583 0.0
C199 C 0.56915 0.89409 0.33232 0.0
O200 O 0.50767 0.85152 0.31715 0.0
H201 H 0.59792 0.92838 0.31266 0.0
C202 C 0.39551 0.92987 0.28582 0.0
C203 C 0.38333 0.89884 0.31776 0.0
C204 C 0.44224 0.93143 0.26375 0.0
C205 C 0.47722 0.9016 0.27394 0.0
C206 C 0.46792 0.87318 0.30619 0.0
C207 C 0.42048 0.87102 0.32787 0.0
H208 H 0.07891 0.41431 0.27813 0.0
H209 H 0.13634 0.60891 0.2599 0.0
H210 H 0.18791 0.56581 0.36043 0.0
H211 H 0.10839 0.64422 0.35173 0.0
C212 C 0.13832 0.67243 0.33033 0.0
O213 O 0.18417 0.65512 0.32353 0.0
H214 H 0.10526 0.66201 0.30634 0.0
C215 C 0.10377 0.46451 0.28762 0.0
C216 C 0.13613 0.48437 0.3217 0.0
C217 C 0.1041 0.50896 0.26509 0.0
C218 C 0.13699 0.57405 0.27669 0.0
C219 C 0.16452 0.59415 0.31134 0.0
C220 C 0.16542 0.54967 0.3338 0.0
H221 H 0.60323 0.64902 0.27577 0.0
H222 H 0.40905 0.48752 0.25988 0.0
H223 H 0.46309 0.61906 0.352 0.0
H224 H 0.38926 0.48289 0.365 0.0
C225 C 0.35735 0.46322 0.34009 0.0
O226 O 0.3694 0.51246 0.31886 0.0
H227 H 0.36805 0.42864 0.32583 0.0
C228 C 0.55495 0.62092 0.28493 0.0
C229 C 0.53947 0.64099 0.3166 0.0
C230 C 0.50869 0.56598 0.26417 0.0
C231 C 0.44537 0.53058 0.2753 0.0
C232 C 0.42923 0.54936 0.30715 0.0
C233 C 0.47605 0.60494 0.32752 0.0
Eu234 Eu 0.47623 0.97567 0.98885 0.0
Eu235 Eu 0.51096 0.04186 0.07169 0.0
C236 C 0.47249 0.10215 1.00964 0.0
C237 C 0.46879 0.97316 0.88839 0.0
C238 C 0.44389 0.01267 0.87883 0.0
C239 C 0.53196 0.00253 0.8363 0.0
C240 C 0.46328 0.04713 0.84863 0.0
C241 C 0.51275 0.96825 0.86663 0.0
C242 C 0.50759 0.04261 0.82687 0.0
C243 C 0.45131 0.93865 0.92133 0.0
O244 O 0.40412 0.97796 0.05873 0.0
O245 O 0.40324 0.90019 1.02296 0.0
C246 C 0.37892 0.91708 0.04914 0.0
O247 O 0.53345 0.93612 1.01405 0.0
O248 O 0.47499 0.07192 0.11666 0.0
O249 O 0.56548 0.07212 0.12318 0.0
O250 O 0.51813 0.95148 0.07255 0.0
C251 C 0.53729 0.92639 0.04749 0.0
O252 O 0.57521 0.06636 0.98917 0.0
O253 O 0.60826 0.08567 0.04876 0.0
O254 O 0.5139 0.11801 0.03735 0.0
O255 O 0.49919 0.94105 0.9404 0.0
O256 O 0.41073 0.94501 0.94091 0.0
O257 O 0.43686 0.04183 0.99775 0.0
C258 C 0.49646 0.03757 0.17029 0.0
C259 C 0.48412 0.97409 0.16933 0.0
C260 C 0.46688 0.02922 0.23133 0.0
C261 C 0.46499 0.93911 0.19936 0.0
C262 C 0.48668 0.06446 0.20133 0.0
C263 C 0.45699 0.96655 0.2309 0.0
C264 C 0.51973 0.07561 0.1391 0.0
C265 C 0.62071 0.09418 1.01536 0.0
H266 H 0.40961 0.01735 0.8947 0.0
H267 H 0.56523 0.99683 0.81998 0.0
H268 H 0.44384 0.07786 0.84255 0.0
H269 H 0.53253 0.93793 0.87316 0.0
H270 H 0.49023 0.95184 0.14547 0.0
H271 H 0.46143 0.05183 0.25524 0.0
H272 H 0.45686 0.89066 0.19801 0.0
H273 H 0.49535 0.11311 0.20256 0.0
Eu274 Eu 0.05291 0.4982 0.99229 0.0
Eu275 Eu 0.98849 0.46858 0.06893 0.0
C276 C 0.92365 0.367 1.00344 0.0
C277 C 0.05448 0.49389 0.89388 0.0
C278 C 0.99267 0.48779 0.89146 0.0
C279 C 0.04354 0.46538 0.83095 0.0
C280 C 0.95674 0.47113 0.85893 0.0
C281 C 0.07969 0.48253 0.8635 0.0
C282 C 0.98172 0.45953 0.82838 0.0
C283 C 0.09145 0.51021 0.92828 0.0
O284 O 0.05419 0.42749 0.06414 0.0
O285 O 0.1295 0.49942 0.03019 0.0
C286 C 0.11422 0.45944 0.05524 0.0
O287 O 0.09493 0.59536 1.02032 0.0
O288 O 0.9525 0.40155 0.11041 0.0
O289 O 0.9582 0.49376 0.11759 0.0
O290 O 0.08184 0.56512 0.0774 0.0
C291 C 0.1072 0.60919 0.05444 0.0
O292 O 0.96259 0.50678 0.98571 0.0
O293 O 0.94769 0.52421 0.04394 0.0
O294 O 0.9099 0.39448 0.02963 0.0
O295 O 0.09248 0.55663 0.94775 0.0
O296 O 0.08059 0.46162 0.94642 0.0
O297 O 0.98339 0.39249 0.99406 0.0
C298 C 0.99069 0.45743 0.16619 0.0
C299 C 0.05669 0.50515 0.16855 0.0
C300 C 1.00101 0.43801 0.22758 0.0
C301 C 0.09411 0.52049 0.20044 0.0
C302 C 0.96329 0.42311 0.19565 0.0
C303 C 0.06642 0.48771 0.23039 0.0
C304 C 0.95138 0.44353 0.13279 0.0
C305 C 0.93787 0.52723 1.01004 0.0
H306 H 0.97204 0.49566 0.91475 0.0
H307 H 0.06416 0.45721 0.80772 0.0
H308 H 0.909 0.46627 0.85777 0.0
H309 H 0.12714 0.48671 0.86497 0.0
H310 H 0.07909 0.53127 0.14584 0.0
H311 H 0.97843 0.41231 0.25039 0.0
H312 H 0.14457 0.55844 0.2018 0.0
H313 H 0.91263 0.38562 0.19412 0.0
Eu314 Eu 0.56709 0.52453 0.06715 0.0
Eu315 Eu 0.52739 0.54762 0.98697 0.0
C316 C 0.5661 0.65105 0.0505 0.0
C317 C 0.57186 0.52474 0.16675 0.0
C318 C 0.51134 0.52145 0.16723 0.0
C319 C 0.58767 0.54872 0.23033 0.0
C320 C 0.48933 0.53221 0.19908 0.0
C321 C 0.60945 0.53769 0.19854 0.0
C322 C 0.52783 0.54708 0.2309 0.0
C323 C 0.59706 0.51715 0.13317 0.0
O324 O 0.63535 0.59306 0.99606 0.0
O325 O 0.64109 0.5228 0.03145 0.0
C326 C 0.66367 0.56129 1.00564 0.0
O327 O 0.50659 0.42588 0.04133 0.0
O328 O 0.55499 0.61399 0.94508 0.0
O329 O 0.47526 0.51635 0.93485 0.0
O330 O 0.52349 0.45137 0.98358 0.0
C331 C 0.50419 0.40933 1.00785 0.0
O332 O 0.46623 0.51181 0.06999 0.0
O333 O 0.43099 0.49482 1.01073 0.0
O334 O 0.52268 0.62152 1.02377 0.0
O335 O 0.55717 0.46754 0.11198 0.0
O336 O 0.62801 0.56892 0.11633 0.0
O337 O 0.60364 0.62878 0.06053 0.0
C338 C 0.54718 0.56105 0.88992 0.0
C339 C 0.57632 0.52294 0.89107 0.0
C340 C 0.57348 0.57913 0.82871 0.0
C341 C 0.60172 0.51115 0.86093 0.0
C342 C 0.54738 0.59038 0.85884 0.0
C343 C 0.59922 0.53795 0.82922 0.0
C344 C 0.51611 0.56922 0.92102 0.0
C345 C 0.41965 0.49183 0.04444 0.0
H346 H 0.48166 0.51175 0.14289 0.0
H347 H 0.61815 0.55948 0.25449 0.0
H348 H 0.44342 0.53126 0.19863 0.0
H349 H 0.65618 0.54035 0.19871 0.0
H350 H 0.57775 0.5008 0.91504 0.0
H351 H 0.57044 0.59987 0.80449 0.0
H352 H 0.62154 0.47947 0.86204 0.0
H353 H 0.52578 0.62049 0.85758 0.0
Eu354 Eu 0.14269 0.30892 0.32215 0.0
Eu355 Eu 0.1778 0.37538 0.40497 0.0
C356 C 0.13944 0.43568 0.3429 0.0
C357 C 0.13515 0.30638 0.22168 0.0
C358 C 0.11023 0.34584 0.21205 0.0
C359 C 0.19848 0.33576 0.16965 0.0
C360 C 0.12968 0.38029 0.18185 0.0
C361 C 0.1792 0.30151 0.19998 0.0
C362 C 0.17408 0.37579 0.16015 0.0
C363 C 0.11758 0.27188 0.25463 0.0
O364 O 0.07089 0.3115 0.39215 0.0
O365 O 0.06967 0.23361 0.3563 0.0
C366 C 0.04553 0.2506 0.38253 0.0
O367 O 0.19957 0.26901 0.34735 0.0
O368 O 0.14201 0.40565 0.44995 0.0
O369 O 0.23243 0.4057 0.45643 0.0
O370 O 0.18493 0.28498 0.4059 0.0
C371 C 0.20341 0.25931 0.3808 0.0
O372 O 0.24189 0.39928 0.3224 0.0
O373 O 0.27505 0.41903 0.38199 0.0
O374 O 0.18091 0.45153 0.37059 0.0
O375 O 0.16536 0.27406 0.27369 0.0
O376 O 0.07715 0.27846 0.27423 0.0
O377 O 0.10363 0.37534 0.33109 0.0
C378 C 0.16348 0.37127 0.50357 0.0
C379 C 0.15113 0.30778 0.50262 0.0
C380 C 0.13387 0.36294 0.56461 0.0
C381 C 0.13197 0.27281 0.53265 0.0
C382 C 0.1537 0.39818 0.53461 0.0
C383 C 0.12397 0.30026 0.56418 0.0
C384 C 0.18675 0.40928 0.47237 0.0
C385 C 0.28746 0.42703 0.34856 0.0
H386 H 0.07586 0.35048 0.22787 0.0
H387 H 0.23181 0.33008 0.15337 0.0
H388 H 0.11022 0.41097 0.17573 0.0
H389 H 0.199 0.27122 0.20656 0.0
H390 H 0.15723 0.28553 0.47877 0.0
H391 H 0.12841 0.38555 0.58851 0.0
H392 H 0.12384 0.22436 0.5313 0.0
H393 H 0.16237 0.44682 0.53582 0.0
Eu394 Eu 0.71958 0.83145 0.32573 0.0
Eu395 Eu 0.65512 0.80206 0.40237 0.0
C396 C 0.59043 0.70023 0.33698 0.0
C397 C 0.72131 0.82725 0.22732 0.0
C398 C 0.65964 0.82146 0.22487 0.0
C399 C 0.71035 0.7987 0.16439 0.0
C400 C 0.62375 0.80491 0.19233 0.0
C401 C 0.74645 0.81573 0.19695 0.0
C402 C 0.64864 0.79313 0.1618 0.0
C403 C 0.7582 0.84336 0.26173 0.0
O404 O 0.72092 0.76106 0.39774 0.0
O405 O 0.79618 0.83285 0.3637 0.0
C406 C 0.78093 0.79298 0.38881 0.0
O407 O 0.76126 0.92867 0.35363 0.0
O408 O 0.61895 0.73512 0.44389 0.0
O409 O 0.62495 0.82748 0.451 0.0
O410 O 0.7484 0.89868 0.41075 0.0
C411 C 0.77361 0.94266 0.38773 0.0
O412 O 0.62916 0.8398 0.31899 0.0
O413 O 0.61406 0.8573 0.37716 0.0
O414 O 0.57662 0.72775 0.36312 0.0
O415 O 0.75947 0.88988 0.28122 0.0
O416 O 0.74705 0.79467 0.27985 0.0
O417 O 0.65019 0.72573 0.32762 0.0
C418 C 0.65725 0.79107 0.49964 0.0
C419 C 0.72328 0.83869 0.50201 0.0
C420 C 0.66749 0.77157 0.56103 0.0
C421 C 0.76068 0.85396 0.53389 0.0
C422 C 0.62979 0.75675 0.5291 0.0
C423 C 0.73294 0.82118 0.56384 0.0
C424 C 0.61797 0.77722 0.46623 0.0
C425 C 0.60387 0.85976 0.34324 0.0
H426 H 0.63907 0.82947 0.24815 0.0
H427 H 0.7309 0.7904 0.14117 0.0
H428 H 0.5761 0.80026 0.19116 0.0
H429 H 0.79379 0.81968 0.19843 0.0
H430 H 0.74572 0.8648 0.4793 0.0
H431 H 0.64487 0.74589 0.58383 0.0
H432 H 0.81117 0.89184 0.53527 0.0
H433 H 0.57911 0.71933 0.52755 0.0
Eu434 Eu 0.23334 0.85757 0.4004 0.0
Eu435 Eu 0.19403 0.88086 0.32019 0.0
C436 C 0.23269 0.98426 0.38372 0.0
C437 C 0.23802 0.8578 0.50001 0.0
C438 C 0.17754 0.85458 0.5005 0.0
C439 C 0.25395 0.8819 0.56358 0.0
C440 C 0.1556 0.86543 0.53236 0.0
C441 C 0.27566 0.87078 0.53179 0.0
C442 C 0.19415 0.88031 0.56417 0.0
C443 C 0.26314 0.85007 0.46642 0.0
O444 O 0.30193 0.92626 0.32946 0.0
O445 O 0.30734 0.85571 0.36472 0.0
C446 C 0.33011 0.89434 0.33899 0.0
O447 O 0.17265 0.75892 0.37461 0.0
O448 O 0.22186 0.94724 0.27829 0.0
O449 O 0.14209 0.84963 0.26802 0.0
O450 O 0.18998 0.78453 0.31689 0.0
C451 C 0.16975 0.74234 0.34108 0.0
O452 O 0.1326 0.84523 0.40315 0.0
O453 O 0.09755 0.82814 0.34386 0.0
O454 O 0.18934 0.95482 0.35695 0.0
O455 O 0.22312 0.80052 0.44524 0.0
O456 O 0.29428 0.90181 0.44958 0.0
O457 O 0.27008 0.96186 0.39382 0.0
C458 C 0.21417 0.89429 0.22316 0.0
C459 C 0.24325 0.85613 0.22435 0.0
C460 C 0.24066 0.91238 0.16197 0.0
C461 C 0.26871 0.84432 0.19424 0.0
C462 C 0.2145 0.92365 0.19207 0.0
C463 C 0.26633 0.87114 0.16252 0.0
C464 C 0.18303 0.90249 0.25421 0.0
C465 C 0.08611 0.82531 0.37755 0.0
H466 H 0.14783 0.84487 0.47617 0.0
H467 H 0.28446 0.89267 0.58772 0.0
H468 H 0.10972 0.86452 0.53193 0.0
H469 H 0.32236 0.87337 0.53194 0.0
H470 H 0.24457 0.83396 0.24832 0.0
H471 H 0.2377 0.93314 0.13775 0.0
H472 H 0.28848 0.81261 0.19538 0.0
H473 H 0.19295 0.95381 0.19078 0.0
Eu474 Eu 0.80931 0.64222 0.65555 0.0
Eu475 Eu 0.84438 0.70869 0.73837 0.0
C476 C 0.806 0.76897 0.67628 0.0
C477 C 0.80181 0.6396 0.5551 0.0
C478 C 0.77703 0.6792 0.54553 0.0
C479 C 0.86502 0.66888 0.50302 0.0
C480 C 0.7965 0.71368 0.51534 0.0
C481 C 0.84573 0.6346 0.53335 0.0
C482 C 0.84077 0.70905 0.49358 0.0
C483 C 0.78426 0.60511 0.58804 0.0
O484 O 0.73747 0.64482 0.72554 0.0
O485 O 0.73628 0.56692 0.68971 0.0
C486 C 0.71212 0.58392 0.71592 0.0
O487 O 0.86624 0.60238 0.68078 0.0
O488 O 0.80857 0.73892 0.78335 0.0
O489 O 0.89904 0.73907 0.78981 0.0
O490 O 0.85149 0.61828 0.73931 0.0
C491 C 0.87003 0.59264 0.71422 0.0
O492 O 0.90847 0.73262 0.6558 0.0
O493 O 0.94164 0.75237 0.71538 0.0
O494 O 0.84744 0.78481 0.70398 0.0
O495 O 0.83208 0.60739 0.60711 0.0
O496 O 0.74377 0.61161 0.60763 0.0
O497 O 0.77025 0.70865 0.66443 0.0
C498 C 0.83014 0.70463 0.83698 0.0
C499 C 0.81787 0.64117 0.83604 0.0
C500 C 0.80057 0.69632 0.89802 0.0
C501 C 0.79877 0.60623 0.86609 0.0
C502 C 0.82034 0.73153 0.86801 0.0
C503 C 0.79074 0.63367 0.89761 0.0
C504 C 0.85335 0.74262 0.80577 0.0
C505 C 0.95404 0.76038 0.68196 0.0
H506 H 0.74278 0.68396 0.5614 0.0
H507 H 0.89825 0.66311 0.4867 0.0
H508 H 0.77716 0.74449 0.50927 0.0
H509 H 0.86542 0.60421 0.53988 0.0
H510 H 0.824 0.61892 0.8122 0.0
H511 H 0.79509 0.71893 0.92192 0.0
H512 H 0.79069 0.5578 0.86476 0.0
H513 H 0.82895 0.78016 0.86921 0.0
Eu514 Eu 0.38618 0.16479 0.65899 0.0
Eu515 Eu 0.32176 0.13532 0.73564 0.0
C516 C 0.25697 0.03357 0.67022 0.0
C517 C 0.38784 0.16051 0.56057 0.0
C518 C 0.32611 0.15459 0.55812 0.0
C519 C 0.37691 0.13198 0.49764 0.0
C520 C 0.29021 0.13799 0.52558 0.0
C521 C 0.41302 0.14906 0.5302 0.0
C522 C 0.31515 0.12628 0.49505 0.0
C523 C 0.42476 0.17673 0.59498 0.0
O524 O 0.38754 0.09432 0.73095 0.0
O525 O 0.46279 0.16614 0.69693 0.0
C526 C 0.44755 0.12625 0.72202 0.0
O527 O 0.42794 0.26199 0.68693 0.0
O528 O 0.2856 0.06832 0.77713 0.0
O529 O 0.29158 0.16067 0.7843 0.0
O530 O 0.41503 0.23193 0.74405 0.0
C531 C 0.44027 0.27595 0.72104 0.0
O532 O 0.2958 0.17322 0.65229 0.0
O533 O 0.28075 0.19065 0.71049 0.0
O534 O 0.24321 0.06108 0.69638 0.0
O535 O 0.42592 0.22321 0.61446 0.0
O536 O 0.41375 0.12809 0.61312 0.0
O537 O 0.31671 0.05907 0.66082 0.0
C538 C 0.32383 0.12417 0.83292 0.0
C539 C 0.38989 0.17174 0.83529 0.0
C540 C 0.33398 0.10468 0.89431 0.0
C541 C 0.42725 0.18699 0.86719 0.0
C542 C 0.29632 0.08989 0.86237 0.0
C543 C 0.39945 0.15425 0.89714 0.0
C544 C 0.28459 0.11037 0.7995 0.0
C545 C 0.27056 0.19318 0.67657 0.0
H546 H 0.3055 0.16254 0.5814 0.0
H547 H 0.3975 0.12373 0.47442 0.0
H548 H 0.24253 0.13325 0.52441 0.0
H549 H 0.46041 0.15311 0.53169 0.0
H550 H 0.41237 0.19782 0.81258 0.0
H551 H 0.31132 0.07904 0.91711 0.0
H552 H 0.47776 0.22483 0.86857 0.0
H553 H 0.24562 0.05251 0.86082 0.0
Eu554 Eu 0.90037 0.19119 0.73374 0.0
Eu555 Eu 0.86057 0.21415 0.65355 0.0
C556 C 0.89939 0.31767 0.71701 0.0
C557 C 0.9052 0.1914 0.83335 0.0
C558 C 0.84463 0.18801 0.83381 0.0
C559 C 0.9209 0.21525 0.89693 0.0
C560 C 0.82256 0.19869 0.86566 0.0
C561 C 0.94275 0.20431 0.86515 0.0
C562 C 0.86104 0.21357 0.89749 0.0
C563 C 0.93053 0.18403 0.79976 0.0
O564 O 0.96852 0.2596 0.66261 0.0
O565 O 0.97426 0.18933 0.69799 0.0
C566 C 0.99684 0.22783 0.67219 0.0
O567 O 0.83955 0.09245 0.70809 0.0
O568 O 0.88804 0.28046 0.61163 0.0
O569 O 0.80851 0.18272 0.60141 0.0
O570 O 0.85649 0.11781 0.65032 0.0
C571 C 0.83643 0.07573 0.67457 0.0
O572 O 0.79951 0.17847 0.73661 0.0
O573 O 0.7642 0.1616 0.67735 0.0
O574 O 0.85591 0.28811 0.69031 0.0
O575 O 0.89086 0.13432 0.77858 0.0
O576 O 0.96118 0.23584 0.78292 0.0
O577 O 0.93696 0.29541 0.72701 0.0
C578 C 0.88043 0.22754 0.5565 0.0
C579 C 0.90968 0.18954 0.55768 0.0
C580 C 0.90682 0.2457 0.4953 0.0
C581 C 0.93518 0.17783 0.52755 0.0
C582 C 0.88063 0.25687 0.52542 0.0
C583 C 0.93267 0.20461 0.49584 0.0
C584 C 0.84926 0.23562 0.58758 0.0
C585 C 0.75291 0.15858 0.71107 0.0
H586 H 0.81499 0.17834 0.80946 0.0
H587 H 0.95136 0.22603 0.9211 0.0
H588 H 0.77663 0.19771 0.8652 0.0
H589 H 0.98951 0.20704 0.86533 0.0
H590 H 0.91112 0.1674 0.58164 0.0
H591 H 0.90376 0.26641 0.47109 0.0
H592 H 0.95507 0.14621 0.52867 0.0
H593 H 0.85894 0.28691 0.52415 0.0
loop_
_geom_bond_atom_site_label_1
_geom_bond_atom_site_label_2
_geom_bond_distance
_geom_bond_site_symmetry_2
_ccdc_geom_bond_type
H0 C7 0.929 . S
H1 C10 0.930 . S
H2 C12 0.929 . S
H3 C4 0.969 . S
C4 H3 0.969 . S
C4 O5 1.550 . S
C4 H6 0.973 . S
O5 C4 1.550 . S
O5 C11 1.412 . S
H6 C4 0.973 . S
C7 H0 0.929 . S
C7 C8 1.400 . S
C7 C9 1.364 . S
C8 C7 1.400 . S
C8 C12 1.377 . S
C9 C7 1.364 . S
C9 C10 1.374 . S
C10 H1 0.930 . S
C10 C9 1.374 . S
C10 C11 1.383 . S
C11 O5 1.412 . S
C11 C10 1.383 . S
C11 C12 1.394 . S
C12 H2 0.929 . S
C12 C8 1.377 . S
C12 C11 1.394 . S
H13 C20 0.929 . S
H14 C23 0.930 . S
H15 C25 0.929 . S
H16 C17 0.969 1_545 S
C17 H16 0.969 1_565 S
C17 O18 1.550 1_565 S
C17 H19 0.973 . S
O18 C17 1.550 1_545 S
O18 C24 1.412 . S
H19 C17 0.973 . S
C20 H13 0.929 . S
C20 C21 1.400 . S
C20 C22 1.364 . S
C21 C20 1.400 . S
C21 C25 1.377 . S
C22 C20 1.364 . S
C22 C23 1.374 . S
C23 H14 0.930 . S
C23 C22 1.374 . S
C23 C24 1.383 . S
C24 O18 1.412 . S
C24 C23 1.383 . S
C24 C25 1.394 . S
C25 H15 0.929 . S
C25 C21 1.377 . S
C25 C24 1.394 . S
H26 C33 0.929 . S
H27 C36 0.930 . S
H28 C38 0.929 . S
H29 C30 0.969 . S
C30 H29 0.969 . S
C30 O31 1.537 1_455 S
C30 H32 0.973 . S
O31 C30 1.537 1_655 S
O31 C37 1.423 . S
H32 C30 0.973 . S
C33 H26 0.929 . S
C33 C34 1.400 . S
C33 C35 1.364 . S
C34 C33 1.400 . S
C34 C38 1.377 . S
C35 C33 1.364 . S
C35 C36 1.374 . S
C36 H27 0.930 . S
C36 C35 1.374 . S
C36 C37 1.383 . S
C37 O31 1.423 . S
C37 C36 1.383 . S
C37 C38 1.394 . S
C38 H28 0.929 . S
C38 C34 1.377 . S
C38 C37 1.394 . S
H39 C46 0.929 . S
H40 C49 0.930 . S
H41 C51 0.929 . S
H42 C43 0.969 . S
C43 H42 0.969 . S
C43 O44 1.550 . S
C43 H45 0.973 . S
O44 C43 1.550 . S
O44 C50 1.412 . S
H45 C43 0.973 . S
C46 H39 0.929 . S
C46 C47 1.400 . S
C46 C48 1.364 . S
C47 C46 1.400 . S
C47 C51 1.377 . S
C48 C46 1.364 . S
C48 C49 1.374 . S
C49 H40 0.930 . S
C49 C48 1.374 . S
C49 C50 1.383 . S
C50 O44 1.412 . S
C50 C49 1.383 . S
C50 C51 1.394 . S
C51 H41 0.929 . S
C51 C47 1.377 . S
C51 C50 1.394 . S
H52 C59 0.929 . S
H53 C62 0.930 . S
H54 C64 0.929 . S
H55 C56 0.969 1_565 S
C56 H55 0.969 1_545 S
C56 O57 1.550 1_545 S
C56 H58 0.973 . S
O57 C56 1.550 1_565 S
O57 C63 1.412 . S
H58 C56 0.973 . S
C59 H52 0.929 . S
C59 C60 1.400 . S
C59 C61 1.364 . S
C60 C59 1.400 . S
C60 C64 1.377 . S
C61 C59 1.364 . S
C61 C62 1.374 . S
C62 H53 0.930 . S
C62 C61 1.374 . S
C62 C63 1.383 . S
C63 O57 1.412 . S
C63 C62 1.383 . S
C63 C64 1.394 . S
C64 H54 0.929 . S
C64 C60 1.377 . S
C64 C63 1.394 . S
H65 C72 0.929 . S
H66 C75 0.930 . S
H67 C77 0.929 . S
H68 C69 0.964 1_455 S
C69 H68 0.964 1_655 S
C69 O70 1.549 1_655 S
C69 H71 0.975 . S
O70 C69 1.549 1_455 S
O70 C76 1.412 . S
H71 C69 0.975 . S
C72 H65 0.929 . S
C72 C73 1.400 . S
C72 C74 1.364 . S
C73 C72 1.400 . S
C73 C77 1.377 . S
C74 C72 1.364 . S
C74 C75 1.374 . S
C75 H66 0.930 . S
C75 C74 1.374 . S
C75 C76 1.383 . S
C76 O70 1.412 . S
C76 C75 1.383 . S
C76 C77 1.394 . S
C77 H67 0.929 . S
C77 C73 1.377 . S
C77 C76 1.394 . S
H78 C85 0.929 . S
H79 C88 0.930 . S
H80 C90 0.929 . S
H81 C82 0.969 . S
C82 H81 0.969 . S
C82 O83 1.550 . S
C82 H84 0.973 . S
O83 C82 1.550 . S
O83 C89 1.412 . S
H84 C82 0.973 . S
C85 H78 0.929 . S
C85 C86 1.400 . S
C85 C87 1.364 . S
C86 C85 1.400 . S
C86 C90 1.377 . S
C87 C85 1.364 . S
C87 C88 1.374 . S
C88 H79 0.930 . S
C88 C87 1.374 . S
C88 C89 1.383 . S
C89 O83 1.412 . S
C89 C88 1.383 . S
C89 C90 1.394 . S
C90 H80 0.929 . S
C90 C86 1.377 . S
C90 C89 1.394 . S
H91 C98 0.929 . S
H92 C101 0.930 . S
H93 C103 0.929 . S
H94 C95 0.969 . S
C95 H94 0.969 . S
C95 O96 1.550 . S
C95 H97 0.973 . S
O96 C95 1.550 . S
O96 C102 1.412 . S
H97 C95 0.973 . S
C98 H91 0.929 . S
C98 C99 1.400 . S
C98 C100 1.364 . S
C99 C98 1.400 . S
C99 C103 1.377 . S
C100 C98 1.364 . S
C100 C101 1.374 . S
C101 H92 0.930 . S
C101 C100 1.374 . S
C101 C102 1.383 . S
C102 O96 1.412 . S
C102 C101 1.383 . S
C102 C103 1.394 . S
C103 H93 0.929 . S
C103 C99 1.377 . S
C103 C102 1.394 . S
H104 C111 0.929 . S
H105 C114 0.930 . S
H106 C116 0.929 . S
H107 C108 0.969 . S
C108 H107 0.969 . S
C108 O109 1.550 . S
C108 H110 0.973 . S
O109 C108 1.550 . S
O109 C115 1.412 . S
H110 C108 0.973 . S
C111 H104 0.929 . S
C111 C112 1.400 . S
C111 C113 1.364 . S
C112 C111 1.400 . S
C112 C116 1.377 . S
C113 C111 1.364 . S
C113 C114 1.374 . S
C114 H105 0.930 . S
C114 C113 1.374 . S
C114 C115 1.383 . S
C115 O109 1.412 . S
C115 C114 1.383 . S
C115 C116 1.394 . S
C116 H106 0.929 . S
C116 C112 1.377 . S
C116 C115 1.394 . S
H117 C124 0.929 . S
H118 C127 0.930 . S
H119 C129 0.929 . S
H120 C121 0.969 . S
C121 H120 0.969 . S
C121 O122 1.550 . S
C121 H123 0.973 . S
O122 C121 1.550 . S
O122 C128 1.412 . S
H123 C121 0.973 . S
C124 H117 0.929 . S
C124 C125 1.400 . S
C124 C126 1.364 . S
C125 C124 1.400 . S
C125 C129 1.377 . S
C126 C124 1.364 . S
C126 C127 1.374 . S
C127 H118 0.930 . S
C127 C126 1.374 . S
C127 C128 1.383 . S
C128 O122 1.412 . S
C128 C127 1.383 . S
C128 C129 1.394 . S
C129 H119 0.929 . S
C129 C125 1.377 . S
C129 C128 1.394 . S
H130 C137 0.929 . S
H131 C140 0.930 . S
H132 C142 0.929 . S
H133 C134 0.969 . S
C134 H133 0.969 . S
C134 O135 1.550 1_556 S
C134 H136 0.973 . S
O135 C134 1.550 1_554 S
O135 C141 1.412 1_554 S
H136 C134 0.973 . S
C137 H130 0.929 . S
C137 C138 1.400 . S
C137 C139 1.364 . S
C138 C137 1.400 . S
C138 C142 1.377 1_556 S
C139 C137 1.364 . S
C139 C140 1.374 . S
C140 H131 0.930 . S
C140 C139 1.374 . S
C140 C141 1.383 . S
C141 O135 1.412 1_556 S
C141 C140 1.383 . S
C141 C142 1.394 1_556 S
C142 H132 0.929 . S
C142 C138 1.377 1_554 S
C142 C141 1.394 1_554 S
H143 C150 0.929 . S
H144 C153 0.930 . S
H145 C155 0.929 1_554 S
H146 C147 0.969 . S
C147 H146 0.969 . S
C147 O148 1.550 . S
C147 H149 0.973 . S
O148 C147 1.550 . S
O148 C154 1.412 . S
H149 C147 0.973 . S
C150 H143 0.929 . S
C150 C151 1.400 . S
C150 C152 1.364 . S
C151 C150 1.400 . S
C151 C155 1.377 . S
C152 C150 1.364 . S
C152 C153 1.374 . S
C153 H144 0.930 . S
C153 C152 1.374 . S
C153 C154 1.383 . S
C154 O148 1.412 . S
C154 C153 1.383 . S
C154 C155 1.394 . S
C155 H145 0.929 1_556 S
C155 C151 1.377 . S
C155 C154 1.394 . S
H156 C163 0.929 . S
H157 C166 0.930 . S
H158 C168 0.929 1_556 S
H159 C160 0.969 . S
C160 H159 0.969 . S
C160 O161 1.550 . S
C160 H162 0.973 . S
O161 C160 1.550 . S
O161 C167 1.412 . S
H162 C160 0.973 . S
C163 H156 0.929 . S
C163 C164 1.400 . S
C163 C165 1.364 . S
C164 C163 1.400 . S
C164 C168 1.377 . S
C165 C163 1.364 . S
C165 C166 1.374 . S
C166 H157 0.930 . S
C166 C165 1.374 . S
C166 C167 1.383 . S
C167 O161 1.412 . S
C167 C166 1.383 . S
C167 C168 1.394 . S
C168 H158 0.929 1_554 S
C168 C164 1.377 . S
C168 C167 1.394 . S
H169 C176 0.929 . S
H170 C179 0.930 . S
H171 C181 0.929 1_556 S
H172 C173 0.969 . S
C173 H172 0.969 . S
C173 O174 1.550 . S
C173 H175 0.973 . S
O174 C173 1.550 . S
O174 C180 1.412 . S
H175 C173 0.973 . S
C176 H169 0.929 . S
C176 C177 1.400 . S
C176 C178 1.364 . S
C177 C176 1.400 . S
C177 C181 1.377 . S
C178 C176 1.364 . S
C178 C179 1.374 . S
C179 H170 0.930 . S
C179 C178 1.374 . S
C179 C180 1.383 . S
C180 O174 1.412 . S
C180 C179 1.383 . S
C180 C181 1.394 . S
C181 H171 0.929 1_554 S
C181 C177 1.377 . S
C181 C180 1.394 . S
H182 C189 0.929 . S
H183 C192 0.930 . S
H184 C194 0.929 . S
H185 C186 0.969 . S
C186 H185 0.969 . S
C186 O187 1.550 . S
C186 H188 0.973 . S
O187 C186 1.550 . S
O187 C193 1.412 . S
H188 C186 0.973 . S
C189 H182 0.929 . S
C189 C190 1.400 . S
C189 C191 1.364 . S
C190 C189 1.400 . S
C190 C194 1.377 . S
C191 C189 1.364 . S
C191 C192 1.374 . S
C192 H183 0.930 . S
C192 C191 1.374 . S
C192 C193 1.383 . S
C193 O187 1.412 . S
C193 C192 1.383 . S
C193 C194 1.394 . S
C194 H184 0.929 . S
C194 C190 1.377 . S
C194 C193 1.394 . S
H195 C202 0.929 . S
H196 C205 0.930 . S
H197 C207 0.929 . S
H198 C199 0.969 . S
C199 H198 0.969 . S
C199 O200 1.550 . S
C199 H201 0.973 . S
O200 C199 1.550 . S
O200 C206 1.412 . S
H201 C199 0.973 . S
C202 H195 0.929 . S
C202 C203 1.400 . S
C202 C204 1.364 . S
C203 C202 1.400 . S
C203 C207 1.377 . S
C204 C202 1.364 . S
C204 C205 1.374 . S
C205 H196 0.930 . S
C205 C204 1.374 . S
C205 C206 1.383 . S
C206 O200 1.412 . S
C206 C205 1.383 . S
C206 C207 1.394 . S
C207 H197 0.929 . S
C207 C203 1.377 . S
C207 C206 1.394 . S
H208 C215 0.929 . S
H209 C218 0.930 . S
H210 C220 0.929 . S
H211 C212 0.969 . S
C212 H211 0.969 . S
C212 O213 1.550 . S
C212 H214 0.973 . S
O213 C212 1.550 . S
O213 C219 1.412 . S
H214 C212 0.973 . S
C215 H208 0.929 . S
C215 C216 1.400 . S
C215 C217 1.364 . S
C216 C215 1.400 . S
C216 C220 1.377 . S
C217 C215 1.364 . S
C217 C218 1.374 . S
C218 H209 0.930 . S
C218 C217 1.374 . S
C218 C219 1.383 . S
C219 O213 1.412 . S
C219 C218 1.383 . S
C219 C220 1.394 . S
C220 H210 0.929 . S
C220 C216 1.377 . S
C220 C219 1.394 . S
H221 C228 0.929 . S
H222 C231 0.930 . S
H223 C233 0.929 . S
H224 C225 0.969 . S
C225 H224 0.969 . S
C225 O226 1.550 . S
C225 H227 0.973 . S
O226 C225 1.550 . S
O226 C232 1.412 . S
H227 C225 0.973 . S
C228 H221 0.929 . S
C228 C229 1.400 . S
C228 C230 1.364 . S
C229 C228 1.400 . S
C229 C233 1.377 . S
C230 C228 1.364 . S
C230 C231 1.374 . S
C231 H222 0.930 . S
C231 C230 1.374 . S
C231 C232 1.383 . S
C232 O226 1.412 . S
C232 C231 1.383 . S
C232 C233 1.394 . S
C233 H223 0.929 . S
C233 C229 1.377 . S
C233 C232 1.394 . S
Eu234 C243 2.828 1_565 S
Eu234 O245 2.392 . S
Eu234 O247 2.418 . S
Eu234 O252 2.373 1_565 S
Eu234 O255 2.488 . S
Eu234 O256 2.471 1_565 S
Eu234 O257 2.349 1_565 S
Eu235 O244 2.373 1_545 S
Eu235 O248 2.488 . S
Eu235 O249 2.471 1_545 S
Eu235 O250 2.349 1_545 S
Eu235 O253 2.392 . S
Eu235 O254 2.418 . S
Eu235 C264 2.828 . S
C236 O254 1.244 . S
C236 O257 1.265 1_554 S
C237 C238 1.379 . S
C237 C241 1.373 1_545 S
C237 C243 1.505 . S
C238 C237 1.379 . S
C238 C240 1.369 . S
C238 H266 0.930 . S
C239 C241 1.384 . S
C239 C242 1.379 1_565 S
C239 H267 0.933 . S
C240 C238 1.369 . S
C240 C242 1.392 . S
C240 H268 0.930 . S
C241 C237 1.373 1_565 S
C241 C239 1.384 . S
C241 H269 0.931 . S
C242 C239 1.379 1_545 S
C242 C240 1.392 . S
C243 Eu234 2.828 1_545 S
C243 C237 1.505 . S
C243 O255 1.249 1_545 S
C243 O256 1.244 . S
O244 Eu235 2.373 1_565 S
O244 C246 1.258 . S
O245 Eu234 2.392 . S
O245 C246 1.242 1_556 S
C246 O244 1.258 . S
C246 O245 1.242 1_554 S
O247 Eu234 2.418 . S
O247 C251 1.244 1_556 S
O248 Eu235 2.488 . S
O248 C264 1.249 . S
O249 Eu235 2.471 1_565 S
O249 C264 1.244 1_565 S
O250 Eu235 2.349 1_565 S
O250 C251 1.265 . S
C251 O247 1.244 1_554 S
C251 O250 1.265 . S
O252 Eu234 2.373 1_545 S
O252 C265 1.258 . S
O253 Eu235 2.392 . S
O253 C265 1.242 1_554 S
O254 Eu235 2.418 . S
O254 C236 1.244 . S
O255 Eu234 2.488 . S
O255 C243 1.249 1_565 S
O256 Eu234 2.471 1_545 S
O256 C243 1.244 . S
O257 Eu234 2.349 1_545 S
O257 C236 1.265 1_556 S
C258 C259 1.379 1_545 S
C258 C262 1.373 . S
C258 C264 1.505 . S
C259 C258 1.379 1_565 S
C259 C261 1.369 . S
C259 H270 0.930 . S
C260 C262 1.383 . S
C260 C263 1.382 1_545 S
C260 H271 0.930 . S
C261 C259 1.369 . S
C261 C263 1.392 . S
C261 H272 0.930 . S
C262 C258 1.373 . S
C262 C260 1.383 . S
C262 H273 0.931 . S
C263 C260 1.382 1_565 S
C263 C261 1.392 . S
C264 Eu235 2.828 . S
C264 O248 1.249 . S
C264 O249 1.244 1_545 S
C264 C258 1.505 . S
C265 O252 1.258 . S
C265 O253 1.242 1_556 S
H266 C238 0.930 . S
H267 C239 0.933 . S
H268 C240 0.930 . S
H269 C241 0.931 . S
H270 C259 0.930 . S
H271 C260 0.930 . S
H272 C261 0.930 . S
H273 C262 0.931 . S
Eu274 C283 2.828 . S
Eu274 O285 2.392 1_556 S
Eu274 O287 2.418 . S
Eu274 O292 2.373 1_455 S
Eu274 O295 2.488 . S
Eu274 O296 2.471 1_455 S
Eu274 O297 2.349 1_455 S
Eu275 O284 2.373 1_655 S
Eu275 O288 2.488 . S
Eu275 O289 2.471 1_655 S
Eu275 O290 2.349 1_655 S
Eu275 O293 2.392 . S
Eu275 O294 2.418 . S
Eu275 C304 2.828 1_655 S
C276 O294 1.244 1_556 S
C276 O297 1.265 . S
C277 C278 1.379 . S
C277 C281 1.373 1_655 S
C277 C283 1.505 1_655 S
C278 C277 1.379 . S
C278 C280 1.369 . S
C278 H306 0.930 . S
C279 C281 1.383 . S
C279 C282 1.382 1_455 S
C279 H307 0.930 . S
C280 C278 1.369 . S
C280 C282 1.392 . S
C280 H308 0.930 . S
C281 C277 1.373 1_455 S
C281 C279 1.383 . S
C281 H309 0.931 . S
C282 C279 1.382 1_655 S
C282 C280 1.392 . S
C283 Eu274 2.828 . S
C283 C277 1.505 1_455 S
C283 O295 1.249 . S
C283 O296 1.244 1_455 S
O284 Eu275 2.373 1_455 S
O284 C286 1.258 . S
O285 Eu274 2.392 1_554 S
O285 C286 1.242 . S
C286 O284 1.258 . S
C286 O285 1.242 . S
O287 Eu274 2.418 . S
O287 C291 1.244 1_556 S
O288 Eu275 2.488 . S
O288 C304 1.249 1_655 S
O289 Eu275 2.471 1_455 S
O289 C304 1.244 . S
O290 Eu275 2.349 1_455 S
O290 C291 1.265 . S
C291 O287 1.244 1_554 S
C291 O290 1.265 . S
O292 Eu274 2.373 1_655 S
O292 C305 1.258 . S
O293 Eu275 2.392 . S
O293 C305 1.242 1_554 S
O294 Eu275 2.418 . S
O294 C276 1.244 1_554 S
O295 Eu274 2.488 . S
O295 C283 1.249 . S
O296 Eu274 2.471 1_655 S
O296 C283 1.244 1_655 S
O297 Eu274 2.349 1_655 S
O297 C276 1.265 . S
C298 C299 1.379 . S
C298 C302 1.373 1_455 S
C298 C304 1.505 . S
C299 C298 1.379 . S
C299 C301 1.369 . S
C299 H310 0.930 . S
C300 C302 1.383 1_455 S
C300 C303 1.382 . S
C300 H311 0.930 1_455 S
C301 C299 1.369 . S
C301 C303 1.392 . S
C301 H312 0.930 . S
C302 C298 1.373 1_655 S
C302 C300 1.383 1_655 S
C302 H313 0.931 . S
C303 C300 1.382 . S
C303 C301 1.392 . S
C304 Eu275 2.828 1_455 S
C304 O288 1.249 1_455 S
C304 O289 1.244 . S
C304 C298 1.505 . S
C305 O292 1.258 . S
C305 O293 1.242 1_556 S
H306 C278 0.930 . S
H307 C279 0.930 . S
H308 C280 0.930 . S
H309 C281 0.931 . S
H310 C299 0.930 . S
H311 C300 0.930 1_655 S
H312 C301 0.930 . S
H313 C302 0.931 . S
Eu314 C323 2.828 . S
Eu314 O325 2.392 . S
Eu314 O327 2.418 . S
Eu314 O332 2.373 . S
Eu314 O335 2.488 . S
Eu314 O336 2.471 . S
Eu314 O337 2.349 . S
Eu315 O324 2.373 . S
Eu315 O328 2.488 . S
Eu315 O329 2.471 . S
Eu315 O330 2.349 . S
Eu315 O333 2.392 1_556 S
Eu315 O334 2.418 . S
Eu315 C344 2.828 . S
C316 O334 1.244 1_554 S
C316 O337 1.265 . S
C317 C318 1.379 . S
C317 C321 1.373 . S
C317 C323 1.505 . S
C318 C317 1.379 . S
C318 C320 1.369 . S
C318 H346 0.930 . S
C319 C321 1.383 . S
C319 C322 1.382 . S
C319 H347 0.930 . S
C320 C318 1.369 . S
C320 C322 1.392 . S
C320 H348 0.930 . S
C321 C317 1.373 . S
C321 C319 1.383 . S
C321 H349 0.931 . S
C322 C319 1.382 . S
C322 C320 1.392 . S
C323 Eu314 2.828 . S
C323 C317 1.505 . S
C323 O335 1.249 . S
C323 O336 1.244 . S
O324 Eu315 2.373 . S
O324 C326 1.258 . S
O325 Eu314 2.392 . S
O325 C326 1.242 1_554 S
C326 O324 1.258 . S
C326 O325 1.242 1_556 S
O327 Eu314 2.418 . S
O327 C331 1.244 . S
O328 Eu315 2.488 . S
O328 C344 1.249 . S
O329 Eu315 2.471 . S
O329 C344 1.244 . S
O330 Eu315 2.349 . S
O330 C331 1.265 1_556 S
C331 O327 1.244 . S
C331 O330 1.265 1_554 S
O332 Eu314 2.373 . S
O332 C345 1.258 . S
O333 Eu315 2.392 1_554 S
O333 C345 1.242 . S
O334 Eu315 2.418 . S
O334 C316 1.244 1_556 S
O335 Eu314 2.488 . S
O335 C323 1.249 . S
O336 Eu314 2.471 . S
O336 C323 1.244 . S
O337 Eu314 2.349 . S
O337 C316 1.265 . S
C338 C339 1.379 . S
C338 C342 1.373 . S
C338 C344 1.505 . S
C339 C338 1.379 . S
C339 C341 1.369 . S
C339 H350 0.930 . S
C340 C342 1.383 . S
C340 C343 1.382 . S
C340 H351 0.930 . S
C341 C339 1.369 . S
C341 C343 1.392 . S
C341 H352 0.930 . S
C342 C338 1.373 . S
C342 C340 1.383 . S
C342 H353 0.931 . S
C343 C340 1.382 . S
C343 C341 1.392 . S
C344 Eu315 2.828 . S
C344 O328 1.249 . S
C344 O329 1.244 . S
C344 C338 1.505 . S
C345 O332 1.258 . S
C345 O333 1.242 . S
H346 C318 0.930 . S
H347 C319 0.930 . S
H348 C320 0.930 . S
H349 C321 0.931 . S
H350 C339 0.930 . S
H351 C340 0.930 . S
H352 C341 0.930 . S
H353 C342 0.931 . S
Eu354 C363 2.828 . S
Eu354 O365 2.392 . S
Eu354 O367 2.418 . S
Eu354 O372 2.373 . S
Eu354 O375 2.488 . S
Eu354 O376 2.471 . S
Eu354 O377 2.349 . S
Eu355 O364 2.373 . S
Eu355 O368 2.488 . S
Eu355 O369 2.471 . S
Eu355 O370 2.349 . S
Eu355 O373 2.392 . S
Eu355 O374 2.418 . S
Eu355 C384 2.828 . S
C356 O374 1.244 . S
C356 O377 1.265 . S
C357 C358 1.379 . S
C357 C361 1.373 . S
C357 C363 1.505 . S
C358 C357 1.379 . S
C358 C360 1.369 . S
C358 H386 0.930 . S
C359 C361 1.383 . S
C359 C362 1.382 . S
C359 H387 0.930 . S
C360 C358 1.369 . S
C360 C362 1.392 . S
C360 H388 0.930 . S
C361 C357 1.373 . S
C361 C359 1.383 . S
C361 H389 0.931 . S
C362 C359 1.382 . S
C362 C360 1.392 . S
C363 Eu354 2.828 . S
C363 C357 1.505 . S
C363 O375 1.249 . S
C363 O376 1.244 . S
O364 Eu355 2.373 . S
O364 C366 1.258 . S
O365 Eu354 2.392 . S
O365 C366 1.242 . S
C366 O364 1.258 . S
C366 O365 1.242 . S
O367 Eu354 2.418 . S
O367 C371 1.244 . S
O368 Eu355 2.488 . S
O368 C384 1.249 . S
O369 Eu355 2.471 . S
O369 C384 1.244 . S
O370 Eu355 2.349 . S
O370 C371 1.265 . S
C371 O367 1.244 . S
C371 O370 1.265 . S
O372 Eu354 2.373 . S
O372 C385 1.258 . S
O373 Eu355 2.392 . S
O373 C385 1.242 . S
O374 Eu355 2.418 . S
O374 C356 1.244 . S
O375 Eu354 2.488 . S
O375 C363 1.249 . S
O376 Eu354 2.471 . S
O376 C363 1.244 . S
O377 Eu354 2.349 . S
O377 C356 1.265 . S
C378 C379 1.379 . S
C378 C382 1.373 . S
C378 C384 1.505 . S
C379 C378 1.379 . S
C379 C381 1.369 . S
C379 H390 0.930 . S
C380 C382 1.383 . S
C380 C383 1.382 . S
C380 H391 0.930 . S
C381 C379 1.369 . S
C381 C383 1.392 . S
C381 H392 0.930 . S
C382 C378 1.373 . S
C382 C380 1.383 . S
C382 H393 0.931 . S
C383 C380 1.382 . S
C383 C381 1.392 . S
C384 Eu355 2.828 . S
C384 O368 1.249 . S
C384 O369 1.244 . S
C384 C378 1.505 . S
C385 O372 1.258 . S
C385 O373 1.242 . S
H386 C358 0.930 . S
H387 C359 0.930 . S
H388 C360 0.930 . S
H389 C361 0.931 . S
H390 C379 0.930 . S
H391 C380 0.930 . S
H392 C381 0.930 . S
H393 C382 0.931 . S
Eu394 C403 2.828 . S
Eu394 O405 2.392 . S
Eu394 O407 2.418 . S
Eu394 O412 2.373 . S
Eu394 O415 2.488 . S
Eu394 O416 2.471 . S
Eu394 O417 2.349 . S
Eu395 O404 2.373 . S
Eu395 O408 2.488 . S
Eu395 O409 2.471 . S
Eu395 O410 2.349 . S
Eu395 O413 2.392 . S
Eu395 O414 2.418 . S
Eu395 C424 2.828 . S
C396 O414 1.244 . S
C396 O417 1.265 . S
C397 C398 1.379 . S
C397 C401 1.373 . S
C397 C403 1.505 . S
C398 C397 1.379 . S
C398 C400 1.369 . S
C398 H426 0.930 . S
C399 C401 1.383 . S
C399 C402 1.382 . S
C399 H427 0.930 . S
C400 C398 1.369 . S
C400 C402 1.392 . S
C400 H428 0.930 . S
C401 C397 1.373 . S
C401 C399 1.383 . S
C401 H429 0.931 . S
C402 C399 1.382 . S
C402 C400 1.392 . S
C403 Eu394 2.828 . S
C403 C397 1.505 . S
C403 O415 1.249 . S
C403 O416 1.244 . S
O404 Eu395 2.373 . S
O404 C406 1.258 . S
O405 Eu394 2.392 . S
O405 C406 1.242 . S
C406 O404 1.258 . S
C406 O405 1.242 . S
O407 Eu394 2.418 . S
O407 C411 1.244 . S
O408 Eu395 2.488 . S
O408 C424 1.249 . S
O409 Eu395 2.471 . S
O409 C424 1.244 . S
O410 Eu395 2.349 . S
O410 C411 1.265 . S
C411 O407 1.244 . S
C411 O410 1.265 . S
O412 Eu394 2.373 . S
O412 C425 1.258 . S
O413 Eu395 2.392 . S
O413 C425 1.242 . S
O414 Eu395 2.418 . S
O414 C396 1.244 . S
O415 Eu394 2.488 . S
O415 C403 1.249 . S
O416 Eu394 2.471 . S
O416 C403 1.244 . S
O417 Eu394 2.349 . S
O417 C396 1.265 . S
C418 C419 1.379 . S
C418 C422 1.373 . S
C418 C424 1.505 . S
C419 C418 1.379 . S
C419 C421 1.369 . S
C419 H430 0.930 . S
C420 C422 1.383 . S
C420 C423 1.382 . S
C420 H431 0.930 . S
C421 C419 1.369 . S
C421 C423 1.392 . S
C421 H432 0.930 . S
C422 C418 1.373 . S
C422 C420 1.383 . S
C422 H433 0.931 . S
C423 C420 1.382 . S
C423 C421 1.392 . S
C424 Eu395 2.828 . S
C424 O408 1.249 . S
C424 O409 1.244 . S
C424 C418 1.505 . S
C425 O412 1.258 . S
C425 O413 1.242 . S
H426 C398 0.930 . S
H427 C399 0.930 . S
H428 C400 0.930 . S
H429 C401 0.931 . S
H430 C419 0.930 . S
H431 C420 0.930 . S
H432 C421 0.930 . S
H433 C422 0.931 . S
Eu434 C443 2.828 . S
Eu434 O445 2.392 . S
Eu434 O447 2.418 . S
Eu434 O452 2.373 . S
Eu434 O455 2.488 . S
Eu434 O456 2.471 . S
Eu434 O457 2.349 . S
Eu435 O444 2.373 . S
Eu435 O448 2.488 . S
Eu435 O449 2.471 . S
Eu435 O450 2.349 . S
Eu435 O453 2.392 . S
Eu435 O454 2.418 1_565 S
Eu435 C464 2.828 . S
C436 O454 1.244 . S
C436 O457 1.265 1_545 S
C437 C438 1.379 . S
C437 C441 1.373 . S
C437 C443 1.505 . S
C438 C437 1.379 . S
C438 C440 1.369 . S
C438 H466 0.930 . S
C439 C441 1.383 . S
C439 C442 1.382 . S
C439 H467 0.930 . S
C440 C438 1.369 . S
C440 C442 1.392 . S
C440 H468 0.930 . S
C441 C437 1.373 . S
C441 C439 1.383 . S
C441 H469 0.931 . S
C442 C439 1.382 . S
C442 C440 1.392 . S
C443 Eu434 2.828 . S
C443 C437 1.505 . S
C443 O455 1.249 . S
C443 O456 1.244 . S
O444 Eu435 2.373 . S
O444 C446 1.258 . S
O445 Eu434 2.392 . S
O445 C446 1.242 . S
C446 O444 1.258 . S
C446 O445 1.242 . S
O447 Eu434 2.418 . S
O447 C451 1.244 . S
O448 Eu435 2.488 . S
O448 C464 1.249 . S
O449 Eu435 2.471 . S
O449 C464 1.244 . S
O450 Eu435 2.349 . S
O450 C451 1.265 . S
C451 O447 1.244 . S
C451 O450 1.265 . S
O452 Eu434 2.373 . S
O452 C465 1.258 . S
O453 Eu435 2.392 . S
O453 C465 1.242 . S
O454 Eu435 2.418 1_545 S
O454 C436 1.244 . S
O455 Eu434 2.488 . S
O455 C443 1.249 . S
O456 Eu434 2.471 . S
O456 C443 1.244 . S
O457 Eu434 2.349 . S
O457 C436 1.265 1_565 S
C458 C459 1.379 . S
C458 C462 1.373 . S
C458 C464 1.505 . S
C459 C458 1.379 . S
C459 C461 1.369 . S
C459 H470 0.930 . S
C460 C462 1.383 . S
C460 C463 1.382 . S
C460 H471 0.930 . S
C461 C459 1.369 . S
C461 C463 1.392 . S
C461 H472 0.930 . S
C462 C458 1.373 . S
C462 C460 1.383 . S
C462 H473 0.931 . S
C463 C460 1.382 . S
C463 C461 1.392 . S
C464 Eu435 2.828 . S
C464 O448 1.249 . S
C464 O449 1.244 . S
C464 C458 1.505 . S
C465 O452 1.258 . S
C465 O453 1.242 . S
H466 C438 0.930 . S
H467 C439 0.930 . S
H468 C440 0.930 . S
H469 C441 0.931 . S
H470 C459 0.930 . S
H471 C460 0.930 . S
H472 C461 0.930 . S
H473 C462 0.931 . S
Eu474 C483 2.828 . S
Eu474 O485 2.392 . S
Eu474 O487 2.418 . S
Eu474 O492 2.373 . S
Eu474 O495 2.488 . S
Eu474 O496 2.471 . S
Eu474 O497 2.349 . S
Eu475 O484 2.373 . S
Eu475 O488 2.488 . S
Eu475 O489 2.471 . S
Eu475 O490 2.349 . S
Eu475 O493 2.392 . S
Eu475 O494 2.418 . S
Eu475 C504 2.828 . S
C476 O494 1.244 . S
C476 O497 1.265 . S
C477 C478 1.379 . S
C477 C481 1.373 . S
C477 C483 1.505 . S
C478 C477 1.379 . S
C478 C480 1.369 . S
C478 H506 0.930 . S
C479 C481 1.383 . S
C479 C482 1.382 . S
C479 H507 0.930 . S
C480 C478 1.369 . S
C480 C482 1.392 . S
C480 H508 0.930 . S
C481 C477 1.373 . S
C481 C479 1.383 . S
C481 H509 0.931 . S
C482 C479 1.382 . S
C482 C480 1.392 . S
C483 Eu474 2.828 . S
C483 C477 1.505 . S
C483 O495 1.249 . S
C483 O496 1.244 . S
O484 Eu475 2.373 . S
O484 C486 1.258 . S
O485 Eu474 2.392 . S
O485 C486 1.242 . S
C486 O484 1.258 . S
C486 O485 1.242 . S
O487 Eu474 2.418 . S
O487 C491 1.244 . S
O488 Eu475 2.488 . S
O488 C504 1.249 . S
O489 Eu475 2.471 . S
O489 C504 1.244 . S
O490 Eu475 2.349 . S
O490 C491 1.265 . S
C491 O487 1.244 . S
C491 O490 1.265 . S
O492 Eu474 2.373 . S
O492 C505 1.258 . S
O493 Eu475 2.392 . S
O493 C505 1.242 . S
O494 Eu475 2.418 . S
O494 C476 1.244 . S
O495 Eu474 2.488 . S
O495 C483 1.249 . S
O496 Eu474 2.471 . S
O496 C483 1.244 . S
O497 Eu474 2.349 . S
O497 C476 1.265 . S
C498 C499 1.379 . S
C498 C502 1.373 . S
C498 C504 1.505 . S
C499 C498 1.379 . S
C499 C501 1.369 . S
C499 H510 0.930 . S
C500 C502 1.383 . S
C500 C503 1.382 . S
C500 H511 0.930 . S
C501 C499 1.369 . S
C501 C503 1.392 . S
C501 H512 0.930 . S
C502 C498 1.373 . S
C502 C500 1.383 . S
C502 H513 0.931 . S
C503 C500 1.382 . S
C503 C501 1.392 . S
C504 Eu475 2.828 . S
C504 O488 1.249 . S
C504 O489 1.244 . S
C504 C498 1.505 . S
C505 O492 1.258 . S
C505 O493 1.242 . S
H506 C478 0.930 . S
H507 C479 0.930 . S
H508 C480 0.930 . S
H509 C481 0.931 . S
H510 C499 0.930 . S
H511 C500 0.930 . S
H512 C501 0.930 . S
H513 C502 0.931 . S
Eu514 C523 2.828 . S
Eu514 O525 2.392 . S
Eu514 O527 2.418 . S
Eu514 O532 2.373 . S
Eu514 O535 2.488 . S
Eu514 O536 2.471 . S
Eu514 O537 2.349 . S
Eu515 O524 2.373 . S
Eu515 O528 2.488 . S
Eu515 O529 2.471 . S
Eu515 O530 2.349 . S
Eu515 O533 2.392 . S
Eu515 O534 2.418 . S
Eu515 C544 2.828 . S
C516 O534 1.244 . S
C516 O537 1.265 . S
C517 C518 1.379 . S
C517 C521 1.373 . S
C517 C523 1.505 . S
C518 C517 1.379 . S
C518 C520 1.369 . S
C518 H546 0.930 . S
C519 C521 1.383 . S
C519 C522 1.382 . S
C519 H547 0.930 . S
C520 C518 1.369 . S
C520 C522 1.392 . S
C520 H548 0.930 . S
C521 C517 1.373 . S
C521 C519 1.383 . S
C521 H549 0.931 . S
C522 C519 1.382 . S
C522 C520 1.392 . S
C523 Eu514 2.828 . S
C523 C517 1.505 . S
C523 O535 1.249 . S
C523 O536 1.244 . S
O524 Eu515 2.373 . S
O524 C526 1.258 . S
O525 Eu514 2.392 . S
O525 C526 1.242 . S
C526 O524 1.258 . S
C526 O525 1.242 . S
O527 Eu514 2.418 . S
O527 C531 1.244 . S
O528 Eu515 2.488 . S
O528 C544 1.249 . S
O529 Eu515 2.471 . S
O529 C544 1.244 . S
O530 Eu515 2.349 . S
O530 C531 1.265 . S
C531 O527 1.244 . S
C531 O530 1.265 . S
O532 Eu514 2.373 . S
O532 C545 1.258 . S
O533 Eu515 2.392 . S
O533 C545 1.242 . S
O534 Eu515 2.418 . S
O534 C516 1.244 . S
O535 Eu514 2.488 . S
O535 C523 1.249 . S
O536 Eu514 2.471 . S
O536 C523 1.244 . S
O537 Eu514 2.349 . S
O537 C516 1.265 . S
C538 C539 1.379 . S
C538 C542 1.373 . S
C538 C544 1.505 . S
C539 C538 1.379 . S
C539 C541 1.369 . S
C539 H550 0.930 . S
C540 C542 1.383 . S
C540 C543 1.382 . S
C540 H551 0.930 . S
C541 C539 1.369 . S
C541 C543 1.392 . S
C541 H552 0.930 . S
C542 C538 1.373 . S
C542 C540 1.383 . S
C542 H553 0.931 . S
C543 C540 1.382 . S
C543 C541 1.392 . S
C544 Eu515 2.828 . S
C544 O528 1.249 . S
C544 O529 1.244 . S
C544 C538 1.505 . S
C545 O532 1.258 . S
C545 O533 1.242 . S
H546 C518 0.930 . S
H547 C519 0.930 . S
H548 C520 0.930 . S
H549 C521 0.931 . S
H550 C539 0.930 . S
H551 C540 0.930 . S
H552 C541 0.930 . S
H553 C542 0.931 . S
Eu554 C563 2.828 . S
Eu554 O565 2.392 . S
Eu554 O567 2.418 . S
Eu554 O572 2.373 . S
Eu554 O575 2.488 . S
Eu554 O576 2.471 . S
Eu554 O577 2.349 . S
Eu555 O564 2.373 . S
Eu555 O568 2.488 . S
Eu555 O569 2.471 . S
Eu555 O570 2.349 . S
Eu555 O573 2.392 . S
Eu555 O574 2.418 . S
Eu555 C584 2.828 . S
C556 O574 1.244 . S
C556 O577 1.265 . S
C557 C558 1.379 . S
C557 C561 1.373 . S
C557 C563 1.505 . S
C558 C557 1.379 . S
C558 C560 1.369 . S
C558 H586 0.930 . S
C559 C561 1.383 . S
C559 C562 1.382 . S
C559 H587 0.930 . S
C560 C558 1.369 . S
C560 C562 1.392 . S
C560 H588 0.930 . S
C561 C557 1.373 . S
C561 C559 1.383 . S
C561 H589 0.931 . S
C562 C559 1.382 . S
C562 C560 1.392 . S
C563 Eu554 2.828 . S
C563 C557 1.505 . S
C563 O575 1.249 . S
C563 O576 1.244 . S
O564 Eu555 2.373 . S
O564 C566 1.249 1_655 S
O565 Eu554 2.392 . S
O565 C566 1.242 1_655 S
C566 O564 1.249 1_455 S
C566 O565 1.242 1_455 S
O567 Eu554 2.418 . S
O567 C571 1.244 . S
O568 Eu555 2.488 . S
O568 C584 1.249 . S
O569 Eu555 2.471 . S
O569 C584 1.244 . S
O570 Eu555 2.349 . S
O570 C571 1.265 . S
C571 O567 1.244 . S
C571 O570 1.265 . S
O572 Eu554 2.373 . S
O572 C585 1.258 . S
O573 Eu555 2.392 . S
O573 C585 1.242 . S
O574 Eu555 2.418 . S
O574 C556 1.244 . S
O575 Eu554 2.488 . S
O575 C563 1.249 . S
O576 Eu554 2.471 . S
O576 C563 1.244 . S
O577 Eu554 2.349 . S
O577 C556 1.265 . S
C578 C579 1.379 . S
C578 C582 1.373 . S
C578 C584 1.505 . S
C579 C578 1.379 . S
C579 C581 1.369 . S
C579 H590 0.930 . S
C580 C582 1.383 . S
C580 C583 1.382 . S
C580 H591 0.930 . S
C581 C579 1.369 . S
C581 C583 1.392 . S
C581 H592 0.930 . S
C582 C578 1.373 . S
C582 C580 1.383 . S
C582 H593 0.931 . S
C583 C580 1.382 . S
C583 C581 1.392 . S
C584 Eu555 2.828 . S
C584 O568 1.249 . S
C584 O569 1.244 . S
C584 C578 1.505 . S
C585 O572 1.258 . S
C585 O573 1.242 . S
H586 C558 0.930 . S
H587 C559 0.930 . S
H588 C560 0.930 . S
H589 C561 0.931 . S
H590 C579 0.930 . S
H591 C580 0.930 . S
H592 C581 0.930 . S
H593 C582 0.931 . S
C177 C246 1.786 . S
C190 C286 1.894 . S
C164 C316 1.630 . S
C151 C276 1.507 . S
C326 C125 1.611 . S
C138 C236 1.464 1_556 S
C265 C147 2.028 . S
C305 C121 1.703 . S
C134 C331 1.901 1_556 S
C173 C291 1.724 . S
C186 C345 1.717 . S
C251 C160 1.922 . S
C366 C21 1.787 1_455 S
C34 C406 1.895 . S
C8 C436 1.631 . S
C229 C396 1.507 . S
C203 C446 1.611 . S
C216 C356 1.464 . S
C225 C385 2.028 . S
C199 C425 1.702 . S
C451 C212 1.900 . S
C17 C411 1.724 . S
C465 C30 1.717 . S
C4 C371 1.922 . S
C486 C99 1.786 . S
C112 C526 1.894 . S
C556 C86 1.631 . S
C516 C73 1.507 1_545 S
C566 C47 1.619 . S
C60 C476 1.464 . S
C69 C505 2.035 . S
C43 C545 1.703 . S
C571 C56 1.901 . S
C95 C531 1.724 . S
C108 C585 1.717 . S
C82 C491 1.922 . S
C204 C263 2.091 . S
C303 C217 2.352 . S
C230 C322 1.625 . S
C87 C282 1.875 . S
C100 C343 1.872 . S
C242 C113 1.382 . S
C48 C383 2.091 . S
C61 C423 2.352 . S
C74 C442 1.625 . S
C165 C402 1.875 . S
C463 C178 1.872 . S
C191 C362 1.382 . S
C126 C503 2.090 . S
C139 C543 2.352 . S
C562 C152 1.625 . S
C9 C522 1.875 . S
C22 C583 1.872 . S
C35 C482 1.382 . S
