# Generated by pormake.
# Topology dag, (6,3)-cn, num edge types: 1
# Building blocks:
#     Node 0, Type 0, BuildingBlock: IZENUY_clean_sbu_0, # of connection points: 6
#     Node 1, Type 0, BuildingBlock: IZENUY_clean_sbu_0, # of connection points: 6
#     Node 2, Type 0, BuildingBlock: IZENUY_clean_sbu_0, # of connection points: 6
#     Node 3, Type 0, BuildingBlock: IZENUY_clean_sbu_0, # of connection points: 6
#     Node 4, Type 1, BuildingBlock: INOVEN_clean_linker_0, # of connection points: 3
#     Node 5, Type 1, BuildingBlock: INOVEN_clean_linker_0, # of connection points: 3
#     Node 6, Type 1, BuildingBlock: INOVEN_clean_linker_0, # of connection points: 3
#     Node 7, Type 1, BuildingBlock: INOVEN_clean_linker_0, # of connection points: 3
#     Node 8, Type 1, BuildingBlock: INOVEN_clean_linker_0, # of connection points: 3
#     Node 9, Type 1, BuildingBlock: INOVEN_clean_linker_0, # of connection points: 3
#     Node 10, Type 1, BuildingBlock: INOVEN_clean_linker_0, # of connection points: 3
#     Node 11, Type 1, BuildingBlock: INOVEN_clean_linker_0, # of connection points: 3
#     Edge 12, Type (0, 1), BuildingBlock: CIFDUS_clean_linker_0, # of connection points: 2
#     Edge 13, Type (0, 1), BuildingBlock: CIFDUS_clean_linker_0, # of connection points: 2
#     Edge 14, Type (0, 1), BuildingBlock: CIFDUS_clean_linker_0, # of connection points: 2
#     Edge 15, Type (0, 1), BuildingBlock: CIFDUS_clean_linker_0, # of connection points: 2
#     Edge 16, Type (0, 1), BuildingBlock: CIFDUS_clean_linker_0, # of connection points: 2
#     Edge 17, Type (0, 1), BuildingBlock: CIFDUS_clean_linker_0, # of connection points: 2
#     Edge 18, Type (0, 1), BuildingBlock: CIFDUS_clean_linker_0, # of connection points: 2
#     Edge 19, Type (0, 1), BuildingBlock: CIFDUS_clean_linker_0, # of connection points: 2
#     Edge 20, Type (0, 1), BuildingBlock: CIFDUS_clean_linker_0, # of connection points: 2
#     Edge 21, Type (0, 1), BuildingBlock: CIFDUS_clean_linker_0, # of connection points: 2
#     Edge 22, Type (0, 1), BuildingBlock: CIFDUS_clean_linker_0, # of connection points: 2
#     Edge 23, Type (0, 1), BuildingBlock: CIFDUS_clean_linker_0, # of connection points: 2
#     Edge 24, Type (0, 1), BuildingBlock: CIFDUS_clean_linker_0, # of connection points: 2
#     Edge 25, Type (0, 1), BuildingBlock: CIFDUS_clean_linker_0, # of connection points: 2
#     Edge 26, Type (0, 1), BuildingBlock: CIFDUS_clean_linker_0, # of connection points: 2
#     Edge 27, Type (0, 1), BuildingBlock: CIFDUS_clean_linker_0, # of connection points: 2
#     Edge 28, Type (0, 1), BuildingBlock: CIFDUS_clean_linker_0, # of connection points: 2
#     Edge 29, Type (0, 1), BuildingBlock: CIFDUS_clean_linker_0, # of connection points: 2
#     Edge 30, Type (0, 1), BuildingBlock: CIFDUS_clean_linker_0, # of connection points: 2
#     Edge 31, Type (0, 1), BuildingBlock: CIFDUS_clean_linker_0, # of connection points: 2
#     Edge 32, Type (0, 1), BuildingBlock: CIFDUS_clean_linker_0, # of connection points: 2
#     Edge 33, Type (0, 1), BuildingBlock: CIFDUS_clean_linker_0, # of connection points: 2
#     Edge 34, Type (0, 1), BuildingBlock: CIFDUS_clean_linker_0, # of connection points: 2
#     Edge 35, Type (0, 1), BuildingBlock: CIFDUS_clean_linker_0, # of connection points: 2
# Relax obj value: 0.097
# Max RMSD: 0.110
# Mean RMSD: 0.093
data_MOF--net-dag--node1-IZENUY_clean_sbu_0--node2-INOVEN_clean_linker_0--edge1-CIFDUS_clean_linker_0
_symmetry_space_group_name_H-M    P1
_symmetry_Int_Tables_number       1
_symmetry_cell_setting            triclinic
loop_
_symmetry_equiv_pos_as_xyz
'x, y, z'
_cell_length_a     33.66137
_cell_length_b     36.092465
_cell_length_c     31.064591
_cell_angle_alpha  93.81744
_cell_angle_beta   90.048026
_cell_angle_gamma 90.056305
loop_
_atom_site_label
_atom_site_type_symbol
_atom_site_fract_x
_atom_site_fract_y
_atom_site_fract_z
_atom_type_partial_charge
Fe0 Fe 0.19231 0.85867 0.06653 0.0
Fe1 Fe 0.10478 0.87027 0.0471 0.0
O2 O 0.14454 0.83997 0.05571 0.0
Fe3 Fe 0.13585 0.79144 0.05302 0.0
O4 O 0.15325 0.78778 0.10769 0.0
O5 O 0.20656 0.8228 0.1028 0.0
O6 O 0.17496 0.88596 0.11418 0.0
C7 C 0.14825 0.91013 0.11237 0.0
C8 C 0.21065 0.79845 0.01194 0.0
O9 O 0.12479 0.9095 0.08061 0.0
C10 C 0.08965 0.81122 0.98662 0.0
O11 O 0.18604 0.89757 0.03109 0.0
O12 O 0.12839 0.88593 0.99949 0.0
O13 O 0.18502 0.77905 0.03027 0.0
O14 O 0.21299 0.83298 0.02025 0.0
C15 C 0.06959 0.82264 0.09902 0.0
O16 O 0.07658 0.83728 0.01167 0.0
O17 O 0.11848 0.79185 0.99755 0.0
C18 C 0.16228 0.90091 -0.00033 0.0
O19 O 0.08007 0.85568 0.0944 0.0
O20 O 0.08481 0.79587 0.07584 0.0
C21 C 0.18633 0.79938 0.12221 0.0
Fe22 Fe 0.68406 0.65323 0.49602 0.0
Fe23 Fe 0.62276 0.71628 0.51264 0.0
O24 O 0.63545 0.6684 0.51035 0.0
Fe25 Fe 0.59889 0.63576 0.52249 0.0
O26 O 0.63322 0.60288 0.54477 0.0
O27 O 0.69117 0.63069 0.546 0.0
O28 O 0.70844 0.69438 0.52306 0.0
C29 C 0.69576 0.71868 0.5513 0.0
C30 C 0.63347 0.59963 0.45215 0.0
O31 O 0.65935 0.72682 0.55405 0.0
C32 C 0.55691 0.6861 0.47419 0.0
O33 O 0.68112 0.67435 0.44494 0.0
O34 O 0.65752 0.72822 0.46993 0.0
O35 O 0.60223 0.61303 0.4692 0.0
O36 O 0.6675 0.60939 0.46674 0.0
C37 C 0.58216 0.68961 0.58457 0.0
O38 O 0.58538 0.70836 0.47082 0.0
O39 O 0.55724 0.66228 0.50221 0.0
C40 C 0.67431 0.70815 0.44028 0.0
O41 O 0.58552 0.71328 0.5563 0.0
O42 O 0.59387 0.65679 0.57649 0.0
C43 C 0.66787 0.60699 0.55991 0.0
Fe44 Fe 0.86655 0.20525 0.99876 0.0
Fe45 Fe 0.88749 0.12426 0.00958 0.0
O46 O 0.85187 0.15798 0.9979 0.0
Fe47 Fe 0.80225 0.14426 0.98583 0.0
O48 O 0.80394 0.16456 0.93415 0.0
O49 O 0.83205 0.21745 0.95617 0.0
O50 O 0.90356 0.19551 0.95675 0.0
C51 C 0.93191 0.17339 0.96143 0.0
C52 C 0.79439 0.21088 0.03961 0.0
O53 O 0.93005 0.14953 0.98932 0.0
C54 C 0.81907 0.09822 0.04979 0.0
O55 O 0.90331 0.20171 0.04259 0.0
O56 O 0.89378 0.14541 0.06345 0.0
O57 O 0.77988 0.18633 0.01286 0.0
O58 O 0.83103 0.218 0.04035 0.0
C59 C 0.84987 0.08908 0.94066 0.0
O60 O 0.85249 0.09231 0.03242 0.0
O61 O 0.79618 0.12265 0.03676 0.0
C62 C 0.90461 0.17857 0.07161 0.0
O63 O 0.88229 0.10155 0.95623 0.0
O64 O 0.81677 0.0999 0.95682 0.0
C65 C 0.81284 0.19772 0.92808 0.0
Fe66 Fe 0.39294 0.35878 0.51613 0.0
Fe67 Fe 0.30942 0.34344 0.54883 0.0
O68 O 0.35701 0.32717 0.53231 0.0
Fe69 Fe 0.36941 0.27941 0.53178 0.0
O70 O 0.40948 0.2887 0.57051 0.0
O71 O 0.43573 0.33228 0.5337 0.0
O72 O 0.39321 0.38271 0.56884 0.0
C73 C 0.36296 0.39664 0.5875 0.0
C74 C 0.40555 0.30319 0.45542 0.0
O75 O 0.32816 0.38768 0.57466 0.0
C76 C 0.2942 0.27619 0.49833 0.0
O77 O 0.35765 0.39158 0.49542 0.0
O78 O 0.29981 0.36399 0.49799 0.0
O79 O 0.40375 0.28049 0.48501 0.0
O80 O 0.39386 0.33611 0.46279 0.0
C81 C 0.32187 0.29108 0.60707 0.0
O82 O 0.28324 0.30179 0.52583 0.0
O83 O 0.33033 0.26755 0.49365 0.0
C84 C 0.32255 0.38701 0.48188 0.0
O85 O 0.31493 0.32454 0.6008 0.0
O86 O 0.33729 0.26965 0.57772 0.0
C87 C 0.4383 0.3096 0.56288 0.0
H88 H 0.05242 0.18514 0.31076 0.0
H89 H 0.03777 0.09844 0.2107 0.0
H90 H 0.14376 0.10233 0.28795 0.0
N91 N 0.12535 0.16208 0.33641 0.0
N92 N 0.11564 0.19072 0.35856 0.0
C93 C 0.06315 0.15986 0.29394 0.0
C94 C 0.04049 0.1427 0.26043 0.0
C95 C 0.10021 0.14465 0.30458 0.0
C96 C 0.11452 0.11296 0.2809 0.0
C97 C 0.09241 0.09655 0.24651 0.0
C98 C 0.05501 0.11096 0.23742 0.0
H99 H 0.32267 0.58793 0.77578 0.0
H100 H 0.42929 0.58962 0.69972 0.0
H101 H 0.40368 0.68041 0.79177 0.0
N102 N 0.33408 0.65121 0.81976 0.0
N103 N 0.34019 0.68198 0.83926 0.0
C104 C 0.3499 0.6015 0.76681 0.0
C105 C 0.37475 0.58445 0.73526 0.0
C106 C 0.36007 0.63584 0.7875 0.0
C107 C 0.39548 0.65376 0.77616 0.0
C108 C 0.42066 0.63667 0.74487 0.0
C109 C 0.41012 0.60221 0.72465 0.0
H110 H 0.76869 0.93047 0.22985 0.0
H111 H 0.88749 0.93113 0.17872 0.0
H112 H 0.84581 0.83585 0.2403 0.0
N113 N 0.77367 0.86431 0.26249 0.0
N114 N 0.77595 0.83101 0.27074 0.0
C115 C 0.79681 0.91665 0.22325 0.0
C116 C 0.82723 0.93503 0.20215 0.0
C117 C 0.80318 0.88081 0.2372 0.0
C118 C 0.84007 0.86311 0.22903 0.0
C119 C 0.87052 0.88151 0.20849 0.0
C120 C 0.86384 0.91717 0.19501 0.0
H121 H 0.72192 0.42551 0.72934 0.0
H122 H 0.62984 0.41711 0.6333 0.0
H123 H 0.66507 0.32006 0.69605 0.0
N124 N 0.7211 0.35471 0.74737 0.0
N125 N 0.72028 0.32069 0.75228 0.0
C126 C 0.70074 0.40888 0.71017 0.0
C127 C 0.67628 0.42562 0.68053 0.0
C128 C 0.69706 0.37072 0.71595 0.0
C129 C 0.66869 0.34939 0.69161 0.0
C130 C 0.64485 0.36601 0.66138 0.0
C131 C 0.64887 0.40401 0.65606 0.0
H132 H 0.58818 0.3115 0.25962 0.0
H133 H 0.56618 0.40756 0.34513 0.0
H134 H 0.67481 0.39965 0.27223 0.0
N135 N 0.65729 0.33276 0.23074 0.0
N136 N 0.6908 0.34334 0.2197 0.0
C137 C 0.5976 0.33829 0.27394 0.0
C138 C 0.57293 0.3581 0.30339 0.0
C139 C 0.63418 0.35315 0.26225 0.0
C140 C 0.64659 0.38794 0.28113 0.0
C141 C 0.62196 0.40804 0.31083 0.0
C142 C 0.58515 0.3928 0.32158 0.0
H143 H 0.24181 0.08416 0.83773 0.0
H144 H 0.14371 0.0925 0.92602 0.0
H145 H 0.16508 0.18017 0.84189 0.0
N146 N 0.23001 0.14796 0.80291 0.0
N147 N 0.22747 0.18084 0.79326 0.0
C148 C 0.21665 0.0995 0.85142 0.0
C149 C 0.19395 0.08464 0.88381 0.0
C150 C 0.20669 0.13407 0.83628 0.0
C151 C 0.17342 0.15368 0.85367 0.0
C152 C 0.15089 0.13888 0.88643 0.0
C153 C 0.1614 0.10441 0.9012 0.0
H154 H 0.26651 0.56777 0.31997 0.0
H155 H 0.38528 0.5592 0.36988 0.0
H156 H 0.34532 0.66247 0.32529 0.0
N157 N 0.27314 0.63761 0.29796 0.0
N158 N 0.27913 0.67059 0.29006 0.0
C159 C 0.29497 0.58033 0.32836 0.0
C160 C 0.3251 0.55903 0.34596 0.0
C161 C 0.30214 0.6176 0.32022 0.0
C162 C 0.33925 0.63378 0.33132 0.0
C163 C 0.36934 0.61263 0.34862 0.0
C164 C 0.36213 0.57538 0.35569 0.0
H165 H 0.85652 0.90337 0.75278 0.0
H166 H 0.95096 0.89709 0.84549 0.0
H167 H 0.91541 0.79922 0.76941 0.0
N168 N 0.85872 0.83279 0.72372 0.0
N169 N 0.86539 0.801 0.70701 0.0
C170 C 0.87927 0.88759 0.76814 0.0
C171 C 0.90384 0.90512 0.79995 0.0
C172 C 0.88403 0.84967 0.75594 0.0
C173 C 0.91259 0.82883 0.77705 0.0
C174 C 0.93687 0.84608 0.80904 0.0
C175 C 0.9329 0.88418 0.8197 0.0
H176 H 0.13215 0.97995 0.09475 0.0
H177 H 0.16203 0.91275 0.19964 0.0
H178 H 0.1508 0.96618 0.25158 0.0
H179 H 0.12564 0.03065 0.26676 0.0
H180 H 0.09658 0.09616 0.15984 0.0
H181 H 0.11461 0.0448 0.10892 0.0
C182 C 0.13651 0.97709 0.129 0.0
C183 C 0.14721 0.94257 0.14362 0.0
C184 C 0.12993 0.00756 0.15819 0.0
C185 C 0.15365 0.93923 0.18785 0.0
C186 C 0.14704 0.96966 0.21744 0.0
C187 C 0.12397 0.03368 0.23231 0.0
C188 C 0.10904 0.06673 0.21695 0.0
C189 C 0.1342 0.00377 0.203 0.0
C190 C 0.10717 0.07061 0.17229 0.0
C191 C 0.11753 0.04135 0.14318 0.0
H192 H 0.5845 0.65625 0.65955 0.0
H193 H 0.51827 0.73654 0.59199 0.0
H194 H 0.46338 0.73262 0.64312 0.0
H195 H 0.42943 0.69641 0.69732 0.0
H196 H 0.49495 0.61336 0.76093 0.0
H197 H 0.5551 0.62856 0.72174 0.0
C198 C 0.55849 0.6737 0.65681 0.0
C199 C 0.5551 0.69616 0.62173 0.0
C200 C 0.52671 0.67039 0.68541 0.0
C201 C 0.52155 0.71898 0.61872 0.0
C202 C 0.48997 0.71644 0.6477 0.0
C203 C 0.45735 0.68281 0.70367 0.0
C204 C 0.45811 0.65391 0.7318 0.0
C205 C 0.49145 0.69084 0.67981 0.0
C206 C 0.49405 0.63584 0.7395 0.0
C207 C 0.52826 0.64431 0.71685 0.0
H208 H 0.85804 0.08616 0.12233 0.0
H209 H 0.75313 0.0539 0.04987 0.0
H210 H 0.74231 0.00209 0.09606 0.0
H211 H 0.7696 0.96057 0.14963 0.0
H212 H 0.87493 0.99424 0.22111 0.0
H213 H 0.87829 0.05141 0.18361 0.0
C214 C 0.83219 0.06835 0.11756 0.0
C215 C 0.80649 0.07345 0.08293 0.0
C216 C 0.82652 0.03874 0.14387 0.0
C217 C 0.77308 0.05043 0.07669 0.0
C218 C 0.76715 0.0207 0.10284 0.0
C219 C 0.79246 0.98104 0.15783 0.0
C220 C 0.82237 0.97304 0.1875 0.0
C221 C 0.79458 0.01375 0.13552 0.0
C222 C 0.85194 -0.00033 0.19791 0.0
C223 C 0.85397 0.03226 0.1764 0.0
H224 H 0.5109 0.32045 0.5304 0.0
H225 H 0.45083 0.29397 0.64694 0.0
H226 H 0.51292 0.30338 0.68778 0.0
H227 H 0.58142 0.32902 0.69157 0.0
H228 H 0.63916 0.3578 0.57456 0.0
H229 H 0.58108 0.33707 0.53235 0.0
C230 C 0.51159 0.3161 0.56464 0.0
C231 C 0.47641 0.30717 0.58591 0.0
C232 C 0.54694 0.32219 0.58774 0.0
C233 C 0.47767 0.30094 0.63001 0.0
C234 C 0.51306 0.30658 0.65334 0.0
C235 C 0.58155 0.32957 0.6567 0.0
C236 C 0.61418 0.345 0.63601 0.0
C237 C 0.54751 0.31858 0.6328 0.0
C238 C 0.61416 0.34607 0.59094 0.0
C239 C 0.58095 0.33445 0.56691 0.0
H240 H 0.68769 0.54583 0.42588 0.0
H241 H 0.56852 0.58398 0.40265 0.0
H242 H 0.55646 0.5304 0.35304 0.0
H243 H 0.57693 0.46992 0.32139 0.0
H244 H 0.69403 0.42835 0.34679 0.0
H245 H 0.70999 0.48608 0.38947 0.0
C246 C 0.65936 0.54266 0.40941 0.0
C247 C 0.62904 0.56898 0.41822 0.0
C248 C 0.6521 0.51094 0.38144 0.0
C249 C 0.5924 0.56428 0.3967 0.0
C250 C 0.58535 0.5335 0.36831 0.0
C251 C 0.60604 0.47354 0.33612 0.0
C252 C 0.63403 0.44471 0.33144 0.0
C253 C 0.61456 0.50623 0.36133 0.0
C254 C 0.67194 0.45016 0.34986 0.0
C255 C 0.68096 0.48306 0.37454 0.0
H256 H 0.00291 0.17906 -0.00023 0.0
H257 H 0.94641 0.17824 0.87531 0.0
H258 H 0.01165 0.1733 0.83979 0.0
H259 H 0.0838 0.15938 0.845 0.0
H260 H 0.1385 0.15923 0.97052 0.0
H261 H 0.07513 0.17522 0.00501 0.0
C262 C 0.00506 0.17859 0.96486 0.0
C263 C 0.97027 0.17855 0.93998 0.0
C264 C 0.04232 0.17542 0.94502 0.0
C265 C 0.97305 0.17833 0.89492 0.0
C266 C 0.01026 0.17526 0.87472 0.0
C267 C 0.08191 0.16408 0.87979 0.0
C268 C 0.11549 0.15792 0.90535 0.0
C269 C 0.04502 0.17243 0.89947 0.0
C270 C 0.11286 0.16371 0.95039 0.0
C271 C 0.07665 0.17261 0.97009 0.0
H272 H 0.35595 0.40157 0.40693 0.0
H273 H 0.25697 0.43143 0.48975 0.0
H274 H 0.24386 0.48596 0.44867 0.0
H275 H 0.26904 0.53068 0.39773 0.0
H276 H 0.36913 0.50012 0.31653 0.0
H277 H 0.37285 0.43983 0.34748 0.0
C278 C 0.33077 0.41947 0.41502 0.0
C279 C 0.30759 0.41298 0.45122 0.0
C280 C 0.32392 0.45076 0.39174 0.0
C281 C 0.27499 0.43602 0.46171 0.0
C282 C 0.26778 0.46731 0.43848 0.0
C283 C 0.29064 0.5102 0.38584 0.0
C284 C 0.31912 0.51979 0.3554 0.0
C285 C 0.29318 0.47583 0.40461 0.0
C286 C 0.34719 0.49327 0.34025 0.0
C287 C 0.34947 0.45895 0.3581 0.0
H288 H 0.01782 0.78184 0.9673 0.0
H289 H 0.12042 0.83165 0.91191 0.0
H290 H 0.08268 0.84233 0.84646 0.0
H291 H 0.01711 0.84789 0.81186 0.0
H292 H 0.91465 0.79767 0.86711 0.0
H293 H 0.95562 0.7758 0.92542 0.0
C294 C 0.03217 0.79356 0.94002 0.0
C295 C 0.07162 0.80578 0.94382 0.0
C296 C 0.01013 0.79992 0.90288 0.0
C297 C 0.09013 0.82157 0.90901 0.0
C298 C 0.06844 0.82805 0.8719 0.0
C299 C 0.00426 0.831 0.8359 0.0
C300 C 0.96318 0.82436 0.83565 0.0
C301 C 0.02795 0.81886 0.86937 0.0
C302 C 0.94638 0.80275 0.86682 0.0
C303 C 0.9697 0.79058 0.90028 0.0
H304 H 0.91377 0.06387 0.89421 0.0
H305 H 0.7889 0.04288 0.913 0.0
H306 H 0.7935 0.986 0.86597 0.0
H307 H 0.83486 0.93855 0.82642 0.0
H308 H 0.95995 0.95918 0.81009 0.0
H309 H 0.95333 0.01999 0.84888 0.0
C310 C 0.88741 0.04708 0.88775 0.0
C311 C 0.8512 0.05738 0.90774 0.0
C312 C 0.89037 0.0142 0.86119 0.0
C313 C 0.81725 0.03554 0.89834 0.0
C314 C 0.81987 0.00291 0.87151 0.0
C315 C 0.86038 0.95683 0.83044 0.0
C316 C 0.89788 0.94441 0.81569 0.0
C317 C 0.85651 0.99146 0.85368 0.0
C318 C 0.93086 0.96812 0.82148 0.0
C319 C 0.92711 0.0028 0.84375 0.0
H320 H 0.40533 0.33901 0.38215 0.0
H321 H 0.467 0.25336 0.44586 0.0
H322 H 0.52339 0.25836 0.39694 0.0
H323 H 0.56022 0.29669 0.34708 0.0
H324 H 0.5002 0.38679 0.2901 0.0
H325 H 0.43813 0.37066 0.32517 0.0
C326 C 0.43067 0.32068 0.38453 0.0
C327 C 0.43237 0.29642 0.41808 0.0
C328 C 0.46366 0.32517 0.358 0.0
C329 C 0.46501 0.27238 0.42041 0.0
C330 C 0.49751 0.2756 0.39279 0.0
C331 C 0.53314 0.31192 0.34146 0.0
C332 C 0.53444 0.34291 0.31643 0.0
C333 C 0.498 0.30335 0.36314 0.0
C334 C 0.49957 0.3629 0.30946 0.0
C335 C 0.46424 0.35374 0.32956 0.0
H336 H 0.22147 0.95286 0.00025 0.0
H337 H 0.12134 0.90974 0.92551 0.0
H338 H 0.12674 0.96057 0.8782 0.0
H339 H 0.15333 0.02195 0.8647 0.0
H340 H 0.25171 0.06672 0.93994 0.0
H341 H 0.25418 0.01036 0.97999 0.0
C342 C 0.20134 0.95419 0.97312 0.0
C343 C 0.17051 0.92798 0.96707 0.0
C344 C 0.20421 0.98391 0.94624 0.0
C345 C 0.14489 0.92993 0.93148 0.0
C346 C 0.14792 0.95899 0.90431 0.0
C347 C 0.17604 0.01866 0.88898 0.0
C348 C 0.20243 0.04792 0.89949 0.0
C349 C 0.1765 0.9868 0.91236 0.0
C350 C 0.23149 0.04407 0.93123 0.0
C351 C 0.23258 0.0121 0.95432 0.0
H352 H 0.54641 0.64578 0.4003 0.0
H353 H 0.48948 0.72637 0.48778 0.0
H354 H 0.42552 0.71423 0.45142 0.0
H355 H 0.38462 0.67331 0.40222 0.0
H356 H 0.44141 0.58779 0.32067 0.0
H357 H 0.50667 0.60871 0.34707 0.0
C358 C 0.52005 0.66121 0.41045 0.0
C359 C 0.52221 0.68705 0.44601 0.0
C360 C 0.48338 0.65256 0.39095 0.0
C361 C 0.48822 0.70684 0.45977 0.0
C362 C 0.45172 0.69953 0.43936 0.0
C363 C 0.41144 0.65994 0.38964 0.0
C364 C 0.40851 0.62904 0.35983 0.0
C365 C 0.4487 0.67139 0.40602 0.0
C366 C 0.44321 0.6115 0.3439 0.0
C367 C 0.48041 0.62344 0.35894 0.0
H368 H 0.30924 0.44861 0.61799 0.0
H369 H 0.43063 0.41275 0.63255 0.0
H370 H 0.44381 0.46614 0.68256 0.0
H371 H 0.4226 0.52522 0.71789 0.0
H372 H 0.30242 0.56319 0.70164 0.0
H373 H 0.28677 0.50639 0.6574 0.0
C374 C 0.33841 0.45228 0.63252 0.0
C375 C 0.36901 0.42702 0.62111 0.0
C376 C 0.34605 0.48343 0.66089 0.0
C377 C 0.40666 0.43208 0.6403 0.0
C378 C 0.41427 0.46257 0.66896 0.0
C379 C 0.39296 0.52102 0.70468 0.0
C380 C 0.36387 0.54848 0.71253 0.0
C381 C 0.38448 0.48882 0.67869 0.0
C382 C 0.32532 0.54235 0.69612 0.0
C383 C 0.31644 0.51002 0.6706 0.0
H384 H 0.05098 0.85961 0.17372 0.0
H385 H 0.00661 0.77606 0.08034 0.0
H386 H 0.93985 0.78267 0.11159 0.0
H387 H 0.89243 0.82106 0.15681 0.0
H388 H 0.93792 0.907 0.24654 0.0
H389 H 0.00595 0.8905 0.22596 0.0
C390 C 0.02686 0.84207 0.16108 0.0
C391 C 0.03338 0.81771 0.12466 0.0
C392 C 0.98865 0.84695 0.17824 0.0
C393 C 0.0022 0.79491 0.10856 0.0
C394 C 0.96397 0.79904 0.1261 0.0
C395 C 0.91742 0.83525 0.17261 0.0
C396 C 0.91055 0.86528 0.20286 0.0
C397 C 0.95652 0.82625 0.15964 0.0
C398 C 0.94284 0.88388 0.22307 0.0
C399 C 0.98162 0.87456 0.2112 0.0
H400 H 0.62749 0.58102 0.62586 0.0
H401 H 0.73965 0.57153 0.5594 0.0
H402 H 0.75611 0.51636 0.59791 0.0
H403 H 0.73274 0.46503 0.64096 0.0
H404 H 0.61974 0.47501 0.70565 0.0
H405 H 0.60968 0.53623 0.67835 0.0
C406 C 0.65593 0.5673 0.62065 0.0
C407 C 0.68211 0.57974 0.58958 0.0
C408 C 0.66488 0.53564 0.64252 0.0
C409 C 0.71909 0.56227 0.58326 0.0
C410 C 0.72833 0.53062 0.60503 0.0
C411 C 0.70675 0.48139 0.65028 0.0
C412 C 0.67697 0.46588 0.67517 0.0
C413 C 0.70073 0.5162 0.63345 0.0
C414 C 0.64302 0.48677 0.68668 0.0
C415 C 0.63712 0.52153 0.67076 0.0
H416 H 0.89235 0.14849 0.14752 0.0
H417 H 0.96507 0.22843 0.0868 0.0
H418 H 0.01009 0.23172 0.14883 0.0
H419 H 0.0358 0.20133 0.21194 0.0
H420 H 0.9652 0.11811 0.26914 0.0
H421 H 0.91157 0.1273 0.2178 0.0
C422 C 0.9176 0.16724 0.14838 0.0
C423 C 0.92604 0.1875 0.11239 0.0
C424 C 0.94366 0.16833 0.1836 0.0
C425 C 0.95823 0.21233 0.11406 0.0
C426 C 0.98406 0.21406 0.14941 0.0
C427 C 0.00779 0.18671 0.21439 0.0
C428 C 0.00404 0.15929 0.24413 0.0
C429 C 0.97808 0.19082 0.18333 0.0
C430 C 0.96821 0.13969 0.24672 0.0
C431 C 0.93792 0.14454 0.21695 0.0
H432 H 0.16343 0.73555 0.15755 0.0
H433 H 0.24948 0.82446 0.17067 0.0
H434 H 0.28332 0.79332 0.22753 0.0
H435 H 0.29198 0.73831 0.26901 0.0
H436 H 0.20849 0.64798 0.2537 0.0
H437 H 0.16977 0.68222 0.20259 0.0
C438 C 0.18929 0.74835 0.17321 0.0
C439 C 0.20413 0.78213 0.15955 0.0
C440 C 0.20911 0.72993 0.20535 0.0
C441 C 0.23769 0.7983 0.1802 0.0
C442 C 0.25706 0.78054 0.21275 0.0
C443 C 0.26489 0.7266 0.25484 0.0
C444 C 0.25309 0.69101 0.26477 0.0
C445 C 0.24354 0.74602 0.22488 0.0
C446 C 0.21816 0.67548 0.24639 0.0
C447 C 0.19614 0.69499 0.2171 0.0
H448 H 0.77185 0.69996 0.57065 0.0
H449 H 0.68298 0.78462 0.59703 0.0
H450 H 0.72821 0.81867 0.64652 0.0
H451 H 0.79223 0.82373 0.68403 0.0
H452 H 0.88037 0.73835 0.6608 0.0
H453 H 0.83633 0.70522 0.60821 0.0
C454 C 0.76253 0.72599 0.58699 0.0
C455 C 0.7241 0.73968 0.58008 0.0
C456 C 0.78852 0.74525 0.61604 0.0
C457 C 0.71232 0.7733 0.60186 0.0
C458 C 0.73818 0.79288 0.63017 0.0
C459 C 0.80188 0.79802 0.66722 0.0
C460 C 0.83954 0.78338 0.67584 0.0
C461 C 0.77621 0.77901 0.63775 0.0
C462 C 0.85148 0.74993 0.65428 0.0
C463 C 0.82635 0.73108 0.62437 0.0
H464 H 0.81432 0.27216 0.09017 0.0
H465 H 0.71581 0.19877 0.05771 0.0
H466 H 0.67432 0.23352 0.11096 0.0
H467 H 0.66675 0.28394 0.16791 0.0
H468 H 0.7651 0.35742 0.19918 0.0
H469 H 0.80629 0.32321 0.14498 0.0
C470 C 0.78374 0.26369 0.09456 0.0
C471 C 0.76825 0.23277 0.07002 0.0
C472 C 0.76019 0.28371 0.1251 0.0
C473 C 0.72847 0.22248 0.07606 0.0
C474 C 0.70478 0.24227 0.1066 0.0
C475 C 0.6972 0.2924 0.16286 0.0
C476 C 0.71332 0.32297 0.18761 0.0
C477 C 0.72044 0.27276 0.13151 0.0
C478 C 0.75252 0.33386 0.18045 0.0
C479 C 0.7759 0.31437 0.14958 0.0
H480 H 0.32319 0.21911 0.62947 0.0
H481 H 0.28569 0.32934 0.67483 0.0
H482 H 0.25415 0.30447 0.73717 0.0
H483 H 0.23358 0.25102 0.77694 0.0
H484 H 0.27136 0.14106 0.73273 0.0
H485 H 0.30629 0.16607 0.67198 0.0
C486 C 0.30846 0.23774 0.65318 0.0
C487 C 0.30652 0.27599 0.64706 0.0
C488 C 0.29012 0.22326 0.68908 0.0
C489 C 0.28744 0.29973 0.67836 0.0
C490 C 0.26927 0.28556 0.71409 0.0
C491 C 0.24978 0.23277 0.75402 0.0
C492 C 0.24986 0.19456 0.75906 0.0
C493 C 0.26983 0.24735 0.71938 0.0
C494 C 0.27092 0.17074 0.7295 0.0
C495 C 0.29084 0.18501 0.69474 0.0
H496 H 0.66753 0.78022 0.41897 0.0
H497 H 0.71916 0.67468 0.37568 0.0
H498 H 0.75281 0.70363 0.31727 0.0
H499 H 0.77216 0.7598 0.28184 0.0
H500 H 0.72097 0.86522 0.32418 0.0
H501 H 0.68243 0.83558 0.37928 0.0
C502 C 0.68584 0.76347 0.39654 0.0
C503 C 0.69115 0.72538 0.40223 0.0
C504 C 0.70534 0.78033 0.36288 0.0
C505 C 0.71471 0.70409 0.37248 0.0
C506 C 0.73407 0.72061 0.33899 0.0
C507 C 0.75199 0.77598 0.3028 0.0
C508 C 0.74934 0.81432 0.29912 0.0
C509 C 0.73025 0.75879 0.33443 0.0
C510 C 0.72335 0.83549 0.32632 0.0
C511 C 0.70149 0.81857 0.35795 0.0
H512 H 0.81853 0.2701 0.90871 0.0
H513 H 0.77023 0.16413 0.86138 0.0
H514 H 0.73879 0.19328 0.80153 0.0
H515 H 0.72188 0.24952 0.76465 0.0
H516 H 0.76927 0.35532 0.8123 0.0
H517 H 0.80425 0.32568 0.86989 0.0
C518 C 0.8014 0.25327 0.88516 0.0
C519 C 0.79655 0.21499 0.88985 0.0
C520 C 0.78305 0.27025 0.85095 0.0
C521 C 0.77431 0.19368 0.85883 0.0
C522 C 0.75625 0.21032 0.82455 0.0
C523 C 0.74019 0.26583 0.78758 0.0
C524 C 0.74296 0.30425 0.78446 0.0
C525 C 0.75994 0.24863 0.82067 0.0
C526 C 0.76665 0.32556 0.81412 0.0
C527 C 0.7866 0.30864 0.84706 0.0
H528 H 0.21547 0.29198 0.48894 0.0
H529 H 0.3057 0.2117 0.44942 0.0
H530 H 0.25771 0.17697 0.40423 0.0
H531 H 0.1913 0.17048 0.37366 0.0
H532 H 0.10069 0.2507 0.41025 0.0
H533 H 0.14767 0.28438 0.4593 0.0
C534 C 0.22454 0.26675 0.47067 0.0
C535 C 0.26419 0.25459 0.47251 0.0
C536 C 0.19681 0.24696 0.44424 0.0
C537 C 0.27548 0.22189 0.44847 0.0
C538 C 0.24805 0.20192 0.42261 0.0
C539 C 0.18167 0.19517 0.39257 0.0
C540 C 0.1426 0.20831 0.38857 0.0
C541 C 0.20882 0.21439 0.41993 0.0
C542 C 0.13068 0.24031 0.41313 0.0
C543 C 0.1575 0.25948 0.44095 0.0
H544 H 0.20901 0.7278 0.97501 0.0
H545 H 0.27742 0.82932 0.97992 0.0
H546 H 0.32411 0.80139 0.92753 0.0
H547 H 0.34491 0.74858 0.87862 0.0
H548 H 0.27589 0.64779 0.87221 0.0
H549 H 0.23028 0.67478 0.92675 0.0
C550 C 0.23427 0.74371 0.96484 0.0
C551 C 0.23961 0.78057 0.98142 0.0
C552 C 0.2609 0.72765 0.93425 0.0
C553 C 0.27242 0.8009 0.96763 0.0
C554 C 0.29923 0.78499 0.93764 0.0
C555 C 0.31987 0.73271 0.88945 0.0
C556 C 0.31367 0.69661 0.87152 0.0
C557 C 0.29361 0.74851 0.92051 0.0
C558 C 0.28121 0.67586 0.88546 0.0
C559 C 0.25513 0.69125 0.91667 0.0
loop_
_geom_bond_atom_site_label_1
_geom_bond_atom_site_label_2
_geom_bond_distance
_geom_bond_site_symmetry_2
_ccdc_geom_bond_type
Fe0 O2 1.918 . S
Fe0 O5 1.997 . S
Fe0 O6 2.002 . S
Fe0 O11 1.976 . S
Fe0 O14 1.996 . S
Fe1 O2 1.918 . S
Fe1 O9 1.997 . S
Fe1 O12 1.996 . S
Fe1 O16 1.976 1_554 S
Fe1 O19 2.002 . S
O2 Fe0 1.918 . S
O2 Fe1 1.918 . S
O2 Fe3 1.918 . S
Fe3 O2 1.918 . S
Fe3 O4 2.002 . S
Fe3 O13 1.976 . S
Fe3 O17 1.996 1_554 S
Fe3 O20 1.997 . S
O4 Fe3 2.002 . S
O4 C21 1.295 . S
O5 Fe0 1.997 . S
O5 C21 1.235 . S
O6 Fe0 2.002 . S
O6 C7 1.295 . S
C7 O6 1.295 . S
C7 O9 1.235 . S
C8 O13 1.287 . S
C8 O14 1.255 . S
O9 Fe1 1.997 . S
O9 C7 1.235 . S
C10 O16 1.287 . S
C10 O17 1.255 . S
O11 Fe0 1.976 . S
O11 C18 1.287 . S
O12 Fe1 1.996 . S
O12 C18 1.255 . S
O13 Fe3 1.976 . S
O13 C8 1.287 . S
O14 Fe0 1.996 . S
O14 C8 1.255 . S
C15 O19 1.295 . S
C15 O20 1.235 . S
O16 Fe1 1.976 1_556 S
O16 C10 1.287 . S
O17 Fe3 1.996 1_556 S
O17 C10 1.255 . S
C18 O11 1.287 . S
C18 O12 1.255 . S
O19 Fe1 2.002 . S
O19 C15 1.295 . S
O20 Fe3 1.997 . S
O20 C15 1.235 . S
C21 O4 1.295 . S
C21 O5 1.235 . S
Fe22 O24 1.918 . S
Fe22 O27 1.997 . S
Fe22 O28 2.002 . S
Fe22 O33 1.976 . S
Fe22 O36 1.996 . S
Fe23 O24 1.918 . S
Fe23 O31 1.997 . S
Fe23 O34 1.996 . S
Fe23 O38 1.976 . S
Fe23 O41 2.002 . S
O24 Fe22 1.918 . S
O24 Fe23 1.918 . S
O24 Fe25 1.918 . S
Fe25 O24 1.918 . S
Fe25 O26 2.002 . S
Fe25 O35 1.976 . S
Fe25 O39 1.996 . S
Fe25 O42 1.997 . S
O26 Fe25 2.002 . S
O26 C43 1.295 . S
O27 Fe22 1.997 . S
O27 C43 1.235 . S
O28 Fe22 2.002 . S
O28 C29 1.295 . S
C29 O28 1.295 . S
C29 O31 1.235 . S
C30 O35 1.287 . S
C30 O36 1.255 . S
O31 Fe23 1.997 . S
O31 C29 1.235 . S
C32 O38 1.287 . S
C32 O39 1.255 . S
O33 Fe22 1.976 . S
O33 C40 1.287 . S
O34 Fe23 1.996 . S
O34 C40 1.255 . S
O35 Fe25 1.976 . S
O35 C30 1.287 . S
O36 Fe22 1.996 . S
O36 C30 1.255 . S
C37 O41 1.295 . S
C37 O42 1.235 . S
O38 Fe23 1.976 . S
O38 C32 1.287 . S
O39 Fe25 1.996 . S
O39 C32 1.255 . S
C40 O33 1.287 . S
C40 O34 1.255 . S
O41 Fe23 2.002 . S
O41 C37 1.295 . S
O42 Fe25 1.997 . S
O42 C37 1.235 . S
C43 O26 1.295 . S
C43 O27 1.235 . S
Fe44 O46 1.918 . S
Fe44 O49 1.997 1_554 S
Fe44 O50 2.002 1_554 S
Fe44 O55 1.976 . S
Fe44 O58 1.996 . S
Fe45 O46 1.918 . S
Fe45 O53 1.997 1_554 S
Fe45 O56 1.996 . S
Fe45 O60 1.976 . S
Fe45 O63 2.002 1_554 S
O46 Fe44 1.918 . S
O46 Fe45 1.918 . S
O46 Fe47 1.918 1_554 S
Fe47 O46 1.918 1_556 S
Fe47 O48 2.002 . S
Fe47 O57 1.976 1_556 S
Fe47 O61 1.996 1_556 S
Fe47 O64 1.997 . S
O48 Fe47 2.002 . S
O48 C65 1.295 . S
O49 Fe44 1.997 1_556 S
O49 C65 1.235 . S
O50 Fe44 2.002 1_556 S
O50 C51 1.295 . S
C51 O50 1.295 . S
C51 O53 1.235 . S
C52 O57 1.287 . S
C52 O58 1.255 . S
O53 Fe45 1.997 1_556 S
O53 C51 1.235 . S
C54 O60 1.287 . S
C54 O61 1.255 . S
O55 Fe44 1.976 . S
O55 C62 1.287 . S
O56 Fe45 1.996 . S
O56 C62 1.255 . S
O57 Fe47 1.976 1_554 S
O57 C52 1.287 . S
O58 Fe44 1.996 . S
O58 C52 1.255 . S
C59 O63 1.295 . S
C59 O64 1.235 . S
O60 Fe45 1.976 . S
O60 C54 1.287 . S
O61 Fe47 1.996 1_554 S
O61 C54 1.255 . S
C62 O55 1.287 . S
C62 O56 1.255 . S
O63 Fe45 2.002 1_556 S
O63 C59 1.295 . S
O64 Fe47 1.997 . S
O64 C59 1.235 . S
C65 O48 1.295 . S
C65 O49 1.235 . S
Fe66 O68 1.918 . S
Fe66 O71 1.997 . S
Fe66 O72 2.002 . S
Fe66 O77 1.976 . S
Fe66 O80 1.996 . S
Fe67 O68 1.918 . S
Fe67 O75 1.997 . S
Fe67 O78 1.996 . S
Fe67 O82 1.976 . S
Fe67 O85 2.002 . S
O68 Fe66 1.918 . S
O68 Fe67 1.918 . S
O68 Fe69 1.918 . S
Fe69 O68 1.918 . S
Fe69 O70 2.002 . S
Fe69 O79 1.976 . S
Fe69 O83 1.996 . S
Fe69 O86 1.997 . S
O70 Fe69 2.002 . S
O70 C87 1.295 . S
O71 Fe66 1.997 . S
O71 C87 1.235 . S
O72 Fe66 2.002 . S
O72 C73 1.295 . S
C73 O72 1.295 . S
C73 O75 1.235 . S
C74 O79 1.287 . S
C74 O80 1.255 . S
O75 Fe67 1.997 . S
O75 C73 1.235 . S
C76 O82 1.287 . S
C76 O83 1.255 . S
O77 Fe66 1.976 . S
O77 C84 1.287 . S
O78 Fe67 1.996 . S
O78 C84 1.255 . S
O79 Fe69 1.976 . S
O79 C74 1.287 . S
O80 Fe66 1.996 . S
O80 C74 1.255 . S
C81 O85 1.295 . S
C81 O86 1.235 . S
O82 Fe67 1.976 . S
O82 C76 1.287 . S
O83 Fe69 1.996 . S
O83 C76 1.255 . S
C84 O77 1.287 . S
C84 O78 1.255 . S
O85 Fe67 2.002 . S
O85 C81 1.295 . S
O86 Fe69 1.997 . S
O86 C81 1.235 . S
C87 O70 1.295 . S
C87 O71 1.235 . S
H88 C93 0.929 . S
H89 C98 0.931 . S
H90 C96 0.930 . S
N91 N92 1.234 . S
N91 C95 1.453 . S
N92 N91 1.234 . S
C93 H88 0.929 . S
C93 C94 1.373 . S
C93 C95 1.368 . S
C94 C93 1.373 . S
C94 C98 1.397 . S
C95 N91 1.453 . S
C95 C93 1.368 . S
C95 C96 1.373 . S
C96 H90 0.930 . S
C96 C95 1.373 . S
C96 C97 1.371 . S
C97 C96 1.371 . S
C97 C98 1.383 . S
C98 H89 0.931 . S
C98 C94 1.397 . S
C98 C97 1.383 . S
H99 C104 0.929 . S
H100 C109 0.931 . S
H101 C107 0.930 . S
N102 N103 1.234 . S
N102 C106 1.453 . S
N103 N102 1.234 . S
C104 H99 0.929 . S
C104 C105 1.373 . S
C104 C106 1.368 . S
C105 C104 1.373 . S
C105 C109 1.397 . S
C106 N102 1.453 . S
C106 C104 1.368 . S
C106 C107 1.373 . S
C107 H101 0.930 . S
C107 C106 1.373 . S
C107 C108 1.371 . S
C108 C107 1.371 . S
C108 C109 1.383 . S
C109 H100 0.931 . S
C109 C105 1.397 . S
C109 C108 1.383 . S
H110 C115 0.929 . S
H111 C120 0.931 . S
H112 C118 0.930 . S
N113 N114 1.234 . S
N113 C117 1.453 . S
N114 N113 1.234 . S
C115 H110 0.929 . S
C115 C116 1.373 . S
C115 C117 1.368 . S
C116 C115 1.373 . S
C116 C120 1.397 . S
C117 N113 1.453 . S
C117 C115 1.368 . S
C117 C118 1.373 . S
C118 H112 0.930 . S
C118 C117 1.373 . S
C118 C119 1.371 . S
C119 C118 1.371 . S
C119 C120 1.383 . S
C120 H111 0.931 . S
C120 C116 1.397 . S
C120 C119 1.383 . S
H121 C126 0.929 . S
H122 C131 0.931 . S
H123 C129 0.930 . S
N124 N125 1.234 . S
N124 C128 1.453 . S
N125 N124 1.234 . S
C126 H121 0.929 . S
C126 C127 1.373 . S
C126 C128 1.368 . S
C127 C126 1.373 . S
C127 C131 1.397 . S
C128 N124 1.453 . S
C128 C126 1.368 . S
C128 C129 1.373 . S
C129 H123 0.930 . S
C129 C128 1.373 . S
C129 C130 1.371 . S
C130 C129 1.371 . S
C130 C131 1.383 . S
C131 H122 0.931 . S
C131 C127 1.397 . S
C131 C130 1.383 . S
H132 C137 0.929 . S
H133 C142 0.931 . S
H134 C140 0.930 . S
N135 N136 1.234 . S
N135 C139 1.453 . S
N136 N135 1.234 . S
C137 H132 0.929 . S
C137 C138 1.373 . S
C137 C139 1.368 . S
C138 C137 1.373 . S
C138 C142 1.397 . S
C139 N135 1.453 . S
C139 C137 1.368 . S
C139 C140 1.373 . S
C140 H134 0.930 . S
C140 C139 1.373 . S
C140 C141 1.371 . S
C141 C140 1.371 . S
C141 C142 1.383 . S
C142 H133 0.931 . S
C142 C138 1.397 . S
C142 C141 1.383 . S
H143 C148 0.929 . S
H144 C153 0.931 . S
H145 C151 0.930 . S
N146 N147 1.234 . S
N146 C150 1.453 . S
N147 N146 1.234 . S
C148 H143 0.929 . S
C148 C149 1.373 . S
C148 C150 1.368 . S
C149 C148 1.373 . S
C149 C153 1.397 . S
C150 N146 1.453 . S
C150 C148 1.368 . S
C150 C151 1.373 . S
C151 H145 0.930 . S
C151 C150 1.373 . S
C151 C152 1.371 . S
C152 C151 1.371 . S
C152 C153 1.383 . S
C153 H144 0.931 . S
C153 C149 1.397 . S
C153 C152 1.383 . S
H154 C159 0.929 . S
H155 C164 0.931 . S
H156 C162 0.930 . S
N157 N158 1.234 . S
N157 C161 1.453 . S
N158 N157 1.234 . S
C159 H154 0.929 . S
C159 C160 1.373 . S
C159 C161 1.368 . S
C160 C159 1.373 . S
C160 C164 1.397 . S
C161 N157 1.453 . S
C161 C159 1.368 . S
C161 C162 1.373 . S
C162 H156 0.930 . S
C162 C161 1.373 . S
C162 C163 1.371 . S
C163 C162 1.371 . S
C163 C164 1.383 . S
C164 H155 0.931 . S
C164 C160 1.397 . S
C164 C163 1.383 . S
H165 C170 0.929 . S
H166 C175 0.931 . S
H167 C173 0.930 . S
N168 N169 1.234 . S
N168 C172 1.453 . S
N169 N168 1.234 . S
C170 H165 0.929 . S
C170 C171 1.373 . S
C170 C172 1.368 . S
C171 C170 1.373 . S
C171 C175 1.397 . S
C172 N168 1.453 . S
C172 C170 1.368 . S
C172 C173 1.373 . S
C173 H167 0.930 . S
C173 C172 1.373 . S
C173 C174 1.371 . S
C174 C173 1.371 . S
C174 C175 1.383 . S
C175 H166 0.931 . S
C175 C171 1.397 . S
C175 C174 1.383 . S
H176 C182 0.930 . S
H177 C185 0.930 . S
H178 C186 0.930 . S
H179 C187 0.930 . S
H180 C190 0.930 . S
H181 C191 0.930 . S
C182 H176 0.930 . S
C182 C183 1.355 . S
C182 C184 1.415 1_565 S
C183 C182 1.355 . S
C183 C185 1.419 . S
C184 C182 1.415 1_545 S
C184 C189 1.425 . S
C184 C191 1.409 . S
C185 H177 0.930 . S
C185 C183 1.419 . S
C185 C186 1.362 . S
C186 H178 0.930 . S
C186 C185 1.362 . S
C186 C189 1.409 1_565 S
C187 H179 0.930 . S
C187 C188 1.355 . S
C187 C189 1.415 . S
C188 C187 1.355 . S
C188 C190 1.419 . S
C189 C184 1.425 . S
C189 C186 1.409 1_545 S
C189 C187 1.415 . S
C190 H180 0.930 . S
C190 C188 1.419 . S
C190 C191 1.362 . S
C191 H181 0.930 . S
C191 C184 1.409 . S
C191 C190 1.362 . S
H192 C198 0.930 . S
H193 C201 0.930 . S
H194 C202 0.930 . S
H195 C203 0.930 . S
H196 C206 0.930 . S
H197 C207 0.930 . S
C198 H192 0.930 . S
C198 C199 1.355 . S
C198 C200 1.415 . S
C199 C198 1.355 . S
C199 C201 1.419 . S
C200 C198 1.415 . S
C200 C205 1.425 . S
C200 C207 1.409 . S
C201 H193 0.930 . S
C201 C199 1.419 . S
C201 C202 1.362 . S
C202 H194 0.930 . S
C202 C201 1.362 . S
C202 C205 1.409 . S
C203 H195 0.930 . S
C203 C204 1.355 . S
C203 C205 1.415 . S
C204 C203 1.355 . S
C204 C206 1.419 . S
C205 C200 1.425 . S
C205 C202 1.409 . S
C205 C203 1.415 . S
C206 H196 0.930 . S
C206 C204 1.419 . S
C206 C207 1.362 . S
C207 H197 0.930 . S
C207 C200 1.409 . S
C207 C206 1.362 . S
H208 C214 0.930 . S
H209 C217 0.930 . S
H210 C218 0.930 . S
H211 C219 0.930 . S
H212 C222 0.930 . S
H213 C223 0.930 . S
C214 H208 0.930 . S
C214 C215 1.355 . S
C214 C216 1.415 1_545 S
C215 C214 1.355 . S
C215 C217 1.419 . S
C216 C214 1.415 1_565 S
C216 C221 1.425 . S
C216 C223 1.409 . S
C217 H209 0.930 . S
C217 C215 1.419 . S
C217 C218 1.362 1_545 S
C218 H210 0.930 . S
C218 C217 1.362 1_565 S
C218 C221 1.409 . S
C219 H211 0.930 . S
C219 C220 1.355 . S
C219 C221 1.415 . S
C220 C219 1.355 . S
C220 C222 1.419 . S
C221 C216 1.425 . S
C221 C218 1.409 . S
C221 C219 1.415 . S
C222 H212 0.930 . S
C222 C220 1.419 . S
C222 C223 1.362 . S
C223 H213 0.930 . S
C223 C216 1.409 . S
C223 C222 1.362 . S
H224 C230 0.930 . S
H225 C233 0.930 . S
H226 C234 0.930 . S
H227 C235 0.930 . S
H228 C238 0.930 . S
H229 C239 0.930 . S
C230 H224 0.930 . S
C230 C231 1.355 . S
C230 C232 1.415 . S
C231 C230 1.355 . S
C231 C233 1.419 . S
C232 C230 1.415 . S
C232 C237 1.425 . S
C232 C239 1.409 . S
C233 H225 0.930 . S
C233 C231 1.419 . S
C233 C234 1.362 . S
C234 H226 0.930 . S
C234 C233 1.362 . S
C234 C237 1.409 . S
C235 H227 0.930 . S
C235 C236 1.355 . S
C235 C237 1.415 . S
C236 C235 1.355 . S
C236 C238 1.419 . S
C237 C232 1.425 . S
C237 C234 1.409 . S
C237 C235 1.415 . S
C238 H228 0.930 . S
C238 C236 1.419 . S
C238 C239 1.362 . S
C239 H229 0.930 . S
C239 C232 1.409 . S
C239 C238 1.362 . S
H240 C246 0.930 . S
H241 C249 0.930 . S
H242 C250 0.930 . S
H243 C251 0.930 . S
H244 C254 0.930 . S
H245 C255 0.930 . S
C246 H240 0.930 . S
C246 C247 1.355 . S
C246 C248 1.415 . S
C247 C246 1.355 . S
C247 C249 1.419 . S
C248 C246 1.415 . S
C248 C253 1.425 . S
C248 C255 1.409 . S
C249 H241 0.930 . S
C249 C247 1.419 . S
C249 C250 1.362 . S
C250 H242 0.930 . S
C250 C249 1.362 . S
C250 C253 1.409 . S
C251 H243 0.930 . S
C251 C252 1.355 . S
C251 C253 1.415 . S
C252 C251 1.355 . S
C252 C254 1.419 . S
C253 C248 1.425 . S
C253 C250 1.409 . S
C253 C251 1.415 . S
C254 H244 0.930 . S
C254 C252 1.419 . S
C254 C255 1.362 . S
C255 H245 0.930 . S
C255 C248 1.409 . S
C255 C254 1.362 . S
H256 C262 0.930 . S
H257 C265 0.930 1_655 S
H258 C266 0.930 . S
H259 C267 0.930 . S
H260 C270 0.930 . S
H261 C271 0.930 . S
C262 H256 0.930 . S
C262 C263 1.355 1_455 S
C262 C264 1.415 . S
C263 C262 1.355 1_655 S
C263 C265 1.419 1_655 S
C264 C262 1.415 . S
C264 C269 1.425 . S
C264 C271 1.409 . S
C265 H257 0.930 1_455 S
C265 C263 1.419 1_455 S
C265 C266 1.362 . S
C266 H258 0.930 . S
C266 C265 1.362 . S
C266 C269 1.409 . S
C267 H259 0.930 . S
C267 C268 1.355 . S
C267 C269 1.415 . S
C268 C267 1.355 . S
C268 C270 1.419 . S
C269 C264 1.425 . S
C269 C266 1.409 . S
C269 C267 1.415 . S
C270 H260 0.930 . S
C270 C268 1.419 . S
C270 C271 1.362 . S
C271 H261 0.930 . S
C271 C264 1.409 . S
C271 C270 1.362 . S
H272 C278 0.930 . S
H273 C281 0.930 . S
H274 C282 0.930 . S
H275 C283 0.930 . S
H276 C286 0.930 . S
H277 C287 0.930 . S
C278 H272 0.930 . S
C278 C279 1.355 . S
C278 C280 1.415 . S
C279 C278 1.355 . S
C279 C281 1.419 . S
C280 C278 1.415 . S
C280 C285 1.425 . S
C280 C287 1.409 . S
C281 H273 0.930 . S
C281 C279 1.419 . S
C281 C282 1.362 . S
C282 H274 0.930 . S
C282 C281 1.362 . S
C282 C285 1.409 . S
C283 H275 0.930 . S
C283 C284 1.355 . S
C283 C285 1.415 . S
C284 C283 1.355 . S
C284 C286 1.419 . S
C285 C280 1.425 . S
C285 C282 1.409 . S
C285 C283 1.415 . S
C286 H276 0.930 . S
C286 C284 1.419 . S
C286 C287 1.362 . S
C287 H277 0.930 . S
C287 C280 1.409 . S
C287 C286 1.362 . S
H288 C294 0.930 1_655 S
H289 C297 0.930 . S
H290 C298 0.930 . S
H291 C299 0.930 1_455 S
H292 C302 0.930 . S
H293 C303 0.930 . S
C294 H288 0.930 1_455 S
C294 C295 1.355 . S
C294 C296 1.415 1_455 S
C295 C294 1.355 . S
C295 C297 1.419 . S
C296 C294 1.415 1_655 S
C296 C301 1.425 1_655 S
C296 C303 1.409 . S
C297 H289 0.930 . S
C297 C295 1.419 . S
C297 C298 1.362 . S
C298 H290 0.930 . S
C298 C297 1.362 . S
C298 C301 1.409 . S
C299 H291 0.930 1_655 S
C299 C300 1.355 . S
C299 C301 1.415 1_655 S
C300 C299 1.355 . S
C300 C302 1.419 . S
C301 C296 1.425 1_455 S
C301 C298 1.409 . S
C301 C299 1.415 1_455 S
C302 H292 0.930 . S
C302 C300 1.419 . S
C302 C303 1.362 . S
C303 H293 0.930 . S
C303 C296 1.409 . S
C303 C302 1.362 . S
H304 C310 0.930 . S
H305 C313 0.930 . S
H306 C314 0.930 . S
H307 C315 0.930 . S
H308 C318 0.930 . S
H309 C319 0.930 1_545 S
C310 H304 0.930 . S
C310 C311 1.355 . S
C310 C312 1.415 . S
C311 C310 1.355 . S
C311 C313 1.419 . S
C312 C310 1.415 . S
C312 C317 1.425 1_545 S
C312 C319 1.409 1_545 S
C313 H305 0.930 . S
C313 C311 1.419 . S
C313 C314 1.362 1_545 S
C314 H306 0.930 . S
C314 C313 1.362 1_565 S
C314 C317 1.409 . S
C315 H307 0.930 . S
C315 C316 1.355 . S
C315 C317 1.415 . S
C316 C315 1.355 . S
C316 C318 1.419 . S
C317 C312 1.425 1_565 S
C317 C314 1.409 . S
C317 C315 1.415 . S
C318 H308 0.930 . S
C318 C316 1.419 . S
C318 C319 1.362 . S
C319 H309 0.930 1_565 S
C319 C312 1.409 1_565 S
C319 C318 1.362 . S
H320 C326 0.930 . S
H321 C329 0.930 . S
H322 C330 0.930 . S
H323 C331 0.930 . S
H324 C334 0.930 . S
H325 C335 0.930 . S
C326 H320 0.930 . S
C326 C327 1.355 . S
C326 C328 1.415 . S
C327 C326 1.355 . S
C327 C329 1.419 . S
C328 C326 1.415 . S
C328 C333 1.425 . S
C328 C335 1.409 . S
C329 H321 0.930 . S
C329 C327 1.419 . S
C329 C330 1.362 . S
C330 H322 0.930 . S
C330 C329 1.362 . S
C330 C333 1.409 . S
C331 H323 0.930 . S
C331 C332 1.355 . S
C331 C333 1.415 . S
C332 C331 1.355 . S
C332 C334 1.419 . S
C333 C328 1.425 . S
C333 C330 1.409 . S
C333 C331 1.415 . S
C334 H324 0.930 . S
C334 C332 1.419 . S
C334 C335 1.362 . S
C335 H325 0.930 . S
C335 C328 1.409 . S
C335 C334 1.362 . S
H336 C342 0.930 1_554 S
H337 C345 0.930 . S
H338 C346 0.930 . S
H339 C347 0.930 . S
H340 C350 0.930 . S
H341 C351 0.930 1_554 S
C342 H336 0.930 1_556 S
C342 C343 1.355 . S
C342 C344 1.415 1_565 S
C343 C342 1.355 . S
C343 C345 1.419 . S
C344 C342 1.415 1_545 S
C344 C349 1.425 . S
C344 C351 1.409 . S
C345 H337 0.930 . S
C345 C343 1.419 . S
C345 C346 1.362 1_565 S
C346 H338 0.930 . S
C346 C345 1.362 1_545 S
C346 C349 1.409 . S
C347 H339 0.930 . S
C347 C348 1.355 . S
C347 C349 1.415 . S
C348 C347 1.355 . S
C348 C350 1.419 . S
C349 C344 1.425 . S
C349 C346 1.409 . S
C349 C347 1.415 . S
C350 H340 0.930 . S
C350 C348 1.419 . S
C350 C351 1.362 . S
C351 H341 0.930 1_556 S
C351 C344 1.409 . S
C351 C350 1.362 . S
H352 C358 0.930 . S
H353 C361 0.930 . S
H354 C362 0.930 . S
H355 C363 0.930 . S
H356 C366 0.930 . S
H357 C367 0.930 . S
C358 H352 0.930 . S
C358 C359 1.355 . S
C358 C360 1.415 . S
C359 C358 1.355 . S
C359 C361 1.419 . S
C360 C358 1.415 . S
C360 C365 1.425 . S
C360 C367 1.409 . S
C361 H353 0.930 . S
C361 C359 1.419 . S
C361 C362 1.362 . S
C362 H354 0.930 . S
C362 C361 1.362 . S
C362 C365 1.409 . S
C363 H355 0.930 . S
C363 C364 1.355 . S
C363 C365 1.415 . S
C364 C363 1.355 . S
C364 C366 1.419 . S
C365 C360 1.425 . S
C365 C362 1.409 . S
C365 C363 1.415 . S
C366 H356 0.930 . S
C366 C364 1.419 . S
C366 C367 1.362 . S
C367 H357 0.930 . S
C367 C360 1.409 . S
C367 C366 1.362 . S
H368 C374 0.930 . S
H369 C377 0.930 . S
H370 C378 0.930 . S
H371 C379 0.930 . S
H372 C382 0.930 . S
H373 C383 0.930 . S
C374 H368 0.930 . S
C374 C375 1.355 . S
C374 C376 1.415 . S
C375 C374 1.355 . S
C375 C377 1.419 . S
C376 C374 1.415 . S
C376 C381 1.425 . S
C376 C383 1.409 . S
C377 H369 0.930 . S
C377 C375 1.419 . S
C377 C378 1.362 . S
C378 H370 0.930 . S
C378 C377 1.362 . S
C378 C381 1.409 . S
C379 H371 0.930 . S
C379 C380 1.355 . S
C379 C381 1.415 . S
C380 C379 1.355 . S
C380 C382 1.419 . S
C381 C376 1.425 . S
C381 C378 1.409 . S
C381 C379 1.415 . S
C382 H372 0.930 . S
C382 C380 1.419 . S
C382 C383 1.362 . S
C383 H373 0.930 . S
C383 C376 1.409 . S
C383 C382 1.362 . S
H384 C390 0.921 1_455 S
H385 C393 0.930 . S
H386 C394 0.930 . S
H387 C395 0.930 . S
H388 C398 0.930 . S
H389 C399 0.930 . S
C390 H384 0.921 1_655 S
C390 C391 1.355 1_655 S
C390 C392 1.415 . S
C391 C390 1.355 1_455 S
C391 C393 1.419 1_455 S
C392 C390 1.415 . S
C392 C397 1.425 . S
C392 C399 1.409 . S
C393 H385 0.930 . S
C393 C391 1.419 1_655 S
C393 C394 1.362 . S
C394 H386 0.930 . S
C394 C393 1.362 . S
C394 C397 1.409 . S
C395 H387 0.930 . S
C395 C396 1.355 . S
C395 C397 1.415 . S
C396 C395 1.355 . S
C396 C398 1.419 . S
C397 C392 1.425 . S
C397 C394 1.409 . S
C397 C395 1.415 . S
C398 H388 0.930 . S
C398 C396 1.419 . S
C398 C399 1.362 . S
C399 H389 0.930 . S
C399 C392 1.409 . S
C399 C398 1.362 . S
H400 C406 0.930 . S
H401 C409 0.930 . S
H402 C410 0.930 . S
H403 C411 0.930 . S
H404 C414 0.930 . S
H405 C415 0.930 . S
C406 H400 0.930 . S
C406 C407 1.355 . S
C406 C408 1.415 . S
C407 C406 1.355 . S
C407 C409 1.419 . S
C408 C406 1.415 . S
C408 C413 1.425 . S
C408 C415 1.409 . S
C409 H401 0.930 . S
C409 C407 1.419 . S
C409 C410 1.362 . S
C410 H402 0.930 . S
C410 C409 1.362 . S
C410 C413 1.409 . S
C411 H403 0.930 . S
C411 C412 1.355 . S
C411 C413 1.415 . S
C412 C411 1.355 . S
C412 C414 1.419 . S
C413 C408 1.425 . S
C413 C410 1.409 . S
C413 C411 1.415 . S
C414 H404 0.930 . S
C414 C412 1.419 . S
C414 C415 1.362 . S
C415 H405 0.930 . S
C415 C408 1.409 . S
C415 C414 1.362 . S
H416 C422 0.930 . S
H417 C425 0.930 1_455 S
H418 C426 0.930 . S
H419 C427 0.930 . S
H420 C430 0.930 . S
H421 C431 0.930 . S
C422 H416 0.930 . S
C422 C423 1.355 . S
C422 C424 1.415 . S
C423 C422 1.355 . S
C423 C425 1.419 . S
C424 C422 1.415 . S
C424 C429 1.425 1_655 S
C424 C431 1.409 . S
C425 H417 0.930 1_655 S
C425 C423 1.419 . S
C425 C426 1.362 1_655 S
C426 H418 0.930 . S
C426 C425 1.362 1_455 S
C426 C429 1.409 . S
C427 H419 0.930 . S
C427 C428 1.355 . S
C427 C429 1.415 . S
C428 C427 1.355 . S
C428 C430 1.419 1_455 S
C429 C424 1.425 1_455 S
C429 C426 1.409 . S
C429 C427 1.415 . S
C430 H420 0.930 . S
C430 C428 1.419 1_655 S
C430 C431 1.362 . S
C431 H421 0.930 . S
C431 C424 1.409 . S
C431 C430 1.362 . S
H432 C438 0.930 . S
H433 C441 0.930 . S
H434 C442 0.930 . S
H435 C443 0.930 . S
H436 C446 0.930 . S
H437 C447 0.930 . S
C438 H432 0.930 . S
C438 C439 1.355 . S
C438 C440 1.415 . S
C439 C438 1.355 . S
C439 C441 1.419 . S
C440 C438 1.415 . S
C440 C445 1.425 . S
C440 C447 1.409 . S
C441 H433 0.930 . S
C441 C439 1.419 . S
C441 C442 1.362 . S
C442 H434 0.930 . S
C442 C441 1.362 . S
C442 C445 1.409 . S
C443 H435 0.930 . S
C443 C444 1.355 . S
C443 C445 1.415 . S
C444 C443 1.355 . S
C444 C446 1.419 . S
C445 C440 1.425 . S
C445 C442 1.409 . S
C445 C443 1.415 . S
C446 H436 0.930 . S
C446 C444 1.419 . S
C446 C447 1.362 . S
C447 H437 0.930 . S
C447 C440 1.409 . S
C447 C446 1.362 . S
H448 C454 0.930 . S
H449 C457 0.930 . S
H450 C458 0.930 . S
H451 C459 0.930 . S
H452 C462 0.930 . S
H453 C463 0.930 . S
C454 H448 0.930 . S
C454 C455 1.355 . S
C454 C456 1.415 . S
C455 C454 1.355 . S
C455 C457 1.419 . S
C456 C454 1.415 . S
C456 C461 1.425 . S
C456 C463 1.409 . S
C457 H449 0.930 . S
C457 C455 1.419 . S
C457 C458 1.362 . S
C458 H450 0.930 . S
C458 C457 1.362 . S
C458 C461 1.409 . S
C459 H451 0.930 . S
C459 C460 1.355 . S
C459 C461 1.415 . S
C460 C459 1.355 . S
C460 C462 1.419 . S
C461 C456 1.425 . S
C461 C458 1.409 . S
C461 C459 1.415 . S
C462 H452 0.930 . S
C462 C460 1.419 . S
C462 C463 1.362 . S
C463 H453 0.930 . S
C463 C456 1.409 . S
C463 C462 1.362 . S
H464 C470 0.930 . S
H465 C473 0.930 . S
H466 C474 0.930 . S
H467 C475 0.930 . S
H468 C478 0.930 . S
H469 C479 0.930 . S
C470 H464 0.930 . S
C470 C471 1.355 . S
C470 C472 1.415 . S
C471 C470 1.355 . S
C471 C473 1.419 . S
C472 C470 1.415 . S
C472 C477 1.425 . S
C472 C479 1.409 . S
C473 H465 0.930 . S
C473 C471 1.419 . S
C473 C474 1.362 . S
C474 H466 0.930 . S
C474 C473 1.362 . S
C474 C477 1.409 . S
C475 H467 0.930 . S
C475 C476 1.355 . S
C475 C477 1.415 . S
C476 C475 1.355 . S
C476 C478 1.419 . S
C477 C472 1.425 . S
C477 C474 1.409 . S
C477 C475 1.415 . S
C478 H468 0.930 . S
C478 C476 1.419 . S
C478 C479 1.362 . S
C479 H469 0.930 . S
C479 C472 1.409 . S
C479 C478 1.362 . S
H480 C486 0.930 . S
H481 C489 0.930 . S
H482 C490 0.930 . S
H483 C491 0.930 . S
H484 C494 0.930 . S
H485 C495 0.930 . S
C486 H480 0.930 . S
C486 C487 1.355 . S
C486 C488 1.415 . S
C487 C486 1.355 . S
C487 C489 1.419 . S
C488 C486 1.415 . S
C488 C493 1.425 . S
C488 C495 1.409 . S
C489 H481 0.930 . S
C489 C487 1.419 . S
C489 C490 1.362 . S
C490 H482 0.930 . S
C490 C489 1.362 . S
C490 C493 1.409 . S
C491 H483 0.930 . S
C491 C492 1.355 . S
C491 C493 1.415 . S
C492 C491 1.355 . S
C492 C494 1.419 . S
C493 C488 1.425 . S
C493 C490 1.409 . S
C493 C491 1.415 . S
C494 H484 0.930 . S
C494 C492 1.419 . S
C494 C495 1.362 . S
C495 H485 0.930 . S
C495 C488 1.409 . S
C495 C494 1.362 . S
H496 C502 0.930 . S
H497 C505 0.930 . S
H498 C506 0.930 . S
H499 C507 0.930 . S
H500 C510 0.930 . S
H501 C511 0.930 . S
C502 H496 0.930 . S
C502 C503 1.355 . S
C502 C504 1.415 . S
C503 C502 1.355 . S
C503 C505 1.419 . S
C504 C502 1.415 . S
C504 C509 1.425 . S
C504 C511 1.409 . S
C505 H497 0.930 . S
C505 C503 1.419 . S
C505 C506 1.362 . S
C506 H498 0.930 . S
C506 C505 1.362 . S
C506 C509 1.409 . S
C507 H499 0.930 . S
C507 C508 1.355 . S
C507 C509 1.415 . S
C508 C507 1.355 . S
C508 C510 1.419 . S
C509 C504 1.425 . S
C509 C506 1.409 . S
C509 C507 1.415 . S
C510 H500 0.930 . S
C510 C508 1.419 . S
C510 C511 1.362 . S
C511 H501 0.930 . S
C511 C504 1.409 . S
C511 C510 1.362 . S
H512 C518 0.930 . S
H513 C521 0.930 . S
H514 C522 0.930 . S
H515 C523 0.930 . S
H516 C526 0.930 . S
H517 C527 0.930 . S
C518 H512 0.930 . S
C518 C519 1.355 . S
C518 C520 1.415 . S
C519 C518 1.355 . S
C519 C521 1.419 . S
C520 C518 1.415 . S
C520 C525 1.425 . S
C520 C527 1.409 . S
C521 H513 0.930 . S
C521 C519 1.419 . S
C521 C522 1.362 . S
C522 H514 0.930 . S
C522 C521 1.362 . S
C522 C525 1.409 . S
C523 H515 0.930 . S
C523 C524 1.355 . S
C523 C525 1.415 . S
C524 C523 1.355 . S
C524 C526 1.419 . S
C525 C520 1.425 . S
C525 C522 1.409 . S
C525 C523 1.415 . S
C526 H516 0.930 . S
C526 C524 1.419 . S
C526 C527 1.362 . S
C527 H517 0.930 . S
C527 C520 1.409 . S
C527 C526 1.362 . S
H528 C534 0.930 . S
H529 C537 0.930 . S
H530 C538 0.930 . S
H531 C539 0.930 . S
H532 C542 0.930 . S
H533 C543 0.930 . S
C534 H528 0.930 . S
C534 C535 1.355 . S
C534 C536 1.415 . S
C535 C534 1.355 . S
C535 C537 1.419 . S
C536 C534 1.415 . S
C536 C541 1.425 . S
C536 C543 1.409 . S
C537 H529 0.930 . S
C537 C535 1.419 . S
C537 C538 1.362 . S
C538 H530 0.930 . S
C538 C537 1.362 . S
C538 C541 1.409 . S
C539 H531 0.930 . S
C539 C540 1.355 . S
C539 C541 1.415 . S
C540 C539 1.355 . S
C540 C542 1.419 . S
C541 C536 1.425 . S
C541 C538 1.409 . S
C541 C539 1.415 . S
C542 H532 0.930 . S
C542 C540 1.419 . S
C542 C543 1.362 . S
C543 H533 0.930 . S
C543 C536 1.409 . S
C543 C542 1.362 . S
H544 C550 0.930 . S
H545 C553 0.930 . S
H546 C554 0.930 1_554 S
H547 C555 0.930 . S
H548 C558 0.930 . S
H549 C559 0.930 . S
C550 H544 0.930 . S
C550 C551 1.355 . S
C550 C552 1.415 . S
C551 C550 1.355 . S
C551 C553 1.419 1_556 S
C552 C550 1.415 . S
C552 C557 1.425 . S
C552 C559 1.409 . S
C553 H545 0.930 . S
C553 C551 1.419 1_554 S
C553 C554 1.362 1_554 S
C554 H546 0.930 1_556 S
C554 C553 1.362 1_556 S
C554 C557 1.409 . S
C555 H547 0.930 . S
C555 C556 1.355 . S
C555 C557 1.415 . S
C556 C555 1.355 . S
C556 C558 1.419 . S
C557 C552 1.425 . S
C557 C554 1.409 . S
C557 C555 1.415 . S
C558 H548 0.930 . S
C558 C556 1.419 . S
C558 C559 1.362 . S
C559 H549 0.930 . S
C559 C552 1.409 . S
C559 C558 1.362 . S
C183 C7 1.487 . S
C188 C97 1.380 . S
C199 C37 1.423 . S
C204 C108 1.400 . S
C215 C54 1.363 . S
C220 C116 1.302 . S
C236 C130 1.373 . S
C231 C87 1.438 . S
C252 C141 1.401 . S
C247 C30 1.448 . S
C263 C51 1.435 . S
C268 C152 1.368 . S
C279 C84 1.402 . S
C284 C160 1.312 . S
C295 C10 1.418 . S
C300 C174 1.269 . S
C311 C59 1.347 . S
C316 C171 1.332 . S
C332 C138 1.170 . S
C327 C74 1.235 . S
C348 C149 1.362 . S
C343 C18 1.369 1_556 S
C359 C32 1.442 . S
C364 C163 1.361 . S
C380 C105 1.314 . S
C375 C73 1.338 . S
C391 C15 1.404 . S
C396 C119 1.392 . S
C412 C127 1.331 . S
C407 C43 1.374 . S
C428 C94 1.215 . S
C423 C62 1.228 . S
C444 N158 1.450 . S
C439 C21 1.496 . S
C460 N169 1.444 . S
C455 C29 1.441 . S
C471 C52 1.378 . S
C476 N136 1.344 . S
C492 N147 1.389 . S
C487 C81 1.440 . S
C508 N114 1.405 . S
C503 C40 1.461 . S
C519 C65 1.438 . S
C524 N125 1.398 . S
C540 N92 1.391 . S
C535 C76 1.385 . S
C556 N103 1.436 . S
C551 C8 1.449 1_556 S
