# Generated by pormake.
# Topology zzz, (3,6)-cn, num edge types: 1
# Building blocks:
#     Node 0, Type 0, BuildingBlock: CUQRIR_clean_linker_1, # of connection points: 3
#     Node 1, Type 0, BuildingBlock: CUQRIR_clean_linker_1, # of connection points: 3
#     Node 2, Type 0, BuildingBlock: CUQRIR_clean_linker_1, # of connection points: 3
#     Node 3, Type 0, BuildingBlock: CUQRIR_clean_linker_1, # of connection points: 3
#     Node 4, Type 0, BuildingBlock: CUQRIR_clean_linker_1, # of connection points: 3
#     Node 5, Type 0, BuildingBlock: CUQRIR_clean_linker_1, # of connection points: 3
#     Node 6, Type 0, BuildingBlock: CUQRIR_clean_linker_1, # of connection points: 3
#     Node 7, Type 0, BuildingBlock: CUQRIR_clean_linker_1, # of connection points: 3
#     Node 8, Type 1, BuildingBlock: KUMBOL_clean_sbu_1, # of connection points: 6
#     Node 9, Type 1, BuildingBlock: KUMBOL_clean_sbu_1, # of connection points: 6
#     Node 10, Type 1, BuildingBlock: KUMBOL_clean_sbu_1, # of connection points: 6
#     Node 11, Type 1, BuildingBlock: KUMBOL_clean_sbu_1, # of connection points: 6
#     Edge 12, Type (0, 1), BuildingBlock: OJICUG_clean_linker_0, # of connection points: 2
#     Edge 13, Type (0, 1), BuildingBlock: OJICUG_clean_linker_0, # of connection points: 2
#     Edge 14, Type (0, 1), BuildingBlock: OJICUG_clean_linker_0, # of connection points: 2
#     Edge 15, Type (0, 1), BuildingBlock: OJICUG_clean_linker_0, # of connection points: 2
#     Edge 16, Type (0, 1), BuildingBlock: OJICUG_clean_linker_0, # of connection points: 2
#     Edge 17, Type (0, 1), BuildingBlock: OJICUG_clean_linker_0, # of connection points: 2
#     Edge 18, Type (0, 1), BuildingBlock: OJICUG_clean_linker_0, # of connection points: 2
#     Edge 19, Type (0, 1), BuildingBlock: OJICUG_clean_linker_0, # of connection points: 2
#     Edge 20, Type (0, 1), BuildingBlock: OJICUG_clean_linker_0, # of connection points: 2
#     Edge 21, Type (0, 1), BuildingBlock: OJICUG_clean_linker_0, # of connection points: 2
#     Edge 22, Type (0, 1), BuildingBlock: OJICUG_clean_linker_0, # of connection points: 2
#     Edge 23, Type (0, 1), BuildingBlock: OJICUG_clean_linker_0, # of connection points: 2
#     Edge 24, Type (0, 1), BuildingBlock: OJICUG_clean_linker_0, # of connection points: 2
#     Edge 25, Type (0, 1), BuildingBlock: OJICUG_clean_linker_0, # of connection points: 2
#     Edge 26, Type (0, 1), BuildingBlock: OJICUG_clean_linker_0, # of connection points: 2
#     Edge 27, Type (0, 1), BuildingBlock: OJICUG_clean_linker_0, # of connection points: 2
#     Edge 28, Type (0, 1), BuildingBlock: OJICUG_clean_linker_0, # of connection points: 2
#     Edge 29, Type (0, 1), BuildingBlock: OJICUG_clean_linker_0, # of connection points: 2
#     Edge 30, Type (0, 1), BuildingBlock: OJICUG_clean_linker_0, # of connection points: 2
#     Edge 31, Type (0, 1), BuildingBlock: OJICUG_clean_linker_0, # of connection points: 2
#     Edge 32, Type (0, 1), BuildingBlock: OJICUG_clean_linker_0, # of connection points: 2
#     Edge 33, Type (0, 1), BuildingBlock: OJICUG_clean_linker_0, # of connection points: 2
#     Edge 34, Type (0, 1), BuildingBlock: OJICUG_clean_linker_0, # of connection points: 2
#     Edge 35, Type (0, 1), BuildingBlock: OJICUG_clean_linker_0, # of connection points: 2
# Relax obj value: 0.316
# Max RMSD: 0.141
# Mean RMSD: 0.096
data_MOF--net-zzz--node1-KUMBOL_clean_sbu_1--node2-CUQRIR_clean_linker_1--edge1-OJICUG_clean_linker_0
_symmetry_space_group_name_H-M    P1
_symmetry_Int_Tables_number       1
_symmetry_cell_setting            triclinic
loop_
_symmetry_equiv_pos_as_xyz
'x, y, z'
_cell_length_a     33.02825
_cell_length_b     32.921551
_cell_length_c     10.323674
_cell_angle_alpha  90.234291
_cell_angle_beta   90.878474
_cell_angle_gamma 90.166156
loop_
_atom_site_label
_atom_site_type_symbol
_atom_site_fract_x
_atom_site_fract_y
_atom_site_fract_z
_atom_type_partial_charge
C0 C 0.7534 0.55651 0.41988 0.0
N1 N 0.79313 0.54416 0.40683 0.0
N2 N 0.7333 0.56265 0.30147 0.0
C3 C 0.73458 0.56072 0.54812 0.0
C4 C 0.76307 0.55387 0.21834 0.0
N5 N 0.79693 0.54007 0.27944 0.0
C6 C 0.75835 0.55654 0.07303 0.0
H7 H 0.7015 0.5561 0.53953 0.0
H8 H 0.74237 0.59138 0.58453 0.0
H9 H 0.74806 0.53879 0.61756 0.0
H10 H 0.78663 0.54836 0.02263 0.0
H11 H 0.75064 0.58823 0.0471 0.0
H12 H 0.7332 0.5366 0.03879 0.0
C13 C 1.01645 0.75565 0.43424 0.0
N14 N 0.02847 0.79606 0.42574 0.0
N15 N 1.01437 0.73593 0.31397 0.0
C16 C 1.00948 0.73515 0.55983 0.0
C17 C 0.02438 0.76647 0.23436 0.0
N18 N 0.03547 0.8006 0.3 0.0
C19 C 0.02536 0.7623 0.08864 0.0
H20 H 0.03833 0.73419 0.61625 0.0
H21 H 0.99819 0.70409 0.54188 0.0
H22 H 0.98738 0.75276 0.61701 0.0
H23 H 0.02989 0.79212 0.04111 0.0
H24 H 0.9964 0.74902 0.05243 0.0
H25 H 0.05 0.74129 0.06088 0.0
C26 C 0.80872 1.0219 0.38645 0.0
N27 N 0.77347 0.04403 0.40775 0.0
N28 N 0.83494 0.04088 0.29999 0.0
C29 C 0.81816 0.98298 0.45392 0.0
C30 C 0.81367 0.07483 0.27009 0.0
N31 N 0.77865 0.07705 0.33585 0.0
C32 C 0.82488 0.10456 0.16471 0.0
H33 H 0.83386 0.99026 0.54687 0.0
H34 H 0.8384 0.96383 0.39495 0.0
H35 H 0.78989 0.96622 0.47575 0.0
H36 H 0.84269 0.08969 0.08775 0.0
H37 H 0.84286 0.1298 0.20821 0.0
H38 H 0.79784 0.11823 0.11766 0.0
C39 C 0.54796 0.80575 0.39964 0.0
N40 N 0.52569 0.77272 0.44415 0.0
N41 N 0.53359 0.82063 0.28105 0.0
C42 C 0.58474 0.82205 0.46768 0.0
C43 C 0.50461 0.79233 0.25228 0.0
N44 N 0.49769 0.76704 0.35217 0.0
C45 C 0.49204 0.78015 0.11579 0.0
H46 H 0.59068 0.80571 0.5596 0.0
H47 H 0.58067 0.85494 0.48631 0.0
H48 H 0.61125 0.8185 0.40395 0.0
H49 H 0.51326 0.79219 0.04291 0.0
H50 H 0.46082 0.79065 0.09381 0.0
H51 H 0.49162 0.74652 0.10674 0.0
C52 C 0.30241 0.52258 0.17067 0.0
N53 N 0.26271 0.53535 0.18527 0.0
N54 N 0.32337 0.5182 0.28804 0.0
C55 C 0.32076 0.51568 0.04211 0.0
C56 C 0.29448 0.5281 0.37309 0.0
N57 N 0.25954 0.53999 0.31325 0.0
C58 C 0.30237 0.53256 0.51752 0.0
H59 H 0.31334 0.4842 1.01263 0.0
H60 H 0.35401 0.52 0.04782 0.0
H61 H 0.30703 0.5361 0.96859 0.0
H62 H 0.32975 0.51614 0.55067 0.0
H63 H 0.27628 0.52069 0.57222 0.0
H64 H 0.30628 0.56519 0.54222 0.0
C65 C 0.0473 0.31895 0.12353 0.0
N66 N 0.03185 0.27957 0.13515 0.0
N67 N 0.04543 0.34147 0.23871 0.0
C68 C 0.06358 0.33561 1.00044 0.0
C69 C 0.03035 0.31377 0.32008 0.0
N70 N 1.02109 0.27839 0.25916 0.0
C71 C 1.02101 0.32252 0.46088 0.0
H72 H 0.09563 0.32617 0.99174 0.0
H73 H 0.06238 0.36921 1.0015 0.0
H74 H 0.04647 0.32325 0.91566 0.0
H75 H 0.03844 0.34878 0.4999 0.0
H76 H 0.02834 0.29594 0.52231 0.0
H77 H 0.98821 0.32898 0.46989 0.0
C78 C 0.2537 0.0549 0.16901 0.0
N79 N 0.29116 0.03537 0.16769 0.0
N80 N 0.2275 0.03885 0.26089 0.0
C81 C 0.24201 0.0885 0.07916 0.0
C82 C 0.25064 1.00931 0.3142 0.0
N83 N 0.28717 1.00687 0.25803 0.0
C84 C 0.23868 0.98389 0.42924 0.0
H85 H 0.2308 0.11472 0.13597 0.0
H86 H 0.21672 0.07794 1.01537 0.0
H87 H 0.26788 0.09805 1.01901 0.0
H88 H 0.22311 0.95596 0.39399 0.0
H89 H 0.21807 1.00079 0.49383 0.0
H90 H 0.26554 0.97446 0.48736 0.0
C91 C 0.51083 0.26747 0.18511 0.0
N92 N 0.53179 0.30084 0.13737 0.0
N93 N 0.52675 0.25337 0.30271 0.0
C94 C 0.47366 0.25028 0.12162 0.0
C95 C 0.55551 0.28241 0.32736 0.0
N96 N 0.56046 0.30774 0.22622 0.0
C97 C 0.56993 0.29503 0.46156 0.0
H98 H 0.44784 0.25335 0.18839 0.0
H99 H 0.47826 0.21749 0.1028 0.0
H100 H 0.46623 0.26627 0.03016 0.0
H101 H 0.60153 0.28478 0.47864 0.0
H102 H 0.54988 0.28313 0.53797 0.0
H103 H 0.57024 0.32867 0.47001 0.0
C104 C 0.12585 0.11794 0.95678 0.0
C105 C 0.09926 0.14242 0.16039 0.0
C106 C 0.0984 0.11406 0.05701 0.0
C107 C 0.12869 0.17324 0.16429 0.0
C108 C 0.15522 0.14928 0.96008 0.0
C109 C 0.15675 0.17649 0.06492 0.0
N110 N 0.1226 0.0923 0.85311 0.0
C111 C 0.14982 0.09478 0.75504 0.0
C112 C 0.18192 0.15276 0.85691 0.0
C113 C 0.17935 0.12521 0.75436 0.0
Gd114 Gd 0.98272 0.04176 0.66059 0.0
Gd115 Gd 0.07666 0.03761 0.87445 0.0
N116 N 0.07023 0.08357 0.05162 0.0
C117 C 0.07025 0.13935 0.25669 0.0
C118 C 0.04374 0.07932 0.15087 0.0
C119 C 0.04241 0.10766 0.25184 0.0
H120 H 0.02417 0.05376 0.15666 0.0
H121 H 1.02049 0.10439 0.32797 0.0
H122 H 0.03428 0.03044 0.37389 0.0
H123 H 0.15064 0.07162 0.68173 0.0
H124 H 0.03873 0.98189 0.19778 0.0
H125 H 0.06969 0.16071 0.33669 0.0
H126 H 0.1298 0.19495 0.24345 0.0
H127 H 0.9091 1.0046 0.84888 0.0
H128 H 0.20494 0.17627 0.85632 0.0
H129 H 0.20074 0.12675 0.67612 0.0
H130 H 0.93188 0.88779 0.27414 0.0
H131 H 0.17912 0.20061 0.06896 0.0
H132 H 0.85753 0.89994 0.66547 0.0
H133 H 0.86066 0.9478 0.8504 0.0
N134 N 0.93724 0.98639 0.67507 0.0
C135 C 0.93459 0.96163 0.56911 0.0
C136 C 0.91033 0.98217 0.7734 0.0
C137 C 0.8798 0.92418 0.66665 0.0
C138 C 0.88177 0.9508 0.77182 0.0
C139 C 0.90604 0.92957 0.56307 0.0
H140 H 0.88337 0.87868 0.44948 0.0
N141 N 0.9899 0.99776 0.47882 0.0
C142 C 0.96215 0.96693 0.46991 0.0
C143 C 0.98962 0.94532 0.26512 0.0
C144 C 0.96143 0.93999 0.36279 0.0
C145 C 1.01567 1.00408 0.37861 0.0
C146 C 1.01711 0.97721 0.27392 0.0
O147 O 0.05975 0.10256 0.80647 0.0
O148 O 0.9914 0.10109 0.79103 0.0
O149 O 0.91865 0.05496 0.65236 0.0
O150 O 0.95645 0.07336 0.49625 0.0
O151 O 1.01648 1.01332 0.97254 0.0
O152 O 0.96885 0.05283 0.87168 0.0
O153 O 0.99939 0.97586 0.72217 0.0
O154 O 0.0675 0.97572 0.75852 0.0
O155 O 0.10676 1.01275 0.04401 0.0
O156 O 0.13966 1.02049 0.8674 0.0
O157 O 0.0431 0.06608 0.56523 0.0
O158 O 0.08892 1.0245 0.66357 0.0
C159 C 0.02509 0.12138 0.82518 0.0
C160 C 0.97893 0.02903 0.96836 0.0
C161 C 0.8988 0.11326 0.54455 0.0
C162 C 0.90506 0.18492 0.50759 0.0
C163 C 0.84926 0.15989 0.63324 0.0
C164 C 0.86385 0.12018 0.61791 0.0
C165 C 0.87058 0.19269 0.58084 0.0
C166 C 0.91645 0.14532 0.48091 0.0
C167 C 0.9201 0.07433 0.54455 0.0
C168 C 0.93275 0.90851 0.35598 0.0
C169 C 0.9051 0.90336 0.45565 0.0
H170 H 0.99006 0.92532 0.18151 0.0
C171 C 0.03418 0.95618 0.7169 0.0
C172 C 0.0798 0.04875 0.56749 0.0
C173 C 0.16093 0.96885 1.00014 0.0
C174 C 0.15478 0.90158 0.08411 0.0
C175 C 0.22064 0.92711 0.02392 0.0
C176 C 0.20303 0.96453 0.99287 0.0
C177 C 0.19685 0.89612 0.07645 0.0
C178 C 0.1372 0.93581 0.02946 0.0
C179 C 0.14117 1.00777 0.98502 0.0
H180 H 0.82268 0.16536 0.69075 0.0
H181 H 0.84877 0.09531 0.66601 0.0
H182 H 0.86107 0.22354 0.6002 0.0
H183 H 0.94212 0.13993 0.41863 0.0
H184 H 0.25273 0.92279 1.01172 0.0
H185 H 0.22195 0.98973 0.96382 0.0
H186 H 0.21122 0.86887 0.11299 0.0
H187 H 0.10447 0.93851 0.02279 0.0
C188 C 0.51905 0.90751 0.70571 0.0
C189 C 0.45055 0.88094 0.71929 0.0
C190 C 0.47749 0.91382 0.701 0.0
C191 C 0.46591 0.84194 0.74316 0.0
C192 C 0.53441 0.86857 0.73564 0.0
C193 C 0.50771 0.83588 0.75273 0.0
N194 N 0.54431 0.94009 0.69323 0.0
C195 C 0.58528 0.93461 0.70086 0.0
C196 C 0.57613 0.8639 0.7532 0.0
C197 C 0.6017 0.89686 0.73311 0.0
Gd198 Gd 0.55429 0.07014 0.92396 0.0
Gd199 Gd 0.51233 1.00403 0.66083 0.0
N200 N 0.46338 0.9523 0.68485 0.0
C201 C 0.40891 0.8884 0.71693 0.0
C202 C 0.42271 0.95942 0.68129 0.0
C203 C 0.39495 0.92782 0.69764 0.0
H204 H 0.41131 0.98927 0.66044 0.0
H205 H 0.36276 0.9339 0.69396 0.0
H206 H 0.65549 0.08466 0.91575 0.0
H207 H 0.6059 0.95892 0.68478 0.0
H208 H 0.70375 0.13958 0.87409 0.0
H209 H 0.38731 0.86399 0.73036 0.0
H210 H 0.44567 0.81647 0.75802 0.0
H211 H 0.4608 0.11599 0.9098 0.0
H212 H 0.58896 0.83481 0.78003 0.0
H213 H 0.63417 0.89326 0.74262 0.0
H214 H 0.62094 0.25751 0.82117 0.0
H215 H 0.51912 0.80593 0.77597 0.0
H216 H 0.47767 0.23983 0.81177 0.0
H217 H 0.43249 0.1816 0.85261 0.0
N218 N 0.52246 0.13442 0.89624 0.0
C219 C 0.54773 0.16694 0.88249 0.0
C220 C 0.48146 0.14012 0.89174 0.0
C221 C 0.49053 0.21074 0.83836 0.0
C222 C 0.46499 0.17788 0.86007 0.0
C223 C 0.5323 0.20594 0.85355 0.0
H224 H 0.54746 0.26829 0.80949 0.0
N225 N 0.60326 0.12179 0.89634 0.0
C226 C 0.58926 0.1604 0.88287 0.0
C227 C 0.65769 0.18538 0.85764 0.0
C228 C 0.61614 0.19311 0.86121 0.0
C229 C 0.6439 0.11442 0.89434 0.0
C230 C 0.6716 0.14585 0.87442 0.0
O231 O 0.5139 0.97433 0.86399 0.0
O232 O 0.56854 1.00225 0.96548 0.0
O233 O 0.59467 0.06862 0.09003 0.0
O234 O 0.53371 0.09121 0.11289 0.0
O235 O 0.45749 0.03267 0.76846 0.0
O236 O 0.48714 0.04919 0.96379 0.0
O237 O 0.55012 0.10086 0.72278 0.0
O238 O 0.49635 0.07149 0.62036 0.0
O239 O 0.47479 1.00951 0.48942 0.0
O240 O 0.53235 0.97896 0.47618 0.0
O241 O 0.60865 0.04071 0.81474 0.0
O242 O 0.57874 1.02611 0.61911 0.0
C243 C 0.54331 0.97134 0.95199 0.0
C244 C 0.45359 0.04149 0.89349 0.0
C245 C 0.58382 0.11115 0.26944 0.0
C246 C 0.63845 0.1575 0.32463 0.0
C247 C 0.61024 0.11458 0.48847 0.0
C248 C 0.58537 0.09602 0.39543 0.0
C249 C 0.63484 0.1469 0.45549 0.0
C250 C 0.60698 0.1455 0.23853 0.0
C251 C 0.56827 0.08349 0.16909 0.0
C252 C 0.60077 0.23218 0.83882 0.0
C253 C 0.55896 0.23844 0.83325 0.0
H254 H 0.67923 0.20965 0.84143 0.0
C255 C 0.52054 0.10315 0.63512 0.0
C256 C 0.6124 0.03327 0.6887 0.0
C257 C 0.48172 0.96383 0.31684 0.0
C258 C 0.42439 0.92023 0.27335 0.0
C259 C 0.45174 0.9607 0.10207 0.0
C260 C 0.47846 0.9789 0.19083 0.0
C261 C 0.42642 0.92952 0.14106 0.0
C262 C 0.45795 0.93043 0.35239 0.0
C263 C 0.49991 0.99071 0.41462 0.0
H264 H 0.61117 0.1042 0.58678 0.0
H265 H 0.56825 0.06916 0.42013 0.0
H266 H 0.656 0.15796 0.52875 0.0
H267 H 0.6086 0.15468 0.13851 0.0
H268 H 0.45 0.97062 1.00312 0.0
H269 H 0.49589 1.0052 0.16276 0.0
H270 H 0.40326 0.91917 0.07306 0.0
H271 H 0.45749 0.92154 0.45245 0.0
C272 C 0.42486 0.4735 0.99695 0.0
C273 C 0.45479 0.44506 0.19259 0.0
C274 C 0.45513 0.4743 0.09248 0.0
C275 C 0.42291 0.4169 0.1994 0.0
C276 C 0.3939 0.44373 1.00041 0.0
C277 C 0.39234 0.41649 0.10432 0.0
N278 N 0.42854 0.49834 0.89259 0.0
C279 C 0.40059 0.49681 0.79368 0.0
C280 C 0.36713 0.44025 0.89465 0.0
C281 C 0.37011 0.46731 0.79185 0.0
Gd282 Gd 0.57283 0.52502 0.6923 0.0
Gd283 Gd 0.48242 0.54552 0.90065 0.0
N284 N 0.48686 0.50066 0.08017 0.0
C285 C 0.48749 0.44353 0.27966 0.0
C286 C 0.51782 0.50003 0.16915 0.0
C287 C 0.5191 0.47109 0.26757 0.0
H288 H 0.54146 0.52191 0.16826 0.0
H289 H 0.54439 0.47045 0.33513 0.0
H290 H 0.51858 0.54285 0.41077 0.0
H291 H 0.40113 0.51882 0.71704 0.0
H292 H 0.51552 0.59382 0.24197 0.0
H293 H 0.48867 0.42115 0.3563 0.0
H294 H 0.42222 0.39454 0.27609 0.0
H295 H 0.65578 0.55037 0.87024 0.0
H296 H 0.34358 0.41726 0.89258 0.0
H297 H 0.34865 0.46567 0.7118 0.0
H298 H 0.6343 0.67432 0.31065 0.0
H299 H 0.36868 0.39369 0.10876 0.0
H300 H 0.70941 0.65562 0.70374 0.0
H301 H 0.70568 0.60586 0.88093 0.0
N302 N 0.62819 0.57074 0.6948 0.0
C303 C 0.63172 0.59591 0.59123 0.0
C304 C 0.65582 0.57272 0.79446 0.0
C305 C 0.68698 0.63156 0.69902 0.0
C306 C 0.68484 0.60364 0.79965 0.0
C307 C 0.66145 0.62697 0.59068 0.0
H308 H 0.68598 0.67766 0.48373 0.0
N309 N 0.57142 0.56667 0.50414 0.0
C310 C 0.60248 0.59386 0.49314 0.0
C311 C 0.57072 0.62309 0.30259 0.0
C312 C 0.60275 0.62283 0.39228 0.0
C313 C 0.54153 0.56563 0.41139 0.0
C314 C 0.54014 0.59426 0.31203 0.0
O315 O 0.49101 0.47697 0.84525 0.0
O316 O 0.5591 0.47253 0.83305 0.0
O317 O 0.5873 0.47985 0.54787 0.0
O318 O 0.63184 0.49609 0.69548 0.0
O319 O 0.5448 0.56898 0.99237 0.0
O320 O 0.58745 0.52223 0.90772 0.0
O321 O 0.56282 0.59475 0.72602 0.0
O322 O 0.49671 0.60349 0.78257 0.0
O323 O 0.46062 0.57992 0.06455 0.0
O324 O 0.42309 0.57418 0.88865 0.0
O325 O 0.50974 0.50446 0.60013 0.0
O326 O 0.46904 0.55272 0.68571 0.0
C327 C 0.5241 0.45441 0.8529 0.0
C328 C 0.5814 0.55152 0.99144 0.0
C329 C 0.65599 0.46019 0.51171 0.0
C330 C 0.67371 0.41924 0.32462 0.0
C331 C 0.72671 0.44863 0.46036 0.0
C332 C 0.69732 0.46541 0.54158 0.0
C333 C 0.71499 0.42523 0.35211 0.0
C334 C 0.64489 0.43641 0.40643 0.0
C335 C 0.62331 0.47309 0.59705 0.0
C336 C 0.63367 0.65212 0.38782 0.0
C337 C 0.66314 0.654 0.48623 0.0
H338 H 0.56939 0.64529 0.22544 0.0
C339 C 0.53069 0.61867 0.73634 0.0
C340 C 0.47453 0.52441 0.59825 0.0
C341 C 0.39503 0.61311 0.06449 0.0
C342 C 0.3785 0.66316 0.22868 0.0
C343 C 0.32624 0.63823 0.08099 0.0
C344 C 0.35472 0.61345 0.01976 0.0
C345 C 0.33805 0.6632 0.18547 0.0
C346 C 0.4066 0.63865 0.16482 0.0
C347 C 0.42662 0.58857 1.00487 0.0
H348 H 0.75854 0.45288 0.48324 0.0
H349 H 0.70674 0.48141 0.62862 0.0
H350 H 0.73778 0.41119 0.29249 0.0
H351 H 0.61299 0.42964 0.39183 0.0
H352 H 0.29512 0.63839 0.04653 0.0
H353 H 0.34547 0.59514 0.93722 0.0
H354 H 0.31602 0.68275 0.23072 0.0
H355 H 0.43851 0.64012 0.19073 0.0
C356 C 0.10983 0.44224 0.95217 0.0
C357 C 0.1353 0.46912 0.15696 0.0
C358 C 0.10598 0.46917 0.05559 0.0
C359 C 0.16664 0.44044 0.15697 0.0
C360 C 0.14188 0.41388 0.951 0.0
C361 C 0.16974 0.41271 0.05479 0.0
N362 N 0.08354 0.44524 0.84954 0.0
C363 C 0.08612 0.41857 0.74807 0.0
C364 C 0.14542 0.38783 0.84452 0.0
C365 C 0.11721 0.38999 0.74313 0.0
Gd366 Gd 0.03605 0.58505 0.67202 0.0
Gd367 Gd 0.02899 0.49094 0.87486 0.0
N368 N 0.0752 0.49684 0.05349 0.0
C369 C 0.13296 0.49852 0.25424 0.0
C370 C 0.07169 0.52369 0.15389 0.0
C371 C 0.10093 0.52579 0.25292 0.0
H372 H 0.04632 0.54333 0.16138 0.0
H373 H 0.09827 0.548 0.32986 0.0
H374 H 0.02419 0.53553 0.37843 0.0
H375 H 0.0628 0.4174 0.6746 0.0
H376 H 0.97489 0.53164 0.20261 0.0
H377 H 0.15527 0.49988 0.33209 0.0
H378 H 0.18906 0.43989 0.23469 0.0
H379 H 1.00255 0.66118 0.86313 0.0
H380 H 0.16948 0.36557 0.84047 0.0
H381 H 0.11883 0.36904 0.66228 0.0
H382 H 0.88111 0.63739 0.29281 0.0
H383 H 0.1944 0.39107 0.0555 0.0
H384 H 0.89661 0.71206 0.68836 0.0
H385 H 0.94612 0.70948 0.86998 0.0
N386 N 0.98258 0.6324 0.68892 0.0
C387 C 0.95663 0.6345 0.58514 0.0
C388 C 0.97947 0.6596 0.7888 0.0
C389 C 0.92061 0.68971 0.68719 0.0
C390 C 0.94823 0.68808 0.7905 0.0
C391 C 0.9248 0.66312 0.58225 0.0
H392 H 0.8734 0.68585 0.47202 0.0
N393 N 0.99202 0.57936 0.48863 0.0
C394 C 0.96121 0.60703 0.48345 0.0
C395 C 0.93871 0.58018 0.27647 0.0
C396 C 0.93371 0.60787 0.37736 0.0
C397 C 0.99788 0.55399 0.38565 0.0
C398 C 0.97054 0.5528 0.2815 0.0
O399 O 0.09379 0.50973 0.814 0.0
O400 O 0.09063 0.57793 0.82005 0.0
O401 O 0.08111 0.60544 0.53397 0.0
O402 O 0.04425 0.64868 0.63265 0.0
O403 O 1.00561 0.5519 0.97684 0.0
O404 O 0.04586 0.60035 0.88516 0.0
O405 O 0.97015 0.56837 0.72806 0.0
O406 O 0.96943 0.49989 0.74816 0.0
O407 O 0.99948 0.46329 0.03913 0.0
O408 O 1.0138 0.42695 0.87267 0.0
O409 O 0.05807 0.52409 0.57114 0.0
O410 O 1.01625 0.47744 0.66177 0.0
C411 C 0.11165 0.5444 0.84509 0.0
C412 C 1.02214 0.58945 0.98 0.0
C413 C 0.11123 0.66702 0.60324 0.0
C414 C 0.18315 0.66402 0.58563 0.0
C415 C 0.15417 0.69037 0.78214 0.0
C416 C 0.11548 0.68279 0.73007 0.0
C417 C 0.18823 0.67883 0.7123 0.0
C418 C 0.14499 0.66381 0.52638 0.0
C419 C 0.07543 0.64372 0.56187 0.0
C420 C 0.90227 0.63644 0.37401 0.0
C421 C 0.89792 0.66408 0.47588 0.0
H422 H 0.91878 0.58047 0.19211 0.0
C423 C 0.95036 0.53376 0.71228 0.0
C424 C 0.03995 0.48761 0.56634 0.0
C425 C 0.95754 0.40733 0.98625 0.0
C426 C 0.88865 0.41625 0.04555 0.0
C427 C 0.9161 0.34845 0.03312 0.0
C428 C 0.95372 0.36514 1.00139 0.0
C429 C 0.88386 0.37424 0.06202 0.0
C430 C 0.92343 0.43133 0.98883 0.0
C431 C 0.99679 0.42754 0.98385 0.0
H432 H 0.1576 0.70102 0.88105 0.0
H433 H 0.08949 0.6864 0.79177 0.0
H434 H 0.21769 0.67833 0.75982 0.0
H435 H 0.14143 0.65087 0.42969 0.0
H436 H 0.9128 0.31599 0.04446 0.0
H437 H 0.97952 0.34547 0.99212 0.0
H438 H 0.85662 0.36183 0.1037 0.0
H439 H 0.92616 0.46365 0.96971 0.0
C440 C 0.17218 0.08344 0.35899 0.0
C441 C 0.18485 0.0466 0.30049 0.0
H442 H 0.12885 0.1142 0.48152 0.0
C443 C 0.15766 1.01344 0.31392 0.0
H444 H 0.19181 0.10976 0.35526 0.0
C445 C 0.12253 1.01542 0.39146 0.0
C446 C 0.11084 0.05129 0.45623 0.0
H447 H 0.16559 0.98426 0.2732 0.0
H448 H 0.10548 0.98772 0.40639 0.0
C449 C 0.13571 0.08586 0.43317 0.0
C450 C 0.55157 0.20453 0.47522 0.0
C451 C 0.52144 0.21541 0.38268 0.0
H452 H 0.57212 0.16791 0.63046 0.0
C453 C 0.48863 0.18696 0.3737 0.0
H454 H 0.58001 0.22034 0.48121 0.0
C455 C 0.48725 0.15066 0.45284 0.0
C456 C 0.51734 0.14213 0.54956 0.0
H457 H 0.46401 0.19192 0.30592 0.0
H458 H 0.46245 0.12948 0.43836 0.0
C459 C 0.54786 0.17177 0.56104 0.0
C460 C 0.38937 0.55205 0.34846 0.0
C461 C 0.36696 0.51594 0.32733 0.0
H462 H 0.44021 0.58225 0.44247 0.0
C463 C 0.38315 0.48106 0.3903 0.0
H464 H 0.3766 0.58018 0.31438 0.0
C465 C 0.41947 0.48246 0.46886 0.0
C466 C 0.4413 0.51909 0.49095 0.0
H467 H 0.36601 0.45301 0.38619 0.0
H468 H 0.42892 0.45523 0.51923 0.0
C469 C 0.42543 0.55346 0.42643 0.0
C470 C 0.08263 0.40193 0.33842 0.0
C471 C 0.04755 0.3853 0.27648 0.0
H472 H 0.10865 0.44637 0.47215 0.0
C473 C 1.01115 0.40662 0.302 0.0
H474 H 0.11107 0.38596 0.3299 0.0
C475 C 1.00948 0.44083 0.38746 0.0
C476 C 0.04423 0.4567 0.45231 0.0
H477 H 0.98284 0.39427 0.26499 0.0
H478 H 0.98013 0.45374 0.40805 0.0
C479 C 0.0811 0.43683 0.42253 0.0
C480 C 0.90474 0.0638 0.23396 0.0
C481 C 0.87593 0.03197 0.24595 0.0
H482 H 0.95676 0.08873 0.13949 0.0
C483 C 0.88578 0.99575 0.17825 0.0
H484 H 0.89909 0.09252 0.28031 0.0
C485 C 0.92132 0.99283 0.09936 0.0
C486 C 0.94814 1.02629 0.08062 0.0
H487 H 0.86491 0.97038 0.17938 0.0
H488 H 0.92629 0.96496 0.04607 0.0
C489 C 0.93876 0.06154 0.15197 0.0
C490 C 0.50968 0.87073 0.11143 0.0
C491 C 0.53967 0.8589 0.20332 0.0
H492 H 0.48989 0.90814 0.95692 0.0
C493 C 0.57316 0.88646 0.21285 0.0
H494 H 0.48094 0.85542 0.10526 0.0
C495 C 0.57542 0.92283 0.13413 0.0
C496 C 0.54546 0.9323 0.0377 0.0
H497 H 0.59761 0.88063 0.28066 0.0
H498 H 0.60079 0.94331 0.14858 0.0
C499 C 0.51408 0.90357 0.02626 0.0
C500 C 0.6758 0.59766 0.17824 0.0
C501 C 0.69005 0.56522 0.2574 0.0
H502 H 0.63102 0.62028 0.03993 0.0
C503 C 0.66539 0.53021 0.25381 0.0
H504 H 0.69422 0.62475 0.17051 0.0
C505 C 0.62913 0.52727 0.17694 0.0
C506 C 0.61503 0.5592 0.09665 0.0
H507 H 0.67643 0.50366 0.30206 0.0
H508 H 0.61279 0.49891 0.17608 0.0
C509 C 0.63915 0.59497 0.10157 0.0
C510 C 0.04845 0.66995 0.25128 0.0
C511 C 1.01249 0.69286 0.26714 0.0
H512 H 0.07965 0.6208 0.15481 0.0
C513 C 0.97863 0.67826 0.19384 0.0
H514 H 0.07613 0.6808 0.29716 0.0
C515 C 0.98067 0.64344 0.10983 0.0
C516 C 1.01682 0.62093 0.09255 0.0
H517 H 0.95082 0.69557 0.19488 0.0
H518 H 0.95409 0.63545 0.05248 0.0
C519 C 0.05057 0.63532 0.16676 0.0
C520 C 0.95063 0.26225 0.29553 0.0
C521 C 0.99169 0.25232 0.31305 0.0
H522 H 0.88944 0.24819 0.34601 0.0
C523 C 1.00359 0.22647 0.41283 0.0
H524 H 0.94176 0.28471 0.22474 0.0
C525 C 0.9746 0.20967 0.49177 0.0
C526 C 0.93314 0.21597 0.46467 0.0
H527 H 0.03539 0.22115 0.43326 0.0
H528 H 0.98428 0.18884 0.5672 0.0
C529 C 0.92118 0.24319 0.36846 0.0
C530 C 0.34718 0.98982 0.38197 0.0
C531 C 0.31717 0.97819 0.29453 0.0
H532 H 0.40644 0.97981 0.44295 0.0
C533 C 0.31613 0.93848 0.24561 0.0
H534 H 0.34655 1.01952 0.42738 0.0
C535 C 0.3495 0.91318 0.26414 0.0
C536 C 0.38418 0.92877 0.32736 0.0
H537 H 0.29097 0.92824 0.18673 0.0
H538 H 0.3507 0.88464 0.21174 0.0
C539 C 0.38076 0.96554 0.39708 0.0
C540 C 0.58811 0.37595 0.18262 0.0
C541 C 0.59416 0.33518 0.2145 0.0
H542 H 0.61508 0.43278 0.14419 0.0
C543 C 0.63383 0.32133 0.23864 0.0
H544 H 0.55796 0.38821 0.17019 0.0
C545 C 0.66574 0.3492 0.24814 0.0
C546 C 0.65809 0.39051 0.22633 0.0
H547 H 0.63931 0.28974 0.26166 0.0
H548 H 0.69436 0.33943 0.28992 0.0
C549 C 0.62115 0.40144 0.16736 0.0
C550 C 0.25027 0.61173 0.35597 0.0
C551 C 0.23711 0.5715 0.37305 0.0
H552 H 0.2437 0.674 0.41343 0.0
C553 C 0.21157 0.562 0.47497 0.0
H554 H 0.27167 0.61872 0.28128 0.0
C555 C 0.19878 0.59256 0.55746 0.0
C556 C 0.20996 0.6332 0.53498 0.0
H557 H 0.20311 0.53079 0.49351 0.0
H558 H 0.17774 0.585 0.6334 0.0
C559 C 0.23588 0.64273 0.43421 0.0
C560 C 0.06362 0.8678 0.26363 0.0
C561 C 0.06686 0.826 0.25321 0.0
H562 H 0.09231 0.92452 0.23592 0.0
C563 C 0.10188 0.80833 0.20105 0.0
H564 H 0.03741 0.88131 0.3074 0.0
C565 C 0.13187 0.83265 0.14926 0.0
C566 C 0.12792 0.87476 0.15609 0.0
H567 H 0.10536 0.77566 0.19705 0.0
H568 H 0.15707 0.81861 0.1005 0.0
C569 C 0.09494 0.89201 0.22208 0.0
C570 C 0.7213 0.0981 0.20722 0.0
C571 C 0.74823 0.10614 0.30827 0.0
H572 H 0.66442 0.10988 0.12993 0.0
C573 C 0.7462 0.14278 0.37699 0.0
H574 H 0.72425 0.07075 0.14939 0.0
C575 C 0.71276 0.16812 0.35771 0.0
C576 C 0.68048 0.1547 0.27713 0.0
H577 H 0.76881 0.1502 0.45046 0.0
H578 H 0.70893 0.19389 0.42193 0.0
C579 C 0.68783 0.12236 0.19095 0.0
C580 C 0.46383 0.70168 0.39527 0.0
C581 C 0.46171 0.7426 0.36114 0.0
H582 H 0.43174 0.647 0.42285 0.0
C583 C 0.42388 0.75916 0.32505 0.0
H584 H 0.4925 0.68703 0.41524 0.0
C585 C 0.39075 0.73349 0.30274 0.0
C586 C 0.39491 0.69183 0.3263 0.0
H587 H 0.42127 0.79101 0.30062 0.0
H588 H 0.36442 0.74521 0.25159 0.0
C589 C 0.42881 0.67854 0.39769 0.0
C590 C 0.79958 0.47477 0.1652 0.0
C591 C 0.81969 0.50808 0.22385 0.0
H592 H 0.80599 0.41936 0.05788 0.0
C593 C 0.86142 0.50913 0.23213 0.0
H594 H 0.76683 0.47315 0.16187 0.0
C595 C 0.88348 0.47759 0.1815 0.0
C596 C 0.86381 0.44577 0.11332 0.0
H597 H 0.87635 0.53361 0.28279 0.0
H598 H 0.91612 0.47855 0.19347 0.0
C599 C 0.82164 0.4439 0.10796 0.0
C600 C 0.06135 0.22906 0.96753 0.0
C601 C 0.02845 0.24362 0.042 0.0
H602 H 0.08578 0.18295 0.83954 0.0
C603 C 0.99312 0.21838 0.03146 0.0
H604 H 0.08943 0.24607 0.96887 0.0
C605 C 0.99156 0.18061 0.96025 0.0
C606 C 0.02498 0.16507 0.89116 0.0
H607 H 0.96568 0.22755 0.07775 0.0
H608 H 0.96384 0.163 0.96191 0.0
C609 C 0.05944 0.19154 0.8939 0.0
C610 C 0.36683 0.05398 0.15586 0.0
C611 C 0.32979 0.04236 0.09312 0.0
H612 H 0.43193 0.06274 0.14896 0.0
C613 C 0.33416 0.03216 0.95998 0.0
H614 H 0.36625 0.06277 0.25677 0.0
C615 C 0.37281 0.03307 0.89544 0.0
C616 C 0.41026 0.04316 0.9597 0.0
H617 H 0.3076 1.02248 0.9053 0.0
H618 H 0.37299 1.02531 0.79394 0.0
C619 C 0.4054 0.05417 0.09221 0.0
C620 C 0.55629 0.34304 0.9473 0.0
C621 C 0.52411 0.32937 0.02709 0.0
H622 H 0.5837 0.39308 0.84373 0.0
C623 C 0.48872 0.35323 1.01947 0.0
H624 H 0.58402 0.32561 0.94496 0.0
C625 C 0.48759 0.39065 0.94949 0.0
C626 C 0.5225 0.40889 0.89623 0.0
H627 H 0.46232 0.34411 0.07304 0.0
H628 H 0.45933 0.40589 0.94061 0.0
C629 C 0.55632 0.38258 0.8894 0.0
C630 C 0.21829 0.51051 0.99236 0.0
C631 C 0.22812 0.54034 0.08805 0.0
H632 H 0.17671 0.48834 0.84272 0.0
C633 C 0.20014 0.57342 0.09125 0.0
H634 H 0.23758 0.4842 0.98307 0.0
C635 C 0.16436 0.57551 1.01069 0.0
C636 C 0.15348 0.54469 0.9205 0.0
H637 H 0.20527 0.59865 0.15564 0.0
H638 H 0.14434 0.6012 0.02242 0.0
C639 C 0.18236 0.5127 0.91137 0.0
C640 C 0.06848 0.85257 0.548 0.0
C641 C 0.03178 0.83039 0.52398 0.0
H642 H 0.09856 0.90748 0.61916 0.0
C643 C 0.99718 0.84867 0.57951 0.0
H644 H 0.09643 0.8407 0.50994 0.0
C645 C 0.99886 0.88697 0.64797 0.0
C646 C 0.0347 0.91109 0.66127 0.0
H647 H 0.96805 0.83396 0.56626 0.0
H648 H 0.97128 0.89805 0.68987 0.0
C649 C 0.06979 0.89172 0.61214 0.0
C650 C 0.69761 1.02618 0.41862 0.0
C651 C 0.73517 0.0353 0.48218 0.0
H652 H 0.6325 1.0179 0.42752 0.0
C653 C 0.73161 0.04241 0.61771 0.0
H654 H 0.69747 1.02081 0.31518 0.0
C655 C 0.69331 0.04056 0.68423 0.0
C656 C 0.65541 0.03251 0.61998 0.0
H657 H 0.75859 0.05041 0.673 0.0
H658 H 0.69377 0.04591 0.78738 0.0
C659 C 0.65944 1.02468 0.4847 0.0
C660 C 0.56675 0.71786 0.5579 0.0
C661 C 0.53225 0.74304 0.55236 0.0
H662 H 0.59477 0.66418 0.63447 0.0
C663 C 0.49994 0.73033 0.63337 0.0
H664 H 0.59306 0.72599 0.50233 0.0
C665 C 0.49934 0.69117 0.69468 0.0
C666 C 0.53245 0.66386 0.68797 0.0
H667 H 0.47275 0.74857 0.63645 0.0
H668 H 0.47206 0.68178 0.74317 0.0
C669 C 0.56713 0.68054 0.62862 0.0
C670 C 0.8498 0.50218 0.5185 0.0
C671 C 0.82745 0.53904 0.50432 0.0
H672 H 0.90422 0.47131 0.58699 0.0
C673 C 0.84426 0.57237 0.57447 0.0
H674 H 0.83858 0.47501 0.47059 0.0
C675 C 0.88179 0.56964 0.64689 0.0
C676 C 0.90618 0.53398 0.65079 0.0
H677 H 0.82902 0.6014 0.56995 0.0
H678 H 0.8921 0.59627 0.69917 0.0
C679 C 0.8881 0.49989 0.5873 0.0
loop_
_geom_bond_atom_site_label_1
_geom_bond_atom_site_label_2
_geom_bond_distance
_geom_bond_site_symmetry_2
_ccdc_geom_bond_type
C0 N1 1.317 . S
C0 N2 1.348 . S
C0 C3 1.485 . S
N1 C0 1.317 . S
N1 N5 1.370 . S
N2 C0 1.348 . S
N2 C4 1.346 . S
C3 C0 1.485 . S
C3 H7 0.960 . S
C3 H8 0.961 . S
C3 H9 0.960 . S
C4 N2 1.346 . S
C4 N5 1.307 . S
C4 C6 1.486 . S
N5 N1 1.370 . S
N5 C4 1.307 . S
C6 C4 1.486 . S
C6 H10 0.960 . S
C6 H11 0.960 . S
C6 H12 0.959 . S
H7 C3 0.960 . S
H8 C3 0.961 . S
H9 C3 0.960 . S
H10 C6 0.960 . S
H11 C6 0.960 . S
H12 C6 0.959 . S
C13 N14 1.317 . S
C13 N15 1.348 . S
C13 C16 1.485 . S
N14 C13 1.317 . S
N14 N18 1.370 . S
N15 C13 1.348 . S
N15 C17 1.346 . S
C16 C13 1.485 . S
C16 H20 0.960 1_655 S
C16 H21 0.961 . S
C16 H22 0.960 . S
C17 N15 1.346 . S
C17 N18 1.307 . S
C17 C19 1.486 . S
N18 N14 1.370 . S
N18 C17 1.307 . S
C19 C17 1.486 . S
C19 H23 0.960 . S
C19 H24 0.960 1_655 S
C19 H25 0.959 . S
H20 C16 0.960 1_455 S
H21 C16 0.961 . S
H22 C16 0.960 . S
H23 C19 0.960 . S
H24 C19 0.960 1_455 S
H25 C19 0.959 . S
C26 N27 1.317 . S
C26 N28 1.348 . S
C26 C29 1.485 . S
N27 C26 1.317 . S
N27 N31 1.370 . S
N28 C26 1.348 . S
N28 C30 1.346 . S
C29 C26 1.485 . S
C29 H33 0.960 1_565 S
C29 H34 0.961 . S
C29 H35 0.960 . S
C30 N28 1.346 . S
C30 N31 1.307 . S
C30 C32 1.486 . S
N31 N27 1.370 . S
N31 C30 1.307 . S
C32 C30 1.486 . S
C32 H36 0.960 . S
C32 H37 0.960 1_565 S
C32 H38 0.959 . S
H33 C29 0.960 1_545 S
H34 C29 0.961 . S
H35 C29 0.960 . S
H36 C32 0.960 . S
H37 C32 0.960 1_545 S
H38 C32 0.959 . S
C39 N40 1.317 . S
C39 N41 1.348 . S
C39 C42 1.485 . S
N40 C39 1.317 . S
N40 N44 1.370 . S
N41 C39 1.348 . S
N41 C43 1.346 . S
C42 C39 1.485 . S
C42 H46 0.960 . S
C42 H47 0.961 . S
C42 H48 0.960 . S
C43 N41 1.346 . S
C43 N44 1.307 . S
C43 C45 1.486 . S
N44 N40 1.370 . S
N44 C43 1.307 . S
C45 C43 1.486 . S
C45 H49 0.960 . S
C45 H50 0.960 . S
C45 H51 0.959 . S
H46 C42 0.960 . S
H47 C42 0.961 . S
H48 C42 0.960 . S
H49 C45 0.960 . S
H50 C45 0.960 . S
H51 C45 0.959 . S
C52 N53 1.317 . S
C52 N54 1.348 1_556 S
C52 C55 1.485 . S
N53 C52 1.317 . S
N53 N57 1.370 1_556 S
N54 C52 1.348 1_554 S
N54 C56 1.346 . S
C55 C52 1.485 . S
C55 H59 0.960 . S
C55 H60 0.961 . S
C55 H61 0.960 . S
C56 N54 1.346 . S
C56 N57 1.307 . S
C56 C58 1.486 . S
N57 N53 1.370 1_554 S
N57 C56 1.307 . S
C58 C56 1.486 . S
C58 H62 0.960 . S
C58 H63 0.960 . S
C58 H64 0.959 . S
H59 C55 0.960 . S
H60 C55 0.961 . S
H61 C55 0.960 . S
H62 C58 0.960 . S
H63 C58 0.960 . S
H64 C58 0.959 . S
C65 N66 1.317 . S
C65 N67 1.348 1_556 S
C65 C68 1.485 . S
N66 C65 1.317 . S
N66 N70 1.370 1_556 S
N67 C65 1.348 1_554 S
N67 C69 1.346 . S
C68 C65 1.485 . S
C68 H72 0.960 . S
C68 H73 0.961 . S
C68 H74 0.960 . S
C69 N67 1.346 . S
C69 N70 1.307 . S
C69 C71 1.486 . S
N70 N66 1.370 1_554 S
N70 C69 1.307 . S
C71 C69 1.486 . S
C71 H75 0.960 . S
C71 H76 0.960 . S
C71 H77 0.959 . S
H72 C68 0.960 . S
H73 C68 0.961 . S
H74 C68 0.960 . S
H75 C71 0.960 . S
H76 C71 0.960 . S
H77 C71 0.959 . S
C78 N79 1.317 . S
C78 N80 1.348 1_556 S
C78 C81 1.485 . S
N79 C78 1.317 . S
N79 N83 1.370 1_556 S
N80 C78 1.348 1_554 S
N80 C82 1.346 . S
C81 C78 1.485 . S
C81 H85 0.960 . S
C81 H86 0.961 . S
C81 H87 0.960 . S
C82 N80 1.346 . S
C82 N83 1.307 . S
C82 C84 1.486 . S
N83 N79 1.370 1_554 S
N83 C82 1.307 . S
C84 C82 1.486 . S
C84 H88 0.960 . S
C84 H89 0.960 . S
C84 H90 0.959 . S
H85 C81 0.960 . S
H86 C81 0.961 . S
H87 C81 0.960 . S
H88 C84 0.960 . S
H89 C84 0.960 . S
H90 C84 0.959 . S
C91 N92 1.317 . S
C91 N93 1.348 1_556 S
C91 C94 1.485 . S
N92 C91 1.317 . S
N92 N96 1.370 1_556 S
N93 C91 1.348 1_554 S
N93 C95 1.346 . S
C94 C91 1.485 . S
C94 H98 0.960 . S
C94 H99 0.961 . S
C94 H100 0.960 . S
C95 N93 1.346 . S
C95 N96 1.307 . S
C95 C97 1.486 . S
N96 N92 1.370 1_554 S
N96 C95 1.307 . S
C97 C95 1.486 . S
C97 H101 0.960 . S
C97 H102 0.960 . S
C97 H103 0.959 . S
H98 C94 0.960 . S
H99 C94 0.961 . S
H100 C94 0.960 . S
H101 C97 0.960 . S
H102 C97 0.960 . S
H103 C97 0.959 . S
C104 C106 1.422 . S
C104 C108 1.415 . S
C104 N110 1.369 1_554 S
C105 C106 1.421 . S
C105 C107 1.417 . S
C105 C117 1.422 . S
C106 C104 1.422 . S
C106 C105 1.421 . S
C106 N116 1.359 . S
C107 C105 1.417 . S
C107 C109 1.329 . S
C107 H126 0.930 . S
C108 C104 1.415 . S
C108 C109 1.437 . S
C108 C112 1.413 . S
C109 C107 1.329 . S
C109 C108 1.437 . S
C109 H131 0.929 . S
N110 C104 1.369 1_556 S
N110 C111 1.338 . S
N110 Gd115 2.622 1_545 S
C111 N110 1.338 . S
C111 C113 1.378 . S
C111 H123 0.929 1_545 S
C112 C108 1.413 . S
C112 C113 1.348 1_554 S
C112 H128 0.931 . S
C113 C111 1.378 . S
C113 C112 1.348 1_556 S
C113 H129 0.930 . S
Gd114 N134 2.622 . S
Gd114 N141 2.570 . S
Gd114 O148 2.344 1_655 S
Gd114 O149 2.468 . S
Gd114 O150 2.427 . S
Gd114 O152 2.388 . S
Gd114 O153 2.386 1_545 S
Gd114 O157 2.307 1_655 S
Gd114 C167 2.805 . S
Gd115 N110 2.622 1_565 S
Gd115 N116 2.570 1_566 S
Gd115 O147 2.386 1_565 S
Gd115 O151 2.307 1_465 S
Gd115 O154 2.353 . S
Gd115 O155 2.468 1_556 S
Gd115 O156 2.427 . S
Gd115 O158 2.388 . S
Gd115 C179 2.805 1_556 S
N116 C106 1.359 . S
N116 Gd115 2.570 1_544 S
N116 C118 1.343 . S
C117 C105 1.422 . S
C117 C119 1.321 . S
C117 H125 0.931 . S
C118 N116 1.343 . S
C118 C119 1.390 . S
C118 H120 0.931 . S
C119 C117 1.321 . S
C119 C118 1.390 . S
C119 H121 0.930 . S
H120 C118 0.931 . S
H121 C119 0.930 . S
H122 C145 0.924 1_445 S
H123 C111 0.929 1_565 S
H124 C146 0.930 1_455 S
H125 C117 0.931 . S
H126 C107 0.930 . S
H127 C136 0.929 . S
H128 C112 0.931 . S
H129 C113 0.930 . S
H130 C168 0.930 . S
H131 C109 0.929 . S
H132 C137 0.931 . S
H133 C138 0.933 . S
N134 Gd114 2.622 . S
N134 C135 1.369 1_545 S
N134 C136 1.338 . S
C135 N134 1.369 1_565 S
C135 C139 1.415 . S
C135 C142 1.422 . S
C136 H127 0.929 . S
C136 N134 1.338 . S
C136 C138 1.386 . S
C137 H132 0.931 . S
C137 C138 1.337 1_565 S
C137 C139 1.413 . S
C138 H133 0.933 . S
C138 C136 1.386 . S
C138 C137 1.337 1_545 S
C139 C135 1.415 . S
C139 C137 1.413 . S
C139 C169 1.437 . S
H140 C169 0.929 . S
N141 Gd114 2.570 . S
N141 C142 1.359 1_545 S
N141 C145 1.341 1_545 S
C142 C135 1.422 . S
C142 N141 1.359 1_565 S
C142 C144 1.421 . S
C143 C144 1.422 . S
C143 C146 1.321 . S
C143 H170 0.931 . S
C144 C142 1.421 . S
C144 C143 1.422 . S
C144 C168 1.417 . S
C145 H122 0.924 1_665 S
C145 N141 1.341 1_565 S
C145 C146 1.399 . S
C146 H124 0.930 1_655 S
C146 C143 1.321 . S
C146 C145 1.399 . S
O147 Gd115 2.386 1_545 S
O147 C159 1.265 . S
O148 Gd114 2.344 1_455 S
O148 C159 1.255 . S
O149 Gd114 2.468 . S
O149 C167 1.263 . S
O150 Gd114 2.427 . S
O150 C167 1.252 . S
O151 Gd115 2.307 1_645 S
O151 C160 1.261 . S
O152 Gd114 2.388 . S
O152 C160 1.252 . S
O153 Gd114 2.386 1_565 S
O153 C171 1.265 . S
O154 Gd115 2.353 . S
O154 C171 1.242 1_455 S
O155 Gd115 2.468 1_554 S
O155 C179 1.263 . S
O156 Gd115 2.427 . S
O156 C179 1.252 1_556 S
O157 Gd114 2.307 1_455 S
O157 C172 1.261 . S
O158 Gd115 2.388 . S
O158 C172 1.252 1_565 S
C159 O147 1.265 . S
C159 O148 1.255 . S
C160 O151 1.261 . S
C160 O152 1.252 . S
C161 C164 1.394 . S
C161 C166 1.370 . S
C161 C167 1.500 . S
C162 C165 1.383 . S
C162 C166 1.395 . S
C163 C164 1.396 . S
C163 C165 1.365 . S
C163 H180 0.929 . S
C164 C161 1.394 . S
C164 C163 1.396 . S
C164 H181 0.930 . S
C165 C162 1.383 . S
C165 C163 1.365 . S
C165 H182 0.931 . S
C166 C161 1.370 . S
C166 C162 1.395 . S
C166 H183 0.930 1_655 S
C167 Gd114 2.805 . S
C167 O149 1.263 . S
C167 O150 1.252 . S
C167 C161 1.500 . S
C168 H130 0.930 . S
C168 C144 1.417 . S
C168 C169 1.329 . S
C169 C139 1.437 . S
C169 H140 0.929 . S
C169 C168 1.329 . S
H170 C143 0.931 . S
C171 O153 1.265 . S
C171 O154 1.242 1_655 S
C172 O157 1.261 . S
C172 O158 1.252 1_545 S
C173 C176 1.394 . S
C173 C178 1.370 . S
C173 C179 1.500 . S
C174 C177 1.383 . S
C174 C178 1.395 . S
C175 C176 1.396 . S
C175 C177 1.365 . S
C175 H184 0.929 . S
C176 C173 1.394 . S
C176 C175 1.396 . S
C176 H185 0.930 . S
C177 C174 1.383 . S
C177 C175 1.365 . S
C177 H186 0.931 . S
C178 C173 1.370 . S
C178 C174 1.395 . S
C178 H187 0.930 . S
C179 Gd115 2.805 1_554 S
C179 O155 1.263 . S
C179 O156 1.252 1_554 S
C179 C173 1.500 . S
H180 C163 0.929 . S
H181 C164 0.930 . S
H182 C165 0.931 . S
H183 C166 0.930 1_455 S
H184 C175 0.929 . S
H185 C176 0.930 . S
H186 C177 0.931 . S
H187 C178 0.930 . S
C188 C190 1.422 . S
C188 C192 1.415 . S
C188 N194 1.369 . S
C189 C190 1.421 . S
C189 C191 1.417 . S
C189 C201 1.422 . S
C190 C188 1.422 . S
C190 C189 1.421 . S
C190 N200 1.359 . S
C191 C189 1.417 . S
C191 C193 1.329 . S
C191 H210 0.930 . S
C192 C188 1.415 . S
C192 C193 1.437 . S
C192 C196 1.413 . S
C193 C191 1.329 . S
C193 C192 1.437 . S
C193 H215 0.929 . S
N194 C188 1.369 . S
N194 C195 1.338 . S
N194 Gd199 2.622 . S
C195 N194 1.338 . S
C195 C197 1.378 . S
C195 H207 0.929 . S
C196 C192 1.413 . S
C196 C197 1.348 . S
C196 H212 0.931 . S
C197 C195 1.378 . S
C197 C196 1.348 . S
C197 H213 0.930 . S
Gd198 N218 2.622 . S
Gd198 N225 2.570 . S
Gd198 O232 2.353 1_545 S
Gd198 O233 2.468 1_556 S
Gd198 O234 2.427 1_556 S
Gd198 O236 2.388 . S
Gd198 O237 2.386 . S
Gd198 O241 2.307 . S
Gd198 C251 2.805 1_556 S
Gd199 N194 2.622 . S
Gd199 N200 2.570 . S
Gd199 O231 2.386 . S
Gd199 O235 2.307 1_565 S
Gd199 O238 2.353 1_565 S
Gd199 O239 2.468 . S
Gd199 O240 2.427 . S
Gd199 O242 2.388 . S
Gd199 C263 2.805 . S
N200 C190 1.359 . S
N200 Gd199 2.570 . S
N200 C202 1.343 . S
C201 C189 1.422 . S
C201 C203 1.321 . S
C201 H209 0.931 . S
C202 N200 1.343 . S
C202 C203 1.390 . S
C202 H204 0.931 . S
C203 C201 1.321 . S
C203 C202 1.390 . S
C203 H205 0.930 . S
H204 C202 0.931 . S
H205 C203 0.930 . S
H206 C229 0.931 . S
H207 C195 0.929 . S
H208 C230 0.930 . S
H209 C201 0.931 . S
H210 C191 0.930 . S
H211 C220 0.929 . S
H212 C196 0.931 . S
H213 C197 0.930 . S
H214 C252 0.930 . S
H215 C193 0.929 . S
H216 C221 0.931 . S
H217 C222 0.930 . S
N218 Gd198 2.622 . S
N218 C219 1.369 . S
N218 C220 1.338 1_556 S
C219 N218 1.369 . S
C219 C223 1.415 . S
C219 C226 1.422 . S
C220 H211 0.929 . S
C220 N218 1.338 1_554 S
C220 C222 1.378 . S
C221 H216 0.931 . S
C221 C222 1.348 . S
C221 C223 1.413 1_554 S
C222 H217 0.930 . S
C222 C220 1.378 . S
C222 C221 1.348 . S
C223 C219 1.415 . S
C223 C221 1.413 1_556 S
C223 C253 1.437 . S
H224 C253 0.929 . S
N225 Gd198 2.570 . S
N225 C226 1.359 . S
N225 C229 1.343 . S
C226 C219 1.422 . S
C226 N225 1.359 . S
C226 C228 1.421 . S
C227 C228 1.422 . S
C227 C230 1.321 . S
C227 H254 0.931 . S
C228 C226 1.421 . S
C228 C227 1.422 . S
C228 C252 1.417 . S
C229 H206 0.931 . S
C229 N225 1.343 . S
C229 C230 1.390 . S
C230 H208 0.930 . S
C230 C227 1.321 . S
C230 C229 1.390 . S
O231 Gd199 2.386 . S
O231 C243 1.265 . S
O232 Gd198 2.353 1_565 S
O232 C243 1.242 . S
O233 Gd198 2.468 1_554 S
O233 C251 1.263 . S
O234 Gd198 2.427 1_554 S
O234 C251 1.252 . S
O235 Gd199 2.307 1_545 S
O235 C244 1.261 . S
O236 Gd198 2.388 . S
O236 C244 1.252 . S
O237 Gd198 2.386 . S
O237 C255 1.265 . S
O238 Gd199 2.353 1_545 S
O238 C255 1.242 . S
O239 Gd199 2.468 . S
O239 C263 1.263 . S
O240 Gd199 2.427 . S
O240 C263 1.252 . S
O241 Gd198 2.307 . S
O241 C256 1.261 1_545 S
O242 Gd199 2.388 . S
O242 C256 1.252 . S
C243 O231 1.265 . S
C243 O232 1.242 . S
C244 O235 1.261 . S
C244 O236 1.252 . S
C245 C248 1.394 . S
C245 C250 1.370 . S
C245 C251 1.500 . S
C246 C249 1.383 . S
C246 C250 1.395 . S
C247 C248 1.396 . S
C247 C249 1.365 . S
C247 H264 0.929 . S
C248 C245 1.394 . S
C248 C247 1.396 . S
C248 H265 0.930 . S
C249 C246 1.383 . S
C249 C247 1.365 . S
C249 H266 0.931 . S
C250 C245 1.370 . S
C250 C246 1.395 . S
C250 H267 0.930 . S
C251 Gd198 2.805 1_554 S
C251 O233 1.263 . S
C251 O234 1.252 . S
C251 C245 1.500 . S
C252 H214 0.930 . S
C252 C228 1.417 . S
C252 C253 1.329 . S
C253 C223 1.437 . S
C253 H224 0.929 . S
C253 C252 1.329 . S
H254 C227 0.931 . S
C255 O237 1.265 . S
C255 O238 1.242 . S
C256 O241 1.261 1_565 S
C256 O242 1.252 . S
C257 C260 1.394 . S
C257 C262 1.370 . S
C257 C263 1.500 . S
C258 C261 1.383 . S
C258 C262 1.395 . S
C259 C260 1.396 . S
C259 C261 1.365 . S
C259 H268 0.929 . S
C260 C257 1.394 . S
C260 C259 1.396 . S
C260 H269 0.930 . S
C261 C258 1.383 . S
C261 C259 1.365 . S
C261 H270 0.931 . S
C262 C257 1.370 . S
C262 C258 1.395 . S
C262 H271 0.930 . S
C263 Gd199 2.805 . S
C263 O239 1.263 . S
C263 O240 1.252 . S
C263 C257 1.500 . S
H264 C247 0.929 . S
H265 C248 0.930 . S
H266 C249 0.931 . S
H267 C250 0.930 . S
H268 C259 0.929 . S
H269 C260 0.930 . S
H270 C261 0.931 . S
H271 C262 0.930 . S
C272 C274 1.422 . S
C272 C276 1.415 . S
C272 N278 1.369 1_554 S
C273 C274 1.421 . S
C273 C275 1.417 . S
C273 C285 1.422 . S
C274 C272 1.422 . S
C274 C273 1.421 . S
C274 N284 1.359 . S
C275 C273 1.417 . S
C275 C277 1.329 . S
C275 H294 0.930 . S
C276 C272 1.415 . S
C276 C277 1.437 . S
C276 C280 1.413 . S
C277 C275 1.329 . S
C277 C276 1.437 . S
C277 H299 0.929 . S
N278 C272 1.369 1_556 S
N278 C279 1.338 . S
N278 Gd283 2.622 . S
C279 N278 1.338 . S
C279 C281 1.378 . S
C279 H291 0.929 . S
C280 C276 1.413 . S
C280 C281 1.348 1_554 S
C280 H296 0.931 . S
C281 C279 1.378 . S
C281 C280 1.348 1_556 S
C281 H297 0.930 . S
Gd282 N302 2.622 . S
Gd282 N309 2.570 . S
Gd282 O316 2.353 . S
Gd282 O317 2.468 . S
Gd282 O318 2.427 . S
Gd282 O320 2.388 . S
Gd282 O321 2.386 . S
Gd282 O325 2.307 . S
Gd282 C335 2.805 . S
Gd283 N278 2.622 . S
Gd283 N284 2.570 1_556 S
Gd283 O315 2.386 . S
Gd283 O319 2.307 . S
Gd283 O322 2.353 . S
Gd283 O323 2.468 1_556 S
Gd283 O324 2.427 . S
Gd283 O326 2.388 . S
Gd283 C347 2.805 1_556 S
N284 C274 1.359 . S
N284 Gd283 2.570 1_554 S
N284 C286 1.343 . S
C285 C273 1.422 . S
C285 C287 1.321 . S
C285 H293 0.931 . S
C286 N284 1.343 . S
C286 C287 1.390 . S
C286 H288 0.931 . S
C287 C285 1.321 . S
C287 C286 1.390 . S
C287 H289 0.930 . S
H288 C286 0.931 . S
H289 C287 0.930 . S
H290 C313 0.931 . S
H291 C279 0.929 . S
H292 C314 0.930 . S
H293 C285 0.931 . S
H294 C275 0.930 . S
H295 C304 0.929 . S
H296 C280 0.931 . S
H297 C281 0.930 . S
H298 C336 0.930 . S
H299 C277 0.929 . S
H300 C305 0.931 . S
H301 C306 0.930 . S
N302 Gd282 2.622 . S
N302 C303 1.369 . S
N302 C304 1.338 . S
C303 N302 1.369 . S
C303 C307 1.415 . S
C303 C310 1.422 . S
C304 H295 0.929 . S
C304 N302 1.338 . S
C304 C306 1.378 . S
C305 H300 0.931 . S
C305 C306 1.348 . S
C305 C307 1.413 . S
C306 H301 0.930 . S
C306 C304 1.378 . S
C306 C305 1.348 . S
C307 C303 1.415 . S
C307 C305 1.413 . S
C307 C337 1.437 . S
H308 C337 0.929 . S
N309 Gd282 2.570 . S
N309 C310 1.359 . S
N309 C313 1.343 . S
C310 C303 1.422 . S
C310 N309 1.359 . S
C310 C312 1.421 . S
C311 C312 1.422 . S
C311 C314 1.321 . S
C311 H338 0.931 . S
C312 C310 1.421 . S
C312 C311 1.422 . S
C312 C336 1.417 . S
C313 H290 0.931 . S
C313 N309 1.343 . S
C313 C314 1.390 . S
C314 H292 0.930 . S
C314 C311 1.321 . S
C314 C313 1.390 . S
O315 Gd283 2.386 . S
O315 C327 1.265 . S
O316 Gd282 2.353 . S
O316 C327 1.242 . S
O317 Gd282 2.468 . S
O317 C335 1.263 . S
O318 Gd282 2.427 . S
O318 C335 1.252 . S
O319 Gd283 2.307 . S
O319 C328 1.261 . S
O320 Gd282 2.388 . S
O320 C328 1.252 . S
O321 Gd282 2.386 . S
O321 C339 1.265 . S
O322 Gd283 2.353 . S
O322 C339 1.242 . S
O323 Gd283 2.468 1_554 S
O323 C347 1.263 . S
O324 Gd283 2.427 . S
O324 C347 1.252 1_556 S
O325 Gd282 2.307 . S
O325 C340 1.261 . S
O326 Gd283 2.388 . S
O326 C340 1.252 . S
C327 O315 1.265 . S
C327 O316 1.242 . S
C328 O319 1.261 . S
C328 O320 1.252 . S
C329 C332 1.394 . S
C329 C334 1.370 . S
C329 C335 1.500 . S
C330 C333 1.383 . S
C330 C334 1.395 . S
C331 C332 1.396 . S
C331 C333 1.365 . S
C331 H348 0.929 . S
C332 C329 1.394 . S
C332 C331 1.396 . S
C332 H349 0.930 . S
C333 C330 1.383 . S
C333 C331 1.365 . S
C333 H350 0.931 . S
C334 C329 1.370 . S
C334 C330 1.395 . S
C334 H351 0.930 . S
C335 Gd282 2.805 . S
C335 O317 1.263 . S
C335 O318 1.252 . S
C335 C329 1.500 . S
C336 H298 0.930 . S
C336 C312 1.417 . S
C336 C337 1.329 . S
C337 C307 1.437 . S
C337 H308 0.929 . S
C337 C336 1.329 . S
H338 C311 0.931 . S
C339 O321 1.265 . S
C339 O322 1.242 . S
C340 O325 1.261 . S
C340 O326 1.252 . S
C341 C344 1.394 . S
C341 C346 1.370 . S
C341 C347 1.500 . S
C342 C345 1.383 . S
C342 C346 1.395 . S
C343 C344 1.396 . S
C343 C345 1.365 . S
C343 H352 0.929 . S
C344 C341 1.394 . S
C344 C343 1.396 . S
C344 H353 0.930 . S
C345 C342 1.383 . S
C345 C343 1.365 . S
C345 H354 0.931 . S
C346 C341 1.370 . S
C346 C342 1.395 . S
C346 H355 0.930 . S
C347 Gd283 2.805 1_554 S
C347 O323 1.263 . S
C347 O324 1.252 1_554 S
C347 C341 1.500 . S
H348 C331 0.929 . S
H349 C332 0.930 . S
H350 C333 0.931 . S
H351 C334 0.930 . S
H352 C343 0.929 . S
H353 C344 0.930 . S
H354 C345 0.931 . S
H355 C346 0.930 . S
C356 C358 1.422 . S
C356 C360 1.415 . S
C356 N362 1.369 1_554 S
C357 C358 1.421 . S
C357 C359 1.417 . S
C357 C369 1.422 . S
C358 C356 1.422 . S
C358 C357 1.421 . S
C358 N368 1.359 . S
C359 C357 1.417 . S
C359 C361 1.329 . S
C359 H378 0.930 . S
C360 C356 1.415 . S
C360 C361 1.437 . S
C360 C364 1.413 . S
C361 C359 1.329 . S
C361 C360 1.437 . S
C361 H383 0.929 . S
N362 C356 1.369 1_556 S
N362 C363 1.338 . S
N362 Gd367 2.622 1_455 S
C363 N362 1.338 . S
C363 C365 1.380 . S
C363 H375 0.927 1_455 S
C364 C360 1.413 . S
C364 C365 1.348 1_554 S
C364 H380 0.931 . S
C365 C363 1.380 . S
C365 C364 1.348 1_556 S
C365 H381 0.930 . S
Gd366 N386 2.622 . S
Gd366 N393 2.570 . S
Gd366 O400 2.353 . S
Gd366 O401 2.468 . S
Gd366 O402 2.427 . S
Gd366 O404 2.388 . S
Gd366 O405 2.386 1_455 S
Gd366 O409 2.307 . S
Gd366 C419 2.805 . S
Gd367 N362 2.622 1_655 S
Gd367 N368 2.570 1_656 S
Gd367 O399 2.386 1_655 S
Gd367 O403 2.307 1_655 S
Gd367 O406 2.353 . S
Gd367 O407 2.468 1_556 S
Gd367 O408 2.427 . S
Gd367 O410 2.388 . S
Gd367 C431 2.805 1_556 S
N368 C358 1.359 . S
N368 Gd367 2.570 1_454 S
N368 C370 1.343 . S
C369 C357 1.422 . S
C369 C371 1.321 . S
C369 H377 0.931 . S
C370 N368 1.343 . S
C370 C371 1.390 . S
C370 H372 0.931 . S
C371 C369 1.321 . S
C371 C370 1.390 . S
C371 H373 0.930 . S
H372 C370 0.931 . S
H373 C371 0.930 . S
H374 C397 0.931 1_455 S
H375 C363 0.927 1_655 S
H376 C398 0.930 . S
H377 C369 0.931 . S
H378 C359 0.930 . S
H379 C388 0.929 . S
H380 C364 0.931 . S
H381 C365 0.930 . S
H382 C420 0.930 . S
H383 C361 0.929 . S
H384 C389 0.931 . S
H385 C390 0.932 . S
N386 Gd366 2.622 . S
N386 C387 1.369 1_455 S
N386 C388 1.338 . S
C387 N386 1.369 1_655 S
C387 C391 1.415 . S
C387 C394 1.422 . S
C388 H379 0.929 . S
C388 N386 1.338 . S
C388 C390 1.382 . S
C389 H384 0.931 . S
C389 C390 1.342 1_655 S
C389 C391 1.413 . S
C390 H385 0.932 . S
C390 C388 1.382 . S
C390 C389 1.342 1_455 S
C391 C387 1.415 . S
C391 C389 1.413 . S
C391 C421 1.437 . S
H392 C421 0.929 . S
N393 Gd366 2.570 . S
N393 C394 1.359 1_455 S
N393 C397 1.343 1_455 S
C394 C387 1.422 . S
C394 N393 1.359 1_655 S
C394 C396 1.421 . S
C395 C396 1.422 . S
C395 C398 1.321 . S
C395 H422 0.931 . S
C396 C394 1.421 . S
C396 C395 1.422 . S
C396 C420 1.417 . S
C397 H374 0.931 1_655 S
C397 N393 1.343 1_655 S
C397 C398 1.390 . S
C398 H376 0.930 . S
C398 C395 1.321 . S
C398 C397 1.390 . S
O399 Gd367 2.386 1_455 S
O399 C411 1.265 . S
O400 Gd366 2.353 . S
O400 C411 1.242 . S
O401 Gd366 2.468 . S
O401 C419 1.263 . S
O402 Gd366 2.427 . S
O402 C419 1.252 . S
O403 Gd367 2.307 1_455 S
O403 C412 1.261 . S
O404 Gd366 2.388 . S
O404 C412 1.252 . S
O405 Gd366 2.386 1_655 S
O405 C423 1.265 . S
O406 Gd367 2.353 . S
O406 C423 1.242 . S
O407 Gd367 2.468 1_554 S
O407 C431 1.263 . S
O408 Gd367 2.427 . S
O408 C431 1.252 1_556 S
O409 Gd366 2.307 . S
O409 C424 1.261 . S
O410 Gd367 2.388 . S
O410 C424 1.252 1_655 S
C411 O399 1.265 . S
C411 O400 1.242 . S
C412 O403 1.261 . S
C412 O404 1.252 . S
C413 C416 1.394 . S
C413 C418 1.370 . S
C413 C419 1.500 . S
C414 C417 1.383 . S
C414 C418 1.395 . S
C415 C416 1.396 . S
C415 C417 1.365 . S
C415 H432 0.929 . S
C416 C413 1.394 . S
C416 C415 1.396 . S
C416 H433 0.930 . S
C417 C414 1.383 . S
C417 C415 1.365 . S
C417 H434 0.931 . S
C418 C413 1.370 . S
C418 C414 1.395 . S
C418 H435 0.930 . S
C419 Gd366 2.805 . S
C419 O401 1.263 . S
C419 O402 1.252 . S
C419 C413 1.500 . S
C420 H382 0.930 . S
C420 C396 1.417 . S
C420 C421 1.329 . S
C421 C391 1.437 . S
C421 H392 0.929 . S
C421 C420 1.329 . S
H422 C395 0.931 . S
C423 O405 1.265 . S
C423 O406 1.242 . S
C424 O409 1.261 . S
C424 O410 1.252 1_455 S
C425 C428 1.394 . S
C425 C430 1.370 . S
C425 C431 1.500 . S
C426 C429 1.383 . S
C426 C430 1.395 . S
C427 C428 1.396 . S
C427 C429 1.365 . S
C427 H436 0.929 . S
C428 C425 1.394 . S
C428 C427 1.396 . S
C428 H437 0.930 . S
C429 C426 1.383 . S
C429 C427 1.365 . S
C429 H438 0.931 . S
C430 C425 1.370 . S
C430 C426 1.395 . S
C430 H439 0.930 . S
C431 Gd367 2.805 1_554 S
C431 O407 1.263 . S
C431 O408 1.252 1_554 S
C431 C425 1.500 . S
H432 C415 0.929 . S
H433 C416 0.930 . S
H434 C417 0.931 . S
H435 C418 0.930 . S
H436 C427 0.929 . S
H437 C428 0.930 . S
H438 C429 0.931 . S
H439 C430 0.930 . S
C440 C441 1.387 . S
C440 H444 0.950 . S
C440 C449 1.390 . S
C441 C440 1.387 . S
C441 C443 1.387 1_545 S
H442 C449 0.950 . S
C443 C441 1.387 1_565 S
C443 C445 1.390 . S
C443 H447 0.950 . S
H444 C440 0.950 . S
C445 C443 1.390 . S
C445 C446 1.387 1_565 S
C445 H448 0.950 . S
C446 C445 1.387 1_545 S
C446 C449 1.387 . S
H447 C443 0.950 . S
H448 C445 0.950 . S
C449 C440 1.390 . S
C449 H442 0.950 . S
C449 C446 1.387 . S
C450 C451 1.387 . S
C450 H454 0.950 . S
C450 C459 1.390 . S
C451 C450 1.387 . S
C451 C453 1.387 . S
H452 C459 0.950 . S
C453 C451 1.387 . S
C453 C455 1.390 . S
C453 H457 0.950 . S
H454 C450 0.950 . S
C455 C453 1.390 . S
C455 C456 1.387 . S
C455 H458 0.950 . S
C456 C455 1.387 . S
C456 C459 1.387 . S
H457 C453 0.950 . S
H458 C455 0.950 . S
C459 C450 1.390 . S
C459 H452 0.950 . S
C459 C456 1.387 . S
C460 C461 1.387 . S
C460 H464 0.950 . S
C460 C469 1.390 . S
C461 C460 1.387 . S
C461 C463 1.387 . S
H462 C469 0.950 . S
C463 C461 1.387 . S
C463 C465 1.390 . S
C463 H467 0.950 . S
H464 C460 0.950 . S
C465 C463 1.390 . S
C465 C466 1.387 . S
C465 H468 0.950 . S
C466 C465 1.387 . S
C466 C469 1.387 . S
H467 C463 0.950 . S
H468 C465 0.950 . S
C469 C460 1.390 . S
C469 H462 0.950 . S
C469 C466 1.387 . S
C470 C471 1.387 . S
C470 H474 0.950 . S
C470 C479 1.390 . S
C471 C470 1.387 . S
C471 C473 1.387 1_455 S
H472 C479 0.950 . S
C473 C471 1.387 1_655 S
C473 C475 1.390 . S
C473 H477 0.950 . S
H474 C470 0.950 . S
C475 C473 1.390 . S
C475 C476 1.387 1_655 S
C475 H478 0.950 . S
C476 C475 1.387 1_455 S
C476 C479 1.387 . S
H477 C473 0.950 . S
H478 C475 0.950 . S
C479 C470 1.390 . S
C479 H472 0.950 . S
C479 C476 1.387 . S
C480 C481 1.387 1_545 S
C480 H484 0.950 . S
C480 C489 1.390 . S
C481 C480 1.387 1_565 S
C481 C483 1.387 . S
H482 C489 0.950 . S
C483 C481 1.387 . S
C483 C485 1.390 . S
C483 H487 0.950 . S
H484 C480 0.950 . S
C485 C483 1.390 . S
C485 C486 1.412 . S
C485 H488 0.950 . S
C486 C485 1.412 . S
C486 C489 1.365 1_565 S
H487 C483 0.950 . S
H488 C485 0.950 . S
C489 C480 1.390 . S
C489 H482 0.950 . S
C489 C486 1.365 1_545 S
C490 C491 1.387 . S
C490 H494 0.950 . S
C490 C499 1.390 . S
C491 C490 1.387 . S
C491 C493 1.387 . S
H492 C499 0.950 . S
C493 C491 1.387 . S
C493 C495 1.390 . S
C493 H497 0.950 . S
H494 C490 0.950 . S
C495 C493 1.390 . S
C495 C496 1.387 . S
C495 H498 0.950 . S
C496 C495 1.387 . S
C496 C499 1.387 . S
H497 C493 0.950 . S
H498 C495 0.950 . S
C499 C490 1.390 . S
C499 H492 0.950 . S
C499 C496 1.387 . S
C500 C501 1.387 . S
C500 H504 0.950 . S
C500 C509 1.390 . S
C501 C500 1.387 . S
C501 C503 1.387 . S
H502 C509 0.950 . S
C503 C501 1.387 . S
C503 C505 1.390 . S
C503 H507 0.950 . S
H504 C500 0.950 . S
C505 C503 1.390 . S
C505 C506 1.387 . S
C505 H508 0.950 . S
C506 C505 1.387 . S
C506 C509 1.387 . S
H507 C503 0.950 . S
H508 C505 0.950 . S
C509 C500 1.390 . S
C509 H502 0.950 . S
C509 C506 1.387 . S
C510 C511 1.387 1_455 S
C510 H514 0.950 . S
C510 C519 1.390 . S
C511 C510 1.387 1_655 S
C511 C513 1.387 . S
H512 C519 0.950 . S
C513 C511 1.387 . S
C513 C515 1.390 . S
C513 H517 0.950 . S
H514 C510 0.950 . S
C515 C513 1.390 . S
C515 C516 1.387 . S
C515 H518 0.950 . S
C516 C515 1.387 . S
C516 C519 1.387 1_655 S
H517 C513 0.950 . S
H518 C515 0.950 . S
C519 C510 1.390 . S
C519 H512 0.950 . S
C519 C516 1.387 1_455 S
C520 C521 1.387 . S
C520 H524 0.950 1_554 S
C520 C529 1.390 1_455 S
C521 C520 1.387 . S
C521 C523 1.387 . S
H522 C529 0.950 . S
C523 C521 1.387 . S
C523 C525 1.390 . S
C523 H527 0.950 . S
H524 C520 0.950 1_556 S
C525 C523 1.390 . S
C525 C526 1.387 1_455 S
C525 H528 0.950 . S
C526 C525 1.387 1_655 S
C526 C529 1.387 . S
H527 C523 0.950 . S
H528 C525 0.950 . S
C529 C520 1.390 1_655 S
C529 H522 0.950 . S
C529 C526 1.387 . S
C530 C531 1.387 . S
C530 H534 0.950 1_554 S
C530 C539 1.390 . S
C531 C530 1.387 . S
C531 C533 1.387 . S
H532 C539 0.950 . S
C533 C531 1.387 . S
C533 C535 1.390 1_545 S
C533 H537 0.950 . S
H534 C530 0.950 1_556 S
C535 C533 1.390 1_565 S
C535 C536 1.387 . S
C535 H538 0.950 . S
C536 C535 1.387 . S
C536 C539 1.387 1_565 S
H537 C533 0.950 . S
H538 C535 0.950 . S
C539 C530 1.390 . S
C539 H532 0.950 . S
C539 C536 1.387 1_545 S
C540 C541 1.387 . S
C540 H544 0.950 . S
C540 C549 1.390 . S
C541 C540 1.387 . S
C541 C543 1.387 . S
H542 C549 0.950 . S
C543 C541 1.387 . S
C543 C545 1.390 . S
C543 H547 0.950 1_554 S
H544 C540 0.950 . S
C545 C543 1.390 . S
C545 C546 1.387 . S
C545 H548 0.950 . S
C546 C545 1.387 . S
C546 C549 1.387 . S
H547 C543 0.950 1_556 S
H548 C545 0.950 . S
C549 C540 1.390 . S
C549 H542 0.950 . S
C549 C546 1.387 . S
C550 C551 1.387 . S
C550 H554 0.950 1_554 S
C550 C559 1.390 . S
C551 C550 1.387 . S
C551 C553 1.387 . S
H552 C559 0.950 . S
C553 C551 1.387 . S
C553 C555 1.390 . S
C553 H557 0.950 . S
H554 C550 0.950 1_556 S
C555 C553 1.390 . S
C555 C556 1.387 . S
C555 H558 0.950 . S
C556 C555 1.387 . S
C556 C559 1.387 . S
H557 C553 0.950 . S
H558 C555 0.950 . S
C559 C550 1.390 . S
C559 H552 0.950 . S
C559 C556 1.387 . S
C560 C561 1.383 1_455 S
C560 H564 0.947 1_455 S
C560 C569 1.397 . S
C561 C560 1.383 1_655 S
C561 C563 1.387 . S
H562 C569 0.950 . S
C563 C561 1.387 . S
C563 C565 1.390 1_655 S
C563 H567 0.950 . S
H564 C560 0.947 1_655 S
C565 C563 1.390 1_455 S
C565 C566 1.387 . S
C565 H568 0.950 . S
C566 C565 1.387 . S
C566 C569 1.387 . S
H567 C563 0.950 . S
H568 C565 0.950 . S
C569 C560 1.397 . S
C569 H562 0.950 . S
C569 C566 1.387 . S
C570 C571 1.387 . S
C570 H574 0.950 . S
C570 C579 1.390 . S
C571 C570 1.387 . S
C571 C573 1.387 1_565 S
H572 C579 0.950 . S
C573 C571 1.387 1_545 S
C573 C575 1.390 . S
C573 H577 0.950 . S
H574 C570 0.950 . S
C575 C573 1.390 . S
C575 C576 1.387 . S
C575 H578 0.950 . S
C576 C575 1.387 . S
C576 C579 1.387 1_545 S
H577 C573 0.950 . S
H578 C575 0.950 . S
C579 C570 1.390 . S
C579 H572 0.950 . S
C579 C576 1.387 1_565 S
C580 C581 1.387 . S
C580 H584 0.950 . S
C580 C589 1.390 . S
C581 C580 1.387 . S
C581 C583 1.387 . S
H582 C589 0.950 . S
C583 C581 1.387 . S
C583 C585 1.390 . S
C583 H587 0.950 . S
H584 C580 0.950 . S
C585 C583 1.390 . S
C585 C586 1.387 . S
C585 H588 0.950 . S
C586 C585 1.387 . S
C586 C589 1.387 . S
H587 C583 0.950 . S
H588 C585 0.950 . S
C589 C580 1.390 . S
C589 H582 0.950 . S
C589 C586 1.387 . S
C590 C591 1.387 . S
C590 H594 0.950 . S
C590 C599 1.390 . S
C591 C590 1.387 . S
C591 C593 1.387 . S
H592 C599 0.950 . S
C593 C591 1.387 . S
C593 C595 1.390 . S
C593 H597 0.950 . S
H594 C590 0.950 . S
C595 C593 1.390 . S
C595 C596 1.387 . S
C595 H598 0.950 . S
C596 C595 1.387 . S
C596 C599 1.387 . S
H597 C593 0.950 . S
H598 C595 0.950 . S
C599 C590 1.390 . S
C599 H592 0.950 . S
C599 C596 1.387 . S
C600 C601 1.387 . S
C600 H604 0.950 . S
C600 C609 1.390 . S
C601 C600 1.387 . S
C601 C603 1.387 1_455 S
H602 C609 0.950 . S
C603 C601 1.387 1_655 S
C603 C605 1.390 . S
C603 H607 0.950 . S
H604 C600 0.950 . S
C605 C603 1.390 . S
C605 C606 1.387 1_655 S
C605 H608 0.950 . S
C606 C605 1.387 1_455 S
C606 C609 1.387 . S
H607 C603 0.950 . S
H608 C605 0.950 . S
C609 C600 1.390 . S
C609 H602 0.950 . S
C609 C606 1.387 . S
C610 C611 1.387 . S
C610 H614 0.950 . S
C610 C619 1.390 . S
C611 C610 1.387 . S
C611 C613 1.387 1_545 S
H612 C619 0.950 . S
C613 C611 1.387 1_565 S
C613 C615 1.390 . S
C613 H617 0.950 . S
H614 C610 0.950 . S
C615 C613 1.390 . S
C615 C616 1.387 1_565 S
C615 H618 0.950 . S
C616 C615 1.387 1_545 S
C616 C619 1.387 . S
H617 C613 0.950 . S
H618 C615 0.950 . S
C619 C610 1.390 . S
C619 H612 0.950 . S
C619 C616 1.387 . S
C620 C621 1.387 . S
C620 H624 0.950 . S
C620 C629 1.390 . S
C621 C620 1.387 . S
C621 C623 1.387 . S
H622 C629 0.950 . S
C623 C621 1.387 . S
C623 C625 1.390 . S
C623 H627 0.946 1_556 S
H624 C620 0.950 . S
C625 C623 1.390 . S
C625 C626 1.387 . S
C625 H628 0.950 . S
C626 C625 1.387 . S
C626 C629 1.387 . S
H627 C623 0.946 1_554 S
H628 C625 0.950 . S
C629 C620 1.390 . S
C629 H622 0.950 . S
C629 C626 1.387 . S
C630 C631 1.387 . S
C630 H634 0.950 . S
C630 C639 1.390 . S
C631 C630 1.387 . S
C631 C633 1.387 . S
H632 C639 0.950 . S
C633 C631 1.387 . S
C633 C635 1.390 . S
C633 H637 0.950 . S
H634 C630 0.950 . S
C635 C633 1.390 . S
C635 C636 1.387 . S
C635 H638 0.950 . S
C636 C635 1.387 . S
C636 C639 1.387 . S
H637 C633 0.950 . S
H638 C635 0.950 . S
C639 C630 1.390 . S
C639 H632 0.950 . S
C639 C636 1.387 . S
C640 C641 1.387 1_455 S
C640 H644 0.950 . S
C640 C649 1.390 . S
C641 C640 1.387 1_655 S
C641 C643 1.387 . S
H642 C649 0.950 . S
C643 C641 1.387 . S
C643 C645 1.390 . S
C643 H647 0.950 . S
H644 C640 0.950 . S
C645 C643 1.390 . S
C645 C646 1.387 . S
C645 H648 0.950 . S
C646 C645 1.387 . S
C646 C649 1.387 1_655 S
H647 C643 0.950 . S
H648 C645 0.950 . S
C649 C640 1.390 . S
C649 H642 0.950 . S
C649 C646 1.387 1_455 S
C650 C651 1.387 . S
C650 H654 0.950 . S
C650 C659 1.390 . S
C651 C650 1.387 . S
C651 C653 1.387 1_565 S
H652 C659 0.950 . S
C653 C651 1.387 1_545 S
C653 C655 1.390 . S
C653 H657 0.950 . S
H654 C650 0.950 . S
C655 C653 1.390 . S
C655 C656 1.387 1_545 S
C655 H658 0.950 . S
C656 C655 1.387 1_565 S
C656 C659 1.387 . S
H657 C653 0.950 . S
H658 C655 0.950 . S
C659 C650 1.390 . S
C659 H652 0.950 . S
C659 C656 1.387 . S
C660 C661 1.387 . S
C660 H664 0.950 . S
C660 C669 1.390 . S
C661 C660 1.387 . S
C661 C663 1.387 . S
H662 C669 0.950 . S
C663 C661 1.387 . S
C663 C665 1.390 . S
C663 H667 0.950 . S
H664 C660 0.950 . S
C665 C663 1.390 . S
C665 C666 1.387 . S
C665 H668 0.950 . S
C666 C665 1.387 . S
C666 C669 1.387 . S
H667 C663 0.950 . S
H668 C665 0.950 . S
C669 C660 1.390 . S
C669 H662 0.950 . S
C669 C666 1.387 . S
C670 C671 1.387 . S
C670 H674 0.950 . S
C670 C679 1.390 . S
C671 C670 1.387 . S
C671 C673 1.387 . S
H672 C679 0.950 . S
C673 C671 1.387 . S
C673 C675 1.390 . S
C673 H677 0.950 . S
H674 C670 0.950 . S
C675 C673 1.390 . S
C675 C676 1.387 . S
C675 H678 0.950 . S
C676 C675 1.387 . S
C676 C679 1.387 . S
H677 C673 0.950 . S
H678 C675 0.950 . S
C679 C670 1.390 . S
C679 H672 0.950 . S
C679 C676 1.387 . S
C441 N80 2.022 . S
C446 C172 2.155 . S
C456 C255 2.167 . S
C451 N93 2.023 . S
C466 C340 2.156 . S
C461 N54 2.023 . S
C476 C424 2.144 . S
C471 N67 2.012 . S
C486 C160 2.150 1_564 S
C481 N28 2.026 . S
C491 N41 2.023 . S
C496 C243 2.165 1_554 S
C501 N2 2.026 . S
C506 C328 2.155 1_554 S
C511 N15 2.016 . S
C516 C412 2.144 1_654 S
C526 C162 0.745 . S
C521 N70 0.739 . S
C536 C258 0.733 . S
C531 N83 0.730 . S
C546 C330 0.746 . S
C541 N96 0.751 . S
C551 N57 0.727 . S
C556 C414 0.732 . S
C561 N18 0.745 . S
C566 C174 0.740 . S
C576 C246 0.730 . S
C571 N31 0.732 . S
C586 C342 0.748 . S
C581 N44 0.751 . S
C591 N5 0.726 . S
C596 C426 0.731 . S
C601 N66 2.162 . S
C606 C159 2.268 . S
C611 N79 2.167 . S
C616 C244 2.295 . S
C626 C327 2.281 . S
C621 N92 2.171 . S
C636 C411 2.286 . S
C631 N53 2.179 . S
C641 N14 2.162 . S
C646 C171 2.268 . S
C656 C256 2.295 . S
C651 N27 2.165 . S
C666 C339 2.281 . S
C661 N40 2.172 . S
C671 N1 2.180 . S
C676 C423 2.286 . S
