# Generated by pormake.
# Topology anh, (6,3)-cn, num edge types: 1
# Building blocks:
#     Node 0, Type 0, BuildingBlock: NUHQIS_clean_sbu_0, # of connection points: 6
#     Node 1, Type 0, BuildingBlock: NUHQIS_clean_sbu_0, # of connection points: 6
#     Node 2, Type 0, BuildingBlock: NUHQIS_clean_sbu_0, # of connection points: 6
#     Node 3, Type 1, BuildingBlock: KAKCAD_clean_linker_0, # of connection points: 3
#     Node 4, Type 1, BuildingBlock: KAKCAD_clean_linker_0, # of connection points: 3
#     Node 5, Type 1, BuildingBlock: KAKCAD_clean_linker_0, # of connection points: 3
#     Node 6, Type 1, BuildingBlock: KAKCAD_clean_linker_0, # of connection points: 3
#     Node 7, Type 1, BuildingBlock: KAKCAD_clean_linker_0, # of connection points: 3
#     Node 8, Type 1, BuildingBlock: KAKCAD_clean_linker_0, # of connection points: 3
#     Edge 9, Type (0, 1), BuildingBlock: ZUJKAS_clean_linker_0, # of connection points: 2
#     Edge 10, Type (0, 1), BuildingBlock: ZUJKAS_clean_linker_0, # of connection points: 2
#     Edge 11, Type (0, 1), BuildingBlock: ZUJKAS_clean_linker_0, # of connection points: 2
#     Edge 12, Type (0, 1), BuildingBlock: ZUJKAS_clean_linker_0, # of connection points: 2
#     Edge 13, Type (0, 1), BuildingBlock: ZUJKAS_clean_linker_0, # of connection points: 2
#     Edge 14, Type (0, 1), BuildingBlock: ZUJKAS_clean_linker_0, # of connection points: 2
#     Edge 15, Type (0, 1), BuildingBlock: ZUJKAS_clean_linker_0, # of connection points: 2
#     Edge 16, Type (0, 1), BuildingBlock: ZUJKAS_clean_linker_0, # of connection points: 2
#     Edge 17, Type (0, 1), BuildingBlock: ZUJKAS_clean_linker_0, # of connection points: 2
#     Edge 18, Type (0, 1), BuildingBlock: ZUJKAS_clean_linker_0, # of connection points: 2
#     Edge 19, Type (0, 1), BuildingBlock: ZUJKAS_clean_linker_0, # of connection points: 2
#     Edge 20, Type (0, 1), BuildingBlock: ZUJKAS_clean_linker_0, # of connection points: 2
#     Edge 21, Type (0, 1), BuildingBlock: ZUJKAS_clean_linker_0, # of connection points: 2
#     Edge 22, Type (0, 1), BuildingBlock: ZUJKAS_clean_linker_0, # of connection points: 2
#     Edge 23, Type (0, 1), BuildingBlock: ZUJKAS_clean_linker_0, # of connection points: 2
#     Edge 24, Type (0, 1), BuildingBlock: ZUJKAS_clean_linker_0, # of connection points: 2
#     Edge 25, Type (0, 1), BuildingBlock: ZUJKAS_clean_linker_0, # of connection points: 2
#     Edge 26, Type (0, 1), BuildingBlock: ZUJKAS_clean_linker_0, # of connection points: 2
# Relax obj value: 0.201
# Max RMSD: 0.184
# Mean RMSD: 0.149
data_MOF--net-anh--node1-NUHQIS_clean_sbu_0--node2-KAKCAD_clean_linker_0--edge1-ZUJKAS_clean_linker_0
_symmetry_space_group_name_H-M    P1
_symmetry_Int_Tables_number       1
_symmetry_cell_setting            triclinic
loop_
_symmetry_equiv_pos_as_xyz
'x, y, z'
_cell_length_a     45.211434
_cell_length_b     45.188952
_cell_length_c     82.152895
_cell_angle_alpha  90.78667
_cell_angle_beta   92.950918
_cell_angle_gamma 120.11977
loop_
_atom_site_label
_atom_site_type_symbol
_atom_site_fract_x
_atom_site_fract_y
_atom_site_fract_z
_atom_type_partial_charge
Tb0 Tb 0.12103 0.57979 0.17256 0.0
Eu1 Eu 0.08215 0.6235 0.1684 0.0
C2 C 0.09751 0.60212 0.20305 0.0
C3 C 1.03965 0.54144 0.17202 0.0
C4 C 0.18366 0.54945 0.17037 0.0
C5 C 0.22756 0.53384 0.17343 0.0
C6 C 0.19898 0.53374 0.17912 0.0
C7 C 0.1978 0.5663 0.15614 0.0
C8 C 0.22632 0.56625 0.15038 0.0
C9 C 0.24113 0.5495 0.15883 0.0
C10 C 0.1523 0.54695 0.17597 0.0
O11 O 0.12855 0.59592 0.14746 0.0
O12 O 0.08333 0.605 0.14297 0.0
O13 O 0.13719 0.66177 0.164 0.0
O14 O 0.16137 0.63389 0.1773 0.0
C15 C 0.10712 0.5997 0.13747 0.0
O16 O 1.04055 0.62946 0.15745 0.0
O17 O 1.07607 0.6666 0.17597 0.0
O18 O 0.09956 0.62756 0.19482 0.0
O19 O 0.09854 0.57678 0.19571 0.0
O20 O 1.06676 0.54054 0.1675 0.0
O21 O 1.04161 0.57082 0.17562 0.0
C22 C 0.16407 0.66188 0.17103 0.0
O23 O 0.15642 0.5712 0.18621 0.0
O24 O 0.12794 0.53956 0.1647 0.0
C25 C 1.01689 0.64439 0.17834 0.0
C26 C 0.95579 0.60718 0.19423 0.0
C27 C 0.95557 0.62084 0.17893 0.0
C28 C 0.9859 0.63928 0.17106 0.0
C29 C 1.01759 0.63332 0.19421 0.0
C30 C 0.98734 0.61501 0.20211 0.0
C31 C 1.04591 0.65341 0.16822 0.0
H32 H 0.2388 0.52131 0.18039 0.0
H33 H 0.18848 0.5209 0.1902 0.0
H34 H 0.18632 0.57875 0.14929 0.0
H35 H 0.236 0.57831 0.13904 0.0
H36 H 0.93168 0.61498 0.17242 0.0
H37 H 0.9847 0.64711 0.15875 0.0
H38 H 1.04111 0.63656 0.20008 0.0
H39 H 0.98842 0.60526 0.21396 0.0
Tb40 Tb 0.65794 0.09323 0.50502 0.0
Eu41 Eu 0.57493 0.05376 0.50252 0.0
C42 C 0.6186 0.0721 0.53658 0.0
C43 C 0.61615 1.01201 0.50592 0.0
C44 C 0.73886 0.16656 0.50051 0.0
C45 C 0.76004 0.22609 0.5087 0.0
C46 C 0.75513 0.19384 0.51224 0.0
C47 C 0.73118 0.17317 0.48463 0.0
C48 C 0.73617 0.20538 0.48109 0.0
C49 C 0.749 0.23163 0.49332 0.0
C50 C 0.72165 0.13109 0.50597 0.0
O51 O 0.64361 0.09911 0.47996 0.0
O52 O 0.58909 0.05334 0.47679 0.0
O53 O 0.59131 0.10856 0.49667 0.0
O54 O 0.64441 0.13289 0.51 0.0
C55 C 0.61678 0.07711 0.47058 0.0
O56 O 0.52516 1.01117 0.49366 0.0
O57 O 0.5279 0.05142 0.50944 0.0
O58 O 0.59296 0.07229 0.52855 0.0
O59 O 0.64342 0.07231 0.52892 0.0
O60 O 0.64366 1.03929 0.50114 0.0
O61 O 0.58894 1.0136 0.50966 0.0
C62 C 0.61869 0.13562 0.50346 0.0
O63 O 0.70382 0.12656 0.51863 0.0
O64 O 0.70453 0.10679 0.4947 0.0
C65 C 0.4817 0.99541 0.51233 0.0
C66 C 0.42678 0.94562 0.52907 0.0
C67 C 0.44812 0.93697 0.52085 0.0
C68 C 0.47535 0.96163 0.51258 0.0
C69 C 0.46143 1.00444 0.52116 0.0
C70 C 0.43437 0.97986 0.52953 0.0
C71 C 0.50824 1.02113 0.50245 0.0
H72 H 0.77013 0.24588 0.51837 0.0
H73 H 0.76111 0.18941 0.52459 0.0
H74 H 0.71875 0.15284 0.47524 0.0
H75 H 0.72834 0.20921 0.46899 0.0
H76 H 0.44273 0.91076 0.52006 0.0
H77 H 0.49066 0.95389 0.50597 0.0
H78 H 0.46596 1.03038 0.52124 0.0
H79 H 0.41868 0.98742 0.53593 0.0
Tb80 Tb 0.63823 0.61536 0.83613 0.0
Eu81 Eu 0.59528 0.53249 0.83409 0.0
C82 C 0.63097 0.57526 0.86753 0.0
C83 C 0.6792 0.57461 0.83607 0.0
C84 C 0.64154 0.69458 0.83137 0.0
C85 C 0.60592 0.71754 0.83968 0.0
C86 C 0.63351 0.71219 0.84292 0.0
C87 C 0.62329 0.685 0.81601 0.0
C88 C 0.59584 0.6904 0.81277 0.0
C89 C 0.58602 0.70551 0.8248 0.0
C90 C 0.66179 0.67865 0.83674 0.0
O91 O 0.6155 0.60117 0.81109 0.0
O92 O 0.60834 0.54762 0.80846 0.0
O93 O 0.55532 0.54832 0.82932 0.0
O94 O 0.58616 0.60013 0.84306 0.0
C95 C 0.61114 0.57506 0.80194 0.0
O96 O 0.58233 0.48327 0.82267 0.0
O97 O 0.55669 0.48481 0.84393 0.0
O98 O 0.60277 0.54986 0.8605 0.0
O99 O 0.65211 0.60118 0.85923 0.0
O100 O 0.67873 0.60281 0.83235 0.0
O101 O 0.65085 0.54627 0.83921 0.0
C102 C 0.55665 0.57506 0.83664 0.0
O103 O 0.65079 0.66046 0.84956 0.0
O104 O 0.6684 0.66253 0.82545 0.0
C105 C 0.56969 0.44062 0.84132 0.0
C106 C 0.58957 0.39463 0.85302 0.0
C107 C 0.56706 0.3859 0.83903 0.0
C108 C 0.55717 0.40871 0.83324 0.0
C109 C 0.59156 0.4492 0.85554 0.0
C110 C 0.60121 0.42617 0.86145 0.0
C111 C 0.56227 0.46572 0.83396 0.0
H112 H 0.5994 0.72997 0.84906 0.0
H113 H 0.64694 0.71956 0.8549 0.0
H114 H 0.62849 0.67105 0.80685 0.0
H115 H 0.58101 0.68075 0.80119 0.0
H116 H 0.55742 0.36152 0.83244 0.0
H117 H 0.54047 0.40182 0.82221 0.0
H118 H 0.60183 0.474 0.86182 0.0
H119 H 0.61868 0.43348 0.87221 0.0
C120 C 0.62123 0.12646 0.28749 0.0
C121 C 0.61435 0.09595 0.29489 0.0
C122 C 0.62042 0.12815 0.27048 0.0
C123 C 0.61237 0.09928 0.26043 0.0
C124 C 0.60542 0.06875 0.26782 0.0
C125 C 0.6066 0.06716 0.28484 0.0
C126 C 0.61088 0.10103 0.24231 0.0
C127 C 0.63662 0.12913 0.23473 0.0
C128 C 0.63526 0.13228 0.21766 0.0
C129 C 0.60733 0.10524 0.20806 0.0
C130 C 0.58109 0.07658 0.21561 0.0
C131 C 0.58337 0.07501 0.23266 0.0
C132 C 0.55002 1.04801 0.20648 0.0
C133 C 0.51764 1.04441 0.20838 0.0
C134 C 0.55128 1.02056 0.19895 0.0
C135 C 0.52089 0.9899 0.19395 0.0
C136 C 0.48832 0.9858 0.19634 0.0
C137 C 0.66332 0.16435 0.21063 0.0
C138 C 0.67759 0.19609 0.21948 0.0
C139 C 0.67813 0.16369 0.19601 0.0
C140 C 0.70727 0.19339 0.19097 0.0
C141 C 0.72258 0.22439 0.20049 0.0
C142 C 0.70681 0.22532 0.21463 0.0
C143 C 0.48732 1.01397 0.2033 0.0
H144 H 0.62756 0.14917 0.29487 0.0
H145 H 0.62561 0.15196 0.26518 0.0
H146 H 0.59935 1.04613 0.26042 0.0
H147 H 0.60092 1.04321 0.29015 0.0
H148 H 0.65826 0.14856 0.24228 0.0
H149 H 0.56315 0.05348 0.23848 0.0
H150 H 0.60545 0.10689 0.19494 0.0
H151 H 0.51577 0.0647 0.21455 0.0
H152 H 0.57576 1.02216 0.19767 0.0
H153 H 0.52296 0.96913 0.18849 0.0
H154 H 0.66653 0.19834 0.23048 0.0
H155 H 0.66809 0.13997 0.18881 0.0
H156 H 0.46304 1.01198 0.20561 0.0
H157 H 0.71728 0.24881 0.22208 0.0
H158 H 0.71863 0.19174 0.17995 0.0
C159 C 0.59416 0.58597 0.61605 0.0
C160 C 0.61632 0.57962 0.62611 0.0
C161 C 0.59532 0.58532 0.59905 0.0
C162 C 0.61843 0.57795 0.59166 0.0
C163 C 0.64044 0.57138 0.60171 0.0
C164 C 0.63951 0.57236 0.61872 0.0
C165 C 0.61975 0.57735 0.57355 0.0
C166 C 0.61972 0.60349 0.56456 0.0
C167 C 0.62127 0.60368 0.54751 0.0
C168 C 0.62238 0.57637 0.53927 0.0
C169 C 0.6232 0.54998 0.54823 0.0
C170 C 0.62163 0.55098 0.56531 0.0
C171 C 0.62649 0.52132 0.54052 0.0
C172 C 0.6041 0.50001 0.52747 0.0
C173 C 0.65 0.51262 0.54765 0.0
C174 C 0.65036 0.4831 0.5424 0.0
C175 C 0.62718 0.46089 0.52977 0.0
C176 C 0.62323 0.63394 0.53917 0.0
C177 C 0.59491 0.63137 0.52991 0.0
C178 C 0.65131 0.66689 0.54313 0.0
C179 C 0.65087 0.69644 0.53837 0.0
C180 C 0.62207 0.69418 0.52964 0.0
C181 C 0.5943 0.66106 0.52524 0.0
C182 C 0.60432 0.47015 0.52223 0.0
H183 H 0.57617 0.59188 0.62134 0.0
H184 H 0.57787 0.59027 0.59165 0.0
H185 H 0.65873 0.5659 0.59643 0.0
H186 H 0.65672 0.56705 0.62609 0.0
H187 H 0.61908 0.62433 0.57092 0.0
H188 H 0.62134 0.53064 0.57228 0.0
H189 H 0.62391 0.57636 0.52615 0.0
H190 H 0.58548 0.50564 0.52174 0.0
H191 H 0.66773 0.52833 0.55771 0.0
H192 H 0.66816 0.4771 0.54874 0.0
H193 H 0.57257 0.60646 0.52695 0.0
H194 H 0.67322 0.66982 0.55055 0.0
H195 H 0.5863 0.45416 0.51233 0.0
H196 H 0.57176 0.65801 0.51839 0.0
H197 H 0.67261 0.72117 0.54225 0.0
C198 C 0.15534 0.60535 0.95459 0.0
C199 C 0.12496 0.58473 0.96234 0.0
C200 C 0.15569 0.6042 0.93753 0.0
C201 C 0.1257 0.58229 0.92775 0.0
C202 C 0.0955 0.56122 0.93555 0.0
C203 C 0.09512 0.56249 0.95258 0.0
C204 C 0.12557 0.58194 0.90951 0.0
C205 C 0.15336 0.58431 0.90151 0.0
C206 C 0.15394 0.58452 0.88433 0.0
C207 C 0.12491 0.58157 0.87504 0.0
C208 C 0.0963 0.57874 0.88295 0.0
C209 C 0.09753 0.57937 0.90011 0.0
C210 C 1.06435 0.57505 0.87416 0.0
C211 C 1.06539 0.59952 0.86341 0.0
C212 C 1.03193 0.54963 0.87874 0.0
C213 C 1.0018 0.54948 0.87344 0.0
C214 C 1.00266 0.57474 0.86327 0.0
C215 C 0.18532 0.58763 0.87685 0.0
C216 C 0.21829 0.60998 0.88427 0.0
C217 C 0.183 0.5663 0.86357 0.0
C218 C 0.21249 0.56638 0.85842 0.0
C219 C 0.24536 0.58792 0.86632 0.0
C220 C 0.24753 0.61002 0.8792 0.0
C221 C 1.03504 0.59941 0.85807 0.0
H222 H 0.17872 0.62306 0.96169 0.0
H223 H 0.17932 0.62112 0.932 0.0
H224 H 1.07206 0.54351 0.92849 0.0
H225 H 1.07142 0.54578 0.95811 0.0
H226 H 0.17452 0.58522 0.90877 0.0
H227 H 0.07645 0.57848 0.90625 0.0
H228 H 0.12455 0.58143 0.86185 0.0
H229 H 0.08981 0.61973 0.85976 0.0
H230 H 1.02998 0.53043 0.88706 0.0
H231 H 0.97793 0.53022 0.87801 0.0
H232 H 0.2215 0.62715 0.89441 0.0
H233 H 0.15823 0.5486 0.85754 0.0
H234 H 1.03711 0.61907 0.85005 0.0
H235 H 0.27178 0.62679 0.88588 0.0
H236 H 0.20936 0.5493 0.84828 0.0
C237 C 0.99496 0.61675 0.3728 0.0
C238 C 1.02414 0.61448 0.36992 0.0
C239 C 0.98915 0.62378 0.38857 0.0
C240 C 1.01231 0.62851 0.40181 0.0
C241 C 1.04115 0.62554 0.39894 0.0
C242 C 1.04706 0.61875 0.38317 0.0
C243 C 1.00662 0.63694 0.41852 0.0
C244 C 0.97357 0.62041 0.42432 0.0
C245 C 0.9678 0.62814 0.44014 0.0
C246 C 0.99603 0.65327 0.44996 0.0
C247 C 1.02944 0.66799 0.44486 0.0
C248 C 1.03443 0.66048 0.42897 0.0
C249 C 1.05905 0.68742 0.4569 0.0
C250 C 1.05927 0.71078 0.46846 0.0
C251 C 0.08562 0.6798 0.45799 0.0
C252 C 0.11131 0.69445 0.4706 0.0
C253 C 0.11101 0.71701 0.48243 0.0
C254 C 0.93356 0.60726 0.44711 0.0
C255 C 0.90316 0.58922 0.43695 0.0
C256 C 0.93129 0.60263 0.46404 0.0
C257 C 0.90053 0.57932 0.47039 0.0
C258 C 0.87138 0.55831 0.46001 0.0
C259 C 0.87263 0.56461 0.44327 0.0
C260 C 0.08499 0.72542 0.4811 0.0
H261 H 0.97705 0.61398 0.3628 0.0
H262 H 0.9669 0.62625 0.39032 0.0
H263 H 1.05911 0.62825 0.40889 0.0
H264 H 1.0695 0.61663 0.38135 0.0
H265 H 0.95282 0.60027 0.41667 0.0
H266 H 1.06016 0.67285 0.42484 0.0
H267 H 0.99255 0.66018 0.46205 0.0
H268 H 1.03923 0.71728 0.46789 0.0
H269 H 0.08595 0.66153 0.44943 0.0
H270 H 0.1314 0.688 0.47108 0.0
H271 H 0.90302 0.59286 0.42397 0.0
H272 H 0.95348 0.61525 0.47257 0.0
H273 H 0.08406 0.74273 0.49003 0.0
H274 H 0.85073 0.54924 0.43481 0.0
H275 H 0.90033 0.57636 0.48344 0.0
C276 C 0.52484 1.00207 0.70887 0.0
C277 C 0.55947 1.02439 0.70628 0.0
C278 C 0.51354 0.99718 0.72462 0.0
C279 C 0.53671 1.01415 0.7382 0.0
C280 C 0.57146 1.0365 0.73556 0.0
C281 C 0.58266 1.04175 0.71975 0.0
C282 C 0.5246 1.00821 0.75501 0.0
C283 C 0.49935 0.97538 0.75919 0.0
C284 C 0.48739 0.96927 0.77497 0.0
C285 C 0.50153 0.99663 0.78668 0.0
C286 C 0.52773 1.0293 0.78296 0.0
C287 C 0.53865 1.03502 0.76702 0.0
C288 C 0.54454 0.05704 0.79592 0.0
C289 C 0.52511 0.06137 0.80754 0.0
C290 C 0.58032 0.07888 0.797 0.0
C291 C 0.59621 0.10482 0.80925 0.0
C292 C 0.57669 0.10929 0.82075 0.0
C293 C 0.4625 0.93378 0.77952 0.0
C294 C 0.43749 0.90979 0.76796 0.0
C295 C 0.46555 0.92273 0.79514 0.0
C296 C 0.44585 0.88838 0.79872 0.0
C297 C 0.42318 0.86411 0.7867 0.0
C298 C 0.41838 0.87517 0.77144 0.0
C299 C 0.54102 0.08714 0.81985 0.0
H300 H 0.50633 0.9888 0.69866 0.0
H301 H 0.48651 0.98033 0.72613 0.0
H302 H 0.59016 1.04957 0.74571 0.0
H303 H 0.60956 0.05894 0.71807 0.0
H304 H 0.49005 0.95422 0.75029 0.0
H305 H 0.55788 0.06053 0.76395 0.0
H306 H 0.49285 0.99234 0.79892 0.0
H307 H 0.49747 1.04529 0.80694 0.0
H308 H 0.59611 0.07578 0.78844 0.0
H309 H 0.62377 0.12145 0.80971 0.0
H310 H 0.43367 0.91743 0.75596 0.0
H311 H 0.48477 0.93999 0.80434 0.0
H312 H 0.52523 0.09046 0.82833 0.0
H313 H 0.40112 0.85681 0.76196 0.0
H314 H 0.45058 0.88038 0.81047 0.0
C315 C 0.64929 0.46256 0.0342 0.0
C316 C 0.66312 0.49784 0.03208 0.0
C317 C 0.63486 0.44826 0.0488 0.0
C318 C 0.63423 0.46911 0.0614 0.0
C319 C 0.65056 0.50464 0.05981 0.0
C320 C 0.66504 0.51892 0.0453 0.0
C321 C 0.61142 0.45389 0.07476 0.0
C322 C 0.62024 0.44 0.08801 0.0
C323 C 0.59957 0.42885 0.10145 0.0
C324 C 0.56947 0.43095 0.101 0.0
C325 C 0.56129 0.44607 0.08805 0.0
C326 C 0.582 0.45671 0.07482 0.0
C327 C 0.53421 0.45516 0.08943 0.0
C328 C 0.50284 0.43241 0.09583 0.0
C329 C 0.54098 0.48814 0.0856 0.0
C330 C 0.51747 0.49857 0.08864 0.0
C331 C 0.4867 0.47632 0.09563 0.0
C332 C 0.6118 0.41981 0.11678 0.0
C333 C 0.63188 0.40407 0.1164 0.0
C334 C 0.60612 0.42992 0.13206 0.0
C335 C 0.62174 0.42642 0.14637 0.0
C336 C 0.64427 0.41361 0.14583 0.0
C337 C 0.64812 0.40119 0.13076 0.0
C338 C 0.47926 0.44288 0.09887 0.0
H339 H 0.64727 0.44568 0.02417 0.0
H340 H 0.62204 0.42073 0.04979 0.0
H341 H 0.65023 0.52109 0.06944 0.0
H342 H 0.67597 0.54623 0.04409 0.0
H343 H 0.64421 0.43999 0.08822 0.0
H344 H 0.57589 0.46836 0.06472 0.0
H345 H 0.55343 0.4228 0.11124 0.0
H346 H 0.49686 0.4068 0.0988 0.0
H347 H 0.56511 0.50648 0.08088 0.0
H348 H 0.52371 0.52435 0.08584 0.0
H349 H 0.63624 0.39525 0.10494 0.0
H350 H 0.59131 0.44258 0.13303 0.0
H351 H 0.45583 0.42525 0.10437 0.0
H352 H 0.66537 0.39125 0.12988 0.0
H353 H 0.6177 0.43563 0.15781 0.0
H354 H 0.29699 0.59895 0.14418 0.0
H355 H 0.34261 0.59304 0.13236 0.0
H356 H 0.29487 0.48821 0.14647 0.0
H357 H 0.24901 0.49355 0.15797 0.0
H358 H 0.36852 0.53115 0.15502 0.0
H359 H 0.32981 0.53347 0.08974 0.0
H360 H 0.33437 0.56708 0.1035 0.0
H361 H 0.3007 0.5239 0.10571 0.0
C362 C 0.29611 0.57459 0.14465 0.0
C363 C 0.26945 0.54674 0.15205 0.0
C364 C 0.32217 0.57131 0.13793 0.0
C365 C 0.32183 0.54015 0.1385 0.0
C366 C 0.2955 0.51248 0.14598 0.0
H367 H 0.41669 0.44293 0.09159 0.0
H368 H 0.37863 0.46215 0.10155 0.0
C369 C 0.26947 0.51567 0.15263 0.0
C370 C 0.34887 0.53596 0.1314 0.0
H371 H 0.37705 0.52563 0.09519 0.0
C372 C 0.37072 0.53031 0.14196 0.0
C373 C 0.35126 0.53465 0.11436 0.0
C374 C 0.32773 0.53989 0.10258 0.0
C375 C 0.39461 0.52266 0.13588 0.0
C376 C 0.39673 0.52091 0.11882 0.0
C377 C 0.3753 0.52716 0.10826 0.0
C378 C 0.41982 0.51074 0.11178 0.0
C379 C 0.41657 0.5153 0.14769 0.0
C380 C 0.45542 0.53206 0.11403 0.0
C381 C 0.47714 0.52113 0.10844 0.0
C382 C 0.46355 0.48871 0.10048 0.0
C383 C 0.42783 0.46784 0.09784 0.0
C384 C 0.40613 0.47886 0.1034 0.0
H385 H 0.40759 0.51189 0.16023 0.0
H386 H 0.41671 0.49186 0.14358 0.0
H387 H 0.44335 0.537 0.14818 0.0
H388 H 0.46637 0.55686 0.12038 0.0
H389 H 0.50455 0.53764 0.1108 0.0
H390 H 0.6976 0.23793 0.47783 0.0
H391 H 0.69624 0.2906 0.47311 0.0
H392 H 0.79631 0.34965 0.49817 0.0
H393 H 0.79817 0.29725 0.50269 0.0
H394 H 0.74629 0.3681 0.50721 0.0
H395 H 0.75425 0.3605 0.43983 0.0
H396 H 0.72037 0.32468 0.44926 0.0
H397 H 0.7639 0.33476 0.45326 0.0
C398 C 0.7195 0.2622 0.48216 0.0
C399 C 0.74827 0.26355 0.49043 0.0
C400 C 0.71848 0.29217 0.47959 0.0
C401 C 0.74616 0.3239 0.48527 0.0
C402 C 0.77458 0.32528 0.49379 0.0
H403 H 0.87434 0.51871 0.48412 0.0
H404 H 0.82998 0.4635 0.49158 0.0
C405 C 0.77567 0.29538 0.49634 0.0
C406 C 0.74695 0.35624 0.48179 0.0
H407 H 0.766 0.41282 0.45163 0.0
C408 C 0.74976 0.37767 0.49501 0.0
C409 C 0.75042 0.36826 0.46581 0.0
C410 C 0.74722 0.34605 0.45117 0.0
C411 C 0.75927 0.41194 0.49282 0.0
C412 C 0.76703 0.42512 0.47714 0.0
C413 C 0.76024 0.40266 0.46368 0.0
C414 C 0.79036 0.46204 0.47507 0.0
C415 C 0.76313 0.43433 0.50748 0.0
C416 C 0.78291 0.48005 0.46333 0.0
C417 C 0.80853 0.51254 0.4591 0.0
C418 C 0.84216 0.52708 0.46632 0.0
C419 C 0.84879 0.50929 0.47857 0.0
C420 C 0.82323 0.47736 0.48292 0.0
H421 H 0.74405 0.41933 0.51642 0.0
H422 H 0.78901 0.44443 0.51367 0.0
H423 H 0.75998 0.45627 0.50394 0.0
H424 H 0.75775 0.46842 0.45698 0.0
H425 H 0.80229 0.52558 0.44978 0.0
H426 H 0.537 0.69169 0.84636 0.0
H427 H 0.48481 0.69511 0.84198 0.0
H428 H 0.51071 0.72556 0.79281 0.0
H429 H 0.56269 0.7222 0.79707 0.0
H430 H 0.48691 0.75443 0.83527 0.0
H431 H 0.40832 0.65793 0.7865 0.0
H432 H 0.44402 0.65796 0.7975 0.0
H433 H 0.45093 0.68437 0.78024 0.0
C434 C 0.53145 0.69897 0.8346 0.0
C435 C 0.55408 0.70693 0.82209 0.0
C436 C 0.50144 0.70048 0.83206 0.0
C437 C 0.49351 0.70985 0.81696 0.0
C438 C 0.51573 0.71717 0.80438 0.0
H439 H 0.43461 0.82222 0.76776 0.0
H440 H 0.43648 0.77226 0.77686 0.0
C441 C 0.54564 0.71559 0.80689 0.0
C442 C 0.46543 0.7176 0.81502 0.0
H443 H 0.40273 0.7096 0.78736 0.0
C444 C 0.4677 0.744 0.82511 0.0
C445 C 0.44034 0.70369 0.80183 0.0
C446 C 0.4356 0.67416 0.79103 0.0
C447 C 0.44866 0.75992 0.82117 0.0
C448 C 0.42553 0.74794 0.80708 0.0
C449 C 0.42048 0.71889 0.79809 0.0
C450 C 0.41298 0.76963 0.79955 0.0
C451 C 0.45652 0.79167 0.83117 0.0
C452 C 0.39635 0.78298 0.80854 0.0
C453 C 0.39618 0.81236 0.80352 0.0
C454 C 0.41127 0.82762 0.78912 0.0
C455 C 0.42277 0.81091 0.7789 0.0
C456 C 0.42386 0.78227 0.78414 0.0
H457 H 0.47877 0.80005 0.84016 0.0
H458 H 0.46224 0.81323 0.82315 0.0
H459 H 0.43404 0.78641 0.83806 0.0
H460 H 0.3865 0.77276 0.82015 0.0
H461 H 0.38686 0.82472 0.81151 0.0
H462 H 0.9422 0.54715 0.20799 0.0
H463 H 0.8858 0.4985 0.21252 0.0
H464 H 0.83879 0.55759 0.19821 0.0
H465 H 0.89513 0.60701 0.19442 0.0
H466 H 0.8047 0.50709 0.22351 0.0
H467 H 0.83163 0.45361 0.16816 0.0
H468 H 0.85983 0.46482 0.18626 0.0
H469 H 0.85886 0.49792 0.17483 0.0
C470 C 0.92004 0.55035 0.20645 0.0
C471 C 0.92308 0.58086 0.20057 0.0
C472 C 0.88782 0.52233 0.2089 0.0
C473 C 0.85824 0.52426 0.20533 0.0
C474 C 0.8614 0.55559 0.20097 0.0
H475 H 0.67619 0.46891 0.16707 0.0
H476 H 0.72243 0.48281 0.18722 0.0
C477 C 0.89357 0.5837 0.19864 0.0
C478 C 0.82413 0.49301 0.20322 0.0
H479 H 0.7747 0.43222 0.17352 0.0
C480 C 0.79812 0.48992 0.21287 0.0
C481 C 0.81574 0.47001 0.18961 0.0
C482 C 0.84282 0.47157 0.17904 0.0
C483 C 0.76355 0.46681 0.20824 0.0
C484 C 0.75498 0.44746 0.19329 0.0
C485 C 0.78116 0.44741 0.18485 0.0
C486 C 0.7212 0.43446 0.18423 0.0
C487 C 0.73655 0.46494 0.21889 0.0
C488 C 0.7046 0.40243 0.17569 0.0
C489 C 0.67796 0.39443 0.16383 0.0
C490 C 0.66756 0.41838 0.16033 0.0
C491 C 0.68284 0.44944 0.16964 0.0
C492 C 0.70936 0.45741 0.18136 0.0
H493 H 0.74495 0.46646 0.23198 0.0
H494 H 0.73299 0.48721 0.2168 0.0
H495 H 0.7116 0.44096 0.21635 0.0
H496 H 0.7135 0.38442 0.17757 0.0
H497 H 0.66652 0.37018 0.15694 0.0
H498 H 0.41544 0.88831 0.54537 0.0
H499 H 0.35952 0.83815 0.54978 0.0
H500 H 0.30915 0.89096 0.53039 0.0
H501 H 0.36425 0.94061 0.52595 0.0
H502 H 0.27483 0.8476 0.55589 0.0
H503 H 0.30766 0.78221 0.50781 0.0
H504 H 0.33444 0.79771 0.52645 0.0
H505 H 0.334 0.82759 0.5124 0.0
C506 C 0.3924 0.88937 0.54235 0.0
C507 C 0.39427 0.91827 0.5351 0.0
C508 C 0.36055 0.86078 0.54492 0.0
C509 C 0.33026 0.8607 0.54014 0.0
C510 C 0.33224 0.89054 0.53422 0.0
H511 H 0.14502 0.78313 0.49466 0.0
H512 H 0.19417 0.80967 0.51447 0.0
C513 C 0.36388 0.91902 0.5317 0.0
C514 C 0.29661 0.82878 0.53868 0.0
H515 H 0.25009 0.76079 0.51174 0.0
C516 C 0.26942 0.82791 0.54661 0.0
C517 C 0.28966 0.80288 0.5267 0.0
C518 C 0.31782 0.80245 0.51776 0.0
C519 C 0.23528 0.8039 0.54169 0.0
C520 C 0.22837 0.78066 0.5284 0.0
C521 C 0.25551 0.77893 0.52182 0.0
C522 C 0.19464 0.76282 0.5191 0.0
C523 C 0.20696 0.80494 0.55011 0.0
C524 C 0.17856 0.72764 0.51504 0.0
C525 C 0.15049 0.71241 0.50359 0.0
C526 C 0.13824 0.7322 0.49589 0.0
C527 C 0.15352 0.7671 0.50051 0.0
C528 C 0.18151 0.78227 0.51195 0.0
H529 H 0.21476 0.81319 0.56319 0.0
H530 H 0.20154 0.82391 0.54432 0.0
H531 H 0.18305 0.77958 0.54925 0.0
H532 H 0.18852 0.71226 0.52029 0.0
H533 H 0.13888 0.68531 0.50047 0.0
H534 H 0.61617 0.36539 0.83419 0.0
H535 H 0.62881 0.32056 0.84144 0.0
H536 H 0.60336 0.32606 0.89087 0.0
H537 H 0.59031 0.37116 0.88356 0.0
H538 H 0.67249 0.31321 0.8675 0.0
H539 H 0.53155 0.22785 0.8717 0.0
H540 H 0.5481 0.26861 0.86238 0.0
H541 H 0.55429 0.26709 0.88403 0.0
C542 C 0.61367 0.35735 0.84665 0.0
C543 C 0.60165 0.37113 0.85825 0.0
C544 C 0.62125 0.33204 0.85083 0.0
C545 C 0.61678 0.31992 0.86664 0.0
C546 C 0.60683 0.33508 0.87858 0.0
H547 H 0.56612 0.10969 0.85329 0.0
H548 H 0.58458 0.16014 0.87152 0.0
C549 C 0.59941 0.36073 0.87441 0.0
C550 C 0.61791 0.2883 0.86945 0.0
H551 H 0.56343 0.20222 0.86556 0.0
C552 C 0.64885 0.28881 0.86766 0.0
C553 C 0.58715 0.25658 0.86997 0.0
C554 C 0.55327 0.25466 0.87211 0.0
C555 C 0.64925 0.2584 0.8646 0.0
C556 C 0.61781 0.22704 0.86284 0.0
C557 C 0.58754 0.22628 0.86669 0.0
C558 C 0.6143 0.19666 0.85382 0.0
C559 C 0.6831 0.26046 0.86232 0.0
C560 C 0.62565 0.20032 0.83797 0.0
C561 C 0.61526 0.17164 0.82761 0.0
C562 C 0.59283 0.13872 0.83278 0.0
C563 C 0.58314 0.13485 0.84895 0.0
C564 C 0.59386 0.16361 0.8594 0.0
H565 H 0.70347 0.28033 0.87088 0.0
H566 H 0.68177 0.23558 0.86431 0.0
H567 H 0.69068 0.26818 0.84975 0.0
H568 H 0.64041 0.22543 0.83311 0.0
H569 H 0.62277 0.17546 0.81515 0.0
H570 H 0.66892 0.99903 0.50174 0.0
H571 H 0.66896 0.9452 0.50497 0.0
H572 H 0.56385 0.89569 0.51756 0.0
H573 H 0.56349 0.94926 0.51424 0.0
H574 H 0.65833 0.90581 0.53191 0.0
H575 H 0.55903 0.82841 0.48273 0.0
H576 H 0.57917 0.87446 0.48461 0.0
H577 H 0.54534 0.84807 0.49739 0.0
C578 C 0.64567 0.97669 0.50509 0.0
C579 C 0.61614 0.97881 0.50762 0.0
C580 C 0.64576 0.94577 0.50698 0.0
C581 C 0.61626 0.91584 0.51127 0.0
C582 C 0.5868 0.91794 0.51388 0.0
H583 H 0.56694 0.70493 0.53009 0.0
H584 H 0.56587 0.75789 0.52563 0.0
C585 C 0.58672 0.94886 0.51207 0.0
C586 C 0.61666 0.88288 0.51346 0.0
H587 H 0.5772 0.7984 0.50024 0.0
C588 C 0.64068 0.88241 0.52489 0.0
C589 C 0.59359 0.85198 0.50445 0.0
C590 C 0.56801 0.85066 0.4915 0.0
C591 C 0.64184 0.8522 0.52778 0.0
C592 C 0.61893 0.8213 0.51869 0.0
C593 C 0.59486 0.82178 0.50726 0.0
C594 C 0.61946 0.78837 0.52088 0.0
C595 C 0.66705 0.85357 0.54096 0.0
C596 C 0.64962 0.78698 0.51933 0.0
C597 C 0.65031 0.75656 0.52188 0.0
C598 C 0.62073 0.72624 0.52588 0.0
C599 C 0.59025 0.7274 0.52691 0.0
C600 C 0.58963 0.75793 0.52443 0.0
H601 H 0.67492 0.87525 0.54995 0.0
H602 H 0.6561 0.82944 0.54759 0.0
H603 H 0.69043 0.85736 0.53534 0.0
H604 H 0.67282 0.8095 0.51609 0.0
H605 H 0.67415 0.75682 0.5206 0.0
H606 H 0.74495 0.62968 0.83457 0.0
H607 H 0.7996 0.63048 0.83807 0.0
H608 H 0.74517 0.52197 0.84513 0.0
H609 H 0.69055 0.5209 0.84161 0.0
H610 H 0.82797 0.61253 0.86472 0.0
H611 H 0.81004 0.52953 0.8105 0.0
H612 H 0.78373 0.5486 0.81324 0.0
H613 H 0.77557 0.51095 0.82384 0.0
C614 C 0.74447 0.60586 0.83673 0.0
C615 C 0.71292 0.57517 0.83766 0.0
C616 C 0.77593 0.60639 0.8388 0.0
C617 C 0.77693 0.57622 0.84165 0.0
C618 C 0.74548 0.54558 0.84262 0.0
H619 H 0.93587 0.52068 0.85789 0.0
H620 H 0.88313 0.52248 0.85299 0.0
C621 C 0.71405 0.54505 0.84067 0.0
C622 C 0.81069 0.5769 0.84402 0.0
H623 H 0.85728 0.54273 0.82917 0.0
C624 C 0.83442 0.59743 0.85686 0.0
C625 C 0.81946 0.55714 0.8339 0.0
C626 C 0.79606 0.53552 0.8195 0.0
C627 C 0.86583 0.59804 0.8601 0.0
C628 C 0.87469 0.57831 0.84995 0.0
C629 C 0.85098 0.55796 0.83703 0.0
C630 C 0.90781 0.57768 0.85272 0.0
C631 C 0.88855 0.61892 0.87482 0.0
C632 C 0.94008 0.60799 0.85391 0.0
C633 C 0.97064 0.60709 0.85698 0.0
C634 C 0.97013 0.5758 0.8588 0.0
C635 C 0.93781 0.54546 0.85701 0.0
C636 C 0.90732 0.5464 0.85403 0.0
H637 H 0.8739 0.62376 0.8839 0.0
H638 H 0.90114 0.60592 0.88089 0.0
H639 H 0.90875 0.64412 0.8709 0.0
H640 H 0.94177 0.63255 0.8525 0.0
H641 H 0.99462 0.63115 0.85831 0.0
H642 H 0.22682 0.6727 0.18351 0.0
H643 H 0.28143 0.72689 0.18711 0.0
H644 H 0.23344 0.78028 0.16587 0.0
H645 H 0.17878 0.72637 0.16231 0.0
H646 H 0.32192 0.77445 0.16467 0.0
H647 H 0.27799 0.83607 0.20858 0.0
H648 H 0.25402 0.79072 0.20333 0.0
H649 H 0.25186 0.8206 0.18978 0.0
C650 C 0.22777 0.69592 0.17959 0.0
C651 C 0.198 0.69485 0.17268 0.0
C652 C 0.25918 0.72704 0.18165 0.0
C653 C 0.26177 0.75811 0.17705 0.0
C654 C 0.23225 0.75701 0.16988 0.0
H655 H 0.42522 0.97412 0.1837 0.0
H656 H 0.37176 0.91947 0.17868 0.0
C657 C 0.20089 0.72592 0.16774 0.0
C658 C 0.29522 0.79149 0.17965 0.0
H659 H 0.33278 0.87129 0.19872 0.0
C660 C 0.32428 0.79554 0.17218 0.0
C661 C 0.29865 0.81934 0.1894 0.0
C662 C 0.2691 0.81651 0.19837 0.0
C663 C 0.3561 0.82656 0.17387 0.0
C664 C 0.3596 0.85442 0.18368 0.0
C665 C 0.33049 0.85028 0.19117 0.0
C666 C 0.39299 0.88797 0.18638 0.0
C667 C 0.38538 0.82941 0.16466 0.0
C668 C 0.42325 0.88914 0.19253 0.0
C669 C 0.45408 0.92056 0.19539 0.0
C670 C 0.45566 0.95199 0.19241 0.0
C671 C 0.42527 0.95073 0.18631 0.0
C672 C 0.3945 0.91929 0.18337 0.0
H673 H 0.37604 0.81077 0.15404 0.0
H674 H 0.4012 0.85558 0.16023 0.0
H675 H 0.40196 0.82372 0.17289 0.0
H676 H 0.42295 0.86572 0.19547 0.0
H677 H 0.4765 0.9202 0.20042 0.0
H678 H 0.67452 0.19988 0.51121 0.0
H679 H 0.67582 0.25467 0.51428 0.0
H680 H 0.56728 0.20364 0.50144 0.0
H681 H 0.56578 0.14888 0.49827 0.0
H682 H 0.65558 0.29101 0.49175 0.0
H683 H 0.57691 0.25398 0.54548 0.0
H684 H 0.59695 0.23061 0.53851 0.0
H685 H 0.55836 0.22464 0.52801 0.0
C686 C 0.65085 0.20021 0.50904 0.0
C687 C 0.61995 0.16957 0.50461 0.0
C688 C 0.65166 0.23173 0.51077 0.0
C689 C 0.62154 0.23354 0.5084 0.0
C690 C 0.59083 0.20312 0.50365 0.0
H691 H 0.57125 0.39725 0.52045 0.0
H692 H 0.57009 0.34338 0.51439 0.0
C693 C 0.59005 0.17169 0.50173 0.0
C694 C 0.62211 0.26698 0.51101 0.0
H695 H 0.59029 0.30692 0.53431 0.0
C696 C 0.64151 0.29452 0.50113 0.0
C697 C 0.60345 0.2718 0.52312 0.0
C698 C 0.58293 0.24386 0.5345 0.0
C699 C 0.6423 0.32615 0.50285 0.0
C700 C 0.62394 0.3311 0.51509 0.0
C701 C 0.60446 0.3035 0.52492 0.0
C702 C 0.62491 0.36469 0.51804 0.0
C703 C 0.66163 0.35361 0.49105 0.0
C704 C 0.656 0.39511 0.52221 0.0
C705 C 0.65679 0.42616 0.52556 0.0
C706 C 0.62643 0.42793 0.52504 0.0
C707 C 0.5953 0.39741 0.52077 0.0
C708 C 0.59455 0.36632 0.51741 0.0
H709 H 0.66918 0.34376 0.48052 0.0
H710 H 0.64585 0.36459 0.48641 0.0
H711 H 0.68521 0.37463 0.49742 0.0
H712 H 0.67981 0.3948 0.52322 0.0
H713 H 0.6814 0.44884 0.52862 0.0
H714 H 0.55 0.6286 0.8488 0.0
H715 H 0.49742 0.63014 0.85284 0.0
H716 H 0.43693 0.52695 0.83247 0.0
H717 H 0.48933 0.52494 0.82865 0.0
H718 H 0.44484 0.62327 0.83146 0.0
H719 H 0.3918 0.51895 0.87488 0.0
H720 H 0.43556 0.53877 0.86927 0.0
H721 H 0.40135 0.50682 0.85583 0.0
C722 C 0.52555 0.60607 0.84522 0.0
C723 C 0.52427 0.57645 0.83853 0.0
C724 C 0.49534 0.60709 0.84749 0.0
C725 C 0.46275 0.57852 0.84326 0.0
C726 C 0.46143 0.54918 0.83625 0.0
H727 H 0.25068 0.53296 0.85432 0.0
H728 H 0.30215 0.53143 0.84789 0.0
C729 C 0.49164 0.54815 0.83394 0.0
C730 C 0.43042 0.57956 0.8461 0.0
H731 H 0.35556 0.53985 0.86565 0.0
C732 C 0.42542 0.60505 0.839 0.0
C733 C 0.40462 0.55587 0.85587 0.0
C734 C 0.40861 0.52874 0.86454 0.0
C735 C 0.39553 0.60707 0.84108 0.0
C736 C 0.36975 0.58348 0.85095 0.0
C737 C 0.37482 0.55798 0.85803 0.0
C738 C 0.33774 0.58493 0.85428 0.0
C739 C 0.39161 0.63398 0.83216 0.0
C740 C 0.33974 0.61539 0.86011 0.0
C741 C 0.31007 0.61651 0.86355 0.0
C742 C 0.27708 0.58702 0.86161 0.0
C743 C 0.27515 0.55648 0.85579 0.0
C744 C 0.30489 0.55547 0.85223 0.0
H745 H 0.40594 0.64079 0.82097 0.0
H746 H 0.36435 0.62528 0.82863 0.0
H747 H 0.40239 0.65759 0.84015 0.0
H748 H 0.36443 0.63847 0.86228 0.0
H749 H 0.31322 0.64078 0.86775 0.0
H750 H 0.97624 0.53271 0.17784 0.0
H751 H 0.92276 0.47944 0.18135 0.0
H752 H 0.97399 0.42192 0.17441 0.0
H753 H 1.02733 0.4751 0.17027 0.0
H754 H 0.91313 0.38811 0.15941 0.0
H755 H 0.89502 0.42501 0.22091 0.0
H756 H 0.89807 0.4549 0.20606 0.0
H757 H 0.93429 0.44954 0.21093 0.0
C758 C 0.97625 0.50877 0.17702 0.0
C759 C 1.00649 0.50855 0.1738 0.0
C760 C 0.94548 0.47811 0.17921 0.0
C761 C 0.94402 0.44619 0.17858 0.0
C762 C 0.97407 0.44591 0.17507 0.0
H763 H 0.78039 0.26346 0.22046 0.0
H764 H 0.83321 0.31524 0.21442 0.0
C765 C 1.00477 0.47654 0.17271 0.0
C766 C 0.91138 0.41324 0.18148 0.0
H767 H 0.84798 0.375 0.20808 0.0
C768 C 0.89901 0.38529 0.17011 0.0
C769 C 0.8929 0.40873 0.19557 0.0
C770 C 0.90591 0.43596 0.20917 0.0
C771 C 0.86901 0.35359 0.17231 0.0
C772 C 0.84959 0.34965 0.18603 0.0
C773 C 0.86216 0.3776 0.19743 0.0
C774 C 0.81717 0.31665 0.18927 0.0
C775 C 0.85935 0.32436 0.16014 0.0
C776 C 0.78983 0.2993 0.17727 0.0
C777 C 0.75963 0.26891 0.18065 0.0
C778 C 0.75542 0.25552 0.19629 0.0
C779 C 0.78257 0.27301 0.2083 0.0
C780 C 0.81292 0.30286 0.20483 0.0
H781 H 0.88195 0.32778 0.15383 0.0
H782 H 0.84786 0.29943 0.16609 0.0
H783 H 0.84044 0.32348 0.15069 0.0
H784 H 0.79142 0.30953 0.16531 0.0
H785 H 0.73913 0.25647 0.17117 0.0
H786 H 1.06485 0.60186 0.11292 0.0
H787 H 1.06933 0.59905 0.08349 0.0
H788 H 0.16094 0.59278 0.09176 0.0
H789 H 0.15627 0.5948 0.12124 0.0
H790 H 0.11918 0.64169 0.06441 0.0
H791 H 0.10542 0.51276 0.05961 0.0
H792 H 0.09633 0.52877 0.07779 0.0
H793 H 0.13986 0.54195 0.07372 0.0
C794 C 0.08592 0.59974 0.10852 0.0
C795 C 0.1101 0.59838 0.11953 0.0
C796 C 0.08845 0.59816 0.09164 0.0
C797 C 0.11513 0.59511 0.08532 0.0
C798 C 0.13961 0.59425 0.09627 0.0
H799 H 0.17288 0.58915 0.98576 0.0
H800 H 0.1714 0.59271 0.0155 0.0
C801 C 0.13702 0.59566 0.11317 0.0
C802 C 0.11765 0.59366 0.06731 0.0
H803 H 0.12035 0.54496 0.03577 0.0
C804 C 0.11932 0.62046 0.05816 0.0
C805 C 0.11788 0.56599 0.05909 0.0
C806 C 0.11445 0.53557 0.06801 0.0
C807 C 0.12153 0.62053 0.04114 0.0
C808 C 0.12169 0.59287 0.03294 0.0
C809 C 0.12032 0.5662 0.04206 0.0
C810 C 0.12262 0.59086 0.01487 0.0
C811 C 0.12418 0.6505 0.03208 0.0
C812 C 0.09553 0.58826 0.00461 0.0
C813 C 0.09629 0.58623 0.98762 0.0
C814 C 0.12418 0.58672 0.98048 0.0
C815 C 0.15121 0.58913 0.99082 0.0
C816 C 0.15032 0.59097 0.00783 0.0
H817 H 0.13224 0.67322 0.04041 0.0
H818 H 0.14272 0.65775 0.02247 0.0
H819 H 0.09874 0.64322 0.02608 0.0
H820 H 1.07365 0.58763 0.00975 0.0
H821 H 1.07517 0.5847 0.98007 0.0
H822 H 0.67173 0.1161 0.4525 0.0
H823 H 0.67219 0.11974 0.42282 0.0
H824 H 0.56329 1.04872 0.41818 0.0
H825 H 0.5628 1.04412 0.44775 0.0
H826 H 0.59451 1.03248 0.39635 0.0
H827 H 0.64099 0.1714 0.3942 0.0
H828 H 0.66959 0.16234 0.40616 0.0
H829 H 0.6273 0.1484 0.41264 0.0
C830 C 0.64784 0.10135 0.44518 0.0
C831 C 0.61721 0.07989 0.45256 0.0
C832 C 0.6481 0.10365 0.42818 0.0
C833 C 0.61766 0.08501 0.41821 0.0
C834 C 0.58711 0.06346 0.42557 0.0
H835 H 0.58694 0.12075 0.31647 0.0
H836 H 0.58767 0.11741 0.34619 0.0
C837 C 0.58688 0.06089 0.44252 0.0
C838 C 0.61759 0.08711 0.4001 0.0
H839 H 0.63897 0.14289 0.36925 0.0
C840 C 0.60416 0.05664 0.39044 0.0
C841 C 0.62969 0.11854 0.39231 0.0
C842 C 0.64238 0.15198 0.40185 0.0
C843 C 0.60272 0.05672 0.3733 0.0
C844 C 0.616 0.08828 0.36552 0.0
C845 C 0.62914 0.11872 0.37517 0.0
C846 C 0.61577 0.09025 0.34741 0.0
C847 C 0.58611 1.02285 0.36372 0.0
C848 C 0.63168 0.0765 0.33813 0.0
C849 C 0.63105 0.07815 0.32111 0.0
C850 C 0.61503 0.09414 0.313 0.0
C851 C 0.5997 0.10847 0.32234 0.0
C852 C 0.60004 0.10651 0.33934 0.0
H853 H 0.5685 1.00143 0.37114 0.0
H854 H 0.57142 1.02324 0.35256 0.0
H855 H 0.60628 1.0175 0.36001 0.0
H856 H 0.64485 0.06469 0.34405 0.0
H857 H 0.6436 0.06738 0.3143 0.0
H858 H 0.62803 0.63086 0.78338 0.0
H859 H 0.62791 0.63288 0.75361 0.0
H860 H 0.58938 0.5241 0.74978 0.0
H861 H 0.5904 0.52207 0.77945 0.0
H862 H 0.64065 0.5564 0.73087 0.0
H863 H 0.55017 0.60395 0.71969 0.0
H864 H 0.58609 0.63169 0.73346 0.0
H865 H 0.55598 0.58912 0.73922 0.0
C866 C 0.61921 0.60731 0.7762 0.0
C867 C 0.6092 0.5763 0.78385 0.0
C868 C 0.61896 0.60846 0.75914 0.0
C869 C 0.60814 0.57854 0.74935 0.0
C870 C 0.59779 0.54754 0.757 0.0
H871 H 0.55981 0.55203 0.64415 0.0
H872 H 0.55825 0.5522 0.67391 0.0
C873 C 0.59836 0.54643 0.77402 0.0
C874 C 0.60906 0.57954 0.73122 0.0
H875 H 0.58056 0.60281 0.69708 0.0
C876 C 0.6274 0.56647 0.7235 0.0
C877 C 0.59143 0.59224 0.72151 0.0
C878 C 0.56952 0.60472 0.72886 0.0
C879 C 0.62882 0.56592 0.70645 0.0
C880 C 0.61224 0.57977 0.69678 0.0
C881 C 0.59361 0.59256 0.70447 0.0
C882 C 0.61336 0.58055 0.67866 0.0
C883 C 0.64733 0.54964 0.69897 0.0
C884 C 0.64482 0.59692 0.67134 0.0
C885 C 0.64577 0.59663 0.65433 0.0
C886 C 0.61526 0.58044 0.64422 0.0
C887 C 0.58377 0.56488 0.65157 0.0
C888 C 0.58285 0.56491 0.66859 0.0
H889 H 0.64958 0.5316 0.7073 0.0
H890 H 0.63399 0.53551 0.68727 0.0
H891 H 0.67365 0.56992 0.69653 0.0
H892 H 0.66871 0.61003 0.67879 0.0
H893 H 0.67043 0.60942 0.64908 0.0
H894 H 0.58388 0.09044 0.55653 0.0
H895 H 0.58006 0.08461 0.5859 0.0
H896 H 0.64762 1.04298 0.58658 0.0
H897 H 0.65252 1.04991 0.5571 0.0
H898 H 0.55367 1.02688 0.60125 0.0
H899 H 0.68861 0.1107 0.62504 0.0
H900 H 0.6741 0.11153 0.60427 0.0
H901 H 0.68306 0.0785 0.6102 0.0
C902 C 0.59827 0.08041 0.56294 0.0
C903 C 0.61846 0.07057 0.55452 0.0
C904 C 0.59608 0.07711 0.57974 0.0
C905 C 0.61376 0.06363 0.58849 0.0
C906 C 0.63437 0.05418 0.58016 0.0
H907 H 0.5462 0.97568 0.68261 0.0
H908 H 0.56183 0.98446 0.65427 0.0
C909 C 0.63699 0.05796 0.56331 0.0
C910 C 0.6084 0.05736 0.60607 0.0
H911 H 0.64927 0.07551 0.64411 0.0
C912 C 0.5746 1.03758 0.61062 0.0
C913 C 0.63569 0.0716 0.61829 0.0
C914 C 0.67238 0.09454 0.61426 0.0
C915 C 0.56725 1.03181 0.62702 0.0
C916 C 0.59456 1.04518 0.63922 0.0
C917 C 0.62841 0.06496 0.63471 0.0
C918 C 0.58824 1.03982 0.65676 0.0
C919 C 0.53017 1.01235 0.63109 0.0
C920 C 0.5994 0.06802 0.66776 0.0
C921 C 0.59097 0.06303 0.68402 0.0
C922 C 0.57105 1.02977 0.68949 0.0
C923 C 0.56105 1.00159 0.67861 0.0
C924 C 0.56988 1.00658 0.66243 0.0
H925 H 0.51287 1.01248 0.62102 0.0
H926 H 0.52259 0.98528 0.63308 0.0
H927 H 0.52616 1.02335 0.64236 0.0
H928 H 0.61373 0.09389 0.66365 0.0
H929 H 0.59894 0.08518 0.69216 0.0
H930 H 0.58813 0.53607 0.89027 0.0
H931 H 0.60358 0.5283 0.91813 0.0
H932 H 0.71011 0.59924 0.91129 0.0
H933 H 0.69462 0.60806 0.88351 0.0
H934 H 0.64307 0.50264 0.92773 0.0
H935 H 0.69926 0.63513 0.95432 0.0
H936 H 0.67524 0.62175 0.9348 0.0
H937 H 0.71906 0.6315 0.9366 0.0
C938 C 0.6148 0.55039 0.89477 0.0
C939 C 0.64014 0.57285 0.88476 0.0
C940 C 0.62362 0.54585 0.91067 0.0
C941 C 0.65797 0.5634 0.91686 0.0
C942 C 0.68337 0.58602 0.90692 0.0
H943 H 0.69883 0.48689 0.00888 0.0
H944 H 0.70499 0.50547 0.98067 0.0
C945 C 0.67449 0.59098 0.89104 0.0
C946 C 0.66682 0.55673 0.93351 0.0
H947 H 0.70067 0.59425 0.97136 0.0
C948 C 0.65585 0.52268 0.93727 0.0
C949 C 0.68353 0.58296 0.9459 0.0
C950 C 0.69472 0.61985 0.94279 0.0
C951 C 0.65971 0.51387 0.95322 0.0
C952 C 0.67609 0.54005 0.96567 0.0
C953 C 0.68838 0.57428 0.96176 0.0
C954 C 0.67667 0.5321 0.98309 0.0
C955 C 0.6444 0.47644 0.95671 0.0
C956 C 0.66025 0.5423 0.99399 0.0
C957 C 0.65724 0.53227 0.01005 0.0
C958 C 0.67052 0.5117 0.0156 0.0
C959 C 0.68813 0.5025 0.00487 0.0
C960 C 0.69151 0.51296 0.98877 0.0
H961 H 0.62639 0.45947 0.94654 0.0
H962 H 0.66523 0.47035 0.95842 0.0
H963 H 0.63041 0.47043 0.96803 0.0
H964 H 0.64851 0.55696 0.98989 0.0
H965 H 0.64307 0.53934 0.01792 0.0
H966 H 0.08196 0.54928 0.22333 0.0
H967 H 1.06739 0.54619 0.25181 0.0
H968 H 0.08449 0.649 0.25089 0.0
H969 H 0.09837 0.65211 0.22244 0.0
H970 H 0.1041 0.58504 0.27928 0.0
H971 H 0.98859 0.59599 0.26669 0.0
H972 H 1.00977 0.58758 0.25075 0.0
H973 H 1.02605 0.63062 0.2588 0.0
C974 C 0.08273 0.57128 0.22921 0.0
C975 C 0.09112 0.60087 0.22058 0.0
C976 C 1.07435 0.56944 0.24547 0.0
C977 C 1.07416 0.5971 0.25334 0.0
C978 C 0.0836 0.62703 0.24492 0.0
H979 H 0.08486 0.64786 0.35548 0.0
H980 H 0.09597 0.64007 0.32741 0.0
C981 C 0.09179 0.62884 0.22868 0.0
C982 C 1.06438 0.59495 0.27041 0.0
H983 H 1.0105 0.60488 0.29456 0.0
C984 C 0.08343 0.58905 0.28263 0.0
C985 C 1.03694 0.59945 0.27471 0.0
C986 C 1.01392 0.60339 0.26203 0.0
C987 C 0.07665 0.5889 0.29913 0.0
C988 C 1.05064 0.59563 0.30352 0.0
C989 C 1.03073 0.60017 0.29122 0.0
C990 C 1.04425 0.5991 0.32078 0.0
C991 C 0.0973 0.58136 0.31165 0.0
C992 C 1.01127 0.57926 0.32631 0.0
C993 C 1.00476 0.58396 0.34231 0.0
C994 C 1.03114 0.60859 0.35309 0.0
C995 C 1.06417 0.62827 0.34755 0.0
C996 C 1.07059 0.62375 0.33152 0.0
H997 H 0.10761 0.56609 0.30613 0.0
H998 H 0.11942 0.60584 0.31671 0.0
H999 H 0.08168 0.56719 0.32185 0.0
H1000 H 0.99052 0.56022 0.31821 0.0
H1001 H 0.97912 0.56827 0.34627 0.0
loop_
_geom_bond_atom_site_label_1
_geom_bond_atom_site_label_2
_geom_bond_distance
_geom_bond_site_symmetry_2
_ccdc_geom_bond_type
Tb0 C10 2.825 . S
Tb0 O11 2.347 . S
Tb0 O14 2.366 . S
Tb0 O19 2.418 . S
Tb0 O20 2.384 1_455 S
Tb0 O23 2.479 . S
Tb0 O24 2.471 . S
Eu1 O12 2.418 . S
Eu1 O13 2.384 . S
Eu1 O16 2.479 1_455 S
Eu1 O17 2.471 1_455 S
Eu1 O18 2.347 . S
Eu1 O21 2.366 1_455 S
Eu1 C31 2.825 1_455 S
C2 O18 1.259 . S
C2 O19 1.265 . S
C3 O20 1.255 . S
C3 O21 1.265 . S
C4 C6 1.380 . S
C4 C7 1.374 . S
C4 C10 1.507 . S
C5 C6 1.384 . S
C5 C9 1.387 . S
C5 H32 0.930 . S
C6 C4 1.380 . S
C6 C5 1.384 . S
C6 H33 0.931 . S
C7 C4 1.374 . S
C7 C8 1.390 . S
C7 H34 0.930 . S
C8 C7 1.390 . S
C8 C9 1.391 . S
C8 H35 0.930 . S
C9 C5 1.387 . S
C9 C8 1.391 . S
C10 Tb0 2.825 . S
C10 C4 1.507 . S
C10 O23 1.238 . S
C10 O24 1.247 . S
O11 Tb0 2.347 . S
O11 C15 1.259 . S
O12 Eu1 2.418 . S
O12 C15 1.265 . S
O13 Eu1 2.384 . S
O13 C22 1.255 . S
O14 Tb0 2.366 . S
O14 C22 1.265 . S
C15 O11 1.259 . S
C15 O12 1.265 . S
O16 Eu1 2.479 1_655 S
O16 C31 1.238 . S
O17 Eu1 2.471 1_655 S
O17 C31 1.247 . S
O18 Eu1 2.347 . S
O18 C2 1.259 . S
O19 Tb0 2.418 . S
O19 C2 1.265 . S
O20 Tb0 2.384 1_655 S
O20 C3 1.255 . S
O21 Eu1 2.366 1_655 S
O21 C3 1.265 . S
C22 O13 1.255 . S
C22 O14 1.265 . S
O23 Tb0 2.479 . S
O23 C10 1.238 . S
O24 Tb0 2.471 . S
O24 C10 1.247 . S
C25 C28 1.380 . S
C25 C29 1.374 . S
C25 C31 1.507 . S
C26 C27 1.387 . S
C26 C30 1.391 . S
C27 C26 1.387 . S
C27 C28 1.384 . S
C27 H36 0.930 . S
C28 C25 1.380 . S
C28 C27 1.384 . S
C28 H37 0.931 . S
C29 C25 1.374 . S
C29 C30 1.390 . S
C29 H38 0.930 . S
C30 C26 1.391 . S
C30 C29 1.390 . S
C30 H39 0.930 . S
C31 Eu1 2.825 1_655 S
C31 O16 1.238 . S
C31 O17 1.247 . S
C31 C25 1.507 . S
H32 C5 0.930 . S
H33 C6 0.931 . S
H34 C7 0.930 . S
H35 C8 0.930 . S
H36 C27 0.930 . S
H37 C28 0.931 . S
H38 C29 0.930 . S
H39 C30 0.930 . S
Tb40 C50 2.825 . S
Tb40 O51 2.347 . S
Tb40 O54 2.366 . S
Tb40 O59 2.418 . S
Tb40 O60 2.384 . S
Tb40 O63 2.479 . S
Tb40 O64 2.471 . S
Eu41 O52 2.418 . S
Eu41 O53 2.384 . S
Eu41 O56 2.479 1_545 S
Eu41 O57 2.471 1_545 S
Eu41 O58 2.347 . S
Eu41 O61 2.366 1_545 S
Eu41 C71 2.825 1_545 S
C42 O58 1.259 . S
C42 O59 1.265 . S
C43 O60 1.255 1_565 S
C43 O61 1.265 . S
C44 C46 1.380 . S
C44 C47 1.374 . S
C44 C50 1.507 . S
C45 C46 1.384 . S
C45 C49 1.387 . S
C45 H72 0.930 . S
C46 C44 1.380 . S
C46 C45 1.384 . S
C46 H73 0.931 . S
C47 C44 1.374 . S
C47 C48 1.390 . S
C47 H74 0.930 . S
C48 C47 1.390 . S
C48 C49 1.391 . S
C48 H75 0.930 . S
C49 C45 1.387 . S
C49 C48 1.391 . S
C50 Tb40 2.825 . S
C50 C44 1.507 . S
C50 O63 1.238 . S
C50 O64 1.247 . S
O51 Tb40 2.347 . S
O51 C55 1.259 . S
O52 Eu41 2.418 . S
O52 C55 1.265 . S
O53 Eu41 2.384 . S
O53 C62 1.255 . S
O54 Tb40 2.366 . S
O54 C62 1.265 . S
C55 O51 1.259 . S
C55 O52 1.265 . S
O56 Eu41 2.479 1_565 S
O56 C71 1.238 . S
O57 Eu41 2.471 1_565 S
O57 C71 1.247 . S
O58 Eu41 2.347 . S
O58 C42 1.259 . S
O59 Tb40 2.418 . S
O59 C42 1.265 . S
O60 Tb40 2.384 . S
O60 C43 1.255 1_545 S
O61 Eu41 2.366 1_565 S
O61 C43 1.265 . S
C62 O53 1.255 . S
C62 O54 1.265 . S
O63 Tb40 2.479 . S
O63 C50 1.238 . S
O64 Tb40 2.471 . S
O64 C50 1.247 . S
C65 C68 1.380 . S
C65 C69 1.374 . S
C65 C71 1.507 . S
C66 C67 1.387 . S
C66 C70 1.391 . S
C67 C66 1.387 . S
C67 C68 1.384 . S
C67 H76 0.930 . S
C68 C65 1.380 . S
C68 C67 1.384 . S
C68 H77 0.931 . S
C69 C65 1.374 . S
C69 C70 1.390 . S
C69 H78 0.930 . S
C70 C66 1.391 . S
C70 C69 1.390 . S
C70 H79 0.930 . S
C71 Eu41 2.825 1_565 S
C71 O56 1.238 . S
C71 O57 1.247 . S
C71 C65 1.507 . S
H72 C45 0.930 . S
H73 C46 0.931 . S
H74 C47 0.930 . S
H75 C48 0.930 . S
H76 C67 0.930 . S
H77 C68 0.931 . S
H78 C69 0.930 . S
H79 C70 0.930 . S
Tb80 C90 2.825 . S
Tb80 O91 2.347 . S
Tb80 O94 2.366 . S
Tb80 O99 2.418 . S
Tb80 O100 2.384 . S
Tb80 O103 2.479 . S
Tb80 O104 2.471 . S
Eu81 O92 2.418 . S
Eu81 O93 2.384 . S
Eu81 O96 2.479 . S
Eu81 O97 2.471 . S
Eu81 O98 2.347 . S
Eu81 O101 2.366 . S
Eu81 C111 2.825 . S
C82 O98 1.259 . S
C82 O99 1.265 . S
C83 O100 1.255 . S
C83 O101 1.265 . S
C84 C86 1.380 . S
C84 C87 1.374 . S
C84 C90 1.507 . S
C85 C86 1.384 . S
C85 C89 1.387 . S
C85 H112 0.930 . S
C86 C84 1.380 . S
C86 C85 1.384 . S
C86 H113 0.931 . S
C87 C84 1.374 . S
C87 C88 1.390 . S
C87 H114 0.930 . S
C88 C87 1.390 . S
C88 C89 1.391 . S
C88 H115 0.930 . S
C89 C85 1.387 . S
C89 C88 1.391 . S
C90 Tb80 2.825 . S
C90 C84 1.507 . S
C90 O103 1.238 . S
C90 O104 1.247 . S
O91 Tb80 2.347 . S
O91 C95 1.259 . S
O92 Eu81 2.418 . S
O92 C95 1.265 . S
O93 Eu81 2.384 . S
O93 C102 1.255 . S
O94 Tb80 2.366 . S
O94 C102 1.265 . S
C95 O91 1.259 . S
C95 O92 1.265 . S
O96 Eu81 2.479 . S
O96 C111 1.238 . S
O97 Eu81 2.471 . S
O97 C111 1.247 . S
O98 Eu81 2.347 . S
O98 C82 1.259 . S
O99 Tb80 2.418 . S
O99 C82 1.265 . S
O100 Tb80 2.384 . S
O100 C83 1.255 . S
O101 Eu81 2.366 . S
O101 C83 1.265 . S
C102 O93 1.255 . S
C102 O94 1.265 . S
O103 Tb80 2.479 . S
O103 C90 1.238 . S
O104 Tb80 2.471 . S
O104 C90 1.247 . S
C105 C108 1.380 . S
C105 C109 1.374 . S
C105 C111 1.507 . S
C106 C107 1.387 . S
C106 C110 1.391 . S
C107 C106 1.387 . S
C107 C108 1.384 . S
C107 H116 0.930 . S
C108 C105 1.380 . S
C108 C107 1.384 . S
C108 H117 0.931 . S
C109 C105 1.374 . S
C109 C110 1.390 . S
C109 H118 0.930 . S
C110 C106 1.391 . S
C110 C109 1.390 . S
C110 H119 0.930 . S
C111 Eu81 2.825 . S
C111 O96 1.238 . S
C111 O97 1.247 . S
C111 C105 1.507 . S
H112 C85 0.930 . S
H113 C86 0.931 . S
H114 C87 0.930 . S
H115 C88 0.930 . S
H116 C107 0.930 . S
H117 C108 0.931 . S
H118 C109 0.930 . S
H119 C110 0.930 . S
C120 C121 1.386 . S
C120 C122 1.397 . S
C120 H144 0.931 . S
C121 C120 1.386 . S
C121 C125 1.397 1_545 S
C122 C120 1.397 . S
C122 C123 1.384 . S
C122 H145 0.930 . S
C123 C122 1.384 . S
C123 C124 1.377 1_545 S
C123 C126 1.481 . S
C124 C123 1.377 1_565 S
C124 C125 1.389 . S
C124 H146 0.929 . S
C125 C121 1.397 1_565 S
C125 C124 1.389 . S
C125 H147 0.931 . S
C126 C123 1.481 . S
C126 C127 1.387 . S
C126 C131 1.390 1_545 S
C127 C126 1.387 . S
C127 C128 1.401 . S
C127 H148 0.930 . S
C128 C127 1.401 . S
C128 C129 1.376 . S
C128 C137 1.511 . S
C129 C128 1.376 . S
C129 C130 1.392 1_545 S
C129 H150 0.931 . S
C130 C129 1.392 1_565 S
C130 C131 1.361 . S
C130 C132 1.500 . S
C131 C126 1.390 1_565 S
C131 C130 1.361 . S
C131 H149 0.931 . S
C132 C130 1.500 . S
C132 C133 1.371 . S
C132 C134 1.365 . S
C133 C132 1.371 . S
C133 C143 1.386 . S
C133 H151 0.931 . S
C134 C132 1.365 . S
C134 C135 1.409 . S
C134 H152 0.929 . S
C135 C134 1.409 . S
C135 C136 1.380 . S
C135 H153 0.930 . S
C136 C135 1.380 . S
C136 C143 1.357 . S
C137 C128 1.511 . S
C137 C138 1.341 . S
C137 C139 1.371 . S
C138 C137 1.341 . S
C138 C142 1.394 . S
C138 H154 0.930 . S
C139 C137 1.371 . S
C139 C140 1.392 . S
C139 H155 0.931 . S
C140 C139 1.392 . S
C140 C141 1.331 . S
C140 H158 0.932 . S
C141 C140 1.331 . S
C141 C142 1.336 . S
C142 C138 1.394 . S
C142 C141 1.336 . S
C142 H157 0.929 . S
C143 C133 1.386 . S
C143 C136 1.357 . S
C143 H156 0.928 . S
H144 C120 0.931 . S
H145 C122 0.930 . S
H146 C124 0.929 . S
H147 C125 0.931 . S
H148 C127 0.930 . S
H149 C131 0.931 . S
H150 C129 0.931 . S
H151 C133 0.931 . S
H152 C134 0.929 . S
H153 C135 0.930 . S
H154 C138 0.930 . S
H155 C139 0.931 . S
H156 C143 0.928 . S
H157 C142 0.929 . S
H158 C140 0.932 . S
C159 C160 1.386 . S
C159 C161 1.397 . S
C159 H183 0.931 . S
C160 C159 1.386 . S
C160 C164 1.397 . S
C161 C159 1.397 . S
C161 C162 1.384 . S
C161 H184 0.930 . S
C162 C161 1.384 . S
C162 C163 1.377 . S
C162 C165 1.481 . S
C163 C162 1.377 . S
C163 C164 1.389 . S
C163 H185 0.929 . S
C164 C160 1.397 . S
C164 C163 1.389 . S
C164 H186 0.931 . S
C165 C162 1.481 . S
C165 C166 1.387 . S
C165 C170 1.390 . S
C166 C165 1.387 . S
C166 C167 1.401 . S
C166 H187 0.930 . S
C167 C166 1.401 . S
C167 C168 1.376 . S
C167 C176 1.511 . S
C168 C167 1.376 . S
C168 C169 1.392 . S
C168 H189 0.931 . S
C169 C168 1.392 . S
C169 C170 1.361 . S
C169 C171 1.500 . S
C170 C165 1.390 . S
C170 C169 1.361 . S
C170 H188 0.931 . S
C171 C169 1.500 . S
C171 C172 1.371 . S
C171 C173 1.365 . S
C172 C171 1.371 . S
C172 C182 1.386 . S
C172 H190 0.931 . S
C173 C171 1.365 . S
C173 C174 1.409 . S
C173 H191 0.929 . S
C174 C173 1.409 . S
C174 C175 1.380 . S
C174 H192 0.930 . S
C175 C174 1.380 . S
C175 C182 1.357 . S
C176 C167 1.511 . S
C176 C177 1.341 . S
C176 C178 1.371 . S
C177 C176 1.341 . S
C177 C181 1.394 . S
C177 H193 0.930 . S
C178 C176 1.371 . S
C178 C179 1.392 . S
C178 H194 0.931 . S
C179 C178 1.392 . S
C179 C180 1.331 . S
C179 H197 0.932 . S
C180 C179 1.331 . S
C180 C181 1.336 . S
C181 C177 1.394 . S
C181 C180 1.336 . S
C181 H196 0.929 . S
C182 C172 1.386 . S
C182 C175 1.357 . S
C182 H195 0.928 . S
H183 C159 0.931 . S
H184 C161 0.930 . S
H185 C163 0.929 . S
H186 C164 0.931 . S
H187 C166 0.930 . S
H188 C170 0.931 . S
H189 C168 0.931 . S
H190 C172 0.931 . S
H191 C173 0.929 . S
H192 C174 0.930 . S
H193 C177 0.930 . S
H194 C178 0.931 . S
H195 C182 0.928 . S
H196 C181 0.929 . S
H197 C179 0.932 . S
C198 C199 1.386 . S
C198 C200 1.397 . S
C198 H222 0.931 . S
C199 C198 1.386 . S
C199 C203 1.397 1_455 S
C200 C198 1.397 . S
C200 C201 1.384 . S
C200 H223 0.930 . S
C201 C200 1.384 . S
C201 C202 1.377 1_455 S
C201 C204 1.481 . S
C202 C201 1.377 1_655 S
C202 C203 1.389 . S
C202 H224 0.929 . S
C203 C199 1.397 1_655 S
C203 C202 1.389 . S
C203 H225 0.931 . S
C204 C201 1.481 . S
C204 C205 1.387 . S
C204 C209 1.390 1_455 S
C205 C204 1.387 . S
C205 C206 1.401 . S
C205 H226 0.930 . S
C206 C205 1.401 . S
C206 C207 1.376 . S
C206 C215 1.511 . S
C207 C206 1.376 . S
C207 C208 1.392 1_455 S
C207 H228 0.931 . S
C208 C207 1.392 1_655 S
C208 C209 1.361 . S
C208 C210 1.500 . S
C209 C204 1.390 1_655 S
C209 C208 1.361 . S
C209 H227 0.931 . S
C210 C208 1.500 . S
C210 C211 1.371 . S
C210 C212 1.365 . S
C211 C210 1.371 . S
C211 C221 1.386 . S
C211 H229 0.931 . S
C212 C210 1.365 . S
C212 C213 1.409 . S
C212 H230 0.929 . S
C213 C212 1.409 . S
C213 C214 1.380 . S
C213 H231 0.930 . S
C214 C213 1.380 . S
C214 C221 1.357 . S
C215 C206 1.511 . S
C215 C216 1.341 . S
C215 C217 1.371 . S
C216 C215 1.341 . S
C216 C220 1.394 . S
C216 H232 0.930 . S
C217 C215 1.371 . S
C217 C218 1.392 . S
C217 H233 0.931 . S
C218 C217 1.392 . S
C218 C219 1.331 . S
C218 H236 0.932 . S
C219 C218 1.331 . S
C219 C220 1.336 . S
C220 C216 1.394 . S
C220 C219 1.336 . S
C220 H235 0.929 . S
C221 C211 1.386 . S
C221 C214 1.357 . S
C221 H234 0.928 . S
H222 C198 0.931 . S
H223 C200 0.930 . S
H224 C202 0.929 . S
H225 C203 0.931 . S
H226 C205 0.930 . S
H227 C209 0.931 . S
H228 C207 0.931 . S
H229 C211 0.931 . S
H230 C212 0.929 . S
H231 C213 0.930 . S
H232 C216 0.930 . S
H233 C217 0.931 . S
H234 C221 0.928 . S
H235 C220 0.929 . S
H236 C218 0.932 . S
C237 C238 1.386 1_655 S
C237 C239 1.397 . S
C237 H261 0.931 . S
C238 C237 1.386 1_455 S
C238 C242 1.397 . S
C239 C237 1.397 . S
C239 C240 1.384 1_655 S
C239 H262 0.930 . S
C240 C239 1.384 1_455 S
C240 C241 1.377 . S
C240 C243 1.481 . S
C241 C240 1.377 . S
C241 C242 1.389 . S
C241 H263 0.929 . S
C242 C238 1.397 . S
C242 C241 1.389 . S
C242 H264 0.931 . S
C243 C240 1.481 . S
C243 C244 1.387 1_455 S
C243 C248 1.390 . S
C244 C243 1.387 1_655 S
C244 C245 1.401 . S
C244 H265 0.930 . S
C245 C244 1.401 . S
C245 C246 1.376 1_655 S
C245 C254 1.511 . S
C246 C245 1.376 1_455 S
C246 C247 1.392 . S
C246 H267 0.931 . S
C247 C246 1.392 . S
C247 C248 1.361 . S
C247 C249 1.500 . S
C248 C243 1.390 . S
C248 C247 1.361 . S
C248 H266 0.931 . S
C249 C247 1.500 . S
C249 C250 1.371 . S
C249 C251 1.365 . S
C250 C249 1.371 . S
C250 C260 1.386 . S
C250 H268 0.931 . S
C251 C249 1.365 . S
C251 C252 1.409 . S
C251 H269 0.929 . S
C252 C251 1.409 . S
C252 C253 1.380 . S
C252 H270 0.930 . S
C253 C252 1.380 . S
C253 C260 1.357 . S
C254 C245 1.511 . S
C254 C255 1.341 . S
C254 C256 1.371 . S
C255 C254 1.341 . S
C255 C259 1.394 . S
C255 H271 0.930 . S
C256 C254 1.371 . S
C256 C257 1.392 . S
C256 H272 0.931 . S
C257 C256 1.392 . S
C257 C258 1.331 . S
C257 H275 0.932 . S
C258 C257 1.331 . S
C258 C259 1.336 . S
C259 C255 1.394 . S
C259 C258 1.336 . S
C259 H274 0.929 . S
C260 C250 1.386 . S
C260 C253 1.357 . S
C260 H273 0.928 . S
H261 C237 0.931 . S
H262 C239 0.930 . S
H263 C241 0.929 . S
H264 C242 0.931 . S
H265 C244 0.930 . S
H266 C248 0.931 . S
H267 C246 0.931 . S
H268 C250 0.931 . S
H269 C251 0.929 . S
H270 C252 0.930 . S
H271 C255 0.930 . S
H272 C256 0.931 . S
H273 C260 0.928 . S
H274 C259 0.929 . S
H275 C257 0.932 . S
C276 C277 1.386 1_565 S
C276 C278 1.397 . S
C276 H300 0.931 . S
C277 C276 1.386 1_545 S
C277 C281 1.397 . S
C278 C276 1.397 . S
C278 C279 1.384 1_565 S
C278 H301 0.930 . S
C279 C278 1.384 1_545 S
C279 C280 1.377 . S
C279 C282 1.482 . S
C280 C279 1.377 . S
C280 C281 1.389 . S
C280 H302 0.929 . S
C281 C277 1.397 . S
C281 C280 1.389 . S
C281 H303 0.931 . S
C282 C279 1.482 . S
C282 C283 1.351 1_545 S
C282 C287 1.426 . S
C283 C282 1.351 1_565 S
C283 C284 1.401 . S
C283 H304 0.930 . S
C284 C283 1.401 . S
C284 C285 1.365 1_565 S
C284 C293 1.511 . S
C285 C284 1.365 1_545 S
C285 C286 1.403 . S
C285 H306 0.931 1_545 S
C286 C285 1.403 . S
C286 C287 1.361 . S
C286 C288 1.500 . S
C287 C282 1.426 . S
C287 C286 1.361 . S
C287 H305 0.931 . S
C288 C286 1.500 . S
C288 C289 1.371 . S
C288 C290 1.365 . S
C289 C288 1.371 . S
C289 C299 1.386 . S
C289 H307 0.931 . S
C290 C288 1.365 . S
C290 C291 1.409 . S
C290 H308 0.929 . S
C291 C290 1.409 . S
C291 C292 1.380 . S
C291 H309 0.930 . S
C292 C291 1.380 . S
C292 C299 1.357 . S
C293 C284 1.511 . S
C293 C294 1.341 . S
C293 C295 1.371 . S
C294 C293 1.341 . S
C294 C298 1.394 . S
C294 H310 0.930 . S
C295 C293 1.371 . S
C295 C296 1.392 . S
C295 H311 0.931 . S
C296 C295 1.392 . S
C296 C297 1.331 . S
C296 H314 0.932 . S
C297 C296 1.331 . S
C297 C298 1.336 . S
C298 C294 1.394 . S
C298 C297 1.336 . S
C298 H313 0.929 . S
C299 C289 1.386 . S
C299 C292 1.357 . S
C299 H312 0.928 . S
H300 C276 0.931 . S
H301 C278 0.930 . S
H302 C280 0.929 . S
H303 C281 0.931 . S
H304 C283 0.930 . S
H305 C287 0.931 . S
H306 C285 0.931 1_565 S
H307 C289 0.931 . S
H308 C290 0.929 . S
H309 C291 0.930 . S
H310 C294 0.930 . S
H311 C295 0.931 . S
H312 C299 0.928 . S
H313 C298 0.929 . S
H314 C296 0.932 . S
C315 C316 1.386 . S
C315 C317 1.397 . S
C315 H339 0.931 . S
C316 C315 1.386 . S
C316 C320 1.397 . S
C317 C315 1.397 . S
C317 C318 1.384 . S
C317 H340 0.930 . S
C318 C317 1.384 . S
C318 C319 1.377 . S
C318 C321 1.481 . S
C319 C318 1.377 . S
C319 C320 1.389 . S
C319 H341 0.929 . S
C320 C316 1.397 . S
C320 C319 1.389 . S
C320 H342 0.931 . S
C321 C318 1.481 . S
C321 C322 1.387 . S
C321 C326 1.390 . S
C322 C321 1.387 . S
C322 C323 1.401 . S
C322 H343 0.930 . S
C323 C322 1.401 . S
C323 C324 1.376 . S
C323 C332 1.511 . S
C324 C323 1.376 . S
C324 C325 1.392 . S
C324 H345 0.931 . S
C325 C324 1.392 . S
C325 C326 1.361 . S
C325 C327 1.500 . S
C326 C321 1.390 . S
C326 C325 1.361 . S
C326 H344 0.931 . S
C327 C325 1.500 . S
C327 C328 1.371 . S
C327 C329 1.365 . S
C328 C327 1.371 . S
C328 C338 1.386 . S
C328 H346 0.931 . S
C329 C327 1.365 . S
C329 C330 1.409 . S
C329 H347 0.929 . S
C330 C329 1.409 . S
C330 C331 1.380 . S
C330 H348 0.930 . S
C331 C330 1.380 . S
C331 C338 1.357 . S
C332 C323 1.511 . S
C332 C333 1.341 . S
C332 C334 1.371 . S
C333 C332 1.341 . S
C333 C337 1.394 . S
C333 H349 0.930 . S
C334 C332 1.371 . S
C334 C335 1.392 . S
C334 H350 0.931 . S
C335 C334 1.392 . S
C335 C336 1.331 . S
C335 H353 0.932 . S
C336 C335 1.331 . S
C336 C337 1.336 . S
C337 C333 1.394 . S
C337 C336 1.336 . S
C337 H352 0.929 . S
C338 C328 1.386 . S
C338 C331 1.357 . S
C338 H351 0.928 . S
H339 C315 0.931 . S
H340 C317 0.930 . S
H341 C319 0.929 . S
H342 C320 0.931 . S
H343 C322 0.930 . S
H344 C326 0.931 . S
H345 C324 0.931 . S
H346 C328 0.931 . S
H347 C329 0.929 . S
H348 C330 0.930 . S
H349 C333 0.930 . S
H350 C334 0.931 . S
H351 C338 0.928 . S
H352 C337 0.929 . S
H353 C335 0.932 . S
H354 C362 0.929 . S
H355 C364 0.930 . S
H356 C366 0.930 . S
H357 C369 0.929 . S
H358 C372 0.930 . S
H359 C374 0.960 . S
H360 C374 0.960 . S
H361 C374 0.960 . S
C362 H354 0.929 . S
C362 C363 1.377 . S
C362 C364 1.384 . S
C363 C362 1.377 . S
C363 C369 1.390 . S
C364 H355 0.930 . S
C364 C362 1.384 . S
C364 C365 1.372 . S
C365 C364 1.372 . S
C365 C366 1.400 . S
C365 C370 1.490 . S
C366 H356 0.930 . S
C366 C365 1.400 . S
C366 C369 1.386 . S
H367 C383 0.930 . S
H368 C384 0.931 . S
C369 H357 0.929 . S
C369 C363 1.390 . S
C369 C366 1.386 . S
C370 C365 1.490 . S
C370 C372 1.395 . S
C370 C373 1.403 . S
H371 C377 0.930 . S
C372 H358 0.930 . S
C372 C370 1.395 . S
C372 C375 1.403 . S
C373 C370 1.403 . S
C373 C374 1.524 . S
C373 C377 1.400 . S
C374 H359 0.960 . S
C374 H360 0.960 . S
C374 H361 0.960 . S
C374 C373 1.524 . S
C375 C372 1.403 . S
C375 C376 1.392 . S
C375 C379 1.495 . S
C376 C375 1.392 . S
C376 C377 1.385 . S
C376 C378 1.478 . S
C377 H371 0.930 . S
C377 C373 1.400 . S
C377 C376 1.385 . S
C378 C376 1.478 . S
C378 C380 1.381 . S
C378 C384 1.383 . S
C379 C375 1.495 . S
C379 H385 0.959 . S
C379 H386 0.961 . S
C379 H387 0.960 . S
C380 C378 1.381 . S
C380 C381 1.394 . S
C380 H388 0.930 . S
C381 C380 1.394 . S
C381 C382 1.383 . S
C381 H389 0.929 . S
C382 C381 1.383 . S
C382 C383 1.377 . S
C383 H367 0.930 . S
C383 C382 1.377 . S
C383 C384 1.379 . S
C384 H368 0.931 . S
C384 C378 1.383 . S
C384 C383 1.379 . S
H385 C379 0.959 . S
H386 C379 0.961 . S
H387 C379 0.960 . S
H388 C380 0.930 . S
H389 C381 0.929 . S
H390 C398 0.929 . S
H391 C400 0.930 . S
H392 C402 0.930 . S
H393 C405 0.929 . S
H394 C408 0.930 . S
H395 C410 0.960 . S
H396 C410 0.960 . S
H397 C410 0.960 . S
C398 H390 0.929 . S
C398 C399 1.377 . S
C398 C400 1.384 . S
C399 C398 1.377 . S
C399 C405 1.390 . S
C400 H391 0.930 . S
C400 C398 1.384 . S
C400 C401 1.372 . S
C401 C400 1.372 . S
C401 C402 1.400 . S
C401 C406 1.490 . S
C402 H392 0.930 . S
C402 C401 1.400 . S
C402 C405 1.386 . S
H403 C419 0.930 . S
H404 C420 0.931 . S
C405 H393 0.929 . S
C405 C399 1.390 . S
C405 C402 1.386 . S
C406 C401 1.490 . S
C406 C408 1.395 . S
C406 C409 1.403 . S
H407 C413 0.930 . S
C408 H394 0.930 . S
C408 C406 1.395 . S
C408 C411 1.403 . S
C409 C406 1.403 . S
C409 C410 1.524 . S
C409 C413 1.400 . S
C410 H395 0.960 . S
C410 H396 0.960 . S
C410 H397 0.960 . S
C410 C409 1.524 . S
C411 C408 1.403 . S
C411 C412 1.392 . S
C411 C415 1.495 . S
C412 C411 1.392 . S
C412 C413 1.385 . S
C412 C414 1.478 . S
C413 H407 0.930 . S
C413 C409 1.400 . S
C413 C412 1.385 . S
C414 C412 1.478 . S
C414 C416 1.381 . S
C414 C420 1.383 . S
C415 C411 1.495 . S
C415 H421 0.959 . S
C415 H422 0.961 . S
C415 H423 0.960 . S
C416 C414 1.381 . S
C416 C417 1.394 . S
C416 H424 0.930 . S
C417 C416 1.394 . S
C417 C418 1.383 . S
C417 H425 0.929 . S
C418 C417 1.383 . S
C418 C419 1.377 . S
C419 H403 0.930 . S
C419 C418 1.377 . S
C419 C420 1.379 . S
C420 H404 0.931 . S
C420 C414 1.383 . S
C420 C419 1.379 . S
H421 C415 0.959 . S
H422 C415 0.961 . S
H423 C415 0.960 . S
H424 C416 0.930 . S
H425 C417 0.929 . S
H426 C434 0.929 . S
H427 C436 0.930 . S
H428 C438 0.930 . S
H429 C441 0.929 . S
H430 C444 0.930 . S
H431 C446 0.960 . S
H432 C446 0.960 . S
H433 C446 0.960 . S
C434 H426 0.929 . S
C434 C435 1.377 . S
C434 C436 1.384 . S
C435 C434 1.377 . S
C435 C441 1.390 . S
C436 H427 0.930 . S
C436 C434 1.384 . S
C436 C437 1.372 . S
C437 C436 1.372 . S
C437 C438 1.400 . S
C437 C442 1.490 . S
C438 H428 0.930 . S
C438 C437 1.400 . S
C438 C441 1.386 . S
H439 C455 0.930 . S
H440 C456 0.931 . S
C441 H429 0.929 . S
C441 C435 1.390 . S
C441 C438 1.386 . S
C442 C437 1.490 . S
C442 C444 1.395 . S
C442 C445 1.403 . S
H443 C449 0.930 . S
C444 H430 0.930 . S
C444 C442 1.395 . S
C444 C447 1.403 . S
C445 C442 1.403 . S
C445 C446 1.524 . S
C445 C449 1.400 . S
C446 H431 0.960 . S
C446 H432 0.960 . S
C446 H433 0.960 . S
C446 C445 1.524 . S
C447 C444 1.403 . S
C447 C448 1.392 . S
C447 C451 1.495 . S
C448 C447 1.392 . S
C448 C449 1.385 . S
C448 C450 1.478 . S
C449 H443 0.930 . S
C449 C445 1.400 . S
C449 C448 1.385 . S
C450 C448 1.478 . S
C450 C452 1.381 . S
C450 C456 1.383 . S
C451 C447 1.495 . S
C451 H457 0.959 . S
C451 H458 0.961 . S
C451 H459 0.960 . S
C452 C450 1.381 . S
C452 C453 1.394 . S
C452 H460 0.930 . S
C453 C452 1.394 . S
C453 C454 1.383 . S
C453 H461 0.929 . S
C454 C453 1.383 . S
C454 C455 1.377 . S
C455 H439 0.930 . S
C455 C454 1.377 . S
C455 C456 1.379 . S
C456 H440 0.931 . S
C456 C450 1.383 . S
C456 C455 1.379 . S
H457 C451 0.959 . S
H458 C451 0.961 . S
H459 C451 0.960 . S
H460 C452 0.930 . S
H461 C453 0.929 . S
H462 C470 0.929 . S
H463 C472 0.930 . S
H464 C474 0.930 . S
H465 C477 0.929 . S
H466 C480 0.930 . S
H467 C482 0.960 . S
H468 C482 0.960 . S
H469 C482 0.960 . S
C470 H462 0.929 . S
C470 C471 1.377 . S
C470 C472 1.384 . S
C471 C470 1.377 . S
C471 C477 1.390 . S
C472 H463 0.930 . S
C472 C470 1.384 . S
C472 C473 1.372 . S
C473 C472 1.372 . S
C473 C474 1.400 . S
C473 C478 1.490 . S
C474 H464 0.930 . S
C474 C473 1.400 . S
C474 C477 1.386 . S
H475 C491 0.930 . S
H476 C492 0.931 . S
C477 H465 0.929 . S
C477 C471 1.390 . S
C477 C474 1.386 . S
C478 C473 1.490 . S
C478 C480 1.395 . S
C478 C481 1.403 . S
H479 C485 0.930 . S
C480 H466 0.930 . S
C480 C478 1.395 . S
C480 C483 1.403 . S
C481 C478 1.403 . S
C481 C482 1.524 . S
C481 C485 1.400 . S
C482 H467 0.960 . S
C482 H468 0.960 . S
C482 H469 0.960 . S
C482 C481 1.524 . S
C483 C480 1.403 . S
C483 C484 1.392 . S
C483 C487 1.495 . S
C484 C483 1.392 . S
C484 C485 1.385 . S
C484 C486 1.478 . S
C485 H479 0.930 . S
C485 C481 1.400 . S
C485 C484 1.385 . S
C486 C484 1.478 . S
C486 C488 1.381 . S
C486 C492 1.383 . S
C487 C483 1.495 . S
C487 H493 0.959 . S
C487 H494 0.961 . S
C487 H495 0.960 . S
C488 C486 1.381 . S
C488 C489 1.394 . S
C488 H496 0.930 . S
C489 C488 1.394 . S
C489 C490 1.383 . S
C489 H497 0.929 . S
C490 C489 1.383 . S
C490 C491 1.377 . S
C491 H475 0.930 . S
C491 C490 1.377 . S
C491 C492 1.379 . S
C492 H476 0.931 . S
C492 C486 1.383 . S
C492 C491 1.379 . S
H493 C487 0.959 . S
H494 C487 0.961 . S
H495 C487 0.960 . S
H496 C488 0.930 . S
H497 C489 0.929 . S
H498 C506 0.929 . S
H499 C508 0.930 . S
H500 C510 0.930 . S
H501 C513 0.929 . S
H502 C516 0.930 . S
H503 C518 0.960 . S
H504 C518 0.960 . S
H505 C518 0.960 . S
C506 H498 0.929 . S
C506 C507 1.377 . S
C506 C508 1.384 . S
C507 C506 1.377 . S
C507 C513 1.390 . S
C508 H499 0.930 . S
C508 C506 1.384 . S
C508 C509 1.372 . S
C509 C508 1.372 . S
C509 C510 1.400 . S
C509 C514 1.490 . S
C510 H500 0.930 . S
C510 C509 1.400 . S
C510 C513 1.386 . S
H511 C527 0.930 . S
H512 C528 0.931 . S
C513 H501 0.929 . S
C513 C507 1.390 . S
C513 C510 1.386 . S
C514 C509 1.490 . S
C514 C516 1.395 . S
C514 C517 1.403 . S
H515 C521 0.930 . S
C516 H502 0.930 . S
C516 C514 1.395 . S
C516 C519 1.403 . S
C517 C514 1.403 . S
C517 C518 1.524 . S
C517 C521 1.400 . S
C518 H503 0.960 . S
C518 H504 0.960 . S
C518 H505 0.960 . S
C518 C517 1.524 . S
C519 C516 1.403 . S
C519 C520 1.392 . S
C519 C523 1.495 . S
C520 C519 1.392 . S
C520 C521 1.385 . S
C520 C522 1.478 . S
C521 H515 0.930 . S
C521 C517 1.400 . S
C521 C520 1.385 . S
C522 C520 1.478 . S
C522 C524 1.381 . S
C522 C528 1.383 . S
C523 C519 1.495 . S
C523 H529 0.959 . S
C523 H530 0.961 . S
C523 H531 0.960 . S
C524 C522 1.381 . S
C524 C525 1.394 . S
C524 H532 0.930 . S
C525 C524 1.394 . S
C525 C526 1.383 . S
C525 H533 0.929 . S
C526 C525 1.383 . S
C526 C527 1.377 . S
C527 H511 0.930 . S
C527 C526 1.377 . S
C527 C528 1.379 . S
C528 H512 0.931 . S
C528 C522 1.383 . S
C528 C527 1.379 . S
H529 C523 0.959 . S
H530 C523 0.961 . S
H531 C523 0.960 . S
H532 C524 0.930 . S
H533 C525 0.929 . S
H534 C542 0.929 . S
H535 C544 0.930 . S
H536 C546 0.930 . S
H537 C549 0.929 . S
H538 C552 0.930 . S
H539 C554 0.960 . S
H540 C554 0.960 . S
H541 C554 0.960 . S
C542 H534 0.929 . S
C542 C543 1.377 . S
C542 C544 1.384 . S
C543 C542 1.377 . S
C543 C549 1.390 . S
C544 H535 0.930 . S
C544 C542 1.384 . S
C544 C545 1.372 . S
C545 C544 1.372 . S
C545 C546 1.400 . S
C545 C550 1.490 . S
C546 H536 0.930 . S
C546 C545 1.400 . S
C546 C549 1.386 . S
H547 C563 0.930 . S
H548 C564 0.931 . S
C549 H537 0.929 . S
C549 C543 1.390 . S
C549 C546 1.386 . S
C550 C545 1.490 . S
C550 C552 1.395 . S
C550 C553 1.403 . S
H551 C557 0.930 . S
C552 H538 0.930 . S
C552 C550 1.395 . S
C552 C555 1.403 . S
C553 C550 1.403 . S
C553 C554 1.524 . S
C553 C557 1.400 . S
C554 H539 0.960 . S
C554 H540 0.960 . S
C554 H541 0.960 . S
C554 C553 1.524 . S
C555 C552 1.403 . S
C555 C556 1.392 . S
C555 C559 1.495 . S
C556 C555 1.392 . S
C556 C557 1.385 . S
C556 C558 1.478 . S
C557 H551 0.930 . S
C557 C553 1.400 . S
C557 C556 1.385 . S
C558 C556 1.478 . S
C558 C560 1.381 . S
C558 C564 1.383 . S
C559 C555 1.495 . S
C559 H565 0.959 . S
C559 H566 0.961 . S
C559 H567 0.960 . S
C560 C558 1.381 . S
C560 C561 1.394 . S
C560 H568 0.930 . S
C561 C560 1.394 . S
C561 C562 1.383 . S
C561 H569 0.929 . S
C562 C561 1.383 . S
C562 C563 1.377 . S
C563 H547 0.930 . S
C563 C562 1.377 . S
C563 C564 1.379 . S
C564 H548 0.931 . S
C564 C558 1.383 . S
C564 C563 1.379 . S
H565 C559 0.959 . S
H566 C559 0.961 . S
H567 C559 0.960 . S
H568 C560 0.930 . S
H569 C561 0.929 . S
H570 C578 0.929 . S
H571 C580 0.930 . S
H572 C582 0.930 . S
H573 C585 0.929 . S
H574 C588 0.930 . S
H575 C590 0.960 . S
H576 C590 0.960 . S
H577 C590 0.960 . S
C578 H570 0.929 . S
C578 C579 1.377 . S
C578 C580 1.384 . S
C579 C578 1.377 . S
C579 C585 1.390 . S
C580 H571 0.930 . S
C580 C578 1.384 . S
C580 C581 1.372 . S
C581 C580 1.372 . S
C581 C582 1.400 . S
C581 C586 1.490 . S
C582 H572 0.930 . S
C582 C581 1.400 . S
C582 C585 1.386 . S
H583 C599 0.930 . S
H584 C600 0.931 . S
C585 H573 0.929 . S
C585 C579 1.390 . S
C585 C582 1.386 . S
C586 C581 1.490 . S
C586 C588 1.395 . S
C586 C589 1.403 . S
H587 C593 0.930 . S
C588 H574 0.930 . S
C588 C586 1.395 . S
C588 C591 1.403 . S
C589 C586 1.403 . S
C589 C590 1.524 . S
C589 C593 1.400 . S
C590 H575 0.960 . S
C590 H576 0.960 . S
C590 H577 0.960 . S
C590 C589 1.524 . S
C591 C588 1.403 . S
C591 C592 1.392 . S
C591 C595 1.495 . S
C592 C591 1.392 . S
C592 C593 1.385 . S
C592 C594 1.478 . S
C593 H587 0.930 . S
C593 C589 1.400 . S
C593 C592 1.385 . S
C594 C592 1.478 . S
C594 C596 1.381 . S
C594 C600 1.383 . S
C595 C591 1.495 . S
C595 H601 0.959 . S
C595 H602 0.961 . S
C595 H603 0.960 . S
C596 C594 1.381 . S
C596 C597 1.394 . S
C596 H604 0.930 . S
C597 C596 1.394 . S
C597 C598 1.383 . S
C597 H605 0.929 . S
C598 C597 1.383 . S
C598 C599 1.377 . S
C599 H583 0.930 . S
C599 C598 1.377 . S
C599 C600 1.379 . S
C600 H584 0.931 . S
C600 C594 1.383 . S
C600 C599 1.379 . S
H601 C595 0.959 . S
H602 C595 0.961 . S
H603 C595 0.960 . S
H604 C596 0.930 . S
H605 C597 0.929 . S
H606 C614 0.929 . S
H607 C616 0.930 . S
H608 C618 0.930 . S
H609 C621 0.929 . S
H610 C624 0.930 . S
H611 C626 0.960 . S
H612 C626 0.960 . S
H613 C626 0.960 . S
C614 H606 0.929 . S
C614 C615 1.377 . S
C614 C616 1.384 . S
C615 C614 1.377 . S
C615 C621 1.390 . S
C616 H607 0.930 . S
C616 C614 1.384 . S
C616 C617 1.372 . S
C617 C616 1.372 . S
C617 C618 1.400 . S
C617 C622 1.490 . S
C618 H608 0.930 . S
C618 C617 1.400 . S
C618 C621 1.386 . S
H619 C635 0.930 . S
H620 C636 0.931 . S
C621 H609 0.929 . S
C621 C615 1.390 . S
C621 C618 1.386 . S
C622 C617 1.490 . S
C622 C624 1.395 . S
C622 C625 1.403 . S
H623 C629 0.930 . S
C624 H610 0.930 . S
C624 C622 1.395 . S
C624 C627 1.403 . S
C625 C622 1.403 . S
C625 C626 1.524 . S
C625 C629 1.400 . S
C626 H611 0.960 . S
C626 H612 0.960 . S
C626 H613 0.960 . S
C626 C625 1.524 . S
C627 C624 1.403 . S
C627 C628 1.392 . S
C627 C631 1.495 . S
C628 C627 1.392 . S
C628 C629 1.385 . S
C628 C630 1.478 . S
C629 H623 0.930 . S
C629 C625 1.400 . S
C629 C628 1.385 . S
C630 C628 1.478 . S
C630 C632 1.381 . S
C630 C636 1.383 . S
C631 C627 1.495 . S
C631 H637 0.959 . S
C631 H638 0.961 . S
C631 H639 0.960 . S
C632 C630 1.381 . S
C632 C633 1.394 . S
C632 H640 0.930 . S
C633 C632 1.394 . S
C633 C634 1.383 . S
C633 H641 0.929 . S
C634 C633 1.383 . S
C634 C635 1.377 . S
C635 H619 0.930 . S
C635 C634 1.377 . S
C635 C636 1.379 . S
C636 H620 0.931 . S
C636 C630 1.383 . S
C636 C635 1.379 . S
H637 C631 0.959 . S
H638 C631 0.961 . S
H639 C631 0.960 . S
H640 C632 0.930 . S
H641 C633 0.929 . S
H642 C650 0.929 . S
H643 C652 0.930 . S
H644 C654 0.930 . S
H645 C657 0.929 . S
H646 C660 0.930 . S
H647 C662 0.960 . S
H648 C662 0.960 . S
H649 C662 0.960 . S
C650 H642 0.929 . S
C650 C651 1.377 . S
C650 C652 1.384 . S
C651 C650 1.377 . S
C651 C657 1.390 . S
C652 H643 0.930 . S
C652 C650 1.384 . S
C652 C653 1.372 . S
C653 C652 1.372 . S
C653 C654 1.400 . S
C653 C658 1.490 . S
C654 H644 0.930 . S
C654 C653 1.400 . S
C654 C657 1.386 . S
H655 C671 0.930 . S
H656 C672 0.931 . S
C657 H645 0.929 . S
C657 C651 1.390 . S
C657 C654 1.386 . S
C658 C653 1.490 . S
C658 C660 1.395 . S
C658 C661 1.403 . S
H659 C665 0.930 . S
C660 H646 0.930 . S
C660 C658 1.395 . S
C660 C663 1.403 . S
C661 C658 1.403 . S
C661 C662 1.524 . S
C661 C665 1.400 . S
C662 H647 0.960 . S
C662 H648 0.960 . S
C662 H649 0.960 . S
C662 C661 1.524 . S
C663 C660 1.403 . S
C663 C664 1.392 . S
C663 C667 1.495 . S
C664 C663 1.392 . S
C664 C665 1.385 . S
C664 C666 1.478 . S
C665 H659 0.930 . S
C665 C661 1.400 . S
C665 C664 1.385 . S
C666 C664 1.478 . S
C666 C668 1.381 . S
C666 C672 1.383 . S
C667 C663 1.495 . S
C667 H673 0.959 . S
C667 H674 0.961 . S
C667 H675 0.960 . S
C668 C666 1.381 . S
C668 C669 1.394 . S
C668 H676 0.930 . S
C669 C668 1.394 . S
C669 C670 1.383 . S
C669 H677 0.929 . S
C670 C669 1.383 . S
C670 C671 1.377 . S
C671 H655 0.930 . S
C671 C670 1.377 . S
C671 C672 1.379 . S
C672 H656 0.931 . S
C672 C666 1.383 . S
C672 C671 1.379 . S
H673 C667 0.959 . S
H674 C667 0.961 . S
H675 C667 0.960 . S
H676 C668 0.930 . S
H677 C669 0.929 . S
H678 C686 0.929 . S
H679 C688 0.930 . S
H680 C690 0.930 . S
H681 C693 0.929 . S
H682 C696 0.930 . S
H683 C698 0.960 . S
H684 C698 0.960 . S
H685 C698 0.960 . S
C686 H678 0.929 . S
C686 C687 1.377 . S
C686 C688 1.384 . S
C687 C686 1.377 . S
C687 C693 1.390 . S
C688 H679 0.930 . S
C688 C686 1.384 . S
C688 C689 1.372 . S
C689 C688 1.372 . S
C689 C690 1.400 . S
C689 C694 1.490 . S
C690 H680 0.930 . S
C690 C689 1.400 . S
C690 C693 1.386 . S
H691 C707 0.930 . S
H692 C708 0.931 . S
C693 H681 0.929 . S
C693 C687 1.390 . S
C693 C690 1.386 . S
C694 C689 1.490 . S
C694 C696 1.395 . S
C694 C697 1.403 . S
H695 C701 0.930 . S
C696 H682 0.930 . S
C696 C694 1.395 . S
C696 C699 1.403 . S
C697 C694 1.403 . S
C697 C698 1.524 . S
C697 C701 1.400 . S
C698 H683 0.960 . S
C698 H684 0.960 . S
C698 H685 0.960 . S
C698 C697 1.524 . S
C699 C696 1.403 . S
C699 C700 1.392 . S
C699 C703 1.495 . S
C700 C699 1.392 . S
C700 C701 1.385 . S
C700 C702 1.478 . S
C701 H695 0.930 . S
C701 C697 1.400 . S
C701 C700 1.385 . S
C702 C700 1.478 . S
C702 C704 1.381 . S
C702 C708 1.383 . S
C703 C699 1.495 . S
C703 H709 0.959 . S
C703 H710 0.961 . S
C703 H711 0.960 . S
C704 C702 1.381 . S
C704 C705 1.394 . S
C704 H712 0.930 . S
C705 C704 1.394 . S
C705 C706 1.383 . S
C705 H713 0.929 . S
C706 C705 1.383 . S
C706 C707 1.377 . S
C707 H691 0.930 . S
C707 C706 1.377 . S
C707 C708 1.379 . S
C708 H692 0.931 . S
C708 C702 1.383 . S
C708 C707 1.379 . S
H709 C703 0.959 . S
H710 C703 0.961 . S
H711 C703 0.960 . S
H712 C704 0.930 . S
H713 C705 0.929 . S
H714 C722 0.929 . S
H715 C724 0.930 . S
H716 C726 0.930 . S
H717 C729 0.929 . S
H718 C732 0.930 . S
H719 C734 0.960 . S
H720 C734 0.960 . S
H721 C734 0.960 . S
C722 H714 0.929 . S
C722 C723 1.377 . S
C722 C724 1.384 . S
C723 C722 1.377 . S
C723 C729 1.390 . S
C724 H715 0.930 . S
C724 C722 1.384 . S
C724 C725 1.372 . S
C725 C724 1.372 . S
C725 C726 1.400 . S
C725 C730 1.490 . S
C726 H716 0.930 . S
C726 C725 1.400 . S
C726 C729 1.386 . S
H727 C743 0.930 . S
H728 C744 0.931 . S
C729 H717 0.929 . S
C729 C723 1.390 . S
C729 C726 1.386 . S
C730 C725 1.490 . S
C730 C732 1.395 . S
C730 C733 1.403 . S
H731 C737 0.930 . S
C732 H718 0.930 . S
C732 C730 1.395 . S
C732 C735 1.403 . S
C733 C730 1.403 . S
C733 C734 1.524 . S
C733 C737 1.400 . S
C734 H719 0.960 . S
C734 H720 0.960 . S
C734 H721 0.960 . S
C734 C733 1.524 . S
C735 C732 1.403 . S
C735 C736 1.392 . S
C735 C739 1.495 . S
C736 C735 1.392 . S
C736 C737 1.385 . S
C736 C738 1.478 . S
C737 H731 0.930 . S
C737 C733 1.400 . S
C737 C736 1.385 . S
C738 C736 1.478 . S
C738 C740 1.381 . S
C738 C744 1.383 . S
C739 C735 1.495 . S
C739 H745 0.959 . S
C739 H746 0.961 . S
C739 H747 0.960 . S
C740 C738 1.381 . S
C740 C741 1.394 . S
C740 H748 0.930 . S
C741 C740 1.394 . S
C741 C742 1.383 . S
C741 H749 0.929 . S
C742 C741 1.383 . S
C742 C743 1.377 . S
C743 H727 0.930 . S
C743 C742 1.377 . S
C743 C744 1.379 . S
C744 H728 0.931 . S
C744 C738 1.383 . S
C744 C743 1.379 . S
H745 C739 0.959 . S
H746 C739 0.961 . S
H747 C739 0.960 . S
H748 C740 0.930 . S
H749 C741 0.929 . S
H750 C758 0.929 . S
H751 C760 0.930 . S
H752 C762 0.930 . S
H753 C765 0.929 . S
H754 C768 0.930 . S
H755 C770 0.960 . S
H756 C770 0.960 . S
H757 C770 0.960 . S
C758 H750 0.929 . S
C758 C759 1.377 . S
C758 C760 1.384 . S
C759 C758 1.377 . S
C759 C765 1.390 . S
C760 H751 0.930 . S
C760 C758 1.384 . S
C760 C761 1.372 . S
C761 C760 1.372 . S
C761 C762 1.400 . S
C761 C766 1.490 . S
C762 H752 0.930 . S
C762 C761 1.400 . S
C762 C765 1.386 . S
H763 C779 0.930 . S
H764 C780 0.931 . S
C765 H753 0.929 . S
C765 C759 1.390 . S
C765 C762 1.386 . S
C766 C761 1.490 . S
C766 C768 1.395 . S
C766 C769 1.403 . S
H767 C773 0.930 . S
C768 H754 0.930 . S
C768 C766 1.395 . S
C768 C771 1.403 . S
C769 C766 1.403 . S
C769 C770 1.524 . S
C769 C773 1.400 . S
C770 H755 0.960 . S
C770 H756 0.960 . S
C770 H757 0.960 . S
C770 C769 1.524 . S
C771 C768 1.403 . S
C771 C772 1.392 . S
C771 C775 1.495 . S
C772 C771 1.392 . S
C772 C773 1.385 . S
C772 C774 1.478 . S
C773 H767 0.930 . S
C773 C769 1.400 . S
C773 C772 1.385 . S
C774 C772 1.478 . S
C774 C776 1.381 . S
C774 C780 1.383 . S
C775 C771 1.495 . S
C775 H781 0.959 . S
C775 H782 0.961 . S
C775 H783 0.960 . S
C776 C774 1.381 . S
C776 C777 1.394 . S
C776 H784 0.930 . S
C777 C776 1.394 . S
C777 C778 1.383 . S
C777 H785 0.929 . S
C778 C777 1.383 . S
C778 C779 1.377 . S
C779 H763 0.930 . S
C779 C778 1.377 . S
C779 C780 1.379 . S
C780 H764 0.931 . S
C780 C774 1.383 . S
C780 C779 1.379 . S
H781 C775 0.959 . S
H782 C775 0.961 . S
H783 C775 0.960 . S
H784 C776 0.930 . S
H785 C777 0.929 . S
H786 C794 0.929 1_655 S
H787 C796 0.930 1_655 S
H788 C798 0.930 . S
H789 C801 0.929 . S
H790 C804 0.930 . S
H791 C806 0.960 . S
H792 C806 0.960 . S
H793 C806 0.960 1_455 S
C794 H786 0.929 1_455 S
C794 C795 1.377 . S
C794 C796 1.384 . S
C795 C794 1.377 . S
C795 C801 1.390 . S
C796 H787 0.930 1_455 S
C796 C794 1.384 . S
C796 C797 1.372 . S
C797 C796 1.372 . S
C797 C798 1.400 . S
C797 C802 1.490 . S
C798 H788 0.930 . S
C798 C797 1.400 . S
C798 C801 1.386 . S
H799 C815 0.930 . S
H800 C816 0.931 . S
C801 H789 0.929 . S
C801 C795 1.390 . S
C801 C798 1.386 . S
C802 C797 1.490 . S
C802 C804 1.395 . S
C802 C805 1.403 . S
H803 C809 0.930 . S
C804 H790 0.930 . S
C804 C802 1.395 . S
C804 C807 1.403 . S
C805 C802 1.403 . S
C805 C806 1.524 1_455 S
C805 C809 1.400 . S
C806 H791 0.960 . S
C806 H792 0.960 . S
C806 H793 0.960 1_655 S
C806 C805 1.524 1_655 S
C807 C804 1.403 . S
C807 C808 1.392 . S
C807 C811 1.495 . S
C808 C807 1.392 . S
C808 C809 1.385 . S
C808 C810 1.478 . S
C809 H803 0.930 . S
C809 C805 1.400 . S
C809 C808 1.385 . S
C810 C808 1.478 . S
C810 C812 1.381 . S
C810 C816 1.383 . S
C811 C807 1.495 . S
C811 H817 0.959 . S
C811 H818 0.961 . S
C811 H819 0.960 . S
C812 C810 1.381 . S
C812 C813 1.394 1_554 S
C812 H820 0.930 1_455 S
C813 C812 1.394 1_556 S
C813 C814 1.383 . S
C813 H821 0.929 1_455 S
C814 C813 1.383 . S
C814 C815 1.377 . S
C815 H799 0.930 . S
C815 C814 1.377 . S
C815 C816 1.379 1_556 S
C816 H800 0.931 . S
C816 C810 1.383 . S
C816 C815 1.379 1_554 S
H817 C811 0.959 . S
H818 C811 0.961 . S
H819 C811 0.960 . S
H820 C812 0.930 1_655 S
H821 C813 0.929 1_655 S
H822 C830 0.929 . S
H823 C832 0.930 . S
H824 C834 0.930 . S
H825 C837 0.929 . S
H826 C840 0.930 1_565 S
H827 C842 0.960 . S
H828 C842 0.960 . S
H829 C842 0.960 . S
C830 H822 0.929 . S
C830 C831 1.377 . S
C830 C832 1.384 . S
C831 C830 1.377 . S
C831 C837 1.390 . S
C832 H823 0.930 . S
C832 C830 1.384 . S
C832 C833 1.372 . S
C833 C832 1.372 . S
C833 C834 1.400 . S
C833 C838 1.490 . S
C834 H824 0.930 . S
C834 C833 1.400 . S
C834 C837 1.386 . S
H835 C851 0.930 . S
H836 C852 0.931 . S
C837 H825 0.929 . S
C837 C831 1.390 . S
C837 C834 1.386 . S
C838 C833 1.490 . S
C838 C840 1.395 . S
C838 C841 1.403 . S
H839 C845 0.930 . S
C840 H826 0.930 1_545 S
C840 C838 1.395 . S
C840 C843 1.403 1_545 S
C841 C838 1.403 . S
C841 C842 1.524 . S
C841 C845 1.400 . S
C842 H827 0.960 . S
C842 H828 0.960 . S
C842 H829 0.960 . S
C842 C841 1.524 . S
C843 C840 1.403 1_565 S
C843 C844 1.392 1_565 S
C843 C847 1.495 . S
C844 C843 1.392 1_545 S
C844 C845 1.385 . S
C844 C846 1.478 . S
C845 H839 0.930 . S
C845 C841 1.400 . S
C845 C844 1.385 . S
C846 C844 1.478 . S
C846 C848 1.381 . S
C846 C852 1.383 . S
C847 C843 1.495 . S
C847 H853 0.959 . S
C847 H854 0.961 . S
C847 H855 0.960 . S
C848 C846 1.381 . S
C848 C849 1.394 . S
C848 H856 0.930 . S
C849 C848 1.394 . S
C849 C850 1.383 . S
C849 H857 0.929 . S
C850 C849 1.383 . S
C850 C851 1.377 . S
C851 H835 0.930 . S
C851 C850 1.377 . S
C851 C852 1.379 . S
C852 H836 0.931 . S
C852 C846 1.383 . S
C852 C851 1.379 . S
H853 C847 0.959 . S
H854 C847 0.961 . S
H855 C847 0.960 . S
H856 C848 0.930 . S
H857 C849 0.929 . S
H858 C866 0.929 . S
H859 C868 0.930 . S
H860 C870 0.930 . S
H861 C873 0.929 . S
H862 C876 0.930 . S
H863 C878 0.960 . S
H864 C878 0.960 . S
H865 C878 0.960 . S
C866 H858 0.929 . S
C866 C867 1.377 . S
C866 C868 1.384 . S
C867 C866 1.377 . S
C867 C873 1.390 . S
C868 H859 0.930 . S
C868 C866 1.384 . S
C868 C869 1.372 . S
C869 C868 1.372 . S
C869 C870 1.400 . S
C869 C874 1.490 . S
C870 H860 0.930 . S
C870 C869 1.400 . S
C870 C873 1.386 . S
H871 C887 0.930 . S
H872 C888 0.931 . S
C873 H861 0.929 . S
C873 C867 1.390 . S
C873 C870 1.386 . S
C874 C869 1.490 . S
C874 C876 1.395 . S
C874 C877 1.403 . S
H875 C881 0.930 . S
C876 H862 0.930 . S
C876 C874 1.395 . S
C876 C879 1.403 . S
C877 C874 1.403 . S
C877 C878 1.524 . S
C877 C881 1.400 . S
C878 H863 0.960 . S
C878 H864 0.960 . S
C878 H865 0.960 . S
C878 C877 1.524 . S
C879 C876 1.403 . S
C879 C880 1.392 . S
C879 C883 1.495 . S
C880 C879 1.392 . S
C880 C881 1.385 . S
C880 C882 1.478 . S
C881 H875 0.930 . S
C881 C877 1.400 . S
C881 C880 1.385 . S
C882 C880 1.478 . S
C882 C884 1.381 . S
C882 C888 1.383 . S
C883 C879 1.495 . S
C883 H889 0.959 . S
C883 H890 0.961 . S
C883 H891 0.960 . S
C884 C882 1.381 . S
C884 C885 1.394 . S
C884 H892 0.930 . S
C885 C884 1.394 . S
C885 C886 1.383 . S
C885 H893 0.929 . S
C886 C885 1.383 . S
C886 C887 1.377 . S
C887 H871 0.930 . S
C887 C886 1.377 . S
C887 C888 1.379 . S
C888 H872 0.931 . S
C888 C882 1.383 . S
C888 C887 1.379 . S
H889 C883 0.959 . S
H890 C883 0.961 . S
H891 C883 0.960 . S
H892 C884 0.930 . S
H893 C885 0.929 . S
H894 C902 0.929 . S
H895 C904 0.930 . S
H896 C906 0.930 1_565 S
H897 C909 0.929 1_565 S
H898 C912 0.930 . S
H899 C914 0.950 1_565 S
H900 C914 0.967 . S
H901 C914 0.952 1_565 S
C902 H894 0.929 . S
C902 C903 1.377 . S
C902 C904 1.384 . S
C903 C902 1.377 . S
C903 C909 1.390 . S
C904 H895 0.930 . S
C904 C902 1.384 . S
C904 C905 1.372 . S
C905 C904 1.372 . S
C905 C906 1.400 . S
C905 C910 1.490 . S
C906 H896 0.930 1_545 S
C906 C905 1.400 . S
C906 C909 1.386 . S
H907 C923 0.930 . S
H908 C924 0.931 . S
C909 H897 0.929 1_545 S
C909 C903 1.390 . S
C909 C906 1.386 . S
C910 C905 1.490 . S
C910 C912 1.395 . S
C910 C913 1.403 . S
H911 C917 0.918 1_565 S
C912 H898 0.930 . S
C912 C910 1.395 . S
C912 C915 1.403 . S
C913 C910 1.403 . S
C913 C914 1.535 . S
C913 C917 1.400 . S
C914 H899 0.950 1_545 S
C914 H900 0.967 . S
C914 H901 0.952 1_545 S
C914 C913 1.535 . S
C915 C912 1.403 . S
C915 C916 1.392 . S
C915 C919 1.495 . S
C916 C915 1.392 . S
C916 C917 1.385 . S
C916 C918 1.478 . S
C917 H911 0.918 1_545 S
C917 C913 1.400 . S
C917 C916 1.385 . S
C918 C916 1.478 . S
C918 C920 1.381 . S
C918 C924 1.383 1_545 S
C919 C915 1.495 . S
C919 H925 0.959 . S
C919 H926 0.961 . S
C919 H927 0.960 . S
C920 C918 1.381 . S
C920 C921 1.394 . S
C920 H928 0.930 . S
C921 C920 1.394 . S
C921 C922 1.383 . S
C921 H929 0.929 . S
C922 C921 1.383 . S
C922 C923 1.377 1_545 S
C923 H907 0.930 . S
C923 C922 1.377 1_565 S
C923 C924 1.379 . S
C924 H908 0.931 . S
C924 C918 1.383 1_565 S
C924 C923 1.379 . S
H925 C919 0.959 . S
H926 C919 0.961 . S
H927 C919 0.960 . S
H928 C920 0.930 . S
H929 C921 0.929 . S
H930 C938 0.929 . S
H931 C940 0.930 . S
H932 C942 0.930 . S
H933 C945 0.929 . S
H934 C948 0.930 . S
H935 C950 0.960 . S
H936 C950 0.960 . S
H937 C950 0.960 . S
C938 H930 0.929 . S
C938 C939 1.377 . S
C938 C940 1.384 . S
C939 C938 1.377 . S
C939 C945 1.390 . S
C940 H931 0.930 . S
C940 C938 1.384 . S
C940 C941 1.372 . S
C941 C940 1.372 . S
C941 C942 1.400 . S
C941 C946 1.490 . S
C942 H932 0.930 . S
C942 C941 1.400 . S
C942 C945 1.386 . S
H943 C959 0.930 . S
H944 C960 0.931 . S
C945 H933 0.929 . S
C945 C939 1.390 . S
C945 C942 1.386 . S
C946 C941 1.490 . S
C946 C948 1.395 . S
C946 C949 1.403 . S
H947 C953 0.930 . S
C948 H934 0.930 . S
C948 C946 1.395 . S
C948 C951 1.403 . S
C949 C946 1.403 . S
C949 C950 1.524 . S
C949 C953 1.400 . S
C950 H935 0.960 . S
C950 H936 0.960 . S
C950 H937 0.960 . S
C950 C949 1.524 . S
C951 C948 1.403 . S
C951 C952 1.392 . S
C951 C955 1.495 . S
C952 C951 1.392 . S
C952 C953 1.385 . S
C952 C954 1.478 . S
C953 H947 0.930 . S
C953 C949 1.400 . S
C953 C952 1.385 . S
C954 C952 1.478 . S
C954 C956 1.381 . S
C954 C960 1.383 . S
C955 C951 1.495 . S
C955 H961 0.959 . S
C955 H962 0.961 . S
C955 H963 0.960 . S
C956 C954 1.381 . S
C956 C957 1.394 1_556 S
C956 H964 0.930 . S
C957 C956 1.394 1_554 S
C957 C958 1.383 . S
C957 H965 0.929 . S
C958 C957 1.383 . S
C958 C959 1.377 . S
C959 H943 0.930 . S
C959 C958 1.377 . S
C959 C960 1.379 1_554 S
C960 H944 0.931 . S
C960 C954 1.383 . S
C960 C959 1.379 1_556 S
H961 C955 0.959 . S
H962 C955 0.961 . S
H963 C955 0.960 . S
H964 C956 0.930 . S
H965 C957 0.929 . S
H966 C974 0.929 1_655 S
H967 C976 0.930 . S
H968 C978 0.930 . S
H969 C981 0.929 . S
H970 C984 0.930 . S
H971 C986 0.960 . S
H972 C986 0.960 . S
H973 C986 0.960 1_455 S
C974 H966 0.929 1_455 S
C974 C975 1.377 . S
C974 C976 1.384 1_455 S
C975 C974 1.377 . S
C975 C981 1.390 . S
C976 H967 0.930 . S
C976 C974 1.384 1_655 S
C976 C977 1.372 1_655 S
C977 C976 1.372 1_455 S
C977 C978 1.400 . S
C977 C982 1.490 . S
C978 H968 0.930 . S
C978 C977 1.400 . S
C978 C981 1.386 . S
H979 C995 0.930 . S
H980 C996 0.931 . S
C981 H969 0.929 . S
C981 C975 1.390 . S
C981 C978 1.386 . S
C982 C977 1.490 . S
C982 C984 1.395 . S
C982 C985 1.403 . S
H983 C989 0.930 . S
C984 H970 0.930 . S
C984 C982 1.395 . S
C984 C987 1.403 . S
C985 C982 1.403 . S
C985 C986 1.524 1_455 S
C985 C989 1.400 . S
C986 H971 0.960 . S
C986 H972 0.960 . S
C986 H973 0.960 1_655 S
C986 C985 1.524 1_655 S
C987 C984 1.403 . S
C987 C988 1.392 . S
C987 C991 1.495 . S
C988 C987 1.392 . S
C988 C989 1.385 . S
C988 C990 1.478 . S
C989 H983 0.930 . S
C989 C985 1.400 . S
C989 C988 1.385 . S
C990 C988 1.478 . S
C990 C992 1.381 1_455 S
C990 C996 1.383 . S
C991 C987 1.495 . S
C991 H997 0.959 . S
C991 H998 0.961 . S
C991 H999 0.960 . S
C992 C990 1.381 1_655 S
C992 C993 1.394 . S
C992 H1000 0.930 . S
C993 C992 1.394 . S
C993 C994 1.383 1_655 S
C993 H1001 0.929 . S
C994 C993 1.383 1_455 S
C994 C995 1.377 . S
C995 H979 0.930 . S
C995 C994 1.377 . S
C995 C996 1.379 . S
C996 H980 0.931 . S
C996 C990 1.383 . S
C996 C995 1.379 . S
H997 C991 0.959 . S
H998 C991 0.961 . S
H999 C991 0.960 . S
H1000 C992 0.930 . S
H1001 C993 0.929 . S
C363 C9 0.413 . S
C382 C331 0.409 . S
C399 C49 0.249 . S
C418 C258 0.306 . S
C435 C89 0.262 . S
C454 C297 0.294 . S
C471 C26 0.329 . S
C490 C336 0.308 . S
C526 C253 0.367 . S
C507 C66 0.401 . S
C562 C292 0.288 . S
C543 C106 0.402 . S
C579 C43 2.882 . S
C598 C180 2.847 . S
C615 C83 3.051 . S
C634 C214 2.987 . S
C651 C22 3.104 . S
C670 C136 3.045 . S
C706 C175 3.038 . S
C687 C62 3.092 . S
C742 C219 2.874 . S
C723 C102 2.917 . S
C759 C3 2.870 . S
C778 C141 2.842 . S
C814 C199 1.771 . S
C795 C15 1.714 . S
C831 C55 1.735 . S
C850 C121 1.772 . S
C867 C95 1.729 . S
C886 C160 1.766 . S
C922 C277 1.101 . S
C903 C42 1.080 . S
C958 C316 1.111 . S
C939 C82 1.091 . S
C975 C2 1.087 . S
C994 C238 1.093 . S
