# Generated by pormake.
# Topology pyr, (3,6)-cn, num edge types: 1
# Building blocks:
#     Node 0, Type 0, BuildingBlock: BETDAH_clean_linker_0, # of connection points: 3
#     Node 1, Type 0, BuildingBlock: BETDAH_clean_linker_0, # of connection points: 3
#     Node 2, Type 0, BuildingBlock: BETDAH_clean_linker_0, # of connection points: 3
#     Node 3, Type 0, BuildingBlock: BETDAH_clean_linker_0, # of connection points: 3
#     Node 4, Type 0, BuildingBlock: BETDAH_clean_linker_0, # of connection points: 3
#     Node 5, Type 0, BuildingBlock: BETDAH_clean_linker_0, # of connection points: 3
#     Node 6, Type 0, BuildingBlock: BETDAH_clean_linker_0, # of connection points: 3
#     Node 7, Type 0, BuildingBlock: BETDAH_clean_linker_0, # of connection points: 3
#     Node 8, Type 1, BuildingBlock: BETDIP_clean_sbu_0, # of connection points: 6
#     Node 9, Type 1, BuildingBlock: BETDIP_clean_sbu_0, # of connection points: 6
#     Node 10, Type 1, BuildingBlock: BETDIP_clean_sbu_0, # of connection points: 6
#     Node 11, Type 1, BuildingBlock: BETDIP_clean_sbu_0, # of connection points: 6
#     Edge 12, Type (0, 1), BuildingBlock: TEMPAE_clean_linker_10, # of connection points: 2
#     Edge 13, Type (0, 1), BuildingBlock: TEMPAE_clean_linker_10, # of connection points: 2
#     Edge 14, Type (0, 1), BuildingBlock: TEMPAE_clean_linker_10, # of connection points: 2
#     Edge 15, Type (0, 1), BuildingBlock: TEMPAE_clean_linker_10, # of connection points: 2
#     Edge 16, Type (0, 1), BuildingBlock: TEMPAE_clean_linker_10, # of connection points: 2
#     Edge 17, Type (0, 1), BuildingBlock: TEMPAE_clean_linker_10, # of connection points: 2
#     Edge 18, Type (0, 1), BuildingBlock: TEMPAE_clean_linker_10, # of connection points: 2
#     Edge 19, Type (0, 1), BuildingBlock: TEMPAE_clean_linker_10, # of connection points: 2
#     Edge 20, Type (0, 1), BuildingBlock: TEMPAE_clean_linker_10, # of connection points: 2
#     Edge 21, Type (0, 1), BuildingBlock: TEMPAE_clean_linker_10, # of connection points: 2
#     Edge 22, Type (0, 1), BuildingBlock: TEMPAE_clean_linker_10, # of connection points: 2
#     Edge 23, Type (0, 1), BuildingBlock: TEMPAE_clean_linker_10, # of connection points: 2
#     Edge 24, Type (0, 1), BuildingBlock: TEMPAE_clean_linker_10, # of connection points: 2
#     Edge 25, Type (0, 1), BuildingBlock: TEMPAE_clean_linker_10, # of connection points: 2
#     Edge 26, Type (0, 1), BuildingBlock: TEMPAE_clean_linker_10, # of connection points: 2
#     Edge 27, Type (0, 1), BuildingBlock: TEMPAE_clean_linker_10, # of connection points: 2
#     Edge 28, Type (0, 1), BuildingBlock: TEMPAE_clean_linker_10, # of connection points: 2
#     Edge 29, Type (0, 1), BuildingBlock: TEMPAE_clean_linker_10, # of connection points: 2
#     Edge 30, Type (0, 1), BuildingBlock: TEMPAE_clean_linker_10, # of connection points: 2
#     Edge 31, Type (0, 1), BuildingBlock: TEMPAE_clean_linker_10, # of connection points: 2
#     Edge 32, Type (0, 1), BuildingBlock: TEMPAE_clean_linker_10, # of connection points: 2
#     Edge 33, Type (0, 1), BuildingBlock: TEMPAE_clean_linker_10, # of connection points: 2
#     Edge 34, Type (0, 1), BuildingBlock: TEMPAE_clean_linker_10, # of connection points: 2
#     Edge 35, Type (0, 1), BuildingBlock: TEMPAE_clean_linker_10, # of connection points: 2
# Relax obj value: 0.148
# Max RMSD: 0.219
# Mean RMSD: 0.134
data_MOF--net-pyr--node1-BETDIP_clean_sbu_0--node2-BETDAH_clean_linker_0--edge1-TEMPAE_clean_linker_10
_symmetry_space_group_name_H-M    P1
_symmetry_Int_Tables_number       1
_symmetry_cell_setting            triclinic
loop_
_symmetry_equiv_pos_as_xyz
'x, y, z'
_cell_length_a     34.732979
_cell_length_b     39.789832
_cell_length_c     40.06878
_cell_angle_alpha  88.805327
_cell_angle_beta   93.690739
_cell_angle_gamma 110.35081
loop_
_atom_site_label
_atom_site_type_symbol
_atom_site_fract_x
_atom_site_fract_y
_atom_site_fract_z
_atom_type_partial_charge
H0 H 0.41009 0.24583 0.28481 0.0
H1 H 0.4615 0.3296 0.21362 0.0
H2 H 0.37579 0.33984 0.28182 0.0
C3 C 0.41355 0.27207 0.27454 0.0
C4 C 0.39115 0.29179 0.28729 0.0
C5 C 0.43846 0.28505 0.24752 0.0
C6 C 0.44198 0.31884 0.23415 0.0
C7 C 0.41891 0.33825 0.24589 0.0
C8 C 0.39326 0.3246 0.27237 0.0
N9 N 0.42151 0.37112 0.23015 0.0
C10 C 0.38762 0.38186 0.22508 0.0
H11 H 0.24544 0.76981 0.77318 0.0
H12 H 0.14358 0.808 0.76353 0.0
H13 H 0.15401 0.73317 0.69195 0.0
C14 C 0.21723 0.7701 0.76013 0.0
C15 C 0.20276 0.7496 0.73093 0.0
C16 C 0.19634 0.79144 0.77215 0.0
C17 C 0.15967 0.7912 0.75496 0.0
C18 C 0.14409 0.76975 0.7263 0.0
C19 C 0.16533 0.74856 0.71477 0.0
N20 N 0.10826 0.77044 0.70769 0.0
C21 C 0.09852 0.80142 0.70435 0.0
H22 H 0.70781 0.37757 0.95176 0.0
H23 H 0.71073 0.4477 0.86809 0.0
H24 H 0.61782 0.34288 0.86889 0.0
C25 C 0.69505 0.38203 0.9274 0.0
C26 C 0.66011 0.35537 0.91277 0.0
C27 C 0.71415 0.4149 0.91128 0.0
C28 C 0.69641 0.42242 0.88058 0.0
C29 C 0.66103 0.39629 0.8656 0.0
C30 C 0.64388 0.36301 0.88154 0.0
N31 N 0.64197 0.40109 0.8341 0.0
C32 C 0.65012 0.43202 0.81456 0.0
H33 H 0.85697 0.76511 0.44659 0.0
H34 H 0.94175 0.8054 0.36972 0.0
H35 H 0.85519 0.69716 0.36346 0.0
C36 C 0.86937 0.76099 0.42348 0.0
C37 C 0.8525 0.72763 0.40707 0.0
C38 C 0.90156 0.78923 0.41042 0.0
C39 C 0.91725 0.78363 0.38038 0.0
C40 C 0.90117 0.75061 0.36325 0.0
C41 C 0.86841 0.72247 0.37663 0.0
N42 N 0.91753 0.74849 0.33184 0.0
C43 C 0.91585 0.71828 0.31365 0.0
H44 H 0.75331 0.81518 0.88013 0.0
H45 H 0.65556 0.76192 0.94413 0.0
H46 H 0.63738 0.83189 0.86622 0.0
C47 C 0.72218 0.80986 0.88736 0.0
C48 C 0.69693 0.82571 0.86937 0.0
C49 C 0.70775 0.78708 0.91447 0.0
C50 C 0.66719 0.77958 0.9233 0.0
C51 C 0.64219 0.79642 0.90654 0.0
C52 C 0.65716 0.81964 0.87968 0.0
N53 N 0.60213 0.78976 0.91719 0.0
C54 C 0.58732 0.81746 0.92162 0.0
H55 H 0.92044 0.27469 0.35217 0.0
H56 H 0.94289 0.32931 0.44713 0.0
H57 H 0.87177 0.35831 0.36779 0.0
C58 C 0.91743 0.2951 0.36821 0.0
C59 C 0.8944 0.3161 0.35608 0.0
C60 C 0.93448 0.29883 0.4013 0.0
C61 C 0.93074 0.32601 0.42135 0.0
C62 C 0.90835 0.34744 0.40944 0.0
C63 C 0.88968 0.34212 0.37692 0.0
N64 N 0.9039 0.37326 0.43119 0.0
C65 C 0.86793 0.38099 0.43137 0.0
H66 H 0.36361 0.77819 0.19977 0.0
H67 H 0.37469 0.70086 0.27369 0.0
H68 H 0.47188 0.80313 0.26584 0.0
C69 C 0.38053 0.77067 0.22054 0.0
C70 C 0.41939 0.79471 0.23114 0.0
C71 C 0.3641 0.73654 0.23532 0.0
C72 C 0.38704 0.72687 0.26196 0.0
C73 C 0.4259 0.75124 0.27336 0.0
C74 C 0.44185 0.78462 0.25737 0.0
N75 N 0.45064 0.7439 0.30042 0.0
C76 C 0.44126 0.71438 0.32192 0.0
H77 H 0.21102 0.37785 0.70261 0.0
H78 H 0.21565 0.44996 0.78313 0.0
H79 H 0.13162 0.34065 0.78337 0.0
C80 C 0.19978 0.38311 0.72588 0.0
C81 C 0.16911 0.35531 0.74097 0.0
C82 C 0.21657 0.41745 0.74046 0.0
C83 C 0.20233 0.42392 0.77127 0.0
C84 C 0.17117 0.39607 0.78674 0.0
C85 C 0.15494 0.36215 0.77124 0.0
N86 N 0.15684 0.39931 0.81878 0.0
C87 C 0.15812 0.42994 0.83608 0.0
Tb88 Tb 0.99419 0.05928 0.59333 0.0
Tb89 Tb 0.07614 0.08054 0.5667 0.0
C90 C 0.91866 0.037 0.60374 0.0
C91 C 0.8931 1.01557 0.6297 0.0
C92 C 0.90927 0.99714 0.6537 0.0
C93 C 0.88514 0.97803 0.67912 0.0
C94 C 0.84448 0.9772 0.68107 0.0
C95 C 0.8284 0.99557 0.65676 0.0
C96 C 0.85257 1.01462 0.6313 0.0
C97 C 0.05111 0.11213 0.62682 0.0
C98 C 0.05329 0.02431 0.6268 0.0
C99 C 0.15119 0.1045 0.5554 0.0
C100 C 0.17515 0.12733 0.52917 0.0
C101 C 0.1664 0.15733 0.51662 0.0
C102 C 0.18817 0.17742 0.49044 0.0
C103 C 0.21855 0.16752 0.4761 0.0
C104 C 0.22732 0.13762 0.48886 0.0
C105 C 0.20589 0.1178 0.51523 0.0
C106 C 0.0191 0.02799 0.53281 0.0
C107 C 0.0166 0.11408 0.53222 0.0
O108 O 0.93561 1.02019 0.58495 0.0
O109 O 0.94442 0.06831 0.61348 0.0
O110 O 0.04659 0.1079 0.59551 0.0
O111 O 0.02246 0.08626 0.64043 0.0
O112 O 1.01434 0.02105 0.62146 0.0
O113 O 0.08265 0.04877 0.61097 0.0
O114 O 0.13443 0.11973 0.576 0.0
O115 O 0.12614 0.073 0.5454 0.0
O116 O 0.02362 0.03197 0.56416 0.0
O117 O 0.04803 0.05381 0.51946 0.0
O118 O 0.05569 0.11804 0.53771 0.0
O119 O 0.9875 0.08992 0.54845 0.0
H120 H 0.94059 0.9977 0.65288 0.0
H121 H 0.89826 0.96373 0.69713 0.0
H122 H 0.7974 0.99578 0.65776 0.0
H123 H 0.83976 0.02896 0.61307 0.0
H124 H 0.14243 0.16497 0.5267 0.0
H125 H 0.18061 0.20018 0.48088 0.0
H126 H 0.25087 0.12963 0.47848 0.0
H127 H 0.21295 0.09467 0.52446 0.0
Tb128 Tb 0.57768 0.08744 0.07233 0.0
Tb129 Tb 0.48173 0.05698 0.05829 0.0
C130 C 0.64974 0.13119 0.07293 0.0
C131 C 0.67775 0.15532 0.09852 0.0
C132 C 0.66882 0.18417 0.11161 0.0
C133 C 0.69463 0.20574 0.13687 0.0
C134 C 0.72971 0.19881 0.14965 0.0
C135 C 0.73909 0.17048 0.13611 0.0
C136 C 0.71345 0.14905 0.11066 0.0
C137 C 0.54146 0.03281 0.11279 0.0
C138 C 0.51851 0.11045 0.11732 0.0
C139 C 0.4076 1.01857 0.04782 0.0
C140 C 0.38439 0.99353 1.0212 0.0
C141 C 0.34951 0.96423 1.02863 0.0
C142 C 0.32623 0.94117 1.00314 0.0
C143 C 0.33737 0.94744 0.96987 0.0
C144 C 0.37283 0.97636 0.96264 0.0
C145 C 0.39634 0.99908 0.98813 0.0
C146 C 0.52273 0.11827 1.02982 0.0
C147 C 0.54004 0.02679 1.01799 0.0
O148 O 0.61739 0.13913 0.06233 0.0
O149 O 0.64104 0.09665 0.07789 0.0
O150 O 0.5263 0.04808 0.09079 0.0
O151 O 0.58088 0.05014 0.114 0.0
O152 O 0.5552 0.11921 0.10481 0.0
O153 O 0.48648 0.0826 0.10635 0.0
O154 O 0.43378 1.00854 0.06679 0.0
O155 O 0.4228 0.05227 0.03896 0.0
O156 O 0.53399 0.09148 0.03374 0.0
O157 O 0.48635 0.11071 0.04073 0.0
O158 O 0.50229 0.02475 1.02464 0.0
O159 O 0.5738 0.05102 1.03171 0.0
H160 H 0.64156 0.18984 0.1028 0.0
H161 H 0.68649 0.22721 0.14708 0.0
H162 H 0.76621 0.16482 0.14531 0.0
H163 H 0.72119 0.12721 0.10081 0.0
H164 H 0.34004 0.95947 0.05406 0.0
H165 H 0.29902 0.91897 1.00925 0.0
H166 H 0.38237 0.98134 0.93724 0.0
H167 H 0.42355 0.02125 0.98193 0.0
Tb168 Tb 0.5398 0.60688 0.58517 0.0
Tb169 Tb 0.52817 0.53002 0.55945 0.0
C170 C 0.52536 0.66165 0.6008 0.0
C171 C 0.4874 0.66594 0.61113 0.0
C172 C 0.44946 0.64938 0.59321 0.0
C173 C 0.41324 0.65138 0.60481 0.0
C174 C 0.41428 0.66953 0.6347 0.0
C175 C 0.45222 0.68608 0.65254 0.0
C176 C 0.48847 0.68439 0.64078 0.0
C177 C 0.57809 0.57025 0.62122 0.0
C178 C 0.45903 0.53867 0.60185 0.0
C179 C 0.54417 0.47361 0.55543 0.0
C180 C 0.57376 0.46397 0.53635 0.0
C181 C 0.61398 0.48836 0.53379 0.0
C182 C 0.64288 0.47867 0.51767 0.0
C183 C 0.63236 0.44428 0.50386 0.0
C184 C 0.59176 0.4202 0.50537 0.0
C185 C 0.56266 0.42999 0.5216 0.0
C186 C 0.4982 0.56615 0.51406 0.0
C187 C 0.60338 0.59945 0.53652 0.0
O188 O 0.52511 0.6518 0.56974 0.0
O189 O 0.54175 0.64421 0.62199 0.0
O190 O 0.54296 0.55816 0.60612 0.0
O191 O 0.59266 0.60483 0.61719 0.0
O192 O 0.47788 0.57403 0.60028 0.0
O193 O 0.47408 0.51573 0.58882 0.0
O194 O 0.56077 0.49805 0.57859 0.0
O195 O 0.51319 0.47868 0.53823 0.0
O196 O 0.51566 0.57557 0.54251 0.0
O197 O 0.49571 0.53305 0.51042 0.0
O198 O 0.58772 0.56409 0.54077 0.0
O199 O 0.58752 0.62173 0.5496 0.0
H200 H 0.4476 0.63439 0.57053 0.0
H201 H 0.38433 0.63824 0.59074 0.0
H202 H 0.45388 0.70065 0.67544 0.0
H203 H 0.51732 0.69706 0.6551 0.0
H204 H 0.62353 0.51474 0.54496 0.0
H205 H 0.67376 0.49796 0.51646 0.0
H206 H 0.58292 0.39344 0.49504 0.0
H207 H 0.53181 0.41079 0.52328 0.0
Tb208 Tb 0.04106 0.60585 0.05506 0.0
Tb209 Tb 0.03372 0.5414 0.09602 0.0
C210 C 0.02722 0.65437 1.02046 0.0
C211 C 0.99367 0.6687 1.01604 0.0
C212 C 0.95677 0.65272 1.0319 0.0
C213 C 0.92357 0.66447 1.02479 0.0
C214 C 0.92677 0.69209 1.0015 0.0
C215 C 0.96422 0.70857 0.98642 0.0
C216 C 0.99738 0.69694 0.99365 0.0
C217 C 0.10954 0.60971 0.09074 0.0
C218 C 0.99938 0.59635 0.12548 0.0
C219 C 0.04614 0.49233 0.13081 0.0
C220 C 0.07889 0.47711 0.136 0.0
C221 C 0.11747 0.49401 0.12298 0.0
C222 C 0.14976 0.4814 0.13121 0.0
C223 C 0.14393 0.45182 0.15268 0.0
C224 C 0.10479 0.43438 0.16476 0.0
C225 C 0.07256 0.44697 0.15648 0.0
C226 C 0.96543 0.53811 0.06016 0.0
C227 C 0.07557 0.55095 1.02564 0.0
O228 O 0.01795 0.62136 1.01025 0.0
O229 O 0.04825 0.6603 0.04934 0.0
O230 O 0.07323 0.59602 0.09964 0.0
O231 O 0.1083 0.62418 0.0616 0.0
O232 O 1.002 0.61054 0.09505 0.0
O233 O 1.01366 0.5702 0.13277 0.0
O234 O 0.05596 0.52541 0.14096 0.0
O235 O 0.02579 0.48676 0.10163 0.0
O236 O 1.00182 0.55133 0.05152 0.0
O237 O 0.96631 0.52355 0.08929 0.0
O238 O 0.07292 0.53667 0.05607 0.0
O239 O 0.06136 0.57716 1.01839 0.0
H240 H 0.95326 0.63055 0.04899 0.0
H241 H 0.895 0.65116 0.03659 0.0
H242 H 0.9677 0.73023 0.96871 0.0
H243 H 0.02563 0.70945 0.98115 0.0
H244 H 0.12293 0.51754 0.10732 0.0
H245 H 0.17964 0.49559 0.12177 0.0
H246 H 0.09924 0.41125 0.18095 0.0
H247 H 0.04294 0.4337 0.16676 0.0
C248 C 0.32378 0.27531 0.31407 0.0
C249 C 0.36499 0.2774 0.31573 0.0
C250 C 0.29809 0.2593 0.33997 0.0
C251 C 0.31425 0.24554 0.36827 0.0
C252 C 0.35622 0.24872 0.3705 0.0
C253 C 0.381 0.26442 0.34411 0.0
C254 C 0.2534 0.25604 0.33653 0.0
C255 C 0.37477 0.23482 0.40045 0.0
C256 C 0.2586 0.22539 0.44898 0.0
C257 C 0.24088 0.18792 0.44764 0.0
C258 C 0.28186 0.2447 0.42295 0.0
C259 C 0.287 0.22605 0.39482 0.0
C260 C 0.26796 0.18832 0.39288 0.0
C261 C 0.24534 0.16971 0.41941 0.0
C262 C 0.30203 0.28486 0.42605 0.0
C263 C 0.27222 0.16751 0.3631 0.0
H264 H 0.3113 0.28512 0.29201 0.0
H265 H 0.41301 0.26641 0.34556 0.0
H266 H 0.23371 0.22732 0.33502 0.0
H267 H 0.24509 0.2674 0.35888 0.0
H268 H 0.24621 0.26991 0.31391 0.0
H269 H 0.40846 0.24135 0.39923 0.0
H270 H 0.36903 0.24634 0.4238 0.0
H271 H 0.35995 0.20528 0.40203 0.0
H272 H 0.25533 0.23949 0.47089 0.0
H273 H 0.23113 0.14077 0.41813 0.0
H274 H 0.29368 0.29822 0.40359 0.0
H275 H 0.33598 0.29216 0.42752 0.0
H276 H 0.29312 0.29554 0.44858 0.0
H277 H 0.26287 0.17869 0.33964 0.0
H278 H 0.25332 0.13859 0.36447 0.0
H279 H 0.30489 0.17001 0.36158 0.0
C280 C 0.18896 0.81954 0.82594 0.0
C281 C 0.21416 0.81504 0.80167 0.0
C282 C 0.20597 0.84115 0.85422 0.0
C283 C 0.24916 0.85819 0.85849 0.0
C284 C 0.27469 0.85396 0.834 0.0
C285 C 0.25686 0.83284 0.80575 0.0
C286 C 0.17781 0.84559 0.87962 0.0
C287 C 0.32094 0.87158 0.83771 0.0
C288 C 0.29912 0.93949 0.91412 0.0
C289 C 0.31201 0.92419 0.94254 0.0
C290 C 0.2769 0.91807 0.88714 0.0
C291 C 0.26808 0.88058 0.88847 0.0
C292 C 0.28023 0.86492 0.91747 0.0
C293 C 0.30182 0.88696 0.94435 0.0
C294 C 0.26389 0.93567 0.85686 0.0
C295 C 0.27194 0.82511 0.91956 0.0
H296 H 0.15599 0.80573 0.82311 0.0
H297 H 0.27653 0.83036 0.78673 0.0
H298 H 0.18479 0.83489 0.90415 0.0
H299 H 0.18307 0.87446 0.88322 0.0
H300 H 0.14482 0.83158 0.87202 0.0
H301 H 0.33646 0.86484 0.81678 0.0
H302 H 0.32943 0.90113 0.83878 0.0
H303 H 0.33295 0.86308 0.86151 0.0
H304 H 0.30664 0.9683 0.91297 0.0
H305 H 0.31203 0.87523 0.96631 0.0
H306 H 0.23062 0.92214 0.85013 0.0
H307 H 0.28087 0.93298 0.83514 0.0
H308 H 0.26988 0.96462 0.86102 0.0
H309 H 0.23878 0.80996 0.91395 0.0
H310 H 0.28122 0.81691 0.94459 0.0
H311 H 0.28915 0.81732 0.90054 0.0
C312 C 0.66303 0.45525 0.75707 0.0
C313 C 0.6486 0.45767 0.78846 0.0
C314 C 0.65492 0.47493 0.72949 0.0
C315 C 0.63154 0.49745 0.73331 0.0
C316 C 0.61822 0.50088 0.76543 0.0
C317 C 0.62676 0.48083 0.79256 0.0
C318 C 0.66978 0.47033 0.69589 0.0
C319 C 0.59336 0.52455 0.77085 0.0
C320 C 0.63063 0.56778 0.66663 0.0
C321 C 0.59318 0.55081 0.64834 0.0
C322 C 0.64376 0.55069 0.694 0.0
C323 C 0.61892 0.51568 0.70346 0.0
C324 C 0.58141 0.49822 0.68464 0.0
C325 C 0.56901 0.51596 0.65747 0.0
C326 C 0.68393 0.57036 0.71318 0.0
C327 C 0.55389 0.46093 0.69359 0.0
H328 H 0.67928 0.43682 0.75374 0.0
H329 H 0.61493 0.48222 0.81669 0.0
H330 H 0.643 0.45689 0.67835 0.0
H331 H 0.68673 0.49686 0.68505 0.0
H332 H 0.69019 0.4541 0.69753 0.0
H333 H 0.58791 0.5264 0.79765 0.0
H334 H 0.60932 0.55194 0.76132 0.0
H335 H 0.56315 0.51375 0.75659 0.0
H336 H 0.64946 0.59473 0.65985 0.0
H337 H 0.53985 0.50272 0.64375 0.0
H338 H 0.7043 0.55416 0.71379 0.0
H339 H 0.67813 0.57435 0.73946 0.0
H340 H 0.70036 0.59694 0.70211 0.0
H341 H 0.57124 0.4422 0.6936 0.0
H342 H 0.52635 0.45062 0.67596 0.0
H343 H 0.54349 0.46093 0.7192 0.0
C344 C 0.96534 0.7011 0.28275 0.0
C345 C 0.92436 0.69545 0.28913 0.0
C346 C 0.97535 0.6835 0.25623 0.0
C347 C 0.94359 0.6594 0.23537 0.0
C348 C 0.90199 0.65298 0.24228 0.0
C349 C 0.89286 0.67128 0.26892 0.0
C350 C 0.02007 0.6915 0.24998 0.0
C351 C 0.8671 0.62735 0.22107 0.0
C352 C 0.97289 0.64275 0.14795 0.0
C353 C 0.98171 0.61101 0.15258 0.0
C354 C 0.95947 0.65823 0.17429 0.0
C355 C 0.95428 0.64156 0.20619 0.0
C356 C 0.96181 0.60889 0.21066 0.0
C357 C 0.97553 0.59419 0.18402 0.0
C358 C 0.95212 0.69313 0.16822 0.0
C359 C 0.95637 0.58983 0.24392 0.0
H360 H 0.98977 0.72023 0.29801 0.0
H361 H 0.86113 0.66726 0.27345 0.0
H362 H 0.02709 0.66633 0.25055 0.0
H363 H 0.0265 0.70334 0.22473 0.0
H364 H 0.04112 0.71036 0.26874 0.0
H365 H 0.83661 0.62374 0.23066 0.0
H366 H 0.86763 0.63747 0.19504 0.0
H367 H 0.87085 0.60081 0.22016 0.0
H368 H 0.9775 0.65613 0.12393 0.0
H369 H 0.98196 0.5696 0.18807 0.0
H370 H 0.97452 0.71446 0.18414 0.0
H371 H 0.9209 0.69058 0.17535 0.0
H372 H 0.95525 0.70173 0.14168 0.0
H373 H 0.97911 0.60661 0.263 0.0
H374 H 0.96045 0.56341 0.24277 0.0
H375 H 0.92531 0.58569 0.2525 0.0
C376 C 0.4754 0.24067 0.25067 0.0
C377 C 0.45761 0.26196 0.23141 0.0
C378 C 0.48972 0.21614 0.23544 0.0
C379 C 0.4861 0.21288 0.20017 0.0
C380 C 0.46961 0.23524 0.18059 0.0
C381 C 0.45548 0.2594 0.19643 0.0
C382 C 0.50741 0.19289 0.25709 0.0
C383 C 0.46529 0.23263 0.14287 0.0
C384 C 0.54358 0.16705 0.15107 0.0
C385 C 0.5123 0.13441 0.1426 0.0
C386 C 0.53624 0.19222 0.17138 0.0
C387 C 0.49671 0.18453 0.18351 0.0
C388 C 0.46579 0.1508 0.1767 0.0
C389 C 0.47395 0.12615 0.15632 0.0
C390 C 0.57009 0.22781 0.17824 0.0
C391 C 0.42329 0.14149 0.18937 0.0
H392 H 0.47759 0.24283 0.2777 0.0
H393 H 0.44119 0.27529 0.18136 0.0
H394 H 0.48668 0.16452 0.25493 0.0
H395 H 0.53764 0.1943 0.24846 0.0
H396 H 0.51138 0.20086 0.28386 0.0
H397 H 0.45425 0.25348 0.13124 0.0
H398 H 0.49524 0.23537 0.13279 0.0
H399 H 0.44318 0.20589 0.13519 0.0
H400 H 0.57343 0.17367 0.14076 0.0
H401 H 0.44969 0.10089 0.15023 0.0
H402 H 0.57259 0.23492 0.20511 0.0
H403 H 0.56268 0.24913 0.16382 0.0
H404 H 0.60042 0.22772 0.17103 0.0
H405 H 0.42532 0.14669 0.21663 0.0
H406 H 0.40402 0.113 0.18457 0.0
H407 H 0.40757 0.15872 0.17684 0.0
C408 C 0.10282 0.86159 0.72214 0.0
C409 C 0.09077 0.83432 0.69812 0.0
C410 C 0.09782 0.89465 0.7152 0.0
C411 C 0.08062 0.90026 0.68346 0.0
C412 C 0.06791 0.87234 0.65936 0.0
C413 C 0.07319 0.83962 0.66705 0.0
C414 C 0.11153 0.9237 0.74151 0.0
C415 C 0.04945 0.87724 0.62522 0.0
C416 C 0.033 0.97154 0.66518 0.0
C417 C 0.06336 0.99657 0.64704 0.0
C418 C 0.03923 0.94109 0.67917 0.0
C419 C 0.07661 0.93545 0.67474 0.0
C420 C 0.10845 0.96185 0.6585 0.0
C421 C 0.10149 0.9922 0.64495 0.0
C422 C 1.00475 0.91384 0.69674 0.0
C423 C 0.1488 0.95685 0.65331 0.0
H424 H 0.11664 0.85725 0.74613 0.0
H425 H 0.06417 0.81834 0.64854 0.0
H426 H 0.13672 0.94717 0.73235 0.0
H427 H 0.08578 0.93297 0.74645 0.0
H428 H 0.12261 0.9145 0.7654 0.0
H429 H 0.04056 0.85267 0.6096 0.0
H430 H 0.02176 0.88461 0.62778 0.0
H431 H 0.07187 0.89951 0.61188 0.0
H432 H 1.00357 0.97489 0.66726 0.0
H433 H 0.12518 1.01141 0.63105 0.0
H434 H 0.01661 0.90536 0.72061 0.0
H435 H 0.99103 0.88962 0.68079 0.0
H436 H 0.98006 0.92438 0.70209 0.0
H437 H 0.16158 0.94895 0.67703 0.0
H438 H 0.17198 0.98154 0.64373 0.0
H439 H 0.1436 0.93491 0.63501 0.0
C440 C 0.75848 0.47493 0.93586 0.0
C441 C 0.75371 0.43979 0.92679 0.0
C442 C 0.79349 0.49605 0.9555 0.0
C443 C 0.82438 0.48168 0.9661 0.0
C444 C 0.82057 0.44693 0.95531 0.0
C445 C 0.7854 0.42651 0.93592 0.0
C446 C 0.79641 0.533 0.96626 0.0
C447 C 0.85274 0.43051 0.96558 0.0
C448 C 0.9319 0.53636 1.0024 0.0
C449 C 0.9284 0.52816 0.03656 0.0
C450 C 0.89773 0.5232 0.97927 0.0
C451 C 0.85913 0.50127 0.99055 0.0
C452 C 0.85506 0.49463 1.02529 0.0
C453 C 0.88968 0.50812 0.04781 0.0
C454 C 0.90353 0.53119 0.94259 0.0
C455 C 0.81457 0.47161 0.03856 0.0
H456 H 0.73399 0.48523 0.929 0.0
H457 H 0.78196 0.39945 0.92873 0.0
H458 H 0.79192 0.53287 0.99344 0.0
H459 H 0.82738 0.55273 0.96213 0.0
H460 H 0.77288 0.54205 0.95264 0.0
H461 H 0.84664 0.40429 0.9532 0.0
H462 H 0.88367 0.44886 0.95938 0.0
H463 H 0.85349 0.4264 0.99306 0.0
H464 H 0.9617 0.55195 0.99351 0.0
H465 H 0.88668 0.50194 0.0742 0.0
H466 H 0.8784 0.53962 0.93114 0.0
H467 H 0.90229 0.50653 0.92945 0.0
H468 H 0.9335 0.5525 0.93833 0.0
H469 H 0.7895 0.48097 1.02862 0.0
H470 H 0.81542 0.47181 0.06632 0.0
H471 H 0.80682 0.44354 1.03002 0.0
C472 C 0.77849 0.68655 0.4049 0.0
C473 C 0.8172 0.69963 0.42218 0.0
C474 C 0.74303 0.66675 0.42161 0.0
C475 C 0.74642 0.65972 0.45637 0.0
C476 C 0.78591 0.67089 0.47328 0.0
C477 C 0.82065 0.69075 0.45606 0.0
C478 C 0.70165 0.65531 0.40252 0.0
C479 C 0.79128 0.66378 0.51014 0.0
C480 C 0.65695 0.65176 0.5104 0.0
C481 C 0.63978 0.61463 0.5157 0.0
C482 C 0.69099 0.66653 0.4907 0.0
C483 C 0.70871 0.64379 0.47581 0.0
C484 C 0.69136 0.60626 0.48076 0.0
C485 C 0.65716 0.59218 0.5005 0.0
C486 C 0.7083 0.70668 0.48612 0.0
C487 C 0.70921 0.58097 0.46552 0.0
H488 H 0.77555 0.69369 0.37885 0.0
H489 H 0.85052 0.70083 0.46953 0.0
H490 H 0.68395 0.62675 0.40756 0.0
H491 H 0.68362 0.67137 0.41101 0.0
H492 H 0.70453 0.65903 0.37512 0.0
H493 H 0.82418 0.67092 0.5188 0.0
H494 H 0.77759 0.67975 0.5247 0.0
H495 H 0.77494 0.63512 0.51581 0.0
H496 H 0.64384 0.6695 0.52171 0.0
H497 H 0.6441 0.56348 0.50398 0.0
H498 H 0.70874 0.71337 0.4591 0.0
H499 H 0.74055 0.71727 0.49674 0.0
H500 H 0.69026 0.72062 0.49839 0.0
H501 H 0.71067 0.58528 0.43812 0.0
H502 H 0.69098 0.55241 0.47025 0.0
H503 H 0.74117 0.58654 0.47602 0.0
C504 C 0.35485 0.42732 0.21691 0.0
C505 C 0.35181 0.39139 0.21699 0.0
C506 C 0.32065 0.43704 0.20698 0.0
C507 C 0.28288 0.41005 0.19684 0.0
C508 C 0.27979 0.37359 0.19736 0.0
C509 C 0.31447 0.36469 0.20749 0.0
C510 C 0.32506 0.47616 0.2069 0.0
C511 C 0.24009 0.34409 0.18674 0.0
C512 C 0.18513 0.43223 0.19745 0.0
C513 C 0.17896 0.4402 0.16369 0.0
C514 C 0.21869 0.42218 0.20856 0.0
C515 C 0.24675 0.42003 0.18533 0.0
C516 C 0.24055 0.42775 0.15116 0.0
C517 C 0.20675 0.43783 0.14076 0.0
C518 C 0.2244 0.4143 0.24521 0.0
C519 C 0.26969 0.4255 0.12563 0.0
H520 H 0.38407 0.44781 0.2242 0.0
H521 H 0.31258 0.33689 0.20754 0.0
H522 H 0.31897 0.48461 0.18113 0.0
H523 H 0.30202 0.48036 0.22268 0.0
H524 H 0.35624 0.4937 0.21629 0.0
H525 H 0.24263 0.31707 0.18921 0.0
H526 H 0.21499 0.34501 0.20208 0.0
H527 H 0.23103 0.34809 0.1603 0.0
H528 H 0.1641 0.43455 0.21538 0.0
H529 H 0.20187 0.44363 0.11459 0.0
H530 H 0.25422 0.43317 0.25575 0.0
H531 H 0.22537 0.38683 0.24835 0.0
H532 H 0.19939 0.41659 0.25993 0.0
H533 H 0.30115 0.44439 0.13237 0.0
H534 H 0.26021 0.4319 0.09997 0.0
H535 H 0.27133 0.39815 0.12552 0.0
C536 C 0.66506 0.30551 0.95173 0.0
C537 C 0.64109 0.31976 0.92996 0.0
C538 C 0.64745 0.27312 0.96903 0.0
C539 C 0.60504 0.25313 0.9634 0.0
C540 C 0.58082 0.26653 0.94078 0.0
C541 C 0.59881 0.29984 0.92499 0.0
C542 C 0.67425 0.26053 0.99373 0.0
C543 C 0.53571 0.24568 0.93322 0.0
C544 C 0.56745 0.15336 0.98543 0.0
C545 C 0.54619 0.1527 1.01411 0.0
C546 C 0.5865 0.18577 0.96852 0.0
C547 C 0.58582 0.21848 0.98148 0.0
C548 C 0.5659 0.21793 1.0114 0.0
C549 C 0.54552 0.18498 1.02688 0.0
C550 C 0.606 0.18482 0.93613 0.0
C551 C 0.56596 0.25213 1.02705 0.0
H552 H 0.69787 0.3195 0.95537 0.0
H553 H 0.57931 0.3103 0.90901 0.0
H554 H 0.66073 0.25589 1.01851 0.0
H555 H 0.67573 0.23465 0.98538 0.0
H556 H 0.7061 0.28015 0.99681 0.0
H557 H 0.52189 0.2582 0.913 0.0
H558 H 0.53144 0.21788 0.92565 0.0
H559 H 0.51859 0.24391 0.956 0.0
H560 H 0.56766 0.12832 0.97542 0.0
H561 H 0.52934 0.18446 0.04926 0.0
H562 H 0.63892 0.20204 0.93799 0.0
H563 H 0.59076 0.19572 0.91562 0.0
H564 H 0.60371 0.15725 0.92927 0.0
H565 H 0.59788 0.27152 1.03022 0.0
H566 H 0.55234 0.24742 0.05182 0.0
H567 H 0.54817 0.26477 1.01038 0.0
C568 C 0.96042 0.842 0.43461 0.0
C569 C 0.91797 0.82467 0.42804 0.0
C570 C 0.97598 0.87473 0.45229 0.0
C571 C 0.94854 0.89104 0.46319 0.0
C572 C 0.90568 0.87384 0.45621 0.0
C573 C 0.89095 0.84085 0.43902 0.0
C574 C 0.02182 0.89173 0.4596 0.0
C575 C 0.87531 0.89045 0.46669 0.0
C576 C 0.98532 0.96086 0.53347 0.0
C577 C 0.99785 0.99312 0.51549 0.0
C578 C 0.96927 0.9275 0.51686 0.0
C579 C 0.96471 0.9263 0.48139 0.0
C580 C 0.97612 0.95893 0.46325 0.0
C581 C 0.9929 0.99183 0.48047 0.0
C582 C 0.95822 0.8935 0.53725 0.0
C583 C 0.97111 0.95911 0.42555 0.0
H584 H 0.98146 0.82953 0.42652 0.0
H585 H 0.85813 0.82782 0.43377 0.0
H586 H 0.03321 0.91862 0.44788 0.0
H587 H 0.02884 0.89554 0.48696 0.0
H588 H 0.03899 0.87531 0.4502 0.0
H589 H 0.84302 0.87393 0.45909 0.0
H590 H 0.87808 0.89396 0.49423 0.0
H591 H 0.88229 0.91746 0.4554 0.0
H592 H 0.98938 0.96163 0.56054 0.0
H593 H 1.0025 1.01668 0.46645 0.0
H594 H 0.97683 0.87733 0.53021 0.0
H595 H 0.92542 0.877 0.53184 0.0
H596 H 0.96354 0.89893 0.56457 0.0
H597 H 0.99076 0.94576 0.41488 0.0
H598 H 0.97952 0.98669 0.41523 0.0
H599 H 0.93878 0.94373 0.4171 0.0
C600 C 0.2709 0.75307 0.71234 0.0
C601 C 0.22934 0.73278 0.71567 0.0
C602 C 0.29719 0.73838 0.6981 0.0
C603 C 0.2816 0.70238 0.68693 0.0
C604 C 0.23957 0.68168 0.68998 0.0
C605 C 0.21375 0.69726 0.70419 0.0
C606 C 0.34174 0.76152 0.69502 0.0
C607 C 0.22208 0.64314 0.67853 0.0
C608 C 0.34998 0.68395 0.62543 0.0
C609 C 0.37622 0.67231 0.64692 0.0
C610 C 0.31694 0.69148 0.63773 0.0
C611 C 0.30997 0.68696 0.67223 0.0
C612 C 0.33457 0.67266 0.69351 0.0
C613 C 0.36762 0.66572 0.68061 0.0
C614 C 0.29153 0.70683 0.61427 0.0
C615 C 0.32775 0.66697 0.73034 0.0
H616 H 0.28283 0.78078 0.72059 0.0
H617 H 0.1816 0.68157 0.7068 0.0
H618 H 0.36206 0.74934 0.7092 0.0
H619 H 0.34946 0.76316 0.66845 0.0
H620 H 0.34875 0.78916 0.70455 0.0
H621 H 0.1887 0.6308 0.68242 0.0
H622 H 0.22681 0.6414 0.65159 0.0
H623 H 0.23854 0.62723 0.69235 0.0
H624 H 0.35665 0.68909 0.59937 0.0
H625 H 0.38751 0.65606 0.69708 0.0
H626 H 0.2995 0.73576 0.61978 0.0
H627 H 0.25827 0.69352 0.61794 0.0
H628 H 0.29701 0.70396 0.58764 0.0
H629 H 0.33792 0.69334 0.74317 0.0
H630 H 0.34517 0.6507 0.74223 0.0
H631 H 0.29459 0.65346 0.73434 0.0
C632 C 0.70834 0.88162 0.83514 0.0
C633 C 0.71258 0.84802 0.83968 0.0
C634 C 0.72652 0.90402 0.80862 0.0
C635 C 0.74932 0.89241 0.78624 0.0
C636 C 0.75226 0.85793 0.79001 0.0
C637 C 0.73377 0.83617 0.8166 0.0
C638 C 0.72256 0.94054 0.80524 0.0
C639 C 0.7761 0.84444 0.76661 0.0
C640 C 0.7776 0.93616 0.70184 0.0
C641 C 0.81909 0.95728 0.70844 0.0
C642 C 0.75392 0.91595 0.72724 0.0
C643 C 0.77223 0.91679 0.75995 0.0
C644 C 0.81371 0.93887 0.76698 0.0
C645 C 0.83659 0.95887 0.74117 0.0
C646 C 0.70977 0.89276 0.71881 0.0
C647 C 0.83434 0.94051 0.80157 0.0
H648 H 0.69207 0.89091 0.85299 0.0
H649 H 0.73641 0.8099 0.81965 0.0
H650 H 0.75315 0.96158 0.81029 0.0
H651 H 0.71174 0.94462 0.77933 0.0
H652 H 0.70093 0.94431 0.82283 0.0
H653 H 0.77373 0.81632 0.77204 0.0
H654 H 0.76474 0.846 0.74032 0.0
H655 H 0.80905 0.86165 0.76879 0.0
H656 H 0.76393 0.93458 0.67657 0.0
H657 H 0.86837 0.97568 0.7466 0.0
H658 H 0.68931 0.89775 0.73674 0.0
H659 H 0.70657 0.86409 0.72103 0.0
H660 H 0.69904 0.89761 0.69304 0.0
H661 H 0.81599 0.94727 0.82029 0.0
H662 H 0.866 0.96061 0.80336 0.0
H663 H 0.83603 0.91385 0.80834 0.0
C664 C 0.82971 0.30115 0.31962 0.0
C665 C 0.87217 0.30799 0.32281 0.0
C666 C 0.80681 0.28727 0.28979 0.0
C667 C 0.82702 0.28039 0.26253 0.0
C668 C 0.8703 0.28957 0.2649 0.0
C669 C 0.89237 0.3031 0.29513 0.0
C670 C 0.76067 0.27767 0.28828 0.0
C671 C 0.89302 0.28311 0.23622 0.0
C672 C 0.76664 0.20256 0.20565 0.0
C673 C 0.75543 0.22007 0.17804 0.0
C674 C 0.78987 0.22198 0.23328 0.0
C675 C 0.80252 0.25987 0.23315 0.0
C676 C 0.79161 0.27777 0.20523 0.0
C677 C 0.76793 0.25759 0.17801 0.0
C678 C 0.80052 0.20188 0.26278 0.0
C679 C 0.80498 0.31814 0.20412 0.0
H680 H 0.81401 0.30463 0.34111 0.0
H681 H 0.92529 0.30875 0.29754 0.0
H682 H 0.74987 0.28805 0.26498 0.0
H683 H 0.74571 0.24806 0.28796 0.0
H684 H 0.75031 0.28841 0.31003 0.0
H685 H 0.9269 0.29583 0.24054 0.0
H686 H 0.8855 0.25386 0.23289 0.0
H687 H 0.88322 0.29363 0.21255 0.0
H688 H 0.75648 0.17353 0.20591 0.0
H689 H 0.75947 0.27115 0.15655 0.0
H690 H 0.7881 0.2083 0.2857 0.0
H691 H 0.83441 0.21039 0.26728 0.0
H692 H 0.78805 0.17238 0.25898 0.0
H693 H 0.79269 0.328 0.22526 0.0
H694 H 0.79435 0.32795 0.18036 0.0
H695 H 0.83902 0.33004 0.20703 0.0
C696 C 0.41765 0.68245 0.37506 0.0
C697 C 0.44329 0.68909 0.34827 0.0
C698 C 0.42373 0.66213 0.40296 0.0
C699 C 0.45655 0.64849 0.40427 0.0
C700 C 0.48206 0.65482 0.37686 0.0
C701 C 0.4751 0.675 0.34928 0.0
C702 C 0.39562 0.65593 0.43139 0.0
C703 C 0.51745 0.64104 0.37699 0.0
C704 C 0.5018 0.62541 0.48787 0.0
C705 C 0.48492 0.58788 0.48806 0.0
C706 C 0.49195 0.64554 0.46134 0.0
C707 C 0.46457 0.62777 0.43419 0.0
C708 C 0.44675 0.58987 0.43476 0.0
C709 C 0.4573 0.57049 0.46148 0.0
C710 C 0.51205 0.6858 0.4618 0.0
C711 C 0.41734 0.56964 0.40664 0.0
H712 H 0.39347 0.69389 0.37458 0.0
H713 H 0.49543 0.68068 0.32883 0.0
H714 H 0.38166 0.6268 0.43643 0.0
H715 H 0.41363 0.66865 0.45452 0.0
H716 H 0.37058 0.66699 0.42607 0.0
H717 H 0.53401 0.64771 0.35358 0.0
H718 H 0.53964 0.65272 0.39844 0.0
H719 H 0.50607 0.61151 0.38021 0.0
H720 H 0.52404 0.63899 0.5077 0.0
H721 H 0.44426 0.54146 0.46132 0.0
H722 H 0.4884 0.69864 0.45803 0.0
H723 H 0.53276 0.69442 0.44089 0.0
H724 H 0.5303 0.69577 0.48564 0.0
H725 H 0.39188 0.58031 0.40231 0.0
H726 H 0.40399 0.54046 0.41182 0.0
H727 H 0.43362 0.57343 0.38316 0.0
C728 C 0.10875 0.44777 0.86661 0.0
C729 C 0.1497 0.45294 0.86051 0.0
C730 C 0.09879 0.46514 0.89336 0.0
C731 C 0.13057 0.4885 0.91475 0.0
C732 C 0.17216 0.49449 0.90808 0.0
C733 C 0.18122 0.47644 0.88122 0.0
C734 C 0.05408 0.45763 0.8993 0.0
C735 C 0.20709 0.51934 0.92983 0.0
C736 C 0.09984 0.55369 0.96718 0.0
C737 C 0.09309 0.53635 0.99836 0.0
C738 C 0.11329 0.53912 0.94029 0.0
C739 C 0.11995 0.50603 0.9442 0.0
C740 C 0.11414 0.48878 0.97584 0.0
C741 C 0.10103 0.50415 1.00245 0.0
C742 C 0.1194 0.55881 0.90735 0.0
C743 C 0.12054 0.45341 0.98131 0.0
H744 H 0.08428 0.42911 0.85101 0.0
H745 H 0.21291 0.48003 0.87695 0.0
H746 H 0.0471 0.44522 0.92427 0.0
H747 H 0.04764 0.48305 0.89922 0.0
H748 H 0.03302 0.43941 0.8801 0.0
H749 H 0.2376 0.52279 0.92037 0.0
H750 H 0.20382 0.54603 0.93126 0.0
H751 H 0.20609 0.5086 0.95566 0.0
H752 H 0.09409 0.57863 0.96352 0.0
H753 H 0.09592 0.49034 1.02625 0.0
H754 H 0.09666 0.54262 0.88796 0.0
H755 H 0.15046 0.56269 0.89891 0.0
H756 H 0.11586 0.58542 0.90892 0.0
H757 H 0.09804 0.43265 0.96492 0.0
H758 H 0.11685 0.44424 1.00767 0.0
H759 H 0.15173 0.45561 0.97436 0.0
C760 C 0.56417 0.84924 0.96302 0.0
C761 C 0.5746 0.84675 0.93034 0.0
C762 C 0.55557 0.87917 0.97338 0.0
C763 C 0.55746 0.90712 0.95033 0.0
C764 C 0.56657 0.90396 0.91681 0.0
C765 C 0.57534 0.87372 0.90721 0.0
C766 C 0.54621 0.88155 1.00938 0.0
C767 C 0.5685 0.93302 0.89149 0.0
C768 C 0.5102 0.97295 0.98057 0.0
C769 C 0.54481 0.99929 0.99581 0.0
C770 C 0.51404 0.94377 0.96372 0.0
C771 C 0.55333 0.94072 0.9624 0.0
C772 C 0.58857 0.96826 0.97604 0.0
C773 C 0.5839 0.99726 0.99241 0.0
C774 C 0.4758 0.91525 0.94899 0.0
C775 C 0.63103 0.966 0.97526 0.0
H776 H 0.56388 0.8282 0.98078 0.0
H777 H 0.58366 0.87155 0.88192 0.0
H778 H 0.57087 0.90437 1.02189 0.0
H779 H 0.51692 0.88668 1.01063 0.0
H780 H 0.54381 0.85671 1.0236 0.0
H781 H 0.57157 0.92477 0.86577 0.0
H782 H 0.54049 0.94037 0.89164 0.0
H783 H 0.59526 0.95744 0.89822 0.0
H784 H 0.47986 0.97438 0.98276 0.0
H785 H 0.6109 1.01749 1.00392 0.0
H786 H 0.46877 0.89072 0.96458 0.0
H787 H 0.48071 0.90791 0.92346 0.0
H788 H 0.44867 0.92403 0.94778 0.0
H789 H 0.63297 0.9435 0.99133 0.0
H790 H 0.65555 0.99104 0.9843 0.0
H791 H 0.63715 0.96041 0.94951 0.0
C792 C 0.98389 0.28211 0.4413 0.0
C793 C 0.95214 0.27216 0.41596 0.0
C794 C 0.9966 0.25629 0.45845 0.0
C795 C 0.97813 0.21976 0.44927 0.0
C796 C 0.9481 0.20976 0.42232 0.0
C797 C 0.93493 0.2359 0.40643 0.0
C798 C 0.02824 0.26789 0.48751 0.0
C799 C 0.92843 0.17116 0.41123 0.0
C800 C 0.03008 0.15533 0.48317 0.0
C801 C 1.00548 0.1393 0.50956 0.0
C802 C 0.02107 0.18106 0.46275 0.0
C803 C 0.9875 0.19168 0.46968 0.0
C804 C 0.96263 0.17552 0.49636 0.0
C805 C 0.97158 0.14911 0.51567 0.0
C806 C 0.0474 0.19687 0.43385 0.0
C807 C 0.92714 0.18673 0.50503 0.0
H808 H 0.99815 0.31003 0.44843 0.0
H809 H 0.90985 0.22745 0.38744 0.0
H810 H 1.01393 0.25607 0.51098 0.0
H811 H 0.05385 0.2579 0.48428 0.0
H812 H 0.04114 0.2975 0.49041 0.0
H813 H 0.90997 0.16853 0.3871 0.0
H814 H 0.95226 0.15888 0.40849 0.0
H815 H 0.90787 0.15559 0.43046 0.0
H816 H 0.05626 0.14764 0.47841 0.0
H817 H 0.95288 0.13707 0.53637 0.0
H818 H 0.06278 0.22617 0.43744 0.0
H819 H 0.02783 0.19288 0.41023 0.0
H820 H 0.07135 0.18468 0.43107 0.0
H821 H 0.93833 0.21593 0.51035 0.0
H822 H 0.91155 0.17218 0.52711 0.0
H823 H 0.90413 0.1817 0.4835 0.0
C824 C 0.31879 0.67643 0.21169 0.0
C825 C 0.32356 0.71142 0.2214 0.0
C826 C 0.2831 0.65504 0.19302 0.0
C827 C 0.25143 0.66896 0.18386 0.0
C828 C 0.25512 0.70341 0.19543 0.0
C829 C 0.29096 0.72409 0.214 0.0
C830 C 0.28033 0.61836 0.18153 0.0
C831 C 0.22215 0.71935 0.18664 0.0
C832 C 0.18494 0.64188 0.10271 0.0
C833 C 0.14675 0.62072 0.1142 0.0
C834 C 0.21963 0.6563 0.12497 0.0
C835 C 0.21627 0.64937 0.15972 0.0
C836 C 0.17826 0.62646 0.17127 0.0
C837 C 0.14395 0.61245 0.14838 0.0
C838 C 0.25945 0.68039 0.1114 0.0
C839 C 0.17329 0.61804 0.20796 0.0
H840 H 0.34387 0.66648 0.21713 0.0
H841 H 0.29417 0.75092 0.22179 0.0
H842 H 0.24966 0.59831 0.18601 0.0
H843 H 0.2841 0.61892 0.15422 0.0
H844 H 0.3044 0.60944 0.19441 0.0
H845 H 0.22812 0.74519 0.1997 0.0
H846 H 0.2205 0.72407 0.15927 0.0
H847 H 0.19164 0.70043 0.19315 0.0
H848 H 0.18744 0.64818 0.0763 0.0
H849 H 0.11457 0.59599 0.15745 0.0
H850 H 0.28514 0.67135 0.12036 0.0
H851 H 0.26678 0.70812 0.12073 0.0
H852 H 0.25795 0.68097 0.08363 0.0
H853 H 0.19892 0.60992 0.21882 0.0
H854 H 0.14367 0.59635 0.21243 0.0
H855 H 0.17436 0.64242 0.22151 0.0
C856 C 0.24391 0.45196 0.68899 0.0
C857 C 0.25012 0.44501 0.72305 0.0
C858 C 0.27698 0.47097 0.66963 0.0
C859 C 0.3176 0.4832 0.68448 0.0
C860 C 0.32376 0.47822 0.71937 0.0
C861 C 0.28993 0.45927 0.73825 0.0
C862 C 0.26864 0.47593 0.63275 0.0
C863 C 0.3664 0.49085 0.73633 0.0
C864 C 0.40383 0.48761 0.62795 0.0
C865 C 0.42148 0.52447 0.62151 0.0
C866 C 0.37033 0.47406 0.64843 0.0
C867 C 0.3536 0.49778 0.66291 0.0
C868 C 0.37085 0.53499 0.65617 0.0
C869 C 0.40452 0.54784 0.63571 0.0
C870 C 0.35301 0.4342 0.65478 0.0
C871 C 0.35393 0.56129 0.67074 0.0
H872 H 0.21319 0.44092 0.6771 0.0
H873 H 0.29501 0.45361 0.76442 0.0
H874 H 0.28469 0.50412 0.62531 0.0
H875 H 0.28075 0.4588 0.61814 0.0
H876 H 0.23526 0.46868 0.62582 0.0
H877 H 0.36575 0.48858 0.76399 0.0
H878 H 0.38391 0.47449 0.7275 0.0
H879 H 0.3833 0.51914 0.7297 0.0
H880 H 0.41659 0.4692 0.61741 0.0
H881 H 0.41779 0.57638 0.63112 0.0
H882 H 0.32005 0.42346 0.64599 0.0
H883 H 0.3548 0.42888 0.68203 0.0
H884 H 0.36962 0.41934 0.64198 0.0
H885 H 0.32075 0.55393 0.66313 0.0
H886 H 0.37023 0.58925 0.66263 0.0
H887 H 0.35664 0.56026 0.69844 0.0
C888 C 0.72372 0.73471 0.93926 0.0
C889 C 0.73572 0.77166 0.93336 0.0
C890 C 0.75194 0.71959 0.95358 0.0
C891 C 0.79286 0.74208 0.96231 0.0
C892 C 0.80435 0.77963 0.95808 0.0
C893 C 0.77566 0.79393 0.94358 0.0
C894 C 0.73861 0.67944 0.95769 0.0
C895 C 0.84754 0.80457 0.96735 0.0
C896 C 0.86691 0.70933 1.01608 0.0
C897 C 0.89085 0.7029 0.99179 0.0
C898 C 0.83403 0.72117 1.00689 0.0
C899 C 0.82486 0.72641 0.97265 0.0
C900 C 0.84815 0.71883 0.94803 0.0
C901 C 0.88088 0.70724 0.95791 0.0
C902 C 0.80997 0.72915 0.03382 0.0
C903 C 0.83917 0.72381 0.91122 0.0
H904 H 0.69285 0.71748 0.9313 0.0
H905 H 0.78474 0.8226 0.93949 0.0
H906 H 0.75409 0.66839 0.93968 0.0
H907 H 0.74791 0.67251 0.98317 0.0
H908 H 0.70481 0.66618 0.95327 0.0
H909 H 0.85041 0.83323 0.96539 0.0
H910 H 0.85717 0.79925 0.99327 0.0
H911 H 0.86924 0.79976 0.95051 0.0
H912 H 0.87464 0.70607 0.0423 0.0
H913 H 0.89885 0.70162 0.93905 0.0
H914 H 0.77652 0.71505 1.02845 0.0
H915 H 0.81526 0.7583 0.03419 0.0
H916 H 0.81889 0.7211 0.05903 0.0
H917 H 0.80641 0.70862 0.90401 0.0
H918 H 0.85871 0.71482 0.89521 0.0
H919 H 0.84455 0.75253 0.90599 0.0
C920 C 0.41551 0.85456 0.21371 0.0
C921 C 0.43657 0.83017 0.21436 0.0
C922 C 0.43121 0.88805 0.19773 0.0
C923 C 0.46827 0.89702 0.18106 0.0
C924 C 0.48927 0.87213 0.18124 0.0
C925 C 0.4735 0.83929 0.19828 0.0
C926 C 0.40834 0.91401 0.19899 0.0
C927 C 0.52823 0.88003 0.1631 0.0
C928 C 0.49029 0.97025 0.11408 0.0
C929 C 0.52044 0.99905 0.13072 0.0
C930 C 0.47294 0.93696 0.13009 0.0
C931 C 0.48544 0.93257 0.16385 0.0
C932 C 0.51524 0.96203 0.18094 0.0
C933 C 0.53289 0.99464 0.16398 0.0
C934 C 0.44229 0.90614 0.11051 0.0
C935 C 0.52877 0.95903 0.2171 0.0
H936 H 0.38699 0.84759 0.2262 0.0
H937 H 0.4896 0.82032 0.19845 0.0
H938 H 0.42888 0.93965 0.21045 0.0
H939 H 0.39889 0.92015 0.17328 0.0
H940 H 0.38049 0.90337 0.21357 0.0
H941 H 0.53991 0.85732 0.16441 0.0
H942 H 0.52262 0.886 0.13643 0.0
H943 H 0.55253 0.90412 0.17403 0.0
H944 H 0.48164 0.97324 0.08803 0.0
H945 H 0.55642 1.01685 0.17681 0.0
H946 H 0.41329 0.89534 0.12355 0.0
H947 H 0.45474 0.88408 0.10881 0.0
H948 H 0.43506 0.91409 0.08478 0.0
H949 H 0.50158 0.94944 0.23247 0.0
H950 H 0.5501 0.985 0.22743 0.0
H951 H 0.54447 0.93906 0.21957 0.0
C952 C 0.11046 0.30222 0.71746 0.0
C953 C 0.15274 0.31897 0.72524 0.0
C954 C 0.09498 0.26868 0.70116 0.0
C955 C 0.12228 0.25091 0.69318 0.0
C956 C 0.16494 0.26749 0.70162 0.0
C957 C 0.17966 0.30143 0.71713 0.0
C958 C 0.04944 0.25247 0.69204 0.0
C959 C 0.19507 0.24929 0.69439 0.0
C960 C 0.07515 0.14969 0.67869 0.0
C961 C 0.0725 0.14726 0.64368 0.0
C962 C 0.09212 0.18308 0.69509 0.0
C963 C 0.10617 0.21503 0.67607 0.0
C964 C 0.10411 0.21264 0.64067 0.0
C965 C 0.08771 0.17882 0.62495 0.0
C966 C 0.09447 0.18417 0.73282 0.0
C967 C 0.11815 0.2459 0.61932 0.0
H968 H 0.0896 0.31583 0.72341 0.0
H969 H 0.21234 0.31419 0.72328 0.0
H970 H 0.04416 0.24762 0.66467 0.0
H971 H 0.03641 0.22615 0.70453 0.0
H972 H 0.03242 0.26996 0.69928 0.0
H973 H 0.22707 0.26522 0.70334 0.0
H974 H 0.18609 0.22259 0.70657 0.0
H975 H 0.19442 0.24483 0.6671 0.0
H976 H 0.06354 0.12541 0.69331 0.0
H977 H 0.0856 0.1772 0.59788 0.0
H978 H 0.07473 0.19859 0.74142 0.0
H979 H 0.12645 0.19914 0.74244 0.0
H980 H 0.08443 0.15693 0.74401 0.0
H981 H 0.09977 0.26306 0.62394 0.0
H982 H 0.115 0.23953 0.5922 0.0
H983 H 0.15079 0.26181 0.62619 0.0
C984 C 0.799 0.36221 0.45225 0.0
C985 C 0.83019 0.38737 0.43529 0.0
C986 C 0.76396 0.36956 0.46007 0.0
C987 C 0.76038 0.40291 0.45062 0.0
C988 C 0.79112 0.42765 0.43195 0.0
C989 C 0.82594 0.41959 0.42459 0.0
C990 C 0.73199 0.34255 0.48008 0.0
C991 C 0.78829 0.46338 0.42132 0.0
C992 C 0.65766 0.41543 0.45898 0.0
C993 C 0.66461 0.43326 0.4898 0.0
C994 C 0.68868 0.40561 0.44559 0.0
C995 C 0.7272 0.41353 0.46369 0.0
C996 C 0.73413 0.43126 0.49493 0.0
C997 C 0.7028 0.44092 0.50755 0.0
C998 C 0.68036 0.38691 0.41212 0.0
C999 C 0.77462 0.43987 0.5152 0.0
H1000 H 0.8027 0.33729 0.46045 0.0
H1001 H 0.85039 0.43892 0.41145 0.0
H1002 H 0.73275 0.35331 0.50553 0.0
H1003 H 0.70073 0.33762 0.46829 0.0
H1004 H 0.73721 0.31657 0.48247 0.0
H1005 H 0.81212 0.47771 0.40377 0.0
H1006 H 0.75749 0.45973 0.40915 0.0
H1007 H 0.7923 0.48053 0.44368 0.0
H1008 H 0.62822 0.40968 0.44514 0.0
H1009 H 0.70803 0.45417 0.53165 0.0
H1010 H 0.68406 0.36038 0.41482 0.0
H1011 H 0.70307 0.40279 0.39442 0.0
H1012 H 0.64891 0.38295 0.4011 0.0
H1013 H 0.78083 0.41481 0.52119 0.0
H1014 H 0.77504 0.45389 0.53898 0.0
H1015 H 0.8001 0.45706 0.50043 0.0
loop_
_geom_bond_atom_site_label_1
_geom_bond_atom_site_label_2
_geom_bond_distance
_geom_bond_site_symmetry_2
_ccdc_geom_bond_type
H0 C3 0.929 . S
H1 C6 0.929 . S
H2 C8 0.930 . S
C3 H0 0.929 . S
C3 C4 1.398 . S
C3 C5 1.396 . S
C4 C3 1.398 . S
C4 C8 1.407 . S
C5 C3 1.396 . S
C5 C6 1.394 . S
C6 H1 0.929 . S
C6 C5 1.394 . S
C6 C7 1.382 . S
C7 C6 1.382 . S
C7 C8 1.392 . S
C7 N9 1.420 . S
C8 H2 0.930 . S
C8 C4 1.407 . S
C8 C7 1.392 . S
N9 C7 1.420 . S
N9 C10 1.244 . S
C10 N9 1.244 . S
H11 C14 0.929 . S
H12 C17 0.929 . S
H13 C19 0.930 . S
C14 H11 0.929 . S
C14 C15 1.398 . S
C14 C16 1.396 . S
C15 C14 1.398 . S
C15 C19 1.407 . S
C16 C14 1.396 . S
C16 C17 1.394 . S
C17 H12 0.929 . S
C17 C16 1.394 . S
C17 C18 1.382 . S
C18 C17 1.382 . S
C18 C19 1.392 . S
C18 N20 1.420 . S
C19 H13 0.930 . S
C19 C15 1.407 . S
C19 C18 1.392 . S
N20 C18 1.420 . S
N20 C21 1.244 . S
C21 N20 1.244 . S
H22 C25 0.929 . S
H23 C28 0.929 . S
H24 C30 0.930 . S
C25 H22 0.929 . S
C25 C26 1.398 . S
C25 C27 1.396 . S
C26 C25 1.398 . S
C26 C30 1.407 . S
C27 C25 1.396 . S
C27 C28 1.394 . S
C28 H23 0.929 . S
C28 C27 1.394 . S
C28 C29 1.382 . S
C29 C28 1.382 . S
C29 C30 1.392 . S
C29 N31 1.420 . S
C30 H24 0.930 . S
C30 C26 1.407 . S
C30 C29 1.392 . S
N31 C29 1.420 . S
N31 C32 1.244 . S
C32 N31 1.244 . S
H33 C36 0.929 . S
H34 C39 0.929 . S
H35 C41 0.930 . S
C36 H33 0.929 . S
C36 C37 1.398 . S
C36 C38 1.396 . S
C37 C36 1.398 . S
C37 C41 1.407 . S
C38 C36 1.396 . S
C38 C39 1.394 . S
C39 H34 0.929 . S
C39 C38 1.394 . S
C39 C40 1.382 . S
C40 C39 1.382 . S
C40 C41 1.392 . S
C40 N42 1.420 . S
C41 H35 0.930 . S
C41 C37 1.407 . S
C41 C40 1.392 . S
N42 C40 1.420 . S
N42 C43 1.244 . S
C43 N42 1.244 . S
H44 C47 0.929 . S
H45 C50 0.929 . S
H46 C52 0.930 . S
C47 H44 0.929 . S
C47 C48 1.398 . S
C47 C49 1.396 . S
C48 C47 1.398 . S
C48 C52 1.407 . S
C49 C47 1.396 . S
C49 C50 1.394 . S
C50 H45 0.929 . S
C50 C49 1.394 . S
C50 C51 1.382 . S
C51 C50 1.382 . S
C51 C52 1.392 . S
C51 N53 1.420 . S
C52 H46 0.930 . S
C52 C48 1.407 . S
C52 C51 1.392 . S
N53 C51 1.420 . S
N53 C54 1.244 . S
C54 N53 1.244 . S
H55 C58 0.929 . S
H56 C61 0.929 . S
H57 C63 0.930 . S
C58 H55 0.929 . S
C58 C59 1.398 . S
C58 C60 1.396 . S
C59 C58 1.398 . S
C59 C63 1.407 . S
C60 C58 1.396 . S
C60 C61 1.394 . S
C61 H56 0.929 . S
C61 C60 1.394 . S
C61 C62 1.382 . S
C62 C61 1.382 . S
C62 C63 1.392 . S
C62 N64 1.420 . S
C63 H57 0.930 . S
C63 C59 1.407 . S
C63 C62 1.392 . S
N64 C62 1.420 . S
N64 C65 1.244 . S
C65 N64 1.244 . S
H66 C69 0.929 . S
H67 C72 0.929 . S
H68 C74 0.930 . S
C69 H66 0.929 . S
C69 C70 1.398 . S
C69 C71 1.396 . S
C70 C69 1.398 . S
C70 C74 1.407 . S
C71 C69 1.396 . S
C71 C72 1.394 . S
C72 H67 0.929 . S
C72 C71 1.394 . S
C72 C73 1.382 . S
C73 C72 1.382 . S
C73 C74 1.392 . S
C73 N75 1.420 . S
C74 H68 0.930 . S
C74 C70 1.407 . S
C74 C73 1.392 . S
N75 C73 1.420 . S
N75 C76 1.244 . S
C76 N75 1.244 . S
H77 C80 0.929 . S
H78 C83 0.929 . S
H79 C85 0.930 . S
C80 H77 0.929 . S
C80 C81 1.398 . S
C80 C82 1.396 . S
C81 C80 1.398 . S
C81 C85 1.407 . S
C82 C80 1.396 . S
C82 C83 1.394 . S
C83 H78 0.929 . S
C83 C82 1.394 . S
C83 C84 1.382 . S
C84 C83 1.382 . S
C84 C85 1.392 . S
C84 N86 1.420 . S
C85 H79 0.930 . S
C85 C81 1.407 . S
C85 C84 1.392 . S
N86 C84 1.420 . S
N86 C87 1.244 . S
C87 N86 1.244 . S
Tb88 C90 2.809 1_545 S
Tb88 O108 2.484 1_545 S
Tb88 O109 2.440 . S
Tb88 O110 2.658 1_655 S
Tb88 O111 2.409 1_655 S
Tb88 O112 2.378 1_655 S
Tb88 O116 2.325 1_545 S
Tb88 O119 2.341 . S
Tb89 C99 2.809 . S
Tb89 O110 2.325 . S
Tb89 O113 2.342 . S
Tb89 O114 2.484 . S
Tb89 O115 2.440 . S
Tb89 O116 2.658 1_445 S
Tb89 O117 2.409 1_545 S
Tb89 O118 2.378 . S
C90 Tb88 2.809 1_565 S
C90 C91 1.514 . S
C90 O108 1.248 . S
C90 O109 1.266 1_565 S
C91 C90 1.514 . S
C91 C92 1.359 . S
C91 C96 1.348 . S
C92 C91 1.359 . S
C92 C93 1.380 . S
C92 H120 0.929 . S
C93 C92 1.380 . S
C93 C94 1.347 . S
C93 H121 0.931 . S
C94 C93 1.347 . S
C94 C95 1.369 . S
C95 C94 1.369 . S
C95 C96 1.408 . S
C95 H122 0.930 . S
C96 C91 1.348 . S
C96 C95 1.408 . S
C96 H123 0.930 . S
C97 O110 1.281 . S
C97 O111 1.254 . S
C98 O112 1.236 1_565 S
C98 O113 1.266 1_565 S
C99 Tb89 2.809 . S
C99 C100 1.514 . S
C99 O114 1.248 . S
C99 O115 1.266 . S
C100 C99 1.514 . S
C100 C101 1.359 . S
C100 C105 1.348 . S
C101 C100 1.359 . S
C101 C102 1.380 . S
C101 H124 0.929 . S
C102 C101 1.380 . S
C102 C103 1.347 . S
C102 H125 0.931 . S
C103 C102 1.347 . S
C103 C104 1.369 . S
C104 C103 1.369 . S
C104 C105 1.408 . S
C104 H126 0.930 . S
C105 C100 1.348 . S
C105 C104 1.408 . S
C105 H127 0.930 . S
C106 O116 1.281 . S
C106 O117 1.254 1_655 S
C107 O118 1.236 1_655 S
C107 O119 1.266 . S
O108 Tb88 2.484 1_565 S
O108 C90 1.248 . S
O109 Tb88 2.440 . S
O109 C90 1.266 1_545 S
O110 Tb88 2.658 1_455 S
O110 Tb89 2.325 . S
O110 C97 1.281 . S
O111 Tb88 2.409 1_455 S
O111 C97 1.254 . S
O112 Tb88 2.378 1_455 S
O112 C98 1.236 1_545 S
O113 Tb89 2.342 . S
O113 C98 1.266 1_545 S
O114 Tb89 2.484 . S
O114 C99 1.248 . S
O115 Tb89 2.440 . S
O115 C99 1.266 . S
O116 Tb88 2.325 1_565 S
O116 Tb89 2.658 1_665 S
O116 C106 1.281 . S
O117 Tb89 2.409 1_565 S
O117 C106 1.254 1_455 S
O118 Tb89 2.378 . S
O118 C107 1.236 1_455 S
O119 Tb88 2.341 . S
O119 C107 1.266 . S
H120 C92 0.929 . S
H121 C93 0.931 . S
H122 C95 0.930 . S
H123 C96 0.930 . S
H124 C101 0.929 . S
H125 C102 0.931 . S
H126 C104 0.930 . S
H127 C105 0.930 . S
Tb128 C130 2.809 . S
Tb128 O148 2.484 . S
Tb128 O149 2.440 . S
Tb128 O150 2.658 1_545 S
Tb128 O151 2.409 1_545 S
Tb128 O152 2.378 . S
Tb128 O156 2.325 . S
Tb128 O159 2.341 . S
Tb129 C139 2.809 1_544 S
Tb129 O150 2.325 1_545 S
Tb129 O153 2.341 . S
Tb129 O154 2.484 1_545 S
Tb129 O155 2.441 1_554 S
Tb129 O156 2.658 . S
Tb129 O157 2.409 1_554 S
Tb129 O158 2.378 . S
C130 Tb128 2.809 . S
C130 C131 1.514 . S
C130 O148 1.248 . S
C130 O149 1.266 . S
C131 C130 1.514 . S
C131 C132 1.359 . S
C131 C136 1.348 . S
C132 C131 1.359 . S
C132 C133 1.380 . S
C132 H160 0.929 . S
C133 C132 1.380 . S
C133 C134 1.347 . S
C133 H161 0.931 . S
C134 C133 1.347 . S
C134 C135 1.369 . S
C135 C134 1.369 . S
C135 C136 1.408 . S
C135 H162 0.930 . S
C136 C131 1.348 . S
C136 C135 1.408 . S
C136 H163 0.930 . S
C137 O150 1.281 . S
C137 O151 1.254 . S
C138 O152 1.236 . S
C138 O153 1.266 . S
C139 Tb129 2.809 1_566 S
C139 C140 1.514 . S
C139 O154 1.248 1_556 S
C139 O155 1.261 1_565 S
C140 C139 1.514 . S
C140 C141 1.359 . S
C140 C145 1.348 . S
C141 C140 1.359 . S
C141 C142 1.380 . S
C141 H164 0.929 . S
C142 C141 1.380 . S
C142 C143 1.347 . S
C142 H165 0.931 . S
C143 C142 1.347 . S
C143 C144 1.369 . S
C144 C143 1.369 . S
C144 C145 1.408 . S
C144 H166 0.930 . S
C145 C140 1.348 . S
C145 C144 1.408 . S
C145 H167 0.930 . S
C146 O156 1.281 . S
C146 O157 1.254 1_554 S
C147 O158 1.236 1_565 S
C147 O159 1.266 1_565 S
O148 Tb128 2.484 . S
O148 C130 1.248 . S
O149 Tb128 2.440 . S
O149 C130 1.266 . S
O150 Tb128 2.658 1_565 S
O150 Tb129 2.325 1_565 S
O150 C137 1.281 . S
O151 Tb128 2.409 1_565 S
O151 C137 1.254 . S
O152 Tb128 2.378 . S
O152 C138 1.236 . S
O153 Tb129 2.341 . S
O153 C138 1.266 . S
O154 Tb129 2.484 1_565 S
O154 C139 1.248 1_554 S
O155 Tb129 2.441 1_556 S
O155 C139 1.261 1_545 S
O156 Tb128 2.325 . S
O156 Tb129 2.658 . S
O156 C146 1.281 . S
O157 Tb129 2.409 1_556 S
O157 C146 1.254 1_556 S
O158 Tb129 2.378 . S
O158 C147 1.236 1_545 S
O159 Tb128 2.341 . S
O159 C147 1.266 1_545 S
H160 C132 0.929 . S
H161 C133 0.931 . S
H162 C135 0.930 . S
H163 C136 0.930 . S
H164 C141 0.929 . S
H165 C142 0.931 . S
H166 C144 0.930 . S
H167 C145 0.930 . S
Tb168 C170 2.809 . S
Tb168 O188 2.484 . S
Tb168 O189 2.440 . S
Tb168 O190 2.658 . S
Tb168 O191 2.409 . S
Tb168 O192 2.378 . S
Tb168 O196 2.325 . S
Tb168 O199 2.341 . S
Tb169 C179 2.809 . S
Tb169 O190 2.325 . S
Tb169 O193 2.341 . S
Tb169 O194 2.484 . S
Tb169 O195 2.440 . S
Tb169 O196 2.658 . S
Tb169 O197 2.409 . S
Tb169 O198 2.378 . S
C170 Tb168 2.809 . S
C170 C171 1.514 . S
C170 O188 1.248 . S
C170 O189 1.266 . S
C171 C170 1.514 . S
C171 C172 1.359 . S
C171 C176 1.348 . S
C172 C171 1.359 . S
C172 C173 1.380 . S
C172 H200 0.929 . S
C173 C172 1.380 . S
C173 C174 1.347 . S
C173 H201 0.931 . S
C174 C173 1.347 . S
C174 C175 1.369 . S
C175 C174 1.369 . S
C175 C176 1.408 . S
C175 H202 0.930 . S
C176 C171 1.348 . S
C176 C175 1.408 . S
C176 H203 0.930 . S
C177 O190 1.281 . S
C177 O191 1.254 . S
C178 O192 1.236 . S
C178 O193 1.266 . S
C179 Tb169 2.809 . S
C179 C180 1.514 . S
C179 O194 1.248 . S
C179 O195 1.266 . S
C180 C179 1.514 . S
C180 C181 1.359 . S
C180 C185 1.348 . S
C181 C180 1.359 . S
C181 C182 1.380 . S
C181 H204 0.929 . S
C182 C181 1.380 . S
C182 C183 1.347 . S
C182 H205 0.931 . S
C183 C182 1.347 . S
C183 C184 1.369 . S
C184 C183 1.369 . S
C184 C185 1.408 . S
C184 H206 0.930 . S
C185 C180 1.348 . S
C185 C184 1.408 . S
C185 H207 0.930 . S
C186 O196 1.281 . S
C186 O197 1.254 . S
C187 O198 1.236 . S
C187 O199 1.266 . S
O188 Tb168 2.484 . S
O188 C170 1.248 . S
O189 Tb168 2.440 . S
O189 C170 1.266 . S
O190 Tb168 2.658 . S
O190 Tb169 2.325 . S
O190 C177 1.281 . S
O191 Tb168 2.409 . S
O191 C177 1.254 . S
O192 Tb168 2.378 . S
O192 C178 1.236 . S
O193 Tb169 2.341 . S
O193 C178 1.266 . S
O194 Tb169 2.484 . S
O194 C179 1.248 . S
O195 Tb169 2.440 . S
O195 C179 1.266 . S
O196 Tb168 2.325 . S
O196 Tb169 2.658 . S
O196 C186 1.281 . S
O197 Tb169 2.409 . S
O197 C186 1.254 . S
O198 Tb169 2.378 . S
O198 C187 1.236 . S
O199 Tb168 2.341 . S
O199 C187 1.266 . S
H200 C172 0.929 . S
H201 C173 0.931 . S
H202 C175 0.930 . S
H203 C176 0.930 . S
H204 C181 0.929 . S
H205 C182 0.931 . S
H206 C184 0.930 . S
H207 C185 0.930 . S
Tb208 C210 2.809 1_455 S
Tb208 O228 2.484 1_455 S
Tb208 O229 2.440 . S
Tb208 O230 2.658 1_556 S
Tb208 O231 2.409 1_556 S
Tb208 O232 2.378 1_556 S
Tb208 O236 2.325 1_455 S
Tb208 O239 2.341 . S
Tb209 C219 2.809 . S
Tb209 O230 2.325 . S
Tb209 O233 2.341 . S
Tb209 O234 2.484 . S
Tb209 O235 2.440 . S
Tb209 O236 2.658 1_454 S
Tb209 O237 2.409 1_455 S
Tb209 O238 2.378 1_554 S
C210 Tb208 2.809 1_655 S
C210 C211 1.514 . S
C210 O228 1.248 . S
C210 O229 1.266 1_655 S
C211 C210 1.514 . S
C211 C212 1.359 . S
C211 C216 1.348 . S
C212 C211 1.359 . S
C212 C213 1.380 . S
C212 H240 0.929 . S
C213 C212 1.380 . S
C213 C214 1.347 . S
C213 H241 0.931 . S
C214 C213 1.347 . S
C214 C215 1.369 . S
C215 C214 1.369 . S
C215 C216 1.408 . S
C215 H242 0.930 . S
C216 C211 1.348 . S
C216 C215 1.408 . S
C216 H243 0.930 1_655 S
C217 O230 1.281 . S
C217 O231 1.254 . S
C218 O232 1.236 1_655 S
C218 O233 1.266 1_655 S
C219 Tb209 2.809 . S
C219 C220 1.514 . S
C219 O234 1.248 . S
C219 O235 1.266 . S
C220 C219 1.514 . S
C220 C221 1.359 . S
C220 C225 1.348 . S
C221 C220 1.359 . S
C221 C222 1.380 . S
C221 H244 0.929 . S
C222 C221 1.380 . S
C222 C223 1.347 . S
C222 H245 0.931 . S
C223 C222 1.347 . S
C223 C224 1.369 . S
C224 C223 1.369 . S
C224 C225 1.408 . S
C224 H246 0.930 . S
C225 C220 1.348 . S
C225 C224 1.408 . S
C225 H247 0.930 . S
C226 O236 1.281 . S
C226 O237 1.254 1_556 S
C227 O238 1.236 . S
C227 O239 1.266 . S
O228 Tb208 2.484 1_655 S
O228 C210 1.248 . S
O229 Tb208 2.440 . S
O229 C210 1.266 1_455 S
O230 Tb208 2.658 1_554 S
O230 Tb209 2.325 . S
O230 C217 1.281 . S
O231 Tb208 2.409 1_554 S
O231 C217 1.254 . S
O232 Tb208 2.378 1_554 S
O232 C218 1.236 1_455 S
O233 Tb209 2.341 . S
O233 C218 1.266 1_455 S
O234 Tb209 2.484 . S
O234 C219 1.248 . S
O235 Tb209 2.440 . S
O235 C219 1.266 . S
O236 Tb208 2.325 1_655 S
O236 Tb209 2.658 1_656 S
O236 C226 1.281 . S
O237 Tb209 2.409 1_655 S
O237 C226 1.254 1_554 S
O238 Tb209 2.378 1_556 S
O238 C227 1.236 . S
O239 Tb208 2.341 . S
O239 C227 1.266 . S
H240 C212 0.929 . S
H241 C213 0.931 . S
H242 C215 0.930 . S
H243 C216 0.930 1_455 S
H244 C221 0.929 . S
H245 C222 0.931 . S
H246 C224 0.930 . S
H247 C225 0.930 . S
C248 C249 1.391 . S
C248 C250 1.394 . S
C248 H264 0.931 . S
C249 C248 1.391 . S
C249 C253 1.376 . S
C250 C248 1.394 . S
C250 C251 1.369 . S
C250 C254 1.531 . S
C251 C250 1.369 . S
C251 C252 1.410 . S
C251 C259 1.503 . S
C252 C251 1.410 . S
C252 C253 1.392 . S
C252 C255 1.511 . S
C253 C249 1.376 . S
C253 C252 1.392 . S
C253 H265 0.929 . S
C254 C250 1.531 . S
C254 H266 0.960 . S
C254 H267 0.962 . S
C254 H268 0.960 . S
C255 C252 1.511 . S
C255 H269 0.961 . S
C255 H270 0.961 . S
C255 H271 0.961 . S
C256 C257 1.370 . S
C256 C258 1.363 . S
C256 H272 0.931 . S
C257 C256 1.370 . S
C257 C261 1.408 . S
C258 C256 1.363 . S
C258 C259 1.370 . S
C258 C262 1.524 . S
C259 C251 1.503 . S
C259 C258 1.370 . S
C259 C260 1.403 . S
C260 C259 1.403 . S
C260 C261 1.404 . S
C260 C263 1.539 . S
C261 C257 1.408 . S
C261 C260 1.404 . S
C261 H273 0.930 . S
C262 C258 1.524 . S
C262 H274 0.956 . S
C262 H275 0.961 . S
C262 H276 0.961 . S
C263 C260 1.539 . S
C263 H277 0.958 . S
C263 H278 0.961 . S
C263 H279 0.960 . S
H264 C248 0.931 . S
H265 C253 0.929 . S
H266 C254 0.960 . S
H267 C254 0.962 . S
H268 C254 0.960 . S
H269 C255 0.961 . S
H270 C255 0.961 . S
H271 C255 0.961 . S
H272 C256 0.931 . S
H273 C261 0.930 . S
H274 C262 0.956 . S
H275 C262 0.961 . S
H276 C262 0.961 . S
H277 C263 0.958 . S
H278 C263 0.961 . S
H279 C263 0.960 . S
C280 C281 1.391 . S
C280 C282 1.394 . S
C280 H296 0.931 . S
C281 C280 1.391 . S
C281 C285 1.376 . S
C282 C280 1.394 . S
C282 C283 1.369 . S
C282 C286 1.531 . S
C283 C282 1.369 . S
C283 C284 1.410 . S
C283 C291 1.503 . S
C284 C283 1.410 . S
C284 C285 1.392 . S
C284 C287 1.511 . S
C285 C281 1.376 . S
C285 C284 1.392 . S
C285 H297 0.929 . S
C286 C282 1.531 . S
C286 H298 0.960 . S
C286 H299 0.962 . S
C286 H300 0.960 . S
C287 C284 1.511 . S
C287 H301 0.961 . S
C287 H302 0.961 . S
C287 H303 0.961 . S
C288 C289 1.370 . S
C288 C290 1.363 . S
C288 H304 0.931 . S
C289 C288 1.370 . S
C289 C293 1.408 . S
C290 C288 1.363 . S
C290 C291 1.370 . S
C290 C294 1.524 . S
C291 C283 1.503 . S
C291 C290 1.370 . S
C291 C292 1.403 . S
C292 C291 1.403 . S
C292 C293 1.404 . S
C292 C295 1.539 . S
C293 C289 1.408 . S
C293 C292 1.404 . S
C293 H305 0.930 . S
C294 C290 1.524 . S
C294 H306 0.956 . S
C294 H307 0.961 . S
C294 H308 0.961 . S
C295 C292 1.539 . S
C295 H309 0.958 . S
C295 H310 0.961 . S
C295 H311 0.960 . S
H296 C280 0.931 . S
H297 C285 0.929 . S
H298 C286 0.960 . S
H299 C286 0.962 . S
H300 C286 0.960 . S
H301 C287 0.961 . S
H302 C287 0.961 . S
H303 C287 0.961 . S
H304 C288 0.931 . S
H305 C293 0.930 . S
H306 C294 0.956 . S
H307 C294 0.961 . S
H308 C294 0.961 . S
H309 C295 0.958 . S
H310 C295 0.961 . S
H311 C295 0.960 . S
C312 C313 1.391 . S
C312 C314 1.394 . S
C312 H328 0.931 . S
C313 C312 1.391 . S
C313 C317 1.376 . S
C314 C312 1.394 . S
C314 C315 1.369 . S
C314 C318 1.531 . S
C315 C314 1.369 . S
C315 C316 1.410 . S
C315 C323 1.503 . S
C316 C315 1.410 . S
C316 C317 1.392 . S
C316 C319 1.511 . S
C317 C313 1.376 . S
C317 C316 1.392 . S
C317 H329 0.929 . S
C318 C314 1.531 . S
C318 H330 0.960 . S
C318 H331 0.962 . S
C318 H332 0.960 . S
C319 C316 1.511 . S
C319 H333 0.961 . S
C319 H334 0.961 . S
C319 H335 0.961 . S
C320 C321 1.370 . S
C320 C322 1.363 . S
C320 H336 0.931 . S
C321 C320 1.370 . S
C321 C325 1.408 . S
C322 C320 1.363 . S
C322 C323 1.370 . S
C322 C326 1.524 . S
C323 C315 1.503 . S
C323 C322 1.370 . S
C323 C324 1.403 . S
C324 C323 1.403 . S
C324 C325 1.404 . S
C324 C327 1.539 . S
C325 C321 1.408 . S
C325 C324 1.404 . S
C325 H337 0.930 . S
C326 C322 1.524 . S
C326 H338 0.956 . S
C326 H339 0.961 . S
C326 H340 0.961 . S
C327 C324 1.539 . S
C327 H341 0.958 . S
C327 H342 0.961 . S
C327 H343 0.960 . S
H328 C312 0.931 . S
H329 C317 0.929 . S
H330 C318 0.960 . S
H331 C318 0.962 . S
H332 C318 0.960 . S
H333 C319 0.961 . S
H334 C319 0.961 . S
H335 C319 0.961 . S
H336 C320 0.931 . S
H337 C325 0.930 . S
H338 C326 0.956 . S
H339 C326 0.961 . S
H340 C326 0.961 . S
H341 C327 0.958 . S
H342 C327 0.961 . S
H343 C327 0.960 . S
C344 C345 1.391 . S
C344 C346 1.394 . S
C344 H360 0.931 . S
C345 C344 1.391 . S
C345 C349 1.376 . S
C346 C344 1.394 . S
C346 C347 1.369 . S
C346 C350 1.531 . S
C347 C346 1.369 . S
C347 C348 1.410 . S
C347 C355 1.503 . S
C348 C347 1.410 . S
C348 C349 1.392 . S
C348 C351 1.511 . S
C349 C345 1.376 . S
C349 C348 1.392 . S
C349 H361 0.929 . S
C350 C346 1.531 . S
C350 H362 0.960 . S
C350 H363 0.962 . S
C350 H364 0.960 . S
C351 C348 1.511 . S
C351 H365 0.961 . S
C351 H366 0.961 . S
C351 H367 0.961 . S
C352 C353 1.370 . S
C352 C354 1.363 . S
C352 H368 0.931 . S
C353 C352 1.370 . S
C353 C357 1.408 . S
C354 C352 1.363 . S
C354 C355 1.370 . S
C354 C358 1.524 . S
C355 C347 1.503 . S
C355 C354 1.370 . S
C355 C356 1.403 . S
C356 C355 1.403 . S
C356 C357 1.404 . S
C356 C359 1.539 . S
C357 C353 1.408 . S
C357 C356 1.404 . S
C357 H369 0.930 . S
C358 C354 1.524 . S
C358 H370 0.956 . S
C358 H371 0.961 . S
C358 H372 0.961 . S
C359 C356 1.539 . S
C359 H373 0.958 . S
C359 H374 0.961 . S
C359 H375 0.960 . S
H360 C344 0.931 . S
H361 C349 0.929 . S
H362 C350 0.960 . S
H363 C350 0.962 . S
H364 C350 0.960 . S
H365 C351 0.961 . S
H366 C351 0.961 . S
H367 C351 0.961 . S
H368 C352 0.931 . S
H369 C357 0.930 . S
H370 C358 0.956 . S
H371 C358 0.961 . S
H372 C358 0.961 . S
H373 C359 0.958 . S
H374 C359 0.961 . S
H375 C359 0.960 . S
C376 C377 1.391 . S
C376 C378 1.394 . S
C376 H392 0.931 . S
C377 C376 1.391 . S
C377 C381 1.376 . S
C378 C376 1.394 . S
C378 C379 1.369 . S
C378 C382 1.531 . S
C379 C378 1.369 . S
C379 C380 1.410 . S
C379 C387 1.503 . S
C380 C379 1.410 . S
C380 C381 1.392 . S
C380 C383 1.511 . S
C381 C377 1.376 . S
C381 C380 1.392 . S
C381 H393 0.929 . S
C382 C378 1.531 . S
C382 H394 0.960 . S
C382 H395 0.962 . S
C382 H396 0.960 . S
C383 C380 1.511 . S
C383 H397 0.961 . S
C383 H398 0.961 . S
C383 H399 0.961 . S
C384 C385 1.370 . S
C384 C386 1.363 . S
C384 H400 0.931 . S
C385 C384 1.370 . S
C385 C389 1.408 . S
C386 C384 1.363 . S
C386 C387 1.370 . S
C386 C390 1.524 . S
C387 C379 1.503 . S
C387 C386 1.370 . S
C387 C388 1.403 . S
C388 C387 1.403 . S
C388 C389 1.404 . S
C388 C391 1.539 . S
C389 C385 1.408 . S
C389 C388 1.404 . S
C389 H401 0.930 . S
C390 C386 1.524 . S
C390 H402 0.956 . S
C390 H403 0.961 . S
C390 H404 0.961 . S
C391 C388 1.539 . S
C391 H405 0.958 . S
C391 H406 0.961 . S
C391 H407 0.960 . S
H392 C376 0.931 . S
H393 C381 0.929 . S
H394 C382 0.960 . S
H395 C382 0.962 . S
H396 C382 0.960 . S
H397 C383 0.961 . S
H398 C383 0.961 . S
H399 C383 0.961 . S
H400 C384 0.931 . S
H401 C389 0.930 . S
H402 C390 0.956 . S
H403 C390 0.961 . S
H404 C390 0.961 . S
H405 C391 0.958 . S
H406 C391 0.961 . S
H407 C391 0.960 . S
C408 C409 1.391 . S
C408 C410 1.394 . S
C408 H424 0.931 . S
C409 C408 1.391 . S
C409 C413 1.376 . S
C410 C408 1.394 . S
C410 C411 1.369 . S
C410 C414 1.531 1_455 S
C411 C410 1.369 . S
C411 C412 1.410 . S
C411 C419 1.503 . S
C412 C411 1.410 . S
C412 C413 1.392 . S
C412 C415 1.511 . S
C413 C409 1.376 . S
C413 C412 1.392 . S
C413 H425 0.929 . S
C414 C410 1.531 1_655 S
C414 H426 0.960 1_655 S
C414 H427 0.962 . S
C414 H428 0.960 . S
C415 C412 1.511 . S
C415 H429 0.961 . S
C415 H430 0.961 . S
C415 H431 0.961 . S
C416 C417 1.370 . S
C416 C418 1.363 . S
C416 H432 0.940 . S
C417 C416 1.370 . S
C417 C421 1.408 . S
C418 C416 1.363 . S
C418 C419 1.370 . S
C418 C422 1.524 1_455 S
C419 C411 1.503 . S
C419 C418 1.370 . S
C419 C420 1.403 . S
C420 C419 1.403 . S
C420 C421 1.404 . S
C420 C423 1.539 . S
C421 C417 1.408 . S
C421 C420 1.404 . S
C421 H433 0.930 . S
C422 C418 1.524 1_655 S
C422 H434 0.956 . S
C422 H435 0.961 1_655 S
C422 H436 0.961 . S
C423 C420 1.539 . S
C423 H437 0.958 . S
C423 H438 0.961 . S
C423 H439 0.960 . S
H424 C408 0.931 . S
H425 C413 0.929 . S
H426 C414 0.960 1_455 S
H427 C414 0.962 . S
H428 C414 0.960 . S
H429 C415 0.961 . S
H430 C415 0.961 . S
H431 C415 0.961 . S
H432 C416 0.940 . S
H433 C421 0.930 . S
H434 C422 0.956 . S
H435 C422 0.961 1_455 S
H436 C422 0.961 . S
H437 C423 0.958 . S
H438 C423 0.961 . S
H439 C423 0.960 . S
C440 C441 1.391 . S
C440 C442 1.394 . S
C440 H456 0.931 . S
C441 C440 1.391 . S
C441 C445 1.376 . S
C442 C440 1.394 . S
C442 C443 1.369 . S
C442 C446 1.531 . S
C443 C442 1.369 . S
C443 C444 1.410 . S
C443 C451 1.503 . S
C444 C443 1.410 . S
C444 C445 1.392 . S
C444 C447 1.511 . S
C445 C441 1.376 . S
C445 C444 1.392 . S
C445 H457 0.929 . S
C446 C442 1.531 . S
C446 H458 0.960 . S
C446 H459 0.962 . S
C446 H460 0.960 . S
C447 C444 1.511 . S
C447 H461 0.961 . S
C447 H462 0.961 . S
C447 H463 0.961 . S
C448 C449 1.370 . S
C448 C450 1.363 . S
C448 H464 0.931 . S
C449 C448 1.370 . S
C449 C453 1.408 . S
C450 C448 1.363 . S
C450 C451 1.370 . S
C450 C454 1.524 . S
C451 C443 1.503 . S
C451 C450 1.370 . S
C451 C452 1.403 . S
C452 C451 1.403 . S
C452 C453 1.404 . S
C452 C455 1.539 . S
C453 C449 1.408 . S
C453 C452 1.404 . S
C453 H465 0.930 . S
C454 C450 1.524 . S
C454 H466 0.956 . S
C454 H467 0.961 . S
C454 H468 0.961 . S
C455 C452 1.539 . S
C455 H469 0.958 . S
C455 H470 0.961 . S
C455 H471 0.960 . S
H456 C440 0.931 . S
H457 C445 0.929 . S
H458 C446 0.960 . S
H459 C446 0.962 . S
H460 C446 0.960 . S
H461 C447 0.961 . S
H462 C447 0.961 . S
H463 C447 0.961 . S
H464 C448 0.931 . S
H465 C453 0.930 . S
H466 C454 0.956 . S
H467 C454 0.961 . S
H468 C454 0.961 . S
H469 C455 0.958 . S
H470 C455 0.961 . S
H471 C455 0.960 . S
C472 C473 1.391 . S
C472 C474 1.394 . S
C472 H488 0.931 . S
C473 C472 1.391 . S
C473 C477 1.376 . S
C474 C472 1.394 . S
C474 C475 1.369 . S
C474 C478 1.531 . S
C475 C474 1.369 . S
C475 C476 1.410 . S
C475 C483 1.503 . S
C476 C475 1.410 . S
C476 C477 1.392 . S
C476 C479 1.511 . S
C477 C473 1.376 . S
C477 C476 1.392 . S
C477 H489 0.929 . S
C478 C474 1.531 . S
C478 H490 0.960 . S
C478 H491 0.962 . S
C478 H492 0.960 . S
C479 C476 1.511 . S
C479 H493 0.961 . S
C479 H494 0.961 . S
C479 H495 0.961 . S
C480 C481 1.370 . S
C480 C482 1.363 . S
C480 H496 0.931 . S
C481 C480 1.370 . S
C481 C485 1.408 . S
C482 C480 1.363 . S
C482 C483 1.370 . S
C482 C486 1.524 . S
C483 C475 1.503 . S
C483 C482 1.370 . S
C483 C484 1.403 . S
C484 C483 1.403 . S
C484 C485 1.404 . S
C484 C487 1.539 . S
C485 C481 1.408 . S
C485 C484 1.404 . S
C485 H497 0.930 . S
C486 C482 1.524 . S
C486 H498 0.956 . S
C486 H499 0.961 . S
C486 H500 0.961 . S
C487 C484 1.539 . S
C487 H501 0.958 . S
C487 H502 0.961 . S
C487 H503 0.960 . S
H488 C472 0.931 . S
H489 C477 0.929 . S
H490 C478 0.960 . S
H491 C478 0.962 . S
H492 C478 0.960 . S
H493 C479 0.961 . S
H494 C479 0.961 . S
H495 C479 0.961 . S
H496 C480 0.931 . S
H497 C485 0.930 . S
H498 C486 0.956 . S
H499 C486 0.961 . S
H500 C486 0.961 . S
H501 C487 0.958 . S
H502 C487 0.961 . S
H503 C487 0.960 . S
C504 C505 1.391 . S
C504 C506 1.394 . S
C504 H520 0.931 . S
C505 C504 1.391 . S
C505 C509 1.376 . S
C506 C504 1.394 . S
C506 C507 1.369 . S
C506 C510 1.531 . S
C507 C506 1.369 . S
C507 C508 1.410 . S
C507 C515 1.503 . S
C508 C507 1.410 . S
C508 C509 1.392 . S
C508 C511 1.511 . S
C509 C505 1.376 . S
C509 C508 1.392 . S
C509 H521 0.929 . S
C510 C506 1.531 . S
C510 H522 0.960 . S
C510 H523 0.962 . S
C510 H524 0.960 . S
C511 C508 1.511 . S
C511 H525 0.961 . S
C511 H526 0.961 . S
C511 H527 0.961 . S
C512 C513 1.370 . S
C512 C514 1.363 . S
C512 H528 0.931 . S
C513 C512 1.370 . S
C513 C517 1.408 . S
C514 C512 1.363 . S
C514 C515 1.370 . S
C514 C518 1.524 . S
C515 C507 1.503 . S
C515 C514 1.370 . S
C515 C516 1.403 . S
C516 C515 1.403 . S
C516 C517 1.404 . S
C516 C519 1.539 . S
C517 C513 1.408 . S
C517 C516 1.404 . S
C517 H529 0.930 . S
C518 C514 1.524 . S
C518 H530 0.956 . S
C518 H531 0.961 . S
C518 H532 0.961 . S
C519 C516 1.539 . S
C519 H533 0.958 . S
C519 H534 0.961 . S
C519 H535 0.960 . S
H520 C504 0.931 . S
H521 C509 0.929 . S
H522 C510 0.960 . S
H523 C510 0.962 . S
H524 C510 0.960 . S
H525 C511 0.961 . S
H526 C511 0.961 . S
H527 C511 0.961 . S
H528 C512 0.931 . S
H529 C517 0.930 . S
H530 C518 0.956 . S
H531 C518 0.961 . S
H532 C518 0.961 . S
H533 C519 0.958 . S
H534 C519 0.961 . S
H535 C519 0.960 . S
C536 C537 1.391 . S
C536 C538 1.394 . S
C536 H552 0.931 . S
C537 C536 1.391 . S
C537 C541 1.376 . S
C538 C536 1.394 . S
C538 C539 1.369 . S
C538 C542 1.531 . S
C539 C538 1.369 . S
C539 C540 1.410 . S
C539 C547 1.503 . S
C540 C539 1.410 . S
C540 C541 1.392 . S
C540 C543 1.511 . S
C541 C537 1.376 . S
C541 C540 1.392 . S
C541 H553 0.929 . S
C542 C538 1.531 . S
C542 H554 0.960 . S
C542 H555 0.962 . S
C542 H556 0.960 . S
C543 C540 1.511 . S
C543 H557 0.961 . S
C543 H558 0.961 . S
C543 H559 0.961 . S
C544 C545 1.370 . S
C544 C546 1.363 . S
C544 H560 0.931 . S
C545 C544 1.370 . S
C545 C549 1.408 . S
C546 C544 1.363 . S
C546 C547 1.370 . S
C546 C550 1.524 . S
C547 C539 1.503 . S
C547 C546 1.370 . S
C547 C548 1.403 . S
C548 C547 1.403 . S
C548 C549 1.404 . S
C548 C551 1.539 . S
C549 C545 1.408 . S
C549 C548 1.404 . S
C549 H561 0.930 1_556 S
C550 C546 1.524 . S
C550 H562 0.956 . S
C550 H563 0.961 . S
C550 H564 0.961 . S
C551 C548 1.539 . S
C551 H565 0.958 1_556 S
C551 H566 0.961 1_556 S
C551 H567 0.960 . S
H552 C536 0.931 . S
H553 C541 0.929 . S
H554 C542 0.960 . S
H555 C542 0.962 . S
H556 C542 0.960 . S
H557 C543 0.961 . S
H558 C543 0.961 . S
H559 C543 0.961 . S
H560 C544 0.931 . S
H561 C549 0.930 1_554 S
H562 C550 0.956 . S
H563 C550 0.961 . S
H564 C550 0.961 . S
H565 C551 0.958 1_554 S
H566 C551 0.961 1_554 S
H567 C551 0.960 . S
C568 C569 1.391 . S
C568 C570 1.394 . S
C568 H584 0.931 . S
C569 C568 1.391 . S
C569 C573 1.376 . S
C570 C568 1.394 . S
C570 C571 1.369 . S
C570 C574 1.531 . S
C571 C570 1.369 . S
C571 C572 1.410 . S
C571 C579 1.503 . S
C572 C571 1.410 . S
C572 C573 1.392 . S
C572 C575 1.511 . S
C573 C569 1.376 . S
C573 C572 1.392 . S
C573 H585 0.929 . S
C574 C570 1.531 . S
C574 H586 0.960 . S
C574 H587 0.962 . S
C574 H588 0.960 . S
C575 C572 1.511 . S
C575 H589 0.961 . S
C575 H590 0.961 . S
C575 H591 0.961 . S
C576 C577 1.370 . S
C576 C578 1.363 . S
C576 H592 0.931 . S
C577 C576 1.370 . S
C577 C581 1.408 . S
C578 C576 1.363 . S
C578 C579 1.370 . S
C578 C582 1.524 . S
C579 C571 1.503 . S
C579 C578 1.370 . S
C579 C580 1.403 . S
C580 C579 1.403 . S
C580 C581 1.404 . S
C580 C583 1.539 . S
C581 C577 1.408 . S
C581 C580 1.404 . S
C581 H593 0.930 . S
C582 C578 1.524 . S
C582 H594 0.956 . S
C582 H595 0.961 . S
C582 H596 0.961 . S
C583 C580 1.539 . S
C583 H597 0.958 . S
C583 H598 0.961 . S
C583 H599 0.960 . S
H584 C568 0.931 . S
H585 C573 0.929 . S
H586 C574 0.960 . S
H587 C574 0.962 . S
H588 C574 0.960 . S
H589 C575 0.961 . S
H590 C575 0.961 . S
H591 C575 0.961 . S
H592 C576 0.931 . S
H593 C581 0.930 . S
H594 C582 0.956 . S
H595 C582 0.961 . S
H596 C582 0.961 . S
H597 C583 0.958 . S
H598 C583 0.961 . S
H599 C583 0.960 . S
C600 C601 1.391 . S
C600 C602 1.394 . S
C600 H616 0.931 . S
C601 C600 1.391 . S
C601 C605 1.376 . S
C602 C600 1.394 . S
C602 C603 1.369 . S
C602 C606 1.531 . S
C603 C602 1.369 . S
C603 C604 1.410 . S
C603 C611 1.503 . S
C604 C603 1.410 . S
C604 C605 1.392 . S
C604 C607 1.511 . S
C605 C601 1.376 . S
C605 C604 1.392 . S
C605 H617 0.929 . S
C606 C602 1.531 . S
C606 H618 0.960 . S
C606 H619 0.962 . S
C606 H620 0.960 . S
C607 C604 1.511 . S
C607 H621 0.961 . S
C607 H622 0.961 . S
C607 H623 0.961 . S
C608 C609 1.370 . S
C608 C610 1.363 . S
C608 H624 0.931 . S
C609 C608 1.370 . S
C609 C613 1.408 . S
C610 C608 1.363 . S
C610 C611 1.370 . S
C610 C614 1.524 . S
C611 C603 1.503 . S
C611 C610 1.370 . S
C611 C612 1.403 . S
C612 C611 1.403 . S
C612 C613 1.404 . S
C612 C615 1.539 . S
C613 C609 1.408 . S
C613 C612 1.404 . S
C613 H625 0.930 . S
C614 C610 1.524 . S
C614 H626 0.956 . S
C614 H627 0.961 . S
C614 H628 0.961 . S
C615 C612 1.539 . S
C615 H629 0.958 . S
C615 H630 0.961 . S
C615 H631 0.960 . S
H616 C600 0.931 . S
H617 C605 0.929 . S
H618 C606 0.960 . S
H619 C606 0.962 . S
H620 C606 0.960 . S
H621 C607 0.961 . S
H622 C607 0.961 . S
H623 C607 0.961 . S
H624 C608 0.931 . S
H625 C613 0.930 . S
H626 C614 0.956 . S
H627 C614 0.961 . S
H628 C614 0.961 . S
H629 C615 0.958 . S
H630 C615 0.961 . S
H631 C615 0.960 . S
C632 C633 1.391 . S
C632 C634 1.394 . S
C632 H648 0.931 . S
C633 C632 1.391 . S
C633 C637 1.376 . S
C634 C632 1.394 . S
C634 C635 1.369 . S
C634 C638 1.531 . S
C635 C634 1.369 . S
C635 C636 1.410 . S
C635 C643 1.503 . S
C636 C635 1.410 . S
C636 C637 1.392 . S
C636 C639 1.511 . S
C637 C633 1.376 . S
C637 C636 1.392 . S
C637 H649 0.929 . S
C638 C634 1.531 . S
C638 H650 0.960 . S
C638 H651 0.962 . S
C638 H652 0.960 . S
C639 C636 1.511 . S
C639 H653 0.961 . S
C639 H654 0.961 . S
C639 H655 0.961 . S
C640 C641 1.370 . S
C640 C642 1.363 . S
C640 H656 0.931 . S
C641 C640 1.370 . S
C641 C645 1.408 . S
C642 C640 1.363 . S
C642 C643 1.370 . S
C642 C646 1.524 . S
C643 C635 1.503 . S
C643 C642 1.370 . S
C643 C644 1.403 . S
C644 C643 1.403 . S
C644 C645 1.404 . S
C644 C647 1.539 . S
C645 C641 1.408 . S
C645 C644 1.404 . S
C645 H657 0.930 . S
C646 C642 1.524 . S
C646 H658 0.956 . S
C646 H659 0.961 . S
C646 H660 0.961 . S
C647 C644 1.539 . S
C647 H661 0.958 . S
C647 H662 0.961 . S
C647 H663 0.960 . S
H648 C632 0.931 . S
H649 C637 0.929 . S
H650 C638 0.960 . S
H651 C638 0.962 . S
H652 C638 0.960 . S
H653 C639 0.961 . S
H654 C639 0.961 . S
H655 C639 0.961 . S
H656 C640 0.931 . S
H657 C645 0.930 . S
H658 C646 0.956 . S
H659 C646 0.961 . S
H660 C646 0.961 . S
H661 C647 0.958 . S
H662 C647 0.961 . S
H663 C647 0.960 . S
C664 C665 1.391 . S
C664 C666 1.394 . S
C664 H680 0.931 . S
C665 C664 1.391 . S
C665 C669 1.376 . S
C666 C664 1.394 . S
C666 C667 1.369 . S
C666 C670 1.531 . S
C667 C666 1.369 . S
C667 C668 1.410 . S
C667 C675 1.503 . S
C668 C667 1.410 . S
C668 C669 1.392 . S
C668 C671 1.511 . S
C669 C665 1.376 . S
C669 C668 1.392 . S
C669 H681 0.929 . S
C670 C666 1.531 . S
C670 H682 0.960 . S
C670 H683 0.962 . S
C670 H684 0.960 . S
C671 C668 1.511 . S
C671 H685 0.961 . S
C671 H686 0.961 . S
C671 H687 0.961 . S
C672 C673 1.370 . S
C672 C674 1.363 . S
C672 H688 0.931 . S
C673 C672 1.370 . S
C673 C677 1.408 . S
C674 C672 1.363 . S
C674 C675 1.370 . S
C674 C678 1.524 . S
C675 C667 1.503 . S
C675 C674 1.370 . S
C675 C676 1.403 . S
C676 C675 1.403 . S
C676 C677 1.404 . S
C676 C679 1.539 . S
C677 C673 1.408 . S
C677 C676 1.404 . S
C677 H689 0.930 . S
C678 C674 1.524 . S
C678 H690 0.956 . S
C678 H691 0.961 . S
C678 H692 0.961 . S
C679 C676 1.539 . S
C679 H693 0.958 . S
C679 H694 0.961 . S
C679 H695 0.960 . S
H680 C664 0.931 . S
H681 C669 0.929 . S
H682 C670 0.960 . S
H683 C670 0.962 . S
H684 C670 0.960 . S
H685 C671 0.961 . S
H686 C671 0.961 . S
H687 C671 0.961 . S
H688 C672 0.931 . S
H689 C677 0.930 . S
H690 C678 0.956 . S
H691 C678 0.961 . S
H692 C678 0.961 . S
H693 C679 0.958 . S
H694 C679 0.961 . S
H695 C679 0.960 . S
C696 C697 1.391 . S
C696 C698 1.394 . S
C696 H712 0.931 . S
C697 C696 1.391 . S
C697 C701 1.376 . S
C698 C696 1.394 . S
C698 C699 1.369 . S
C698 C702 1.531 . S
C699 C698 1.369 . S
C699 C700 1.410 . S
C699 C707 1.503 . S
C700 C699 1.410 . S
C700 C701 1.392 . S
C700 C703 1.511 . S
C701 C697 1.376 . S
C701 C700 1.392 . S
C701 H713 0.929 . S
C702 C698 1.531 . S
C702 H714 0.960 . S
C702 H715 0.962 . S
C702 H716 0.960 . S
C703 C700 1.511 . S
C703 H717 0.961 . S
C703 H718 0.961 . S
C703 H719 0.961 . S
C704 C705 1.370 . S
C704 C706 1.363 . S
C704 H720 0.931 . S
C705 C704 1.370 . S
C705 C709 1.408 . S
C706 C704 1.363 . S
C706 C707 1.370 . S
C706 C710 1.524 . S
C707 C699 1.503 . S
C707 C706 1.370 . S
C707 C708 1.403 . S
C708 C707 1.403 . S
C708 C709 1.404 . S
C708 C711 1.539 . S
C709 C705 1.408 . S
C709 C708 1.404 . S
C709 H721 0.930 . S
C710 C706 1.524 . S
C710 H722 0.956 . S
C710 H723 0.961 . S
C710 H724 0.961 . S
C711 C708 1.539 . S
C711 H725 0.958 . S
C711 H726 0.961 . S
C711 H727 0.960 . S
H712 C696 0.931 . S
H713 C701 0.929 . S
H714 C702 0.960 . S
H715 C702 0.962 . S
H716 C702 0.960 . S
H717 C703 0.961 . S
H718 C703 0.961 . S
H719 C703 0.961 . S
H720 C704 0.931 . S
H721 C709 0.930 . S
H722 C710 0.956 . S
H723 C710 0.961 . S
H724 C710 0.961 . S
H725 C711 0.958 . S
H726 C711 0.961 . S
H727 C711 0.960 . S
C728 C729 1.391 . S
C728 C730 1.394 . S
C728 H744 0.931 . S
C729 C728 1.391 . S
C729 C733 1.376 . S
C730 C728 1.394 . S
C730 C731 1.369 . S
C730 C734 1.531 . S
C731 C730 1.369 . S
C731 C732 1.410 . S
C731 C739 1.503 . S
C732 C731 1.410 . S
C732 C733 1.392 . S
C732 C735 1.511 . S
C733 C729 1.376 . S
C733 C732 1.392 . S
C733 H745 0.929 . S
C734 C730 1.531 . S
C734 H746 0.960 . S
C734 H747 0.962 . S
C734 H748 0.960 . S
C735 C732 1.511 . S
C735 H749 0.961 . S
C735 H750 0.961 . S
C735 H751 0.961 . S
C736 C737 1.370 . S
C736 C738 1.363 . S
C736 H752 0.931 . S
C737 C736 1.370 . S
C737 C741 1.408 . S
C738 C736 1.363 . S
C738 C739 1.370 . S
C738 C742 1.524 . S
C739 C731 1.503 . S
C739 C738 1.370 . S
C739 C740 1.403 . S
C740 C739 1.403 . S
C740 C741 1.404 . S
C740 C743 1.539 . S
C741 C737 1.408 . S
C741 C740 1.404 . S
C741 H753 0.930 . S
C742 C738 1.524 . S
C742 H754 0.956 . S
C742 H755 0.961 . S
C742 H756 0.961 . S
C743 C740 1.539 . S
C743 H757 0.958 . S
C743 H758 0.961 . S
C743 H759 0.960 . S
H744 C728 0.931 . S
H745 C733 0.929 . S
H746 C734 0.960 . S
H747 C734 0.962 . S
H748 C734 0.960 . S
H749 C735 0.961 . S
H750 C735 0.961 . S
H751 C735 0.961 . S
H752 C736 0.931 . S
H753 C741 0.930 . S
H754 C742 0.956 . S
H755 C742 0.961 . S
H756 C742 0.961 . S
H757 C743 0.958 . S
H758 C743 0.961 . S
H759 C743 0.960 . S
C760 C761 1.391 . S
C760 C762 1.394 . S
C760 H776 0.931 . S
C761 C760 1.391 . S
C761 C765 1.376 . S
C762 C760 1.394 . S
C762 C763 1.369 . S
C762 C766 1.531 . S
C763 C762 1.369 . S
C763 C764 1.410 . S
C763 C771 1.503 . S
C764 C763 1.410 . S
C764 C765 1.392 . S
C764 C767 1.511 . S
C765 C761 1.376 . S
C765 C764 1.392 . S
C765 H777 0.929 . S
C766 C762 1.531 . S
C766 H778 0.960 . S
C766 H779 0.962 . S
C766 H780 0.960 . S
C767 C764 1.511 . S
C767 H781 0.961 . S
C767 H782 0.961 . S
C767 H783 0.961 . S
C768 C769 1.354 1_556 S
C768 C770 1.363 . S
C768 H784 0.931 . S
C769 C768 1.354 1_554 S
C769 C773 1.416 . S
C770 C768 1.363 . S
C770 C771 1.370 . S
C770 C774 1.524 . S
C771 C763 1.503 . S
C771 C770 1.370 . S
C771 C772 1.403 1_556 S
C772 C771 1.403 1_554 S
C772 C773 1.404 . S
C772 C775 1.539 . S
C773 C769 1.416 . S
C773 C772 1.404 . S
C773 H785 0.930 . S
C774 C770 1.524 . S
C774 H786 0.956 . S
C774 H787 0.961 . S
C774 H788 0.961 . S
C775 C772 1.539 . S
C775 H789 0.958 . S
C775 H790 0.961 . S
C775 H791 0.960 . S
H776 C760 0.931 . S
H777 C765 0.929 . S
H778 C766 0.960 . S
H779 C766 0.962 . S
H780 C766 0.960 . S
H781 C767 0.961 . S
H782 C767 0.961 . S
H783 C767 0.961 . S
H784 C768 0.931 . S
H785 C773 0.930 . S
H786 C774 0.956 . S
H787 C774 0.961 . S
H788 C774 0.961 . S
H789 C775 0.958 . S
H790 C775 0.961 . S
H791 C775 0.960 . S
C792 C793 1.391 . S
C792 C794 1.394 . S
C792 H808 0.931 . S
C793 C792 1.391 . S
C793 C797 1.376 . S
C794 C792 1.394 . S
C794 C795 1.369 . S
C794 C798 1.531 1_655 S
C795 C794 1.369 . S
C795 C796 1.410 . S
C795 C803 1.503 . S
C796 C795 1.410 . S
C796 C797 1.392 . S
C796 C799 1.511 . S
C797 C793 1.376 . S
C797 C796 1.392 . S
C797 H809 0.929 . S
C798 C794 1.531 1_455 S
C798 H810 0.960 . S
C798 H811 0.962 . S
C798 H812 0.960 . S
C799 C796 1.511 . S
C799 H813 0.961 . S
C799 H814 0.961 . S
C799 H815 0.961 . S
C800 C801 1.370 . S
C800 C802 1.363 . S
C800 H816 0.931 . S
C801 C800 1.370 . S
C801 C805 1.408 . S
C802 C800 1.363 . S
C802 C803 1.370 . S
C802 C806 1.524 . S
C803 C795 1.503 . S
C803 C802 1.370 . S
C803 C804 1.403 . S
C804 C803 1.403 . S
C804 C805 1.404 . S
C804 C807 1.539 . S
C805 C801 1.408 . S
C805 C804 1.404 . S
C805 H817 0.930 . S
C806 C802 1.524 . S
C806 H818 0.944 1_655 S
C806 H819 0.961 . S
C806 H820 0.961 . S
C807 C804 1.539 . S
C807 H821 0.958 . S
C807 H822 0.961 . S
C807 H823 0.960 . S
H808 C792 0.931 . S
H809 C797 0.929 . S
H810 C798 0.960 . S
H811 C798 0.962 . S
H812 C798 0.960 . S
H813 C799 0.961 . S
H814 C799 0.961 . S
H815 C799 0.961 . S
H816 C800 0.931 . S
H817 C805 0.930 . S
H818 C806 0.944 1_455 S
H819 C806 0.961 . S
H820 C806 0.961 . S
H821 C807 0.958 . S
H822 C807 0.961 . S
H823 C807 0.960 . S
C824 C825 1.391 . S
C824 C826 1.394 . S
C824 H840 0.931 . S
C825 C824 1.391 . S
C825 C829 1.376 . S
C826 C824 1.394 . S
C826 C827 1.369 . S
C826 C830 1.531 . S
C827 C826 1.369 . S
C827 C828 1.410 . S
C827 C835 1.503 . S
C828 C827 1.410 . S
C828 C829 1.392 . S
C828 C831 1.511 . S
C829 C825 1.376 . S
C829 C828 1.392 . S
C829 H841 0.929 . S
C830 C826 1.531 . S
C830 H842 0.960 . S
C830 H843 0.962 . S
C830 H844 0.960 . S
C831 C828 1.511 . S
C831 H845 0.961 . S
C831 H846 0.961 . S
C831 H847 0.961 . S
C832 C833 1.370 . S
C832 C834 1.363 . S
C832 H848 0.931 . S
C833 C832 1.370 . S
C833 C837 1.408 . S
C834 C832 1.363 . S
C834 C835 1.370 . S
C834 C838 1.524 . S
C835 C827 1.503 . S
C835 C834 1.370 . S
C835 C836 1.403 . S
C836 C835 1.403 . S
C836 C837 1.404 . S
C836 C839 1.539 . S
C837 C833 1.408 . S
C837 C836 1.404 . S
C837 H849 0.930 . S
C838 C834 1.524 . S
C838 H850 0.956 . S
C838 H851 0.961 . S
C838 H852 0.961 . S
C839 C836 1.539 . S
C839 H853 0.958 . S
C839 H854 0.961 . S
C839 H855 0.960 . S
H840 C824 0.931 . S
H841 C829 0.929 . S
H842 C830 0.960 . S
H843 C830 0.962 . S
H844 C830 0.960 . S
H845 C831 0.961 . S
H846 C831 0.961 . S
H847 C831 0.961 . S
H848 C832 0.931 . S
H849 C837 0.930 . S
H850 C838 0.956 . S
H851 C838 0.961 . S
H852 C838 0.961 . S
H853 C839 0.958 . S
H854 C839 0.961 . S
H855 C839 0.960 . S
C856 C857 1.391 . S
C856 C858 1.394 . S
C856 H872 0.931 . S
C857 C856 1.391 . S
C857 C861 1.376 . S
C858 C856 1.394 . S
C858 C859 1.369 . S
C858 C862 1.531 . S
C859 C858 1.369 . S
C859 C860 1.410 . S
C859 C867 1.503 . S
C860 C859 1.410 . S
C860 C861 1.392 . S
C860 C863 1.511 . S
C861 C857 1.376 . S
C861 C860 1.392 . S
C861 H873 0.929 . S
C862 C858 1.531 . S
C862 H874 0.960 . S
C862 H875 0.962 . S
C862 H876 0.960 . S
C863 C860 1.511 . S
C863 H877 0.961 . S
C863 H878 0.961 . S
C863 H879 0.961 . S
C864 C865 1.370 . S
C864 C866 1.363 . S
C864 H880 0.931 . S
C865 C864 1.370 . S
C865 C869 1.408 . S
C866 C864 1.363 . S
C866 C867 1.370 . S
C866 C870 1.524 . S
C867 C859 1.503 . S
C867 C866 1.370 . S
C867 C868 1.403 . S
C868 C867 1.403 . S
C868 C869 1.404 . S
C868 C871 1.539 . S
C869 C865 1.408 . S
C869 C868 1.404 . S
C869 H881 0.930 . S
C870 C866 1.524 . S
C870 H882 0.956 . S
C870 H883 0.961 . S
C870 H884 0.961 . S
C871 C868 1.539 . S
C871 H885 0.958 . S
C871 H886 0.961 . S
C871 H887 0.960 . S
H872 C856 0.931 . S
H873 C861 0.929 . S
H874 C862 0.960 . S
H875 C862 0.962 . S
H876 C862 0.960 . S
H877 C863 0.961 . S
H878 C863 0.961 . S
H879 C863 0.961 . S
H880 C864 0.931 . S
H881 C869 0.930 . S
H882 C870 0.956 . S
H883 C870 0.961 . S
H884 C870 0.961 . S
H885 C871 0.958 . S
H886 C871 0.961 . S
H887 C871 0.960 . S
C888 C889 1.391 . S
C888 C890 1.394 . S
C888 H904 0.931 . S
C889 C888 1.391 . S
C889 C893 1.376 . S
C890 C888 1.394 . S
C890 C891 1.369 . S
C890 C894 1.531 . S
C891 C890 1.369 . S
C891 C892 1.410 . S
C891 C899 1.503 . S
C892 C891 1.410 . S
C892 C893 1.392 . S
C892 C895 1.511 . S
C893 C889 1.376 . S
C893 C892 1.392 . S
C893 H905 0.929 . S
C894 C890 1.531 . S
C894 H906 0.960 . S
C894 H907 0.962 . S
C894 H908 0.960 . S
C895 C892 1.511 . S
C895 H909 0.961 . S
C895 H910 0.961 . S
C895 H911 0.961 . S
C896 C897 1.370 . S
C896 C898 1.363 . S
C896 H912 0.931 . S
C897 C896 1.370 . S
C897 C901 1.408 . S
C898 C896 1.363 . S
C898 C899 1.370 . S
C898 C902 1.524 . S
C899 C891 1.503 . S
C899 C898 1.370 . S
C899 C900 1.403 . S
C900 C899 1.403 . S
C900 C901 1.404 . S
C900 C903 1.539 . S
C901 C897 1.408 . S
C901 C900 1.404 . S
C901 H913 0.930 . S
C902 C898 1.524 . S
C902 H914 0.956 . S
C902 H915 0.961 . S
C902 H916 0.961 . S
C903 C900 1.539 . S
C903 H917 0.958 . S
C903 H918 0.961 . S
C903 H919 0.960 . S
H904 C888 0.931 . S
H905 C893 0.929 . S
H906 C894 0.960 . S
H907 C894 0.962 . S
H908 C894 0.960 . S
H909 C895 0.961 . S
H910 C895 0.961 . S
H911 C895 0.961 . S
H912 C896 0.931 . S
H913 C901 0.930 . S
H914 C902 0.956 . S
H915 C902 0.961 . S
H916 C902 0.961 . S
H917 C903 0.958 . S
H918 C903 0.961 . S
H919 C903 0.960 . S
C920 C921 1.391 . S
C920 C922 1.394 . S
C920 H936 0.931 . S
C921 C920 1.391 . S
C921 C925 1.376 . S
C922 C920 1.394 . S
C922 C923 1.369 . S
C922 C926 1.531 . S
C923 C922 1.369 . S
C923 C924 1.410 . S
C923 C931 1.503 . S
C924 C923 1.410 . S
C924 C925 1.392 . S
C924 C927 1.511 . S
C925 C921 1.376 . S
C925 C924 1.392 . S
C925 H937 0.929 . S
C926 C922 1.531 . S
C926 H938 0.960 . S
C926 H939 0.962 . S
C926 H940 0.960 . S
C927 C924 1.511 . S
C927 H941 0.961 . S
C927 H942 0.961 . S
C927 H943 0.961 . S
C928 C929 1.370 . S
C928 C930 1.363 . S
C928 H944 0.931 . S
C929 C928 1.370 . S
C929 C933 1.408 . S
C930 C928 1.363 . S
C930 C931 1.370 . S
C930 C934 1.524 . S
C931 C923 1.503 . S
C931 C930 1.370 . S
C931 C932 1.403 . S
C932 C931 1.403 . S
C932 C933 1.404 . S
C932 C935 1.539 . S
C933 C929 1.408 . S
C933 C932 1.404 . S
C933 H945 0.930 . S
C934 C930 1.524 . S
C934 H946 0.956 . S
C934 H947 0.961 . S
C934 H948 0.961 . S
C935 C932 1.539 . S
C935 H949 0.958 . S
C935 H950 0.961 . S
C935 H951 0.960 . S
H936 C920 0.931 . S
H937 C925 0.929 . S
H938 C926 0.960 . S
H939 C926 0.962 . S
H940 C926 0.960 . S
H941 C927 0.961 . S
H942 C927 0.961 . S
H943 C927 0.961 . S
H944 C928 0.931 . S
H945 C933 0.930 . S
H946 C934 0.956 . S
H947 C934 0.961 . S
H948 C934 0.961 . S
H949 C935 0.958 . S
H950 C935 0.961 . S
H951 C935 0.960 . S
C952 C953 1.391 . S
C952 C954 1.394 . S
C952 H968 0.931 . S
C953 C952 1.391 . S
C953 C957 1.376 . S
C954 C952 1.394 . S
C954 C955 1.369 . S
C954 C958 1.531 . S
C955 C954 1.369 . S
C955 C956 1.410 . S
C955 C963 1.503 . S
C956 C955 1.410 . S
C956 C957 1.392 . S
C956 C959 1.511 . S
C957 C953 1.376 . S
C957 C956 1.392 . S
C957 H969 0.929 . S
C958 C954 1.531 . S
C958 H970 0.960 . S
C958 H971 0.962 . S
C958 H972 0.960 . S
C959 C956 1.511 . S
C959 H973 0.961 . S
C959 H974 0.961 . S
C959 H975 0.961 . S
C960 C961 1.370 . S
C960 C962 1.363 . S
C960 H976 0.931 . S
C961 C960 1.370 . S
C961 C965 1.408 . S
C962 C960 1.363 . S
C962 C963 1.370 . S
C962 C966 1.524 . S
C963 C955 1.503 . S
C963 C962 1.370 . S
C963 C964 1.403 . S
C964 C963 1.403 . S
C964 C965 1.404 . S
C964 C967 1.539 . S
C965 C961 1.408 . S
C965 C964 1.404 . S
C965 H977 0.930 . S
C966 C962 1.524 . S
C966 H978 0.956 . S
C966 H979 0.961 . S
C966 H980 0.961 . S
C967 C964 1.539 . S
C967 H981 0.958 . S
C967 H982 0.961 . S
C967 H983 0.960 . S
H968 C952 0.931 . S
H969 C957 0.929 . S
H970 C958 0.960 . S
H971 C958 0.962 . S
H972 C958 0.960 . S
H973 C959 0.961 . S
H974 C959 0.961 . S
H975 C959 0.961 . S
H976 C960 0.931 . S
H977 C965 0.930 . S
H978 C966 0.956 . S
H979 C966 0.961 . S
H980 C966 0.961 . S
H981 C967 0.958 . S
H982 C967 0.961 . S
H983 C967 0.960 . S
C984 C985 1.391 . S
C984 C986 1.394 . S
C984 H1000 0.931 . S
C985 C984 1.391 . S
C985 C989 1.376 . S
C986 C984 1.394 . S
C986 C987 1.369 . S
C986 C990 1.531 . S
C987 C986 1.369 . S
C987 C988 1.410 . S
C987 C995 1.503 . S
C988 C987 1.410 . S
C988 C989 1.392 . S
C988 C991 1.511 . S
C989 C985 1.376 . S
C989 C988 1.392 . S
C989 H1001 0.929 . S
C990 C986 1.531 . S
C990 H1002 0.960 . S
C990 H1003 0.962 . S
C990 H1004 0.960 . S
C991 C988 1.511 . S
C991 H1005 0.961 . S
C991 H1006 0.961 . S
C991 H1007 0.961 . S
C992 C993 1.370 . S
C992 C994 1.363 . S
C992 H1008 0.931 . S
C993 C992 1.370 . S
C993 C997 1.408 . S
C994 C992 1.363 . S
C994 C995 1.370 . S
C994 C998 1.524 . S
C995 C987 1.503 . S
C995 C994 1.370 . S
C995 C996 1.403 . S
C996 C995 1.403 . S
C996 C997 1.404 . S
C996 C999 1.539 . S
C997 C993 1.408 . S
C997 C996 1.404 . S
C997 H1009 0.930 . S
C998 C994 1.524 . S
C998 H1010 0.956 . S
C998 H1011 0.961 . S
C998 H1012 0.961 . S
C999 C996 1.539 . S
C999 H1013 0.958 . S
C999 H1014 0.961 . S
C999 H1015 0.960 . S
H1000 C984 0.931 . S
H1001 C989 0.929 . S
H1002 C990 0.960 . S
H1003 C990 0.962 . S
H1004 C990 0.960 . S
H1005 C991 0.961 . S
H1006 C991 0.961 . S
H1007 C991 0.961 . S
H1008 C992 0.931 . S
H1009 C997 0.930 . S
H1010 C998 0.956 . S
H1011 C998 0.961 . S
H1012 C998 0.961 . S
H1013 C999 0.958 . S
H1014 C999 0.961 . S
H1015 C999 0.960 . S
C249 C4 1.251 . S
C257 C103 1.281 . S
C281 C16 1.227 . S
C289 C143 1.266 . S
C321 C177 1.928 . S
C313 C32 1.912 . S
C345 C43 2.542 . S
C353 C218 2.499 . S
C385 C138 1.914 . S
C377 C5 1.837 . S
C417 C98 1.730 . S
C409 C21 1.591 . S
C449 C226 1.481 . S
C441 C27 1.526 . S
C481 C187 1.733 . S
C473 C37 1.793 . S
C505 C10 1.219 . S
C513 C223 1.232 . S
C545 C146 2.198 1_556 S
C537 C26 2.261 . S
C569 C38 2.102 . S
C577 C106 2.037 . S
C601 C15 1.717 . S
C609 C174 1.762 . S
C641 C94 1.426 . S
C633 C48 1.382 . S
C665 C59 1.031 . S
C673 C134 0.998 . S
C697 C76 2.165 . S
C705 C186 2.128 . S
C729 C87 2.302 . S
C737 C227 2.258 . S
C761 C54 1.176 . S
C769 C147 1.240 . S
C801 C107 2.394 . S
C793 C60 2.304 . S
C833 C217 1.569 . S
C825 C71 1.537 . S
C865 C178 1.712 . S
C857 C82 1.726 . S
C889 C49 1.671 . S
C897 C214 1.674 . S
C929 C137 1.642 . S
C921 C70 1.697 . S
C961 C97 2.476 . S
C953 C81 2.545 . S
C985 C65 1.413 . S
C993 C183 1.429 . S
